# Generated by pormake.
# Topology wgd, (5)-cn, num edge types: 1
# Building blocks:
#     Node 0, Type 0, BuildingBlock: XOMCOT_clean_sbu_1, # of connection points: 5
#     Node 1, Type 0, BuildingBlock: XOMCOT_clean_sbu_1, # of connection points: 5
#     Node 2, Type 0, BuildingBlock: XOMCOT_clean_sbu_1, # of connection points: 5
#     Node 3, Type 0, BuildingBlock: XOMCOT_clean_sbu_1, # of connection points: 5
#     Node 4, Type 0, BuildingBlock: XOMCOT_clean_sbu_1, # of connection points: 5
#     Node 5, Type 0, BuildingBlock: XOMCOT_clean_sbu_1, # of connection points: 5
#     Node 6, Type 0, BuildingBlock: XOMCOT_clean_sbu_1, # of connection points: 5
#     Node 7, Type 0, BuildingBlock: XOMCOT_clean_sbu_1, # of connection points: 5
#     Node 8, Type 0, BuildingBlock: XOMCOT_clean_sbu_1, # of connection points: 5
#     Node 9, Type 0, BuildingBlock: XOMCOT_clean_sbu_1, # of connection points: 5
#     Node 10, Type 0, BuildingBlock: XOMCOT_clean_sbu_1, # of connection points: 5
#     Node 11, Type 0, BuildingBlock: XOMCOT_clean_sbu_1, # of connection points: 5
#     Node 12, Type 0, BuildingBlock: XOMCOT_clean_sbu_1, # of connection points: 5
#     Node 13, Type 0, BuildingBlock: XOMCOT_clean_sbu_1, # of connection points: 5
#     Node 14, Type 0, BuildingBlock: XOMCOT_clean_sbu_1, # of connection points: 5
#     Node 15, Type 0, BuildingBlock: XOMCOT_clean_sbu_1, # of connection points: 5
#     Node 16, Type 0, BuildingBlock: XOMCOT_clean_sbu_1, # of connection points: 5
#     Node 17, Type 0, BuildingBlock: XOMCOT_clean_sbu_1, # of connection points: 5
#     Node 18, Type 0, BuildingBlock: XOMCOT_clean_sbu_1, # of connection points: 5
#     Node 19, Type 0, BuildingBlock: XOMCOT_clean_sbu_1, # of connection points: 5
#     Node 20, Type 0, BuildingBlock: XOMCOT_clean_sbu_1, # of connection points: 5
#     Node 21, Type 0, BuildingBlock: XOMCOT_clean_sbu_1, # of connection points: 5
#     Node 22, Type 0, BuildingBlock: XOMCOT_clean_sbu_1, # of connection points: 5
#     Node 23, Type 0, BuildingBlock: XOMCOT_clean_sbu_1, # of connection points: 5
#     Node 24, Type 0, BuildingBlock: XOMCOT_clean_sbu_1, # of connection points: 5
#     Node 25, Type 0, BuildingBlock: XOMCOT_clean_sbu_1, # of connection points: 5
#     Node 26, Type 0, BuildingBlock: XOMCOT_clean_sbu_1, # of connection points: 5
#     Node 27, Type 0, BuildingBlock: XOMCOT_clean_sbu_1, # of connection points: 5
#     Node 28, Type 0, BuildingBlock: XOMCOT_clean_sbu_1, # of connection points: 5
#     Node 29, Type 0, BuildingBlock: XOMCOT_clean_sbu_1, # of connection points: 5
#     Node 30, Type 0, BuildingBlock: XOMCOT_clean_sbu_1, # of connection points: 5
#     Node 31, Type 0, BuildingBlock: XOMCOT_clean_sbu_1, # of connection points: 5
#     Edge 32, Type (0, 0), BuildingBlock: EZIPEK_clean_linker_0, # of connection points: 2
#     Edge 33, Type (0, 0), BuildingBlock: EZIPEK_clean_linker_0, # of connection points: 2
#     Edge 34, Type (0, 0), BuildingBlock: EZIPEK_clean_linker_0, # of connection points: 2
#     Edge 35, Type (0, 0), BuildingBlock: EZIPEK_clean_linker_0, # of connection points: 2
#     Edge 36, Type (0, 0), BuildingBlock: EZIPEK_clean_linker_0, # of connection points: 2
#     Edge 37, Type (0, 0), BuildingBlock: EZIPEK_clean_linker_0, # of connection points: 2
#     Edge 38, Type (0, 0), BuildingBlock: EZIPEK_clean_linker_0, # of connection points: 2
#     Edge 39, Type (0, 0), BuildingBlock: EZIPEK_clean_linker_0, # of connection points: 2
#     Edge 40, Type (0, 0), BuildingBlock: EZIPEK_clean_linker_0, # of connection points: 2
#     Edge 41, Type (0, 0), BuildingBlock: EZIPEK_clean_linker_0, # of connection points: 2
#     Edge 42, Type (0, 0), BuildingBlock: EZIPEK_clean_linker_0, # of connection points: 2
#     Edge 43, Type (0, 0), BuildingBlock: EZIPEK_clean_linker_0, # of connection points: 2
#     Edge 44, Type (0, 0), BuildingBlock: EZIPEK_clean_linker_0, # of connection points: 2
#     Edge 45, Type (0, 0), BuildingBlock: EZIPEK_clean_linker_0, # of connection points: 2
#     Edge 46, Type (0, 0), BuildingBlock: EZIPEK_clean_linker_0, # of connection points: 2
#     Edge 47, Type (0, 0), BuildingBlock: EZIPEK_clean_linker_0, # of connection points: 2
#     Edge 48, Type (0, 0), BuildingBlock: EZIPEK_clean_linker_0, # of connection points: 2
#     Edge 49, Type (0, 0), BuildingBlock: EZIPEK_clean_linker_0, # of connection points: 2
#     Edge 50, Type (0, 0), BuildingBlock: EZIPEK_clean_linker_0, # of connection points: 2
#     Edge 51, Type (0, 0), BuildingBlock: EZIPEK_clean_linker_0, # of connection points: 2
#     Edge 52, Type (0, 0), BuildingBlock: EZIPEK_clean_linker_0, # of connection points: 2
#     Edge 53, Type (0, 0), BuildingBlock: EZIPEK_clean_linker_0, # of connection points: 2
#     Edge 54, Type (0, 0), BuildingBlock: EZIPEK_clean_linker_0, # of connection points: 2
#     Edge 55, Type (0, 0), BuildingBlock: EZIPEK_clean_linker_0, # of connection points: 2
#     Edge 56, Type (0, 0), BuildingBlock: EZIPEK_clean_linker_0, # of connection points: 2
#     Edge 57, Type (0, 0), BuildingBlock: EZIPEK_clean_linker_0, # of connection points: 2
#     Edge 58, Type (0, 0), BuildingBlock: EZIPEK_clean_linker_0, # of connection points: 2
#     Edge 59, Type (0, 0), BuildingBlock: EZIPEK_clean_linker_0, # of connection points: 2
#     Edge 60, Type (0, 0), BuildingBlock: EZIPEK_clean_linker_0, # of connection points: 2
#     Edge 61, Type (0, 0), BuildingBlock: EZIPEK_clean_linker_0, # of connection points: 2
#     Edge 62, Type (0, 0), BuildingBlock: EZIPEK_clean_linker_0, # of connection points: 2
#     Edge 63, Type (0, 0), BuildingBlock: EZIPEK_clean_linker_0, # of connection points: 2
#     Edge 64, Type (0, 0), BuildingBlock: EZIPEK_clean_linker_0, # of connection points: 2
#     Edge 65, Type (0, 0), BuildingBlock: EZIPEK_clean_linker_0, # of connection points: 2
#     Edge 66, Type (0, 0), BuildingBlock: EZIPEK_clean_linker_0, # of connection points: 2
#     Edge 67, Type (0, 0), BuildingBlock: EZIPEK_clean_linker_0, # of connection points: 2
#     Edge 68, Type (0, 0), BuildingBlock: EZIPEK_clean_linker_0, # of connection points: 2
#     Edge 69, Type (0, 0), BuildingBlock: EZIPEK_clean_linker_0, # of connection points: 2
#     Edge 70, Type (0, 0), BuildingBlock: EZIPEK_clean_linker_0, # of connection points: 2
#     Edge 71, Type (0, 0), BuildingBlock: EZIPEK_clean_linker_0, # of connection points: 2
#     Edge 72, Type (0, 0), BuildingBlock: EZIPEK_clean_linker_0, # of connection points: 2
#     Edge 73, Type (0, 0), BuildingBlock: EZIPEK_clean_linker_0, # of connection points: 2
#     Edge 74, Type (0, 0), BuildingBlock: EZIPEK_clean_linker_0, # of connection points: 2
#     Edge 75, Type (0, 0), BuildingBlock: EZIPEK_clean_linker_0, # of connection points: 2
#     Edge 76, Type (0, 0), BuildingBlock: EZIPEK_clean_linker_0, # of connection points: 2
#     Edge 77, Type (0, 0), BuildingBlock: EZIPEK_clean_linker_0, # of connection points: 2
#     Edge 78, Type (0, 0), BuildingBlock: EZIPEK_clean_linker_0, # of connection points: 2
#     Edge 79, Type (0, 0), BuildingBlock: EZIPEK_clean_linker_0, # of connection points: 2
#     Edge 80, Type (0, 0), BuildingBlock: EZIPEK_clean_linker_0, # of connection points: 2
#     Edge 81, Type (0, 0), BuildingBlock: EZIPEK_clean_linker_0, # of connection points: 2
#     Edge 82, Type (0, 0), BuildingBlock: EZIPEK_clean_linker_0, # of connection points: 2
#     Edge 83, Type (0, 0), BuildingBlock: EZIPEK_clean_linker_0, # of connection points: 2
#     Edge 84, Type (0, 0), BuildingBlock: EZIPEK_clean_linker_0, # of connection points: 2
#     Edge 85, Type (0, 0), BuildingBlock: EZIPEK_clean_linker_0, # of connection points: 2
#     Edge 86, Type (0, 0), BuildingBlock: EZIPEK_clean_linker_0, # of connection points: 2
#     Edge 87, Type (0, 0), BuildingBlock: EZIPEK_clean_linker_0, # of connection points: 2
#     Edge 88, Type (0, 0), BuildingBlock: EZIPEK_clean_linker_0, # of connection points: 2
#     Edge 89, Type (0, 0), BuildingBlock: EZIPEK_clean_linker_0, # of connection points: 2
#     Edge 90, Type (0, 0), BuildingBlock: EZIPEK_clean_linker_0, # of connection points: 2
#     Edge 91, Type (0, 0), BuildingBlock: EZIPEK_clean_linker_0, # of connection points: 2
#     Edge 92, Type (0, 0), BuildingBlock: EZIPEK_clean_linker_0, # of connection points: 2
#     Edge 93, Type (0, 0), BuildingBlock: EZIPEK_clean_linker_0, # of connection points: 2
#     Edge 94, Type (0, 0), BuildingBlock: EZIPEK_clean_linker_0, # of connection points: 2
#     Edge 95, Type (0, 0), BuildingBlock: EZIPEK_clean_linker_0, # of connection points: 2
#     Edge 96, Type (0, 0), BuildingBlock: EZIPEK_clean_linker_0, # of connection points: 2
#     Edge 97, Type (0, 0), BuildingBlock: EZIPEK_clean_linker_0, # of connection points: 2
#     Edge 98, Type (0, 0), BuildingBlock: EZIPEK_clean_linker_0, # of connection points: 2
#     Edge 99, Type (0, 0), BuildingBlock: EZIPEK_clean_linker_0, # of connection points: 2
#     Edge 100, Type (0, 0), BuildingBlock: EZIPEK_clean_linker_0, # of connection points: 2
#     Edge 101, Type (0, 0), BuildingBlock: EZIPEK_clean_linker_0, # of connection points: 2
#     Edge 102, Type (0, 0), BuildingBlock: EZIPEK_clean_linker_0, # of connection points: 2
#     Edge 103, Type (0, 0), BuildingBlock: EZIPEK_clean_linker_0, # of connection points: 2
#     Edge 104, Type (0, 0), BuildingBlock: EZIPEK_clean_linker_0, # of connection points: 2
#     Edge 105, Type (0, 0), BuildingBlock: EZIPEK_clean_linker_0, # of connection points: 2
#     Edge 106, Type (0, 0), BuildingBlock: EZIPEK_clean_linker_0, # of connection points: 2
#     Edge 107, Type (0, 0), BuildingBlock: EZIPEK_clean_linker_0, # of connection points: 2
#     Edge 108, Type (0, 0), BuildingBlock: EZIPEK_clean_linker_0, # of connection points: 2
#     Edge 109, Type (0, 0), BuildingBlock: EZIPEK_clean_linker_0, # of connection points: 2
#     Edge 110, Type (0, 0), BuildingBlock: EZIPEK_clean_linker_0, # of connection points: 2
#     Edge 111, Type (0, 0), BuildingBlock: EZIPEK_clean_linker_0, # of connection points: 2
# Relax obj value: 0.194
# Max RMSD: 0.171
# Mean RMSD: 0.171
data_MOF--net-wgd--node1-XOMCOT_clean_sbu_1--edge1-EZIPEK_clean_linker_0
_symmetry_space_group_name_H-M    P1
_symmetry_Int_Tables_number       1
_symmetry_cell_setting            triclinic
loop_
_symmetry_equiv_pos_as_xyz
'x, y, z'
_cell_length_a     76.897876
_cell_length_b     76.903507
_cell_length_c     13.294517
_cell_angle_alpha  90.040563
_cell_angle_beta   89.988335
_cell_angle_gamma 90.122126
loop_
_atom_site_label
_atom_site_type_symbol
_atom_site_fract_x
_atom_site_fract_y
_atom_site_fract_z
_atom_type_partial_charge
C0 C 0.16619 0.16845 0.1865 0.0
C1 C 0.16423 0.16864 0.28974 0.0
N2 N 0.17582 0.1575 0.32948 0.0
N3 N 0.17895 0.15722 0.16134 0.0
C4 C 0.18419 0.1504 0.25027 0.0
H5 H 0.15964 0.17688 0.13367 0.0
Co6 Co 0.18954 0.1555 0.03344 0.0
C7 C 0.22646 0.1516 0.12288 0.0
O8 O 0.23244 0.16609 0.08374 0.0
N9 N 0.19964 0.15353 0.90472 0.0
C10 C 0.21595 0.1497 0.76759 0.0
C11 C 0.21599 0.15057 0.87149 0.0
C12 C 0.18999 0.15421 0.8198 0.0
N13 N 0.1995 0.15197 0.73594 0.0
O14 O 0.18083 0.13191 0.01435 0.0
H15 H 0.22731 0.14914 0.91842 0.0
H16 H 0.1763 0.15704 0.81896 0.0
O17 O 0.21098 0.1464 0.10244 0.0
C18 C 0.16447 0.12903 0.0071 0.0
O19 O 0.15357 0.14038 0.04529 0.0
N20 N 0.19647 0.1794 0.04237 0.0
C21 C 0.20243 0.21533 0.04682 0.0
C22 C 0.20685 0.20494 0.12914 0.0
C23 C 0.20343 0.18707 0.12585 0.0
C24 C 0.19145 0.18965 0.96359 0.0
C25 C 0.19458 0.20754 0.96345 0.0
H26 H 0.20599 0.17952 0.1911 0.0
H27 H 0.18435 0.18421 0.90134 0.0
H28 H 0.19479 0.14129 0.25821 0.0
H29 H 0.15597 0.17728 0.33266 0.0
H30 H 0.22709 0.1478 0.71907 0.0
H31 H 0.21248 0.21066 0.19616 0.0
H32 H 0.1905 0.21531 0.89976 0.0
C33 C 0.10185 0.91447 0.41538 0.0
C34 C 0.10079 0.91283 0.51861 0.0
N35 N 0.0998 0.92889 0.55792 0.0
N36 N 0.10176 0.9315 0.39044 0.0
C37 C 0.10013 0.93989 0.4794 0.0
H38 H 0.1024 0.90385 0.36227 0.0
Co39 Co 0.10186 0.94135 0.26139 0.0
C40 C 0.12355 0.96874 0.36354 0.0
O41 O 0.13783 0.95945 0.35898 0.0
N42 N 0.10149 0.95096 0.13246 0.0
C43 C 0.09982 0.9685 0.99938 0.0
C44 C 0.10079 0.96777 0.10298 0.0
C45 C 0.10069 0.94177 0.04597 0.0
N46 N 0.09977 0.9521 0.96449 0.0
O47 O 0.12563 0.93359 0.23875 0.0
H48 H 0.10058 0.9788 0.15316 0.0
H49 H 0.10053 0.92774 0.04214 0.0
O50 O 0.10963 0.96337 0.3208 0.0
C51 C 0.1266 0.9186 0.19751 0.0
O52 O 0.11219 0.90979 0.18251 0.0
N53 N 0.07849 0.94748 0.27827 0.0
C54 C 0.04266 0.95238 0.28776 0.0
C55 C 0.05403 0.96647 0.30109 0.0
C56 C 0.07202 0.96375 0.29607 0.0
C57 C 0.06756 0.9337 0.2655 0.0
C58 C 0.04956 0.93584 0.27045 0.0
H59 H 0.08059 0.97478 0.30464 0.0
H60 H 0.07291 0.92097 0.25026 0.0
H61 H 0.09881 0.95381 0.48742 0.0
H62 H 0.10084 0.90087 0.56148 0.0
H63 H 0.09919 0.98009 0.95331 0.0
H64 H 0.04902 0.97943 0.31412 0.0
H65 H 0.04109 0.92473 0.25942 0.0
C66 C 0.33813 0.83641 0.64529 0.0
C67 C 0.33994 0.83523 0.74859 0.0
N68 N 0.32499 0.84068 0.79074 0.0
N69 N 0.32214 0.84253 0.6234 0.0
C70 C 0.3145 0.84494 0.71392 0.0
H71 H 0.34774 0.8328 0.58966 0.0
Co72 Co 0.31247 0.84548 0.49589 0.0
C73 C 0.27618 0.85679 0.54438 0.0
O74 O 0.27062 0.84688 0.47044 0.0
N75 N 0.303 0.84872 0.36519 0.0
C76 C 0.29429 0.86336 0.2293 0.0
C77 C 0.29472 0.86319 0.33276 0.0
C78 C 0.30763 0.84045 0.27916 0.0
N79 N 0.30256 0.84911 0.19614 0.0
O80 O 0.32514 0.86722 0.47954 0.0
H81 H 0.29077 0.87384 0.38059 0.0
H82 H 0.31632 0.82947 0.27605 0.0
O83 O 0.29258 0.85754 0.55913 0.0
C84 C 0.33767 0.86476 0.41796 0.0
O85 O 0.33977 0.8489 0.3831 0.0
N86 N 0.30204 0.82322 0.50843 0.0
C87 C 0.2935 0.78796 0.52376 0.0
C88 C 0.28467 0.80036 0.58165 0.0
C89 C 0.28936 0.81797 0.57422 0.0
C90 C 0.31122 0.81108 0.45594 0.0
C91 C 0.30694 0.79347 0.4607 0.0
H92 H 0.28331 0.82706 0.62499 0.0
H93 H 0.32256 0.81497 0.41379 0.0
H94 H 0.30129 0.84926 0.72481 0.0
H95 H 0.35121 0.83069 0.78949 0.0
H96 H 0.28978 0.87391 0.18216 0.0
H97 H 0.27469 0.79639 0.6344 0.0
H98 H 0.31452 0.78414 0.41829 0.0
C99 C 0.39323 0.0841 0.94253 0.0
C100 C 0.39159 0.08472 0.04578 0.0
N101 N 0.3975 0.06959 0.08331 0.0
N102 N 0.3998 0.06853 0.91556 0.0
C103 C 0.40246 0.06009 1.00338 0.0
H104 H 0.39032 0.09454 0.89092 0.0
Co105 Co 0.40569 0.06069 0.78715 0.0
C106 C 0.38262 0.03286 0.86336 0.0
O107 O 0.37112 0.04467 0.88837 0.0
N108 N 0.41208 0.05273 0.65624 0.0
C109 C 0.4281 0.04801 0.51875 0.0
C110 C 0.4284 0.04995 0.62112 0.0
C111 C 0.4021 0.05186 0.57238 0.0
N112 N 0.4116 0.04982 0.48774 0.0
O113 O 0.38306 0.06839 0.73605 0.0
H114 H 0.44021 0.05099 0.66406 0.0
H115 H 0.38823 0.05404 0.57169 0.0
O116 O 0.39665 0.03776 0.82 0.0
C117 C 0.383 0.08295 0.68927 0.0
O118 O 0.39779 0.0913 0.67775 0.0
N119 N 0.4279 0.05488 0.83603 0.0
C120 C 0.46338 0.05078 0.87061 0.0
C121 C 0.45227 0.03627 0.87018 0.0
C122 C 0.43443 0.03858 0.85258 0.0
C123 C 0.43837 0.06914 0.84356 0.0
C124 C 0.45618 0.06738 0.86055 0.0
H125 H 0.4262 0.02724 0.84602 0.0
H126 H 0.43297 0.08191 0.8302 0.0
H127 H 0.40833 0.04734 0.00906 0.0
H128 H 0.38714 0.09565 0.09018 0.0
H129 H 0.43935 0.04759 0.4698 0.0
H130 H 0.45748 0.02327 0.87802 0.0
H131 H 0.4644 0.07884 0.86095 0.0
C132 C 0.17131 0.83385 0.82463 0.0
C133 C 0.16915 0.83351 0.72161 0.0
N134 N 0.18215 0.84277 0.68016 0.0
N135 N 0.18562 0.84326 0.84821 0.0
C136 C 0.1915 0.84901 0.75805 0.0
H137 H 0.16315 0.82717 0.87831 0.0
Co138 Co 0.19618 0.84583 0.97671 0.0
C139 C 0.23457 0.85454 0.90496 0.0
O140 O 0.2435 0.8505 0.98586 0.0
N141 N 0.20598 0.84846 0.10426 0.0
C142 C 0.21745 0.8605 0.2415 0.0
C143 C 0.21739 0.86051 0.13777 0.0
C144 C 0.19901 0.8416 0.18877 0.0
N145 N 0.20555 0.84886 0.27317 0.0
O146 O 0.18798 0.86963 0.98729 0.0
H147 H 0.22389 0.86997 0.09083 0.0
H148 H 0.18822 0.83253 0.18847 0.0
O149 O 0.21793 0.85299 0.90506 0.0
C150 C 0.17191 0.87045 0.0122 0.0
O151 O 0.16235 0.85636 1.00315 0.0
N152 N 0.20249 0.82203 0.97618 0.0
C153 C 0.20672 0.78608 0.99142 0.0
C154 C 0.22081 0.79675 0.96645 0.0
C155 C 0.21848 0.81475 0.96054 0.0
C156 C 0.18887 0.81175 1.00458 0.0
C157 C 0.19063 0.79373 0.01172 0.0
H158 H 0.22967 0.82251 0.94429 0.0
H159 H 0.17655 0.81766 0.02346 0.0
H160 H 0.20265 0.85739 0.74836 0.0
H161 H 0.15937 0.82635 0.68014 0.0
H162 H 0.22441 0.86948 0.28971 0.0
H163 H 0.23352 0.7912 0.9524 0.0
H164 H 0.17956 0.78584 0.03337 0.0
C165 C 0.42223 0.91587 0.0326 0.0
C166 C 0.42244 0.91398 0.92921 0.0
N167 N 0.41088 0.92521 0.88989 0.0
N168 N 0.41067 0.92832 0.05786 0.0
C169 C 0.40356 0.93328 0.96927 0.0
H170 H 0.43083 0.90951 0.08534 0.0
Co171 Co 0.40794 0.93867 0.18544 0.0
C172 C 0.40274 0.97523 0.09675 0.0
O173 O 0.41713 0.98147 0.13581 0.0
N174 N 0.40478 0.94844 0.31541 0.0
C175 C 0.4008 0.96502 0.45153 0.0
C176 C 0.40167 0.96483 0.34768 0.0
C177 C 0.40551 0.93897 0.40131 0.0
N178 N 0.40322 0.94868 0.48438 0.0
O179 O 0.38517 0.92811 0.19703 0.0
H180 H 0.40042 0.97609 0.30021 0.0
H181 H 0.40855 0.92528 0.40403 0.0
O182 O 0.39782 0.95965 0.11702 0.0
C183 C 0.38719 0.91325 0.23823 0.0
O184 O 0.40324 0.90796 0.25314 0.0
N185 N 0.4314 0.94723 0.1799 0.0
C186 C 0.46722 0.95379 0.17236 0.0
C187 C 0.45674 0.95694 0.08863 0.0
C188 C 0.43895 0.95332 0.09375 0.0
C189 C 0.44171 0.94385 0.26148 0.0
C190 C 0.45955 0.94732 0.25991 0.0
H191 H 0.43142 0.95474 0.02713 0.0
H192 H 0.43647 0.93753 0.32699 0.0
H193 H 0.39396 0.94344 0.96161 0.0
H194 H 0.43127 0.90597 0.88597 0.0
H195 H 0.39899 0.97628 0.49925 0.0
H196 H 0.46238 0.96146 0.01866 0.0
H197 H 0.46743 0.94421 0.32498 0.0
C198 C 0.33561 0.14309 0.2895 0.0
C199 C 0.33638 0.1415 0.18625 0.0
N200 N 0.32121 0.1472 0.14828 0.0
N201 N 0.31991 0.14945 0.31596 0.0
C202 C 0.31156 0.15205 0.2278 0.0
H203 H 0.34598 0.14011 0.34146 0.0
Co204 Co 0.31157 0.1547 0.44438 0.0
C205 C 0.28393 0.13193 0.36205 0.0
O206 O 0.2958 0.12044 0.33783 0.0
N207 N 0.30302 0.16036 0.57566 0.0
C208 C 0.29671 0.17573 0.71366 0.0
C209 C 0.29841 0.17622 0.61118 0.0
C210 C 0.30327 0.15034 0.65951 0.0
N211 N 0.30031 0.15954 0.74425 0.0
O212 O 0.31922 0.13193 0.49257 0.0
H213 H 0.29781 0.18803 0.56841 0.0
H214 H 0.30671 0.13675 0.6603 0.0
O215 O 0.28874 0.14585 0.40699 0.0
C216 C 0.33399 0.13201 0.53729 0.0
O217 O 0.34228 0.14687 0.54715 0.0
N218 N 0.30602 0.17717 0.3986 0.0
C219 C 0.30231 0.2129 0.37217 0.0
C220 C 0.28778 0.20186 0.3658 0.0
C221 C 0.28992 0.18386 0.37814 0.0
C222 C 0.32035 0.18764 0.39816 0.0
C223 C 0.31879 0.20555 0.38478 0.0
H224 H 0.27854 0.17561 0.37879 0.0
H225 H 0.33296 0.1821 0.41421 0.0
H226 H 0.29869 0.15764 0.22163 0.0
H227 H 0.34736 0.13708 0.14223 0.0
H228 H 0.29503 0.18684 0.7628 0.0
H229 H 0.27486 0.20719 0.35613 0.0
H230 H 0.33025 0.21372 0.38993 0.0
C231 C 0.08775 0.08392 0.57343 0.0
C232 C 0.0877 0.08575 0.47003 0.0
N233 N 0.09774 0.07314 0.43053 0.0
N234 N 0.09773 0.07019 0.59868 0.0
C235 C 0.10413 0.06435 0.50999 0.0
H236 H 0.07997 0.09127 0.62619 0.0
Co237 Co 0.099 0.05948 0.72603 0.0
C238 C 0.10073 0.02271 0.63253 0.0
O239 O 0.08552 0.01767 0.6665 0.0
N240 N 0.10066 0.04929 0.85542 0.0
C241 C 0.10046 0.0322 0.99114 0.0
C242 C 0.09997 0.0326 0.88726 0.0
C243 C 0.10179 0.0587 0.94147 0.0
N244 N 0.10158 0.04867 0.02451 0.0
O245 O 0.12286 0.06727 0.7402 0.0
H246 H 0.09862 0.02139 0.83939 0.0
H247 H 0.10182 0.07275 0.94379 0.0
O248 O 0.10696 0.03762 0.65722 0.0
C249 C 0.12307 0.0827 0.77588 0.0
O250 O 0.10818 0.09092 0.78441 0.0
N251 N 0.07475 0.05362 0.71836 0.0
C252 C 0.03846 0.0501 0.71203 0.0
C253 C 0.04861 0.04599 0.62807 0.0
C254 C 0.06666 0.04819 0.63236 0.0
C255 C 0.06483 0.05814 0.79968 0.0
C256 C 0.04674 0.05622 0.79871 0.0
H257 H 0.07402 0.04603 0.56555 0.0
H258 H 0.07071 0.06401 0.86492 0.0
H259 H 0.11247 0.05314 0.5023 0.0
H260 H 0.07986 0.09474 0.42692 0.0
H261 H 0.09951 0.0208 0.03853 0.0
H262 H 0.04258 0.04169 0.55873 0.0
H263 H 0.03923 0.06001 0.86405 0.0
C264 C 0.83317 0.83816 0.86527 0.0
C265 C 0.83519 0.83821 0.76202 0.0
N266 N 0.82315 0.84893 0.72258 0.0
N267 N 0.81989 0.84874 0.89042 0.0
C268 C 0.81455 0.85561 0.80205 0.0
H269 H 0.84007 0.82997 0.91791 0.0
Co270 Co 0.80924 0.85046 0.01745 0.0
C271 C 0.77211 0.85248 0.92858 0.0
O272 O 0.76686 0.83777 0.96847 0.0
N273 N 0.79926 0.85254 0.14721 0.0
C274 C 0.78254 0.8533 0.28446 0.0
C275 C 0.78265 0.85264 0.18067 0.0
C276 C 0.80893 0.85338 0.23236 0.0
N277 N 0.79911 0.85376 0.31631 0.0
O278 O 0.8173 0.87421 0.02901 0.0
H279 H 0.77125 0.85176 0.13423 0.0
H280 H 0.82298 0.85284 0.23329 0.0
O281 O 0.78735 0.85847 0.94829 0.0
C282 C 0.83289 0.87469 0.06219 0.0
O283 O 0.84128 0.85996 0.07337 0.0
N284 N 0.80302 0.82633 0.01146 0.0
C285 C 0.79876 0.79014 1.00566 0.0
C286 C 0.79428 0.80037 0.92281 0.0
C287 C 0.79688 0.81836 0.92667 0.0
C288 C 0.80781 0.81634 0.09186 0.0
C289 C 0.80558 0.79829 0.09109 0.0
H290 H 0.79444 0.82576 0.86039 0.0
H291 H 0.81411 0.82217 0.15599 0.0
H292 H 0.8038 0.86455 0.79471 0.0
H293 H 0.84383 0.83 0.71884 0.0
H294 H 0.77122 0.85292 0.3329 0.0
H295 H 0.7894 0.79444 0.85445 0.0
H296 H 0.80963 0.7907 0.15554 0.0
C297 C 0.90489 0.08573 0.5968 0.0
C298 C 0.90551 0.08733 0.49337 0.0
N299 N 0.90465 0.07127 0.45389 0.0
N300 N 0.90346 0.06874 0.6216 0.0
C301 C 0.90355 0.06031 0.53222 0.0
H302 H 0.90585 0.09628 0.65016 0.0
Co303 Co 0.90358 0.05899 0.75083 0.0
C304 C 0.88209 0.02952 0.66732 0.0
O305 O 0.86715 0.03609 0.69611 0.0
N306 N 0.90411 0.04941 0.87966 0.0
C307 C 0.90833 0.03201 0.01136 0.0
C308 C 0.90765 0.0329 0.90772 0.0
C309 C 0.90296 0.05832 0.96696 0.0
N310 N 0.90535 0.04805 0.04763 0.0
O311 O 0.87968 0.06623 0.77225 0.0
H312 H 0.91033 0.02236 0.85634 0.0
H313 H 0.90097 0.07219 0.97196 0.0
O314 O 0.89637 0.03682 0.69259 0.0
C315 C 0.87838 0.08151 0.80923 0.0
O316 O 0.89259 0.09067 0.82328 0.0
N317 N 0.92711 0.05344 0.73435 0.0
C318 C 0.96308 0.04995 0.7202 0.0
C319 C 0.95205 0.03804 0.67201 0.0
C320 C 0.93398 0.04001 0.6799 0.0
C321 C 0.93771 0.06508 0.78154 0.0
C322 C 0.95575 0.06356 0.77565 0.0
H323 H 0.92569 0.03086 0.64111 0.0
H324 H 0.93203 0.0757 0.82351 0.0
H325 H 0.90339 0.04635 0.52341 0.0
H326 H 0.90673 0.09925 0.45063 0.0
H327 H 0.9112 0.02065 0.05645 0.0
H328 H 0.95737 0.02745 0.62798 0.0
H329 H 0.96394 0.07302 0.81326 0.0
C330 C 0.66189 0.16094 0.29206 0.0
C331 C 0.66028 0.16097 0.18861 0.0
N332 N 0.67577 0.15653 0.14921 0.0
N333 N 0.67828 0.15642 0.31719 0.0
C334 C 0.68631 0.15363 0.22803 0.0
H335 H 0.65206 0.16501 0.34516 0.0
Co336 Co 0.68817 0.15779 0.44579 0.0
C337 C 0.72271 0.14027 0.40433 0.0
O338 O 0.72253 0.13077 0.48639 0.0
N339 N 0.69782 0.15936 0.57484 0.0
C340 C 0.71458 0.16539 0.70715 0.0
C341 C 0.71377 0.16491 0.60351 0.0
C342 C 0.68915 0.15681 0.662 0.0
N343 N 0.69906 0.16026 0.74297 0.0
O344 O 0.68194 0.13366 0.47152 0.0
H345 H 0.72396 0.16889 0.55264 0.0
H346 H 0.67562 0.15308 0.66669 0.0
O347 O 0.71046 0.15105 0.38794 0.0
C348 C 0.66643 0.13213 0.5049 0.0
O349 O 0.65673 0.14612 0.51098 0.0
N350 N 0.6929 0.18156 0.42417 0.0
C351 C 0.69692 0.21746 0.40278 0.0
C352 C 0.70512 0.20601 0.33594 0.0
C353 C 0.70278 0.18804 0.34731 0.0
C354 C 0.68455 0.19259 0.48829 0.0
C355 C 0.6865 0.21059 0.47948 0.0
H356 H 0.70869 0.17943 0.29332 0.0
H357 H 0.67625 0.18737 0.54668 0.0
H358 H 0.69996 0.15066 0.21937 0.0
H359 H 0.64902 0.16495 0.14566 0.0
H360 H 0.7255 0.16956 0.75262 0.0
H361 H 0.71311 0.21093 0.27513 0.0
H362 H 0.67986 0.2191 0.53184 0.0
C363 C 0.59069 0.9215 0.07055 0.0
C364 C 0.59042 0.91972 0.96709 0.0
N365 N 0.5999 0.93276 0.92747 0.0
N366 N 0.60017 0.93566 0.09526 0.0
C367 C 0.60583 0.94204 1.00613 0.0
H368 H 0.58356 0.91364 0.12396 0.0
Co369 Co 0.60169 0.94591 0.2231 0.0
C370 C 0.60545 0.98371 0.16314 0.0
O371 O 0.59468 0.98882 0.23387 0.0
N372 N 0.60375 0.95589 0.35366 0.0
C373 C 0.61581 0.96896 0.48698 0.0
C374 C 0.61497 0.96849 0.38344 0.0
C375 C 0.59839 0.94863 0.44134 0.0
N376 N 0.60536 0.95641 0.52256 0.0
O377 O 0.62498 0.93684 0.23829 0.0
H378 H 0.62331 0.97584 0.33386 0.0
H379 H 0.59105 0.9367 0.44686 0.0
O380 O 0.60992 0.96768 0.15776 0.0
C381 C 0.62272 0.92288 0.28879 0.0
O382 O 0.60664 0.91859 0.3117 0.0
N383 N 0.57805 0.95266 0.21154 0.0
C384 C 0.54219 0.95645 0.18636 0.0
C385 C 0.55375 0.96352 0.11619 0.0
C386 C 0.57166 0.96111 0.12917 0.0
C387 C 0.56676 0.94505 0.27745 0.0
C388 C 0.54883 0.9471 0.2676 0.0
H389 H 0.5803 0.96522 0.07012 0.0
H390 H 0.57141 0.93626 0.33384 0.0
H391 H 0.61327 0.95388 0.99744 0.0
H392 H 0.58305 0.91028 0.92419 0.0
H393 H 0.62432 0.97701 0.53228 0.0
H394 H 0.54896 0.97013 0.04984 0.0
H395 H 0.54017 0.94074 0.3204 0.0
C396 C 0.83566 0.14456 0.21649 0.0
C397 C 0.83604 0.14339 0.32011 0.0
N398 N 0.82033 0.14809 0.35504 0.0
N399 N 0.81972 0.14988 0.18644 0.0
C400 C 0.81078 0.15188 0.27345 0.0
H401 H 0.84651 0.1419 0.16749 0.0
Co402 Co 0.81069 0.15428 0.05687 0.0
C403 C 0.7768 0.13546 0.09808 0.0
O404 O 0.77881 0.1231 0.03087 0.0
N405 N 0.80096 0.15873 0.92732 0.0
C406 C 0.78924 0.17232 0.79512 0.0
C407 C 0.7909 0.17229 0.89825 0.0
C408 C 0.80424 0.15022 0.84014 0.0
N409 N 0.7978 0.15847 0.75917 0.0
O410 O 0.81677 0.13087 0.0143 0.0
H411 H 0.78581 0.18223 0.94741 0.0
H412 H 0.81167 0.13846 0.83398 0.0
O413 O 0.78813 0.14744 0.10681 0.0
C414 C 0.83238 0.13053 0.98 0.0
O415 O 0.84167 0.14486 0.98557 0.0
N416 N 0.80698 0.17759 0.09396 0.0
C417 C 0.80461 0.21346 0.11826 0.0
C418 C 0.79206 0.20247 0.16075 0.0
C419 C 0.79351 0.18446 0.14799 0.0
C420 C 0.81966 0.18812 0.05611 0.0
C421 C 0.81869 0.20614 0.06696 0.0
H422 H 0.78361 0.17625 0.17987 0.0
H423 H 0.8303 0.18246 0.01423 0.0
H424 H 0.79745 0.15619 0.27824 0.0
H425 H 0.84706 0.13984 0.36632 0.0
H426 H 0.78322 0.18232 0.74968 0.0
H427 H 0.7811 0.20779 0.20158 0.0
H428 H 0.82864 0.21432 0.03381 0.0
C429 C 0.60665 0.08836 0.94169 0.0
C430 C 0.60775 0.08869 0.04541 0.0
N431 N 0.60319 0.0729 0.0799 0.0
N432 N 0.60147 0.07238 0.91113 0.0
C433 C 0.59955 0.06335 0.99794 0.0
H434 H 0.60924 0.09927 0.89301 0.0
Co435 Co 0.59703 0.06322 0.78159 0.0
C436 C 0.61832 0.03095 0.83245 0.0
O437 O 0.6321 0.0341 0.77697 0.0
N438 N 0.59256 0.05334 0.65204 0.0
C439 C 0.57906 0.04128 0.52012 0.0
C440 C 0.57914 0.043 0.62326 0.0
C441 C 0.60093 0.05677 0.56451 0.0
N442 N 0.59274 0.05012 0.48374 0.0
O443 O 0.61996 0.07061 0.73567 0.0
H444 H 0.56931 0.03772 0.67254 0.0
H445 H 0.61251 0.06453 0.55785 0.0
O446 O 0.60533 0.04118 0.83024 0.0
C447 C 0.61975 0.08622 0.70135 0.0
O448 O 0.60532 0.09519 0.71072 0.0
N449 N 0.57402 0.05805 0.82229 0.0
C450 C 0.5385 0.05363 0.85661 0.0
C451 C 0.55043 0.04136 0.89215 0.0
C452 C 0.56821 0.04381 0.87425 0.0
C453 C 0.56256 0.07037 0.79053 0.0
C454 C 0.54471 0.06837 0.80632 0.0
H455 H 0.5771 0.03409 0.90072 0.0
H456 H 0.56734 0.08159 0.74986 0.0
H457 H 0.5954 0.04995 1.00231 0.0
H458 H 0.61115 0.09974 0.09197 0.0
H459 H 0.56914 0.03502 0.47497 0.0
H460 H 0.546 0.02982 0.93122 0.0
H461 H 0.53578 0.07807 0.77781 0.0
C462 C 0.66513 0.85001 0.69924 0.0
C463 C 0.66335 0.84874 0.80239 0.0
N464 N 0.67935 0.84739 0.84276 0.0
N465 N 0.68215 0.84944 0.67505 0.0
C466 C 0.69041 0.84748 0.76421 0.0
H467 H 0.65469 0.85144 0.64554 0.0
Co468 Co 0.69217 0.8509 0.54653 0.0
C469 C 0.71755 0.8734 0.65788 0.0
O470 O 0.70705 0.88683 0.65813 0.0
N471 N 0.70213 0.85227 0.41802 0.0
C472 C 0.71407 0.86359 0.28049 0.0
C473 C 0.71353 0.86425 0.38402 0.0
C474 C 0.69606 0.84435 0.3341 0.0
N475 N 0.70292 0.85119 0.24946 0.0
O476 O 0.68229 0.87392 0.52756 0.0
H477 H 0.7196 0.87409 0.43014 0.0
H478 H 0.68549 0.83503 0.33446 0.0
O479 O 0.71349 0.85964 0.60916 0.0
C480 C 0.66935 0.87218 0.46793 0.0
O481 O 0.66559 0.85634 0.43773 0.0
N482 N 0.69988 0.82805 0.55888 0.0
C483 C 0.70643 0.79253 0.56662 0.0
C484 C 0.72023 0.8045 0.57064 0.0
C485 C 0.71666 0.82238 0.56615 0.0
C486 C 0.68644 0.81652 0.55394 0.0
C487 C 0.68942 0.79869 0.55838 0.0
H488 H 0.72733 0.83154 0.56702 0.0
H489 H 0.67329 0.82127 0.54585 0.0
H490 H 0.70434 0.84619 0.77233 0.0
H491 H 0.65134 0.84932 0.84474 0.0
H492 H 0.72079 0.87263 0.23151 0.0
H493 H 0.73354 0.80005 0.57622 0.0
H494 H 0.67853 0.78975 0.55442 0.0
C495 C 0.92017 0.92031 0.42768 0.0
C496 C 0.92077 0.91852 0.53091 0.0
N497 N 0.91053 0.93081 0.57144 0.0
N498 N 0.90975 0.93381 0.40341 0.0
C499 C 0.90365 0.93952 0.49316 0.0
H500 H 0.9276 0.91277 0.37426 0.0
Co501 Co 0.90748 0.94429 0.27538 0.0
C502 C 0.89866 0.98222 0.34311 0.0
O503 O 0.90524 0.99067 0.26608 0.0
N504 N 0.90513 0.95417 0.14723 0.0
C505 C 0.89346 0.9663 0.01082 0.0
C506 C 0.89336 0.96589 0.11442 0.0
C507 C 0.91178 0.94723 0.06198 0.0
N508 N 0.90479 0.95425 0.97817 0.0
O509 O 0.88394 0.93564 0.26163 0.0
H510 H 0.88399 0.97243 0.16153 0.0
H511 H 0.9205 0.93622 0.06108 0.0
O512 O 0.8992 0.96558 0.34567 0.0
C513 C 0.88336 0.91974 0.23345 0.0
O514 O 0.8977 0.91051 0.23843 0.0
N515 N 0.93122 0.95105 0.28044 0.0
C516 C 0.96742 0.95432 0.28206 0.0
C517 C 0.95691 0.96786 0.31694 0.0
C518 C 0.93879 0.96603 0.31483 0.0
C519 C 0.9414 0.93803 0.2434 0.0
C520 C 0.95952 0.93934 0.24373 0.0
H521 H 0.93124 0.97672 0.34146 0.0
H522 H 0.93536 0.92631 0.21482 0.0
H523 H 0.89496 0.95042 0.50237 0.0
H524 H 0.92883 0.90959 0.57304 0.0
H525 H 0.88469 0.97359 0.96318 0.0
H526 H 0.96268 0.9797 0.34605 0.0
H527 H 0.9673 0.92867 0.21549 0.0
C528 C 0.66966 0.67188 0.71376 0.0
C529 C 0.66781 0.67253 0.81696 0.0
N530 N 0.67962 0.66175 0.85763 0.0
N531 N 0.68271 0.66088 0.68961 0.0
C532 C 0.68806 0.6545 0.77937 0.0
H533 H 0.66248 0.67963 0.6603 0.0
Co534 Co 0.6931 0.65807 0.56156 0.0
C535 C 0.73069 0.64789 0.62849 0.0
O536 O 0.7392 0.65385 0.54998 0.0
N537 N 0.70281 0.65519 0.4334 0.0
C538 C 0.71434 0.643 0.29662 0.0
C539 C 0.714 0.64292 0.40025 0.0
C540 C 0.69608 0.6621 0.34838 0.0
N541 N 0.70274 0.65482 0.26433 0.0
O542 O 0.68344 0.63486 0.54851 0.0
H543 H 0.72018 0.6333 0.4472 0.0
H544 H 0.68543 0.67126 0.34787 0.0
O545 O 0.71409 0.64906 0.63214 0.0
C546 C 0.66757 0.63501 0.51959 0.0
O547 O 0.65909 0.64981 0.52331 0.0
N548 N 0.70091 0.68154 0.56583 0.0
C549 C 0.70615 0.71752 0.56506 0.0
C550 C 0.71917 0.70636 0.59936 0.0
C551 C 0.71636 0.68838 0.59844 0.0
C552 C 0.68836 0.69235 0.52931 0.0
C553 C 0.69066 0.71038 0.52851 0.0
H554 H 0.72672 0.68038 0.62461 0.0
H555 H 0.67629 0.6869 0.50175 0.0
H556 H 0.69853 0.64529 0.7886 0.0
H557 H 0.6592 0.68095 0.85903 0.0
H558 H 0.72125 0.63396 0.24874 0.0
H559 H 0.73138 0.71152 0.62716 0.0
H560 H 0.68037 0.71868 0.50072 0.0
C561 C 0.59178 0.41249 0.97143 0.0
C562 C 0.59085 0.40992 0.07405 0.0
N563 N 0.59252 0.4255 0.1189 0.0
N564 N 0.5937 0.42964 0.95194 0.0
C565 C 0.59445 0.43711 0.04401 0.0
H566 H 0.59084 0.40249 0.91446 0.0
Co567 Co 0.59448 0.44 0.82342 0.0
C568 C 0.60115 0.47918 0.88693 0.0
O569 O 0.59857 0.48752 0.80213 0.0
N570 N 0.59548 0.44943 0.69435 0.0
C571 C 0.60669 0.45982 0.55237 0.0
C572 C 0.60735 0.46053 0.6558 0.0
C573 C 0.58792 0.44198 0.61313 0.0
N574 N 0.59453 0.44807 0.52592 0.0
O575 O 0.61894 0.43414 0.81282 0.0
H576 H 0.61726 0.46711 0.69918 0.0
H577 H 0.57911 0.43102 0.61795 0.0
O578 O 0.59975 0.46256 0.89066 0.0
C579 C 0.62074 0.42015 0.76187 0.0
O580 O 0.6067 0.41196 0.73127 0.0
N581 N 0.57024 0.44432 0.82878 0.0
C582 C 0.53412 0.4478 0.83475 0.0
C583 C 0.54473 0.4623 0.81772 0.0
C584 C 0.5628 0.46021 0.81299 0.0
C585 C 0.55991 0.42998 0.83993 0.0
C586 C 0.54183 0.43145 0.84453 0.0
H587 H 0.5707 0.47135 0.7957 0.0
H588 H 0.56565 0.41722 0.84345 0.0
H589 H 0.59653 0.45073 0.05745 0.0
H590 H 0.58907 0.39767 0.11273 0.0
H591 H 0.61558 0.46613 0.50078 0.0
H592 H 0.53908 0.47504 0.80647 0.0
H593 H 0.53392 0.41991 0.85437 0.0
C594 C 0.8362 0.33736 0.238 0.0
C595 C 0.83815 0.3372 0.34121 0.0
N596 N 0.82602 0.34775 0.38119 0.0
N597 N 0.82291 0.34797 0.21308 0.0
C598 C 0.81731 0.35446 0.30218 0.0
H599 H 0.84312 0.32925 0.18501 0.0
Co600 Co 0.81222 0.34889 0.08524 0.0
C601 C 0.77519 0.35217 0.17471 0.0
O602 O 0.76961 0.33728 0.13854 0.0
N603 N 0.80201 0.34998 0.95653 0.0
C604 C 0.78553 0.35304 0.81952 0.0
C605 C 0.78554 0.35222 0.92339 0.0
C606 C 0.81166 0.34958 0.87151 0.0
N607 N 0.80204 0.35142 0.78775 0.0
O608 O 0.82019 0.37266 0.0626 0.0
H609 H 0.77418 0.35324 0.97035 0.0
H610 H 0.82546 0.34742 0.87052 0.0
O611 O 0.79053 0.35766 0.15313 0.0
C612 C 0.83634 0.3767 0.05981 0.0
O613 O 0.84754 0.36717 0.10966 0.0
N614 N 0.80611 0.32489 0.09762 0.0
C615 C 0.80307 0.2887 0.11243 0.0
C616 C 0.79744 0.29942 0.19079 0.0
C617 C 0.79939 0.31745 0.18234 0.0
C618 C 0.81196 0.31442 0.02168 0.0
C619 C 0.81033 0.29635 0.02684 0.0
H620 H 0.7961 0.32533 0.24518 0.0
H621 H 0.81872 0.3199 0.95822 0.0
H622 H 0.80624 0.36298 0.31037 0.0
H623 H 0.84679 0.32892 0.38392 0.0
H624 H 0.77431 0.35453 0.7711 0.0
H625 H 0.79217 0.29388 0.25923 0.0
H626 H 0.81523 0.28837 0.96594 0.0
C627 C 0.90103 0.58633 0.45018 0.0
C628 C 0.90187 0.58793 0.55358 0.0
N629 N 0.90496 0.57208 0.59218 0.0
N630 N 0.90351 0.56953 0.42436 0.0
C631 C 0.9061 0.56126 0.5129 0.0
H632 H 0.89893 0.59681 0.39756 0.0
Co633 Co 0.90496 0.55977 0.29541 0.0
C634 C 0.8831 0.53243 0.39414 0.0
O635 O 0.86915 0.54223 0.39159 0.0
N636 N 0.90687 0.55016 0.16676 0.0
C637 C 0.90827 0.53259 0.0336 0.0
C638 C 0.90707 0.53335 0.13711 0.0
C639 C 0.9086 0.55931 0.08069 0.0
N640 N 0.90909 0.54899 0.99885 0.0
O641 O 0.88122 0.56681 0.26557 0.0
H642 H 0.90639 0.52232 0.18705 0.0
H643 H 0.90926 0.57333 0.07743 0.0
O644 O 0.89717 0.53753 0.35197 0.0
C645 C 0.87945 0.58171 0.22414 0.0
O646 O 0.89338 0.59116 0.2069 0.0
N647 N 0.92825 0.55436 0.31921 0.0
C648 C 0.96413 0.55072 0.33668 0.0
C649 C 0.95308 0.53658 0.35617 0.0
C650 C 0.93505 0.53863 0.34632 0.0
C651 C 0.93884 0.56823 0.30149 0.0
C652 C 0.95684 0.56671 0.30982 0.0
H653 H 0.92674 0.52752 0.35905 0.0
H654 H 0.93319 0.58052 0.27932 0.0
H655 H 0.90906 0.54757 0.51977 0.0
H656 H 0.90024 0.59972 0.59707 0.0
H657 H 0.90809 0.52101 0.98731 0.0
H658 H 0.95837 0.52405 0.37694 0.0
H659 H 0.96504 0.57786 0.29419 0.0
C660 C 0.66599 0.36417 0.33118 0.0
C661 C 0.66548 0.36528 0.22767 0.0
N662 N 0.68021 0.35828 0.19171 0.0
N663 N 0.68102 0.35651 0.35979 0.0
C664 C 0.68933 0.35307 0.27233 0.0
H665 H 0.65583 0.36847 0.38128 0.0
Co666 Co 0.68915 0.35061 0.48873 0.0
C667 C 0.71714 0.37299 0.40756 0.0
O668 O 0.70543 0.38459 0.38269 0.0
N669 N 0.69759 0.34441 0.61941 0.0
C670 C 0.70615 0.32902 0.75336 0.0
C671 C 0.70457 0.32913 0.65045 0.0
C672 C 0.69582 0.35355 0.70609 0.0
N673 N 0.70031 0.3443 0.78792 0.0
O674 O 0.68185 0.37316 0.54099 0.0
H675 H 0.70737 0.31805 0.60366 0.0
H676 H 0.69046 0.36645 0.71153 0.0
O677 O 0.71215 0.35921 0.4531 0.0
C678 C 0.66632 0.373 0.57617 0.0
O679 O 0.657 0.35879 0.56475 0.0
N680 N 0.69436 0.32817 0.44078 0.0
C681 C 0.69792 0.29272 0.40266 0.0
C682 C 0.71197 0.30409 0.38711 0.0
C683 C 0.70995 0.3219 0.40678 0.0
C684 C 0.68039 0.31739 0.45065 0.0
C685 C 0.68189 0.2996 0.43232 0.0
H686 H 0.72107 0.33038 0.39887 0.0
H687 H 0.66817 0.3226 0.47734 0.0
H688 H 0.70183 0.34673 0.26717 0.0
H689 H 0.65499 0.37041 0.18226 0.0
H690 H 0.70989 0.31808 0.79973 0.0
H691 H 0.72452 0.29914 0.36381 0.0
H692 H 0.67078 0.29117 0.44455 0.0
C693 C 0.91255 0.41362 0.58759 0.0
C694 C 0.91249 0.41165 0.4843 0.0
N695 N 0.90298 0.42463 0.44454 0.0
N696 N 0.90318 0.42781 0.61248 0.0
C697 C 0.89702 0.43382 0.5237 0.0
H698 H 0.92001 0.406 0.64051 0.0
Co699 Co 0.90251 0.43856 0.73986 0.0
C700 C 0.90243 0.47543 0.64971 0.0
O701 O 0.91776 0.47964 0.68565 0.0
N702 N 0.9014 0.4487 0.86951 0.0
C703 C 0.90171 0.46552 1.00644 0.0
C704 C 0.90233 0.46532 0.90258 0.0
C705 C 0.90005 0.43915 0.95481 0.0
N706 N 0.9003 0.44901 0.03854 0.0
O707 O 0.8784 0.43185 0.75512 0.0
H708 H 0.90382 0.47662 0.85569 0.0
H709 H 0.89974 0.4251 0.95612 0.0
O710 O 0.89544 0.46075 0.6721 0.0
C711 C 0.87746 0.41648 0.79079 0.0
O712 O 0.89196 0.40752 0.79718 0.0
N713 N 0.92696 0.4435 0.73095 0.0
C714 C 0.96324 0.44647 0.72225 0.0
C715 C 0.95305 0.45042 0.6384 0.0
C716 C 0.93499 0.44856 0.64402 0.0
C717 C 0.93694 0.43902 0.81208 0.0
C718 C 0.95505 0.4407 0.80993 0.0
H719 H 0.92753 0.45085 0.57776 0.0
H720 H 0.93107 0.4335 0.87832 0.0
H721 H 0.88923 0.44541 0.51579 0.0
H722 H 0.91993 0.4023 0.44139 0.0
H723 H 0.90274 0.47683 0.0547 0.0
H724 H 0.95903 0.45448 0.56845 0.0
H725 H 0.96262 0.43704 0.87524 0.0
C726 C 0.83313 0.6538 0.89042 0.0
C727 C 0.83466 0.65454 0.78693 0.0
N728 N 0.8186 0.65617 0.74826 0.0
N729 N 0.81617 0.65486 0.9161 0.0
C730 C 0.80771 0.65649 0.82732 0.0
H731 H 0.84375 0.65273 0.94322 0.0
Co732 Co 0.80635 0.65542 0.04514 0.0
C733 C 0.7779 0.6333 0.95661 0.0
O734 O 0.7852 0.6186 0.98344 0.0
N735 N 0.79664 0.6564 0.17392 0.0
C736 C 0.77891 0.65866 0.30599 0.0
C737 C 0.77983 0.65775 0.20238 0.0
C738 C 0.80569 0.65704 0.26094 0.0
N739 N 0.79524 0.65812 0.34194 0.0
O740 O 0.81364 0.63164 0.06932 0.0
H741 H 0.76895 0.65843 0.15141 0.0
H742 H 0.8197 0.65685 0.26551 0.0
O743 O 0.78428 0.64782 0.9857 0.0
C744 C 0.82859 0.62998 0.10996 0.0
O745 O 0.83782 0.64397 0.12911 0.0
N746 N 0.80079 0.67882 0.02634 0.0
C747 C 0.79749 0.71477 0.01135 0.0
C748 C 0.78425 0.7038 0.9758 0.0
C749 C 0.78611 0.68572 0.98433 0.0
C750 C 0.81372 0.68935 0.06092 0.0
C751 C 0.81234 0.70739 0.05432 0.0
H752 H 0.7758 0.67745 0.9568 0.0
H753 H 0.82522 0.68362 0.09388 0.0
H754 H 0.79382 0.65818 0.8198 0.0
H755 H 0.84655 0.65385 0.74349 0.0
H756 H 0.76726 0.65962 0.35136 0.0
H757 H 0.77264 0.70916 0.94184 0.0
H758 H 0.8228 0.71552 0.08217 0.0
C759 C 0.58988 0.58609 0.13438 0.0
C760 C 0.5889 0.58813 0.03145 0.0
N761 N 0.59597 0.57397 0.98858 0.0
N762 N 0.59744 0.57069 0.15529 0.0
C763 C 0.60113 0.56369 0.06461 0.0
H764 H 0.58467 0.59484 0.19046 0.0
Co765 Co 0.59869 0.56082 0.28232 0.0
C766 C 0.6039 0.52311 0.23957 0.0
O767 O 0.59256 0.51997 0.3112 0.0
N768 N 0.60022 0.55151 0.41322 0.0
C769 C 0.61289 0.54079 0.55084 0.0
C770 C 0.61288 0.54083 0.44744 0.0
C771 C 0.59302 0.55811 0.498 0.0
N772 N 0.60041 0.5517 0.58199 0.0
O773 O 0.62203 0.57003 0.29965 0.0
H774 H 0.62269 0.5348 0.40086 0.0
H775 H 0.58408 0.56889 0.49935 0.0
O776 O 0.60779 0.53903 0.22228 0.0
C777 C 0.62194 0.58406 0.35116 0.0
O778 O 0.6069 0.59048 0.37949 0.0
N779 N 0.57516 0.55341 0.26627 0.0
C780 C 0.5395 0.54876 0.23294 0.0
C781 C 0.55169 0.53963 0.17558 0.0
C782 C 0.56946 0.54245 0.19178 0.0
C783 C 0.56331 0.56284 0.31971 0.0
C784 C 0.54545 0.56051 0.30554 0.0
H785 H 0.57845 0.53648 0.14014 0.0
H786 H 0.56765 0.57309 0.36893 0.0
H787 H 0.60657 0.5509 0.05327 0.0
H788 H 0.58288 0.59877 0.99123 0.0
H789 H 0.62226 0.53446 0.59925 0.0
H790 H 0.5475 0.53101 0.11579 0.0
H791 H 0.53634 0.56833 0.34813 0.0
C792 C 0.33599 0.35473 0.27381 0.0
C793 C 0.33665 0.35446 0.16986 0.0
N794 N 0.32151 0.34795 0.13589 0.0
N795 N 0.32032 0.34881 0.30451 0.0
C796 C 0.31205 0.34433 0.21827 0.0
H797 H 0.34613 0.35939 0.32311 0.0
Co798 Co 0.31001 0.34815 0.43307 0.0
C799 C 0.27815 0.36738 0.35813 0.0
O800 O 0.2787 0.3796 0.42706 0.0
N801 N 0.2995 0.34742 0.56079 0.0
C802 C 0.28138 0.34705 0.69178 0.0
C803 C 0.28257 0.34786 0.58837 0.0
C804 C 0.30829 0.34644 0.6487 0.0
N805 N 0.29761 0.34642 0.72929 0.0
O806 O 0.31593 0.37255 0.45612 0.0
H807 H 0.27169 0.34874 0.53725 0.0
H808 H 0.3223 0.34586 0.65407 0.0
O809 O 0.28849 0.35447 0.36448 0.0
C810 C 0.33056 0.37462 0.50039 0.0
O811 O 0.3402 0.36088 0.51786 0.0
N812 N 0.30564 0.32419 0.41557 0.0
C813 C 0.30236 0.28826 0.39264 0.0
C814 C 0.28764 0.29864 0.40733 0.0
C815 C 0.28961 0.31659 0.4203 0.0
C816 C 0.32011 0.31419 0.40258 0.0
C817 C 0.31876 0.29618 0.39053 0.0
H818 H 0.27835 0.32421 0.43747 0.0
H819 H 0.33282 0.32024 0.40226 0.0
H820 H 0.29898 0.33914 0.21502 0.0
H821 H 0.34715 0.35917 0.12291 0.0
H822 H 0.26957 0.34731 0.73618 0.0
H823 H 0.27482 0.29283 0.41196 0.0
H824 H 0.33041 0.28846 0.381 0.0
C825 C 0.41699 0.58545 0.05765 0.0
C826 C 0.41713 0.58727 0.95416 0.0
N827 N 0.40704 0.57466 0.91484 0.0
N828 N 0.40699 0.57167 0.08266 0.0
C829 C 0.40083 0.56564 0.99373 0.0
H830 H 0.42452 0.59301 0.11079 0.0
Co831 Co 0.40483 0.56142 0.21048 0.0
C832 C 0.40189 0.52408 0.13376 0.0
O833 O 0.41476 0.51851 0.18998 0.0
N834 N 0.40207 0.55158 0.34066 0.0
C835 C 0.39378 0.53617 0.47503 0.0
C836 C 0.39485 0.53641 0.37134 0.0
C837 C 0.40483 0.56041 0.42751 0.0
N838 N 0.40014 0.55132 0.50945 0.0
O839 O 0.38141 0.5706 0.2213 0.0
H840 H 0.38997 0.52634 0.32261 0.0
H841 H 0.40993 0.5735 0.43146 0.0
O842 O 0.3965 0.53978 0.14259 0.0
C843 C 0.38272 0.5852 0.26686 0.0
O844 O 0.39847 0.59068 0.28903 0.0
N845 N 0.42868 0.55437 0.20445 0.0
C846 C 0.46469 0.54903 0.19486 0.0
C847 C 0.45403 0.5447 0.11318 0.0
C848 C 0.43608 0.54776 0.11914 0.0
C849 C 0.43919 0.55922 0.28256 0.0
C850 C 0.45708 0.55633 0.28023 0.0
H851 H 0.42818 0.54547 0.05377 0.0
H852 H 0.43408 0.56628 0.34546 0.0
H853 H 0.39274 0.55422 0.98524 0.0
H854 H 0.42481 0.59642 0.91099 0.0
H855 H 0.38852 0.52585 0.52141 0.0
H856 H 0.45959 0.53956 0.04449 0.0
H857 H 0.46504 0.56044 0.34319 0.0
C858 C 0.17074 0.65298 0.86885 0.0
C859 C 0.16836 0.65418 0.76614 0.0
N860 N 0.18415 0.65431 0.72253 0.0
N861 N 0.18793 0.65256 0.88957 0.0
C862 C 0.19569 0.65333 0.79832 0.0
H863 H 0.16058 0.65243 0.92501 0.0
Co864 Co 0.19811 0.65108 0.01813 0.0
C865 C 0.23693 0.64356 0.94951 0.0
O866 O 0.2459 0.64416 0.03339 0.0
N867 N 0.20753 0.6494 0.14709 0.0
C868 C 0.218 0.63805 0.28825 0.0
C869 C 0.21835 0.63725 0.18473 0.0
C870 C 0.20063 0.65728 0.2288 0.0
N871 N 0.20677 0.6506 0.31555 0.0
O872 O 0.19188 0.62665 0.02429 0.0
H873 H 0.22452 0.62717 0.14081 0.0
H874 H 0.19002 0.66648 0.2248 0.0
O875 O 0.22047 0.64601 0.95047 0.0
C876 C 0.17839 0.62459 0.07923 0.0
O877 O 0.17092 0.63842 0.11769 0.0
N878 N 0.20283 0.67513 0.01682 0.0
C879 C 0.20727 0.71109 0.01582 0.0
C880 C 0.22124 0.70015 0.03919 0.0
C881 C 0.21864 0.68212 0.04095 0.0
C882 C 0.18895 0.68575 0.99998 0.0
C883 C 0.19094 0.70376 0.99742 0.0
H884 H 0.22935 0.6738 0.06136 0.0
H885 H 0.17614 0.6803 0.98931 0.0
H886 H 0.2095 0.65297 0.78608 0.0
H887 H 0.15608 0.65455 0.72642 0.0
H888 H 0.22418 0.62903 0.33947 0.0
H889 H 0.23395 0.7055 0.05599 0.0
H890 H 0.1798 0.71193 0.98175 0.0
C891 C 0.08779 0.41891 0.58967 0.0
C892 C 0.08765 0.41852 0.48616 0.0
N893 N 0.09929 0.43022 0.45203 0.0
N894 N 0.0992 0.43112 0.62093 0.0
C895 C 0.10655 0.43721 0.53531 0.0
H896 H 0.07886 0.41206 0.6384 0.0
Co897 Co 0.09874 0.44177 0.74778 0.0
C898 C 0.1163 0.47489 0.67721 0.0
O899 O 0.13048 0.47336 0.73151 0.0
N900 N 0.09791 0.45276 0.87488 0.0
C901 C 0.08582 0.46487 0.01007 0.0
C902 C 0.08603 0.4645 0.90665 0.0
C903 C 0.10557 0.44727 0.96039 0.0
N904 N 0.09799 0.45376 0.04375 0.0
O905 O 0.12306 0.43578 0.76766 0.0
H906 H 0.0769 0.4712 0.8587 0.0
H907 H 0.1157 0.43782 0.96253 0.0
O908 O 0.10414 0.46368 0.68421 0.0
C909 C 0.12484 0.42012 0.79897 0.0
O910 O 0.11082 0.41057 0.81148 0.0
N911 N 0.07472 0.4457 0.73154 0.0
C912 C 0.03861 0.44759 0.72103 0.0
C913 C 0.04896 0.45851 0.6615 0.0
C914 C 0.0671 0.45731 0.66748 0.0
C915 C 0.06477 0.43492 0.78921 0.0
C916 C 0.04666 0.43568 0.78535 0.0
H917 H 0.07486 0.46568 0.62046 0.0
H918 H 0.07102 0.42565 0.83847 0.0
H919 H 0.11577 0.44784 0.53306 0.0
H920 H 0.07873 0.41116 0.4395 0.0
H921 H 0.07667 0.47185 0.05692 0.0
H922 H 0.04307 0.46776 0.6105 0.0
H923 H 0.03898 0.427 0.83175 0.0
C924 C 0.32867 0.67013 0.63759 0.0
C925 C 0.32984 0.6713 0.74106 0.0
N926 N 0.31824 0.66016 0.78089 0.0
N927 N 0.31624 0.65844 0.61307 0.0
C928 C 0.31039 0.65238 0.70243 0.0
H929 H 0.33569 0.67801 0.58382 0.0
Co930 Co 0.30665 0.65486 0.48543 0.0
C931 C 0.27104 0.63765 0.55944 0.0
O932 O 0.26266 0.63203 0.4798 0.0
N933 N 0.29713 0.65111 0.35577 0.0
C934 C 0.28913 0.63586 0.22054 0.0
C935 C 0.28983 0.63608 0.32392 0.0
C936 C 0.30098 0.65971 0.2695 0.0
N937 N 0.29629 0.65068 0.18672 0.0
O938 O 0.31809 0.63232 0.477 0.0
H939 H 0.28733 0.62498 0.37136 0.0
H940 H 0.30889 0.67129 0.26609 0.0
O941 O 0.28576 0.64528 0.55061 0.0
C942 C 0.33095 0.63413 0.41671 0.0
O943 O 0.33332 0.64961 0.37703 0.0
N944 N 0.29753 0.67763 0.4905 0.0
C945 C 0.29104 0.7132 0.51011 0.0
C946 C 0.28042 0.70101 0.55886 0.0
C947 C 0.28408 0.68323 0.54939 0.0
C948 C 0.308 0.68943 0.4435 0.0
C949 C 0.30489 0.70725 0.45138 0.0
H950 H 0.27681 0.67423 0.59448 0.0
H951 H 0.31946 0.68503 0.40408 0.0
H952 H 0.29997 0.64309 0.7112 0.0
H953 H 0.33795 0.68017 0.78363 0.0
H954 H 0.28543 0.62493 0.17379 0.0
H955 H 0.26993 0.70524 0.6074 0.0
H956 H 0.31361 0.71636 0.41493 0.0
C957 C 0.09156 0.58545 0.43446 0.0
C958 C 0.09127 0.58721 0.53789 0.0
N959 N 0.09953 0.57346 0.57799 0.0
N960 N 0.09991 0.57062 0.40982 0.0
C961 C 0.10491 0.56382 0.49934 0.0
H962 H 0.08492 0.5937 0.3811 0.0
Co963 Co 0.09947 0.55988 0.28225 0.0
C964 C 0.10008 0.5223 0.35091 0.0
O965 O 0.08787 0.51763 0.2872 0.0
N966 N 0.09945 0.54948 0.15293 0.0
C967 C 0.10763 0.5343 0.01743 0.0
C968 C 0.10744 0.53478 0.12108 0.0
C969 C 0.09542 0.55787 0.06652 0.0
N970 N 0.10024 0.54898 0.98369 0.0
O971 O 0.12359 0.56617 0.25835 0.0
H972 H 0.11419 0.52568 0.16867 0.0
H973 H 0.09024 0.5709 0.06376 0.0
O974 O 0.10618 0.5378 0.34858 0.0
C975 C 0.12548 0.58171 0.22562 0.0
O976 O 0.11191 0.59207 0.22699 0.0
N977 N 0.07532 0.55525 0.30069 0.0
C978 C 0.03935 0.55177 0.32626 0.0
C979 C 0.05086 0.54526 0.39842 0.0
C980 C 0.06879 0.54751 0.38522 0.0
C981 C 0.06412 0.5625 0.23304 0.0
C982 C 0.04614 0.56065 0.24334 0.0
H983 H 0.07739 0.5433 0.44423 0.0
H984 H 0.06896 0.57039 0.17255 0.0
H985 H 0.11114 0.55133 0.50832 0.0
H986 H 0.08446 0.59709 0.58042 0.0
H987 H 0.11393 0.52466 0.97066 0.0
H988 H 0.04601 0.5388 0.46521 0.0
H989 H 0.03758 0.5664 0.18791 0.0
C990 C 0.17679 0.35684 0.10379 0.0
C991 C 0.1761 0.35815 0.20756 0.0
N992 N 0.19191 0.35419 0.24436 0.0
N993 N 0.19304 0.35232 0.07564 0.0
C994 C 0.20181 0.35069 0.16356 0.0
H995 H 0.16612 0.35911 0.0526 0.0
Co996 Co 0.2027 0.34915 0.94657 0.0
C997 C 0.23561 0.36901 0.99607 0.0
O998 O 0.23416 0.38082 0.9253 0.0
N999 N 0.21313 0.34581 0.81719 0.0
C1000 C 0.22468 0.33252 0.6833 0.0
C1001 C 0.22321 0.33237 0.78656 0.0
C1002 C 0.20981 0.35453 0.73087 0.0
N1003 N 0.21602 0.3464 0.64859 0.0
O1004 O 0.19584 0.37276 0.91082 0.0
H1005 H 0.22826 0.32225 0.8346 0.0
H1006 H 0.20254 0.36634 0.72679 0.0
O1007 O 0.22465 0.35662 1.00189 0.0
C1008 C 0.1808 0.37291 0.86899 0.0
O1009 O 0.17306 0.35795 0.85186 0.0
N1010 N 0.20686 0.32577 0.97915 0.0
C1011 C 0.20779 0.29009 0.01433 0.0
C1012 C 0.22053 0.30101 0.05556 0.0
C1013 C 0.21981 0.31892 0.03726 0.0
C1014 C 0.19427 0.31528 0.93986 0.0
C1015 C 0.19452 0.29737 0.95618 0.0
H1016 H 0.2295 0.32716 0.07069 0.0
H1017 H 0.18399 0.32095 0.89514 0.0
H1018 H 0.21534 0.3471 0.1696 0.0
H1019 H 0.16485 0.36148 0.25252 0.0
H1020 H 0.2305 0.32252 0.63691 0.0
H1021 H 0.23086 0.29574 0.1017 0.0
H1022 H 0.18443 0.28926 0.92383 0.0
C1023 C 0.38731 0.42302 0.94721 0.0
C1024 C 0.38641 0.42463 0.05036 0.0
N1025 N 0.39201 0.44066 0.07531 0.0
N1026 N 0.39343 0.438 0.90809 0.0
C1027 C 0.39604 0.4485 0.98812 0.0
H1028 H 0.38436 0.41145 0.90425 0.0
Co1029 Co 0.40001 0.44265 0.77664 0.0
C1030 C 0.38027 0.47493 0.82616 0.0
O1031 O 0.36497 0.46804 0.80777 0.0
N1032 N 0.40678 0.44693 0.64616 0.0
C1033 C 0.41864 0.44016 0.50005 0.0
C1034 C 0.41916 0.4373 0.60147 0.0
C1035 C 0.39912 0.45594 0.57109 0.0
N1036 N 0.40578 0.45155 0.48037 0.0
O1037 O 0.37696 0.43646 0.72728 0.0
H1038 H 0.4271 0.42776 0.63947 0.0
H1039 H 0.3882 0.46457 0.58229 0.0
O1040 O 0.39403 0.46681 0.80028 0.0
C1041 C 0.37639 0.42081 0.69423 0.0
O1042 O 0.39023 0.411 0.7053 0.0
N1043 N 0.4229 0.44728 0.81978 0.0
C1044 C 0.45875 0.44974 0.84605 0.0
C1045 C 0.44926 0.46404 0.8114 0.0
C1046 C 0.43129 0.46254 0.79836 0.0
C1047 C 0.43188 0.4335 0.85792 0.0
C1048 C 0.44987 0.43449 0.8722 0.0
H1049 H 0.4244 0.47322 0.76414 0.0
H1050 H 0.4252 0.42135 0.87182 0.0
H1051 H 0.40182 0.46132 0.98362 0.0
H1052 H 0.38247 0.41467 0.10327 0.0
H1053 H 0.42626 0.43339 0.44388 0.0
H1054 H 0.45583 0.47592 0.7893 0.0
H1055 H 0.45691 0.42316 0.89809 0.0
C1056 C 0.2192 0.2602 0.97485 0.0
C1057 C 0.20802 0.27101 0.03228 0.0
C1058 C 0.19365 0.2453 0.10353 0.0
C1059 C 0.20519 0.23448 0.04855 0.0
N1060 N 0.23118 0.23136 0.94898 0.0
N1061 N 0.1873 0.27421 0.16689 0.0
C1062 C 0.21869 0.24187 0.98954 0.0
C1063 C 0.19609 0.26364 0.10171 0.0
N1064 N 0.22977 0.26739 0.9033 0.0
N1065 N 0.17988 0.23812 0.15371 0.0
H1066 H 0.18876 0.2877 0.16728 0.0
H1067 H 0.17977 0.26957 0.22622 0.0
H1068 H 0.17769 0.22474 0.15758 0.0
H1069 H 0.16988 0.24541 0.18531 0.0
H1070 H 0.2367 0.2601 0.85095 0.0
H1071 H 0.23072 0.28076 0.89144 0.0
H1072 H 0.24234 0.23604 0.91379 0.0
H1073 H 0.23115 0.21788 0.95826 0.0
C1074 C 0.0146 0.95898 0.19856 0.0
C1075 C 0.02347 0.95482 0.28907 0.0
C1076 C 0.99558 0.95102 0.37644 0.0
C1077 C 0.98673 0.95559 0.28654 0.0
N1078 N 0.98743 0.96696 0.11784 0.0
N1079 N 0.02292 0.94989 0.4679 0.0
C1080 C 0.99615 0.96052 0.1993 0.0
C1081 C 0.01409 0.9518 0.37932 0.0
N1082 N 0.02381 0.96086 0.11118 0.0
N1083 N 0.9863 0.94532 0.45782 0.0
H1084 H 0.03647 0.9501 0.47225 0.0
H1085 H 0.01693 0.94944 0.53804 0.0
H1086 H 0.97274 0.94497 0.45941 0.0
H1087 H 0.99195 0.93988 0.52156 0.0
H1088 H 0.01807 0.96184 0.04052 0.0
H1089 H 0.03736 0.96039 0.10825 0.0
H1090 H 0.99354 0.9725 0.05577 0.0
H1091 H 0.97391 0.96804 0.11549 0.0
C1092 C 0.29951 0.75908 0.60513 0.0
C1093 C 0.28997 0.76898 0.53394 0.0
C1094 C 0.27893 0.74215 0.45612 0.0
C1095 C 0.28879 0.73226 0.5258 0.0
N1096 N 0.30545 0.73081 0.679 0.0
N1097 N 0.26788 0.77049 0.4062 0.0
C1098 C 0.29806 0.7406 0.60464 0.0
C1099 C 0.27874 0.76064 0.4642 0.0
N1100 N 0.31055 0.76735 0.6702 0.0
N1101 N 0.27028 0.73383 0.38011 0.0
H1102 H 0.2676 0.78404 0.4102 0.0
H1103 H 0.25822 0.76533 0.36011 0.0
H1104 H 0.26957 0.72031 0.37469 0.0
H1105 H 0.26447 0.7402 0.31985 0.0
H1106 H 0.31952 0.76094 0.71546 0.0
H1107 H 0.31141 0.78086 0.67558 0.0
H1108 H 0.31089 0.73602 0.74404 0.0
H1109 H 0.30496 0.71725 0.67969 0.0
C1110 C 0.49168 0.04389 0.78378 0.0
C1111 C 0.48268 0.04885 0.8727 0.0
C1112 C 0.51048 0.05591 0.95456 0.0
C1113 C 0.51942 0.05067 0.8662 0.0
N1114 N 0.51911 0.03613 0.70566 0.0
N1115 N 0.48336 0.05616 0.04867 0.0
C1116 C 0.51017 0.0435 0.78372 0.0
C1117 C 0.49208 0.05378 0.96012 0.0
N1118 N 0.48259 0.04043 0.69764 0.0
N1119 N 0.51953 0.06346 0.03162 0.0
H1120 H 0.46991 0.05465 0.0548 0.0
H1121 H 0.4895 0.05816 0.1175 0.0
H1122 H 0.53304 0.06477 0.0311 0.0
H1123 H 0.51365 0.06938 0.09327 0.0
H1124 H 0.4884 0.03894 0.62744 0.0
H1125 H 0.46906 0.04021 0.69445 0.0
H1126 H 0.51319 0.02898 0.64859 0.0
H1127 H 0.53267 0.03585 0.70228 0.0
C1128 C 0.21029 0.73841 0.91486 0.0
C1129 C 0.20944 0.73027 0.01047 0.0
C1130 C 0.21019 0.7588 0.09306 0.0
C1131 C 0.20876 0.7669 0.99753 0.0
N1132 N 0.20596 0.76469 0.81727 0.0
N1133 N 0.2072 0.73235 0.19098 0.0
C1134 C 0.20854 0.75679 0.90817 0.0
C1135 C 0.20916 0.74036 0.09988 0.0
N1136 N 0.21302 0.72854 0.83071 0.0
N1137 N 0.21283 0.76877 0.17695 0.0
H1138 H 0.20677 0.71886 0.19916 0.0
H1139 H 0.20485 0.73901 0.25778 0.0
H1140 H 0.2135 0.78231 0.17465 0.0
H1141 H 0.21579 0.76363 0.24731 0.0
H1142 H 0.21552 0.73377 0.75996 0.0
H1143 H 0.21429 0.71504 0.83305 0.0
H1144 H 0.20366 0.75792 0.75077 0.0
H1145 H 0.20488 0.77813 0.80909 0.0
C1146 C 0.51475 0.94315 0.12022 0.0
C1147 C 0.52309 0.95713 0.17058 0.0
C1148 C 0.49475 0.97053 0.20504 0.0
C1149 C 0.48643 0.95551 0.16571 0.0
N1150 N 0.48816 0.92682 0.09278 0.0
N1151 N 0.52151 0.98382 0.26501 0.0
C1152 C 0.49633 0.94168 0.12428 0.0
C1153 C 0.51322 0.97083 0.2135 0.0
N1154 N 0.52449 0.93135 0.06781 0.0
N1155 N 0.48496 0.98456 0.23279 0.0
H1156 H 0.53503 0.98478 0.26921 0.0
H1157 H 0.5151 0.99311 0.30808 0.0
H1158 H 0.47141 0.98463 0.22845 0.0
H1159 H 0.49021 0.99656 0.25274 0.0
H1160 H 0.51918 0.92194 0.02051 0.0
H1161 H 0.53804 0.93182 0.06483 0.0
H1162 H 0.4947 0.91548 0.07327 0.0
H1163 H 0.47467 0.92535 0.09253 0.0
C1164 C 0.30058 0.24067 0.47171 0.0
C1165 C 0.30037 0.2322 0.37655 0.0
C1166 C 0.30086 0.26056 0.29121 0.0
C1167 C 0.30079 0.26897 0.38642 0.0
N1168 N 0.298 0.2675 0.56684 0.0
N1169 N 0.29785 0.23363 0.19632 0.0
C1170 C 0.29981 0.25914 0.47651 0.0
C1171 C 0.29971 0.24204 0.28636 0.0
N1172 N 0.3021 0.23103 0.55765 0.0
N1173 N 0.30246 0.27031 0.20569 0.0
H1174 H 0.29745 0.22011 0.19022 0.0
H1175 H 0.29556 0.23991 0.12835 0.0
H1176 H 0.30259 0.28388 0.20636 0.0
H1177 H 0.30454 0.26511 0.13449 0.0
H1178 H 0.30468 0.23629 0.62822 0.0
H1179 H 0.30174 0.2175 0.55805 0.0
H1180 H 0.29505 0.26121 0.63399 0.0
H1181 H 0.29829 0.28099 0.57432 0.0
C1182 C 0.99124 0.06046 0.64656 0.0
C1183 C 0.98233 0.0487 0.71069 0.0
C1184 C 0.0102 0.03594 0.76205 0.0
C1185 C 0.01912 0.04911 0.70766 0.0
N1186 N 0.01823 0.07539 0.60858 0.0
N1187 N 0.98309 0.02633 0.83754 0.0
C1188 C 0.00967 0.06172 0.65215 0.0
C1189 C 0.99174 0.03665 0.77031 0.0
N1190 N 0.98207 0.0702 0.57895 0.0
N1191 N 0.01937 0.02256 0.80387 0.0
H1192 H 0.96958 0.02628 0.84454 0.0
H1193 H 0.98932 0.01873 0.89131 0.0
H1194 H 0.03288 0.02166 0.79922 0.0
H1195 H 0.01355 0.01163 0.83557 0.0
H1196 H 0.9879 0.07765 0.52288 0.0
H1197 H 0.96855 0.06961 0.57286 0.0
H1198 H 0.0119 0.08603 0.57701 0.0
H1199 H 0.0317 0.07688 0.61119 0.0
C1200 C 0.78537 0.7436 0.06871 0.0
C1201 C 0.79623 0.73403 1.00243 0.0
C1202 C 0.8089 0.76119 0.939 0.0
C1203 C 0.79736 0.77082 1.00112 0.0
N1204 N 0.77221 0.77139 0.10935 0.0
N1205 N 0.81537 0.73361 0.85892 0.0
C1206 C 0.78484 0.76206 0.06123 0.0
C1207 C 0.80706 0.74283 0.93258 0.0
N1208 N 0.77611 0.73511 0.14155 0.0
N1209 N 0.82216 0.76948 0.88987 0.0
H1210 H 0.81422 0.72015 0.85168 0.0
H1211 H 0.82201 0.73945 0.79953 0.0
H1212 H 0.82416 0.78288 0.89354 0.0
H1213 H 0.8321 0.76293 0.85262 0.0
H1214 H 0.76955 0.74148 0.19929 0.0
H1215 H 0.77604 0.72161 0.14895 0.0
H1216 H 0.76167 0.76567 0.14585 0.0
H1217 H 0.7714 0.78491 0.10518 0.0
C1218 C 0.7084 0.26409 0.47206 0.0
C1219 C 0.69995 0.27348 0.39421 0.0
C1220 C 0.69023 0.24604 0.31766 0.0
C1221 C 0.69915 0.23667 0.39381 0.0
N1222 N 0.72002 0.23648 0.5289 0.0
N1223 N 0.68609 0.27361 0.23187 0.0
C1224 C 0.7093 0.24563 0.46637 0.0
C1225 C 0.69191 0.26448 0.31333 0.0
N1226 N 0.71481 0.27271 0.55414 0.0
N1227 N 0.67952 0.23741 0.25236 0.0
H1228 H 0.68716 0.28711 0.22661 0.0
H1229 H 0.68165 0.26776 0.16603 0.0
H1230 H 0.67804 0.22392 0.25257 0.0
H1231 H 0.67114 0.24365 0.20271 0.0
H1232 H 0.7192 0.26644 0.61867 0.0
H1233 H 0.71453 0.2862 0.56133 0.0
H1234 H 0.72909 0.24233 0.57636 0.0
H1235 H 0.72101 0.22296 0.5266 0.0
C1236 C 0.8138 0.24219 0.19085 0.0
C1237 C 0.80291 0.23269 0.12441 0.0
C1238 C 0.78996 0.25993 0.06446 0.0
C1239 C 0.80234 0.26943 0.12152 0.0
N1240 N 0.82745 0.26979 0.23045 0.0
N1241 N 0.78191 0.2323 0.98958 0.0
C1242 C 0.81459 0.26062 0.18304 0.0
C1243 C 0.79124 0.24149 0.05929 0.0
N1244 N 0.82316 0.23356 0.26254 0.0
N1245 N 0.77679 0.26853 0.01681 0.0
H1246 H 0.78234 0.21878 0.98395 0.0
H1247 H 0.77474 0.23811 0.93236 0.0
H1248 H 0.7755 0.28203 0.01894 0.0
H1249 H 0.76632 0.26227 0.9827 0.0
H1250 H 0.82993 0.23981 0.31998 0.0
H1251 H 0.82291 0.22006 0.27004 0.0
H1252 H 0.83791 0.26397 0.26684 0.0
H1253 H 0.82848 0.2833 0.22696 0.0
C1254 C 0.71366 0.74577 0.48059 0.0
C1255 C 0.70852 0.73671 0.5687 0.0
C1256 C 0.70655 0.76433 0.6608 0.0
C1257 C 0.70941 0.77343 0.56953 0.0
N1258 N 0.71479 0.77324 0.39091 0.0
N1259 N 0.69908 0.73702 0.74168 0.0
C1260 C 0.71292 0.76427 0.47905 0.0
C1261 C 0.70485 0.74589 0.65897 0.0
N1262 N 0.71946 0.73664 0.39892 0.0
N1263 N 0.7056 0.77337 0.74923 0.0
H1264 H 0.69805 0.72349 0.74395 0.0
H1265 H 0.69426 0.74303 0.80602 0.0
H1266 H 0.7067 0.78689 0.75271 0.0
H1267 H 0.70521 0.76751 0.81972 0.0
H1268 H 0.72509 0.74242 0.33605 0.0
H1269 H 0.71993 0.72308 0.39723 0.0
H1270 H 0.71527 0.76733 0.3205 0.0
H1271 H 0.71486 0.78679 0.38737 0.0
C1272 C 0.48676 0.44609 0.75156 0.0
C1273 C 0.4781 0.45002 0.8432 0.0
C1274 C 0.5062 0.45255 0.92988 0.0
C1275 C 0.51484 0.44943 0.83718 0.0
N1276 N 0.51378 0.44597 0.65712 0.0
N1277 N 0.47914 0.45936 0.01594 0.0
C1278 C 0.50523 0.44704 0.74715 0.0
C1279 C 0.48771 0.45395 0.93144 0.0
N1280 N 0.47734 0.44089 0.66954 0.0
N1281 N 0.51568 0.45372 0.01669 0.0
H1282 H 0.46561 0.46019 0.01994 0.0
H1283 H 0.48535 0.46419 0.07967 0.0
H1284 H 0.52924 0.45332 0.01785 0.0
H1285 H 0.51017 0.45404 0.08818 0.0
H1286 H 0.48289 0.43588 0.60432 0.0
H1287 H 0.46378 0.44038 0.66879 0.0
H1288 H 0.50756 0.44622 0.58764 0.0
H1289 H 0.52731 0.44619 0.65115 0.0
C1290 C 0.01095 0.53903 0.26881 0.0
C1291 C 0.02017 0.54977 0.33746 0.0
C1292 C 0.99268 0.55755 0.41965 0.0
C1293 C 0.9834 0.54896 0.34186 0.0
N1294 N 0.9836 0.53311 0.18502 0.0
N1295 N 0.01978 0.57091 0.47185 0.0
C1296 C 0.99249 0.53999 0.26476 0.0
C1297 C 0.01105 0.55938 0.4119 0.0
N1298 N 0.01984 0.52769 0.20869 0.0
N1299 N 0.98392 0.56375 0.50163 0.0
H1300 H 0.0332 0.57277 0.46819 0.0
H1301 H 0.01358 0.57967 0.51956 0.0
H1302 H 0.97047 0.56252 0.50978 0.0
H1303 H 0.9901 0.56858 0.56551 0.0
H1304 H 0.01378 0.51829 0.16438 0.0
H1305 H 0.03336 0.52654 0.21039 0.0
H1306 H 0.98968 0.52822 0.12099 0.0
H1307 H 0.97009 0.53352 0.17891 0.0
C1308 C 0.01033 0.43528 0.65907 0.0
C1309 C 0.01931 0.4482 0.715 0.0
C1310 C 0.99149 0.4614 0.76351 0.0
C1311 C 0.98255 0.4474 0.71678 0.0
N1312 N 0.98328 0.4198 0.63047 0.0
N1313 N 0.01878 0.47257 0.82912 0.0
C1314 C 0.99192 0.43403 0.6669 0.0
C1315 C 0.00998 0.46106 0.7693 0.0
N1316 N 0.01942 0.42442 0.59688 0.0
N1317 N 0.98229 0.47522 0.80027 0.0
H1318 H 0.03232 0.47293 0.83372 0.0
H1319 H 0.01271 0.48095 0.87952 0.0
H1320 H 0.96874 0.47582 0.79787 0.0
H1321 H 0.98805 0.48667 0.82566 0.0
H1322 H 0.01353 0.41598 0.54594 0.0
H1323 H 0.03293 0.42489 0.58984 0.0
H1324 H 0.98951 0.40872 0.60371 0.0
H1325 H 0.96979 0.41843 0.63409 0.0
C1326 C 0.49402 0.56067 0.14427 0.0
C1327 C 0.48396 0.54734 0.19007 0.0
C1328 C 0.5105 0.53403 0.25793 0.0
C1329 C 0.52055 0.54729 0.21148 0.0
N1330 N 0.52257 0.57087 0.09276 0.0
N1331 N 0.48249 0.51951 0.27232 0.0
C1332 C 0.5125 0.55985 0.14882 0.0
C1333 C 0.49221 0.53341 0.2411 0.0
N1334 N 0.4859 0.57454 0.10049 0.0
N1335 N 0.5184 0.52243 0.32094 0.0
H1336 H 0.46907 0.51876 0.26115 0.0
H1337 H 0.4878 0.50815 0.30146 0.0
H1338 H 0.53181 0.52222 0.33261 0.0
H1339 H 0.51165 0.51369 0.36624 0.0
H1340 H 0.49239 0.5857 0.07689 0.0
H1341 H 0.47242 0.57543 0.09339 0.0
H1342 H 0.51761 0.57908 0.03761 0.0
H1343 H 0.53613 0.57077 0.09522 0.0
C1344 C 0.19074 0.17025 0.4779 0.0
C1345 C 0.18117 0.15639 0.4336 0.0
C1346 C 0.18429 0.13932 0.58888 0.0
C1347 C 0.19338 0.15339 0.63369 0.0
N1348 N 0.20272 0.18316 0.62984 0.0
N1349 N 0.16689 0.12877 0.44819 0.0
C1350 C 0.1959 0.16912 0.58051 0.0
C1351 C 0.17741 0.14118 0.4897 0.0
N1352 N 0.19543 0.18423 0.42058 0.0
N1353 N 0.18259 0.12413 0.64122 0.0
H1354 H 0.16179 0.12997 0.3758 0.0
H1355 H 0.16231 0.11792 0.4867 0.0
H1356 H 0.18741 0.12263 0.71407 0.0
H1357 H 0.1773 0.11278 0.61155 0.0
H1358 H 0.20407 0.19383 0.44436 0.0
H1359 H 0.19175 0.18561 0.34572 0.0
H1360 H 0.20327 0.19562 0.5995 0.0
H1361 H 0.20664 0.18264 0.7049 0.0
C1362 C 0.08362 0.93854 0.70838 0.0
C1363 C 0.09954 0.93377 0.66237 0.0
C1364 C 0.11554 0.94285 0.81259 0.0
C1365 C 0.09961 0.9465 0.86122 0.0
N1366 N 0.06842 0.94649 0.86232 0.0
N1367 N 0.13035 0.92901 0.67285 0.0
C1368 C 0.08359 0.94397 0.8109 0.0
C1369 C 0.11541 0.93512 0.71558 0.0
N1370 N 0.06867 0.93806 0.65303 0.0
N1371 N 0.13076 0.94757 0.85791 0.0
H1372 H 0.13076 0.92399 0.60001 0.0
H1373 H 0.14208 0.92793 0.71144 0.0
H1374 H 0.13106 0.95368 0.92792 0.0
H1375 H 0.14285 0.94688 0.82294 0.0
H1376 H 0.05682 0.94293 0.67799 0.0
H1377 H 0.06836 0.93346 0.57917 0.0
H1378 H 0.0562 0.94343 0.83375 0.0
H1379 H 0.0682 0.9508 0.93677 0.0
C1380 C 0.30733 0.83075 0.93482 0.0
C1381 C 0.32055 0.84173 0.89588 0.0
C1382 C 0.3233 0.85606 0.05978 0.0
C1383 C 0.30891 0.8463 0.09549 0.0
N1384 N 0.2861 0.82556 0.06716 0.0
N1385 N 0.33951 0.8664 0.9151 0.0
C1386 C 0.30064 0.8339 0.033 0.0
C1387 C 0.32822 0.85474 0.95697 0.0
N1388 N 0.30154 0.8171 0.87816 0.0
N1389 N 0.33241 0.86635 0.12494 0.0
H1390 H 0.34317 0.8659 0.83963 0.0
H1391 H 0.34419 0.87733 0.9527 0.0
H1392 H 0.32896 0.86772 0.20032 0.0
H1393 H 0.34411 0.87242 0.10666 0.0
H1394 H 0.29292 0.80769 0.90441 0.0
H1395 H 0.30653 0.81437 0.80687 0.0
H1396 H 0.27831 0.81763 0.02242 0.0
H1397 H 0.28118 0.82756 0.13943 0.0
C1398 C 0.391 0.05096 0.23029 0.0
C1399 C 0.40013 0.06517 0.18738 0.0
C1400 C 0.41377 0.07112 0.34947 0.0
C1401 C 0.40669 0.05545 0.38836 0.0
N1402 N 0.38963 0.0296 0.36478 0.0
N1403 N 0.42276 0.08673 0.20058 0.0
C1404 C 0.39549 0.04515 0.32858 0.0
C1405 C 0.41219 0.07475 0.24555 0.0
N1406 N 0.37772 0.04344 0.17796 0.0
N1407 N 0.42146 0.08284 0.41271 0.0
H1408 H 0.42248 0.0892 0.12351 0.0
H1409 H 0.43299 0.09287 0.23791 0.0
H1410 H 0.42195 0.08106 0.49038 0.0
H1411 H 0.42545 0.09516 0.38964 0.0
H1412 H 0.3694 0.03419 0.20891 0.0
H1413 H 0.37406 0.04773 0.10662 0.0
H1414 H 0.38283 0.02062 0.32121 0.0
H1415 H 0.3927 0.02523 0.43691 0.0
C1416 C 0.18513 0.85996 0.52418 0.0
C1417 C 0.1868 0.84388 0.57498 0.0
C1418 C 0.20071 0.83104 0.42561 0.0
C1419 C 0.19875 0.84704 0.37412 0.0
N1420 N 0.18683 0.87595 0.36699 0.0
N1421 N 0.19486 0.81365 0.57443 0.0
C1422 C 0.19036 0.86133 0.42157 0.0
C1423 C 0.194 0.8292 0.52515 0.0
N1424 N 0.17859 0.87394 0.5751 0.0
N1425 N 0.21013 0.81805 0.38143 0.0
H1426 H 0.19179 0.81225 0.6503 0.0
H1427 H 0.19804 0.80194 0.53984 0.0
H1428 H 0.21556 0.81925 0.30987 0.0
H1429 H 0.21368 0.80658 0.41734 0.0
H1430 H 0.17872 0.88661 0.54782 0.0
H1431 H 0.17359 0.87294 0.64783 0.0
H1432 H 0.17956 0.88637 0.39352 0.0
H1433 H 0.19001 0.87718 0.29119 0.0
C1434 C 0.39367 0.92696 0.73298 0.0
C1435 C 0.40927 0.93052 0.78598 0.0
C1436 C 0.42117 0.94529 0.63709 0.0
C1437 C 0.40512 0.94286 0.58693 0.0
N1438 N 0.3756 0.93281 0.58641 0.0
N1439 N 0.43697 0.94515 0.79476 0.0
C1440 C 0.39121 0.93405 0.63481 0.0
C1441 C 0.42283 0.94019 0.73954 0.0
N1442 N 0.38147 0.91644 0.77629 0.0
N1443 N 0.43498 0.952 0.58529 0.0
H1444 H 0.43866 0.94168 0.86975 0.0
H1445 H 0.44634 0.95387 0.76912 0.0
H1446 H 0.43406 0.95598 0.5105 0.0
H1447 H 0.4476 0.9524 0.61345 0.0
H1448 H 0.37035 0.91202 0.73962 0.0
H1449 H 0.38312 0.9111 0.84779 0.0
H1450 H 0.36434 0.92783 0.61905 0.0
H1451 H 0.37365 0.93786 0.51446 0.0
C1452 C 0.2969 0.14327 0.90354 0.0
C1453 C 0.30637 0.15512 0.84345 0.0
C1454 C 0.32551 0.16187 0.9853 0.0
C1455 C 0.31667 0.14935 0.04406 0.0
N1456 N 0.29637 0.12567 0.05501 0.0
N1457 N 0.33253 0.17187 0.8178 0.0
C1458 C 0.30303 0.1393 1.00185 0.0
C1459 C 0.32156 0.16327 0.88159 0.0
N1460 N 0.28181 0.1363 0.86742 0.0
N1461 N 0.33707 0.17298 0.02963 0.0
H1462 H 0.33045 0.17243 0.74039 0.0
H1463 H 0.3446 0.1767 0.83988 0.0
H1464 H 0.33986 0.17266 0.10635 0.0
H1465 H 0.34259 0.18355 0.99234 0.0
H1466 H 0.27334 0.12888 0.91094 0.0
H1467 H 0.27722 0.13898 0.79519 0.0
H1468 H 0.28761 0.11675 0.0248 0.0
H1469 H 0.30091 0.12241 0.12649 0.0
C1470 C 0.11474 0.06716 0.27616 0.0
C1471 C 0.09853 0.06749 0.32676 0.0
C1472 C 0.08419 0.05613 0.17494 0.0
C1473 C 0.10058 0.05461 0.12741 0.0
N1474 N 0.13166 0.05555 0.13712 0.0
N1475 N 0.06842 0.05864 0.3319 0.0
C1476 C 0.11594 0.05926 0.17943 0.0
C1477 C 0.08336 0.06105 0.27809 0.0
N1478 N 0.12887 0.07483 0.31993 0.0
N1479 N 0.06941 0.05312 0.12071 0.0
H1480 H 0.06745 0.06142 0.40833 0.0
H1481 H 0.0575 0.0523 0.30335 0.0
H1482 H 0.06968 0.04915 0.04567 0.0
H1483 H 0.05698 0.05581 0.14757 0.0
H1484 H 0.14075 0.07647 0.28353 0.0
H1485 H 0.12821 0.08089 0.3901 0.0
H1486 H 0.14348 0.05725 0.17395 0.0
H1487 H 0.13264 0.04925 0.06787 0.0
C1488 C 0.81813 0.86617 0.56803 0.0
C1489 C 0.81762 0.84997 0.61873 0.0
C1490 C 0.80592 0.8361 0.46645 0.0
C1491 C 0.80517 0.85252 0.4188 0.0
N1492 N 0.80752 0.88354 0.42838 0.0
N1493 N 0.80734 0.82032 0.62371 0.0
C1494 C 0.81045 0.86768 0.4709 0.0
C1495 C 0.81058 0.83509 0.56984 0.0
N1496 N 0.82635 0.87995 0.61217 0.0
N1497 N 0.80234 0.82144 0.41216 0.0
H1498 H 0.80981 0.81931 0.70046 0.0
H1499 H 0.80057 0.80969 0.59481 0.0
H1500 H 0.79855 0.82185 0.33685 0.0
H1501 H 0.80444 0.80892 0.43928 0.0
H1502 H 0.8286 0.89173 0.57578 0.0
H1503 H 0.83222 0.87905 0.68273 0.0
H1504 H 0.80967 0.89529 0.46532 0.0
H1505 H 0.80141 0.8848 0.35873 0.0
C1506 C 0.92122 0.05843 0.19775 0.0
C1507 C 0.9054 0.05352 0.15109 0.0
C1508 C 0.88914 0.06274 0.29989 0.0
C1509 C 0.90498 0.06635 0.3496 0.0
N1510 N 0.93619 0.0659 0.35312 0.0
N1511 N 0.87478 0.04784 0.16215 0.0
C1512 C 0.9211 0.06372 0.30042 0.0
C1513 C 0.88946 0.0548 0.20351 0.0
N1514 N 0.93623 0.05828 0.1429 0.0
N1515 N 0.87383 0.06735 0.34433 0.0
H1516 H 0.8748 0.04184 0.09173 0.0
H1517 H 0.86303 0.04677 0.20065 0.0
H1518 H 0.87332 0.07305 0.41554 0.0
H1519 H 0.86185 0.06669 0.30789 0.0
H1520 H 0.948 0.06324 0.16896 0.0
H1521 H 0.93662 0.0541 0.06825 0.0
H1522 H 0.94839 0.0626 0.32526 0.0
H1523 H 0.93634 0.07007 0.42782 0.0
C1524 C 0.6825 0.17393 0.99741 0.0
C1525 C 0.68121 0.15753 0.04568 0.0
C1526 C 0.6942 0.1435 0.89833 0.0
C1527 C 0.69362 0.15951 0.84637 0.0
N1528 N 0.68556 0.18963 0.83997 0.0
N1529 N 0.68383 0.12643 0.03972 0.0
C1530 C 0.68725 0.17466 0.89412 0.0
C1531 C 0.68655 0.14221 0.99538 0.0
N1532 N 0.68009 0.18881 0.05177 0.0
N1533 N 0.70254 0.12971 0.85553 0.0
H1534 H 0.67806 0.1252 0.1104 0.0
H1535 H 0.68593 0.11462 1.00339 0.0
H1536 H 0.70823 0.13044 0.78436 0.0
H1537 H 0.70495 0.11809 0.89314 0.0
H1538 H 0.68248 0.2012 0.02333 0.0
H1539 H 0.67726 0.18873 0.12845 0.0
H1540 H 0.67933 0.20069 0.86729 0.0
H1541 H 0.68932 0.19055 0.76473 0.0
C1542 C 0.61442 0.93176 0.76204 0.0
C1543 C 0.60076 0.93799 0.82354 0.0
C1544 C 0.59083 0.95715 0.68757 0.0
C1545 C 0.60408 0.95043 0.62491 0.0
N1546 N 0.62736 0.93029 0.59523 0.0
N1547 N 0.57483 0.95495 0.84496 0.0
C1548 C 0.61558 0.9374 0.6602 0.0
C1549 C 0.58862 0.95025 0.78615 0.0
N1550 N 0.62646 0.92079 0.80262 0.0
N1551 N 0.58054 0.97024 0.65205 0.0
H1552 H 0.57283 0.94977 0.91644 0.0
H1553 H 0.56478 0.96301 0.82162 0.0
H1554 H 0.58186 0.97522 0.57944 0.0
H1555 H 0.57131 0.97678 0.69485 0.0
H1556 H 0.63774 0.91688 0.76583 0.0
H1557 H 0.62555 0.91623 0.87638 0.0
H1558 H 0.63508 0.91959 0.61211 0.0
H1559 H 0.62876 0.93461 0.52134 0.0
C1560 C 0.82243 0.16381 0.51659 0.0
C1561 C 0.81499 0.15031 0.45814 0.0
C1562 C 0.795 0.14325 0.59633 0.0
C1563 C 0.80341 0.15582 0.65701 0.0
N1564 N 0.82696 0.176 0.6826 0.0
N1565 N 0.79563 0.12588 0.44343 0.0
C1566 C 0.81769 0.1655 0.6193 0.0
C1567 C 0.80161 0.13966 0.49836 0.0
N1568 N 0.83332 0.17558 0.47227 0.0
N1569 N 0.78053 0.13504 0.63249 0.0
H1570 H 0.80052 0.12286 0.37233 0.0
H1571 H 0.78683 0.11672 0.4706 0.0
H1572 H 0.77574 0.13738 0.70471 0.0
H1573 H 0.77268 0.12689 0.58946 0.0
H1574 H 0.83777 0.18678 0.50816 0.0
H1575 H 0.83663 0.17504 0.39628 0.0
H1576 H 0.83864 0.18192 0.66248 0.0
H1577 H 0.82373 0.17766 0.75817 0.0
C1578 C 0.58547 0.06983 0.34348 0.0
C1579 C 0.59527 0.05568 0.38134 0.0
C1580 C 0.61156 0.05415 0.2231 0.0
C1581 C 0.60088 0.06746 0.18283 0.0
N1582 N 0.57541 0.08541 0.19635 0.0
N1583 N 0.61604 0.0329 0.35616 0.0
C1584 C 0.58723 0.07466 0.24091 0.0
C1585 C 0.60788 0.04739 0.32061 0.0
N1586 N 0.57477 0.07888 0.40648 0.0
N1587 N 0.62549 0.04841 0.16884 0.0
H1588 H 0.61364 0.02798 0.42803 0.0
H1589 H 0.62415 0.0251 0.31267 0.0
H1590 H 0.62859 0.05343 0.09818 0.0
H1591 H 0.63468 0.03973 0.19643 0.0
H1592 H 0.56876 0.09049 0.38641 0.0
H1593 H 0.573 0.07555 0.4818 0.0
H1594 H 0.56412 0.08967 0.23185 0.0
H1595 H 0.57601 0.08877 0.12047 0.0
C1596 C 0.68025 0.86251 0.00758 0.0
C1597 C 0.68413 0.84771 0.9479 0.0
C1598 C 0.70074 0.83522 0.08828 0.0
C1599 C 0.69595 0.84952 0.14917 0.0
N1600 N 0.67814 0.87481 0.17502 0.0
N1601 N 0.69541 0.81867 0.93547 0.0
C1602 C 0.68472 0.86255 0.11125 0.0
C1603 C 0.69364 0.83366 0.98958 0.0
N1604 N 0.67338 0.87701 0.96376 0.0
N1605 N 0.71241 0.82343 0.12442 0.0
H1606 H 0.68992 0.81708 0.86427 0.0
H1607 H 0.70095 0.80736 0.9641 0.0
H1608 H 0.71749 0.82425 0.19707 0.0
H1609 H 0.71788 0.81361 0.08083 0.0
H1610 H 0.67194 0.88881 1.00135 0.0
H1611 H 0.67081 0.87787 0.88699 0.0
H1612 H 0.66846 0.88357 0.15441 0.0
H1613 H 0.6812 0.87517 0.25135 0.0
C1614 C 0.89259 0.93831 0.83157 0.0
C1615 C 0.90647 0.94779 0.87647 0.0
C1616 C 0.92326 0.94568 0.71959 0.0
C1617 C 0.90954 0.9359 0.6758 0.0
N1618 N 0.88233 0.92092 0.69018 0.0
N1619 N 0.93537 0.95953 0.86886 0.0
C1620 C 0.8945 0.93171 0.73198 0.0
C1621 C 0.92198 0.95108 0.82204 0.0
N1622 N 0.87755 0.93575 0.88431 0.0
N1623 N 0.93716 0.95034 0.66138 0.0
H1624 H 0.93433 0.96449 0.94165 0.0
H1625 H 0.94772 0.96107 0.8382 0.0
H1626 H 0.93829 0.94677 0.586 0.0
H1627 H 0.94707 0.95863 0.68469 0.0
H1628 H 0.8662 0.93066 0.85341 0.0
H1629 H 0.87616 0.93919 0.95966 0.0
H1630 H 0.87171 0.91586 0.7288 0.0
H1631 H 0.88354 0.91604 0.61724 0.0
C1632 C 0.68654 0.64326 0.11693 0.0
C1633 C 0.69633 0.65683 0.16273 0.0
C1634 C 0.69461 0.67396 0.00694 0.0
C1635 C 0.68458 0.66051 0.9621 0.0
N1636 N 0.66896 0.63365 0.97486 0.0
N1637 N 0.70876 0.68546 0.15689 0.0
C1638 C 0.68003 0.64548 0.01737 0.0
C1639 C 0.69997 0.67237 0.1093 0.0
N1640 N 0.68354 0.62822 0.16886 0.0
N1641 N 0.69957 0.68788 0.94973 0.0
H1642 H 0.71377 0.68415 0.22939 0.0
H1643 H 0.71057 0.69783 0.12715 0.0
H1644 H 0.69613 0.68919 0.87429 0.0
H1645 H 0.70801 0.6976 0.97383 0.0
H1646 H 0.67826 0.61703 0.13716 0.0
H1647 H 0.68676 0.62669 0.24444 0.0
H1648 H 0.66363 0.62309 0.01285 0.0
H1649 H 0.66411 0.6351 0.90202 0.0
C1650 C 0.57764 0.43861 0.26519 0.0
C1651 C 0.59201 0.42939 0.22494 0.0
C1652 C 0.60579 0.42915 0.39082 0.0
C1653 C 0.59268 0.44041 0.42743 0.0
N1654 N 0.56629 0.45633 0.40204 0.0
N1655 N 0.62055 0.4172 0.24523 0.0
C1656 C 0.57851 0.44512 0.36552 0.0
C1657 C 0.60625 0.42485 0.28692 0.0
N1658 N 0.56317 0.44091 0.20721 0.0
N1659 N 0.61754 0.4223 0.45652 0.0
H1660 H 0.62131 0.41407 0.16902 0.0
H1661 H 0.63212 0.41518 0.28418 0.0
H1662 H 0.61703 0.42494 0.53332 0.0
H1663 H 0.62653 0.41277 0.43699 0.0
H1664 H 0.55167 0.44638 0.23349 0.0
H1665 H 0.56227 0.43611 0.13394 0.0
H1666 H 0.55649 0.46178 0.35839 0.0
H1667 H 0.56661 0.46096 0.47584 0.0
C1668 C 0.80614 0.33486 0.63051 0.0
C1669 C 0.80822 0.35049 0.68542 0.0
C1670 C 0.82388 0.36357 0.54293 0.0
C1671 C 0.82057 0.34842 0.48523 0.0
N1672 N 0.80715 0.32022 0.46914 0.0
N1673 N 0.81811 0.38004 0.69594 0.0
C1674 C 0.81137 0.33418 0.52791 0.0
C1675 C 0.81691 0.36495 0.64217 0.0
N1676 N 0.7997 0.32049 0.67824 0.0
N1677 N 0.83405 0.37639 0.5028 0.0
H1678 H 0.81318 0.38122 0.76876 0.0
H1679 H 0.82308 0.39162 0.66743 0.0
H1680 H 0.83919 0.37555 0.43028 0.0
H1681 H 0.83833 0.38724 0.54253 0.0
H1682 H 0.79949 0.30812 0.64649 0.0
H1683 H 0.79578 0.32067 0.75336 0.0
H1684 H 0.79872 0.31036 0.49153 0.0
H1685 H 0.81113 0.31906 0.39467 0.0
C1686 C 0.92368 0.55849 0.84246 0.0
C1687 C 0.9082 0.55459 0.8956 0.0
C1688 C 0.89075 0.56457 0.75277 0.0
C1689 C 0.90616 0.56721 0.69657 0.0
N1690 N 0.93725 0.56575 0.68236 0.0
N1691 N 0.87717 0.55091 0.89722 0.0
C1692 C 0.92266 0.56388 0.73999 0.0
C1693 C 0.89176 0.55681 0.84951 0.0
N1694 N 0.93927 0.55719 0.89105 0.0
N1695 N 0.87514 0.56963 0.71363 0.0
H1696 H 0.87749 0.54545 0.96895 0.0
H1697 H 0.86497 0.55038 0.86342 0.0
H1698 H 0.87388 0.57464 0.64116 0.0
H1699 H 0.86364 0.56986 0.75497 0.0
H1700 H 0.95105 0.56127 0.86058 0.0
H1701 H 0.94024 0.55278 0.96506 0.0
H1702 H 0.94961 0.56197 0.70522 0.0
H1703 H 0.93681 0.57047 0.60882 0.0
C1704 C 0.68079 0.33899 0.93222 0.0
C1705 C 0.69507 0.34807 0.88947 0.0
C1706 C 0.69783 0.36556 0.04254 0.0
C1707 C 0.68477 0.35527 0.0884 0.0
N1708 N 0.66569 0.3305 0.08449 0.0
N1709 N 0.71829 0.36878 0.90433 0.0
C1710 C 0.67674 0.34151 0.03523 0.0
C1711 C 0.70388 0.3611 0.94478 0.0
N1712 N 0.6707 0.32851 0.87314 0.0
N1713 N 0.70404 0.37982 0.0921 0.0
H1714 H 0.72288 0.36565 0.8327 0.0
H1715 H 0.72633 0.37729 0.94376 0.0
H1716 H 0.69969 0.38327 0.16372 0.0
H1717 H 0.71237 0.3889 0.05961 0.0
H1718 H 0.6591 0.32292 0.89761 0.0
H1719 H 0.67297 0.32679 0.7965 0.0
H1720 H 0.66084 0.31909 0.05277 0.0
H1721 H 0.66253 0.33202 0.16028 0.0
C1722 C 0.88553 0.43769 0.19043 0.0
C1723 C 0.901 0.44287 0.14103 0.0
C1724 C 0.91776 0.43671 0.29366 0.0
C1725 C 0.90249 0.43015 0.34062 0.0
N1726 N 0.87232 0.42229 0.33086 0.0
N1727 N 0.93214 0.44496 0.13816 0.0
C1728 C 0.88648 0.43006 0.28797 0.0
C1729 C 0.91722 0.44169 0.19064 0.0
N1730 N 0.86993 0.4406 0.14463 0.0
N1731 N 0.93256 0.439 0.34887 0.0
H1732 H 0.93208 0.44881 0.06295 0.0
H1733 H 0.94453 0.44253 0.16644 0.0
H1734 H 0.93344 0.43575 0.42465 0.0
H1735 H 0.94351 0.44551 0.32212 0.0
H1736 H 0.85794 0.43846 0.17883 0.0
H1737 H 0.86912 0.44657 0.07444 0.0
H1738 H 0.86059 0.42032 0.29349 0.0
H1739 H 0.87282 0.41656 0.40194 0.0
C1740 C 0.8049 0.67357 0.49527 0.0
C1741 C 0.80065 0.65783 0.4456 0.0
C1742 C 0.81061 0.64114 0.59126 0.0
C1743 C 0.8136 0.65684 0.64401 0.0
N1744 N 0.81231 0.68798 0.65268 0.0
N1745 N 0.79617 0.62694 0.45138 0.0
C1746 C 0.81036 0.6731 0.59771 0.0
C1747 C 0.80259 0.64168 0.49514 0.0
N1748 N 0.80391 0.68886 0.44346 0.0
N1749 N 0.8158 0.62577 0.6326 0.0
H1750 H 0.79021 0.62702 0.38093 0.0
H1751 H 0.79558 0.61497 0.48787 0.0
H1752 H 0.82127 0.62498 0.70421 0.0
H1753 H 0.81573 0.61403 0.59344 0.0
H1754 H 0.80831 0.70072 0.47144 0.0
H1755 H 0.79946 0.68946 0.36939 0.0
H1756 H 0.8086 0.70023 0.62741 0.0
H1757 H 0.81689 0.6879 0.72656 0.0
C1758 C 0.6086 0.57248 0.7156 0.0
C1759 C 0.59836 0.55822 0.68266 0.0
C1760 C 0.58456 0.55641 0.84808 0.0
C1761 C 0.59606 0.56945 0.88371 0.0
N1762 N 0.62015 0.5888 0.85714 0.0
N1763 N 0.57768 0.53558 0.71629 0.0
C1764 C 0.60833 0.57729 0.81875 0.0
C1765 C 0.58659 0.54991 0.74869 0.0
N1766 N 0.61839 0.58147 0.64754 0.0
N1767 N 0.57144 0.55068 0.90897 0.0
H1768 H 0.57867 0.53094 0.64274 0.0
H1769 H 0.5702 0.52773 0.76323 0.0
H1770 H 0.56945 0.55569 0.98096 0.0
H1771 H 0.56171 0.54216 0.88567 0.0
H1772 H 0.62496 0.59297 0.66405 0.0
H1773 H 0.61882 0.57806 0.57185 0.0
H1774 H 0.63063 0.59371 0.81649 0.0
H1775 H 0.62014 0.59255 0.93256 0.0
C1776 C 0.29949 0.3613 0.89471 0.0
C1777 C 0.30276 0.34648 0.83384 0.0
C1778 C 0.31887 0.33288 0.97256 0.0
C1779 C 0.31532 0.34751 0.03361 0.0
N1780 N 0.30032 0.37448 0.06092 0.0
N1781 N 0.31251 0.31696 0.81868 0.0
C1782 C 0.30497 0.36136 0.99701 0.0
C1783 C 0.31166 0.33192 0.87396 0.0
N1784 N 0.29185 0.37563 0.85318 0.0
N1785 N 0.32924 0.31998 0.00951 0.0
H1786 H 0.30683 0.31583 0.74774 0.0
H1787 H 0.31752 0.3053 0.84564 0.0
H1788 H 0.33413 0.32021 0.08269 0.0
H1789 H 0.3338 0.30961 0.96669 0.0
H1790 H 0.29057 0.38749 0.89006 0.0
H1791 H 0.28794 0.37617 0.77834 0.0
H1792 H 0.29113 0.38393 0.04358 0.0
H1793 H 0.30493 0.37535 0.13447 0.0
C1794 C 0.38941 0.56888 0.65223 0.0
C1795 C 0.40167 0.55697 0.61244 0.0
C1796 C 0.41834 0.55801 0.7698 0.0
C1797 C 0.40572 0.56944 0.8109 0.0
N1798 N 0.37883 0.58494 0.79786 0.0
N1799 N 0.42726 0.53948 0.63037 0.0
C1800 C 0.39114 0.57468 0.75362 0.0
C1801 C 0.41598 0.5513 0.67075 0.0
N1802 N 0.37625 0.57467 0.59192 0.0
N1803 N 0.43265 0.55389 0.82572 0.0
H1804 H 0.42617 0.53498 0.55662 0.0
H1805 H 0.43732 0.53357 0.66974 0.0
H1806 H 0.43468 0.55876 0.89784 0.0
H1807 H 0.44298 0.54638 0.80024 0.0
H1808 H 0.36766 0.58453 0.61155 0.0
H1809 H 0.37432 0.56995 0.51922 0.0
H1810 H 0.36703 0.58821 0.76469 0.0
H1811 H 0.38018 0.5897 0.87099 0.0
C1812 C 0.18408 0.6396 0.55709 0.0
C1813 C 0.18826 0.6543 0.61667 0.0
C1814 C 0.20399 0.66727 0.47414 0.0
C1815 C 0.19936 0.65275 0.41443 0.0
N1816 N 0.18106 0.62783 0.38906 0.0
N1817 N 0.19944 0.6834 0.62955 0.0
C1818 C 0.18816 0.63975 0.45305 0.0
C1819 C 0.19738 0.66858 0.57418 0.0
N1820 N 0.17708 0.62515 0.60102 0.0
N1821 N 0.21502 0.67948 0.43542 0.0
H1822 H 0.19447 0.68466 0.70224 0.0
H1823 H 0.20487 0.69482 0.60158 0.0
H1824 H 0.21977 0.67876 0.36198 0.0
H1825 H 0.22017 0.68976 0.47681 0.0
H1826 H 0.17539 0.6134 0.56319 0.0
H1827 H 0.17441 0.62439 0.67776 0.0
H1828 H 0.17158 0.61888 0.41051 0.0
H1829 H 0.18333 0.62826 0.31188 0.0
C1830 C 0.0992 0.42967 0.16958 0.0
C1831 C 0.09993 0.44771 0.14617 0.0
C1832 C 0.09874 0.45429 0.32571 0.0
C1833 C 0.10068 0.43636 0.3493 0.0
N1834 N 0.10722 0.40752 0.28995 0.0
N1835 N 0.10504 0.47689 0.20488 0.0
C1836 C 0.10244 0.42422 0.26985 0.0
C1837 C 0.10128 0.45992 0.22528 0.0
N1838 N 0.09402 0.41784 0.09916 0.0
N1839 N 0.0929 0.46578 0.39595 0.0
H1840 H 0.10763 0.4813 0.13219 0.0
H1841 H 0.10747 0.48597 0.26141 0.0
H1842 H 0.08918 0.4621 0.46798 0.0
H1843 H 0.0894 0.47844 0.37717 0.0
H1844 H 0.09206 0.40474 0.11594 0.0
H1845 H 0.08957 0.42136 0.02809 0.0
H1846 H 0.10995 0.39853 0.23338 0.0
H1847 H 0.11028 0.40334 0.36248 0.0
C1848 C 0.31816 0.64636 0.05264 0.0
C1849 C 0.30222 0.65372 0.08539 0.0
C1850 C 0.29778 0.66676 0.91905 0.0
C1851 C 0.31322 0.65858 0.88488 0.0
N1852 N 0.33728 0.63941 0.91248 0.0
N1853 N 0.27623 0.66986 0.05223 0.0
C1854 C 0.32326 0.64813 0.95021 0.0
C1855 C 0.29186 0.66368 0.01908 0.0
N1856 N 0.32845 0.63785 0.12031 0.0
N1857 N 0.28908 0.6777 0.85573 0.0
H1858 H 0.27194 0.66802 0.12594 0.0
H1859 H 0.26713 0.676 1.00662 0.0
H1860 H 0.29333 0.68027 0.78272 0.0
H1861 H 0.2783 0.68503 0.87634 0.0
H1862 H 0.34102 0.63363 0.10503 0.0
H1863 H 0.32473 0.63581 0.19469 0.0
H1864 H 0.34433 0.63018 0.9525 0.0
H1865 H 0.34129 0.64067 0.83786 0.0
C1866 C 0.11534 0.56258 0.83881 0.0
C1867 C 0.10005 0.55527 0.88143 0.0
C1868 C 0.08442 0.55986 0.72274 0.0
C1869 C 0.09943 0.56798 0.68185 0.0
N1870 N 0.12844 0.57887 0.70115 0.0
N1871 N 0.06976 0.54809 0.87006 0.0
C1872 C 0.11472 0.5698 0.74012 0.0
C1873 C 0.08449 0.55428 0.82494 0.0
N1874 N 0.13046 0.56238 0.8927 0.0
N1875 N 0.07033 0.55699 0.66238 0.0
H1876 H 0.06972 0.54325 0.9434 0.0
H1877 H 0.05747 0.54855 0.83757 0.0
H1878 H 0.0697 0.56143 0.58849 0.0
H1879 H 0.05966 0.54945 0.68296 0.0
H1880 H 0.14251 0.5659 0.86351 0.0
H1881 H 0.13109 0.55798 0.96678 0.0
H1882 H 0.13952 0.5822 0.74175 0.0
H1883 H 0.1282 0.58414 0.62879 0.0
C1884 C 0.18983 0.34016 0.41165 0.0
C1885 C 0.19737 0.35291 0.34817 0.0
C1886 C 0.21827 0.36042 0.48159 0.0
C1887 C 0.20974 0.34873 0.54723 0.0
N1888 N 0.18567 0.32957 0.5816 0.0
N1889 N 0.21715 0.37688 0.32572 0.0
C1890 C 0.19495 0.33927 0.51426 0.0
C1891 C 0.2112 0.36352 0.38405 0.0
N1892 N 0.17857 0.3282 0.3723 0.0
N1893 N 0.23329 0.36826 0.51246 0.0
H1894 H 0.21181 0.37975 0.25555 0.0
H1895 H 0.22629 0.38597 0.34981 0.0
H1896 H 0.23844 0.36631 0.58424 0.0
H1897 H 0.24121 0.37564 0.4654 0.0
H1898 H 0.17401 0.31748 0.41222 0.0
H1899 H 0.17509 0.32801 0.29652 0.0
H1900 H 0.1737 0.32392 0.56485 0.0
H1901 H 0.18926 0.32831 0.65687 0.0
C1902 C 0.41083 0.4534 0.20817 0.0
C1903 C 0.39429 0.44754 0.17518 0.0
C1904 C 0.38292 0.45002 0.34648 0.0
C1905 C 0.39975 0.45527 0.37979 0.0
N1906 N 0.42696 0.46859 0.33801 0.0
N1907 N 0.3635 0.44628 0.204 0.0
C1908 C 0.41261 0.45953 0.30803 0.0
C1909 C 0.37994 0.44791 0.24165 0.0
N1910 N 0.42513 0.45165 0.14811 0.0
N1911 N 0.3701 0.44599 0.41352 0.0
H1912 H 0.36109 0.44498 0.12711 0.0
H1913 H 0.35233 0.44806 0.24712 0.0
H1914 H 0.37123 0.44762 0.49062 0.0
H1915 H 0.3585 0.43996 0.39277 0.0
H1916 H 0.43771 0.45437 0.17263 0.0
H1917 H 0.42476 0.44573 0.07773 0.0
H1918 H 0.43633 0.4732 0.28798 0.0
H1919 H 0.42835 0.47295 0.41204 0.0
C1920 C 0.26191 0.12191 0.2288 0.0
C1921 C 0.26585 0.1312 0.31859 0.0
C1922 C 0.23925 0.14823 0.29744 0.0
C1923 C 0.23768 0.14203 0.19679 0.0
N1924 N 0.24624 0.12147 0.06977 0.0
N1925 N 0.25339 0.14585 0.46038 0.0
C1926 C 0.24849 0.12821 0.16393 0.0
C1927 C 0.25298 0.14218 0.35974 0.0
N1928 N 0.26995 0.10645 0.20965 0.0
N1929 N 0.22785 0.16025 0.3329 0.0
H1930 H 0.26258 0.14029 0.50833 0.0
H1931 H 0.24371 0.15263 0.49842 0.0
H1932 H 0.21624 0.16265 0.29665 0.0
H1933 H 0.22982 0.16758 0.39776 0.0
H1934 H 0.26691 0.09851 0.14874 0.0
H1935 H 0.2778 0.1003 0.2625 0.0
H1936 H 0.25483 0.11276 0.0364 0.0
H1937 H 0.23593 0.1251 0.02342 0.0
C1938 C 0.10711 0.01188 0.45563 0.0
C1939 C 0.11023 0.01099 0.56116 0.0
C1940 C 0.12555 0.98327 0.53599 0.0
C1941 C 0.12234 0.98435 0.43045 0.0
N1942 N 0.11609 0.00271 0.28922 0.0
N1943 N 0.12636 0.99829 0.69734 0.0
C1944 C 0.11508 0.99968 0.39027 0.0
C1945 C 0.12088 0.99752 0.59967 0.0
N1946 N 0.09578 0.02374 0.41735 0.0
N1947 N 0.13205 0.96834 0.57674 0.0
H1948 H 0.12306 0.00852 0.74517 0.0
H1949 H 0.13546 0.98981 0.72801 0.0
H1950 H 0.13546 0.9575 0.53443 0.0
H1951 H 0.13305 0.96625 0.65378 0.0
H1952 H 0.09143 0.02352 0.34311 0.0
H1953 H 0.08971 0.03294 0.46165 0.0
H1954 H 0.11237 0.01441 0.25608 0.0
H1955 H 0.12262 0.99428 0.24068 0.0
C1956 C 0.24688 0.85468 0.62603 0.0
C1957 C 0.26369 0.86197 0.62715 0.0
C1958 C 0.25854 0.86979 0.80527 0.0
C1959 C 0.24415 0.85803 0.8082 0.0
N1960 N 0.22818 0.83564 0.7176 0.0
N1961 N 0.28398 0.88049 0.71495 0.0
C1962 C 0.23917 0.84956 0.71754 0.0
C1963 C 0.26912 0.87079 0.71622 0.0
N1964 N 0.2379 0.85306 0.53825 0.0
N1965 N 0.26165 0.88043 0.88564 0.0
H1966 H 0.29016 0.88397 0.64807 0.0
H1967 H 0.2901 0.88508 0.77961 0.0
H1968 H 0.25377 0.88055 0.94945 0.0
H1969 H 0.27103 0.89021 0.88588 0.0
H1970 H 0.22508 0.84873 0.53709 0.0
H1971 H 0.24226 0.85858 0.47112 0.0
H1972 H 0.22584 0.82833 0.65283 0.0
H1973 H 0.22287 0.83039 0.78254 0.0
C1974 C 0.37901 0.99692 0.05778 0.0
C1975 C 0.39292 0.98634 0.02372 0.0
C1976 C 0.39275 0.00193 0.86196 0.0
C1977 C 0.38177 0.01464 0.90453 0.0
N1978 N 0.35723 0.01856 0.01516 0.0
N1979 N 0.4114 0.97718 0.88706 0.0
C1980 C 0.37261 0.0105 0.9944 0.0
C1981 C 0.39907 0.9882 0.92315 0.0
N1982 N 0.37235 0.99434 0.15181 0.0
N1983 N 0.39631 0.00259 0.76126 0.0
H1984 H 0.41446 0.96577 0.92376 0.0
H1985 H 0.41855 0.97938 0.82175 0.0
H1986 H 0.39069 0.01191 0.71437 0.0
H1987 H 0.40304 0.99299 0.72225 0.0
H1988 H 0.36362 0.00276 0.18642 0.0
H1989 H 0.37602 0.98387 0.1968 0.0
H1990 H 0.3494 0.01546 0.07646 0.0
H1991 H 0.35102 0.02656 0.9633 0.0
C1992 C 0.74566 0.87092 0.89667 0.0
C1993 C 0.76008 0.86166 0.85755 0.0
C1994 C 0.74892 0.86671 0.6866 0.0
C1995 C 0.73296 0.87263 0.72651 0.0
N1996 N 0.7156 0.87929 0.87381 0.0
N1997 N 0.774 0.84875 0.71243 0.0
C1998 C 0.73123 0.87476 0.83272 0.0
C1999 C 0.76145 0.85921 0.75162 0.0
N2000 N 0.74571 0.87598 0.99516 0.0
N2001 N 0.75216 0.86835 0.58604 0.0
H2002 H 0.78329 0.84282 0.75657 0.0
H2003 H 0.77421 0.84479 0.63745 0.0
H2004 H 0.74342 0.87435 0.53733 0.0
H2005 H 0.76423 0.8657 0.55373 0.0
H2006 H 0.73635 0.88413 0.02634 0.0
H2007 H 0.75617 0.87351 0.04296 0.0
H2008 H 0.71316 0.87899 0.95082 0.0
H2009 H 0.70458 0.88206 0.83153 0.0
C2010 C 0.89332 1.00071 0.60997 0.0
C2011 C 0.88284 0.01539 0.59035 0.0
C2012 C 0.87887 0.00503 0.41637 0.0
C2013 C 0.892 0.99234 0.43144 0.0
N2014 N 0.91367 0.98007 0.54297 0.0
N2015 N 0.86653 0.03245 0.47026 0.0
C2016 C 0.89961 0.99054 0.52861 0.0
C2017 C 0.87562 0.01771 0.49262 0.0
N2018 N 0.89702 0.99628 0.70709 0.0
N2019 N 0.86939 0.00488 0.3294 0.0
H2020 H 0.86423 0.04237 0.52185 0.0
H2021 H 0.86235 0.0355 0.39799 0.0
H2022 H 0.87133 0.99571 0.27272 0.0
H2023 H 0.8585 0.01265 0.31775 0.0
H2024 H 0.90332 0.98477 0.72662 0.0
H2025 H 0.89189 0.00308 0.76814 0.0
H2026 H 0.92115 0.98048 0.60828 0.0
H2027 H 0.91875 0.97206 0.48757 0.0
C2028 C 0.74317 0.12177 0.29714 0.0
C2029 C 0.73687 0.13839 0.32738 0.0
C2030 C 0.7531 0.15144 0.18798 0.0
C2031 C 0.76178 0.13554 0.1694 0.0
N2032 N 0.76735 0.10607 0.22437 0.0
N2033 N 0.74111 0.16951 0.31807 0.0
C2034 C 0.75747 0.12078 0.2289 0.0
C2035 C 0.74329 0.15339 0.27734 0.0
N2036 N 0.73515 0.1069 0.32901 0.0
N2037 N 0.75385 0.16462 0.11944 0.0
H2038 H 0.73554 0.17139 0.38869 0.0
H2039 H 0.74675 0.18064 0.28718 0.0
H2040 H 0.76032 0.16338 0.05078 0.0
H2041 H 0.74659 0.17599 0.12711 0.0
H2042 H 0.73845 0.09464 0.30152 0.0
H2043 H 0.72399 0.10689 0.37331 0.0
H2044 H 0.76567 0.0957 0.27394 0.0
H2045 H 0.77827 0.1049 0.1785 0.0
C2046 C 0.63032 0.01384 0.98235 0.0
C2047 C 0.61756 0.01623 0.90578 0.0
C2048 C 0.59669 0.99989 1.00622 0.0
C2049 C 0.60972 0.99564 0.07773 0.0
N2050 N 0.64005 0.99636 0.12384 0.0
N2051 N 0.59112 0.00557 0.83073 0.0
C2052 C 0.62697 0.00173 0.0619 0.0
C2053 C 0.60166 0.0071 0.91287 0.0
N2054 N 0.64505 0.02377 0.98359 0.0
N2055 N 0.57946 0.99828 0.02867 0.0
H2056 H 0.59465 0.01047 0.76036 0.0
H2057 H 0.57984 0.99802 0.83124 0.0
H2058 H 0.57501 0.99526 0.10038 0.0
H2059 H 0.56966 0.00233 0.97982 0.0
H2060 H 0.65371 0.02389 0.04385 0.0
H2061 H 0.648 0.03292 0.92857 0.0
H2062 H 0.65312 0.99901 0.10974 0.0
H2063 H 0.63791 0.98824 0.18542 0.0
C2064 C 0.7666 0.62625 0.78113 0.0
C2065 C 0.76395 0.6336 0.87835 0.0
C2066 C 0.73882 0.64959 0.81431 0.0
C2067 C 0.74082 0.64171 0.71793 0.0
N2068 N 0.75393 0.61899 0.61892 0.0
N2069 N 0.74398 0.64709 0.99314 0.0
C2070 C 0.75383 0.62883 0.70456 0.0
C2071 C 0.7489 0.6436 0.89658 0.0
N2072 N 0.78167 0.61768 0.75939 0.0
N2073 N 0.72832 0.66367 0.82725 0.0
H2074 H 0.75056 0.64189 0.05472 0.0
H2075 H 0.73226 0.65315 0.01118 0.0
H2076 H 0.7205 0.66872 0.77102 0.0
H2077 H 0.72865 0.67123 0.89228 0.0
H2078 H 0.78479 0.6133 0.68756 0.0
H2079 H 0.79177 0.61607 0.8106 0.0
H2080 H 0.76199 0.60827 0.60873 0.0
H2081 H 0.74466 0.62041 0.56224 0.0
C2082 C 0.61781 0.50145 0.99086 0.0
C2083 C 0.60382 0.48937 0.98185 0.0
C2084 C 0.59683 0.49432 0.15888 0.0
C2085 C 0.60758 0.50927 0.16146 0.0
N2086 N 0.6315 0.52484 0.08608 0.0
N2087 N 0.57741 0.47775 0.05511 0.0
C2088 C 0.61907 0.51221 0.07896 0.0
C2089 C 0.59261 0.48675 0.06523 0.0
N2090 N 0.6302 0.50216 0.91723 0.0
N2091 N 0.59132 0.48666 0.24571 0.0
H2092 H 0.57336 0.47245 0.98718 0.0
H2093 H 0.5682 0.47699 0.11258 0.0
H2094 H 0.59641 0.49003 0.3158 0.0
H2095 H 0.58399 0.47526 0.24584 0.0
H2096 H 0.64152 0.50955 0.92228 0.0
H2097 H 0.62984 0.49426 0.85348 0.0
H2098 H 0.63855 0.52952 0.02494 0.0
H2099 H 0.63483 0.53058 0.15454 0.0
C2100 C 0.74808 0.36267 0.40812 0.0
C2101 C 0.73527 0.37343 0.36449 0.0
C2102 C 0.75274 0.37544 0.20975 0.0
C2103 C 0.76366 0.36197 0.246 0.0
N2104 N 0.77335 0.34455 0.38586 0.0
N2105 N 0.7312 0.39741 0.24996 0.0
C2106 C 0.76195 0.35633 0.34767 0.0
C2107 C 0.73925 0.38211 0.27283 0.0
N2108 N 0.74745 0.35947 0.50924 0.0
N2109 N 0.7549 0.38145 0.11395 0.0
H2110 H 0.72332 0.40394 0.30113 0.0
H2111 H 0.73433 0.40495 0.1875 0.0
H2112 H 0.76529 0.37766 0.0686 0.0
H2113 H 0.74612 0.38967 0.07826 0.0
H2114 H 0.75705 0.35289 0.54903 0.0
H2115 H 0.73814 0.36522 0.55571 0.0
H2116 H 0.77138 0.33765 0.45221 0.0
H2117 H 0.78495 0.34181 0.35023 0.0
C2118 C 0.88377 0.5018 0.62229 0.0
C2119 C 0.89358 0.48798 0.58077 0.0
C2120 C 0.88983 0.50085 0.41287 0.0
C2121 C 0.88358 0.51633 0.45697 0.0
N2122 N 0.87476 0.53183 0.60701 0.0
N2123 N 0.90705 0.47507 0.43425 0.0
C2124 C 0.88026 0.51682 0.56247 0.0
C2125 C 0.89675 0.48759 0.47521 0.0
N2126 N 0.87789 0.50059 0.71903 0.0
N2127 N 0.88874 0.49868 0.3111 0.0
H2128 H 0.91211 0.46498 0.47624 0.0
H2129 H 0.91151 0.47542 0.36025 0.0
H2130 H 0.88284 0.50789 0.26472 0.0
H2131 H 0.8917 0.48702 0.27488 0.0
H2132 H 0.86931 0.50944 0.75132 0.0
H2133 H 0.88018 0.48969 0.76368 0.0
H2134 H 0.87385 0.53338 0.68455 0.0
H2135 H 0.87216 0.54319 0.56748 0.0
C2136 C 0.26202 0.35372 0.21292 0.0
C2137 C 0.26699 0.36903 0.26522 0.0
C2138 C 0.25132 0.38576 0.13598 0.0
C2139 C 0.24886 0.37037 0.07799 0.0
N2140 N 0.25889 0.34116 0.04802 0.0
N2141 N 0.27068 0.40039 0.2515 0.0
C2142 C 0.25668 0.35486 0.11175 0.0
C2143 C 0.26294 0.38537 0.21988 0.0
N2144 N 0.26075 0.33825 0.26181 0.0
N2145 N 0.24224 0.40054 0.11504 0.0
H2146 H 0.28056 0.40077 0.30483 0.0
H2147 H 0.26888 0.4122 0.21454 0.0
H2148 H 0.23324 0.40145 0.05685 0.0
H2149 H 0.24253 0.41139 0.16212 0.0
H2150 H 0.2565 0.3269 0.22632 0.0
H2151 H 0.2609 0.33778 0.33996 0.0
H2152 H 0.26549 0.32992 0.06974 0.0
H2153 H 0.25554 0.34186 0.97198 0.0
C2154 C 0.39705 0.5011 0.88016 0.0
C2155 C 0.38255 0.49008 0.89656 0.0
C2156 C 0.37832 0.5047 0.06032 0.0
C2157 C 0.39492 0.51265 0.05166 0.0
N2158 N 0.42208 0.5138 0.9596 0.0
N2159 N 0.36107 0.47955 0.01703 0.0
C2160 C 0.40485 0.50966 0.96315 0.0
C2161 C 0.3734 0.49149 0.99005 0.0
N2162 N 0.40361 0.50316 0.78549 0.0
N2163 N 0.36743 0.5093 0.13686 0.0
H2164 H 0.3574 0.46901 0.97307 0.0
H2165 H 0.35565 0.47912 0.08883 0.0
H2166 H 0.37076 0.51855 0.19088 0.0
H2167 H 0.35456 0.50507 0.14091 0.0
H2168 H 0.41346 0.51206 0.769 0.0
H2169 H 0.39785 0.4974 0.72259 0.0
H2170 H 0.42997 0.51084 0.89813 0.0
H2171 H 0.429 0.51757 0.02304 0.0
C2172 C 0.25614 0.62683 0.82772 0.0
C2173 C 0.24623 0.64192 0.85085 0.0
C2174 C 0.25054 0.65244 0.67832 0.0
C2175 C 0.26187 0.63839 0.6581 0.0
N2176 N 0.27729 0.61316 0.71701 0.0
N2177 N 0.2389 0.6714 0.80587 0.0
C2178 C 0.26526 0.62587 0.73406 0.0
C2179 C 0.24482 0.65538 0.77827 0.0
N2180 N 0.25631 0.61317 0.89334 0.0
N2181 N 0.24506 0.663 0.60209 0.0
H2182 H 0.23559 0.67432 0.87958 0.0
H2183 H 0.23922 0.6822 0.75859 0.0
H2184 H 0.24894 0.66138 0.5275 0.0
H2185 H 0.23565 0.67255 0.61206 0.0
H2186 H 0.26177 0.60114 0.8764 0.0
H2187 H 0.24978 0.61339 0.9621 0.0
H2188 H 0.2818 0.60482 0.77285 0.0
H2189 H 0.28368 0.61175 0.64823 0.0
C2190 C 0.09255 0.50644 0.51198 0.0
C2191 C 0.10494 0.51052 0.4359 0.0
C2192 C 0.12605 0.49158 0.52153 0.0
C2193 C 0.11411 0.48914 0.60215 0.0
N2194 N 0.08833 0.49908 0.68693 0.0
N2195 N 0.13466 0.50909 0.37793 0.0
C2196 C 0.09816 0.49822 0.6015 0.0
C2197 C 0.12215 0.50394 0.44451 0.0
N2198 N 0.07522 0.50931 0.49749 0.0
N2199 N 0.14051 0.48137 0.51427 0.0
H2200 H 0.1321 0.51728 0.31727 0.0
H2201 H 0.14779 0.50616 0.38709 0.0
H2202 H 0.14374 0.47196 0.56736 0.0
H2203 H 0.14852 0.48121 0.45109 0.0
H2204 H 0.06574 0.50514 0.54812 0.0
H2205 H 0.07007 0.5136 0.42982 0.0
H2206 H 0.07727 0.50684 0.69282 0.0
H2207 H 0.09241 0.49365 0.75484 0.0
C2208 C 0.15932 0.09775 0.95149 0.0
C2209 C 0.15758 0.11592 0.93358 0.0
C2210 C 0.14089 0.10941 0.78032 0.0
C2211 C 0.13909 0.09196 0.81105 0.0
N2212 N 0.14889 0.06838 0.9152 0.0
N2213 N 0.14577 0.13909 0.83015 0.0
C2214 C 0.14929 0.08568 0.8925 0.0
C2215 C 0.14834 0.12175 0.84689 0.0
N2216 N 0.17001 0.09219 0.02701 0.0
N2217 N 0.13529 0.1141 0.68668 0.0
H2218 H 0.15082 0.14887 0.8756 0.0
H2219 H 0.13741 0.14383 0.775 0.0
H2220 H 0.12994 0.10506 0.6367 0.0
H2221 H 0.13776 0.12624 0.65493 0.0
H2222 H 0.17286 0.07923 0.04149 0.0
H2223 H 0.1769 0.10074 0.07314 0.0
H2224 H 0.1553 0.06282 0.97586 0.0
H2225 H 0.14213 0.05932 0.87196 0.0
C2226 C 0.16275 0.90209 0.03037 0.0
C2227 C 0.1647 0.88523 0.07291 0.0
C2228 C 0.14749 0.89444 0.22019 0.0
C2229 C 0.14332 0.91004 0.17035 0.0
N2230 N 0.15089 0.93139 0.04694 0.0
N2231 N 0.15928 0.86542 0.21107 0.0
C2232 C 0.1523 0.91475 0.08141 0.0
C2233 C 0.15742 0.88156 0.16957 0.0
N2234 N 0.16967 0.90549 0.93775 0.0
N2235 N 0.14219 0.89227 0.31751 0.0
H2236 H 0.16757 0.85605 0.18175 0.0
H2237 H 0.1523 0.86105 0.27319 0.0
H2238 H 0.13552 0.90201 0.35625 0.0
H2239 H 0.14587 0.88191 0.363 0.0
H2240 H 0.16717 0.91672 0.89672 0.0
H2241 H 0.17744 0.8966 0.89925 0.0
H2242 H 0.1583 0.93642 0.9883 0.0
H2243 H 0.14336 0.94068 0.0839 0.0
C2244 C 0.36657 0.87339 0.3481 0.0
C2245 C 0.34983 0.87871 0.38066 0.0
C2246 C 0.35731 0.90834 0.3232 0.0
C2247 C 0.37262 0.90187 0.27535 0.0
N2248 N 0.38731 0.87618 0.21391 0.0
N2249 N 0.32796 0.90145 0.37624 0.0
C2250 C 0.37576 0.88373 0.27851 0.0
C2251 C 0.34474 0.89626 0.36184 0.0
N2252 N 0.37417 0.85878 0.38627 0.0
N2253 N 0.35493 0.92577 0.3366 0.0
H2254 H 0.31813 0.8932 0.40084 0.0
H2255 H 0.3235 0.91364 0.35384 0.0
H2256 H 0.36384 0.93515 0.31373 0.0
H2257 H 0.34481 0.93077 0.38002 0.0
H2258 H 0.38685 0.85515 0.36775 0.0
H2259 H 0.36881 0.8518 0.44607 0.0
H2260 H 0.3891 0.86274 0.21082 0.0
H2261 H 0.39324 0.88305 0.15553 0.0
C2262 C 0.36451 0.09387 0.54448 0.0
C2263 C 0.36678 0.09116 0.64965 0.0
C2264 C 0.34546 0.114 0.68256 0.0
C2265 C 0.34236 0.11593 0.57749 0.0
N2266 N 0.34508 0.10337 0.41206 0.0
N2267 N 0.35465 0.09458 0.81558 0.0
C2268 C 0.35042 0.10424 0.50979 0.0
C2269 C 0.35549 0.09971 0.71752 0.0
N2270 N 0.37632 0.08751 0.47755 0.0
N2271 N 0.33988 0.12631 0.74899 0.0
H2272 H 0.36133 0.08375 0.84207 0.0
H2273 H 0.34573 0.09974 0.86654 0.0
H2274 H 0.33357 0.13756 0.72636 0.0
H2275 H 0.34321 0.12623 0.825 0.0
H2276 H 0.37619 0.09056 0.40117 0.0
H2277 H 0.38722 0.08062 0.50003 0.0
H2278 H 0.3498 0.09415 0.36149 0.0
H2279 H 0.33455 0.11048 0.38522 0.0
C2280 C 0.83833 0.9005 0.17541 0.0
C2281 C 0.84234 0.89108 0.08679 0.0
C2282 C 0.87105 0.90491 0.07987 0.0
C2283 C 0.86815 0.91234 0.17704 0.0
N2284 N 0.84899 0.91732 0.31769 0.0
N2285 N 0.85953 0.88851 0.93766 0.0
C2286 C 0.85158 0.91061 0.22366 0.0
C2287 C 0.85782 0.89467 0.03373 0.0
N2288 N 0.82181 0.89988 0.2126 0.0
N2289 N 0.88678 0.90706 0.03356 0.0
H2290 H 0.84971 0.88133 0.90249 0.0
H2291 H 0.86971 0.8917 0.88954 0.0
H2292 H 0.89615 0.91574 0.05926 0.0
H2293 H 0.89077 0.90016 0.97036 0.0
H2294 H 0.81737 0.90795 0.2699 0.0
H2295 H 0.81202 0.89251 0.17886 0.0
H2296 H 0.83806 0.9147 0.3614 0.0
H2297 H 0.85828 0.92479 0.35511 0.0
C2298 C 0.84726 0.11813 0.82583 0.0
C2299 C 0.8398 0.11538 0.9233 0.0
C2300 C 0.85332 0.08634 0.92828 0.0
C2301 C 0.86146 0.08978 0.83475 0.0
N2302 N 0.86123 0.10536 0.67934 0.0
N2303 N 0.83265 0.09528 0.05687 0.0
C2304 C 0.85663 0.10449 0.7785 0.0
C2305 C 0.84159 0.09883 0.9704 0.0
N2306 N 0.84628 0.13402 0.77996 0.0
N2307 N 0.8576 0.07154 0.97905 0.0
H2308 H 0.82479 0.10432 0.09317 0.0
H2309 H 0.83207 0.08303 0.08975 0.0
H2310 H 0.86532 0.06187 0.94698 0.0
H2311 H 0.85389 0.06898 0.05275 0.0
H2312 H 0.85336 0.13727 0.71586 0.0
H2313 H 0.83939 0.14453 0.80838 0.0
H2314 H 0.85676 0.11491 0.63028 0.0
H2315 H 0.868 0.09531 0.64391 0.0
C2316 C 0.66316 0.10748 0.62972 0.0
C2317 C 0.65853 0.11527 0.53684 0.0
C2318 C 0.63022 0.10071 0.54113 0.0
C2319 C 0.63415 0.09374 0.63837 0.0
N2320 N 0.65576 0.08738 0.76482 0.0
N2321 N 0.64106 0.11428 0.38826 0.0
C2322 C 0.65121 0.09589 0.67855 0.0
C2323 C 0.64318 0.11008 0.48739 0.0
N2324 N 0.67859 0.11192 0.67353 0.0
N2325 N 0.61388 0.09919 0.5014 0.0
H2326 H 0.65055 0.12108 0.34802 0.0
H2327 H 0.631 0.10948 0.34365 0.0
H2328 H 0.60389 0.09206 0.53425 0.0
H2329 H 0.60976 0.10593 0.43788 0.0
H2330 H 0.68212 0.10841 0.74616 0.0
H2331 H 0.68789 0.11948 0.63673 0.0
H2332 H 0.66836 0.08702 0.79323 0.0
H2333 H 0.64716 0.07967 0.80571 0.0
C2334 C 0.65301 0.91644 0.36436 0.0
C2335 C 0.63689 0.91083 0.32223 0.0
C2336 C 0.64098 0.88258 0.40092 0.0
C2337 C 0.65826 0.88681 0.4294 0.0
N2338 N 0.68196 0.90759 0.4153 0.0
N2339 N 0.61992 0.88596 0.26917 0.0
C2340 C 0.66473 0.90372 0.40482 0.0
C2341 C 0.63237 0.89304 0.33 0.0
N2342 N 0.65699 0.9337 0.36996 0.0
N2343 N 0.63233 0.869 0.4443 0.0
H2344 H 0.61421 0.89292 0.21047 0.0
H2345 H 0.61704 0.87269 0.26961 0.0
H2346 H 0.63734 0.86212 0.50529 0.0
H2347 H 0.61931 0.86628 0.42853 0.0
H2348 H 0.66775 0.93835 0.40947 0.0
H2349 H 0.64885 0.94344 0.34306 0.0
H2350 H 0.68735 0.91919 0.38917 0.0
H2351 H 0.69115 0.89871 0.44052 0.0
C2352 C 0.63939 0.61114 0.32825 0.0
C2353 C 0.63788 0.5945 0.37267 0.0
C2354 C 0.65847 0.60311 0.50554 0.0
C2355 C 0.65944 0.6201 0.46357 0.0
N2356 N 0.65489 0.63849 0.31845 0.0
N2357 N 0.64987 0.57287 0.48252 0.0
C2358 C 0.65118 0.62352 0.36953 0.0
C2359 C 0.64884 0.58988 0.45404 0.0
N2360 N 0.62911 0.61525 0.24779 0.0
N2361 N 0.6656 0.5999 0.59774 0.0
H2362 H 0.64301 0.5631 0.44525 0.0
H2363 H 0.65864 0.56831 0.53598 0.0
H2364 H 0.67253 0.60922 0.63826 0.0
H2365 H 0.66356 0.58842 0.6375 0.0
H2366 H 0.62759 0.62782 0.22017 0.0
H2367 H 0.62148 0.60602 0.21073 0.0
H2368 H 0.6505 0.64114 0.24603 0.0
H2369 H 0.66397 0.64753 0.34367 0.0
C2370 C 0.65747 0.40459 0.6007 0.0
C2371 C 0.65913 0.38742 0.63987 0.0
C2372 C 0.64147 0.39591 0.78716 0.0
C2373 C 0.63785 0.41192 0.74028 0.0
N2374 N 0.64692 0.43417 0.62627 0.0
N2375 N 0.65391 0.36706 0.77586 0.0
C2376 C 0.64746 0.41714 0.65485 0.0
C2377 C 0.65176 0.3833 0.73594 0.0
N2378 N 0.66413 0.40847 0.50804 0.0
N2379 N 0.635 0.39301 0.88152 0.0
H2380 H 0.66179 0.35762 0.74359 0.0
H2381 H 0.64754 0.3625 0.83958 0.0
H2382 H 0.62786 0.40247 0.91982 0.0
H2383 H 0.63781 0.38221 0.92548 0.0
H2384 H 0.66163 0.42001 0.46997 0.0
H2385 H 0.67139 0.39972 0.46558 0.0
H2386 H 0.65451 0.43944 0.56908 0.0
H2387 H 0.63993 0.44337 0.66721 0.0
C2388 C 0.85951 0.39031 0.81824 0.0
C2389 C 0.86129 0.40837 0.83326 0.0
C2390 C 0.84113 0.40619 0.9775 0.0
C2391 C 0.84313 0.3878 0.976 0.0
N2392 N 0.85543 0.36231 0.89523 0.0
N2393 N 0.85075 0.4344 0.91368 0.0
C2394 C 0.85243 0.37982 0.89563 0.0
C2395 C 0.85093 0.41668 0.90797 0.0
N2396 N 0.86477 0.38321 0.7291 0.0
N2397 N 0.83031 0.41352 0.04715 0.0
H2398 H 0.85675 0.44232 0.86065 0.0
H2399 H 0.84442 0.44144 0.96938 0.0
H2400 H 0.82346 0.40613 0.09975 0.0
H2401 H 0.82733 0.42668 0.0505 0.0
H2402 H 0.86232 0.37032 0.70916 0.0
H2403 H 0.86974 0.39087 0.67085 0.0
H2404 H 0.86391 0.35633 0.84486 0.0
H2405 H 0.85046 0.35379 0.94882 0.0
C2406 C 0.85069 0.59537 0.2666 0.0
C2407 C 0.86224 0.58882 0.19274 0.0
C2408 C 0.84544 0.60366 0.06034 0.0
C2409 C 0.83625 0.61279 0.13555 0.0
N2410 N 0.8282 0.61633 0.30858 0.0
N2411 N 0.87004 0.58541 0.01857 0.0
C2412 C 0.83809 0.60805 0.23822 0.0
C2413 C 0.8592 0.59233 0.08908 0.0
N2414 N 0.85207 0.58976 0.36382 0.0
N2415 N 0.84111 0.60609 0.96163 0.0
H2416 H 0.87932 0.57616 0.03712 0.0
H2417 H 0.87022 0.58905 0.94321 0.0
H2418 H 0.83106 0.61434 0.9396 0.0
H2419 H 0.84632 0.59892 0.90247 0.0
H2420 H 0.84336 0.59301 0.42061 0.0
H2421 H 0.86136 0.58074 0.38667 0.0
H2422 H 0.83014 0.61543 0.38582 0.0
H2423 H 0.81798 0.62443 0.28797 0.0
C2424 C 0.35162 0.39878 0.48018 0.0
C2425 C 0.33739 0.39186 0.53359 0.0
C2426 C 0.34531 0.41007 0.67947 0.0
C2427 C 0.36157 0.41379 0.63337 0.0
N2428 N 0.38046 0.41107 0.48866 0.0
N2429 N 0.31937 0.39181 0.68066 0.0
C2430 C 0.36469 0.40816 0.53278 0.0
C2431 C 0.33363 0.39809 0.63166 0.0
N2432 N 0.35251 0.39633 0.37866 0.0
N2433 N 0.34131 0.4175 0.7699 0.0
H2434 H 0.3102 0.38395 0.64466 0.0
H2435 H 0.31688 0.394 0.75647 0.0
H2436 H 0.3498 0.42582 0.80772 0.0
H2437 H 0.32917 0.41648 0.80403 0.0
H2438 H 0.36184 0.40222 0.33302 0.0
H2439 H 0.34254 0.3901 0.33935 0.0
H2440 H 0.38423 0.40541 0.42089 0.0
H2441 H 0.39008 0.41864 0.52195 0.0
C2442 C 0.3519 0.59014 0.33912 0.0
C2443 C 0.36767 0.59656 0.29617 0.0
C2444 C 0.36064 0.62536 0.36129 0.0
C2445 C 0.3436 0.62001 0.38843 0.0
N2446 N 0.3221 0.59688 0.38417 0.0
N2447 N 0.38296 0.62206 0.23643 0.0
C2448 C 0.33888 0.60225 0.37215 0.0
C2449 C 0.37069 0.61473 0.29752 0.0
N2450 N 0.3495 0.57272 0.3529 0.0
N2451 N 0.36764 0.64031 0.39931 0.0
H2452 H 0.38964 0.61492 0.182 0.0
H2453 H 0.38472 0.63549 0.23155 0.0
H2454 H 0.36149 0.64761 0.45509 0.0
H2455 H 0.38048 0.64401 0.38527 0.0
H2456 H 0.33903 0.56767 0.39332 0.0
H2457 H 0.35867 0.56342 0.33269 0.0
H2458 H 0.31786 0.58452 0.36303 0.0
H2459 H 0.31211 0.60509 0.40666 0.0
C2460 C 0.15789 0.58863 0.22562 0.0
C2461 C 0.14171 0.58784 0.17356 0.0
C2462 C 0.15463 0.60446 0.03324 0.0
C2463 C 0.16941 0.60764 0.09264 0.0
N2464 N 0.18825 0.59808 0.22387 0.0
N2465 N 0.12501 0.5942 0.02364 0.0
C2466 C 0.17205 0.5981 0.18207 0.0
C2467 C 0.14033 0.59522 0.07509 0.0
N2468 N 0.15926 0.58167 0.31982 0.0
N2469 N 0.15453 0.61027 0.93612 0.0
H2470 H 0.11472 0.58651 0.04733 0.0
H2471 H 0.12225 0.60121 0.95871 0.0
H2472 H 0.16527 0.61659 0.90488 0.0
H2473 H 0.14485 0.60737 0.88403 0.0
H2474 H 0.16999 0.58344 0.3664 0.0
H2475 H 0.14924 0.57474 0.35418 0.0
H2476 H 0.1918 0.59052 0.28536 0.0
H2477 H 0.19857 0.60477 0.19055 0.0
C2478 C 0.16448 0.39264 0.74841 0.0
C2479 C 0.17083 0.38915 0.84734 0.0
C2480 C 0.14735 0.40685 0.91555 0.0
C2481 C 0.14214 0.4119 0.81694 0.0
N2482 N 0.14895 0.41263 0.6399 0.0
N2483 N 0.17129 0.39802 0.02154 0.0
C2484 C 0.15205 0.40611 0.7337 0.0
C2485 C 0.16352 0.39831 0.92931 0.0
N2486 N 0.1691 0.38233 0.66926 0.0
N2487 N 0.13631 0.4085 0.99523 0.0
H2488 H 0.18322 0.39202 0.03422 0.0
H2489 H 0.1668 0.40544 0.08186 0.0
H2490 H 0.12336 0.41194 0.9867 0.0
H2491 H 0.13921 0.40383 0.06688 0.0
H2492 H 0.16345 0.38336 0.59825 0.0
H2493 H 0.17705 0.37154 0.67655 0.0
H2494 H 0.15686 0.40982 0.57828 0.0
H2495 H 0.13956 0.42207 0.62584 0.0
loop_
_geom_bond_atom_site_label_1
_geom_bond_atom_site_label_2
_geom_bond_distance
_geom_bond_site_symmetry_2
_ccdc_geom_bond_type
C0 C1 1.351 . S
C0 N3 1.368 . S
C0 H5 0.931 . S
C1 C0 1.351 . S
C1 N2 1.373 . S
C1 H29 0.930 . S
N2 C1 1.373 . S
N2 C4 1.340 . S
N3 C0 1.368 . S
N3 C4 1.321 . S
N3 Co6 2.135 . S
C4 N2 1.340 . S
C4 N3 1.321 . S
C4 H28 0.930 . S
H5 C0 0.931 . S
Co6 N3 2.135 . S
Co6 N9 2.121 1_554 S
Co6 O14 2.055 . S
Co6 O17 2.039 . S
Co6 N20 2.140 . S
C7 O8 1.227 . S
C7 O17 1.265 . S
O8 C7 1.227 . S
N9 Co6 2.121 1_556 S
N9 C11 1.375 . S
N9 C12 1.313 . S
C10 C11 1.338 . S
C10 N13 1.377 . S
C10 H30 0.930 . S
C11 N9 1.375 . S
C11 C10 1.338 . S
C11 H15 0.931 . S
C12 N9 1.313 . S
C12 N13 1.344 . S
C12 H16 0.930 . S
N13 C10 1.377 . S
N13 C12 1.344 . S
O14 Co6 2.055 . S
O14 C18 1.253 . S
H15 C11 0.931 . S
H16 C12 0.930 . S
O17 Co6 2.039 . S
O17 C7 1.265 . S
C18 O14 1.253 . S
C18 O19 1.227 . S
O19 C18 1.227 . S
N20 Co6 2.140 . S
N20 C23 1.346 . S
N20 C24 1.347 . S
C21 C22 1.387 . S
C21 C25 1.389 1_554 S
C22 C21 1.387 . S
C22 C23 1.369 . S
C22 H31 0.929 . S
C23 N20 1.346 . S
C23 C22 1.369 . S
C23 H26 0.928 . S
C24 N20 1.347 . S
C24 C25 1.371 1_554 S
C24 H27 0.928 1_554 S
C25 C21 1.389 1_556 S
C25 C24 1.371 1_556 S
C25 H32 0.932 . S
H26 C23 0.928 . S
H27 C24 0.928 1_556 S
H28 C4 0.930 . S
H29 C1 0.930 . S
H30 C10 0.930 . S
H31 C22 0.929 . S
H32 C25 0.932 . S
C33 C34 1.351 . S
C33 N36 1.368 . S
C33 H38 0.931 . S
C34 C33 1.351 . S
C34 N35 1.373 . S
C34 H62 0.930 . S
N35 C34 1.373 . S
N35 C37 1.340 . S
N36 C33 1.368 . S
N36 C37 1.321 . S
N36 Co39 2.135 . S
C37 N35 1.340 . S
C37 N36 1.321 . S
C37 H61 0.930 . S
H38 C33 0.931 . S
Co39 N36 2.135 . S
Co39 N42 2.121 . S
Co39 O47 2.055 . S
Co39 O50 2.039 . S
Co39 N53 2.140 . S
C40 O41 1.227 . S
C40 O50 1.265 . S
O41 C40 1.227 . S
N42 Co39 2.121 . S
N42 C44 1.375 . S
N42 C45 1.313 . S
C43 C44 1.338 . S
C43 N46 1.377 . S
C43 H63 0.930 . S
C44 N42 1.375 . S
C44 C43 1.338 . S
C44 H48 0.931 . S
C45 N42 1.313 . S
C45 N46 1.344 . S
C45 H49 0.930 . S
N46 C43 1.377 . S
N46 C45 1.344 . S
O47 Co39 2.055 . S
O47 C51 1.253 . S
H48 C44 0.931 . S
H49 C45 0.930 . S
O50 Co39 2.039 . S
O50 C40 1.265 . S
C51 O47 1.253 . S
C51 O52 1.227 . S
O52 C51 1.227 . S
N53 Co39 2.140 . S
N53 C56 1.346 . S
N53 C57 1.345 . S
C54 C55 1.387 . S
C54 C58 1.391 . S
C55 C54 1.387 . S
C55 C56 1.369 . S
C55 H64 0.929 . S
C56 N53 1.346 . S
C56 C55 1.369 . S
C56 H59 0.928 . S
C57 N53 1.345 . S
C57 C58 1.371 . S
C57 H60 0.931 . S
C58 C54 1.391 . S
C58 C57 1.371 . S
C58 H65 0.930 . S
H59 C56 0.928 . S
H60 C57 0.931 . S
H61 C37 0.930 . S
H62 C34 0.930 . S
H63 C43 0.930 . S
H64 C55 0.929 . S
H65 C58 0.930 . S
C66 C67 1.351 . S
C66 N69 1.368 . S
C66 H71 0.931 . S
C67 C66 1.351 . S
C67 N68 1.373 . S
C67 H95 0.930 . S
N68 C67 1.373 . S
N68 C70 1.340 . S
N69 C66 1.368 . S
N69 C70 1.321 . S
N69 Co72 2.135 . S
C70 N68 1.340 . S
C70 N69 1.321 . S
C70 H94 0.930 . S
H71 C66 0.931 . S
Co72 N69 2.135 . S
Co72 N75 2.121 . S
Co72 O80 2.055 . S
Co72 O83 2.039 . S
Co72 N86 2.140 . S
C73 O74 1.227 . S
C73 O83 1.265 . S
O74 C73 1.227 . S
N75 Co72 2.121 . S
N75 C77 1.375 . S
N75 C78 1.313 . S
C76 C77 1.338 . S
C76 N79 1.377 . S
C76 H96 0.930 . S
C77 N75 1.375 . S
C77 C76 1.338 . S
C77 H81 0.931 . S
C78 N75 1.313 . S
C78 N79 1.344 . S
C78 H82 0.930 . S
N79 C76 1.377 . S
N79 C78 1.344 . S
O80 Co72 2.055 . S
O80 C84 1.253 . S
H81 C77 0.931 . S
H82 C78 0.930 . S
O83 Co72 2.039 . S
O83 C73 1.265 . S
C84 O80 1.253 . S
C84 O85 1.227 . S
O85 C84 1.227 . S
N86 Co72 2.140 . S
N86 C89 1.346 . S
N86 C90 1.345 . S
C87 C88 1.387 . S
C87 C91 1.391 . S
C88 C87 1.387 . S
C88 C89 1.369 . S
C88 H97 0.929 . S
C89 N86 1.346 . S
C89 C88 1.369 . S
C89 H92 0.928 . S
C90 N86 1.345 . S
C90 C91 1.371 . S
C90 H93 0.931 . S
C91 C87 1.391 . S
C91 C90 1.371 . S
C91 H98 0.930 . S
H92 C89 0.928 . S
H93 C90 0.931 . S
H94 C70 0.930 . S
H95 C67 0.930 . S
H96 C76 0.930 . S
H97 C88 0.929 . S
H98 C91 0.930 . S
C99 C100 1.340 1_556 S
C99 N102 1.370 . S
C99 H104 0.938 . S
C100 C99 1.340 1_554 S
C100 N101 1.373 . S
C100 H128 0.930 . S
N101 C100 1.373 . S
N101 C103 1.340 . S
N102 C99 1.370 . S
N102 C103 1.321 1_556 S
N102 Co105 2.135 . S
C103 N101 1.340 . S
C103 N102 1.321 1_554 S
C103 H127 0.930 . S
H104 C99 0.938 . S
Co105 N102 2.135 . S
Co105 N108 2.121 . S
Co105 O113 2.055 . S
Co105 O116 2.039 . S
Co105 N119 2.140 . S
C106 O107 1.227 . S
C106 O116 1.265 . S
O107 C106 1.227 . S
N108 Co105 2.121 . S
N108 C110 1.375 . S
N108 C111 1.313 . S
C109 C110 1.338 . S
C109 N112 1.377 . S
C109 H129 0.930 . S
C110 N108 1.375 . S
C110 C109 1.338 . S
C110 H114 0.931 . S
C111 N108 1.313 . S
C111 N112 1.344 . S
C111 H115 0.930 . S
N112 C109 1.377 . S
N112 C111 1.344 . S
O113 Co105 2.055 . S
O113 C117 1.253 . S
H114 C110 0.931 . S
H115 C111 0.930 . S
O116 Co105 2.039 . S
O116 C106 1.265 . S
C117 O113 1.253 . S
C117 O118 1.227 . S
O118 C117 1.227 . S
N119 Co105 2.140 . S
N119 C122 1.346 . S
N119 C123 1.345 . S
C120 C121 1.387 . S
C120 C124 1.391 . S
C121 C120 1.387 . S
C121 C122 1.369 . S
C121 H130 0.929 . S
C122 N119 1.346 . S
C122 C121 1.369 . S
C122 H125 0.928 . S
C123 N119 1.345 . S
C123 C124 1.371 . S
C123 H126 0.931 . S
C124 C120 1.391 . S
C124 C123 1.371 . S
C124 H131 0.930 . S
H125 C122 0.928 . S
H126 C123 0.931 . S
H127 C103 0.930 . S
H128 C100 0.930 . S
H129 C109 0.930 . S
H130 C121 0.929 . S
H131 C124 0.930 . S
C132 C133 1.351 . S
C132 N135 1.368 . S
C132 H137 0.931 . S
C133 C132 1.351 . S
C133 N134 1.373 . S
C133 H161 0.930 . S
N134 C133 1.373 . S
N134 C136 1.340 . S
N135 C132 1.368 . S
N135 C136 1.321 . S
N135 Co138 2.135 . S
C136 N134 1.340 . S
C136 N135 1.321 . S
C136 H160 0.930 . S
H137 C132 0.931 . S
Co138 N135 2.135 . S
Co138 N141 2.121 1_556 S
Co138 O146 2.055 . S
Co138 O149 2.039 . S
Co138 N152 2.140 . S
C139 O140 1.227 . S
C139 O149 1.265 . S
O140 C139 1.227 . S
N141 Co138 2.121 1_554 S
N141 C143 1.375 . S
N141 C144 1.313 . S
C142 C143 1.338 . S
C142 N145 1.377 . S
C142 H162 0.930 . S
C143 N141 1.375 . S
C143 C142 1.338 . S
C143 H147 0.931 . S
C144 N141 1.313 . S
C144 N145 1.344 . S
C144 H148 0.930 . S
N145 C142 1.377 . S
N145 C144 1.344 . S
O146 Co138 2.055 . S
O146 C150 1.253 . S
H147 C143 0.931 . S
H148 C144 0.930 . S
O149 Co138 2.039 . S
O149 C139 1.265 . S
C150 O146 1.253 . S
C150 O151 1.227 . S
O151 C150 1.227 . S
N152 Co138 2.140 . S
N152 C155 1.346 . S
N152 C156 1.347 . S
C153 C154 1.387 . S
C153 C157 1.389 1_556 S
C154 C153 1.387 . S
C154 C155 1.369 . S
C154 H163 0.929 . S
C155 N152 1.346 . S
C155 C154 1.369 . S
C155 H158 0.928 . S
C156 N152 1.347 . S
C156 C157 1.371 1_556 S
C156 H159 0.928 1_556 S
C157 C153 1.389 1_554 S
C157 C156 1.371 1_554 S
C157 H164 0.932 . S
H158 C155 0.928 . S
H159 C156 0.928 1_554 S
H160 C136 0.930 . S
H161 C133 0.930 . S
H162 C142 0.930 . S
H163 C154 0.929 . S
H164 C157 0.932 . S
C165 C166 1.340 1_554 S
C165 N168 1.370 . S
C165 H170 0.938 . S
C166 C165 1.340 1_556 S
C166 N167 1.373 . S
C166 H194 0.930 . S
N167 C166 1.373 . S
N167 C169 1.340 . S
N168 C165 1.370 . S
N168 C169 1.321 1_554 S
N168 Co171 2.135 . S
C169 N167 1.340 . S
C169 N168 1.321 1_556 S
C169 H193 0.930 . S
H170 C165 0.938 . S
Co171 N168 2.135 . S
Co171 N174 2.121 . S
Co171 O179 2.055 . S
Co171 O182 2.039 . S
Co171 N185 2.140 . S
C172 O173 1.227 . S
C172 O182 1.265 . S
O173 C172 1.227 . S
N174 Co171 2.121 . S
N174 C176 1.375 . S
N174 C177 1.313 . S
C175 C176 1.338 . S
C175 N178 1.377 . S
C175 H195 0.930 . S
C176 N174 1.375 . S
C176 C175 1.338 . S
C176 H180 0.931 . S
C177 N174 1.313 . S
C177 N178 1.344 . S
C177 H181 0.930 . S
N178 C175 1.377 . S
N178 C177 1.344 . S
O179 Co171 2.055 . S
O179 C183 1.253 . S
H180 C176 0.931 . S
H181 C177 0.930 . S
O182 Co171 2.039 . S
O182 C172 1.265 . S
C183 O179 1.253 . S
C183 O184 1.227 . S
O184 C183 1.227 . S
N185 Co171 2.140 . S
N185 C188 1.346 . S
N185 C189 1.345 . S
C186 C187 1.387 . S
C186 C190 1.391 . S
C187 C186 1.387 . S
C187 C188 1.369 . S
C187 H196 0.929 . S
C188 N185 1.346 . S
C188 C187 1.369 . S
C188 H191 0.928 . S
C189 N185 1.345 . S
C189 C190 1.371 . S
C189 H192 0.931 . S
C190 C186 1.391 . S
C190 C189 1.371 . S
C190 H197 0.930 . S
H191 C188 0.928 . S
H192 C189 0.931 . S
H193 C169 0.930 . S
H194 C166 0.930 . S
H195 C175 0.930 . S
H196 C187 0.929 . S
H197 C190 0.930 . S
C198 C199 1.351 . S
C198 N201 1.368 . S
C198 H203 0.931 . S
C199 C198 1.351 . S
C199 N200 1.373 . S
C199 H227 0.930 . S
N200 C199 1.373 . S
N200 C202 1.340 . S
N201 C198 1.368 . S
N201 C202 1.321 . S
N201 Co204 2.135 . S
C202 N200 1.340 . S
C202 N201 1.321 . S
C202 H226 0.930 . S
H203 C198 0.931 . S
Co204 N201 2.135 . S
Co204 N207 2.121 . S
Co204 O212 2.055 . S
Co204 O215 2.039 . S
Co204 N218 2.140 . S
C205 O206 1.227 . S
C205 O215 1.265 . S
O206 C205 1.227 . S
N207 Co204 2.121 . S
N207 C209 1.375 . S
N207 C210 1.313 . S
C208 C209 1.338 . S
C208 N211 1.377 . S
C208 H228 0.930 . S
C209 N207 1.375 . S
C209 C208 1.338 . S
C209 H213 0.931 . S
C210 N207 1.313 . S
C210 N211 1.344 . S
C210 H214 0.930 . S
N211 C208 1.377 . S
N211 C210 1.344 . S
O212 Co204 2.055 . S
O212 C216 1.253 . S
H213 C209 0.931 . S
H214 C210 0.930 . S
O215 Co204 2.039 . S
O215 C205 1.265 . S
C216 O212 1.253 . S
C216 O217 1.227 . S
O217 C216 1.227 . S
N218 Co204 2.140 . S
N218 C221 1.346 . S
N218 C222 1.345 . S
C219 C220 1.387 . S
C219 C223 1.391 . S
C220 C219 1.387 . S
C220 C221 1.369 . S
C220 H229 0.929 . S
C221 N218 1.346 . S
C221 C220 1.369 . S
C221 H224 0.928 . S
C222 N218 1.345 . S
C222 C223 1.371 . S
C222 H225 0.931 . S
C223 C219 1.391 . S
C223 C222 1.371 . S
C223 H230 0.930 . S
H224 C221 0.928 . S
H225 C222 0.931 . S
H226 C202 0.930 . S
H227 C199 0.930 . S
H228 C208 0.930 . S
H229 C220 0.929 . S
H230 C223 0.930 . S
C231 C232 1.351 . S
C231 N234 1.368 . S
C231 H236 0.931 . S
C232 C231 1.351 . S
C232 N233 1.373 . S
C232 H260 0.930 . S
N233 C232 1.373 . S
N233 C235 1.340 . S
N234 C231 1.368 . S
N234 C235 1.321 . S
N234 Co237 2.135 . S
C235 N233 1.340 . S
C235 N234 1.321 . S
C235 H259 0.930 . S
H236 C231 0.931 . S
Co237 N234 2.135 . S
Co237 N240 2.121 . S
Co237 O245 2.055 . S
Co237 O248 2.039 . S
Co237 N251 2.140 . S
C238 O239 1.227 . S
C238 O248 1.265 . S
O239 C238 1.227 . S
N240 Co237 2.121 . S
N240 C242 1.375 . S
N240 C243 1.313 . S
C241 C242 1.338 . S
C241 N244 1.377 . S
C241 H261 0.930 . S
C242 N240 1.375 . S
C242 C241 1.338 . S
C242 H246 0.931 . S
C243 N240 1.313 . S
C243 N244 1.344 . S
C243 H247 0.930 . S
N244 C241 1.377 . S
N244 C243 1.344 . S
O245 Co237 2.055 . S
O245 C249 1.253 . S
H246 C242 0.931 . S
H247 C243 0.930 . S
O248 Co237 2.039 . S
O248 C238 1.265 . S
C249 O245 1.253 . S
C249 O250 1.227 . S
O250 C249 1.227 . S
N251 Co237 2.140 . S
N251 C254 1.346 . S
N251 C255 1.345 . S
C252 C253 1.387 . S
C252 C256 1.391 . S
C253 C252 1.387 . S
C253 C254 1.369 . S
C253 H262 0.929 . S
C254 N251 1.346 . S
C254 C253 1.369 . S
C254 H257 0.928 . S
C255 N251 1.345 . S
C255 C256 1.371 . S
C255 H258 0.931 . S
C256 C252 1.391 . S
C256 C255 1.371 . S
C256 H263 0.930 . S
H257 C254 0.928 . S
H258 C255 0.931 . S
H259 C235 0.930 . S
H260 C232 0.930 . S
H261 C241 0.930 . S
H262 C253 0.929 . S
H263 C256 0.930 . S
C264 C265 1.351 . S
C264 N267 1.368 . S
C264 H269 0.931 . S
C265 C264 1.351 . S
C265 N266 1.373 . S
C265 H293 0.930 . S
N266 C265 1.373 . S
N266 C268 1.340 . S
N267 C264 1.368 . S
N267 C268 1.321 . S
N267 Co270 2.135 . S
C268 N266 1.340 . S
C268 N267 1.321 . S
C268 H292 0.930 . S
H269 C264 0.931 . S
Co270 N267 2.135 . S
Co270 N273 2.121 1_556 S
Co270 O278 2.055 . S
Co270 O281 2.039 . S
Co270 N284 2.140 . S
C271 O272 1.227 . S
C271 O281 1.265 . S
O272 C271 1.227 . S
N273 Co270 2.121 1_554 S
N273 C275 1.375 . S
N273 C276 1.313 . S
C274 C275 1.338 . S
C274 N277 1.377 . S
C274 H294 0.930 . S
C275 N273 1.375 . S
C275 C274 1.338 . S
C275 H279 0.931 . S
C276 N273 1.313 . S
C276 N277 1.344 . S
C276 H280 0.930 . S
N277 C274 1.377 . S
N277 C276 1.344 . S
O278 Co270 2.055 . S
O278 C282 1.253 . S
H279 C275 0.931 . S
H280 C276 0.930 . S
O281 Co270 2.039 . S
O281 C271 1.265 . S
C282 O278 1.253 . S
C282 O283 1.227 . S
O283 C282 1.227 . S
N284 Co270 2.140 . S
N284 C287 1.346 . S
N284 C288 1.347 . S
C285 C286 1.387 . S
C285 C289 1.389 1_556 S
C286 C285 1.387 . S
C286 C287 1.369 . S
C286 H295 0.929 . S
C287 N284 1.346 . S
C287 C286 1.369 . S
C287 H290 0.928 . S
C288 N284 1.347 . S
C288 C289 1.371 1_556 S
C288 H291 0.928 1_556 S
C289 C285 1.389 1_554 S
C289 C288 1.371 1_554 S
C289 H296 0.932 . S
H290 C287 0.928 . S
H291 C288 0.928 1_554 S
H292 C268 0.930 . S
H293 C265 0.930 . S
H294 C274 0.930 . S
H295 C286 0.929 . S
H296 C289 0.932 . S
C297 C298 1.351 . S
C297 N300 1.368 . S
C297 H302 0.931 . S
C298 C297 1.351 . S
C298 N299 1.373 . S
C298 H326 0.930 . S
N299 C298 1.373 . S
N299 C301 1.340 . S
N300 C297 1.368 . S
N300 C301 1.321 . S
N300 Co303 2.135 . S
C301 N299 1.340 . S
C301 N300 1.321 . S
C301 H325 0.930 . S
H302 C297 0.931 . S
Co303 N300 2.135 . S
Co303 N306 2.121 . S
Co303 O311 2.055 . S
Co303 O314 2.039 . S
Co303 N317 2.140 . S
C304 O305 1.227 . S
C304 O314 1.265 . S
O305 C304 1.227 . S
N306 Co303 2.121 . S
N306 C308 1.375 . S
N306 C309 1.313 . S
C307 C308 1.338 . S
C307 N310 1.377 . S
C307 H327 0.930 . S
C308 N306 1.375 . S
C308 C307 1.338 . S
C308 H312 0.931 . S
C309 N306 1.313 . S
C309 N310 1.344 . S
C309 H313 0.930 . S
N310 C307 1.377 . S
N310 C309 1.344 . S
O311 Co303 2.055 . S
O311 C315 1.253 . S
H312 C308 0.931 . S
H313 C309 0.930 . S
O314 Co303 2.039 . S
O314 C304 1.265 . S
C315 O311 1.253 . S
C315 O316 1.227 . S
O316 C315 1.227 . S
N317 Co303 2.140 . S
N317 C320 1.346 . S
N317 C321 1.345 . S
C318 C319 1.387 . S
C318 C322 1.391 . S
C319 C318 1.387 . S
C319 C320 1.369 . S
C319 H328 0.929 . S
C320 N317 1.346 . S
C320 C319 1.369 . S
C320 H323 0.928 . S
C321 N317 1.345 . S
C321 C322 1.371 . S
C321 H324 0.931 . S
C322 C318 1.391 . S
C322 C321 1.371 . S
C322 H329 0.930 . S
H323 C320 0.928 . S
H324 C321 0.931 . S
H325 C301 0.930 . S
H326 C298 0.930 . S
H327 C307 0.930 . S
H328 C319 0.929 . S
H329 C322 0.930 . S
C330 C331 1.351 . S
C330 N333 1.368 . S
C330 H335 0.931 . S
C331 C330 1.351 . S
C331 N332 1.373 . S
C331 H359 0.930 . S
N332 C331 1.373 . S
N332 C334 1.340 . S
N333 C330 1.368 . S
N333 C334 1.321 . S
N333 Co336 2.135 . S
C334 N332 1.340 . S
C334 N333 1.321 . S
C334 H358 0.930 . S
H335 C330 0.931 . S
Co336 N333 2.135 . S
Co336 N339 2.121 . S
Co336 O344 2.055 . S
Co336 O347 2.039 . S
Co336 N350 2.140 . S
C337 O338 1.227 . S
C337 O347 1.265 . S
O338 C337 1.227 . S
N339 Co336 2.121 . S
N339 C341 1.375 . S
N339 C342 1.313 . S
C340 C341 1.338 . S
C340 N343 1.377 . S
C340 H360 0.930 . S
C341 N339 1.375 . S
C341 C340 1.338 . S
C341 H345 0.931 . S
C342 N339 1.313 . S
C342 N343 1.344 . S
C342 H346 0.930 . S
N343 C340 1.377 . S
N343 C342 1.344 . S
O344 Co336 2.055 . S
O344 C348 1.253 . S
H345 C341 0.931 . S
H346 C342 0.930 . S
O347 Co336 2.039 . S
O347 C337 1.265 . S
C348 O344 1.253 . S
C348 O349 1.227 . S
O349 C348 1.227 . S
N350 Co336 2.140 . S
N350 C353 1.346 . S
N350 C354 1.345 . S
C351 C352 1.387 . S
C351 C355 1.391 . S
C352 C351 1.387 . S
C352 C353 1.369 . S
C352 H361 0.929 . S
C353 N350 1.346 . S
C353 C352 1.369 . S
C353 H356 0.928 . S
C354 N350 1.345 . S
C354 C355 1.371 . S
C354 H357 0.931 . S
C355 C351 1.391 . S
C355 C354 1.371 . S
C355 H362 0.930 . S
H356 C353 0.928 . S
H357 C354 0.931 . S
H358 C334 0.930 . S
H359 C331 0.930 . S
H360 C340 0.930 . S
H361 C352 0.929 . S
H362 C355 0.930 . S
C363 C364 1.340 1_554 S
C363 N366 1.370 . S
C363 H368 0.938 . S
C364 C363 1.340 1_556 S
C364 N365 1.373 . S
C364 H392 0.930 . S
N365 C364 1.373 . S
N365 C367 1.340 . S
N366 C363 1.370 . S
N366 C367 1.321 1_554 S
N366 Co369 2.135 . S
C367 N365 1.340 . S
C367 N366 1.321 1_556 S
C367 H391 0.930 . S
H368 C363 0.938 . S
Co369 N366 2.135 . S
Co369 N372 2.121 . S
Co369 O377 2.055 . S
Co369 O380 2.039 . S
Co369 N383 2.140 . S
C370 O371 1.227 . S
C370 O380 1.265 . S
O371 C370 1.227 . S
N372 Co369 2.121 . S
N372 C374 1.375 . S
N372 C375 1.313 . S
C373 C374 1.338 . S
C373 N376 1.377 . S
C373 H393 0.930 . S
C374 N372 1.375 . S
C374 C373 1.338 . S
C374 H378 0.931 . S
C375 N372 1.313 . S
C375 N376 1.344 . S
C375 H379 0.930 . S
N376 C373 1.377 . S
N376 C375 1.344 . S
O377 Co369 2.055 . S
O377 C381 1.253 . S
H378 C374 0.931 . S
H379 C375 0.930 . S
O380 Co369 2.039 . S
O380 C370 1.265 . S
C381 O377 1.253 . S
C381 O382 1.227 . S
O382 C381 1.227 . S
N383 Co369 2.140 . S
N383 C386 1.346 . S
N383 C387 1.345 . S
C384 C385 1.387 . S
C384 C388 1.391 . S
C385 C384 1.387 . S
C385 C386 1.369 . S
C385 H394 0.929 . S
C386 N383 1.346 . S
C386 C385 1.369 . S
C386 H389 0.928 . S
C387 N383 1.345 . S
C387 C388 1.371 . S
C387 H390 0.931 . S
C388 C384 1.391 . S
C388 C387 1.371 . S
C388 H395 0.930 . S
H389 C386 0.928 . S
H390 C387 0.931 . S
H391 C367 0.930 . S
H392 C364 0.930 . S
H393 C373 0.930 . S
H394 C385 0.929 . S
H395 C388 0.930 . S
C396 C397 1.351 . S
C396 N399 1.368 . S
C396 H401 0.931 . S
C397 C396 1.351 . S
C397 N398 1.373 . S
C397 H425 0.930 . S
N398 C397 1.373 . S
N398 C400 1.340 . S
N399 C396 1.368 . S
N399 C400 1.321 . S
N399 Co402 2.135 . S
C400 N398 1.340 . S
C400 N399 1.321 . S
C400 H424 0.930 . S
H401 C396 0.931 . S
Co402 N399 2.135 . S
Co402 N405 2.121 1_554 S
Co402 O410 2.055 . S
Co402 O413 2.039 . S
Co402 N416 2.140 . S
C403 O404 1.227 . S
C403 O413 1.265 . S
O404 C403 1.227 . S
N405 Co402 2.121 1_556 S
N405 C407 1.375 . S
N405 C408 1.313 . S
C406 C407 1.338 . S
C406 N409 1.377 . S
C406 H426 0.930 . S
C407 N405 1.375 . S
C407 C406 1.338 . S
C407 H411 0.931 . S
C408 N405 1.313 . S
C408 N409 1.344 . S
C408 H412 0.930 . S
N409 C406 1.377 . S
N409 C408 1.344 . S
O410 Co402 2.055 . S
O410 C414 1.253 . S
H411 C407 0.931 . S
H412 C408 0.930 . S
O413 Co402 2.039 . S
O413 C403 1.265 . S
C414 O410 1.253 . S
C414 O415 1.227 . S
O415 C414 1.227 . S
N416 Co402 2.140 . S
N416 C419 1.346 . S
N416 C420 1.347 . S
C417 C418 1.387 . S
C417 C421 1.389 1_554 S
C418 C417 1.387 . S
C418 C419 1.369 . S
C418 H427 0.929 . S
C419 N416 1.346 . S
C419 C418 1.369 . S
C419 H422 0.928 . S
C420 N416 1.347 . S
C420 C421 1.371 1_554 S
C420 H423 0.928 1_554 S
C421 C417 1.389 1_556 S
C421 C420 1.371 1_556 S
C421 H428 0.932 . S
H422 C419 0.928 . S
H423 C420 0.928 1_556 S
H424 C400 0.930 . S
H425 C397 0.930 . S
H426 C406 0.930 . S
H427 C418 0.929 . S
H428 C421 0.932 . S
C429 C430 1.340 1_556 S
C429 N432 1.370 . S
C429 H434 0.938 . S
C430 C429 1.340 1_554 S
C430 N431 1.373 . S
C430 H458 0.930 . S
N431 C430 1.373 . S
N431 C433 1.340 . S
N432 C429 1.370 . S
N432 C433 1.321 1_556 S
N432 Co435 2.135 . S
C433 N431 1.340 . S
C433 N432 1.321 1_554 S
C433 H457 0.930 . S
H434 C429 0.938 . S
Co435 N432 2.135 . S
Co435 N438 2.121 . S
Co435 O443 2.055 . S
Co435 O446 2.039 . S
Co435 N449 2.140 . S
C436 O437 1.227 . S
C436 O446 1.265 . S
O437 C436 1.227 . S
N438 Co435 2.121 . S
N438 C440 1.375 . S
N438 C441 1.313 . S
C439 C440 1.338 . S
C439 N442 1.377 . S
C439 H459 0.930 . S
C440 N438 1.375 . S
C440 C439 1.338 . S
C440 H444 0.931 . S
C441 N438 1.313 . S
C441 N442 1.344 . S
C441 H445 0.930 . S
N442 C439 1.377 . S
N442 C441 1.344 . S
O443 Co435 2.055 . S
O443 C447 1.253 . S
H444 C440 0.931 . S
H445 C441 0.930 . S
O446 Co435 2.039 . S
O446 C436 1.265 . S
C447 O443 1.253 . S
C447 O448 1.227 . S
O448 C447 1.227 . S
N449 Co435 2.140 . S
N449 C452 1.346 . S
N449 C453 1.345 . S
C450 C451 1.387 . S
C450 C454 1.391 . S
C451 C450 1.387 . S
C451 C452 1.369 . S
C451 H460 0.929 . S
C452 N449 1.346 . S
C452 C451 1.369 . S
C452 H455 0.928 . S
C453 N449 1.345 . S
C453 C454 1.371 . S
C453 H456 0.931 . S
C454 C450 1.391 . S
C454 C453 1.371 . S
C454 H461 0.930 . S
H455 C452 0.928 . S
H456 C453 0.931 . S
H457 C433 0.930 . S
H458 C430 0.930 . S
H459 C439 0.930 . S
H460 C451 0.929 . S
H461 C454 0.930 . S
C462 C463 1.351 . S
C462 N465 1.368 . S
C462 H467 0.931 . S
C463 C462 1.351 . S
C463 N464 1.373 . S
C463 H491 0.930 . S
N464 C463 1.373 . S
N464 C466 1.340 . S
N465 C462 1.368 . S
N465 C466 1.321 . S
N465 Co468 2.135 . S
C466 N464 1.340 . S
C466 N465 1.321 . S
C466 H490 0.930 . S
H467 C462 0.931 . S
Co468 N465 2.135 . S
Co468 N471 2.121 . S
Co468 O476 2.055 . S
Co468 O479 2.039 . S
Co468 N482 2.140 . S
C469 O470 1.227 . S
C469 O479 1.265 . S
O470 C469 1.227 . S
N471 Co468 2.121 . S
N471 C473 1.375 . S
N471 C474 1.313 . S
C472 C473 1.338 . S
C472 N475 1.377 . S
C472 H492 0.930 . S
C473 N471 1.375 . S
C473 C472 1.338 . S
C473 H477 0.931 . S
C474 N471 1.313 . S
C474 N475 1.344 . S
C474 H478 0.930 . S
N475 C472 1.377 . S
N475 C474 1.344 . S
O476 Co468 2.055 . S
O476 C480 1.253 . S
H477 C473 0.931 . S
H478 C474 0.930 . S
O479 Co468 2.039 . S
O479 C469 1.265 . S
C480 O476 1.253 . S
C480 O481 1.227 . S
O481 C480 1.227 . S
N482 Co468 2.140 . S
N482 C485 1.346 . S
N482 C486 1.345 . S
C483 C484 1.387 . S
C483 C487 1.391 . S
C484 C483 1.387 . S
C484 C485 1.369 . S
C484 H493 0.929 . S
C485 N482 1.346 . S
C485 C484 1.369 . S
C485 H488 0.928 . S
C486 N482 1.345 . S
C486 C487 1.371 . S
C486 H489 0.931 . S
C487 C483 1.391 . S
C487 C486 1.371 . S
C487 H494 0.930 . S
H488 C485 0.928 . S
H489 C486 0.931 . S
H490 C466 0.930 . S
H491 C463 0.930 . S
H492 C472 0.930 . S
H493 C484 0.929 . S
H494 C487 0.930 . S
C495 C496 1.351 . S
C495 N498 1.368 . S
C495 H500 0.931 . S
C496 C495 1.351 . S
C496 N497 1.373 . S
C496 H524 0.930 . S
N497 C496 1.373 . S
N497 C499 1.340 . S
N498 C495 1.368 . S
N498 C499 1.321 . S
N498 Co501 2.135 . S
C499 N497 1.340 . S
C499 N498 1.321 . S
C499 H523 0.930 . S
H500 C495 0.931 . S
Co501 N498 2.135 . S
Co501 N504 2.121 . S
Co501 O509 2.055 . S
Co501 O512 2.039 . S
Co501 N515 2.140 . S
C502 O503 1.227 . S
C502 O512 1.265 . S
O503 C502 1.227 . S
N504 Co501 2.121 . S
N504 C506 1.375 . S
N504 C507 1.313 . S
C505 C506 1.338 . S
C505 N508 1.377 . S
C505 H525 0.930 . S
C506 N504 1.375 . S
C506 C505 1.338 . S
C506 H510 0.931 . S
C507 N504 1.313 . S
C507 N508 1.344 . S
C507 H511 0.930 . S
N508 C505 1.377 . S
N508 C507 1.344 . S
O509 Co501 2.055 . S
O509 C513 1.253 . S
H510 C506 0.931 . S
H511 C507 0.930 . S
O512 Co501 2.039 . S
O512 C502 1.265 . S
C513 O509 1.253 . S
C513 O514 1.227 . S
O514 C513 1.227 . S
N515 Co501 2.140 . S
N515 C518 1.346 . S
N515 C519 1.345 . S
C516 C517 1.387 . S
C516 C520 1.391 . S
C517 C516 1.387 . S
C517 C518 1.369 . S
C517 H526 0.929 . S
C518 N515 1.346 . S
C518 C517 1.369 . S
C518 H521 0.928 . S
C519 N515 1.345 . S
C519 C520 1.371 . S
C519 H522 0.931 . S
C520 C516 1.391 . S
C520 C519 1.371 . S
C520 H527 0.930 . S
H521 C518 0.928 . S
H522 C519 0.931 . S
H523 C499 0.930 . S
H524 C496 0.930 . S
H525 C505 0.930 . S
H526 C517 0.929 . S
H527 C520 0.930 . S
C528 C529 1.351 . S
C528 N531 1.368 . S
C528 H533 0.931 . S
C529 C528 1.351 . S
C529 N530 1.373 . S
C529 H557 0.930 . S
N530 C529 1.373 . S
N530 C532 1.340 . S
N531 C528 1.368 . S
N531 C532 1.321 . S
N531 Co534 2.135 . S
C532 N530 1.340 . S
C532 N531 1.321 . S
C532 H556 0.930 . S
H533 C528 0.931 . S
Co534 N531 2.135 . S
Co534 N537 2.121 . S
Co534 O542 2.055 . S
Co534 O545 2.039 . S
Co534 N548 2.140 . S
C535 O536 1.227 . S
C535 O545 1.265 . S
O536 C535 1.227 . S
N537 Co534 2.121 . S
N537 C539 1.375 . S
N537 C540 1.313 . S
C538 C539 1.338 . S
C538 N541 1.377 . S
C538 H558 0.930 . S
C539 N537 1.375 . S
C539 C538 1.338 . S
C539 H543 0.931 . S
C540 N537 1.313 . S
C540 N541 1.344 . S
C540 H544 0.930 . S
N541 C538 1.377 . S
N541 C540 1.344 . S
O542 Co534 2.055 . S
O542 C546 1.253 . S
H543 C539 0.931 . S
H544 C540 0.930 . S
O545 Co534 2.039 . S
O545 C535 1.265 . S
C546 O542 1.253 . S
C546 O547 1.227 . S
O547 C546 1.227 . S
N548 Co534 2.140 . S
N548 C551 1.346 . S
N548 C552 1.345 . S
C549 C550 1.387 . S
C549 C553 1.391 . S
C550 C549 1.387 . S
C550 C551 1.369 . S
C550 H559 0.929 . S
C551 N548 1.346 . S
C551 C550 1.369 . S
C551 H554 0.928 . S
C552 N548 1.345 . S
C552 C553 1.371 . S
C552 H555 0.931 . S
C553 C549 1.391 . S
C553 C552 1.371 . S
C553 H560 0.930 . S
H554 C551 0.928 . S
H555 C552 0.931 . S
H556 C532 0.930 . S
H557 C529 0.930 . S
H558 C538 0.930 . S
H559 C550 0.929 . S
H560 C553 0.930 . S
C561 C562 1.340 1_556 S
C561 N564 1.370 . S
C561 H566 0.938 . S
C562 C561 1.340 1_554 S
C562 N563 1.373 . S
C562 H590 0.930 . S
N563 C562 1.373 . S
N563 C565 1.340 . S
N564 C561 1.370 . S
N564 C565 1.321 1_556 S
N564 Co567 2.135 . S
C565 N563 1.340 . S
C565 N564 1.321 1_554 S
C565 H589 0.930 . S
H566 C561 0.938 . S
Co567 N564 2.135 . S
Co567 N570 2.121 . S
Co567 O575 2.055 . S
Co567 O578 2.039 . S
Co567 N581 2.140 . S
C568 O569 1.227 . S
C568 O578 1.265 . S
O569 C568 1.227 . S
N570 Co567 2.121 . S
N570 C572 1.375 . S
N570 C573 1.313 . S
C571 C572 1.338 . S
C571 N574 1.377 . S
C571 H591 0.930 . S
C572 N570 1.375 . S
C572 C571 1.338 . S
C572 H576 0.931 . S
C573 N570 1.313 . S
C573 N574 1.344 . S
C573 H577 0.930 . S
N574 C571 1.377 . S
N574 C573 1.344 . S
O575 Co567 2.055 . S
O575 C579 1.253 . S
H576 C572 0.931 . S
H577 C573 0.930 . S
O578 Co567 2.039 . S
O578 C568 1.265 . S
C579 O575 1.253 . S
C579 O580 1.227 . S
O580 C579 1.227 . S
N581 Co567 2.140 . S
N581 C584 1.346 . S
N581 C585 1.345 . S
C582 C583 1.387 . S
C582 C586 1.391 . S
C583 C582 1.387 . S
C583 C584 1.369 . S
C583 H592 0.929 . S
C584 N581 1.346 . S
C584 C583 1.369 . S
C584 H587 0.928 . S
C585 N581 1.345 . S
C585 C586 1.371 . S
C585 H588 0.931 . S
C586 C582 1.391 . S
C586 C585 1.371 . S
C586 H593 0.930 . S
H587 C584 0.928 . S
H588 C585 0.931 . S
H589 C565 0.930 . S
H590 C562 0.930 . S
H591 C571 0.930 . S
H592 C583 0.929 . S
H593 C586 0.930 . S
C594 C595 1.351 . S
C594 N597 1.368 . S
C594 H599 0.931 . S
C595 C594 1.351 . S
C595 N596 1.373 . S
C595 H623 0.930 . S
N596 C595 1.373 . S
N596 C598 1.340 . S
N597 C594 1.368 . S
N597 C598 1.321 . S
N597 Co600 2.135 . S
C598 N596 1.340 . S
C598 N597 1.321 . S
C598 H622 0.930 . S
H599 C594 0.931 . S
Co600 N597 2.135 . S
Co600 N603 2.121 1_554 S
Co600 O608 2.055 . S
Co600 O611 2.039 . S
Co600 N614 2.140 . S
C601 O602 1.227 . S
C601 O611 1.265 . S
O602 C601 1.227 . S
N603 Co600 2.121 1_556 S
N603 C605 1.375 . S
N603 C606 1.313 . S
C604 C605 1.338 . S
C604 N607 1.377 . S
C604 H624 0.930 . S
C605 N603 1.375 . S
C605 C604 1.338 . S
C605 H609 0.931 . S
C606 N603 1.313 . S
C606 N607 1.344 . S
C606 H610 0.930 . S
N607 C604 1.377 . S
N607 C606 1.344 . S
O608 Co600 2.055 . S
O608 C612 1.253 . S
H609 C605 0.931 . S
H610 C606 0.930 . S
O611 Co600 2.039 . S
O611 C601 1.265 . S
C612 O608 1.253 . S
C612 O613 1.227 . S
O613 C612 1.227 . S
N614 Co600 2.140 . S
N614 C617 1.346 . S
N614 C618 1.347 . S
C615 C616 1.387 . S
C615 C619 1.389 1_554 S
C616 C615 1.387 . S
C616 C617 1.369 . S
C616 H625 0.929 . S
C617 N614 1.346 . S
C617 C616 1.369 . S
C617 H620 0.928 . S
C618 N614 1.347 . S
C618 C619 1.371 1_554 S
C618 H621 0.928 1_554 S
C619 C615 1.389 1_556 S
C619 C618 1.371 1_556 S
C619 H626 0.932 . S
H620 C617 0.928 . S
H621 C618 0.928 1_556 S
H622 C598 0.930 . S
H623 C595 0.930 . S
H624 C604 0.930 . S
H625 C616 0.929 . S
H626 C619 0.932 . S
C627 C628 1.351 . S
C627 N630 1.368 . S
C627 H632 0.931 . S
C628 C627 1.351 . S
C628 N629 1.373 . S
C628 H656 0.930 . S
N629 C628 1.373 . S
N629 C631 1.340 . S
N630 C627 1.368 . S
N630 C631 1.321 . S
N630 Co633 2.135 . S
C631 N629 1.340 . S
C631 N630 1.321 . S
C631 H655 0.930 . S
H632 C627 0.931 . S
Co633 N630 2.135 . S
Co633 N636 2.121 . S
Co633 O641 2.055 . S
Co633 O644 2.039 . S
Co633 N647 2.140 . S
C634 O635 1.227 . S
C634 O644 1.265 . S
O635 C634 1.227 . S
N636 Co633 2.121 . S
N636 C638 1.375 . S
N636 C639 1.313 . S
C637 C638 1.338 . S
C637 N640 1.377 . S
C637 H657 0.930 . S
C638 N636 1.375 . S
C638 C637 1.338 . S
C638 H642 0.931 . S
C639 N636 1.313 . S
C639 N640 1.344 . S
C639 H643 0.930 . S
N640 C637 1.377 . S
N640 C639 1.344 . S
O641 Co633 2.055 . S
O641 C645 1.253 . S
H642 C638 0.931 . S
H643 C639 0.930 . S
O644 Co633 2.039 . S
O644 C634 1.265 . S
C645 O641 1.253 . S
C645 O646 1.227 . S
O646 C645 1.227 . S
N647 Co633 2.140 . S
N647 C650 1.346 . S
N647 C651 1.345 . S
C648 C649 1.387 . S
C648 C652 1.391 . S
C649 C648 1.387 . S
C649 C650 1.369 . S
C649 H658 0.929 . S
C650 N647 1.346 . S
C650 C649 1.369 . S
C650 H653 0.928 . S
C651 N647 1.345 . S
C651 C652 1.371 . S
C651 H654 0.931 . S
C652 C648 1.391 . S
C652 C651 1.371 . S
C652 H659 0.930 . S
H653 C650 0.928 . S
H654 C651 0.931 . S
H655 C631 0.930 . S
H656 C628 0.930 . S
H657 C637 0.930 . S
H658 C649 0.929 . S
H659 C652 0.930 . S
C660 C661 1.351 . S
C660 N663 1.368 . S
C660 H665 0.931 . S
C661 C660 1.351 . S
C661 N662 1.373 . S
C661 H689 0.930 . S
N662 C661 1.373 . S
N662 C664 1.340 . S
N663 C660 1.368 . S
N663 C664 1.321 . S
N663 Co666 2.135 . S
C664 N662 1.340 . S
C664 N663 1.321 . S
C664 H688 0.930 . S
H665 C660 0.931 . S
Co666 N663 2.135 . S
Co666 N669 2.121 . S
Co666 O674 2.055 . S
Co666 O677 2.039 . S
Co666 N680 2.140 . S
C667 O668 1.227 . S
C667 O677 1.265 . S
O668 C667 1.227 . S
N669 Co666 2.121 . S
N669 C671 1.375 . S
N669 C672 1.313 . S
C670 C671 1.338 . S
C670 N673 1.377 . S
C670 H690 0.930 . S
C671 N669 1.375 . S
C671 C670 1.338 . S
C671 H675 0.931 . S
C672 N669 1.313 . S
C672 N673 1.344 . S
C672 H676 0.930 . S
N673 C670 1.377 . S
N673 C672 1.344 . S
O674 Co666 2.055 . S
O674 C678 1.253 . S
H675 C671 0.931 . S
H676 C672 0.930 . S
O677 Co666 2.039 . S
O677 C667 1.265 . S
C678 O674 1.253 . S
C678 O679 1.227 . S
O679 C678 1.227 . S
N680 Co666 2.140 . S
N680 C683 1.346 . S
N680 C684 1.345 . S
C681 C682 1.387 . S
C681 C685 1.391 . S
C682 C681 1.387 . S
C682 C683 1.369 . S
C682 H691 0.929 . S
C683 N680 1.346 . S
C683 C682 1.369 . S
C683 H686 0.928 . S
C684 N680 1.345 . S
C684 C685 1.371 . S
C684 H687 0.931 . S
C685 C681 1.391 . S
C685 C684 1.371 . S
C685 H692 0.930 . S
H686 C683 0.928 . S
H687 C684 0.931 . S
H688 C664 0.930 . S
H689 C661 0.930 . S
H690 C670 0.930 . S
H691 C682 0.929 . S
H692 C685 0.930 . S
C693 C694 1.351 . S
C693 N696 1.368 . S
C693 H698 0.931 . S
C694 C693 1.351 . S
C694 N695 1.373 . S
C694 H722 0.930 . S
N695 C694 1.373 . S
N695 C697 1.340 . S
N696 C693 1.368 . S
N696 C697 1.321 . S
N696 Co699 2.135 . S
C697 N695 1.340 . S
C697 N696 1.321 . S
C697 H721 0.930 . S
H698 C693 0.931 . S
Co699 N696 2.135 . S
Co699 N702 2.121 . S
Co699 O707 2.055 . S
Co699 O710 2.039 . S
Co699 N713 2.140 . S
C700 O701 1.227 . S
C700 O710 1.265 . S
O701 C700 1.227 . S
N702 Co699 2.121 . S
N702 C704 1.375 . S
N702 C705 1.313 . S
C703 C704 1.338 . S
C703 N706 1.377 . S
C703 H723 0.930 . S
C704 N702 1.375 . S
C704 C703 1.338 . S
C704 H708 0.931 . S
C705 N702 1.313 . S
C705 N706 1.344 . S
C705 H709 0.930 . S
N706 C703 1.377 . S
N706 C705 1.344 . S
O707 Co699 2.055 . S
O707 C711 1.253 . S
H708 C704 0.931 . S
H709 C705 0.930 . S
O710 Co699 2.039 . S
O710 C700 1.265 . S
C711 O707 1.253 . S
C711 O712 1.227 . S
O712 C711 1.227 . S
N713 Co699 2.140 . S
N713 C716 1.346 . S
N713 C717 1.345 . S
C714 C715 1.387 . S
C714 C718 1.391 . S
C715 C714 1.387 . S
C715 C716 1.369 . S
C715 H724 0.929 . S
C716 N713 1.346 . S
C716 C715 1.369 . S
C716 H719 0.928 . S
C717 N713 1.345 . S
C717 C718 1.371 . S
C717 H720 0.931 . S
C718 C714 1.391 . S
C718 C717 1.371 . S
C718 H725 0.930 . S
H719 C716 0.928 . S
H720 C717 0.931 . S
H721 C697 0.930 . S
H722 C694 0.930 . S
H723 C703 0.930 . S
H724 C715 0.929 . S
H725 C718 0.930 . S
C726 C727 1.351 . S
C726 N729 1.368 . S
C726 H731 0.931 . S
C727 C726 1.351 . S
C727 N728 1.373 . S
C727 H755 0.930 . S
N728 C727 1.373 . S
N728 C730 1.340 . S
N729 C726 1.368 . S
N729 C730 1.321 . S
N729 Co732 2.135 . S
C730 N728 1.340 . S
C730 N729 1.321 . S
C730 H754 0.930 . S
H731 C726 0.931 . S
Co732 N729 2.135 . S
Co732 N735 2.121 1_556 S
Co732 O740 2.055 . S
Co732 O743 2.039 . S
Co732 N746 2.140 . S
C733 O734 1.227 . S
C733 O743 1.265 . S
O734 C733 1.227 . S
N735 Co732 2.121 1_554 S
N735 C737 1.375 . S
N735 C738 1.313 . S
C736 C737 1.338 . S
C736 N739 1.377 . S
C736 H756 0.930 . S
C737 N735 1.375 . S
C737 C736 1.338 . S
C737 H741 0.931 . S
C738 N735 1.313 . S
C738 N739 1.344 . S
C738 H742 0.930 . S
N739 C736 1.377 . S
N739 C738 1.344 . S
O740 Co732 2.055 . S
O740 C744 1.253 . S
H741 C737 0.931 . S
H742 C738 0.930 . S
O743 Co732 2.039 . S
O743 C733 1.265 . S
C744 O740 1.253 . S
C744 O745 1.227 . S
O745 C744 1.227 . S
N746 Co732 2.140 . S
N746 C749 1.346 . S
N746 C750 1.347 . S
C747 C748 1.387 . S
C747 C751 1.389 1_556 S
C748 C747 1.387 . S
C748 C749 1.369 . S
C748 H757 0.929 . S
C749 N746 1.346 . S
C749 C748 1.369 . S
C749 H752 0.928 . S
C750 N746 1.347 . S
C750 C751 1.371 1_556 S
C750 H753 0.928 1_556 S
C751 C747 1.389 1_554 S
C751 C750 1.371 1_554 S
C751 H758 0.932 . S
H752 C749 0.928 . S
H753 C750 0.928 1_554 S
H754 C730 0.930 . S
H755 C727 0.930 . S
H756 C736 0.930 . S
H757 C748 0.929 . S
H758 C751 0.932 . S
C759 C760 1.340 1_554 S
C759 N762 1.370 . S
C759 H764 0.938 . S
C760 C759 1.340 1_556 S
C760 N761 1.373 . S
C760 H788 0.930 . S
N761 C760 1.373 . S
N761 C763 1.340 . S
N762 C759 1.370 . S
N762 C763 1.321 1_554 S
N762 Co765 2.135 . S
C763 N761 1.340 . S
C763 N762 1.321 1_556 S
C763 H787 0.930 . S
H764 C759 0.938 . S
Co765 N762 2.135 . S
Co765 N768 2.121 . S
Co765 O773 2.055 . S
Co765 O776 2.039 . S
Co765 N779 2.140 . S
C766 O767 1.227 . S
C766 O776 1.265 . S
O767 C766 1.227 . S
N768 Co765 2.121 . S
N768 C770 1.375 . S
N768 C771 1.313 . S
C769 C770 1.338 . S
C769 N772 1.377 . S
C769 H789 0.930 . S
C770 N768 1.375 . S
C770 C769 1.338 . S
C770 H774 0.931 . S
C771 N768 1.313 . S
C771 N772 1.344 . S
C771 H775 0.930 . S
N772 C769 1.377 . S
N772 C771 1.344 . S
O773 Co765 2.055 . S
O773 C777 1.253 . S
H774 C770 0.931 . S
H775 C771 0.930 . S
O776 Co765 2.039 . S
O776 C766 1.265 . S
C777 O773 1.253 . S
C777 O778 1.227 . S
O778 C777 1.227 . S
N779 Co765 2.140 . S
N779 C782 1.346 . S
N779 C783 1.345 . S
C780 C781 1.387 . S
C780 C784 1.391 . S
C781 C780 1.387 . S
C781 C782 1.369 . S
C781 H790 0.929 . S
C782 N779 1.346 . S
C782 C781 1.369 . S
C782 H785 0.928 . S
C783 N779 1.345 . S
C783 C784 1.371 . S
C783 H786 0.931 . S
C784 C780 1.391 . S
C784 C783 1.371 . S
C784 H791 0.930 . S
H785 C782 0.928 . S
H786 C783 0.931 . S
H787 C763 0.930 . S
H788 C760 0.930 . S
H789 C769 0.930 . S
H790 C781 0.929 . S
H791 C784 0.930 . S
C792 C793 1.351 . S
C792 N795 1.368 . S
C792 H797 0.931 . S
C793 C792 1.351 . S
C793 N794 1.373 . S
C793 H821 0.930 . S
N794 C793 1.373 . S
N794 C796 1.340 . S
N795 C792 1.368 . S
N795 C796 1.321 . S
N795 Co798 2.135 . S
C796 N794 1.340 . S
C796 N795 1.321 . S
C796 H820 0.930 . S
H797 C792 0.931 . S
Co798 N795 2.135 . S
Co798 N801 2.121 . S
Co798 O806 2.055 . S
Co798 O809 2.039 . S
Co798 N812 2.140 . S
C799 O800 1.227 . S
C799 O809 1.265 . S
O800 C799 1.227 . S
N801 Co798 2.121 . S
N801 C803 1.375 . S
N801 C804 1.313 . S
C802 C803 1.338 . S
C802 N805 1.377 . S
C802 H822 0.930 . S
C803 N801 1.375 . S
C803 C802 1.338 . S
C803 H807 0.931 . S
C804 N801 1.313 . S
C804 N805 1.344 . S
C804 H808 0.930 . S
N805 C802 1.377 . S
N805 C804 1.344 . S
O806 Co798 2.055 . S
O806 C810 1.253 . S
H807 C803 0.931 . S
H808 C804 0.930 . S
O809 Co798 2.039 . S
O809 C799 1.265 . S
C810 O806 1.253 . S
C810 O811 1.227 . S
O811 C810 1.227 . S
N812 Co798 2.140 . S
N812 C815 1.346 . S
N812 C816 1.345 . S
C813 C814 1.387 . S
C813 C817 1.391 . S
C814 C813 1.387 . S
C814 C815 1.369 . S
C814 H823 0.929 . S
C815 N812 1.346 . S
C815 C814 1.369 . S
C815 H818 0.928 . S
C816 N812 1.345 . S
C816 C817 1.371 . S
C816 H819 0.931 . S
C817 C813 1.391 . S
C817 C816 1.371 . S
C817 H824 0.930 . S
H818 C815 0.928 . S
H819 C816 0.931 . S
H820 C796 0.930 . S
H821 C793 0.930 . S
H822 C802 0.930 . S
H823 C814 0.929 . S
H824 C817 0.930 . S
C825 C826 1.340 1_554 S
C825 N828 1.370 . S
C825 H830 0.938 . S
C826 C825 1.340 1_556 S
C826 N827 1.373 . S
C826 H854 0.930 . S
N827 C826 1.373 . S
N827 C829 1.340 . S
N828 C825 1.370 . S
N828 C829 1.321 1_554 S
N828 Co831 2.135 . S
C829 N827 1.340 . S
C829 N828 1.321 1_556 S
C829 H853 0.930 . S
H830 C825 0.938 . S
Co831 N828 2.135 . S
Co831 N834 2.121 . S
Co831 O839 2.055 . S
Co831 O842 2.039 . S
Co831 N845 2.140 . S
C832 O833 1.227 . S
C832 O842 1.265 . S
O833 C832 1.227 . S
N834 Co831 2.121 . S
N834 C836 1.375 . S
N834 C837 1.313 . S
C835 C836 1.338 . S
C835 N838 1.377 . S
C835 H855 0.930 . S
C836 N834 1.375 . S
C836 C835 1.338 . S
C836 H840 0.931 . S
C837 N834 1.313 . S
C837 N838 1.344 . S
C837 H841 0.930 . S
N838 C835 1.377 . S
N838 C837 1.344 . S
O839 Co831 2.055 . S
O839 C843 1.253 . S
H840 C836 0.931 . S
H841 C837 0.930 . S
O842 Co831 2.039 . S
O842 C832 1.265 . S
C843 O839 1.253 . S
C843 O844 1.227 . S
O844 C843 1.227 . S
N845 Co831 2.140 . S
N845 C848 1.346 . S
N845 C849 1.345 . S
C846 C847 1.387 . S
C846 C850 1.391 . S
C847 C846 1.387 . S
C847 C848 1.369 . S
C847 H856 0.929 . S
C848 N845 1.346 . S
C848 C847 1.369 . S
C848 H851 0.928 . S
C849 N845 1.345 . S
C849 C850 1.371 . S
C849 H852 0.931 . S
C850 C846 1.391 . S
C850 C849 1.371 . S
C850 H857 0.930 . S
H851 C848 0.928 . S
H852 C849 0.931 . S
H853 C829 0.930 . S
H854 C826 0.930 . S
H855 C835 0.930 . S
H856 C847 0.929 . S
H857 C850 0.930 . S
C858 C859 1.351 . S
C858 N861 1.368 . S
C858 H863 0.931 . S
C859 C858 1.351 . S
C859 N860 1.373 . S
C859 H887 0.930 . S
N860 C859 1.373 . S
N860 C862 1.340 . S
N861 C858 1.368 . S
N861 C862 1.321 . S
N861 Co864 2.135 . S
C862 N860 1.340 . S
C862 N861 1.321 . S
C862 H886 0.930 . S
H863 C858 0.931 . S
Co864 N861 2.135 . S
Co864 N867 2.121 1_556 S
Co864 O872 2.055 . S
Co864 O875 2.039 . S
Co864 N878 2.140 . S
C865 O866 1.227 . S
C865 O875 1.265 . S
O866 C865 1.227 . S
N867 Co864 2.121 1_554 S
N867 C869 1.375 . S
N867 C870 1.313 . S
C868 C869 1.338 . S
C868 N871 1.377 . S
C868 H888 0.930 . S
C869 N867 1.375 . S
C869 C868 1.338 . S
C869 H873 0.931 . S
C870 N867 1.313 . S
C870 N871 1.344 . S
C870 H874 0.930 . S
N871 C868 1.377 . S
N871 C870 1.344 . S
O872 Co864 2.055 . S
O872 C876 1.253 . S
H873 C869 0.931 . S
H874 C870 0.930 . S
O875 Co864 2.039 . S
O875 C865 1.265 . S
C876 O872 1.253 . S
C876 O877 1.227 . S
O877 C876 1.227 . S
N878 Co864 2.140 . S
N878 C881 1.346 . S
N878 C882 1.347 . S
C879 C880 1.387 . S
C879 C883 1.389 1_556 S
C880 C879 1.387 . S
C880 C881 1.369 . S
C880 H889 0.929 . S
C881 N878 1.346 . S
C881 C880 1.369 . S
C881 H884 0.928 . S
C882 N878 1.347 . S
C882 C883 1.371 1_556 S
C882 H885 0.928 1_556 S
C883 C879 1.389 1_554 S
C883 C882 1.371 1_554 S
C883 H890 0.932 . S
H884 C881 0.928 . S
H885 C882 0.928 1_554 S
H886 C862 0.930 . S
H887 C859 0.930 . S
H888 C868 0.930 . S
H889 C880 0.929 . S
H890 C883 0.932 . S
C891 C892 1.351 . S
C891 N894 1.368 . S
C891 H896 0.931 . S
C892 C891 1.351 . S
C892 N893 1.373 . S
C892 H920 0.930 . S
N893 C892 1.373 . S
N893 C895 1.340 . S
N894 C891 1.368 . S
N894 C895 1.321 . S
N894 Co897 2.135 . S
C895 N893 1.340 . S
C895 N894 1.321 . S
C895 H919 0.930 . S
H896 C891 0.931 . S
Co897 N894 2.135 . S
Co897 N900 2.121 . S
Co897 O905 2.055 . S
Co897 O908 2.039 . S
Co897 N911 2.140 . S
C898 O899 1.227 . S
C898 O908 1.265 . S
O899 C898 1.227 . S
N900 Co897 2.121 . S
N900 C902 1.375 . S
N900 C903 1.313 . S
C901 C902 1.338 . S
C901 N904 1.377 . S
C901 H921 0.930 . S
C902 N900 1.375 . S
C902 C901 1.338 . S
C902 H906 0.931 . S
C903 N900 1.313 . S
C903 N904 1.344 . S
C903 H907 0.930 . S
N904 C901 1.377 . S
N904 C903 1.344 . S
O905 Co897 2.055 . S
O905 C909 1.253 . S
H906 C902 0.931 . S
H907 C903 0.930 . S
O908 Co897 2.039 . S
O908 C898 1.265 . S
C909 O905 1.253 . S
C909 O910 1.227 . S
O910 C909 1.227 . S
N911 Co897 2.140 . S
N911 C914 1.346 . S
N911 C915 1.345 . S
C912 C913 1.387 . S
C912 C916 1.391 . S
C913 C912 1.387 . S
C913 C914 1.369 . S
C913 H922 0.929 . S
C914 N911 1.346 . S
C914 C913 1.369 . S
C914 H917 0.928 . S
C915 N911 1.345 . S
C915 C916 1.371 . S
C915 H918 0.931 . S
C916 C912 1.391 . S
C916 C915 1.371 . S
C916 H923 0.930 . S
H917 C914 0.928 . S
H918 C915 0.931 . S
H919 C895 0.930 . S
H920 C892 0.930 . S
H921 C901 0.930 . S
H922 C913 0.929 . S
H923 C916 0.930 . S
C924 C925 1.351 . S
C924 N927 1.368 . S
C924 H929 0.931 . S
C925 C924 1.351 . S
C925 N926 1.373 . S
C925 H953 0.930 . S
N926 C925 1.373 . S
N926 C928 1.340 . S
N927 C924 1.368 . S
N927 C928 1.321 . S
N927 Co930 2.135 . S
C928 N926 1.340 . S
C928 N927 1.321 . S
C928 H952 0.930 . S
H929 C924 0.931 . S
Co930 N927 2.135 . S
Co930 N933 2.121 . S
Co930 O938 2.055 . S
Co930 O941 2.039 . S
Co930 N944 2.140 . S
C931 O932 1.227 . S
C931 O941 1.265 . S
O932 C931 1.227 . S
N933 Co930 2.121 . S
N933 C935 1.375 . S
N933 C936 1.313 . S
C934 C935 1.338 . S
C934 N937 1.377 . S
C934 H954 0.930 . S
C935 N933 1.375 . S
C935 C934 1.338 . S
C935 H939 0.931 . S
C936 N933 1.313 . S
C936 N937 1.344 . S
C936 H940 0.930 . S
N937 C934 1.377 . S
N937 C936 1.344 . S
O938 Co930 2.055 . S
O938 C942 1.253 . S
H939 C935 0.931 . S
H940 C936 0.930 . S
O941 Co930 2.039 . S
O941 C931 1.265 . S
C942 O938 1.253 . S
C942 O943 1.227 . S
O943 C942 1.227 . S
N944 Co930 2.140 . S
N944 C947 1.346 . S
N944 C948 1.345 . S
C945 C946 1.387 . S
C945 C949 1.391 . S
C946 C945 1.387 . S
C946 C947 1.369 . S
C946 H955 0.929 . S
C947 N944 1.346 . S
C947 C946 1.369 . S
C947 H950 0.928 . S
C948 N944 1.345 . S
C948 C949 1.371 . S
C948 H951 0.931 . S
C949 C945 1.391 . S
C949 C948 1.371 . S
C949 H956 0.930 . S
H950 C947 0.928 . S
H951 C948 0.931 . S
H952 C928 0.930 . S
H953 C925 0.930 . S
H954 C934 0.930 . S
H955 C946 0.929 . S
H956 C949 0.930 . S
C957 C958 1.351 . S
C957 N960 1.368 . S
C957 H962 0.931 . S
C958 C957 1.351 . S
C958 N959 1.373 . S
C958 H986 0.930 . S
N959 C958 1.373 . S
N959 C961 1.340 . S
N960 C957 1.368 . S
N960 C961 1.321 . S
N960 Co963 2.135 . S
C961 N959 1.340 . S
C961 N960 1.321 . S
C961 H985 0.930 . S
H962 C957 0.931 . S
Co963 N960 2.135 . S
Co963 N966 2.121 . S
Co963 O971 2.055 . S
Co963 O974 2.039 . S
Co963 N977 2.140 . S
C964 O965 1.227 . S
C964 O974 1.265 . S
O965 C964 1.227 . S
N966 Co963 2.121 . S
N966 C968 1.375 . S
N966 C969 1.313 . S
C967 C968 1.338 . S
C967 N970 1.377 . S
C967 H987 0.930 . S
C968 N966 1.375 . S
C968 C967 1.338 . S
C968 H972 0.931 . S
C969 N966 1.313 . S
C969 N970 1.344 . S
C969 H973 0.930 . S
N970 C967 1.377 . S
N970 C969 1.344 . S
O971 Co963 2.055 . S
O971 C975 1.253 . S
H972 C968 0.931 . S
H973 C969 0.930 . S
O974 Co963 2.039 . S
O974 C964 1.265 . S
C975 O971 1.253 . S
C975 O976 1.227 . S
O976 C975 1.227 . S
N977 Co963 2.140 . S
N977 C980 1.346 . S
N977 C981 1.345 . S
C978 C979 1.387 . S
C978 C982 1.391 . S
C979 C978 1.387 . S
C979 C980 1.369 . S
C979 H988 0.929 . S
C980 N977 1.346 . S
C980 C979 1.369 . S
C980 H983 0.928 . S
C981 N977 1.345 . S
C981 C982 1.371 . S
C981 H984 0.931 . S
C982 C978 1.391 . S
C982 C981 1.371 . S
C982 H989 0.930 . S
H983 C980 0.928 . S
H984 C981 0.931 . S
H985 C961 0.930 . S
H986 C958 0.930 . S
H987 C967 0.930 . S
H988 C979 0.929 . S
H989 C982 0.930 . S
C990 C991 1.351 . S
C990 N993 1.368 . S
C990 H995 0.931 . S
C991 C990 1.351 . S
C991 N992 1.373 . S
C991 H1019 0.930 . S
N992 C991 1.373 . S
N992 C994 1.340 . S
N993 C990 1.368 . S
N993 C994 1.321 . S
N993 Co996 2.135 . S
C994 N992 1.340 . S
C994 N993 1.321 . S
C994 H1018 0.930 . S
H995 C990 0.931 . S
Co996 N993 2.135 . S
Co996 N999 2.121 1_554 S
Co996 O1004 2.055 . S
Co996 O1007 2.039 . S
Co996 N1010 2.140 . S
C997 O998 1.227 . S
C997 O1007 1.265 . S
O998 C997 1.227 . S
N999 Co996 2.121 1_556 S
N999 C1001 1.375 . S
N999 C1002 1.313 . S
C1000 C1001 1.338 . S
C1000 N1003 1.377 . S
C1000 H1020 0.930 . S
C1001 N999 1.375 . S
C1001 C1000 1.338 . S
C1001 H1005 0.931 . S
C1002 N999 1.313 . S
C1002 N1003 1.344 . S
C1002 H1006 0.930 . S
N1003 C1000 1.377 . S
N1003 C1002 1.344 . S
O1004 Co996 2.055 . S
O1004 C1008 1.253 . S
H1005 C1001 0.931 . S
H1006 C1002 0.930 . S
O1007 Co996 2.039 . S
O1007 C997 1.265 . S
C1008 O1004 1.253 . S
C1008 O1009 1.227 . S
O1009 C1008 1.227 . S
N1010 Co996 2.140 . S
N1010 C1013 1.346 . S
N1010 C1014 1.347 . S
C1011 C1012 1.387 . S
C1011 C1015 1.389 1_554 S
C1012 C1011 1.387 . S
C1012 C1013 1.369 . S
C1012 H1021 0.929 . S
C1013 N1010 1.346 . S
C1013 C1012 1.369 . S
C1013 H1016 0.928 . S
C1014 N1010 1.347 . S
C1014 C1015 1.371 1_554 S
C1014 H1017 0.928 1_554 S
C1015 C1011 1.389 1_556 S
C1015 C1014 1.371 1_556 S
C1015 H1022 0.932 . S
H1016 C1013 0.928 . S
H1017 C1014 0.928 1_556 S
H1018 C994 0.930 . S
H1019 C991 0.930 . S
H1020 C1000 0.930 . S
H1021 C1012 0.929 . S
H1022 C1015 0.932 . S
C1023 C1024 1.340 1_556 S
C1023 N1026 1.370 . S
C1023 H1028 0.938 . S
C1024 C1023 1.340 1_554 S
C1024 N1025 1.373 . S
C1024 H1052 0.930 . S
N1025 C1024 1.373 . S
N1025 C1027 1.340 . S
N1026 C1023 1.370 . S
N1026 C1027 1.321 1_556 S
N1026 Co1029 2.135 . S
C1027 N1025 1.340 . S
C1027 N1026 1.321 1_554 S
C1027 H1051 0.930 . S
H1028 C1023 0.938 . S
Co1029 N1026 2.135 . S
Co1029 N1032 2.121 . S
Co1029 O1037 2.055 . S
Co1029 O1040 2.039 . S
Co1029 N1043 2.140 . S
C1030 O1031 1.227 . S
C1030 O1040 1.265 . S
O1031 C1030 1.227 . S
N1032 Co1029 2.121 . S
N1032 C1034 1.375 . S
N1032 C1035 1.313 . S
C1033 C1034 1.338 . S
C1033 N1036 1.377 . S
C1033 H1053 0.930 . S
C1034 N1032 1.375 . S
C1034 C1033 1.338 . S
C1034 H1038 0.931 . S
C1035 N1032 1.313 . S
C1035 N1036 1.344 . S
C1035 H1039 0.930 . S
N1036 C1033 1.377 . S
N1036 C1035 1.344 . S
O1037 Co1029 2.055 . S
O1037 C1041 1.253 . S
H1038 C1034 0.931 . S
H1039 C1035 0.930 . S
O1040 Co1029 2.039 . S
O1040 C1030 1.265 . S
C1041 O1037 1.253 . S
C1041 O1042 1.227 . S
O1042 C1041 1.227 . S
N1043 Co1029 2.140 . S
N1043 C1046 1.346 . S
N1043 C1047 1.345 . S
C1044 C1045 1.387 . S
C1044 C1048 1.391 . S
C1045 C1044 1.387 . S
C1045 C1046 1.369 . S
C1045 H1054 0.929 . S
C1046 N1043 1.346 . S
C1046 C1045 1.369 . S
C1046 H1049 0.928 . S
C1047 N1043 1.345 . S
C1047 C1048 1.371 . S
C1047 H1050 0.931 . S
C1048 C1044 1.391 . S
C1048 C1047 1.371 . S
C1048 H1055 0.930 . S
H1049 C1046 0.928 . S
H1050 C1047 0.931 . S
H1051 C1027 0.930 . S
H1052 C1024 0.930 . S
H1053 C1033 0.930 . S
H1054 C1045 0.929 . S
H1055 C1048 0.930 . S
C1056 C1057 1.363 . S
C1056 C1062 1.379 . S
C1056 N1064 1.356 . S
C1057 C1056 1.363 . S
C1057 C1063 1.363 . S
C1058 C1059 1.363 . S
C1058 C1063 1.379 . S
C1058 N1065 1.356 1_554 S
C1059 C1058 1.363 . S
C1059 C1062 1.363 . S
N1060 C1062 1.356 . S
N1060 H1072 0.984 . S
N1060 H1073 0.985 . S
N1061 C1063 1.356 1_556 S
N1061 H1066 0.984 . S
N1061 H1067 0.985 . S
C1062 C1056 1.379 . S
C1062 C1059 1.363 . S
C1062 N1060 1.356 . S
C1063 C1057 1.363 . S
C1063 C1058 1.379 . S
C1063 N1061 1.356 1_554 S
N1064 C1056 1.356 . S
N1064 H1070 0.984 . S
N1064 H1071 0.984 . S
N1065 C1058 1.356 1_556 S
N1065 H1068 0.984 . S
N1065 H1069 0.985 . S
H1066 N1061 0.984 . S
H1067 N1061 0.985 . S
H1068 N1065 0.984 . S
H1069 N1065 0.985 . S
H1070 N1064 0.984 . S
H1071 N1064 0.984 . S
H1072 N1060 0.984 . S
H1073 N1060 0.985 . S
C1074 C1075 1.363 . S
C1074 C1080 1.379 1_455 S
C1074 N1082 1.356 . S
C1075 C1074 1.363 . S
C1075 C1081 1.363 . S
C1076 C1077 1.363 . S
C1076 C1081 1.379 1_655 S
C1076 N1083 1.356 . S
C1077 C1076 1.363 . S
C1077 C1080 1.363 . S
N1078 C1080 1.356 . S
N1078 H1090 0.984 . S
N1078 H1091 0.985 . S
N1079 C1081 1.356 . S
N1079 H1084 0.984 . S
N1079 H1085 0.985 . S
C1080 C1074 1.379 1_655 S
C1080 C1077 1.363 . S
C1080 N1078 1.356 . S
C1081 C1075 1.363 . S
C1081 C1076 1.379 1_455 S
C1081 N1079 1.356 . S
N1082 C1074 1.356 . S
N1082 H1088 0.984 . S
N1082 H1089 0.984 . S
N1083 C1076 1.356 . S
N1083 H1086 0.984 . S
N1083 H1087 0.985 . S
H1084 N1079 0.984 . S
H1085 N1079 0.985 . S
H1086 N1083 0.984 . S
H1087 N1083 0.985 . S
H1088 N1082 0.984 . S
H1089 N1082 0.984 . S
H1090 N1078 0.984 . S
H1091 N1078 0.985 . S
C1092 C1093 1.363 . S
C1092 C1098 1.379 . S
C1092 N1100 1.356 . S
C1093 C1092 1.363 . S
C1093 C1099 1.363 . S
C1094 C1095 1.363 . S
C1094 C1099 1.379 . S
C1094 N1101 1.356 . S
C1095 C1094 1.363 . S
C1095 C1098 1.363 . S
N1096 C1098 1.356 . S
N1096 H1108 0.984 . S
N1096 H1109 0.985 . S
N1097 C1099 1.356 . S
N1097 H1102 0.984 . S
N1097 H1103 0.985 . S
C1098 C1092 1.379 . S
C1098 C1095 1.363 . S
C1098 N1096 1.356 . S
C1099 C1093 1.363 . S
C1099 C1094 1.379 . S
C1099 N1097 1.356 . S
N1100 C1092 1.356 . S
N1100 H1106 0.984 . S
N1100 H1107 0.984 . S
N1101 C1094 1.356 . S
N1101 H1104 0.984 . S
N1101 H1105 0.985 . S
H1102 N1097 0.984 . S
H1103 N1097 0.985 . S
H1104 N1101 0.984 . S
H1105 N1101 0.985 . S
H1106 N1100 0.984 . S
H1107 N1100 0.984 . S
H1108 N1096 0.984 . S
H1109 N1096 0.985 . S
C1110 C1111 1.363 . S
C1110 C1116 1.379 . S
C1110 N1118 1.356 . S
C1111 C1110 1.363 . S
C1111 C1117 1.363 . S
C1112 C1113 1.363 . S
C1112 C1117 1.379 . S
C1112 N1119 1.356 . S
C1113 C1112 1.363 . S
C1113 C1116 1.363 . S
N1114 C1116 1.356 . S
N1114 H1126 0.984 . S
N1114 H1127 0.985 . S
N1115 C1117 1.356 . S
N1115 H1120 0.984 . S
N1115 H1121 0.985 . S
C1116 C1110 1.379 . S
C1116 C1113 1.363 . S
C1116 N1114 1.356 . S
C1117 C1111 1.363 . S
C1117 C1112 1.379 . S
C1117 N1115 1.356 . S
N1118 C1110 1.356 . S
N1118 H1124 0.984 . S
N1118 H1125 0.984 . S
N1119 C1112 1.356 . S
N1119 H1122 0.984 . S
N1119 H1123 0.985 . S
H1120 N1115 0.984 . S
H1121 N1115 0.985 . S
H1122 N1119 0.984 . S
H1123 N1119 0.985 . S
H1124 N1118 0.984 . S
H1125 N1118 0.984 . S
H1126 N1114 0.984 . S
H1127 N1114 0.985 . S
C1128 C1129 1.363 . S
C1128 C1134 1.379 . S
C1128 N1136 1.356 1_556 S
C1129 C1128 1.363 . S
C1129 C1135 1.363 . S
C1130 C1131 1.363 . S
C1130 C1135 1.379 . S
C1130 N1137 1.356 . S
C1131 C1130 1.363 . S
C1131 C1134 1.363 . S
N1132 C1134 1.356 1_554 S
N1132 H1144 0.984 . S
N1132 H1145 0.985 . S
N1133 C1135 1.356 . S
N1133 H1138 0.984 . S
N1133 H1139 0.985 . S
C1134 C1128 1.379 . S
C1134 C1131 1.363 . S
C1134 N1132 1.356 1_556 S
C1135 C1129 1.363 . S
C1135 C1130 1.379 . S
C1135 N1133 1.356 . S
N1136 C1128 1.356 1_554 S
N1136 H1142 0.984 . S
N1136 H1143 0.984 . S
N1137 C1130 1.356 . S
N1137 H1140 0.984 . S
N1137 H1141 0.985 . S
H1138 N1133 0.984 . S
H1139 N1133 0.985 . S
H1140 N1137 0.984 . S
H1141 N1137 0.985 . S
H1142 N1136 0.984 . S
H1143 N1136 0.984 . S
H1144 N1132 0.984 . S
H1145 N1132 0.985 . S
C1146 C1147 1.363 . S
C1146 C1152 1.379 . S
C1146 N1154 1.356 . S
C1147 C1146 1.363 . S
C1147 C1153 1.363 . S
C1148 C1149 1.363 . S
C1148 C1153 1.379 . S
C1148 N1155 1.356 . S
C1149 C1148 1.363 . S
C1149 C1152 1.363 . S
N1150 C1152 1.356 . S
N1150 H1162 0.984 . S
N1150 H1163 0.985 . S
N1151 C1153 1.356 . S
N1151 H1156 0.984 . S
N1151 H1157 0.985 . S
C1152 C1146 1.379 . S
C1152 C1149 1.363 . S
C1152 N1150 1.356 . S
C1153 C1147 1.363 . S
C1153 C1148 1.379 . S
C1153 N1151 1.356 . S
N1154 C1146 1.356 . S
N1154 H1160 0.984 . S
N1154 H1161 0.984 . S
N1155 C1148 1.356 . S
N1155 H1158 0.984 . S
N1155 H1159 0.985 . S
H1156 N1151 0.984 . S
H1157 N1151 0.985 . S
H1158 N1155 0.984 . S
H1159 N1155 0.985 . S
H1160 N1154 0.984 . S
H1161 N1154 0.984 . S
H1162 N1150 0.984 . S
H1163 N1150 0.985 . S
C1164 C1165 1.363 . S
C1164 C1170 1.379 . S
C1164 N1172 1.356 . S
C1165 C1164 1.363 . S
C1165 C1171 1.363 . S
C1166 C1167 1.363 . S
C1166 C1171 1.379 . S
C1166 N1173 1.356 . S
C1167 C1166 1.363 . S
C1167 C1170 1.363 . S
N1168 C1170 1.356 . S
N1168 H1180 0.984 . S
N1168 H1181 0.985 . S
N1169 C1171 1.356 . S
N1169 H1174 0.984 . S
N1169 H1175 0.985 . S
C1170 C1164 1.379 . S
C1170 C1167 1.363 . S
C1170 N1168 1.356 . S
C1171 C1165 1.363 . S
C1171 C1166 1.379 . S
C1171 N1169 1.356 . S
N1172 C1164 1.356 . S
N1172 H1178 0.984 . S
N1172 H1179 0.984 . S
N1173 C1166 1.356 . S
N1173 H1176 0.984 . S
N1173 H1177 0.985 . S
H1174 N1169 0.984 . S
H1175 N1169 0.985 . S
H1176 N1173 0.984 . S
H1177 N1173 0.985 . S
H1178 N1172 0.984 . S
H1179 N1172 0.984 . S
H1180 N1168 0.984 . S
H1181 N1168 0.985 . S
C1182 C1183 1.363 . S
C1182 C1188 1.379 1_655 S
C1182 N1190 1.356 . S
C1183 C1182 1.363 . S
C1183 C1189 1.363 . S
C1184 C1185 1.363 . S
C1184 C1189 1.379 1_455 S
C1184 N1191 1.356 . S
C1185 C1184 1.363 . S
C1185 C1188 1.363 . S
N1186 C1188 1.356 . S
N1186 H1198 0.984 . S
N1186 H1199 0.985 . S
N1187 C1189 1.356 . S
N1187 H1192 0.984 . S
N1187 H1193 0.985 . S
C1188 C1182 1.379 1_455 S
C1188 C1185 1.363 . S
C1188 N1186 1.356 . S
C1189 C1183 1.363 . S
C1189 C1184 1.379 1_655 S
C1189 N1187 1.356 . S
N1190 C1182 1.356 . S
N1190 H1196 0.984 . S
N1190 H1197 0.984 . S
N1191 C1184 1.356 . S
N1191 H1194 0.984 . S
N1191 H1195 0.985 . S
H1192 N1187 0.984 . S
H1193 N1187 0.985 . S
H1194 N1191 0.984 . S
H1195 N1191 0.985 . S
H1196 N1190 0.984 . S
H1197 N1190 0.984 . S
H1198 N1186 0.984 . S
H1199 N1186 0.985 . S
C1200 C1201 1.363 . S
C1200 C1206 1.379 . S
C1200 N1208 1.356 1_556 S
C1201 C1200 1.363 . S
C1201 C1207 1.363 . S
C1202 C1203 1.363 . S
C1202 C1207 1.379 . S
C1202 N1209 1.356 . S
C1203 C1202 1.363 . S
C1203 C1206 1.363 . S
N1204 C1206 1.356 1_554 S
N1204 H1216 0.984 . S
N1204 H1217 0.985 . S
N1205 C1207 1.356 . S
N1205 H1210 0.984 . S
N1205 H1211 0.985 . S
C1206 C1200 1.379 . S
C1206 C1203 1.363 . S
C1206 N1204 1.356 1_556 S
C1207 C1201 1.363 . S
C1207 C1202 1.379 . S
C1207 N1205 1.356 . S
N1208 C1200 1.356 1_554 S
N1208 H1214 0.984 . S
N1208 H1215 0.984 . S
N1209 C1202 1.356 . S
N1209 H1212 0.984 . S
N1209 H1213 0.985 . S
H1210 N1205 0.984 . S
H1211 N1205 0.985 . S
H1212 N1209 0.984 . S
H1213 N1209 0.985 . S
H1214 N1208 0.984 . S
H1215 N1208 0.984 . S
H1216 N1204 0.984 . S
H1217 N1204 0.985 . S
C1218 C1219 1.363 . S
C1218 C1224 1.379 . S
C1218 N1226 1.356 . S
C1219 C1218 1.363 . S
C1219 C1225 1.363 . S
C1220 C1221 1.363 . S
C1220 C1225 1.379 . S
C1220 N1227 1.356 . S
C1221 C1220 1.363 . S
C1221 C1224 1.363 . S
N1222 C1224 1.356 . S
N1222 H1234 0.984 . S
N1222 H1235 0.985 . S
N1223 C1225 1.356 . S
N1223 H1228 0.984 . S
N1223 H1229 0.985 . S
C1224 C1218 1.379 . S
C1224 C1221 1.363 . S
C1224 N1222 1.356 . S
C1225 C1219 1.363 . S
C1225 C1220 1.379 . S
C1225 N1223 1.356 . S
N1226 C1218 1.356 . S
N1226 H1232 0.984 . S
N1226 H1233 0.984 . S
N1227 C1220 1.356 . S
N1227 H1230 0.984 . S
N1227 H1231 0.985 . S
H1228 N1223 0.984 . S
H1229 N1223 0.985 . S
H1230 N1227 0.984 . S
H1231 N1227 0.985 . S
H1232 N1226 0.984 . S
H1233 N1226 0.984 . S
H1234 N1222 0.984 . S
H1235 N1222 0.985 . S
C1236 C1237 1.363 . S
C1236 C1242 1.379 . S
C1236 N1244 1.356 1_554 S
C1237 C1236 1.363 . S
C1237 C1243 1.363 . S
C1238 C1239 1.363 . S
C1238 C1243 1.379 . S
C1238 N1245 1.356 . S
C1239 C1238 1.363 . S
C1239 C1242 1.363 . S
N1240 C1242 1.356 1_556 S
N1240 H1252 0.984 . S
N1240 H1253 0.985 . S
N1241 C1243 1.356 . S
N1241 H1246 0.984 . S
N1241 H1247 0.985 . S
C1242 C1236 1.379 . S
C1242 C1239 1.363 . S
C1242 N1240 1.356 1_554 S
C1243 C1237 1.363 . S
C1243 C1238 1.379 . S
C1243 N1241 1.356 . S
N1244 C1236 1.356 1_556 S
N1244 H1250 0.984 . S
N1244 H1251 0.984 . S
N1245 C1238 1.356 . S
N1245 H1248 0.984 . S
N1245 H1249 0.985 . S
H1246 N1241 0.984 . S
H1247 N1241 0.985 . S
H1248 N1245 0.984 . S
H1249 N1245 0.985 . S
H1250 N1244 0.984 . S
H1251 N1244 0.984 . S
H1252 N1240 0.984 . S
H1253 N1240 0.985 . S
C1254 C1255 1.363 . S
C1254 C1260 1.379 . S
C1254 N1262 1.356 . S
C1255 C1254 1.363 . S
C1255 C1261 1.363 . S
C1256 C1257 1.363 . S
C1256 C1261 1.379 . S
C1256 N1263 1.356 . S
C1257 C1256 1.363 . S
C1257 C1260 1.363 . S
N1258 C1260 1.356 . S
N1258 H1270 0.984 . S
N1258 H1271 0.985 . S
N1259 C1261 1.356 . S
N1259 H1264 0.984 . S
N1259 H1265 0.985 . S
C1260 C1254 1.379 . S
C1260 C1257 1.363 . S
C1260 N1258 1.356 . S
C1261 C1255 1.363 . S
C1261 C1256 1.379 . S
C1261 N1259 1.356 . S
N1262 C1254 1.356 . S
N1262 H1268 0.984 . S
N1262 H1269 0.984 . S
N1263 C1256 1.356 . S
N1263 H1266 0.984 . S
N1263 H1267 0.985 . S
H1264 N1259 0.984 . S
H1265 N1259 0.985 . S
H1266 N1263 0.984 . S
H1267 N1263 0.985 . S
H1268 N1262 0.984 . S
H1269 N1262 0.984 . S
H1270 N1258 0.984 . S
H1271 N1258 0.985 . S
C1272 C1273 1.363 . S
C1272 C1278 1.379 . S
C1272 N1280 1.356 . S
C1273 C1272 1.363 . S
C1273 C1279 1.363 . S
C1274 C1275 1.363 . S
C1274 C1279 1.379 . S
C1274 N1281 1.356 . S
C1275 C1274 1.363 . S
C1275 C1278 1.363 . S
N1276 C1278 1.356 . S
N1276 H1288 0.984 1_556 S
N1276 H1289 0.985 . S
N1277 C1279 1.356 . S
N1277 H1282 0.984 . S
N1277 H1283 0.985 . S
C1278 C1272 1.379 . S
C1278 C1275 1.363 . S
C1278 N1276 1.356 . S
C1279 C1273 1.363 . S
C1279 C1274 1.379 . S
C1279 N1277 1.356 . S
N1280 C1272 1.356 . S
N1280 H1286 0.984 1_556 S
N1280 H1287 0.984 . S
N1281 C1274 1.356 . S
N1281 H1284 0.984 . S
N1281 H1285 0.985 . S
H1282 N1277 0.984 . S
H1283 N1277 0.985 . S
H1284 N1281 0.984 . S
H1285 N1281 0.985 . S
H1286 N1280 0.984 1_554 S
H1287 N1280 0.984 . S
H1288 N1276 0.984 1_554 S
H1289 N1276 0.985 . S
C1290 C1291 1.363 . S
C1290 C1296 1.379 1_455 S
C1290 N1298 1.356 . S
C1291 C1290 1.363 . S
C1291 C1297 1.363 . S
C1292 C1293 1.363 . S
C1292 C1297 1.379 1_655 S
C1292 N1299 1.356 . S
C1293 C1292 1.363 . S
C1293 C1296 1.363 . S
N1294 C1296 1.356 . S
N1294 H1306 0.984 . S
N1294 H1307 0.985 . S
N1295 C1297 1.356 . S
N1295 H1300 0.984 . S
N1295 H1301 0.985 . S
C1296 C1290 1.379 1_655 S
C1296 C1293 1.363 . S
C1296 N1294 1.356 . S
C1297 C1291 1.363 . S
C1297 C1292 1.379 1_455 S
C1297 N1295 1.356 . S
N1298 C1290 1.356 . S
N1298 H1304 0.984 . S
N1298 H1305 0.984 . S
N1299 C1292 1.356 . S
N1299 H1302 0.984 . S
N1299 H1303 0.985 . S
H1300 N1295 0.984 . S
H1301 N1295 0.985 . S
H1302 N1299 0.984 . S
H1303 N1299 0.985 . S
H1304 N1298 0.984 . S
H1305 N1298 0.984 . S
H1306 N1294 0.984 . S
H1307 N1294 0.985 . S
C1308 C1309 1.363 . S
C1308 C1314 1.379 1_455 S
C1308 N1316 1.356 . S
C1309 C1308 1.363 . S
C1309 C1315 1.363 . S
C1310 C1311 1.363 . S
C1310 C1315 1.379 1_655 S
C1310 N1317 1.356 . S
C1311 C1310 1.363 . S
C1311 C1314 1.363 . S
N1312 C1314 1.356 . S
N1312 H1324 0.984 . S
N1312 H1325 0.985 . S
N1313 C1315 1.356 . S
N1313 H1318 0.984 . S
N1313 H1319 0.985 . S
C1314 C1308 1.379 1_655 S
C1314 C1311 1.363 . S
C1314 N1312 1.356 . S
C1315 C1309 1.363 . S
C1315 C1310 1.379 1_455 S
C1315 N1313 1.356 . S
N1316 C1308 1.356 . S
N1316 H1322 0.984 . S
N1316 H1323 0.984 . S
N1317 C1310 1.356 . S
N1317 H1320 0.984 . S
N1317 H1321 0.985 . S
H1318 N1313 0.984 . S
H1319 N1313 0.985 . S
H1320 N1317 0.984 . S
H1321 N1317 0.985 . S
H1322 N1316 0.984 . S
H1323 N1316 0.984 . S
H1324 N1312 0.984 . S
H1325 N1312 0.985 . S
C1326 C1327 1.363 . S
C1326 C1332 1.379 . S
C1326 N1334 1.356 . S
C1327 C1326 1.363 . S
C1327 C1333 1.363 . S
C1328 C1329 1.363 . S
C1328 C1333 1.379 . S
C1328 N1335 1.356 . S
C1329 C1328 1.363 . S
C1329 C1332 1.363 . S
N1330 C1332 1.356 . S
N1330 H1342 0.984 . S
N1330 H1343 0.985 . S
N1331 C1333 1.356 . S
N1331 H1336 0.984 . S
N1331 H1337 0.985 . S
C1332 C1326 1.379 . S
C1332 C1329 1.363 . S
C1332 N1330 1.356 . S
C1333 C1327 1.363 . S
C1333 C1328 1.379 . S
C1333 N1331 1.356 . S
N1334 C1326 1.356 . S
N1334 H1340 0.984 . S
N1334 H1341 0.984 . S
N1335 C1328 1.356 . S
N1335 H1338 0.984 . S
N1335 H1339 0.985 . S
H1336 N1331 0.984 . S
H1337 N1331 0.985 . S
H1338 N1335 0.984 . S
H1339 N1335 0.985 . S
H1340 N1334 0.984 . S
H1341 N1334 0.984 . S
H1342 N1330 0.984 . S
H1343 N1330 0.985 . S
C1344 C1345 1.363 . S
C1344 C1350 1.379 . S
C1344 N1352 1.356 . S
C1345 C1344 1.363 . S
C1345 C1351 1.363 . S
C1346 C1347 1.363 . S
C1346 C1351 1.379 . S
C1346 N1353 1.356 . S
C1347 C1346 1.363 . S
C1347 C1350 1.363 . S
N1348 C1350 1.356 . S
N1348 H1360 0.984 . S
N1348 H1361 0.985 . S
N1349 C1351 1.356 . S
N1349 H1354 0.984 . S
N1349 H1355 0.985 . S
C1350 C1344 1.379 . S
C1350 C1347 1.363 . S
C1350 N1348 1.356 . S
C1351 C1345 1.363 . S
C1351 C1346 1.379 . S
C1351 N1349 1.356 . S
N1352 C1344 1.356 . S
N1352 H1358 0.984 . S
N1352 H1359 0.984 . S
N1353 C1346 1.356 . S
N1353 H1356 0.984 . S
N1353 H1357 0.985 . S
H1354 N1349 0.984 . S
H1355 N1349 0.985 . S
H1356 N1353 0.984 . S
H1357 N1353 0.985 . S
H1358 N1352 0.984 . S
H1359 N1352 0.984 . S
H1360 N1348 0.984 . S
H1361 N1348 0.985 . S
C1362 C1363 1.363 . S
C1362 C1368 1.379 . S
C1362 N1370 1.356 . S
C1363 C1362 1.363 . S
C1363 C1369 1.363 . S
C1364 C1365 1.363 . S
C1364 C1369 1.379 . S
C1364 N1371 1.356 . S
C1365 C1364 1.363 . S
C1365 C1368 1.363 . S
N1366 C1368 1.356 . S
N1366 H1378 0.984 . S
N1366 H1379 0.985 1_556 S
N1367 C1369 1.356 . S
N1367 H1372 0.984 . S
N1367 H1373 0.985 . S
C1368 C1362 1.379 . S
C1368 C1365 1.363 . S
C1368 N1366 1.356 . S
C1369 C1363 1.363 . S
C1369 C1364 1.379 . S
C1369 N1367 1.356 . S
N1370 C1362 1.356 . S
N1370 H1376 0.984 . S
N1370 H1377 0.984 . S
N1371 C1364 1.356 . S
N1371 H1374 0.984 . S
N1371 H1375 0.985 . S
H1372 N1367 0.984 . S
H1373 N1367 0.985 . S
H1374 N1371 0.984 . S
H1375 N1371 0.985 . S
H1376 N1370 0.984 . S
H1377 N1370 0.984 . S
H1378 N1366 0.984 . S
H1379 N1366 0.985 1_554 S
C1380 C1381 1.363 1_554 S
C1380 C1386 1.379 . S
C1380 N1388 1.356 1_554 S
C1381 C1380 1.363 1_556 S
C1381 C1387 1.363 1_556 S
C1382 C1383 1.363 . S
C1382 C1387 1.379 . S
C1382 N1389 1.356 . S
C1383 C1382 1.363 . S
C1383 C1386 1.363 . S
N1384 C1386 1.356 . S
N1384 H1396 0.984 . S
N1384 H1397 0.985 . S
N1385 C1387 1.356 1_556 S
N1385 H1390 0.984 . S
N1385 H1391 0.985 1_556 S
C1386 C1380 1.379 . S
C1386 C1383 1.363 . S
C1386 N1384 1.356 . S
C1387 C1381 1.363 1_554 S
C1387 C1382 1.379 . S
C1387 N1385 1.356 1_554 S
N1388 C1380 1.356 1_556 S
N1388 H1394 0.984 . S
N1388 H1395 0.984 . S
N1389 C1382 1.356 . S
N1389 H1392 0.984 . S
N1389 H1393 0.985 . S
H1390 N1385 0.984 . S
H1391 N1385 0.985 1_554 S
H1392 N1389 0.984 . S
H1393 N1389 0.985 . S
H1394 N1388 0.984 . S
H1395 N1388 0.984 . S
H1396 N1384 0.984 . S
H1397 N1384 0.985 . S
C1398 C1399 1.363 . S
C1398 C1404 1.379 . S
C1398 N1406 1.356 . S
C1399 C1398 1.363 . S
C1399 C1405 1.363 . S
C1400 C1401 1.363 . S
C1400 C1405 1.379 . S
C1400 N1407 1.356 . S
C1401 C1400 1.363 . S
C1401 C1404 1.363 . S
N1402 C1404 1.356 . S
N1402 H1414 0.984 . S
N1402 H1415 0.985 . S
N1403 C1405 1.356 . S
N1403 H1408 0.984 . S
N1403 H1409 0.985 . S
C1404 C1398 1.379 . S
C1404 C1401 1.363 . S
C1404 N1402 1.356 . S
C1405 C1399 1.363 . S
C1405 C1400 1.379 . S
C1405 N1403 1.356 . S
N1406 C1398 1.356 . S
N1406 H1412 0.984 . S
N1406 H1413 0.984 . S
N1407 C1400 1.356 . S
N1407 H1410 0.984 . S
N1407 H1411 0.985 . S
H1408 N1403 0.984 . S
H1409 N1403 0.985 . S
H1410 N1407 0.984 . S
H1411 N1407 0.985 . S
H1412 N1406 0.984 . S
H1413 N1406 0.984 . S
H1414 N1402 0.984 . S
H1415 N1402 0.985 . S
C1416 C1417 1.363 . S
C1416 C1422 1.379 . S
C1416 N1424 1.356 . S
C1417 C1416 1.363 . S
C1417 C1423 1.363 . S
C1418 C1419 1.363 . S
C1418 C1423 1.379 . S
C1418 N1425 1.356 . S
C1419 C1418 1.363 . S
C1419 C1422 1.363 . S
N1420 C1422 1.356 . S
N1420 H1432 0.984 . S
N1420 H1433 0.985 . S
N1421 C1423 1.356 . S
N1421 H1426 0.984 . S
N1421 H1427 0.985 . S
C1422 C1416 1.379 . S
C1422 C1419 1.363 . S
C1422 N1420 1.356 . S
C1423 C1417 1.363 . S
C1423 C1418 1.379 . S
C1423 N1421 1.356 . S
N1424 C1416 1.356 . S
N1424 H1430 0.984 . S
N1424 H1431 0.984 . S
N1425 C1418 1.356 . S
N1425 H1428 0.984 . S
N1425 H1429 0.985 . S
H1426 N1421 0.984 . S
H1427 N1421 0.985 . S
H1428 N1425 0.984 . S
H1429 N1425 0.985 . S
H1430 N1424 0.984 . S
H1431 N1424 0.984 . S
H1432 N1420 0.984 . S
H1433 N1420 0.985 . S
C1434 C1435 1.363 . S
C1434 C1440 1.379 . S
C1434 N1442 1.356 . S
C1435 C1434 1.363 . S
C1435 C1441 1.363 . S
C1436 C1437 1.363 . S
C1436 C1441 1.379 . S
C1436 N1443 1.356 . S
C1437 C1436 1.363 . S
C1437 C1440 1.363 . S
N1438 C1440 1.356 . S
N1438 H1450 0.984 . S
N1438 H1451 0.985 . S
N1439 C1441 1.356 . S
N1439 H1444 0.984 . S
N1439 H1445 0.985 . S
C1440 C1434 1.379 . S
C1440 C1437 1.363 . S
C1440 N1438 1.356 . S
C1441 C1435 1.363 . S
C1441 C1436 1.379 . S
C1441 N1439 1.356 . S
N1442 C1434 1.356 . S
N1442 H1448 0.984 . S
N1442 H1449 0.984 . S
N1443 C1436 1.356 . S
N1443 H1446 0.984 . S
N1443 H1447 0.985 . S
H1444 N1439 0.984 . S
H1445 N1439 0.985 . S
H1446 N1443 0.984 . S
H1447 N1443 0.985 . S
H1448 N1442 0.984 . S
H1449 N1442 0.984 . S
H1450 N1438 0.984 . S
H1451 N1438 0.985 . S
C1452 C1453 1.363 . S
C1452 C1458 1.379 . S
C1452 N1460 1.356 . S
C1453 C1452 1.363 . S
C1453 C1459 1.363 . S
C1454 C1455 1.363 1_556 S
C1454 C1459 1.379 . S
C1454 N1461 1.356 1_556 S
C1455 C1454 1.363 1_554 S
C1455 C1458 1.363 1_554 S
N1456 C1458 1.356 1_554 S
N1456 H1468 0.984 . S
N1456 H1469 0.985 . S
N1457 C1459 1.356 . S
N1457 H1462 0.984 . S
N1457 H1463 0.985 . S
C1458 C1452 1.379 . S
C1458 C1455 1.363 1_556 S
C1458 N1456 1.356 1_556 S
C1459 C1453 1.363 . S
C1459 C1454 1.379 . S
C1459 N1457 1.356 . S
N1460 C1452 1.356 . S
N1460 H1466 0.984 . S
N1460 H1467 0.984 . S
N1461 C1454 1.356 1_554 S
N1461 H1464 0.984 . S
N1461 H1465 0.985 1_554 S
H1462 N1457 0.984 . S
H1463 N1457 0.985 . S
H1464 N1461 0.984 . S
H1465 N1461 0.985 1_556 S
H1466 N1460 0.984 . S
H1467 N1460 0.984 . S
H1468 N1456 0.984 . S
H1469 N1456 0.985 . S
C1470 C1471 1.363 . S
C1470 C1476 1.379 . S
C1470 N1478 1.356 . S
C1471 C1470 1.363 . S
C1471 C1477 1.363 . S
C1472 C1473 1.363 . S
C1472 C1477 1.379 . S
C1472 N1479 1.356 . S
C1473 C1472 1.363 . S
C1473 C1476 1.363 . S
N1474 C1476 1.356 . S
N1474 H1486 0.984 . S
N1474 H1487 0.985 . S
N1475 C1477 1.356 . S
N1475 H1480 0.984 . S
N1475 H1481 0.985 . S
C1476 C1470 1.379 . S
C1476 C1473 1.363 . S
C1476 N1474 1.356 . S
C1477 C1471 1.363 . S
C1477 C1472 1.379 . S
C1477 N1475 1.356 . S
N1478 C1470 1.356 . S
N1478 H1484 0.984 . S
N1478 H1485 0.984 . S
N1479 C1472 1.356 . S
N1479 H1482 0.984 1_554 S
N1479 H1483 0.985 . S
H1480 N1475 0.984 . S
H1481 N1475 0.985 . S
H1482 N1479 0.984 1_556 S
H1483 N1479 0.985 . S
H1484 N1478 0.984 . S
H1485 N1478 0.984 . S
H1486 N1474 0.984 . S
H1487 N1474 0.985 . S
C1488 C1489 1.363 . S
C1488 C1494 1.379 . S
C1488 N1496 1.356 . S
C1489 C1488 1.363 . S
C1489 C1495 1.363 . S
C1490 C1491 1.363 . S
C1490 C1495 1.379 . S
C1490 N1497 1.356 . S
C1491 C1490 1.363 . S
C1491 C1494 1.363 . S
N1492 C1494 1.356 . S
N1492 H1504 0.984 . S
N1492 H1505 0.985 . S
N1493 C1495 1.356 . S
N1493 H1498 0.984 . S
N1493 H1499 0.985 . S
C1494 C1488 1.379 . S
C1494 C1491 1.363 . S
C1494 N1492 1.356 . S
C1495 C1489 1.363 . S
C1495 C1490 1.379 . S
C1495 N1493 1.356 . S
N1496 C1488 1.356 . S
N1496 H1502 0.984 . S
N1496 H1503 0.984 . S
N1497 C1490 1.356 . S
N1497 H1500 0.984 . S
N1497 H1501 0.985 . S
H1498 N1493 0.984 . S
H1499 N1493 0.985 . S
H1500 N1497 0.984 . S
H1501 N1497 0.985 . S
H1502 N1496 0.984 . S
H1503 N1496 0.984 . S
H1504 N1492 0.984 . S
H1505 N1492 0.985 . S
C1506 C1507 1.363 . S
C1506 C1512 1.379 . S
C1506 N1514 1.356 . S
C1507 C1506 1.363 . S
C1507 C1513 1.363 . S
C1508 C1509 1.363 . S
C1508 C1513 1.379 . S
C1508 N1515 1.356 . S
C1509 C1508 1.363 . S
C1509 C1512 1.363 . S
N1510 C1512 1.356 . S
N1510 H1522 0.984 . S
N1510 H1523 0.985 . S
N1511 C1513 1.356 . S
N1511 H1516 0.984 . S
N1511 H1517 0.985 . S
C1512 C1506 1.379 . S
C1512 C1509 1.363 . S
C1512 N1510 1.356 . S
C1513 C1507 1.363 . S
C1513 C1508 1.379 . S
C1513 N1511 1.356 . S
N1514 C1506 1.356 . S
N1514 H1520 0.984 . S
N1514 H1521 0.984 1_554 S
N1515 C1508 1.356 . S
N1515 H1518 0.984 . S
N1515 H1519 0.985 . S
H1516 N1511 0.984 . S
H1517 N1511 0.985 . S
H1518 N1515 0.984 . S
H1519 N1515 0.985 . S
H1520 N1514 0.984 . S
H1521 N1514 0.984 1_556 S
H1522 N1510 0.984 . S
H1523 N1510 0.985 . S
C1524 C1525 1.363 1_556 S
C1524 C1530 1.379 . S
C1524 N1532 1.356 1_556 S
C1525 C1524 1.363 1_554 S
C1525 C1531 1.363 1_554 S
C1526 C1527 1.363 . S
C1526 C1531 1.379 . S
C1526 N1533 1.356 . S
C1527 C1526 1.363 . S
C1527 C1530 1.363 . S
N1528 C1530 1.356 . S
N1528 H1540 0.984 . S
N1528 H1541 0.985 . S
N1529 C1531 1.356 1_554 S
N1529 H1534 0.984 . S
N1529 H1535 0.985 . S
C1530 C1524 1.379 . S
C1530 C1527 1.363 . S
C1530 N1528 1.356 . S
C1531 C1525 1.363 1_556 S
C1531 C1526 1.379 . S
C1531 N1529 1.356 1_556 S
N1532 C1524 1.356 1_554 S
N1532 H1538 0.984 1_554 S
N1532 H1539 0.984 . S
N1533 C1526 1.356 . S
N1533 H1536 0.984 . S
N1533 H1537 0.985 . S
H1534 N1529 0.984 . S
H1535 N1529 0.985 . S
H1536 N1533 0.984 . S
H1537 N1533 0.985 . S
H1538 N1532 0.984 1_556 S
H1539 N1532 0.984 . S
H1540 N1528 0.984 . S
H1541 N1528 0.985 . S
C1542 C1543 1.363 . S
C1542 C1548 1.379 . S
C1542 N1550 1.356 . S
C1543 C1542 1.363 . S
C1543 C1549 1.363 . S
C1544 C1545 1.363 . S
C1544 C1549 1.379 . S
C1544 N1551 1.356 . S
C1545 C1544 1.363 . S
C1545 C1548 1.363 . S
N1546 C1548 1.356 . S
N1546 H1558 0.984 . S
N1546 H1559 0.985 . S
N1547 C1549 1.356 . S
N1547 H1552 0.984 . S
N1547 H1553 0.985 . S
C1548 C1542 1.379 . S
C1548 C1545 1.363 . S
C1548 N1546 1.356 . S
C1549 C1543 1.363 . S
C1549 C1544 1.379 . S
C1549 N1547 1.356 . S
N1550 C1542 1.356 . S
N1550 H1556 0.984 . S
N1550 H1557 0.984 . S
N1551 C1544 1.356 . S
N1551 H1554 0.984 . S
N1551 H1555 0.985 . S
H1552 N1547 0.984 . S
H1553 N1547 0.985 . S
H1554 N1551 0.984 . S
H1555 N1551 0.985 . S
H1556 N1550 0.984 . S
H1557 N1550 0.984 . S
H1558 N1546 0.984 . S
H1559 N1546 0.985 . S
C1560 C1561 1.363 . S
C1560 C1566 1.379 . S
C1560 N1568 1.356 . S
C1561 C1560 1.363 . S
C1561 C1567 1.363 . S
C1562 C1563 1.363 . S
C1562 C1567 1.379 . S
C1562 N1569 1.356 . S
C1563 C1562 1.363 . S
C1563 C1566 1.363 . S
N1564 C1566 1.356 . S
N1564 H1576 0.984 . S
N1564 H1577 0.985 . S
N1565 C1567 1.356 . S
N1565 H1570 0.984 . S
N1565 H1571 0.985 . S
C1566 C1560 1.379 . S
C1566 C1563 1.363 . S
C1566 N1564 1.356 . S
C1567 C1561 1.363 . S
C1567 C1562 1.379 . S
C1567 N1565 1.356 . S
N1568 C1560 1.356 . S
N1568 H1574 0.984 . S
N1568 H1575 0.984 . S
N1569 C1562 1.356 . S
N1569 H1572 0.984 . S
N1569 H1573 0.985 . S
H1570 N1565 0.984 . S
H1571 N1565 0.985 . S
H1572 N1569 0.984 . S
H1573 N1569 0.985 . S
H1574 N1568 0.984 . S
H1575 N1568 0.984 . S
H1576 N1564 0.984 . S
H1577 N1564 0.985 . S
C1578 C1579 1.363 . S
C1578 C1584 1.379 . S
C1578 N1586 1.356 . S
C1579 C1578 1.363 . S
C1579 C1585 1.363 . S
C1580 C1581 1.363 . S
C1580 C1585 1.379 . S
C1580 N1587 1.356 . S
C1581 C1580 1.363 . S
C1581 C1584 1.363 . S
N1582 C1584 1.356 . S
N1582 H1594 0.984 . S
N1582 H1595 0.985 . S
N1583 C1585 1.356 . S
N1583 H1588 0.984 . S
N1583 H1589 0.985 . S
C1584 C1578 1.379 . S
C1584 C1581 1.363 . S
C1584 N1582 1.356 . S
C1585 C1579 1.363 . S
C1585 C1580 1.379 . S
C1585 N1583 1.356 . S
N1586 C1578 1.356 . S
N1586 H1592 0.984 . S
N1586 H1593 0.984 . S
N1587 C1580 1.356 . S
N1587 H1590 0.984 . S
N1587 H1591 0.985 . S
H1588 N1583 0.984 . S
H1589 N1583 0.985 . S
H1590 N1587 0.984 . S
H1591 N1587 0.985 . S
H1592 N1586 0.984 . S
H1593 N1586 0.984 . S
H1594 N1582 0.984 . S
H1595 N1582 0.985 . S
C1596 C1597 1.363 1_554 S
C1596 C1602 1.379 . S
C1596 N1604 1.356 1_554 S
C1597 C1596 1.363 1_556 S
C1597 C1603 1.363 1_556 S
C1598 C1599 1.363 . S
C1598 C1603 1.379 . S
C1598 N1605 1.356 . S
C1599 C1598 1.363 . S
C1599 C1602 1.363 . S
N1600 C1602 1.356 . S
N1600 H1612 0.984 . S
N1600 H1613 0.985 . S
N1601 C1603 1.356 1_556 S
N1601 H1606 0.984 . S
N1601 H1607 0.985 1_556 S
C1602 C1596 1.379 . S
C1602 C1599 1.363 . S
C1602 N1600 1.356 . S
C1603 C1597 1.363 1_554 S
C1603 C1598 1.379 . S
C1603 N1601 1.356 1_554 S
N1604 C1596 1.356 1_556 S
N1604 H1610 0.984 . S
N1604 H1611 0.984 . S
N1605 C1598 1.356 . S
N1605 H1608 0.984 . S
N1605 H1609 0.985 . S
H1606 N1601 0.984 . S
H1607 N1601 0.985 1_554 S
H1608 N1605 0.984 . S
H1609 N1605 0.985 . S
H1610 N1604 0.984 . S
H1611 N1604 0.984 . S
H1612 N1600 0.984 . S
H1613 N1600 0.985 . S
C1614 C1615 1.363 . S
C1614 C1620 1.379 . S
C1614 N1622 1.356 . S
C1615 C1614 1.363 . S
C1615 C1621 1.363 . S
C1616 C1617 1.363 . S
C1616 C1621 1.379 . S
C1616 N1623 1.356 . S
C1617 C1616 1.363 . S
C1617 C1620 1.363 . S
N1618 C1620 1.356 . S
N1618 H1630 0.984 . S
N1618 H1631 0.985 . S
N1619 C1621 1.356 . S
N1619 H1624 0.984 1_556 S
N1619 H1625 0.985 . S
C1620 C1614 1.379 . S
C1620 C1617 1.363 . S
C1620 N1618 1.356 . S
C1621 C1615 1.363 . S
C1621 C1616 1.379 . S
C1621 N1619 1.356 . S
N1622 C1614 1.356 . S
N1622 H1628 0.984 . S
N1622 H1629 0.984 . S
N1623 C1616 1.356 . S
N1623 H1626 0.984 . S
N1623 H1627 0.985 . S
H1624 N1619 0.984 1_554 S
H1625 N1619 0.985 . S
H1626 N1623 0.984 . S
H1627 N1623 0.985 . S
H1628 N1622 0.984 . S
H1629 N1622 0.984 . S
H1630 N1618 0.984 . S
H1631 N1618 0.985 . S
C1632 C1633 1.363 . S
C1632 C1638 1.379 . S
C1632 N1640 1.356 . S
C1633 C1632 1.363 . S
C1633 C1639 1.363 . S
C1634 C1635 1.363 1_554 S
C1634 C1639 1.379 . S
C1634 N1641 1.356 1_554 S
C1635 C1634 1.363 1_556 S
C1635 C1638 1.363 1_556 S
N1636 C1638 1.356 1_556 S
N1636 H1648 0.984 . S
N1636 H1649 0.985 . S
N1637 C1639 1.356 . S
N1637 H1642 0.984 . S
N1637 H1643 0.985 . S
C1638 C1632 1.379 . S
C1638 C1635 1.363 1_554 S
C1638 N1636 1.356 1_554 S
C1639 C1633 1.363 . S
C1639 C1634 1.379 . S
C1639 N1637 1.356 . S
N1640 C1632 1.356 . S
N1640 H1646 0.984 . S
N1640 H1647 0.984 . S
N1641 C1634 1.356 1_556 S
N1641 H1644 0.984 . S
N1641 H1645 0.985 1_556 S
H1642 N1637 0.984 . S
H1643 N1637 0.985 . S
H1644 N1641 0.984 . S
H1645 N1641 0.985 1_554 S
H1646 N1640 0.984 . S
H1647 N1640 0.984 . S
H1648 N1636 0.984 . S
H1649 N1636 0.985 . S
C1650 C1651 1.363 . S
C1650 C1656 1.379 . S
C1650 N1658 1.356 . S
C1651 C1650 1.363 . S
C1651 C1657 1.363 . S
C1652 C1653 1.363 . S
C1652 C1657 1.379 . S
C1652 N1659 1.356 . S
C1653 C1652 1.363 . S
C1653 C1656 1.363 . S
N1654 C1656 1.356 . S
N1654 H1666 0.984 . S
N1654 H1667 0.985 . S
N1655 C1657 1.356 . S
N1655 H1660 0.984 . S
N1655 H1661 0.985 . S
C1656 C1650 1.379 . S
C1656 C1653 1.363 . S
C1656 N1654 1.356 . S
C1657 C1651 1.363 . S
C1657 C1652 1.379 . S
C1657 N1655 1.356 . S
N1658 C1650 1.356 . S
N1658 H1664 0.984 . S
N1658 H1665 0.984 . S
N1659 C1652 1.356 . S
N1659 H1662 0.984 . S
N1659 H1663 0.985 . S
H1660 N1655 0.984 . S
H1661 N1655 0.985 . S
H1662 N1659 0.984 . S
H1663 N1659 0.985 . S
H1664 N1658 0.984 . S
H1665 N1658 0.984 . S
H1666 N1654 0.984 . S
H1667 N1654 0.985 . S
C1668 C1669 1.363 . S
C1668 C1674 1.379 . S
C1668 N1676 1.356 . S
C1669 C1668 1.363 . S
C1669 C1675 1.363 . S
C1670 C1671 1.363 . S
C1670 C1675 1.379 . S
C1670 N1677 1.356 . S
C1671 C1670 1.363 . S
C1671 C1674 1.363 . S
N1672 C1674 1.356 . S
N1672 H1684 0.984 . S
N1672 H1685 0.985 . S
N1673 C1675 1.356 . S
N1673 H1678 0.984 . S
N1673 H1679 0.985 . S
C1674 C1668 1.379 . S
C1674 C1671 1.363 . S
C1674 N1672 1.356 . S
C1675 C1669 1.363 . S
C1675 C1670 1.379 . S
C1675 N1673 1.356 . S
N1676 C1668 1.356 . S
N1676 H1682 0.984 . S
N1676 H1683 0.984 . S
N1677 C1670 1.356 . S
N1677 H1680 0.984 . S
N1677 H1681 0.985 . S
H1678 N1673 0.984 . S
H1679 N1673 0.985 . S
H1680 N1677 0.984 . S
H1681 N1677 0.985 . S
H1682 N1676 0.984 . S
H1683 N1676 0.984 . S
H1684 N1672 0.984 . S
H1685 N1672 0.985 . S
C1686 C1687 1.363 . S
C1686 C1692 1.379 . S
C1686 N1694 1.356 . S
C1687 C1686 1.363 . S
C1687 C1693 1.363 . S
C1688 C1689 1.363 . S
C1688 C1693 1.379 . S
C1688 N1695 1.356 . S
C1689 C1688 1.363 . S
C1689 C1692 1.363 . S
N1690 C1692 1.356 . S
N1690 H1702 0.984 . S
N1690 H1703 0.985 . S
N1691 C1693 1.356 . S
N1691 H1696 0.984 1_556 S
N1691 H1697 0.985 . S
C1692 C1686 1.379 . S
C1692 C1689 1.363 . S
C1692 N1690 1.356 . S
C1693 C1687 1.363 . S
C1693 C1688 1.379 . S
C1693 N1691 1.356 . S
N1694 C1686 1.356 . S
N1694 H1700 0.984 . S
N1694 H1701 0.984 1_556 S
N1695 C1688 1.356 . S
N1695 H1698 0.984 . S
N1695 H1699 0.985 . S
H1696 N1691 0.984 1_554 S
H1697 N1691 0.985 . S
H1698 N1695 0.984 . S
H1699 N1695 0.985 . S
H1700 N1694 0.984 . S
H1701 N1694 0.984 1_554 S
H1702 N1690 0.984 . S
H1703 N1690 0.985 . S
C1704 C1705 1.363 . S
C1704 C1710 1.379 . S
C1704 N1712 1.356 . S
C1705 C1704 1.363 . S
C1705 C1711 1.363 . S
C1706 C1707 1.363 1_556 S
C1706 C1711 1.379 . S
C1706 N1713 1.356 1_556 S
C1707 C1706 1.363 1_554 S
C1707 C1710 1.363 1_554 S
N1708 C1710 1.356 1_554 S
N1708 H1720 0.984 1_554 S
N1708 H1721 0.985 . S
N1709 C1711 1.356 . S
N1709 H1714 0.984 . S
N1709 H1715 0.985 . S
C1710 C1704 1.379 . S
C1710 C1707 1.363 1_556 S
C1710 N1708 1.356 1_556 S
C1711 C1705 1.363 . S
C1711 C1706 1.379 . S
C1711 N1709 1.356 . S
N1712 C1704 1.356 . S
N1712 H1718 0.984 . S
N1712 H1719 0.984 . S
N1713 C1706 1.356 1_554 S
N1713 H1716 0.984 . S
N1713 H1717 0.985 . S
H1714 N1709 0.984 . S
H1715 N1709 0.985 . S
H1716 N1713 0.984 . S
H1717 N1713 0.985 . S
H1718 N1712 0.984 . S
H1719 N1712 0.984 . S
H1720 N1708 0.984 1_556 S
H1721 N1708 0.985 . S
C1722 C1723 1.363 . S
C1722 C1728 1.379 . S
C1722 N1730 1.356 . S
C1723 C1722 1.363 . S
C1723 C1729 1.363 . S
C1724 C1725 1.363 . S
C1724 C1729 1.379 . S
C1724 N1731 1.356 . S
C1725 C1724 1.363 . S
C1725 C1728 1.363 . S
N1726 C1728 1.356 . S
N1726 H1738 0.984 . S
N1726 H1739 0.985 . S
N1727 C1729 1.356 . S
N1727 H1732 0.984 . S
N1727 H1733 0.985 . S
C1728 C1722 1.379 . S
C1728 C1725 1.363 . S
C1728 N1726 1.356 . S
C1729 C1723 1.363 . S
C1729 C1724 1.379 . S
C1729 N1727 1.356 . S
N1730 C1722 1.356 . S
N1730 H1736 0.984 . S
N1730 H1737 0.984 1_554 S
N1731 C1724 1.356 . S
N1731 H1734 0.984 . S
N1731 H1735 0.985 . S
H1732 N1727 0.984 . S
H1733 N1727 0.985 . S
H1734 N1731 0.984 . S
H1735 N1731 0.985 . S
H1736 N1730 0.984 . S
H1737 N1730 0.984 1_556 S
H1738 N1726 0.984 . S
H1739 N1726 0.985 . S
C1740 C1741 1.363 . S
C1740 C1746 1.379 . S
C1740 N1748 1.356 . S
C1741 C1740 1.363 . S
C1741 C1747 1.363 . S
C1742 C1743 1.363 . S
C1742 C1747 1.379 . S
C1742 N1749 1.356 . S
C1743 C1742 1.363 . S
C1743 C1746 1.363 . S
N1744 C1746 1.356 . S
N1744 H1756 0.984 . S
N1744 H1757 0.985 . S
N1745 C1747 1.356 . S
N1745 H1750 0.984 . S
N1745 H1751 0.985 . S
C1746 C1740 1.379 . S
C1746 C1743 1.363 . S
C1746 N1744 1.356 . S
C1747 C1741 1.363 . S
C1747 C1742 1.379 . S
C1747 N1745 1.356 . S
N1748 C1740 1.356 . S
N1748 H1754 0.984 . S
N1748 H1755 0.984 . S
N1749 C1742 1.356 . S
N1749 H1752 0.984 . S
N1749 H1753 0.985 . S
H1750 N1745 0.984 . S
H1751 N1745 0.985 . S
H1752 N1749 0.984 . S
H1753 N1749 0.985 . S
H1754 N1748 0.984 . S
H1755 N1748 0.984 . S
H1756 N1744 0.984 . S
H1757 N1744 0.985 . S
C1758 C1759 1.363 . S
C1758 C1764 1.379 . S
C1758 N1766 1.356 . S
C1759 C1758 1.363 . S
C1759 C1765 1.363 . S
C1760 C1761 1.363 . S
C1760 C1765 1.379 . S
C1760 N1767 1.356 . S
C1761 C1760 1.363 . S
C1761 C1764 1.363 . S
N1762 C1764 1.356 . S
N1762 H1774 0.984 . S
N1762 H1775 0.985 . S
N1763 C1765 1.356 . S
N1763 H1768 0.984 . S
N1763 H1769 0.985 . S
C1764 C1758 1.379 . S
C1764 C1761 1.363 . S
C1764 N1762 1.356 . S
C1765 C1759 1.363 . S
C1765 C1760 1.379 . S
C1765 N1763 1.356 . S
N1766 C1758 1.356 . S
N1766 H1772 0.984 . S
N1766 H1773 0.984 . S
N1767 C1760 1.356 . S
N1767 H1770 0.984 . S
N1767 H1771 0.985 . S
H1768 N1763 0.984 . S
H1769 N1763 0.985 . S
H1770 N1767 0.984 . S
H1771 N1767 0.985 . S
H1772 N1766 0.984 . S
H1773 N1766 0.984 . S
H1774 N1762 0.984 . S
H1775 N1762 0.985 . S
C1776 C1777 1.363 . S
C1776 C1782 1.379 . S
C1776 N1784 1.356 . S
C1777 C1776 1.363 . S
C1777 C1783 1.363 . S
C1778 C1779 1.363 1_556 S
C1778 C1783 1.379 . S
C1778 N1785 1.356 1_556 S
C1779 C1778 1.363 1_554 S
C1779 C1782 1.363 1_554 S
N1780 C1782 1.356 1_554 S
N1780 H1792 0.984 1_554 S
N1780 H1793 0.985 . S
N1781 C1783 1.356 . S
N1781 H1786 0.984 . S
N1781 H1787 0.985 . S
C1782 C1776 1.379 . S
C1782 C1779 1.363 1_556 S
C1782 N1780 1.356 1_556 S
C1783 C1777 1.363 . S
C1783 C1778 1.379 . S
C1783 N1781 1.356 . S
N1784 C1776 1.356 . S
N1784 H1790 0.984 . S
N1784 H1791 0.984 . S
N1785 C1778 1.356 1_554 S
N1785 H1788 0.984 . S
N1785 H1789 0.985 . S
H1786 N1781 0.984 . S
H1787 N1781 0.985 . S
H1788 N1785 0.984 . S
H1789 N1785 0.985 . S
H1790 N1784 0.984 . S
H1791 N1784 0.984 . S
H1792 N1780 0.984 1_556 S
H1793 N1780 0.985 . S
C1794 C1795 1.363 . S
C1794 C1800 1.379 . S
C1794 N1802 1.356 . S
C1795 C1794 1.363 . S
C1795 C1801 1.363 . S
C1796 C1797 1.363 . S
C1796 C1801 1.379 . S
C1796 N1803 1.356 . S
C1797 C1796 1.363 . S
C1797 C1800 1.363 . S
N1798 C1800 1.356 . S
N1798 H1810 0.984 . S
N1798 H1811 0.985 . S
N1799 C1801 1.356 . S
N1799 H1804 0.984 . S
N1799 H1805 0.985 . S
C1800 C1794 1.379 . S
C1800 C1797 1.363 . S
C1800 N1798 1.356 . S
C1801 C1795 1.363 . S
C1801 C1796 1.379 . S
C1801 N1799 1.356 . S
N1802 C1794 1.356 . S
N1802 H1808 0.984 . S
N1802 H1809 0.984 . S
N1803 C1796 1.356 . S
N1803 H1806 0.984 . S
N1803 H1807 0.985 . S
H1804 N1799 0.984 . S
H1805 N1799 0.985 . S
H1806 N1803 0.984 . S
H1807 N1803 0.985 . S
H1808 N1802 0.984 . S
H1809 N1802 0.984 . S
H1810 N1798 0.984 . S
H1811 N1798 0.985 . S
C1812 C1813 1.363 . S
C1812 C1818 1.379 . S
C1812 N1820 1.356 . S
C1813 C1812 1.363 . S
C1813 C1819 1.363 . S
C1814 C1815 1.363 . S
C1814 C1819 1.379 . S
C1814 N1821 1.356 . S
C1815 C1814 1.363 . S
C1815 C1818 1.363 . S
N1816 C1818 1.356 . S
N1816 H1828 0.984 . S
N1816 H1829 0.985 . S
N1817 C1819 1.356 . S
N1817 H1822 0.984 . S
N1817 H1823 0.985 . S
C1818 C1812 1.379 . S
C1818 C1815 1.363 . S
C1818 N1816 1.356 . S
C1819 C1813 1.363 . S
C1819 C1814 1.379 . S
C1819 N1817 1.356 . S
N1820 C1812 1.356 . S
N1820 H1826 0.984 . S
N1820 H1827 0.984 . S
N1821 C1814 1.356 . S
N1821 H1824 0.984 . S
N1821 H1825 0.985 . S
H1822 N1817 0.984 . S
H1823 N1817 0.985 . S
H1824 N1821 0.984 . S
H1825 N1821 0.985 . S
H1826 N1820 0.984 . S
H1827 N1820 0.984 . S
H1828 N1816 0.984 . S
H1829 N1816 0.985 . S
C1830 C1831 1.363 . S
C1830 C1836 1.379 . S
C1830 N1838 1.356 . S
C1831 C1830 1.363 . S
C1831 C1837 1.363 . S
C1832 C1833 1.363 . S
C1832 C1837 1.379 . S
C1832 N1839 1.356 . S
C1833 C1832 1.363 . S
C1833 C1836 1.363 . S
N1834 C1836 1.356 . S
N1834 H1846 0.984 . S
N1834 H1847 0.985 . S
N1835 C1837 1.356 . S
N1835 H1840 0.984 . S
N1835 H1841 0.985 . S
C1836 C1830 1.379 . S
C1836 C1833 1.363 . S
C1836 N1834 1.356 . S
C1837 C1831 1.363 . S
C1837 C1832 1.379 . S
C1837 N1835 1.356 . S
N1838 C1830 1.356 . S
N1838 H1844 0.984 1_554 S
N1838 H1845 0.984 1_554 S
N1839 C1832 1.356 . S
N1839 H1842 0.984 . S
N1839 H1843 0.985 . S
H1840 N1835 0.984 . S
H1841 N1835 0.985 . S
H1842 N1839 0.984 . S
H1843 N1839 0.985 . S
H1844 N1838 0.984 1_556 S
H1845 N1838 0.984 1_556 S
H1846 N1834 0.984 . S
H1847 N1834 0.985 . S
C1848 C1849 1.363 . S
C1848 C1854 1.379 . S
C1848 N1856 1.356 . S
C1849 C1848 1.363 . S
C1849 C1855 1.363 . S
C1850 C1851 1.363 1_554 S
C1850 C1855 1.379 . S
C1850 N1857 1.356 1_554 S
C1851 C1850 1.363 1_556 S
C1851 C1854 1.363 1_556 S
N1852 C1854 1.356 1_556 S
N1852 H1864 0.984 1_556 S
N1852 H1865 0.985 . S
N1853 C1855 1.356 . S
N1853 H1858 0.984 . S
N1853 H1859 0.985 . S
C1854 C1848 1.379 . S
C1854 C1851 1.363 1_554 S
C1854 N1852 1.356 1_554 S
C1855 C1849 1.363 . S
C1855 C1850 1.379 . S
C1855 N1853 1.356 . S
N1856 C1848 1.356 . S
N1856 H1862 0.984 . S
N1856 H1863 0.984 . S
N1857 C1850 1.356 1_556 S
N1857 H1860 0.984 . S
N1857 H1861 0.985 . S
H1858 N1853 0.984 . S
H1859 N1853 0.985 . S
H1860 N1857 0.984 . S
H1861 N1857 0.985 . S
H1862 N1856 0.984 . S
H1863 N1856 0.984 . S
H1864 N1852 0.984 1_554 S
H1865 N1852 0.985 . S
C1866 C1867 1.363 . S
C1866 C1872 1.379 . S
C1866 N1874 1.356 . S
C1867 C1866 1.363 . S
C1867 C1873 1.363 . S
C1868 C1869 1.363 . S
C1868 C1873 1.379 . S
C1868 N1875 1.356 . S
C1869 C1868 1.363 . S
C1869 C1872 1.363 . S
N1870 C1872 1.356 . S
N1870 H1882 0.984 . S
N1870 H1883 0.985 . S
N1871 C1873 1.356 . S
N1871 H1876 0.984 1_556 S
N1871 H1877 0.985 . S
C1872 C1866 1.379 . S
C1872 C1869 1.363 . S
C1872 N1870 1.356 . S
C1873 C1867 1.363 . S
C1873 C1868 1.379 . S
C1873 N1871 1.356 . S
N1874 C1866 1.356 . S
N1874 H1880 0.984 . S
N1874 H1881 0.984 . S
N1875 C1868 1.356 . S
N1875 H1878 0.984 . S
N1875 H1879 0.985 . S
H1876 N1871 0.984 1_554 S
H1877 N1871 0.985 . S
H1878 N1875 0.984 . S
H1879 N1875 0.985 . S
H1880 N1874 0.984 . S
H1881 N1874 0.984 . S
H1882 N1870 0.984 . S
H1883 N1870 0.985 . S
C1884 C1885 1.363 . S
C1884 C1890 1.379 . S
C1884 N1892 1.356 . S
C1885 C1884 1.363 . S
C1885 C1891 1.363 . S
C1886 C1887 1.363 . S
C1886 C1891 1.379 . S
C1886 N1893 1.356 . S
C1887 C1886 1.363 . S
C1887 C1890 1.363 . S
N1888 C1890 1.356 . S
N1888 H1900 0.984 . S
N1888 H1901 0.985 . S
N1889 C1891 1.356 . S
N1889 H1894 0.984 . S
N1889 H1895 0.985 . S
C1890 C1884 1.379 . S
C1890 C1887 1.363 . S
C1890 N1888 1.356 . S
C1891 C1885 1.363 . S
C1891 C1886 1.379 . S
C1891 N1889 1.356 . S
N1892 C1884 1.356 . S
N1892 H1898 0.984 . S
N1892 H1899 0.984 . S
N1893 C1886 1.356 . S
N1893 H1896 0.984 . S
N1893 H1897 0.985 . S
H1894 N1889 0.984 . S
H1895 N1889 0.985 . S
H1896 N1893 0.984 . S
H1897 N1893 0.985 . S
H1898 N1892 0.984 . S
H1899 N1892 0.984 . S
H1900 N1888 0.984 . S
H1901 N1888 0.985 . S
C1902 C1903 1.363 . S
C1902 C1908 1.379 . S
C1902 N1910 1.356 . S
C1903 C1902 1.363 . S
C1903 C1909 1.363 . S
C1904 C1905 1.363 . S
C1904 C1909 1.379 . S
C1904 N1911 1.356 . S
C1905 C1904 1.363 . S
C1905 C1908 1.363 . S
N1906 C1908 1.356 . S
N1906 H1918 0.984 . S
N1906 H1919 0.985 . S
N1907 C1909 1.356 . S
N1907 H1912 0.984 . S
N1907 H1913 0.985 . S
C1908 C1902 1.379 . S
C1908 C1905 1.363 . S
C1908 N1906 1.356 . S
C1909 C1903 1.363 . S
C1909 C1904 1.379 . S
C1909 N1907 1.356 . S
N1910 C1902 1.356 . S
N1910 H1916 0.984 . S
N1910 H1917 0.984 . S
N1911 C1904 1.356 . S
N1911 H1914 0.984 . S
N1911 H1915 0.985 . S
H1912 N1907 0.984 . S
H1913 N1907 0.985 . S
H1914 N1911 0.984 . S
H1915 N1911 0.985 . S
H1916 N1910 0.984 . S
H1917 N1910 0.984 . S
H1918 N1906 0.984 . S
H1919 N1906 0.985 . S
C1920 C1921 1.363 . S
C1920 C1926 1.379 . S
C1920 N1928 1.356 . S
C1921 C1920 1.363 . S
C1921 C1927 1.363 . S
C1922 C1923 1.363 . S
C1922 C1927 1.379 . S
C1922 N1929 1.356 . S
C1923 C1922 1.363 . S
C1923 C1926 1.363 . S
N1924 C1926 1.356 . S
N1924 H1936 0.984 . S
N1924 H1937 0.985 . S
N1925 C1927 1.356 . S
N1925 H1930 0.984 . S
N1925 H1931 0.985 . S
C1926 C1920 1.379 . S
C1926 C1923 1.363 . S
C1926 N1924 1.356 . S
C1927 C1921 1.363 . S
C1927 C1922 1.379 . S
C1927 N1925 1.356 . S
N1928 C1920 1.356 . S
N1928 H1934 0.984 . S
N1928 H1935 0.984 . S
N1929 C1922 1.356 . S
N1929 H1932 0.984 . S
N1929 H1933 0.985 . S
H1930 N1925 0.984 . S
H1931 N1925 0.985 . S
H1932 N1929 0.984 . S
H1933 N1929 0.985 . S
H1934 N1928 0.984 . S
H1935 N1928 0.984 . S
H1936 N1924 0.984 . S
H1937 N1924 0.985 . S
C1938 C1939 1.363 . S
C1938 C1944 1.410 . S
C1938 N1946 1.356 . S
C1939 C1938 1.363 . S
C1939 C1945 1.329 1_545 S
C1940 C1941 1.363 . S
C1940 C1945 1.410 . S
C1940 N1947 1.356 . S
C1941 C1940 1.363 . S
C1941 C1944 1.329 1_565 S
N1942 C1944 1.347 1_565 S
N1942 H1954 0.984 1_565 S
N1942 H1955 0.985 . S
N1943 C1945 1.347 1_545 S
N1943 H1948 0.984 . S
N1943 H1949 0.985 1_545 S
C1944 C1938 1.410 . S
C1944 C1941 1.329 1_545 S
C1944 N1942 1.347 1_545 S
C1945 C1939 1.329 1_565 S
C1945 C1940 1.410 . S
C1945 N1943 1.347 1_565 S
N1946 C1938 1.356 . S
N1946 H1952 0.984 . S
N1946 H1953 0.984 . S
N1947 C1940 1.356 . S
N1947 H1950 0.984 . S
N1947 H1951 0.985 . S
H1948 N1943 0.984 . S
H1949 N1943 0.985 1_565 S
H1950 N1947 0.984 . S
H1951 N1947 0.985 . S
H1952 N1946 0.984 . S
H1953 N1946 0.984 . S
H1954 N1942 0.984 1_545 S
H1955 N1942 0.985 . S
C1956 C1957 1.363 . S
C1956 C1962 1.379 . S
C1956 N1964 1.356 . S
C1957 C1956 1.363 . S
C1957 C1963 1.363 . S
C1958 C1959 1.363 . S
C1958 C1963 1.379 . S
C1958 N1965 1.356 . S
C1959 C1958 1.363 . S
C1959 C1962 1.363 . S
N1960 C1962 1.356 . S
N1960 H1972 0.984 . S
N1960 H1973 0.985 . S
N1961 C1963 1.356 . S
N1961 H1966 0.984 . S
N1961 H1967 0.985 . S
C1962 C1956 1.379 . S
C1962 C1959 1.363 . S
C1962 N1960 1.356 . S
C1963 C1957 1.363 . S
C1963 C1958 1.379 . S
C1963 N1961 1.356 . S
N1964 C1956 1.356 . S
N1964 H1970 0.984 . S
N1964 H1971 0.984 . S
N1965 C1958 1.356 . S
N1965 H1968 0.984 . S
N1965 H1969 0.985 . S
H1966 N1961 0.984 . S
H1967 N1961 0.985 . S
H1968 N1965 0.984 . S
H1969 N1965 0.985 . S
H1970 N1964 0.984 . S
H1971 N1964 0.984 . S
H1972 N1960 0.984 . S
H1973 N1960 0.985 . S
C1974 C1975 1.341 1_545 S
C1974 C1980 1.399 . S
C1974 N1982 1.350 1_545 S
C1975 C1974 1.341 1_565 S
C1975 C1981 1.363 1_554 S
C1976 C1977 1.341 1_565 S
C1976 C1981 1.399 . S
C1976 N1983 1.350 1_565 S
C1977 C1976 1.341 1_545 S
C1977 C1980 1.363 1_556 S
N1978 C1980 1.356 . S
N1978 H1990 0.984 . S
N1978 H1991 0.985 1_554 S
N1979 C1981 1.356 . S
N1979 H1984 0.984 1_556 S
N1979 H1985 0.985 . S
C1980 C1974 1.399 . S
C1980 C1977 1.363 1_554 S
C1980 N1978 1.356 . S
C1981 C1975 1.363 1_556 S
C1981 C1976 1.399 . S
C1981 N1979 1.356 . S
N1982 C1974 1.350 1_565 S
N1982 H1988 0.984 1_565 S
N1982 H1989 0.984 . S
N1983 C1976 1.350 1_545 S
N1983 H1986 0.984 . S
N1983 H1987 0.985 1_545 S
H1984 N1979 0.984 1_554 S
H1985 N1979 0.985 . S
H1986 N1983 0.984 . S
H1987 N1983 0.985 1_565 S
H1988 N1982 0.984 1_545 S
H1989 N1982 0.984 . S
H1990 N1978 0.984 . S
H1991 N1978 0.985 1_556 S
C1992 C1993 1.363 . S
C1992 C1998 1.379 . S
C1992 N2000 1.356 . S
C1993 C1992 1.363 . S
C1993 C1999 1.363 . S
C1994 C1995 1.363 . S
C1994 C1999 1.379 . S
C1994 N2001 1.356 . S
C1995 C1994 1.363 . S
C1995 C1998 1.363 . S
N1996 C1998 1.356 . S
N1996 H2008 0.984 . S
N1996 H2009 0.985 . S
N1997 C1999 1.356 . S
N1997 H2002 0.984 . S
N1997 H2003 0.985 . S
C1998 C1992 1.379 . S
C1998 C1995 1.363 . S
C1998 N1996 1.356 . S
C1999 C1993 1.363 . S
C1999 C1994 1.379 . S
C1999 N1997 1.356 . S
N2000 C1992 1.356 . S
N2000 H2006 0.984 . S
N2000 H2007 0.984 . S
N2001 C1994 1.356 . S
N2001 H2004 0.984 . S
N2001 H2005 0.985 . S
H2002 N1997 0.984 . S
H2003 N1997 0.985 . S
H2004 N2001 0.984 . S
H2005 N2001 0.985 . S
H2006 N2000 0.984 . S
H2007 N2000 0.984 . S
H2008 N1996 0.984 . S
H2009 N1996 0.985 . S
C2010 C2011 1.363 1_565 S
C2010 C2016 1.379 . S
C2010 N2018 1.356 1_565 S
C2011 C2010 1.363 1_545 S
C2011 C2017 1.363 . S
C2012 C2013 1.363 1_545 S
C2012 C2017 1.379 . S
C2012 N2019 1.356 1_545 S
C2013 C2012 1.363 1_565 S
C2013 C2016 1.363 . S
N2014 C2016 1.356 . S
N2014 H2026 0.984 . S
N2014 H2027 0.985 . S
N2015 C2017 1.356 . S
N2015 H2020 0.984 . S
N2015 H2021 0.985 . S
C2016 C2010 1.379 . S
C2016 C2013 1.363 . S
C2016 N2014 1.356 . S
C2017 C2011 1.363 . S
C2017 C2012 1.379 . S
C2017 N2015 1.356 . S
N2018 C2010 1.356 1_545 S
N2018 H2024 0.984 1_545 S
N2018 H2025 0.984 . S
N2019 C2012 1.356 1_565 S
N2019 H2022 0.984 . S
N2019 H2023 0.985 1_565 S
H2020 N2015 0.984 . S
H2021 N2015 0.985 . S
H2022 N2019 0.984 . S
H2023 N2019 0.985 1_545 S
H2024 N2018 0.984 1_565 S
H2025 N2018 0.984 . S
H2026 N2014 0.984 . S
H2027 N2014 0.985 . S
C2028 C2029 1.363 . S
C2028 C2034 1.379 . S
C2028 N2036 1.356 . S
C2029 C2028 1.363 . S
C2029 C2035 1.363 . S
C2030 C2031 1.363 . S
C2030 C2035 1.379 . S
C2030 N2037 1.356 . S
C2031 C2030 1.363 . S
C2031 C2034 1.363 . S
N2032 C2034 1.356 . S
N2032 H2044 0.984 . S
N2032 H2045 0.985 . S
N2033 C2035 1.356 . S
N2033 H2038 0.984 . S
N2033 H2039 0.985 . S
C2034 C2028 1.379 . S
C2034 C2031 1.363 . S
C2034 N2032 1.356 . S
C2035 C2029 1.363 . S
C2035 C2030 1.379 . S
C2035 N2033 1.356 . S
N2036 C2028 1.356 . S
N2036 H2042 0.984 . S
N2036 H2043 0.984 . S
N2037 C2030 1.356 . S
N2037 H2040 0.984 . S
N2037 H2041 0.985 . S
H2038 N2033 0.984 . S
H2039 N2033 0.985 . S
H2040 N2037 0.984 . S
H2041 N2037 0.985 . S
H2042 N2036 0.984 . S
H2043 N2036 0.984 . S
H2044 N2032 0.984 . S
H2045 N2032 0.985 . S
C2046 C2047 1.364 1_565 S
C2046 C2052 1.378 . S
C2046 N2054 1.357 1_565 S
C2047 C2046 1.364 1_545 S
C2047 C2053 1.363 1_556 S
C2048 C2049 1.364 1_545 S
C2048 C2053 1.378 . S
C2048 N2055 1.357 1_545 S
C2049 C2048 1.364 1_565 S
C2049 C2052 1.363 1_554 S
N2050 C2052 1.356 . S
N2050 H2062 0.984 . S
N2050 H2063 0.985 1_556 S
N2051 C2053 1.356 . S
N2051 H2056 0.984 1_554 S
N2051 H2057 0.985 . S
C2052 C2046 1.378 . S
C2052 C2049 1.363 1_556 S
C2052 N2050 1.356 . S
C2053 C2047 1.363 1_554 S
C2053 C2048 1.378 . S
C2053 N2051 1.356 . S
N2054 C2046 1.357 1_545 S
N2054 H2060 0.984 1_545 S
N2054 H2061 0.984 . S
N2055 C2048 1.357 1_565 S
N2055 H2058 0.984 . S
N2055 H2059 0.985 1_565 S
H2056 N2051 0.984 1_556 S
H2057 N2051 0.985 . S
H2058 N2055 0.984 . S
H2059 N2055 0.985 1_545 S
H2060 N2054 0.984 1_565 S
H2061 N2054 0.984 . S
H2062 N2050 0.984 . S
H2063 N2050 0.985 1_554 S
C2064 C2065 1.363 . S
C2064 C2070 1.379 . S
C2064 N2072 1.356 . S
C2065 C2064 1.363 . S
C2065 C2071 1.363 . S
C2066 C2067 1.363 . S
C2066 C2071 1.379 . S
C2066 N2073 1.356 . S
C2067 C2066 1.363 . S
C2067 C2070 1.363 . S
N2068 C2070 1.356 . S
N2068 H2080 0.984 . S
N2068 H2081 0.985 . S
N2069 C2071 1.356 . S
N2069 H2074 0.984 . S
N2069 H2075 0.985 . S
C2070 C2064 1.379 . S
C2070 C2067 1.363 . S
C2070 N2068 1.356 . S
C2071 C2065 1.363 . S
C2071 C2066 1.379 . S
C2071 N2069 1.356 . S
N2072 C2064 1.356 . S
N2072 H2078 0.984 . S
N2072 H2079 0.984 . S
N2073 C2066 1.356 . S
N2073 H2076 0.984 . S
N2073 H2077 0.985 . S
H2074 N2069 0.984 . S
H2075 N2069 0.985 . S
H2076 N2073 0.984 . S
H2077 N2073 0.985 . S
H2078 N2072 0.984 . S
H2079 N2072 0.984 . S
H2080 N2068 0.984 . S
H2081 N2068 0.985 . S
C2082 C2083 1.363 . S
C2082 C2088 1.379 . S
C2082 N2090 1.356 . S
C2083 C2082 1.363 . S
C2083 C2089 1.363 1_556 S
C2084 C2085 1.363 . S
C2084 C2089 1.379 . S
C2084 N2091 1.356 . S
C2085 C2084 1.363 . S
C2085 C2088 1.363 1_554 S
N2086 C2088 1.356 . S
N2086 H2098 0.984 . S
N2086 H2099 0.985 1_556 S
N2087 C2089 1.356 . S
N2087 H2092 0.984 1_554 S
N2087 H2093 0.985 . S
C2088 C2082 1.379 . S
C2088 C2085 1.363 1_556 S
C2088 N2086 1.356 . S
C2089 C2083 1.363 1_554 S
C2089 C2084 1.379 . S
C2089 N2087 1.356 . S
N2090 C2082 1.356 . S
N2090 H2096 0.984 . S
N2090 H2097 0.984 . S
N2091 C2084 1.356 . S
N2091 H2094 0.984 . S
N2091 H2095 0.985 . S
H2092 N2087 0.984 1_556 S
H2093 N2087 0.985 . S
H2094 N2091 0.984 . S
H2095 N2091 0.985 . S
H2096 N2090 0.984 . S
H2097 N2090 0.984 . S
H2098 N2086 0.984 . S
H2099 N2086 0.985 1_554 S
C2100 C2101 1.363 . S
C2100 C2106 1.379 . S
C2100 N2108 1.356 . S
C2101 C2100 1.363 . S
C2101 C2107 1.363 . S
C2102 C2103 1.363 . S
C2102 C2107 1.379 . S
C2102 N2109 1.356 . S
C2103 C2102 1.363 . S
C2103 C2106 1.363 . S
N2104 C2106 1.356 . S
N2104 H2116 0.984 . S
N2104 H2117 0.985 . S
N2105 C2107 1.356 . S
N2105 H2110 0.984 . S
N2105 H2111 0.985 . S
C2106 C2100 1.379 . S
C2106 C2103 1.363 . S
C2106 N2104 1.356 . S
C2107 C2101 1.363 . S
C2107 C2102 1.379 . S
C2107 N2105 1.356 . S
N2108 C2100 1.356 . S
N2108 H2114 0.984 . S
N2108 H2115 0.984 . S
N2109 C2102 1.356 . S
N2109 H2112 0.984 . S
N2109 H2113 0.985 . S
H2110 N2105 0.984 . S
H2111 N2105 0.985 . S
H2112 N2109 0.984 . S
H2113 N2109 0.985 . S
H2114 N2108 0.984 . S
H2115 N2108 0.984 . S
H2116 N2104 0.984 . S
H2117 N2104 0.985 . S
C2118 C2119 1.363 . S
C2118 C2124 1.379 . S
C2118 N2126 1.356 . S
C2119 C2118 1.363 . S
C2119 C2125 1.363 . S
C2120 C2121 1.363 . S
C2120 C2125 1.379 . S
C2120 N2127 1.356 . S
C2121 C2120 1.363 . S
C2121 C2124 1.363 . S
N2122 C2124 1.356 . S
N2122 H2134 0.984 . S
N2122 H2135 0.985 . S
N2123 C2125 1.356 . S
N2123 H2128 0.984 . S
N2123 H2129 0.985 . S
C2124 C2118 1.379 . S
C2124 C2121 1.363 . S
C2124 N2122 1.356 . S
C2125 C2119 1.363 . S
C2125 C2120 1.379 . S
C2125 N2123 1.356 . S
N2126 C2118 1.356 . S
N2126 H2132 0.984 . S
N2126 H2133 0.984 . S
N2127 C2120 1.356 . S
N2127 H2130 0.984 . S
N2127 H2131 0.985 . S
H2128 N2123 0.984 . S
H2129 N2123 0.985 . S
H2130 N2127 0.984 . S
H2131 N2127 0.985 . S
H2132 N2126 0.984 . S
H2133 N2126 0.984 . S
H2134 N2122 0.984 . S
H2135 N2122 0.985 . S
C2136 C2137 1.363 . S
C2136 C2142 1.379 . S
C2136 N2144 1.356 . S
C2137 C2136 1.363 . S
C2137 C2143 1.363 . S
C2138 C2139 1.363 . S
C2138 C2143 1.379 . S
C2138 N2145 1.356 . S
C2139 C2138 1.363 . S
C2139 C2142 1.363 . S
N2140 C2142 1.356 . S
N2140 H2152 0.984 . S
N2140 H2153 0.985 . S
N2141 C2143 1.356 . S
N2141 H2146 0.984 . S
N2141 H2147 0.985 . S
C2142 C2136 1.379 . S
C2142 C2139 1.363 . S
C2142 N2140 1.356 . S
C2143 C2137 1.363 . S
C2143 C2138 1.379 . S
C2143 N2141 1.356 . S
N2144 C2136 1.356 . S
N2144 H2150 0.984 . S
N2144 H2151 0.984 . S
N2145 C2138 1.356 . S
N2145 H2148 0.984 . S
N2145 H2149 0.985 . S
H2146 N2141 0.984 . S
H2147 N2141 0.985 . S
H2148 N2145 0.984 . S
H2149 N2145 0.985 . S
H2150 N2144 0.984 . S
H2151 N2144 0.984 . S
H2152 N2140 0.984 . S
H2153 N2140 0.985 . S
C2154 C2155 1.363 . S
C2154 C2160 1.379 . S
C2154 N2162 1.356 . S
C2155 C2154 1.363 . S
C2155 C2161 1.363 1_556 S
C2156 C2157 1.363 . S
C2156 C2161 1.379 . S
C2156 N2163 1.356 . S
C2157 C2156 1.363 . S
C2157 C2160 1.363 1_554 S
N2158 C2160 1.356 . S
N2158 H2170 0.984 . S
N2158 H2171 0.985 1_556 S
N2159 C2161 1.356 . S
N2159 H2164 0.984 1_554 S
N2159 H2165 0.985 . S
C2160 C2154 1.379 . S
C2160 C2157 1.363 1_556 S
C2160 N2158 1.356 . S
C2161 C2155 1.363 1_554 S
C2161 C2156 1.379 . S
C2161 N2159 1.356 . S
N2162 C2154 1.356 . S
N2162 H2168 0.984 . S
N2162 H2169 0.984 . S
N2163 C2156 1.356 . S
N2163 H2166 0.984 . S
N2163 H2167 0.985 . S
H2164 N2159 0.984 1_556 S
H2165 N2159 0.985 . S
H2166 N2163 0.984 . S
H2167 N2163 0.985 . S
H2168 N2162 0.984 . S
H2169 N2162 0.984 . S
H2170 N2158 0.984 . S
H2171 N2158 0.985 1_554 S
C2172 C2173 1.363 . S
C2172 C2178 1.379 . S
C2172 N2180 1.356 . S
C2173 C2172 1.363 . S
C2173 C2179 1.363 . S
C2174 C2175 1.363 . S
C2174 C2179 1.379 . S
C2174 N2181 1.356 . S
C2175 C2174 1.363 . S
C2175 C2178 1.363 . S
N2176 C2178 1.356 . S
N2176 H2188 0.984 . S
N2176 H2189 0.985 . S
N2177 C2179 1.356 . S
N2177 H2182 0.984 . S
N2177 H2183 0.985 . S
C2178 C2172 1.379 . S
C2178 C2175 1.363 . S
C2178 N2176 1.356 . S
C2179 C2173 1.363 . S
C2179 C2174 1.379 . S
C2179 N2177 1.356 . S
N2180 C2172 1.356 . S
N2180 H2186 0.984 . S
N2180 H2187 0.984 . S
N2181 C2174 1.356 . S
N2181 H2184 0.984 . S
N2181 H2185 0.985 . S
H2182 N2177 0.984 . S
H2183 N2177 0.985 . S
H2184 N2181 0.984 . S
H2185 N2181 0.985 . S
H2186 N2180 0.984 . S
H2187 N2180 0.984 . S
H2188 N2176 0.984 . S
H2189 N2176 0.985 . S
C2190 C2191 1.363 . S
C2190 C2196 1.379 . S
C2190 N2198 1.356 . S
C2191 C2190 1.363 . S
C2191 C2197 1.363 . S
C2192 C2193 1.363 . S
C2192 C2197 1.379 . S
C2192 N2199 1.356 . S
C2193 C2192 1.363 . S
C2193 C2196 1.363 . S
N2194 C2196 1.356 . S
N2194 H2206 0.984 . S
N2194 H2207 0.985 . S
N2195 C2197 1.356 . S
N2195 H2200 0.984 . S
N2195 H2201 0.985 . S
C2196 C2190 1.379 . S
C2196 C2193 1.363 . S
C2196 N2194 1.356 . S
C2197 C2191 1.363 . S
C2197 C2192 1.379 . S
C2197 N2195 1.356 . S
N2198 C2190 1.356 . S
N2198 H2204 0.984 . S
N2198 H2205 0.984 . S
N2199 C2192 1.356 . S
N2199 H2202 0.984 . S
N2199 H2203 0.985 . S
H2200 N2195 0.984 . S
H2201 N2195 0.985 . S
H2202 N2199 0.984 . S
H2203 N2199 0.985 . S
H2204 N2198 0.984 . S
H2205 N2198 0.984 . S
H2206 N2194 0.984 . S
H2207 N2194 0.985 . S
C2208 C2209 1.363 . S
C2208 C2214 1.379 . S
C2208 N2216 1.356 1_556 S
C2209 C2208 1.363 . S
C2209 C2215 1.363 . S
C2210 C2211 1.363 . S
C2210 C2215 1.379 . S
C2210 N2217 1.356 . S
C2211 C2210 1.363 . S
C2211 C2214 1.363 . S
N2212 C2214 1.356 . S
N2212 H2224 0.984 . S
N2212 H2225 0.985 . S
N2213 C2215 1.356 . S
N2213 H2218 0.980 1_556 S
N2213 H2219 0.985 . S
C2214 C2208 1.379 . S
C2214 C2211 1.363 . S
C2214 N2212 1.356 . S
C2215 C2209 1.363 . S
C2215 C2210 1.379 . S
C2215 N2213 1.356 . S
N2216 C2208 1.356 1_554 S
N2216 H2222 0.984 . S
N2216 H2223 0.984 . S
N2217 C2210 1.356 . S
N2217 H2220 0.984 . S
N2217 H2221 0.985 . S
H2218 N2213 0.980 1_554 S
H2219 N2213 0.985 . S
H2220 N2217 0.984 . S
H2221 N2217 0.985 . S
H2222 N2216 0.984 . S
H2223 N2216 0.984 . S
H2224 N2212 0.984 . S
H2225 N2212 0.985 . S
C2226 C2227 1.363 . S
C2226 C2232 1.379 . S
C2226 N2234 1.356 1_554 S
C2227 C2226 1.363 . S
C2227 C2233 1.363 . S
C2228 C2229 1.363 . S
C2228 C2233 1.379 . S
C2228 N2235 1.356 . S
C2229 C2228 1.363 . S
C2229 C2232 1.363 . S
N2230 C2232 1.356 . S
N2230 H2242 0.984 . S
N2230 H2243 0.985 . S
N2231 C2233 1.356 . S
N2231 H2236 0.984 . S
N2231 H2237 0.985 . S
C2232 C2226 1.379 . S
C2232 C2229 1.363 . S
C2232 N2230 1.356 . S
C2233 C2227 1.363 . S
C2233 C2228 1.379 . S
C2233 N2231 1.356 . S
N2234 C2226 1.356 1_556 S
N2234 H2240 0.984 . S
N2234 H2241 0.984 . S
N2235 C2228 1.356 . S
N2235 H2238 0.984 . S
N2235 H2239 0.985 . S
H2236 N2231 0.984 . S
H2237 N2231 0.985 . S
H2238 N2235 0.984 . S
H2239 N2235 0.985 . S
H2240 N2234 0.984 . S
H2241 N2234 0.984 . S
H2242 N2230 0.984 . S
H2243 N2230 0.985 . S
C2244 C2245 1.363 . S
C2244 C2250 1.379 . S
C2244 N2252 1.356 . S
C2245 C2244 1.363 . S
C2245 C2251 1.363 . S
C2246 C2247 1.363 . S
C2246 C2251 1.379 . S
C2246 N2253 1.356 . S
C2247 C2246 1.363 . S
C2247 C2250 1.363 . S
N2248 C2250 1.356 . S
N2248 H2260 0.984 . S
N2248 H2261 0.985 . S
N2249 C2251 1.356 . S
N2249 H2254 0.984 . S
N2249 H2255 0.985 . S
C2250 C2244 1.379 . S
C2250 C2247 1.363 . S
C2250 N2248 1.356 . S
C2251 C2245 1.363 . S
C2251 C2246 1.379 . S
C2251 N2249 1.356 . S
N2252 C2244 1.356 . S
N2252 H2258 0.984 . S
N2252 H2259 0.984 . S
N2253 C2246 1.356 . S
N2253 H2256 0.984 . S
N2253 H2257 0.985 . S
H2254 N2249 0.984 . S
H2255 N2249 0.985 . S
H2256 N2253 0.984 . S
H2257 N2253 0.985 . S
H2258 N2252 0.984 . S
H2259 N2252 0.984 . S
H2260 N2248 0.984 . S
H2261 N2248 0.985 . S
C2262 C2263 1.363 . S
C2262 C2268 1.379 . S
C2262 N2270 1.356 . S
C2263 C2262 1.363 . S
C2263 C2269 1.363 . S
C2264 C2265 1.363 . S
C2264 C2269 1.379 . S
C2264 N2271 1.356 . S
C2265 C2264 1.363 . S
C2265 C2268 1.363 . S
N2266 C2268 1.356 . S
N2266 H2278 0.984 . S
N2266 H2279 0.985 . S
N2267 C2269 1.356 . S
N2267 H2272 0.984 . S
N2267 H2273 0.985 . S
C2268 C2262 1.379 . S
C2268 C2265 1.363 . S
C2268 N2266 1.356 . S
C2269 C2263 1.363 . S
C2269 C2264 1.379 . S
C2269 N2267 1.356 . S
N2270 C2262 1.356 . S
N2270 H2276 0.984 . S
N2270 H2277 0.984 . S
N2271 C2264 1.356 . S
N2271 H2274 0.984 . S
N2271 H2275 0.985 . S
H2272 N2267 0.984 . S
H2273 N2267 0.985 . S
H2274 N2271 0.984 . S
H2275 N2271 0.985 . S
H2276 N2270 0.984 . S
H2277 N2270 0.984 . S
H2278 N2266 0.984 . S
H2279 N2266 0.985 . S
C2280 C2281 1.363 . S
C2280 C2286 1.379 . S
C2280 N2288 1.356 . S
C2281 C2280 1.363 . S
C2281 C2287 1.363 . S
C2282 C2283 1.363 . S
C2282 C2287 1.379 . S
C2282 N2289 1.356 . S
C2283 C2282 1.363 . S
C2283 C2286 1.363 . S
N2284 C2286 1.356 . S
N2284 H2296 0.984 . S
N2284 H2297 0.985 . S
N2285 C2287 1.356 1_556 S
N2285 H2290 0.984 . S
N2285 H2291 0.985 . S
C2286 C2280 1.379 . S
C2286 C2283 1.363 . S
C2286 N2284 1.356 . S
C2287 C2281 1.363 . S
C2287 C2282 1.379 . S
C2287 N2285 1.356 1_554 S
N2288 C2280 1.356 . S
N2288 H2294 0.984 . S
N2288 H2295 0.984 . S
N2289 C2282 1.356 . S
N2289 H2292 0.984 . S
N2289 H2293 0.985 . S
H2290 N2285 0.984 . S
H2291 N2285 0.985 . S
H2292 N2289 0.984 . S
H2293 N2289 0.985 . S
H2294 N2288 0.984 . S
H2295 N2288 0.984 . S
H2296 N2284 0.984 . S
H2297 N2284 0.985 . S
C2298 C2299 1.363 . S
C2298 C2304 1.379 . S
C2298 N2306 1.356 . S
C2299 C2298 1.363 . S
C2299 C2305 1.363 . S
C2300 C2301 1.363 . S
C2300 C2305 1.379 . S
C2300 N2307 1.356 . S
C2301 C2300 1.363 . S
C2301 C2304 1.363 . S
N2302 C2304 1.356 . S
N2302 H2314 0.984 . S
N2302 H2315 0.985 . S
N2303 C2305 1.356 1_554 S
N2303 H2308 0.984 . S
N2303 H2309 0.985 . S
C2304 C2298 1.379 . S
C2304 C2301 1.363 . S
C2304 N2302 1.356 . S
C2305 C2299 1.363 . S
C2305 C2300 1.379 . S
C2305 N2303 1.356 1_556 S
N2306 C2298 1.356 . S
N2306 H2312 0.984 . S
N2306 H2313 0.984 . S
N2307 C2300 1.356 . S
N2307 H2310 0.984 . S
N2307 H2311 0.985 . S
H2308 N2303 0.984 . S
H2309 N2303 0.985 . S
H2310 N2307 0.984 . S
H2311 N2307 0.985 . S
H2312 N2306 0.984 . S
H2313 N2306 0.984 . S
H2314 N2302 0.984 . S
H2315 N2302 0.985 . S
C2316 C2317 1.363 . S
C2316 C2322 1.379 . S
C2316 N2324 1.356 . S
C2317 C2316 1.363 . S
C2317 C2323 1.363 . S
C2318 C2319 1.363 . S
C2318 C2323 1.379 . S
C2318 N2325 1.356 . S
C2319 C2318 1.363 . S
C2319 C2322 1.363 . S
N2320 C2322 1.356 . S
N2320 H2332 0.984 . S
N2320 H2333 0.985 . S
N2321 C2323 1.356 . S
N2321 H2326 0.984 . S
N2321 H2327 0.985 . S
C2322 C2316 1.379 . S
C2322 C2319 1.363 . S
C2322 N2320 1.356 . S
C2323 C2317 1.363 . S
C2323 C2318 1.379 . S
C2323 N2321 1.356 . S
N2324 C2316 1.356 . S
N2324 H2330 0.984 . S
N2324 H2331 0.984 . S
N2325 C2318 1.356 . S
N2325 H2328 0.984 . S
N2325 H2329 0.985 . S
H2326 N2321 0.984 . S
H2327 N2321 0.985 . S
H2328 N2325 0.984 . S
H2329 N2325 0.985 . S
H2330 N2324 0.984 . S
H2331 N2324 0.984 . S
H2332 N2320 0.984 . S
H2333 N2320 0.985 . S
C2334 C2335 1.363 . S
C2334 C2340 1.379 . S
C2334 N2342 1.356 . S
C2335 C2334 1.363 . S
C2335 C2341 1.363 . S
C2336 C2337 1.363 . S
C2336 C2341 1.379 . S
C2336 N2343 1.356 . S
C2337 C2336 1.363 . S
C2337 C2340 1.363 . S
N2338 C2340 1.356 . S
N2338 H2350 0.984 . S
N2338 H2351 0.985 . S
N2339 C2341 1.356 . S
N2339 H2344 0.984 . S
N2339 H2345 0.985 . S
C2340 C2334 1.379 . S
C2340 C2337 1.363 . S
C2340 N2338 1.356 . S
C2341 C2335 1.363 . S
C2341 C2336 1.379 . S
C2341 N2339 1.356 . S
N2342 C2334 1.356 . S
N2342 H2348 0.984 . S
N2342 H2349 0.984 . S
N2343 C2336 1.356 . S
N2343 H2346 0.984 . S
N2343 H2347 0.985 . S
H2344 N2339 0.984 . S
H2345 N2339 0.985 . S
H2346 N2343 0.984 . S
H2347 N2343 0.985 . S
H2348 N2342 0.984 . S
H2349 N2342 0.984 . S
H2350 N2338 0.984 . S
H2351 N2338 0.985 . S
C2352 C2353 1.363 . S
C2352 C2358 1.379 . S
C2352 N2360 1.356 . S
C2353 C2352 1.363 . S
C2353 C2359 1.363 . S
C2354 C2355 1.363 . S
C2354 C2359 1.379 . S
C2354 N2361 1.356 . S
C2355 C2354 1.363 . S
C2355 C2358 1.363 . S
N2356 C2358 1.356 . S
N2356 H2368 0.984 . S
N2356 H2369 0.985 . S
N2357 C2359 1.356 . S
N2357 H2362 0.984 . S
N2357 H2363 0.985 . S
C2358 C2352 1.379 . S
C2358 C2355 1.363 . S
C2358 N2356 1.356 . S
C2359 C2353 1.363 . S
C2359 C2354 1.379 . S
C2359 N2357 1.356 . S
N2360 C2352 1.356 . S
N2360 H2366 0.984 . S
N2360 H2367 0.984 . S
N2361 C2354 1.356 . S
N2361 H2364 0.984 . S
N2361 H2365 0.985 . S
H2362 N2357 0.984 . S
H2363 N2357 0.985 . S
H2364 N2361 0.984 . S
H2365 N2361 0.985 . S
H2366 N2360 0.984 . S
H2367 N2360 0.984 . S
H2368 N2356 0.984 . S
H2369 N2356 0.985 . S
C2370 C2371 1.363 . S
C2370 C2376 1.379 . S
C2370 N2378 1.356 . S
C2371 C2370 1.363 . S
C2371 C2377 1.363 . S
C2372 C2373 1.363 . S
C2372 C2377 1.379 . S
C2372 N2379 1.356 . S
C2373 C2372 1.363 . S
C2373 C2376 1.363 . S
N2374 C2376 1.356 . S
N2374 H2386 0.984 . S
N2374 H2387 0.985 . S
N2375 C2377 1.356 . S
N2375 H2380 0.984 . S
N2375 H2381 0.985 . S
C2376 C2370 1.379 . S
C2376 C2373 1.363 . S
C2376 N2374 1.356 . S
C2377 C2371 1.363 . S
C2377 C2372 1.379 . S
C2377 N2375 1.356 . S
N2378 C2370 1.356 . S
N2378 H2384 0.984 . S
N2378 H2385 0.984 . S
N2379 C2372 1.356 . S
N2379 H2382 0.984 . S
N2379 H2383 0.985 . S
H2380 N2375 0.984 . S
H2381 N2375 0.985 . S
H2382 N2379 0.984 . S
H2383 N2379 0.985 . S
H2384 N2378 0.984 . S
H2385 N2378 0.984 . S
H2386 N2374 0.984 . S
H2387 N2374 0.985 . S
C2388 C2389 1.363 . S
C2388 C2394 1.379 . S
C2388 N2396 1.356 . S
C2389 C2388 1.363 . S
C2389 C2395 1.363 . S
C2390 C2391 1.363 . S
C2390 C2395 1.379 . S
C2390 N2397 1.356 1_556 S
C2391 C2390 1.363 . S
C2391 C2394 1.363 . S
N2392 C2394 1.356 . S
N2392 H2404 0.984 . S
N2392 H2405 0.987 . S
N2393 C2395 1.356 . S
N2393 H2398 0.984 . S
N2393 H2399 0.985 . S
C2394 C2388 1.379 . S
C2394 C2391 1.363 . S
C2394 N2392 1.356 . S
C2395 C2389 1.363 . S
C2395 C2390 1.379 . S
C2395 N2393 1.356 . S
N2396 C2388 1.356 . S
N2396 H2402 0.984 . S
N2396 H2403 0.984 . S
N2397 C2390 1.356 1_554 S
N2397 H2400 0.984 . S
N2397 H2401 0.985 . S
H2398 N2393 0.984 . S
H2399 N2393 0.985 . S
H2400 N2397 0.984 . S
H2401 N2397 0.985 . S
H2402 N2396 0.984 . S
H2403 N2396 0.984 . S
H2404 N2392 0.984 . S
H2405 N2392 0.987 . S
C2406 C2407 1.363 . S
C2406 C2412 1.379 . S
C2406 N2414 1.356 . S
C2407 C2406 1.363 . S
C2407 C2413 1.363 . S
C2408 C2409 1.363 . S
C2408 C2413 1.379 . S
C2408 N2415 1.356 1_554 S
C2409 C2408 1.363 . S
C2409 C2412 1.363 . S
N2410 C2412 1.356 . S
N2410 H2422 0.984 . S
N2410 H2423 0.985 . S
N2411 C2413 1.356 . S
N2411 H2416 0.984 . S
N2411 H2417 0.985 . S
C2412 C2406 1.379 . S
C2412 C2409 1.363 . S
C2412 N2410 1.356 . S
C2413 C2407 1.363 . S
C2413 C2408 1.379 . S
C2413 N2411 1.356 . S
N2414 C2406 1.356 . S
N2414 H2420 0.984 . S
N2414 H2421 0.984 . S
N2415 C2408 1.356 1_556 S
N2415 H2418 0.984 . S
N2415 H2419 0.985 . S
H2416 N2411 0.984 . S
H2417 N2411 0.985 . S
H2418 N2415 0.984 . S
H2419 N2415 0.985 . S
H2420 N2414 0.984 . S
H2421 N2414 0.984 . S
H2422 N2410 0.984 . S
H2423 N2410 0.985 . S
C2424 C2425 1.363 . S
C2424 C2430 1.379 . S
C2424 N2432 1.356 . S
C2425 C2424 1.363 . S
C2425 C2431 1.363 . S
C2426 C2427 1.363 . S
C2426 C2431 1.379 . S
C2426 N2433 1.356 . S
C2427 C2426 1.363 . S
C2427 C2430 1.363 . S
N2428 C2430 1.356 . S
N2428 H2440 0.984 . S
N2428 H2441 0.985 . S
N2429 C2431 1.356 . S
N2429 H2434 0.984 . S
N2429 H2435 0.985 . S
C2430 C2424 1.379 . S
C2430 C2427 1.363 . S
C2430 N2428 1.356 . S
C2431 C2425 1.363 . S
C2431 C2426 1.379 . S
C2431 N2429 1.356 . S
N2432 C2424 1.356 . S
N2432 H2438 0.984 . S
N2432 H2439 0.984 . S
N2433 C2426 1.356 . S
N2433 H2436 0.984 . S
N2433 H2437 0.985 . S
H2434 N2429 0.984 . S
H2435 N2429 0.985 . S
H2436 N2433 0.984 . S
H2437 N2433 0.985 . S
H2438 N2432 0.984 . S
H2439 N2432 0.984 . S
H2440 N2428 0.984 . S
H2441 N2428 0.985 . S
C2442 C2443 1.363 . S
C2442 C2448 1.379 . S
C2442 N2450 1.356 . S
C2443 C2442 1.363 . S
C2443 C2449 1.363 . S
C2444 C2445 1.363 . S
C2444 C2449 1.379 . S
C2444 N2451 1.356 . S
C2445 C2444 1.363 . S
C2445 C2448 1.363 . S
N2446 C2448 1.356 . S
N2446 H2458 0.984 . S
N2446 H2459 0.985 . S
N2447 C2449 1.356 . S
N2447 H2452 0.984 . S
N2447 H2453 0.985 . S
C2448 C2442 1.379 . S
C2448 C2445 1.363 . S
C2448 N2446 1.356 . S
C2449 C2443 1.363 . S
C2449 C2444 1.379 . S
C2449 N2447 1.356 . S
N2450 C2442 1.356 . S
N2450 H2456 0.984 . S
N2450 H2457 0.984 . S
N2451 C2444 1.356 . S
N2451 H2454 0.984 . S
N2451 H2455 0.985 . S
H2452 N2447 0.984 . S
H2453 N2447 0.985 . S
H2454 N2451 0.984 . S
H2455 N2451 0.985 . S
H2456 N2450 0.984 . S
H2457 N2450 0.984 . S
H2458 N2446 0.984 . S
H2459 N2446 0.985 . S
C2460 C2461 1.363 . S
C2460 C2466 1.379 . S
C2460 N2468 1.356 . S
C2461 C2460 1.363 . S
C2461 C2467 1.363 . S
C2462 C2463 1.363 . S
C2462 C2467 1.379 . S
C2462 N2469 1.356 1_554 S
C2463 C2462 1.363 . S
C2463 C2466 1.363 . S
N2464 C2466 1.356 . S
N2464 H2476 0.984 . S
N2464 H2477 0.985 . S
N2465 C2467 1.356 . S
N2465 H2470 0.984 . S
N2465 H2471 0.985 . S
C2466 C2460 1.379 . S
C2466 C2463 1.363 . S
C2466 N2464 1.356 . S
C2467 C2461 1.363 . S
C2467 C2462 1.379 . S
C2467 N2465 1.356 . S
N2468 C2460 1.356 . S
N2468 H2474 0.984 . S
N2468 H2475 0.984 . S
N2469 C2462 1.356 1_556 S
N2469 H2472 0.984 . S
N2469 H2473 0.985 . S
H2470 N2465 0.984 . S
H2471 N2465 0.985 . S
H2472 N2469 0.984 . S
H2473 N2469 0.985 . S
H2474 N2468 0.984 . S
H2475 N2468 0.984 . S
H2476 N2464 0.984 . S
H2477 N2464 0.985 . S
C2478 C2479 1.363 . S
C2478 C2484 1.379 . S
C2478 N2486 1.356 . S
C2479 C2478 1.363 . S
C2479 C2485 1.363 . S
C2480 C2481 1.363 . S
C2480 C2485 1.379 . S
C2480 N2487 1.356 . S
C2481 C2480 1.363 . S
C2481 C2484 1.363 . S
N2482 C2484 1.356 . S
N2482 H2494 0.984 . S
N2482 H2495 0.985 . S
N2483 C2485 1.356 1_554 S
N2483 H2488 0.984 . S
N2483 H2489 0.985 . S
C2484 C2478 1.379 . S
C2484 C2481 1.363 . S
C2484 N2482 1.356 . S
C2485 C2479 1.363 . S
C2485 C2480 1.379 . S
C2485 N2483 1.356 1_556 S
N2486 C2478 1.356 . S
N2486 H2492 0.984 . S
N2486 H2493 0.984 . S
N2487 C2480 1.356 . S
N2487 H2490 0.984 . S
N2487 H2491 0.985 . S
H2488 N2483 0.984 . S
H2489 N2483 0.985 . S
H2490 N2487 0.984 . S
H2491 N2487 0.985 . S
H2492 N2486 0.984 . S
H2493 N2486 0.984 . S
H2494 N2482 0.984 . S
H2495 N2482 0.985 . S
C1057 C1011 1.544 . S
C1059 C21 1.544 . S
C1075 C54 1.544 . S
C1077 C516 1.544 . S
C1093 C87 1.544 . S
C1095 C945 1.544 . S
C1111 C120 1.544 . S
C1113 C450 1.544 . S
C1129 C879 1.544 . S
C1131 C153 1.544 . S
C1147 C384 1.544 . S
C1149 C186 1.544 . S
C1165 C219 1.544 . S
C1167 C813 1.544 . S
C1183 C318 1.544 . S
C1185 C252 1.544 . S
C1201 C747 1.544 . S
C1203 C285 1.544 . S
C1219 C681 1.544 . S
C1221 C351 1.544 . S
C1237 C417 1.544 . S
C1239 C615 1.544 . S
C1255 C549 1.544 . S
C1257 C483 1.544 . S
C1273 C1044 1.544 . S
C1275 C582 1.544 . S
C1291 C978 1.544 . S
C1293 C648 1.544 . S
C1309 C912 1.544 . S
C1311 C714 1.544 . S
C1327 C846 1.544 . S
C1329 C780 1.544 . S
C1345 N2 1.302 . S
C1347 N13 1.302 . S
C1363 N35 1.302 . S
C1365 N46 1.302 1_556 S
C1381 N68 1.302 . S
C1383 N79 1.302 . S
C1399 N101 1.302 . S
C1401 N112 1.302 . S
C1417 N134 1.302 . S
C1419 N145 1.302 . S
C1435 N167 1.302 . S
C1437 N178 1.302 . S
C1453 N211 1.302 . S
C1455 N200 1.302 . S
C1471 N233 1.302 . S
C1473 N244 1.302 1_554 S
C1489 N266 1.302 . S
C1491 N277 1.302 . S
C1507 N310 1.302 1_554 S
C1509 N299 1.302 . S
C1525 N332 1.302 . S
C1527 N343 1.302 . S
C1543 N365 1.302 . S
C1545 N376 1.302 . S
C1561 N398 1.302 . S
C1563 N409 1.302 . S
C1579 N442 1.302 . S
C1581 N431 1.302 . S
C1597 N464 1.302 . S
C1599 N475 1.302 . S
C1615 N508 1.302 1_556 S
C1617 N497 1.302 . S
C1633 N541 1.302 . S
C1635 N530 1.302 . S
C1651 N563 1.302 . S
C1653 N574 1.302 . S
C1669 N607 1.302 . S
C1671 N596 1.302 . S
C1687 N640 1.302 1_556 S
C1689 N629 1.302 . S
C1705 N673 1.302 . S
C1707 N662 1.302 . S
C1723 N706 1.302 1_554 S
C1725 N695 1.302 . S
C1741 N739 1.302 . S
C1743 N728 1.302 . S
C1759 N772 1.302 . S
C1761 N761 1.302 . S
C1777 N805 1.302 . S
C1779 N794 1.302 . S
C1795 N838 1.302 . S
C1797 N827 1.302 . S
C1813 N860 1.302 . S
C1815 N871 1.302 . S
C1831 N904 1.302 1_554 S
C1833 N893 1.302 . S
C1849 N937 1.302 . S
C1851 N926 1.302 . S
C1867 N970 1.302 1_556 S
C1869 N959 1.302 . S
C1885 N992 1.302 . S
C1887 N1003 1.302 . S
C1903 N1025 1.302 . S
C1905 N1036 1.302 . S
C1921 C205 1.475 . S
C1923 C7 1.475 . S
C1939 C238 1.475 . S
C1941 C40 1.475 . S
C1957 C73 1.475 . S
C1959 C139 1.475 . S
C1975 C172 1.475 . S
C1977 C106 1.475 . S
C1993 C271 1.475 . S
C1995 C469 1.475 . S
C2011 C304 1.475 . S
C2013 C502 1.475 . S
C2029 C337 1.475 . S
C2031 C403 1.475 . S
C2047 C436 1.475 . S
C2049 C370 1.475 . S
C2065 C733 1.475 . S
C2067 C535 1.475 . S
C2083 C568 1.475 . S
C2085 C766 1.475 . S
C2101 C667 1.475 . S
C2103 C601 1.475 . S
C2119 C700 1.475 . S
C2121 C634 1.475 . S
C2137 C799 1.475 . S
C2139 C997 1.475 . S
C2155 C1030 1.475 . S
C2157 C832 1.475 . S
C2173 C865 1.475 . S
C2175 C931 1.475 . S
C2191 C964 1.475 . S
C2193 C898 1.475 . S
C2209 C18 1.382 1_556 S
C2211 C249 1.382 . S
C2227 C150 1.382 1_554 S
C2229 C51 1.382 . S
C2245 C84 1.381 . S
C2247 C183 1.381 . S
C2263 C117 1.382 . S
C2265 C216 1.382 . S
C2281 C282 1.382 1_554 S
C2283 C513 1.382 . S
C2299 C414 1.382 1_556 S
C2301 C315 1.382 . S
C2317 C348 1.381 . S
C2319 C447 1.381 . S
C2335 C381 1.382 . S
C2337 C480 1.382 . S
C2353 C777 1.382 . S
C2355 C546 1.382 . S
C2371 C678 1.382 . S
C2373 C579 1.382 . S
C2389 C711 1.381 . S
C2391 C612 1.381 1_556 S
C2407 C645 1.382 . S
C2409 C744 1.382 1_554 S
C2425 C810 1.382 . S
C2427 C1041 1.382 . S
C2443 C843 1.382 . S
C2445 C942 1.382 . S
C2461 C975 1.381 . S
C2463 C876 1.381 1_554 S
C2479 C1008 1.382 1_556 S
C2481 C909 1.382 . S
