# Generated by pormake.
# Topology wjc, (7)-cn, num edge types: 1
# Building blocks:
#     Node 0, Type 0, BuildingBlock: HICVOG_clean_sbu_0, # of connection points: 7
#     Node 1, Type 0, BuildingBlock: HICVOG_clean_sbu_0, # of connection points: 7
#     Node 2, Type 0, BuildingBlock: HICVOG_clean_sbu_0, # of connection points: 7
#     Node 3, Type 0, BuildingBlock: HICVOG_clean_sbu_0, # of connection points: 7
#     Node 4, Type 0, BuildingBlock: HICVOG_clean_sbu_0, # of connection points: 7
#     Node 5, Type 0, BuildingBlock: HICVOG_clean_sbu_0, # of connection points: 7
#     Node 6, Type 0, BuildingBlock: HICVOG_clean_sbu_0, # of connection points: 7
#     Node 7, Type 0, BuildingBlock: HICVOG_clean_sbu_0, # of connection points: 7
#     Node 8, Type 0, BuildingBlock: HICVOG_clean_sbu_0, # of connection points: 7
#     Node 9, Type 0, BuildingBlock: HICVOG_clean_sbu_0, # of connection points: 7
#     Node 10, Type 0, BuildingBlock: HICVOG_clean_sbu_0, # of connection points: 7
#     Node 11, Type 0, BuildingBlock: HICVOG_clean_sbu_0, # of connection points: 7
#     Node 12, Type 0, BuildingBlock: HICVOG_clean_sbu_0, # of connection points: 7
#     Node 13, Type 0, BuildingBlock: HICVOG_clean_sbu_0, # of connection points: 7
#     Node 14, Type 0, BuildingBlock: HICVOG_clean_sbu_0, # of connection points: 7
#     Node 15, Type 0, BuildingBlock: HICVOG_clean_sbu_0, # of connection points: 7
#     Node 16, Type 0, BuildingBlock: HICVOG_clean_sbu_0, # of connection points: 7
#     Node 17, Type 0, BuildingBlock: HICVOG_clean_sbu_0, # of connection points: 7
#     Node 18, Type 0, BuildingBlock: HICVOG_clean_sbu_0, # of connection points: 7
#     Node 19, Type 0, BuildingBlock: HICVOG_clean_sbu_0, # of connection points: 7
#     Node 20, Type 0, BuildingBlock: HICVOG_clean_sbu_0, # of connection points: 7
#     Node 21, Type 0, BuildingBlock: HICVOG_clean_sbu_0, # of connection points: 7
#     Node 22, Type 0, BuildingBlock: HICVOG_clean_sbu_0, # of connection points: 7
#     Node 23, Type 0, BuildingBlock: HICVOG_clean_sbu_0, # of connection points: 7
#     Edge 24, Type (0, 0), BuildingBlock: CIFDUS_clean_linker_0, # of connection points: 2
#     Edge 25, Type (0, 0), BuildingBlock: CIFDUS_clean_linker_0, # of connection points: 2
#     Edge 26, Type (0, 0), BuildingBlock: CIFDUS_clean_linker_0, # of connection points: 2
#     Edge 27, Type (0, 0), BuildingBlock: CIFDUS_clean_linker_0, # of connection points: 2
#     Edge 28, Type (0, 0), BuildingBlock: CIFDUS_clean_linker_0, # of connection points: 2
#     Edge 29, Type (0, 0), BuildingBlock: CIFDUS_clean_linker_0, # of connection points: 2
#     Edge 30, Type (0, 0), BuildingBlock: CIFDUS_clean_linker_0, # of connection points: 2
#     Edge 31, Type (0, 0), BuildingBlock: CIFDUS_clean_linker_0, # of connection points: 2
#     Edge 32, Type (0, 0), BuildingBlock: CIFDUS_clean_linker_0, # of connection points: 2
#     Edge 33, Type (0, 0), BuildingBlock: CIFDUS_clean_linker_0, # of connection points: 2
#     Edge 34, Type (0, 0), BuildingBlock: CIFDUS_clean_linker_0, # of connection points: 2
#     Edge 35, Type (0, 0), BuildingBlock: CIFDUS_clean_linker_0, # of connection points: 2
#     Edge 36, Type (0, 0), BuildingBlock: CIFDUS_clean_linker_0, # of connection points: 2
#     Edge 37, Type (0, 0), BuildingBlock: CIFDUS_clean_linker_0, # of connection points: 2
#     Edge 38, Type (0, 0), BuildingBlock: CIFDUS_clean_linker_0, # of connection points: 2
#     Edge 39, Type (0, 0), BuildingBlock: CIFDUS_clean_linker_0, # of connection points: 2
#     Edge 40, Type (0, 0), BuildingBlock: CIFDUS_clean_linker_0, # of connection points: 2
#     Edge 41, Type (0, 0), BuildingBlock: CIFDUS_clean_linker_0, # of connection points: 2
#     Edge 42, Type (0, 0), BuildingBlock: CIFDUS_clean_linker_0, # of connection points: 2
#     Edge 43, Type (0, 0), BuildingBlock: CIFDUS_clean_linker_0, # of connection points: 2
#     Edge 44, Type (0, 0), BuildingBlock: CIFDUS_clean_linker_0, # of connection points: 2
#     Edge 45, Type (0, 0), BuildingBlock: CIFDUS_clean_linker_0, # of connection points: 2
#     Edge 46, Type (0, 0), BuildingBlock: CIFDUS_clean_linker_0, # of connection points: 2
#     Edge 47, Type (0, 0), BuildingBlock: CIFDUS_clean_linker_0, # of connection points: 2
#     Edge 48, Type (0, 0), BuildingBlock: CIFDUS_clean_linker_0, # of connection points: 2
#     Edge 49, Type (0, 0), BuildingBlock: CIFDUS_clean_linker_0, # of connection points: 2
#     Edge 50, Type (0, 0), BuildingBlock: CIFDUS_clean_linker_0, # of connection points: 2
#     Edge 51, Type (0, 0), BuildingBlock: CIFDUS_clean_linker_0, # of connection points: 2
#     Edge 52, Type (0, 0), BuildingBlock: CIFDUS_clean_linker_0, # of connection points: 2
#     Edge 53, Type (0, 0), BuildingBlock: CIFDUS_clean_linker_0, # of connection points: 2
#     Edge 54, Type (0, 0), BuildingBlock: CIFDUS_clean_linker_0, # of connection points: 2
#     Edge 55, Type (0, 0), BuildingBlock: CIFDUS_clean_linker_0, # of connection points: 2
#     Edge 56, Type (0, 0), BuildingBlock: CIFDUS_clean_linker_0, # of connection points: 2
#     Edge 57, Type (0, 0), BuildingBlock: CIFDUS_clean_linker_0, # of connection points: 2
#     Edge 58, Type (0, 0), BuildingBlock: CIFDUS_clean_linker_0, # of connection points: 2
#     Edge 59, Type (0, 0), BuildingBlock: CIFDUS_clean_linker_0, # of connection points: 2
#     Edge 60, Type (0, 0), BuildingBlock: CIFDUS_clean_linker_0, # of connection points: 2
#     Edge 61, Type (0, 0), BuildingBlock: CIFDUS_clean_linker_0, # of connection points: 2
#     Edge 62, Type (0, 0), BuildingBlock: CIFDUS_clean_linker_0, # of connection points: 2
#     Edge 63, Type (0, 0), BuildingBlock: CIFDUS_clean_linker_0, # of connection points: 2
#     Edge 64, Type (0, 0), BuildingBlock: CIFDUS_clean_linker_0, # of connection points: 2
#     Edge 65, Type (0, 0), BuildingBlock: CIFDUS_clean_linker_0, # of connection points: 2
#     Edge 66, Type (0, 0), BuildingBlock: CIFDUS_clean_linker_0, # of connection points: 2
#     Edge 67, Type (0, 0), BuildingBlock: CIFDUS_clean_linker_0, # of connection points: 2
#     Edge 68, Type (0, 0), BuildingBlock: CIFDUS_clean_linker_0, # of connection points: 2
#     Edge 69, Type (0, 0), BuildingBlock: CIFDUS_clean_linker_0, # of connection points: 2
#     Edge 70, Type (0, 0), BuildingBlock: CIFDUS_clean_linker_0, # of connection points: 2
#     Edge 71, Type (0, 0), BuildingBlock: CIFDUS_clean_linker_0, # of connection points: 2
#     Edge 72, Type (0, 0), BuildingBlock: CIFDUS_clean_linker_0, # of connection points: 2
#     Edge 73, Type (0, 0), BuildingBlock: CIFDUS_clean_linker_0, # of connection points: 2
#     Edge 74, Type (0, 0), BuildingBlock: CIFDUS_clean_linker_0, # of connection points: 2
#     Edge 75, Type (0, 0), BuildingBlock: CIFDUS_clean_linker_0, # of connection points: 2
#     Edge 76, Type (0, 0), BuildingBlock: CIFDUS_clean_linker_0, # of connection points: 2
#     Edge 77, Type (0, 0), BuildingBlock: CIFDUS_clean_linker_0, # of connection points: 2
#     Edge 78, Type (0, 0), BuildingBlock: CIFDUS_clean_linker_0, # of connection points: 2
#     Edge 79, Type (0, 0), BuildingBlock: CIFDUS_clean_linker_0, # of connection points: 2
#     Edge 80, Type (0, 0), BuildingBlock: CIFDUS_clean_linker_0, # of connection points: 2
#     Edge 81, Type (0, 0), BuildingBlock: CIFDUS_clean_linker_0, # of connection points: 2
#     Edge 82, Type (0, 0), BuildingBlock: CIFDUS_clean_linker_0, # of connection points: 2
#     Edge 83, Type (0, 0), BuildingBlock: CIFDUS_clean_linker_0, # of connection points: 2
#     Edge 84, Type (0, 0), BuildingBlock: CIFDUS_clean_linker_0, # of connection points: 2
#     Edge 85, Type (0, 0), BuildingBlock: CIFDUS_clean_linker_0, # of connection points: 2
#     Edge 86, Type (0, 0), BuildingBlock: CIFDUS_clean_linker_0, # of connection points: 2
#     Edge 87, Type (0, 0), BuildingBlock: CIFDUS_clean_linker_0, # of connection points: 2
#     Edge 88, Type (0, 0), BuildingBlock: CIFDUS_clean_linker_0, # of connection points: 2
#     Edge 89, Type (0, 0), BuildingBlock: CIFDUS_clean_linker_0, # of connection points: 2
#     Edge 90, Type (0, 0), BuildingBlock: CIFDUS_clean_linker_0, # of connection points: 2
#     Edge 91, Type (0, 0), BuildingBlock: CIFDUS_clean_linker_0, # of connection points: 2
#     Edge 92, Type (0, 0), BuildingBlock: CIFDUS_clean_linker_0, # of connection points: 2
#     Edge 93, Type (0, 0), BuildingBlock: CIFDUS_clean_linker_0, # of connection points: 2
#     Edge 94, Type (0, 0), BuildingBlock: CIFDUS_clean_linker_0, # of connection points: 2
#     Edge 95, Type (0, 0), BuildingBlock: CIFDUS_clean_linker_0, # of connection points: 2
#     Edge 96, Type (0, 0), BuildingBlock: CIFDUS_clean_linker_0, # of connection points: 2
#     Edge 97, Type (0, 0), BuildingBlock: CIFDUS_clean_linker_0, # of connection points: 2
#     Edge 98, Type (0, 0), BuildingBlock: CIFDUS_clean_linker_0, # of connection points: 2
#     Edge 99, Type (0, 0), BuildingBlock: CIFDUS_clean_linker_0, # of connection points: 2
#     Edge 100, Type (0, 0), BuildingBlock: CIFDUS_clean_linker_0, # of connection points: 2
#     Edge 101, Type (0, 0), BuildingBlock: CIFDUS_clean_linker_0, # of connection points: 2
#     Edge 102, Type (0, 0), BuildingBlock: CIFDUS_clean_linker_0, # of connection points: 2
#     Edge 103, Type (0, 0), BuildingBlock: CIFDUS_clean_linker_0, # of connection points: 2
#     Edge 104, Type (0, 0), BuildingBlock: CIFDUS_clean_linker_0, # of connection points: 2
#     Edge 105, Type (0, 0), BuildingBlock: CIFDUS_clean_linker_0, # of connection points: 2
#     Edge 106, Type (0, 0), BuildingBlock: CIFDUS_clean_linker_0, # of connection points: 2
#     Edge 107, Type (0, 0), BuildingBlock: CIFDUS_clean_linker_0, # of connection points: 2
# Relax obj value: 0.234
# Max RMSD: 0.227
# Mean RMSD: 0.227
data_MOF--net-wjc--node1-HICVOG_clean_sbu_0--edge1-CIFDUS_clean_linker_0
_symmetry_space_group_name_H-M    P1
_symmetry_Int_Tables_number       1
_symmetry_cell_setting            triclinic
loop_
_symmetry_equiv_pos_as_xyz
'x, y, z'
_cell_length_a     36.41998
_cell_length_b     36.541024
_cell_length_c     72.934094
_cell_angle_alpha  90.011191
_cell_angle_beta   90.057488
_cell_angle_gamma 120.08729
loop_
_atom_site_label
_atom_site_type_symbol
_atom_site_fract_x
_atom_site_fract_y
_atom_site_fract_z
_atom_type_partial_charge
Zn0 Zn 0.43518 0.1045 0.11977 0.0
C1 C 0.5208 0.14104 0.16187 0.0
N2 N 0.53131 0.1147 0.15392 0.0
C3 C 0.50391 0.09799 0.13993 0.0
N4 N 0.47672 0.11327 0.13923 0.0
N5 N 0.48715 0.13954 0.15338 0.0
C6 C 0.52009 0.25191 0.16128 0.0
O7 O 0.51199 0.24223 0.14382 0.0
O8 O 0.3848 0.04618 0.12386 0.0
Zn9 Zn 0.45825 0.16652 0.16369 0.0
N10 N 0.4629 0.11015 0.09606 0.0
C11 C 0.52934 0.13778 0.08078 0.0
C12 C 0.50603 0.13329 0.09653 0.0
C13 C 0.44192 0.0939 0.07989 0.0
N14 N 0.50866 0.12098 0.06483 0.0
C15 C 0.46555 0.09962 0.06374 0.0
O16 O 0.42365 0.17795 0.14606 0.0
C17 C 0.40865 0.1711 0.12991 0.0
O18 O 0.41251 0.14578 0.11913 0.0
H19 H 0.52241 0.14805 0.10911 0.0
H20 H 0.4076 0.07698 0.0796 0.0
C21 C 0.42258 0.15998 0.19838 0.0
C22 C 0.40167 0.14091 0.2148 0.0
C23 C 0.38526 0.07403 0.20267 0.0
C24 C 0.40635 0.09334 0.1864 0.0
N25 N 0.42473 0.13595 0.18468 0.0
N26 N 0.38371 0.0982 0.21651 0.0
H27 H 0.43841 0.1939 0.19665 0.0
C28 C 0.34768 0.02944 0.11706 0.0
O29 O 0.33865 0.05055 0.10505 0.0
O30 O 0.50102 0.22342 0.17321 0.0
H31 H 0.40864 0.07473 0.17539 0.0
H32 H 0.56365 0.1552 0.08113 0.0
H33 H 0.37068 0.04016 0.20436 0.0
Zn34 Zn 0.29221 0.45848 0.15707 0.0
C35 C 0.39285 0.48988 0.12391 0.0
N36 N 0.40517 0.52806 0.1311 0.0
C37 C 0.37204 0.52173 0.1412 0.0
N38 N 0.34032 0.48127 0.14048 0.0
N39 N 0.35267 0.46084 0.12924 0.0
C40 C 0.32025 0.32917 0.11142 0.0
O41 O 0.29925 0.32195 0.09594 0.0
O42 O 0.28051 0.50434 0.16491 0.0
Zn43 Zn 0.31292 0.40717 0.11676 0.0
N44 N 0.30351 0.43641 0.17915 0.0
C45 C 0.33927 0.40656 0.19503 0.0
C46 C 0.33068 0.42115 0.17882 0.0
C47 C 0.28427 0.43741 0.19499 0.0
N48 N 0.32023 0.40771 0.21086 0.0
C49 C 0.29259 0.42257 0.21141 0.0
O50 O 0.24983 0.38233 0.12285 0.0
C51 C 0.22452 0.38722 0.13325 0.0
O52 O 0.2382 0.41481 0.14588 0.0
H53 H 0.34571 0.42063 0.16612 0.0
H54 H 0.26344 0.45051 0.19475 0.0
C55 C 0.32944 0.41253 0.07626 0.0
C56 C 0.32137 0.42305 0.05869 0.0
C57 C 0.28329 0.45314 0.07211 0.0
C58 C 0.29098 0.44258 0.0894 0.0
N59 N 0.31306 0.42184 0.09121 0.0
N60 N 0.29839 0.44294 0.0572 0.0
H61 H 0.34751 0.39661 0.07794 0.0
C62 C 0.26696 0.51874 0.15245 0.0
O63 O 0.26265 0.50401 0.13568 0.0
O64 O 0.32737 0.36095 0.12118 0.0
H65 H 0.27878 0.45026 0.10142 0.0
H66 H 0.361 0.3945 0.19505 0.0
H67 H 0.2653 0.46917 0.07051 0.0
Zn68 Zn 0.9059 0.33099 0.1169 0.0
C69 C 0.87152 0.38552 0.15754 0.0
N70 N 0.90129 0.42158 0.15009 0.0
C71 C 0.9171 0.40902 0.13644 0.0
N72 N 0.89794 0.36611 0.13549 0.0
N73 N 0.86986 0.352 0.14907 0.0
C74 C 0.75518 0.28373 0.15496 0.0
O75 O 0.76858 0.28662 0.13801 0.0
O76 O 0.96301 0.33657 0.12266 0.0
Zn77 Zn 0.83668 0.29661 0.15946 0.0
N78 N 0.90572 0.35391 0.09253 0.0
C79 C 0.88908 0.39841 0.07474 0.0
C80 C 0.88921 0.38001 0.09141 0.0
C81 C 0.91894 0.34273 0.07708 0.0
N82 N 0.90258 0.38767 0.05945 0.0
C83 C 0.91685 0.35966 0.05994 0.0
O84 O 0.82211 0.2509 0.14155 0.0
C85 C 0.83013 0.24069 0.12609 0.0
O86 O 0.86012 0.26738 0.11591 0.0
H87 H 0.87594 0.38643 0.10336 0.0
H88 H 0.93011 0.32041 0.07807 0.0
C89 C 0.84731 0.2744 0.19622 0.0
C90 C 0.87109 0.27347 0.21126 0.0
C91 C 0.93323 0.3059 0.19284 0.0
C92 C 0.90954 0.30677 0.17801 0.0
N93 N 0.8672 0.29128 0.18001 0.0
N94 N 0.9136 0.28956 0.20908 0.0
H95 H 0.81367 0.26297 0.19745 0.0
C96 C 0.9818 0.31833 0.11583 0.0
O97 O 0.96338 0.29032 0.10269 0.0
O98 O 0.77998 0.28763 0.16802 0.0
H99 H 0.92477 0.3202 0.16505 0.0
H100 H 0.87707 0.42008 0.07385 0.0
H101 H 0.96704 0.31839 0.19152 0.0
Zn102 Zn 0.55897 0.8435 0.15286 0.0
C103 C 0.53776 0.91808 0.11922 0.0
N104 N 0.49712 0.89135 0.12364 0.0
C105 C 0.49949 0.86241 0.13393 0.0
N106 N 0.53974 0.87085 0.13598 0.0
N107 N 0.56405 0.90535 0.12625 0.0
C108 C 0.69703 0.99362 0.10492 0.0
O109 O 0.70927 0.96762 0.0988 0.0
O110 O 0.51121 0.78686 0.16039 0.0
Zn111 Zn 0.61643 0.91599 0.11378 0.0
N112 N 0.58102 0.87478 0.17539 0.0
C113 C 0.60628 0.93546 0.19444 0.0
C114 C 0.5909 0.91562 0.17753 0.0
C115 C 0.58602 0.853 0.18935 0.0
N116 N 0.61127 0.91367 0.20841 0.0
C117 C 0.60181 0.87276 0.20639 0.0
O118 O 0.64608 0.88451 0.12316 0.0
C119 C 0.63643 0.85137 0.13249 0.0
O120 O 0.60351 0.83385 0.14249 0.0
H121 H 0.5867 0.93246 0.16627 0.0
H122 H 0.57687 0.82027 0.18711 0.0
C123 C 0.60365 0.91241 0.07374 0.0
C124 C 0.59234 0.88972 0.05712 0.0
C125 C 0.57045 0.82599 0.07348 0.0
C126 C 0.5815 0.84835 0.08988 0.0
N127 N 0.59856 0.89105 0.08973 0.0
N128 N 0.57628 0.84714 0.05752 0.0
H129 H 0.61699 0.94637 0.07393 0.0
C130 C 0.4932 0.75818 0.14841 0.0
O131 O 0.50562 0.76649 0.13125 0.0
O132 O 0.65981 0.97853 0.11148 0.0
H133 H 0.57706 0.83185 0.10271 0.0
H134 H 0.61416 0.96793 0.19645 0.0
H135 H 0.55737 0.79208 0.0734 0.0
Zn136 Zn 0.68788 0.58861 0.11806 0.0
C137 C 0.62863 0.4908 0.15379 0.0
N138 N 0.59322 0.48482 0.14568 0.0
C139 C 0.60684 0.51774 0.13417 0.0
N140 N 0.6497 0.54357 0.13512 0.0
N141 N 0.6625 0.5267 0.14791 0.0
C142 C 0.73808 0.49001 0.1524 0.0
O143 O 0.73976 0.507 0.13632 0.0
O144 O 0.68104 0.63881 0.12346 0.0
Zn145 Zn 0.71529 0.54978 0.16054 0.0
N146 N 0.66772 0.56615 0.09357 0.0
C147 C 0.6266 0.5041 0.0757 0.0
C148 C 0.6451 0.52322 0.09227 0.0
C149 C 0.67539 0.5908 0.07842 0.0
N150 N 0.63373 0.52852 0.06069 0.0
C151 C 0.65819 0.57139 0.06141 0.0
O152 O 0.76483 0.59063 0.14633 0.0
C153 C 0.77831 0.61054 0.13137 0.0
O154 O 0.75273 0.60974 0.11916 0.0
H155 H 0.64115 0.50371 0.10405 0.0
H156 H 0.69487 0.62481 0.07954 0.0
C157 C 0.73818 0.57625 0.19698 0.0
C158 C 0.73651 0.59277 0.21413 0.0
C159 C 0.68281 0.60549 0.2027 0.0
C160 C 0.68484 0.58922 0.18565 0.0
N161 N 0.71238 0.57481 0.18322 0.0
N162 N 0.70848 0.60674 0.21653 0.0
H163 H 0.759 0.56362 0.19456 0.0
C164 C 0.70271 0.67672 0.11783 0.0
O165 O 0.73437 0.68716 0.10644 0.0
O166 O 0.72736 0.5032 0.16633 0.0
H167 H 0.66443 0.58766 0.17453 0.0
H168 H 0.60763 0.47003 0.07465 0.0
H169 H 0.66089 0.61687 0.20495 0.0
Zn170 Zn 0.17409 0.72209 0.15461 0.0
C171 C 0.099 0.62254 0.12214 0.0
N172 N 0.12371 0.6084 0.12908 0.0
C173 C 0.15195 0.64093 0.13908 0.0
N174 N 0.14517 0.67384 0.13849 0.0
N175 N 0.1121 0.66293 0.12749 0.0
C176 C 0.01992 0.69773 0.10164 0.0
O177 O 0.04108 0.71986 0.08727 0.0
O178 O 0.23308 0.73392 0.1603 0.0
Zn179 Zn 0.10116 0.70336 0.11385 0.0
N180 N 0.14544 0.71205 0.17798 0.0
C181 C 0.08609 0.67258 0.19744 0.0
C182 C 0.10494 0.67995 0.18017 0.0
C183 C 0.16787 0.73728 0.19232 0.0
N184 N 0.1085 0.69766 0.21179 0.0
C185 C 0.14906 0.7302 0.20979 0.0
O186 O 0.13662 0.76575 0.12141 0.0
C187 C 0.16706 0.78985 0.13204 0.0
O188 O 0.18166 0.77501 0.14386 0.0
H189 H 0.08765 0.66005 0.16866 0.0
H190 H 0.20038 0.7619 0.19009 0.0
C191 C 0.09989 0.68718 0.07376 0.0
C192 C 0.12113 0.69692 0.05678 0.0
C193 C 0.18656 0.74033 0.07197 0.0
C194 C 0.16555 0.73111 0.08868 0.0
N195 N 0.12268 0.70563 0.08929 0.0
N196 N 0.1639 0.72339 0.05644 0.0
H197 H 0.06588 0.6664 0.07453 0.0
C198 C 0.25974 0.74555 0.14733 0.0
O199 O 0.2477 0.74824 0.13064 0.0
O200 O 0.03883 0.68803 0.11377 0.0
H201 H 0.18326 0.74482 0.10115 0.0
H202 H 0.05392 0.64701 0.19947 0.0
H203 H 0.22058 0.76105 0.0713 0.0
Zn204 Zn 0.91314 0.58921 0.40427 0.0
C205 C 0.90578 0.51621 0.35989 0.0
N206 N 0.94164 0.52196 0.3676 0.0
C207 C 0.94593 0.54392 0.3829 0.0
N208 N 0.91532 0.55451 0.38405 0.0
N209 N 0.89016 0.53717 0.36957 0.0
C210 C 0.77111 0.47034 0.37064 0.0
O211 O 0.79376 0.4713 0.38485 0.0
O212 O 0.97487 0.63534 0.4085 0.0
Zn213 Zn 0.84758 0.54948 0.36041 0.0
N214 N 0.89496 0.55327 0.42564 0.0
C215 C 0.8583 0.48308 0.43726 0.0
C216 C 0.86954 0.51114 0.42265 0.0
C217 C 0.90888 0.56881 0.4428 0.0
N218 N 0.87254 0.49837 0.45432 0.0
C219 C 0.89742 0.54057 0.45762 0.0
O220 O 0.83988 0.59055 0.37531 0.0
C221 C 0.84801 0.6137 0.38939 0.0
O222 O 0.87438 0.61578 0.40149 0.0
H223 H 0.8589 0.49938 0.40894 0.0
H224 H 0.92933 0.60251 0.44474 0.0
C225 C 0.8389 0.5716 0.32343 0.0
C226 C 0.85434 0.59262 0.3066 0.0
C227 C 0.9249 0.62008 0.3175 0.0
C228 C 0.9094 0.59971 0.33419 0.0
N229 N 0.86683 0.5757 0.33677 0.0
N230 N 0.89714 0.61611 0.30417 0.0
H231 H 0.80528 0.55193 0.326 0.0
C232 C 0.99161 0.67547 0.40876 0.0
O233 O 0.96739 0.69228 0.40651 0.0
O234 O 0.78797 0.49926 0.35864 0.0
H235 H 0.93112 0.60314 0.34505 0.0
H236 H 0.83856 0.44939 0.43506 0.0
H237 H 0.9587 0.63916 0.31518 0.0
Zn238 Zn 0.28592 0.83184 0.35956 0.0
C239 C 0.40208 0.92479 0.37489 0.0
N240 N 0.41324 0.90245 0.36396 0.0
C241 C 0.37623 0.86829 0.35965 0.0
N242 N 0.34351 0.87011 0.36724 0.0
N243 N 0.3593 0.90506 0.3773 0.0
C244 C 0.32746 0.99657 0.40383 0.0
O245 O 0.30387 0.97997 0.41846 0.0
O246 O 0.27725 0.77393 0.35383 0.0
Zn247 Zn 0.32907 0.91531 0.39739 0.0
N248 N 0.2751 0.85311 0.33706 0.0
C249 C 0.2822 0.91116 0.31954 0.0
C250 C 0.28865 0.89506 0.33578 0.0
C251 C 0.25503 0.8264 0.32275 0.0
N252 N 0.2623 0.88462 0.30525 0.0
C253 C 0.24817 0.84237 0.3063 0.0
O254 O 0.26451 0.87387 0.39953 0.0
C255 C 0.23541 0.84016 0.39201 0.0
O256 O 0.24222 0.8239 0.37797 0.0
H257 H 0.30459 0.91579 0.34727 0.0
H258 H 0.24539 0.79333 0.32416 0.0
C259 C 0.35083 0.92536 0.43672 0.0
C260 C 0.37246 0.9221 0.45211 0.0
C261 C 0.40113 0.8892 0.43357 0.0
C262 C 0.37897 0.89154 0.41853 0.0
N263 N 0.35536 0.9108 0.42011 0.0
N264 N 0.39738 0.90446 0.44993 0.0
H265 H 0.33082 0.93923 0.43796 0.0
C266 C 0.27013 0.7484 0.36693 0.0
O267 O 0.26947 0.76063 0.38381 0.0
O268 O 0.33893 0.97478 0.39434 0.0
H269 H 0.38076 0.87792 0.4057 0.0
H270 H 0.29299 0.94454 0.31827 0.0
H271 H 0.42066 0.87474 0.43233 0.0
Zn272 Zn 0.47314 0.30075 0.35934 0.0
C273 C 0.5024 0.41241 0.38184 0.0
N274 N 0.53627 0.42517 0.3709 0.0
C275 C 0.53095 0.38922 0.36381 0.0
N276 N 0.49481 0.35573 0.36993 0.0
N277 N 0.47666 0.36977 0.38159 0.0
C278 C 0.35754 0.33099 0.38419 0.0
O279 O 0.36635 0.31199 0.37106 0.0
O280 O 0.52148 0.29108 0.35338 0.0
Zn281 Zn 0.43299 0.33569 0.40018 0.0
N282 N 0.44296 0.29674 0.33697 0.0
C283 C 0.40416 0.31914 0.31846 0.0
C284 C 0.42598 0.32208 0.3346 0.0
C285 C 0.43917 0.26856 0.32386 0.0
N286 N 0.40039 0.29109 0.30534 0.0
C287 C 0.41717 0.26536 0.30749 0.0
O288 O 0.41088 0.27131 0.40036 0.0
C289 C 0.41329 0.24388 0.39038 0.0
O290 O 0.43512 0.25431 0.37579 0.0
H291 H 0.42955 0.34448 0.34512 0.0
H292 H 0.45399 0.24967 0.32614 0.0
C293 C 0.43704 0.3514 0.43938 0.0
C294 C 0.45836 0.36901 0.45601 0.0
C295 C 0.52432 0.39773 0.4405 0.0
C296 C 0.50321 0.379 0.42426 0.0
N297 N 0.46003 0.35736 0.42382 0.0
N298 N 0.50151 0.39217 0.45595 0.0
H299 H 0.40274 0.33305 0.43881 0.0
C300 C 0.54071 0.28705 0.36707 0.0
O301 O 0.52793 0.28925 0.38367 0.0
O302 O 0.38135 0.34371 0.39828 0.0
H303 H 0.52133 0.38196 0.41209 0.0
H304 H 0.39045 0.33909 0.31633 0.0
H305 H 0.55862 0.4158 0.44092 0.0
Zn306 Zn 0.18074 0.46151 0.35219 0.0
C307 C 0.09891 0.48901 0.37791 0.0
N308 N 0.1109 0.51595 0.36371 0.0
C309 C 0.14082 0.51121 0.35529 0.0
N310 N 0.14553 0.48081 0.36351 0.0
N311 N 0.1198 0.46696 0.37796 0.0
C312 C 0.04303 0.3524 0.38605 0.0
O313 O 0.07014 0.35742 0.37307 0.0
O314 O 0.2386 0.50982 0.34451 0.0
Zn315 Zn 0.11735 0.42869 0.39762 0.0
N316 N 0.1524 0.43038 0.33015 0.0
C317 C 0.08762 0.38481 0.31479 0.0
C318 C 0.10942 0.40638 0.33052 0.0
C319 C 0.17468 0.43379 0.31461 0.0
N320 N 0.10968 0.38839 0.29926 0.0
C321 C 0.15281 0.41226 0.29858 0.0
O322 O 0.15938 0.40593 0.39529 0.0
C323 C 0.18546 0.40579 0.38359 0.0
O324 O 0.19244 0.42492 0.36835 0.0
H325 H 0.09225 0.40456 0.34288 0.0
H326 H 0.20881 0.45396 0.31467 0.0
C327 C 0.11517 0.44565 0.43685 0.0
C328 C 0.12664 0.47325 0.45198 0.0
C329 C 0.17185 0.53081 0.43273 0.0
C330 C 0.16091 0.50344 0.41788 0.0
N331 N 0.13215 0.46169 0.42006 0.0
N332 N 0.15445 0.51516 0.44935 0.0
H333 H 0.09274 0.41221 0.43832 0.0
C334 C 0.26731 0.5309 0.3563 0.0
O335 O 0.25844 0.52291 0.37381 0.0
O336 O 0.05589 0.37897 0.39917 0.0
H337 H 0.17469 0.51553 0.40457 0.0
H338 H 0.05337 0.36566 0.31485 0.0
H339 H 0.19407 0.56423 0.4311 0.0
Zn340 Zn 0.69998 0.11991 0.39796 0.0
C341 C 0.6482 0.15995 0.35844 0.0
N342 N 0.61127 0.12996 0.36522 0.0
C343 C 0.62265 0.11035 0.37762 0.0
N344 N 0.66565 0.12811 0.37872 0.0
N345 N 0.681 0.15885 0.3663 0.0
C346 C 0.76311 0.27283 0.35782 0.0
O347 O 0.75901 0.26122 0.37508 0.0
O348 O 0.69041 0.0603 0.39435 0.0
Zn349 Zn 0.73485 0.18584 0.35431 0.0
N350 N 0.67749 0.12535 0.42183 0.0
C351 C 0.63397 0.1484 0.43637 0.0
C352 C 0.65407 0.14491 0.42085 0.0
C353 C 0.68393 0.11163 0.43835 0.0
N354 N 0.63944 0.13388 0.45261 0.0
C355 C 0.66424 0.11599 0.45426 0.0
O356 O 0.78229 0.19476 0.37049 0.0
C357 C 0.79304 0.18788 0.38609 0.0
O358 O 0.76546 0.16288 0.39769 0.0
H359 H 0.65092 0.15797 0.4081 0.0
H360 H 0.70376 0.09746 0.43914 0.0
C361 C 0.74899 0.17245 0.3169 0.0
C362 C 0.7439 0.14815 0.30113 0.0
C363 C 0.70499 0.08561 0.31879 0.0
C364 C 0.71009 0.10989 0.33436 0.0
N365 N 0.73175 0.15274 0.33308 0.0
N366 N 0.72171 0.1052 0.30258 0.0
H367 H 0.76536 0.20661 0.31626 0.0
C368 C 0.70234 0.03799 0.40319 0.0
O369 O 0.72662 0.05388 0.41772 0.0
O370 O 0.75136 0.24458 0.34554 0.0
H371 H 0.69638 0.0948 0.34731 0.0
H372 H 0.61461 0.16313 0.43559 0.0
H373 H 0.68755 0.05145 0.31954 0.0
Zn374 Zn 0.56891 0.73531 0.3536 0.0
C375 C 0.54128 0.62484 0.37713 0.0
N376 N 0.50662 0.61117 0.36659 0.0
C377 C 0.51091 0.6465 0.35923 0.0
N378 N 0.54774 0.68053 0.36461 0.0
N379 N 0.56694 0.66743 0.37622 0.0
C380 C 0.68499 0.70027 0.38094 0.0
O381 O 0.67662 0.71559 0.36626 0.0
O382 O 0.52059 0.74346 0.346 0.0
Zn383 Zn 0.61027 0.70253 0.39497 0.0
N384 N 0.59929 0.74003 0.33117 0.0
C385 C 0.64024 0.72144 0.31207 0.0
C386 C 0.61999 0.71817 0.32872 0.0
C387 C 0.59771 0.76483 0.31762 0.0
N388 N 0.63851 0.74604 0.29851 0.0
C389 C 0.6178 0.76814 0.30072 0.0
O390 O 0.63155 0.76683 0.39441 0.0
C391 C 0.62763 0.79383 0.38471 0.0
O392 O 0.60544 0.78305 0.37017 0.0
H393 H 0.62022 0.69801 0.3395 0.0
H394 H 0.57982 0.78067 0.31996 0.0
C395 C 0.60057 0.68404 0.43437 0.0
C396 C 0.57596 0.66644 0.45026 0.0
C397 C 0.51353 0.64748 0.4331 0.0
C398 C 0.53793 0.66568 0.41754 0.0
N399 N 0.58075 0.68248 0.41826 0.0
N400 N 0.53303 0.64828 0.44903 0.0
H401 H 0.63476 0.69841 0.43477 0.0
C402 C 0.50236 0.75431 0.35781 0.0
O403 O 0.51463 0.75886 0.37501 0.0
O404 O 0.66177 0.69306 0.39505 0.0
H405 H 0.52261 0.66594 0.4049 0.0
H406 H 0.65683 0.70419 0.30986 0.0
H407 H 0.47938 0.63322 0.43259 0.0
Zn408 Zn 0.5898 0.902 0.89605 0.0
C409 C 0.50534 0.87435 0.85395 0.0
N410 N 0.49896 0.90359 0.86189 0.0
C411 C 0.52564 0.91703 0.87626 0.0
N412 N 0.54912 0.89746 0.8769 0.0
N413 N 0.53635 0.87132 0.86261 0.0
C414 C 0.49255 0.75401 0.86258 0.0
O415 O 0.50787 0.77219 0.8785 0.0
O416 O 0.64142 0.96172 0.89481 0.0
Zn417 Zn 0.55593 0.8356 0.85213 0.0
N418 N 0.56163 0.89367 0.91954 0.0
C419 C 0.49669 0.86749 0.93587 0.0
C420 C 0.51848 0.8724 0.91956 0.0
C421 C 0.58394 0.90787 0.93548 0.0
N422 N 0.51884 0.88194 0.95173 0.0
C423 C 0.56196 0.9015 0.95212 0.0
O424 O 0.59573 0.82765 0.86773 0.0
C425 C 0.61442 0.83478 0.88308 0.0
O426 O 0.61232 0.85958 0.89487 0.0
H427 H 0.50104 0.85955 0.90697 0.0
H428 H 0.61824 0.92354 0.93518 0.0
C429 C 0.58493 0.834 0.81562 0.0
C430 C 0.60496 0.8519 0.79879 0.0
C431 C 0.61967 0.91937 0.80963 0.0
C432 C 0.59974 0.90141 0.82616 0.0
N433 N 0.58299 0.85924 0.82888 0.0
N434 N 0.62174 0.89434 0.79642 0.0
H435 H 0.57022 0.80045 0.8182 0.0
C436 C 0.66049 0.97332 0.87947 0.0
O437 O 0.64652 0.94637 0.86577 0.0
O438 O 0.50733 0.77574 0.84805 0.0
H439 H 0.59739 0.92088 0.83671 0.0
H440 H 0.46239 0.85153 0.936 0.0
H441 H 0.63324 0.95292 0.80726 0.0
Zn442 Zn 0.72272 0.54409 0.86127 0.0
C443 C 0.62001 0.51895 0.89206 0.0
N444 N 0.6048 0.48213 0.88309 0.0
C445 C 0.63732 0.4876 0.87283 0.0
N446 N 0.67156 0.5262 0.87529 0.0
N447 N 0.66116 0.54666 0.88748 0.0
C448 C 0.69398 0.6664 0.88386 0.0
O449 O 0.70742 0.6539 0.86978 0.0
O450 O 0.73201 0.49461 0.85747 0.0
Zn451 Zn 0.7019 0.59911 0.90078 0.0
N452 N 0.71884 0.56618 0.83781 0.0
C453 C 0.68871 0.59624 0.81832 0.0
C454 C 0.68991 0.57873 0.83512 0.0
C455 C 0.74674 0.57042 0.82446 0.0
N456 N 0.71669 0.60073 0.80499 0.0
C457 C 0.74612 0.58854 0.80749 0.0
O458 O 0.76552 0.62377 0.89518 0.0
C459 C 0.78993 0.61636 0.8853 0.0
O460 O 0.77519 0.58734 0.87332 0.0
H461 H 0.6682 0.57538 0.84596 0.0
H462 H 0.76871 0.55936 0.82719 0.0
C463 C 0.68704 0.59494 0.94061 0.0
C464 C 0.69285 0.58298 0.95821 0.0
C465 C 0.72306 0.5447 0.94511 0.0
C466 C 0.71758 0.55672 0.92772 0.0
N467 N 0.70022 0.58188 0.9258 0.0
N468 N 0.71079 0.55824 0.95992 0.0
H469 H 0.67339 0.61506 0.93875 0.0
C470 C 0.73765 0.47979 0.87227 0.0
O471 O 0.73631 0.49695 0.88791 0.0
O472 O 0.6889 0.6476 0.89912 0.0
H473 H 0.72795 0.54691 0.91575 0.0
H474 H 0.66587 0.6064 0.8159 0.0
H475 H 0.73723 0.52504 0.94686 0.0
Zn476 Zn 0.11134 0.67525 0.89612 0.0
C477 C 0.15441 0.62628 0.8567 0.0
N478 N 0.12431 0.58904 0.86308 0.0
C479 C 0.10461 0.59915 0.87595 0.0
N480 N 0.12198 0.64194 0.87746 0.0
N481 N 0.15269 0.65832 0.86499 0.0
C482 C 0.26734 0.73141 0.86205 0.0
O483 O 0.25247 0.72765 0.87878 0.0
O484 O 0.05305 0.66781 0.89069 0.0
Zn485 Zn 0.18507 0.71494 0.85544 0.0
N486 N 0.11195 0.65163 0.92017 0.0
C487 C 0.12859 0.60681 0.93769 0.0
C488 C 0.1286 0.62564 0.92113 0.0
C489 C 0.09828 0.66214 0.93563 0.0
N490 N 0.11471 0.61698 0.95303 0.0
C491 C 0.10019 0.64479 0.95264 0.0
O492 O 0.19534 0.76065 0.87301 0.0
C493 C 0.18469 0.76885 0.88835 0.0
O494 O 0.15482 0.73982 0.89786 0.0
H495 H 0.14212 0.6196 0.90917 0.0
H496 H 0.08689 0.68429 0.93475 0.0
C497 C 0.18334 0.74401 0.81936 0.0
C498 C 0.16454 0.7469 0.80296 0.0
C499 C 0.09652 0.70155 0.81583 0.0
C500 C 0.11541 0.699 0.83206 0.0
N501 N 0.15838 0.72013 0.83346 0.0
N502 N 0.1214 0.72522 0.8017 0.0
H503 H 0.21744 0.75969 0.82087 0.0
C504 C 0.03454 0.68591 0.89798 0.0
O505 O 0.05411 0.71453 0.91078 0.0
O506 O 0.24329 0.72658 0.84858 0.0
H507 H 0.0961 0.68005 0.84339 0.0
H508 H 0.14077 0.58526 0.93849 0.0
H509 H 0.06234 0.68473 0.81443 0.0
Zn510 Zn 0.42771 0.10191 0.90277 0.0
C511 C 0.51643 0.12656 0.86255 0.0
N512 N 0.52259 0.09904 0.87209 0.0
C513 C 0.49475 0.08798 0.88591 0.0
N514 N 0.47162 0.10782 0.88492 0.0
N515 N 0.4861 0.13243 0.87015 0.0
C516 C 0.53794 0.24738 0.87011 0.0
O517 O 0.52328 0.22743 0.88574 0.0
O518 O 0.38037 0.03964 0.90058 0.0
Zn519 Zn 0.47003 0.16996 0.85914 0.0
N520 N 0.45638 0.11438 0.9264 0.0
C521 C 0.52156 0.16271 0.94092 0.0
C522 C 0.49576 0.14914 0.92547 0.0
C523 C 0.44125 0.09275 0.94248 0.0
N524 N 0.50688 0.14116 0.95684 0.0
C525 C 0.46738 0.10666 0.95817 0.0
O526 O 0.43375 0.18138 0.8752 0.0
C527 C 0.41092 0.17418 0.8893 0.0
O528 O 0.40471 0.14469 0.90055 0.0
H529 H 0.50711 0.1661 0.91268 0.0
H530 H 0.40988 0.06513 0.94301 0.0
C531 C 0.44552 0.17473 0.82239 0.0
C532 C 0.42545 0.15856 0.80539 0.0
C533 C 0.40033 0.08884 0.81658 0.0
C534 C 0.41999 0.10512 0.8334 0.0
N535 N 0.44221 0.14765 0.83594 0.0
N536 N 0.40353 0.1158 0.80305 0.0
H537 H 0.46423 0.20838 0.82487 0.0
C538 C 0.34652 0.01512 0.90939 0.0
O539 O 0.3355 0.02981 0.9235 0.0
O540 O 0.52092 0.228 0.85529 0.0
H541 H 0.41778 0.08411 0.84434 0.0
H542 H 0.55306 0.19015 0.94029 0.0
H543 H 0.38264 0.05504 0.81429 0.0
Zn544 Zn 0.30594 0.46081 0.85477 0.0
C545 C 0.41131 0.48405 0.88248 0.0
N546 N 0.42792 0.51658 0.87067 0.0
C547 C 0.39445 0.51217 0.86139 0.0
N548 N 0.35857 0.47768 0.86704 0.0
N549 N 0.36846 0.45947 0.88048 0.0
C550 C 0.3126 0.32637 0.90366 0.0
O551 O 0.27672 0.31863 0.91126 0.0
O552 O 0.29892 0.51124 0.85018 0.0
Zn553 Zn 0.3283 0.41476 0.89783 0.0
N554 N 0.30452 0.43533 0.83139 0.0
C555 C 0.32865 0.40032 0.81149 0.0
C556 C 0.32936 0.41793 0.82854 0.0
C557 C 0.27874 0.43568 0.81796 0.0
N558 N 0.30298 0.40068 0.79805 0.0
C559 C 0.2776 0.41771 0.80074 0.0
O560 O 0.26322 0.39354 0.8949 0.0
C561 C 0.23982 0.3982 0.8831 0.0
O562 O 0.25588 0.4216 0.86918 0.0
H563 H 0.34965 0.41796 0.83938 0.0
H564 H 0.26008 0.45058 0.8207 0.0
C565 C 0.33912 0.41876 0.93778 0.0
C566 C 0.35464 0.44076 0.95446 0.0
C567 C 0.38109 0.50582 0.93857 0.0
C568 C 0.36464 0.484 0.92224 0.0
N569 N 0.3451 0.44103 0.92198 0.0
N570 N 0.37564 0.48379 0.95424 0.0
H571 H 0.32268 0.38457 0.93737 0.0
C572 C 0.29404 0.5286 0.86432 0.0
O573 O 0.29528 0.51369 0.88057 0.0
O574 O 0.33725 0.36313 0.89709 0.0
H575 H 0.36798 0.5014 0.90979 0.0
H576 H 0.34836 0.38648 0.80894 0.0
H577 H 0.39752 0.54001 0.93885 0.0
Zn578 Zn 0.91291 0.3005 0.89798 0.0
C579 C 0.8628 0.36527 0.87489 0.0
N580 N 0.89024 0.39647 0.88571 0.0
C581 C 0.91566 0.38229 0.89174 0.0
N582 N 0.90321 0.34281 0.88519 0.0
N583 N 0.87061 0.33306 0.87405 0.0
C584 C 0.75344 0.24741 0.84475 0.0
O585 O 0.75952 0.21673 0.83909 0.0
O586 O 0.97536 0.31493 0.8974 0.0
Zn587 Zn 0.84185 0.28716 0.8567 0.0
N588 N 0.89279 0.29752 0.92306 0.0
C589 C 0.82966 0.26192 0.94086 0.0
C590 C 0.84998 0.27179 0.92398 0.0
C591 C 0.91616 0.31565 0.93853 0.0
N592 N 0.85284 0.2787 0.95627 0.0
C593 C 0.89552 0.30548 0.95572 0.0
O594 O 0.83148 0.23186 0.86633 0.0
C595 C 0.84426 0.21565 0.87835 0.0
O596 O 0.87406 0.23849 0.88957 0.0
H597 H 0.83171 0.25841 0.91161 0.0
H598 H 0.95011 0.33658 0.93756 0.0
C599 C 0.85265 0.28009 0.81773 0.0
C600 C 0.87529 0.29019 0.80109 0.0
C601 C 0.93712 0.34066 0.81704 0.0
C602 C 0.9145 0.33021 0.83346 0.0
N603 N 0.8727 0.30025 0.83352 0.0
N604 N 0.91709 0.32058 0.80132 0.0
H605 H 0.81931 0.25712 0.81805 0.0
C606 C 0.99382 0.30355 0.90908 0.0
O607 O 0.97195 0.2797 0.92296 0.0
O608 O 0.78382 0.27984 0.85229 0.0
H609 H 0.93008 0.34599 0.84606 0.0
H610 H 0.79571 0.24097 0.94173 0.0
H611 H 0.97037 0.3646 0.81677 0.0
Zn612 Zn 0.17473 0.46442 0.65526 0.0
C613 C 0.09532 0.4971 0.63139 0.0
N614 N 0.111 0.5258 0.64494 0.0
C615 C 0.13965 0.51865 0.65305 0.0
N616 N 0.14051 0.48578 0.64511 0.0
N617 N 0.11283 0.47193 0.63132 0.0
C618 C 0.03332 0.35994 0.62473 0.0
O619 O 0.06134 0.36861 0.63782 0.0
O620 O 0.23299 0.51148 0.66238 0.0
Zn621 Zn 0.10695 0.43259 0.61139 0.0
N622 N 0.149 0.43393 0.6776 0.0
C623 C 0.08899 0.39472 0.69676 0.0
C624 C 0.10637 0.41462 0.68011 0.0
C625 C 0.17504 0.4342 0.69105 0.0
N626 N 0.115 0.39521 0.71026 0.0
C627 C 0.15781 0.41433 0.70792 0.0
O628 O 0.14712 0.40753 0.61252 0.0
C629 C 0.17503 0.4078 0.62326 0.0
O630 O 0.18444 0.42772 0.63836 0.0
H631 H 0.08621 0.41524 0.66937 0.0
H632 H 0.20891 0.45087 0.6887 0.0
C633 C 0.10476 0.45516 0.57238 0.0
C634 C 0.11909 0.48539 0.55817 0.0
C635 C 0.16887 0.53712 0.57858 0.0
C636 C 0.15505 0.50726 0.59251 0.0
N637 N 0.12279 0.46721 0.58936 0.0
N638 N 0.15054 0.52557 0.56183 0.0
H639 H 0.07944 0.42303 0.57007 0.0
C640 C 0.2608 0.5321 0.65028 0.0
O641 O 0.25054 0.52419 0.63286 0.0
O642 O 0.04503 0.38342 0.61055 0.0
H643 H 0.16971 0.51613 0.60589 0.0
H644 H 0.05512 0.37932 0.69903 0.0
H645 H 0.19403 0.56924 0.58103 0.0
Zn646 Zn 0.72813 0.1771 0.66105 0.0
C647 C 0.61642 0.10548 0.63465 0.0
N648 N 0.60366 0.12031 0.64859 0.0
C649 C 0.63945 0.14673 0.65737 0.0
N650 N 0.673 0.14685 0.64952 0.0
N651 N 0.65915 0.12142 0.63495 0.0
C652 C 0.69351 0.03074 0.6091 0.0
O653 O 0.72236 0.04954 0.59631 0.0
O654 O 0.73958 0.23364 0.67064 0.0
Zn655 Zn 0.69393 0.11384 0.61598 0.0
N656 N 0.73081 0.14656 0.68228 0.0
C657 C 0.71477 0.08215 0.69693 0.0
C658 C 0.71394 0.104 0.6814 0.0
C659 C 0.7488 0.16833 0.69805 0.0
N660 N 0.73244 0.10377 0.71268 0.0
C661 C 0.74982 0.14654 0.7138 0.0
O662 O 0.7595 0.15619 0.61731 0.0
C663 C 0.78666 0.18298 0.62859 0.0
O664 O 0.77556 0.18991 0.6441 0.0
H665 H 0.69968 0.08725 0.66879 0.0
H666 H 0.76121 0.20209 0.69834 0.0
C667 C 0.67291 0.10595 0.57612 0.0
C668 C 0.65975 0.11883 0.5604 0.0
C669 C 0.65388 0.16997 0.57822 0.0
C670 C 0.66722 0.15757 0.59368 0.0
N671 N 0.67592 0.12554 0.59251 0.0
N672 N 0.65035 0.15032 0.56203 0.0
H673 H 0.68027 0.08077 0.57535 0.0
C674 C 0.74723 0.26337 0.65957 0.0
O675 O 0.74594 0.25634 0.64185 0.0
O676 O 0.67976 0.05178 0.61779 0.0
H677 H 0.67061 0.17344 0.60661 0.0
H678 H 0.70129 0.0482 0.6965 0.0
H679 H 0.64647 0.19513 0.57906 0.0
Zn680 Zn 0.6046 0.69433 0.61041 0.0
C681 C 0.50115 0.63752 0.64326 0.0
N682 N 0.49402 0.60231 0.63473 0.0
C683 C 0.52943 0.6145 0.62492 0.0
N684 N 0.558 0.65643 0.6273 0.0
N685 N 0.53988 0.67013 0.63917 0.0
C686 C 0.50218 0.74654 0.65145 0.0
O687 O 0.51339 0.7517 0.6341 0.0
O688 O 0.6556 0.68491 0.61171 0.0
Zn689 Zn 0.56473 0.72252 0.65257 0.0
N690 N 0.57763 0.67932 0.58658 0.0
C691 C 0.51408 0.66461 0.57113 0.0
C692 C 0.53893 0.67645 0.58686 0.0
C693 C 0.59327 0.67191 0.57089 0.0
N694 N 0.52917 0.65666 0.55559 0.0
C695 C 0.56813 0.66016 0.55492 0.0
O696 O 0.60115 0.77313 0.63756 0.0
C697 C 0.62273 0.78533 0.62292 0.0
O698 O 0.62618 0.75915 0.61242 0.0
H699 H 0.52738 0.68315 0.59933 0.0
H700 H 0.62428 0.67468 0.57089 0.0
C701 C 0.59796 0.74632 0.68794 0.0
C702 C 0.61621 0.74472 0.70468 0.0
C703 C 0.62852 0.69178 0.69216 0.0
C704 C 0.60995 0.69332 0.67562 0.0
N705 N 0.59508 0.7206 0.6739 0.0
N706 N 0.63091 0.71715 0.70632 0.0
H707 H 0.58454 0.76663 0.68619 0.0
C708 C 0.67903 0.69769 0.62593 0.0
O709 O 0.66997 0.7171 0.63879 0.0
O710 O 0.51924 0.73274 0.66249 0.0
H711 H 0.60668 0.67249 0.66442 0.0
H712 H 0.48308 0.66182 0.57123 0.0
H713 H 0.64039 0.67013 0.69383 0.0
Zn714 Zn 0.8509 0.56465 0.66157 0.0
C715 C 0.91851 0.52126 0.63488 0.0
N716 N 0.90047 0.4913 0.64778 0.0
C717 C 0.87456 0.50117 0.65662 0.0
N718 N 0.87842 0.53745 0.65 0.0
N719 N 0.90527 0.54993 0.63598 0.0
C720 C 0.9967 0.67115 0.6081 0.0
O721 O 0.9769 0.68335 0.59675 0.0
O722 O 0.79263 0.5208 0.66966 0.0
Zn723 Zn 0.91275 0.59106 0.61684 0.0
N724 N 0.88009 0.59381 0.68364 0.0
C725 C 0.94098 0.63063 0.70263 0.0
C726 C 0.92273 0.61204 0.68582 0.0
C727 C 0.855 0.59363 0.69745 0.0
N728 N 0.91578 0.63004 0.71653 0.0
C729 C 0.873 0.61217 0.71441 0.0
O730 O 0.87475 0.61856 0.61849 0.0
C731 C 0.85 0.62162 0.63002 0.0
O732 O 0.84211 0.60334 0.64548 0.0
H733 H 0.94217 0.61166 0.67469 0.0
H734 H 0.82111 0.57796 0.69528 0.0
C735 C 0.91439 0.56635 0.57821 0.0
C736 C 0.89757 0.53584 0.56415 0.0
C737 C 0.84208 0.48919 0.58394 0.0
C738 C 0.85839 0.5194 0.59774 0.0
N739 N 0.89453 0.55693 0.59482 0.0
N740 N 0.86205 0.49804 0.56753 0.0
H741 H 0.94294 0.59651 0.5761 0.0
C742 C 0.76355 0.50627 0.65768 0.0
O743 O 0.77281 0.51919 0.64062 0.0
O744 O 0.97577 0.63603 0.61654 0.0
H745 H 0.84269 0.51278 0.61089 0.0
H746 H 0.97486 0.64509 0.70468 0.0
H747 H 0.81375 0.45895 0.5862 0.0
Zn748 Zn 0.33582 0.91415 0.61197 0.0
C749 C 0.38932 0.873 0.64991 0.0
N750 N 0.42558 0.90291 0.64261 0.0
C751 C 0.41339 0.92241 0.63051 0.0
N752 N 0.37055 0.90582 0.63063 0.0
N753 N 0.35614 0.87534 0.64319 0.0
C754 C 0.27751 0.75627 0.64591 0.0
O755 O 0.27482 0.76975 0.62954 0.0
O756 O 0.34674 0.97486 0.61324 0.0
Zn757 Zn 0.30079 0.84112 0.65393 0.0
N758 N 0.35509 0.90355 0.58887 0.0
C759 C 0.37964 0.86117 0.57464 0.0
C760 C 0.36352 0.87131 0.58983 0.0
C761 C 0.36075 0.92537 0.57295 0.0
N762 N 0.38597 0.88318 0.5589 0.0
C763 C 0.37674 0.91483 0.55751 0.0
O764 O 0.25383 0.83273 0.63766 0.0
C765 C 0.24304 0.84301 0.62287 0.0
O766 O 0.27044 0.87223 0.61254 0.0
H767 H 0.3581 0.85381 0.60244 0.0
H768 H 0.35351 0.95068 0.57239 0.0
C769 C 0.27315 0.84064 0.69072 0.0
C770 C 0.27331 0.85838 0.70789 0.0
C771 C 0.32372 0.92617 0.69641 0.0
C772 C 0.32362 0.90832 0.67951 0.0
N773 N 0.29831 0.86602 0.67698 0.0
N774 N 0.29886 0.90089 0.71017 0.0
H775 H 0.25439 0.80693 0.68837 0.0
C776 C 0.33612 0.98559 0.62803 0.0
O777 O 0.31871 0.95735 0.64113 0.0
O778 O 0.28925 0.78181 0.65935 0.0
H779 H 0.34409 0.92788 0.66859 0.0
H780 H 0.38701 0.83597 0.57532 0.0
H781 H 0.34378 0.9598 0.69866 0.0
Zn782 Zn 0.46877 0.29557 0.65765 0.0
C783 C 0.49645 0.40022 0.62795 0.0
N784 N 0.53184 0.41484 0.63802 0.0
C785 C 0.52601 0.38118 0.64746 0.0
N786 N 0.48824 0.34698 0.64362 0.0
N787 N 0.46906 0.35828 0.63116 0.0
C788 C 0.33817 0.32241 0.61011 0.0
O789 O 0.33158 0.30007 0.5951 0.0
O790 O 0.51786 0.28634 0.66326 0.0
Zn791 Zn 0.41848 0.31823 0.6168 0.0
N792 N 0.44585 0.29958 0.68089 0.0
C793 C 0.41704 0.3302 0.70083 0.0
C794 C 0.43219 0.32757 0.6836 0.0
C795 C 0.44482 0.27392 0.69462 0.0
N796 N 0.41607 0.30463 0.71458 0.0
C797 C 0.42935 0.27614 0.712 0.0
O798 O 0.39555 0.25417 0.62115 0.0
C799 C 0.40078 0.22934 0.63176 0.0
O800 O 0.42674 0.2433 0.64503 0.0
H801 H 0.43338 0.34783 0.67252 0.0
H802 H 0.45686 0.25273 0.69197 0.0
C803 C 0.42772 0.33977 0.57711 0.0
C804 C 0.44336 0.33752 0.55977 0.0
C805 C 0.48061 0.3065 0.57318 0.0
C806 C 0.46485 0.30829 0.59028 0.0
N807 N 0.43842 0.3243 0.59192 0.0
N808 N 0.46932 0.32089 0.55835 0.0
H809 H 0.40695 0.35275 0.5787 0.0
C810 C 0.53214 0.27486 0.64994 0.0
O811 O 0.51508 0.27049 0.63362 0.0
O812 O 0.37031 0.33126 0.62013 0.0
H813 H 0.47307 0.29638 0.60224 0.0
H814 H 0.40623 0.35246 0.70328 0.0
H815 H 0.50138 0.29351 0.57166 0.0
H816 H 0.26969 0.97685 0.10176 0.0
H817 H 0.35237 0.98565 0.14617 0.0
H818 H 0.30112 0.91433 0.1559 0.0
H819 H 0.23573 0.84822 0.15083 0.0
H820 H 0.1537 0.83589 0.10559 0.0
H821 H 0.20129 0.91014 0.09749 0.0
C822 C 0.2763 0.96321 0.11363 0.0
C823 C 0.31505 0.98655 0.1231 0.0
C824 C 0.24675 0.92163 0.11908 0.0
C825 C 0.32309 0.96838 0.13847 0.0
C826 C 0.29371 0.92757 0.14412 0.0
C827 C 0.22773 0.86169 0.13931 0.0
C828 C 0.19114 0.83624 0.1288 0.0
C829 C 0.2558 0.90374 0.13438 0.0
C830 C 0.18155 0.85463 0.11397 0.0
C831 C 0.20895 0.89705 0.10924 0.0
H832 H 0.31897 0.26318 0.09281 0.0
H833 H 0.36024 0.33359 0.14354 0.0
H834 H 0.38999 0.29045 0.15359 0.0
H835 H 0.40539 0.23402 0.14809 0.0
H836 H 0.36638 0.16338 0.09743 0.0
H837 H 0.33462 0.20537 0.0873 0.0
C838 C 0.3343 0.26894 0.1061 0.0
C839 C 0.33717 0.30162 0.1174 0.0
C840 C 0.35181 0.24405 0.11182 0.0
C841 C 0.35742 0.30873 0.13453 0.0
C842 C 0.37452 0.28405 0.14032 0.0
C843 C 0.38979 0.22744 0.13483 0.0
C844 C 0.38823 0.19536 0.12357 0.0
C845 C 0.37201 0.25178 0.12908 0.0
C846 C 0.36808 0.1878 0.1064 0.0
C847 C 0.34991 0.21183 0.10061 0.0
H848 H 0.03806 0.29755 0.10088 0.0
H849 H 0.02276 0.36603 0.14571 0.0
H850 H 0.09489 0.38972 0.15591 0.0
H851 H 0.16346 0.39489 0.15119 0.0
H852 H 0.18132 0.32946 0.10584 0.0
H853 H 0.10692 0.30019 0.097 0.0
C854 C 0.0504 0.31736 0.11296 0.0
C855 C 0.02496 0.33016 0.12241 0.0
C856 C 0.0924 0.33144 0.1187 0.0
C857 C 0.04158 0.3559 0.13805 0.0
C858 C 0.08289 0.36946 0.14394 0.0
C859 C 0.15116 0.37383 0.13948 0.0
C860 C 0.17823 0.36458 0.12919 0.0
C861 C 0.10875 0.35796 0.13423 0.0
C862 C 0.16136 0.33716 0.11406 0.0
C863 C 0.1188 0.32057 0.10892 0.0
H864 H 0.84762 0.18413 0.10878 0.0
H865 H 0.7454 0.19962 0.12962 0.0
H866 H 0.69486 0.12546 0.12372 0.0
H867 H 0.68024 0.05507 0.11518 0.0
H868 H 0.7814 0.03671 0.09538 0.0
H869 H 0.8315 0.11266 0.09825 0.0
C870 C 0.81417 0.17126 0.11168 0.0
C871 C 0.80029 0.19725 0.11968 0.0
C872 C 0.78508 0.12789 0.10868 0.0
C873 C 0.7569 0.18017 0.12356 0.0
C874 C 0.72793 0.13771 0.12024 0.0
C875 C 0.71315 0.06757 0.11138 0.0
C876 C 0.72697 0.04003 0.10526 0.0
C877 C 0.74178 0.11105 0.11324 0.0
C878 C 0.76981 0.05709 0.10023 0.0
C879 C 0.79855 0.10058 0.10188 0.0
H880 H 0.72995 0.75615 0.1042 0.0
H881 H 0.64973 0.66807 0.14574 0.0
H882 H 0.6266 0.717 0.1553 0.0
H883 H 0.62467 0.78167 0.15055 0.0
H884 H 0.70103 0.86916 0.1081 0.0
H885 H 0.73089 0.82406 0.10057 0.0
C886 C 0.70771 0.74789 0.11544 0.0
C887 C 0.69135 0.7083 0.12411 0.0
C888 C 0.69389 0.77607 0.12077 0.0
C889 C 0.66255 0.69809 0.13868 0.0
C890 C 0.64933 0.72611 0.14422 0.0
C891 C 0.64823 0.79134 0.13976 0.0
C892 C 0.66027 0.82867 0.12982 0.0
C893 C 0.66417 0.76476 0.13515 0.0
C894 C 0.69112 0.84062 0.116 0.0
C895 C 0.70799 0.81466 0.11159 0.0
H896 H 0.97467 0.67616 0.13316 0.0
H897 H 0.96305 0.69028 0.07514 0.0
H898 H 0.88755 0.66689 0.07894 0.0
H899 H 0.82362 0.63941 0.09893 0.0
H900 H 0.83865 0.62906 0.15717 0.0
H901 H 0.9135 0.65431 0.15306 0.0
C902 C 0.95566 0.67415 0.12133 0.0
C903 C 0.97441 0.68458 0.10389 0.0
C904 C 0.91261 0.66141 0.12366 0.0
C905 C 0.94939 0.68236 0.08875 0.0
C906 C 0.90617 0.66897 0.09091 0.0
C907 C 0.84342 0.64327 0.11072 0.0
C908 C 0.825 0.63172 0.12829 0.0
C909 C 0.88723 0.65811 0.10833 0.0
C910 C 0.85144 0.63706 0.14341 0.0
C911 C 0.8945 0.65152 0.14112 0.0
H912 H 0.19029 0.75911 0.4028 0.0
H913 H 0.18247 0.87217 0.39662 0.0
H914 H 0.10567 0.83155 0.40234 0.0
H915 H 0.0398 0.76206 0.40587 0.0
H916 H 0.04986 0.6506 0.4145 0.0
H917 H 0.12655 0.69222 0.41109 0.0
C918 C 0.17182 0.77494 0.40314 0.0
C919 C 0.19173 0.81842 0.39931 0.0
C920 C 0.12798 0.75147 0.40654 0.0
C921 C 0.16773 0.83876 0.39973 0.0
C922 C 0.12381 0.81544 0.40284 0.0
C923 C 0.05878 0.74694 0.40723 0.0
C924 C 0.03867 0.70271 0.40964 0.0
C925 C 0.10338 0.7715 0.40577 0.0
C926 C 0.06408 0.68405 0.41181 0.0
C927 C 0.10812 0.70798 0.41005 0.0
H928 H 0.40861 0.17938 0.3704 0.0
H929 H 0.36922 0.20572 0.42218 0.0
H930 H 0.33746 0.13092 0.43074 0.0
H931 H 0.32354 0.05838 0.42378 0.0
H932 H 0.36504 0.03502 0.37183 0.0
H933 H 0.39345 0.10852 0.36318 0.0
C934 C 0.39305 0.16906 0.38359 0.0
C935 C 0.3916 0.19843 0.39566 0.0
C936 C 0.37535 0.12643 0.38843 0.0
C937 C 0.3709 0.18394 0.41261 0.0
C938 C 0.35282 0.14116 0.41752 0.0
C939 C 0.33854 0.06935 0.41052 0.0
C940 C 0.34234 0.04108 0.39854 0.0
C941 C 0.35521 0.11214 0.40559 0.0
C942 C 0.36197 0.05594 0.38142 0.0
C943 C 0.3782 0.09805 0.37642 0.0
H944 H 0.21643 0.37249 0.35929 0.0
H945 H 0.21411 0.39553 0.41712 0.0
H946 H 0.26699 0.37375 0.42267 0.0
H947 H 0.31789 0.35301 0.41049 0.0
H948 H 0.31731 0.32873 0.35252 0.0
H949 H 0.26188 0.3464 0.34764 0.0
C950 C 0.22707 0.37228 0.37317 0.0
C951 C 0.21149 0.38586 0.38776 0.0
C952 C 0.25744 0.35998 0.37619 0.0
C953 C 0.22534 0.38497 0.40566 0.0
C954 C 0.25589 0.3729 0.4088 0.0
C955 C 0.30545 0.35141 0.39682 0.0
C956 C 0.32213 0.33985 0.38187 0.0
C957 C 0.27287 0.36118 0.39409 0.0
C958 C 0.30525 0.33751 0.36428 0.0
C959 C 0.27349 0.34766 0.36145 0.0
H960 H 0.98007 0.31917 0.41255 0.0
H961 H 1.00394 0.30854 0.35534 0.0
H962 H 0.93011 0.25477 0.35093 0.0
H963 H 0.85806 0.21314 0.36253 0.0
H964 H 0.83154 0.22034 0.41956 0.0
H965 H 0.90694 0.27206 0.42492 0.0
C966 C 0.96907 0.30489 0.39917 0.0
C967 C 0.99778 0.31827 0.38428 0.0
C968 C 0.92608 0.27309 0.39669 0.0
C969 C 0.98291 0.29907 0.36707 0.0
C970 C 0.94052 0.2682 0.36449 0.0
C971 C 0.86878 0.22556 0.37623 0.0
C972 C 0.83911 0.21291 0.39061 0.0
C973 C 0.91181 0.25526 0.37912 0.0
C974 C 0.8537 0.22917 0.40827 0.0
C975 C 0.89678 0.25911 0.41128 0.0
H976 H 0.6223 0.85676 0.36745 0.0
H977 H 0.6769 0.83272 0.4153 0.0
H978 H 0.70582 0.90637 0.42509 0.0
H979 H 0.71388 0.97739 0.42032 0.0
H980 H 0.65736 0.99887 0.37241 0.0
H981 H 0.63094 0.92637 0.3625 0.0
C982 C 0.64067 0.8674 0.38002 0.0
C983 C 0.64732 0.83891 0.3906 0.0
C984 C 0.65678 0.90947 0.38561 0.0
C985 C 0.67124 0.85375 0.40684 0.0
C986 C 0.68773 0.89592 0.41246 0.0
C987 C 0.69595 0.96626 0.40768 0.0
C988 C 0.68766 0.99381 0.39718 0.0
C989 C 0.68047 0.92405 0.402 0.0
C990 C 0.66421 0.97862 0.38084 0.0
C991 C 0.64905 0.93704 0.37512 0.0
H992 H 0.72386 0.68281 0.40956 0.0
H993 H 0.72154 0.68993 0.3505 0.0
H994 H 0.77327 0.66665 0.34816 0.0
H995 H 0.81676 0.64104 0.36245 0.0
H996 H 0.8227 0.63542 0.42133 0.0
H997 H 0.77289 0.66203 0.42417 0.0
C998 C 0.73488 0.67946 0.3962 0.0
C999 C 0.7184 0.68798 0.38022 0.0
C1000 C 0.76552 0.66649 0.3949 0.0
C1001 C 0.73345 0.68375 0.36304 0.0
C1002 C 0.76312 0.67034 0.36166 0.0
C1003 C 0.80758 0.64604 0.37596 0.0
C1004 C 0.82339 0.63601 0.39166 0.0
C1005 C 0.77906 0.66125 0.37745 0.0
C1006 C 0.81134 0.64311 0.40902 0.0
C1007 C 0.78252 0.65799 0.41062 0.0
H1008 H 0.79669 0.15638 0.85297 0.0
H1009 H 0.83192 0.17066 0.91009 0.0
H1010 H 0.77807 0.09672 0.91572 0.0
H1011 H 0.71682 0.02919 0.90471 0.0
H1012 H 0.68441 0.01555 0.84722 0.0
H1013 H 0.7408 0.08789 0.84152 0.0
C1014 C 0.79313 0.14314 0.8666 0.0
C1015 C 0.81835 0.16912 0.88108 0.0
C1016 C 0.76198 0.10076 0.86975 0.0
C1017 C 0.81333 0.15134 0.89864 0.0
C1018 C 0.78215 0.10913 0.90191 0.0
C1019 C 0.72226 0.04211 0.89095 0.0
C1020 C 0.69609 0.01706 0.87645 0.0
C1021 C 0.75556 0.08378 0.88765 0.0
C1022 C 0.70395 0.03405 0.85864 0.0
C1023 C 0.73625 0.07549 0.85534 0.0
H1024 H 0.64606 0.8024 0.85869 0.0
H1025 H 0.6289 0.80957 0.91679 0.0
H1026 H 0.65277 0.75842 0.92242 0.0
H1027 H 0.67387 0.70764 0.91033 0.0
H1028 H 0.69043 0.70253 0.85191 0.0
H1029 H 0.67104 0.75643 0.84698 0.0
C1030 C 0.64791 0.79319 0.87265 0.0
C1031 C 0.63544 0.80971 0.88729 0.0
C1032 C 0.66106 0.76357 0.87571 0.0
C1033 C 0.63853 0.79763 0.90527 0.0
C1034 C 0.6518 0.76804 0.90846 0.0
C1035 C 0.67339 0.71848 0.89654 0.0
C1036 C 0.68341 0.70062 0.88151 0.0
C1037 C 0.66235 0.75009 0.89373 0.0
C1038 C 0.68287 0.71539 0.86376 0.0
C1039 C 0.67177 0.74635 0.86089 0.0
H1040 H 0.97981 0.70733 0.91411 0.0
H1041 H 0.98989 0.6356 0.86927 0.0
H1042 H 0.91659 0.61107 0.86068 0.0
H1043 H 0.84887 0.60669 0.86665 0.0
H1044 H 0.836 0.67532 0.91203 0.0
H1045 H 0.91132 0.70483 0.91943 0.0
C1046 C 0.96606 0.68659 0.90238 0.0
C1047 C 0.99047 0.67324 0.89242 0.0
C1048 C 0.92338 0.67204 0.89758 0.0
C1049 C 0.97198 0.64626 0.87727 0.0
C1050 C 0.92998 0.6322 0.87231 0.0
C1051 C 0.86238 0.62839 0.8781 0.0
C1052 C 0.8365 0.63857 0.88879 0.0
C1053 C 0.90528 0.64443 0.88249 0.0
C1054 C 0.85501 0.66691 0.90352 0.0
C1055 C 0.89809 0.68364 0.90782 0.0
H1056 H 0.27325 0.95173 0.92519 0.0
H1057 H 0.36022 0.97645 0.8804 0.0
H1058 H 0.31805 0.90344 0.87029 0.0
H1059 H 0.25693 0.83288 0.87375 0.0
H1060 H 0.16926 0.8055 0.91842 0.0
H1061 H 0.21126 0.87911 0.92892 0.0
C1062 C 0.28295 0.94117 0.91321 0.0
C1063 C 0.32 0.97 0.90357 0.0
C1064 C 0.2584 0.8986 0.90739 0.0
C1065 C 0.332 0.9554 0.88812 0.0
C1066 C 0.30784 0.91348 0.88228 0.0
C1067 C 0.24665 0.84277 0.88578 0.0
C1068 C 0.20958 0.81339 0.89518 0.0
C1069 C 0.27099 0.88488 0.89176 0.0
C1070 C 0.19746 0.8272 0.91085 0.0
C1071 C 0.22153 0.86938 0.91686 0.0
H1072 H 0.38769 0.334 0.89267 0.0
H1073 H 0.26456 0.24278 0.91363 0.0
H1074 H 0.28397 0.18764 0.91246 0.0
H1075 H 0.33587 0.1643 0.90427 0.0
H1076 H 0.45835 0.25756 0.88323 0.0
H1077 H 0.43944 0.31218 0.88587 0.0
C1078 C 0.36499 0.3021 0.89699 0.0
C1079 C 0.32458 0.29276 0.90309 0.0
C1080 C 0.37636 0.2705 0.89634 0.0
C1081 C 0.29589 0.25109 0.90878 0.0
C1082 C 0.30699 0.2194 0.90814 0.0
C1083 C 0.35846 0.19665 0.90051 0.0
C1084 C 0.39839 0.20647 0.89342 0.0
C1085 C 0.34716 0.22856 0.90183 0.0
C1086 C 0.42719 0.24874 0.88853 0.0
C1087 C 0.41646 0.28024 0.89001 0.0
H1088 H 0.04453 0.3399 0.8794 0.0
H1089 H 0.04657 0.29808 0.93447 0.0
H1090 H 0.12221 0.32183 0.93148 0.0
H1091 H 0.18909 0.35659 0.91323 0.0
H1092 H 0.18398 0.3957 0.8578 0.0
H1093 H 0.10904 0.37077 0.86098 0.0
C1094 C 0.06142 0.33589 0.89077 0.0
C1095 C 0.03972 0.31734 0.90714 0.0
C1096 C 0.10481 0.34917 0.8889 0.0
C1097 C 0.06232 0.31222 0.92166 0.0
C1098 C 0.10571 0.32584 0.91997 0.0
C1099 C 0.17148 0.35926 0.90182 0.0
C1100 C 0.19283 0.37848 0.88537 0.0
C1101 C 0.12749 0.34457 0.90364 0.0
C1102 C 0.16907 0.38152 0.87074 0.0
C1103 C 0.12587 0.36724 0.87249 0.0
H1104 H 0.85307 0.21776 0.65188 0.0
H1105 H 0.82293 0.21059 0.59437 0.0
H1106 H 0.89673 0.26502 0.58776 0.0
H1107 H 0.9694 0.31829 0.59894 0.0
H1108 H 0.99682 0.32222 0.65678 0.0
H1109 H 0.9247 0.26606 0.66258 0.0
C1110 C 0.86263 0.22767 0.63783 0.0
C1111 C 0.83233 0.2101 0.62366 0.0
C1112 C 0.90473 0.25903 0.63421 0.0
C1113 C 0.84556 0.22322 0.60554 0.0
C1114 C 0.88772 0.25471 0.6018 0.0
C1115 C 0.95952 0.30674 0.61278 0.0
C1116 C 0.98877 0.32487 0.6274 0.0
C1117 C 0.91751 0.27351 0.6161 0.0
C1118 C 0.97536 0.30911 0.64523 0.0
C1119 C 0.93395 0.27684 0.6486 0.0
H1120 H 0.60714 0.84325 0.63894 0.0
H1121 H 0.67973 0.83037 0.59525 0.0
H1122 H 0.70832 0.90504 0.58715 0.0
H1123 H 0.71224 0.97421 0.59252 0.0
H1124 H 0.63728 0.98436 0.63597 0.0
H1125 H 0.61016 0.91056 0.64401 0.0
C1126 C 0.62942 0.85657 0.62767 0.0
C1127 C 0.64142 0.83092 0.61782 0.0
C1128 C 0.64527 0.89922 0.62299 0.0
C1129 C 0.66995 0.84913 0.60314 0.0
C1130 C 0.68629 0.8919 0.5985 0.0
C1131 C 0.69 0.9603 0.60376 0.0
C1132 C 0.67707 0.98524 0.61364 0.0
C1133 C 0.67412 0.91731 0.60832 0.0
C1134 C 0.64801 0.96634 0.62811 0.0
C1135 C 0.63242 0.92398 0.63275 0.0
H1136 H 0.71945 0.67433 0.60042 0.0
H1137 H 0.71823 0.70111 0.65803 0.0
H1138 H 0.77359 0.6839 0.66389 0.0
H1139 H 0.81938 0.65731 0.6533 0.0
H1140 H 0.8232 0.63119 0.59591 0.0
H1141 H 0.77081 0.65302 0.58928 0.0
C1142 C 0.73149 0.67657 0.61423 0.0
C1143 C 0.7143 0.68875 0.62878 0.0
C1144 C 0.76407 0.66702 0.61755 0.0
C1145 C 0.73066 0.69187 0.64655 0.0
C1146 C 0.76242 0.682 0.64995 0.0
C1147 C 0.80928 0.65696 0.63926 0.0
C1148 C 0.82516 0.64248 0.62514 0.0
C1149 C 0.77899 0.6691 0.63563 0.0
C1150 C 0.81185 0.64253 0.60704 0.0
C1151 C 0.7815 0.65459 0.60328 0.0
H1152 H 0.05297 0.7487 0.59301 0.0
H1153 H 0.04489 0.65565 0.63188 0.0
H1154 H 0.11936 0.70056 0.63955 0.0
H1155 H 0.18618 0.76594 0.63594 0.0
H1156 H 0.19774 0.85985 0.5969 0.0
H1157 H 0.12254 0.81484 0.5886 0.0
C1158 C 0.06754 0.73822 0.60312 0.0
C1159 C 0.04293 0.69872 0.61191 0.0
C1160 C 0.11097 0.76441 0.60752 0.0
C1161 C 0.06263 0.68573 0.6249 0.0
C1162 C 0.10537 0.71148 0.62935 0.0
C1163 C 0.17246 0.77699 0.62566 0.0
C1164 C 0.19769 0.81669 0.61724 0.0
C1165 C 0.12968 0.75091 0.62088 0.0
C1166 C 0.17916 0.82965 0.60368 0.0
C1167 C 0.13613 0.80386 0.59895 0.0
H1168 H 0.34565 0.04556 0.60262 0.0
H1169 H 0.34635 0.02426 0.6608 0.0
H1170 H 0.3627 0.09634 0.66703 0.0
H1171 H 0.38031 0.16649 0.65618 0.0
H1172 H 0.37773 0.18913 0.59833 0.0
H1173 H 0.35762 0.11547 0.59177 0.0
C1174 C 0.34933 0.05678 0.61664 0.0
C1175 C 0.34513 0.02954 0.63121 0.0
C1176 C 0.358 0.09842 0.62021 0.0
C1177 C 0.34941 0.0444 0.64932 0.0
C1178 C 0.35877 0.0857 0.65292 0.0
C1179 C 0.3747 0.15517 0.64213 0.0
C1180 C 0.38057 0.18333 0.62777 0.0
C1181 C 0.36346 0.11306 0.6385 0.0
C1182 C 0.37299 0.16805 0.60966 0.0
C1183 C 0.36197 0.12602 0.6059 0.0
H1184 H 0.23883 0.40791 0.64251 0.0
H1185 H 0.16729 0.36047 0.59232 0.0
H1186 H 0.21065 0.32889 0.58396 0.0
H1187 H 0.27037 0.3163 0.59074 0.0
H1188 H 0.34156 0.36611 0.64091 0.0
H1189 H 0.29671 0.39517 0.64934 0.0
C1190 C 0.23231 0.39053 0.62973 0.0
C1191 C 0.19956 0.38665 0.61808 0.0
C1192 C 0.25751 0.37291 0.62497 0.0
C1193 C 0.19211 0.36401 0.60159 0.0
C1194 C 0.217 0.34598 0.59679 0.0
C1195 C 0.27595 0.33334 0.60355 0.0
C1196 C 0.30945 0.33884 0.61517 0.0
C1197 C 0.25001 0.35044 0.60834 0.0
C1198 C 0.31618 0.36124 0.63168 0.0
C1199 C 0.29049 0.37795 0.63654 0.0
H1200 H 0.48481 0.05972 0.03775 0.0
H1201 H 0.40517 0.11344 0.04809 0.0
H1202 H 0.39125 0.11266 0.01515 0.0
H1203 H 0.41401 0.11009 0.98327 0.0
H1204 H 0.49622 0.05908 0.97354 0.0
H1205 H 0.49624 0.04446 1.00623 0.0
C1206 C 0.46324 0.0699 0.03281 0.0
C1207 C 0.44623 0.08681 0.04527 0.0
C1208 C 0.45626 0.07021 0.01388 0.0
C1209 C 0.41835 0.09994 0.03877 0.0
C1210 C 0.41081 0.09996 0.0199 0.0
C1211 C 0.43031 0.09408 0.9883 0.0
C1212 C 0.45479 0.08524 0.9761 0.0
C1213 C 0.43123 0.08703 0.00727 0.0
C1214 C 0.47676 0.06556 0.98272 0.0
C1215 C 0.47713 0.05765 1.00142 0.0
H1216 H 0.27521 0.37246 0.03096 0.0
H1217 H 0.40354 0.45896 0.04787 0.0
H1218 H 0.42743 0.46683 0.01597 0.0
H1219 H 0.40846 0.46043 0.98317 0.0
H1220 H 0.2796 0.37454 0.96637 0.0
H1221 H 0.25925 0.35416 0.99828 0.0
C1222 C 0.30868 0.39153 0.02767 0.0
C1223 C 0.3377 0.41507 0.0416 0.0
C1224 C 0.32183 0.39654 0.0093 0.0
C1225 C 0.38087 0.44017 0.03733 0.0
C1226 C 0.39435 0.44509 0.01907 0.0
C1227 C 0.37624 0.43625 0.98648 0.0
C1228 C 0.34548 0.41933 0.97249 0.0
C1229 C 0.36468 0.42517 1.0049 0.0
C1230 C 0.30391 0.38785 0.97688 0.0
C1231 C 0.29216 0.37652 0.99515 0.0
H1232 H 0.95239 0.40592 0.0292 0.0
H1233 H 0.89622 0.27898 0.05056 0.0
H1234 H 0.89131 0.25153 0.01962 0.0
H1235 H 0.89113 0.26237 0.98633 0.0
H1236 H 0.94661 0.38874 0.96468 0.0
H1237 H 0.96431 0.41781 0.99584 0.0
C1238 C 0.94014 0.37237 0.02711 0.0
C1239 C 0.92445 0.34457 0.0422 0.0
C1240 C 0.93685 0.35668 0.00919 0.0
C1241 C 0.9089 0.30121 0.03929 0.0
C1242 C 0.90563 0.28539 0.02154 0.0
C1243 C 0.90834 0.29635 0.98844 0.0
C1244 C 0.91745 0.32345 0.97331 0.0
C1245 C 0.91782 0.31263 1.00636 0.0
C1246 C 0.93966 0.36736 0.97612 0.0
C1247 C 0.94931 0.38389 0.99395 0.0
H1248 H 0.54525 0.93514 0.98186 0.0
H1249 H 0.62546 0.88734 0.96298 0.0
H1250 H 0.64776 0.88608 0.99444 0.0
H1251 H 0.63444 0.88663 0.02748 0.0
H1252 H 0.55492 0.93479 0.04659 0.0
H1253 H 0.54283 0.94865 0.01491 0.0
C1254 C 0.56849 0.92556 0.98463 0.0
C1255 C 0.58345 0.91107 0.97016 0.0
C1256 C 0.58092 0.92462 1.00279 0.0
C1257 C 0.61373 0.89895 0.97385 0.0
C1258 C 0.62618 0.89782 0.99187 0.0
C1259 C 0.61564 0.90147 0.02466 0.0
C1260 C 0.59544 0.90961 0.03919 0.0
C1261 C 0.6086 0.9089 1.00647 0.0
C1262 C 0.57103 0.92868 0.03556 0.0
C1263 C 0.56377 0.93614 0.01745 0.0
H1264 H 0.60629 0.56107 0.033 0.0
H1265 H 0.73706 0.63171 0.05024 0.0
H1266 H 0.75959 0.64967 0.01839 0.0
H1267 H 0.74273 0.63065 0.98582 0.0
H1268 H 0.6123 0.55878 0.9685 0.0
H1269 H 0.58868 0.55644 1.00015 0.0
C1270 C 0.63957 0.58175 0.02979 0.0
C1271 C 0.67002 0.59464 0.04386 0.0
C1272 C 0.6523 0.59107 0.01141 0.0
C1273 C 0.71302 0.62158 0.03965 0.0
C1274 C 0.72596 0.6314 0.0214 0.0
C1275 C 0.70917 0.61608 0.98895 0.0
C1276 C 0.67917 0.59477 0.97506 0.0
C1277 C 0.69603 0.61424 0.00717 0.0
C1278 C 0.63577 0.57565 0.97906 0.0
C1279 C 0.62236 0.57392 0.99716 0.0
H1280 H 0.12541 0.74052 0.02645 0.0
H1281 H 0.07054 0.61382 0.04764 0.0
H1282 H 0.05259 0.58524 0.01641 0.0
H1283 H 0.06438 0.59779 0.98311 0.0
H1284 H 0.12024 0.72513 0.96223 0.0
H1285 H 0.12492 0.75196 0.99326 0.0
C1286 C 0.10831 0.70659 0.02421 0.0
C1287 C 0.09946 0.67921 0.03918 0.0
C1288 C 0.09868 0.69062 1.00627 0.0
C1289 C 0.07734 0.63535 0.03627 0.0
C1290 C 0.06751 0.61912 0.01841 0.0
C1291 C 0.0765 0.63128 0.98533 0.0
C1292 C 0.09222 0.65941 0.97038 0.0
C1293 C 0.07976 0.64661 1.00329 0.0
C1294 C 0.10756 0.70269 0.97342 0.0
C1295 C 0.11071 0.71815 0.99122 0.0
H1296 H 0.90736 0.5962 0.5397 0.0
H1297 H 0.92487 0.4889 0.5469 0.0
H1298 H 0.93299 0.48501 0.51385 0.0
H1299 H 0.92201 0.50381 0.48298 0.0
H1300 H 0.9007 0.60865 0.47522 0.0
H1301 H 0.90771 0.62234 0.50828 0.0
C1302 C 0.91464 0.57314 0.534 0.0
C1303 C 0.91571 0.54294 0.54558 0.0
C1304 C 0.91761 0.5701 0.51487 0.0
C1305 C 0.92421 0.51254 0.53815 0.0
C1306 C 0.92842 0.51007 0.51927 0.0
C1307 C 0.91976 0.53019 0.48851 0.0
C1308 C 0.91039 0.55485 0.47675 0.0
C1309 C 0.92308 0.53733 0.50748 0.0
C1310 C 0.90805 0.58927 0.484 0.0
C1311 C 0.91174 0.59691 0.50293 0.0
H1312 H 0.31728 0.91049 0.53374 0.0
H1313 H 0.45189 0.9633 0.54102 0.0
H1314 H 0.46342 0.97836 0.50824 0.0
H1315 H 0.43378 0.96286 0.47724 0.0
H1316 H 0.29882 0.90593 0.4693 0.0
H1317 H 0.28869 0.90691 0.50246 0.0
C1318 C 0.34918 0.92692 0.52817 0.0
C1319 C 0.3838 0.93609 0.53965 0.0
C1320 C 0.35533 0.93392 0.50914 0.0
C1321 C 0.42496 0.95641 0.53236 0.0
C1322 C 0.43147 0.9646 0.51362 0.0
C1323 C 0.40229 0.95185 0.48276 0.0
C1324 C 0.3671 0.934 0.47091 0.0
C1325 C 0.39671 0.95145 0.5018 0.0
C1326 C 0.32646 0.92004 0.47815 0.0
C1327 C 0.32063 0.92017 0.49714 0.0
H1328 H 0.39233 0.28981 0.53251 0.0
H1329 H 0.47581 0.41882 0.54895 0.0
H1330 H 0.48167 0.44209 0.51704 0.0
H1331 H 0.47542 0.42286 0.48435 0.0
H1332 H 0.39355 0.29315 0.468 0.0
H1333 H 0.37358 0.27298 0.49992 0.0
C1334 C 0.41017 0.3232 0.52912 0.0
C1335 C 0.43352 0.35271 0.54287 0.0
C1336 C 0.41423 0.33599 0.51073 0.0
C1337 C 0.45719 0.39581 0.5385 0.0
C1338 C 0.46095 0.40895 0.52025 0.0
C1339 C 0.45214 0.39045 0.48776 0.0
C1340 C 0.43638 0.35947 0.4739 0.0
C1341 C 0.44151 0.37896 0.50619 0.0
C1342 C 0.40599 0.31763 0.4784 0.0
C1343 C 0.39492 0.30599 0.49669 0.0
H1344 H 0.11426 0.42431 0.53494 0.0
H1345 H 0.08932 0.52757 0.53881 0.0
H1346 H 0.08228 0.52806 0.50557 0.0
H1347 H 0.09647 0.5083 0.4755 0.0
H1348 H 0.1241 0.40707 0.47086 0.0
H1349 H 0.11622 0.39599 0.50414 0.0
C1350 C 0.10568 0.44572 0.52849 0.0
C1351 C 0.10235 0.47594 0.53924 0.0
C1352 C 0.10301 0.44672 0.5092 0.0
C1353 C 0.09198 0.50407 0.53076 0.0
C1354 C 0.08828 0.50458 0.51175 0.0
C1355 C 0.09961 0.48305 0.48175 0.0
C1356 C 0.11114 0.45877 0.47084 0.0
C1357 C 0.09578 0.47748 0.50083 0.0
C1358 C 0.11497 0.42601 0.479 0.0
C1359 C 0.11086 0.41996 0.49805 0.0
H1360 H 0.60427 0.07163 0.47947 0.0
H1361 H 0.73957 0.13757 0.47133 0.0
H1362 H 0.75064 0.13755 0.50453 0.0
H1363 H 0.72146 0.13063 0.53602 0.0
H1364 H 0.586 0.06694 0.54349 0.0
H1365 H 0.57513 0.05334 0.51056 0.0
C1366 C 0.63614 0.08474 0.48495 0.0
C1367 C 0.67104 0.10467 0.473 0.0
C1368 C 0.64214 0.08534 0.50401 0.0
C1369 C 0.71218 0.12166 0.48023 0.0
C1370 C 0.71849 0.12208 0.49924 0.0
C1371 C 0.68967 0.11225 0.53045 0.0
C1372 C 0.65448 0.09934 0.54211 0.0
C1373 C 0.68373 0.10566 0.51133 0.0
C1374 C 0.61341 0.07658 0.53476 0.0
C1375 C 0.60723 0.06921 0.51591 0.0
H1376 H 0.55209 0.60342 0.47462 0.0
H1377 H 0.63939 0.73647 0.4672 0.0
H1378 H 0.65263 0.74505 0.5003 0.0
H1379 H 0.62672 0.71704 0.53152 0.0
H1380 H 0.53642 0.58457 0.53839 0.0
H1381 H 0.53772 0.57292 0.50547 0.0
C1382 C 0.57515 0.63397 0.48024 0.0
C1383 C 0.59449 0.66931 0.46861 0.0
C1384 C 0.58169 0.63872 0.49925 0.0
C1385 C 0.62435 0.70878 0.47591 0.0
C1386 C 0.63153 0.71373 0.49487 0.0
C1387 C 0.60898 0.68539 0.52583 0.0
C1388 C 0.58171 0.65157 0.53723 0.0
C1389 C 0.60869 0.67932 0.50674 0.0
C1390 C 0.55794 0.61083 0.52979 0.0
C1391 C 0.55831 0.6043 0.51097 0.0
H1392 H 0.40533 0.12735 0.25125 0.0
H1393 H 0.39514 0.21244 0.21327 0.0
H1394 H 0.39879 0.25765 0.23857 0.0
H1395 H 0.40717 0.2745 0.2713 0.0
H1396 H 0.41611 0.1891 0.30958 0.0
H1397 H 0.41085 0.14293 0.28438 0.0
C1398 C 0.40356 0.15561 0.24854 0.0
C1399 C 0.40072 0.16676 0.23034 0.0
C1400 C 0.40583 0.18172 0.2632 0.0
C1401 C 0.39842 0.20352 0.22707 0.0
C1402 C 0.40025 0.22935 0.24156 0.0
C1403 C 0.40777 0.2457 0.27421 0.0
C1404 C 0.41288 0.236 0.29238 0.0
C1405 C 0.40446 0.21904 0.25965 0.0
C1406 C 0.41349 0.19835 0.29577 0.0
C1407 C 0.41005 0.17155 0.28134 0.0
H1408 H 0.21428 0.41451 0.21735 0.0
H1409 H 0.32544 0.43042 0.24573 0.0
H1410 H 0.29315 0.42986 0.27514 0.0
H1411 H 0.23273 0.42347 0.2929 0.0
H1412 H 0.12171 0.40726 0.26426 0.0
H1413 H 0.15484 0.40967 0.23494 0.0
C1414 C 0.23193 0.41867 0.22989 0.0
C1415 C 0.27265 0.42311 0.22919 0.0
C1416 C 0.21311 0.41813 0.2468 0.0
C1417 C 0.29411 0.42696 0.24578 0.0
C1418 C 0.2757 0.42675 0.26264 0.0
C1419 C 0.21599 0.42116 0.28028 0.0
C1420 C 0.17478 0.41557 0.2809 0.0
C1421 C 0.23515 0.42226 0.26334 0.0
C1422 C 0.15335 0.41148 0.26428 0.0
C1423 C 0.17231 0.41293 0.24745 0.0
H1424 H 0.79326 0.20457 0.21859 0.0
H1425 H 0.90575 0.30339 0.24475 0.0
H1426 H 0.87602 0.27467 0.27487 0.0
H1427 H 0.81904 0.22028 0.2938 0.0
H1428 H 0.70784 0.11962 0.26766 0.0
H1429 H 0.73605 0.15023 0.23758 0.0
C1430 C 0.811 0.22017 0.23089 0.0
C1431 C 0.85152 0.25637 0.22941 0.0
C1432 C 0.79402 0.20302 0.24819 0.0
C1433 C 0.87451 0.2755 0.2455 0.0
C1434 C 0.85752 0.25913 0.26274 0.0
C1435 C 0.80068 0.20536 0.28155 0.0
C1436 C 0.76113 0.16793 0.28301 0.0
C1437 C 0.81741 0.22276 0.26426 0.0
C1438 C 0.73837 0.14843 0.26693 0.0
C1439 C 0.75443 0.16596 0.24971 0.0
H1440 H 0.59914 0.8875 0.24284 0.0
H1441 H 0.61905 0.80724 0.20553 0.0
H1442 H 0.62546 0.76856 0.23125 0.0
H1443 H 0.62433 0.75629 0.26435 0.0
H1444 H 0.60756 0.83837 0.30181 0.0
H1445 H 0.60117 0.87717 0.27609 0.0
C1446 C 0.60504 0.86166 0.2403 0.0
C1447 C 0.60751 0.84992 0.22213 0.0
C1448 C 0.60916 0.83956 0.25524 0.0
C1449 C 0.61548 0.81639 0.21922 0.0
C1450 C 0.61961 0.79435 0.23399 0.0
C1451 C 0.61948 0.78279 0.26696 0.0
C1452 C 0.61555 0.79349 0.28513 0.0
C1453 C 0.61619 0.80543 0.25205 0.0
C1454 C 0.60942 0.82818 0.28809 0.0
C1455 C 0.60614 0.85082 0.27333 0.0
H1456 H 0.71717 0.58309 0.25038 0.0
H1457 H 0.81792 0.60713 0.21251 0.0
H1458 H 0.86195 0.60765 0.23774 0.0
H1459 H 0.87216 0.60142 0.27041 0.0
H1460 H 0.77272 0.57963 0.30867 0.0
H1461 H 0.72794 0.57773 0.28341 0.0
C1462 C 0.74883 0.58859 0.24767 0.0
C1463 C 0.76385 0.59437 0.22954 0.0
C1464 C 0.77419 0.58898 0.26229 0.0
C1465 C 0.80499 0.60149 0.22625 0.0
C1466 C 0.8304 0.6021 0.2407 0.0
C1467 C 0.8407 0.59628 0.27329 0.0
C1468 C 0.82585 0.59011 0.29145 0.0
C1469 C 0.81527 0.59574 0.25874 0.0
C1470 C 0.78486 0.58341 0.29484 0.0
C1471 C 0.75927 0.58276 0.28039 0.0
H1472 H 0.13889 0.70635 0.24561 0.0
H1473 H 0.21085 0.8145 0.21057 0.0
H1474 H 0.248 0.85757 0.23716 0.0
H1475 H 0.25963 0.86523 0.27043 0.0
H1476 H 0.18673 0.75762 0.30563 0.0
H1477 H 0.15079 0.714 0.27898 0.0
C1478 C 0.1627 0.73936 0.24377 0.0
C1479 C 0.17227 0.75676 0.22598 0.0
C1480 C 0.18397 0.76421 0.25919 0.0
C1481 C 0.20332 0.79968 0.22394 0.0
C1482 C 0.22444 0.82458 0.23921 0.0
C1483 C 0.23588 0.83222 0.27232 0.0
C1484 C 0.2265 0.81489 0.29011 0.0
C1485 C 0.21501 0.80721 0.2569 0.0
C1486 C 0.19559 0.77191 0.29218 0.0
C1487 C 0.17462 0.74688 0.2769 0.0
H1488 H 0.60949 0.72433 0.74091 0.0
H1489 H 0.62749 0.82485 0.70428 0.0
H1490 H 0.62514 0.86578 0.73009 0.0
H1491 H 0.61618 0.87263 0.76279 0.0
H1492 H 0.60062 0.77366 0.79992 0.0
H1493 H 0.60357 0.73277 0.77419 0.0
C1494 C 0.61322 0.75533 0.7386 0.0
C1495 C 0.61781 0.77097 0.72059 0.0
C1496 C 0.6119 0.77896 0.75358 0.0
C1497 C 0.6227 0.81132 0.71787 0.0
C1498 C 0.62165 0.83498 0.73267 0.0
C1499 C 0.6136 0.8422 0.76538 0.0
C1500 C 0.60737 0.82626 0.78339 0.0
C1501 C 0.61582 0.81894 0.75054 0.0
C1502 C 0.60419 0.78663 0.78628 0.0
C1503 C 0.60631 0.76322 0.77153 0.0
H1504 H 0.73545 0.59725 0.77127 0.0
H1505 H 0.82528 0.59457 0.80924 0.0
H1506 H 0.87191 0.60215 0.78394 0.0
H1507 H 0.8871 0.60835 0.75082 0.0
H1508 H 0.79862 0.61441 0.7132 0.0
H1509 H 0.75221 0.60719 0.73858 0.0
C1510 C 0.76527 0.59846 0.77411 0.0
C1511 C 0.77591 0.59424 0.79226 0.0
C1512 C 0.79247 0.6035 0.75949 0.0
C1513 C 0.81503 0.5962 0.7955 0.0
C1514 C 0.8422 0.60105 0.78099 0.0
C1515 C 0.85781 0.6084 0.74818 0.0
C1516 C 0.8461 0.61093 0.73002 0.0
C1517 C 0.83113 0.60446 0.76291 0.0
C1518 C 0.80804 0.61116 0.72691 0.0
C1519 C 0.78149 0.60735 0.74146 0.0
H1520 H 0.29268 0.8734 0.744 0.0
H1521 H 0.19561 0.78467 0.70734 0.0
H1522 H 0.15416 0.74266 0.73346 0.0
H1523 H 0.145 0.73124 0.7668 0.0
H1524 H 0.24187 0.82062 0.80336 0.0
H1525 H 0.28361 0.86201 0.77722 0.0
C1526 C 0.26241 0.84491 0.74169 0.0
C1527 C 0.24768 0.83215 0.72366 0.0
C1528 C 0.2386 0.82086 0.75679 0.0
C1529 C 0.20838 0.79497 0.72099 0.0
C1530 C 0.18439 0.77101 0.73596 0.0
C1531 C 0.17523 0.75981 0.76906 0.0
C1532 C 0.19036 0.77232 0.78708 0.0
C1533 C 0.19918 0.78365 0.75393 0.0
C1534 C 0.2297 0.80947 0.78971 0.0
C1535 C 0.25353 0.83346 0.77474 0.0
H1536 H 0.41939 0.14098 0.76903 0.0
H1537 H 0.43546 0.23875 0.80698 0.0
H1538 H 0.43862 0.28325 0.7815 0.0
H1539 H 0.4362 0.2945 0.74838 0.0
H1540 H 0.41766 0.19558 0.7106 0.0
H1541 H 0.41601 0.15177 0.73606 0.0
C1542 C 0.42354 0.17201 0.77179 0.0
C1543 C 0.42783 0.18648 0.78999 0.0
C1544 C 0.42491 0.19743 0.75705 0.0
C1545 C 0.43319 0.22689 0.79319 0.0
C1546 C 0.43459 0.25236 0.77859 0.0
C1547 C 0.43172 0.26332 0.7457 0.0
C1548 C 0.42782 0.24889 0.7275 0.0
C1549 C 0.43047 0.23796 0.76046 0.0
C1550 C 0.42196 0.20827 0.72435 0.0
C1551 C 0.42062 0.1829 0.73895 0.0
H1552 H 0.29194 0.41789 0.76424 0.0
H1553 H 0.2006 0.41521 0.80276 0.0
H1554 H 0.15634 0.41426 0.77751 0.0
H1555 H 0.14308 0.41385 0.74443 0.0
H1556 H 0.23364 0.4148 0.70597 0.0
H1557 H 0.27832 0.41665 0.73123 0.0
C1558 C 0.26232 0.41704 0.76715 0.0
C1559 C 0.25019 0.41729 0.78547 0.0
C1560 C 0.23671 0.41619 0.75254 0.0
C1561 C 0.21159 0.41617 0.78889 0.0
C1562 C 0.18591 0.41522 0.77442 0.0
C1563 C 0.17253 0.41433 0.74155 0.0
C1564 C 0.18508 0.41481 0.72325 0.0
C1565 C 0.19816 0.41525 0.75619 0.0
C1566 C 0.22346 0.41548 0.71984 0.0
C1567 C 0.24898 0.4162 0.73432 0.0
H1568 H 0.8088 0.20921 0.79521 0.0
H1569 H 0.89698 0.32362 0.76678 0.0
H1570 H 0.86612 0.29019 0.73744 0.0
H1571 H 0.81508 0.22819 0.71972 0.0
H1572 H 0.7269 0.1138 0.74816 0.0
H1573 H 0.75685 0.14768 0.77752 0.0
C1574 C 0.8209 0.22724 0.78267 0.0
C1575 C 0.85499 0.26927 0.78336 0.0
C1576 C 0.80311 0.20773 0.76575 0.0
C1577 C 0.87085 0.2913 0.76677 0.0
C1578 C 0.85314 0.27222 0.74993 0.0
C1579 C 0.80179 0.21075 0.73229 0.0
C1580 C 0.76824 0.16845 0.73159 0.0
C1581 C 0.8193 0.2304 0.74923 0.0
C1582 C 0.75266 0.14629 0.74818 0.0
C1583 C 0.76972 0.1657 0.76503 0.0
H1584 H 0.57547 0.09659 0.13376 0.0
H1585 H 0.44506 0.03725 0.11613 0.0
H1586 H 0.45241 0.98168 0.10087 0.0
H1587 H 0.48967 0.94132 0.10011 0.0
H1588 H 0.60981 0.99143 0.12795 0.0
H1589 H 0.61476 0.05988 0.13043 0.0
C1590 C 0.54858 0.07178 0.1264 0.0
C1591 C 0.50918 0.07039 0.12657 0.0
C1592 C 0.55206 0.03824 0.11922 0.0
C1593 C 0.47539 0.0389 0.11643 0.0
C1594 C 0.47968 1.00697 0.10781 0.0
C1595 C 0.51771 0.96782 0.10609 0.0
C1596 C 0.54996 0.96141 0.11343 0.0
C1597 C 0.51699 1.00495 0.11019 0.0
C1598 C 0.58593 0.99581 0.12119 0.0
C1599 C 0.58781 0.03466 0.1233 0.0
H1600 H 0.53698 0.45106 0.12091 0.0
H1601 H 0.60606 0.58722 0.11917 0.0
H1602 H 0.54259 0.58693 0.10803 0.0
H1603 H 0.46481 0.54932 0.1079 0.0
H1604 H 0.39626 0.41676 0.12089 0.0
H1605 H 0.46038 0.4129 0.1175 0.0
C1606 C 0.5385 0.4808 0.11772 0.0
C1607 C 0.57609 0.51932 0.12132 0.0
C1608 C 0.50088 0.48035 0.11336 0.0
C1609 C 0.57787 0.55731 0.11657 0.0
C1610 C 0.54117 0.55699 0.11046 0.0
C1611 C 0.46361 0.51921 0.10945 0.0
C1612 C 0.42506 0.48289 0.11459 0.0
C1613 C 0.50195 0.51888 0.11017 0.0
C1614 C 0.42427 0.44439 0.11627 0.0
C1615 C 0.46168 0.44274 0.1149 0.0
H1616 H 0.91773 0.47969 0.127 0.0
H1617 H 0.98353 0.41132 0.11662 0.0
H1618 H 0.04295 0.47518 0.10337 0.0
H1619 H 0.08273 0.55287 0.10332 0.0
H1620 H 0.02308 0.62009 0.12469 0.0
H1621 H 0.95448 0.55587 0.12375 0.0
C1622 C 0.94481 0.47846 0.12154 0.0
C1623 C 0.94684 0.44107 0.12329 0.0
C1624 C 0.98011 0.51604 0.11571 0.0
C1625 C 0.9813 0.43958 0.11562 0.0
C1626 C 0.01543 0.47635 0.10821 0.0
C1627 C 0.05432 0.55367 0.10709 0.0
C1628 C 0.05804 0.59178 0.11371 0.0
C1629 C 0.01628 0.51527 0.10942 0.0
C1630 C 0.02115 0.59238 0.11854 0.0
C1631 C 0.982 0.55492 0.11873 0.0
H1632 H 0.02019 0.44048 0.39406 0.0
H1633 H 0.13502 0.56154 0.39666 0.0
H1634 H 0.09454 0.59602 0.40383 0.0
H1635 H 0.02551 0.59167 0.39694 0.0
H1636 H 0.91117 0.47137 0.40185 0.0
H1637 H 0.95243 0.43608 0.40455 0.0
C1638 C 0.03666 0.47382 0.39757 0.0
C1639 C 0.08028 0.49873 0.39391 0.0
C1640 C 0.01319 0.49365 0.4024 0.0
C1641 C 0.10118 0.54179 0.39896 0.0
C1642 C 0.07799 0.56182 0.40278 0.0
C1643 C 1.00956 0.5585 0.40055 0.0
C1644 C 0.96537 0.53426 0.39856 0.0
C1645 C 0.03366 0.53835 0.40285 0.0
C1646 C 0.94533 0.4909 0.40308 0.0
C1647 C 0.96897 0.47033 0.40417 0.0
H1648 H 0.55096 0.10496 0.38978 0.0
H1649 H 0.61666 0.03468 0.38724 0.0
H1650 H 0.55027 0.96908 0.39265 0.0
H1651 H 0.47294 0.93123 0.3891 0.0
H1652 H 0.40876 1.00191 0.3812 0.0
H1653 H 0.47348 0.06721 0.38918 0.0
C1654 C 0.55092 0.07534 0.39106 0.0
C1655 C 0.58906 0.07484 0.38829 0.0
C1656 C 0.5119 0.03745 0.39187 0.0
C1657 C 0.58855 0.03642 0.38999 0.0
C1658 C 0.55008 0.99864 0.39255 0.0
C1659 C 0.47285 0.96087 0.3897 0.0
C1660 C 0.43552 0.96155 0.38506 0.0
C1661 C 0.51144 0.99867 0.39219 0.0
C1662 C 0.43594 1.00003 0.38571 0.0
C1663 C 0.47356 0.03761 0.38975 0.0
H1664 H 0.56766 0.47893 0.39766 0.0
H1665 H 0.43213 0.41783 0.3911 0.0
H1666 H 0.43426 0.48417 0.39785 0.0
H1667 H 0.47606 0.56067 0.39424 0.0
H1668 H 0.61127 0.61986 0.38718 0.0
H1669 H 0.60947 0.55574 0.39766 0.0
C1670 C 0.53841 0.47997 0.39832 0.0
C1671 C 0.49969 0.44361 0.39372 0.0
C1672 C 0.5408 0.5193 0.39932 0.0
C1673 C 0.462 0.44485 0.39498 0.0
C1674 C 0.46357 0.48331 0.39833 0.0
C1675 C 0.50533 0.55985 0.39556 0.0
C1676 C 0.54397 0.5951 0.38997 0.0
C1677 C 0.50301 0.52104 0.39881 0.0
C1678 C 0.58162 0.59404 0.39198 0.0
C1679 C 0.5802 0.55669 0.39747 0.0
H1680 H 0.43621 0.00814 0.8977 0.0
H1681 H 0.56297 0.11039 0.90726 0.0
H1682 H 0.58961 0.06118 0.90792 0.0
H1683 H 0.57795 0.99268 0.89453 0.0
H1684 H 0.4495 0.88844 0.89155 0.0
H1685 H 0.42223 0.93449 0.90023 0.0
C1686 C 0.46902 0.01945 0.90139 0.0
C1687 C 0.49807 0.06303 0.9011 0.0
C1688 C 0.4841 0.99063 0.9022 0.0
C1689 C 0.54012 0.07681 0.9067 0.0
C1690 C 0.55574 0.04873 0.90664 0.0
C1691 C 0.54427 0.97945 0.89694 0.0
C1692 C 0.51574 0.93773 0.89146 0.0
C1693 C 0.52838 1.00592 0.90269 0.0
C1694 C 0.47213 0.92096 0.89511 0.0
C1695 C 0.45628 0.94733 0.89995 0.0
H1696 H 0.47462 0.55106 0.89903 0.0
H1697 H 0.41279 0.41518 0.89739 0.0
H1698 H 0.47635 0.41811 0.90995 0.0
H1699 H 0.55377 0.45886 0.91056 0.0
H1700 H 0.61694 0.59176 0.89818 0.0
H1701 H 0.5512 0.59226 0.903 0.0
C1702 C 0.47466 0.52195 0.90195 0.0
C1703 C 0.43908 0.48279 0.89702 0.0
C1704 C 0.51315 0.5243 0.90646 0.0
C1705 C 0.43913 0.44547 0.90126 0.0
C1706 C 0.47611 0.44741 0.90805 0.0
C1707 C 0.55342 0.48833 0.90954 0.0
C1708 C 0.5905 0.5254 0.90378 0.0
C1709 C 0.5141 0.48661 0.90912 0.0
C1710 C 0.58977 0.56328 0.90296 0.0
C1711 C 0.55146 0.56304 0.90514 0.0
H1712 H 0.09823 0.52389 0.88205 0.0
H1713 H 0.03854 0.59615 0.89655 0.0
H1714 H 0.97829 0.53244 0.90942 0.0
H1715 H 0.93659 0.45461 0.90966 0.0
H1716 H 0.99077 0.38375 0.88658 0.0
H1717 H 0.05981 0.44756 0.88515 0.0
C1718 C 0.07227 0.5261 0.88817 0.0
C1719 C 0.07242 0.56486 0.88779 0.0
C1720 C 0.03678 0.4889 0.89428 0.0
C1721 C 0.03918 0.56703 0.89638 0.0
C1722 C 1.00461 0.53036 0.90367 0.0
C1723 C 0.96395 0.45292 0.90494 0.0
C1724 C 0.95842 0.4139 0.89851 0.0
C1725 C 1.00213 0.49079 0.90173 0.0
C1726 C 0.9941 0.41232 0.89245 0.0
C1727 C 0.03343 0.44943 0.89098 0.0
H1728 H 0.99571 0.57744 0.61938 0.0
H1729 H 0.89364 0.44829 0.61698 0.0
H1730 H 0.94352 0.42427 0.61032 0.0
H1731 H 0.01714 0.4402 0.61711 0.0
H1732 H 0.11856 0.56932 0.61322 0.0
H1733 H 0.06773 0.59343 0.60947 0.0
C1734 C 0.9839 0.54454 0.61603 0.0
C1735 C 0.94153 0.51448 0.61976 0.0
C1736 C 1.01274 0.53079 0.61158 0.0
C1737 C 0.9267 0.47193 0.61493 0.0
C1738 C 0.95524 0.45795 0.61129 0.0
C1739 C 0.0283 0.47314 0.61402 0.0
C1740 C 0.0712 0.50321 0.6166 0.0
C1741 C 0.99877 0.48691 0.61135 0.0
C1742 C 0.08522 0.5457 0.61199 0.0
C1743 C 0.05615 0.55974 0.61012 0.0
H1744 H 0.5961 0.02951 0.6179 0.0
H1745 H 0.56493 0.12865 0.6187 0.0
H1746 H 0.49057 0.07758 0.61323 0.0
H1747 H 0.43419 1.00285 0.61923 0.0
H1748 H 0.46553 0.90493 0.61131 0.0
H1749 H 0.54013 0.95753 0.60776 0.0
C1750 C 0.57378 0.04044 0.61557 0.0
C1751 C 0.58554 0.08237 0.61979 0.0
C1752 C 0.53079 0.01093 0.6117 0.0
C1753 C 0.5562 0.09602 0.61618 0.0
C1754 C 0.51336 0.06675 0.61328 0.0
C1755 C 0.45668 0.99298 0.61541 0.0
C1756 C 0.4448 0.95014 0.61664 0.0
C1757 C 0.49983 0.0236 0.61266 0.0
C1758 C 0.47434 0.93802 0.61114 0.0
C1759 C 0.5173 0.96808 0.60932 0.0
H1760 H 0.5604 0.46737 0.61144 0.0
H1761 H 0.42474 0.40332 0.61792 0.0
H1762 H 0.42463 0.46771 0.60946 0.0
H1763 H 0.4645 0.54487 0.6102 0.0
H1764 H 0.60062 0.61012 0.61548 0.0
H1765 H 0.60026 0.54441 0.60888 0.0
C1766 C 0.53053 0.46711 0.61048 0.0
C1767 C 0.49237 0.43019 0.61549 0.0
C1768 C 0.53162 0.50575 0.60816 0.0
C1769 C 0.45417 0.43035 0.61382 0.0
C1770 C 0.45446 0.46785 0.60943 0.0
C1771 C 0.49433 0.54503 0.6094 0.0
C1772 C 0.53272 0.58255 0.61356 0.0
C1773 C 0.49321 0.50621 0.60806 0.0
C1774 C 0.57092 0.58232 0.61207 0.0
C1775 C 0.57044 0.54427 0.60872 0.0
H1776 H 0.70473 0.24357 0.18445 0.0
H1777 H 0.70728 0.30214 0.13274 0.0
H1778 H 0.63067 0.27176 0.13383 0.0
H1779 H 0.56401 0.21401 0.14489 0.0
H1780 H 0.55911 0.15001 0.19503 0.0
H1781 H 0.63552 0.1972 0.19942 0.0
C1782 C 0.68854 0.25068 0.17376 0.0
C1783 C 0.71129 0.27405 0.15829 0.0
C1784 C 0.64404 0.23177 0.17415 0.0
C1785 C 0.6902 0.28337 0.14456 0.0
C1786 C 0.64639 0.26607 0.14519 0.0
C1787 C 0.5789 0.21276 0.15758 0.0
C1788 C 0.55575 0.17959 0.16993 0.0
C1789 C 0.62289 0.23826 0.15934 0.0
C1790 C 0.57614 0.17613 0.18562 0.0
C1791 C 0.62 0.20256 0.1879 0.0
H1792 H 0.40388 0.56958 0.17156 0.0
H1793 H 0.33826 0.55784 0.12088 0.0
H1794 H 0.36617 0.63381 0.12011 0.0
H1795 H 0.42368 0.70345 0.12944 0.0
H1796 H 0.49206 0.71666 0.17953 0.0
H1797 H 0.44896 0.64048 0.18506 0.0
C1798 C 0.39372 0.58357 0.16103 0.0
C1799 C 0.36844 0.5583 0.14651 0.0
C1800 C 0.41194 0.62771 0.16016 0.0
C1801 C 0.35654 0.57664 0.13251 0.0
C1802 C 0.37342 0.62024 0.13181 0.0
C1803 C 0.42821 0.68972 0.14182 0.0
C1804 C 0.46141 0.71501 0.15382 0.0
C1805 C 0.4034 0.64615 0.14487 0.0
C1806 C 0.46682 0.69738 0.17 0.0
C1807 C 0.44228 0.65389 0.17313 0.0
H1808 H 0.7719 0.47044 0.1815 0.0
H1809 H 0.7253 0.43253 0.12632 0.0
H1810 H 0.75312 0.38434 0.12574 0.0
H1811 H 0.80482 0.36773 0.13771 0.0
H1812 H 0.85903 0.41038 0.19124 0.0
H1813 H 0.81392 0.44183 0.19596 0.0
C1814 C 0.76695 0.45069 0.16959 0.0
C1815 C 0.74755 0.45552 0.15382 0.0
C1816 C 0.78462 0.42421 0.16908 0.0
C1817 C 0.74105 0.4299 0.13845 0.0
C1818 C 0.75679 0.40227 0.13813 0.0
C1819 C 0.80436 0.38104 0.15096 0.0
C1820 C 0.83374 0.38531 0.16441 0.0
C1821 C 0.78049 0.40095 0.15296 0.0
C1822 C 0.83547 0.40555 0.18099 0.0
C1823 C 0.81028 0.42417 0.18349 0.0
H1824 H 0.31223 0.73322 0.12554 0.0
H1825 H 0.30685 0.78702 0.17733 0.0
H1826 H 0.38413 0.8214 0.18032 0.0
H1827 H 0.45331 0.84732 0.16485 0.0
H1828 H 0.45732 0.79434 0.11269 0.0
H1829 H 0.38072 0.74698 0.11349 0.0
C1830 C 0.32799 0.75167 0.13767 0.0
C1831 C 0.30438 0.75855 0.15098 0.0
C1832 C 0.37221 0.77118 0.13926 0.0
C1833 C 0.32471 0.78175 0.16683 0.0
C1834 C 0.36885 0.80147 0.16851 0.0
C1835 C 0.4375 0.82372 0.15422 0.0
C1836 C 0.46071 0.82351 0.13892 0.0
C1837 C 0.39307 0.79792 0.1544 0.0
C1838 C 0.44001 0.79405 0.12482 0.0
C1839 C 0.39613 0.7676 0.1251 0.0
H1840 H 0.59551 0.44022 0.18351 0.0
H1841 H 0.6594 0.45437 0.13215 0.0
H1842 H 0.63854 0.38012 0.1322 0.0
H1843 H 0.58779 0.30943 0.14262 0.0
H1844 H 0.5167 0.29222 0.19219 0.0
H1845 H 0.55435 0.36884 0.19723 0.0
C1846 C 0.60663 0.42723 0.17294 0.0
C1847 C 0.63074 0.45299 0.15833 0.0
C1848 C 0.59171 0.38355 0.17238 0.0
C1849 C 0.6432 0.43566 0.14411 0.0
C1850 C 0.63023 0.39289 0.14387 0.0
C1851 C 0.58138 0.3225 0.15475 0.0
C1852 C 0.54902 0.29583 0.16674 0.0
C1853 C 0.6024 0.36625 0.15731 0.0
C1854 C 0.54133 0.31258 0.18265 0.0
C1855 C 0.56268 0.35632 0.18549 0.0
H1856 H 0.16517 0.60917 0.17021 0.0
H1857 H 0.22211 0.66975 0.11908 0.0
H1858 H 0.26995 0.64149 0.12031 0.0
H1859 H 0.28134 0.58515 0.13163 0.0
H1860 H 0.22449 0.52246 0.18247 0.0
H1861 H 0.19028 0.56532 0.18569 0.0
C1862 C 0.18979 0.61801 0.15997 0.0
C1863 C 0.191 0.64224 0.14481 0.0
C1864 C 0.21574 0.59971 0.16031 0.0
C1865 C 0.22179 0.65241 0.13119 0.0
C1866 C 0.24844 0.63539 0.13166 0.0
C1867 C 0.26267 0.58195 0.14372 0.0
C1868 C 0.25467 0.55044 0.15662 0.0
C1869 C 0.2436 0.60679 0.1455 0.0
C1870 C 0.23065 0.54649 0.1723 0.0
C1871 C 0.21106 0.57087 0.17411 0.0
H1872 H 0.92143 0.45173 0.3567 0.0
H1873 H 0.83213 0.48824 0.33864 0.0
H1874 H 0.77687 0.413 0.33577 0.0
H1875 H 0.75256 0.337 0.3439 0.0
H1876 H 0.8461 0.30525 0.36183 0.0
H1877 H 0.90183 0.37893 0.35914 0.0
C1878 C 0.89009 0.44383 0.35191 0.0
C1879 C 0.87905 0.47551 0.35 0.0
C1880 C 0.85944 0.40113 0.35044 0.0
C1881 C 0.83938 0.4641 0.34243 0.0
C1882 C 0.80834 0.42117 0.34042 0.0
C1883 C 0.78533 0.34644 0.34684 0.0
C1884 C 0.79555 0.31629 0.35327 0.0
C1885 C 0.81738 0.38934 0.34555 0.0
C1886 C 0.83785 0.3283 0.35701 0.0
C1887 C 0.86963 0.37029 0.35545 0.0
H1888 H 0.43561 0.74406 0.37767 0.0
H1889 H 0.49649 0.78732 0.3252 0.0
H1890 H 0.45205 0.81842 0.31853 0.0
H1891 H 0.40758 0.84619 0.33082 0.0
H1892 H 0.35185 0.80667 0.38433 0.0
H1893 H 0.38039 0.75946 0.38706 0.0
C1894 C 0.43839 0.75951 0.36463 0.0
C1895 C 0.46983 0.76458 0.35216 0.0
C1896 C 0.41309 0.77753 0.361 0.0
C1897 C 0.4727 0.78363 0.33509 0.0
C1898 C 0.44741 0.80149 0.33131 0.0
C1899 C 0.39986 0.82538 0.34256 0.0
C1900 C 0.37632 0.8286 0.35704 0.0
C1901 C 0.41897 0.80041 0.34455 0.0
C1902 C 0.36791 0.80297 0.3726 0.0
C1903 C 0.38533 0.77687 0.3744 0.0
H1904 H 0.71723 0.45395 0.34184 0.0
H1905 H 0.72093 0.41981 0.39822 0.0
H1906 H 0.64376 0.38335 0.39964 0.0
H1907 H 0.57732 0.37329 0.3868 0.0
H1908 H 0.57237 0.40848 0.33098 0.0
H1909 H 0.64804 0.43206 0.32721 0.0
C1910 C 0.70106 0.43769 0.35431 0.0
C1911 C 0.72484 0.44049 0.37005 0.0
C1912 C 0.65653 0.41701 0.35509 0.0
C1913 C 0.70349 0.41864 0.38598 0.0
C1914 C 0.65931 0.39786 0.38683 0.0
C1915 C 0.59231 0.38385 0.3735 0.0
C1916 C 0.56921 0.3877 0.35895 0.0
C1917 C 0.63574 0.39836 0.37172 0.0
C1918 C 0.58935 0.40384 0.34211 0.0
C1919 C 0.63267 0.41786 0.34008 0.0
H1920 H 0.21194 0.55816 0.3733 0.0
H1921 H 0.14638 0.55352 0.32355 0.0
H1922 H 0.18865 0.63078 0.32099 0.0
H1923 H 0.23165 0.69905 0.3371 0.0
H1924 H 0.28937 0.70094 0.38902 0.0
H1925 H 0.26399 0.62539 0.38638 0.0
C1926 C 0.2092 0.57377 0.36116 0.0
C1927 C 0.17722 0.55017 0.3483 0.0
C1928 C 0.23128 0.61797 0.36062 0.0
C1929 C 0.17173 0.57102 0.3333 0.0
C1930 C 0.19529 0.61524 0.33209 0.0
C1931 C 0.2395 0.68299 0.34756 0.0
C1932 C 0.26155 0.7051 0.36341 0.0
C1933 C 0.2232 0.63907 0.34631 0.0
C1934 C 0.27166 0.68422 0.37691 0.0
C1935 C 0.25727 0.64111 0.37537 0.0
H1936 H 0.67443 0.23111 0.37675 0.0
H1937 H 0.62076 0.17061 0.32523 0.0
H1938 H 0.58733 0.21396 0.32157 0.0
H1939 H 0.55835 0.2538 0.33725 0.0
H1940 H 0.60334 0.3035 0.39145 0.0
H1941 H 0.6555 0.28048 0.38991 0.0
C1942 C 0.65777 0.22955 0.36417 0.0
C1943 C 0.65038 0.19829 0.35117 0.0
C1944 C 0.63551 0.25149 0.36312 0.0
C1945 C 0.62734 0.19508 0.33524 0.0
C1946 C 0.60744 0.21917 0.33339 0.0
C1947 C 0.58031 0.26042 0.34851 0.0
C1948 C 0.57658 0.27957 0.36458 0.0
C1949 C 0.60876 0.24505 0.34791 0.0
C1950 C 0.60519 0.28815 0.37907 0.0
C1951 C 0.63509 0.27508 0.37817 0.0
H1952 H 0.45602 0.60972 0.33094 0.0
H1953 H 0.47514 0.67782 0.38145 0.0
H1954 H 0.39959 0.65292 0.38352 0.0
H1955 H 0.32721 0.59937 0.37467 0.0
H1956 H 0.30671 0.52757 0.32503 0.0
H1957 H 0.38302 0.56592 0.31885 0.0
C1958 C 0.44375 0.62087 0.3418 0.0
C1959 C 0.47146 0.64715 0.35559 0.0
C1960 C 0.39962 0.60425 0.34345 0.0
C1961 C 0.45492 0.65967 0.37013 0.0
C1962 C 0.41142 0.64439 0.3716 0.0
C1963 C 0.33943 0.59282 0.3623 0.0
C1964 C 0.31158 0.56012 0.35055 0.0
C1965 C 0.38333 0.61482 0.3589 0.0
C1966 C 0.3276 0.55241 0.33438 0.0
C1967 C 0.37128 0.57423 0.33087 0.0
H1968 H 0.45943 0.80458 0.87247 0.0
H1969 H 0.46377 0.86558 0.82152 0.0
H1970 H 0.38693 0.81883 0.81773 0.0
H1971 H 0.31796 0.77205 0.83278 0.0
H1972 H 0.3163 0.7165 0.88521 0.0
H1973 H 0.3931 0.7481 0.88424 0.0
C1974 C 0.44425 0.80522 0.85978 0.0
C1975 C 0.46741 0.83698 0.84687 0.0
C1976 C 0.40029 0.77991 0.8583 0.0
C1977 C 0.44668 0.84027 0.83128 0.0
C1978 C 0.40269 0.81406 0.82933 0.0
C1979 C 0.33443 0.76597 0.8437 0.0
C1980 C 0.31186 0.74292 0.85927 0.0
C1981 C 0.37892 0.78548 0.84333 0.0
C1982 C 0.33326 0.73497 0.87331 0.0
C1983 C 0.37712 0.75292 0.87274 0.0
H1984 H 0.6528 0.43534 0.89174 0.0
H1985 H 0.61503 0.45446 0.83838 0.0
H1986 H 0.58547 0.3791 0.83125 0.0
H1987 H 0.55781 0.30632 0.84312 0.0
H1988 H 0.59357 0.28911 0.8975 0.0
H1989 H 0.63771 0.3653 0.90118 0.0
C1990 C 0.64034 0.4234 0.87815 0.0
C1991 C 0.63716 0.45032 0.86537 0.0
C1992 C 0.6222 0.38017 0.87456 0.0
C1993 C 0.61898 0.43437 0.84815 0.0
C1994 C 0.6015 0.39121 0.84424 0.0
C1995 C 0.57625 0.31931 0.85554 0.0
C1996 C 0.5716 0.29228 0.87022 0.0
C1997 C 0.60096 0.36346 0.85775 0.0
C1998 C 0.59584 0.30937 0.88619 0.0
C1999 C 0.62117 0.35293 0.8883 0.0
H2000 H 0.22026 0.64585 0.8779 0.0
H2001 H 0.17209 0.60476 0.8234 0.0
H2002 H 0.21957 0.57587 0.81954 0.0
H2003 H 0.26162 0.54842 0.83471 0.0
H2004 H 0.30425 0.5858 0.89039 0.0
H2005 H 0.27354 0.63164 0.8906 0.0
C2006 C 0.22249 0.63343 0.86469 0.0
C2007 C 0.19397 0.62877 0.85071 0.0
C2008 C 0.24803 0.61509 0.86307 0.0
C2009 C 0.19483 0.60986 0.8341 0.0
C2010 C 0.2214 0.59267 0.83207 0.0
C2011 C 0.26515 0.56753 0.84669 0.0
C2012 C 0.28405 0.5629 0.86271 0.0
C2013 C 0.24616 0.59286 0.84691 0.0
C2014 C 0.28884 0.58804 0.87808 0.0
C2015 C 0.27138 0.61432 0.87819 0.0
H2016 H 0.68588 0.19486 0.8235 0.0
H2017 H 0.72349 0.28473 0.8679 0.0
H2018 H 0.64942 0.26114 0.87454 0.0
H2019 H 0.57644 0.20257 0.87281 0.0
H2020 H 0.53674 0.11377 0.82829 0.0
H2021 H 0.6096 0.14876 0.8166 0.0
C2022 C 0.67779 0.20999 0.8343 0.0
C2023 C 0.70997 0.24062 0.84553 0.0
C2024 C 0.63497 0.19609 0.8381 0.0
C2025 C 0.6993 0.26072 0.85921 0.0
C2026 C 0.6569 0.2471 0.86308 0.0
C2027 C 0.58277 0.1935 0.85957 0.0
C2028 C 0.55094 0.15708 0.8509 0.0
C2029 C 0.62461 0.21335 0.85323 0.0
C2030 C 0.56059 0.14269 0.83479 0.0
C2031 C 0.60236 0.16227 0.82832 0.0
H2032 H 0.37885 0.56345 0.88093 0.0
H2033 H 0.42149 0.54962 0.82782 0.0
H2034 H 0.45129 0.62558 0.82201 0.0
H2035 H 0.47638 0.69729 0.83487 0.0
H2036 H 0.43624 0.70892 0.88915 0.0
H2037 H 0.39266 0.63234 0.89146 0.0
C2038 C 0.39221 0.5766 0.86761 0.0
C2039 C 0.39641 0.55086 0.8545 0.0
C2040 C 0.4105 0.62017 0.86481 0.0
C2041 C 0.41654 0.56868 0.8378 0.0
C2042 C 0.43413 0.61219 0.83465 0.0
C2043 C 0.45718 0.68298 0.84697 0.0
C2044 C 0.4601 0.70862 0.86197 0.0
C2045 C 0.43305 0.63856 0.84845 0.0
C2046 C 0.43511 0.6898 0.87758 0.0
C2047 C 0.41016 0.646 0.87891 0.0
H2048 H 0.77361 0.45648 0.84525 0.0
H2049 H 0.71938 0.4229 0.89943 0.0
H2050 H 0.74337 0.37182 0.90238 0.0
H2051 H 0.79312 0.34951 0.8926 0.0
H2052 H 0.85553 0.38945 0.84041 0.0
H2053 H 0.81425 0.42396 0.83322 0.0
C2054 C 0.76626 0.43718 0.85748 0.0
C2055 C 0.74557 0.44396 0.87226 0.0
C2056 C 0.78183 0.40907 0.85941 0.0
C2057 C 0.73602 0.41879 0.88804 0.0
C2058 C 0.74964 0.3895 0.88972 0.0
C2059 C 0.79596 0.36399 0.87928 0.0
C2060 C 0.82671 0.36679 0.86695 0.0
C2061 C 0.77444 0.38606 0.87592 0.0
C2062 C 0.83129 0.38637 0.84991 0.0
C2063 C 0.80829 0.40675 0.84599 0.0
H2064 H 0.20944 0.5653 0.63428 0.0
H2065 H 0.15006 0.55813 0.68606 0.0
H2066 H 0.19556 0.63476 0.69013 0.0
H2067 H 0.23995 0.70447 0.67523 0.0
H2068 H 0.29197 0.70926 0.6216 0.0
H2069 H 0.26308 0.63295 0.62215 0.0
C2070 C 0.20876 0.58003 0.64709 0.0
C2071 C 0.17768 0.556 0.66017 0.0
C2072 C 0.23291 0.62406 0.64864 0.0
C2073 C 0.17477 0.57589 0.67611 0.0
C2074 C 0.2002 0.61981 0.67822 0.0
C2075 C 0.24584 0.68878 0.66394 0.0
C2076 C 0.2673 0.7121 0.64825 0.0
C2077 C 0.22751 0.64446 0.66402 0.0
C2078 C 0.2748 0.69169 0.63365 0.0
C2079 C 0.25837 0.64812 0.63397 0.0
H2080 H 0.54931 0.24053 0.67956 0.0
H2081 H 0.59459 0.29178 0.62566 0.0
H2082 H 0.64605 0.26775 0.62679 0.0
H2083 H 0.66389 0.21734 0.63934 0.0
H2084 H 0.61168 0.1564 0.69086 0.0
H2085 H 0.57802 0.19956 0.69485 0.0
C2086 C 0.57129 0.2473 0.66832 0.0
C2087 C 0.56785 0.26717 0.65241 0.0
C2088 C 0.59941 0.23142 0.66869 0.0
C2089 C 0.59626 0.27583 0.63789 0.0
C2090 C 0.62573 0.2622 0.63855 0.0
C2091 C 0.64789 0.21587 0.6521 0.0
C2092 C 0.64125 0.1847 0.66503 0.0
C2093 C 0.62593 0.23804 0.65342 0.0
C2094 C 0.61812 0.18103 0.68097 0.0
C2095 C 0.59808 0.20502 0.683 0.0
H2096 H 0.44979 0.60429 0.67264 0.0
H2097 H 0.46725 0.67319 0.62252 0.0
H2098 H 0.39232 0.65178 0.62193 0.0
H2099 H 0.32013 0.60003 0.63163 0.0
H2100 H 0.30132 0.52744 0.68085 0.0
H2101 H 0.37796 0.5636 0.68598 0.0
C2102 C 0.43743 0.61645 0.66222 0.0
C2103 C 0.46418 0.64146 0.648 0.0
C2104 C 0.39365 0.60193 0.66144 0.0
C2105 C 0.44765 0.6556 0.63407 0.0
C2106 C 0.40451 0.6424 0.63347 0.0
C2107 C 0.33287 0.59291 0.64369 0.0
C2108 C 0.30543 0.5605 0.65558 0.0
C2109 C 0.37691 0.61354 0.64646 0.0
C2110 C 0.32199 0.55205 0.67139 0.0
C2111 C 0.36583 0.5726 0.6743 0.0
H2112 H 0.73333 0.32227 0.6441 0.0
H2113 H 0.79395 0.30079 0.69028 0.0
H2114 H 0.83201 0.37654 0.69728 0.0
H2115 H 0.85967 0.44933 0.68566 0.0
H2116 H 0.80237 0.46859 0.63779 0.0
H2117 H 0.74998 0.39407 0.63666 0.0
C2118 C 0.7541 0.33416 0.65596 0.0
C2119 C 0.76184 0.30649 0.66636 0.0
C2120 C 0.77611 0.37763 0.65975 0.0
C2121 C 0.78798 0.3218 0.68194 0.0
C2122 C 0.80984 0.36511 0.68591 0.0
C2123 C 0.83398 0.43742 0.67575 0.0
C2124 C 0.83384 0.46493 0.66232 0.0
C2125 C 0.80576 0.39357 0.67434 0.0
C2126 C 0.80161 0.44881 0.64898 0.0
C2127 C 0.77243 0.40572 0.64793 0.0
H2128 H 0.43305 0.73661 0.63395 0.0
H2129 H 0.50574 0.78648 0.68352 0.0
H2130 H 0.46696 0.82355 0.69056 0.0
H2131 H 0.42393 0.85365 0.67864 0.0
H2132 H 0.35663 0.8065 0.62771 0.0
H2133 H 0.37947 0.75481 0.62565 0.0
C2134 C 0.43944 0.75462 0.64655 0.0
C2135 C 0.47253 0.75977 0.65801 0.0
C2136 C 0.4174 0.77594 0.65036 0.0
C2137 C 0.48043 0.78253 0.67445 0.0
C2138 C 0.45842 0.80383 0.67841 0.0
C2139 C 0.41241 0.83031 0.66773 0.0
C2140 C 0.38699 0.83255 0.65379 0.0
C2141 C 0.4283 0.80244 0.66597 0.0
C2142 C 0.37392 0.80365 0.63917 0.0
C2143 C 0.3881 0.77486 0.63769 0.0
H2144 H 0.57247 0.41461 0.67818 0.0
H2145 H 0.56617 0.35162 0.62743 0.0
H2146 H 0.64237 0.3802 0.62794 0.0
H2147 H 0.71083 0.43756 0.63826 0.0
H2148 H 0.71943 0.50474 0.68806 0.0
H2149 H 0.64254 0.46077 0.69254 0.0
C2150 C 0.58772 0.40527 0.66791 0.0
C2151 C 0.56376 0.3799 0.65314 0.0
C2152 C 0.63214 0.42427 0.66768 0.0
C2153 C 0.58378 0.36932 0.6394 0.0
C2154 C 0.62756 0.38671 0.63941 0.0
C2155 C 0.6959 0.44166 0.65034 0.0
C2156 C 0.71998 0.47464 0.66258 0.0
C2157 C 0.65211 0.41641 0.65277 0.0
C2158 C 0.70096 0.4796 0.67837 0.0
C2159 C 0.65712 0.45458 0.6809 0.0
loop_
_geom_bond_atom_site_label_1
_geom_bond_atom_site_label_2
_geom_bond_distance
_geom_bond_site_symmetry_2
_ccdc_geom_bond_type
Zn0 N4 2.020 . S
Zn0 O8 2.019 . S
Zn0 N10 2.119 . S
Zn0 O18 1.975 . S
C1 N2 1.334 . S
C1 N5 1.336 . S
N2 C1 1.334 . S
N2 C3 1.334 . S
C3 N2 1.334 . S
C3 N4 1.336 . S
N4 Zn0 2.020 . S
N4 C3 1.336 . S
N4 N5 1.354 . S
N5 C1 1.336 . S
N5 N4 1.354 . S
N5 Zn9 2.020 . S
C6 O7 1.244 . S
C6 O30 1.257 . S
O7 C6 1.244 . S
O8 Zn0 2.019 . S
O8 C28 1.257 . S
Zn9 N5 2.020 . S
Zn9 O16 1.975 . S
Zn9 N25 2.119 . S
Zn9 O30 2.019 . S
N10 Zn0 2.119 . S
N10 C12 1.334 . S
N10 C13 1.328 . S
C11 C12 1.391 . S
C11 N14 1.329 . S
C11 H32 0.930 . S
C12 N10 1.334 . S
C12 C11 1.391 . S
C12 H19 0.930 . S
C13 N10 1.328 . S
C13 C15 1.392 . S
C13 H20 0.930 . S
N14 C11 1.329 . S
N14 C15 1.331 . S
C15 C13 1.392 . S
C15 N14 1.331 . S
O16 Zn9 1.975 . S
O16 C17 1.252 . S
C17 O16 1.252 . S
C17 O18 1.252 . S
O18 Zn0 1.975 . S
O18 C17 1.252 . S
H19 C12 0.930 . S
H20 C13 0.930 . S
C21 C22 1.392 . S
C21 N25 1.328 . S
C21 H27 0.930 . S
C22 C21 1.392 . S
C22 N26 1.331 . S
C23 C24 1.391 . S
C23 N26 1.329 . S
C23 H33 0.930 . S
C24 C23 1.391 . S
C24 N25 1.334 . S
C24 H31 0.930 . S
N25 Zn9 2.119 . S
N25 C21 1.328 . S
N25 C24 1.334 . S
N26 C22 1.331 . S
N26 C23 1.329 . S
H27 C21 0.930 . S
C28 O8 1.257 . S
C28 O29 1.244 . S
O29 C28 1.244 . S
O30 C6 1.257 . S
O30 Zn9 2.019 . S
H31 C24 0.930 . S
H32 C11 0.930 . S
H33 C23 0.930 . S
Zn34 N38 2.020 . S
Zn34 O42 2.019 . S
Zn34 N44 2.119 . S
Zn34 O52 1.975 . S
C35 N36 1.334 . S
C35 N39 1.336 . S
N36 C35 1.334 . S
N36 C37 1.334 . S
C37 N36 1.334 . S
C37 N38 1.336 . S
N38 Zn34 2.020 . S
N38 C37 1.336 . S
N38 N39 1.354 . S
N39 C35 1.336 . S
N39 N38 1.354 . S
N39 Zn43 2.020 . S
C40 O41 1.244 . S
C40 O64 1.257 . S
O41 C40 1.244 . S
O42 Zn34 2.019 . S
O42 C62 1.257 . S
Zn43 N39 2.020 . S
Zn43 O50 1.975 . S
Zn43 N59 2.119 . S
Zn43 O64 2.019 . S
N44 Zn34 2.119 . S
N44 C46 1.334 . S
N44 C47 1.328 . S
C45 C46 1.391 . S
C45 N48 1.329 . S
C45 H66 0.930 . S
C46 N44 1.334 . S
C46 C45 1.391 . S
C46 H53 0.930 . S
C47 N44 1.328 . S
C47 C49 1.392 . S
C47 H54 0.930 . S
N48 C45 1.329 . S
N48 C49 1.331 . S
C49 C47 1.392 . S
C49 N48 1.331 . S
O50 Zn43 1.975 . S
O50 C51 1.252 . S
C51 O50 1.252 . S
C51 O52 1.252 . S
O52 Zn34 1.975 . S
O52 C51 1.252 . S
H53 C46 0.930 . S
H54 C47 0.930 . S
C55 C56 1.392 . S
C55 N59 1.328 . S
C55 H61 0.930 . S
C56 C55 1.392 . S
C56 N60 1.331 . S
C57 C58 1.391 . S
C57 N60 1.329 . S
C57 H67 0.930 . S
C58 C57 1.391 . S
C58 N59 1.334 . S
C58 H65 0.930 . S
N59 Zn43 2.119 . S
N59 C55 1.328 . S
N59 C58 1.334 . S
N60 C56 1.331 . S
N60 C57 1.329 . S
H61 C55 0.930 . S
C62 O42 1.257 . S
C62 O63 1.244 . S
O63 C62 1.244 . S
O64 C40 1.257 . S
O64 Zn43 2.019 . S
H65 C58 0.930 . S
H66 C45 0.930 . S
H67 C57 0.930 . S
Zn68 N72 2.020 . S
Zn68 O76 2.019 . S
Zn68 N78 2.119 . S
Zn68 O86 1.975 . S
C69 N70 1.334 . S
C69 N73 1.336 . S
N70 C69 1.334 . S
N70 C71 1.334 . S
C71 N70 1.334 . S
C71 N72 1.336 . S
N72 Zn68 2.020 . S
N72 C71 1.336 . S
N72 N73 1.354 . S
N73 C69 1.336 . S
N73 N72 1.354 . S
N73 Zn77 2.020 . S
C74 O75 1.244 . S
C74 O98 1.257 . S
O75 C74 1.244 . S
O76 Zn68 2.019 . S
O76 C96 1.257 . S
Zn77 N73 2.020 . S
Zn77 O84 1.975 . S
Zn77 N93 2.119 . S
Zn77 O98 2.019 . S
N78 Zn68 2.119 . S
N78 C80 1.334 . S
N78 C81 1.328 . S
C79 C80 1.391 . S
C79 N82 1.329 . S
C79 H100 0.930 . S
C80 N78 1.334 . S
C80 C79 1.391 . S
C80 H87 0.930 . S
C81 N78 1.328 . S
C81 C83 1.392 . S
C81 H88 0.930 . S
N82 C79 1.329 . S
N82 C83 1.331 . S
C83 C81 1.392 . S
C83 N82 1.331 . S
O84 Zn77 1.975 . S
O84 C85 1.252 . S
C85 O84 1.252 . S
C85 O86 1.252 . S
O86 Zn68 1.975 . S
O86 C85 1.252 . S
H87 C80 0.930 . S
H88 C81 0.930 . S
C89 C90 1.392 . S
C89 N93 1.328 . S
C89 H95 0.930 . S
C90 C89 1.392 . S
C90 N94 1.331 . S
C91 C92 1.391 . S
C91 N94 1.329 . S
C91 H101 0.930 . S
C92 C91 1.391 . S
C92 N93 1.334 . S
C92 H99 0.930 . S
N93 Zn77 2.119 . S
N93 C89 1.328 . S
N93 C92 1.334 . S
N94 C90 1.331 . S
N94 C91 1.329 . S
H95 C89 0.930 . S
C96 O76 1.257 . S
C96 O97 1.244 . S
O97 C96 1.244 . S
O98 C74 1.257 . S
O98 Zn77 2.019 . S
H99 C92 0.930 . S
H100 C79 0.930 . S
H101 C91 0.930 . S
Zn102 N106 2.020 . S
Zn102 O110 2.019 . S
Zn102 N112 2.119 . S
Zn102 O120 1.975 . S
C103 N104 1.334 . S
C103 N107 1.336 . S
N104 C103 1.334 . S
N104 C105 1.334 . S
C105 N104 1.334 . S
C105 N106 1.336 . S
N106 Zn102 2.020 . S
N106 C105 1.336 . S
N106 N107 1.354 . S
N107 C103 1.336 . S
N107 N106 1.354 . S
N107 Zn111 2.020 . S
C108 O109 1.244 . S
C108 O132 1.257 . S
O109 C108 1.244 . S
O110 Zn102 2.019 . S
O110 C130 1.257 . S
Zn111 N107 2.020 . S
Zn111 O118 1.975 . S
Zn111 N127 2.119 . S
Zn111 O132 2.019 . S
N112 Zn102 2.119 . S
N112 C114 1.334 . S
N112 C115 1.328 . S
C113 C114 1.391 . S
C113 N116 1.329 . S
C113 H134 0.930 . S
C114 N112 1.334 . S
C114 C113 1.391 . S
C114 H121 0.930 . S
C115 N112 1.328 . S
C115 C117 1.392 . S
C115 H122 0.930 . S
N116 C113 1.329 . S
N116 C117 1.331 . S
C117 C115 1.392 . S
C117 N116 1.331 . S
O118 Zn111 1.975 . S
O118 C119 1.252 . S
C119 O118 1.252 . S
C119 O120 1.252 . S
O120 Zn102 1.975 . S
O120 C119 1.252 . S
H121 C114 0.930 . S
H122 C115 0.930 . S
C123 C124 1.392 . S
C123 N127 1.328 . S
C123 H129 0.930 . S
C124 C123 1.392 . S
C124 N128 1.331 . S
C125 C126 1.391 . S
C125 N128 1.329 . S
C125 H135 0.930 . S
C126 C125 1.391 . S
C126 N127 1.334 . S
C126 H133 0.930 . S
N127 Zn111 2.119 . S
N127 C123 1.328 . S
N127 C126 1.334 . S
N128 C124 1.331 . S
N128 C125 1.329 . S
H129 C123 0.930 . S
C130 O110 1.257 . S
C130 O131 1.244 . S
O131 C130 1.244 . S
O132 C108 1.257 . S
O132 Zn111 2.019 . S
H133 C126 0.930 . S
H134 C113 0.930 . S
H135 C125 0.930 . S
Zn136 N140 2.020 . S
Zn136 O144 2.019 . S
Zn136 N146 2.119 . S
Zn136 O154 1.975 . S
C137 N138 1.334 . S
C137 N141 1.336 . S
N138 C137 1.334 . S
N138 C139 1.334 . S
C139 N138 1.334 . S
C139 N140 1.336 . S
N140 Zn136 2.020 . S
N140 C139 1.336 . S
N140 N141 1.354 . S
N141 C137 1.336 . S
N141 N140 1.354 . S
N141 Zn145 2.020 . S
C142 O143 1.244 . S
C142 O166 1.257 . S
O143 C142 1.244 . S
O144 Zn136 2.019 . S
O144 C164 1.257 . S
Zn145 N141 2.020 . S
Zn145 O152 1.975 . S
Zn145 N161 2.119 . S
Zn145 O166 2.019 . S
N146 Zn136 2.119 . S
N146 C148 1.334 . S
N146 C149 1.328 . S
C147 C148 1.391 . S
C147 N150 1.329 . S
C147 H168 0.930 . S
C148 N146 1.334 . S
C148 C147 1.391 . S
C148 H155 0.930 . S
C149 N146 1.328 . S
C149 C151 1.392 . S
C149 H156 0.930 . S
N150 C147 1.329 . S
N150 C151 1.331 . S
C151 C149 1.392 . S
C151 N150 1.331 . S
O152 Zn145 1.975 . S
O152 C153 1.252 . S
C153 O152 1.252 . S
C153 O154 1.252 . S
O154 Zn136 1.975 . S
O154 C153 1.252 . S
H155 C148 0.930 . S
H156 C149 0.930 . S
C157 C158 1.392 . S
C157 N161 1.328 . S
C157 H163 0.930 . S
C158 C157 1.392 . S
C158 N162 1.331 . S
C159 C160 1.391 . S
C159 N162 1.329 . S
C159 H169 0.930 . S
C160 C159 1.391 . S
C160 N161 1.334 . S
C160 H167 0.930 . S
N161 Zn145 2.119 . S
N161 C157 1.328 . S
N161 C160 1.334 . S
N162 C158 1.331 . S
N162 C159 1.329 . S
H163 C157 0.930 . S
C164 O144 1.257 . S
C164 O165 1.244 . S
O165 C164 1.244 . S
O166 C142 1.257 . S
O166 Zn145 2.019 . S
H167 C160 0.930 . S
H168 C147 0.930 . S
H169 C159 0.930 . S
Zn170 N174 2.020 . S
Zn170 O178 2.019 . S
Zn170 N180 2.119 . S
Zn170 O188 1.975 . S
C171 N172 1.334 . S
C171 N175 1.336 . S
N172 C171 1.334 . S
N172 C173 1.334 . S
C173 N172 1.334 . S
C173 N174 1.336 . S
N174 Zn170 2.020 . S
N174 C173 1.336 . S
N174 N175 1.354 . S
N175 C171 1.336 . S
N175 N174 1.354 . S
N175 Zn179 2.020 . S
C176 O177 1.244 . S
C176 O200 1.257 . S
O177 C176 1.244 . S
O178 Zn170 2.019 . S
O178 C198 1.257 . S
Zn179 N175 2.020 . S
Zn179 O186 1.975 . S
Zn179 N195 2.119 . S
Zn179 O200 2.019 . S
N180 Zn170 2.119 . S
N180 C182 1.334 . S
N180 C183 1.328 . S
C181 C182 1.391 . S
C181 N184 1.329 . S
C181 H202 0.930 . S
C182 N180 1.334 . S
C182 C181 1.391 . S
C182 H189 0.930 . S
C183 N180 1.328 . S
C183 C185 1.392 . S
C183 H190 0.930 . S
N184 C181 1.329 . S
N184 C185 1.331 . S
C185 C183 1.392 . S
C185 N184 1.331 . S
O186 Zn179 1.975 . S
O186 C187 1.252 . S
C187 O186 1.252 . S
C187 O188 1.252 . S
O188 Zn170 1.975 . S
O188 C187 1.252 . S
H189 C182 0.930 . S
H190 C183 0.930 . S
C191 C192 1.392 . S
C191 N195 1.328 . S
C191 H197 0.930 . S
C192 C191 1.392 . S
C192 N196 1.331 . S
C193 C194 1.391 . S
C193 N196 1.329 . S
C193 H203 0.930 . S
C194 C193 1.391 . S
C194 N195 1.334 . S
C194 H201 0.930 . S
N195 Zn179 2.119 . S
N195 C191 1.328 . S
N195 C194 1.334 . S
N196 C192 1.331 . S
N196 C193 1.329 . S
H197 C191 0.930 . S
C198 O178 1.257 . S
C198 O199 1.244 . S
O199 C198 1.244 . S
O200 C176 1.257 . S
O200 Zn179 2.019 . S
H201 C194 0.930 . S
H202 C181 0.930 . S
H203 C193 0.930 . S
Zn204 N208 2.020 . S
Zn204 O212 2.019 . S
Zn204 N214 2.119 . S
Zn204 O222 1.975 . S
C205 N206 1.334 . S
C205 N209 1.336 . S
N206 C205 1.334 . S
N206 C207 1.334 . S
C207 N206 1.334 . S
C207 N208 1.336 . S
N208 Zn204 2.020 . S
N208 C207 1.336 . S
N208 N209 1.354 . S
N209 C205 1.336 . S
N209 N208 1.354 . S
N209 Zn213 2.020 . S
C210 O211 1.244 . S
C210 O234 1.257 . S
O211 C210 1.244 . S
O212 Zn204 2.019 . S
O212 C232 1.257 . S
Zn213 N209 2.020 . S
Zn213 O220 1.975 . S
Zn213 N229 2.119 . S
Zn213 O234 2.019 . S
N214 Zn204 2.119 . S
N214 C216 1.334 . S
N214 C217 1.328 . S
C215 C216 1.391 . S
C215 N218 1.329 . S
C215 H236 0.930 . S
C216 N214 1.334 . S
C216 C215 1.391 . S
C216 H223 0.930 . S
C217 N214 1.328 . S
C217 C219 1.392 . S
C217 H224 0.930 . S
N218 C215 1.329 . S
N218 C219 1.331 . S
C219 C217 1.392 . S
C219 N218 1.331 . S
O220 Zn213 1.975 . S
O220 C221 1.252 . S
C221 O220 1.252 . S
C221 O222 1.252 . S
O222 Zn204 1.975 . S
O222 C221 1.252 . S
H223 C216 0.930 . S
H224 C217 0.930 . S
C225 C226 1.392 . S
C225 N229 1.328 . S
C225 H231 0.930 . S
C226 C225 1.392 . S
C226 N230 1.331 . S
C227 C228 1.391 . S
C227 N230 1.329 . S
C227 H237 0.930 . S
C228 C227 1.391 . S
C228 N229 1.334 . S
C228 H235 0.930 . S
N229 Zn213 2.119 . S
N229 C225 1.328 . S
N229 C228 1.334 . S
N230 C226 1.331 . S
N230 C227 1.329 . S
H231 C225 0.930 . S
C232 O212 1.257 . S
C232 O233 1.244 . S
O233 C232 1.244 . S
O234 C210 1.257 . S
O234 Zn213 2.019 . S
H235 C228 0.930 . S
H236 C215 0.930 . S
H237 C227 0.930 . S
Zn238 N242 2.020 . S
Zn238 O246 2.019 . S
Zn238 N248 2.119 . S
Zn238 O256 1.975 . S
C239 N240 1.334 . S
C239 N243 1.336 . S
N240 C239 1.334 . S
N240 C241 1.334 . S
C241 N240 1.334 . S
C241 N242 1.336 . S
N242 Zn238 2.020 . S
N242 C241 1.336 . S
N242 N243 1.354 . S
N243 C239 1.336 . S
N243 N242 1.354 . S
N243 Zn247 2.020 . S
C244 O245 1.244 . S
C244 O268 1.257 . S
O245 C244 1.244 . S
O246 Zn238 2.019 . S
O246 C266 1.257 . S
Zn247 N243 2.020 . S
Zn247 O254 1.975 . S
Zn247 N263 2.119 . S
Zn247 O268 2.019 . S
N248 Zn238 2.119 . S
N248 C250 1.334 . S
N248 C251 1.328 . S
C249 C250 1.391 . S
C249 N252 1.329 . S
C249 H270 0.930 . S
C250 N248 1.334 . S
C250 C249 1.391 . S
C250 H257 0.930 . S
C251 N248 1.328 . S
C251 C253 1.392 . S
C251 H258 0.930 . S
N252 C249 1.329 . S
N252 C253 1.331 . S
C253 C251 1.392 . S
C253 N252 1.331 . S
O254 Zn247 1.975 . S
O254 C255 1.252 . S
C255 O254 1.252 . S
C255 O256 1.252 . S
O256 Zn238 1.975 . S
O256 C255 1.252 . S
H257 C250 0.930 . S
H258 C251 0.930 . S
C259 C260 1.392 . S
C259 N263 1.328 . S
C259 H265 0.930 . S
C260 C259 1.392 . S
C260 N264 1.331 . S
C261 C262 1.391 . S
C261 N264 1.329 . S
C261 H271 0.930 . S
C262 C261 1.391 . S
C262 N263 1.334 . S
C262 H269 0.930 . S
N263 Zn247 2.119 . S
N263 C259 1.328 . S
N263 C262 1.334 . S
N264 C260 1.331 . S
N264 C261 1.329 . S
H265 C259 0.930 . S
C266 O246 1.257 . S
C266 O267 1.244 . S
O267 C266 1.244 . S
O268 C244 1.257 . S
O268 Zn247 2.019 . S
H269 C262 0.930 . S
H270 C249 0.930 . S
H271 C261 0.930 . S
Zn272 N276 2.020 . S
Zn272 O280 2.019 . S
Zn272 N282 2.119 . S
Zn272 O290 1.975 . S
C273 N274 1.334 . S
C273 N277 1.336 . S
N274 C273 1.334 . S
N274 C275 1.334 . S
C275 N274 1.334 . S
C275 N276 1.336 . S
N276 Zn272 2.020 . S
N276 C275 1.336 . S
N276 N277 1.354 . S
N277 C273 1.336 . S
N277 N276 1.354 . S
N277 Zn281 2.020 . S
C278 O279 1.244 . S
C278 O302 1.257 . S
O279 C278 1.244 . S
O280 Zn272 2.019 . S
O280 C300 1.257 . S
Zn281 N277 2.020 . S
Zn281 O288 1.975 . S
Zn281 N297 2.119 . S
Zn281 O302 2.019 . S
N282 Zn272 2.119 . S
N282 C284 1.334 . S
N282 C285 1.328 . S
C283 C284 1.391 . S
C283 N286 1.329 . S
C283 H304 0.930 . S
C284 N282 1.334 . S
C284 C283 1.391 . S
C284 H291 0.930 . S
C285 N282 1.328 . S
C285 C287 1.392 . S
C285 H292 0.930 . S
N286 C283 1.329 . S
N286 C287 1.331 . S
C287 C285 1.392 . S
C287 N286 1.331 . S
O288 Zn281 1.975 . S
O288 C289 1.252 . S
C289 O288 1.252 . S
C289 O290 1.252 . S
O290 Zn272 1.975 . S
O290 C289 1.252 . S
H291 C284 0.930 . S
H292 C285 0.930 . S
C293 C294 1.392 . S
C293 N297 1.328 . S
C293 H299 0.930 . S
C294 C293 1.392 . S
C294 N298 1.331 . S
C295 C296 1.391 . S
C295 N298 1.329 . S
C295 H305 0.930 . S
C296 C295 1.391 . S
C296 N297 1.334 . S
C296 H303 0.930 . S
N297 Zn281 2.119 . S
N297 C293 1.328 . S
N297 C296 1.334 . S
N298 C294 1.331 . S
N298 C295 1.329 . S
H299 C293 0.930 . S
C300 O280 1.257 . S
C300 O301 1.244 . S
O301 C300 1.244 . S
O302 C278 1.257 . S
O302 Zn281 2.019 . S
H303 C296 0.930 . S
H304 C283 0.930 . S
H305 C295 0.930 . S
Zn306 N310 2.020 . S
Zn306 O314 2.019 . S
Zn306 N316 2.119 . S
Zn306 O324 1.975 . S
C307 N308 1.334 . S
C307 N311 1.336 . S
N308 C307 1.334 . S
N308 C309 1.334 . S
C309 N308 1.334 . S
C309 N310 1.336 . S
N310 Zn306 2.020 . S
N310 C309 1.336 . S
N310 N311 1.354 . S
N311 C307 1.336 . S
N311 N310 1.354 . S
N311 Zn315 2.020 . S
C312 O313 1.244 . S
C312 O336 1.257 . S
O313 C312 1.244 . S
O314 Zn306 2.019 . S
O314 C334 1.257 . S
Zn315 N311 2.020 . S
Zn315 O322 1.975 . S
Zn315 N331 2.119 . S
Zn315 O336 2.019 . S
N316 Zn306 2.119 . S
N316 C318 1.334 . S
N316 C319 1.328 . S
C317 C318 1.391 . S
C317 N320 1.329 . S
C317 H338 0.930 . S
C318 N316 1.334 . S
C318 C317 1.391 . S
C318 H325 0.930 . S
C319 N316 1.328 . S
C319 C321 1.392 . S
C319 H326 0.930 . S
N320 C317 1.329 . S
N320 C321 1.331 . S
C321 C319 1.392 . S
C321 N320 1.331 . S
O322 Zn315 1.975 . S
O322 C323 1.252 . S
C323 O322 1.252 . S
C323 O324 1.252 . S
O324 Zn306 1.975 . S
O324 C323 1.252 . S
H325 C318 0.930 . S
H326 C319 0.930 . S
C327 C328 1.392 . S
C327 N331 1.328 . S
C327 H333 0.930 . S
C328 C327 1.392 . S
C328 N332 1.331 . S
C329 C330 1.391 . S
C329 N332 1.329 . S
C329 H339 0.930 . S
C330 C329 1.391 . S
C330 N331 1.334 . S
C330 H337 0.930 . S
N331 Zn315 2.119 . S
N331 C327 1.328 . S
N331 C330 1.334 . S
N332 C328 1.331 . S
N332 C329 1.329 . S
H333 C327 0.930 . S
C334 O314 1.257 . S
C334 O335 1.244 . S
O335 C334 1.244 . S
O336 C312 1.257 . S
O336 Zn315 2.019 . S
H337 C330 0.930 . S
H338 C317 0.930 . S
H339 C329 0.930 . S
Zn340 N344 2.020 . S
Zn340 O348 2.019 . S
Zn340 N350 2.119 . S
Zn340 O358 1.975 . S
C341 N342 1.334 . S
C341 N345 1.336 . S
N342 C341 1.334 . S
N342 C343 1.334 . S
C343 N342 1.334 . S
C343 N344 1.336 . S
N344 Zn340 2.020 . S
N344 C343 1.336 . S
N344 N345 1.354 . S
N345 C341 1.336 . S
N345 N344 1.354 . S
N345 Zn349 2.020 . S
C346 O347 1.244 . S
C346 O370 1.257 . S
O347 C346 1.244 . S
O348 Zn340 2.019 . S
O348 C368 1.257 . S
Zn349 N345 2.020 . S
Zn349 O356 1.975 . S
Zn349 N365 2.119 . S
Zn349 O370 2.019 . S
N350 Zn340 2.119 . S
N350 C352 1.334 . S
N350 C353 1.328 . S
C351 C352 1.391 . S
C351 N354 1.329 . S
C351 H372 0.930 . S
C352 N350 1.334 . S
C352 C351 1.391 . S
C352 H359 0.930 . S
C353 N350 1.328 . S
C353 C355 1.392 . S
C353 H360 0.930 . S
N354 C351 1.329 . S
N354 C355 1.331 . S
C355 C353 1.392 . S
C355 N354 1.331 . S
O356 Zn349 1.975 . S
O356 C357 1.252 . S
C357 O356 1.252 . S
C357 O358 1.252 . S
O358 Zn340 1.975 . S
O358 C357 1.252 . S
H359 C352 0.930 . S
H360 C353 0.930 . S
C361 C362 1.392 . S
C361 N365 1.328 . S
C361 H367 0.930 . S
C362 C361 1.392 . S
C362 N366 1.331 . S
C363 C364 1.391 . S
C363 N366 1.329 . S
C363 H373 0.930 . S
C364 C363 1.391 . S
C364 N365 1.334 . S
C364 H371 0.930 . S
N365 Zn349 2.119 . S
N365 C361 1.328 . S
N365 C364 1.334 . S
N366 C362 1.331 . S
N366 C363 1.329 . S
H367 C361 0.930 . S
C368 O348 1.257 . S
C368 O369 1.244 . S
O369 C368 1.244 . S
O370 C346 1.257 . S
O370 Zn349 2.019 . S
H371 C364 0.930 . S
H372 C351 0.930 . S
H373 C363 0.930 . S
Zn374 N378 2.020 . S
Zn374 O382 2.019 . S
Zn374 N384 2.119 . S
Zn374 O392 1.975 . S
C375 N376 1.334 . S
C375 N379 1.336 . S
N376 C375 1.334 . S
N376 C377 1.334 . S
C377 N376 1.334 . S
C377 N378 1.336 . S
N378 Zn374 2.020 . S
N378 C377 1.336 . S
N378 N379 1.354 . S
N379 C375 1.336 . S
N379 N378 1.354 . S
N379 Zn383 2.020 . S
C380 O381 1.244 . S
C380 O404 1.257 . S
O381 C380 1.244 . S
O382 Zn374 2.019 . S
O382 C402 1.257 . S
Zn383 N379 2.020 . S
Zn383 O390 1.975 . S
Zn383 N399 2.119 . S
Zn383 O404 2.019 . S
N384 Zn374 2.119 . S
N384 C386 1.334 . S
N384 C387 1.328 . S
C385 C386 1.391 . S
C385 N388 1.329 . S
C385 H406 0.930 . S
C386 N384 1.334 . S
C386 C385 1.391 . S
C386 H393 0.930 . S
C387 N384 1.328 . S
C387 C389 1.392 . S
C387 H394 0.930 . S
N388 C385 1.329 . S
N388 C389 1.331 . S
C389 C387 1.392 . S
C389 N388 1.331 . S
O390 Zn383 1.975 . S
O390 C391 1.252 . S
C391 O390 1.252 . S
C391 O392 1.252 . S
O392 Zn374 1.975 . S
O392 C391 1.252 . S
H393 C386 0.930 . S
H394 C387 0.930 . S
C395 C396 1.392 . S
C395 N399 1.328 . S
C395 H401 0.930 . S
C396 C395 1.392 . S
C396 N400 1.331 . S
C397 C398 1.391 . S
C397 N400 1.329 . S
C397 H407 0.930 . S
C398 C397 1.391 . S
C398 N399 1.334 . S
C398 H405 0.930 . S
N399 Zn383 2.119 . S
N399 C395 1.328 . S
N399 C398 1.334 . S
N400 C396 1.331 . S
N400 C397 1.329 . S
H401 C395 0.930 . S
C402 O382 1.257 . S
C402 O403 1.244 . S
O403 C402 1.244 . S
O404 C380 1.257 . S
O404 Zn383 2.019 . S
H405 C398 0.930 . S
H406 C385 0.930 . S
H407 C397 0.930 . S
Zn408 N412 2.020 . S
Zn408 O416 2.019 . S
Zn408 N418 2.119 . S
Zn408 O426 1.975 . S
C409 N410 1.334 . S
C409 N413 1.336 . S
N410 C409 1.334 . S
N410 C411 1.334 . S
C411 N410 1.334 . S
C411 N412 1.336 . S
N412 Zn408 2.020 . S
N412 C411 1.336 . S
N412 N413 1.354 . S
N413 C409 1.336 . S
N413 N412 1.354 . S
N413 Zn417 2.020 . S
C414 O415 1.244 . S
C414 O438 1.257 . S
O415 C414 1.244 . S
O416 Zn408 2.019 . S
O416 C436 1.257 . S
Zn417 N413 2.020 . S
Zn417 O424 1.975 . S
Zn417 N433 2.119 . S
Zn417 O438 2.019 . S
N418 Zn408 2.119 . S
N418 C420 1.334 . S
N418 C421 1.328 . S
C419 C420 1.391 . S
C419 N422 1.329 . S
C419 H440 0.930 . S
C420 N418 1.334 . S
C420 C419 1.391 . S
C420 H427 0.930 . S
C421 N418 1.328 . S
C421 C423 1.392 . S
C421 H428 0.930 . S
N422 C419 1.329 . S
N422 C423 1.331 . S
C423 C421 1.392 . S
C423 N422 1.331 . S
O424 Zn417 1.975 . S
O424 C425 1.252 . S
C425 O424 1.252 . S
C425 O426 1.252 . S
O426 Zn408 1.975 . S
O426 C425 1.252 . S
H427 C420 0.930 . S
H428 C421 0.930 . S
C429 C430 1.392 . S
C429 N433 1.328 . S
C429 H435 0.930 . S
C430 C429 1.392 . S
C430 N434 1.331 . S
C431 C432 1.391 . S
C431 N434 1.329 . S
C431 H441 0.930 . S
C432 C431 1.391 . S
C432 N433 1.334 . S
C432 H439 0.930 . S
N433 Zn417 2.119 . S
N433 C429 1.328 . S
N433 C432 1.334 . S
N434 C430 1.331 . S
N434 C431 1.329 . S
H435 C429 0.930 . S
C436 O416 1.257 . S
C436 O437 1.244 . S
O437 C436 1.244 . S
O438 C414 1.257 . S
O438 Zn417 2.019 . S
H439 C432 0.930 . S
H440 C419 0.930 . S
H441 C431 0.930 . S
Zn442 N446 2.020 . S
Zn442 O450 2.019 . S
Zn442 N452 2.119 . S
Zn442 O460 1.975 . S
C443 N444 1.334 . S
C443 N447 1.336 . S
N444 C443 1.334 . S
N444 C445 1.334 . S
C445 N444 1.334 . S
C445 N446 1.336 . S
N446 Zn442 2.020 . S
N446 C445 1.336 . S
N446 N447 1.354 . S
N447 C443 1.336 . S
N447 N446 1.354 . S
N447 Zn451 2.020 . S
C448 O449 1.244 . S
C448 O472 1.257 . S
O449 C448 1.244 . S
O450 Zn442 2.019 . S
O450 C470 1.257 . S
Zn451 N447 2.020 . S
Zn451 O458 1.975 . S
Zn451 N467 2.119 . S
Zn451 O472 2.019 . S
N452 Zn442 2.119 . S
N452 C454 1.334 . S
N452 C455 1.328 . S
C453 C454 1.391 . S
C453 N456 1.329 . S
C453 H474 0.930 . S
C454 N452 1.334 . S
C454 C453 1.391 . S
C454 H461 0.930 . S
C455 N452 1.328 . S
C455 C457 1.392 . S
C455 H462 0.930 . S
N456 C453 1.329 . S
N456 C457 1.331 . S
C457 C455 1.392 . S
C457 N456 1.331 . S
O458 Zn451 1.975 . S
O458 C459 1.252 . S
C459 O458 1.252 . S
C459 O460 1.252 . S
O460 Zn442 1.975 . S
O460 C459 1.252 . S
H461 C454 0.930 . S
H462 C455 0.930 . S
C463 C464 1.392 . S
C463 N467 1.328 . S
C463 H469 0.930 . S
C464 C463 1.392 . S
C464 N468 1.331 . S
C465 C466 1.391 . S
C465 N468 1.329 . S
C465 H475 0.930 . S
C466 C465 1.391 . S
C466 N467 1.334 . S
C466 H473 0.930 . S
N467 Zn451 2.119 . S
N467 C463 1.328 . S
N467 C466 1.334 . S
N468 C464 1.331 . S
N468 C465 1.329 . S
H469 C463 0.930 . S
C470 O450 1.257 . S
C470 O471 1.244 . S
O471 C470 1.244 . S
O472 C448 1.257 . S
O472 Zn451 2.019 . S
H473 C466 0.930 . S
H474 C453 0.930 . S
H475 C465 0.930 . S
Zn476 N480 2.020 . S
Zn476 O484 2.019 . S
Zn476 N486 2.119 . S
Zn476 O494 1.975 . S
C477 N478 1.334 . S
C477 N481 1.336 . S
N478 C477 1.334 . S
N478 C479 1.334 . S
C479 N478 1.334 . S
C479 N480 1.336 . S
N480 Zn476 2.020 . S
N480 C479 1.336 . S
N480 N481 1.354 . S
N481 C477 1.336 . S
N481 N480 1.354 . S
N481 Zn485 2.020 . S
C482 O483 1.244 . S
C482 O506 1.257 . S
O483 C482 1.244 . S
O484 Zn476 2.019 . S
O484 C504 1.257 . S
Zn485 N481 2.020 . S
Zn485 O492 1.975 . S
Zn485 N501 2.119 . S
Zn485 O506 2.019 . S
N486 Zn476 2.119 . S
N486 C488 1.334 . S
N486 C489 1.328 . S
C487 C488 1.391 . S
C487 N490 1.329 . S
C487 H508 0.930 . S
C488 N486 1.334 . S
C488 C487 1.391 . S
C488 H495 0.930 . S
C489 N486 1.328 . S
C489 C491 1.392 . S
C489 H496 0.930 . S
N490 C487 1.329 . S
N490 C491 1.331 . S
C491 C489 1.392 . S
C491 N490 1.331 . S
O492 Zn485 1.975 . S
O492 C493 1.252 . S
C493 O492 1.252 . S
C493 O494 1.252 . S
O494 Zn476 1.975 . S
O494 C493 1.252 . S
H495 C488 0.930 . S
H496 C489 0.930 . S
C497 C498 1.392 . S
C497 N501 1.328 . S
C497 H503 0.930 . S
C498 C497 1.392 . S
C498 N502 1.331 . S
C499 C500 1.391 . S
C499 N502 1.329 . S
C499 H509 0.930 . S
C500 C499 1.391 . S
C500 N501 1.334 . S
C500 H507 0.930 . S
N501 Zn485 2.119 . S
N501 C497 1.328 . S
N501 C500 1.334 . S
N502 C498 1.331 . S
N502 C499 1.329 . S
H503 C497 0.930 . S
C504 O484 1.257 . S
C504 O505 1.244 . S
O505 C504 1.244 . S
O506 C482 1.257 . S
O506 Zn485 2.019 . S
H507 C500 0.930 . S
H508 C487 0.930 . S
H509 C499 0.930 . S
Zn510 N514 2.020 . S
Zn510 O518 2.019 . S
Zn510 N520 2.119 . S
Zn510 O528 1.975 . S
C511 N512 1.334 . S
C511 N515 1.336 . S
N512 C511 1.334 . S
N512 C513 1.334 . S
C513 N512 1.334 . S
C513 N514 1.336 . S
N514 Zn510 2.020 . S
N514 C513 1.336 . S
N514 N515 1.354 . S
N515 C511 1.336 . S
N515 N514 1.354 . S
N515 Zn519 2.020 . S
C516 O517 1.244 . S
C516 O540 1.257 . S
O517 C516 1.244 . S
O518 Zn510 2.019 . S
O518 C538 1.257 . S
Zn519 N515 2.020 . S
Zn519 O526 1.975 . S
Zn519 N535 2.119 . S
Zn519 O540 2.019 . S
N520 Zn510 2.119 . S
N520 C522 1.334 . S
N520 C523 1.328 . S
C521 C522 1.391 . S
C521 N524 1.329 . S
C521 H542 0.930 . S
C522 N520 1.334 . S
C522 C521 1.391 . S
C522 H529 0.930 . S
C523 N520 1.328 . S
C523 C525 1.392 . S
C523 H530 0.930 . S
N524 C521 1.329 . S
N524 C525 1.331 . S
C525 C523 1.392 . S
C525 N524 1.331 . S
O526 Zn519 1.975 . S
O526 C527 1.252 . S
C527 O526 1.252 . S
C527 O528 1.252 . S
O528 Zn510 1.975 . S
O528 C527 1.252 . S
H529 C522 0.930 . S
H530 C523 0.930 . S
C531 C532 1.392 . S
C531 N535 1.328 . S
C531 H537 0.930 . S
C532 C531 1.392 . S
C532 N536 1.331 . S
C533 C534 1.391 . S
C533 N536 1.329 . S
C533 H543 0.930 . S
C534 C533 1.391 . S
C534 N535 1.334 . S
C534 H541 0.930 . S
N535 Zn519 2.119 . S
N535 C531 1.328 . S
N535 C534 1.334 . S
N536 C532 1.331 . S
N536 C533 1.329 . S
H537 C531 0.930 . S
C538 O518 1.257 . S
C538 O539 1.244 . S
O539 C538 1.244 . S
O540 C516 1.257 . S
O540 Zn519 2.019 . S
H541 C534 0.930 . S
H542 C521 0.930 . S
H543 C533 0.930 . S
Zn544 N548 2.020 . S
Zn544 O552 2.019 . S
Zn544 N554 2.119 . S
Zn544 O562 1.975 . S
C545 N546 1.334 . S
C545 N549 1.336 . S
N546 C545 1.334 . S
N546 C547 1.334 . S
C547 N546 1.334 . S
C547 N548 1.336 . S
N548 Zn544 2.020 . S
N548 C547 1.336 . S
N548 N549 1.354 . S
N549 C545 1.336 . S
N549 N548 1.354 . S
N549 Zn553 2.020 . S
C550 O551 1.244 . S
C550 O574 1.257 . S
O551 C550 1.244 . S
O552 Zn544 2.019 . S
O552 C572 1.257 . S
Zn553 N549 2.020 . S
Zn553 O560 1.975 . S
Zn553 N569 2.119 . S
Zn553 O574 2.019 . S
N554 Zn544 2.119 . S
N554 C556 1.334 . S
N554 C557 1.328 . S
C555 C556 1.391 . S
C555 N558 1.329 . S
C555 H576 0.930 . S
C556 N554 1.334 . S
C556 C555 1.391 . S
C556 H563 0.930 . S
C557 N554 1.328 . S
C557 C559 1.392 . S
C557 H564 0.930 . S
N558 C555 1.329 . S
N558 C559 1.331 . S
C559 C557 1.392 . S
C559 N558 1.331 . S
O560 Zn553 1.975 . S
O560 C561 1.252 . S
C561 O560 1.252 . S
C561 O562 1.252 . S
O562 Zn544 1.975 . S
O562 C561 1.252 . S
H563 C556 0.930 . S
H564 C557 0.930 . S
C565 C566 1.392 . S
C565 N569 1.328 . S
C565 H571 0.930 . S
C566 C565 1.392 . S
C566 N570 1.331 . S
C567 C568 1.391 . S
C567 N570 1.329 . S
C567 H577 0.930 . S
C568 C567 1.391 . S
C568 N569 1.334 . S
C568 H575 0.930 . S
N569 Zn553 2.119 . S
N569 C565 1.328 . S
N569 C568 1.334 . S
N570 C566 1.331 . S
N570 C567 1.329 . S
H571 C565 0.930 . S
C572 O552 1.257 . S
C572 O573 1.244 . S
O573 C572 1.244 . S
O574 C550 1.257 . S
O574 Zn553 2.019 . S
H575 C568 0.930 . S
H576 C555 0.930 . S
H577 C567 0.930 . S
Zn578 N582 2.020 . S
Zn578 O586 2.019 . S
Zn578 N588 2.119 . S
Zn578 O596 1.975 . S
C579 N580 1.334 . S
C579 N583 1.336 . S
N580 C579 1.334 . S
N580 C581 1.334 . S
C581 N580 1.334 . S
C581 N582 1.336 . S
N582 Zn578 2.020 . S
N582 C581 1.336 . S
N582 N583 1.354 . S
N583 C579 1.336 . S
N583 N582 1.354 . S
N583 Zn587 2.020 . S
C584 O585 1.244 . S
C584 O608 1.257 . S
O585 C584 1.244 . S
O586 Zn578 2.019 . S
O586 C606 1.257 . S
Zn587 N583 2.020 . S
Zn587 O594 1.975 . S
Zn587 N603 2.119 . S
Zn587 O608 2.019 . S
N588 Zn578 2.119 . S
N588 C590 1.334 . S
N588 C591 1.328 . S
C589 C590 1.391 . S
C589 N592 1.329 . S
C589 H610 0.930 . S
C590 N588 1.334 . S
C590 C589 1.391 . S
C590 H597 0.930 . S
C591 N588 1.328 . S
C591 C593 1.392 . S
C591 H598 0.930 . S
N592 C589 1.329 . S
N592 C593 1.331 . S
C593 C591 1.392 . S
C593 N592 1.331 . S
O594 Zn587 1.975 . S
O594 C595 1.252 . S
C595 O594 1.252 . S
C595 O596 1.252 . S
O596 Zn578 1.975 . S
O596 C595 1.252 . S
H597 C590 0.930 . S
H598 C591 0.930 . S
C599 C600 1.392 . S
C599 N603 1.328 . S
C599 H605 0.930 . S
C600 C599 1.392 . S
C600 N604 1.331 . S
C601 C602 1.391 . S
C601 N604 1.329 . S
C601 H611 0.930 . S
C602 C601 1.391 . S
C602 N603 1.334 . S
C602 H609 0.930 . S
N603 Zn587 2.119 . S
N603 C599 1.328 . S
N603 C602 1.334 . S
N604 C600 1.331 . S
N604 C601 1.329 . S
H605 C599 0.930 . S
C606 O586 1.257 . S
C606 O607 1.244 . S
O607 C606 1.244 . S
O608 C584 1.257 . S
O608 Zn587 2.019 . S
H609 C602 0.930 . S
H610 C589 0.930 . S
H611 C601 0.930 . S
Zn612 N616 2.020 . S
Zn612 O620 2.019 . S
Zn612 N622 2.119 . S
Zn612 O630 1.975 . S
C613 N614 1.334 . S
C613 N617 1.336 . S
N614 C613 1.334 . S
N614 C615 1.334 . S
C615 N614 1.334 . S
C615 N616 1.336 . S
N616 Zn612 2.020 . S
N616 C615 1.336 . S
N616 N617 1.354 . S
N617 C613 1.336 . S
N617 N616 1.354 . S
N617 Zn621 2.020 . S
C618 O619 1.244 . S
C618 O642 1.257 . S
O619 C618 1.244 . S
O620 Zn612 2.019 . S
O620 C640 1.257 . S
Zn621 N617 2.020 . S
Zn621 O628 1.975 . S
Zn621 N637 2.119 . S
Zn621 O642 2.019 . S
N622 Zn612 2.119 . S
N622 C624 1.334 . S
N622 C625 1.328 . S
C623 C624 1.391 . S
C623 N626 1.329 . S
C623 H644 0.930 . S
C624 N622 1.334 . S
C624 C623 1.391 . S
C624 H631 0.930 . S
C625 N622 1.328 . S
C625 C627 1.392 . S
C625 H632 0.930 . S
N626 C623 1.329 . S
N626 C627 1.331 . S
C627 C625 1.392 . S
C627 N626 1.331 . S
O628 Zn621 1.975 . S
O628 C629 1.252 . S
C629 O628 1.252 . S
C629 O630 1.252 . S
O630 Zn612 1.975 . S
O630 C629 1.252 . S
H631 C624 0.930 . S
H632 C625 0.930 . S
C633 C634 1.392 . S
C633 N637 1.328 . S
C633 H639 0.930 . S
C634 C633 1.392 . S
C634 N638 1.331 . S
C635 C636 1.391 . S
C635 N638 1.329 . S
C635 H645 0.930 . S
C636 C635 1.391 . S
C636 N637 1.334 . S
C636 H643 0.930 . S
N637 Zn621 2.119 . S
N637 C633 1.328 . S
N637 C636 1.334 . S
N638 C634 1.331 . S
N638 C635 1.329 . S
H639 C633 0.930 . S
C640 O620 1.257 . S
C640 O641 1.244 . S
O641 C640 1.244 . S
O642 C618 1.257 . S
O642 Zn621 2.019 . S
H643 C636 0.930 . S
H644 C623 0.930 . S
H645 C635 0.930 . S
Zn646 N650 2.020 . S
Zn646 O654 2.019 . S
Zn646 N656 2.119 . S
Zn646 O664 1.975 . S
C647 N648 1.334 . S
C647 N651 1.336 . S
N648 C647 1.334 . S
N648 C649 1.334 . S
C649 N648 1.334 . S
C649 N650 1.336 . S
N650 Zn646 2.020 . S
N650 C649 1.336 . S
N650 N651 1.354 . S
N651 C647 1.336 . S
N651 N650 1.354 . S
N651 Zn655 2.020 . S
C652 O653 1.244 . S
C652 O676 1.257 . S
O653 C652 1.244 . S
O654 Zn646 2.019 . S
O654 C674 1.257 . S
Zn655 N651 2.020 . S
Zn655 O662 1.975 . S
Zn655 N671 2.119 . S
Zn655 O676 2.019 . S
N656 Zn646 2.119 . S
N656 C658 1.334 . S
N656 C659 1.328 . S
C657 C658 1.391 . S
C657 N660 1.329 . S
C657 H678 0.930 . S
C658 N656 1.334 . S
C658 C657 1.391 . S
C658 H665 0.930 . S
C659 N656 1.328 . S
C659 C661 1.392 . S
C659 H666 0.930 . S
N660 C657 1.329 . S
N660 C661 1.331 . S
C661 C659 1.392 . S
C661 N660 1.331 . S
O662 Zn655 1.975 . S
O662 C663 1.252 . S
C663 O662 1.252 . S
C663 O664 1.252 . S
O664 Zn646 1.975 . S
O664 C663 1.252 . S
H665 C658 0.930 . S
H666 C659 0.930 . S
C667 C668 1.392 . S
C667 N671 1.328 . S
C667 H673 0.930 . S
C668 C667 1.392 . S
C668 N672 1.331 . S
C669 C670 1.391 . S
C669 N672 1.329 . S
C669 H679 0.930 . S
C670 C669 1.391 . S
C670 N671 1.334 . S
C670 H677 0.930 . S
N671 Zn655 2.119 . S
N671 C667 1.328 . S
N671 C670 1.334 . S
N672 C668 1.331 . S
N672 C669 1.329 . S
H673 C667 0.930 . S
C674 O654 1.257 . S
C674 O675 1.244 . S
O675 C674 1.244 . S
O676 C652 1.257 . S
O676 Zn655 2.019 . S
H677 C670 0.930 . S
H678 C657 0.930 . S
H679 C669 0.930 . S
Zn680 N684 2.020 . S
Zn680 O688 2.019 . S
Zn680 N690 2.119 . S
Zn680 O698 1.975 . S
C681 N682 1.334 . S
C681 N685 1.336 . S
N682 C681 1.334 . S
N682 C683 1.334 . S
C683 N682 1.334 . S
C683 N684 1.336 . S
N684 Zn680 2.020 . S
N684 C683 1.336 . S
N684 N685 1.354 . S
N685 C681 1.336 . S
N685 N684 1.354 . S
N685 Zn689 2.020 . S
C686 O687 1.244 . S
C686 O710 1.257 . S
O687 C686 1.244 . S
O688 Zn680 2.019 . S
O688 C708 1.257 . S
Zn689 N685 2.020 . S
Zn689 O696 1.975 . S
Zn689 N705 2.119 . S
Zn689 O710 2.019 . S
N690 Zn680 2.119 . S
N690 C692 1.334 . S
N690 C693 1.328 . S
C691 C692 1.391 . S
C691 N694 1.329 . S
C691 H712 0.930 . S
C692 N690 1.334 . S
C692 C691 1.391 . S
C692 H699 0.930 . S
C693 N690 1.328 . S
C693 C695 1.392 . S
C693 H700 0.930 . S
N694 C691 1.329 . S
N694 C695 1.331 . S
C695 C693 1.392 . S
C695 N694 1.331 . S
O696 Zn689 1.975 . S
O696 C697 1.252 . S
C697 O696 1.252 . S
C697 O698 1.252 . S
O698 Zn680 1.975 . S
O698 C697 1.252 . S
H699 C692 0.930 . S
H700 C693 0.930 . S
C701 C702 1.392 . S
C701 N705 1.328 . S
C701 H707 0.930 . S
C702 C701 1.392 . S
C702 N706 1.331 . S
C703 C704 1.391 . S
C703 N706 1.329 . S
C703 H713 0.930 . S
C704 C703 1.391 . S
C704 N705 1.334 . S
C704 H711 0.930 . S
N705 Zn689 2.119 . S
N705 C701 1.328 . S
N705 C704 1.334 . S
N706 C702 1.331 . S
N706 C703 1.329 . S
H707 C701 0.930 . S
C708 O688 1.257 . S
C708 O709 1.244 . S
O709 C708 1.244 . S
O710 C686 1.257 . S
O710 Zn689 2.019 . S
H711 C704 0.930 . S
H712 C691 0.930 . S
H713 C703 0.930 . S
Zn714 N718 2.020 . S
Zn714 O722 2.019 . S
Zn714 N724 2.119 . S
Zn714 O732 1.975 . S
C715 N716 1.334 . S
C715 N719 1.336 . S
N716 C715 1.334 . S
N716 C717 1.334 . S
C717 N716 1.334 . S
C717 N718 1.336 . S
N718 Zn714 2.020 . S
N718 C717 1.336 . S
N718 N719 1.354 . S
N719 C715 1.336 . S
N719 N718 1.354 . S
N719 Zn723 2.020 . S
C720 O721 1.244 . S
C720 O744 1.257 . S
O721 C720 1.244 . S
O722 Zn714 2.019 . S
O722 C742 1.257 . S
Zn723 N719 2.020 . S
Zn723 O730 1.975 . S
Zn723 N739 2.119 . S
Zn723 O744 2.019 . S
N724 Zn714 2.119 . S
N724 C726 1.334 . S
N724 C727 1.328 . S
C725 C726 1.391 . S
C725 N728 1.329 . S
C725 H746 0.930 . S
C726 N724 1.334 . S
C726 C725 1.391 . S
C726 H733 0.930 . S
C727 N724 1.328 . S
C727 C729 1.392 . S
C727 H734 0.930 . S
N728 C725 1.329 . S
N728 C729 1.331 . S
C729 C727 1.392 . S
C729 N728 1.331 . S
O730 Zn723 1.975 . S
O730 C731 1.252 . S
C731 O730 1.252 . S
C731 O732 1.252 . S
O732 Zn714 1.975 . S
O732 C731 1.252 . S
H733 C726 0.930 . S
H734 C727 0.930 . S
C735 C736 1.392 . S
C735 N739 1.328 . S
C735 H741 0.930 . S
C736 C735 1.392 . S
C736 N740 1.331 . S
C737 C738 1.391 . S
C737 N740 1.329 . S
C737 H747 0.930 . S
C738 C737 1.391 . S
C738 N739 1.334 . S
C738 H745 0.930 . S
N739 Zn723 2.119 . S
N739 C735 1.328 . S
N739 C738 1.334 . S
N740 C736 1.331 . S
N740 C737 1.329 . S
H741 C735 0.930 . S
C742 O722 1.257 . S
C742 O743 1.244 . S
O743 C742 1.244 . S
O744 C720 1.257 . S
O744 Zn723 2.019 . S
H745 C738 0.930 . S
H746 C725 0.930 . S
H747 C737 0.930 . S
Zn748 N752 2.020 . S
Zn748 O756 2.019 . S
Zn748 N758 2.119 . S
Zn748 O766 1.975 . S
C749 N750 1.334 . S
C749 N753 1.336 . S
N750 C749 1.334 . S
N750 C751 1.334 . S
C751 N750 1.334 . S
C751 N752 1.336 . S
N752 Zn748 2.020 . S
N752 C751 1.336 . S
N752 N753 1.354 . S
N753 C749 1.336 . S
N753 N752 1.354 . S
N753 Zn757 2.020 . S
C754 O755 1.244 . S
C754 O778 1.257 . S
O755 C754 1.244 . S
O756 Zn748 2.019 . S
O756 C776 1.257 . S
Zn757 N753 2.020 . S
Zn757 O764 1.975 . S
Zn757 N773 2.119 . S
Zn757 O778 2.019 . S
N758 Zn748 2.119 . S
N758 C760 1.334 . S
N758 C761 1.328 . S
C759 C760 1.391 . S
C759 N762 1.329 . S
C759 H780 0.930 . S
C760 N758 1.334 . S
C760 C759 1.391 . S
C760 H767 0.930 . S
C761 N758 1.328 . S
C761 C763 1.392 . S
C761 H768 0.930 . S
N762 C759 1.329 . S
N762 C763 1.331 . S
C763 C761 1.392 . S
C763 N762 1.331 . S
O764 Zn757 1.975 . S
O764 C765 1.252 . S
C765 O764 1.252 . S
C765 O766 1.252 . S
O766 Zn748 1.975 . S
O766 C765 1.252 . S
H767 C760 0.930 . S
H768 C761 0.930 . S
C769 C770 1.392 . S
C769 N773 1.328 . S
C769 H775 0.930 . S
C770 C769 1.392 . S
C770 N774 1.331 . S
C771 C772 1.391 . S
C771 N774 1.329 . S
C771 H781 0.930 . S
C772 C771 1.391 . S
C772 N773 1.334 . S
C772 H779 0.930 . S
N773 Zn757 2.119 . S
N773 C769 1.328 . S
N773 C772 1.334 . S
N774 C770 1.331 . S
N774 C771 1.329 . S
H775 C769 0.930 . S
C776 O756 1.257 . S
C776 O777 1.244 . S
O777 C776 1.244 . S
O778 C754 1.257 . S
O778 Zn757 2.019 . S
H779 C772 0.930 . S
H780 C759 0.930 . S
H781 C771 0.930 . S
Zn782 N786 2.020 . S
Zn782 O790 2.019 . S
Zn782 N792 2.119 . S
Zn782 O800 1.975 . S
C783 N784 1.334 . S
C783 N787 1.336 . S
N784 C783 1.334 . S
N784 C785 1.334 . S
C785 N784 1.334 . S
C785 N786 1.336 . S
N786 Zn782 2.020 . S
N786 C785 1.336 . S
N786 N787 1.354 . S
N787 C783 1.336 . S
N787 N786 1.354 . S
N787 Zn791 2.020 . S
C788 O789 1.244 . S
C788 O812 1.257 . S
O789 C788 1.244 . S
O790 Zn782 2.019 . S
O790 C810 1.257 . S
Zn791 N787 2.020 . S
Zn791 O798 1.975 . S
Zn791 N807 2.119 . S
Zn791 O812 2.019 . S
N792 Zn782 2.119 . S
N792 C794 1.334 . S
N792 C795 1.328 . S
C793 C794 1.391 . S
C793 N796 1.329 . S
C793 H814 0.930 . S
C794 N792 1.334 . S
C794 C793 1.391 . S
C794 H801 0.930 . S
C795 N792 1.328 . S
C795 C797 1.392 . S
C795 H802 0.930 . S
N796 C793 1.329 . S
N796 C797 1.331 . S
C797 C795 1.392 . S
C797 N796 1.331 . S
O798 Zn791 1.975 . S
O798 C799 1.252 . S
C799 O798 1.252 . S
C799 O800 1.252 . S
O800 Zn782 1.975 . S
O800 C799 1.252 . S
H801 C794 0.930 . S
H802 C795 0.930 . S
C803 C804 1.392 . S
C803 N807 1.328 . S
C803 H809 0.930 . S
C804 C803 1.392 . S
C804 N808 1.331 . S
C805 C806 1.391 . S
C805 N808 1.329 . S
C805 H815 0.930 . S
C806 C805 1.391 . S
C806 N807 1.334 . S
C806 H813 0.930 . S
N807 Zn791 2.119 . S
N807 C803 1.328 . S
N807 C806 1.334 . S
N808 C804 1.331 . S
N808 C805 1.329 . S
H809 C803 0.930 . S
C810 O790 1.257 . S
C810 O811 1.244 . S
O811 C810 1.244 . S
O812 C788 1.257 . S
O812 Zn791 2.019 . S
H813 C806 0.930 . S
H814 C793 0.930 . S
H815 C805 0.930 . S
H816 C822 0.930 . S
H817 C825 0.930 . S
H818 C826 0.930 . S
H819 C827 0.930 . S
H820 C830 0.930 . S
H821 C831 0.930 . S
C822 H816 0.930 . S
C822 C823 1.355 . S
C822 C824 1.415 . S
C823 C822 1.355 . S
C823 C825 1.419 . S
C824 C822 1.415 . S
C824 C829 1.425 . S
C824 C831 1.409 . S
C825 H817 0.930 . S
C825 C823 1.419 . S
C825 C826 1.362 . S
C826 H818 0.930 . S
C826 C825 1.362 . S
C826 C829 1.409 . S
C827 H819 0.930 . S
C827 C828 1.355 . S
C827 C829 1.415 . S
C828 C827 1.355 . S
C828 C830 1.419 . S
C829 C824 1.425 . S
C829 C826 1.409 . S
C829 C827 1.415 . S
C830 H820 0.930 . S
C830 C828 1.419 . S
C830 C831 1.362 . S
C831 H821 0.930 . S
C831 C824 1.409 . S
C831 C830 1.362 . S
H832 C838 0.930 . S
H833 C841 0.930 . S
H834 C842 0.930 . S
H835 C843 0.930 . S
H836 C846 0.930 . S
H837 C847 0.930 . S
C838 H832 0.930 . S
C838 C839 1.355 . S
C838 C840 1.415 . S
C839 C838 1.355 . S
C839 C841 1.419 . S
C840 C838 1.415 . S
C840 C845 1.425 . S
C840 C847 1.409 . S
C841 H833 0.930 . S
C841 C839 1.419 . S
C841 C842 1.362 . S
C842 H834 0.930 . S
C842 C841 1.362 . S
C842 C845 1.409 . S
C843 H835 0.930 . S
C843 C844 1.355 . S
C843 C845 1.415 . S
C844 C843 1.355 . S
C844 C846 1.419 . S
C845 C840 1.425 . S
C845 C842 1.409 . S
C845 C843 1.415 . S
C846 H836 0.930 . S
C846 C844 1.419 . S
C846 C847 1.362 . S
C847 H837 0.930 . S
C847 C840 1.409 . S
C847 C846 1.362 . S
H848 C854 0.930 . S
H849 C857 0.930 . S
H850 C858 0.930 . S
H851 C859 0.930 . S
H852 C862 0.930 . S
H853 C863 0.930 . S
C854 H848 0.930 . S
C854 C855 1.355 . S
C854 C856 1.415 . S
C855 C854 1.355 . S
C855 C857 1.419 . S
C856 C854 1.415 . S
C856 C861 1.425 . S
C856 C863 1.409 . S
C857 H849 0.930 . S
C857 C855 1.419 . S
C857 C858 1.362 . S
C858 H850 0.930 . S
C858 C857 1.362 . S
C858 C861 1.409 . S
C859 H851 0.930 . S
C859 C860 1.355 . S
C859 C861 1.415 . S
C860 C859 1.355 . S
C860 C862 1.419 . S
C861 C856 1.425 . S
C861 C858 1.409 . S
C861 C859 1.415 . S
C862 H852 0.930 . S
C862 C860 1.419 . S
C862 C863 1.362 . S
C863 H853 0.930 . S
C863 C856 1.409 . S
C863 C862 1.362 . S
H864 C870 0.930 . S
H865 C873 0.930 . S
H866 C874 0.930 . S
H867 C875 0.930 . S
H868 C878 0.930 . S
H869 C879 0.930 . S
C870 H864 0.930 . S
C870 C871 1.355 . S
C870 C872 1.415 . S
C871 C870 1.355 . S
C871 C873 1.419 . S
C872 C870 1.415 . S
C872 C877 1.425 . S
C872 C879 1.409 . S
C873 H865 0.930 . S
C873 C871 1.419 . S
C873 C874 1.362 . S
C874 H866 0.930 . S
C874 C873 1.362 . S
C874 C877 1.409 . S
C875 H867 0.930 . S
C875 C876 1.355 . S
C875 C877 1.415 . S
C876 C875 1.355 . S
C876 C878 1.419 . S
C877 C872 1.425 . S
C877 C874 1.409 . S
C877 C875 1.415 . S
C878 H868 0.930 . S
C878 C876 1.419 . S
C878 C879 1.362 . S
C879 H869 0.930 . S
C879 C872 1.409 . S
C879 C878 1.362 . S
H880 C886 0.930 . S
H881 C889 0.930 . S
H882 C890 0.930 . S
H883 C891 0.930 . S
H884 C894 0.930 . S
H885 C895 0.930 . S
C886 H880 0.930 . S
C886 C887 1.355 . S
C886 C888 1.415 . S
C887 C886 1.355 . S
C887 C889 1.419 . S
C888 C886 1.415 . S
C888 C893 1.425 . S
C888 C895 1.409 . S
C889 H881 0.930 . S
C889 C887 1.419 . S
C889 C890 1.362 . S
C890 H882 0.930 . S
C890 C889 1.362 . S
C890 C893 1.409 . S
C891 H883 0.930 . S
C891 C892 1.355 . S
C891 C893 1.415 . S
C892 C891 1.355 . S
C892 C894 1.419 . S
C893 C888 1.425 . S
C893 C890 1.409 . S
C893 C891 1.415 . S
C894 H884 0.930 . S
C894 C892 1.419 . S
C894 C895 1.362 . S
C895 H885 0.930 . S
C895 C888 1.409 . S
C895 C894 1.362 . S
H896 C902 0.930 . S
H897 C905 0.930 . S
H898 C906 0.930 . S
H899 C907 0.930 . S
H900 C910 0.930 . S
H901 C911 0.930 . S
C902 H896 0.930 . S
C902 C903 1.355 . S
C902 C904 1.415 . S
C903 C902 1.355 . S
C903 C905 1.419 . S
C904 C902 1.415 . S
C904 C909 1.425 . S
C904 C911 1.409 . S
C905 H897 0.930 . S
C905 C903 1.419 . S
C905 C906 1.362 . S
C906 H898 0.930 . S
C906 C905 1.362 . S
C906 C909 1.409 . S
C907 H899 0.930 . S
C907 C908 1.355 . S
C907 C909 1.415 . S
C908 C907 1.355 . S
C908 C910 1.419 . S
C909 C904 1.425 . S
C909 C906 1.409 . S
C909 C907 1.415 . S
C910 H900 0.930 . S
C910 C908 1.419 . S
C910 C911 1.362 . S
C911 H901 0.930 . S
C911 C904 1.409 . S
C911 C910 1.362 . S
H912 C918 0.930 . S
H913 C921 0.930 . S
H914 C922 0.930 . S
H915 C923 0.930 . S
H916 C926 0.930 . S
H917 C927 0.930 . S
C918 H912 0.930 . S
C918 C919 1.355 . S
C918 C920 1.415 . S
C919 C918 1.355 . S
C919 C921 1.419 . S
C920 C918 1.415 . S
C920 C925 1.425 . S
C920 C927 1.409 . S
C921 H913 0.930 . S
C921 C919 1.419 . S
C921 C922 1.362 . S
C922 H914 0.930 . S
C922 C921 1.362 . S
C922 C925 1.409 . S
C923 H915 0.930 . S
C923 C924 1.355 . S
C923 C925 1.415 . S
C924 C923 1.355 . S
C924 C926 1.419 . S
C925 C920 1.425 . S
C925 C922 1.409 . S
C925 C923 1.415 . S
C926 H916 0.930 . S
C926 C924 1.419 . S
C926 C927 1.362 . S
C927 H917 0.930 . S
C927 C920 1.409 . S
C927 C926 1.362 . S
H928 C934 0.930 . S
H929 C937 0.930 . S
H930 C938 0.930 . S
H931 C939 0.930 . S
H932 C942 0.930 . S
H933 C943 0.930 . S
C934 H928 0.930 . S
C934 C935 1.355 . S
C934 C936 1.415 . S
C935 C934 1.355 . S
C935 C937 1.419 . S
C936 C934 1.415 . S
C936 C941 1.425 . S
C936 C943 1.409 . S
C937 H929 0.930 . S
C937 C935 1.419 . S
C937 C938 1.362 . S
C938 H930 0.930 . S
C938 C937 1.362 . S
C938 C941 1.409 . S
C939 H931 0.930 . S
C939 C940 1.355 . S
C939 C941 1.415 . S
C940 C939 1.355 . S
C940 C942 1.419 . S
C941 C936 1.425 . S
C941 C938 1.409 . S
C941 C939 1.415 . S
C942 H932 0.930 . S
C942 C940 1.419 . S
C942 C943 1.362 . S
C943 H933 0.930 . S
C943 C936 1.409 . S
C943 C942 1.362 . S
H944 C950 0.930 . S
H945 C953 0.930 . S
H946 C954 0.930 . S
H947 C955 0.930 . S
H948 C958 0.930 . S
H949 C959 0.930 . S
C950 H944 0.930 . S
C950 C951 1.355 . S
C950 C952 1.415 . S
C951 C950 1.355 . S
C951 C953 1.419 . S
C952 C950 1.415 . S
C952 C957 1.425 . S
C952 C959 1.409 . S
C953 H945 0.930 . S
C953 C951 1.419 . S
C953 C954 1.362 . S
C954 H946 0.930 . S
C954 C953 1.362 . S
C954 C957 1.409 . S
C955 H947 0.930 . S
C955 C956 1.355 . S
C955 C957 1.415 . S
C956 C955 1.355 . S
C956 C958 1.419 . S
C957 C952 1.425 . S
C957 C954 1.409 . S
C957 C955 1.415 . S
C958 H948 0.930 . S
C958 C956 1.419 . S
C958 C959 1.362 . S
C959 H949 0.930 . S
C959 C952 1.409 . S
C959 C958 1.362 . S
H960 C966 0.930 . S
H961 C969 0.930 . S
H962 C970 0.930 . S
H963 C971 0.930 . S
H964 C974 0.930 . S
H965 C975 0.930 . S
C966 H960 0.930 . S
C966 C967 1.355 . S
C966 C968 1.415 . S
C967 C966 1.355 . S
C967 C969 1.419 . S
C968 C966 1.415 . S
C968 C973 1.425 . S
C968 C975 1.409 . S
C969 H961 0.930 . S
C969 C967 1.419 . S
C969 C970 1.362 . S
C970 H962 0.930 . S
C970 C969 1.362 . S
C970 C973 1.409 . S
C971 H963 0.930 . S
C971 C972 1.355 . S
C971 C973 1.415 . S
C972 C971 1.355 . S
C972 C974 1.419 . S
C973 C968 1.425 . S
C973 C970 1.409 . S
C973 C971 1.415 . S
C974 H964 0.930 . S
C974 C972 1.419 . S
C974 C975 1.362 . S
C975 H965 0.930 . S
C975 C968 1.409 . S
C975 C974 1.362 . S
H976 C982 0.930 . S
H977 C985 0.930 . S
H978 C986 0.930 . S
H979 C987 0.930 . S
H980 C990 0.930 . S
H981 C991 0.930 . S
C982 H976 0.930 . S
C982 C983 1.355 . S
C982 C984 1.415 . S
C983 C982 1.355 . S
C983 C985 1.419 . S
C984 C982 1.415 . S
C984 C989 1.425 . S
C984 C991 1.409 . S
C985 H977 0.930 . S
C985 C983 1.419 . S
C985 C986 1.362 . S
C986 H978 0.930 . S
C986 C985 1.362 . S
C986 C989 1.409 . S
C987 H979 0.930 . S
C987 C988 1.355 . S
C987 C989 1.415 . S
C988 C987 1.355 . S
C988 C990 1.419 . S
C989 C984 1.425 . S
C989 C986 1.409 . S
C989 C987 1.415 . S
C990 H980 0.930 . S
C990 C988 1.419 . S
C990 C991 1.362 . S
C991 H981 0.930 . S
C991 C984 1.409 . S
C991 C990 1.362 . S
H992 C998 0.930 . S
H993 C1001 0.930 . S
H994 C1002 0.930 . S
H995 C1003 0.930 . S
H996 C1006 0.930 . S
H997 C1007 0.930 . S
C998 H992 0.930 . S
C998 C999 1.355 . S
C998 C1000 1.415 . S
C999 C998 1.355 . S
C999 C1001 1.419 . S
C1000 C998 1.415 . S
C1000 C1005 1.425 . S
C1000 C1007 1.409 . S
C1001 H993 0.930 . S
C1001 C999 1.419 . S
C1001 C1002 1.362 . S
C1002 H994 0.930 . S
C1002 C1001 1.362 . S
C1002 C1005 1.409 . S
C1003 H995 0.930 . S
C1003 C1004 1.355 . S
C1003 C1005 1.415 . S
C1004 C1003 1.355 . S
C1004 C1006 1.419 . S
C1005 C1000 1.425 . S
C1005 C1002 1.409 . S
C1005 C1003 1.415 . S
C1006 H996 0.930 . S
C1006 C1004 1.419 . S
C1006 C1007 1.362 . S
C1007 H997 0.930 . S
C1007 C1000 1.409 . S
C1007 C1006 1.362 . S
H1008 C1014 0.930 . S
H1009 C1017 0.930 . S
H1010 C1018 0.930 . S
H1011 C1019 0.930 . S
H1012 C1022 0.930 . S
H1013 C1023 0.930 . S
C1014 H1008 0.930 . S
C1014 C1015 1.355 . S
C1014 C1016 1.415 . S
C1015 C1014 1.355 . S
C1015 C1017 1.419 . S
C1016 C1014 1.415 . S
C1016 C1021 1.425 . S
C1016 C1023 1.409 . S
C1017 H1009 0.930 . S
C1017 C1015 1.419 . S
C1017 C1018 1.362 . S
C1018 H1010 0.930 . S
C1018 C1017 1.362 . S
C1018 C1021 1.409 . S
C1019 H1011 0.930 . S
C1019 C1020 1.355 . S
C1019 C1021 1.415 . S
C1020 C1019 1.355 . S
C1020 C1022 1.419 . S
C1021 C1016 1.425 . S
C1021 C1018 1.409 . S
C1021 C1019 1.415 . S
C1022 H1012 0.930 . S
C1022 C1020 1.419 . S
C1022 C1023 1.362 . S
C1023 H1013 0.930 . S
C1023 C1016 1.409 . S
C1023 C1022 1.362 . S
H1024 C1030 0.930 . S
H1025 C1033 0.930 . S
H1026 C1034 0.930 . S
H1027 C1035 0.930 . S
H1028 C1038 0.930 . S
H1029 C1039 0.930 . S
C1030 H1024 0.930 . S
C1030 C1031 1.355 . S
C1030 C1032 1.415 . S
C1031 C1030 1.355 . S
C1031 C1033 1.419 . S
C1032 C1030 1.415 . S
C1032 C1037 1.425 . S
C1032 C1039 1.409 . S
C1033 H1025 0.930 . S
C1033 C1031 1.419 . S
C1033 C1034 1.362 . S
C1034 H1026 0.930 . S
C1034 C1033 1.362 . S
C1034 C1037 1.409 . S
C1035 H1027 0.930 . S
C1035 C1036 1.355 . S
C1035 C1037 1.415 . S
C1036 C1035 1.355 . S
C1036 C1038 1.419 . S
C1037 C1032 1.425 . S
C1037 C1034 1.409 . S
C1037 C1035 1.415 . S
C1038 H1028 0.930 . S
C1038 C1036 1.419 . S
C1038 C1039 1.362 . S
C1039 H1029 0.930 . S
C1039 C1032 1.409 . S
C1039 C1038 1.362 . S
H1040 C1046 0.930 . S
H1041 C1049 0.930 . S
H1042 C1050 0.930 . S
H1043 C1051 0.930 . S
H1044 C1054 0.930 . S
H1045 C1055 0.930 . S
C1046 H1040 0.930 . S
C1046 C1047 1.355 . S
C1046 C1048 1.415 . S
C1047 C1046 1.355 . S
C1047 C1049 1.419 . S
C1048 C1046 1.415 . S
C1048 C1053 1.425 . S
C1048 C1055 1.409 . S
C1049 H1041 0.930 . S
C1049 C1047 1.419 . S
C1049 C1050 1.362 . S
C1050 H1042 0.930 . S
C1050 C1049 1.362 . S
C1050 C1053 1.409 . S
C1051 H1043 0.930 . S
C1051 C1052 1.355 . S
C1051 C1053 1.415 . S
C1052 C1051 1.355 . S
C1052 C1054 1.419 . S
C1053 C1048 1.425 . S
C1053 C1050 1.409 . S
C1053 C1051 1.415 . S
C1054 H1044 0.930 . S
C1054 C1052 1.419 . S
C1054 C1055 1.362 . S
C1055 H1045 0.930 . S
C1055 C1048 1.409 . S
C1055 C1054 1.362 . S
H1056 C1062 0.930 . S
H1057 C1065 0.930 . S
H1058 C1066 0.930 . S
H1059 C1067 0.930 . S
H1060 C1070 0.930 . S
H1061 C1071 0.930 . S
C1062 H1056 0.930 . S
C1062 C1063 1.355 . S
C1062 C1064 1.415 . S
C1063 C1062 1.355 . S
C1063 C1065 1.419 . S
C1064 C1062 1.415 . S
C1064 C1069 1.425 . S
C1064 C1071 1.409 . S
C1065 H1057 0.930 . S
C1065 C1063 1.419 . S
C1065 C1066 1.362 . S
C1066 H1058 0.930 . S
C1066 C1065 1.362 . S
C1066 C1069 1.409 . S
C1067 H1059 0.930 . S
C1067 C1068 1.355 . S
C1067 C1069 1.415 . S
C1068 C1067 1.355 . S
C1068 C1070 1.419 . S
C1069 C1064 1.425 . S
C1069 C1066 1.409 . S
C1069 C1067 1.415 . S
C1070 H1060 0.930 . S
C1070 C1068 1.419 . S
C1070 C1071 1.362 . S
C1071 H1061 0.930 . S
C1071 C1064 1.409 . S
C1071 C1070 1.362 . S
H1072 C1078 0.930 . S
H1073 C1081 0.930 . S
H1074 C1082 0.930 . S
H1075 C1083 0.930 . S
H1076 C1086 0.930 . S
H1077 C1087 0.930 . S
C1078 H1072 0.930 . S
C1078 C1079 1.355 . S
C1078 C1080 1.415 . S
C1079 C1078 1.355 . S
C1079 C1081 1.419 . S
C1080 C1078 1.415 . S
C1080 C1085 1.425 . S
C1080 C1087 1.409 . S
C1081 H1073 0.930 . S
C1081 C1079 1.419 . S
C1081 C1082 1.362 . S
C1082 H1074 0.930 . S
C1082 C1081 1.362 . S
C1082 C1085 1.409 . S
C1083 H1075 0.930 . S
C1083 C1084 1.355 . S
C1083 C1085 1.415 . S
C1084 C1083 1.355 . S
C1084 C1086 1.419 . S
C1085 C1080 1.425 . S
C1085 C1082 1.409 . S
C1085 C1083 1.415 . S
C1086 H1076 0.930 . S
C1086 C1084 1.419 . S
C1086 C1087 1.362 . S
C1087 H1077 0.930 . S
C1087 C1080 1.409 . S
C1087 C1086 1.362 . S
H1088 C1094 0.930 . S
H1089 C1097 0.930 . S
H1090 C1098 0.930 . S
H1091 C1099 0.930 . S
H1092 C1102 0.930 . S
H1093 C1103 0.930 . S
C1094 H1088 0.930 . S
C1094 C1095 1.355 . S
C1094 C1096 1.415 . S
C1095 C1094 1.355 . S
C1095 C1097 1.419 . S
C1096 C1094 1.415 . S
C1096 C1101 1.425 . S
C1096 C1103 1.409 . S
C1097 H1089 0.930 . S
C1097 C1095 1.419 . S
C1097 C1098 1.362 . S
C1098 H1090 0.930 . S
C1098 C1097 1.362 . S
C1098 C1101 1.409 . S
C1099 H1091 0.930 . S
C1099 C1100 1.355 . S
C1099 C1101 1.415 . S
C1100 C1099 1.355 . S
C1100 C1102 1.419 . S
C1101 C1096 1.425 . S
C1101 C1098 1.409 . S
C1101 C1099 1.415 . S
C1102 H1092 0.930 . S
C1102 C1100 1.419 . S
C1102 C1103 1.362 . S
C1103 H1093 0.930 . S
C1103 C1096 1.409 . S
C1103 C1102 1.362 . S
H1104 C1110 0.930 . S
H1105 C1113 0.930 . S
H1106 C1114 0.930 . S
H1107 C1115 0.930 . S
H1108 C1118 0.930 . S
H1109 C1119 0.930 . S
C1110 H1104 0.930 . S
C1110 C1111 1.355 . S
C1110 C1112 1.415 . S
C1111 C1110 1.355 . S
C1111 C1113 1.419 . S
C1112 C1110 1.415 . S
C1112 C1117 1.425 . S
C1112 C1119 1.409 . S
C1113 H1105 0.930 . S
C1113 C1111 1.419 . S
C1113 C1114 1.362 . S
C1114 H1106 0.930 . S
C1114 C1113 1.362 . S
C1114 C1117 1.409 . S
C1115 H1107 0.930 . S
C1115 C1116 1.355 . S
C1115 C1117 1.415 . S
C1116 C1115 1.355 . S
C1116 C1118 1.419 . S
C1117 C1112 1.425 . S
C1117 C1114 1.409 . S
C1117 C1115 1.415 . S
C1118 H1108 0.930 . S
C1118 C1116 1.419 . S
C1118 C1119 1.362 . S
C1119 H1109 0.930 . S
C1119 C1112 1.409 . S
C1119 C1118 1.362 . S
H1120 C1126 0.930 . S
H1121 C1129 0.930 . S
H1122 C1130 0.930 . S
H1123 C1131 0.930 . S
H1124 C1134 0.930 . S
H1125 C1135 0.930 . S
C1126 H1120 0.930 . S
C1126 C1127 1.355 . S
C1126 C1128 1.415 . S
C1127 C1126 1.355 . S
C1127 C1129 1.419 . S
C1128 C1126 1.415 . S
C1128 C1133 1.425 . S
C1128 C1135 1.409 . S
C1129 H1121 0.930 . S
C1129 C1127 1.419 . S
C1129 C1130 1.362 . S
C1130 H1122 0.930 . S
C1130 C1129 1.362 . S
C1130 C1133 1.409 . S
C1131 H1123 0.930 . S
C1131 C1132 1.355 . S
C1131 C1133 1.415 . S
C1132 C1131 1.355 . S
C1132 C1134 1.419 . S
C1133 C1128 1.425 . S
C1133 C1130 1.409 . S
C1133 C1131 1.415 . S
C1134 H1124 0.930 . S
C1134 C1132 1.419 . S
C1134 C1135 1.362 . S
C1135 H1125 0.930 . S
C1135 C1128 1.409 . S
C1135 C1134 1.362 . S
H1136 C1142 0.930 . S
H1137 C1145 0.930 . S
H1138 C1146 0.930 . S
H1139 C1147 0.930 . S
H1140 C1150 0.930 . S
H1141 C1151 0.930 . S
C1142 H1136 0.930 . S
C1142 C1143 1.355 . S
C1142 C1144 1.415 . S
C1143 C1142 1.355 . S
C1143 C1145 1.419 . S
C1144 C1142 1.415 . S
C1144 C1149 1.425 . S
C1144 C1151 1.409 . S
C1145 H1137 0.930 . S
C1145 C1143 1.419 . S
C1145 C1146 1.362 . S
C1146 H1138 0.930 . S
C1146 C1145 1.362 . S
C1146 C1149 1.409 . S
C1147 H1139 0.930 . S
C1147 C1148 1.355 . S
C1147 C1149 1.415 . S
C1148 C1147 1.355 . S
C1148 C1150 1.419 . S
C1149 C1144 1.425 . S
C1149 C1146 1.409 . S
C1149 C1147 1.415 . S
C1150 H1140 0.930 . S
C1150 C1148 1.419 . S
C1150 C1151 1.362 . S
C1151 H1141 0.930 . S
C1151 C1144 1.409 . S
C1151 C1150 1.362 . S
H1152 C1158 0.930 . S
H1153 C1161 0.930 . S
H1154 C1162 0.930 . S
H1155 C1163 0.930 . S
H1156 C1166 0.930 . S
H1157 C1167 0.930 . S
C1158 H1152 0.930 . S
C1158 C1159 1.355 . S
C1158 C1160 1.415 . S
C1159 C1158 1.355 . S
C1159 C1161 1.419 . S
C1160 C1158 1.415 . S
C1160 C1165 1.425 . S
C1160 C1167 1.409 . S
C1161 H1153 0.930 . S
C1161 C1159 1.419 . S
C1161 C1162 1.362 . S
C1162 H1154 0.930 . S
C1162 C1161 1.362 . S
C1162 C1165 1.409 . S
C1163 H1155 0.930 . S
C1163 C1164 1.355 . S
C1163 C1165 1.415 . S
C1164 C1163 1.355 . S
C1164 C1166 1.419 . S
C1165 C1160 1.425 . S
C1165 C1162 1.409 . S
C1165 C1163 1.415 . S
C1166 H1156 0.930 . S
C1166 C1164 1.419 . S
C1166 C1167 1.362 . S
C1167 H1157 0.930 . S
C1167 C1160 1.409 . S
C1167 C1166 1.362 . S
H1168 C1174 0.930 . S
H1169 C1177 0.930 . S
H1170 C1178 0.930 . S
H1171 C1179 0.930 . S
H1172 C1182 0.930 . S
H1173 C1183 0.930 . S
C1174 H1168 0.930 . S
C1174 C1175 1.355 . S
C1174 C1176 1.415 . S
C1175 C1174 1.355 . S
C1175 C1177 1.419 . S
C1176 C1174 1.415 . S
C1176 C1181 1.425 . S
C1176 C1183 1.409 . S
C1177 H1169 0.930 . S
C1177 C1175 1.419 . S
C1177 C1178 1.362 . S
C1178 H1170 0.930 . S
C1178 C1177 1.362 . S
C1178 C1181 1.409 . S
C1179 H1171 0.930 . S
C1179 C1180 1.355 . S
C1179 C1181 1.415 . S
C1180 C1179 1.355 . S
C1180 C1182 1.419 . S
C1181 C1176 1.425 . S
C1181 C1178 1.409 . S
C1181 C1179 1.415 . S
C1182 H1172 0.930 . S
C1182 C1180 1.419 . S
C1182 C1183 1.362 . S
C1183 H1173 0.930 . S
C1183 C1176 1.409 . S
C1183 C1182 1.362 . S
H1184 C1190 0.930 . S
H1185 C1193 0.930 . S
H1186 C1194 0.930 . S
H1187 C1195 0.930 . S
H1188 C1198 0.930 . S
H1189 C1199 0.930 . S
C1190 H1184 0.930 . S
C1190 C1191 1.355 . S
C1190 C1192 1.415 . S
C1191 C1190 1.355 . S
C1191 C1193 1.419 . S
C1192 C1190 1.415 . S
C1192 C1197 1.425 . S
C1192 C1199 1.409 . S
C1193 H1185 0.930 . S
C1193 C1191 1.419 . S
C1193 C1194 1.362 . S
C1194 H1186 0.930 . S
C1194 C1193 1.362 . S
C1194 C1197 1.409 . S
C1195 H1187 0.930 . S
C1195 C1196 1.355 . S
C1195 C1197 1.415 . S
C1196 C1195 1.355 . S
C1196 C1198 1.419 . S
C1197 C1192 1.425 . S
C1197 C1194 1.409 . S
C1197 C1195 1.415 . S
C1198 H1188 0.930 . S
C1198 C1196 1.419 . S
C1198 C1199 1.362 . S
C1199 H1189 0.930 . S
C1199 C1192 1.409 . S
C1199 C1198 1.362 . S
H1200 C1206 0.930 . S
H1201 C1209 0.930 . S
H1202 C1210 0.930 . S
H1203 C1211 0.930 . S
H1204 C1214 0.930 . S
H1205 C1215 0.930 . S
C1206 H1200 0.930 . S
C1206 C1207 1.355 . S
C1206 C1208 1.415 . S
C1207 C1206 1.355 . S
C1207 C1209 1.419 . S
C1208 C1206 1.415 . S
C1208 C1213 1.425 1_554 S
C1208 C1215 1.409 1_554 S
C1209 H1201 0.930 . S
C1209 C1207 1.419 . S
C1209 C1210 1.362 . S
C1210 H1202 0.930 . S
C1210 C1209 1.362 . S
C1210 C1213 1.409 1_554 S
C1211 H1203 0.930 . S
C1211 C1212 1.355 . S
C1211 C1213 1.415 . S
C1212 C1211 1.355 . S
C1212 C1214 1.419 . S
C1213 C1208 1.425 1_556 S
C1213 C1210 1.409 1_556 S
C1213 C1211 1.415 . S
C1214 H1204 0.930 . S
C1214 C1212 1.419 . S
C1214 C1215 1.362 . S
C1215 H1205 0.930 . S
C1215 C1208 1.409 1_556 S
C1215 C1214 1.362 . S
H1216 C1222 0.930 . S
H1217 C1225 0.930 . S
H1218 C1226 0.930 . S
H1219 C1227 0.930 . S
H1220 C1230 0.930 . S
H1221 C1231 0.930 . S
C1222 H1216 0.930 . S
C1222 C1223 1.355 . S
C1222 C1224 1.415 . S
C1223 C1222 1.355 . S
C1223 C1225 1.419 . S
C1224 C1222 1.415 . S
C1224 C1229 1.425 1_554 S
C1224 C1231 1.409 1_554 S
C1225 H1217 0.930 . S
C1225 C1223 1.419 . S
C1225 C1226 1.362 . S
C1226 H1218 0.930 . S
C1226 C1225 1.362 . S
C1226 C1229 1.409 1_554 S
C1227 H1219 0.930 . S
C1227 C1228 1.355 . S
C1227 C1229 1.415 . S
C1228 C1227 1.355 . S
C1228 C1230 1.419 . S
C1229 C1224 1.425 1_556 S
C1229 C1226 1.409 1_556 S
C1229 C1227 1.415 . S
C1230 H1220 0.930 . S
C1230 C1228 1.419 . S
C1230 C1231 1.362 . S
C1231 H1221 0.930 . S
C1231 C1224 1.409 1_556 S
C1231 C1230 1.362 . S
H1232 C1238 0.930 . S
H1233 C1241 0.930 . S
H1234 C1242 0.930 . S
H1235 C1243 0.930 . S
H1236 C1246 0.930 . S
H1237 C1247 0.930 . S
C1238 H1232 0.930 . S
C1238 C1239 1.355 . S
C1238 C1240 1.415 . S
C1239 C1238 1.355 . S
C1239 C1241 1.419 . S
C1240 C1238 1.415 . S
C1240 C1245 1.425 1_554 S
C1240 C1247 1.409 1_554 S
C1241 H1233 0.930 . S
C1241 C1239 1.419 . S
C1241 C1242 1.362 . S
C1242 H1234 0.930 . S
C1242 C1241 1.362 . S
C1242 C1245 1.409 1_554 S
C1243 H1235 0.930 . S
C1243 C1244 1.355 . S
C1243 C1245 1.415 . S
C1244 C1243 1.355 . S
C1244 C1246 1.419 . S
C1245 C1240 1.425 1_556 S
C1245 C1242 1.409 1_556 S
C1245 C1243 1.415 . S
C1246 H1236 0.930 . S
C1246 C1244 1.419 . S
C1246 C1247 1.362 . S
C1247 H1237 0.930 . S
C1247 C1240 1.409 1_556 S
C1247 C1246 1.362 . S
H1248 C1254 0.930 . S
H1249 C1257 0.930 . S
H1250 C1258 0.930 . S
H1251 C1259 0.930 . S
H1252 C1262 0.930 . S
H1253 C1263 0.930 . S
C1254 H1248 0.930 . S
C1254 C1255 1.355 . S
C1254 C1256 1.415 . S
C1255 C1254 1.355 . S
C1255 C1257 1.419 . S
C1256 C1254 1.415 . S
C1256 C1261 1.425 1_556 S
C1256 C1263 1.409 1_556 S
C1257 H1249 0.930 . S
C1257 C1255 1.419 . S
C1257 C1258 1.362 . S
C1258 H1250 0.930 . S
C1258 C1257 1.362 . S
C1258 C1261 1.409 1_556 S
C1259 H1251 0.930 . S
C1259 C1260 1.355 . S
C1259 C1261 1.415 . S
C1260 C1259 1.355 . S
C1260 C1262 1.419 . S
C1261 C1256 1.425 1_554 S
C1261 C1258 1.409 1_554 S
C1261 C1259 1.415 . S
C1262 H1252 0.930 . S
C1262 C1260 1.419 . S
C1262 C1263 1.362 . S
C1263 H1253 0.930 . S
C1263 C1256 1.409 1_554 S
C1263 C1262 1.362 . S
H1264 C1270 0.930 . S
H1265 C1273 0.930 . S
H1266 C1274 0.930 . S
H1267 C1275 0.930 . S
H1268 C1278 0.930 . S
H1269 C1279 0.930 . S
C1270 H1264 0.930 . S
C1270 C1271 1.355 . S
C1270 C1272 1.415 . S
C1271 C1270 1.355 . S
C1271 C1273 1.419 . S
C1272 C1270 1.415 . S
C1272 C1277 1.425 1_554 S
C1272 C1279 1.409 1_554 S
C1273 H1265 0.930 . S
C1273 C1271 1.419 . S
C1273 C1274 1.362 . S
C1274 H1266 0.930 . S
C1274 C1273 1.362 . S
C1274 C1277 1.409 1_554 S
C1275 H1267 0.930 . S
C1275 C1276 1.355 . S
C1275 C1277 1.415 . S
C1276 C1275 1.355 . S
C1276 C1278 1.419 . S
C1277 C1272 1.425 1_556 S
C1277 C1274 1.409 1_556 S
C1277 C1275 1.415 . S
C1278 H1268 0.930 . S
C1278 C1276 1.419 . S
C1278 C1279 1.362 . S
C1279 H1269 0.930 . S
C1279 C1272 1.409 1_556 S
C1279 C1278 1.362 . S
H1280 C1286 0.930 . S
H1281 C1289 0.930 . S
H1282 C1290 0.930 . S
H1283 C1291 0.930 . S
H1284 C1294 0.930 . S
H1285 C1295 0.930 . S
C1286 H1280 0.930 . S
C1286 C1287 1.355 . S
C1286 C1288 1.415 . S
C1287 C1286 1.355 . S
C1287 C1289 1.419 . S
C1288 C1286 1.415 . S
C1288 C1293 1.425 1_554 S
C1288 C1295 1.409 1_554 S
C1289 H1281 0.930 . S
C1289 C1287 1.419 . S
C1289 C1290 1.362 . S
C1290 H1282 0.930 . S
C1290 C1289 1.362 . S
C1290 C1293 1.409 1_554 S
C1291 H1283 0.930 . S
C1291 C1292 1.355 . S
C1291 C1293 1.415 . S
C1292 C1291 1.355 . S
C1292 C1294 1.419 . S
C1293 C1288 1.425 1_556 S
C1293 C1290 1.409 1_556 S
C1293 C1291 1.415 . S
C1294 H1284 0.930 . S
C1294 C1292 1.419 . S
C1294 C1295 1.362 . S
C1295 H1285 0.930 . S
C1295 C1288 1.409 1_556 S
C1295 C1294 1.362 . S
H1296 C1302 0.930 . S
H1297 C1305 0.930 . S
H1298 C1306 0.930 1_455 S
H1299 C1307 0.930 . S
H1300 C1310 0.930 . S
H1301 C1311 0.930 . S
C1302 H1296 0.930 . S
C1302 C1303 1.355 . S
C1302 C1304 1.415 . S
C1303 C1302 1.355 . S
C1303 C1305 1.419 . S
C1304 C1302 1.415 . S
C1304 C1309 1.425 . S
C1304 C1311 1.409 . S
C1305 H1297 0.930 . S
C1305 C1303 1.419 . S
C1305 C1306 1.362 . S
C1306 H1298 0.930 1_655 S
C1306 C1305 1.362 . S
C1306 C1309 1.409 . S
C1307 H1299 0.930 . S
C1307 C1308 1.355 . S
C1307 C1309 1.415 . S
C1308 C1307 1.355 . S
C1308 C1310 1.419 . S
C1309 C1304 1.425 . S
C1309 C1306 1.409 . S
C1309 C1307 1.415 . S
C1310 H1300 0.930 . S
C1310 C1308 1.419 . S
C1310 C1311 1.362 . S
C1311 H1301 0.930 . S
C1311 C1304 1.409 . S
C1311 C1310 1.362 . S
H1312 C1318 0.930 . S
H1313 C1321 0.930 . S
H1314 C1322 0.930 . S
H1315 C1323 0.930 . S
H1316 C1326 0.930 . S
H1317 C1327 0.930 . S
C1318 H1312 0.930 . S
C1318 C1319 1.355 . S
C1318 C1320 1.415 . S
C1319 C1318 1.355 . S
C1319 C1321 1.419 . S
C1320 C1318 1.415 . S
C1320 C1325 1.425 . S
C1320 C1327 1.409 . S
C1321 H1313 0.930 . S
C1321 C1319 1.419 . S
C1321 C1322 1.362 . S
C1322 H1314 0.930 . S
C1322 C1321 1.362 . S
C1322 C1325 1.409 . S
C1323 H1315 0.930 . S
C1323 C1324 1.355 . S
C1323 C1325 1.415 . S
C1324 C1323 1.355 . S
C1324 C1326 1.419 . S
C1325 C1320 1.425 . S
C1325 C1322 1.409 . S
C1325 C1323 1.415 . S
C1326 H1316 0.930 . S
C1326 C1324 1.419 . S
C1326 C1327 1.362 . S
C1327 H1317 0.930 . S
C1327 C1320 1.409 . S
C1327 C1326 1.362 . S
H1328 C1334 0.930 . S
H1329 C1337 0.930 . S
H1330 C1338 0.930 . S
H1331 C1339 0.930 . S
H1332 C1342 0.930 . S
H1333 C1343 0.930 . S
C1334 H1328 0.930 . S
C1334 C1335 1.355 . S
C1334 C1336 1.415 . S
C1335 C1334 1.355 . S
C1335 C1337 1.419 . S
C1336 C1334 1.415 . S
C1336 C1341 1.425 . S
C1336 C1343 1.409 . S
C1337 H1329 0.930 . S
C1337 C1335 1.419 . S
C1337 C1338 1.362 . S
C1338 H1330 0.930 . S
C1338 C1337 1.362 . S
C1338 C1341 1.409 . S
C1339 H1331 0.930 . S
C1339 C1340 1.355 . S
C1339 C1341 1.415 . S
C1340 C1339 1.355 . S
C1340 C1342 1.419 . S
C1341 C1336 1.425 . S
C1341 C1338 1.409 . S
C1341 C1339 1.415 . S
C1342 H1332 0.930 . S
C1342 C1340 1.419 . S
C1342 C1343 1.362 . S
C1343 H1333 0.930 . S
C1343 C1336 1.409 . S
C1343 C1342 1.362 . S
H1344 C1350 0.930 . S
H1345 C1353 0.930 . S
H1346 C1354 0.930 . S
H1347 C1355 0.930 . S
H1348 C1358 0.930 . S
H1349 C1359 0.930 1_655 S
C1350 H1344 0.930 . S
C1350 C1351 1.355 . S
C1350 C1352 1.415 . S
C1351 C1350 1.355 . S
C1351 C1353 1.419 . S
C1352 C1350 1.415 . S
C1352 C1357 1.425 . S
C1352 C1359 1.409 . S
C1353 H1345 0.930 . S
C1353 C1351 1.419 . S
C1353 C1354 1.362 . S
C1354 H1346 0.930 . S
C1354 C1353 1.362 . S
C1354 C1357 1.409 . S
C1355 H1347 0.930 . S
C1355 C1356 1.355 . S
C1355 C1357 1.415 . S
C1356 C1355 1.355 . S
C1356 C1358 1.419 . S
C1357 C1352 1.425 . S
C1357 C1354 1.409 . S
C1357 C1355 1.415 . S
C1358 H1348 0.930 . S
C1358 C1356 1.419 . S
C1358 C1359 1.362 . S
C1359 H1349 0.930 1_455 S
C1359 C1352 1.409 . S
C1359 C1358 1.362 . S
H1360 C1366 0.930 . S
H1361 C1369 0.930 . S
H1362 C1370 0.930 . S
H1363 C1371 0.930 . S
H1364 C1374 0.930 . S
H1365 C1375 0.930 1_565 S
C1366 H1360 0.930 . S
C1366 C1367 1.355 . S
C1366 C1368 1.415 . S
C1367 C1366 1.355 . S
C1367 C1369 1.419 . S
C1368 C1366 1.415 . S
C1368 C1373 1.425 . S
C1368 C1375 1.409 . S
C1369 H1361 0.930 . S
C1369 C1367 1.419 . S
C1369 C1370 1.362 . S
C1370 H1362 0.930 . S
C1370 C1369 1.362 . S
C1370 C1373 1.409 . S
C1371 H1363 0.930 . S
C1371 C1372 1.355 . S
C1371 C1373 1.415 . S
C1372 C1371 1.355 . S
C1372 C1374 1.419 . S
C1373 C1368 1.425 . S
C1373 C1370 1.409 . S
C1373 C1371 1.415 . S
C1374 H1364 0.930 . S
C1374 C1372 1.419 . S
C1374 C1375 1.362 . S
C1375 H1365 0.930 1_545 S
C1375 C1368 1.409 . S
C1375 C1374 1.362 . S
H1376 C1382 0.930 . S
H1377 C1385 0.930 . S
H1378 C1386 0.930 . S
H1379 C1387 0.930 . S
H1380 C1390 0.930 . S
H1381 C1391 0.930 . S
C1382 H1376 0.930 . S
C1382 C1383 1.355 . S
C1382 C1384 1.415 . S
C1383 C1382 1.355 . S
C1383 C1385 1.419 . S
C1384 C1382 1.415 . S
C1384 C1389 1.425 . S
C1384 C1391 1.409 . S
C1385 H1377 0.930 . S
C1385 C1383 1.419 . S
C1385 C1386 1.362 . S
C1386 H1378 0.930 . S
C1386 C1385 1.362 . S
C1386 C1389 1.409 . S
C1387 H1379 0.930 . S
C1387 C1388 1.355 . S
C1387 C1389 1.415 . S
C1388 C1387 1.355 . S
C1388 C1390 1.419 . S
C1389 C1384 1.425 . S
C1389 C1386 1.409 . S
C1389 C1387 1.415 . S
C1390 H1380 0.930 . S
C1390 C1388 1.419 . S
C1390 C1391 1.362 . S
C1391 H1381 0.930 . S
C1391 C1384 1.409 . S
C1391 C1390 1.362 . S
H1392 C1398 0.930 . S
H1393 C1401 0.930 . S
H1394 C1402 0.930 . S
H1395 C1403 0.930 . S
H1396 C1406 0.930 . S
H1397 C1407 0.930 . S
C1398 H1392 0.930 . S
C1398 C1399 1.355 . S
C1398 C1400 1.415 . S
C1399 C1398 1.355 . S
C1399 C1401 1.419 . S
C1400 C1398 1.415 . S
C1400 C1405 1.425 . S
C1400 C1407 1.409 . S
C1401 H1393 0.930 . S
C1401 C1399 1.419 . S
C1401 C1402 1.362 . S
C1402 H1394 0.930 . S
C1402 C1401 1.362 . S
C1402 C1405 1.409 . S
C1403 H1395 0.930 . S
C1403 C1404 1.355 . S
C1403 C1405 1.415 . S
C1404 C1403 1.355 . S
C1404 C1406 1.419 . S
C1405 C1400 1.425 . S
C1405 C1402 1.409 . S
C1405 C1403 1.415 . S
C1406 H1396 0.930 . S
C1406 C1404 1.419 . S
C1406 C1407 1.362 . S
C1407 H1397 0.930 . S
C1407 C1400 1.409 . S
C1407 C1406 1.362 . S
H1408 C1414 0.930 . S
H1409 C1417 0.930 . S
H1410 C1418 0.930 . S
H1411 C1419 0.930 . S
H1412 C1422 0.930 . S
H1413 C1423 0.930 . S
C1414 H1408 0.930 . S
C1414 C1415 1.355 . S
C1414 C1416 1.415 . S
C1415 C1414 1.355 . S
C1415 C1417 1.419 . S
C1416 C1414 1.415 . S
C1416 C1421 1.425 . S
C1416 C1423 1.409 . S
C1417 H1409 0.930 . S
C1417 C1415 1.419 . S
C1417 C1418 1.362 . S
C1418 H1410 0.930 . S
C1418 C1417 1.362 . S
C1418 C1421 1.409 . S
C1419 H1411 0.930 . S
C1419 C1420 1.355 . S
C1419 C1421 1.415 . S
C1420 C1419 1.355 . S
C1420 C1422 1.419 . S
C1421 C1416 1.425 . S
C1421 C1418 1.409 . S
C1421 C1419 1.415 . S
C1422 H1412 0.930 . S
C1422 C1420 1.419 . S
C1422 C1423 1.362 . S
C1423 H1413 0.930 . S
C1423 C1416 1.409 . S
C1423 C1422 1.362 . S
H1424 C1430 0.930 . S
H1425 C1433 0.930 . S
H1426 C1434 0.930 . S
H1427 C1435 0.930 . S
H1428 C1438 0.930 . S
H1429 C1439 0.930 . S
C1430 H1424 0.930 . S
C1430 C1431 1.355 . S
C1430 C1432 1.415 . S
C1431 C1430 1.355 . S
C1431 C1433 1.419 . S
C1432 C1430 1.415 . S
C1432 C1437 1.425 . S
C1432 C1439 1.409 . S
C1433 H1425 0.930 . S
C1433 C1431 1.419 . S
C1433 C1434 1.362 . S
C1434 H1426 0.930 . S
C1434 C1433 1.362 . S
C1434 C1437 1.409 . S
C1435 H1427 0.930 . S
C1435 C1436 1.355 . S
C1435 C1437 1.415 . S
C1436 C1435 1.355 . S
C1436 C1438 1.419 . S
C1437 C1432 1.425 . S
C1437 C1434 1.409 . S
C1437 C1435 1.415 . S
C1438 H1428 0.930 . S
C1438 C1436 1.419 . S
C1438 C1439 1.362 . S
C1439 H1429 0.930 . S
C1439 C1432 1.409 . S
C1439 C1438 1.362 . S
H1440 C1446 0.930 . S
H1441 C1449 0.930 . S
H1442 C1450 0.930 . S
H1443 C1451 0.930 . S
H1444 C1454 0.930 . S
H1445 C1455 0.930 . S
C1446 H1440 0.930 . S
C1446 C1447 1.355 . S
C1446 C1448 1.415 . S
C1447 C1446 1.355 . S
C1447 C1449 1.419 . S
C1448 C1446 1.415 . S
C1448 C1453 1.425 . S
C1448 C1455 1.409 . S
C1449 H1441 0.930 . S
C1449 C1447 1.419 . S
C1449 C1450 1.362 . S
C1450 H1442 0.930 . S
C1450 C1449 1.362 . S
C1450 C1453 1.409 . S
C1451 H1443 0.930 . S
C1451 C1452 1.355 . S
C1451 C1453 1.415 . S
C1452 C1451 1.355 . S
C1452 C1454 1.419 . S
C1453 C1448 1.425 . S
C1453 C1450 1.409 . S
C1453 C1451 1.415 . S
C1454 H1444 0.930 . S
C1454 C1452 1.419 . S
C1454 C1455 1.362 . S
C1455 H1445 0.930 . S
C1455 C1448 1.409 . S
C1455 C1454 1.362 . S
H1456 C1462 0.930 . S
H1457 C1465 0.930 . S
H1458 C1466 0.930 . S
H1459 C1467 0.930 . S
H1460 C1470 0.930 . S
H1461 C1471 0.930 . S
C1462 H1456 0.930 . S
C1462 C1463 1.355 . S
C1462 C1464 1.415 . S
C1463 C1462 1.355 . S
C1463 C1465 1.419 . S
C1464 C1462 1.415 . S
C1464 C1469 1.425 . S
C1464 C1471 1.409 . S
C1465 H1457 0.930 . S
C1465 C1463 1.419 . S
C1465 C1466 1.362 . S
C1466 H1458 0.930 . S
C1466 C1465 1.362 . S
C1466 C1469 1.409 . S
C1467 H1459 0.930 . S
C1467 C1468 1.355 . S
C1467 C1469 1.415 . S
C1468 C1467 1.355 . S
C1468 C1470 1.419 . S
C1469 C1464 1.425 . S
C1469 C1466 1.409 . S
C1469 C1467 1.415 . S
C1470 H1460 0.930 . S
C1470 C1468 1.419 . S
C1470 C1471 1.362 . S
C1471 H1461 0.930 . S
C1471 C1464 1.409 . S
C1471 C1470 1.362 . S
H1472 C1478 0.930 . S
H1473 C1481 0.930 . S
H1474 C1482 0.930 . S
H1475 C1483 0.930 . S
H1476 C1486 0.930 . S
H1477 C1487 0.930 . S
C1478 H1472 0.930 . S
C1478 C1479 1.355 . S
C1478 C1480 1.415 . S
C1479 C1478 1.355 . S
C1479 C1481 1.419 . S
C1480 C1478 1.415 . S
C1480 C1485 1.425 . S
C1480 C1487 1.409 . S
C1481 H1473 0.930 . S
C1481 C1479 1.419 . S
C1481 C1482 1.362 . S
C1482 H1474 0.930 . S
C1482 C1481 1.362 . S
C1482 C1485 1.409 . S
C1483 H1475 0.930 . S
C1483 C1484 1.355 . S
C1483 C1485 1.415 . S
C1484 C1483 1.355 . S
C1484 C1486 1.419 . S
C1485 C1480 1.425 . S
C1485 C1482 1.409 . S
C1485 C1483 1.415 . S
C1486 H1476 0.930 . S
C1486 C1484 1.419 . S
C1486 C1487 1.362 . S
C1487 H1477 0.930 . S
C1487 C1480 1.409 . S
C1487 C1486 1.362 . S
H1488 C1494 0.930 . S
H1489 C1497 0.930 . S
H1490 C1498 0.930 . S
H1491 C1499 0.930 . S
H1492 C1502 0.930 . S
H1493 C1503 0.930 . S
C1494 H1488 0.930 . S
C1494 C1495 1.355 . S
C1494 C1496 1.415 . S
C1495 C1494 1.355 . S
C1495 C1497 1.419 . S
C1496 C1494 1.415 . S
C1496 C1501 1.425 . S
C1496 C1503 1.409 . S
C1497 H1489 0.930 . S
C1497 C1495 1.419 . S
C1497 C1498 1.362 . S
C1498 H1490 0.930 . S
C1498 C1497 1.362 . S
C1498 C1501 1.409 . S
C1499 H1491 0.930 . S
C1499 C1500 1.355 . S
C1499 C1501 1.415 . S
C1500 C1499 1.355 . S
C1500 C1502 1.419 . S
C1501 C1496 1.425 . S
C1501 C1498 1.409 . S
C1501 C1499 1.415 . S
C1502 H1492 0.930 . S
C1502 C1500 1.419 . S
C1502 C1503 1.362 . S
C1503 H1493 0.930 . S
C1503 C1496 1.409 . S
C1503 C1502 1.362 . S
H1504 C1510 0.930 . S
H1505 C1513 0.930 . S
H1506 C1514 0.930 . S
H1507 C1515 0.930 . S
H1508 C1518 0.930 . S
H1509 C1519 0.930 . S
C1510 H1504 0.930 . S
C1510 C1511 1.355 . S
C1510 C1512 1.415 . S
C1511 C1510 1.355 . S
C1511 C1513 1.419 . S
C1512 C1510 1.415 . S
C1512 C1517 1.425 . S
C1512 C1519 1.409 . S
C1513 H1505 0.930 . S
C1513 C1511 1.419 . S
C1513 C1514 1.362 . S
C1514 H1506 0.930 . S
C1514 C1513 1.362 . S
C1514 C1517 1.409 . S
C1515 H1507 0.930 . S
C1515 C1516 1.355 . S
C1515 C1517 1.415 . S
C1516 C1515 1.355 . S
C1516 C1518 1.419 . S
C1517 C1512 1.425 . S
C1517 C1514 1.409 . S
C1517 C1515 1.415 . S
C1518 H1508 0.930 . S
C1518 C1516 1.419 . S
C1518 C1519 1.362 . S
C1519 H1509 0.930 . S
C1519 C1512 1.409 . S
C1519 C1518 1.362 . S
H1520 C1526 0.930 . S
H1521 C1529 0.930 . S
H1522 C1530 0.930 . S
H1523 C1531 0.930 . S
H1524 C1534 0.930 . S
H1525 C1535 0.930 . S
C1526 H1520 0.930 . S
C1526 C1527 1.355 . S
C1526 C1528 1.415 . S
C1527 C1526 1.355 . S
C1527 C1529 1.419 . S
C1528 C1526 1.415 . S
C1528 C1533 1.425 . S
C1528 C1535 1.409 . S
C1529 H1521 0.930 . S
C1529 C1527 1.419 . S
C1529 C1530 1.362 . S
C1530 H1522 0.930 . S
C1530 C1529 1.362 . S
C1530 C1533 1.409 . S
C1531 H1523 0.930 . S
C1531 C1532 1.355 . S
C1531 C1533 1.415 . S
C1532 C1531 1.355 . S
C1532 C1534 1.419 . S
C1533 C1528 1.425 . S
C1533 C1530 1.409 . S
C1533 C1531 1.415 . S
C1534 H1524 0.930 . S
C1534 C1532 1.419 . S
C1534 C1535 1.362 . S
C1535 H1525 0.930 . S
C1535 C1528 1.409 . S
C1535 C1534 1.362 . S
H1536 C1542 0.930 . S
H1537 C1545 0.930 . S
H1538 C1546 0.930 . S
H1539 C1547 0.930 . S
H1540 C1550 0.930 . S
H1541 C1551 0.930 . S
C1542 H1536 0.930 . S
C1542 C1543 1.355 . S
C1542 C1544 1.415 . S
C1543 C1542 1.355 . S
C1543 C1545 1.419 . S
C1544 C1542 1.415 . S
C1544 C1549 1.425 . S
C1544 C1551 1.409 . S
C1545 H1537 0.930 . S
C1545 C1543 1.419 . S
C1545 C1546 1.362 . S
C1546 H1538 0.930 . S
C1546 C1545 1.362 . S
C1546 C1549 1.409 . S
C1547 H1539 0.930 . S
C1547 C1548 1.355 . S
C1547 C1549 1.415 . S
C1548 C1547 1.355 . S
C1548 C1550 1.419 . S
C1549 C1544 1.425 . S
C1549 C1546 1.409 . S
C1549 C1547 1.415 . S
C1550 H1540 0.930 . S
C1550 C1548 1.419 . S
C1550 C1551 1.362 . S
C1551 H1541 0.930 . S
C1551 C1544 1.409 . S
C1551 C1550 1.362 . S
H1552 C1558 0.930 . S
H1553 C1561 0.930 . S
H1554 C1562 0.930 . S
H1555 C1563 0.930 . S
H1556 C1566 0.930 . S
H1557 C1567 0.930 . S
C1558 H1552 0.930 . S
C1558 C1559 1.355 . S
C1558 C1560 1.415 . S
C1559 C1558 1.355 . S
C1559 C1561 1.419 . S
C1560 C1558 1.415 . S
C1560 C1565 1.425 . S
C1560 C1567 1.409 . S
C1561 H1553 0.930 . S
C1561 C1559 1.419 . S
C1561 C1562 1.362 . S
C1562 H1554 0.930 . S
C1562 C1561 1.362 . S
C1562 C1565 1.409 . S
C1563 H1555 0.930 . S
C1563 C1564 1.355 . S
C1563 C1565 1.415 . S
C1564 C1563 1.355 . S
C1564 C1566 1.419 . S
C1565 C1560 1.425 . S
C1565 C1562 1.409 . S
C1565 C1563 1.415 . S
C1566 H1556 0.930 . S
C1566 C1564 1.419 . S
C1566 C1567 1.362 . S
C1567 H1557 0.930 . S
C1567 C1560 1.409 . S
C1567 C1566 1.362 . S
H1568 C1574 0.930 . S
H1569 C1577 0.930 . S
H1570 C1578 0.930 . S
H1571 C1579 0.930 . S
H1572 C1582 0.930 . S
H1573 C1583 0.930 . S
C1574 H1568 0.930 . S
C1574 C1575 1.355 . S
C1574 C1576 1.415 . S
C1575 C1574 1.355 . S
C1575 C1577 1.419 . S
C1576 C1574 1.415 . S
C1576 C1581 1.425 . S
C1576 C1583 1.409 . S
C1577 H1569 0.930 . S
C1577 C1575 1.419 . S
C1577 C1578 1.362 . S
C1578 H1570 0.930 . S
C1578 C1577 1.362 . S
C1578 C1581 1.409 . S
C1579 H1571 0.930 . S
C1579 C1580 1.355 . S
C1579 C1581 1.415 . S
C1580 C1579 1.355 . S
C1580 C1582 1.419 . S
C1581 C1576 1.425 . S
C1581 C1578 1.409 . S
C1581 C1579 1.415 . S
C1582 H1572 0.930 . S
C1582 C1580 1.419 . S
C1582 C1583 1.362 . S
C1583 H1573 0.930 . S
C1583 C1576 1.409 . S
C1583 C1582 1.362 . S
H1584 C1590 0.930 . S
H1585 C1593 0.938 1_565 S
H1586 C1594 0.930 . S
H1587 C1595 0.930 . S
H1588 C1598 0.938 1_545 S
H1589 C1599 0.930 . S
C1590 H1584 0.930 . S
C1590 C1591 1.355 . S
C1590 C1592 1.415 . S
C1591 C1590 1.355 . S
C1591 C1593 1.440 . S
C1592 C1590 1.415 . S
C1592 C1597 1.425 1_545 S
C1592 C1599 1.409 . S
C1593 H1585 0.938 1_545 S
C1593 C1591 1.440 . S
C1593 C1594 1.334 1_545 S
C1594 H1586 0.930 . S
C1594 C1593 1.334 1_565 S
C1594 C1597 1.409 . S
C1595 H1587 0.930 . S
C1595 C1596 1.355 . S
C1595 C1597 1.415 . S
C1596 C1595 1.355 . S
C1596 C1598 1.440 . S
C1597 C1592 1.425 1_565 S
C1597 C1594 1.409 . S
C1597 C1595 1.415 . S
C1598 H1588 0.938 1_565 S
C1598 C1596 1.440 . S
C1598 C1599 1.334 1_565 S
C1599 H1589 0.930 . S
C1599 C1592 1.409 . S
C1599 C1598 1.334 1_545 S
H1600 C1606 0.930 . S
H1601 C1609 0.930 . S
H1602 C1610 0.930 . S
H1603 C1611 0.930 . S
H1604 C1614 0.930 . S
H1605 C1615 0.930 . S
C1606 H1600 0.930 . S
C1606 C1607 1.355 . S
C1606 C1608 1.415 . S
C1607 C1606 1.355 . S
C1607 C1609 1.419 . S
C1608 C1606 1.415 . S
C1608 C1613 1.425 . S
C1608 C1615 1.409 . S
C1609 H1601 0.930 . S
C1609 C1607 1.419 . S
C1609 C1610 1.362 . S
C1610 H1602 0.930 . S
C1610 C1609 1.362 . S
C1610 C1613 1.409 . S
C1611 H1603 0.930 . S
C1611 C1612 1.355 . S
C1611 C1613 1.415 . S
C1612 C1611 1.355 . S
C1612 C1614 1.419 . S
C1613 C1608 1.425 . S
C1613 C1610 1.409 . S
C1613 C1611 1.415 . S
C1614 H1604 0.930 . S
C1614 C1612 1.419 . S
C1614 C1615 1.362 . S
C1615 H1605 0.930 . S
C1615 C1608 1.409 . S
C1615 C1614 1.362 . S
H1616 C1622 0.930 . S
H1617 C1625 0.930 . S
H1618 C1626 0.930 . S
H1619 C1627 0.930 . S
H1620 C1630 0.930 . S
H1621 C1631 0.930 . S
C1622 H1616 0.930 . S
C1622 C1623 1.355 . S
C1622 C1624 1.415 . S
C1623 C1622 1.355 . S
C1623 C1625 1.419 1_655 S
C1624 C1622 1.415 . S
C1624 C1629 1.425 1_655 S
C1624 C1631 1.409 . S
C1625 H1617 0.930 . S
C1625 C1623 1.419 1_455 S
C1625 C1626 1.362 . S
C1626 H1618 0.930 . S
C1626 C1625 1.362 . S
C1626 C1629 1.409 . S
C1627 H1619 0.930 . S
C1627 C1628 1.355 . S
C1627 C1629 1.415 . S
C1628 C1627 1.355 . S
C1628 C1630 1.419 1_455 S
C1629 C1624 1.425 1_455 S
C1629 C1626 1.409 . S
C1629 C1627 1.415 . S
C1630 H1620 0.930 . S
C1630 C1628 1.419 1_655 S
C1630 C1631 1.362 . S
C1631 H1621 0.930 . S
C1631 C1624 1.409 . S
C1631 C1630 1.362 . S
H1632 C1638 0.930 1_655 S
H1633 C1641 0.930 . S
H1634 C1642 0.930 . S
H1635 C1643 0.930 1_455 S
H1636 C1646 0.930 . S
H1637 C1647 0.930 . S
C1638 H1632 0.930 1_455 S
C1638 C1639 1.355 . S
C1638 C1640 1.415 1_455 S
C1639 C1638 1.355 . S
C1639 C1641 1.419 . S
C1640 C1638 1.415 1_655 S
C1640 C1645 1.425 1_655 S
C1640 C1647 1.409 . S
C1641 H1633 0.930 . S
C1641 C1639 1.419 . S
C1641 C1642 1.362 . S
C1642 H1634 0.930 . S
C1642 C1641 1.362 . S
C1642 C1645 1.409 . S
C1643 H1635 0.930 1_655 S
C1643 C1644 1.355 . S
C1643 C1645 1.415 1_655 S
C1644 C1643 1.355 . S
C1644 C1646 1.419 . S
C1645 C1640 1.425 1_455 S
C1645 C1642 1.409 . S
C1645 C1643 1.415 1_455 S
C1646 H1636 0.930 . S
C1646 C1644 1.419 . S
C1646 C1647 1.362 . S
C1647 H1637 0.930 . S
C1647 C1640 1.409 . S
C1647 C1646 1.362 . S
H1648 C1654 0.930 . S
H1649 C1657 0.930 . S
H1650 C1658 0.930 . S
H1651 C1659 0.930 . S
H1652 C1662 0.930 . S
H1653 C1663 0.930 . S
C1654 H1648 0.930 . S
C1654 C1655 1.355 . S
C1654 C1656 1.415 . S
C1655 C1654 1.355 . S
C1655 C1657 1.419 1_545 S
C1656 C1654 1.415 . S
C1656 C1661 1.425 1_545 S
C1656 C1663 1.409 . S
C1657 H1649 0.930 . S
C1657 C1655 1.419 1_565 S
C1657 C1658 1.362 . S
C1658 H1650 0.930 . S
C1658 C1657 1.362 . S
C1658 C1661 1.409 . S
C1659 H1651 0.930 . S
C1659 C1660 1.355 . S
C1659 C1661 1.415 . S
C1660 C1659 1.355 . S
C1660 C1662 1.419 1_565 S
C1661 C1656 1.425 1_565 S
C1661 C1658 1.409 . S
C1661 C1659 1.415 . S
C1662 H1652 0.930 . S
C1662 C1660 1.419 1_545 S
C1662 C1663 1.362 . S
C1663 H1653 0.930 . S
C1663 C1656 1.409 . S
C1663 C1662 1.362 . S
H1664 C1670 0.930 . S
H1665 C1673 0.930 . S
H1666 C1674 0.930 . S
H1667 C1675 0.930 . S
H1668 C1678 0.930 . S
H1669 C1679 0.930 . S
C1670 H1664 0.930 . S
C1670 C1671 1.355 . S
C1670 C1672 1.415 . S
C1671 C1670 1.355 . S
C1671 C1673 1.419 . S
C1672 C1670 1.415 . S
C1672 C1677 1.425 . S
C1672 C1679 1.409 . S
C1673 H1665 0.930 . S
C1673 C1671 1.419 . S
C1673 C1674 1.362 . S
C1674 H1666 0.930 . S
C1674 C1673 1.362 . S
C1674 C1677 1.409 . S
C1675 H1667 0.930 . S
C1675 C1676 1.355 . S
C1675 C1677 1.415 . S
C1676 C1675 1.355 . S
C1676 C1678 1.419 . S
C1677 C1672 1.425 . S
C1677 C1674 1.409 . S
C1677 C1675 1.415 . S
C1678 H1668 0.930 . S
C1678 C1676 1.419 . S
C1678 C1679 1.362 . S
C1679 H1669 0.930 . S
C1679 C1672 1.409 . S
C1679 C1678 1.362 . S
H1680 C1686 0.930 1_565 S
H1681 C1689 0.930 . S
H1682 C1690 0.930 . S
H1683 C1691 0.930 1_545 S
H1684 C1694 0.930 . S
H1685 C1695 0.930 . S
C1686 H1680 0.930 1_545 S
C1686 C1687 1.355 . S
C1686 C1688 1.415 1_545 S
C1687 C1686 1.355 . S
C1687 C1689 1.419 . S
C1688 C1686 1.415 1_565 S
C1688 C1693 1.425 1_565 S
C1688 C1695 1.409 . S
C1689 H1681 0.930 . S
C1689 C1687 1.419 . S
C1689 C1690 1.362 . S
C1690 H1682 0.930 . S
C1690 C1689 1.362 . S
C1690 C1693 1.409 . S
C1691 H1683 0.930 1_565 S
C1691 C1692 1.355 . S
C1691 C1693 1.415 1_565 S
C1692 C1691 1.355 . S
C1692 C1694 1.419 . S
C1693 C1688 1.425 1_545 S
C1693 C1690 1.409 . S
C1693 C1691 1.415 1_545 S
C1694 H1684 0.930 . S
C1694 C1692 1.419 . S
C1694 C1695 1.362 . S
C1695 H1685 0.930 . S
C1695 C1688 1.409 . S
C1695 C1694 1.362 . S
H1696 C1702 0.930 . S
H1697 C1705 0.930 . S
H1698 C1706 0.930 . S
H1699 C1707 0.930 . S
H1700 C1710 0.930 . S
H1701 C1711 0.930 . S
C1702 H1696 0.930 . S
C1702 C1703 1.355 . S
C1702 C1704 1.415 . S
C1703 C1702 1.355 . S
C1703 C1705 1.419 . S
C1704 C1702 1.415 . S
C1704 C1709 1.425 . S
C1704 C1711 1.409 . S
C1705 H1697 0.930 . S
C1705 C1703 1.419 . S
C1705 C1706 1.362 . S
C1706 H1698 0.930 . S
C1706 C1705 1.362 . S
C1706 C1709 1.409 . S
C1707 H1699 0.930 . S
C1707 C1708 1.355 . S
C1707 C1709 1.415 . S
C1708 C1707 1.355 . S
C1708 C1710 1.419 . S
C1709 C1704 1.425 . S
C1709 C1706 1.409 . S
C1709 C1707 1.415 . S
C1710 H1700 0.930 . S
C1710 C1708 1.419 . S
C1710 C1711 1.362 . S
C1711 H1701 0.930 . S
C1711 C1704 1.409 . S
C1711 C1710 1.362 . S
H1712 C1718 0.930 . S
H1713 C1721 0.930 . S
H1714 C1722 0.930 . S
H1715 C1723 0.930 . S
H1716 C1726 0.930 . S
H1717 C1727 0.930 . S
C1718 H1712 0.930 . S
C1718 C1719 1.355 . S
C1718 C1720 1.415 . S
C1719 C1718 1.355 . S
C1719 C1721 1.419 1_455 S
C1720 C1718 1.415 . S
C1720 C1725 1.425 1_455 S
C1720 C1727 1.409 . S
C1721 H1713 0.930 . S
C1721 C1719 1.419 1_655 S
C1721 C1722 1.362 . S
C1722 H1714 0.930 . S
C1722 C1721 1.362 . S
C1722 C1725 1.409 . S
C1723 H1715 0.930 . S
C1723 C1724 1.355 . S
C1723 C1725 1.415 . S
C1724 C1723 1.355 . S
C1724 C1726 1.419 1_655 S
C1725 C1720 1.425 1_655 S
C1725 C1722 1.409 . S
C1725 C1723 1.415 . S
C1726 H1716 0.930 . S
C1726 C1724 1.419 1_455 S
C1726 C1727 1.362 . S
C1727 H1717 0.930 . S
C1727 C1720 1.409 . S
C1727 C1726 1.362 . S
H1728 C1734 0.930 1_455 S
H1729 C1737 0.930 . S
H1730 C1738 0.930 . S
H1731 C1739 0.930 1_655 S
H1732 C1742 0.930 . S
H1733 C1743 0.930 . S
C1734 H1728 0.930 1_655 S
C1734 C1735 1.355 . S
C1734 C1736 1.415 1_655 S
C1735 C1734 1.355 . S
C1735 C1737 1.419 . S
C1736 C1734 1.415 1_455 S
C1736 C1741 1.425 1_455 S
C1736 C1743 1.409 . S
C1737 H1729 0.930 . S
C1737 C1735 1.419 . S
C1737 C1738 1.362 . S
C1738 H1730 0.930 . S
C1738 C1737 1.362 . S
C1738 C1741 1.409 . S
C1739 H1731 0.930 1_455 S
C1739 C1740 1.355 . S
C1739 C1741 1.415 1_455 S
C1740 C1739 1.355 . S
C1740 C1742 1.419 . S
C1741 C1736 1.425 1_655 S
C1741 C1738 1.409 . S
C1741 C1739 1.415 1_655 S
C1742 H1732 0.930 . S
C1742 C1740 1.419 . S
C1742 C1743 1.362 . S
C1743 H1733 0.930 . S
C1743 C1736 1.409 . S
C1743 C1742 1.362 . S
H1744 C1750 0.930 1_565 S
H1745 C1753 0.930 . S
H1746 C1754 0.930 . S
H1747 C1755 0.930 1_545 S
H1748 C1758 0.930 . S
H1749 C1759 0.930 . S
C1750 H1744 0.930 1_545 S
C1750 C1751 1.355 . S
C1750 C1752 1.415 1_545 S
C1751 C1750 1.355 . S
C1751 C1753 1.419 . S
C1752 C1750 1.415 1_565 S
C1752 C1757 1.425 1_565 S
C1752 C1759 1.409 . S
C1753 H1745 0.930 . S
C1753 C1751 1.419 . S
C1753 C1754 1.362 . S
C1754 H1746 0.930 . S
C1754 C1753 1.362 . S
C1754 C1757 1.409 . S
C1755 H1747 0.930 1_565 S
C1755 C1756 1.355 . S
C1755 C1757 1.415 1_565 S
C1756 C1755 1.355 . S
C1756 C1758 1.419 . S
C1757 C1752 1.425 1_545 S
C1757 C1754 1.409 . S
C1757 C1755 1.415 1_545 S
C1758 H1748 0.930 . S
C1758 C1756 1.419 . S
C1758 C1759 1.362 . S
C1759 H1749 0.930 . S
C1759 C1752 1.409 . S
C1759 C1758 1.362 . S
H1760 C1766 0.930 . S
H1761 C1769 0.930 . S
H1762 C1770 0.930 . S
H1763 C1771 0.930 . S
H1764 C1774 0.930 . S
H1765 C1775 0.930 . S
C1766 H1760 0.930 . S
C1766 C1767 1.355 . S
C1766 C1768 1.415 . S
C1767 C1766 1.355 . S
C1767 C1769 1.419 . S
C1768 C1766 1.415 . S
C1768 C1773 1.425 . S
C1768 C1775 1.409 . S
C1769 H1761 0.930 . S
C1769 C1767 1.419 . S
C1769 C1770 1.362 . S
C1770 H1762 0.930 . S
C1770 C1769 1.362 . S
C1770 C1773 1.409 . S
C1771 H1763 0.930 . S
C1771 C1772 1.355 . S
C1771 C1773 1.415 . S
C1772 C1771 1.355 . S
C1772 C1774 1.419 . S
C1773 C1768 1.425 . S
C1773 C1770 1.409 . S
C1773 C1771 1.415 . S
C1774 H1764 0.930 . S
C1774 C1772 1.419 . S
C1774 C1775 1.362 . S
C1775 H1765 0.930 . S
C1775 C1768 1.409 . S
C1775 C1774 1.362 . S
H1776 C1782 0.930 . S
H1777 C1785 0.930 . S
H1778 C1786 0.930 . S
H1779 C1787 0.930 . S
H1780 C1790 0.930 . S
H1781 C1791 0.930 . S
C1782 H1776 0.930 . S
C1782 C1783 1.355 . S
C1782 C1784 1.415 . S
C1783 C1782 1.355 . S
C1783 C1785 1.419 . S
C1784 C1782 1.415 . S
C1784 C1789 1.425 . S
C1784 C1791 1.409 . S
C1785 H1777 0.930 . S
C1785 C1783 1.419 . S
C1785 C1786 1.362 . S
C1786 H1778 0.930 . S
C1786 C1785 1.362 . S
C1786 C1789 1.409 . S
C1787 H1779 0.930 . S
C1787 C1788 1.355 . S
C1787 C1789 1.415 . S
C1788 C1787 1.355 . S
C1788 C1790 1.419 . S
C1789 C1784 1.425 . S
C1789 C1786 1.409 . S
C1789 C1787 1.415 . S
C1790 H1780 0.930 . S
C1790 C1788 1.419 . S
C1790 C1791 1.362 . S
C1791 H1781 0.930 . S
C1791 C1784 1.409 . S
C1791 C1790 1.362 . S
H1792 C1798 0.930 . S
H1793 C1801 0.930 . S
H1794 C1802 0.930 . S
H1795 C1803 0.930 . S
H1796 C1806 0.930 . S
H1797 C1807 0.930 . S
C1798 H1792 0.930 . S
C1798 C1799 1.355 . S
C1798 C1800 1.415 . S
C1799 C1798 1.355 . S
C1799 C1801 1.419 . S
C1800 C1798 1.415 . S
C1800 C1805 1.425 . S
C1800 C1807 1.409 . S
C1801 H1793 0.930 . S
C1801 C1799 1.419 . S
C1801 C1802 1.362 . S
C1802 H1794 0.930 . S
C1802 C1801 1.362 . S
C1802 C1805 1.409 . S
C1803 H1795 0.930 . S
C1803 C1804 1.355 . S
C1803 C1805 1.415 . S
C1804 C1803 1.355 . S
C1804 C1806 1.419 . S
C1805 C1800 1.425 . S
C1805 C1802 1.409 . S
C1805 C1803 1.415 . S
C1806 H1796 0.930 . S
C1806 C1804 1.419 . S
C1806 C1807 1.362 . S
C1807 H1797 0.930 . S
C1807 C1800 1.409 . S
C1807 C1806 1.362 . S
H1808 C1814 0.930 . S
H1809 C1817 0.930 . S
H1810 C1818 0.930 . S
H1811 C1819 0.930 . S
H1812 C1822 0.930 . S
H1813 C1823 0.930 . S
C1814 H1808 0.930 . S
C1814 C1815 1.355 . S
C1814 C1816 1.415 . S
C1815 C1814 1.355 . S
C1815 C1817 1.419 . S
C1816 C1814 1.415 . S
C1816 C1821 1.425 . S
C1816 C1823 1.409 . S
C1817 H1809 0.930 . S
C1817 C1815 1.419 . S
C1817 C1818 1.362 . S
C1818 H1810 0.930 . S
C1818 C1817 1.362 . S
C1818 C1821 1.409 . S
C1819 H1811 0.930 . S
C1819 C1820 1.355 . S
C1819 C1821 1.415 . S
C1820 C1819 1.355 . S
C1820 C1822 1.419 . S
C1821 C1816 1.425 . S
C1821 C1818 1.409 . S
C1821 C1819 1.415 . S
C1822 H1812 0.930 . S
C1822 C1820 1.419 . S
C1822 C1823 1.362 . S
C1823 H1813 0.930 . S
C1823 C1816 1.409 . S
C1823 C1822 1.362 . S
H1824 C1830 0.930 . S
H1825 C1833 0.930 . S
H1826 C1834 0.930 . S
H1827 C1835 0.930 . S
H1828 C1838 0.930 . S
H1829 C1839 0.930 . S
C1830 H1824 0.930 . S
C1830 C1831 1.355 . S
C1830 C1832 1.415 . S
C1831 C1830 1.355 . S
C1831 C1833 1.419 . S
C1832 C1830 1.415 . S
C1832 C1837 1.425 . S
C1832 C1839 1.409 . S
C1833 H1825 0.930 . S
C1833 C1831 1.419 . S
C1833 C1834 1.362 . S
C1834 H1826 0.930 . S
C1834 C1833 1.362 . S
C1834 C1837 1.409 . S
C1835 H1827 0.930 . S
C1835 C1836 1.355 . S
C1835 C1837 1.415 . S
C1836 C1835 1.355 . S
C1836 C1838 1.419 . S
C1837 C1832 1.425 . S
C1837 C1834 1.409 . S
C1837 C1835 1.415 . S
C1838 H1828 0.930 . S
C1838 C1836 1.419 . S
C1838 C1839 1.362 . S
C1839 H1829 0.930 . S
C1839 C1832 1.409 . S
C1839 C1838 1.362 . S
H1840 C1846 0.930 . S
H1841 C1849 0.930 . S
H1842 C1850 0.930 . S
H1843 C1851 0.930 . S
H1844 C1854 0.930 . S
H1845 C1855 0.930 . S
C1846 H1840 0.930 . S
C1846 C1847 1.355 . S
C1846 C1848 1.415 . S
C1847 C1846 1.355 . S
C1847 C1849 1.419 . S
C1848 C1846 1.415 . S
C1848 C1853 1.425 . S
C1848 C1855 1.409 . S
C1849 H1841 0.930 . S
C1849 C1847 1.419 . S
C1849 C1850 1.362 . S
C1850 H1842 0.930 . S
C1850 C1849 1.362 . S
C1850 C1853 1.409 . S
C1851 H1843 0.930 . S
C1851 C1852 1.355 . S
C1851 C1853 1.415 . S
C1852 C1851 1.355 . S
C1852 C1854 1.419 . S
C1853 C1848 1.425 . S
C1853 C1850 1.409 . S
C1853 C1851 1.415 . S
C1854 H1844 0.930 . S
C1854 C1852 1.419 . S
C1854 C1855 1.362 . S
C1855 H1845 0.930 . S
C1855 C1848 1.409 . S
C1855 C1854 1.362 . S
H1856 C1862 0.930 . S
H1857 C1865 0.930 . S
H1858 C1866 0.930 . S
H1859 C1867 0.930 . S
H1860 C1870 0.930 . S
H1861 C1871 0.930 . S
C1862 H1856 0.930 . S
C1862 C1863 1.355 . S
C1862 C1864 1.415 . S
C1863 C1862 1.355 . S
C1863 C1865 1.419 . S
C1864 C1862 1.415 . S
C1864 C1869 1.425 . S
C1864 C1871 1.409 . S
C1865 H1857 0.930 . S
C1865 C1863 1.419 . S
C1865 C1866 1.362 . S
C1866 H1858 0.930 . S
C1866 C1865 1.362 . S
C1866 C1869 1.409 . S
C1867 H1859 0.930 . S
C1867 C1868 1.355 . S
C1867 C1869 1.415 . S
C1868 C1867 1.355 . S
C1868 C1870 1.419 . S
C1869 C1864 1.425 . S
C1869 C1866 1.409 . S
C1869 C1867 1.415 . S
C1870 H1860 0.930 . S
C1870 C1868 1.419 . S
C1870 C1871 1.362 . S
C1871 H1861 0.930 . S
C1871 C1864 1.409 . S
C1871 C1870 1.362 . S
H1872 C1878 0.930 . S
H1873 C1881 0.930 . S
H1874 C1882 0.930 . S
H1875 C1883 0.930 . S
H1876 C1886 0.930 . S
H1877 C1887 0.930 . S
C1878 H1872 0.930 . S
C1878 C1879 1.355 . S
C1878 C1880 1.415 . S
C1879 C1878 1.355 . S
C1879 C1881 1.419 . S
C1880 C1878 1.415 . S
C1880 C1885 1.425 . S
C1880 C1887 1.409 . S
C1881 H1873 0.930 . S
C1881 C1879 1.419 . S
C1881 C1882 1.362 . S
C1882 H1874 0.930 . S
C1882 C1881 1.362 . S
C1882 C1885 1.409 . S
C1883 H1875 0.930 . S
C1883 C1884 1.355 . S
C1883 C1885 1.415 . S
C1884 C1883 1.355 . S
C1884 C1886 1.419 . S
C1885 C1880 1.425 . S
C1885 C1882 1.409 . S
C1885 C1883 1.415 . S
C1886 H1876 0.930 . S
C1886 C1884 1.419 . S
C1886 C1887 1.362 . S
C1887 H1877 0.930 . S
C1887 C1880 1.409 . S
C1887 C1886 1.362 . S
H1888 C1894 0.930 . S
H1889 C1897 0.930 . S
H1890 C1898 0.930 . S
H1891 C1899 0.930 . S
H1892 C1902 0.930 . S
H1893 C1903 0.930 . S
C1894 H1888 0.930 . S
C1894 C1895 1.355 . S
C1894 C1896 1.415 . S
C1895 C1894 1.355 . S
C1895 C1897 1.419 . S
C1896 C1894 1.415 . S
C1896 C1901 1.425 . S
C1896 C1903 1.409 . S
C1897 H1889 0.930 . S
C1897 C1895 1.419 . S
C1897 C1898 1.362 . S
C1898 H1890 0.930 . S
C1898 C1897 1.362 . S
C1898 C1901 1.409 . S
C1899 H1891 0.930 . S
C1899 C1900 1.355 . S
C1899 C1901 1.415 . S
C1900 C1899 1.355 . S
C1900 C1902 1.419 . S
C1901 C1896 1.425 . S
C1901 C1898 1.409 . S
C1901 C1899 1.415 . S
C1902 H1892 0.930 . S
C1902 C1900 1.419 . S
C1902 C1903 1.362 . S
C1903 H1893 0.930 . S
C1903 C1896 1.409 . S
C1903 C1902 1.362 . S
H1904 C1910 0.930 . S
H1905 C1913 0.930 . S
H1906 C1914 0.930 . S
H1907 C1915 0.930 . S
H1908 C1918 0.930 . S
H1909 C1919 0.930 . S
C1910 H1904 0.930 . S
C1910 C1911 1.355 . S
C1910 C1912 1.415 . S
C1911 C1910 1.355 . S
C1911 C1913 1.419 . S
C1912 C1910 1.415 . S
C1912 C1917 1.425 . S
C1912 C1919 1.409 . S
C1913 H1905 0.930 . S
C1913 C1911 1.419 . S
C1913 C1914 1.362 . S
C1914 H1906 0.930 . S
C1914 C1913 1.362 . S
C1914 C1917 1.409 . S
C1915 H1907 0.930 . S
C1915 C1916 1.355 . S
C1915 C1917 1.415 . S
C1916 C1915 1.355 . S
C1916 C1918 1.419 . S
C1917 C1912 1.425 . S
C1917 C1914 1.409 . S
C1917 C1915 1.415 . S
C1918 H1908 0.930 . S
C1918 C1916 1.419 . S
C1918 C1919 1.362 . S
C1919 H1909 0.930 . S
C1919 C1912 1.409 . S
C1919 C1918 1.362 . S
H1920 C1926 0.930 . S
H1921 C1929 0.930 . S
H1922 C1930 0.930 . S
H1923 C1931 0.930 . S
H1924 C1934 0.930 . S
H1925 C1935 0.930 . S
C1926 H1920 0.930 . S
C1926 C1927 1.355 . S
C1926 C1928 1.415 . S
C1927 C1926 1.355 . S
C1927 C1929 1.419 . S
C1928 C1926 1.415 . S
C1928 C1933 1.425 . S
C1928 C1935 1.409 . S
C1929 H1921 0.930 . S
C1929 C1927 1.419 . S
C1929 C1930 1.362 . S
C1930 H1922 0.930 . S
C1930 C1929 1.362 . S
C1930 C1933 1.409 . S
C1931 H1923 0.930 . S
C1931 C1932 1.355 . S
C1931 C1933 1.415 . S
C1932 C1931 1.355 . S
C1932 C1934 1.419 . S
C1933 C1928 1.425 . S
C1933 C1930 1.409 . S
C1933 C1931 1.415 . S
C1934 H1924 0.930 . S
C1934 C1932 1.419 . S
C1934 C1935 1.362 . S
C1935 H1925 0.930 . S
C1935 C1928 1.409 . S
C1935 C1934 1.362 . S
H1936 C1942 0.930 . S
H1937 C1945 0.930 . S
H1938 C1946 0.930 . S
H1939 C1947 0.930 . S
H1940 C1950 0.930 . S
H1941 C1951 0.930 . S
C1942 H1936 0.930 . S
C1942 C1943 1.355 . S
C1942 C1944 1.415 . S
C1943 C1942 1.355 . S
C1943 C1945 1.419 . S
C1944 C1942 1.415 . S
C1944 C1949 1.425 . S
C1944 C1951 1.409 . S
C1945 H1937 0.930 . S
C1945 C1943 1.419 . S
C1945 C1946 1.362 . S
C1946 H1938 0.930 . S
C1946 C1945 1.362 . S
C1946 C1949 1.409 . S
C1947 H1939 0.930 . S
C1947 C1948 1.355 . S
C1947 C1949 1.415 . S
C1948 C1947 1.355 . S
C1948 C1950 1.419 . S
C1949 C1944 1.425 . S
C1949 C1946 1.409 . S
C1949 C1947 1.415 . S
C1950 H1940 0.930 . S
C1950 C1948 1.419 . S
C1950 C1951 1.362 . S
C1951 H1941 0.930 . S
C1951 C1944 1.409 . S
C1951 C1950 1.362 . S
H1952 C1958 0.930 . S
H1953 C1961 0.930 . S
H1954 C1962 0.930 . S
H1955 C1963 0.930 . S
H1956 C1966 0.930 . S
H1957 C1967 0.930 . S
C1958 H1952 0.930 . S
C1958 C1959 1.355 . S
C1958 C1960 1.415 . S
C1959 C1958 1.355 . S
C1959 C1961 1.419 . S
C1960 C1958 1.415 . S
C1960 C1965 1.425 . S
C1960 C1967 1.409 . S
C1961 H1953 0.930 . S
C1961 C1959 1.419 . S
C1961 C1962 1.362 . S
C1962 H1954 0.930 . S
C1962 C1961 1.362 . S
C1962 C1965 1.409 . S
C1963 H1955 0.930 . S
C1963 C1964 1.355 . S
C1963 C1965 1.415 . S
C1964 C1963 1.355 . S
C1964 C1966 1.419 . S
C1965 C1960 1.425 . S
C1965 C1962 1.409 . S
C1965 C1963 1.415 . S
C1966 H1956 0.930 . S
C1966 C1964 1.419 . S
C1966 C1967 1.362 . S
C1967 H1957 0.930 . S
C1967 C1960 1.409 . S
C1967 C1966 1.362 . S
H1968 C1974 0.930 . S
H1969 C1977 0.930 . S
H1970 C1978 0.930 . S
H1971 C1979 0.930 . S
H1972 C1982 0.930 . S
H1973 C1983 0.930 . S
C1974 H1968 0.930 . S
C1974 C1975 1.355 . S
C1974 C1976 1.415 . S
C1975 C1974 1.355 . S
C1975 C1977 1.419 . S
C1976 C1974 1.415 . S
C1976 C1981 1.425 . S
C1976 C1983 1.409 . S
C1977 H1969 0.930 . S
C1977 C1975 1.419 . S
C1977 C1978 1.362 . S
C1978 H1970 0.930 . S
C1978 C1977 1.362 . S
C1978 C1981 1.409 . S
C1979 H1971 0.930 . S
C1979 C1980 1.355 . S
C1979 C1981 1.415 . S
C1980 C1979 1.355 . S
C1980 C1982 1.419 . S
C1981 C1976 1.425 . S
C1981 C1978 1.409 . S
C1981 C1979 1.415 . S
C1982 H1972 0.930 . S
C1982 C1980 1.419 . S
C1982 C1983 1.362 . S
C1983 H1973 0.930 . S
C1983 C1976 1.409 . S
C1983 C1982 1.362 . S
H1984 C1990 0.930 . S
H1985 C1993 0.930 . S
H1986 C1994 0.930 . S
H1987 C1995 0.930 . S
H1988 C1998 0.930 . S
H1989 C1999 0.930 . S
C1990 H1984 0.930 . S
C1990 C1991 1.355 . S
C1990 C1992 1.415 . S
C1991 C1990 1.355 . S
C1991 C1993 1.419 . S
C1992 C1990 1.415 . S
C1992 C1997 1.425 . S
C1992 C1999 1.409 . S
C1993 H1985 0.930 . S
C1993 C1991 1.419 . S
C1993 C1994 1.362 . S
C1994 H1986 0.930 . S
C1994 C1993 1.362 . S
C1994 C1997 1.409 . S
C1995 H1987 0.930 . S
C1995 C1996 1.355 . S
C1995 C1997 1.415 . S
C1996 C1995 1.355 . S
C1996 C1998 1.419 . S
C1997 C1992 1.425 . S
C1997 C1994 1.409 . S
C1997 C1995 1.415 . S
C1998 H1988 0.930 . S
C1998 C1996 1.419 . S
C1998 C1999 1.362 . S
C1999 H1989 0.930 . S
C1999 C1992 1.409 . S
C1999 C1998 1.362 . S
H2000 C2006 0.930 . S
H2001 C2009 0.930 . S
H2002 C2010 0.930 . S
H2003 C2011 0.930 . S
H2004 C2014 0.930 . S
H2005 C2015 0.930 . S
C2006 H2000 0.930 . S
C2006 C2007 1.355 . S
C2006 C2008 1.415 . S
C2007 C2006 1.355 . S
C2007 C2009 1.419 . S
C2008 C2006 1.415 . S
C2008 C2013 1.425 . S
C2008 C2015 1.409 . S
C2009 H2001 0.930 . S
C2009 C2007 1.419 . S
C2009 C2010 1.362 . S
C2010 H2002 0.930 . S
C2010 C2009 1.362 . S
C2010 C2013 1.409 . S
C2011 H2003 0.930 . S
C2011 C2012 1.355 . S
C2011 C2013 1.415 . S
C2012 C2011 1.355 . S
C2012 C2014 1.419 . S
C2013 C2008 1.425 . S
C2013 C2010 1.409 . S
C2013 C2011 1.415 . S
C2014 H2004 0.930 . S
C2014 C2012 1.419 . S
C2014 C2015 1.362 . S
C2015 H2005 0.930 . S
C2015 C2008 1.409 . S
C2015 C2014 1.362 . S
H2016 C2022 0.930 . S
H2017 C2025 0.930 . S
H2018 C2026 0.930 . S
H2019 C2027 0.930 . S
H2020 C2030 0.930 . S
H2021 C2031 0.930 . S
C2022 H2016 0.930 . S
C2022 C2023 1.355 . S
C2022 C2024 1.415 . S
C2023 C2022 1.355 . S
C2023 C2025 1.419 . S
C2024 C2022 1.415 . S
C2024 C2029 1.425 . S
C2024 C2031 1.409 . S
C2025 H2017 0.930 . S
C2025 C2023 1.419 . S
C2025 C2026 1.362 . S
C2026 H2018 0.930 . S
C2026 C2025 1.362 . S
C2026 C2029 1.409 . S
C2027 H2019 0.930 . S
C2027 C2028 1.355 . S
C2027 C2029 1.415 . S
C2028 C2027 1.355 . S
C2028 C2030 1.419 . S
C2029 C2024 1.425 . S
C2029 C2026 1.409 . S
C2029 C2027 1.415 . S
C2030 H2020 0.930 . S
C2030 C2028 1.419 . S
C2030 C2031 1.362 . S
C2031 H2021 0.930 . S
C2031 C2024 1.409 . S
C2031 C2030 1.362 . S
H2032 C2038 0.930 . S
H2033 C2041 0.930 . S
H2034 C2042 0.930 . S
H2035 C2043 0.930 . S
H2036 C2046 0.930 . S
H2037 C2047 0.930 . S
C2038 H2032 0.930 . S
C2038 C2039 1.355 . S
C2038 C2040 1.415 . S
C2039 C2038 1.355 . S
C2039 C2041 1.419 . S
C2040 C2038 1.415 . S
C2040 C2045 1.425 . S
C2040 C2047 1.409 . S
C2041 H2033 0.930 . S
C2041 C2039 1.419 . S
C2041 C2042 1.362 . S
C2042 H2034 0.930 . S
C2042 C2041 1.362 . S
C2042 C2045 1.409 . S
C2043 H2035 0.930 . S
C2043 C2044 1.355 . S
C2043 C2045 1.415 . S
C2044 C2043 1.355 . S
C2044 C2046 1.419 . S
C2045 C2040 1.425 . S
C2045 C2042 1.409 . S
C2045 C2043 1.415 . S
C2046 H2036 0.930 . S
C2046 C2044 1.419 . S
C2046 C2047 1.362 . S
C2047 H2037 0.930 . S
C2047 C2040 1.409 . S
C2047 C2046 1.362 . S
H2048 C2054 0.930 . S
H2049 C2057 0.930 . S
H2050 C2058 0.930 . S
H2051 C2059 0.930 . S
H2052 C2062 0.930 . S
H2053 C2063 0.930 . S
C2054 H2048 0.930 . S
C2054 C2055 1.355 . S
C2054 C2056 1.415 . S
C2055 C2054 1.355 . S
C2055 C2057 1.419 . S
C2056 C2054 1.415 . S
C2056 C2061 1.425 . S
C2056 C2063 1.409 . S
C2057 H2049 0.930 . S
C2057 C2055 1.419 . S
C2057 C2058 1.362 . S
C2058 H2050 0.930 . S
C2058 C2057 1.362 . S
C2058 C2061 1.409 . S
C2059 H2051 0.930 . S
C2059 C2060 1.355 . S
C2059 C2061 1.415 . S
C2060 C2059 1.355 . S
C2060 C2062 1.419 . S
C2061 C2056 1.425 . S
C2061 C2058 1.409 . S
C2061 C2059 1.415 . S
C2062 H2052 0.930 . S
C2062 C2060 1.419 . S
C2062 C2063 1.362 . S
C2063 H2053 0.930 . S
C2063 C2056 1.409 . S
C2063 C2062 1.362 . S
H2064 C2070 0.930 . S
H2065 C2073 0.930 . S
H2066 C2074 0.930 . S
H2067 C2075 0.930 . S
H2068 C2078 0.930 . S
H2069 C2079 0.930 . S
C2070 H2064 0.930 . S
C2070 C2071 1.355 . S
C2070 C2072 1.415 . S
C2071 C2070 1.355 . S
C2071 C2073 1.419 . S
C2072 C2070 1.415 . S
C2072 C2077 1.425 . S
C2072 C2079 1.409 . S
C2073 H2065 0.930 . S
C2073 C2071 1.419 . S
C2073 C2074 1.362 . S
C2074 H2066 0.930 . S
C2074 C2073 1.362 . S
C2074 C2077 1.409 . S
C2075 H2067 0.930 . S
C2075 C2076 1.355 . S
C2075 C2077 1.415 . S
C2076 C2075 1.355 . S
C2076 C2078 1.419 . S
C2077 C2072 1.425 . S
C2077 C2074 1.409 . S
C2077 C2075 1.415 . S
C2078 H2068 0.930 . S
C2078 C2076 1.419 . S
C2078 C2079 1.362 . S
C2079 H2069 0.930 . S
C2079 C2072 1.409 . S
C2079 C2078 1.362 . S
H2080 C2086 0.930 . S
H2081 C2089 0.930 . S
H2082 C2090 0.930 . S
H2083 C2091 0.930 . S
H2084 C2094 0.930 . S
H2085 C2095 0.930 . S
C2086 H2080 0.930 . S
C2086 C2087 1.355 . S
C2086 C2088 1.415 . S
C2087 C2086 1.355 . S
C2087 C2089 1.419 . S
C2088 C2086 1.415 . S
C2088 C2093 1.425 . S
C2088 C2095 1.409 . S
C2089 H2081 0.930 . S
C2089 C2087 1.419 . S
C2089 C2090 1.362 . S
C2090 H2082 0.930 . S
C2090 C2089 1.362 . S
C2090 C2093 1.409 . S
C2091 H2083 0.930 . S
C2091 C2092 1.355 . S
C2091 C2093 1.415 . S
C2092 C2091 1.355 . S
C2092 C2094 1.419 . S
C2093 C2088 1.425 . S
C2093 C2090 1.409 . S
C2093 C2091 1.415 . S
C2094 H2084 0.930 . S
C2094 C2092 1.419 . S
C2094 C2095 1.362 . S
C2095 H2085 0.930 . S
C2095 C2088 1.409 . S
C2095 C2094 1.362 . S
H2096 C2102 0.930 . S
H2097 C2105 0.930 . S
H2098 C2106 0.930 . S
H2099 C2107 0.930 . S
H2100 C2110 0.930 . S
H2101 C2111 0.930 . S
C2102 H2096 0.930 . S
C2102 C2103 1.355 . S
C2102 C2104 1.415 . S
C2103 C2102 1.355 . S
C2103 C2105 1.419 . S
C2104 C2102 1.415 . S
C2104 C2109 1.425 . S
C2104 C2111 1.409 . S
C2105 H2097 0.930 . S
C2105 C2103 1.419 . S
C2105 C2106 1.362 . S
C2106 H2098 0.930 . S
C2106 C2105 1.362 . S
C2106 C2109 1.409 . S
C2107 H2099 0.930 . S
C2107 C2108 1.355 . S
C2107 C2109 1.415 . S
C2108 C2107 1.355 . S
C2108 C2110 1.419 . S
C2109 C2104 1.425 . S
C2109 C2106 1.409 . S
C2109 C2107 1.415 . S
C2110 H2100 0.930 . S
C2110 C2108 1.419 . S
C2110 C2111 1.362 . S
C2111 H2101 0.930 . S
C2111 C2104 1.409 . S
C2111 C2110 1.362 . S
H2112 C2118 0.930 . S
H2113 C2121 0.930 . S
H2114 C2122 0.930 . S
H2115 C2123 0.930 . S
H2116 C2126 0.930 . S
H2117 C2127 0.930 . S
C2118 H2112 0.930 . S
C2118 C2119 1.355 . S
C2118 C2120 1.415 . S
C2119 C2118 1.355 . S
C2119 C2121 1.419 . S
C2120 C2118 1.415 . S
C2120 C2125 1.425 . S
C2120 C2127 1.409 . S
C2121 H2113 0.930 . S
C2121 C2119 1.419 . S
C2121 C2122 1.362 . S
C2122 H2114 0.930 . S
C2122 C2121 1.362 . S
C2122 C2125 1.409 . S
C2123 H2115 0.930 . S
C2123 C2124 1.355 . S
C2123 C2125 1.415 . S
C2124 C2123 1.355 . S
C2124 C2126 1.419 . S
C2125 C2120 1.425 . S
C2125 C2122 1.409 . S
C2125 C2123 1.415 . S
C2126 H2116 0.930 . S
C2126 C2124 1.419 . S
C2126 C2127 1.362 . S
C2127 H2117 0.930 . S
C2127 C2120 1.409 . S
C2127 C2126 1.362 . S
H2128 C2134 0.930 . S
H2129 C2137 0.930 . S
H2130 C2138 0.930 . S
H2131 C2139 0.930 . S
H2132 C2142 0.930 . S
H2133 C2143 0.930 . S
C2134 H2128 0.930 . S
C2134 C2135 1.355 . S
C2134 C2136 1.415 . S
C2135 C2134 1.355 . S
C2135 C2137 1.419 . S
C2136 C2134 1.415 . S
C2136 C2141 1.425 . S
C2136 C2143 1.409 . S
C2137 H2129 0.930 . S
C2137 C2135 1.419 . S
C2137 C2138 1.362 . S
C2138 H2130 0.930 . S
C2138 C2137 1.362 . S
C2138 C2141 1.409 . S
C2139 H2131 0.930 . S
C2139 C2140 1.355 . S
C2139 C2141 1.415 . S
C2140 C2139 1.355 . S
C2140 C2142 1.419 . S
C2141 C2136 1.425 . S
C2141 C2138 1.409 . S
C2141 C2139 1.415 . S
C2142 H2132 0.930 . S
C2142 C2140 1.419 . S
C2142 C2143 1.362 . S
C2143 H2133 0.930 . S
C2143 C2136 1.409 . S
C2143 C2142 1.362 . S
H2144 C2150 0.930 . S
H2145 C2153 0.930 . S
H2146 C2154 0.930 . S
H2147 C2155 0.930 . S
H2148 C2158 0.930 . S
H2149 C2159 0.930 . S
C2150 H2144 0.930 . S
C2150 C2151 1.355 . S
C2150 C2152 1.415 . S
C2151 C2150 1.355 . S
C2151 C2153 1.419 . S
C2152 C2150 1.415 . S
C2152 C2157 1.425 . S
C2152 C2159 1.409 . S
C2153 H2145 0.930 . S
C2153 C2151 1.419 . S
C2153 C2154 1.362 . S
C2154 H2146 0.930 . S
C2154 C2153 1.362 . S
C2154 C2157 1.409 . S
C2155 H2147 0.930 . S
C2155 C2156 1.355 . S
C2155 C2157 1.415 . S
C2156 C2155 1.355 . S
C2156 C2158 1.419 . S
C2157 C2152 1.425 . S
C2157 C2154 1.409 . S
C2157 C2155 1.415 . S
C2158 H2148 0.930 . S
C2158 C2156 1.419 . S
C2158 C2159 1.362 . S
C2159 H2149 0.930 . S
C2159 C2152 1.409 . S
C2159 C2158 1.362 . S
C823 C28 1.258 1_565 S
C828 C187 1.272 . S
C839 C40 1.279 . S
C844 C17 1.207 . S
C855 C96 1.261 1_455 S
C860 C51 1.270 . S
C871 C85 1.196 . S
C876 C108 1.277 1_545 S
C887 C164 1.270 . S
C892 C119 1.247 . S
C903 C176 1.280 1_655 S
C908 C153 1.197 . S
C919 C255 1.265 . S
C924 C232 1.263 1_455 S
C935 C289 1.253 . S
C940 C244 1.268 1_545 S
C951 C323 1.265 . S
C956 C278 1.257 . S
C967 C312 1.271 1_655 S
C972 C357 1.209 . S
C983 C391 1.229 . S
C988 C368 1.275 1_565 S
C999 C380 1.269 . S
C1004 C221 1.216 . S
C1015 C595 1.215 . S
C1020 C436 1.269 1_545 S
C1031 C425 1.250 . S
C1036 C448 1.260 . S
C1047 C504 1.258 1_655 S
C1052 C459 1.271 . S
C1063 C538 1.277 1_565 S
C1068 C493 1.220 . S
C1079 C550 1.276 . S
C1084 C527 1.197 . S
C1095 C606 1.279 1_455 S
C1100 C561 1.194 . S
C1111 C663 1.194 . S
C1116 C618 1.278 1_655 S
C1127 C697 1.249 . S
C1132 C652 1.269 1_565 S
C1143 C708 1.270 . S
C1148 C731 1.213 . S
C1159 C720 1.260 1_455 S
C1164 C765 1.271 . S
C1175 C776 1.276 1_545 S
C1180 C799 1.198 . S
C1191 C629 1.269 . S
C1196 C788 1.257 . S
C1207 C15 1.713 . S
C1212 C525 1.756 . S
C1223 C56 1.701 . S
C1228 C566 1.769 . S
C1239 C83 1.746 . S
C1244 C593 1.724 . S
C1255 C423 1.728 . S
C1260 C124 1.742 . S
C1271 C151 1.763 . S
C1276 C464 1.707 . S
C1287 C192 1.708 . S
C1292 C491 1.762 . S
C1303 C736 1.771 . S
C1308 C219 1.698 . S
C1319 C763 1.757 . S
C1324 C260 1.713 . S
C1335 C804 1.759 . S
C1340 C294 1.711 . S
C1351 C634 1.698 . S
C1356 C328 1.771 . S
C1367 C355 1.695 . S
C1372 C668 1.774 . S
C1383 C396 1.731 . S
C1388 C695 1.739 . S
C1399 C22 1.503 . S
C1404 C287 1.552 . S
C1415 C49 1.502 . S
C1420 C321 1.482 . S
C1431 C90 1.483 . S
C1436 C362 1.499 . S
C1447 C117 1.476 . S
C1452 C389 1.525 . S
C1463 C158 1.547 . S
C1468 C226 1.524 . S
C1479 C185 1.539 . S
C1484 C253 1.480 . S
C1495 C702 1.552 . S
C1500 C430 1.504 . S
C1511 C457 1.524 . S
C1516 C729 1.547 . S
C1527 C770 1.500 . S
C1532 C498 1.551 . S
C1543 C532 1.520 . S
C1548 C797 1.549 . S
C1559 C559 1.551 . S
C1564 C627 1.511 . S
C1575 C600 1.504 . S
C1580 C661 1.481 . S
C1591 C3 1.743 . S
C1596 C103 1.704 . S
C1607 C139 1.745 . S
C1612 C35 1.710 . S
C1623 C71 1.745 . S
C1628 C171 1.712 . S
C1639 C307 1.644 . S
C1644 C207 1.665 . S
C1655 C343 1.741 . S
C1660 C239 1.736 . S
C1671 C273 1.743 . S
C1676 C375 1.732 . S
C1687 C513 1.665 . S
C1692 C411 1.644 . S
C1703 C545 1.714 . S
C1708 C443 1.745 . S
C1719 C479 1.717 . S
C1724 C581 1.746 . S
C1735 C715 1.661 . S
C1740 C613 1.645 . S
C1751 C647 1.680 . S
C1756 C751 1.644 . S
C1767 C783 1.713 . S
C1772 C683 1.745 . S
C1783 C74 1.475 . S
C1788 C1 1.367 . S
C1799 C37 1.329 . S
C1804 C130 1.461 . S
C1815 C142 1.475 . S
C1820 C69 1.364 . S
C1831 C198 1.460 . S
C1836 C105 1.337 . S
C1847 C137 1.372 . S
C1852 C6 1.461 . S
C1863 C173 1.399 . S
C1868 C62 1.465 . S
C1879 C205 1.405 . S
C1884 C346 1.466 . S
C1895 C402 1.463 . S
C1900 C241 1.306 . S
C1911 C210 1.473 . S
C1916 C275 1.325 . S
C1927 C309 1.314 . S
C1932 C266 1.472 . S
C1943 C341 1.309 . S
C1948 C300 1.470 . S
C1959 C377 1.302 . S
C1964 C334 1.465 . S
C1975 C409 1.335 . S
C1980 C482 1.474 . S
C1991 C445 1.331 . S
C1996 C516 1.474 . S
C2007 C477 1.402 . S
C2012 C572 1.465 . S
C2023 C584 1.466 . S
C2028 C511 1.301 . S
C2039 C547 1.351 . S
C2044 C414 1.475 . S
C2055 C470 1.470 . S
C2060 C579 1.408 . S
C2071 C615 1.347 . S
C2076 C754 1.475 . S
C2087 C810 1.470 . S
C2092 C649 1.307 . S
C2103 C681 1.343 . S
C2108 C640 1.460 . S
C2119 C674 1.463 . S
C2124 C717 1.306 . S
C2135 C686 1.460 . S
C2140 C749 1.349 . S
C2151 C785 1.342 . S
C2156 C742 1.460 . S
