# Generated by pormake.
# Topology qtz-a, (4)-cn, num edge types: 1
# Building blocks:
#     Node 0, Type 0, BuildingBlock: UXUYUI_clean_sbu_0, # of connection points: 4
#     Node 1, Type 0, BuildingBlock: UXUYUI_clean_sbu_0, # of connection points: 4
#     Node 2, Type 0, BuildingBlock: UXUYUI_clean_sbu_0, # of connection points: 4
#     Node 3, Type 0, BuildingBlock: UXUYUI_clean_sbu_0, # of connection points: 4
#     Node 4, Type 0, BuildingBlock: UXUYUI_clean_sbu_0, # of connection points: 4
#     Node 5, Type 0, BuildingBlock: UXUYUI_clean_sbu_0, # of connection points: 4
#     Node 6, Type 0, BuildingBlock: UXUYUI_clean_sbu_0, # of connection points: 4
#     Node 7, Type 0, BuildingBlock: UXUYUI_clean_sbu_0, # of connection points: 4
#     Node 8, Type 0, BuildingBlock: UXUYUI_clean_sbu_0, # of connection points: 4
#     Node 9, Type 0, BuildingBlock: UXUYUI_clean_sbu_0, # of connection points: 4
#     Node 10, Type 0, BuildingBlock: UXUYUI_clean_sbu_0, # of connection points: 4
#     Node 11, Type 0, BuildingBlock: UXUYUI_clean_sbu_0, # of connection points: 4
#     Edge 12, Type (0, 0), BuildingBlock: TEMPAE_clean_linker_10, # of connection points: 2
#     Edge 13, Type (0, 0), BuildingBlock: TEMPAE_clean_linker_10, # of connection points: 2
#     Edge 14, Type (0, 0), BuildingBlock: TEMPAE_clean_linker_10, # of connection points: 2
#     Edge 15, Type (0, 0), BuildingBlock: TEMPAE_clean_linker_10, # of connection points: 2
#     Edge 16, Type (0, 0), BuildingBlock: TEMPAE_clean_linker_10, # of connection points: 2
#     Edge 17, Type (0, 0), BuildingBlock: TEMPAE_clean_linker_10, # of connection points: 2
#     Edge 18, Type (0, 0), BuildingBlock: TEMPAE_clean_linker_10, # of connection points: 2
#     Edge 19, Type (0, 0), BuildingBlock: TEMPAE_clean_linker_10, # of connection points: 2
#     Edge 20, Type (0, 0), BuildingBlock: TEMPAE_clean_linker_10, # of connection points: 2
#     Edge 21, Type (0, 0), BuildingBlock: TEMPAE_clean_linker_10, # of connection points: 2
#     Edge 22, Type (0, 0), BuildingBlock: TEMPAE_clean_linker_10, # of connection points: 2
#     Edge 23, Type (0, 0), BuildingBlock: TEMPAE_clean_linker_10, # of connection points: 2
#     Edge 24, Type (0, 0), BuildingBlock: TEMPAE_clean_linker_10, # of connection points: 2
#     Edge 25, Type (0, 0), BuildingBlock: TEMPAE_clean_linker_10, # of connection points: 2
#     Edge 26, Type (0, 0), BuildingBlock: TEMPAE_clean_linker_10, # of connection points: 2
#     Edge 27, Type (0, 0), BuildingBlock: TEMPAE_clean_linker_10, # of connection points: 2
#     Edge 28, Type (0, 0), BuildingBlock: TEMPAE_clean_linker_10, # of connection points: 2
#     Edge 29, Type (0, 0), BuildingBlock: TEMPAE_clean_linker_10, # of connection points: 2
#     Edge 30, Type (0, 0), BuildingBlock: TEMPAE_clean_linker_10, # of connection points: 2
#     Edge 31, Type (0, 0), BuildingBlock: TEMPAE_clean_linker_10, # of connection points: 2
#     Edge 32, Type (0, 0), BuildingBlock: TEMPAE_clean_linker_10, # of connection points: 2
#     Edge 33, Type (0, 0), BuildingBlock: TEMPAE_clean_linker_10, # of connection points: 2
#     Edge 34, Type (0, 0), BuildingBlock: TEMPAE_clean_linker_10, # of connection points: 2
#     Edge 35, Type (0, 0), BuildingBlock: TEMPAE_clean_linker_10, # of connection points: 2
# Relax obj value: 0.910
# Max RMSD: 0.301
# Mean RMSD: 0.301
data_MOF--net-qtz-a--node1-UXUYUI_clean_sbu_0--edge1-TEMPAE_clean_linker_10
_symmetry_space_group_name_H-M    P1
_symmetry_Int_Tables_number       1
_symmetry_cell_setting            triclinic
loop_
_symmetry_equiv_pos_as_xyz
'x, y, z'
_cell_length_a     74.759359
_cell_length_b     74.769312
_cell_length_c     42.593784
_cell_angle_alpha  90.014781
_cell_angle_beta   89.993197
_cell_angle_gamma 119.994
loop_
_atom_site_label
_atom_site_type_symbol
_atom_site_fract_x
_atom_site_fract_y
_atom_site_fract_z
_atom_type_partial_charge
Li0 Li 0.40701 0.05376 0.18099 0.0
Li1 Li 0.43252 0.08759 0.2047 0.0
Li2 Li 0.44441 0.06764 0.17593 0.0
Li3 Li 0.42897 0.05635 0.2269 0.0
C4 C 0.43655 0.0877 0.13228 0.0
N5 N 0.45584 0.104 0.07562 0.0
C6 C 0.45232 0.1083 0.13043 0.0
C7 C 0.43049 0.07542 0.10528 0.0
C8 C 0.4619 0.11625 0.10157 0.0
C9 C 0.44046 0.08394 0.07686 0.0
C10 C 0.40432 0.07001 0.25408 0.0
C11 C 0.41844 0.08905 0.30209 0.0
N12 N 0.39897 0.08146 0.31347 0.0
C13 C 0.38446 0.06242 0.26623 0.0
C14 C 0.42147 0.08346 0.27211 0.0
C15 C 0.38207 0.06838 0.29632 0.0
C16 C 0.36869 0.01964 0.15798 0.0
N17 N 0.38204 0.04034 0.1576 0.0
C18 C 0.36723 0.04408 0.11026 0.0
C19 C 0.3806 0.05267 0.13558 0.0
C20 C 0.35471 0.02249 0.10786 0.0
C21 C 0.35464 0.01034 0.13328 0.0
H22 H 0.37012 0.01018 0.1759 0.0
H23 H 0.39119 0.06913 0.13613 0.0
C24 C 0.45552 0.13085 0.21506 0.0
N25 N 0.4365 0.11427 0.20991 0.0
C26 C 0.45859 0.15081 0.21226 0.0
C27 C 0.42226 0.13604 0.20033 0.0
C28 C 0.41991 0.11643 0.20334 0.0
C29 C 0.44191 0.15356 0.20396 0.0
H30 H 0.46847 0.12857 0.21967 0.0
H31 H 0.40509 0.10287 0.19875 0.0
C32 C 0.42158 0.02236 0.17443 0.0
N33 N 0.41839 0.98729 0.14714 0.0
C34 C 0.4307 0.01204 0.18873 0.0
C35 C 0.41074 0.01471 0.14628 0.0
C36 C 0.42894 0.99438 0.17456 0.0
C37 C 0.40934 0.99701 0.13284 0.0
C38 C 0.47214 0.08171 0.22639 0.0
C39 C 0.47441 0.06478 0.21878 0.0
C40 C 0.4871 0.09762 0.24485 0.0
C41 C 0.49147 0.06387 0.23013 0.0
C42 C 0.50397 0.09618 0.25571 0.0
N43 N 0.50577 0.07945 0.24822 0.0
C44 C 0.48362 0.08876 0.14608 0.0
C45 C 0.46035 0.05643 0.1233 0.0
C46 C 0.49784 0.09297 0.12186 0.0
N47 N 0.46516 0.07081 0.14614 0.0
C48 C 0.47402 0.05996 0.09879 0.0
C49 C 0.49285 0.07861 0.09745 0.0
H50 H 0.48693 0.1002 0.16408 0.0
H51 H 0.44551 0.04265 0.12303 0.0
C52 C 0.41878 0.02131 0.26291 0.0
N53 N 0.43019 0.04225 0.26337 0.0
C54 C 0.42468 0.00967 0.28125 0.0
C55 C 0.45214 0.04134 0.30323 0.0
C56 C 0.44552 0.05235 0.28476 0.0
C57 C 0.4426 0.0198 0.29978 0.0
H58 H 0.40653 0.01369 0.24584 0.0
H59 H 0.45406 0.06902 0.28517 0.0
O60 O 0.42746 0.07944 0.16055 0.0
O61 O 0.40685 0.06425 0.22467 0.0
O62 O 0.4226 0.03938 0.18842 0.0
O63 O 0.45527 0.0827 0.21633 0.0
H64 H 0.45731 0.11797 0.15112 0.0
H65 H 0.4185 0.05936 0.10636 0.0
H66 H 0.47422 0.13213 0.09983 0.0
H67 H 0.43607 0.07457 0.05584 0.0
H68 H 0.43157 0.09943 0.3163 0.0
H69 H 0.37104 0.052 0.25254 0.0
H70 H 0.43696 0.08956 0.26312 0.0
H71 H 0.36679 0.06261 0.30603 0.0
H72 H 0.36821 0.05431 0.09156 0.0
H73 H 0.34487 0.99372 0.13318 0.0
H74 H 0.47395 0.16392 0.2155 0.0
H75 H 0.40905 0.13741 0.19344 0.0
H76 H 0.43903 0.0175 0.21059 0.0
H77 H 0.40401 0.02269 0.13439 0.0
H78 H 0.43594 0.98629 0.18541 0.0
H79 H 0.40115 0.99107 0.11094 0.0
H80 H 0.46315 0.0525 0.20427 0.0
H81 H 0.48556 0.11083 0.25101 0.0
H82 H 0.49333 0.05077 0.22455 0.0
H83 H 0.51561 0.10832 0.27016 0.0
H84 H 0.51214 0.10763 0.12155 0.0
H85 H 0.46966 0.04836 0.08064 0.0
H86 H 0.41659 0.99304 0.27846 0.0
H87 H 0.46597 0.04983 0.31727 0.0
Li88 Li 0.37188 0.4361 0.56278 0.0
Li89 Li 0.37445 0.44823 0.50833 0.0
Li90 Li 0.34183 0.42847 0.53448 0.0
Li91 Li 0.35987 0.41028 0.51864 0.0
C92 C 0.3569 0.46786 0.55776 0.0
N93 N 0.34096 0.49131 0.58194 0.0
C94 C 0.35117 0.4789 0.53765 0.0
C95 C 0.35465 0.46886 0.59021 0.0
C96 C 0.34307 0.4906 0.55032 0.0
C97 C 0.34657 0.4808 0.60196 0.0
C98 C 0.40786 0.44252 0.53741 0.0
C99 C 0.43494 0.43944 0.56312 0.0
N100 N 0.44715 0.46034 0.56259 0.0
C101 C 0.4207 0.46398 0.53705 0.0
C102 C 0.41502 0.43014 0.55054 0.0
C103 C 0.4405 0.47269 0.54993 0.0
C104 C 0.3912 0.43047 0.6165 0.0
N105 N 0.38785 0.44413 0.60014 0.0
C106 C 0.41565 0.47259 0.62649 0.0
C107 C 0.39922 0.46477 0.60545 0.0
C108 C 0.42069 0.45905 0.64175 0.0
C109 C 0.40773 0.43767 0.63758 0.0
H110 H 0.38222 0.41416 0.61116 0.0
H111 H 0.39672 0.47531 0.59126 0.0
C112 C 0.39389 0.48775 0.47762 0.0
N113 N 0.39006 0.46797 0.47717 0.0
C114 C 0.40447 0.50105 0.4527 0.0
C115 C 0.40711 0.47339 0.42783 0.0
C116 C 0.39676 0.46077 0.45332 0.0
C117 C 0.41105 0.49383 0.42716 0.0
H118 H 0.38871 0.49317 0.49721 0.0
H119 H 0.39363 0.445 0.45384 0.0
C120 C 0.32802 0.39932 0.57524 0.0
N121 N 0.28986 0.38199 0.60402 0.0
C122 C 0.31136 0.38136 0.56305 0.0
C123 C 0.32536 0.40837 0.60222 0.0
C124 C 0.29216 0.37286 0.5779 0.0
C125 C 0.30592 0.3994 0.61639 0.0
C126 C 0.34587 0.42909 0.46296 0.0
C127 C 0.33855 0.44285 0.45874 0.0
C128 C 0.35021 0.42064 0.43677 0.0
C129 C 0.3358 0.44803 0.42833 0.0
C130 C 0.34726 0.42621 0.40673 0.0
N131 N 0.34019 0.43968 0.40316 0.0
C132 C 0.30656 0.43317 0.55192 0.0
C133 C 0.30235 0.41042 0.51027 0.0
C134 C 0.28744 0.43137 0.54517 0.0
N135 N 0.31406 0.42358 0.53347 0.0
C136 C 0.28314 0.40804 0.50285 0.0
C137 C 0.27583 0.41925 0.51958 0.0
H138 H 0.31556 0.44276 0.57118 0.0
H139 H 0.30828 0.40232 0.49666 0.0
C140 C 0.37446 0.38574 0.49104 0.0
N141 N 0.35732 0.38696 0.49747 0.0
C142 C 0.37425 0.37329 0.46645 0.0
C143 C 0.33842 0.36271 0.45695 0.0
C144 C 0.33926 0.37518 0.48196 0.0
C145 C 0.3564 0.3625 0.44789 0.0
H146 H 0.38876 0.39575 0.5031 0.0
H147 H 0.32611 0.3771 0.48684 0.0
O148 O 0.36522 0.45663 0.54584 0.0
O149 O 0.38815 0.43375 0.52592 0.0
O150 O 0.34675 0.40828 0.5605 0.0
O151 O 0.34898 0.42409 0.49258 0.0
H152 H 0.35289 0.47844 0.51252 0.0
H153 H 0.35893 0.46039 0.60617 0.0
H154 H 0.33849 0.49915 0.53501 0.0
H155 H 0.34468 0.48165 0.627 0.0
H156 H 0.44064 0.43004 0.57352 0.0
H157 H 0.41532 0.47384 0.52745 0.0
H158 H 0.40518 0.41354 0.55152 0.0
H159 H 0.45054 0.48927 0.55003 0.0
H160 H 0.4255 0.48918 0.62837 0.0
H161 H 0.4112 0.42675 0.64878 0.0
H162 H 0.40751 0.51681 0.4535 0.0
H163 H 0.41158 0.467 0.40857 0.0
H164 H 0.3132 0.37419 0.54216 0.0
H165 H 0.33814 0.42226 0.61194 0.0
H166 H 0.27909 0.35904 0.56861 0.0
H167 H 0.30359 0.4063 0.63718 0.0
H168 H 0.33503 0.44944 0.47874 0.0
H169 H 0.35606 0.41011 0.43957 0.0
H170 H 0.33017 0.45868 0.42473 0.0
H171 H 0.35067 0.41988 0.38624 0.0
H172 H 0.28233 0.44018 0.5589 0.0
H173 H 0.2744 0.398 0.4836 0.0
H174 H 0.38837 0.37335 0.46055 0.0
H175 H 0.32442 0.35494 0.44312 0.0
Li176 Li 0.92485 0.38099 0.84103 0.0
Li177 Li 0.93428 0.37791 0.89631 0.0
Li178 Li 0.94607 0.36434 0.85203 0.0
Li179 Li 0.91125 0.34857 0.86774 0.0
C180 C 0.96487 0.41285 0.87193 0.0
N181 N 0.98813 0.45142 0.89893 0.0
C182 C 0.95657 0.42585 0.87556 0.0
C183 C 0.98494 0.41941 0.8824 0.0
C184 C 0.96859 0.4453 0.88918 0.0
C185 C 0.99647 0.43899 0.89587 0.0
C186 C 0.8878 0.36321 0.89102 0.0
C187 C 0.86418 0.35184 0.93487 0.0
N188 N 0.848 0.34453 0.91455 0.0
C189 C 0.87092 0.35563 0.8706 0.0
C190 C 0.8844 0.36128 0.92345 0.0
C191 C 0.85093 0.34619 0.88294 0.0
C192 C 0.90242 0.38751 0.79383 0.0
N193 N 0.92071 0.39668 0.80949 0.0
C194 C 0.93454 0.42524 0.77397 0.0
C195 C 0.93671 0.41514 0.79996 0.0
C196 C 0.91585 0.41608 0.75726 0.0
C197 C 0.89959 0.39703 0.76764 0.0
H198 H 0.89032 0.37238 0.80083 0.0
H199 H 0.9515 0.42159 0.81155 0.0
C200 C 0.96028 0.39649 0.94915 0.0
N201 N 0.94294 0.39351 0.93416 0.0
C202 C 0.97014 0.41259 0.97081 0.0
C203 C 0.94297 0.42078 0.9633 0.0
C204 C 0.93386 0.40481 0.9415 0.0
C205 C 0.96188 0.42547 0.97709 0.0
H206 H 0.96741 0.38756 0.94227 0.0
H207 H 0.92059 0.40271 0.92833 0.0
C208 C 0.92793 0.35859 0.79338 0.0
N209 N 0.94107 0.36582 0.73149 0.0
C210 C 0.91584 0.34486 0.76971 0.0
C211 C 0.94657 0.3762 0.78527 0.0
C212 C 0.92277 0.34875 0.73865 0.0
C213 C 0.953 0.37951 0.75397 0.0
C214 C 0.92558 0.33446 0.91126 0.0
C215 C 0.92257 0.3158 0.8991 0.0
C216 C 0.9186 0.33507 0.94146 0.0
C217 C 0.91229 0.2979 0.91727 0.0
C218 C 0.90844 0.31684 0.95892 0.0
N219 N 0.90549 0.29879 0.94654 0.0
C220 C 0.98528 0.37524 0.82583 0.0
C221 C 0.95803 0.34102 0.81728 0.0
C222 C 0.99655 0.37342 0.80113 0.0
N223 N 0.96602 0.35946 0.83235 0.0
C224 C 0.9686 0.33864 0.79212 0.0
C225 C 0.98762 0.3554 0.78263 0.0
H226 H 0.99102 0.38992 0.8375 0.0
H227 H 0.9424 0.32899 0.82235 0.0
C228 C 0.87414 0.31427 0.89494 0.0
N229 N 0.88687 0.32173 0.86959 0.0
C230 C 0.85539 0.29574 0.89277 0.0
C231 C 0.86407 0.29202 0.83945 0.0
C232 C 0.88251 0.31063 0.84263 0.0
C233 C 0.84999 0.28464 0.86445 0.0
H234 H 0.87824 0.32283 0.91664 0.0
H235 H 0.89319 0.31641 0.8233 0.0
O236 O 0.95311 0.39351 0.85937 0.0
O237 O 0.90751 0.37266 0.87937 0.0
O238 O 0.92138 0.35477 0.8241 0.0
O239 O 0.93539 0.35211 0.89377 0.0
H240 H 0.94087 0.42082 0.86841 0.0
H241 H 0.99146 0.4094 0.88063 0.0
H242 H 0.96232 0.45547 0.89223 0.0
H243 H 0.012 0.44423 0.90413 0.0
H244 H 0.86134 0.35017 0.9599 0.0
H245 H 0.87316 0.35673 0.84552 0.0
H246 H 0.89715 0.3666 0.9397 0.0
H247 H 0.83775 0.34014 0.86737 0.0
H248 H 0.94764 0.43965 0.76626 0.0
H249 H 0.88494 0.38941 0.75536 0.0
H250 H 0.98479 0.41586 0.98079 0.0
H251 H 0.93636 0.43063 0.96683 0.0
H252 H 0.90118 0.33135 0.77507 0.0
H253 H 0.95613 0.38726 0.80284 0.0
H254 H 0.91357 0.33819 0.7202 0.0
H255 H 0.96747 0.39297 0.74756 0.0
H256 H 0.92792 0.31511 0.87577 0.0
H257 H 0.92086 0.34943 0.9512 0.0
H258 H 0.90969 0.2833 0.90808 0.0
H259 H 0.90284 0.31704 0.98226 0.0
H260 H 0.01134 0.3866 0.79498 0.0
H261 H 0.96094 0.32456 0.77845 0.0
H262 H 0.84513 0.2903 0.91285 0.0
H263 H 0.86054 0.28394 0.81721 0.0
Li264 Li 0.5495 0.92476 0.16178 0.0
Li265 Li 0.56422 0.94185 0.21185 0.0
Li266 Li 0.58707 0.94178 0.16987 0.0
Li267 Li 0.56454 0.91094 0.19983 0.0
C268 C 0.58006 0.97203 0.15257 0.0
N269 N 0.60393 0.00804 0.11924 0.0
C270 C 0.59097 0.9909 0.16832 0.0
C271 C 0.58124 0.97151 0.11984 0.0
C272 C 0.60292 0.00893 0.15104 0.0
C273 C 0.59344 0.98986 0.10343 0.0
C274 C 0.52554 0.91402 0.22387 0.0
C275 C 0.50968 0.90904 0.27483 0.0
N276 N 0.49803 0.91699 0.26382 0.0
C277 C 0.51329 0.92197 0.21297 0.0
C278 C 0.52367 0.90739 0.25499 0.0
C279 C 0.49952 0.92342 0.23357 0.0
C280 C 0.51526 0.89893 0.12246 0.0
N281 N 0.52843 0.91871 0.13156 0.0
C282 C 0.51337 0.93149 0.09487 0.0
C283 C 0.52734 0.93482 0.11893 0.0
C284 C 0.50047 0.91137 0.08371 0.0
C285 C 0.5013 0.89491 0.09802 0.0
H286 H 0.51584 0.88631 0.13379 0.0
H287 H 0.53749 0.95032 0.12728 0.0
C288 C 0.55892 0.95466 0.2739 0.0
N289 N 0.55921 0.95753 0.2423 0.0
C290 C 0.55063 0.96359 0.29388 0.0
C291 C 0.54451 0.9792 0.24849 0.0
C292 C 0.55246 0.96973 0.22953 0.0
C293 C 0.54306 0.97581 0.28102 0.0
H294 H 0.56391 0.94447 0.2834 0.0
H295 H 0.55204 0.97109 0.20433 0.0
C296 C 0.56042 0.90125 0.1284 0.0
N297 N 0.54356 0.87568 0.07687 0.0
C298 C 0.54895 0.87982 0.1323 0.0
C299 C 0.56334 0.90963 0.09821 0.0
C300 C 0.54058 0.86716 0.10596 0.0
C301 C 0.55466 0.89646 0.07249 0.0
C302 C 0.59782 0.93015 0.23435 0.0
C303 C 0.61646 0.93179 0.22481 0.0
C304 C 0.58871 0.92026 0.26257 0.0
C305 C 0.62561 0.92326 0.24361 0.0
C306 C 0.59833 0.9119 0.28068 0.0
N307 N 0.61642 0.91356 0.27089 0.0
C308 C 0.62608 0.97614 0.14932 0.0
C309 C 0.61398 0.9441 0.12355 0.0
C310 C 0.64053 0.98632 0.12544 0.0
N311 N 0.6123 0.95562 0.14674 0.0
C312 C 0.62791 0.95357 0.0991 0.0
C313 C 0.64067 0.97516 0.09885 0.0
H314 H 0.62492 0.98487 0.16865 0.0
H315 H 0.60347 0.92768 0.12273 0.0
C316 C 0.54699 0.8706 0.2276 0.0
N317 N 0.5633 0.8861 0.21224 0.0
C318 C 0.54512 0.85106 0.2296 0.0
C319 C 0.57721 0.86424 0.20095 0.0
C320 C 0.57848 0.88342 0.19965 0.0
C321 C 0.56006 0.84755 0.21527 0.0
H322 H 0.53489 0.87306 0.23671 0.0
H323 H 0.59088 0.89586 0.18664 0.0
O324 O 0.5685 0.95415 0.16911 0.0
O325 O 0.53967 0.91322 0.20439 0.0
O326 O 0.56871 0.91398 0.15391 0.0
O327 O 0.58849 0.93814 0.21604 0.0
H328 H 0.59049 0.99161 0.19366 0.0
H329 H 0.57294 0.95708 0.10726 0.0
H330 H 0.61151 0.02362 0.16294 0.0
H331 H 0.59461 0.98964 0.07813 0.0
H332 H 0.50819 0.90414 0.29905 0.0
H333 H 0.51466 0.92731 0.18901 0.0
H334 H 0.53319 0.90139 0.26388 0.0
H335 H 0.49009 0.92974 0.22556 0.0
H336 H 0.51307 0.94456 0.08445 0.0
H337 H 0.49129 0.87915 0.09036 0.0
H338 H 0.54952 0.96044 0.31884 0.0
H339 H 0.53831 0.98802 0.23751 0.0
H340 H 0.5462 0.87296 0.15536 0.0
H341 H 0.57216 0.92613 0.09465 0.0
H342 H 0.53161 0.85057 0.10869 0.0
H343 H 0.55675 0.90277 0.04906 0.0
H344 H 0.62369 0.93942 0.20301 0.0
H345 H 0.57421 0.91877 0.27015 0.0
H346 H 0.63999 0.9243 0.23646 0.0
H347 H 0.59139 0.90405 0.30246 0.0
H348 H 0.65054 0.00289 0.12689 0.0
H349 H 0.62727 0.94411 0.07943 0.0
H350 H 0.53173 0.83867 0.24106 0.0
H351 H 0.58885 0.86224 0.18893 0.0
Li352 Li 0.63501 0.5815 0.51586 0.0
Li353 Li 0.65092 0.56271 0.53607 0.0
Li354 Li 0.61766 0.54345 0.50971 0.0
Li355 Li 0.62036 0.5573 0.5628 0.0
C356 C 0.64462 0.56751 0.46053 0.0
N357 N 0.64526 0.57322 0.39634 0.0
C358 C 0.66197 0.57131 0.44298 0.0
C359 C 0.62755 0.56642 0.44536 0.0
C360 C 0.66201 0.57419 0.41056 0.0
C361 C 0.62817 0.56941 0.41293 0.0
C362 C 0.66501 0.59315 0.57478 0.0
C363 C 0.68603 0.59294 0.61751 0.0
N364 N 0.70228 0.61062 0.60619 0.0
C365 C 0.68185 0.61136 0.56362 0.0
C366 C 0.66703 0.58387 0.60199 0.0
C367 C 0.70059 0.61995 0.57982 0.0
C368 C 0.62548 0.61099 0.49061 0.0
N369 N 0.64036 0.60579 0.49413 0.0
C370 C 0.65994 0.62793 0.45193 0.0
C371 C 0.65794 0.61489 0.47673 0.0
C372 C 0.6437 0.63166 0.44528 0.0
C373 C 0.62683 0.624 0.46607 0.0
H374 H 0.61183 0.60378 0.5052 0.0
H375 H 0.66955 0.61047 0.48018 0.0
C376 C 0.68143 0.55272 0.55595 0.0
N377 N 0.67744 0.56551 0.53847 0.0
C378 C 0.70053 0.55369 0.55344 0.0
C379 C 0.71118 0.58154 0.51602 0.0
C380 C 0.69194 0.58002 0.51929 0.0
C381 C 0.71552 0.56795 0.53269 0.0
H382 H 0.66963 0.54143 0.57115 0.0
H383 H 0.68826 0.58999 0.50574 0.0
C384 C 0.58541 0.55416 0.51979 0.0
N385 N 0.54428 0.54181 0.50894 0.0
C386 C 0.57004 0.54063 0.54055 0.0
C387 C 0.57969 0.56145 0.49356 0.0
C388 C 0.5494 0.53457 0.53466 0.0
C389 C 0.55887 0.555 0.48846 0.0
C390 C 0.61379 0.51629 0.55981 0.0
C391 C 0.59269 0.50703 0.55348 0.0
C392 C 0.62115 0.50556 0.57752 0.0
C393 C 0.57923 0.48734 0.56523 0.0
C394 C 0.60722 0.48587 0.58887 0.0
N395 N 0.58671 0.47725 0.58256 0.0
C396 C 0.61387 0.5165 0.46135 0.0
C397 C 0.58201 0.51434 0.47416 0.0
C398 C 0.6049 0.50347 0.43559 0.0
N399 N 0.60252 0.52212 0.47951 0.0
C400 C 0.57237 0.50109 0.44892 0.0
C401 C 0.58395 0.49595 0.42868 0.0
H402 H 0.63015 0.5229 0.4661 0.0
H403 H 0.57311 0.51866 0.48895 0.0
C404 C 0.59698 0.56581 0.60383 0.0
N405 N 0.60515 0.55326 0.60059 0.0
C406 C 0.57979 0.55986 0.62299 0.0
C407 C 0.58149 0.52961 0.63822 0.0
C408 C 0.59879 0.53625 0.61893 0.0
C409 C 0.57097 0.54078 0.63866 0.0
H410 H 0.60238 0.57924 0.58892 0.0
H411 H 0.60584 0.52678 0.61658 0.0
O412 O 0.64449 0.56503 0.49242 0.0
O413 O 0.64673 0.58416 0.55878 0.0
O414 O 0.60585 0.56049 0.52535 0.0
O415 O 0.62726 0.53565 0.54873 0.0
H416 H 0.6753 0.57205 0.45425 0.0
H417 H 0.61396 0.56322 0.45851 0.0
H418 H 0.67536 0.57721 0.39671 0.0
H419 H 0.61505 0.56868 0.40096 0.0
H420 H 0.68788 0.58588 0.6385 0.0
H421 H 0.6805 0.61866 0.54251 0.0
H422 H 0.65411 0.56969 0.61078 0.0
H423 H 0.71381 0.63398 0.57139 0.0
H424 H 0.67316 0.63341 0.43648 0.0
H425 H 0.61417 0.62686 0.46208 0.0
H426 H 0.70339 0.54315 0.56705 0.0
H427 H 0.72217 0.59261 0.49955 0.0
H428 H 0.57384 0.53464 0.56094 0.0
H429 H 0.5911 0.57197 0.47716 0.0
H430 H 0.53744 0.52407 0.55053 0.0
H431 H 0.55432 0.56051 0.46822 0.0
H432 H 0.58677 0.51496 0.53968 0.0
H433 H 0.63742 0.5124 0.58268 0.0
H434 H 0.56284 0.48008 0.56055 0.0
H435 H 0.61271 0.47746 0.60271 0.0
H436 H 0.61448 0.50005 0.42054 0.0
H437 H 0.55606 0.49524 0.44498 0.0
H438 H 0.57233 0.5691 0.62318 0.0
H439 H 0.57528 0.51486 0.65002 0.0
Li440 Li 0.05391 0.6367 0.85229 0.0
Li441 Li 0.08957 0.65056 0.87126 0.0
Li442 Li 0.07259 0.61721 0.84541 0.0
Li443 Li 0.06261 0.6231 0.8976 0.0
C444 C 0.07632 0.64331 0.79634 0.0
N445 N 0.06973 0.64234 0.73238 0.0
C446 C 0.09082 0.65903 0.77714 0.0
C447 C 0.05851 0.62704 0.78299 0.0
C448 C 0.08721 0.65826 0.74485 0.0
C449 C 0.05544 0.62685 0.75063 0.0
C450 C 0.05585 0.65242 0.91791 0.0
C451 C 0.0542 0.65777 0.97342 0.0
N452 N 0.03448 0.65385 0.96986 0.0
C453 C 0.03564 0.64861 0.91474 0.0
C454 C 0.0653 0.6572 0.94741 0.0
C455 C 0.02507 0.64935 0.94131 0.0
C456 C 0.01721 0.62831 0.821 0.0
N457 N 0.03657 0.64338 0.82874 0.0
C458 C 0.0368 0.66485 0.78712 0.0
C459 C 0.04602 0.66181 0.81352 0.0
C460 C 0.01764 0.64878 0.77662 0.0
C461 C 0.00728 0.63081 0.79504 0.0
H462 H 0.01026 0.6137 0.83319 0.0
H463 H 0.06163 0.6733 0.81984 0.0
C464 C 0.12969 0.67525 0.85118 0.0
N465 N 0.11539 0.67503 0.87108 0.0
C466 C 0.1483 0.69341 0.84621 0.0
C467 C 0.13712 0.71084 0.88239 0.0
C468 C 0.11874 0.6922 0.88694 0.0
C469 C 0.15201 0.71159 0.86145 0.0
H470 H 0.12627 0.66142 0.83831 0.0
H471 H 0.10687 0.69156 0.90221 0.0
C472 C 0.03301 0.58697 0.86986 0.0
N473 N 0.01091 0.54618 0.88878 0.0
C474 C 0.04334 0.57657 0.87913 0.0
C475 C 0.01143 0.57666 0.87058 0.0
C476 C 0.03189 0.55596 0.88858 0.0
C477 C 0.00054 0.55602 0.8801 0.0
C478 C 0.10829 0.6325 0.89635 0.0
C479 C 0.12246 0.62834 0.88141 0.0
C480 C 0.11425 0.6449 0.92321 0.0
C481 C 0.14254 0.63706 0.89323 0.0
C482 C 0.13446 0.65334 0.93428 0.0
N483 N 0.14808 0.6493 0.91916 0.0
C484 C 0.09562 0.60973 0.80145 0.0
C485 C 0.06078 0.58276 0.80439 0.0
C486 C 0.09919 0.60031 0.77581 0.0
N487 N 0.07667 0.60089 0.81512 0.0
C488 C 0.06369 0.57273 0.77898 0.0
C489 C 0.08301 0.58166 0.764 0.0
H490 H 0.10772 0.6246 0.80961 0.0
H491 H 0.0456 0.57645 0.81459 0.0
C492 C 0.03131 0.60133 0.94236 0.0
N493 N 0.05157 0.60845 0.93589 0.0
C494 C 0.02067 0.58463 0.96265 0.0
C495 C 0.05235 0.58411 0.97134 0.0
C496 C 0.06242 0.6009 0.95099 0.0
C497 C 0.03094 0.57502 0.97586 0.0
H498 H 0.02287 0.60709 0.92927 0.0
H499 H 0.07834 0.60641 0.94479 0.0
O500 O 0.07948 0.64409 0.82809 0.0
O501 O 0.06639 0.65164 0.8922 0.0
O502 O 0.04398 0.60738 0.86144 0.0
O503 O 0.08865 0.62437 0.8849 0.0
H504 H 0.10467 0.67174 0.78713 0.0
H505 H 0.0471 0.61475 0.7975 0.0
H506 H 0.09828 0.67035 0.7297 0.0
H507 H 0.04167 0.61443 0.74003 0.0
H508 H 0.06127 0.66135 0.99643 0.0
H509 H 0.02812 0.64493 0.89206 0.0
H510 H 0.08101 0.66044 0.95022 0.0
H511 H 0.00937 0.64631 0.93924 0.0
H512 H 0.04547 0.67886 0.77357 0.0
H513 H 0.99233 0.61818 0.78813 0.0
H514 H 0.15926 0.69346 0.82952 0.0
H515 H 0.1395 0.72457 0.89459 0.0
H516 H 0.06003 0.58434 0.87914 0.0
H517 H 0.00315 0.58452 0.86409 0.0
H518 H 0.03969 0.54775 0.89583 0.0
H519 H 0.98384 0.54785 0.88076 0.0
H520 H 0.11802 0.61848 0.86095 0.0
H521 H 0.10341 0.6481 0.93518 0.0
H522 H 0.1537 0.63406 0.8818 0.0
H523 H 0.13933 0.66311 0.95488 0.0
H524 H 0.1142 0.60797 0.76461 0.0
H525 H 0.05081 0.55831 0.77079 0.0
H526 H 0.00418 0.57812 0.96563 0.0
H527 H 0.06082 0.57704 0.98067 0.0
Li528 Li 0.90414 0.55985 0.46575 0.0
Li529 Li 0.94019 0.57971 0.48345 0.0
Li530 Li 0.92988 0.55649 0.43837 0.0
Li531 Li 0.9203 0.54222 0.49173 0.0
C532 C 0.93669 0.59163 0.41566 0.0
N533 N 0.95485 0.60984 0.35925 0.0
C534 C 0.95737 0.60727 0.4148 0.0
C535 C 0.92518 0.58534 0.38793 0.0
C536 C 0.96629 0.61627 0.38602 0.0
C537 C 0.93467 0.59471 0.35962 0.0
C538 C 0.91691 0.57439 0.53514 0.0
C539 C 0.93174 0.58691 0.58634 0.0
N540 N 0.92138 0.59751 0.58826 0.0
C541 C 0.9065 0.58553 0.53756 0.0
C542 C 0.92966 0.57512 0.55971 0.0
C543 C 0.90894 0.59709 0.56462 0.0
C544 C 0.86559 0.54781 0.48901 0.0
N545 N 0.87894 0.55989 0.46634 0.0
C546 C 0.85726 0.57381 0.45342 0.0
C547 C 0.87511 0.57259 0.44828 0.0
C548 C 0.84352 0.56196 0.47746 0.0
C549 C 0.84764 0.54848 0.49483 0.0
H550 H 0.86932 0.5382 0.50337 0.0
H551 H 0.88624 0.58227 0.43078 0.0
C552 C 0.97644 0.60518 0.51737 0.0
N553 N 0.95964 0.60448 0.50393 0.0
C554 C 0.98693 0.6192 0.54144 0.0
C555 C 0.96418 0.63318 0.53464 0.0
C556 C 0.95412 0.61884 0.51066 0.0
C557 C 0.98005 0.63266 0.55159 0.0
H558 H 0.98063 0.59374 0.51128 0.0
H559 H 0.94067 0.61789 0.49952 0.0
C560 C 0.88279 0.52133 0.447 0.0
N561 N 0.841 0.49712 0.43534 0.0
C562 C 0.87022 0.50558 0.46786 0.0
C563 C 0.87417 0.52464 0.42006 0.0
C564 C 0.84911 0.49353 0.46158 0.0
C565 C 0.85299 0.51228 0.41464 0.0
C566 C 0.95841 0.54884 0.48336 0.0
C567 C 0.96162 0.53634 0.46233 0.0
C568 C 0.96478 0.55021 0.51457 0.0
C569 C 0.97127 0.52556 0.47281 0.0
C570 C 0.97431 0.53911 0.52418 0.0
N571 N 0.97735 0.52714 0.50327 0.0
C572 C 0.95946 0.5623 0.39258 0.0
C573 C 0.92617 0.53321 0.38471 0.0
C574 C 0.96811 0.55431 0.37172 0.0
N575 N 0.93904 0.55115 0.39977 0.0
C576 C 0.93416 0.52468 0.3637 0.0
C577 C 0.95558 0.53464 0.35862 0.0
H578 H 0.96943 0.57618 0.40565 0.0
H579 H 0.91008 0.5245 0.39128 0.0
C580 C 0.90715 0.52097 0.54867 0.0
N581 N 0.91518 0.52052 0.52026 0.0
C582 C 0.90456 0.50672 0.57181 0.0
C583 C 0.91734 0.49088 0.53546 0.0
C584 C 0.91956 0.50542 0.51289 0.0
C585 C 0.91007 0.49167 0.56556 0.0
H586 H 0.90301 0.53259 0.55358 0.0
H587 H 0.92516 0.5049 0.48972 0.0
O588 O 0.92778 0.58246 0.44352 0.0
O589 O 0.91467 0.56291 0.50883 0.0
O590 O 0.90342 0.5335 0.45299 0.0
O591 O 0.94897 0.55955 0.47357 0.0
H592 H 0.96647 0.61229 0.43611 0.0
H593 H 0.90913 0.57328 0.38828 0.0
H594 H 0.98231 0.62833 0.38494 0.0
H595 H 0.92599 0.58994 0.33793 0.0
H596 H 0.94163 0.58768 0.60546 0.0
H597 H 0.89678 0.5854 0.51868 0.0
H598 H 0.93794 0.56673 0.55817 0.0
H599 H 0.901 0.60578 0.5668 0.0
H600 H 0.8547 0.58451 0.43968 0.0
H601 H 0.83731 0.53886 0.51324 0.0
H602 H -0.001 0.61812 0.55383 0.0
H603 H 0.95859 0.64348 0.54137 0.0
H604 H 0.87666 0.5028 0.4888 0.0
H605 H 0.88371 0.53678 0.4037 0.0
H606 H 0.83917 0.48136 0.47759 0.0
H607 H 0.84608 0.51475 0.394 0.0
H608 H 0.9565 0.5347 0.43827 0.0
H609 H 0.96215 0.55949 0.53136 0.0
H610 H 0.97382 0.51583 0.45676 0.0
H611 H 0.97921 0.53997 0.54829 0.0
H612 H 0.98473 0.56236 0.3688 0.0
H613 H 0.924 0.50953 0.35391 0.0
H614 H 0.89892 0.50792 0.59469 0.0
H615 H 0.92139 0.47926 0.52953 0.0
Li616 Li 0.37406 0.93072 0.77427 0.0
Li617 Li 0.37434 0.91743 0.82591 0.0
Li618 Li 0.34271 0.90336 0.79553 0.0
Li619 Li 0.35695 0.93777 0.81806 0.0
C620 C 0.36524 0.88299 0.79092 0.0
N621 N 0.35909 0.84391 0.80254 0.0
C622 C 0.35401 0.87188 0.81728 0.0
C623 C 0.37335 0.87418 0.77053 0.0
C624 C 0.35107 0.85217 0.82272 0.0
C625 C 0.37007 0.85442 0.77679 0.0
C626 C 0.40681 0.9588 0.82127 0.0
C627 C 0.4333 0.98405 0.85515 0.0
N628 N 0.448 0.98354 0.83699 0.0
C629 C 0.42223 0.95861 0.8029 0.0
C630 C 0.41242 0.97174 0.84753 0.0
C631 C 0.44293 0.97119 0.81124 0.0
C632 C 0.39867 0.96356 0.7344 0.0
N633 N 0.39115 0.94304 0.73888 0.0
C634 C 0.41648 0.94338 0.70438 0.0
C635 C 0.39902 0.93265 0.7233 0.0
C636 C 0.42584 0.96495 0.70174 0.0
C637 C 0.41607 0.97488 0.71563 0.0
H638 H 0.39225 0.97141 0.74754 0.0
H639 H 0.39289 0.91639 0.72778 0.0
C640 C 0.38142 0.90119 0.88249 0.0
N641 N 0.39004 0.9109 0.85495 0.0
C642 C 0.39316 0.89802 0.9048 0.0
C643 C 0.42199 0.91287 0.86889 0.0
C644 C 0.40967 0.91592 0.84734 0.0
C645 C 0.41391 0.9043 0.89847 0.0
H646 H 0.36544 0.89595 0.88749 0.0
H647 H 0.41582 0.92234 0.82455 0.0
C648 C 0.33829 0.92393 0.74472 0.0
N649 N 0.32206 0.91413 0.68478 0.0
C650 C 0.32777 0.93334 0.73218 0.0
C651 C 0.34055 0.90952 0.72677 0.0
C652 C 0.31968 0.92818 0.70183 0.0
C653 C 0.33223 0.90478 0.69653 0.0
C654 C 0.34372 0.91299 0.87142 0.0
C655 C 0.32524 0.89874 0.88592 0.0
C656 C 0.35894 0.92936 0.88889 0.0
C657 C 0.32226 0.9012 0.91766 0.0
C658 C 0.35536 0.93131 0.92055 0.0
N659 N 0.33724 0.91731 0.93416 0.0
C660 C 0.31304 0.86191 0.77529 0.0
C661 C 0.30153 0.88063 0.80612 0.0
C662 C 0.29397 0.84384 0.77893 0.0
N663 N 0.31659 0.87956 0.78991 0.0
C664 C 0.28236 0.86304 0.81038 0.0
C665 C 0.27868 0.84418 0.79772 0.0
H666 H 0.32529 0.86154 0.76234 0.0
H667 H 0.30486 0.89498 0.81726 0.0
C668 C 0.36383 0.97577 0.84459 0.0
N669 N 0.34971 0.95567 0.83908 0.0
C670 C 0.36019 0.98669 0.86798 0.0
C671 C 0.32713 0.95634 0.87801 0.0
C672 C 0.33107 0.94634 0.85365 0.0
C673 C 0.34222 0.97653 0.88664 0.0
H674 H 0.37845 0.9829 0.8323 0.0
H675 H 0.32003 0.93037 0.84851 0.0
O676 O 0.36848 0.90239 0.78497 0.0
O677 O 0.38642 0.94694 0.81311 0.0
O678 O 0.34626 0.92889 0.77442 0.0
O679 O 0.34662 0.91119 0.84009 0.0
H680 H 0.34748 0.87825 0.83331 0.0
H681 H 0.3821 0.88252 0.75005 0.0
H682 H 0.34237 0.84342 0.84298 0.0
H683 H 0.37626 0.84744 0.76118 0.0
H684 H 0.43782 0.99408 0.87545 0.0
H685 H 0.41831 0.94859 0.78275 0.0
H686 H 0.40083 0.97238 0.86187 0.0
H687 H 0.45497 0.97109 0.79727 0.0
H688 H 0.42362 0.93515 0.69436 0.0
H689 H 0.4227 0.99146 0.71392 0.0
H690 H 0.38615 0.89126 0.92716 0.0
H691 H 0.43768 0.9173 0.86249 0.0
H692 H 0.32588 0.94452 0.74579 0.0
H693 H 0.34861 0.90204 0.73598 0.0
H694 H 0.3115 0.93535 0.69183 0.0
H695 H 0.33387 0.89365 0.6824 0.0
H696 H 0.3133 0.88594 0.8728 0.0
H697 H 0.37332 0.94043 0.87805 0.0
H698 H 0.30801 0.89031 0.92917 0.0
H699 H 0.36698 0.94397 0.93429 0.0
H700 H 0.29168 0.82955 0.76879 0.0
H701 H 0.27081 0.86398 0.82453 0.0
H702 H 0.37196 0.00251 0.87249 0.0
H703 H 0.31307 0.94753 0.89134 0.0
Li704 Li 0.46417 0.37992 0.15489 0.0
Li705 Li 0.44856 0.37694 0.10378 0.0
Li706 Li 0.42696 0.3593 0.1499 0.0
Li707 Li 0.44815 0.34642 0.12643 0.0
C708 C 0.45159 0.4086 0.15482 0.0
N709 N 0.46591 0.44758 0.17987 0.0
C710 C 0.46055 0.42602 0.13537 0.0
C711 C 0.4498 0.41107 0.187 0.0
C712 C 0.46771 0.44556 0.14848 0.0
C713 C 0.45718 0.43088 0.19922 0.0
C714 C 0.49266 0.38749 0.1076 0.0
C715 C 0.52752 0.39592 0.09531 0.0
N716 N 0.53339 0.41633 0.09512 0.0
C717 C 0.49904 0.40852 0.10718 0.0
C718 C 0.50699 0.3811 0.10154 0.0
C719 C 0.51969 0.42287 0.10087 0.0
C720 C 0.48935 0.38485 0.2059 0.0
N721 N 0.48592 0.396 0.18396 0.0
C722 C 0.51022 0.42755 0.209 0.0
C723 C 0.49658 0.41701 0.18445 0.0
C724 C 0.51294 0.41631 0.2331 0.0
C725 C 0.50274 0.39471 0.2309 0.0
H726 H 0.48119 0.36819 0.20454 0.0
H727 H 0.49405 0.42567 0.16648 0.0
C728 C 0.43624 0.39842 0.06432 0.0
N729 N 0.45036 0.39214 0.06702 0.0
C730 C 0.4402 0.41496 0.04473 0.0
C731 C 0.47201 0.41666 0.02861 0.0
C732 C 0.46724 0.39985 0.04811 0.0
C733 C 0.45903 0.42526 0.02833 0.0
H734 H 0.42289 0.39191 0.0796 0.0
H735 H 0.47796 0.3942 0.05015 0.0
C736 C 0.43746 0.34222 0.19823 0.0
N737 N 0.41944 0.32224 0.25382 0.0
C738 C 0.42869 0.3208 0.20057 0.0
C739 C 0.43732 0.35349 0.22433 0.0
C740 C 0.41961 0.31098 0.22885 0.0
C741 C 0.42803 0.3431 0.25216 0.0
C742 C 0.42083 0.33894 0.07734 0.0
C743 C 0.40064 0.32709 0.06619 0.0
C744 C 0.43738 0.34186 0.05846 0.0
C745 C 0.39731 0.31833 0.03627 0.0
C746 C 0.43342 0.33285 0.02867 0.0
N747 N 0.41364 0.32137 0.01828 0.0
C748 C 0.39925 0.36559 0.1864 0.0
C749 C 0.39076 0.33064 0.18184 0.0
C750 C 0.38597 0.3608 0.21195 0.0
N751 N 0.40229 0.35078 0.17323 0.0
C752 C 0.37734 0.32514 0.20744 0.0
C753 C 0.37569 0.34056 0.22387 0.0
H754 H 0.40833 0.38141 0.17872 0.0
H755 H 0.39339 0.31915 0.17071 0.0
C756 C 0.46813 0.32411 0.13272 0.0
N757 N 0.45019 0.32246 0.12239 0.0
C758 C 0.46956 0.30645 0.13765 0.0
C759 C 0.43412 0.28573 0.12048 0.0
C760 C 0.43343 0.30385 0.1156 0.0
C761 C 0.45218 0.28689 0.13259 0.0
H762 H 0.48091 0.33909 0.13899 0.0
H763 H 0.41914 0.303 0.10848 0.0
O764 O 0.44435 0.38928 0.14235 0.0
O765 O 0.47251 0.37319 0.11391 0.0
O766 O 0.44616 0.35207 0.17056 0.0
O767 O 0.42421 0.34756 0.10663 0.0
H768 H 0.46214 0.42457 0.11045 0.0
H769 H 0.4429 0.39787 0.20246 0.0
H770 H 0.47473 0.45914 0.13368 0.0
H771 H 0.45597 0.43298 0.22411 0.0
H772 H 0.53877 0.3912 0.09056 0.0
H773 H 0.48813 0.41368 0.11153 0.0
H774 H 0.50231 0.36488 0.10141 0.0
H775 H 0.5248 0.43919 0.1005 0.0
H776 H 0.5178 0.44424 0.20985 0.0
H777 H 0.50476 0.38552 0.24869 0.0
H778 H 0.42947 0.42071 0.04457 0.0
H779 H 0.48666 0.42398 0.01635 0.0
H780 H 0.42871 0.31181 0.18071 0.0
H781 H 0.44425 0.37007 0.22309 0.0
H782 H 0.41265 0.2944 0.23092 0.0
H783 H 0.42765 0.35162 0.27244 0.0
H784 H 0.38766 0.32468 0.08055 0.0
H785 H 0.45311 0.35092 0.06661 0.0
H786 H 0.38176 0.30912 0.02734 0.0
H787 H 0.44607 0.33497 0.01382 0.0
H788 H 0.38524 0.37322 0.22386 0.0
H789 H 0.36945 0.3093 0.21556 0.0
H790 H 0.48385 0.30808 0.14663 0.0
H791 H 0.42025 0.27098 0.11673 0.0
Li792 Li 0.0698 0.44669 0.4418 0.0
Li793 Li 0.08299 0.46026 0.4947 0.0
Li794 Li 0.09653 0.44217 0.46319 0.0
Li795 Li 0.06176 0.42285 0.48609 0.0
C796 C 0.11756 0.48083 0.44495 0.0
N797 N 0.15846 0.50423 0.4273 0.0
C798 C 0.13187 0.49588 0.46522 0.0
C799 C 0.12398 0.4778 0.41559 0.0
C800 C 0.1525 0.50753 0.45588 0.0
C801 C 0.14475 0.48975 0.40714 0.0
C802 C 0.04447 0.45419 0.49318 0.0
C803 C 0.03123 0.46363 0.53804 0.0
N804 N 0.0269 0.47567 0.51923 0.0
C805 C 0.03987 0.46667 0.47431 0.0
C806 C 0.04007 0.45262 0.52531 0.0
C807 C 0.03098 0.47739 0.48792 0.0
C808 C 0.03846 0.44119 0.39872 0.0
N809 N 0.05883 0.45302 0.40598 0.0
C810 C 0.06192 0.48038 0.3734 0.0
C811 C 0.07078 0.47192 0.39283 0.0
C812 C 0.04062 0.46919 0.36747 0.0
C813 C 0.02901 0.44897 0.37902 0.0
H814 H 0.02916 0.42657 0.41042 0.0
H815 H 0.08679 0.48119 0.39959 0.0
C816 C 0.09898 0.48047 0.55185 0.0
N817 N 0.08995 0.4816 0.52482 0.0
C818 C 0.10163 0.49357 0.57686 0.0
C819 C 0.08742 0.51013 0.54478 0.0
C820 C 0.08505 0.49665 0.52032 0.0
C821 C 0.09517 0.50817 0.57384 0.0
H822 H 0.10365 0.46903 0.55435 0.0
H823 H 0.07851 0.49765 0.49822 0.0
C824 C 0.06034 0.41095 0.41671 0.0
N825 N 0.03834 0.39245 0.36276 0.0
C826 C 0.03986 0.39493 0.41873 0.0
C827 C 0.06971 0.41745 0.38733 0.0
C828 C 0.02898 0.38579 0.39115 0.0
C829 C 0.05829 0.40794 0.36031 0.0
C830 C 0.08831 0.4275 0.53339 0.0
C831 C 0.09875 0.41636 0.53281 0.0
C832 C 0.07714 0.42682 0.56016 0.0
C833 C 0.09794 0.40481 0.55911 0.0
C834 C 0.0767 0.41508 0.58596 0.0
N835 N 0.08705 0.40444 0.58492 0.0
C836 C 0.13637 0.45267 0.47823 0.0
C837 C 0.1225 0.4281 0.437 0.0
C838 C 0.15409 0.45103 0.47917 0.0
N839 N 0.12101 0.44116 0.45762 0.0
C840 C 0.13999 0.42587 0.43724 0.0
C841 C 0.15591 0.43722 0.4589 0.0
H842 H 0.13441 0.46245 0.49494 0.0
H843 H 0.10984 0.41891 0.42121 0.0
C844 C 0.02667 0.398 0.52243 0.0
N845 N 0.04296 0.39831 0.50783 0.0
C846 C 0.01688 0.38444 0.5473 0.0
C847 C 0.03925 0.37016 0.53913 0.0
C848 C 0.04854 0.38396 0.51426 0.0
C849 C 0.02397 0.37111 0.55709 0.0
H850 H 0.02239 0.4094 0.51656 0.0
H851 H 0.06153 0.38454 0.50212 0.0
O852 O 0.09737 0.46905 0.45384 0.0
O853 O 0.05328 0.44362 0.48032 0.0
O854 O 0.07119 0.42017 0.44339 0.0
O855 O 0.08897 0.43897 0.50787 0.0
H856 H 0.12713 0.49841 0.48801 0.0
H857 H 0.11306 0.46622 0.39964 0.0
H858 H 0.16378 0.51916 0.47139 0.0
H859 H 0.14997 0.48749 0.38458 0.0
H860 H 0.02788 0.46265 0.56289 0.0
H861 H 0.04327 0.46827 0.4495 0.0
H862 H 0.04369 0.44323 0.54037 0.0
H863 H 0.0274 0.48713 0.47359 0.0
H864 H 0.07124 0.49611 0.36512 0.0
H865 H 0.01246 0.44011 0.37545 0.0
H866 H 0.10821 0.49198 0.5986 0.0
H867 H 0.08235 0.52126 0.54147 0.0
H868 H 0.03243 0.38971 0.44133 0.0
H869 H 0.08558 0.4298 0.38545 0.0
H870 H 0.01309 0.37343 0.39231 0.0
H871 H 0.06529 0.41289 0.33739 0.0
H872 H 0.10726 0.41646 0.51222 0.0
H873 H 0.06883 0.4352 0.56095 0.0
H874 H 0.10592 0.39609 0.55897 0.0
H875 H 0.06807 0.41437 0.60677 0.0
H876 H 0.16576 0.45974 0.49667 0.0
H877 H 0.14087 0.4151 0.42119 0.0
H878 H 0.00523 0.38581 0.56048 0.0
H879 H 0.04498 0.35994 0.54565 0.0
Li880 Li 0.64891 0.10031 0.80152 0.0
Li881 Li 0.63699 0.06538 0.8167 0.0
Li882 Li 0.62204 0.07475 0.7714 0.0
Li883 Li 0.61601 0.08249 0.82604 0.0
C884 C 0.66755 0.08664 0.7594 0.0
N885 N 0.70377 0.10372 0.72522 0.0
C886 C 0.68606 0.09107 0.77398 0.0
C887 C 0.66737 0.09061 0.72737 0.0
C888 C 0.70424 0.0998 0.75631 0.0
C889 C 0.68587 0.09931 0.71051 0.0
C890 C 0.64006 0.08268 0.87492 0.0
C891 C 0.62083 0.05726 0.9148 0.0
N892 N 0.63507 0.06937 0.93657 0.0
C893 C 0.65453 0.09482 0.89773 0.0
C894 C 0.62309 0.06369 0.88355 0.0
C895 C 0.65171 0.08784 0.92875 0.0
C896 C 0.67611 0.13615 0.83161 0.0
N897 N 0.67325 0.12699 0.80307 0.0
C898 C 0.70581 0.15441 0.78529 0.0
C899 C 0.68726 0.13616 0.77956 0.0
C900 C 0.70974 0.16334 0.81535 0.0
C901 C 0.69432 0.15434 0.83834 0.0
H902 H 0.66434 0.12908 0.84944 0.0
H903 H 0.68436 0.12915 0.75662 0.0
C904 C 0.63275 0.02722 0.83943 0.0
N905 N 0.64528 0.04795 0.83651 0.0
C906 C 0.63716 0.01632 0.86188 0.0
C907 C 0.66763 0.0482 0.87667 0.0
C908 C 0.66298 0.05829 0.8534 0.0
C909 C 0.65418 0.02704 0.88219 0.0
H910 H 0.61868 0.0194 0.82591 0.0
H911 H 0.67247 0.07485 0.85091 0.0
C912 C 0.63241 0.11957 0.7761 0.0
N913 N 0.6524 0.15933 0.75264 0.0
C914 C 0.63406 0.13587 0.79433 0.0
C915 C 0.64077 0.12345 0.74586 0.0
C916 C 0.64428 0.15588 0.78208 0.0
C917 C 0.65084 0.14367 0.73443 0.0
C918 C 0.58788 0.04199 0.79529 0.0
C919 C 0.57468 0.04971 0.7887 0.0
C920 C 0.58163 0.02144 0.78811 0.0
C921 C 0.55535 0.03669 0.77534 0.0
C922 C 0.56216 0.0089 0.77481 0.0
N923 N 0.54954 0.01671 0.76877 0.0
C924 C 0.60559 0.04705 0.72029 0.0
C925 C 0.59653 0.07322 0.7225 0.0
C926 C 0.58966 0.03576 0.69893 0.0
N927 N 0.60797 0.06487 0.73265 0.0
C928 C 0.58045 0.06247 0.70128 0.0
C929 C 0.57607 0.04288 0.69065 0.0
H930 H 0.61473 0.04064 0.72927 0.0
H931 H 0.59842 0.08713 0.73334 0.0
C932 C 0.60641 0.10253 0.87286 0.0
N933 N 0.5985 0.08453 0.85653 0.0
C934 C 0.5958 0.1042 0.89865 0.0
C935 C 0.56896 0.06885 0.89006 0.0
C936 C 0.58016 0.06782 0.86463 0.0
C937 C 0.57693 0.08711 0.90781 0.0
H938 H 0.62144 0.11528 0.86673 0.0
H939 H 0.57458 0.0534 0.85228 0.0
O940 O 0.64954 0.07785 0.77611 0.0
O941 O 0.64294 0.08918 0.84427 0.0
O942 O 0.62297 0.09994 0.78793 0.0
O943 O 0.60712 0.05471 0.80754 0.0
H944 H 0.68642 0.08797 0.79869 0.0
H945 H 0.6531 0.08701 0.71568 0.0
H946 H 0.71872 0.10347 0.76732 0.0
H947 H 0.686 0.10256 0.68574 0.0
H948 H 0.6078 0.0426 0.92172 0.0
H949 H 0.66792 0.1094 0.89153 0.0
H950 H 0.61183 0.05388 0.86636 0.0
H951 H 0.66281 0.09709 0.94659 0.0
H952 H 0.71725 0.16098 0.7668 0.0
H953 H 0.69645 0.1611 0.8615 0.0
H954 H 0.62663 -8e-05 0.86446 0.0
H955 H 0.68074 0.05739 0.89173 0.0
H956 H 0.62765 0.13313 0.81774 0.0
H957 H 0.6397 0.11102 0.7315 0.0
H958 H 0.64578 0.16866 0.79598 0.0
H959 H 0.6575 0.14692 0.71114 0.0
H960 H 0.57942 0.06569 0.79351 0.0
H961 H 0.59174 0.01527 0.79246 0.0
H962 H 0.54503 0.04249 0.77001 0.0
H963 H 0.55714 0.99298 0.76909 0.0
H964 H 0.58695 0.02083 0.69109 0.0
H965 H 0.57027 0.06847 0.69607 0.0
H966 H 0.60273 0.11843 0.91201 0.0
H967 H 0.55441 0.05534 0.89612 0.0
Li968 Li 0.57025 0.6382 0.15158 0.0
Li969 Li 0.54922 0.65207 0.13238 0.0
Li970 Li 0.53249 0.61839 0.15868 0.0
Li971 Li 0.54714 0.62309 0.10421 0.0
C972 C 0.56192 0.65409 0.20311 0.0
N973 N 0.58229 0.67187 0.25854 0.0
C974 C 0.57234 0.67555 0.20672 0.0
C975 C 0.56177 0.64168 0.22776 0.0
C976 C 0.58255 0.68424 0.23493 0.0
C977 C 0.57223 0.65097 0.25556 0.0
C978 C 0.58092 0.66561 0.08686 0.0
C979 C 0.58011 0.67809 0.03498 0.0
N980 N 0.5988 0.69516 0.04041 0.0
C981 C 0.6002 0.68317 0.09182 0.0
C982 C 0.57086 0.66293 0.05813 0.0
C983 C 0.60895 0.69797 0.06808 0.0
C984 C 0.59708 0.62936 0.18572 0.0
N985 N 0.59515 0.64496 0.17304 0.0
C986 C 0.62198 0.66964 0.20604 0.0
C987 C 0.60804 0.66496 0.18134 0.0
C988 C 0.62255 0.65354 0.22218 0.0
C989 C 0.6107 0.6333 0.21055 0.0
H990 H 0.58686 0.61366 0.17836 0.0
H991 H 0.60613 0.67707 0.17085 0.0
C992 C 0.53377 0.6754 0.1557 0.0
N993 N 0.54734 0.67653 0.13347 0.0
C994 C 0.53262 0.69281 0.16382 0.0
C995 C 0.55931 0.71241 0.12574 0.0
C996 C 0.5597 0.69444 0.11794 0.0
C997 C 0.54599 0.71184 0.14957 0.0
H998 H 0.52447 0.6611 0.16822 0.0
H999 H 0.57051 0.69514 0.10059 0.0
C1000 C 0.54343 0.58865 0.15074 0.0
N1001 N 0.52758 0.54812 0.16972 0.0
C1002 C 0.53369 0.57253 0.12907 0.0
C1003 C 0.54511 0.5841 0.18208 0.0
C1004 C 0.5258 0.55217 0.13911 0.0
C1005 C 0.53698 0.56353 0.19122 0.0
C1006 C 0.50999 0.63244 0.11242 0.0
C1007 C 0.49358 0.62796 0.13272 0.0
C1008 C 0.51249 0.64382 0.08511 0.0
C1009 C 0.48013 0.63527 0.12561 0.0
C1010 C 0.49872 0.65087 0.07885 0.0
N1011 N 0.48297 0.6465 0.09907 0.0
C1012 C 0.50896 0.61202 0.21226 0.0
C1013 C 0.49991 0.58076 0.18581 0.0
C1014 C 0.49574 0.60125 0.23699 0.0
N1015 N 0.51136 0.60167 0.18789 0.0
C1016 C 0.48673 0.5693 0.21034 0.0
C1017 C 0.48493 0.57955 0.23682 0.0
H1018 H 0.51768 0.62869 0.21281 0.0
H1019 H 0.50149 0.57288 0.16567 0.0
C1020 C 0.55761 0.60448 0.05527 0.0
N1021 N 0.54278 0.60821 0.06647 0.0
C1022 C 0.55234 0.58827 0.03415 0.0
C1023 C 0.51711 0.5814 0.03471 0.0
C1024 C 0.52307 0.59776 0.05562 0.0
C1025 C 0.53159 0.57574 0.02506 0.0
H1026 H 0.57309 0.61287 0.06477 0.0
H1027 H 0.51155 0.60084 0.06546 0.0
O1028 O 0.55206 0.6453 0.17549 0.0
O1029 O 0.57224 0.65092 0.10976 0.0
O1030 O 0.55133 0.60873 0.14129 0.0
O1031 O 0.52348 0.62565 0.11923 0.0
H1032 H 0.57276 0.68542 0.18783 0.0
H1033 H 0.55376 0.62507 0.2254 0.0
H1034 H 0.59075 0.70082 0.23799 0.0
H1035 H 0.57238 0.64156 0.27474 0.0
H1036 H 0.57247 0.67626 0.01267 0.0
H1037 H 0.60828 0.68537 0.11383 0.0
H1038 H 0.55614 0.64926 0.05367 0.0
H1039 H 0.62381 0.71169 0.07165 0.0
H1040 H 0.63109 0.6855 0.21383 0.0
H1041 H 0.61051 0.62033 0.22221 0.0
H1042 H 0.52178 0.69147 0.18182 0.0
H1043 H 0.57005 0.72676 0.11428 0.0
H1044 H 0.53217 0.57563 0.10476 0.0
H1045 H 0.55238 0.59629 0.19929 0.0
H1046 H 0.51823 0.53957 0.12256 0.0
H1047 H 0.53809 0.55982 0.21542 0.0
H1048 H 0.49133 0.61906 0.15384 0.0
H1049 H 0.525 0.64731 0.06905 0.0
H1050 H 0.46744 0.63203 0.14121 0.0
H1051 H 0.50055 0.65982 0.05792 0.0
H1052 H 0.49432 0.60986 0.25633 0.0
H1053 H 0.47872 0.55261 0.20905 0.0
H1054 H 0.56404 0.5846 0.02701 0.0
H1055 H 0.50091 0.57208 0.02876 0.0
C1056 C 0.52797 0.09144 0.0739 0.0
C1057 C 0.50665 0.08313 0.06998 0.0
C1058 C 0.54077 0.09417 0.04804 0.0
C1059 C 0.53196 0.08843 0.01768 0.0
C1060 C 0.51059 0.08085 0.01348 0.0
C1061 C 0.49822 0.07836 0.03966 0.0
C1062 C 0.56354 0.10245 0.05335 0.0
C1063 C 0.50061 0.07461 0.98149 0.0
C1064 C 0.56489 0.1056 0.94384 0.0
C1065 C 0.56606 0.08791 0.93654 0.0
C1066 C 0.55435 0.10628 0.97072 0.0
C1067 C 0.54466 0.08879 0.99059 0.0
C1068 C 0.5461 0.07104 0.98365 0.0
C1069 C 0.55686 0.07087 0.95684 0.0
C1070 C 0.55322 0.1255 0.97751 0.0
C1071 C 0.53592 0.05206 0.00422 0.0
H1072 H 0.53454 0.09513 0.0973 0.0
H1073 H 0.48181 0.0724 0.03643 0.0
H1074 H 0.56732 0.09013 0.04854 0.0
H1075 H 0.57279 0.11534 0.03691 0.0
H1076 H 0.56828 0.10802 0.07778 0.0
H1077 H 0.48404 0.07018 0.98198 0.0
H1078 H 0.50878 0.08745 0.96454 0.0
H1079 H 0.50182 0.0613 0.9726 0.0
H1080 H 0.57185 0.11879 0.92819 0.0
H1081 H 0.55812 0.05733 0.95181 0.0
H1082 H 0.55845 0.13086 0.00184 0.0
H1083 H 0.53698 0.12199 0.97571 0.0
H1084 H 0.56279 0.13827 0.96101 0.0
H1085 H 0.54147 0.05615 0.02875 0.0
H1086 H 0.53903 0.03976 0.99605 0.0
H1087 H 0.51896 0.04573 0.0045 0.0
C1088 C 0.48022 0.57517 0.29512 0.0
C1089 C 0.47283 0.5678 0.26479 0.0
C1090 C 0.46964 0.56392 0.32184 0.0
C1091 C 0.45142 0.54459 0.31822 0.0
C1092 C 0.44368 0.53713 0.28778 0.0
C1093 C 0.4544 0.54889 0.26143 0.0
C1094 C 0.47828 0.57248 0.35394 0.0
C1095 C 0.42437 0.51648 0.28304 0.0
C1096 C 0.43779 0.50615 0.38461 0.0
C1097 C 0.42173 0.50733 0.39975 0.0
C1098 C 0.44739 0.51803 0.35788 0.0
C1099 C 0.44108 0.53174 0.34628 0.0
C1100 C 0.42516 0.53332 0.3617 0.0
C1101 C 0.41557 0.52099 0.38813 0.0
C1102 C 0.46427 0.51584 0.34198 0.0
C1103 C 0.41823 0.548 0.35021 0.0
H1104 H 0.49463 0.58954 0.29808 0.0
H1105 H 0.44839 0.54319 0.23816 0.0
H1106 H 0.4662 0.57264 0.36887 0.0
H1107 H 0.48323 0.56242 0.36568 0.0
H1108 H 0.49173 0.5884 0.35276 0.0
H1109 H 0.42002 0.51318 0.25788 0.0
H1110 H 0.42675 0.50402 0.29258 0.0
H1111 H 0.41128 0.51596 0.29608 0.0
H1112 H 0.44295 0.49597 0.39373 0.0
H1113 H 0.40299 0.52182 0.39936 0.0
H1114 H 0.47892 0.53085 0.34224 0.0
H1115 H 0.46018 0.51141 0.31702 0.0
H1116 H 0.46698 0.50407 0.35349 0.0
H1117 H 0.43154 0.564 0.34974 0.0
H1118 H 0.40593 0.54769 0.36521 0.0
H1119 H 0.41233 0.54398 0.32584 0.0
C1120 C 0.92583 0.47433 0.59582 0.0
C1121 C 0.90919 0.47769 0.59098 0.0
C1122 C 0.92627 0.46306 0.62185 0.0
C1123 C 0.90968 0.45498 0.64349 0.0
C1124 C 0.89246 0.45762 0.63804 0.0
C1125 C 0.89242 0.46894 0.61183 0.0
C1126 C 0.94488 0.46053 0.62686 0.0
C1127 C 0.87442 0.44911 0.66048 0.0
C1128 C 0.90456 0.41406 0.70136 0.0
C1129 C 0.91371 0.42592 0.72836 0.0
C1130 C 0.90306 0.42327 0.67355 0.0
C1131 C 0.91087 0.44485 0.67277 0.0
C1132 C 0.91998 0.45687 0.70001 0.0
C1133 C 0.9213 0.44726 0.72747 0.0
C1134 C 0.89333 0.40999 0.64493 0.0
C1135 C 0.92841 0.47992 0.70011 0.0
H1136 H 0.93892 0.48124 0.57997 0.0
H1137 H 0.87939 0.47126 0.60791 0.0
H1138 H 0.95326 0.46905 0.64828 0.0
H1139 H 0.93998 0.44403 0.63063 0.0
H1140 H 0.95575 0.46639 0.60669 0.0
H1141 H 0.86167 0.45137 0.65183 0.0
H1142 H 0.86831 0.43237 0.66433 0.0
H1143 H 0.87961 0.45686 0.6836 0.0
H1144 H 0.89895 0.39759 0.70179 0.0
H1145 H 0.92819 0.45644 0.74836 0.0
H1146 H 0.90474 0.41513 0.62553 0.0
H1147 H 0.88019 0.41171 0.63667 0.0
H1148 H 0.88763 0.39338 0.6496 0.0
H1149 H 0.94071 0.48739 0.68212 0.0
H1150 H 0.93491 0.48702 0.72329 0.0
H1151 H 0.916 0.48332 0.6939 0.0
C1152 C 0.47379 0.91635 0.0563 0.0
C1153 C 0.4867 0.90779 0.05664 0.0
C1154 C 0.46161 0.91419 0.02999 0.0
C1155 C 0.46269 0.90353 0.00321 0.0
C1156 C 0.4755 0.89459 0.00362 0.0
C1157 C 0.48725 0.8967 0.0305 0.0
C1158 C 0.44786 0.92363 0.03064 0.0
C1159 C 0.47728 0.8834 0.97535 0.0
C1160 C 0.41901 0.88619 0.94437 0.0
C1161 C 0.42717 0.90283 0.92322 0.0
C1162 C 0.43059 0.88591 0.97009 0.0
C1163 C 0.45095 0.90248 0.97446 0.0
C1164 C 0.45967 0.91878 0.95235 0.0
C1165 C 0.44763 0.91884 0.92715 0.0
C1166 C 0.42074 0.86831 0.99328 0.0
C1167 C 0.48145 0.93659 0.956 0.0
H1168 H 0.47327 0.92479 0.07666 0.0
H1169 H 0.49743 0.89027 0.0307 0.0
H1170 H 0.45303 0.93594 0.01261 0.0
H1171 H 0.43173 0.91177 0.02485 0.0
H1172 H 0.44796 0.93043 0.05388 0.0
H1173 H 0.48721 0.87654 0.97998 0.0
H1174 H 0.46178 0.87094 0.96798 0.0
H1175 H 0.48392 0.89431 0.95536 0.0
H1176 H 0.40338 0.87352 0.94118 0.0
H1177 H 0.45403 0.93189 0.91123 0.0
H1178 H 0.41913 0.87424 0.01637 0.0
H1179 H 0.43069 0.86139 0.99686 0.0
H1180 H 0.40522 0.85601 0.98551 0.0
H1181 H 0.48241 0.94575 0.97708 0.0
H1182 H 0.48657 0.94701 0.93528 0.0
H1183 H 0.49234 0.93077 0.95954 0.0
C1184 C 0.57931 0.46879 0.38949 0.0
C1185 C 0.57445 0.4837 0.39977 0.0
C1186 C 0.57053 0.4574 0.36195 0.0
C1187 C 0.55646 0.4609 0.34448 0.0
C1188 C 0.55156 0.47595 0.35467 0.0
C1189 C 0.5607 0.48724 0.38204 0.0
C1190 C 0.57618 0.44152 0.35166 0.0
C1191 C 0.53654 0.48007 0.33675 0.0
C1192 C 0.54424 0.44509 0.259 0.0
C1193 C 0.52507 0.42692 0.2615 0.0
C1194 C 0.55507 0.45593 0.28592 0.0
C1195 C 0.54636 0.44852 0.31594 0.0
C1196 C 0.52724 0.42992 0.3186 0.0
C1197 C 0.51686 0.41932 0.29134 0.0
C1198 C 0.57554 0.4756 0.28223 0.0
C1199 C 0.51734 0.42164 0.35017 0.0
H1200 H 0.58978 0.46584 0.40317 0.0
H1201 H 0.55722 0.49905 0.38938 0.0
H1202 H 0.56221 0.42595 0.35163 0.0
H1203 H 0.58223 0.44478 0.3273 0.0
H1204 H 0.58796 0.44122 0.36719 0.0
H1205 H 0.53438 0.49229 0.34787 0.0
H1206 H 0.54211 0.48486 0.31238 0.0
H1207 H 0.5213 0.46572 0.33527 0.0
H1208 H 0.5507 0.45089 0.23595 0.0
H1209 H 0.5019 0.40543 0.29337 0.0
H1210 H 0.58748 0.47498 0.29691 0.0
H1211 H 0.57415 0.48892 0.29049 0.0
H1212 H 0.58092 0.47842 0.25746 0.0
H1213 H 0.52831 0.42016 0.36601 0.0
H1214 H 0.50305 0.40635 0.34829 0.0
H1215 H 0.51338 0.43263 0.36135 0.0
C1216 C 0.10201 0.54132 0.59918 0.0
C1217 C 0.09517 0.52016 0.60154 0.0
C1218 C 0.10127 0.55245 0.62523 0.0
C1219 C 0.09329 0.54209 0.65409 0.0
C1220 C 0.08652 0.52078 0.65662 0.0
C1221 C 0.08758 0.51009 0.63034 0.0
C1222 C 0.10879 0.57522 0.62179 0.0
C1223 C 0.07769 0.50913 0.6869 0.0
C1224 C 0.10435 0.57159 0.73086 0.0
C1225 C 0.08599 0.57202 0.73545 0.0
C1226 C 0.10719 0.56237 0.70404 0.0
C1227 C 0.09121 0.55324 0.68145 0.0
C1228 C 0.07277 0.55387 0.68572 0.0
C1229 C 0.07042 0.56334 0.71257 0.0
C1230 C 0.1271 0.56205 0.70018 0.0
C1231 C 0.05535 0.54424 0.66217 0.0
H1232 H 0.10801 0.54915 0.57699 0.0
H1233 H 0.08194 0.49366 0.63211 0.0
H1234 H 0.09584 0.57817 0.62591 0.0
H1235 H 0.12077 0.58411 0.63971 0.0
H1236 H 0.11535 0.58115 0.59815 0.0
H1237 H 0.07367 0.4927 0.68519 0.0
H1238 H 0.08894 0.51653 0.70629 0.0
H1239 H 0.06357 0.50965 0.69329 0.0
H1240 H 0.11638 0.57813 0.74852 0.0
H1241 H 0.05638 0.56403 0.71557 0.0
H1242 H 0.13415 0.56861 0.67704 0.0
H1243 H 0.1239 0.54588 0.70074 0.0
H1244 H 0.13848 0.57091 0.7189 0.0
H1245 H 0.061 0.55097 0.63856 0.0
H1246 H 0.04221 0.5465 0.6686 0.0
H1247 H 0.0496 0.52742 0.66041 0.0
C1248 C 0.34398 0.99474 0.06688 0.0
C1249 C 0.34478 0.01301 0.07713 0.0
C1250 C 0.33949 0.98826 0.03555 0.0
C1251 C 0.33647 0.00068 0.01355 0.0
C1252 C 0.33551 0.01812 0.02408 0.0
C1253 C 0.33917 0.02377 0.05587 0.0
C1254 C 0.33975 0.96901 0.0255 0.0
C1255 C 0.33262 0.03198 0.00139 0.0
C1256 C 0.35829 0.99876 0.93435 0.0
C1257 C 0.34044 0.9856 0.91707 0.0
C1258 C 0.35703 0.00492 0.96495 0.0
C1259 C 0.33749 0.99709 0.9794 0.0
C1260 C 0.31936 0.98457 0.96192 0.0
C1261 C 0.32105 0.97937 0.93077 0.0
C1262 C 0.37679 0.01894 0.98241 0.0
C1263 C 0.29823 0.9755 0.97668 0.0
H1264 H 0.34828 0.98615 0.08263 0.0
H1265 H 0.33886 0.03742 0.06357 0.0
H1266 H 0.32684 0.95973 0.00909 0.0
H1267 H 0.35439 0.97342 0.01298 0.0
H1268 H 0.33856 0.9592 0.04588 0.0
H1269 H 0.32863 0.04264 0.01365 0.0
H1270 H 0.34721 0.04138 0.98821 0.0
H1271 H 0.32038 0.02283 0.98398 0.0
H1272 H 0.37344 0.00354 0.92481 0.0
H1273 H 0.30706 0.96977 0.91764 0.0
H1274 H 0.37942 0.01001 0.00081 0.0
H1275 H 0.37564 0.03155 0.99428 0.0
H1276 H 0.39044 0.02594 0.96661 0.0
H1277 H 0.29597 0.96304 0.99315 0.0
H1278 H 0.28571 0.96884 0.95886 0.0
H1279 H 0.29678 0.98728 0.99048 0.0
C1280 C 0.35554 0.3464 0.26571 0.0
C1281 C 0.36636 0.33659 0.25573 0.0
C1282 C 0.35104 0.34685 0.29758 0.0
C1283 C 0.3575 0.33724 0.31996 0.0
C1284 C 0.36674 0.32573 0.3097 0.0
C1285 C 0.37107 0.32556 0.2777 0.0
C1286 C 0.34097 0.35913 0.30752 0.0
C1287 C 0.37377 0.31517 0.33274 0.0
C1288 C 0.37467 0.36576 0.39733 0.0
C1289 C 0.35745 0.35417 0.41664 0.0
C1290 C 0.37506 0.35995 0.36621 0.0
C1291 C 0.35774 0.34213 0.35386 0.0
C1292 C 0.34059 0.32989 0.37343 0.0
C1293 C 0.34062 0.33608 0.40463 0.0
C1294 C 0.39371 0.37345 0.34616 0.0
C1295 C 0.32194 0.3107 0.36111 0.0
H1296 H 0.35155 0.35467 0.24877 0.0
H1297 H 0.37954 0.31802 0.27031 0.0
H1298 H 0.32856 0.35039 0.3249 0.0
H1299 H 0.35264 0.37367 0.31897 0.0
H1300 H 0.3343 0.36317 0.28726 0.0
H1301 H 0.37717 0.30394 0.32095 0.0
H1302 H 0.38805 0.32695 0.34464 0.0
H1303 H 0.36192 0.30699 0.35112 0.0
H1304 H 0.38755 0.38001 0.40604 0.0
H1305 H 0.32731 0.32698 0.41945 0.0
H1306 H 0.3892 0.3803 0.32677 0.0
H1307 H 0.39982 0.36408 0.33536 0.0
H1308 H 0.40631 0.38618 0.35979 0.0
H1309 H 0.31391 0.31508 0.34344 0.0
H1310 H 0.31081 0.30177 0.38006 0.0
H1311 H 0.32672 0.30057 0.34916 0.0
C1312 C 0.03354 0.36335 0.60946 0.0
C1313 C 0.0181 0.36139 0.58865 0.0
C1314 C 0.02949 0.35937 0.64162 0.0
C1315 C 0.00946 0.35306 0.65316 0.0
C1316 C 0.99333 0.34904 0.63183 0.0
C1317 C 0.99787 0.35333 0.59981 0.0
C1318 C 0.04714 0.36388 0.66351 0.0
C1319 C 0.97165 0.34194 0.64313 0.0
C1320 C 0.99449 0.33725 0.73833 0.0
C1321 C 0.99605 0.35533 0.75098 0.0
C1322 C -0.00061 0.33635 0.7067 0.0
C1323 C 0.0061 0.35397 0.6874 0.0
C1324 C 0.00862 0.37251 0.70041 0.0
C1325 C 0.00345 0.37292 0.73188 0.0
C1326 C 0.99655 0.31633 0.69364 0.0
C1327 C 0.01591 0.39174 0.68071 0.0
H1328 H 0.04923 0.36955 0.60112 0.0
H1329 H 0.98579 0.35143 0.58374 0.0
H1330 H 0.05215 0.37879 0.67561 0.0
H1331 H 0.04225 0.35177 0.68182 0.0
H1332 H 0.06062 0.36501 0.65072 0.0
H1333 H 0.96038 0.33663 0.62347 0.0
H1334 H 0.96668 0.32918 0.66032 0.0
H1335 H 0.97127 0.35489 0.65522 0.0
H1336 H 0.98893 0.32363 0.75294 0.0
H1337 H 0.00427 0.38683 0.74104 0.0
H1338 H 0.0105 0.31906 0.68047 0.0
H1339 H 0.98344 0.30973 0.67687 0.0
H1340 H 0.99336 0.30476 0.71235 0.0
H1341 H 0.03058 0.39565 0.66864 0.0
H1342 H 0.01841 0.40527 0.69491 0.0
H1343 H 0.00429 0.38894 0.66231 0.0
C1344 C 0.65123 0.00393 0.06007 0.0
C1345 C 0.65111 0.9858 0.06911 0.0
C1346 C 0.65598 0.01131 0.02919 0.0
C1347 C 0.66014 1e-05 0.00655 0.0
C1348 C 0.66189 0.98283 0.01605 0.0
C1349 C 0.65772 0.97615 0.04737 0.0
C1350 C 0.65468 0.03017 0.02024 0.0
C1351 C 0.66616 0.97025 0.99265 0.0
C1352 C 0.63858 0.00256 0.92753 0.0
C1353 C 0.65631 0.01723 0.91147 0.0
C1354 C 0.6399 0.99577 0.95762 0.0
C1355 C 0.65934 0.00431 0.97266 0.0
C1356 C 0.67743 0.01825 0.95617 0.0
C1357 C 0.67572 0.02426 0.92557 0.0
C1358 C 0.62025 0.98036 0.97407 0.0
C1359 C 0.69841 0.02793 0.97153 0.0
H1360 H 0.6461 0.01158 0.07633 0.0
H1361 H 0.65837 0.96255 0.05427 0.0
H1362 H 0.66772 0.04044 0.00467 0.0
H1363 H 0.64015 0.02534 0.00712 0.0
H1364 H 0.65484 0.03913 0.04116 0.0
H1365 H 0.67083 0.95995 0.00438 0.0
H1366 H 0.65194 0.96053 0.97884 0.0
H1367 H 0.67843 0.98036 0.97588 0.0
H1368 H 0.62342 0.99713 0.91748 0.0
H1369 H 0.68963 0.03514 0.91323 0.0
H1370 H 0.61673 0.98819 0.99324 0.0
H1371 H 0.62212 0.96788 0.98485 0.0
H1372 H 0.60682 0.97326 0.95784 0.0
H1373 H 0.69975 0.03965 0.9888 0.0
H1374 H 0.71112 0.03566 0.95416 0.0
H1375 H 0.70049 0.01625 0.98453 0.0
C1376 C 0.6414 0.64535 0.26338 0.0
C1377 C 0.63247 0.65704 0.25359 0.0
C1378 C 0.64619 0.64477 0.29508 0.0
C1379 C 0.64212 0.65631 0.31744 0.0
C1380 C 0.63497 0.66964 0.30727 0.0
C1381 C 0.63016 0.66979 0.27549 0.0
C1382 C 0.65394 0.63044 0.30494 0.0
C1383 C 0.63065 0.68238 0.33029 0.0
C1384 C 0.62463 0.63024 0.39654 0.0
C1385 C 0.64283 0.6403 0.41431 0.0
C1386 C 0.62411 0.63582 0.36533 0.0
C1387 C 0.64224 0.65193 0.35146 0.0
C1388 C 0.66043 0.66281 0.36962 0.0
C1389 C 0.66054 0.65679 0.40085 0.0
C1390 C 0.60437 0.62376 0.34676 0.0
C1391 C 0.67994 0.68026 0.35574 0.0
H1392 H 0.64365 0.63579 0.24651 0.0
H1393 H 0.62319 0.67884 0.26833 0.0
H1394 H 0.6672 0.63838 0.32127 0.0
H1395 H 0.64149 0.61702 0.31763 0.0
H1396 H 0.65877 0.6246 0.28453 0.0
H1397 H 0.62885 0.69458 0.31832 0.0
H1398 H 0.61615 0.67217 0.34316 0.0
H1399 H 0.64323 0.68974 0.34787 0.0
H1400 H 0.611 0.61721 0.40651 0.0
H1401 H 0.67463 0.66467 0.41454 0.0
H1402 H 0.6069 0.61541 0.32729 0.0
H1403 H 0.59977 0.63439 0.33612 0.0
H1404 H 0.5914 0.61232 0.36145 0.0
H1405 H 0.68623 0.67405 0.33794 0.0
H1406 H 0.69198 0.68866 0.37384 0.0
H1407 H 0.6766 0.6914 0.34359 0.0
C1408 C 0.01271 0.66786 0.73169 0.0
C1409 C 0.01021 0.64943 0.74446 0.0
C1410 C 0.00803 0.66897 0.70002 0.0
C1411 C 0.00068 0.65124 0.68078 0.0
C1412 C 0.99752 0.63246 0.69379 0.0
C1413 C 0.00243 0.63183 0.72532 0.0
C1414 C 0.01154 0.68923 0.68693 0.0
C1415 C 0.9896 0.61312 0.67412 0.0
C1416 C 0.97196 0.64175 0.60413 0.0
C1417 C 0.98679 0.64295 0.58268 0.0
C1418 C 0.97672 0.64616 0.63604 0.0
C1419 C 0.99685 0.65209 0.6467 0.0
C1420 C 0.01243 0.65543 0.62469 0.0
C1421 C 0.0072 0.65078 0.59291 0.0
C1422 C 0.95965 0.64242 0.65866 0.0
C1423 C 0.03419 0.66209 0.63505 0.0
H1424 H 0.01862 0.68151 0.74634 0.0
H1425 H 0.00094 0.61765 0.73461 0.0
H1426 H 0.02415 0.69512 0.66932 0.0
H1427 H 0.99747 0.68701 0.67469 0.0
H1428 H 0.01575 0.70112 0.70548 0.0
H1429 H 0.98707 0.59955 0.68821 0.0
H1430 H 0.97482 0.60945 0.66269 0.0
H1431 H 0.00084 0.61565 0.65522 0.0
H1432 H 0.95616 0.63577 0.59656 0.0
H1433 H 0.01885 0.65217 0.57637 0.0
H1434 H 0.96521 0.65473 0.67673 0.0
H1435 H 0.95442 0.62754 0.67098 0.0
H1436 H 0.94615 0.64163 0.64643 0.0
H1437 H 0.03973 0.6749 0.65227 0.0
H1438 H 0.0451 0.66713 0.61493 0.0
H1439 H 0.03443 0.64896 0.64681 0.0
C1440 C 0.5144 0.96913 0.31799 0.0
C1441 C 0.53135 0.98314 0.29995 0.0
C1442 C 0.49942 0.97405 0.32787 0.0
C1443 C 0.50143 0.99322 0.31902 0.0
C1444 C 0.51979 0.00828 0.30417 0.0
C1445 C 0.53459 0.00307 0.29497 0.0
C1446 C 0.48048 0.95791 0.3448 0.0
C1447 C 0.52273 0.02902 0.29455 0.0
C1448 C 0.45608 0.99627 0.28694 0.0
C1449 C 0.45394 0.00899 0.30903 0.0
C1450 C 0.47047 0.98974 0.29122 0.0
C1451 C 0.48303 0.99594 0.31845 0.0
C1452 C 0.4797 0.00721 0.3422 0.0
C1453 C 0.4653 0.01381 0.33708 0.0
C1454 C 0.47348 0.97776 0.26514 0.0
C1455 C 0.49227 0.01356 0.37201 0.0
H1456 H 0.51186 0.95371 0.32202 0.0
H1457 H 0.54791 0.01403 0.28152 0.0
H1458 H 0.47507 0.96511 0.36238 0.0
H1459 H 0.46783 0.94951 0.3276 0.0
H1460 H 0.48348 0.94647 0.35678 0.0
H1461 H 0.53881 0.03983 0.28683 0.0
H1462 H 0.51214 0.02691 0.27481 0.0
H1463 H 0.51888 0.03621 0.31423 0.0
H1464 H 0.44768 0.99272 0.26496 0.0
H1465 H 0.46359 0.02347 0.3544 0.0
H1466 H 0.47314 0.96379 0.27463 0.0
H1467 H 0.48882 0.98748 0.25406 0.0
H1468 H 0.46146 0.97289 0.24664 0.0
H1469 H 0.49581 0.00152 0.37989 0.0
H1470 H 0.48411 0.01665 0.39119 0.0
H1471 H 0.50714 0.02794 0.3677 0.0
C1472 C 0.5427 0.51871 0.67691 0.0
C1473 C 0.54917 0.53065 0.64942 0.0
C1474 C 0.52157 0.50647 0.68407 0.0
C1475 C 0.50669 0.50589 0.66288 0.0
C1476 C 0.51322 0.51858 0.6358 0.0
C1477 C 0.53432 0.53084 0.62955 0.0
C1478 C 0.51521 0.49345 0.71343 0.0
C1479 C 0.49791 0.5183 0.61231 0.0
C1480 C 0.45433 0.46 0.64654 0.0
C1481 C 0.44143 0.46757 0.65622 0.0
C1482 C 0.4757 0.47147 0.65147 0.0
C1483 C 0.48431 0.49084 0.66681 0.0
C1484 C 0.47109 0.49729 0.68005 0.0
C1485 C 0.44976 0.48563 0.67439 0.0
C1486 C 0.4892 0.46398 0.63692 0.0
C1487 C 0.47961 0.51753 0.69736 0.0
H1488 H 0.55413 0.51854 0.69236 0.0
H1489 H 0.53914 0.53967 0.60794 0.0
H1490 H 0.50223 0.49393 0.72529 0.0
H1491 H 0.50978 0.47714 0.70709 0.0
H1492 H 0.52823 0.49861 0.73024 0.0
H1493 H 0.50555 0.52971 0.59312 0.0
H1494 H 0.48897 0.50271 0.60168 0.0
H1495 H 0.48674 0.52171 0.62419 0.0
H1496 H 0.44803 0.44609 0.63244 0.0
H1497 H 0.43978 0.49137 0.68235 0.0
H1498 H 0.50165 0.46615 0.6533 0.0
H1499 H 0.49664 0.47315 0.61549 0.0
H1500 H 0.48019 0.44742 0.6302 0.0
H1501 H 0.49268 0.52013 0.71274 0.0
H1502 H 0.46758 0.51816 0.71185 0.0
H1503 H 0.48554 0.53037 0.68012 0.0
C1504 C 0.00217 0.53887 0.97042 0.0
C1505 C 0.01902 0.55354 0.98791 0.0
C1506 C 0.99334 0.51775 0.9765 0.0
C1507 C 0.00119 0.51106 0.00133 0.0
C1508 C 0.01704 0.52584 0.02082 0.0
C1509 C 0.02602 0.54696 0.01358 0.0
C1510 C 0.97666 0.50257 0.95472 0.0
C1511 C 0.02535 0.51936 0.04814 0.0
C1512 C 0.96561 0.4539 0.01257 0.0
C1513 C 0.97457 0.44599 0.99191 0.0
C1514 C 0.97541 0.47514 0.0191 0.0
C1515 C 0.99426 0.4887 0.00391 0.0
C1516 C 0.00433 0.4805 0.9857 0.0
C1517 C 0.99445 0.45919 0.98025 0.0
C1518 C 0.96461 0.48321 0.03973 0.0
C1519 C 0.02436 0.49436 0.96882 0.0
H1520 H 0.99676 0.54377 0.95041 0.0
H1521 H 0.03895 0.55826 0.02735 0.0
H1522 H 0.98238 0.49352 0.9418 0.0
H1523 H 0.96291 0.4915 0.96837 0.0
H1524 H 0.97178 0.51034 0.93728 0.0
H1525 H 0.03369 0.53221 0.06511 0.0
H1526 H 0.01273 0.50598 0.06064 0.0
H1527 H 0.03632 0.51461 0.03937 0.0
H1528 H 0.95034 0.44367 0.02198 0.0
H1529 H 0.00146 0.45317 0.96429 0.0
H1530 H 0.95645 0.48902 0.0248 0.0
H1531 H 0.97589 0.49625 0.05443 0.0
H1532 H 0.95305 0.47093 0.05527 0.0
H1533 H 0.0214 0.5024 0.94931 0.0
H1534 H 0.03139 0.48558 0.95883 0.0
H1535 H 0.03565 0.50636 0.9849 0.0
C1536 C 0.95921 0.5034 0.35979 0.0
C1537 C 0.96527 0.52282 0.34671 0.0
C1538 C 0.97121 0.494 0.35583 0.0
C1539 C 0.9896 0.50413 0.33794 0.0
C1540 C 0.99466 0.52269 0.32199 0.0
C1541 C 0.98256 0.53201 0.32691 0.0
C1542 C 0.96533 0.47435 0.37367 0.0
C1543 C 0.01373 0.53355 0.30179 0.0
C1544 C 0.03195 0.49689 0.37283 0.0
C1545 C 0.02994 0.47998 0.35579 0.0
C1546 C 0.01956 0.50553 0.36614 0.0
C1547 C 0.00512 0.49736 0.34121 0.0
C1548 C 0.00401 0.48116 0.3225 0.0
C1549 C 0.01618 0.47232 0.33045 0.0
C1550 C 0.02093 0.52243 0.38726 0.0
C1551 C 0.98931 0.4725 0.29513 0.0
H1552 H 0.94603 0.49633 0.37548 0.0
H1553 H 0.98719 0.54695 0.31655 0.0
H1554 H 0.96625 0.46289 0.35828 0.0
H1555 H 0.97634 0.47782 0.39333 0.0
H1556 H 0.94948 0.46725 0.38355 0.0
H1557 H 0.01304 0.54494 0.28581 0.0
H1558 H 0.02753 0.54191 0.31701 0.0
H1559 H 0.01579 0.52227 0.28757 0.0
H1560 H 0.04238 0.50257 0.39275 0.0
H1561 H 0.01465 0.4592 0.31733 0.0
H1562 H 0.00613 0.5168 0.40004 0.0
H1563 H 0.02355 0.53598 0.37313 0.0
H1564 H 0.03357 0.52759 0.40479 0.0
H1565 H 0.97344 0.46213 0.30394 0.0
H1566 H 0.99351 0.46347 0.27908 0.0
H1567 H 0.98906 0.48506 0.28159 0.0
C1568 C 0.45385 0.97106 0.66305 0.0
C1569 C 0.44732 0.9772 0.6898 0.0
C1570 C 0.47486 0.98093 0.6547 0.0
C1571 C 0.48962 0.99701 0.67389 0.0
C1572 C 0.48297 0.00381 0.70013 0.0
C1573 C 0.46195 0.99387 0.70767 0.0
C1574 C 0.48132 0.97345 0.62632 0.0
C1575 C 0.49818 0.0208 0.72146 0.0
C1576 C 0.54382 0.00854 0.68968 0.0
C1577 C 0.5553 0.02857 0.67739 0.0
C1578 C 0.52236 0.997 0.68586 0.0
C1579 C 0.51215 0.00562 0.66903 0.0
C1580 C 0.52392 0.02463 0.65314 0.0
C1581 C 0.5454 0.03595 0.65759 0.0
C1582 C 0.51046 0.97673 0.70312 0.0
C1583 C 0.51367 0.03404 0.63417 0.0
H1584 H 0.44259 0.95821 0.64911 0.0
H1585 H 0.45713 0.99844 0.72874 0.0
H1586 H 0.49343 0.98663 0.6128 0.0
H1587 H 0.48793 0.9638 0.63407 0.0
H1588 H 0.46805 0.964 0.61054 0.0
H1589 H 0.49039 0.02497 0.73989 0.0
H1590 H 0.50821 0.01579 0.73316 0.0
H1591 H 0.50833 0.03484 0.70761 0.0
H1592 H 0.55123 0.00258 0.70493 0.0
H1593 H 0.55424 0.05122 0.64736 0.0
H1594 H 0.49796 0.96498 0.68819 0.0
H1595 H 0.50317 0.97901 0.72429 0.0
H1596 H 0.52061 0.97064 0.71076 0.0
H1597 H 0.50058 0.02207 0.62031 0.0
H1598 H 0.52475 0.04618 0.61796 0.0
H1599 H 0.50739 0.04121 0.65031 0.0
C1600 C 0.47965 0.45402 0.98987 0.0
C1601 C 0.46693 0.44666 0.01653 0.0
C1602 C 0.49046 0.47522 0.98263 0.0
C1603 C 0.48857 0.4893 0.00266 0.0
C1604 C 0.47463 0.48177 0.02824 0.0
C1605 C 0.46405 0.46062 0.03487 0.0
C1606 C 0.50491 0.4826 0.95486 0.0
C1607 C 0.47208 0.49621 0.05025 0.0
C1608 C 0.53158 0.54237 0.02385 0.0
C1609 C 0.52418 0.55485 0.01148 0.0
C1610 C 0.52121 0.52105 0.01834 0.0
C1611 C 0.50294 0.51194 1.00009 0.0
C1612 C 0.49668 0.52469 0.98472 0.0
C1613 C 0.50738 0.54604 0.99063 0.0
C1614 C 0.52858 0.50807 0.03496 0.0
C1615 C 0.47756 0.51562 0.9645 0.0
H1616 H 0.48179 0.44333 0.97535 0.0
H1617 H 0.45462 0.45527 0.05585 0.0
H1618 H 0.50433 0.49536 0.94247 0.0
H1619 H 0.52098 0.48864 0.96319 0.0
H1620 H 0.5012 0.46991 0.93792 0.0
H1621 H 0.45926 0.48778 0.06723 0.0
H1622 H 0.48657 0.50551 0.06369 0.0
H1623 H 0.46902 0.5071 0.0368 0.0
H1624 H 0.54441 0.54888 0.04018 0.0
H1625 H 0.50181 0.55564 0.98045 0.0
H1626 H 0.52826 0.49624 0.0189 0.0
H1627 H 0.51809 0.49984 0.0549 0.0
H1628 H 0.5445 0.51757 0.04431 0.0
H1629 H 0.47636 0.50278 0.94988 0.0
H1630 H 0.47739 0.52745 0.94891 0.0
H1631 H 0.4637 0.50925 0.97978 0.0
C1632 C 0.44229 0.24977 0.12481 0.0
C1633 C 0.4523 0.26794 0.14266 0.0
C1634 C 0.44131 0.2315 0.13525 0.0
C1635 C 0.45066 0.23145 0.16414 0.0
C1636 C 0.46108 0.24979 0.18201 0.0
C1637 C 0.46168 0.26777 0.17115 0.0
C1638 C 0.43003 0.21218 0.11559 0.0
C1639 C 0.47126 0.25033 0.2129 0.0
C1640 C 0.43051 0.17988 0.2052 0.0
C1641 C 0.44515 0.17433 0.19629 0.0
C1642 C 0.43227 0.19857 0.19523 0.0
C1643 C 0.44912 0.21206 0.17602 0.0
C1644 C 0.46428 0.20686 0.16773 0.0
C1645 C 0.46209 0.18802 0.17791 0.0
C1646 C 0.41583 0.20365 0.20464 0.0
C1647 C 0.48253 0.22093 0.14744 0.0
H1648 H 0.43517 0.24983 0.10267 0.0
H1649 H 0.46908 0.2816 0.18545 0.0
H1650 H 0.44052 0.2062 0.10964 0.0
H1651 H 0.41696 0.19998 0.12919 0.0
H1652 H 0.42388 0.21489 0.09346 0.0
H1653 H 0.47949 0.26606 0.22329 0.0
H1654 H 0.45947 0.23973 0.22988 0.0
H1655 H 0.48248 0.24487 0.20961 0.0
H1656 H 0.41752 0.16947 0.21969 0.0
H1657 H 0.47328 0.1837 0.17051 0.0
H1658 H 0.40801 0.20499 0.18338 0.0
H1659 H 0.42297 0.21878 0.21684 0.0
H1660 H 0.404 0.19175 0.22033 0.0
H1661 H 0.47706 0.22252 0.12396 0.0
H1662 H 0.49346 0.21508 0.14433 0.0
H1663 H 0.49099 0.23659 0.15795 0.0
C1664 C 0.19352 0.45036 0.46757 0.0
C1665 C 0.1736 0.43366 0.46244 0.0
C1666 C 0.20993 0.44715 0.47519 0.0
C1667 C 0.20632 0.42672 0.4776 0.0
C1668 C 0.18646 0.40981 0.4711 0.0
C1669 C 0.1703 0.41348 0.46362 0.0
C1670 C 0.23094 0.46559 0.48175 0.0
C1671 C 0.18211 0.38783 0.47323 0.0
C1672 C 0.25375 0.42075 0.47671 0.0
C1673 C 0.25705 0.4195 0.5089 0.0
C1674 C 0.23693 0.42247 0.46611 0.0
C1675 C 0.22319 0.42315 0.48823 0.0
C1676 C 0.22614 0.42145 0.5207 0.0
C1677 C 0.24303 0.4196 0.53065 0.0
C1678 C 0.23424 0.4242 0.4313 0.0
C1679 C 0.21176 0.42212 0.54497 0.0
H1680 H 0.19618 0.46599 0.46628 0.0
H1681 H 0.15488 0.40051 0.46003 0.0
H1682 H 0.23525 0.46525 0.50658 0.0
H1683 H 0.24281 0.465 0.46685 0.0
H1684 H 0.23139 0.48046 0.4774 0.0
H1685 H 0.16627 0.37651 0.46515 0.0
H1686 H 0.19341 0.38587 0.45893 0.0
H1687 H 0.18386 0.38421 0.49791 0.0
H1688 H 0.2647 0.42105 0.45975 0.0
H1689 H 0.24535 0.41839 0.5555 0.0
H1690 H 0.23642 0.43968 0.4259 0.0
H1691 H 0.21834 0.41263 0.42396 0.0
H1692 H 0.2454 0.42191 0.41709 0.0
H1693 H 0.21243 0.43727 0.54395 0.0
H1694 H 0.21572 0.41977 0.56919 0.0
H1695 H 0.19559 0.41005 0.5399 0.0
C1696 C 0.74026 0.19794 0.80263 0.0
C1697 C 0.73014 0.18128 0.82339 0.0
C1698 C 0.75971 0.21478 0.81007 0.0
C1699 C 0.76923 0.21486 0.83887 0.0
C1700 C 0.75906 0.19811 0.85992 0.0
C1701 C 0.73965 0.18152 0.85191 0.0
C1702 C 0.77011 0.23244 0.7871 0.0
C1703 C 0.76878 0.19762 0.89077 0.0
C1704 C 0.8274 0.24875 0.8443 0.0
C1705 C 0.82938 0.26609 0.86014 0.0
C1706 C 0.80789 0.23185 0.83753 0.0
C1707 C 0.78997 0.23235 0.84682 0.0
C1708 C 0.79186 0.24961 0.86345 0.0
C1709 C 0.81158 0.26629 0.86994 0.0
C1710 C 0.80645 0.21362 0.81998 0.0
C1711 C 0.77307 0.25064 0.87374 0.0
H1712 H 0.73288 0.19788 0.7807 0.0
H1713 H 0.73205 0.1685 0.8678 0.0
H1714 H 0.77338 0.24709 0.79858 0.0
H1715 H 0.78515 0.23424 0.77962 0.0
H1716 H 0.76054 0.23011 0.76589 0.0
H1717 H 0.75866 0.18358 0.90474 0.0
H1718 H 0.78365 0.19811 0.88641 0.0
H1719 H 0.77224 0.21143 0.90496 0.0
H1720 H 0.84114 0.24847 0.83699 0.0
H1721 H 0.81305 0.27979 0.8818 0.0
H1722 H 0.79831 0.21161 0.79734 0.0
H1723 H 0.79728 0.19926 0.83374 0.0
H1724 H 0.82188 0.21546 0.81508 0.0
H1725 H 0.76393 0.25011 0.85289 0.0
H1726 H 0.77721 0.26491 0.88724 0.0
H1727 H 0.76296 0.23707 0.88853 0.0
C1728 C 0.55024 0.74694 0.14008 0.0
C1729 C 0.54688 0.73107 0.161 0.0
C1730 C 0.55188 0.76542 0.15094 0.0
C1731 C 0.54979 0.76797 0.18344 0.0
C1732 C 0.54607 0.75193 0.20462 0.0
C1733 C 0.54488 0.73378 0.19321 0.0
C1734 C 0.55606 0.78231 0.12768 0.0
C1735 C 0.54354 0.75401 0.23939 0.0
C1736 C 0.57378 0.82308 0.2127 0.0
C1737 C 0.55687 0.82637 0.21185 0.0
C1738 C 0.5716 0.80398 0.2042 0.0
C1739 C 0.55195 0.78764 0.19525 0.0
C1740 C 0.53459 0.79043 0.19618 0.0
C1741 C 0.53727 0.80981 0.20424 0.0
C1742 C 0.59051 0.80161 0.20341 0.0
C1743 C 0.51332 0.7732 0.18737 0.0
H1744 H 0.55155 0.74491 0.11516 0.0
H1745 H 0.54275 0.72185 0.20972 0.0
H1746 H 0.54347 0.78606 0.12857 0.0
H1747 H 0.57061 0.79657 0.13395 0.0
H1748 H 0.5574 0.77794 0.10322 0.0
H1749 H 0.53969 0.73969 0.25252 0.0
H1750 H 0.55801 0.76689 0.24918 0.0
H1751 H 0.53115 0.75779 0.24347 0.0
H1752 H 0.5889 0.83568 0.21911 0.0
H1753 H 0.52415 0.81221 0.20311 0.0
H1754 H 0.59355 0.79881 0.17891 0.0
H1755 H 0.58789 0.78805 0.21753 0.0
H1756 H 0.60448 0.8155 0.21249 0.0
H1757 H 0.51293 0.76969 0.16199 0.0
H1758 H 0.50116 0.77724 0.19222 0.0
H1759 H 0.50957 0.75892 0.20047 0.0
C1760 C 0.8128 0.56508 0.46212 0.0
C1761 C 0.82545 0.56419 0.48561 0.0
C1762 C 0.79526 0.56643 0.46991 0.0
C1763 C 0.79035 0.56691 0.5019 0.0
C1764 C 0.8033 0.56644 0.52567 0.0
C1765 C 0.82072 0.56514 0.51724 0.0
C1766 C 0.78179 0.56696 0.44394 0.0
C1767 C 0.7986 0.56698 0.56004 0.0
C1768 C 0.75369 0.58634 0.52289 0.0
C1769 C 0.73498 0.56778 0.52667 0.0
C1770 C 0.77187 0.58632 0.51485 0.0
C1771 C 0.77131 0.56727 0.51061 0.0
C1772 C 0.75256 0.54849 0.5149 0.0
C1773 C 0.73461 0.54897 0.52284 0.0
C1774 C 0.79163 0.60665 0.5106 0.0
C1775 C 0.75139 0.52787 0.51067 0.0
H1776 H 0.81635 0.56425 0.43767 0.0
H1777 H 0.83071 0.5649 0.53548 0.0
H1778 H 0.76613 0.55317 0.44555 0.0
H1779 H 0.78001 0.58076 0.44653 0.0
H1780 H 0.78819 0.56728 0.42027 0.0
H1781 H 0.81056 0.56705 0.5756 0.0
H1782 H 0.79743 0.58092 0.56514 0.0
H1783 H 0.78345 0.55333 0.56593 0.0
H1784 H 0.7541 0.60092 0.52614 0.0
H1785 H 0.72014 0.53457 0.5252 0.0
H1786 H 0.79755 0.60775 0.48638 0.0
H1787 H 0.80365 0.60757 0.52688 0.0
H1788 H 0.78947 0.6201 0.51492 0.0
H1789 H 0.75588 0.5265 0.48635 0.0
H1790 H 0.73567 0.51468 0.51532 0.0
H1791 H 0.76244 0.52669 0.52674 0.0
C1792 C 0.19006 0.73265 0.8523 0.0
C1793 C 0.17074 0.73139 0.85374 0.0
C1794 C 0.20771 0.75096 0.84302 0.0
C1795 C 0.20589 0.76832 0.8347 0.0
C1796 C 0.18643 0.76717 0.83629 0.0
C1797 C 0.16908 0.74872 0.84595 0.0
C1798 C 0.22828 0.75173 0.84203 0.0
C1799 C 0.1839 0.78533 0.82742 0.0
C1800 C 0.25375 0.82125 0.83827 0.0
C1801 C 0.25981 0.82481 0.80667 0.0
C1802 C 0.23624 0.80292 0.84768 0.0
C1803 C 0.22444 0.78782 0.8249 0.0
C1804 C 0.23043 0.7913 0.79292 0.0
C1805 C 0.24817 0.80976 0.78418 0.0
C1806 C 0.23047 0.79966 0.88204 0.0
C1807 C 0.21808 0.77556 0.76798 0.0
H1808 H 0.19136 0.71928 0.85849 0.0
H1809 H 0.15408 0.74765 0.84659 0.0
H1810 H 0.23467 0.75536 0.81788 0.0
H1811 H 0.23948 0.76423 0.85759 0.0
H1812 H 0.22707 0.73693 0.84949 0.0
H1813 H 0.16767 0.78185 0.82975 0.0
H1814 H 0.19384 0.79879 0.84252 0.0
H1815 H 0.18896 0.78994 0.8028 0.0
H1816 H 0.26296 0.83271 0.8558 0.0
H1817 H 0.25283 0.81253 0.75974 0.0
H1818 H 0.23035 0.7856 0.89066 0.0
H1819 H 0.21467 0.79718 0.8853 0.0
H1820 H 0.24132 0.81297 0.89677 0.0
H1821 H 0.21755 0.76076 0.77317 0.0
H1822 H 0.22466 0.78075 0.74412 0.0
H1823 H 0.20192 0.77242 0.76802 0.0
loop_
_geom_bond_atom_site_label_1
_geom_bond_atom_site_label_2
_geom_bond_distance
_geom_bond_site_symmetry_2
_ccdc_geom_bond_type
Li0 N17 1.990 . S
Li0 O60 1.956 . S
Li0 O61 1.970 . S
Li0 O62 1.961 . S
Li1 N25 1.990 . S
Li1 O60 1.970 . S
Li1 O61 1.956 . S
Li1 O63 1.961 . S
Li2 N47 1.990 . S
Li2 O60 1.961 . S
Li2 O62 1.956 . S
Li2 O63 1.970 . S
Li3 N53 1.990 . S
Li3 O61 1.961 . S
Li3 O62 1.970 . S
Li3 O63 1.956 . S
C4 C6 1.348 . S
C4 C7 1.356 . S
C4 O60 1.325 . S
N5 C8 1.314 . S
N5 C9 1.279 . S
C6 C4 1.348 . S
C6 C8 1.353 . S
C6 H64 0.929 . S
C7 C4 1.356 . S
C7 C9 1.358 . S
C7 H65 0.930 . S
C8 N5 1.314 . S
C8 C6 1.353 . S
C8 H66 0.930 . S
C9 N5 1.279 . S
C9 C7 1.358 . S
C9 H67 0.930 . S
C10 C13 1.348 . S
C10 C14 1.356 . S
C10 O61 1.325 . S
C11 N12 1.279 . S
C11 C14 1.358 . S
C11 H68 0.930 . S
N12 C11 1.279 . S
N12 C15 1.314 . S
C13 C10 1.348 . S
C13 C15 1.353 . S
C13 H69 0.929 . S
C14 C10 1.356 . S
C14 C11 1.358 . S
C14 H70 0.930 . S
C15 N12 1.314 . S
C15 C13 1.353 . S
C15 H71 0.930 . S
C16 N17 1.314 . S
C16 C21 1.353 . S
C16 H22 0.930 . S
N17 Li0 1.990 . S
N17 C16 1.314 . S
N17 C19 1.279 . S
C18 C19 1.358 . S
C18 C20 1.356 . S
C18 H72 0.930 . S
C19 N17 1.279 . S
C19 C18 1.358 . S
C19 H23 0.930 . S
C20 C18 1.356 . S
C20 C21 1.348 . S
C21 C16 1.353 . S
C21 C20 1.348 . S
C21 H73 0.885 1_545 S
H22 C16 0.930 . S
H23 C19 0.930 . S
C24 N25 1.314 . S
C24 C26 1.353 . S
C24 H30 0.930 . S
N25 Li1 1.990 . S
N25 C24 1.314 . S
N25 C28 1.279 . S
C26 C24 1.353 . S
C26 C29 1.348 . S
C26 H74 0.929 . S
C27 C28 1.358 . S
C27 C29 1.356 . S
C27 H75 0.930 . S
C28 N25 1.279 . S
C28 C27 1.358 . S
C28 H31 0.930 . S
C29 C26 1.348 . S
C29 C27 1.356 . S
H30 C24 0.930 . S
H31 C28 0.930 . S
C32 C34 1.348 . S
C32 C35 1.356 . S
C32 O62 1.325 . S
N33 C36 1.314 . S
N33 C37 1.279 . S
C34 C32 1.348 . S
C34 C36 1.353 . S
C34 H76 0.929 . S
C35 C32 1.356 . S
C35 C37 1.358 . S
C35 H77 0.930 . S
C36 N33 1.314 . S
C36 C34 1.353 . S
C36 H78 0.930 . S
C37 N33 1.279 . S
C37 C35 1.358 . S
C37 H79 0.930 . S
C38 C39 1.348 . S
C38 C40 1.356 . S
C38 O63 1.325 . S
C39 C38 1.348 . S
C39 C41 1.353 . S
C39 H80 0.929 . S
C40 C38 1.356 . S
C40 C42 1.358 . S
C40 H81 0.930 . S
C41 C39 1.353 . S
C41 N43 1.314 . S
C41 H82 0.930 . S
C42 C40 1.358 . S
C42 N43 1.279 . S
C42 H83 0.930 . S
N43 C41 1.314 . S
N43 C42 1.279 . S
C44 C46 1.353 . S
C44 N47 1.314 . S
C44 H50 0.930 . S
C45 N47 1.279 . S
C45 C48 1.358 . S
C45 H51 0.930 . S
C46 C44 1.353 . S
C46 C49 1.348 . S
C46 H84 0.929 . S
N47 Li2 1.990 . S
N47 C44 1.314 . S
N47 C45 1.279 . S
C48 C45 1.358 . S
C48 C49 1.356 . S
C48 H85 0.930 . S
C49 C46 1.348 . S
C49 C48 1.356 . S
H50 C44 0.930 . S
H51 C45 0.930 . S
C52 N53 1.314 . S
C52 C54 1.353 . S
C52 H58 0.930 . S
N53 Li3 1.990 . S
N53 C52 1.314 . S
N53 C56 1.279 . S
C54 C52 1.353 . S
C54 C57 1.348 . S
C54 H86 0.929 . S
C55 C56 1.358 . S
C55 C57 1.356 . S
C55 H87 0.930 . S
C56 N53 1.279 . S
C56 C55 1.358 . S
C56 H59 0.930 . S
C57 C54 1.348 . S
C57 C55 1.356 . S
H58 C52 0.930 . S
H59 C56 0.930 . S
O60 Li0 1.956 . S
O60 Li1 1.970 . S
O60 Li2 1.961 . S
O60 C4 1.325 . S
O61 Li0 1.970 . S
O61 Li1 1.956 . S
O61 Li3 1.961 . S
O61 C10 1.325 . S
O62 Li0 1.961 . S
O62 Li2 1.956 . S
O62 Li3 1.970 . S
O62 C32 1.325 . S
O63 Li1 1.961 . S
O63 Li2 1.970 . S
O63 Li3 1.956 . S
O63 C38 1.325 . S
H64 C6 0.929 . S
H65 C7 0.930 . S
H66 C8 0.930 . S
H67 C9 0.930 . S
H68 C11 0.930 . S
H69 C13 0.929 . S
H70 C14 0.930 . S
H71 C15 0.930 . S
H72 C18 0.930 . S
H73 C21 0.885 1_565 S
H74 C26 0.929 . S
H75 C27 0.930 . S
H76 C34 0.929 . S
H77 C35 0.930 . S
H78 C36 0.930 . S
H79 C37 0.930 . S
H80 C39 0.929 . S
H81 C40 0.930 . S
H82 C41 0.930 . S
H83 C42 0.930 . S
H84 C46 0.929 . S
H85 C48 0.930 . S
H86 C54 0.929 . S
H87 C55 0.930 . S
Li88 N105 1.990 . S
Li88 O148 1.956 . S
Li88 O149 1.970 . S
Li88 O150 1.961 . S
Li89 N113 1.990 . S
Li89 O148 1.970 . S
Li89 O149 1.956 . S
Li89 O151 1.961 . S
Li90 N135 1.990 . S
Li90 O148 1.961 . S
Li90 O150 1.956 . S
Li90 O151 1.970 . S
Li91 N141 1.990 . S
Li91 O149 1.961 . S
Li91 O150 1.970 . S
Li91 O151 1.956 . S
C92 C94 1.348 . S
C92 C95 1.356 . S
C92 O148 1.325 . S
N93 C96 1.314 . S
N93 C97 1.279 . S
C94 C92 1.348 . S
C94 C96 1.353 . S
C94 H152 0.929 . S
C95 C92 1.356 . S
C95 C97 1.358 . S
C95 H153 0.930 . S
C96 N93 1.314 . S
C96 C94 1.353 . S
C96 H154 0.930 . S
C97 N93 1.279 . S
C97 C95 1.358 . S
C97 H155 0.930 . S
C98 C101 1.348 . S
C98 C102 1.356 . S
C98 O149 1.325 . S
C99 N100 1.279 . S
C99 C102 1.358 . S
C99 H156 0.930 . S
N100 C99 1.279 . S
N100 C103 1.314 . S
C101 C98 1.348 . S
C101 C103 1.353 . S
C101 H157 0.929 . S
C102 C98 1.356 . S
C102 C99 1.358 . S
C102 H158 0.930 . S
C103 N100 1.314 . S
C103 C101 1.353 . S
C103 H159 0.930 . S
C104 N105 1.314 . S
C104 C109 1.353 . S
C104 H110 0.930 . S
N105 Li88 1.990 . S
N105 C104 1.314 . S
N105 C107 1.279 . S
C106 C107 1.358 . S
C106 C108 1.356 . S
C106 H160 0.930 . S
C107 N105 1.279 . S
C107 C106 1.358 . S
C107 H111 0.930 . S
C108 C106 1.356 . S
C108 C109 1.348 . S
C109 C104 1.353 . S
C109 C108 1.348 . S
C109 H161 0.929 . S
H110 C104 0.930 . S
H111 C107 0.930 . S
C112 N113 1.314 . S
C112 C114 1.353 . S
C112 H118 0.930 . S
N113 Li89 1.990 . S
N113 C112 1.314 . S
N113 C116 1.279 . S
C114 C112 1.353 . S
C114 C117 1.348 . S
C114 H162 0.929 . S
C115 C116 1.358 . S
C115 C117 1.356 . S
C115 H163 0.930 . S
C116 N113 1.279 . S
C116 C115 1.358 . S
C116 H119 0.930 . S
C117 C114 1.348 . S
C117 C115 1.356 . S
H118 C112 0.930 . S
H119 C116 0.930 . S
C120 C122 1.348 . S
C120 C123 1.356 . S
C120 O150 1.325 . S
N121 C124 1.314 . S
N121 C125 1.279 . S
C122 C120 1.348 . S
C122 C124 1.353 . S
C122 H164 0.929 . S
C123 C120 1.356 . S
C123 C125 1.358 . S
C123 H165 0.930 . S
C124 N121 1.314 . S
C124 C122 1.353 . S
C124 H166 0.930 . S
C125 N121 1.279 . S
C125 C123 1.358 . S
C125 H167 0.930 . S
C126 C127 1.348 . S
C126 C128 1.356 . S
C126 O151 1.325 . S
C127 C126 1.348 . S
C127 C129 1.353 . S
C127 H168 0.929 . S
C128 C126 1.356 . S
C128 C130 1.358 . S
C128 H169 0.930 . S
C129 C127 1.353 . S
C129 N131 1.314 . S
C129 H170 0.930 . S
C130 C128 1.358 . S
C130 N131 1.279 . S
C130 H171 0.930 . S
N131 C129 1.314 . S
N131 C130 1.279 . S
C132 C134 1.353 . S
C132 N135 1.314 . S
C132 H138 0.930 . S
C133 N135 1.279 . S
C133 C136 1.358 . S
C133 H139 0.930 . S
C134 C132 1.353 . S
C134 C137 1.348 . S
C134 H172 0.929 . S
N135 Li90 1.990 . S
N135 C132 1.314 . S
N135 C133 1.279 . S
C136 C133 1.358 . S
C136 C137 1.356 . S
C136 H173 0.930 . S
C137 C134 1.348 . S
C137 C136 1.356 . S
H138 C132 0.930 . S
H139 C133 0.930 . S
C140 N141 1.314 . S
C140 C142 1.353 . S
C140 H146 0.930 . S
N141 Li91 1.990 . S
N141 C140 1.314 . S
N141 C144 1.279 . S
C142 C140 1.353 . S
C142 C145 1.348 . S
C142 H174 0.929 . S
C143 C144 1.358 . S
C143 C145 1.356 . S
C143 H175 0.930 . S
C144 N141 1.279 . S
C144 C143 1.358 . S
C144 H147 0.930 . S
C145 C142 1.348 . S
C145 C143 1.356 . S
H146 C140 0.930 . S
H147 C144 0.930 . S
O148 Li88 1.956 . S
O148 Li89 1.970 . S
O148 Li90 1.961 . S
O148 C92 1.325 . S
O149 Li88 1.970 . S
O149 Li89 1.956 . S
O149 Li91 1.961 . S
O149 C98 1.325 . S
O150 Li88 1.961 . S
O150 Li90 1.956 . S
O150 Li91 1.970 . S
O150 C120 1.325 . S
O151 Li89 1.961 . S
O151 Li90 1.970 . S
O151 Li91 1.956 . S
O151 C126 1.325 . S
H152 C94 0.929 . S
H153 C95 0.930 . S
H154 C96 0.930 . S
H155 C97 0.930 . S
H156 C99 0.930 . S
H157 C101 0.929 . S
H158 C102 0.930 . S
H159 C103 0.930 . S
H160 C106 0.930 . S
H161 C109 0.929 . S
H162 C114 0.929 . S
H163 C115 0.930 . S
H164 C122 0.929 . S
H165 C123 0.930 . S
H166 C124 0.930 . S
H167 C125 0.930 . S
H168 C127 0.929 . S
H169 C128 0.930 . S
H170 C129 0.930 . S
H171 C130 0.930 . S
H172 C134 0.929 . S
H173 C136 0.930 . S
H174 C142 0.929 . S
H175 C143 0.930 . S
Li176 N193 1.990 . S
Li176 O236 1.956 . S
Li176 O237 1.970 . S
Li176 O238 1.961 . S
Li177 N201 1.990 . S
Li177 O236 1.970 . S
Li177 O237 1.956 . S
Li177 O239 1.961 . S
Li178 N223 1.990 . S
Li178 O236 1.961 . S
Li178 O238 1.956 . S
Li178 O239 1.970 . S
Li179 N229 1.990 . S
Li179 O237 1.961 . S
Li179 O238 1.970 . S
Li179 O239 1.956 . S
C180 C182 1.348 . S
C180 C183 1.356 . S
C180 O236 1.325 . S
N181 C184 1.314 . S
N181 C185 1.279 . S
C182 C180 1.348 . S
C182 C184 1.353 . S
C182 H240 0.929 . S
C183 C180 1.356 . S
C183 C185 1.358 . S
C183 H241 0.930 . S
C184 N181 1.314 . S
C184 C182 1.353 . S
C184 H242 0.930 . S
C185 N181 1.279 . S
C185 C183 1.358 . S
C185 H243 0.930 . S
C186 C189 1.348 . S
C186 C190 1.356 . S
C186 O237 1.325 . S
C187 N188 1.279 . S
C187 C190 1.358 . S
C187 H244 0.930 . S
N188 C187 1.279 . S
N188 C191 1.314 . S
C189 C186 1.348 . S
C189 C191 1.353 . S
C189 H245 0.929 . S
C190 C186 1.356 . S
C190 C187 1.358 . S
C190 H246 0.930 . S
C191 N188 1.314 . S
C191 C189 1.353 . S
C191 H247 0.930 . S
C192 N193 1.314 . S
C192 C197 1.353 . S
C192 H198 0.930 . S
N193 Li176 1.990 . S
N193 C192 1.314 . S
N193 C195 1.279 . S
C194 C195 1.358 . S
C194 C196 1.356 . S
C194 H248 0.930 . S
C195 N193 1.279 . S
C195 C194 1.358 . S
C195 H199 0.930 . S
C196 C194 1.356 . S
C196 C197 1.348 . S
C197 C192 1.353 . S
C197 C196 1.348 . S
C197 H249 0.929 . S
H198 C192 0.930 . S
H199 C195 0.930 . S
C200 N201 1.314 . S
C200 C202 1.353 . S
C200 H206 0.930 . S
N201 Li177 1.990 . S
N201 C200 1.314 . S
N201 C204 1.279 . S
C202 C200 1.353 . S
C202 C205 1.348 . S
C202 H250 0.929 . S
C203 C204 1.358 . S
C203 C205 1.356 . S
C203 H251 0.930 . S
C204 N201 1.279 . S
C204 C203 1.358 . S
C204 H207 0.930 . S
C205 C202 1.348 . S
C205 C203 1.356 . S
H206 C200 0.930 . S
H207 C204 0.930 . S
C208 C210 1.348 . S
C208 C211 1.356 . S
C208 O238 1.325 . S
N209 C212 1.314 . S
N209 C213 1.279 . S
C210 C208 1.348 . S
C210 C212 1.353 . S
C210 H252 0.929 . S
C211 C208 1.356 . S
C211 C213 1.358 . S
C211 H253 0.930 . S
C212 N209 1.314 . S
C212 C210 1.353 . S
C212 H254 0.930 . S
C213 N209 1.279 . S
C213 C211 1.358 . S
C213 H255 0.930 . S
C214 C215 1.348 . S
C214 C216 1.356 . S
C214 O239 1.325 . S
C215 C214 1.348 . S
C215 C217 1.353 . S
C215 H256 0.929 . S
C216 C214 1.356 . S
C216 C218 1.358 . S
C216 H257 0.930 . S
C217 C215 1.353 . S
C217 N219 1.314 . S
C217 H258 0.930 . S
C218 C216 1.358 . S
C218 N219 1.279 . S
C218 H259 0.930 . S
N219 C217 1.314 . S
N219 C218 1.279 . S
C220 C222 1.353 . S
C220 N223 1.314 . S
C220 H226 0.930 . S
C221 N223 1.279 . S
C221 C224 1.358 . S
C221 H227 0.930 . S
C222 C220 1.353 . S
C222 C225 1.348 . S
C222 H260 0.897 1_655 S
N223 Li178 1.990 . S
N223 C220 1.314 . S
N223 C221 1.279 . S
C224 C221 1.358 . S
C224 C225 1.356 . S
C224 H261 0.930 . S
C225 C222 1.348 . S
C225 C224 1.356 . S
H226 C220 0.930 . S
H227 C221 0.930 . S
C228 N229 1.314 . S
C228 C230 1.353 . S
C228 H234 0.930 . S
N229 Li179 1.990 . S
N229 C228 1.314 . S
N229 C232 1.279 . S
C230 C228 1.353 . S
C230 C233 1.348 . S
C230 H262 0.929 . S
C231 C232 1.358 . S
C231 C233 1.356 . S
C231 H263 0.930 . S
C232 N229 1.279 . S
C232 C231 1.358 . S
C232 H235 0.930 . S
C233 C230 1.348 . S
C233 C231 1.356 . S
H234 C228 0.930 . S
H235 C232 0.930 . S
O236 Li176 1.956 . S
O236 Li177 1.970 . S
O236 Li178 1.961 . S
O236 C180 1.325 . S
O237 Li176 1.970 . S
O237 Li177 1.956 . S
O237 Li179 1.961 . S
O237 C186 1.325 . S
O238 Li176 1.961 . S
O238 Li178 1.956 . S
O238 Li179 1.970 . S
O238 C208 1.325 . S
O239 Li177 1.961 . S
O239 Li178 1.970 . S
O239 Li179 1.956 . S
O239 C214 1.325 . S
H240 C182 0.929 . S
H241 C183 0.930 . S
H242 C184 0.930 . S
H243 C185 0.930 . S
H244 C187 0.930 . S
H245 C189 0.929 . S
H246 C190 0.930 . S
H247 C191 0.930 . S
H248 C194 0.930 . S
H249 C197 0.929 . S
H250 C202 0.929 . S
H251 C203 0.930 . S
H252 C210 0.929 . S
H253 C211 0.930 . S
H254 C212 0.930 . S
H255 C213 0.930 . S
H256 C215 0.929 . S
H257 C216 0.930 . S
H258 C217 0.930 . S
H259 C218 0.930 . S
H260 C222 0.897 1_455 S
H261 C224 0.930 . S
H262 C230 0.929 . S
H263 C231 0.930 . S
Li264 N281 1.990 . S
Li264 O324 1.956 . S
Li264 O325 1.970 . S
Li264 O326 1.961 . S
Li265 N289 1.990 . S
Li265 O324 1.970 . S
Li265 O325 1.956 . S
Li265 O327 1.961 . S
Li266 N311 1.990 . S
Li266 O324 1.961 . S
Li266 O326 1.956 . S
Li266 O327 1.970 . S
Li267 N317 1.990 . S
Li267 O325 1.961 . S
Li267 O326 1.970 . S
Li267 O327 1.956 . S
C268 C270 1.348 . S
C268 C271 1.356 . S
C268 O324 1.325 . S
N269 C272 1.314 . S
N269 C273 1.279 . S
C270 C268 1.348 . S
C270 C272 1.353 . S
C270 H328 0.929 . S
C271 C268 1.356 . S
C271 C273 1.358 . S
C271 H329 0.930 . S
C272 N269 1.314 . S
C272 C270 1.353 . S
C272 H330 0.930 . S
C273 N269 1.279 . S
C273 C271 1.358 . S
C273 H331 0.930 . S
C274 C277 1.348 . S
C274 C278 1.356 . S
C274 O325 1.325 . S
C275 N276 1.279 . S
C275 C278 1.358 . S
C275 H332 0.930 . S
N276 C275 1.279 . S
N276 C279 1.314 . S
C277 C274 1.348 . S
C277 C279 1.353 . S
C277 H333 0.929 . S
C278 C274 1.356 . S
C278 C275 1.358 . S
C278 H334 0.930 . S
C279 N276 1.314 . S
C279 C277 1.353 . S
C279 H335 0.930 . S
C280 N281 1.314 . S
C280 C285 1.353 . S
C280 H286 0.930 . S
N281 Li264 1.990 . S
N281 C280 1.314 . S
N281 C283 1.279 . S
C282 C283 1.358 . S
C282 C284 1.356 . S
C282 H336 0.930 . S
C283 N281 1.279 . S
C283 C282 1.358 . S
C283 H287 0.930 . S
C284 C282 1.356 . S
C284 C285 1.348 . S
C285 C280 1.353 . S
C285 C284 1.348 . S
C285 H337 0.929 . S
H286 C280 0.930 . S
H287 C283 0.930 . S
C288 N289 1.314 . S
C288 C290 1.353 . S
C288 H294 0.930 . S
N289 Li265 1.990 . S
N289 C288 1.314 . S
N289 C292 1.279 . S
C290 C288 1.353 . S
C290 C293 1.348 . S
C290 H338 0.929 . S
C291 C292 1.358 . S
C291 C293 1.356 . S
C291 H339 0.930 . S
C292 N289 1.279 . S
C292 C291 1.358 . S
C292 H295 0.930 . S
C293 C290 1.348 . S
C293 C291 1.356 . S
H294 C288 0.930 . S
H295 C292 0.930 . S
C296 C298 1.348 . S
C296 C299 1.356 . S
C296 O326 1.325 . S
N297 C300 1.314 . S
N297 C301 1.279 . S
C298 C296 1.348 . S
C298 C300 1.353 . S
C298 H340 0.929 . S
C299 C296 1.356 . S
C299 C301 1.358 . S
C299 H341 0.930 . S
C300 N297 1.314 . S
C300 C298 1.353 . S
C300 H342 0.930 . S
C301 N297 1.279 . S
C301 C299 1.358 . S
C301 H343 0.930 . S
C302 C303 1.348 . S
C302 C304 1.356 . S
C302 O327 1.325 . S
C303 C302 1.348 . S
C303 C305 1.353 . S
C303 H344 0.929 . S
C304 C302 1.356 . S
C304 C306 1.358 . S
C304 H345 0.930 . S
C305 C303 1.353 . S
C305 N307 1.314 . S
C305 H346 0.930 . S
C306 C304 1.358 . S
C306 N307 1.279 . S
C306 H347 0.930 . S
N307 C305 1.314 . S
N307 C306 1.279 . S
C308 C310 1.353 . S
C308 N311 1.314 . S
C308 H314 0.930 . S
C309 N311 1.279 . S
C309 C312 1.358 . S
C309 H315 0.930 . S
C310 C308 1.353 . S
C310 C313 1.348 . S
C310 H348 0.886 1_565 S
N311 Li266 1.990 . S
N311 C308 1.314 . S
N311 C309 1.279 . S
C312 C309 1.358 . S
C312 C313 1.356 . S
C312 H349 0.930 . S
C313 C310 1.348 . S
C313 C312 1.356 . S
H314 C308 0.930 . S
H315 C309 0.930 . S
C316 N317 1.314 . S
C316 C318 1.353 . S
C316 H322 0.930 . S
N317 Li267 1.990 . S
N317 C316 1.314 . S
N317 C320 1.279 . S
C318 C316 1.353 . S
C318 C321 1.348 . S
C318 H350 0.929 . S
C319 C320 1.358 . S
C319 C321 1.356 . S
C319 H351 0.930 . S
C320 N317 1.279 . S
C320 C319 1.358 . S
C320 H323 0.930 . S
C321 C318 1.348 . S
C321 C319 1.356 . S
H322 C316 0.930 . S
H323 C320 0.930 . S
O324 Li264 1.956 . S
O324 Li265 1.970 . S
O324 Li266 1.961 . S
O324 C268 1.325 . S
O325 Li264 1.970 . S
O325 Li265 1.956 . S
O325 Li267 1.961 . S
O325 C274 1.325 . S
O326 Li264 1.961 . S
O326 Li266 1.956 . S
O326 Li267 1.970 . S
O326 C296 1.325 . S
O327 Li265 1.961 . S
O327 Li266 1.970 . S
O327 Li267 1.956 . S
O327 C302 1.325 . S
H328 C270 0.929 . S
H329 C271 0.930 . S
H330 C272 0.930 . S
H331 C273 0.930 . S
H332 C275 0.930 . S
H333 C277 0.929 . S
H334 C278 0.930 . S
H335 C279 0.930 . S
H336 C282 0.930 . S
H337 C285 0.929 . S
H338 C290 0.929 . S
H339 C291 0.930 . S
H340 C298 0.929 . S
H341 C299 0.930 . S
H342 C300 0.930 . S
H343 C301 0.930 . S
H344 C303 0.929 . S
H345 C304 0.930 . S
H346 C305 0.930 . S
H347 C306 0.930 . S
H348 C310 0.886 1_545 S
H349 C312 0.930 . S
H350 C318 0.929 . S
H351 C319 0.930 . S
Li352 N369 1.990 . S
Li352 O412 1.956 . S
Li352 O413 1.970 . S
Li352 O414 1.961 . S
Li353 N377 1.990 . S
Li353 O412 1.970 . S
Li353 O413 1.956 . S
Li353 O415 1.961 . S
Li354 N399 1.990 . S
Li354 O412 1.961 . S
Li354 O414 1.956 . S
Li354 O415 1.970 . S
Li355 N405 1.990 . S
Li355 O413 1.961 . S
Li355 O414 1.970 . S
Li355 O415 1.956 . S
C356 C358 1.348 . S
C356 C359 1.356 . S
C356 O412 1.325 . S
N357 C360 1.314 . S
N357 C361 1.279 . S
C358 C356 1.348 . S
C358 C360 1.353 . S
C358 H416 0.929 . S
C359 C356 1.356 . S
C359 C361 1.358 . S
C359 H417 0.930 . S
C360 N357 1.314 . S
C360 C358 1.353 . S
C360 H418 0.930 . S
C361 N357 1.279 . S
C361 C359 1.358 . S
C361 H419 0.930 . S
C362 C365 1.348 . S
C362 C366 1.356 . S
C362 O413 1.325 . S
C363 N364 1.279 . S
C363 C366 1.358 . S
C363 H420 0.930 . S
N364 C363 1.279 . S
N364 C367 1.314 . S
C365 C362 1.348 . S
C365 C367 1.353 . S
C365 H421 0.929 . S
C366 C362 1.356 . S
C366 C363 1.358 . S
C366 H422 0.930 . S
C367 N364 1.314 . S
C367 C365 1.353 . S
C367 H423 0.930 . S
C368 N369 1.314 . S
C368 C373 1.353 . S
C368 H374 0.930 . S
N369 Li352 1.990 . S
N369 C368 1.314 . S
N369 C371 1.279 . S
C370 C371 1.358 . S
C370 C372 1.356 . S
C370 H424 0.930 . S
C371 N369 1.279 . S
C371 C370 1.358 . S
C371 H375 0.930 . S
C372 C370 1.356 . S
C372 C373 1.348 . S
C373 C368 1.353 . S
C373 C372 1.348 . S
C373 H425 0.929 . S
H374 C368 0.930 . S
H375 C371 0.930 . S
C376 N377 1.314 . S
C376 C378 1.353 . S
C376 H382 0.930 . S
N377 Li353 1.990 . S
N377 C376 1.314 . S
N377 C380 1.279 . S
C378 C376 1.353 . S
C378 C381 1.348 . S
C378 H426 0.929 . S
C379 C380 1.358 . S
C379 C381 1.356 . S
C379 H427 0.930 . S
C380 N377 1.279 . S
C380 C379 1.358 . S
C380 H383 0.930 . S
C381 C378 1.348 . S
C381 C379 1.356 . S
H382 C376 0.930 . S
H383 C380 0.930 . S
C384 C386 1.348 . S
C384 C387 1.356 . S
C384 O414 1.325 . S
N385 C388 1.314 . S
N385 C389 1.279 . S
C386 C384 1.348 . S
C386 C388 1.353 . S
C386 H428 0.929 . S
C387 C384 1.356 . S
C387 C389 1.358 . S
C387 H429 0.930 . S
C388 N385 1.314 . S
C388 C386 1.353 . S
C388 H430 0.930 . S
C389 N385 1.279 . S
C389 C387 1.358 . S
C389 H431 0.930 . S
C390 C391 1.348 . S
C390 C392 1.356 . S
C390 O415 1.325 . S
C391 C390 1.348 . S
C391 C393 1.353 . S
C391 H432 0.929 . S
C392 C390 1.356 . S
C392 C394 1.358 . S
C392 H433 0.930 . S
C393 C391 1.353 . S
C393 N395 1.314 . S
C393 H434 0.930 . S
C394 C392 1.358 . S
C394 N395 1.279 . S
C394 H435 0.930 . S
N395 C393 1.314 . S
N395 C394 1.279 . S
C396 C398 1.353 . S
C396 N399 1.314 . S
C396 H402 0.930 . S
C397 N399 1.279 . S
C397 C400 1.358 . S
C397 H403 0.930 . S
C398 C396 1.353 . S
C398 C401 1.348 . S
C398 H436 0.929 . S
N399 Li354 1.990 . S
N399 C396 1.314 . S
N399 C397 1.279 . S
C400 C397 1.358 . S
C400 C401 1.356 . S
C400 H437 0.930 . S
C401 C398 1.348 . S
C401 C400 1.356 . S
H402 C396 0.930 . S
H403 C397 0.930 . S
C404 N405 1.314 . S
C404 C406 1.353 . S
C404 H410 0.930 . S
N405 Li355 1.990 . S
N405 C404 1.314 . S
N405 C408 1.279 . S
C406 C404 1.353 . S
C406 C409 1.348 . S
C406 H438 0.929 . S
C407 C408 1.358 . S
C407 C409 1.356 . S
C407 H439 0.930 . S
C408 N405 1.279 . S
C408 C407 1.358 . S
C408 H411 0.930 . S
C409 C406 1.348 . S
C409 C407 1.356 . S
H410 C404 0.930 . S
H411 C408 0.930 . S
O412 Li352 1.956 . S
O412 Li353 1.970 . S
O412 Li354 1.961 . S
O412 C356 1.325 . S
O413 Li352 1.970 . S
O413 Li353 1.956 . S
O413 Li355 1.961 . S
O413 C362 1.325 . S
O414 Li352 1.961 . S
O414 Li354 1.956 . S
O414 Li355 1.970 . S
O414 C384 1.325 . S
O415 Li353 1.961 . S
O415 Li354 1.970 . S
O415 Li355 1.956 . S
O415 C390 1.325 . S
H416 C358 0.929 . S
H417 C359 0.930 . S
H418 C360 0.930 . S
H419 C361 0.930 . S
H420 C363 0.930 . S
H421 C365 0.929 . S
H422 C366 0.930 . S
H423 C367 0.930 . S
H424 C370 0.930 . S
H425 C373 0.929 . S
H426 C378 0.929 . S
H427 C379 0.930 . S
H428 C386 0.929 . S
H429 C387 0.930 . S
H430 C388 0.930 . S
H431 C389 0.930 . S
H432 C391 0.929 . S
H433 C392 0.930 . S
H434 C393 0.930 . S
H435 C394 0.930 . S
H436 C398 0.929 . S
H437 C400 0.930 . S
H438 C406 0.929 . S
H439 C407 0.930 . S
Li440 N457 1.990 . S
Li440 O500 1.956 . S
Li440 O501 1.970 . S
Li440 O502 1.961 . S
Li441 N465 1.990 . S
Li441 O500 1.970 . S
Li441 O501 1.956 . S
Li441 O503 1.961 . S
Li442 N487 1.990 . S
Li442 O500 1.961 . S
Li442 O502 1.956 . S
Li442 O503 1.970 . S
Li443 N493 1.990 . S
Li443 O501 1.961 . S
Li443 O502 1.970 . S
Li443 O503 1.956 . S
C444 C446 1.348 . S
C444 C447 1.356 . S
C444 O500 1.325 . S
N445 C448 1.314 . S
N445 C449 1.279 . S
C446 C444 1.348 . S
C446 C448 1.353 . S
C446 H504 0.929 . S
C447 C444 1.356 . S
C447 C449 1.358 . S
C447 H505 0.930 . S
C448 N445 1.314 . S
C448 C446 1.353 . S
C448 H506 0.930 . S
C449 N445 1.279 . S
C449 C447 1.358 . S
C449 H507 0.930 . S
C450 C453 1.348 . S
C450 C454 1.356 . S
C450 O501 1.325 . S
C451 N452 1.279 . S
C451 C454 1.358 . S
C451 H508 0.930 . S
N452 C451 1.279 . S
N452 C455 1.314 . S
C453 C450 1.348 . S
C453 C455 1.353 . S
C453 H509 0.929 . S
C454 C450 1.356 . S
C454 C451 1.358 . S
C454 H510 0.930 . S
C455 N452 1.314 . S
C455 C453 1.353 . S
C455 H511 0.930 . S
C456 N457 1.314 . S
C456 C461 1.353 . S
C456 H462 0.930 . S
N457 Li440 1.990 . S
N457 C456 1.314 . S
N457 C459 1.279 . S
C458 C459 1.358 . S
C458 C460 1.356 . S
C458 H512 0.930 . S
C459 N457 1.279 . S
C459 C458 1.358 . S
C459 H463 0.930 . S
C460 C458 1.356 . S
C460 C461 1.348 . S
C461 C456 1.353 . S
C461 C460 1.348 . S
C461 H513 0.897 1_455 S
H462 C456 0.930 . S
H463 C459 0.930 . S
C464 N465 1.314 . S
C464 C466 1.353 . S
C464 H470 0.930 . S
N465 Li441 1.990 . S
N465 C464 1.314 . S
N465 C468 1.279 . S
C466 C464 1.353 . S
C466 C469 1.348 . S
C466 H514 0.929 . S
C467 C468 1.358 . S
C467 C469 1.356 . S
C467 H515 0.930 . S
C468 N465 1.279 . S
C468 C467 1.358 . S
C468 H471 0.930 . S
C469 C466 1.348 . S
C469 C467 1.356 . S
H470 C464 0.930 . S
H471 C468 0.930 . S
C472 C474 1.348 . S
C472 C475 1.356 . S
C472 O502 1.325 . S
N473 C476 1.314 . S
N473 C477 1.279 . S
C474 C472 1.348 . S
C474 C476 1.353 . S
C474 H516 0.929 . S
C475 C472 1.356 . S
C475 C477 1.358 . S
C475 H517 0.930 . S
C476 N473 1.314 . S
C476 C474 1.353 . S
C476 H518 0.930 . S
C477 N473 1.279 . S
C477 C475 1.358 . S
C477 H519 0.930 . S
C478 C479 1.348 . S
C478 C480 1.356 . S
C478 O503 1.325 . S
C479 C478 1.348 . S
C479 C481 1.353 . S
C479 H520 0.929 . S
C480 C478 1.356 . S
C480 C482 1.358 . S
C480 H521 0.930 . S
C481 C479 1.353 . S
C481 N483 1.314 . S
C481 H522 0.930 . S
C482 C480 1.358 . S
C482 N483 1.279 . S
C482 H523 0.930 . S
N483 C481 1.314 . S
N483 C482 1.279 . S
C484 C486 1.353 . S
C484 N487 1.314 . S
C484 H490 0.930 . S
C485 N487 1.279 . S
C485 C488 1.358 . S
C485 H491 0.930 . S
C486 C484 1.353 . S
C486 C489 1.348 . S
C486 H524 0.929 . S
N487 Li442 1.990 . S
N487 C484 1.314 . S
N487 C485 1.279 . S
C488 C485 1.358 . S
C488 C489 1.356 . S
C488 H525 0.930 . S
C489 C486 1.348 . S
C489 C488 1.356 . S
H490 C484 0.930 . S
H491 C485 0.930 . S
C492 N493 1.314 . S
C492 C494 1.353 . S
C492 H498 0.930 . S
N493 Li443 1.990 . S
N493 C492 1.314 . S
N493 C496 1.279 . S
C494 C492 1.353 . S
C494 C497 1.348 . S
C494 H526 0.929 . S
C495 C496 1.358 . S
C495 C497 1.356 . S
C495 H527 0.930 . S
C496 N493 1.279 . S
C496 C495 1.358 . S
C496 H499 0.930 . S
C497 C494 1.348 . S
C497 C495 1.356 . S
H498 C492 0.930 . S
H499 C496 0.930 . S
O500 Li440 1.956 . S
O500 Li441 1.970 . S
O500 Li442 1.961 . S
O500 C444 1.325 . S
O501 Li440 1.970 . S
O501 Li441 1.956 . S
O501 Li443 1.961 . S
O501 C450 1.325 . S
O502 Li440 1.961 . S
O502 Li442 1.956 . S
O502 Li443 1.970 . S
O502 C472 1.325 . S
O503 Li441 1.961 . S
O503 Li442 1.970 . S
O503 Li443 1.956 . S
O503 C478 1.325 . S
H504 C446 0.929 . S
H505 C447 0.930 . S
H506 C448 0.930 . S
H507 C449 0.930 . S
H508 C451 0.930 . S
H509 C453 0.929 . S
H510 C454 0.930 . S
H511 C455 0.930 . S
H512 C458 0.930 . S
H513 C461 0.897 1_655 S
H514 C466 0.929 . S
H515 C467 0.930 . S
H516 C474 0.929 . S
H517 C475 0.930 . S
H518 C476 0.930 . S
H519 C477 0.930 . S
H520 C479 0.929 . S
H521 C480 0.930 . S
H522 C481 0.930 . S
H523 C482 0.930 . S
H524 C486 0.929 . S
H525 C488 0.930 . S
H526 C494 0.929 . S
H527 C495 0.930 . S
Li528 N545 1.990 . S
Li528 O588 1.956 . S
Li528 O589 1.970 . S
Li528 O590 1.961 . S
Li529 N553 1.990 . S
Li529 O588 1.970 . S
Li529 O589 1.956 . S
Li529 O591 1.961 . S
Li530 N575 1.990 . S
Li530 O588 1.961 . S
Li530 O590 1.956 . S
Li530 O591 1.970 . S
Li531 N581 1.990 . S
Li531 O589 1.961 . S
Li531 O590 1.970 . S
Li531 O591 1.956 . S
C532 C534 1.348 . S
C532 C535 1.356 . S
C532 O588 1.325 . S
N533 C536 1.314 . S
N533 C537 1.279 . S
C534 C532 1.348 . S
C534 C536 1.353 . S
C534 H592 0.929 . S
C535 C532 1.356 . S
C535 C537 1.358 . S
C535 H593 0.930 . S
C536 N533 1.314 . S
C536 C534 1.353 . S
C536 H594 0.930 . S
C537 N533 1.279 . S
C537 C535 1.358 . S
C537 H595 0.930 . S
C538 C541 1.348 . S
C538 C542 1.356 . S
C538 O589 1.325 . S
C539 N540 1.279 . S
C539 C542 1.358 . S
C539 H596 0.930 . S
N540 C539 1.279 . S
N540 C543 1.314 . S
C541 C538 1.348 . S
C541 C543 1.353 . S
C541 H597 0.929 . S
C542 C538 1.356 . S
C542 C539 1.358 . S
C542 H598 0.930 . S
C543 N540 1.314 . S
C543 C541 1.353 . S
C543 H599 0.930 . S
C544 N545 1.314 . S
C544 C549 1.353 . S
C544 H550 0.930 . S
N545 Li528 1.990 . S
N545 C544 1.314 . S
N545 C547 1.279 . S
C546 C547 1.358 . S
C546 C548 1.356 . S
C546 H600 0.930 . S
C547 N545 1.279 . S
C547 C546 1.358 . S
C547 H551 0.930 . S
C548 C546 1.356 . S
C548 C549 1.348 . S
C549 C544 1.353 . S
C549 C548 1.348 . S
C549 H601 0.929 . S
H550 C544 0.930 . S
H551 C547 0.930 . S
C552 N553 1.314 . S
C552 C554 1.353 . S
C552 H558 0.930 . S
N553 Li529 1.990 . S
N553 C552 1.314 . S
N553 C556 1.279 . S
C554 C552 1.353 . S
C554 C557 1.348 . S
C554 H602 0.886 1_655 S
C555 C556 1.358 . S
C555 C557 1.356 . S
C555 H603 0.930 . S
C556 N553 1.279 . S
C556 C555 1.358 . S
C556 H559 0.930 . S
C557 C554 1.348 . S
C557 C555 1.356 . S
H558 C552 0.930 . S
H559 C556 0.930 . S
C560 C562 1.348 . S
C560 C563 1.356 . S
C560 O590 1.325 . S
N561 C564 1.314 . S
N561 C565 1.279 . S
C562 C560 1.348 . S
C562 C564 1.353 . S
C562 H604 0.929 . S
C563 C560 1.356 . S
C563 C565 1.358 . S
C563 H605 0.930 . S
C564 N561 1.314 . S
C564 C562 1.353 . S
C564 H606 0.930 . S
C565 N561 1.279 . S
C565 C563 1.358 . S
C565 H607 0.930 . S
C566 C567 1.348 . S
C566 C568 1.356 . S
C566 O591 1.325 . S
C567 C566 1.348 . S
C567 C569 1.353 . S
C567 H608 0.929 . S
C568 C566 1.356 . S
C568 C570 1.358 . S
C568 H609 0.930 . S
C569 C567 1.353 . S
C569 N571 1.314 . S
C569 H610 0.930 . S
C570 C568 1.358 . S
C570 N571 1.279 . S
C570 H611 0.930 . S
N571 C569 1.314 . S
N571 C570 1.279 . S
C572 C574 1.353 . S
C572 N575 1.314 . S
C572 H578 0.930 . S
C573 N575 1.279 . S
C573 C576 1.358 . S
C573 H579 0.930 . S
C574 C572 1.353 . S
C574 C577 1.348 . S
C574 H612 0.929 . S
N575 Li530 1.990 . S
N575 C572 1.314 . S
N575 C573 1.279 . S
C576 C573 1.358 . S
C576 C577 1.356 . S
C576 H613 0.930 . S
C577 C574 1.348 . S
C577 C576 1.356 . S
H578 C572 0.930 . S
H579 C573 0.930 . S
C580 N581 1.314 . S
C580 C582 1.353 . S
C580 H586 0.930 . S
N581 Li531 1.990 . S
N581 C580 1.314 . S
N581 C584 1.279 . S
C582 C580 1.353 . S
C582 C585 1.348 . S
C582 H614 0.929 . S
C583 C584 1.358 . S
C583 C585 1.356 . S
C583 H615 0.930 . S
C584 N581 1.279 . S
C584 C583 1.358 . S
C584 H587 0.930 . S
C585 C582 1.348 . S
C585 C583 1.356 . S
H586 C580 0.930 . S
H587 C584 0.930 . S
O588 Li528 1.956 . S
O588 Li529 1.970 . S
O588 Li530 1.961 . S
O588 C532 1.325 . S
O589 Li528 1.970 . S
O589 Li529 1.956 . S
O589 Li531 1.961 . S
O589 C538 1.325 . S
O590 Li528 1.961 . S
O590 Li530 1.956 . S
O590 Li531 1.970 . S
O590 C560 1.325 . S
O591 Li529 1.961 . S
O591 Li530 1.970 . S
O591 Li531 1.956 . S
O591 C566 1.325 . S
H592 C534 0.929 . S
H593 C535 0.930 . S
H594 C536 0.930 . S
H595 C537 0.930 . S
H596 C539 0.930 . S
H597 C541 0.929 . S
H598 C542 0.930 . S
H599 C543 0.930 . S
H600 C546 0.930 . S
H601 C549 0.929 . S
H602 C554 0.886 1_455 S
H603 C555 0.930 . S
H604 C562 0.929 . S
H605 C563 0.930 . S
H606 C564 0.930 . S
H607 C565 0.930 . S
H608 C567 0.929 . S
H609 C568 0.930 . S
H610 C569 0.930 . S
H611 C570 0.930 . S
H612 C574 0.929 . S
H613 C576 0.930 . S
H614 C582 0.929 . S
H615 C583 0.930 . S
Li616 N633 1.990 . S
Li616 O676 1.956 . S
Li616 O677 1.970 . S
Li616 O678 1.961 . S
Li617 N641 1.990 . S
Li617 O676 1.970 . S
Li617 O677 1.956 . S
Li617 O679 1.961 . S
Li618 N663 1.990 . S
Li618 O676 1.961 . S
Li618 O678 1.956 . S
Li618 O679 1.970 . S
Li619 N669 1.990 . S
Li619 O677 1.961 . S
Li619 O678 1.970 . S
Li619 O679 1.956 . S
C620 C622 1.348 . S
C620 C623 1.356 . S
C620 O676 1.325 . S
N621 C624 1.314 . S
N621 C625 1.279 . S
C622 C620 1.348 . S
C622 C624 1.353 . S
C622 H680 0.929 . S
C623 C620 1.356 . S
C623 C625 1.358 . S
C623 H681 0.930 . S
C624 N621 1.314 . S
C624 C622 1.353 . S
C624 H682 0.930 . S
C625 N621 1.279 . S
C625 C623 1.358 . S
C625 H683 0.930 . S
C626 C629 1.348 . S
C626 C630 1.356 . S
C626 O677 1.325 . S
C627 N628 1.279 . S
C627 C630 1.358 . S
C627 H684 0.930 . S
N628 C627 1.279 . S
N628 C631 1.314 . S
C629 C626 1.348 . S
C629 C631 1.353 . S
C629 H685 0.929 . S
C630 C626 1.356 . S
C630 C627 1.358 . S
C630 H686 0.930 . S
C631 N628 1.314 . S
C631 C629 1.353 . S
C631 H687 0.930 . S
C632 N633 1.314 . S
C632 C637 1.353 . S
C632 H638 0.930 . S
N633 Li616 1.990 . S
N633 C632 1.314 . S
N633 C635 1.279 . S
C634 C635 1.358 . S
C634 C636 1.356 . S
C634 H688 0.930 . S
C635 N633 1.279 . S
C635 C634 1.358 . S
C635 H639 0.930 . S
C636 C634 1.356 . S
C636 C637 1.348 . S
C637 C632 1.353 . S
C637 C636 1.348 . S
C637 H689 0.929 . S
H638 C632 0.930 . S
H639 C635 0.930 . S
C640 N641 1.314 . S
C640 C642 1.353 . S
C640 H646 0.930 . S
N641 Li617 1.990 . S
N641 C640 1.314 . S
N641 C644 1.279 . S
C642 C640 1.353 . S
C642 C645 1.348 . S
C642 H690 0.929 . S
C643 C644 1.358 . S
C643 C645 1.356 . S
C643 H691 0.930 . S
C644 N641 1.279 . S
C644 C643 1.358 . S
C644 H647 0.930 . S
C645 C642 1.348 . S
C645 C643 1.356 . S
H646 C640 0.930 . S
H647 C644 0.930 . S
C648 C650 1.348 . S
C648 C651 1.356 . S
C648 O678 1.325 . S
N649 C652 1.314 . S
N649 C653 1.279 . S
C650 C648 1.348 . S
C650 C652 1.353 . S
C650 H692 0.929 . S
C651 C648 1.356 . S
C651 C653 1.358 . S
C651 H693 0.930 . S
C652 N649 1.314 . S
C652 C650 1.353 . S
C652 H694 0.930 . S
C653 N649 1.279 . S
C653 C651 1.358 . S
C653 H695 0.930 . S
C654 C655 1.348 . S
C654 C656 1.356 . S
C654 O679 1.325 . S
C655 C654 1.348 . S
C655 C657 1.353 . S
C655 H696 0.929 . S
C656 C654 1.356 . S
C656 C658 1.358 . S
C656 H697 0.930 . S
C657 C655 1.353 . S
C657 N659 1.314 . S
C657 H698 0.930 . S
C658 C656 1.358 . S
C658 N659 1.279 . S
C658 H699 0.930 . S
N659 C657 1.314 . S
N659 C658 1.279 . S
C660 C662 1.353 . S
C660 N663 1.314 . S
C660 H666 0.930 . S
C661 N663 1.279 . S
C661 C664 1.358 . S
C661 H667 0.930 . S
C662 C660 1.353 . S
C662 C665 1.348 . S
C662 H700 0.929 . S
N663 Li618 1.990 . S
N663 C660 1.314 . S
N663 C661 1.279 . S
C664 C661 1.358 . S
C664 C665 1.356 . S
C664 H701 0.930 . S
C665 C662 1.348 . S
C665 C664 1.356 . S
H666 C660 0.930 . S
H667 C661 0.930 . S
C668 N669 1.314 . S
C668 C670 1.353 . S
C668 H674 0.930 . S
N669 Li619 1.990 . S
N669 C668 1.314 . S
N669 C672 1.279 . S
C670 C668 1.353 . S
C670 C673 1.348 . S
C670 H702 0.899 1_565 S
C671 C672 1.358 . S
C671 C673 1.356 . S
C671 H703 0.930 . S
C672 N669 1.279 . S
C672 C671 1.358 . S
C672 H675 0.930 . S
C673 C670 1.348 . S
C673 C671 1.356 . S
H674 C668 0.930 . S
H675 C672 0.930 . S
O676 Li616 1.956 . S
O676 Li617 1.970 . S
O676 Li618 1.961 . S
O676 C620 1.325 . S
O677 Li616 1.970 . S
O677 Li617 1.956 . S
O677 Li619 1.961 . S
O677 C626 1.325 . S
O678 Li616 1.961 . S
O678 Li618 1.956 . S
O678 Li619 1.970 . S
O678 C648 1.325 . S
O679 Li617 1.961 . S
O679 Li618 1.970 . S
O679 Li619 1.956 . S
O679 C654 1.325 . S
H680 C622 0.929 . S
H681 C623 0.930 . S
H682 C624 0.930 . S
H683 C625 0.930 . S
H684 C627 0.930 . S
H685 C629 0.929 . S
H686 C630 0.930 . S
H687 C631 0.930 . S
H688 C634 0.930 . S
H689 C637 0.929 . S
H690 C642 0.929 . S
H691 C643 0.930 . S
H692 C650 0.929 . S
H693 C651 0.930 . S
H694 C652 0.930 . S
H695 C653 0.930 . S
H696 C655 0.929 . S
H697 C656 0.930 . S
H698 C657 0.930 . S
H699 C658 0.930 . S
H700 C662 0.929 . S
H701 C664 0.930 . S
H702 C670 0.899 1_545 S
H703 C671 0.930 . S
Li704 N721 1.990 . S
Li704 O764 1.956 . S
Li704 O765 1.970 . S
Li704 O766 1.961 . S
Li705 N729 1.990 . S
Li705 O764 1.970 . S
Li705 O765 1.956 . S
Li705 O767 1.961 . S
Li706 N751 1.990 . S
Li706 O764 1.961 . S
Li706 O766 1.956 . S
Li706 O767 1.970 . S
Li707 N757 1.990 . S
Li707 O765 1.961 . S
Li707 O766 1.970 . S
Li707 O767 1.956 . S
C708 C710 1.348 . S
C708 C711 1.356 . S
C708 O764 1.325 . S
N709 C712 1.314 . S
N709 C713 1.279 . S
C710 C708 1.348 . S
C710 C712 1.353 . S
C710 H768 0.929 . S
C711 C708 1.356 . S
C711 C713 1.358 . S
C711 H769 0.930 . S
C712 N709 1.314 . S
C712 C710 1.353 . S
C712 H770 0.930 . S
C713 N709 1.279 . S
C713 C711 1.358 . S
C713 H771 0.930 . S
C714 C717 1.348 . S
C714 C718 1.356 . S
C714 O765 1.325 . S
C715 N716 1.279 . S
C715 C718 1.358 . S
C715 H772 0.930 . S
N716 C715 1.279 . S
N716 C719 1.314 . S
C717 C714 1.348 . S
C717 C719 1.353 . S
C717 H773 0.929 . S
C718 C714 1.356 . S
C718 C715 1.358 . S
C718 H774 0.930 . S
C719 N716 1.314 . S
C719 C717 1.353 . S
C719 H775 0.930 . S
C720 N721 1.314 . S
C720 C725 1.353 . S
C720 H726 0.930 . S
N721 Li704 1.990 . S
N721 C720 1.314 . S
N721 C723 1.279 . S
C722 C723 1.358 . S
C722 C724 1.356 . S
C722 H776 0.930 . S
C723 N721 1.279 . S
C723 C722 1.358 . S
C723 H727 0.930 . S
C724 C722 1.356 . S
C724 C725 1.348 . S
C725 C720 1.353 . S
C725 C724 1.348 . S
C725 H777 0.929 . S
H726 C720 0.930 . S
H727 C723 0.930 . S
C728 N729 1.314 . S
C728 C730 1.353 . S
C728 H734 0.930 . S
N729 Li705 1.990 . S
N729 C728 1.314 . S
N729 C732 1.279 . S
C730 C728 1.353 . S
C730 C733 1.348 . S
C730 H778 0.929 . S
C731 C732 1.358 . S
C731 C733 1.356 . S
C731 H779 0.930 . S
C732 N729 1.279 . S
C732 C731 1.358 . S
C732 H735 0.930 . S
C733 C730 1.348 . S
C733 C731 1.356 . S
H734 C728 0.930 . S
H735 C732 0.930 . S
C736 C738 1.348 . S
C736 C739 1.356 . S
C736 O766 1.325 . S
N737 C740 1.314 . S
N737 C741 1.279 . S
C738 C736 1.348 . S
C738 C740 1.353 . S
C738 H780 0.929 . S
C739 C736 1.356 . S
C739 C741 1.358 . S
C739 H781 0.930 . S
C740 N737 1.314 . S
C740 C738 1.353 . S
C740 H782 0.930 . S
C741 N737 1.279 . S
C741 C739 1.358 . S
C741 H783 0.930 . S
C742 C743 1.348 . S
C742 C744 1.356 . S
C742 O767 1.325 . S
C743 C742 1.348 . S
C743 C745 1.353 . S
C743 H784 0.929 . S
C744 C742 1.356 . S
C744 C746 1.358 . S
C744 H785 0.930 . S
C745 C743 1.353 . S
C745 N747 1.314 . S
C745 H786 0.930 . S
C746 C744 1.358 . S
C746 N747 1.279 . S
C746 H787 0.930 . S
N747 C745 1.314 . S
N747 C746 1.279 . S
C748 C750 1.353 . S
C748 N751 1.314 . S
C748 H754 0.930 . S
C749 N751 1.279 . S
C749 C752 1.358 . S
C749 H755 0.930 . S
C750 C748 1.353 . S
C750 C753 1.348 . S
C750 H788 0.929 . S
N751 Li706 1.990 . S
N751 C748 1.314 . S
N751 C749 1.279 . S
C752 C749 1.358 . S
C752 C753 1.356 . S
C752 H789 0.930 . S
C753 C750 1.348 . S
C753 C752 1.356 . S
H754 C748 0.930 . S
H755 C749 0.930 . S
C756 N757 1.314 . S
C756 C758 1.353 . S
C756 H762 0.930 . S
N757 Li707 1.990 . S
N757 C756 1.314 . S
N757 C760 1.279 . S
C758 C756 1.353 . S
C758 C761 1.348 . S
C758 H790 0.929 . S
C759 C760 1.358 . S
C759 C761 1.356 . S
C759 H791 0.930 . S
C760 N757 1.279 . S
C760 C759 1.358 . S
C760 H763 0.930 . S
C761 C758 1.348 . S
C761 C759 1.356 . S
H762 C756 0.930 . S
H763 C760 0.930 . S
O764 Li704 1.956 . S
O764 Li705 1.970 . S
O764 Li706 1.961 . S
O764 C708 1.325 . S
O765 Li704 1.970 . S
O765 Li705 1.956 . S
O765 Li707 1.961 . S
O765 C714 1.325 . S
O766 Li704 1.961 . S
O766 Li706 1.956 . S
O766 Li707 1.970 . S
O766 C736 1.325 . S
O767 Li705 1.961 . S
O767 Li706 1.970 . S
O767 Li707 1.956 . S
O767 C742 1.325 . S
H768 C710 0.929 . S
H769 C711 0.930 . S
H770 C712 0.930 . S
H771 C713 0.930 . S
H772 C715 0.930 . S
H773 C717 0.929 . S
H774 C718 0.930 . S
H775 C719 0.930 . S
H776 C722 0.930 . S
H777 C725 0.929 . S
H778 C730 0.929 . S
H779 C731 0.930 . S
H780 C738 0.929 . S
H781 C739 0.930 . S
H782 C740 0.930 . S
H783 C741 0.930 . S
H784 C743 0.929 . S
H785 C744 0.930 . S
H786 C745 0.930 . S
H787 C746 0.930 . S
H788 C750 0.929 . S
H789 C752 0.930 . S
H790 C758 0.929 . S
H791 C759 0.930 . S
Li792 N809 1.990 . S
Li792 O852 1.956 . S
Li792 O853 1.970 . S
Li792 O854 1.961 . S
Li793 N817 1.990 . S
Li793 O852 1.970 . S
Li793 O853 1.956 . S
Li793 O855 1.961 . S
Li794 N839 1.990 . S
Li794 O852 1.961 . S
Li794 O854 1.956 . S
Li794 O855 1.970 . S
Li795 N845 1.990 . S
Li795 O853 1.961 . S
Li795 O854 1.970 . S
Li795 O855 1.956 . S
C796 C798 1.348 . S
C796 C799 1.356 . S
C796 O852 1.325 . S
N797 C800 1.314 . S
N797 C801 1.279 . S
C798 C796 1.348 . S
C798 C800 1.353 . S
C798 H856 0.929 . S
C799 C796 1.356 . S
C799 C801 1.358 . S
C799 H857 0.930 . S
C800 N797 1.314 . S
C800 C798 1.353 . S
C800 H858 0.930 . S
C801 N797 1.279 . S
C801 C799 1.358 . S
C801 H859 0.930 . S
C802 C805 1.348 . S
C802 C806 1.356 . S
C802 O853 1.325 . S
C803 N804 1.279 . S
C803 C806 1.358 . S
C803 H860 0.930 . S
N804 C803 1.279 . S
N804 C807 1.314 . S
C805 C802 1.348 . S
C805 C807 1.353 . S
C805 H861 0.929 . S
C806 C802 1.356 . S
C806 C803 1.358 . S
C806 H862 0.930 . S
C807 N804 1.314 . S
C807 C805 1.353 . S
C807 H863 0.930 . S
C808 N809 1.314 . S
C808 C813 1.353 . S
C808 H814 0.930 . S
N809 Li792 1.990 . S
N809 C808 1.314 . S
N809 C811 1.279 . S
C810 C811 1.358 . S
C810 C812 1.356 . S
C810 H864 0.930 . S
C811 N809 1.279 . S
C811 C810 1.358 . S
C811 H815 0.930 . S
C812 C810 1.356 . S
C812 C813 1.348 . S
C813 C808 1.353 . S
C813 C812 1.348 . S
C813 H865 0.929 . S
H814 C808 0.930 . S
H815 C811 0.930 . S
C816 N817 1.314 . S
C816 C818 1.353 . S
C816 H822 0.930 . S
N817 Li793 1.990 . S
N817 C816 1.314 . S
N817 C820 1.279 . S
C818 C816 1.353 . S
C818 C821 1.348 . S
C818 H866 0.929 . S
C819 C820 1.358 . S
C819 C821 1.356 . S
C819 H867 0.930 . S
C820 N817 1.279 . S
C820 C819 1.358 . S
C820 H823 0.930 . S
C821 C818 1.348 . S
C821 C819 1.356 . S
H822 C816 0.930 . S
H823 C820 0.930 . S
C824 C826 1.348 . S
C824 C827 1.356 . S
C824 O854 1.325 . S
N825 C828 1.314 . S
N825 C829 1.279 . S
C826 C824 1.348 . S
C826 C828 1.353 . S
C826 H868 0.929 . S
C827 C824 1.356 . S
C827 C829 1.358 . S
C827 H869 0.930 . S
C828 N825 1.314 . S
C828 C826 1.353 . S
C828 H870 0.930 . S
C829 N825 1.279 . S
C829 C827 1.358 . S
C829 H871 0.930 . S
C830 C831 1.348 . S
C830 C832 1.356 . S
C830 O855 1.325 . S
C831 C830 1.348 . S
C831 C833 1.353 . S
C831 H872 0.929 . S
C832 C830 1.356 . S
C832 C834 1.358 . S
C832 H873 0.930 . S
C833 C831 1.353 . S
C833 N835 1.314 . S
C833 H874 0.930 . S
C834 C832 1.358 . S
C834 N835 1.279 . S
C834 H875 0.930 . S
N835 C833 1.314 . S
N835 C834 1.279 . S
C836 C838 1.353 . S
C836 N839 1.314 . S
C836 H842 0.930 . S
C837 N839 1.279 . S
C837 C840 1.358 . S
C837 H843 0.930 . S
C838 C836 1.353 . S
C838 C841 1.348 . S
C838 H876 0.929 . S
N839 Li794 1.990 . S
N839 C836 1.314 . S
N839 C837 1.279 . S
C840 C837 1.358 . S
C840 C841 1.356 . S
C840 H877 0.930 . S
C841 C838 1.348 . S
C841 C840 1.356 . S
H842 C836 0.930 . S
H843 C837 0.930 . S
C844 N845 1.314 . S
C844 C846 1.353 . S
C844 H850 0.930 . S
N845 Li795 1.990 . S
N845 C844 1.314 . S
N845 C848 1.279 . S
C846 C844 1.353 . S
C846 C849 1.348 . S
C846 H878 0.886 1_455 S
C847 C848 1.358 . S
C847 C849 1.356 . S
C847 H879 0.930 . S
C848 N845 1.279 . S
C848 C847 1.358 . S
C848 H851 0.930 . S
C849 C846 1.348 . S
C849 C847 1.356 . S
H850 C844 0.930 . S
H851 C848 0.930 . S
O852 Li792 1.956 . S
O852 Li793 1.970 . S
O852 Li794 1.961 . S
O852 C796 1.325 . S
O853 Li792 1.970 . S
O853 Li793 1.956 . S
O853 Li795 1.961 . S
O853 C802 1.325 . S
O854 Li792 1.961 . S
O854 Li794 1.956 . S
O854 Li795 1.970 . S
O854 C824 1.325 . S
O855 Li793 1.961 . S
O855 Li794 1.970 . S
O855 Li795 1.956 . S
O855 C830 1.325 . S
H856 C798 0.929 . S
H857 C799 0.930 . S
H858 C800 0.930 . S
H859 C801 0.930 . S
H860 C803 0.930 . S
H861 C805 0.929 . S
H862 C806 0.930 . S
H863 C807 0.930 . S
H864 C810 0.930 . S
H865 C813 0.929 . S
H866 C818 0.929 . S
H867 C819 0.930 . S
H868 C826 0.929 . S
H869 C827 0.930 . S
H870 C828 0.930 . S
H871 C829 0.930 . S
H872 C831 0.929 . S
H873 C832 0.930 . S
H874 C833 0.930 . S
H875 C834 0.930 . S
H876 C838 0.929 . S
H877 C840 0.930 . S
H878 C846 0.886 1_655 S
H879 C847 0.930 . S
Li880 N897 1.990 . S
Li880 O940 1.956 . S
Li880 O941 1.970 . S
Li880 O942 1.961 . S
Li881 N905 1.990 . S
Li881 O940 1.970 . S
Li881 O941 1.956 . S
Li881 O943 1.961 . S
Li882 N927 1.990 . S
Li882 O940 1.961 . S
Li882 O942 1.956 . S
Li882 O943 1.970 . S
Li883 N933 1.990 . S
Li883 O941 1.961 . S
Li883 O942 1.970 . S
Li883 O943 1.956 . S
C884 C886 1.348 . S
C884 C887 1.356 . S
C884 O940 1.325 . S
N885 C888 1.314 . S
N885 C889 1.279 . S
C886 C884 1.348 . S
C886 C888 1.353 . S
C886 H944 0.929 . S
C887 C884 1.356 . S
C887 C889 1.358 . S
C887 H945 0.930 . S
C888 N885 1.314 . S
C888 C886 1.353 . S
C888 H946 0.930 . S
C889 N885 1.279 . S
C889 C887 1.358 . S
C889 H947 0.930 . S
C890 C893 1.348 . S
C890 C894 1.356 . S
C890 O941 1.325 . S
C891 N892 1.279 . S
C891 C894 1.358 . S
C891 H948 0.930 . S
N892 C891 1.279 . S
N892 C895 1.314 . S
C893 C890 1.348 . S
C893 C895 1.353 . S
C893 H949 0.929 . S
C894 C890 1.356 . S
C894 C891 1.358 . S
C894 H950 0.930 . S
C895 N892 1.314 . S
C895 C893 1.353 . S
C895 H951 0.930 . S
C896 N897 1.314 . S
C896 C901 1.353 . S
C896 H902 0.930 . S
N897 Li880 1.990 . S
N897 C896 1.314 . S
N897 C899 1.279 . S
C898 C899 1.358 . S
C898 C900 1.356 . S
C898 H952 0.930 . S
C899 N897 1.279 . S
C899 C898 1.358 . S
C899 H903 0.930 . S
C900 C898 1.356 . S
C900 C901 1.348 . S
C901 C896 1.353 . S
C901 C900 1.348 . S
C901 H953 0.929 . S
H902 C896 0.930 . S
H903 C899 0.930 . S
C904 N905 1.314 . S
C904 C906 1.353 . S
C904 H910 0.930 . S
N905 Li881 1.990 . S
N905 C904 1.314 . S
N905 C908 1.279 . S
C906 C904 1.353 . S
C906 C909 1.348 . S
C906 H954 0.898 1_545 S
C907 C908 1.358 . S
C907 C909 1.356 . S
C907 H955 0.930 . S
C908 N905 1.279 . S
C908 C907 1.358 . S
C908 H911 0.930 . S
C909 C906 1.348 . S
C909 C907 1.356 . S
H910 C904 0.930 . S
H911 C908 0.930 . S
C912 C914 1.348 . S
C912 C915 1.356 . S
C912 O942 1.325 . S
N913 C916 1.314 . S
N913 C917 1.279 . S
C914 C912 1.348 . S
C914 C916 1.353 . S
C914 H956 0.929 . S
C915 C912 1.356 . S
C915 C917 1.358 . S
C915 H957 0.930 . S
C916 N913 1.314 . S
C916 C914 1.353 . S
C916 H958 0.930 . S
C917 N913 1.279 . S
C917 C915 1.358 . S
C917 H959 0.930 . S
C918 C919 1.348 . S
C918 C920 1.356 . S
C918 O943 1.325 . S
C919 C918 1.348 . S
C919 C921 1.353 . S
C919 H960 0.929 . S
C920 C918 1.356 . S
C920 C922 1.358 . S
C920 H961 0.930 . S
C921 C919 1.353 . S
C921 N923 1.314 . S
C921 H962 0.930 . S
C922 C920 1.358 . S
C922 N923 1.279 . S
C922 H963 0.930 . S
N923 C921 1.314 . S
N923 C922 1.279 . S
C924 C926 1.353 . S
C924 N927 1.314 . S
C924 H930 0.930 . S
C925 N927 1.279 . S
C925 C928 1.358 . S
C925 H931 0.930 . S
C926 C924 1.353 . S
C926 C929 1.348 . S
C926 H964 0.929 . S
N927 Li882 1.990 . S
N927 C924 1.314 . S
N927 C925 1.279 . S
C928 C925 1.358 . S
C928 C929 1.356 . S
C928 H965 0.930 . S
C929 C926 1.348 . S
C929 C928 1.356 . S
H930 C924 0.930 . S
H931 C925 0.930 . S
C932 N933 1.314 . S
C932 C934 1.353 . S
C932 H938 0.930 . S
N933 Li883 1.990 . S
N933 C932 1.314 . S
N933 C936 1.279 . S
C934 C932 1.353 . S
C934 C937 1.348 . S
C934 H966 0.929 . S
C935 C936 1.358 . S
C935 C937 1.356 . S
C935 H967 0.930 . S
C936 N933 1.279 . S
C936 C935 1.358 . S
C936 H939 0.930 . S
C937 C934 1.348 . S
C937 C935 1.356 . S
H938 C932 0.930 . S
H939 C936 0.930 . S
O940 Li880 1.956 . S
O940 Li881 1.970 . S
O940 Li882 1.961 . S
O940 C884 1.325 . S
O941 Li880 1.970 . S
O941 Li881 1.956 . S
O941 Li883 1.961 . S
O941 C890 1.325 . S
O942 Li880 1.961 . S
O942 Li882 1.956 . S
O942 Li883 1.970 . S
O942 C912 1.325 . S
O943 Li881 1.961 . S
O943 Li882 1.970 . S
O943 Li883 1.956 . S
O943 C918 1.325 . S
H944 C886 0.929 . S
H945 C887 0.930 . S
H946 C888 0.930 . S
H947 C889 0.930 . S
H948 C891 0.930 . S
H949 C893 0.929 . S
H950 C894 0.930 . S
H951 C895 0.930 . S
H952 C898 0.930 . S
H953 C901 0.929 . S
H954 C906 0.898 1_565 S
H955 C907 0.930 . S
H956 C914 0.929 . S
H957 C915 0.930 . S
H958 C916 0.930 . S
H959 C917 0.930 . S
H960 C919 0.929 . S
H961 C920 0.930 . S
H962 C921 0.930 . S
H963 C922 0.930 . S
H964 C926 0.929 . S
H965 C928 0.930 . S
H966 C934 0.929 . S
H967 C935 0.930 . S
Li968 N985 1.990 . S
Li968 O1028 1.956 . S
Li968 O1029 1.970 . S
Li968 O1030 1.961 . S
Li969 N993 1.990 . S
Li969 O1028 1.970 . S
Li969 O1029 1.956 . S
Li969 O1031 1.961 . S
Li970 N1015 1.990 . S
Li970 O1028 1.961 . S
Li970 O1030 1.956 . S
Li970 O1031 1.970 . S
Li971 N1021 1.990 . S
Li971 O1029 1.961 . S
Li971 O1030 1.970 . S
Li971 O1031 1.956 . S
C972 C974 1.348 . S
C972 C975 1.356 . S
C972 O1028 1.325 . S
N973 C976 1.314 . S
N973 C977 1.279 . S
C974 C972 1.348 . S
C974 C976 1.353 . S
C974 H1032 0.929 . S
C975 C972 1.356 . S
C975 C977 1.358 . S
C975 H1033 0.930 . S
C976 N973 1.314 . S
C976 C974 1.353 . S
C976 H1034 0.930 . S
C977 N973 1.279 . S
C977 C975 1.358 . S
C977 H1035 0.930 . S
C978 C981 1.348 . S
C978 C982 1.356 . S
C978 O1029 1.325 . S
C979 N980 1.279 . S
C979 C982 1.358 . S
C979 H1036 0.930 . S
N980 C979 1.279 . S
N980 C983 1.314 . S
C981 C978 1.348 . S
C981 C983 1.353 . S
C981 H1037 0.929 . S
C982 C978 1.356 . S
C982 C979 1.358 . S
C982 H1038 0.930 . S
C983 N980 1.314 . S
C983 C981 1.353 . S
C983 H1039 0.930 . S
C984 N985 1.314 . S
C984 C989 1.353 . S
C984 H990 0.930 . S
N985 Li968 1.990 . S
N985 C984 1.314 . S
N985 C987 1.279 . S
C986 C987 1.358 . S
C986 C988 1.356 . S
C986 H1040 0.930 . S
C987 N985 1.279 . S
C987 C986 1.358 . S
C987 H991 0.930 . S
C988 C986 1.356 . S
C988 C989 1.348 . S
C989 C984 1.353 . S
C989 C988 1.348 . S
C989 H1041 0.929 . S
H990 C984 0.930 . S
H991 C987 0.930 . S
C992 N993 1.314 . S
C992 C994 1.353 . S
C992 H998 0.930 . S
N993 Li969 1.990 . S
N993 C992 1.314 . S
N993 C996 1.279 . S
C994 C992 1.353 . S
C994 C997 1.348 . S
C994 H1042 0.929 . S
C995 C996 1.358 . S
C995 C997 1.356 . S
C995 H1043 0.930 . S
C996 N993 1.279 . S
C996 C995 1.358 . S
C996 H999 0.930 . S
C997 C994 1.348 . S
C997 C995 1.356 . S
H998 C992 0.930 . S
H999 C996 0.930 . S
C1000 C1002 1.348 . S
C1000 C1003 1.356 . S
C1000 O1030 1.325 . S
N1001 C1004 1.314 . S
N1001 C1005 1.279 . S
C1002 C1000 1.348 . S
C1002 C1004 1.353 . S
C1002 H1044 0.929 . S
C1003 C1000 1.356 . S
C1003 C1005 1.358 . S
C1003 H1045 0.930 . S
C1004 N1001 1.314 . S
C1004 C1002 1.353 . S
C1004 H1046 0.930 . S
C1005 N1001 1.279 . S
C1005 C1003 1.358 . S
C1005 H1047 0.930 . S
C1006 C1007 1.348 . S
C1006 C1008 1.356 . S
C1006 O1031 1.325 . S
C1007 C1006 1.348 . S
C1007 C1009 1.353 . S
C1007 H1048 0.929 . S
C1008 C1006 1.356 . S
C1008 C1010 1.358 . S
C1008 H1049 0.930 . S
C1009 C1007 1.353 . S
C1009 N1011 1.314 . S
C1009 H1050 0.930 . S
C1010 C1008 1.358 . S
C1010 N1011 1.279 . S
C1010 H1051 0.930 . S
N1011 C1009 1.314 . S
N1011 C1010 1.279 . S
C1012 C1014 1.353 . S
C1012 N1015 1.314 . S
C1012 H1018 0.930 . S
C1013 N1015 1.279 . S
C1013 C1016 1.358 . S
C1013 H1019 0.930 . S
C1014 C1012 1.353 . S
C1014 C1017 1.348 . S
C1014 H1052 0.929 . S
N1015 Li970 1.990 . S
N1015 C1012 1.314 . S
N1015 C1013 1.279 . S
C1016 C1013 1.358 . S
C1016 C1017 1.356 . S
C1016 H1053 0.930 . S
C1017 C1014 1.348 . S
C1017 C1016 1.356 . S
H1018 C1012 0.930 . S
H1019 C1013 0.930 . S
C1020 N1021 1.314 . S
C1020 C1022 1.353 . S
C1020 H1026 0.930 . S
N1021 Li971 1.990 . S
N1021 C1020 1.314 . S
N1021 C1024 1.279 . S
C1022 C1020 1.353 . S
C1022 C1025 1.348 . S
C1022 H1054 0.929 . S
C1023 C1024 1.358 . S
C1023 C1025 1.356 . S
C1023 H1055 0.930 . S
C1024 N1021 1.279 . S
C1024 C1023 1.358 . S
C1024 H1027 0.930 . S
C1025 C1022 1.348 . S
C1025 C1023 1.356 . S
H1026 C1020 0.930 . S
H1027 C1024 0.930 . S
O1028 Li968 1.956 . S
O1028 Li969 1.970 . S
O1028 Li970 1.961 . S
O1028 C972 1.325 . S
O1029 Li968 1.970 . S
O1029 Li969 1.956 . S
O1029 Li971 1.961 . S
O1029 C978 1.325 . S
O1030 Li968 1.961 . S
O1030 Li970 1.956 . S
O1030 Li971 1.970 . S
O1030 C1000 1.325 . S
O1031 Li969 1.961 . S
O1031 Li970 1.970 . S
O1031 Li971 1.956 . S
O1031 C1006 1.325 . S
H1032 C974 0.929 . S
H1033 C975 0.930 . S
H1034 C976 0.930 . S
H1035 C977 0.930 . S
H1036 C979 0.930 . S
H1037 C981 0.929 . S
H1038 C982 0.930 . S
H1039 C983 0.930 . S
H1040 C986 0.930 . S
H1041 C989 0.929 . S
H1042 C994 0.929 . S
H1043 C995 0.930 . S
H1044 C1002 0.929 . S
H1045 C1003 0.930 . S
H1046 C1004 0.930 . S
H1047 C1005 0.930 . S
H1048 C1007 0.929 . S
H1049 C1008 0.930 . S
H1050 C1009 0.930 . S
H1051 C1010 0.930 . S
H1052 C1014 0.929 . S
H1053 C1016 0.930 . S
H1054 C1022 0.929 . S
H1055 C1023 0.930 . S
C1056 C1057 1.391 . S
C1056 C1058 1.394 . S
C1056 H1072 0.931 . S
C1057 C1056 1.391 . S
C1057 C1061 1.376 . S
C1058 C1056 1.394 . S
C1058 C1059 1.369 . S
C1058 C1062 1.531 . S
C1059 C1058 1.369 . S
C1059 C1060 1.410 . S
C1059 C1067 1.503 1_554 S
C1060 C1059 1.410 . S
C1060 C1061 1.392 . S
C1060 C1063 1.511 1_554 S
C1061 C1057 1.376 . S
C1061 C1060 1.392 . S
C1061 H1073 0.929 . S
C1062 C1058 1.531 . S
C1062 H1074 0.960 . S
C1062 H1075 0.962 . S
C1062 H1076 0.960 . S
C1063 C1060 1.511 1_556 S
C1063 H1077 0.961 . S
C1063 H1078 0.961 . S
C1063 H1079 0.961 . S
C1064 C1065 1.370 . S
C1064 C1066 1.363 . S
C1064 H1080 0.931 . S
C1065 C1064 1.370 . S
C1065 C1069 1.408 . S
C1066 C1064 1.363 . S
C1066 C1067 1.370 . S
C1066 C1070 1.524 . S
C1067 C1059 1.503 1_556 S
C1067 C1066 1.370 . S
C1067 C1068 1.403 . S
C1068 C1067 1.403 . S
C1068 C1069 1.404 . S
C1068 C1071 1.539 . S
C1069 C1065 1.408 . S
C1069 C1068 1.404 . S
C1069 H1081 0.930 . S
C1070 C1066 1.524 . S
C1070 H1082 0.956 . S
C1070 H1083 0.961 . S
C1070 H1084 0.961 . S
C1071 C1068 1.539 . S
C1071 H1085 0.958 1_556 S
C1071 H1086 0.961 . S
C1071 H1087 0.960 1_556 S
H1072 C1056 0.931 . S
H1073 C1061 0.929 . S
H1074 C1062 0.960 . S
H1075 C1062 0.962 . S
H1076 C1062 0.960 . S
H1077 C1063 0.961 . S
H1078 C1063 0.961 . S
H1079 C1063 0.961 . S
H1080 C1064 0.931 . S
H1081 C1069 0.930 . S
H1082 C1070 0.956 . S
H1083 C1070 0.961 . S
H1084 C1070 0.961 . S
H1085 C1071 0.958 1_554 S
H1086 C1071 0.961 . S
H1087 C1071 0.960 1_554 S
C1088 C1089 1.391 . S
C1088 C1090 1.394 . S
C1088 H1104 0.931 . S
C1089 C1088 1.391 . S
C1089 C1093 1.376 . S
C1090 C1088 1.394 . S
C1090 C1091 1.369 . S
C1090 C1094 1.531 . S
C1091 C1090 1.369 . S
C1091 C1092 1.410 . S
C1091 C1099 1.503 . S
C1092 C1091 1.410 . S
C1092 C1093 1.392 . S
C1092 C1095 1.511 . S
C1093 C1089 1.376 . S
C1093 C1092 1.392 . S
C1093 H1105 0.929 . S
C1094 C1090 1.531 . S
C1094 H1106 0.960 . S
C1094 H1107 0.962 . S
C1094 H1108 0.960 . S
C1095 C1092 1.511 . S
C1095 H1109 0.961 . S
C1095 H1110 0.961 . S
C1095 H1111 0.961 . S
C1096 C1097 1.370 . S
C1096 C1098 1.363 . S
C1096 H1112 0.931 . S
C1097 C1096 1.370 . S
C1097 C1101 1.408 . S
C1098 C1096 1.363 . S
C1098 C1099 1.370 . S
C1098 C1102 1.524 . S
C1099 C1091 1.503 . S
C1099 C1098 1.370 . S
C1099 C1100 1.403 . S
C1100 C1099 1.403 . S
C1100 C1101 1.404 . S
C1100 C1103 1.539 . S
C1101 C1097 1.408 . S
C1101 C1100 1.404 . S
C1101 H1113 0.930 . S
C1102 C1098 1.524 . S
C1102 H1114 0.956 . S
C1102 H1115 0.961 . S
C1102 H1116 0.961 . S
C1103 C1100 1.539 . S
C1103 H1117 0.958 . S
C1103 H1118 0.961 . S
C1103 H1119 0.960 . S
H1104 C1088 0.931 . S
H1105 C1093 0.929 . S
H1106 C1094 0.960 . S
H1107 C1094 0.962 . S
H1108 C1094 0.960 . S
H1109 C1095 0.961 . S
H1110 C1095 0.961 . S
H1111 C1095 0.961 . S
H1112 C1096 0.931 . S
H1113 C1101 0.930 . S
H1114 C1102 0.956 . S
H1115 C1102 0.961 . S
H1116 C1102 0.961 . S
H1117 C1103 0.958 . S
H1118 C1103 0.961 . S
H1119 C1103 0.960 . S
C1120 C1121 1.391 . S
C1120 C1122 1.394 . S
C1120 H1136 0.931 . S
C1121 C1120 1.391 . S
C1121 C1125 1.376 . S
C1122 C1120 1.394 . S
C1122 C1123 1.369 . S
C1122 C1126 1.531 . S
C1123 C1122 1.369 . S
C1123 C1124 1.410 . S
C1123 C1131 1.503 . S
C1124 C1123 1.410 . S
C1124 C1125 1.392 . S
C1124 C1127 1.511 . S
C1125 C1121 1.376 . S
C1125 C1124 1.392 . S
C1125 H1137 0.929 . S
C1126 C1122 1.531 . S
C1126 H1138 0.960 . S
C1126 H1139 0.962 . S
C1126 H1140 0.960 . S
C1127 C1124 1.511 . S
C1127 H1141 0.961 . S
C1127 H1142 0.961 . S
C1127 H1143 0.961 . S
C1128 C1129 1.370 . S
C1128 C1130 1.363 . S
C1128 H1144 0.931 . S
C1129 C1128 1.370 . S
C1129 C1133 1.408 . S
C1130 C1128 1.363 . S
C1130 C1131 1.370 . S
C1130 C1134 1.524 . S
C1131 C1123 1.503 . S
C1131 C1130 1.370 . S
C1131 C1132 1.403 . S
C1132 C1131 1.403 . S
C1132 C1133 1.404 . S
C1132 C1135 1.539 . S
C1133 C1129 1.408 . S
C1133 C1132 1.404 . S
C1133 H1145 0.930 . S
C1134 C1130 1.524 . S
C1134 H1146 0.956 . S
C1134 H1147 0.961 . S
C1134 H1148 0.961 . S
C1135 C1132 1.539 . S
C1135 H1149 0.958 . S
C1135 H1150 0.961 . S
C1135 H1151 0.960 . S
H1136 C1120 0.931 . S
H1137 C1125 0.929 . S
H1138 C1126 0.960 . S
H1139 C1126 0.962 . S
H1140 C1126 0.960 . S
H1141 C1127 0.961 . S
H1142 C1127 0.961 . S
H1143 C1127 0.961 . S
H1144 C1128 0.931 . S
H1145 C1133 0.930 . S
H1146 C1134 0.956 . S
H1147 C1134 0.961 . S
H1148 C1134 0.961 . S
H1149 C1135 0.958 . S
H1150 C1135 0.961 . S
H1151 C1135 0.960 . S
C1152 C1153 1.391 . S
C1152 C1154 1.394 . S
C1152 H1168 0.931 . S
C1153 C1152 1.391 . S
C1153 C1157 1.376 . S
C1154 C1152 1.394 . S
C1154 C1155 1.369 . S
C1154 C1158 1.531 . S
C1155 C1154 1.369 . S
C1155 C1156 1.410 . S
C1155 C1163 1.503 1_554 S
C1156 C1155 1.410 . S
C1156 C1157 1.392 . S
C1156 C1159 1.511 1_554 S
C1157 C1153 1.376 . S
C1157 C1156 1.392 . S
C1157 H1169 0.929 . S
C1158 C1154 1.531 . S
C1158 H1170 0.960 . S
C1158 H1171 0.962 . S
C1158 H1172 0.960 . S
C1159 C1156 1.511 1_556 S
C1159 H1173 0.961 . S
C1159 H1174 0.961 . S
C1159 H1175 0.961 . S
C1160 C1161 1.370 . S
C1160 C1162 1.363 . S
C1160 H1176 0.931 . S
C1161 C1160 1.370 . S
C1161 C1165 1.408 . S
C1162 C1160 1.363 . S
C1162 C1163 1.370 . S
C1162 C1166 1.524 . S
C1163 C1155 1.503 1_556 S
C1163 C1162 1.370 . S
C1163 C1164 1.403 . S
C1164 C1163 1.403 . S
C1164 C1165 1.404 . S
C1164 C1167 1.539 . S
C1165 C1161 1.408 . S
C1165 C1164 1.404 . S
C1165 H1177 0.930 . S
C1166 C1162 1.524 . S
C1166 H1178 0.956 1_556 S
C1166 H1179 0.961 . S
C1166 H1180 0.961 . S
C1167 C1164 1.539 . S
C1167 H1181 0.958 . S
C1167 H1182 0.961 . S
C1167 H1183 0.960 . S
H1168 C1152 0.931 . S
H1169 C1157 0.929 . S
H1170 C1158 0.960 . S
H1171 C1158 0.962 . S
H1172 C1158 0.960 . S
H1173 C1159 0.961 . S
H1174 C1159 0.961 . S
H1175 C1159 0.961 . S
H1176 C1160 0.931 . S
H1177 C1165 0.930 . S
H1178 C1166 0.956 1_554 S
H1179 C1166 0.961 . S
H1180 C1166 0.961 . S
H1181 C1167 0.958 . S
H1182 C1167 0.961 . S
H1183 C1167 0.960 . S
C1184 C1185 1.391 . S
C1184 C1186 1.394 . S
C1184 H1200 0.931 . S
C1185 C1184 1.391 . S
C1185 C1189 1.376 . S
C1186 C1184 1.394 . S
C1186 C1187 1.369 . S
C1186 C1190 1.531 . S
C1187 C1186 1.369 . S
C1187 C1188 1.410 . S
C1187 C1195 1.503 . S
C1188 C1187 1.410 . S
C1188 C1189 1.392 . S
C1188 C1191 1.511 . S
C1189 C1185 1.376 . S
C1189 C1188 1.392 . S
C1189 H1201 0.929 . S
C1190 C1186 1.531 . S
C1190 H1202 0.960 . S
C1190 H1203 0.962 . S
C1190 H1204 0.960 . S
C1191 C1188 1.511 . S
C1191 H1205 0.961 . S
C1191 H1206 0.961 . S
C1191 H1207 0.961 . S
C1192 C1193 1.370 . S
C1192 C1194 1.363 . S
C1192 H1208 0.931 . S
C1193 C1192 1.370 . S
C1193 C1197 1.408 . S
C1194 C1192 1.363 . S
C1194 C1195 1.370 . S
C1194 C1198 1.524 . S
C1195 C1187 1.503 . S
C1195 C1194 1.370 . S
C1195 C1196 1.403 . S
C1196 C1195 1.403 . S
C1196 C1197 1.404 . S
C1196 C1199 1.539 . S
C1197 C1193 1.408 . S
C1197 C1196 1.404 . S
C1197 H1209 0.930 . S
C1198 C1194 1.524 . S
C1198 H1210 0.956 . S
C1198 H1211 0.961 . S
C1198 H1212 0.961 . S
C1199 C1196 1.539 . S
C1199 H1213 0.958 . S
C1199 H1214 0.961 . S
C1199 H1215 0.960 . S
H1200 C1184 0.931 . S
H1201 C1189 0.929 . S
H1202 C1190 0.960 . S
H1203 C1190 0.962 . S
H1204 C1190 0.960 . S
H1205 C1191 0.961 . S
H1206 C1191 0.961 . S
H1207 C1191 0.961 . S
H1208 C1192 0.931 . S
H1209 C1197 0.930 . S
H1210 C1198 0.956 . S
H1211 C1198 0.961 . S
H1212 C1198 0.961 . S
H1213 C1199 0.958 . S
H1214 C1199 0.961 . S
H1215 C1199 0.960 . S
C1216 C1217 1.391 . S
C1216 C1218 1.394 . S
C1216 H1232 0.931 . S
C1217 C1216 1.391 . S
C1217 C1221 1.376 . S
C1218 C1216 1.394 . S
C1218 C1219 1.369 . S
C1218 C1222 1.531 . S
C1219 C1218 1.369 . S
C1219 C1220 1.410 . S
C1219 C1227 1.503 . S
C1220 C1219 1.410 . S
C1220 C1221 1.392 . S
C1220 C1223 1.511 . S
C1221 C1217 1.376 . S
C1221 C1220 1.392 . S
C1221 H1233 0.929 . S
C1222 C1218 1.531 . S
C1222 H1234 0.960 . S
C1222 H1235 0.962 . S
C1222 H1236 0.960 . S
C1223 C1220 1.511 . S
C1223 H1237 0.961 . S
C1223 H1238 0.961 . S
C1223 H1239 0.961 . S
C1224 C1225 1.370 . S
C1224 C1226 1.363 . S
C1224 H1240 0.931 . S
C1225 C1224 1.370 . S
C1225 C1229 1.408 . S
C1226 C1224 1.363 . S
C1226 C1227 1.370 . S
C1226 C1230 1.524 . S
C1227 C1219 1.503 . S
C1227 C1226 1.370 . S
C1227 C1228 1.403 . S
C1228 C1227 1.403 . S
C1228 C1229 1.404 . S
C1228 C1231 1.539 . S
C1229 C1225 1.408 . S
C1229 C1228 1.404 . S
C1229 H1241 0.930 . S
C1230 C1226 1.524 . S
C1230 H1242 0.956 . S
C1230 H1243 0.961 . S
C1230 H1244 0.961 . S
C1231 C1228 1.539 . S
C1231 H1245 0.958 . S
C1231 H1246 0.961 . S
C1231 H1247 0.960 . S
H1232 C1216 0.931 . S
H1233 C1221 0.929 . S
H1234 C1222 0.960 . S
H1235 C1222 0.962 . S
H1236 C1222 0.960 . S
H1237 C1223 0.961 . S
H1238 C1223 0.961 . S
H1239 C1223 0.961 . S
H1240 C1224 0.931 . S
H1241 C1229 0.930 . S
H1242 C1230 0.956 . S
H1243 C1230 0.961 . S
H1244 C1230 0.961 . S
H1245 C1231 0.958 . S
H1246 C1231 0.961 . S
H1247 C1231 0.960 . S
C1248 C1249 1.420 . S
C1248 C1250 1.386 1_545 S
C1248 H1264 0.911 1_545 S
C1249 C1248 1.420 . S
C1249 C1253 1.376 . S
C1250 C1248 1.386 1_565 S
C1250 C1251 1.369 . S
C1250 C1254 1.531 . S
C1251 C1250 1.369 . S
C1251 C1252 1.410 1_565 S
C1251 C1259 1.503 1_554 S
C1252 C1251 1.410 1_545 S
C1252 C1253 1.392 . S
C1252 C1255 1.511 . S
C1253 C1249 1.376 . S
C1253 C1252 1.392 . S
C1253 H1265 0.929 . S
C1254 C1250 1.531 . S
C1254 H1266 0.960 . S
C1254 H1267 0.962 . S
C1254 H1268 0.960 . S
C1255 C1252 1.511 . S
C1255 H1269 0.961 . S
C1255 H1270 0.961 1_554 S
C1255 H1271 0.961 1_545 S
C1256 C1257 1.370 1_545 S
C1256 C1258 1.363 . S
C1256 H1272 0.931 . S
C1257 C1256 1.370 1_565 S
C1257 C1261 1.408 . S
C1258 C1256 1.363 . S
C1258 C1259 1.370 1_545 S
C1258 C1262 1.524 . S
C1259 C1251 1.503 1_556 S
C1259 C1258 1.370 1_565 S
C1259 C1260 1.403 . S
C1260 C1259 1.403 . S
C1260 C1261 1.404 . S
C1260 C1263 1.539 . S
C1261 C1257 1.408 . S
C1261 C1260 1.404 . S
C1261 H1273 0.930 . S
C1262 C1258 1.524 . S
C1262 H1274 0.956 . S
C1262 H1275 0.961 . S
C1262 H1276 0.961 . S
C1263 C1260 1.539 . S
C1263 H1277 0.968 . S
C1263 H1278 0.961 . S
C1263 H1279 0.960 1_556 S
H1264 C1248 0.911 1_565 S
H1265 C1253 0.929 . S
H1266 C1254 0.960 . S
H1267 C1254 0.962 . S
H1268 C1254 0.960 . S
H1269 C1255 0.961 . S
H1270 C1255 0.961 1_556 S
H1271 C1255 0.961 1_565 S
H1272 C1256 0.931 . S
H1273 C1261 0.930 . S
H1274 C1262 0.956 . S
H1275 C1262 0.961 . S
H1276 C1262 0.961 . S
H1277 C1263 0.968 . S
H1278 C1263 0.961 . S
H1279 C1263 0.960 1_554 S
C1280 C1281 1.391 . S
C1280 C1282 1.394 . S
C1280 H1296 0.931 . S
C1281 C1280 1.391 . S
C1281 C1285 1.376 . S
C1282 C1280 1.394 . S
C1282 C1283 1.369 . S
C1282 C1286 1.531 . S
C1283 C1282 1.369 . S
C1283 C1284 1.410 . S
C1283 C1291 1.503 . S
C1284 C1283 1.410 . S
C1284 C1285 1.392 . S
C1284 C1287 1.511 . S
C1285 C1281 1.376 . S
C1285 C1284 1.392 . S
C1285 H1297 0.929 . S
C1286 C1282 1.531 . S
C1286 H1298 0.960 . S
C1286 H1299 0.962 . S
C1286 H1300 0.960 . S
C1287 C1284 1.511 . S
C1287 H1301 0.961 . S
C1287 H1302 0.961 . S
C1287 H1303 0.961 . S
C1288 C1289 1.370 . S
C1288 C1290 1.363 . S
C1288 H1304 0.931 . S
C1289 C1288 1.370 . S
C1289 C1293 1.408 . S
C1290 C1288 1.363 . S
C1290 C1291 1.370 . S
C1290 C1294 1.524 . S
C1291 C1283 1.503 . S
C1291 C1290 1.370 . S
C1291 C1292 1.403 . S
C1292 C1291 1.403 . S
C1292 C1293 1.404 . S
C1292 C1295 1.539 . S
C1293 C1289 1.408 . S
C1293 C1292 1.404 . S
C1293 H1305 0.930 . S
C1294 C1290 1.524 . S
C1294 H1306 0.956 . S
C1294 H1307 0.961 . S
C1294 H1308 0.961 . S
C1295 C1292 1.539 . S
C1295 H1309 0.958 . S
C1295 H1310 0.961 . S
C1295 H1311 0.960 . S
H1296 C1280 0.931 . S
H1297 C1285 0.929 . S
H1298 C1286 0.960 . S
H1299 C1286 0.962 . S
H1300 C1286 0.960 . S
H1301 C1287 0.961 . S
H1302 C1287 0.961 . S
H1303 C1287 0.961 . S
H1304 C1288 0.931 . S
H1305 C1293 0.930 . S
H1306 C1294 0.956 . S
H1307 C1294 0.961 . S
H1308 C1294 0.961 . S
H1309 C1295 0.958 . S
H1310 C1295 0.961 . S
H1311 C1295 0.960 . S
C1312 C1313 1.391 . S
C1312 C1314 1.394 . S
C1312 H1328 0.931 . S
C1313 C1312 1.391 . S
C1313 C1317 1.376 1_455 S
C1314 C1312 1.394 . S
C1314 C1315 1.369 . S
C1314 C1318 1.531 . S
C1315 C1314 1.369 . S
C1315 C1316 1.410 1_455 S
C1315 C1323 1.503 1_455 S
C1316 C1315 1.410 1_655 S
C1316 C1317 1.392 . S
C1316 C1319 1.511 . S
C1317 C1313 1.376 1_655 S
C1317 C1316 1.392 . S
C1317 H1329 0.929 . S
C1318 C1314 1.531 . S
C1318 H1330 0.960 . S
C1318 H1331 0.962 . S
C1318 H1332 0.960 . S
C1319 C1316 1.511 . S
C1319 H1333 0.961 . S
C1319 H1334 0.961 . S
C1319 H1335 0.961 . S
C1320 C1321 1.370 . S
C1320 C1322 1.363 . S
C1320 H1336 0.931 . S
C1321 C1320 1.370 . S
C1321 C1325 1.408 . S
C1322 C1320 1.363 . S
C1322 C1323 1.370 . S
C1322 C1326 1.524 . S
C1323 C1315 1.503 1_655 S
C1323 C1322 1.370 . S
C1323 C1324 1.403 . S
C1324 C1323 1.403 . S
C1324 C1325 1.404 . S
C1324 C1327 1.539 1_655 S
C1325 C1321 1.408 . S
C1325 C1324 1.404 . S
C1325 H1337 0.930 . S
C1326 C1322 1.524 . S
C1326 H1338 0.956 1_655 S
C1326 H1339 0.961 . S
C1326 H1340 0.961 . S
C1327 C1324 1.539 1_455 S
C1327 H1341 0.958 . S
C1327 H1342 0.961 1_455 S
C1327 H1343 0.960 1_455 S
H1328 C1312 0.931 . S
H1329 C1317 0.929 . S
H1330 C1318 0.960 . S
H1331 C1318 0.962 . S
H1332 C1318 0.960 . S
H1333 C1319 0.961 . S
H1334 C1319 0.961 . S
H1335 C1319 0.961 . S
H1336 C1320 0.931 . S
H1337 C1325 0.930 . S
H1338 C1326 0.956 1_455 S
H1339 C1326 0.961 . S
H1340 C1326 0.961 . S
H1341 C1327 0.958 . S
H1342 C1327 0.961 1_655 S
H1343 C1327 0.960 1_655 S
C1344 C1345 1.391 . S
C1344 C1346 1.394 1_565 S
C1344 H1360 0.911 1_565 S
C1345 C1344 1.391 . S
C1345 C1349 1.376 . S
C1346 C1344 1.394 1_545 S
C1346 C1347 1.369 . S
C1346 C1350 1.531 . S
C1347 C1346 1.369 . S
C1347 C1348 1.410 1_545 S
C1347 C1355 1.503 1_554 S
C1348 C1347 1.410 1_565 S
C1348 C1349 1.392 . S
C1348 C1351 1.511 . S
C1349 C1345 1.376 . S
C1349 C1348 1.392 . S
C1349 H1361 0.929 . S
C1350 C1346 1.531 . S
C1350 H1362 0.960 . S
C1350 H1363 0.962 . S
C1350 H1364 0.960 . S
C1351 C1348 1.511 . S
C1351 H1365 0.961 . S
C1351 H1366 0.961 1_554 S
C1351 H1367 0.961 1_565 S
C1352 C1353 1.370 1_565 S
C1352 C1354 1.363 . S
C1352 H1368 0.931 . S
C1353 C1352 1.370 1_545 S
C1353 C1357 1.408 . S
C1354 C1352 1.363 . S
C1354 C1355 1.370 1_565 S
C1354 C1358 1.524 . S
C1355 C1347 1.503 1_556 S
C1355 C1354 1.370 1_545 S
C1355 C1356 1.403 . S
C1356 C1355 1.403 . S
C1356 C1357 1.404 . S
C1356 C1359 1.539 . S
C1357 C1353 1.408 . S
C1357 C1356 1.404 . S
C1357 H1369 0.930 . S
C1358 C1354 1.524 . S
C1358 H1370 0.956 . S
C1358 H1371 0.961 . S
C1358 H1372 0.961 . S
C1359 C1356 1.539 . S
C1359 H1373 0.967 . S
C1359 H1374 0.961 . S
C1359 H1375 0.960 1_556 S
H1360 C1344 0.911 1_545 S
H1361 C1349 0.929 . S
H1362 C1350 0.960 . S
H1363 C1350 0.962 . S
H1364 C1350 0.960 . S
H1365 C1351 0.961 . S
H1366 C1351 0.961 1_556 S
H1367 C1351 0.961 1_545 S
H1368 C1352 0.931 . S
H1369 C1357 0.930 . S
H1370 C1358 0.956 . S
H1371 C1358 0.961 . S
H1372 C1358 0.961 . S
H1373 C1359 0.967 . S
H1374 C1359 0.961 . S
H1375 C1359 0.960 1_554 S
C1376 C1377 1.391 . S
C1376 C1378 1.394 . S
C1376 H1392 0.931 . S
C1377 C1376 1.391 . S
C1377 C1381 1.376 . S
C1378 C1376 1.394 . S
C1378 C1379 1.369 . S
C1378 C1382 1.531 . S
C1379 C1378 1.369 . S
C1379 C1380 1.410 . S
C1379 C1387 1.503 . S
C1380 C1379 1.410 . S
C1380 C1381 1.392 . S
C1380 C1383 1.511 . S
C1381 C1377 1.376 . S
C1381 C1380 1.392 . S
C1381 H1393 0.929 . S
C1382 C1378 1.531 . S
C1382 H1394 0.960 . S
C1382 H1395 0.962 . S
C1382 H1396 0.960 . S
C1383 C1380 1.511 . S
C1383 H1397 0.961 . S
C1383 H1398 0.961 . S
C1383 H1399 0.961 . S
C1384 C1385 1.370 . S
C1384 C1386 1.363 . S
C1384 H1400 0.931 . S
C1385 C1384 1.370 . S
C1385 C1389 1.408 . S
C1386 C1384 1.363 . S
C1386 C1387 1.370 . S
C1386 C1390 1.524 . S
C1387 C1379 1.503 . S
C1387 C1386 1.370 . S
C1387 C1388 1.403 . S
C1388 C1387 1.403 . S
C1388 C1389 1.404 . S
C1388 C1391 1.539 . S
C1389 C1385 1.408 . S
C1389 C1388 1.404 . S
C1389 H1401 0.930 . S
C1390 C1386 1.524 . S
C1390 H1402 0.956 . S
C1390 H1403 0.961 . S
C1390 H1404 0.961 . S
C1391 C1388 1.539 . S
C1391 H1405 0.958 . S
C1391 H1406 0.961 . S
C1391 H1407 0.960 . S
H1392 C1376 0.931 . S
H1393 C1381 0.929 . S
H1394 C1382 0.960 . S
H1395 C1382 0.962 . S
H1396 C1382 0.960 . S
H1397 C1383 0.961 . S
H1398 C1383 0.961 . S
H1399 C1383 0.961 . S
H1400 C1384 0.931 . S
H1401 C1389 0.930 . S
H1402 C1390 0.956 . S
H1403 C1390 0.961 . S
H1404 C1390 0.961 . S
H1405 C1391 0.958 . S
H1406 C1391 0.961 . S
H1407 C1391 0.960 . S
C1408 C1409 1.391 . S
C1408 C1410 1.393 1_455 S
C1408 H1424 0.931 1_455 S
C1409 C1408 1.391 . S
C1409 C1413 1.376 . S
C1410 C1408 1.393 1_655 S
C1410 C1411 1.365 1_655 S
C1410 C1414 1.535 . S
C1411 C1410 1.365 1_455 S
C1411 C1412 1.410 . S
C1411 C1419 1.510 . S
C1412 C1411 1.410 . S
C1412 C1413 1.392 . S
C1412 C1415 1.511 . S
C1413 C1409 1.376 . S
C1413 C1412 1.392 . S
C1413 H1425 0.929 . S
C1414 C1410 1.535 . S
C1414 H1426 0.960 . S
C1414 H1427 0.962 . S
C1414 H1428 0.960 . S
C1415 C1412 1.511 . S
C1415 H1429 0.961 . S
C1415 H1430 0.961 . S
C1415 H1431 0.961 . S
C1416 C1417 1.370 . S
C1416 C1418 1.363 . S
C1416 H1432 0.931 . S
C1417 C1416 1.370 . S
C1417 C1421 1.408 1_655 S
C1418 C1416 1.363 . S
C1418 C1419 1.355 1_655 S
C1418 C1422 1.524 . S
C1419 C1411 1.510 . S
C1419 C1418 1.355 1_455 S
C1419 C1420 1.412 . S
C1420 C1419 1.412 . S
C1420 C1421 1.404 . S
C1420 C1423 1.539 . S
C1421 C1417 1.408 1_455 S
C1421 C1420 1.404 . S
C1421 H1433 0.930 . S
C1422 C1418 1.524 . S
C1422 H1434 0.956 . S
C1422 H1435 0.961 . S
C1422 H1436 0.961 . S
C1423 C1420 1.539 . S
C1423 H1437 0.958 . S
C1423 H1438 0.961 . S
C1423 H1439 0.960 . S
H1424 C1408 0.931 1_655 S
H1425 C1413 0.929 . S
H1426 C1414 0.960 . S
H1427 C1414 0.962 . S
H1428 C1414 0.960 . S
H1429 C1415 0.961 . S
H1430 C1415 0.961 . S
H1431 C1415 0.961 . S
H1432 C1416 0.931 . S
H1433 C1421 0.930 . S
H1434 C1422 0.956 . S
H1435 C1422 0.961 . S
H1436 C1422 0.961 . S
H1437 C1423 0.958 . S
H1438 C1423 0.961 . S
H1439 C1423 0.960 . S
C1440 C1441 1.391 . S
C1440 C1442 1.394 . S
C1440 H1456 0.931 . S
C1441 C1440 1.391 . S
C1441 C1445 1.376 . S
C1442 C1440 1.394 . S
C1442 C1443 1.369 . S
C1442 C1446 1.531 . S
C1443 C1442 1.369 . S
C1443 C1444 1.410 1_565 S
C1443 C1451 1.503 1_565 S
C1444 C1443 1.410 1_545 S
C1444 C1445 1.392 1_545 S
C1444 C1447 1.511 . S
C1445 C1441 1.376 . S
C1445 C1444 1.392 1_565 S
C1445 H1457 0.929 1_565 S
C1446 C1442 1.531 . S
C1446 H1458 0.960 . S
C1446 H1459 0.962 . S
C1446 H1460 0.960 . S
C1447 C1444 1.511 . S
C1447 H1461 0.961 . S
C1447 H1462 0.961 . S
C1447 H1463 0.961 . S
C1448 C1449 1.370 . S
C1448 C1450 1.363 . S
C1448 H1464 0.931 . S
C1449 C1448 1.370 . S
C1449 C1453 1.408 . S
C1450 C1448 1.363 . S
C1450 C1451 1.370 . S
C1450 C1454 1.524 . S
C1451 C1443 1.503 1_545 S
C1451 C1450 1.370 . S
C1451 C1452 1.403 . S
C1452 C1451 1.403 . S
C1452 C1453 1.404 . S
C1452 C1455 1.539 . S
C1453 C1449 1.408 . S
C1453 C1452 1.404 . S
C1453 H1465 0.930 . S
C1454 C1450 1.524 . S
C1454 H1466 0.956 1_545 S
C1454 H1467 0.961 . S
C1454 H1468 0.961 . S
C1455 C1452 1.539 . S
C1455 H1469 0.958 1_545 S
C1455 H1470 0.961 . S
C1455 H1471 0.960 . S
H1456 C1440 0.931 . S
H1457 C1445 0.929 1_545 S
H1458 C1446 0.960 . S
H1459 C1446 0.962 . S
H1460 C1446 0.960 . S
H1461 C1447 0.961 . S
H1462 C1447 0.961 . S
H1463 C1447 0.961 . S
H1464 C1448 0.931 . S
H1465 C1453 0.930 . S
H1466 C1454 0.956 1_565 S
H1467 C1454 0.961 . S
H1468 C1454 0.961 . S
H1469 C1455 0.958 1_565 S
H1470 C1455 0.961 . S
H1471 C1455 0.960 . S
C1472 C1473 1.391 . S
C1472 C1474 1.394 . S
C1472 H1488 0.931 . S
C1473 C1472 1.391 . S
C1473 C1477 1.376 . S
C1474 C1472 1.394 . S
C1474 C1475 1.369 . S
C1474 C1478 1.531 . S
C1475 C1474 1.369 . S
C1475 C1476 1.410 . S
C1475 C1483 1.503 . S
C1476 C1475 1.410 . S
C1476 C1477 1.392 . S
C1476 C1479 1.511 . S
C1477 C1473 1.376 . S
C1477 C1476 1.392 . S
C1477 H1489 0.929 . S
C1478 C1474 1.531 . S
C1478 H1490 0.960 . S
C1478 H1491 0.962 . S
C1478 H1492 0.960 . S
C1479 C1476 1.511 . S
C1479 H1493 0.961 . S
C1479 H1494 0.961 . S
C1479 H1495 0.961 . S
C1480 C1481 1.370 . S
C1480 C1482 1.363 . S
C1480 H1496 0.931 . S
C1481 C1480 1.370 . S
C1481 C1485 1.408 . S
C1482 C1480 1.363 . S
C1482 C1483 1.370 . S
C1482 C1486 1.524 . S
C1483 C1475 1.503 . S
C1483 C1482 1.370 . S
C1483 C1484 1.403 . S
C1484 C1483 1.403 . S
C1484 C1485 1.404 . S
C1484 C1487 1.539 . S
C1485 C1481 1.408 . S
C1485 C1484 1.404 . S
C1485 H1497 0.930 . S
C1486 C1482 1.524 . S
C1486 H1498 0.956 . S
C1486 H1499 0.961 . S
C1486 H1500 0.961 . S
C1487 C1484 1.539 . S
C1487 H1501 0.958 . S
C1487 H1502 0.961 . S
C1487 H1503 0.960 . S
H1488 C1472 0.931 . S
H1489 C1477 0.929 . S
H1490 C1478 0.960 . S
H1491 C1478 0.962 . S
H1492 C1478 0.960 . S
H1493 C1479 0.961 . S
H1494 C1479 0.961 . S
H1495 C1479 0.961 . S
H1496 C1480 0.931 . S
H1497 C1485 0.930 . S
H1498 C1486 0.956 . S
H1499 C1486 0.961 . S
H1500 C1486 0.961 . S
H1501 C1487 0.958 . S
H1502 C1487 0.961 . S
H1503 C1487 0.960 . S
C1504 C1505 1.391 . S
C1504 C1506 1.397 1_455 S
C1504 H1520 0.931 . S
C1505 C1504 1.391 . S
C1505 C1509 1.376 . S
C1506 C1504 1.397 1_655 S
C1506 C1507 1.331 1_655 S
C1506 C1510 1.568 . S
C1507 C1506 1.331 1_455 S
C1507 C1508 1.410 . S
C1507 C1515 1.503 1_455 S
C1508 C1507 1.410 . S
C1508 C1509 1.392 . S
C1508 C1511 1.511 . S
C1509 C1505 1.376 . S
C1509 C1508 1.392 . S
C1509 H1521 0.929 . S
C1510 C1506 1.568 . S
C1510 H1522 0.960 . S
C1510 H1523 0.962 . S
C1510 H1524 0.960 . S
C1511 C1508 1.511 . S
C1511 H1525 0.961 . S
C1511 H1526 0.961 . S
C1511 H1527 0.961 . S
C1512 C1513 1.370 . S
C1512 C1514 1.363 . S
C1512 H1528 0.931 . S
C1513 C1512 1.370 . S
C1513 C1517 1.408 . S
C1514 C1512 1.363 . S
C1514 C1515 1.370 . S
C1514 C1518 1.524 1_556 S
C1515 C1507 1.503 1_655 S
C1515 C1514 1.370 . S
C1515 C1516 1.403 . S
C1516 C1515 1.403 . S
C1516 C1517 1.404 . S
C1516 C1519 1.539 1_655 S
C1517 C1513 1.408 . S
C1517 C1516 1.404 . S
C1517 H1529 0.930 . S
C1518 C1514 1.524 1_554 S
C1518 H1530 0.956 1_554 S
C1518 H1531 0.961 . S
C1518 H1532 0.961 . S
C1519 C1516 1.539 1_455 S
C1519 H1533 0.958 . S
C1519 H1534 0.961 . S
C1519 H1535 0.960 . S
H1520 C1504 0.931 . S
H1521 C1509 0.929 . S
H1522 C1510 0.960 . S
H1523 C1510 0.962 . S
H1524 C1510 0.960 . S
H1525 C1511 0.961 . S
H1526 C1511 0.961 . S
H1527 C1511 0.961 . S
H1528 C1512 0.931 . S
H1529 C1517 0.930 . S
H1530 C1518 0.956 1_556 S
H1531 C1518 0.961 . S
H1532 C1518 0.961 . S
H1533 C1519 0.958 . S
H1534 C1519 0.961 . S
H1535 C1519 0.960 . S
C1536 C1537 1.391 . S
C1536 C1538 1.394 . S
C1536 H1552 0.931 . S
C1537 C1536 1.391 . S
C1537 C1541 1.376 . S
C1538 C1536 1.394 . S
C1538 C1539 1.369 . S
C1538 C1542 1.531 . S
C1539 C1538 1.369 . S
C1539 C1540 1.410 1_655 S
C1539 C1547 1.503 1_655 S
C1540 C1539 1.410 1_455 S
C1540 C1541 1.392 1_455 S
C1540 C1543 1.511 . S
C1541 C1537 1.376 . S
C1541 C1540 1.392 1_655 S
C1541 H1553 0.931 1_655 S
C1542 C1538 1.531 . S
C1542 H1554 0.960 . S
C1542 H1555 0.962 . S
C1542 H1556 0.960 . S
C1543 C1540 1.511 . S
C1543 H1557 0.961 . S
C1543 H1558 0.961 . S
C1543 H1559 0.961 . S
C1544 C1545 1.370 . S
C1544 C1546 1.363 . S
C1544 H1560 0.931 . S
C1545 C1544 1.370 . S
C1545 C1549 1.408 . S
C1546 C1544 1.363 . S
C1546 C1547 1.370 . S
C1546 C1550 1.524 . S
C1547 C1539 1.503 1_455 S
C1547 C1546 1.370 . S
C1547 C1548 1.403 . S
C1548 C1547 1.403 . S
C1548 C1549 1.404 . S
C1548 C1551 1.539 . S
C1549 C1545 1.408 . S
C1549 C1548 1.404 . S
C1549 H1561 0.930 . S
C1550 C1546 1.524 . S
C1550 H1562 0.956 1_455 S
C1550 H1563 0.961 . S
C1550 H1564 0.961 . S
C1551 C1548 1.539 . S
C1551 H1565 0.958 1_455 S
C1551 H1566 0.961 . S
C1551 H1567 0.960 . S
H1552 C1536 0.931 . S
H1553 C1541 0.931 1_455 S
H1554 C1542 0.960 . S
H1555 C1542 0.962 . S
H1556 C1542 0.960 . S
H1557 C1543 0.961 . S
H1558 C1543 0.961 . S
H1559 C1543 0.961 . S
H1560 C1544 0.931 . S
H1561 C1549 0.930 . S
H1562 C1550 0.956 1_655 S
H1563 C1550 0.961 . S
H1564 C1550 0.961 . S
H1565 C1551 0.958 1_655 S
H1566 C1551 0.961 . S
H1567 C1551 0.960 . S
C1568 C1569 1.391 . S
C1568 C1570 1.394 . S
C1568 H1584 0.931 . S
C1569 C1568 1.391 . S
C1569 C1573 1.376 . S
C1570 C1568 1.394 . S
C1570 C1571 1.369 . S
C1570 C1574 1.531 . S
C1571 C1570 1.369 . S
C1571 C1572 1.410 1_565 S
C1571 C1579 1.503 1_565 S
C1572 C1571 1.410 1_545 S
C1572 C1573 1.392 1_545 S
C1572 C1575 1.511 . S
C1573 C1569 1.376 . S
C1573 C1572 1.392 1_565 S
C1573 H1585 0.929 1_565 S
C1574 C1570 1.531 . S
C1574 H1586 0.960 . S
C1574 H1587 0.962 . S
C1574 H1588 0.960 . S
C1575 C1572 1.511 . S
C1575 H1589 0.961 . S
C1575 H1590 0.961 . S
C1575 H1591 0.961 . S
C1576 C1577 1.370 . S
C1576 C1578 1.363 . S
C1576 H1592 0.931 . S
C1577 C1576 1.370 . S
C1577 C1581 1.408 . S
C1578 C1576 1.363 . S
C1578 C1579 1.370 . S
C1578 C1582 1.524 . S
C1579 C1571 1.503 1_545 S
C1579 C1578 1.370 . S
C1579 C1580 1.403 . S
C1580 C1579 1.403 . S
C1580 C1581 1.404 . S
C1580 C1583 1.539 . S
C1581 C1577 1.408 . S
C1581 C1580 1.404 . S
C1581 H1593 0.930 . S
C1582 C1578 1.524 . S
C1582 H1594 0.956 1_545 S
C1582 H1595 0.961 . S
C1582 H1596 0.961 . S
C1583 C1580 1.539 . S
C1583 H1597 0.958 1_545 S
C1583 H1598 0.961 . S
C1583 H1599 0.960 . S
H1584 C1568 0.931 . S
H1585 C1573 0.929 1_545 S
H1586 C1574 0.960 . S
H1587 C1574 0.962 . S
H1588 C1574 0.960 . S
H1589 C1575 0.961 . S
H1590 C1575 0.961 . S
H1591 C1575 0.961 . S
H1592 C1576 0.931 . S
H1593 C1581 0.930 . S
H1594 C1582 0.956 1_565 S
H1595 C1582 0.961 . S
H1596 C1582 0.961 . S
H1597 C1583 0.958 1_565 S
H1598 C1583 0.961 . S
H1599 C1583 0.960 . S
C1600 C1601 1.391 . S
C1600 C1602 1.394 . S
C1600 H1616 0.941 . S
C1601 C1600 1.391 . S
C1601 C1605 1.376 . S
C1602 C1600 1.394 . S
C1602 C1603 1.369 . S
C1602 C1606 1.531 1_554 S
C1603 C1602 1.369 . S
C1603 C1604 1.410 . S
C1603 C1611 1.503 . S
C1604 C1603 1.410 . S
C1604 C1605 1.392 . S
C1604 C1607 1.511 . S
C1605 C1601 1.376 . S
C1605 C1604 1.392 . S
C1605 H1617 0.929 . S
C1606 C1602 1.531 1_556 S
C1606 H1618 0.960 . S
C1606 H1619 0.962 . S
C1606 H1620 0.960 . S
C1607 C1604 1.511 . S
C1607 H1621 0.961 . S
C1607 H1622 0.961 . S
C1607 H1623 0.961 . S
C1608 C1609 1.370 . S
C1608 C1610 1.363 . S
C1608 H1624 0.931 . S
C1609 C1608 1.370 . S
C1609 C1613 1.408 . S
C1610 C1608 1.363 . S
C1610 C1611 1.370 . S
C1610 C1614 1.524 . S
C1611 C1603 1.503 . S
C1611 C1610 1.370 . S
C1611 C1612 1.403 . S
C1612 C1611 1.403 . S
C1612 C1613 1.404 . S
C1612 C1615 1.539 . S
C1613 C1609 1.408 . S
C1613 C1612 1.404 . S
C1613 H1625 0.930 . S
C1614 C1610 1.524 . S
C1614 H1626 0.956 . S
C1614 H1627 0.961 . S
C1614 H1628 0.961 . S
C1615 C1612 1.539 . S
C1615 H1629 0.958 1_554 S
C1615 H1630 0.961 . S
C1615 H1631 0.960 . S
H1616 C1600 0.941 . S
H1617 C1605 0.929 . S
H1618 C1606 0.960 . S
H1619 C1606 0.962 . S
H1620 C1606 0.960 . S
H1621 C1607 0.961 . S
H1622 C1607 0.961 . S
H1623 C1607 0.961 . S
H1624 C1608 0.931 . S
H1625 C1613 0.930 . S
H1626 C1614 0.956 . S
H1627 C1614 0.961 . S
H1628 C1614 0.961 . S
H1629 C1615 0.958 1_556 S
H1630 C1615 0.961 . S
H1631 C1615 0.960 . S
C1632 C1633 1.391 . S
C1632 C1634 1.394 . S
C1632 H1648 0.931 . S
C1633 C1632 1.391 . S
C1633 C1637 1.376 . S
C1634 C1632 1.394 . S
C1634 C1635 1.369 . S
C1634 C1638 1.531 . S
C1635 C1634 1.369 . S
C1635 C1636 1.410 . S
C1635 C1643 1.503 . S
C1636 C1635 1.410 . S
C1636 C1637 1.392 . S
C1636 C1639 1.511 . S
C1637 C1633 1.376 . S
C1637 C1636 1.392 . S
C1637 H1649 0.929 . S
C1638 C1634 1.531 . S
C1638 H1650 0.960 . S
C1638 H1651 0.962 . S
C1638 H1652 0.960 . S
C1639 C1636 1.511 . S
C1639 H1653 0.961 . S
C1639 H1654 0.961 . S
C1639 H1655 0.961 . S
C1640 C1641 1.370 . S
C1640 C1642 1.363 . S
C1640 H1656 0.931 . S
C1641 C1640 1.370 . S
C1641 C1645 1.408 . S
C1642 C1640 1.363 . S
C1642 C1643 1.370 . S
C1642 C1646 1.524 . S
C1643 C1635 1.503 . S
C1643 C1642 1.370 . S
C1643 C1644 1.403 . S
C1644 C1643 1.403 . S
C1644 C1645 1.404 . S
C1644 C1647 1.539 . S
C1645 C1641 1.408 . S
C1645 C1644 1.404 . S
C1645 H1657 0.930 . S
C1646 C1642 1.524 . S
C1646 H1658 0.956 . S
C1646 H1659 0.961 . S
C1646 H1660 0.961 . S
C1647 C1644 1.539 . S
C1647 H1661 0.958 . S
C1647 H1662 0.961 . S
C1647 H1663 0.960 . S
H1648 C1632 0.931 . S
H1649 C1637 0.929 . S
H1650 C1638 0.960 . S
H1651 C1638 0.962 . S
H1652 C1638 0.960 . S
H1653 C1639 0.961 . S
H1654 C1639 0.961 . S
H1655 C1639 0.961 . S
H1656 C1640 0.931 . S
H1657 C1645 0.930 . S
H1658 C1646 0.956 . S
H1659 C1646 0.961 . S
H1660 C1646 0.961 . S
H1661 C1647 0.958 . S
H1662 C1647 0.961 . S
H1663 C1647 0.960 . S
C1664 C1665 1.391 . S
C1664 C1666 1.394 . S
C1664 H1680 0.931 . S
C1665 C1664 1.391 . S
C1665 C1669 1.376 . S
C1666 C1664 1.394 . S
C1666 C1667 1.369 . S
C1666 C1670 1.531 . S
C1667 C1666 1.369 . S
C1667 C1668 1.410 . S
C1667 C1675 1.503 . S
C1668 C1667 1.410 . S
C1668 C1669 1.392 . S
C1668 C1671 1.511 . S
C1669 C1665 1.376 . S
C1669 C1668 1.392 . S
C1669 H1681 0.929 . S
C1670 C1666 1.531 . S
C1670 H1682 0.960 . S
C1670 H1683 0.962 . S
C1670 H1684 0.960 . S
C1671 C1668 1.511 . S
C1671 H1685 0.961 . S
C1671 H1686 0.961 . S
C1671 H1687 0.961 . S
C1672 C1673 1.370 . S
C1672 C1674 1.363 . S
C1672 H1688 0.931 . S
C1673 C1672 1.370 . S
C1673 C1677 1.408 . S
C1674 C1672 1.363 . S
C1674 C1675 1.370 . S
C1674 C1678 1.524 . S
C1675 C1667 1.503 . S
C1675 C1674 1.370 . S
C1675 C1676 1.403 . S
C1676 C1675 1.403 . S
C1676 C1677 1.404 . S
C1676 C1679 1.539 . S
C1677 C1673 1.408 . S
C1677 C1676 1.404 . S
C1677 H1689 0.930 . S
C1678 C1674 1.524 . S
C1678 H1690 0.956 . S
C1678 H1691 0.961 . S
C1678 H1692 0.961 . S
C1679 C1676 1.539 . S
C1679 H1693 0.958 . S
C1679 H1694 0.961 . S
C1679 H1695 0.960 . S
H1680 C1664 0.931 . S
H1681 C1669 0.929 . S
H1682 C1670 0.960 . S
H1683 C1670 0.962 . S
H1684 C1670 0.960 . S
H1685 C1671 0.961 . S
H1686 C1671 0.961 . S
H1687 C1671 0.961 . S
H1688 C1672 0.931 . S
H1689 C1677 0.930 . S
H1690 C1678 0.956 . S
H1691 C1678 0.961 . S
H1692 C1678 0.961 . S
H1693 C1679 0.958 . S
H1694 C1679 0.961 . S
H1695 C1679 0.960 . S
C1696 C1697 1.391 . S
C1696 C1698 1.394 . S
C1696 H1712 0.931 . S
C1697 C1696 1.391 . S
C1697 C1701 1.376 . S
C1698 C1696 1.394 . S
C1698 C1699 1.369 . S
C1698 C1702 1.531 . S
C1699 C1698 1.369 . S
C1699 C1700 1.410 . S
C1699 C1707 1.503 . S
C1700 C1699 1.410 . S
C1700 C1701 1.392 . S
C1700 C1703 1.511 . S
C1701 C1697 1.376 . S
C1701 C1700 1.392 . S
C1701 H1713 0.929 . S
C1702 C1698 1.531 . S
C1702 H1714 0.960 . S
C1702 H1715 0.962 . S
C1702 H1716 0.960 . S
C1703 C1700 1.511 . S
C1703 H1717 0.961 . S
C1703 H1718 0.961 . S
C1703 H1719 0.961 . S
C1704 C1705 1.370 . S
C1704 C1706 1.363 . S
C1704 H1720 0.931 . S
C1705 C1704 1.370 . S
C1705 C1709 1.408 . S
C1706 C1704 1.363 . S
C1706 C1707 1.370 . S
C1706 C1710 1.524 . S
C1707 C1699 1.503 . S
C1707 C1706 1.370 . S
C1707 C1708 1.403 . S
C1708 C1707 1.403 . S
C1708 C1709 1.404 . S
C1708 C1711 1.539 . S
C1709 C1705 1.408 . S
C1709 C1708 1.404 . S
C1709 H1721 0.930 . S
C1710 C1706 1.524 . S
C1710 H1722 0.956 . S
C1710 H1723 0.961 . S
C1710 H1724 0.961 . S
C1711 C1708 1.539 . S
C1711 H1725 0.958 . S
C1711 H1726 0.961 . S
C1711 H1727 0.960 . S
H1712 C1696 0.931 . S
H1713 C1701 0.929 . S
H1714 C1702 0.960 . S
H1715 C1702 0.962 . S
H1716 C1702 0.960 . S
H1717 C1703 0.961 . S
H1718 C1703 0.961 . S
H1719 C1703 0.961 . S
H1720 C1704 0.931 . S
H1721 C1709 0.930 . S
H1722 C1710 0.956 . S
H1723 C1710 0.961 . S
H1724 C1710 0.961 . S
H1725 C1711 0.958 . S
H1726 C1711 0.961 . S
H1727 C1711 0.960 . S
C1728 C1729 1.391 . S
C1728 C1730 1.394 . S
C1728 H1744 0.931 . S
C1729 C1728 1.391 . S
C1729 C1733 1.376 . S
C1730 C1728 1.394 . S
C1730 C1731 1.369 . S
C1730 C1734 1.531 . S
C1731 C1730 1.369 . S
C1731 C1732 1.410 . S
C1731 C1739 1.503 . S
C1732 C1731 1.410 . S
C1732 C1733 1.392 . S
C1732 C1735 1.511 . S
C1733 C1729 1.376 . S
C1733 C1732 1.392 . S
C1733 H1745 0.929 . S
C1734 C1730 1.531 . S
C1734 H1746 0.960 . S
C1734 H1747 0.962 . S
C1734 H1748 0.960 . S
C1735 C1732 1.511 . S
C1735 H1749 0.961 . S
C1735 H1750 0.961 . S
C1735 H1751 0.961 . S
C1736 C1737 1.370 . S
C1736 C1738 1.363 . S
C1736 H1752 0.931 . S
C1737 C1736 1.370 . S
C1737 C1741 1.408 . S
C1738 C1736 1.363 . S
C1738 C1739 1.370 . S
C1738 C1742 1.524 . S
C1739 C1731 1.503 . S
C1739 C1738 1.370 . S
C1739 C1740 1.403 . S
C1740 C1739 1.403 . S
C1740 C1741 1.404 . S
C1740 C1743 1.539 . S
C1741 C1737 1.408 . S
C1741 C1740 1.404 . S
C1741 H1753 0.930 . S
C1742 C1738 1.524 . S
C1742 H1754 0.956 . S
C1742 H1755 0.961 . S
C1742 H1756 0.961 . S
C1743 C1740 1.539 . S
C1743 H1757 0.958 . S
C1743 H1758 0.961 . S
C1743 H1759 0.960 . S
H1744 C1728 0.931 . S
H1745 C1733 0.929 . S
H1746 C1734 0.960 . S
H1747 C1734 0.962 . S
H1748 C1734 0.960 . S
H1749 C1735 0.961 . S
H1750 C1735 0.961 . S
H1751 C1735 0.961 . S
H1752 C1736 0.931 . S
H1753 C1741 0.930 . S
H1754 C1742 0.956 . S
H1755 C1742 0.961 . S
H1756 C1742 0.961 . S
H1757 C1743 0.958 . S
H1758 C1743 0.961 . S
H1759 C1743 0.960 . S
C1760 C1761 1.391 . S
C1760 C1762 1.394 . S
C1760 H1776 0.931 . S
C1761 C1760 1.391 . S
C1761 C1765 1.376 . S
C1762 C1760 1.394 . S
C1762 C1763 1.369 . S
C1762 C1766 1.531 . S
C1763 C1762 1.369 . S
C1763 C1764 1.410 . S
C1763 C1771 1.503 . S
C1764 C1763 1.410 . S
C1764 C1765 1.392 . S
C1764 C1767 1.511 . S
C1765 C1761 1.376 . S
C1765 C1764 1.392 . S
C1765 H1777 0.929 . S
C1766 C1762 1.531 . S
C1766 H1778 0.960 . S
C1766 H1779 0.962 . S
C1766 H1780 0.960 . S
C1767 C1764 1.511 . S
C1767 H1781 0.961 . S
C1767 H1782 0.961 . S
C1767 H1783 0.961 . S
C1768 C1769 1.370 . S
C1768 C1770 1.363 . S
C1768 H1784 0.931 . S
C1769 C1768 1.370 . S
C1769 C1773 1.408 . S
C1770 C1768 1.363 . S
C1770 C1771 1.370 . S
C1770 C1774 1.524 . S
C1771 C1763 1.503 . S
C1771 C1770 1.370 . S
C1771 C1772 1.403 . S
C1772 C1771 1.403 . S
C1772 C1773 1.404 . S
C1772 C1775 1.539 . S
C1773 C1769 1.408 . S
C1773 C1772 1.404 . S
C1773 H1785 0.930 . S
C1774 C1770 1.524 . S
C1774 H1786 0.956 . S
C1774 H1787 0.961 . S
C1774 H1788 0.961 . S
C1775 C1772 1.539 . S
C1775 H1789 0.958 . S
C1775 H1790 0.961 . S
C1775 H1791 0.960 . S
H1776 C1760 0.931 . S
H1777 C1765 0.929 . S
H1778 C1766 0.960 . S
H1779 C1766 0.962 . S
H1780 C1766 0.960 . S
H1781 C1767 0.961 . S
H1782 C1767 0.961 . S
H1783 C1767 0.961 . S
H1784 C1768 0.931 . S
H1785 C1773 0.930 . S
H1786 C1774 0.956 . S
H1787 C1774 0.961 . S
H1788 C1774 0.961 . S
H1789 C1775 0.958 . S
H1790 C1775 0.961 . S
H1791 C1775 0.960 . S
C1792 C1793 1.391 . S
C1792 C1794 1.394 . S
C1792 H1808 0.931 . S
C1793 C1792 1.391 . S
C1793 C1797 1.376 . S
C1794 C1792 1.394 . S
C1794 C1795 1.369 . S
C1794 C1798 1.531 . S
C1795 C1794 1.369 . S
C1795 C1796 1.410 . S
C1795 C1803 1.503 . S
C1796 C1795 1.410 . S
C1796 C1797 1.392 . S
C1796 C1799 1.511 . S
C1797 C1793 1.376 . S
C1797 C1796 1.392 . S
C1797 H1809 0.929 . S
C1798 C1794 1.531 . S
C1798 H1810 0.960 . S
C1798 H1811 0.962 . S
C1798 H1812 0.960 . S
C1799 C1796 1.511 . S
C1799 H1813 0.961 . S
C1799 H1814 0.961 . S
C1799 H1815 0.961 . S
C1800 C1801 1.370 . S
C1800 C1802 1.363 . S
C1800 H1816 0.931 . S
C1801 C1800 1.370 . S
C1801 C1805 1.408 . S
C1802 C1800 1.363 . S
C1802 C1803 1.370 . S
C1802 C1806 1.524 . S
C1803 C1795 1.503 . S
C1803 C1802 1.370 . S
C1803 C1804 1.403 . S
C1804 C1803 1.403 . S
C1804 C1805 1.404 . S
C1804 C1807 1.539 . S
C1805 C1801 1.408 . S
C1805 C1804 1.404 . S
C1805 H1817 0.930 . S
C1806 C1802 1.524 . S
C1806 H1818 0.956 . S
C1806 H1819 0.961 . S
C1806 H1820 0.961 . S
C1807 C1804 1.539 . S
C1807 H1821 0.958 . S
C1807 H1822 0.961 . S
C1807 H1823 0.960 . S
H1808 C1792 0.931 . S
H1809 C1797 0.929 . S
H1810 C1798 0.960 . S
H1811 C1798 0.962 . S
H1812 C1798 0.960 . S
H1813 C1799 0.961 . S
H1814 C1799 0.961 . S
H1815 C1799 0.961 . S
H1816 C1800 0.931 . S
H1817 C1805 0.930 . S
H1818 C1806 0.956 . S
H1819 C1806 0.961 . S
H1820 C1806 0.961 . S
H1821 C1807 0.958 . S
H1822 C1807 0.961 . S
H1823 C1807 0.960 . S
C1057 C49 0.367 . S
C1065 C937 0.376 . S
C1089 C1017 0.525 . S
C1097 C117 0.427 . S
C1121 C585 0.330 . S
C1129 C196 0.443 . S
C1153 C284 0.331 . S
C1161 C645 0.389 . S
C1185 C401 0.489 . S
C1193 C724 0.380 . S
C1217 C821 0.418 . S
C1225 C489 0.369 . S
C1249 C20 0.799 . S
C1257 C673 0.702 . S
C1281 C753 0.772 . S
C1289 C145 0.749 . S
C1313 C849 0.630 . S
C1321 C225 0.680 . S
C1345 C313 0.798 . S
C1353 C909 0.700 . S
C1377 C988 0.733 . S
C1385 C372 0.752 . S
C1409 C460 0.690 . S
C1417 C557 0.748 . S
C1441 C293 1.086 . S
C1449 C57 1.050 . S
C1473 C409 1.057 . S
C1481 C108 1.018 . S
C1505 C497 0.957 . S
C1513 C205 1.009 . S
C1537 C577 1.084 . S
C1545 C812 1.050 . S
C1569 C636 1.088 . S
C1577 C929 1.048 . S
C1601 C733 1.075 . S
C1609 C1025 1.029 . S
C1633 C761 1.809 . S
C1641 C29 1.765 . S
C1665 C841 1.754 . S
C1673 C137 1.785 . S
C1697 C900 1.803 . S
C1705 C233 1.768 . S
C1729 C997 1.781 . S
C1737 C321 1.776 . S
C1761 C548 1.786 . S
C1769 C381 1.772 . S
C1793 C469 1.762 . S
C1801 C665 1.784 . S
