# Generated by pormake.
# Topology uot, (4)-cn, num edge types: 1
# Building blocks:
#     Node 0, Type 0, BuildingBlock: UXUYUI_clean_sbu_0, # of connection points: 4
#     Node 1, Type 0, BuildingBlock: UXUYUI_clean_sbu_0, # of connection points: 4
#     Node 2, Type 0, BuildingBlock: UXUYUI_clean_sbu_0, # of connection points: 4
#     Node 3, Type 0, BuildingBlock: UXUYUI_clean_sbu_0, # of connection points: 4
#     Node 4, Type 0, BuildingBlock: UXUYUI_clean_sbu_0, # of connection points: 4
#     Node 5, Type 0, BuildingBlock: UXUYUI_clean_sbu_0, # of connection points: 4
#     Node 6, Type 0, BuildingBlock: UXUYUI_clean_sbu_0, # of connection points: 4
#     Node 7, Type 0, BuildingBlock: UXUYUI_clean_sbu_0, # of connection points: 4
#     Node 8, Type 0, BuildingBlock: UXUYUI_clean_sbu_0, # of connection points: 4
#     Node 9, Type 0, BuildingBlock: UXUYUI_clean_sbu_0, # of connection points: 4
#     Node 10, Type 0, BuildingBlock: UXUYUI_clean_sbu_0, # of connection points: 4
#     Node 11, Type 0, BuildingBlock: UXUYUI_clean_sbu_0, # of connection points: 4
#     Node 12, Type 0, BuildingBlock: UXUYUI_clean_sbu_0, # of connection points: 4
#     Node 13, Type 0, BuildingBlock: UXUYUI_clean_sbu_0, # of connection points: 4
#     Node 14, Type 0, BuildingBlock: UXUYUI_clean_sbu_0, # of connection points: 4
#     Node 15, Type 0, BuildingBlock: UXUYUI_clean_sbu_0, # of connection points: 4
#     Edge 16, Type (0, 0), BuildingBlock: ZUJKAS_clean_linker_0, # of connection points: 2
#     Edge 17, Type (0, 0), BuildingBlock: ZUJKAS_clean_linker_0, # of connection points: 2
#     Edge 18, Type (0, 0), BuildingBlock: ZUJKAS_clean_linker_0, # of connection points: 2
#     Edge 19, Type (0, 0), BuildingBlock: ZUJKAS_clean_linker_0, # of connection points: 2
#     Edge 20, Type (0, 0), BuildingBlock: ZUJKAS_clean_linker_0, # of connection points: 2
#     Edge 21, Type (0, 0), BuildingBlock: ZUJKAS_clean_linker_0, # of connection points: 2
#     Edge 22, Type (0, 0), BuildingBlock: ZUJKAS_clean_linker_0, # of connection points: 2
#     Edge 23, Type (0, 0), BuildingBlock: ZUJKAS_clean_linker_0, # of connection points: 2
#     Edge 24, Type (0, 0), BuildingBlock: ZUJKAS_clean_linker_0, # of connection points: 2
#     Edge 25, Type (0, 0), BuildingBlock: ZUJKAS_clean_linker_0, # of connection points: 2
#     Edge 26, Type (0, 0), BuildingBlock: ZUJKAS_clean_linker_0, # of connection points: 2
#     Edge 27, Type (0, 0), BuildingBlock: ZUJKAS_clean_linker_0, # of connection points: 2
#     Edge 28, Type (0, 0), BuildingBlock: ZUJKAS_clean_linker_0, # of connection points: 2
#     Edge 29, Type (0, 0), BuildingBlock: ZUJKAS_clean_linker_0, # of connection points: 2
#     Edge 30, Type (0, 0), BuildingBlock: ZUJKAS_clean_linker_0, # of connection points: 2
#     Edge 31, Type (0, 0), BuildingBlock: ZUJKAS_clean_linker_0, # of connection points: 2
#     Edge 32, Type (0, 0), BuildingBlock: ZUJKAS_clean_linker_0, # of connection points: 2
#     Edge 33, Type (0, 0), BuildingBlock: ZUJKAS_clean_linker_0, # of connection points: 2
#     Edge 34, Type (0, 0), BuildingBlock: ZUJKAS_clean_linker_0, # of connection points: 2
#     Edge 35, Type (0, 0), BuildingBlock: ZUJKAS_clean_linker_0, # of connection points: 2
#     Edge 36, Type (0, 0), BuildingBlock: ZUJKAS_clean_linker_0, # of connection points: 2
#     Edge 37, Type (0, 0), BuildingBlock: ZUJKAS_clean_linker_0, # of connection points: 2
#     Edge 38, Type (0, 0), BuildingBlock: ZUJKAS_clean_linker_0, # of connection points: 2
#     Edge 39, Type (0, 0), BuildingBlock: ZUJKAS_clean_linker_0, # of connection points: 2
#     Edge 40, Type (0, 0), BuildingBlock: ZUJKAS_clean_linker_0, # of connection points: 2
#     Edge 41, Type (0, 0), BuildingBlock: ZUJKAS_clean_linker_0, # of connection points: 2
#     Edge 42, Type (0, 0), BuildingBlock: ZUJKAS_clean_linker_0, # of connection points: 2
#     Edge 43, Type (0, 0), BuildingBlock: ZUJKAS_clean_linker_0, # of connection points: 2
#     Edge 44, Type (0, 0), BuildingBlock: ZUJKAS_clean_linker_0, # of connection points: 2
#     Edge 45, Type (0, 0), BuildingBlock: ZUJKAS_clean_linker_0, # of connection points: 2
#     Edge 46, Type (0, 0), BuildingBlock: ZUJKAS_clean_linker_0, # of connection points: 2
#     Edge 47, Type (0, 0), BuildingBlock: ZUJKAS_clean_linker_0, # of connection points: 2
# Relax obj value: 0.272
# Max RMSD: 0.247
# Mean RMSD: 0.247
data_MOF--net-uot--node1-UXUYUI_clean_sbu_0--edge1-ZUJKAS_clean_linker_0
_symmetry_space_group_name_H-M    P1
_symmetry_Int_Tables_number       1
_symmetry_cell_setting            triclinic
loop_
_symmetry_equiv_pos_as_xyz
'x, y, z'
_cell_length_a     75.975965
_cell_length_b     75.733029
_cell_length_c     70.76918
_cell_angle_alpha  89.996303
_cell_angle_beta   90.012724
_cell_angle_gamma 89.997567
loop_
_atom_site_label
_atom_site_type_symbol
_atom_site_fract_x
_atom_site_fract_y
_atom_site_fract_z
_atom_type_partial_charge
Li0 Li 0.21751 0.47499 0.30119 0.0
Li1 Li 0.2198 0.46501 0.33399 0.0
Li2 Li 0.23902 0.45326 0.30951 0.0
Li3 Li 0.20774 0.44556 0.31051 0.0
C4 C 0.25455 0.48259 0.32061 0.0
N5 N 0.28989 0.49042 0.32441 0.0
C6 C 0.26233 0.48288 0.33851 0.0
C7 C 0.2647 0.48643 0.30466 0.0
C8 C 0.28022 0.48684 0.34013 0.0
C9 C 0.28256 0.4903 0.30688 0.0
C10 C 0.18803 0.47765 0.33101 0.0
C11 C 0.16996 0.47877 0.359 0.0
N12 N 0.16874 0.49661 0.35715 0.0
C13 C 0.18657 0.49598 0.32936 0.0
C14 C 0.17961 0.46895 0.3459 0.0
C15 C 0.17675 0.50533 0.34272 0.0
C16 C 0.19583 0.49352 0.27647 0.0
N17 N 0.21161 0.49435 0.28544 0.0
C18 C 0.21686 0.52326 0.27317 0.0
C19 C 0.22218 0.50876 0.28399 0.0
C20 C 0.2006 0.52275 0.26374 0.0
C21 C 0.19011 0.50757 0.26535 0.0
H22 H 0.18752 0.48205 0.27829 0.0
H23 H 0.23454 0.50916 0.29154 0.0
C24 C 0.21904 0.45949 0.37335 0.0
N25 N 0.21892 0.4721 0.3597 0.0
C26 C 0.21864 0.46427 0.39237 0.0
C27 C 0.21814 0.49496 0.38295 0.0
C28 C 0.21859 0.48957 0.36408 0.0
C29 C 0.21822 0.48222 0.39738 0.0
H30 H 0.21954 0.44571 0.36948 0.0
H31 H 0.2188 0.4993 0.3529 0.0
C32 C 0.2191 0.45607 0.26998 0.0
N33 N 0.21189 0.46542 0.23305 0.0
C34 C 0.2032 0.45105 0.26161 0.0
C35 C 0.23139 0.46572 0.25952 0.0
C36 C 0.1998 0.45593 0.24292 0.0
C37 C 0.22748 0.47036 0.24089 0.0
C38 C 0.223 0.42282 0.33287 0.0
C39 C 0.23375 0.4099 0.32477 0.0
C40 C 0.20855 0.41775 0.34383 0.0
C41 C 0.22982 0.39209 0.32772 0.0
C42 C 0.20503 0.39981 0.34641 0.0
N43 N 0.21565 0.38746 0.33837 0.0
C44 C 0.27219 0.44169 0.32076 0.0
C45 C 0.26729 0.43916 0.28778 0.0
C46 C 0.28863 0.43373 0.31901 0.0
N47 N 0.26191 0.44417 0.30529 0.0
C48 C 0.28361 0.43095 0.2854 0.0
C49 C 0.29441 0.42789 0.30121 0.0
H50 H 0.26739 0.44551 0.33455 0.0
H51 H 0.25868 0.44101 0.27579 0.0
C52 C 0.17373 0.43077 0.30992 0.0
N53 N 0.19081 0.42776 0.30527 0.0
C54 C 0.16081 0.41839 0.30538 0.0
C55 C 0.18335 0.39994 0.2915 0.0
C56 C 0.19582 0.41275 0.29621 0.0
C57 C 0.16555 0.40279 0.29592 0.0
H58 H 0.17007 0.44293 0.31686 0.0
H59 H 0.20947 0.41089 0.29236 0.0
O60 O 0.23712 0.47847 0.3187 0.0
O61 O 0.19788 0.46829 0.3183 0.0
O62 O 0.22256 0.45169 0.28835 0.0
O63 O 0.22646 0.44034 0.32991 0.0
H64 H 0.25468 0.47988 0.351 0.0
H65 H 0.25889 0.48623 0.29071 0.0
H66 H 0.28644 0.48702 0.35388 0.0
H67 H 0.2906 0.49318 0.29465 0.0
H68 H 0.16349 0.47223 0.37067 0.0
H69 H 0.19308 0.50296 0.318 0.0
H70 H 0.18075 0.45478 0.34749 0.0
H71 H 0.17557 0.51953 0.34166 0.0
H72 H 0.22529 0.53476 0.27229 0.0
H73 H 0.17732 0.50681 0.25862 0.0
H74 H 0.21855 0.45402 0.40303 0.0
H75 H 0.21806 0.50893 0.38619 0.0
H76 H 0.19351 0.44364 0.26951 0.0
H77 H 0.24374 0.46972 0.2658 0.0
H78 H 0.18751 0.45222 0.2363 0.0
H79 H 0.23682 0.47793 0.23267 0.0
H80 H 0.24493 0.41355 0.31615 0.0
H81 H 0.19997 0.42757 0.35004 0.0
H82 H 0.23799 0.38195 0.32148 0.0
H83 H 0.19382 0.3957 0.35475 0.0
H84 H 0.29658 0.43188 0.33156 0.0
H85 H 0.28739 0.42643 0.27146 0.0
H86 H 0.14725 0.42104 0.30914 0.0
H87 H 0.1875 0.38821 0.28397 0.0
Li88 Li 0.44318 0.79131 0.69051 0.0
Li89 Li 0.47206 0.7812 0.69947 0.0
Li90 Li 0.46346 0.77814 0.66627 0.0
Li91 Li 0.45129 0.7596 0.69122 0.0
C92 C 0.47599 0.81398 0.68818 0.0
N93 N 0.49689 0.8402 0.70359 0.0
C94 C 0.46913 0.82548 0.70177 0.0
C95 C 0.49356 0.81574 0.68258 0.0
C96 C 0.47987 0.8387 0.70931 0.0
C97 C 0.5039 0.82907 0.69053 0.0
C98 C 0.45205 0.77932 0.73121 0.0
C99 C 0.46473 0.77074 0.76108 0.0
N100 N 0.45761 0.78533 0.76926 0.0
C101 C 0.4448 0.79421 0.73993 0.0
C102 C 0.46203 0.76744 0.74188 0.0
C103 C 0.44777 0.79702 0.75918 0.0
C104 C 0.41017 0.80261 0.70405 0.0
N105 N 0.42437 0.80755 0.69367 0.0
C106 C 0.41213 0.83621 0.68868 0.0
C107 C 0.42539 0.8238 0.68561 0.0
C108 C 0.39753 0.83176 0.69993 0.0
C109 C 0.39652 0.81456 0.70738 0.0
H110 H 0.40961 0.78947 0.71001 0.0
H111 H 0.43673 0.82726 0.67715 0.0
C112 C 0.508 0.77999 0.70867 0.0
N113 N 0.49231 0.78653 0.71472 0.0
C114 C 0.52368 0.78531 0.71727 0.0
C115 C 0.50672 0.80337 0.73874 0.0
C116 C 0.49144 0.79796 0.72953 0.0
C117 C 0.52311 0.7973 0.73237 0.0
H118 H 0.50841 0.77123 0.69661 0.0
H119 H 0.47902 0.80363 0.73365 0.0
C120 C 0.42681 0.77878 0.65809 0.0
N121 N 0.40332 0.79175 0.63173 0.0
C122 C 0.4113 0.76959 0.65418 0.0
C123 C 0.43039 0.79458 0.64863 0.0
C124 C 0.39958 0.77636 0.64079 0.0
C125 C 0.41834 0.80092 0.63535 0.0
C126 C 0.48051 0.74375 0.68225 0.0
C127 C 0.47958 0.73404 0.66549 0.0
C128 C 0.48563 0.73543 0.69899 0.0
C129 C 0.48354 0.71603 0.66583 0.0
C130 C 0.48948 0.71739 0.69875 0.0
N131 N 0.48834 0.70814 0.68232 0.0
C132 C 0.48352 0.78832 0.63408 0.0
C133 C 0.4608 0.76758 0.62826 0.0
C134 C 0.48838 0.78808 0.61505 0.0
N135 N 0.46997 0.77816 0.64028 0.0
C136 C 0.46505 0.7671 0.60909 0.0
C137 C 0.47905 0.7774 0.6023 0.0
H138 H 0.49058 0.79661 0.64387 0.0
H139 H 0.45022 0.75944 0.63361 0.0
C140 C 0.43906 0.73079 0.71334 0.0
N141 N 0.44209 0.73668 0.6955 0.0
C142 C 0.43139 0.71426 0.71626 0.0
C143 C 0.43038 0.71012 0.68239 0.0
C144 C 0.43795 0.72676 0.68013 0.0
C145 C 0.42681 0.70377 0.70064 0.0
H146 H 0.44225 0.73904 0.72529 0.0
H147 H 0.44028 0.73194 0.66611 0.0
O148 O 0.46575 0.80073 0.68089 0.0
O149 O 0.44911 0.77627 0.71242 0.0
O150 O 0.4383 0.77238 0.67129 0.0
O151 O 0.47628 0.7613 0.68231 0.0
H152 H 0.4558 0.82401 0.70681 0.0
H153 H 0.49932 0.80666 0.67258 0.0
H154 H 0.47472 0.84764 0.71987 0.0
H155 H 0.51754 0.83048 0.68641 0.0
H156 H 0.47251 0.7617 0.76948 0.0
H157 H 0.4371 0.80359 0.73191 0.0
H158 H 0.46777 0.75588 0.73538 0.0
H159 H 0.44231 0.80852 0.76609 0.0
H160 H 0.41363 0.84931 0.6828 0.0
H161 H 0.38537 0.81041 0.71582 0.0
H162 H 0.53612 0.78042 0.71193 0.0
H163 H 0.5058 0.81294 0.75007 0.0
H164 H 0.40834 0.75735 0.66143 0.0
H165 H 0.44232 0.8019 0.65152 0.0
H166 H 0.38751 0.76938 0.63761 0.0
H167 H 0.42093 0.81313 0.62792 0.0
H168 H 0.47568 0.7403 0.65241 0.0
H169 H 0.48657 0.74281 0.71203 0.0
H170 H 0.48276 0.70831 0.653 0.0
H171 H 0.49336 0.71074 0.71162 0.0
H172 H 0.49917 0.79631 0.61032 0.0
H173 H 0.45767 0.75855 0.59972 0.0
H174 H 0.42889 0.70982 0.73055 0.0
H175 H 0.42676 0.70259 0.66997 0.0
Li176 Li 0.76202 0.5468 0.30951 0.0
Li177 Li 0.79312 0.55184 0.31369 0.0
Li178 Li 0.78112 0.52272 0.30551 0.0
Li179 Li 0.77716 0.53425 0.33697 0.0
C180 C 0.77254 0.55075 0.27444 0.0
N181 N 0.75492 0.56381 0.24324 0.0
C182 C 0.77789 0.56659 0.2661 0.0
C183 C 0.75845 0.54138 0.26666 0.0
C184 C 0.76876 0.57302 0.25039 0.0
C185 C 0.74963 0.54824 0.25097 0.0
C186 C 0.78044 0.57 0.34452 0.0
C187 C 0.80253 0.57623 0.36807 0.0
N188 N 0.79366 0.59114 0.37299 0.0
C189 C 0.77156 0.58538 0.34978 0.0
C190 C 0.79607 0.56537 0.35371 0.0
C191 C 0.77845 0.5959 0.36422 0.0
C192 C 0.7256 0.55038 0.29981 0.0
N193 N 0.74136 0.5587 0.30169 0.0
C194 C 0.72866 0.58627 0.29279 0.0
C195 C 0.74314 0.57625 0.29832 0.0
C196 C 0.71213 0.57815 0.29082 0.0
C197 C 0.7107 0.55994 0.29434 0.0
H198 H 0.7246 0.5364 0.30266 0.0
H199 H 0.75585 0.58247 0.30009 0.0
C200 C 0.82819 0.56655 0.31527 0.0
N201 N 0.811 0.56943 0.31089 0.0
C202 C 0.84069 0.57979 0.31239 0.0
C203 C 0.81744 0.59911 0.30166 0.0
C204 C 0.80541 0.58548 0.30472 0.0
C205 C 0.83541 0.59627 0.30523 0.0
H206 H 0.83234 0.55403 0.32096 0.0
H207 H 0.79156 0.58764 0.30208 0.0
C208 C 0.75387 0.50586 0.31951 0.0
N209 N 0.74431 0.47074 0.31673 0.0
C210 C 0.75822 0.49401 0.33392 0.0
C211 C 0.74444 0.49988 0.3038 0.0
C212 C 0.75332 0.4763 0.33223 0.0
C213 C 0.7398 0.48206 0.30262 0.0
C214 C 0.8159 0.52303 0.31813 0.0
C215 C 0.82026 0.52509 0.29904 0.0
C216 C 0.82809 0.51534 0.33044 0.0
C217 C 0.8367 0.51942 0.29262 0.0
C218 C 0.84441 0.50986 0.32347 0.0
N219 N 0.84834 0.51199 0.30487 0.0
C220 C 0.78589 0.50042 0.27322 0.0
C221 C 0.79227 0.48774 0.30307 0.0
C222 C 0.79192 0.48525 0.26402 0.0
N223 N 0.78633 0.50141 0.29239 0.0
C224 C 0.79841 0.47238 0.2945 0.0
C225 C 0.79861 0.47112 0.2747 0.0
H226 H 0.78153 0.51163 0.26503 0.0
H227 H 0.79281 0.48904 0.31828 0.0
C228 C 0.76216 0.53591 0.37347 0.0
N229 N 0.77556 0.52906 0.36309 0.0
C230 C 0.76094 0.53224 0.39277 0.0
C231 C 0.78736 0.51458 0.39023 0.0
C232 C 0.78804 0.51858 0.37101 0.0
C233 C 0.77366 0.52141 0.4014 0.0
H234 H 0.75242 0.54421 0.36672 0.0
H235 H 0.79848 0.51328 0.36237 0.0
O236 O 0.78108 0.54441 0.29008 0.0
O237 O 0.77384 0.55966 0.33034 0.0
O238 O 0.75883 0.5232 0.32078 0.0
O239 O 0.79973 0.52813 0.32476 0.0
H240 H 0.78902 0.57382 0.27158 0.0
H241 H 0.75423 0.52905 0.27282 0.0
H242 H 0.77271 0.58531 0.24387 0.0
H243 H 0.73858 0.54121 0.24495 0.0
H244 H 0.81461 0.57282 0.3753 0.0
H245 H 0.75947 0.58915 0.34275 0.0
H246 H 0.80318 0.55356 0.3498 0.0
H247 H 0.77171 0.60784 0.36844 0.0
H248 H 0.73031 0.60032 0.29059 0.0
H249 H 0.69821 0.55317 0.29291 0.0
H250 H 0.85439 0.57697 0.31535 0.0
H251 H 0.81272 0.61174 0.29657 0.0
H252 H 0.76548 0.49836 0.34619 0.0
H253 H 0.74077 0.50885 0.29262 0.0
H254 H 0.75672 0.46698 0.34321 0.0
H255 H 0.73259 0.47724 0.29049 0.0
H256 H 0.81113 0.53099 0.28921 0.0
H257 H 0.82504 0.51363 0.34525 0.0
H258 H 0.84021 0.52093 0.2779 0.0
H259 H 0.85395 0.50391 0.33287 0.0
H260 H 0.79209 0.48492 0.24872 0.0
H261 H 0.80329 0.46173 0.30327 0.0
H262 H 0.75005 0.53762 0.40078 0.0
H263 H 0.79759 0.5064 0.39631 0.0
Li264 Li 0.55305 0.20742 0.68613 0.0
Li265 Li 0.52377 0.21986 0.69228 0.0
Li266 Li 0.53683 0.22272 0.66126 0.0
Li267 Li 0.54808 0.23881 0.68885 0.0
C268 C 0.52367 0.18492 0.68092 0.0
N269 N 0.50984 0.15381 0.69498 0.0
C270 C 0.52655 0.18014 0.69978 0.0
C271 C 0.51361 0.17393 0.6693 0.0
C272 C 0.51949 0.16435 0.70659 0.0
C273 C 0.50678 0.15824 0.67665 0.0
C274 C 0.54984 0.22915 0.72471 0.0
C275 C 0.546 0.25286 0.74711 0.0
N276 N 0.56059 0.24734 0.75655 0.0
C277 C 0.56467 0.22358 0.73478 0.0
C278 C 0.54031 0.24377 0.73106 0.0
C279 C 0.56993 0.23299 0.75079 0.0
C280 C 0.5858 0.1949 0.69778 0.0
N281 N 0.57023 0.18946 0.69035 0.0
C282 C 0.58061 0.15971 0.68876 0.0
C283 C 0.56759 0.17232 0.68537 0.0
C284 C 0.59665 0.16483 0.697 0.0
C285 C 0.59923 0.18276 0.70132 0.0
H286 H 0.58781 0.20874 0.70087 0.0
H287 H 0.55545 0.16835 0.67869 0.0
C288 C 0.48845 0.20951 0.69362 0.0
N289 N 0.50199 0.21515 0.7046 0.0
C290 C 0.47273 0.20394 0.70184 0.0
C291 C 0.48511 0.21018 0.73259 0.0
C292 C 0.5006 0.2157 0.72374 0.0
C293 C 0.47102 0.20391 0.7216 0.0
H294 H 0.49006 0.20879 0.67846 0.0
H295 H 0.51172 0.21977 0.73219 0.0
C296 C 0.5728 0.21927 0.65588 0.0
N297 N 0.59526 0.2053 0.62907 0.0
C298 C 0.58815 0.22828 0.6509 0.0
C299 C 0.56887 0.20313 0.64726 0.0
C300 C 0.59934 0.221 0.6373 0.0
C301 C 0.58039 0.1963 0.63373 0.0
C302 C 0.50789 0.2468 0.67593 0.0
C303 C 0.49689 0.24174 0.66105 0.0
C304 C 0.50117 0.25721 0.69056 0.0
C305 C 0.47925 0.24696 0.66121 0.0
C306 C 0.48346 0.26215 0.69021 0.0
N307 N 0.47295 0.25695 0.67567 0.0
C308 C 0.52744 0.20897 0.62566 0.0
C309 C 0.53595 0.23908 0.62556 0.0
C310 C 0.52439 0.20944 0.60623 0.0
N311 N 0.53303 0.22367 0.63486 0.0
C312 C 0.53307 0.24017 0.60611 0.0
C313 C 0.52716 0.22521 0.59619 0.0
H314 H 0.52534 0.19688 0.63343 0.0
H315 H 0.54048 0.25053 0.63331 0.0
C316 C 0.57599 0.25849 0.70329 0.0
N317 N 0.55934 0.25991 0.69648 0.0
C318 C 0.58523 0.27353 0.70878 0.0
C319 C 0.5601 0.29128 0.69981 0.0
C320 C 0.55125 0.27583 0.6947 0.0
C321 C 0.57734 0.2902 0.70691 0.0
H322 H 0.58213 0.24563 0.70428 0.0
H323 H 0.53802 0.27653 0.68911 0.0
O324 O 0.52993 0.20064 0.67408 0.0
O325 O 0.54465 0.22029 0.7088 0.0
O326 O 0.5618 0.22623 0.66924 0.0
O327 O 0.52515 0.24162 0.67616 0.0
H328 H 0.53415 0.18847 0.7091 0.0
H329 H 0.51096 0.17752 0.65479 0.0
H330 H 0.52165 0.16049 0.72112 0.0
H331 H 0.49898 0.14962 0.6678 0.0
H332 H 0.53884 0.2643 0.75205 0.0
H333 H 0.572 0.21208 0.73035 0.0
H334 H 0.52874 0.24817 0.72353 0.0
H335 H 0.58143 0.22888 0.75866 0.0
H336 H 0.57798 0.14605 0.68523 0.0
H337 H 0.61153 0.1874 0.70724 0.0
H338 H 0.46217 0.19937 0.6928 0.0
H339 H 0.48448 0.2101 0.74787 0.0
H340 H 0.59139 0.24076 0.6575 0.0
H341 H 0.5571 0.19591 0.65099 0.0
H342 H 0.61127 0.22784 0.6333 0.0
H343 H 0.57751 0.18382 0.62695 0.0
H344 H 0.50181 0.23366 0.64963 0.0
H345 H 0.50952 0.26144 0.70206 0.0
H346 H 0.47056 0.24302 0.64985 0.0
H347 H 0.47806 0.27012 0.70149 0.0
H348 H 0.51963 0.19766 0.59922 0.0
H349 H 0.53558 0.25252 0.59889 0.0
H350 H 0.59861 0.27218 0.71388 0.0
H351 H 0.55359 0.30391 0.69819 0.0
Li352 Li 0.20677 0.55365 0.6857 0.0
Li353 Li 0.23841 0.54789 0.68748 0.0
Li354 Li 0.22061 0.53608 0.6602 0.0
Li355 Li 0.21888 0.52325 0.69189 0.0
C356 C 0.22178 0.57644 0.65826 0.0
N357 N 0.21479 0.60762 0.63935 0.0
C358 C 0.23042 0.59202 0.66341 0.0
C359 C 0.20986 0.57669 0.64322 0.0
C360 C 0.22662 0.60766 0.65377 0.0
C361 C 0.20643 0.59258 0.6339 0.0
C362 C 0.22818 0.55139 0.72368 0.0
C363 C 0.24978 0.54921 0.74854 0.0
N364 N 0.24416 0.56492 0.75563 0.0
C365 C 0.22248 0.56742 0.73132 0.0
C366 C 0.24181 0.54211 0.73245 0.0
C367 C 0.23077 0.57407 0.74744 0.0
C368 C 0.17206 0.56372 0.69464 0.0
N369 N 0.18859 0.57 0.69167 0.0
C370 C 0.17906 0.59949 0.69798 0.0
C371 C 0.19233 0.58748 0.69344 0.0
C372 C 0.16179 0.59343 0.70075 0.0
C373 C 0.15836 0.57528 0.69903 0.0
H374 H 0.16952 0.54971 0.6937 0.0
H375 H 0.20567 0.59206 0.69167 0.0
C376 C 0.27557 0.55056 0.68902 0.0
N377 N 0.26021 0.55848 0.69403 0.0
C378 C 0.2916 0.55916 0.69202 0.0
C379 C 0.27566 0.58363 0.70576 0.0
C380 C 0.25999 0.5746 0.70245 0.0
C381 C 0.29173 0.57609 0.70014 0.0
H382 H 0.27533 0.53783 0.68211 0.0
H383 H 0.24759 0.58071 0.70605 0.0
C384 C 0.18456 0.52695 0.66443 0.0
N385 N 0.1551 0.51975 0.64281 0.0
C386 C 0.17777 0.5098 0.66364 0.0
C387 C 0.17614 0.54047 0.65449 0.0
C388 C 0.16293 0.50641 0.65255 0.0
C389 C 0.16132 0.53657 0.64358 0.0
C390 C 0.24701 0.50802 0.67612 0.0
C391 C 0.24452 0.4958 0.66156 0.0
C392 C 0.25692 0.50329 0.69196 0.0
C393 C 0.25173 0.47891 0.66327 0.0
C394 C 0.2639 0.48626 0.69315 0.0
N395 N 0.26116 0.47451 0.67891 0.0
C396 C 0.22999 0.54183 0.62216 0.0
C397 C 0.21101 0.51741 0.627 0.0
C398 C 0.22978 0.53902 0.60267 0.0
N399 N 0.22045 0.53125 0.63383 0.0
C400 C 0.2104 0.51413 0.60762 0.0
C401 C 0.21975 0.5251 0.59516 0.0
H402 H 0.23763 0.55257 0.62801 0.0
H403 H 0.2041 0.50879 0.6366 0.0
C404 C 0.21307 0.50189 0.72415 0.0
N405 N 0.21458 0.5018 0.70501 0.0
C406 C 0.20812 0.48655 0.73375 0.0
C407 C 0.20683 0.47126 0.7038 0.0
C408 C 0.21178 0.48687 0.6948 0.0
C409 C 0.20459 0.47106 0.7235 0.0
H410 H 0.21509 0.51401 0.7319 0.0
H411 H 0.21285 0.48722 0.67958 0.0
O412 O 0.2254 0.56099 0.66757 0.0
O413 O 0.22031 0.54475 0.7078 0.0
O414 O 0.19915 0.53046 0.67517 0.0
O415 O 0.2399 0.52457 0.67478 0.0
H416 H 0.23987 0.5921 0.6748 0.0
H417 H 0.20351 0.56471 0.63855 0.0
H418 H 0.2331 0.61983 0.65773 0.0
H419 H 0.1972 0.59293 0.62227 0.0
H420 H 0.26043 0.54221 0.7554 0.0
H421 H 0.21183 0.57468 0.72485 0.0
H422 H 0.24622 0.52959 0.72688 0.0
H423 H 0.22657 0.58651 0.75344 0.0
H424 H 0.18226 0.61338 0.69924 0.0
H425 H 0.14529 0.57003 0.70146 0.0
H426 H 0.30366 0.55296 0.68728 0.0
H427 H 0.27517 0.59656 0.71228 0.0
H428 H 0.18391 0.49919 0.67142 0.0
H429 H 0.18078 0.5539 0.65544 0.0
H430 H 0.15763 0.49318 0.65172 0.0
H431 H 0.15472 0.54693 0.6358 0.0
H432 H 0.237 0.49928 0.64913 0.0
H433 H 0.25921 0.51266 0.70321 0.0
H434 H 0.2498 0.46928 0.65217 0.0
H435 H 0.27152 0.48239 0.70539 0.0
H436 H 0.23714 0.54782 0.59356 0.0
H437 H 0.20286 0.50298 0.60248 0.0
H438 H 0.20632 0.48704 0.74892 0.0
H439 H 0.2044 0.45958 0.69537 0.0
Li440 Li 0.53723 0.77501 0.34033 0.0
Li441 Li 0.54799 0.75917 0.31367 0.0
Li442 Li 0.55262 0.79069 0.31555 0.0
Li443 Li 0.52268 0.77796 0.30819 0.0
C444 C 0.57044 0.77023 0.34916 0.0
N445 N 0.58682 0.76595 0.38372 0.0
C446 C 0.57463 0.75332 0.3557 0.0
C447 C 0.57473 0.78496 0.36012 0.0
C448 C 0.58289 0.75144 0.37322 0.0
C449 C 0.58295 0.78252 0.37759 0.0
C450 C 0.51939 0.73984 0.32354 0.0
C451 C 0.50158 0.71709 0.30929 0.0
N452 N 0.50965 0.70482 0.32034 0.0
C453 C 0.52745 0.72703 0.33483 0.0
C454 C 0.50632 0.73487 0.3107 0.0
C455 C 0.52237 0.70938 0.33296 0.0
C456 C 0.52475 0.78949 0.3745 0.0
N457 N 0.5322 0.77485 0.36679 0.0
C458 C 0.53211 0.76035 0.3968 0.0
C459 C 0.53572 0.76035 0.37746 0.0
C460 C 0.5245 0.77533 0.40516 0.0
C461 C 0.52075 0.79002 0.39374 0.0
H462 H 0.52179 0.80075 0.3657 0.0
H463 H 0.54131 0.74874 0.371 0.0
C464 C 0.57773 0.73888 0.30742 0.0
N465 N 0.55998 0.73833 0.30511 0.0
C466 C 0.58821 0.72488 0.30142 0.0
C467 C 0.56204 0.70994 0.29041 0.0
C468 C 0.55206 0.72441 0.29639 0.0
C469 C 0.58035 0.71011 0.29295 0.0
H470 H 0.5838 0.75031 0.31382 0.0
H471 H 0.53807 0.72457 0.29379 0.0
C472 C 0.5287 0.81471 0.32713 0.0
N473 N 0.52789 0.85118 0.32698 0.0
C474 C 0.51775 0.8237 0.3145 0.0
C475 C 0.5391 0.82426 0.33981 0.0
C476 C 0.51756 0.84215 0.31462 0.0
C477 C 0.53855 0.8427 0.33947 0.0
C478 C 0.55197 0.76878 0.2783 0.0
C479 C 0.56989 0.77105 0.27456 0.0
C480 C 0.54198 0.75739 0.26706 0.0
C481 C 0.57758 0.76172 0.25967 0.0
C482 C 0.55016 0.74831 0.25229 0.0
N483 N 0.56764 0.75063 0.24895 0.0
C484 C 0.58552 0.80772 0.315 0.0
C485 C 0.56298 0.82308 0.29875 0.0
C486 C 0.59781 0.8206 0.31 0.0
N487 N 0.56848 0.80923 0.30943 0.0
C488 C 0.57472 0.83645 0.29375 0.0
C489 C 0.5925 0.83528 0.29923 0.0
H490 H 0.58967 0.79629 0.32299 0.0
H491 H 0.54949 0.8237 0.29398 0.0
C492 C 0.4861 0.78208 0.30519 0.0
N493 N 0.50139 0.78218 0.29525 0.0
C494 C 0.47037 0.787 0.29645 0.0
C495 C 0.48643 0.79157 0.26735 0.0
C496 C 0.50185 0.78663 0.27666 0.0
C497 C 0.47046 0.79208 0.27735 0.0
H498 H 0.48623 0.77861 0.32001 0.0
H499 H 0.51429 0.7869 0.26925 0.0
O500 O 0.56219 0.77235 0.33213 0.0
O501 O 0.52401 0.7572 0.32527 0.0
O502 O 0.52915 0.79664 0.32714 0.0
O503 O 0.54434 0.77738 0.29316 0.0
H504 H 0.5713 0.74175 0.34747 0.0
H505 H 0.57169 0.79813 0.35522 0.0
H506 H 0.58609 0.73843 0.37851 0.0
H507 H 0.58627 0.79381 0.38626 0.0
H508 H 0.49152 0.71305 0.29938 0.0
H509 H 0.53772 0.73061 0.34467 0.0
H510 H 0.49994 0.74463 0.30187 0.0
H511 H 0.52859 0.69931 0.34149 0.0
H512 H 0.53496 0.74865 0.40506 0.0
H513 H 0.51494 0.80185 0.39966 0.0
H514 H 0.6023 0.72548 0.30367 0.0
H515 H 0.55557 0.69887 0.28364 0.0
H516 H 0.50957 0.81655 0.30462 0.0
H517 H 0.54756 0.81752 0.34975 0.0
H518 H 0.50921 0.84928 0.30486 0.0
H519 H 0.54661 0.85026 0.34914 0.0
H520 H 0.5778 0.77976 0.28322 0.0
H521 H 0.52813 0.75537 0.26991 0.0
H522 H 0.59146 0.76324 0.25668 0.0
H523 H 0.54264 0.73935 0.24355 0.0
H524 H 0.6114 0.8188 0.31418 0.0
H525 H 0.56987 0.84755 0.28565 0.0
H526 H 0.45832 0.7871 0.30463 0.0
H527 H 0.48713 0.79567 0.25271 0.0
Li528 Li 0.78007 0.47635 0.69551 0.0
Li529 Li 0.77569 0.46425 0.66372 0.0
Li530 Li 0.75958 0.45154 0.69175 0.0
Li531 Li 0.791 0.44585 0.6868 0.0
C532 C 0.74758 0.48991 0.68428 0.0
N533 N 0.72682 0.51896 0.69213 0.0
C534 C 0.74537 0.50317 0.67075 0.0
C535 C 0.73901 0.49129 0.70168 0.0
C536 C 0.73489 0.51779 0.67502 0.0
C537 C 0.72863 0.50611 0.70542 0.0
C538 C 0.8095 0.4767 0.66396 0.0
C539 C 0.82987 0.47395 0.63798 0.0
N540 N 0.83182 0.4918 0.6377 0.0
C541 C 0.8119 0.49499 0.66357 0.0
C542 C 0.81872 0.46607 0.65121 0.0
C543 C 0.82317 0.50238 0.65013 0.0
C544 C 0.79443 0.495 0.72611 0.0
N545 N 0.78564 0.49704 0.70952 0.0
C546 C 0.78741 0.52844 0.71214 0.0
C547 C 0.78203 0.51333 0.70246 0.0
C548 C 0.79676 0.52676 0.72918 0.0
C549 C 0.80006 0.50975 0.73627 0.0
H550 H 0.79748 0.48189 0.73119 0.0
H551 H 0.7755 0.51464 0.68899 0.0
C552 C 0.76887 0.45789 0.62501 0.0
N553 N 0.77401 0.47035 0.63768 0.0
C554 C 0.76789 0.46196 0.6058 0.0
C555 C 0.7771 0.49174 0.61307 0.0
C556 C 0.77784 0.48709 0.63214 0.0
C557 C 0.77215 0.47907 0.59958 0.0
H558 H 0.76544 0.4448 0.6298 0.0
H559 H 0.78148 0.49688 0.64254 0.0
C560 C 0.77387 0.44937 0.728 0.0
N561 N 0.7633 0.43995 0.76399 0.0
C562 C 0.77825 0.43279 0.73531 0.0
C563 C 0.76443 0.46129 0.73916 0.0
C564 C 0.77269 0.42823 0.75348 0.0
C565 C 0.75913 0.45625 0.75727 0.0
C566 C 0.77473 0.42286 0.66278 0.0
C567 C 0.76513 0.40803 0.66844 0.0
C568 C 0.78818 0.42098 0.64947 0.0
C569 C 0.76941 0.39149 0.66099 0.0
C570 C 0.79208 0.40423 0.64235 0.0
N571 N 0.78271 0.38995 0.64823 0.0
C572 C 0.72251 0.44821 0.69535 0.0
C573 C 0.73924 0.42557 0.70988 0.0
C574 C 0.70684 0.43977 0.70032 0.0
N575 N 0.73828 0.441 0.70016 0.0
C576 C 0.72394 0.41666 0.71509 0.0
C577 C 0.70743 0.42364 0.71014 0.0
H578 H 0.72209 0.46029 0.68722 0.0
H579 H 0.75191 0.41978 0.71291 0.0
C580 C 0.82628 0.43508 0.69032 0.0
N581 N 0.80939 0.4292 0.69077 0.0
C582 C 0.84019 0.42349 0.69382 0.0
C583 C 0.81907 0.39996 0.69812 0.0
C584 C 0.80557 0.41204 0.69469 0.0
C585 C 0.83664 0.40568 0.69783 0.0
H586 H 0.82895 0.44885 0.68747 0.0
H587 H 0.79202 0.4078 0.69553 0.0
O588 O 0.75789 0.47555 0.68037 0.0
O589 O 0.79841 0.46924 0.67695 0.0
O590 O 0.77923 0.45404 0.71023 0.0
O591 O 0.77085 0.43913 0.6701 0.0
H592 H 0.75174 0.50223 0.65713 0.0
H593 H 0.74019 0.48095 0.71211 0.0
H594 H 0.73316 0.5282 0.66472 0.0
H595 H 0.72196 0.50736 0.71885 0.0
H596 H 0.83702 0.46588 0.62798 0.0
H597 H 0.80502 0.50342 0.67342 0.0
H598 H 0.81741 0.45188 0.65161 0.0
H599 H 0.82502 0.51654 0.64958 0.0
H600 H 0.78452 0.5413 0.7062 0.0
H601 H 0.80751 0.50783 0.74916 0.0
H602 H 0.76365 0.45187 0.59595 0.0
H603 H 0.7806 0.50505 0.60895 0.0
H604 H 0.78573 0.42348 0.72698 0.0
H605 H 0.7614 0.47436 0.73399 0.0
H606 H 0.77585 0.41539 0.75924 0.0
H607 H 0.75176 0.46533 0.76602 0.0
H608 H 0.75451 0.40924 0.67851 0.0
H609 H 0.79548 0.43233 0.64464 0.0
H610 H 0.76216 0.37989 0.66534 0.0
H611 H 0.80253 0.40259 0.63212 0.0
H612 H 0.69441 0.44566 0.69627 0.0
H613 H 0.72508 0.40405 0.7222 0.0
H614 H 0.85357 0.42841 0.69339 0.0
H615 H 0.81577 0.38641 0.7015 0.0
Li616 Li 0.4485 0.23881 0.31093 0.0
Li617 Li 0.46177 0.22062 0.33665 0.0
Li618 Li 0.4684 0.21618 0.30307 0.0
Li619 Li 0.44017 0.2076 0.31382 0.0
C620 C 0.47857 0.25412 0.32007 0.0
N621 N 0.48744 0.28943 0.32237 0.0
C622 C 0.47868 0.26267 0.33757 0.0
C623 C 0.48318 0.26346 0.30377 0.0
C624 C 0.48316 0.28055 0.33843 0.0
C625 C 0.48756 0.28132 0.30522 0.0
C626 C 0.41962 0.22479 0.33736 0.0
C627 C 0.39742 0.21034 0.35615 0.0
N628 N 0.3847 0.21853 0.34585 0.0
C629 C 0.40634 0.23306 0.32695 0.0
C630 C 0.41516 0.21333 0.35208 0.0
C631 C 0.38876 0.22973 0.33147 0.0
C632 C 0.43473 0.26709 0.28878 0.0
N633 N 0.43962 0.26179 0.30636 0.0
C634 C 0.42943 0.28884 0.31975 0.0
C635 C 0.43719 0.27227 0.32171 0.0
C636 C 0.42383 0.29456 0.30184 0.0
C637 C 0.42681 0.28356 0.28617 0.0
H638 H 0.43644 0.25832 0.27689 0.0
H639 H 0.44094 0.26756 0.33556 0.0
C640 C 0.48639 0.21629 0.36638 0.0
N641 N 0.46966 0.22117 0.36203 0.0
C642 C 0.49231 0.21711 0.38504 0.0
C643 C 0.4638 0.22834 0.39429 0.0
C644 C 0.45841 0.22723 0.37548 0.0
C645 C 0.48095 0.22322 0.39928 0.0
H646 H 0.4952 0.21198 0.35533 0.0
H647 H 0.44529 0.23135 0.37156 0.0
C648 C 0.4485 0.21868 0.27204 0.0
N649 N 0.45517 0.21341 0.23407 0.0
C650 C 0.44161 0.20391 0.26278 0.0
C651 C 0.45865 0.23084 0.26195 0.0
C652 C 0.44516 0.20147 0.24359 0.0
C653 C 0.46192 0.22792 0.24278 0.0
C654 C 0.47229 0.18369 0.31667 0.0
C655 C 0.46464 0.17082 0.30513 0.0
C656 C 0.49006 0.18227 0.32159 0.0
C657 C 0.4749 0.15674 0.29871 0.0
C658 C 0.4999 0.16803 0.31481 0.0
N659 N 0.49217 0.15566 0.30361 0.0
C660 C 0.5034 0.21756 0.28992 0.0
C661 C 0.48579 0.19645 0.274 0.0
C662 C 0.51829 0.212 0.28001 0.0
N663 N 0.48758 0.20964 0.28691 0.0
C664 C 0.50027 0.1906 0.26368 0.0
C665 C 0.51684 0.19821 0.26684 0.0
H666 H 0.50456 0.22784 0.30045 0.0
H667 H 0.47327 0.18996 0.27221 0.0
C668 C 0.40816 0.19446 0.29933 0.0
N669 N 0.42114 0.19145 0.31213 0.0
C670 C 0.39481 0.18204 0.29673 0.0
C671 C 0.40795 0.16416 0.32129 0.0
C672 C 0.42105 0.17692 0.32338 0.0
C673 C 0.39482 0.16644 0.3075 0.0
H674 H 0.40848 0.20628 0.29075 0.0
H675 H 0.43144 0.17505 0.33365 0.0
O676 O 0.47392 0.23672 0.31887 0.0
O677 O 0.4369 0.22744 0.33277 0.0
O678 O 0.44511 0.22133 0.29082 0.0
O679 O 0.46251 0.19771 0.3229 0.0
H680 H 0.47516 0.25566 0.35032 0.0
H681 H 0.48334 0.25699 0.29016 0.0
H682 H 0.48318 0.28737 0.35186 0.0
H683 H 0.49106 0.28874 0.29271 0.0
H684 H 0.39376 0.20144 0.36745 0.0
H685 H 0.40957 0.2418 0.31536 0.0
H686 H 0.42529 0.20663 0.3601 0.0
H687 H 0.37833 0.23599 0.32349 0.0
H688 H 0.42757 0.29695 0.33219 0.0
H689 H 0.42244 0.28731 0.27217 0.0
H690 H 0.50573 0.21331 0.38824 0.0
H691 H 0.45458 0.23301 0.40483 0.0
H692 H 0.43385 0.19428 0.27037 0.0
H693 H 0.46405 0.24235 0.26888 0.0
H694 H 0.44001 0.19004 0.23627 0.0
H695 H 0.46984 0.23718 0.23483 0.0
H696 H 0.45102 0.17183 0.30086 0.0
H697 H 0.49627 0.1922 0.33027 0.0
H698 H 0.46916 0.14674 0.28969 0.0
H699 H 0.51369 0.16686 0.31838 0.0
H700 H 0.53086 0.21824 0.28282 0.0
H701 H 0.49865 0.17969 0.25394 0.0
H702 H 0.38505 0.1843 0.28585 0.0
H703 H 0.40828 0.15248 0.33011 0.0
Li704 Li 0.71914 0.9751 0.80356 0.0
Li705 Li 0.72225 0.96457 0.83606 0.0
Li706 Li 0.74049 0.95293 0.81073 0.0
Li707 Li 0.70919 0.94563 0.81262 0.0
C708 C 0.75702 0.98116 0.82198 0.0
N709 N 0.79284 0.98674 0.82495 0.0
C710 C 0.76539 0.97951 0.83948 0.0
C711 C 0.76682 0.98575 0.80601 0.0
C712 C 0.78352 0.98237 0.84068 0.0
C713 C 0.78493 0.98848 0.8078 0.0
C714 C 0.69046 0.97759 0.83428 0.0
C715 C 0.67265 0.97836 0.86247 0.0
N716 N 0.67192 0.99627 0.86126 0.0
C717 C 0.6895 0.996 0.83327 0.0
C718 C 0.68193 0.96868 0.84894 0.0
C719 C 0.68005 0.0052 0.84705 0.0
C720 C 0.69687 0.99389 0.77983 0.0
N721 N 0.71285 0.99474 0.7884 0.0
C722 C 0.71764 0.02379 0.77629 0.0
C723 C 0.72328 0.00925 0.78687 0.0
C724 C 0.70122 0.0232 0.76718 0.0
C725 C 0.69085 0.00795 0.76893 0.0
H726 H 0.6887 0.98233 0.78171 0.0
H727 H 0.73581 0.00965 0.7941 0.0
C728 C 0.72185 0.9589 0.87555 0.0
N729 N 0.72206 0.97147 0.86187 0.0
C730 C 0.72171 0.96372 0.89457 0.0
C731 C 0.7223 0.99439 0.88507 0.0
C732 C 0.72244 0.98895 0.86622 0.0
C733 C 0.7219 0.98168 0.89955 0.0
H734 H 0.72194 0.9451 0.87171 0.0
H735 H 0.72282 0.99866 0.85502 0.0
C736 C 0.71935 0.95667 0.77196 0.0
N737 N 0.7109 0.96668 0.73552 0.0
C738 C 0.70347 0.95124 0.76385 0.0
C739 C 0.731 0.96708 0.76148 0.0
C740 C 0.69943 0.95646 0.74542 0.0
C741 C 0.72646 0.97205 0.7431 0.0
C742 C 0.72452 0.92247 0.83465 0.0
C743 C 0.7348 0.90917 0.82652 0.0
C744 C 0.71016 0.91791 0.84599 0.0
C745 C 0.7305 0.89151 0.82988 0.0
C746 C 0.70627 0.9001 0.84896 0.0
N747 N 0.71644 0.88738 0.84092 0.0
C748 C 0.77301 0.93842 0.82037 0.0
C749 C 0.76843 0.94072 0.78731 0.0
C750 C 0.78894 0.92972 0.81749 0.0
N751 N 0.76305 0.94349 0.80538 0.0
C752 C 0.78434 0.9321 0.78376 0.0
C753 C 0.79461 0.92615 0.79899 0.0
H754 H 0.76827 0.94065 0.83458 0.0
H755 H 0.76011 0.94467 0.77567 0.0
C756 C 0.67474 0.93198 0.81162 0.0
N757 N 0.69182 0.92822 0.80759 0.0
C758 C 0.66151 0.91992 0.80717 0.0
C759 C 0.68371 0.90019 0.79475 0.0
C760 C 0.6965 0.91276 0.79921 0.0
C761 C 0.66595 0.90382 0.79856 0.0
H762 H 0.67136 0.9445 0.81797 0.0
H763 H 0.71013 0.91033 0.79571 0.0
O764 O 0.73936 0.97803 0.82043 0.0
O765 O 0.69996 0.96836 0.82117 0.0
O766 O 0.72341 0.95195 0.7901 0.0
O767 O 0.72837 0.93986 0.83136 0.0
H768 H 0.75801 0.97586 0.85195 0.0
H769 H 0.76055 0.98701 0.79236 0.0
H770 H 0.79019 0.98105 0.85411 0.0
H771 H 0.79271 0.99193 0.79555 0.0
H772 H 0.66608 0.97164 0.87397 0.0
H773 H 0.69611 0.00313 0.8221 0.0
H774 H 0.68263 0.95444 0.84999 0.0
H775 H 0.67926 0.01945 0.8465 0.0
H776 H 0.72595 0.03537 0.7753 0.0
H777 H 0.67796 0.00713 0.76243 0.0
H778 H 0.72175 0.95349 0.90525 0.0
H779 H 0.72233 0.00837 0.88827 0.0
H780 H 0.69427 0.94322 0.77175 0.0
H781 H 0.74329 0.9715 0.76757 0.0
H782 H 0.68715 0.95242 0.739 0.0
H783 H 0.73528 0.98022 0.73489 0.0
H784 H 0.74585 0.91241 0.81756 0.0
H785 H 0.70193 0.92801 0.8522 0.0
H786 H 0.73831 0.88109 0.82363 0.0
H787 H 0.69513 0.89639 0.85761 0.0
H788 H 0.79656 0.92547 0.8296 0.0
H789 H 0.78816 0.92942 0.7693 0.0
H790 H 0.64794 0.92315 0.81035 0.0
H791 H 0.68759 0.88803 0.78786 0.0
Li792 Li 0.94529 0.28886 0.18478 0.0
Li793 Li 0.97396 0.27897 0.19265 0.0
Li794 Li 0.96279 0.27522 0.16067 0.0
Li795 Li 0.95079 0.25796 0.1872 0.0
C796 C 0.97244 0.31368 0.18097 0.0
N797 N 0.98246 0.34616 0.19513 0.0
C798 C 0.96777 0.31856 0.19936 0.0
C799 C 0.98221 0.32531 0.16981 0.0
C800 C 0.97295 0.33504 0.20625 0.0
C801 C 0.98715 0.34168 0.17722 0.0
C802 C 0.9559 0.26715 0.22421 0.0
C803 C 0.97226 0.24529 0.24172 0.0
N804 N 0.96334 0.24986 0.25765 0.0
C805 C 0.9469 0.27161 0.24074 0.0
C806 C 0.96869 0.25387 0.22467 0.0
C807 C 0.95085 0.26272 0.25751 0.0
C808 C 0.9154 0.30261 0.20262 0.0
N809 N 0.92779 0.3063 0.18937 0.0
C810 C 0.915 0.33459 0.18358 0.0
C811 C 0.92774 0.32182 0.17972 0.0
C812 C 0.90217 0.33129 0.19744 0.0
C813 C 0.90237 0.31497 0.20689 0.0
H814 H 0.91575 0.29009 0.20998 0.0
H815 H 0.93763 0.32431 0.16906 0.0
C816 C 0.01031 0.28294 0.19682 0.0
N817 N 0.9948 0.28455 0.2062 0.0
C818 C 0.02594 0.28872 0.20516 0.0
C819 C 0.00936 0.29721 0.23287 0.0
C820 C 0.99405 0.29138 0.22396 0.0
C821 C 0.02553 0.29619 0.22332 0.0
H822 H 0.01044 0.27764 0.18262 0.0
H823 H 0.98151 0.29291 0.23095 0.0
C824 C 0.92354 0.27796 0.15859 0.0
N825 N 0.89452 0.2946 0.14317 0.0
C826 C 0.90657 0.27249 0.16348 0.0
C827 C 0.92574 0.29185 0.1458 0.0
C828 C 0.89207 0.28108 0.15555 0.0
C829 C 0.91091 0.30009 0.13816 0.0
C830 C 0.97856 0.24267 0.1663 0.0
C831 C 0.96539 0.23556 0.15477 0.0
C832 C 0.99511 0.23465 0.16691 0.0
C833 C 0.96901 0.22049 0.14408 0.0
C834 C 0.99821 0.21959 0.15601 0.0
N835 N 0.98521 0.21288 0.14492 0.0
C836 C 0.98544 0.28106 0.13014 0.0
C837 C 0.95797 0.26855 0.12159 0.0
C838 C 0.99084 0.28115 0.11128 0.0
N839 N 0.96924 0.2749 0.13485 0.0
C840 C 0.96275 0.26853 0.10255 0.0
C841 C 0.97939 0.27492 0.09715 0.0
H842 H 0.99417 0.28587 0.14107 0.0
H843 H 0.94521 0.26359 0.12578 0.0
C844 C 0.92359 0.23792 0.20133 0.0
N845 N 0.94049 0.23639 0.19533 0.0
C846 C 0.91428 0.22307 0.20724 0.0
C847 C 0.94019 0.20534 0.20145 0.0
C848 C 0.94905 0.22061 0.19572 0.0
C849 C 0.9225 0.20646 0.20712 0.0
H850 H 0.91734 0.25074 0.20144 0.0
H851 H 0.9627 0.21979 0.1916 0.0
O852 O 0.96771 0.29755 0.1739 0.0
O853 O 0.952 0.27572 0.20771 0.0
O854 O 0.93793 0.27003 0.16655 0.0
O855 O 0.97549 0.25755 0.17674 0.0
H856 H 0.96025 0.30974 0.20824 0.0
H857 H 0.98597 0.32169 0.15557 0.0
H858 H 0.96944 0.33898 0.22045 0.0
H859 H 0.99472 0.35081 0.16873 0.0
H860 H 0.98211 0.23499 0.24229 0.0
H861 H 0.93695 0.28184 0.2406 0.0
H862 H 0.97582 0.25019 0.21207 0.0
H863 H 0.94398 0.26605 0.27042 0.0
H864 H 0.91517 0.34691 0.1758 0.0
H865 H 0.89284 0.31197 0.2178 0.0
H866 H 0.03816 0.28762 0.19737 0.0
H867 H 0.00843 0.30317 0.24675 0.0
H868 H 0.90459 0.26173 0.17329 0.0
H869 H 0.93877 0.29644 0.14207 0.0
H870 H 0.87887 0.27701 0.15925 0.0
H871 H 0.91243 0.31094 0.12834 0.0
H872 H 0.95248 0.24151 0.15413 0.0
H873 H 0.00546 0.24004 0.17571 0.0
H874 H 0.95894 0.21483 0.13513 0.0
H875 H 0.01096 0.21324 0.15636 0.0
H876 H 0.00389 0.2859 0.10786 0.0
H877 H 0.95339 0.26381 0.09218 0.0
H878 H 0.90064 0.22454 0.21137 0.0
H879 H 0.94709 0.19283 0.20147 0.0
Li880 Li 0.25941 0.04874 0.81205 0.0
Li881 Li 0.29041 0.05717 0.81376 0.0
Li882 Li 0.28159 0.0272 0.80525 0.0
Li883 Li 0.27821 0.03819 0.83757 0.0
C884 C 0.28034 0.04494 0.77326 0.0
N885 N 0.28852 0.0344 0.73693 0.0
C886 C 0.29605 0.05045 0.76484 0.0
C887 C 0.26874 0.03415 0.76315 0.0
C888 C 0.29995 0.04497 0.74646 0.0
C889 C 0.27314 0.02893 0.74482 0.0
C890 C 0.27431 0.08018 0.83474 0.0
C891 C 0.29123 0.10384 0.84855 0.0
N892 N 0.2814 0.11576 0.83879 0.0
C893 C 0.26436 0.09266 0.82486 0.0
C894 C 0.28783 0.08579 0.84672 0.0
C895 C 0.26815 0.11059 0.8271 0.0
C896 C 0.22625 0.0616 0.82179 0.0
N897 N 0.23642 0.05717 0.80674 0.0
C898 C 0.21428 0.06714 0.78529 0.0
C899 C 0.23079 0.05966 0.78871 0.0
C900 C 0.20357 0.07212 0.80059 0.0
C901 C 0.20967 0.06905 0.81904 0.0
H902 H 0.23125 0.05975 0.83597 0.0
H903 H 0.23925 0.05624 0.77701 0.0
C904 C 0.32347 0.07415 0.81566 0.0
N905 N 0.3069 0.07541 0.80858 0.0
C906 C 0.33599 0.08702 0.81142 0.0
C907 C 0.31413 0.10231 0.79274 0.0
C908 C 0.30201 0.08914 0.79737 0.0
C909 C 0.33145 0.10125 0.79964 0.0
H910 H 0.32704 0.06302 0.82438 0.0
H911 H 0.28878 0.08966 0.79175 0.0
C912 C 0.24406 0.02002 0.82414 0.0
N913 N 0.20857 0.01288 0.82774 0.0
C914 C 0.23589 0.02137 0.84177 0.0
C915 C 0.23422 0.01492 0.80837 0.0
C916 C 0.21792 0.01772 0.8433 0.0
C917 C 0.21628 0.01141 0.81047 0.0
C918 C 0.31057 0.02622 0.8358 0.0
C919 C 0.31339 0.00805 0.83415 0.0
C920 C 0.31779 0.03541 0.85108 0.0
C921 C 0.32334 0.99935 0.8479 0.0
C922 C 0.32763 0.02622 0.86455 0.0
N923 N 0.33018 0.00853 0.8627 0.0
C924 C 0.30365 0.00806 0.78107 0.0
C925 C 0.27796 0.99251 0.79029 0.0
C926 C 0.30949 0.99361 0.7706 0.0
N927 N 0.2881 0.00729 0.79052 0.0
C928 C 0.28343 0.97762 0.78022 0.0
C929 C 0.2994 0.97809 0.77023 0.0
H930 H 0.31166 0.01983 0.78194 0.0
H931 H 0.2658 0.99217 0.7982 0.0
C932 C 0.27698 0.04436 0.87698 0.0
N933 N 0.27859 0.0317 0.86349 0.0
C934 C 0.2773 0.03976 0.89608 0.0
C935 C 0.28074 0.00918 0.887 0.0
C936 C 0.28022 0.01436 0.86808 0.0
C937 C 0.27928 0.02197 0.90132 0.0
H938 H 0.27531 0.058 0.87292 0.0
H939 H 0.28122 0.00457 0.85701 0.0
O940 O 0.27639 0.04995 0.79134 0.0
O941 O 0.27108 0.06254 0.83241 0.0
O942 O 0.26154 0.02392 0.82227 0.0
O943 O 0.30063 0.03494 0.82265 0.0
H944 H 0.30523 0.0587 0.77248 0.0
H945 H 0.25659 0.02966 0.7695 0.0
H946 H 0.3121 0.04907 0.73981 0.0
H947 H 0.26434 0.02049 0.73689 0.0
H948 H 0.30173 0.10836 0.85767 0.0
H949 H 0.25396 0.08857 0.81538 0.0
H950 H 0.29579 0.0763 0.8543 0.0
H951 H 0.2606 0.1204 0.81949 0.0
H952 H 0.21004 0.06922 0.77085 0.0
H953 H 0.20203 0.073 0.83124 0.0
H954 H 0.34912 0.08578 0.81722 0.0
H955 H 0.31012 0.11289 0.78338 0.0
H956 H 0.24328 0.02538 0.85411 0.0
H957 H 0.24034 0.01387 0.79461 0.0
H958 H 0.2114 0.0188 0.85683 0.0
H959 H 0.20848 0.00756 0.79837 0.0
H960 H 0.30784 0.00069 0.82249 0.0
H961 H 0.31556 0.04944 0.85272 0.0
H962 H 0.32558 0.98527 0.84684 0.0
H963 H 0.33318 0.03314 0.87653 0.0
H964 H 0.32203 0.99437 0.76338 0.0
H965 H 0.27533 0.96585 0.78028 0.0
H966 H 0.27576 0.05003 0.90659 0.0
H967 H 0.28245 0.99533 0.89034 0.0
Li968 Li 0.02352 0.71965 0.19788 0.0
Li969 Li 0.05243 0.70779 0.18904 0.0
Li970 Li 0.04691 0.73909 0.19223 0.0
Li971 Li 0.03387 0.72276 0.16578 0.0
C972 C 0.05287 0.72958 0.22736 0.0
N973 N 0.06765 0.74805 0.2571 0.0
C974 C 0.06883 0.72406 0.23521 0.0
C975 C 0.04425 0.74427 0.23493 0.0
C976 C 0.07613 0.73362 0.25017 0.0
C977 C 0.05198 0.7535 0.24986 0.0
C978 C 0.02365 0.68446 0.18616 0.0
C979 C 0.01009 0.65593 0.1819 0.0
N980 N 0.013 0.6522 0.20043 0.0
C981 C 0.02652 0.68033 0.20519 0.0
C982 C 0.01536 0.67217 0.17442 0.0
C983 C 0.02103 0.66396 0.21212 0.0
C984 C 0.98904 0.70742 0.20293 0.0
N985 N 0.00292 0.71464 0.21226 0.0
C986 C 0.98802 0.71159 0.2418 0.0
C987 C 0.00264 0.71693 0.2313 0.0
C988 C 0.97364 0.70366 0.2326 0.0
C989 C 0.97421 0.70183 0.21285 0.0
H990 H 0.98975 0.70549 0.18781 0.0
H991 H 0.01393 0.72246 0.23841 0.0
C992 C 0.08649 0.69578 0.19686 0.0
N993 N 0.07026 0.69009 0.19151 0.0
C994 C 0.10026 0.68377 0.19925 0.0
C995 C 0.08064 0.66035 0.18957 0.0
C996 C 0.06729 0.67281 0.18734 0.0
C997 C 0.09735 0.66573 0.19583 0.0
H998 H 0.08871 0.7097 0.19928 0.0
H999 H 0.05462 0.66858 0.18223 0.0
C1000 C 0.00562 0.74587 0.18384 0.0
N1001 N 0.97046 0.7542 0.18854 0.0
C1002 C 0.99324 0.74068 0.17032 0.0
C1003 C 0.00013 0.75549 0.19964 0.0
C1004 C 0.97553 0.74498 0.17297 0.0
C1005 C 0.9823 0.75951 0.20179 0.0
C1006 C 0.06953 0.71987 0.15735 0.0
C1007 C 0.08476 0.72874 0.15169 0.0
C1008 C 0.06491 0.70396 0.14862 0.0
C1009 C 0.09513 0.72157 0.1373 0.0
C1010 C 0.07563 0.69723 0.1343 0.0
N1011 N 0.09038 0.70609 0.12898 0.0
C1012 C 0.07593 0.7599 0.20151 0.0
C1013 C 0.04921 0.77598 0.19938 0.0
C1014 C 0.08524 0.7753 0.20555 0.0
N1015 N 0.05829 0.76054 0.19849 0.0
C1016 C 0.05801 0.79173 0.20338 0.0
C1017 C 0.0763 0.79153 0.20639 0.0
H1018 H 0.08277 0.7474 0.20053 0.0
H1019 H 0.03519 0.77607 0.1968 0.0
C1020 C 0.01638 0.71176 0.13259 0.0
N1021 N 0.02814 0.7235 0.13975 0.0
C1022 C 0.01233 0.71194 0.11335 0.0
C1023 C 0.03273 0.73617 0.10926 0.0
C1024 C 0.03627 0.73561 0.1286 0.0
C1025 C 0.0206 0.72423 0.10142 0.0
H1026 H 0.01012 0.70232 0.14184 0.0
H1027 H 0.04556 0.74478 0.13475 0.0
O1028 O 0.04564 0.72054 0.21249 0.0
O1029 O 0.02857 0.70054 0.17906 0.0
O1030 O 0.02297 0.74144 0.18168 0.0
O1031 O 0.05934 0.72673 0.17149 0.0
H1032 H 0.07546 0.71245 0.22995 0.0
H1033 H 0.03185 0.74864 0.22914 0.0
H1034 H 0.08852 0.72954 0.25631 0.0
H1035 H 0.04553 0.76502 0.25568 0.0
H1036 H 0.00367 0.6463 0.17296 0.0
H1037 H 0.03289 0.6896 0.21455 0.0
H1038 H 0.01302 0.67512 0.15968 0.0
H1039 H 0.02315 0.66061 0.22681 0.0
H1040 H 0.98809 0.7134 0.25698 0.0
H1041 H 0.96362 0.69549 0.20517 0.0
H1042 H 0.11304 0.68857 0.20366 0.0
H1043 H 0.07776 0.64659 0.18679 0.0
H1044 H 0.99721 0.73327 0.15801 0.0
H1045 H 0.00949 0.75973 0.21019 0.0
H1046 H 0.96581 0.74095 0.16267 0.0
H1047 H 0.97786 0.76684 0.21402 0.0
H1048 H 0.08853 0.74104 0.15836 0.0
H1049 H 0.05321 0.69686 0.15286 0.0
H1050 H 0.10695 0.7283 0.13277 0.0
H1051 H 0.07221 0.68494 0.12743 0.0
H1052 H 0.09936 0.77456 0.20744 0.0
H1053 H 0.0506 0.80393 0.20402 0.0
H1054 H 0.00303 0.70242 0.10783 0.0
H1055 H 0.03924 0.74596 0.10057 0.0
Li1056 Li 0.70542 0.05477 0.18549 0.0
Li1057 Li 0.73689 0.04915 0.1887 0.0
Li1058 Li 0.72009 0.03727 0.16211 0.0
Li1059 Li 0.71647 0.02541 0.19403 0.0
C1060 C 0.72953 0.06902 0.15158 0.0
N1061 N 0.74011 0.08081 0.11641 0.0
C1062 C 0.74738 0.07177 0.1478 0.0
C1063 C 0.71706 0.07234 0.13749 0.0
C1064 C 0.75246 0.07774 0.12993 0.0
C1065 C 0.72267 0.07825 0.11979 0.0
C1066 C 0.72608 0.05531 0.22355 0.0
C1067 C 0.74676 0.0547 0.24939 0.0
N1068 N 0.74283 0.07182 0.25335 0.0
C1069 C 0.72217 0.07287 0.22793 0.0
C1070 C 0.7384 0.0461 0.23441 0.0
C1071 C 0.7308 0.081 0.24304 0.0
C1072 C 0.67777 0.06907 0.20662 0.0
N1073 N 0.68739 0.07142 0.19063 0.0
C1074 C 0.67113 0.09742 0.18289 0.0
C1075 C 0.68442 0.08526 0.17883 0.0
C1076 C 0.66103 0.09538 0.19936 0.0
C1077 C 0.66446 0.08097 0.2113 0.0
H1078 H 0.6805 0.05794 0.21574 0.0
H1079 H 0.6924 0.08691 0.16634 0.0
C1080 C 0.77357 0.05058 0.19774 0.0
N1081 N 0.75829 0.05983 0.19633 0.0
C1082 C 0.7891 0.05916 0.20305 0.0
C1083 C 0.77271 0.08645 0.20551 0.0
C1084 C 0.75762 0.07743 0.19991 0.0
C1085 C 0.78872 0.07732 0.20706 0.0
H1086 H 0.77374 0.03663 0.19455 0.0
H1087 H 0.74534 0.08448 0.19825 0.0
C1088 C 0.68022 0.03329 0.17644 0.0
N1089 N 0.64437 0.03848 0.17997 0.0
C1090 C 0.67098 0.02544 0.19131 0.0
C1091 C 0.6712 0.04371 0.16331 0.0
C1092 C 0.65286 0.02822 0.19284 0.0
C1093 C 0.65309 0.04621 0.16537 0.0
C1094 C 0.74425 0.00851 0.17983 0.0
C1095 C 0.74206 0.99631 0.16519 0.0
C1096 C 0.75251 0.00331 0.19658 0.0
C1097 C 0.74805 0.97901 0.16765 0.0
C1098 C 0.75828 0.98589 0.19849 0.0
N1099 N 0.75595 0.9742 0.18411 0.0
C1100 C 0.73667 0.03138 0.12686 0.0
C1101 C 0.70573 0.02731 0.12692 0.0
C1102 C 0.73742 0.0277 0.10754 0.0
N1103 N 0.72095 0.03131 0.13603 0.0
C1104 C 0.70587 0.02352 0.10764 0.0
C1105 C 0.72186 0.02377 0.09766 0.0
H1106 H 0.74859 0.03441 0.13455 0.0
H1107 H 0.69346 0.02716 0.1346 0.0
C1108 C 0.70788 0.00671 0.22719 0.0
N1109 N 0.71104 0.00493 0.20838 0.0
C1110 C 0.70181 0.99236 0.23771 0.0
C1111 C 0.70295 0.97446 0.20943 0.0
C1112 C 0.70864 0.98925 0.19938 0.0
C1113 C 0.69919 0.97604 0.22876 0.0
H1114 H 0.70944 0.01944 0.23388 0.0
H1115 H 0.71058 0.98837 0.18429 0.0
O1116 O 0.72432 0.06286 0.16887 0.0
O1117 O 0.71804 0.04723 0.20858 0.0
O1118 O 0.69805 0.0311 0.17496 0.0
O1119 O 0.73839 0.02546 0.17774 0.0
H1120 H 0.75724 0.06916 0.15846 0.0
H1121 H 0.70321 0.07003 0.14006 0.0
H1122 H 0.76623 0.07986 0.12679 0.0
H1123 H 0.71317 0.08072 0.10871 0.0
H1124 H 0.7564 0.04776 0.25785 0.0
H1125 H 0.71275 0.08024 0.2196 0.0
H1126 H 0.74155 0.0325 0.23122 0.0
H1127 H 0.72799 0.09462 0.24652 0.0
H1128 H 0.66899 0.10846 0.17344 0.0
H1129 H 0.65684 0.07883 0.22402 0.0
H1130 H 0.80124 0.05172 0.20402 0.0
H1131 H 0.77196 0.10053 0.20809 0.0
H1132 H 0.67772 0.01739 0.20164 0.0
H1133 H 0.67817 0.0501 0.15187 0.0
H1134 H 0.64556 0.02228 0.20432 0.0
H1135 H 0.64598 0.05437 0.15541 0.0
H1136 H 0.73568 9e-05 0.15215 0.0
H1137 H 0.75432 0.01259 0.20802 0.0
H1138 H 0.74637 0.96941 0.15648 0.0
H1139 H 0.76461 0.98165 0.21142 0.0
H1140 H 0.75006 0.02778 0.10047 0.0
H1141 H 0.69355 0.02071 0.10056 0.0
H1142 H 0.69891 0.99404 0.25258 0.0
H1143 H 0.70073 0.96215 0.20201 0.0
Li1144 Li 0.03522 0.27843 0.83452 0.0
Li1145 Li 0.04753 0.2603 0.80944 0.0
Li1146 Li 0.05598 0.29188 0.81087 0.0
Li1147 Li 0.02729 0.28218 0.80122 0.0
C1148 C 0.07132 0.27854 0.84378 0.0
N1149 N 0.09347 0.2904 0.87202 0.0
C1150 C 0.08598 0.26855 0.84903 0.0
C1151 C 0.06789 0.29456 0.8529 0.0
C1152 C 0.09703 0.27478 0.86334 0.0
C1153 C 0.07926 0.30033 0.86713 0.0
C1154 C 0.01821 0.24441 0.81701 0.0
C1155 C 0.01034 0.21859 0.79896 0.0
N1156 N 0.01072 0.20876 0.81504 0.0
C1157 C 0.01834 0.23411 0.83339 0.0
C1158 C 0.01401 0.23665 0.79968 0.0
C1159 C 0.01458 0.21609 0.83209 0.0
C1160 C 0.01825 0.29122 0.86777 0.0
N1161 N 0.02895 0.27853 0.86052 0.0
C1162 C 0.03275 0.26563 0.89106 0.0
C1163 C 0.03623 0.2659 0.87171 0.0
C1164 C 0.02159 0.27845 0.89892 0.0
C1165 C 0.01425 0.29134 0.88702 0.0
H1166 H 0.01303 0.30141 0.8587 0.0
H1167 H 0.04489 0.2561 0.86558 0.0
C1168 C 0.06008 0.23157 0.78728 0.0
N1169 N 0.05678 0.23741 0.80508 0.0
C1170 C 0.06797 0.21513 0.78445 0.0
C1171 C 0.06864 0.21097 0.81833 0.0
C1172 C 0.06082 0.22751 0.82049 0.0
C1173 C 0.07252 0.20468 0.80012 0.0
H1174 H 0.05693 0.23981 0.7753 0.0
H1175 H 0.05825 0.23264 0.83449 0.0
C1176 C 0.02108 0.31356 0.81576 0.0
N1177 N 0.99589 0.33812 0.80554 0.0
C1178 C 0.02582 0.32844 0.80523 0.0
C1179 C 0.00351 0.31117 0.82106 0.0
C1180 C 0.0129 0.34072 0.80024 0.0
C1181 C 0.99097 0.32372 0.81574 0.0
C1182 C 0.04751 0.28109 0.76993 0.0
C1183 C 0.05455 0.29649 0.76206 0.0
C1184 C 0.03784 0.26954 0.75855 0.0
C1185 C 0.05162 0.30015 0.74297 0.0
C1186 C 0.03518 0.27369 0.73953 0.0
N1187 N 0.04206 0.28878 0.7322 0.0
C1188 C 0.08901 0.30334 0.79778 0.0
C1189 C 0.07361 0.32433 0.81632 0.0
C1190 C 0.10257 0.3154 0.79451 0.0
N1191 N 0.07476 0.30813 0.80817 0.0
C1192 C 0.08683 0.33681 0.81341 0.0
C1193 C 0.10141 0.33251 0.80209 0.0
H1194 H 0.08958 0.29028 0.79159 0.0
H1195 H 0.06228 0.32765 0.82486 0.0
C1196 C 0.9921 0.2801 0.78805 0.0
N1197 N 0.00783 0.28824 0.78509 0.0
C1198 C 0.97712 0.28555 0.77818 0.0
C1199 C 0.9949 0.30724 0.76196 0.0
C1200 C 0.00943 0.30156 0.77232 0.0
C1201 C 0.97843 0.29939 0.76506 0.0
H1202 H 0.99105 0.26981 0.79857 0.0
H1203 H 0.02181 0.30835 0.77072 0.0
O1204 O 0.06038 0.27256 0.82983 0.0
O1205 O 0.02229 0.26199 0.8179 0.0
O1206 O 0.03348 0.30121 0.82047 0.0
O1207 O 0.05035 0.27723 0.78858 0.0
H1208 H 0.08878 0.25611 0.84212 0.0
H1209 H 0.05657 0.30244 0.84907 0.0
H1210 H 0.10844 0.26719 0.86755 0.0
H1211 H 0.07677 0.31269 0.8743 0.0
H1212 H 0.00719 0.21238 0.78561 0.0
H1213 H 0.02144 0.23992 0.84693 0.0
H1214 H 0.01367 0.24447 0.78691 0.0
H1215 H 0.01476 0.20793 0.84464 0.0
H1216 H 0.0386 0.25544 0.89976 0.0
H1217 H 0.00581 0.30161 0.89262 0.0
H1218 H 0.07067 0.21073 0.77019 0.0
H1219 H 0.0722 0.20349 0.8308 0.0
H1220 H 0.03926 0.33035 0.80064 0.0
H1221 H -0.0005 0.29951 0.82877 0.0
H1222 H 0.01638 0.35225 0.79203 0.0
H1223 H 0.97731 0.32194 0.81959 0.0
H1224 H 0.06197 0.30566 0.77063 0.0
H1225 H 0.03233 0.25756 0.76435 0.0
H1226 H 0.0569 0.31207 0.73673 0.0
H1227 H 0.02763 0.26492 0.7306 0.0
H1228 H 0.1135 0.31158 0.78558 0.0
H1229 H 0.08558 0.34975 0.81978 0.0
H1230 H 0.96461 0.27923 0.78099 0.0
H1231 H 0.99636 0.31822 0.75228 0.0
Li1232 Li 0.279 0.96017 0.16269 0.0
Li1233 Li 0.28339 0.97139 0.19472 0.0
Li1234 Li 0.2922 0.94146 0.18619 0.0
Li1235 Li 0.26122 0.94968 0.18906 0.0
C1236 C 0.3114 0.97202 0.16291 0.0
N1237 N 0.33007 0.98898 0.13474 0.0
C1238 C 0.31379 0.99031 0.16358 0.0
C1239 C 0.31856 0.96235 0.14794 0.0
C1240 C 0.32328 0.99864 0.14921 0.0
C1241 C 0.32793 0.97117 0.13382 0.0
C1242 C 0.24514 0.97815 0.17721 0.0
C1243 C 0.2175 0.98571 0.19189 0.0
N1244 N 0.2095 0.98499 0.17471 0.0
C1245 C 0.23666 0.97754 0.15969 0.0
C1246 C 0.23552 0.98234 0.19344 0.0
C1247 C 0.21863 0.98104 0.15873 0.0
C1248 C 0.27696 0.95334 0.12349 0.0
N1249 N 0.27862 0.96629 0.13665 0.0
C1250 C 0.28017 0.98833 0.11256 0.0
C1251 C 0.27997 0.98355 0.13161 0.0
C1252 C 0.27872 0.97522 0.09858 0.0
C1253 C 0.27697 0.95752 0.10429 0.0
H1254 H 0.27553 0.93977 0.1279 0.0
H1255 H 0.28102 0.99359 0.14242 0.0
C1256 C 0.30731 0.9915 0.21539 0.0
N1257 N 0.2904 0.9913 0.20915 0.0
C1258 C 0.31367 0.00591 0.22554 0.0
C1259 C 0.28503 0.01963 0.22282 0.0
C1260 C 0.27922 0.00491 0.21267 0.0
C1261 C 0.30253 0.02031 0.22922 0.0
H1262 H 0.31591 0.9805 0.21226 0.0
H1263 H 0.26589 0.00446 0.20736 0.0
C1264 C 0.27541 0.91817 0.16589 0.0
N1265 N 0.28224 0.88258 0.1614 0.0
C1266 C 0.26543 0.90565 0.17568 0.0
C1267 C 0.28882 0.91258 0.15376 0.0
C1268 C 0.26908 0.88772 0.17322 0.0
C1269 C 0.29209 0.89453 0.15171 0.0
C1270 C 0.28403 0.95424 0.22666 0.0
C1271 C 0.30074 0.94994 0.23352 0.0
C1272 C 0.27265 0.96441 0.23772 0.0
C1273 C 0.30584 0.95601 0.25135 0.0
C1274 C 0.27826 0.97025 0.25545 0.0
N1275 N 0.29459 0.96597 0.26184 0.0
C1276 C 0.32561 0.92499 0.18444 0.0
C1277 C 0.30397 0.90931 0.20177 0.0
C1278 C 0.33817 0.9121 0.18852 0.0
N1279 N 0.30891 0.92336 0.19107 0.0
C1280 C 0.31607 0.89605 0.20613 0.0
C1281 C 0.33348 0.89743 0.19959 0.0
H1282 H 0.32926 0.93643 0.17622 0.0
H1283 H 0.29066 0.90854 0.20714 0.0
C1284 C 0.22749 0.93713 0.18104 0.0
N1285 N 0.23862 0.94093 0.19549 0.0
C1286 C 0.21124 0.9293 0.18465 0.0
C1287 C 0.21817 0.92949 0.218 0.0
C1288 C 0.23429 0.93743 0.21374 0.0
C1289 C 0.2065 0.92514 0.20331 0.0
H1290 H 0.23149 0.93971 0.16664 0.0
H1291 H 0.24353 0.94034 0.22492 0.0
O1292 O 0.30189 0.96366 0.17667 0.0
O1293 O 0.26272 0.97447 0.1785 0.0
O1294 O 0.27227 0.93581 0.16838 0.0
O1295 O 0.27894 0.94877 0.20907 0.0
H1296 H 0.30821 0.99805 0.17494 0.0
H1297 H 0.31668 0.94822 0.14707 0.0
H1298 H 0.32517 0.01279 0.14951 0.0
H1299 H 0.33343 0.96387 0.12209 0.0
H1300 H 0.20987 0.98885 0.20435 0.0
H1301 H 0.24388 0.97425 0.147 0.0
H1302 H 0.24185 0.98272 0.20713 0.0
H1303 H 0.21187 0.98054 0.14528 0.0
H1304 H 0.28169 0.00212 0.10886 0.0
H1305 H 0.27543 0.94702 0.09405 0.0
H1306 H 0.32718 0.0058 0.23041 0.0
H1307 H 0.27608 0.03054 0.22517 0.0
H1308 H 0.25509 0.90971 0.18524 0.0
H1309 H 0.29678 0.92208 0.14621 0.0
H1310 H 0.26151 0.87789 0.18076 0.0
H1311 H 0.3025 0.89003 0.14247 0.0
H1312 H 0.30976 0.94219 0.22511 0.0
H1313 H 0.25973 0.96798 0.23255 0.0
H1314 H 0.31876 0.95286 0.25681 0.0
H1315 H 0.26964 0.97824 0.26411 0.0
H1316 H 0.35142 0.91361 0.18312 0.0
H1317 H 0.31198 0.88512 0.21496 0.0
H1318 H 0.2028 0.92585 0.17287 0.0
H1319 H 0.215 0.92653 0.23258 0.0
Li1320 Li 0.94957 0.74051 0.81236 0.0
Li1321 Li 0.96155 0.72376 0.83986 0.0
Li1322 Li 0.97193 0.71816 0.80708 0.0
Li1323 Li 0.94279 0.70989 0.8167 0.0
C1324 C 0.98483 0.75188 0.81284 0.0
N1325 N 0.00622 0.77538 0.79376 0.0
C1326 C 0.99854 0.76042 0.82231 0.0
C1327 C 0.98201 0.75527 0.79365 0.0
C1328 C 0.00921 0.77226 0.81242 0.0
C1329 C 0.99296 0.7672 0.78426 0.0
C1330 C 0.91978 0.72563 0.83796 0.0
C1331 C 0.89846 0.70849 0.85531 0.0
N1332 N 0.88533 0.71603 0.84504 0.0
C1333 C 0.90608 0.73329 0.82766 0.0
C1334 C 0.91596 0.71321 0.85199 0.0
C1335 C 0.88874 0.72824 0.83142 0.0
C1336 C 0.92921 0.76376 0.79044 0.0
N1337 N 0.9409 0.7628 0.80491 0.0
C1338 C 0.93852 0.79378 0.81049 0.0
C1339 C 0.94583 0.77736 0.81479 0.0
C1340 C 0.92589 0.79515 0.79604 0.0
C1341 C 0.92147 0.77989 0.78575 0.0
H1342 H 0.92545 0.75188 0.78298 0.0
H1343 H 0.95517 0.77613 0.82625 0.0
C1344 C 0.98516 0.7204 0.87023 0.0
N1345 N 0.9685 0.72513 0.86542 0.0
C1346 C 0.99042 0.72074 0.88913 0.0
C1347 C 0.9613 0.73089 0.89765 0.0
C1348 C 0.95663 0.73042 0.87859 0.0
C1349 C 0.97839 0.72596 0.90316 0.0
H1350 H 0.99428 0.71626 0.85936 0.0
H1351 H 0.94347 0.73409 0.87431 0.0
C1352 C 0.94888 0.71079 0.77765 0.0
N1353 N 0.9473 0.68823 0.74702 0.0
C1354 C 0.95348 0.69303 0.7797 0.0
C1355 C 0.94346 0.71708 0.76002 0.0
C1356 C 0.95259 0.68183 0.76405 0.0
C1357 C 0.94276 0.70547 0.7447 0.0
C1358 C 0.96711 0.68508 0.83529 0.0
C1359 C 0.97532 0.67124 0.82563 0.0
C1360 C 0.96112 0.68241 0.85375 0.0
C1361 C 0.97715 0.65487 0.83451 0.0
C1362 C 0.96321 0.66584 0.86213 0.0
N1363 N 0.9711 0.65253 0.85242 0.0
C1364 C 0.00512 0.70325 0.80297 0.0
C1365 C 0.99343 0.71424 0.77421 0.0
C1366 C 0.0199 0.69675 0.7936 0.0
N1367 N 0.99217 0.71153 0.79315 0.0
C1368 C 0.00794 0.70784 0.76423 0.0
C1369 C 0.02131 0.69877 0.77393 0.0
H1370 H 0.00375 0.70136 0.81805 0.0
H1371 H 0.98306 0.72111 0.76678 0.0
C1372 C 0.91195 0.69757 0.79961 0.0
N1373 N 0.92426 0.69302 0.81269 0.0
C1374 C 0.8984 0.68591 0.79498 0.0
C1375 C 0.91011 0.66521 0.81771 0.0
C1376 C 0.92342 0.67729 0.82191 0.0
C1377 C 0.89749 0.66937 0.8039 0.0
H1378 H 0.91276 0.71024 0.79263 0.0
H1379 H 0.93312 0.67393 0.83238 0.0
O1380 O 0.97435 0.74019 0.82234 0.0
O1381 O 0.93687 0.73004 0.83411 0.0
O1382 O 0.9496 0.72206 0.79275 0.0
O1383 O 0.96551 0.7013 0.82691 0.0
H1384 H 0.0009 0.75789 0.83716 0.0
H1385 H 0.97148 0.74878 0.78607 0.0
H1386 H 0.01987 0.77897 0.81957 0.0
H1387 H 0.99093 0.76994 0.76942 0.0
H1388 H 0.89532 0.69881 0.86603 0.0
H1389 H 0.9088 0.7429 0.81674 0.0
H1390 H 0.92641 0.70713 0.86007 0.0
H1391 H 0.87801 0.73398 0.82348 0.0
H1392 H 0.9425 0.80522 0.81862 0.0
H1393 H 0.9116 0.78023 0.77471 0.0
H1394 H 0.00379 0.71706 0.89269 0.0
H1395 H 0.95151 0.73475 0.90797 0.0
H1396 H 0.9576 0.68792 0.79322 0.0
H1397 H 0.93988 0.73081 0.7582 0.0
H1398 H 0.9561 0.66805 0.76546 0.0
H1399 H 0.9386 0.71016 0.73097 0.0
H1400 H 0.98028 0.67312 0.81144 0.0
H1401 H 0.95476 0.69291 0.86147 0.0
H1402 H 0.98342 0.64403 0.82717 0.0
H1403 H 0.95853 0.66357 0.87637 0.0
H1404 H 0.02982 0.68968 0.80157 0.0
H1405 H 0.00865 0.70985 0.7491 0.0
H1406 H 0.88879 0.68979 0.78447 0.0
H1407 H 0.91003 0.65256 0.82482 0.0
H1408 H 0.3071 0.403 0.32553 0.0
H1409 H 0.33366 0.3853 0.32244 0.0
H1410 H 0.34558 0.41082 0.26951 0.0
H1411 H 0.31905 0.42908 0.27269 0.0
H1412 H 0.34648 0.37299 0.26888 0.0
H1413 H 0.38576 0.39995 0.32808 0.0
H1414 H 0.36358 0.39473 0.33481 0.0
H1415 H 0.36753 0.41179 0.31762 0.0
C1416 C 0.31554 0.40523 0.31343 0.0
C1417 C 0.31101 0.41763 0.29945 0.0
C1418 C 0.33072 0.39505 0.31168 0.0
C1419 C 0.34172 0.397 0.29593 0.0
C1420 C 0.3373 0.40927 0.28186 0.0
H1421 H 0.42638 0.31937 0.27359 0.0
H1422 H 0.40873 0.3463 0.26987 0.0
C1423 C 0.3221 0.41959 0.28365 0.0
C1424 C 0.35712 0.38523 0.29384 0.0
H1425 H 0.39311 0.37045 0.3179 0.0
C1426 C 0.35696 0.37265 0.27929 0.0
C1427 C 0.37075 0.38493 0.30742 0.0
C1428 C 0.37205 0.39869 0.32276 0.0
C1429 C 0.36936 0.3589 0.27883 0.0
C1430 C 0.38229 0.35795 0.29316 0.0
C1431 C 0.38311 0.37119 0.30699 0.0
C1432 C 0.39365 0.34225 0.29543 0.0
C1433 C 0.36782 0.34485 0.2638 0.0
C1434 C 0.3912 0.3313 0.31118 0.0
C1435 C 0.40115 0.31598 0.31332 0.0
C1436 C 0.41389 0.31133 0.29979 0.0
C1437 C 0.41654 0.32249 0.28414 0.0
C1438 C 0.40651 0.33787 0.282 0.0
H1439 H 0.35564 0.34631 0.25524 0.0
H1440 H 0.3793 0.3457 0.25416 0.0
H1441 H 0.36788 0.33151 0.27033 0.0
H1442 H 0.38126 0.33443 0.32165 0.0
H1443 H 0.39853 0.30755 0.32535 0.0
H1444 H 0.39935 0.69725 0.7244 0.0
H1445 H 0.38127 0.67071 0.72606 0.0
H1446 H 0.41418 0.64565 0.68424 0.0
H1447 H 0.43229 0.67237 0.68237 0.0
H1448 H 0.38047 0.64405 0.67464 0.0
H1449 H 0.38653 0.62235 0.74881 0.0
H1450 H 0.3807 0.64525 0.74756 0.0
H1451 H 0.40157 0.63799 0.7383 0.0
C1452 C 0.40303 0.68593 0.71593 0.0
C1453 C 0.41723 0.68689 0.70324 0.0
C1454 C 0.39272 0.67071 0.71695 0.0
C1455 C 0.39653 0.65606 0.70551 0.0
C1456 C 0.41107 0.65676 0.69329 0.0
H1457 H 0.32455 0.5646 0.71095 0.0
H1458 H 0.35195 0.58182 0.71172 0.0
C1459 C 0.42134 0.67204 0.69216 0.0
C1460 C 0.38407 0.64103 0.70469 0.0
H1461 H 0.35995 0.61315 0.73239 0.0
C1462 C 0.37626 0.63704 0.68722 0.0
C1463 C 0.37872 0.63168 0.72103 0.0
C1464 C 0.38748 0.63441 0.73993 0.0
C1465 C 0.36249 0.62482 0.68587 0.0
C1466 C 0.35613 0.61663 0.70247 0.0
C1467 C 0.36468 0.61968 0.71973 0.0
C1468 C 0.33975 0.60609 0.70233 0.0
C1469 C 0.35456 0.6211 0.66672 0.0
C1470 C 0.32386 0.61416 0.69715 0.0
C1471 C 0.30831 0.60442 0.69665 0.0
C1472 C 0.30829 0.58642 0.70147 0.0
C1473 C 0.3242 0.5784 0.70698 0.0
C1474 C 0.33981 0.58821 0.70751 0.0
H1475 H 0.36407 0.6239 0.65518 0.0
H1476 H 0.35019 0.60715 0.66558 0.0
H1477 H 0.34294 0.62976 0.66461 0.0
H1478 H 0.3235 0.62803 0.69341 0.0
H1479 H 0.29636 0.61096 0.6921 0.0
H1480 H 0.61077 0.71078 0.27262 0.0
H1481 H 0.631 0.68623 0.26687 0.0
H1482 H 0.59539 0.6508 0.29548 0.0
H1483 H 0.57494 0.67528 0.30089 0.0
H1484 H 0.64687 0.66867 0.29483 0.0
H1485 H 0.60976 0.62101 0.25072 0.0
H1486 H 0.60279 0.64363 0.25383 0.0
H1487 H 0.59817 0.62741 0.27173 0.0
C1488 C 0.60714 0.69767 0.27737 0.0
C1489 C 0.59136 0.6949 0.28727 0.0
C1490 C 0.61866 0.68367 0.27404 0.0
C1491 C 0.61465 0.66664 0.2806 0.0
C1492 C 0.59857 0.66371 0.28988 0.0
H1493 H 0.67919 0.57617 0.30636 0.0
H1494 H 0.65466 0.59669 0.30164 0.0
C1495 C 0.58694 0.67772 0.29305 0.0
C1496 C 0.62819 0.65258 0.27972 0.0
H1497 H 0.63605 0.61017 0.26547 0.0
C1498 C 0.64455 0.65597 0.28821 0.0
C1499 C 0.62509 0.63595 0.27121 0.0
C1500 C 0.60806 0.63181 0.2612 0.0
C1501 C 0.65779 0.64313 0.28869 0.0
C1502 C 0.65465 0.62648 0.28036 0.0
C1503 C 0.63835 0.623 0.27182 0.0
C1504 C 0.66822 0.61254 0.28083 0.0
C1505 C 0.67496 0.6473 0.29847 0.0
C1506 C 0.68368 0.61442 0.27022 0.0
C1507 C 0.69767 0.60273 0.27281 0.0
C1508 C 0.69644 0.58897 0.28611 0.0
C1509 C 0.68052 0.58655 0.29593 0.0
C1510 C 0.66651 0.59826 0.29329 0.0
H1511 H 0.67419 0.65965 0.3069 0.0
H1512 H 0.67887 0.63629 0.30795 0.0
H1513 H 0.68546 0.64893 0.28771 0.0
H1514 H 0.68514 0.62533 0.26043 0.0
H1515 H 0.70964 0.60473 0.26478 0.0
H1516 H 0.58037 0.32002 0.68555 0.0
H1517 H 0.60007 0.34508 0.69095 0.0
H1518 H 0.61687 0.32198 0.74367 0.0
H1519 H 0.59741 0.2967 0.73817 0.0
H1520 H 0.60408 0.36995 0.71938 0.0
H1521 H 0.66269 0.32622 0.71449 0.0
H1522 H 0.6409 0.31886 0.70819 0.0
H1523 H 0.64731 0.32018 0.73261 0.0
C1524 C 0.58805 0.32043 0.69844 0.0
C1525 C 0.58753 0.30634 0.71135 0.0
C1526 C 0.59932 0.33472 0.70149 0.0
C1527 C 0.61018 0.33519 0.71752 0.0
C1528 C 0.60891 0.32165 0.73099 0.0
H1529 H 0.69916 0.40445 0.74179 0.0
H1530 H 0.67416 0.38447 0.74606 0.0
C1531 C 0.59778 0.30726 0.72785 0.0
C1532 C 0.62357 0.34929 0.71946 0.0
H1533 H 0.66793 0.35627 0.72068 0.0
C1534 C 0.61804 0.36698 0.71978 0.0
C1535 C 0.64178 0.34535 0.7199 0.0
C1536 C 0.64858 0.32665 0.71861 0.0
C1537 C 0.63028 0.38086 0.7204 0.0
C1538 C 0.64845 0.37689 0.72056 0.0
C1539 C 0.65396 0.35922 0.7207 0.0
C1540 C 0.66212 0.39074 0.71919 0.0
C1541 C 0.62372 0.39965 0.72082 0.0
C1542 C 0.6635 0.40097 0.70274 0.0
C1543 C 0.67785 0.41223 0.70015 0.0
C1544 C 0.69112 0.41342 0.71397 0.0
C1545 C 0.6893 0.40366 0.73077 0.0
C1546 C 0.67498 0.39234 0.7333 0.0
H1547 H 0.60986 0.40042 0.72576 0.0
H1548 H 0.63206 0.40797 0.73014 0.0
H1549 H 0.6243 0.40523 0.70633 0.0
H1550 H 0.65392 0.39961 0.69149 0.0
H1551 H 0.67897 0.41931 0.68691 0.0
H1552 H 0.82115 0.93133 0.77324 0.0
H1553 H 0.84657 0.91199 0.76728 0.0
H1554 H 0.82886 0.87676 0.8112 0.0
H1555 H 0.80353 0.8958 0.81713 0.0
H1556 H 0.87324 0.89906 0.79682 0.0
H1557 H 0.83486 0.84659 0.76068 0.0
H1558 H 0.82738 0.86921 0.76225 0.0
H1559 H 0.82527 0.85472 0.78222 0.0
C1560 C 0.82271 0.91945 0.78159 0.0
C1561 C 0.8104 0.91509 0.79569 0.0
C1562 C 0.83722 0.90849 0.77822 0.0
C1563 C 0.83942 0.89295 0.78872 0.0
C1564 C 0.82727 0.88868 0.80289 0.0
H1565 H 0.9143 0.81877 0.82242 0.0
H1566 H 0.89602 0.84474 0.81738 0.0
C1567 C 0.8129 0.89964 0.80636 0.0
C1568 C 0.85434 0.88094 0.7851 0.0
H1569 H 0.86325 0.8385 0.77226 0.0
C1570 C 0.8712 0.88592 0.79112 0.0
C1571 C 0.8516 0.86395 0.77742 0.0
C1572 C 0.83383 0.85828 0.7701 0.0
C1573 C 0.88523 0.87385 0.79078 0.0
C1574 C 0.88216 0.85641 0.78442 0.0
C1575 C 0.86556 0.85185 0.77723 0.0
C1576 C 0.89528 0.84217 0.78694 0.0
C1577 C 0.90307 0.87972 0.79767 0.0
C1578 C 0.90092 0.83205 0.77148 0.0
C1579 C 0.91147 0.81715 0.7743 0.0
C1580 C 0.91639 0.81201 0.79268 0.0
C1581 C 0.91108 0.8225 0.80806 0.0
C1582 C 0.90062 0.8374 0.80521 0.0
H1583 H 0.90475 0.89423 0.79615 0.0
H1584 H 0.90438 0.87643 0.81288 0.0
H1585 H 0.9138 0.87296 0.78984 0.0
H1586 H 0.89682 0.83547 0.75728 0.0
H1587 H 0.91549 0.80948 0.76214 0.0
H1588 H 0.7935 0.10097 0.23564 0.0
H1589 H 0.81893 0.12026 0.2407 0.0
H1590 H 0.84582 0.09538 0.1941 0.0
H1591 H 0.82051 0.07585 0.18916 0.0
H1592 H 0.86822 0.1038 0.22481 0.0
H1593 H 0.82655 0.16066 0.2032 0.0
H1594 H 0.81817 0.14837 0.22293 0.0
H1595 H 0.81966 0.13806 0.20011 0.0
C1596 C 0.80493 0.09949 0.22664 0.0
C1597 C 0.80498 0.0871 0.21186 0.0
C1598 C 0.81942 0.1105 0.22953 0.0
C1599 C 0.83406 0.10948 0.21751 0.0
C1600 C 0.8346 0.0964 0.20348 0.0
H1601 H 0.92269 0.17458 0.189 0.0
H1602 H 0.90279 0.14969 0.19424 0.0
C1603 C 0.82016 0.08525 0.20069 0.0
C1604 C 0.84812 0.12297 0.21851 0.0
H1605 H 0.8555 0.16708 0.21279 0.0
C1606 C 0.86548 0.11765 0.22226 0.0
C1607 C 0.84447 0.141 0.21503 0.0
C1608 C 0.82625 0.1474 0.20992 0.0
C1609 C 0.8793 0.12998 0.22276 0.0
C1610 C 0.87561 0.14798 0.21922 0.0
C1611 C 0.85824 0.15327 0.21567 0.0
C1612 C 0.88954 0.16158 0.21812 0.0
C1613 C 0.89769 0.12371 0.22715 0.0
C1614 C 0.88877 0.17644 0.22992 0.0
C1615 C 0.90009 0.1907 0.22694 0.0
C1616 C 0.91229 0.19039 0.212 0.0
C1617 C 0.91358 0.17513 0.20076 0.0
C1618 C 0.90224 0.16087 0.20376 0.0
H1619 H 0.8976 0.11069 0.2344 0.0
H1620 H 0.90514 0.12225 0.21376 0.0
H1621 H 0.90475 0.1334 0.23617 0.0
H1622 H 0.87901 0.17725 0.24104 0.0
H1623 H 0.89895 0.20216 0.236 0.0
H1624 H 0.06741 0.17332 0.81862 0.0
H1625 H 0.08573 0.14674 0.81682 0.0
H1626 H 0.11816 0.17165 0.77452 0.0
H1627 H 0.09996 0.1982 0.7762 0.0
H1628 H 0.11079 0.13563 0.76704 0.0
H1629 H 0.13513 0.1464 0.84032 0.0
H1630 H 0.11165 0.14477 0.83783 0.0
H1631 H 0.12316 0.16308 0.82744 0.0
C1632 C 0.0784 0.17308 0.80887 0.0
C1633 C 0.08234 0.1879 0.79767 0.0
C1634 C 0.08883 0.1579 0.80786 0.0
C1635 C 0.10344 0.15737 0.79576 0.0
C1636 C 0.10693 0.17182 0.78395 0.0
H1637 H 0.1969 0.09842 0.77516 0.0
H1638 H 0.17049 0.11663 0.7728 0.0
C1639 C 0.09648 0.18696 0.7849 0.0
C1640 C 0.11579 0.14225 0.79614 0.0
H1641 H 0.14623 0.12181 0.82403 0.0
C1642 C 0.11845 0.13249 0.77952 0.0
C1643 C 0.12576 0.13823 0.81247 0.0
C1644 C 0.12395 0.14872 0.83051 0.0
C1645 C 0.131 0.11889 0.77875 0.0
C1646 C 0.14129 0.1152 0.79493 0.0
C1647 C 0.13825 0.12463 0.81168 0.0
C1648 C 0.15618 0.10259 0.79455 0.0
C1649 C 0.13317 0.10865 0.76062 0.0
C1650 C 0.15691 0.08864 0.80757 0.0
C1651 C 0.17202 0.07821 0.80899 0.0
C1652 C 0.18673 0.08164 0.79749 0.0
C1653 C 0.18571 0.09524 0.784 0.0
C1654 C 0.17059 0.10566 0.78261 0.0
H1655 H 0.12105 0.10918 0.75185 0.0
H1656 H 0.14406 0.11453 0.75228 0.0
H1657 H 0.13646 0.09461 0.76348 0.0
H1658 H 0.14594 0.08611 0.81698 0.0
H1659 H 0.17235 0.06771 0.81937 0.0
H1660 H 0.20229 0.89703 0.22705 0.0
H1661 H 0.17646 0.87802 0.23012 0.0
H1662 H 0.14801 0.91116 0.1911 0.0
H1663 H 0.17383 0.9303 0.18794 0.0
H1664 H 0.14044 0.88401 0.24016 0.0
H1665 H 0.14863 0.86225 0.16556 0.0
H1666 H 0.16546 0.87433 0.17806 0.0
H1667 H 0.14646 0.88565 0.16901 0.0
C1668 C 0.19042 0.90051 0.21944 0.0
C1669 C 0.19014 0.91507 0.2071 0.0
C1670 C 0.17569 0.8896 0.22117 0.0
C1671 C 0.16046 0.89304 0.21059 0.0
C1672 C 0.15978 0.90812 0.1991 0.0
H1673 H 0.07178 0.82314 0.18833 0.0
H1674 H 0.09 0.84962 0.19106 0.0
C1675 C 0.17452 0.91901 0.1973 0.0
C1676 C 0.14587 0.88012 0.21059 0.0
H1677 H 0.12512 0.84994 0.18258 0.0
C1678 C 0.13698 0.87663 0.22756 0.0
C1679 C 0.14145 0.87051 0.19412 0.0
C1680 C 0.15106 0.87321 0.17566 0.0
C1681 C 0.12378 0.86367 0.22852 0.0
C1682 C 0.11964 0.8538 0.21214 0.0
C1683 C 0.12827 0.85759 0.19509 0.0
C1684 C 0.10722 0.83875 0.21245 0.0
C1685 C 0.11439 0.86067 0.24701 0.0
C1686 C 0.11076 0.82393 0.22373 0.0
C1687 C 0.10031 0.80881 0.22229 0.0
C1688 C 0.08622 0.80818 0.20941 0.0
C1689 C 0.08239 0.82326 0.19855 0.0
C1690 C 0.09284 0.83837 0.20002 0.0
H1691 H 0.11509 0.87252 0.25624 0.0
H1692 H 0.10035 0.85723 0.2447 0.0
H1693 H 0.12077 0.84957 0.25461 0.0
H1694 H 0.122 0.82379 0.23314 0.0
H1695 H 0.1035 0.79748 0.23098 0.0
H1696 H 0.2007 0.55718 0.27511 0.0
H1697 H 0.18616 0.58219 0.2597 0.0
H1698 H 0.17097 0.54847 0.21335 0.0
H1699 H 0.18526 0.52335 0.22884 0.0
H1700 H 0.18917 0.5987 0.22465 0.0
H1701 H 0.12392 0.56646 0.23298 0.0
H1702 H 0.14346 0.55834 0.24455 0.0
H1703 H 0.13967 0.55364 0.21998 0.0
C1704 C 0.19452 0.55518 0.26147 0.0
C1705 C 0.19392 0.5383 0.25325 0.0
C1706 C 0.18619 0.56945 0.25272 0.0
C1707 C 0.17718 0.56708 0.23559 0.0
C1708 C 0.17749 0.55047 0.2268 0.0
H1709 H 0.10546 0.63645 0.17475 0.0
H1710 H 0.12644 0.61306 0.18258 0.0
C1711 C 0.18567 0.53617 0.23562 0.0
C1712 C 0.16661 0.5817 0.22758 0.0
H1713 H 0.12447 0.59366 0.21682 0.0
C1714 C 0.17503 0.59761 0.22287 0.0
C1715 C 0.14815 0.58024 0.22538 0.0
C1716 C 0.13821 0.56383 0.23114 0.0
C1717 C 0.16545 0.6121 0.21595 0.0
C1718 C 0.14701 0.61063 0.21387 0.0
C1719 C 0.13864 0.59466 0.21832 0.0
C1720 C 0.13589 0.6257 0.20804 0.0
C1721 C 0.17511 0.62883 0.21084 0.0
C1722 C 0.13434 0.64056 0.21974 0.0
C1723 C 0.12224 0.65386 0.21543 0.0
C1724 C 0.1114 0.65248 0.19937 0.0
C1725 C 0.1134 0.6378 0.18737 0.0
C1726 C 0.12547 0.62449 0.19173 0.0
H1727 H 0.18938 0.62642 0.20864 0.0
H1728 H 0.16953 0.63483 0.19783 0.0
H1729 H 0.17366 0.6385 0.22252 0.0
H1730 H 0.142 0.64155 0.23261 0.0
H1731 H 0.12086 0.66483 0.22513 0.0
H1732 H 0.53214 0.80028 0.76958 0.0
H1733 H 0.55788 0.81547 0.78274 0.0
H1734 H 0.57609 0.82706 0.72633 0.0
H1735 H 0.55073 0.81141 0.71317 0.0
H1736 H 0.60303 0.81841 0.74896 0.0
H1737 H 0.561 0.86839 0.78437 0.0
H1738 H 0.5567 0.84621 0.79193 0.0
H1739 H 0.55226 0.85252 0.76788 0.0
C1740 C 0.54177 0.80593 0.76005 0.0
C1741 C 0.53947 0.80475 0.74039 0.0
C1742 C 0.55638 0.81468 0.76755 0.0
C1743 C 0.56868 0.82276 0.75552 0.0
C1744 C 0.56674 0.82097 0.73588 0.0
H1745 H 0.63577 0.91112 0.77943 0.0
H1746 H 0.61286 0.89045 0.76953 0.0
C1747 C 0.55229 0.812 0.72838 0.0
C1748 C 0.58318 0.8337 0.76324 0.0
H1749 H 0.59157 0.87031 0.78989 0.0
C1750 C 0.60055 0.82974 0.75795 0.0
C1751 C 0.57988 0.84864 0.77474 0.0
C1752 C 0.56145 0.85433 0.77993 0.0
C1753 C 0.6147 0.8404 0.76368 0.0
C1754 C 0.61142 0.85513 0.77548 0.0
C1755 C 0.59407 0.85894 0.78096 0.0
C1756 C 0.62557 0.86741 0.78147 0.0
C1757 C 0.6329 0.83616 0.75642 0.0
C1758 C 0.64029 0.86137 0.79159 0.0
C1759 C 0.65351 0.87316 0.79708 0.0
C1760 C 0.65202 0.89123 0.79287 0.0
C1761 C 0.63716 0.89728 0.78301 0.0
C1762 C 0.62409 0.88548 0.77732 0.0
H1763 H 0.63242 0.82759 0.74369 0.0
H1764 H 0.64024 0.84839 0.75284 0.0
H1765 H 0.64033 0.829 0.76753 0.0
H1766 H 0.64149 0.84757 0.79539 0.0
H1767 H 0.66475 0.86821 0.80486 0.0
H1768 H 0.90797 0.36656 0.2023 0.0
H1769 H 0.887 0.38894 0.21285 0.0
H1770 H 0.84596 0.34963 0.21487 0.0
H1771 H 0.86692 0.3271 0.20432 0.0
H1772 H 0.85499 0.40068 0.19789 0.0
H1773 H 0.84641 0.36974 0.2686 0.0
H1774 H 0.86376 0.36332 0.25262 0.0
H1775 H 0.84165 0.35573 0.24876 0.0
C1776 C 0.89443 0.36271 0.20473 0.0
C1777 C 0.88912 0.34504 0.2026 0.0
C1778 C 0.88247 0.3755 0.21081 0.0
C1779 C 0.86501 0.37088 0.21489 0.0
C1780 C 0.85948 0.35339 0.21215 0.0
H1781 H 0.78696 0.45287 0.24358 0.0
H1782 H 0.80134 0.42778 0.22796 0.0
C1783 C 0.87146 0.34055 0.20614 0.0
C1784 C 0.85288 0.38434 0.22268 0.0
H1785 H 0.83039 0.39573 0.2626 0.0
C1786 C 0.84946 0.39957 0.21197 0.0
C1787 C 0.84585 0.38286 0.24111 0.0
C1788 C 0.84967 0.36712 0.25356 0.0
C1789 C 0.83948 0.41355 0.21938 0.0
C1790 C 0.83256 0.4121 0.23786 0.0
C1791 C 0.83564 0.39671 0.24838 0.0
C1792 C 0.82345 0.427 0.24723 0.0
C1793 C 0.83707 0.43005 0.2077 0.0
C1794 C 0.83095 0.4346 0.2634 0.0
C1795 C 0.82278 0.44881 0.27233 0.0
C1796 C 0.80688 0.45568 0.26533 0.0
C1797 C 0.79929 0.44796 0.24918 0.0
C1798 C 0.80748 0.43366 0.24025 0.0
H1799 H 0.84606 0.43037 0.19533 0.0
H1800 H 0.82334 0.43059 0.20239 0.0
H1801 H 0.83941 0.44203 0.21639 0.0
H1802 H 0.8433 0.42968 0.26896 0.0
H1803 H 0.82913 0.45464 0.28454 0.0
H1804 H 0.45313 0.21605 0.75276 0.0
H1805 H 0.42772 0.20232 0.76831 0.0
H1806 H 0.42771 0.16087 0.72655 0.0
H1807 H 0.4531 0.17426 0.71112 0.0
H1808 H 0.39385 0.17559 0.73452 0.0
H1809 H 0.43051 0.15582 0.79932 0.0
H1810 H 0.43158 0.17872 0.79268 0.0
H1811 H 0.44155 0.16231 0.77783 0.0
C1812 C 0.44774 0.20398 0.74694 0.0
C1813 C 0.45513 0.19626 0.73068 0.0
C1814 C 0.43323 0.19619 0.75582 0.0
C1815 C 0.42596 0.18053 0.74864 0.0
C1816 C 0.43311 0.173 0.73226 0.0
H1817 H 0.36568 0.095 0.78997 0.0
H1818 H 0.38762 0.11627 0.77923 0.0
C1819 C 0.44757 0.18073 0.7234 0.0
C1820 C 0.41113 0.17161 0.75823 0.0
H1821 H 0.4008 0.14732 0.79732 0.0
C1822 C 0.39524 0.16959 0.74835 0.0
C1823 C 0.41313 0.16371 0.77621 0.0
C1824 C 0.43012 0.16508 0.78716 0.0
C1825 C 0.38142 0.15944 0.75576 0.0
C1826 C 0.38353 0.15128 0.77359 0.0
C1827 C 0.39923 0.15371 0.7837 0.0
C1828 C 0.37027 0.13884 0.78115 0.0
C1829 C 0.365 0.15683 0.74408 0.0
C1830 C 0.35332 0.14457 0.78606 0.0
C1831 C 0.34072 0.13243 0.79231 0.0
C1832 C 0.34492 0.11438 0.79383 0.0
C1833 C 0.36206 0.10882 0.78924 0.0
C1834 C 0.37461 0.12094 0.78302 0.0
H1835 H 0.3667 0.16152 0.72932 0.0
H1836 H 0.36122 0.14266 0.74377 0.0
H1837 H 0.35399 0.16432 0.75054 0.0
H1838 H 0.34982 0.1584 0.78497 0.0
H1839 H 0.32772 0.13717 0.796 0.0
H1840 H 0.17773 0.45006 0.71143 0.0
H1841 H 0.16442 0.42508 0.7278 0.0
H1842 H 0.2013 0.43126 0.77367 0.0
H1843 H 0.21477 0.45643 0.7573 0.0
H1844 H 0.17861 0.39331 0.74 0.0
H1845 H 0.1534 0.43335 0.80013 0.0
H1846 H 0.16172 0.44326 0.77874 0.0
H1847 H 0.1767 0.43449 0.79598 0.0
C1848 C 0.18321 0.44598 0.72487 0.0
C1849 C 0.19731 0.45523 0.73308 0.0
C1850 C 0.17553 0.43174 0.73424 0.0
C1851 C 0.18174 0.42646 0.75203 0.0
C1852 C 0.19611 0.43534 0.7601 0.0
H1853 H 0.13733 0.32885 0.8006 0.0
H1854 H 0.15892 0.35098 0.79047 0.0
C1855 C 0.20378 0.44969 0.75074 0.0
C1856 C 0.17272 0.4119 0.76209 0.0
H1857 H 0.14644 0.40311 0.80007 0.0
C1858 C 0.17174 0.39535 0.75325 0.0
C1859 C 0.16367 0.41472 0.7793 0.0
C1860 C 0.16375 0.43243 0.78908 0.0
C1861 C 0.16146 0.38167 0.76081 0.0
C1862 C 0.15221 0.38456 0.77788 0.0
C1863 C 0.15365 0.40093 0.78705 0.0
C1864 C 0.13959 0.37143 0.78541 0.0
C1865 C 0.15989 0.36458 0.74996 0.0
C1866 C 0.12168 0.37579 0.78652 0.0
C1867 C 0.10938 0.36326 0.79237 0.0
C1868 C 0.11475 0.34609 0.79726 0.0
C1869 C 0.13278 0.34189 0.79666 0.0
C1870 C 0.14511 0.35449 0.79088 0.0
H1871 H 0.16497 0.36582 0.7353 0.0
H1872 H 0.16762 0.35419 0.75724 0.0
H1873 H 0.14596 0.36016 0.74932 0.0
H1874 H 0.11714 0.38878 0.78234 0.0
H1875 H 0.09558 0.36686 0.79246 0.0
H1876 H 0.36717 0.90328 0.21132 0.0
H1877 H 0.38891 0.8815 0.22136 0.0
H1878 H 0.35181 0.8396 0.21048 0.0
H1879 H 0.32988 0.86142 0.20043 0.0
H1880 H 0.36755 0.83619 0.24477 0.0
H1881 H 0.41819 0.84775 0.19007 0.0
H1882 H 0.41203 0.86784 0.20173 0.0
H1883 H 0.39599 0.85601 0.18792 0.0
C1884 C 0.36373 0.88942 0.21073 0.0
C1885 C 0.34685 0.88406 0.20497 0.0
C1886 C 0.37618 0.87697 0.21644 0.0
C1887 C 0.3721 0.8589 0.21631 0.0
C1888 C 0.35526 0.85348 0.21056 0.0
H1889 H 0.45804 0.78522 0.24172 0.0
H1890 H 0.43263 0.79877 0.22604 0.0
C1891 C 0.34274 0.86595 0.20491 0.0
C1892 C 0.38513 0.84587 0.22325 0.0
H1893 H 0.42801 0.83326 0.21849 0.0
C1894 C 0.38069 0.83533 0.23885 0.0
C1895 C 0.40216 0.8445 0.21529 0.0
C1896 C 0.40732 0.8545 0.1977 0.0
C1897 C 0.39314 0.82419 0.24736 0.0
C1898 C 0.41056 0.82389 0.24031 0.0
C1899 C 0.41471 0.83367 0.22406 0.0
C1900 C 0.42497 0.81448 0.25022 0.0
C1901 C 0.38753 0.81298 0.26392 0.0
C1902 C 0.42908 0.81883 0.26898 0.0
C1903 C 0.44353 0.81112 0.27795 0.0
C1904 C 0.45429 0.79905 0.26825 0.0
C1905 C 0.45004 0.79456 0.24951 0.0
C1906 C 0.43551 0.80222 0.24057 0.0
H1907 H 0.3732 0.81009 0.26341 0.0
H1908 H 0.39486 0.80029 0.26432 0.0
H1909 H 0.39019 0.82026 0.27723 0.0
H1910 H 0.42146 0.82865 0.27653 0.0
H1911 H 0.44666 0.81515 0.29225 0.0
H1912 H 0.81232 0.55556 0.71303 0.0
H1913 H 0.82592 0.58071 0.72892 0.0
H1914 H 0.81155 0.5589 0.78305 0.0
H1915 H 0.79776 0.53365 0.76723 0.0
H1916 H 0.81185 0.60574 0.7547 0.0
H1917 H 0.86531 0.56527 0.78665 0.0
H1918 H 0.85143 0.55708 0.7679 0.0
H1919 H 0.8432 0.55824 0.79165 0.0
C1920 C 0.81179 0.55622 0.7283 0.0
C1921 C 0.804 0.54257 0.73887 0.0
C1922 C 0.81964 0.57057 0.73736 0.0
C1923 C 0.81993 0.57153 0.75714 0.0
C1924 C 0.81173 0.55822 0.76776 0.0
H1925 H 0.8787 0.64692 0.82671 0.0
H1926 H 0.85795 0.62391 0.81691 0.0
C1927 C 0.80388 0.54382 0.75871 0.0
C1928 C 0.82932 0.58625 0.76649 0.0
H1929 H 0.86568 0.59575 0.79293 0.0
C1930 C 0.82355 0.60358 0.76318 0.0
C1931 C 0.84454 0.58334 0.77758 0.0
C1932 C 0.85163 0.56501 0.7811 0.0
C1933 C 0.83276 0.61813 0.77044 0.0
C1934 C 0.8483 0.61523 0.78101 0.0
C1935 C 0.85375 0.59789 0.78484 0.0
C1936 C 0.85979 0.62995 0.7871 0.0
C1937 C 0.82584 0.63646 0.76669 0.0
C1938 C 0.86774 0.64088 0.77357 0.0
C1939 C 0.87966 0.65392 0.77909 0.0
C1940 C 0.88396 0.65623 0.79826 0.0
C1941 C 0.8758 0.64537 0.81182 0.0
C1942 C 0.86388 0.6323 0.80627 0.0
H1943 H 0.81151 0.6363 0.76357 0.0
H1944 H 0.82824 0.64532 0.77892 0.0
H1945 H 0.83269 0.64206 0.7542 0.0
H1946 H 0.86512 0.63898 0.75866 0.0
H1947 H 0.88595 0.6618 0.76825 0.0
H1948 H 0.63593 0.10927 0.17598 0.0
H1949 H 0.61222 0.12981 0.1844 0.0
H1950 H 0.63071 0.13074 0.242 0.0
H1951 H 0.6545 0.1104 0.23369 0.0
H1952 H 0.58609 0.12295 0.21339 0.0
H1953 H 0.62481 0.18375 0.22733 0.0
H1954 H 0.63319 0.16562 0.21338 0.0
H1955 H 0.63295 0.16417 0.23872 0.0
C1956 C 0.63507 0.11406 0.19037 0.0
C1957 C 0.64704 0.10824 0.20419 0.0
C1958 C 0.62152 0.12572 0.19516 0.0
C1959 C 0.61989 0.13192 0.21375 0.0
C1960 C 0.63193 0.12629 0.22751 0.0
H1961 H 0.54852 0.19038 0.28287 0.0
H1962 H 0.57355 0.17547 0.26814 0.0
C1963 C 0.64538 0.11455 0.22279 0.0
C1964 C 0.60499 0.1434 0.21914 0.0
H1965 H 0.59503 0.18369 0.23787 0.0
C1966 C 0.58796 0.13632 0.21852 0.0
C1967 C 0.60759 0.16077 0.22588 0.0
C1968 C 0.6256 0.16914 0.22625 0.0
C1969 C 0.57345 0.14592 0.22521 0.0
C1970 C 0.57606 0.16322 0.23226 0.0
C1971 C 0.59307 0.17045 0.23244 0.0
C1972 C 0.56144 0.17359 0.24053 0.0
C1973 C 0.55561 0.13713 0.22547 0.0
C1974 C 0.54656 0.17792 0.22973 0.0
C1975 C 0.53221 0.18638 0.23814 0.0
C1976 C 0.53263 0.19087 0.25741 0.0
C1977 C 0.54789 0.18724 0.26796 0.0
C1978 C 0.56216 0.17867 0.25958 0.0
H1979 H 0.55664 0.12257 0.22386 0.0
H1980 H 0.54853 0.14004 0.23883 0.0
H1981 H 0.5476 0.14224 0.21356 0.0
H1982 H 0.54592 0.1745 0.21489 0.0
H1983 H 0.52071 0.18925 0.22963 0.0
H1984 H 0.70064 0.05755 0.77878 0.0
H1985 H 0.68557 0.08233 0.76351 0.0
H1986 H 0.67128 0.04858 0.71686 0.0
H1987 H 0.68601 0.02367 0.73226 0.0
H1988 H 0.68833 0.09924 0.72903 0.0
H1989 H 0.62377 0.06539 0.73578 0.0
H1990 H 0.64335 0.05749 0.74743 0.0
H1991 H 0.63986 0.05306 0.72274 0.0
C1992 C 0.69452 0.05551 0.76512 0.0
C1993 C 0.69429 0.03867 0.75678 0.0
C1994 C 0.68589 0.06965 0.75644 0.0
C1995 C 0.67698 0.06718 0.73927 0.0
C1996 C 0.67768 0.05064 0.73036 0.0
H1997 H 0.6064 0.13594 0.67604 0.0
H1998 H 0.62726 0.11274 0.68485 0.0
C1999 C 0.68613 0.03646 0.73912 0.0
C2000 C 0.66616 0.08163 0.73126 0.0
H2001 H 0.62396 0.09261 0.71955 0.0
C2002 C 0.67427 0.0978 0.72692 0.0
C2003 C 0.64778 0.07973 0.72863 0.0
C2004 C 0.63812 0.06306 0.73405 0.0
C2005 C 0.66446 0.1121 0.71992 0.0
C2006 C 0.64613 0.11015 0.71733 0.0
C2007 C 0.63806 0.09396 0.72144 0.0
C2008 C 0.6348 0.12497 0.71124 0.0
C2009 C 0.67374 0.12915 0.71527 0.0
C2010 C 0.63217 0.13948 0.72321 0.0
C2011 C 0.62009 0.15262 0.71838 0.0
C2012 C 0.61039 0.15148 0.70147 0.0
C2013 C 0.61342 0.1371 0.6893 0.0
C2014 C 0.62543 0.12391 0.69422 0.0
H2015 H 0.6882 0.12729 0.71393 0.0
H2016 H 0.6686 0.13485 0.7019 0.0
H2017 H 0.6713 0.13884 0.72673 0.0
H2018 H 0.63903 0.14033 0.7366 0.0
H2019 H 0.6179 0.16334 0.72823 0.0
H2020 H 0.16636 0.3667 0.29868 0.0
H2021 H 0.14374 0.34574 0.2883 0.0
H2022 H 0.11147 0.38905 0.26914 0.0
H2023 H 0.13386 0.41 0.27961 0.0
H2024 H 0.09271 0.36474 0.28924 0.0
H2025 H 0.13301 0.33181 0.23399 0.0
H2026 H 0.14241 0.3315 0.25728 0.0
H2027 H 0.13967 0.35216 0.24514 0.0
C2028 C 0.15447 0.37171 0.29216 0.0
C2029 C 0.15187 0.38998 0.28995 0.0
C2030 C 0.14159 0.35974 0.28621 0.0
C2031 C 0.12603 0.36584 0.27772 0.0
C2032 C 0.12337 0.38407 0.27567 0.0
H2033 H 0.04982 0.31713 0.20595 0.0
H2034 H 0.07482 0.33229 0.22036 0.0
C2035 C 0.13615 0.39602 0.28172 0.0
C2036 C 0.11235 0.35338 0.271 0.0
H2037 H 0.10437 0.32065 0.23895 0.0
C2038 C 0.09527 0.35502 0.27832 0.0
C2039 C 0.11572 0.34084 0.25664 0.0
C2040 C 0.13364 0.33901 0.24765 0.0
C2041 C 0.08135 0.34469 0.27143 0.0
C2042 C 0.08473 0.33208 0.25712 0.0
C2043 C 0.10188 0.33022 0.25003 0.0
C2044 C 0.07038 0.32166 0.24835 0.0
C2045 C 0.06304 0.34792 0.27897 0.0
C2046 C 0.05986 0.3103 0.25921 0.0
C2047 C 0.0455 0.30166 0.25101 0.0
C2048 C 0.04159 0.30405 0.23175 0.0
C2049 C 0.0526 0.31487 0.22077 0.0
C2050 C 0.06685 0.32359 0.229 0.0
H2051 H 0.06207 0.36073 0.28655 0.0
H2052 H 0.0532 0.34782 0.26736 0.0
H2053 H 0.05956 0.33727 0.28907 0.0
H2054 H 0.0626 0.30832 0.27407 0.0
H2055 H 0.03738 0.29321 0.25975 0.0
H2056 H 0.30121 0.9444 0.78368 0.0
H2057 H 0.31518 0.9189 0.76862 0.0
H2058 H 0.32635 0.95043 0.71929 0.0
H2059 H 0.31281 0.97611 0.73451 0.0
H2060 H 0.30951 0.9005 0.73624 0.0
H2061 H 0.3748 0.93338 0.73356 0.0
H2062 H 0.3565 0.94246 0.74654 0.0
H2063 H 0.35783 0.94524 0.72132 0.0
C2064 C 0.30647 0.94582 0.76953 0.0
C2065 C 0.3061 0.96225 0.76032 0.0
C2066 C 0.31447 0.93126 0.76096 0.0
C2067 C 0.32215 0.93287 0.743 0.0
C2068 C 0.32096 0.94903 0.73337 0.0
H2069 H 0.38416 0.85788 0.67709 0.0
H2070 H 0.36434 0.88192 0.68614 0.0
C2071 C 0.31316 0.96365 0.74203 0.0
C2072 C 0.33198 0.91781 0.73476 0.0
H2073 H 0.37268 0.90531 0.71921 0.0
C2074 C 0.32331 0.90156 0.73248 0.0
C2075 C 0.35003 0.91919 0.72996 0.0
C2076 C 0.3604 0.93594 0.73312 0.0
C2077 C 0.33222 0.88667 0.72553 0.0
C2078 C 0.35021 0.88811 0.72078 0.0
C2079 C 0.35881 0.90437 0.72274 0.0
C2080 C 0.36071 0.87268 0.71477 0.0
C2081 C 0.32243 0.86947 0.72334 0.0
C2082 C 0.36514 0.85957 0.72791 0.0
C2083 C 0.37669 0.846 0.72292 0.0
C2084 C 0.38399 0.84527 0.70465 0.0
C2085 C 0.37903 0.85818 0.69136 0.0
C2086 C 0.3676 0.87184 0.69643 0.0
H2087 H 0.30794 0.87134 0.72414 0.0
H2088 H 0.32575 0.86314 0.70964 0.0
H2089 H 0.32644 0.86031 0.7348 0.0
H2090 H 0.36016 0.8602 0.74224 0.0
H2091 H 0.38042 0.83651 0.73364 0.0
H2092 H 0.83628 0.61842 0.2747 0.0
H2093 H 0.8593 0.63955 0.26626 0.0
H2094 H 0.88774 0.62637 0.31705 0.0
H2095 H 0.86462 0.6054 0.32585 0.0
H2096 H 0.8745 0.66949 0.28763 0.0
H2097 H 0.92188 0.61531 0.27207 0.0
H2098 H 0.89848 0.61158 0.2739 0.0
H2099 H 0.91141 0.61477 0.29485 0.0
C2100 C 0.84725 0.62024 0.28429 0.0
C2101 C 0.84867 0.61011 0.30089 0.0
C2102 C 0.86041 0.63227 0.27939 0.0
C2103 C 0.87526 0.63433 0.29094 0.0
C2104 C 0.87646 0.62476 0.30785 0.0
H2105 H 0.97486 0.68596 0.2663 0.0
H2106 H 0.95068 0.67127 0.2827 0.0
C2107 C 0.86328 0.61274 0.31279 0.0
C2108 C 0.8899 0.64579 0.28472 0.0
H2109 H 0.93201 0.64438 0.26813 0.0
C2110 C 0.88712 0.66407 0.28344 0.0
C2111 C 0.90631 0.63861 0.27932 0.0
C2112 C 0.90977 0.61899 0.27994 0.0
C2113 C 0.90041 0.67541 0.27688 0.0
C2114 C 0.91671 0.66817 0.27106 0.0
C2115 C 0.91953 0.64991 0.27266 0.0
C2116 C 0.9308 0.67905 0.26244 0.0
C2117 C 0.89692 0.69501 0.27641 0.0
C2118 C 0.92762 0.6885 0.24573 0.0
C2119 C 0.94139 0.69711 0.23644 0.0
C2120 C 0.95866 0.69625 0.24355 0.0
C2121 C 0.9617 0.68714 0.26057 0.0
C2122 C 0.94791 0.67862 0.2699 0.0
H2123 H 0.88653 0.69881 0.28667 0.0
H2124 H 0.90903 0.70266 0.27959 0.0
H2125 H 0.89228 0.69876 0.26209 0.0
H2126 H 0.91461 0.6887 0.23948 0.0
H2127 H 0.93855 0.70414 0.22347 0.0
H2128 H 0.66876 0.97625 0.24879 0.0
H2129 H 0.65387 0.9511 0.2633 0.0
H2130 H 0.69679 0.91709 0.24675 0.0
H2131 H 0.7113 0.9422 0.23135 0.0
H2132 H 0.66776 0.90205 0.23832 0.0
H2133 H 0.66064 0.92578 0.31153 0.0
H2134 H 0.65105 0.94141 0.29558 0.0
H2135 H 0.67437 0.93699 0.29456 0.0
C2136 C 0.67513 0.96345 0.24856 0.0
C2137 C 0.6912 0.96112 0.2391 0.0
C2138 C 0.66668 0.9491 0.25697 0.0
C2139 C 0.67437 0.93223 0.25654 0.0
C2140 C 0.69064 0.92998 0.24738 0.0
H2141 H 0.62121 0.84764 0.31895 0.0
H2142 H 0.64285 0.86943 0.30872 0.0
C2143 C 0.69892 0.94429 0.23861 0.0
C2144 C 0.6647 0.91675 0.26421 0.0
H2145 H 0.64032 0.90284 0.30188 0.0
C2146 C 0.66201 0.90213 0.25235 0.0
C2147 C 0.65747 0.91657 0.28266 0.0
C2148 C 0.66122 0.93096 0.29685 0.0
C2149 C 0.65168 0.88775 0.25807 0.0
C2150 C 0.64316 0.88832 0.27586 0.0
C2151 C 0.64652 0.90254 0.28808 0.0
C2152 C 0.63033 0.87461 0.28181 0.0
C2153 C 0.65014 0.87209 0.24498 0.0
C2154 C 0.61595 0.87037 0.27022 0.0
C2155 C 0.60382 0.85755 0.27578 0.0
C2156 C 0.60546 0.849 0.29335 0.0
C2157 C 0.61967 0.85362 0.30516 0.0
C2158 C 0.63199 0.86623 0.29941 0.0
H2159 H 0.66199 0.87082 0.23588 0.0
H2160 H 0.6484 0.85958 0.25295 0.0
H2161 H 0.63863 0.87397 0.23554 0.0
H2162 H 0.61404 0.87702 0.25683 0.0
H2163 H 0.59325 0.85426 0.26614 0.0
H2164 H 0.86461 0.41139 0.72117 0.0
H2165 H 0.88823 0.39085 0.72923 0.0
H2166 H 0.86512 0.35142 0.69289 0.0
H2167 H 0.84123 0.37189 0.68498 0.0
H2168 H 0.87467 0.33755 0.72633 0.0
H2169 H 0.92997 0.37669 0.69767 0.0
H2170 H 0.91721 0.38924 0.71421 0.0
H2171 H 0.9073 0.38184 0.69247 0.0
C2172 C 0.86469 0.39842 0.7147 0.0
C2173 C 0.85116 0.39329 0.70233 0.0
C2174 C 0.87821 0.38671 0.71928 0.0
C2175 C 0.87865 0.36973 0.71135 0.0
C2176 C 0.8651 0.3645 0.69908 0.0
H2177 H 0.97419 0.30716 0.72765 0.0
H2178 H 0.94903 0.32185 0.71274 0.0
C2179 C 0.85145 0.37618 0.69461 0.0
C2180 C 0.89294 0.35727 0.71648 0.0
H2181 H 0.9376 0.35385 0.71974 0.0
C2182 C 0.88844 0.341 0.72467 0.0
C2183 C 0.9109 0.3616 0.71395 0.0
C2184 C 0.91664 0.37821 0.7039 0.0
C2185 C 0.90143 0.32929 0.73118 0.0
C2186 C 0.91936 0.33422 0.72991 0.0
C2187 C 0.92385 0.35014 0.72095 0.0
C2188 C 0.93368 0.32355 0.73846 0.0
C2189 C 0.89577 0.31177 0.73931 0.0
C2190 C 0.93336 0.31947 0.75782 0.0
C2191 C 0.94762 0.31091 0.76628 0.0
C2192 C 0.96259 0.30657 0.75561 0.0
C2193 C 0.9628 0.3104 0.73619 0.0
C2194 C 0.94845 0.31877 0.72768 0.0
H2195 H 0.88293 0.30749 0.73334 0.0
H2196 H 0.90568 0.30132 0.73654 0.0
H2197 H 0.89409 0.31312 0.75482 0.0
H2198 H 0.92238 0.32349 0.76657 0.0
H2199 H 0.94726 0.3084 0.78135 0.0
H2200 H 0.40131 0.13103 0.30592 0.0
H2201 H 0.38133 0.10767 0.29575 0.0
H2202 H 0.33968 0.14581 0.28892 0.0
H2203 H 0.35959 0.16937 0.29928 0.0
H2204 H 0.34776 0.09604 0.30896 0.0
H2205 H 0.34559 0.12344 0.23596 0.0
H2206 H 0.36162 0.13055 0.25316 0.0
H2207 H 0.3393 0.13819 0.25468 0.0
C2208 C 0.3878 0.13445 0.30267 0.0
C2209 C 0.38207 0.1521 0.30331 0.0
C2210 C 0.37642 0.12107 0.29678 0.0
C2211 C 0.35913 0.12507 0.29136 0.0
C2212 C 0.35308 0.14252 0.29276 0.0
H2213 H 0.28645 0.04005 0.25681 0.0
H2214 H 0.29813 0.06634 0.27276 0.0
C2215 C 0.36447 0.15595 0.29865 0.0
C2216 C 0.34796 0.11104 0.28313 0.0
H2217 H 0.33045 0.0969 0.24136 0.0
C2218 C 0.34375 0.09629 0.29425 0.0
C2219 C 0.34294 0.11139 0.26388 0.0
C2220 C 0.34766 0.12665 0.25112 0.0
C2221 C 0.335 0.08165 0.28649 0.0
C2222 C 0.33026 0.0819 0.26718 0.0
C2223 C 0.33404 0.09685 0.2562 0.0
C2224 C 0.32287 0.0662 0.25762 0.0
C2225 C 0.33162 0.0657 0.29875 0.0
C2226 C 0.33279 0.05767 0.24364 0.0
C2227 C 0.32616 0.0428 0.23448 0.0
C2228 C 0.30941 0.03618 0.23906 0.0
C2229 C 0.29937 0.04489 0.25293 0.0
C2230 C 0.30606 0.05979 0.26216 0.0
H2231 H 0.33858 0.06655 0.31252 0.0
H2232 H 0.31729 0.06461 0.30157 0.0
H2233 H 0.33584 0.05346 0.2914 0.0
H2234 H 0.34576 0.0625 0.23989 0.0
H2235 H 0.33409 0.0366 0.22363 0.0
H2236 H 0.16295 0.62011 0.7267 0.0
H2237 H 0.13888 0.63958 0.7364 0.0
H2238 H 0.10446 0.61444 0.69607 0.0
H2239 H 0.12842 0.59479 0.68646 0.0
H2240 H 0.11852 0.66349 0.71656 0.0
H2241 H 0.07739 0.6091 0.74523 0.0
H2242 H 0.10019 0.60606 0.73891 0.0
H2243 H 0.08347 0.6063 0.72091 0.0
C2244 C 0.15029 0.61884 0.71979 0.0
C2245 C 0.1475 0.60584 0.70594 0.0
C2246 C 0.13655 0.62994 0.72537 0.0
C2247 C 0.11982 0.62823 0.71719 0.0
C2248 C 0.11716 0.61568 0.70289 0.0
H2249 H 0.01995 0.67978 0.74118 0.0
H2250 H 0.0441 0.66407 0.72563 0.0
C2251 C 0.13085 0.60448 0.69741 0.0
C2252 C 0.10509 0.6394 0.72391 0.0
H2253 H 0.06459 0.63754 0.74468 0.0
C2254 C 0.10672 0.65784 0.7227 0.0
C2255 C 0.08974 0.63196 0.73196 0.0
C2256 C 0.0876 0.61228 0.73452 0.0
C2257 C 0.09333 0.66905 0.72927 0.0
C2258 C 0.07805 0.66158 0.73734 0.0
C2259 C 0.07632 0.64318 0.73835 0.0
C2260 C 0.06393 0.67257 0.74559 0.0
C2261 C 0.09556 0.68876 0.72742 0.0
C2262 C 0.06716 0.68262 0.76187 0.0
C2263 C 0.05341 0.69158 0.77079 0.0
C2264 C 0.0362 0.69064 0.76356 0.0
C2265 C 0.03311 0.68094 0.74694 0.0
C2266 C 0.04685 0.67189 0.7381 0.0
H2267 H 0.10595 0.69224 0.71701 0.0
H2268 H 0.08301 0.69509 0.72305 0.0
H2269 H 0.0994 0.69432 0.74132 0.0
H2270 H 0.08021 0.68308 0.76801 0.0
H2271 H 0.05619 0.69904 0.78351 0.0
H2272 H 0.24694 0.52634 0.56982 0.0
H2273 H 0.24579 0.52052 0.53584 0.0
H2274 H 0.18998 0.51078 0.53979 0.0
H2275 H 0.19101 0.51662 0.57377 0.0
H2276 H 0.20777 0.48491 0.52008 0.0
H2277 H 0.22572 0.55149 0.49367 0.0
H2278 H 0.24107 0.5426 0.51046 0.0
H2279 H 0.21894 0.54754 0.51775 0.0
C2280 C 0.23438 0.52321 0.56341 0.0
C2281 C 0.21906 0.52196 0.57447 0.0
C2282 C 0.23374 0.51991 0.54399 0.0
C2283 C 0.21775 0.51547 0.53527 0.0
C2284 C 0.20244 0.51424 0.54626 0.0
H2285 H 0.19872 0.50836 0.41403 0.0
H2286 H 0.19816 0.51663 0.4475 0.0
C2287 C 0.20307 0.51749 0.56567 0.0
C2288 C 0.21713 0.5113 0.51485 0.0
H2289 H 0.22571 0.52816 0.47106 0.0
C2290 C 0.2116 0.49439 0.50934 0.0
C2291 C 0.22192 0.52378 0.50089 0.0
C2292 C 0.22709 0.54243 0.50593 0.0
C2293 C 0.21112 0.48946 0.49025 0.0
C2294 C 0.21659 0.5017 0.47635 0.0
C2295 C 0.22171 0.51876 0.4818 0.0
C2296 C 0.21721 0.49696 0.45608 0.0
C2297 C 0.20461 0.47126 0.48512 0.0
C2298 C 0.22834 0.48339 0.44982 0.0
C2299 C 0.22872 0.47868 0.43076 0.0
C2300 C 0.21805 0.48753 0.41756 0.0
C2301 C 0.20718 0.50138 0.42383 0.0
C2302 C 0.20679 0.50607 0.44293 0.0
H2303 H 0.19662 0.46535 0.49666 0.0
H2304 H 0.19654 0.47161 0.47204 0.0
H2305 H 0.21607 0.46249 0.48257 0.0
H2306 H 0.23678 0.47648 0.45969 0.0
H2307 H 0.23751 0.46821 0.42632 0.0
H2308 H 0.49426 0.78688 0.42196 0.0
H2309 H 0.48719 0.78704 0.45575 0.0
H2310 H 0.53788 0.7643 0.46826 0.0
H2311 H 0.54511 0.76414 0.43448 0.0
H2312 H 0.48977 0.75392 0.48153 0.0
H2313 H 0.53132 0.81151 0.50181 0.0
H2314 H 0.52309 0.80858 0.47805 0.0
H2315 H 0.54071 0.79498 0.48653 0.0
C2316 C 0.50395 0.78205 0.43192 0.0
C2317 C 0.52025 0.77553 0.4256 0.0
C2318 C 0.49986 0.78207 0.45116 0.0
C2319 C 0.51207 0.77578 0.4644 0.0
C2320 C 0.52835 0.76929 0.4582 0.0
H2321 H 0.51192 0.77405 0.58715 0.0
H2322 H 0.51992 0.77294 0.55364 0.0
C2323 C 0.53241 0.76912 0.43893 0.0
C2324 C 0.50763 0.77575 0.4847 0.0
H2325 H 0.51604 0.79698 0.52622 0.0
C2326 C 0.49547 0.76331 0.49136 0.0
C2327 C 0.51525 0.78794 0.49737 0.0
C2328 C 0.52828 0.80161 0.49069 0.0
C2329 C 0.4908 0.76263 0.51053 0.0
C2330 C 0.49811 0.77511 0.52321 0.0
C2331 C 0.5104 0.78747 0.51649 0.0
C2332 C 0.49317 0.77563 0.54348 0.0
C2333 C 0.47839 0.7483 0.51704 0.0
C2334 C 0.47552 0.77774 0.5489 0.0
C2335 C 0.47092 0.77821 0.56801 0.0
C2336 C 0.48394 0.77692 0.58204 0.0
C2337 C 0.50164 0.77517 0.57661 0.0
C2338 C 0.50621 0.77449 0.5575 0.0
H2339 H 0.47839 0.7369 0.50717 0.0
H2340 H 0.48193 0.74349 0.53136 0.0
H2341 H 0.4648 0.75365 0.51754 0.0
H2342 H 0.46529 0.77919 0.53835 0.0
H2343 H 0.45721 0.77987 0.57181 0.0
H2344 H 0.76461 0.54351 0.43054 0.0
H2345 H 0.76374 0.5366 0.46433 0.0
H2346 H 0.77987 0.48317 0.45246 0.0
H2347 H 0.78046 0.4898 0.41867 0.0
H2348 H 0.74387 0.50887 0.48339 0.0
H2349 H 0.81627 0.50184 0.49175 0.0
H2350 H 0.8064 0.51295 0.47181 0.0
H2351 H 0.80672 0.48926 0.47282 0.0
C2352 C 0.7678 0.53023 0.43509 0.0
C2353 C 0.77272 0.51723 0.42189 0.0
C2354 C 0.76738 0.52635 0.4544 0.0
C2355 C 0.77199 0.50947 0.46085 0.0
C2356 C 0.7766 0.49638 0.44775 0.0
H2357 H 0.78268 0.45879 0.56962 0.0
H2358 H 0.7817 0.46632 0.53606 0.0
C2359 C 0.77697 0.50022 0.42846 0.0
C2360 C 0.77192 0.50546 0.4813 0.0
H2361 H 0.79865 0.49363 0.51791 0.0
C2362 C 0.75583 0.50563 0.49101 0.0
C2363 C 0.78757 0.5012 0.49109 0.0
C2364 C 0.80527 0.50142 0.48142 0.0
C2365 C 0.75491 0.50123 0.51026 0.0
C2366 C 0.77057 0.49693 0.52006 0.0
C2367 C 0.78667 0.4969 0.51034 0.0
C2368 C 0.77058 0.49231 0.5404 0.0
C2369 C 0.73714 0.50075 0.51977 0.0
C2370 C 0.76477 0.50448 0.55398 0.0
C2371 C 0.76515 0.50015 0.57317 0.0
C2372 C 0.7715 0.48362 0.57916 0.0
C2373 C 0.77743 0.47152 0.56549 0.0
C2374 C 0.777 0.47584 0.54631 0.0
H2375 H 0.72627 0.49971 0.50933 0.0
H2376 H 0.73621 0.48947 0.52974 0.0
H2377 H 0.73523 0.51313 0.52791 0.0
H2378 H 0.76009 0.51739 0.54975 0.0
H2379 H 0.76035 0.50973 0.5833 0.0
H2380 H 0.4751 0.24989 0.42455 0.0
H2381 H 0.48431 0.25129 0.45765 0.0
H2382 H 0.50934 0.20043 0.45219 0.0
H2383 H 0.5002 0.19894 0.41908 0.0
H2384 H 0.4756 0.22813 0.48635 0.0
H2385 H 0.54799 0.23033 0.47622 0.0
H2386 H 0.53266 0.23437 0.4572 0.0
H2387 H 0.53745 0.21214 0.46453 0.0
C2388 C 0.48255 0.239 0.43041 0.0
C2389 C 0.48694 0.22431 0.4192 0.0
C2390 C 0.48788 0.23986 0.44928 0.0
C2391 C 0.49773 0.22609 0.45728 0.0
C2392 C 0.50212 0.2114 0.44616 0.0
H2393 H 0.53489 0.20037 0.56933 0.0
H2394 H 0.52765 0.20116 0.53566 0.0
C2395 C 0.49686 0.21055 0.42726 0.0
C2396 C 0.50268 0.22674 0.47751 0.0
H2397 H 0.53779 0.22568 0.50762 0.0
C2398 C 0.4892 0.22773 0.49102 0.0
C2399 C 0.52043 0.22618 0.48352 0.0
C2400 C 0.53549 0.22586 0.46962 0.0
C2401 C 0.49296 0.22776 0.51042 0.0
C2402 C 0.5107 0.22708 0.51643 0.0
C2403 C 0.5242 0.22619 0.50294 0.0
C2404 C 0.51548 0.22697 0.53671 0.0
C2405 C 0.4779 0.22805 0.52432 0.0
C2406 C 0.51129 0.24135 0.54835 0.0
C2407 C 0.51527 0.24089 0.56762 0.0
C2408 C 0.52361 0.22606 0.57557 0.0
C2409 C 0.52819 0.21186 0.56372 0.0
C2410 C 0.52419 0.21234 0.54446 0.0
H2411 H 0.46524 0.22428 0.51757 0.0
H2412 H 0.48045 0.21896 0.53633 0.0
H2413 H 0.47643 0.2416 0.53008 0.0
H2414 H 0.50483 0.2529 0.54255 0.0
H2415 H 0.51147 0.25199 0.57636 0.0
H2416 H 0.74104 0.04058 0.07027 0.0
H2417 H 0.74116 0.03455 0.03626 0.0
H2418 H 0.70365 0.99253 0.04453 0.0
H2419 H 0.70357 0.99832 0.07851 0.0
H2420 H 0.74961 0.00272 0.01731 0.0
H2421 H 0.6807 0.02339 0.00347 0.0
H2422 H 0.69227 0.02915 0.0249 0.0
H2423 H 0.68301 0.00746 0.02211 0.0
C2424 C 0.73292 0.02997 0.06486 0.0
C2425 C 0.72222 0.01999 0.07708 0.0
C2426 C 0.73293 0.02662 0.04544 0.0
C2427 C 0.72219 0.01331 0.03789 0.0
C2428 C 0.71172 0.00314 0.05005 0.0
H2429 H 0.70266 0.9675 0.92846 0.0
H2430 H 0.70337 0.97569 0.96188 0.0
C2431 C 0.7117 0.00647 0.06945 0.0
C2432 C 0.72217 0.00978 0.01732 0.0
H2433 H 0.69548 0.00844 0.97854 0.0
C2434 C 0.73783 0.0041 0.00877 0.0
C2435 C 0.70676 0.0116 0.00628 0.0
C2436 C 0.68976 0.01839 0.01458 0.0
C2437 C 0.73838 -0.00032 0.98952 0.0
C2438 C 0.7229 0.00129 0.97853 0.0
C2439 C 0.7073 0.00719 0.98704 0.0
C2440 C 0.72252 0.99655 0.95824 0.0
C2441 C 0.75535 0.9928 0.98124 0.0
C2442 C 0.73289 0.00574 0.94511 0.0
C2443 C 0.73261 0.00101 0.92603 0.0
C2444 C 0.72188 0.98706 0.91972 0.0
C2445 C 0.71128 0.9781 0.9329 0.0
C2446 C 0.71157 0.98284 0.95197 0.0
H2447 H 0.76469 0.98843 0.99238 0.0
H2448 H 0.75282 0.98156 0.97154 0.0
H2449 H 0.76177 0.00347 0.973 0.0
H2450 H 0.7412 0.01656 0.94964 0.0
H2451 H 0.74101 0.0081 0.91626 0.0
H2452 H 0.98964 0.28204 0.91611 0.0
H2453 H 0.98333 0.28181 0.95002 0.0
H2454 H 0.03861 0.27497 0.96191 0.0
H2455 H 0.04493 0.27479 0.92799 0.0
H2456 H 0.01905 0.25317 0.98281 0.0
H2457 H 0.99153 0.32073 0.98766 0.0
H2458 H 0.98017 0.30736 0.97067 0.0
H2459 H 0.00295 0.31289 0.96695 0.0
C2460 C 0.00044 0.28063 0.92598 0.0
C2461 C 0.01777 0.27849 0.91945 0.0
C2462 C 0.99684 0.28058 0.94534 0.0
C2463 C 0.01054 0.27873 0.95852 0.0
C2464 C 0.02785 0.27649 0.952 0.0
H2465 H 0.9985 0.30027 0.07856 0.0
H2466 H 0.00718 0.30068 0.04535 0.0
C2467 C 0.03143 0.27634 0.93264 0.0
C2468 C 0.00678 0.27858 0.97908 0.0
H2469 H 0.98713 0.30207 0.01442 0.0
C2470 C 0.01217 0.26391 0.98976 0.0
C2471 C 0.99806 0.29273 0.98819 0.0
C2472 C 0.99301 0.30939 0.97782 0.0
C2473 C 0.00877 0.26285 0.00921 0.0
C2474 C -0.00072 0.2766 0.01812 0.0
C2475 C 0.99422 0.29143 0.00753 0.0
C2476 C 0.99449 0.27593 0.03842 0.0
C2477 C 0.01565 0.24713 0.02005 0.0
C2478 C 0.98439 0.26193 0.04556 0.0
C2479 C 0.97967 0.26148 0.06463 0.0
C2480 C 0.9847 0.2752 0.07691 0.0
C2481 C 0.99467 0.28931 0.06963 0.0
C2482 C -0.00049 0.28966 0.0506 0.0
H2483 H 0.02696 0.24086 0.0127 0.0
H2484 H 0.01987 0.25093 0.03451 0.0
H2485 H 0.00507 0.23709 0.02126 0.0
H2486 H 0.98001 0.25139 0.03634 0.0
H2487 H 0.97214 0.25032 0.06974 0.0
H2488 H 0.29497 0.03941 0.93081 0.0
H2489 H 0.29494 0.03118 0.96417 0.0
H2490 H 0.26513 0.98429 0.95106 0.0
H2491 H 0.26432 0.99285 0.91779 0.0
H2492 H 0.252 0.00139 0.98147 0.0
H2493 H 0.32413 0.99325 0.98938 0.0
H2494 H 0.318 0.01461 0.9806 0.0
H2495 H 0.31361 0.99526 0.96661 0.0
C2496 C 0.28828 0.02741 0.93501 0.0
C2497 C 0.27968 0.01677 0.92158 0.0
C2498 C 0.28849 0.0226 0.95407 0.0
C2499 C 0.28032 0.00695 0.96005 0.0
C2500 C 0.27165 0.99635 0.94672 0.0
H2501 H 0.29457 0.95732 0.06956 0.0
H2502 H 0.2943 0.96469 0.03596 0.0
C2503 C 0.27133 0.00119 0.92768 0.0
C2504 C 0.28032 0.0019 0.98028 0.0
H2505 H 0.30729 0.99334 0.01777 0.0
C2506 C 0.26409 -0.00045 0.9894 0.0
C2507 C 0.29611 0.99926 0.99052 0.0
C2508 C 0.31395 0.00054 0.98124 0.0
C2509 C 0.26319 0.99489 0.00856 0.0
C2510 C 0.27896 0.99296 0.01898 0.0
C2511 C 0.29521 0.99503 0.00979 0.0
C2512 C 0.27893 0.98853 0.03938 0.0
C2513 C 0.24535 0.99177 0.01734 0.0
C2514 C 0.27054 -0.0004 0.05249 0.0
C2515 C 0.27045 0.99529 0.07169 0.0
C2516 C 0.27894 0.97993 0.07819 0.0
C2517 C 0.28761 0.96906 0.06502 0.0
C2518 C 0.28761 0.97333 0.04582 0.0
H2519 H 0.23522 0.98881 0.00647 0.0
H2520 H 0.24578 0.98067 0.02758 0.0
H2521 H 0.24117 0.00385 0.02499 0.0
H2522 H 0.26409 0.0116 0.04788 0.0
H2523 H 0.26353 0.0039 0.08139 0.0
H2524 H 0.99889 0.70192 0.92203 0.0
H2525 H 0.00682 0.7019 0.95549 0.0
H2526 H 0.9769 0.74966 0.96384 0.0
H2527 H 0.96956 0.75026 0.93023 0.0
H2528 H 0.00882 0.75078 0.98153 0.0
H2529 H 0.97417 0.68827 0.99851 0.0
H2530 H 0.99008 0.68614 0.9799 0.0
H2531 H 0.97099 0.69983 0.97648 0.0
C2532 C 0.99416 0.71255 0.93092 0.0
C2533 C 0.9835 0.72605 0.92344 0.0
C2534 C 0.99851 0.71238 0.9501 0.0
C2535 C 0.99215 0.72558 0.96221 0.0
C2536 C 0.98181 0.73926 0.95476 0.0
H2537 H 0.98836 0.72199 0.0845 0.0
H2538 H 0.98175 0.7227 0.05066 0.0
C2539 C 0.97751 0.73949 0.93557 0.0
C2540 C 0.99635 0.72527 0.98265 0.0
H2541 H 0.99221 0.7004 0.02263 0.0
C2542 C 0.00517 0.73979 0.99054 0.0
C2543 C 0.99134 0.71101 0.99441 0.0
C2544 C 0.98097 0.6955 0.98697 0.0
C2545 C 0.00928 0.74037 0.00986 0.0
C2546 C 0.00477 0.72587 0.0215 0.0
C2547 C 0.9958 0.71143 0.01364 0.0
C2548 C 0.00891 0.72554 0.04196 0.0
C2549 C 0.01805 0.75669 0.01769 0.0
C2550 C 0.02639 0.72669 0.04826 0.0
C2551 C 0.03019 0.72635 0.06758 0.0
C2552 C 0.01659 0.72461 0.08092 0.0
C2553 C 0.99912 0.7232 0.07454 0.0
C2554 C 0.99532 0.72366 0.05524 0.0
H2555 H 0.0162 0.76827 0.00826 0.0
H2556 H 0.01282 0.76002 0.0319 0.0
H2557 H 0.0324 0.75425 0.01902 0.0
H2558 H 0.03711 0.72769 0.03824 0.0
H2559 H 0.04379 0.72716 0.07206 0.0
loop_
_geom_bond_atom_site_label_1
_geom_bond_atom_site_label_2
_geom_bond_distance
_geom_bond_site_symmetry_2
_ccdc_geom_bond_type
Li0 N17 1.990 . S
Li0 O60 1.956 . S
Li0 O61 1.970 . S
Li0 O62 1.961 . S
Li1 N25 1.990 . S
Li1 O60 1.970 . S
Li1 O61 1.956 . S
Li1 O63 1.961 . S
Li2 N47 1.990 . S
Li2 O60 1.961 . S
Li2 O62 1.956 . S
Li2 O63 1.970 . S
Li3 N53 1.990 . S
Li3 O61 1.961 . S
Li3 O62 1.970 . S
Li3 O63 1.956 . S
C4 C6 1.348 . S
C4 C7 1.356 . S
C4 O60 1.325 . S
N5 C8 1.314 . S
N5 C9 1.279 . S
C6 C4 1.348 . S
C6 C8 1.353 . S
C6 H64 0.929 . S
C7 C4 1.356 . S
C7 C9 1.358 . S
C7 H65 0.930 . S
C8 N5 1.314 . S
C8 C6 1.353 . S
C8 H66 0.930 . S
C9 N5 1.279 . S
C9 C7 1.358 . S
C9 H67 0.930 . S
C10 C13 1.348 . S
C10 C14 1.356 . S
C10 O61 1.325 . S
C11 N12 1.279 . S
C11 C14 1.358 . S
C11 H68 0.930 . S
N12 C11 1.279 . S
N12 C15 1.314 . S
C13 C10 1.348 . S
C13 C15 1.353 . S
C13 H69 0.929 . S
C14 C10 1.356 . S
C14 C11 1.358 . S
C14 H70 0.930 . S
C15 N12 1.314 . S
C15 C13 1.353 . S
C15 H71 0.930 . S
C16 N17 1.314 . S
C16 C21 1.353 . S
C16 H22 0.930 . S
N17 Li0 1.990 . S
N17 C16 1.314 . S
N17 C19 1.279 . S
C18 C19 1.358 . S
C18 C20 1.356 . S
C18 H72 0.930 . S
C19 N17 1.279 . S
C19 C18 1.358 . S
C19 H23 0.930 . S
C20 C18 1.356 . S
C20 C21 1.348 . S
C21 C16 1.353 . S
C21 C20 1.348 . S
C21 H73 0.929 . S
H22 C16 0.930 . S
H23 C19 0.930 . S
C24 N25 1.314 . S
C24 C26 1.353 . S
C24 H30 0.930 . S
N25 Li1 1.990 . S
N25 C24 1.314 . S
N25 C28 1.279 . S
C26 C24 1.353 . S
C26 C29 1.348 . S
C26 H74 0.929 . S
C27 C28 1.358 . S
C27 C29 1.356 . S
C27 H75 0.930 . S
C28 N25 1.279 . S
C28 C27 1.358 . S
C28 H31 0.930 . S
C29 C26 1.348 . S
C29 C27 1.356 . S
H30 C24 0.930 . S
H31 C28 0.930 . S
C32 C34 1.348 . S
C32 C35 1.356 . S
C32 O62 1.325 . S
N33 C36 1.314 . S
N33 C37 1.279 . S
C34 C32 1.348 . S
C34 C36 1.353 . S
C34 H76 0.929 . S
C35 C32 1.356 . S
C35 C37 1.358 . S
C35 H77 0.930 . S
C36 N33 1.314 . S
C36 C34 1.353 . S
C36 H78 0.930 . S
C37 N33 1.279 . S
C37 C35 1.358 . S
C37 H79 0.930 . S
C38 C39 1.348 . S
C38 C40 1.356 . S
C38 O63 1.325 . S
C39 C38 1.348 . S
C39 C41 1.353 . S
C39 H80 0.929 . S
C40 C38 1.356 . S
C40 C42 1.358 . S
C40 H81 0.930 . S
C41 C39 1.353 . S
C41 N43 1.314 . S
C41 H82 0.930 . S
C42 C40 1.358 . S
C42 N43 1.279 . S
C42 H83 0.930 . S
N43 C41 1.314 . S
N43 C42 1.279 . S
C44 C46 1.353 . S
C44 N47 1.314 . S
C44 H50 0.930 . S
C45 N47 1.279 . S
C45 C48 1.358 . S
C45 H51 0.930 . S
C46 C44 1.353 . S
C46 C49 1.348 . S
C46 H84 0.929 . S
N47 Li2 1.990 . S
N47 C44 1.314 . S
N47 C45 1.279 . S
C48 C45 1.358 . S
C48 C49 1.356 . S
C48 H85 0.930 . S
C49 C46 1.348 . S
C49 C48 1.356 . S
H50 C44 0.930 . S
H51 C45 0.930 . S
C52 N53 1.314 . S
C52 C54 1.353 . S
C52 H58 0.930 . S
N53 Li3 1.990 . S
N53 C52 1.314 . S
N53 C56 1.279 . S
C54 C52 1.353 . S
C54 C57 1.348 . S
C54 H86 0.929 . S
C55 C56 1.358 . S
C55 C57 1.356 . S
C55 H87 0.930 . S
C56 N53 1.279 . S
C56 C55 1.358 . S
C56 H59 0.930 . S
C57 C54 1.348 . S
C57 C55 1.356 . S
H58 C52 0.930 . S
H59 C56 0.930 . S
O60 Li0 1.956 . S
O60 Li1 1.970 . S
O60 Li2 1.961 . S
O60 C4 1.325 . S
O61 Li0 1.970 . S
O61 Li1 1.956 . S
O61 Li3 1.961 . S
O61 C10 1.325 . S
O62 Li0 1.961 . S
O62 Li2 1.956 . S
O62 Li3 1.970 . S
O62 C32 1.325 . S
O63 Li1 1.961 . S
O63 Li2 1.970 . S
O63 Li3 1.956 . S
O63 C38 1.325 . S
H64 C6 0.929 . S
H65 C7 0.930 . S
H66 C8 0.930 . S
H67 C9 0.930 . S
H68 C11 0.930 . S
H69 C13 0.929 . S
H70 C14 0.930 . S
H71 C15 0.930 . S
H72 C18 0.930 . S
H73 C21 0.929 . S
H74 C26 0.929 . S
H75 C27 0.930 . S
H76 C34 0.929 . S
H77 C35 0.930 . S
H78 C36 0.930 . S
H79 C37 0.930 . S
H80 C39 0.929 . S
H81 C40 0.930 . S
H82 C41 0.930 . S
H83 C42 0.930 . S
H84 C46 0.929 . S
H85 C48 0.930 . S
H86 C54 0.929 . S
H87 C55 0.930 . S
Li88 N105 1.990 . S
Li88 O148 1.956 . S
Li88 O149 1.970 . S
Li88 O150 1.961 . S
Li89 N113 1.990 . S
Li89 O148 1.970 . S
Li89 O149 1.956 . S
Li89 O151 1.961 . S
Li90 N135 1.990 . S
Li90 O148 1.961 . S
Li90 O150 1.956 . S
Li90 O151 1.970 . S
Li91 N141 1.990 . S
Li91 O149 1.961 . S
Li91 O150 1.970 . S
Li91 O151 1.956 . S
C92 C94 1.348 . S
C92 C95 1.356 . S
C92 O148 1.325 . S
N93 C96 1.314 . S
N93 C97 1.279 . S
C94 C92 1.348 . S
C94 C96 1.353 . S
C94 H152 0.929 . S
C95 C92 1.356 . S
C95 C97 1.358 . S
C95 H153 0.930 . S
C96 N93 1.314 . S
C96 C94 1.353 . S
C96 H154 0.930 . S
C97 N93 1.279 . S
C97 C95 1.358 . S
C97 H155 0.930 . S
C98 C101 1.348 . S
C98 C102 1.356 . S
C98 O149 1.325 . S
C99 N100 1.279 . S
C99 C102 1.358 . S
C99 H156 0.930 . S
N100 C99 1.279 . S
N100 C103 1.314 . S
C101 C98 1.348 . S
C101 C103 1.353 . S
C101 H157 0.929 . S
C102 C98 1.356 . S
C102 C99 1.358 . S
C102 H158 0.930 . S
C103 N100 1.314 . S
C103 C101 1.353 . S
C103 H159 0.930 . S
C104 N105 1.314 . S
C104 C109 1.353 . S
C104 H110 0.930 . S
N105 Li88 1.990 . S
N105 C104 1.314 . S
N105 C107 1.279 . S
C106 C107 1.358 . S
C106 C108 1.356 . S
C106 H160 0.930 . S
C107 N105 1.279 . S
C107 C106 1.358 . S
C107 H111 0.930 . S
C108 C106 1.356 . S
C108 C109 1.348 . S
C109 C104 1.353 . S
C109 C108 1.348 . S
C109 H161 0.929 . S
H110 C104 0.930 . S
H111 C107 0.930 . S
C112 N113 1.314 . S
C112 C114 1.353 . S
C112 H118 0.930 . S
N113 Li89 1.990 . S
N113 C112 1.314 . S
N113 C116 1.279 . S
C114 C112 1.353 . S
C114 C117 1.348 . S
C114 H162 0.929 . S
C115 C116 1.358 . S
C115 C117 1.356 . S
C115 H163 0.930 . S
C116 N113 1.279 . S
C116 C115 1.358 . S
C116 H119 0.930 . S
C117 C114 1.348 . S
C117 C115 1.356 . S
H118 C112 0.930 . S
H119 C116 0.930 . S
C120 C122 1.348 . S
C120 C123 1.356 . S
C120 O150 1.325 . S
N121 C124 1.314 . S
N121 C125 1.279 . S
C122 C120 1.348 . S
C122 C124 1.353 . S
C122 H164 0.929 . S
C123 C120 1.356 . S
C123 C125 1.358 . S
C123 H165 0.930 . S
C124 N121 1.314 . S
C124 C122 1.353 . S
C124 H166 0.930 . S
C125 N121 1.279 . S
C125 C123 1.358 . S
C125 H167 0.930 . S
C126 C127 1.348 . S
C126 C128 1.356 . S
C126 O151 1.325 . S
C127 C126 1.348 . S
C127 C129 1.353 . S
C127 H168 0.929 . S
C128 C126 1.356 . S
C128 C130 1.358 . S
C128 H169 0.930 . S
C129 C127 1.353 . S
C129 N131 1.314 . S
C129 H170 0.930 . S
C130 C128 1.358 . S
C130 N131 1.279 . S
C130 H171 0.930 . S
N131 C129 1.314 . S
N131 C130 1.279 . S
C132 C134 1.353 . S
C132 N135 1.314 . S
C132 H138 0.930 . S
C133 N135 1.279 . S
C133 C136 1.358 . S
C133 H139 0.930 . S
C134 C132 1.353 . S
C134 C137 1.348 . S
C134 H172 0.929 . S
N135 Li90 1.990 . S
N135 C132 1.314 . S
N135 C133 1.279 . S
C136 C133 1.358 . S
C136 C137 1.356 . S
C136 H173 0.930 . S
C137 C134 1.348 . S
C137 C136 1.356 . S
H138 C132 0.930 . S
H139 C133 0.930 . S
C140 N141 1.314 . S
C140 C142 1.353 . S
C140 H146 0.930 . S
N141 Li91 1.990 . S
N141 C140 1.314 . S
N141 C144 1.279 . S
C142 C140 1.353 . S
C142 C145 1.348 . S
C142 H174 0.929 . S
C143 C144 1.358 . S
C143 C145 1.356 . S
C143 H175 0.930 . S
C144 N141 1.279 . S
C144 C143 1.358 . S
C144 H147 0.930 . S
C145 C142 1.348 . S
C145 C143 1.356 . S
H146 C140 0.930 . S
H147 C144 0.930 . S
O148 Li88 1.956 . S
O148 Li89 1.970 . S
O148 Li90 1.961 . S
O148 C92 1.325 . S
O149 Li88 1.970 . S
O149 Li89 1.956 . S
O149 Li91 1.961 . S
O149 C98 1.325 . S
O150 Li88 1.961 . S
O150 Li90 1.956 . S
O150 Li91 1.970 . S
O150 C120 1.325 . S
O151 Li89 1.961 . S
O151 Li90 1.970 . S
O151 Li91 1.956 . S
O151 C126 1.325 . S
H152 C94 0.929 . S
H153 C95 0.930 . S
H154 C96 0.930 . S
H155 C97 0.930 . S
H156 C99 0.930 . S
H157 C101 0.929 . S
H158 C102 0.930 . S
H159 C103 0.930 . S
H160 C106 0.930 . S
H161 C109 0.929 . S
H162 C114 0.929 . S
H163 C115 0.930 . S
H164 C122 0.929 . S
H165 C123 0.930 . S
H166 C124 0.930 . S
H167 C125 0.930 . S
H168 C127 0.929 . S
H169 C128 0.930 . S
H170 C129 0.930 . S
H171 C130 0.930 . S
H172 C134 0.929 . S
H173 C136 0.930 . S
H174 C142 0.929 . S
H175 C143 0.930 . S
Li176 N193 1.990 . S
Li176 O236 1.956 . S
Li176 O237 1.970 . S
Li176 O238 1.961 . S
Li177 N201 1.990 . S
Li177 O236 1.970 . S
Li177 O237 1.956 . S
Li177 O239 1.961 . S
Li178 N223 1.990 . S
Li178 O236 1.961 . S
Li178 O238 1.956 . S
Li178 O239 1.970 . S
Li179 N229 1.990 . S
Li179 O237 1.961 . S
Li179 O238 1.970 . S
Li179 O239 1.956 . S
C180 C182 1.348 . S
C180 C183 1.356 . S
C180 O236 1.325 . S
N181 C184 1.314 . S
N181 C185 1.279 . S
C182 C180 1.348 . S
C182 C184 1.353 . S
C182 H240 0.929 . S
C183 C180 1.356 . S
C183 C185 1.358 . S
C183 H241 0.930 . S
C184 N181 1.314 . S
C184 C182 1.353 . S
C184 H242 0.930 . S
C185 N181 1.279 . S
C185 C183 1.358 . S
C185 H243 0.930 . S
C186 C189 1.348 . S
C186 C190 1.356 . S
C186 O237 1.325 . S
C187 N188 1.279 . S
C187 C190 1.358 . S
C187 H244 0.930 . S
N188 C187 1.279 . S
N188 C191 1.314 . S
C189 C186 1.348 . S
C189 C191 1.353 . S
C189 H245 0.929 . S
C190 C186 1.356 . S
C190 C187 1.358 . S
C190 H246 0.930 . S
C191 N188 1.314 . S
C191 C189 1.353 . S
C191 H247 0.930 . S
C192 N193 1.314 . S
C192 C197 1.353 . S
C192 H198 0.930 . S
N193 Li176 1.990 . S
N193 C192 1.314 . S
N193 C195 1.279 . S
C194 C195 1.358 . S
C194 C196 1.356 . S
C194 H248 0.930 . S
C195 N193 1.279 . S
C195 C194 1.358 . S
C195 H199 0.930 . S
C196 C194 1.356 . S
C196 C197 1.348 . S
C197 C192 1.353 . S
C197 C196 1.348 . S
C197 H249 0.929 . S
H198 C192 0.930 . S
H199 C195 0.930 . S
C200 N201 1.314 . S
C200 C202 1.353 . S
C200 H206 0.930 . S
N201 Li177 1.990 . S
N201 C200 1.314 . S
N201 C204 1.279 . S
C202 C200 1.353 . S
C202 C205 1.348 . S
C202 H250 0.929 . S
C203 C204 1.358 . S
C203 C205 1.356 . S
C203 H251 0.930 . S
C204 N201 1.279 . S
C204 C203 1.358 . S
C204 H207 0.930 . S
C205 C202 1.348 . S
C205 C203 1.356 . S
H206 C200 0.930 . S
H207 C204 0.930 . S
C208 C210 1.348 . S
C208 C211 1.356 . S
C208 O238 1.325 . S
N209 C212 1.314 . S
N209 C213 1.279 . S
C210 C208 1.348 . S
C210 C212 1.353 . S
C210 H252 0.929 . S
C211 C208 1.356 . S
C211 C213 1.358 . S
C211 H253 0.930 . S
C212 N209 1.314 . S
C212 C210 1.353 . S
C212 H254 0.930 . S
C213 N209 1.279 . S
C213 C211 1.358 . S
C213 H255 0.930 . S
C214 C215 1.348 . S
C214 C216 1.356 . S
C214 O239 1.325 . S
C215 C214 1.348 . S
C215 C217 1.353 . S
C215 H256 0.929 . S
C216 C214 1.356 . S
C216 C218 1.358 . S
C216 H257 0.930 . S
C217 C215 1.353 . S
C217 N219 1.314 . S
C217 H258 0.930 . S
C218 C216 1.358 . S
C218 N219 1.279 . S
C218 H259 0.930 . S
N219 C217 1.314 . S
N219 C218 1.279 . S
C220 C222 1.353 . S
C220 N223 1.314 . S
C220 H226 0.930 . S
C221 N223 1.279 . S
C221 C224 1.358 . S
C221 H227 0.930 . S
C222 C220 1.353 . S
C222 C225 1.348 . S
C222 H260 0.929 . S
N223 Li178 1.990 . S
N223 C220 1.314 . S
N223 C221 1.279 . S
C224 C221 1.358 . S
C224 C225 1.356 . S
C224 H261 0.930 . S
C225 C222 1.348 . S
C225 C224 1.356 . S
H226 C220 0.930 . S
H227 C221 0.930 . S
C228 N229 1.314 . S
C228 C230 1.353 . S
C228 H234 0.930 . S
N229 Li179 1.990 . S
N229 C228 1.314 . S
N229 C232 1.279 . S
C230 C228 1.353 . S
C230 C233 1.348 . S
C230 H262 0.929 . S
C231 C232 1.358 . S
C231 C233 1.356 . S
C231 H263 0.930 . S
C232 N229 1.279 . S
C232 C231 1.358 . S
C232 H235 0.930 . S
C233 C230 1.348 . S
C233 C231 1.356 . S
H234 C228 0.930 . S
H235 C232 0.930 . S
O236 Li176 1.956 . S
O236 Li177 1.970 . S
O236 Li178 1.961 . S
O236 C180 1.325 . S
O237 Li176 1.970 . S
O237 Li177 1.956 . S
O237 Li179 1.961 . S
O237 C186 1.325 . S
O238 Li176 1.961 . S
O238 Li178 1.956 . S
O238 Li179 1.970 . S
O238 C208 1.325 . S
O239 Li177 1.961 . S
O239 Li178 1.970 . S
O239 Li179 1.956 . S
O239 C214 1.325 . S
H240 C182 0.929 . S
H241 C183 0.930 . S
H242 C184 0.930 . S
H243 C185 0.930 . S
H244 C187 0.930 . S
H245 C189 0.929 . S
H246 C190 0.930 . S
H247 C191 0.930 . S
H248 C194 0.930 . S
H249 C197 0.929 . S
H250 C202 0.929 . S
H251 C203 0.930 . S
H252 C210 0.929 . S
H253 C211 0.930 . S
H254 C212 0.930 . S
H255 C213 0.930 . S
H256 C215 0.929 . S
H257 C216 0.930 . S
H258 C217 0.930 . S
H259 C218 0.930 . S
H260 C222 0.929 . S
H261 C224 0.930 . S
H262 C230 0.929 . S
H263 C231 0.930 . S
Li264 N281 1.990 . S
Li264 O324 1.956 . S
Li264 O325 1.970 . S
Li264 O326 1.961 . S
Li265 N289 1.990 . S
Li265 O324 1.970 . S
Li265 O325 1.956 . S
Li265 O327 1.961 . S
Li266 N311 1.990 . S
Li266 O324 1.961 . S
Li266 O326 1.956 . S
Li266 O327 1.970 . S
Li267 N317 1.990 . S
Li267 O325 1.961 . S
Li267 O326 1.970 . S
Li267 O327 1.956 . S
C268 C270 1.348 . S
C268 C271 1.356 . S
C268 O324 1.325 . S
N269 C272 1.314 . S
N269 C273 1.279 . S
C270 C268 1.348 . S
C270 C272 1.353 . S
C270 H328 0.929 . S
C271 C268 1.356 . S
C271 C273 1.358 . S
C271 H329 0.930 . S
C272 N269 1.314 . S
C272 C270 1.353 . S
C272 H330 0.930 . S
C273 N269 1.279 . S
C273 C271 1.358 . S
C273 H331 0.930 . S
C274 C277 1.348 . S
C274 C278 1.356 . S
C274 O325 1.325 . S
C275 N276 1.279 . S
C275 C278 1.358 . S
C275 H332 0.930 . S
N276 C275 1.279 . S
N276 C279 1.314 . S
C277 C274 1.348 . S
C277 C279 1.353 . S
C277 H333 0.929 . S
C278 C274 1.356 . S
C278 C275 1.358 . S
C278 H334 0.930 . S
C279 N276 1.314 . S
C279 C277 1.353 . S
C279 H335 0.930 . S
C280 N281 1.314 . S
C280 C285 1.353 . S
C280 H286 0.930 . S
N281 Li264 1.990 . S
N281 C280 1.314 . S
N281 C283 1.279 . S
C282 C283 1.358 . S
C282 C284 1.356 . S
C282 H336 0.930 . S
C283 N281 1.279 . S
C283 C282 1.358 . S
C283 H287 0.930 . S
C284 C282 1.356 . S
C284 C285 1.348 . S
C285 C280 1.353 . S
C285 C284 1.348 . S
C285 H337 0.929 . S
H286 C280 0.930 . S
H287 C283 0.930 . S
C288 N289 1.314 . S
C288 C290 1.353 . S
C288 H294 0.930 . S
N289 Li265 1.990 . S
N289 C288 1.314 . S
N289 C292 1.279 . S
C290 C288 1.353 . S
C290 C293 1.348 . S
C290 H338 0.929 . S
C291 C292 1.358 . S
C291 C293 1.356 . S
C291 H339 0.930 . S
C292 N289 1.279 . S
C292 C291 1.358 . S
C292 H295 0.930 . S
C293 C290 1.348 . S
C293 C291 1.356 . S
H294 C288 0.930 . S
H295 C292 0.930 . S
C296 C298 1.348 . S
C296 C299 1.356 . S
C296 O326 1.325 . S
N297 C300 1.314 . S
N297 C301 1.279 . S
C298 C296 1.348 . S
C298 C300 1.353 . S
C298 H340 0.929 . S
C299 C296 1.356 . S
C299 C301 1.358 . S
C299 H341 0.930 . S
C300 N297 1.314 . S
C300 C298 1.353 . S
C300 H342 0.930 . S
C301 N297 1.279 . S
C301 C299 1.358 . S
C301 H343 0.930 . S
C302 C303 1.348 . S
C302 C304 1.356 . S
C302 O327 1.325 . S
C303 C302 1.348 . S
C303 C305 1.353 . S
C303 H344 0.929 . S
C304 C302 1.356 . S
C304 C306 1.358 . S
C304 H345 0.930 . S
C305 C303 1.353 . S
C305 N307 1.314 . S
C305 H346 0.930 . S
C306 C304 1.358 . S
C306 N307 1.279 . S
C306 H347 0.930 . S
N307 C305 1.314 . S
N307 C306 1.279 . S
C308 C310 1.353 . S
C308 N311 1.314 . S
C308 H314 0.930 . S
C309 N311 1.279 . S
C309 C312 1.358 . S
C309 H315 0.930 . S
C310 C308 1.353 . S
C310 C313 1.348 . S
C310 H348 0.929 . S
N311 Li266 1.990 . S
N311 C308 1.314 . S
N311 C309 1.279 . S
C312 C309 1.358 . S
C312 C313 1.356 . S
C312 H349 0.930 . S
C313 C310 1.348 . S
C313 C312 1.356 . S
H314 C308 0.930 . S
H315 C309 0.930 . S
C316 N317 1.314 . S
C316 C318 1.353 . S
C316 H322 0.930 . S
N317 Li267 1.990 . S
N317 C316 1.314 . S
N317 C320 1.279 . S
C318 C316 1.353 . S
C318 C321 1.348 . S
C318 H350 0.929 . S
C319 C320 1.358 . S
C319 C321 1.356 . S
C319 H351 0.930 . S
C320 N317 1.279 . S
C320 C319 1.358 . S
C320 H323 0.930 . S
C321 C318 1.348 . S
C321 C319 1.356 . S
H322 C316 0.930 . S
H323 C320 0.930 . S
O324 Li264 1.956 . S
O324 Li265 1.970 . S
O324 Li266 1.961 . S
O324 C268 1.325 . S
O325 Li264 1.970 . S
O325 Li265 1.956 . S
O325 Li267 1.961 . S
O325 C274 1.325 . S
O326 Li264 1.961 . S
O326 Li266 1.956 . S
O326 Li267 1.970 . S
O326 C296 1.325 . S
O327 Li265 1.961 . S
O327 Li266 1.970 . S
O327 Li267 1.956 . S
O327 C302 1.325 . S
H328 C270 0.929 . S
H329 C271 0.930 . S
H330 C272 0.930 . S
H331 C273 0.930 . S
H332 C275 0.930 . S
H333 C277 0.929 . S
H334 C278 0.930 . S
H335 C279 0.930 . S
H336 C282 0.930 . S
H337 C285 0.929 . S
H338 C290 0.929 . S
H339 C291 0.930 . S
H340 C298 0.929 . S
H341 C299 0.930 . S
H342 C300 0.930 . S
H343 C301 0.930 . S
H344 C303 0.929 . S
H345 C304 0.930 . S
H346 C305 0.930 . S
H347 C306 0.930 . S
H348 C310 0.929 . S
H349 C312 0.930 . S
H350 C318 0.929 . S
H351 C319 0.930 . S
Li352 N369 1.990 . S
Li352 O412 1.956 . S
Li352 O413 1.970 . S
Li352 O414 1.961 . S
Li353 N377 1.990 . S
Li353 O412 1.970 . S
Li353 O413 1.956 . S
Li353 O415 1.961 . S
Li354 N399 1.990 . S
Li354 O412 1.961 . S
Li354 O414 1.956 . S
Li354 O415 1.970 . S
Li355 N405 1.990 . S
Li355 O413 1.961 . S
Li355 O414 1.970 . S
Li355 O415 1.956 . S
C356 C358 1.348 . S
C356 C359 1.356 . S
C356 O412 1.325 . S
N357 C360 1.314 . S
N357 C361 1.279 . S
C358 C356 1.348 . S
C358 C360 1.353 . S
C358 H416 0.929 . S
C359 C356 1.356 . S
C359 C361 1.358 . S
C359 H417 0.930 . S
C360 N357 1.314 . S
C360 C358 1.353 . S
C360 H418 0.930 . S
C361 N357 1.279 . S
C361 C359 1.358 . S
C361 H419 0.930 . S
C362 C365 1.348 . S
C362 C366 1.356 . S
C362 O413 1.325 . S
C363 N364 1.279 . S
C363 C366 1.358 . S
C363 H420 0.930 . S
N364 C363 1.279 . S
N364 C367 1.314 . S
C365 C362 1.348 . S
C365 C367 1.353 . S
C365 H421 0.929 . S
C366 C362 1.356 . S
C366 C363 1.358 . S
C366 H422 0.930 . S
C367 N364 1.314 . S
C367 C365 1.353 . S
C367 H423 0.930 . S
C368 N369 1.314 . S
C368 C373 1.353 . S
C368 H374 0.930 . S
N369 Li352 1.990 . S
N369 C368 1.314 . S
N369 C371 1.279 . S
C370 C371 1.358 . S
C370 C372 1.356 . S
C370 H424 0.930 . S
C371 N369 1.279 . S
C371 C370 1.358 . S
C371 H375 0.930 . S
C372 C370 1.356 . S
C372 C373 1.348 . S
C373 C368 1.353 . S
C373 C372 1.348 . S
C373 H425 0.929 . S
H374 C368 0.930 . S
H375 C371 0.930 . S
C376 N377 1.314 . S
C376 C378 1.353 . S
C376 H382 0.930 . S
N377 Li353 1.990 . S
N377 C376 1.314 . S
N377 C380 1.279 . S
C378 C376 1.353 . S
C378 C381 1.348 . S
C378 H426 0.929 . S
C379 C380 1.358 . S
C379 C381 1.356 . S
C379 H427 0.930 . S
C380 N377 1.279 . S
C380 C379 1.358 . S
C380 H383 0.930 . S
C381 C378 1.348 . S
C381 C379 1.356 . S
H382 C376 0.930 . S
H383 C380 0.930 . S
C384 C386 1.348 . S
C384 C387 1.356 . S
C384 O414 1.325 . S
N385 C388 1.314 . S
N385 C389 1.279 . S
C386 C384 1.348 . S
C386 C388 1.353 . S
C386 H428 0.929 . S
C387 C384 1.356 . S
C387 C389 1.358 . S
C387 H429 0.930 . S
C388 N385 1.314 . S
C388 C386 1.353 . S
C388 H430 0.930 . S
C389 N385 1.279 . S
C389 C387 1.358 . S
C389 H431 0.930 . S
C390 C391 1.348 . S
C390 C392 1.356 . S
C390 O415 1.325 . S
C391 C390 1.348 . S
C391 C393 1.353 . S
C391 H432 0.929 . S
C392 C390 1.356 . S
C392 C394 1.358 . S
C392 H433 0.930 . S
C393 C391 1.353 . S
C393 N395 1.314 . S
C393 H434 0.930 . S
C394 C392 1.358 . S
C394 N395 1.279 . S
C394 H435 0.930 . S
N395 C393 1.314 . S
N395 C394 1.279 . S
C396 C398 1.353 . S
C396 N399 1.314 . S
C396 H402 0.930 . S
C397 N399 1.279 . S
C397 C400 1.358 . S
C397 H403 0.930 . S
C398 C396 1.353 . S
C398 C401 1.348 . S
C398 H436 0.929 . S
N399 Li354 1.990 . S
N399 C396 1.314 . S
N399 C397 1.279 . S
C400 C397 1.358 . S
C400 C401 1.356 . S
C400 H437 0.930 . S
C401 C398 1.348 . S
C401 C400 1.356 . S
H402 C396 0.930 . S
H403 C397 0.930 . S
C404 N405 1.314 . S
C404 C406 1.353 . S
C404 H410 0.930 . S
N405 Li355 1.990 . S
N405 C404 1.314 . S
N405 C408 1.279 . S
C406 C404 1.353 . S
C406 C409 1.348 . S
C406 H438 0.929 . S
C407 C408 1.358 . S
C407 C409 1.356 . S
C407 H439 0.930 . S
C408 N405 1.279 . S
C408 C407 1.358 . S
C408 H411 0.930 . S
C409 C406 1.348 . S
C409 C407 1.356 . S
H410 C404 0.930 . S
H411 C408 0.930 . S
O412 Li352 1.956 . S
O412 Li353 1.970 . S
O412 Li354 1.961 . S
O412 C356 1.325 . S
O413 Li352 1.970 . S
O413 Li353 1.956 . S
O413 Li355 1.961 . S
O413 C362 1.325 . S
O414 Li352 1.961 . S
O414 Li354 1.956 . S
O414 Li355 1.970 . S
O414 C384 1.325 . S
O415 Li353 1.961 . S
O415 Li354 1.970 . S
O415 Li355 1.956 . S
O415 C390 1.325 . S
H416 C358 0.929 . S
H417 C359 0.930 . S
H418 C360 0.930 . S
H419 C361 0.930 . S
H420 C363 0.930 . S
H421 C365 0.929 . S
H422 C366 0.930 . S
H423 C367 0.930 . S
H424 C370 0.930 . S
H425 C373 0.929 . S
H426 C378 0.929 . S
H427 C379 0.930 . S
H428 C386 0.929 . S
H429 C387 0.930 . S
H430 C388 0.930 . S
H431 C389 0.930 . S
H432 C391 0.929 . S
H433 C392 0.930 . S
H434 C393 0.930 . S
H435 C394 0.930 . S
H436 C398 0.929 . S
H437 C400 0.930 . S
H438 C406 0.929 . S
H439 C407 0.930 . S
Li440 N457 1.990 . S
Li440 O500 1.956 . S
Li440 O501 1.970 . S
Li440 O502 1.961 . S
Li441 N465 1.990 . S
Li441 O500 1.970 . S
Li441 O501 1.956 . S
Li441 O503 1.961 . S
Li442 N487 1.990 . S
Li442 O500 1.961 . S
Li442 O502 1.956 . S
Li442 O503 1.970 . S
Li443 N493 1.990 . S
Li443 O501 1.961 . S
Li443 O502 1.970 . S
Li443 O503 1.956 . S
C444 C446 1.348 . S
C444 C447 1.356 . S
C444 O500 1.325 . S
N445 C448 1.314 . S
N445 C449 1.279 . S
C446 C444 1.348 . S
C446 C448 1.353 . S
C446 H504 0.929 . S
C447 C444 1.356 . S
C447 C449 1.358 . S
C447 H505 0.930 . S
C448 N445 1.314 . S
C448 C446 1.353 . S
C448 H506 0.930 . S
C449 N445 1.279 . S
C449 C447 1.358 . S
C449 H507 0.930 . S
C450 C453 1.348 . S
C450 C454 1.356 . S
C450 O501 1.325 . S
C451 N452 1.279 . S
C451 C454 1.358 . S
C451 H508 0.930 . S
N452 C451 1.279 . S
N452 C455 1.314 . S
C453 C450 1.348 . S
C453 C455 1.353 . S
C453 H509 0.929 . S
C454 C450 1.356 . S
C454 C451 1.358 . S
C454 H510 0.930 . S
C455 N452 1.314 . S
C455 C453 1.353 . S
C455 H511 0.930 . S
C456 N457 1.314 . S
C456 C461 1.353 . S
C456 H462 0.930 . S
N457 Li440 1.990 . S
N457 C456 1.314 . S
N457 C459 1.279 . S
C458 C459 1.358 . S
C458 C460 1.356 . S
C458 H512 0.930 . S
C459 N457 1.279 . S
C459 C458 1.358 . S
C459 H463 0.930 . S
C460 C458 1.356 . S
C460 C461 1.348 . S
C461 C456 1.353 . S
C461 C460 1.348 . S
C461 H513 0.929 . S
H462 C456 0.930 . S
H463 C459 0.930 . S
C464 N465 1.314 . S
C464 C466 1.353 . S
C464 H470 0.930 . S
N465 Li441 1.990 . S
N465 C464 1.314 . S
N465 C468 1.279 . S
C466 C464 1.353 . S
C466 C469 1.348 . S
C466 H514 0.929 . S
C467 C468 1.358 . S
C467 C469 1.356 . S
C467 H515 0.930 . S
C468 N465 1.279 . S
C468 C467 1.358 . S
C468 H471 0.930 . S
C469 C466 1.348 . S
C469 C467 1.356 . S
H470 C464 0.930 . S
H471 C468 0.930 . S
C472 C474 1.348 . S
C472 C475 1.356 . S
C472 O502 1.325 . S
N473 C476 1.314 . S
N473 C477 1.279 . S
C474 C472 1.348 . S
C474 C476 1.353 . S
C474 H516 0.929 . S
C475 C472 1.356 . S
C475 C477 1.358 . S
C475 H517 0.930 . S
C476 N473 1.314 . S
C476 C474 1.353 . S
C476 H518 0.930 . S
C477 N473 1.279 . S
C477 C475 1.358 . S
C477 H519 0.930 . S
C478 C479 1.348 . S
C478 C480 1.356 . S
C478 O503 1.325 . S
C479 C478 1.348 . S
C479 C481 1.353 . S
C479 H520 0.929 . S
C480 C478 1.356 . S
C480 C482 1.358 . S
C480 H521 0.930 . S
C481 C479 1.353 . S
C481 N483 1.314 . S
C481 H522 0.930 . S
C482 C480 1.358 . S
C482 N483 1.279 . S
C482 H523 0.930 . S
N483 C481 1.314 . S
N483 C482 1.279 . S
C484 C486 1.353 . S
C484 N487 1.314 . S
C484 H490 0.930 . S
C485 N487 1.279 . S
C485 C488 1.358 . S
C485 H491 0.930 . S
C486 C484 1.353 . S
C486 C489 1.348 . S
C486 H524 0.929 . S
N487 Li442 1.990 . S
N487 C484 1.314 . S
N487 C485 1.279 . S
C488 C485 1.358 . S
C488 C489 1.356 . S
C488 H525 0.930 . S
C489 C486 1.348 . S
C489 C488 1.356 . S
H490 C484 0.930 . S
H491 C485 0.930 . S
C492 N493 1.314 . S
C492 C494 1.353 . S
C492 H498 0.930 . S
N493 Li443 1.990 . S
N493 C492 1.314 . S
N493 C496 1.279 . S
C494 C492 1.353 . S
C494 C497 1.348 . S
C494 H526 0.929 . S
C495 C496 1.358 . S
C495 C497 1.356 . S
C495 H527 0.930 . S
C496 N493 1.279 . S
C496 C495 1.358 . S
C496 H499 0.930 . S
C497 C494 1.348 . S
C497 C495 1.356 . S
H498 C492 0.930 . S
H499 C496 0.930 . S
O500 Li440 1.956 . S
O500 Li441 1.970 . S
O500 Li442 1.961 . S
O500 C444 1.325 . S
O501 Li440 1.970 . S
O501 Li441 1.956 . S
O501 Li443 1.961 . S
O501 C450 1.325 . S
O502 Li440 1.961 . S
O502 Li442 1.956 . S
O502 Li443 1.970 . S
O502 C472 1.325 . S
O503 Li441 1.961 . S
O503 Li442 1.970 . S
O503 Li443 1.956 . S
O503 C478 1.325 . S
H504 C446 0.929 . S
H505 C447 0.930 . S
H506 C448 0.930 . S
H507 C449 0.930 . S
H508 C451 0.930 . S
H509 C453 0.929 . S
H510 C454 0.930 . S
H511 C455 0.930 . S
H512 C458 0.930 . S
H513 C461 0.929 . S
H514 C466 0.929 . S
H515 C467 0.930 . S
H516 C474 0.929 . S
H517 C475 0.930 . S
H518 C476 0.930 . S
H519 C477 0.930 . S
H520 C479 0.929 . S
H521 C480 0.930 . S
H522 C481 0.930 . S
H523 C482 0.930 . S
H524 C486 0.929 . S
H525 C488 0.930 . S
H526 C494 0.929 . S
H527 C495 0.930 . S
Li528 N545 1.990 . S
Li528 O588 1.956 . S
Li528 O589 1.970 . S
Li528 O590 1.961 . S
Li529 N553 1.990 . S
Li529 O588 1.970 . S
Li529 O589 1.956 . S
Li529 O591 1.961 . S
Li530 N575 1.990 . S
Li530 O588 1.961 . S
Li530 O590 1.956 . S
Li530 O591 1.970 . S
Li531 N581 1.990 . S
Li531 O589 1.961 . S
Li531 O590 1.970 . S
Li531 O591 1.956 . S
C532 C534 1.348 . S
C532 C535 1.356 . S
C532 O588 1.325 . S
N533 C536 1.314 . S
N533 C537 1.279 . S
C534 C532 1.348 . S
C534 C536 1.353 . S
C534 H592 0.929 . S
C535 C532 1.356 . S
C535 C537 1.358 . S
C535 H593 0.930 . S
C536 N533 1.314 . S
C536 C534 1.353 . S
C536 H594 0.930 . S
C537 N533 1.279 . S
C537 C535 1.358 . S
C537 H595 0.930 . S
C538 C541 1.348 . S
C538 C542 1.356 . S
C538 O589 1.325 . S
C539 N540 1.279 . S
C539 C542 1.358 . S
C539 H596 0.930 . S
N540 C539 1.279 . S
N540 C543 1.314 . S
C541 C538 1.348 . S
C541 C543 1.353 . S
C541 H597 0.929 . S
C542 C538 1.356 . S
C542 C539 1.358 . S
C542 H598 0.930 . S
C543 N540 1.314 . S
C543 C541 1.353 . S
C543 H599 0.930 . S
C544 N545 1.314 . S
C544 C549 1.353 . S
C544 H550 0.930 . S
N545 Li528 1.990 . S
N545 C544 1.314 . S
N545 C547 1.279 . S
C546 C547 1.358 . S
C546 C548 1.356 . S
C546 H600 0.930 . S
C547 N545 1.279 . S
C547 C546 1.358 . S
C547 H551 0.930 . S
C548 C546 1.356 . S
C548 C549 1.348 . S
C549 C544 1.353 . S
C549 C548 1.348 . S
C549 H601 0.929 . S
H550 C544 0.930 . S
H551 C547 0.930 . S
C552 N553 1.314 . S
C552 C554 1.353 . S
C552 H558 0.930 . S
N553 Li529 1.990 . S
N553 C552 1.314 . S
N553 C556 1.279 . S
C554 C552 1.353 . S
C554 C557 1.348 . S
C554 H602 0.929 . S
C555 C556 1.358 . S
C555 C557 1.356 . S
C555 H603 0.930 . S
C556 N553 1.279 . S
C556 C555 1.358 . S
C556 H559 0.930 . S
C557 C554 1.348 . S
C557 C555 1.356 . S
H558 C552 0.930 . S
H559 C556 0.930 . S
C560 C562 1.348 . S
C560 C563 1.356 . S
C560 O590 1.325 . S
N561 C564 1.314 . S
N561 C565 1.279 . S
C562 C560 1.348 . S
C562 C564 1.353 . S
C562 H604 0.929 . S
C563 C560 1.356 . S
C563 C565 1.358 . S
C563 H605 0.930 . S
C564 N561 1.314 . S
C564 C562 1.353 . S
C564 H606 0.930 . S
C565 N561 1.279 . S
C565 C563 1.358 . S
C565 H607 0.930 . S
C566 C567 1.348 . S
C566 C568 1.356 . S
C566 O591 1.325 . S
C567 C566 1.348 . S
C567 C569 1.353 . S
C567 H608 0.929 . S
C568 C566 1.356 . S
C568 C570 1.358 . S
C568 H609 0.930 . S
C569 C567 1.353 . S
C569 N571 1.314 . S
C569 H610 0.930 . S
C570 C568 1.358 . S
C570 N571 1.279 . S
C570 H611 0.930 . S
N571 C569 1.314 . S
N571 C570 1.279 . S
C572 C574 1.353 . S
C572 N575 1.314 . S
C572 H578 0.930 . S
C573 N575 1.279 . S
C573 C576 1.358 . S
C573 H579 0.930 . S
C574 C572 1.353 . S
C574 C577 1.348 . S
C574 H612 0.929 . S
N575 Li530 1.990 . S
N575 C572 1.314 . S
N575 C573 1.279 . S
C576 C573 1.358 . S
C576 C577 1.356 . S
C576 H613 0.930 . S
C577 C574 1.348 . S
C577 C576 1.356 . S
H578 C572 0.930 . S
H579 C573 0.930 . S
C580 N581 1.314 . S
C580 C582 1.353 . S
C580 H586 0.930 . S
N581 Li531 1.990 . S
N581 C580 1.314 . S
N581 C584 1.279 . S
C582 C580 1.353 . S
C582 C585 1.348 . S
C582 H614 0.929 . S
C583 C584 1.358 . S
C583 C585 1.356 . S
C583 H615 0.930 . S
C584 N581 1.279 . S
C584 C583 1.358 . S
C584 H587 0.930 . S
C585 C582 1.348 . S
C585 C583 1.356 . S
H586 C580 0.930 . S
H587 C584 0.930 . S
O588 Li528 1.956 . S
O588 Li529 1.970 . S
O588 Li530 1.961 . S
O588 C532 1.325 . S
O589 Li528 1.970 . S
O589 Li529 1.956 . S
O589 Li531 1.961 . S
O589 C538 1.325 . S
O590 Li528 1.961 . S
O590 Li530 1.956 . S
O590 Li531 1.970 . S
O590 C560 1.325 . S
O591 Li529 1.961 . S
O591 Li530 1.970 . S
O591 Li531 1.956 . S
O591 C566 1.325 . S
H592 C534 0.929 . S
H593 C535 0.930 . S
H594 C536 0.930 . S
H595 C537 0.930 . S
H596 C539 0.930 . S
H597 C541 0.929 . S
H598 C542 0.930 . S
H599 C543 0.930 . S
H600 C546 0.930 . S
H601 C549 0.929 . S
H602 C554 0.929 . S
H603 C555 0.930 . S
H604 C562 0.929 . S
H605 C563 0.930 . S
H606 C564 0.930 . S
H607 C565 0.930 . S
H608 C567 0.929 . S
H609 C568 0.930 . S
H610 C569 0.930 . S
H611 C570 0.930 . S
H612 C574 0.929 . S
H613 C576 0.930 . S
H614 C582 0.929 . S
H615 C583 0.930 . S
Li616 N633 1.990 . S
Li616 O676 1.956 . S
Li616 O677 1.970 . S
Li616 O678 1.961 . S
Li617 N641 1.990 . S
Li617 O676 1.970 . S
Li617 O677 1.956 . S
Li617 O679 1.961 . S
Li618 N663 1.990 . S
Li618 O676 1.961 . S
Li618 O678 1.956 . S
Li618 O679 1.970 . S
Li619 N669 1.990 . S
Li619 O677 1.961 . S
Li619 O678 1.970 . S
Li619 O679 1.956 . S
C620 C622 1.348 . S
C620 C623 1.356 . S
C620 O676 1.325 . S
N621 C624 1.314 . S
N621 C625 1.279 . S
C622 C620 1.348 . S
C622 C624 1.353 . S
C622 H680 0.929 . S
C623 C620 1.356 . S
C623 C625 1.358 . S
C623 H681 0.930 . S
C624 N621 1.314 . S
C624 C622 1.353 . S
C624 H682 0.930 . S
C625 N621 1.279 . S
C625 C623 1.358 . S
C625 H683 0.930 . S
C626 C629 1.348 . S
C626 C630 1.356 . S
C626 O677 1.325 . S
C627 N628 1.279 . S
C627 C630 1.358 . S
C627 H684 0.930 . S
N628 C627 1.279 . S
N628 C631 1.314 . S
C629 C626 1.348 . S
C629 C631 1.353 . S
C629 H685 0.929 . S
C630 C626 1.356 . S
C630 C627 1.358 . S
C630 H686 0.930 . S
C631 N628 1.314 . S
C631 C629 1.353 . S
C631 H687 0.930 . S
C632 N633 1.314 . S
C632 C637 1.353 . S
C632 H638 0.930 . S
N633 Li616 1.990 . S
N633 C632 1.314 . S
N633 C635 1.279 . S
C634 C635 1.358 . S
C634 C636 1.356 . S
C634 H688 0.930 . S
C635 N633 1.279 . S
C635 C634 1.358 . S
C635 H639 0.930 . S
C636 C634 1.356 . S
C636 C637 1.348 . S
C637 C632 1.353 . S
C637 C636 1.348 . S
C637 H689 0.929 . S
H638 C632 0.930 . S
H639 C635 0.930 . S
C640 N641 1.314 . S
C640 C642 1.353 . S
C640 H646 0.930 . S
N641 Li617 1.990 . S
N641 C640 1.314 . S
N641 C644 1.279 . S
C642 C640 1.353 . S
C642 C645 1.348 . S
C642 H690 0.929 . S
C643 C644 1.358 . S
C643 C645 1.356 . S
C643 H691 0.930 . S
C644 N641 1.279 . S
C644 C643 1.358 . S
C644 H647 0.930 . S
C645 C642 1.348 . S
C645 C643 1.356 . S
H646 C640 0.930 . S
H647 C644 0.930 . S
C648 C650 1.348 . S
C648 C651 1.356 . S
C648 O678 1.325 . S
N649 C652 1.314 . S
N649 C653 1.279 . S
C650 C648 1.348 . S
C650 C652 1.353 . S
C650 H692 0.929 . S
C651 C648 1.356 . S
C651 C653 1.358 . S
C651 H693 0.930 . S
C652 N649 1.314 . S
C652 C650 1.353 . S
C652 H694 0.930 . S
C653 N649 1.279 . S
C653 C651 1.358 . S
C653 H695 0.930 . S
C654 C655 1.348 . S
C654 C656 1.356 . S
C654 O679 1.325 . S
C655 C654 1.348 . S
C655 C657 1.353 . S
C655 H696 0.929 . S
C656 C654 1.356 . S
C656 C658 1.358 . S
C656 H697 0.930 . S
C657 C655 1.353 . S
C657 N659 1.314 . S
C657 H698 0.930 . S
C658 C656 1.358 . S
C658 N659 1.279 . S
C658 H699 0.930 . S
N659 C657 1.314 . S
N659 C658 1.279 . S
C660 C662 1.353 . S
C660 N663 1.314 . S
C660 H666 0.930 . S
C661 N663 1.279 . S
C661 C664 1.358 . S
C661 H667 0.930 . S
C662 C660 1.353 . S
C662 C665 1.348 . S
C662 H700 0.929 . S
N663 Li618 1.990 . S
N663 C660 1.314 . S
N663 C661 1.279 . S
C664 C661 1.358 . S
C664 C665 1.356 . S
C664 H701 0.930 . S
C665 C662 1.348 . S
C665 C664 1.356 . S
H666 C660 0.930 . S
H667 C661 0.930 . S
C668 N669 1.314 . S
C668 C670 1.353 . S
C668 H674 0.930 . S
N669 Li619 1.990 . S
N669 C668 1.314 . S
N669 C672 1.279 . S
C670 C668 1.353 . S
C670 C673 1.348 . S
C670 H702 0.929 . S
C671 C672 1.358 . S
C671 C673 1.356 . S
C671 H703 0.930 . S
C672 N669 1.279 . S
C672 C671 1.358 . S
C672 H675 0.930 . S
C673 C670 1.348 . S
C673 C671 1.356 . S
H674 C668 0.930 . S
H675 C672 0.930 . S
O676 Li616 1.956 . S
O676 Li617 1.970 . S
O676 Li618 1.961 . S
O676 C620 1.325 . S
O677 Li616 1.970 . S
O677 Li617 1.956 . S
O677 Li619 1.961 . S
O677 C626 1.325 . S
O678 Li616 1.961 . S
O678 Li618 1.956 . S
O678 Li619 1.970 . S
O678 C648 1.325 . S
O679 Li617 1.961 . S
O679 Li618 1.970 . S
O679 Li619 1.956 . S
O679 C654 1.325 . S
H680 C622 0.929 . S
H681 C623 0.930 . S
H682 C624 0.930 . S
H683 C625 0.930 . S
H684 C627 0.930 . S
H685 C629 0.929 . S
H686 C630 0.930 . S
H687 C631 0.930 . S
H688 C634 0.930 . S
H689 C637 0.929 . S
H690 C642 0.929 . S
H691 C643 0.930 . S
H692 C650 0.929 . S
H693 C651 0.930 . S
H694 C652 0.930 . S
H695 C653 0.930 . S
H696 C655 0.929 . S
H697 C656 0.930 . S
H698 C657 0.930 . S
H699 C658 0.930 . S
H700 C662 0.929 . S
H701 C664 0.930 . S
H702 C670 0.929 . S
H703 C671 0.930 . S
Li704 N721 1.990 . S
Li704 O764 1.956 . S
Li704 O765 1.970 . S
Li704 O766 1.961 . S
Li705 N729 1.990 . S
Li705 O764 1.970 . S
Li705 O765 1.956 . S
Li705 O767 1.961 . S
Li706 N751 1.990 . S
Li706 O764 1.961 . S
Li706 O766 1.956 . S
Li706 O767 1.970 . S
Li707 N757 1.990 . S
Li707 O765 1.961 . S
Li707 O766 1.970 . S
Li707 O767 1.956 . S
C708 C710 1.348 . S
C708 C711 1.356 . S
C708 O764 1.325 . S
N709 C712 1.314 . S
N709 C713 1.279 . S
C710 C708 1.348 . S
C710 C712 1.353 . S
C710 H768 0.929 . S
C711 C708 1.356 . S
C711 C713 1.358 . S
C711 H769 0.930 . S
C712 N709 1.314 . S
C712 C710 1.353 . S
C712 H770 0.930 . S
C713 N709 1.279 . S
C713 C711 1.358 . S
C713 H771 0.930 . S
C714 C717 1.348 . S
C714 C718 1.356 . S
C714 O765 1.325 . S
C715 N716 1.279 . S
C715 C718 1.358 . S
C715 H772 0.930 . S
N716 C715 1.279 . S
N716 C719 1.314 . S
C717 C714 1.348 . S
C717 C719 1.353 . S
C717 H773 0.929 . S
C718 C714 1.356 . S
C718 C715 1.358 . S
C718 H774 0.930 . S
C719 N716 1.314 . S
C719 C717 1.353 . S
C719 H775 0.869 1_565 S
C720 N721 1.314 . S
C720 C725 1.353 1_565 S
C720 H726 0.930 . S
N721 Li704 1.990 . S
N721 C720 1.314 . S
N721 C723 1.278 . S
C722 C723 1.359 1_545 S
C722 C724 1.356 . S
C722 H776 0.930 . S
C723 N721 1.278 . S
C723 C722 1.359 1_565 S
C723 H727 0.930 . S
C724 C722 1.356 . S
C724 C725 1.348 . S
C725 C720 1.353 1_545 S
C725 C724 1.348 . S
C725 H777 0.929 . S
H726 C720 0.930 . S
H727 C723 0.930 . S
C728 N729 1.314 . S
C728 C730 1.353 . S
C728 H734 0.930 . S
N729 Li705 1.990 . S
N729 C728 1.314 . S
N729 C732 1.279 . S
C730 C728 1.353 . S
C730 C733 1.348 . S
C730 H778 0.929 . S
C731 C732 1.358 . S
C731 C733 1.356 . S
C731 H779 0.930 . S
C732 N729 1.279 . S
C732 C731 1.358 . S
C732 H735 0.930 . S
C733 C730 1.348 . S
C733 C731 1.356 . S
H734 C728 0.930 . S
H735 C732 0.930 . S
C736 C738 1.348 . S
C736 C739 1.356 . S
C736 O766 1.325 . S
N737 C740 1.314 . S
N737 C741 1.279 . S
C738 C736 1.348 . S
C738 C740 1.353 . S
C738 H780 0.929 . S
C739 C736 1.356 . S
C739 C741 1.358 . S
C739 H781 0.930 . S
C740 N737 1.314 . S
C740 C738 1.353 . S
C740 H782 0.930 . S
C741 N737 1.279 . S
C741 C739 1.358 . S
C741 H783 0.930 . S
C742 C743 1.348 . S
C742 C744 1.356 . S
C742 O767 1.325 . S
C743 C742 1.348 . S
C743 C745 1.353 . S
C743 H784 0.929 . S
C744 C742 1.356 . S
C744 C746 1.358 . S
C744 H785 0.930 . S
C745 C743 1.353 . S
C745 N747 1.314 . S
C745 H786 0.930 . S
C746 C744 1.358 . S
C746 N747 1.279 . S
C746 H787 0.930 . S
N747 C745 1.314 . S
N747 C746 1.279 . S
C748 C750 1.353 . S
C748 N751 1.314 . S
C748 H754 0.930 . S
C749 N751 1.279 . S
C749 C752 1.358 . S
C749 H755 0.930 . S
C750 C748 1.353 . S
C750 C753 1.348 . S
C750 H788 0.929 . S
N751 Li706 1.990 . S
N751 C748 1.314 . S
N751 C749 1.279 . S
C752 C749 1.358 . S
C752 C753 1.356 . S
C752 H789 0.930 . S
C753 C750 1.348 . S
C753 C752 1.356 . S
H754 C748 0.930 . S
H755 C749 0.930 . S
C756 N757 1.314 . S
C756 C758 1.353 . S
C756 H762 0.930 . S
N757 Li707 1.990 . S
N757 C756 1.314 . S
N757 C760 1.279 . S
C758 C756 1.353 . S
C758 C761 1.348 . S
C758 H790 0.929 . S
C759 C760 1.358 . S
C759 C761 1.356 . S
C759 H791 0.930 . S
C760 N757 1.279 . S
C760 C759 1.358 . S
C760 H763 0.930 . S
C761 C758 1.348 . S
C761 C759 1.356 . S
H762 C756 0.930 . S
H763 C760 0.930 . S
O764 Li704 1.956 . S
O764 Li705 1.970 . S
O764 Li706 1.961 . S
O764 C708 1.325 . S
O765 Li704 1.970 . S
O765 Li705 1.956 . S
O765 Li707 1.961 . S
O765 C714 1.325 . S
O766 Li704 1.961 . S
O766 Li706 1.956 . S
O766 Li707 1.970 . S
O766 C736 1.325 . S
O767 Li705 1.961 . S
O767 Li706 1.970 . S
O767 Li707 1.956 . S
O767 C742 1.325 . S
H768 C710 0.929 . S
H769 C711 0.930 . S
H770 C712 0.930 . S
H771 C713 0.930 . S
H772 C715 0.930 . S
H773 C717 0.929 . S
H774 C718 0.930 . S
H775 C719 0.869 1_545 S
H776 C722 0.930 . S
H777 C725 0.929 . S
H778 C730 0.929 . S
H779 C731 0.930 . S
H780 C738 0.929 . S
H781 C739 0.930 . S
H782 C740 0.930 . S
H783 C741 0.930 . S
H784 C743 0.929 . S
H785 C744 0.930 . S
H786 C745 0.930 . S
H787 C746 0.930 . S
H788 C750 0.929 . S
H789 C752 0.930 . S
H790 C758 0.929 . S
H791 C759 0.930 . S
Li792 N809 1.990 . S
Li792 O852 1.956 . S
Li792 O853 1.970 . S
Li792 O854 1.961 . S
Li793 N817 1.990 . S
Li793 O852 1.970 . S
Li793 O853 1.956 . S
Li793 O855 1.961 . S
Li794 N839 1.990 . S
Li794 O852 1.961 . S
Li794 O854 1.956 . S
Li794 O855 1.970 . S
Li795 N845 1.990 . S
Li795 O853 1.961 . S
Li795 O854 1.970 . S
Li795 O855 1.956 . S
C796 C798 1.348 . S
C796 C799 1.356 . S
C796 O852 1.325 . S
N797 C800 1.314 . S
N797 C801 1.279 . S
C798 C796 1.348 . S
C798 C800 1.353 . S
C798 H856 0.929 . S
C799 C796 1.356 . S
C799 C801 1.358 . S
C799 H857 0.930 . S
C800 N797 1.314 . S
C800 C798 1.353 . S
C800 H858 0.930 . S
C801 N797 1.279 . S
C801 C799 1.358 . S
C801 H859 0.930 . S
C802 C805 1.348 . S
C802 C806 1.356 . S
C802 O853 1.325 . S
C803 N804 1.279 . S
C803 C806 1.358 . S
C803 H860 0.930 . S
N804 C803 1.279 . S
N804 C807 1.314 . S
C805 C802 1.348 . S
C805 C807 1.353 . S
C805 H861 0.929 . S
C806 C802 1.356 . S
C806 C803 1.358 . S
C806 H862 0.930 . S
C807 N804 1.314 . S
C807 C805 1.353 . S
C807 H863 0.930 . S
C808 N809 1.314 . S
C808 C813 1.353 . S
C808 H814 0.930 . S
N809 Li792 1.990 . S
N809 C808 1.314 . S
N809 C811 1.279 . S
C810 C811 1.358 . S
C810 C812 1.356 . S
C810 H864 0.930 . S
C811 N809 1.279 . S
C811 C810 1.358 . S
C811 H815 0.930 . S
C812 C810 1.356 . S
C812 C813 1.348 . S
C813 C808 1.353 . S
C813 C812 1.348 . S
C813 H865 0.929 . S
H814 C808 0.930 . S
H815 C811 0.930 . S
C816 N817 1.292 1_455 S
C816 C818 1.375 . S
C816 H822 0.929 . S
N817 Li793 1.990 . S
N817 C816 1.292 1_655 S
N817 C820 1.279 . S
C818 C816 1.375 . S
C818 C821 1.348 . S
C818 H866 0.929 . S
C819 C820 1.305 1_455 S
C819 C821 1.414 . S
C819 H867 0.928 . S
C820 N817 1.279 . S
C820 C819 1.305 1_655 S
C820 H823 0.930 . S
C821 C818 1.348 . S
C821 C819 1.414 . S
H822 C816 0.929 . S
H823 C820 0.930 . S
C824 C826 1.348 . S
C824 C827 1.356 . S
C824 O854 1.325 . S
N825 C828 1.314 . S
N825 C829 1.279 . S
C826 C824 1.348 . S
C826 C828 1.353 . S
C826 H868 0.929 . S
C827 C824 1.356 . S
C827 C829 1.358 . S
C827 H869 0.930 . S
C828 N825 1.314 . S
C828 C826 1.353 . S
C828 H870 0.930 . S
C829 N825 1.279 . S
C829 C827 1.358 . S
C829 H871 0.930 . S
C830 C831 1.348 . S
C830 C832 1.356 . S
C830 O855 1.325 . S
C831 C830 1.348 . S
C831 C833 1.353 . S
C831 H872 0.929 . S
C832 C830 1.356 . S
C832 C834 1.358 . S
C832 H873 0.930 . S
C833 C831 1.353 . S
C833 N835 1.314 . S
C833 H874 0.930 . S
C834 C832 1.358 . S
C834 N835 1.279 . S
C834 H875 0.930 . S
N835 C833 1.314 . S
N835 C834 1.279 . S
C836 C838 1.353 . S
C836 N839 1.314 . S
C836 H842 0.930 . S
C837 N839 1.279 . S
C837 C840 1.358 . S
C837 H843 0.930 . S
C838 C836 1.353 . S
C838 C841 1.348 . S
C838 H876 0.929 . S
N839 Li794 1.990 . S
N839 C836 1.314 . S
N839 C837 1.279 . S
C840 C837 1.358 . S
C840 C841 1.356 . S
C840 H877 0.930 . S
C841 C838 1.348 . S
C841 C840 1.356 . S
H842 C836 0.930 . S
H843 C837 0.930 . S
C844 N845 1.314 . S
C844 C846 1.353 . S
C844 H850 0.930 . S
N845 Li795 1.990 . S
N845 C844 1.314 . S
N845 C848 1.279 . S
C846 C844 1.353 . S
C846 C849 1.348 . S
C846 H878 0.929 . S
C847 C848 1.358 . S
C847 C849 1.356 . S
C847 H879 0.930 . S
C848 N845 1.279 . S
C848 C847 1.358 . S
C848 H851 0.930 . S
C849 C846 1.348 . S
C849 C847 1.356 . S
H850 C844 0.930 . S
H851 C848 0.930 . S
O852 Li792 1.956 . S
O852 Li793 1.970 . S
O852 Li794 1.961 . S
O852 C796 1.325 . S
O853 Li792 1.970 . S
O853 Li793 1.956 . S
O853 Li795 1.961 . S
O853 C802 1.325 . S
O854 Li792 1.961 . S
O854 Li794 1.956 . S
O854 Li795 1.970 . S
O854 C824 1.325 . S
O855 Li793 1.961 . S
O855 Li794 1.970 . S
O855 Li795 1.956 . S
O855 C830 1.325 . S
H856 C798 0.929 . S
H857 C799 0.930 . S
H858 C800 0.930 . S
H859 C801 0.930 . S
H860 C803 0.930 . S
H861 C805 0.929 . S
H862 C806 0.930 . S
H863 C807 0.930 . S
H864 C810 0.930 . S
H865 C813 0.929 . S
H866 C818 0.929 . S
H867 C819 0.928 . S
H868 C826 0.929 . S
H869 C827 0.930 . S
H870 C828 0.930 . S
H871 C829 0.930 . S
H872 C831 0.929 . S
H873 C832 0.930 . S
H874 C833 0.930 . S
H875 C834 0.930 . S
H876 C838 0.929 . S
H877 C840 0.930 . S
H878 C846 0.929 . S
H879 C847 0.930 . S
Li880 N897 1.990 . S
Li880 O940 1.956 . S
Li880 O941 1.970 . S
Li880 O942 1.961 . S
Li881 N905 1.990 . S
Li881 O940 1.970 . S
Li881 O941 1.956 . S
Li881 O943 1.961 . S
Li882 N927 1.990 . S
Li882 O940 1.961 . S
Li882 O942 1.956 . S
Li882 O943 1.970 . S
Li883 N933 1.990 . S
Li883 O941 1.961 . S
Li883 O942 1.970 . S
Li883 O943 1.956 . S
C884 C886 1.348 . S
C884 C887 1.356 . S
C884 O940 1.325 . S
N885 C888 1.314 . S
N885 C889 1.279 . S
C886 C884 1.348 . S
C886 C888 1.353 . S
C886 H944 0.929 . S
C887 C884 1.356 . S
C887 C889 1.358 . S
C887 H945 0.930 . S
C888 N885 1.314 . S
C888 C886 1.353 . S
C888 H946 0.930 . S
C889 N885 1.279 . S
C889 C887 1.358 . S
C889 H947 0.930 . S
C890 C893 1.348 . S
C890 C894 1.356 . S
C890 O941 1.325 . S
C891 N892 1.279 . S
C891 C894 1.358 . S
C891 H948 0.930 . S
N892 C891 1.279 . S
N892 C895 1.314 . S
C893 C890 1.348 . S
C893 C895 1.353 . S
C893 H949 0.929 . S
C894 C890 1.356 . S
C894 C891 1.358 . S
C894 H950 0.930 . S
C895 N892 1.314 . S
C895 C893 1.353 . S
C895 H951 0.930 . S
C896 N897 1.314 . S
C896 C901 1.353 . S
C896 H902 0.930 . S
N897 Li880 1.990 . S
N897 C896 1.314 . S
N897 C899 1.279 . S
C898 C899 1.358 . S
C898 C900 1.356 . S
C898 H952 0.930 . S
C899 N897 1.279 . S
C899 C898 1.358 . S
C899 H903 0.930 . S
C900 C898 1.356 . S
C900 C901 1.348 . S
C901 C896 1.353 . S
C901 C900 1.348 . S
C901 H953 0.929 . S
H902 C896 0.930 . S
H903 C899 0.930 . S
C904 N905 1.314 . S
C904 C906 1.353 . S
C904 H910 0.930 . S
N905 Li881 1.990 . S
N905 C904 1.314 . S
N905 C908 1.279 . S
C906 C904 1.353 . S
C906 C909 1.348 . S
C906 H954 0.929 . S
C907 C908 1.358 . S
C907 C909 1.356 . S
C907 H955 0.930 . S
C908 N905 1.279 . S
C908 C907 1.358 . S
C908 H911 0.930 . S
C909 C906 1.348 . S
C909 C907 1.356 . S
H910 C904 0.930 . S
H911 C908 0.930 . S
C912 C914 1.348 . S
C912 C915 1.356 . S
C912 O942 1.325 . S
N913 C916 1.314 . S
N913 C917 1.279 . S
C914 C912 1.348 . S
C914 C916 1.353 . S
C914 H956 0.929 . S
C915 C912 1.356 . S
C915 C917 1.358 . S
C915 H957 0.930 . S
C916 N913 1.314 . S
C916 C914 1.353 . S
C916 H958 0.930 . S
C917 N913 1.279 . S
C917 C915 1.358 . S
C917 H959 0.930 . S
C918 C919 1.348 . S
C918 C920 1.356 . S
C918 O943 1.325 . S
C919 C918 1.348 . S
C919 C921 1.353 . S
C919 H960 0.929 . S
C920 C918 1.356 . S
C920 C922 1.358 . S
C920 H961 0.930 . S
C921 C919 1.353 . S
C921 N923 1.314 . S
C921 H962 0.868 1_545 S
C922 C920 1.358 . S
C922 N923 1.279 . S
C922 H963 0.930 . S
N923 C921 1.314 . S
N923 C922 1.279 . S
C924 C926 1.353 1_545 S
C924 N927 1.314 . S
C924 H930 0.930 . S
C925 N927 1.278 . S
C925 C928 1.360 1_545 S
C925 H931 0.930 . S
C926 C924 1.353 1_565 S
C926 C929 1.348 . S
C926 H964 0.929 . S
N927 Li882 1.990 . S
N927 C924 1.314 . S
N927 C925 1.278 . S
C928 C925 1.360 1_565 S
C928 C929 1.356 . S
C928 H965 0.930 . S
C929 C926 1.348 . S
C929 C928 1.356 . S
H930 C924 0.930 . S
H931 C925 0.930 . S
C932 N933 1.314 . S
C932 C934 1.353 . S
C932 H938 0.930 . S
N933 Li883 1.990 . S
N933 C932 1.314 . S
N933 C936 1.279 . S
C934 C932 1.353 . S
C934 C937 1.348 . S
C934 H966 0.929 . S
C935 C936 1.358 . S
C935 C937 1.356 . S
C935 H967 0.930 . S
C936 N933 1.279 . S
C936 C935 1.358 . S
C936 H939 0.930 . S
C937 C934 1.348 . S
C937 C935 1.356 . S
H938 C932 0.930 . S
H939 C936 0.930 . S
O940 Li880 1.956 . S
O940 Li881 1.970 . S
O940 Li882 1.961 . S
O940 C884 1.325 . S
O941 Li880 1.970 . S
O941 Li881 1.956 . S
O941 Li883 1.961 . S
O941 C890 1.325 . S
O942 Li880 1.961 . S
O942 Li882 1.956 . S
O942 Li883 1.970 . S
O942 C912 1.325 . S
O943 Li881 1.961 . S
O943 Li882 1.970 . S
O943 Li883 1.956 . S
O943 C918 1.325 . S
H944 C886 0.929 . S
H945 C887 0.930 . S
H946 C888 0.930 . S
H947 C889 0.930 . S
H948 C891 0.930 . S
H949 C893 0.929 . S
H950 C894 0.930 . S
H951 C895 0.930 . S
H952 C898 0.930 . S
H953 C901 0.929 . S
H954 C906 0.929 . S
H955 C907 0.930 . S
H956 C914 0.929 . S
H957 C915 0.930 . S
H958 C916 0.930 . S
H959 C917 0.930 . S
H960 C919 0.929 . S
H961 C920 0.930 . S
H962 C921 0.868 1_565 S
H963 C922 0.930 . S
H964 C926 0.929 . S
H965 C928 0.930 . S
H966 C934 0.929 . S
H967 C935 0.930 . S
Li968 N985 1.990 . S
Li968 O1028 1.956 . S
Li968 O1029 1.970 . S
Li968 O1030 1.961 . S
Li969 N993 1.990 . S
Li969 O1028 1.970 . S
Li969 O1029 1.956 . S
Li969 O1031 1.961 . S
Li970 N1015 1.990 . S
Li970 O1028 1.961 . S
Li970 O1030 1.956 . S
Li970 O1031 1.970 . S
Li971 N1021 1.990 . S
Li971 O1029 1.961 . S
Li971 O1030 1.970 . S
Li971 O1031 1.956 . S
C972 C974 1.348 . S
C972 C975 1.356 . S
C972 O1028 1.325 . S
N973 C976 1.314 . S
N973 C977 1.279 . S
C974 C972 1.348 . S
C974 C976 1.353 . S
C974 H1032 0.929 . S
C975 C972 1.356 . S
C975 C977 1.358 . S
C975 H1033 0.930 . S
C976 N973 1.314 . S
C976 C974 1.353 . S
C976 H1034 0.930 . S
C977 N973 1.279 . S
C977 C975 1.358 . S
C977 H1035 0.930 . S
C978 C981 1.348 . S
C978 C982 1.356 . S
C978 O1029 1.325 . S
C979 N980 1.279 . S
C979 C982 1.358 . S
C979 H1036 0.930 . S
N980 C979 1.279 . S
N980 C983 1.314 . S
C981 C978 1.348 . S
C981 C983 1.353 . S
C981 H1037 0.929 . S
C982 C978 1.356 . S
C982 C979 1.358 . S
C982 H1038 0.930 . S
C983 N980 1.314 . S
C983 C981 1.353 . S
C983 H1039 0.930 . S
C984 N985 1.292 1_655 S
C984 C989 1.374 . S
C984 H990 0.929 . S
N985 Li968 1.990 . S
N985 C984 1.292 1_455 S
N985 C987 1.279 . S
C986 C987 1.305 1_655 S
C986 C988 1.413 . S
C986 H1040 0.928 . S
C987 N985 1.279 . S
C987 C986 1.305 1_455 S
C987 H991 0.930 . S
C988 C986 1.413 . S
C988 C989 1.348 . S
C989 C984 1.374 . S
C989 C988 1.348 . S
C989 H1041 0.929 . S
H990 C984 0.929 . S
H991 C987 0.930 . S
C992 N993 1.314 . S
C992 C994 1.353 . S
C992 H998 0.930 . S
N993 Li969 1.990 . S
N993 C992 1.314 . S
N993 C996 1.279 . S
C994 C992 1.353 . S
C994 C997 1.348 . S
C994 H1042 0.929 . S
C995 C996 1.358 . S
C995 C997 1.356 . S
C995 H1043 0.930 . S
C996 N993 1.279 . S
C996 C995 1.358 . S
C996 H999 0.930 . S
C997 C994 1.348 . S
C997 C995 1.356 . S
H998 C992 0.930 . S
H999 C996 0.930 . S
C1000 C1002 1.348 . S
C1000 C1003 1.356 . S
C1000 O1030 1.325 . S
N1001 C1004 1.314 . S
N1001 C1005 1.279 . S
C1002 C1000 1.348 . S
C1002 C1004 1.353 . S
C1002 H1044 0.929 . S
C1003 C1000 1.356 . S
C1003 C1005 1.358 . S
C1003 H1045 0.930 . S
C1004 N1001 1.314 . S
C1004 C1002 1.353 . S
C1004 H1046 0.930 . S
C1005 N1001 1.279 . S
C1005 C1003 1.358 . S
C1005 H1047 0.930 . S
C1006 C1007 1.348 . S
C1006 C1008 1.356 . S
C1006 O1031 1.325 . S
C1007 C1006 1.348 . S
C1007 C1009 1.353 . S
C1007 H1048 0.929 . S
C1008 C1006 1.356 . S
C1008 C1010 1.358 . S
C1008 H1049 0.930 . S
C1009 C1007 1.353 . S
C1009 N1011 1.314 . S
C1009 H1050 0.930 . S
C1010 C1008 1.358 . S
C1010 N1011 1.279 . S
C1010 H1051 0.930 . S
N1011 C1009 1.314 . S
N1011 C1010 1.279 . S
C1012 C1014 1.353 . S
C1012 N1015 1.314 . S
C1012 H1018 0.930 . S
C1013 N1015 1.279 . S
C1013 C1016 1.358 . S
C1013 H1019 0.930 . S
C1014 C1012 1.353 . S
C1014 C1017 1.348 . S
C1014 H1052 0.929 . S
N1015 Li970 1.990 . S
N1015 C1012 1.314 . S
N1015 C1013 1.279 . S
C1016 C1013 1.358 . S
C1016 C1017 1.356 . S
C1016 H1053 0.930 . S
C1017 C1014 1.348 . S
C1017 C1016 1.356 . S
H1018 C1012 0.930 . S
H1019 C1013 0.930 . S
C1020 N1021 1.314 . S
C1020 C1022 1.353 . S
C1020 H1026 0.930 . S
N1021 Li971 1.990 . S
N1021 C1020 1.314 . S
N1021 C1024 1.279 . S
C1022 C1020 1.353 . S
C1022 C1025 1.348 . S
C1022 H1054 0.929 . S
C1023 C1024 1.358 . S
C1023 C1025 1.356 . S
C1023 H1055 0.930 . S
C1024 N1021 1.279 . S
C1024 C1023 1.358 . S
C1024 H1027 0.930 . S
C1025 C1022 1.348 . S
C1025 C1023 1.356 . S
H1026 C1020 0.930 . S
H1027 C1024 0.930 . S
O1028 Li968 1.956 . S
O1028 Li969 1.970 . S
O1028 Li970 1.961 . S
O1028 C972 1.325 . S
O1029 Li968 1.970 . S
O1029 Li969 1.956 . S
O1029 Li971 1.961 . S
O1029 C978 1.325 . S
O1030 Li968 1.961 . S
O1030 Li970 1.956 . S
O1030 Li971 1.970 . S
O1030 C1000 1.325 . S
O1031 Li969 1.961 . S
O1031 Li970 1.970 . S
O1031 Li971 1.956 . S
O1031 C1006 1.325 . S
H1032 C974 0.929 . S
H1033 C975 0.930 . S
H1034 C976 0.930 . S
H1035 C977 0.930 . S
H1036 C979 0.930 . S
H1037 C981 0.929 . S
H1038 C982 0.930 . S
H1039 C983 0.930 . S
H1040 C986 0.928 . S
H1041 C989 0.929 . S
H1042 C994 0.929 . S
H1043 C995 0.930 . S
H1044 C1002 0.929 . S
H1045 C1003 0.930 . S
H1046 C1004 0.930 . S
H1047 C1005 0.930 . S
H1048 C1007 0.929 . S
H1049 C1008 0.930 . S
H1050 C1009 0.930 . S
H1051 C1010 0.930 . S
H1052 C1014 0.929 . S
H1053 C1016 0.930 . S
H1054 C1022 0.929 . S
H1055 C1023 0.930 . S
Li1056 N1073 1.990 . S
Li1056 O1116 1.956 . S
Li1056 O1117 1.970 . S
Li1056 O1118 1.961 . S
Li1057 N1081 1.990 . S
Li1057 O1116 1.970 . S
Li1057 O1117 1.956 . S
Li1057 O1119 1.961 . S
Li1058 N1103 1.990 . S
Li1058 O1116 1.961 . S
Li1058 O1118 1.956 . S
Li1058 O1119 1.970 . S
Li1059 N1109 1.990 . S
Li1059 O1117 1.961 . S
Li1059 O1118 1.970 . S
Li1059 O1119 1.956 . S
C1060 C1062 1.348 . S
C1060 C1063 1.356 . S
C1060 O1116 1.325 . S
N1061 C1064 1.314 . S
N1061 C1065 1.279 . S
C1062 C1060 1.348 . S
C1062 C1064 1.353 . S
C1062 H1120 0.929 . S
C1063 C1060 1.356 . S
C1063 C1065 1.358 . S
C1063 H1121 0.930 . S
C1064 N1061 1.314 . S
C1064 C1062 1.353 . S
C1064 H1122 0.930 . S
C1065 N1061 1.279 . S
C1065 C1063 1.358 . S
C1065 H1123 0.930 . S
C1066 C1069 1.348 . S
C1066 C1070 1.356 . S
C1066 O1117 1.325 . S
C1067 N1068 1.279 . S
C1067 C1070 1.358 . S
C1067 H1124 0.930 . S
N1068 C1067 1.279 . S
N1068 C1071 1.314 . S
C1069 C1066 1.348 . S
C1069 C1071 1.353 . S
C1069 H1125 0.929 . S
C1070 C1066 1.356 . S
C1070 C1067 1.358 . S
C1070 H1126 0.930 . S
C1071 N1068 1.314 . S
C1071 C1069 1.353 . S
C1071 H1127 0.930 . S
C1072 N1073 1.314 . S
C1072 C1077 1.353 . S
C1072 H1078 0.930 . S
N1073 Li1056 1.990 . S
N1073 C1072 1.314 . S
N1073 C1075 1.279 . S
C1074 C1075 1.358 . S
C1074 C1076 1.356 . S
C1074 H1128 0.930 . S
C1075 N1073 1.279 . S
C1075 C1074 1.358 . S
C1075 H1079 0.930 . S
C1076 C1074 1.356 . S
C1076 C1077 1.348 . S
C1077 C1072 1.353 . S
C1077 C1076 1.348 . S
C1077 H1129 0.929 . S
H1078 C1072 0.930 . S
H1079 C1075 0.930 . S
C1080 N1081 1.314 . S
C1080 C1082 1.353 . S
C1080 H1086 0.930 . S
N1081 Li1057 1.990 . S
N1081 C1080 1.314 . S
N1081 C1084 1.279 . S
C1082 C1080 1.353 . S
C1082 C1085 1.348 . S
C1082 H1130 0.929 . S
C1083 C1084 1.358 . S
C1083 C1085 1.356 . S
C1083 H1131 0.930 . S
C1084 N1081 1.279 . S
C1084 C1083 1.358 . S
C1084 H1087 0.930 . S
C1085 C1082 1.348 . S
C1085 C1083 1.356 . S
H1086 C1080 0.930 . S
H1087 C1084 0.930 . S
C1088 C1090 1.348 . S
C1088 C1091 1.356 . S
C1088 O1118 1.325 . S
N1089 C1092 1.314 . S
N1089 C1093 1.279 . S
C1090 C1088 1.348 . S
C1090 C1092 1.353 . S
C1090 H1132 0.929 . S
C1091 C1088 1.356 . S
C1091 C1093 1.358 . S
C1091 H1133 0.930 . S
C1092 N1089 1.314 . S
C1092 C1090 1.353 . S
C1092 H1134 0.869 1_545 S
C1093 N1089 1.279 . S
C1093 C1091 1.358 . S
C1093 H1135 0.930 . S
C1094 C1095 1.348 . S
C1094 C1096 1.356 . S
C1094 O1119 1.325 . S
C1095 C1094 1.348 . S
C1095 C1097 1.353 . S
C1095 H1136 0.929 . S
C1096 C1094 1.356 . S
C1096 C1098 1.358 . S
C1096 H1137 0.930 . S
C1097 C1095 1.353 . S
C1097 N1099 1.314 . S
C1097 H1138 0.930 . S
C1098 C1096 1.358 . S
C1098 N1099 1.279 . S
C1098 H1139 0.930 . S
N1099 C1097 1.314 . S
N1099 C1098 1.279 . S
C1100 C1102 1.353 . S
C1100 N1103 1.314 . S
C1100 H1106 0.930 . S
C1101 N1103 1.279 . S
C1101 C1104 1.358 . S
C1101 H1107 0.930 . S
C1102 C1100 1.353 . S
C1102 C1105 1.348 . S
C1102 H1140 0.929 . S
N1103 Li1058 1.990 . S
N1103 C1100 1.314 . S
N1103 C1101 1.279 . S
C1104 C1101 1.358 . S
C1104 C1105 1.356 . S
C1104 H1141 0.930 . S
C1105 C1102 1.348 . S
C1105 C1104 1.356 . S
H1106 C1100 0.930 . S
H1107 C1101 0.930 . S
C1108 N1109 1.314 . S
C1108 C1110 1.353 1_545 S
C1108 H1114 0.930 . S
N1109 Li1059 1.990 . S
N1109 C1108 1.314 . S
N1109 C1112 1.278 . S
C1110 C1108 1.353 1_565 S
C1110 C1113 1.348 . S
C1110 H1142 0.929 . S
C1111 C1112 1.359 1_565 S
C1111 C1113 1.356 . S
C1111 H1143 0.930 . S
C1112 N1109 1.278 . S
C1112 C1111 1.359 1_545 S
C1112 H1115 0.930 . S
C1113 C1110 1.348 . S
C1113 C1111 1.356 . S
H1114 C1108 0.930 . S
H1115 C1112 0.930 . S
O1116 Li1056 1.956 . S
O1116 Li1057 1.970 . S
O1116 Li1058 1.961 . S
O1116 C1060 1.325 . S
O1117 Li1056 1.970 . S
O1117 Li1057 1.956 . S
O1117 Li1059 1.961 . S
O1117 C1066 1.325 . S
O1118 Li1056 1.961 . S
O1118 Li1058 1.956 . S
O1118 Li1059 1.970 . S
O1118 C1088 1.325 . S
O1119 Li1057 1.961 . S
O1119 Li1058 1.970 . S
O1119 Li1059 1.956 . S
O1119 C1094 1.325 . S
H1120 C1062 0.929 . S
H1121 C1063 0.930 . S
H1122 C1064 0.930 . S
H1123 C1065 0.930 . S
H1124 C1067 0.930 . S
H1125 C1069 0.929 . S
H1126 C1070 0.930 . S
H1127 C1071 0.930 . S
H1128 C1074 0.930 . S
H1129 C1077 0.929 . S
H1130 C1082 0.929 . S
H1131 C1083 0.930 . S
H1132 C1090 0.929 . S
H1133 C1091 0.930 . S
H1134 C1092 0.869 1_565 S
H1135 C1093 0.930 . S
H1136 C1095 0.929 . S
H1137 C1096 0.930 . S
H1138 C1097 0.930 . S
H1139 C1098 0.930 . S
H1140 C1102 0.929 . S
H1141 C1104 0.930 . S
H1142 C1110 0.929 . S
H1143 C1111 0.930 . S
Li1144 N1161 1.990 . S
Li1144 O1204 1.956 . S
Li1144 O1205 1.970 . S
Li1144 O1206 1.961 . S
Li1145 N1169 1.990 . S
Li1145 O1204 1.970 . S
Li1145 O1205 1.956 . S
Li1145 O1207 1.961 . S
Li1146 N1191 1.990 . S
Li1146 O1204 1.961 . S
Li1146 O1206 1.956 . S
Li1146 O1207 1.970 . S
Li1147 N1197 1.990 . S
Li1147 O1205 1.961 . S
Li1147 O1206 1.970 . S
Li1147 O1207 1.956 . S
C1148 C1150 1.348 . S
C1148 C1151 1.356 . S
C1148 O1204 1.325 . S
N1149 C1152 1.314 . S
N1149 C1153 1.279 . S
C1150 C1148 1.348 . S
C1150 C1152 1.353 . S
C1150 H1208 0.929 . S
C1151 C1148 1.356 . S
C1151 C1153 1.358 . S
C1151 H1209 0.930 . S
C1152 N1149 1.314 . S
C1152 C1150 1.353 . S
C1152 H1210 0.930 . S
C1153 N1149 1.279 . S
C1153 C1151 1.358 . S
C1153 H1211 0.930 . S
C1154 C1157 1.348 . S
C1154 C1158 1.356 . S
C1154 O1205 1.325 . S
C1155 N1156 1.279 . S
C1155 C1158 1.358 . S
C1155 H1212 0.930 . S
N1156 C1155 1.279 . S
N1156 C1159 1.314 . S
C1157 C1154 1.348 . S
C1157 C1159 1.353 . S
C1157 H1213 0.929 . S
C1158 C1154 1.356 . S
C1158 C1155 1.358 . S
C1158 H1214 0.930 . S
C1159 N1156 1.314 . S
C1159 C1157 1.353 . S
C1159 H1215 0.930 . S
C1160 N1161 1.314 . S
C1160 C1165 1.353 . S
C1160 H1166 0.930 . S
N1161 Li1144 1.990 . S
N1161 C1160 1.314 . S
N1161 C1163 1.279 . S
C1162 C1163 1.358 . S
C1162 C1164 1.356 . S
C1162 H1216 0.930 . S
C1163 N1161 1.279 . S
C1163 C1162 1.358 . S
C1163 H1167 0.930 . S
C1164 C1162 1.356 . S
C1164 C1165 1.348 . S
C1165 C1160 1.353 . S
C1165 C1164 1.348 . S
C1165 H1217 0.929 . S
H1166 C1160 0.930 . S
H1167 C1163 0.930 . S
C1168 N1169 1.314 . S
C1168 C1170 1.353 . S
C1168 H1174 0.930 . S
N1169 Li1145 1.990 . S
N1169 C1168 1.314 . S
N1169 C1172 1.279 . S
C1170 C1168 1.353 . S
C1170 C1173 1.348 . S
C1170 H1218 0.929 . S
C1171 C1172 1.358 . S
C1171 C1173 1.356 . S
C1171 H1219 0.930 . S
C1172 N1169 1.279 . S
C1172 C1171 1.358 . S
C1172 H1175 0.930 . S
C1173 C1170 1.348 . S
C1173 C1171 1.356 . S
H1174 C1168 0.930 . S
H1175 C1172 0.930 . S
C1176 C1178 1.348 . S
C1176 C1179 1.356 . S
C1176 O1206 1.325 . S
N1177 C1180 1.314 . S
N1177 C1181 1.279 . S
C1178 C1176 1.348 . S
C1178 C1180 1.353 . S
C1178 H1220 0.929 . S
C1179 C1176 1.356 . S
C1179 C1181 1.358 . S
C1179 H1221 0.930 . S
C1180 N1177 1.314 . S
C1180 C1178 1.353 . S
C1180 H1222 0.930 . S
C1181 N1177 1.279 . S
C1181 C1179 1.358 . S
C1181 H1223 0.930 . S
C1182 C1183 1.348 . S
C1182 C1184 1.356 . S
C1182 O1207 1.325 . S
C1183 C1182 1.348 . S
C1183 C1185 1.353 . S
C1183 H1224 0.929 . S
C1184 C1182 1.356 . S
C1184 C1186 1.358 . S
C1184 H1225 0.930 . S
C1185 C1183 1.353 . S
C1185 N1187 1.314 . S
C1185 H1226 0.930 . S
C1186 C1184 1.358 . S
C1186 N1187 1.279 . S
C1186 H1227 0.930 . S
N1187 C1185 1.314 . S
N1187 C1186 1.279 . S
C1188 C1190 1.353 . S
C1188 N1191 1.314 . S
C1188 H1194 0.930 . S
C1189 N1191 1.279 . S
C1189 C1192 1.358 . S
C1189 H1195 0.930 . S
C1190 C1188 1.353 . S
C1190 C1193 1.348 . S
C1190 H1228 0.929 . S
N1191 Li1146 1.990 . S
N1191 C1188 1.314 . S
N1191 C1189 1.279 . S
C1192 C1189 1.358 . S
C1192 C1193 1.356 . S
C1192 H1229 0.930 . S
C1193 C1190 1.348 . S
C1193 C1192 1.356 . S
H1194 C1188 0.930 . S
H1195 C1189 0.930 . S
C1196 N1197 1.292 1_655 S
C1196 C1198 1.375 . S
C1196 H1202 0.929 . S
N1197 Li1147 1.990 . S
N1197 C1196 1.292 1_455 S
N1197 C1200 1.279 . S
C1198 C1196 1.375 . S
C1198 C1201 1.348 . S
C1198 H1230 0.929 . S
C1199 C1200 1.305 1_655 S
C1199 C1201 1.414 . S
C1199 H1231 0.928 . S
C1200 N1197 1.279 . S
C1200 C1199 1.305 1_455 S
C1200 H1203 0.930 . S
C1201 C1198 1.348 . S
C1201 C1199 1.414 . S
H1202 C1196 0.929 . S
H1203 C1200 0.930 . S
O1204 Li1144 1.956 . S
O1204 Li1145 1.970 . S
O1204 Li1146 1.961 . S
O1204 C1148 1.325 . S
O1205 Li1144 1.970 . S
O1205 Li1145 1.956 . S
O1205 Li1147 1.961 . S
O1205 C1154 1.325 . S
O1206 Li1144 1.961 . S
O1206 Li1146 1.956 . S
O1206 Li1147 1.970 . S
O1206 C1176 1.325 . S
O1207 Li1145 1.961 . S
O1207 Li1146 1.970 . S
O1207 Li1147 1.956 . S
O1207 C1182 1.325 . S
H1208 C1150 0.929 . S
H1209 C1151 0.930 . S
H1210 C1152 0.930 . S
H1211 C1153 0.930 . S
H1212 C1155 0.930 . S
H1213 C1157 0.929 . S
H1214 C1158 0.930 . S
H1215 C1159 0.930 . S
H1216 C1162 0.930 . S
H1217 C1165 0.929 . S
H1218 C1170 0.929 . S
H1219 C1171 0.930 . S
H1220 C1178 0.929 . S
H1221 C1179 0.930 . S
H1222 C1180 0.930 . S
H1223 C1181 0.930 . S
H1224 C1183 0.929 . S
H1225 C1184 0.930 . S
H1226 C1185 0.930 . S
H1227 C1186 0.930 . S
H1228 C1190 0.929 . S
H1229 C1192 0.930 . S
H1230 C1198 0.929 . S
H1231 C1199 0.928 . S
Li1232 N1249 1.990 . S
Li1232 O1292 1.956 . S
Li1232 O1293 1.970 . S
Li1232 O1294 1.961 . S
Li1233 N1257 1.990 . S
Li1233 O1292 1.970 . S
Li1233 O1293 1.956 . S
Li1233 O1295 1.961 . S
Li1234 N1279 1.990 . S
Li1234 O1292 1.961 . S
Li1234 O1294 1.956 . S
Li1234 O1295 1.970 . S
Li1235 N1285 1.990 . S
Li1235 O1293 1.961 . S
Li1235 O1294 1.970 . S
Li1235 O1295 1.956 . S
C1236 C1238 1.348 . S
C1236 C1239 1.356 . S
C1236 O1292 1.325 . S
N1237 C1240 1.314 . S
N1237 C1241 1.279 . S
C1238 C1236 1.348 . S
C1238 C1240 1.353 . S
C1238 H1296 0.929 . S
C1239 C1236 1.356 . S
C1239 C1241 1.358 . S
C1239 H1297 0.930 . S
C1240 N1237 1.314 . S
C1240 C1238 1.353 . S
C1240 H1298 0.868 1_565 S
C1241 N1237 1.279 . S
C1241 C1239 1.358 . S
C1241 H1299 0.930 . S
C1242 C1245 1.348 . S
C1242 C1246 1.356 . S
C1242 O1293 1.325 . S
C1243 N1244 1.279 . S
C1243 C1246 1.358 . S
C1243 H1300 0.930 . S
N1244 C1243 1.279 . S
N1244 C1247 1.314 . S
C1245 C1242 1.348 . S
C1245 C1247 1.353 . S
C1245 H1301 0.929 . S
C1246 C1242 1.356 . S
C1246 C1243 1.358 . S
C1246 H1302 0.930 . S
C1247 N1244 1.314 . S
C1247 C1245 1.353 . S
C1247 H1303 0.930 . S
C1248 N1249 1.314 . S
C1248 C1253 1.353 . S
C1248 H1254 0.930 . S
N1249 Li1232 1.990 . S
N1249 C1248 1.314 . S
N1249 C1251 1.279 . S
C1250 C1251 1.358 . S
C1250 C1252 1.356 . S
C1250 H1304 0.930 . S
C1251 N1249 1.279 . S
C1251 C1250 1.358 . S
C1251 H1255 0.930 . S
C1252 C1250 1.356 . S
C1252 C1253 1.348 . S
C1253 C1248 1.353 . S
C1253 C1252 1.348 . S
C1253 H1305 0.929 . S
H1254 C1248 0.930 . S
H1255 C1251 0.930 . S
C1256 N1257 1.314 . S
C1256 C1258 1.353 1_565 S
C1256 H1262 0.930 . S
N1257 Li1233 1.990 . S
N1257 C1256 1.314 . S
N1257 C1260 1.278 . S
C1258 C1256 1.353 1_545 S
C1258 C1261 1.348 . S
C1258 H1306 0.929 . S
C1259 C1260 1.360 1_545 S
C1259 C1261 1.356 . S
C1259 H1307 0.930 . S
C1260 N1257 1.278 . S
C1260 C1259 1.360 1_565 S
C1260 H1263 0.930 . S
C1261 C1258 1.348 . S
C1261 C1259 1.356 . S
H1262 C1256 0.930 . S
H1263 C1260 0.930 . S
C1264 C1266 1.348 . S
C1264 C1267 1.356 . S
C1264 O1294 1.325 . S
N1265 C1268 1.314 . S
N1265 C1269 1.279 . S
C1266 C1264 1.348 . S
C1266 C1268 1.353 . S
C1266 H1308 0.929 . S
C1267 C1264 1.356 . S
C1267 C1269 1.358 . S
C1267 H1309 0.930 . S
C1268 N1265 1.314 . S
C1268 C1266 1.353 . S
C1268 H1310 0.930 . S
C1269 N1265 1.279 . S
C1269 C1267 1.358 . S
C1269 H1311 0.930 . S
C1270 C1271 1.348 . S
C1270 C1272 1.356 . S
C1270 O1295 1.325 . S
C1271 C1270 1.348 . S
C1271 C1273 1.353 . S
C1271 H1312 0.929 . S
C1272 C1270 1.356 . S
C1272 C1274 1.358 . S
C1272 H1313 0.930 . S
C1273 C1271 1.353 . S
C1273 N1275 1.314 . S
C1273 H1314 0.930 . S
C1274 C1272 1.358 . S
C1274 N1275 1.279 . S
C1274 H1315 0.930 . S
N1275 C1273 1.314 . S
N1275 C1274 1.279 . S
C1276 C1278 1.353 . S
C1276 N1279 1.314 . S
C1276 H1282 0.930 . S
C1277 N1279 1.279 . S
C1277 C1280 1.358 . S
C1277 H1283 0.930 . S
C1278 C1276 1.353 . S
C1278 C1281 1.348 . S
C1278 H1316 0.929 . S
N1279 Li1234 1.990 . S
N1279 C1276 1.314 . S
N1279 C1277 1.279 . S
C1280 C1277 1.358 . S
C1280 C1281 1.356 . S
C1280 H1317 0.930 . S
C1281 C1278 1.348 . S
C1281 C1280 1.356 . S
H1282 C1276 0.930 . S
H1283 C1277 0.930 . S
C1284 N1285 1.314 . S
C1284 C1286 1.353 . S
C1284 H1290 0.930 . S
N1285 Li1235 1.990 . S
N1285 C1284 1.314 . S
N1285 C1288 1.279 . S
C1286 C1284 1.353 . S
C1286 C1289 1.348 . S
C1286 H1318 0.929 . S
C1287 C1288 1.358 . S
C1287 C1289 1.356 . S
C1287 H1319 0.930 . S
C1288 N1285 1.279 . S
C1288 C1287 1.358 . S
C1288 H1291 0.930 . S
C1289 C1286 1.348 . S
C1289 C1287 1.356 . S
H1290 C1284 0.930 . S
H1291 C1288 0.930 . S
O1292 Li1232 1.956 . S
O1292 Li1233 1.970 . S
O1292 Li1234 1.961 . S
O1292 C1236 1.325 . S
O1293 Li1232 1.970 . S
O1293 Li1233 1.956 . S
O1293 Li1235 1.961 . S
O1293 C1242 1.325 . S
O1294 Li1232 1.961 . S
O1294 Li1234 1.956 . S
O1294 Li1235 1.970 . S
O1294 C1264 1.325 . S
O1295 Li1233 1.961 . S
O1295 Li1234 1.970 . S
O1295 Li1235 1.956 . S
O1295 C1270 1.325 . S
H1296 C1238 0.929 . S
H1297 C1239 0.930 . S
H1298 C1240 0.868 1_545 S
H1299 C1241 0.930 . S
H1300 C1243 0.930 . S
H1301 C1245 0.929 . S
H1302 C1246 0.930 . S
H1303 C1247 0.930 . S
H1304 C1250 0.930 . S
H1305 C1253 0.929 . S
H1306 C1258 0.929 . S
H1307 C1259 0.930 . S
H1308 C1266 0.929 . S
H1309 C1267 0.930 . S
H1310 C1268 0.930 . S
H1311 C1269 0.930 . S
H1312 C1271 0.929 . S
H1313 C1272 0.930 . S
H1314 C1273 0.930 . S
H1315 C1274 0.930 . S
H1316 C1278 0.929 . S
H1317 C1280 0.930 . S
H1318 C1286 0.929 . S
H1319 C1287 0.930 . S
Li1320 N1337 1.990 . S
Li1320 O1380 1.956 . S
Li1320 O1381 1.970 . S
Li1320 O1382 1.961 . S
Li1321 N1345 1.990 . S
Li1321 O1380 1.970 . S
Li1321 O1381 1.956 . S
Li1321 O1383 1.961 . S
Li1322 N1367 1.990 . S
Li1322 O1380 1.961 . S
Li1322 O1382 1.956 . S
Li1322 O1383 1.970 . S
Li1323 N1373 1.990 . S
Li1323 O1381 1.961 . S
Li1323 O1382 1.970 . S
Li1323 O1383 1.956 . S
C1324 C1326 1.348 . S
C1324 C1327 1.356 . S
C1324 O1380 1.325 . S
N1325 C1328 1.314 . S
N1325 C1329 1.279 . S
C1326 C1324 1.348 . S
C1326 C1328 1.353 . S
C1326 H1384 0.929 . S
C1327 C1324 1.356 . S
C1327 C1329 1.358 . S
C1327 H1385 0.930 . S
C1328 N1325 1.314 . S
C1328 C1326 1.353 . S
C1328 H1386 0.930 . S
C1329 N1325 1.279 . S
C1329 C1327 1.358 . S
C1329 H1387 0.930 . S
C1330 C1333 1.348 . S
C1330 C1334 1.356 . S
C1330 O1381 1.325 . S
C1331 N1332 1.279 . S
C1331 C1334 1.358 . S
C1331 H1388 0.930 . S
N1332 C1331 1.279 . S
N1332 C1335 1.314 . S
C1333 C1330 1.348 . S
C1333 C1335 1.353 . S
C1333 H1389 0.929 . S
C1334 C1330 1.356 . S
C1334 C1331 1.358 . S
C1334 H1390 0.930 . S
C1335 N1332 1.314 . S
C1335 C1333 1.353 . S
C1335 H1391 0.930 . S
C1336 N1337 1.314 . S
C1336 C1341 1.353 . S
C1336 H1342 0.930 . S
N1337 Li1320 1.990 . S
N1337 C1336 1.314 . S
N1337 C1339 1.279 . S
C1338 C1339 1.358 . S
C1338 C1340 1.356 . S
C1338 H1392 0.930 . S
C1339 N1337 1.279 . S
C1339 C1338 1.358 . S
C1339 H1343 0.930 . S
C1340 C1338 1.356 . S
C1340 C1341 1.348 . S
C1341 C1336 1.353 . S
C1341 C1340 1.348 . S
C1341 H1393 0.929 . S
H1342 C1336 0.930 . S
H1343 C1339 0.930 . S
C1344 N1345 1.314 . S
C1344 C1346 1.353 . S
C1344 H1350 0.930 . S
N1345 Li1321 1.990 . S
N1345 C1344 1.314 . S
N1345 C1348 1.279 . S
C1346 C1344 1.353 . S
C1346 C1349 1.348 . S
C1346 H1394 0.929 . S
C1347 C1348 1.358 . S
C1347 C1349 1.356 . S
C1347 H1395 0.930 . S
C1348 N1345 1.279 . S
C1348 C1347 1.358 . S
C1348 H1351 0.930 . S
C1349 C1346 1.348 . S
C1349 C1347 1.356 . S
H1350 C1344 0.930 . S
H1351 C1348 0.930 . S
C1352 C1354 1.348 . S
C1352 C1355 1.356 . S
C1352 O1382 1.325 . S
N1353 C1356 1.314 . S
N1353 C1357 1.279 . S
C1354 C1352 1.348 . S
C1354 C1356 1.353 . S
C1354 H1396 0.929 . S
C1355 C1352 1.356 . S
C1355 C1357 1.358 . S
C1355 H1397 0.930 . S
C1356 N1353 1.314 . S
C1356 C1354 1.353 . S
C1356 H1398 0.930 . S
C1357 N1353 1.279 . S
C1357 C1355 1.358 . S
C1357 H1399 0.930 . S
C1358 C1359 1.348 . S
C1358 C1360 1.356 . S
C1358 O1383 1.325 . S
C1359 C1358 1.348 . S
C1359 C1361 1.353 . S
C1359 H1400 0.929 . S
C1360 C1358 1.356 . S
C1360 C1362 1.358 . S
C1360 H1401 0.930 . S
C1361 C1359 1.353 . S
C1361 N1363 1.314 . S
C1361 H1402 0.930 . S
C1362 C1360 1.358 . S
C1362 N1363 1.279 . S
C1362 H1403 0.930 . S
N1363 C1361 1.314 . S
N1363 C1362 1.279 . S
C1364 C1366 1.374 . S
C1364 N1367 1.292 1_455 S
C1364 H1370 0.929 . S
C1365 N1367 1.279 . S
C1365 C1368 1.305 1_655 S
C1365 H1371 0.930 . S
C1366 C1364 1.374 . S
C1366 C1369 1.348 . S
C1366 H1404 0.929 . S
N1367 Li1322 1.990 . S
N1367 C1364 1.292 1_655 S
N1367 C1365 1.279 . S
C1368 C1365 1.305 1_455 S
C1368 C1369 1.413 . S
C1368 H1405 0.928 . S
C1369 C1366 1.348 . S
C1369 C1368 1.413 . S
H1370 C1364 0.929 . S
H1371 C1365 0.930 . S
C1372 N1373 1.314 . S
C1372 C1374 1.353 . S
C1372 H1378 0.930 . S
N1373 Li1323 1.990 . S
N1373 C1372 1.314 . S
N1373 C1376 1.279 . S
C1374 C1372 1.353 . S
C1374 C1377 1.348 . S
C1374 H1406 0.929 . S
C1375 C1376 1.358 . S
C1375 C1377 1.356 . S
C1375 H1407 0.930 . S
C1376 N1373 1.279 . S
C1376 C1375 1.358 . S
C1376 H1379 0.930 . S
C1377 C1374 1.348 . S
C1377 C1375 1.356 . S
H1378 C1372 0.930 . S
H1379 C1376 0.930 . S
O1380 Li1320 1.956 . S
O1380 Li1321 1.970 . S
O1380 Li1322 1.961 . S
O1380 C1324 1.325 . S
O1381 Li1320 1.970 . S
O1381 Li1321 1.956 . S
O1381 Li1323 1.961 . S
O1381 C1330 1.325 . S
O1382 Li1320 1.961 . S
O1382 Li1322 1.956 . S
O1382 Li1323 1.970 . S
O1382 C1352 1.325 . S
O1383 Li1321 1.961 . S
O1383 Li1322 1.970 . S
O1383 Li1323 1.956 . S
O1383 C1358 1.325 . S
H1384 C1326 0.929 . S
H1385 C1327 0.930 . S
H1386 C1328 0.930 . S
H1387 C1329 0.930 . S
H1388 C1331 0.930 . S
H1389 C1333 0.929 . S
H1390 C1334 0.930 . S
H1391 C1335 0.930 . S
H1392 C1338 0.930 . S
H1393 C1341 0.929 . S
H1394 C1346 0.929 . S
H1395 C1347 0.930 . S
H1396 C1354 0.929 . S
H1397 C1355 0.930 . S
H1398 C1356 0.930 . S
H1399 C1357 0.930 . S
H1400 C1359 0.929 . S
H1401 C1360 0.930 . S
H1402 C1361 0.930 . S
H1403 C1362 0.930 . S
H1404 C1366 0.929 . S
H1405 C1368 0.928 . S
H1406 C1374 0.929 . S
H1407 C1375 0.930 . S
H1408 C1416 0.929 . S
H1409 C1418 0.930 . S
H1410 C1420 0.930 . S
H1411 C1423 0.929 . S
H1412 C1426 0.930 . S
H1413 C1428 0.960 . S
H1414 C1428 0.960 . S
H1415 C1428 0.960 . S
C1416 H1408 0.929 . S
C1416 C1417 1.377 . S
C1416 C1418 1.384 . S
C1417 C1416 1.377 . S
C1417 C1423 1.390 . S
C1418 H1409 0.930 . S
C1418 C1416 1.384 . S
C1418 C1419 1.372 . S
C1419 C1418 1.372 . S
C1419 C1420 1.400 . S
C1419 C1424 1.490 . S
C1420 H1410 0.930 . S
C1420 C1419 1.400 . S
C1420 C1423 1.386 . S
H1421 C1437 0.930 . S
H1422 C1438 0.931 . S
C1423 H1411 0.929 . S
C1423 C1417 1.390 . S
C1423 C1420 1.386 . S
C1424 C1419 1.490 . S
C1424 C1426 1.395 . S
C1424 C1427 1.403 . S
H1425 C1431 0.930 . S
C1426 H1412 0.930 . S
C1426 C1424 1.395 . S
C1426 C1429 1.403 . S
C1427 C1424 1.403 . S
C1427 C1428 1.524 . S
C1427 C1431 1.400 . S
C1428 H1413 0.960 . S
C1428 H1414 0.960 . S
C1428 H1415 0.960 . S
C1428 C1427 1.524 . S
C1429 C1426 1.403 . S
C1429 C1430 1.392 . S
C1429 C1433 1.495 . S
C1430 C1429 1.392 . S
C1430 C1431 1.385 . S
C1430 C1432 1.478 . S
C1431 H1425 0.930 . S
C1431 C1427 1.400 . S
C1431 C1430 1.385 . S
C1432 C1430 1.478 . S
C1432 C1434 1.381 . S
C1432 C1438 1.383 . S
C1433 C1429 1.495 . S
C1433 H1439 0.959 . S
C1433 H1440 0.961 . S
C1433 H1441 0.960 . S
C1434 C1432 1.381 . S
C1434 C1435 1.394 . S
C1434 H1442 0.930 . S
C1435 C1434 1.394 . S
C1435 C1436 1.383 . S
C1435 H1443 0.929 . S
C1436 C1435 1.383 . S
C1436 C1437 1.377 . S
C1437 H1421 0.930 . S
C1437 C1436 1.377 . S
C1437 C1438 1.379 . S
C1438 H1422 0.931 . S
C1438 C1432 1.383 . S
C1438 C1437 1.379 . S
H1439 C1433 0.959 . S
H1440 C1433 0.961 . S
H1441 C1433 0.960 . S
H1442 C1434 0.930 . S
H1443 C1435 0.929 . S
H1444 C1452 0.929 . S
H1445 C1454 0.930 . S
H1446 C1456 0.930 . S
H1447 C1459 0.929 . S
H1448 C1462 0.930 . S
H1449 C1464 0.960 . S
H1450 C1464 0.960 . S
H1451 C1464 0.960 . S
C1452 H1444 0.929 . S
C1452 C1453 1.377 . S
C1452 C1454 1.384 . S
C1453 C1452 1.377 . S
C1453 C1459 1.390 . S
C1454 H1445 0.930 . S
C1454 C1452 1.384 . S
C1454 C1455 1.372 . S
C1455 C1454 1.372 . S
C1455 C1456 1.400 . S
C1455 C1460 1.490 . S
C1456 H1446 0.930 . S
C1456 C1455 1.400 . S
C1456 C1459 1.386 . S
H1457 C1473 0.930 . S
H1458 C1474 0.931 . S
C1459 H1447 0.929 . S
C1459 C1453 1.390 . S
C1459 C1456 1.386 . S
C1460 C1455 1.490 . S
C1460 C1462 1.395 . S
C1460 C1463 1.403 . S
H1461 C1467 0.930 . S
C1462 H1448 0.930 . S
C1462 C1460 1.395 . S
C1462 C1465 1.403 . S
C1463 C1460 1.403 . S
C1463 C1464 1.524 . S
C1463 C1467 1.400 . S
C1464 H1449 0.960 . S
C1464 H1450 0.960 . S
C1464 H1451 0.960 . S
C1464 C1463 1.524 . S
C1465 C1462 1.403 . S
C1465 C1466 1.392 . S
C1465 C1469 1.495 . S
C1466 C1465 1.392 . S
C1466 C1467 1.385 . S
C1466 C1468 1.478 . S
C1467 H1461 0.930 . S
C1467 C1463 1.400 . S
C1467 C1466 1.385 . S
C1468 C1466 1.478 . S
C1468 C1470 1.381 . S
C1468 C1474 1.383 . S
C1469 C1465 1.495 . S
C1469 H1475 0.959 . S
C1469 H1476 0.961 . S
C1469 H1477 0.960 . S
C1470 C1468 1.381 . S
C1470 C1471 1.394 . S
C1470 H1478 0.930 . S
C1471 C1470 1.394 . S
C1471 C1472 1.383 . S
C1471 H1479 0.929 . S
C1472 C1471 1.383 . S
C1472 C1473 1.377 . S
C1473 H1457 0.930 . S
C1473 C1472 1.377 . S
C1473 C1474 1.379 . S
C1474 H1458 0.931 . S
C1474 C1468 1.383 . S
C1474 C1473 1.379 . S
H1475 C1469 0.959 . S
H1476 C1469 0.961 . S
H1477 C1469 0.960 . S
H1478 C1470 0.930 . S
H1479 C1471 0.929 . S
H1480 C1488 0.929 . S
H1481 C1490 0.930 . S
H1482 C1492 0.930 . S
H1483 C1495 0.929 . S
H1484 C1498 0.930 . S
H1485 C1500 0.960 . S
H1486 C1500 0.960 . S
H1487 C1500 0.960 . S
C1488 H1480 0.929 . S
C1488 C1489 1.377 . S
C1488 C1490 1.384 . S
C1489 C1488 1.377 . S
C1489 C1495 1.390 . S
C1490 H1481 0.930 . S
C1490 C1488 1.384 . S
C1490 C1491 1.372 . S
C1491 C1490 1.372 . S
C1491 C1492 1.400 . S
C1491 C1496 1.490 . S
C1492 H1482 0.930 . S
C1492 C1491 1.400 . S
C1492 C1495 1.386 . S
H1493 C1509 0.930 . S
H1494 C1510 0.931 . S
C1495 H1483 0.929 . S
C1495 C1489 1.390 . S
C1495 C1492 1.386 . S
C1496 C1491 1.490 . S
C1496 C1498 1.395 . S
C1496 C1499 1.403 . S
H1497 C1503 0.930 . S
C1498 H1484 0.930 . S
C1498 C1496 1.395 . S
C1498 C1501 1.403 . S
C1499 C1496 1.403 . S
C1499 C1500 1.524 . S
C1499 C1503 1.400 . S
C1500 H1485 0.960 . S
C1500 H1486 0.960 . S
C1500 H1487 0.960 . S
C1500 C1499 1.524 . S
C1501 C1498 1.403 . S
C1501 C1502 1.392 . S
C1501 C1505 1.495 . S
C1502 C1501 1.392 . S
C1502 C1503 1.385 . S
C1502 C1504 1.478 . S
C1503 H1497 0.930 . S
C1503 C1499 1.400 . S
C1503 C1502 1.385 . S
C1504 C1502 1.478 . S
C1504 C1506 1.381 . S
C1504 C1510 1.383 . S
C1505 C1501 1.495 . S
C1505 H1511 0.959 . S
C1505 H1512 0.961 . S
C1505 H1513 0.960 . S
C1506 C1504 1.381 . S
C1506 C1507 1.394 . S
C1506 H1514 0.930 . S
C1507 C1506 1.394 . S
C1507 C1508 1.383 . S
C1507 H1515 0.929 . S
C1508 C1507 1.383 . S
C1508 C1509 1.377 . S
C1509 H1493 0.930 . S
C1509 C1508 1.377 . S
C1509 C1510 1.379 . S
C1510 H1494 0.931 . S
C1510 C1504 1.383 . S
C1510 C1509 1.379 . S
H1511 C1505 0.959 . S
H1512 C1505 0.961 . S
H1513 C1505 0.960 . S
H1514 C1506 0.930 . S
H1515 C1507 0.929 . S
H1516 C1524 0.929 . S
H1517 C1526 0.930 . S
H1518 C1528 0.930 . S
H1519 C1531 0.929 . S
H1520 C1534 0.930 . S
H1521 C1536 0.960 . S
H1522 C1536 0.960 . S
H1523 C1536 0.960 . S
C1524 H1516 0.929 . S
C1524 C1525 1.377 . S
C1524 C1526 1.384 . S
C1525 C1524 1.377 . S
C1525 C1531 1.390 . S
C1526 H1517 0.930 . S
C1526 C1524 1.384 . S
C1526 C1527 1.372 . S
C1527 C1526 1.372 . S
C1527 C1528 1.400 . S
C1527 C1532 1.490 . S
C1528 H1518 0.930 . S
C1528 C1527 1.400 . S
C1528 C1531 1.386 . S
H1529 C1545 0.930 . S
H1530 C1546 0.931 . S
C1531 H1519 0.929 . S
C1531 C1525 1.390 . S
C1531 C1528 1.386 . S
C1532 C1527 1.490 . S
C1532 C1534 1.395 . S
C1532 C1535 1.403 . S
H1533 C1539 0.930 . S
C1534 H1520 0.930 . S
C1534 C1532 1.395 . S
C1534 C1537 1.403 . S
C1535 C1532 1.403 . S
C1535 C1536 1.524 . S
C1535 C1539 1.400 . S
C1536 H1521 0.960 . S
C1536 H1522 0.960 . S
C1536 H1523 0.960 . S
C1536 C1535 1.524 . S
C1537 C1534 1.403 . S
C1537 C1538 1.392 . S
C1537 C1541 1.495 . S
C1538 C1537 1.392 . S
C1538 C1539 1.385 . S
C1538 C1540 1.478 . S
C1539 H1533 0.930 . S
C1539 C1535 1.400 . S
C1539 C1538 1.385 . S
C1540 C1538 1.478 . S
C1540 C1542 1.381 . S
C1540 C1546 1.383 . S
C1541 C1537 1.495 . S
C1541 H1547 0.959 . S
C1541 H1548 0.961 . S
C1541 H1549 0.960 . S
C1542 C1540 1.381 . S
C1542 C1543 1.394 . S
C1542 H1550 0.930 . S
C1543 C1542 1.394 . S
C1543 C1544 1.383 . S
C1543 H1551 0.929 . S
C1544 C1543 1.383 . S
C1544 C1545 1.377 . S
C1545 H1529 0.930 . S
C1545 C1544 1.377 . S
C1545 C1546 1.379 . S
C1546 H1530 0.931 . S
C1546 C1540 1.383 . S
C1546 C1545 1.379 . S
H1547 C1541 0.959 . S
H1548 C1541 0.961 . S
H1549 C1541 0.960 . S
H1550 C1542 0.930 . S
H1551 C1543 0.929 . S
H1552 C1560 0.929 . S
H1553 C1562 0.930 . S
H1554 C1564 0.930 . S
H1555 C1567 0.929 . S
H1556 C1570 0.930 . S
H1557 C1572 0.960 . S
H1558 C1572 0.960 . S
H1559 C1572 0.960 . S
C1560 H1552 0.929 . S
C1560 C1561 1.377 . S
C1560 C1562 1.384 . S
C1561 C1560 1.377 . S
C1561 C1567 1.390 . S
C1562 H1553 0.930 . S
C1562 C1560 1.384 . S
C1562 C1563 1.372 . S
C1563 C1562 1.372 . S
C1563 C1564 1.400 . S
C1563 C1568 1.490 . S
C1564 H1554 0.930 . S
C1564 C1563 1.400 . S
C1564 C1567 1.386 . S
H1565 C1581 0.930 . S
H1566 C1582 0.931 . S
C1567 H1555 0.929 . S
C1567 C1561 1.390 . S
C1567 C1564 1.386 . S
C1568 C1563 1.490 . S
C1568 C1570 1.395 . S
C1568 C1571 1.403 . S
H1569 C1575 0.930 . S
C1570 H1556 0.930 . S
C1570 C1568 1.395 . S
C1570 C1573 1.403 . S
C1571 C1568 1.403 . S
C1571 C1572 1.524 . S
C1571 C1575 1.400 . S
C1572 H1557 0.960 . S
C1572 H1558 0.960 . S
C1572 H1559 0.960 . S
C1572 C1571 1.524 . S
C1573 C1570 1.403 . S
C1573 C1574 1.392 . S
C1573 C1577 1.495 . S
C1574 C1573 1.392 . S
C1574 C1575 1.385 . S
C1574 C1576 1.478 . S
C1575 H1569 0.930 . S
C1575 C1571 1.400 . S
C1575 C1574 1.385 . S
C1576 C1574 1.478 . S
C1576 C1578 1.381 . S
C1576 C1582 1.383 . S
C1577 C1573 1.495 . S
C1577 H1583 0.959 . S
C1577 H1584 0.961 . S
C1577 H1585 0.960 . S
C1578 C1576 1.381 . S
C1578 C1579 1.394 . S
C1578 H1586 0.930 . S
C1579 C1578 1.394 . S
C1579 C1580 1.383 . S
C1579 H1587 0.929 . S
C1580 C1579 1.383 . S
C1580 C1581 1.377 . S
C1581 H1565 0.930 . S
C1581 C1580 1.377 . S
C1581 C1582 1.379 . S
C1582 H1566 0.931 . S
C1582 C1576 1.383 . S
C1582 C1581 1.379 . S
H1583 C1577 0.959 . S
H1584 C1577 0.961 . S
H1585 C1577 0.960 . S
H1586 C1578 0.930 . S
H1587 C1579 0.929 . S
H1588 C1596 0.929 . S
H1589 C1598 0.930 . S
H1590 C1600 0.930 . S
H1591 C1603 0.929 . S
H1592 C1606 0.930 . S
H1593 C1608 0.960 . S
H1594 C1608 0.960 . S
H1595 C1608 0.960 . S
C1596 H1588 0.929 . S
C1596 C1597 1.377 . S
C1596 C1598 1.384 . S
C1597 C1596 1.377 . S
C1597 C1603 1.390 . S
C1598 H1589 0.930 . S
C1598 C1596 1.384 . S
C1598 C1599 1.372 . S
C1599 C1598 1.372 . S
C1599 C1600 1.400 . S
C1599 C1604 1.490 . S
C1600 H1590 0.930 . S
C1600 C1599 1.400 . S
C1600 C1603 1.386 . S
H1601 C1617 0.930 . S
H1602 C1618 0.931 . S
C1603 H1591 0.929 . S
C1603 C1597 1.390 . S
C1603 C1600 1.386 . S
C1604 C1599 1.490 . S
C1604 C1606 1.395 . S
C1604 C1607 1.403 . S
H1605 C1611 0.930 . S
C1606 H1592 0.930 . S
C1606 C1604 1.395 . S
C1606 C1609 1.403 . S
C1607 C1604 1.403 . S
C1607 C1608 1.524 . S
C1607 C1611 1.400 . S
C1608 H1593 0.960 . S
C1608 H1594 0.960 . S
C1608 H1595 0.960 . S
C1608 C1607 1.524 . S
C1609 C1606 1.403 . S
C1609 C1610 1.392 . S
C1609 C1613 1.495 . S
C1610 C1609 1.392 . S
C1610 C1611 1.385 . S
C1610 C1612 1.478 . S
C1611 H1605 0.930 . S
C1611 C1607 1.400 . S
C1611 C1610 1.385 . S
C1612 C1610 1.478 . S
C1612 C1614 1.381 . S
C1612 C1618 1.383 . S
C1613 C1609 1.495 . S
C1613 H1619 0.959 . S
C1613 H1620 0.961 . S
C1613 H1621 0.960 . S
C1614 C1612 1.381 . S
C1614 C1615 1.394 . S
C1614 H1622 0.930 . S
C1615 C1614 1.394 . S
C1615 C1616 1.383 . S
C1615 H1623 0.929 . S
C1616 C1615 1.383 . S
C1616 C1617 1.377 . S
C1617 H1601 0.930 . S
C1617 C1616 1.377 . S
C1617 C1618 1.379 . S
C1618 H1602 0.931 . S
C1618 C1612 1.383 . S
C1618 C1617 1.379 . S
H1619 C1613 0.959 . S
H1620 C1613 0.961 . S
H1621 C1613 0.960 . S
H1622 C1614 0.930 . S
H1623 C1615 0.929 . S
H1624 C1632 0.929 . S
H1625 C1634 0.930 . S
H1626 C1636 0.930 . S
H1627 C1639 0.929 . S
H1628 C1642 0.930 . S
H1629 C1644 0.960 . S
H1630 C1644 0.960 . S
H1631 C1644 0.960 . S
C1632 H1624 0.929 . S
C1632 C1633 1.377 . S
C1632 C1634 1.384 . S
C1633 C1632 1.377 . S
C1633 C1639 1.390 . S
C1634 H1625 0.930 . S
C1634 C1632 1.384 . S
C1634 C1635 1.372 . S
C1635 C1634 1.372 . S
C1635 C1636 1.400 . S
C1635 C1640 1.490 . S
C1636 H1626 0.930 . S
C1636 C1635 1.400 . S
C1636 C1639 1.386 . S
H1637 C1653 0.930 . S
H1638 C1654 0.931 . S
C1639 H1627 0.929 . S
C1639 C1633 1.390 . S
C1639 C1636 1.386 . S
C1640 C1635 1.490 . S
C1640 C1642 1.395 . S
C1640 C1643 1.403 . S
H1641 C1647 0.930 . S
C1642 H1628 0.930 . S
C1642 C1640 1.395 . S
C1642 C1645 1.403 . S
C1643 C1640 1.403 . S
C1643 C1644 1.524 . S
C1643 C1647 1.400 . S
C1644 H1629 0.960 . S
C1644 H1630 0.960 . S
C1644 H1631 0.960 . S
C1644 C1643 1.524 . S
C1645 C1642 1.403 . S
C1645 C1646 1.392 . S
C1645 C1649 1.495 . S
C1646 C1645 1.392 . S
C1646 C1647 1.385 . S
C1646 C1648 1.478 . S
C1647 H1641 0.930 . S
C1647 C1643 1.400 . S
C1647 C1646 1.385 . S
C1648 C1646 1.478 . S
C1648 C1650 1.381 . S
C1648 C1654 1.383 . S
C1649 C1645 1.495 . S
C1649 H1655 0.959 . S
C1649 H1656 0.961 . S
C1649 H1657 0.960 . S
C1650 C1648 1.381 . S
C1650 C1651 1.394 . S
C1650 H1658 0.930 . S
C1651 C1650 1.394 . S
C1651 C1652 1.383 . S
C1651 H1659 0.929 . S
C1652 C1651 1.383 . S
C1652 C1653 1.377 . S
C1653 H1637 0.930 . S
C1653 C1652 1.377 . S
C1653 C1654 1.379 . S
C1654 H1638 0.931 . S
C1654 C1648 1.383 . S
C1654 C1653 1.379 . S
H1655 C1649 0.959 . S
H1656 C1649 0.961 . S
H1657 C1649 0.960 . S
H1658 C1650 0.930 . S
H1659 C1651 0.929 . S
H1660 C1668 0.929 . S
H1661 C1670 0.930 . S
H1662 C1672 0.930 . S
H1663 C1675 0.929 . S
H1664 C1678 0.930 . S
H1665 C1680 0.960 . S
H1666 C1680 0.960 . S
H1667 C1680 0.960 . S
C1668 H1660 0.929 . S
C1668 C1669 1.377 . S
C1668 C1670 1.384 . S
C1669 C1668 1.377 . S
C1669 C1675 1.390 . S
C1670 H1661 0.930 . S
C1670 C1668 1.384 . S
C1670 C1671 1.372 . S
C1671 C1670 1.372 . S
C1671 C1672 1.400 . S
C1671 C1676 1.490 . S
C1672 H1662 0.930 . S
C1672 C1671 1.400 . S
C1672 C1675 1.386 . S
H1673 C1689 0.930 . S
H1674 C1690 0.931 . S
C1675 H1663 0.929 . S
C1675 C1669 1.390 . S
C1675 C1672 1.386 . S
C1676 C1671 1.490 . S
C1676 C1678 1.395 . S
C1676 C1679 1.403 . S
H1677 C1683 0.930 . S
C1678 H1664 0.930 . S
C1678 C1676 1.395 . S
C1678 C1681 1.403 . S
C1679 C1676 1.403 . S
C1679 C1680 1.524 . S
C1679 C1683 1.400 . S
C1680 H1665 0.960 . S
C1680 H1666 0.960 . S
C1680 H1667 0.960 . S
C1680 C1679 1.524 . S
C1681 C1678 1.403 . S
C1681 C1682 1.392 . S
C1681 C1685 1.495 . S
C1682 C1681 1.392 . S
C1682 C1683 1.385 . S
C1682 C1684 1.478 . S
C1683 H1677 0.930 . S
C1683 C1679 1.400 . S
C1683 C1682 1.385 . S
C1684 C1682 1.478 . S
C1684 C1686 1.381 . S
C1684 C1690 1.383 . S
C1685 C1681 1.495 . S
C1685 H1691 0.959 . S
C1685 H1692 0.961 . S
C1685 H1693 0.960 . S
C1686 C1684 1.381 . S
C1686 C1687 1.394 . S
C1686 H1694 0.930 . S
C1687 C1686 1.394 . S
C1687 C1688 1.383 . S
C1687 H1695 0.929 . S
C1688 C1687 1.383 . S
C1688 C1689 1.377 . S
C1689 H1673 0.930 . S
C1689 C1688 1.377 . S
C1689 C1690 1.379 . S
C1690 H1674 0.931 . S
C1690 C1684 1.383 . S
C1690 C1689 1.379 . S
H1691 C1685 0.959 . S
H1692 C1685 0.961 . S
H1693 C1685 0.960 . S
H1694 C1686 0.930 . S
H1695 C1687 0.929 . S
H1696 C1704 0.929 . S
H1697 C1706 0.930 . S
H1698 C1708 0.930 . S
H1699 C1711 0.929 . S
H1700 C1714 0.930 . S
H1701 C1716 0.960 . S
H1702 C1716 0.960 . S
H1703 C1716 0.960 . S
C1704 H1696 0.929 . S
C1704 C1705 1.377 . S
C1704 C1706 1.384 . S
C1705 C1704 1.377 . S
C1705 C1711 1.390 . S
C1706 H1697 0.930 . S
C1706 C1704 1.384 . S
C1706 C1707 1.372 . S
C1707 C1706 1.372 . S
C1707 C1708 1.400 . S
C1707 C1712 1.490 . S
C1708 H1698 0.930 . S
C1708 C1707 1.400 . S
C1708 C1711 1.386 . S
H1709 C1725 0.930 . S
H1710 C1726 0.931 . S
C1711 H1699 0.929 . S
C1711 C1705 1.390 . S
C1711 C1708 1.386 . S
C1712 C1707 1.490 . S
C1712 C1714 1.395 . S
C1712 C1715 1.403 . S
H1713 C1719 0.930 . S
C1714 H1700 0.930 . S
C1714 C1712 1.395 . S
C1714 C1717 1.403 . S
C1715 C1712 1.403 . S
C1715 C1716 1.524 . S
C1715 C1719 1.400 . S
C1716 H1701 0.960 . S
C1716 H1702 0.960 . S
C1716 H1703 0.960 . S
C1716 C1715 1.524 . S
C1717 C1714 1.403 . S
C1717 C1718 1.392 . S
C1717 C1721 1.495 . S
C1718 C1717 1.392 . S
C1718 C1719 1.385 . S
C1718 C1720 1.478 . S
C1719 H1713 0.930 . S
C1719 C1715 1.400 . S
C1719 C1718 1.385 . S
C1720 C1718 1.478 . S
C1720 C1722 1.381 . S
C1720 C1726 1.383 . S
C1721 C1717 1.495 . S
C1721 H1727 0.959 . S
C1721 H1728 0.961 . S
C1721 H1729 0.960 . S
C1722 C1720 1.381 . S
C1722 C1723 1.394 . S
C1722 H1730 0.930 . S
C1723 C1722 1.394 . S
C1723 C1724 1.383 . S
C1723 H1731 0.929 . S
C1724 C1723 1.383 . S
C1724 C1725 1.377 . S
C1725 H1709 0.930 . S
C1725 C1724 1.377 . S
C1725 C1726 1.379 . S
C1726 H1710 0.931 . S
C1726 C1720 1.383 . S
C1726 C1725 1.379 . S
H1727 C1721 0.959 . S
H1728 C1721 0.961 . S
H1729 C1721 0.960 . S
H1730 C1722 0.930 . S
H1731 C1723 0.929 . S
H1732 C1740 0.929 . S
H1733 C1742 0.930 . S
H1734 C1744 0.930 . S
H1735 C1747 0.929 . S
H1736 C1750 0.930 . S
H1737 C1752 0.960 . S
H1738 C1752 0.960 . S
H1739 C1752 0.960 . S
C1740 H1732 0.929 . S
C1740 C1741 1.377 . S
C1740 C1742 1.384 . S
C1741 C1740 1.377 . S
C1741 C1747 1.390 . S
C1742 H1733 0.930 . S
C1742 C1740 1.384 . S
C1742 C1743 1.372 . S
C1743 C1742 1.372 . S
C1743 C1744 1.400 . S
C1743 C1748 1.490 . S
C1744 H1734 0.930 . S
C1744 C1743 1.400 . S
C1744 C1747 1.386 . S
H1745 C1761 0.930 . S
H1746 C1762 0.931 . S
C1747 H1735 0.929 . S
C1747 C1741 1.390 . S
C1747 C1744 1.386 . S
C1748 C1743 1.490 . S
C1748 C1750 1.395 . S
C1748 C1751 1.403 . S
H1749 C1755 0.930 . S
C1750 H1736 0.930 . S
C1750 C1748 1.395 . S
C1750 C1753 1.403 . S
C1751 C1748 1.403 . S
C1751 C1752 1.524 . S
C1751 C1755 1.400 . S
C1752 H1737 0.960 . S
C1752 H1738 0.960 . S
C1752 H1739 0.960 . S
C1752 C1751 1.524 . S
C1753 C1750 1.403 . S
C1753 C1754 1.392 . S
C1753 C1757 1.495 . S
C1754 C1753 1.392 . S
C1754 C1755 1.385 . S
C1754 C1756 1.478 . S
C1755 H1749 0.930 . S
C1755 C1751 1.400 . S
C1755 C1754 1.385 . S
C1756 C1754 1.478 . S
C1756 C1758 1.381 . S
C1756 C1762 1.383 . S
C1757 C1753 1.495 . S
C1757 H1763 0.959 . S
C1757 H1764 0.961 . S
C1757 H1765 0.960 . S
C1758 C1756 1.381 . S
C1758 C1759 1.394 . S
C1758 H1766 0.930 . S
C1759 C1758 1.394 . S
C1759 C1760 1.383 . S
C1759 H1767 0.929 . S
C1760 C1759 1.383 . S
C1760 C1761 1.377 . S
C1761 H1745 0.930 . S
C1761 C1760 1.377 . S
C1761 C1762 1.379 . S
C1762 H1746 0.931 . S
C1762 C1756 1.383 . S
C1762 C1761 1.379 . S
H1763 C1757 0.959 . S
H1764 C1757 0.961 . S
H1765 C1757 0.960 . S
H1766 C1758 0.930 . S
H1767 C1759 0.929 . S
H1768 C1776 0.929 . S
H1769 C1778 0.930 . S
H1770 C1780 0.930 . S
H1771 C1783 0.929 . S
H1772 C1786 0.930 . S
H1773 C1788 0.960 . S
H1774 C1788 0.960 . S
H1775 C1788 0.960 . S
C1776 H1768 0.929 . S
C1776 C1777 1.377 . S
C1776 C1778 1.384 . S
C1777 C1776 1.377 . S
C1777 C1783 1.390 . S
C1778 H1769 0.930 . S
C1778 C1776 1.384 . S
C1778 C1779 1.372 . S
C1779 C1778 1.372 . S
C1779 C1780 1.400 . S
C1779 C1784 1.490 . S
C1780 H1770 0.930 . S
C1780 C1779 1.400 . S
C1780 C1783 1.386 . S
H1781 C1797 0.930 . S
H1782 C1798 0.931 . S
C1783 H1771 0.929 . S
C1783 C1777 1.390 . S
C1783 C1780 1.386 . S
C1784 C1779 1.490 . S
C1784 C1786 1.395 . S
C1784 C1787 1.403 . S
H1785 C1791 0.930 . S
C1786 H1772 0.930 . S
C1786 C1784 1.395 . S
C1786 C1789 1.403 . S
C1787 C1784 1.403 . S
C1787 C1788 1.524 . S
C1787 C1791 1.400 . S
C1788 H1773 0.960 . S
C1788 H1774 0.960 . S
C1788 H1775 0.960 . S
C1788 C1787 1.524 . S
C1789 C1786 1.403 . S
C1789 C1790 1.392 . S
C1789 C1793 1.495 . S
C1790 C1789 1.392 . S
C1790 C1791 1.385 . S
C1790 C1792 1.478 . S
C1791 H1785 0.930 . S
C1791 C1787 1.400 . S
C1791 C1790 1.385 . S
C1792 C1790 1.478 . S
C1792 C1794 1.381 . S
C1792 C1798 1.383 . S
C1793 C1789 1.495 . S
C1793 H1799 0.959 . S
C1793 H1800 0.961 . S
C1793 H1801 0.960 . S
C1794 C1792 1.381 . S
C1794 C1795 1.394 . S
C1794 H1802 0.930 . S
C1795 C1794 1.394 . S
C1795 C1796 1.383 . S
C1795 H1803 0.929 . S
C1796 C1795 1.383 . S
C1796 C1797 1.377 . S
C1797 H1781 0.930 . S
C1797 C1796 1.377 . S
C1797 C1798 1.379 . S
C1798 H1782 0.931 . S
C1798 C1792 1.383 . S
C1798 C1797 1.379 . S
H1799 C1793 0.959 . S
H1800 C1793 0.961 . S
H1801 C1793 0.960 . S
H1802 C1794 0.930 . S
H1803 C1795 0.929 . S
H1804 C1812 0.929 . S
H1805 C1814 0.930 . S
H1806 C1816 0.930 . S
H1807 C1819 0.929 . S
H1808 C1822 0.930 . S
H1809 C1824 0.960 . S
H1810 C1824 0.960 . S
H1811 C1824 0.960 . S
C1812 H1804 0.929 . S
C1812 C1813 1.377 . S
C1812 C1814 1.384 . S
C1813 C1812 1.377 . S
C1813 C1819 1.390 . S
C1814 H1805 0.930 . S
C1814 C1812 1.384 . S
C1814 C1815 1.372 . S
C1815 C1814 1.372 . S
C1815 C1816 1.400 . S
C1815 C1820 1.490 . S
C1816 H1806 0.930 . S
C1816 C1815 1.400 . S
C1816 C1819 1.386 . S
H1817 C1833 0.930 . S
H1818 C1834 0.931 . S
C1819 H1807 0.929 . S
C1819 C1813 1.390 . S
C1819 C1816 1.386 . S
C1820 C1815 1.490 . S
C1820 C1822 1.395 . S
C1820 C1823 1.403 . S
H1821 C1827 0.930 . S
C1822 H1808 0.930 . S
C1822 C1820 1.395 . S
C1822 C1825 1.403 . S
C1823 C1820 1.403 . S
C1823 C1824 1.524 . S
C1823 C1827 1.400 . S
C1824 H1809 0.960 . S
C1824 H1810 0.960 . S
C1824 H1811 0.960 . S
C1824 C1823 1.524 . S
C1825 C1822 1.403 . S
C1825 C1826 1.392 . S
C1825 C1829 1.495 . S
C1826 C1825 1.392 . S
C1826 C1827 1.385 . S
C1826 C1828 1.478 . S
C1827 H1821 0.930 . S
C1827 C1823 1.400 . S
C1827 C1826 1.385 . S
C1828 C1826 1.478 . S
C1828 C1830 1.381 . S
C1828 C1834 1.383 . S
C1829 C1825 1.495 . S
C1829 H1835 0.959 . S
C1829 H1836 0.961 . S
C1829 H1837 0.960 . S
C1830 C1828 1.381 . S
C1830 C1831 1.394 . S
C1830 H1838 0.930 . S
C1831 C1830 1.394 . S
C1831 C1832 1.383 . S
C1831 H1839 0.929 . S
C1832 C1831 1.383 . S
C1832 C1833 1.377 . S
C1833 H1817 0.930 . S
C1833 C1832 1.377 . S
C1833 C1834 1.379 . S
C1834 H1818 0.931 . S
C1834 C1828 1.383 . S
C1834 C1833 1.379 . S
H1835 C1829 0.959 . S
H1836 C1829 0.961 . S
H1837 C1829 0.960 . S
H1838 C1830 0.930 . S
H1839 C1831 0.929 . S
H1840 C1848 0.929 . S
H1841 C1850 0.930 . S
H1842 C1852 0.930 . S
H1843 C1855 0.929 . S
H1844 C1858 0.930 . S
H1845 C1860 0.960 . S
H1846 C1860 0.960 . S
H1847 C1860 0.960 . S
C1848 H1840 0.929 . S
C1848 C1849 1.377 . S
C1848 C1850 1.384 . S
C1849 C1848 1.377 . S
C1849 C1855 1.390 . S
C1850 H1841 0.930 . S
C1850 C1848 1.384 . S
C1850 C1851 1.372 . S
C1851 C1850 1.372 . S
C1851 C1852 1.400 . S
C1851 C1856 1.490 . S
C1852 H1842 0.930 . S
C1852 C1851 1.400 . S
C1852 C1855 1.386 . S
H1853 C1869 0.930 . S
H1854 C1870 0.931 . S
C1855 H1843 0.929 . S
C1855 C1849 1.390 . S
C1855 C1852 1.386 . S
C1856 C1851 1.490 . S
C1856 C1858 1.395 . S
C1856 C1859 1.403 . S
H1857 C1863 0.930 . S
C1858 H1844 0.930 . S
C1858 C1856 1.395 . S
C1858 C1861 1.403 . S
C1859 C1856 1.403 . S
C1859 C1860 1.524 . S
C1859 C1863 1.400 . S
C1860 H1845 0.960 . S
C1860 H1846 0.960 . S
C1860 H1847 0.960 . S
C1860 C1859 1.524 . S
C1861 C1858 1.403 . S
C1861 C1862 1.392 . S
C1861 C1865 1.495 . S
C1862 C1861 1.392 . S
C1862 C1863 1.385 . S
C1862 C1864 1.478 . S
C1863 H1857 0.930 . S
C1863 C1859 1.400 . S
C1863 C1862 1.385 . S
C1864 C1862 1.478 . S
C1864 C1866 1.381 . S
C1864 C1870 1.383 . S
C1865 C1861 1.495 . S
C1865 H1871 0.959 . S
C1865 H1872 0.961 . S
C1865 H1873 0.960 . S
C1866 C1864 1.381 . S
C1866 C1867 1.394 . S
C1866 H1874 0.930 . S
C1867 C1866 1.394 . S
C1867 C1868 1.383 . S
C1867 H1875 0.929 . S
C1868 C1867 1.383 . S
C1868 C1869 1.377 . S
C1869 H1853 0.930 . S
C1869 C1868 1.377 . S
C1869 C1870 1.379 . S
C1870 H1854 0.931 . S
C1870 C1864 1.383 . S
C1870 C1869 1.379 . S
H1871 C1865 0.959 . S
H1872 C1865 0.961 . S
H1873 C1865 0.960 . S
H1874 C1866 0.930 . S
H1875 C1867 0.929 . S
H1876 C1884 0.929 . S
H1877 C1886 0.930 . S
H1878 C1888 0.930 . S
H1879 C1891 0.929 . S
H1880 C1894 0.930 . S
H1881 C1896 0.960 . S
H1882 C1896 0.960 . S
H1883 C1896 0.960 . S
C1884 H1876 0.929 . S
C1884 C1885 1.377 . S
C1884 C1886 1.384 . S
C1885 C1884 1.377 . S
C1885 C1891 1.390 . S
C1886 H1877 0.930 . S
C1886 C1884 1.384 . S
C1886 C1887 1.372 . S
C1887 C1886 1.372 . S
C1887 C1888 1.400 . S
C1887 C1892 1.490 . S
C1888 H1878 0.930 . S
C1888 C1887 1.400 . S
C1888 C1891 1.386 . S
H1889 C1905 0.930 . S
H1890 C1906 0.931 . S
C1891 H1879 0.929 . S
C1891 C1885 1.390 . S
C1891 C1888 1.386 . S
C1892 C1887 1.490 . S
C1892 C1894 1.395 . S
C1892 C1895 1.403 . S
H1893 C1899 0.930 . S
C1894 H1880 0.930 . S
C1894 C1892 1.395 . S
C1894 C1897 1.403 . S
C1895 C1892 1.403 . S
C1895 C1896 1.524 . S
C1895 C1899 1.400 . S
C1896 H1881 0.960 . S
C1896 H1882 0.960 . S
C1896 H1883 0.960 . S
C1896 C1895 1.524 . S
C1897 C1894 1.403 . S
C1897 C1898 1.392 . S
C1897 C1901 1.495 . S
C1898 C1897 1.392 . S
C1898 C1899 1.385 . S
C1898 C1900 1.478 . S
C1899 H1893 0.930 . S
C1899 C1895 1.400 . S
C1899 C1898 1.385 . S
C1900 C1898 1.478 . S
C1900 C1902 1.381 . S
C1900 C1906 1.383 . S
C1901 C1897 1.495 . S
C1901 H1907 0.959 . S
C1901 H1908 0.961 . S
C1901 H1909 0.960 . S
C1902 C1900 1.381 . S
C1902 C1903 1.394 . S
C1902 H1910 0.930 . S
C1903 C1902 1.394 . S
C1903 C1904 1.383 . S
C1903 H1911 0.929 . S
C1904 C1903 1.383 . S
C1904 C1905 1.377 . S
C1905 H1889 0.930 . S
C1905 C1904 1.377 . S
C1905 C1906 1.379 . S
C1906 H1890 0.931 . S
C1906 C1900 1.383 . S
C1906 C1905 1.379 . S
H1907 C1901 0.959 . S
H1908 C1901 0.961 . S
H1909 C1901 0.960 . S
H1910 C1902 0.930 . S
H1911 C1903 0.929 . S
H1912 C1920 0.929 . S
H1913 C1922 0.930 . S
H1914 C1924 0.930 . S
H1915 C1927 0.929 . S
H1916 C1930 0.930 . S
H1917 C1932 0.960 . S
H1918 C1932 0.960 . S
H1919 C1932 0.960 . S
C1920 H1912 0.929 . S
C1920 C1921 1.377 . S
C1920 C1922 1.384 . S
C1921 C1920 1.377 . S
C1921 C1927 1.390 . S
C1922 H1913 0.930 . S
C1922 C1920 1.384 . S
C1922 C1923 1.372 . S
C1923 C1922 1.372 . S
C1923 C1924 1.400 . S
C1923 C1928 1.490 . S
C1924 H1914 0.930 . S
C1924 C1923 1.400 . S
C1924 C1927 1.386 . S
H1925 C1941 0.930 . S
H1926 C1942 0.931 . S
C1927 H1915 0.929 . S
C1927 C1921 1.390 . S
C1927 C1924 1.386 . S
C1928 C1923 1.490 . S
C1928 C1930 1.395 . S
C1928 C1931 1.403 . S
H1929 C1935 0.930 . S
C1930 H1916 0.930 . S
C1930 C1928 1.395 . S
C1930 C1933 1.403 . S
C1931 C1928 1.403 . S
C1931 C1932 1.524 . S
C1931 C1935 1.400 . S
C1932 H1917 0.960 . S
C1932 H1918 0.960 . S
C1932 H1919 0.960 . S
C1932 C1931 1.524 . S
C1933 C1930 1.403 . S
C1933 C1934 1.392 . S
C1933 C1937 1.495 . S
C1934 C1933 1.392 . S
C1934 C1935 1.385 . S
C1934 C1936 1.478 . S
C1935 H1929 0.930 . S
C1935 C1931 1.400 . S
C1935 C1934 1.385 . S
C1936 C1934 1.478 . S
C1936 C1938 1.381 . S
C1936 C1942 1.383 . S
C1937 C1933 1.495 . S
C1937 H1943 0.959 . S
C1937 H1944 0.961 . S
C1937 H1945 0.960 . S
C1938 C1936 1.381 . S
C1938 C1939 1.394 . S
C1938 H1946 0.930 . S
C1939 C1938 1.394 . S
C1939 C1940 1.383 . S
C1939 H1947 0.929 . S
C1940 C1939 1.383 . S
C1940 C1941 1.377 . S
C1941 H1925 0.930 . S
C1941 C1940 1.377 . S
C1941 C1942 1.379 . S
C1942 H1926 0.931 . S
C1942 C1936 1.383 . S
C1942 C1941 1.379 . S
H1943 C1937 0.959 . S
H1944 C1937 0.961 . S
H1945 C1937 0.960 . S
H1946 C1938 0.930 . S
H1947 C1939 0.929 . S
H1948 C1956 0.929 . S
H1949 C1958 0.930 . S
H1950 C1960 0.930 . S
H1951 C1963 0.929 . S
H1952 C1966 0.930 . S
H1953 C1968 0.960 . S
H1954 C1968 0.960 . S
H1955 C1968 0.960 . S
C1956 H1948 0.929 . S
C1956 C1957 1.377 . S
C1956 C1958 1.384 . S
C1957 C1956 1.377 . S
C1957 C1963 1.390 . S
C1958 H1949 0.930 . S
C1958 C1956 1.384 . S
C1958 C1959 1.372 . S
C1959 C1958 1.372 . S
C1959 C1960 1.400 . S
C1959 C1964 1.490 . S
C1960 H1950 0.930 . S
C1960 C1959 1.400 . S
C1960 C1963 1.386 . S
H1961 C1977 0.930 . S
H1962 C1978 0.931 . S
C1963 H1951 0.929 . S
C1963 C1957 1.390 . S
C1963 C1960 1.386 . S
C1964 C1959 1.490 . S
C1964 C1966 1.395 . S
C1964 C1967 1.403 . S
H1965 C1971 0.930 . S
C1966 H1952 0.930 . S
C1966 C1964 1.395 . S
C1966 C1969 1.403 . S
C1967 C1964 1.403 . S
C1967 C1968 1.524 . S
C1967 C1971 1.400 . S
C1968 H1953 0.960 . S
C1968 H1954 0.960 . S
C1968 H1955 0.960 . S
C1968 C1967 1.524 . S
C1969 C1966 1.403 . S
C1969 C1970 1.392 . S
C1969 C1973 1.495 . S
C1970 C1969 1.392 . S
C1970 C1971 1.385 . S
C1970 C1972 1.478 . S
C1971 H1965 0.930 . S
C1971 C1967 1.400 . S
C1971 C1970 1.385 . S
C1972 C1970 1.478 . S
C1972 C1974 1.381 . S
C1972 C1978 1.383 . S
C1973 C1969 1.495 . S
C1973 H1979 0.959 . S
C1973 H1980 0.961 . S
C1973 H1981 0.960 . S
C1974 C1972 1.381 . S
C1974 C1975 1.394 . S
C1974 H1982 0.930 . S
C1975 C1974 1.394 . S
C1975 C1976 1.383 . S
C1975 H1983 0.929 . S
C1976 C1975 1.383 . S
C1976 C1977 1.377 . S
C1977 H1961 0.930 . S
C1977 C1976 1.377 . S
C1977 C1978 1.379 . S
C1978 H1962 0.931 . S
C1978 C1972 1.383 . S
C1978 C1977 1.379 . S
H1979 C1973 0.959 . S
H1980 C1973 0.961 . S
H1981 C1973 0.960 . S
H1982 C1974 0.930 . S
H1983 C1975 0.929 . S
H1984 C1992 0.929 . S
H1985 C1994 0.930 . S
H1986 C1996 0.930 . S
H1987 C1999 0.929 . S
H1988 C2002 0.930 . S
H1989 C2004 0.960 . S
H1990 C2004 0.960 . S
H1991 C2004 0.960 . S
C1992 H1984 0.929 . S
C1992 C1993 1.377 . S
C1992 C1994 1.384 . S
C1993 C1992 1.377 . S
C1993 C1999 1.390 . S
C1994 H1985 0.930 . S
C1994 C1992 1.384 . S
C1994 C1995 1.372 . S
C1995 C1994 1.372 . S
C1995 C1996 1.400 . S
C1995 C2000 1.490 . S
C1996 H1986 0.930 . S
C1996 C1995 1.400 . S
C1996 C1999 1.386 . S
H1997 C2013 0.930 . S
H1998 C2014 0.931 . S
C1999 H1987 0.929 . S
C1999 C1993 1.390 . S
C1999 C1996 1.386 . S
C2000 C1995 1.490 . S
C2000 C2002 1.395 . S
C2000 C2003 1.403 . S
H2001 C2007 0.930 . S
C2002 H1988 0.930 . S
C2002 C2000 1.395 . S
C2002 C2005 1.403 . S
C2003 C2000 1.403 . S
C2003 C2004 1.524 . S
C2003 C2007 1.400 . S
C2004 H1989 0.960 . S
C2004 H1990 0.960 . S
C2004 H1991 0.960 . S
C2004 C2003 1.524 . S
C2005 C2002 1.403 . S
C2005 C2006 1.392 . S
C2005 C2009 1.495 . S
C2006 C2005 1.392 . S
C2006 C2007 1.385 . S
C2006 C2008 1.478 . S
C2007 H2001 0.930 . S
C2007 C2003 1.400 . S
C2007 C2006 1.385 . S
C2008 C2006 1.478 . S
C2008 C2010 1.381 . S
C2008 C2014 1.383 . S
C2009 C2005 1.495 . S
C2009 H2015 0.959 . S
C2009 H2016 0.961 . S
C2009 H2017 0.960 . S
C2010 C2008 1.381 . S
C2010 C2011 1.394 . S
C2010 H2018 0.930 . S
C2011 C2010 1.394 . S
C2011 C2012 1.383 . S
C2011 H2019 0.929 . S
C2012 C2011 1.383 . S
C2012 C2013 1.377 . S
C2013 H1997 0.930 . S
C2013 C2012 1.377 . S
C2013 C2014 1.379 . S
C2014 H1998 0.931 . S
C2014 C2008 1.383 . S
C2014 C2013 1.379 . S
H2015 C2009 0.959 . S
H2016 C2009 0.961 . S
H2017 C2009 0.960 . S
H2018 C2010 0.930 . S
H2019 C2011 0.929 . S
H2020 C2028 0.929 . S
H2021 C2030 0.930 . S
H2022 C2032 0.930 . S
H2023 C2035 0.929 . S
H2024 C2038 0.930 . S
H2025 C2040 0.960 . S
H2026 C2040 0.960 . S
H2027 C2040 0.960 . S
C2028 H2020 0.929 . S
C2028 C2029 1.377 . S
C2028 C2030 1.384 . S
C2029 C2028 1.377 . S
C2029 C2035 1.390 . S
C2030 H2021 0.930 . S
C2030 C2028 1.384 . S
C2030 C2031 1.372 . S
C2031 C2030 1.372 . S
C2031 C2032 1.400 . S
C2031 C2036 1.490 . S
C2032 H2022 0.930 . S
C2032 C2031 1.400 . S
C2032 C2035 1.386 . S
H2033 C2049 0.930 . S
H2034 C2050 0.931 . S
C2035 H2023 0.929 . S
C2035 C2029 1.390 . S
C2035 C2032 1.386 . S
C2036 C2031 1.490 . S
C2036 C2038 1.395 . S
C2036 C2039 1.403 . S
H2037 C2043 0.930 . S
C2038 H2024 0.930 . S
C2038 C2036 1.395 . S
C2038 C2041 1.403 . S
C2039 C2036 1.403 . S
C2039 C2040 1.524 . S
C2039 C2043 1.400 . S
C2040 H2025 0.960 . S
C2040 H2026 0.960 . S
C2040 H2027 0.960 . S
C2040 C2039 1.524 . S
C2041 C2038 1.403 . S
C2041 C2042 1.392 . S
C2041 C2045 1.495 . S
C2042 C2041 1.392 . S
C2042 C2043 1.385 . S
C2042 C2044 1.478 . S
C2043 H2037 0.930 . S
C2043 C2039 1.400 . S
C2043 C2042 1.385 . S
C2044 C2042 1.478 . S
C2044 C2046 1.381 . S
C2044 C2050 1.383 . S
C2045 C2041 1.495 . S
C2045 H2051 0.959 . S
C2045 H2052 0.961 . S
C2045 H2053 0.960 . S
C2046 C2044 1.381 . S
C2046 C2047 1.394 . S
C2046 H2054 0.930 . S
C2047 C2046 1.394 . S
C2047 C2048 1.383 . S
C2047 H2055 0.929 . S
C2048 C2047 1.383 . S
C2048 C2049 1.377 . S
C2049 H2033 0.930 . S
C2049 C2048 1.377 . S
C2049 C2050 1.379 . S
C2050 H2034 0.931 . S
C2050 C2044 1.383 . S
C2050 C2049 1.379 . S
H2051 C2045 0.959 . S
H2052 C2045 0.961 . S
H2053 C2045 0.960 . S
H2054 C2046 0.930 . S
H2055 C2047 0.929 . S
H2056 C2064 0.929 . S
H2057 C2066 0.930 . S
H2058 C2068 0.930 . S
H2059 C2071 0.929 . S
H2060 C2074 0.930 . S
H2061 C2076 0.960 . S
H2062 C2076 0.960 . S
H2063 C2076 0.960 . S
C2064 H2056 0.929 . S
C2064 C2065 1.377 . S
C2064 C2066 1.384 . S
C2065 C2064 1.377 . S
C2065 C2071 1.390 . S
C2066 H2057 0.930 . S
C2066 C2064 1.384 . S
C2066 C2067 1.372 . S
C2067 C2066 1.372 . S
C2067 C2068 1.400 . S
C2067 C2072 1.490 . S
C2068 H2058 0.930 . S
C2068 C2067 1.400 . S
C2068 C2071 1.386 . S
H2069 C2085 0.930 . S
H2070 C2086 0.931 . S
C2071 H2059 0.929 . S
C2071 C2065 1.390 . S
C2071 C2068 1.386 . S
C2072 C2067 1.490 . S
C2072 C2074 1.395 . S
C2072 C2075 1.403 . S
H2073 C2079 0.930 . S
C2074 H2060 0.930 . S
C2074 C2072 1.395 . S
C2074 C2077 1.403 . S
C2075 C2072 1.403 . S
C2075 C2076 1.524 . S
C2075 C2079 1.400 . S
C2076 H2061 0.960 . S
C2076 H2062 0.960 . S
C2076 H2063 0.960 . S
C2076 C2075 1.524 . S
C2077 C2074 1.403 . S
C2077 C2078 1.392 . S
C2077 C2081 1.495 . S
C2078 C2077 1.392 . S
C2078 C2079 1.385 . S
C2078 C2080 1.478 . S
C2079 H2073 0.930 . S
C2079 C2075 1.400 . S
C2079 C2078 1.385 . S
C2080 C2078 1.478 . S
C2080 C2082 1.381 . S
C2080 C2086 1.383 . S
C2081 C2077 1.495 . S
C2081 H2087 0.959 . S
C2081 H2088 0.961 . S
C2081 H2089 0.960 . S
C2082 C2080 1.381 . S
C2082 C2083 1.394 . S
C2082 H2090 0.930 . S
C2083 C2082 1.394 . S
C2083 C2084 1.383 . S
C2083 H2091 0.929 . S
C2084 C2083 1.383 . S
C2084 C2085 1.377 . S
C2085 H2069 0.930 . S
C2085 C2084 1.377 . S
C2085 C2086 1.379 . S
C2086 H2070 0.931 . S
C2086 C2080 1.383 . S
C2086 C2085 1.379 . S
H2087 C2081 0.959 . S
H2088 C2081 0.961 . S
H2089 C2081 0.960 . S
H2090 C2082 0.930 . S
H2091 C2083 0.929 . S
H2092 C2100 0.929 . S
H2093 C2102 0.930 . S
H2094 C2104 0.930 . S
H2095 C2107 0.929 . S
H2096 C2110 0.930 . S
H2097 C2112 0.960 . S
H2098 C2112 0.960 . S
H2099 C2112 0.960 . S
C2100 H2092 0.929 . S
C2100 C2101 1.377 . S
C2100 C2102 1.384 . S
C2101 C2100 1.377 . S
C2101 C2107 1.390 . S
C2102 H2093 0.930 . S
C2102 C2100 1.384 . S
C2102 C2103 1.372 . S
C2103 C2102 1.372 . S
C2103 C2104 1.400 . S
C2103 C2108 1.490 . S
C2104 H2094 0.930 . S
C2104 C2103 1.400 . S
C2104 C2107 1.386 . S
H2105 C2121 0.930 . S
H2106 C2122 0.931 . S
C2107 H2095 0.929 . S
C2107 C2101 1.390 . S
C2107 C2104 1.386 . S
C2108 C2103 1.490 . S
C2108 C2110 1.395 . S
C2108 C2111 1.403 . S
H2109 C2115 0.930 . S
C2110 H2096 0.930 . S
C2110 C2108 1.395 . S
C2110 C2113 1.403 . S
C2111 C2108 1.403 . S
C2111 C2112 1.524 . S
C2111 C2115 1.400 . S
C2112 H2097 0.960 . S
C2112 H2098 0.960 . S
C2112 H2099 0.960 . S
C2112 C2111 1.524 . S
C2113 C2110 1.403 . S
C2113 C2114 1.392 . S
C2113 C2117 1.495 . S
C2114 C2113 1.392 . S
C2114 C2115 1.385 . S
C2114 C2116 1.478 . S
C2115 H2109 0.930 . S
C2115 C2111 1.400 . S
C2115 C2114 1.385 . S
C2116 C2114 1.478 . S
C2116 C2118 1.381 . S
C2116 C2122 1.383 . S
C2117 C2113 1.495 . S
C2117 H2123 0.959 . S
C2117 H2124 0.961 . S
C2117 H2125 0.960 . S
C2118 C2116 1.381 . S
C2118 C2119 1.394 . S
C2118 H2126 0.930 . S
C2119 C2118 1.394 . S
C2119 C2120 1.383 . S
C2119 H2127 0.929 . S
C2120 C2119 1.383 . S
C2120 C2121 1.377 . S
C2121 H2105 0.930 . S
C2121 C2120 1.377 . S
C2121 C2122 1.379 . S
C2122 H2106 0.931 . S
C2122 C2116 1.383 . S
C2122 C2121 1.379 . S
H2123 C2117 0.959 . S
H2124 C2117 0.961 . S
H2125 C2117 0.960 . S
H2126 C2118 0.930 . S
H2127 C2119 0.929 . S
H2128 C2136 0.929 . S
H2129 C2138 0.930 . S
H2130 C2140 0.930 . S
H2131 C2143 0.929 . S
H2132 C2146 0.930 . S
H2133 C2148 0.960 . S
H2134 C2148 0.960 . S
H2135 C2148 0.960 . S
C2136 H2128 0.929 . S
C2136 C2137 1.377 . S
C2136 C2138 1.384 . S
C2137 C2136 1.377 . S
C2137 C2143 1.390 . S
C2138 H2129 0.930 . S
C2138 C2136 1.384 . S
C2138 C2139 1.372 . S
C2139 C2138 1.372 . S
C2139 C2140 1.400 . S
C2139 C2144 1.490 . S
C2140 H2130 0.930 . S
C2140 C2139 1.400 . S
C2140 C2143 1.386 . S
H2141 C2157 0.930 . S
H2142 C2158 0.931 . S
C2143 H2131 0.929 . S
C2143 C2137 1.390 . S
C2143 C2140 1.386 . S
C2144 C2139 1.490 . S
C2144 C2146 1.395 . S
C2144 C2147 1.403 . S
H2145 C2151 0.930 . S
C2146 H2132 0.930 . S
C2146 C2144 1.395 . S
C2146 C2149 1.403 . S
C2147 C2144 1.403 . S
C2147 C2148 1.524 . S
C2147 C2151 1.400 . S
C2148 H2133 0.960 . S
C2148 H2134 0.960 . S
C2148 H2135 0.960 . S
C2148 C2147 1.524 . S
C2149 C2146 1.403 . S
C2149 C2150 1.392 . S
C2149 C2153 1.495 . S
C2150 C2149 1.392 . S
C2150 C2151 1.385 . S
C2150 C2152 1.478 . S
C2151 H2145 0.930 . S
C2151 C2147 1.400 . S
C2151 C2150 1.385 . S
C2152 C2150 1.478 . S
C2152 C2154 1.381 . S
C2152 C2158 1.383 . S
C2153 C2149 1.495 . S
C2153 H2159 0.959 . S
C2153 H2160 0.961 . S
C2153 H2161 0.960 . S
C2154 C2152 1.381 . S
C2154 C2155 1.394 . S
C2154 H2162 0.930 . S
C2155 C2154 1.394 . S
C2155 C2156 1.383 . S
C2155 H2163 0.929 . S
C2156 C2155 1.383 . S
C2156 C2157 1.377 . S
C2157 H2141 0.930 . S
C2157 C2156 1.377 . S
C2157 C2158 1.379 . S
C2158 H2142 0.931 . S
C2158 C2152 1.383 . S
C2158 C2157 1.379 . S
H2159 C2153 0.959 . S
H2160 C2153 0.961 . S
H2161 C2153 0.960 . S
H2162 C2154 0.930 . S
H2163 C2155 0.929 . S
H2164 C2172 0.929 . S
H2165 C2174 0.930 . S
H2166 C2176 0.930 . S
H2167 C2179 0.929 . S
H2168 C2182 0.930 . S
H2169 C2184 0.960 . S
H2170 C2184 0.960 . S
H2171 C2184 0.960 . S
C2172 H2164 0.929 . S
C2172 C2173 1.377 . S
C2172 C2174 1.384 . S
C2173 C2172 1.377 . S
C2173 C2179 1.390 . S
C2174 H2165 0.930 . S
C2174 C2172 1.384 . S
C2174 C2175 1.372 . S
C2175 C2174 1.372 . S
C2175 C2176 1.400 . S
C2175 C2180 1.490 . S
C2176 H2166 0.930 . S
C2176 C2175 1.400 . S
C2176 C2179 1.386 . S
H2177 C2193 0.930 . S
H2178 C2194 0.931 . S
C2179 H2167 0.929 . S
C2179 C2173 1.390 . S
C2179 C2176 1.386 . S
C2180 C2175 1.490 . S
C2180 C2182 1.395 . S
C2180 C2183 1.403 . S
H2181 C2187 0.930 . S
C2182 H2168 0.930 . S
C2182 C2180 1.395 . S
C2182 C2185 1.403 . S
C2183 C2180 1.403 . S
C2183 C2184 1.524 . S
C2183 C2187 1.400 . S
C2184 H2169 0.960 . S
C2184 H2170 0.960 . S
C2184 H2171 0.960 . S
C2184 C2183 1.524 . S
C2185 C2182 1.403 . S
C2185 C2186 1.392 . S
C2185 C2189 1.495 . S
C2186 C2185 1.392 . S
C2186 C2187 1.385 . S
C2186 C2188 1.478 . S
C2187 H2181 0.930 . S
C2187 C2183 1.400 . S
C2187 C2186 1.385 . S
C2188 C2186 1.478 . S
C2188 C2190 1.381 . S
C2188 C2194 1.383 . S
C2189 C2185 1.495 . S
C2189 H2195 0.959 . S
C2189 H2196 0.961 . S
C2189 H2197 0.960 . S
C2190 C2188 1.381 . S
C2190 C2191 1.394 . S
C2190 H2198 0.930 . S
C2191 C2190 1.394 . S
C2191 C2192 1.383 . S
C2191 H2199 0.929 . S
C2192 C2191 1.383 . S
C2192 C2193 1.377 . S
C2193 H2177 0.930 . S
C2193 C2192 1.377 . S
C2193 C2194 1.379 . S
C2194 H2178 0.931 . S
C2194 C2188 1.383 . S
C2194 C2193 1.379 . S
H2195 C2189 0.959 . S
H2196 C2189 0.961 . S
H2197 C2189 0.960 . S
H2198 C2190 0.930 . S
H2199 C2191 0.929 . S
H2200 C2208 0.929 . S
H2201 C2210 0.930 . S
H2202 C2212 0.930 . S
H2203 C2215 0.929 . S
H2204 C2218 0.930 . S
H2205 C2220 0.960 . S
H2206 C2220 0.960 . S
H2207 C2220 0.960 . S
C2208 H2200 0.929 . S
C2208 C2209 1.377 . S
C2208 C2210 1.384 . S
C2209 C2208 1.377 . S
C2209 C2215 1.390 . S
C2210 H2201 0.930 . S
C2210 C2208 1.384 . S
C2210 C2211 1.372 . S
C2211 C2210 1.372 . S
C2211 C2212 1.400 . S
C2211 C2216 1.490 . S
C2212 H2202 0.930 . S
C2212 C2211 1.400 . S
C2212 C2215 1.386 . S
H2213 C2229 0.930 . S
H2214 C2230 0.931 . S
C2215 H2203 0.929 . S
C2215 C2209 1.390 . S
C2215 C2212 1.386 . S
C2216 C2211 1.490 . S
C2216 C2218 1.395 . S
C2216 C2219 1.403 . S
H2217 C2223 0.930 . S
C2218 H2204 0.930 . S
C2218 C2216 1.395 . S
C2218 C2221 1.403 . S
C2219 C2216 1.403 . S
C2219 C2220 1.524 . S
C2219 C2223 1.400 . S
C2220 H2205 0.960 . S
C2220 H2206 0.960 . S
C2220 H2207 0.960 . S
C2220 C2219 1.524 . S
C2221 C2218 1.403 . S
C2221 C2222 1.392 . S
C2221 C2225 1.495 . S
C2222 C2221 1.392 . S
C2222 C2223 1.385 . S
C2222 C2224 1.478 . S
C2223 H2217 0.930 . S
C2223 C2219 1.400 . S
C2223 C2222 1.385 . S
C2224 C2222 1.478 . S
C2224 C2226 1.381 . S
C2224 C2230 1.383 . S
C2225 C2221 1.495 . S
C2225 H2231 0.959 . S
C2225 H2232 0.961 . S
C2225 H2233 0.960 . S
C2226 C2224 1.381 . S
C2226 C2227 1.394 . S
C2226 H2234 0.930 . S
C2227 C2226 1.394 . S
C2227 C2228 1.383 . S
C2227 H2235 0.929 . S
C2228 C2227 1.383 . S
C2228 C2229 1.377 . S
C2229 H2213 0.930 . S
C2229 C2228 1.377 . S
C2229 C2230 1.379 . S
C2230 H2214 0.931 . S
C2230 C2224 1.383 . S
C2230 C2229 1.379 . S
H2231 C2225 0.959 . S
H2232 C2225 0.961 . S
H2233 C2225 0.960 . S
H2234 C2226 0.930 . S
H2235 C2227 0.929 . S
H2236 C2244 0.929 . S
H2237 C2246 0.930 . S
H2238 C2248 0.930 . S
H2239 C2251 0.929 . S
H2240 C2254 0.930 . S
H2241 C2256 0.960 . S
H2242 C2256 0.960 . S
H2243 C2256 0.960 . S
C2244 H2236 0.929 . S
C2244 C2245 1.377 . S
C2244 C2246 1.384 . S
C2245 C2244 1.377 . S
C2245 C2251 1.390 . S
C2246 H2237 0.930 . S
C2246 C2244 1.384 . S
C2246 C2247 1.372 . S
C2247 C2246 1.372 . S
C2247 C2248 1.400 . S
C2247 C2252 1.490 . S
C2248 H2238 0.930 . S
C2248 C2247 1.400 . S
C2248 C2251 1.386 . S
H2249 C2265 0.930 . S
H2250 C2266 0.931 . S
C2251 H2239 0.929 . S
C2251 C2245 1.390 . S
C2251 C2248 1.386 . S
C2252 C2247 1.490 . S
C2252 C2254 1.395 . S
C2252 C2255 1.403 . S
H2253 C2259 0.930 . S
C2254 H2240 0.930 . S
C2254 C2252 1.395 . S
C2254 C2257 1.403 . S
C2255 C2252 1.403 . S
C2255 C2256 1.524 . S
C2255 C2259 1.400 . S
C2256 H2241 0.960 . S
C2256 H2242 0.960 . S
C2256 H2243 0.960 . S
C2256 C2255 1.524 . S
C2257 C2254 1.403 . S
C2257 C2258 1.392 . S
C2257 C2261 1.495 . S
C2258 C2257 1.392 . S
C2258 C2259 1.385 . S
C2258 C2260 1.478 . S
C2259 H2253 0.930 . S
C2259 C2255 1.400 . S
C2259 C2258 1.385 . S
C2260 C2258 1.478 . S
C2260 C2262 1.381 . S
C2260 C2266 1.383 . S
C2261 C2257 1.495 . S
C2261 H2267 0.959 . S
C2261 H2268 0.961 . S
C2261 H2269 0.960 . S
C2262 C2260 1.381 . S
C2262 C2263 1.394 . S
C2262 H2270 0.930 . S
C2263 C2262 1.394 . S
C2263 C2264 1.383 . S
C2263 H2271 0.929 . S
C2264 C2263 1.383 . S
C2264 C2265 1.377 . S
C2265 H2249 0.930 . S
C2265 C2264 1.377 . S
C2265 C2266 1.379 . S
C2266 H2250 0.931 . S
C2266 C2260 1.383 . S
C2266 C2265 1.379 . S
H2267 C2261 0.959 . S
H2268 C2261 0.961 . S
H2269 C2261 0.960 . S
H2270 C2262 0.930 . S
H2271 C2263 0.929 . S
H2272 C2280 0.929 . S
H2273 C2282 0.930 . S
H2274 C2284 0.930 . S
H2275 C2287 0.929 . S
H2276 C2290 0.930 . S
H2277 C2292 0.960 . S
H2278 C2292 0.960 . S
H2279 C2292 0.960 . S
C2280 H2272 0.929 . S
C2280 C2281 1.377 . S
C2280 C2282 1.384 . S
C2281 C2280 1.377 . S
C2281 C2287 1.390 . S
C2282 H2273 0.930 . S
C2282 C2280 1.384 . S
C2282 C2283 1.372 . S
C2283 C2282 1.372 . S
C2283 C2284 1.400 . S
C2283 C2288 1.490 . S
C2284 H2274 0.930 . S
C2284 C2283 1.400 . S
C2284 C2287 1.386 . S
H2285 C2301 0.930 . S
H2286 C2302 0.931 . S
C2287 H2275 0.929 . S
C2287 C2281 1.390 . S
C2287 C2284 1.386 . S
C2288 C2283 1.490 . S
C2288 C2290 1.395 . S
C2288 C2291 1.403 . S
H2289 C2295 0.930 . S
C2290 H2276 0.930 . S
C2290 C2288 1.395 . S
C2290 C2293 1.403 . S
C2291 C2288 1.403 . S
C2291 C2292 1.524 . S
C2291 C2295 1.400 . S
C2292 H2277 0.960 . S
C2292 H2278 0.960 . S
C2292 H2279 0.960 . S
C2292 C2291 1.524 . S
C2293 C2290 1.403 . S
C2293 C2294 1.392 . S
C2293 C2297 1.495 . S
C2294 C2293 1.392 . S
C2294 C2295 1.385 . S
C2294 C2296 1.478 . S
C2295 H2289 0.930 . S
C2295 C2291 1.400 . S
C2295 C2294 1.385 . S
C2296 C2294 1.478 . S
C2296 C2298 1.381 . S
C2296 C2302 1.383 . S
C2297 C2293 1.495 . S
C2297 H2303 0.959 . S
C2297 H2304 0.961 . S
C2297 H2305 0.960 . S
C2298 C2296 1.381 . S
C2298 C2299 1.394 . S
C2298 H2306 0.930 . S
C2299 C2298 1.394 . S
C2299 C2300 1.383 . S
C2299 H2307 0.929 . S
C2300 C2299 1.383 . S
C2300 C2301 1.377 . S
C2301 H2285 0.930 . S
C2301 C2300 1.377 . S
C2301 C2302 1.379 . S
C2302 H2286 0.931 . S
C2302 C2296 1.383 . S
C2302 C2301 1.379 . S
H2303 C2297 0.959 . S
H2304 C2297 0.961 . S
H2305 C2297 0.960 . S
H2306 C2298 0.930 . S
H2307 C2299 0.929 . S
H2308 C2316 0.929 . S
H2309 C2318 0.930 . S
H2310 C2320 0.930 . S
H2311 C2323 0.929 . S
H2312 C2326 0.930 . S
H2313 C2328 0.960 . S
H2314 C2328 0.960 . S
H2315 C2328 0.960 . S
C2316 H2308 0.929 . S
C2316 C2317 1.377 . S
C2316 C2318 1.384 . S
C2317 C2316 1.377 . S
C2317 C2323 1.390 . S
C2318 H2309 0.930 . S
C2318 C2316 1.384 . S
C2318 C2319 1.372 . S
C2319 C2318 1.372 . S
C2319 C2320 1.400 . S
C2319 C2324 1.490 . S
C2320 H2310 0.930 . S
C2320 C2319 1.400 . S
C2320 C2323 1.386 . S
H2321 C2337 0.930 . S
H2322 C2338 0.931 . S
C2323 H2311 0.929 . S
C2323 C2317 1.390 . S
C2323 C2320 1.386 . S
C2324 C2319 1.490 . S
C2324 C2326 1.395 . S
C2324 C2327 1.403 . S
H2325 C2331 0.930 . S
C2326 H2312 0.930 . S
C2326 C2324 1.395 . S
C2326 C2329 1.403 . S
C2327 C2324 1.403 . S
C2327 C2328 1.524 . S
C2327 C2331 1.400 . S
C2328 H2313 0.960 . S
C2328 H2314 0.960 . S
C2328 H2315 0.960 . S
C2328 C2327 1.524 . S
C2329 C2326 1.403 . S
C2329 C2330 1.392 . S
C2329 C2333 1.495 . S
C2330 C2329 1.392 . S
C2330 C2331 1.385 . S
C2330 C2332 1.478 . S
C2331 H2325 0.930 . S
C2331 C2327 1.400 . S
C2331 C2330 1.385 . S
C2332 C2330 1.478 . S
C2332 C2334 1.381 . S
C2332 C2338 1.383 . S
C2333 C2329 1.495 . S
C2333 H2339 0.959 . S
C2333 H2340 0.961 . S
C2333 H2341 0.960 . S
C2334 C2332 1.381 . S
C2334 C2335 1.394 . S
C2334 H2342 0.930 . S
C2335 C2334 1.394 . S
C2335 C2336 1.383 . S
C2335 H2343 0.929 . S
C2336 C2335 1.383 . S
C2336 C2337 1.377 . S
C2337 H2321 0.930 . S
C2337 C2336 1.377 . S
C2337 C2338 1.379 . S
C2338 H2322 0.931 . S
C2338 C2332 1.383 . S
C2338 C2337 1.379 . S
H2339 C2333 0.959 . S
H2340 C2333 0.961 . S
H2341 C2333 0.960 . S
H2342 C2334 0.930 . S
H2343 C2335 0.929 . S
H2344 C2352 0.929 . S
H2345 C2354 0.930 . S
H2346 C2356 0.930 . S
H2347 C2359 0.929 . S
H2348 C2362 0.930 . S
H2349 C2364 0.960 . S
H2350 C2364 0.960 . S
H2351 C2364 0.960 . S
C2352 H2344 0.929 . S
C2352 C2353 1.377 . S
C2352 C2354 1.384 . S
C2353 C2352 1.377 . S
C2353 C2359 1.390 . S
C2354 H2345 0.930 . S
C2354 C2352 1.384 . S
C2354 C2355 1.372 . S
C2355 C2354 1.372 . S
C2355 C2356 1.400 . S
C2355 C2360 1.490 . S
C2356 H2346 0.930 . S
C2356 C2355 1.400 . S
C2356 C2359 1.386 . S
H2357 C2373 0.930 . S
H2358 C2374 0.931 . S
C2359 H2347 0.929 . S
C2359 C2353 1.390 . S
C2359 C2356 1.386 . S
C2360 C2355 1.490 . S
C2360 C2362 1.395 . S
C2360 C2363 1.403 . S
H2361 C2367 0.930 . S
C2362 H2348 0.930 . S
C2362 C2360 1.395 . S
C2362 C2365 1.403 . S
C2363 C2360 1.403 . S
C2363 C2364 1.524 . S
C2363 C2367 1.400 . S
C2364 H2349 0.960 . S
C2364 H2350 0.960 . S
C2364 H2351 0.960 . S
C2364 C2363 1.524 . S
C2365 C2362 1.403 . S
C2365 C2366 1.392 . S
C2365 C2369 1.495 . S
C2366 C2365 1.392 . S
C2366 C2367 1.385 . S
C2366 C2368 1.478 . S
C2367 H2361 0.930 . S
C2367 C2363 1.400 . S
C2367 C2366 1.385 . S
C2368 C2366 1.478 . S
C2368 C2370 1.381 . S
C2368 C2374 1.383 . S
C2369 C2365 1.495 . S
C2369 H2375 0.959 . S
C2369 H2376 0.961 . S
C2369 H2377 0.960 . S
C2370 C2368 1.381 . S
C2370 C2371 1.394 . S
C2370 H2378 0.930 . S
C2371 C2370 1.394 . S
C2371 C2372 1.383 . S
C2371 H2379 0.929 . S
C2372 C2371 1.383 . S
C2372 C2373 1.377 . S
C2373 H2357 0.930 . S
C2373 C2372 1.377 . S
C2373 C2374 1.379 . S
C2374 H2358 0.931 . S
C2374 C2368 1.383 . S
C2374 C2373 1.379 . S
H2375 C2369 0.959 . S
H2376 C2369 0.961 . S
H2377 C2369 0.960 . S
H2378 C2370 0.930 . S
H2379 C2371 0.929 . S
H2380 C2388 0.929 . S
H2381 C2390 0.930 . S
H2382 C2392 0.930 . S
H2383 C2395 0.929 . S
H2384 C2398 0.930 . S
H2385 C2400 0.960 . S
H2386 C2400 0.960 . S
H2387 C2400 0.960 . S
C2388 H2380 0.929 . S
C2388 C2389 1.377 . S
C2388 C2390 1.384 . S
C2389 C2388 1.377 . S
C2389 C2395 1.390 . S
C2390 H2381 0.930 . S
C2390 C2388 1.384 . S
C2390 C2391 1.372 . S
C2391 C2390 1.372 . S
C2391 C2392 1.400 . S
C2391 C2396 1.490 . S
C2392 H2382 0.930 . S
C2392 C2391 1.400 . S
C2392 C2395 1.386 . S
H2393 C2409 0.930 . S
H2394 C2410 0.931 . S
C2395 H2383 0.929 . S
C2395 C2389 1.390 . S
C2395 C2392 1.386 . S
C2396 C2391 1.490 . S
C2396 C2398 1.395 . S
C2396 C2399 1.403 . S
H2397 C2403 0.930 . S
C2398 H2384 0.930 . S
C2398 C2396 1.395 . S
C2398 C2401 1.403 . S
C2399 C2396 1.403 . S
C2399 C2400 1.524 . S
C2399 C2403 1.400 . S
C2400 H2385 0.960 . S
C2400 H2386 0.960 . S
C2400 H2387 0.960 . S
C2400 C2399 1.524 . S
C2401 C2398 1.403 . S
C2401 C2402 1.392 . S
C2401 C2405 1.495 . S
C2402 C2401 1.392 . S
C2402 C2403 1.385 . S
C2402 C2404 1.478 . S
C2403 H2397 0.930 . S
C2403 C2399 1.400 . S
C2403 C2402 1.385 . S
C2404 C2402 1.478 . S
C2404 C2406 1.381 . S
C2404 C2410 1.383 . S
C2405 C2401 1.495 . S
C2405 H2411 0.959 . S
C2405 H2412 0.961 . S
C2405 H2413 0.960 . S
C2406 C2404 1.381 . S
C2406 C2407 1.394 . S
C2406 H2414 0.930 . S
C2407 C2406 1.394 . S
C2407 C2408 1.383 . S
C2407 H2415 0.929 . S
C2408 C2407 1.383 . S
C2408 C2409 1.377 . S
C2409 H2393 0.930 . S
C2409 C2408 1.377 . S
C2409 C2410 1.379 . S
C2410 H2394 0.931 . S
C2410 C2404 1.383 . S
C2410 C2409 1.379 . S
H2411 C2405 0.959 . S
H2412 C2405 0.961 . S
H2413 C2405 0.960 . S
H2414 C2406 0.930 . S
H2415 C2407 0.929 . S
H2416 C2424 0.929 . S
H2417 C2426 0.930 . S
H2418 C2428 0.930 1_565 S
H2419 C2431 0.929 . S
H2420 C2434 0.930 . S
H2421 C2436 0.960 . S
H2422 C2436 0.960 . S
H2423 C2436 0.960 . S
C2424 H2416 0.929 . S
C2424 C2425 1.377 . S
C2424 C2426 1.384 . S
C2425 C2424 1.377 . S
C2425 C2431 1.390 . S
C2426 H2417 0.930 . S
C2426 C2424 1.384 . S
C2426 C2427 1.372 . S
C2427 C2426 1.372 . S
C2427 C2428 1.400 . S
C2427 C2432 1.490 . S
C2428 H2418 0.930 1_545 S
C2428 C2427 1.400 . S
C2428 C2431 1.386 . S
H2429 C2445 0.930 . S
H2430 C2446 0.931 . S
C2431 H2419 0.929 . S
C2431 C2425 1.390 . S
C2431 C2428 1.386 . S
C2432 C2427 1.490 . S
C2432 C2434 1.395 . S
C2432 C2435 1.403 . S
H2433 C2439 0.930 . S
C2434 H2420 0.930 . S
C2434 C2432 1.395 . S
C2434 C2437 1.403 1_544 S
C2435 C2432 1.403 . S
C2435 C2436 1.524 . S
C2435 C2439 1.400 1_544 S
C2436 H2421 0.960 . S
C2436 H2422 0.960 . S
C2436 H2423 0.960 . S
C2436 C2435 1.524 . S
C2437 C2434 1.403 1_566 S
C2437 C2438 1.392 . S
C2437 C2441 1.495 . S
C2438 C2437 1.392 . S
C2438 C2439 1.385 . S
C2438 C2440 1.478 . S
C2439 H2433 0.930 . S
C2439 C2435 1.400 1_566 S
C2439 C2438 1.385 . S
C2440 C2438 1.478 . S
C2440 C2442 1.381 . S
C2440 C2446 1.383 . S
C2441 C2437 1.495 . S
C2441 H2447 0.959 . S
C2441 H2448 0.961 . S
C2441 H2449 0.960 . S
C2442 C2440 1.381 . S
C2442 C2443 1.394 . S
C2442 H2450 0.930 1_565 S
C2443 C2442 1.394 . S
C2443 C2444 1.383 . S
C2443 H2451 0.929 . S
C2444 C2443 1.383 . S
C2444 C2445 1.377 . S
C2445 H2429 0.930 . S
C2445 C2444 1.377 . S
C2445 C2446 1.379 . S
C2446 H2430 0.931 . S
C2446 C2440 1.383 . S
C2446 C2445 1.379 . S
H2447 C2441 0.959 . S
H2448 C2441 0.961 . S
H2449 C2441 0.960 . S
H2450 C2442 0.930 1_545 S
H2451 C2443 0.929 . S
H2452 C2460 0.929 . S
H2453 C2462 0.930 . S
H2454 C2464 0.930 . S
H2455 C2467 0.929 . S
H2456 C2470 0.930 . S
H2457 C2472 0.960 . S
H2458 C2472 0.960 . S
H2459 C2472 0.960 . S
C2460 H2452 0.929 . S
C2460 C2461 1.377 . S
C2460 C2462 1.384 . S
C2461 C2460 1.377 . S
C2461 C2467 1.390 . S
C2462 H2453 0.930 . S
C2462 C2460 1.384 . S
C2462 C2463 1.372 . S
C2463 C2462 1.372 . S
C2463 C2464 1.400 . S
C2463 C2468 1.490 . S
C2464 H2454 0.930 . S
C2464 C2463 1.400 . S
C2464 C2467 1.386 . S
H2465 C2481 0.930 . S
H2466 C2482 0.939 . S
C2467 H2455 0.929 . S
C2467 C2461 1.390 . S
C2467 C2464 1.386 . S
C2468 C2463 1.490 . S
C2468 C2470 1.395 . S
C2468 C2471 1.403 1_455 S
H2469 C2475 0.930 . S
C2470 H2456 0.930 . S
C2470 C2468 1.395 . S
C2470 C2473 1.403 1_556 S
C2471 C2468 1.403 1_655 S
C2471 C2472 1.524 . S
C2471 C2475 1.400 1_556 S
C2472 H2457 0.960 . S
C2472 H2458 0.960 . S
C2472 H2459 0.960 . S
C2472 C2471 1.524 . S
C2473 C2470 1.403 1_554 S
C2473 C2474 1.392 1_455 S
C2473 C2477 1.495 . S
C2474 C2473 1.392 1_655 S
C2474 C2475 1.385 . S
C2474 C2476 1.478 . S
C2475 H2469 0.930 . S
C2475 C2471 1.400 1_554 S
C2475 C2474 1.385 . S
C2476 C2474 1.478 . S
C2476 C2478 1.381 . S
C2476 C2482 1.383 . S
C2477 C2473 1.495 . S
C2477 H2483 0.959 . S
C2477 H2484 0.961 . S
C2477 H2485 0.995 . S
C2478 C2476 1.381 . S
C2478 C2479 1.394 . S
C2478 H2486 0.930 . S
C2479 C2478 1.394 . S
C2479 C2480 1.383 . S
C2479 H2487 0.929 . S
C2480 C2479 1.383 . S
C2480 C2481 1.377 . S
C2481 H2465 0.930 . S
C2481 C2480 1.377 . S
C2481 C2482 1.379 . S
C2482 H2466 0.939 . S
C2482 C2476 1.383 . S
C2482 C2481 1.379 . S
H2483 C2477 0.959 . S
H2484 C2477 0.961 . S
H2485 C2477 0.995 . S
H2486 C2478 0.930 . S
H2487 C2479 0.929 . S
H2488 C2496 0.929 . S
H2489 C2498 0.930 . S
H2490 C2500 0.930 1_565 S
H2491 C2503 0.929 . S
H2492 C2506 0.930 . S
H2493 C2508 0.960 1_565 S
H2494 C2508 0.960 . S
H2495 C2508 0.960 1_565 S
C2496 H2488 0.929 . S
C2496 C2497 1.377 . S
C2496 C2498 1.384 . S
C2497 C2496 1.377 . S
C2497 C2503 1.390 . S
C2498 H2489 0.930 . S
C2498 C2496 1.384 . S
C2498 C2499 1.372 . S
C2499 C2498 1.372 . S
C2499 C2500 1.400 . S
C2499 C2504 1.490 . S
C2500 H2490 0.930 1_545 S
C2500 C2499 1.400 . S
C2500 C2503 1.386 . S
H2501 C2517 0.930 . S
H2502 C2518 0.931 . S
C2503 H2491 0.929 . S
C2503 C2497 1.390 . S
C2503 C2500 1.386 . S
C2504 C2499 1.490 . S
C2504 C2506 1.395 . S
C2504 C2507 1.403 . S
H2505 C2511 0.930 . S
C2506 H2492 0.930 . S
C2506 C2504 1.395 . S
C2506 C2509 1.406 1_556 S
C2507 C2504 1.403 . S
C2507 C2508 1.524 . S
C2507 C2511 1.400 1_546 S
C2508 H2493 0.960 1_545 S
C2508 H2494 0.960 . S
C2508 H2495 0.960 1_545 S
C2508 C2507 1.524 . S
C2509 C2506 1.406 1_554 S
C2509 C2510 1.390 1_545 S
C2509 C2513 1.494 1_545 S
C2510 C2509 1.390 1_565 S
C2510 C2511 1.385 . S
C2510 C2512 1.478 . S
C2511 H2505 0.930 . S
C2511 C2507 1.400 1_564 S
C2511 C2510 1.385 . S
C2512 C2510 1.478 . S
C2512 C2514 1.381 . S
C2512 C2518 1.383 . S
C2513 C2509 1.494 1_565 S
C2513 H2519 0.946 1_565 S
C2513 H2520 0.994 . S
C2513 H2521 0.942 1_565 S
C2514 C2512 1.381 . S
C2514 C2515 1.394 . S
C2514 H2522 0.930 1_565 S
C2515 C2514 1.394 . S
C2515 C2516 1.383 . S
C2515 H2523 0.929 . S
C2516 C2515 1.383 . S
C2516 C2517 1.377 . S
C2517 H2501 0.930 . S
C2517 C2516 1.377 . S
C2517 C2518 1.379 . S
C2518 H2502 0.931 . S
C2518 C2512 1.383 . S
C2518 C2517 1.379 . S
H2519 C2513 0.946 1_545 S
H2520 C2513 0.994 . S
H2521 C2513 0.942 1_545 S
H2522 C2514 0.930 1_545 S
H2523 C2515 0.929 . S
H2524 C2532 0.929 . S
H2525 C2534 0.930 1_455 S
H2526 C2536 0.930 . S
H2527 C2539 0.929 . S
H2528 C2542 0.930 . S
H2529 C2544 0.960 1_554 S
H2530 C2544 0.960 . S
H2531 C2544 0.960 . S
C2532 H2524 0.929 . S
C2532 C2533 1.377 . S
C2532 C2534 1.384 . S
C2533 C2532 1.377 . S
C2533 C2539 1.390 . S
C2534 H2525 0.930 1_655 S
C2534 C2532 1.384 . S
C2534 C2535 1.372 . S
C2535 C2534 1.372 . S
C2535 C2536 1.400 . S
C2535 C2540 1.490 . S
C2536 H2526 0.930 . S
C2536 C2535 1.400 . S
C2536 C2539 1.386 . S
H2537 C2553 0.930 . S
H2538 C2554 0.931 . S
C2539 H2527 0.929 . S
C2539 C2533 1.390 . S
C2539 C2536 1.386 . S
C2540 C2535 1.490 . S
C2540 C2542 1.395 1_655 S
C2540 C2543 1.403 . S
H2541 C2547 0.930 . S
C2542 H2528 0.930 . S
C2542 C2540 1.395 1_455 S
C2542 C2545 1.353 1_556 S
C2543 C2540 1.403 . S
C2543 C2544 1.524 . S
C2543 C2547 1.400 1_556 S
C2544 H2529 0.960 1_556 S
C2544 H2530 0.960 . S
C2544 H2531 0.960 . S
C2544 C2543 1.524 . S
C2545 C2542 1.353 1_554 S
C2545 C2546 1.439 . S
C2545 C2549 1.499 . S
C2546 C2545 1.439 . S
C2546 C2547 1.385 1_455 S
C2546 C2548 1.478 . S
C2547 H2541 0.930 . S
C2547 C2543 1.400 1_554 S
C2547 C2546 1.385 1_655 S
C2548 C2546 1.478 . S
C2548 C2550 1.381 . S
C2548 C2554 1.383 . S
C2549 C2545 1.499 . S
C2549 H2555 0.959 1_554 S
C2549 H2556 0.961 . S
C2549 H2557 0.960 . S
C2550 C2548 1.381 . S
C2550 C2551 1.394 . S
C2550 H2558 0.930 . S
C2551 C2550 1.394 . S
C2551 C2552 1.383 . S
C2551 H2559 0.929 . S
C2552 C2551 1.383 . S
C2552 C2553 1.377 . S
C2553 H2537 0.930 . S
C2553 C2552 1.377 . S
C2553 C2554 1.379 . S
C2554 H2538 0.931 . S
C2554 C2548 1.383 . S
C2554 C2553 1.379 . S
H2555 C2549 0.959 1_556 S
H2556 C2549 0.961 . S
H2557 C2549 0.960 . S
H2558 C2550 0.930 . S
H2559 C2551 0.929 . S
C1417 C49 0.766 . S
C1436 C636 0.746 . S
C1453 C145 0.765 . S
C1472 C381 0.748 . S
C1489 C469 0.773 . S
C1508 C196 0.739 . S
C1525 C321 0.762 . S
C1544 C577 0.794 . S
C1561 C753 0.770 . S
C1580 C1340 0.784 . S
C1597 C1085 0.767 . S
C1616 C849 0.794 . S
C1633 C1173 0.765 . S
C1652 C900 0.796 . S
C1669 C1289 0.762 . S
C1688 C1017 0.796 . S
C1705 C20 0.982 . S
C1724 C997 1.018 . S
C1741 C117 0.999 . S
C1760 C761 1.024 . S
C1777 C812 1.019 . S
C1796 C225 0.968 . S
C1813 C293 0.999 . S
C1832 C909 1.024 . S
C1849 C409 0.979 . S
C1868 C1193 1.014 . S
C1885 C1281 1.031 . S
C1904 C497 0.998 . S
C1921 C548 0.980 . S
C1940 C1377 1.016 . S
C1957 C1076 1.030 . S
C1976 C665 0.968 . S
C1993 C724 0.982 . S
C2012 C284 1.017 . S
C2029 C57 1.030 . S
C2048 C821 0.999 . S
C2065 C929 0.978 . S
C2084 C108 1.015 . S
C2101 C205 1.030 . S
C2120 C988 1.036 . S
C2137 C1113 0.980 . S
C2156 C489 1.014 . S
C2173 C585 1.031 . S
C2192 C1201 1.003 . S
C2209 C673 1.019 . S
C2228 C1261 0.979 . S
C2245 C372 1.030 . S
C2264 C1369 1.033 . S
C2281 C401 1.695 . S
C2300 C29 1.696 . S
C2317 C460 1.687 . S
C2336 C137 1.688 . S
C2353 C233 1.695 . S
C2372 C557 1.691 . S
C2389 C645 1.686 . S
C2408 C313 1.678 . S
C2425 C1105 1.695 . S
C2444 C733 1.692 . S
C2461 C1164 1.686 . S
C2480 C841 1.679 . S
C2497 C937 1.695 . S
C2516 C1252 1.690 . S
C2533 C1349 1.687 . S
C2552 C1025 1.690 . S
