# Generated by pormake.
# Topology ukc, (4)-cn, num edge types: 1
# Building blocks:
#     Node 0, Type 0, BuildingBlock: QUQFOY_clean_sbu_3, # of connection points: 4
#     Node 1, Type 0, BuildingBlock: QUQFOY_clean_sbu_3, # of connection points: 4
#     Node 2, Type 0, BuildingBlock: QUQFOY_clean_sbu_3, # of connection points: 4
#     Node 3, Type 0, BuildingBlock: QUQFOY_clean_sbu_3, # of connection points: 4
#     Node 4, Type 0, BuildingBlock: QUQFOY_clean_sbu_3, # of connection points: 4
#     Node 5, Type 0, BuildingBlock: QUQFOY_clean_sbu_3, # of connection points: 4
#     Node 6, Type 0, BuildingBlock: QUQFOY_clean_sbu_3, # of connection points: 4
#     Node 7, Type 0, BuildingBlock: QUQFOY_clean_sbu_3, # of connection points: 4
#     Node 8, Type 0, BuildingBlock: QUQFOY_clean_sbu_3, # of connection points: 4
#     Node 9, Type 0, BuildingBlock: QUQFOY_clean_sbu_3, # of connection points: 4
#     Node 10, Type 0, BuildingBlock: QUQFOY_clean_sbu_3, # of connection points: 4
#     Node 11, Type 0, BuildingBlock: QUQFOY_clean_sbu_3, # of connection points: 4
#     Node 12, Type 0, BuildingBlock: QUQFOY_clean_sbu_3, # of connection points: 4
#     Node 13, Type 0, BuildingBlock: QUQFOY_clean_sbu_3, # of connection points: 4
#     Node 14, Type 0, BuildingBlock: QUQFOY_clean_sbu_3, # of connection points: 4
#     Node 15, Type 0, BuildingBlock: QUQFOY_clean_sbu_3, # of connection points: 4
#     Node 16, Type 0, BuildingBlock: QUQFOY_clean_sbu_3, # of connection points: 4
#     Node 17, Type 0, BuildingBlock: QUQFOY_clean_sbu_3, # of connection points: 4
#     Node 18, Type 0, BuildingBlock: QUQFOY_clean_sbu_3, # of connection points: 4
#     Node 19, Type 0, BuildingBlock: QUQFOY_clean_sbu_3, # of connection points: 4
#     Node 20, Type 0, BuildingBlock: QUQFOY_clean_sbu_3, # of connection points: 4
#     Node 21, Type 0, BuildingBlock: QUQFOY_clean_sbu_3, # of connection points: 4
#     Node 22, Type 0, BuildingBlock: QUQFOY_clean_sbu_3, # of connection points: 4
#     Node 23, Type 0, BuildingBlock: QUQFOY_clean_sbu_3, # of connection points: 4
#     Node 24, Type 0, BuildingBlock: QUQFOY_clean_sbu_3, # of connection points: 4
#     Node 25, Type 0, BuildingBlock: QUQFOY_clean_sbu_3, # of connection points: 4
#     Node 26, Type 0, BuildingBlock: QUQFOY_clean_sbu_3, # of connection points: 4
#     Node 27, Type 0, BuildingBlock: QUQFOY_clean_sbu_3, # of connection points: 4
#     Node 28, Type 0, BuildingBlock: QUQFOY_clean_sbu_3, # of connection points: 4
#     Node 29, Type 0, BuildingBlock: QUQFOY_clean_sbu_3, # of connection points: 4
#     Node 30, Type 0, BuildingBlock: QUQFOY_clean_sbu_3, # of connection points: 4
#     Node 31, Type 0, BuildingBlock: QUQFOY_clean_sbu_3, # of connection points: 4
#     Edge 32, Type (0, 0), BuildingBlock: CIFDUS_clean_linker_0, # of connection points: 2
#     Edge 33, Type (0, 0), BuildingBlock: CIFDUS_clean_linker_0, # of connection points: 2
#     Edge 34, Type (0, 0), BuildingBlock: CIFDUS_clean_linker_0, # of connection points: 2
#     Edge 35, Type (0, 0), BuildingBlock: CIFDUS_clean_linker_0, # of connection points: 2
#     Edge 36, Type (0, 0), BuildingBlock: CIFDUS_clean_linker_0, # of connection points: 2
#     Edge 37, Type (0, 0), BuildingBlock: CIFDUS_clean_linker_0, # of connection points: 2
#     Edge 38, Type (0, 0), BuildingBlock: CIFDUS_clean_linker_0, # of connection points: 2
#     Edge 39, Type (0, 0), BuildingBlock: CIFDUS_clean_linker_0, # of connection points: 2
#     Edge 40, Type (0, 0), BuildingBlock: CIFDUS_clean_linker_0, # of connection points: 2
#     Edge 41, Type (0, 0), BuildingBlock: CIFDUS_clean_linker_0, # of connection points: 2
#     Edge 42, Type (0, 0), BuildingBlock: CIFDUS_clean_linker_0, # of connection points: 2
#     Edge 43, Type (0, 0), BuildingBlock: CIFDUS_clean_linker_0, # of connection points: 2
#     Edge 44, Type (0, 0), BuildingBlock: CIFDUS_clean_linker_0, # of connection points: 2
#     Edge 45, Type (0, 0), BuildingBlock: CIFDUS_clean_linker_0, # of connection points: 2
#     Edge 46, Type (0, 0), BuildingBlock: CIFDUS_clean_linker_0, # of connection points: 2
#     Edge 47, Type (0, 0), BuildingBlock: CIFDUS_clean_linker_0, # of connection points: 2
#     Edge 48, Type (0, 0), BuildingBlock: CIFDUS_clean_linker_0, # of connection points: 2
#     Edge 49, Type (0, 0), BuildingBlock: CIFDUS_clean_linker_0, # of connection points: 2
#     Edge 50, Type (0, 0), BuildingBlock: CIFDUS_clean_linker_0, # of connection points: 2
#     Edge 51, Type (0, 0), BuildingBlock: CIFDUS_clean_linker_0, # of connection points: 2
#     Edge 52, Type (0, 0), BuildingBlock: CIFDUS_clean_linker_0, # of connection points: 2
#     Edge 53, Type (0, 0), BuildingBlock: CIFDUS_clean_linker_0, # of connection points: 2
#     Edge 54, Type (0, 0), BuildingBlock: CIFDUS_clean_linker_0, # of connection points: 2
#     Edge 55, Type (0, 0), BuildingBlock: CIFDUS_clean_linker_0, # of connection points: 2
#     Edge 56, Type (0, 0), BuildingBlock: CIFDUS_clean_linker_0, # of connection points: 2
#     Edge 57, Type (0, 0), BuildingBlock: CIFDUS_clean_linker_0, # of connection points: 2
#     Edge 58, Type (0, 0), BuildingBlock: CIFDUS_clean_linker_0, # of connection points: 2
#     Edge 59, Type (0, 0), BuildingBlock: CIFDUS_clean_linker_0, # of connection points: 2
#     Edge 60, Type (0, 0), BuildingBlock: CIFDUS_clean_linker_0, # of connection points: 2
#     Edge 61, Type (0, 0), BuildingBlock: CIFDUS_clean_linker_0, # of connection points: 2
#     Edge 62, Type (0, 0), BuildingBlock: CIFDUS_clean_linker_0, # of connection points: 2
#     Edge 63, Type (0, 0), BuildingBlock: CIFDUS_clean_linker_0, # of connection points: 2
#     Edge 64, Type (0, 0), BuildingBlock: CIFDUS_clean_linker_0, # of connection points: 2
#     Edge 65, Type (0, 0), BuildingBlock: CIFDUS_clean_linker_0, # of connection points: 2
#     Edge 66, Type (0, 0), BuildingBlock: CIFDUS_clean_linker_0, # of connection points: 2
#     Edge 67, Type (0, 0), BuildingBlock: CIFDUS_clean_linker_0, # of connection points: 2
#     Edge 68, Type (0, 0), BuildingBlock: CIFDUS_clean_linker_0, # of connection points: 2
#     Edge 69, Type (0, 0), BuildingBlock: CIFDUS_clean_linker_0, # of connection points: 2
#     Edge 70, Type (0, 0), BuildingBlock: CIFDUS_clean_linker_0, # of connection points: 2
#     Edge 71, Type (0, 0), BuildingBlock: CIFDUS_clean_linker_0, # of connection points: 2
#     Edge 72, Type (0, 0), BuildingBlock: CIFDUS_clean_linker_0, # of connection points: 2
#     Edge 73, Type (0, 0), BuildingBlock: CIFDUS_clean_linker_0, # of connection points: 2
#     Edge 74, Type (0, 0), BuildingBlock: CIFDUS_clean_linker_0, # of connection points: 2
#     Edge 75, Type (0, 0), BuildingBlock: CIFDUS_clean_linker_0, # of connection points: 2
#     Edge 76, Type (0, 0), BuildingBlock: CIFDUS_clean_linker_0, # of connection points: 2
#     Edge 77, Type (0, 0), BuildingBlock: CIFDUS_clean_linker_0, # of connection points: 2
#     Edge 78, Type (0, 0), BuildingBlock: CIFDUS_clean_linker_0, # of connection points: 2
#     Edge 79, Type (0, 0), BuildingBlock: CIFDUS_clean_linker_0, # of connection points: 2
#     Edge 80, Type (0, 0), BuildingBlock: CIFDUS_clean_linker_0, # of connection points: 2
#     Edge 81, Type (0, 0), BuildingBlock: CIFDUS_clean_linker_0, # of connection points: 2
#     Edge 82, Type (0, 0), BuildingBlock: CIFDUS_clean_linker_0, # of connection points: 2
#     Edge 83, Type (0, 0), BuildingBlock: CIFDUS_clean_linker_0, # of connection points: 2
#     Edge 84, Type (0, 0), BuildingBlock: CIFDUS_clean_linker_0, # of connection points: 2
#     Edge 85, Type (0, 0), BuildingBlock: CIFDUS_clean_linker_0, # of connection points: 2
#     Edge 86, Type (0, 0), BuildingBlock: CIFDUS_clean_linker_0, # of connection points: 2
#     Edge 87, Type (0, 0), BuildingBlock: CIFDUS_clean_linker_0, # of connection points: 2
#     Edge 88, Type (0, 0), BuildingBlock: CIFDUS_clean_linker_0, # of connection points: 2
#     Edge 89, Type (0, 0), BuildingBlock: CIFDUS_clean_linker_0, # of connection points: 2
#     Edge 90, Type (0, 0), BuildingBlock: CIFDUS_clean_linker_0, # of connection points: 2
#     Edge 91, Type (0, 0), BuildingBlock: CIFDUS_clean_linker_0, # of connection points: 2
#     Edge 92, Type (0, 0), BuildingBlock: CIFDUS_clean_linker_0, # of connection points: 2
#     Edge 93, Type (0, 0), BuildingBlock: CIFDUS_clean_linker_0, # of connection points: 2
#     Edge 94, Type (0, 0), BuildingBlock: CIFDUS_clean_linker_0, # of connection points: 2
#     Edge 95, Type (0, 0), BuildingBlock: CIFDUS_clean_linker_0, # of connection points: 2
# Relax obj value: 0.043
# Max RMSD: 0.063
# Mean RMSD: 0.063
data_MOF--net-ukc--node1-QUQFOY_clean_sbu_3--edge1-CIFDUS_clean_linker_0
_symmetry_space_group_name_H-M    P1
_symmetry_Int_Tables_number       1
_symmetry_cell_setting            triclinic
loop_
_symmetry_equiv_pos_as_xyz
'x, y, z'
_cell_length_a     40.521445
_cell_length_b     40.526626
_cell_length_c     78.873659
_cell_angle_alpha  89.965466
_cell_angle_beta   90.167396
_cell_angle_gamma 90.148186
loop_
_atom_site_label
_atom_site_type_symbol
_atom_site_fract_x
_atom_site_fract_y
_atom_site_fract_z
_atom_type_partial_charge
C0 C 0.08404 0.38703 0.06593 0.0
O1 O 0.0535 0.39388 0.06536 0.0
Cd2 Cd 0.02192 0.38513 0.04021 0.0
O3 O 0.09902 0.37661 0.05282 0.0
Cd4 Cd 0.08968 0.36566 0.02248 0.0
C5 C 0.03946 0.30294 0.03272 0.0
O6 O 0.0542 0.41287 0.01928 0.0
O7 O 0.05645 0.38099 -0.0025 0.0
O8 O 0.14639 0.38479 0.02209 0.0
C9 C 0.04591 0.40745 0.00407 0.0
O10 O 0.01856 0.32489 0.03692 0.0
C11 C 0.15462 0.36774 0.00933 0.0
O12 O 0.06809 0.31102 0.02764 0.0
O13 O 0.13262 0.34965 0.00257 0.0
C14 C 0.81988 0.82861 0.31696 0.0
O15 O 0.80964 0.79934 0.31446 0.0
Cd16 Cd 0.80741 0.77335 0.28715 0.0
O17 O 0.82725 0.84741 0.30458 0.0
Cd18 Cd 0.82784 0.84816 0.27342 0.0
C19 C 0.88794 0.79015 0.27576 0.0
O20 O 0.782 0.81254 0.26904 0.0
O21 O 0.81089 0.82164 0.24667 0.0
O22 O 0.80417 0.90304 0.27075 0.0
C23 C 0.78646 0.80713 0.25342 0.0
O24 O 0.86611 0.76868 0.27961 0.0
C25 C 0.82954 0.91525 0.26364 0.0
O26 O 0.88038 0.82033 0.27365 0.0
O27 O 0.85387 0.89617 0.26119 0.0
C28 C 0.42773 0.60347 0.58089 0.0
O29 O 0.45844 0.59809 0.57937 0.0
Cd30 Cd 0.48661 0.59772 0.55293 0.0
O31 O 0.40978 0.6093 0.56794 0.0
Cd32 Cd 0.4163 0.61292 0.53697 0.0
C33 C 0.46919 0.6763 0.53923 0.0
O34 O 0.45116 0.56456 0.53585 0.0
O35 O 0.4481 0.59286 0.51282 0.0
O36 O 0.35887 0.59408 0.53581 0.0
C37 C 0.45805 0.56708 0.5203 0.0
O38 O 0.49105 0.65512 0.54324 0.0
C39 C 0.35244 0.60966 0.52224 0.0
O40 O 0.43908 0.66802 0.53766 0.0
O41 O 0.37525 0.62722 0.51595 0.0
C42 C 0.66292 0.13106 0.8296 0.0
O43 O 0.6715 0.16124 0.82942 0.0
Cd44 Cd 0.66873 0.19707 0.80531 0.0
O45 O 0.65249 0.11698 0.81619 0.0
Cd46 Cd 0.64313 0.13208 0.7864 0.0
C47 C 0.58639 0.18934 0.79732 0.0
O48 O 0.69197 0.16544 0.78282 0.0
O49 O 0.65638 0.16848 0.76251 0.0
O50 O 0.66019 0.07883 0.77549 0.0
C51 C 0.6846 0.17628 0.76825 0.0
O52 O 0.6097 0.20913 0.80118 0.0
C53 C 0.63227 0.07197 0.76899 0.0
O54 O 0.59241 0.15993 0.79276 0.0
O55 O 0.60947 0.0931 0.77067 0.0
C56 C 0.12721 0.57545 0.40176 0.0
O57 O 0.0994 0.56093 0.40235 0.0
Cd58 Cd 0.06866 0.55175 0.42782 0.0
O59 O 0.14215 0.58381 0.41533 0.0
Cd60 Cd 0.13482 0.57964 0.4462 0.0
C61 C 0.07113 0.63253 0.44127 0.0
O62 O 0.10582 0.52715 0.44753 0.0
O63 O 0.10474 0.55735 0.46998 0.0
O64 O 0.19383 0.56887 0.44906 0.0
C65 C 0.09671 0.53058 0.46278 0.0
O66 O 0.05367 0.60822 0.4362 0.0
C67 C 0.19732 0.58819 0.46163 0.0
O68 O 0.10159 0.62894 0.44476 0.0
O69 O 0.17202 0.60368 0.46668 0.0
C70 C 0.64418 0.84124 0.65803 0.0
O71 O 0.65702 0.8127 0.65755 0.0
Cd72 Cd 0.65976 0.77743 0.68207 0.0
O73 O 0.63359 0.85304 0.67191 0.0
Cd74 Cd 0.63054 0.84052 0.70208 0.0
C75 C 0.57826 0.77743 0.6954 0.0
O76 O 0.68087 0.80941 0.70486 0.0
O77 O 0.6469 0.80722 0.72599 0.0
O78 O 0.65691 0.89217 0.70801 0.0
C79 C 0.67452 0.79924 0.71971 0.0
O80 O 0.60333 0.76236 0.68954 0.0
C81 C 0.63397 0.90384 0.71708 0.0
O82 O 0.58011 0.80762 0.69988 0.0
O83 O 0.60814 0.88626 0.71885 0.0
C84 C 0.3979 0.4135 0.90411 0.0
O85 O 0.42639 0.42642 0.90546 0.0
Cd86 Cd 0.45473 0.42986 0.93226 0.0
O87 O 0.38271 0.4031 0.91716 0.0
Cd88 Cd 0.38798 0.39919 0.94794 0.0
C89 C 0.45246 0.34761 0.94282 0.0
O90 O 0.41514 0.45185 0.95171 0.0
O91 O 0.41329 0.42028 0.97371 0.0
O92 O 0.32864 0.40829 0.94749 0.0
C93 C 0.42149 0.44775 0.96731 0.0
O94 O 0.47018 0.3726 0.93907 0.0
C95 C 0.32282 0.38794 0.95936 0.0
O96 O 0.4217 0.35057 0.94555 0.0
O97 O 0.34723 0.37286 0.96581 0.0
C98 C 0.84914 0.14848 0.16359 0.0
O99 O 0.83912 0.17803 0.16226 0.0
Cd100 Cd 0.84114 0.21554 0.18557 0.0
O101 O 0.85906 0.13715 0.17775 0.0
Cd102 Cd 0.86408 0.15383 0.20749 0.0
C103 C 0.92303 0.20831 0.19661 0.0
O104 O 0.81437 0.1857 0.20772 0.0
O105 O 0.84521 0.1908 0.22999 0.0
O106 O 0.84009 0.10182 0.21578 0.0
C107 C 0.81793 0.19661 0.22264 0.0
O108 O 0.90003 0.22607 0.19045 0.0
C109 C 0.86424 0.09265 0.22488 0.0
O110 O 0.91675 0.18026 0.20305 0.0
O111 O 0.88888 0.11199 0.22587 0.0
C112 C 0.89829 0.57377 0.90542 0.0
O113 O 0.92669 0.56119 0.90749 0.0
Cd114 Cd 0.95427 0.56028 0.93433 0.0
O115 O 0.88189 0.58446 0.91802 0.0
Cd116 Cd 0.88533 0.58865 0.94907 0.0
C117 C 0.94754 0.64317 0.94345 0.0
O118 O 0.91477 0.53829 0.95359 0.0
O119 O 0.91286 0.57044 0.97531 0.0
O120 O 0.82894 0.56968 0.95224 0.0
C121 C 0.92162 0.543 0.96906 0.0
O122 O 0.966 0.61882 0.93972 0.0
C123 C 0.81925 0.59493 0.96033 0.0
O124 O 0.91709 0.63895 0.94671 0.0
O125 O 0.84034 0.61761 0.96299 0.0
C126 C 0.12699 0.16483 0.65424 0.0
O127 O 0.14102 0.19266 0.65613 0.0
Cd128 Cd 0.14167 0.22008 0.68308 0.0
O129 O 0.11441 0.14988 0.66686 0.0
Cd130 Cd 0.10755 0.15441 0.69758 0.0
C131 C 0.05805 0.21983 0.69094 0.0
O132 O 0.1604 0.17963 0.70295 0.0
O133 O 0.12646 0.17975 0.72403 0.0
O134 O 0.12395 0.09763 0.69941 0.0
C135 C 0.15521 0.18572 0.71846 0.0
O136 O 0.08411 0.23631 0.6877 0.0
C137 C 0.09915 0.08782 0.70781 0.0
O138 O 0.05943 0.18909 0.69416 0.0
O139 O 0.07726 0.10915 0.71131 0.0
C140 C 0.58317 0.40545 0.40233 0.0
O141 O 0.55527 0.41835 0.40532 0.0
Cd142 Cd 0.53533 0.42912 0.43325 0.0
O143 O 0.6034 0.39934 0.4143 0.0
Cd144 Cd 0.60744 0.40629 0.44509 0.0
C145 C 0.54554 0.35135 0.44998 0.0
O146 O 0.57869 0.45797 0.44727 0.0
O147 O 0.58474 0.43115 0.47066 0.0
O148 O 0.66358 0.42756 0.44456 0.0
C149 C 0.57534 0.45722 0.46319 0.0
O150 O 0.52581 0.37434 0.44565 0.0
C151 C 0.67509 0.40539 0.45429 0.0
O152 O 0.57661 0.35588 0.44987 0.0
O153 O 0.65533 0.38291 0.45909 0.0
C154 C 0.37381 0.85496 0.1696 0.0
O155 O 0.35964 0.82699 0.16905 0.0
Cd156 Cd 0.3534 0.79301 0.19358 0.0
O157 O 0.384 0.86685 0.18361 0.0
Cd158 Cd 0.38372 0.85405 0.2141 0.0
C159 C 0.43469 0.79073 0.20717 0.0
O160 O 0.32928 0.8294 0.2137 0.0
O161 O 0.35703 0.82349 0.23687 0.0
O162 O 0.37427 0.91278 0.21468 0.0
C163 C 0.33008 0.81965 0.22894 0.0
O164 O 0.4095 0.77584 0.20117 0.0
C165 C 0.3875 0.91734 0.22907 0.0
O166 O 0.43287 0.82056 0.2121 0.0
O167 O 0.40029 0.89256 0.23639 0.0
C168 C 0.89207 0.42475 0.57033 0.0
O169 O 0.92188 0.4343 0.57137 0.0
Cd170 Cd 0.96103 0.43186 0.54871 0.0
O171 O 0.88043 0.41378 0.55641 0.0
Cd172 Cd 0.89922 0.40476 0.52709 0.0
C173 C 0.95692 0.34937 0.53923 0.0
O174 O 0.93329 0.4532 0.52444 0.0
O175 O 0.93921 0.41698 0.5047 0.0
O176 O 0.84932 0.42401 0.51315 0.0
C177 C 0.94682 0.44507 0.51063 0.0
O178 O 0.97445 0.37338 0.54458 0.0
C179 C 0.84152 0.39595 0.50718 0.0
O180 O 0.92806 0.35415 0.53338 0.0
O181 O 0.86041 0.37193 0.51064 0.0
C182 C 0.2981 0.14982 0.33516 0.0
O183 O 0.28613 0.17865 0.33354 0.0
Cd184 Cd 0.27647 0.20661 0.30684 0.0
O185 O 0.30555 0.13274 0.32221 0.0
Cd186 Cd 0.30591 0.13589 0.29143 0.0
C187 C 0.3563 0.20396 0.29342 0.0
O188 O 0.25466 0.16536 0.2882 0.0
O189 O 0.28149 0.15585 0.26527 0.0
O190 O 0.30131 0.07576 0.28975 0.0
C191 C 0.25719 0.16969 0.27236 0.0
O192 O 0.33234 0.22242 0.29776 0.0
C193 C 0.3258 0.07329 0.27975 0.0
O194 O 0.35231 0.17306 0.2915 0.0
O195 O 0.34013 0.09978 0.27529 0.0
C196 C 0.59156 0.60566 0.06522 0.0
O197 O 0.56302 0.59265 0.06554 0.0
Cd198 Cd 0.52539 0.59421 0.04199 0.0
O199 O 0.6025 0.61889 0.05172 0.0
Cd200 Cd 0.58605 0.62692 0.02199 0.0
C201 C 0.52425 0.67758 0.03335 0.0
O202 O 0.55515 0.57672 0.01773 0.0
O203 O 0.54971 0.61373 -0.00182 0.0
O204 O 0.63726 0.60449 0.01223 0.0
C205 C 0.54301 0.58496 0.00352 0.0
O206 O 0.50908 0.65171 0.03826 0.0
C207 C 0.64751 0.63051 0.005 0.0
O208 O 0.55371 0.67607 0.02782 0.0
O209 O 0.62924 0.65592 0.00587 0.0
C210 C 0.15124 0.85067 0.80656 0.0
O211 O 0.16609 0.82308 0.80687 0.0
Cd212 Cd 0.17082 0.78522 0.78378 0.0
O213 O 0.1385 0.86168 0.7929 0.0
Cd214 Cd 0.13348 0.84733 0.76272 0.0
C215 C 0.0876 0.78014 0.77342 0.0
O216 O 0.18426 0.81924 0.76072 0.0
O217 O 0.15226 0.81276 0.73911 0.0
O218 O 0.15363 0.89981 0.75331 0.0
C219 C 0.17935 0.80599 0.74642 0.0
O220 O 0.11404 0.76667 0.77883 0.0
C221 C 0.12723 0.90875 0.74597 0.0
O222 O 0.08749 0.80969 0.7678 0.0
O223 O 0.10269 0.88916 0.74664 0.0
C224 C 0.61331 0.90818 0.5654 0.0
O225 O 0.58463 0.9207 0.56605 0.0
Cd226 Cd 0.54966 0.93091 0.54247 0.0
O227 O 0.62695 0.90185 0.55123 0.0
Cd228 Cd 0.61388 0.90867 0.52073 0.0
C229 C 0.55302 0.8522 0.5264 0.0
O230 O 0.58548 0.95955 0.52375 0.0
O231 O 0.5781 0.93656 0.4995 0.0
O232 O 0.66916 0.92739 0.5136 0.0
C233 C 0.57309 0.96118 0.50908 0.0
O234 O 0.53564 0.87455 0.53337 0.0
C235 C 0.67496 0.90364 0.50354 0.0
O236 O 0.58211 0.85837 0.5213 0.0
O237 O 0.65221 0.88243 0.50141 0.0
C238 C 0.33016 0.32608 0.8222 0.0
O239 O 0.32097 0.29613 0.82274 0.0
Cd240 Cd 0.32645 0.26012 0.79891 0.0
O241 O 0.34059 0.33874 0.80845 0.0
Cd242 Cd 0.34819 0.32366 0.77856 0.0
C243 C 0.40879 0.27205 0.79042 0.0
O244 O 0.30059 0.28823 0.7758 0.0
O245 O 0.33562 0.28584 0.75522 0.0
O246 O 0.32262 0.37424 0.76907 0.0
C247 C 0.30761 0.27783 0.76111 0.0
O248 O 0.38615 0.25263 0.79556 0.0
C249 C 0.34779 0.38502 0.76128 0.0
O250 O 0.40172 0.30015 0.78427 0.0
O251 O 0.37358 0.3673 0.76162 0.0
C252 C 0.91637 0.0536 0.08442 0.0
O253 O 0.94648 0.04527 0.08321 0.0
Cd254 Cd 0.9749 0.04293 0.05651 0.0
O255 O 0.89945 0.06018 0.07124 0.0
Cd256 Cd 0.90499 0.06255 0.04058 0.0
C257 C 0.96307 0.12267 0.04411 0.0
O258 O 0.93814 0.01361 0.03786 0.0
O259 O 0.9332 0.04337 0.01527 0.0
O260 O 0.8486 0.04356 0.03562 0.0
C261 C 0.94371 0.01714 0.02217 0.0
O262 O 0.98429 0.10106 0.04842 0.0
C263 C 0.84006 0.06977 0.02793 0.0
O264 O 0.93316 0.11469 0.04155 0.0
O265 O 0.86181 0.09204 0.02611 0.0
C266 C 0.14055 0.65358 0.3105 0.0
O267 O 0.14731 0.68395 0.3125 0.0
Cd268 Cd 0.14555 0.72333 0.28991 0.0
O269 O 0.13386 0.64206 0.29588 0.0
Cd270 Cd 0.13197 0.66116 0.26628 0.0
C271 C 0.06709 0.70995 0.27445 0.0
O272 O 0.17764 0.69878 0.26815 0.0
O273 O 0.14901 0.70201 0.24505 0.0
O274 O 0.16365 0.61345 0.25814 0.0
C275 C 0.17427 0.71084 0.25345 0.0
O276 O 0.08759 0.72924 0.2817 0.0
C277 C 0.14215 0.60193 0.24803 0.0
O278 O 0.07629 0.68231 0.26849 0.0
O279 O 0.11543 0.61799 0.24641 0.0
C280 C 0.61593 0.10235 0.92395 0.0
O281 O 0.5866 0.09134 0.92319 0.0
Cd282 Cd 0.54739 0.0977 0.94552 0.0
O283 O 0.62698 0.11548 0.93749 0.0
Cd284 Cd 0.61033 0.12556 0.967 0.0
C285 C 0.55608 0.18181 0.95298 0.0
O286 O 0.57465 0.07914 0.97021 0.0
O287 O 0.57076 0.11562 -0.00997 0.0
O288 O 0.6588 0.09764 0.97663 0.0
C289 C 0.56172 0.08795 0.98406 0.0
O290 O 0.53897 0.15723 0.94794 0.0
C291 C 0.67097 0.12189 0.98466 0.0
O292 O 0.58442 0.17778 0.9597 0.0
O293 O 0.65499 0.14887 0.98434 0.0
C294 C 0.17236 0.34449 0.15159 0.0
O295 O 0.18281 0.31534 0.15403 0.0
Cd296 Cd 0.18066 0.28743 0.18089 0.0
O297 O 0.16158 0.36177 0.16384 0.0
Cd298 Cd 0.15322 0.35901 0.19452 0.0
C299 C 0.09765 0.29761 0.18822 0.0
O300 O 0.20035 0.32624 0.20116 0.0
O301 O 0.16536 0.33104 0.22147 0.0
O302 O 0.17096 0.41534 0.19999 0.0
C303 C 0.19239 0.31915 0.21623 0.0
O304 O 0.12134 0.27761 0.18557 0.0
C305 C 0.14299 0.42451 0.20552 0.0
O306 O 0.10298 0.32815 0.19072 0.0
O307 O 0.1201 0.40309 0.20593 0.0
C308 C 0.9145 0.87333 0.40155 0.0
O309 O 0.94431 0.88295 0.40236 0.0
Cd310 Cd 0.97577 0.8813 0.42812 0.0
O311 O 0.89957 0.86323 0.41475 0.0
Cd312 Cd 0.90919 0.85693 0.44533 0.0
C313 C 0.96774 0.79953 0.43937 0.0
O314 O 0.94139 0.90652 0.44881 0.0
O315 O 0.94081 0.87373 0.47043 0.0
O316 O 0.85673 0.88241 0.45092 0.0
C317 C 0.94901 0.90139 0.46417 0.0
O318 O 0.98625 0.82329 0.43469 0.0
C319 C 0.8444 0.85818 0.45888 0.0
O320 O 0.93757 0.80439 0.44301 0.0
O321 O 0.86206 0.83246 0.46032 0.0
C322 C 0.33857 0.64347 0.66735 0.0
O323 O 0.32119 0.66919 0.66946 0.0
Cd324 Cd 0.31443 0.69605 0.69613 0.0
O325 O 0.35175 0.62862 0.67991 0.0
Cd326 Cd 0.35538 0.62967 0.71107 0.0
C327 C 0.39787 0.70143 0.70612 0.0
O328 O 0.30246 0.65166 0.71444 0.0
O329 O 0.33137 0.65308 0.73729 0.0
O330 O 0.34196 0.57203 0.71241 0.0
C331 C 0.30435 0.65969 0.72987 0.0
O332 O 0.37078 0.71557 0.70222 0.0
C333 C 0.36703 0.56364 0.72106 0.0
O334 O 0.39908 0.67056 0.7092 0.0
O335 O 0.3878 0.58613 0.72475 0.0
C336 C 0.37647 0.12782 0.42623 0.0
O337 O 0.40462 0.1148 0.42407 0.0
Cd338 Cd 0.44325 0.10661 0.44645 0.0
O339 O 0.36633 0.1355 0.44097 0.0
Cd340 Cd 0.3834 0.13031 0.47096 0.0
C341 C 0.44332 0.18576 0.4633 0.0
O342 O 0.41034 0.07826 0.46658 0.0
O343 O 0.41918 0.10012 0.49097 0.0
O344 O 0.32544 0.11806 0.47295 0.0
C345 C 0.42376 0.07606 0.48099 0.0
O346 O 0.45831 0.1626 0.45558 0.0
C347 C 0.32124 0.1314 0.48732 0.0
O348 O 0.41471 0.18124 0.46951 0.0
O349 O 0.3463 0.14432 0.49443 0.0
C350 C 0.65422 0.62017 0.15976 0.0
O351 O 0.66736 0.64852 0.16138 0.0
Cd352 Cd 0.67383 0.67831 0.18756 0.0
O353 O 0.64471 0.60397 0.1727 0.0
Cd354 Cd 0.6435 0.6091 0.20371 0.0
C355 C 0.59234 0.67476 0.20017 0.0
O356 O 0.69333 0.64023 0.20793 0.0
O357 O 0.66136 0.63663 0.22963 0.0
O358 O 0.66335 0.55387 0.20906 0.0
C359 C 0.68776 0.64789 0.22323 0.0
O360 O 0.61729 0.69186 0.19566 0.0
C361 C 0.63729 0.54421 0.2165 0.0
O362 O 0.59463 0.64381 0.20278 0.0
O363 O 0.61366 0.56464 0.21762 0.0
C364 C 0.10549 0.88635 0.90119 0.0
O365 O 0.07535 0.8949 0.90109 0.0
Cd366 Cd 0.03991 0.8941 0.9253 0.0
O367 O 0.11942 0.87697 0.91484 0.0
Cd368 Cd 0.10487 0.87048 0.94481 0.0
C369 C 0.04677 0.81279 0.93696 0.0
O370 O 0.07126 0.91945 0.94726 0.0
O371 O 0.06902 0.88537 0.96829 0.0
O372 O 0.15581 0.89421 0.95508 0.0
C373 C 0.06108 0.9131 0.96206 0.0
O374 O 0.02822 0.83614 0.93186 0.0
C375 C 0.16574 0.86829 0.96252 0.0
O376 O 0.07655 0.81828 0.94126 0.0
O377 O 0.14768 0.84275 0.96136 0.0
C378 C 0.80463 0.35094 0.65006 0.0
O379 O 0.79222 0.32211 0.65013 0.0
Cd380 Cd 0.78975 0.28671 0.67459 0.0
O381 O 0.81645 0.36345 0.66358 0.0
Cd382 Cd 0.82425 0.34863 0.6935 0.0
C383 C 0.87203 0.28231 0.68421 0.0
O384 O 0.77193 0.32069 0.69753 0.0
O385 O 0.8077 0.31539 0.71768 0.0
O386 O 0.81229 0.40231 0.70563 0.0
C387 C 0.77887 0.30958 0.71213 0.0
O388 O 0.84623 0.26674 0.6795 0.0
C389 C 0.84161 0.40776 0.71066 0.0
O390 O 0.87046 0.31236 0.68876 0.0
O391 O 0.86306 0.3859 0.70746 0.0
C392 C 0.39819 0.91962 0.07575 0.0
O393 O 0.42584 0.93434 0.07472 0.0
Cd394 Cd 0.45529 0.94327 0.04874 0.0
O395 O 0.38319 0.90997 0.06245 0.0
Cd396 Cd 0.39034 0.91082 0.03167 0.0
C397 C 0.45786 0.86243 0.03603 0.0
O398 O 0.41677 0.96371 0.02851 0.0
O399 O 0.41863 0.93164 0.00672 0.0
O400 O 0.33402 0.92763 0.0267 0.0
C401 C 0.42529 0.95949 0.01322 0.0
O402 O 0.47377 0.88807 0.04065 0.0
C403 C 0.32647 0.90276 0.01769 0.0
O404 O 0.42698 0.86359 0.03303 0.0
O405 O 0.34849 0.88086 0.01566 0.0
C406 C 0.83896 0.65186 0.81866 0.0
O407 O 0.82531 0.67979 0.81673 0.0
Cd408 Cd 0.82272 0.70798 0.79006 0.0
O409 O 0.85072 0.63633 0.80603 0.0
Cd410 Cd 0.8552 0.64005 0.77506 0.0
C411 C 0.90552 0.70585 0.77891 0.0
O412 O 0.80441 0.66815 0.77026 0.0
O413 O 0.83738 0.66704 0.74885 0.0
O414 O 0.83156 0.58591 0.77389 0.0
C415 C 0.80966 0.67537 0.75489 0.0
O416 O 0.87967 0.72183 0.78298 0.0
C417 C 0.85318 0.57339 0.76428 0.0
O418 O 0.90456 0.67475 0.7764 0.0
O419 O 0.87756 0.59161 0.76024 0.0
C420 C 0.05867 0.09119 0.56829 0.0
O421 O 0.03046 0.07783 0.56661 0.0
Cd422 Cd 0.00241 0.07612 0.53986 0.0
O423 O 0.07387 0.10276 0.55549 0.0
Cd424 Cd 0.06772 0.10801 0.52468 0.0
C425 C 0.00371 0.15914 0.53177 0.0
O426 O 0.04279 0.05431 0.52071 0.0
O427 O 0.04198 0.08651 0.49893 0.0
O428 O 0.12728 0.1004 0.52454 0.0
C429 C 0.03653 0.05816 0.5051 0.0
O430 O 0.98604 0.13387 0.53499 0.0
C431 C 0.1323 0.12095 0.51266 0.0
O432 O 0.03421 0.15626 0.52843 0.0
O433 O 0.10734 0.1356 0.50651 0.0
C434 C 0.61985 0.30347 0.31901 0.0
O435 O 0.62995 0.27387 0.31834 0.0
Cd436 Cd 0.6289 0.24271 0.29267 0.0
O437 O 0.60936 0.31809 0.30576 0.0
Cd438 Cd 0.6024 0.3082 0.2753 0.0
C439 C 0.54665 0.24833 0.28276 0.0
O440 O 0.65372 0.27984 0.2729 0.0
O441 O 0.62324 0.2778 0.25044 0.0
O442 O 0.62353 0.36279 0.27006 0.0
C443 C 0.65094 0.2723 0.25743 0.0
O444 O 0.57075 0.23018 0.28724 0.0
C445 C 0.59937 0.37244 0.26111 0.0
O446 O 0.55121 0.27826 0.27855 0.0
O447 O 0.57555 0.35239 0.25908 0.0
H448 H 0.94917 0.48712 0.95696 0.0
H449 H 0.94258 0.54746 0.00192 0.0
H450 H 0.98058 0.51053 0.01673 0.0
H451 H 0.01635 0.46193 0.01663 0.0
H452 H 0.02323 0.40188 0.97158 0.0
H453 H 0.98435 0.43817 0.95698 0.0
C454 C 0.95592 0.49214 0.97003 0.0
C455 C 0.94317 0.51998 0.97834 0.0
C456 C 0.97789 0.47103 0.97838 0.0
C457 C 0.95212 0.52617 -0.00474 0.0
C458 C 0.97387 0.50513 0.00371 0.0
C459 C 0.00937 0.45678 0.00361 0.0
C460 C 0.02267 0.42935 -0.00484 0.0
C461 C 0.98705 0.47765 -0.00466 0.0
C462 C 0.01334 0.4229 0.97833 0.0
C463 C 0.99111 0.44359 0.96999 0.0
H464 H 0.73149 0.69024 0.20888 0.0
H465 H 0.68371 0.66663 0.25624 0.0
H466 H 0.70922 0.71473 0.26954 0.0
H467 H 0.74398 0.76379 0.26757 0.0
H468 H 0.79186 0.78792 0.22032 0.0
H469 H 0.76686 0.73941 0.20699 0.0
C470 C 0.72695 0.69543 0.22216 0.0
C471 C 0.70582 0.67493 0.23159 0.0
C472 C 0.74127 0.72339 0.22965 0.0
C473 C 0.69992 0.68208 0.24873 0.0
C474 C 0.71436 0.70962 0.25632 0.0
C475 C 0.74882 0.7586 0.25432 0.0
C476 C 0.76964 0.77942 0.24492 0.0
C477 C 0.73476 0.73059 0.24684 0.0
C478 C 0.77582 0.77226 0.2278 0.0
C479 C 0.76167 0.74448 0.2202 0.0
H480 H 0.55362 0.45523 0.49559 0.0
H481 H 0.55224 0.51501 0.45025 0.0
H482 H 0.51567 0.55446 0.46401 0.0
H483 H 0.48282 0.57095 0.48855 0.0
H484 H 0.48371 0.51082 0.53376 0.0
H485 H 0.52165 0.47229 0.52031 0.0
C486 C 0.54551 0.47702 0.48876 0.0
C487 C 0.55548 0.4822 0.47195 0.0
C488 C 0.52421 0.49932 0.49665 0.0
C489 C 0.54478 0.51048 0.46323 0.0
C490 C 0.52383 0.53299 0.47105 0.0
C491 C 0.4913 0.5494 0.49545 0.0
C492 C 0.48047 0.54364 0.51207 0.0
C493 C 0.51312 0.52744 0.48768 0.0
C494 C 0.4917 0.51571 0.5209 0.0
C495 C 0.51342 0.49371 0.51326 0.0
H496 H 0.79095 0.2766 0.74132 0.0
H497 H 0.71679 0.29079 0.70262 0.0
H498 H 0.68106 0.25038 0.71648 0.0
H499 H 0.67136 0.2104 0.73936 0.0
H500 H 0.74592 0.19633 0.77791 0.0
H501 H 0.78114 0.23721 0.76423 0.0
C502 C 0.76691 0.27098 0.73596 0.0
C503 C 0.75653 0.2866 0.72098 0.0
C504 C 0.74667 0.2476 0.74388 0.0
C505 C 0.72533 0.27906 0.71416 0.0
C506 C 0.70493 0.25591 0.72204 0.0
C507 C 0.69535 0.21623 0.74473 0.0
C508 C 0.70604 0.20035 0.75959 0.0
C509 C 0.71545 0.23987 0.73685 0.0
C510 C 0.73713 0.20822 0.76645 0.0
C511 C 0.75728 0.23162 0.75867 0.0
H512 H 0.98381 0.43102 0.48288 0.0
H513 H 0.97152 0.50282 0.5228 0.0
H514 H 0.01832 0.53428 0.51208 0.0
H515 H 0.06203 0.54182 0.49133 0.0
H516 H 0.07392 0.47146 0.45075 0.0
H517 H 0.02816 0.4386 0.46198 0.0
C518 C 0.99134 0.4536 0.48919 0.0
C519 C 0.97422 0.46461 0.50358 0.0
C520 C 0.01829 0.47161 0.48296 0.0
C521 C 0.98425 0.49387 0.51166 0.0
C522 C 0.01107 0.51182 0.50559 0.0
C523 C 0.05484 0.51914 0.485 0.0
C524 C 0.0713 0.50903 0.47026 0.0
C525 C 0.02824 0.50089 0.49128 0.0
C526 C 0.06159 0.47971 0.46215 0.0
C527 C 0.03538 0.46101 0.46851 0.0
H528 H 0.73022 0.77147 0.70745 0.0
H529 H 0.66818 0.77561 0.75183 0.0
H530 H 0.70423 0.73665 0.7664 0.0
H531 H 0.75323 0.70192 0.76657 0.0
H532 H 0.81565 0.69765 0.72235 0.0
H533 H 0.77921 0.73613 0.70755 0.0
C534 C 0.72466 0.7639 0.72032 0.0
C535 C 0.69669 0.77637 0.72858 0.0
C536 C 0.74535 0.74144 0.72858 0.0
C537 C 0.68962 0.7663 0.74522 0.0
C538 C 0.71016 0.74403 0.75355 0.0
C539 C 0.75881 0.70927 0.75366 0.0
C540 C 0.78703 0.69707 0.74555 0.0
C541 C 0.73802 0.73146 0.74533 0.0
C542 C 0.794 0.70679 0.72884 0.0
C543 C 0.77327 0.72881 0.7204 0.0
H544 H 0.44609 0.50594 0.95596 0.0
H545 H 0.44315 0.4424 -9e-05 0.0
H546 H 0.48055 0.47949 0.01498 0.0
H547 H 0.51531 0.52883 0.01535 0.0
H548 H 0.51814 0.5928 0.97159 0.0
H549 H 0.4795 0.55648 0.9567 0.0
C550 C 0.45347 0.50033 0.96887 0.0
C551 C 0.44204 0.47143 0.97679 0.0
C552 C 0.47508 0.52164 0.97743 0.0
C553 C 0.4517 0.46449 -0.00647 0.0
C554 C 0.47314 0.48561 0.00214 0.0
C555 C 0.50752 0.53481 0.00254 0.0
C556 C 0.51967 0.56327 -0.00549 0.0
C557 C 0.48523 0.51403 -0.00586 0.0
C558 C 0.50913 0.57093 0.978 0.0
C559 C 0.48706 0.55022 0.9695 0.0
H560 H 0.7575 0.20933 0.2097 0.0
H561 H 0.81712 0.22174 0.25475 0.0
H562 H 0.77028 0.24656 0.26939 0.0
H563 H 0.7124 0.26295 0.26959 0.0
H564 H 0.65252 0.25026 0.22468 0.0
H565 H 0.6998 0.22695 0.20969 0.0
C566 C 0.76034 0.21762 0.2227 0.0
C567 C 0.79065 0.21365 0.23118 0.0
C568 C 0.73334 0.2315 0.23104 0.0
C569 C 0.79399 0.22454 0.24798 0.0
C570 C 0.76724 0.23862 0.25635 0.0
C571 C 0.70962 0.25505 0.25651 0.0
C572 C 0.679 0.25807 0.24824 0.0
C573 C 0.73678 0.24187 0.24804 0.0
C574 C 0.67582 0.248 0.2313 0.0
C575 C 0.70283 0.23476 0.22275 0.0
H576 H 0.2471 0.25773 0.77121 0.0
H577 H 0.31461 0.25362 0.729 0.0
H578 H 0.27347 0.22368 0.71226 0.0
H579 H 0.21776 0.20079 0.70931 0.0
H580 H 0.1501 0.2055 0.75142 0.0
H581 H 0.19211 0.2332 0.76858 0.0
C582 C 0.25291 0.25015 0.75837 0.0
C583 C 0.28376 0.25799 0.75131 0.0
C584 C 0.22914 0.23324 0.74881 0.0
C585 C 0.29098 0.24791 0.7347 0.0
C586 C 0.26748 0.23087 0.72512 0.0
C587 C 0.21221 0.20779 0.72226 0.0
C588 C 0.18083 0.20132 0.72907 0.0
C589 C 0.23637 0.22375 0.732 0.0
C590 C 0.17405 0.21035 0.74588 0.0
C591 C 0.19803 0.22617 0.75569 0.0
H592 H 0.22822 0.73399 0.26961 0.0
H593 H 0.17569 0.73936 0.22199 0.0
H594 H 0.21889 0.77508 0.21041 0.0
H595 H 0.27269 0.80246 0.21353 0.0
H596 H 0.32531 0.79579 0.26111 0.0
H597 H 0.28064 0.76279 0.27306 0.0
C598 C 0.22609 0.74307 0.25672 0.0
C599 C 0.19896 0.73394 0.24662 0.0
C600 C 0.25101 0.76321 0.25015 0.0
C601 C 0.19645 0.74602 0.22998 0.0
C602 C 0.22112 0.76637 0.22336 0.0
C603 C 0.27429 0.79393 0.22654 0.0
C604 C 0.3023 0.80133 0.2364 0.0
C605 C 0.24869 0.77477 0.23328 0.0
C606 C 0.30404 0.79024 0.25325 0.0
C607 C 0.27855 0.77139 0.26009 0.0
H608 H 0.27296 0.19722 0.24235 0.0
H609 H 0.20232 0.20282 0.28309 0.0
H610 H 0.1764 0.25065 0.26954 0.0
H611 H 0.17467 0.29124 0.24627 0.0
H612 H 0.24709 0.28589 0.20629 0.0
H613 H 0.27195 0.23779 0.21966 0.0
C614 C 0.25168 0.20865 0.24822 0.0
C615 C 0.23939 0.19641 0.26362 0.0
C616 C 0.23759 0.23644 0.24064 0.0
C617 C 0.21208 0.21175 0.27116 0.0
C618 C 0.1974 0.23916 0.26348 0.0
C619 C 0.19604 0.27968 0.24057 0.0
C620 C 0.209 0.29208 0.22531 0.0
C621 C 0.21018 0.25189 0.24829 0.0
C622 C 0.23666 0.27685 0.21804 0.0
C623 C 0.2508 0.24924 0.22562 0.0
H624 H 0.22925 0.77742 0.76382 0.0
H625 H 0.17464 0.77172 0.71679 0.0
H626 H 0.20683 0.7236 0.70834 0.0
H627 H 0.2509 0.6844 0.71406 0.0
H628 H 0.3065 0.69051 0.76076 0.0
H629 H 0.27251 0.737 0.7699 0.0
C630 C 0.22447 0.76575 0.75168 0.0
C631 C 0.19979 0.77816 0.74086 0.0
C632 C 0.2428 0.73805 0.747 0.0
C633 C 0.19365 0.76266 0.72526 0.0
C634 C 0.21189 0.73511 0.72048 0.0
C635 C 0.25545 0.69566 0.72632 0.0
C636 C 0.28128 0.68424 0.73669 0.0
C637 C 0.2365 0.72269 0.73125 0.0
C638 C 0.28675 0.69894 0.75256 0.0
C639 C 0.26752 0.72562 0.75772 0.0
H640 H 0.52855 0.96151 0.48317 0.0
H641 H 0.56141 0.01733 0.52668 0.0
H642 H 0.51721 0.05707 0.52228 0.0
H643 H 0.4688 0.07557 0.50642 0.0
H644 H 0.4358 0.02039 0.46274 0.0
H645 H 0.4802 0.98054 0.46701 0.0
C646 C 0.52618 0.98254 0.49157 0.0
C647 C 0.54816 0.98648 0.50521 0.0
C648 C 0.50046 0.00517 0.48909 0.0
C649 C 0.54473 0.01374 0.51608 0.0
C650 C 0.51941 0.03642 0.51363 0.0
C651 C 0.47117 0.05469 0.49791 0.0
C652 C 0.44904 0.05083 0.48435 0.0
C653 C 0.49696 0.03221 0.50028 0.0
C654 C 0.45257 0.02382 0.47332 0.0
C655 C 0.478 0.00111 0.4757 0.0
H656 H 0.03578 0.90573 -0.00643 0.0
H657 H 0.03615 0.97119 0.95036 0.0
H658 H -0.00107 0.00875 0.96501 0.0
H659 H 0.96695 0.02328 -0.00982 0.0
H660 H 0.96727 0.95829 0.03358 0.0
H661 H 0.00348 0.92008 0.01868 0.0
C662 C 0.02768 0.92819 0.98736 0.0
C663 C 0.03868 0.93571 0.97095 0.0
C664 C 0.0064 0.94969 -0.00415 0.0
C665 C 0.02805 0.9649 0.96303 0.0
C666 C 0.00675 0.98637 0.97138 0.0
C667 C 0.97484 0.00069 -0.00365 0.0
C668 C 0.96453 0.9936 0.01293 0.0
C669 C -0.00415 0.97903 0.98779 0.0
C670 C 0.97497 0.9643 0.0208 0.0
C671 C -0.00433 0.94246 0.01231 0.0
H672 H 0.53012 0.03612 0.97003 0.0
H673 H 0.53282 0.09677 0.015 0.0
H674 H 0.48884 0.06341 0.02761 0.0
H675 H 0.45158 0.01563 0.02623 0.0
H676 H 0.44955 0.95513 0.98117 0.0
H677 H 0.49124 0.99029 0.96809 0.0
C678 C 0.52111 0.04208 0.9826 0.0
C679 C 0.53483 0.0686 -0.00833 0.0
C680 C 0.49594 0.02297 0.9897 0.0
C681 C 0.52267 0.07631 0.00783 0.0
C682 C 0.49756 0.0573 0.01503 0.0
C683 C 0.46003 0.01034 0.01349 0.0
C684 C 0.44773 0.98272 0.00472 0.0
C685 C 0.48425 0.0304 0.00612 0.0
C686 C 0.4588 0.97618 0.9882 0.0
C687 C 0.48268 -0.00382 0.98073 0.0
H688 H 0.01964 -0.00314 0.5158 0.0
H689 H 0.01937 0.06004 0.47169 0.0
H690 H 0.993 0.01652 0.45507 0.0
H691 H 0.9691 0.96128 0.45325 0.0
H692 H 0.96868 0.89803 0.49732 0.0
H693 H -0.0035 0.94099 0.51383 0.0
C694 C 0.01388 0.00108 0.50254 0.0
C695 C 0.02131 0.03162 0.49499 0.0
C696 C -0.00136 0.97604 0.49309 0.0
C697 C 0.01378 0.03674 0.47779 0.0
C698 C -0.00127 0.0119 0.46829 0.0
C699 C 0.97517 0.95681 0.46646 0.0
C700 C 0.96681 0.92659 0.47408 0.0
C701 C 0.99091 0.98157 0.47584 0.0
C702 C 0.97486 0.92114 0.49118 0.0
C703 C 0.99071 0.94567 0.50062 0.0
H704 H 0.02483 0.14828 0.03977 0.0
H705 H 0.92234 0.17576 0.04428 0.0
H706 H 0.93693 0.23372 0.04116 0.0
H707 H 0.97849 0.27671 0.03718 0.0
H708 H 0.08091 0.24984 0.03168 0.0
H709 H 0.06659 0.19164 0.03507 0.0
C710 C 0.00576 0.16699 0.04011 0.0
C711 C 0.9726 0.15769 0.04228 0.0
C712 C 0.01423 0.2004 0.03808 0.0
C713 C 0.94808 0.1822 0.04255 0.0
C714 C 0.95636 0.2154 0.04079 0.0
C715 C -0.00229 0.25815 0.03672 0.0
C716 C 0.03069 0.26764 0.03423 0.0
C717 C 0.98932 0.22478 0.03854 0.0
C718 C 0.05526 0.24321 0.03353 0.0
C719 C 0.04713 0.20991 0.03552 0.0
H720 H 0.04208 0.77165 0.27632 0.0
H721 H 0.01363 0.66973 0.26984 0.0
H722 H 0.95546 0.68556 0.26935 0.0
H723 H 0.91269 0.72827 0.27175 0.0
H724 H 0.94177 0.83032 0.2772 0.0
H725 H -0.00029 0.81447 0.27702 0.0
C726 C 0.02315 0.7529 0.27478 0.0
C727 C 0.03208 0.71958 0.27328 0.0
C728 C 0.98989 0.76217 0.27433 0.0
C729 C 0.00734 0.69559 0.27103 0.0
C730 C 0.97409 0.70459 0.2708 0.0
C731 C 0.93173 0.74702 0.27285 0.0
C732 C 0.92292 0.78036 0.2746 0.0
C733 C 0.96508 0.73779 0.27259 0.0
C734 C 0.94786 0.80445 0.27581 0.0
C735 C 0.98102 0.79543 0.27577 0.0
H736 H 0.52876 0.69893 0.52907 0.0
H737 H 0.431 0.73114 0.54272 0.0
H738 H 0.44767 0.78872 0.539 0.0
H739 H 0.4909 0.82986 0.53319 0.0
H740 H 0.58809 0.79702 0.51856 0.0
H741 H 0.57055 0.73977 0.52109 0.0
C742 C 0.51113 0.71858 0.53122 0.0
C743 C 0.47889 0.71092 0.53637 0.0
C744 C 0.52071 0.7515 0.52881 0.0
C745 C 0.45605 0.73651 0.53881 0.0
C746 C 0.46555 0.76941 0.53669 0.0
C747 C 0.50815 0.81019 0.5304 0.0
C748 C 0.54082 0.8178 0.52585 0.0
C749 C 0.49793 0.77719 0.53186 0.0
C750 C 0.56277 0.79196 0.52212 0.0
C751 C 0.55285 0.75914 0.52364 0.0
H752 H 0.56311 0.25185 0.79379 0.0
H753 H 0.53203 0.15104 0.80155 0.0
H754 H 0.47434 0.16789 0.80062 0.0
H755 H 0.43272 0.21078 0.79665 0.0
H756 H 0.46339 0.31129 0.78746 0.0
H757 H 0.52117 0.29502 0.78985 0.0
C758 C 0.54367 0.23369 0.79543 0.0
C759 C 0.55176 0.20032 0.79774 0.0
C760 C 0.51049 0.24341 0.7945 0.0
C761 C 0.52637 0.17691 0.79966 0.0
C762 C 0.49339 0.18649 0.79914 0.0
C763 C 0.45202 0.22916 0.79522 0.0
C764 C 0.44374 0.26214 0.79186 0.0
C765 C 0.48516 0.2196 0.79639 0.0
C766 C 0.46908 0.28564 0.78996 0.0
C767 C 0.50215 0.2764 0.79137 0.0
H768 H 0.03216 0.78279 0.44184 0.0
H769 H 0.93424 0.74088 0.43947 0.0
H770 H 0.95752 0.68529 0.44021 0.0
H771 H 0.00589 0.6487 0.4407 0.0
H772 H 0.10356 0.69124 0.44396 0.0
H773 H 0.08007 0.74649 0.4438 0.0
C774 C 0.01589 0.7615 0.44148 0.0
C775 C 0.98157 0.76593 0.44045 0.0
C776 C 0.02938 0.72973 0.44209 0.0
C777 C 0.96078 0.73811 0.44025 0.0
C778 C 0.97407 0.70633 0.44064 0.0
C779 C 0.02202 0.67006 0.44143 0.0
C780 C 0.05643 0.66581 0.44224 0.0
C781 C 0.00835 0.70186 0.44144 0.0
C782 C 0.07697 0.69375 0.44335 0.0
C783 C 0.06359 0.7254 0.4432 0.0
H784 H 0.51668 0.80208 0.70127 0.0
H785 H 0.56996 0.71086 0.6945 0.0
H786 H 0.51925 0.67951 0.69829 0.0
H787 H 0.4598 0.67774 0.70283 0.0
H788 H 0.40532 0.76846 0.70824 0.0
H789 H 0.45653 0.80022 0.70582 0.0
C790 C 0.51717 0.77536 0.70065 0.0
C791 C 0.54708 0.7589 0.69756 0.0
C792 C 0.48776 0.75735 0.70265 0.0
C793 C 0.54727 0.72423 0.69673 0.0
C794 C 0.51829 0.70621 0.69897 0.0
C795 C 0.45912 0.70445 0.70366 0.0
C796 C 0.42885 0.72071 0.70579 0.0
C797 C 0.48842 0.7225 0.70186 0.0
C798 C 0.42836 0.75536 0.70659 0.0
C799 C 0.4576 0.77353 0.70519 0.0
H800 H 0.49246 0.19801 0.94699 0.0
H801 H 0.58883 0.24094 0.95504 0.0
H802 H 0.56547 0.29627 0.95206 0.0
H803 H 0.51733 0.33236 0.94747 0.0
H804 H 0.42095 0.28854 0.94068 0.0
H805 H 0.44477 0.23358 0.94281 0.0
C806 C 0.50845 0.21943 0.94802 0.0
C807 C 0.54233 0.21536 0.95117 0.0
C808 C 0.49484 0.25101 0.94653 0.0
C809 C 0.56261 0.24342 0.95266 0.0
C810 C 0.5493 0.27504 0.95092 0.0
C811 C 0.50162 0.31076 0.94639 0.0
C812 C 0.46745 0.31452 0.94391 0.0
C813 C 0.51541 0.27912 0.94789 0.0
C814 C 0.44731 0.28633 0.94268 0.0
C815 C 0.4609 0.25488 0.94386 0.0
H816 H 0.07643 0.23515 0.19453 0.0
H817 H 0.04186 0.33329 0.18295 0.0
H818 H 0.98481 0.31427 0.18439 0.0
H819 H 0.94473 0.27008 0.18927 0.0
H820 H 0.97898 0.17232 0.202 0.0
H821 H 0.03612 0.19096 0.19987 0.0
C822 C 0.05639 0.25228 0.19222 0.0
C823 C 0.06332 0.28551 0.1886 0.0
C824 C 0.02359 0.24134 0.19338 0.0
C825 C 0.03713 0.30757 0.18583 0.0
C826 C 0.0045 0.29674 0.18664 0.0
C827 C 0.96468 0.25283 0.19157 0.0
C828 C 0.95758 0.21988 0.19577 0.0
C829 C -0.00255 0.26373 0.19048 0.0
C830 C 0.98374 0.19789 0.19882 0.0
C831 C 0.01645 0.20847 0.19755 0.0
H832 H 0.01214 0.6614 0.94213 0.0
H833 H 0.91339 0.70108 0.9439 0.0
H834 H 0.93539 0.75695 0.94174 0.0
H835 H 0.98249 0.79453 0.93887 0.0
H836 H 0.08135 0.75518 0.93809 0.0
H837 H 0.05941 0.69916 0.94028 0.0
C838 C -0.00457 0.68226 0.94209 0.0
C839 C 0.96118 0.67702 0.94311 0.0
C840 C 0.00822 0.71437 0.94093 0.0
C841 C 0.93988 0.70437 0.94317 0.0
C842 C 0.95241 0.73636 0.94187 0.0
C843 C -0.00078 0.77368 0.93911 0.0
C844 C 0.03345 0.77896 0.9382 0.0
C845 C 0.9865 0.74163 0.94063 0.0
C846 C 0.05487 0.75175 0.93877 0.0
C847 C 0.04236 0.71972 0.94001 0.0
H848 H 0.93227 0.31057 0.688 0.0
H849 H 0.88428 0.21606 0.6818 0.0
H850 H 0.93766 0.18834 0.68384 0.0
H851 H -0.00217 0.19105 0.68748 0.0
H852 H 0.04566 0.28584 0.69273 0.0
H853 H 0.99224 0.31337 0.69105 0.0
C854 C 0.93341 0.28388 0.68709 0.0
C855 C 0.9043 0.2654 0.68481 0.0
C856 C 0.9641 0.26818 0.68817 0.0
C857 C 0.90632 0.23088 0.68352 0.0
C858 C 0.9368 0.21501 0.68474 0.0
C859 C -0.00346 0.21772 0.68836 0.0
C860 C 0.02564 0.23637 0.69033 0.0
C861 C 0.96582 0.23342 0.68712 0.0
C862 C 0.02362 0.27093 0.69121 0.0
C863 C 0.9931 0.28669 0.69025 0.0
H864 H 0.48296 0.33584 0.45946 0.0
H865 H 0.57846 0.2928 0.44991 0.0
H866 H 0.55561 0.23769 0.45421 0.0
H867 H 0.50778 0.20162 0.45872 0.0
H868 H 0.41251 0.24453 0.46896 0.0
H869 H 0.43612 0.29981 0.46654 0.0
C870 C 0.4988 0.3144 0.45843 0.0
C871 C 0.53224 0.31838 0.45418 0.0
C872 C 0.48556 0.28278 0.461 0.0
C873 C 0.5526 0.29042 0.45314 0.0
C874 C 0.53954 0.25887 0.45554 0.0
C875 C 0.49224 0.22307 0.46056 0.0
C876 C 0.45839 0.21898 0.46382 0.0
C877 C 0.50595 0.25475 0.45918 0.0
C878 C 0.43865 0.24699 0.46641 0.0
C879 C 0.45209 0.27863 0.46495 0.0
H880 H 0.44558 0.72489 0.20444 0.0
H881 H 0.49588 0.81816 0.21079 0.0
H882 H 0.54912 0.79031 0.20939 0.0
H883 H 0.58132 0.73988 0.20529 0.0
H884 H 0.53118 0.64638 0.19977 0.0
H885 H 0.47784 0.674 0.20196 0.0
C886 C 0.46819 0.73912 0.20558 0.0
C887 C 0.46677 0.77356 0.20758 0.0
C888 C 0.4987 0.72296 0.20485 0.0
C889 C 0.49628 0.7916 0.20924 0.0
C890 C 0.52674 0.77573 0.20839 0.0
C891 C 0.55872 0.72554 0.20456 0.0
C892 C 0.56016 0.69121 0.20221 0.0
C893 C 0.52822 0.7415 0.206 0.0
C894 C 0.5307 0.67287 0.20156 0.0
C895 C 0.50021 0.68864 0.20278 0.0
H896 H 0.92329 0.29194 0.53486 0.0
H897 H 0.02125 0.33102 0.54328 0.0
H898 H 0.04418 0.27553 0.54139 0.0
H899 H 0.03659 0.21634 0.53683 0.0
H900 H 0.93866 0.17664 0.52944 0.0
H901 H 0.91546 0.23222 0.53139 0.0
C902 C 0.94966 0.28833 0.53632 0.0
C903 C 0.97055 0.31561 0.53912 0.0
C904 C 0.96266 0.25637 0.53531 0.0
C905 C 0.00461 0.31046 0.54115 0.0
C906 C 0.01777 0.27876 0.54 0.0
C907 C 0.01017 0.21983 0.53555 0.0
C908 C 0.98937 0.1925 0.53281 0.0
C909 C -0.00295 0.25163 0.53696 0.0
C910 C 0.95516 0.19734 0.5315 0.0
C911 C 0.94191 0.22907 0.53261 0.0
H912 H 0.41319 0.17021 0.28941 0.0
H913 H 0.37423 0.26921 0.29147 0.0
H914 H 0.42976 0.29166 0.28738 0.0
H915 H 0.48943 0.28295 0.28403 0.0
H916 H 0.52797 0.18372 0.2832 0.0
H917 H 0.4722 0.16151 0.28588 0.0
C918 C 0.4167 0.19673 0.28889 0.0
C919 C 0.38957 0.21801 0.29074 0.0
C920 C 0.44856 0.20938 0.28674 0.0
C921 C 0.3947 0.25229 0.29014 0.0
C922 C 0.42642 0.26513 0.28777 0.0
C923 C 0.48559 0.25646 0.28428 0.0
C924 C 0.51277 0.23499 0.28339 0.0
C925 C 0.45353 0.24387 0.28615 0.0
C926 C 0.50746 0.20075 0.28391 0.0
C927 C 0.4756 0.18804 0.28545 0.0
H928 H 0.43076 0.80132 0.03665 0.0
H929 H 0.52413 0.85222 0.0327 0.0
H930 H 0.55295 0.79941 0.03119 0.0
H931 H 0.55159 0.73881 0.03137 0.0
H932 H 0.45822 0.68826 0.0366 0.0
H933 H 0.42946 0.741 0.03727 0.0
C934 C 0.4574 0.80087 0.03535 0.0
C935 C 0.47527 0.8306 0.0347 0.0
C936 C 0.47382 0.77052 0.03479 0.0
C937 C 0.50982 0.82963 0.03325 0.0
C938 C 0.52631 0.79947 0.03237 0.0
C939 C 0.52495 0.73934 0.03261 0.0
C940 C 0.50709 0.70966 0.0339 0.0
C941 C 0.50856 0.76976 0.0332 0.0
C942 C 0.47259 0.71076 0.03565 0.0
C943 C 0.45609 0.74089 0.03599 0.0
H944 H 0.96785 0.68085 0.77892 0.0
H945 H 0.91354 0.77204 0.77477 0.0
H946 H 0.96497 0.80284 0.77209 0.0
H947 H 0.02529 0.80417 0.77148 0.0
H948 H 0.08 0.71349 0.77682 0.0
H949 H 0.0285 0.68226 0.77845 0.0
C950 C 0.96729 0.70743 0.77735 0.0
C951 C 0.93692 0.72408 0.77705 0.0
C952 C -0.00299 0.72512 0.77606 0.0
C953 C 0.9366 0.7586 0.77514 0.0
C954 C 0.96599 0.77626 0.77357 0.0
C955 C 0.02597 0.77756 0.7729 0.0
C956 C 0.05641 0.76121 0.774 0.0
C957 C -0.00368 0.75981 0.77409 0.0
C958 C 0.05686 0.72672 0.77601 0.0
C959 C 0.02743 0.70881 0.77692 0.0
H960 H 0.3054 0.37853 -0.00816 0.0
H961 H 0.26564 0.38663 0.94127 0.0
H962 H 0.20966 0.37848 0.95223 0.0
H963 H 0.17213 0.37053 0.97643 0.0
H964 H 0.21167 0.36935 0.02721 0.0
H965 H 0.26786 0.37321 0.01604 0.0
C966 C 0.28441 0.37829 0.98326 0.0
C967 C 0.28932 0.38282 0.96583 0.0
C968 C 0.25245 0.3749 0.98972 0.0
C969 C 0.26216 0.38315 0.95477 0.0
C970 C 0.23028 0.37846 0.96102 0.0
C971 C 0.19317 0.3709 0.98497 0.0
C972 C 0.18817 0.36936 0.00253 0.0
C973 C 0.22515 0.37449 0.97848 0.0
C974 C 0.21526 0.37049 0.01362 0.0
C975 C 0.24726 0.37267 0.00725 0.0
H976 H 0.81033 0.05792 0.23402 0.0
H977 H 0.91674 0.05593 0.23538 0.0
H978 H 0.91536 0.00078 0.24804 0.0
H979 H 0.88375 0.95226 0.25735 0.0
H980 H 0.77731 0.95547 0.25716 0.0
H981 H 0.77879 0.01132 0.24547 0.0
C982 C 0.8332 0.04541 0.23715 0.0
C983 C 0.86359 0.06061 0.23363 0.0
C984 C 0.83217 0.01406 0.24458 0.0
C985 C 0.89307 0.04455 0.23798 0.0
C986 C 0.89228 0.01305 0.24515 0.0
C987 C 0.8609 0.96529 0.25481 0.0
C988 C 0.83047 0.94978 0.2579 0.0
C989 C 0.86196 -0.00257 0.24829 0.0
C990 C 0.80102 0.96698 0.25484 0.0
C991 C 0.80185 -0.00118 0.24811 0.0
H992 H 0.2069 0.59544 0.49518 0.0
H993 H 0.2585 0.58882 0.44758 0.0
H994 H 0.31135 0.59658 0.46225 0.0
H995 H 0.34255 0.6052 0.48865 0.0
H996 H 0.29153 0.60562 0.53653 0.0
H997 H 0.23843 0.60031 0.52176 0.0
C998 C 0.22978 0.59579 0.48807 0.0
C999 C 0.22909 0.59198 0.47038 0.0
C1000 C 0.25993 0.59914 0.49663 0.0
C1001 C 0.2587 0.59177 0.46123 0.0
C1002 C 0.28878 0.59627 0.4696 0.0
C1003 C 0.31972 0.60426 0.49579 0.0
C1004 C 0.32058 0.60622 0.51355 0.0
C1005 C 0.28964 0.60002 0.48728 0.0
C1006 C 0.29116 0.60425 0.52281 0.0
C1007 C 0.26094 0.60126 0.51439 0.0
H1008 H 0.67832 0.03391 0.75415 0.0
H1009 H 0.57355 0.0412 0.76281 0.0
H1010 H 0.5645 0.98949 0.74745 0.0
H1011 H 0.58673 0.9419 0.73177 0.0
H1012 H 0.69138 0.93695 0.72197 0.0
H1013 H 0.70008 0.98816 0.73748 0.0
C1014 C 0.65353 0.02409 0.75271 0.0
C1015 C 0.62669 0.04102 0.75968 0.0
C1016 C 0.64848 -0.00513 0.74361 0.0
C1017 C 0.59461 0.02844 0.75753 0.0
C1018 C 0.58942 -0.00108 0.74878 0.0
C1019 C 0.61137 0.95213 0.73302 0.0
C1020 C 0.63834 0.93566 0.72581 0.0
C1021 C 0.61621 0.98189 0.74178 0.0
C1022 C 0.67016 0.94925 0.72737 0.0
C1023 C 0.67522 0.97847 0.73629 0.0
H1024 H 0.67783 0.57789 -0.00847 0.0
H1025 H 0.6877 0.68313 -0.00204 0.0
H1026 H 0.74193 0.68163 0.98424 0.0
H1027 H 0.78732 0.64966 0.97151 0.0
H1028 H 0.77545 0.54472 0.96417 0.0
H1029 H 0.72094 0.54686 0.97711 0.0
C1030 C 0.69184 0.60052 -0.01009 0.0
C1031 C 0.67914 0.63051 -0.00411 0.0
C1032 C 0.72254 0.59948 0.98187 0.0
C1033 C 0.69715 0.65975 -0.00654 0.0
C1034 C 0.72811 0.65887 0.98567 0.0
C1035 C 0.77269 0.62733 0.97269 0.0
C1036 C 0.78544 0.59703 0.96704 0.0
C1037 C 0.74119 0.62878 0.98 0.0
C1038 C 0.76615 0.56833 0.96843 0.0
C1039 C 0.73504 0.5695 0.97588 0.0
H1040 H 0.07367 0.94804 0.74082 0.0
H1041 H 0.1781 0.94035 0.73106 0.0
H1042 H 0.1778 -0.00591 0.7172 0.0
H1043 H 0.14887 0.04418 0.70922 0.0
H1044 H 0.04545 0.05504 0.7207 0.0
H1045 H 0.04421 -0.00094 0.7325 0.0
C1046 C 0.0962 0.95813 0.73551 0.0
C1047 C 0.12586 0.94044 0.73694 0.0
C1048 C 0.09605 0.98956 0.72797 0.0
C1049 C 0.15504 0.95373 0.73019 0.0
C1050 C 0.15489 0.98438 0.72225 0.0
C1051 C 0.12594 0.03423 0.71415 0.0
C1052 C 0.09729 0.0536 0.71407 0.0
C1053 C 0.12568 0.00265 0.72128 0.0
C1054 C 0.06786 0.04052 0.72067 0.0
C1055 C 0.06715 0.00858 0.72741 0.0
H1056 H 0.81097 0.4419 0.48797 0.0
H1057 H 0.80578 0.33964 0.50294 0.0
H1058 H 0.75451 0.33282 0.48686 0.0
H1059 H 0.70963 0.35695 0.46997 0.0
H1060 H 0.71614 0.45867 0.45405 0.0
H1061 H 0.76881 0.46457 0.46886 0.0
C1062 C 0.79859 0.41814 0.48766 0.0
C1063 C 0.8117 0.39143 0.49677 0.0
C1064 C 0.76954 0.41429 0.47818 0.0
C1065 C 0.79594 0.36057 0.49604 0.0
C1066 C 0.76667 0.35667 0.48688 0.0
C1067 C 0.72279 0.38029 0.46959 0.0
C1068 C 0.70893 0.40741 0.46109 0.0
C1069 C 0.75304 0.38349 0.47809 0.0
C1070 C 0.72634 0.43741 0.46052 0.0
C1071 C 0.75634 0.44088 0.46907 0.0
H1072 H 0.3613 0.06283 0.25149 0.0
H1073 H 0.31597 0.01227 0.2936 0.0
H1074 H 0.3355 0.95928 0.28262 0.0
H1075 H 0.36281 0.92734 0.26012 0.0
H1076 H 0.40221 0.97776 0.21652 0.0
H1077 H 0.38835 0.03117 0.22914 0.0
C1078 C 0.35587 0.04021 0.25832 0.0
C1079 C 0.33728 0.04129 0.2733 0.0
C1080 C 0.36639 0.01001 0.25171 0.0
C1081 C 0.33007 0.01188 0.28196 0.0
C1082 C 0.34135 0.98169 0.27573 0.0
C1083 C 0.36894 0.95016 0.25364 0.0
C1084 C 0.38397 0.94907 0.23765 0.0
C1085 C 0.35927 0.98046 0.26055 0.0
C1086 C 0.391 0.97841 0.22897 0.0
C1087 C 0.38288 0.00877 0.23611 0.0
H1088 H 0.81365 0.91387 0.4684 0.0
H1089 H 0.80205 0.80808 0.46703 0.0
H1090 H 0.74752 0.81298 0.48014 0.0
H1091 H 0.70367 0.84757 0.49232 0.0
H1092 H 0.71776 0.95293 0.49564 0.0
H1093 H 0.77099 0.94806 0.48137 0.0
C1094 C 0.79908 0.8919 0.47089 0.0
C1095 C 0.81156 0.86069 0.46666 0.0
C1096 C 0.76836 0.89489 0.47878 0.0
C1097 C 0.79281 0.83236 0.47019 0.0
C1098 C 0.7617 0.83517 0.47765 0.0
C1099 C 0.71839 0.86942 0.48983 0.0
C1100 C 0.70688 0.90057 0.49488 0.0
C1101 C 0.74929 0.86632 0.48204 0.0
C1102 C 0.72625 0.92871 0.49185 0.0
C1103 C 0.7566 0.92594 0.48369 0.0
H1104 H 0.31834 0.51897 0.72434 0.0
H1105 H 0.42271 0.53275 0.73271 0.0
H1106 H 0.42648 0.4773 0.74501 0.0
H1107 H 0.39924 0.42593 0.75449 0.0
H1108 H 0.29398 0.4151 0.74806 0.0
H1109 H 0.29135 0.46848 0.7338 0.0
C1110 C 0.342 0.50973 0.72869 0.0
C1111 C 0.37025 0.52973 0.72756 0.0
C1112 C 0.34372 0.47848 0.73616 0.0
C1113 C 0.40064 0.51769 0.73347 0.0
C1114 C 0.40278 0.48607 0.7405 0.0
C1115 C 0.37583 0.43526 0.74984 0.0
C1116 C 0.34685 0.41676 0.75226 0.0
C1117 C 0.37437 0.4664 0.74207 0.0
C1118 C 0.31656 0.42909 0.74639 0.0
C1119 C 0.31505 0.45952 0.73822 0.0
H1120 H 0.81088 0.12731 0.01932 0.0
H1121 H 0.79425 0.02213 0.02136 0.0
H1122 H 0.73986 0.02934 0.00842 0.0
H1123 H 0.69829 0.06524 -0.00444 0.0
H1124 H 0.71368 0.17061 -0.00556 0.0
H1125 H 0.76753 0.16367 0.00815 0.0
C1126 C 0.79528 0.10599 0.01696 0.0
C1127 C 0.80656 0.07421 0.02109 0.0
C1128 C 0.76402 0.11037 0.0097 0.0
C1129 C 0.78603 0.04682 0.01824 0.0
C1130 C 0.75503 0.05092 0.01081 0.0
C1131 C 0.71343 0.0867 -0.00165 0.0
C1132 C 0.70237 0.11835 -0.00614 0.0
C1133 C 0.74399 0.08252 0.00633 0.0
C1134 C 0.72184 0.14601 -0.00223 0.0
C1135 C 0.75259 0.14204 0.00555 0.0
H1136 H 0.09612 0.56123 0.2344 0.0
H1137 H 0.20111 0.57284 0.2416 0.0
H1138 H 0.21082 0.51972 0.22793 0.0
H1139 H 0.18929 0.46886 0.21523 0.0
H1140 H 0.08411 0.45546 0.20982 0.0
H1141 H 0.0746 0.51049 0.22144 0.0
C1142 C 0.12111 0.55221 0.23282 0.0
C1143 C 0.14786 0.57078 0.23896 0.0
C1144 C 0.12644 0.52133 0.22535 0.0
C1145 C 0.18012 0.5588 0.23702 0.0
C1146 C 0.1857 0.52848 0.2292 0.0
C1147 C 0.16432 0.47814 0.21646 0.0
C1148 C 0.13745 0.45827 0.2117 0.0
C1149 C 0.15902 0.50937 0.22352 0.0
C1150 C 0.10519 0.47036 0.2135 0.0
C1151 C 0.09973 0.50178 0.22011 0.0
H1152 H 0.19043 0.1184 0.52965 0.0
H1153 H 0.14808 0.13597 0.48023 0.0
H1154 H 0.20321 0.14122 0.46804 0.0
H1155 H 0.26327 0.13832 0.47124 0.0
H1156 H 0.3062 0.1254 0.52085 0.0
H1157 H 0.25094 0.12105 0.53331 0.0
C1158 C 0.19342 0.12353 0.51624 0.0
C1159 C 0.16549 0.12645 0.50577 0.0
C1160 C 0.22513 0.1273 0.50941 0.0
C1161 C 0.16938 0.13363 0.48848 0.0
C1162 C 0.20082 0.13653 0.48151 0.0
C1163 C 0.26042 0.13472 0.48479 0.0
C1164 C 0.28844 0.13175 0.49515 0.0
C1165 C 0.22881 0.13302 0.49182 0.0
C1166 C 0.28476 0.1277 0.5127 0.0
C1167 C 0.25327 0.1251 0.51978 0.0
H1168 H 0.65343 0.40668 0.25227 0.0
H1169 H 0.5471 0.41017 0.25089 0.0
H1170 H 0.54935 0.46416 0.23687 0.0
H1171 H 0.58194 0.5104 0.22525 0.0
H1172 H 0.68829 0.50433 0.22515 0.0
H1173 H 0.68568 0.45103 0.23946 0.0
C1174 C 0.63075 0.41936 0.24898 0.0
C1175 C 0.60016 0.40485 0.25274 0.0
C1176 C 0.63228 0.44973 0.2406 0.0
C1177 C 0.57092 0.42108 0.24813 0.0
C1178 C 0.57222 0.45186 0.24014 0.0
C1179 C 0.60449 0.4973 0.22834 0.0
C1180 C 0.63525 0.51123 0.22424 0.0
C1181 C 0.6028 0.46642 0.23633 0.0
C1182 C 0.66432 0.49399 0.22813 0.0
C1183 C 0.66287 0.46361 0.23637 0.0
H1184 H 0.19292 0.92061 0.97817 0.0
H1185 H 0.206 0.81629 0.96993 0.0
H1186 H 0.25699 0.81745 0.98672 0.0
H1187 H 0.29835 0.84873 0.00317 0.0
H1188 H 0.28281 0.95248 0.01257 0.0
H1189 H 0.23194 0.95088 -0.00398 0.0
C1190 C 0.20703 0.89817 0.98001 0.0
C1191 C 0.19617 0.86852 0.97269 0.0
C1192 C 0.23567 0.8989 -0.01005 0.0
C1193 C 0.21414 0.83943 0.97542 0.0
C1194 C 0.2432 0.84009 0.985 0.0
C1195 C 0.28368 0.8709 0.00166 0.0
C1196 C 0.29436 0.9007 0.00897 0.0
C1197 C 0.25426 0.86975 -0.00774 0.0
C1198 C 0.27504 0.92921 0.00708 0.0
C1199 C 0.24605 0.92838 -0.00244 0.0
H1200 H 0.80155 0.4421 0.73118 0.0
H1201 H 0.90088 0.43984 0.71183 0.0
H1202 H 0.91414 0.49059 0.72735 0.0
H1203 H 0.89641 0.53676 0.74563 0.0
H1204 H 0.79761 0.5362 0.76605 0.0
H1205 H 0.7854 0.48514 0.75112 0.0
C1206 C 0.82608 0.45279 0.73036 0.0
C1207 C 0.85007 0.43774 0.72024 0.0
C1208 C 0.83366 0.48131 0.73959 0.0
C1209 C 0.88198 0.45127 0.71952 0.0
C1210 C 0.88955 0.48021 0.72838 0.0
C1211 C 0.87237 0.52523 0.74693 0.0
C1212 C 0.84792 0.5404 0.75682 0.0
C1213 C 0.86547 0.4956 0.73837 0.0
C1214 C 0.81692 0.52508 0.75851 0.0
C1215 C 0.80979 0.49594 0.7499 0.0
H1216 H 0.14095 0.35611 0.0743 0.0
H1217 H 0.06693 0.4221 0.09402 0.0
H1218 H 0.09247 0.41944 0.12206 0.0
H1219 H 0.13069 0.3925 0.14149 0.0
H1220 H 0.20106 0.32192 0.12246 0.0
H1221 H 0.18259 0.33289 0.09346 0.0
C1222 C 0.13074 0.37036 0.08467 0.0
C1223 C 0.10188 0.38894 0.08219 0.0
C1224 C 0.14485 0.3678 0.10085 0.0
C1225 C 0.08889 0.40726 0.09571 0.0
C1226 C 0.1035 0.40579 0.11172 0.0
C1227 C 0.14259 0.38006 0.13099 0.0
C1228 C 0.16697 0.35619 0.1341 0.0
C1229 C 0.13077 0.38527 0.11453 0.0
C1230 C 0.18204 0.34022 0.12036 0.0
C1231 C 0.17138 0.34636 0.10381 0.0
H1232 H 0.85849 0.83991 0.39371 0.0
H1233 H 0.93185 0.90523 0.3724 0.0
H1234 H 0.90549 0.9008 0.34462 0.0
H1235 H 0.86509 0.87433 0.32601 0.0
H1236 H 0.79471 0.80525 0.34675 0.0
H1237 H 0.81606 0.81574 0.37529 0.0
C1238 C 0.8685 0.85349 0.38303 0.0
C1239 C 0.89722 0.87266 0.38507 0.0
C1240 C 0.85375 0.85017 0.36704 0.0
C1241 C 0.90996 0.89003 0.37111 0.0
C1242 C 0.89487 0.88758 0.35524 0.0
C1243 C 0.85392 0.86209 0.33681 0.0
C1244 C 0.82839 0.83904 0.33432 0.0
C1245 C 0.8672 0.86717 0.35301 0.0
C1246 C 0.81445 0.82305 0.34839 0.0
C1247 C 0.82674 0.82892 0.36467 0.0
H1248 H 0.38994 0.60546 0.65794 0.0
H1249 H 0.30639 0.65885 0.63791 0.0
H1250 H 0.32533 0.64835 0.60903 0.0
H1251 H 0.36842 0.62881 0.58978 0.0
H1252 H 0.45389 0.57898 0.61016 0.0
H1253 H 0.43127 0.58328 0.63869 0.0
C1254 C 0.37552 0.61431 0.64726 0.0
C1255 C 0.34692 0.63302 0.65002 0.0
C1256 C 0.38712 0.60919 0.6308 0.0
C1257 C 0.32863 0.64453 0.63607 0.0
C1258 C 0.33948 0.63863 0.61958 0.0
C1259 C 0.38193 0.61858 0.60044 0.0
C1260 C 0.41289 0.60389 0.5979 0.0
C1261 C 0.36916 0.62178 0.61683 0.0
C1262 C 0.43015 0.59076 0.61182 0.0
C1263 C 0.41722 0.59313 0.62813 0.0
H1264 H 0.69135 0.14836 0.85948 0.0
H1265 H 0.6275 0.07536 0.8366 0.0
H1266 H 0.61089 0.05609 0.86459 0.0
H1267 H 0.60684 0.06707 0.89508 0.0
H1268 H 0.66997 0.14075 0.9179 0.0
H1269 H 0.69489 0.15225 0.89042 0.0
C1270 C 0.67436 0.12775 0.86062 0.0
C1271 C 0.66 0.11393 0.84603 0.0
C1272 C 0.66443 0.1172 0.87673 0.0
C1273 C 0.63862 0.08673 0.84766 0.0
C1274 C 0.62892 0.07581 0.86366 0.0
C1275 C 0.62649 0.08519 0.89409 0.0
C1276 C 0.63591 0.10366 0.90837 0.0
C1277 C 0.64041 0.092 0.87823 0.0
C1278 C 0.66196 0.12648 0.90702 0.0
C1279 C 0.67614 0.1332 0.8913 0.0
H1280 H 0.17373 0.66055 0.3401 0.0
H1281 H 0.10439 0.59732 0.31406 0.0
H1282 H 0.09721 0.56442 0.33976 0.0
H1283 H 0.10609 0.55763 0.37033 0.0
H1284 H 0.17609 0.62058 0.39622 0.0
H1285 H 0.18816 0.64904 0.36973 0.0
C1286 C 0.15727 0.63939 0.34004 0.0
C1287 C 0.13914 0.63169 0.32537 0.0
C1288 C 0.15342 0.62052 0.35479 0.0
C1289 C 0.11844 0.60382 0.32528 0.0
C1290 C 0.11427 0.58506 0.33996 0.0
C1291 C 0.12441 0.57719 0.37013 0.0
C1292 C 0.13968 0.58735 0.38528 0.0
C1293 C 0.13099 0.59373 0.3549 0.0
C1294 C 0.16377 0.61237 0.38476 0.0
C1295 C 0.17055 0.62886 0.36964 0.0
H1296 H 0.67084 0.82909 0.62696 0.0
H1297 H 0.60834 0.89734 0.65396 0.0
H1298 H 0.59674 0.92674 0.62775 0.0
H1299 H 0.59967 0.92971 0.59695 0.0
H1300 H 0.66147 0.86167 0.56954 0.0
H1301 H 0.67865 0.83607 0.59621 0.0
C1302 C 0.6549 0.85054 0.62712 0.0
C1303 C 0.64004 0.86062 0.64234 0.0
C1304 C 0.64824 0.86743 0.61196 0.0
C1305 C 0.61988 0.88882 0.6424 0.0
C1306 C 0.6132 0.9057 0.62742 0.0
C1307 C 0.61728 0.90958 0.59682 0.0
C1308 C 0.62889 0.89726 0.58133 0.0
C1309 C 0.62657 0.89472 0.61209 0.0
C1310 C 0.65212 0.87156 0.58134 0.0
C1311 C 0.66173 0.85673 0.59656 0.0
H1312 H 0.36869 0.37949 0.82806 0.0
H1313 H 0.29793 0.31481 0.85198 0.0
H1314 H 0.3095 0.34034 0.87941 0.0
H1315 H 0.3448 0.37541 0.89687 0.0
H1316 H 0.41922 0.43651 0.87335 0.0
H1317 H 0.40076 0.41825 0.84535 0.0
C1318 C 0.35529 0.37144 0.83921 0.0
C1319 C 0.33272 0.34512 0.83806 0.0
C1320 C 0.36299 0.38532 0.855 0.0
C1321 C 0.31565 0.33484 0.85261 0.0
C1322 C 0.3223 0.34937 0.86828 0.0
C1323 C 0.35669 0.38522 0.88563 0.0
C1324 C 0.38364 0.40696 0.8872 0.0
C1325 C 0.34675 0.37377 0.86968 0.0
C1326 C 0.39864 0.41947 0.87249 0.0
C1327 C 0.38814 0.40901 0.85649 0.0
H1328 H 0.88944 0.09619 0.15923 0.0
H1329 H 0.8159 0.15515 0.1337 0.0
H1330 H 0.82666 0.12596 0.10721 0.0
H1331 H 0.86183 0.08946 0.09079 0.0
H1332 H 0.93953 0.03476 0.1156 0.0
H1333 H 0.92176 0.05609 0.14309 0.0
C1334 C 0.87534 0.10222 0.14794 0.0
C1335 C 0.85215 0.12794 0.14831 0.0
C1336 C 0.88254 0.08626 0.13267 0.0
C1337 C 0.83414 0.13565 0.13362 0.0
C1338 C 0.84027 0.11899 0.1185 0.0
C1339 C 0.87452 0.0816 0.10223 0.0
C1340 C 0.90218 0.06084 0.10117 0.0
C1341 C 0.86517 0.09508 0.11779 0.0
C1342 C 0.91834 0.05096 0.1161 0.0
C1343 C 0.90828 0.06324 0.13179 0.0
H1344 H 0.8758 0.59902 0.82784 0.0
H1345 H 0.81016 0.67299 0.848 0.0
H1346 H 0.81977 0.65223 0.87664 0.0
H1347 H 0.85049 0.61653 0.89601 0.0
H1348 H 0.9189 0.54502 0.87599 0.0
H1349 H 0.90403 0.56111 0.84711 0.0
C1350 C 0.8633 0.61042 0.83846 0.0
C1351 C 0.84253 0.6377 0.83581 0.0
C1352 C 0.86945 0.59884 0.85489 0.0
C1353 C 0.82652 0.65215 0.84972 0.0
C1354 C 0.83196 0.64028 0.86609 0.0
C1355 C 0.86175 0.60403 0.88534 0.0
C1356 C 0.88588 0.57975 0.88811 0.0
C1357 C 0.8539 0.61411 0.86884 0.0
C1358 C 0.90038 0.56394 0.87416 0.0
C1359 C 0.89198 0.57318 0.85767 0.0
H1360 H 0.10859 0.1324 0.57699 0.0
H1361 H 0.03959 0.06205 0.59794 0.0
H1362 H 0.05777 0.07633 0.62656 0.0
H1363 H 0.0889 0.11258 0.64547 0.0
H1364 H 0.15512 0.18563 0.62457 0.0
H1365 H 0.14251 0.16616 0.59596 0.0
C1366 C 0.09786 0.11979 0.5878 0.0
C1367 C 0.07259 0.09639 0.58537 0.0
C1368 C 0.10771 0.12878 0.60418 0.0
C1369 C 0.0589 0.08035 0.5995 0.0
C1370 C 0.06924 0.08852 0.61585 0.0
C1371 C 0.10095 0.12402 0.63469 0.0
C1372 C 0.12268 0.15074 0.63713 0.0
C1373 C 0.09296 0.11333 0.61832 0.0
C1374 C 0.13809 0.1652 0.62302 0.0
C1375 C 0.13087 0.15412 0.60667 0.0
H1376 H 0.62542 0.35704 0.39368 0.0
H1377 H 0.5569 0.42738 0.37251 0.0
H1378 H 0.5643 0.40321 0.34438 0.0
H1379 H 0.58678 0.35951 0.32646 0.0
H1380 H 0.65218 0.28675 0.34816 0.0
H1381 H 0.64941 0.31455 0.37557 0.0
C1382 C 0.61254 0.36745 0.38286 0.0
C1383 C 0.59067 0.39392 0.3851 0.0
C1384 C 0.61603 0.35277 0.36693 0.0
C1385 C 0.57379 0.40691 0.37104 0.0
C1386 C 0.57794 0.39307 0.35501 0.0
C1387 C 0.60067 0.34988 0.33715 0.0
C1388 C 0.61952 0.32105 0.33533 0.0
C1389 C 0.59843 0.36555 0.3529 0.0
C1390 C 0.63726 0.30877 0.34929 0.0
C1391 C 0.63576 0.32468 0.36494 0.0
H1392 H 0.42239 0.93674 0.10672 0.0
H1393 H 0.34512 0.88016 0.08243 0.0
H1394 H 0.32959 0.85642 0.10963 0.0
H1395 H 0.34139 0.84765 0.13976 0.0
H1396 H 0.41831 0.90436 0.16416 0.0
H1397 H 0.43047 0.93215 0.13743 0.0
C1398 C 0.40186 0.91957 0.10739 0.0
C1399 C 0.38531 0.90989 0.09252 0.0
C1400 C 0.39324 0.90571 0.12305 0.0
C1401 C 0.35848 0.88791 0.09366 0.0
C1402 C 0.34965 0.87415 0.1092 0.0
C1403 C 0.36071 0.86621 0.13924 0.0
C1404 C 0.37927 0.87357 0.15381 0.0
C1405 C 0.36748 0.88216 0.12388 0.0
C1406 C 0.40379 0.89812 0.15306 0.0
C1407 C 0.4108 0.91399 0.13778 0.0
H1408 H 0.84227 0.40521 0.64443 0.0
H1409 H 0.77888 0.33504 0.61899 0.0
H1410 H 0.79663 0.35634 0.59153 0.0
H1411 H 0.8366 0.38836 0.57505 0.0
H1412 H 0.90333 0.45501 0.60072 0.0
H1413 H 0.87742 0.44193 0.6278 0.0
C1414 C 0.83177 0.39499 0.6329 0.0
C1415 C 0.80973 0.36817 0.63376 0.0
C1416 C 0.84298 0.40649 0.61719 0.0
C1417 C 0.79623 0.35541 0.61868 0.0
C1418 C 0.80643 0.36751 0.60297 0.0
C1419 C 0.845 0.40061 0.58651 0.0
C1420 C 0.87218 0.42222 0.58593 0.0
C1421 C 0.83083 0.39205 0.6021 0.0
C1422 C 0.88272 0.43793 0.60088 0.0
C1423 C 0.86797 0.43041 0.61637 0.0
H1424 H 0.28979 0.17996 0.3658 0.0
H1425 H 0.32948 0.09217 0.34246 0.0
H1426 H 0.3559 0.07688 0.369 0.0
H1427 H 0.37279 0.09135 0.39782 0.0
H1428 H 0.33243 0.17785 0.42177 0.0
H1429 H 0.30114 0.19072 0.39598 0.0
C1430 C 0.30373 0.1572 0.36659 0.0
C1431 C 0.30814 0.13763 0.35206 0.0
C1432 C 0.31915 0.14855 0.38191 0.0
C1433 C 0.32595 0.10797 0.35338 0.0
C1434 C 0.34124 0.0992 0.36854 0.0
C1435 C 0.35698 0.11291 0.39739 0.0
C1436 C 0.3553 0.134 0.41143 0.0
C1437 C 0.33891 0.11986 0.38269 0.0
C1438 C 0.33419 0.16142 0.41097 0.0
C1439 C 0.31638 0.16879 0.39626 0.0
H1440 H 0.6744 0.64493 0.12946 0.0
H1441 H 0.61446 0.56799 0.15162 0.0
H1442 H 0.59174 0.55468 0.12382 0.0
H1443 H 0.58384 0.56944 0.09392 0.0
H1444 H 0.64379 0.64629 0.07174 0.0
H1445 H 0.67167 0.65486 0.09884 0.0
C1446 C 0.65676 0.62489 0.12818 0.0
C1447 C 0.64572 0.60793 0.14265 0.0
C1448 C 0.64347 0.61758 0.11218 0.0
C1449 C 0.62324 0.58167 0.14072 0.0
C1450 C 0.61005 0.57413 0.12483 0.0
C1451 C 0.60324 0.58782 0.09498 0.0
C1452 C 0.6113 0.60759 0.08095 0.0
C1453 C 0.61914 0.59269 0.11059 0.0
C1454 C 0.63693 0.63088 0.0824 0.0
C1455 C 0.65285 0.63588 0.0979 0.0
H1456 H 0.18185 0.84067 0.83672 0.0
H1457 H 0.10658 0.89959 0.81251 0.0
H1458 H 0.08834 0.91956 0.84008 0.0
H1459 H 0.08841 0.91352 0.87099 0.0
H1460 H 0.16314 0.85385 0.89517 0.0
H1461 H 0.1872 0.84132 0.86763 0.0
C1462 C 0.16182 0.85831 0.83746 0.0
C1463 C 0.14511 0.86802 0.82265 0.0
C1464 C 0.15111 0.86929 0.85333 0.0
C1465 C 0.11966 0.89144 0.82375 0.0
C1466 C 0.10907 0.90275 0.83951 0.0
C1467 C 0.11025 0.89817 0.87025 0.0
C1468 C 0.12349 0.88401 0.88503 0.0
C1469 C 0.12374 0.89075 0.85439 0.0
C1470 C 0.15223 0.86478 0.88394 0.0
C1471 C 0.16596 0.85748 0.8682 0.0
loop_
_geom_bond_atom_site_label_1
_geom_bond_atom_site_label_2
_geom_bond_distance
_geom_bond_site_symmetry_2
_ccdc_geom_bond_type
C0 O1 1.306 . S
C0 O3 1.160 . S
O1 C0 1.306 . S
O1 Cd2 2.228 . S
Cd2 O1 2.228 . S
Cd2 O6 2.273 . S
Cd2 O10 2.277 . S
O3 C0 1.160 . S
O3 Cd4 2.203 . S
Cd4 O3 2.203 . S
Cd4 O6 2.411 . S
Cd4 O7 2.333 . S
Cd4 O8 2.352 . S
Cd4 O12 2.277 . S
Cd4 O13 2.356 . S
C5 O10 1.209 . S
C5 O12 1.226 . S
O6 Cd2 2.273 . S
O6 Cd4 2.411 . S
O6 C9 1.320 . S
O7 Cd4 2.333 . S
O7 C9 1.214 . S
O8 Cd4 2.352 . S
O8 C11 1.258 . S
C9 O6 1.320 . S
C9 O7 1.214 . S
O10 Cd2 2.277 . S
O10 C5 1.209 . S
C11 O8 1.258 . S
C11 O13 1.282 . S
O12 Cd4 2.277 . S
O12 C5 1.226 . S
O13 Cd4 2.356 . S
O13 C11 1.282 . S
C14 O15 1.306 . S
C14 O17 1.160 . S
O15 C14 1.306 . S
O15 Cd16 2.228 . S
Cd16 O15 2.228 . S
Cd16 O20 2.273 . S
Cd16 O24 2.277 . S
O17 C14 1.160 . S
O17 Cd18 2.203 . S
Cd18 O17 2.203 . S
Cd18 O20 2.411 . S
Cd18 O21 2.333 . S
Cd18 O22 2.352 . S
Cd18 O26 2.277 . S
Cd18 O27 2.356 . S
C19 O24 1.209 . S
C19 O26 1.226 . S
O20 Cd16 2.273 . S
O20 Cd18 2.411 . S
O20 C23 1.320 . S
O21 Cd18 2.333 . S
O21 C23 1.214 . S
O22 Cd18 2.352 . S
O22 C25 1.258 . S
C23 O20 1.320 . S
C23 O21 1.214 . S
O24 Cd16 2.277 . S
O24 C19 1.209 . S
C25 O22 1.258 . S
C25 O27 1.282 . S
O26 Cd18 2.277 . S
O26 C19 1.226 . S
O27 Cd18 2.356 . S
O27 C25 1.282 . S
C28 O29 1.306 . S
C28 O31 1.160 . S
O29 C28 1.306 . S
O29 Cd30 2.228 . S
Cd30 O29 2.228 . S
Cd30 O34 2.273 . S
Cd30 O38 2.277 . S
O31 C28 1.160 . S
O31 Cd32 2.203 . S
Cd32 O31 2.203 . S
Cd32 O34 2.411 . S
Cd32 O35 2.333 . S
Cd32 O36 2.352 . S
Cd32 O40 2.277 . S
Cd32 O41 2.356 . S
C33 O38 1.209 . S
C33 O40 1.226 . S
O34 Cd30 2.273 . S
O34 Cd32 2.411 . S
O34 C37 1.320 . S
O35 Cd32 2.333 . S
O35 C37 1.214 . S
O36 Cd32 2.352 . S
O36 C39 1.258 . S
C37 O34 1.320 . S
C37 O35 1.214 . S
O38 Cd30 2.277 . S
O38 C33 1.209 . S
C39 O36 1.258 . S
C39 O41 1.282 . S
O40 Cd32 2.277 . S
O40 C33 1.226 . S
O41 Cd32 2.356 . S
O41 C39 1.282 . S
C42 O43 1.306 . S
C42 O45 1.160 . S
O43 C42 1.306 . S
O43 Cd44 2.228 . S
Cd44 O43 2.228 . S
Cd44 O48 2.273 . S
Cd44 O52 2.277 . S
O45 C42 1.160 . S
O45 Cd46 2.203 . S
Cd46 O45 2.203 . S
Cd46 O48 2.411 . S
Cd46 O49 2.333 . S
Cd46 O50 2.352 . S
Cd46 O54 2.277 . S
Cd46 O55 2.356 . S
C47 O52 1.209 . S
C47 O54 1.226 . S
O48 Cd44 2.273 . S
O48 Cd46 2.411 . S
O48 C51 1.320 . S
O49 Cd46 2.333 . S
O49 C51 1.214 . S
O50 Cd46 2.352 . S
O50 C53 1.258 . S
C51 O48 1.320 . S
C51 O49 1.214 . S
O52 Cd44 2.277 . S
O52 C47 1.209 . S
C53 O50 1.258 . S
C53 O55 1.282 . S
O54 Cd46 2.277 . S
O54 C47 1.226 . S
O55 Cd46 2.356 . S
O55 C53 1.282 . S
C56 O57 1.306 . S
C56 O59 1.160 . S
O57 C56 1.306 . S
O57 Cd58 2.228 . S
Cd58 O57 2.228 . S
Cd58 O62 2.273 . S
Cd58 O66 2.277 . S
O59 C56 1.160 . S
O59 Cd60 2.203 . S
Cd60 O59 2.203 . S
Cd60 O62 2.411 . S
Cd60 O63 2.333 . S
Cd60 O64 2.352 . S
Cd60 O68 2.277 . S
Cd60 O69 2.356 . S
C61 O66 1.209 . S
C61 O68 1.226 . S
O62 Cd58 2.273 . S
O62 Cd60 2.411 . S
O62 C65 1.320 . S
O63 Cd60 2.333 . S
O63 C65 1.214 . S
O64 Cd60 2.352 . S
O64 C67 1.258 . S
C65 O62 1.320 . S
C65 O63 1.214 . S
O66 Cd58 2.277 . S
O66 C61 1.209 . S
C67 O64 1.258 . S
C67 O69 1.282 . S
O68 Cd60 2.277 . S
O68 C61 1.226 . S
O69 Cd60 2.356 . S
O69 C67 1.282 . S
C70 O71 1.306 . S
C70 O73 1.160 . S
O71 C70 1.306 . S
O71 Cd72 2.228 . S
Cd72 O71 2.228 . S
Cd72 O76 2.273 . S
Cd72 O80 2.277 . S
O73 C70 1.160 . S
O73 Cd74 2.203 . S
Cd74 O73 2.203 . S
Cd74 O76 2.411 . S
Cd74 O77 2.333 . S
Cd74 O78 2.352 . S
Cd74 O82 2.277 . S
Cd74 O83 2.356 . S
C75 O80 1.209 . S
C75 O82 1.226 . S
O76 Cd72 2.273 . S
O76 Cd74 2.411 . S
O76 C79 1.320 . S
O77 Cd74 2.333 . S
O77 C79 1.214 . S
O78 Cd74 2.352 . S
O78 C81 1.258 . S
C79 O76 1.320 . S
C79 O77 1.214 . S
O80 Cd72 2.277 . S
O80 C75 1.209 . S
C81 O78 1.258 . S
C81 O83 1.282 . S
O82 Cd74 2.277 . S
O82 C75 1.226 . S
O83 Cd74 2.356 . S
O83 C81 1.282 . S
C84 O85 1.306 . S
C84 O87 1.160 . S
O85 C84 1.306 . S
O85 Cd86 2.228 . S
Cd86 O85 2.228 . S
Cd86 O90 2.273 . S
Cd86 O94 2.277 . S
O87 C84 1.160 . S
O87 Cd88 2.203 . S
Cd88 O87 2.203 . S
Cd88 O90 2.411 . S
Cd88 O91 2.333 . S
Cd88 O92 2.352 . S
Cd88 O96 2.277 . S
Cd88 O97 2.356 . S
C89 O94 1.209 . S
C89 O96 1.226 . S
O90 Cd86 2.273 . S
O90 Cd88 2.411 . S
O90 C93 1.320 . S
O91 Cd88 2.333 . S
O91 C93 1.214 . S
O92 Cd88 2.352 . S
O92 C95 1.258 . S
C93 O90 1.320 . S
C93 O91 1.214 . S
O94 Cd86 2.277 . S
O94 C89 1.209 . S
C95 O92 1.258 . S
C95 O97 1.282 . S
O96 Cd88 2.277 . S
O96 C89 1.226 . S
O97 Cd88 2.356 . S
O97 C95 1.282 . S
C98 O99 1.306 . S
C98 O101 1.160 . S
O99 C98 1.306 . S
O99 Cd100 2.228 . S
Cd100 O99 2.228 . S
Cd100 O104 2.273 . S
Cd100 O108 2.277 . S
O101 C98 1.160 . S
O101 Cd102 2.203 . S
Cd102 O101 2.203 . S
Cd102 O104 2.411 . S
Cd102 O105 2.333 . S
Cd102 O106 2.352 . S
Cd102 O110 2.277 . S
Cd102 O111 2.356 . S
C103 O108 1.209 . S
C103 O110 1.226 . S
O104 Cd100 2.273 . S
O104 Cd102 2.411 . S
O104 C107 1.320 . S
O105 Cd102 2.333 . S
O105 C107 1.214 . S
O106 Cd102 2.352 . S
O106 C109 1.258 . S
C107 O104 1.320 . S
C107 O105 1.214 . S
O108 Cd100 2.277 . S
O108 C103 1.209 . S
C109 O106 1.258 . S
C109 O111 1.282 . S
O110 Cd102 2.277 . S
O110 C103 1.226 . S
O111 Cd102 2.356 . S
O111 C109 1.282 . S
C112 O113 1.306 . S
C112 O115 1.160 . S
O113 C112 1.306 . S
O113 Cd114 2.228 . S
Cd114 O113 2.228 . S
Cd114 O118 2.273 . S
Cd114 O122 2.277 . S
O115 C112 1.160 . S
O115 Cd116 2.203 . S
Cd116 O115 2.203 . S
Cd116 O118 2.411 . S
Cd116 O119 2.333 . S
Cd116 O120 2.352 . S
Cd116 O124 2.277 . S
Cd116 O125 2.356 . S
C117 O122 1.209 . S
C117 O124 1.226 . S
O118 Cd114 2.273 . S
O118 Cd116 2.411 . S
O118 C121 1.320 . S
O119 Cd116 2.333 . S
O119 C121 1.214 . S
O120 Cd116 2.352 . S
O120 C123 1.258 . S
C121 O118 1.320 . S
C121 O119 1.214 . S
O122 Cd114 2.277 . S
O122 C117 1.209 . S
C123 O120 1.258 . S
C123 O125 1.282 . S
O124 Cd116 2.277 . S
O124 C117 1.226 . S
O125 Cd116 2.356 . S
O125 C123 1.282 . S
C126 O127 1.306 . S
C126 O129 1.160 . S
O127 C126 1.306 . S
O127 Cd128 2.228 . S
Cd128 O127 2.228 . S
Cd128 O132 2.273 . S
Cd128 O136 2.277 . S
O129 C126 1.160 . S
O129 Cd130 2.203 . S
Cd130 O129 2.203 . S
Cd130 O132 2.411 . S
Cd130 O133 2.333 . S
Cd130 O134 2.352 . S
Cd130 O138 2.277 . S
Cd130 O139 2.356 . S
C131 O136 1.209 . S
C131 O138 1.226 . S
O132 Cd128 2.273 . S
O132 Cd130 2.411 . S
O132 C135 1.320 . S
O133 Cd130 2.333 . S
O133 C135 1.214 . S
O134 Cd130 2.352 . S
O134 C137 1.258 . S
C135 O132 1.320 . S
C135 O133 1.214 . S
O136 Cd128 2.277 . S
O136 C131 1.209 . S
C137 O134 1.258 . S
C137 O139 1.282 . S
O138 Cd130 2.277 . S
O138 C131 1.226 . S
O139 Cd130 2.356 . S
O139 C137 1.282 . S
C140 O141 1.306 . S
C140 O143 1.160 . S
O141 C140 1.306 . S
O141 Cd142 2.228 . S
Cd142 O141 2.228 . S
Cd142 O146 2.273 . S
Cd142 O150 2.277 . S
O143 C140 1.160 . S
O143 Cd144 2.203 . S
Cd144 O143 2.203 . S
Cd144 O146 2.411 . S
Cd144 O147 2.333 . S
Cd144 O148 2.352 . S
Cd144 O152 2.277 . S
Cd144 O153 2.356 . S
C145 O150 1.209 . S
C145 O152 1.226 . S
O146 Cd142 2.273 . S
O146 Cd144 2.411 . S
O146 C149 1.320 . S
O147 Cd144 2.333 . S
O147 C149 1.214 . S
O148 Cd144 2.352 . S
O148 C151 1.258 . S
C149 O146 1.320 . S
C149 O147 1.214 . S
O150 Cd142 2.277 . S
O150 C145 1.209 . S
C151 O148 1.258 . S
C151 O153 1.282 . S
O152 Cd144 2.277 . S
O152 C145 1.226 . S
O153 Cd144 2.356 . S
O153 C151 1.282 . S
C154 O155 1.306 . S
C154 O157 1.160 . S
O155 C154 1.306 . S
O155 Cd156 2.228 . S
Cd156 O155 2.228 . S
Cd156 O160 2.273 . S
Cd156 O164 2.277 . S
O157 C154 1.160 . S
O157 Cd158 2.203 . S
Cd158 O157 2.203 . S
Cd158 O160 2.411 . S
Cd158 O161 2.333 . S
Cd158 O162 2.352 . S
Cd158 O166 2.277 . S
Cd158 O167 2.356 . S
C159 O164 1.209 . S
C159 O166 1.226 . S
O160 Cd156 2.273 . S
O160 Cd158 2.411 . S
O160 C163 1.320 . S
O161 Cd158 2.333 . S
O161 C163 1.214 . S
O162 Cd158 2.352 . S
O162 C165 1.258 . S
C163 O160 1.320 . S
C163 O161 1.214 . S
O164 Cd156 2.277 . S
O164 C159 1.209 . S
C165 O162 1.258 . S
C165 O167 1.282 . S
O166 Cd158 2.277 . S
O166 C159 1.226 . S
O167 Cd158 2.356 . S
O167 C165 1.282 . S
C168 O169 1.306 . S
C168 O171 1.160 . S
O169 C168 1.306 . S
O169 Cd170 2.228 . S
Cd170 O169 2.228 . S
Cd170 O174 2.273 . S
Cd170 O178 2.277 . S
O171 C168 1.160 . S
O171 Cd172 2.203 . S
Cd172 O171 2.203 . S
Cd172 O174 2.411 . S
Cd172 O175 2.333 . S
Cd172 O176 2.352 . S
Cd172 O180 2.277 . S
Cd172 O181 2.356 . S
C173 O178 1.209 . S
C173 O180 1.226 . S
O174 Cd170 2.273 . S
O174 Cd172 2.411 . S
O174 C177 1.320 . S
O175 Cd172 2.333 . S
O175 C177 1.214 . S
O176 Cd172 2.352 . S
O176 C179 1.258 . S
C177 O174 1.320 . S
C177 O175 1.214 . S
O178 Cd170 2.277 . S
O178 C173 1.209 . S
C179 O176 1.258 . S
C179 O181 1.282 . S
O180 Cd172 2.277 . S
O180 C173 1.226 . S
O181 Cd172 2.356 . S
O181 C179 1.282 . S
C182 O183 1.306 . S
C182 O185 1.160 . S
O183 C182 1.306 . S
O183 Cd184 2.228 . S
Cd184 O183 2.228 . S
Cd184 O188 2.273 . S
Cd184 O192 2.277 . S
O185 C182 1.160 . S
O185 Cd186 2.203 . S
Cd186 O185 2.203 . S
Cd186 O188 2.411 . S
Cd186 O189 2.333 . S
Cd186 O190 2.352 . S
Cd186 O194 2.277 . S
Cd186 O195 2.356 . S
C187 O192 1.209 . S
C187 O194 1.226 . S
O188 Cd184 2.273 . S
O188 Cd186 2.411 . S
O188 C191 1.320 . S
O189 Cd186 2.333 . S
O189 C191 1.214 . S
O190 Cd186 2.352 . S
O190 C193 1.258 . S
C191 O188 1.320 . S
C191 O189 1.214 . S
O192 Cd184 2.277 . S
O192 C187 1.209 . S
C193 O190 1.258 . S
C193 O195 1.282 . S
O194 Cd186 2.277 . S
O194 C187 1.226 . S
O195 Cd186 2.356 . S
O195 C193 1.282 . S
C196 O197 1.306 . S
C196 O199 1.160 . S
O197 C196 1.306 . S
O197 Cd198 2.228 . S
Cd198 O197 2.228 . S
Cd198 O202 2.273 . S
Cd198 O206 2.277 . S
O199 C196 1.160 . S
O199 Cd200 2.203 . S
Cd200 O199 2.203 . S
Cd200 O202 2.411 . S
Cd200 O203 2.333 . S
Cd200 O204 2.352 . S
Cd200 O208 2.277 . S
Cd200 O209 2.356 . S
C201 O206 1.209 . S
C201 O208 1.226 . S
O202 Cd198 2.273 . S
O202 Cd200 2.411 . S
O202 C205 1.320 . S
O203 Cd200 2.333 . S
O203 C205 1.214 . S
O204 Cd200 2.352 . S
O204 C207 1.258 . S
C205 O202 1.320 . S
C205 O203 1.214 . S
O206 Cd198 2.277 . S
O206 C201 1.209 . S
C207 O204 1.258 . S
C207 O209 1.282 . S
O208 Cd200 2.277 . S
O208 C201 1.226 . S
O209 Cd200 2.356 . S
O209 C207 1.282 . S
C210 O211 1.306 . S
C210 O213 1.160 . S
O211 C210 1.306 . S
O211 Cd212 2.228 . S
Cd212 O211 2.228 . S
Cd212 O216 2.273 . S
Cd212 O220 2.277 . S
O213 C210 1.160 . S
O213 Cd214 2.203 . S
Cd214 O213 2.203 . S
Cd214 O216 2.411 . S
Cd214 O217 2.333 . S
Cd214 O218 2.352 . S
Cd214 O222 2.277 . S
Cd214 O223 2.356 . S
C215 O220 1.209 . S
C215 O222 1.226 . S
O216 Cd212 2.273 . S
O216 Cd214 2.411 . S
O216 C219 1.320 . S
O217 Cd214 2.333 . S
O217 C219 1.214 . S
O218 Cd214 2.352 . S
O218 C221 1.258 . S
C219 O216 1.320 . S
C219 O217 1.214 . S
O220 Cd212 2.277 . S
O220 C215 1.209 . S
C221 O218 1.258 . S
C221 O223 1.282 . S
O222 Cd214 2.277 . S
O222 C215 1.226 . S
O223 Cd214 2.356 . S
O223 C221 1.282 . S
C224 O225 1.306 . S
C224 O227 1.160 . S
O225 C224 1.306 . S
O225 Cd226 2.228 . S
Cd226 O225 2.228 . S
Cd226 O230 2.273 . S
Cd226 O234 2.277 . S
O227 C224 1.160 . S
O227 Cd228 2.203 . S
Cd228 O227 2.203 . S
Cd228 O230 2.411 . S
Cd228 O231 2.333 . S
Cd228 O232 2.352 . S
Cd228 O236 2.277 . S
Cd228 O237 2.356 . S
C229 O234 1.209 . S
C229 O236 1.226 . S
O230 Cd226 2.273 . S
O230 Cd228 2.411 . S
O230 C233 1.320 . S
O231 Cd228 2.333 . S
O231 C233 1.214 . S
O232 Cd228 2.352 . S
O232 C235 1.258 . S
C233 O230 1.320 . S
C233 O231 1.214 . S
O234 Cd226 2.277 . S
O234 C229 1.209 . S
C235 O232 1.258 . S
C235 O237 1.282 . S
O236 Cd228 2.277 . S
O236 C229 1.226 . S
O237 Cd228 2.356 . S
O237 C235 1.282 . S
C238 O239 1.306 . S
C238 O241 1.160 . S
O239 C238 1.306 . S
O239 Cd240 2.228 . S
Cd240 O239 2.228 . S
Cd240 O244 2.273 . S
Cd240 O248 2.277 . S
O241 C238 1.160 . S
O241 Cd242 2.203 . S
Cd242 O241 2.203 . S
Cd242 O244 2.411 . S
Cd242 O245 2.333 . S
Cd242 O246 2.352 . S
Cd242 O250 2.277 . S
Cd242 O251 2.356 . S
C243 O248 1.209 . S
C243 O250 1.226 . S
O244 Cd240 2.273 . S
O244 Cd242 2.411 . S
O244 C247 1.320 . S
O245 Cd242 2.333 . S
O245 C247 1.214 . S
O246 Cd242 2.352 . S
O246 C249 1.258 . S
C247 O244 1.320 . S
C247 O245 1.214 . S
O248 Cd240 2.277 . S
O248 C243 1.209 . S
C249 O246 1.258 . S
C249 O251 1.282 . S
O250 Cd242 2.277 . S
O250 C243 1.226 . S
O251 Cd242 2.356 . S
O251 C249 1.282 . S
C252 O253 1.306 . S
C252 O255 1.160 . S
O253 C252 1.306 . S
O253 Cd254 2.228 . S
Cd254 O253 2.228 . S
Cd254 O258 2.273 . S
Cd254 O262 2.277 . S
O255 C252 1.160 . S
O255 Cd256 2.203 . S
Cd256 O255 2.203 . S
Cd256 O258 2.411 . S
Cd256 O259 2.333 . S
Cd256 O260 2.352 . S
Cd256 O264 2.277 . S
Cd256 O265 2.356 . S
C257 O262 1.209 . S
C257 O264 1.226 . S
O258 Cd254 2.273 . S
O258 Cd256 2.411 . S
O258 C261 1.320 . S
O259 Cd256 2.333 . S
O259 C261 1.214 . S
O260 Cd256 2.352 . S
O260 C263 1.258 . S
C261 O258 1.320 . S
C261 O259 1.214 . S
O262 Cd254 2.277 . S
O262 C257 1.209 . S
C263 O260 1.258 . S
C263 O265 1.282 . S
O264 Cd256 2.277 . S
O264 C257 1.226 . S
O265 Cd256 2.356 . S
O265 C263 1.282 . S
C266 O267 1.306 . S
C266 O269 1.160 . S
O267 C266 1.306 . S
O267 Cd268 2.228 . S
Cd268 O267 2.228 . S
Cd268 O272 2.273 . S
Cd268 O276 2.277 . S
O269 C266 1.160 . S
O269 Cd270 2.203 . S
Cd270 O269 2.203 . S
Cd270 O272 2.411 . S
Cd270 O273 2.333 . S
Cd270 O274 2.352 . S
Cd270 O278 2.277 . S
Cd270 O279 2.356 . S
C271 O276 1.209 . S
C271 O278 1.226 . S
O272 Cd268 2.273 . S
O272 Cd270 2.411 . S
O272 C275 1.320 . S
O273 Cd270 2.333 . S
O273 C275 1.214 . S
O274 Cd270 2.352 . S
O274 C277 1.258 . S
C275 O272 1.320 . S
C275 O273 1.214 . S
O276 Cd268 2.277 . S
O276 C271 1.209 . S
C277 O274 1.258 . S
C277 O279 1.282 . S
O278 Cd270 2.277 . S
O278 C271 1.226 . S
O279 Cd270 2.356 . S
O279 C277 1.282 . S
C280 O281 1.306 . S
C280 O283 1.160 . S
O281 C280 1.306 . S
O281 Cd282 2.228 . S
Cd282 O281 2.228 . S
Cd282 O286 2.273 . S
Cd282 O290 2.277 . S
O283 C280 1.160 . S
O283 Cd284 2.203 . S
Cd284 O283 2.203 . S
Cd284 O286 2.411 . S
Cd284 O287 2.333 . S
Cd284 O288 2.352 . S
Cd284 O292 2.277 . S
Cd284 O293 2.356 . S
C285 O290 1.209 . S
C285 O292 1.226 . S
O286 Cd282 2.273 . S
O286 Cd284 2.411 . S
O286 C289 1.320 . S
O287 Cd284 2.333 . S
O287 C289 1.214 . S
O288 Cd284 2.352 . S
O288 C291 1.258 . S
C289 O286 1.320 . S
C289 O287 1.214 . S
O290 Cd282 2.277 . S
O290 C285 1.209 . S
C291 O288 1.258 . S
C291 O293 1.282 . S
O292 Cd284 2.277 . S
O292 C285 1.226 . S
O293 Cd284 2.356 . S
O293 C291 1.282 . S
C294 O295 1.306 . S
C294 O297 1.160 . S
O295 C294 1.306 . S
O295 Cd296 2.228 . S
Cd296 O295 2.228 . S
Cd296 O300 2.273 . S
Cd296 O304 2.277 . S
O297 C294 1.160 . S
O297 Cd298 2.203 . S
Cd298 O297 2.203 . S
Cd298 O300 2.411 . S
Cd298 O301 2.333 . S
Cd298 O302 2.352 . S
Cd298 O306 2.277 . S
Cd298 O307 2.356 . S
C299 O304 1.209 . S
C299 O306 1.226 . S
O300 Cd296 2.273 . S
O300 Cd298 2.411 . S
O300 C303 1.320 . S
O301 Cd298 2.333 . S
O301 C303 1.214 . S
O302 Cd298 2.352 . S
O302 C305 1.258 . S
C303 O300 1.320 . S
C303 O301 1.214 . S
O304 Cd296 2.277 . S
O304 C299 1.209 . S
C305 O302 1.258 . S
C305 O307 1.282 . S
O306 Cd298 2.277 . S
O306 C299 1.226 . S
O307 Cd298 2.356 . S
O307 C305 1.282 . S
C308 O309 1.306 . S
C308 O311 1.160 . S
O309 C308 1.306 . S
O309 Cd310 2.228 . S
Cd310 O309 2.228 . S
Cd310 O314 2.273 . S
Cd310 O318 2.277 . S
O311 C308 1.160 . S
O311 Cd312 2.203 . S
Cd312 O311 2.203 . S
Cd312 O314 2.411 . S
Cd312 O315 2.333 . S
Cd312 O316 2.352 . S
Cd312 O320 2.277 . S
Cd312 O321 2.356 . S
C313 O318 1.209 . S
C313 O320 1.226 . S
O314 Cd310 2.273 . S
O314 Cd312 2.411 . S
O314 C317 1.320 . S
O315 Cd312 2.333 . S
O315 C317 1.214 . S
O316 Cd312 2.352 . S
O316 C319 1.258 . S
C317 O314 1.320 . S
C317 O315 1.214 . S
O318 Cd310 2.277 . S
O318 C313 1.209 . S
C319 O316 1.258 . S
C319 O321 1.282 . S
O320 Cd312 2.277 . S
O320 C313 1.226 . S
O321 Cd312 2.356 . S
O321 C319 1.282 . S
C322 O323 1.306 . S
C322 O325 1.160 . S
O323 C322 1.306 . S
O323 Cd324 2.228 . S
Cd324 O323 2.228 . S
Cd324 O328 2.273 . S
Cd324 O332 2.277 . S
O325 C322 1.160 . S
O325 Cd326 2.203 . S
Cd326 O325 2.203 . S
Cd326 O328 2.411 . S
Cd326 O329 2.333 . S
Cd326 O330 2.352 . S
Cd326 O334 2.277 . S
Cd326 O335 2.356 . S
C327 O332 1.209 . S
C327 O334 1.226 . S
O328 Cd324 2.273 . S
O328 Cd326 2.411 . S
O328 C331 1.320 . S
O329 Cd326 2.333 . S
O329 C331 1.214 . S
O330 Cd326 2.352 . S
O330 C333 1.258 . S
C331 O328 1.320 . S
C331 O329 1.214 . S
O332 Cd324 2.277 . S
O332 C327 1.209 . S
C333 O330 1.258 . S
C333 O335 1.282 . S
O334 Cd326 2.277 . S
O334 C327 1.226 . S
O335 Cd326 2.356 . S
O335 C333 1.282 . S
C336 O337 1.306 . S
C336 O339 1.160 . S
O337 C336 1.306 . S
O337 Cd338 2.228 . S
Cd338 O337 2.228 . S
Cd338 O342 2.273 . S
Cd338 O346 2.277 . S
O339 C336 1.160 . S
O339 Cd340 2.203 . S
Cd340 O339 2.203 . S
Cd340 O342 2.411 . S
Cd340 O343 2.333 . S
Cd340 O344 2.352 . S
Cd340 O348 2.277 . S
Cd340 O349 2.356 . S
C341 O346 1.209 . S
C341 O348 1.226 . S
O342 Cd338 2.273 . S
O342 Cd340 2.411 . S
O342 C345 1.320 . S
O343 Cd340 2.333 . S
O343 C345 1.214 . S
O344 Cd340 2.352 . S
O344 C347 1.258 . S
C345 O342 1.320 . S
C345 O343 1.214 . S
O346 Cd338 2.277 . S
O346 C341 1.209 . S
C347 O344 1.258 . S
C347 O349 1.282 . S
O348 Cd340 2.277 . S
O348 C341 1.226 . S
O349 Cd340 2.356 . S
O349 C347 1.282 . S
C350 O351 1.306 . S
C350 O353 1.160 . S
O351 C350 1.306 . S
O351 Cd352 2.228 . S
Cd352 O351 2.228 . S
Cd352 O356 2.273 . S
Cd352 O360 2.277 . S
O353 C350 1.160 . S
O353 Cd354 2.203 . S
Cd354 O353 2.203 . S
Cd354 O356 2.411 . S
Cd354 O357 2.333 . S
Cd354 O358 2.352 . S
Cd354 O362 2.277 . S
Cd354 O363 2.356 . S
C355 O360 1.209 . S
C355 O362 1.226 . S
O356 Cd352 2.273 . S
O356 Cd354 2.411 . S
O356 C359 1.320 . S
O357 Cd354 2.333 . S
O357 C359 1.214 . S
O358 Cd354 2.352 . S
O358 C361 1.258 . S
C359 O356 1.320 . S
C359 O357 1.214 . S
O360 Cd352 2.277 . S
O360 C355 1.209 . S
C361 O358 1.258 . S
C361 O363 1.282 . S
O362 Cd354 2.277 . S
O362 C355 1.226 . S
O363 Cd354 2.356 . S
O363 C361 1.282 . S
C364 O365 1.306 . S
C364 O367 1.160 . S
O365 C364 1.306 . S
O365 Cd366 2.228 . S
Cd366 O365 2.228 . S
Cd366 O370 2.273 . S
Cd366 O374 2.277 . S
O367 C364 1.160 . S
O367 Cd368 2.203 . S
Cd368 O367 2.203 . S
Cd368 O370 2.411 . S
Cd368 O371 2.333 . S
Cd368 O372 2.352 . S
Cd368 O376 2.277 . S
Cd368 O377 2.356 . S
C369 O374 1.209 . S
C369 O376 1.226 . S
O370 Cd366 2.273 . S
O370 Cd368 2.411 . S
O370 C373 1.320 . S
O371 Cd368 2.333 . S
O371 C373 1.214 . S
O372 Cd368 2.352 . S
O372 C375 1.258 . S
C373 O370 1.320 . S
C373 O371 1.214 . S
O374 Cd366 2.277 . S
O374 C369 1.209 . S
C375 O372 1.258 . S
C375 O377 1.282 . S
O376 Cd368 2.277 . S
O376 C369 1.226 . S
O377 Cd368 2.356 . S
O377 C375 1.282 . S
C378 O379 1.306 . S
C378 O381 1.160 . S
O379 C378 1.306 . S
O379 Cd380 2.228 . S
Cd380 O379 2.228 . S
Cd380 O384 2.273 . S
Cd380 O388 2.277 . S
O381 C378 1.160 . S
O381 Cd382 2.203 . S
Cd382 O381 2.203 . S
Cd382 O384 2.411 . S
Cd382 O385 2.333 . S
Cd382 O386 2.352 . S
Cd382 O390 2.277 . S
Cd382 O391 2.356 . S
C383 O388 1.209 . S
C383 O390 1.226 . S
O384 Cd380 2.273 . S
O384 Cd382 2.411 . S
O384 C387 1.320 . S
O385 Cd382 2.333 . S
O385 C387 1.214 . S
O386 Cd382 2.352 . S
O386 C389 1.258 . S
C387 O384 1.320 . S
C387 O385 1.214 . S
O388 Cd380 2.277 . S
O388 C383 1.209 . S
C389 O386 1.258 . S
C389 O391 1.282 . S
O390 Cd382 2.277 . S
O390 C383 1.226 . S
O391 Cd382 2.356 . S
O391 C389 1.282 . S
C392 O393 1.306 . S
C392 O395 1.160 . S
O393 C392 1.306 . S
O393 Cd394 2.228 . S
Cd394 O393 2.228 . S
Cd394 O398 2.273 . S
Cd394 O402 2.277 . S
O395 C392 1.160 . S
O395 Cd396 2.203 . S
Cd396 O395 2.203 . S
Cd396 O398 2.411 . S
Cd396 O399 2.333 . S
Cd396 O400 2.352 . S
Cd396 O404 2.277 . S
Cd396 O405 2.356 . S
C397 O402 1.209 . S
C397 O404 1.226 . S
O398 Cd394 2.273 . S
O398 Cd396 2.411 . S
O398 C401 1.320 . S
O399 Cd396 2.333 . S
O399 C401 1.214 . S
O400 Cd396 2.352 . S
O400 C403 1.258 . S
C401 O398 1.320 . S
C401 O399 1.214 . S
O402 Cd394 2.277 . S
O402 C397 1.209 . S
C403 O400 1.258 . S
C403 O405 1.282 . S
O404 Cd396 2.277 . S
O404 C397 1.226 . S
O405 Cd396 2.356 . S
O405 C403 1.282 . S
C406 O407 1.306 . S
C406 O409 1.160 . S
O407 C406 1.306 . S
O407 Cd408 2.228 . S
Cd408 O407 2.228 . S
Cd408 O412 2.273 . S
Cd408 O416 2.277 . S
O409 C406 1.160 . S
O409 Cd410 2.203 . S
Cd410 O409 2.203 . S
Cd410 O412 2.411 . S
Cd410 O413 2.333 . S
Cd410 O414 2.352 . S
Cd410 O418 2.277 . S
Cd410 O419 2.356 . S
C411 O416 1.209 . S
C411 O418 1.226 . S
O412 Cd408 2.273 . S
O412 Cd410 2.411 . S
O412 C415 1.320 . S
O413 Cd410 2.333 . S
O413 C415 1.214 . S
O414 Cd410 2.352 . S
O414 C417 1.258 . S
C415 O412 1.320 . S
C415 O413 1.214 . S
O416 Cd408 2.277 . S
O416 C411 1.209 . S
C417 O414 1.258 . S
C417 O419 1.282 . S
O418 Cd410 2.277 . S
O418 C411 1.226 . S
O419 Cd410 2.356 . S
O419 C417 1.282 . S
C420 O421 1.306 . S
C420 O423 1.160 . S
O421 C420 1.306 . S
O421 Cd422 2.228 . S
Cd422 O421 2.228 . S
Cd422 O426 2.273 . S
Cd422 O430 2.277 . S
O423 C420 1.160 . S
O423 Cd424 2.203 . S
Cd424 O423 2.203 . S
Cd424 O426 2.411 . S
Cd424 O427 2.333 . S
Cd424 O428 2.352 . S
Cd424 O432 2.277 . S
Cd424 O433 2.356 . S
C425 O430 1.209 . S
C425 O432 1.226 . S
O426 Cd422 2.273 . S
O426 Cd424 2.411 . S
O426 C429 1.320 . S
O427 Cd424 2.333 . S
O427 C429 1.214 . S
O428 Cd424 2.352 . S
O428 C431 1.258 . S
C429 O426 1.320 . S
C429 O427 1.214 . S
O430 Cd422 2.277 . S
O430 C425 1.209 . S
C431 O428 1.258 . S
C431 O433 1.282 . S
O432 Cd424 2.277 . S
O432 C425 1.226 . S
O433 Cd424 2.356 . S
O433 C431 1.282 . S
C434 O435 1.306 . S
C434 O437 1.160 . S
O435 C434 1.306 . S
O435 Cd436 2.228 . S
Cd436 O435 2.228 . S
Cd436 O440 2.273 . S
Cd436 O444 2.277 . S
O437 C434 1.160 . S
O437 Cd438 2.203 . S
Cd438 O437 2.203 . S
Cd438 O440 2.411 . S
Cd438 O441 2.333 . S
Cd438 O442 2.352 . S
Cd438 O446 2.277 . S
Cd438 O447 2.356 . S
C439 O444 1.209 . S
C439 O446 1.226 . S
O440 Cd436 2.273 . S
O440 Cd438 2.411 . S
O440 C443 1.320 . S
O441 Cd438 2.333 . S
O441 C443 1.214 . S
O442 Cd438 2.352 . S
O442 C445 1.258 . S
C443 O440 1.320 . S
C443 O441 1.214 . S
O444 Cd436 2.277 . S
O444 C439 1.209 . S
C445 O442 1.258 . S
C445 O447 1.282 . S
O446 Cd438 2.277 . S
O446 C439 1.226 . S
O447 Cd438 2.356 . S
O447 C445 1.282 . S
H448 C454 0.930 . S
H449 C457 0.930 1_455 S
H450 C458 0.930 . S
H451 C459 0.930 . S
H452 C462 0.930 1_655 S
H453 C463 0.930 . S
C454 H448 0.930 . S
C454 C455 1.355 . S
C454 C456 1.390 1_556 S
C455 C454 1.355 . S
C455 C457 1.419 . S
C456 C454 1.390 1_554 S
C456 C461 1.418 1_654 S
C456 C463 1.443 . S
C457 H449 0.930 1_655 S
C457 C455 1.419 . S
C457 C458 1.362 1_655 S
C458 H450 0.930 . S
C458 C457 1.362 1_455 S
C458 C461 1.443 . S
C459 H451 0.930 . S
C459 C460 1.355 . S
C459 C461 1.390 1_554 S
C460 C459 1.355 . S
C460 C462 1.419 . S
C461 C456 1.418 1_456 S
C461 C458 1.443 . S
C461 C459 1.390 1_556 S
C462 H452 0.930 1_455 S
C462 C460 1.419 . S
C462 C463 1.362 1_455 S
C463 H453 0.930 . S
C463 C456 1.443 . S
C463 C462 1.362 1_655 S
H464 C470 0.930 . S
H465 C473 0.930 . S
H466 C474 0.930 . S
H467 C475 0.930 . S
H468 C478 0.930 . S
H469 C479 0.930 . S
C470 H464 0.930 . S
C470 C471 1.355 . S
C470 C472 1.415 . S
C471 C470 1.355 . S
C471 C473 1.419 . S
C472 C470 1.415 . S
C472 C477 1.425 . S
C472 C479 1.409 . S
C473 H465 0.930 . S
C473 C471 1.419 . S
C473 C474 1.362 . S
C474 H466 0.930 . S
C474 C473 1.362 . S
C474 C477 1.409 . S
C475 H467 0.930 . S
C475 C476 1.355 . S
C475 C477 1.415 . S
C476 C475 1.355 . S
C476 C478 1.419 . S
C477 C472 1.425 . S
C477 C474 1.409 . S
C477 C475 1.415 . S
C478 H468 0.930 . S
C478 C476 1.419 . S
C478 C479 1.362 . S
C479 H469 0.930 . S
C479 C472 1.409 . S
C479 C478 1.362 . S
H480 C486 0.930 . S
H481 C489 0.930 . S
H482 C490 0.930 . S
H483 C491 0.930 . S
H484 C494 0.930 . S
H485 C495 0.930 . S
C486 H480 0.930 . S
C486 C487 1.355 . S
C486 C488 1.415 . S
C487 C486 1.355 . S
C487 C489 1.419 . S
C488 C486 1.415 . S
C488 C493 1.425 . S
C488 C495 1.409 . S
C489 H481 0.930 . S
C489 C487 1.419 . S
C489 C490 1.362 . S
C490 H482 0.930 . S
C490 C489 1.362 . S
C490 C493 1.409 . S
C491 H483 0.930 . S
C491 C492 1.355 . S
C491 C493 1.415 . S
C492 C491 1.355 . S
C492 C494 1.419 . S
C493 C488 1.425 . S
C493 C490 1.409 . S
C493 C491 1.415 . S
C494 H484 0.930 . S
C494 C492 1.419 . S
C494 C495 1.362 . S
C495 H485 0.930 . S
C495 C488 1.409 . S
C495 C494 1.362 . S
H496 C502 0.930 . S
H497 C505 0.930 . S
H498 C506 0.930 . S
H499 C507 0.930 . S
H500 C510 0.930 . S
H501 C511 0.930 . S
C502 H496 0.930 . S
C502 C503 1.355 . S
C502 C504 1.415 . S
C503 C502 1.355 . S
C503 C505 1.419 . S
C504 C502 1.415 . S
C504 C509 1.425 . S
C504 C511 1.409 . S
C505 H497 0.930 . S
C505 C503 1.419 . S
C505 C506 1.362 . S
C506 H498 0.930 . S
C506 C505 1.362 . S
C506 C509 1.409 . S
C507 H499 0.930 . S
C507 C508 1.355 . S
C507 C509 1.415 . S
C508 C507 1.355 . S
C508 C510 1.419 . S
C509 C504 1.425 . S
C509 C506 1.409 . S
C509 C507 1.415 . S
C510 H500 0.930 . S
C510 C508 1.419 . S
C510 C511 1.362 . S
C511 H501 0.930 . S
C511 C504 1.409 . S
C511 C510 1.362 . S
H512 C518 0.930 1_455 S
H513 C521 0.930 . S
H514 C522 0.930 . S
H515 C523 0.930 1_655 S
H516 C526 0.930 . S
H517 C527 0.930 . S
C518 H512 0.930 1_655 S
C518 C519 1.355 . S
C518 C520 1.415 1_655 S
C519 C518 1.355 . S
C519 C521 1.419 . S
C520 C518 1.415 1_455 S
C520 C525 1.425 1_455 S
C520 C527 1.409 . S
C521 H513 0.930 . S
C521 C519 1.419 . S
C521 C522 1.362 . S
C522 H514 0.930 . S
C522 C521 1.362 . S
C522 C525 1.409 . S
C523 H515 0.930 1_455 S
C523 C524 1.355 . S
C523 C525 1.415 1_455 S
C524 C523 1.355 . S
C524 C526 1.419 . S
C525 C520 1.425 1_655 S
C525 C522 1.409 . S
C525 C523 1.415 1_655 S
C526 H516 0.930 . S
C526 C524 1.419 . S
C526 C527 1.362 . S
C527 H517 0.930 . S
C527 C520 1.409 . S
C527 C526 1.362 . S
H528 C534 0.930 . S
H529 C537 0.930 . S
H530 C538 0.930 . S
H531 C539 0.930 . S
H532 C542 0.930 . S
H533 C543 0.930 . S
C534 H528 0.930 . S
C534 C535 1.355 . S
C534 C536 1.415 . S
C535 C534 1.355 . S
C535 C537 1.419 . S
C536 C534 1.415 . S
C536 C541 1.425 . S
C536 C543 1.409 . S
C537 H529 0.930 . S
C537 C535 1.419 . S
C537 C538 1.362 . S
C538 H530 0.930 . S
C538 C537 1.362 . S
C538 C541 1.409 . S
C539 H531 0.930 . S
C539 C540 1.355 . S
C539 C541 1.415 . S
C540 C539 1.355 . S
C540 C542 1.419 . S
C541 C536 1.425 . S
C541 C538 1.409 . S
C541 C539 1.415 . S
C542 H532 0.930 . S
C542 C540 1.419 . S
C542 C543 1.362 . S
C543 H533 0.930 . S
C543 C536 1.409 . S
C543 C542 1.362 . S
H544 C550 0.930 . S
H545 C553 0.929 1_554 S
H546 C554 0.930 . S
H547 C555 0.930 . S
H548 C558 0.929 1_556 S
H549 C559 0.930 . S
C550 H544 0.930 . S
C550 C551 1.355 . S
C550 C552 1.415 . S
C551 C550 1.355 . S
C551 C553 1.421 . S
C552 C550 1.415 . S
C552 C557 1.425 1_556 S
C552 C559 1.409 . S
C553 H545 0.929 1_556 S
C553 C551 1.421 . S
C553 C554 1.361 1_556 S
C554 H546 0.930 . S
C554 C553 1.361 1_554 S
C554 C557 1.409 . S
C555 H547 0.930 . S
C555 C556 1.355 . S
C555 C557 1.415 . S
C556 C555 1.355 . S
C556 C558 1.421 . S
C557 C552 1.425 1_554 S
C557 C554 1.409 . S
C557 C555 1.415 . S
C558 H548 0.929 1_554 S
C558 C556 1.421 . S
C558 C559 1.361 1_554 S
C559 H549 0.930 . S
C559 C552 1.409 . S
C559 C558 1.361 1_556 S
H560 C566 0.930 . S
H561 C569 0.930 . S
H562 C570 0.930 . S
H563 C571 0.930 . S
H564 C574 0.930 . S
H565 C575 0.930 . S
C566 H560 0.930 . S
C566 C567 1.355 . S
C566 C568 1.415 . S
C567 C566 1.355 . S
C567 C569 1.419 . S
C568 C566 1.415 . S
C568 C573 1.425 . S
C568 C575 1.409 . S
C569 H561 0.930 . S
C569 C567 1.419 . S
C569 C570 1.362 . S
C570 H562 0.930 . S
C570 C569 1.362 . S
C570 C573 1.409 . S
C571 H563 0.930 . S
C571 C572 1.355 . S
C571 C573 1.415 . S
C572 C571 1.355 . S
C572 C574 1.419 . S
C573 C568 1.425 . S
C573 C570 1.409 . S
C573 C571 1.415 . S
C574 H564 0.930 . S
C574 C572 1.419 . S
C574 C575 1.362 . S
C575 H565 0.930 . S
C575 C568 1.409 . S
C575 C574 1.362 . S
H576 C582 0.930 . S
H577 C585 0.930 . S
H578 C586 0.930 . S
H579 C587 0.930 . S
H580 C590 0.930 . S
H581 C591 0.930 . S
C582 H576 0.930 . S
C582 C583 1.355 . S
C582 C584 1.415 . S
C583 C582 1.355 . S
C583 C585 1.419 . S
C584 C582 1.415 . S
C584 C589 1.425 . S
C584 C591 1.409 . S
C585 H577 0.930 . S
C585 C583 1.419 . S
C585 C586 1.362 . S
C586 H578 0.930 . S
C586 C585 1.362 . S
C586 C589 1.409 . S
C587 H579 0.930 . S
C587 C588 1.355 . S
C587 C589 1.415 . S
C588 C587 1.355 . S
C588 C590 1.419 . S
C589 C584 1.425 . S
C589 C586 1.409 . S
C589 C587 1.415 . S
C590 H580 0.930 . S
C590 C588 1.419 . S
C590 C591 1.362 . S
C591 H581 0.930 . S
C591 C584 1.409 . S
C591 C590 1.362 . S
H592 C598 0.930 . S
H593 C601 0.930 . S
H594 C602 0.930 . S
H595 C603 0.930 . S
H596 C606 0.930 . S
H597 C607 0.930 . S
C598 H592 0.930 . S
C598 C599 1.355 . S
C598 C600 1.415 . S
C599 C598 1.355 . S
C599 C601 1.419 . S
C600 C598 1.415 . S
C600 C605 1.425 . S
C600 C607 1.409 . S
C601 H593 0.930 . S
C601 C599 1.419 . S
C601 C602 1.362 . S
C602 H594 0.930 . S
C602 C601 1.362 . S
C602 C605 1.409 . S
C603 H595 0.930 . S
C603 C604 1.355 . S
C603 C605 1.415 . S
C604 C603 1.355 . S
C604 C606 1.419 . S
C605 C600 1.425 . S
C605 C602 1.409 . S
C605 C603 1.415 . S
C606 H596 0.930 . S
C606 C604 1.419 . S
C606 C607 1.362 . S
C607 H597 0.930 . S
C607 C600 1.409 . S
C607 C606 1.362 . S
H608 C614 0.930 . S
H609 C617 0.930 . S
H610 C618 0.930 . S
H611 C619 0.930 . S
H612 C622 0.930 . S
H613 C623 0.930 . S
C614 H608 0.930 . S
C614 C615 1.355 . S
C614 C616 1.415 . S
C615 C614 1.355 . S
C615 C617 1.419 . S
C616 C614 1.415 . S
C616 C621 1.425 . S
C616 C623 1.409 . S
C617 H609 0.930 . S
C617 C615 1.419 . S
C617 C618 1.362 . S
C618 H610 0.930 . S
C618 C617 1.362 . S
C618 C621 1.409 . S
C619 H611 0.930 . S
C619 C620 1.355 . S
C619 C621 1.415 . S
C620 C619 1.355 . S
C620 C622 1.419 . S
C621 C616 1.425 . S
C621 C618 1.409 . S
C621 C619 1.415 . S
C622 H612 0.930 . S
C622 C620 1.419 . S
C622 C623 1.362 . S
C623 H613 0.930 . S
C623 C616 1.409 . S
C623 C622 1.362 . S
H624 C630 0.930 . S
H625 C633 0.930 . S
H626 C634 0.930 . S
H627 C635 0.930 . S
H628 C638 0.930 . S
H629 C639 0.930 . S
C630 H624 0.930 . S
C630 C631 1.355 . S
C630 C632 1.415 . S
C631 C630 1.355 . S
C631 C633 1.419 . S
C632 C630 1.415 . S
C632 C637 1.425 . S
C632 C639 1.409 . S
C633 H625 0.930 . S
C633 C631 1.419 . S
C633 C634 1.362 . S
C634 H626 0.930 . S
C634 C633 1.362 . S
C634 C637 1.409 . S
C635 H627 0.930 . S
C635 C636 1.355 . S
C635 C637 1.415 . S
C636 C635 1.355 . S
C636 C638 1.419 . S
C637 C632 1.425 . S
C637 C634 1.409 . S
C637 C635 1.415 . S
C638 H628 0.930 . S
C638 C636 1.419 . S
C638 C639 1.362 . S
C639 H629 0.930 . S
C639 C632 1.409 . S
C639 C638 1.362 . S
H640 C646 0.930 . S
H641 C649 0.930 . S
H642 C650 0.930 . S
H643 C651 0.930 . S
H644 C654 0.930 . S
H645 C655 0.930 . S
C646 H640 0.930 . S
C646 C647 1.355 . S
C646 C648 1.415 . S
C647 C646 1.355 . S
C647 C649 1.419 . S
C648 C646 1.415 . S
C648 C653 1.425 1_565 S
C648 C655 1.409 . S
C649 H641 0.930 . S
C649 C647 1.419 . S
C649 C650 1.362 1_565 S
C650 H642 0.930 . S
C650 C649 1.362 1_545 S
C650 C653 1.409 . S
C651 H643 0.930 . S
C651 C652 1.355 . S
C651 C653 1.415 . S
C652 C651 1.355 . S
C652 C654 1.419 . S
C653 C648 1.425 1_545 S
C653 C650 1.409 . S
C653 C651 1.415 . S
C654 H644 0.930 . S
C654 C652 1.419 . S
C654 C655 1.362 1_545 S
C655 H645 0.930 . S
C655 C648 1.409 . S
C655 C654 1.362 1_565 S
H656 C662 0.930 1_554 S
H657 C665 0.924 1_655 S
H658 C666 0.930 . S
H659 C667 0.930 1_556 S
H660 C670 0.924 1_455 S
H661 C671 0.930 . S
C662 H656 0.930 1_556 S
C662 C663 1.355 . S
C662 C664 1.415 1_566 S
C663 C662 1.355 . S
C663 C665 1.419 . S
C664 C662 1.415 1_544 S
C664 C669 1.425 1_444 S
C664 C671 1.409 . S
C665 H657 0.924 1_455 S
C665 C663 1.419 . S
C665 C666 1.362 1_455 S
C666 H658 0.930 . S
C666 C665 1.362 1_655 S
C666 C669 1.409 . S
C667 H659 0.930 1_554 S
C667 C668 1.355 . S
C667 C669 1.415 1_544 S
C668 C667 1.355 . S
C668 C670 1.419 . S
C669 C664 1.425 1_666 S
C669 C666 1.409 . S
C669 C667 1.415 1_566 S
C670 H660 0.924 1_655 S
C670 C668 1.419 . S
C670 C671 1.362 1_655 S
C671 H661 0.930 . S
C671 C664 1.409 . S
C671 C670 1.362 1_455 S
H672 C678 0.930 . S
H673 C681 0.930 . S
H674 C682 0.930 . S
H675 C683 0.930 . S
H676 C686 0.930 . S
H677 C687 0.930 . S
C678 H672 0.930 . S
C678 C679 1.355 . S
C678 C680 1.415 1_545 S
C679 C678 1.355 . S
C679 C681 1.419 1_556 S
C680 C678 1.415 1_565 S
C680 C685 1.425 1_566 S
C680 C687 1.409 . S
C681 H673 0.930 . S
C681 C679 1.419 1_554 S
C681 C682 1.362 . S
C682 H674 0.930 . S
C682 C681 1.362 . S
C682 C685 1.409 . S
C683 H675 0.930 . S
C683 C684 1.355 . S
C683 C685 1.415 1_565 S
C684 C683 1.355 . S
C684 C686 1.419 1_554 S
C685 C680 1.425 1_544 S
C685 C682 1.409 . S
C685 C683 1.415 1_545 S
C686 H676 0.930 . S
C686 C684 1.419 1_556 S
C686 C687 1.362 . S
C687 H677 0.930 . S
C687 C680 1.409 . S
C687 C686 1.362 . S
H688 C694 0.930 . S
H689 C697 0.930 . S
H690 C698 0.930 . S
H691 C699 0.930 . S
H692 C702 0.930 . S
H693 C703 0.930 . S
C694 H688 0.930 . S
C694 C695 1.355 . S
C694 C696 1.415 1_445 S
C695 C694 1.355 . S
C695 C697 1.419 . S
C696 C694 1.415 1_665 S
C696 C701 1.425 1_665 S
C696 C703 1.409 . S
C697 H689 0.930 . S
C697 C695 1.419 . S
C697 C698 1.362 . S
C698 H690 0.930 . S
C698 C697 1.362 . S
C698 C701 1.409 . S
C699 H691 0.930 . S
C699 C700 1.355 . S
C699 C701 1.415 1_665 S
C700 C699 1.355 . S
C700 C702 1.419 . S
C701 C696 1.425 1_445 S
C701 C698 1.409 . S
C701 C699 1.415 1_445 S
C702 H692 0.930 . S
C702 C700 1.419 . S
C702 C703 1.362 . S
C703 H693 0.930 . S
C703 C696 1.409 . S
C703 C702 1.362 . S
H704 C710 0.930 1_455 S
H705 C713 0.930 . S
H706 C714 0.930 . S
H707 C715 0.930 1_655 S
H708 C718 0.930 . S
H709 C719 0.930 . S
C710 H704 0.930 1_655 S
C710 C711 1.354 . S
C710 C712 1.415 1_655 S
C711 C710 1.354 . S
C711 C713 1.419 . S
C712 C710 1.415 1_455 S
C712 C717 1.425 1_455 S
C712 C719 1.409 . S
C713 H705 0.930 . S
C713 C711 1.419 . S
C713 C714 1.362 . S
C714 H706 0.930 . S
C714 C713 1.362 . S
C714 C717 1.409 . S
C715 H707 0.930 1_455 S
C715 C716 1.354 . S
C715 C717 1.415 1_455 S
C716 C715 1.354 . S
C716 C718 1.419 . S
C717 C712 1.425 1_655 S
C717 C714 1.409 . S
C717 C715 1.415 1_655 S
C718 H708 0.930 . S
C718 C716 1.419 . S
C718 C719 1.362 . S
C719 H709 0.930 . S
C719 C712 1.409 . S
C719 C718 1.362 . S
H720 C726 0.930 . S
H721 C729 0.930 . S
H722 C730 0.930 . S
H723 C731 0.930 . S
H724 C734 0.930 . S
H725 C735 0.930 . S
C726 H720 0.930 . S
C726 C727 1.355 . S
C726 C728 1.415 . S
C727 C726 1.355 . S
C727 C729 1.419 . S
C728 C726 1.415 . S
C728 C733 1.425 1_455 S
C728 C735 1.409 . S
C729 H721 0.930 . S
C729 C727 1.419 . S
C729 C730 1.362 1_455 S
C730 H722 0.930 . S
C730 C729 1.362 1_655 S
C730 C733 1.409 . S
C731 H723 0.930 . S
C731 C732 1.355 . S
C731 C733 1.415 . S
C732 C731 1.355 . S
C732 C734 1.419 . S
C733 C728 1.425 1_655 S
C733 C730 1.409 . S
C733 C731 1.415 . S
C734 H724 0.930 . S
C734 C732 1.419 . S
C734 C735 1.362 1_655 S
C735 H725 0.930 . S
C735 C728 1.409 . S
C735 C734 1.362 1_455 S
H736 C742 0.930 . S
H737 C745 0.930 . S
H738 C746 0.930 . S
H739 C747 0.930 . S
H740 C750 0.930 . S
H741 C751 0.930 . S
C742 H736 0.930 . S
C742 C743 1.355 . S
C742 C744 1.415 . S
C743 C742 1.355 . S
C743 C745 1.419 . S
C744 C742 1.415 . S
C744 C749 1.425 . S
C744 C751 1.409 . S
C745 H737 0.930 . S
C745 C743 1.419 . S
C745 C746 1.362 . S
C746 H738 0.930 . S
C746 C745 1.362 . S
C746 C749 1.409 . S
C747 H739 0.930 . S
C747 C748 1.355 . S
C747 C749 1.415 . S
C748 C747 1.355 . S
C748 C750 1.419 . S
C749 C744 1.425 . S
C749 C746 1.409 . S
C749 C747 1.415 . S
C750 H740 0.930 . S
C750 C748 1.419 . S
C750 C751 1.362 . S
C751 H741 0.930 . S
C751 C744 1.409 . S
C751 C750 1.362 . S
H752 C758 0.930 . S
H753 C761 0.930 . S
H754 C762 0.930 . S
H755 C763 0.930 . S
H756 C766 0.930 . S
H757 C767 0.930 . S
C758 H752 0.930 . S
C758 C759 1.355 . S
C758 C760 1.415 . S
C759 C758 1.355 . S
C759 C761 1.419 . S
C760 C758 1.415 . S
C760 C765 1.425 . S
C760 C767 1.409 . S
C761 H753 0.930 . S
C761 C759 1.419 . S
C761 C762 1.362 . S
C762 H754 0.930 . S
C762 C761 1.362 . S
C762 C765 1.409 . S
C763 H755 0.930 . S
C763 C764 1.355 . S
C763 C765 1.415 . S
C764 C763 1.355 . S
C764 C766 1.419 . S
C765 C760 1.425 . S
C765 C762 1.409 . S
C765 C763 1.415 . S
C766 H756 0.930 . S
C766 C764 1.419 . S
C766 C767 1.362 . S
C767 H757 0.930 . S
C767 C760 1.409 . S
C767 C766 1.362 . S
H768 C774 0.930 1_455 S
H769 C777 0.930 . S
H770 C778 0.930 . S
H771 C779 0.930 1_655 S
H772 C782 0.930 . S
H773 C783 0.930 . S
C774 H768 0.930 1_655 S
C774 C775 1.355 . S
C774 C776 1.415 1_655 S
C775 C774 1.355 . S
C775 C777 1.419 . S
C776 C774 1.415 1_455 S
C776 C781 1.425 1_455 S
C776 C783 1.409 . S
C777 H769 0.930 . S
C777 C775 1.419 . S
C777 C778 1.362 . S
C778 H770 0.930 . S
C778 C777 1.362 . S
C778 C781 1.409 . S
C779 H771 0.930 1_455 S
C779 C780 1.355 . S
C779 C781 1.415 1_455 S
C780 C779 1.355 . S
C780 C782 1.419 . S
C781 C776 1.425 1_655 S
C781 C778 1.409 . S
C781 C779 1.415 1_655 S
C782 H772 0.930 . S
C782 C780 1.419 . S
C782 C783 1.362 . S
C783 H773 0.930 . S
C783 C776 1.409 . S
C783 C782 1.362 . S
H784 C790 0.930 . S
H785 C793 0.930 . S
H786 C794 0.930 . S
H787 C795 0.930 . S
H788 C798 0.930 . S
H789 C799 0.930 . S
C790 H784 0.930 . S
C790 C791 1.355 . S
C790 C792 1.415 . S
C791 C790 1.355 . S
C791 C793 1.419 . S
C792 C790 1.415 . S
C792 C797 1.425 . S
C792 C799 1.409 . S
C793 H785 0.930 . S
C793 C791 1.419 . S
C793 C794 1.362 . S
C794 H786 0.930 . S
C794 C793 1.362 . S
C794 C797 1.409 . S
C795 H787 0.930 . S
C795 C796 1.355 . S
C795 C797 1.415 . S
C796 C795 1.355 . S
C796 C798 1.419 . S
C797 C792 1.425 . S
C797 C794 1.409 . S
C797 C795 1.415 . S
C798 H788 0.930 . S
C798 C796 1.419 . S
C798 C799 1.362 . S
C799 H789 0.930 . S
C799 C792 1.409 . S
C799 C798 1.362 . S
H800 C806 0.930 . S
H801 C809 0.930 . S
H802 C810 0.930 . S
H803 C811 0.930 . S
H804 C814 0.930 . S
H805 C815 0.930 . S
C806 H800 0.930 . S
C806 C807 1.355 . S
C806 C808 1.415 . S
C807 C806 1.355 . S
C807 C809 1.419 . S
C808 C806 1.415 . S
C808 C813 1.425 . S
C808 C815 1.409 . S
C809 H801 0.930 . S
C809 C807 1.419 . S
C809 C810 1.362 . S
C810 H802 0.930 . S
C810 C809 1.362 . S
C810 C813 1.409 . S
C811 H803 0.930 . S
C811 C812 1.355 . S
C811 C813 1.415 . S
C812 C811 1.355 . S
C812 C814 1.419 . S
C813 C808 1.425 . S
C813 C810 1.409 . S
C813 C811 1.415 . S
C814 H804 0.930 . S
C814 C812 1.419 . S
C814 C815 1.362 . S
C815 H805 0.930 . S
C815 C808 1.409 . S
C815 C814 1.362 . S
H816 C822 0.930 . S
H817 C825 0.930 . S
H818 C826 0.930 1_655 S
H819 C827 0.930 . S
H820 C830 0.930 . S
H821 C831 0.930 1_455 S
C822 H816 0.930 . S
C822 C823 1.355 . S
C822 C824 1.415 . S
C823 C822 1.355 . S
C823 C825 1.419 . S
C824 C822 1.415 . S
C824 C829 1.425 1_455 S
C824 C831 1.409 1_455 S
C825 H817 0.930 . S
C825 C823 1.419 . S
C825 C826 1.362 . S
C826 H818 0.930 1_455 S
C826 C825 1.362 . S
C826 C829 1.409 1_455 S
C827 H819 0.930 . S
C827 C828 1.355 . S
C827 C829 1.415 . S
C828 C827 1.355 . S
C828 C830 1.419 . S
C829 C824 1.425 1_655 S
C829 C826 1.409 1_655 S
C829 C827 1.415 . S
C830 H820 0.930 . S
C830 C828 1.419 . S
C830 C831 1.362 . S
C831 H821 0.930 1_655 S
C831 C824 1.409 1_655 S
C831 C830 1.362 . S
H832 C838 0.930 1_455 S
H833 C841 0.930 . S
H834 C842 0.930 . S
H835 C843 0.930 1_655 S
H836 C846 0.930 . S
H837 C847 0.930 . S
C838 H832 0.930 1_655 S
C838 C839 1.355 . S
C838 C840 1.415 1_655 S
C839 C838 1.355 . S
C839 C841 1.419 . S
C840 C838 1.415 1_455 S
C840 C845 1.425 1_455 S
C840 C847 1.409 . S
C841 H833 0.930 . S
C841 C839 1.419 . S
C841 C842 1.362 . S
C842 H834 0.930 . S
C842 C841 1.362 . S
C842 C845 1.409 . S
C843 H835 0.930 1_455 S
C843 C844 1.355 . S
C843 C845 1.415 1_455 S
C844 C843 1.355 . S
C844 C846 1.419 . S
C845 C840 1.425 1_655 S
C845 C842 1.409 . S
C845 C843 1.415 1_655 S
C846 H836 0.930 . S
C846 C844 1.419 . S
C846 C847 1.362 . S
C847 H837 0.930 . S
C847 C840 1.409 . S
C847 C846 1.362 . S
H848 C854 0.930 . S
H849 C857 0.930 . S
H850 C858 0.930 . S
H851 C859 0.930 . S
H852 C862 0.930 . S
H853 C863 0.930 . S
C854 H848 0.930 . S
C854 C855 1.355 . S
C854 C856 1.415 1_655 S
C855 C854 1.355 . S
C855 C857 1.419 . S
C856 C854 1.415 1_455 S
C856 C861 1.425 1_455 S
C856 C863 1.409 . S
C857 H849 0.930 . S
C857 C855 1.419 . S
C857 C858 1.362 . S
C858 H850 0.930 . S
C858 C857 1.362 . S
C858 C861 1.409 . S
C859 H851 0.930 . S
C859 C860 1.355 . S
C859 C861 1.415 1_455 S
C860 C859 1.355 . S
C860 C862 1.419 . S
C861 C856 1.425 1_655 S
C861 C858 1.409 . S
C861 C859 1.415 1_655 S
C862 H852 0.930 . S
C862 C860 1.419 . S
C862 C863 1.362 . S
C863 H853 0.930 . S
C863 C856 1.409 . S
C863 C862 1.362 . S
H864 C870 0.930 . S
H865 C873 0.930 . S
H866 C874 0.930 . S
H867 C875 0.930 . S
H868 C878 0.930 . S
H869 C879 0.930 . S
C870 H864 0.930 . S
C870 C871 1.355 . S
C870 C872 1.415 . S
C871 C870 1.355 . S
C871 C873 1.419 . S
C872 C870 1.415 . S
C872 C877 1.425 . S
C872 C879 1.409 . S
C873 H865 0.930 . S
C873 C871 1.419 . S
C873 C874 1.362 . S
C874 H866 0.930 . S
C874 C873 1.362 . S
C874 C877 1.409 . S
C875 H867 0.930 . S
C875 C876 1.355 . S
C875 C877 1.415 . S
C876 C875 1.355 . S
C876 C878 1.419 . S
C877 C872 1.425 . S
C877 C874 1.409 . S
C877 C875 1.415 . S
C878 H868 0.930 . S
C878 C876 1.419 . S
C878 C879 1.362 . S
C879 H869 0.930 . S
C879 C872 1.409 . S
C879 C878 1.362 . S
H880 C886 0.930 . S
H881 C889 0.930 . S
H882 C890 0.930 . S
H883 C891 0.930 . S
H884 C894 0.930 . S
H885 C895 0.930 . S
C886 H880 0.930 . S
C886 C887 1.355 . S
C886 C888 1.415 . S
C887 C886 1.355 . S
C887 C889 1.419 . S
C888 C886 1.415 . S
C888 C893 1.425 . S
C888 C895 1.409 . S
C889 H881 0.930 . S
C889 C887 1.419 . S
C889 C890 1.362 . S
C890 H882 0.930 . S
C890 C889 1.362 . S
C890 C893 1.409 . S
C891 H883 0.930 . S
C891 C892 1.355 . S
C891 C893 1.415 . S
C892 C891 1.355 . S
C892 C894 1.419 . S
C893 C888 1.425 . S
C893 C890 1.409 . S
C893 C891 1.415 . S
C894 H884 0.930 . S
C894 C892 1.419 . S
C894 C895 1.362 . S
C895 H885 0.930 . S
C895 C888 1.409 . S
C895 C894 1.362 . S
H896 C902 0.930 . S
H897 C905 0.930 . S
H898 C906 0.930 . S
H899 C907 0.930 . S
H900 C910 0.930 . S
H901 C911 0.930 . S
C902 H896 0.930 . S
C902 C903 1.355 . S
C902 C904 1.415 . S
C903 C902 1.355 . S
C903 C905 1.419 1_655 S
C904 C902 1.415 . S
C904 C909 1.425 1_655 S
C904 C911 1.409 . S
C905 H897 0.930 . S
C905 C903 1.419 1_455 S
C905 C906 1.362 . S
C906 H898 0.930 . S
C906 C905 1.362 . S
C906 C909 1.409 . S
C907 H899 0.930 . S
C907 C908 1.355 . S
C907 C909 1.415 . S
C908 C907 1.355 . S
C908 C910 1.419 1_455 S
C909 C904 1.425 1_455 S
C909 C906 1.409 . S
C909 C907 1.415 . S
C910 H900 0.930 . S
C910 C908 1.419 1_655 S
C910 C911 1.362 . S
C911 H901 0.930 . S
C911 C904 1.409 . S
C911 C910 1.362 . S
H912 C918 0.930 . S
H913 C921 0.930 . S
H914 C922 0.930 . S
H915 C923 0.930 . S
H916 C926 0.930 . S
H917 C927 0.930 . S
C918 H912 0.930 . S
C918 C919 1.355 . S
C918 C920 1.415 . S
C919 C918 1.355 . S
C919 C921 1.419 . S
C920 C918 1.415 . S
C920 C925 1.425 . S
C920 C927 1.409 . S
C921 H913 0.930 . S
C921 C919 1.419 . S
C921 C922 1.362 . S
C922 H914 0.930 . S
C922 C921 1.362 . S
C922 C925 1.409 . S
C923 H915 0.930 . S
C923 C924 1.355 . S
C923 C925 1.415 . S
C924 C923 1.355 . S
C924 C926 1.419 . S
C925 C920 1.425 . S
C925 C922 1.409 . S
C925 C923 1.415 . S
C926 H916 0.930 . S
C926 C924 1.419 . S
C926 C927 1.362 . S
C927 H917 0.930 . S
C927 C920 1.409 . S
C927 C926 1.362 . S
H928 C934 0.930 . S
H929 C937 0.930 . S
H930 C938 0.930 . S
H931 C939 0.930 . S
H932 C942 0.930 . S
H933 C943 0.930 . S
C934 H928 0.930 . S
C934 C935 1.355 . S
C934 C936 1.415 . S
C935 C934 1.355 . S
C935 C937 1.419 . S
C936 C934 1.415 . S
C936 C941 1.425 . S
C936 C943 1.409 . S
C937 H929 0.930 . S
C937 C935 1.419 . S
C937 C938 1.362 . S
C938 H930 0.930 . S
C938 C937 1.362 . S
C938 C941 1.409 . S
C939 H931 0.930 . S
C939 C940 1.355 . S
C939 C941 1.415 . S
C940 C939 1.355 . S
C940 C942 1.419 . S
C941 C936 1.425 . S
C941 C938 1.409 . S
C941 C939 1.415 . S
C942 H932 0.930 . S
C942 C940 1.419 . S
C942 C943 1.362 . S
C943 H933 0.930 . S
C943 C936 1.409 . S
C943 C942 1.362 . S
H944 C950 0.930 . S
H945 C953 0.930 . S
H946 C954 0.930 . S
H947 C955 0.930 . S
H948 C958 0.930 . S
H949 C959 0.930 . S
C950 H944 0.930 . S
C950 C951 1.355 . S
C950 C952 1.415 1_655 S
C951 C950 1.355 . S
C951 C953 1.419 . S
C952 C950 1.415 1_455 S
C952 C957 1.425 1_455 S
C952 C959 1.409 . S
C953 H945 0.930 . S
C953 C951 1.419 . S
C953 C954 1.362 . S
C954 H946 0.930 . S
C954 C953 1.362 . S
C954 C957 1.409 . S
C955 H947 0.930 . S
C955 C956 1.355 . S
C955 C957 1.415 1_455 S
C956 C955 1.355 . S
C956 C958 1.419 . S
C957 C952 1.425 1_655 S
C957 C954 1.409 . S
C957 C955 1.415 1_655 S
C958 H948 0.930 . S
C958 C956 1.419 . S
C958 C959 1.362 . S
C959 H949 0.930 . S
C959 C952 1.409 . S
C959 C958 1.362 . S
H960 C966 0.917 1_554 S
H961 C969 0.930 . S
H962 C970 0.930 . S
H963 C971 0.917 1_556 S
H964 C974 0.930 . S
H965 C975 0.930 . S
C966 H960 0.917 1_556 S
C966 C967 1.374 . S
C966 C968 1.408 1_556 S
C967 C966 1.374 . S
C967 C969 1.419 . S
C968 C966 1.408 1_554 S
C968 C973 1.425 1_554 S
C968 C975 1.409 . S
C969 H961 0.930 . S
C969 C967 1.419 . S
C969 C970 1.362 . S
C970 H962 0.930 . S
C970 C969 1.362 . S
C970 C973 1.409 . S
C971 H963 0.917 1_554 S
C971 C972 1.375 . S
C971 C973 1.408 1_554 S
C972 C971 1.375 . S
C972 C974 1.419 . S
C973 C968 1.425 1_556 S
C973 C970 1.409 . S
C973 C971 1.408 1_556 S
C974 H964 0.930 . S
C974 C972 1.419 . S
C974 C975 1.362 . S
C975 H965 0.930 . S
C975 C968 1.409 . S
C975 C974 1.362 . S
H976 C982 0.930 . S
H977 C985 0.930 . S
H978 C986 0.930 1_565 S
H979 C987 0.930 . S
H980 C990 0.930 . S
H981 C991 0.930 1_545 S
C982 H976 0.930 . S
C982 C983 1.355 . S
C982 C984 1.415 . S
C983 C982 1.355 . S
C983 C985 1.419 . S
C984 C982 1.415 . S
C984 C989 1.425 1_545 S
C984 C991 1.409 1_545 S
C985 H977 0.930 . S
C985 C983 1.419 . S
C985 C986 1.362 . S
C986 H978 0.930 1_545 S
C986 C985 1.362 . S
C986 C989 1.409 1_545 S
C987 H979 0.930 . S
C987 C988 1.355 . S
C987 C989 1.415 . S
C988 C987 1.355 . S
C988 C990 1.419 . S
C989 C984 1.425 1_565 S
C989 C986 1.409 1_565 S
C989 C987 1.415 . S
C990 H980 0.930 . S
C990 C988 1.419 . S
C990 C991 1.362 . S
C991 H981 0.930 1_565 S
C991 C984 1.409 1_565 S
C991 C990 1.362 . S
H992 C998 0.930 . S
H993 C1001 0.930 . S
H994 C1002 0.930 . S
H995 C1003 0.930 . S
H996 C1006 0.930 . S
H997 C1007 0.930 . S
C998 H992 0.930 . S
C998 C999 1.355 . S
C998 C1000 1.415 . S
C999 C998 1.355 . S
C999 C1001 1.419 . S
C1000 C998 1.415 . S
C1000 C1005 1.425 . S
C1000 C1007 1.409 . S
C1001 H993 0.930 . S
C1001 C999 1.419 . S
C1001 C1002 1.362 . S
C1002 H994 0.930 . S
C1002 C1001 1.362 . S
C1002 C1005 1.409 . S
C1003 H995 0.930 . S
C1003 C1004 1.355 . S
C1003 C1005 1.415 . S
C1004 C1003 1.355 . S
C1004 C1006 1.419 . S
C1005 C1000 1.425 . S
C1005 C1002 1.409 . S
C1005 C1003 1.415 . S
C1006 H996 0.930 . S
C1006 C1004 1.419 . S
C1006 C1007 1.362 . S
C1007 H997 0.930 . S
C1007 C1000 1.409 . S
C1007 C1006 1.362 . S
H1008 C1014 0.930 . S
H1009 C1017 0.930 . S
H1010 C1018 0.930 . S
H1011 C1019 0.930 . S
H1012 C1022 0.930 . S
H1013 C1023 0.930 . S
C1014 H1008 0.930 . S
C1014 C1015 1.355 . S
C1014 C1016 1.427 . S
C1015 C1014 1.355 . S
C1015 C1017 1.419 . S
C1016 C1014 1.427 . S
C1016 C1021 1.425 1_545 S
C1016 C1023 1.397 1_545 S
C1017 H1009 0.930 . S
C1017 C1015 1.419 . S
C1017 C1018 1.362 . S
C1018 H1010 0.930 . S
C1018 C1017 1.362 . S
C1018 C1021 1.397 1_545 S
C1019 H1011 0.930 . S
C1019 C1020 1.355 . S
C1019 C1021 1.427 . S
C1020 C1019 1.355 . S
C1020 C1022 1.419 . S
C1021 C1016 1.425 1_565 S
C1021 C1018 1.397 1_565 S
C1021 C1019 1.427 . S
C1022 H1012 0.930 . S
C1022 C1020 1.419 . S
C1022 C1023 1.362 . S
C1023 H1013 0.930 . S
C1023 C1016 1.397 1_565 S
C1023 C1022 1.362 . S
H1024 C1030 0.930 . S
H1025 C1033 0.930 . S
H1026 C1034 0.930 . S
H1027 C1035 0.930 . S
H1028 C1038 0.930 . S
H1029 C1039 0.930 . S
C1030 H1024 0.930 . S
C1030 C1031 1.355 . S
C1030 C1032 1.415 . S
C1031 C1030 1.355 . S
C1031 C1033 1.419 . S
C1032 C1030 1.415 . S
C1032 C1037 1.425 1_554 S
C1032 C1039 1.409 1_554 S
C1033 H1025 0.930 . S
C1033 C1031 1.419 . S
C1033 C1034 1.362 . S
C1034 H1026 0.930 . S
C1034 C1033 1.362 . S
C1034 C1037 1.409 1_554 S
C1035 H1027 0.930 . S
C1035 C1036 1.355 . S
C1035 C1037 1.415 . S
C1036 C1035 1.355 . S
C1036 C1038 1.419 . S
C1037 C1032 1.425 1_556 S
C1037 C1034 1.409 1_556 S
C1037 C1035 1.415 . S
C1038 H1028 0.930 . S
C1038 C1036 1.419 . S
C1038 C1039 1.362 . S
C1039 H1029 0.930 . S
C1039 C1032 1.409 1_556 S
C1039 C1038 1.362 . S
H1040 C1046 0.930 . S
H1041 C1049 0.930 . S
H1042 C1050 0.930 1_545 S
H1043 C1051 0.930 . S
H1044 C1054 0.930 . S
H1045 C1055 0.930 1_565 S
C1046 H1040 0.930 . S
C1046 C1047 1.355 . S
C1046 C1048 1.415 . S
C1047 C1046 1.355 . S
C1047 C1049 1.419 . S
C1048 C1046 1.415 . S
C1048 C1053 1.425 1_565 S
C1048 C1055 1.409 1_565 S
C1049 H1041 0.930 . S
C1049 C1047 1.419 . S
C1049 C1050 1.362 . S
C1050 H1042 0.930 1_565 S
C1050 C1049 1.362 . S
C1050 C1053 1.409 1_565 S
C1051 H1043 0.930 . S
C1051 C1052 1.355 . S
C1051 C1053 1.415 . S
C1052 C1051 1.355 . S
C1052 C1054 1.419 . S
C1053 C1048 1.425 1_545 S
C1053 C1050 1.409 1_545 S
C1053 C1051 1.415 . S
C1054 H1044 0.930 . S
C1054 C1052 1.419 . S
C1054 C1055 1.362 . S
C1055 H1045 0.930 1_545 S
C1055 C1048 1.409 1_545 S
C1055 C1054 1.362 . S
H1056 C1062 0.930 . S
H1057 C1065 0.930 . S
H1058 C1066 0.930 . S
H1059 C1067 0.930 . S
H1060 C1070 0.930 . S
H1061 C1071 0.930 . S
C1062 H1056 0.930 . S
C1062 C1063 1.355 . S
C1062 C1064 1.415 . S
C1063 C1062 1.355 . S
C1063 C1065 1.419 . S
C1064 C1062 1.415 . S
C1064 C1069 1.425 . S
C1064 C1071 1.409 . S
C1065 H1057 0.930 . S
C1065 C1063 1.419 . S
C1065 C1066 1.362 . S
C1066 H1058 0.930 . S
C1066 C1065 1.362 . S
C1066 C1069 1.409 . S
C1067 H1059 0.930 . S
C1067 C1068 1.355 . S
C1067 C1069 1.415 . S
C1068 C1067 1.355 . S
C1068 C1070 1.419 . S
C1069 C1064 1.425 . S
C1069 C1066 1.409 . S
C1069 C1067 1.415 . S
C1070 H1060 0.930 . S
C1070 C1068 1.419 . S
C1070 C1071 1.362 . S
C1071 H1061 0.930 . S
C1071 C1064 1.409 . S
C1071 C1070 1.362 . S
H1072 C1078 0.930 . S
H1073 C1081 0.930 . S
H1074 C1082 0.930 . S
H1075 C1083 0.930 . S
H1076 C1086 0.930 . S
H1077 C1087 0.930 . S
C1078 H1072 0.930 . S
C1078 C1079 1.355 . S
C1078 C1080 1.415 . S
C1079 C1078 1.355 . S
C1079 C1081 1.419 . S
C1080 C1078 1.415 . S
C1080 C1085 1.425 1_545 S
C1080 C1087 1.409 . S
C1081 H1073 0.930 . S
C1081 C1079 1.419 . S
C1081 C1082 1.362 1_545 S
C1082 H1074 0.930 . S
C1082 C1081 1.362 1_565 S
C1082 C1085 1.409 . S
C1083 H1075 0.930 . S
C1083 C1084 1.355 . S
C1083 C1085 1.415 . S
C1084 C1083 1.355 . S
C1084 C1086 1.419 . S
C1085 C1080 1.425 1_565 S
C1085 C1082 1.409 . S
C1085 C1083 1.415 . S
C1086 H1076 0.930 . S
C1086 C1084 1.419 . S
C1086 C1087 1.362 1_565 S
C1087 H1077 0.930 . S
C1087 C1080 1.409 . S
C1087 C1086 1.362 1_545 S
H1088 C1094 0.930 . S
H1089 C1097 0.930 . S
H1090 C1098 0.930 . S
H1091 C1099 0.930 . S
H1092 C1102 0.930 . S
H1093 C1103 0.930 . S
C1094 H1088 0.930 . S
C1094 C1095 1.355 . S
C1094 C1096 1.415 . S
C1095 C1094 1.355 . S
C1095 C1097 1.419 . S
C1096 C1094 1.415 . S
C1096 C1101 1.425 . S
C1096 C1103 1.409 . S
C1097 H1089 0.930 . S
C1097 C1095 1.419 . S
C1097 C1098 1.362 . S
C1098 H1090 0.930 . S
C1098 C1097 1.362 . S
C1098 C1101 1.409 . S
C1099 H1091 0.930 . S
C1099 C1100 1.355 . S
C1099 C1101 1.415 . S
C1100 C1099 1.355 . S
C1100 C1102 1.419 . S
C1101 C1096 1.425 . S
C1101 C1098 1.409 . S
C1101 C1099 1.415 . S
C1102 H1092 0.930 . S
C1102 C1100 1.419 . S
C1102 C1103 1.362 . S
C1103 H1093 0.930 . S
C1103 C1096 1.409 . S
C1103 C1102 1.362 . S
H1104 C1110 0.930 . S
H1105 C1113 0.930 . S
H1106 C1114 0.930 . S
H1107 C1115 0.930 . S
H1108 C1118 0.930 . S
H1109 C1119 0.930 . S
C1110 H1104 0.930 . S
C1110 C1111 1.355 . S
C1110 C1112 1.415 . S
C1111 C1110 1.355 . S
C1111 C1113 1.419 . S
C1112 C1110 1.415 . S
C1112 C1117 1.425 . S
C1112 C1119 1.409 . S
C1113 H1105 0.930 . S
C1113 C1111 1.419 . S
C1113 C1114 1.362 . S
C1114 H1106 0.930 . S
C1114 C1113 1.362 . S
C1114 C1117 1.409 . S
C1115 H1107 0.930 . S
C1115 C1116 1.355 . S
C1115 C1117 1.415 . S
C1116 C1115 1.355 . S
C1116 C1118 1.419 . S
C1117 C1112 1.425 . S
C1117 C1114 1.409 . S
C1117 C1115 1.415 . S
C1118 H1108 0.930 . S
C1118 C1116 1.419 . S
C1118 C1119 1.362 . S
C1119 H1109 0.930 . S
C1119 C1112 1.409 . S
C1119 C1118 1.362 . S
H1120 C1126 0.930 . S
H1121 C1129 0.938 . S
H1122 C1130 0.930 . S
H1123 C1131 0.930 . S
H1124 C1134 0.938 . S
H1125 C1135 0.930 . S
C1126 H1120 0.930 . S
C1126 C1127 1.355 . S
C1126 C1128 1.415 . S
C1127 C1126 1.355 . S
C1127 C1129 1.392 1_554 S
C1128 C1126 1.415 . S
C1128 C1133 1.425 1_554 S
C1128 C1135 1.409 . S
C1129 H1121 0.938 . S
C1129 C1127 1.392 1_556 S
C1129 C1130 1.382 . S
C1130 H1122 0.930 . S
C1130 C1129 1.382 . S
C1130 C1133 1.409 . S
C1131 H1123 0.930 . S
C1131 C1132 1.355 . S
C1131 C1133 1.415 . S
C1132 C1131 1.355 . S
C1132 C1134 1.392 1_556 S
C1133 C1128 1.425 1_556 S
C1133 C1130 1.409 . S
C1133 C1131 1.415 . S
C1134 H1124 0.938 . S
C1134 C1132 1.392 1_554 S
C1134 C1135 1.382 . S
C1135 H1125 0.930 . S
C1135 C1128 1.409 . S
C1135 C1134 1.382 . S
H1136 C1142 0.930 . S
H1137 C1145 0.930 . S
H1138 C1146 0.930 . S
H1139 C1147 0.930 . S
H1140 C1150 0.930 . S
H1141 C1151 0.930 . S
C1142 H1136 0.930 . S
C1142 C1143 1.355 . S
C1142 C1144 1.415 . S
C1143 C1142 1.355 . S
C1143 C1145 1.419 . S
C1144 C1142 1.415 . S
C1144 C1149 1.425 . S
C1144 C1151 1.409 . S
C1145 H1137 0.930 . S
C1145 C1143 1.419 . S
C1145 C1146 1.362 . S
C1146 H1138 0.930 . S
C1146 C1145 1.362 . S
C1146 C1149 1.409 . S
C1147 H1139 0.930 . S
C1147 C1148 1.355 . S
C1147 C1149 1.415 . S
C1148 C1147 1.355 . S
C1148 C1150 1.419 . S
C1149 C1144 1.425 . S
C1149 C1146 1.409 . S
C1149 C1147 1.415 . S
C1150 H1140 0.930 . S
C1150 C1148 1.419 . S
C1150 C1151 1.362 . S
C1151 H1141 0.930 . S
C1151 C1144 1.409 . S
C1151 C1150 1.362 . S
H1152 C1158 0.930 . S
H1153 C1161 0.930 . S
H1154 C1162 0.930 . S
H1155 C1163 0.930 . S
H1156 C1166 0.930 . S
H1157 C1167 0.930 . S
C1158 H1152 0.930 . S
C1158 C1159 1.355 . S
C1158 C1160 1.415 . S
C1159 C1158 1.355 . S
C1159 C1161 1.419 . S
C1160 C1158 1.415 . S
C1160 C1165 1.425 . S
C1160 C1167 1.409 . S
C1161 H1153 0.930 . S
C1161 C1159 1.419 . S
C1161 C1162 1.362 . S
C1162 H1154 0.930 . S
C1162 C1161 1.362 . S
C1162 C1165 1.409 . S
C1163 H1155 0.930 . S
C1163 C1164 1.355 . S
C1163 C1165 1.415 . S
C1164 C1163 1.355 . S
C1164 C1166 1.419 . S
C1165 C1160 1.425 . S
C1165 C1162 1.409 . S
C1165 C1163 1.415 . S
C1166 H1156 0.930 . S
C1166 C1164 1.419 . S
C1166 C1167 1.362 . S
C1167 H1157 0.930 . S
C1167 C1160 1.409 . S
C1167 C1166 1.362 . S
H1168 C1174 0.930 . S
H1169 C1177 0.930 . S
H1170 C1178 0.930 . S
H1171 C1179 0.930 . S
H1172 C1182 0.930 . S
H1173 C1183 0.930 . S
C1174 H1168 0.930 . S
C1174 C1175 1.355 . S
C1174 C1176 1.415 . S
C1175 C1174 1.355 . S
C1175 C1177 1.419 . S
C1176 C1174 1.415 . S
C1176 C1181 1.425 . S
C1176 C1183 1.409 . S
C1177 H1169 0.930 . S
C1177 C1175 1.419 . S
C1177 C1178 1.362 . S
C1178 H1170 0.930 . S
C1178 C1177 1.362 . S
C1178 C1181 1.409 . S
C1179 H1171 0.930 . S
C1179 C1180 1.355 . S
C1179 C1181 1.415 . S
C1180 C1179 1.355 . S
C1180 C1182 1.419 . S
C1181 C1176 1.425 . S
C1181 C1178 1.409 . S
C1181 C1179 1.415 . S
C1182 H1172 0.930 . S
C1182 C1180 1.419 . S
C1182 C1183 1.362 . S
C1183 H1173 0.930 . S
C1183 C1176 1.409 . S
C1183 C1182 1.362 . S
H1184 C1190 0.930 . S
H1185 C1193 0.930 . S
H1186 C1194 0.930 . S
H1187 C1195 0.930 . S
H1188 C1198 0.930 . S
H1189 C1199 0.930 . S
C1190 H1184 0.930 . S
C1190 C1191 1.355 . S
C1190 C1192 1.415 . S
C1191 C1190 1.355 . S
C1191 C1193 1.419 . S
C1192 C1190 1.415 . S
C1192 C1197 1.425 1_556 S
C1192 C1199 1.409 1_556 S
C1193 H1185 0.930 . S
C1193 C1191 1.419 . S
C1193 C1194 1.362 . S
C1194 H1186 0.930 . S
C1194 C1193 1.362 . S
C1194 C1197 1.409 1_556 S
C1195 H1187 0.930 . S
C1195 C1196 1.355 . S
C1195 C1197 1.415 . S
C1196 C1195 1.355 . S
C1196 C1198 1.419 . S
C1197 C1192 1.425 1_554 S
C1197 C1194 1.409 1_554 S
C1197 C1195 1.415 . S
C1198 H1188 0.930 . S
C1198 C1196 1.419 . S
C1198 C1199 1.362 . S
C1199 H1189 0.930 . S
C1199 C1192 1.409 1_554 S
C1199 C1198 1.362 . S
H1200 C1206 0.930 . S
H1201 C1209 0.930 . S
H1202 C1210 0.930 . S
H1203 C1211 0.930 . S
H1204 C1214 0.930 . S
H1205 C1215 0.930 . S
C1206 H1200 0.930 . S
C1206 C1207 1.355 . S
C1206 C1208 1.415 . S
C1207 C1206 1.355 . S
C1207 C1209 1.419 . S
C1208 C1206 1.415 . S
C1208 C1213 1.425 . S
C1208 C1215 1.409 . S
C1209 H1201 0.930 . S
C1209 C1207 1.419 . S
C1209 C1210 1.362 . S
C1210 H1202 0.930 . S
C1210 C1209 1.362 . S
C1210 C1213 1.409 . S
C1211 H1203 0.930 . S
C1211 C1212 1.355 . S
C1211 C1213 1.415 . S
C1212 C1211 1.355 . S
C1212 C1214 1.419 . S
C1213 C1208 1.425 . S
C1213 C1210 1.409 . S
C1213 C1211 1.415 . S
C1214 H1204 0.930 . S
C1214 C1212 1.419 . S
C1214 C1215 1.362 . S
C1215 H1205 0.930 . S
C1215 C1208 1.409 . S
C1215 C1214 1.362 . S
H1216 C1222 0.930 . S
H1217 C1225 0.930 . S
H1218 C1226 0.930 . S
H1219 C1227 0.930 . S
H1220 C1230 0.930 . S
H1221 C1231 0.930 . S
C1222 H1216 0.930 . S
C1222 C1223 1.355 . S
C1222 C1224 1.415 . S
C1223 C1222 1.355 . S
C1223 C1225 1.419 . S
C1224 C1222 1.415 . S
C1224 C1229 1.425 . S
C1224 C1231 1.409 . S
C1225 H1217 0.930 . S
C1225 C1223 1.419 . S
C1225 C1226 1.362 . S
C1226 H1218 0.930 . S
C1226 C1225 1.362 . S
C1226 C1229 1.409 . S
C1227 H1219 0.930 . S
C1227 C1228 1.355 . S
C1227 C1229 1.415 . S
C1228 C1227 1.355 . S
C1228 C1230 1.419 . S
C1229 C1224 1.425 . S
C1229 C1226 1.409 . S
C1229 C1227 1.415 . S
C1230 H1220 0.930 . S
C1230 C1228 1.419 . S
C1230 C1231 1.362 . S
C1231 H1221 0.930 . S
C1231 C1224 1.409 . S
C1231 C1230 1.362 . S
H1232 C1238 0.930 . S
H1233 C1241 0.930 . S
H1234 C1242 0.930 . S
H1235 C1243 0.930 . S
H1236 C1246 0.930 . S
H1237 C1247 0.930 . S
C1238 H1232 0.930 . S
C1238 C1239 1.355 . S
C1238 C1240 1.415 . S
C1239 C1238 1.355 . S
C1239 C1241 1.419 . S
C1240 C1238 1.415 . S
C1240 C1245 1.425 . S
C1240 C1247 1.409 . S
C1241 H1233 0.930 . S
C1241 C1239 1.419 . S
C1241 C1242 1.362 . S
C1242 H1234 0.930 . S
C1242 C1241 1.362 . S
C1242 C1245 1.409 . S
C1243 H1235 0.930 . S
C1243 C1244 1.355 . S
C1243 C1245 1.415 . S
C1244 C1243 1.355 . S
C1244 C1246 1.419 . S
C1245 C1240 1.425 . S
C1245 C1242 1.409 . S
C1245 C1243 1.415 . S
C1246 H1236 0.930 . S
C1246 C1244 1.419 . S
C1246 C1247 1.362 . S
C1247 H1237 0.930 . S
C1247 C1240 1.409 . S
C1247 C1246 1.362 . S
H1248 C1254 0.930 . S
H1249 C1257 0.930 . S
H1250 C1258 0.930 . S
H1251 C1259 0.930 . S
H1252 C1262 0.930 . S
H1253 C1263 0.930 . S
C1254 H1248 0.930 . S
C1254 C1255 1.355 . S
C1254 C1256 1.415 . S
C1255 C1254 1.355 . S
C1255 C1257 1.419 . S
C1256 C1254 1.415 . S
C1256 C1261 1.425 . S
C1256 C1263 1.409 . S
C1257 H1249 0.930 . S
C1257 C1255 1.419 . S
C1257 C1258 1.362 . S
C1258 H1250 0.930 . S
C1258 C1257 1.362 . S
C1258 C1261 1.409 . S
C1259 H1251 0.930 . S
C1259 C1260 1.355 . S
C1259 C1261 1.415 . S
C1260 C1259 1.355 . S
C1260 C1262 1.419 . S
C1261 C1256 1.425 . S
C1261 C1258 1.409 . S
C1261 C1259 1.415 . S
C1262 H1252 0.930 . S
C1262 C1260 1.419 . S
C1262 C1263 1.362 . S
C1263 H1253 0.930 . S
C1263 C1256 1.409 . S
C1263 C1262 1.362 . S
H1264 C1270 0.930 . S
H1265 C1273 0.930 . S
H1266 C1274 0.930 . S
H1267 C1275 0.930 . S
H1268 C1278 0.930 . S
H1269 C1279 0.930 . S
C1270 H1264 0.930 . S
C1270 C1271 1.355 . S
C1270 C1272 1.415 . S
C1271 C1270 1.355 . S
C1271 C1273 1.419 . S
C1272 C1270 1.415 . S
C1272 C1277 1.425 . S
C1272 C1279 1.409 . S
C1273 H1265 0.930 . S
C1273 C1271 1.419 . S
C1273 C1274 1.362 . S
C1274 H1266 0.930 . S
C1274 C1273 1.362 . S
C1274 C1277 1.409 . S
C1275 H1267 0.930 . S
C1275 C1276 1.355 . S
C1275 C1277 1.415 . S
C1276 C1275 1.355 . S
C1276 C1278 1.419 . S
C1277 C1272 1.425 . S
C1277 C1274 1.409 . S
C1277 C1275 1.415 . S
C1278 H1268 0.930 . S
C1278 C1276 1.419 . S
C1278 C1279 1.362 . S
C1279 H1269 0.930 . S
C1279 C1272 1.409 . S
C1279 C1278 1.362 . S
H1280 C1286 0.930 . S
H1281 C1289 0.930 . S
H1282 C1290 0.930 . S
H1283 C1291 0.930 . S
H1284 C1294 0.930 . S
H1285 C1295 0.930 . S
C1286 H1280 0.930 . S
C1286 C1287 1.355 . S
C1286 C1288 1.415 . S
C1287 C1286 1.355 . S
C1287 C1289 1.419 . S
C1288 C1286 1.415 . S
C1288 C1293 1.425 . S
C1288 C1295 1.409 . S
C1289 H1281 0.930 . S
C1289 C1287 1.419 . S
C1289 C1290 1.362 . S
C1290 H1282 0.930 . S
C1290 C1289 1.362 . S
C1290 C1293 1.409 . S
C1291 H1283 0.930 . S
C1291 C1292 1.355 . S
C1291 C1293 1.415 . S
C1292 C1291 1.355 . S
C1292 C1294 1.419 . S
C1293 C1288 1.425 . S
C1293 C1290 1.409 . S
C1293 C1291 1.415 . S
C1294 H1284 0.930 . S
C1294 C1292 1.419 . S
C1294 C1295 1.362 . S
C1295 H1285 0.930 . S
C1295 C1288 1.409 . S
C1295 C1294 1.362 . S
H1296 C1302 0.930 . S
H1297 C1305 0.930 . S
H1298 C1306 0.930 . S
H1299 C1307 0.930 . S
H1300 C1310 0.930 . S
H1301 C1311 0.930 . S
C1302 H1296 0.930 . S
C1302 C1303 1.355 . S
C1302 C1304 1.415 . S
C1303 C1302 1.355 . S
C1303 C1305 1.419 . S
C1304 C1302 1.415 . S
C1304 C1309 1.425 . S
C1304 C1311 1.409 . S
C1305 H1297 0.930 . S
C1305 C1303 1.419 . S
C1305 C1306 1.362 . S
C1306 H1298 0.930 . S
C1306 C1305 1.362 . S
C1306 C1309 1.409 . S
C1307 H1299 0.930 . S
C1307 C1308 1.355 . S
C1307 C1309 1.415 . S
C1308 C1307 1.355 . S
C1308 C1310 1.419 . S
C1309 C1304 1.425 . S
C1309 C1306 1.409 . S
C1309 C1307 1.415 . S
C1310 H1300 0.930 . S
C1310 C1308 1.419 . S
C1310 C1311 1.362 . S
C1311 H1301 0.930 . S
C1311 C1304 1.409 . S
C1311 C1310 1.362 . S
H1312 C1318 0.930 . S
H1313 C1321 0.930 . S
H1314 C1322 0.930 . S
H1315 C1323 0.930 . S
H1316 C1326 0.930 . S
H1317 C1327 0.930 . S
C1318 H1312 0.930 . S
C1318 C1319 1.355 . S
C1318 C1320 1.415 . S
C1319 C1318 1.355 . S
C1319 C1321 1.419 . S
C1320 C1318 1.415 . S
C1320 C1325 1.425 . S
C1320 C1327 1.409 . S
C1321 H1313 0.930 . S
C1321 C1319 1.419 . S
C1321 C1322 1.362 . S
C1322 H1314 0.930 . S
C1322 C1321 1.362 . S
C1322 C1325 1.409 . S
C1323 H1315 0.930 . S
C1323 C1324 1.355 . S
C1323 C1325 1.415 . S
C1324 C1323 1.355 . S
C1324 C1326 1.419 . S
C1325 C1320 1.425 . S
C1325 C1322 1.409 . S
C1325 C1323 1.415 . S
C1326 H1316 0.930 . S
C1326 C1324 1.419 . S
C1326 C1327 1.362 . S
C1327 H1317 0.930 . S
C1327 C1320 1.409 . S
C1327 C1326 1.362 . S
H1328 C1334 0.930 . S
H1329 C1337 0.930 . S
H1330 C1338 0.930 . S
H1331 C1339 0.930 . S
H1332 C1342 0.930 . S
H1333 C1343 0.930 . S
C1334 H1328 0.930 . S
C1334 C1335 1.355 . S
C1334 C1336 1.415 . S
C1335 C1334 1.355 . S
C1335 C1337 1.419 . S
C1336 C1334 1.415 . S
C1336 C1341 1.425 . S
C1336 C1343 1.409 . S
C1337 H1329 0.930 . S
C1337 C1335 1.419 . S
C1337 C1338 1.362 . S
C1338 H1330 0.930 . S
C1338 C1337 1.362 . S
C1338 C1341 1.409 . S
C1339 H1331 0.930 . S
C1339 C1340 1.355 . S
C1339 C1341 1.415 . S
C1340 C1339 1.355 . S
C1340 C1342 1.419 . S
C1341 C1336 1.425 . S
C1341 C1338 1.409 . S
C1341 C1339 1.415 . S
C1342 H1332 0.930 . S
C1342 C1340 1.419 . S
C1342 C1343 1.362 . S
C1343 H1333 0.930 . S
C1343 C1336 1.409 . S
C1343 C1342 1.362 . S
H1344 C1350 0.930 . S
H1345 C1353 0.930 . S
H1346 C1354 0.930 . S
H1347 C1355 0.930 . S
H1348 C1358 0.930 . S
H1349 C1359 0.930 . S
C1350 H1344 0.930 . S
C1350 C1351 1.355 . S
C1350 C1352 1.415 . S
C1351 C1350 1.355 . S
C1351 C1353 1.419 . S
C1352 C1350 1.415 . S
C1352 C1357 1.425 . S
C1352 C1359 1.409 . S
C1353 H1345 0.930 . S
C1353 C1351 1.419 . S
C1353 C1354 1.362 . S
C1354 H1346 0.930 . S
C1354 C1353 1.362 . S
C1354 C1357 1.409 . S
C1355 H1347 0.930 . S
C1355 C1356 1.355 . S
C1355 C1357 1.415 . S
C1356 C1355 1.355 . S
C1356 C1358 1.419 . S
C1357 C1352 1.425 . S
C1357 C1354 1.409 . S
C1357 C1355 1.415 . S
C1358 H1348 0.930 . S
C1358 C1356 1.419 . S
C1358 C1359 1.362 . S
C1359 H1349 0.930 . S
C1359 C1352 1.409 . S
C1359 C1358 1.362 . S
H1360 C1366 0.930 . S
H1361 C1369 0.930 . S
H1362 C1370 0.930 . S
H1363 C1371 0.930 . S
H1364 C1374 0.930 . S
H1365 C1375 0.930 . S
C1366 H1360 0.930 . S
C1366 C1367 1.355 . S
C1366 C1368 1.415 . S
C1367 C1366 1.355 . S
C1367 C1369 1.419 . S
C1368 C1366 1.415 . S
C1368 C1373 1.425 . S
C1368 C1375 1.409 . S
C1369 H1361 0.930 . S
C1369 C1367 1.419 . S
C1369 C1370 1.362 . S
C1370 H1362 0.930 . S
C1370 C1369 1.362 . S
C1370 C1373 1.409 . S
C1371 H1363 0.930 . S
C1371 C1372 1.355 . S
C1371 C1373 1.415 . S
C1372 C1371 1.355 . S
C1372 C1374 1.419 . S
C1373 C1368 1.425 . S
C1373 C1370 1.409 . S
C1373 C1371 1.415 . S
C1374 H1364 0.930 . S
C1374 C1372 1.419 . S
C1374 C1375 1.362 . S
C1375 H1365 0.930 . S
C1375 C1368 1.409 . S
C1375 C1374 1.362 . S
H1376 C1382 0.930 . S
H1377 C1385 0.930 . S
H1378 C1386 0.930 . S
H1379 C1387 0.930 . S
H1380 C1390 0.930 . S
H1381 C1391 0.930 . S
C1382 H1376 0.930 . S
C1382 C1383 1.355 . S
C1382 C1384 1.415 . S
C1383 C1382 1.355 . S
C1383 C1385 1.419 . S
C1384 C1382 1.415 . S
C1384 C1389 1.425 . S
C1384 C1391 1.409 . S
C1385 H1377 0.930 . S
C1385 C1383 1.419 . S
C1385 C1386 1.362 . S
C1386 H1378 0.930 . S
C1386 C1385 1.362 . S
C1386 C1389 1.409 . S
C1387 H1379 0.930 . S
C1387 C1388 1.355 . S
C1387 C1389 1.415 . S
C1388 C1387 1.355 . S
C1388 C1390 1.419 . S
C1389 C1384 1.425 . S
C1389 C1386 1.409 . S
C1389 C1387 1.415 . S
C1390 H1380 0.930 . S
C1390 C1388 1.419 . S
C1390 C1391 1.362 . S
C1391 H1381 0.930 . S
C1391 C1384 1.409 . S
C1391 C1390 1.362 . S
H1392 C1398 0.930 . S
H1393 C1401 0.930 . S
H1394 C1402 0.930 . S
H1395 C1403 0.930 . S
H1396 C1406 0.930 . S
H1397 C1407 0.930 . S
C1398 H1392 0.930 . S
C1398 C1399 1.355 . S
C1398 C1400 1.415 . S
C1399 C1398 1.355 . S
C1399 C1401 1.419 . S
C1400 C1398 1.415 . S
C1400 C1405 1.425 . S
C1400 C1407 1.409 . S
C1401 H1393 0.930 . S
C1401 C1399 1.419 . S
C1401 C1402 1.362 . S
C1402 H1394 0.930 . S
C1402 C1401 1.362 . S
C1402 C1405 1.409 . S
C1403 H1395 0.930 . S
C1403 C1404 1.355 . S
C1403 C1405 1.415 . S
C1404 C1403 1.355 . S
C1404 C1406 1.419 . S
C1405 C1400 1.425 . S
C1405 C1402 1.409 . S
C1405 C1403 1.415 . S
C1406 H1396 0.930 . S
C1406 C1404 1.419 . S
C1406 C1407 1.362 . S
C1407 H1397 0.930 . S
C1407 C1400 1.409 . S
C1407 C1406 1.362 . S
H1408 C1414 0.930 . S
H1409 C1417 0.930 . S
H1410 C1418 0.930 . S
H1411 C1419 0.930 . S
H1412 C1422 0.930 . S
H1413 C1423 0.930 . S
C1414 H1408 0.930 . S
C1414 C1415 1.355 . S
C1414 C1416 1.415 . S
C1415 C1414 1.355 . S
C1415 C1417 1.419 . S
C1416 C1414 1.415 . S
C1416 C1421 1.425 . S
C1416 C1423 1.409 . S
C1417 H1409 0.930 . S
C1417 C1415 1.419 . S
C1417 C1418 1.362 . S
C1418 H1410 0.930 . S
C1418 C1417 1.362 . S
C1418 C1421 1.409 . S
C1419 H1411 0.930 . S
C1419 C1420 1.355 . S
C1419 C1421 1.415 . S
C1420 C1419 1.355 . S
C1420 C1422 1.419 . S
C1421 C1416 1.425 . S
C1421 C1418 1.409 . S
C1421 C1419 1.415 . S
C1422 H1412 0.930 . S
C1422 C1420 1.419 . S
C1422 C1423 1.362 . S
C1423 H1413 0.930 . S
C1423 C1416 1.409 . S
C1423 C1422 1.362 . S
H1424 C1430 0.930 . S
H1425 C1433 0.930 . S
H1426 C1434 0.930 . S
H1427 C1435 0.930 . S
H1428 C1438 0.930 . S
H1429 C1439 0.930 . S
C1430 H1424 0.930 . S
C1430 C1431 1.355 . S
C1430 C1432 1.415 . S
C1431 C1430 1.355 . S
C1431 C1433 1.419 . S
C1432 C1430 1.415 . S
C1432 C1437 1.425 . S
C1432 C1439 1.409 . S
C1433 H1425 0.930 . S
C1433 C1431 1.419 . S
C1433 C1434 1.362 . S
C1434 H1426 0.930 . S
C1434 C1433 1.362 . S
C1434 C1437 1.409 . S
C1435 H1427 0.930 . S
C1435 C1436 1.355 . S
C1435 C1437 1.415 . S
C1436 C1435 1.355 . S
C1436 C1438 1.419 . S
C1437 C1432 1.425 . S
C1437 C1434 1.409 . S
C1437 C1435 1.415 . S
C1438 H1428 0.930 . S
C1438 C1436 1.419 . S
C1438 C1439 1.362 . S
C1439 H1429 0.930 . S
C1439 C1432 1.409 . S
C1439 C1438 1.362 . S
H1440 C1446 0.930 . S
H1441 C1449 0.930 . S
H1442 C1450 0.930 . S
H1443 C1451 0.930 . S
H1444 C1454 0.930 . S
H1445 C1455 0.930 . S
C1446 H1440 0.930 . S
C1446 C1447 1.355 . S
C1446 C1448 1.415 . S
C1447 C1446 1.355 . S
C1447 C1449 1.419 . S
C1448 C1446 1.415 . S
C1448 C1453 1.425 . S
C1448 C1455 1.409 . S
C1449 H1441 0.930 . S
C1449 C1447 1.419 . S
C1449 C1450 1.362 . S
C1450 H1442 0.930 . S
C1450 C1449 1.362 . S
C1450 C1453 1.409 . S
C1451 H1443 0.930 . S
C1451 C1452 1.355 . S
C1451 C1453 1.415 . S
C1452 C1451 1.355 . S
C1452 C1454 1.419 . S
C1453 C1448 1.425 . S
C1453 C1450 1.409 . S
C1453 C1451 1.415 . S
C1454 H1444 0.930 . S
C1454 C1452 1.419 . S
C1454 C1455 1.362 . S
C1455 H1445 0.930 . S
C1455 C1448 1.409 . S
C1455 C1454 1.362 . S
H1456 C1462 0.930 . S
H1457 C1465 0.930 . S
H1458 C1466 0.930 . S
H1459 C1467 0.930 . S
H1460 C1470 0.930 . S
H1461 C1471 0.930 . S
C1462 H1456 0.930 . S
C1462 C1463 1.355 . S
C1462 C1464 1.415 . S
C1463 C1462 1.355 . S
C1463 C1465 1.419 . S
C1464 C1462 1.415 . S
C1464 C1469 1.425 . S
C1464 C1471 1.409 . S
C1465 H1457 0.930 . S
C1465 C1463 1.419 . S
C1465 C1466 1.362 . S
C1466 H1458 0.930 . S
C1466 C1465 1.362 . S
C1466 C1469 1.409 . S
C1467 H1459 0.930 . S
C1467 C1468 1.355 . S
C1467 C1469 1.415 . S
C1468 C1467 1.355 . S
C1468 C1470 1.419 . S
C1469 C1464 1.425 . S
C1469 C1466 1.409 . S
C1469 C1467 1.415 . S
C1470 H1460 0.930 . S
C1470 C1468 1.419 . S
C1470 C1471 1.362 . S
C1471 H1461 0.930 . S
C1471 C1464 1.409 . S
C1471 C1470 1.362 . S
C455 C121 1.562 . S
C460 C9 1.562 . S
C471 C359 1.561 . S
C476 C23 1.561 . S
C487 C149 1.569 . S
C492 C37 1.569 . S
C503 C387 1.571 . S
C508 C51 1.571 . S
C519 C177 1.570 . S
C524 C65 1.570 . S
C535 C79 1.559 . S
C540 C415 1.559 . S
C551 C93 1.559 . S
C556 C205 1.559 . S
C567 C107 1.560 . S
C572 C443 1.560 . S
C583 C247 1.566 . S
C588 C135 1.566 . S
C599 C275 1.560 . S
C604 C163 1.560 . S
C615 C191 1.572 . S
C620 C303 1.572 . S
C631 C219 1.560 . S
C636 C331 1.560 . S
C647 C233 1.564 . S
C652 C345 1.564 . S
C663 C373 1.565 . S
C668 C261 1.565 . S
C679 C289 1.559 . S
C684 C401 1.559 . S
C695 C429 1.559 . S
C700 C317 1.559 . S
C711 C257 1.591 . S
C716 C5 1.591 . S
C727 C271 1.591 . S
C732 C19 1.591 . S
C743 C33 1.597 . S
C748 C229 1.604 . S
C759 C47 1.595 . S
C764 C243 1.591 . S
C775 C313 1.591 . S
C780 C61 1.591 . S
C791 C75 1.606 . S
C796 C327 1.611 . S
C807 C285 1.595 . S
C812 C89 1.591 . S
C823 C299 1.596 . S
C828 C103 1.602 . S
C839 C117 1.599 . S
C844 C369 1.594 . S
C855 C383 1.610 . S
C860 C131 1.613 . S
C871 C145 1.591 . S
C876 C341 1.591 . S
C887 C159 1.593 . S
C892 C355 1.591 . S
C903 C173 1.613 . S
C908 C425 1.613 . S
C919 C187 1.613 . S
C924 C439 1.609 . S
C935 C397 1.613 . S
C940 C201 1.609 . S
C951 C411 1.605 . S
C956 C215 1.611 . S
C967 C95 1.464 . S
C972 C11 1.475 . S
C983 C109 1.448 . S
C988 C25 1.474 . S
C999 C67 1.472 . S
C1004 C39 1.469 . S
C1015 C53 1.442 . S
C1020 C81 1.458 . S
C1031 C207 1.451 . S
C1036 C123 1.476 . S
C1047 C221 1.474 . S
C1052 C137 1.448 . S
C1063 C179 1.454 . S
C1068 C151 1.477 . S
C1079 C193 1.475 . S
C1084 C165 1.464 . S
C1095 C319 1.451 . S
C1100 C235 1.476 . S
C1111 C333 1.442 . S
C1116 C249 1.464 . S
C1127 C263 1.463 . S
C1132 C291 1.442 . S
C1143 C277 1.472 . S
C1148 C305 1.445 . S
C1159 C431 1.450 . S
C1164 C347 1.446 . S
C1175 C445 1.444 . S
C1180 C361 1.470 . S
C1191 C375 1.451 . S
C1196 C403 1.476 . S
C1207 C389 1.444 . S
C1212 C417 1.470 . S
C1223 C0 1.417 . S
C1228 C294 1.399 . S
C1239 C308 1.404 . S
C1244 C14 1.434 . S
C1255 C322 1.398 . S
C1260 C28 1.419 . S
C1271 C42 1.433 . S
C1276 C280 1.406 . S
C1287 C266 1.412 . S
C1292 C56 1.430 . S
C1303 C70 1.401 . S
C1308 C224 1.434 . S
C1319 C238 1.397 . S
C1324 C84 1.421 . S
C1335 C98 1.403 . S
C1340 C252 1.434 . S
C1351 C406 1.431 . S
C1356 C112 1.396 . S
C1367 C420 1.432 . S
C1372 C126 1.397 . S
C1383 C140 1.434 . S
C1388 C434 1.400 . S
C1399 C392 1.425 . S
C1404 C154 1.419 . S
C1415 C378 1.405 . S
C1420 C168 1.408 . S
C1431 C182 1.432 . S
C1436 C336 1.407 . S
C1447 C350 1.416 . S
C1452 C196 1.428 . S
C1463 C210 1.430 . S
C1468 C364 1.413 . S
