# Generated by pormake.
# Topology gan, (5)-cn, num edge types: 1
# Building blocks:
#     Node 0, Type 0, BuildingBlock: XOMCOT_clean_sbu_1, # of connection points: 5
#     Node 1, Type 0, BuildingBlock: XOMCOT_clean_sbu_1, # of connection points: 5
#     Node 2, Type 0, BuildingBlock: XOMCOT_clean_sbu_1, # of connection points: 5
#     Node 3, Type 0, BuildingBlock: XOMCOT_clean_sbu_1, # of connection points: 5
#     Node 4, Type 0, BuildingBlock: XOMCOT_clean_sbu_1, # of connection points: 5
#     Node 5, Type 0, BuildingBlock: XOMCOT_clean_sbu_1, # of connection points: 5
#     Node 6, Type 0, BuildingBlock: XOMCOT_clean_sbu_1, # of connection points: 5
#     Node 7, Type 0, BuildingBlock: XOMCOT_clean_sbu_1, # of connection points: 5
#     Node 8, Type 0, BuildingBlock: XOMCOT_clean_sbu_1, # of connection points: 5
#     Node 9, Type 0, BuildingBlock: XOMCOT_clean_sbu_1, # of connection points: 5
#     Node 10, Type 0, BuildingBlock: XOMCOT_clean_sbu_1, # of connection points: 5
#     Node 11, Type 0, BuildingBlock: XOMCOT_clean_sbu_1, # of connection points: 5
#     Node 12, Type 0, BuildingBlock: XOMCOT_clean_sbu_1, # of connection points: 5
#     Node 13, Type 0, BuildingBlock: XOMCOT_clean_sbu_1, # of connection points: 5
#     Node 14, Type 0, BuildingBlock: XOMCOT_clean_sbu_1, # of connection points: 5
#     Node 15, Type 0, BuildingBlock: XOMCOT_clean_sbu_1, # of connection points: 5
#     Edge 16, Type (0, 0), BuildingBlock: AJUNOK_clean_linker_0, # of connection points: 2
#     Edge 17, Type (0, 0), BuildingBlock: AJUNOK_clean_linker_0, # of connection points: 2
#     Edge 18, Type (0, 0), BuildingBlock: AJUNOK_clean_linker_0, # of connection points: 2
#     Edge 19, Type (0, 0), BuildingBlock: AJUNOK_clean_linker_0, # of connection points: 2
#     Edge 20, Type (0, 0), BuildingBlock: AJUNOK_clean_linker_0, # of connection points: 2
#     Edge 21, Type (0, 0), BuildingBlock: AJUNOK_clean_linker_0, # of connection points: 2
#     Edge 22, Type (0, 0), BuildingBlock: AJUNOK_clean_linker_0, # of connection points: 2
#     Edge 23, Type (0, 0), BuildingBlock: AJUNOK_clean_linker_0, # of connection points: 2
#     Edge 24, Type (0, 0), BuildingBlock: AJUNOK_clean_linker_0, # of connection points: 2
#     Edge 25, Type (0, 0), BuildingBlock: AJUNOK_clean_linker_0, # of connection points: 2
#     Edge 26, Type (0, 0), BuildingBlock: AJUNOK_clean_linker_0, # of connection points: 2
#     Edge 27, Type (0, 0), BuildingBlock: AJUNOK_clean_linker_0, # of connection points: 2
#     Edge 28, Type (0, 0), BuildingBlock: AJUNOK_clean_linker_0, # of connection points: 2
#     Edge 29, Type (0, 0), BuildingBlock: AJUNOK_clean_linker_0, # of connection points: 2
#     Edge 30, Type (0, 0), BuildingBlock: AJUNOK_clean_linker_0, # of connection points: 2
#     Edge 31, Type (0, 0), BuildingBlock: AJUNOK_clean_linker_0, # of connection points: 2
#     Edge 32, Type (0, 0), BuildingBlock: AJUNOK_clean_linker_0, # of connection points: 2
#     Edge 33, Type (0, 0), BuildingBlock: AJUNOK_clean_linker_0, # of connection points: 2
#     Edge 34, Type (0, 0), BuildingBlock: AJUNOK_clean_linker_0, # of connection points: 2
#     Edge 35, Type (0, 0), BuildingBlock: AJUNOK_clean_linker_0, # of connection points: 2
#     Edge 36, Type (0, 0), BuildingBlock: AJUNOK_clean_linker_0, # of connection points: 2
#     Edge 37, Type (0, 0), BuildingBlock: AJUNOK_clean_linker_0, # of connection points: 2
#     Edge 38, Type (0, 0), BuildingBlock: AJUNOK_clean_linker_0, # of connection points: 2
#     Edge 39, Type (0, 0), BuildingBlock: AJUNOK_clean_linker_0, # of connection points: 2
#     Edge 40, Type (0, 0), BuildingBlock: AJUNOK_clean_linker_0, # of connection points: 2
#     Edge 41, Type (0, 0), BuildingBlock: AJUNOK_clean_linker_0, # of connection points: 2
#     Edge 42, Type (0, 0), BuildingBlock: AJUNOK_clean_linker_0, # of connection points: 2
#     Edge 43, Type (0, 0), BuildingBlock: AJUNOK_clean_linker_0, # of connection points: 2
#     Edge 44, Type (0, 0), BuildingBlock: AJUNOK_clean_linker_0, # of connection points: 2
#     Edge 45, Type (0, 0), BuildingBlock: AJUNOK_clean_linker_0, # of connection points: 2
#     Edge 46, Type (0, 0), BuildingBlock: AJUNOK_clean_linker_0, # of connection points: 2
#     Edge 47, Type (0, 0), BuildingBlock: AJUNOK_clean_linker_0, # of connection points: 2
#     Edge 48, Type (0, 0), BuildingBlock: AJUNOK_clean_linker_0, # of connection points: 2
#     Edge 49, Type (0, 0), BuildingBlock: AJUNOK_clean_linker_0, # of connection points: 2
#     Edge 50, Type (0, 0), BuildingBlock: AJUNOK_clean_linker_0, # of connection points: 2
#     Edge 51, Type (0, 0), BuildingBlock: AJUNOK_clean_linker_0, # of connection points: 2
#     Edge 52, Type (0, 0), BuildingBlock: AJUNOK_clean_linker_0, # of connection points: 2
#     Edge 53, Type (0, 0), BuildingBlock: AJUNOK_clean_linker_0, # of connection points: 2
#     Edge 54, Type (0, 0), BuildingBlock: AJUNOK_clean_linker_0, # of connection points: 2
#     Edge 55, Type (0, 0), BuildingBlock: AJUNOK_clean_linker_0, # of connection points: 2
# Relax obj value: 0.073
# Max RMSD: 0.108
# Mean RMSD: 0.095
data_MOF--net-gan--node1-XOMCOT_clean_sbu_1--edge1-AJUNOK_clean_linker_0
_symmetry_space_group_name_H-M    P1
_symmetry_Int_Tables_number       1
_symmetry_cell_setting            triclinic
loop_
_symmetry_equiv_pos_as_xyz
'x, y, z'
_cell_length_a     32.505082
_cell_length_b     32.838559
_cell_length_c     31.502736
_cell_angle_alpha  91.30729
_cell_angle_beta   90.414802
_cell_angle_gamma 90.923891
loop_
_atom_site_label
_atom_site_type_symbol
_atom_site_fract_x
_atom_site_fract_y
_atom_site_fract_z
_atom_type_partial_charge
C0 C 0.12355 0.16049 0.22359 0.0
C1 C 0.09503 0.13609 0.20235 0.0
N2 N 0.09552 0.14507 0.16077 0.0
N3 N 0.14308 0.18453 0.19584 0.0
C4 C 0.12526 0.17451 0.15772 0.0
H5 H 0.13009 0.16022 0.25727 0.0
Co6 Co 0.18571 0.22216 0.21197 0.0
C7 C 0.24362 0.21619 0.13916 0.0
O8 O 0.27475 0.21592 0.16601 0.0
N9 N 0.22768 0.26133 0.22938 0.0
C10 C 0.26575 0.31869 0.2295 0.0
C11 C 0.24022 0.29297 0.20573 0.0
C12 C 0.24577 0.26932 0.26794 0.0
N13 N 0.26942 0.30381 0.26877 0.0
O14 O 0.15087 0.26524 0.19768 0.0
H15 H 0.23011 0.29802 0.17352 0.0
H16 H 0.23993 0.25192 0.2959 0.0
O17 O 0.20698 0.21947 0.15333 0.0
C18 C 0.1283 0.27666 0.22847 0.0
O19 O 0.13452 0.26075 0.26583 0.0
N20 N 0.21725 0.17825 0.22928 0.0
C21 C 0.2298 0.10185 0.26264 0.0
C22 C 0.23513 0.1082 0.21926 0.0
C23 C 0.22739 0.14633 0.20296 0.0
C24 C 0.21554 0.17317 0.27207 0.0
C25 C 0.22227 0.13526 0.28958 0.0
H26 H 0.22404 0.14791 0.16905 0.0
H27 H 0.2025 0.19661 0.29211 0.0
H28 H 0.1338 0.18868 0.12831 0.0
H29 H 0.07642 0.11258 0.21661 0.0
H30 H 0.2799 0.34669 0.21886 0.0
H31 H 0.23983 0.08272 0.19745 0.0
H32 H 0.21611 0.13115 0.32297 0.0
C33 C 0.23234 0.86868 0.27795 0.0
C34 C 0.25883 0.84496 0.25467 0.0
N35 N 0.26515 0.8102 0.27527 0.0
N36 N 0.22157 0.84983 0.31401 0.0
C37 C 0.24274 0.8141 0.31156 0.0
H38 H 0.2199 0.89699 0.2674 0.0
Co39 Co 0.17593 0.86868 0.34839 0.0
C40 C 0.19454 0.85539 0.43824 0.0
O41 O 0.15641 0.84312 0.44414 0.0
N42 N 0.12845 0.88846 0.38124 0.0
C43 C 0.06555 0.89227 0.40965 0.0
C44 C 0.0911 0.86982 0.38401 0.0
C45 C 0.12383 0.9232 0.4057 0.0
N46 N 0.08589 0.92591 0.42374 0.0
O47 O 0.19621 0.92267 0.34588 0.0
H48 H 0.08214 0.84131 0.36885 0.0
H49 H 0.148 0.94589 0.41067 0.0
O50 O 0.20712 0.86296 0.40077 0.0
C51 C 0.17639 0.94346 0.3194 0.0
O52 O 0.1447 0.9262 0.29953 0.0
N53 N 0.15555 0.81588 0.34723 0.0
C54 C 0.11261 0.74317 0.33467 0.0
C55 C 0.14361 0.74658 0.3659 0.0
C56 C 0.16491 0.78355 0.37178 0.0
C57 C 0.13034 0.81096 0.31284 0.0
C58 C 0.10786 0.77512 0.30636 0.0
H59 H 0.18854 0.78592 0.39592 0.0
H60 H 0.12538 0.83637 0.29225 0.0
H61 H 0.23988 0.7902 0.33441 0.0
H62 H 0.27149 0.85227 0.22402 0.0
H63 H 0.03382 0.88467 0.41669 0.0
H64 H 0.14992 0.72169 0.38681 0.0
H65 H 0.08468 0.77394 0.28149 0.0
C66 C 0.35906 0.80688 0.67754 0.0
C67 C 0.33351 0.77929 0.69693 0.0
N68 N 0.3278 0.79153 0.73743 0.0
N69 N 0.36974 0.83757 0.7049 0.0
C70 C 0.35049 0.82691 0.74176 0.0
H71 H 0.36919 0.80468 0.64497 0.0
Co72 Co 0.40381 0.88244 0.68466 0.0
C73 C 0.37143 0.95664 0.72649 0.0
O74 O 0.37507 0.97382 0.68942 0.0
N75 N 0.43983 0.92651 0.66301 0.0
C76 C 0.49277 0.97152 0.66461 0.0
C77 C 0.46734 0.94696 0.68839 0.0
C78 C 0.44952 0.94025 0.62337 0.0
N79 N 0.48176 0.96726 0.62359 0.0
O80 O 0.44863 0.86596 0.71941 0.0
H81 H 0.46957 0.9435 0.72238 0.0
H82 H 0.43429 0.93031 0.59435 0.0
O83 O 0.38216 0.91947 0.73038 0.0
C84 C 0.4704 0.84466 0.69394 0.0
O85 O 0.45518 0.83608 0.65596 0.0
N86 N 0.36195 0.89444 0.6465 0.0
C87 C 0.30372 0.89078 0.58133 0.0
C88 C 0.29259 0.90375 0.62245 0.0
C89 C 0.32223 0.90467 0.65503 0.0
C90 C 0.37256 0.88092 0.607 0.0
C91 C 0.34435 0.87971 0.57383 0.0
H92 H 0.31271 0.91129 0.68719 0.0
H93 H 0.40279 0.86866 0.60174 0.0
H94 H 0.35255 0.84492 0.77092 0.0
H95 H 0.32046 0.75175 0.68242 0.0
H96 H 0.51752 0.99112 0.67662 0.0
H97 H 0.26114 0.91166 0.62959 0.0
H98 H 0.35374 0.86792 0.54305 0.0
C99 C 0.39305 0.15183 0.97079 0.0
C100 C 0.41931 0.1318 0.99741 0.0
N101 N 0.4179 0.09168 0.98756 0.0
N102 N 0.37447 0.12519 0.94338 0.0
C103 C 0.39057 0.08847 0.95424 0.0
H104 H 0.38782 0.18428 0.97124 0.0
Co105 Co 0.33507 0.14706 0.90359 0.0
C106 C 0.31533 0.08278 0.83917 0.0
O107 O 0.31388 0.11314 0.81283 0.0
N108 N 0.29401 0.17248 0.86536 0.0
C109 C 0.23098 0.18352 0.83881 0.0
C110 C 0.25471 0.15849 0.86321 0.0
C111 C 0.29255 0.20718 0.84164 0.0
N112 N 0.25435 0.21471 0.82493 0.0
O113 O 0.29403 0.14368 0.9475 0.0
H114 H 0.24353 0.13185 0.87939 0.0
H115 H 0.3188 0.2269 0.83684 0.0
O116 O 0.32171 0.0907 0.87902 0.0
C117 C 0.28473 0.17818 0.96416 0.0
O118 O 0.29866 0.21151 0.94659 0.0
N119 N 0.37775 0.15271 0.86459 0.0
C120 C 0.45535 0.16524 0.83096 0.0
C121 C 0.44006 0.12583 0.83536 0.0
C122 C 0.40142 0.1202 0.85297 0.0
C123 C 0.39216 0.19139 0.85951 0.0
C124 C 0.43071 0.19841 0.84182 0.0
H125 H 0.3932 0.08975 0.86172 0.0
H126 H 0.37593 0.21671 0.87352 0.0
H127 H 0.38227 0.05994 0.93831 0.0
H128 H 0.43883 0.14608 1.02162 0.0
H129 H 0.1983 0.1795 0.83303 0.0
H130 H 0.45942 0.09978 0.82944 0.0
H131 H 0.44291 0.22929 0.84084 0.0
C132 C 0.71414 0.36128 0.76602 0.0
C133 C 0.74118 0.33855 0.74232 0.0
N134 N 0.75903 0.311 0.7673 0.0
N135 N 0.71433 0.34914 0.8066 0.0
C136 C 0.7423 0.3184 0.80645 0.0
H137 H 0.69381 0.38384 0.75354 0.0
Co138 Co 0.67306 0.36819 0.84597 0.0
C139 C 0.70043 0.34773 0.93154 0.0
O140 O 0.6648 0.33023 0.93935 0.0
N141 N 0.62957 0.38801 0.88509 0.0
C142 C 0.57383 0.38942 0.92703 0.0
C143 C 0.59738 0.36593 0.90019 0.0
C144 C 0.62362 0.42575 0.90347 0.0
N145 N 0.59002 0.42722 0.92912 0.0
O146 O 0.69494 0.42148 0.84318 0.0
H147 H 0.59128 0.33405 0.8934 0.0
H148 H 0.6436 0.45183 0.89853 0.0
O149 O 0.70864 0.35962 0.89419 0.0
C150 C 0.67424 0.4423 0.81745 0.0
O151 O 0.64115 0.42549 0.79978 0.0
N152 N 0.65091 0.31647 0.84426 0.0
C153 C 0.60787 0.24461 0.82685 0.0
C154 C 0.64364 0.24447 0.85215 0.0
C155 C 0.66515 0.28106 0.86029 0.0
C156 C 0.6189 0.31627 0.81634 0.0
C157 C 0.59648 0.2809 0.80772 0.0
H158 H 0.69293 0.28081 0.87926 0.0
H159 H 0.6098 0.34443 0.80208 0.0
H160 H 0.74938 0.3012 0.83431 0.0
H161 H 0.74555 0.34086 0.70844 0.0
H162 H 0.54624 0.37961 0.94319 0.0
H163 H 0.65422 0.21671 0.86624 0.0
H164 H 0.5691 0.28266 0.7881 0.0
C165 C 0.8641 0.30393 0.17052 0.0
C166 C 0.84045 0.27334 0.18711 0.0
N167 N 0.83062 0.2832 0.22753 0.0
N168 N 0.86966 0.33442 0.19938 0.0
C169 C 0.84875 0.32087 0.23423 0.0
H170 H 0.8768 0.30378 0.1389 0.0
Co171 Co 0.90268 0.38095 0.18215 0.0
C172 C 0.86618 0.45252 0.22406 0.0
O173 O 0.86923 0.47006 0.18712 0.0
N174 N 0.93796 0.42685 0.16359 0.0
C175 C 0.9888 0.47349 0.17024 0.0
C176 C 0.96207 0.44825 0.19143 0.0
C177 C 0.95115 0.4406 0.12506 0.0
N178 N 0.98207 0.46932 0.12802 0.0
O179 O 0.9465 0.36485 0.21818 0.0
H180 H 0.9618 0.44425 0.22541 0.0
H181 H 0.93933 0.42922 0.095 0.0
O182 O 0.87845 0.41586 0.2279 0.0
C183 C 0.97058 0.34674 0.19239 0.0
O184 O 0.95799 0.34022 0.15306 0.0
N185 N 0.86188 0.39273 0.14278 0.0
C186 C 0.80636 0.38919 0.07528 0.0
C187 C 0.79292 0.39918 0.11644 0.0
C188 C 0.82132 0.40031 0.15017 0.0
C189 C 0.87461 0.38143 0.10327 0.0
C190 C 0.84774 0.38039 0.06897 0.0
H191 H 0.81032 0.40485 0.18217 0.0
H192 H 0.90537 0.37029 0.09881 0.0
H193 H 0.84776 0.33776 0.26409 0.0
H194 H 0.83122 0.24555 0.17026 0.0
H195 H 1.01289 0.49158 0.18553 0.0
H196 H 0.76069 0.40451 0.12262 0.0
H197 H 0.85877 0.37018 0.0382 0.0
C198 C 0.90065 0.64853 0.46042 0.0
C199 C 0.92677 0.62812 0.48682 0.0
N200 N 0.91763 0.58795 0.48454 0.0
N201 N 0.87453 0.62209 0.44041 0.0
C202 C 0.88552 0.58511 0.456 0.0
H203 H 0.90066 0.6811 0.45602 0.0
Co204 Co 0.83445 0.64386 0.40113 0.0
C205 C 0.81555 0.57984 0.33662 0.0
O206 O 0.81476 0.61 0.30998 0.0
N207 N 0.79309 0.66881 0.36303 0.0
C208 C 0.73096 0.67838 0.33344 0.0
C209 C 0.7542 0.65386 0.35901 0.0
C210 C 0.79176 0.7037 0.33967 0.0
N211 N 0.75425 0.71023 0.32117 0.0
O212 O 0.79365 0.63935 0.44467 0.0
H213 H 0.74307 0.6267 0.3743 0.0
H214 H 0.81757 0.72432 0.33622 0.0
O215 O 0.82199 0.58781 0.37637 0.0
C216 C 0.78575 0.67384 0.46215 0.0
O217 O 0.80041 0.70702 0.44484 0.0
N218 N 0.87693 0.65097 0.36237 0.0
C219 C 0.95606 0.66702 0.33468 0.0
C220 C 0.94131 0.62705 0.3353 0.0
C221 C 0.90173 0.61956 0.35001 0.0
C222 C 0.89058 0.69021 0.36 0.0
C223 C 0.92987 0.69902 0.3453 0.0
H224 H 0.89368 0.58848 0.35659 0.0
H225 H 0.87324 0.71439 0.37475 0.0
H226 H 0.87067 0.55671 0.44612 0.0
H227 H 0.95046 0.64214 0.50686 0.0
H228 H 0.69874 0.67366 0.32559 0.0
H229 H 0.96165 0.60177 0.32924 0.0
H230 H 0.94135 0.7302 0.34695 0.0
C231 C 0.9223 0.8763 0.9579 0.0
C232 C 0.89875 0.85005 0.93232 0.0
N233 N 0.87668 0.87197 0.90468 0.0
N234 N 0.9158 0.91498 0.94648 0.0
C235 C 0.8871 0.91128 0.91491 0.0
H236 H 0.94404 0.86761 0.98209 0.0
Co237 Co 0.94238 0.96473 0.96582 0.0
C238 C 0.96207 0.98992 0.87756 0.0
O239 O 1.00213 0.99056 0.88339 0.0
N240 N 0.96769 1.01618 0.98489 0.0
C241 C 0.99887 0.07749 0.98535 0.0
C242 C 0.97789 0.04857 0.96106 0.0
C243 C 0.98087 0.02802 1.02461 0.0
N244 N 1.00111 0.06454 1.02539 0.0
O245 O 0.89008 0.98525 0.97755 0.0
H246 H 0.97078 0.05187 0.92794 0.0
H247 H 0.97734 1.00936 0.05226 0.0
O248 O 0.93774 0.98289 0.90807 0.0
C249 C 0.88037 0.97232 1.0139 0.0
O250 O 0.90969 0.95737 0.03759 0.0
N251 N 0.99457 0.94125 0.95734 0.0
C252 C 0.06387 0.89241 0.96001 0.0
C253 C 0.03816 0.8917 0.92405 0.0
C254 C 1.00341 0.91615 0.92348 0.0
C255 C 1.02017 0.94267 0.99189 0.0
C256 C 0.05577 0.91993 0.99313 0.0
H257 H 0.98206 0.91257 0.89715 0.0
H258 H 1.01156 0.95826 1.02059 0.0
H259 H 0.87403 0.93741 0.9 0.0
H260 H 0.89918 0.81714 0.93316 0.0
H261 H 1.01166 0.10597 0.97433 0.0
H262 H 0.04282 0.87 0.89818 0.0
H263 H 0.0747 0.92108 1.0216 0.0
C264 C 0.9188 0.14048 0.69905 0.0
C265 C 0.89536 0.16471 0.72539 0.0
N266 N 0.86912 0.18597 0.70154 0.0
N267 N 0.90753 0.14546 0.6582 0.0
C268 C 0.87748 0.17406 0.66075 0.0
H269 H 0.94295 0.12058 0.70924 0.0
Co270 Co 0.93281 0.11746 0.61068 0.0
C271 C 0.86319 0.08851 0.55798 0.0
O272 O 0.88101 0.05295 0.55494 0.0
N273 N 0.95913 0.09018 0.5617 0.0
C274 C 0.97991 0.08331 0.49421 0.0
C275 C 0.95727 0.10616 0.52257 0.0
C276 C 0.98347 0.05684 0.55552 0.0
N277 N 0.99658 0.05202 0.5147 0.0
O278 O 0.94922 0.16912 0.58987 0.0
H279 H 0.94045 0.13322 0.51494 0.0
H280 H 0.99245 0.03668 0.58032 0.0
O281 O 0.88069 0.11756 0.57951 0.0
C282 C 0.98641 0.17309 0.60265 0.0
O283 O 1.00371 0.14211 0.621 0.0
N284 N 0.92091 0.06812 0.63584 0.0
C285 C 0.9178 1.01768 0.70528 0.0
C286 C 0.88126 0.03029 0.68588 0.0
C287 C 0.88347 0.05615 0.65117 0.0
C288 C 0.95624 0.05366 0.65269 0.0
C289 C 0.9554 0.02761 0.68653 0.0
H290 H 0.8556 0.07026 0.64042 0.0
H291 H 0.98552 0.0668 0.64386 0.0
H292 H 0.86196 0.1859 0.63324 0.0
H293 H 0.89827 0.16728 0.75961 0.0
H294 H 0.9834 0.08913 0.46073 0.0
H295 H 0.85163 1.02345 0.69976 0.0
H296 H 0.98439 1.01984 0.70123 0.0
C297 C 0.56198 0.09518 0.42802 0.0
C298 C 0.53524 0.07699 0.45553 0.0
N299 N 0.55672 0.05895 0.48649 0.0
N300 N 0.60117 0.08843 0.43972 0.0
C301 C 0.59702 0.06594 0.47569 0.0
H302 H 0.55311 0.11229 0.40061 0.0
Co303 Co 0.645 0.10978 0.40434 0.0
C304 C 0.71717 0.12226 0.45845 0.0
O305 O 0.71918 0.15874 0.44223 0.0
N306 N 0.6892 0.13107 0.36735 0.0
C307 C 0.75009 0.12829 0.33474 0.0
C308 C 0.72144 0.10721 0.35781 0.0
C309 C 0.69968 0.16726 0.34854 0.0
N310 N 0.7369 0.16642 0.3285 0.0
O311 O 0.64896 0.05708 0.37685 0.0
H312 H 0.72485 0.07634 0.3684 0.0
H313 H 0.68075 0.1939 0.34946 0.0
O314 O 0.68771 0.09758 0.4473 0.0
C315 C 0.62124 0.05582 0.34781 0.0
O316 O 0.6001 0.08885 0.34122 0.0
N317 N 0.63582 0.16075 0.42766 0.0
C318 C 0.60624 0.23572 0.45282 0.0
C319 C 0.62338 0.21021 0.48294 0.0
C320 C 0.63714 0.17192 0.46974 0.0
C321 C 0.61746 0.18465 0.39873 0.0
C322 C 0.60332 0.22274 0.41038 0.0
H323 H 0.6475 0.1509 0.49328 0.0
H324 H 0.61288 0.17344 0.36646 0.0
H325 H 0.62296 0.05517 0.49373 0.0
H326 H 0.50215 0.07633 0.45181 0.0
H327 H 0.77924 0.11634 0.32429 0.0
H328 H 0.62421 0.21895 0.5163 0.0
H329 H 0.58885 0.24136 0.38673 0.0
C330 C 0.69108 0.90054 0.18053 0.0
C331 C 0.71498 0.87688 0.20629 0.0
N332 N 0.69292 0.84394 0.21823 0.0
N333 N 0.65354 0.8831 0.17487 0.0
C334 C 0.65569 0.84845 0.19834 0.0
H335 H 0.70095 0.92843 0.16578 0.0
Co336 Co 0.61035 0.90632 0.13885 0.0
C337 C 0.58101 0.8226 0.10919 0.0
O338 O 0.60241 0.8232 0.07405 0.0
N339 N 0.5655 0.92908 0.10286 0.0
C340 C 0.52101 0.9301 0.04802 0.0
C341 C 0.54805 0.90726 0.07031 0.0
C342 C 0.54749 0.96655 0.09865 0.0
N343 N 0.5204 0.96793 0.06493 0.0
O344 O 0.58183 0.92077 0.18956 0.0
H345 H 0.55552 0.87689 0.06077 0.0
H346 H 0.55566 0.99276 0.11857 0.0
O347 O 0.58251 0.85284 0.13558 0.0
C348 C 0.60151 0.95328 0.20095 0.0
O349 O 0.62715 0.96965 0.17388 0.0
N350 N 0.64339 0.89786 0.09032 0.0
C351 C 0.71569 0.9122 0.04619 0.0
C352 C 0.70904 0.87488 0.06583 0.0
C353 C 0.67257 0.86829 0.08795 0.0
C354 C 0.64808 0.9324 0.06725 0.0
C355 C 0.68367 0.93978 0.0443 0.0
H356 H 0.6703 0.84166 0.10739 0.0
H357 H 0.62727 0.95739 0.07102 0.0
H358 H 0.63044 0.82683 0.2008 0.0
H359 H 0.74692 0.8831 0.21425 0.0
H360 H 0.50352 0.91945 1.02046 0.0
H361 H 0.73352 0.853 0.06801 0.0
H362 H 0.68818 0.96923 1.03004 0.0
C363 C 0.41224 0.62911 0.20566 0.0
C364 C 0.3886 0.65334 0.23165 0.0
N365 N 0.3667 0.67898 0.20776 0.0
N366 N 0.40528 0.63789 0.16466 0.0
C367 C 0.37768 0.66881 0.16704 0.0
H368 H 0.43428 0.60735 0.21646 0.0
Co369 Co 0.43496 0.61546 0.11615 0.0
C370 C 0.36916 0.58595 0.0574 0.0
O371 O 0.39155 0.55471 0.04601 0.0
N372 N 0.4659 0.59421 0.0665 0.0
C373 C 0.50135 0.59733 1.00587 0.0
C374 C 0.4782 0.61855 0.0348 0.0
C375 C 0.48199 0.55723 0.05453 0.0
N376 N 0.50358 0.55818 1.01736 0.0
O377 O 0.44611 0.66967 0.09978 0.0
H378 H 0.47143 0.65043 1.0323 0.0
H379 H 0.47763 0.52981 0.07239 0.0
O380 O 0.38334 0.61249 0.08425 0.0
C381 C 0.4751 0.68193 0.12467 0.0
O382 O 0.48959 0.65663 0.15263 0.0
N383 N 0.42809 0.56353 0.1371 0.0
C384 C 0.42986 0.51837 0.21041 0.0
C385 C 0.39234 0.52479 0.18911 0.0
C386 C 0.39204 0.5479 0.15223 0.0
C387 C 0.46484 0.5526 0.15389 0.0
C388 C 0.46649 0.52992 0.1904 0.0
H389 H 0.36289 0.55822 0.14021 0.0
H390 H 0.49288 0.56715 0.14321 0.0
H391 H 0.36769 0.68475 0.13928 0.0
H392 H 0.38834 0.65224 0.26592 0.0
H393 H 0.51652 0.61089 0.97916 0.0
H394 H 0.36335 0.51625 0.2034 0.0
H395 H 0.49614 0.52717 0.2058 0.0
C396 C 0.07076 0.5812 0.92787 0.0
C397 C 0.04497 0.5603 0.95445 0.0
N398 N 0.06662 0.54902 0.98848 0.0
N399 N 0.10935 0.58401 0.94428 0.0
C400 C 0.10565 0.56319 0.98145 0.0
H401 H 0.06152 0.59357 0.89786 0.0
Co402 Co 0.15389 0.60806 0.91 0.0
C403 C 0.20246 0.59802 0.9893 0.0
O404 O 0.17446 0.61816 1.01066 0.0
N405 N 0.19745 0.63092 0.87464 0.0
C406 C 0.26043 0.6381 0.84734 0.0
C407 C 0.23394 0.61269 0.86873 0.0
C408 C 0.20256 0.66755 0.85502 0.0
N409 N 0.24108 0.67292 0.83863 0.0
O410 O 0.15476 0.55749 0.87788 0.0
H411 H 0.2414 0.58296 0.88036 0.0
H412 H 0.17923 0.69069 0.85476 0.0
O413 O 0.19648 0.58988 0.94975 0.0
C414 C 0.12984 0.56046 0.84662 0.0
O415 O 0.11438 0.5964 0.83934 0.0
N416 N 0.15015 0.65874 0.93817 0.0
C417 C 0.14026 0.73984 0.96152 0.0
C418 C 0.10636 0.71563 0.94924 0.0
C419 C 0.11212 0.6754 0.93686 0.0
C420 C 0.18369 0.68197 0.95075 0.0
C421 C 0.17935 0.72293 0.96258 0.0
H422 H 0.08632 0.65853 0.92353 0.0
H423 H 0.21429 0.66964 0.94926 0.0
H424 H 0.13106 0.55654 1.00224 0.0
H425 H 1.01248 0.55409 0.94925 0.0
H426 H 0.29191 0.63144 0.83899 0.0
H427 H 0.07592 0.72845 0.94687 0.0
H428 H 0.2062 0.74144 0.971 0.0
C429 C 0.18841 0.3947 0.672 0.0
C430 C 0.21377 0.37198 0.69742 0.0
N431 N 0.19056 0.34659 0.72073 0.0
N432 N 0.14865 0.38396 0.67804 0.0
C433 C 0.15112 0.3551 0.70885 0.0
H434 H 0.19867 0.41716 0.64968 0.0
Co435 Co 0.10102 0.40609 0.64733 0.0
C436 C 0.08994 0.31436 0.63648 0.0
O437 O 0.1292 0.3065 0.64083 0.0
N438 N 0.05274 0.42739 0.61611 0.0
C439 C 1.00092 0.42487 0.5685 0.0
C440 C 1.02943 0.40285 0.59011 0.0
C441 C 0.03736 0.46534 0.60819 0.0
N442 N 1.00532 0.46445 0.57948 0.0
O443 O 0.07503 0.41425 0.70115 0.0
H444 H 0.03399 0.37076 0.58439 0.0
H445 H 0.05023 0.4932 0.62213 0.0
O446 O 0.07741 0.35098 0.63967 0.0
C447 C 0.09177 0.44833 0.71266 0.0
O448 O 0.11493 0.46761 0.68541 0.0
N449 N 0.12976 0.40504 0.59608 0.0
C450 C 0.19411 0.42494 0.5428 0.0
C451 C 0.18203 0.38403 0.54749 0.0
C452 C 0.14902 0.37461 0.57413 0.0
C453 C 0.13804 0.44477 0.58722 0.0
C454 C 0.16967 0.45542 0.56021 0.0
H455 H 0.1417 0.34319 0.57909 0.0
H456 H 0.12301 0.4688 0.60476 0.0
H457 H 0.12437 0.33967 0.72149 0.0
H458 H 0.24706 0.37308 0.69733 0.0
H459 H 0.98003 0.41267 0.54432 0.0
H460 H 0.20015 0.35968 0.53388 0.0
H461 H 0.17814 0.48731 0.5575 0.0
C462 C 0.61488 0.6769 0.7208 0.0
C463 C 0.58556 0.65282 0.70027 0.0
N464 N 0.59347 0.65204 0.65829 0.0
N465 N 0.6415 0.69175 0.69227 0.0
C466 C 0.62736 0.67644 0.65422 0.0
H467 H 0.61674 0.68328 0.7546 0.0
Co468 Co 0.68708 0.72567 0.70881 0.0
C469 C 0.74518 0.71089 0.63737 0.0
O470 O 0.77505 0.70633 0.66513 0.0
N471 N 0.7323 0.76147 0.72674 0.0
C472 C 0.78076 0.81037 0.72402 0.0
C473 C 0.75301 0.78671 0.70091 0.0
C474 C 0.74718 0.77233 0.76619 0.0
N475 N 0.77691 0.80205 0.76552 0.0
O476 O 0.65598 0.77152 0.69379 0.0
H477 H 0.74777 0.7888 0.66713 0.0
H478 H 0.73519 0.76033 0.79528 0.0
O479 O 0.70919 0.72035 0.65031 0.0
C480 C 0.63507 0.78529 0.72493 0.0
O481 O 0.64322 0.77188 0.76301 0.0
N482 N 0.71422 0.67904 0.72676 0.0
C483 C 0.72276 0.60221 0.76072 0.0
C484 C 0.72497 0.60741 0.7169 0.0
C485 C 0.71907 0.64573 0.70049 0.0
C486 C 0.71505 0.67477 0.76972 0.0
C487 C 0.71973 0.63655 0.78751 0.0
H488 H 0.71321 0.64703 0.66689 0.0
H489 H 0.70637 0.69978 0.79028 0.0
H490 H 0.64192 0.68245 0.62417 0.0
H491 H 0.55984 0.63768 0.71521 0.0
H492 H 0.80227 0.83188 0.71063 0.0
H493 H 0.72605 0.58129 0.69528 0.0
H494 H 0.71614 0.63339 0.82144 0.0
C495 C 0.38264 0.39688 0.47482 0.0
C496 C 0.36118 0.36821 0.4504 0.0
N497 N 0.35717 0.38209 0.4106 0.0
N498 N 0.39216 0.42919 0.45102 0.0
C499 C 0.37593 0.41938 0.41207 0.0
H500 H 0.39027 0.39464 0.50815 0.0
Co501 Co 0.42026 0.47693 0.47204 0.0
C502 C 0.45028 0.51336 0.39272 0.0
O503 O 0.48679 0.52117 0.40944 0.0
N504 N 0.44816 0.52586 0.49374 0.0
C505 C 0.46129 0.59214 0.50646 0.0
C506 C 0.43751 0.56404 0.48359 0.0
C507 C 0.47866 0.53206 0.52332 0.0
N508 N 0.48715 0.57208 0.53188 0.0
O509 O 0.36866 0.50093 0.47981 0.0
H510 H 0.41328 0.57114 0.46138 0.0
H511 H 0.49471 0.50795 0.5385 0.0
O512 O 0.42224 0.49681 0.41478 0.0
C513 C 0.35753 0.49136 0.51689 0.0
O514 O 0.38654 0.48405 0.54483 0.0
N515 N 0.46931 0.44943 0.46742 0.0
C516 C 0.5277 0.3892 0.47066 0.0
C517 C 0.51371 0.40291 0.43152 0.0
C518 C 0.48357 0.4324 0.43059 0.0
C519 C 0.48257 0.43595 0.50568 0.0
C520 C 0.5127 0.40652 0.50813 0.0
H521 H 0.46868 0.43778 0.4007 0.0
H522 H 0.46703 0.44545 0.53438 0.0
H523 H 0.37785 0.43911 0.3851 0.0
H524 H 0.34843 0.33987 0.46171 0.0
H525 H 0.45873 0.62492 0.50539 0.0
H526 H 0.52298 0.38806 0.40211 0.0
H527 H 0.52116 0.39462 0.53873 0.0
C528 C 0.29357 0.36563 0.30985 0.0
C529 C 0.29157 0.32281 0.30461 0.0
C530 C 0.31518 0.3847 0.3441 0.0
C531 C 0.33597 0.36191 0.37476 0.0
H532 H 0.27775 0.38464 0.28758 0.0
H533 H 0.31497 0.41761 0.34696 0.0
S534 S 0.34424 0.24904 0.373 0.0
N535 N 0.31475 0.25844 0.3316 0.0
N536 N 0.3556 0.29387 0.39526 0.0
C537 C 0.33499 0.31906 0.36928 0.0
C538 C 0.31278 0.29969 0.33452 0.0
C539 C 0.04938 0.02979 0.46176 0.0
C540 C 1.0225 1.02057 0.49558 0.0
C541 C 0.07194 0.9993 0.44 0.0
C542 C 0.06828 0.95796 0.45057 0.0
H543 H 0.05258 0.06091 0.45154 0.0
H544 H 0.09093 1.0079 0.41346 0.0
S545 S 1.00442 0.91723 0.53784 0.0
N546 N 0.99543 0.96659 0.53934 0.0
N547 N 0.0375 0.90989 0.49897 0.0
C548 C 0.04271 0.94851 0.48521 0.0
C549 C 1.02004 0.97953 0.50755 0.0
C550 C 0.3013 0.71981 0.82643 0.0
C551 C 0.25994 0.7079 0.81754 0.0
C552 C 0.32243 0.74961 0.80249 0.0
C553 C 0.30348 0.76863 0.76798 0.0
H554 H 0.31794 0.70503 0.85151 0.0
H555 H 0.35456 0.7561 0.80949 0.0
S556 S 0.19573 0.74986 0.73165 0.0
N557 N 0.20077 0.71934 0.77231 0.0
N558 N 0.24042 0.77402 0.72701 0.0
C559 C 0.26188 0.75792 0.75954 0.0
C560 C 0.24016 0.72813 0.78436 0.0
C561 C 0.46151 0.02959 0.98351 0.0
C562 C 0.44275 0.06048 1.00779 0.0
C563 C 0.48784 1.00099 1.00223 0.0
C564 C 0.49665 1.0011 0.04652 0.0
H565 H 0.45648 0.02798 0.9495 0.0
H566 H 0.50156 0.97844 0.98142 0.0
S567 S 0.45375 0.07447 0.12505 0.0
N568 N 0.43428 0.08879 0.07925 0.0
N569 N 0.48295 0.03495 0.11399 0.0
C570 C 0.47806 0.03187 0.07121 0.0
C571 C 0.45138 0.06131 0.05207 0.0
C572 C 0.34305 0.72541 0.26709 0.0
C573 C 0.33997 0.71145 0.2241 0.0
C574 C 0.31769 0.75634 0.28404 0.0
C575 C 0.28825 0.77554 0.25887 0.0
H576 H 0.36584 0.71305 0.2881 0.0
H577 H 0.32208 0.76623 0.3168 0.0
S578 S 0.26438 0.74968 0.14582 0.0
N579 N 0.30216 0.71889 0.15785 0.0
N580 N 0.25569 0.777 0.18937 0.0
C581 C 0.28416 0.76175 0.21623 0.0
C582 C 0.30964 0.72995 0.19898 0.0
C583 C 0.53984 0.98058 0.5734 0.0
C584 C 0.49991 0.98916 0.58832 0.0
C585 C 0.55864 1.0036 0.54082 0.0
C586 C 0.53864 0.03679 0.52217 0.0
H587 H 0.55656 0.95568 0.58692 0.0
H588 H 0.58881 0.99498 0.52983 0.0
S589 S 0.436 0.07521 0.55529 0.0
N590 N 0.44259 0.03471 0.5845 0.0
N591 N 0.47765 0.07915 0.52588 0.0
C592 C 0.49925 0.04646 0.53856 0.0
C593 C 0.48006 1.02248 0.57086 0.0
C594 C 0.20379 0.24336 0.77274 0.0
C595 C 0.23941 0.24848 0.79891 0.0
C596 C 0.18745 0.27541 0.74852 0.0
C597 C 0.20588 0.31459 0.74852 0.0
H598 H 0.18837 0.21397 0.77033 0.0
H599 H 0.16064 0.26909 0.72872 0.0
S600 S 0.29748 0.34643 0.81334 0.0
N601 N 0.29082 0.29789 0.8245 0.0
N602 N 0.26092 0.35711 0.77887 0.0
C603 C 0.24118 0.32046 0.77472 0.0
C604 C 0.25768 0.28788 0.79973 0.0
C605 C 0.08613 0.12202 0.0853 0.0
C606 C 0.07077 0.12567 0.12693 0.0
C607 C 0.0633 0.10199 0.05256 0.0
C608 C 1.02422 0.0843 0.05992 0.0
H609 H 0.11636 0.13412 0.07802 0.0
H610 H 0.07665 0.09978 1.02122 0.0
S611 S 0.96766 0.08871 0.16148 0.0
N612 N 1.01177 0.1125 0.17229 0.0
N613 N 0.97011 0.07392 0.11113 0.0
C614 C 1.00818 0.08812 0.10102 0.0
C615 C 0.03106 0.10902 0.13432 0.0
C616 C 0.83697 0.25449 0.69847 0.0
C617 C 0.84029 0.21633 0.7175 0.0
C618 C 0.8114 0.28517 0.71556 0.0
C619 C 0.78722 0.27927 0.75233 0.0
H620 H 0.85509 0.26106 0.67066 0.0
H621 H 0.81092 0.31406 0.69976 0.0
S622 S 0.78243 0.18315 0.81234 0.0
N623 N 0.81596 0.17369 0.77437 0.0
N624 N 0.76739 0.23038 0.80558 0.0
C625 C 0.78991 0.24084 0.77127 0.0
C626 C 0.81638 0.20975 0.75409 0.0
C627 C 1.02522 0.49165 1.01795 0.0
C628 C 0.04953 0.52729 1.02444 0.0
C629 C 1.004 0.4728 0.05161 0.0
C630 C 1.00496 0.48913 0.09361 0.0
H631 H 1.02238 0.47832 0.98629 0.0
H632 H 0.98656 0.44519 0.04429 0.0
S633 S 0.0614 0.58498 0.12621 0.0
N634 N 0.07226 0.57907 0.07537 0.0
N635 N 0.03128 0.54594 0.13799 0.0
C636 C 1.02893 0.52545 0.10012 0.0
C637 C 0.05133 0.54388 0.06586 0.0
C638 C 0.70947 0.73779 0.26317 0.0
C639 C 0.74002 0.7441 0.29517 0.0
C640 C 0.6938 0.77015 0.23883 0.0
C641 C 0.70766 0.81086 0.2451 0.0
H642 H 0.69771 0.70728 0.25647 0.0
H643 H 0.67109 0.76302 0.21438 0.0
S644 S 0.78361 0.84525 0.32816 0.0
N645 N 0.78107 0.79538 0.3334 0.0
N646 N 0.75181 0.85557 0.28889 0.0
C647 C 0.73749 0.81772 0.27775 0.0
C648 C 0.75356 0.78472 0.3023 0.0
C649 C 0.98116 0.56141 0.52003 0.0
C650 C 0.93894 0.55657 0.50861 0.0
C651 C 1.0023 0.53253 0.54468 0.0
C652 C 0.98241 0.49716 0.55936 0.0
H653 H 0.99844 0.58756 0.50916 0.0
H654 H 0.0348 0.53731 0.55111 0.0
S655 S 0.8714 0.4714 0.54273 0.0
N656 N 0.87782 0.51435 0.51714 0.0
N657 N 0.91689 0.46065 0.56289 0.0
C658 C 0.94 0.49249 0.54915 0.0
C659 C 0.91855 0.52181 0.52401 0.0
C660 C 0.56137 0.45946 0.99493 0.0
C661 C 0.57171 0.46169 0.95155 0.0
C662 C 0.53937 0.49075 1.01616 0.0
C663 C 0.52565 0.52549 0.9948 0.0
H664 H 0.57034 0.43309 1.01259 0.0
H665 H 0.53319 0.48761 0.04963 0.0
S666 S 0.5402 0.54271 0.87899 0.0
N667 N 0.56453 0.4999 0.88744 0.0
N668 N 0.52144 0.55711 0.92541 0.0
C669 C 0.53491 0.52714 0.95077 0.0
C670 C 0.55826 0.49578 0.92973 0.0
C671 C 0.8077 0.79953 0.83848 0.0
C672 C 0.79979 0.82113 0.80117 0.0
C673 C 0.83203 0.8165 0.87207 0.0
C674 C 0.84992 0.856 0.87026 0.0
H675 H 0.79576 0.76879 0.84146 0.0
H676 H 0.83689 0.79821 0.89973 0.0
S677 S 0.83698 0.9267 0.78054 0.0
N678 N 0.80971 0.88585 0.76611 0.0
N679 N 0.8571 0.91629 0.82716 0.0
C680 C 0.84166 0.87822 0.83333 0.0
C681 C 0.81636 0.86118 0.79944 0.0
C682 C 0.78718 0.18515 0.27246 0.0
C683 C 0.75925 0.19747 0.30421 0.0
C684 C 0.8108 0.21316 0.24935 0.0
C685 C 0.80798 0.25576 0.25571 0.0
H686 H 0.79079 0.15316 0.26472 0.0
H687 H 0.83167 0.2009 0.22591 0.0
S688 S 0.74031 0.30555 0.33534 0.0
N689 N 0.73114 0.25638 0.34154 0.0
N690 N 0.77463 0.30899 0.29705 0.0
C691 C 0.78045 0.269 0.28754 0.0
C692 C 0.75624 0.24008 0.31166 0.0
C693 C 0.53501 0.62861 0.55562 0.0
C694 C 0.51607 0.59032 0.56284 0.0
C695 C 0.56135 0.64796 0.58607 0.0
C696 C 0.56964 0.63018 0.62543 0.0
H697 H 0.52928 0.64393 0.52616 0.0
H698 H 0.5743 0.67766 0.57928 0.0
S699 S 0.52991 0.52958 0.65993 0.0
N700 N 0.50878 0.53521 0.61268 0.0
N701 N 0.55869 0.5708 0.66881 0.0
C702 C 0.55187 0.59148 0.63263 0.0
C703 C 0.52512 0.57177 0.6017 0.0
C704 C 0.18875 0.03813 0.25522 0.0
C705 C 0.21982 0.06048 0.27705 0.0
C706 C 0.17485 1.00066 0.26964 0.0
C707 C 0.19145 0.98386 0.30649 0.0
H708 H 0.17416 0.05022 0.22725 0.0
H709 H 0.15082 0.98482 0.25152 0.0
S710 S 0.27329 0.03059 0.37548 0.0
N711 N 0.2667 0.06374 0.33744 0.0
N712 N 0.24068 0.99254 0.36484 0.0
C713 C 0.22268 1.0058 0.32875 0.0
C714 C 0.23675 0.04436 0.31402 0.0
C715 C 0.25679 0.88907 0.47105 0.0
C716 C 0.22157 0.8641 0.47544 0.0
C717 C 0.28208 0.89916 0.50597 0.0
C718 C 0.27319 0.88467 0.54662 0.0
H719 H 0.26489 0.90113 0.44044 0.0
H720 H 0.30922 0.918 0.50103 0.0
S721 S 0.18534 0.81762 0.57521 0.0
N722 N 0.17921 0.825 0.5239 0.0
N723 N 0.2273 0.84364 0.58934 0.0
C724 C 0.23793 0.86006 0.55167 0.0
C725 C 0.21205 0.84979 0.51612 0.0
C726 C 0.36825 0.98595 0.80174 0.0
C727 C 0.3504 0.97994 0.76109 0.0
C728 C 0.35345 1.01619 0.83038 0.0
C729 C 0.3205 0.04144 0.81908 0.0
H730 H 0.39562 0.96948 0.81018 0.0
H731 H 0.37013 1.02196 0.85982 0.0
S732 S 0.25777 0.03124 0.72042 0.0
N733 N 0.29393 0.99693 0.7143 0.0
N734 N 0.26641 0.05304 0.76745 0.0
C735 C 0.29989 0.03227 0.78052 0.0
C736 C 0.31487 1.0019 0.75163 0.0
C737 C 0.28932 0.16425 0.04145 0.0
C738 C 0.26811 0.18191 1.00767 0.0
C739 C 0.28093 0.17541 0.08383 0.0
C740 C 0.25043 0.204 0.09406 0.0
H741 H 0.31423 0.14349 0.03506 0.0
H742 H 0.29886 0.16185 0.10878 0.0
S743 S 0.18423 0.2567 1.01715 0.0
N744 N 0.21448 0.22831 0.98714 0.0
N745 N 0.19728 0.2477 0.06682 0.0
C746 C 0.22756 0.22021 0.06061 0.0
C747 C 0.23685 0.20965 1.01743 0.0
C748 C 0.06057 0.30376 0.25269 0.0
C749 C 0.09106 0.30103 0.22107 0.0
C750 C 1.02209 0.32075 0.24425 0.0
C751 C 1.01286 0.33539 0.20389 0.0
H752 H 0.06562 0.29097 0.28365 0.0
H753 H 0.9988 0.32043 0.26868 0.0
S754 S 0.08427 0.34249 0.11272 0.0
N755 N 0.11099 0.31957 0.1497 0.0
N756 N 0.03892 0.35147 0.13389 0.0
C757 C 0.04404 0.33568 0.17308 0.0
C758 C 0.08312 0.31852 0.18165 0.0
C759 C 0.5558 0.20179 0.78742 0.0
C760 C 0.57814 0.21008 0.82531 0.0
C761 C 0.51658 0.18371 0.78841 0.0
C762 C 0.49968 0.17205 0.82706 0.0
H763 H 0.56675 0.21337 0.75753 0.0
H764 H 0.49828 0.18173 0.75954 0.0
S765 S 0.54893 0.17776 0.93328 0.0
N766 N 0.58275 0.19901 0.90142 0.0
N767 N 0.50991 0.16294 0.90254 0.0
C768 C 0.52385 0.17469 0.86403 0.0
C769 C 0.56325 0.19394 0.8633 0.0
C770 C 1.02225 0.67892 0.2972 0.0
C771 C 1.00045 0.6751 0.33507 0.0
C772 C 0.06187 0.69634 0.2977 0.0
C773 C 0.08006 0.71117 0.33597 0.0
H774 H 1.00762 0.67107 0.26704 0.0
H775 H 0.07685 0.70145 0.26763 0.0
S776 S 0.03674 0.70071 0.44413 0.0
N777 N 1.00126 0.68066 0.41192 0.0
N778 N 0.07476 0.71525 0.4132 0.0
C779 C 0.05984 0.70326 0.37437 0.0
C780 C 1.02001 0.68494 0.37377 0.0
C781 C 0.57774 0.80434 0.67671 0.0
C782 C 0.59573 0.80635 0.71736 0.0
C783 C 0.53751 0.81721 0.6699 0.0
C784 C 0.51342 0.83302 0.70331 0.0
H785 H 0.59413 0.79107 0.6501 0.0
H786 H 0.5251 0.81404 0.63798 0.0
S787 S 0.5476 0.84892 0.81505 0.0
N788 N 0.58751 0.82825 0.79118 0.0
N789 N 0.51173 0.85287 0.77803 0.0
C790 C 0.53163 0.83715 0.74377 0.0
C791 C 0.57276 0.82372 0.75085 0.0
C792 C 0.94748 0.97293 0.75988 0.0
C793 C 0.91902 1.00302 0.74935 0.0
C794 C 0.96074 0.96843 0.80179 0.0
C795 C 0.94504 0.99299 0.83464 0.0
H796 H 0.9619 0.95486 0.7351 0.0
H797 H 0.98423 0.94634 0.8084 0.0
S798 S 0.86593 0.07211 0.82537 0.0
N799 N 0.8731 0.05546 0.77615 0.0
N800 N 0.8964 0.04489 0.8554 0.0
C801 C 0.91376 1.02034 0.82543 0.0
C802 C 0.90095 0.02575 0.78259 0.0
C803 C 0.80808 0.13473 0.53332 0.0
C804 C 0.8233 0.09506 0.53601 0.0
C805 C 0.77252 0.14258 0.50984 0.0
C806 C 0.75035 0.11113 0.48826 0.0
H807 H 0.82441 0.16028 0.54835 0.0
H808 H 0.76293 0.17393 0.50774 0.0
S809 S 0.77451 1.00129 0.48844 0.0
N810 N 0.81144 1.02326 0.51754 0.0
N811 N 0.74441 0.03843 0.4734 0.0
C812 C 0.76378 0.07104 0.49241 0.0
C813 C 0.80034 0.06293 0.51619 0.0
C814 C 0.64774 0.99993 0.30086 0.0
C815 C 0.61425 1.02043 0.31859 0.0
C816 C 0.64241 0.97484 0.26449 0.0
C817 C 0.60339 0.9688 0.24522 0.0
H818 H 0.67863 1.00604 0.31281 0.0
H819 H 0.66949 0.96218 0.24968 0.0
S820 S 0.50507 1.01023 0.28372 0.0
N821 N 0.54 0.0291 0.31744 0.0
N822 N 0.53032 0.98142 0.24936 0.0
C823 C 0.56922 0.9859 0.26502 0.0
C824 C 0.57462 1.0119 0.30169 0.0
C825 C 0.76836 0.94175 0.9976 0.0
C826 C 0.75781 0.92692 0.0376 0.0
C827 C 0.80758 0.95859 0.99051 0.0
C828 C 0.83718 0.96159 1.02342 0.0
H829 H 0.74632 0.93992 0.97164 0.0
H830 H 0.81507 0.96814 0.95876 0.0
S831 S 0.82202 0.93209 0.13539 0.0
N832 N 0.7782 0.9196 0.11133 0.0
N833 N 0.85163 0.95155 0.09836 0.0
C834 C 0.82608 0.94849 0.06401 0.0
C835 C 0.78648 0.93102 0.07101 0.0
C836 C 0.13986 0.80983 0.93467 0.0
C837 C 0.13374 0.78346 0.9686 0.0
C838 C 0.11973 0.84719 0.93355 0.0
C839 C 0.09311 0.85906 0.9664 0.0
H840 H 0.15718 0.79991 0.90716 0.0
H841 H 0.12276 0.86556 0.90557 0.0
S842 S 0.0709 0.80175 0.06421 0.0
N843 N 0.10298 0.77274 0.03726 0.0
N844 N 0.06465 0.84264 0.0355 0.0
C845 C 0.08976 0.83426 1.0022 0.0
C846 C 0.11028 0.79642 1.0032 0.0
C847 C 0.50655 0.73618 0.08117 0.0
C848 C 0.49537 0.72192 0.1211 0.0
C849 C 0.53383 0.76934 0.07775 0.0
C850 C 0.55014 0.78972 0.11415 0.0
H851 H 0.49612 0.72028 0.05248 0.0
H852 H 0.54276 0.77858 0.04629 0.0
S853 S 0.52592 0.76687 0.22595 0.0
N854 N 0.49961 0.73225 0.19768 0.0
N855 N 0.55006 0.79541 0.19121 0.0
C856 C 0.53694 0.77733 0.1542 0.0
C857 C 0.50976 0.74316 0.15767 0.0
C858 C 0.05228 0.21059 0.59718 0.0
C859 C 1.00952 0.21199 0.60267 0.0
C860 C 0.07759 0.24421 0.60727 0.0
C861 C 0.06122 0.2807 0.62358 0.0
H862 H 0.06658 0.18257 0.58663 0.0
H863 H 0.11044 0.24106 0.60313 0.0
S864 S 0.95055 0.30045 0.64234 0.0
N865 N 0.9513 0.253 0.62378 0.0
N866 N 0.99893 0.31671 0.64309 0.0
C867 C 1.01813 0.28319 0.62747 0.0
C868 C 0.99223 0.24872 0.61687 0.0
C869 C 0.52543 0.31496 0.46076 0.0
C870 C 0.54838 0.35013 0.47197 0.0
C871 C 0.54426 0.27732 0.45746 0.0
C872 C 0.58658 0.27384 0.46524 0.0
H873 H 0.49292 0.31685 0.45323 0.0
H874 H 0.52599 0.251 0.44701 0.0
S875 S 0.65931 0.35653 0.49864 0.0
N876 N 0.61458 0.37931 0.49359 0.0
N877 N 0.65056 0.3078 0.48692 0.0
C878 C 0.60952 0.30837 0.47861 0.0
C879 C 0.59021 0.34689 0.48206 0.0
C880 C 0.66644 0.50223 0.77213 0.0
C881 C 0.68752 0.48353 0.80534 0.0
C882 C 0.6786 0.54037 0.75806 0.0
C883 C 0.71236 0.56149 0.77656 0.0
H884 H 0.64037 0.48727 0.75641 0.0
H885 H 0.66105 0.55365 0.73262 0.0
S886 S 0.77699 0.52718 0.86571 0.0
N887 N 0.74322 0.48963 0.85744 0.0
N888 N 0.766 0.5621 0.8306 0.0
C889 C 0.73334 0.54384 0.81037 0.0
C890 C 0.72103 0.5046 0.82476 0.0
C891 C 0.72052 0.34276 1.00785 0.0
C892 C 0.72822 0.35881 0.96751 0.0
C893 C 0.74465 0.35438 0.04318 0.0
C894 C 0.77733 0.38249 0.03948 0.0
H895 H 0.69581 0.32076 1.01223 0.0
H896 H 0.73856 0.34024 0.07329 0.0
S897 S 0.80867 0.43602 0.94226 0.0
N898 N 0.76985 0.40613 0.92672 0.0
N899 N 0.81507 0.42782 0.99337 0.0
C900 C 0.78485 0.39956 0.99975 0.0
C901 C 0.7604 0.38772 0.9637 0.0
C902 C 0.86577 0.48213 0.29895 0.0
C903 C 0.84616 0.47559 0.25927 0.0
C904 C 0.85245 0.51298 0.3276 0.0
C905 C 0.81928 0.53824 0.31719 0.0
H906 H 0.89347 0.46574 0.30638 0.0
H907 H 0.87051 0.51936 0.35606 0.0
S908 S 0.7525 0.52707 0.22155 0.0
N909 N 0.788 0.4922 0.21456 0.0
N910 N 0.76324 0.54962 0.26777 0.0
C911 C 0.79695 0.52864 0.27981 0.0
C912 C 0.81041 0.49759 0.25091 0.0
C913 C 0.73469 0.72031 0.55917 0.0
C914 C 0.75168 0.69812 0.59244 0.0
C915 C 0.74386 0.71063 0.51657 0.0
C916 C 0.76905 0.6775 0.50568 0.0
H917 H 0.71584 0.7465 0.56617 0.0
H918 H 0.73223 0.73002 0.492 0.0
S919 S 0.81765 0.60724 0.58083 0.0
N920 N 0.79278 0.6399 0.61151 0.0
N921 N 0.80876 0.6211 0.53159 0.0
C922 C 0.78412 0.65359 0.53854 0.0
C923 C 0.77577 0.66408 0.58189 0.0
C924 C 0.40413 0.5309 0.28427 0.0
C925 C 0.43114 0.51012 0.25671 0.0
C926 C 0.41038 0.53164 0.32837 0.0
C927 C 0.44465 0.51296 0.34635 0.0
H928 H 0.37908 0.54847 0.27172 0.0
H929 H 0.38907 0.54811 0.34843 0.0
S930 S 0.521 0.44963 0.28962 0.0
N931 N 0.48992 0.46529 0.25187 0.0
N932 N 0.50376 0.47003 0.3343 0.0
C933 C 0.47097 0.49084 0.31966 0.0
C934 C 0.46363 0.48853 0.27499 0.0
C935 C 0.27561 0.57453 0.98465 0.0
C936 C 0.24385 0.59213 1.00874 0.0
C937 C 0.31592 0.57246 1.00073 0.0
C938 C 0.3263 0.58843 0.04129 0.0
H939 H 0.26955 0.56275 0.9528 0.0
H940 H 0.33933 0.55895 0.98084 0.0
S941 S 0.25425 0.63378 0.11918 0.0
N942 N 0.22539 0.62295 0.07698 0.0
N943 N 0.30115 0.61963 0.10653 0.0
C944 C 0.29482 0.60511 0.06621 0.0
C945 C 0.25364 0.60672 0.05016 0.0
C946 C 0.07889 0.52827 0.79597 0.0
C947 C 0.11562 0.525 0.81978 0.0
C948 C 0.06741 0.49902 0.76479 0.0
C949 C 0.09191 0.46511 0.75639 0.0
H950 H 0.05987 0.55488 0.79968 0.0
H951 H 0.04121 0.50498 0.74451 0.0
S952 S 0.18812 0.43919 0.81302 0.0
N953 N 0.17406 0.4826 0.83573 0.0
N954 N 0.15253 0.42781 0.77677 0.0
C955 C 0.12672 0.45955 0.78238 0.0
C956 C 0.13854 0.4894 0.81423 0.0
C957 C 0.28295 0.48462 0.49654 0.0
C958 C 0.3159 0.47353 0.52287 0.0
C959 C 0.24371 0.46678 0.50092 0.0
C960 C 0.23648 0.43642 0.53088 0.0
H961 H 0.2873 0.50784 0.47304 0.0
H962 H 0.21856 0.47758 0.48167 0.0
S963 S 0.3125 0.39475 0.60593 0.0
N964 N 0.33864 0.42895 0.57909 0.0
N965 N 0.26529 0.39533 0.58648 0.0
C966 C 0.26941 0.42399 0.55623 0.0
C967 C 0.309 0.44262 0.55251 0.0
loop_
_geom_bond_atom_site_label_1
_geom_bond_atom_site_label_2
_geom_bond_distance
_geom_bond_site_symmetry_2
_ccdc_geom_bond_type
C0 C1 1.351 . S
C0 N3 1.368 . S
C0 H5 0.931 . S
C1 C0 1.351 . S
C1 N2 1.373 . S
C1 H29 0.930 1_455 S
N2 C1 1.373 . S
N2 C4 1.340 . S
N3 C0 1.368 . S
N3 C4 1.321 . S
N3 Co6 2.135 . S
C4 N2 1.340 . S
C4 N3 1.321 . S
C4 H28 0.930 . S
H5 C0 0.931 . S
Co6 N3 2.135 . S
Co6 N9 2.121 . S
Co6 O14 2.055 . S
Co6 O17 2.039 . S
Co6 N20 2.140 . S
C7 O8 1.227 . S
C7 O17 1.265 . S
O8 C7 1.227 . S
N9 Co6 2.121 . S
N9 C11 1.375 . S
N9 C12 1.313 . S
C10 C11 1.338 . S
C10 N13 1.377 . S
C10 H30 0.930 . S
C11 N9 1.375 . S
C11 C10 1.338 . S
C11 H15 0.931 . S
C12 N9 1.313 . S
C12 N13 1.344 . S
C12 H16 0.930 . S
N13 C10 1.377 . S
N13 C12 1.344 . S
O14 Co6 2.055 . S
O14 C18 1.253 . S
H15 C11 0.931 . S
H16 C12 0.930 . S
O17 Co6 2.039 . S
O17 C7 1.265 . S
C18 O14 1.253 . S
C18 O19 1.227 . S
O19 C18 1.227 . S
N20 Co6 2.140 . S
N20 C23 1.346 . S
N20 C24 1.345 . S
C21 C22 1.387 . S
C21 C25 1.391 . S
C22 C21 1.387 . S
C22 C23 1.369 . S
C22 H31 0.929 . S
C23 N20 1.346 . S
C23 C22 1.369 . S
C23 H26 0.928 . S
C24 N20 1.345 . S
C24 C25 1.371 . S
C24 H27 0.931 . S
C25 C21 1.391 . S
C25 C24 1.371 . S
C25 H32 0.930 . S
H26 C23 0.928 . S
H27 C24 0.931 . S
H28 C4 0.930 . S
H29 C1 0.930 1_655 S
H30 C10 0.930 . S
H31 C22 0.929 . S
H32 C25 0.930 . S
C33 C34 1.351 . S
C33 N36 1.368 . S
C33 H38 0.931 . S
C34 C33 1.351 . S
C34 N35 1.373 . S
C34 H62 0.930 . S
N35 C34 1.373 . S
N35 C37 1.340 . S
N36 C33 1.368 . S
N36 C37 1.321 . S
N36 Co39 2.135 . S
C37 N35 1.340 . S
C37 N36 1.321 . S
C37 H61 0.930 . S
H38 C33 0.931 . S
Co39 N36 2.135 . S
Co39 N42 2.121 . S
Co39 O47 2.055 . S
Co39 O50 2.039 . S
Co39 N53 2.140 . S
C40 O41 1.227 . S
C40 O50 1.265 . S
O41 C40 1.227 . S
N42 Co39 2.121 . S
N42 C44 1.375 . S
N42 C45 1.313 . S
C43 C44 1.338 . S
C43 N46 1.377 . S
C43 H63 0.930 . S
C44 N42 1.375 . S
C44 C43 1.338 . S
C44 H48 0.931 . S
C45 N42 1.313 . S
C45 N46 1.344 . S
C45 H49 0.930 . S
N46 C43 1.377 . S
N46 C45 1.344 . S
O47 Co39 2.055 . S
O47 C51 1.253 . S
H48 C44 0.931 . S
H49 C45 0.930 . S
O50 Co39 2.039 . S
O50 C40 1.265 . S
C51 O47 1.253 . S
C51 O52 1.227 . S
O52 C51 1.227 . S
N53 Co39 2.140 . S
N53 C56 1.346 . S
N53 C57 1.345 . S
C54 C55 1.387 . S
C54 C58 1.391 . S
C55 C54 1.387 . S
C55 C56 1.369 . S
C55 H64 0.929 . S
C56 N53 1.346 . S
C56 C55 1.369 . S
C56 H59 0.928 . S
C57 N53 1.345 . S
C57 C58 1.371 . S
C57 H60 0.931 . S
C58 C54 1.391 . S
C58 C57 1.371 . S
C58 H65 0.930 . S
H59 C56 0.928 . S
H60 C57 0.931 . S
H61 C37 0.930 . S
H62 C34 0.930 . S
H63 C43 0.930 . S
H64 C55 0.929 . S
H65 C58 0.930 . S
C66 C67 1.351 . S
C66 N69 1.368 . S
C66 H71 0.931 . S
C67 C66 1.351 . S
C67 N68 1.373 . S
C67 H95 0.930 . S
N68 C67 1.373 . S
N68 C70 1.340 . S
N69 C66 1.368 . S
N69 C70 1.321 . S
N69 Co72 2.135 . S
C70 N68 1.340 . S
C70 N69 1.321 . S
C70 H94 0.930 . S
H71 C66 0.931 . S
Co72 N69 2.135 . S
Co72 N75 2.121 . S
Co72 O80 2.055 . S
Co72 O83 2.039 . S
Co72 N86 2.140 . S
C73 O74 1.227 . S
C73 O83 1.265 . S
O74 C73 1.227 . S
N75 Co72 2.121 . S
N75 C77 1.375 . S
N75 C78 1.313 . S
C76 C77 1.338 . S
C76 N79 1.377 . S
C76 H96 0.930 . S
C77 N75 1.375 . S
C77 C76 1.338 . S
C77 H81 0.931 . S
C78 N75 1.313 . S
C78 N79 1.344 . S
C78 H82 0.930 . S
N79 C76 1.377 . S
N79 C78 1.344 . S
O80 Co72 2.055 . S
O80 C84 1.253 . S
H81 C77 0.931 . S
H82 C78 0.930 . S
O83 Co72 2.039 . S
O83 C73 1.265 . S
C84 O80 1.253 . S
C84 O85 1.227 . S
O85 C84 1.227 . S
N86 Co72 2.140 . S
N86 C89 1.346 . S
N86 C90 1.345 . S
C87 C88 1.387 . S
C87 C91 1.391 . S
C88 C87 1.387 . S
C88 C89 1.369 . S
C88 H97 0.929 . S
C89 N86 1.346 . S
C89 C88 1.369 . S
C89 H92 0.928 . S
C90 N86 1.345 . S
C90 C91 1.371 . S
C90 H93 0.931 . S
C91 C87 1.391 . S
C91 C90 1.371 . S
C91 H98 0.930 . S
H92 C89 0.928 . S
H93 C90 0.931 . S
H94 C70 0.930 . S
H95 C67 0.930 . S
H96 C76 0.930 . S
H97 C88 0.929 . S
H98 C91 0.930 . S
C99 C100 1.351 . S
C99 N102 1.368 . S
C99 H104 0.931 . S
C100 C99 1.351 . S
C100 N101 1.373 . S
C100 H128 0.930 1_556 S
N101 C100 1.373 . S
N101 C103 1.340 . S
N102 C99 1.368 . S
N102 C103 1.321 . S
N102 Co105 2.135 . S
C103 N101 1.340 . S
C103 N102 1.321 . S
C103 H127 0.930 . S
H104 C99 0.931 . S
Co105 N102 2.135 . S
Co105 N108 2.121 . S
Co105 O113 2.055 . S
Co105 O116 2.039 . S
Co105 N119 2.140 . S
C106 O107 1.227 . S
C106 O116 1.265 . S
O107 C106 1.227 . S
N108 Co105 2.121 . S
N108 C110 1.375 . S
N108 C111 1.313 . S
C109 C110 1.338 . S
C109 N112 1.377 . S
C109 H129 0.930 . S
C110 N108 1.375 . S
C110 C109 1.338 . S
C110 H114 0.931 . S
C111 N108 1.313 . S
C111 N112 1.344 . S
C111 H115 0.930 . S
N112 C109 1.377 . S
N112 C111 1.344 . S
O113 Co105 2.055 . S
O113 C117 1.253 . S
H114 C110 0.931 . S
H115 C111 0.930 . S
O116 Co105 2.039 . S
O116 C106 1.265 . S
C117 O113 1.253 . S
C117 O118 1.227 . S
O118 C117 1.227 . S
N119 Co105 2.140 . S
N119 C122 1.346 . S
N119 C123 1.345 . S
C120 C121 1.387 . S
C120 C124 1.391 . S
C121 C120 1.387 . S
C121 C122 1.369 . S
C121 H130 0.929 . S
C122 N119 1.346 . S
C122 C121 1.369 . S
C122 H125 0.928 . S
C123 N119 1.345 . S
C123 C124 1.371 . S
C123 H126 0.931 . S
C124 C120 1.391 . S
C124 C123 1.371 . S
C124 H131 0.930 . S
H125 C122 0.928 . S
H126 C123 0.931 . S
H127 C103 0.930 . S
H128 C100 0.930 1_554 S
H129 C109 0.930 . S
H130 C121 0.929 . S
H131 C124 0.930 . S
C132 C133 1.351 . S
C132 N135 1.368 . S
C132 H137 0.931 . S
C133 C132 1.351 . S
C133 N134 1.373 . S
C133 H161 0.930 . S
N134 C133 1.373 . S
N134 C136 1.340 . S
N135 C132 1.368 . S
N135 C136 1.321 . S
N135 Co138 2.135 . S
C136 N134 1.340 . S
C136 N135 1.321 . S
C136 H160 0.930 . S
H137 C132 0.931 . S
Co138 N135 2.135 . S
Co138 N141 2.121 . S
Co138 O146 2.055 . S
Co138 O149 2.039 . S
Co138 N152 2.140 . S
C139 O140 1.227 . S
C139 O149 1.265 . S
O140 C139 1.227 . S
N141 Co138 2.121 . S
N141 C143 1.375 . S
N141 C144 1.313 . S
C142 C143 1.338 . S
C142 N145 1.377 . S
C142 H162 0.930 . S
C143 N141 1.375 . S
C143 C142 1.338 . S
C143 H147 0.931 . S
C144 N141 1.313 . S
C144 N145 1.344 . S
C144 H148 0.930 . S
N145 C142 1.377 . S
N145 C144 1.344 . S
O146 Co138 2.055 . S
O146 C150 1.253 . S
H147 C143 0.931 . S
H148 C144 0.930 . S
O149 Co138 2.039 . S
O149 C139 1.265 . S
C150 O146 1.253 . S
C150 O151 1.227 . S
O151 C150 1.227 . S
N152 Co138 2.140 . S
N152 C155 1.346 . S
N152 C156 1.345 . S
C153 C154 1.387 . S
C153 C157 1.391 . S
C154 C153 1.387 . S
C154 C155 1.369 . S
C154 H163 0.929 . S
C155 N152 1.346 . S
C155 C154 1.369 . S
C155 H158 0.928 . S
C156 N152 1.345 . S
C156 C157 1.371 . S
C156 H159 0.931 . S
C157 C153 1.391 . S
C157 C156 1.371 . S
C157 H164 0.930 . S
H158 C155 0.928 . S
H159 C156 0.931 . S
H160 C136 0.930 . S
H161 C133 0.930 . S
H162 C142 0.930 . S
H163 C154 0.929 . S
H164 C157 0.930 . S
C165 C166 1.351 . S
C165 N168 1.368 . S
C165 H170 0.931 . S
C166 C165 1.351 . S
C166 N167 1.373 . S
C166 H194 0.930 . S
N167 C166 1.373 . S
N167 C169 1.340 . S
N168 C165 1.368 . S
N168 C169 1.321 . S
N168 Co171 2.135 . S
C169 N167 1.340 . S
C169 N168 1.321 . S
C169 H193 0.930 . S
H170 C165 0.931 . S
Co171 N168 2.135 . S
Co171 N174 2.121 . S
Co171 O179 2.055 . S
Co171 O182 2.039 . S
Co171 N185 2.140 . S
C172 O173 1.227 . S
C172 O182 1.265 . S
O173 C172 1.227 . S
N174 Co171 2.121 . S
N174 C176 1.375 . S
N174 C177 1.313 . S
C175 C176 1.338 . S
C175 N178 1.377 . S
C175 H195 0.930 . S
C176 N174 1.375 . S
C176 C175 1.338 . S
C176 H180 0.931 . S
C177 N174 1.313 . S
C177 N178 1.344 . S
C177 H181 0.930 . S
N178 C175 1.377 . S
N178 C177 1.344 . S
O179 Co171 2.055 . S
O179 C183 1.253 . S
H180 C176 0.931 . S
H181 C177 0.930 . S
O182 Co171 2.039 . S
O182 C172 1.265 . S
C183 O179 1.253 . S
C183 O184 1.227 . S
O184 C183 1.227 . S
N185 Co171 2.140 . S
N185 C188 1.346 . S
N185 C189 1.345 . S
C186 C187 1.387 . S
C186 C190 1.391 . S
C187 C186 1.387 . S
C187 C188 1.369 . S
C187 H196 0.929 . S
C188 N185 1.346 . S
C188 C187 1.369 . S
C188 H191 0.928 . S
C189 N185 1.345 . S
C189 C190 1.371 . S
C189 H192 0.931 . S
C190 C186 1.391 . S
C190 C189 1.371 . S
C190 H197 0.930 . S
H191 C188 0.928 . S
H192 C189 0.931 . S
H193 C169 0.930 . S
H194 C166 0.930 . S
H195 C175 0.930 . S
H196 C187 0.929 . S
H197 C190 0.930 . S
C198 C199 1.351 . S
C198 N201 1.368 . S
C198 H203 0.931 . S
C199 C198 1.351 . S
C199 N200 1.373 . S
C199 H227 0.930 . S
N200 C199 1.373 . S
N200 C202 1.340 . S
N201 C198 1.368 . S
N201 C202 1.321 . S
N201 Co204 2.135 . S
C202 N200 1.340 . S
C202 N201 1.321 . S
C202 H226 0.930 . S
H203 C198 0.931 . S
Co204 N201 2.135 . S
Co204 N207 2.121 . S
Co204 O212 2.055 . S
Co204 O215 2.039 . S
Co204 N218 2.140 . S
C205 O206 1.227 . S
C205 O215 1.265 . S
O206 C205 1.227 . S
N207 Co204 2.121 . S
N207 C209 1.375 . S
N207 C210 1.313 . S
C208 C209 1.338 . S
C208 N211 1.377 . S
C208 H228 0.930 . S
C209 N207 1.375 . S
C209 C208 1.338 . S
C209 H213 0.931 . S
C210 N207 1.313 . S
C210 N211 1.344 . S
C210 H214 0.930 . S
N211 C208 1.377 . S
N211 C210 1.344 . S
O212 Co204 2.055 . S
O212 C216 1.253 . S
H213 C209 0.931 . S
H214 C210 0.930 . S
O215 Co204 2.039 . S
O215 C205 1.265 . S
C216 O212 1.253 . S
C216 O217 1.227 . S
O217 C216 1.227 . S
N218 Co204 2.140 . S
N218 C221 1.346 . S
N218 C222 1.345 . S
C219 C220 1.387 . S
C219 C223 1.391 . S
C220 C219 1.387 . S
C220 C221 1.369 . S
C220 H229 0.929 . S
C221 N218 1.346 . S
C221 C220 1.369 . S
C221 H224 0.928 . S
C222 N218 1.345 . S
C222 C223 1.371 . S
C222 H225 0.931 . S
C223 C219 1.391 . S
C223 C222 1.371 . S
C223 H230 0.930 . S
H224 C221 0.928 . S
H225 C222 0.931 . S
H226 C202 0.930 . S
H227 C199 0.930 . S
H228 C208 0.930 . S
H229 C220 0.929 . S
H230 C223 0.930 . S
C231 C232 1.351 . S
C231 N234 1.368 . S
C231 H236 0.931 . S
C232 C231 1.351 . S
C232 N233 1.373 . S
C232 H260 0.930 . S
N233 C232 1.373 . S
N233 C235 1.340 . S
N234 C231 1.368 . S
N234 C235 1.321 . S
N234 Co237 2.135 . S
C235 N233 1.340 . S
C235 N234 1.321 . S
C235 H259 0.930 . S
H236 C231 0.931 . S
Co237 N234 2.135 . S
Co237 N240 2.121 . S
Co237 O245 2.055 . S
Co237 O248 2.039 . S
Co237 N251 2.140 . S
C238 O239 1.227 . S
C238 O248 1.265 . S
O239 C238 1.227 . S
N240 Co237 2.121 . S
N240 C242 1.375 . S
N240 C243 1.313 . S
C241 C242 1.338 . S
C241 N244 1.377 . S
C241 H261 0.930 . S
C242 N240 1.375 . S
C242 C241 1.338 . S
C242 H246 0.931 . S
C243 N240 1.313 . S
C243 N244 1.344 . S
C243 H247 0.930 . S
N244 C241 1.377 . S
N244 C243 1.344 . S
O245 Co237 2.055 . S
O245 C249 1.253 . S
H246 C242 0.931 . S
H247 C243 0.930 . S
O248 Co237 2.039 . S
O248 C238 1.265 . S
C249 O245 1.253 . S
C249 O250 1.227 . S
O250 C249 1.227 . S
N251 Co237 2.140 . S
N251 C254 1.346 . S
N251 C255 1.345 . S
C252 C253 1.387 . S
C252 C256 1.391 . S
C253 C252 1.387 . S
C253 C254 1.369 . S
C253 H262 0.929 . S
C254 N251 1.346 . S
C254 C253 1.369 . S
C254 H257 0.928 . S
C255 N251 1.345 . S
C255 C256 1.371 . S
C255 H258 0.931 . S
C256 C252 1.391 . S
C256 C255 1.371 . S
C256 H263 0.930 . S
H257 C254 0.928 . S
H258 C255 0.931 . S
H259 C235 0.930 . S
H260 C232 0.930 . S
H261 C241 0.930 . S
H262 C253 0.929 . S
H263 C256 0.930 . S
C264 C265 1.351 . S
C264 N267 1.368 . S
C264 H269 0.931 . S
C265 C264 1.351 . S
C265 N266 1.373 . S
C265 H293 0.930 . S
N266 C265 1.373 . S
N266 C268 1.340 . S
N267 C264 1.368 . S
N267 C268 1.321 . S
N267 Co270 2.135 . S
C268 N266 1.340 . S
C268 N267 1.321 . S
C268 H292 0.930 . S
H269 C264 0.931 . S
Co270 N267 2.135 . S
Co270 N273 2.121 . S
Co270 O278 2.055 . S
Co270 O281 2.039 . S
Co270 N284 2.140 . S
C271 O272 1.227 . S
C271 O281 1.265 . S
O272 C271 1.227 . S
N273 Co270 2.121 . S
N273 C275 1.375 . S
N273 C276 1.313 . S
C274 C275 1.338 . S
C274 N277 1.377 . S
C274 H294 0.930 . S
C275 N273 1.375 . S
C275 C274 1.338 . S
C275 H279 0.931 . S
C276 N273 1.313 . S
C276 N277 1.344 . S
C276 H280 0.930 . S
N277 C274 1.377 . S
N277 C276 1.344 . S
O278 Co270 2.055 . S
O278 C282 1.253 . S
H279 C275 0.931 . S
H280 C276 0.930 . S
O281 Co270 2.039 . S
O281 C271 1.265 . S
C282 O278 1.253 . S
C282 O283 1.227 . S
O283 C282 1.227 . S
N284 Co270 2.140 . S
N284 C287 1.346 . S
N284 C288 1.345 . S
C285 C286 1.387 . S
C285 C289 1.391 . S
C286 C285 1.387 . S
C286 C287 1.369 . S
C286 H295 0.929 . S
C287 N284 1.346 . S
C287 C286 1.369 . S
C287 H290 0.928 . S
C288 N284 1.345 . S
C288 C289 1.371 . S
C288 H291 0.931 . S
C289 C285 1.391 . S
C289 C288 1.371 . S
C289 H296 0.930 . S
H290 C287 0.928 . S
H291 C288 0.931 . S
H292 C268 0.930 . S
H293 C265 0.930 . S
H294 C274 0.930 . S
H295 C286 0.929 . S
H296 C289 0.930 . S
C297 C298 1.351 . S
C297 N300 1.368 . S
C297 H302 0.931 . S
C298 C297 1.351 . S
C298 N299 1.373 . S
C298 H326 0.930 . S
N299 C298 1.373 . S
N299 C301 1.340 . S
N300 C297 1.368 . S
N300 C301 1.321 . S
N300 Co303 2.135 . S
C301 N299 1.340 . S
C301 N300 1.321 . S
C301 H325 0.930 . S
H302 C297 0.931 . S
Co303 N300 2.135 . S
Co303 N306 2.121 . S
Co303 O311 2.055 . S
Co303 O314 2.039 . S
Co303 N317 2.140 . S
C304 O305 1.227 . S
C304 O314 1.265 . S
O305 C304 1.227 . S
N306 Co303 2.121 . S
N306 C308 1.375 . S
N306 C309 1.313 . S
C307 C308 1.338 . S
C307 N310 1.377 . S
C307 H327 0.930 . S
C308 N306 1.375 . S
C308 C307 1.338 . S
C308 H312 0.931 . S
C309 N306 1.313 . S
C309 N310 1.344 . S
C309 H313 0.930 . S
N310 C307 1.377 . S
N310 C309 1.344 . S
O311 Co303 2.055 . S
O311 C315 1.253 . S
H312 C308 0.931 . S
H313 C309 0.930 . S
O314 Co303 2.039 . S
O314 C304 1.265 . S
C315 O311 1.253 . S
C315 O316 1.227 . S
O316 C315 1.227 . S
N317 Co303 2.140 . S
N317 C320 1.346 . S
N317 C321 1.345 . S
C318 C319 1.387 . S
C318 C322 1.391 . S
C319 C318 1.387 . S
C319 C320 1.369 . S
C319 H328 0.929 . S
C320 N317 1.346 . S
C320 C319 1.369 . S
C320 H323 0.928 . S
C321 N317 1.345 . S
C321 C322 1.371 . S
C321 H324 0.931 . S
C322 C318 1.391 . S
C322 C321 1.371 . S
C322 H329 0.930 . S
H323 C320 0.928 . S
H324 C321 0.931 . S
H325 C301 0.930 . S
H326 C298 0.930 . S
H327 C307 0.930 . S
H328 C319 0.929 . S
H329 C322 0.930 . S
C330 C331 1.351 . S
C330 N333 1.368 . S
C330 H335 0.931 . S
C331 C330 1.351 . S
C331 N332 1.373 . S
C331 H359 0.930 . S
N332 C331 1.373 . S
N332 C334 1.340 . S
N333 C330 1.368 . S
N333 C334 1.321 . S
N333 Co336 2.135 . S
C334 N332 1.340 . S
C334 N333 1.321 . S
C334 H358 0.930 . S
H335 C330 0.931 . S
Co336 N333 2.135 . S
Co336 N339 2.121 . S
Co336 O344 2.055 . S
Co336 O347 2.039 . S
Co336 N350 2.140 . S
C337 O338 1.227 . S
C337 O347 1.265 . S
O338 C337 1.227 . S
N339 Co336 2.121 . S
N339 C341 1.375 . S
N339 C342 1.313 . S
C340 C341 1.338 . S
C340 N343 1.377 . S
C340 H360 0.930 . S
C341 N339 1.375 . S
C341 C340 1.338 . S
C341 H345 0.931 . S
C342 N339 1.313 . S
C342 N343 1.344 . S
C342 H346 0.930 . S
N343 C340 1.377 . S
N343 C342 1.344 . S
O344 Co336 2.055 . S
O344 C348 1.253 . S
H345 C341 0.931 . S
H346 C342 0.930 . S
O347 Co336 2.039 . S
O347 C337 1.265 . S
C348 O344 1.253 . S
C348 O349 1.227 . S
O349 C348 1.227 . S
N350 Co336 2.140 . S
N350 C353 1.346 . S
N350 C354 1.345 . S
C351 C352 1.387 . S
C351 C355 1.391 . S
C352 C351 1.387 . S
C352 C353 1.369 . S
C352 H361 0.929 . S
C353 N350 1.346 . S
C353 C352 1.369 . S
C353 H356 0.928 . S
C354 N350 1.345 . S
C354 C355 1.371 . S
C354 H357 0.931 . S
C355 C351 1.391 . S
C355 C354 1.371 . S
C355 H362 0.930 . S
H356 C353 0.928 . S
H357 C354 0.931 . S
H358 C334 0.930 . S
H359 C331 0.930 . S
H360 C340 0.930 . S
H361 C352 0.929 . S
H362 C355 0.930 . S
C363 C364 1.351 . S
C363 N366 1.368 . S
C363 H368 0.931 . S
C364 C363 1.351 . S
C364 N365 1.373 . S
C364 H392 0.930 . S
N365 C364 1.373 . S
N365 C367 1.340 . S
N366 C363 1.368 . S
N366 C367 1.321 . S
N366 Co369 2.135 . S
C367 N365 1.340 . S
C367 N366 1.321 . S
C367 H391 0.930 . S
H368 C363 0.931 . S
Co369 N366 2.135 . S
Co369 N372 2.121 . S
Co369 O377 2.055 . S
Co369 O380 2.039 . S
Co369 N383 2.140 . S
C370 O371 1.227 . S
C370 O380 1.265 . S
O371 C370 1.227 . S
N372 Co369 2.121 . S
N372 C374 1.375 . S
N372 C375 1.313 . S
C373 C374 1.338 . S
C373 N376 1.377 . S
C373 H393 0.930 . S
C374 N372 1.375 . S
C374 C373 1.338 . S
C374 H378 0.931 . S
C375 N372 1.313 . S
C375 N376 1.344 . S
C375 H379 0.930 . S
N376 C373 1.377 . S
N376 C375 1.344 . S
O377 Co369 2.055 . S
O377 C381 1.253 . S
H378 C374 0.931 . S
H379 C375 0.930 . S
O380 Co369 2.039 . S
O380 C370 1.265 . S
C381 O377 1.253 . S
C381 O382 1.227 . S
O382 C381 1.227 . S
N383 Co369 2.140 . S
N383 C386 1.346 . S
N383 C387 1.345 . S
C384 C385 1.387 . S
C384 C388 1.391 . S
C385 C384 1.387 . S
C385 C386 1.369 . S
C385 H394 0.929 . S
C386 N383 1.346 . S
C386 C385 1.369 . S
C386 H389 0.928 . S
C387 N383 1.345 . S
C387 C388 1.371 . S
C387 H390 0.931 . S
C388 C384 1.391 . S
C388 C387 1.371 . S
C388 H395 0.930 . S
H389 C386 0.928 . S
H390 C387 0.931 . S
H391 C367 0.930 . S
H392 C364 0.930 . S
H393 C373 0.930 . S
H394 C385 0.929 . S
H395 C388 0.930 . S
C396 C397 1.351 . S
C396 N399 1.368 . S
C396 H401 0.931 . S
C397 C396 1.351 . S
C397 N398 1.373 . S
C397 H425 0.930 . S
N398 C397 1.373 . S
N398 C400 1.340 . S
N399 C396 1.368 . S
N399 C400 1.321 . S
N399 Co402 2.135 . S
C400 N398 1.340 . S
C400 N399 1.321 . S
C400 H424 0.930 . S
H401 C396 0.931 . S
Co402 N399 2.135 . S
Co402 N405 2.121 . S
Co402 O410 2.055 . S
Co402 O413 2.039 . S
Co402 N416 2.140 . S
C403 O404 1.227 . S
C403 O413 1.265 . S
O404 C403 1.227 . S
N405 Co402 2.121 . S
N405 C407 1.375 . S
N405 C408 1.313 . S
C406 C407 1.338 . S
C406 N409 1.377 . S
C406 H426 0.930 . S
C407 N405 1.375 . S
C407 C406 1.338 . S
C407 H411 0.931 . S
C408 N405 1.313 . S
C408 N409 1.344 . S
C408 H412 0.930 . S
N409 C406 1.377 . S
N409 C408 1.344 . S
O410 Co402 2.055 . S
O410 C414 1.253 . S
H411 C407 0.931 . S
H412 C408 0.930 . S
O413 Co402 2.039 . S
O413 C403 1.265 . S
C414 O410 1.253 . S
C414 O415 1.227 . S
O415 C414 1.227 . S
N416 Co402 2.140 . S
N416 C419 1.346 . S
N416 C420 1.345 . S
C417 C418 1.387 . S
C417 C421 1.391 . S
C418 C417 1.387 . S
C418 C419 1.369 . S
C418 H427 0.929 . S
C419 N416 1.346 . S
C419 C418 1.369 . S
C419 H422 0.928 . S
C420 N416 1.345 . S
C420 C421 1.371 . S
C420 H423 0.931 . S
C421 C417 1.391 . S
C421 C420 1.371 . S
C421 H428 0.930 . S
H422 C419 0.928 . S
H423 C420 0.931 . S
H424 C400 0.930 . S
H425 C397 0.930 . S
H426 C406 0.930 . S
H427 C418 0.929 . S
H428 C421 0.930 . S
C429 C430 1.351 . S
C429 N432 1.368 . S
C429 H434 0.931 . S
C430 C429 1.351 . S
C430 N431 1.373 . S
C430 H458 0.930 . S
N431 C430 1.373 . S
N431 C433 1.340 . S
N432 C429 1.368 . S
N432 C433 1.321 . S
N432 Co435 2.135 . S
C433 N431 1.340 . S
C433 N432 1.321 . S
C433 H457 0.930 . S
H434 C429 0.931 . S
Co435 N432 2.135 . S
Co435 N438 2.121 . S
Co435 O443 2.055 . S
Co435 O446 2.039 . S
Co435 N449 2.140 . S
C436 O437 1.227 . S
C436 O446 1.265 . S
O437 C436 1.227 . S
N438 Co435 2.121 . S
N438 C440 1.375 . S
N438 C441 1.313 . S
C439 C440 1.338 . S
C439 N442 1.377 . S
C439 H459 0.930 . S
C440 N438 1.375 . S
C440 C439 1.338 . S
C440 H444 0.931 . S
C441 N438 1.313 . S
C441 N442 1.344 . S
C441 H445 0.930 . S
N442 C439 1.377 . S
N442 C441 1.344 . S
O443 Co435 2.055 . S
O443 C447 1.253 . S
H444 C440 0.931 . S
H445 C441 0.930 . S
O446 Co435 2.039 . S
O446 C436 1.265 . S
C447 O443 1.253 . S
C447 O448 1.227 . S
O448 C447 1.227 . S
N449 Co435 2.140 . S
N449 C452 1.346 . S
N449 C453 1.345 . S
C450 C451 1.387 . S
C450 C454 1.391 . S
C451 C450 1.387 . S
C451 C452 1.369 . S
C451 H460 0.929 . S
C452 N449 1.346 . S
C452 C451 1.369 . S
C452 H455 0.928 . S
C453 N449 1.345 . S
C453 C454 1.371 . S
C453 H456 0.931 . S
C454 C450 1.391 . S
C454 C453 1.371 . S
C454 H461 0.930 . S
H455 C452 0.928 . S
H456 C453 0.931 . S
H457 C433 0.930 . S
H458 C430 0.930 . S
H459 C439 0.930 . S
H460 C451 0.929 . S
H461 C454 0.930 . S
C462 C463 1.351 . S
C462 N465 1.368 . S
C462 H467 0.931 . S
C463 C462 1.351 . S
C463 N464 1.373 . S
C463 H491 0.930 . S
N464 C463 1.373 . S
N464 C466 1.340 . S
N465 C462 1.368 . S
N465 C466 1.321 . S
N465 Co468 2.135 . S
C466 N464 1.340 . S
C466 N465 1.321 . S
C466 H490 0.930 . S
H467 C462 0.931 . S
Co468 N465 2.135 . S
Co468 N471 2.121 . S
Co468 O476 2.055 . S
Co468 O479 2.039 . S
Co468 N482 2.140 . S
C469 O470 1.227 . S
C469 O479 1.265 . S
O470 C469 1.227 . S
N471 Co468 2.121 . S
N471 C473 1.375 . S
N471 C474 1.313 . S
C472 C473 1.338 . S
C472 N475 1.377 . S
C472 H492 0.930 . S
C473 N471 1.375 . S
C473 C472 1.338 . S
C473 H477 0.931 . S
C474 N471 1.313 . S
C474 N475 1.344 . S
C474 H478 0.930 . S
N475 C472 1.377 . S
N475 C474 1.344 . S
O476 Co468 2.055 . S
O476 C480 1.253 . S
H477 C473 0.931 . S
H478 C474 0.930 . S
O479 Co468 2.039 . S
O479 C469 1.265 . S
C480 O476 1.253 . S
C480 O481 1.227 . S
O481 C480 1.227 . S
N482 Co468 2.140 . S
N482 C485 1.346 . S
N482 C486 1.345 . S
C483 C484 1.387 . S
C483 C487 1.391 . S
C484 C483 1.387 . S
C484 C485 1.369 . S
C484 H493 0.929 . S
C485 N482 1.346 . S
C485 C484 1.369 . S
C485 H488 0.928 . S
C486 N482 1.345 . S
C486 C487 1.371 . S
C486 H489 0.931 . S
C487 C483 1.391 . S
C487 C486 1.371 . S
C487 H494 0.930 . S
H488 C485 0.928 . S
H489 C486 0.931 . S
H490 C466 0.930 . S
H491 C463 0.930 . S
H492 C472 0.930 . S
H493 C484 0.929 . S
H494 C487 0.930 . S
C495 C496 1.351 . S
C495 N498 1.368 . S
C495 H500 0.931 . S
C496 C495 1.351 . S
C496 N497 1.373 . S
C496 H524 0.930 . S
N497 C496 1.373 . S
N497 C499 1.340 . S
N498 C495 1.368 . S
N498 C499 1.321 . S
N498 Co501 2.135 . S
C499 N497 1.340 . S
C499 N498 1.321 . S
C499 H523 0.930 . S
H500 C495 0.931 . S
Co501 N498 2.135 . S
Co501 N504 2.121 . S
Co501 O509 2.055 . S
Co501 O512 2.039 . S
Co501 N515 2.140 . S
C502 O503 1.227 . S
C502 O512 1.265 . S
O503 C502 1.227 . S
N504 Co501 2.121 . S
N504 C506 1.375 . S
N504 C507 1.313 . S
C505 C506 1.338 . S
C505 N508 1.377 . S
C505 H525 0.930 . S
C506 N504 1.375 . S
C506 C505 1.338 . S
C506 H510 0.931 . S
C507 N504 1.313 . S
C507 N508 1.344 . S
C507 H511 0.930 . S
N508 C505 1.377 . S
N508 C507 1.344 . S
O509 Co501 2.055 . S
O509 C513 1.253 . S
H510 C506 0.931 . S
H511 C507 0.930 . S
O512 Co501 2.039 . S
O512 C502 1.265 . S
C513 O509 1.253 . S
C513 O514 1.227 . S
O514 C513 1.227 . S
N515 Co501 2.140 . S
N515 C518 1.346 . S
N515 C519 1.345 . S
C516 C517 1.387 . S
C516 C520 1.391 . S
C517 C516 1.387 . S
C517 C518 1.369 . S
C517 H526 0.929 . S
C518 N515 1.346 . S
C518 C517 1.369 . S
C518 H521 0.928 . S
C519 N515 1.345 . S
C519 C520 1.371 . S
C519 H522 0.931 . S
C520 C516 1.391 . S
C520 C519 1.371 . S
C520 H527 0.930 . S
H521 C518 0.928 . S
H522 C519 0.931 . S
H523 C499 0.930 . S
H524 C496 0.930 . S
H525 C505 0.930 . S
H526 C517 0.929 . S
H527 C520 0.930 . S
C528 C529 1.369 . S
C528 C530 1.419 . S
C528 H532 0.930 . S
C529 C528 1.369 . S
C529 C538 1.429 . S
C530 C528 1.419 . S
C530 C531 1.363 . S
C530 H533 0.929 . S
C531 C530 1.363 . S
C531 C537 1.428 . S
H532 C528 0.930 . S
H533 C530 0.929 . S
S534 N535 1.613 . S
S534 N536 1.610 . S
N535 S534 1.613 . S
N535 C538 1.350 . S
N536 S534 1.610 . S
N536 C537 1.351 . S
C537 C531 1.428 . S
C537 N536 1.351 . S
C537 C538 1.434 . S
C538 C529 1.429 . S
C538 N535 1.350 . S
C538 C537 1.434 . S
C539 C540 1.369 . S
C539 C541 1.419 1_655 S
C539 H543 0.930 . S
C540 C539 1.369 . S
C540 C549 1.429 1_655 S
C541 C539 1.419 1_455 S
C541 C542 1.358 1_545 S
C541 H544 0.929 . S
C542 C541 1.358 1_565 S
C542 C548 1.428 . S
H543 C539 0.930 . S
H544 C541 0.929 . S
S545 N546 1.613 1_565 S
S545 N547 1.610 . S
N546 S545 1.613 1_545 S
N546 C549 1.350 . S
N547 S545 1.610 . S
N547 C548 1.353 . S
C548 C542 1.428 . S
C548 N547 1.353 . S
C548 C549 1.431 1_565 S
C549 C540 1.429 1_455 S
C549 N546 1.350 . S
C549 C548 1.431 1_545 S
C550 C551 1.369 . S
C550 C552 1.419 . S
C550 H554 0.930 . S
C551 C550 1.369 . S
C551 C560 1.429 . S
C552 C550 1.419 . S
C552 C553 1.363 . S
C552 H555 0.929 . S
C553 C552 1.363 . S
C553 C559 1.428 . S
H554 C550 0.930 . S
H555 C552 0.929 . S
S556 N557 1.613 . S
S556 N558 1.610 . S
N557 S556 1.613 . S
N557 C560 1.350 . S
N558 S556 1.610 . S
N558 C559 1.351 . S
C559 C553 1.428 . S
C559 N558 1.351 . S
C559 C560 1.434 . S
C560 C551 1.429 . S
C560 N557 1.350 . S
C560 C559 1.434 . S
C561 C562 1.369 1_545 S
C561 C563 1.419 1_546 S
C561 H565 0.930 . S
C562 C561 1.369 1_565 S
C562 C571 1.429 1_556 S
C563 C561 1.419 1_564 S
C563 C564 1.363 . S
C563 H566 0.929 . S
C564 C563 1.363 . S
C564 C570 1.428 . S
H565 C561 0.930 . S
H566 C563 0.929 . S
S567 N568 1.613 . S
S567 N569 1.610 . S
N568 S567 1.613 . S
N568 C571 1.350 . S
N569 S567 1.610 . S
N569 C570 1.351 . S
C570 C564 1.428 . S
C570 N569 1.351 . S
C570 C571 1.434 . S
C571 C562 1.429 1_554 S
C571 N568 1.350 . S
C571 C570 1.434 . S
C572 C573 1.369 . S
C572 C574 1.419 . S
C572 H576 0.930 . S
C573 C572 1.369 . S
C573 C582 1.429 . S
C574 C572 1.419 . S
C574 C575 1.363 . S
C574 H577 0.929 . S
C575 C574 1.363 . S
C575 C581 1.428 . S
H576 C572 0.930 . S
H577 C574 0.929 . S
S578 N579 1.613 . S
S578 N580 1.610 . S
N579 S578 1.613 . S
N579 C582 1.350 . S
N580 S578 1.610 . S
N580 C581 1.351 . S
C581 C575 1.428 . S
C581 N580 1.351 . S
C581 C582 1.434 . S
C582 C573 1.429 . S
C582 N579 1.350 . S
C582 C581 1.434 . S
C583 C584 1.369 . S
C583 C585 1.435 . S
C583 H587 0.930 . S
C584 C583 1.369 . S
C584 C593 1.429 . S
C585 C583 1.435 . S
C585 C586 1.354 1_565 S
C585 H588 0.923 1_565 S
C586 C585 1.354 1_545 S
C586 C592 1.428 1_545 S
H587 C583 0.930 . S
H588 C585 0.923 1_545 S
S589 N590 1.613 . S
S589 N591 1.610 1_565 S
N590 S589 1.613 . S
N590 C593 1.350 . S
N591 S589 1.610 1_545 S
N591 C592 1.351 1_545 S
C592 C586 1.428 1_565 S
C592 N591 1.351 1_565 S
C592 C593 1.434 . S
C593 C584 1.429 . S
C593 N590 1.350 . S
C593 C592 1.434 . S
C594 C595 1.369 . S
C594 C596 1.419 . S
C594 H598 0.930 . S
C595 C594 1.369 . S
C595 C604 1.429 . S
C596 C594 1.419 . S
C596 C597 1.363 . S
C596 H599 0.929 . S
C597 C596 1.363 . S
C597 C603 1.428 . S
H598 C594 0.930 . S
H599 C596 0.929 . S
S600 N601 1.613 . S
S600 N602 1.610 . S
N601 S600 1.613 . S
N601 C604 1.350 . S
N602 S600 1.610 . S
N602 C603 1.351 . S
C603 C597 1.428 . S
C603 N602 1.351 . S
C603 C604 1.434 . S
C604 C595 1.429 . S
C604 N601 1.350 . S
C604 C603 1.434 . S
C605 C606 1.369 1_556 S
C605 C607 1.419 1_445 S
C605 H609 0.930 . S
C606 C605 1.369 1_554 S
C606 C615 1.429 1_455 S
C607 C605 1.419 1_665 S
C607 C608 1.363 . S
C607 H610 0.940 . S
C608 C607 1.363 . S
C608 C614 1.423 1_566 S
H609 C605 0.930 . S
H610 C607 0.940 . S
S611 N612 1.613 . S
S611 N613 1.610 . S
N612 S611 1.613 . S
N612 C615 1.350 . S
N613 S611 1.610 . S
N613 C614 1.354 . S
C614 C608 1.423 1_544 S
C614 N613 1.354 . S
C614 C615 1.437 . S
C615 C606 1.429 1_655 S
C615 N612 1.350 . S
C615 C614 1.437 . S
C616 C617 1.369 . S
C616 C618 1.419 . S
C616 H620 0.930 . S
C617 C616 1.369 . S
C617 C626 1.429 . S
C618 C616 1.419 . S
C618 C619 1.363 . S
C618 H621 0.929 . S
C619 C618 1.363 . S
C619 C625 1.428 . S
H620 C616 0.930 . S
H621 C618 0.929 . S
S622 N623 1.613 . S
S622 N624 1.610 . S
N623 S622 1.613 . S
N623 C626 1.350 . S
N624 S622 1.610 . S
N624 C625 1.351 . S
C625 C619 1.428 . S
C625 N624 1.351 . S
C625 C626 1.434 . S
C626 C617 1.429 . S
C626 N623 1.350 . S
C626 C625 1.434 . S
C627 C628 1.368 1_554 S
C627 C629 1.420 . S
C627 H631 0.929 1_554 S
C628 C627 1.368 1_556 S
C628 C637 1.429 1_556 S
C629 C627 1.420 . S
C629 C630 1.363 . S
C629 H632 0.929 . S
C630 C629 1.363 . S
C630 C636 1.420 1_455 S
H631 C627 0.929 1_556 S
H632 C629 0.929 . S
S633 N634 1.613 1_655 S
S633 N635 1.610 . S
N634 S633 1.613 1_455 S
N634 C637 1.350 . S
N635 S633 1.610 . S
N635 C636 1.372 . S
C636 C630 1.420 1_655 S
C636 N635 1.372 . S
C636 C637 1.421 1_655 S
C637 C628 1.429 1_554 S
C637 N634 1.350 . S
C637 C636 1.421 1_455 S
C638 C639 1.369 . S
C638 C640 1.419 . S
C638 H642 0.930 . S
C639 C638 1.369 . S
C639 C648 1.429 . S
C640 C638 1.419 . S
C640 C641 1.363 . S
C640 H643 0.929 . S
C641 C640 1.363 . S
C641 C647 1.428 . S
H642 C638 0.930 . S
H643 C640 0.929 . S
S644 N645 1.613 . S
S644 N646 1.610 . S
N645 S644 1.613 . S
N645 C648 1.350 . S
N646 S644 1.610 . S
N646 C647 1.351 . S
C647 C641 1.428 . S
C647 N646 1.351 . S
C647 C648 1.434 . S
C648 C639 1.429 . S
C648 N645 1.350 . S
C648 C647 1.434 . S
C649 C650 1.369 . S
C649 C651 1.419 1_655 S
C649 H653 0.930 . S
C650 C649 1.369 . S
C650 C659 1.429 . S
C651 C649 1.419 1_455 S
C651 C652 1.363 . S
C651 H654 0.929 . S
C652 C651 1.363 . S
C652 C658 1.428 1_455 S
H653 C649 0.930 . S
H654 C651 0.929 . S
S655 N656 1.613 . S
S655 N657 1.610 . S
N656 S655 1.613 . S
N656 C659 1.350 . S
N657 S655 1.610 . S
N657 C658 1.351 . S
C658 C652 1.428 1_655 S
C658 N657 1.351 . S
C658 C659 1.434 . S
C659 C650 1.429 . S
C659 N656 1.350 . S
C659 C658 1.434 . S
C660 C661 1.369 1_554 S
C660 C662 1.419 . S
C660 H664 0.930 . S
C661 C660 1.369 1_556 S
C661 C670 1.429 . S
C662 C660 1.419 . S
C662 C663 1.363 . S
C662 H665 0.929 . S
C663 C662 1.363 . S
C663 C669 1.428 1_554 S
H664 C660 0.930 . S
H665 C662 0.929 . S
S666 N667 1.613 . S
S666 N668 1.610 . S
N667 S666 1.613 . S
N667 C670 1.350 . S
N668 S666 1.610 . S
N668 C669 1.351 . S
C669 C663 1.428 1_556 S
C669 N668 1.351 . S
C669 C670 1.434 . S
C670 C661 1.429 . S
C670 N667 1.350 . S
C670 C669 1.434 . S
C671 C672 1.369 . S
C671 C673 1.419 . S
C671 H675 0.930 . S
C672 C671 1.369 . S
C672 C681 1.429 . S
C673 C671 1.419 . S
C673 C674 1.363 . S
C673 H676 0.929 . S
C674 C673 1.363 . S
C674 C680 1.428 . S
H675 C671 0.930 . S
H676 C673 0.929 . S
S677 N678 1.613 . S
S677 N679 1.610 . S
N678 S677 1.613 . S
N678 C681 1.350 . S
N679 S677 1.610 . S
N679 C680 1.351 . S
C680 C674 1.428 . S
C680 N679 1.351 . S
C680 C681 1.434 . S
C681 C672 1.429 . S
C681 N678 1.350 . S
C681 C680 1.434 . S
C682 C683 1.369 . S
C682 C684 1.419 . S
C682 H686 0.930 . S
C683 C682 1.369 . S
C683 C692 1.429 . S
C684 C682 1.419 . S
C684 C685 1.363 . S
C684 H687 0.929 . S
C685 C684 1.363 . S
C685 C691 1.428 . S
H686 C682 0.930 . S
H687 C684 0.929 . S
S688 N689 1.613 . S
S688 N690 1.610 . S
N689 S688 1.613 . S
N689 C692 1.350 . S
N690 S688 1.610 . S
N690 C691 1.351 . S
C691 C685 1.428 . S
C691 N690 1.351 . S
C691 C692 1.434 . S
C692 C683 1.429 . S
C692 N689 1.350 . S
C692 C691 1.434 . S
C693 C694 1.369 . S
C693 C695 1.419 . S
C693 H697 0.930 . S
C694 C693 1.369 . S
C694 C703 1.429 . S
C695 C693 1.419 . S
C695 C696 1.363 . S
C695 H698 0.929 . S
C696 C695 1.363 . S
C696 C702 1.428 . S
H697 C693 0.930 . S
H698 C695 0.929 . S
S699 N700 1.613 . S
S699 N701 1.610 . S
N700 S699 1.613 . S
N700 C703 1.350 . S
N701 S699 1.610 . S
N701 C702 1.351 . S
C702 C696 1.428 . S
C702 N701 1.351 . S
C702 C703 1.434 . S
C703 C694 1.429 . S
C703 N700 1.350 . S
C703 C702 1.434 . S
C704 C705 1.369 . S
C704 C706 1.419 1_545 S
C704 H708 0.930 . S
C705 C704 1.369 . S
C705 C714 1.429 . S
C706 C704 1.419 1_565 S
C706 C707 1.363 . S
C706 H709 0.929 . S
C707 C706 1.363 . S
C707 C713 1.428 . S
H708 C704 0.930 . S
H709 C706 0.929 . S
S710 N711 1.613 1_565 S
S710 N712 1.610 . S
N711 S710 1.613 1_545 S
N711 C714 1.350 . S
N712 S710 1.610 . S
N712 C713 1.351 . S
C713 C707 1.428 . S
C713 N712 1.351 . S
C713 C714 1.434 1_565 S
C714 C705 1.429 . S
C714 N711 1.350 . S
C714 C713 1.434 1_545 S
C715 C716 1.369 . S
C715 C717 1.419 . S
C715 H719 0.930 . S
C716 C715 1.369 . S
C716 C725 1.429 . S
C717 C715 1.419 . S
C717 C718 1.363 . S
C717 H720 0.929 . S
C718 C717 1.363 . S
C718 C724 1.428 . S
H719 C715 0.930 . S
H720 C717 0.929 . S
S721 N722 1.613 . S
S721 N723 1.610 . S
N722 S721 1.613 . S
N722 C725 1.350 . S
N723 S721 1.610 . S
N723 C724 1.351 . S
C724 C718 1.428 . S
C724 N723 1.351 . S
C724 C725 1.434 . S
C725 C716 1.429 . S
C725 N722 1.350 . S
C725 C724 1.434 . S
C726 C727 1.369 . S
C726 C728 1.419 . S
C726 H730 0.930 . S
C727 C726 1.369 . S
C727 C736 1.429 . S
C728 C726 1.419 . S
C728 C729 1.363 1_565 S
C728 H731 0.929 . S
C729 C728 1.363 1_545 S
C729 C735 1.428 . S
H730 C726 0.930 . S
H731 C728 0.929 . S
S732 N733 1.613 1_545 S
S732 N734 1.610 . S
N733 S732 1.613 1_565 S
N733 C736 1.350 . S
N734 S732 1.610 . S
N734 C735 1.351 . S
C735 C729 1.428 . S
C735 N734 1.351 . S
C735 C736 1.434 1_545 S
C736 C727 1.429 . S
C736 N733 1.350 . S
C736 C735 1.434 1_565 S
C737 C738 1.369 . S
C737 C739 1.419 1_556 S
C737 H741 0.930 . S
C738 C737 1.369 . S
C738 C747 1.429 . S
C739 C737 1.419 1_554 S
C739 C740 1.363 . S
C739 H742 0.929 . S
C740 C739 1.363 . S
C740 C746 1.428 . S
H741 C737 0.930 . S
H742 C739 0.929 . S
S743 N744 1.613 . S
S743 N745 1.610 1_556 S
N744 S743 1.613 . S
N744 C747 1.350 . S
N745 S743 1.610 1_554 S
N745 C746 1.351 . S
C746 C740 1.428 . S
C746 N745 1.351 . S
C746 C747 1.434 1_554 S
C747 C738 1.429 . S
C747 N744 1.350 . S
C747 C746 1.434 1_556 S
C748 C749 1.369 . S
C748 C750 1.419 . S
C748 H752 0.930 . S
C749 C748 1.369 . S
C749 C758 1.429 1_455 S
C750 C748 1.419 . S
C750 C751 1.363 1_455 S
C750 H753 0.929 . S
C751 C750 1.363 1_655 S
C751 C757 1.428 . S
H752 C748 0.930 . S
H753 C750 0.929 . S
S754 N755 1.613 . S
S754 N756 1.610 . S
N755 S754 1.613 . S
N755 C758 1.350 . S
N756 S754 1.610 . S
N756 C757 1.351 . S
C757 C751 1.428 . S
C757 N756 1.351 . S
C757 C758 1.434 . S
C758 C749 1.429 1_655 S
C758 N755 1.350 . S
C758 C757 1.434 . S
C759 C760 1.369 . S
C759 C761 1.419 . S
C759 H763 0.930 . S
C760 C759 1.369 . S
C760 C769 1.429 . S
C761 C759 1.419 . S
C761 C762 1.363 . S
C761 H764 0.929 . S
C762 C761 1.363 . S
C762 C768 1.428 . S
H763 C759 0.930 . S
H764 C761 0.929 . S
S765 N766 1.613 . S
S765 N767 1.610 . S
N766 S765 1.613 . S
N766 C769 1.350 . S
N767 S765 1.610 . S
N767 C768 1.351 . S
C768 C762 1.428 . S
C768 N767 1.351 . S
C768 C769 1.434 . S
C769 C760 1.429 . S
C769 N766 1.350 . S
C769 C768 1.434 . S
C770 C771 1.369 . S
C770 C772 1.419 . S
C770 H774 0.930 . S
C771 C770 1.369 . S
C771 C780 1.429 1_655 S
C772 C770 1.419 . S
C772 C773 1.363 1_655 S
C772 H775 0.929 . S
C773 C772 1.363 1_455 S
C773 C779 1.428 . S
H774 C770 0.930 . S
H775 C772 0.929 . S
S776 N777 1.613 . S
S776 N778 1.610 . S
N777 S776 1.613 . S
N777 C780 1.350 . S
N778 S776 1.610 . S
N778 C779 1.351 . S
C779 C773 1.428 . S
C779 N778 1.351 . S
C779 C780 1.434 . S
C780 C771 1.429 1_455 S
C780 N777 1.350 . S
C780 C779 1.434 . S
C781 C782 1.369 . S
C781 C783 1.419 . S
C781 H785 0.930 . S
C782 C781 1.369 . S
C782 C791 1.429 . S
C783 C781 1.419 . S
C783 C784 1.363 . S
C783 H786 0.929 . S
C784 C783 1.363 . S
C784 C790 1.428 . S
H785 C781 0.930 . S
H786 C783 0.929 . S
S787 N788 1.613 . S
S787 N789 1.610 . S
N788 S787 1.613 . S
N788 C791 1.350 . S
N789 S787 1.610 . S
N789 C790 1.351 . S
C790 C784 1.428 . S
C790 N789 1.351 . S
C790 C791 1.434 . S
C791 C782 1.429 . S
C791 N788 1.350 . S
C791 C790 1.434 . S
C792 C793 1.369 1_565 S
C792 C794 1.419 . S
C792 H796 0.930 . S
C793 C792 1.369 1_545 S
C793 C802 1.429 . S
C794 C792 1.419 . S
C794 C795 1.363 . S
C794 H797 0.929 . S
C795 C794 1.363 . S
C795 C801 1.428 . S
H796 C792 0.930 . S
H797 C794 0.929 . S
S798 N799 1.613 . S
S798 N800 1.610 . S
N799 S798 1.613 . S
N799 C802 1.350 . S
N800 S798 1.610 . S
N800 C801 1.351 1_545 S
C801 C795 1.428 . S
C801 N800 1.351 1_565 S
C801 C802 1.434 1_565 S
C802 C793 1.429 . S
C802 N799 1.350 . S
C802 C801 1.434 1_545 S
C803 C804 1.369 . S
C803 C805 1.419 . S
C803 H807 0.930 . S
C804 C803 1.369 . S
C804 C813 1.429 . S
C805 C803 1.419 . S
C805 C806 1.363 . S
C805 H808 0.929 . S
C806 C805 1.363 . S
C806 C812 1.428 . S
H807 C803 0.930 . S
H808 C805 0.929 . S
S809 N810 1.613 . S
S809 N811 1.610 . S
N810 S809 1.613 . S
N810 C813 1.350 . S
N811 S809 1.610 . S
N811 C812 1.351 . S
C812 C806 1.428 . S
C812 N811 1.351 . S
C812 C813 1.434 . S
C813 C804 1.429 . S
C813 N810 1.350 . S
C813 C812 1.434 . S
C814 C815 1.369 . S
C814 C816 1.419 . S
C814 H818 0.930 . S
C815 C814 1.369 . S
C815 C824 1.429 1_545 S
C816 C814 1.419 . S
C816 C817 1.363 1_545 S
C816 H819 0.929 . S
C817 C816 1.363 1_565 S
C817 C823 1.428 . S
H818 C814 0.930 . S
H819 C816 0.929 . S
S820 N821 1.613 . S
S820 N822 1.610 . S
N821 S820 1.613 . S
N821 C824 1.350 . S
N822 S820 1.610 . S
N822 C823 1.351 . S
C823 C817 1.428 . S
C823 N822 1.351 . S
C823 C824 1.434 . S
C824 C815 1.429 1_565 S
C824 N821 1.350 . S
C824 C823 1.434 . S
C825 C826 1.369 1_556 S
C825 C827 1.419 . S
C825 H829 0.930 . S
C826 C825 1.369 1_554 S
C826 C835 1.429 . S
C827 C825 1.419 . S
C827 C828 1.363 . S
C827 H830 0.929 . S
C828 C827 1.363 . S
C828 C834 1.428 1_556 S
H829 C825 0.930 . S
H830 C827 0.929 . S
S831 N832 1.613 . S
S831 N833 1.610 . S
N832 S831 1.613 . S
N832 C835 1.350 . S
N833 S831 1.610 . S
N833 C834 1.351 . S
C834 C828 1.428 1_554 S
C834 N833 1.351 . S
C834 C835 1.434 . S
C835 C826 1.429 . S
C835 N832 1.350 . S
C835 C834 1.434 . S
C836 C837 1.369 . S
C836 C838 1.419 1_455 S
C836 H840 0.930 . S
C837 C836 1.369 . S
C837 C846 1.429 . S
C838 C836 1.419 1_655 S
C838 C839 1.363 . S
C838 H841 0.929 . S
C839 C838 1.363 . S
C839 C845 1.428 . S
H840 C836 0.930 . S
H841 C838 0.929 . S
S842 N843 1.613 1_655 S
S842 N844 1.610 . S
N843 S842 1.613 1_455 S
N843 C846 1.350 . S
N844 S842 1.610 . S
N844 C845 1.351 . S
C845 C839 1.428 . S
C845 N844 1.351 . S
C845 C846 1.434 1_655 S
C846 C837 1.429 . S
C846 N843 1.350 . S
C846 C845 1.434 1_455 S
C847 C848 1.369 . S
C847 C849 1.419 . S
C847 H851 0.930 . S
C848 C847 1.369 . S
C848 C857 1.429 . S
C849 C847 1.419 . S
C849 C850 1.363 . S
C849 H852 0.929 . S
C850 C849 1.363 . S
C850 C856 1.428 . S
H851 C847 0.930 . S
H852 C849 0.929 . S
S853 N854 1.613 . S
S853 N855 1.610 . S
N854 S853 1.613 . S
N854 C857 1.350 . S
N855 S853 1.610 . S
N855 C856 1.351 . S
C856 C850 1.428 . S
C856 N855 1.351 . S
C856 C857 1.434 . S
C857 C848 1.429 . S
C857 N854 1.350 . S
C857 C856 1.434 . S
C858 C859 1.369 1_455 S
C858 C860 1.419 . S
C858 H862 0.930 . S
C859 C858 1.369 1_655 S
C859 C868 1.429 . S
C860 C858 1.419 . S
C860 C861 1.363 . S
C860 H863 0.929 . S
C861 C860 1.363 . S
C861 C867 1.445 . S
H862 C858 0.930 . S
H863 C860 0.929 . S
S864 N865 1.613 . S
S864 N866 1.610 . S
N865 S864 1.613 . S
N865 C868 1.350 . S
N866 S864 1.610 . S
N866 C867 1.344 1_655 S
C867 C861 1.445 . S
C867 N866 1.344 1_455 S
C867 C868 1.422 1_455 S
C868 C859 1.429 . S
C868 N865 1.350 . S
C868 C867 1.422 1_655 S
C869 C870 1.369 . S
C869 C871 1.419 . S
C869 H873 0.930 . S
C870 C869 1.369 . S
C870 C879 1.429 . S
C871 C869 1.419 . S
C871 C872 1.363 . S
C871 H874 0.929 . S
C872 C871 1.363 . S
C872 C878 1.428 . S
H873 C869 0.930 . S
H874 C871 0.929 . S
S875 N876 1.613 . S
S875 N877 1.610 . S
N876 S875 1.613 . S
N876 C879 1.350 . S
N877 S875 1.610 . S
N877 C878 1.351 . S
C878 C872 1.428 . S
C878 N877 1.351 . S
C878 C879 1.434 . S
C879 C870 1.429 . S
C879 N876 1.350 . S
C879 C878 1.434 . S
C880 C881 1.369 . S
C880 C882 1.419 . S
C880 H884 0.930 . S
C881 C880 1.369 . S
C881 C890 1.429 . S
C882 C880 1.419 . S
C882 C883 1.363 . S
C882 H885 0.929 . S
C883 C882 1.363 . S
C883 C889 1.428 . S
H884 C880 0.930 . S
H885 C882 0.929 . S
S886 N887 1.613 . S
S886 N888 1.610 . S
N887 S886 1.613 . S
N887 C890 1.350 . S
N888 S886 1.610 . S
N888 C889 1.351 . S
C889 C883 1.428 . S
C889 N888 1.351 . S
C889 C890 1.434 . S
C890 C881 1.429 . S
C890 N887 1.350 . S
C890 C889 1.434 . S
C891 C892 1.369 . S
C891 C893 1.419 . S
C891 H895 0.930 . S
C892 C891 1.369 . S
C892 C901 1.429 . S
C893 C891 1.419 . S
C893 C894 1.363 1_556 S
C893 H896 0.929 . S
C894 C893 1.363 1_554 S
C894 C900 1.428 . S
H895 C891 0.930 . S
H896 C893 0.929 . S
S897 N898 1.613 1_554 S
S897 N899 1.610 . S
N898 S897 1.613 1_556 S
N898 C901 1.350 . S
N899 S897 1.610 . S
N899 C900 1.351 . S
C900 C894 1.428 . S
C900 N899 1.351 . S
C900 C901 1.434 1_554 S
C901 C892 1.429 . S
C901 N898 1.350 . S
C901 C900 1.434 1_556 S
C902 C903 1.369 . S
C902 C904 1.419 . S
C902 H906 0.930 . S
C903 C902 1.369 . S
C903 C912 1.429 . S
C904 C902 1.419 . S
C904 C905 1.363 . S
C904 H907 0.929 . S
C905 C904 1.363 . S
C905 C911 1.428 . S
H906 C902 0.930 . S
H907 C904 0.929 . S
S908 N909 1.613 . S
S908 N910 1.610 . S
N909 S908 1.613 . S
N909 C912 1.350 . S
N910 S908 1.610 . S
N910 C911 1.351 . S
C911 C905 1.428 . S
C911 N910 1.351 . S
C911 C912 1.434 . S
C912 C903 1.429 . S
C912 N909 1.350 . S
C912 C911 1.434 . S
C913 C914 1.369 . S
C913 C915 1.419 . S
C913 H917 0.930 . S
C914 C913 1.369 . S
C914 C923 1.429 . S
C915 C913 1.419 . S
C915 C916 1.363 . S
C915 H918 0.929 . S
C916 C915 1.363 . S
C916 C922 1.428 . S
H917 C913 0.930 . S
H918 C915 0.929 . S
S919 N920 1.613 . S
S919 N921 1.610 . S
N920 S919 1.613 . S
N920 C923 1.350 . S
N921 S919 1.610 . S
N921 C922 1.351 . S
C922 C916 1.428 . S
C922 N921 1.351 . S
C922 C923 1.434 . S
C923 C914 1.429 . S
C923 N920 1.350 . S
C923 C922 1.434 . S
C924 C925 1.369 . S
C924 C926 1.419 . S
C924 H928 0.930 . S
C925 C924 1.369 . S
C925 C934 1.429 . S
C926 C924 1.419 . S
C926 C927 1.363 . S
C926 H929 0.929 . S
C927 C926 1.363 . S
C927 C933 1.428 . S
H928 C924 0.930 . S
H929 C926 0.929 . S
S930 N931 1.613 . S
S930 N932 1.610 . S
N931 S930 1.613 . S
N931 C934 1.350 . S
N932 S930 1.610 . S
N932 C933 1.351 . S
C933 C927 1.428 . S
C933 N932 1.351 . S
C933 C934 1.434 . S
C934 C925 1.429 . S
C934 N931 1.350 . S
C934 C933 1.434 . S
C935 C936 1.369 . S
C935 C937 1.406 1_556 S
C935 H939 0.930 . S
C936 C935 1.369 . S
C936 C945 1.429 1_556 S
C937 C935 1.406 1_554 S
C937 C938 1.380 . S
C937 H940 0.925 1_554 S
C938 C937 1.380 . S
C938 C944 1.428 . S
H939 C935 0.930 . S
H940 C937 0.925 1_556 S
S941 N942 1.613 . S
S941 N943 1.610 . S
N942 S941 1.613 . S
N942 C945 1.350 . S
N943 S941 1.610 . S
N943 C944 1.351 . S
C944 C938 1.428 . S
C944 N943 1.351 . S
C944 C945 1.434 . S
C945 C936 1.429 1_554 S
C945 N942 1.350 . S
C945 C944 1.434 . S
C946 C947 1.369 . S
C946 C948 1.419 . S
C946 H950 0.930 . S
C947 C946 1.369 . S
C947 C956 1.429 . S
C948 C946 1.419 . S
C948 C949 1.363 . S
C948 H951 0.929 . S
C949 C948 1.363 . S
C949 C955 1.428 . S
H950 C946 0.930 . S
H951 C948 0.929 . S
S952 N953 1.613 . S
S952 N954 1.610 . S
N953 S952 1.613 . S
N953 C956 1.350 . S
N954 S952 1.610 . S
N954 C955 1.351 . S
C955 C949 1.428 . S
C955 N954 1.351 . S
C955 C956 1.434 . S
C956 C947 1.429 . S
C956 N953 1.350 . S
C956 C955 1.434 . S
C957 C958 1.369 . S
C957 C959 1.419 . S
C957 H961 0.930 . S
C958 C957 1.369 . S
C958 C967 1.429 . S
C959 C957 1.419 . S
C959 C960 1.363 . S
C959 H962 0.929 . S
C960 C959 1.363 . S
C960 C966 1.428 . S
H961 C957 0.930 . S
H962 C959 0.929 . S
S963 N964 1.613 . S
S963 N965 1.610 . S
N964 S963 1.613 . S
N964 C967 1.350 . S
N965 S963 1.610 . S
N965 C966 1.351 . S
C966 C960 1.428 . S
C966 N965 1.351 . S
C966 C967 1.434 . S
C967 C958 1.429 . S
C967 N964 1.350 . S
C967 C966 1.434 . S
C529 N13 1.461 . S
C531 N497 1.480 . S
C540 N277 1.858 . S
C542 N46 1.860 . S
C551 N409 1.663 . S
C553 N68 1.677 . S
C562 N101 1.853 1_565 S
C564 N343 1.799 . S
C573 N365 1.869 . S
C575 N35 1.874 . S
C584 N79 1.691 . S
C586 N299 1.697 . S
C595 N112 1.791 . S
C597 N431 1.824 . S
C606 N2 1.494 . S
C608 N244 1.471 . S
C617 N266 1.863 . S
C619 N134 1.879 . S
C628 N398 1.702 . S
C630 N178 1.688 1_455 S
C639 N211 1.793 . S
C641 N332 1.825 . S
C650 N200 1.855 . S
C652 N442 1.796 . S
C661 N145 1.860 . S
C663 N376 1.855 . S
C672 N475 1.460 . S
C674 N233 1.481 . S
C683 N310 1.662 . S
C685 N167 1.682 . S
C694 N508 1.473 . S
C696 N464 1.496 . S
C705 C21 1.191 . S
C707 C51 1.191 . S
C716 C40 1.213 . S
C718 C87 1.218 . S
C727 C73 1.456 . S
C729 C106 1.456 . S
C738 C117 1.445 . S
C740 C7 1.439 . S
C749 C18 1.052 . S
C751 C183 1.053 . S
C760 C153 0.915 . S
C762 C120 0.914 . S
C771 C219 0.915 . S
C773 C54 0.914 . S
C782 C480 1.052 . S
C784 C84 1.053 . S
C793 C285 0.920 . S
C795 C238 0.919 . S
C804 C271 1.317 . S
C806 C304 1.321 . S
C815 C315 1.507 . S
C817 C348 1.509 . S
C826 C351 1.075 . S
C828 C249 1.078 . S
C837 C417 1.024 . S
C839 C252 1.020 . S
C848 C381 1.342 . S
C850 C337 1.344 . S
C859 C282 1.343 . S
C861 C436 1.344 . S
C870 C516 1.024 . S
C872 C318 1.021 . S
C881 C150 1.191 . S
C883 C483 1.191 . S
C892 C139 1.217 . S
C894 C186 1.217 . S
C903 C172 1.457 . S
C905 C205 1.455 . S
C914 C469 1.437 . S
C916 C216 1.446 . S
C925 C384 0.918 . S
C927 C502 0.919 . S
C936 C403 1.321 . S
C938 C370 1.317 . S
C947 C414 1.508 . S
C949 C447 1.508 . S
C958 C513 1.079 . S
C960 C450 1.075 . S
