# Generated by pormake.
# Topology zni, (4)-cn, num edge types: 1
# Building blocks:
#     Node 0, Type 0, BuildingBlock: CEKHIL_clean_sbu_0, # of connection points: 4
#     Node 1, Type 0, BuildingBlock: CEKHIL_clean_sbu_0, # of connection points: 4
#     Node 2, Type 0, BuildingBlock: CEKHIL_clean_sbu_0, # of connection points: 4
#     Node 3, Type 0, BuildingBlock: CEKHIL_clean_sbu_0, # of connection points: 4
#     Node 4, Type 0, BuildingBlock: CEKHIL_clean_sbu_0, # of connection points: 4
#     Node 5, Type 0, BuildingBlock: CEKHIL_clean_sbu_0, # of connection points: 4
#     Node 6, Type 0, BuildingBlock: CEKHIL_clean_sbu_0, # of connection points: 4
#     Node 7, Type 0, BuildingBlock: CEKHIL_clean_sbu_0, # of connection points: 4
#     Node 8, Type 0, BuildingBlock: CEKHIL_clean_sbu_0, # of connection points: 4
#     Node 9, Type 0, BuildingBlock: CEKHIL_clean_sbu_0, # of connection points: 4
#     Node 10, Type 0, BuildingBlock: CEKHIL_clean_sbu_0, # of connection points: 4
#     Node 11, Type 0, BuildingBlock: CEKHIL_clean_sbu_0, # of connection points: 4
#     Node 12, Type 0, BuildingBlock: CEKHIL_clean_sbu_0, # of connection points: 4
#     Node 13, Type 0, BuildingBlock: CEKHIL_clean_sbu_0, # of connection points: 4
#     Node 14, Type 0, BuildingBlock: CEKHIL_clean_sbu_0, # of connection points: 4
#     Node 15, Type 0, BuildingBlock: CEKHIL_clean_sbu_0, # of connection points: 4
#     Node 16, Type 0, BuildingBlock: CEKHIL_clean_sbu_0, # of connection points: 4
#     Node 17, Type 0, BuildingBlock: CEKHIL_clean_sbu_0, # of connection points: 4
#     Node 18, Type 0, BuildingBlock: CEKHIL_clean_sbu_0, # of connection points: 4
#     Node 19, Type 0, BuildingBlock: CEKHIL_clean_sbu_0, # of connection points: 4
#     Node 20, Type 0, BuildingBlock: CEKHIL_clean_sbu_0, # of connection points: 4
#     Node 21, Type 0, BuildingBlock: CEKHIL_clean_sbu_0, # of connection points: 4
#     Node 22, Type 0, BuildingBlock: CEKHIL_clean_sbu_0, # of connection points: 4
#     Node 23, Type 0, BuildingBlock: CEKHIL_clean_sbu_0, # of connection points: 4
#     Node 24, Type 0, BuildingBlock: CEKHIL_clean_sbu_0, # of connection points: 4
#     Node 25, Type 0, BuildingBlock: CEKHIL_clean_sbu_0, # of connection points: 4
#     Node 26, Type 0, BuildingBlock: CEKHIL_clean_sbu_0, # of connection points: 4
#     Node 27, Type 0, BuildingBlock: CEKHIL_clean_sbu_0, # of connection points: 4
#     Node 28, Type 0, BuildingBlock: CEKHIL_clean_sbu_0, # of connection points: 4
#     Node 29, Type 0, BuildingBlock: CEKHIL_clean_sbu_0, # of connection points: 4
#     Node 30, Type 0, BuildingBlock: CEKHIL_clean_sbu_0, # of connection points: 4
#     Node 31, Type 0, BuildingBlock: CEKHIL_clean_sbu_0, # of connection points: 4
#     Edge 32, Type (0, 0), BuildingBlock: XUDNAN_clean_linker_2, # of connection points: 2
#     Edge 33, Type (0, 0), BuildingBlock: XUDNAN_clean_linker_2, # of connection points: 2
#     Edge 34, Type (0, 0), BuildingBlock: XUDNAN_clean_linker_2, # of connection points: 2
#     Edge 35, Type (0, 0), BuildingBlock: XUDNAN_clean_linker_2, # of connection points: 2
#     Edge 36, Type (0, 0), BuildingBlock: XUDNAN_clean_linker_2, # of connection points: 2
#     Edge 37, Type (0, 0), BuildingBlock: XUDNAN_clean_linker_2, # of connection points: 2
#     Edge 38, Type (0, 0), BuildingBlock: XUDNAN_clean_linker_2, # of connection points: 2
#     Edge 39, Type (0, 0), BuildingBlock: XUDNAN_clean_linker_2, # of connection points: 2
#     Edge 40, Type (0, 0), BuildingBlock: XUDNAN_clean_linker_2, # of connection points: 2
#     Edge 41, Type (0, 0), BuildingBlock: XUDNAN_clean_linker_2, # of connection points: 2
#     Edge 42, Type (0, 0), BuildingBlock: XUDNAN_clean_linker_2, # of connection points: 2
#     Edge 43, Type (0, 0), BuildingBlock: XUDNAN_clean_linker_2, # of connection points: 2
#     Edge 44, Type (0, 0), BuildingBlock: XUDNAN_clean_linker_2, # of connection points: 2
#     Edge 45, Type (0, 0), BuildingBlock: XUDNAN_clean_linker_2, # of connection points: 2
#     Edge 46, Type (0, 0), BuildingBlock: XUDNAN_clean_linker_2, # of connection points: 2
#     Edge 47, Type (0, 0), BuildingBlock: XUDNAN_clean_linker_2, # of connection points: 2
#     Edge 48, Type (0, 0), BuildingBlock: XUDNAN_clean_linker_2, # of connection points: 2
#     Edge 49, Type (0, 0), BuildingBlock: XUDNAN_clean_linker_2, # of connection points: 2
#     Edge 50, Type (0, 0), BuildingBlock: XUDNAN_clean_linker_2, # of connection points: 2
#     Edge 51, Type (0, 0), BuildingBlock: XUDNAN_clean_linker_2, # of connection points: 2
#     Edge 52, Type (0, 0), BuildingBlock: XUDNAN_clean_linker_2, # of connection points: 2
#     Edge 53, Type (0, 0), BuildingBlock: XUDNAN_clean_linker_2, # of connection points: 2
#     Edge 54, Type (0, 0), BuildingBlock: XUDNAN_clean_linker_2, # of connection points: 2
#     Edge 55, Type (0, 0), BuildingBlock: XUDNAN_clean_linker_2, # of connection points: 2
#     Edge 56, Type (0, 0), BuildingBlock: XUDNAN_clean_linker_2, # of connection points: 2
#     Edge 57, Type (0, 0), BuildingBlock: XUDNAN_clean_linker_2, # of connection points: 2
#     Edge 58, Type (0, 0), BuildingBlock: XUDNAN_clean_linker_2, # of connection points: 2
#     Edge 59, Type (0, 0), BuildingBlock: XUDNAN_clean_linker_2, # of connection points: 2
#     Edge 60, Type (0, 0), BuildingBlock: XUDNAN_clean_linker_2, # of connection points: 2
#     Edge 61, Type (0, 0), BuildingBlock: XUDNAN_clean_linker_2, # of connection points: 2
#     Edge 62, Type (0, 0), BuildingBlock: XUDNAN_clean_linker_2, # of connection points: 2
#     Edge 63, Type (0, 0), BuildingBlock: XUDNAN_clean_linker_2, # of connection points: 2
#     Edge 64, Type (0, 0), BuildingBlock: XUDNAN_clean_linker_2, # of connection points: 2
#     Edge 65, Type (0, 0), BuildingBlock: XUDNAN_clean_linker_2, # of connection points: 2
#     Edge 66, Type (0, 0), BuildingBlock: XUDNAN_clean_linker_2, # of connection points: 2
#     Edge 67, Type (0, 0), BuildingBlock: XUDNAN_clean_linker_2, # of connection points: 2
#     Edge 68, Type (0, 0), BuildingBlock: XUDNAN_clean_linker_2, # of connection points: 2
#     Edge 69, Type (0, 0), BuildingBlock: XUDNAN_clean_linker_2, # of connection points: 2
#     Edge 70, Type (0, 0), BuildingBlock: XUDNAN_clean_linker_2, # of connection points: 2
#     Edge 71, Type (0, 0), BuildingBlock: XUDNAN_clean_linker_2, # of connection points: 2
#     Edge 72, Type (0, 0), BuildingBlock: XUDNAN_clean_linker_2, # of connection points: 2
#     Edge 73, Type (0, 0), BuildingBlock: XUDNAN_clean_linker_2, # of connection points: 2
#     Edge 74, Type (0, 0), BuildingBlock: XUDNAN_clean_linker_2, # of connection points: 2
#     Edge 75, Type (0, 0), BuildingBlock: XUDNAN_clean_linker_2, # of connection points: 2
#     Edge 76, Type (0, 0), BuildingBlock: XUDNAN_clean_linker_2, # of connection points: 2
#     Edge 77, Type (0, 0), BuildingBlock: XUDNAN_clean_linker_2, # of connection points: 2
#     Edge 78, Type (0, 0), BuildingBlock: XUDNAN_clean_linker_2, # of connection points: 2
#     Edge 79, Type (0, 0), BuildingBlock: XUDNAN_clean_linker_2, # of connection points: 2
#     Edge 80, Type (0, 0), BuildingBlock: XUDNAN_clean_linker_2, # of connection points: 2
#     Edge 81, Type (0, 0), BuildingBlock: XUDNAN_clean_linker_2, # of connection points: 2
#     Edge 82, Type (0, 0), BuildingBlock: XUDNAN_clean_linker_2, # of connection points: 2
#     Edge 83, Type (0, 0), BuildingBlock: XUDNAN_clean_linker_2, # of connection points: 2
#     Edge 84, Type (0, 0), BuildingBlock: XUDNAN_clean_linker_2, # of connection points: 2
#     Edge 85, Type (0, 0), BuildingBlock: XUDNAN_clean_linker_2, # of connection points: 2
#     Edge 86, Type (0, 0), BuildingBlock: XUDNAN_clean_linker_2, # of connection points: 2
#     Edge 87, Type (0, 0), BuildingBlock: XUDNAN_clean_linker_2, # of connection points: 2
#     Edge 88, Type (0, 0), BuildingBlock: XUDNAN_clean_linker_2, # of connection points: 2
#     Edge 89, Type (0, 0), BuildingBlock: XUDNAN_clean_linker_2, # of connection points: 2
#     Edge 90, Type (0, 0), BuildingBlock: XUDNAN_clean_linker_2, # of connection points: 2
#     Edge 91, Type (0, 0), BuildingBlock: XUDNAN_clean_linker_2, # of connection points: 2
#     Edge 92, Type (0, 0), BuildingBlock: XUDNAN_clean_linker_2, # of connection points: 2
#     Edge 93, Type (0, 0), BuildingBlock: XUDNAN_clean_linker_2, # of connection points: 2
#     Edge 94, Type (0, 0), BuildingBlock: XUDNAN_clean_linker_2, # of connection points: 2
#     Edge 95, Type (0, 0), BuildingBlock: XUDNAN_clean_linker_2, # of connection points: 2
# Relax obj value: 0.226
# Max RMSD: 0.114
# Mean RMSD: 0.114
data_MOF--net-zni--node1-CEKHIL_clean_sbu_0--edge1-XUDNAN_clean_linker_2
_symmetry_space_group_name_H-M    P1
_symmetry_Int_Tables_number       1
_symmetry_cell_setting            triclinic
loop_
_symmetry_equiv_pos_as_xyz
'x, y, z'
_cell_length_a     57.797
_cell_length_b     57.797
_cell_length_c     29.371
_cell_angle_alpha  90.001001
_cell_angle_beta   90.001001
_cell_angle_gamma 90.0
loop_
_atom_site_label
_atom_site_type_symbol
_atom_site_fract_x
_atom_site_fract_y
_atom_site_fract_z
_atom_type_partial_charge
Co0 Co 0.09112 0.09202 0.42533 0.0
O1 O 0.08344 0.06033 0.40914 0.0
O2 O 0.09266 0.08835 0.36082 0.0
C3 C 0.115 0.08447 0.48395 0.0
O4 O 0.10133 0.12542 0.42576 0.0
Co5 Co 0.08012 0.11633 0.5163 0.0
O6 O 0.09828 0.14324 0.49308 0.0
C7 C 0.04253 0.10585 0.45167 0.0
C8 C 0.08652 0.06703 0.3672 0.0
C9 C 0.10457 0.14303 0.45153 0.0
O10 O 0.05753 0.10111 0.4207 0.0
O11 O 0.04801 0.11005 0.4931 0.0
O12 O 0.12252 0.08294 0.44226 0.0
O13 O 0.09317 0.08855 0.48861 0.0
Co14 Co 0.16319 0.83755 0.68103 0.0
O15 O 0.1953 0.83078 0.67368 0.0
O16 O 0.17137 0.83857 0.61683 0.0
C17 C 0.16732 0.8628 0.73866 0.0
O18 O 0.12904 0.84639 0.67731 0.0
Co19 Co 0.13924 0.8246 0.77248 0.0
O20 O 0.11548 0.84649 0.74925 0.0
C21 C 0.15041 0.78808 0.7062 0.0
C22 C 0.19226 0.83359 0.63033 0.0
C23 C 0.11353 0.85162 0.70718 0.0
O24 O 0.15553 0.80356 0.67636 0.0
O25 O 0.14552 0.79285 0.74768 0.0
O26 O 0.17026 0.86962 0.6969 0.0
O27 O 0.16466 0.84081 0.74411 0.0
Co28 Co 0.40639 0.90675 0.91815 0.0
O29 O 0.40883 0.93789 0.89548 0.0
O30 O 0.40273 0.90675 0.85296 0.0
C31 C 0.38304 0.9147 0.97721 0.0
O32 O 0.40183 0.87234 0.92875 0.0
Co33 Co 0.42453 0.893 0.01363 0.0
O34 O 0.40811 0.86331 0.00207 0.0
C35 C 0.45755 0.90215 0.9394 0.0
C36 C 0.40585 0.929 0.85527 0.0
C37 C 0.40142 0.85792 0.96209 0.0
O38 O 0.44078 0.90245 0.91068 0.0
O39 O 0.45454 0.90082 0.98252 0.0
O40 O 0.37431 0.91193 0.93677 0.0
O41 O 0.40531 0.91452 0.97989 0.0
Co42 Co 0.34036 0.1638 0.16712 0.0
O43 O 0.30748 0.16963 0.16973 0.0
O44 O 0.32706 0.16014 0.10757 0.0
C45 C 0.34256 0.14104 0.2288 0.0
O46 O 0.3733 0.15496 0.15039 0.0
Co47 Co 0.37468 0.17914 0.24194 0.0
O48 O 0.39681 0.15801 0.21083 0.0
C49 C 0.35645 0.21382 0.17758 0.0
C50 C 0.30732 0.16506 0.12638 0.0
C51 C 0.39283 0.15139 0.1702 0.0
O52 O 0.3466 0.19755 0.15476 0.0
O53 O 0.36721 0.21025 0.21505 0.0
O54 O 0.33572 0.13254 0.19009 0.0
O55 O 0.34571 0.16317 0.22997 0.0
Co56 Co 0.08166 0.91828 0.08006 0.0
O57 O 0.07225 0.94996 0.08634 0.0
O58 O 0.08718 0.92861 0.14173 0.0
C59 C 0.10069 0.92281 0.01433 0.0
O60 O 0.09446 0.88565 0.08616 0.0
Co61 Co 0.06509 0.88774 6e-05 0.0
O62 O 0.08879 0.86542 0.02186 0.0
C63 C 0.03297 0.89814 0.07523 0.0
C64 C 0.07893 0.94844 0.12845 0.0
C65 C 0.0977 0.86758 0.06131 0.0
O66 O 0.04968 0.90766 0.09729 0.0
O67 O 0.03512 0.89057 0.03449 0.0
O68 O 0.11082 0.92777 0.05259 0.0
O69 O 0.07912 0.91712 0.01655 0.0
Co70 Co 0.33877 0.8476 0.33938 0.0
O71 O 0.3072 0.8389 0.35398 0.0
O72 O 0.33281 0.85376 0.40215 0.0
C73 C 0.33204 0.86629 0.27371 0.0
O74 O 0.37162 0.85975 0.33905 0.0
Co75 Co 0.36581 0.8297 0.25615 0.0
O76 O 0.39092 0.85128 0.27508 0.0
C77 C 0.35827 0.79858 0.33391 0.0
C78 C 0.3123 0.84534 0.39528 0.0
C79 C 0.38964 0.86126 0.31367 0.0
O80 O 0.34975 0.81571 0.35618 0.0
O81 O 0.36417 0.80003 0.29199 0.0
O82 O 0.32848 0.87657 0.3125 0.0
O83 O 0.33712 0.84451 0.27581 0.0
Co84 Co 0.42259 0.08169 0.57889 0.0
O85 O 0.43212 0.04989 0.58377 0.0
O86 O 0.41391 0.06964 0.63766 0.0
C87 C 0.40701 0.07881 0.50921 0.0
O88 O 0.40883 0.11387 0.5857 0.0
Co89 Co 0.44267 0.11464 0.50573 0.0
O90 O 0.41842 0.13657 0.52656 0.0
C91 C 0.47063 0.10315 0.58665 0.0
C92 C 0.42284 0.05018 0.62404 0.0
C93 C 0.40715 0.13289 0.56314 0.0
O94 O 0.45319 0.09255 0.60414 0.0
O95 O 0.47052 0.11145 0.54622 0.0
O96 O 0.39525 0.07242 0.54468 0.0
O97 O 0.42825 0.08478 0.51629 0.0
Co98 Co 0.16193 0.1576 0.83419 0.0
O99 O 0.19294 0.1607 0.8571 0.0
O100 O 0.1621 0.1527 0.89917 0.0
C101 C 0.17083 0.13556 0.77352 0.0
O102 O 0.12769 0.15202 0.82315 0.0
Co103 Co 0.14756 0.17653 0.73956 0.0
O104 O 0.11871 0.15848 0.74986 0.0
C105 C 0.15556 0.20877 0.81583 0.0
C106 C 0.18425 0.15653 0.89706 0.0
C107 C 0.11344 0.15126 0.78954 0.0
O108 O 0.15642 0.19169 0.84383 0.0
O109 O 0.15435 0.20624 0.77257 0.0
O110 O 0.16824 0.12606 0.81332 0.0
O111 O 0.16982 0.15784 0.77243 0.0
Co112 Co 0.91297 0.91219 0.5845 0.0
O113 O 0.92084 0.94455 0.58249 0.0
O114 O 0.90735 0.92605 0.64308 0.0
C115 C 0.89308 0.91132 0.51899 0.0
O116 O 0.90157 0.87966 0.59931 0.0
Co117 Co 0.93094 0.8776 0.51186 0.0
O118 O 0.91045 0.855 0.54281 0.0
C119 C 0.9628 0.89466 0.58226 0.0
C120 C 0.91422 0.94533 0.62473 0.0
C121 C 0.90048 0.85958 0.5804 0.0
O122 O 0.94562 0.90413 0.60305 0.0
O123 O 0.96088 0.8849 0.54333 0.0
O124 O 0.88326 0.91891 0.55583 0.0
O125 O 0.9149 0.90668 0.52185 0.0
Co126 Co 0.83865 0.15834 0.33324 0.0
O127 O 0.80616 0.16579 0.33363 0.0
O128 O 0.82629 0.15412 0.39362 0.0
C129 C 0.83839 0.13704 0.26919 0.0
O130 O 0.8717 0.1482 0.34605 0.0
Co131 Co 0.87114 0.17492 0.25535 0.0
O132 O 0.89509 0.15622 0.28697 0.0
C133 C 0.85288 0.20823 0.32189 0.0
C134 C 0.80657 0.1607 0.37672 0.0
C135 C 0.89151 0.14737 0.32609 0.0
O136 O 0.84651 0.19152 0.34788 0.0
O137 O 0.86059 0.20527 0.28145 0.0
O138 O 0.83192 0.12778 0.30745 0.0
O139 O 0.84264 0.15893 0.27012 0.0
Co140 Co 0.58502 0.07729 0.05865 0.0
O141 O 0.57759 0.04519 0.06549 0.0
O142 O 0.58609 0.06867 0.12259 0.0
C143 C 0.61021 0.07271 0.00079 0.0
O144 O 0.59466 0.11124 0.06326 0.0
Co145 Co 0.57296 0.10219 0.9677 0.0
O146 O 0.59502 0.12551 0.99188 0.0
C147 C 0.53607 0.09274 0.03455 0.0
C148 C 0.58094 0.04788 0.10878 0.0
C149 C 0.6 0.12704 0.03408 0.0
O150 O 0.55123 0.08599 0.06381 0.0
O151 O 0.54105 0.09795 0.99331 0.0
O152 O 0.61687 0.06945 0.04252 0.0
O153 O 0.5883 0.07607 0.99534 0.0
Co154 Co 0.65885 0.85085 0.8345 0.0
O155 O 0.6905 0.84266 0.84953 0.0
O156 O 0.66459 0.85745 0.8971 0.0
C157 C 0.66544 0.86926 0.76845 0.0
O158 O 0.62588 0.86255 0.83403 0.0
Co159 Co 0.63184 0.83244 0.75179 0.0
O160 O 0.60628 0.85349 0.77081 0.0
C161 C 0.64061 0.80143 0.82926 0.0
C162 C 0.6852 0.84924 0.89067 0.0
C163 C 0.60768 0.86368 0.80915 0.0
O164 O 0.64841 0.81883 0.85173 0.0
O165 O 0.63471 0.80276 0.78731 0.0
O166 O 0.66878 0.87981 0.80704 0.0
O167 O 0.66053 0.84745 0.77099 0.0
Co168 Co 0.90894 0.09716 0.90373 0.0
O169 O 0.91266 0.06565 0.88391 0.0
O170 O 0.90088 0.0947 0.84029 0.0
C171 C 0.8904 0.08976 0.96951 0.0
O172 O 0.90213 0.13144 0.91207 0.0
Co173 Co 0.93285 0.11514 0.99133 0.0
O174 O 0.91197 0.14214 0.98306 0.0
C175 C 0.96053 0.10877 0.90816 0.0
C176 C 0.90609 0.0729 0.84407 0.0
C177 C 0.90239 0.14623 0.94481 0.0
O178 O 0.94187 0.10417 0.88614 0.0
O179 O 0.96093 0.11206 0.95128 0.0
O180 O 0.8791 0.08976 0.93123 0.0
O181 O 0.91263 0.0916 0.96607 0.0
Co182 Co 0.6653 0.16556 0.67743 0.0
O183 O 0.69617 0.17006 0.65415 0.0
O184 O 0.66492 0.16412 0.61195 0.0
C185 C 0.67465 0.14027 0.73253 0.0
O186 O 0.63122 0.15887 0.68777 0.0
Co187 Co 0.65082 0.17851 0.77566 0.0
O188 O 0.6223 0.16045 0.76203 0.0
C189 C 0.65656 0.2153 0.70684 0.0
C190 C 0.68712 0.16754 0.61393 0.0
C191 C 0.61708 0.15563 0.72096 0.0
O192 O 0.65922 0.19992 0.67555 0.0
O193 O 0.6549 0.21031 0.7492 0.0
O194 O 0.67201 0.13316 0.69086 0.0
O195 O 0.6735 0.16234 0.73877 0.0
Co196 Co 0.59182 0.90758 0.41215 0.0
O197 O 0.58873 0.93877 0.38945 0.0
O198 O 0.59494 0.90771 0.3469 0.0
C199 C 0.6156 0.91587 0.47043 0.0
O200 O 0.59704 0.87315 0.42244 0.0
Co201 Co 0.57492 0.89339 0.50827 0.0
O202 O 0.59139 0.86384 0.49582 0.0
C203 C 0.54098 0.90231 0.4355 0.0
C204 C 0.59157 0.92992 0.34917 0.0
C205 C 0.59785 0.85862 0.4556 0.0
O206 O 0.5574 0.90279 0.40598 0.0
O207 O 0.54454 0.90097 0.47846 0.0
O208 O 0.624 0.91326 0.42969 0.0
O209 O 0.59337 0.9153 0.47388 0.0
Co210 Co 0.83595 0.82838 0.17116 0.0
O211 O 0.80382 0.82132 0.16413 0.0
O212 O 0.82646 0.8345 0.10901 0.0
C213 C 0.83231 0.84817 0.23652 0.0
O214 O 0.8697 0.83867 0.16716 0.0
Co215 Co 0.86321 0.809 0.25399 0.0
O216 O 0.88525 0.83382 0.23679 0.0
C217 C 0.85229 0.77817 0.17728 0.0
C218 C 0.80595 0.82802 0.1222 0.0
C219 C 0.88582 0.84223 0.19669 0.0
O220 O 0.8443 0.79557 0.1549 0.0
O221 O 0.85946 0.77959 0.21843 0.0
O222 O 0.8281 0.85827 0.19788 0.0
O223 O 0.83618 0.82617 0.23448 0.0
Co224 Co 0.59486 0.59744 0.90073 0.0
O225 O 0.59229 0.56584 0.88086 0.0
O226 O 0.59694 0.59602 0.83519 0.0
C227 C 0.61993 0.59168 0.95825 0.0
O228 O 0.59921 0.63214 0.90875 0.0
Co229 Co 0.57842 0.61203 0.99728 0.0
O230 O 0.59594 0.64079 0.98313 0.0
C231 C 0.54404 0.60209 0.92606 0.0
C232 C 0.59424 0.57379 0.83967 0.0
C233 C 0.60128 0.64627 0.94239 0.0
O234 O 0.56027 0.60124 0.89619 0.0
O235 O 0.54781 0.60409 0.96885 0.0
O236 O 0.62743 0.59313 0.91659 0.0
O237 O 0.59773 0.591 0.96281 0.0
Co238 Co 0.66161 0.32587 0.16826 0.0
O239 O 0.6937 0.31713 0.16526 0.0
O240 O 0.67371 0.33278 0.10863 0.0
C241 C 0.66337 0.34398 0.23576 0.0
O242 O 0.62912 0.33862 0.159 0.0
Co243 Co 0.62859 0.3072 0.24264 0.0
O244 O 0.60707 0.33149 0.22039 0.0
C245 C 0.64235 0.27665 0.16719 0.0
C246 C 0.69334 0.32498 0.1238 0.0
C247 C 0.61041 0.34138 0.18219 0.0
O248 O 0.65201 0.29402 0.1474 0.0
O249 O 0.63346 0.2779 0.20706 0.0
O250 O 0.67009 0.35451 0.19899 0.0
O251 O 0.65804 0.32236 0.23122 0.0
Co252 Co 0.90278 0.41021 0.41723 0.0
O253 O 0.91099 0.44155 0.39993 0.0
O254 O 0.89973 0.4137 0.35285 0.0
C255 C 0.88072 0.4188 0.47788 0.0
O256 O 0.89175 0.37705 0.41972 0.0
Co257 Co 0.91622 0.38648 0.50764 0.0
O258 O 0.89788 0.35934 0.48646 0.0
C259 C 0.95186 0.39639 0.43881 0.0
C260 C 0.90684 0.4348 0.35841 0.0
C261 C 0.8897 0.35951 0.4462 0.0
O262 O 0.93596 0.40025 0.40917 0.0
O263 O 0.94759 0.39307 0.48108 0.0
O264 O 0.87207 0.42026 0.43709 0.0
O265 O 0.9025 0.41407 0.4805 0.0
Co266 Co 0.83394 0.66295 0.67303 0.0
O267 O 0.80183 0.66713 0.66054 0.0
O268 O 0.82854 0.66088 0.60777 0.0
C269 C 0.82866 0.63759 0.73034 0.0
O270 O 0.86865 0.65647 0.67501 0.0
Co271 Co 0.85314 0.67721 0.7681 0.0
O272 O 0.87944 0.65741 0.74869 0.0
C273 C 0.8429 0.71311 0.69961 0.0
C274 C 0.80679 0.66356 0.61813 0.0
C275 C 0.88339 0.65251 0.70706 0.0
O276 O 0.83954 0.69744 0.66907 0.0
O277 O 0.84641 0.7085 0.74169 0.0
O278 O 0.82824 0.63047 0.68843 0.0
O279 O 0.83 0.65972 0.73562 0.0
Co280 Co 0.58317 0.41211 0.58272 0.0
O281 O 0.57511 0.44449 0.57939 0.0
O282 O 0.58824 0.42658 0.64089 0.0
C283 C 0.60357 0.41037 0.51767 0.0
O284 O 0.59464 0.37987 0.59943 0.0
Co285 Co 0.56654 0.37628 0.51103 0.0
O286 O 0.58852 0.35504 0.54186 0.0
C287 C 0.53361 0.39406 0.57891 0.0
C288 C 0.58136 0.44566 0.62185 0.0
C289 C 0.59721 0.35993 0.58053 0.0
O290 O 0.55035 0.40395 0.6004 0.0
O291 O 0.53626 0.38389 0.54056 0.0
O292 O 0.6131 0.41861 0.55432 0.0
O293 O 0.58175 0.40578 0.52043 0.0
Co294 Co 0.84301 0.35072 0.84302 0.0
O295 O 0.81141 0.3431 0.85888 0.0
O296 O 0.8379 0.35705 0.90618 0.0
C297 C 0.83605 0.36963 0.77756 0.0
O298 O 0.87629 0.3616 0.84115 0.0
Co299 Co 0.86829 0.33185 0.7584 0.0
O300 O 0.89459 0.35215 0.77654 0.0
C301 C 0.8599 0.30089 0.83607 0.0
C302 C 0.81705 0.3493 0.90004 0.0
C303 C 0.89412 0.36223 0.8151 0.0
O304 O 0.85294 0.31842 0.85919 0.0
O305 O 0.86509 0.30215 0.79377 0.0
O306 O 0.83341 0.38007 0.81649 0.0
O307 O 0.84048 0.34771 0.77958 0.0
Co308 Co 0.91259 0.57987 0.06563 0.0
O309 O 0.92137 0.54812 0.07307 0.0
O310 O 0.91162 0.57161 0.12951 0.0
C311 C 0.88836 0.57357 0.00677 0.0
O312 O 0.90159 0.61328 0.07094 0.0
Co313 Co 0.92339 0.60598 0.97541 0.0
O314 O 0.9026 0.62987 0.00159 0.0
C315 C 0.96085 0.59607 0.04074 0.0
C316 C 0.91792 0.55105 0.11634 0.0
C317 C 0.89697 0.63004 0.04356 0.0
O318 O 0.94596 0.5898 0.07095 0.0
O319 O 0.95546 0.6009 0.99954 0.0
O320 O 0.88116 0.57056 0.04824 0.0
O321 O 0.90995 0.57858 0.00228 0.0
Co322 Co 0.6609 0.65829 0.32503 0.0
O323 O 0.6926 0.66522 0.34251 0.0
O324 O 0.66653 0.64735 0.38523 0.0
C325 C 0.6684 0.64439 0.25526 0.0
O326 O 0.62801 0.64656 0.32146 0.0
Co327 Co 0.63374 0.68043 0.24643 0.0
O328 O 0.60825 0.65826 0.26028 0.0
C329 C 0.64228 0.70736 0.33021 0.0
C330 C 0.68742 0.65523 0.38096 0.0
C331 C 0.60982 0.64628 0.29651 0.0
O332 O 0.65025 0.68907 0.34967 0.0
O333 O 0.63662 0.70794 0.28807 0.0
O334 O 0.67096 0.63126 0.29083 0.0
O335 O 0.66301 0.66575 0.26279 0.0
Co336 Co 0.41552 0.41583 0.07669 0.0
O337 O 0.42316 0.44817 0.07845 0.0
O338 O 0.41068 0.42784 0.13747 0.0
C339 C 0.39458 0.41717 0.01176 0.0
O340 O 0.40466 0.38252 0.08694 0.0
Co341 Co 0.43311 0.38526 0.99638 0.0
O342 O 0.41134 0.36231 0.0226 0.0
C343 C 0.46571 0.40173 0.06559 0.0
C344 C 0.41717 0.44771 0.12101 0.0
C345 C 0.40237 0.36432 0.06198 0.0
O346 O 0.44874 0.40743 0.09176 0.0
O347 O 0.46306 0.3951 0.02438 0.0
O348 O 0.38517 0.42322 0.05013 0.0
O349 O 0.41647 0.41292 0.01349 0.0
Co350 Co 0.34164 0.6563 0.83624 0.0
O351 O 0.31009 0.66401 0.85281 0.0
O352 O 0.33586 0.64703 0.89771 0.0
C353 C 0.33453 0.64105 0.76734 0.0
O354 O 0.3745 0.6445 0.8335 0.0
Co355 Co 0.36859 0.67771 0.75611 0.0
O356 O 0.39389 0.65556 0.77128 0.0
C357 C 0.3601 0.70557 0.83844 0.0
C358 C 0.31528 0.65561 0.89269 0.0
C359 C 0.39256 0.64405 0.80816 0.0
O360 O 0.35241 0.6874 0.85863 0.0
O361 O 0.36563 0.70582 0.79621 0.0
O362 O 0.33152 0.62864 0.8038 0.0
O363 O 0.33976 0.66255 0.77358 0.0
Co364 Co 0.08466 0.58978 0.58529 0.0
O365 O 0.0753 0.55781 0.58674 0.0
O366 O 0.09129 0.57684 0.64427 0.0
C367 C 0.10248 0.58864 0.51719 0.0
O368 O 0.09767 0.62191 0.59686 0.0
Co369 Co 0.06708 0.62443 0.51259 0.0
O370 O 0.09079 0.6457 0.53802 0.0
C371 C 0.03599 0.60999 0.5869 0.0
C372 C 0.08284 0.55762 0.62845 0.0
C373 C 0.10027 0.64137 0.57624 0.0
O374 O 0.05301 0.5997 0.60665 0.0
O375 O 0.03762 0.61925 0.54742 0.0
O376 O 0.11317 0.58133 0.55339 0.0
O377 O 0.08106 0.59434 0.52272 0.0
Co378 Co 0.15476 0.34366 0.33798 0.0
O379 O 0.18655 0.33558 0.35212 0.0
O380 O 0.16017 0.34758 0.40169 0.0
C381 C 0.16167 0.36486 0.27509 0.0
O382 O 0.12156 0.35467 0.33875 0.0
Co383 Co 0.12845 0.32933 0.25096 0.0
O384 O 0.10244 0.3489 0.27347 0.0
C385 C 0.13994 0.29446 0.32061 0.0
C386 C 0.18105 0.34032 0.3941 0.0
C387 C 0.10349 0.35696 0.31377 0.0
O388 O 0.14496 0.31064 0.34894 0.0
O389 O 0.13534 0.29825 0.27862 0.0
O390 O 0.1643 0.374 0.31527 0.0
O391 O 0.15686 0.34305 0.27436 0.0
Co392 Co 0.40999 0.5966 0.40792 0.0
O393 O 0.41206 0.56486 0.38802 0.0
O394 O 0.40572 0.59497 0.34297 0.0
C395 C 0.38682 0.59115 0.46871 0.0
O396 O 0.40566 0.63129 0.4156 0.0
Co397 Co 0.42959 0.61203 0.50152 0.0
O398 O 0.41159 0.6407 0.48894 0.0
C399 C 0.46157 0.60192 0.42619 0.0
C400 C 0.40867 0.57277 0.34714 0.0
C401 C 0.40478 0.64575 0.44885 0.0
O402 O 0.44433 0.60068 0.39864 0.0
O403 O 0.45929 0.60415 0.46933 0.0
O404 O 0.37807 0.59212 0.42795 0.0
O405 O 0.40914 0.59061 0.47059 0.0
Co406 Co 0.15836 0.66759 0.16083 0.0
O407 O 0.19094 0.67466 0.16161 0.0
O408 O 0.17107 0.66368 0.10074 0.0
C409 C 0.15791 0.64569 0.22425 0.0
O410 O 0.12553 0.6574 0.14635 0.0
Co411 Co 0.12466 0.6829 0.23759 0.0
O412 O 0.10173 0.66304 0.20574 0.0
C413 C 0.14422 0.71734 0.1747 0.0
C414 C 0.19081 0.66951 0.1185 0.0
C415 C 0.10581 0.65507 0.16612 0.0
O416 O 0.15077 0.70111 0.14757 0.0
O417 O 0.13589 0.71353 0.21437 0.0
O418 O 0.16479 0.63678 0.18593 0.0
O419 O 0.15366 0.66759 0.2237 0.0
Co420 Co 0.0975 0.40873 0.91423 0.0
O421 O 0.08964 0.44023 0.8977 0.0
O422 O 0.10154 0.4129 0.85011 0.0
C423 C 0.11859 0.41686 0.97648 0.0
O424 O 0.10853 0.37555 0.9161 0.0
Co425 Co 0.08288 0.38409 0.00291 0.0
O426 O 0.10205 0.35741 0.98225 0.0
C427 C 0.04814 0.39567 0.93326 0.0
C428 C 0.0945 0.43398 0.85618 0.0
C429 C 0.1106 0.35791 0.94231 0.0
O430 O 0.06438 0.39902 0.9041 0.0
O431 O 0.05198 0.39207 0.97559 0.0
O432 O 0.1279 0.41855 0.93628 0.0
O433 O 0.09681 0.41204 0.97763 0.0
Co434 Co 0.33436 0.32772 0.67107 0.0
O435 O 0.30248 0.31924 0.66532 0.0
O436 O 0.32415 0.33254 0.60888 0.0
C437 C 0.33043 0.34833 0.73595 0.0
O438 O 0.36768 0.33932 0.66559 0.0
Co439 Co 0.36237 0.31015 0.75483 0.0
O440 O 0.38518 0.33332 0.73318 0.0
C441 C 0.34883 0.27772 0.6829 0.0
C442 C 0.30404 0.32531 0.62292 0.0
C443 C 0.38461 0.34231 0.6936 0.0
O444 O 0.3439 0.2948 0.65646 0.0
O445 O 0.35404 0.28018 0.72494 0.0
O446 O 0.32543 0.35777 0.69702 0.0
O447 O 0.33514 0.32653 0.73444 0.0
H448 H 0.08959 0.01934 0.36243 0.0
H449 H 0.07467 0.08073 0.28249 0.0
H450 H 0.06944 0.05667 0.21419 0.0
H451 H 0.12303 0.99124 0.27664 0.0
H452 H 0.11288 0.96248 0.28943 0.0
H453 H 0.11368 0.98412 0.3335 0.0
H454 H 0.07006 0.97764 0.34931 0.0
H455 H 0.06915 0.95591 0.30534 0.0
H456 H 0.0496 0.98019 0.30324 0.0
H457 H 0.06679 0.02691 0.15447 0.0
H458 H 0.06828 0.99263 0.10488 0.0
H459 H 0.0865 0.94992 0.22119 0.0
C460 C 0.08491 0.02757 0.33063 0.0
C461 C 0.08243 0.05185 0.32768 0.0
C462 C 0.07671 0.06215 0.28541 0.0
C463 C 0.07361 0.04864 0.24645 0.0
C464 C 0.07647 0.02484 0.25017 0.0
C465 C 0.08208 0.0143 0.29097 0.0
C466 C 0.08539 0.98845 0.28453 0.0
C467 C 0.11022 0.98115 0.29674 0.0
C468 C 0.06748 0.97474 0.31225 0.0
C469 C 0.08094 0.98628 0.23377 0.0
C470 C 0.07558 0.0075 0.21492 0.0
C471 C 0.07091 0.01015 0.16875 0.0
C472 C 0.07179 0.99056 0.14087 0.0
C473 C 0.07752 0.96862 0.15914 0.0
C474 C 0.0821 0.96648 0.20628 0.0
H475 H 0.19352 0.84011 0.53664 0.0
H476 H 0.23643 0.82365 0.6538 0.0
H477 H 0.27085 0.82341 0.60518 0.0
H478 H 0.22648 0.80445 0.45462 0.0
H479 H 0.22322 0.82496 0.40882 0.0
H480 H 0.20123 0.82272 0.45211 0.0
H481 H 0.20527 0.86653 0.46881 0.0
H482 H 0.22733 0.86888 0.42577 0.0
H483 H 0.23326 0.8782 0.48316 0.0
H484 H 0.30084 0.82821 0.54763 0.0
H485 H 0.32546 0.83504 0.48072 0.0
H486 H 0.26441 0.84643 0.39757 0.0
C487 C 0.21013 0.83617 0.5518 0.0
C488 C 0.21224 0.83196 0.5991 0.0
C489 C 0.2343 0.82698 0.61775 0.0
C490 C 0.25403 0.82677 0.59042 0.0
C491 C 0.25149 0.83135 0.54428 0.0
C492 C 0.23018 0.8357 0.52474 0.0
C493 C 0.23274 0.84054 0.47411 0.0
C494 C 0.22017 0.82206 0.44574 0.0
C495 C 0.22414 0.86499 0.46229 0.0
C496 C 0.25883 0.83864 0.4688 0.0
C497 C 0.26915 0.83339 0.50996 0.0
C498 C 0.29302 0.83201 0.515 0.0
C499 C 0.30684 0.83607 0.47689 0.0
C500 C 0.29679 0.84118 0.43414 0.0
C501 C 0.27245 0.84227 0.42985 0.0
H502 H 0.41294 0.04693 0.71508 0.0
H503 H 0.42966 0.00571 0.59602 0.0
H504 H 0.42568 0.97004 0.64167 0.0
H505 H 0.4445 0.01176 0.7951 0.0
H506 H 0.42369 0.01558 0.84017 0.0
H507 H 0.42733 0.03777 0.79774 0.0
H508 H 0.38353 0.03574 0.77917 0.0
H509 H 0.37979 0.01342 0.82132 0.0
H510 H 0.37082 0.00841 0.76337 0.0
H511 H 0.41871 0.93886 0.69968 0.0
H512 H 0.41298 0.91446 0.76789 0.0
H513 H 0.40266 0.97612 0.84973 0.0
C514 C 0.41577 0.03039 0.69865 0.0
C515 C 0.42152 0.02903 0.65202 0.0
C516 C 0.42529 0.00712 0.63177 0.0
C517 C 0.42296 0.98677 0.65734 0.0
C518 C 0.41708 0.98869 0.70316 0.0
C519 C 0.41382 0.00993 0.7238 0.0
C520 C 0.40838 0.00723 0.77394 0.0
C521 C 0.42709 0.01876 0.80347 0.0
C522 C 0.38419 0.01677 0.78508 0.0
C523 C 0.40908 0.98114 0.77823 0.0
C524 C 0.41385 0.97075 0.73692 0.0
C525 C 0.41507 0.94679 0.73228 0.0
C526 C 0.41169 0.93308 0.77111 0.0
C527 C 0.40744 0.94343 0.81399 0.0
C528 C 0.40598 0.96775 0.81739 0.0
H529 H 0.23143 0.15726 0.90078 0.0
H530 H 0.17016 0.15711 0.98619 0.0
H531 H 0.19494 0.15988 0.05473 0.0
H532 H 0.26671 0.12231 0.97514 0.0
H533 H 0.29287 0.13799 0.96227 0.0
H534 H 0.27018 0.136 0.92042 0.0
H535 H 0.26894 0.18075 0.91484 0.0
H536 H 0.29151 0.18289 0.95688 0.0
H537 H 0.2644 0.19763 0.96569 0.0
H538 H 0.22669 0.16401 0.11373 0.0
H539 H 0.26284 0.16647 0.15864 0.0
H540 H 0.30293 0.16269 0.03392 0.0
C541 C 0.2232 0.15774 0.93389 0.0
C542 C 0.19889 0.15703 0.93824 0.0
C543 C 0.18878 0.15758 0.98215 0.0
C544 C 0.2027 0.15923 0.02122 0.0
C545 C 0.22664 0.16012 0.01567 0.0
C546 C 0.23679 0.15917 0.97311 0.0
C547 C 0.26289 0.16008 0.97627 0.0
C548 C 0.2738 0.13776 0.95742 0.0
C549 C 0.27249 0.18162 0.95199 0.0
C550 C 0.2659 0.16181 0.02729 0.0
C551 C 0.24481 0.16196 0.04948 0.0
C552 C 0.24329 0.1638 0.09672 0.0
C553 C 0.26389 0.16527 0.1219 0.0
C554 C 0.28565 0.16471 0.09975 0.0
C555 C 0.28655 0.16306 0.05184 0.0
H556 H 0.91089 0.95119 0.71694 0.0
H557 H 0.91593 0.98906 0.58974 0.0
H558 H 0.91298 0.02596 0.63187 0.0
H559 H 0.87031 0.9888 0.77249 0.0
H560 H 0.88377 0.98626 0.82763 0.0
H561 H 0.88581 0.96281 0.78743 0.0
H562 H 0.93056 0.96389 0.79318 0.0
H563 H 0.92864 0.98722 0.83362 0.0
H564 H 0.94562 0.99068 0.78259 0.0
H565 H 0.90826 0.05864 0.68776 0.0
H566 H 0.90592 0.0849 0.75409 0.0
H567 H 0.90594 0.02562 0.84476 0.0
C568 C 0.91137 0.96726 0.69798 0.0
C569 C 0.91354 0.96733 0.65012 0.0
C570 C 0.91433 0.98866 0.62648 0.0
C571 C 0.91255 0.00968 0.65006 0.0
C572 C 0.91024 0.00902 0.69725 0.0
C573 C 0.90994 0.98837 0.72101 0.0
C574 C 0.9081 0.99245 0.77178 0.0
C575 C 0.88566 0.98196 0.79094 0.0
C576 C 0.92951 0.983 0.79675 0.0
C577 C 0.9074 0.01861 0.77287 0.0
C578 C 0.90836 0.02784 0.72951 0.0
C579 C 0.90761 0.05163 0.7219 0.0
C580 C 0.90618 0.06638 0.75971 0.0
C581 C 0.90583 0.05726 0.80444 0.0
C582 C 0.90631 0.03307 0.81093 0.0
H583 H 0.80376 0.15862 0.46978 0.0
H584 H 0.76207 0.16719 0.34801 0.0
H585 H 0.72694 0.17034 0.39553 0.0
H586 H 0.76307 0.12447 0.53287 0.0
H587 H 0.76968 0.13792 0.5867 0.0
H588 H 0.79149 0.13625 0.54305 0.0
H589 H 0.79691 0.18072 0.54672 0.0
H590 H 0.77508 0.18254 0.59035 0.0
H591 H 0.7722 0.19936 0.53897 0.0
H592 H 0.69626 0.17144 0.45618 0.0
H593 H 0.67234 0.17171 0.52594 0.0
H594 H 0.73426 0.16396 0.60812 0.0
C595 C 0.78723 0.16112 0.4531 0.0
C596 C 0.7856 0.16258 0.40521 0.0
C597 C 0.7637 0.16603 0.38467 0.0
C598 C 0.74366 0.16782 0.41136 0.0
C599 C 0.74586 0.16632 0.4585 0.0
C600 C 0.7671 0.16317 0.47923 0.0
C601 C 0.76476 0.16238 0.53056 0.0
C602 C 0.77272 0.13885 0.54939 0.0
C603 C 0.77802 0.18245 0.55296 0.0
C604 C 0.73886 0.16544 0.53544 0.0
C605 C 0.72827 0.16758 0.49347 0.0
C606 C 0.70437 0.16992 0.48926 0.0
C607 C 0.69093 0.17003 0.52902 0.0
C608 C 0.70147 0.168 0.57236 0.0
C609 C 0.72575 0.1658 0.57547 0.0
H610 H 0.59264 0.97738 0.34285 0.0
H611 H 0.58648 0.91483 0.26186 0.0
H612 H 0.58181 0.9385 0.19258 0.0
H613 H 0.55132 0.01171 0.28095 0.0
H614 H 0.5678 0.03811 0.28491 0.0
H615 H 0.5704 0.0164 0.32863 0.0
H616 H 0.61476 0.01496 0.31626 0.0
H617 H 0.61232 0.03677 0.27273 0.0
H618 H 0.62601 0.00951 0.26002 0.0
H619 H 0.57683 0.96842 0.13288 0.0
H620 H 0.57506 0.00296 0.08425 0.0
H621 H 0.58595 0.04676 0.20255 0.0
C622 C 0.59033 0.96869 0.3105 0.0
C623 C 0.58985 0.94426 0.30768 0.0
C624 C 0.58696 0.93351 0.26476 0.0
C625 C 0.58419 0.9468 0.22527 0.0
C626 C 0.58456 0.97081 0.22923 0.0
C627 C 0.58781 0.98172 0.27057 0.0
C628 C 0.58818 0.00783 0.26493 0.0
C629 C 0.56823 0.01917 0.29143 0.0
C630 C 0.61172 0.01785 0.27933 0.0
C631 C 0.58455 0.00985 0.21395 0.0
C632 C 0.58231 0.98824 0.19426 0.0
C633 C 0.57866 0.98544 0.14781 0.0
C634 C 0.57761 0.00523 0.12051 0.0
C635 C 0.5804 0.0276 0.13954 0.0
C636 C 0.58375 0.02991 0.18702 0.0
H637 H 0.73305 0.84652 0.89204 0.0
H638 H 0.67194 0.84345 0.97789 0.0
H639 H 0.69639 0.83631 0.04482 0.0
H640 H 0.76648 0.80264 0.95096 0.0
H641 H 0.7936 0.81784 0.94602 0.0
H642 H 0.77144 0.82186 0.9036 0.0
H643 H 0.77245 0.86612 0.91736 0.0
H644 H 0.79467 0.86224 0.9597 0.0
H645 H 0.76829 0.87716 0.97418 0.0
H646 H 0.72633 0.82882 0.10175 0.0
H647 H 0.76122 0.82466 0.14866 0.0
H648 H 0.80421 0.83474 0.0289 0.0
C649 C 0.72493 0.84427 0.92497 0.0
C650 C 0.70063 0.8455 0.92988 0.0
C651 C 0.69054 0.84272 0.97345 0.0
C652 C 0.70425 0.83852 0.01166 0.0
C653 C 0.72808 0.83743 0.00589 0.0
C654 C 0.73848 0.84049 0.96395 0.0
C655 C 0.76466 0.83951 0.96824 0.0
C656 C 0.77463 0.81925 0.94056 0.0
C657 C 0.77566 0.86264 0.95403 0.0
C658 C 0.76717 0.83536 0.01906 0.0
C659 C 0.74575 0.83397 0.03974 0.0
C660 C 0.74325 0.82996 0.08612 0.0
C661 C 0.76321 0.82755 0.11244 0.0
C662 C 0.78543 0.82942 0.09246 0.0
C663 C 0.78744 0.8333 0.04507 0.0
H664 H 0.58689 0.452 0.71348 0.0
H665 H 0.5765 0.48932 0.58692 0.0
H666 H 0.57905 0.52642 0.62861 0.0
H667 H 0.553 0.49068 0.78391 0.0
H668 H 0.57194 0.48774 0.83233 0.0
H669 H 0.56908 0.46429 0.79233 0.0
H670 H 0.6135 0.4643 0.78011 0.0
H671 H 0.61648 0.48784 0.81984 0.0
H672 H 0.62775 0.49064 0.76288 0.0
H673 H 0.58438 0.55951 0.68416 0.0
H674 H 0.58926 0.58584 0.74992 0.0
H675 H 0.59493 0.52653 0.83985 0.0
C676 C 0.58506 0.46797 0.69453 0.0
C677 C 0.58156 0.46781 0.64696 0.0
C678 C 0.57913 0.48907 0.62342 0.0
C679 C 0.58063 0.51021 0.64677 0.0
C680 C 0.58436 0.50975 0.69366 0.0
C681 C 0.58629 0.48917 0.71732 0.0
C682 C 0.58996 0.49336 0.76766 0.0
C683 C 0.56979 0.48343 0.7957 0.0
C684 C 0.61331 0.48345 0.78353 0.0
C685 C 0.59002 0.51953 0.76861 0.0
C686 C 0.58689 0.5287 0.72561 0.0
C687 C 0.58672 0.55251 0.71803 0.0
C688 C 0.5896 0.56733 0.75551 0.0
C689 C 0.59243 0.55823 0.79993 0.0
C690 C 0.59271 0.53401 0.80632 0.0
H691 H 0.76958 0.34476 0.89972 0.0
H692 H 0.82953 0.34579 0.98876 0.0
H693 H 0.80445 0.33804 0.05481 0.0
H694 H 0.73148 0.37422 0.9784 0.0
H695 H 0.7063 0.3577 0.96246 0.0
H696 H 0.72905 0.36257 0.92166 0.0
H697 H 0.73278 0.31832 0.90936 0.0
H698 H 0.71015 0.31332 0.95039 0.0
H699 H 0.738 0.29976 0.95762 0.0
H700 H 0.7735 0.32886 0.11065 0.0
H701 H 0.73765 0.32318 0.15484 0.0
H702 H 0.69713 0.33055 0.03121 0.0
C703 C 0.77736 0.34336 0.93316 0.0
C704 C 0.80147 0.34581 0.93919 0.0
C705 C 0.81106 0.34408 0.98343 0.0
C706 C 0.79699 0.33954 0.02114 0.0
C707 C 0.77333 0.33707 0.01412 0.0
C708 C 0.76347 0.33925 0.97144 0.0
C709 C 0.73738 0.3368 0.97387 0.0
C710 C 0.72535 0.35915 0.95818 0.0
C711 C 0.7291 0.3158 0.94616 0.0
C712 C 0.73421 0.33286 0.02453 0.0
C713 C 0.75523 0.33275 0.04691 0.0
C714 C 0.75689 0.32903 0.09363 0.0
C715 C 0.73646 0.32572 0.11837 0.0
C716 C 0.71467 0.3265 0.09644 0.0
C717 C 0.71358 0.32997 0.04886 0.0
H718 H 0.90587 0.48252 0.35261 0.0
H719 H 0.91773 0.42007 0.27388 0.0
H720 H 0.92459 0.44352 0.20532 0.0
H721 H 0.87417 0.51176 0.26592 0.0
H722 H 0.88564 0.54006 0.27839 0.0
H723 H 0.88368 0.51867 0.32279 0.0
H724 H 0.92751 0.52322 0.33898 0.0
H725 H 0.9296 0.54463 0.29454 0.0
H726 H 0.94797 0.51944 0.29324 0.0
H727 H 0.92901 0.47276 0.14528 0.0
H728 H 0.92828 0.50658 0.09462 0.0
H729 H 0.91188 0.55088 0.20971 0.0
C730 C 0.9102 0.47391 0.32099 0.0
C731 C 0.91137 0.44952 0.31845 0.0
C732 C 0.91667 0.43874 0.27645 0.0
C733 C 0.92073 0.4519 0.23739 0.0
C734 C 0.91924 0.47584 0.24074 0.0
C735 C 0.91394 0.48684 0.28121 0.0
C736 C 0.91188 0.51279 0.27423 0.0
C737 C 0.88739 0.52131 0.28602 0.0
C738 C 0.93034 0.52578 0.30189 0.0
C739 C 0.91659 0.51449 0.22349 0.0
C740 C 0.92111 0.49295 0.20521 0.0
C741 C 0.92558 0.48978 0.15911 0.0
C742 C 0.92512 0.50913 0.13061 0.0
C743 C 0.92001 0.53137 0.14817 0.0
C744 C 0.91591 0.5341 0.19536 0.0
H745 H 0.73284 0.67081 0.38663 0.0
H746 H 0.67917 0.63456 0.46194 0.0
H747 H 0.70489 0.63159 0.52787 0.0
H748 H 0.7817 0.6376 0.43436 0.0
H749 H 0.80064 0.66233 0.43727 0.0
H750 H 0.77855 0.66091 0.39404 0.0
H751 H 0.76226 0.7003 0.42115 0.0
H752 H 0.78424 0.70182 0.4645 0.0
H753 H 0.75414 0.70391 0.47999 0.0
H754 H 0.73391 0.63481 0.58702 0.0
H755 H 0.76685 0.64235 0.63754 0.0
H756 H 0.804 0.67497 0.5262 0.0
C757 C 0.72666 0.66207 0.41689 0.0
C758 C 0.70394 0.65296 0.41909 0.0
C759 C 0.69643 0.64173 0.45932 0.0
C760 C 0.71093 0.63989 0.49706 0.0
C761 C 0.73302 0.64921 0.49412 0.0
C762 C 0.74108 0.65993 0.45521 0.0
C763 C 0.76558 0.66886 0.46233 0.0
C764 C 0.78263 0.65669 0.43008 0.0
C765 C 0.7666 0.69529 0.45666 0.0
C766 C 0.76968 0.66179 0.51153 0.0
C767 C 0.75051 0.65052 0.52884 0.0
C768 C 0.74917 0.64336 0.57388 0.0
C769 C 0.76791 0.64786 0.60234 0.0
C770 C 0.78789 0.65919 0.58568 0.0
C771 C 0.78898 0.66604 0.5395 0.0
H772 H 0.41213 0.45208 0.21389 0.0
H773 H 0.42121 0.49187 0.08978 0.0
H774 H 0.41913 0.52805 0.13399 0.0
H775 H 0.37209 0.49071 0.26865 0.0
H776 H 0.38421 0.48687 0.32469 0.0
H777 H 0.38619 0.46391 0.2834 0.0
H778 H 0.43075 0.46305 0.29295 0.0
H779 H 0.4289 0.48593 0.33444 0.0
H780 H 0.44711 0.48931 0.28505 0.0
H781 H 0.41493 0.55991 0.19084 0.0
H782 H 0.41186 0.58549 0.25788 0.0
H783 H 0.40711 0.52529 0.34581 0.0
C784 C 0.4137 0.46841 0.19609 0.0
C785 C 0.41678 0.46917 0.14839 0.0
C786 C 0.41891 0.49086 0.12632 0.0
C787 C 0.41766 0.51153 0.1511 0.0
C788 C 0.41448 0.51022 0.19799 0.0
C789 C 0.41277 0.48926 0.22041 0.0
C790 C 0.40997 0.49279 0.27126 0.0
C791 C 0.38673 0.48298 0.28797 0.0
C792 C 0.4304 0.48214 0.29746 0.0
C793 C 0.41031 0.51898 0.27379 0.0
C794 C 0.41272 0.52867 0.23107 0.0
C795 C 0.41314 0.55254 0.22453 0.0
C796 C 0.4113 0.56692 0.26278 0.0
C797 C 0.4093 0.55738 0.307 0.0
C798 C 0.40872 0.53308 0.31242 0.0
H799 H 0.19507 0.66922 0.02545 0.0
H800 H 0.23502 0.6684 0.15061 0.0
H801 H 0.27101 0.66471 0.10595 0.0
H802 H 0.22876 0.62826 0.96397 0.0
H803 H 0.22669 0.6431 0.91015 0.0
H804 H 0.20395 0.64611 0.95165 0.0
H805 H 0.20859 0.69068 0.94968 0.0
H806 H 0.23123 0.68783 0.90791 0.0
H807 H 0.23661 0.70331 0.96013 0.0
H808 H 0.3021 0.65847 0.04876 0.0
H809 H 0.32734 0.65407 0.98181 0.0
H810 H 0.26786 0.6613 0.89265 0.0
C811 C 0.21142 0.66841 0.04339 0.0
C812 C 0.21231 0.66902 0.09148 0.0
C813 C 0.23399 0.66805 0.11379 0.0
C814 C 0.25449 0.66586 0.08874 0.0
C815 C 0.25301 0.66501 0.04143 0.0
C816 C 0.23211 0.6666 0.01886 0.0
C817 C 0.23547 0.66557 0.96766 0.0
C818 C 0.22297 0.6445 0.94717 0.0
C819 C 0.22751 0.6882 0.94502 0.0
C820 C 0.26151 0.66283 0.96507 0.0
C821 C 0.27119 0.66234 0.00812 0.0
C822 C 0.29478 0.65906 0.01487 0.0
C823 C 0.30894 0.65645 0.9766 0.0
C824 C 0.29954 0.65741 0.93209 0.0
C825 C 0.2755 0.66067 0.92629 0.0
H826 H 0.09409 0.48163 0.85502 0.0
H827 H 0.08773 0.4211 0.76845 0.0
H828 H 0.0824 0.44625 0.70152 0.0
H829 H 0.05262 0.518 0.79553 0.0
H830 H 0.06956 0.54397 0.80194 0.0
H831 H 0.07159 0.52129 0.84383 0.0
H832 H 0.11598 0.51944 0.83193 0.0
H833 H 0.11409 0.54212 0.79007 0.0
H834 H 0.12735 0.51489 0.77547 0.0
H835 H 0.07761 0.47755 0.64413 0.0
H836 H 0.07658 0.51341 0.59853 0.0
H837 H 0.08824 0.55387 0.72095 0.0
C838 C 0.09138 0.47375 0.82199 0.0
C839 C 0.0912 0.44946 0.81683 0.0
C840 C 0.08798 0.4397 0.77307 0.0
C841 C 0.08483 0.45382 0.73488 0.0
C842 C 0.08521 0.47768 0.74095 0.0
C843 C 0.08861 0.48763 0.78323 0.0
C844 C 0.08947 0.51379 0.77973 0.0
C845 C 0.06962 0.52491 0.80687 0.0
C846 C 0.11313 0.5231 0.79521 0.0
C847 C 0.08606 0.51688 0.72892 0.0
C848 C 0.08334 0.49583 0.70734 0.0
C849 C 0.07977 0.49417 0.66056 0.0
C850 C 0.07915 0.51462 0.63498 0.0
C851 C 0.08241 0.53636 0.6562 0.0
C852 C 0.08581 0.53746 0.70381 0.0
H853 H 0.2289 0.34134 0.39489 0.0
H854 H 0.16864 0.32987 0.48021 0.0
H855 H 0.19391 0.32287 0.54615 0.0
H856 H 0.26689 0.29903 0.44927 0.0
H857 H 0.29226 0.31708 0.44569 0.0
H858 H 0.26965 0.31977 0.40375 0.0
H859 H 0.26615 0.36352 0.42163 0.0
H860 H 0.28874 0.36097 0.46355 0.0
H861 H 0.26099 0.3727 0.47942 0.0
H862 H 0.22471 0.3174 0.60254 0.0
H863 H 0.25995 0.3164 0.64914 0.0
H864 H 0.30126 0.33338 0.53011 0.0
C865 C 0.22115 0.33715 0.42743 0.0
C866 C 0.19685 0.33605 0.43256 0.0
C867 C 0.18721 0.33089 0.47567 0.0
C868 C 0.20141 0.32676 0.51327 0.0
C869 C 0.22523 0.32811 0.50736 0.0
C870 C 0.23514 0.33339 0.46581 0.0
C871 C 0.26129 0.33505 0.46998 0.0
C872 C 0.27322 0.31663 0.44041 0.0
C873 C 0.26979 0.35952 0.45794 0.0
C874 C 0.26437 0.32996 0.52034 0.0
C875 C 0.24329 0.32574 0.54087 0.0
C876 C 0.24136 0.32068 0.58697 0.0
C877 C 0.26153 0.32013 0.61314 0.0
C878 C 0.28337 0.32485 0.59332 0.0
C879 C 0.2848 0.32971 0.54618 0.0
H880 H 0.1042 0.18865 0.48133 0.0
H881 H 0.1294 0.14397 0.37315 0.0
H882 H 0.14388 0.17781 0.33174 0.0
H883 H 0.08399 0.23292 0.41112 0.0
H884 H 0.09269 0.25664 0.44707 0.0
H885 H 0.08649 0.22883 0.47178 0.0
H886 H 0.12715 0.22798 0.50883 0.0
H887 H 0.13344 0.25591 0.48445 0.0
H888 H 0.15243 0.23179 0.47368 0.0
H889 H 0.15103 0.21572 0.29697 0.0
H890 H 0.15313 0.25654 0.27301 0.0
H891 H 0.12538 0.27788 0.40371 0.0
C892 C 0.11325 0.186 0.44949 0.0
C893 C 0.11554 0.1636 0.4305 0.0
C894 C 0.12723 0.1609 0.38837 0.0
C895 C 0.13564 0.18003 0.36454 0.0
C896 C 0.13251 0.20186 0.38335 0.0
C897 C 0.12189 0.20505 0.42506 0.0
C898 C 0.11972 0.23066 0.43593 0.0
C899 C 0.09421 0.23766 0.4418 0.0
C900 C 0.13404 0.23695 0.47824 0.0
C901 C 0.13007 0.24119 0.39314 0.0
C902 C 0.13737 0.22415 0.36345 0.0
C903 C 0.14582 0.22928 0.32022 0.0
C904 C 0.14681 0.25247 0.3068 0.0
C905 C 0.13962 0.27028 0.33665 0.0
C906 C 0.13142 0.26458 0.38062 0.0
H907 H 0.00277 0.87373 0.55242 0.0
H908 H 0.97453 0.91371 0.66474 0.0
H909 H 0.01158 0.90993 0.70566 0.0
H910 H 0.0326 0.83353 0.61848 0.0
H911 H 0.05723 0.83117 0.58112 0.0
H912 H 0.02944 0.83907 0.55839 0.0
H913 H 0.0471 0.87635 0.5239 0.0
H914 H 0.07503 0.86854 0.54645 0.0
H915 H 0.0625 0.89622 0.56025 0.0
H916 H 0.04992 0.89856 0.73763 0.0
H917 H 0.08737 0.88094 0.75804 0.0
H918 H 0.09127 0.84898 0.62456 0.0
C919 C 0.00444 0.88206 0.58528 0.0
C920 C 0.98564 0.89404 0.60529 0.0
C921 C 0.9886 0.90445 0.6486 0.0
C922 C 0.00962 0.90246 0.67209 0.0
C923 C 0.0276 0.89018 0.65172 0.0
C924 C 0.0253 0.88028 0.60917 0.0
C925 C 0.04683 0.86684 0.59607 0.0
C926 C 0.04118 0.84113 0.58806 0.0
C927 C 0.05856 0.87764 0.55418 0.0
C928 C 0.06134 0.87017 0.6385 0.0
C929 C 0.04996 0.88383 0.67002 0.0
C930 C 0.05913 0.88811 0.71302 0.0
C931 C 0.08035 0.87793 0.72436 0.0
C932 C 0.09221 0.86367 0.69281 0.0
C933 C 0.08275 0.86011 0.64904 0.0
H934 H 0.39235 0.838 0.87927 0.0
H935 H 0.39267 0.82347 0.02436 0.0
H936 H 0.37967 0.78355 0.00874 0.0
H937 H 0.34234 0.80289 0.84976 0.0
H938 H 0.35478 0.79333 0.79673 0.0
H939 H 0.3624 0.82122 0.81964 0.0
H940 H 0.40581 0.81007 0.81683 0.0
H941 H 0.39835 0.78217 0.79393 0.0
H942 H 0.41543 0.78412 0.84513 0.0
H943 H 0.36753 0.74485 0.97691 0.0
H944 H 0.35945 0.70986 0.93147 0.0
H945 H 0.36878 0.74954 0.80721 0.0
C946 C 0.38947 0.82655 0.90791 0.0
C947 C 0.3933 0.83402 0.95314 0.0
C948 C 0.38965 0.81828 0.98945 0.0
C949 C 0.38225 0.79556 0.98092 0.0
C950 C 0.37873 0.78879 0.9359 0.0
C951 C 0.38235 0.8038 0.9 0.0
C952 C 0.3786 0.79193 0.85465 0.0
C953 C 0.35832 0.803 0.82868 0.0
C954 C 0.40088 0.79208 0.82597 0.0
C955 C 0.37261 0.76777 0.87059 0.0
C956 C 0.37247 0.76638 0.91756 0.0
C957 C 0.36757 0.74575 0.94011 0.0
C958 C 0.36297 0.72596 0.91395 0.0
C959 C 0.36357 0.72688 0.8657 0.0
C960 C 0.36827 0.74819 0.84397 0.0
H961 H 0.43723 0.14084 0.19821 0.0
H962 H 0.39043 0.13495 0.08295 0.0
H963 H 0.42115 0.1161 0.03845 0.0
H964 H 0.48714 0.1547 0.13462 0.0
H965 H 0.50682 0.13834 0.16969 0.0
H966 H 0.48066 0.14988 0.19392 0.0
H967 H 0.46893 0.10882 0.22081 0.0
H968 H 0.49506 0.09713 0.19646 0.0
H969 H 0.46733 0.0856 0.17996 0.0
H970 H 0.45738 0.1008 0.00422 0.0
H971 H 0.49717 0.09008 0.98237 0.0
H972 H 0.5206 0.10463 0.11982 0.0
C973 C 0.43334 0.1354 0.16377 0.0
C974 C 0.41133 0.13945 0.14419 0.0
C975 C 0.40709 0.13212 0.09887 0.0
C976 C 0.42442 0.12128 0.07327 0.0
C977 C 0.44591 0.11771 0.09345 0.0
C978 C 0.45046 0.12447 0.13768 0.0
C979 C 0.47541 0.1195 0.1504 0.0
C980 C 0.48826 0.14194 0.16287 0.0
C981 C 0.47675 0.1017 0.18921 0.0
C982 C 0.48426 0.1094 0.10605 0.0
C983 C 0.46688 0.10841 0.07379 0.0
C984 C 0.47107 0.10117 0.02933 0.0
C985 C 0.49373 0.09516 0.01722 0.0
C986 C 0.5119 0.09631 0.04949 0.0
C987 C 0.50696 0.1031 0.09471 0.0
H988 H 0.13227 0.73519 0.09145 0.0
H989 H 0.15714 0.75417 0.22556 0.0
H990 H 0.15313 0.79548 0.20606 0.0
H991 H 0.15677 0.7867 0.02788 0.0
H992 H 0.13138 0.78891 0.9925 0.0
H993 H 0.14072 0.76104 0.0131 0.0
H994 H 0.1002 0.75426 0.04836 0.0
H995 H 0.0908 0.78208 0.02825 0.0
H996 H 0.08869 0.77515 0.08794 0.0
H997 H 0.14143 0.83384 0.17713 0.0
H998 H 0.12222 0.86709 0.14101 0.0
H999 H 0.10352 0.82381 0.02577 0.0
C1000 C 0.13769 0.74812 0.1159 0.0
C1001 C 0.14533 0.74164 0.15973 0.0
C1002 C 0.15143 0.75891 0.19168 0.0
C1003 C 0.1493 0.78238 0.18084 0.0
C1004 C 0.14094 0.78831 0.13795 0.0
C1005 C 0.13529 0.77173 0.10581 0.0
C1006 C 0.12395 0.78272 0.06454 0.0
C1007 C 0.13911 0.77966 0.02199 0.0
C1008 C 0.09946 0.77297 0.05686 0.0
C1009 C 0.12321 0.80783 0.07946 0.0
C1010 C 0.13355 0.81069 0.12147 0.0
C1011 C 0.13361 0.83193 0.14387 0.0
C1012 C 0.12252 0.8507 0.12311 0.0
C1013 C 0.1113 0.84813 0.08051 0.0
C1014 C 0.11211 0.82645 0.05811 0.0
H1015 H 0.52393 0.88477 0.35539 0.0
H1016 H 0.50336 0.9193 0.48018 0.0
H1017 H 0.46245 0.91672 0.45686 0.0
H1018 H 0.47776 0.90901 0.28068 0.0
H1019 H 0.47403 0.88206 0.25067 0.0
H1020 H 0.50196 0.88966 0.2736 0.0
H1021 H 0.50298 0.85109 0.31849 0.0
H1022 H 0.47512 0.8434 0.29581 0.0
H1023 H 0.47951 0.84414 0.35655 0.0
H1024 H 0.42412 0.90753 0.42426 0.0
H1025 H 0.39025 0.89039 0.38665 0.0
H1026 H 0.43496 0.8603 0.2835 0.0
C1027 C 0.51082 0.89231 0.37717 0.0
C1028 C 0.51677 0.90245 0.41939 0.0
C1029 C 0.49914 0.91152 0.44767 0.0
C1030 C 0.47589 0.91026 0.43458 0.0
C1031 C 0.47053 0.89977 0.39321 0.0
C1032 C 0.48743 0.89087 0.36492 0.0
C1033 C 0.47676 0.87835 0.32463 0.0
C1034 C 0.483 0.8905 0.27973 0.0
C1035 C 0.48402 0.85273 0.32386 0.0
C1036 C 0.45125 0.88104 0.33549 0.0
C1037 C 0.44812 0.89384 0.37476 0.0
C1038 C 0.4263 0.89767 0.39323 0.0
C1039 C 0.40715 0.88777 0.3716 0.0
C1040 C 0.40988 0.87395 0.33206 0.0
C1041 C 0.43224 0.87099 0.3133 0.0
H1042 H 0.40308 0.17784 0.53288 0.0
H1043 H 0.37737 0.13008 0.63533 0.0
H1044 H 0.35489 0.16158 0.67018 0.0
H1045 H 0.41209 0.22389 0.60511 0.0
H1046 H 0.40315 0.24619 0.56597 0.0
H1047 H 0.41439 0.21931 0.54455 0.0
H1048 H 0.37711 0.21329 0.49702 0.0
H1049 H 0.36573 0.24026 0.51831 0.0
H1050 H 0.34933 0.21394 0.5249 0.0
H1051 H 0.33999 0.19848 0.70047 0.0
H1052 H 0.33335 0.23887 0.7242 0.0
H1053 H 0.36738 0.26327 0.60175 0.0
C1054 C 0.39232 0.17387 0.56203 0.0
C1055 C 0.39205 0.15143 0.58134 0.0
C1056 C 0.37795 0.14709 0.61988 0.0
C1057 C 0.36498 0.16485 0.63981 0.0
C1058 C 0.36606 0.18685 0.62061 0.0
C1059 C 0.37923 0.19144 0.58241 0.0
C1060 C 0.37898 0.21706 0.57111 0.0
C1061 C 0.40361 0.2272 0.57175 0.0
C1062 C 0.36707 0.22139 0.5251 0.0
C1063 C 0.3645 0.22625 0.61018 0.0
C1064 C 0.35697 0.20842 0.63789 0.0
C1065 C 0.3453 0.21256 0.67855 0.0
C1066 C 0.34168 0.23552 0.69181 0.0
C1067 C 0.34957 0.25405 0.66444 0.0
C1068 C 0.3606 0.24936 0.62255 0.0
H1069 H 0.09294 0.14248 0.87191 0.0
H1070 H 0.08019 0.14026 0.72624 0.0
H1071 H 0.04047 0.12636 0.74077 0.0
H1072 H 0.05876 0.09183 0.90276 0.0
H1073 H 0.04822 0.10482 0.95455 0.0
H1074 H 0.07621 0.11279 0.93254 0.0
H1075 H 0.06395 0.15594 0.93224 0.0
H1076 H 0.03598 0.14811 0.95426 0.0
H1077 H 0.03813 0.16446 0.90217 0.0
H1078 H 0.00163 0.1142 0.7714 0.0
H1079 H 0.96616 0.10648 0.81546 0.0
H1080 H 0.00419 0.1178 0.94115 0.0
C1081 C 0.08194 0.13881 0.84295 0.0
C1082 C 0.0898 0.14229 0.79787 0.0
C1083 C 0.07464 0.13762 0.76106 0.0
C1084 C 0.05205 0.12966 0.76897 0.0
C1085 C 0.04485 0.12658 0.81385 0.0
C1086 C 0.05932 0.13109 0.85022 0.0
C1087 C 0.04698 0.1277 0.8952 0.0
C1088 C 0.05821 0.10812 0.92289 0.0
C1089 C 0.04621 0.1504 0.92256 0.0
C1090 C 0.02318 0.12087 0.87849 0.0
C1091 C 0.02237 0.12006 0.83149 0.0
C1092 C 0.00208 0.11468 0.80823 0.0
C1093 C 0.98201 0.11032 0.83365 0.0
C1094 C 0.98229 0.11155 0.8819 0.0
C1095 C 0.00331 0.11665 0.9044 0.0
H1096 H 0.85685 0.73017 0.61692 0.0
H1097 H 0.83433 0.75126 0.7516 0.0
H1098 H 0.84314 0.7919 0.73273 0.0
H1099 H 0.9046 0.76572 0.61266 0.0
H1100 H 0.9026 0.77276 0.553 0.0
H1101 H 0.89089 0.74591 0.57366 0.0
H1102 H 0.85082 0.75626 0.53976 0.0
H1103 H 0.86247 0.78311 0.51852 0.0
H1104 H 0.83732 0.78332 0.5548 0.0
H1105 H 0.85848 0.82936 0.70289 0.0
H1106 H 0.87893 0.8611 0.66371 0.0
H1107 H 0.89232 0.81555 0.549 0.0
C1108 C 0.85305 0.74345 0.64185 0.0
C1109 C 0.84472 0.73761 0.68558 0.0
C1110 C 0.84064 0.75538 0.71783 0.0
C1111 C 0.84553 0.77852 0.7074 0.0
C1112 C 0.8545 0.78363 0.66457 0.0
C1113 C 0.85809 0.76664 0.63215 0.0
C1114 C 0.86997 0.77643 0.59039 0.0
C1115 C 0.8934 0.7645 0.58197 0.0
C1116 C 0.8542 0.77468 0.54838 0.0
C1117 C 0.87314 0.80136 0.60505 0.0
C1118 C 0.8638 0.80523 0.64764 0.0
C1119 C 0.8656 0.82663 0.66924 0.0
C1120 C 0.87733 0.84454 0.64676 0.0
C1121 C 0.88731 0.84088 0.60327 0.0
C1122 C 0.8849 0.819 0.58216 0.0
H1123 H 0.93588 0.14065 0.29475 0.0
H1124 H 0.89193 0.13001 0.41296 0.0
H1125 H 0.92539 0.11502 0.45569 0.0
H1126 H 0.97297 0.08931 0.31247 0.0
H1127 H 0.99862 0.10421 0.29351 0.0
H1128 H 0.97075 0.11203 0.27064 0.0
H1129 H 0.97751 0.15459 0.29498 0.0
H1130 H 0.0053 0.14691 0.31803 0.0
H1131 H 0.98415 0.16099 0.35362 0.0
H1132 H 0.96401 0.10527 0.48815 0.0
H1133 H 0.00522 0.09997 0.50739 0.0
H1134 H 0.0241 0.11575 0.36775 0.0
C1135 C 0.93317 0.13485 0.3294 0.0
C1136 C 0.91121 0.13658 0.35044 0.0
C1137 C 0.90851 0.12887 0.39596 0.0
C1138 C 0.92742 0.12027 0.42055 0.0
C1139 C 0.94887 0.11925 0.39906 0.0
C1140 C 0.95183 0.12611 0.35439 0.0
C1141 C 0.97696 0.12434 0.34009 0.0
C1142 C 0.98 0.1064 0.30191 0.0
C1143 C 0.98654 0.14812 0.32586 0.0
C1144 C 0.98776 0.11607 0.38415 0.0
C1145 C 0.97121 0.11312 0.41763 0.0
C1146 C 0.9771 0.10715 0.46206 0.0
C1147 C 0.00055 0.10429 0.4727 0.0
C1148 C 0.01783 0.10731 0.439 0.0
C1149 C 0.01125 0.11293 0.39401 0.0
H1150 H 0.62089 0.23636 0.1944 0.0
H1151 H 0.66024 0.26644 0.08304 0.0
H1152 H 0.65624 0.23011 0.03988 0.0
H1153 H 0.64367 0.17728 0.18305 0.0
H1154 H 0.61623 0.16411 0.1964 0.0
H1155 H 0.62361 0.19189 0.22023 0.0
H1156 H 0.58602 0.2094 0.18674 0.0
H1157 H 0.57852 0.18173 0.16286 0.0
H1158 H 0.5804 0.20681 0.12657 0.0
H1159 H 0.64551 0.19201 0.0063 0.0
H1160 H 0.62881 0.15436 0.98444 0.0
H1161 H 0.59702 0.14833 0.11779 0.0
C1162 C 0.62894 0.23527 0.16118 0.0
C1163 C 0.6409 0.25436 0.14222 0.0
C1164 C 0.65098 0.25214 0.09843 0.0
C1165 C 0.64887 0.23153 0.07364 0.0
C1166 C 0.63677 0.21319 0.09314 0.0
C1167 C 0.62704 0.21479 0.13597 0.0
C1168 C 0.61398 0.19288 0.14813 0.0
C1169 C 0.62504 0.18083 0.1894 0.0
C1170 C 0.5882 0.19802 0.15656 0.0
C1171 C 0.61746 0.17891 0.105 0.0
C1172 C 0.63078 0.19095 0.07387 0.0
C1173 C 0.63528 0.1823 0.03055 0.0
C1174 C 0.62565 0.16095 0.01841 0.0
C1175 C 0.61171 0.1484 0.04949 0.0
C1176 C 0.60793 0.15735 0.09364 0.0
H1177 H 0.56193 0.86128 0.78189 0.0
H1178 H 0.60759 0.89383 0.88041 0.0
H1179 H 0.57396 0.9104 0.91976 0.0
H1180 H 0.51758 0.90882 0.78033 0.0
H1181 H 0.49398 0.88858 0.77555 0.0
H1182 H 0.52175 0.88172 0.75104 0.0
H1183 H 0.52278 0.84355 0.79724 0.0
H1184 H 0.49517 0.85035 0.8221 0.0
H1185 H 0.51969 0.84459 0.8583 0.0
H1186 H 0.53605 0.91862 0.95509 0.0
H1187 H 0.4955 0.92028 0.98125 0.0
H1188 H 0.47368 0.88413 0.85909 0.0
C1189 C 0.56487 0.87243 0.81094 0.0
C1190 C 0.58745 0.8762 0.82801 0.0
C1191 C 0.5905 0.89058 0.86668 0.0
C1192 C 0.5715 0.90017 0.88927 0.0
C1193 C 0.54948 0.8955 0.87259 0.0
C1194 C 0.546 0.88226 0.83398 0.0
C1195 C 0.52037 0.87865 0.82529 0.0
C1196 C 0.51299 0.89013 0.78038 0.0
C1197 C 0.51415 0.85275 0.82578 0.0
C1198 C 0.51015 0.89117 0.86597 0.0
C1199 C 0.52729 0.90087 0.89263 0.0
C1200 C 0.5224 0.91157 0.93404 0.0
C1201 C 0.49936 0.91231 0.94875 0.0
C1202 C 0.4815 0.90257 0.92196 0.0
C1203 C 0.48697 0.89217 0.87973 0.0
H1204 H 0.87178 0.25856 0.79966 0.0
H1205 H 0.85468 0.29252 0.92734 0.0
H1206 H 0.86141 0.25598 0.96834 0.0
H1207 H 0.84534 0.20269 0.82765 0.0
H1208 H 0.86768 0.18639 0.79929 0.0
H1209 H 0.86024 0.21493 0.77941 0.0
H1210 H 0.90302 0.22768 0.78785 0.0
H1211 H 0.91058 0.19922 0.80775 0.0
H1212 H 0.91734 0.22421 0.84196 0.0
H1213 H 0.87295 0.21675 0.9964 0.0
H1214 H 0.88725 0.17699 0.00901 0.0
H1215 H 0.89552 0.16812 0.86314 0.0
C1216 C 0.86922 0.25831 0.83617 0.0
C1217 C 0.86273 0.27851 0.86016 0.0
C1218 C 0.85962 0.27734 0.90803 0.0
C1219 C 0.86338 0.25663 0.93172 0.0
C1220 C 0.87002 0.23716 0.9071 0.0
C1221 C 0.87273 0.23774 0.86037 0.0
C1222 C 0.88063 0.2145 0.84226 0.0
C1223 C 0.86238 0.20401 0.81026 0.0
C1224 C 0.9043 0.21653 0.81858 0.0
C1225 C 0.88239 0.20093 0.88624 0.0
C1226 C 0.87615 0.21431 0.92323 0.0
C1227 C 0.8776 0.20599 0.96766 0.0
C1228 C 0.88581 0.18343 0.9745 0.0
C1229 C 0.89233 0.16942 0.93706 0.0
C1230 C 0.89029 0.17827 0.89238 0.0
H1231 H 0.59827 0.14785 0.63676 0.0
H1232 H 0.58305 0.14218 0.78112 0.0
H1233 H 0.54475 0.12561 0.76265 0.0
H1234 H 0.54201 0.16602 0.60363 0.0
H1235 H 0.54254 0.15053 0.55037 0.0
H1236 H 0.56915 0.16054 0.57536 0.0
H1237 H 0.58542 0.11875 0.57319 0.0
H1238 H 0.55879 0.10858 0.5484 0.0
H1239 H 0.56949 0.09571 0.60019 0.0
H1240 H 0.50777 0.10982 0.72766 0.0
H1241 H 0.47429 0.09922 0.67963 0.0
H1242 H 0.51373 0.11697 0.55872 0.0
C1243 C 0.58701 0.14302 0.66466 0.0
C1244 C 0.59386 0.14606 0.71048 0.0
C1245 C 0.57833 0.13982 0.74576 0.0
C1246 C 0.55654 0.13035 0.7356 0.0
C1247 C 0.55045 0.12749 0.69 0.0
C1248 C 0.56519 0.13386 0.65516 0.0
C1249 C 0.55418 0.13016 0.609 0.0
C1250 C 0.55183 0.15318 0.58309 0.0
C1251 C 0.56778 0.11223 0.58106 0.0
C1252 C 0.53083 0.12083 0.62322 0.0
C1253 C 0.52907 0.11913 0.67003 0.0
C1254 C 0.50898 0.11109 0.69098 0.0
C1255 C 0.49008 0.10503 0.66337 0.0
C1256 C 0.49132 0.10731 0.61535 0.0
C1257 C 0.51214 0.11506 0.59527 0.0
H1258 H 0.63314 0.75132 0.29982 0.0
H1259 H 0.64265 0.71124 0.42348 0.0
H1260 H 0.63364 0.74591 0.46939 0.0
H1261 H 0.65821 0.80496 0.34332 0.0
H1262 H 0.6379 0.82288 0.31287 0.0
H1263 H 0.64619 0.79515 0.29007 0.0
H1264 H 0.60305 0.78304 0.28638 0.0
H1265 H 0.59464 0.81065 0.30935 0.0
H1266 H 0.58563 0.78437 0.33724 0.0
H1267 H 0.62053 0.78437 0.50155 0.0
H1268 H 0.60675 0.82399 0.51742 0.0
H1269 H 0.60749 0.83904 0.37255 0.0
C1270 C 0.63353 0.74981 0.33656 0.0
C1271 C 0.63854 0.72848 0.35798 0.0
C1272 C 0.63893 0.72737 0.40621 0.0
C1273 C 0.63379 0.74697 0.4326 0.0
C1274 C 0.62857 0.76761 0.4103 0.0
C1275 C 0.62867 0.76921 0.36336 0.0
C1276 C 0.62216 0.79329 0.34764 0.0
C1277 C 0.64232 0.80474 0.32197 0.0
C1278 C 0.60006 0.79279 0.31844 0.0
C1279 C 0.61792 0.80491 0.39305 0.0
C1280 C 0.62169 0.78984 0.42881 0.0
C1281 C 0.61785 0.79641 0.47383 0.0
C1282 C 0.61002 0.81899 0.4825 0.0
C1283 C 0.6063 0.83482 0.44635 0.0
C1284 C 0.61041 0.82754 0.40109 0.0
H1285 H 0.90675 0.84528 0.11289 0.0
H1286 H 0.91166 0.86932 0.2525 0.0
H1287 H 0.94818 0.88938 0.23431 0.0
H1288 H 0.96544 0.83215 0.10109 0.0
H1289 H 0.96783 0.84104 0.04246 0.0
H1290 H 0.94046 0.83124 0.06436 0.0
H1291 H 0.92123 0.86964 0.03903 0.0
H1292 H 0.94857 0.87953 0.0168 0.0
H1293 H 0.93319 0.89679 0.05798 0.0
H1294 H 0.98539 0.90405 0.20326 0.0
H1295 H 0.02164 0.91167 0.16187 0.0
H1296 H 0.9935 0.87714 0.04262 0.0
C1297 C 0.91525 0.85526 0.13922 0.0
C1298 C 0.90636 0.85593 0.18398 0.0
C1299 C 0.91823 0.86863 0.21797 0.0
C1300 C 0.93891 0.88015 0.20793 0.0
C1301 C 0.94754 0.87873 0.16379 0.0
C1302 C 0.93615 0.86662 0.12992 0.0
C1303 C 0.95026 0.86614 0.08643 0.0
C1304 C 0.95636 0.84116 0.07281 0.0
C1305 C 0.93755 0.87879 0.04778 0.0
C1306 C 0.97153 0.87943 0.10153 0.0
C1307 C 0.96944 0.88679 0.14606 0.0
C1308 C 0.98718 0.89857 0.16822 0.0
C1309 C 0.00774 0.90276 0.14436 0.0
C1310 C 0.01051 0.89501 0.09889 0.0
C1311 C 0.99196 0.88342 0.07718 0.0
H1312 H 0.62485 0.7599 0.79492 0.0
H1313 H 0.6499 0.79233 0.91902 0.0
H1314 H 0.64381 0.75583 0.96056 0.0
H1315 H 0.58033 0.72669 0.84628 0.0
H1316 H 0.58437 0.70178 0.81021 0.0
H1317 H 0.59162 0.73018 0.78948 0.0
H1318 H 0.63327 0.71631 0.77144 0.0
H1319 H 0.62613 0.68783 0.79205 0.0
H1320 H 0.6504 0.70324 0.81582 0.0
H1321 H 0.63309 0.71656 0.98978 0.0
H1322 H 0.61955 0.67671 0.00399 0.0
H1323 H 0.60231 0.66948 0.86078 0.0
C1324 C 0.62923 0.75934 0.83075 0.0
C1325 C 0.63781 0.7791 0.8536 0.0
C1326 C 0.64327 0.77751 0.9006 0.0
C1327 C 0.6399 0.75682 0.92458 0.0
C1328 C 0.6312 0.73779 0.90112 0.0
C1329 C 0.62606 0.73879 0.85522 0.0
C1330 C 0.61651 0.71593 0.83833 0.0
C1331 C 0.59174 0.71883 0.82001 0.0
C1332 C 0.63254 0.7052 0.80228 0.0
C1333 C 0.6168 0.70205 0.88207 0.0
C1334 C 0.62534 0.71499 0.91787 0.0
C1335 C 0.62652 0.70619 0.96196 0.0
C1336 C 0.61869 0.68358 0.96972 0.0
C1337 C 0.60989 0.66996 0.93351 0.0
C1338 C 0.60914 0.67936 0.88909 0.0
H1339 H 0.48051 0.38392 0.14696 0.0
H1340 H 0.50435 0.41664 0.02277 0.0
H1341 H 0.54482 0.40889 0.04464 0.0
H1342 H 0.53148 0.40082 0.22117 0.0
H1343 H 0.53132 0.37316 0.24951 0.0
H1344 H 0.50461 0.38551 0.22912 0.0
H1345 H 0.49666 0.34821 0.18282 0.0
H1346 H 0.5234 0.33587 0.2025 0.0
H1347 H 0.5179 0.33831 0.14228 0.0
H1348 H 0.58164 0.39264 0.07312 0.0
H1349 H 0.61296 0.36967 0.1076 0.0
H1350 H 0.56568 0.34637 0.21309 0.0
C1351 C 0.49435 0.3903 0.12551 0.0
C1352 C 0.48947 0.40122 0.08362 0.0
C1353 C 0.50787 0.40848 0.05526 0.0
C1354 C 0.53088 0.40419 0.06742 0.0
C1355 C 0.53518 0.39253 0.10802 0.0
C1356 C 0.5175 0.38582 0.13692 0.0
C1357 C 0.52673 0.37112 0.17566 0.0
C1358 C 0.52333 0.38339 0.22159 0.0
C1359 C 0.5155 0.34695 0.17578 0.0
C1360 C 0.55212 0.36988 0.16292 0.0
C1361 C 0.55665 0.38266 0.1242 0.0
C1362 C 0.57844 0.38289 0.10394 0.0
C1363 C 0.59609 0.36965 0.12365 0.0
C1364 C 0.59185 0.3562 0.16313 0.0
C1365 C 0.56959 0.35663 0.18322 0.0
H1366 H 0.86894 0.22477 0.40335 0.0
H1367 H 0.83512 0.24529 0.27798 0.0
H1368 H 0.83616 0.28613 0.30259 0.0
H1369 H 0.84349 0.27038 0.47911 0.0
H1370 H 0.87034 0.27454 0.50925 0.0
H1371 H 0.86328 0.24653 0.48607 0.0
H1372 H 0.90192 0.24632 0.44136 0.0
H1373 H 0.90906 0.27428 0.46428 0.0
H1374 H 0.90847 0.26999 0.4035 0.0
H1375 H 0.84416 0.32425 0.33581 0.0
H1376 H 0.8608 0.35834 0.3733 0.0
H1377 H 0.89156 0.3142 0.47664 0.0
C1378 C 0.86116 0.23788 0.38191 0.0
C1379 C 0.8516 0.23206 0.33917 0.0
C1380 C 0.84232 0.24956 0.31099 0.0
C1381 C 0.84273 0.27271 0.3248 0.0
C1382 C 0.85271 0.27805 0.36668 0.0
C1383 C 0.86189 0.26123 0.39483 0.0
C1384 C 0.87417 0.27203 0.4353 0.0
C1385 C 0.86209 0.26548 0.48009 0.0
C1386 C 0.89992 0.26525 0.43612 0.0
C1387 C 0.87104 0.29753 0.42465 0.0
C1388 C 0.85818 0.30048 0.38539 0.0
C1389 C 0.85405 0.32221 0.36684 0.0
C1390 C 0.86372 0.34147 0.38835 0.0
C1391 C 0.87759 0.33896 0.42786 0.0
C1392 C 0.88083 0.3167 0.44682 0.0
H1393 H 0.90586 0.65247 0.62438 0.0
H1394 H 0.9125 0.62963 0.76462 0.0
H1395 H 0.95128 0.61411 0.74782 0.0
H1396 H 0.93706 0.60399 0.5721 0.0
H1397 H 0.95084 0.6221 0.53016 0.0
H1398 H 0.92278 0.6298 0.55216 0.0
H1399 H 0.93858 0.66998 0.57606 0.0
H1400 H 0.96667 0.66239 0.55421 0.0
H1401 H 0.96362 0.67161 0.61253 0.0
H1402 H 0.98994 0.60257 0.71704 0.0
H1403 H 0.02639 0.59692 0.67479 0.0
H1404 H 0.99504 0.62802 0.55501 0.0
C1405 C 0.91534 0.64389 0.65134 0.0
C1406 C 0.90612 0.64223 0.69577 0.0
C1407 C 0.91923 0.6312 0.73034 0.0
C1408 C 0.94124 0.62222 0.72112 0.0
C1409 C 0.94997 0.62443 0.67718 0.0
C1410 C 0.93748 0.63501 0.64284 0.0
C1411 C 0.95143 0.63629 0.59926 0.0
C1412 C 0.93983 0.6222 0.56117 0.0
C1413 C 0.9553 0.66157 0.58468 0.0
C1414 C 0.97379 0.62508 0.61472 0.0
C1415 C 0.97249 0.61813 0.65962 0.0
C1416 C 0.99115 0.60781 0.68175 0.0
C1417 C 0.0118 0.60469 0.65743 0.0
C1418 C 0.01368 0.61203 0.61153 0.0
C1419 C 0.99425 0.62217 0.58999 0.0
H1420 H 0.64379 0.23211 0.6232 0.0
H1421 H 0.66122 0.25375 0.76052 0.0
H1422 H 0.65117 0.29401 0.74083 0.0
H1423 H 0.66333 0.28557 0.56413 0.0
H1424 H 0.63953 0.28458 0.52453 0.0
H1425 H 0.65119 0.25811 0.54749 0.0
H1426 H 0.61036 0.24659 0.57607 0.0
H1427 H 0.59862 0.27305 0.5536 0.0
H1428 H 0.59473 0.26605 0.61291 0.0
H1429 H 0.63567 0.33107 0.70869 0.0
H1430 H 0.61586 0.3622 0.66645 0.0
H1431 H 0.60785 0.31617 0.55055 0.0
C1432 C 0.64611 0.2454 0.64877 0.0
C1433 C 0.65344 0.23978 0.69333 0.0
C1434 C 0.65569 0.25763 0.72613 0.0
C1435 C 0.65009 0.28058 0.71524 0.0
C1436 C 0.64228 0.28541 0.6714 0.0
C1437 C 0.6404 0.26836 0.63859 0.0
C1438 C 0.62973 0.27775 0.59527 0.0
C1439 C 0.64698 0.27642 0.55551 0.0
C1440 C 0.60702 0.26511 0.58383 0.0
C1441 C 0.62532 0.30257 0.6093 0.0
C1442 C 0.63296 0.30673 0.6531 0.0
C1443 C 0.62985 0.32811 0.67416 0.0
C1444 C 0.61851 0.34567 0.64989 0.0
C1445 C 0.61023 0.34169 0.60514 0.0
C1446 C 0.61398 0.31986 0.58462 0.0
H1447 H 0.0299 0.37872 0.85345 0.0
H1448 H 0.01167 0.41347 0.97934 0.0
H1449 H 0.97055 0.41303 0.95694 0.0
H1450 H 0.9846 0.40525 0.78013 0.0
H1451 H 0.9792 0.37863 0.74997 0.0
H1452 H 0.00764 0.3846 0.77233 0.0
H1453 H 0.00678 0.34594 0.81696 0.0
H1454 H 0.97843 0.33986 0.7947 0.0
H1455 H 0.98314 0.34018 0.85537 0.0
H1456 H 0.93175 0.40646 0.92477 0.0
H1457 H 0.89676 0.39137 0.88781 0.0
H1458 H 0.93911 0.35892 0.78356 0.0
C1459 C 0.01724 0.38667 0.87568 0.0
C1460 C 0.02387 0.39634 0.91791 0.0
C1461 C 0.00687 0.40602 0.94684 0.0
C1462 C 0.98352 0.406 0.93426 0.0
C1463 C 0.97744 0.39604 0.8928 0.0
C1464 C 0.9937 0.38637 0.86401 0.0
C1465 C 0.98213 0.37458 0.82382 0.0
C1466 C 0.98879 0.38648 0.7789 0.0
C1467 C 0.98797 0.3486 0.82268 0.0
C1468 C 0.95685 0.37864 0.83525 0.0
C1469 C 0.95466 0.39147 0.87472 0.0
C1470 C 0.9332 0.39655 0.89363 0.0
C1471 C 0.91341 0.38781 0.87237 0.0
C1472 C 0.91513 0.37389 0.83276 0.0
C1473 C 0.93717 0.36972 0.81344 0.0
H1474 H 0.87783 0.74008 0.2022 0.0
H1475 H 0.83022 0.76523 0.09897 0.0
H1476 H 0.83388 0.72827 0.05778 0.0
H1477 H 0.91581 0.71231 0.12677 0.0
H1478 H 0.92197 0.68812 0.16357 0.0
H1479 H 0.91385 0.71556 0.1877 0.0
H1480 H 0.88017 0.69586 0.23115 0.0
H1481 H 0.88819 0.66831 0.2071 0.0
H1482 H 0.85915 0.6791 0.20002 0.0
H1483 H 0.84448 0.6902 0.02515 0.0
H1484 H 0.86244 0.65354 0.00159 0.0
H1485 H 0.90372 0.65274 0.12465 0.0
C1486 C 0.86786 0.73768 0.17135 0.0
C1487 C 0.85365 0.75554 0.15392 0.0
C1488 C 0.84122 0.75184 0.11298 0.0
C1489 C 0.84309 0.73086 0.08946 0.0
C1490 C 0.85742 0.71375 0.10729 0.0
C1491 C 0.86963 0.71687 0.14724 0.0
C1492 C 0.88508 0.69627 0.15722 0.0
C1493 C 0.91069 0.70351 0.15889 0.0
C1494 C 0.8777 0.68417 0.2015 0.0
C1495 C 0.88002 0.68132 0.11604 0.0
C1496 C 0.86382 0.69168 0.08803 0.0
C1497 C 0.85711 0.68188 0.04687 0.0
C1498 C 0.86757 0.66117 0.03349 0.0
C1499 C 0.88461 0.65051 0.06093 0.0
C1500 C 0.89054 0.66045 0.10326 0.0
H1501 H 0.5638 0.64916 0.27064 0.0
H1502 H 0.61062 0.61278 0.36156 0.0
H1503 H 0.57754 0.59417 0.39899 0.0
H1504 H 0.52221 0.66203 0.35045 0.0
H1505 H 0.49735 0.65752 0.31448 0.0
H1506 H 0.52463 0.66552 0.28963 0.0
H1507 H 0.52339 0.6293 0.23774 0.0
H1508 H 0.49593 0.62126 0.26221 0.0
H1509 H 0.51971 0.60109 0.26291 0.0
H1510 H 0.54013 0.58465 0.43501 0.0
H1511 H 0.49994 0.58217 0.46321 0.0
H1512 H 0.47649 0.62247 0.34751 0.0
C1513 C 0.5671 0.63674 0.29747 0.0
C1514 C 0.58986 0.63254 0.31317 0.0
C1515 C 0.59338 0.61644 0.34897 0.0
C1516 C 0.57469 0.60566 0.37044 0.0
C1517 C 0.55248 0.61083 0.35544 0.0
C1518 C 0.54852 0.62566 0.31931 0.0
C1519 C 0.52277 0.6294 0.31227 0.0
C1520 C 0.51638 0.65514 0.31701 0.0
C1521 C 0.515 0.61967 0.26603 0.0
C1522 C 0.51305 0.61519 0.3513 0.0
C1523 C 0.53054 0.60453 0.37556 0.0
C1524 C 0.5262 0.59239 0.41567 0.0
C1525 C 0.50338 0.59117 0.43157 0.0
C1526 C 0.48518 0.60182 0.40715 0.0
C1527 C 0.49006 0.61366 0.36614 0.0
H1528 H 0.40536 0.34159 0.14386 0.0
H1529 H 0.36897 0.34227 0.0149 0.0
H1530 H 0.34918 0.30588 0.03539 0.0
H1531 H 0.41755 0.28327 0.1426 0.0
H1532 H 0.41416 0.27831 0.20282 0.0
H1533 H 0.42213 0.30655 0.18246 0.0
H1534 H 0.38691 0.32452 0.22404 0.0
H1535 H 0.3789 0.29628 0.24486 0.0
H1536 H 0.35832 0.31332 0.21322 0.0
H1537 H 0.33714 0.26751 0.0649 0.0
H1538 H 0.33413 0.22913 0.10085 0.0
H1539 H 0.3792 0.25228 0.21017 0.0
C1540 C 0.39259 0.33442 0.12086 0.0
C1541 C 0.38834 0.34474 0.07816 0.0
C1542 C 0.37223 0.33457 0.04792 0.0
C1543 C 0.36086 0.314 0.05934 0.0
C1544 C 0.3659 0.30376 0.10108 0.0
C1545 C 0.38132 0.3136 0.1315 0.0
C1546 C 0.38564 0.29764 0.17158 0.0
C1547 C 0.41139 0.29106 0.17503 0.0
C1548 C 0.37691 0.3086 0.21606 0.0
C1549 C 0.3709 0.27704 0.15806 0.0
C1550 C 0.35934 0.28113 0.11771 0.0
C1551 C 0.34583 0.2642 0.09688 0.0
C1552 C 0.3443 0.24239 0.11753 0.0
C1553 C 0.35639 0.23759 0.15843 0.0
C1554 C 0.36953 0.25538 0.17919 0.0
H1555 H 0.43766 0.64479 0.7765 0.0
H1556 H 0.39335 0.61385 0.87937 0.0
H1557 H 0.42728 0.5963 0.91575 0.0
H1558 H 0.48037 0.59556 0.77186 0.0
H1559 H 0.50446 0.61499 0.76442 0.0
H1560 H 0.47637 0.62258 0.74224 0.0
H1561 H 0.47765 0.66106 0.78741 0.0
H1562 H 0.50557 0.65353 0.80998 0.0
H1563 H 0.48211 0.66031 0.84816 0.0
H1564 H 0.46563 0.58735 0.94817 0.0
H1565 H 0.50662 0.58494 0.97123 0.0
H1566 H 0.52677 0.61964 0.84637 0.0
C1567 C 0.43504 0.63379 0.80589 0.0
C1568 C 0.41279 0.63082 0.82506 0.0
C1569 C 0.41018 0.61654 0.86402 0.0
C1570 C 0.42936 0.60637 0.88496 0.0
C1571 C 0.45109 0.61031 0.86627 0.0
C1572 C 0.45409 0.62334 0.82723 0.0
C1573 C 0.47959 0.62609 0.81619 0.0
C1574 C 0.48554 0.61408 0.77099 0.0
C1575 C 0.48663 0.65177 0.81542 0.0
C1576 C 0.49033 0.61347 0.85624 0.0
C1577 C 0.47353 0.60438 0.8845 0.0
C1578 C 0.479 0.59387 0.92582 0.0
C1579 C 0.50229 0.5927 0.93876 0.0
C1580 C 0.51981 0.60183 0.91032 0.0
C1581 C 0.51374 0.61201 0.86822 0.0
H1582 H 0.10891 0.68564 0.54586 0.0
H1583 H 0.12097 0.63939 0.66006 0.0
H1584 H 0.13904 0.67131 0.70259 0.0
H1585 H 0.16277 0.72042 0.56021 0.0
H1586 H 0.14837 0.7469 0.54443 0.0
H1587 H 0.13897 0.71974 0.52057 0.0
H1588 H 0.09734 0.7276 0.54949 0.0
H1589 H 0.10661 0.75466 0.57357 0.0
H1590 H 0.09267 0.7334 0.6091 0.0
H1591 H 0.15082 0.70894 0.73663 0.0
H1592 H 0.15722 0.74968 0.7585 0.0
H1593 H 0.139 0.77149 0.62176 0.0
C1594 C 0.11578 0.68206 0.57943 0.0
C1595 C 0.11345 0.65994 0.59953 0.0
C1596 C 0.12253 0.65612 0.64376 0.0
C1597 C 0.13289 0.67415 0.66824 0.0
C1598 C 0.13435 0.69585 0.64789 0.0
C1599 C 0.12631 0.69985 0.60429 0.0
C1600 C 0.12864 0.72515 0.5915 0.0
C1601 C 0.14571 0.72823 0.55182 0.0
C1602 C 0.10491 0.73582 0.58028 0.0
C1603 C 0.13843 0.73487 0.63536 0.0
C1604 C 0.14175 0.71763 0.66731 0.0
C1605 C 0.14876 0.72254 0.71164 0.0
C1606 C 0.15224 0.74572 0.72381 0.0
C1607 C 0.14884 0.76367 0.69169 0.0
C1608 C 0.14225 0.75808 0.6467 0.0
H1609 H 0.05822 0.35808 0.28258 0.0
H1610 H 0.10262 0.3817 0.39263 0.0
H1611 H 0.0688 0.39719 0.43278 0.0
H1612 H 0.01665 0.40767 0.28882 0.0
H1613 H 0.99209 0.38946 0.27678 0.0
H1614 H 0.02008 0.38237 0.25353 0.0
H1615 H 0.01757 0.34165 0.29006 0.0
H1616 H 0.98969 0.34864 0.31362 0.0
H1617 H 0.01273 0.33912 0.35051 0.0
H1618 H 0.03063 0.40557 0.46595 0.0
H1619 H 0.98962 0.40874 0.48814 0.0
H1620 H 0.96905 0.38162 0.35642 0.0
C1621 C 0.06087 0.36699 0.31459 0.0
C1622 C 0.08314 0.36856 0.3344 0.0
C1623 C 0.08579 0.38011 0.37671 0.0
C1624 C 0.06667 0.38909 0.39983 0.0
C1625 C 0.04495 0.38668 0.38012 0.0
C1626 C 0.04187 0.37621 0.33824 0.0
C1627 C 0.01636 0.37483 0.32622 0.0
C1628 C 0.01098 0.38946 0.28382 0.0
C1629 C 0.00864 0.34956 0.31974 0.0
C1630 C 0.00568 0.38539 0.36862 0.0
C1631 C 0.02258 0.39219 0.39908 0.0
C1632 C 0.0172 0.40074 0.4421 0.0
C1633 C 0.99388 0.40235 0.45449 0.0
C1634 C 0.97623 0.39559 0.42388 0.0
C1635 C 0.98222 0.3873 0.38014 0.0
H1636 H 0.4012 0.66813 0.3667 0.0
H1637 H 0.38796 0.67661 0.51128 0.0
H1638 H 0.37304 0.71597 0.49693 0.0
H1639 H 0.42129 0.72568 0.34764 0.0
H1640 H 0.40844 0.72815 0.29194 0.0
H1641 H 0.41695 0.70021 0.31324 0.0
H1642 H 0.37533 0.68489 0.30023 0.0
H1643 H 0.36668 0.71281 0.27893 0.0
H1644 H 0.35123 0.69985 0.32575 0.0
H1645 H 0.35997 0.7544 0.46714 0.0
H1646 H 0.35146 0.79015 0.42475 0.0
H1647 H 0.37427 0.75713 0.29959 0.0
C1648 C 0.39499 0.67819 0.39532 0.0
C1649 C 0.39569 0.66927 0.44013 0.0
C1650 C 0.38768 0.68311 0.4767 0.0
C1651 C 0.37907 0.70544 0.46887 0.0
C1652 C 0.37872 0.71373 0.42434 0.0
C1653 C 0.38658 0.7006 0.38819 0.0
C1654 C 0.38523 0.71398 0.3439 0.0
C1655 C 0.40942 0.7172 0.32297 0.0
C1656 C 0.36862 0.70218 0.31023 0.0
C1657 C 0.37546 0.73673 0.36084 0.0
C1658 C 0.37165 0.73612 0.40726 0.0
C1659 C 0.36287 0.7551 0.43077 0.0
C1660 C 0.35808 0.77534 0.40627 0.0
C1661 C 0.36223 0.77656 0.35872 0.0
C1662 C 0.37089 0.75684 0.33583 0.0
H1663 H 0.97757 0.60833 0.12473 0.0
H1664 H 0.99892 0.59234 0.98661 0.0
H1665 H 0.03912 0.60269 0.00596 0.0
H1666 H 0.01108 0.65783 0.13576 0.0
H1667 H 0.01847 0.65369 0.19483 0.0
H1668 H 0.99202 0.64176 0.17266 0.0
H1669 H 0.00416 0.6009 0.20002 0.0
H1670 H 0.03061 0.61275 0.22272 0.0
H1671 H 0.03167 0.58919 0.18255 0.0
H1672 H 0.0759 0.6181 0.03753 0.0
H1673 H 0.10721 0.63759 0.07947 0.0
H1674 H 0.06198 0.64472 0.19688 0.0
C1675 C 0.99085 0.60637 0.099 0.0
C1676 C 0.98521 0.59936 0.05428 0.0
C1677 C 0.00291 0.59764 0.0211 0.0
C1678 C 0.0258 0.6034 0.03179 0.0
C1679 C 0.03068 0.61092 0.07578 0.0
C1680 C 0.01378 0.61235 0.10896 0.0
C1681 C 0.02329 0.62288 0.15235 0.0
C1682 C 0.01045 0.64537 0.16459 0.0
C1683 C 0.02238 0.60538 0.19174 0.0
C1684 C 0.04799 0.62767 0.1379 0.0
C1685 C 0.05194 0.62035 0.09382 0.0
C1686 C 0.07313 0.6237 0.07227 0.0
C1687 C 0.09079 0.63487 0.09639 0.0
C1688 C 0.08712 0.64276 0.14153 0.0
C1689 C 0.06541 0.6389 0.1625 0.0
H1690 H 0.1354 0.22415 0.89491 0.0
H1691 H 0.17414 0.24706 0.77668 0.0
H1692 H 0.17073 0.28749 0.80261 0.0
H1693 H 0.09484 0.26855 0.8914 0.0
H1694 H 0.09191 0.27197 0.95213 0.0
H1695 H 0.10047 0.24448 0.92885 0.0
H1696 H 0.13734 0.24479 0.979 0.0
H1697 H 0.12884 0.27231 0.00259 0.0
H1698 H 0.15681 0.26912 0.9762 0.0
H1699 H 0.16018 0.325 0.83593 0.0
H1700 H 0.14167 0.35824 0.87305 0.0
H1701 H 0.1083 0.31208 0.96957 0.0
C1702 C 0.14369 0.23767 0.87526 0.0
C1703 C 0.15526 0.23255 0.83405 0.0
C1704 C 0.16528 0.25067 0.8084 0.0
C1705 C 0.16354 0.27364 0.82299 0.0
C1706 C 0.15161 0.27822 0.86319 0.0
C1707 C 0.14178 0.26083 0.88903 0.0
C1708 C 0.12781 0.27081 0.92817 0.0
C1709 C 0.10225 0.26352 0.92491 0.0
C1710 C 0.13833 0.26384 0.97422 0.0
C1711 C 0.13077 0.29651 0.91938 0.0
C1712 C 0.14493 0.30027 0.88215 0.0
C1713 C 0.14927 0.32233 0.86541 0.0
C1714 C 0.13854 0.3411 0.88666 0.0
C1715 C 0.12346 0.33778 0.92418 0.0
C1716 C 0.11994 0.31518 0.94133 0.0
H1717 H 0.40622 0.34443 0.6104 0.0
H1718 H 0.4085 0.37164 0.74784 0.0
H1719 H 0.44489 0.39206 0.73023 0.0
H1720 H 0.46449 0.33163 0.60385 0.0
H1721 H 0.46815 0.33914 0.54472 0.0
H1722 H 0.4403 0.33 0.56521 0.0
H1723 H 0.42187 0.36789 0.535 0.0
H1724 H 0.44972 0.37711 0.51415 0.0
H1725 H 0.43361 0.39539 0.55245 0.0
H1726 H 0.48298 0.40576 0.70097 0.0
H1727 H 0.52056 0.41107 0.6625 0.0
H1728 H 0.49416 0.3742 0.54447 0.0
C1729 C 0.41406 0.35529 0.63618 0.0
C1730 C 0.40457 0.35666 0.68033 0.0
C1731 C 0.41559 0.37043 0.7138 0.0
C1732 C 0.43617 0.38219 0.70404 0.0
C1733 C 0.44555 0.37996 0.66063 0.0
C1734 C 0.43486 0.36691 0.62714 0.0
C1735 C 0.44986 0.36534 0.58497 0.0
C1736 C 0.45607 0.34003 0.57409 0.0
C1737 C 0.43806 0.37714 0.54423 0.0
C1738 C 0.47087 0.37887 0.60059 0.0
C1739 C 0.46788 0.3875 0.64401 0.0
C1740 C 0.48543 0.39938 0.66667 0.0
C1741 C 0.50676 0.40226 0.64456 0.0
C1742 C 0.51041 0.39308 0.60042 0.0
C1743 C 0.49199 0.3816 0.57806 0.0
H1744 H 0.10382 0.07717 0.57252 0.0
H1745 H 0.16081 0.09672 0.48465 0.0
H1746 H 0.18437 0.10634 0.55244 0.0
H1747 H 0.1087 0.12089 0.64919 0.0
H1748 H 0.10172 0.10402 0.69896 0.0
H1749 H 0.09113 0.09523 0.64417 0.0
H1750 H 0.11021 0.05496 0.6555 0.0
H1751 H 0.12094 0.06399 0.71035 0.0
H1752 H 0.1407 0.05315 0.66793 0.0
H1753 H 0.19803 0.12152 0.62763 0.0
H1754 H 0.20211 0.1379 0.70511 0.0
H1755 H 0.13771 0.1056 0.74515 0.0
C1756 C 0.12153 0.08279 0.56767 0.0
C1757 C 0.1306 0.08614 0.52353 0.0
C1758 C 0.15369 0.09377 0.51826 0.0
C1759 C 0.16715 0.09929 0.55656 0.0
C1760 C 0.1574 0.09653 0.59972 0.0
C1761 C 0.13526 0.08799 0.60547 0.0
C1762 C 0.12809 0.08835 0.65509 0.0
C1763 C 0.10613 0.10301 0.66221 0.0
C1764 C 0.1248 0.06364 0.67329 0.0
C1765 C 0.14911 0.09971 0.67612 0.0
C1766 C 0.16592 0.10414 0.64366 0.0
C1767 C 0.18544 0.11738 0.65366 0.0
C1768 C 0.18762 0.12662 0.6976 0.0
C1769 C 0.17062 0.12224 0.73105 0.0
C1770 C 0.15142 0.10822 0.72053 0.0
H1771 H 0.1723 0.85537 0.82939 0.0
H1772 H 0.14877 0.90602 0.73089 0.0
H1773 H 0.13289 0.92995 0.79328 0.0
H1774 H 0.12531 0.85647 0.89884 0.0
H1775 H 0.14057 0.85392 0.95212 0.0
H1776 H 0.15325 0.84264 0.90085 0.0
H1777 H 0.1899 0.86764 0.91372 0.0
H1778 H 0.17743 0.87884 0.96549 0.0
H1779 H 0.18701 0.89844 0.92162 0.0
H1780 H 0.11317 0.94395 0.86388 0.0
H1781 H 0.0947 0.94936 0.93932 0.0
H1782 H 0.13381 0.89159 0.99286 0.0
C1783 C 0.16446 0.87187 0.82121 0.0
C1784 C 0.16185 0.87902 0.77562 0.0
C1785 C 0.15123 0.90049 0.76579 0.0
C1786 C 0.14211 0.91413 0.80096 0.0
C1787 C 0.14434 0.90625 0.84562 0.0
C1788 C 0.15572 0.88587 0.85594 0.0
C1789 C 0.15448 0.88051 0.90632 0.0
C1790 C 0.1427 0.857 0.915 0.0
C1791 C 0.17865 0.88142 0.92807 0.0
C1792 C 0.13958 0.90039 0.9224 0.0
C1793 C 0.13396 0.91511 0.8869 0.0
C1794 C 0.11807 0.93306 0.89227 0.0
C1795 C 0.10763 0.93597 0.93496 0.0
C1796 C 0.11345 0.92124 0.97153 0.0
C1797 C 0.12982 0.9035 0.96548 0.0
H1798 H 0.35861 0.8784 0.01032 0.0
H1799 H 0.3782 0.9492 0.03869 0.0
H1800 H 0.36096 0.94612 0.11563 0.0
H1801 H 0.30453 0.87613 0.08332 0.0
H1802 H 0.31112 0.8471 0.10166 0.0
H1803 H 0.31957 0.85665 0.04562 0.0
H1804 H 0.36174 0.84513 0.06312 0.0
H1805 H 0.35385 0.83596 0.11943 0.0
H1806 H 0.37622 0.85737 0.11189 0.0
H1807 H 0.34631 0.9339 0.19193 0.0
H1808 H 0.33804 0.91288 0.26335 0.0
H1809 H 0.33117 0.84893 0.18726 0.0
C1810 C 0.35827 0.89349 0.03219 0.0
C1811 C 0.36893 0.91427 0.0186 0.0
C1812 C 0.36946 0.93338 0.04851 0.0
C1813 C 0.35971 0.93177 0.09211 0.0
C1814 C 0.34987 0.91078 0.10529 0.0
C1815 C 0.34912 0.89193 0.07622 0.0
C1816 C 0.34097 0.87039 0.10085 0.0
C1817 C 0.31766 0.86208 0.08172 0.0
C1818 C 0.35931 0.85109 0.09873 0.0
C1819 C 0.33827 0.87981 0.14866 0.0
C1820 C 0.34278 0.90328 0.15022 0.0
C1821 C 0.34244 0.91558 0.19104 0.0
C1822 C 0.33773 0.90351 0.23142 0.0
C1823 C 0.33396 0.87932 0.2307 0.0
C1824 C 0.33389 0.86745 0.18869 0.0
H1825 H 0.38299 0.11658 0.48243 0.0
H1826 H 0.40659 0.04931 0.43722 0.0
H1827 H 0.38931 0.05647 0.36105 0.0
H1828 H 0.32912 0.11885 0.41751 0.0
H1829 H 0.33225 0.14921 0.40486 0.0
H1830 H 0.34413 0.13757 0.45676 0.0
H1831 H 0.3845 0.15366 0.43532 0.0
H1832 H 0.37281 0.16539 0.38346 0.0
H1833 H 0.39717 0.14595 0.38131 0.0
H1834 H 0.37066 0.07192 0.28934 0.0
H1835 H 0.35507 0.09542 0.22588 0.0
H1836 H 0.34645 0.15357 0.31768 0.0
C1837 C 0.38433 0.10334 0.45651 0.0
C1838 C 0.3959 0.0824 0.46511 0.0
C1839 C 0.39755 0.0654 0.43076 0.0
C1840 C 0.38778 0.06931 0.38769 0.0
C1841 C 0.37665 0.09037 0.3799 0.0
C1842 C 0.37505 0.10716 0.41332 0.0
C1843 C 0.36394 0.12902 0.39544 0.0
C1844 C 0.34099 0.13394 0.42011 0.0
C1845 C 0.3806 0.14972 0.39909 0.0
C1846 C 0.35989 0.12209 0.34645 0.0
C1847 C 0.36689 0.09959 0.33831 0.0
C1848 C 0.36505 0.08952 0.29533 0.0
C1849 C 0.35613 0.10294 0.25959 0.0
C1850 C 0.34962 0.12623 0.26708 0.0
C1851 C 0.35133 0.13578 0.31112 0.0
H1852 H 0.85173 0.8326 0.31499 0.0
H1853 H 0.82189 0.89374 0.25261 0.0
H1854 H 0.8313 0.91641 0.32178 0.0
H1855 H 0.83561 0.84514 0.43348 0.0
H1856 H 0.86265 0.8341 0.45502 0.0
H1857 H 0.85039 0.82222 0.40368 0.0
H1858 H 0.88846 0.83122 0.36039 0.0
H1859 H 0.90079 0.8432 0.41141 0.0
H1860 H 0.89955 0.86037 0.36021 0.0
H1861 H 0.84544 0.93248 0.39782 0.0
H1862 H 0.86618 0.94108 0.47006 0.0
H1863 H 0.89009 0.87017 0.47558 0.0
C1864 C 0.84678 0.85065 0.31606 0.0
C1865 C 0.83596 0.86142 0.2787 0.0
C1866 C 0.8301 0.88517 0.28115 0.0
C1867 C 0.8353 0.89814 0.32027 0.0
C1868 C 0.84647 0.88705 0.35625 0.0
C1869 C 0.85225 0.86385 0.35423 0.0
C1870 C 0.8662 0.8564 0.39511 0.0
C1871 C 0.85291 0.8384 0.4235 0.0
C1872 C 0.89017 0.84728 0.38091 0.0
C1873 C 0.86796 0.87917 0.41993 0.0
C1874 C 0.85594 0.89654 0.39789 0.0
C1875 C 0.85493 0.919 0.41528 0.0
C1876 C 0.8667 0.92374 0.4561 0.0
C1877 C 0.87976 0.90626 0.47781 0.0
C1878 C 0.88033 0.88381 0.45951 0.0
H1879 H 0.90958 0.10001 0.05195 0.0
H1880 H 0.84426 0.08335 0.98703 0.0
H1881 H 0.82407 0.08899 0.06052 0.0
H1882 H 0.89679 0.0748 0.16501 0.0
H1883 H 0.91139 0.09799 0.19431 0.0
H1884 H 0.92097 0.08919 0.13852 0.0
H1885 H 0.91622 0.13131 0.10955 0.0
H1886 H 0.90666 0.1402 0.1651 0.0
H1887 H 0.88871 0.14564 0.11604 0.0
H1888 H 0.81074 0.0994 0.14024 0.0
H1889 H 0.8053 0.11658 0.21703 0.0
H1890 H 0.87908 0.12831 0.22689 0.0
C1891 C 0.8911 0.09707 0.05332 0.0
C1892 C 0.87849 0.09107 0.01392 0.0
C1893 C 0.85426 0.08782 0.01696 0.0
C1894 C 0.84267 0.09089 0.05856 0.0
C1895 C 0.85559 0.09723 0.09667 0.0
C1896 C 0.87929 0.10035 0.09429 0.0
C1897 C 0.88894 0.10944 0.13867 0.0
C1898 C 0.9055 0.0918 0.16041 0.0
C1899 C 0.90082 0.13305 0.13192 0.0
C1900 C 0.8669 0.11168 0.166 0.0
C1901 C 0.84788 0.10403 0.14172 0.0
C1902 C 0.82555 0.10519 0.1597 0.0
C1903 C 0.8226 0.11487 0.20322 0.0
C1904 C 0.84183 0.12353 0.22751 0.0
C1905 C 0.86419 0.12163 0.20896 0.0
H1906 H 0.64178 0.10792 0.74899 0.0
H1907 H 0.70337 0.13942 0.80528 0.0
H1908 H 0.69694 0.11875 0.87794 0.0
H1909 H 0.60894 0.11752 0.84068 0.0
H1910 H 0.59187 0.09141 0.83914 0.0
H1911 H 0.60443 0.10242 0.78764 0.0
H1912 H 0.62537 0.06385 0.77284 0.0
H1913 H 0.6125 0.05207 0.82375 0.0
H1914 H 0.64347 0.0515 0.81651 0.0
H1915 H 0.68099 0.09956 0.94697 0.0
H1916 H 0.65528 0.08616 0.00876 0.0
H1917 H 0.60205 0.07021 0.90956 0.0
C1918 C 0.65446 0.10944 0.77599 0.0
C1919 C 0.67348 0.12452 0.77153 0.0
C1920 C 0.68906 0.1274 0.8081 0.0
C1921 C 0.68555 0.1157 0.84931 0.0
C1922 C 0.66616 0.10151 0.85343 0.0
C1923 C 0.6508 0.09838 0.81775 0.0
C1924 C 0.62929 0.08566 0.83328 0.0
C1925 C 0.60735 0.10014 0.82474 0.0
C1926 C 0.62757 0.06185 0.81022 0.0
C1927 C 0.63439 0.08324 0.88359 0.0
C1928 C 0.65609 0.09172 0.89423 0.0
C1929 C 0.66412 0.09251 0.93896 0.0
C1930 C 0.64942 0.08487 0.97382 0.0
C1931 C 0.62678 0.07712 0.96373 0.0
C1932 C 0.61938 0.07591 0.91803 0.0
H1933 H 0.63925 0.87935 0.50471 0.0
H1934 H 0.62193 0.95103 0.5299 0.0
H1935 H 0.63921 0.94834 0.60686 0.0
H1936 H 0.62109 0.86012 0.60712 0.0
H1937 H 0.64274 0.83807 0.61554 0.0
H1938 H 0.63512 0.84688 0.55888 0.0
H1939 H 0.67765 0.85677 0.54088 0.0
H1940 H 0.6858 0.8476 0.59733 0.0
H1941 H 0.69334 0.87617 0.57771 0.0
H1942 H 0.65326 0.93645 0.68389 0.0
H1943 H 0.66075 0.91593 0.75622 0.0
H1944 H 0.66586 0.85104 0.68269 0.0
C1945 C 0.64011 0.89468 0.52585 0.0
C1946 C 0.63005 0.91561 0.51137 0.0
C1947 C 0.63022 0.93509 0.54037 0.0
C1948 C 0.63998 0.93368 0.58399 0.0
C1949 C 0.64915 0.91254 0.59812 0.0
C1950 C 0.64929 0.89335 0.56989 0.0
C1951 C 0.65673 0.87185 0.59547 0.0
C1952 C 0.63777 0.85314 0.59422 0.0
C1953 C 0.67976 0.86255 0.57673 0.0
C1954 C 0.65974 0.88171 0.64285 0.0
C1955 C 0.65597 0.90532 0.64341 0.0
C1956 C 0.65659 0.91802 0.68376 0.0
C1957 C 0.66083 0.90623 0.72467 0.0
C1958 C 0.66388 0.88193 0.72494 0.0
C1959 C 0.66369 0.86965 0.6834 0.0
H1960 H 0.61195 0.57967 0.04639 0.0
H1961 H 0.66071 0.61562 0.95935 0.0
H1962 H 0.68151 0.62986 0.02739 0.0
H1963 H 0.6064 0.62149 0.12773 0.0
H1964 H 0.60491 0.60243 0.17622 0.0
H1965 H 0.59591 0.5923 0.12112 0.0
H1966 H 0.62482 0.55813 0.12629 0.0
H1967 H 0.63376 0.56799 0.18181 0.0
H1968 H 0.65495 0.56386 0.13751 0.0
H1969 H 0.69203 0.64601 0.10399 0.0
H1970 H 0.6945 0.65909 0.18423 0.0
H1971 H 0.64126 0.61002 0.2219 0.0
C1972 C 0.62745 0.58994 0.04174 0.0
C1973 C 0.63487 0.59645 0.9978 0.0
C1974 C 0.65498 0.61017 0.99278 0.0
C1975 C 0.66683 0.6184 0.03122 0.0
C1976 C 0.65863 0.61226 0.07423 0.0
C1977 C 0.63971 0.59789 0.07968 0.0
C1978 C 0.63356 0.59495 0.12949 0.0
C1979 C 0.60874 0.6033 0.13918 0.0
C1980 C 0.63699 0.56973 0.14466 0.0
C1981 C 0.65132 0.61072 0.15114 0.0
C1982 C 0.66562 0.62058 0.11868 0.0
C1983 C 0.68149 0.63785 0.12986 0.0
C1984 C 0.68274 0.64522 0.1753 0.0
C1985 C 0.66853 0.63502 0.20888 0.0
C1986 C 0.65288 0.61739 0.19684 0.0
H1987 H 0.59636 0.37331 0.46282 0.0
H1988 H 0.64142 0.43244 0.48196 0.0
H1989 H 0.663 0.42156 0.41195 0.0
H1990 H 0.64239 0.33446 0.42592 0.0
H1991 H 0.62352 0.31913 0.38747 0.0
H1992 H 0.61195 0.33205 0.43844 0.0
H1993 H 0.58234 0.355 0.38974 0.0
H1994 H 0.59391 0.3423 0.33866 0.0
H1995 H 0.59261 0.37332 0.34433 0.0
H1996 H 0.67673 0.40564 0.33517 0.0
H1997 H 0.6845 0.38381 0.26408 0.0
H1998 H 0.63324 0.33281 0.30334 0.0
C1999 C 0.61084 0.38391 0.45267 0.0
C2000 C 0.61718 0.40378 0.47744 0.0
C2001 C 0.63636 0.41713 0.46316 0.0
C2002 C 0.64864 0.41109 0.42356 0.0
C2003 C 0.64185 0.39129 0.39981 0.0
C2004 C 0.62369 0.37767 0.41455 0.0
C2005 C 0.62015 0.35685 0.38431 0.0
C2006 C 0.62479 0.33429 0.4106 0.0
C2007 C 0.59582 0.35689 0.363 0.0
C2008 C 0.63861 0.36125 0.34907 0.0
C2009 C 0.65087 0.38128 0.35821 0.0
C2010 C 0.66757 0.38969 0.32822 0.0
C2011 C 0.6718 0.37727 0.28797 0.0
C2012 C 0.65964 0.35654 0.27868 0.0
C2013 C 0.64308 0.34837 0.30994 0.0
H2014 H 0.83671 0.3514 0.69187 0.0
H2015 H 0.83789 0.41657 0.76508 0.0
H2016 H 0.84349 0.43747 0.69246 0.0
H2017 H 0.88048 0.36369 0.6166 0.0
H2018 H 0.86771 0.34926 0.56834 0.0
H2019 H 0.8606 0.34003 0.62504 0.0
H2020 H 0.81702 0.34613 0.60757 0.0
H2021 H 0.82415 0.35554 0.55076 0.0
H2022 H 0.80714 0.37389 0.58741 0.0
H2023 H 0.85538 0.45039 0.61407 0.0
H2024 H 0.87156 0.45407 0.5362 0.0
H2025 H 0.8598 0.38108 0.51332 0.0
C2026 C 0.83763 0.37012 0.6925 0.0
C2027 C 0.83684 0.38239 0.73402 0.0
C2028 C 0.83831 0.40684 0.73358 0.0
C2029 C 0.84144 0.41886 0.69249 0.0
C2030 C 0.84262 0.40618 0.65215 0.0
C2031 C 0.84047 0.38235 0.65181 0.0
C2032 C 0.84407 0.3726 0.6045 0.0
C2033 C 0.86443 0.3554 0.6036 0.0
C2034 C 0.82176 0.36138 0.5865 0.0
C2035 C 0.84969 0.39453 0.57865 0.0
C2036 C 0.84853 0.41379 0.60656 0.0
C2037 C 0.85564 0.43558 0.59154 0.0
C2038 C 0.86471 0.43757 0.54734 0.0
C2039 C 0.86629 0.41796 0.51884 0.0
C2040 C 0.85814 0.39639 0.53423 0.0
H2041 H 0.86314 0.61097 0.98368 0.0
H2042 H 0.88017 0.54144 0.94101 0.0
H2043 H 0.86032 0.54827 0.86723 0.0
H2044 H 0.80889 0.62079 0.92338 0.0
H2045 H 0.81708 0.64967 0.90669 0.0
H2046 H 0.82803 0.63753 0.95892 0.0
H2047 H 0.87152 0.6443 0.93056 0.0
H2048 H 0.85887 0.65798 0.88166 0.0
H2049 H 0.87897 0.6344 0.87477 0.0
H2050 H 0.84416 0.56512 0.79399 0.0
H2051 H 0.83421 0.59031 0.72858 0.0
H2052 H 0.83019 0.64928 0.8195 0.0
C2053 C 0.86209 0.59703 0.95927 0.0
C2054 C 0.87259 0.57557 0.96798 0.0
C2055 C 0.87155 0.55781 0.93501 0.0
C2056 C 0.86043 0.56159 0.89311 0.0
C2057 C 0.85096 0.5834 0.88471 0.0
C2058 C 0.85194 0.60087 0.91687 0.0
C2059 C 0.84429 0.62377 0.89728 0.0
C2060 C 0.82332 0.63351 0.92311 0.0
C2061 C 0.86455 0.64114 0.89608 0.0
C2062 C 0.83802 0.61643 0.84964 0.0
C2063 C 0.84214 0.59314 0.84262 0.0
C2064 C 0.84042 0.58326 0.79939 0.0
C2065 C 0.83482 0.59768 0.76246 0.0
C2066 C 0.83128 0.62168 0.76917 0.0
C2067 C 0.83238 0.63092 0.81344 0.0
H2068 H 0.36104 0.33884 0.80314 0.0
H2069 H 0.30952 0.38912 0.76212 0.0
H2070 H 0.31845 0.41237 0.83134 0.0
H2071 H 0.35689 0.3426 0.92336 0.0
H2072 H 0.38777 0.34105 0.93144 0.0
H2073 H 0.37467 0.32733 0.88284 0.0
H2074 H 0.40168 0.35064 0.82889 0.0
H2075 H 0.41487 0.36419 0.87752 0.0
H2076 H 0.40243 0.38176 0.83314 0.0
H2077 H 0.3329 0.42844 0.91016 0.0
H2078 H 0.35541 0.43899 0.97953 0.0
H2079 H 0.40266 0.38258 0.95181 0.0
C2080 C 0.35159 0.3547 0.80823 0.0
C2081 C 0.33456 0.36213 0.77736 0.0
C2082 C 0.32262 0.38311 0.78569 0.0
C2083 C 0.32754 0.39634 0.82486 0.0
C2084 C 0.34499 0.38864 0.85412 0.0
C2085 C 0.35719 0.36858 0.84519 0.0
C2086 C 0.37695 0.36512 0.87786 0.0
C2087 C 0.37386 0.3427 0.9055 0.0
C2088 C 0.40036 0.36546 0.85285 0.0
C2089 C 0.37389 0.3862 0.90729 0.0
C2090 C 0.35499 0.39928 0.89445 0.0
C2091 C 0.348 0.41851 0.91982 0.0
C2092 C 0.36081 0.42437 0.95906 0.0
C2093 C 0.38078 0.41156 0.97105 0.0
C2094 C 0.38747 0.39262 0.94412 0.0
H2095 H 0.36799 0.61289 0.73365 0.0
H2096 H 0.30435 0.64796 0.69804 0.0
H2097 H 0.30852 0.63474 0.61813 0.0
H2098 H 0.39793 0.62992 0.63656 0.0
H2099 H 0.41436 0.6036 0.63031 0.0
H2100 H 0.40433 0.61234 0.68568 0.0
H2101 H 0.38356 0.57291 0.6955 0.0
H2102 H 0.39358 0.56402 0.64007 0.0
H2103 H 0.3631 0.56346 0.65305 0.0
H2104 H 0.32116 0.62014 0.54143 0.0
H2105 H 0.34267 0.6081 0.47267 0.0
H2106 H 0.39957 0.58492 0.55753 0.0
C2107 C 0.35463 0.61708 0.70915 0.0
C2108 C 0.33551 0.6308 0.72171 0.0
C2109 C 0.3188 0.63698 0.68881 0.0
C2110 C 0.32105 0.62955 0.64353 0.0
C2111 C 0.3403 0.61626 0.63182 0.0
C2112 C 0.35689 0.6102 0.66365 0.0
C2113 C 0.37724 0.59818 0.64135 0.0
C2114 C 0.39979 0.61183 0.64892 0.0
C2115 C 0.37949 0.57315 0.65851 0.0
C2116 C 0.36975 0.59884 0.59193 0.0
C2117 C 0.34818 0.60889 0.58726 0.0
C2118 C 0.33797 0.61206 0.5447 0.0
C2119 C 0.35029 0.60512 0.50585 0.0
C2120 C 0.37273 0.59551 0.50982 0.0
C2121 C 0.38238 0.59208 0.5535 0.0
H2122 H 0.08814 0.61605 0.4478 0.0
H2123 H 0.14367 0.56992 0.48791 0.0
H2124 H 0.16309 0.57692 0.41373 0.0
H2125 H 0.08704 0.60226 0.32755 0.0
H2126 H 0.08167 0.63183 0.31117 0.0
H2127 H 0.07138 0.62128 0.36522 0.0
H2128 H 0.09328 0.65428 0.40683 0.0
H2129 H 0.10346 0.66503 0.35297 0.0
H2130 H 0.12387 0.65791 0.39722 0.0
H2131 H 0.17601 0.58946 0.33318 0.0
H2132 H 0.18343 0.60997 0.26009 0.0
H2133 H 0.12102 0.65016 0.28009 0.0
C2134 C 0.10426 0.6072 0.44097 0.0
C2135 C 0.11432 0.59229 0.47332 0.0
C2136 C 0.13566 0.58137 0.46334 0.0
C2137 C 0.14672 0.58515 0.42129 0.0
C2138 C 0.13627 0.60009 0.39009 0.0
C2139 C 0.11564 0.61113 0.39991 0.0
C2140 C 0.10872 0.62779 0.36281 0.0
C2141 C 0.08585 0.62033 0.34037 0.0
C2142 C 0.10727 0.65272 0.38105 0.0
C2143 C 0.12884 0.62475 0.3307 0.0
C2144 C 0.14432 0.6083 0.3461 0.0
C2145 C 0.16402 0.60244 0.32101 0.0
C2146 C 0.16807 0.61406 0.2796 0.0
C2147 C 0.15282 0.63166 0.26478 0.0
C2148 C 0.133 0.63685 0.2906 0.0
H2149 H 0.16397 0.34869 0.18835 0.0
H2150 H 0.15716 0.41199 0.26643 0.0
H2151 H 0.15119 0.43396 0.19495 0.0
H2152 H 0.19333 0.37509 0.0874 0.0
H2153 H 0.17814 0.35629 0.04861 0.0
H2154 H 0.18517 0.34637 0.10514 0.0
H2155 H 0.14192 0.33693 0.11965 0.0
H2156 H 0.13488 0.34673 0.06329 0.0
H2157 H 0.12053 0.3593 0.11185 0.0
H2158 H 0.13939 0.44748 0.11653 0.0
H2159 H 0.12418 0.45147 0.03795 0.0
H2160 H 0.14129 0.37993 0.01086 0.0
C2161 C 0.16176 0.36727 0.19035 0.0
C2162 C 0.16105 0.37869 0.23282 0.0
C2163 C 0.15795 0.40296 0.23416 0.0
C2164 C 0.15457 0.41555 0.19374 0.0
C2165 C 0.15482 0.40364 0.15238 0.0
C2166 C 0.15867 0.38005 0.15045 0.0
C2167 C 0.15638 0.37095 0.10233 0.0
C2168 C 0.17965 0.36163 0.08484 0.0
C2169 C 0.13729 0.3524 0.09913 0.0
C2170 C 0.14957 0.39288 0.07768 0.0
C2171 C 0.14897 0.41164 0.10697 0.0
C2172 C 0.14052 0.43312 0.093 0.0
C2173 C 0.132 0.43528 0.0484 0.0
C2174 C 0.13229 0.41618 0.01843 0.0
C2175 C 0.14166 0.39494 0.03288 0.0
loop_
_geom_bond_atom_site_label_1
_geom_bond_atom_site_label_2
_geom_bond_distance
_geom_bond_site_symmetry_2
_ccdc_geom_bond_type
Co0 O1 2.216 . S
Co0 O2 2.091 . S
Co0 O4 2.004 . S
Co0 O10 2.021 . S
Co0 O12 2.137 . S
Co0 O13 2.244 . S
O1 Co0 2.216 . S
O1 C8 1.247 . S
O2 Co0 2.091 . S
O2 C8 1.261 . S
C3 O12 1.247 . S
C3 O13 1.272 . S
O4 Co0 2.004 . S
O4 C9 1.259 . S
Co5 O6 2.061 . S
Co5 O11 2.052 . S
Co5 O13 2.135 . S
O6 Co5 2.061 . S
O6 C9 1.235 . S
C7 O10 1.238 . S
C7 O11 1.241 . S
C8 O1 1.247 . S
C8 O2 1.261 . S
C9 O4 1.259 . S
C9 O6 1.235 . S
O10 Co0 2.021 . S
O10 C7 1.238 . S
O11 Co5 2.052 . S
O11 C7 1.241 . S
O12 Co0 2.137 . S
O12 C3 1.247 . S
O13 Co0 2.244 . S
O13 C3 1.272 . S
O13 Co5 2.135 . S
Co14 O15 2.216 . S
Co14 O16 2.091 . S
Co14 O18 2.004 . S
Co14 O24 2.021 . S
Co14 O26 2.137 . S
Co14 O27 2.244 . S
O15 Co14 2.216 . S
O15 C22 1.247 . S
O16 Co14 2.091 . S
O16 C22 1.261 . S
C17 O26 1.247 . S
C17 O27 1.272 . S
O18 Co14 2.004 . S
O18 C23 1.259 . S
Co19 O20 2.061 . S
Co19 O25 2.052 . S
Co19 O27 2.135 . S
O20 Co19 2.061 . S
O20 C23 1.235 . S
C21 O24 1.238 . S
C21 O25 1.241 . S
C22 O15 1.247 . S
C22 O16 1.261 . S
C23 O18 1.259 . S
C23 O20 1.235 . S
O24 Co14 2.021 . S
O24 C21 1.238 . S
O25 Co19 2.052 . S
O25 C21 1.241 . S
O26 Co14 2.137 . S
O26 C17 1.247 . S
O27 Co14 2.244 . S
O27 C17 1.272 . S
O27 Co19 2.135 . S
Co28 O29 2.216 . S
Co28 O30 2.091 . S
Co28 O32 2.004 . S
Co28 O38 2.021 . S
Co28 O40 2.137 . S
Co28 O41 2.244 . S
O29 Co28 2.216 . S
O29 C36 1.247 . S
O30 Co28 2.091 . S
O30 C36 1.261 . S
C31 O40 1.247 . S
C31 O41 1.272 . S
O32 Co28 2.004 . S
O32 C37 1.259 . S
Co33 O34 2.061 . S
Co33 O39 2.052 . S
Co33 O41 2.135 . S
O34 Co33 2.061 . S
O34 C37 1.235 . S
C35 O38 1.238 . S
C35 O39 1.241 . S
C36 O29 1.247 . S
C36 O30 1.261 . S
C37 O32 1.259 . S
C37 O34 1.235 . S
O38 Co28 2.021 . S
O38 C35 1.238 . S
O39 Co33 2.052 . S
O39 C35 1.241 . S
O40 Co28 2.137 . S
O40 C31 1.247 . S
O41 Co28 2.244 . S
O41 C31 1.272 . S
O41 Co33 2.135 . S
Co42 O43 2.216 . S
Co42 O44 2.091 . S
Co42 O46 2.004 . S
Co42 O52 2.021 . S
Co42 O54 2.137 . S
Co42 O55 2.244 . S
O43 Co42 2.216 . S
O43 C50 1.247 . S
O44 Co42 2.091 . S
O44 C50 1.261 . S
C45 O54 1.247 . S
C45 O55 1.272 . S
O46 Co42 2.004 . S
O46 C51 1.259 . S
Co47 O48 2.061 . S
Co47 O53 2.052 . S
Co47 O55 2.135 . S
O48 Co47 2.061 . S
O48 C51 1.235 . S
C49 O52 1.238 . S
C49 O53 1.241 . S
C50 O43 1.247 . S
C50 O44 1.261 . S
C51 O46 1.259 . S
C51 O48 1.235 . S
O52 Co42 2.021 . S
O52 C49 1.238 . S
O53 Co47 2.052 . S
O53 C49 1.241 . S
O54 Co42 2.137 . S
O54 C45 1.247 . S
O55 Co42 2.244 . S
O55 C45 1.272 . S
O55 Co47 2.135 . S
Co56 O57 2.216 . S
Co56 O58 2.091 . S
Co56 O60 2.004 . S
Co56 O66 2.021 . S
Co56 O68 2.137 . S
Co56 O69 2.244 . S
O57 Co56 2.216 . S
O57 C64 1.247 . S
O58 Co56 2.091 . S
O58 C64 1.261 . S
C59 O68 1.247 . S
C59 O69 1.272 . S
O60 Co56 2.004 . S
O60 C65 1.259 . S
Co61 O62 2.061 . S
Co61 O67 2.052 . S
Co61 O69 2.135 . S
O62 Co61 2.061 . S
O62 C65 1.235 . S
C63 O66 1.238 . S
C63 O67 1.241 . S
C64 O57 1.247 . S
C64 O58 1.261 . S
C65 O60 1.259 . S
C65 O62 1.235 . S
O66 Co56 2.021 . S
O66 C63 1.238 . S
O67 Co61 2.052 . S
O67 C63 1.241 . S
O68 Co56 2.137 . S
O68 C59 1.247 . S
O69 Co56 2.244 . S
O69 C59 1.272 . S
O69 Co61 2.135 . S
Co70 O71 2.216 . S
Co70 O72 2.091 . S
Co70 O74 2.004 . S
Co70 O80 2.021 . S
Co70 O82 2.137 . S
Co70 O83 2.244 . S
O71 Co70 2.216 . S
O71 C78 1.247 . S
O72 Co70 2.091 . S
O72 C78 1.261 . S
C73 O82 1.247 . S
C73 O83 1.272 . S
O74 Co70 2.004 . S
O74 C79 1.259 . S
Co75 O76 2.061 . S
Co75 O81 2.052 . S
Co75 O83 2.135 . S
O76 Co75 2.061 . S
O76 C79 1.235 . S
C77 O80 1.238 . S
C77 O81 1.241 . S
C78 O71 1.247 . S
C78 O72 1.261 . S
C79 O74 1.259 . S
C79 O76 1.235 . S
O80 Co70 2.021 . S
O80 C77 1.238 . S
O81 Co75 2.052 . S
O81 C77 1.241 . S
O82 Co70 2.137 . S
O82 C73 1.247 . S
O83 Co70 2.244 . S
O83 C73 1.272 . S
O83 Co75 2.135 . S
Co84 O85 2.216 . S
Co84 O86 2.091 . S
Co84 O88 2.004 . S
Co84 O94 2.021 . S
Co84 O96 2.137 . S
Co84 O97 2.244 . S
O85 Co84 2.216 . S
O85 C92 1.247 . S
O86 Co84 2.091 . S
O86 C92 1.261 . S
C87 O96 1.247 . S
C87 O97 1.272 . S
O88 Co84 2.004 . S
O88 C93 1.259 . S
Co89 O90 2.061 . S
Co89 O95 2.052 . S
Co89 O97 2.135 . S
O90 Co89 2.061 . S
O90 C93 1.235 . S
C91 O94 1.238 . S
C91 O95 1.241 . S
C92 O85 1.247 . S
C92 O86 1.261 . S
C93 O88 1.259 . S
C93 O90 1.235 . S
O94 Co84 2.021 . S
O94 C91 1.238 . S
O95 Co89 2.052 . S
O95 C91 1.241 . S
O96 Co84 2.137 . S
O96 C87 1.247 . S
O97 Co84 2.244 . S
O97 C87 1.272 . S
O97 Co89 2.135 . S
Co98 O99 2.216 . S
Co98 O100 2.091 . S
Co98 O102 2.004 . S
Co98 O108 2.021 . S
Co98 O110 2.137 . S
Co98 O111 2.244 . S
O99 Co98 2.216 . S
O99 C106 1.247 . S
O100 Co98 2.091 . S
O100 C106 1.261 . S
C101 O110 1.247 . S
C101 O111 1.272 . S
O102 Co98 2.004 . S
O102 C107 1.259 . S
Co103 O104 2.061 . S
Co103 O109 2.052 . S
Co103 O111 2.135 . S
O104 Co103 2.061 . S
O104 C107 1.235 . S
C105 O108 1.238 . S
C105 O109 1.241 . S
C106 O99 1.247 . S
C106 O100 1.261 . S
C107 O102 1.259 . S
C107 O104 1.235 . S
O108 Co98 2.021 . S
O108 C105 1.238 . S
O109 Co103 2.052 . S
O109 C105 1.241 . S
O110 Co98 2.137 . S
O110 C101 1.247 . S
O111 Co98 2.244 . S
O111 C101 1.272 . S
O111 Co103 2.135 . S
Co112 O113 2.216 . S
Co112 O114 2.091 . S
Co112 O116 2.004 . S
Co112 O122 2.021 . S
Co112 O124 2.137 . S
Co112 O125 2.244 . S
O113 Co112 2.216 . S
O113 C120 1.247 . S
O114 Co112 2.091 . S
O114 C120 1.261 . S
C115 O124 1.247 . S
C115 O125 1.272 . S
O116 Co112 2.004 . S
O116 C121 1.259 . S
Co117 O118 2.061 . S
Co117 O123 2.052 . S
Co117 O125 2.135 . S
O118 Co117 2.061 . S
O118 C121 1.235 . S
C119 O122 1.238 . S
C119 O123 1.241 . S
C120 O113 1.247 . S
C120 O114 1.261 . S
C121 O116 1.259 . S
C121 O118 1.235 . S
O122 Co112 2.021 . S
O122 C119 1.238 . S
O123 Co117 2.052 . S
O123 C119 1.241 . S
O124 Co112 2.137 . S
O124 C115 1.247 . S
O125 Co112 2.244 . S
O125 C115 1.272 . S
O125 Co117 2.135 . S
Co126 O127 2.216 . S
Co126 O128 2.091 . S
Co126 O130 2.004 . S
Co126 O136 2.021 . S
Co126 O138 2.137 . S
Co126 O139 2.244 . S
O127 Co126 2.216 . S
O127 C134 1.247 . S
O128 Co126 2.091 . S
O128 C134 1.261 . S
C129 O138 1.247 . S
C129 O139 1.272 . S
O130 Co126 2.004 . S
O130 C135 1.259 . S
Co131 O132 2.061 . S
Co131 O137 2.052 . S
Co131 O139 2.135 . S
O132 Co131 2.061 . S
O132 C135 1.235 . S
C133 O136 1.238 . S
C133 O137 1.241 . S
C134 O127 1.247 . S
C134 O128 1.261 . S
C135 O130 1.259 . S
C135 O132 1.235 . S
O136 Co126 2.021 . S
O136 C133 1.238 . S
O137 Co131 2.052 . S
O137 C133 1.241 . S
O138 Co126 2.137 . S
O138 C129 1.247 . S
O139 Co126 2.244 . S
O139 C129 1.272 . S
O139 Co131 2.135 . S
Co140 O141 2.216 . S
Co140 O142 2.091 . S
Co140 O144 2.004 . S
Co140 O150 2.021 . S
Co140 O152 2.137 . S
Co140 O153 2.244 . S
O141 Co140 2.216 . S
O141 C148 1.247 . S
O142 Co140 2.091 . S
O142 C148 1.261 . S
C143 O152 1.247 . S
C143 O153 1.272 . S
O144 Co140 2.004 . S
O144 C149 1.259 . S
Co145 O146 2.061 . S
Co145 O151 2.052 . S
Co145 O153 2.135 . S
O146 Co145 2.061 . S
O146 C149 1.235 . S
C147 O150 1.238 . S
C147 O151 1.241 . S
C148 O141 1.247 . S
C148 O142 1.261 . S
C149 O144 1.259 . S
C149 O146 1.235 . S
O150 Co140 2.021 . S
O150 C147 1.238 . S
O151 Co145 2.052 . S
O151 C147 1.241 . S
O152 Co140 2.137 . S
O152 C143 1.247 . S
O153 Co140 2.244 . S
O153 C143 1.272 . S
O153 Co145 2.135 . S
Co154 O155 2.216 . S
Co154 O156 2.091 . S
Co154 O158 2.004 . S
Co154 O164 2.021 . S
Co154 O166 2.137 . S
Co154 O167 2.244 . S
O155 Co154 2.216 . S
O155 C162 1.247 . S
O156 Co154 2.091 . S
O156 C162 1.261 . S
C157 O166 1.247 . S
C157 O167 1.272 . S
O158 Co154 2.004 . S
O158 C163 1.259 . S
Co159 O160 2.061 . S
Co159 O165 2.052 . S
Co159 O167 2.135 . S
O160 Co159 2.061 . S
O160 C163 1.235 . S
C161 O164 1.238 . S
C161 O165 1.241 . S
C162 O155 1.247 . S
C162 O156 1.261 . S
C163 O158 1.259 . S
C163 O160 1.235 . S
O164 Co154 2.021 . S
O164 C161 1.238 . S
O165 Co159 2.052 . S
O165 C161 1.241 . S
O166 Co154 2.137 . S
O166 C157 1.247 . S
O167 Co154 2.244 . S
O167 C157 1.272 . S
O167 Co159 2.135 . S
Co168 O169 2.216 . S
Co168 O170 2.091 . S
Co168 O172 2.004 . S
Co168 O178 2.021 . S
Co168 O180 2.137 . S
Co168 O181 2.244 . S
O169 Co168 2.216 . S
O169 C176 1.247 . S
O170 Co168 2.091 . S
O170 C176 1.261 . S
C171 O180 1.247 . S
C171 O181 1.272 . S
O172 Co168 2.004 . S
O172 C177 1.259 . S
Co173 O174 2.061 . S
Co173 O179 2.052 . S
Co173 O181 2.135 . S
O174 Co173 2.061 . S
O174 C177 1.235 . S
C175 O178 1.238 . S
C175 O179 1.241 . S
C176 O169 1.247 . S
C176 O170 1.261 . S
C177 O172 1.259 . S
C177 O174 1.235 . S
O178 Co168 2.021 . S
O178 C175 1.238 . S
O179 Co173 2.052 . S
O179 C175 1.241 . S
O180 Co168 2.137 . S
O180 C171 1.247 . S
O181 Co168 2.244 . S
O181 C171 1.272 . S
O181 Co173 2.135 . S
Co182 O183 2.216 . S
Co182 O184 2.091 . S
Co182 O186 2.004 . S
Co182 O192 2.021 . S
Co182 O194 2.137 . S
Co182 O195 2.244 . S
O183 Co182 2.216 . S
O183 C190 1.247 . S
O184 Co182 2.091 . S
O184 C190 1.261 . S
C185 O194 1.247 . S
C185 O195 1.272 . S
O186 Co182 2.004 . S
O186 C191 1.259 . S
Co187 O188 2.061 . S
Co187 O193 2.052 . S
Co187 O195 2.135 . S
O188 Co187 2.061 . S
O188 C191 1.235 . S
C189 O192 1.238 . S
C189 O193 1.241 . S
C190 O183 1.247 . S
C190 O184 1.261 . S
C191 O186 1.259 . S
C191 O188 1.235 . S
O192 Co182 2.021 . S
O192 C189 1.238 . S
O193 Co187 2.052 . S
O193 C189 1.241 . S
O194 Co182 2.137 . S
O194 C185 1.247 . S
O195 Co182 2.244 . S
O195 C185 1.272 . S
O195 Co187 2.135 . S
Co196 O197 2.216 . S
Co196 O198 2.091 . S
Co196 O200 2.004 . S
Co196 O206 2.021 . S
Co196 O208 2.137 . S
Co196 O209 2.244 . S
O197 Co196 2.216 . S
O197 C204 1.247 . S
O198 Co196 2.091 . S
O198 C204 1.261 . S
C199 O208 1.247 . S
C199 O209 1.272 . S
O200 Co196 2.004 . S
O200 C205 1.259 . S
Co201 O202 2.061 . S
Co201 O207 2.052 . S
Co201 O209 2.135 . S
O202 Co201 2.061 . S
O202 C205 1.235 . S
C203 O206 1.238 . S
C203 O207 1.241 . S
C204 O197 1.247 . S
C204 O198 1.261 . S
C205 O200 1.259 . S
C205 O202 1.235 . S
O206 Co196 2.021 . S
O206 C203 1.238 . S
O207 Co201 2.052 . S
O207 C203 1.241 . S
O208 Co196 2.137 . S
O208 C199 1.247 . S
O209 Co196 2.244 . S
O209 C199 1.272 . S
O209 Co201 2.135 . S
Co210 O211 2.216 . S
Co210 O212 2.091 . S
Co210 O214 2.004 . S
Co210 O220 2.021 . S
Co210 O222 2.137 . S
Co210 O223 2.244 . S
O211 Co210 2.216 . S
O211 C218 1.247 . S
O212 Co210 2.091 . S
O212 C218 1.261 . S
C213 O222 1.247 . S
C213 O223 1.272 . S
O214 Co210 2.004 . S
O214 C219 1.259 . S
Co215 O216 2.061 . S
Co215 O221 2.052 . S
Co215 O223 2.135 . S
O216 Co215 2.061 . S
O216 C219 1.235 . S
C217 O220 1.238 . S
C217 O221 1.241 . S
C218 O211 1.247 . S
C218 O212 1.261 . S
C219 O214 1.259 . S
C219 O216 1.235 . S
O220 Co210 2.021 . S
O220 C217 1.238 . S
O221 Co215 2.052 . S
O221 C217 1.241 . S
O222 Co210 2.137 . S
O222 C213 1.247 . S
O223 Co210 2.244 . S
O223 C213 1.272 . S
O223 Co215 2.135 . S
Co224 O225 2.216 . S
Co224 O226 2.091 . S
Co224 O228 2.004 . S
Co224 O234 2.021 . S
Co224 O236 2.137 . S
Co224 O237 2.244 . S
O225 Co224 2.216 . S
O225 C232 1.247 . S
O226 Co224 2.091 . S
O226 C232 1.261 . S
C227 O236 1.247 . S
C227 O237 1.272 . S
O228 Co224 2.004 . S
O228 C233 1.259 . S
Co229 O230 2.061 . S
Co229 O235 2.052 . S
Co229 O237 2.135 . S
O230 Co229 2.061 . S
O230 C233 1.235 . S
C231 O234 1.238 . S
C231 O235 1.241 . S
C232 O225 1.247 . S
C232 O226 1.261 . S
C233 O228 1.259 . S
C233 O230 1.235 . S
O234 Co224 2.021 . S
O234 C231 1.238 . S
O235 Co229 2.052 . S
O235 C231 1.241 . S
O236 Co224 2.137 . S
O236 C227 1.247 . S
O237 Co224 2.244 . S
O237 C227 1.272 . S
O237 Co229 2.135 . S
Co238 O239 2.216 . S
Co238 O240 2.091 . S
Co238 O242 2.004 . S
Co238 O248 2.021 . S
Co238 O250 2.137 . S
Co238 O251 2.244 . S
O239 Co238 2.216 . S
O239 C246 1.247 . S
O240 Co238 2.091 . S
O240 C246 1.261 . S
C241 O250 1.247 . S
C241 O251 1.272 . S
O242 Co238 2.004 . S
O242 C247 1.259 . S
Co243 O244 2.061 . S
Co243 O249 2.052 . S
Co243 O251 2.135 . S
O244 Co243 2.061 . S
O244 C247 1.235 . S
C245 O248 1.238 . S
C245 O249 1.241 . S
C246 O239 1.247 . S
C246 O240 1.261 . S
C247 O242 1.259 . S
C247 O244 1.235 . S
O248 Co238 2.021 . S
O248 C245 1.238 . S
O249 Co243 2.052 . S
O249 C245 1.241 . S
O250 Co238 2.137 . S
O250 C241 1.247 . S
O251 Co238 2.244 . S
O251 C241 1.272 . S
O251 Co243 2.135 . S
Co252 O253 2.216 . S
Co252 O254 2.091 . S
Co252 O256 2.004 . S
Co252 O262 2.021 . S
Co252 O264 2.137 . S
Co252 O265 2.244 . S
O253 Co252 2.216 . S
O253 C260 1.247 . S
O254 Co252 2.091 . S
O254 C260 1.261 . S
C255 O264 1.247 . S
C255 O265 1.272 . S
O256 Co252 2.004 . S
O256 C261 1.259 . S
Co257 O258 2.061 . S
Co257 O263 2.052 . S
Co257 O265 2.135 . S
O258 Co257 2.061 . S
O258 C261 1.235 . S
C259 O262 1.238 . S
C259 O263 1.241 . S
C260 O253 1.247 . S
C260 O254 1.261 . S
C261 O256 1.259 . S
C261 O258 1.235 . S
O262 Co252 2.021 . S
O262 C259 1.238 . S
O263 Co257 2.052 . S
O263 C259 1.241 . S
O264 Co252 2.137 . S
O264 C255 1.247 . S
O265 Co252 2.244 . S
O265 C255 1.272 . S
O265 Co257 2.135 . S
Co266 O267 2.216 . S
Co266 O268 2.091 . S
Co266 O270 2.004 . S
Co266 O276 2.021 . S
Co266 O278 2.137 . S
Co266 O279 2.244 . S
O267 Co266 2.216 . S
O267 C274 1.247 . S
O268 Co266 2.091 . S
O268 C274 1.261 . S
C269 O278 1.247 . S
C269 O279 1.272 . S
O270 Co266 2.004 . S
O270 C275 1.259 . S
Co271 O272 2.061 . S
Co271 O277 2.052 . S
Co271 O279 2.135 . S
O272 Co271 2.061 . S
O272 C275 1.235 . S
C273 O276 1.238 . S
C273 O277 1.241 . S
C274 O267 1.247 . S
C274 O268 1.261 . S
C275 O270 1.259 . S
C275 O272 1.235 . S
O276 Co266 2.021 . S
O276 C273 1.238 . S
O277 Co271 2.052 . S
O277 C273 1.241 . S
O278 Co266 2.137 . S
O278 C269 1.247 . S
O279 Co266 2.244 . S
O279 C269 1.272 . S
O279 Co271 2.135 . S
Co280 O281 2.216 . S
Co280 O282 2.091 . S
Co280 O284 2.004 . S
Co280 O290 2.021 . S
Co280 O292 2.137 . S
Co280 O293 2.244 . S
O281 Co280 2.216 . S
O281 C288 1.247 . S
O282 Co280 2.091 . S
O282 C288 1.261 . S
C283 O292 1.247 . S
C283 O293 1.272 . S
O284 Co280 2.004 . S
O284 C289 1.259 . S
Co285 O286 2.061 . S
Co285 O291 2.052 . S
Co285 O293 2.135 . S
O286 Co285 2.061 . S
O286 C289 1.235 . S
C287 O290 1.238 . S
C287 O291 1.241 . S
C288 O281 1.247 . S
C288 O282 1.261 . S
C289 O284 1.259 . S
C289 O286 1.235 . S
O290 Co280 2.021 . S
O290 C287 1.238 . S
O291 Co285 2.052 . S
O291 C287 1.241 . S
O292 Co280 2.137 . S
O292 C283 1.247 . S
O293 Co280 2.244 . S
O293 C283 1.272 . S
O293 Co285 2.135 . S
Co294 O295 2.216 . S
Co294 O296 2.091 . S
Co294 O298 2.004 . S
Co294 O304 2.021 . S
Co294 O306 2.137 . S
Co294 O307 2.244 . S
O295 Co294 2.216 . S
O295 C302 1.247 . S
O296 Co294 2.091 . S
O296 C302 1.261 . S
C297 O306 1.247 . S
C297 O307 1.272 . S
O298 Co294 2.004 . S
O298 C303 1.259 . S
Co299 O300 2.061 . S
Co299 O305 2.052 . S
Co299 O307 2.135 . S
O300 Co299 2.061 . S
O300 C303 1.235 . S
C301 O304 1.238 . S
C301 O305 1.241 . S
C302 O295 1.247 . S
C302 O296 1.261 . S
C303 O298 1.259 . S
C303 O300 1.235 . S
O304 Co294 2.021 . S
O304 C301 1.238 . S
O305 Co299 2.052 . S
O305 C301 1.241 . S
O306 Co294 2.137 . S
O306 C297 1.247 . S
O307 Co294 2.244 . S
O307 C297 1.272 . S
O307 Co299 2.135 . S
Co308 O309 2.216 . S
Co308 O310 2.091 . S
Co308 O312 2.004 . S
Co308 O318 2.021 . S
Co308 O320 2.137 . S
Co308 O321 2.244 . S
O309 Co308 2.216 . S
O309 C316 1.247 . S
O310 Co308 2.091 . S
O310 C316 1.261 . S
C311 O320 1.247 . S
C311 O321 1.272 . S
O312 Co308 2.004 . S
O312 C317 1.259 . S
Co313 O314 2.061 . S
Co313 O319 2.052 . S
Co313 O321 2.135 . S
O314 Co313 2.061 . S
O314 C317 1.235 . S
C315 O318 1.238 . S
C315 O319 1.241 . S
C316 O309 1.247 . S
C316 O310 1.261 . S
C317 O312 1.259 . S
C317 O314 1.235 . S
O318 Co308 2.021 . S
O318 C315 1.238 . S
O319 Co313 2.052 . S
O319 C315 1.241 . S
O320 Co308 2.137 . S
O320 C311 1.247 . S
O321 Co308 2.244 . S
O321 C311 1.272 . S
O321 Co313 2.135 . S
Co322 O323 2.216 . S
Co322 O324 2.091 . S
Co322 O326 2.004 . S
Co322 O332 2.021 . S
Co322 O334 2.137 . S
Co322 O335 2.244 . S
O323 Co322 2.216 . S
O323 C330 1.247 . S
O324 Co322 2.091 . S
O324 C330 1.261 . S
C325 O334 1.247 . S
C325 O335 1.272 . S
O326 Co322 2.004 . S
O326 C331 1.259 . S
Co327 O328 2.061 . S
Co327 O333 2.052 . S
Co327 O335 2.135 . S
O328 Co327 2.061 . S
O328 C331 1.235 . S
C329 O332 1.238 . S
C329 O333 1.241 . S
C330 O323 1.247 . S
C330 O324 1.261 . S
C331 O326 1.259 . S
C331 O328 1.235 . S
O332 Co322 2.021 . S
O332 C329 1.238 . S
O333 Co327 2.052 . S
O333 C329 1.241 . S
O334 Co322 2.137 . S
O334 C325 1.247 . S
O335 Co322 2.244 . S
O335 C325 1.272 . S
O335 Co327 2.135 . S
Co336 O337 2.216 . S
Co336 O338 2.091 . S
Co336 O340 2.004 . S
Co336 O346 2.021 . S
Co336 O348 2.137 . S
Co336 O349 2.244 . S
O337 Co336 2.216 . S
O337 C344 1.247 . S
O338 Co336 2.091 . S
O338 C344 1.261 . S
C339 O348 1.247 . S
C339 O349 1.272 . S
O340 Co336 2.004 . S
O340 C345 1.259 . S
Co341 O342 2.061 . S
Co341 O347 2.052 . S
Co341 O349 2.135 . S
O342 Co341 2.061 . S
O342 C345 1.235 . S
C343 O346 1.238 . S
C343 O347 1.241 . S
C344 O337 1.247 . S
C344 O338 1.261 . S
C345 O340 1.259 . S
C345 O342 1.235 . S
O346 Co336 2.021 . S
O346 C343 1.238 . S
O347 Co341 2.052 . S
O347 C343 1.241 . S
O348 Co336 2.137 . S
O348 C339 1.247 . S
O349 Co336 2.244 . S
O349 C339 1.272 . S
O349 Co341 2.135 . S
Co350 O351 2.216 . S
Co350 O352 2.091 . S
Co350 O354 2.004 . S
Co350 O360 2.021 . S
Co350 O362 2.137 . S
Co350 O363 2.244 . S
O351 Co350 2.216 . S
O351 C358 1.247 . S
O352 Co350 2.091 . S
O352 C358 1.261 . S
C353 O362 1.247 . S
C353 O363 1.272 . S
O354 Co350 2.004 . S
O354 C359 1.259 . S
Co355 O356 2.061 . S
Co355 O361 2.052 . S
Co355 O363 2.135 . S
O356 Co355 2.061 . S
O356 C359 1.235 . S
C357 O360 1.238 . S
C357 O361 1.241 . S
C358 O351 1.247 . S
C358 O352 1.261 . S
C359 O354 1.259 . S
C359 O356 1.235 . S
O360 Co350 2.021 . S
O360 C357 1.238 . S
O361 Co355 2.052 . S
O361 C357 1.241 . S
O362 Co350 2.137 . S
O362 C353 1.247 . S
O363 Co350 2.244 . S
O363 C353 1.272 . S
O363 Co355 2.135 . S
Co364 O365 2.216 . S
Co364 O366 2.091 . S
Co364 O368 2.004 . S
Co364 O374 2.021 . S
Co364 O376 2.137 . S
Co364 O377 2.244 . S
O365 Co364 2.216 . S
O365 C372 1.247 . S
O366 Co364 2.091 . S
O366 C372 1.261 . S
C367 O376 1.247 . S
C367 O377 1.272 . S
O368 Co364 2.004 . S
O368 C373 1.259 . S
Co369 O370 2.061 . S
Co369 O375 2.052 . S
Co369 O377 2.135 . S
O370 Co369 2.061 . S
O370 C373 1.235 . S
C371 O374 1.238 . S
C371 O375 1.241 . S
C372 O365 1.247 . S
C372 O366 1.261 . S
C373 O368 1.259 . S
C373 O370 1.235 . S
O374 Co364 2.021 . S
O374 C371 1.238 . S
O375 Co369 2.052 . S
O375 C371 1.241 . S
O376 Co364 2.137 . S
O376 C367 1.247 . S
O377 Co364 2.244 . S
O377 C367 1.272 . S
O377 Co369 2.135 . S
Co378 O379 2.216 . S
Co378 O380 2.091 . S
Co378 O382 2.004 . S
Co378 O388 2.021 . S
Co378 O390 2.137 . S
Co378 O391 2.244 . S
O379 Co378 2.216 . S
O379 C386 1.247 . S
O380 Co378 2.091 . S
O380 C386 1.261 . S
C381 O390 1.247 . S
C381 O391 1.272 . S
O382 Co378 2.004 . S
O382 C387 1.259 . S
Co383 O384 2.061 . S
Co383 O389 2.052 . S
Co383 O391 2.135 . S
O384 Co383 2.061 . S
O384 C387 1.235 . S
C385 O388 1.238 . S
C385 O389 1.241 . S
C386 O379 1.247 . S
C386 O380 1.261 . S
C387 O382 1.259 . S
C387 O384 1.235 . S
O388 Co378 2.021 . S
O388 C385 1.238 . S
O389 Co383 2.052 . S
O389 C385 1.241 . S
O390 Co378 2.137 . S
O390 C381 1.247 . S
O391 Co378 2.244 . S
O391 C381 1.272 . S
O391 Co383 2.135 . S
Co392 O393 2.216 . S
Co392 O394 2.091 . S
Co392 O396 2.004 . S
Co392 O402 2.021 . S
Co392 O404 2.137 . S
Co392 O405 2.244 . S
O393 Co392 2.216 . S
O393 C400 1.247 . S
O394 Co392 2.091 . S
O394 C400 1.261 . S
C395 O404 1.247 . S
C395 O405 1.272 . S
O396 Co392 2.004 . S
O396 C401 1.259 . S
Co397 O398 2.061 . S
Co397 O403 2.052 . S
Co397 O405 2.135 . S
O398 Co397 2.061 . S
O398 C401 1.235 . S
C399 O402 1.238 . S
C399 O403 1.241 . S
C400 O393 1.247 . S
C400 O394 1.261 . S
C401 O396 1.259 . S
C401 O398 1.235 . S
O402 Co392 2.021 . S
O402 C399 1.238 . S
O403 Co397 2.052 . S
O403 C399 1.241 . S
O404 Co392 2.137 . S
O404 C395 1.247 . S
O405 Co392 2.244 . S
O405 C395 1.272 . S
O405 Co397 2.135 . S
Co406 O407 2.216 . S
Co406 O408 2.091 . S
Co406 O410 2.004 . S
Co406 O416 2.021 . S
Co406 O418 2.137 . S
Co406 O419 2.244 . S
O407 Co406 2.216 . S
O407 C414 1.247 . S
O408 Co406 2.091 . S
O408 C414 1.261 . S
C409 O418 1.247 . S
C409 O419 1.272 . S
O410 Co406 2.004 . S
O410 C415 1.259 . S
Co411 O412 2.061 . S
Co411 O417 2.052 . S
Co411 O419 2.135 . S
O412 Co411 2.061 . S
O412 C415 1.235 . S
C413 O416 1.238 . S
C413 O417 1.241 . S
C414 O407 1.247 . S
C414 O408 1.261 . S
C415 O410 1.259 . S
C415 O412 1.235 . S
O416 Co406 2.021 . S
O416 C413 1.238 . S
O417 Co411 2.052 . S
O417 C413 1.241 . S
O418 Co406 2.137 . S
O418 C409 1.247 . S
O419 Co406 2.244 . S
O419 C409 1.272 . S
O419 Co411 2.135 . S
Co420 O421 2.216 . S
Co420 O422 2.091 . S
Co420 O424 2.004 . S
Co420 O430 2.021 . S
Co420 O432 2.137 . S
Co420 O433 2.244 . S
O421 Co420 2.216 . S
O421 C428 1.247 . S
O422 Co420 2.091 . S
O422 C428 1.261 . S
C423 O432 1.247 . S
C423 O433 1.272 . S
O424 Co420 2.004 . S
O424 C429 1.259 . S
Co425 O426 2.061 . S
Co425 O431 2.052 . S
Co425 O433 2.135 . S
O426 Co425 2.061 . S
O426 C429 1.235 . S
C427 O430 1.238 . S
C427 O431 1.241 . S
C428 O421 1.247 . S
C428 O422 1.261 . S
C429 O424 1.259 . S
C429 O426 1.235 . S
O430 Co420 2.021 . S
O430 C427 1.238 . S
O431 Co425 2.052 . S
O431 C427 1.241 . S
O432 Co420 2.137 . S
O432 C423 1.247 . S
O433 Co420 2.244 . S
O433 C423 1.272 . S
O433 Co425 2.135 . S
Co434 O435 2.216 . S
Co434 O436 2.091 . S
Co434 O438 2.004 . S
Co434 O444 2.021 . S
Co434 O446 2.137 . S
Co434 O447 2.244 . S
O435 Co434 2.216 . S
O435 C442 1.247 . S
O436 Co434 2.091 . S
O436 C442 1.261 . S
C437 O446 1.247 . S
C437 O447 1.272 . S
O438 Co434 2.004 . S
O438 C443 1.259 . S
Co439 O440 2.061 . S
Co439 O445 2.052 . S
Co439 O447 2.135 . S
O440 Co439 2.061 . S
O440 C443 1.235 . S
C441 O444 1.238 . S
C441 O445 1.241 . S
C442 O435 1.247 . S
C442 O436 1.261 . S
C443 O438 1.259 . S
C443 O440 1.235 . S
O444 Co434 2.021 . S
O444 C441 1.238 . S
O445 Co439 2.052 . S
O445 C441 1.241 . S
O446 Co434 2.137 . S
O446 C437 1.247 . S
O447 Co434 2.244 . S
O447 C437 1.272 . S
O447 Co439 2.135 . S
H448 C460 0.930 . S
H449 C462 0.930 . S
H450 C463 0.930 . S
H451 C467 0.959 . S
H452 C467 0.959 . S
H453 C467 0.961 . S
H454 C468 0.960 1_545 S
H455 C468 0.961 . S
H456 C468 0.959 1_545 S
H457 C471 0.929 1_545 S
H458 C472 0.931 . S
H459 C474 0.930 . S
C460 H448 0.930 . S
C460 C461 1.399 . S
C460 C465 1.399 . S
C461 C460 1.399 . S
C461 C462 1.376 . S
C462 H449 0.930 . S
C462 C461 1.376 . S
C462 C463 1.388 . S
C463 H450 0.930 . S
C463 C462 1.388 . S
C463 C464 1.390 . S
C464 C463 1.390 . S
C464 C465 1.394 . S
C464 C470 1.465 1_545 S
C465 C460 1.399 . S
C465 C464 1.394 . S
C465 C466 1.516 1_545 S
C466 C465 1.516 1_565 S
C466 C467 1.502 . S
C466 C468 1.561 . S
C466 C469 1.526 . S
C467 H451 0.959 . S
C467 H452 0.959 . S
C467 H453 0.961 . S
C467 C466 1.502 . S
C468 H454 0.960 1_565 S
C468 H455 0.961 . S
C468 H456 0.959 1_565 S
C468 C466 1.561 . S
C469 C466 1.526 . S
C469 C470 1.396 . S
C469 C474 1.390 . S
C470 C464 1.465 1_565 S
C470 C469 1.396 . S
C470 C471 1.399 . S
C471 H457 0.929 1_565 S
C471 C470 1.399 . S
C471 C472 1.385 . S
C472 H458 0.931 . S
C472 C471 1.385 . S
C472 C473 1.389 . S
C473 C472 1.389 . S
C473 C474 1.387 . S
C474 H459 0.930 . S
C474 C469 1.390 . S
C474 C473 1.387 . S
H475 C487 0.930 . S
H476 C489 0.930 . S
H477 C490 0.930 . S
H478 C494 0.959 . S
H479 C494 0.959 . S
H480 C494 0.961 . S
H481 C495 0.960 . S
H482 C495 0.961 . S
H483 C495 0.959 . S
H484 C498 0.929 . S
H485 C499 0.931 . S
H486 C501 0.930 . S
C487 H475 0.930 . S
C487 C488 1.399 . S
C487 C492 1.399 . S
C488 C487 1.399 . S
C488 C489 1.376 . S
C489 H476 0.930 . S
C489 C488 1.376 . S
C489 C490 1.388 . S
C490 H477 0.930 . S
C490 C489 1.388 . S
C490 C491 1.390 . S
C491 C490 1.390 . S
C491 C492 1.394 . S
C491 C497 1.465 . S
C492 C487 1.399 . S
C492 C491 1.394 . S
C492 C493 1.516 . S
C493 C492 1.516 . S
C493 C494 1.502 . S
C493 C495 1.561 . S
C493 C496 1.526 . S
C494 H478 0.959 . S
C494 H479 0.959 . S
C494 H480 0.961 . S
C494 C493 1.502 . S
C495 H481 0.960 . S
C495 H482 0.961 . S
C495 H483 0.959 . S
C495 C493 1.561 . S
C496 C493 1.526 . S
C496 C497 1.396 . S
C496 C501 1.390 . S
C497 C491 1.465 . S
C497 C496 1.396 . S
C497 C498 1.399 . S
C498 H484 0.929 . S
C498 C497 1.399 . S
C498 C499 1.385 . S
C499 H485 0.931 . S
C499 C498 1.385 . S
C499 C500 1.389 . S
C500 C499 1.389 . S
C500 C501 1.387 . S
C501 H486 0.930 . S
C501 C496 1.390 . S
C501 C500 1.387 . S
H502 C514 0.930 . S
H503 C516 0.930 . S
H504 C517 0.930 . S
H505 C521 0.959 . S
H506 C521 0.959 1_565 S
H507 C521 0.961 . S
H508 C522 0.960 . S
H509 C522 0.961 . S
H510 C522 0.959 . S
H511 C525 0.929 . S
H512 C526 0.931 . S
H513 C528 0.930 . S
C514 H502 0.930 . S
C514 C515 1.399 . S
C514 C519 1.399 . S
C515 C514 1.399 . S
C515 C516 1.376 . S
C516 H503 0.930 . S
C516 C515 1.376 . S
C516 C517 1.388 . S
C517 H504 0.930 . S
C517 C516 1.388 . S
C517 C518 1.390 . S
C518 C517 1.390 . S
C518 C519 1.394 . S
C518 C524 1.465 1_545 S
C519 C514 1.399 . S
C519 C518 1.394 . S
C519 C520 1.516 1_545 S
C520 C519 1.516 1_565 S
C520 C521 1.502 1_565 S
C520 C522 1.561 . S
C520 C523 1.526 . S
C521 H505 0.959 . S
C521 H506 0.959 1_545 S
C521 H507 0.961 . S
C521 C520 1.502 1_545 S
C522 H508 0.960 . S
C522 H509 0.961 . S
C522 H510 0.959 . S
C522 C520 1.561 . S
C523 C520 1.526 . S
C523 C524 1.396 . S
C523 C528 1.390 . S
C524 C518 1.465 1_565 S
C524 C523 1.396 . S
C524 C525 1.399 . S
C525 H511 0.929 . S
C525 C524 1.399 . S
C525 C526 1.385 . S
C526 H512 0.931 . S
C526 C525 1.385 . S
C526 C527 1.389 . S
C527 C526 1.389 . S
C527 C528 1.387 . S
C528 H513 0.930 . S
C528 C523 1.390 . S
C528 C527 1.387 . S
H529 C541 0.930 . S
H530 C543 0.930 . S
H531 C544 0.930 . S
H532 C548 0.959 . S
H533 C548 0.959 . S
H534 C548 0.961 . S
H535 C549 0.960 . S
H536 C549 0.961 . S
H537 C549 0.959 . S
H538 C552 0.929 . S
H539 C553 0.931 . S
H540 C555 0.930 . S
C541 H529 0.930 . S
C541 C542 1.399 . S
C541 C546 1.399 . S
C542 C541 1.399 . S
C542 C543 1.376 . S
C543 H530 0.930 . S
C543 C542 1.376 . S
C543 C544 1.388 1_556 S
C544 H531 0.930 . S
C544 C543 1.388 1_554 S
C544 C545 1.391 . S
C545 C544 1.391 . S
C545 C546 1.381 1_554 S
C545 C551 1.475 . S
C546 C541 1.399 . S
C546 C545 1.381 1_556 S
C546 C547 1.516 . S
C547 C546 1.516 . S
C547 C548 1.502 . S
C547 C549 1.561 . S
C547 C550 1.526 1_556 S
C548 H532 0.959 . S
C548 H533 0.959 . S
C548 H534 0.961 . S
C548 C547 1.502 . S
C549 H535 0.960 . S
C549 H536 0.961 . S
C549 H537 0.959 . S
C549 C547 1.561 . S
C550 C547 1.526 1_554 S
C550 C551 1.396 . S
C550 C555 1.390 . S
C551 C545 1.475 . S
C551 C550 1.396 . S
C551 C552 1.399 . S
C552 H538 0.929 . S
C552 C551 1.399 . S
C552 C553 1.385 . S
C553 H539 0.931 . S
C553 C552 1.385 . S
C553 C554 1.389 . S
C554 C553 1.389 . S
C554 C555 1.387 . S
C555 H540 0.930 . S
C555 C550 1.390 . S
C555 C554 1.387 . S
H556 C568 0.930 . S
H557 C570 0.930 . S
H558 C571 0.930 1_545 S
H559 C575 0.959 . S
H560 C575 0.959 . S
H561 C575 0.961 . S
H562 C576 0.960 . S
H563 C576 0.961 . S
H564 C576 0.959 . S
H565 C579 0.929 . S
H566 C580 0.931 . S
H567 C582 0.930 . S
C568 H556 0.930 . S
C568 C569 1.399 . S
C568 C573 1.399 . S
C569 C568 1.399 . S
C569 C570 1.376 . S
C570 H557 0.930 . S
C570 C569 1.376 . S
C570 C571 1.388 . S
C571 H558 0.930 1_565 S
C571 C570 1.388 . S
C571 C572 1.390 . S
C572 C571 1.390 . S
C572 C573 1.394 . S
C572 C578 1.465 1_565 S
C573 C568 1.399 . S
C573 C572 1.394 . S
C573 C574 1.516 . S
C574 C573 1.516 . S
C574 C575 1.502 . S
C574 C576 1.561 . S
C574 C577 1.526 1_565 S
C575 H559 0.959 . S
C575 H560 0.959 . S
C575 H561 0.961 . S
C575 C574 1.502 . S
C576 H562 0.960 . S
C576 H563 0.961 . S
C576 H564 0.959 . S
C576 C574 1.561 . S
C577 C574 1.526 1_545 S
C577 C578 1.396 . S
C577 C582 1.390 . S
C578 C572 1.465 1_545 S
C578 C577 1.396 . S
C578 C579 1.399 . S
C579 H565 0.929 . S
C579 C578 1.399 . S
C579 C580 1.385 . S
C580 H566 0.931 . S
C580 C579 1.385 . S
C580 C581 1.389 . S
C581 C580 1.389 . S
C581 C582 1.387 . S
C582 H567 0.930 . S
C582 C577 1.390 . S
C582 C581 1.387 . S
H583 C595 0.930 . S
H584 C597 0.930 . S
H585 C598 0.930 . S
H586 C602 0.959 . S
H587 C602 0.959 . S
H588 C602 0.961 . S
H589 C603 0.960 . S
H590 C603 0.961 . S
H591 C603 0.959 . S
H592 C606 0.929 . S
H593 C607 0.931 . S
H594 C609 0.930 . S
C595 H583 0.930 . S
C595 C596 1.399 . S
C595 C600 1.399 . S
C596 C595 1.399 . S
C596 C597 1.376 . S
C597 H584 0.930 . S
C597 C596 1.376 . S
C597 C598 1.388 . S
C598 H585 0.930 . S
C598 C597 1.388 . S
C598 C599 1.390 . S
C599 C598 1.390 . S
C599 C600 1.394 . S
C599 C605 1.465 . S
C600 C595 1.399 . S
C600 C599 1.394 . S
C600 C601 1.516 . S
C601 C600 1.516 . S
C601 C602 1.502 . S
C601 C603 1.561 . S
C601 C604 1.526 . S
C602 H586 0.959 . S
C602 H587 0.959 . S
C602 H588 0.961 . S
C602 C601 1.502 . S
C603 H589 0.960 . S
C603 H590 0.961 . S
C603 H591 0.959 . S
C603 C601 1.561 . S
C604 C601 1.526 . S
C604 C605 1.396 . S
C604 C609 1.390 . S
C605 C599 1.465 . S
C605 C604 1.396 . S
C605 C606 1.399 . S
C606 H592 0.929 . S
C606 C605 1.399 . S
C606 C607 1.385 . S
C607 H593 0.931 . S
C607 C606 1.385 . S
C607 C608 1.389 . S
C608 C607 1.389 . S
C608 C609 1.387 . S
C609 H594 0.930 . S
C609 C604 1.390 . S
C609 C608 1.387 . S
H610 C622 0.930 . S
H611 C624 0.930 . S
H612 C625 0.930 . S
H613 C629 0.959 . S
H614 C629 0.959 . S
H615 C629 0.961 . S
H616 C630 0.982 . S
H617 C630 0.961 . S
H618 C630 0.959 1_565 S
H619 C633 0.929 1_565 S
H620 C634 0.931 . S
H621 C636 0.930 . S
C622 H610 0.930 . S
C622 C623 1.399 . S
C622 C627 1.399 . S
C623 C622 1.399 . S
C623 C624 1.376 . S
C624 H611 0.930 . S
C624 C623 1.376 . S
C624 C625 1.388 . S
C625 H612 0.930 . S
C625 C624 1.388 . S
C625 C626 1.390 . S
C626 C625 1.390 . S
C626 C627 1.394 . S
C626 C632 1.465 1_565 S
C627 C622 1.399 . S
C627 C626 1.394 . S
C627 C628 1.516 1_565 S
C628 C627 1.516 1_545 S
C628 C629 1.502 . S
C628 C630 1.561 . S
C628 C631 1.526 . S
C629 H613 0.959 . S
C629 H614 0.959 . S
C629 H615 0.961 . S
C629 C628 1.502 . S
C630 H616 0.982 . S
C630 H617 0.961 . S
C630 H618 0.959 1_545 S
C630 C628 1.561 . S
C631 C628 1.526 . S
C631 C632 1.396 . S
C631 C636 1.390 . S
C632 C626 1.465 1_545 S
C632 C631 1.396 . S
C632 C633 1.399 . S
C633 H619 0.929 1_545 S
C633 C632 1.399 . S
C633 C634 1.385 . S
C634 H620 0.931 . S
C634 C633 1.385 . S
C634 C635 1.389 . S
C635 C634 1.389 . S
C635 C636 1.387 . S
C636 H621 0.930 . S
C636 C631 1.390 . S
C636 C635 1.387 . S
H637 C649 0.930 . S
H638 C651 0.930 . S
H639 C652 0.930 1_554 S
H640 C656 0.959 . S
H641 C656 0.959 . S
H642 C656 0.961 . S
H643 C657 0.960 . S
H644 C657 0.961 . S
H645 C657 0.959 1_554 S
H646 C660 0.929 . S
H647 C661 0.931 . S
H648 C663 0.930 . S
C649 H637 0.930 . S
C649 C650 1.399 . S
C649 C654 1.399 . S
C650 C649 1.399 . S
C650 C651 1.376 . S
C651 H638 0.930 . S
C651 C650 1.376 . S
C651 C652 1.388 . S
C652 H639 0.930 1_556 S
C652 C651 1.388 . S
C652 C653 1.390 . S
C653 C652 1.390 . S
C653 C654 1.394 . S
C653 C659 1.465 1_556 S
C654 C649 1.399 . S
C654 C653 1.394 . S
C654 C655 1.516 . S
C655 C654 1.516 . S
C655 C656 1.502 . S
C655 C657 1.561 . S
C655 C658 1.526 1_556 S
C656 H640 0.959 . S
C656 H641 0.959 . S
C656 H642 0.961 . S
C656 C655 1.502 . S
C657 H643 0.960 . S
C657 H644 0.961 . S
C657 H645 0.959 1_556 S
C657 C655 1.561 . S
C658 C655 1.526 1_554 S
C658 C659 1.396 . S
C658 C663 1.390 . S
C659 C653 1.465 1_554 S
C659 C658 1.396 . S
C659 C660 1.399 . S
C660 H646 0.929 . S
C660 C659 1.399 . S
C660 C661 1.385 . S
C661 H647 0.931 . S
C661 C660 1.385 . S
C661 C662 1.389 . S
C662 C661 1.389 . S
C662 C663 1.387 . S
C663 H648 0.930 . S
C663 C658 1.390 . S
C663 C662 1.387 . S
H664 C676 0.930 . S
H665 C678 0.930 . S
H666 C679 0.930 . S
H667 C683 0.959 . S
H668 C683 0.959 . S
H669 C683 0.961 . S
H670 C684 0.960 . S
H671 C684 0.961 . S
H672 C684 0.959 . S
H673 C687 0.929 . S
H674 C688 0.931 . S
H675 C690 0.930 . S
C676 H664 0.930 . S
C676 C677 1.399 . S
C676 C681 1.399 . S
C677 C676 1.399 . S
C677 C678 1.376 . S
C678 H665 0.930 . S
C678 C677 1.376 . S
C678 C679 1.388 . S
C679 H666 0.930 . S
C679 C678 1.388 . S
C679 C680 1.390 . S
C680 C679 1.390 . S
C680 C681 1.394 . S
C680 C686 1.465 . S
C681 C676 1.399 . S
C681 C680 1.394 . S
C681 C682 1.516 . S
C682 C681 1.516 . S
C682 C683 1.502 . S
C682 C684 1.561 . S
C682 C685 1.526 . S
C683 H667 0.959 . S
C683 H668 0.959 . S
C683 H669 0.961 . S
C683 C682 1.502 . S
C684 H670 0.960 . S
C684 H671 0.961 . S
C684 H672 0.959 . S
C684 C682 1.561 . S
C685 C682 1.526 . S
C685 C686 1.396 . S
C685 C690 1.390 . S
C686 C680 1.465 . S
C686 C685 1.396 . S
C686 C687 1.399 . S
C687 H673 0.929 . S
C687 C686 1.399 . S
C687 C688 1.385 . S
C688 H674 0.931 . S
C688 C687 1.385 . S
C688 C689 1.389 . S
C689 C688 1.389 . S
C689 C690 1.387 . S
C690 H675 0.930 . S
C690 C685 1.390 . S
C690 C689 1.387 . S
H691 C703 0.930 . S
H692 C705 0.930 . S
H693 C706 0.930 . S
H694 C710 0.959 . S
H695 C710 0.959 . S
H696 C710 0.961 . S
H697 C711 0.960 . S
H698 C711 0.961 . S
H699 C711 0.959 . S
H700 C714 0.929 . S
H701 C715 0.931 . S
H702 C717 0.930 . S
C703 H691 0.930 . S
C703 C704 1.399 . S
C703 C708 1.399 . S
C704 C703 1.399 . S
C704 C705 1.376 . S
C705 H692 0.930 . S
C705 C704 1.376 . S
C705 C706 1.388 . S
C706 H693 0.930 . S
C706 C705 1.388 . S
C706 C707 1.390 . S
C707 C706 1.390 . S
C707 C708 1.394 . S
C707 C713 1.465 1_556 S
C708 C703 1.399 . S
C708 C707 1.394 . S
C708 C709 1.516 . S
C709 C708 1.516 . S
C709 C710 1.502 . S
C709 C711 1.561 1_556 S
C709 C712 1.526 1_556 S
C710 H694 0.959 . S
C710 H695 0.959 . S
C710 H696 0.961 . S
C710 C709 1.502 . S
C711 H697 0.960 . S
C711 H698 0.961 . S
C711 H699 0.959 . S
C711 C709 1.561 1_554 S
C712 C709 1.526 1_554 S
C712 C713 1.396 . S
C712 C717 1.390 . S
C713 C707 1.465 1_554 S
C713 C712 1.396 . S
C713 C714 1.399 . S
C714 H700 0.929 . S
C714 C713 1.399 . S
C714 C715 1.385 . S
C715 H701 0.931 . S
C715 C714 1.385 . S
C715 C716 1.389 . S
C716 C715 1.389 . S
C716 C717 1.387 . S
C717 H702 0.930 . S
C717 C712 1.390 . S
C717 C716 1.387 . S
H718 C730 0.930 . S
H719 C732 0.930 . S
H720 C733 0.930 . S
H721 C737 0.959 . S
H722 C737 0.959 . S
H723 C737 0.961 . S
H724 C738 0.960 . S
H725 C738 0.961 . S
H726 C738 0.959 . S
H727 C741 0.929 . S
H728 C742 0.931 . S
H729 C744 0.930 . S
C730 H718 0.930 . S
C730 C731 1.399 . S
C730 C735 1.399 . S
C731 C730 1.399 . S
C731 C732 1.376 . S
C732 H719 0.930 . S
C732 C731 1.376 . S
C732 C733 1.388 . S
C733 H720 0.930 . S
C733 C732 1.388 . S
C733 C734 1.390 . S
C734 C733 1.390 . S
C734 C735 1.394 . S
C734 C740 1.465 . S
C735 C730 1.399 . S
C735 C734 1.394 . S
C735 C736 1.516 . S
C736 C735 1.516 . S
C736 C737 1.502 . S
C736 C738 1.561 . S
C736 C739 1.526 . S
C737 H721 0.959 . S
C737 H722 0.959 . S
C737 H723 0.961 . S
C737 C736 1.502 . S
C738 H724 0.960 . S
C738 H725 0.961 . S
C738 H726 0.959 . S
C738 C736 1.561 . S
C739 C736 1.526 . S
C739 C740 1.396 . S
C739 C744 1.390 . S
C740 C734 1.465 . S
C740 C739 1.396 . S
C740 C741 1.399 . S
C741 H727 0.929 . S
C741 C740 1.399 . S
C741 C742 1.385 . S
C742 H728 0.931 . S
C742 C741 1.385 . S
C742 C743 1.389 . S
C743 C742 1.389 . S
C743 C744 1.387 . S
C744 H729 0.930 . S
C744 C739 1.390 . S
C744 C743 1.387 . S
H745 C757 0.930 . S
H746 C759 0.930 . S
H747 C760 0.930 . S
H748 C764 0.959 . S
H749 C764 0.959 . S
H750 C764 0.961 . S
H751 C765 0.960 . S
H752 C765 0.961 . S
H753 C765 0.959 . S
H754 C768 0.929 . S
H755 C769 0.931 . S
H756 C771 0.930 . S
C757 H745 0.930 . S
C757 C758 1.399 . S
C757 C762 1.399 . S
C758 C757 1.399 . S
C758 C759 1.376 . S
C759 H746 0.930 . S
C759 C758 1.376 . S
C759 C760 1.388 . S
C760 H747 0.930 . S
C760 C759 1.388 . S
C760 C761 1.390 . S
C761 C760 1.390 . S
C761 C762 1.394 . S
C761 C767 1.465 . S
C762 C757 1.399 . S
C762 C761 1.394 . S
C762 C763 1.516 . S
C763 C762 1.516 . S
C763 C764 1.502 . S
C763 C765 1.561 . S
C763 C766 1.526 . S
C764 H748 0.959 . S
C764 H749 0.959 . S
C764 H750 0.961 . S
C764 C763 1.502 . S
C765 H751 0.960 . S
C765 H752 0.961 . S
C765 H753 0.959 . S
C765 C763 1.561 . S
C766 C763 1.526 . S
C766 C767 1.396 . S
C766 C771 1.390 . S
C767 C761 1.465 . S
C767 C766 1.396 . S
C767 C768 1.399 . S
C768 H754 0.929 . S
C768 C767 1.399 . S
C768 C769 1.385 . S
C769 H755 0.931 . S
C769 C768 1.385 . S
C769 C770 1.389 . S
C770 C769 1.389 . S
C770 C771 1.387 . S
C771 H756 0.930 . S
C771 C766 1.390 . S
C771 C770 1.387 . S
H772 C784 0.930 . S
H773 C786 0.930 . S
H774 C787 0.930 . S
H775 C791 0.959 . S
H776 C791 0.959 . S
H777 C791 0.961 . S
H778 C792 0.960 . S
H779 C792 0.961 . S
H780 C792 0.959 . S
H781 C795 0.929 . S
H782 C796 0.931 . S
H783 C798 0.930 . S
C784 H772 0.930 . S
C784 C785 1.399 . S
C784 C789 1.399 . S
C785 C784 1.399 . S
C785 C786 1.376 . S
C786 H773 0.930 . S
C786 C785 1.376 . S
C786 C787 1.388 . S
C787 H774 0.930 . S
C787 C786 1.388 . S
C787 C788 1.390 . S
C788 C787 1.390 . S
C788 C789 1.394 . S
C788 C794 1.465 . S
C789 C784 1.399 . S
C789 C788 1.394 . S
C789 C790 1.516 . S
C790 C789 1.516 . S
C790 C791 1.502 . S
C790 C792 1.561 . S
C790 C793 1.526 . S
C791 H775 0.959 . S
C791 H776 0.959 . S
C791 H777 0.961 . S
C791 C790 1.502 . S
C792 H778 0.960 . S
C792 H779 0.961 . S
C792 H780 0.959 . S
C792 C790 1.561 . S
C793 C790 1.526 . S
C793 C794 1.396 . S
C793 C798 1.390 . S
C794 C788 1.465 . S
C794 C793 1.396 . S
C794 C795 1.399 . S
C795 H781 0.929 . S
C795 C794 1.399 . S
C795 C796 1.385 . S
C796 H782 0.931 . S
C796 C795 1.385 . S
C796 C797 1.389 . S
C797 C796 1.389 . S
C797 C798 1.387 . S
C798 H783 0.930 . S
C798 C793 1.390 . S
C798 C797 1.387 . S
H799 C811 0.930 . S
H800 C813 0.930 . S
H801 C814 0.930 . S
H802 C818 0.959 . S
H803 C818 0.959 . S
H804 C818 0.961 . S
H805 C819 0.960 . S
H806 C819 0.961 . S
H807 C819 0.959 . S
H808 C822 0.929 . S
H809 C823 0.931 . S
H810 C825 0.930 . S
C811 H799 0.930 . S
C811 C812 1.399 . S
C811 C816 1.399 . S
C812 C811 1.399 . S
C812 C813 1.376 . S
C813 H800 0.930 . S
C813 C812 1.376 . S
C813 C814 1.388 . S
C814 H801 0.930 . S
C814 C813 1.388 . S
C814 C815 1.390 . S
C815 C814 1.390 . S
C815 C816 1.394 . S
C815 C821 1.465 1_554 S
C816 C811 1.399 . S
C816 C815 1.394 . S
C816 C817 1.516 1_554 S
C817 C816 1.516 1_556 S
C817 C818 1.502 . S
C817 C819 1.561 1_556 S
C817 C820 1.526 . S
C818 H802 0.959 . S
C818 H803 0.959 . S
C818 H804 0.961 . S
C818 C817 1.502 . S
C819 H805 0.960 . S
C819 H806 0.961 . S
C819 H807 0.959 . S
C819 C817 1.561 1_554 S
C820 C817 1.526 . S
C820 C821 1.396 . S
C820 C825 1.390 . S
C821 C815 1.465 1_556 S
C821 C820 1.396 . S
C821 C822 1.399 . S
C822 H808 0.929 . S
C822 C821 1.399 . S
C822 C823 1.385 . S
C823 H809 0.931 . S
C823 C822 1.385 . S
C823 C824 1.389 . S
C824 C823 1.389 . S
C824 C825 1.387 . S
C825 H810 0.930 . S
C825 C820 1.390 . S
C825 C824 1.387 . S
H826 C838 0.930 . S
H827 C840 0.930 . S
H828 C841 0.930 . S
H829 C845 0.959 . S
H830 C845 0.959 . S
H831 C845 0.961 . S
H832 C846 0.960 . S
H833 C846 0.961 . S
H834 C846 0.959 . S
H835 C849 0.929 . S
H836 C850 0.931 . S
H837 C852 0.930 . S
C838 H826 0.930 . S
C838 C839 1.399 . S
C838 C843 1.399 . S
C839 C838 1.399 . S
C839 C840 1.376 . S
C840 H827 0.930 . S
C840 C839 1.376 . S
C840 C841 1.388 . S
C841 H828 0.930 . S
C841 C840 1.388 . S
C841 C842 1.390 . S
C842 C841 1.390 . S
C842 C843 1.394 . S
C842 C848 1.465 . S
C843 C838 1.399 . S
C843 C842 1.394 . S
C843 C844 1.516 . S
C844 C843 1.516 . S
C844 C845 1.502 . S
C844 C846 1.561 . S
C844 C847 1.526 . S
C845 H829 0.959 . S
C845 H830 0.959 . S
C845 H831 0.961 . S
C845 C844 1.502 . S
C846 H832 0.960 . S
C846 H833 0.961 . S
C846 H834 0.959 . S
C846 C844 1.561 . S
C847 C844 1.526 . S
C847 C848 1.396 . S
C847 C852 1.390 . S
C848 C842 1.465 . S
C848 C847 1.396 . S
C848 C849 1.399 . S
C849 H835 0.929 . S
C849 C848 1.399 . S
C849 C850 1.385 . S
C850 H836 0.931 . S
C850 C849 1.385 . S
C850 C851 1.389 . S
C851 C850 1.389 . S
C851 C852 1.387 . S
C852 H837 0.930 . S
C852 C847 1.390 . S
C852 C851 1.387 . S
H853 C865 0.930 . S
H854 C867 0.930 . S
H855 C868 0.930 . S
H856 C872 0.959 . S
H857 C872 0.959 . S
H858 C872 0.961 . S
H859 C873 0.960 . S
H860 C873 0.961 . S
H861 C873 0.959 . S
H862 C876 0.929 . S
H863 C877 0.931 . S
H864 C879 0.930 . S
C865 H853 0.930 . S
C865 C866 1.399 . S
C865 C870 1.399 . S
C866 C865 1.399 . S
C866 C867 1.376 . S
C867 H854 0.930 . S
C867 C866 1.376 . S
C867 C868 1.388 . S
C868 H855 0.930 . S
C868 C867 1.388 . S
C868 C869 1.390 . S
C869 C868 1.390 . S
C869 C870 1.394 . S
C869 C875 1.465 . S
C870 C865 1.399 . S
C870 C869 1.394 . S
C870 C871 1.516 . S
C871 C870 1.516 . S
C871 C872 1.502 . S
C871 C873 1.561 . S
C871 C874 1.526 . S
C872 H856 0.959 . S
C872 H857 0.959 . S
C872 H858 0.961 . S
C872 C871 1.502 . S
C873 H859 0.960 . S
C873 H860 0.961 . S
C873 H861 0.959 . S
C873 C871 1.561 . S
C874 C871 1.526 . S
C874 C875 1.396 . S
C874 C879 1.390 . S
C875 C869 1.465 . S
C875 C874 1.396 . S
C875 C876 1.399 . S
C876 H862 0.929 . S
C876 C875 1.399 . S
C876 C877 1.385 . S
C877 H863 0.931 . S
C877 C876 1.385 . S
C877 C878 1.389 . S
C878 C877 1.389 . S
C878 C879 1.387 . S
C879 H864 0.930 . S
C879 C874 1.390 . S
C879 C878 1.387 . S
H880 C892 0.930 . S
H881 C894 0.930 . S
H882 C895 0.930 . S
H883 C899 0.959 . S
H884 C899 0.959 . S
H885 C899 0.961 . S
H886 C900 0.960 . S
H887 C900 0.961 . S
H888 C900 0.959 . S
H889 C903 0.929 . S
H890 C904 0.931 . S
H891 C906 0.930 . S
C892 H880 0.930 . S
C892 C893 1.399 . S
C892 C897 1.399 . S
C893 C892 1.399 . S
C893 C894 1.376 . S
C894 H881 0.930 . S
C894 C893 1.376 . S
C894 C895 1.388 . S
C895 H882 0.930 . S
C895 C894 1.388 . S
C895 C896 1.390 . S
C896 C895 1.390 . S
C896 C897 1.394 . S
C896 C902 1.465 . S
C897 C892 1.399 . S
C897 C896 1.394 . S
C897 C898 1.516 . S
C898 C897 1.516 . S
C898 C899 1.502 . S
C898 C900 1.561 . S
C898 C901 1.526 . S
C899 H883 0.959 . S
C899 H884 0.959 . S
C899 H885 0.961 . S
C899 C898 1.502 . S
C900 H886 0.960 . S
C900 H887 0.961 . S
C900 H888 0.959 . S
C900 C898 1.561 . S
C901 C898 1.526 . S
C901 C902 1.396 . S
C901 C906 1.390 . S
C902 C896 1.465 . S
C902 C901 1.396 . S
C902 C903 1.399 . S
C903 H889 0.929 . S
C903 C902 1.399 . S
C903 C904 1.385 . S
C904 H890 0.931 . S
C904 C903 1.385 . S
C904 C905 1.389 . S
C905 C904 1.389 . S
C905 C906 1.387 . S
C906 H891 0.930 . S
C906 C901 1.390 . S
C906 C905 1.387 . S
H907 C919 0.930 . S
H908 C921 0.930 . S
H909 C922 0.930 . S
H910 C926 0.959 . S
H911 C926 0.959 . S
H912 C926 0.961 1_655 S
H913 C927 0.960 1_655 S
H914 C927 0.961 . S
H915 C927 0.959 . S
H916 C930 0.929 . S
H917 C931 0.931 . S
H918 C933 0.930 . S
C919 H907 0.930 . S
C919 C920 1.399 . S
C919 C924 1.399 . S
C920 C919 1.399 . S
C920 C921 1.376 . S
C921 H908 0.930 . S
C921 C920 1.376 . S
C921 C922 1.388 . S
C922 H909 0.930 . S
C922 C921 1.388 . S
C922 C923 1.390 1_655 S
C923 C922 1.390 1_455 S
C923 C924 1.394 1_455 S
C923 C929 1.465 . S
C924 C919 1.399 . S
C924 C923 1.394 1_655 S
C924 C925 1.516 1_655 S
C925 C924 1.516 1_455 S
C925 C926 1.502 . S
C925 C927 1.561 . S
C925 C928 1.526 . S
C926 H910 0.959 . S
C926 H911 0.959 . S
C926 H912 0.961 1_455 S
C926 C925 1.502 . S
C927 H913 0.960 1_455 S
C927 H914 0.961 . S
C927 H915 0.959 . S
C927 C925 1.561 . S
C928 C925 1.526 . S
C928 C929 1.396 . S
C928 C933 1.390 . S
C929 C923 1.465 . S
C929 C928 1.396 . S
C929 C930 1.399 . S
C930 H916 0.929 . S
C930 C929 1.399 . S
C930 C931 1.385 . S
C931 H917 0.931 . S
C931 C930 1.385 . S
C931 C932 1.389 . S
C932 C931 1.389 . S
C932 C933 1.387 . S
C933 H918 0.930 . S
C933 C928 1.390 . S
C933 C932 1.387 . S
H934 C946 0.930 . S
H935 C948 0.930 . S
H936 C949 0.930 . S
H937 C953 0.959 . S
H938 C953 0.959 . S
H939 C953 0.961 . S
H940 C954 0.960 . S
H941 C954 0.961 . S
H942 C954 0.959 . S
H943 C957 0.929 . S
H944 C958 0.931 . S
H945 C960 0.930 . S
C946 H934 0.930 . S
C946 C947 1.399 . S
C946 C951 1.399 . S
C947 C946 1.399 . S
C947 C948 1.376 . S
C948 H935 0.930 . S
C948 C947 1.376 . S
C948 C949 1.388 . S
C949 H936 0.930 . S
C949 C948 1.388 . S
C949 C950 1.390 . S
C950 C949 1.390 . S
C950 C951 1.394 . S
C950 C956 1.465 . S
C951 C946 1.399 . S
C951 C950 1.394 . S
C951 C952 1.516 . S
C952 C951 1.516 . S
C952 C953 1.502 . S
C952 C954 1.561 . S
C952 C955 1.526 . S
C953 H937 0.959 . S
C953 H938 0.959 . S
C953 H939 0.961 . S
C953 C952 1.502 . S
C954 H940 0.960 . S
C954 H941 0.961 . S
C954 H942 0.959 . S
C954 C952 1.561 . S
C955 C952 1.526 . S
C955 C956 1.396 . S
C955 C960 1.390 . S
C956 C950 1.465 . S
C956 C955 1.396 . S
C956 C957 1.399 . S
C957 H943 0.929 . S
C957 C956 1.399 . S
C957 C958 1.385 . S
C958 H944 0.931 . S
C958 C957 1.385 . S
C958 C959 1.389 . S
C959 C958 1.389 . S
C959 C960 1.387 . S
C960 H945 0.930 . S
C960 C955 1.390 . S
C960 C959 1.387 . S
H961 C973 0.930 . S
H962 C975 0.930 . S
H963 C976 0.930 . S
H964 C980 0.959 . S
H965 C980 0.959 . S
H966 C980 0.961 . S
H967 C981 0.960 . S
H968 C981 0.961 . S
H969 C981 0.959 . S
H970 C984 0.929 . S
H971 C985 0.931 . S
H972 C987 0.930 . S
C973 H961 0.930 . S
C973 C974 1.399 . S
C973 C978 1.399 . S
C974 C973 1.399 . S
C974 C975 1.376 . S
C975 H962 0.930 . S
C975 C974 1.376 . S
C975 C976 1.388 . S
C976 H963 0.930 . S
C976 C975 1.388 . S
C976 C977 1.390 . S
C977 C976 1.390 . S
C977 C978 1.394 . S
C977 C983 1.465 . S
C978 C973 1.399 . S
C978 C977 1.394 . S
C978 C979 1.516 . S
C979 C978 1.516 . S
C979 C980 1.502 . S
C979 C981 1.561 . S
C979 C982 1.526 . S
C980 H964 0.959 . S
C980 H965 0.959 . S
C980 H966 0.961 . S
C980 C979 1.502 . S
C981 H967 0.960 . S
C981 H968 0.961 . S
C981 H969 0.959 . S
C981 C979 1.561 . S
C982 C979 1.526 . S
C982 C983 1.396 . S
C982 C987 1.390 . S
C983 C977 1.465 . S
C983 C982 1.396 . S
C983 C984 1.399 . S
C984 H970 0.929 . S
C984 C983 1.399 . S
C984 C985 1.385 . S
C985 H971 0.931 . S
C985 C984 1.385 . S
C985 C986 1.389 . S
C986 C985 1.389 . S
C986 C987 1.387 . S
C987 H972 0.930 . S
C987 C982 1.390 . S
C987 C986 1.387 . S
H988 C1000 0.930 . S
H989 C1002 0.930 . S
H990 C1003 0.930 . S
H991 C1007 0.959 . S
H992 C1007 0.959 . S
H993 C1007 0.961 . S
H994 C1008 0.960 . S
H995 C1008 0.961 . S
H996 C1008 0.959 . S
H997 C1011 0.929 . S
H998 C1012 0.931 . S
H999 C1014 0.930 . S
C1000 H988 0.930 . S
C1000 C1001 1.399 . S
C1000 C1005 1.399 . S
C1001 C1000 1.399 . S
C1001 C1002 1.376 . S
C1002 H989 0.930 . S
C1002 C1001 1.376 . S
C1002 C1003 1.388 . S
C1003 H990 0.930 . S
C1003 C1002 1.388 . S
C1003 C1004 1.390 . S
C1004 C1003 1.390 . S
C1004 C1005 1.394 . S
C1004 C1010 1.465 . S
C1005 C1000 1.399 . S
C1005 C1004 1.394 . S
C1005 C1006 1.516 . S
C1006 C1005 1.516 . S
C1006 C1007 1.502 . S
C1006 C1008 1.561 . S
C1006 C1009 1.526 . S
C1007 H991 0.959 . S
C1007 H992 0.959 . S
C1007 H993 0.961 . S
C1007 C1006 1.502 . S
C1008 H994 0.960 . S
C1008 H995 0.961 . S
C1008 H996 0.959 . S
C1008 C1006 1.561 . S
C1009 C1006 1.526 . S
C1009 C1010 1.396 . S
C1009 C1014 1.390 . S
C1010 C1004 1.465 . S
C1010 C1009 1.396 . S
C1010 C1011 1.399 . S
C1011 H997 0.929 . S
C1011 C1010 1.399 . S
C1011 C1012 1.385 . S
C1012 H998 0.931 . S
C1012 C1011 1.385 . S
C1012 C1013 1.389 . S
C1013 C1012 1.389 . S
C1013 C1014 1.387 . S
C1014 H999 0.930 . S
C1014 C1009 1.390 . S
C1014 C1013 1.387 . S
H1015 C1027 0.930 . S
H1016 C1029 0.930 . S
H1017 C1030 0.930 . S
H1018 C1034 0.959 . S
H1019 C1034 0.959 . S
H1020 C1034 0.961 . S
H1021 C1035 0.960 . S
H1022 C1035 0.961 . S
H1023 C1035 0.959 . S
H1024 C1038 0.929 . S
H1025 C1039 0.931 . S
H1026 C1041 0.930 . S
C1027 H1015 0.930 . S
C1027 C1028 1.399 . S
C1027 C1032 1.399 . S
C1028 C1027 1.399 . S
C1028 C1029 1.376 . S
C1029 H1016 0.930 . S
C1029 C1028 1.376 . S
C1029 C1030 1.388 . S
C1030 H1017 0.930 . S
C1030 C1029 1.388 . S
C1030 C1031 1.390 . S
C1031 C1030 1.390 . S
C1031 C1032 1.394 . S
C1031 C1037 1.465 . S
C1032 C1027 1.399 . S
C1032 C1031 1.394 . S
C1032 C1033 1.516 . S
C1033 C1032 1.516 . S
C1033 C1034 1.502 . S
C1033 C1035 1.561 . S
C1033 C1036 1.526 . S
C1034 H1018 0.959 . S
C1034 H1019 0.959 . S
C1034 H1020 0.961 . S
C1034 C1033 1.502 . S
C1035 H1021 0.960 . S
C1035 H1022 0.961 . S
C1035 H1023 0.959 . S
C1035 C1033 1.561 . S
C1036 C1033 1.526 . S
C1036 C1037 1.396 . S
C1036 C1041 1.390 . S
C1037 C1031 1.465 . S
C1037 C1036 1.396 . S
C1037 C1038 1.399 . S
C1038 H1024 0.929 . S
C1038 C1037 1.399 . S
C1038 C1039 1.385 . S
C1039 H1025 0.931 . S
C1039 C1038 1.385 . S
C1039 C1040 1.389 . S
C1040 C1039 1.389 . S
C1040 C1041 1.387 . S
C1041 H1026 0.930 . S
C1041 C1036 1.390 . S
C1041 C1040 1.387 . S
H1042 C1054 0.930 . S
H1043 C1056 0.930 . S
H1044 C1057 0.930 . S
H1045 C1061 0.959 . S
H1046 C1061 0.959 . S
H1047 C1061 0.961 . S
H1048 C1062 0.960 . S
H1049 C1062 0.961 . S
H1050 C1062 0.959 . S
H1051 C1065 0.929 . S
H1052 C1066 0.931 . S
H1053 C1068 0.930 . S
C1054 H1042 0.930 . S
C1054 C1055 1.399 . S
C1054 C1059 1.399 . S
C1055 C1054 1.399 . S
C1055 C1056 1.376 . S
C1056 H1043 0.930 . S
C1056 C1055 1.376 . S
C1056 C1057 1.388 . S
C1057 H1044 0.930 . S
C1057 C1056 1.388 . S
C1057 C1058 1.390 . S
C1058 C1057 1.390 . S
C1058 C1059 1.394 . S
C1058 C1064 1.465 . S
C1059 C1054 1.399 . S
C1059 C1058 1.394 . S
C1059 C1060 1.516 . S
C1060 C1059 1.516 . S
C1060 C1061 1.502 . S
C1060 C1062 1.561 . S
C1060 C1063 1.526 . S
C1061 H1045 0.959 . S
C1061 H1046 0.959 . S
C1061 H1047 0.961 . S
C1061 C1060 1.502 . S
C1062 H1048 0.960 . S
C1062 H1049 0.961 . S
C1062 H1050 0.959 . S
C1062 C1060 1.561 . S
C1063 C1060 1.526 . S
C1063 C1064 1.396 . S
C1063 C1068 1.390 . S
C1064 C1058 1.465 . S
C1064 C1063 1.396 . S
C1064 C1065 1.399 . S
C1065 H1051 0.929 . S
C1065 C1064 1.399 . S
C1065 C1066 1.385 . S
C1066 H1052 0.931 . S
C1066 C1065 1.385 . S
C1066 C1067 1.389 . S
C1067 C1066 1.389 . S
C1067 C1068 1.387 . S
C1068 H1053 0.930 . S
C1068 C1063 1.390 . S
C1068 C1067 1.387 . S
H1069 C1081 0.930 . S
H1070 C1083 0.930 . S
H1071 C1084 0.930 . S
H1072 C1088 0.959 . S
H1073 C1088 0.959 . S
H1074 C1088 0.961 . S
H1075 C1089 0.960 . S
H1076 C1089 0.961 . S
H1077 C1089 0.959 . S
H1078 C1092 0.929 . S
H1079 C1093 0.931 . S
H1080 C1095 0.930 . S
C1081 H1069 0.930 . S
C1081 C1082 1.399 . S
C1081 C1086 1.399 . S
C1082 C1081 1.399 . S
C1082 C1083 1.376 . S
C1083 H1070 0.930 . S
C1083 C1082 1.376 . S
C1083 C1084 1.388 . S
C1084 H1071 0.930 . S
C1084 C1083 1.388 . S
C1084 C1085 1.390 . S
C1085 C1084 1.390 . S
C1085 C1086 1.394 . S
C1085 C1091 1.456 1_455 S
C1086 C1081 1.399 . S
C1086 C1085 1.394 . S
C1086 C1087 1.516 . S
C1087 C1086 1.516 . S
C1087 C1088 1.502 . S
C1087 C1089 1.561 . S
C1087 C1090 1.526 1_455 S
C1088 H1072 0.959 . S
C1088 H1073 0.959 . S
C1088 H1074 0.961 . S
C1088 C1087 1.502 . S
C1089 H1075 0.960 . S
C1089 H1076 0.961 . S
C1089 H1077 0.959 . S
C1089 C1087 1.561 . S
C1090 C1087 1.526 1_655 S
C1090 C1091 1.399 . S
C1090 C1095 1.390 . S
C1091 C1085 1.456 1_655 S
C1091 C1090 1.399 . S
C1091 C1092 1.405 . S
C1092 H1078 0.929 . S
C1092 C1091 1.405 . S
C1092 C1093 1.385 . S
C1093 H1079 0.931 . S
C1093 C1092 1.385 . S
C1093 C1094 1.389 . S
C1094 C1093 1.389 . S
C1094 C1095 1.387 . S
C1095 H1080 0.930 . S
C1095 C1090 1.390 . S
C1095 C1094 1.387 . S
H1096 C1108 0.930 . S
H1097 C1110 0.930 . S
H1098 C1111 0.930 . S
H1099 C1115 0.959 . S
H1100 C1115 0.959 . S
H1101 C1115 0.961 . S
H1102 C1116 0.960 . S
H1103 C1116 0.961 . S
H1104 C1116 0.959 . S
H1105 C1119 0.929 . S
H1106 C1120 0.931 . S
H1107 C1122 0.930 . S
C1108 H1096 0.930 . S
C1108 C1109 1.399 . S
C1108 C1113 1.399 . S
C1109 C1108 1.399 . S
C1109 C1110 1.376 . S
C1110 H1097 0.930 . S
C1110 C1109 1.376 . S
C1110 C1111 1.388 . S
C1111 H1098 0.930 . S
C1111 C1110 1.388 . S
C1111 C1112 1.390 . S
C1112 C1111 1.390 . S
C1112 C1113 1.394 . S
C1112 C1118 1.465 . S
C1113 C1108 1.399 . S
C1113 C1112 1.394 . S
C1113 C1114 1.516 . S
C1114 C1113 1.516 . S
C1114 C1115 1.502 . S
C1114 C1116 1.561 . S
C1114 C1117 1.526 . S
C1115 H1099 0.959 . S
C1115 H1100 0.959 . S
C1115 H1101 0.961 . S
C1115 C1114 1.502 . S
C1116 H1102 0.960 . S
C1116 H1103 0.961 . S
C1116 H1104 0.959 . S
C1116 C1114 1.561 . S
C1117 C1114 1.526 . S
C1117 C1118 1.396 . S
C1117 C1122 1.390 . S
C1118 C1112 1.465 . S
C1118 C1117 1.396 . S
C1118 C1119 1.399 . S
C1119 H1105 0.929 . S
C1119 C1118 1.399 . S
C1119 C1120 1.385 . S
C1120 H1106 0.931 . S
C1120 C1119 1.385 . S
C1120 C1121 1.389 . S
C1121 C1120 1.389 . S
C1121 C1122 1.387 . S
C1122 H1107 0.930 . S
C1122 C1117 1.390 . S
C1122 C1121 1.387 . S
H1123 C1135 0.930 . S
H1124 C1137 0.930 . S
H1125 C1138 0.930 . S
H1126 C1142 0.959 . S
H1127 C1142 0.959 1_455 S
H1128 C1142 0.961 . S
H1129 C1143 0.960 . S
H1130 C1143 0.961 1_455 S
H1131 C1143 0.959 . S
H1132 C1146 0.929 . S
H1133 C1147 0.931 . S
H1134 C1149 0.930 . S
C1135 H1123 0.930 . S
C1135 C1136 1.399 . S
C1135 C1140 1.399 . S
C1136 C1135 1.399 . S
C1136 C1137 1.376 . S
C1137 H1124 0.930 . S
C1137 C1136 1.376 . S
C1137 C1138 1.388 . S
C1138 H1125 0.930 . S
C1138 C1137 1.388 . S
C1138 C1139 1.390 . S
C1139 C1138 1.390 . S
C1139 C1140 1.394 . S
C1139 C1145 1.498 . S
C1140 C1135 1.399 . S
C1140 C1139 1.394 . S
C1140 C1141 1.516 . S
C1141 C1140 1.516 . S
C1141 C1142 1.502 . S
C1141 C1143 1.561 . S
C1141 C1144 1.526 1_655 S
C1142 H1126 0.959 . S
C1142 H1127 0.959 1_655 S
C1142 H1128 0.961 . S
C1142 C1141 1.502 . S
C1143 H1129 0.960 . S
C1143 H1130 0.961 1_655 S
C1143 H1131 0.959 . S
C1143 C1141 1.561 . S
C1144 C1141 1.526 1_455 S
C1144 C1145 1.385 1_455 S
C1144 C1149 1.390 . S
C1145 C1139 1.498 . S
C1145 C1144 1.385 1_655 S
C1145 C1146 1.378 1_655 S
C1146 H1132 0.929 . S
C1146 C1145 1.378 1_455 S
C1146 C1147 1.385 . S
C1147 H1133 0.931 . S
C1147 C1146 1.385 . S
C1147 C1148 1.389 . S
C1148 C1147 1.389 . S
C1148 C1149 1.387 . S
C1149 H1134 0.930 . S
C1149 C1144 1.390 . S
C1149 C1148 1.387 . S
H1150 C1162 0.930 . S
H1151 C1164 0.930 . S
H1152 C1165 0.930 . S
H1153 C1169 0.959 . S
H1154 C1169 0.959 . S
H1155 C1169 0.961 . S
H1156 C1170 0.960 . S
H1157 C1170 0.961 . S
H1158 C1170 0.959 . S
H1159 C1173 0.929 . S
H1160 C1174 0.931 . S
H1161 C1176 0.930 . S
C1162 H1150 0.930 . S
C1162 C1163 1.399 . S
C1162 C1167 1.399 . S
C1163 C1162 1.399 . S
C1163 C1164 1.376 . S
C1164 H1151 0.930 . S
C1164 C1163 1.376 . S
C1164 C1165 1.388 . S
C1165 H1152 0.930 . S
C1165 C1164 1.388 . S
C1165 C1166 1.390 . S
C1166 C1165 1.390 . S
C1166 C1167 1.394 . S
C1166 C1172 1.465 . S
C1167 C1162 1.399 . S
C1167 C1166 1.394 . S
C1167 C1168 1.516 . S
C1168 C1167 1.516 . S
C1168 C1169 1.502 . S
C1168 C1170 1.561 . S
C1168 C1171 1.526 . S
C1169 H1153 0.959 . S
C1169 H1154 0.959 . S
C1169 H1155 0.961 . S
C1169 C1168 1.502 . S
C1170 H1156 0.960 . S
C1170 H1157 0.961 . S
C1170 H1158 0.959 . S
C1170 C1168 1.561 . S
C1171 C1168 1.526 . S
C1171 C1172 1.396 . S
C1171 C1176 1.390 . S
C1172 C1166 1.465 . S
C1172 C1171 1.396 . S
C1172 C1173 1.399 . S
C1173 H1159 0.929 . S
C1173 C1172 1.399 . S
C1173 C1174 1.385 . S
C1174 H1160 0.931 . S
C1174 C1173 1.385 . S
C1174 C1175 1.389 . S
C1175 C1174 1.389 . S
C1175 C1176 1.387 . S
C1176 H1161 0.930 . S
C1176 C1171 1.390 . S
C1176 C1175 1.387 . S
H1177 C1189 0.930 . S
H1178 C1191 0.930 . S
H1179 C1192 0.930 . S
H1180 C1196 0.959 . S
H1181 C1196 0.959 . S
H1182 C1196 0.961 . S
H1183 C1197 0.960 . S
H1184 C1197 0.961 . S
H1185 C1197 0.959 . S
H1186 C1200 0.929 . S
H1187 C1201 0.931 . S
H1188 C1203 0.930 . S
C1189 H1177 0.930 . S
C1189 C1190 1.399 . S
C1189 C1194 1.399 . S
C1190 C1189 1.399 . S
C1190 C1191 1.376 . S
C1191 H1178 0.930 . S
C1191 C1190 1.376 . S
C1191 C1192 1.388 . S
C1192 H1179 0.930 . S
C1192 C1191 1.388 . S
C1192 C1193 1.390 . S
C1193 C1192 1.390 . S
C1193 C1194 1.394 . S
C1193 C1199 1.465 . S
C1194 C1189 1.399 . S
C1194 C1193 1.394 . S
C1194 C1195 1.516 . S
C1195 C1194 1.516 . S
C1195 C1196 1.502 . S
C1195 C1197 1.561 . S
C1195 C1198 1.526 . S
C1196 H1180 0.959 . S
C1196 H1181 0.959 . S
C1196 H1182 0.961 . S
C1196 C1195 1.502 . S
C1197 H1183 0.960 . S
C1197 H1184 0.961 . S
C1197 H1185 0.959 . S
C1197 C1195 1.561 . S
C1198 C1195 1.526 . S
C1198 C1199 1.396 . S
C1198 C1203 1.390 . S
C1199 C1193 1.465 . S
C1199 C1198 1.396 . S
C1199 C1200 1.399 . S
C1200 H1186 0.929 . S
C1200 C1199 1.399 . S
C1200 C1201 1.385 . S
C1201 H1187 0.931 . S
C1201 C1200 1.385 . S
C1201 C1202 1.389 . S
C1202 C1201 1.389 . S
C1202 C1203 1.387 . S
C1203 H1188 0.930 . S
C1203 C1198 1.390 . S
C1203 C1202 1.387 . S
H1204 C1216 0.930 . S
H1205 C1218 0.930 . S
H1206 C1219 0.930 . S
H1207 C1223 0.959 . S
H1208 C1223 0.959 . S
H1209 C1223 0.961 . S
H1210 C1224 0.960 . S
H1211 C1224 0.961 . S
H1212 C1224 0.959 . S
H1213 C1227 0.929 . S
H1214 C1228 0.931 . S
H1215 C1230 0.930 . S
C1216 H1204 0.930 . S
C1216 C1217 1.399 . S
C1216 C1221 1.399 . S
C1217 C1216 1.399 . S
C1217 C1218 1.376 . S
C1218 H1205 0.930 . S
C1218 C1217 1.376 . S
C1218 C1219 1.388 . S
C1219 H1206 0.930 . S
C1219 C1218 1.388 . S
C1219 C1220 1.390 . S
C1220 C1219 1.390 . S
C1220 C1221 1.394 . S
C1220 C1226 1.465 . S
C1221 C1216 1.399 . S
C1221 C1220 1.394 . S
C1221 C1222 1.516 . S
C1222 C1221 1.516 . S
C1222 C1223 1.502 . S
C1222 C1224 1.561 . S
C1222 C1225 1.526 . S
C1223 H1207 0.959 . S
C1223 H1208 0.959 . S
C1223 H1209 0.961 . S
C1223 C1222 1.502 . S
C1224 H1210 0.960 . S
C1224 H1211 0.961 . S
C1224 H1212 0.959 . S
C1224 C1222 1.561 . S
C1225 C1222 1.526 . S
C1225 C1226 1.396 . S
C1225 C1230 1.390 . S
C1226 C1220 1.465 . S
C1226 C1225 1.396 . S
C1226 C1227 1.399 . S
C1227 H1213 0.929 . S
C1227 C1226 1.399 . S
C1227 C1228 1.385 . S
C1228 H1214 0.931 . S
C1228 C1227 1.385 . S
C1228 C1229 1.389 . S
C1229 C1228 1.389 . S
C1229 C1230 1.387 . S
C1230 H1215 0.930 . S
C1230 C1225 1.390 . S
C1230 C1229 1.387 . S
H1231 C1243 0.930 . S
H1232 C1245 0.930 . S
H1233 C1246 0.930 . S
H1234 C1250 0.959 . S
H1235 C1250 0.959 . S
H1236 C1250 0.961 . S
H1237 C1251 0.960 . S
H1238 C1251 0.961 . S
H1239 C1251 0.959 . S
H1240 C1254 0.929 . S
H1241 C1255 0.931 . S
H1242 C1257 0.930 . S
C1243 H1231 0.930 . S
C1243 C1244 1.399 . S
C1243 C1248 1.399 . S
C1244 C1243 1.399 . S
C1244 C1245 1.376 . S
C1245 H1232 0.930 . S
C1245 C1244 1.376 . S
C1245 C1246 1.388 . S
C1246 H1233 0.930 . S
C1246 C1245 1.388 . S
C1246 C1247 1.390 . S
C1247 C1246 1.390 . S
C1247 C1248 1.394 . S
C1247 C1253 1.465 . S
C1248 C1243 1.399 . S
C1248 C1247 1.394 . S
C1248 C1249 1.516 . S
C1249 C1248 1.516 . S
C1249 C1250 1.502 . S
C1249 C1251 1.561 . S
C1249 C1252 1.526 . S
C1250 H1234 0.959 . S
C1250 H1235 0.959 . S
C1250 H1236 0.961 . S
C1250 C1249 1.502 . S
C1251 H1237 0.960 . S
C1251 H1238 0.961 . S
C1251 H1239 0.959 . S
C1251 C1249 1.561 . S
C1252 C1249 1.526 . S
C1252 C1253 1.396 . S
C1252 C1257 1.390 . S
C1253 C1247 1.465 . S
C1253 C1252 1.396 . S
C1253 C1254 1.399 . S
C1254 H1240 0.929 . S
C1254 C1253 1.399 . S
C1254 C1255 1.385 . S
C1255 H1241 0.931 . S
C1255 C1254 1.385 . S
C1255 C1256 1.389 . S
C1256 C1255 1.389 . S
C1256 C1257 1.387 . S
C1257 H1242 0.930 . S
C1257 C1252 1.390 . S
C1257 C1256 1.387 . S
H1258 C1270 0.930 . S
H1259 C1272 0.930 . S
H1260 C1273 0.930 . S
H1261 C1277 0.959 . S
H1262 C1277 0.959 . S
H1263 C1277 0.961 . S
H1264 C1278 0.960 . S
H1265 C1278 0.961 . S
H1266 C1278 0.959 . S
H1267 C1281 0.929 . S
H1268 C1282 0.931 . S
H1269 C1284 0.930 . S
C1270 H1258 0.930 . S
C1270 C1271 1.399 . S
C1270 C1275 1.399 . S
C1271 C1270 1.399 . S
C1271 C1272 1.376 . S
C1272 H1259 0.930 . S
C1272 C1271 1.376 . S
C1272 C1273 1.388 . S
C1273 H1260 0.930 . S
C1273 C1272 1.388 . S
C1273 C1274 1.390 . S
C1274 C1273 1.390 . S
C1274 C1275 1.394 . S
C1274 C1280 1.465 . S
C1275 C1270 1.399 . S
C1275 C1274 1.394 . S
C1275 C1276 1.516 . S
C1276 C1275 1.516 . S
C1276 C1277 1.502 . S
C1276 C1278 1.561 . S
C1276 C1279 1.526 . S
C1277 H1261 0.959 . S
C1277 H1262 0.959 . S
C1277 H1263 0.961 . S
C1277 C1276 1.502 . S
C1278 H1264 0.960 . S
C1278 H1265 0.961 . S
C1278 H1266 0.959 . S
C1278 C1276 1.561 . S
C1279 C1276 1.526 . S
C1279 C1280 1.396 . S
C1279 C1284 1.390 . S
C1280 C1274 1.465 . S
C1280 C1279 1.396 . S
C1280 C1281 1.399 . S
C1281 H1267 0.929 . S
C1281 C1280 1.399 . S
C1281 C1282 1.385 . S
C1282 H1268 0.931 . S
C1282 C1281 1.385 . S
C1282 C1283 1.389 . S
C1283 C1282 1.389 . S
C1283 C1284 1.387 . S
C1284 H1269 0.930 . S
C1284 C1279 1.390 . S
C1284 C1283 1.387 . S
H1285 C1297 0.930 . S
H1286 C1299 0.930 . S
H1287 C1300 0.930 . S
H1288 C1304 0.959 . S
H1289 C1304 0.959 1_455 S
H1290 C1304 0.961 . S
H1291 C1305 0.960 . S
H1292 C1305 0.961 . S
H1293 C1305 0.959 . S
H1294 C1308 0.929 . S
H1295 C1309 0.931 . S
H1296 C1311 0.930 . S
C1297 H1285 0.930 . S
C1297 C1298 1.399 . S
C1297 C1302 1.399 . S
C1298 C1297 1.399 . S
C1298 C1299 1.376 . S
C1299 H1286 0.930 . S
C1299 C1298 1.376 . S
C1299 C1300 1.388 . S
C1300 H1287 0.930 . S
C1300 C1299 1.388 . S
C1300 C1301 1.390 . S
C1301 C1300 1.390 . S
C1301 C1302 1.394 . S
C1301 C1307 1.503 . S
C1302 C1297 1.399 . S
C1302 C1301 1.394 . S
C1302 C1303 1.516 . S
C1303 C1302 1.516 . S
C1303 C1304 1.502 . S
C1303 C1305 1.561 . S
C1303 C1306 1.526 1_655 S
C1304 H1288 0.959 . S
C1304 H1289 0.959 1_655 S
C1304 H1290 0.961 . S
C1304 C1303 1.502 . S
C1305 H1291 0.960 . S
C1305 H1292 0.961 . S
C1305 H1293 0.959 . S
C1305 C1303 1.561 . S
C1306 C1303 1.526 1_455 S
C1306 C1307 1.384 1_455 S
C1306 C1311 1.390 . S
C1307 C1301 1.503 . S
C1307 C1306 1.384 1_655 S
C1307 C1308 1.375 1_655 S
C1308 H1294 0.929 . S
C1308 C1307 1.375 1_455 S
C1308 C1309 1.385 . S
C1309 H1295 0.931 . S
C1309 C1308 1.385 . S
C1309 C1310 1.389 . S
C1310 C1309 1.389 . S
C1310 C1311 1.387 . S
C1311 H1296 0.930 . S
C1311 C1306 1.390 . S
C1311 C1310 1.387 . S
H1312 C1324 0.930 . S
H1313 C1326 0.930 . S
H1314 C1327 0.930 . S
H1315 C1331 0.959 . S
H1316 C1331 0.959 . S
H1317 C1331 0.961 . S
H1318 C1332 0.960 . S
H1319 C1332 0.961 . S
H1320 C1332 0.959 . S
H1321 C1335 0.929 . S
H1322 C1336 0.931 . S
H1323 C1338 0.930 . S
C1324 H1312 0.930 . S
C1324 C1325 1.399 . S
C1324 C1329 1.399 . S
C1325 C1324 1.399 . S
C1325 C1326 1.376 . S
C1326 H1313 0.930 . S
C1326 C1325 1.376 . S
C1326 C1327 1.388 . S
C1327 H1314 0.930 . S
C1327 C1326 1.388 . S
C1327 C1328 1.390 . S
C1328 C1327 1.390 . S
C1328 C1329 1.394 . S
C1328 C1334 1.465 . S
C1329 C1324 1.399 . S
C1329 C1328 1.394 . S
C1329 C1330 1.516 . S
C1330 C1329 1.516 . S
C1330 C1331 1.502 . S
C1330 C1332 1.561 . S
C1330 C1333 1.526 . S
C1331 H1315 0.959 . S
C1331 H1316 0.959 . S
C1331 H1317 0.961 . S
C1331 C1330 1.502 . S
C1332 H1318 0.960 . S
C1332 H1319 0.961 . S
C1332 H1320 0.959 . S
C1332 C1330 1.561 . S
C1333 C1330 1.526 . S
C1333 C1334 1.396 . S
C1333 C1338 1.390 . S
C1334 C1328 1.465 . S
C1334 C1333 1.396 . S
C1334 C1335 1.399 . S
C1335 H1321 0.929 . S
C1335 C1334 1.399 . S
C1335 C1336 1.385 . S
C1336 H1322 0.931 . S
C1336 C1335 1.385 . S
C1336 C1337 1.389 . S
C1337 C1336 1.389 . S
C1337 C1338 1.387 . S
C1338 H1323 0.930 . S
C1338 C1333 1.390 . S
C1338 C1337 1.387 . S
H1339 C1351 0.930 . S
H1340 C1353 0.930 . S
H1341 C1354 0.930 . S
H1342 C1358 0.959 . S
H1343 C1358 0.959 . S
H1344 C1358 0.961 . S
H1345 C1359 0.960 . S
H1346 C1359 0.961 . S
H1347 C1359 0.959 . S
H1348 C1362 0.929 . S
H1349 C1363 0.931 . S
H1350 C1365 0.930 . S
C1351 H1339 0.930 . S
C1351 C1352 1.399 . S
C1351 C1356 1.399 . S
C1352 C1351 1.399 . S
C1352 C1353 1.376 . S
C1353 H1340 0.930 . S
C1353 C1352 1.376 . S
C1353 C1354 1.388 . S
C1354 H1341 0.930 . S
C1354 C1353 1.388 . S
C1354 C1355 1.390 . S
C1355 C1354 1.390 . S
C1355 C1356 1.394 . S
C1355 C1361 1.465 . S
C1356 C1351 1.399 . S
C1356 C1355 1.394 . S
C1356 C1357 1.516 . S
C1357 C1356 1.516 . S
C1357 C1358 1.502 . S
C1357 C1359 1.561 . S
C1357 C1360 1.526 . S
C1358 H1342 0.959 . S
C1358 H1343 0.959 . S
C1358 H1344 0.961 . S
C1358 C1357 1.502 . S
C1359 H1345 0.960 . S
C1359 H1346 0.961 . S
C1359 H1347 0.959 . S
C1359 C1357 1.561 . S
C1360 C1357 1.526 . S
C1360 C1361 1.396 . S
C1360 C1365 1.390 . S
C1361 C1355 1.465 . S
C1361 C1360 1.396 . S
C1361 C1362 1.399 . S
C1362 H1348 0.929 . S
C1362 C1361 1.399 . S
C1362 C1363 1.385 . S
C1363 H1349 0.931 . S
C1363 C1362 1.385 . S
C1363 C1364 1.389 . S
C1364 C1363 1.389 . S
C1364 C1365 1.387 . S
C1365 H1350 0.930 . S
C1365 C1360 1.390 . S
C1365 C1364 1.387 . S
H1366 C1378 0.930 . S
H1367 C1380 0.930 . S
H1368 C1381 0.930 . S
H1369 C1385 0.959 . S
H1370 C1385 0.959 . S
H1371 C1385 0.961 . S
H1372 C1386 0.960 . S
H1373 C1386 0.961 . S
H1374 C1386 0.959 . S
H1375 C1389 0.929 . S
H1376 C1390 0.931 . S
H1377 C1392 0.930 . S
C1378 H1366 0.930 . S
C1378 C1379 1.399 . S
C1378 C1383 1.399 . S
C1379 C1378 1.399 . S
C1379 C1380 1.376 . S
C1380 H1367 0.930 . S
C1380 C1379 1.376 . S
C1380 C1381 1.388 . S
C1381 H1368 0.930 . S
C1381 C1380 1.388 . S
C1381 C1382 1.390 . S
C1382 C1381 1.390 . S
C1382 C1383 1.394 . S
C1382 C1388 1.465 . S
C1383 C1378 1.399 . S
C1383 C1382 1.394 . S
C1383 C1384 1.516 . S
C1384 C1383 1.516 . S
C1384 C1385 1.502 . S
C1384 C1386 1.561 . S
C1384 C1387 1.526 . S
C1385 H1369 0.959 . S
C1385 H1370 0.959 . S
C1385 H1371 0.961 . S
C1385 C1384 1.502 . S
C1386 H1372 0.960 . S
C1386 H1373 0.961 . S
C1386 H1374 0.959 . S
C1386 C1384 1.561 . S
C1387 C1384 1.526 . S
C1387 C1388 1.396 . S
C1387 C1392 1.390 . S
C1388 C1382 1.465 . S
C1388 C1387 1.396 . S
C1388 C1389 1.399 . S
C1389 H1375 0.929 . S
C1389 C1388 1.399 . S
C1389 C1390 1.385 . S
C1390 H1376 0.931 . S
C1390 C1389 1.385 . S
C1390 C1391 1.389 . S
C1391 C1390 1.389 . S
C1391 C1392 1.387 . S
C1392 H1377 0.930 . S
C1392 C1387 1.390 . S
C1392 C1391 1.387 . S
H1393 C1405 0.930 . S
H1394 C1407 0.930 . S
H1395 C1408 0.930 . S
H1396 C1412 0.959 . S
H1397 C1412 0.959 . S
H1398 C1412 0.961 . S
H1399 C1413 0.960 . S
H1400 C1413 0.961 . S
H1401 C1413 0.959 . S
H1402 C1416 0.929 . S
H1403 C1417 0.931 . S
H1404 C1419 0.930 . S
C1405 H1393 0.930 . S
C1405 C1406 1.399 . S
C1405 C1410 1.399 . S
C1406 C1405 1.399 . S
C1406 C1407 1.376 . S
C1407 H1394 0.930 . S
C1407 C1406 1.376 . S
C1407 C1408 1.388 . S
C1408 H1395 0.930 . S
C1408 C1407 1.388 . S
C1408 C1409 1.390 . S
C1409 C1408 1.390 . S
C1409 C1410 1.394 . S
C1409 C1415 1.454 1_655 S
C1410 C1405 1.399 . S
C1410 C1409 1.394 . S
C1410 C1411 1.516 . S
C1411 C1410 1.516 . S
C1411 C1412 1.502 . S
C1411 C1413 1.561 . S
C1411 C1414 1.526 1_655 S
C1412 H1396 0.959 . S
C1412 H1397 0.959 . S
C1412 H1398 0.961 . S
C1412 C1411 1.502 . S
C1413 H1399 0.960 . S
C1413 H1400 0.961 . S
C1413 H1401 0.959 . S
C1413 C1411 1.561 . S
C1414 C1411 1.526 1_455 S
C1414 C1415 1.399 . S
C1414 C1419 1.390 . S
C1415 C1409 1.454 1_455 S
C1415 C1414 1.399 . S
C1415 C1416 1.407 . S
C1416 H1402 0.929 . S
C1416 C1415 1.407 . S
C1416 C1417 1.385 . S
C1417 H1403 0.931 . S
C1417 C1416 1.385 . S
C1417 C1418 1.389 . S
C1418 C1417 1.389 . S
C1418 C1419 1.387 . S
C1419 H1404 0.930 . S
C1419 C1414 1.390 . S
C1419 C1418 1.387 . S
H1420 C1432 0.930 . S
H1421 C1434 0.930 . S
H1422 C1435 0.930 . S
H1423 C1439 0.959 . S
H1424 C1439 0.959 . S
H1425 C1439 0.961 . S
H1426 C1440 0.960 . S
H1427 C1440 0.961 . S
H1428 C1440 0.959 . S
H1429 C1443 0.929 . S
H1430 C1444 0.931 . S
H1431 C1446 0.930 . S
C1432 H1420 0.930 . S
C1432 C1433 1.399 . S
C1432 C1437 1.399 . S
C1433 C1432 1.399 . S
C1433 C1434 1.376 . S
C1434 H1421 0.930 . S
C1434 C1433 1.376 . S
C1434 C1435 1.388 . S
C1435 H1422 0.930 . S
C1435 C1434 1.388 . S
C1435 C1436 1.390 . S
C1436 C1435 1.390 . S
C1436 C1437 1.394 . S
C1436 C1442 1.465 . S
C1437 C1432 1.399 . S
C1437 C1436 1.394 . S
C1437 C1438 1.516 . S
C1438 C1437 1.516 . S
C1438 C1439 1.502 . S
C1438 C1440 1.561 . S
C1438 C1441 1.526 . S
C1439 H1423 0.959 . S
C1439 H1424 0.959 . S
C1439 H1425 0.961 . S
C1439 C1438 1.502 . S
C1440 H1426 0.960 . S
C1440 H1427 0.961 . S
C1440 H1428 0.959 . S
C1440 C1438 1.561 . S
C1441 C1438 1.526 . S
C1441 C1442 1.396 . S
C1441 C1446 1.390 . S
C1442 C1436 1.465 . S
C1442 C1441 1.396 . S
C1442 C1443 1.399 . S
C1443 H1429 0.929 . S
C1443 C1442 1.399 . S
C1443 C1444 1.385 . S
C1444 H1430 0.931 . S
C1444 C1443 1.385 . S
C1444 C1445 1.389 . S
C1445 C1444 1.389 . S
C1445 C1446 1.387 . S
C1446 H1431 0.930 . S
C1446 C1441 1.390 . S
C1446 C1445 1.387 . S
H1447 C1459 0.930 . S
H1448 C1461 0.930 . S
H1449 C1462 0.930 . S
H1450 C1466 0.959 . S
H1451 C1466 0.959 . S
H1452 C1466 0.961 1_455 S
H1453 C1467 0.960 1_455 S
H1454 C1467 0.961 . S
H1455 C1467 0.959 . S
H1456 C1470 0.929 . S
H1457 C1471 0.931 . S
H1458 C1473 0.930 . S
C1459 H1447 0.930 . S
C1459 C1460 1.399 . S
C1459 C1464 1.399 . S
C1460 C1459 1.399 . S
C1460 C1461 1.376 . S
C1461 H1448 0.930 . S
C1461 C1460 1.376 . S
C1461 C1462 1.388 . S
C1462 H1449 0.930 . S
C1462 C1461 1.388 . S
C1462 C1463 1.366 1_455 S
C1463 C1462 1.366 1_655 S
C1463 C1464 1.380 1_655 S
C1463 C1469 1.505 . S
C1464 C1459 1.399 . S
C1464 C1463 1.380 1_455 S
C1464 C1465 1.516 1_455 S
C1465 C1464 1.516 1_655 S
C1465 C1466 1.502 . S
C1465 C1467 1.561 . S
C1465 C1468 1.526 . S
C1466 H1450 0.959 . S
C1466 H1451 0.959 . S
C1466 H1452 0.961 1_655 S
C1466 C1465 1.502 . S
C1467 H1453 0.960 1_655 S
C1467 H1454 0.961 . S
C1467 H1455 0.959 . S
C1467 C1465 1.561 . S
C1468 C1465 1.526 . S
C1468 C1469 1.396 . S
C1468 C1473 1.390 . S
C1469 C1463 1.505 . S
C1469 C1468 1.396 . S
C1469 C1470 1.399 . S
C1470 H1456 0.929 . S
C1470 C1469 1.399 . S
C1470 C1471 1.385 . S
C1471 H1457 0.931 . S
C1471 C1470 1.385 . S
C1471 C1472 1.389 . S
C1472 C1471 1.389 . S
C1472 C1473 1.387 . S
C1473 H1458 0.930 . S
C1473 C1468 1.390 . S
C1473 C1472 1.387 . S
H1474 C1486 0.930 . S
H1475 C1488 0.930 . S
H1476 C1489 0.930 . S
H1477 C1493 0.959 . S
H1478 C1493 0.959 . S
H1479 C1493 0.961 . S
H1480 C1494 0.960 . S
H1481 C1494 0.961 . S
H1482 C1494 0.959 . S
H1483 C1497 0.929 . S
H1484 C1498 0.931 . S
H1485 C1500 0.930 . S
C1486 H1474 0.930 . S
C1486 C1487 1.399 . S
C1486 C1491 1.399 . S
C1487 C1486 1.399 . S
C1487 C1488 1.376 . S
C1488 H1475 0.930 . S
C1488 C1487 1.376 . S
C1488 C1489 1.388 . S
C1489 H1476 0.930 . S
C1489 C1488 1.388 . S
C1489 C1490 1.390 . S
C1490 C1489 1.390 . S
C1490 C1491 1.394 . S
C1490 C1496 1.465 . S
C1491 C1486 1.399 . S
C1491 C1490 1.394 . S
C1491 C1492 1.516 . S
C1492 C1491 1.516 . S
C1492 C1493 1.502 . S
C1492 C1494 1.561 . S
C1492 C1495 1.526 . S
C1493 H1477 0.959 . S
C1493 H1478 0.959 . S
C1493 H1479 0.961 . S
C1493 C1492 1.502 . S
C1494 H1480 0.960 . S
C1494 H1481 0.961 . S
C1494 H1482 0.959 . S
C1494 C1492 1.561 . S
C1495 C1492 1.526 . S
C1495 C1496 1.396 . S
C1495 C1500 1.390 . S
C1496 C1490 1.465 . S
C1496 C1495 1.396 . S
C1496 C1497 1.399 . S
C1497 H1483 0.929 . S
C1497 C1496 1.399 . S
C1497 C1498 1.385 . S
C1498 H1484 0.931 . S
C1498 C1497 1.385 . S
C1498 C1499 1.389 . S
C1499 C1498 1.389 . S
C1499 C1500 1.387 . S
C1500 H1485 0.930 . S
C1500 C1495 1.390 . S
C1500 C1499 1.387 . S
H1501 C1513 0.930 . S
H1502 C1515 0.930 . S
H1503 C1516 0.930 . S
H1504 C1520 0.959 . S
H1505 C1520 0.959 . S
H1506 C1520 0.961 . S
H1507 C1521 0.960 . S
H1508 C1521 0.961 . S
H1509 C1521 0.959 . S
H1510 C1524 0.929 . S
H1511 C1525 0.931 . S
H1512 C1527 0.930 . S
C1513 H1501 0.930 . S
C1513 C1514 1.399 . S
C1513 C1518 1.399 . S
C1514 C1513 1.399 . S
C1514 C1515 1.376 . S
C1515 H1502 0.930 . S
C1515 C1514 1.376 . S
C1515 C1516 1.388 . S
C1516 H1503 0.930 . S
C1516 C1515 1.388 . S
C1516 C1517 1.390 . S
C1517 C1516 1.390 . S
C1517 C1518 1.394 . S
C1517 C1523 1.465 . S
C1518 C1513 1.399 . S
C1518 C1517 1.394 . S
C1518 C1519 1.516 . S
C1519 C1518 1.516 . S
C1519 C1520 1.502 . S
C1519 C1521 1.561 . S
C1519 C1522 1.526 . S
C1520 H1504 0.959 . S
C1520 H1505 0.959 . S
C1520 H1506 0.961 . S
C1520 C1519 1.502 . S
C1521 H1507 0.960 . S
C1521 H1508 0.961 . S
C1521 H1509 0.959 . S
C1521 C1519 1.561 . S
C1522 C1519 1.526 . S
C1522 C1523 1.396 . S
C1522 C1527 1.390 . S
C1523 C1517 1.465 . S
C1523 C1522 1.396 . S
C1523 C1524 1.399 . S
C1524 H1510 0.929 . S
C1524 C1523 1.399 . S
C1524 C1525 1.385 . S
C1525 H1511 0.931 . S
C1525 C1524 1.385 . S
C1525 C1526 1.389 . S
C1526 C1525 1.389 . S
C1526 C1527 1.387 . S
C1527 H1512 0.930 . S
C1527 C1522 1.390 . S
C1527 C1526 1.387 . S
H1528 C1540 0.930 . S
H1529 C1542 0.930 . S
H1530 C1543 0.930 . S
H1531 C1547 0.959 . S
H1532 C1547 0.959 . S
H1533 C1547 0.961 . S
H1534 C1548 0.960 . S
H1535 C1548 0.961 . S
H1536 C1548 0.959 . S
H1537 C1551 0.929 . S
H1538 C1552 0.931 . S
H1539 C1554 0.930 . S
C1540 H1528 0.930 . S
C1540 C1541 1.399 . S
C1540 C1545 1.399 . S
C1541 C1540 1.399 . S
C1541 C1542 1.376 . S
C1542 H1529 0.930 . S
C1542 C1541 1.376 . S
C1542 C1543 1.388 . S
C1543 H1530 0.930 . S
C1543 C1542 1.388 . S
C1543 C1544 1.390 . S
C1544 C1543 1.390 . S
C1544 C1545 1.394 . S
C1544 C1550 1.465 . S
C1545 C1540 1.399 . S
C1545 C1544 1.394 . S
C1545 C1546 1.516 . S
C1546 C1545 1.516 . S
C1546 C1547 1.502 . S
C1546 C1548 1.561 . S
C1546 C1549 1.526 . S
C1547 H1531 0.959 . S
C1547 H1532 0.959 . S
C1547 H1533 0.961 . S
C1547 C1546 1.502 . S
C1548 H1534 0.960 . S
C1548 H1535 0.961 . S
C1548 H1536 0.959 . S
C1548 C1546 1.561 . S
C1549 C1546 1.526 . S
C1549 C1550 1.396 . S
C1549 C1554 1.390 . S
C1550 C1544 1.465 . S
C1550 C1549 1.396 . S
C1550 C1551 1.399 . S
C1551 H1537 0.929 . S
C1551 C1550 1.399 . S
C1551 C1552 1.385 . S
C1552 H1538 0.931 . S
C1552 C1551 1.385 . S
C1552 C1553 1.389 . S
C1553 C1552 1.389 . S
C1553 C1554 1.387 . S
C1554 H1539 0.930 . S
C1554 C1549 1.390 . S
C1554 C1553 1.387 . S
H1555 C1567 0.930 . S
H1556 C1569 0.930 . S
H1557 C1570 0.930 . S
H1558 C1574 0.959 . S
H1559 C1574 0.959 . S
H1560 C1574 0.961 . S
H1561 C1575 0.960 . S
H1562 C1575 0.961 . S
H1563 C1575 0.959 . S
H1564 C1578 0.929 . S
H1565 C1579 0.931 . S
H1566 C1581 0.930 . S
C1567 H1555 0.930 . S
C1567 C1568 1.399 . S
C1567 C1572 1.399 . S
C1568 C1567 1.399 . S
C1568 C1569 1.376 . S
C1569 H1556 0.930 . S
C1569 C1568 1.376 . S
C1569 C1570 1.388 . S
C1570 H1557 0.930 . S
C1570 C1569 1.388 . S
C1570 C1571 1.390 . S
C1571 C1570 1.390 . S
C1571 C1572 1.394 . S
C1571 C1577 1.465 . S
C1572 C1567 1.399 . S
C1572 C1571 1.394 . S
C1572 C1573 1.516 . S
C1573 C1572 1.516 . S
C1573 C1574 1.502 . S
C1573 C1575 1.561 . S
C1573 C1576 1.526 . S
C1574 H1558 0.959 . S
C1574 H1559 0.959 . S
C1574 H1560 0.961 . S
C1574 C1573 1.502 . S
C1575 H1561 0.960 . S
C1575 H1562 0.961 . S
C1575 H1563 0.959 . S
C1575 C1573 1.561 . S
C1576 C1573 1.526 . S
C1576 C1577 1.396 . S
C1576 C1581 1.390 . S
C1577 C1571 1.465 . S
C1577 C1576 1.396 . S
C1577 C1578 1.399 . S
C1578 H1564 0.929 . S
C1578 C1577 1.399 . S
C1578 C1579 1.385 . S
C1579 H1565 0.931 . S
C1579 C1578 1.385 . S
C1579 C1580 1.389 . S
C1580 C1579 1.389 . S
C1580 C1581 1.387 . S
C1581 H1566 0.930 . S
C1581 C1576 1.390 . S
C1581 C1580 1.387 . S
H1582 C1594 0.930 . S
H1583 C1596 0.930 . S
H1584 C1597 0.930 . S
H1585 C1601 0.959 . S
H1586 C1601 0.959 . S
H1587 C1601 0.961 . S
H1588 C1602 0.960 . S
H1589 C1602 0.961 . S
H1590 C1602 0.959 . S
H1591 C1605 0.929 . S
H1592 C1606 0.931 . S
H1593 C1608 0.930 . S
C1594 H1582 0.930 . S
C1594 C1595 1.399 . S
C1594 C1599 1.399 . S
C1595 C1594 1.399 . S
C1595 C1596 1.376 . S
C1596 H1583 0.930 . S
C1596 C1595 1.376 . S
C1596 C1597 1.388 . S
C1597 H1584 0.930 . S
C1597 C1596 1.388 . S
C1597 C1598 1.390 . S
C1598 C1597 1.390 . S
C1598 C1599 1.394 . S
C1598 C1604 1.465 . S
C1599 C1594 1.399 . S
C1599 C1598 1.394 . S
C1599 C1600 1.516 . S
C1600 C1599 1.516 . S
C1600 C1601 1.502 . S
C1600 C1602 1.561 . S
C1600 C1603 1.526 . S
C1601 H1585 0.959 . S
C1601 H1586 0.959 . S
C1601 H1587 0.961 . S
C1601 C1600 1.502 . S
C1602 H1588 0.960 . S
C1602 H1589 0.961 . S
C1602 H1590 0.959 . S
C1602 C1600 1.561 . S
C1603 C1600 1.526 . S
C1603 C1604 1.396 . S
C1603 C1608 1.390 . S
C1604 C1598 1.465 . S
C1604 C1603 1.396 . S
C1604 C1605 1.399 . S
C1605 H1591 0.929 . S
C1605 C1604 1.399 . S
C1605 C1606 1.385 . S
C1606 H1592 0.931 . S
C1606 C1605 1.385 . S
C1606 C1607 1.389 . S
C1607 C1606 1.389 . S
C1607 C1608 1.387 . S
C1608 H1593 0.930 . S
C1608 C1603 1.390 . S
C1608 C1607 1.387 . S
H1609 C1621 0.930 . S
H1610 C1623 0.930 . S
H1611 C1624 0.930 . S
H1612 C1628 0.959 . S
H1613 C1628 0.959 . S
H1614 C1628 0.961 . S
H1615 C1629 0.960 . S
H1616 C1629 0.964 . S
H1617 C1629 0.959 . S
H1618 C1632 0.929 . S
H1619 C1633 0.931 . S
H1620 C1635 0.930 . S
C1621 H1609 0.930 . S
C1621 C1622 1.399 . S
C1621 C1626 1.399 . S
C1622 C1621 1.399 . S
C1622 C1623 1.376 . S
C1623 H1610 0.930 . S
C1623 C1622 1.376 . S
C1623 C1624 1.388 . S
C1624 H1611 0.930 . S
C1624 C1623 1.388 . S
C1624 C1625 1.390 . S
C1625 C1624 1.390 . S
C1625 C1626 1.394 . S
C1625 C1631 1.465 1_455 S
C1626 C1621 1.399 . S
C1626 C1625 1.394 . S
C1626 C1627 1.516 . S
C1627 C1626 1.516 . S
C1627 C1628 1.502 . S
C1627 C1629 1.561 . S
C1627 C1630 1.526 1_455 S
C1628 H1612 0.959 . S
C1628 H1613 0.959 . S
C1628 H1614 0.961 . S
C1628 C1627 1.502 . S
C1629 H1615 0.960 . S
C1629 H1616 0.964 . S
C1629 H1617 0.959 . S
C1629 C1627 1.561 . S
C1630 C1627 1.526 1_655 S
C1630 C1631 1.396 . S
C1630 C1635 1.390 . S
C1631 C1625 1.465 1_655 S
C1631 C1630 1.396 . S
C1631 C1632 1.399 . S
C1632 H1618 0.929 . S
C1632 C1631 1.399 . S
C1632 C1633 1.385 . S
C1633 H1619 0.931 . S
C1633 C1632 1.385 . S
C1633 C1634 1.389 . S
C1634 C1633 1.389 . S
C1634 C1635 1.387 . S
C1635 H1620 0.930 . S
C1635 C1630 1.390 . S
C1635 C1634 1.387 . S
H1636 C1648 0.930 . S
H1637 C1650 0.930 . S
H1638 C1651 0.930 . S
H1639 C1655 0.959 . S
H1640 C1655 0.959 . S
H1641 C1655 0.961 . S
H1642 C1656 0.960 . S
H1643 C1656 0.961 . S
H1644 C1656 0.959 . S
H1645 C1659 0.929 . S
H1646 C1660 0.931 . S
H1647 C1662 0.930 . S
C1648 H1636 0.930 . S
C1648 C1649 1.399 . S
C1648 C1653 1.399 . S
C1649 C1648 1.399 . S
C1649 C1650 1.376 . S
C1650 H1637 0.930 . S
C1650 C1649 1.376 . S
C1650 C1651 1.388 . S
C1651 H1638 0.930 . S
C1651 C1650 1.388 . S
C1651 C1652 1.390 . S
C1652 C1651 1.390 . S
C1652 C1653 1.394 . S
C1652 C1658 1.465 . S
C1653 C1648 1.399 . S
C1653 C1652 1.394 . S
C1653 C1654 1.516 . S
C1654 C1653 1.516 . S
C1654 C1655 1.502 . S
C1654 C1656 1.561 . S
C1654 C1657 1.526 . S
C1655 H1639 0.959 . S
C1655 H1640 0.959 . S
C1655 H1641 0.961 . S
C1655 C1654 1.502 . S
C1656 H1642 0.960 . S
C1656 H1643 0.961 . S
C1656 H1644 0.959 . S
C1656 C1654 1.561 . S
C1657 C1654 1.526 . S
C1657 C1658 1.396 . S
C1657 C1662 1.390 . S
C1658 C1652 1.465 . S
C1658 C1657 1.396 . S
C1658 C1659 1.399 . S
C1659 H1645 0.929 . S
C1659 C1658 1.399 . S
C1659 C1660 1.385 . S
C1660 H1646 0.931 . S
C1660 C1659 1.385 . S
C1660 C1661 1.389 . S
C1661 C1660 1.389 . S
C1661 C1662 1.387 . S
C1662 H1647 0.930 . S
C1662 C1657 1.390 . S
C1662 C1661 1.387 . S
H1663 C1675 0.930 . S
H1664 C1677 0.930 . S
H1665 C1678 0.930 . S
H1666 C1682 0.959 . S
H1667 C1682 0.959 . S
H1668 C1682 0.961 1_655 S
H1669 C1683 0.942 1_655 S
H1670 C1683 0.961 . S
H1671 C1683 0.959 . S
H1672 C1686 0.929 . S
H1673 C1687 0.931 . S
H1674 C1689 0.930 . S
C1675 H1663 0.930 . S
C1675 C1676 1.399 . S
C1675 C1680 1.399 . S
C1676 C1675 1.399 . S
C1676 C1677 1.376 . S
C1677 H1664 0.930 . S
C1677 C1676 1.376 . S
C1677 C1678 1.388 . S
C1678 H1665 0.930 . S
C1678 C1677 1.388 . S
C1678 C1679 1.365 1_655 S
C1679 C1678 1.365 1_455 S
C1679 C1680 1.381 1_455 S
C1679 C1685 1.505 . S
C1680 C1675 1.399 . S
C1680 C1679 1.381 1_655 S
C1680 C1681 1.516 1_655 S
C1681 C1680 1.516 1_455 S
C1681 C1682 1.502 . S
C1681 C1683 1.561 . S
C1681 C1684 1.526 . S
C1682 H1666 0.959 . S
C1682 H1667 0.959 . S
C1682 H1668 0.961 1_455 S
C1682 C1681 1.502 . S
C1683 H1669 0.942 1_455 S
C1683 H1670 0.961 . S
C1683 H1671 0.959 . S
C1683 C1681 1.561 . S
C1684 C1681 1.526 . S
C1684 C1685 1.396 . S
C1684 C1689 1.390 . S
C1685 C1679 1.505 . S
C1685 C1684 1.396 . S
C1685 C1686 1.399 . S
C1686 H1672 0.929 . S
C1686 C1685 1.399 . S
C1686 C1687 1.385 . S
C1687 H1673 0.931 . S
C1687 C1686 1.385 . S
C1687 C1688 1.389 . S
C1688 C1687 1.389 . S
C1688 C1689 1.387 . S
C1689 H1674 0.930 . S
C1689 C1684 1.390 . S
C1689 C1688 1.387 . S
H1690 C1702 0.930 . S
H1691 C1704 0.930 . S
H1692 C1705 0.930 . S
H1693 C1709 0.959 . S
H1694 C1709 0.959 . S
H1695 C1709 0.961 . S
H1696 C1710 0.960 . S
H1697 C1710 0.961 . S
H1698 C1710 0.959 . S
H1699 C1713 0.929 . S
H1700 C1714 0.931 . S
H1701 C1716 0.930 . S
C1702 H1690 0.930 . S
C1702 C1703 1.399 . S
C1702 C1707 1.399 . S
C1703 C1702 1.399 . S
C1703 C1704 1.376 . S
C1704 H1691 0.930 . S
C1704 C1703 1.376 . S
C1704 C1705 1.388 . S
C1705 H1692 0.930 . S
C1705 C1704 1.388 . S
C1705 C1706 1.390 . S
C1706 C1705 1.390 . S
C1706 C1707 1.394 . S
C1706 C1712 1.465 . S
C1707 C1702 1.399 . S
C1707 C1706 1.394 . S
C1707 C1708 1.516 . S
C1708 C1707 1.516 . S
C1708 C1709 1.502 . S
C1708 C1710 1.561 . S
C1708 C1711 1.526 . S
C1709 H1693 0.959 . S
C1709 H1694 0.959 . S
C1709 H1695 0.961 . S
C1709 C1708 1.502 . S
C1710 H1696 0.960 . S
C1710 H1697 0.961 . S
C1710 H1698 0.959 . S
C1710 C1708 1.561 . S
C1711 C1708 1.526 . S
C1711 C1712 1.396 . S
C1711 C1716 1.390 . S
C1712 C1706 1.465 . S
C1712 C1711 1.396 . S
C1712 C1713 1.399 . S
C1713 H1699 0.929 . S
C1713 C1712 1.399 . S
C1713 C1714 1.385 . S
C1714 H1700 0.931 . S
C1714 C1713 1.385 . S
C1714 C1715 1.389 . S
C1715 C1714 1.389 . S
C1715 C1716 1.387 . S
C1716 H1701 0.930 . S
C1716 C1711 1.390 . S
C1716 C1715 1.387 . S
H1717 C1729 0.930 . S
H1718 C1731 0.930 . S
H1719 C1732 0.930 . S
H1720 C1736 0.959 . S
H1721 C1736 0.959 . S
H1722 C1736 0.961 . S
H1723 C1737 0.960 . S
H1724 C1737 0.961 . S
H1725 C1737 0.959 . S
H1726 C1740 0.929 . S
H1727 C1741 0.931 . S
H1728 C1743 0.930 . S
C1729 H1717 0.930 . S
C1729 C1730 1.399 . S
C1729 C1734 1.399 . S
C1730 C1729 1.399 . S
C1730 C1731 1.376 . S
C1731 H1718 0.930 . S
C1731 C1730 1.376 . S
C1731 C1732 1.388 . S
C1732 H1719 0.930 . S
C1732 C1731 1.388 . S
C1732 C1733 1.390 . S
C1733 C1732 1.390 . S
C1733 C1734 1.394 . S
C1733 C1739 1.465 . S
C1734 C1729 1.399 . S
C1734 C1733 1.394 . S
C1734 C1735 1.516 . S
C1735 C1734 1.516 . S
C1735 C1736 1.502 . S
C1735 C1737 1.561 . S
C1735 C1738 1.526 . S
C1736 H1720 0.959 . S
C1736 H1721 0.959 . S
C1736 H1722 0.961 . S
C1736 C1735 1.502 . S
C1737 H1723 0.960 . S
C1737 H1724 0.961 . S
C1737 H1725 0.959 . S
C1737 C1735 1.561 . S
C1738 C1735 1.526 . S
C1738 C1739 1.396 . S
C1738 C1743 1.390 . S
C1739 C1733 1.465 . S
C1739 C1738 1.396 . S
C1739 C1740 1.399 . S
C1740 H1726 0.929 . S
C1740 C1739 1.399 . S
C1740 C1741 1.385 . S
C1741 H1727 0.931 . S
C1741 C1740 1.385 . S
C1741 C1742 1.389 . S
C1742 C1741 1.389 . S
C1742 C1743 1.387 . S
C1743 H1728 0.930 . S
C1743 C1738 1.390 . S
C1743 C1742 1.387 . S
H1744 C1756 0.930 . S
H1745 C1758 0.930 . S
H1746 C1759 0.930 . S
H1747 C1763 0.959 . S
H1748 C1763 0.959 . S
H1749 C1763 0.961 . S
H1750 C1764 0.960 . S
H1751 C1764 0.961 . S
H1752 C1764 0.959 . S
H1753 C1767 0.929 . S
H1754 C1768 0.931 . S
H1755 C1770 0.930 . S
C1756 H1744 0.930 . S
C1756 C1757 1.399 . S
C1756 C1761 1.399 . S
C1757 C1756 1.399 . S
C1757 C1758 1.376 . S
C1758 H1745 0.930 . S
C1758 C1757 1.376 . S
C1758 C1759 1.388 . S
C1759 H1746 0.930 . S
C1759 C1758 1.388 . S
C1759 C1760 1.390 . S
C1760 C1759 1.390 . S
C1760 C1761 1.394 . S
C1760 C1766 1.465 . S
C1761 C1756 1.399 . S
C1761 C1760 1.394 . S
C1761 C1762 1.516 . S
C1762 C1761 1.516 . S
C1762 C1763 1.502 . S
C1762 C1764 1.561 . S
C1762 C1765 1.526 . S
C1763 H1747 0.959 . S
C1763 H1748 0.959 . S
C1763 H1749 0.961 . S
C1763 C1762 1.502 . S
C1764 H1750 0.960 . S
C1764 H1751 0.961 . S
C1764 H1752 0.959 . S
C1764 C1762 1.561 . S
C1765 C1762 1.526 . S
C1765 C1766 1.396 . S
C1765 C1770 1.390 . S
C1766 C1760 1.465 . S
C1766 C1765 1.396 . S
C1766 C1767 1.399 . S
C1767 H1753 0.929 . S
C1767 C1766 1.399 . S
C1767 C1768 1.385 . S
C1768 H1754 0.931 . S
C1768 C1767 1.385 . S
C1768 C1769 1.389 . S
C1769 C1768 1.389 . S
C1769 C1770 1.387 . S
C1770 H1755 0.930 . S
C1770 C1765 1.390 . S
C1770 C1769 1.387 . S
H1771 C1783 0.930 . S
H1772 C1785 0.930 . S
H1773 C1786 0.930 . S
H1774 C1790 0.959 . S
H1775 C1790 0.959 . S
H1776 C1790 0.961 . S
H1777 C1791 0.960 . S
H1778 C1791 0.961 . S
H1779 C1791 0.959 . S
H1780 C1794 0.929 . S
H1781 C1795 0.931 . S
H1782 C1797 0.930 . S
C1783 H1771 0.930 . S
C1783 C1784 1.399 . S
C1783 C1788 1.399 . S
C1784 C1783 1.399 . S
C1784 C1785 1.376 . S
C1785 H1772 0.930 . S
C1785 C1784 1.376 . S
C1785 C1786 1.388 . S
C1786 H1773 0.930 . S
C1786 C1785 1.388 . S
C1786 C1787 1.390 . S
C1787 C1786 1.390 . S
C1787 C1788 1.394 . S
C1787 C1793 1.465 . S
C1788 C1783 1.399 . S
C1788 C1787 1.394 . S
C1788 C1789 1.516 . S
C1789 C1788 1.516 . S
C1789 C1790 1.502 . S
C1789 C1791 1.561 . S
C1789 C1792 1.526 . S
C1790 H1774 0.959 . S
C1790 H1775 0.959 . S
C1790 H1776 0.961 . S
C1790 C1789 1.502 . S
C1791 H1777 0.960 . S
C1791 H1778 0.961 . S
C1791 H1779 0.959 . S
C1791 C1789 1.561 . S
C1792 C1789 1.526 . S
C1792 C1793 1.396 . S
C1792 C1797 1.390 . S
C1793 C1787 1.465 . S
C1793 C1792 1.396 . S
C1793 C1794 1.399 . S
C1794 H1780 0.929 . S
C1794 C1793 1.399 . S
C1794 C1795 1.385 . S
C1795 H1781 0.931 . S
C1795 C1794 1.385 . S
C1795 C1796 1.389 . S
C1796 C1795 1.389 . S
C1796 C1797 1.387 . S
C1797 H1782 0.930 . S
C1797 C1792 1.390 . S
C1797 C1796 1.387 . S
H1798 C1810 0.930 . S
H1799 C1812 0.930 . S
H1800 C1813 0.930 . S
H1801 C1817 0.959 . S
H1802 C1817 0.959 . S
H1803 C1817 0.961 . S
H1804 C1818 0.960 . S
H1805 C1818 0.961 . S
H1806 C1818 0.959 . S
H1807 C1821 0.929 . S
H1808 C1822 0.931 . S
H1809 C1824 0.930 . S
C1810 H1798 0.930 . S
C1810 C1811 1.399 . S
C1810 C1815 1.399 . S
C1811 C1810 1.399 . S
C1811 C1812 1.376 . S
C1812 H1799 0.930 . S
C1812 C1811 1.376 . S
C1812 C1813 1.388 . S
C1813 H1800 0.930 . S
C1813 C1812 1.388 . S
C1813 C1814 1.390 . S
C1814 C1813 1.390 . S
C1814 C1815 1.394 . S
C1814 C1820 1.465 . S
C1815 C1810 1.399 . S
C1815 C1814 1.394 . S
C1815 C1816 1.516 . S
C1816 C1815 1.516 . S
C1816 C1817 1.502 . S
C1816 C1818 1.561 . S
C1816 C1819 1.526 . S
C1817 H1801 0.959 . S
C1817 H1802 0.959 . S
C1817 H1803 0.961 . S
C1817 C1816 1.502 . S
C1818 H1804 0.960 . S
C1818 H1805 0.961 . S
C1818 H1806 0.959 . S
C1818 C1816 1.561 . S
C1819 C1816 1.526 . S
C1819 C1820 1.396 . S
C1819 C1824 1.390 . S
C1820 C1814 1.465 . S
C1820 C1819 1.396 . S
C1820 C1821 1.399 . S
C1821 H1807 0.929 . S
C1821 C1820 1.399 . S
C1821 C1822 1.385 . S
C1822 H1808 0.931 . S
C1822 C1821 1.385 . S
C1822 C1823 1.389 . S
C1823 C1822 1.389 . S
C1823 C1824 1.387 . S
C1824 H1809 0.930 . S
C1824 C1819 1.390 . S
C1824 C1823 1.387 . S
H1825 C1837 0.930 . S
H1826 C1839 0.930 . S
H1827 C1840 0.930 . S
H1828 C1844 0.959 . S
H1829 C1844 0.959 . S
H1830 C1844 0.961 . S
H1831 C1845 0.960 . S
H1832 C1845 0.961 . S
H1833 C1845 0.959 . S
H1834 C1848 0.929 . S
H1835 C1849 0.931 . S
H1836 C1851 0.930 . S
C1837 H1825 0.930 . S
C1837 C1838 1.399 . S
C1837 C1842 1.399 . S
C1838 C1837 1.399 . S
C1838 C1839 1.376 . S
C1839 H1826 0.930 . S
C1839 C1838 1.376 . S
C1839 C1840 1.388 . S
C1840 H1827 0.930 . S
C1840 C1839 1.388 . S
C1840 C1841 1.390 . S
C1841 C1840 1.390 . S
C1841 C1842 1.394 . S
C1841 C1847 1.465 . S
C1842 C1837 1.399 . S
C1842 C1841 1.394 . S
C1842 C1843 1.516 . S
C1843 C1842 1.516 . S
C1843 C1844 1.502 . S
C1843 C1845 1.561 . S
C1843 C1846 1.526 . S
C1844 H1828 0.959 . S
C1844 H1829 0.959 . S
C1844 H1830 0.961 . S
C1844 C1843 1.502 . S
C1845 H1831 0.960 . S
C1845 H1832 0.961 . S
C1845 H1833 0.959 . S
C1845 C1843 1.561 . S
C1846 C1843 1.526 . S
C1846 C1847 1.396 . S
C1846 C1851 1.390 . S
C1847 C1841 1.465 . S
C1847 C1846 1.396 . S
C1847 C1848 1.399 . S
C1848 H1834 0.929 . S
C1848 C1847 1.399 . S
C1848 C1849 1.385 . S
C1849 H1835 0.931 . S
C1849 C1848 1.385 . S
C1849 C1850 1.389 . S
C1850 C1849 1.389 . S
C1850 C1851 1.387 . S
C1851 H1836 0.930 . S
C1851 C1846 1.390 . S
C1851 C1850 1.387 . S
H1852 C1864 0.930 . S
H1853 C1866 0.930 . S
H1854 C1867 0.930 . S
H1855 C1871 0.959 . S
H1856 C1871 0.959 . S
H1857 C1871 0.961 . S
H1858 C1872 0.960 . S
H1859 C1872 0.961 . S
H1860 C1872 0.959 . S
H1861 C1875 0.929 . S
H1862 C1876 0.931 . S
H1863 C1878 0.930 . S
C1864 H1852 0.930 . S
C1864 C1865 1.399 . S
C1864 C1869 1.399 . S
C1865 C1864 1.399 . S
C1865 C1866 1.376 . S
C1866 H1853 0.930 . S
C1866 C1865 1.376 . S
C1866 C1867 1.388 . S
C1867 H1854 0.930 . S
C1867 C1866 1.388 . S
C1867 C1868 1.390 . S
C1868 C1867 1.390 . S
C1868 C1869 1.394 . S
C1868 C1874 1.465 . S
C1869 C1864 1.399 . S
C1869 C1868 1.394 . S
C1869 C1870 1.516 . S
C1870 C1869 1.516 . S
C1870 C1871 1.502 . S
C1870 C1872 1.561 . S
C1870 C1873 1.526 . S
C1871 H1855 0.959 . S
C1871 H1856 0.959 . S
C1871 H1857 0.961 . S
C1871 C1870 1.502 . S
C1872 H1858 0.960 . S
C1872 H1859 0.961 . S
C1872 H1860 0.959 . S
C1872 C1870 1.561 . S
C1873 C1870 1.526 . S
C1873 C1874 1.396 . S
C1873 C1878 1.390 . S
C1874 C1868 1.465 . S
C1874 C1873 1.396 . S
C1874 C1875 1.399 . S
C1875 H1861 0.929 . S
C1875 C1874 1.399 . S
C1875 C1876 1.385 . S
C1876 H1862 0.931 . S
C1876 C1875 1.385 . S
C1876 C1877 1.389 . S
C1877 C1876 1.389 . S
C1877 C1878 1.387 . S
C1878 H1863 0.930 . S
C1878 C1873 1.390 . S
C1878 C1877 1.387 . S
H1879 C1891 0.930 . S
H1880 C1893 0.930 1_556 S
H1881 C1894 0.930 . S
H1882 C1898 0.959 . S
H1883 C1898 0.959 . S
H1884 C1898 0.961 . S
H1885 C1899 0.960 . S
H1886 C1899 0.961 . S
H1887 C1899 0.959 . S
H1888 C1902 0.929 . S
H1889 C1903 0.931 . S
H1890 C1905 0.930 . S
C1891 H1879 0.930 . S
C1891 C1892 1.399 . S
C1891 C1896 1.399 . S
C1892 C1891 1.399 . S
C1892 C1893 1.376 . S
C1893 H1880 0.930 1_554 S
C1893 C1892 1.376 . S
C1893 C1894 1.388 . S
C1894 H1881 0.930 . S
C1894 C1893 1.388 . S
C1894 C1895 1.390 . S
C1895 C1894 1.390 . S
C1895 C1896 1.394 . S
C1895 C1901 1.465 . S
C1896 C1891 1.399 . S
C1896 C1895 1.394 . S
C1896 C1897 1.516 . S
C1897 C1896 1.516 . S
C1897 C1898 1.502 . S
C1897 C1899 1.561 . S
C1897 C1900 1.526 . S
C1898 H1882 0.959 . S
C1898 H1883 0.959 . S
C1898 H1884 0.961 . S
C1898 C1897 1.502 . S
C1899 H1885 0.960 . S
C1899 H1886 0.961 . S
C1899 H1887 0.959 . S
C1899 C1897 1.561 . S
C1900 C1897 1.526 . S
C1900 C1901 1.396 . S
C1900 C1905 1.390 . S
C1901 C1895 1.465 . S
C1901 C1900 1.396 . S
C1901 C1902 1.399 . S
C1902 H1888 0.929 . S
C1902 C1901 1.399 . S
C1902 C1903 1.385 . S
C1903 H1889 0.931 . S
C1903 C1902 1.385 . S
C1903 C1904 1.389 . S
C1904 C1903 1.389 . S
C1904 C1905 1.387 . S
C1905 H1890 0.930 . S
C1905 C1900 1.390 . S
C1905 C1904 1.387 . S
H1906 C1918 0.930 . S
H1907 C1920 0.930 . S
H1908 C1921 0.930 . S
H1909 C1925 0.959 . S
H1910 C1925 0.959 . S
H1911 C1925 0.961 . S
H1912 C1926 0.960 . S
H1913 C1926 0.961 . S
H1914 C1926 0.959 . S
H1915 C1929 0.929 . S
H1916 C1930 0.931 1_554 S
H1917 C1932 0.930 . S
C1918 H1906 0.930 . S
C1918 C1919 1.399 . S
C1918 C1923 1.399 . S
C1919 C1918 1.399 . S
C1919 C1920 1.376 . S
C1920 H1907 0.930 . S
C1920 C1919 1.376 . S
C1920 C1921 1.388 . S
C1921 H1908 0.930 . S
C1921 C1920 1.388 . S
C1921 C1922 1.390 . S
C1922 C1921 1.390 . S
C1922 C1923 1.394 . S
C1922 C1928 1.465 . S
C1923 C1918 1.399 . S
C1923 C1922 1.394 . S
C1923 C1924 1.516 . S
C1924 C1923 1.516 . S
C1924 C1925 1.502 . S
C1924 C1926 1.561 . S
C1924 C1927 1.526 . S
C1925 H1909 0.959 . S
C1925 H1910 0.959 . S
C1925 H1911 0.961 . S
C1925 C1924 1.502 . S
C1926 H1912 0.960 . S
C1926 H1913 0.961 . S
C1926 H1914 0.959 . S
C1926 C1924 1.561 . S
C1927 C1924 1.526 . S
C1927 C1928 1.396 . S
C1927 C1932 1.390 . S
C1928 C1922 1.465 . S
C1928 C1927 1.396 . S
C1928 C1929 1.399 . S
C1929 H1915 0.929 . S
C1929 C1928 1.399 . S
C1929 C1930 1.385 . S
C1930 H1916 0.931 1_556 S
C1930 C1929 1.385 . S
C1930 C1931 1.389 . S
C1931 C1930 1.389 . S
C1931 C1932 1.387 . S
C1932 H1917 0.930 . S
C1932 C1927 1.390 . S
C1932 C1931 1.387 . S
H1933 C1945 0.930 . S
H1934 C1947 0.930 . S
H1935 C1948 0.930 . S
H1936 C1952 0.959 . S
H1937 C1952 0.959 . S
H1938 C1952 0.961 . S
H1939 C1953 0.960 . S
H1940 C1953 0.961 . S
H1941 C1953 0.959 . S
H1942 C1956 0.929 . S
H1943 C1957 0.931 . S
H1944 C1959 0.930 . S
C1945 H1933 0.930 . S
C1945 C1946 1.399 . S
C1945 C1950 1.399 . S
C1946 C1945 1.399 . S
C1946 C1947 1.376 . S
C1947 H1934 0.930 . S
C1947 C1946 1.376 . S
C1947 C1948 1.388 . S
C1948 H1935 0.930 . S
C1948 C1947 1.388 . S
C1948 C1949 1.390 . S
C1949 C1948 1.390 . S
C1949 C1950 1.394 . S
C1949 C1955 1.465 . S
C1950 C1945 1.399 . S
C1950 C1949 1.394 . S
C1950 C1951 1.516 . S
C1951 C1950 1.516 . S
C1951 C1952 1.502 . S
C1951 C1953 1.561 . S
C1951 C1954 1.526 . S
C1952 H1936 0.959 . S
C1952 H1937 0.959 . S
C1952 H1938 0.961 . S
C1952 C1951 1.502 . S
C1953 H1939 0.960 . S
C1953 H1940 0.961 . S
C1953 H1941 0.959 . S
C1953 C1951 1.561 . S
C1954 C1951 1.526 . S
C1954 C1955 1.396 . S
C1954 C1959 1.390 . S
C1955 C1949 1.465 . S
C1955 C1954 1.396 . S
C1955 C1956 1.399 . S
C1956 H1942 0.929 . S
C1956 C1955 1.399 . S
C1956 C1957 1.385 . S
C1957 H1943 0.931 . S
C1957 C1956 1.385 . S
C1957 C1958 1.389 . S
C1958 C1957 1.389 . S
C1958 C1959 1.387 . S
C1959 H1944 0.930 . S
C1959 C1954 1.390 . S
C1959 C1958 1.387 . S
H1960 C1972 0.930 . S
H1961 C1974 0.930 1_556 S
H1962 C1975 0.930 . S
H1963 C1979 0.959 . S
H1964 C1979 0.959 . S
H1965 C1979 0.961 . S
H1966 C1980 0.960 . S
H1967 C1980 0.961 . S
H1968 C1980 0.959 . S
H1969 C1983 0.929 . S
H1970 C1984 0.931 . S
H1971 C1986 0.930 . S
C1972 H1960 0.930 . S
C1972 C1973 1.399 . S
C1972 C1977 1.399 . S
C1973 C1972 1.399 . S
C1973 C1974 1.376 . S
C1974 H1961 0.930 1_554 S
C1974 C1973 1.376 . S
C1974 C1975 1.388 . S
C1975 H1962 0.930 . S
C1975 C1974 1.388 . S
C1975 C1976 1.390 . S
C1976 C1975 1.390 . S
C1976 C1977 1.394 . S
C1976 C1982 1.465 . S
C1977 C1972 1.399 . S
C1977 C1976 1.394 . S
C1977 C1978 1.516 . S
C1978 C1977 1.516 . S
C1978 C1979 1.502 . S
C1978 C1980 1.561 . S
C1978 C1981 1.526 . S
C1979 H1963 0.959 . S
C1979 H1964 0.959 . S
C1979 H1965 0.961 . S
C1979 C1978 1.502 . S
C1980 H1966 0.960 . S
C1980 H1967 0.961 . S
C1980 H1968 0.959 . S
C1980 C1978 1.561 . S
C1981 C1978 1.526 . S
C1981 C1982 1.396 . S
C1981 C1986 1.390 . S
C1982 C1976 1.465 . S
C1982 C1981 1.396 . S
C1982 C1983 1.399 . S
C1983 H1969 0.929 . S
C1983 C1982 1.399 . S
C1983 C1984 1.385 . S
C1984 H1970 0.931 . S
C1984 C1983 1.385 . S
C1984 C1985 1.389 . S
C1985 C1984 1.389 . S
C1985 C1986 1.387 . S
C1986 H1971 0.930 . S
C1986 C1981 1.390 . S
C1986 C1985 1.387 . S
H1987 C1999 0.930 . S
H1988 C2001 0.930 . S
H1989 C2002 0.930 . S
H1990 C2006 0.959 . S
H1991 C2006 0.959 . S
H1992 C2006 0.961 . S
H1993 C2007 0.960 . S
H1994 C2007 0.961 . S
H1995 C2007 0.959 . S
H1996 C2010 0.929 . S
H1997 C2011 0.931 . S
H1998 C2013 0.930 . S
C1999 H1987 0.930 . S
C1999 C2000 1.399 . S
C1999 C2004 1.399 . S
C2000 C1999 1.399 . S
C2000 C2001 1.376 . S
C2001 H1988 0.930 . S
C2001 C2000 1.376 . S
C2001 C2002 1.388 . S
C2002 H1989 0.930 . S
C2002 C2001 1.388 . S
C2002 C2003 1.390 . S
C2003 C2002 1.390 . S
C2003 C2004 1.394 . S
C2003 C2009 1.465 . S
C2004 C1999 1.399 . S
C2004 C2003 1.394 . S
C2004 C2005 1.516 . S
C2005 C2004 1.516 . S
C2005 C2006 1.502 . S
C2005 C2007 1.561 . S
C2005 C2008 1.526 . S
C2006 H1990 0.959 . S
C2006 H1991 0.959 . S
C2006 H1992 0.961 . S
C2006 C2005 1.502 . S
C2007 H1993 0.960 . S
C2007 H1994 0.961 . S
C2007 H1995 0.959 . S
C2007 C2005 1.561 . S
C2008 C2005 1.526 . S
C2008 C2009 1.396 . S
C2008 C2013 1.390 . S
C2009 C2003 1.465 . S
C2009 C2008 1.396 . S
C2009 C2010 1.399 . S
C2010 H1996 0.929 . S
C2010 C2009 1.399 . S
C2010 C2011 1.385 . S
C2011 H1997 0.931 . S
C2011 C2010 1.385 . S
C2011 C2012 1.389 . S
C2012 C2011 1.389 . S
C2012 C2013 1.387 . S
C2013 H1998 0.930 . S
C2013 C2008 1.390 . S
C2013 C2012 1.387 . S
H2014 C2026 0.930 . S
H2015 C2028 0.930 . S
H2016 C2029 0.930 . S
H2017 C2033 0.959 . S
H2018 C2033 0.959 . S
H2019 C2033 0.961 . S
H2020 C2034 0.960 . S
H2021 C2034 0.961 . S
H2022 C2034 0.959 . S
H2023 C2037 0.929 . S
H2024 C2038 0.931 . S
H2025 C2040 0.930 . S
C2026 H2014 0.930 . S
C2026 C2027 1.399 . S
C2026 C2031 1.399 . S
C2027 C2026 1.399 . S
C2027 C2028 1.376 . S
C2028 H2015 0.930 . S
C2028 C2027 1.376 . S
C2028 C2029 1.388 . S
C2029 H2016 0.930 . S
C2029 C2028 1.388 . S
C2029 C2030 1.390 . S
C2030 C2029 1.390 . S
C2030 C2031 1.394 . S
C2030 C2036 1.465 . S
C2031 C2026 1.399 . S
C2031 C2030 1.394 . S
C2031 C2032 1.516 . S
C2032 C2031 1.516 . S
C2032 C2033 1.502 . S
C2032 C2034 1.561 . S
C2032 C2035 1.526 . S
C2033 H2017 0.959 . S
C2033 H2018 0.959 . S
C2033 H2019 0.961 . S
C2033 C2032 1.502 . S
C2034 H2020 0.960 . S
C2034 H2021 0.961 . S
C2034 H2022 0.959 . S
C2034 C2032 1.561 . S
C2035 C2032 1.526 . S
C2035 C2036 1.396 . S
C2035 C2040 1.390 . S
C2036 C2030 1.465 . S
C2036 C2035 1.396 . S
C2036 C2037 1.399 . S
C2037 H2023 0.929 . S
C2037 C2036 1.399 . S
C2037 C2038 1.385 . S
C2038 H2024 0.931 . S
C2038 C2037 1.385 . S
C2038 C2039 1.389 . S
C2039 C2038 1.389 . S
C2039 C2040 1.387 . S
C2040 H2025 0.930 . S
C2040 C2035 1.390 . S
C2040 C2039 1.387 . S
H2041 C2053 0.930 . S
H2042 C2055 0.930 . S
H2043 C2056 0.930 . S
H2044 C2060 0.959 . S
H2045 C2060 0.959 . S
H2046 C2060 0.961 . S
H2047 C2061 0.960 . S
H2048 C2061 0.961 . S
H2049 C2061 0.959 . S
H2050 C2064 0.929 . S
H2051 C2065 0.931 . S
H2052 C2067 0.930 . S
C2053 H2041 0.930 . S
C2053 C2054 1.399 . S
C2053 C2058 1.399 . S
C2054 C2053 1.399 . S
C2054 C2055 1.376 . S
C2055 H2042 0.930 . S
C2055 C2054 1.376 . S
C2055 C2056 1.388 . S
C2056 H2043 0.930 . S
C2056 C2055 1.388 . S
C2056 C2057 1.390 . S
C2057 C2056 1.390 . S
C2057 C2058 1.394 . S
C2057 C2063 1.465 . S
C2058 C2053 1.399 . S
C2058 C2057 1.394 . S
C2058 C2059 1.516 . S
C2059 C2058 1.516 . S
C2059 C2060 1.502 . S
C2059 C2061 1.561 . S
C2059 C2062 1.526 . S
C2060 H2044 0.959 . S
C2060 H2045 0.959 . S
C2060 H2046 0.961 . S
C2060 C2059 1.502 . S
C2061 H2047 0.960 . S
C2061 H2048 0.961 . S
C2061 H2049 0.959 . S
C2061 C2059 1.561 . S
C2062 C2059 1.526 . S
C2062 C2063 1.396 . S
C2062 C2067 1.390 . S
C2063 C2057 1.465 . S
C2063 C2062 1.396 . S
C2063 C2064 1.399 . S
C2064 H2050 0.929 . S
C2064 C2063 1.399 . S
C2064 C2065 1.385 . S
C2065 H2051 0.931 . S
C2065 C2064 1.385 . S
C2065 C2066 1.389 . S
C2066 C2065 1.389 . S
C2066 C2067 1.387 . S
C2067 H2052 0.930 . S
C2067 C2062 1.390 . S
C2067 C2066 1.387 . S
H2068 C2080 0.930 . S
H2069 C2082 0.930 . S
H2070 C2083 0.930 . S
H2071 C2087 0.959 . S
H2072 C2087 0.959 . S
H2073 C2087 0.961 . S
H2074 C2088 0.960 . S
H2075 C2088 0.961 . S
H2076 C2088 0.959 . S
H2077 C2091 0.929 . S
H2078 C2092 0.931 . S
H2079 C2094 0.930 . S
C2080 H2068 0.930 . S
C2080 C2081 1.399 . S
C2080 C2085 1.399 . S
C2081 C2080 1.399 . S
C2081 C2082 1.376 . S
C2082 H2069 0.930 . S
C2082 C2081 1.376 . S
C2082 C2083 1.388 . S
C2083 H2070 0.930 . S
C2083 C2082 1.388 . S
C2083 C2084 1.390 . S
C2084 C2083 1.390 . S
C2084 C2085 1.394 . S
C2084 C2090 1.465 . S
C2085 C2080 1.399 . S
C2085 C2084 1.394 . S
C2085 C2086 1.516 . S
C2086 C2085 1.516 . S
C2086 C2087 1.502 . S
C2086 C2088 1.561 . S
C2086 C2089 1.526 . S
C2087 H2071 0.959 . S
C2087 H2072 0.959 . S
C2087 H2073 0.961 . S
C2087 C2086 1.502 . S
C2088 H2074 0.960 . S
C2088 H2075 0.961 . S
C2088 H2076 0.959 . S
C2088 C2086 1.561 . S
C2089 C2086 1.526 . S
C2089 C2090 1.396 . S
C2089 C2094 1.390 . S
C2090 C2084 1.465 . S
C2090 C2089 1.396 . S
C2090 C2091 1.399 . S
C2091 H2077 0.929 . S
C2091 C2090 1.399 . S
C2091 C2092 1.385 . S
C2092 H2078 0.931 . S
C2092 C2091 1.385 . S
C2092 C2093 1.389 . S
C2093 C2092 1.389 . S
C2093 C2094 1.387 . S
C2094 H2079 0.930 . S
C2094 C2089 1.390 . S
C2094 C2093 1.387 . S
H2095 C2107 0.930 . S
H2096 C2109 0.930 . S
H2097 C2110 0.930 . S
H2098 C2114 0.959 . S
H2099 C2114 0.959 . S
H2100 C2114 0.961 . S
H2101 C2115 0.960 . S
H2102 C2115 0.961 . S
H2103 C2115 0.959 . S
H2104 C2118 0.929 . S
H2105 C2119 0.931 . S
H2106 C2121 0.930 . S
C2107 H2095 0.930 . S
C2107 C2108 1.399 . S
C2107 C2112 1.399 . S
C2108 C2107 1.399 . S
C2108 C2109 1.376 . S
C2109 H2096 0.930 . S
C2109 C2108 1.376 . S
C2109 C2110 1.388 . S
C2110 H2097 0.930 . S
C2110 C2109 1.388 . S
C2110 C2111 1.390 . S
C2111 C2110 1.390 . S
C2111 C2112 1.394 . S
C2111 C2117 1.465 . S
C2112 C2107 1.399 . S
C2112 C2111 1.394 . S
C2112 C2113 1.516 . S
C2113 C2112 1.516 . S
C2113 C2114 1.502 . S
C2113 C2115 1.561 . S
C2113 C2116 1.526 . S
C2114 H2098 0.959 . S
C2114 H2099 0.959 . S
C2114 H2100 0.961 . S
C2114 C2113 1.502 . S
C2115 H2101 0.960 . S
C2115 H2102 0.961 . S
C2115 H2103 0.959 . S
C2115 C2113 1.561 . S
C2116 C2113 1.526 . S
C2116 C2117 1.396 . S
C2116 C2121 1.390 . S
C2117 C2111 1.465 . S
C2117 C2116 1.396 . S
C2117 C2118 1.399 . S
C2118 H2104 0.929 . S
C2118 C2117 1.399 . S
C2118 C2119 1.385 . S
C2119 H2105 0.931 . S
C2119 C2118 1.385 . S
C2119 C2120 1.389 . S
C2120 C2119 1.389 . S
C2120 C2121 1.387 . S
C2121 H2106 0.930 . S
C2121 C2116 1.390 . S
C2121 C2120 1.387 . S
H2122 C2134 0.930 . S
H2123 C2136 0.930 . S
H2124 C2137 0.930 . S
H2125 C2141 0.959 . S
H2126 C2141 0.959 . S
H2127 C2141 0.961 . S
H2128 C2142 0.960 . S
H2129 C2142 0.961 . S
H2130 C2142 0.959 . S
H2131 C2145 0.929 . S
H2132 C2146 0.931 . S
H2133 C2148 0.930 . S
C2134 H2122 0.930 . S
C2134 C2135 1.399 . S
C2134 C2139 1.399 . S
C2135 C2134 1.399 . S
C2135 C2136 1.376 . S
C2136 H2123 0.930 . S
C2136 C2135 1.376 . S
C2136 C2137 1.388 . S
C2137 H2124 0.930 . S
C2137 C2136 1.388 . S
C2137 C2138 1.390 . S
C2138 C2137 1.390 . S
C2138 C2139 1.394 . S
C2138 C2144 1.465 . S
C2139 C2134 1.399 . S
C2139 C2138 1.394 . S
C2139 C2140 1.516 . S
C2140 C2139 1.516 . S
C2140 C2141 1.502 . S
C2140 C2142 1.561 . S
C2140 C2143 1.526 . S
C2141 H2125 0.959 . S
C2141 H2126 0.959 . S
C2141 H2127 0.961 . S
C2141 C2140 1.502 . S
C2142 H2128 0.960 . S
C2142 H2129 0.961 . S
C2142 H2130 0.959 . S
C2142 C2140 1.561 . S
C2143 C2140 1.526 . S
C2143 C2144 1.396 . S
C2143 C2148 1.390 . S
C2144 C2138 1.465 . S
C2144 C2143 1.396 . S
C2144 C2145 1.399 . S
C2145 H2131 0.929 . S
C2145 C2144 1.399 . S
C2145 C2146 1.385 . S
C2146 H2132 0.931 . S
C2146 C2145 1.385 . S
C2146 C2147 1.389 . S
C2147 C2146 1.389 . S
C2147 C2148 1.387 . S
C2148 H2133 0.930 . S
C2148 C2143 1.390 . S
C2148 C2147 1.387 . S
H2149 C2161 0.930 . S
H2150 C2163 0.930 . S
H2151 C2164 0.930 . S
H2152 C2168 0.959 . S
H2153 C2168 0.959 . S
H2154 C2168 0.961 . S
H2155 C2169 0.960 . S
H2156 C2169 0.961 . S
H2157 C2169 0.959 . S
H2158 C2172 0.929 . S
H2159 C2173 0.931 . S
H2160 C2175 0.930 . S
C2161 H2149 0.930 . S
C2161 C2162 1.399 . S
C2161 C2166 1.399 . S
C2162 C2161 1.399 . S
C2162 C2163 1.376 . S
C2163 H2150 0.930 . S
C2163 C2162 1.376 . S
C2163 C2164 1.388 . S
C2164 H2151 0.930 . S
C2164 C2163 1.388 . S
C2164 C2165 1.390 . S
C2165 C2164 1.390 . S
C2165 C2166 1.394 . S
C2165 C2171 1.465 . S
C2166 C2161 1.399 . S
C2166 C2165 1.394 . S
C2166 C2167 1.516 . S
C2167 C2166 1.516 . S
C2167 C2168 1.502 . S
C2167 C2169 1.561 . S
C2167 C2170 1.526 . S
C2168 H2152 0.959 . S
C2168 H2153 0.959 . S
C2168 H2154 0.961 . S
C2168 C2167 1.502 . S
C2169 H2155 0.960 . S
C2169 H2156 0.961 . S
C2169 H2157 0.959 . S
C2169 C2167 1.561 . S
C2170 C2167 1.526 . S
C2170 C2171 1.396 . S
C2170 C2175 1.390 . S
C2171 C2165 1.465 . S
C2171 C2170 1.396 . S
C2171 C2172 1.399 . S
C2172 H2158 0.929 . S
C2172 C2171 1.399 . S
C2172 C2173 1.385 . S
C2173 H2159 0.931 . S
C2173 C2172 1.385 . S
C2173 C2174 1.389 . S
C2174 C2173 1.389 . S
C2174 C2175 1.387 . S
C2175 H2160 0.930 . S
C2175 C2170 1.390 . S
C2175 C2174 1.387 . S
C461 C8 1.447 . S
C473 C64 1.479 . S
C488 C22 1.463 . S
C500 C78 1.441 . S
C515 C92 1.455 . S
C527 C36 1.447 . S
C542 C106 1.439 . S
C554 C50 1.479 . S
C569 C120 1.466 . S
C581 C176 1.437 . S
C596 C134 1.453 . S
C608 C190 1.439 . S
C623 C204 1.437 . S
C635 C148 1.468 . S
C650 C162 1.437 . S
C662 C218 1.466 . S
C677 C288 1.476 . S
C689 C232 1.453 . S
C704 C302 1.454 . S
C716 C246 1.476 . S
C731 C260 1.436 . S
C743 C316 1.474 . S
C758 C330 1.449 . S
C770 C274 1.478 . S
C785 C344 1.467 . S
C797 C400 1.437 . S
C812 C414 1.478 . S
C824 C358 1.462 . S
C839 C428 1.449 . S
C851 C372 1.479 . S
C866 C386 1.437 . S
C878 C442 1.458 . S
C893 C9 1.525 . S
C905 C385 1.479 . S
C920 C119 1.503 . S
C932 C23 1.509 . S
C947 C37 1.457 . S
C959 C357 1.500 . S
C974 C51 1.529 . S
C986 C147 1.467 . S
C1001 C413 1.449 . S
C1013 C65 1.503 . S
C1028 C203 1.458 . S
C1040 C79 1.488 . S
C1055 C93 1.529 . S
C1067 C441 1.467 . S
C1082 C107 1.456 . S
C1094 C175 1.502 . S
C1109 C273 1.473 . S
C1121 C121 1.526 . S
C1136 C135 1.512 . S
C1148 C7 1.453 . S
C1163 C245 1.499 . S
C1175 C149 1.458 . S
C1190 C163 1.487 . S
C1202 C35 1.449 . S
C1217 C301 1.496 . S
C1229 C177 1.457 . S
C1244 C191 1.470 . S
C1256 C91 1.517 . S
C1271 C329 1.493 . S
C1283 C205 1.457 . S
C1298 C219 1.497 . S
C1310 C63 1.524 . S
C1325 C161 1.521 . S
C1337 C233 1.486 . S
C1352 C343 1.449 . S
C1364 C247 1.503 . S
C1379 C133 1.467 . S
C1391 C261 1.528 . S
C1406 C275 1.457 . S
C1418 C371 1.499 . S
C1433 C189 1.448 . S
C1445 C289 1.508 . S
C1460 C427 1.453 . S
C1472 C303 1.526 . S
C1487 C217 1.525 . S
C1499 C317 1.470 . S
C1514 C331 1.522 . S
C1526 C399 1.450 . S
C1541 C345 1.491 . S
C1553 C49 1.524 . S
C1568 C359 1.465 . S
C1580 C231 1.461 . S
C1595 C373 1.502 . S
C1607 C21 1.449 . S
C1622 C387 1.476 . S
C1634 C259 1.452 . S
C1649 C401 1.483 . S
C1661 C77 1.523 . S
C1676 C315 1.466 . S
C1688 C415 1.524 . S
C1703 C105 1.478 . S
C1715 C429 1.528 . S
C1730 C443 1.511 . S
C1742 C287 1.518 . S
C1757 C3 1.039 . S
C1769 C101 1.019 . S
C1784 C17 1.000 . S
C1796 C59 0.993 1_556 S
C1811 C31 1.006 1_554 S
C1823 C73 1.027 . S
C1838 C87 1.006 . S
C1850 C45 1.027 . S
C1865 C213 1.031 . S
C1877 C115 1.029 . S
C1892 C171 0.993 1_554 S
C1904 C129 0.994 . S
C1919 C185 1.024 . S
C1931 C143 1.025 1_556 S
C1946 C199 1.055 . S
C1958 C157 1.054 . S
C1973 C227 1.033 1_554 S
C1985 C325 1.012 . S
C2000 C283 1.024 . S
C2012 C241 1.044 . S
C2027 C297 1.055 . S
C2039 C255 1.053 . S
C2054 C311 1.020 1_556 S
C2066 C269 1.040 . S
C2081 C437 1.053 . S
C2093 C339 1.052 1_556 S
C2108 C353 1.019 . S
C2120 C395 1.021 . S
C2135 C367 1.050 . S
C2147 C409 1.048 . S
C2162 C381 1.028 . S
C2174 C423 1.026 1_554 S
