# Generated by pormake.
# Topology uku, (4)-cn, num edge types: 1
# Building blocks:
#     Node 0, Type 0, BuildingBlock: ESEHIV_clean_sbu_0, # of connection points: 4
#     Node 1, Type 0, BuildingBlock: ESEHIV_clean_sbu_0, # of connection points: 4
#     Node 2, Type 0, BuildingBlock: ESEHIV_clean_sbu_0, # of connection points: 4
#     Node 3, Type 0, BuildingBlock: ESEHIV_clean_sbu_0, # of connection points: 4
#     Node 4, Type 0, BuildingBlock: ESEHIV_clean_sbu_0, # of connection points: 4
#     Node 5, Type 0, BuildingBlock: ESEHIV_clean_sbu_0, # of connection points: 4
#     Node 6, Type 0, BuildingBlock: ESEHIV_clean_sbu_0, # of connection points: 4
#     Node 7, Type 0, BuildingBlock: ESEHIV_clean_sbu_0, # of connection points: 4
#     Node 8, Type 0, BuildingBlock: ESEHIV_clean_sbu_0, # of connection points: 4
#     Node 9, Type 0, BuildingBlock: ESEHIV_clean_sbu_0, # of connection points: 4
#     Node 10, Type 0, BuildingBlock: ESEHIV_clean_sbu_0, # of connection points: 4
#     Node 11, Type 0, BuildingBlock: ESEHIV_clean_sbu_0, # of connection points: 4
#     Edge 12, Type (0, 0), BuildingBlock: MIFKUJ_clean_linker_0, # of connection points: 2
#     Edge 13, Type (0, 0), BuildingBlock: MIFKUJ_clean_linker_0, # of connection points: 2
#     Edge 14, Type (0, 0), BuildingBlock: MIFKUJ_clean_linker_0, # of connection points: 2
#     Edge 15, Type (0, 0), BuildingBlock: MIFKUJ_clean_linker_0, # of connection points: 2
#     Edge 16, Type (0, 0), BuildingBlock: MIFKUJ_clean_linker_0, # of connection points: 2
#     Edge 17, Type (0, 0), BuildingBlock: MIFKUJ_clean_linker_0, # of connection points: 2
#     Edge 18, Type (0, 0), BuildingBlock: MIFKUJ_clean_linker_0, # of connection points: 2
#     Edge 19, Type (0, 0), BuildingBlock: MIFKUJ_clean_linker_0, # of connection points: 2
#     Edge 20, Type (0, 0), BuildingBlock: MIFKUJ_clean_linker_0, # of connection points: 2
#     Edge 21, Type (0, 0), BuildingBlock: MIFKUJ_clean_linker_0, # of connection points: 2
#     Edge 22, Type (0, 0), BuildingBlock: MIFKUJ_clean_linker_0, # of connection points: 2
#     Edge 23, Type (0, 0), BuildingBlock: MIFKUJ_clean_linker_0, # of connection points: 2
#     Edge 24, Type (0, 0), BuildingBlock: MIFKUJ_clean_linker_0, # of connection points: 2
#     Edge 25, Type (0, 0), BuildingBlock: MIFKUJ_clean_linker_0, # of connection points: 2
#     Edge 26, Type (0, 0), BuildingBlock: MIFKUJ_clean_linker_0, # of connection points: 2
#     Edge 27, Type (0, 0), BuildingBlock: MIFKUJ_clean_linker_0, # of connection points: 2
#     Edge 28, Type (0, 0), BuildingBlock: MIFKUJ_clean_linker_0, # of connection points: 2
#     Edge 29, Type (0, 0), BuildingBlock: MIFKUJ_clean_linker_0, # of connection points: 2
#     Edge 30, Type (0, 0), BuildingBlock: MIFKUJ_clean_linker_0, # of connection points: 2
#     Edge 31, Type (0, 0), BuildingBlock: MIFKUJ_clean_linker_0, # of connection points: 2
#     Edge 32, Type (0, 0), BuildingBlock: MIFKUJ_clean_linker_0, # of connection points: 2
#     Edge 33, Type (0, 0), BuildingBlock: MIFKUJ_clean_linker_0, # of connection points: 2
#     Edge 34, Type (0, 0), BuildingBlock: MIFKUJ_clean_linker_0, # of connection points: 2
#     Edge 35, Type (0, 0), BuildingBlock: MIFKUJ_clean_linker_0, # of connection points: 2
# Relax obj value: 0.122
# Max RMSD: 0.250
# Mean RMSD: 0.250
data_MOF--net-uku--node1-ESEHIV_clean_sbu_0--edge1-MIFKUJ_clean_linker_0
_symmetry_space_group_name_H-M    P1
_symmetry_Int_Tables_number       1
_symmetry_cell_setting            triclinic
loop_
_symmetry_equiv_pos_as_xyz
'x, y, z'
_cell_length_a     60.437925
_cell_length_b     60.420732
_cell_length_c     60.43545
_cell_angle_alpha  89.997607
_cell_angle_beta   89.999414
_cell_angle_gamma 90.000131
loop_
_atom_site_label
_atom_site_type_symbol
_atom_site_fract_x
_atom_site_fract_y
_atom_site_fract_z
_atom_type_partial_charge
Cu0 Cu 0.09833 0.12906 0.64919 0.0
N1 N 0.12804 0.12151 0.65119 0.0
N2 N 0.16106 0.11451 0.66627 0.0
C3 C 0.14033 0.12216 0.6697 0.0
C4 C 0.16173 0.10895 0.64461 0.0
C5 C 0.14131 0.11327 0.63537 0.0
O6 O 0.09226 0.14963 0.67327 0.0
C7 C 0.06056 0.10226 0.65603 0.0
O8 O 0.05002 0.12124 0.65727 0.0
H9 H 0.13405 0.12809 0.68537 0.0
H10 H 0.13633 0.11023 0.61844 0.0
N11 N 0.0926 0.14114 0.62133 0.0
N12 N 0.0765 0.14797 0.58882 0.0
C13 C 0.07614 0.13557 0.60738 0.0
C14 C 0.10397 0.15731 0.61105 0.0
C15 C 0.09391 0.16174 0.59106 0.0
C16 C 0.08744 0.16998 0.67075 0.0
O17 O 0.08445 0.17788 0.65075 0.0
H18 H 0.0639 0.12298 0.61091 0.0
H19 H 0.11838 0.1655 0.61781 0.0
O20 O 0.08134 0.10222 0.65281 0.0
H21 H 0.17572 0.1017 0.63612 0.0
H22 H 0.09904 0.174 0.57904 0.0
Cu23 Cu 0.89781 0.87558 0.64633 0.0
N24 N 0.86872 0.88485 0.65013 0.0
N25 N 0.83676 0.89277 0.66689 0.0
C26 C 0.85746 0.88474 0.66932 0.0
C27 C 0.83497 0.89811 0.64526 0.0
C28 C 0.85477 0.89327 0.63497 0.0
O29 O 0.90236 0.85022 0.66535 0.0
C30 C 0.93771 0.89865 0.65608 0.0
O31 O 0.94725 0.87917 0.65444 0.0
H32 H 0.86429 0.87863 0.6847 0.0
H33 H 0.85877 0.89582 0.61771 0.0
N34 N 0.9026 0.86733 0.617 0.0
N35 N 0.91914 0.8624 0.5843 0.0
C36 C 0.92092 0.87098 0.60486 0.0
C37 C 0.88873 0.85608 0.60373 0.0
C38 C 0.89886 0.85306 0.5835 0.0
C39 C 0.90715 0.852 0.68575 0.0
O40 O 0.91066 0.87172 0.69421 0.0
H41 H 0.93519 0.87988 0.61094 0.0
H42 H 0.87248 0.85032 0.60852 0.0
O43 O 0.91689 0.9002 0.65365 0.0
H44 H 0.82055 0.90532 0.63748 0.0
H45 H 0.892 0.84424 0.56951 0.0
Cu46 Cu 0.10257 0.87614 0.35112 0.0
N47 N 0.13018 0.88946 0.34834 0.0
N48 N 0.16206 0.9002 0.33305 0.0
C49 C 0.14324 0.88847 0.33036 0.0
C50 C 0.16076 0.90881 0.35365 0.0
C51 C 0.14102 0.90218 0.36302 0.0
O52 O 0.10149 0.85184 0.33041 0.0
C53 C 0.08068 0.91127 0.32909 0.0
O54 O 0.09734 0.91012 0.31518 0.0
H55 H 0.13898 0.87919 0.31565 0.0
H56 H 0.13489 0.90646 0.37928 0.0
N57 N 0.09855 0.86579 0.37981 0.0
N58 N 0.08243 0.85936 0.41244 0.0
C59 C 0.08 0.86788 0.39192 0.0
C60 C 0.11328 0.85558 0.39299 0.0
C61 C 0.10339 0.85161 0.41318 0.0
C62 C 0.08439 0.84019 0.32673 0.0
O63 O 0.06591 0.84468 0.33727 0.0
H64 H 0.06521 0.876 0.38592 0.0
H65 H 0.13006 0.85151 0.38828 0.0
O66 O 0.07969 0.8977 0.34513 0.0
H67 H 0.17297 0.91948 0.36125 0.0
H68 H 0.11101 0.84356 0.42725 0.0
Cu69 Cu 0.90011 0.12526 0.34933 0.0
N70 N 0.87121 0.11487 0.34807 0.0
N71 N 0.83838 0.10579 0.33378 0.0
C72 C 0.85828 0.11519 0.32998 0.0
C73 C 0.83887 0.09928 0.35516 0.0
C74 C 0.85918 0.10497 0.36396 0.0
O75 O 0.90305 0.14711 0.32602 0.0
C76 C 0.93523 0.09953 0.33095 0.0
O77 O 0.93838 0.1164 0.31761 0.0
H78 H 0.86365 0.12168 0.31418 0.0
H79 H 0.86487 0.10193 0.38066 0.0
N80 N 0.90561 0.13799 0.37683 0.0
N81 N 0.92194 0.14569 0.40908 0.0
C82 C 0.92194 0.13257 0.39098 0.0
C83 C 0.89483 0.15502 0.38626 0.0
C84 C 0.9049 0.15985 0.40616 0.0
C85 C 0.91604 0.16366 0.32665 0.0
O86 O 0.92939 0.16615 0.34362 0.0
H87 H 0.93393 0.11967 0.38774 0.0
H88 H 0.88082 0.16347 0.379 0.0
O89 O 0.91986 0.10037 0.34529 0.0
H90 H 0.82553 0.09108 0.36384 0.0
H91 H 0.90001 0.17274 0.41759 0.0
Cu92 Cu 0.64887 0.09877 0.12889 0.0
N93 N 0.65082 0.12728 0.11753 0.0
N94 N 0.66579 0.15957 0.10762 0.0
C95 C 0.66966 0.13881 0.1149 0.0
C96 C 0.64359 0.16111 0.10559 0.0
C97 C 0.63439 0.1411 0.11168 0.0
O98 O 0.67204 0.09585 0.15077 0.0
C99 C 0.67125 0.0721 0.0975 0.0
O100 O 0.68925 0.08056 0.10628 0.0
H101 H 0.68583 0.1323 0.11902 0.0
H102 H 0.61697 0.13704 0.11221 0.0
N103 N 0.62136 0.09436 0.14202 0.0
N104 N 0.58915 0.07855 0.15103 0.0
C105 C 0.6076 0.07722 0.13845 0.0
C106 C 0.61139 0.10704 0.15734 0.0
C107 C 0.5915 0.09735 0.16292 0.0
C108 C 0.67226 0.08129 0.16594 0.0
O109 O 0.65636 0.06649 0.1668 0.0
H110 H 0.61112 0.06411 0.12678 0.0
H111 H 0.61826 0.12211 0.16412 0.0
O112 O 0.65245 0.07771 0.10509 0.0
H113 H 0.63463 0.17566 0.10021 0.0
H114 H 0.57994 0.10346 0.17515 0.0
Cu115 Cu 0.35251 0.9027 0.12785 0.0
N116 N 0.3479 0.87411 0.11739 0.0
N117 N 0.33118 0.84216 0.10912 0.0
C118 C 0.32986 0.86143 0.12044 0.0
C119 C 0.35091 0.84288 0.09863 0.0
C120 C 0.36113 0.86261 0.10372 0.0
O121 O 0.33069 0.90871 0.15071 0.0
C122 C 0.34694 0.9434 0.1046 0.0
O123 O 0.34717 0.95263 0.12428 0.0
H124 H 0.31599 0.86645 0.13058 0.0
H125 H 0.37686 0.86844 0.09747 0.0
N126 N 0.38141 0.90513 0.13852 0.0
N127 N 0.41403 0.91941 0.14831 0.0
C128 C 0.3933 0.92377 0.14125 0.0
C129 C 0.39504 0.88843 0.14413 0.0
C130 C 0.41524 0.89719 0.15009 0.0
C131 C 0.33537 0.91018 0.17119 0.0
O132 O 0.35607 0.90856 0.17757 0.0
H133 H 0.38712 0.94015 0.13752 0.0
H134 H 0.39066 0.87108 0.14365 0.0
O135 O 0.34872 0.9225 0.10294 0.0
H136 H 0.35726 0.83044 0.08743 0.0
H137 H 0.42969 0.88796 0.15527 0.0
Cu138 Cu 0.65006 0.90124 0.8767 0.0
N139 N 0.65403 0.87233 0.88658 0.0
N140 N 0.6704 0.84006 0.89394 0.0
C141 C 0.67315 0.86093 0.88647 0.0
C142 C 0.64872 0.8383 0.89899 0.0
C143 C 0.63868 0.85831 0.89454 0.0
O144 O 0.67176 0.90699 0.85373 0.0
C145 C 0.6725 0.92508 0.91034 0.0
O146 O 0.69028 0.91509 0.90281 0.0
H147 H 0.68865 0.86766 0.88052 0.0
H148 H 0.62138 0.8623 0.89676 0.0
N149 N 0.62137 0.90509 0.86591 0.0
N150 N 0.58906 0.9212 0.85791 0.0
C151 C 0.60959 0.92398 0.86632 0.0
C152 C 0.60791 0.88979 0.85695 0.0
C153 C 0.58797 0.89968 0.85198 0.0
C154 C 0.66854 0.9002 0.83406 0.0
O155 O 0.64996 0.89002 0.82927 0.0
H156 H 0.61584 0.93931 0.87315 0.0
H157 H 0.61229 0.87265 0.85426 0.0
O158 O 0.65392 0.92136 0.90122 0.0
H159 H 0.64075 0.82366 0.90553 0.0
H160 H 0.57386 0.89164 0.84444 0.0
Cu161 Cu 0.35189 0.09843 0.87114 0.0
N162 N 0.34822 0.12677 0.8826 0.0
N163 N 0.332 0.15845 0.89249 0.0
C164 C 0.32927 0.13844 0.88293 0.0
C165 C 0.35354 0.15936 0.89835 0.0
C166 C 0.36349 0.13974 0.89228 0.0
O167 O 0.32946 0.09397 0.84851 0.0
C168 C 0.33226 0.07711 0.9081 0.0
O169 O 0.3162 0.09151 0.90536 0.0
H170 H 0.31387 0.13241 0.87607 0.0
H171 H 0.38062 0.13519 0.89479 0.0
N172 N 0.38046 0.09534 0.85994 0.0
N173 N 0.41342 0.08034 0.85243 0.0
C174 C 0.39313 0.07708 0.86125 0.0
C175 C 0.39308 0.11075 0.85 0.0
C176 C 0.41343 0.10154 0.84532 0.0
C177 C 0.33366 0.0931 0.82789 0.0
O178 O 0.35428 0.09393 0.82113 0.0
H179 H 0.38771 0.06192 0.86908 0.0
H180 H 0.38786 0.12753 0.84656 0.0
O181 O 0.34856 0.07717 0.8948 0.0
H182 H 0.36146 0.17307 0.90673 0.0
H183 H 0.42709 0.10983 0.83725 0.0
Cu184 Cu 0.12558 0.65169 0.104 0.0
N185 N 0.11525 0.65287 0.13292 0.0
N186 N 0.10613 0.66706 0.16575 0.0
C187 C 0.11782 0.66994 0.14696 0.0
C188 C 0.09584 0.64736 0.16346 0.0
C189 C 0.10156 0.63861 0.14316 0.0
O190 O 0.14765 0.67478 0.10059 0.0
C191 C 0.10228 0.65834 0.06385 0.0
O192 O 0.12182 0.65633 0.05454 0.0
H193 H 0.12715 0.6847 0.14295 0.0
H194 H 0.09556 0.62333 0.136 0.0
N195 N 0.13736 0.62376 0.09813 0.0
N196 N 0.1436 0.59119 0.08162 0.0
C197 C 0.13068 0.60946 0.08242 0.0
C198 C 0.15493 0.61423 0.10786 0.0
C199 C 0.15886 0.59419 0.09771 0.0
C200 C 0.1655 0.6728 0.08961 0.0
O201 O 0.1695 0.65434 0.07886 0.0
H202 H 0.11664 0.61253 0.07178 0.0
H203 H 0.16452 0.62164 0.12103 0.0
O204 O 0.10064 0.65711 0.08478 0.0
H205 H 0.08469 0.64003 0.17541 0.0
H206 H 0.17236 0.58309 0.10155 0.0
Cu207 Cu 0.12757 0.34978 0.90653 0.0
N208 N 0.11876 0.34565 0.87732 0.0
N209 N 0.11187 0.32885 0.84512 0.0
C210 C 0.11978 0.32656 0.8659 0.0
C211 C 0.10572 0.35029 0.84347 0.0
C212 C 0.10996 0.36059 0.86339 0.0
O213 O 0.15033 0.32811 0.91312 0.0
C214 C 0.09025 0.32851 0.9255 0.0
O215 O 0.09479 0.31248 0.91153 0.0
H216 H 0.12634 0.31135 0.87272 0.0
H217 H 0.10671 0.37771 0.86751 0.0
N218 N 0.13784 0.37861 0.91072 0.0
N219 N 0.1435 0.41152 0.92655 0.0
C220 C 0.13436 0.39125 0.92872 0.0
C221 C 0.14938 0.39137 0.89657 0.0
C222 C 0.15306 0.41165 0.90637 0.0
C223 C 0.17003 0.33062 0.90616 0.0
O224 O 0.17523 0.34868 0.89527 0.0
H225 H 0.12533 0.38566 0.94315 0.0
H226 H 0.15454 0.38634 0.88018 0.0
O227 O 0.10249 0.34561 0.92593 0.0
H228 H 0.09825 0.35789 0.82908 0.0
H229 H 0.1616 0.42558 0.89903 0.0
Cu230 Cu 0.87547 0.64855 0.89868 0.0
N231 N 0.88369 0.65277 0.86934 0.0
N232 N 0.89003 0.66989 0.83727 0.0
C233 C 0.87948 0.67077 0.85692 0.0
C234 C 0.90124 0.65057 0.83732 0.0
C235 C 0.89725 0.64001 0.85715 0.0
O236 O 0.85275 0.67004 0.90582 0.0
C237 C 0.90101 0.65704 0.93717 0.0
O238 O 0.88178 0.65931 0.94706 0.0
H239 H 0.86981 0.68473 0.86264 0.0
H240 H 0.90432 0.62452 0.86265 0.0
N241 N 0.86521 0.61974 0.90278 0.0
N242 N 0.85808 0.58711 0.91869 0.0
C243 C 0.86589 0.60786 0.92162 0.0
C244 C 0.8567 0.60611 0.88739 0.0
C245 C 0.85226 0.58597 0.89714 0.0
C246 C 0.83358 0.66794 0.89739 0.0
O247 O 0.82939 0.65063 0.88493 0.0
H248 H 0.87259 0.61415 0.93698 0.0
H249 H 0.85413 0.61047 0.87022 0.0
O250 O 0.90159 0.65278 0.91659 0.0
H251 H 0.91189 0.64472 0.82415 0.0
H252 H 0.84526 0.57165 0.88898 0.0
Cu253 Cu 0.87137 0.35076 0.09906 0.0
N254 N 0.88115 0.34728 0.12804 0.0
N255 N 0.89021 0.33118 0.16006 0.0
C256 C 0.88149 0.3283 0.13967 0.0
C257 C 0.89553 0.35286 0.1612 0.0
C258 C 0.88994 0.36274 0.14141 0.0
O259 O 0.84839 0.32902 0.09343 0.0
C260 C 0.89966 0.32934 0.06797 0.0
O261 O 0.88562 0.31279 0.06925 0.0
H262 H 0.87589 0.31263 0.13305 0.0
H263 H 0.89222 0.37994 0.13701 0.0
N264 N 0.86064 0.3794 0.09486 0.0
N265 N 0.85414 0.41219 0.07897 0.0
C266 C 0.86272 0.39168 0.07639 0.0
C267 C 0.85044 0.3925 0.10967 0.0
C268 C 0.84636 0.41271 0.09992 0.0
C269 C 0.82948 0.3308 0.1025 0.0
O270 O 0.82538 0.34797 0.11518 0.0
H271 H 0.87093 0.38583 0.0616 0.0
H272 H 0.84649 0.38776 0.12647 0.0
O273 O 0.89632 0.34668 0.0794 0.0
H274 H 0.90281 0.36109 0.17534 0.0
H275 H 0.83826 0.42666 0.1077 0.0
H276 H 0.93504 0.18024 0.43447 0.0
H277 H 0.96158 0.17943 0.465 0.0
H278 H 0.97065 0.10929 0.45546 0.0
H279 H 0.94388 0.10994 0.42502 0.0
H280 H 0.96541 0.12155 0.50016 0.0
H281 H 0.009 0.14286 0.43691 0.0
H282 H 0.01787 0.1655 0.40414 0.0
H283 H 0.02165 0.22363 0.44484 0.0
H284 H 0.01249 0.20137 0.47782 0.0
H285 H 0.05916 0.11132 0.57013 0.0
H286 H 0.03334 0.10974 0.53894 0.0
H287 H 0.03266 0.18117 0.53607 0.0
H288 H 0.05942 0.18256 0.56644 0.0
H289 H 0.03371 0.16697 0.49678 0.0
H290 H 0.98899 0.14752 0.55964 0.0
H291 H 0.97897 0.1262 0.59298 0.0
H292 H 0.97556 0.06666 0.55435 0.0
H293 H 0.98583 0.08758 0.52083 0.0
C294 C 0.94251 0.16461 0.43898 0.0
C295 C 0.93736 0.14516 0.42728 0.0
C296 C 0.9578 0.1642 0.45633 0.0
C297 C 0.96819 0.14433 0.46237 0.0
C298 C 0.96284 0.1248 0.45101 0.0
C299 C 0.94768 0.12523 0.43352 0.0
C300 C 0.98478 0.14402 0.48047 0.0
C301 C 0.98051 0.13124 0.49936 0.0
C302 C 0.00416 0.1571 0.47959 0.0
C303 C 0.00987 0.17047 0.4598 0.0
C304 C 0.01156 0.16049 0.43884 0.0
C305 C 0.01667 0.17325 0.42024 0.0
C306 C 0.02027 0.19599 0.4224 0.0
C307 C 0.01884 0.20601 0.44319 0.0
C308 C 0.01371 0.19333 0.46185 0.0
C309 C 0.0534 0.12662 0.56279 0.0
C310 C 0.06117 0.14706 0.57065 0.0
C311 C 0.03856 0.12575 0.54506 0.0
C312 C 0.03061 0.14536 0.53533 0.0
C313 C 0.03849 0.16579 0.5432 0.0
C314 C 0.05375 0.16662 0.56056 0.0
C315 C 0.01432 0.14468 0.51682 0.0
C316 C 0.01865 0.15726 0.49773 0.0
C317 C 0.99482 0.13164 0.51768 0.0
C318 C 0.98838 0.11908 0.53777 0.0
C319 C 0.98622 0.12986 0.55829 0.0
C320 C 0.98049 0.11785 0.57721 0.0
C321 C 0.97669 0.09508 0.5758 0.0
C322 C 0.97853 0.08429 0.55543 0.0
C323 C 0.98429 0.09622 0.53646 0.0
H324 H 0.97228 0.08581 0.59047 0.0
H325 H 0.02422 0.20585 0.40797 0.0
H326 H 0.0378 0.85915 0.40799 0.0
H327 H 0.01032 0.86006 0.43757 0.0
H328 H 0.06252 0.8601 0.48625 0.0
H329 H 0.09014 0.85917 0.45669 0.0
H330 H 0.03025 0.83229 0.49799 0.0
H331 H 0.03431 0.90758 0.47355 0.0
H332 H 0.03369 0.93803 0.44638 0.0
H333 H 0.96678 0.92167 0.42901 0.0
H334 H 0.9671 0.8909 0.45586 0.0
H335 H 0.9637 0.86437 0.58942 0.0
H336 H 0.99165 0.86423 0.56022 0.0
H337 H 0.94026 0.86035 0.51086 0.0
H338 H 0.91216 0.86096 0.54 0.0
H339 H 0.97239 0.89054 0.49987 0.0
H340 H 0.96879 0.81491 0.52428 0.0
H341 H 0.96968 0.78465 0.55164 0.0
H342 H 0.03619 0.8022 0.56944 0.0
H343 H 0.03558 0.83279 0.54239 0.0
C344 C 0.04347 0.85953 0.42497 0.0
C345 C 0.0662 0.85925 0.42994 0.0
C346 C 0.02772 0.86003 0.44188 0.0
C347 C 0.03435 0.86049 0.46414 0.0
C348 C 0.05702 0.85978 0.46919 0.0
C349 C 0.07279 0.85919 0.45227 0.0
C350 C 0.01763 0.86162 0.48212 0.0
C351 C 0.01781 0.84522 0.49857 0.0
C352 C 0.0011 0.87823 0.48265 0.0
C353 C 0.00081 0.8968 0.46657 0.0
C354 C 0.01952 0.91037 0.46381 0.0
C355 C 0.01921 0.9277 0.44849 0.0
C356 C 1.00023 0.93174 0.43593 0.0
C357 C 0.98148 0.9185 0.43873 0.0
C358 C 0.98171 0.90112 0.45401 0.0
C359 C 0.95831 0.86371 0.57237 0.0
C360 C 0.93566 0.86261 0.56706 0.0
C361 C 0.97432 0.86344 0.55569 0.0
C362 C 0.96804 0.86205 0.53338 0.0
C363 C 0.94547 0.86135 0.52798 0.0
C364 C 0.92943 0.86152 0.54466 0.0
C365 C 0.98502 0.8612 0.51566 0.0
C366 C 0.98488 0.87766 0.49928 0.0
C367 C 0.00163 0.8447 0.51524 0.0
C368 C 0.00206 0.82628 0.53148 0.0
C369 C 0.98354 0.81244 0.53416 0.0
C370 C 0.98401 0.7952 0.54959 0.0
C371 C 0.00296 0.79154 0.56231 0.0
C372 C 0.02151 0.80508 0.5596 0.0
C373 C 0.02112 0.82236 0.54421 0.0
H374 H 0.00329 0.77818 0.57424 0.0
H375 H 1.00003 0.94517 0.42408 0.0
H376 H 0.4101 0.96106 0.16415 0.0
H377 H 0.43962 0.98856 0.16798 0.0
H378 H 0.48701 0.94103 0.14358 0.0
H379 H 0.45763 0.91337 0.14035 0.0
H380 H 0.50463 0.96454 0.1761 0.0
H381 H 0.462 0.98053 0.11067 0.0
H382 H 0.42688 0.98802 0.09144 0.0
H383 H 0.41897 0.04817 0.12842 0.0
H384 H 0.4536 0.04052 0.14865 0.0
H385 H 0.59019 0.035 0.13981 0.0
H386 H 0.55972 0.00866 0.14137 0.0
H387 H 0.51666 0.05965 0.16666 0.0
H388 H 0.5469 0.08641 0.16433 0.0
H389 H 0.49597 0.03557 0.13577 0.0
H390 H 0.53821 0.02012 0.20098 0.0
H391 H 0.57187 0.01165 0.22243 0.0
H392 H 0.58025 0.95113 0.18615 0.0
H393 H 0.5468 0.95939 0.16425 0.0
C394 C 0.42684 0.95651 0.1597 0.0
C395 C 0.43156 0.93516 0.15177 0.0
C396 C 0.44369 0.9722 0.1619 0.0
C397 C 0.46549 0.967 0.15567 0.0
C398 C 0.47034 0.94544 0.14847 0.0
C399 C 0.45355 0.92965 0.14661 0.0
C400 C 0.48307 0.9842 0.15565 0.0
C401 C 0.50282 0.97997 0.1671 0.0
C402 C 0.4805 0.0046 0.14433 0.0
C403 C 0.46029 0.00981 0.13136 0.0
C404 C 0.45272 0.9953 0.11481 0.0
C405 C 0.43285 0.99953 0.10378 0.0
C406 C 0.42068 0.01857 0.1087 0.0
C407 C 0.42839 0.03341 0.12466 0.0
C408 C 0.4481 0.02908 0.13598 0.0
C409 C 0.57423 0.04076 0.14548 0.0
C410 C 0.5711 0.06291 0.15198 0.0
C411 C 0.55684 0.02557 0.1466 0.0
C412 C 0.53597 0.03209 0.15445 0.0
C413 C 0.53266 0.05422 0.16067 0.0
C414 C 0.55004 0.06946 0.1595 0.0
C415 C 0.51763 0.01579 0.15604 0.0
C416 C 0.49774 0.02018 0.14486 0.0
C417 C 0.52004 0.99555 0.16761 0.0
C418 C 0.5401 0.99047 0.18085 0.0
C419 C 0.54732 0.00508 0.19746 0.0
C420 C 0.56634 1.00031 0.20972 0.0
C421 C 0.57821 0.98089 0.20562 0.0
C422 C 0.57105 0.96618 0.18929 0.0
C423 C 0.55204 0.97088 0.17697 0.0
H424 H 0.59294 0.97723 0.21513 0.0
H425 H 0.4053 0.02183 0.10011 0.0
H426 H 0.54474 0.91398 0.85716 0.0
H427 H 0.51553 0.94174 0.85457 0.0
H428 H 0.56464 0.99348 0.85235 0.0
H429 H 0.594 0.96577 0.85485 0.0
H430 H 0.532 0.00384 0.88045 0.0
H431 H 0.53668 0.97791 0.80572 0.0
H432 H 0.53734 0.9501 0.77587 0.0
H433 H 0.47184 0.929 0.79355 0.0
H434 H 0.4709 0.95649 0.82372 0.0
H435 H 0.4574 0.08947 0.85038 0.0
H436 H 0.48782 0.06287 0.84973 0.0
H437 H 0.44102 0.00905 0.85251 0.0
H438 H 0.41049 0.03551 0.85241 0.0
H439 H 0.4733 1.00057 0.82314 0.0
H440 H 0.46917 0.02561 0.89857 0.0
H441 H 0.46851 0.0533 0.92854 0.0
H442 H 0.53309 0.076 0.90949 0.0
H443 H 0.534 0.04862 0.8792 0.0
C444 C 0.54938 0.93122 0.85585 0.0
C445 C 0.57177 0.9376 0.85615 0.0
C446 C 0.53264 0.9471 0.8544 0.0
C447 C 0.53789 0.96969 0.85301 0.0
C448 C 0.5602 0.97615 0.85341 0.0
C449 C 0.57697 0.96027 0.85492 0.0
C450 C 0.52009 0.98659 0.85162 0.0
C451 C 0.51937 0.00333 0.8677 0.0
C452 C 0.50332 0.98564 0.83529 0.0
C453 C 0.50381 0.96913 0.81711 0.0
C454 C 0.52248 0.96723 0.80336 0.0
C455 C 0.5229 0.95154 0.78636 0.0
C456 C 0.50467 0.93776 0.78285 0.0
C457 C 0.48596 0.93967 0.7963 0.0
C458 C 0.48547 0.95532 0.81334 0.0
C459 C 0.45353 0.07199 0.85059 0.0
C460 C 0.43144 0.06468 0.85157 0.0
C461 C 0.47097 0.05679 0.85043 0.0
C462 C 0.46671 0.03397 0.85138 0.0
C463 C 0.44471 0.02659 0.85188 0.0
C464 C 0.42726 0.04177 0.85203 0.0
C465 C 0.48517 0.01775 0.85202 0.0
C466 C 0.486 0.00113 0.83582 0.0
C467 C 0.50204 0.0188 0.86824 0.0
C468 C 0.50155 0.03523 0.88648 0.0
C469 C 0.48315 0.03663 0.90066 0.0
C470 C 0.48275 0.05224 0.91772 0.0
C471 C 0.50072 0.06644 0.92088 0.0
C472 C 0.51917 0.06501 0.90701 0.0
C473 C 0.51964 0.04944 0.8899 0.0
H474 H 0.50038 0.07852 0.9341 0.0
H475 H 0.50502 0.92562 0.76968 0.0
H476 H 0.11008 0.42131 0.95465 0.0
H477 H 0.10833 0.45228 0.98066 0.0
H478 H 0.17367 0.47288 0.96045 0.0
H479 H 0.1751 0.44231 0.93395 0.0
H480 H 0.13003 0.4631 0.01531 0.0
H481 H 0.17989 0.52784 0.96474 0.0
H482 H 0.18705 0.53755 0.92574 0.0
H483 H 0.12546 0.50772 0.90663 0.0
H484 H 0.1178 0.4981 0.94554 0.0
H485 H 0.16304 0.55062 0.08514 0.0
H486 H 0.16157 0.52046 0.05854 0.0
H487 H 0.11846 0.55909 0.01678 0.0
H488 H 0.12078 0.58983 0.04263 0.0
H489 H 0.1478 0.53988 0.9923 0.0
H490 H 0.0989 0.51549 0.04905 0.0
H491 H 0.087 0.50663 0.08705 0.0
H492 H 0.13794 0.45732 0.09191 0.0
H493 H 0.15034 0.46611 0.05402 0.0
C494 C 0.12407 0.43243 0.95582 0.0
C495 C 0.14268 0.42948 0.9422 0.0
C496 C 0.12306 0.45014 0.97067 0.0
C497 C 0.14073 0.46517 0.97235 0.0
C498 C 0.15957 0.4619 0.9591 0.0
C499 C 0.16042 0.4444 0.944 0.0
C500 C 0.1395 0.4841 0.98808 0.0
C501 C 0.1339 0.47988 0.01024 0.0
C502 C 0.14405 0.50613 0.98146 0.0
C503 C 0.14839 0.51207 0.95803 0.0
C504 C 0.16784 0.52344 0.95223 0.0
C505 C 0.17199 0.52891 0.93013 0.0
C506 C 0.15675 0.52319 0.91371 0.0
C507 C 0.13729 0.51207 0.91935 0.0
C508 C 0.13304 0.50658 0.94142 0.0
C509 C 0.15337 0.55291 0.07027 0.0
C510 C 0.14205 0.57289 0.06622 0.0
C511 C 0.15234 0.53545 0.05513 0.0
C512 C 0.13968 0.53734 0.03575 0.0
C513 C 0.12832 0.55718 0.03164 0.0
C514 C 0.12951 0.57474 0.04665 0.0
C515 C 0.13865 0.51881 0.01956 0.0
C516 C 0.14388 0.5231 0.99734 0.0
C517 C 0.13308 0.49697 0.02597 0.0
C518 C 0.12567 0.4916 0.04876 0.0
C519 C 0.10767 0.50288 0.05828 0.0
C520 C 0.10081 0.49785 0.07979 0.0
C521 C 0.11174 0.48146 0.09191 0.0
C522 C 0.12951 0.47003 0.08251 0.0
C523 C 0.13644 0.47501 0.06101 0.0
H524 H 0.1064 0.47759 0.10856 0.0
H525 H 0.16001 0.52743 0.89661 0.0
H526 H 0.8544 0.59162 0.96321 0.0
H527 H 0.85329 0.56202 0.99073 0.0
H528 H 0.85808 0.51334 0.93875 0.0
H529 H 0.85921 0.54284 0.91115 0.0
H530 H 0.82754 0.50153 0.96859 0.0
H531 H 0.90293 0.52683 0.97068 0.0
H532 H 0.93266 0.55457 0.97418 0.0
H533 H 0.91046 0.57065 0.03973 0.0
H534 H 0.88039 0.54321 0.0365 0.0
H535 H 0.85595 0.40854 0.0342 0.0
H536 H 0.85628 0.43862 0.00726 0.0
H537 H 0.85162 0.4863 0.06016 0.0
H538 H 0.85209 0.45634 0.08727 0.0
H539 H 0.88169 0.49895 0.03024 0.0
H540 H 0.80658 0.47342 0.02837 0.0
H541 H 0.77672 0.44584 0.02487 0.0
H542 H 0.79827 0.43031 0.95898 0.0
H543 H 0.82847 0.4576 0.9622 0.0
C544 C 0.85538 0.57464 0.95763 0.0
C545 C 0.85699 0.56965 0.93495 0.0
C546 C 0.85472 0.55771 0.97339 0.0
C547 C 0.85587 0.53545 0.96683 0.0
C548 C 0.85714 0.53039 0.9442 0.0
C549 C 0.85773 0.5473 0.92843 0.0
C550 C 0.85575 0.51739 0.98352 0.0
C551 C 0.83956 0.50081 0.9819 0.0
C552 C 0.8711 0.51674 0.00122 0.0
C553 C 0.88928 0.53312 0.00326 0.0
C554 C 0.90429 0.53639 0.98578 0.0
C555 C 0.92122 0.55204 0.98772 0.0
C556 C 0.92341 0.56441 0.00714 0.0
C557 C 0.90872 0.56108 0.02468 0.0
C558 C 0.89175 0.54547 0.02282 0.0
C559 C 0.85518 0.4254 0.04016 0.0
C560 C 0.85395 0.42995 0.06297 0.0
C561 C 0.85514 0.4426 0.0247 0.0
C562 C 0.8537 0.46473 0.03167 0.0
C563 C 0.85265 0.46935 0.05439 0.0
C564 C 0.85271 0.45216 0.06988 0.0
C565 C 0.85352 0.48305 0.01527 0.0
C566 C 0.86965 0.49969 0.01694 0.0
C567 C 0.83812 0.48376 0.99763 0.0
C568 C 0.81992 0.46741 0.99561 0.0
C569 C 0.80506 0.46401 0.0132 0.0
C570 C 0.78805 0.44845 0.01125 0.0
C571 C 0.78563 0.43629 0.99174 0.0
C572 C 0.80018 0.43972 0.9741 0.0
C573 C 0.81723 0.45524 0.97596 0.0
H574 H 0.77245 0.42425 0.99026 0.0
H575 H 0.93652 0.57652 0.00861 0.0
H576 H 0.15647 0.11223 0.71101 0.0
H577 H 0.18576 0.10822 0.73836 0.0
H578 H 0.23449 0.1064 0.6863 0.0
H579 H 0.2053 0.1109 0.65869 0.0
H580 H 0.24075 0.07356 0.71752 0.0
H581 H 0.22936 0.1522 0.71627 0.0
H582 H 0.20747 0.18659 0.71801 0.0
H583 H 0.18649 0.17033 0.78392 0.0
H584 H 0.20812 0.13571 0.7825 0.0
H585 H 0.33689 0.0905 0.78286 0.0
H586 H 0.30702 0.09288 0.75578 0.0
H587 H 0.25926 0.09792 0.80859 0.0
H588 H 0.28911 0.0958 0.83586 0.0
H589 H 0.25207 0.12882 0.7772 0.0
H590 H 0.26392 0.05058 0.77892 0.0
H591 H 0.28549 0.01599 0.77722 0.0
H592 H 0.30509 0.03106 0.71061 0.0
H593 H 0.28388 0.06592 0.71202 0.0
C594 C 0.17338 0.1113 0.70526 0.0
C595 C 0.17843 0.11204 0.68252 0.0
C596 C 0.19013 0.1089 0.72099 0.0
C597 C 0.2123 0.10719 0.71436 0.0
C598 C 0.21745 0.10766 0.69174 0.0
C599 C 0.20071 0.11017 0.67597 0.0
C600 C 0.23005 0.10472 0.7311 0.0
C601 C 0.24346 0.08578 0.7304 0.0
C602 C 0.23313 0.12039 0.74823 0.0
C603 C 0.22018 0.14125 0.74919 0.0
C604 C 0.21994 0.15587 0.73107 0.0
C605 C 0.2076 0.17542 0.73202 0.0
C606 C 0.19551 0.1806 0.75103 0.0
C607 C 0.19582 0.16628 0.76918 0.0
C608 C 0.20815 0.1467 0.76833 0.0
C609 C 0.32003 0.09194 0.78876 0.0
C610 C 0.3154 0.09295 0.81154 0.0
C611 C 0.30295 0.09322 0.77323 0.0
C612 C 0.28089 0.09543 0.78016 0.0
C613 C 0.27617 0.09622 0.80289 0.0
C614 C 0.29325 0.0949 0.81845 0.0
C615 C 0.26286 0.09765 0.76364 0.0
C616 C 0.24938 0.11656 0.76436 0.0
C617 C 0.25968 0.08192 0.74656 0.0
C618 C 0.27248 0.06098 0.74566 0.0
C619 C 0.27299 0.04662 0.76397 0.0
C620 C 0.28512 0.02694 0.76305 0.0
C621 C 0.2967 0.02136 0.74384 0.0
C622 C 0.29614 0.03542 0.72549 0.0
C623 C 0.28404 0.05513 0.72633 0.0
H624 H 0.30608 0.00611 0.74315 0.0
H625 H 0.18596 0.19574 0.75173 0.0
H626 H 0.71253 0.90926 0.84015 0.0
H627 H 0.74165 0.90963 0.81203 0.0
H628 H 0.69297 0.89667 0.76139 0.0
H629 H 0.66398 0.89554 0.78948 0.0
H630 H 0.7265 0.87057 0.7558 0.0
H631 H 0.71862 0.9488 0.76884 0.0
H632 H 0.71747 0.9828 0.79139 0.0
H633 H 0.78427 0.97135 0.81272 0.0
H634 H 0.78572 0.93713 0.79051 0.0
H635 H 0.79222 0.89232 0.66147 0.0
H636 H 0.76412 0.89536 0.6904 0.0
H637 H 0.81531 0.9009 0.7398 0.0
H638 H 0.84352 0.8984 0.71091 0.0
H639 H 0.78158 0.93074 0.74657 0.0
H640 H 0.78938 0.85278 0.73349 0.0
H641 H 0.7907 0.8189 0.71077 0.0
H642 H 0.72388 0.83018 0.68942 0.0
H643 H 0.72226 0.8643 0.7118 0.0
C644 C 0.70802 0.90672 0.82299 0.0
C645 C 0.68597 0.90234 0.81702 0.0
C646 C 0.72468 0.90701 0.80691 0.0
C647 C 0.71951 0.90337 0.78452 0.0
C648 C 0.6974 0.89946 0.77854 0.0
C649 C 0.68083 0.89887 0.79462 0.0
C650 C 0.73715 0.9026 0.76738 0.0
C651 C 0.73831 0.88392 0.7536 0.0
C652 C 0.75302 0.91967 0.76488 0.0
C653 C 0.7522 0.94029 0.77818 0.0
C654 C 0.73301 0.95345 0.77847 0.0
C655 C 0.73231 0.97278 0.79117 0.0
C656 C 0.75076 0.9792 0.80353 0.0
C657 C 0.76998 0.96634 0.80316 0.0
C658 C 0.77076 0.94699 0.7905 0.0
C659 C 0.79752 0.89443 0.67844 0.0
C660 C 0.82014 0.895 0.68386 0.0
C661 C 0.78144 0.89599 0.69498 0.0
C662 C 0.78765 0.89813 0.71726 0.0
C663 C 0.81018 0.89919 0.72271 0.0
C664 C 0.82627 0.89755 0.70619 0.0
C665 C 0.77061 0.89891 0.7349 0.0
C666 C 0.76967 0.91749 0.7488 0.0
C667 C 0.75489 0.88178 0.73752 0.0
C668 C 0.75577 0.8612 0.72415 0.0
C669 C 0.77503 0.84812 0.72382 0.0
C670 C 0.77582 0.82886 0.71103 0.0
C671 C 0.75741 0.82242 0.69862 0.0
C672 C 0.73814 0.8352 0.69902 0.0
C673 C 0.73726 0.85449 0.71177 0.0
H674 H 0.75805 0.80751 0.68872 0.0
H675 H 0.75019 0.99417 0.81335 0.0
H676 H 0.33966 0.91699 0.2157 0.0
H677 H 0.31037 0.91767 0.24353 0.0
H678 H 0.26145 0.9077 0.1925 0.0
H679 H 0.29063 0.9075 0.16448 0.0
H680 H 0.24706 0.9371 0.22194 0.0
H681 H 0.27958 0.86467 0.22509 0.0
H682 H 0.30993 0.83761 0.22858 0.0
H683 H 0.32534 0.8627 0.29325 0.0
H684 H 0.29525 0.89012 0.29001 0.0
H685 H 0.15878 0.89773 0.28834 0.0
H686 H 0.1886 0.90152 0.26144 0.0
H687 H 0.23499 0.9136 0.31431 0.0
H688 H 0.20528 0.90913 0.34145 0.0
H689 H 0.25114 0.88429 0.28469 0.0
H690 H 0.21681 0.95586 0.28167 0.0
H691 H 0.18572 0.98199 0.27776 0.0
H692 H 0.17284 0.95748 0.21233 0.0
H693 H 0.20368 0.93098 0.21596 0.0
C694 C 0.32267 0.91508 0.21036 0.0
C695 C 0.31751 0.91204 0.18787 0.0
C696 C 0.30593 0.91538 0.22631 0.0
C697 C 0.28373 0.91235 0.22016 0.0
C698 C 0.27847 0.91001 0.19765 0.0
C699 C 0.29518 0.90986 0.18165 0.0
C700 C 0.26606 0.9111 0.2372 0.0
C701 C 0.24783 0.92539 0.23553 0.0
C702 C 0.26727 0.89611 0.2552 0.0
C703 C 0.28532 0.87959 0.25721 0.0
C704 C 0.28955 0.86453 0.23998 0.0
C705 C 0.30669 0.84911 0.24192 0.0
C706 C 0.31959 0.84848 0.2611 0.0
C707 C 0.31535 0.86323 0.27839 0.0
C708 C 0.29825 0.8787 0.27652 0.0
C709 C 0.17532 0.90103 0.29431 0.0
C710 C 0.17961 0.90307 0.31711 0.0
C711 C 0.19233 0.90344 0.27886 0.0
C712 C 0.21399 0.9081 0.28583 0.0
C713 C 0.21837 0.91011 0.30856 0.0
C714 C 0.20134 0.90771 0.32404 0.0
C715 C 0.23213 0.91027 0.26942 0.0
C716 C 0.25043 0.8961 0.27118 0.0
C717 C 0.2309 0.92526 0.25145 0.0
C718 C 0.21245 0.9413 0.24916 0.0
C719 C 0.20725 0.95593 0.26651 0.0
C720 C 0.18969 0.97083 0.26433 0.0
C721 C 0.17728 0.97136 0.24483 0.0
C722 C 0.18246 0.95704 0.22743 0.0
C723 C 0.19999 0.94209 0.22953 0.0
H724 H 0.16369 0.98291 0.24318 0.0
H725 H 0.33285 0.83653 0.26257 0.0
H726 H 0.67788 0.05328 0.20123 0.0
H727 H 0.70603 0.05558 0.23027 0.0
H728 H 0.73391 0.1133 0.19881 0.0
H729 H 0.70619 0.1109 0.1696 0.0
H730 H 0.76576 0.08611 0.21187 0.0
H731 H 0.70025 0.11745 0.24456 0.0
H732 H 0.66116 0.11788 0.25625 0.0
H733 H 0.67272 0.06173 0.29824 0.0
H734 H 0.71184 0.06079 0.28656 0.0
H735 H 0.82945 0.13144 0.29816 0.0
H736 H 0.80098 0.12533 0.27021 0.0
H737 H 0.7787 0.06732 0.30534 0.0
H738 H 0.80725 0.07336 0.33345 0.0
H739 H 0.74418 0.09196 0.29088 0.0
H740 H 0.81065 0.06223 0.25928 0.0
H741 H 0.84978 0.0628 0.24776 0.0
H742 H 0.8364 0.1169 0.20366 0.0
H743 H 0.79723 0.11685 0.21515 0.0
C744 C 0.69007 0.0664 0.20044 0.0
C745 C 0.68972 0.08195 0.18313 0.0
C746 C 0.70608 0.06776 0.21711 0.0
C747 C 0.72191 0.08478 0.21687 0.0
C748 C 0.72185 0.10004 0.19936 0.0
C749 C 0.70594 0.09866 0.18268 0.0
C750 C 0.73853 0.0869 0.23485 0.0
C751 C 0.76102 0.0876 0.22913 0.0
C752 C 0.73239 0.08833 0.25742 0.0
C753 C 0.7089 0.0889 0.2645 0.0
C754 C 0.69441 0.10508 0.25615 0.0
C755 C 0.67226 0.10544 0.2628 0.0
C756 C 0.66444 0.0898 0.27793 0.0
C757 C 0.67879 0.07381 0.28649 0.0
C758 C 0.70095 0.07336 0.27987 0.0
C759 C 0.81861 0.1173 0.2999 0.0
C760 C 0.8208 0.10276 0.31793 0.0
C761 C 0.8023 0.11384 0.28391 0.0
C762 C 0.78796 0.09564 0.28547 0.0
C763 C 0.78965 0.08143 0.30377 0.0
C764 C 0.80593 0.08494 0.31986 0.0
C765 C 0.77137 0.09142 0.26785 0.0
C766 C 0.74891 0.09031 0.27364 0.0
C767 C 0.77752 0.08971 0.24531 0.0
C768 C 0.80104 0.08964 0.23822 0.0
C769 C 0.81608 0.07434 0.24724 0.0
C770 C 0.83827 0.07456 0.24069 0.0
C771 C 0.84558 0.08991 0.22502 0.0
C772 C 0.83071 0.10503 0.21581 0.0
C773 C 0.80851 0.1049 0.22231 0.0
H774 H 0.86277 0.09005 0.21998 0.0
H775 H 0.64729 0.09011 0.28306 0.0
H776 H 0.70845 0.15432 0.09505 0.0
H777 H 0.73652 0.18319 0.09137 0.0
H778 H 0.68811 0.23263 0.10895 0.0
H779 H 0.65991 0.2038 0.11244 0.0
H780 H 0.7134 0.24728 0.07626 0.0
H781 H 0.726 0.21305 0.14671 0.0
H782 H 0.73265 0.18207 0.17243 0.0
H783 H 0.79319 0.16653 0.13865 0.0
H784 H 0.78673 0.19724 0.11251 0.0
H785 H 0.7856 0.33296 0.11282 0.0
H786 H 0.75811 0.30338 0.11036 0.0
H787 H 0.80771 0.25915 0.08435 0.0
H788 H 0.83535 0.28877 0.08658 0.0
H789 H 0.78287 0.24126 0.11961 0.0
H790 H 0.77038 0.2777 0.05026 0.0
H791 H 0.76325 0.30956 0.0258 0.0
H792 H 0.70189 0.32207 0.05936 0.0
H793 H 0.70881 0.29046 0.08426 0.0
C794 C 0.7038 0.17133 0.09817 0.0
C795 C 0.68199 0.17675 0.10422 0.0
C796 C 0.71986 0.18783 0.09605 0.0
C797 C 0.71453 0.21006 0.10024 0.0
C798 C 0.69262 0.2156 0.10565 0.0
C799 C 0.6765 0.19911 0.10761 0.0
C800 C 0.73187 0.22747 0.09945 0.0
C801 C 0.72848 0.24606 0.08592 0.0
C802 C 0.75177 0.2257 0.11173 0.0
C803 C 0.75576 0.20729 0.1275 0.0
C804 C 0.74065 0.20292 0.14466 0.0
C805 C 0.74439 0.18543 0.15933 0.0
C806 C 0.7633 0.1723 0.15714 0.0
C807 C 0.77853 0.17669 0.1403 0.0
C808 C 0.77484 0.19414 0.12556 0.0
C809 C 0.79065 0.31699 0.10643 0.0
C810 C 0.81265 0.3132 0.09988 0.0
C811 C 0.7749 0.30013 0.10497 0.0
C812 C 0.78087 0.27913 0.09708 0.0
C813 C 0.80279 0.27528 0.09045 0.0
C814 C 0.81852 0.29223 0.09165 0.0
C815 C 0.76432 0.26103 0.09651 0.0
C816 C 0.76785 0.24236 0.10984 0.0
C817 C 0.74447 0.26284 0.08425 0.0
C818 C 0.74022 0.28183 0.06926 0.0
C819 C 0.75546 0.28736 0.05256 0.0
C820 C 0.75143 0.30535 0.03859 0.0
C821 C 0.73215 0.31787 0.04106 0.0
C822 C 0.71683 0.31238 0.05748 0.0
C823 C 0.72079 0.29441 0.07151 0.0
H824 H 0.72906 0.33179 0.03022 0.0
H825 H 0.76617 0.15876 0.16851 0.0
H826 H 0.20832 0.67129 0.07497 0.0
H827 H 0.23642 0.70031 0.07785 0.0
H828 H 0.18871 0.74378 0.10828 0.0
H829 H 0.16051 0.71485 0.10558 0.0
H830 H 0.21439 0.76454 0.07567 0.0
H831 H 0.22462 0.71889 0.14016 0.0
H832 H 0.23054 0.68378 0.16009 0.0
H833 H 0.29188 0.6741 0.12557 0.0
H834 H 0.28616 0.70903 0.10518 0.0
H835 H 0.28709 0.84575 0.11787 0.0
H836 H 0.25914 0.81695 0.11436 0.0
H837 H 0.30898 0.77093 0.0922 0.0
H838 H 0.33729 0.79933 0.0967 0.0
H839 H 0.28214 0.75119 0.12011 0.0
H840 H 0.27271 0.79631 0.05567 0.0
H841 H 0.26711 0.83094 0.03482 0.0
H842 H 0.20494 0.84111 0.06767 0.0
H843 H 0.21031 0.80668 0.08895 0.0
C844 C 0.20375 0.68707 0.08214 0.0
C845 C 0.1822 0.69073 0.09012 0.0
C846 C 0.21985 0.70359 0.08385 0.0
C847 C 0.21467 0.7241 0.09345 0.0
C848 C 0.19303 0.72804 0.10085 0.0
C849 C 0.17697 0.71147 0.09934 0.0
C850 C 0.23193 0.74131 0.09618 0.0
C851 C 0.2291 0.76176 0.08559 0.0
C852 C 0.25133 0.73742 0.10869 0.0
C853 C 0.25484 0.71645 0.12098 0.0
C854 C 0.23927 0.70918 0.13667 0.0
C855 C 0.24261 0.68933 0.14808 0.0
C856 C 0.26154 0.67669 0.14405 0.0
C857 C 0.27721 0.6839 0.12865 0.0
C858 C 0.27393 0.70372 0.11717 0.0
C859 C 0.29227 0.82948 0.11252 0.0
C860 C 0.31457 0.82501 0.10747 0.0
C861 C 0.27614 0.81305 0.11026 0.0
C862 C 0.28187 0.79187 0.10263 0.0
C863 C 0.30413 0.7872 0.09798 0.0
C864 C 0.3203 0.80357 0.10038 0.0
C865 C 0.26468 0.77455 0.09957 0.0
C866 C 0.26749 0.75403 0.11012 0.0
C867 C 0.24533 0.77834 0.08687 0.0
C868 C 0.24202 0.79903 0.07406 0.0
C869 C 0.25792 0.80602 0.05857 0.0
C870 C 0.25478 0.8256 0.04666 0.0
C871 C 0.23571 0.83825 0.04996 0.0
C872 C 0.21972 0.83131 0.06515 0.0
C873 C 0.22279 0.81176 0.07713 0.0
H874 H 0.2333 0.8534 0.04072 0.0
H875 H 0.2641 0.66132 0.1529 0.0
H876 H 0.79005 0.66619 0.88575 0.0
H877 H 0.76296 0.69608 0.88686 0.0
H878 H 0.81195 0.73978 0.91492 0.0
H879 H 0.83911 0.70968 0.91436 0.0
H880 H 0.77299 0.74662 0.93403 0.0
H881 H 0.79918 0.74223 0.85999 0.0
H882 H 0.80888 0.7243 0.82465 0.0
H883 H 0.74098 0.70572 0.81503 0.0
H884 H 0.73092 0.72325 0.85051 0.0
H885 H 0.71371 0.8455 0.90386 0.0
H886 H 0.74207 0.81653 0.90603 0.0
H887 H 0.69312 0.76729 0.88954 0.0
H888 H 0.66472 0.79616 0.88745 0.0
H889 H 0.73342 0.76489 0.86441 0.0
H890 H 0.7086 0.77013 0.94036 0.0
H891 H 0.70064 0.78992 0.97515 0.0
H892 H 0.76869 0.80978 0.97985 0.0
H893 H 0.77699 0.79036 0.9449 0.0
C894 C 0.79506 0.6821 0.89231 0.0
C895 C 0.81679 0.68561 0.8998 0.0
C896 C 0.77956 0.69922 0.89284 0.0
C897 C 0.78554 0.72032 0.90054 0.0
C898 C 0.80699 0.72367 0.90881 0.0
C899 C 0.8225 0.70646 0.90846 0.0
C900 C 0.7695 0.73892 0.89938 0.0
C901 C 0.76458 0.7508 0.91873 0.0
C902 C 0.7584 0.74434 0.87945 0.0
C903 C 0.76433 0.73388 0.85802 0.0
C904 C 0.78634 0.73418 0.85042 0.0
C905 C 0.7919 0.72411 0.83036 0.0
C906 C 0.77556 0.71383 0.81763 0.0
C907 C 0.75362 0.71366 0.82492 0.0
C908 C 0.74797 0.72368 0.845 0.0
C909 C 0.70905 0.8285 0.90066 0.0
C910 C 0.68702 0.82305 0.89552 0.0
C911 C 0.7252 0.81198 0.90202 0.0
C912 C 0.71964 0.78979 0.89803 0.0
C913 C 0.69771 0.78433 0.89272 0.0
C914 C 0.6815 0.80079 0.89168 0.0
C915 C 0.73673 0.77226 0.89909 0.0
C916 C 0.74189 0.76067 0.87967 0.0
C917 C 0.74831 0.76741 0.91884 0.0
C918 C 0.74336 0.77899 0.9399 0.0
C919 C 0.72182 0.77888 0.94871 0.0
C920 C 0.71726 0.78999 0.96848 0.0
C921 C 0.73414 0.80115 0.97967 0.0
C922 C 0.75563 0.80116 0.97115 0.0
C923 C 0.76027 0.79009 0.95137 0.0
H924 H 0.73057 0.80974 0.99497 0.0
H925 H 0.77989 0.70605 0.80209 0.0
H926 H 0.33822 0.2028 0.89419 0.0
H927 H 0.30994 0.23123 0.8993 0.0
H928 H 0.25972 0.18064 0.90345 0.0
H929 H 0.28795 0.15216 0.89813 0.0
H930 H 0.2459 0.213 0.87795 0.0
H931 H 0.27808 0.20858 0.94988 0.0
H932 H 0.30803 0.20821 0.97757 0.0
H933 H 0.32632 0.27438 0.95923 0.0
H934 H 0.29666 0.27504 0.93119 0.0
H935 H 0.16253 0.28715 0.91651 0.0
H936 H 0.18963 0.25698 0.91694 0.0
H937 H 0.24166 0.30331 0.90152 0.0
H938 H 0.21472 0.33351 0.90086 0.0
H939 H 0.25306 0.27195 0.93469 0.0
H940 H 0.22123 0.27477 0.86135 0.0
H941 H 0.19029 0.27479 0.83475 0.0
H942 H 0.17028 0.21049 0.85744 0.0
H943 H 0.20091 0.21025 0.88445 0.0
C944 C 0.3212 0.19772 0.89641 0.0
C945 C 0.31535 0.17522 0.89579 0.0
C946 C 0.30502 0.21399 0.89934 0.0
C947 C 0.28271 0.20807 0.90206 0.0
C948 C 0.27682 0.18561 0.90138 0.0
C949 C 0.29297 0.16935 0.89827 0.0
C950 C 0.26548 0.22536 0.9051 0.0
C951 C 0.24731 0.22565 0.89062 0.0
C952 C 0.26742 0.24209 0.92142 0.0
C953 C 0.28526 0.24178 0.93829 0.0
C954 C 0.28859 0.22299 0.95163 0.0
C955 C 0.3055 0.22274 0.96741 0.0
C956 C 0.3191 0.24124 0.97012 0.0
C957 C 0.31579 0.26005 0.95709 0.0
C958 C 0.29892 0.26039 0.94127 0.0
C959 C 0.17978 0.29095 0.91347 0.0
C960 C 0.1865 0.31269 0.90854 0.0
C961 C 0.1952 0.2737 0.91365 0.0
C962 C 0.21758 0.27794 0.9091 0.0
C963 C 0.22445 0.29973 0.90506 0.0
C964 C 0.20903 0.31693 0.90461 0.0
C965 C 0.23372 0.25958 0.90749 0.0
C966 C 0.25165 0.25913 0.9222 0.0
C967 C 0.23146 0.2426 0.89153 0.0
C968 C 0.21321 0.24261 0.8751 0.0
C969 C 0.21012 0.26072 0.8608 0.0
C970 C 0.19266 0.26076 0.84563 0.0
C971 C 0.17828 0.24268 0.84445 0.0
C972 C 0.1814 0.2245 0.8584 0.0
C973 C 0.19881 0.2244 0.87364 0.0
H974 H 0.16476 0.24275 0.8327 0.0
H975 H 0.33218 0.24101 0.98236 0.0
H976 H 0.12062 0.82584 0.30394 0.0
H977 H 0.1228 0.79564 0.27733 0.0
H978 H 0.05322 0.78245 0.28617 0.0
H979 H 0.05093 0.81257 0.31325 0.0
H980 H 0.07737 0.74445 0.28541 0.0
H981 H 0.07136 0.8097 0.24047 0.0
H982 H 0.08136 0.84728 0.22809 0.0
H983 H 0.14675 0.82488 0.21168 0.0
H984 H 0.13724 0.78722 0.22424 0.0
H985 H 0.06944 0.67456 0.19037 0.0
H986 H 0.06453 0.7032 0.21856 0.0
H987 H 0.1323 0.72382 0.2094 0.0
H988 H 0.13703 0.69554 0.18085 0.0
H989 H 0.1069 0.75839 0.21009 0.0
H990 H 0.1139 0.69373 0.25604 0.0
H991 H 0.10468 0.65615 0.26901 0.0
H992 H 0.03847 0.67715 0.28395 0.0
H993 H 0.04722 0.71481 0.2708 0.0
C994 C 0.10573 0.81656 0.30027 0.0
C995 C 0.08555 0.82172 0.31065 0.0
C996 C 0.10701 0.79932 0.28497 0.0
C997 C 0.08811 0.78699 0.27951 0.0
C998 C 0.06799 0.79182 0.29009 0.0
C999 C 0.0667 0.80907 0.3055 0.0
C1000 C 0.08949 0.76912 0.26273 0.0
C1001 C 0.0835 0.74752 0.26881 0.0
C1002 C 0.09795 0.77307 0.24125 0.0
C1003 C 0.10363 0.79567 0.23346 0.0
C1004 C 0.08792 0.81282 0.23436 0.0
C1005 C 0.09349 0.83413 0.22729 0.0
C1006 C 0.11469 0.83848 0.21915 0.0
C1007 C 0.13034 0.8215 0.218 0.0
C1008 C 0.12486 0.80016 0.22507 0.0
C1009 C 0.08336 0.68501 0.19462 0.0
C1010 C 0.10363 0.68283 0.18344 0.0
C1011 C 0.08055 0.70137 0.21074 0.0
C1012 C 0.09811 0.71558 0.21629 0.0
C1013 C 0.11848 0.71314 0.20537 0.0
C1014 C 0.12118 0.69698 0.18907 0.0
C1015 C 0.09511 0.73356 0.23282 0.0
C1016 C 0.10072 0.75525 0.22665 0.0
C1017 C 0.08642 0.72964 0.25424 0.0
C1018 C 0.08116 0.70703 0.26223 0.0
C1019 C 0.09733 0.69029 0.26194 0.0
C1020 C 0.0922 0.66899 0.26935 0.0
C1021 C 0.07099 0.66425 0.27724 0.0
C1022 C 0.05488 0.68083 0.2778 0.0
C1023 C 0.05992 0.70217 0.27039 0.0
H1024 H 0.06704 0.64774 0.28297 0.0
H1025 H 0.11898 0.85499 0.2137 0.0
H1026 H 0.08718 0.21514 0.67019 0.0
H1027 H 0.09142 0.24024 0.70157 0.0
H1028 H 0.09281 0.18464 0.74625 0.0
H1029 H 0.08882 0.15923 0.71484 0.0
H1030 H 0.06616 0.22133 0.76095 0.0
H1031 H 0.1391 0.20567 0.73534 0.0
H1032 H 0.16861 0.20152 0.70752 0.0
H1033 H 0.16372 0.27058 0.69147 0.0
H1034 H 0.13374 0.27504 0.71883 0.0
H1035 H 0.10761 0.28458 0.85167 0.0
H1036 H 0.10375 0.25598 0.82333 0.0
H1037 H 0.10734 0.30583 0.77239 0.0
H1038 H 0.11175 0.33448 0.80061 0.0
H1039 H 0.13264 0.26957 0.76253 0.0
H1040 H 0.05816 0.28438 0.7872 0.0
H1041 H 0.02843 0.288 0.81491 0.0
H1042 H 0.03681 0.21988 0.83334 0.0
H1043 H 0.06682 0.21594 0.80593 0.0
C1044 C 0.08815 0.20819 0.68669 0.0
C1045 C 0.08776 0.18516 0.69 0.0
C1046 C 0.09066 0.22258 0.70459 0.0
C1047 C 0.09264 0.21426 0.72617 0.0
C1048 C 0.09135 0.19135 0.72969 0.0
C1049 C 0.08911 0.17689 0.71173 0.0
C1050 C 0.09683 0.22959 0.74484 0.0
C1051 C 0.08085 0.23164 0.76153 0.0
C1052 C 0.11588 0.24319 0.74537 0.0
C1053 C 0.134 0.24064 0.72898 0.0
C1054 C 0.14415 0.21994 0.72573 0.0
C1055 C 0.161 0.21753 0.71007 0.0
C1056 C 0.16804 0.23577 0.69773 0.0
C1057 C 0.15823 0.25646 0.70103 0.0
C1058 C 0.1413 0.25893 0.71661 0.0
C1059 C 0.10782 0.28947 0.83445 0.0
C1060 C 0.10991 0.31188 0.82843 0.0
C1061 C 0.10542 0.2731 0.81827 0.0
C1062 C 0.10502 0.2788 0.79576 0.0
C1063 C 0.10753 0.30108 0.78968 0.0
C1064 C 0.10985 0.31746 0.80584 0.0
C1065 C 0.10178 0.26163 0.7785 0.0
C1066 C 0.118 0.25919 0.76207 0.0
C1067 C 0.08299 0.24762 0.77828 0.0
C1068 C 0.06489 0.24994 0.79469 0.0
C1069 C 0.05379 0.27023 0.79729 0.0
C1070 C 0.03686 0.27233 0.81292 0.0
C1071 C 0.03078 0.2542 0.82592 0.0
C1072 C 0.04156 0.23391 0.82328 0.0
C1073 C 0.05852 0.23173 0.80769 0.0
H1074 H 0.01767 0.25586 0.83801 0.0
H1075 H 0.18111 0.23388 0.68563 0.0
H1076 H 0.85691 0.69747 0.82541 0.0
H1077 H 0.85861 0.72728 0.79798 0.0
H1078 H 0.92719 0.71164 0.78545 0.0
H1079 H 0.9252 0.68141 0.81221 0.0
H1080 H 0.87979 0.76343 0.79585 0.0
H1081 H 0.94242 0.72408 0.73392 0.0
H1082 H 0.95223 0.68714 0.71957 0.0
H1083 H 0.8871 0.66337 0.73513 0.0
H1084 H 0.87681 0.70023 0.74929 0.0
H1085 H 0.92216 0.84824 0.72829 0.0
H1086 H 0.91882 0.81627 0.75287 0.0
H1087 H 0.88643 0.77956 0.70087 0.0
H1088 H 0.89046 0.81113 0.67601 0.0
H1089 H 0.91253 0.75324 0.72127 0.0
H1090 H 0.85699 0.80398 0.74416 0.0
H1091 H 0.84147 0.83981 0.75603 0.0
H1092 H 0.88218 0.83856 0.81425 0.0
H1093 H 0.89817 0.80284 0.80258 0.0
C1094 C 0.87227 0.70037 0.81666 0.0
C1095 C 0.89086 0.68704 0.82077 0.0
C1096 C 0.87326 0.71741 0.80103 0.0
C1097 C 0.89295 0.72159 0.78937 0.0
C1098 C 0.91163 0.70842 0.79373 0.0
C1099 C 0.91051 0.69116 0.80906 0.0
C1100 C 0.89417 0.74003 0.77309 0.0
C1101 C 0.88691 0.76115 0.77954 0.0
C1102 C 0.90294 0.73707 0.75154 0.0
C1103 C 0.90893 0.71488 0.74286 0.0
C1104 C 0.93017 0.711 0.73419 0.0
C1105 C 0.93581 0.69007 0.72611 0.0
C1106 C 0.92032 0.6729 0.7265 0.0
C1107 C 0.89912 0.67666 0.73491 0.0
C1108 C 0.89338 0.69756 0.74299 0.0
C1109 C 0.91448 0.8333 0.72205 0.0
C1110 C 0.9065 0.83226 0.70024 0.0
C1111 C 0.91245 0.81507 0.73616 0.0
C1112 C 0.90198 0.79561 0.72888 0.0
C1113 C 0.89454 0.79437 0.70691 0.0
C1114 C 0.89684 0.81247 0.69271 0.0
C1115 C 0.89852 0.77667 0.74421 0.0
C1116 C 0.90538 0.75548 0.73758 0.0
C1117 C 0.88855 0.77939 0.76524 0.0
C1118 C 0.87893 0.80083 0.77239 0.0
C1119 C 0.86275 0.81142 0.75942 0.0
C1120 C 0.85385 0.8317 0.76612 0.0
C1121 C 0.86088 0.84148 0.78586 0.0
C1122 C 0.87678 0.83098 0.79896 0.0
C1123 C 0.88574 0.8107 0.79232 0.0
H1124 H 0.85398 0.85719 0.79102 0.0
H1125 H 0.92473 0.65671 0.72025 0.0
H1126 H 0.94097 0.20135 0.32259 0.0
H1127 H 0.93815 0.22982 0.29393 0.0
H1128 H 0.88611 0.19276 0.26208 0.0
H1129 H 0.88907 0.16409 0.29037 0.0
H1130 H 0.91425 0.20866 0.23213 0.0
H1131 H 0.87463 0.23772 0.29467 0.0
H1132 H 0.86969 0.24904 0.33356 0.0
H1133 H 0.92223 0.29641 0.32684 0.0
H1134 H 0.92769 0.28515 0.28797 0.0
H1135 H 0.86745 0.29277 0.16515 0.0
H1136 H 0.87356 0.2643 0.19315 0.0
H1137 H 0.92639 0.30312 0.22133 0.0
H1138 H 0.92051 0.33163 0.19327 0.0
H1139 H 0.89945 0.28668 0.25306 0.0
H1140 H 0.93786 0.25822 0.18965 0.0
H1141 H 0.94194 0.24695 0.15065 0.0
H1142 H 0.89071 0.19841 0.15892 0.0
H1143 H 0.88611 0.20959 0.19791 0.0
C1144 C 0.92901 0.1992 0.30942 0.0
C1145 C 0.91518 0.18049 0.30884 0.0
C1146 C 0.92734 0.21554 0.2931 0.0
C1147 C 0.91171 0.21357 0.27601 0.0
C1148 C 0.89827 0.19465 0.27511 0.0
C1149 C 0.89996 0.1783 0.29136 0.0
C1150 C 0.90908 0.23129 0.25918 0.0
C1151 C 0.91078 0.22567 0.23671 0.0
C1152 C 0.90501 0.25359 0.26514 0.0
C1153 C 0.90173 0.26042 0.28849 0.0
C1154 C 0.88525 0.25043 0.30154 0.0
C1155 C 0.88233 0.25685 0.32357 0.0
C1156 C 0.89568 0.27339 0.33268 0.0
C1157 C 0.91193 0.28357 0.31977 0.0
C1158 C 0.91494 0.27719 0.29773 0.0
C1159 C 0.88052 0.2952 0.17714 0.0
C1160 C 0.89356 0.31449 0.17684 0.0
C1161 C 0.88396 0.2789 0.19318 0.0
C1162 C 0.90061 0.28146 0.20918 0.0
C1163 C 0.91345 0.30081 0.20915 0.0
C1164 C 0.91 0.31713 0.19311 0.0
C1165 C 0.90451 0.26401 0.22603 0.0
C1166 C 0.90303 0.26968 0.2485 0.0
C1167 C 0.90869 0.24174 0.22006 0.0
C1168 C 0.91151 0.23488 0.19665 0.0
C1169 C 0.92735 0.24525 0.18311 0.0
C1170 C 0.92977 0.23886 0.16101 0.0
C1171 C 0.91655 0.22201 0.1523 0.0
C1172 C 0.90092 0.21147 0.16569 0.0
C1173 C 0.89842 0.21782 0.18779 0.0
H1174 H 0.91845 0.21709 0.13518 0.0
H1175 H 0.89339 0.27834 0.34974 0.0
H1176 H 0.01594 0.09603 0.66099 0.0
H1177 H 0.996 0.06087 0.66291 0.0
H1178 H 0.05764 0.02538 0.65681 0.0
H1179 H 0.07766 0.06041 0.65458 0.0
H1180 H 0.02671 0.00813 0.63016 0.0
H1181 H 0.0313 0.02919 0.70652 0.0
H1182 H 0.02689 0.05396 0.73864 0.0
H1183 H 0.95668 0.05593 0.72795 0.0
H1184 H 0.96071 0.03139 0.69557 0.0
H1185 H 0.9829 0.90241 0.65694 0.0
H1186 H 0.0047 0.93649 0.65909 0.0
H1187 H 0.94465 0.9748 0.66364 0.0
H1188 H 0.92278 0.94091 0.66175 0.0
H1189 H 0.97588 0.98993 0.69202 0.0
H1190 H 0.9714 0.9701 0.61503 0.0
H1191 H 0.97557 0.94526 0.58293 0.0
H1192 H 0.0455 0.94112 0.59476 0.0
H1193 H 0.04169 0.96568 0.62717 0.0
C1194 C 0.02527 0.08075 0.66014 0.0
C1195 C 0.0484 0.08104 0.65769 0.0
C1196 C 0.01386 0.06066 0.66132 0.0
C1197 C 0.02536 0.04049 0.66023 0.0
C1198 C 0.04843 0.04074 0.6577 0.0
C1199 C 0.05985 0.0608 0.65649 0.0
C1200 C 0.01333 0.01911 0.66133 0.0
C1201 C 0.01586 0.00401 0.64386 0.0
C1202 C 0.99882 0.01392 0.67898 0.0
C1203 C 0.99634 0.02862 0.69849 0.0
C1204 C 0.01494 0.03504 0.71091 0.0
C1205 C 0.01251 0.04901 0.72919 0.0
C1206 C 0.99152 0.05656 0.7353 0.0
C1207 C 0.97292 0.05009 0.72318 0.0
C1208 C 0.97527 0.03613 0.70488 0.0
C1209 C 0.97434 0.91807 0.6586 0.0
C1210 C 0.9511 0.91895 0.65902 0.0
C1211 C 0.98682 0.93753 0.65973 0.0
C1212 C 0.97627 0.95819 0.66124 0.0
C1213 C 0.95312 0.95904 0.66244 0.0
C1214 C 0.94065 0.93963 0.66128 0.0
C1215 C 0.98924 0.97903 0.66084 0.0
C1216 C 0.98685 0.99402 0.67841 0.0
C1217 C 0.00385 0.98414 0.64327 0.0
C1218 C 0.00622 0.96954 0.62367 0.0
C1219 C 0.98764 0.96376 0.61089 0.0
C1220 C 0.98994 0.94975 0.59263 0.0
C1221 C 0.01078 0.94156 0.58685 0.0
C1222 C 0.02936 0.94744 0.59928 0.0
C1223 C 0.02714 0.96141 0.61759 0.0
H1224 H 0.01252 0.93071 0.57271 0.0
H1225 H 0.98967 0.06737 0.74946 0.0
H1226 H 0.93295 0.062 0.35608 0.0
H1227 H 0.95694 0.02957 0.35435 0.0
H1228 H 0.9941 0.05963 0.30134 0.0
H1229 H 0.96994 0.09212 0.30273 0.0
H1230 H 0.98569 0.01611 0.29323 0.0
H1231 H 0.01428 0.05945 0.35342 0.0
H1232 H 0.01206 0.08028 0.38844 0.0
H1233 H 0.9904 0.0217 0.42233 0.0
H1234 H 0.99215 1.00059 0.38743 0.0
H1235 H 0.08009 0.94563 0.29957 0.0
H1236 H 0.05438 0.97684 0.29861 0.0
H1237 H 0.01825 0.94893 0.3535 0.0
H1238 H 0.04408 0.91788 0.35483 0.0
H1239 H 0.02615 0.99155 0.36031 0.0
H1240 H 0.99734 0.94809 0.30058 0.0
H1241 H 0.99884 0.92706 0.26564 0.0
H1242 H 0.02038 0.9853 0.23109 0.0
H1243 H 0.0193 0.00662 0.26589 0.0
C1244 C 0.94619 0.06175 0.34401 0.0
C1245 C 0.9496 0.07973 0.32961 0.0
C1246 C 0.95994 0.04321 0.3431 0.0
C1247 C 0.97747 0.04231 0.3279 0.0
C1248 C 0.98068 0.06002 0.31322 0.0
C1249 C 0.96691 0.0786 0.3141 0.0
C1250 C 0.99256 0.02296 0.32752 0.0
C1251 C 0.99479 0.01089 0.3078 0.0
C1252 C 0.004 0.01588 0.34669 0.0
C1253 C 0.00314 0.02849 0.36776 0.0
C1254 C 0.00888 0.05105 0.36831 0.0
C1255 C 0.00773 0.0629 0.38814 0.0
C1256 C 0.00103 0.05234 0.40759 0.0
C1257 C 0.99555 0.02988 0.40725 0.0
C1258 C 0.99663 0.01795 0.38745 0.0
C1259 C 0.06655 0.94601 0.3113 0.0
C1260 C 0.06416 0.92927 0.32729 0.0
C1261 C 0.05182 0.96384 0.31068 0.0
C1262 C 0.03429 0.96516 0.32589 0.0
C1263 C 0.03167 0.94828 0.34163 0.0
C1264 C 0.04642 0.9305 0.34231 0.0
C1265 C 0.01924 0.98458 0.32603 0.0
C1266 C 0.01706 0.99671 0.34572 0.0
C1267 C 0.00781 0.99166 0.30685 0.0
C1268 C 0.00845 0.97889 0.28589 0.0
C1269 C 0.00258 0.95637 0.28557 0.0
C1270 C 0.00332 0.94441 0.26578 0.0
C1271 C 0.00976 0.95482 0.24617 0.0
C1272 C 0.01542 0.97725 0.2463 0.0
C1273 C 0.01473 0.98928 0.26604 0.0
H1274 H 0.01032 0.94553 0.23087 0.0
H1275 H 1.00014 0.06155 0.42292 0.0
H1276 H 0.63842 0.94617 0.93117 0.0
H1277 H 0.64039 0.97134 0.96261 0.0
H1278 H 0.71141 0.9643 0.96412 0.0
H1279 H 0.70955 0.93863 0.9328 0.0
H1280 H 0.69447 0.96238 0.00507 0.0
H1281 H 0.68736 0.0111 0.94316 0.0
H1282 H 0.67103 0.0254 0.90861 0.0
H1283 H 0.60957 0.03741 0.94218 0.0
H1284 H 0.62544 0.02289 0.97688 0.0
H1285 H 0.70851 0.05465 0.07841 0.0
H1286 H 0.71055 0.02976 0.04649 0.0
H1287 H 0.63934 0.02984 0.04174 0.0
H1288 H 0.63713 0.05471 0.07351 0.0
H1289 H 0.65903 0.03638 0.00165 0.0
H1290 H 0.66577 0.98594 0.06298 0.0
H1291 H 0.68208 0.97148 0.09747 0.0
H1292 H 0.74459 0.96297 0.06477 0.0
H1293 H 0.72871 0.97769 0.03014 0.0
C1294 C 0.6545 0.94997 0.93812 0.0
C1295 C 0.67386 0.94045 0.92938 0.0
C1296 C 0.6556 0.96446 0.95606 0.0
C1297 C 0.67608 0.96999 0.96551 0.0
C1298 C 0.69543 0.96033 0.95703 0.0
C1299 C 0.69435 0.94571 0.93909 0.0
C1300 C 0.67712 0.98568 0.98439 0.0
C1301 C 0.68707 0.97871 0.0042 0.0
C1302 C 0.66711 0.00685 0.98339 0.0
C1303 C 0.65755 0.01574 0.96258 0.0
C1304 C 0.67031 0.01664 0.94314 0.0
C1305 C 0.66115 0.02481 0.92354 0.0
C1306 C 0.63926 0.03226 0.92319 0.0
C1307 C 0.62652 0.03162 0.94247 0.0
C1308 C 0.6356 0.02344 0.96212 0.0
C1309 C 0.69328 0.04932 0.07061 0.0
C1310 C 0.67266 0.05666 0.07852 0.0
C1311 C 0.69448 0.03505 0.05242 0.0
C1312 C 0.67508 0.02788 0.04182 0.0
C1313 C 0.65451 0.03521 0.04966 0.0
C1314 C 0.65328 0.04936 0.06788 0.0
C1315 C 0.67613 0.01296 0.02236 0.0
C1316 C 0.66659 0.02011 0.00244 0.0
C1317 C 0.68656 0.99201 0.02325 0.0
C1318 C 0.69612 0.98316 0.04405 0.0
C1319 C 0.68305 0.98118 0.0632 0.0
C1320 C 0.6922 0.97289 0.08276 0.0
C1321 C 0.71438 0.96638 0.08333 0.0
C1322 C 0.72742 0.96807 0.06432 0.0
C1323 C 0.71835 0.97637 0.04471 0.0
H1324 H 0.72143 0.95996 0.09849 0.0
H1325 H 0.63219 0.03857 0.90799 0.0
H1326 H 0.34029 0.92918 0.06224 0.0
H1327 H 0.33756 0.95157 0.02873 0.0
H1328 H 0.34653 0.01091 0.06738 0.0
H1329 H 0.34933 0.98858 0.1011 0.0
H1330 H 0.30823 0.98282 0.01689 0.0
H1331 H 0.37605 0.04817 0.03518 0.0
H1332 H 0.41254 0.05157 0.05318 0.0
H1333 H 0.42296 0.98164 0.04607 0.0
H1334 H 0.38663 0.97784 0.02788 0.0
H1335 H 0.3014 0.0739 0.9412 0.0
H1336 H 0.30302 0.05044 0.97419 0.0
H1337 H 0.36473 0.02265 0.95152 0.0
H1338 H 0.3634 0.04614 0.91871 0.0
H1339 H 0.36766 0.03446 0.99369 0.0
H1340 H 0.31709 0.99296 0.94897 0.0
H1341 H 0.28379 0.98689 0.9262 0.0
H1342 H 0.24247 0.00396 0.98142 0.0
H1343 H 0.27557 0.01044 0.00445 0.0
C1344 C 0.34169 0.947 0.06366 0.0
C1345 C 0.34501 0.9571 0.08436 0.0
C1346 C 0.34006 0.95977 0.04447 0.0
C1347 C 0.34194 0.98289 0.04553 0.0
C1348 C 0.34523 0.99307 0.06616 0.0
C1349 C 0.34671 0.98029 0.08542 0.0
C1350 C 0.34025 0.99626 0.025 0.0
C1351 C 0.32119 0.99419 0.01186 0.0
C1352 C 0.35727 0.01085 0.01826 0.0
C1353 C 0.37853 0.01271 0.03037 0.0
C1354 C 0.3861 0.03351 0.03755 0.0
C1355 C 0.40677 0.03551 0.04772 0.0
C1356 C 0.42009 0.01685 0.05066 0.0
C1357 C 0.41263 0.99609 0.04375 0.0
C1358 C 0.39195 0.99398 0.0336 0.0
C1359 C 0.31523 0.06267 0.94315 0.0
C1360 C 0.33229 0.06194 0.92734 0.0
C1361 C 0.3161 0.04924 0.96199 0.0
C1362 C 0.33397 0.03475 0.96528 0.0
C1363 C 0.35083 0.03376 0.94935 0.0
C1364 C 0.34999 0.04716 0.93056 0.0
C1365 C 0.3356 0.02115 0.98566 0.0
C1366 C 0.35461 0.02324 0.99882 0.0
C1367 C 0.31873 0.00627 0.99216 0.0
C1368 C 0.29881 0.00241 0.97836 0.0
C1369 C 0.30091 0.99561 0.9562 0.0
C1370 C 0.28207 0.99206 0.94326 0.0
C1371 C 0.26103 0.9951 0.95234 0.0
C1372 C 0.25879 0.00165 0.9744 0.0
C1373 C 0.27758 0.00525 0.98741 0.0
H1374 H 0.24646 0.99233 0.9423 0.0
H1375 H 0.4362 0.01849 0.05831 0.0
H1376 H 0.9062 0.66582 0.98136 0.0
H1377 H 0.94083 0.66746 0.00226 0.0
H1378 H 0.97762 0.65345 0.94273 0.0
H1379 H 0.94315 0.65156 0.92176 0.0
H1380 H 0.99204 0.62862 0.97683 0.0
H1381 H 0.9764 0.70528 0.96369 0.0
H1382 H 0.95388 0.73931 0.96391 0.0
H1383 H 0.94937 0.7363 0.03476 0.0
H1384 H 0.97162 0.70206 0.03493 0.0
H1385 H 0.09862 0.65493 0.01882 0.0
H1386 H 0.0647 0.65625 0.99672 0.0
H1387 H 0.02642 0.66768 0.05586 0.0
H1388 H 0.06018 0.66649 0.07805 0.0
H1389 H 0.01319 0.69426 0.02143 0.0
H1390 H 0.02841 0.61723 0.03436 0.0
H1391 H 0.05156 0.58362 0.0341 0.0
H1392 H 0.05712 0.58756 0.96338 0.0
H1393 H 0.03429 0.62143 0.96325 0.0
C1394 C 0.92165 0.66316 0.97269 0.0
C1395 C 0.9219 0.65862 0.94988 0.0
C1396 C 0.94144 0.66417 0.98465 0.0
C1397 C 0.96182 0.66075 0.974 0.0
C1398 C 0.96209 0.65614 0.95127 0.0
C1399 C 0.94235 0.65515 0.9393 0.0
C1400 C 0.98286 0.66167 0.9866 0.0
C1401 C 0.99681 0.64309 0.98633 0.0
C1402 C 0.98887 0.68039 0.99935 0.0
C1403 C 0.97549 0.70098 0.9993 0.0
C1404 C 0.97045 0.71177 0.9793 0.0
C1405 C 0.95776 0.73112 0.97936 0.0
C1406 C 0.95015 0.73993 0.99933 0.0
C1407 C 0.95525 0.72944 0.0193 0.0
C1408 C 0.96792 0.71007 0.01933 0.0
C1409 C 0.08301 0.65789 0.0271 0.0
C1410 C 0.08208 0.66048 0.0502 0.0
C1411 C 0.06364 0.65856 0.01446 0.0
C1412 C 0.04304 0.66184 0.02471 0.0
C1413 C 0.04215 0.66511 0.04765 0.0
C1414 C 0.06146 0.66433 0.06031 0.0
C1415 C 0.02232 0.66124 0.01163 0.0
C1416 C 0.00842 0.67984 0.01186 0.0
C1417 C 0.01637 0.64255 0.99882 0.0
C1418 C 0.02983 0.622 0.99882 0.0
C1419 C 0.0347 0.61103 0.01877 0.0
C1420 C 0.04775 0.59192 0.01869 0.0
C1421 C 0.05586 0.5835 0.99875 0.0
C1422 C 0.05086 0.59413 0.97883 0.0
C1423 C 0.03786 0.61327 0.97882 0.0
H1424 H 0.06598 0.56872 0.99873 0.0
H1425 H 0.94034 0.75491 0.99934 0.0
H1426 H 0.07679 0.35865 0.95637 0.0
H1427 H 0.04457 0.35657 0.98057 0.0
H1428 H 0.02749 0.29307 0.95279 0.0
H1429 H 0.05966 0.29512 0.92822 0.0
H1430 H 0.99157 0.31984 0.95631 0.0
H1431 H 0.05045 0.29615 0.00373 0.0
H1432 H 0.08695 0.29854 0.02181 0.0
H1433 H 0.06793 0.35946 0.05305 0.0
H1434 H 0.0314 0.3576 0.03491 0.0
H1435 H 0.91087 0.29593 0.0394 0.0
H1436 H 0.94329 0.29401 0.01519 0.0
H1437 H 0.96506 0.35766 0.03908 0.0
H1438 H 0.93286 0.35967 0.06339 0.0
H1439 H 0.99877 0.32821 0.03767 0.0
H1440 H 0.94096 0.35308 0.98907 0.0
H1441 H 0.90457 0.35147 0.97069 0.0
H1442 H 0.92164 0.28893 0.94157 0.0
H1443 H 0.95805 0.29004 0.96003 0.0
C1444 C 0.06625 0.34419 0.95541 0.0
C1445 C 0.07086 0.327 0.9404 0.0
C1446 C 0.04786 0.343 0.96933 0.0
C1447 C 0.03378 0.32454 0.96868 0.0
C1448 C 0.03819 0.30743 0.9536 0.0
C1449 C 0.05662 0.3086 0.93963 0.0
C1450 C 0.01428 0.32336 0.98356 0.0
C1451 C 0.99316 0.32127 0.97414 0.0
C1452 C 0.01634 0.32572 0.00677 0.0
C1453 C 0.03825 0.32682 0.01781 0.0
C1454 C 0.05411 0.31014 0.01433 0.0
C1455 C 0.07479 0.31138 0.02461 0.0
C1456 C 0.07977 0.32916 0.03853 0.0
C1457 C 0.06405 0.34571 0.04225 0.0
C1458 C 0.04335 0.34455 0.03199 0.0
C1459 C 0.92256 0.30952 0.03951 0.0
C1460 C 0.91925 0.32797 0.05331 0.0
C1461 C 0.94103 0.30843 0.02561 0.0
C1462 C 0.95649 0.32577 0.02522 0.0
C1463 C 0.95334 0.34409 0.03913 0.0
C1464 C 0.93487 0.34523 0.05297 0.0
C1465 C 0.97605 0.32489 0.01042 0.0
C1466 C 0.99719 0.3266 0.01986 0.0
C1467 C 0.974 0.32223 0.98724 0.0
C1468 C 0.95212 0.32152 0.97614 0.0
C1469 C 0.93687 0.33889 0.97891 0.0
C1470 C 0.91626 0.33809 0.96844 0.0
C1471 C 0.91077 0.32007 0.95503 0.0
C1472 C 0.9259 0.30285 0.952 0.0
C1473 C 0.94653 0.30357 0.96245 0.0
H1474 H 0.89481 0.31949 0.94693 0.0
H1475 H 0.09579 0.33009 0.04647 0.0
loop_
_geom_bond_atom_site_label_1
_geom_bond_atom_site_label_2
_geom_bond_distance
_geom_bond_site_symmetry_2
_ccdc_geom_bond_type
Cu0 N1 1.999 . S
Cu0 O6 1.974 . S
Cu0 N11 1.985 . S
Cu0 O20 1.959 . S
N1 Cu0 1.999 . S
N1 C3 1.263 . S
N1 C5 1.389 . S
N2 C3 1.358 . S
N2 C4 1.400 . S
C3 N1 1.263 . S
C3 N2 1.358 . S
C3 H9 0.930 . S
C4 N2 1.400 . S
C4 C5 1.351 . S
C4 H21 0.930 . S
C5 N1 1.389 . S
C5 C4 1.351 . S
C5 H10 0.930 . S
O6 Cu0 1.974 . S
O6 C16 1.282 . S
C7 O8 1.261 . S
C7 O20 1.251 . S
O8 C7 1.261 . S
H9 C3 0.930 . S
H10 C5 0.930 . S
N11 Cu0 1.985 . S
N11 C13 1.335 . S
N11 C14 1.390 . S
N12 C13 1.345 . S
N12 C15 1.336 . S
C13 N11 1.335 . S
C13 N12 1.345 . S
C13 H18 0.930 . S
C14 N11 1.390 . S
C14 C15 1.346 . S
C14 H19 0.930 . S
C15 N12 1.336 . S
C15 C14 1.346 . S
C15 H22 0.929 . S
C16 O6 1.282 . S
C16 O17 1.216 . S
O17 C16 1.216 . S
H18 C13 0.930 . S
H19 C14 0.930 . S
O20 Cu0 1.959 . S
O20 C7 1.251 . S
H21 C4 0.930 . S
H22 C15 0.929 . S
Cu23 N24 1.999 . S
Cu23 O29 1.974 . S
Cu23 N34 1.985 . S
Cu23 O43 1.959 . S
N24 Cu23 1.999 . S
N24 C26 1.263 . S
N24 C28 1.389 . S
N25 C26 1.358 . S
N25 C27 1.400 . S
C26 N24 1.263 . S
C26 N25 1.358 . S
C26 H32 0.930 . S
C27 N25 1.400 . S
C27 C28 1.351 . S
C27 H44 0.930 . S
C28 N24 1.389 . S
C28 C27 1.351 . S
C28 H33 0.930 . S
O29 Cu23 1.974 . S
O29 C39 1.282 . S
C30 O31 1.261 . S
C30 O43 1.251 . S
O31 C30 1.261 . S
H32 C26 0.930 . S
H33 C28 0.930 . S
N34 Cu23 1.985 . S
N34 C36 1.335 . S
N34 C37 1.390 . S
N35 C36 1.345 . S
N35 C38 1.336 . S
C36 N34 1.335 . S
C36 N35 1.345 . S
C36 H41 0.930 . S
C37 N34 1.390 . S
C37 C38 1.346 . S
C37 H42 0.930 . S
C38 N35 1.336 . S
C38 C37 1.346 . S
C38 H45 0.929 . S
C39 O29 1.282 . S
C39 O40 1.216 . S
O40 C39 1.216 . S
H41 C36 0.930 . S
H42 C37 0.930 . S
O43 Cu23 1.959 . S
O43 C30 1.251 . S
H44 C27 0.930 . S
H45 C38 0.929 . S
Cu46 N47 1.999 . S
Cu46 O52 1.974 . S
Cu46 N57 1.985 . S
Cu46 O66 1.959 . S
N47 Cu46 1.999 . S
N47 C49 1.263 . S
N47 C51 1.389 . S
N48 C49 1.358 . S
N48 C50 1.400 . S
C49 N47 1.263 . S
C49 N48 1.358 . S
C49 H55 0.930 . S
C50 N48 1.400 . S
C50 C51 1.351 . S
C50 H67 0.930 . S
C51 N47 1.389 . S
C51 C50 1.351 . S
C51 H56 0.930 . S
O52 Cu46 1.974 . S
O52 C62 1.282 . S
C53 O54 1.261 . S
C53 O66 1.251 . S
O54 C53 1.261 . S
H55 C49 0.930 . S
H56 C51 0.930 . S
N57 Cu46 1.985 . S
N57 C59 1.335 . S
N57 C60 1.390 . S
N58 C59 1.345 . S
N58 C61 1.336 . S
C59 N57 1.335 . S
C59 N58 1.345 . S
C59 H64 0.930 . S
C60 N57 1.390 . S
C60 C61 1.346 . S
C60 H65 0.930 . S
C61 N58 1.336 . S
C61 C60 1.346 . S
C61 H68 0.929 . S
C62 O52 1.282 . S
C62 O63 1.216 . S
O63 C62 1.216 . S
H64 C59 0.930 . S
H65 C60 0.930 . S
O66 Cu46 1.959 . S
O66 C53 1.251 . S
H67 C50 0.930 . S
H68 C61 0.929 . S
Cu69 N70 1.999 . S
Cu69 O75 1.974 . S
Cu69 N80 1.985 . S
Cu69 O89 1.959 . S
N70 Cu69 1.999 . S
N70 C72 1.263 . S
N70 C74 1.389 . S
N71 C72 1.358 . S
N71 C73 1.400 . S
C72 N70 1.263 . S
C72 N71 1.358 . S
C72 H78 0.930 . S
C73 N71 1.400 . S
C73 C74 1.351 . S
C73 H90 0.930 . S
C74 N70 1.389 . S
C74 C73 1.351 . S
C74 H79 0.930 . S
O75 Cu69 1.974 . S
O75 C85 1.282 . S
C76 O77 1.261 . S
C76 O89 1.251 . S
O77 C76 1.261 . S
H78 C72 0.930 . S
H79 C74 0.930 . S
N80 Cu69 1.985 . S
N80 C82 1.335 . S
N80 C83 1.390 . S
N81 C82 1.345 . S
N81 C84 1.336 . S
C82 N80 1.335 . S
C82 N81 1.345 . S
C82 H87 0.930 . S
C83 N80 1.390 . S
C83 C84 1.346 . S
C83 H88 0.930 . S
C84 N81 1.336 . S
C84 C83 1.346 . S
C84 H91 0.929 . S
C85 O75 1.282 . S
C85 O86 1.216 . S
O86 C85 1.216 . S
H87 C82 0.930 . S
H88 C83 0.930 . S
O89 Cu69 1.959 . S
O89 C76 1.251 . S
H90 C73 0.930 . S
H91 C84 0.929 . S
Cu92 N93 1.999 . S
Cu92 O98 1.974 . S
Cu92 N103 1.985 . S
Cu92 O112 1.959 . S
N93 Cu92 1.999 . S
N93 C95 1.263 . S
N93 C97 1.389 . S
N94 C95 1.358 . S
N94 C96 1.400 . S
C95 N93 1.263 . S
C95 N94 1.358 . S
C95 H101 0.930 . S
C96 N94 1.400 . S
C96 C97 1.351 . S
C96 H113 0.930 . S
C97 N93 1.389 . S
C97 C96 1.351 . S
C97 H102 0.930 . S
O98 Cu92 1.974 . S
O98 C108 1.282 . S
C99 O100 1.261 . S
C99 O112 1.251 . S
O100 C99 1.261 . S
H101 C95 0.930 . S
H102 C97 0.930 . S
N103 Cu92 1.985 . S
N103 C105 1.335 . S
N103 C106 1.390 . S
N104 C105 1.345 . S
N104 C107 1.336 . S
C105 N103 1.335 . S
C105 N104 1.345 . S
C105 H110 0.930 . S
C106 N103 1.390 . S
C106 C107 1.346 . S
C106 H111 0.930 . S
C107 N104 1.336 . S
C107 C106 1.346 . S
C107 H114 0.929 . S
C108 O98 1.282 . S
C108 O109 1.216 . S
O109 C108 1.216 . S
H110 C105 0.930 . S
H111 C106 0.930 . S
O112 Cu92 1.959 . S
O112 C99 1.251 . S
H113 C96 0.930 . S
H114 C107 0.929 . S
Cu115 N116 1.999 . S
Cu115 O121 1.974 . S
Cu115 N126 1.985 . S
Cu115 O135 1.959 . S
N116 Cu115 1.999 . S
N116 C118 1.263 . S
N116 C120 1.389 . S
N117 C118 1.358 . S
N117 C119 1.400 . S
C118 N116 1.263 . S
C118 N117 1.358 . S
C118 H124 0.930 . S
C119 N117 1.400 . S
C119 C120 1.351 . S
C119 H136 0.930 . S
C120 N116 1.389 . S
C120 C119 1.351 . S
C120 H125 0.930 . S
O121 Cu115 1.974 . S
O121 C131 1.282 . S
C122 O123 1.261 . S
C122 O135 1.251 . S
O123 C122 1.261 . S
H124 C118 0.930 . S
H125 C120 0.930 . S
N126 Cu115 1.985 . S
N126 C128 1.335 . S
N126 C129 1.390 . S
N127 C128 1.345 . S
N127 C130 1.336 . S
C128 N126 1.335 . S
C128 N127 1.345 . S
C128 H133 0.930 . S
C129 N126 1.390 . S
C129 C130 1.346 . S
C129 H134 0.930 . S
C130 N127 1.336 . S
C130 C129 1.346 . S
C130 H137 0.929 . S
C131 O121 1.282 . S
C131 O132 1.216 . S
O132 C131 1.216 . S
H133 C128 0.930 . S
H134 C129 0.930 . S
O135 Cu115 1.959 . S
O135 C122 1.251 . S
H136 C119 0.930 . S
H137 C130 0.929 . S
Cu138 N139 1.999 . S
Cu138 O144 1.974 . S
Cu138 N149 1.985 . S
Cu138 O158 1.959 . S
N139 Cu138 1.999 . S
N139 C141 1.263 . S
N139 C143 1.389 . S
N140 C141 1.358 . S
N140 C142 1.400 . S
C141 N139 1.263 . S
C141 N140 1.358 . S
C141 H147 0.930 . S
C142 N140 1.400 . S
C142 C143 1.351 . S
C142 H159 0.930 . S
C143 N139 1.389 . S
C143 C142 1.351 . S
C143 H148 0.930 . S
O144 Cu138 1.974 . S
O144 C154 1.282 . S
C145 O146 1.261 . S
C145 O158 1.251 . S
O146 C145 1.261 . S
H147 C141 0.930 . S
H148 C143 0.930 . S
N149 Cu138 1.985 . S
N149 C151 1.335 . S
N149 C152 1.390 . S
N150 C151 1.345 . S
N150 C153 1.336 . S
C151 N149 1.335 . S
C151 N150 1.345 . S
C151 H156 0.930 . S
C152 N149 1.390 . S
C152 C153 1.346 . S
C152 H157 0.930 . S
C153 N150 1.336 . S
C153 C152 1.346 . S
C153 H160 0.929 . S
C154 O144 1.282 . S
C154 O155 1.216 . S
O155 C154 1.216 . S
H156 C151 0.930 . S
H157 C152 0.930 . S
O158 Cu138 1.959 . S
O158 C145 1.251 . S
H159 C142 0.930 . S
H160 C153 0.929 . S
Cu161 N162 1.999 . S
Cu161 O167 1.974 . S
Cu161 N172 1.985 . S
Cu161 O181 1.959 . S
N162 Cu161 1.999 . S
N162 C164 1.263 . S
N162 C166 1.389 . S
N163 C164 1.358 . S
N163 C165 1.400 . S
C164 N162 1.263 . S
C164 N163 1.358 . S
C164 H170 0.930 . S
C165 N163 1.400 . S
C165 C166 1.351 . S
C165 H182 0.930 . S
C166 N162 1.389 . S
C166 C165 1.351 . S
C166 H171 0.930 . S
O167 Cu161 1.974 . S
O167 C177 1.282 . S
C168 O169 1.261 . S
C168 O181 1.251 . S
O169 C168 1.261 . S
H170 C164 0.930 . S
H171 C166 0.930 . S
N172 Cu161 1.985 . S
N172 C174 1.335 . S
N172 C175 1.390 . S
N173 C174 1.345 . S
N173 C176 1.336 . S
C174 N172 1.335 . S
C174 N173 1.345 . S
C174 H179 0.930 . S
C175 N172 1.390 . S
C175 C176 1.346 . S
C175 H180 0.930 . S
C176 N173 1.336 . S
C176 C175 1.346 . S
C176 H183 0.929 . S
C177 O167 1.282 . S
C177 O178 1.216 . S
O178 C177 1.216 . S
H179 C174 0.930 . S
H180 C175 0.930 . S
O181 Cu161 1.959 . S
O181 C168 1.251 . S
H182 C165 0.930 . S
H183 C176 0.929 . S
Cu184 N185 1.999 . S
Cu184 O190 1.974 . S
Cu184 N195 1.985 . S
Cu184 O204 1.959 . S
N185 Cu184 1.999 . S
N185 C187 1.263 . S
N185 C189 1.389 . S
N186 C187 1.358 . S
N186 C188 1.400 . S
C187 N185 1.263 . S
C187 N186 1.358 . S
C187 H193 0.930 . S
C188 N186 1.400 . S
C188 C189 1.351 . S
C188 H205 0.930 . S
C189 N185 1.389 . S
C189 C188 1.351 . S
C189 H194 0.930 . S
O190 Cu184 1.974 . S
O190 C200 1.282 . S
C191 O192 1.261 . S
C191 O204 1.251 . S
O192 C191 1.261 . S
H193 C187 0.930 . S
H194 C189 0.930 . S
N195 Cu184 1.985 . S
N195 C197 1.335 . S
N195 C198 1.390 . S
N196 C197 1.345 . S
N196 C199 1.336 . S
C197 N195 1.335 . S
C197 N196 1.345 . S
C197 H202 0.930 . S
C198 N195 1.390 . S
C198 C199 1.346 . S
C198 H203 0.930 . S
C199 N196 1.336 . S
C199 C198 1.346 . S
C199 H206 0.929 . S
C200 O190 1.282 . S
C200 O201 1.216 . S
O201 C200 1.216 . S
H202 C197 0.930 . S
H203 C198 0.930 . S
O204 Cu184 1.959 . S
O204 C191 1.251 . S
H205 C188 0.930 . S
H206 C199 0.929 . S
Cu207 N208 1.999 . S
Cu207 O213 1.974 . S
Cu207 N218 1.985 . S
Cu207 O227 1.959 . S
N208 Cu207 1.999 . S
N208 C210 1.263 . S
N208 C212 1.389 . S
N209 C210 1.358 . S
N209 C211 1.400 . S
C210 N208 1.263 . S
C210 N209 1.358 . S
C210 H216 0.930 . S
C211 N209 1.400 . S
C211 C212 1.351 . S
C211 H228 0.930 . S
C212 N208 1.389 . S
C212 C211 1.351 . S
C212 H217 0.930 . S
O213 Cu207 1.974 . S
O213 C223 1.282 . S
C214 O215 1.261 . S
C214 O227 1.251 . S
O215 C214 1.261 . S
H216 C210 0.930 . S
H217 C212 0.930 . S
N218 Cu207 1.985 . S
N218 C220 1.335 . S
N218 C221 1.390 . S
N219 C220 1.345 . S
N219 C222 1.336 . S
C220 N218 1.335 . S
C220 N219 1.345 . S
C220 H225 0.930 . S
C221 N218 1.390 . S
C221 C222 1.346 . S
C221 H226 0.930 . S
C222 N219 1.336 . S
C222 C221 1.346 . S
C222 H229 0.929 . S
C223 O213 1.282 . S
C223 O224 1.216 . S
O224 C223 1.216 . S
H225 C220 0.930 . S
H226 C221 0.930 . S
O227 Cu207 1.959 . S
O227 C214 1.251 . S
H228 C211 0.930 . S
H229 C222 0.929 . S
Cu230 N231 1.999 . S
Cu230 O236 1.974 . S
Cu230 N241 1.985 . S
Cu230 O250 1.959 . S
N231 Cu230 1.999 . S
N231 C233 1.263 . S
N231 C235 1.389 . S
N232 C233 1.358 . S
N232 C234 1.400 . S
C233 N231 1.263 . S
C233 N232 1.358 . S
C233 H239 0.930 . S
C234 N232 1.400 . S
C234 C235 1.351 . S
C234 H251 0.930 . S
C235 N231 1.389 . S
C235 C234 1.351 . S
C235 H240 0.930 . S
O236 Cu230 1.974 . S
O236 C246 1.282 . S
C237 O238 1.261 . S
C237 O250 1.251 . S
O238 C237 1.261 . S
H239 C233 0.930 . S
H240 C235 0.930 . S
N241 Cu230 1.985 . S
N241 C243 1.335 . S
N241 C244 1.390 . S
N242 C243 1.345 . S
N242 C245 1.336 . S
C243 N241 1.335 . S
C243 N242 1.345 . S
C243 H248 0.930 . S
C244 N241 1.390 . S
C244 C245 1.346 . S
C244 H249 0.930 . S
C245 N242 1.336 . S
C245 C244 1.346 . S
C245 H252 0.929 . S
C246 O236 1.282 . S
C246 O247 1.216 . S
O247 C246 1.216 . S
H248 C243 0.930 . S
H249 C244 0.930 . S
O250 Cu230 1.959 . S
O250 C237 1.251 . S
H251 C234 0.930 . S
H252 C245 0.929 . S
Cu253 N254 1.999 . S
Cu253 O259 1.974 . S
Cu253 N264 1.985 . S
Cu253 O273 1.959 . S
N254 Cu253 1.999 . S
N254 C256 1.263 . S
N254 C258 1.389 . S
N255 C256 1.358 . S
N255 C257 1.400 . S
C256 N254 1.263 . S
C256 N255 1.358 . S
C256 H262 0.930 . S
C257 N255 1.400 . S
C257 C258 1.351 . S
C257 H274 0.930 . S
C258 N254 1.389 . S
C258 C257 1.351 . S
C258 H263 0.930 . S
O259 Cu253 1.974 . S
O259 C269 1.282 . S
C260 O261 1.261 . S
C260 O273 1.251 . S
O261 C260 1.261 . S
H262 C256 0.930 . S
H263 C258 0.930 . S
N264 Cu253 1.985 . S
N264 C266 1.335 . S
N264 C267 1.390 . S
N265 C266 1.345 . S
N265 C268 1.336 . S
C266 N264 1.335 . S
C266 N265 1.345 . S
C266 H271 0.930 . S
C267 N264 1.390 . S
C267 C268 1.346 . S
C267 H272 0.930 . S
C268 N265 1.336 . S
C268 C267 1.346 . S
C268 H275 0.929 . S
C269 O259 1.282 . S
C269 O270 1.216 . S
O270 C269 1.216 . S
H271 C266 0.930 . S
H272 C267 0.930 . S
O273 Cu253 1.959 . S
O273 C260 1.251 . S
H274 C257 0.930 . S
H275 C268 0.929 . S
H276 C294 0.951 . S
H277 C296 0.951 . S
H278 C298 0.950 . S
H279 C299 0.950 . S
H280 C301 0.950 . S
H281 C304 0.950 . S
H282 C305 0.950 . S
H283 C307 0.950 . S
H284 C308 0.950 . S
H285 C309 0.951 . S
H286 C311 0.951 . S
H287 C313 0.950 . S
H288 C314 0.950 . S
H289 C316 0.950 . S
H290 C319 0.950 . S
H291 C320 0.950 . S
H292 C322 0.950 . S
H293 C323 0.950 . S
C294 H276 0.951 . S
C294 C295 1.366 . S
C294 C296 1.388 . S
C295 C294 1.366 . S
C295 C299 1.385 . S
C296 H277 0.951 . S
C296 C294 1.388 . S
C296 C297 1.366 . S
C297 C296 1.366 . S
C297 C298 1.414 . S
C297 C300 1.499 . S
C298 H278 0.950 . S
C298 C297 1.414 . S
C298 C299 1.374 . S
C299 H279 0.950 . S
C299 C295 1.385 . S
C299 C298 1.374 . S
C300 C297 1.499 . S
C300 C301 1.373 . S
C300 C302 1.389 . S
C301 H280 0.950 . S
C301 C300 1.373 . S
C301 C317 1.377 1_655 S
C302 C300 1.389 . S
C302 C303 1.524 . S
C302 C316 1.377 1_655 S
C303 C302 1.524 . S
C303 C304 1.397 1_655 S
C303 C308 1.363 . S
C304 H281 0.950 . S
C304 C303 1.397 1_455 S
C304 C305 1.334 . S
C305 H282 0.950 . S
C305 C304 1.334 . S
C305 C306 1.287 . S
C306 C305 1.287 . S
C306 C307 1.524 1_455 S
C306 H325 0.913 . S
C307 H283 0.950 . S
C307 C306 1.524 1_655 S
C307 C308 1.415 . S
C308 H284 0.950 . S
C308 C303 1.363 . S
C308 C307 1.415 . S
C309 H285 0.951 . S
C309 C310 1.366 . S
C309 C311 1.388 . S
C310 C309 1.366 . S
C310 C314 1.385 . S
C311 H286 0.951 . S
C311 C309 1.388 . S
C311 C312 1.366 . S
C312 C311 1.366 . S
C312 C313 1.414 . S
C312 C315 1.499 . S
C313 H287 0.950 . S
C313 C312 1.414 . S
C313 C314 1.374 . S
C314 H288 0.950 . S
C314 C310 1.385 . S
C314 C313 1.374 . S
C315 C312 1.499 . S
C315 C316 1.373 . S
C315 C317 1.389 . S
C316 H289 0.950 . S
C316 C302 1.377 1_455 S
C316 C315 1.373 . S
C317 C301 1.377 1_455 S
C317 C315 1.389 . S
C317 C318 1.524 . S
C318 C317 1.524 . S
C318 C319 1.397 1_455 S
C318 C323 1.363 . S
C319 H290 0.950 . S
C319 C318 1.397 1_655 S
C319 C320 1.334 . S
C320 H291 0.950 . S
C320 C319 1.334 . S
C320 C321 1.287 . S
C321 C320 1.287 . S
C321 C322 1.524 1_655 S
C321 H324 0.999 . S
C322 H292 0.950 . S
C322 C321 1.524 1_455 S
C322 C323 1.415 . S
C323 H293 0.950 . S
C323 C318 1.363 . S
C323 C322 1.415 . S
H324 C321 0.999 . S
H325 C306 0.913 . S
H326 C344 0.951 . S
H327 C346 0.951 . S
H328 C348 0.950 . S
H329 C349 0.950 . S
H330 C351 0.950 . S
H331 C354 0.950 . S
H332 C355 0.950 . S
H333 C357 0.950 . S
H334 C358 0.950 . S
H335 C359 0.951 . S
H336 C361 0.951 . S
H337 C363 0.950 . S
H338 C364 0.950 . S
H339 C366 0.950 . S
H340 C369 0.950 . S
H341 C370 0.950 . S
H342 C372 0.950 . S
H343 C373 0.950 . S
C344 H326 0.951 . S
C344 C345 1.366 . S
C344 C346 1.388 . S
C345 C344 1.366 . S
C345 C349 1.385 . S
C346 H327 0.951 . S
C346 C344 1.388 . S
C346 C347 1.366 . S
C347 C346 1.366 . S
C347 C348 1.414 . S
C347 C350 1.499 . S
C348 H328 0.950 . S
C348 C347 1.414 . S
C348 C349 1.374 . S
C349 H329 0.950 . S
C349 C345 1.385 . S
C349 C348 1.374 . S
C350 C347 1.499 . S
C350 C351 1.373 . S
C350 C352 1.389 1_455 S
C351 H330 0.950 . S
C351 C350 1.373 . S
C351 C367 1.377 . S
C352 C350 1.389 1_655 S
C352 C353 1.524 . S
C352 C366 1.377 . S
C353 C352 1.524 . S
C353 C354 1.397 1_655 S
C353 C358 1.363 . S
C354 H331 0.950 . S
C354 C353 1.397 1_455 S
C354 C355 1.334 . S
C355 H332 0.950 . S
C355 C354 1.334 . S
C355 C356 1.287 1_455 S
C356 C355 1.287 1_655 S
C356 C357 1.524 . S
C356 H375 0.913 . S
C357 H333 0.950 . S
C357 C356 1.524 . S
C357 C358 1.415 . S
C358 H334 0.950 . S
C358 C353 1.363 . S
C358 C357 1.415 . S
C359 H335 0.951 . S
C359 C360 1.366 . S
C359 C361 1.388 . S
C360 C359 1.366 . S
C360 C364 1.385 . S
C361 H336 0.951 . S
C361 C359 1.388 . S
C361 C362 1.366 . S
C362 C361 1.366 . S
C362 C363 1.414 . S
C362 C365 1.499 . S
C363 H337 0.950 . S
C363 C362 1.414 . S
C363 C364 1.374 . S
C364 H338 0.950 . S
C364 C360 1.385 . S
C364 C363 1.374 . S
C365 C362 1.499 . S
C365 C366 1.373 . S
C365 C367 1.389 1_655 S
C366 H339 0.950 . S
C366 C352 1.377 . S
C366 C365 1.373 . S
C367 C351 1.377 . S
C367 C365 1.389 1_455 S
C367 C368 1.524 . S
C368 C367 1.524 . S
C368 C369 1.397 1_455 S
C368 C373 1.363 . S
C369 H340 0.950 . S
C369 C368 1.397 1_655 S
C369 C370 1.334 . S
C370 H341 0.950 . S
C370 C369 1.334 . S
C370 C371 1.287 1_655 S
C371 C370 1.287 1_455 S
C371 C372 1.524 . S
C371 H374 0.999 . S
C372 H342 0.950 . S
C372 C371 1.524 . S
C372 C373 1.415 . S
C373 H343 0.950 . S
C373 C368 1.363 . S
C373 C372 1.415 . S
H374 C371 0.999 . S
H375 C356 0.913 . S
H376 C394 0.951 . S
H377 C396 0.951 . S
H378 C398 0.950 . S
H379 C399 0.950 . S
H380 C401 0.950 . S
H381 C404 0.950 1_565 S
H382 C405 0.950 . S
H383 C407 0.950 . S
H384 C408 0.950 . S
H385 C409 0.951 . S
H386 C411 0.951 . S
H387 C413 0.950 . S
H388 C414 0.950 . S
H389 C416 0.950 . S
H390 C419 0.950 1_545 S
H391 C420 0.950 . S
H392 C422 0.950 . S
H393 C423 0.950 . S
C394 H376 0.951 . S
C394 C395 1.366 . S
C394 C396 1.388 . S
C395 C394 1.366 . S
C395 C399 1.385 . S
C396 H377 0.951 . S
C396 C394 1.388 . S
C396 C397 1.366 . S
C397 C396 1.366 . S
C397 C398 1.414 . S
C397 C400 1.499 . S
C398 H378 0.950 . S
C398 C397 1.414 . S
C398 C399 1.374 . S
C399 H379 0.950 . S
C399 C395 1.385 . S
C399 C398 1.374 . S
C400 C397 1.499 . S
C400 C401 1.373 . S
C400 C402 1.389 1_565 S
C401 H380 0.950 . S
C401 C400 1.373 . S
C401 C417 1.377 . S
C402 C400 1.389 1_545 S
C402 C403 1.524 . S
C402 C416 1.377 . S
C403 C402 1.524 . S
C403 C404 1.397 . S
C403 C408 1.363 . S
C404 H381 0.950 1_545 S
C404 C403 1.397 . S
C404 C405 1.334 . S
C405 H382 0.950 . S
C405 C404 1.334 . S
C405 C406 1.287 . S
C406 C405 1.287 . S
C406 C407 1.524 . S
C406 H425 0.913 . S
C407 H383 0.950 . S
C407 C406 1.524 . S
C407 C408 1.415 . S
C408 H384 0.950 . S
C408 C403 1.363 . S
C408 C407 1.415 . S
C409 H385 0.951 . S
C409 C410 1.366 . S
C409 C411 1.388 . S
C410 C409 1.366 . S
C410 C414 1.385 . S
C411 H386 0.951 . S
C411 C409 1.388 . S
C411 C412 1.366 . S
C412 C411 1.366 . S
C412 C413 1.414 . S
C412 C415 1.499 . S
C413 H387 0.950 . S
C413 C412 1.414 . S
C413 C414 1.374 . S
C414 H388 0.950 . S
C414 C410 1.385 . S
C414 C413 1.374 . S
C415 C412 1.499 . S
C415 C416 1.373 . S
C415 C417 1.389 1_545 S
C416 H389 0.950 . S
C416 C402 1.377 . S
C416 C415 1.373 . S
C417 C401 1.377 . S
C417 C415 1.389 1_565 S
C417 C418 1.524 . S
C418 C417 1.524 . S
C418 C419 1.397 . S
C418 C423 1.363 . S
C419 H390 0.950 1_565 S
C419 C418 1.397 . S
C419 C420 1.334 . S
C420 H391 0.950 . S
C420 C419 1.334 . S
C420 C421 1.287 . S
C421 C420 1.287 . S
C421 C422 1.524 . S
C421 H424 0.999 . S
C422 H392 0.950 . S
C422 C421 1.524 . S
C422 C423 1.415 . S
C423 H393 0.950 . S
C423 C418 1.363 . S
C423 C422 1.415 . S
H424 C421 0.999 . S
H425 C406 0.913 . S
H426 C444 0.951 . S
H427 C446 0.951 . S
H428 C448 0.989 . S
H429 C449 0.950 . S
H430 C451 0.950 . S
H431 C454 0.950 . S
H432 C455 0.950 . S
H433 C457 0.950 . S
H434 C458 0.950 . S
H435 C459 0.951 . S
H436 C461 0.951 . S
H437 C463 0.990 . S
H438 C464 0.950 . S
H439 C466 0.950 . S
H440 C469 0.950 . S
H441 C470 0.950 . S
H442 C472 0.950 . S
H443 C473 0.950 . S
C444 H426 0.951 . S
C444 C445 1.366 . S
C444 C446 1.388 . S
C445 C444 1.366 . S
C445 C449 1.385 . S
C446 H427 0.951 . S
C446 C444 1.388 . S
C446 C447 1.366 . S
C447 C446 1.366 . S
C447 C448 1.414 . S
C447 C450 1.499 . S
C448 H428 0.989 . S
C448 C447 1.414 . S
C448 C449 1.374 . S
C449 H429 0.950 . S
C449 C445 1.385 . S
C449 C448 1.374 . S
C450 C447 1.499 . S
C450 C451 1.373 1_565 S
C450 C452 1.389 . S
C451 H430 0.950 . S
C451 C450 1.373 1_545 S
C451 C467 1.377 . S
C452 C450 1.389 . S
C452 C453 1.524 . S
C452 C466 1.377 . S
C453 C452 1.524 . S
C453 C454 1.397 . S
C453 C458 1.363 . S
C454 H431 0.950 . S
C454 C453 1.397 . S
C454 C455 1.334 . S
C455 H432 0.950 . S
C455 C454 1.334 . S
C455 C456 1.287 . S
C456 C455 1.287 . S
C456 C457 1.524 . S
C456 H475 0.913 . S
C457 H433 0.950 . S
C457 C456 1.524 . S
C457 C458 1.415 . S
C458 H434 0.950 . S
C458 C453 1.363 . S
C458 C457 1.415 . S
C459 H435 0.951 . S
C459 C460 1.366 . S
C459 C461 1.388 . S
C460 C459 1.366 . S
C460 C464 1.385 . S
C461 H436 0.951 . S
C461 C459 1.388 . S
C461 C462 1.366 . S
C462 C461 1.366 . S
C462 C463 1.414 . S
C462 C465 1.499 . S
C463 H437 0.990 . S
C463 C462 1.414 . S
C463 C464 1.374 . S
C464 H438 0.950 . S
C464 C460 1.385 . S
C464 C463 1.374 . S
C465 C462 1.499 . S
C465 C466 1.373 1_545 S
C465 C467 1.389 . S
C466 H439 0.950 . S
C466 C452 1.377 . S
C466 C465 1.373 1_565 S
C467 C451 1.377 . S
C467 C465 1.389 . S
C467 C468 1.524 . S
C468 C467 1.524 . S
C468 C469 1.397 . S
C468 C473 1.363 . S
C469 H440 0.950 . S
C469 C468 1.397 . S
C469 C470 1.334 . S
C470 H441 0.950 . S
C470 C469 1.334 . S
C470 C471 1.287 . S
C471 C470 1.287 . S
C471 C472 1.524 . S
C471 H474 0.999 . S
C472 H442 0.950 . S
C472 C471 1.524 . S
C472 C473 1.415 . S
C473 H443 0.950 . S
C473 C468 1.363 . S
C473 C472 1.415 . S
H474 C471 0.999 . S
H475 C456 0.913 . S
H476 C494 0.951 . S
H477 C496 0.951 . S
H478 C498 0.950 . S
H479 C499 0.950 . S
H480 C501 0.950 . S
H481 C504 0.950 . S
H482 C505 0.950 . S
H483 C507 0.950 . S
H484 C508 0.950 . S
H485 C509 0.951 . S
H486 C511 0.951 . S
H487 C513 0.950 . S
H488 C514 0.950 . S
H489 C516 0.950 . S
H490 C519 0.950 . S
H491 C520 0.950 . S
H492 C522 0.950 . S
H493 C523 0.950 . S
C494 H476 0.951 . S
C494 C495 1.366 . S
C494 C496 1.388 . S
C495 C494 1.366 . S
C495 C499 1.385 . S
C496 H477 0.951 . S
C496 C494 1.388 . S
C496 C497 1.366 . S
C497 C496 1.366 . S
C497 C498 1.414 . S
C497 C500 1.499 . S
C498 H478 0.950 . S
C498 C497 1.414 . S
C498 C499 1.374 . S
C499 H479 0.950 . S
C499 C495 1.385 . S
C499 C498 1.374 . S
C500 C497 1.499 . S
C500 C501 1.373 1_556 S
C500 C502 1.389 . S
C501 H480 0.950 . S
C501 C500 1.373 1_554 S
C501 C517 1.377 . S
C502 C500 1.389 . S
C502 C503 1.524 . S
C502 C516 1.377 . S
C503 C502 1.524 . S
C503 C504 1.397 . S
C503 C508 1.363 . S
C504 H481 0.950 . S
C504 C503 1.397 . S
C504 C505 1.334 . S
C505 H482 0.950 . S
C505 C504 1.334 . S
C505 C506 1.287 . S
C506 C505 1.287 . S
C506 C507 1.524 . S
C506 H525 0.913 . S
C507 H483 0.950 . S
C507 C506 1.524 . S
C507 C508 1.415 . S
C508 H484 0.950 . S
C508 C503 1.363 . S
C508 C507 1.415 . S
C509 H485 0.951 . S
C509 C510 1.366 . S
C509 C511 1.388 . S
C510 C509 1.366 . S
C510 C514 1.385 . S
C511 H486 0.951 . S
C511 C509 1.388 . S
C511 C512 1.366 . S
C512 C511 1.366 . S
C512 C513 1.414 . S
C512 C515 1.499 . S
C513 H487 0.950 . S
C513 C512 1.414 . S
C513 C514 1.374 . S
C514 H488 0.950 . S
C514 C510 1.385 . S
C514 C513 1.374 . S
C515 C512 1.499 . S
C515 C516 1.373 1_554 S
C515 C517 1.389 . S
C516 H489 0.950 . S
C516 C502 1.377 . S
C516 C515 1.373 1_556 S
C517 C501 1.377 . S
C517 C515 1.389 . S
C517 C518 1.524 . S
C518 C517 1.524 . S
C518 C519 1.397 . S
C518 C523 1.363 . S
C519 H490 0.950 . S
C519 C518 1.397 . S
C519 C520 1.334 . S
C520 H491 0.950 . S
C520 C519 1.334 . S
C520 C521 1.287 . S
C521 C520 1.287 . S
C521 C522 1.524 . S
C521 H524 0.999 . S
C522 H492 0.950 . S
C522 C521 1.524 . S
C522 C523 1.415 . S
C523 H493 0.950 . S
C523 C518 1.363 . S
C523 C522 1.415 . S
H524 C521 0.999 . S
H525 C506 0.913 . S
H526 C544 0.951 . S
H527 C546 1.003 . S
H528 C548 0.950 . S
H529 C549 0.950 . S
H530 C551 0.950 . S
H531 C554 0.950 . S
H532 C555 0.950 1_556 S
H533 C557 0.950 . S
H534 C558 0.950 . S
H535 C559 0.951 . S
H536 C561 1.003 . S
H537 C563 0.950 . S
H538 C564 0.950 . S
H539 C566 0.950 . S
H540 C569 0.950 . S
H541 C570 0.950 1_554 S
H542 C572 0.950 . S
H543 C573 0.950 . S
C544 H526 0.951 . S
C544 C545 1.366 . S
C544 C546 1.388 . S
C545 C544 1.366 . S
C545 C549 1.385 . S
C546 H527 1.003 . S
C546 C544 1.388 . S
C546 C547 1.366 . S
C547 C546 1.366 . S
C547 C548 1.414 . S
C547 C550 1.499 . S
C548 H528 0.950 . S
C548 C547 1.414 . S
C548 C549 1.374 . S
C549 H529 0.950 . S
C549 C545 1.385 . S
C549 C548 1.374 . S
C550 C547 1.499 . S
C550 C551 1.373 . S
C550 C552 1.389 1_556 S
C551 H530 0.950 . S
C551 C550 1.373 . S
C551 C567 1.377 . S
C552 C550 1.389 1_554 S
C552 C553 1.524 . S
C552 C566 1.377 . S
C553 C552 1.524 . S
C553 C554 1.397 1_554 S
C553 C558 1.363 . S
C554 H531 0.950 . S
C554 C553 1.397 1_556 S
C554 C555 1.334 1_556 S
C555 H532 0.950 1_554 S
C555 C554 1.334 1_554 S
C555 C556 1.287 . S
C556 C555 1.287 . S
C556 C557 1.524 . S
C556 H575 0.913 . S
C557 H533 0.950 . S
C557 C556 1.524 . S
C557 C558 1.415 . S
C558 H534 0.950 . S
C558 C553 1.363 . S
C558 C557 1.415 . S
C559 H535 0.951 . S
C559 C560 1.366 . S
C559 C561 1.388 . S
C560 C559 1.366 . S
C560 C564 1.385 . S
C561 H536 1.003 . S
C561 C559 1.388 . S
C561 C562 1.366 . S
C562 C561 1.366 . S
C562 C563 1.414 . S
C562 C565 1.499 . S
C563 H537 0.950 . S
C563 C562 1.414 . S
C563 C564 1.374 . S
C564 H538 0.950 . S
C564 C560 1.385 . S
C564 C563 1.374 . S
C565 C562 1.499 . S
C565 C566 1.373 . S
C565 C567 1.389 1_554 S
C566 H539 0.950 . S
C566 C552 1.377 . S
C566 C565 1.373 . S
C567 C551 1.377 . S
C567 C565 1.389 1_556 S
C567 C568 1.524 . S
C568 C567 1.524 . S
C568 C569 1.397 1_556 S
C568 C573 1.363 . S
C569 H540 0.950 . S
C569 C568 1.397 1_554 S
C569 C570 1.334 1_554 S
C570 H541 0.950 1_556 S
C570 C569 1.334 1_556 S
C570 C571 1.287 . S
C571 C570 1.287 . S
C571 C572 1.524 . S
C571 H574 0.999 . S
C572 H542 0.950 . S
C572 C571 1.524 . S
C572 C573 1.415 . S
C573 H543 0.950 . S
C573 C568 1.363 . S
C573 C572 1.415 . S
H574 C571 0.999 . S
H575 C556 0.913 . S
H576 C594 0.951 . S
H577 C596 0.951 . S
H578 C598 0.950 . S
H579 C599 0.950 . S
H580 C601 0.950 . S
H581 C604 0.950 . S
H582 C605 0.950 . S
H583 C607 0.950 . S
H584 C608 0.950 . S
H585 C609 0.951 . S
H586 C611 0.951 . S
H587 C613 0.950 . S
H588 C614 0.950 . S
H589 C616 0.950 . S
H590 C619 0.950 . S
H591 C620 0.950 . S
H592 C622 0.950 . S
H593 C623 0.950 . S
C594 H576 0.951 . S
C594 C595 1.366 . S
C594 C596 1.388 . S
C595 C594 1.366 . S
C595 C599 1.385 . S
C596 H577 0.951 . S
C596 C594 1.388 . S
C596 C597 1.366 . S
C597 C596 1.366 . S
C597 C598 1.414 . S
C597 C600 1.499 . S
C598 H578 0.950 . S
C598 C597 1.414 . S
C598 C599 1.374 . S
C599 H579 0.950 . S
C599 C595 1.385 . S
C599 C598 1.374 . S
C600 C597 1.499 . S
C600 C601 1.373 . S
C600 C602 1.389 . S
C601 H580 0.950 . S
C601 C600 1.373 . S
C601 C617 1.377 . S
C602 C600 1.389 . S
C602 C603 1.524 . S
C602 C616 1.377 . S
C603 C602 1.524 . S
C603 C604 1.397 . S
C603 C608 1.363 . S
C604 H581 0.950 . S
C604 C603 1.397 . S
C604 C605 1.334 . S
C605 H582 0.950 . S
C605 C604 1.334 . S
C605 C606 1.287 . S
C606 C605 1.287 . S
C606 C607 1.524 . S
C606 H625 0.913 . S
C607 H583 0.950 . S
C607 C606 1.524 . S
C607 C608 1.415 . S
C608 H584 0.950 . S
C608 C603 1.363 . S
C608 C607 1.415 . S
C609 H585 0.951 . S
C609 C610 1.366 . S
C609 C611 1.388 . S
C610 C609 1.366 . S
C610 C614 1.385 . S
C611 H586 0.951 . S
C611 C609 1.388 . S
C611 C612 1.366 . S
C612 C611 1.366 . S
C612 C613 1.414 . S
C612 C615 1.499 . S
C613 H587 0.950 . S
C613 C612 1.414 . S
C613 C614 1.374 . S
C614 H588 0.950 . S
C614 C610 1.385 . S
C614 C613 1.374 . S
C615 C612 1.499 . S
C615 C616 1.373 . S
C615 C617 1.389 . S
C616 H589 0.950 . S
C616 C602 1.377 . S
C616 C615 1.373 . S
C617 C601 1.377 . S
C617 C615 1.389 . S
C617 C618 1.524 . S
C618 C617 1.524 . S
C618 C619 1.397 . S
C618 C623 1.363 . S
C619 H590 0.950 . S
C619 C618 1.397 . S
C619 C620 1.334 . S
C620 H591 0.950 . S
C620 C619 1.334 . S
C620 C621 1.287 . S
C621 C620 1.287 . S
C621 C622 1.524 . S
C621 H624 0.999 . S
C622 H592 0.950 . S
C622 C621 1.524 . S
C622 C623 1.415 . S
C623 H593 0.950 . S
C623 C618 1.363 . S
C623 C622 1.415 . S
H624 C621 0.999 . S
H625 C606 0.913 . S
H626 C644 0.951 . S
H627 C646 0.951 . S
H628 C648 0.950 . S
H629 C649 0.950 . S
H630 C651 0.950 . S
H631 C654 0.950 . S
H632 C655 0.950 . S
H633 C657 0.950 . S
H634 C658 0.950 . S
H635 C659 0.951 . S
H636 C661 0.951 . S
H637 C663 0.950 . S
H638 C664 0.950 . S
H639 C666 0.950 . S
H640 C669 0.950 . S
H641 C670 0.950 . S
H642 C672 0.950 . S
H643 C673 0.950 . S
C644 H626 0.951 . S
C644 C645 1.366 . S
C644 C646 1.388 . S
C645 C644 1.366 . S
C645 C649 1.385 . S
C646 H627 0.951 . S
C646 C644 1.388 . S
C646 C647 1.366 . S
C647 C646 1.366 . S
C647 C648 1.414 . S
C647 C650 1.499 . S
C648 H628 0.950 . S
C648 C647 1.414 . S
C648 C649 1.374 . S
C649 H629 0.950 . S
C649 C645 1.385 . S
C649 C648 1.374 . S
C650 C647 1.499 . S
C650 C651 1.373 . S
C650 C652 1.389 . S
C651 H630 0.950 . S
C651 C650 1.373 . S
C651 C667 1.377 . S
C652 C650 1.389 . S
C652 C653 1.524 . S
C652 C666 1.377 . S
C653 C652 1.524 . S
C653 C654 1.397 . S
C653 C658 1.363 . S
C654 H631 0.950 . S
C654 C653 1.397 . S
C654 C655 1.334 . S
C655 H632 0.950 . S
C655 C654 1.334 . S
C655 C656 1.287 . S
C656 C655 1.287 . S
C656 C657 1.524 . S
C656 H675 0.913 . S
C657 H633 0.950 . S
C657 C656 1.524 . S
C657 C658 1.415 . S
C658 H634 0.950 . S
C658 C653 1.363 . S
C658 C657 1.415 . S
C659 H635 0.951 . S
C659 C660 1.366 . S
C659 C661 1.388 . S
C660 C659 1.366 . S
C660 C664 1.385 . S
C661 H636 0.951 . S
C661 C659 1.388 . S
C661 C662 1.366 . S
C662 C661 1.366 . S
C662 C663 1.414 . S
C662 C665 1.499 . S
C663 H637 0.950 . S
C663 C662 1.414 . S
C663 C664 1.374 . S
C664 H638 0.950 . S
C664 C660 1.385 . S
C664 C663 1.374 . S
C665 C662 1.499 . S
C665 C666 1.373 . S
C665 C667 1.389 . S
C666 H639 0.950 . S
C666 C652 1.377 . S
C666 C665 1.373 . S
C667 C651 1.377 . S
C667 C665 1.389 . S
C667 C668 1.524 . S
C668 C667 1.524 . S
C668 C669 1.397 . S
C668 C673 1.363 . S
C669 H640 0.950 . S
C669 C668 1.397 . S
C669 C670 1.334 . S
C670 H641 0.950 . S
C670 C669 1.334 . S
C670 C671 1.287 . S
C671 C670 1.287 . S
C671 C672 1.524 . S
C671 H674 0.999 . S
C672 H642 0.950 . S
C672 C671 1.524 . S
C672 C673 1.415 . S
C673 H643 0.950 . S
C673 C668 1.363 . S
C673 C672 1.415 . S
H674 C671 0.999 . S
H675 C656 0.913 . S
H676 C694 0.951 . S
H677 C696 0.951 . S
H678 C698 0.950 . S
H679 C699 0.950 . S
H680 C701 0.950 . S
H681 C704 0.950 . S
H682 C705 0.950 . S
H683 C707 0.950 . S
H684 C708 0.950 . S
H685 C709 0.951 . S
H686 C711 0.951 . S
H687 C713 0.950 . S
H688 C714 0.950 . S
H689 C716 0.950 . S
H690 C719 0.950 . S
H691 C720 0.950 . S
H692 C722 0.950 . S
H693 C723 0.950 . S
C694 H676 0.951 . S
C694 C695 1.366 . S
C694 C696 1.388 . S
C695 C694 1.366 . S
C695 C699 1.385 . S
C696 H677 0.951 . S
C696 C694 1.388 . S
C696 C697 1.366 . S
C697 C696 1.366 . S
C697 C698 1.414 . S
C697 C700 1.499 . S
C698 H678 0.950 . S
C698 C697 1.414 . S
C698 C699 1.374 . S
C699 H679 0.950 . S
C699 C695 1.385 . S
C699 C698 1.374 . S
C700 C697 1.499 . S
C700 C701 1.373 . S
C700 C702 1.389 . S
C701 H680 0.950 . S
C701 C700 1.373 . S
C701 C717 1.377 . S
C702 C700 1.389 . S
C702 C703 1.524 . S
C702 C716 1.377 . S
C703 C702 1.524 . S
C703 C704 1.397 . S
C703 C708 1.363 . S
C704 H681 0.950 . S
C704 C703 1.397 . S
C704 C705 1.334 . S
C705 H682 0.950 . S
C705 C704 1.334 . S
C705 C706 1.287 . S
C706 C705 1.287 . S
C706 C707 1.524 . S
C706 H725 0.913 . S
C707 H683 0.950 . S
C707 C706 1.524 . S
C707 C708 1.415 . S
C708 H684 0.950 . S
C708 C703 1.363 . S
C708 C707 1.415 . S
C709 H685 0.951 . S
C709 C710 1.366 . S
C709 C711 1.388 . S
C710 C709 1.366 . S
C710 C714 1.385 . S
C711 H686 0.951 . S
C711 C709 1.388 . S
C711 C712 1.366 . S
C712 C711 1.366 . S
C712 C713 1.414 . S
C712 C715 1.499 . S
C713 H687 0.950 . S
C713 C712 1.414 . S
C713 C714 1.374 . S
C714 H688 0.950 . S
C714 C710 1.385 . S
C714 C713 1.374 . S
C715 C712 1.499 . S
C715 C716 1.373 . S
C715 C717 1.389 . S
C716 H689 0.950 . S
C716 C702 1.377 . S
C716 C715 1.373 . S
C717 C701 1.377 . S
C717 C715 1.389 . S
C717 C718 1.524 . S
C718 C717 1.524 . S
C718 C719 1.397 . S
C718 C723 1.363 . S
C719 H690 0.950 . S
C719 C718 1.397 . S
C719 C720 1.334 . S
C720 H691 0.950 . S
C720 C719 1.334 . S
C720 C721 1.287 . S
C721 C720 1.287 . S
C721 C722 1.524 . S
C721 H724 0.999 . S
C722 H692 0.950 . S
C722 C721 1.524 . S
C722 C723 1.415 . S
C723 H693 0.950 . S
C723 C718 1.363 . S
C723 C722 1.415 . S
H724 C721 0.999 . S
H725 C706 0.913 . S
H726 C744 0.951 . S
H727 C746 0.951 . S
H728 C748 0.950 . S
H729 C749 0.950 . S
H730 C751 0.950 . S
H731 C754 0.950 . S
H732 C755 0.950 . S
H733 C757 0.950 . S
H734 C758 0.950 . S
H735 C759 0.951 . S
H736 C761 0.951 . S
H737 C763 0.950 . S
H738 C764 0.950 . S
H739 C766 0.950 . S
H740 C769 0.950 . S
H741 C770 0.950 . S
H742 C772 0.950 . S
H743 C773 0.950 . S
C744 H726 0.951 . S
C744 C745 1.366 . S
C744 C746 1.388 . S
C745 C744 1.366 . S
C745 C749 1.385 . S
C746 H727 0.951 . S
C746 C744 1.388 . S
C746 C747 1.366 . S
C747 C746 1.366 . S
C747 C748 1.414 . S
C747 C750 1.499 . S
C748 H728 0.950 . S
C748 C747 1.414 . S
C748 C749 1.374 . S
C749 H729 0.950 . S
C749 C745 1.385 . S
C749 C748 1.374 . S
C750 C747 1.499 . S
C750 C751 1.373 . S
C750 C752 1.389 . S
C751 H730 0.950 . S
C751 C750 1.373 . S
C751 C767 1.377 . S
C752 C750 1.389 . S
C752 C753 1.524 . S
C752 C766 1.377 . S
C753 C752 1.524 . S
C753 C754 1.397 . S
C753 C758 1.363 . S
C754 H731 0.950 . S
C754 C753 1.397 . S
C754 C755 1.334 . S
C755 H732 0.950 . S
C755 C754 1.334 . S
C755 C756 1.287 . S
C756 C755 1.287 . S
C756 C757 1.524 . S
C756 H775 0.913 . S
C757 H733 0.950 . S
C757 C756 1.524 . S
C757 C758 1.415 . S
C758 H734 0.950 . S
C758 C753 1.363 . S
C758 C757 1.415 . S
C759 H735 0.951 . S
C759 C760 1.366 . S
C759 C761 1.388 . S
C760 C759 1.366 . S
C760 C764 1.385 . S
C761 H736 0.951 . S
C761 C759 1.388 . S
C761 C762 1.366 . S
C762 C761 1.366 . S
C762 C763 1.414 . S
C762 C765 1.499 . S
C763 H737 0.950 . S
C763 C762 1.414 . S
C763 C764 1.374 . S
C764 H738 0.950 . S
C764 C760 1.385 . S
C764 C763 1.374 . S
C765 C762 1.499 . S
C765 C766 1.373 . S
C765 C767 1.389 . S
C766 H739 0.950 . S
C766 C752 1.377 . S
C766 C765 1.373 . S
C767 C751 1.377 . S
C767 C765 1.389 . S
C767 C768 1.524 . S
C768 C767 1.524 . S
C768 C769 1.397 . S
C768 C773 1.363 . S
C769 H740 0.950 . S
C769 C768 1.397 . S
C769 C770 1.334 . S
C770 H741 0.950 . S
C770 C769 1.334 . S
C770 C771 1.287 . S
C771 C770 1.287 . S
C771 C772 1.524 . S
C771 H774 0.999 . S
C772 H742 0.950 . S
C772 C771 1.524 . S
C772 C773 1.415 . S
C773 H743 0.950 . S
C773 C768 1.363 . S
C773 C772 1.415 . S
H774 C771 0.999 . S
H775 C756 0.913 . S
H776 C794 0.951 . S
H777 C796 0.951 . S
H778 C798 0.950 . S
H779 C799 0.950 . S
H780 C801 0.950 . S
H781 C804 0.950 . S
H782 C805 0.950 . S
H783 C807 0.950 . S
H784 C808 0.950 . S
H785 C809 0.951 . S
H786 C811 0.951 . S
H787 C813 0.950 . S
H788 C814 0.950 . S
H789 C816 0.950 . S
H790 C819 0.950 . S
H791 C820 0.950 . S
H792 C822 0.950 . S
H793 C823 0.950 . S
C794 H776 0.951 . S
C794 C795 1.366 . S
C794 C796 1.388 . S
C795 C794 1.366 . S
C795 C799 1.385 . S
C796 H777 0.951 . S
C796 C794 1.388 . S
C796 C797 1.366 . S
C797 C796 1.366 . S
C797 C798 1.414 . S
C797 C800 1.499 . S
C798 H778 0.950 . S
C798 C797 1.414 . S
C798 C799 1.374 . S
C799 H779 0.950 . S
C799 C795 1.385 . S
C799 C798 1.374 . S
C800 C797 1.499 . S
C800 C801 1.373 . S
C800 C802 1.389 . S
C801 H780 0.950 . S
C801 C800 1.373 . S
C801 C817 1.377 . S
C802 C800 1.389 . S
C802 C803 1.524 . S
C802 C816 1.377 . S
C803 C802 1.524 . S
C803 C804 1.397 . S
C803 C808 1.363 . S
C804 H781 0.950 . S
C804 C803 1.397 . S
C804 C805 1.334 . S
C805 H782 0.950 . S
C805 C804 1.334 . S
C805 C806 1.287 . S
C806 C805 1.287 . S
C806 C807 1.524 . S
C806 H825 0.913 . S
C807 H783 0.950 . S
C807 C806 1.524 . S
C807 C808 1.415 . S
C808 H784 0.950 . S
C808 C803 1.363 . S
C808 C807 1.415 . S
C809 H785 0.951 . S
C809 C810 1.366 . S
C809 C811 1.388 . S
C810 C809 1.366 . S
C810 C814 1.385 . S
C811 H786 0.951 . S
C811 C809 1.388 . S
C811 C812 1.366 . S
C812 C811 1.366 . S
C812 C813 1.414 . S
C812 C815 1.499 . S
C813 H787 0.950 . S
C813 C812 1.414 . S
C813 C814 1.374 . S
C814 H788 0.950 . S
C814 C810 1.385 . S
C814 C813 1.374 . S
C815 C812 1.499 . S
C815 C816 1.373 . S
C815 C817 1.389 . S
C816 H789 0.950 . S
C816 C802 1.377 . S
C816 C815 1.373 . S
C817 C801 1.377 . S
C817 C815 1.389 . S
C817 C818 1.524 . S
C818 C817 1.524 . S
C818 C819 1.397 . S
C818 C823 1.363 . S
C819 H790 0.950 . S
C819 C818 1.397 . S
C819 C820 1.334 . S
C820 H791 0.950 . S
C820 C819 1.334 . S
C820 C821 1.287 . S
C821 C820 1.287 . S
C821 C822 1.524 . S
C821 H824 0.999 . S
C822 H792 0.950 . S
C822 C821 1.524 . S
C822 C823 1.415 . S
C823 H793 0.950 . S
C823 C818 1.363 . S
C823 C822 1.415 . S
H824 C821 0.999 . S
H825 C806 0.913 . S
H826 C844 0.951 . S
H827 C846 0.951 . S
H828 C848 0.950 . S
H829 C849 0.950 . S
H830 C851 0.950 . S
H831 C854 0.950 . S
H832 C855 0.950 . S
H833 C857 0.950 . S
H834 C858 0.950 . S
H835 C859 0.951 . S
H836 C861 0.951 . S
H837 C863 0.950 . S
H838 C864 0.950 . S
H839 C866 0.950 . S
H840 C869 0.950 . S
H841 C870 0.950 . S
H842 C872 0.950 . S
H843 C873 0.950 . S
C844 H826 0.951 . S
C844 C845 1.366 . S
C844 C846 1.388 . S
C845 C844 1.366 . S
C845 C849 1.385 . S
C846 H827 0.951 . S
C846 C844 1.388 . S
C846 C847 1.366 . S
C847 C846 1.366 . S
C847 C848 1.414 . S
C847 C850 1.499 . S
C848 H828 0.950 . S
C848 C847 1.414 . S
C848 C849 1.374 . S
C849 H829 0.950 . S
C849 C845 1.385 . S
C849 C848 1.374 . S
C850 C847 1.499 . S
C850 C851 1.373 . S
C850 C852 1.389 . S
C851 H830 0.950 . S
C851 C850 1.373 . S
C851 C867 1.377 . S
C852 C850 1.389 . S
C852 C853 1.524 . S
C852 C866 1.377 . S
C853 C852 1.524 . S
C853 C854 1.397 . S
C853 C858 1.363 . S
C854 H831 0.950 . S
C854 C853 1.397 . S
C854 C855 1.334 . S
C855 H832 0.950 . S
C855 C854 1.334 . S
C855 C856 1.287 . S
C856 C855 1.287 . S
C856 C857 1.524 . S
C856 H875 0.913 . S
C857 H833 0.950 . S
C857 C856 1.524 . S
C857 C858 1.415 . S
C858 H834 0.950 . S
C858 C853 1.363 . S
C858 C857 1.415 . S
C859 H835 0.951 . S
C859 C860 1.366 . S
C859 C861 1.388 . S
C860 C859 1.366 . S
C860 C864 1.385 . S
C861 H836 0.951 . S
C861 C859 1.388 . S
C861 C862 1.366 . S
C862 C861 1.366 . S
C862 C863 1.414 . S
C862 C865 1.499 . S
C863 H837 0.950 . S
C863 C862 1.414 . S
C863 C864 1.374 . S
C864 H838 0.950 . S
C864 C860 1.385 . S
C864 C863 1.374 . S
C865 C862 1.499 . S
C865 C866 1.373 . S
C865 C867 1.389 . S
C866 H839 0.950 . S
C866 C852 1.377 . S
C866 C865 1.373 . S
C867 C851 1.377 . S
C867 C865 1.389 . S
C867 C868 1.524 . S
C868 C867 1.524 . S
C868 C869 1.397 . S
C868 C873 1.363 . S
C869 H840 0.950 . S
C869 C868 1.397 . S
C869 C870 1.334 . S
C870 H841 0.950 . S
C870 C869 1.334 . S
C870 C871 1.287 . S
C871 C870 1.287 . S
C871 C872 1.524 . S
C871 H874 0.999 . S
C872 H842 0.950 . S
C872 C871 1.524 . S
C872 C873 1.415 . S
C873 H843 0.950 . S
C873 C868 1.363 . S
C873 C872 1.415 . S
H874 C871 0.999 . S
H875 C856 0.913 . S
H876 C894 0.951 . S
H877 C896 0.951 . S
H878 C898 0.950 . S
H879 C899 0.950 . S
H880 C901 0.950 . S
H881 C904 0.950 . S
H882 C905 0.950 . S
H883 C907 0.950 . S
H884 C908 0.950 . S
H885 C909 0.951 . S
H886 C911 0.951 . S
H887 C913 0.950 . S
H888 C914 0.950 . S
H889 C916 0.950 . S
H890 C919 0.950 . S
H891 C920 0.950 . S
H892 C922 0.950 . S
H893 C923 0.950 . S
C894 H876 0.951 . S
C894 C895 1.366 . S
C894 C896 1.388 . S
C895 C894 1.366 . S
C895 C899 1.385 . S
C896 H877 0.951 . S
C896 C894 1.388 . S
C896 C897 1.366 . S
C897 C896 1.366 . S
C897 C898 1.414 . S
C897 C900 1.499 . S
C898 H878 0.950 . S
C898 C897 1.414 . S
C898 C899 1.374 . S
C899 H879 0.950 . S
C899 C895 1.385 . S
C899 C898 1.374 . S
C900 C897 1.499 . S
C900 C901 1.373 . S
C900 C902 1.389 . S
C901 H880 0.950 . S
C901 C900 1.373 . S
C901 C917 1.377 . S
C902 C900 1.389 . S
C902 C903 1.524 . S
C902 C916 1.377 . S
C903 C902 1.524 . S
C903 C904 1.397 . S
C903 C908 1.363 . S
C904 H881 0.950 . S
C904 C903 1.397 . S
C904 C905 1.334 . S
C905 H882 0.950 . S
C905 C904 1.334 . S
C905 C906 1.287 . S
C906 C905 1.287 . S
C906 C907 1.524 . S
C906 H925 0.913 . S
C907 H883 0.950 . S
C907 C906 1.524 . S
C907 C908 1.415 . S
C908 H884 0.950 . S
C908 C903 1.363 . S
C908 C907 1.415 . S
C909 H885 0.951 . S
C909 C910 1.366 . S
C909 C911 1.388 . S
C910 C909 1.366 . S
C910 C914 1.385 . S
C911 H886 0.951 . S
C911 C909 1.388 . S
C911 C912 1.366 . S
C912 C911 1.366 . S
C912 C913 1.414 . S
C912 C915 1.499 . S
C913 H887 0.950 . S
C913 C912 1.414 . S
C913 C914 1.374 . S
C914 H888 0.950 . S
C914 C910 1.385 . S
C914 C913 1.374 . S
C915 C912 1.499 . S
C915 C916 1.373 . S
C915 C917 1.389 . S
C916 H889 0.950 . S
C916 C902 1.377 . S
C916 C915 1.373 . S
C917 C901 1.377 . S
C917 C915 1.389 . S
C917 C918 1.524 . S
C918 C917 1.524 . S
C918 C919 1.397 . S
C918 C923 1.363 . S
C919 H890 0.950 . S
C919 C918 1.397 . S
C919 C920 1.334 . S
C920 H891 0.950 . S
C920 C919 1.334 . S
C920 C921 1.287 . S
C921 C920 1.287 . S
C921 C922 1.524 . S
C921 H924 0.999 . S
C922 H892 0.950 . S
C922 C921 1.524 . S
C922 C923 1.415 . S
C923 H893 0.950 . S
C923 C918 1.363 . S
C923 C922 1.415 . S
H924 C921 0.999 . S
H925 C906 0.913 . S
H926 C944 0.951 . S
H927 C946 0.951 . S
H928 C948 0.950 . S
H929 C949 0.950 . S
H930 C951 0.950 . S
H931 C954 0.950 . S
H932 C955 0.950 . S
H933 C957 0.950 . S
H934 C958 0.950 . S
H935 C959 0.951 . S
H936 C961 0.951 . S
H937 C963 0.950 . S
H938 C964 0.950 . S
H939 C966 0.950 . S
H940 C969 0.950 . S
H941 C970 0.950 . S
H942 C972 0.950 . S
H943 C973 0.950 . S
C944 H926 0.951 . S
C944 C945 1.366 . S
C944 C946 1.388 . S
C945 C944 1.366 . S
C945 C949 1.385 . S
C946 H927 0.951 . S
C946 C944 1.388 . S
C946 C947 1.366 . S
C947 C946 1.366 . S
C947 C948 1.414 . S
C947 C950 1.499 . S
C948 H928 0.950 . S
C948 C947 1.414 . S
C948 C949 1.374 . S
C949 H929 0.950 . S
C949 C945 1.385 . S
C949 C948 1.374 . S
C950 C947 1.499 . S
C950 C951 1.373 . S
C950 C952 1.389 . S
C951 H930 0.950 . S
C951 C950 1.373 . S
C951 C967 1.377 . S
C952 C950 1.389 . S
C952 C953 1.524 . S
C952 C966 1.377 . S
C953 C952 1.524 . S
C953 C954 1.397 . S
C953 C958 1.363 . S
C954 H931 0.950 . S
C954 C953 1.397 . S
C954 C955 1.334 . S
C955 H932 0.950 . S
C955 C954 1.334 . S
C955 C956 1.287 . S
C956 C955 1.287 . S
C956 C957 1.524 . S
C956 H975 0.913 . S
C957 H933 0.950 . S
C957 C956 1.524 . S
C957 C958 1.415 . S
C958 H934 0.950 . S
C958 C953 1.363 . S
C958 C957 1.415 . S
C959 H935 0.951 . S
C959 C960 1.366 . S
C959 C961 1.388 . S
C960 C959 1.366 . S
C960 C964 1.385 . S
C961 H936 0.951 . S
C961 C959 1.388 . S
C961 C962 1.366 . S
C962 C961 1.366 . S
C962 C963 1.414 . S
C962 C965 1.499 . S
C963 H937 0.950 . S
C963 C962 1.414 . S
C963 C964 1.374 . S
C964 H938 0.950 . S
C964 C960 1.385 . S
C964 C963 1.374 . S
C965 C962 1.499 . S
C965 C966 1.373 . S
C965 C967 1.389 . S
C966 H939 0.950 . S
C966 C952 1.377 . S
C966 C965 1.373 . S
C967 C951 1.377 . S
C967 C965 1.389 . S
C967 C968 1.524 . S
C968 C967 1.524 . S
C968 C969 1.397 . S
C968 C973 1.363 . S
C969 H940 0.950 . S
C969 C968 1.397 . S
C969 C970 1.334 . S
C970 H941 0.950 . S
C970 C969 1.334 . S
C970 C971 1.287 . S
C971 C970 1.287 . S
C971 C972 1.524 . S
C971 H974 0.999 . S
C972 H942 0.950 . S
C972 C971 1.524 . S
C972 C973 1.415 . S
C973 H943 0.950 . S
C973 C968 1.363 . S
C973 C972 1.415 . S
H974 C971 0.999 . S
H975 C956 0.913 . S
H976 C994 0.951 . S
H977 C996 0.951 . S
H978 C998 0.950 . S
H979 C999 0.950 . S
H980 C1001 0.950 . S
H981 C1004 0.950 . S
H982 C1005 0.950 . S
H983 C1007 0.950 . S
H984 C1008 0.950 . S
H985 C1009 0.951 . S
H986 C1011 0.951 . S
H987 C1013 0.950 . S
H988 C1014 0.950 . S
H989 C1016 0.950 . S
H990 C1019 0.950 . S
H991 C1020 0.950 . S
H992 C1022 0.950 . S
H993 C1023 0.950 . S
C994 H976 0.951 . S
C994 C995 1.366 . S
C994 C996 1.388 . S
C995 C994 1.366 . S
C995 C999 1.385 . S
C996 H977 0.951 . S
C996 C994 1.388 . S
C996 C997 1.366 . S
C997 C996 1.366 . S
C997 C998 1.414 . S
C997 C1000 1.499 . S
C998 H978 0.950 . S
C998 C997 1.414 . S
C998 C999 1.374 . S
C999 H979 0.950 . S
C999 C995 1.385 . S
C999 C998 1.374 . S
C1000 C997 1.499 . S
C1000 C1001 1.373 . S
C1000 C1002 1.389 . S
C1001 H980 0.950 . S
C1001 C1000 1.373 . S
C1001 C1017 1.377 . S
C1002 C1000 1.389 . S
C1002 C1003 1.524 . S
C1002 C1016 1.377 . S
C1003 C1002 1.524 . S
C1003 C1004 1.397 . S
C1003 C1008 1.363 . S
C1004 H981 0.950 . S
C1004 C1003 1.397 . S
C1004 C1005 1.334 . S
C1005 H982 0.950 . S
C1005 C1004 1.334 . S
C1005 C1006 1.287 . S
C1006 C1005 1.287 . S
C1006 C1007 1.524 . S
C1006 H1025 0.913 . S
C1007 H983 0.950 . S
C1007 C1006 1.524 . S
C1007 C1008 1.415 . S
C1008 H984 0.950 . S
C1008 C1003 1.363 . S
C1008 C1007 1.415 . S
C1009 H985 0.951 . S
C1009 C1010 1.366 . S
C1009 C1011 1.388 . S
C1010 C1009 1.366 . S
C1010 C1014 1.385 . S
C1011 H986 0.951 . S
C1011 C1009 1.388 . S
C1011 C1012 1.366 . S
C1012 C1011 1.366 . S
C1012 C1013 1.414 . S
C1012 C1015 1.499 . S
C1013 H987 0.950 . S
C1013 C1012 1.414 . S
C1013 C1014 1.374 . S
C1014 H988 0.950 . S
C1014 C1010 1.385 . S
C1014 C1013 1.374 . S
C1015 C1012 1.499 . S
C1015 C1016 1.373 . S
C1015 C1017 1.389 . S
C1016 H989 0.950 . S
C1016 C1002 1.377 . S
C1016 C1015 1.373 . S
C1017 C1001 1.377 . S
C1017 C1015 1.389 . S
C1017 C1018 1.524 . S
C1018 C1017 1.524 . S
C1018 C1019 1.397 . S
C1018 C1023 1.363 . S
C1019 H990 0.950 . S
C1019 C1018 1.397 . S
C1019 C1020 1.334 . S
C1020 H991 0.950 . S
C1020 C1019 1.334 . S
C1020 C1021 1.287 . S
C1021 C1020 1.287 . S
C1021 C1022 1.524 . S
C1021 H1024 0.999 . S
C1022 H992 0.950 . S
C1022 C1021 1.524 . S
C1022 C1023 1.415 . S
C1023 H993 0.950 . S
C1023 C1018 1.363 . S
C1023 C1022 1.415 . S
H1024 C1021 0.999 . S
H1025 C1006 0.913 . S
H1026 C1044 0.951 . S
H1027 C1046 0.951 . S
H1028 C1048 0.950 . S
H1029 C1049 0.950 . S
H1030 C1051 0.950 . S
H1031 C1054 0.950 . S
H1032 C1055 0.950 . S
H1033 C1057 0.950 . S
H1034 C1058 0.950 . S
H1035 C1059 0.951 . S
H1036 C1061 0.951 . S
H1037 C1063 0.950 . S
H1038 C1064 0.950 . S
H1039 C1066 0.950 . S
H1040 C1069 0.950 . S
H1041 C1070 0.950 . S
H1042 C1072 0.950 . S
H1043 C1073 0.950 . S
C1044 H1026 0.951 . S
C1044 C1045 1.366 . S
C1044 C1046 1.388 . S
C1045 C1044 1.366 . S
C1045 C1049 1.385 . S
C1046 H1027 0.951 . S
C1046 C1044 1.388 . S
C1046 C1047 1.366 . S
C1047 C1046 1.366 . S
C1047 C1048 1.414 . S
C1047 C1050 1.499 . S
C1048 H1028 0.950 . S
C1048 C1047 1.414 . S
C1048 C1049 1.374 . S
C1049 H1029 0.950 . S
C1049 C1045 1.385 . S
C1049 C1048 1.374 . S
C1050 C1047 1.499 . S
C1050 C1051 1.373 . S
C1050 C1052 1.389 . S
C1051 H1030 0.950 . S
C1051 C1050 1.373 . S
C1051 C1067 1.377 . S
C1052 C1050 1.389 . S
C1052 C1053 1.524 . S
C1052 C1066 1.377 . S
C1053 C1052 1.524 . S
C1053 C1054 1.397 . S
C1053 C1058 1.363 . S
C1054 H1031 0.950 . S
C1054 C1053 1.397 . S
C1054 C1055 1.334 . S
C1055 H1032 0.950 . S
C1055 C1054 1.334 . S
C1055 C1056 1.287 . S
C1056 C1055 1.287 . S
C1056 C1057 1.524 . S
C1056 H1075 0.913 . S
C1057 H1033 0.950 . S
C1057 C1056 1.524 . S
C1057 C1058 1.415 . S
C1058 H1034 0.950 . S
C1058 C1053 1.363 . S
C1058 C1057 1.415 . S
C1059 H1035 0.951 . S
C1059 C1060 1.366 . S
C1059 C1061 1.388 . S
C1060 C1059 1.366 . S
C1060 C1064 1.385 . S
C1061 H1036 0.951 . S
C1061 C1059 1.388 . S
C1061 C1062 1.366 . S
C1062 C1061 1.366 . S
C1062 C1063 1.414 . S
C1062 C1065 1.499 . S
C1063 H1037 0.950 . S
C1063 C1062 1.414 . S
C1063 C1064 1.374 . S
C1064 H1038 0.950 . S
C1064 C1060 1.385 . S
C1064 C1063 1.374 . S
C1065 C1062 1.499 . S
C1065 C1066 1.373 . S
C1065 C1067 1.389 . S
C1066 H1039 0.950 . S
C1066 C1052 1.377 . S
C1066 C1065 1.373 . S
C1067 C1051 1.377 . S
C1067 C1065 1.389 . S
C1067 C1068 1.524 . S
C1068 C1067 1.524 . S
C1068 C1069 1.397 . S
C1068 C1073 1.363 . S
C1069 H1040 0.950 . S
C1069 C1068 1.397 . S
C1069 C1070 1.334 . S
C1070 H1041 0.950 . S
C1070 C1069 1.334 . S
C1070 C1071 1.287 . S
C1071 C1070 1.287 . S
C1071 C1072 1.524 . S
C1071 H1074 0.999 . S
C1072 H1042 0.950 . S
C1072 C1071 1.524 . S
C1072 C1073 1.415 . S
C1073 H1043 0.950 . S
C1073 C1068 1.363 . S
C1073 C1072 1.415 . S
H1074 C1071 0.999 . S
H1075 C1056 0.913 . S
H1076 C1094 0.951 . S
H1077 C1096 0.951 . S
H1078 C1098 0.950 . S
H1079 C1099 0.950 . S
H1080 C1101 0.950 . S
H1081 C1104 0.950 . S
H1082 C1105 0.950 . S
H1083 C1107 0.950 . S
H1084 C1108 0.950 . S
H1085 C1109 0.951 . S
H1086 C1111 0.951 . S
H1087 C1113 0.950 . S
H1088 C1114 0.950 . S
H1089 C1116 0.950 . S
H1090 C1119 0.950 . S
H1091 C1120 0.950 . S
H1092 C1122 0.950 . S
H1093 C1123 0.950 . S
C1094 H1076 0.951 . S
C1094 C1095 1.366 . S
C1094 C1096 1.388 . S
C1095 C1094 1.366 . S
C1095 C1099 1.385 . S
C1096 H1077 0.951 . S
C1096 C1094 1.388 . S
C1096 C1097 1.366 . S
C1097 C1096 1.366 . S
C1097 C1098 1.414 . S
C1097 C1100 1.499 . S
C1098 H1078 0.950 . S
C1098 C1097 1.414 . S
C1098 C1099 1.374 . S
C1099 H1079 0.950 . S
C1099 C1095 1.385 . S
C1099 C1098 1.374 . S
C1100 C1097 1.499 . S
C1100 C1101 1.373 . S
C1100 C1102 1.389 . S
C1101 H1080 0.950 . S
C1101 C1100 1.373 . S
C1101 C1117 1.377 . S
C1102 C1100 1.389 . S
C1102 C1103 1.524 . S
C1102 C1116 1.377 . S
C1103 C1102 1.524 . S
C1103 C1104 1.397 . S
C1103 C1108 1.363 . S
C1104 H1081 0.950 . S
C1104 C1103 1.397 . S
C1104 C1105 1.334 . S
C1105 H1082 0.950 . S
C1105 C1104 1.334 . S
C1105 C1106 1.287 . S
C1106 C1105 1.287 . S
C1106 C1107 1.524 . S
C1106 H1125 0.913 . S
C1107 H1083 0.950 . S
C1107 C1106 1.524 . S
C1107 C1108 1.415 . S
C1108 H1084 0.950 . S
C1108 C1103 1.363 . S
C1108 C1107 1.415 . S
C1109 H1085 0.951 . S
C1109 C1110 1.366 . S
C1109 C1111 1.388 . S
C1110 C1109 1.366 . S
C1110 C1114 1.385 . S
C1111 H1086 0.951 . S
C1111 C1109 1.388 . S
C1111 C1112 1.366 . S
C1112 C1111 1.366 . S
C1112 C1113 1.414 . S
C1112 C1115 1.499 . S
C1113 H1087 0.950 . S
C1113 C1112 1.414 . S
C1113 C1114 1.374 . S
C1114 H1088 0.950 . S
C1114 C1110 1.385 . S
C1114 C1113 1.374 . S
C1115 C1112 1.499 . S
C1115 C1116 1.373 . S
C1115 C1117 1.389 . S
C1116 H1089 0.950 . S
C1116 C1102 1.377 . S
C1116 C1115 1.373 . S
C1117 C1101 1.377 . S
C1117 C1115 1.389 . S
C1117 C1118 1.524 . S
C1118 C1117 1.524 . S
C1118 C1119 1.397 . S
C1118 C1123 1.363 . S
C1119 H1090 0.950 . S
C1119 C1118 1.397 . S
C1119 C1120 1.334 . S
C1120 H1091 0.950 . S
C1120 C1119 1.334 . S
C1120 C1121 1.287 . S
C1121 C1120 1.287 . S
C1121 C1122 1.524 . S
C1121 H1124 0.999 . S
C1122 H1092 0.950 . S
C1122 C1121 1.524 . S
C1122 C1123 1.415 . S
C1123 H1093 0.950 . S
C1123 C1118 1.363 . S
C1123 C1122 1.415 . S
H1124 C1121 0.999 . S
H1125 C1106 0.913 . S
H1126 C1144 0.951 . S
H1127 C1146 0.951 . S
H1128 C1148 0.950 . S
H1129 C1149 0.950 . S
H1130 C1151 0.950 . S
H1131 C1154 0.950 . S
H1132 C1155 0.950 . S
H1133 C1157 0.950 . S
H1134 C1158 0.950 . S
H1135 C1159 0.951 . S
H1136 C1161 0.951 . S
H1137 C1163 0.950 . S
H1138 C1164 0.950 . S
H1139 C1166 0.950 . S
H1140 C1169 0.950 . S
H1141 C1170 0.950 . S
H1142 C1172 0.950 . S
H1143 C1173 0.950 . S
C1144 H1126 0.951 . S
C1144 C1145 1.366 . S
C1144 C1146 1.388 . S
C1145 C1144 1.366 . S
C1145 C1149 1.385 . S
C1146 H1127 0.951 . S
C1146 C1144 1.388 . S
C1146 C1147 1.366 . S
C1147 C1146 1.366 . S
C1147 C1148 1.414 . S
C1147 C1150 1.499 . S
C1148 H1128 0.950 . S
C1148 C1147 1.414 . S
C1148 C1149 1.374 . S
C1149 H1129 0.950 . S
C1149 C1145 1.385 . S
C1149 C1148 1.374 . S
C1150 C1147 1.499 . S
C1150 C1151 1.373 . S
C1150 C1152 1.389 . S
C1151 H1130 0.950 . S
C1151 C1150 1.373 . S
C1151 C1167 1.377 . S
C1152 C1150 1.389 . S
C1152 C1153 1.524 . S
C1152 C1166 1.377 . S
C1153 C1152 1.524 . S
C1153 C1154 1.397 . S
C1153 C1158 1.363 . S
C1154 H1131 0.950 . S
C1154 C1153 1.397 . S
C1154 C1155 1.334 . S
C1155 H1132 0.950 . S
C1155 C1154 1.334 . S
C1155 C1156 1.287 . S
C1156 C1155 1.287 . S
C1156 C1157 1.524 . S
C1156 H1175 0.913 . S
C1157 H1133 0.950 . S
C1157 C1156 1.524 . S
C1157 C1158 1.415 . S
C1158 H1134 0.950 . S
C1158 C1153 1.363 . S
C1158 C1157 1.415 . S
C1159 H1135 0.951 . S
C1159 C1160 1.366 . S
C1159 C1161 1.388 . S
C1160 C1159 1.366 . S
C1160 C1164 1.385 . S
C1161 H1136 0.951 . S
C1161 C1159 1.388 . S
C1161 C1162 1.366 . S
C1162 C1161 1.366 . S
C1162 C1163 1.414 . S
C1162 C1165 1.499 . S
C1163 H1137 0.950 . S
C1163 C1162 1.414 . S
C1163 C1164 1.374 . S
C1164 H1138 0.950 . S
C1164 C1160 1.385 . S
C1164 C1163 1.374 . S
C1165 C1162 1.499 . S
C1165 C1166 1.373 . S
C1165 C1167 1.389 . S
C1166 H1139 0.950 . S
C1166 C1152 1.377 . S
C1166 C1165 1.373 . S
C1167 C1151 1.377 . S
C1167 C1165 1.389 . S
C1167 C1168 1.524 . S
C1168 C1167 1.524 . S
C1168 C1169 1.397 . S
C1168 C1173 1.363 . S
C1169 H1140 0.950 . S
C1169 C1168 1.397 . S
C1169 C1170 1.334 . S
C1170 H1141 0.950 . S
C1170 C1169 1.334 . S
C1170 C1171 1.287 . S
C1171 C1170 1.287 . S
C1171 C1172 1.524 . S
C1171 H1174 0.999 . S
C1172 H1142 0.950 . S
C1172 C1171 1.524 . S
C1172 C1173 1.415 . S
C1173 H1143 0.950 . S
C1173 C1168 1.363 . S
C1173 C1172 1.415 . S
H1174 C1171 0.999 . S
H1175 C1156 0.913 . S
H1176 C1194 0.951 . S
H1177 C1196 0.951 . S
H1178 C1198 0.950 . S
H1179 C1199 0.950 . S
H1180 C1201 0.950 . S
H1181 C1204 0.950 . S
H1182 C1205 0.950 . S
H1183 C1207 0.950 . S
H1184 C1208 0.950 . S
H1185 C1209 0.951 . S
H1186 C1211 0.951 . S
H1187 C1213 0.950 . S
H1188 C1214 0.950 . S
H1189 C1216 0.950 . S
H1190 C1219 0.950 . S
H1191 C1220 0.950 . S
H1192 C1222 0.950 . S
H1193 C1223 0.950 . S
C1194 H1176 0.951 . S
C1194 C1195 1.366 . S
C1194 C1196 1.388 . S
C1195 C1194 1.366 . S
C1195 C1199 1.385 . S
C1196 H1177 0.951 . S
C1196 C1194 1.388 . S
C1196 C1197 1.366 . S
C1197 C1196 1.366 . S
C1197 C1198 1.414 . S
C1197 C1200 1.499 . S
C1198 H1178 0.950 . S
C1198 C1197 1.414 . S
C1198 C1199 1.374 . S
C1199 H1179 0.950 . S
C1199 C1195 1.385 . S
C1199 C1198 1.374 . S
C1200 C1197 1.499 . S
C1200 C1201 1.383 . S
C1200 C1202 1.381 1_455 S
C1201 H1180 0.950 . S
C1201 C1200 1.383 . S
C1201 C1217 1.375 1_545 S
C1202 C1200 1.381 1_655 S
C1202 C1203 1.525 . S
C1202 C1216 1.375 1_545 S
C1203 C1202 1.525 . S
C1203 C1204 1.397 1_655 S
C1203 C1208 1.363 . S
C1204 H1181 0.950 . S
C1204 C1203 1.397 1_455 S
C1204 C1205 1.334 . S
C1205 H1182 0.950 . S
C1205 C1204 1.334 . S
C1205 C1206 1.316 . S
C1206 C1205 1.316 . S
C1206 C1207 1.494 1_455 S
C1206 H1225 0.915 . S
C1207 H1183 0.950 . S
C1207 C1206 1.494 1_655 S
C1207 C1208 1.415 . S
C1208 H1184 0.950 . S
C1208 C1203 1.363 . S
C1208 C1207 1.415 . S
C1209 H1185 0.951 . S
C1209 C1210 1.366 . S
C1209 C1211 1.388 . S
C1210 C1209 1.366 . S
C1210 C1214 1.385 . S
C1211 H1186 0.951 . S
C1211 C1209 1.388 . S
C1211 C1212 1.366 . S
C1212 C1211 1.366 . S
C1212 C1213 1.414 . S
C1212 C1215 1.499 . S
C1213 H1187 0.950 . S
C1213 C1212 1.414 . S
C1213 C1214 1.374 . S
C1214 H1188 0.950 . S
C1214 C1210 1.385 . S
C1214 C1213 1.374 . S
C1215 C1212 1.499 . S
C1215 C1216 1.383 . S
C1215 C1217 1.381 1_655 S
C1216 H1189 0.950 . S
C1216 C1202 1.375 1_565 S
C1216 C1215 1.383 . S
C1217 C1201 1.375 1_565 S
C1217 C1215 1.381 1_455 S
C1217 C1218 1.525 . S
C1218 C1217 1.525 . S
C1218 C1219 1.397 1_455 S
C1218 C1223 1.363 . S
C1219 H1190 0.950 . S
C1219 C1218 1.397 1_655 S
C1219 C1220 1.334 . S
C1220 H1191 0.950 . S
C1220 C1219 1.334 . S
C1220 C1221 1.316 . S
C1221 C1220 1.316 . S
C1221 C1222 1.494 1_655 S
C1221 H1224 0.999 . S
C1222 H1192 0.950 . S
C1222 C1221 1.494 1_455 S
C1222 C1223 1.415 . S
C1223 H1193 0.950 . S
C1223 C1218 1.363 . S
C1223 C1222 1.415 . S
H1224 C1221 0.999 . S
H1225 C1206 0.915 . S
H1226 C1244 0.951 . S
H1227 C1246 0.951 . S
H1228 C1248 0.950 . S
H1229 C1249 0.950 . S
H1230 C1251 0.950 . S
H1231 C1254 0.950 . S
H1232 C1255 0.950 . S
H1233 C1257 0.951 . S
H1234 C1258 0.954 . S
H1235 C1259 0.951 . S
H1236 C1261 0.951 . S
H1237 C1263 0.950 . S
H1238 C1264 0.950 . S
H1239 C1266 0.950 . S
H1240 C1269 0.950 . S
H1241 C1270 0.950 . S
H1242 C1272 0.951 . S
H1243 C1273 0.954 . S
C1244 H1226 0.951 . S
C1244 C1245 1.366 . S
C1244 C1246 1.388 . S
C1245 C1244 1.366 . S
C1245 C1249 1.385 . S
C1246 H1227 0.951 . S
C1246 C1244 1.388 . S
C1246 C1247 1.366 . S
C1247 C1246 1.366 . S
C1247 C1248 1.414 . S
C1247 C1250 1.499 . S
C1248 H1228 0.950 . S
C1248 C1247 1.414 . S
C1248 C1249 1.374 . S
C1249 H1229 0.950 . S
C1249 C1245 1.385 . S
C1249 C1248 1.374 . S
C1250 C1247 1.499 . S
C1250 C1251 1.373 . S
C1250 C1252 1.389 . S
C1251 H1230 0.950 . S
C1251 C1250 1.373 . S
C1251 C1267 1.377 1_645 S
C1252 C1250 1.389 . S
C1252 C1253 1.524 . S
C1252 C1266 1.377 1_645 S
C1253 C1252 1.524 . S
C1253 C1254 1.397 1_655 S
C1253 C1258 1.362 . S
C1254 H1231 0.950 . S
C1254 C1253 1.397 1_455 S
C1254 C1255 1.334 . S
C1255 H1232 0.950 . S
C1255 C1254 1.334 . S
C1255 C1256 1.287 . S
C1256 C1255 1.287 . S
C1256 C1257 1.524 . S
C1256 H1275 0.913 . S
C1257 H1233 0.951 . S
C1257 C1256 1.524 . S
C1257 C1258 1.413 1_455 S
C1258 H1234 0.954 . S
C1258 C1253 1.362 . S
C1258 C1257 1.413 1_655 S
C1259 H1235 0.951 . S
C1259 C1260 1.366 . S
C1259 C1261 1.388 . S
C1260 C1259 1.366 . S
C1260 C1264 1.385 . S
C1261 H1236 0.951 . S
C1261 C1259 1.388 . S
C1261 C1262 1.366 . S
C1262 C1261 1.366 . S
C1262 C1263 1.414 . S
C1262 C1265 1.499 . S
C1263 H1237 0.950 . S
C1263 C1262 1.414 . S
C1263 C1264 1.374 . S
C1264 H1238 0.950 . S
C1264 C1260 1.385 . S
C1264 C1263 1.374 . S
C1265 C1262 1.499 . S
C1265 C1266 1.373 . S
C1265 C1267 1.389 . S
C1266 H1239 0.950 . S
C1266 C1252 1.377 1_465 S
C1266 C1265 1.373 . S
C1267 C1251 1.377 1_465 S
C1267 C1265 1.389 . S
C1267 C1268 1.524 . S
C1268 C1267 1.524 . S
C1268 C1269 1.397 1_455 S
C1268 C1273 1.362 . S
C1269 H1240 0.950 . S
C1269 C1268 1.397 1_655 S
C1269 C1270 1.334 . S
C1270 H1241 0.950 . S
C1270 C1269 1.334 . S
C1270 C1271 1.287 . S
C1271 C1270 1.287 . S
C1271 C1272 1.524 . S
C1271 H1274 0.999 . S
C1272 H1242 0.951 . S
C1272 C1271 1.524 . S
C1272 C1273 1.413 1_655 S
C1273 H1243 0.954 . S
C1273 C1268 1.362 . S
C1273 C1272 1.413 1_455 S
H1274 C1271 0.999 . S
H1275 C1256 0.913 . S
H1276 C1294 0.951 . S
H1277 C1296 0.951 . S
H1278 C1298 0.950 . S
H1279 C1299 0.950 . S
H1280 C1301 0.950 . S
H1281 C1304 0.950 . S
H1282 C1305 0.950 . S
H1283 C1307 0.950 . S
H1284 C1308 0.950 . S
H1285 C1309 0.951 . S
H1286 C1311 0.951 . S
H1287 C1313 0.950 . S
H1288 C1314 0.950 . S
H1289 C1316 0.950 . S
H1290 C1319 0.950 . S
H1291 C1320 0.950 . S
H1292 C1322 0.950 . S
H1293 C1323 0.950 . S
C1294 H1276 0.951 . S
C1294 C1295 1.366 . S
C1294 C1296 1.388 . S
C1295 C1294 1.366 . S
C1295 C1299 1.385 . S
C1296 H1277 0.951 . S
C1296 C1294 1.388 . S
C1296 C1297 1.366 . S
C1297 C1296 1.366 . S
C1297 C1298 1.414 . S
C1297 C1300 1.499 . S
C1298 H1278 0.950 . S
C1298 C1297 1.414 . S
C1298 C1299 1.374 . S
C1299 H1279 0.950 . S
C1299 C1295 1.385 . S
C1299 C1298 1.374 . S
C1300 C1297 1.499 . S
C1300 C1301 1.373 1_556 S
C1300 C1302 1.389 1_565 S
C1301 H1280 0.950 . S
C1301 C1300 1.373 1_554 S
C1301 C1317 1.377 . S
C1302 C1300 1.389 1_545 S
C1302 C1303 1.524 . S
C1302 C1316 1.377 . S
C1303 C1302 1.524 . S
C1303 C1304 1.397 . S
C1303 C1308 1.363 . S
C1304 H1281 0.950 . S
C1304 C1303 1.397 . S
C1304 C1305 1.334 . S
C1305 H1282 0.950 . S
C1305 C1304 1.334 . S
C1305 C1306 1.287 . S
C1306 C1305 1.287 . S
C1306 C1307 1.524 . S
C1306 H1325 0.913 . S
C1307 H1283 0.950 . S
C1307 C1306 1.524 . S
C1307 C1308 1.415 . S
C1308 H1284 0.950 . S
C1308 C1303 1.363 . S
C1308 C1307 1.415 . S
C1309 H1285 0.951 . S
C1309 C1310 1.366 . S
C1309 C1311 1.388 . S
C1310 C1309 1.366 . S
C1310 C1314 1.385 . S
C1311 H1286 0.951 . S
C1311 C1309 1.388 . S
C1311 C1312 1.366 . S
C1312 C1311 1.366 . S
C1312 C1313 1.414 . S
C1312 C1315 1.499 . S
C1313 H1287 0.950 . S
C1313 C1312 1.414 . S
C1313 C1314 1.374 . S
C1314 H1288 0.950 . S
C1314 C1310 1.385 . S
C1314 C1313 1.374 . S
C1315 C1312 1.499 . S
C1315 C1316 1.373 1_554 S
C1315 C1317 1.389 1_545 S
C1316 H1289 0.950 . S
C1316 C1302 1.377 . S
C1316 C1315 1.373 1_556 S
C1317 C1301 1.377 . S
C1317 C1315 1.389 1_565 S
C1317 C1318 1.524 . S
C1318 C1317 1.524 . S
C1318 C1319 1.397 . S
C1318 C1323 1.363 . S
C1319 H1290 0.950 . S
C1319 C1318 1.397 . S
C1319 C1320 1.334 . S
C1320 H1291 0.950 . S
C1320 C1319 1.334 . S
C1320 C1321 1.287 . S
C1321 C1320 1.287 . S
C1321 C1322 1.524 . S
C1321 H1324 0.999 . S
C1322 H1292 0.950 . S
C1322 C1321 1.524 . S
C1322 C1323 1.415 . S
C1323 H1293 0.950 . S
C1323 C1318 1.363 . S
C1323 C1322 1.415 . S
H1324 C1321 0.999 . S
H1325 C1306 0.913 . S
H1326 C1344 0.951 . S
H1327 C1346 0.951 . S
H1328 C1348 0.950 . S
H1329 C1349 0.950 . S
H1330 C1351 0.950 . S
H1331 C1354 0.950 . S
H1332 C1355 0.950 . S
H1333 C1357 0.950 . S
H1334 C1358 0.950 . S
H1335 C1359 0.951 . S
H1336 C1361 0.951 . S
H1337 C1363 0.950 . S
H1338 C1364 0.950 . S
H1339 C1366 0.950 . S
H1340 C1369 0.950 . S
H1341 C1370 0.950 . S
H1342 C1372 0.950 . S
H1343 C1373 0.950 . S
C1344 H1326 0.951 . S
C1344 C1345 1.366 . S
C1344 C1346 1.388 . S
C1345 C1344 1.366 . S
C1345 C1349 1.385 . S
C1346 H1327 0.951 . S
C1346 C1344 1.388 . S
C1346 C1347 1.366 . S
C1347 C1346 1.366 . S
C1347 C1348 1.414 . S
C1347 C1350 1.499 . S
C1348 H1328 0.950 . S
C1348 C1347 1.414 . S
C1348 C1349 1.374 . S
C1349 H1329 0.950 . S
C1349 C1345 1.385 . S
C1349 C1348 1.374 . S
C1350 C1347 1.499 . S
C1350 C1351 1.373 . S
C1350 C1352 1.395 . S
C1351 H1330 0.950 . S
C1351 C1350 1.373 . S
C1351 C1367 1.371 1_564 S
C1352 C1350 1.395 . S
C1352 C1353 1.524 1_565 S
C1352 C1366 1.371 1_564 S
C1353 C1352 1.524 1_545 S
C1353 C1354 1.397 . S
C1353 C1358 1.363 . S
C1354 H1331 0.950 . S
C1354 C1353 1.397 . S
C1354 C1355 1.334 . S
C1355 H1332 0.950 . S
C1355 C1354 1.334 . S
C1355 C1356 1.287 . S
C1356 C1355 1.287 . S
C1356 C1357 1.524 . S
C1356 H1375 0.913 . S
C1357 H1333 0.950 . S
C1357 C1356 1.524 . S
C1357 C1358 1.415 . S
C1358 H1334 0.950 . S
C1358 C1353 1.363 . S
C1358 C1357 1.415 . S
C1359 H1335 0.951 . S
C1359 C1360 1.366 . S
C1359 C1361 1.388 . S
C1360 C1359 1.366 . S
C1360 C1364 1.385 . S
C1361 H1336 0.951 . S
C1361 C1359 1.388 . S
C1361 C1362 1.366 . S
C1362 C1361 1.366 . S
C1362 C1363 1.414 . S
C1362 C1365 1.499 . S
C1363 H1337 0.950 . S
C1363 C1362 1.414 . S
C1363 C1364 1.374 . S
C1364 H1338 0.950 . S
C1364 C1360 1.385 . S
C1364 C1363 1.374 . S
C1365 C1362 1.499 . S
C1365 C1366 1.373 . S
C1365 C1367 1.395 . S
C1366 H1339 0.950 . S
C1366 C1352 1.371 1_546 S
C1366 C1365 1.373 . S
C1367 C1351 1.371 1_546 S
C1367 C1365 1.395 . S
C1367 C1368 1.524 1_545 S
C1368 C1367 1.524 1_565 S
C1368 C1369 1.397 . S
C1368 C1373 1.363 . S
C1369 H1340 0.950 . S
C1369 C1368 1.397 . S
C1369 C1370 1.334 . S
C1370 H1341 0.950 . S
C1370 C1369 1.334 . S
C1370 C1371 1.287 . S
C1371 C1370 1.287 . S
C1371 C1372 1.524 . S
C1371 H1374 0.999 . S
C1372 H1342 0.950 . S
C1372 C1371 1.524 . S
C1372 C1373 1.415 . S
C1373 H1343 0.950 . S
C1373 C1368 1.363 . S
C1373 C1372 1.415 . S
H1374 C1371 0.999 . S
H1375 C1356 0.913 . S
H1376 C1394 0.951 . S
H1377 C1396 0.951 . S
H1378 C1398 0.950 . S
H1379 C1399 0.950 . S
H1380 C1401 0.950 . S
H1381 C1404 0.950 . S
H1382 C1405 0.950 . S
H1383 C1407 0.950 1_554 S
H1384 C1408 0.950 . S
H1385 C1409 0.951 . S
H1386 C1411 0.951 . S
H1387 C1413 0.950 . S
H1388 C1414 0.950 . S
H1389 C1416 0.950 . S
H1390 C1419 0.950 . S
H1391 C1420 0.950 . S
H1392 C1422 0.950 1_556 S
H1393 C1423 0.950 . S
C1394 H1376 0.951 . S
C1394 C1395 1.366 . S
C1394 C1396 1.388 . S
C1395 C1394 1.366 . S
C1395 C1399 1.385 . S
C1396 H1377 0.951 . S
C1396 C1394 1.388 . S
C1396 C1397 1.366 . S
C1397 C1396 1.366 . S
C1397 C1398 1.414 . S
C1397 C1400 1.499 . S
C1398 H1378 0.950 . S
C1398 C1397 1.414 . S
C1398 C1399 1.374 . S
C1399 H1379 0.950 . S
C1399 C1395 1.385 . S
C1399 C1398 1.374 . S
C1400 C1397 1.499 . S
C1400 C1401 1.373 . S
C1400 C1402 1.389 . S
C1401 H1380 0.950 . S
C1401 C1400 1.373 . S
C1401 C1417 1.377 1_656 S
C1402 C1400 1.389 . S
C1402 C1403 1.524 . S
C1402 C1416 1.377 1_656 S
C1403 C1402 1.524 . S
C1403 C1404 1.397 . S
C1403 C1408 1.363 1_556 S
C1404 H1381 0.950 . S
C1404 C1403 1.397 . S
C1404 C1405 1.334 . S
C1405 H1382 0.950 . S
C1405 C1404 1.334 . S
C1405 C1406 1.287 . S
C1406 C1405 1.287 . S
C1406 C1407 1.524 . S
C1406 H1425 0.913 . S
C1407 H1383 0.950 1_556 S
C1407 C1406 1.524 . S
C1407 C1408 1.415 1_556 S
C1408 H1384 0.950 . S
C1408 C1403 1.363 1_554 S
C1408 C1407 1.415 1_554 S
C1409 H1385 0.951 . S
C1409 C1410 1.366 . S
C1409 C1411 1.388 . S
C1410 C1409 1.366 . S
C1410 C1414 1.385 . S
C1411 H1386 0.951 . S
C1411 C1409 1.388 . S
C1411 C1412 1.366 . S
C1412 C1411 1.366 . S
C1412 C1413 1.414 . S
C1412 C1415 1.499 . S
C1413 H1387 0.950 . S
C1413 C1412 1.414 . S
C1413 C1414 1.374 . S
C1414 H1388 0.950 . S
C1414 C1410 1.385 . S
C1414 C1413 1.374 . S
C1415 C1412 1.499 . S
C1415 C1416 1.373 . S
C1415 C1417 1.389 . S
C1416 H1389 0.950 . S
C1416 C1402 1.377 1_454 S
C1416 C1415 1.373 . S
C1417 C1401 1.377 1_454 S
C1417 C1415 1.389 . S
C1417 C1418 1.524 . S
C1418 C1417 1.524 . S
C1418 C1419 1.397 . S
C1418 C1423 1.363 1_554 S
C1419 H1390 0.950 . S
C1419 C1418 1.397 . S
C1419 C1420 1.334 . S
C1420 H1391 0.950 . S
C1420 C1419 1.334 . S
C1420 C1421 1.287 . S
C1421 C1420 1.287 . S
C1421 C1422 1.524 . S
C1421 H1424 0.999 . S
C1422 H1392 0.950 1_554 S
C1422 C1421 1.524 . S
C1422 C1423 1.415 1_554 S
C1423 H1393 0.950 . S
C1423 C1418 1.363 1_556 S
C1423 C1422 1.415 1_556 S
H1424 C1421 0.999 . S
H1425 C1406 0.913 . S
H1426 C1444 0.951 . S
H1427 C1446 0.951 . S
H1428 C1448 0.950 . S
H1429 C1449 0.950 . S
H1430 C1451 0.950 . S
H1431 C1454 0.950 . S
H1432 C1455 0.950 . S
H1433 C1457 0.950 . S
H1434 C1458 0.950 . S
H1435 C1459 0.951 . S
H1436 C1461 0.951 . S
H1437 C1463 0.950 . S
H1438 C1464 0.950 . S
H1439 C1466 0.950 . S
H1440 C1469 0.950 . S
H1441 C1470 0.950 . S
H1442 C1472 0.950 . S
H1443 C1473 0.950 . S
C1444 H1426 0.951 . S
C1444 C1445 1.366 . S
C1444 C1446 1.388 . S
C1445 C1444 1.366 . S
C1445 C1449 1.385 . S
C1446 H1427 0.951 . S
C1446 C1444 1.388 . S
C1446 C1447 1.366 . S
C1447 C1446 1.366 . S
C1447 C1448 1.414 . S
C1447 C1450 1.499 . S
C1448 H1428 0.950 . S
C1448 C1447 1.414 . S
C1448 C1449 1.374 . S
C1449 H1429 0.950 . S
C1449 C1445 1.385 . S
C1449 C1448 1.374 . S
C1450 C1447 1.499 . S
C1450 C1451 1.373 1_455 S
C1450 C1452 1.389 1_556 S
C1451 H1430 0.950 . S
C1451 C1450 1.373 1_655 S
C1451 C1467 1.377 . S
C1452 C1450 1.389 1_554 S
C1452 C1453 1.524 . S
C1452 C1466 1.377 . S
C1453 C1452 1.524 . S
C1453 C1454 1.397 . S
C1453 C1458 1.363 . S
C1454 H1431 0.950 . S
C1454 C1453 1.397 . S
C1454 C1455 1.334 . S
C1455 H1432 0.950 . S
C1455 C1454 1.334 . S
C1455 C1456 1.287 . S
C1456 C1455 1.287 . S
C1456 C1457 1.524 . S
C1456 H1475 0.913 . S
C1457 H1433 0.950 . S
C1457 C1456 1.524 . S
C1457 C1458 1.415 . S
C1458 H1434 0.950 . S
C1458 C1453 1.363 . S
C1458 C1457 1.415 . S
C1459 H1435 0.951 . S
C1459 C1460 1.366 . S
C1459 C1461 1.388 . S
C1460 C1459 1.366 . S
C1460 C1464 1.385 . S
C1461 H1436 0.951 . S
C1461 C1459 1.388 . S
C1461 C1462 1.366 . S
C1462 C1461 1.366 . S
C1462 C1463 1.414 . S
C1462 C1465 1.499 . S
C1463 H1437 0.950 . S
C1463 C1462 1.414 . S
C1463 C1464 1.374 . S
C1464 H1438 0.950 . S
C1464 C1460 1.385 . S
C1464 C1463 1.374 . S
C1465 C1462 1.499 . S
C1465 C1466 1.373 1_655 S
C1465 C1467 1.389 1_554 S
C1466 H1439 0.950 . S
C1466 C1452 1.377 . S
C1466 C1465 1.373 1_455 S
C1467 C1451 1.377 . S
C1467 C1465 1.389 1_556 S
C1467 C1468 1.524 . S
C1468 C1467 1.524 . S
C1468 C1469 1.397 . S
C1468 C1473 1.363 . S
C1469 H1440 0.950 . S
C1469 C1468 1.397 . S
C1469 C1470 1.334 . S
C1470 H1441 0.950 . S
C1470 C1469 1.334 . S
C1470 C1471 1.287 . S
C1471 C1470 1.287 . S
C1471 C1472 1.524 . S
C1471 H1474 0.999 . S
C1472 H1442 0.950 . S
C1472 C1471 1.524 . S
C1472 C1473 1.415 . S
C1473 H1443 0.950 . S
C1473 C1468 1.363 . S
C1473 C1472 1.415 . S
H1474 C1471 0.999 . S
H1475 C1456 0.913 . S
C295 N81 0.994 . S
C310 N12 0.993 . S
C345 N58 0.993 . S
C360 N35 0.994 . S
C395 N127 0.993 . S
C410 N104 0.994 . S
C445 N150 0.994 . S
C460 N173 0.993 . S
C495 N219 0.994 . S
C510 N196 0.993 . S
C545 N242 0.993 . S
C560 N265 0.994 . S
C595 N2 1.426 . S
C610 C177 1.362 . S
C645 C154 1.362 . S
C660 N25 1.426 . S
C695 C131 1.360 . S
C710 N48 1.426 . S
C745 C108 1.360 . S
C760 N71 1.425 . S
C795 N94 1.426 . S
C810 C269 1.361 . S
C845 C200 1.360 . S
C860 N117 1.426 . S
C895 C246 1.360 . S
C910 N140 1.426 . S
C945 N163 1.426 . S
C960 C223 1.361 . S
C995 C62 1.361 . S
C1010 N186 1.427 . S
C1045 C16 1.360 . S
C1060 N209 1.426 . S
C1095 N232 1.427 . S
C1110 C39 1.361 . S
C1145 C85 1.360 . S
C1160 N255 1.426 . S
C1195 C7 2.147 . S
C1210 C30 2.146 . S
C1245 C76 2.147 . S
C1260 C53 2.147 . S
C1295 C145 2.147 . S
C1310 C99 2.147 . S
C1345 C122 2.147 . S
C1360 C168 2.147 . S
C1395 C237 2.147 . S
C1410 C191 2.146 . S
C1445 C214 2.147 . S
C1460 C260 2.147 . S
