# Generated by pormake.
# Topology snk, (6)-cn, num edge types: 1
# Building blocks:
#     Node 0, Type 0, BuildingBlock: PAMTUU_clean_sbu_0, # of connection points: 6
#     Node 1, Type 0, BuildingBlock: PAMTUU_clean_sbu_0, # of connection points: 6
#     Node 2, Type 0, BuildingBlock: PAMTUU_clean_sbu_0, # of connection points: 6
#     Node 3, Type 0, BuildingBlock: PAMTUU_clean_sbu_0, # of connection points: 6
#     Node 4, Type 0, BuildingBlock: PAMTUU_clean_sbu_0, # of connection points: 6
#     Node 5, Type 0, BuildingBlock: PAMTUU_clean_sbu_0, # of connection points: 6
#     Node 6, Type 0, BuildingBlock: PAMTUU_clean_sbu_0, # of connection points: 6
#     Node 7, Type 0, BuildingBlock: PAMTUU_clean_sbu_0, # of connection points: 6
#     Edge 8, Type (0, 0), BuildingBlock: EYOCIG_clean_linker_4, # of connection points: 2
#     Edge 9, Type (0, 0), BuildingBlock: EYOCIG_clean_linker_4, # of connection points: 2
#     Edge 10, Type (0, 0), BuildingBlock: EYOCIG_clean_linker_4, # of connection points: 2
#     Edge 11, Type (0, 0), BuildingBlock: EYOCIG_clean_linker_4, # of connection points: 2
#     Edge 12, Type (0, 0), BuildingBlock: EYOCIG_clean_linker_4, # of connection points: 2
#     Edge 13, Type (0, 0), BuildingBlock: EYOCIG_clean_linker_4, # of connection points: 2
#     Edge 14, Type (0, 0), BuildingBlock: EYOCIG_clean_linker_4, # of connection points: 2
#     Edge 15, Type (0, 0), BuildingBlock: EYOCIG_clean_linker_4, # of connection points: 2
#     Edge 16, Type (0, 0), BuildingBlock: EYOCIG_clean_linker_4, # of connection points: 2
#     Edge 17, Type (0, 0), BuildingBlock: EYOCIG_clean_linker_4, # of connection points: 2
#     Edge 18, Type (0, 0), BuildingBlock: EYOCIG_clean_linker_4, # of connection points: 2
#     Edge 19, Type (0, 0), BuildingBlock: EYOCIG_clean_linker_4, # of connection points: 2
#     Edge 20, Type (0, 0), BuildingBlock: EYOCIG_clean_linker_4, # of connection points: 2
#     Edge 21, Type (0, 0), BuildingBlock: EYOCIG_clean_linker_4, # of connection points: 2
#     Edge 22, Type (0, 0), BuildingBlock: EYOCIG_clean_linker_4, # of connection points: 2
#     Edge 23, Type (0, 0), BuildingBlock: EYOCIG_clean_linker_4, # of connection points: 2
#     Edge 24, Type (0, 0), BuildingBlock: EYOCIG_clean_linker_4, # of connection points: 2
#     Edge 25, Type (0, 0), BuildingBlock: EYOCIG_clean_linker_4, # of connection points: 2
#     Edge 26, Type (0, 0), BuildingBlock: EYOCIG_clean_linker_4, # of connection points: 2
#     Edge 27, Type (0, 0), BuildingBlock: EYOCIG_clean_linker_4, # of connection points: 2
#     Edge 28, Type (0, 0), BuildingBlock: EYOCIG_clean_linker_4, # of connection points: 2
#     Edge 29, Type (0, 0), BuildingBlock: EYOCIG_clean_linker_4, # of connection points: 2
#     Edge 30, Type (0, 0), BuildingBlock: EYOCIG_clean_linker_4, # of connection points: 2
#     Edge 31, Type (0, 0), BuildingBlock: EYOCIG_clean_linker_4, # of connection points: 2
# Relax obj value: 0.105
# Max RMSD: 0.146
# Mean RMSD: 0.146
data_MOF--net-snk--node1-PAMTUU_clean_sbu_0--edge1-EYOCIG_clean_linker_4
_symmetry_space_group_name_H-M    P1
_symmetry_Int_Tables_number       1
_symmetry_cell_setting            triclinic
loop_
_symmetry_equiv_pos_as_xyz
'x, y, z'
_cell_length_a     30.068002
_cell_length_b     30.078059
_cell_length_c     22.017743
_cell_angle_alpha  89.897391
_cell_angle_beta   90.032998
_cell_angle_gamma 89.990466
loop_
_atom_site_label
_atom_site_type_symbol
_atom_site_fract_x
_atom_site_fract_y
_atom_site_fract_z
_atom_type_partial_charge
Tb0 Tb 0.98313 0.01602 0.59864 0.0
Tb1 Tb -0.01075 0.95602 0.46716 0.0
C2 C 0.93008 0.04233 0.48095 0.0
C3 C 0.97121 0.03884 0.76318 0.0
C4 C 0.97151 0.01307 0.88594 0.0
C5 C 0.95535 0.05503 0.86908 0.0
C6 C 0.95527 0.06788 0.80794 0.0
C7 C 0.98494 -0.00417 0.7799 0.0
C8 C 0.98515 0.98306 0.84105 0.0
C9 C 0.97568 0.05449 0.70002 0.0
O10 O 0.93096 0.96629 0.60103 0.0
O11 O 0.95141 0.91437 0.52848 0.0
O12 O 0.03624 0.92381 0.52769 0.0
O13 O 0.02416 0.95918 0.62001 0.0
O14 O 0.95796 0.92556 0.39271 0.0
O15 O 0.02956 0.92763 0.39971 0.0
O16 O 0.02799 0.01551 0.45261 0.0
O17 O 0.03621 0.04763 0.54779 0.0
O18 O 0.95106 0.05627 0.52956 0.0
O19 O 0.93393 0.00202 0.45893 0.0
C20 C 0.92848 0.92679 0.57618 0.0
O21 O 0.01362 0.04584 0.67389 0.0
O22 O 0.9422 0.04658 0.66399 0.0
C23 C 0.04279 0.92861 0.58626 0.0
C24 C -0.00099 0.93408 0.30193 0.0
C25 C 4e-05 0.96105 0.17973 0.0
C26 C 0.01578 0.91883 0.19606 0.0
C27 C 0.01524 0.9054 0.25693 0.0
C28 C 0.98574 0.97734 0.28587 0.0
C29 C 0.98619 -0.00928 0.22496 0.0
C30 C -0.00431 0.91834 0.3651 0.0
C31 C 0.04547 0.04464 0.4897 0.0
H32 H 0.94436 0.07843 0.9033 0.0
H33 H 0.94411 0.10098 0.79582 0.0
H34 H -0.00314 0.9727 0.74595 0.0
H35 H -0.00258 0.95039 0.85341 0.0
H36 H 0.02701 0.89572 0.16162 0.0
H37 H 0.02641 0.87223 0.26869 0.0
H38 H 0.97396 0.00028 0.32018 0.0
H39 H 0.97434 0.02362 0.213 0.0
Tb40 Tb 0.20653 0.73224 0.84888 0.0
Tb41 Tb 0.2655 0.73883 0.71805 0.0
C42 C 0.18017 0.67905 0.73251 0.0
C43 C 0.18427 0.72021 1.01353 0.0
C44 C 0.21079 0.72026 0.136 0.0
C45 C 0.16872 0.70413 0.11965 0.0
C46 C 0.15549 0.70418 0.05865 0.0
C47 C 0.22742 0.73381 1.02974 0.0
C48 C 0.24055 0.73391 0.09072 0.0
C49 C 0.16826 0.72505 0.95055 0.0
O50 O 0.25436 0.67819 0.84787 0.0
O51 O 0.30812 0.70315 0.78099 0.0
O52 O 0.29264 0.79016 0.77666 0.0
O53 O 0.26643 0.76841 0.87105 0.0
O54 O 0.29673 0.70767 0.64405 0.0
O55 O 0.29346 0.7792 0.65016 0.0
O56 O 0.2036 0.77335 0.70214 0.0
O57 O 0.17839 0.78825 0.79931 0.0
O58 O 0.16566 0.70133 0.77966 0.0
O59 O 0.22101 0.68209 0.71198 0.0
C60 C 0.29498 0.6779 0.82621 0.0
O61 O 0.17726 0.76292 0.92436 0.0
O62 O 0.17551 0.69157 0.91436 0.0
C63 C 0.29246 0.79221 0.83621 0.0
C64 C 0.28841 0.74822 0.55255 0.0
C65 C 0.26258 0.74896 0.42984 0.0
C66 C 0.30467 0.76466 0.44674 0.0
C67 C 0.31753 0.76427 0.50783 0.0
C68 C 0.24529 0.73492 0.53589 0.0
C69 C 0.23248 0.73525 0.47473 0.0
C70 C 0.30356 0.74536 0.61606 0.0
C71 C 0.17775 0.79442 0.74023 0.0
H72 H 0.14551 0.69311 0.15416 0.0
H73 H 0.1223 0.69309 0.04695 0.0
H74 H 0.25037 0.74579 0.99552 0.0
H75 H 0.27331 0.74614 0.10265 0.0
H76 H 0.32812 0.77581 0.41258 0.0
H77 H 0.35059 0.77546 0.52002 0.0
H78 H 0.22201 0.72328 0.56993 0.0
H79 H 0.19966 0.72345 0.46236 0.0
Tb80 Tb 0.48928 0.95561 0.09914 0.0
Tb81 Tb 0.48333 0.01602 0.96645 0.0
C82 C 0.54287 0.92889 0.98059 0.0
C83 C 0.50135 0.93372 0.26398 0.0
C84 C 0.50193 0.96002 0.38626 0.0
C85 C 0.51815 0.91807 0.36979 0.0
C86 C 0.51781 0.90496 0.30886 0.0
C87 C 0.48761 0.97678 0.28022 0.0
C88 C 0.48784 -0.01019 0.34119 0.0
C89 C 0.49702 0.91787 0.20107 0.0
O90 O 0.53601 0.00992 0.10765 0.0
O91 O 0.52717 0.0552 1.02274 0.0
O92 O 0.44342 0.05313 1.03047 0.0
O93 O 0.44037 0.00685 0.11509 0.0
O94 O 0.51386 0.04633 0.89143 0.0
O95 O 0.44229 0.04479 0.89982 0.0
O96 O 0.43898 0.95999 0.95587 0.0
O97 O 0.44255 0.91823 0.04481 0.0
O98 O 0.52626 0.91712 0.03327 0.0
O99 O 0.53464 0.96661 0.95294 0.0
C100 C 0.54445 0.04582 0.07591 0.0
O101 O 0.45897 0.92581 0.17467 0.0
O102 O 0.53047 0.92628 0.16523 0.0
C103 C 0.42936 0.04281 0.08505 0.0
C104 C 0.47217 0.03804 0.80159 0.0
C105 C 0.47233 0.01151 0.67945 0.0
C106 C 0.45648 0.0537 0.6955 0.0
C107 C 0.45645 0.06692 0.75637 0.0
C108 C 0.48552 -0.00521 0.78576 0.0
C109 C 0.48566 0.98164 0.72485 0.0
C110 C 0.47589 0.05383 0.86454 0.0
C111 C 0.42782 0.92592 0.9897 0.0
H112 H 0.52949 0.89486 0.40417 0.0
H113 H 0.5291 0.87189 0.297 0.0
H114 H 0.47542 -0.00028 0.24606 0.0
H115 H 0.47554 0.02248 0.3533 0.0
H116 H 0.44569 0.07697 0.66086 0.0
H117 H 0.4454 0.10013 0.76795 0.0
H118 H 0.49709 0.97177 0.82023 0.0
H119 H 0.49764 0.94878 0.71307 0.0
Tb120 Tb 0.26677 0.23912 0.34853 0.0
Tb121 Tb 0.20626 0.23338 0.21653 0.0
C122 C 0.29317 0.29246 0.23031 0.0
C123 C 0.28854 0.2508 0.51324 0.0
C124 C 0.26166 0.25057 0.63543 0.0
C125 C 0.30387 0.26647 0.61941 0.0
C126 C 0.31727 0.26652 0.55855 0.0
C127 C 0.24527 0.23733 0.52907 0.0
C128 C 0.23195 0.23716 0.58996 0.0
C129 C 0.30468 0.24657 0.45035 0.0
O130 O 0.21496 0.28899 0.35391 0.0
O131 O 0.1653 0.27317 0.27603 0.0
O132 O 0.17135 0.1897 0.2785 0.0
O133 O 0.21286 0.1938 0.36749 0.0
O134 O 0.17606 0.2645 0.1417 0.0
O135 O 0.17739 0.19292 0.14961 0.0
O136 O 0.26387 0.19155 0.20374 0.0
O137 O 0.30138 0.18916 0.2961 0.0
O138 O 0.30644 0.27301 0.28052 0.0
O139 O 0.25362 0.28722 0.20622 0.0
C140 C 0.17669 0.29374 0.32613 0.0
O141 O 0.29655 0.20863 0.42398 0.0
O142 O 0.29665 0.28008 0.41435 0.0
C143 C 0.17936 0.17912 0.33527 0.0
C144 C 0.18376 0.22296 0.05145 0.0
C145 C 0.20977 0.22192 0.92902 0.0
C146 C 0.16774 0.20602 0.94586 0.0
C147 C 0.15479 0.20656 1.00687 0.0
C148 C 0.22686 0.23636 0.03489 0.0
C149 C 0.23976 0.23591 0.97384 0.0
C150 C 0.16833 0.2267 0.11462 0.0
C151 C 0.29567 0.17719 0.23936 0.0
H152 H 0.32704 0.27729 0.65409 0.0
H153 H 0.35054 0.27752 0.54708 0.0
H154 H 0.22237 0.22563 0.49463 0.0
H155 H 0.19909 0.2251 0.60168 0.0
H156 H 0.14439 0.19469 0.91172 0.0
H157 H 0.12172 0.19535 1.01904 0.0
H158 H 0.25 0.24832 0.06889 0.0
H159 H 0.27251 0.2479 0.96147 0.0
Tb160 Tb 0.70695 0.23341 0.34818 0.0
Tb161 Tb 0.76669 0.23952 0.21654 0.0
C162 C 0.67951 0.1796 0.22957 0.0
C163 C 0.68433 0.22321 0.5135 0.0
C164 C 0.71003 0.22222 0.63614 0.0
C165 C 0.66808 0.20622 0.6191 0.0
C166 C 0.65529 0.20674 0.558 0.0
C167 C 0.72737 0.23668 0.53028 0.0
C168 C 0.74011 0.23625 0.59142 0.0
C169 C 0.66908 0.22673 0.45017 0.0
O170 O 0.76629 0.19414 0.36256 0.0
O171 O 0.79926 0.18705 0.26771 0.0
O172 O 0.80689 0.27194 0.28518 0.0
O173 O 0.7529 0.28874 0.35636 0.0
O174 O 0.79648 0.20921 0.14116 0.0
O175 O 0.79692 0.28062 0.15094 0.0
O176 O 0.71615 0.29101 0.21307 0.0
O177 O 0.66502 0.27157 0.28734 0.0
O178 O 0.67406 0.18709 0.28776 0.0
O179 O 0.71066 0.19734 0.19585 0.0
C180 C 0.79596 0.17728 0.32568 0.0
O181 O 0.67654 0.26453 0.42274 0.0
O182 O 0.67849 0.19296 0.41558 0.0
C183 C 0.79308 0.29279 0.3339 0.0
C184 C 0.78858 0.25167 0.05197 0.0
C185 C 0.76164 0.25136 0.92974 0.0
C186 C 0.80383 0.26736 0.94571 0.0
C187 C 0.81726 0.26745 1.00659 0.0
C188 C 0.74532 0.23815 0.03616 0.0
C189 C 0.73198 0.23793 0.97526 0.0
C190 C 0.80477 0.24721 0.11486 0.0
C191 C 0.67694 0.29399 0.23884 0.0
H192 H 0.64467 0.19484 0.65315 0.0
H193 H 0.62229 0.19543 0.54568 0.0
H194 H 0.75058 0.24865 0.49636 0.0
H195 H 0.77281 0.24829 0.60394 0.0
H196 H 0.82696 0.27819 0.91098 0.0
H197 H 0.85052 0.27847 1.01802 0.0
H198 H 0.72246 0.22638 0.07062 0.0
H199 H 0.69914 0.22578 0.96359 0.0
Tb200 Tb 0.76582 0.73808 0.84871 0.0
Tb201 Tb 0.70604 0.73269 0.7169 0.0
C202 C 0.79338 0.79245 0.73023 0.0
C203 C 0.78792 0.74869 1.01388 0.0
C204 C 0.76137 0.75078 0.13609 0.0
C205 C 0.80344 0.76662 0.11932 0.0
C206 C 0.81666 0.76555 0.05843 0.0
C207 C 0.74475 0.73542 1.03032 0.0
C208 C 0.73159 0.73639 0.09125 0.0
C209 C 0.80353 0.74473 0.95081 0.0
O210 O 0.70673 0.77757 0.86296 0.0
O211 O 0.67332 0.7847 0.76831 0.0
O212 O 0.66581 0.6998 0.78525 0.0
O213 O 0.71945 0.68306 0.85718 0.0
O214 O 0.67624 0.76337 0.64164 0.0
O215 O 0.6757 0.69193 0.65119 0.0
O216 O 0.75664 0.68135 0.713 0.0
O217 O 0.80752 0.69968 0.78817 0.0
O218 O 0.79907 0.78429 0.78827 0.0
O219 O 0.76191 0.77526 0.69652 0.0
C220 C 0.67687 0.79437 0.82621 0.0
O221 O 0.79584 0.70691 0.92373 0.0
O222 O 0.79462 0.77847 0.91573 0.0
C223 C 0.6794 0.67893 0.83422 0.0
C224 C 0.68362 0.72127 0.55226 0.0
C225 C 0.70982 0.72211 0.4298 0.0
C226 C 0.66767 0.7062 0.44609 0.0
C227 C 0.65461 0.70584 0.50709 0.0
C228 C 0.72683 0.7347 0.53611 0.0
C229 C 0.73982 0.73518 0.4751 0.0
C230 C 0.66776 0.72551 0.61528 0.0
C231 C 0.79566 0.67786 0.73923 0.0
H232 H 0.82663 0.77827 0.15347 0.0
H233 H 0.84974 0.77676 0.04634 0.0
H234 H 0.72176 0.72319 0.99632 0.0
H235 H 0.6988 0.72446 0.10356 0.0
H236 H 0.64429 0.69562 0.41154 0.0
H237 H 0.62137 0.6949 0.51879 0.0
H238 H 0.74995 0.74621 0.57042 0.0
H239 H 0.77264 0.74724 0.46316 0.0
Tb240 Tb 0.48337 0.51494 0.09791 0.0
Tb241 Tb 0.48954 0.45662 0.96738 0.0
C242 C 0.42935 0.54202 0.98025 0.0
C243 C 0.47424 0.538 0.26336 0.0
C244 C 0.4728 0.5123 0.38614 0.0
C245 C 0.45695 0.55428 0.36884 0.0
C246 C 0.45771 0.56706 0.30771 0.0
C247 C 0.48771 0.495 0.2804 0.0
C248 C 0.48703 0.48226 0.34159 0.0
C249 C 0.47723 0.55307 0.1998 0.0
O250 O 0.44956 0.4527 0.11434 0.0
O251 O 0.43316 0.42905 1.017 0.0
O252 O 0.52038 0.41531 0.03637 0.0
O253 O 0.54029 0.4705 0.10371 0.0
O254 O 0.45864 0.42771 0.89178 0.0
O255 O 0.53 0.42536 0.90205 0.0
O256 O 0.54404 0.50402 0.96874 0.0
O257 O 0.51855 0.55785 0.03477 0.0
O258 O 0.43079 0.54088 0.03984 0.0
O259 O 0.45416 0.51713 0.94525 0.0
C260 C 0.42769 0.42755 0.0762 0.0
O261 O 0.51486 0.54591 0.17191 0.0
O262 O 0.44329 0.54326 0.16565 0.0
C263 C 0.54307 0.42964 0.08328 0.0
C264 C 0.50146 0.43436 0.80278 0.0
C265 C 0.50129 0.46079 0.68026 0.0
C266 C 0.51712 0.4186 0.69669 0.0
C267 C 0.51714 0.40542 0.75772 0.0
C268 C 0.48827 0.47763 0.78651 0.0
C269 C 0.48811 0.49072 0.7255 0.0
C270 C 0.49646 0.41839 0.86575 0.0
C271 C 0.54412 0.54473 0.98996 0.0
H272 H 0.44543 0.57769 0.40272 0.0
H273 H 0.44637 0.60003 0.29521 0.0
H274 H 0.49971 0.47175 0.24663 0.0
H275 H 0.49896 0.44953 0.35429 0.0
H276 H 0.52781 0.39527 0.6622 0.0
H277 H 0.52794 0.37213 0.76948 0.0
H278 H 0.47661 0.5007 0.82069 0.0
H279 H 0.47614 0.52357 0.71351 0.0
Tb280 Tb -0.01118 0.45621 0.59906 0.0
Tb281 Tb 0.98371 0.51626 0.46711 0.0
C282 C 0.04303 0.42849 0.48074 0.0
C283 C -0.00115 0.43408 0.76434 0.0
C284 C -0.00043 0.46044 0.88659 0.0
C285 C 0.01511 0.4182 0.87025 0.0
C286 C 0.01472 0.40507 0.80933 0.0
C287 C 0.98588 0.47738 0.78041 0.0
C288 C 0.98618 0.49045 0.84137 0.0
C289 C -0.00481 0.41849 0.70125 0.0
O290 O 0.02994 0.51437 0.61272 0.0
O291 O 0.03459 0.55013 0.51929 0.0
O292 O 0.95022 0.55619 0.53503 0.0
O293 O 0.93428 0.50294 0.60791 0.0
O294 O 0.01428 0.54573 0.39155 0.0
O295 O 0.94285 0.54677 0.4015 0.0
O296 O 0.93328 0.46484 0.4616 0.0
O297 O 0.94926 0.41503 0.53929 0.0
O298 O 0.033 0.42127 0.53787 0.0
O299 O 0.028 0.46157 0.44791 0.0
C300 C 0.04551 0.54535 0.57666 0.0
O301 O 0.95745 0.42627 0.67386 0.0
O302 O 0.02907 0.42737 0.66645 0.0
C303 C 0.92976 0.54275 0.58434 0.0
C304 C 0.97159 0.53844 0.30246 0.0
C305 C 0.97094 0.51205 0.18011 0.0
C306 C 0.95484 0.55406 0.19658 0.0
C307 C 0.95522 0.56722 0.25752 0.0
C308 C 0.9852 0.49534 0.2862 0.0
C309 C 0.98494 0.48226 0.22524 0.0
C310 C 0.97632 0.55438 0.36535 0.0
C311 C 0.92853 0.42646 0.4892 0.0
H312 H 0.026 0.39483 0.9047 0.0
H313 H 0.02561 0.37185 0.79754 0.0
H314 H 0.97435 0.50054 0.74609 0.0
H315 H 0.9745 0.52338 0.85336 0.0
H316 H 0.94356 0.57729 0.16218 0.0
H317 H 0.94409 0.60035 0.26932 0.0
H318 H -0.00262 0.47238 0.32034 0.0
H319 H -0.00284 0.44955 0.21317 0.0
C320 C 0.09825 0.10066 0.43373 0.0
C321 C 0.07468 0.07652 0.46296 0.0
C322 C 0.12491 0.12754 0.3963 0.0
C323 C 0.14853 0.15089 0.36597 0.0
C324 C 0.09423 0.87389 0.64745 0.0
C325 C 0.07119 0.89772 0.61682 0.0
C326 C 0.12121 0.84733 0.68507 0.0
C327 C 0.14576 0.82401 0.71422 0.0
C328 C 0.34776 0.84373 0.89597 0.0
C329 C 0.32337 0.82094 0.86597 0.0
C330 C 0.37522 0.87009 0.93299 0.0
C331 C 0.3992 0.89396 0.96201 0.0
C332 C 0.37821 0.09754 0.14602 0.0
C333 C 0.40157 0.07379 0.11604 0.0
C334 C 0.35143 0.12447 0.18306 0.0
C335 C 0.32749 0.14828 0.2121 0.0
C336 C 0.87652 0.87093 0.63447 0.0
C337 C 0.9007 0.89493 0.60588 0.0
C338 C 0.84886 0.84408 0.67071 0.0
C339 C 0.82454 0.82081 0.70018 0.0
C340 C 0.87966 0.09707 0.41777 0.0
C341 C 0.90297 0.07312 0.44793 0.0
C342 C 0.85246 0.12423 0.38112 0.0
C343 C 0.82801 0.14802 0.35245 0.0
C344 C 0.62428 0.12834 0.16942 0.0
C345 C 0.64844 0.15139 0.19932 0.0
C346 C 0.59688 0.10173 0.1327 0.0
C347 C 0.5728 0.07782 0.10398 0.0
C348 C 0.62062 0.84702 0.88209 0.0
C349 C 0.6449 0.82343 0.85313 0.0
C350 C 0.59362 0.87395 0.919 0.0
C351 C 0.57031 0.89781 0.949 0.0
C352 C 0.59577 0.60094 0.93111 0.0
C353 C 0.57166 0.57661 0.95951 0.0
C354 C 0.62376 0.62818 0.8956 0.0
C355 C 0.64832 0.65158 0.86649 0.0
C356 C 0.62058 0.34644 0.18163 0.0
C357 C 0.64489 0.32208 0.20968 0.0
C358 C 0.59343 0.37443 0.14599 0.0
C359 C 0.57018 0.39885 0.11642 0.0
C360 C 0.87609 0.37038 0.43188 0.0
C361 C 0.90036 0.39454 0.46014 0.0
C362 C 0.84828 0.3433 0.39606 0.0
C363 C 0.82397 0.32 0.36654 0.0
C364 C 0.85187 0.62578 0.68161 0.0
C365 C 0.82766 0.64995 0.70992 0.0
C366 C 0.87902 0.59806 0.64581 0.0
C367 C 0.90243 0.57376 0.61647 0.0
C368 C 0.34781 0.34318 0.1675 0.0
C369 C 0.32406 0.31977 0.19776 0.0
C370 C 0.37453 0.3707 0.13068 0.0
C371 C 0.39796 0.39553 0.10207 0.0
C372 C 0.37726 0.59794 0.92171 0.0
C373 C 0.40033 0.57312 0.95093 0.0
C374 C 0.35067 0.62608 0.88556 0.0
C375 C 0.32677 0.65031 0.8567 0.0
C376 C 0.12576 0.62863 0.66907 0.0
C377 C 0.14962 0.65196 0.6992 0.0
C378 C 0.09857 0.60149 0.63252 0.0
C379 C 0.07466 0.57722 0.60387 0.0
C380 C 0.12077 0.34557 0.38411 0.0
C381 C 0.1447 0.32155 0.3553 0.0
C382 C 0.0941 0.373 0.42072 0.0
C383 C 0.07099 0.39721 0.45045 0.0
C384 C 0.98259 -0.00721 1.00204 0.0
C385 C 0.97748 0.00217 0.9492 0.0
C386 C -0.0102 0.98213 0.06377 0.0
C387 C -0.00551 0.97246 0.11658 0.0
C388 C 0.24227 0.73865 0.31363 0.0
C389 C 0.25167 0.74341 0.36651 0.0
C390 C 0.23162 0.73138 0.2519 0.0
C391 C 0.22203 0.72627 0.19915 0.0
C392 C 0.48367 -0.00912 0.56376 0.0
C393 C 0.47848 0.00033 0.61646 0.0
C394 C 0.49112 0.98038 0.50215 0.0
C395 C 0.4961 0.97098 0.4494 0.0
C396 C 0.23006 0.23225 0.81291 0.0
C397 C 0.22067 0.22748 0.86575 0.0
C398 C 0.24066 0.23949 0.7512 0.0
C399 C 0.25025 0.24455 0.69847 0.0
C400 C 0.74062 0.24004 0.81401 0.0
C401 C 0.75023 0.24521 0.86672 0.0
C402 C 0.73006 0.23269 0.75232 0.0
C403 C 0.72075 0.22784 0.69946 0.0
C404 C 0.73028 0.73375 0.31394 0.0
C405 C 0.72091 0.72843 0.3667 0.0
C406 C 0.74081 0.74101 0.25221 0.0
C407 C 0.75031 0.74552 0.19935 0.0
C408 C 0.48983 0.48155 0.56433 0.0
C409 C 0.49509 0.47201 0.61711 0.0
C410 C 0.48258 0.49215 0.50255 0.0
C411 C 0.47804 0.50153 0.44959 0.0
C412 C -0.01115 0.48099 1.00249 0.0
C413 C -0.00624 0.47155 0.94971 0.0
C414 C 0.98158 0.49153 0.06417 0.0
C415 C 0.97669 0.50099 0.11695 0.0
loop_
_geom_bond_atom_site_label_1
_geom_bond_atom_site_label_2
_geom_bond_distance
_geom_bond_site_symmetry_2
_ccdc_geom_bond_type
Tb0 C9 2.764 1_455 S
Tb0 O10 2.325 1_445 S
Tb0 O13 2.303 1_545 S
Tb0 O17 2.322 . S
Tb0 O18 2.349 1_455 S
Tb0 O21 2.415 . S
Tb0 O22 2.399 1_455 S
Tb1 O11 2.322 . S
Tb1 O12 2.349 1_655 S
Tb1 O14 2.415 . S
Tb1 O15 2.399 1_655 S
Tb1 O16 2.325 1_665 S
Tb1 O19 2.303 1_565 S
Tb1 C30 2.764 1_655 S
C2 O18 1.261 . S
C2 O19 1.257 . S
C3 C6 1.358 . S
C3 C7 1.332 1_545 S
C3 C9 1.504 . S
C4 C5 1.373 . S
C4 C8 1.308 1_545 S
C5 C4 1.373 . S
C5 C6 1.429 . S
C5 H32 0.932 . S
C6 C3 1.358 . S
C6 C5 1.429 . S
C6 H33 0.930 . S
C7 C3 1.332 1_565 S
C7 C8 1.394 . S
C7 H34 0.932 1_655 S
C8 C4 1.308 1_565 S
C8 C7 1.394 . S
C8 H35 0.929 . S
C9 Tb0 2.764 1_655 S
C9 C3 1.504 . S
C9 O21 1.239 1_655 S
C9 O22 1.263 . S
O10 Tb0 2.325 1_665 S
O10 C20 1.236 . S
O11 Tb1 2.322 . S
O11 C20 1.257 . S
O12 Tb1 2.349 1_455 S
O12 C23 1.261 . S
O13 Tb0 2.303 1_565 S
O13 C23 1.257 . S
O14 Tb1 2.415 . S
O14 C30 1.239 1_655 S
O15 Tb1 2.399 1_455 S
O15 C30 1.263 . S
O16 Tb1 2.325 1_445 S
O16 C31 1.236 . S
O17 Tb0 2.322 . S
O17 C31 1.257 . S
O18 Tb0 2.349 1_655 S
O18 C2 1.261 . S
O19 Tb1 2.303 1_545 S
O19 C2 1.257 . S
C20 O10 1.236 . S
C20 O11 1.257 . S
O21 Tb0 2.415 . S
O21 C9 1.239 1_455 S
O22 Tb0 2.399 1_655 S
O22 C9 1.263 . S
C23 O12 1.261 . S
C23 O13 1.257 . S
C24 C27 1.358 . S
C24 C28 1.332 1_565 S
C24 C30 1.504 . S
C25 C26 1.373 . S
C25 C29 1.308 1_565 S
C26 C25 1.373 . S
C26 C27 1.429 . S
C26 H36 0.932 . S
C27 C24 1.358 . S
C27 C26 1.429 . S
C27 H37 0.930 . S
C28 C24 1.332 1_545 S
C28 C29 1.394 . S
C28 H38 0.932 1_455 S
C29 C25 1.308 1_545 S
C29 C28 1.394 . S
C29 H39 0.929 . S
C30 Tb1 2.764 1_455 S
C30 O14 1.239 1_455 S
C30 O15 1.263 . S
C30 C24 1.504 . S
C31 O16 1.236 . S
C31 O17 1.257 . S
H32 C5 0.932 . S
H33 C6 0.930 . S
H34 C7 0.932 1_455 S
H35 C8 0.929 . S
H36 C26 0.932 . S
H37 C27 0.930 . S
H38 C28 0.932 1_655 S
H39 C29 0.929 . S
Tb40 C49 2.764 . S
Tb40 O50 2.325 . S
Tb40 O53 2.303 . S
Tb40 O57 2.322 . S
Tb40 O58 2.349 . S
Tb40 O61 2.415 . S
Tb40 O62 2.399 . S
Tb41 O51 2.322 . S
Tb41 O52 2.349 . S
Tb41 O54 2.415 . S
Tb41 O55 2.399 . S
Tb41 O56 2.325 . S
Tb41 O59 2.303 . S
Tb41 C70 2.764 . S
C42 O58 1.261 . S
C42 O59 1.257 . S
C43 C46 1.358 1_556 S
C43 C47 1.332 1_556 S
C43 C49 1.504 . S
C44 C45 1.373 . S
C44 C48 1.308 . S
C45 C44 1.373 . S
C45 C46 1.429 . S
C45 H72 0.932 . S
C46 C43 1.358 1_554 S
C46 C45 1.429 . S
C46 H73 0.940 . S
C47 C43 1.332 1_554 S
C47 C48 1.394 . S
C47 H74 0.932 . S
C48 C44 1.308 . S
C48 C47 1.394 . S
C48 H75 0.929 . S
C49 Tb40 2.764 . S
C49 C43 1.504 . S
C49 O61 1.239 . S
C49 O62 1.263 . S
O50 Tb40 2.325 . S
O50 C60 1.236 . S
O51 Tb41 2.322 . S
O51 C60 1.257 . S
O52 Tb41 2.349 . S
O52 C63 1.261 . S
O53 Tb40 2.303 . S
O53 C63 1.257 . S
O54 Tb41 2.415 . S
O54 C70 1.239 . S
O55 Tb41 2.399 . S
O55 C70 1.263 . S
O56 Tb41 2.325 . S
O56 C71 1.236 . S
O57 Tb40 2.322 . S
O57 C71 1.257 . S
O58 Tb40 2.349 . S
O58 C42 1.261 . S
O59 Tb41 2.303 . S
O59 C42 1.257 . S
C60 O50 1.236 . S
C60 O51 1.257 . S
O61 Tb40 2.415 . S
O61 C49 1.239 . S
O62 Tb40 2.399 . S
O62 C49 1.263 . S
C63 O52 1.261 . S
C63 O53 1.257 . S
C64 C67 1.358 . S
C64 C68 1.332 . S
C64 C70 1.504 . S
C65 C66 1.373 . S
C65 C69 1.308 . S
C66 C65 1.373 . S
C66 C67 1.429 . S
C66 H76 0.932 . S
C67 C64 1.358 . S
C67 C66 1.429 . S
C67 H77 0.930 . S
C68 C64 1.332 . S
C68 C69 1.394 . S
C68 H78 0.932 . S
C69 C65 1.308 . S
C69 C68 1.394 . S
C69 H79 0.929 . S
C70 Tb41 2.764 . S
C70 O54 1.239 . S
C70 O55 1.263 . S
C70 C64 1.504 . S
C71 O56 1.236 . S
C71 O57 1.257 . S
H72 C45 0.932 . S
H73 C46 0.940 . S
H74 C47 0.932 . S
H75 C48 0.929 . S
H76 C66 0.932 . S
H77 C67 0.930 . S
H78 C68 0.932 . S
H79 C69 0.929 . S
Tb80 C89 2.764 . S
Tb80 O90 2.325 1_565 S
Tb80 O93 2.303 1_565 S
Tb80 O97 2.322 1_554 S
Tb80 O98 2.349 . S
Tb80 O101 2.415 . S
Tb80 O102 2.399 . S
Tb81 O91 2.322 1_556 S
Tb81 O92 2.349 . S
Tb81 O94 2.415 . S
Tb81 O95 2.399 . S
Tb81 O96 2.325 1_545 S
Tb81 O99 2.303 1_545 S
Tb81 C110 2.764 . S
C82 O98 1.261 1_556 S
C82 O99 1.257 . S
C83 C86 1.358 . S
C83 C87 1.332 1_565 S
C83 C89 1.504 . S
C84 C85 1.373 . S
C84 C88 1.308 1_565 S
C85 C84 1.373 . S
C85 C86 1.429 . S
C85 H112 0.932 . S
C86 C83 1.358 . S
C86 C85 1.429 . S
C86 H113 0.930 . S
C87 C83 1.332 1_545 S
C87 C88 1.394 . S
C87 H114 0.932 . S
C88 C84 1.308 1_545 S
C88 C87 1.394 . S
C88 H115 0.929 . S
C89 Tb80 2.764 . S
C89 C83 1.504 . S
C89 O101 1.239 . S
C89 O102 1.263 . S
O90 Tb80 2.325 1_545 S
O90 C100 1.236 . S
O91 Tb81 2.322 1_554 S
O91 C100 1.257 . S
O92 Tb81 2.349 . S
O92 C103 1.261 1_556 S
O93 Tb80 2.303 1_545 S
O93 C103 1.257 . S
O94 Tb81 2.415 . S
O94 C110 1.239 . S
O95 Tb81 2.399 . S
O95 C110 1.263 . S
O96 Tb81 2.325 1_565 S
O96 C111 1.236 . S
O97 Tb80 2.322 1_556 S
O97 C111 1.257 . S
O98 Tb80 2.349 . S
O98 C82 1.261 1_554 S
O99 Tb81 2.303 1_565 S
O99 C82 1.257 . S
C100 O90 1.236 . S
C100 O91 1.257 . S
O101 Tb80 2.415 . S
O101 C89 1.239 . S
O102 Tb80 2.399 . S
O102 C89 1.263 . S
C103 O92 1.261 1_554 S
C103 O93 1.257 . S
C104 C107 1.358 . S
C104 C108 1.332 1_545 S
C104 C110 1.504 . S
C105 C106 1.373 . S
C105 C109 1.308 1_545 S
C106 C105 1.373 . S
C106 C107 1.429 . S
C106 H116 0.932 . S
C107 C104 1.358 . S
C107 C106 1.429 . S
C107 H117 0.930 . S
C108 C104 1.332 1_565 S
C108 C109 1.394 . S
C108 H118 0.932 . S
C109 C105 1.308 1_565 S
C109 C108 1.394 . S
C109 H119 0.929 . S
C110 Tb81 2.764 . S
C110 O94 1.239 . S
C110 O95 1.263 . S
C110 C104 1.504 . S
C111 O96 1.236 . S
C111 O97 1.257 . S
H112 C85 0.932 . S
H113 C86 0.930 . S
H114 C87 0.932 . S
H115 C88 0.929 . S
H116 C106 0.932 . S
H117 C107 0.930 . S
H118 C108 0.932 . S
H119 C109 0.929 . S
Tb120 C129 2.764 . S
Tb120 O130 2.325 . S
Tb120 O133 2.303 . S
Tb120 O137 2.322 . S
Tb120 O138 2.349 . S
Tb120 O141 2.415 . S
Tb120 O142 2.399 . S
Tb121 O131 2.322 . S
Tb121 O132 2.349 . S
Tb121 O134 2.415 . S
Tb121 O135 2.399 . S
Tb121 O136 2.325 . S
Tb121 O139 2.303 . S
Tb121 C150 2.764 . S
C122 O138 1.261 . S
C122 O139 1.257 . S
C123 C126 1.358 . S
C123 C127 1.332 . S
C123 C129 1.504 . S
C124 C125 1.373 . S
C124 C128 1.308 . S
C125 C124 1.373 . S
C125 C126 1.429 . S
C125 H152 0.932 . S
C126 C123 1.358 . S
C126 C125 1.429 . S
C126 H153 0.930 . S
C127 C123 1.332 . S
C127 C128 1.394 . S
C127 H154 0.932 . S
C128 C124 1.308 . S
C128 C127 1.394 . S
C128 H155 0.929 . S
C129 Tb120 2.764 . S
C129 C123 1.504 . S
C129 O141 1.239 . S
C129 O142 1.263 . S
O130 Tb120 2.325 . S
O130 C140 1.236 . S
O131 Tb121 2.322 . S
O131 C140 1.257 . S
O132 Tb121 2.349 . S
O132 C143 1.261 . S
O133 Tb120 2.303 . S
O133 C143 1.257 . S
O134 Tb121 2.415 . S
O134 C150 1.239 . S
O135 Tb121 2.399 . S
O135 C150 1.263 . S
O136 Tb121 2.325 . S
O136 C151 1.236 . S
O137 Tb120 2.322 . S
O137 C151 1.257 . S
O138 Tb120 2.349 . S
O138 C122 1.261 . S
O139 Tb121 2.303 . S
O139 C122 1.257 . S
C140 O130 1.236 . S
C140 O131 1.257 . S
O141 Tb120 2.415 . S
O141 C129 1.239 . S
O142 Tb120 2.399 . S
O142 C129 1.263 . S
C143 O132 1.261 . S
C143 O133 1.257 . S
C144 C147 1.358 1_554 S
C144 C148 1.332 1_554 S
C144 C150 1.504 . S
C145 C146 1.373 . S
C145 C149 1.308 . S
C146 C145 1.373 . S
C146 C147 1.429 . S
C146 H156 0.932 . S
C147 C144 1.358 1_556 S
C147 C146 1.429 . S
C147 H157 0.940 . S
C148 C144 1.332 1_556 S
C148 C149 1.394 . S
C148 H158 0.932 . S
C149 C145 1.308 . S
C149 C148 1.394 . S
C149 H159 0.929 . S
C150 Tb121 2.764 . S
C150 O134 1.239 . S
C150 O135 1.263 . S
C150 C144 1.504 . S
C151 O136 1.236 . S
C151 O137 1.257 . S
H152 C125 0.932 . S
H153 C126 0.930 . S
H154 C127 0.932 . S
H155 C128 0.929 . S
H156 C146 0.932 . S
H157 C147 0.940 . S
H158 C148 0.932 . S
H159 C149 0.929 . S
Tb160 C169 2.764 . S
Tb160 O170 2.325 . S
Tb160 O173 2.303 . S
Tb160 O177 2.322 . S
Tb160 O178 2.349 . S
Tb160 O181 2.415 . S
Tb160 O182 2.399 . S
Tb161 O171 2.322 . S
Tb161 O172 2.349 . S
Tb161 O174 2.415 . S
Tb161 O175 2.399 . S
Tb161 O176 2.325 . S
Tb161 O179 2.303 . S
Tb161 C190 2.764 . S
C162 O178 1.261 . S
C162 O179 1.257 . S
C163 C166 1.358 . S
C163 C167 1.332 . S
C163 C169 1.504 . S
C164 C165 1.373 . S
C164 C168 1.308 . S
C165 C164 1.373 . S
C165 C166 1.429 . S
C165 H192 0.932 . S
C166 C163 1.358 . S
C166 C165 1.429 . S
C166 H193 0.930 . S
C167 C163 1.332 . S
C167 C168 1.394 . S
C167 H194 0.932 . S
C168 C164 1.308 . S
C168 C167 1.394 . S
C168 H195 0.929 . S
C169 Tb160 2.764 . S
C169 C163 1.504 . S
C169 O181 1.239 . S
C169 O182 1.263 . S
O170 Tb160 2.325 . S
O170 C180 1.236 . S
O171 Tb161 2.322 . S
O171 C180 1.257 . S
O172 Tb161 2.349 . S
O172 C183 1.261 . S
O173 Tb160 2.303 . S
O173 C183 1.257 . S
O174 Tb161 2.415 . S
O174 C190 1.239 . S
O175 Tb161 2.399 . S
O175 C190 1.263 . S
O176 Tb161 2.325 . S
O176 C191 1.236 . S
O177 Tb160 2.322 . S
O177 C191 1.257 . S
O178 Tb160 2.349 . S
O178 C162 1.261 . S
O179 Tb161 2.303 . S
O179 C162 1.257 . S
C180 O170 1.236 . S
C180 O171 1.257 . S
O181 Tb160 2.415 . S
O181 C169 1.239 . S
O182 Tb160 2.399 . S
O182 C169 1.263 . S
C183 O172 1.261 . S
C183 O173 1.257 . S
C184 C187 1.358 1_554 S
C184 C188 1.332 1_554 S
C184 C190 1.504 . S
C185 C186 1.373 . S
C185 C189 1.308 . S
C186 C185 1.373 . S
C186 C187 1.429 . S
C186 H196 0.932 . S
C187 C184 1.358 1_556 S
C187 C186 1.429 . S
C187 H197 0.940 . S
C188 C184 1.332 1_556 S
C188 C189 1.394 . S
C188 H198 0.932 . S
C189 C185 1.308 . S
C189 C188 1.394 . S
C189 H199 0.929 . S
C190 Tb161 2.764 . S
C190 O174 1.239 . S
C190 O175 1.263 . S
C190 C184 1.504 . S
C191 O176 1.236 . S
C191 O177 1.257 . S
H192 C165 0.932 . S
H193 C166 0.930 . S
H194 C167 0.932 . S
H195 C168 0.929 . S
H196 C186 0.932 . S
H197 C187 0.940 . S
H198 C188 0.932 . S
H199 C189 0.929 . S
Tb200 C209 2.764 . S
Tb200 O210 2.325 . S
Tb200 O213 2.303 . S
Tb200 O217 2.322 . S
Tb200 O218 2.349 . S
Tb200 O221 2.415 . S
Tb200 O222 2.399 . S
Tb201 O211 2.322 . S
Tb201 O212 2.349 . S
Tb201 O214 2.415 . S
Tb201 O215 2.399 . S
Tb201 O216 2.325 . S
Tb201 O219 2.303 . S
Tb201 C230 2.764 . S
C202 O218 1.261 . S
C202 O219 1.257 . S
C203 C206 1.358 1_556 S
C203 C207 1.332 1_556 S
C203 C209 1.504 . S
C204 C205 1.373 . S
C204 C208 1.308 . S
C205 C204 1.373 . S
C205 C206 1.429 . S
C205 H232 0.932 . S
C206 C203 1.358 1_554 S
C206 C205 1.429 . S
C206 H233 0.940 . S
C207 C203 1.332 1_554 S
C207 C208 1.394 . S
C207 H234 0.932 . S
C208 C204 1.308 . S
C208 C207 1.394 . S
C208 H235 0.929 . S
C209 Tb200 2.764 . S
C209 C203 1.504 . S
C209 O221 1.239 . S
C209 O222 1.263 . S
O210 Tb200 2.325 . S
O210 C220 1.236 . S
O211 Tb201 2.322 . S
O211 C220 1.257 . S
O212 Tb201 2.349 . S
O212 C223 1.261 . S
O213 Tb200 2.303 . S
O213 C223 1.257 . S
O214 Tb201 2.415 . S
O214 C230 1.239 . S
O215 Tb201 2.399 . S
O215 C230 1.263 . S
O216 Tb201 2.325 . S
O216 C231 1.236 . S
O217 Tb200 2.322 . S
O217 C231 1.257 . S
O218 Tb200 2.349 . S
O218 C202 1.261 . S
O219 Tb201 2.303 . S
O219 C202 1.257 . S
C220 O210 1.236 . S
C220 O211 1.257 . S
O221 Tb200 2.415 . S
O221 C209 1.239 . S
O222 Tb200 2.399 . S
O222 C209 1.263 . S
C223 O212 1.261 . S
C223 O213 1.257 . S
C224 C227 1.358 . S
C224 C228 1.332 . S
C224 C230 1.504 . S
C225 C226 1.373 . S
C225 C229 1.308 . S
C226 C225 1.373 . S
C226 C227 1.429 . S
C226 H236 0.932 . S
C227 C224 1.358 . S
C227 C226 1.429 . S
C227 H237 0.930 . S
C228 C224 1.332 . S
C228 C229 1.394 . S
C228 H238 0.932 . S
C229 C225 1.308 . S
C229 C228 1.394 . S
C229 H239 0.929 . S
C230 Tb201 2.764 . S
C230 O214 1.239 . S
C230 O215 1.263 . S
C230 C224 1.504 . S
C231 O216 1.236 . S
C231 O217 1.257 . S
H232 C205 0.932 . S
H233 C206 0.940 . S
H234 C207 0.932 . S
H235 C208 0.929 . S
H236 C226 0.932 . S
H237 C227 0.930 . S
H238 C228 0.932 . S
H239 C229 0.929 . S
Tb240 C249 2.764 . S
Tb240 O250 2.325 . S
Tb240 O253 2.303 . S
Tb240 O257 2.322 1_554 S
Tb240 O258 2.349 . S
Tb240 O261 2.415 . S
Tb240 O262 2.399 . S
Tb241 O251 2.322 1_556 S
Tb241 O252 2.349 . S
Tb241 O254 2.415 . S
Tb241 O255 2.399 . S
Tb241 O256 2.325 . S
Tb241 O259 2.303 . S
Tb241 C270 2.764 . S
C242 O258 1.261 1_556 S
C242 O259 1.257 . S
C243 C246 1.358 . S
C243 C247 1.332 . S
C243 C249 1.504 . S
C244 C245 1.373 . S
C244 C248 1.308 . S
C245 C244 1.373 . S
C245 C246 1.429 . S
C245 H272 0.932 . S
C246 C243 1.358 . S
C246 C245 1.429 . S
C246 H273 0.930 . S
C247 C243 1.332 . S
C247 C248 1.394 . S
C247 H274 0.932 . S
C248 C244 1.308 . S
C248 C247 1.394 . S
C248 H275 0.929 . S
C249 Tb240 2.764 . S
C249 C243 1.504 . S
C249 O261 1.239 . S
C249 O262 1.263 . S
O250 Tb240 2.325 . S
O250 C260 1.236 . S
O251 Tb241 2.322 1_554 S
O251 C260 1.257 . S
O252 Tb241 2.349 . S
O252 C263 1.261 1_556 S
O253 Tb240 2.303 . S
O253 C263 1.257 . S
O254 Tb241 2.415 . S
O254 C270 1.239 . S
O255 Tb241 2.399 . S
O255 C270 1.263 . S
O256 Tb241 2.325 . S
O256 C271 1.236 . S
O257 Tb240 2.322 1_556 S
O257 C271 1.257 . S
O258 Tb240 2.349 . S
O258 C242 1.261 1_554 S
O259 Tb241 2.303 . S
O259 C242 1.257 . S
C260 O250 1.236 . S
C260 O251 1.257 . S
O261 Tb240 2.415 . S
O261 C249 1.239 . S
O262 Tb240 2.399 . S
O262 C249 1.263 . S
C263 O252 1.261 1_554 S
C263 O253 1.257 . S
C264 C267 1.358 . S
C264 C268 1.332 . S
C264 C270 1.504 . S
C265 C266 1.373 . S
C265 C269 1.308 . S
C266 C265 1.373 . S
C266 C267 1.429 . S
C266 H276 0.932 . S
C267 C264 1.358 . S
C267 C266 1.429 . S
C267 H277 0.930 . S
C268 C264 1.332 . S
C268 C269 1.394 . S
C268 H278 0.932 . S
C269 C265 1.308 . S
C269 C268 1.394 . S
C269 H279 0.929 . S
C270 Tb241 2.764 . S
C270 O254 1.239 . S
C270 O255 1.263 . S
C270 C264 1.504 . S
C271 O256 1.236 . S
C271 O257 1.257 . S
H272 C245 0.932 . S
H273 C246 0.930 . S
H274 C247 0.932 . S
H275 C248 0.929 . S
H276 C266 0.932 . S
H277 C267 0.930 . S
H278 C268 0.932 . S
H279 C269 0.929 . S
Tb280 C289 2.764 1_655 S
Tb280 O290 2.325 1_655 S
Tb280 O293 2.303 . S
Tb280 O297 2.322 . S
Tb280 O298 2.349 1_655 S
Tb280 O301 2.415 . S
Tb280 O302 2.399 1_655 S
Tb281 O291 2.322 . S
Tb281 O292 2.349 1_455 S
Tb281 O294 2.415 . S
Tb281 O295 2.399 1_455 S
Tb281 O296 2.325 1_455 S
Tb281 O299 2.303 . S
Tb281 C310 2.764 1_455 S
C282 O298 1.261 . S
C282 O299 1.257 . S
C283 C286 1.358 . S
C283 C287 1.332 . S
C283 C289 1.504 . S
C284 C285 1.373 . S
C284 C288 1.308 . S
C285 C284 1.373 . S
C285 C286 1.429 . S
C285 H312 0.932 . S
C286 C283 1.358 . S
C286 C285 1.429 . S
C286 H313 0.930 . S
C287 C283 1.332 . S
C287 C288 1.394 . S
C287 H314 0.932 1_455 S
C288 C284 1.308 . S
C288 C287 1.394 . S
C288 H315 0.929 . S
C289 Tb280 2.764 1_455 S
C289 C283 1.504 . S
C289 O301 1.239 1_455 S
C289 O302 1.263 . S
O290 Tb280 2.325 1_455 S
O290 C300 1.236 . S
O291 Tb281 2.322 . S
O291 C300 1.257 . S
O292 Tb281 2.349 1_655 S
O292 C303 1.261 . S
O293 Tb280 2.303 . S
O293 C303 1.257 . S
O294 Tb281 2.415 . S
O294 C310 1.239 1_455 S
O295 Tb281 2.399 1_655 S
O295 C310 1.263 . S
O296 Tb281 2.325 1_655 S
O296 C311 1.236 . S
O297 Tb280 2.322 . S
O297 C311 1.257 . S
O298 Tb280 2.349 1_455 S
O298 C282 1.261 . S
O299 Tb281 2.303 . S
O299 C282 1.257 . S
C300 O290 1.236 . S
C300 O291 1.257 . S
O301 Tb280 2.415 . S
O301 C289 1.239 1_655 S
O302 Tb280 2.399 1_455 S
O302 C289 1.263 . S
C303 O292 1.261 . S
C303 O293 1.257 . S
C304 C307 1.358 . S
C304 C308 1.332 . S
C304 C310 1.504 . S
C305 C306 1.373 . S
C305 C309 1.308 . S
C306 C305 1.373 . S
C306 C307 1.429 . S
C306 H316 0.932 . S
C307 C304 1.358 . S
C307 C306 1.429 . S
C307 H317 0.930 . S
C308 C304 1.332 . S
C308 C309 1.394 . S
C308 H318 0.932 1_655 S
C309 C305 1.308 . S
C309 C308 1.394 . S
C309 H319 0.929 . S
C310 Tb281 2.764 1_655 S
C310 O294 1.239 1_655 S
C310 O295 1.263 . S
C310 C304 1.504 . S
C311 O296 1.236 . S
C311 O297 1.257 . S
H312 C285 0.932 . S
H313 C286 0.930 . S
H314 C287 0.932 1_655 S
H315 C288 0.929 . S
H316 C306 0.932 . S
H317 C307 0.930 . S
H318 C308 0.932 1_455 S
H319 C309 0.929 . S
C320 C321 1.170 . S
C320 C322 1.380 . S
C321 C320 1.170 . S
C322 C320 1.380 . S
C322 C323 1.170 . S
C323 C322 1.170 . S
C324 C325 1.170 . S
C324 C326 1.380 . S
C325 C324 1.170 . S
C326 C324 1.380 . S
C326 C327 1.170 . S
C327 C326 1.170 . S
C328 C329 1.170 . S
C328 C330 1.380 . S
C329 C328 1.170 . S
C330 C328 1.380 . S
C330 C331 1.170 . S
C331 C330 1.170 . S
C332 C333 1.170 . S
C332 C334 1.380 . S
C333 C332 1.170 . S
C334 C332 1.380 . S
C334 C335 1.170 . S
C335 C334 1.170 . S
C336 C337 1.170 . S
C336 C338 1.380 . S
C337 C336 1.170 . S
C338 C336 1.380 . S
C338 C339 1.170 . S
C339 C338 1.170 . S
C340 C341 1.170 . S
C340 C342 1.380 . S
C341 C340 1.170 . S
C342 C340 1.380 . S
C342 C343 1.170 . S
C343 C342 1.170 . S
C344 C345 1.170 . S
C344 C346 1.380 . S
C345 C344 1.170 . S
C346 C344 1.380 . S
C346 C347 1.170 . S
C347 C346 1.170 . S
C348 C349 1.170 . S
C348 C350 1.380 . S
C349 C348 1.170 . S
C350 C348 1.380 . S
C350 C351 1.170 . S
C351 C350 1.170 . S
C352 C353 1.170 . S
C352 C354 1.380 . S
C353 C352 1.170 . S
C354 C352 1.380 . S
C354 C355 1.170 . S
C355 C354 1.170 . S
C356 C357 1.170 . S
C356 C358 1.380 . S
C357 C356 1.170 . S
C358 C356 1.380 . S
C358 C359 1.170 . S
C359 C358 1.170 . S
C360 C361 1.170 . S
C360 C362 1.380 . S
C361 C360 1.170 . S
C362 C360 1.380 . S
C362 C363 1.170 . S
C363 C362 1.170 . S
C364 C365 1.170 . S
C364 C366 1.380 . S
C365 C364 1.170 . S
C366 C364 1.380 . S
C366 C367 1.170 . S
C367 C366 1.170 . S
C368 C369 1.170 . S
C368 C370 1.380 . S
C369 C368 1.170 . S
C370 C368 1.380 . S
C370 C371 1.170 . S
C371 C370 1.170 . S
C372 C373 1.170 . S
C372 C374 1.380 . S
C373 C372 1.170 . S
C374 C372 1.380 . S
C374 C375 1.170 . S
C375 C374 1.170 . S
C376 C377 1.170 . S
C376 C378 1.380 . S
C377 C376 1.170 . S
C378 C376 1.380 . S
C378 C379 1.170 . S
C379 C378 1.170 . S
C380 C381 1.170 . S
C380 C382 1.380 . S
C381 C380 1.170 . S
C382 C380 1.380 . S
C382 C383 1.170 . S
C383 C382 1.170 . S
C384 C385 1.170 . S
C384 C386 1.380 1_646 S
C385 C384 1.170 . S
C386 C384 1.380 1_464 S
C386 C387 1.170 . S
C387 C386 1.170 . S
C388 C389 1.170 . S
C388 C390 1.380 . S
C389 C388 1.170 . S
C390 C388 1.380 . S
C390 C391 1.170 . S
C391 C390 1.170 . S
C392 C393 1.170 . S
C392 C394 1.380 1_545 S
C393 C392 1.170 . S
C394 C392 1.380 1_565 S
C394 C395 1.170 . S
C395 C394 1.170 . S
C396 C397 1.170 . S
C396 C398 1.380 . S
C397 C396 1.170 . S
C398 C396 1.380 . S
C398 C399 1.170 . S
C399 C398 1.170 . S
C400 C401 1.170 . S
C400 C402 1.380 . S
C401 C400 1.170 . S
C402 C400 1.380 . S
C402 C403 1.170 . S
C403 C402 1.170 . S
C404 C405 1.170 . S
C404 C406 1.380 . S
C405 C404 1.170 . S
C406 C404 1.380 . S
C406 C407 1.170 . S
C407 C406 1.170 . S
C408 C409 1.170 . S
C408 C410 1.380 . S
C409 C408 1.170 . S
C410 C408 1.380 . S
C410 C411 1.170 . S
C411 C410 1.170 . S
C412 C413 1.170 . S
C412 C414 1.380 1_456 S
C413 C412 1.170 . S
C414 C412 1.380 1_654 S
C414 C415 1.170 . S
C415 C414 1.170 . S
C321 C31 1.536 . S
C323 C143 1.538 . S
C325 C23 1.537 . S
C327 C71 1.543 . S
C329 C63 1.536 . S
C331 C111 1.547 . S
C333 C103 1.537 . S
C335 C151 1.535 . S
C337 C20 1.538 . S
C339 C202 1.534 . S
C341 C2 1.543 . S
C343 C180 1.544 . S
C345 C162 1.542 . S
C347 C100 1.541 . S
C349 C220 1.543 . S
C351 C82 1.538 . S
C353 C271 1.540 . S
C355 C223 1.535 . S
C357 C191 1.542 . S
C359 C263 1.530 . S
C361 C311 1.542 . S
C363 C183 1.533 . S
C365 C231 1.538 . S
C367 C303 1.537 . S
C369 C122 1.539 . S
C371 C260 1.543 . S
C373 C242 1.533 . S
C375 C60 1.538 . S
C377 C42 1.536 . S
C379 C300 1.535 . S
C381 C140 1.539 . S
C383 C282 1.530 . S
C385 C4 1.698 . S
C387 C25 1.657 . S
C389 C65 1.667 . S
C391 C44 1.667 . S
C393 C105 1.650 . S
C395 C84 1.695 . S
C397 C145 1.690 . S
C399 C124 1.651 . S
C401 C185 1.663 . S
C403 C164 1.696 . S
C405 C225 1.662 . S
C407 C204 1.673 . S
C409 C265 1.657 . S
C411 C244 1.698 . S
C413 C284 1.661 . S
C415 C305 1.696 . S
