# Generated by pormake.
# Topology qtz-e, (6)-cn, num edge types: 1
# Building blocks:
#     Node 0, Type 0, BuildingBlock: BETFEN_clean_sbu_0, # of connection points: 6
#     Node 1, Type 0, BuildingBlock: BETFEN_clean_sbu_0, # of connection points: 6
#     Node 2, Type 0, BuildingBlock: BETFEN_clean_sbu_0, # of connection points: 6
#     Node 3, Type 0, BuildingBlock: BETFEN_clean_sbu_0, # of connection points: 6
#     Node 4, Type 0, BuildingBlock: BETFEN_clean_sbu_0, # of connection points: 6
#     Node 5, Type 0, BuildingBlock: BETFEN_clean_sbu_0, # of connection points: 6
#     Edge 6, Type (0, 0), BuildingBlock: XIVTED_clean_linker_0, # of connection points: 2
#     Edge 7, Type (0, 0), BuildingBlock: XIVTED_clean_linker_0, # of connection points: 2
#     Edge 8, Type (0, 0), BuildingBlock: XIVTED_clean_linker_0, # of connection points: 2
#     Edge 9, Type (0, 0), BuildingBlock: XIVTED_clean_linker_0, # of connection points: 2
#     Edge 10, Type (0, 0), BuildingBlock: XIVTED_clean_linker_0, # of connection points: 2
#     Edge 11, Type (0, 0), BuildingBlock: XIVTED_clean_linker_0, # of connection points: 2
#     Edge 12, Type (0, 0), BuildingBlock: XIVTED_clean_linker_0, # of connection points: 2
#     Edge 13, Type (0, 0), BuildingBlock: XIVTED_clean_linker_0, # of connection points: 2
#     Edge 14, Type (0, 0), BuildingBlock: XIVTED_clean_linker_0, # of connection points: 2
#     Edge 15, Type (0, 0), BuildingBlock: XIVTED_clean_linker_0, # of connection points: 2
#     Edge 16, Type (0, 0), BuildingBlock: XIVTED_clean_linker_0, # of connection points: 2
#     Edge 17, Type (0, 0), BuildingBlock: XIVTED_clean_linker_0, # of connection points: 2
#     Edge 18, Type (0, 0), BuildingBlock: XIVTED_clean_linker_0, # of connection points: 2
#     Edge 19, Type (0, 0), BuildingBlock: XIVTED_clean_linker_0, # of connection points: 2
#     Edge 20, Type (0, 0), BuildingBlock: XIVTED_clean_linker_0, # of connection points: 2
#     Edge 21, Type (0, 0), BuildingBlock: XIVTED_clean_linker_0, # of connection points: 2
#     Edge 22, Type (0, 0), BuildingBlock: XIVTED_clean_linker_0, # of connection points: 2
#     Edge 23, Type (0, 0), BuildingBlock: XIVTED_clean_linker_0, # of connection points: 2
# Relax obj value: 0.182
# Max RMSD: 0.209
# Mean RMSD: 0.209
data_MOF--net-qtz-e--node1-BETFEN_clean_sbu_0--edge1-XIVTED_clean_linker_0
_symmetry_space_group_name_H-M    P1
_symmetry_Int_Tables_number       1
_symmetry_cell_setting            triclinic
loop_
_symmetry_equiv_pos_as_xyz
'x, y, z'
_cell_length_a     25.791696
_cell_length_b     25.736008
_cell_length_c     52.505891
_cell_angle_alpha  90.615925
_cell_angle_beta   89.645182
_cell_angle_gamma 120.07252
loop_
_atom_site_label
_atom_site_type_symbol
_atom_site_fract_x
_atom_site_fract_y
_atom_site_fract_z
_atom_type_partial_charge
Pr0 Pr 0.27069 0.46584 0.09474 0.0
Pr1 Pr 0.1823 0.33486 0.11157 0.0
C2 C 0.3635 0.56528 0.07512 0.0
C3 C 0.38456 0.58603 0.04891 0.0
C4 C 0.38336 0.63626 0.03948 0.0
C5 C 0.39787 0.6532 1.01406 0.0
C6 C 0.41411 0.62035 0.99752 0.0
C7 C 0.4169 0.57105 1.00717 0.0
C8 C 0.40238 0.55413 0.03259 0.0
C9 C 0.15231 0.43096 0.08589 0.0
C10 C 0.23878 0.35006 0.05456 0.0
C11 C 0.09173 0.23641 0.13309 0.0
C12 C 0.07327 0.21947 0.15982 0.0
C13 C 0.11624 0.23488 0.17911 0.0
C14 C 0.09861 0.22188 0.20459 0.0
C15 C 0.0377 0.19386 0.21138 0.0
C16 C -0.00521 0.17848 0.19201 0.0
C17 C 0.01245 0.19108 0.16648 0.0
C18 C 0.30231 0.37966 0.12472 0.0
C19 C 0.21549 0.45037 0.15196 0.0
O20 O 0.36821 0.51991 0.08334 0.0
O21 O 0.31301 0.56221 0.08172 0.0
O22 O 0.17365 0.39643 0.08259 0.0
O23 O 0.19302 0.48543 0.09167 0.0
O24 O 0.19239 0.31331 0.06874 0.0
O25 O 0.27637 0.40572 0.06208 0.0
O26 O 0.08553 0.28044 0.12445 0.0
O27 O 0.14196 0.23967 0.12588 0.0
O28 O 0.27408 0.40737 0.12575 0.0
O29 O 0.26731 0.32395 0.11806 0.0
O30 O 0.26287 0.48531 0.13786 0.0
O31 O 0.176 0.3952 0.14442 0.0
H32 H 0.37009 0.66182 0.05169 0.0
H33 H 0.39629 0.69203 1.00734 0.0
H34 H 0.42875 0.54447 0.99493 0.0
H35 H 0.40399 0.51532 0.03925 0.0
H36 H 0.16359 0.25784 0.17456 0.0
H37 H 0.13285 0.23518 0.21904 0.0
H38 H 0.9475 0.15649 0.19657 0.0
H39 H 0.97861 0.17933 0.15195 0.0
Pr40 Pr 0.6875 0.16117 0.50872 0.0
Pr41 Pr 0.76558 0.10895 0.49003 0.0
C42 C 0.60996 0.19575 0.52479 0.0
C43 C 0.58739 0.19792 0.55051 0.0
C44 C 0.58511 0.2489 0.55857 0.0
C45 C 0.56935 0.25378 0.58372 0.0
C46 C 0.55545 0.20764 0.60129 0.0
C47 C 0.55703 0.15627 0.59301 0.0
C48 C 0.57298 0.15155 0.56795 0.0
C49 C 0.81127 0.23781 0.51477 0.0
C50 C 0.71651 0.08371 0.55013 0.0
C51 C 0.85076 0.08661 0.47294 0.0
C52 C 0.8814 0.10148 0.44795 0.0
C53 C 0.89043 0.05906 0.43467 0.0
C54 C 0.9113 0.06965 0.40946 0.0
C55 C 0.92308 0.12272 0.39702 0.0
C56 C 0.91581 0.16588 0.41073 0.0
C57 C 0.89511 0.15535 0.43585 0.0
C58 C 0.64496 0.04046 0.47752 0.0
C59 C 0.72949 0.17987 0.44835 0.0
O60 O 0.59273 0.14247 0.51509 0.0
O61 O 0.66673 0.23364 0.5209 0.0
O62 O 0.78568 0.2054 0.49564 0.0
O63 O 0.77221 0.22801 0.53253 0.0
O64 O 0.75731 0.08555 0.53408 0.0
O65 O 0.68056 0.10395 0.54372 0.0
O66 O 0.86256 0.13203 0.48812 0.0
O67 O 0.79373 0.04627 0.47222 0.0
O68 O 0.66486 0.06558 0.49884 0.0
O69 O 0.68781 0.04646 0.46257 0.0
O70 O 0.68681 0.17386 0.46425 0.0
O71 O 0.77134 0.16793 0.45554 0.0
H72 H 0.59658 0.28545 0.54553 0.0
H73 H 0.568 0.29367 0.58939 0.0
H74 H 0.54751 0.12029 0.60609 0.0
H75 H 0.57523 0.11209 0.56239 0.0
H76 H 0.87937 0.01687 0.44348 0.0
H77 H 0.9159 0.03521 0.39941 0.0
H78 H 0.92532 0.20763 0.40192 0.0
H79 H 0.88811 0.18873 0.44552 0.0
Pr80 Pr 0.50073 0.79556 0.7595 0.0
Pr81 Pr 0.63078 0.8401 0.77809 0.0
C82 C 0.40042 0.7868 0.74002 0.0
C83 C 0.37652 0.77994 0.71417 0.0
C84 C 0.40656 0.77205 0.69344 0.0
C85 C 0.38383 0.76545 0.66879 0.0
C86 C 0.33082 0.76692 0.66447 0.0
C87 C 0.30095 0.77487 0.68538 0.0
C88 C 0.32364 0.78126 0.71004 0.0
C89 C 0.5382 0.71373 0.75018 0.0
C90 C 0.61817 0.88193 0.72123 0.0
C91 C 0.72905 0.85041 0.80069 0.0
C92 C 0.74183 0.83902 0.82685 0.0
C93 C 0.79082 0.88419 0.84032 0.0
C94 C 0.80058 0.87579 0.86578 0.0
C95 C 0.76146 0.82195 0.87834 0.0
C96 C 0.71299 0.77638 0.86462 0.0
C97 C 0.70335 0.78478 0.83919 0.0
C98 C 0.5836 0.91422 0.79025 0.0
C99 C 0.51425 0.75503 0.81628 0.0
O100 O 0.44845 0.83832 0.74512 0.0
O101 O 0.40308 0.74069 0.74864 0.0
O102 O 0.57196 0.76995 0.74802 0.0
O103 O 0.483 0.69872 0.75469 0.0
O104 O 0.65479 0.87369 0.73597 0.0
O105 O 0.56169 0.86201 0.72769 0.0
O106 O 0.69223 0.80359 0.787 0.0
O107 O 0.71999 0.89572 0.79816 0.0
O108 O 0.55657 0.85815 0.79136 0.0
O109 O 0.63931 0.93555 0.78374 0.0
O110 O 0.48055 0.76907 0.80239 0.0
O111 O 0.56925 0.77022 0.8091 0.0
H112 H 0.4477 0.77121 0.69634 0.0
H113 H 0.40829 0.76022 0.65308 0.0
H114 H 0.25971 0.77558 0.6827 0.0
H115 H 0.29992 0.78721 0.72588 0.0
H116 H 0.82109 0.92641 0.83123 0.0
H117 H 0.83883 0.91152 0.87562 0.0
H118 H 0.68146 0.73466 0.87371 0.0
H119 H 0.66509 0.74914 0.82935 0.0
Pr120 Pr 0.79475 0.49785 0.17738 0.0
Pr121 Pr 0.829 0.62455 0.15819 0.0
C122 C 0.77469 0.38967 0.19253 0.0
C123 C 0.76388 0.36332 0.21812 0.0
C124 C 0.7523 0.39162 0.23857 0.0
C125 C 0.74443 0.36866 0.26318 0.0
C126 C 0.7484 0.31708 0.2679 0.0
C127 C 0.75983 0.28868 0.24728 0.0
C128 C 0.76746 0.31164 0.22259 0.0
C129 C 0.71122 0.53381 0.18921 0.0
C130 C 0.86907 0.61208 0.21684 0.0
C131 C 0.84095 0.72798 0.14108 0.0
C132 C 0.82786 0.74299 0.11572 0.0
C133 C 0.86776 0.79801 0.10439 0.0
C134 C 0.85948 0.80922 0.0791 0.0
C135 C 0.81126 0.76539 0.06461 0.0
C136 C 0.77047 0.711 0.07633 0.0
C137 C 0.77875 0.6999 0.10154 0.0
C138 C 0.90245 0.5804 0.14133 0.0
C139 C 0.75883 0.51208 0.11866 0.0
O140 O 0.82842 0.43524 0.1887 0.0
O141 O 0.7325 0.39842 0.18356 0.0
O142 O 0.73907 0.54264 0.16851 0.0
O143 O 0.72781 0.50659 0.20506 0.0
O144 O 0.85737 0.64541 0.2015 0.0
O145 O 0.85537 0.55684 0.21064 0.0
O146 O 0.79476 0.68974 0.15457 0.0
O147 O 0.8857 0.71767 0.14181 0.0
O148 O 0.88279 0.5763 0.16367 0.0
O149 O 0.88756 0.61185 0.12719 0.0
O150 O 0.77646 0.48183 0.13306 0.0
O151 O 0.76325 0.56285 0.12674 0.0
H152 H 0.75015 0.43207 0.23557 0.0
H153 H 0.73674 0.39226 0.27861 0.0
H154 H 0.76271 0.24862 0.25023 0.0
H155 H 0.77666 0.28938 0.20705 0.0
H156 H 0.90635 0.83158 0.11486 0.0
H157 H 0.89209 0.85136 0.07064 0.0
H158 H 0.73232 0.6766 0.06593 0.0
H159 H 0.74741 0.6569 0.10974 0.0
Pr160 Pr 0.1489 0.69776 0.42755 0.0
Pr161 Pr 0.09884 0.77759 0.4474 0.0
C162 C 0.17975 0.61785 0.41061 0.0
C163 C 0.18033 0.59505 0.38471 0.0
C164 C 0.22927 0.58953 0.37658 0.0
C165 C 0.23288 0.57349 0.35132 0.0
C166 C 0.18748 0.56252 0.3337 0.0
C167 C 0.13804 0.5672 0.34205 0.0
C168 C 0.13462 0.58354 0.36723 0.0
C169 C 0.22623 0.82165 0.42174 0.0
C170 C 0.07296 0.73021 0.38688 0.0
C171 C 0.07739 0.86281 0.46579 0.0
C172 C 0.09083 0.89211 0.4912 0.0
C173 C 0.04866 0.90252 0.50376 0.0
C174 C 0.05824 0.9236 0.52902 0.0
C175 C 0.11018 0.93455 0.54226 0.0
C176 C 0.15283 0.92514 0.52937 0.0
C177 C 0.14324 0.90414 0.50419 0.0
C178 C 0.03062 0.65688 0.45977 0.0
C179 C 0.17207 0.74076 0.48772 0.0
O180 O 0.12718 0.60197 0.42047 0.0
O181 O 0.21896 0.67437 0.41474 0.0
O182 O 0.19433 0.79631 0.44089 0.0
O183 O 0.21594 0.78221 0.40393 0.0
O184 O 0.07461 0.77039 0.4034 0.0
O185 O 0.09232 0.6933 0.39284 0.0
O186 O 0.1235 0.87507 0.45117 0.0
O187 O 0.03659 0.80581 0.46549 0.0
O188 O 0.05451 0.67653 0.43833 0.0
O189 O 0.03788 0.70007 0.47496 0.0
O190 O 0.16455 0.69756 0.47167 0.0
O191 O 0.15981 0.78277 0.48107 0.0
H192 H 0.26526 0.59871 0.38966 0.0
H193 H 0.27128 0.56973 0.34556 0.0
H194 H 0.10273 0.55993 0.32892 0.0
H195 H 0.09678 0.58839 0.37285 0.0
H196 H 0.00767 0.89304 0.49422 0.0
H197 H 0.02475 0.93097 0.53822 0.0
H198 H 0.19284 0.93203 0.539 0.0
H199 H 0.17621 0.89573 0.49513 0.0
Pr200 Pr 0.46193 0.28485 0.84232 0.0
Pr201 Pr 0.33342 0.20102 0.82334 0.0
C202 C 0.57274 0.36635 0.85804 0.0
C203 C 0.59607 0.38779 0.88397 0.0
C204 C 0.65118 0.39435 0.89148 0.0
C205 C 0.67039 0.40869 0.91682 0.0
C206 C 0.63477 0.41676 0.93509 0.0
C207 C 0.57989 0.41074 0.92736 0.0
C208 C 0.56074 0.39631 0.90214 0.0
C209 C 0.41739 0.16323 0.8529 0.0
C210 C 0.35219 0.2569 0.88238 0.0
C211 C 0.22638 0.11545 0.80575 0.0
C212 C 0.20916 0.08792 0.78004 0.0
C213 C 0.15627 0.07899 0.76858 0.0
C214 C 0.14362 0.06012 0.74308 0.0
C215 C 0.1839 0.05017 0.72846 0.0
C216 C 0.23605 0.05762 0.74029 0.0
C217 C 0.24856 0.07634 0.76572 0.0
C218 C 0.38602 0.31941 0.807 0.0
C219 C 0.44309 0.23327 0.7832 0.0
O220 O 0.53457 0.38121 0.84927 0.0
O221 O 0.55689 0.31046 0.85312 0.0
O222 O 0.41021 0.18391 0.83246 0.0
O223 O 0.44529 0.20628 0.86941 0.0
O224 O 0.31557 0.21247 0.86698 0.0
O225 O 0.40812 0.29459 0.87583 0.0
O226 O 0.2619 0.1032 0.81894 0.0
O227 O 0.24141 0.17207 0.80721 0.0
O228 O 0.38896 0.30346 0.82931 0.0
O229 O 0.35164 0.27356 0.79275 0.0
O230 O 0.47747 0.27954 0.79817 0.0
O231 O 0.38973 0.1908 0.79078 0.0
H232 H 0.67882 0.38731 0.87785 0.0
H233 H 0.71311 0.41349 0.92211 0.0
H234 H 0.55083 0.41561 0.94096 0.0
H235 H 0.51756 0.39052 0.897 0.0
H236 H 0.12558 0.08834 0.77914 0.0
H237 H 0.10335 0.05544 0.73457 0.0
H238 H 0.26765 0.04948 0.72982 0.0
H239 H 0.28988 0.08311 0.77399 0.0
H240 H 0.28638 0.61323 0.30255 0.0
H241 H 0.11905 0.39567 0.18401 0.0
H242 H 0.09903 0.47786 0.30299 0.0
H243 H 0.29752 0.54917 0.17928 0.0
H244 H 0.11172 0.42395 0.22782 0.0
H245 H 0.2926 0.58848 0.25791 0.0
C246 C 0.24662 0.57804 0.29331 0.0
C247 C 0.19211 0.54748 0.30661 0.0
C248 C 0.15238 0.4517 0.21718 0.0
C249 C 0.19883 0.51923 0.25536 0.0
C250 C 0.15664 0.43559 0.19211 0.0
C251 C 0.20908 0.47006 0.17787 0.0
C252 C 0.20106 0.50245 0.22831 0.0
C253 C 0.25619 0.52134 0.18946 0.0
C254 C 0.2501 0.56427 0.26775 0.0
C255 C 0.14185 0.50296 0.29347 0.0
N256 N 0.2512 0.53575 0.21404 0.0
N257 N 0.14649 0.49005 0.26866 0.0
H258 H 0.39102 0.13735 0.75053 0.0
H259 H 0.60788 0.30688 0.63289 0.0
H260 H 0.539 0.31923 0.75586 0.0
H261 H 0.46828 0.12079 0.63129 0.0
H262 H 0.58282 0.31381 0.67742 0.0
H263 H 0.4188 0.13175 0.70668 0.0
C264 C 0.42962 0.17617 0.74254 0.0
C265 C 0.46272 0.22891 0.75702 0.0
C266 C 0.55774 0.27148 0.66732 0.0
C267 C 0.49485 0.22274 0.70639 0.0
C268 C 0.57171 0.26758 0.64183 0.0
C269 C 0.54015 0.21313 0.62825 0.0
C270 C 0.51162 0.22066 0.67936 0.0
C271 C 0.49433 0.16349 0.64101 0.0
C272 C 0.4455 0.17287 0.7174 0.0
C273 C 0.51238 0.27756 0.7455 0.0
N274 N 0.48145 0.1685 0.66575 0.0
N275 N 0.52681 0.27339 0.72082 0.0
H276 H 0.50285 0.62218 0.96775 0.0
H277 H 0.41619 0.73995 0.84335 0.0
H278 H 0.35486 0.65561 0.96497 0.0
H279 H 0.56514 0.70819 0.84721 0.0
H280 H 0.38902 0.7035 0.88701 0.0
H281 H 0.52306 0.64882 0.92286 0.0
C282 C 0.47437 0.6348 0.95767 0.0
C283 C 0.42718 0.63681 0.97022 0.0
C284 C 0.42752 0.70431 0.87824 0.0
C285 C 0.45033 0.66783 0.91874 0.0
C286 C 0.4429 0.72486 0.85327 0.0
C287 C 0.49344 0.72776 0.84167 0.0
C288 C 0.46289 0.68645 0.89168 0.0
C289 C 0.52637 0.70761 0.85547 0.0
C290 C 0.48608 0.65025 0.93203 0.0
C291 C 0.39228 0.6543 0.95621 0.0
N292 N 0.51072 0.68814 0.87975 0.0
N293 N 0.40458 0.66916 0.93125 0.0
H294 H 0.80954 0.19374 0.41103 0.0
H295 H 0.66869 0.3079 0.30508 0.0
H296 H 0.65426 0.21209 0.42494 0.0
H297 H 0.81491 0.27498 0.29119 0.0
H298 H 0.66302 0.27471 0.34905 0.0
H299 H 0.81256 0.22529 0.36735 0.0
C300 C 0.77602 0.20453 0.40496 0.0
C301 C 0.73156 0.20027 0.42183 0.0
C302 C 0.69619 0.27456 0.33635 0.0
C303 C 0.73482 0.2366 0.37139 0.0
C304 C 0.69966 0.29375 0.31126 0.0
C305 C 0.74242 0.29433 0.29435 0.0
C306 C 0.73597 0.25605 0.3447 0.0
C307 C 0.78077 0.27468 0.30338 0.0
C308 C 0.77775 0.22248 0.37988 0.0
C309 C 0.68938 0.2148 0.41266 0.0
N310 N 0.77677 0.25662 0.32791 0.0
N311 N 0.69209 0.23239 0.38806 0.0
H312 H 0.32324 0.6895 0.62631 0.0
H313 H 0.18883 0.82132 0.52545 0.0
H314 H 0.28523 0.83172 0.6428 0.0
H315 H 0.2092 0.6676 0.50926 0.0
H316 H 0.2273 0.82697 0.56806 0.0
H317 H 0.28517 0.68219 0.58301 0.0
C318 C 0.30707 0.7193 0.6208 0.0
C319 C 0.30732 0.76124 0.63823 0.0
C320 C 0.22341 0.79192 0.55526 0.0
C321 C 0.2635 0.7529 0.58881 0.0
C322 C 0.20146 0.78866 0.5308 0.0
C323 C 0.19576 0.74388 0.51364 0.0
C324 C 0.24009 0.75019 0.56278 0.0
C325 C 0.21283 0.70286 0.52184 0.0
C326 C 0.28508 0.71488 0.59614 0.0
C327 C 0.28518 0.79821 0.63015 0.0
N328 N 0.23433 0.70704 0.54585 0.0
N329 N 0.26434 0.79325 0.60605 0.0
H330 H 0.76636 0.42689 0.08895 0.0
H331 H 0.62521 0.4962 0.96709 0.0
H332 H 0.70138 0.55223 0.08828 0.0
H333 H 0.68774 0.36893 0.96498 0.0
H334 H 0.65233 0.51551 1.01193 0.0
H335 H 0.73616 0.40209 0.04411 0.0
C336 C 0.74522 0.44867 0.07951 0.0
C337 C 0.73651 0.49177 0.09241 0.0
C338 C 0.6602 0.4833 1.00174 0.0
C339 C 0.70256 0.46423 0.0412 0.0
C340 C 0.64448 0.47209 0.97609 0.0
C341 C 0.65391 0.43066 0.9622 0.0
C342 C 0.68564 0.45289 1.01382 0.0
C343 C 0.68014 0.40165 0.97486 0.0
C344 C 0.72834 0.4348 0.05389 0.0
C345 C 0.70942 0.51901 0.07914 0.0
N346 N 0.69495 0.41318 0.99997 0.0
N347 N 0.69364 0.50492 0.05436 0.0
H348 H 0.38233 0.49691 0.13297 0.0
H349 H 0.61264 0.43809 0.2098 0.0
H350 H 0.35689 0.31947 0.14316 0.0
H351 H 0.66863 0.59711 0.16499 0.0
H352 H 0.50903 0.40092 0.19627 0.0
H353 H 0.47943 0.53967 0.15412 0.0
C354 C 0.39745 0.46697 0.13954 0.0
C355 C 0.36215 0.40466 0.13604 0.0
C356 C 0.54395 0.44453 0.18991 0.0
C357 C 0.47197 0.45318 0.16093 0.0
C358 C 0.60279 0.46623 0.19792 0.0
C359 C 0.64898 0.52077 0.18844 0.0
C360 C 0.53152 0.4782 0.17274 0.0
C361 C 0.63405 0.55496 0.17274 0.0
C362 C 0.45257 0.49141 0.15172 0.0
C363 C 0.3833 0.3678 0.14522 0.0
N364 N 0.5765 0.5329 0.16519 0.0
N365 N 0.437 0.39268 0.15741 0.0
H366 H 0.01013 0.55784 0.43173 0.0
H367 H 0.85516 0.33487 0.54719 0.0
H368 H 0.00086 0.61607 0.50812 0.0
H369 H 0.88567 0.27832 0.47368 0.0
H370 H 0.92086 0.43935 0.53503 0.0
H371 H 0.97357 0.45609 0.44767 0.0
C372 C 0.00073 0.5492 0.45185 0.0
C373 C 0.00814 0.59512 0.46861 0.0
C374 C 0.91411 0.40408 0.52171 0.0
C375 C 0.96631 0.47932 0.487 0.0
C376 C 0.87697 0.34438 0.52876 0.0
C377 C 0.86391 0.29803 0.5112 0.0
C378 C 0.93774 0.41726 0.49688 0.0
C379 C 0.89375 0.31286 0.48763 0.0
C380 C 0.98008 0.49127 0.46098 0.0
C381 C -0.00488 0.5817 0.4945 0.0
N382 N 0.92826 0.37128 0.48093 0.0
N383 N 0.97446 0.52497 0.50287 0.0
H384 H 0.35598 0.05972 0.82571 0.0
H385 H 0.64214 0.02977 0.80874 0.0
H386 H 0.50988 0.15667 0.87451 0.0
H387 H 0.46586 0.87701 0.79642 0.0
H388 H 0.5958 0.08297 0.8292 0.0
H389 H 0.39469 -0.00602 0.81233 0.0
C390 C 0.39684 0.06577 0.83423 0.0
C391 C 0.42966 0.11335 0.85128 0.0
C392 C 0.56747 0.03771 0.82204 0.0
C393 C 0.47542 0.04074 0.83522 0.0
C394 C 0.59379 0.00778 0.81014 0.0
C395 C 0.55763 0.94928 0.80081 0.0
C396 C 0.50475 0.00918 0.82405 0.0
C397 C 0.49521 0.9223 0.8033 0.0
C398 C 0.41917 0.02877 0.82643 0.0
C399 C 0.48296 0.12018 0.86147 0.0
N400 N 0.47063 0.95267 0.81448 0.0
N401 N 0.50497 0.08511 0.85282 0.0
H402 H 0.59723 0.69749 0.78921 0.0
H403 H 0.40686 0.34998 0.75713 0.0
H404 H 0.51357 0.62406 0.71689 0.0
H405 H 0.4598 0.42379 0.8329 0.0
H406 H 0.47207 0.44944 0.73955 0.0
H407 H 0.57796 0.59849 0.80185 0.0
C408 C 0.57793 0.66133 0.77541 0.0
C409 C 0.55688 0.66882 0.75199 0.0
C410 C 0.46998 0.44388 0.76001 0.0
C411 C 0.53227 0.555 0.76664 0.0
C412 C 0.43235 0.38724 0.77008 0.0
C413 C 0.42708 0.37912 0.79652 0.0
C414 C 0.50222 0.49294 0.77651 0.0
C415 C 0.46216 0.4285 0.8124 0.0
C416 C 0.56586 0.6044 0.78282 0.0
C417 C 0.53069 0.61997 0.73509 0.0
N418 N 0.49775 0.48362 0.80215 0.0
N419 N 0.51787 0.56471 0.74293 0.0
H420 H 0.07607 0.37512 0.12502 0.0
H421 H 0.91742 0.56165 0.09136 0.0
H422 H 0.08965 0.45592 0.05215 0.0
H423 H 0.93631 0.51068 0.16723 0.0
H424 H 0.95553 0.4987 0.07399 0.0
H425 H -0.00394 0.3947 0.13695 0.0
C426 C 0.05973 0.39364 0.11092 0.0
C427 C 0.08899 0.41335 0.08747 0.0
C428 C 0.95075 0.50077 0.09443 0.0
C429 C 3e-05 0.43932 0.10149 0.0
C430 C 0.92956 0.53709 0.10436 0.0
C431 C 0.92472 0.54199 0.13079 0.0
C432 C 0.96743 0.46931 0.11105 0.0
C433 C 0.9398 0.50834 0.14675 0.0
C434 C 0.01486 0.40613 0.11796 0.0
C435 C 0.06761 0.4395 0.07032 0.0
N436 N 0.96106 0.47381 0.13664 0.0
N437 N 0.02522 0.45298 0.07786 0.0
H438 H 0.32269 0.86426 0.38945 0.0
H439 H 0.54703 0.02345 0.50503 0.0
H440 H 0.26755 0.89724 0.46275 0.0
H441 H 0.6034 0.00742 0.42926 0.0
H442 H 0.44552 0.987 0.48881 0.0
H443 H 0.42718 0.92978 0.40174 0.0
C444 C 0.33252 0.88658 0.40786 0.0
C445 C 0.28653 0.87426 0.42533 0.0
C446 C 0.48024 0.99196 0.47568 0.0
C447 C 0.4058 0.94789 0.43979 0.0
C448 C 0.53802 0.01253 0.48498 0.0
C449 C 0.58334 0.01799 0.46849 0.0
C450 C 0.46782 0.97638 0.44976 0.0
C451 C 0.56949 0.00317 0.44268 0.0
C452 C 0.39223 0.9236 0.41498 0.0
C453 C 0.30179 0.90474 0.44886 0.0
N454 N 0.5129 0.98268 0.43415 0.0
N455 N 0.3602 0.93915 0.45563 0.0
H456 H 0.41419 0.35067 0.91502 0.0
H457 H 0.17038 0.24317 0.02731 0.0
H458 H 0.24388 0.18679 0.90792 0.0
H459 H 0.33527 0.41324 0.02382 0.0
H460 H 0.19433 0.21674 0.98515 0.0
H461 H 0.3843 0.36908 0.95616 0.0
C462 C 0.37026 0.31819 0.92206 0.0
C463 C 0.33167 0.26689 0.9077 0.0
C464 C 0.22501 0.25979 0.99374 0.0
C465 C 0.29644 0.28828 0.95576 0.0
C466 C 0.21147 0.27486 1.01783 0.0
C467 C 0.25076 0.33066 0.02932 0.0
C468 C 0.27831 0.30072 0.98122 0.0
C469 C 0.30326 0.36984 1.016 0.0
C470 C 0.35303 0.32895 0.94578 0.0
C471 C 0.27515 0.227 0.91822 0.0
N472 N 0.31526 0.35412 0.99292 0.0
N473 N 0.2592 0.23846 0.94166 0.0
H474 H 0.00077 0.09654 0.37133 0.0
H475 H 0.95354 0.21074 0.23647 0.0
H476 H 0.88463 0.17006 0.36002 0.0
H477 H 0.08009 0.15023 0.24847 0.0
H478 H 0.92512 0.19253 0.28138 0.0
H479 H 0.0278 0.11227 0.32614 0.0
C480 C 0.9808 0.11581 0.35936 0.0
C481 C 0.94055 0.13222 0.3696 0.0
C482 C 0.95906 0.18313 0.27421 0.0
C483 C 0.97154 0.15063 0.31779 0.0
C484 C 0.97504 0.19317 0.2485 0.0
C485 C 0.01925 0.18194 0.23862 0.0
C486 C -0.01279 0.16136 0.29026 0.0
C487 C 0.04624 0.16012 0.25529 0.0
C488 C -0.00351 0.12506 0.33357 0.0
C489 C 0.91658 0.15758 0.35314 0.0
N490 N 0.02974 0.15046 0.28023 0.0
N491 N 0.93236 0.16589 0.32812 0.0
H492 H 0.72325 0.91455 0.69426 0.0
H493 H 0.63762 0.07616 0.58653 0.0
H494 H 0.55998 0.92232 0.69155 0.0
H495 H 0.77561 0.03066 0.57318 0.0
H496 H 0.61888 0.03012 0.62786 0.0
H497 H 0.75224 0.96551 0.65267 0.0
C498 C 0.69369 0.92708 0.68507 0.0
C499 C 0.63903 0.914 0.69654 0.0
C500 C 0.65331 0.02991 0.61602 0.0
C501 C 0.67201 0.97231 0.64922 0.0
C502 C 0.66426 0.05649 0.59221 0.0
C503 C 0.70807 0.05706 0.57598 0.0
C504 C 0.6863 0.00337 0.62416 0.0
C505 C 0.74118 0.03104 0.58493 0.0
C506 C 0.71017 0.95589 0.66131 0.0
C507 C 0.60245 0.93109 0.68363 0.0
N508 N 0.72956 0.00507 0.60845 0.0
N509 N 0.61965 0.95926 0.6609 0.0
H510 H 0.74645 0.72025 0.90175 0.0
H511 H 0.82984 0.86888 0.04139 0.0
H512 H 0.79648 0.9045 0.91755 0.0
H513 H 0.77787 0.68434 0.02505 0.0
H514 H 0.81934 0.88351 0.99614 0.0
H515 H 0.75835 0.70673 0.94686 0.0
C516 C 0.75974 0.75788 0.91469 0.0
C517 C 0.77036 0.81362 0.90572 0.0
C518 C 0.81017 0.8398 1.00247 0.0
C519 C 0.78468 0.79853 0.9576 0.0
C520 C 0.81644 0.83148 0.02832 0.0
C521 C 0.80455 0.77522 0.03716 0.0
C522 C 0.79204 0.79159 0.98524 0.0
C523 C 0.7866 0.72826 0.01927 0.0
C524 C 0.76684 0.75018 0.94048 0.0
C525 C 0.78851 0.86093 0.92345 0.0
N526 N 0.78096 0.73752 0.99425 0.0
N527 N 0.79496 0.85228 0.94849 0.0
H528 H 0.09229 0.67586 0.3465 0.0
H529 H 0.88361 0.71102 0.24469 0.0
H530 H -0.00152 0.76976 0.36723 0.0
H531 H 0.92675 0.56917 0.24519 0.0
H532 H 0.93628 0.74773 0.28586 0.0
H533 H 0.04553 0.65385 0.30505 0.0
C534 C 0.06177 0.69207 0.34238 0.0
C535 C 0.04851 0.72382 0.36073 0.0
C536 C 0.93394 0.70861 0.27682 0.0
C537 C -0.00581 0.69832 0.3126 0.0
C538 C 0.90418 0.68777 0.25334 0.0
C539 C 0.90059 0.63681 0.24143 0.0
C540 C 0.96111 0.67885 0.28803 0.0
C541 C 0.92786 0.60834 0.25356 0.0
C542 C 0.03496 0.67934 0.31855 0.0
C543 C 0.00963 0.74475 0.35374 0.0
N544 N 0.95698 0.62986 0.27597 0.0
N545 N 0.9833 0.7312 0.3302 0.0
H546 H 0.26555 0.09044 0.68928 0.0
H547 H 0.02648 0.89673 0.5808 0.0
H548 H 0.07713 0.97392 0.70433 0.0
H549 H 0.21471 0.0158 0.56634 0.0
H550 H 0.04333 0.92577 0.62582 0.0
H551 H 0.24727 0.06372 0.64421 0.0
C552 C 0.22032 0.05886 0.68318 0.0
C553 C 0.17288 0.03417 0.70081 0.0
C554 C 0.08092 0.94566 0.61278 0.0
C555 C 0.15143 0.00391 0.64883 0.0
C556 C 0.07127 0.92943 0.58699 0.0
C557 C 0.11923 0.95374 0.56961 0.0
C558 C 0.139 0.98659 0.6214 0.0
C559 C 0.17645 -0.00485 0.57899 0.0
C560 C 0.20984 0.04394 0.65733 0.0
C561 C 0.11505 -0.00548 0.6915 0.0
N562 N 0.18468 0.01012 0.60416 0.0
N563 N 0.10601 0.98054 0.66622 0.0
loop_
_geom_bond_atom_site_label_1
_geom_bond_atom_site_label_2
_geom_bond_distance
_geom_bond_site_symmetry_2
_ccdc_geom_bond_type
Pr0 C2 2.880 . S
Pr0 O20 2.562 . S
Pr0 O21 2.490 . S
Pr0 O22 2.695 . S
Pr0 O23 2.512 . S
Pr0 O25 2.437 . S
Pr0 O28 2.436 . S
Pr0 O30 2.438 . S
Pr1 C11 2.880 . S
Pr1 O22 2.436 . S
Pr1 O24 2.438 . S
Pr1 O26 2.562 . S
Pr1 O27 2.490 . S
Pr1 O28 2.695 . S
Pr1 O29 2.512 . S
Pr1 O31 2.437 . S
C2 Pr0 2.880 . S
C2 C3 1.491 1_554 S
C2 O20 1.254 . S
C2 O21 1.225 . S
C3 C2 1.491 1_556 S
C3 C4 1.392 . S
C3 C8 1.356 . S
C4 C3 1.392 . S
C4 C5 1.368 . S
C4 H32 0.929 . S
C5 C4 1.368 . S
C5 C6 1.386 . S
C5 H33 0.929 . S
C6 C5 1.386 . S
C6 C7 1.373 . S
C7 C6 1.373 . S
C7 C8 1.409 . S
C7 H34 0.931 . S
C8 C3 1.356 . S
C8 C7 1.409 . S
C8 H35 0.930 . S
C9 O22 1.270 . S
C9 O23 1.248 . S
C10 O24 1.267 . S
C10 O25 1.278 . S
C11 Pr1 2.880 . S
C11 C12 1.491 . S
C11 O26 1.254 . S
C11 O27 1.225 . S
C12 C11 1.491 . S
C12 C13 1.392 . S
C12 C17 1.356 . S
C13 C12 1.392 . S
C13 C14 1.368 . S
C13 H36 0.929 . S
C14 C13 1.368 . S
C14 C15 1.386 . S
C14 H37 0.929 . S
C15 C14 1.386 . S
C15 C16 1.373 . S
C16 C15 1.373 . S
C16 C17 1.409 . S
C16 H38 0.931 . S
C17 C12 1.356 . S
C17 C16 1.409 . S
C17 H39 0.930 . S
C18 O28 1.270 . S
C18 O29 1.248 . S
C19 O30 1.267 . S
C19 O31 1.278 . S
O20 Pr0 2.562 . S
O20 C2 1.254 . S
O21 Pr0 2.490 . S
O21 C2 1.225 . S
O22 Pr0 2.695 . S
O22 Pr1 2.436 . S
O22 C9 1.270 . S
O23 Pr0 2.512 . S
O23 C9 1.248 . S
O24 Pr1 2.438 . S
O24 C10 1.267 . S
O25 Pr0 2.437 . S
O25 C10 1.278 . S
O26 Pr1 2.562 . S
O26 C11 1.254 . S
O27 Pr1 2.490 . S
O27 C11 1.225 . S
O28 Pr0 2.436 . S
O28 Pr1 2.695 . S
O28 C18 1.270 . S
O29 Pr1 2.512 . S
O29 C18 1.248 . S
O30 Pr0 2.438 . S
O30 C19 1.267 . S
O31 Pr1 2.437 . S
O31 C19 1.278 . S
H32 C4 0.929 . S
H33 C5 0.929 . S
H34 C7 0.931 . S
H35 C8 0.930 . S
H36 C13 0.929 . S
H37 C14 0.929 . S
H38 C16 0.931 . S
H39 C17 0.930 . S
Pr40 C42 2.880 . S
Pr40 O60 2.562 . S
Pr40 O61 2.490 . S
Pr40 O62 2.695 . S
Pr40 O63 2.512 . S
Pr40 O65 2.437 . S
Pr40 O68 2.436 . S
Pr40 O70 2.438 . S
Pr41 C51 2.880 . S
Pr41 O62 2.436 . S
Pr41 O64 2.438 . S
Pr41 O66 2.562 . S
Pr41 O67 2.490 . S
Pr41 O68 2.695 . S
Pr41 O69 2.512 1_545 S
Pr41 O71 2.437 . S
C42 Pr40 2.880 . S
C42 C43 1.491 . S
C42 O60 1.254 . S
C42 O61 1.225 . S
C43 C42 1.491 . S
C43 C44 1.392 . S
C43 C48 1.356 . S
C44 C43 1.392 . S
C44 C45 1.368 . S
C44 H72 0.929 . S
C45 C44 1.368 . S
C45 C46 1.386 . S
C45 H73 0.929 . S
C46 C45 1.386 . S
C46 C47 1.373 . S
C47 C46 1.373 . S
C47 C48 1.409 . S
C47 H74 0.931 . S
C48 C43 1.356 . S
C48 C47 1.409 . S
C48 H75 0.930 . S
C49 O62 1.270 . S
C49 O63 1.248 . S
C50 O64 1.267 . S
C50 O65 1.278 . S
C51 Pr41 2.880 . S
C51 C52 1.491 . S
C51 O66 1.254 . S
C51 O67 1.225 . S
C52 C51 1.491 . S
C52 C53 1.392 . S
C52 C57 1.356 . S
C53 C52 1.392 . S
C53 C54 1.368 . S
C53 H76 0.929 1_545 S
C54 C53 1.368 . S
C54 C55 1.386 . S
C54 H77 0.929 1_545 S
C55 C54 1.386 . S
C55 C56 1.373 . S
C56 C55 1.373 . S
C56 C57 1.409 . S
C56 H78 0.931 . S
C57 C52 1.356 . S
C57 C56 1.409 . S
C57 H79 0.930 . S
C58 O68 1.272 . S
C58 O69 1.247 1_545 S
C59 O70 1.267 . S
C59 O71 1.278 . S
O60 Pr40 2.562 . S
O60 C42 1.254 . S
O61 Pr40 2.490 . S
O61 C42 1.225 . S
O62 Pr40 2.695 . S
O62 Pr41 2.436 . S
O62 C49 1.270 . S
O63 Pr40 2.512 . S
O63 C49 1.248 . S
O64 Pr41 2.438 . S
O64 C50 1.267 . S
O65 Pr40 2.437 . S
O65 C50 1.278 . S
O66 Pr41 2.562 . S
O66 C51 1.254 . S
O67 Pr41 2.490 . S
O67 C51 1.225 . S
O68 Pr40 2.436 . S
O68 Pr41 2.695 . S
O68 C58 1.272 . S
O69 Pr41 2.512 1_565 S
O69 C58 1.247 1_565 S
O70 Pr40 2.438 . S
O70 C59 1.267 . S
O71 Pr41 2.437 . S
O71 C59 1.278 . S
H72 C44 0.929 . S
H73 C45 0.929 . S
H74 C47 0.931 . S
H75 C48 0.930 . S
H76 C53 0.929 1_565 S
H77 C54 0.929 1_565 S
H78 C56 0.931 . S
H79 C57 0.930 . S
Pr80 C82 2.880 . S
Pr80 O100 2.562 . S
Pr80 O101 2.490 . S
Pr80 O102 2.695 . S
Pr80 O103 2.512 . S
Pr80 O105 2.437 . S
Pr80 O108 2.436 . S
Pr80 O110 2.438 . S
Pr81 C91 2.880 . S
Pr81 O102 2.436 . S
Pr81 O104 2.438 . S
Pr81 O106 2.562 . S
Pr81 O107 2.490 . S
Pr81 O108 2.695 . S
Pr81 O109 2.519 . S
Pr81 O111 2.437 . S
C82 Pr80 2.880 . S
C82 C83 1.491 . S
C82 O100 1.254 . S
C82 O101 1.225 . S
C83 C82 1.491 . S
C83 C84 1.392 . S
C83 C88 1.356 . S
C84 C83 1.392 . S
C84 C85 1.368 . S
C84 H112 0.929 . S
C85 C84 1.368 . S
C85 C86 1.386 . S
C85 H113 0.929 . S
C86 C85 1.386 . S
C86 C87 1.373 . S
C87 C86 1.373 . S
C87 C88 1.409 . S
C87 H114 0.931 . S
C88 C83 1.356 . S
C88 C87 1.409 . S
C88 H115 0.930 . S
C89 O102 1.270 . S
C89 O103 1.248 . S
C90 O104 1.267 . S
C90 O105 1.278 . S
C91 Pr81 2.880 . S
C91 C92 1.491 . S
C91 O106 1.254 . S
C91 O107 1.225 . S
C92 C91 1.491 . S
C92 C93 1.392 . S
C92 C97 1.356 . S
C93 C92 1.392 . S
C93 C94 1.368 . S
C93 H116 0.929 . S
C94 C93 1.368 . S
C94 C95 1.386 . S
C94 H117 0.929 . S
C95 C94 1.386 . S
C95 C96 1.373 . S
C96 C95 1.373 . S
C96 C97 1.409 . S
C96 H118 0.931 . S
C97 C92 1.356 . S
C97 C96 1.409 . S
C97 H119 0.930 . S
C98 O108 1.270 . S
C98 O109 1.248 . S
C99 O110 1.267 . S
C99 O111 1.278 . S
O100 Pr80 2.562 . S
O100 C82 1.254 . S
O101 Pr80 2.490 . S
O101 C82 1.225 . S
O102 Pr80 2.695 . S
O102 Pr81 2.436 . S
O102 C89 1.270 . S
O103 Pr80 2.512 . S
O103 C89 1.248 . S
O104 Pr81 2.438 . S
O104 C90 1.267 . S
O105 Pr80 2.437 . S
O105 C90 1.278 . S
O106 Pr81 2.562 . S
O106 C91 1.254 . S
O107 Pr81 2.490 . S
O107 C91 1.225 . S
O108 Pr80 2.436 . S
O108 Pr81 2.695 . S
O108 C98 1.270 . S
O109 Pr81 2.519 . S
O109 C98 1.248 . S
O110 Pr80 2.438 . S
O110 C99 1.267 . S
O111 Pr81 2.437 . S
O111 C99 1.278 . S
H112 C84 0.929 . S
H113 C85 0.929 . S
H114 C87 0.931 . S
H115 C88 0.930 . S
H116 C93 0.929 . S
H117 C94 0.929 . S
H118 C96 0.931 . S
H119 C97 0.930 . S
Pr120 C122 2.880 . S
Pr120 O140 2.562 . S
Pr120 O141 2.490 . S
Pr120 O142 2.695 . S
Pr120 O143 2.512 . S
Pr120 O145 2.437 . S
Pr120 O148 2.436 . S
Pr120 O150 2.438 . S
Pr121 C131 2.880 . S
Pr121 O142 2.436 . S
Pr121 O144 2.438 . S
Pr121 O146 2.562 . S
Pr121 O147 2.490 . S
Pr121 O148 2.695 . S
Pr121 O149 2.519 . S
Pr121 O151 2.437 . S
C122 Pr120 2.880 . S
C122 C123 1.491 . S
C122 O140 1.254 . S
C122 O141 1.225 . S
C123 C122 1.491 . S
C123 C124 1.392 . S
C123 C128 1.356 . S
C124 C123 1.392 . S
C124 C125 1.368 . S
C124 H152 0.929 . S
C125 C124 1.368 . S
C125 C126 1.386 . S
C125 H153 0.929 . S
C126 C125 1.386 . S
C126 C127 1.373 . S
C127 C126 1.373 . S
C127 C128 1.409 . S
C127 H154 0.931 . S
C128 C123 1.356 . S
C128 C127 1.409 . S
C128 H155 0.930 . S
C129 O142 1.270 . S
C129 O143 1.248 . S
C130 O144 1.267 . S
C130 O145 1.278 . S
C131 Pr121 2.880 . S
C131 C132 1.491 . S
C131 O146 1.254 . S
C131 O147 1.225 . S
C132 C131 1.491 . S
C132 C133 1.392 . S
C132 C137 1.356 . S
C133 C132 1.392 . S
C133 C134 1.368 . S
C133 H156 0.929 . S
C134 C133 1.368 . S
C134 C135 1.386 . S
C134 H157 0.929 . S
C135 C134 1.386 . S
C135 C136 1.373 . S
C136 C135 1.373 . S
C136 C137 1.409 . S
C136 H158 0.931 . S
C137 C132 1.356 . S
C137 C136 1.409 . S
C137 H159 0.930 . S
C138 O148 1.270 . S
C138 O149 1.248 . S
C139 O150 1.267 . S
C139 O151 1.278 . S
O140 Pr120 2.562 . S
O140 C122 1.254 . S
O141 Pr120 2.490 . S
O141 C122 1.225 . S
O142 Pr120 2.695 . S
O142 Pr121 2.436 . S
O142 C129 1.270 . S
O143 Pr120 2.512 . S
O143 C129 1.248 . S
O144 Pr121 2.438 . S
O144 C130 1.267 . S
O145 Pr120 2.437 . S
O145 C130 1.278 . S
O146 Pr121 2.562 . S
O146 C131 1.254 . S
O147 Pr121 2.490 . S
O147 C131 1.225 . S
O148 Pr120 2.436 . S
O148 Pr121 2.695 . S
O148 C138 1.270 . S
O149 Pr121 2.519 . S
O149 C138 1.248 . S
O150 Pr120 2.438 . S
O150 C139 1.267 . S
O151 Pr121 2.437 . S
O151 C139 1.278 . S
H152 C124 0.929 . S
H153 C125 0.929 . S
H154 C127 0.931 . S
H155 C128 0.930 . S
H156 C133 0.929 . S
H157 C134 0.929 . S
H158 C136 0.931 . S
H159 C137 0.930 . S
Pr160 C162 2.880 . S
Pr160 O180 2.562 . S
Pr160 O181 2.490 . S
Pr160 O182 2.695 . S
Pr160 O183 2.512 . S
Pr160 O185 2.437 . S
Pr160 O188 2.436 . S
Pr160 O190 2.438 . S
Pr161 C171 2.880 . S
Pr161 O182 2.436 . S
Pr161 O184 2.438 . S
Pr161 O186 2.562 . S
Pr161 O187 2.490 . S
Pr161 O188 2.695 . S
Pr161 O189 2.512 1_455 S
Pr161 O191 2.437 . S
C162 Pr160 2.880 . S
C162 C163 1.491 . S
C162 O180 1.254 . S
C162 O181 1.225 . S
C163 C162 1.491 . S
C163 C164 1.392 . S
C163 C168 1.356 . S
C164 C163 1.392 . S
C164 C165 1.368 . S
C164 H192 0.929 . S
C165 C164 1.368 . S
C165 C166 1.386 . S
C165 H193 0.929 . S
C166 C165 1.386 . S
C166 C167 1.373 . S
C167 C166 1.373 . S
C167 C168 1.409 . S
C167 H194 0.931 . S
C168 C163 1.356 . S
C168 C167 1.409 . S
C168 H195 0.930 . S
C169 O182 1.270 . S
C169 O183 1.248 . S
C170 O184 1.267 . S
C170 O185 1.278 . S
C171 Pr161 2.880 . S
C171 C172 1.491 . S
C171 O186 1.254 . S
C171 O187 1.225 . S
C172 C171 1.491 . S
C172 C173 1.392 . S
C172 C177 1.356 . S
C173 C172 1.392 . S
C173 C174 1.368 . S
C173 H196 0.929 1_455 S
C174 C173 1.368 . S
C174 C175 1.386 . S
C174 H197 0.929 1_455 S
C175 C174 1.386 . S
C175 C176 1.373 . S
C176 C175 1.373 . S
C176 C177 1.409 . S
C176 H198 0.931 . S
C177 C172 1.356 . S
C177 C176 1.409 . S
C177 H199 0.930 . S
C178 O188 1.272 . S
C178 O189 1.247 1_455 S
C179 O190 1.267 . S
C179 O191 1.278 . S
O180 Pr160 2.562 . S
O180 C162 1.254 . S
O181 Pr160 2.490 . S
O181 C162 1.225 . S
O182 Pr160 2.695 . S
O182 Pr161 2.436 . S
O182 C169 1.270 . S
O183 Pr160 2.512 . S
O183 C169 1.248 . S
O184 Pr161 2.438 . S
O184 C170 1.267 . S
O185 Pr160 2.437 . S
O185 C170 1.278 . S
O186 Pr161 2.562 . S
O186 C171 1.254 . S
O187 Pr161 2.490 . S
O187 C171 1.225 . S
O188 Pr160 2.436 . S
O188 Pr161 2.695 . S
O188 C178 1.272 . S
O189 Pr161 2.512 1_655 S
O189 C178 1.247 1_655 S
O190 Pr160 2.438 . S
O190 C179 1.267 . S
O191 Pr161 2.437 . S
O191 C179 1.278 . S
H192 C164 0.929 . S
H193 C165 0.929 . S
H194 C167 0.931 . S
H195 C168 0.930 . S
H196 C173 0.929 1_655 S
H197 C174 0.929 1_655 S
H198 C176 0.931 . S
H199 C177 0.930 . S
Pr200 C202 2.880 . S
Pr200 O220 2.562 . S
Pr200 O221 2.490 . S
Pr200 O222 2.695 . S
Pr200 O223 2.512 . S
Pr200 O225 2.437 . S
Pr200 O228 2.436 . S
Pr200 O230 2.438 . S
Pr201 C211 2.880 . S
Pr201 O222 2.436 . S
Pr201 O224 2.438 . S
Pr201 O226 2.562 . S
Pr201 O227 2.490 . S
Pr201 O228 2.695 . S
Pr201 O229 2.512 . S
Pr201 O231 2.437 . S
C202 Pr200 2.880 . S
C202 C203 1.491 . S
C202 O220 1.254 . S
C202 O221 1.225 . S
C203 C202 1.491 . S
C203 C204 1.392 . S
C203 C208 1.356 . S
C204 C203 1.392 . S
C204 C205 1.368 . S
C204 H232 0.929 . S
C205 C204 1.368 . S
C205 C206 1.386 . S
C205 H233 0.929 . S
C206 C205 1.386 . S
C206 C207 1.373 . S
C207 C206 1.373 . S
C207 C208 1.409 . S
C207 H234 0.931 . S
C208 C203 1.356 . S
C208 C207 1.409 . S
C208 H235 0.930 . S
C209 O222 1.270 . S
C209 O223 1.248 . S
C210 O224 1.267 . S
C210 O225 1.278 . S
C211 Pr201 2.880 . S
C211 C212 1.491 . S
C211 O226 1.254 . S
C211 O227 1.225 . S
C212 C211 1.491 . S
C212 C213 1.392 . S
C212 C217 1.356 . S
C213 C212 1.392 . S
C213 C214 1.368 . S
C213 H236 0.929 . S
C214 C213 1.368 . S
C214 C215 1.386 . S
C214 H237 0.929 . S
C215 C214 1.386 . S
C215 C216 1.373 . S
C216 C215 1.373 . S
C216 C217 1.409 . S
C216 H238 0.931 . S
C217 C212 1.356 . S
C217 C216 1.409 . S
C217 H239 0.930 . S
C218 O228 1.270 . S
C218 O229 1.248 . S
C219 O230 1.267 . S
C219 O231 1.278 . S
O220 Pr200 2.562 . S
O220 C202 1.254 . S
O221 Pr200 2.490 . S
O221 C202 1.225 . S
O222 Pr200 2.695 . S
O222 Pr201 2.436 . S
O222 C209 1.270 . S
O223 Pr200 2.512 . S
O223 C209 1.248 . S
O224 Pr201 2.438 . S
O224 C210 1.267 . S
O225 Pr200 2.437 . S
O225 C210 1.278 . S
O226 Pr201 2.562 . S
O226 C211 1.254 . S
O227 Pr201 2.490 . S
O227 C211 1.225 . S
O228 Pr200 2.436 . S
O228 Pr201 2.695 . S
O228 C218 1.270 . S
O229 Pr201 2.512 . S
O229 C218 1.248 . S
O230 Pr200 2.438 . S
O230 C219 1.267 . S
O231 Pr201 2.437 . S
O231 C219 1.278 . S
H232 C204 0.929 . S
H233 C205 0.929 . S
H234 C207 0.931 . S
H235 C208 0.930 . S
H236 C213 0.929 . S
H237 C214 0.929 . S
H238 C216 0.931 . S
H239 C217 0.930 . S
H240 C246 0.930 . S
H241 C250 0.930 . S
H242 C255 0.929 . S
H243 C253 0.929 . S
H244 C248 0.929 . S
H245 C254 0.929 . S
C246 H240 0.930 . S
C246 C247 1.367 . S
C246 C254 1.378 . S
C247 C246 1.367 . S
C247 C255 1.433 . S
C248 H244 0.929 . S
C248 C250 1.378 . S
C248 C252 1.350 . S
C249 C252 1.463 . S
C249 C254 1.350 . S
C249 N257 1.427 . S
C250 H241 0.930 . S
C250 C248 1.378 . S
C250 C251 1.367 . S
C251 C250 1.367 . S
C251 C253 1.433 . S
C252 C248 1.350 . S
C252 C249 1.463 . S
C252 N256 1.427 . S
C253 H243 0.929 . S
C253 C251 1.433 . S
C253 N256 1.384 . S
C254 H245 0.929 . S
C254 C246 1.378 . S
C254 C249 1.350 . S
C255 H242 0.929 . S
C255 C247 1.433 . S
C255 N257 1.384 . S
N256 C252 1.427 . S
N256 C253 1.384 . S
N257 C249 1.427 . S
N257 C255 1.384 . S
H258 C264 0.930 . S
H259 C268 0.930 . S
H260 C273 0.929 . S
H261 C271 0.929 . S
H262 C266 0.929 . S
H263 C272 0.929 . S
C264 H258 0.930 . S
C264 C265 1.367 . S
C264 C272 1.378 . S
C265 C264 1.367 . S
C265 C273 1.433 . S
C266 H262 0.929 . S
C266 C268 1.378 . S
C266 C270 1.350 . S
C267 C270 1.463 . S
C267 C272 1.350 . S
C267 N275 1.427 . S
C268 H259 0.930 . S
C268 C266 1.378 . S
C268 C269 1.367 . S
C269 C268 1.367 . S
C269 C271 1.433 . S
C270 C266 1.350 . S
C270 C267 1.463 . S
C270 N274 1.427 . S
C271 H261 0.929 . S
C271 C269 1.433 . S
C271 N274 1.384 . S
C272 H263 0.929 . S
C272 C264 1.378 . S
C272 C267 1.350 . S
C273 H260 0.929 . S
C273 C265 1.433 . S
C273 N275 1.384 . S
N274 C270 1.427 . S
N274 C271 1.384 . S
N275 C267 1.427 . S
N275 C273 1.384 . S
H276 C282 0.930 . S
H277 C286 0.930 . S
H278 C291 0.929 . S
H279 C289 0.929 . S
H280 C284 0.929 . S
H281 C290 0.929 . S
C282 H276 0.930 . S
C282 C283 1.367 . S
C282 C290 1.378 . S
C283 C282 1.367 . S
C283 C291 1.433 . S
C284 H280 0.929 . S
C284 C286 1.378 . S
C284 C288 1.350 . S
C285 C288 1.463 . S
C285 C290 1.350 . S
C285 N293 1.427 . S
C286 H277 0.930 . S
C286 C284 1.378 . S
C286 C287 1.367 . S
C287 C286 1.367 . S
C287 C289 1.433 . S
C288 C284 1.350 . S
C288 C285 1.463 . S
C288 N292 1.427 . S
C289 H279 0.929 . S
C289 C287 1.433 . S
C289 N292 1.384 . S
C290 H281 0.929 . S
C290 C282 1.378 . S
C290 C285 1.350 . S
C291 H278 0.929 . S
C291 C283 1.433 . S
C291 N293 1.384 . S
N292 C288 1.427 . S
N292 C289 1.384 . S
N293 C285 1.427 . S
N293 C291 1.384 . S
H294 C300 0.930 . S
H295 C304 0.930 . S
H296 C309 0.929 . S
H297 C307 0.929 . S
H298 C302 0.929 . S
H299 C308 0.929 . S
C300 H294 0.930 . S
C300 C301 1.367 . S
C300 C308 1.378 . S
C301 C300 1.367 . S
C301 C309 1.433 . S
C302 H298 0.929 . S
C302 C304 1.378 . S
C302 C306 1.350 . S
C303 C306 1.463 . S
C303 C308 1.350 . S
C303 N311 1.427 . S
C304 H295 0.930 . S
C304 C302 1.378 . S
C304 C305 1.367 . S
C305 C304 1.367 . S
C305 C307 1.433 . S
C306 C302 1.350 . S
C306 C303 1.463 . S
C306 N310 1.427 . S
C307 H297 0.929 . S
C307 C305 1.433 . S
C307 N310 1.384 . S
C308 H299 0.929 . S
C308 C300 1.378 . S
C308 C303 1.350 . S
C309 H296 0.929 . S
C309 C301 1.433 . S
C309 N311 1.384 . S
N310 C306 1.427 . S
N310 C307 1.384 . S
N311 C303 1.427 . S
N311 C309 1.384 . S
H312 C318 0.930 . S
H313 C322 0.930 . S
H314 C327 0.929 . S
H315 C325 0.929 . S
H316 C320 0.929 . S
H317 C326 0.929 . S
C318 H312 0.930 . S
C318 C319 1.367 . S
C318 C326 1.378 . S
C319 C318 1.367 . S
C319 C327 1.433 . S
C320 H316 0.929 . S
C320 C322 1.378 . S
C320 C324 1.350 . S
C321 C324 1.463 . S
C321 C326 1.350 . S
C321 N329 1.427 . S
C322 H313 0.930 . S
C322 C320 1.378 . S
C322 C323 1.367 . S
C323 C322 1.367 . S
C323 C325 1.433 . S
C324 C320 1.350 . S
C324 C321 1.463 . S
C324 N328 1.427 . S
C325 H315 0.929 . S
C325 C323 1.433 . S
C325 N328 1.384 . S
C326 H317 0.929 . S
C326 C318 1.378 . S
C326 C321 1.350 . S
C327 H314 0.929 . S
C327 C319 1.433 . S
C327 N329 1.384 . S
N328 C324 1.427 . S
N328 C325 1.384 . S
N329 C321 1.427 . S
N329 C327 1.384 . S
H330 C336 0.930 . S
H331 C340 0.930 . S
H332 C345 0.929 . S
H333 C343 0.929 . S
H334 C338 0.929 1_554 S
H335 C344 0.929 . S
C336 H330 0.930 . S
C336 C337 1.367 . S
C336 C344 1.378 . S
C337 C336 1.367 . S
C337 C345 1.433 . S
C338 H334 0.929 1_556 S
C338 C340 1.378 . S
C338 C342 1.350 1_556 S
C339 C342 1.463 . S
C339 C344 1.350 . S
C339 N347 1.427 . S
C340 H331 0.930 . S
C340 C338 1.378 . S
C340 C341 1.367 . S
C341 C340 1.367 . S
C341 C343 1.433 . S
C342 C338 1.350 1_554 S
C342 C339 1.463 . S
C342 N346 1.427 . S
C343 H333 0.929 . S
C343 C341 1.433 . S
C343 N346 1.384 1_556 S
C344 H335 0.929 . S
C344 C336 1.378 . S
C344 C339 1.350 . S
C345 H332 0.929 . S
C345 C337 1.433 . S
C345 N347 1.384 . S
N346 C342 1.427 . S
N346 C343 1.384 1_554 S
N347 C339 1.427 . S
N347 C345 1.384 . S
H348 C354 0.930 . S
H349 C358 0.930 . S
H350 C363 0.929 . S
H351 C361 0.929 . S
H352 C356 0.929 . S
H353 C362 0.929 . S
C354 H348 0.930 . S
C354 C355 1.367 . S
C354 C362 1.378 . S
C355 C354 1.367 . S
C355 C363 1.433 . S
C356 H352 0.929 . S
C356 C358 1.378 . S
C356 C360 1.350 . S
C357 C360 1.463 . S
C357 C362 1.350 . S
C357 N365 1.427 . S
C358 H349 0.930 . S
C358 C356 1.378 . S
C358 C359 1.367 . S
C359 C358 1.367 . S
C359 C361 1.433 . S
C360 C356 1.350 . S
C360 C357 1.463 . S
C360 N364 1.427 . S
C361 H351 0.929 . S
C361 C359 1.433 . S
C361 N364 1.384 . S
C362 H353 0.929 . S
C362 C354 1.378 . S
C362 C357 1.350 . S
C363 H350 0.929 . S
C363 C355 1.433 . S
C363 N365 1.384 . S
N364 C360 1.427 . S
N364 C361 1.384 . S
N365 C357 1.427 . S
N365 C363 1.384 . S
H366 C372 0.930 1_455 S
H367 C376 0.930 . S
H368 C381 0.929 . S
H369 C379 0.929 . S
H370 C374 0.929 . S
H371 C380 0.929 . S
C372 H366 0.930 1_655 S
C372 C373 1.367 . S
C372 C380 1.378 . S
C373 C372 1.367 . S
C373 C381 1.433 . S
C374 H370 0.929 . S
C374 C376 1.378 . S
C374 C378 1.350 . S
C375 C378 1.463 . S
C375 C380 1.350 . S
C375 N383 1.427 . S
C376 H367 0.930 . S
C376 C374 1.378 . S
C376 C377 1.367 . S
C377 C376 1.367 . S
C377 C379 1.433 . S
C378 C374 1.350 . S
C378 C375 1.463 . S
C378 N382 1.427 . S
C379 H369 0.929 . S
C379 C377 1.433 . S
C379 N382 1.384 . S
C380 H371 0.929 . S
C380 C372 1.378 . S
C380 C375 1.350 . S
C381 H368 0.929 . S
C381 C373 1.433 . S
C381 N383 1.384 . S
N382 C378 1.427 . S
N382 C379 1.384 . S
N383 C375 1.427 . S
N383 C381 1.384 . S
H384 C390 0.930 . S
H385 C394 0.930 . S
H386 C399 0.929 . S
H387 C397 0.929 . S
H388 C392 0.929 . S
H389 C398 0.929 . S
C390 H384 0.930 . S
C390 C391 1.367 . S
C390 C398 1.378 . S
C391 C390 1.367 . S
C391 C399 1.433 . S
C392 H388 0.929 . S
C392 C394 1.378 . S
C392 C396 1.350 . S
C393 C396 1.463 . S
C393 C398 1.350 . S
C393 N401 1.427 . S
C394 H385 0.930 . S
C394 C392 1.378 . S
C394 C395 1.367 . S
C395 C394 1.367 . S
C395 C397 1.433 1_545 S
C396 C392 1.350 . S
C396 C393 1.463 . S
C396 N400 1.427 . S
C397 H387 0.929 . S
C397 C395 1.433 1_565 S
C397 N400 1.384 1_565 S
C398 H389 0.929 . S
C398 C390 1.378 . S
C398 C393 1.350 . S
C399 H386 0.929 . S
C399 C391 1.433 . S
C399 N401 1.384 . S
N400 C396 1.427 . S
N400 C397 1.384 1_545 S
N401 C393 1.427 . S
N401 C399 1.384 . S
H402 C408 0.930 . S
H403 C412 0.930 . S
H404 C417 0.929 . S
H405 C415 0.929 . S
H406 C410 0.929 . S
H407 C416 0.929 . S
C408 H402 0.930 . S
C408 C409 1.367 . S
C408 C416 1.378 . S
C409 C408 1.367 . S
C409 C417 1.433 . S
C410 H406 0.929 . S
C410 C412 1.378 . S
C410 C414 1.350 . S
C411 C414 1.463 . S
C411 C416 1.350 . S
C411 N419 1.427 . S
C412 H403 0.930 . S
C412 C410 1.378 . S
C412 C413 1.367 . S
C413 C412 1.367 . S
C413 C415 1.433 . S
C414 C410 1.350 . S
C414 C411 1.463 . S
C414 N418 1.427 . S
C415 H405 0.929 . S
C415 C413 1.433 . S
C415 N418 1.384 . S
C416 H407 0.929 . S
C416 C408 1.378 . S
C416 C411 1.350 . S
C417 H404 0.929 . S
C417 C409 1.433 . S
C417 N419 1.384 . S
N418 C414 1.427 . S
N418 C415 1.384 . S
N419 C411 1.427 . S
N419 C417 1.384 . S
H420 C426 0.930 . S
H421 C430 0.930 . S
H422 C435 0.929 . S
H423 C433 0.929 . S
H424 C428 0.929 . S
H425 C434 0.929 . S
C426 H420 0.930 . S
C426 C427 1.367 . S
C426 C434 1.378 . S
C427 C426 1.367 . S
C427 C435 1.433 . S
C428 H424 0.929 . S
C428 C430 1.378 1_455 S
C428 C432 1.350 . S
C429 C432 1.463 . S
C429 C434 1.350 . S
C429 N437 1.427 . S
C430 H421 0.930 . S
C430 C428 1.378 1_655 S
C430 C431 1.367 1_655 S
C431 C430 1.367 1_455 S
C431 C433 1.433 . S
C432 C428 1.350 . S
C432 C429 1.463 . S
C432 N436 1.427 . S
C433 H423 0.929 . S
C433 C431 1.433 . S
C433 N436 1.384 . S
C434 H425 0.929 . S
C434 C426 1.378 . S
C434 C429 1.350 . S
C435 H422 0.929 . S
C435 C427 1.433 . S
C435 N437 1.384 . S
N436 C432 1.427 . S
N436 C433 1.384 . S
N437 C429 1.427 . S
N437 C435 1.384 . S
H438 C444 0.930 . S
H439 C448 0.930 . S
H440 C453 0.929 . S
H441 C451 0.929 . S
H442 C446 0.929 1_545 S
H443 C452 0.929 . S
C444 H438 0.930 . S
C444 C445 1.367 . S
C444 C452 1.378 . S
C445 C444 1.367 . S
C445 C453 1.433 . S
C446 H442 0.929 1_565 S
C446 C448 1.378 1_565 S
C446 C450 1.350 . S
C447 C450 1.463 . S
C447 C452 1.350 . S
C447 N455 1.427 . S
C448 H439 0.930 . S
C448 C446 1.378 1_545 S
C448 C449 1.367 1_545 S
C449 C448 1.367 1_565 S
C449 C451 1.433 . S
C450 C446 1.350 . S
C450 C447 1.463 . S
C450 N454 1.427 . S
C451 H441 0.929 . S
C451 C449 1.433 . S
C451 N454 1.384 . S
C452 H443 0.929 . S
C452 C444 1.378 . S
C452 C447 1.350 . S
C453 H440 0.929 . S
C453 C445 1.433 . S
C453 N455 1.384 . S
N454 C450 1.427 . S
N454 C451 1.384 . S
N455 C447 1.427 . S
N455 C453 1.384 . S
H456 C462 0.930 . S
H457 C466 0.930 . S
H458 C471 0.929 . S
H459 C469 0.929 . S
H460 C464 0.929 . S
H461 C470 0.929 . S
C462 H456 0.930 . S
C462 C463 1.367 . S
C462 C470 1.378 . S
C463 C462 1.367 . S
C463 C471 1.433 . S
C464 H460 0.929 . S
C464 C466 1.378 1_556 S
C464 C468 1.350 . S
C465 C468 1.463 . S
C465 C470 1.350 . S
C465 N473 1.427 . S
C466 H457 0.930 . S
C466 C464 1.378 1_554 S
C466 C467 1.367 . S
C467 C466 1.367 . S
C467 C469 1.433 1_554 S
C468 C464 1.350 . S
C468 C465 1.463 . S
C468 N472 1.427 . S
C469 H459 0.929 . S
C469 C467 1.433 1_556 S
C469 N472 1.384 . S
C470 H461 0.929 . S
C470 C462 1.378 . S
C470 C465 1.350 . S
C471 H458 0.929 . S
C471 C463 1.433 . S
C471 N473 1.384 . S
N472 C468 1.427 . S
N472 C469 1.384 . S
N473 C465 1.427 . S
N473 C471 1.384 . S
H474 C480 0.930 . S
H475 C484 0.930 . S
H476 C489 0.929 . S
H477 C487 0.929 . S
H478 C482 0.935 . S
H479 C488 0.929 . S
C480 H474 0.930 . S
C480 C481 1.367 . S
C480 C488 1.378 . S
C481 C480 1.367 . S
C481 C489 1.433 . S
C482 H478 0.935 . S
C482 C484 1.378 . S
C482 C486 1.350 . S
C483 C486 1.463 1_655 S
C483 C488 1.350 . S
C483 N491 1.427 . S
C484 H475 0.930 . S
C484 C482 1.378 . S
C484 C485 1.367 . S
C485 C484 1.367 . S
C485 C487 1.433 . S
C486 C482 1.350 . S
C486 C483 1.463 1_455 S
C486 N490 1.427 . S
C487 H477 0.929 . S
C487 C485 1.433 . S
C487 N490 1.384 . S
C488 H479 0.929 . S
C488 C480 1.378 . S
C488 C483 1.350 . S
C489 H476 0.929 . S
C489 C481 1.433 . S
C489 N491 1.384 . S
N490 C486 1.427 . S
N490 C487 1.384 . S
N491 C483 1.427 . S
N491 C489 1.384 . S
H492 C498 0.930 1_545 S
H493 C502 0.930 . S
H494 C507 0.929 . S
H495 C505 0.929 . S
H496 C500 0.929 . S
H497 C506 0.929 . S
C498 H492 0.930 1_565 S
C498 C499 1.367 . S
C498 C506 1.378 1_565 S
C499 C498 1.367 . S
C499 C507 1.433 . S
C500 H496 0.929 . S
C500 C502 1.378 . S
C500 C504 1.350 . S
C501 C504 1.463 . S
C501 C506 1.350 1_565 S
C501 N509 1.427 . S
C502 H493 0.930 . S
C502 C500 1.378 . S
C502 C503 1.367 1_565 S
C503 C502 1.367 1_545 S
C503 C505 1.433 . S
C504 C500 1.350 . S
C504 C501 1.463 . S
C504 N508 1.427 1_565 S
C505 H495 0.929 . S
C505 C503 1.433 . S
C505 N508 1.384 . S
C506 H497 0.929 . S
C506 C498 1.378 1_545 S
C506 C501 1.350 1_545 S
C507 H494 0.929 . S
C507 C499 1.433 . S
C507 N509 1.384 . S
N508 C504 1.427 1_545 S
N508 C505 1.384 . S
N509 C501 1.427 . S
N509 C507 1.384 . S
H510 C516 0.930 . S
H511 C520 0.930 . S
H512 C525 0.929 . S
H513 C523 0.929 . S
H514 C518 0.929 . S
H515 C524 0.929 . S
C516 H510 0.930 . S
C516 C517 1.367 . S
C516 C524 1.378 . S
C517 C516 1.367 . S
C517 C525 1.433 . S
C518 H514 0.929 . S
C518 C520 1.378 1_556 S
C518 C522 1.350 . S
C519 C522 1.463 . S
C519 C524 1.350 . S
C519 N527 1.427 . S
C520 H511 0.930 . S
C520 C518 1.378 1_554 S
C520 C521 1.369 . S
C521 C520 1.369 . S
C521 C523 1.400 1_554 S
C522 C518 1.350 . S
C522 C519 1.463 . S
C522 N526 1.427 . S
C523 H513 0.929 . S
C523 C521 1.400 1_556 S
C523 N526 1.384 . S
C524 H515 0.929 . S
C524 C516 1.378 . S
C524 C519 1.350 . S
C525 H512 0.929 . S
C525 C517 1.433 . S
C525 N527 1.384 . S
N526 C522 1.427 . S
N526 C523 1.384 . S
N527 C519 1.427 . S
N527 C525 1.384 . S
H528 C534 0.930 . S
H529 C538 0.930 . S
H530 C543 0.929 . S
H531 C541 0.943 . S
H532 C536 0.929 . S
H533 C542 0.929 . S
C534 H528 0.930 . S
C534 C535 1.367 . S
C534 C542 1.378 . S
C535 C534 1.367 . S
C535 C543 1.433 1_455 S
C536 H532 0.929 . S
C536 C538 1.378 . S
C536 C540 1.350 . S
C537 C540 1.463 1_455 S
C537 C542 1.350 . S
C537 N545 1.427 1_455 S
C538 H529 0.930 . S
C538 C536 1.378 . S
C538 C539 1.367 . S
C539 C538 1.367 . S
C539 C541 1.415 1_655 S
C540 C536 1.350 . S
C540 C537 1.463 1_655 S
C540 N544 1.427 1_655 S
C541 H531 0.943 . S
C541 C539 1.415 1_455 S
C541 N544 1.388 . S
C542 H533 0.929 . S
C542 C534 1.378 . S
C542 C537 1.350 . S
C543 H530 0.929 . S
C543 C535 1.433 1_655 S
C543 N545 1.384 . S
N544 C540 1.427 1_455 S
N544 C541 1.388 . S
N545 C537 1.427 1_655 S
N545 C543 1.384 . S
H546 C552 0.930 . S
H547 C556 0.930 . S
H548 C561 0.929 . S
H549 C559 0.929 . S
H550 C554 0.929 . S
H551 C560 0.929 . S
C552 H546 0.930 . S
C552 C553 1.367 . S
C552 C560 1.378 . S
C553 C552 1.367 . S
C553 C561 1.433 . S
C554 H550 0.929 . S
C554 C556 1.378 . S
C554 C558 1.350 . S
C555 C558 1.463 1_545 S
C555 C560 1.350 . S
C555 N563 1.427 1_545 S
C556 H547 0.930 . S
C556 C554 1.378 . S
C556 C557 1.367 . S
C557 C556 1.367 . S
C557 C559 1.433 . S
C558 C554 1.350 . S
C558 C555 1.463 1_565 S
C558 N562 1.427 . S
C559 H549 0.929 . S
C559 C557 1.433 . S
C559 N562 1.384 . S
C560 H551 0.929 . S
C560 C552 1.378 . S
C560 C555 1.350 . S
C561 H548 0.929 . S
C561 C553 1.433 . S
C561 N563 1.384 1_545 S
N562 C558 1.427 . S
N562 C559 1.384 . S
N563 C555 1.427 1_565 S
N563 C561 1.384 1_565 S
C247 C166 1.456 . S
C251 C19 1.480 . S
C265 C219 1.480 . S
C269 C46 1.455 . S
C283 C6 1.465 . S
C287 C99 1.485 . S
C301 C59 1.480 . S
C305 C126 1.456 . S
C319 C86 1.458 . S
C323 C179 1.481 . S
C337 C139 1.485 . S
C341 C206 1.465 . S
C355 C18 1.314 . S
C359 C129 1.156 . S
C373 C178 1.323 1_655 S
C377 C49 1.163 . S
C391 C209 1.184 . S
C395 C98 1.316 1_545 S
C409 C89 1.160 . S
C413 C218 1.311 . S
C427 C9 1.163 . S
C431 C138 1.311 1_455 S
C445 C169 1.156 . S
C449 C58 1.314 1_565 S
C463 C210 1.749 . S
C467 C10 1.750 . S
C481 C55 0.866 . S
C485 C15 0.853 . S
C499 C90 1.749 . S
C503 C50 1.748 . S
C517 C95 0.853 . S
C521 C135 0.895 . S
C535 C170 1.744 . S
C539 C130 1.744 . S
C553 C215 0.859 . S
C557 C175 0.867 . S
