# Generated by pormake.
# Topology umh, (4)-cn, num edge types: 1
# Building blocks:
#     Node 0, Type 0, BuildingBlock: NAWXER_clean_sbu_0, # of connection points: 4
#     Node 1, Type 0, BuildingBlock: NAWXER_clean_sbu_0, # of connection points: 4
#     Node 2, Type 0, BuildingBlock: NAWXER_clean_sbu_0, # of connection points: 4
#     Node 3, Type 0, BuildingBlock: NAWXER_clean_sbu_0, # of connection points: 4
#     Node 4, Type 0, BuildingBlock: NAWXER_clean_sbu_0, # of connection points: 4
#     Node 5, Type 0, BuildingBlock: NAWXER_clean_sbu_0, # of connection points: 4
#     Node 6, Type 0, BuildingBlock: NAWXER_clean_sbu_0, # of connection points: 4
#     Node 7, Type 0, BuildingBlock: NAWXER_clean_sbu_0, # of connection points: 4
#     Node 8, Type 0, BuildingBlock: NAWXER_clean_sbu_0, # of connection points: 4
#     Node 9, Type 0, BuildingBlock: NAWXER_clean_sbu_0, # of connection points: 4
#     Node 10, Type 0, BuildingBlock: NAWXER_clean_sbu_0, # of connection points: 4
#     Node 11, Type 0, BuildingBlock: NAWXER_clean_sbu_0, # of connection points: 4
#     Node 12, Type 0, BuildingBlock: NAWXER_clean_sbu_0, # of connection points: 4
#     Node 13, Type 0, BuildingBlock: NAWXER_clean_sbu_0, # of connection points: 4
#     Node 14, Type 0, BuildingBlock: NAWXER_clean_sbu_0, # of connection points: 4
#     Node 15, Type 0, BuildingBlock: NAWXER_clean_sbu_0, # of connection points: 4
#     Edge 16, Type (0, 0), BuildingBlock: KIFKEQ_clean_linker_1, # of connection points: 2
#     Edge 17, Type (0, 0), BuildingBlock: KIFKEQ_clean_linker_1, # of connection points: 2
#     Edge 18, Type (0, 0), BuildingBlock: KIFKEQ_clean_linker_1, # of connection points: 2
#     Edge 19, Type (0, 0), BuildingBlock: KIFKEQ_clean_linker_1, # of connection points: 2
#     Edge 20, Type (0, 0), BuildingBlock: KIFKEQ_clean_linker_1, # of connection points: 2
#     Edge 21, Type (0, 0), BuildingBlock: KIFKEQ_clean_linker_1, # of connection points: 2
#     Edge 22, Type (0, 0), BuildingBlock: KIFKEQ_clean_linker_1, # of connection points: 2
#     Edge 23, Type (0, 0), BuildingBlock: KIFKEQ_clean_linker_1, # of connection points: 2
#     Edge 24, Type (0, 0), BuildingBlock: KIFKEQ_clean_linker_1, # of connection points: 2
#     Edge 25, Type (0, 0), BuildingBlock: KIFKEQ_clean_linker_1, # of connection points: 2
#     Edge 26, Type (0, 0), BuildingBlock: KIFKEQ_clean_linker_1, # of connection points: 2
#     Edge 27, Type (0, 0), BuildingBlock: KIFKEQ_clean_linker_1, # of connection points: 2
#     Edge 28, Type (0, 0), BuildingBlock: KIFKEQ_clean_linker_1, # of connection points: 2
#     Edge 29, Type (0, 0), BuildingBlock: KIFKEQ_clean_linker_1, # of connection points: 2
#     Edge 30, Type (0, 0), BuildingBlock: KIFKEQ_clean_linker_1, # of connection points: 2
#     Edge 31, Type (0, 0), BuildingBlock: KIFKEQ_clean_linker_1, # of connection points: 2
#     Edge 32, Type (0, 0), BuildingBlock: KIFKEQ_clean_linker_1, # of connection points: 2
#     Edge 33, Type (0, 0), BuildingBlock: KIFKEQ_clean_linker_1, # of connection points: 2
#     Edge 34, Type (0, 0), BuildingBlock: KIFKEQ_clean_linker_1, # of connection points: 2
#     Edge 35, Type (0, 0), BuildingBlock: KIFKEQ_clean_linker_1, # of connection points: 2
#     Edge 36, Type (0, 0), BuildingBlock: KIFKEQ_clean_linker_1, # of connection points: 2
#     Edge 37, Type (0, 0), BuildingBlock: KIFKEQ_clean_linker_1, # of connection points: 2
#     Edge 38, Type (0, 0), BuildingBlock: KIFKEQ_clean_linker_1, # of connection points: 2
#     Edge 39, Type (0, 0), BuildingBlock: KIFKEQ_clean_linker_1, # of connection points: 2
#     Edge 40, Type (0, 0), BuildingBlock: KIFKEQ_clean_linker_1, # of connection points: 2
#     Edge 41, Type (0, 0), BuildingBlock: KIFKEQ_clean_linker_1, # of connection points: 2
#     Edge 42, Type (0, 0), BuildingBlock: KIFKEQ_clean_linker_1, # of connection points: 2
#     Edge 43, Type (0, 0), BuildingBlock: KIFKEQ_clean_linker_1, # of connection points: 2
#     Edge 44, Type (0, 0), BuildingBlock: KIFKEQ_clean_linker_1, # of connection points: 2
#     Edge 45, Type (0, 0), BuildingBlock: KIFKEQ_clean_linker_1, # of connection points: 2
#     Edge 46, Type (0, 0), BuildingBlock: KIFKEQ_clean_linker_1, # of connection points: 2
#     Edge 47, Type (0, 0), BuildingBlock: KIFKEQ_clean_linker_1, # of connection points: 2
# Relax obj value: 0.044
# Max RMSD: 0.109
# Mean RMSD: 0.109
data_MOF--net-umh--node1-NAWXER_clean_sbu_0--edge1-KIFKEQ_clean_linker_1
_symmetry_space_group_name_H-M    P1
_symmetry_Int_Tables_number       1
_symmetry_cell_setting            triclinic
loop_
_symmetry_equiv_pos_as_xyz
'x, y, z'
_cell_length_a     41.046171
_cell_length_b     40.969862
_cell_length_c     54.733167
_cell_angle_alpha  89.857835
_cell_angle_beta   90.194199
_cell_angle_gamma 89.507096
loop_
_atom_site_label
_atom_site_type_symbol
_atom_site_fract_x
_atom_site_fract_y
_atom_site_fract_z
_atom_type_partial_charge
C0 C 0.34868 0.10554 0.10369 0.0
C1 C 0.30338 0.10804 0.1869 0.0
O2 O 0.36031 0.12201 0.12138 0.0
Zn3 Zn 0.3292 0.10773 0.14622 0.0
O4 O 0.3243 0.08692 0.10729 0.0
Zn5 Zn 0.29284 0.07171 0.13557 0.0
O6 O 0.25046 0.08753 0.12323 0.0
O7 O 0.28521 0.12695 0.13178 0.0
O8 O 0.29006 0.08785 0.1722 0.0
O9 O 0.32736 0.12506 0.17966 0.0
O10 O 0.34383 0.05854 0.15126 0.0
O11 O 0.30515 0.02546 0.13857 0.0
C12 C 0.25744 0.11778 0.12388 0.0
C13 C 0.33347 0.02959 0.14759 0.0
C14 C 0.4501 0.2817 0.67857 0.0
C15 C 0.43653 0.32851 0.59653 0.0
O16 O 0.43572 0.30959 0.67839 0.0
Zn17 Zn 0.42091 0.34606 0.65262 0.0
O18 O 0.46082 0.26988 0.65867 0.0
Zn19 Zn 0.44603 0.30541 0.63731 0.0
O20 O 0.47673 0.34635 0.6461 0.0
O21 O 0.44486 0.38394 0.66243 0.0
O22 O 0.45116 0.30201 0.60215 0.0
O23 O 0.42481 0.34658 0.61352 0.0
O24 O 0.37412 0.34581 0.65685 0.0
O25 O 0.39409 0.30071 0.64051 0.0
C26 C 0.47302 0.37477 0.6556 0.0
C27 C 0.36963 0.31741 0.64817 0.0
C28 C 0.20347 0.41019 0.18131 0.0
C29 C 0.17022 0.42526 0.09655 0.0
O30 O 0.17568 0.39669 0.17779 0.0
Zn31 Zn 0.14243 0.39261 0.14655 0.0
O32 O 0.21666 0.42522 0.16376 0.0
Zn33 Zn 0.18444 0.41757 0.13913 0.0
O34 O 0.14266 0.44838 0.14934 0.0
O35 O 0.10361 0.41354 0.15748 0.0
O36 O 0.19563 0.43438 0.10775 0.0
O37 O 0.14817 0.40966 0.10842 0.0
O38 O 0.13785 0.34673 0.14267 0.0
O39 O 0.18674 0.36446 0.13321 0.0
C40 C 0.11324 0.44273 0.15608 0.0
C41 C 0.16651 0.34077 0.13531 0.0
C42 C 0.05574 0.13968 0.6661 0.0
C43 C 0.15118 0.20664 0.65198 0.0
O44 O 0.04712 0.16783 0.65768 0.0
Zn45 Zn 0.07269 0.21228 0.64696 0.0
O46 O 0.08566 0.13394 0.67013 0.0
Zn47 Zn 0.10322 0.17434 0.65917 0.0
O48 O 0.09067 0.20979 0.68669 0.0
O49 O 0.05817 0.24615 0.6693 0.0
O50 O 0.14972 0.17744 0.65974 0.0
O51 O 0.12477 0.22205 0.64649 0.0
O52 O 0.06213 0.21741 0.61253 0.0
O53 O 0.0937 0.17481 0.6204 0.0
C54 C 0.074 0.23637 0.68796 0.0
C55 C 0.07806 0.19271 0.60499 0.0
C56 C 0.3314 0.38945 0.33964 0.0
C57 C 0.3819 0.38288 0.42094 0.0
O58 O 0.35974 0.37599 0.33904 0.0
Zn59 Zn 0.39775 0.36365 0.36474 0.0
O60 O 0.32046 0.39973 0.3599 0.0
Zn61 Zn 0.35725 0.38783 0.3806 0.0
O62 O 0.39634 0.41945 0.37007 0.0
O63 O 0.43499 0.38834 0.35428 0.0
O64 O 0.35484 0.39642 0.41531 0.0
O65 O 0.39976 0.37053 0.40405 0.0
O66 O 0.39998 0.3163 0.36289 0.0
O67 O 0.35649 0.33546 0.38203 0.0
C68 C 0.42476 0.41642 0.3606 0.0
C69 C 0.37415 0.31132 0.37502 0.0
C70 C 0.05886 0.39716 0.89567 0.0
C71 C 0.16268 0.33395 0.9 0.0
O72 O 0.06077 0.36857 0.90496 0.0
Zn73 Zn 0.10785 0.36107 0.89805 0.0
O74 O 0.08381 0.40959 0.88544 0.0
Zn75 Zn 0.13303 0.40013 0.87733 0.0
O76 O 0.13244 0.39551 0.84122 0.0
O77 O 0.10711 0.3555 0.85999 0.0
O78 O 0.16293 0.36105 0.88842 0.0
O79 O 0.13581 0.32348 0.90858 0.0
O80 O 0.12829 0.39868 0.91926 0.0
O81 O 0.15356 0.43535 0.89649 0.0
C82 C 0.11646 0.36897 0.84016 0.0
C83 C 0.14463 0.42496 0.91743 0.0
C84 C 0.14193 0.06055 0.39264 0.0
C85 C 0.23589 0.12882 0.41057 0.0
O86 O 0.16902 0.05161 0.40192 0.0
Zn87 Zn 0.18988 0.09373 0.40234 0.0
O88 O 0.1372 0.09066 0.38715 0.0
Zn89 Zn 0.16284 0.13572 0.38932 0.0
O90 O 0.16779 0.14905 0.35503 0.0
O91 O 0.19623 0.10496 0.36478 0.0
O92 O 0.21106 0.14453 0.40233 0.0
O93 O 0.23477 0.098 0.41341 0.0
O94 O 0.16327 0.11972 0.42962 0.0
O95 O 0.13655 0.16085 0.41253 0.0
C96 C 0.18758 0.12639 0.34893 0.0
C97 C 0.14409 0.14443 0.43155 0.0
C98 C 0.38489 0.2247 0.90026 0.0
C99 C 0.49564 0.17621 0.89899 0.0
O100 O 0.41112 0.23939 0.90588 0.0
Zn101 Zn 0.44201 0.20342 0.89961 0.0
O102 O 0.38647 0.19518 0.89272 0.0
Zn103 Zn 0.42133 0.15764 0.88621 0.0
O104 O 0.40815 0.125 0.91091 0.0
O105 O 0.42836 0.17001 0.92666 0.0
O106 O 0.47279 0.1577 0.89141 0.0
O107 O 0.48915 0.20512 0.90617 0.0
O108 O 0.44091 0.19834 0.86117 0.0
O109 O 0.41835 0.15176 0.85049 0.0
C110 C 0.41622 0.14169 0.9296 0.0
C111 C 0.432 0.17844 0.84449 0.0
C112 C 0.63008 0.90448 0.92854 0.0
C113 C 0.67688 0.93049 0.8481 0.0
O114 O 0.65572 0.92213 0.92934 0.0
Zn115 Zn 0.68947 0.94512 0.90516 0.0
O116 O 0.618 0.89696 0.90786 0.0
Zn117 Zn 0.65061 0.91867 0.88755 0.0
O118 O 0.69299 0.89086 0.89676 0.0
O119 O 0.73025 0.92227 0.91367 0.0
O120 O 0.65086 0.91455 0.8519 0.0
O121 O 0.69216 0.94282 0.86627 0.0
O122 O 0.68287 0.9917 0.91166 0.0
O123 O 0.64094 0.9694 0.89298 0.0
C124 C 0.7213 0.89427 0.90627 0.0
C125 C 0.65462 0.99458 0.90221 0.0
C126 C 0.58937 0.67304 0.43554 0.0
C127 C 0.56583 0.69956 0.34964 0.0
O128 O 0.56924 0.69411 0.42729 0.0
Zn129 Zn 0.57772 0.68722 0.39267 0.0
O130 O 0.60672 0.65643 0.42048 0.0
Zn131 Zn 0.6133 0.65305 0.3815 0.0
O132 O 0.65769 0.66594 0.37688 0.0
O133 O 0.6262 0.70686 0.3884 0.0
O134 O 0.58831 0.6779 0.35223 0.0
O135 O 0.55283 0.71205 0.36853 0.0
O136 O 0.56039 0.63791 0.38636 0.0
O137 O 0.60285 0.60852 0.3746 0.0
C138 C 0.65439 0.69591 0.38222 0.0
C139 C 0.57261 0.61056 0.37926 0.0
C140 C 0.83604 0.67901 0.89162 0.0
C141 C 0.88527 0.5706 0.88015 0.0
O142 O 0.86264 0.67284 0.88058 0.0
Zn143 Zn 0.85918 0.62551 0.88298 0.0
O144 O 0.81808 0.6554 0.89887 0.0
Zn145 Zn 0.81878 0.60259 0.8995 0.0
O146 O 0.81606 0.59631 0.93438 0.0
O147 O 0.86135 0.62019 0.9223 0.0
O148 O 0.85736 0.56907 0.89049 0.0
O149 O 0.89494 0.59794 0.87205 0.0
O150 O 0.81928 0.61705 0.85842 0.0
O151 O 0.78173 0.59095 0.87918 0.0
C152 C 0.84333 0.60922 0.93954 0.0
C153 C 0.79109 0.60387 0.85933 0.0
C154 C 0.85547 0.83673 0.38556 0.0
C155 C 0.9528 0.90532 0.38275 0.0
O156 O 0.85675 0.86619 0.37819 0.0
Zn157 Zn 0.90327 0.87245 0.38397 0.0
O158 O 0.88148 0.82263 0.39337 0.0
Zn159 Zn 0.93186 0.8329 0.39872 0.0
O160 O 0.93664 0.82862 0.43391 0.0
O161 O 0.90652 0.87105 0.42286 0.0
O162 O 0.95822 0.87644 0.39094 0.0
O163 O 0.92399 0.9138 0.37666 0.0
O164 O 0.92477 0.84038 0.35761 0.0
O165 O 0.95234 0.80164 0.37698 0.0
C166 C 0.9197 0.85357 0.4397 0.0
C167 C 0.94266 0.81459 0.35705 0.0
C168 C 0.66762 0.61673 0.70162 0.0
C169 C 0.63996 0.63438 0.61475 0.0
O170 O 0.68366 0.5988 0.68672 0.0
Zn171 Zn 0.6884 0.59076 0.6486 0.0
O172 O 0.64646 0.63692 0.69345 0.0
Zn173 Zn 0.65142 0.62647 0.65864 0.0
O174 O 0.63488 0.57762 0.65605 0.0
O175 O 0.67556 0.54492 0.64579 0.0
O176 O 0.62582 0.64792 0.63282 0.0
O177 O 0.6628 0.61341 0.61869 0.0
O178 O 0.73334 0.60577 0.64336 0.0
O179 O 0.69834 0.64541 0.65177 0.0
C180 C 0.64559 0.54894 0.65109 0.0
C181 C 0.72726 0.63604 0.64642 0.0
C182 C 0.93113 0.70675 0.19454 0.0
C183 C 0.90254 0.66729 0.11304 0.0
O184 O 0.93991 0.71887 0.1742 0.0
Zn185 Zn 0.91719 0.68827 0.15342 0.0
O186 O 0.91235 0.6819 0.19479 0.0
Zn187 Zn 0.88839 0.65061 0.16932 0.0
O188 O 0.90793 0.60831 0.17653 0.0
O189 O 0.94277 0.64336 0.16094 0.0
O190 O 0.88969 0.65087 0.1304 0.0
O191 O 0.92052 0.69152 0.11809 0.0
O192 O 0.8671 0.70127 0.1594 0.0
O193 O 0.84246 0.65901 0.1758 0.0
C194 C 0.93667 0.61492 0.16954 0.0
C195 C 0.8412 0.68823 0.16789 0.0
C196 C 0.86204 0.9085 0.61394 0.0
C197 C 0.80774 0.91997 0.69269 0.0
O198 O 0.83462 0.9219 0.61838 0.0
Zn199 Zn 0.83594 0.91626 0.65316 0.0
O200 O 0.87967 0.89778 0.63173 0.0
Zn201 Zn 0.87604 0.89412 0.67129 0.0
O202 O 0.87864 0.8468 0.67574 0.0
O203 O 0.83554 0.86378 0.65486 0.0
O204 O 0.83622 0.90711 0.69484 0.0
O205 O 0.79785 0.92909 0.67176 0.0
O206 O 0.87379 0.94977 0.66322 0.0
O207 O 0.91165 0.9212 0.68251 0.0
C208 C 0.85298 0.84039 0.66363 0.0
C209 C 0.90141 0.94844 0.67425 0.0
C210 C 0.52405 0.87351 0.15129 0.0
C211 C 0.62745 0.81188 0.15116 0.0
O212 O 0.55199 0.88398 0.15754 0.0
Zn213 Zn 0.57658 0.84447 0.15074 0.0
O214 O 0.52132 0.84418 0.1434 0.0
Zn215 Zn 0.55207 0.80231 0.13655 0.0
O216 O 0.53437 0.77017 0.15949 0.0
O217 O 0.55771 0.81207 0.17757 0.0
O218 O 0.60305 0.79568 0.14321 0.0
O219 O 0.62337 0.8416 0.15723 0.0
O220 O 0.5734 0.84255 0.11201 0.0
O221 O 0.54885 0.79731 0.10083 0.0
C222 C 0.54251 0.78497 0.17901 0.0
C223 C 0.56252 0.82402 0.09508 0.0
H224 H 0.38322 0.08734 0.94638 0.0
H225 H 0.43773 0.17104 0.97078 0.0
H226 H 0.37094 0.074 0.98905 0.0
H227 H 0.42431 0.15899 1.01252 0.0
H228 H 0.40965 0.12478 0.08901 0.0
H229 H 0.43038 0.12692 0.0472 0.0
H230 H 0.33705 0.09431 0.02013 0.0
H231 H 0.31724 0.09068 0.06164 0.0
C232 C 0.39275 0.10269 0.96076 0.0
C233 C 0.41107 0.13044 0.95507 0.0
C234 C 0.38553 0.09528 0.98522 0.0
C235 C 0.39636 0.1156 1.00438 0.0
C236 C 0.41586 0.14243 0.99853 0.0
C237 C 0.42324 0.14959 0.97433 0.0
C238 C 0.39374 0.11801 0.07406 0.0
C239 C 0.36184 0.10774 0.07861 0.0
C240 C 0.40552 0.11922 0.05007 0.0
C241 C 0.3854 0.1108 0.0301 0.0
C242 C 0.35358 0.10028 0.03488 0.0
C243 C 0.34207 0.09857 0.05878 0.0
H244 H 0.34719 0.39804 0.46224 0.0
H245 H 0.43927 0.35768 0.43828 0.0
H246 H 0.36201 0.3859 0.50453 0.0
H247 H 0.45431 0.34622 0.48048 0.0
H248 H 0.45135 0.29382 0.55507 0.0
H249 H 0.4393 0.30897 0.5128 0.0
H250 H 0.39849 0.40073 0.53728 0.0
H251 H 0.40985 0.38537 0.57941 0.0
C252 C 0.37077 0.38704 0.466 0.0
C253 C 0.39196 0.37876 0.44684 0.0
C254 C 0.37934 0.38014 0.49027 0.0
C255 C 0.40931 0.36486 0.49593 0.0
C256 C 0.43082 0.35744 0.47678 0.0
C257 C 0.42225 0.36428 0.45256 0.0
C258 C 0.44001 0.3173 0.55141 0.0
C259 C 0.43147 0.33828 0.57066 0.0
C260 C 0.4332 0.32608 0.52716 0.0
C261 C 0.41777 0.35605 0.52162 0.0
C262 C 0.40988 0.37725 0.54088 0.0
C263 C 0.41661 0.36848 0.56507 0.0
H264 H 0.20307 0.42641 0.94082 0.0
H265 H 0.10252 0.45605 0.947 0.0
H266 H 0.20979 0.43196 0.98505 0.0
H267 H 0.10907 0.46226 0.99109 0.0
H268 H 0.21402 0.45501 0.06637 0.0
H269 H 0.20957 0.46459 0.02249 0.0
H270 H 0.11447 0.42029 0.02241 0.0
H271 H 0.11872 0.41106 0.06636 0.0
C272 C 0.18297 0.43596 0.95149 0.0
C273 C 0.15249 0.44148 0.9405 0.0
C274 C 0.18662 0.43877 0.9769 0.0
C275 C 0.15975 0.44693 0.99173 0.0
C276 C 0.13008 0.45529 0.98031 0.0
C277 C 0.12648 0.45242 0.955 0.0
C278 C 0.19201 0.4475 0.05705 0.0
C279 C 0.16673 0.43214 0.06996 0.0
C280 C 0.18955 0.45294 0.03184 0.0
C281 C 0.16165 0.44337 1.01886 0.0
C282 C 0.13611 0.42853 0.03185 0.0
C283 C 0.13863 0.42296 0.05706 0.0
H284 H 0.07075 0.23487 0.5662 0.0
H285 H 0.09222 0.13428 0.5841 0.0
H286 H 0.08407 0.22411 0.52338 0.0
H287 H 0.10408 0.12315 0.54147 0.0
H288 H 0.16769 0.12339 0.47513 0.0
H289 H 0.14801 0.13553 0.51566 0.0
H290 H 0.07217 0.19707 0.48495 0.0
H291 H 0.09292 0.18557 0.44378 0.0
C292 C 0.07758 0.21031 0.56088 0.0
C293 C 0.08089 0.18552 0.57856 0.0
C294 C 0.08515 0.20411 0.53632 0.0
C295 C 0.09585 0.17291 0.52897 0.0
C296 C 0.09696 0.14773 0.54652 0.0
C297 C 0.08991 0.15402 0.57099 0.0
C298 C 0.14675 0.13949 0.47687 0.0
C299 C 0.13171 0.15327 0.45613 0.0
C300 C 0.13524 0.14627 0.50023 0.0
C301 C 0.10802 0.16677 0.50369 0.0
C302 C 0.09321 0.18118 0.48299 0.0
C303 C 0.10502 0.17455 0.45941 0.0
H304 H 0.56277 0.78689 0.05284 0.0
H305 H 0.5705 0.88587 0.07902 0.0
H306 H 0.57565 0.80583 1.01129 0.0
H307 H 0.58232 0.90464 0.03802 0.0
H308 H 0.64981 0.91965 0.97448 0.0
H309 H 0.63003 0.89894 1.01298 0.0
H310 H 0.55896 0.8406 0.975 0.0
H311 H 0.57948 0.86116 0.93573 0.0
C312 C 0.56667 0.81266 0.04968 0.0
C313 C 0.56623 0.83476 0.06931 0.0
C314 C 0.57393 0.82353 0.0259 0.0
C315 C 0.58067 0.85669 0.0214 0.0
C316 C 0.57819 0.87883 0.04088 0.0
C317 C 0.5713 0.86803 0.06444 0.0
C318 C 0.62984 0.90254 0.97412 0.0
C319 C 0.61614 0.89229 0.95188 0.0
C320 C 0.61834 0.89073 0.99635 0.0
C321 C 0.59261 0.86835 0.99719 0.0
C322 C 0.57887 0.85777 0.97499 0.0
C323 C 0.59045 0.86973 0.95253 0.0
H324 H 0.67604 0.6226 0.57426 0.0
H325 H 0.58418 0.66458 0.59694 0.0
H326 H 0.66225 0.63311 0.53195 0.0
H327 H 0.56958 0.67415 0.55398 0.0
H328 H 0.56973 0.71256 0.47351 0.0
H329 H 0.58065 0.70475 0.51718 0.0
H330 H 0.62813 0.61267 0.50135 0.0
H331 H 0.61842 0.62113 0.45806 0.0
C332 C 0.65267 0.63389 0.5702 0.0
C333 C 0.63109 0.64244 0.58906 0.0
C334 C 0.64462 0.63974 0.54579 0.0
C335 C 0.61447 0.65393 0.53932 0.0
C336 C 0.59306 0.66327 0.55821 0.0
C337 C 0.60135 0.65769 0.58284 0.0
C338 C 0.58241 0.69063 0.47945 0.0
C339 C 0.59356 0.66767 0.46225 0.0
C340 C 0.58855 0.68606 0.50451 0.0
C341 C 0.60575 0.6583 0.51292 0.0
C342 C 0.61568 0.63484 0.49565 0.0
C343 C 0.60991 0.63958 0.47073 0.0
H344 H 0.80765 0.59943 0.98111 0.0
H345 H 0.902 0.63107 0.95601 0.0
H346 H 0.82297 0.61315 0.0229 0.0
H347 H 0.91756 0.64402 0.99778 0.0
H348 H 0.91857 0.69965 0.07075 0.0
H349 H 0.90498 0.684 0.02889 0.0
H350 H 0.85837 0.59696 0.05591 0.0
H351 H 0.87113 0.6129 0.0975 0.0
C352 C 0.83182 0.60883 0.98455 0.0
C353 C 0.85354 0.61421 0.96522 0.0
C354 C 0.84065 0.61666 1.00851 0.0
C355 C 0.87146 0.6299 1.01368 0.0
C356 C 0.89345 0.63446 0.9944 0.0
C357 C 0.88459 0.62674 0.97046 0.0
C358 C 0.90551 0.67716 0.0677 0.0
C359 C 0.89581 0.65766 0.08747 0.0
C360 C 0.89785 0.66808 0.04372 0.0
C361 C 0.88044 0.63926 0.03905 0.0
C362 C 0.87125 0.61958 0.05885 0.0
C363 C 0.87877 0.62869 0.08273 0.0
H364 H 0.89297 0.90998 0.45675 0.0
H365 H 0.93427 0.81807 0.4811 0.0
H366 H 0.88139 0.92481 0.49874 0.0
H367 H 0.92181 0.83267 0.52338 0.0
H368 H 0.9196 0.88182 0.59828 0.0
H369 H 0.93568 0.86955 0.55643 0.0
H370 H 0.84413 0.90924 0.5302 0.0
H371 H 0.82841 0.92224 0.57189 0.0
C372 C 0.89954 0.89285 0.47109 0.0
C373 C 0.91436 0.8627 0.46554 0.0
C374 C 0.89271 0.90133 0.4952 0.0
C375 C 0.90033 0.87983 0.51444 0.0
C376 C 0.91586 0.84994 0.509 0.0
C377 C 0.92288 0.84148 0.48478 0.0
C378 C 0.90301 0.8882 0.58355 0.0
C379 C 0.87272 0.90309 0.58844 0.0
C380 C 0.91215 0.88091 0.55958 0.0
C381 C 0.89119 0.8883 0.53994 0.0
C382 C 0.86109 0.90361 0.54484 0.0
C383 C 0.852 0.91098 0.56878 0.0
H384 H 0.22685 0.31755 0.12238 0.0
H385 H 0.12792 0.28668 0.13503 0.0
H386 H 0.24287 0.26113 0.1147 0.0
H387 H 0.14376 0.23037 0.12674 0.0
H388 H 0.20046 0.13312 0.14638 0.0
H389 H 0.17479 0.1872 0.14592 0.0
H390 H 0.23838 0.21624 0.08709 0.0
H391 H 0.26456 0.16258 0.08835 0.0
C392 C 0.20844 0.2988 0.12324 0.0
C393 C 0.17618 0.30669 0.12946 0.0
C394 C 0.21753 0.2664 0.11862 0.0
C395 C 0.19455 0.24108 0.11997 0.0
C396 C 0.16215 0.24912 0.12575 0.0
C397 C 0.15309 0.28149 0.13045 0.0
C398 C 0.20777 0.15063 0.13263 0.0
C399 C 0.23412 0.14371 0.11721 0.0
C400 C 0.19332 0.18176 0.13246 0.0
C401 C 0.20503 0.20639 0.11682 0.0
C402 C 0.22932 0.19819 0.0998 0.0
C403 C 0.2439 0.16727 0.10016 0.0
H404 H 0.35321 0.25828 0.62951 0.0
H405 H 0.31181 0.34317 0.66493 0.0
H406 H 0.30021 0.23248 0.62945 0.0
H407 H 0.2585 0.31686 0.66516 0.0
H408 H 0.16248 0.27011 0.6391 0.0
H409 H 0.21476 0.29796 0.63737 0.0
H410 H 0.26374 0.20903 0.65981 0.0
H411 H 0.21169 0.18106 0.6612 0.0
C412 C 0.33278 0.2715 0.6373 0.0
C413 C 0.33681 0.30277 0.64735 0.0
C414 C 0.30241 0.25657 0.63737 0.0
C415 C 0.27523 0.27248 0.64749 0.0
C416 C 0.27898 0.30407 0.65709 0.0
C417 C 0.30951 0.31907 0.65705 0.0
C418 C 0.18443 0.25645 0.64354 0.0
C419 C 0.18293 0.22331 0.6502 0.0
C420 C 0.21433 0.2725 0.64272 0.0
C421 C 0.24336 0.2557 0.64843 0.0
C422 C 0.24184 0.22254 0.65499 0.0
C423 C 0.21198 0.20653 0.65588 0.0
H424 H 0.36142 0.29433 0.42132 0.0
H425 H 0.36771 0.25504 0.34846 0.0
H426 H 0.33841 0.24335 0.43598 0.0
H427 H 0.34288 0.20422 0.36276 0.0
H428 H 0.2967 0.11483 0.39313 0.0
H429 H 0.34061 0.15461 0.38796 0.0
H430 H 0.28446 0.22513 0.4292 0.0
H431 H 0.24151 0.18561 0.43437 0.0
C432 C 0.35817 0.27446 0.40853 0.0
C433 C 0.36569 0.27855 0.38375 0.0
C434 C 0.34497 0.24531 0.41688 0.0
C435 C 0.33811 0.21994 0.40047 0.0
C436 C 0.34801 0.22318 0.37593 0.0
C437 C 0.36197 0.25229 0.36766 0.0
C438 C 0.29467 0.13839 0.40198 0.0
C439 C 0.26597 0.1473 0.41424 0.0
C440 C 0.3195 0.16129 0.39873 0.0
C441 C 0.31598 0.19318 0.40795 0.0
C442 C 0.28837 0.20078 0.42208 0.0
C443 C 0.26363 0.17815 0.42507 0.0
H444 H 0.36967 0.28595 0.91788 0.0
H445 H 0.32576 0.19879 0.88873 0.0
H446 H 0.3156 0.31091 0.92165 0.0
H447 H 0.27211 0.22389 0.89197 0.0
H448 H 0.17547 0.27052 0.9159 0.0
H449 H 0.22916 0.24359 0.91903 0.0
H450 H 0.27506 0.33223 0.89445 0.0
H451 H 0.22256 0.35884 0.89185 0.0
C452 C 0.34857 0.27214 0.91222 0.0
C453 C 0.35224 0.24048 0.90279 0.0
C454 C 0.31751 0.28643 0.91435 0.0
C455 C 0.28934 0.26946 0.90705 0.0
C456 C 0.29306 0.23756 0.89809 0.0
C457 C 0.32401 0.2233 0.89599 0.0
C458 C 0.19711 0.2842 0.91141 0.0
C459 C 0.19451 0.31675 0.90344 0.0
C460 C 0.22787 0.26879 0.91307 0.0
C461 C 0.25659 0.28576 0.90703 0.0
C462 C 0.25376 0.31846 0.89965 0.0
C463 C 0.22334 0.33365 0.8979 0.0
H464 H 0.78866 0.88986 0.90646 0.0
H465 H 0.70124 0.83212 0.90983 0.0
H466 H 0.82165 0.83925 0.90531 0.0
H467 H 0.73353 0.78254 0.9085 0.0
H468 H 0.79472 0.69829 0.92724 0.0
H469 H 0.77213 0.75231 0.93437 0.0
H470 H 0.83012 0.7909 0.87548 0.0
H471 H 0.85366 0.73627 0.86863 0.0
C472 C 0.77659 0.86648 0.90732 0.0
C473 C 0.74241 0.86492 0.90824 0.0
C474 C 0.79538 0.83761 0.90643 0.0
C475 C 0.78019 0.80692 0.90693 0.0
C476 C 0.74609 0.8057 0.90846 0.0
C477 C 0.72752 0.83421 0.90907 0.0
C478 C 0.80294 0.71826 0.91587 0.0
C479 C 0.82544 0.71287 0.89699 0.0
C480 C 0.79002 0.74927 0.92002 0.0
C481 C 0.7989 0.77577 0.90522 0.0
C482 C 0.82288 0.77094 0.88722 0.0
C483 C 0.83617 0.73969 0.88319 0.0
H484 H 0.65648 0.7612 0.39329 0.0
H485 H 0.71686 0.68059 0.36929 0.0
H486 H 0.70411 0.79665 0.39349 0.0
H487 H 0.76408 0.71603 0.3691 0.0
H488 H 0.84648 0.77453 0.40136 0.0
H489 H 0.7974 0.74224 0.39986 0.0
H490 H 0.74525 0.82308 0.36678 0.0
H491 H 0.79483 0.85605 0.3686 0.0
C492 C 0.67983 0.75107 0.38792 0.0
C493 C 0.68288 0.71794 0.38149 0.0
C494 C 0.70707 0.77146 0.38788 0.0
C495 C 0.73794 0.75913 0.38149 0.0
C496 C 0.74077 0.7262 0.37454 0.0
C497 C 0.71363 0.70588 0.37456 0.0
C498 C 0.82464 0.78563 0.39375 0.0
C499 C 0.82472 0.81793 0.38498 0.0
C500 C 0.79647 0.76693 0.39276 0.0
C501 C 0.76747 0.7799 0.38294 0.0
C502 C 0.76721 0.81242 0.37454 0.0
C503 C 0.7956 0.83126 0.3755 0.0
H504 H 0.82558 0.81866 0.62203 0.0
H505 H 0.85867 0.78575 0.69291 0.0
H506 H 0.80257 0.7653 0.61402 0.0
H507 H 0.8341 0.73216 0.68534 0.0
H508 H 0.79244 0.63349 0.6594 0.0
H509 H 0.82995 0.68015 0.66124 0.0
H510 H 0.75439 0.74248 0.63102 0.0
H511 H 0.71795 0.6966 0.62892 0.0
C512 C 0.82804 0.79984 0.63588 0.0
C513 C 0.84329 0.80649 0.65829 0.0
C514 C 0.81483 0.76924 0.63131 0.0
C515 C 0.81579 0.74464 0.64925 0.0
C516 C 0.83299 0.75054 0.67111 0.0
C517 C 0.84687 0.78123 0.67552 0.0
C518 C 0.7844 0.65707 0.6526 0.0
C519 C 0.75235 0.66148 0.644 0.0
C520 C 0.80565 0.68381 0.6539 0.0
C521 C 0.79524 0.71509 0.64623 0.0
C522 C 0.76358 0.71879 0.6367 0.0
C523 C 0.74252 0.69244 0.63563 0.0
H524 H 0.78005 0.66778 0.18095 0.0
H525 H 0.83194 0.75175 0.15401 0.0
H526 H 0.72892 0.69858 0.17828 0.0
H527 H 0.78092 0.78222 0.15097 0.0
H528 H 0.68527 0.83668 0.16859 0.0
H529 H 0.73694 0.80734 0.17458 0.0
H530 H 0.69343 0.71958 0.14619 0.0
H531 H 0.64208 0.74848 0.14055 0.0
C532 C 0.7806 0.6928 0.17455 0.0
C533 C 0.81013 0.70717 0.16759 0.0
C534 C 0.75126 0.71043 0.17288 0.0
C535 C 0.75074 0.74288 0.16427 0.0
C536 C 0.78039 0.75745 0.1579 0.0
C537 C 0.80967 0.73982 0.1595 0.0
C538 C 0.6868 0.81115 0.16359 0.0
C539 C 0.65946 0.79502 0.15408 0.0
C540 C 0.71642 0.79433 0.16697 0.0
C541 C 0.71931 0.76099 0.16103 0.0
C542 C 0.69199 0.74503 0.1514 0.0
C543 C 0.66254 0.76178 0.14796 0.0
H544 H 0.19052 0.17445 0.3134 0.0
H545 H 0.2206 0.07532 0.32943 0.0
H546 H 0.22043 0.1718 0.27453 0.0
H547 H 0.2504 0.073 0.29141 0.0
H548 H 0.26437 0.06508 0.20993 0.0
H549 H 0.23556 0.07169 0.24811 0.0
H550 H 0.27953 0.16608 0.25826 0.0
H551 H 0.30853 0.15962 0.21921 0.0
C552 C 0.2032 0.1521 0.30858 0.0
C553 C 0.20293 0.12503 0.32445 0.0
C554 C 0.22065 0.15074 0.28653 0.0
C555 C 0.23777 0.12218 0.27992 0.0
C556 C 0.23722 0.09523 0.29579 0.0
C557 C 0.22008 0.09662 0.31767 0.0
C558 C 0.26819 0.08725 0.22026 0.0
C559 C 0.28892 0.11178 0.21153 0.0
C560 C 0.25164 0.09099 0.24223 0.0
C561 C 0.25525 0.11938 0.25624 0.0
C562 C 0.27609 0.14403 0.24772 0.0
C563 C 0.29299 0.14017 0.22558 0.0
H564 H 0.45702 0.21528 0.68567 0.0
H565 H 0.44619 0.30655 0.72426 0.0
H566 H 0.45464 0.18563 0.72482 0.0
H567 H 0.44391 0.27729 0.76281 0.0
H568 H 0.47568 0.22261 0.82869 0.0
H569 H 0.48327 0.24362 0.78773 0.0
H570 H 0.41141 0.17662 0.76028 0.0
H571 H 0.40373 0.15499 0.80193 0.0
C572 C 0.45459 0.22899 0.70247 0.0
C573 C 0.45199 0.26327 0.70189 0.0
C574 C 0.45288 0.21202 0.72479 0.0
C575 C 0.44917 0.22915 0.74686 0.0
C576 C 0.44713 0.26339 0.74616 0.0
C577 C 0.44839 0.28018 0.72402 0.0
C578 C 0.46152 0.21204 0.814 0.0
C579 C 0.43856 0.18753 0.8187 0.0
C580 C 0.46597 0.22413 0.79048 0.0
C581 C 0.44757 0.21218 0.77087 0.0
C582 C 0.42594 0.18627 0.77511 0.0
C583 C 0.42146 0.17399 0.7989 0.0
H584 H 0.18156 0.38415 0.22474 0.0
H585 H 0.26488 0.43071 0.19208 0.0
H586 H 0.21155 0.37922 0.26344 0.0
H587 H 0.29448 0.42586 0.23046 0.0
H588 H 0.35065 0.37679 0.29283 0.0
H589 H 0.31872 0.3816 0.25538 0.0
H590 H 0.23539 0.4138 0.29705 0.0
H591 H 0.26739 0.40889 0.33474 0.0
C592 C 0.20615 0.39341 0.2258 0.0
C593 C 0.22078 0.40772 0.20522 0.0
C594 C 0.22328 0.39072 0.248 0.0
C595 C 0.25551 0.40195 0.25001 0.0
C596 C 0.2699 0.41651 0.22948 0.0
C597 C 0.25278 0.41945 0.20746 0.0
C598 C 0.32553 0.38491 0.29409 0.0
C599 C 0.31169 0.39257 0.31685 0.0
C600 C 0.30724 0.3878 0.27256 0.0
C601 C 0.2745 0.3982 0.27317 0.0
C602 C 0.26046 0.4055 0.29595 0.0
C603 C 0.27889 0.40289 0.31753 0.0
H604 H 0.09585 0.21783 0.73294 0.0
H605 H 0.05926 0.30163 0.69306 0.0
H606 H 0.10561 0.25206 0.76842 0.0
H607 H 0.06915 0.33612 0.7289 0.0
H608 H 0.13095 0.3873 0.79247 0.0
H609 H 0.11849 0.3567 0.75491 0.0
H610 H 0.07104 0.28275 0.79796 0.0
H611 H 0.08321 0.31253 0.83484 0.0
C612 C 0.08955 0.24352 0.73181 0.0
C613 C 0.0765 0.25689 0.7102 0.0
C614 C 0.0952 0.26318 0.75217 0.0
C615 C 0.08822 0.29683 0.75146 0.0
C616 C 0.07502 0.31033 0.72991 0.0
C617 C 0.06899 0.29049 0.70953 0.0
C618 C 0.11776 0.3646 0.79381 0.0
C619 C 0.10843 0.35235 0.81677 0.0
C620 C 0.11048 0.34718 0.77235 0.0
C621 C 0.09406 0.31713 0.77355 0.0
C622 C 0.08417 0.3055 0.79642 0.0
C623 C 0.09116 0.32279 0.81763 0.0
H624 H 0.65749 0.90123 0.80501 0.0
H625 H 0.73056 0.96492 0.83538 0.0
H626 H 0.68733 0.90032 0.76617 0.0
H627 H 0.75995 0.96379 0.79701 0.0
H628 H 0.82551 0.91383 0.7405 0.0
H629 H 0.79113 0.91827 0.77651 0.0
H630 H 0.7074 0.93759 0.73063 0.0
H631 H 0.74199 0.93328 0.69428 0.0
C632 C 0.67954 0.91539 0.80333 0.0
C633 C 0.69176 0.93285 0.82344 0.0
C634 C 0.69659 0.91488 0.78111 0.0
C635 C 0.72623 0.9316 0.77871 0.0
C636 C 0.73751 0.95019 0.79844 0.0
C637 C 0.7205 0.9509 0.82044 0.0
C638 C 0.79981 0.91911 0.738 0.0
C639 C 0.78657 0.92336 0.71449 0.0
C640 C 0.78012 0.92178 0.75867 0.0
C641 C 0.74659 0.92843 0.7564 0.0
C642 C 0.73314 0.93232 0.73291 0.0
C643 C 0.75299 0.93007 0.71215 0.0
H644 H 0.52358 0.74897 0.33622 0.0
H645 H 0.58543 0.67322 0.30632 0.0
H646 H 0.51035 0.76748 0.29481 0.0
H647 H 0.57264 0.69195 0.26521 0.0
H648 H 0.54111 0.8177 0.22198 0.0
H649 H 0.54081 0.79523 0.26302 0.0
H650 H 0.53077 0.69819 0.23339 0.0
H651 H 0.53154 0.72091 0.19187 0.0
C652 C 0.53417 0.73613 0.32086 0.0
C653 C 0.55584 0.70984 0.32464 0.0
C654 C 0.52664 0.74677 0.29712 0.0
C655 C 0.54049 0.73124 0.27664 0.0
C656 C 0.56119 0.70422 0.28048 0.0
C657 C 0.5688 0.6937 0.30414 0.0
C658 C 0.53833 0.79158 0.22415 0.0
C659 C 0.53669 0.77104 0.20363 0.0
C660 C 0.5379 0.77871 0.24777 0.0
C661 C 0.53597 0.74487 0.25156 0.0
C662 C 0.53267 0.72436 0.23107 0.0
C663 C 0.53284 0.73735 0.2073 0.0
H664 H 0.737 0.56702 0.84948 0.0
H665 H 0.79508 0.64553 0.8206 0.0
H666 H 0.70097 0.5709 0.8137 0.0
H667 H 0.75887 0.64968 0.78527 0.0
H668 H 0.6721 0.66677 0.73458 0.0
H669 H 0.69844 0.6643 0.77494 0.0
H670 H 0.71037 0.56003 0.76752 0.0
H671 H 0.68478 0.5626 0.72722 0.0
C672 C 0.74199 0.58515 0.83558 0.0
C673 C 0.76908 0.60575 0.83778 0.0
C674 C 0.72135 0.58741 0.81516 0.0
C675 C 0.72695 0.61079 0.79682 0.0
C676 C 0.75366 0.63174 0.79927 0.0
C677 C 0.77462 0.62908 0.81939 0.0
C678 C 0.67954 0.64327 0.74192 0.0
C679 C 0.67642 0.61488 0.72782 0.0
C680 C 0.69486 0.64188 0.76487 0.0
C681 C 0.70662 0.61198 0.77428 0.0
C682 C 0.70141 0.58336 0.76083 0.0
C683 C 0.6868 0.58485 0.73776 0.0
H684 H 0.93311 0.84132 0.31204 0.0
H685 H 0.96871 0.75385 0.34786 0.0
H686 H 0.93788 0.81475 0.27263 0.0
H687 H 0.97403 0.72726 0.30806 0.0
H688 H 0.92267 0.6816 0.24011 0.0
H689 H 0.93329 0.70761 0.27906 0.0
H690 H 0.97348 0.79094 0.2416 0.0
H691 H 0.96228 0.76497 0.20227 0.0
C692 C 0.94249 0.81654 0.31148 0.0
C693 C 0.95009 0.79952 0.33314 0.0
C694 C 0.94552 0.8014 0.2888 0.0
C695 C 0.95616 0.76882 0.28719 0.0
C696 C 0.96539 0.75229 0.30875 0.0
C697 C 0.96248 0.76754 0.33152 0.0
C698 C 0.93409 0.70534 0.24009 0.0
C699 C 0.94121 0.72142 0.21804 0.0
C700 C 0.94051 0.72011 0.2625 0.0
C701 C 0.95414 0.7514 0.26346 0.0
C702 C 0.96263 0.76694 0.24144 0.0
C703 C 0.95632 0.75204 0.21893 0.0
H704 H 0.38163 0.02682 0.18145 0.0
H705 H 0.33788 0.97111 0.12334 0.0
H706 H 0.42597 0.98729 0.18436 0.0
H707 H 0.38309 0.93186 0.12553 0.0
H708 H 0.46042 0.85573 0.14569 0.0
H709 H 0.41196 0.89034 0.1475 0.0
H710 H 0.4726 0.97413 0.16113 0.0
H711 H 0.52092 0.93928 0.16015 0.0
C712 C 0.38134 1.00582 0.16945 0.0
C713 C 0.35635 1.00211 0.15209 0.0
C714 C 0.40699 0.98332 0.17093 0.0
C715 C 0.40865 0.95669 0.15482 0.0
C716 C 0.38264 0.95197 0.13832 0.0
C717 C 0.35663 0.9744 0.13706 0.0
C718 C 0.46342 0.88154 0.14918 0.0
C719 C 0.49462 0.89473 0.1528 0.0
C720 C 0.43556 0.90144 0.15009 0.0
C721 C 0.43817 0.9351 0.15451 0.0
C722 C 0.46945 0.94823 0.15817 0.0
C723 C 0.49729 0.92828 0.15745 0.0
H724 H 0.5797 0.55315 0.6519 0.0
H725 H 0.65849 0.48255 0.65131 0.0
H726 H 0.54048 0.50962 0.65407 0.0
H727 H 0.61869 0.43832 0.65427 0.0
H728 H 0.53234 0.36989 0.63294 0.0
H729 H 0.57577 0.41029 0.63234 0.0
H730 H 0.5205 0.47074 0.6821 0.0
H731 H 0.47679 0.43107 0.68195 0.0
C732 C 0.58874 0.52824 0.65243 0.0
C733 C 0.62234 0.5214 0.65161 0.0
C734 C 0.56612 0.50317 0.65388 0.0
C735 C 0.57631 0.47037 0.65481 0.0
C736 C 0.60995 0.46332 0.65353 0.0
C737 C 0.63277 0.48862 0.65189 0.0
C738 C 0.52963 0.3917 0.64391 0.0
C739 C 0.50091 0.39745 0.65726 0.0
C740 C 0.55462 0.41481 0.64365 0.0
C741 C 0.55151 0.44407 0.65687 0.0
C742 C 0.52342 0.44893 0.67115 0.0
C743 C 0.49838 0.42606 0.67121 0.0
H744 H 0.05912 0.44024 0.18449 0.0
H745 H 0.11417 0.50557 0.13884 0.0
H746 H 0.01776 0.48229 0.1903 0.0
H747 H 0.07192 0.54733 0.14349 0.0
H748 H 1.0021 0.62547 0.16917 0.0
H749 H 0.04595 0.58519 0.1686 0.0
H750 H 0.97487 0.50787 0.16992 0.0
H751 H 0.93116 0.54839 0.17178 0.0
C752 C 0.06234 0.46369 0.17567 0.0
C753 C 0.08987 0.46959 0.16116 0.0
C754 C 0.03843 0.48777 0.17881 0.0
C755 C 0.04104 0.51826 0.16714 0.0
C756 C 0.06909 0.52439 0.15307 0.0
C757 C 0.09336 0.50042 0.1503 0.0
C758 C 0.99587 0.59983 0.16954 0.0
C759 C 0.96313 0.59011 0.1705 0.0
C760 C 0.02107 0.57666 0.16901 0.0
C761 C 0.0142 0.54307 0.16903 0.0
C762 C 0.98134 0.53342 0.17031 0.0
C763 C 0.95614 0.55665 0.17125 0.0
H764 H 0.89368 1.00593 0.64935 0.0
H765 H 0.95563 0.95818 0.70265 0.0
H766 H 0.92955 0.05285 0.64917 0.0
H767 H 0.99082 1.00577 0.7034 0.0
H768 H 0.06831 0.07555 0.67592 0.0
H769 H 0.03008 0.03113 0.67954 0.0
H770 H 0.94994 0.09902 0.66927 0.0
H771 H 0.9887 0.14356 0.66454 0.0
C772 C 0.9147 1.00567 0.66138 0.0
C773 C 0.92188 0.97813 0.6759 0.0
C774 C 0.93525 0.03278 0.66139 0.0
C775 C 0.9634 0.0333 0.67615 0.0
C776 C 0.96987 1.00613 0.69134 0.0
C777 C 0.94953 0.97884 0.69107 0.0
C778 C 0.04253 0.08116 0.67457 0.0
C779 C 0.03164 0.11323 0.66989 0.0
C780 C 0.02045 0.05556 0.67684 0.0
C781 C 0.98669 0.06122 0.67481 0.0
C782 C 0.97572 0.09349 0.6706 0.0
C783 C 0.99794 0.11914 0.66804 0.0
H784 H 0.51203 0.60058 0.39815 0.0
H785 H 0.58498 0.5561 0.35202 0.0
H786 H 0.47674 0.55391 0.39192 0.0
H787 H 0.5491 0.51012 0.34466 0.0
H788 H 0.49121 0.41671 0.35811 0.0
H789 H 0.52701 0.46343 0.36214 0.0
H790 H 0.44297 0.52782 0.36398 0.0
H791 H 0.4073 0.4808 0.36127 0.0
C792 C 0.52041 0.5809 0.3865 0.0
C793 C 0.55133 0.58196 0.37567 0.0
C794 C 0.50003 0.5542 0.3827 0.0
C795 C 0.50983 0.52812 0.36761 0.0
C796 C 0.54081 0.52937 0.35671 0.0
C797 C 0.5614 0.55583 0.36085 0.0
C798 C 0.48043 0.4409 0.35908 0.0
C799 C 0.44644 0.44506 0.35948 0.0
C800 C 0.50098 0.4678 0.36133 0.0
C801 C 0.48802 0.49959 0.36366 0.0
C802 C 0.45394 0.50374 0.36291 0.0
C803 C 0.43342 0.4768 0.36108 0.0
H804 H 0.99381 0.38211 0.88787 0.0
H805 H 0.05841 0.46069 0.90681 0.0
H806 H 0.94878 0.42197 0.88286 0.0
H807 H 0.01419 0.49985 0.90213 0.0
H808 H 0.94662 0.56569 0.86106 0.0
H809 H 0.98543 0.52085 0.86579 0.0
H810 H 0.91341 0.46481 0.90449 0.0
H811 H 0.87416 0.50971 0.8995 0.0
C812 C 0.99813 0.40767 0.89156 0.0
C813 C 0.0296 0.41837 0.89753 0.0
C814 C 0.97251 0.4305 0.88855 0.0
C815 C 0.97816 0.46421 0.89143 0.0
C816 C 0.00918 0.47428 0.899 0.0
C817 C 0.03447 0.45175 0.90192 0.0
C818 C 0.93881 0.54371 0.8703 0.0
C819 C 0.90732 0.54155 0.8801 0.0
C820 C 0.96115 0.51802 0.87316 0.0
C821 C 0.95271 0.48945 0.88594 0.0
C822 C 0.92069 0.48646 0.89458 0.0
C823 C 0.89825 0.51228 0.89175 0.0
H824 H 0.9507 0.97227 0.38085 0.0
H825 H 0.01725 0.89006 0.38116 0.0
H826 H 0.99688 0.00948 0.38206 0.0
H827 H 0.06323 0.92694 0.38131 0.0
H828 H 0.13645 0.99915 0.4119 0.0
H829 H 0.09063 0.96214 0.40807 0.0
H830 H 0.04159 0.03134 0.3605 0.0
H831 H 0.08685 0.06883 0.3652 0.0
C832 C 0.97518 0.96219 0.38077 0.0
C833 C 0.98033 0.92828 0.38113 0.0
C834 C 1.00171 0.98348 0.38137 0.0
C835 C 0.03392 0.97127 0.38203 0.0
C836 C 0.03888 0.93729 0.38146 0.0
C837 C 0.01245 0.91611 0.38119 0.0
C838 C 0.11597 1.00634 0.40051 0.0
C839 C 0.11526 0.03694 0.38893 0.0
C840 C 0.08969 0.98506 0.39819 0.0
C841 C 0.06224 0.99369 0.38396 0.0
C842 C 0.06195 0.02407 0.37196 0.0
C843 C 0.08805 0.04549 0.37452 0.0
H844 H 0.60156 0.00994 0.87473 0.0
H845 H 0.66746 0.05126 0.92778 0.0
H846 H 0.57044 0.06036 0.87382 0.0
H847 H 0.63582 0.10257 0.92678 0.0
H848 H 0.53395 0.16193 0.93858 0.0
H849 H 0.57873 0.12176 0.93908 0.0
H850 H 0.57511 0.11717 0.8603 0.0
H851 H 0.53008 0.1564 0.86002 0.0
C852 C 0.60959 0.02991 0.88613 0.0
C853 C 0.63704 0.02644 0.90137 0.0
C854 C 0.59185 0.05906 0.88542 0.0
C855 C 0.60082 0.08572 0.90001 0.0
C856 C 0.62833 0.08248 0.91529 0.0
C857 C 0.64648 0.05318 0.9158 0.0
C858 C 0.54384 0.15337 0.9214 0.0
C859 C 0.52887 0.16236 0.89924 0.0
C860 C 0.56933 0.13024 0.92166 0.0
C861 C 0.58004 0.11578 0.89975 0.0
C862 C 0.56702 0.12735 0.87752 0.0
C863 C 0.54152 0.15012 0.8773 0.0
loop_
_geom_bond_atom_site_label_1
_geom_bond_atom_site_label_2
_geom_bond_distance
_geom_bond_site_symmetry_2
_ccdc_geom_bond_type
C0 O2 1.247 . S
C0 O4 1.258 . S
C1 O8 1.247 . S
C1 O9 1.258 . S
O2 C0 1.247 . S
O2 Zn3 2.028 . S
Zn3 O2 2.028 . S
Zn3 O7 2.035 . S
Zn3 O9 2.035 . S
Zn3 O10 2.028 . S
O4 C0 1.258 . S
O4 Zn5 2.035 . S
Zn5 O4 2.035 . S
Zn5 O6 2.028 . S
Zn5 O8 2.028 . S
Zn5 O11 2.035 . S
O6 Zn5 2.028 . S
O6 C12 1.247 . S
O7 Zn3 2.035 . S
O7 C12 1.258 . S
O8 C1 1.247 . S
O8 Zn5 2.028 . S
O9 C1 1.258 . S
O9 Zn3 2.035 . S
O10 Zn3 2.028 . S
O10 C13 1.247 . S
O11 Zn5 2.035 . S
O11 C13 1.258 . S
C12 O6 1.247 . S
C12 O7 1.258 . S
C13 O10 1.247 . S
C13 O11 1.258 . S
C14 O16 1.247 . S
C14 O18 1.258 . S
C15 O22 1.247 . S
C15 O23 1.258 . S
O16 C14 1.247 . S
O16 Zn17 2.028 . S
Zn17 O16 2.028 . S
Zn17 O21 2.035 . S
Zn17 O23 2.035 . S
Zn17 O24 2.028 . S
O18 C14 1.258 . S
O18 Zn19 2.035 . S
Zn19 O18 2.035 . S
Zn19 O20 2.028 . S
Zn19 O22 2.028 . S
Zn19 O25 2.035 . S
O20 Zn19 2.028 . S
O20 C26 1.247 . S
O21 Zn17 2.035 . S
O21 C26 1.258 . S
O22 C15 1.247 . S
O22 Zn19 2.028 . S
O23 C15 1.258 . S
O23 Zn17 2.035 . S
O24 Zn17 2.028 . S
O24 C27 1.247 . S
O25 Zn19 2.035 . S
O25 C27 1.258 . S
C26 O20 1.247 . S
C26 O21 1.258 . S
C27 O24 1.247 . S
C27 O25 1.258 . S
C28 O30 1.247 . S
C28 O32 1.258 . S
C29 O36 1.247 . S
C29 O37 1.258 . S
O30 C28 1.247 . S
O30 Zn31 2.028 . S
Zn31 O30 2.028 . S
Zn31 O35 2.035 . S
Zn31 O37 2.035 . S
Zn31 O38 2.028 . S
O32 C28 1.258 . S
O32 Zn33 2.035 . S
Zn33 O32 2.035 . S
Zn33 O34 2.028 . S
Zn33 O36 2.028 . S
Zn33 O39 2.035 . S
O34 Zn33 2.028 . S
O34 C40 1.247 . S
O35 Zn31 2.035 . S
O35 C40 1.258 . S
O36 C29 1.247 . S
O36 Zn33 2.028 . S
O37 C29 1.258 . S
O37 Zn31 2.035 . S
O38 Zn31 2.028 . S
O38 C41 1.247 . S
O39 Zn33 2.035 . S
O39 C41 1.258 . S
C40 O34 1.247 . S
C40 O35 1.258 . S
C41 O38 1.247 . S
C41 O39 1.258 . S
C42 O44 1.247 . S
C42 O46 1.258 . S
C43 O50 1.247 . S
C43 O51 1.258 . S
O44 C42 1.247 . S
O44 Zn45 2.028 . S
Zn45 O44 2.028 . S
Zn45 O49 2.035 . S
Zn45 O51 2.035 . S
Zn45 O52 2.028 . S
O46 C42 1.258 . S
O46 Zn47 2.035 . S
Zn47 O46 2.035 . S
Zn47 O48 2.028 . S
Zn47 O50 2.028 . S
Zn47 O53 2.035 . S
O48 Zn47 2.028 . S
O48 C54 1.247 . S
O49 Zn45 2.035 . S
O49 C54 1.258 . S
O50 C43 1.247 . S
O50 Zn47 2.028 . S
O51 C43 1.258 . S
O51 Zn45 2.035 . S
O52 Zn45 2.028 . S
O52 C55 1.247 . S
O53 Zn47 2.035 . S
O53 C55 1.258 . S
C54 O48 1.247 . S
C54 O49 1.258 . S
C55 O52 1.247 . S
C55 O53 1.258 . S
C56 O58 1.247 . S
C56 O60 1.258 . S
C57 O64 1.247 . S
C57 O65 1.258 . S
O58 C56 1.247 . S
O58 Zn59 2.028 . S
Zn59 O58 2.028 . S
Zn59 O63 2.035 . S
Zn59 O65 2.035 . S
Zn59 O66 2.028 . S
O60 C56 1.258 . S
O60 Zn61 2.035 . S
Zn61 O60 2.035 . S
Zn61 O62 2.028 . S
Zn61 O64 2.028 . S
Zn61 O67 2.035 . S
O62 Zn61 2.028 . S
O62 C68 1.247 . S
O63 Zn59 2.035 . S
O63 C68 1.258 . S
O64 C57 1.247 . S
O64 Zn61 2.028 . S
O65 C57 1.258 . S
O65 Zn59 2.035 . S
O66 Zn59 2.028 . S
O66 C69 1.247 . S
O67 Zn61 2.035 . S
O67 C69 1.258 . S
C68 O62 1.247 . S
C68 O63 1.258 . S
C69 O66 1.247 . S
C69 O67 1.258 . S
C70 O72 1.247 . S
C70 O74 1.258 . S
C71 O78 1.247 . S
C71 O79 1.258 . S
O72 C70 1.247 . S
O72 Zn73 2.028 . S
Zn73 O72 2.028 . S
Zn73 O77 2.035 . S
Zn73 O79 2.035 . S
Zn73 O80 2.028 . S
O74 C70 1.258 . S
O74 Zn75 2.035 . S
Zn75 O74 2.035 . S
Zn75 O76 2.028 . S
Zn75 O78 2.028 . S
Zn75 O81 2.035 . S
O76 Zn75 2.028 . S
O76 C82 1.247 . S
O77 Zn73 2.035 . S
O77 C82 1.258 . S
O78 C71 1.247 . S
O78 Zn75 2.028 . S
O79 C71 1.258 . S
O79 Zn73 2.035 . S
O80 Zn73 2.028 . S
O80 C83 1.247 . S
O81 Zn75 2.035 . S
O81 C83 1.258 . S
C82 O76 1.247 . S
C82 O77 1.258 . S
C83 O80 1.247 . S
C83 O81 1.258 . S
C84 O86 1.247 . S
C84 O88 1.258 . S
C85 O92 1.247 . S
C85 O93 1.258 . S
O86 C84 1.247 . S
O86 Zn87 2.028 . S
Zn87 O86 2.028 . S
Zn87 O91 2.035 . S
Zn87 O93 2.035 . S
Zn87 O94 2.028 . S
O88 C84 1.258 . S
O88 Zn89 2.035 . S
Zn89 O88 2.035 . S
Zn89 O90 2.028 . S
Zn89 O92 2.028 . S
Zn89 O95 2.035 . S
O90 Zn89 2.028 . S
O90 C96 1.247 . S
O91 Zn87 2.035 . S
O91 C96 1.258 . S
O92 C85 1.247 . S
O92 Zn89 2.028 . S
O93 C85 1.258 . S
O93 Zn87 2.035 . S
O94 Zn87 2.028 . S
O94 C97 1.247 . S
O95 Zn89 2.035 . S
O95 C97 1.258 . S
C96 O90 1.247 . S
C96 O91 1.258 . S
C97 O94 1.247 . S
C97 O95 1.258 . S
C98 O100 1.247 . S
C98 O102 1.258 . S
C99 O106 1.247 . S
C99 O107 1.258 . S
O100 C98 1.247 . S
O100 Zn101 2.028 . S
Zn101 O100 2.028 . S
Zn101 O105 2.035 . S
Zn101 O107 2.035 . S
Zn101 O108 2.028 . S
O102 C98 1.258 . S
O102 Zn103 2.035 . S
Zn103 O102 2.035 . S
Zn103 O104 2.028 . S
Zn103 O106 2.028 . S
Zn103 O109 2.035 . S
O104 Zn103 2.028 . S
O104 C110 1.247 . S
O105 Zn101 2.035 . S
O105 C110 1.258 . S
O106 C99 1.247 . S
O106 Zn103 2.028 . S
O107 C99 1.258 . S
O107 Zn101 2.035 . S
O108 Zn101 2.028 . S
O108 C111 1.247 . S
O109 Zn103 2.035 . S
O109 C111 1.258 . S
C110 O104 1.247 . S
C110 O105 1.258 . S
C111 O108 1.247 . S
C111 O109 1.258 . S
C112 O114 1.247 . S
C112 O116 1.258 . S
C113 O120 1.247 . S
C113 O121 1.258 . S
O114 C112 1.247 . S
O114 Zn115 2.028 . S
Zn115 O114 2.028 . S
Zn115 O119 2.035 . S
Zn115 O121 2.035 . S
Zn115 O122 2.028 . S
O116 C112 1.258 . S
O116 Zn117 2.035 . S
Zn117 O116 2.035 . S
Zn117 O118 2.028 . S
Zn117 O120 2.028 . S
Zn117 O123 2.035 . S
O118 Zn117 2.028 . S
O118 C124 1.247 . S
O119 Zn115 2.035 . S
O119 C124 1.258 . S
O120 C113 1.247 . S
O120 Zn117 2.028 . S
O121 C113 1.258 . S
O121 Zn115 2.035 . S
O122 Zn115 2.028 . S
O122 C125 1.247 . S
O123 Zn117 2.035 . S
O123 C125 1.258 . S
C124 O118 1.247 . S
C124 O119 1.258 . S
C125 O122 1.247 . S
C125 O123 1.258 . S
C126 O128 1.247 . S
C126 O130 1.258 . S
C127 O134 1.247 . S
C127 O135 1.258 . S
O128 C126 1.247 . S
O128 Zn129 2.028 . S
Zn129 O128 2.028 . S
Zn129 O133 2.035 . S
Zn129 O135 2.035 . S
Zn129 O136 2.028 . S
O130 C126 1.258 . S
O130 Zn131 2.035 . S
Zn131 O130 2.035 . S
Zn131 O132 2.028 . S
Zn131 O134 2.028 . S
Zn131 O137 2.035 . S
O132 Zn131 2.028 . S
O132 C138 1.247 . S
O133 Zn129 2.035 . S
O133 C138 1.258 . S
O134 C127 1.247 . S
O134 Zn131 2.028 . S
O135 C127 1.258 . S
O135 Zn129 2.035 . S
O136 Zn129 2.028 . S
O136 C139 1.247 . S
O137 Zn131 2.035 . S
O137 C139 1.258 . S
C138 O132 1.247 . S
C138 O133 1.258 . S
C139 O136 1.247 . S
C139 O137 1.258 . S
C140 O142 1.247 . S
C140 O144 1.258 . S
C141 O148 1.247 . S
C141 O149 1.258 . S
O142 C140 1.247 . S
O142 Zn143 2.028 . S
Zn143 O142 2.028 . S
Zn143 O147 2.035 . S
Zn143 O149 2.035 . S
Zn143 O150 2.028 . S
O144 C140 1.258 . S
O144 Zn145 2.035 . S
Zn145 O144 2.035 . S
Zn145 O146 2.028 . S
Zn145 O148 2.028 . S
Zn145 O151 2.035 . S
O146 Zn145 2.028 . S
O146 C152 1.247 . S
O147 Zn143 2.035 . S
O147 C152 1.258 . S
O148 C141 1.247 . S
O148 Zn145 2.028 . S
O149 C141 1.258 . S
O149 Zn143 2.035 . S
O150 Zn143 2.028 . S
O150 C153 1.247 . S
O151 Zn145 2.035 . S
O151 C153 1.258 . S
C152 O146 1.247 . S
C152 O147 1.258 . S
C153 O150 1.247 . S
C153 O151 1.258 . S
C154 O156 1.247 . S
C154 O158 1.258 . S
C155 O162 1.247 . S
C155 O163 1.258 . S
O156 C154 1.247 . S
O156 Zn157 2.028 . S
Zn157 O156 2.028 . S
Zn157 O161 2.035 . S
Zn157 O163 2.035 . S
Zn157 O164 2.028 . S
O158 C154 1.258 . S
O158 Zn159 2.035 . S
Zn159 O158 2.035 . S
Zn159 O160 2.028 . S
Zn159 O162 2.028 . S
Zn159 O165 2.035 . S
O160 Zn159 2.028 . S
O160 C166 1.247 . S
O161 Zn157 2.035 . S
O161 C166 1.258 . S
O162 C155 1.247 . S
O162 Zn159 2.028 . S
O163 C155 1.258 . S
O163 Zn157 2.035 . S
O164 Zn157 2.028 . S
O164 C167 1.247 . S
O165 Zn159 2.035 . S
O165 C167 1.258 . S
C166 O160 1.247 . S
C166 O161 1.258 . S
C167 O164 1.247 . S
C167 O165 1.258 . S
C168 O170 1.247 . S
C168 O172 1.258 . S
C169 O176 1.247 . S
C169 O177 1.258 . S
O170 C168 1.247 . S
O170 Zn171 2.028 . S
Zn171 O170 2.028 . S
Zn171 O175 2.035 . S
Zn171 O177 2.035 . S
Zn171 O178 2.028 . S
O172 C168 1.258 . S
O172 Zn173 2.035 . S
Zn173 O172 2.035 . S
Zn173 O174 2.028 . S
Zn173 O176 2.028 . S
Zn173 O179 2.035 . S
O174 Zn173 2.028 . S
O174 C180 1.247 . S
O175 Zn171 2.035 . S
O175 C180 1.258 . S
O176 C169 1.247 . S
O176 Zn173 2.028 . S
O177 C169 1.258 . S
O177 Zn171 2.035 . S
O178 Zn171 2.028 . S
O178 C181 1.247 . S
O179 Zn173 2.035 . S
O179 C181 1.258 . S
C180 O174 1.247 . S
C180 O175 1.258 . S
C181 O178 1.247 . S
C181 O179 1.258 . S
C182 O184 1.247 . S
C182 O186 1.258 . S
C183 O190 1.247 . S
C183 O191 1.258 . S
O184 C182 1.247 . S
O184 Zn185 2.028 . S
Zn185 O184 2.028 . S
Zn185 O189 2.035 . S
Zn185 O191 2.035 . S
Zn185 O192 2.028 . S
O186 C182 1.258 . S
O186 Zn187 2.035 . S
Zn187 O186 2.035 . S
Zn187 O188 2.028 . S
Zn187 O190 2.028 . S
Zn187 O193 2.035 . S
O188 Zn187 2.028 . S
O188 C194 1.247 . S
O189 Zn185 2.035 . S
O189 C194 1.258 . S
O190 C183 1.247 . S
O190 Zn187 2.028 . S
O191 C183 1.258 . S
O191 Zn185 2.035 . S
O192 Zn185 2.028 . S
O192 C195 1.247 . S
O193 Zn187 2.035 . S
O193 C195 1.258 . S
C194 O188 1.247 . S
C194 O189 1.258 . S
C195 O192 1.247 . S
C195 O193 1.258 . S
C196 O198 1.247 . S
C196 O200 1.258 . S
C197 O204 1.247 . S
C197 O205 1.258 . S
O198 C196 1.247 . S
O198 Zn199 2.028 . S
Zn199 O198 2.028 . S
Zn199 O203 2.035 . S
Zn199 O205 2.035 . S
Zn199 O206 2.028 . S
O200 C196 1.258 . S
O200 Zn201 2.035 . S
Zn201 O200 2.035 . S
Zn201 O202 2.028 . S
Zn201 O204 2.028 . S
Zn201 O207 2.035 . S
O202 Zn201 2.028 . S
O202 C208 1.247 . S
O203 Zn199 2.035 . S
O203 C208 1.258 . S
O204 C197 1.247 . S
O204 Zn201 2.028 . S
O205 C197 1.258 . S
O205 Zn199 2.035 . S
O206 Zn199 2.028 . S
O206 C209 1.247 . S
O207 Zn201 2.035 . S
O207 C209 1.258 . S
C208 O202 1.247 . S
C208 O203 1.258 . S
C209 O206 1.247 . S
C209 O207 1.258 . S
C210 O212 1.247 . S
C210 O214 1.258 . S
C211 O218 1.247 . S
C211 O219 1.258 . S
O212 C210 1.247 . S
O212 Zn213 2.028 . S
Zn213 O212 2.028 . S
Zn213 O217 2.035 . S
Zn213 O219 2.035 . S
Zn213 O220 2.028 . S
O214 C210 1.258 . S
O214 Zn215 2.035 . S
Zn215 O214 2.035 . S
Zn215 O216 2.028 . S
Zn215 O218 2.028 . S
Zn215 O221 2.035 . S
O216 Zn215 2.028 . S
O216 C222 1.247 . S
O217 Zn213 2.035 . S
O217 C222 1.258 . S
O218 C211 1.247 . S
O218 Zn215 2.028 . S
O219 C211 1.258 . S
O219 Zn213 2.035 . S
O220 Zn213 2.028 . S
O220 C223 1.247 . S
O221 Zn215 2.035 . S
O221 C223 1.258 . S
C222 O216 1.247 . S
C222 O217 1.258 . S
C223 O220 1.247 . S
C223 O221 1.258 . S
H224 C232 0.950 . S
H225 C237 0.950 . S
H226 C234 0.950 . S
H227 C236 0.950 . S
H228 C238 0.950 . S
H229 C240 0.950 . S
H230 C242 0.950 . S
H231 C243 0.950 . S
C232 H224 0.950 . S
C232 C233 1.386 . S
C232 C234 1.391 . S
C233 C232 1.386 . S
C233 C237 1.393 . S
C234 H226 0.950 . S
C234 C232 1.391 . S
C234 C235 1.400 . S
C235 C234 1.400 . S
C235 C236 1.398 . S
C235 C241 1.491 1_556 S
C236 H227 0.950 . S
C236 C235 1.398 . S
C236 C237 1.391 . S
C237 H225 0.950 . S
C237 C233 1.393 . S
C237 C236 1.391 . S
C238 H228 0.950 . S
C238 C239 1.386 . S
C238 C240 1.391 . S
C239 C238 1.386 . S
C239 C243 1.393 . S
C240 H229 0.950 . S
C240 C238 1.391 . S
C240 C241 1.400 . S
C241 C235 1.491 1_554 S
C241 C240 1.400 . S
C241 C242 1.398 . S
C242 H230 0.950 . S
C242 C241 1.398 . S
C242 C243 1.391 . S
C243 H231 0.950 . S
C243 C239 1.393 . S
C243 C242 1.391 . S
H244 C252 0.950 . S
H245 C257 0.950 . S
H246 C254 0.950 . S
H247 C256 0.950 . S
H248 C258 0.950 . S
H249 C260 0.950 . S
H250 C262 0.950 . S
H251 C263 0.950 . S
C252 H244 0.950 . S
C252 C253 1.386 . S
C252 C254 1.391 . S
C253 C252 1.386 . S
C253 C257 1.393 . S
C254 H246 0.950 . S
C254 C252 1.391 . S
C254 C255 1.400 . S
C255 C254 1.400 . S
C255 C256 1.398 . S
C255 C261 1.491 . S
C256 H247 0.950 . S
C256 C255 1.398 . S
C256 C257 1.391 . S
C257 H245 0.950 . S
C257 C253 1.393 . S
C257 C256 1.391 . S
C258 H248 0.950 . S
C258 C259 1.386 . S
C258 C260 1.391 . S
C259 C258 1.386 . S
C259 C263 1.393 . S
C260 H249 0.950 . S
C260 C258 1.391 . S
C260 C261 1.400 . S
C261 C255 1.491 . S
C261 C260 1.400 . S
C261 C262 1.398 . S
C262 H250 0.950 . S
C262 C261 1.398 . S
C262 C263 1.391 . S
C263 H251 0.950 . S
C263 C259 1.393 . S
C263 C262 1.391 . S
H264 C272 0.950 . S
H265 C277 0.950 . S
H266 C274 0.950 . S
H267 C276 0.950 . S
H268 C278 0.950 . S
H269 C280 0.950 . S
H270 C282 0.950 . S
H271 C283 0.950 . S
C272 H264 0.950 . S
C272 C273 1.386 . S
C272 C274 1.391 . S
C273 C272 1.386 . S
C273 C277 1.393 . S
C274 H266 0.950 . S
C274 C272 1.391 . S
C274 C275 1.400 . S
C275 C274 1.400 . S
C275 C276 1.398 . S
C275 C281 1.491 1_556 S
C276 H267 0.950 . S
C276 C275 1.398 . S
C276 C277 1.391 . S
C277 H265 0.950 . S
C277 C273 1.393 . S
C277 C276 1.391 . S
C278 H268 0.950 . S
C278 C279 1.386 . S
C278 C280 1.391 . S
C279 C278 1.386 . S
C279 C283 1.393 . S
C280 H269 0.950 . S
C280 C278 1.391 . S
C280 C281 1.400 . S
C281 C275 1.491 1_554 S
C281 C280 1.400 . S
C281 C282 1.398 . S
C282 H270 0.950 . S
C282 C281 1.398 . S
C282 C283 1.391 . S
C283 H271 0.950 . S
C283 C279 1.393 . S
C283 C282 1.391 . S
H284 C292 0.950 . S
H285 C297 0.950 . S
H286 C294 0.950 . S
H287 C296 0.950 . S
H288 C298 0.950 . S
H289 C300 0.950 . S
H290 C302 0.950 . S
H291 C303 0.950 . S
C292 H284 0.950 . S
C292 C293 1.386 . S
C292 C294 1.391 . S
C293 C292 1.386 . S
C293 C297 1.393 . S
C294 H286 0.950 . S
C294 C292 1.391 . S
C294 C295 1.400 . S
C295 C294 1.400 . S
C295 C296 1.398 . S
C295 C301 1.491 . S
C296 H287 0.950 . S
C296 C295 1.398 . S
C296 C297 1.391 . S
C297 H285 0.950 . S
C297 C293 1.393 . S
C297 C296 1.391 . S
C298 H288 0.950 . S
C298 C299 1.386 . S
C298 C300 1.391 . S
C299 C298 1.386 . S
C299 C303 1.393 . S
C300 H289 0.950 . S
C300 C298 1.391 . S
C300 C301 1.400 . S
C301 C295 1.491 . S
C301 C300 1.400 . S
C301 C302 1.398 . S
C302 H290 0.950 . S
C302 C301 1.398 . S
C302 C303 1.391 . S
C303 H291 0.950 . S
C303 C299 1.393 . S
C303 C302 1.391 . S
H304 C312 0.950 . S
H305 C317 0.950 . S
H306 C314 0.950 . S
H307 C316 0.950 . S
H308 C318 0.950 . S
H309 C320 0.950 . S
H310 C322 0.950 . S
H311 C323 0.950 . S
C312 H304 0.950 . S
C312 C313 1.386 . S
C312 C314 1.391 . S
C313 C312 1.386 . S
C313 C317 1.393 . S
C314 H306 0.950 . S
C314 C312 1.391 . S
C314 C315 1.400 . S
C315 C314 1.400 . S
C315 C316 1.398 . S
C315 C321 1.491 1_554 S
C316 H307 0.950 . S
C316 C315 1.398 . S
C316 C317 1.391 . S
C317 H305 0.950 . S
C317 C313 1.393 . S
C317 C316 1.391 . S
C318 H308 0.950 . S
C318 C319 1.386 . S
C318 C320 1.391 . S
C319 C318 1.386 . S
C319 C323 1.393 . S
C320 H309 0.950 . S
C320 C318 1.391 . S
C320 C321 1.400 . S
C321 C315 1.491 1_556 S
C321 C320 1.400 . S
C321 C322 1.398 . S
C322 H310 0.950 . S
C322 C321 1.398 . S
C322 C323 1.391 . S
C323 H311 0.950 . S
C323 C319 1.393 . S
C323 C322 1.391 . S
H324 C332 0.950 . S
H325 C337 0.950 . S
H326 C334 0.950 . S
H327 C336 0.950 . S
H328 C338 0.950 . S
H329 C340 0.950 . S
H330 C342 0.950 . S
H331 C343 0.950 . S
C332 H324 0.950 . S
C332 C333 1.386 . S
C332 C334 1.391 . S
C333 C332 1.386 . S
C333 C337 1.393 . S
C334 H326 0.950 . S
C334 C332 1.391 . S
C334 C335 1.400 . S
C335 C334 1.400 . S
C335 C336 1.398 . S
C335 C341 1.491 . S
C336 H327 0.950 . S
C336 C335 1.398 . S
C336 C337 1.391 . S
C337 H325 0.950 . S
C337 C333 1.393 . S
C337 C336 1.391 . S
C338 H328 0.950 . S
C338 C339 1.386 . S
C338 C340 1.391 . S
C339 C338 1.386 . S
C339 C343 1.393 . S
C340 H329 0.950 . S
C340 C338 1.391 . S
C340 C341 1.400 . S
C341 C335 1.491 . S
C341 C340 1.400 . S
C341 C342 1.398 . S
C342 H330 0.950 . S
C342 C341 1.398 . S
C342 C343 1.391 . S
C343 H331 0.950 . S
C343 C339 1.393 . S
C343 C342 1.391 . S
H344 C352 0.950 . S
H345 C357 0.950 . S
H346 C354 0.950 . S
H347 C356 0.950 . S
H348 C358 0.950 . S
H349 C360 0.950 . S
H350 C362 0.950 . S
H351 C363 0.950 . S
C352 H344 0.950 . S
C352 C353 1.386 . S
C352 C354 1.391 . S
C353 C352 1.386 . S
C353 C357 1.393 . S
C354 H346 0.950 . S
C354 C352 1.391 . S
C354 C355 1.400 . S
C355 C354 1.400 . S
C355 C356 1.398 . S
C355 C361 1.491 1_556 S
C356 H347 0.950 . S
C356 C355 1.398 . S
C356 C357 1.391 . S
C357 H345 0.950 . S
C357 C353 1.393 . S
C357 C356 1.391 . S
C358 H348 0.950 . S
C358 C359 1.386 . S
C358 C360 1.391 . S
C359 C358 1.386 . S
C359 C363 1.393 . S
C360 H349 0.950 . S
C360 C358 1.391 . S
C360 C361 1.400 . S
C361 C355 1.491 1_554 S
C361 C360 1.400 . S
C361 C362 1.398 . S
C362 H350 0.950 . S
C362 C361 1.398 . S
C362 C363 1.391 . S
C363 H351 0.950 . S
C363 C359 1.393 . S
C363 C362 1.391 . S
H364 C372 0.950 . S
H365 C377 0.950 . S
H366 C374 0.950 . S
H367 C376 0.950 . S
H368 C378 0.950 . S
H369 C380 0.950 . S
H370 C382 0.950 . S
H371 C383 0.950 . S
C372 H364 0.950 . S
C372 C373 1.386 . S
C372 C374 1.391 . S
C373 C372 1.386 . S
C373 C377 1.393 . S
C374 H366 0.950 . S
C374 C372 1.391 . S
C374 C375 1.400 . S
C375 C374 1.400 . S
C375 C376 1.398 . S
C375 C381 1.491 . S
C376 H367 0.950 . S
C376 C375 1.398 . S
C376 C377 1.391 . S
C377 H365 0.950 . S
C377 C373 1.393 . S
C377 C376 1.391 . S
C378 H368 0.950 . S
C378 C379 1.386 . S
C378 C380 1.391 . S
C379 C378 1.386 . S
C379 C383 1.393 . S
C380 H369 0.950 . S
C380 C378 1.391 . S
C380 C381 1.400 . S
C381 C375 1.491 . S
C381 C380 1.400 . S
C381 C382 1.398 . S
C382 H370 0.950 . S
C382 C381 1.398 . S
C382 C383 1.391 . S
C383 H371 0.950 . S
C383 C379 1.393 . S
C383 C382 1.391 . S
H384 C392 0.950 . S
H385 C397 0.950 . S
H386 C394 0.950 . S
H387 C396 0.950 . S
H388 C398 0.950 . S
H389 C400 0.950 . S
H390 C402 0.950 . S
H391 C403 0.950 . S
C392 H384 0.950 . S
C392 C393 1.386 . S
C392 C394 1.391 . S
C393 C392 1.386 . S
C393 C397 1.393 . S
C394 H386 0.950 . S
C394 C392 1.391 . S
C394 C395 1.400 . S
C395 C394 1.400 . S
C395 C396 1.398 . S
C395 C401 1.491 . S
C396 H387 0.950 . S
C396 C395 1.398 . S
C396 C397 1.391 . S
C397 H385 0.950 . S
C397 C393 1.393 . S
C397 C396 1.391 . S
C398 H388 0.950 . S
C398 C399 1.386 . S
C398 C400 1.391 . S
C399 C398 1.386 . S
C399 C403 1.393 . S
C400 H389 0.950 . S
C400 C398 1.391 . S
C400 C401 1.400 . S
C401 C395 1.491 . S
C401 C400 1.400 . S
C401 C402 1.398 . S
C402 H390 0.950 . S
C402 C401 1.398 . S
C402 C403 1.391 . S
C403 H391 0.950 . S
C403 C399 1.393 . S
C403 C402 1.391 . S
H404 C412 0.950 . S
H405 C417 0.950 . S
H406 C414 0.950 . S
H407 C416 0.950 . S
H408 C418 0.950 . S
H409 C420 0.950 . S
H410 C422 0.950 . S
H411 C423 0.950 . S
C412 H404 0.950 . S
C412 C413 1.386 . S
C412 C414 1.391 . S
C413 C412 1.386 . S
C413 C417 1.393 . S
C414 H406 0.950 . S
C414 C412 1.391 . S
C414 C415 1.400 . S
C415 C414 1.400 . S
C415 C416 1.398 . S
C415 C421 1.491 . S
C416 H407 0.950 . S
C416 C415 1.398 . S
C416 C417 1.391 . S
C417 H405 0.950 . S
C417 C413 1.393 . S
C417 C416 1.391 . S
C418 H408 0.950 . S
C418 C419 1.386 . S
C418 C420 1.391 . S
C419 C418 1.386 . S
C419 C423 1.393 . S
C420 H409 0.950 . S
C420 C418 1.391 . S
C420 C421 1.400 . S
C421 C415 1.491 . S
C421 C420 1.400 . S
C421 C422 1.398 . S
C422 H410 0.950 . S
C422 C421 1.398 . S
C422 C423 1.391 . S
C423 H411 0.950 . S
C423 C419 1.393 . S
C423 C422 1.391 . S
H424 C432 0.950 . S
H425 C437 0.950 . S
H426 C434 0.950 . S
H427 C436 0.950 . S
H428 C438 0.950 . S
H429 C440 0.950 . S
H430 C442 0.950 . S
H431 C443 0.950 . S
C432 H424 0.950 . S
C432 C433 1.386 . S
C432 C434 1.391 . S
C433 C432 1.386 . S
C433 C437 1.393 . S
C434 H426 0.950 . S
C434 C432 1.391 . S
C434 C435 1.400 . S
C435 C434 1.400 . S
C435 C436 1.398 . S
C435 C441 1.491 . S
C436 H427 0.950 . S
C436 C435 1.398 . S
C436 C437 1.391 . S
C437 H425 0.950 . S
C437 C433 1.393 . S
C437 C436 1.391 . S
C438 H428 0.950 . S
C438 C439 1.386 . S
C438 C440 1.391 . S
C439 C438 1.386 . S
C439 C443 1.393 . S
C440 H429 0.950 . S
C440 C438 1.391 . S
C440 C441 1.400 . S
C441 C435 1.491 . S
C441 C440 1.400 . S
C441 C442 1.398 . S
C442 H430 0.950 . S
C442 C441 1.398 . S
C442 C443 1.391 . S
C443 H431 0.950 . S
C443 C439 1.393 . S
C443 C442 1.391 . S
H444 C452 0.950 . S
H445 C457 0.950 . S
H446 C454 0.950 . S
H447 C456 0.950 . S
H448 C458 0.950 . S
H449 C460 0.950 . S
H450 C462 0.950 . S
H451 C463 0.950 . S
C452 H444 0.950 . S
C452 C453 1.386 . S
C452 C454 1.391 . S
C453 C452 1.386 . S
C453 C457 1.393 . S
C454 H446 0.950 . S
C454 C452 1.391 . S
C454 C455 1.400 . S
C455 C454 1.400 . S
C455 C456 1.398 . S
C455 C461 1.491 . S
C456 H447 0.950 . S
C456 C455 1.398 . S
C456 C457 1.391 . S
C457 H445 0.950 . S
C457 C453 1.393 . S
C457 C456 1.391 . S
C458 H448 0.950 . S
C458 C459 1.386 . S
C458 C460 1.391 . S
C459 C458 1.386 . S
C459 C463 1.393 . S
C460 H449 0.950 . S
C460 C458 1.391 . S
C460 C461 1.400 . S
C461 C455 1.491 . S
C461 C460 1.400 . S
C461 C462 1.398 . S
C462 H450 0.950 . S
C462 C461 1.398 . S
C462 C463 1.391 . S
C463 H451 0.950 . S
C463 C459 1.393 . S
C463 C462 1.391 . S
H464 C472 0.950 . S
H465 C477 0.950 . S
H466 C474 0.950 . S
H467 C476 0.950 . S
H468 C478 0.950 . S
H469 C480 0.950 . S
H470 C482 0.950 . S
H471 C483 0.950 . S
C472 H464 0.950 . S
C472 C473 1.386 . S
C472 C474 1.391 . S
C473 C472 1.386 . S
C473 C477 1.393 . S
C474 H466 0.950 . S
C474 C472 1.391 . S
C474 C475 1.400 . S
C475 C474 1.400 . S
C475 C476 1.398 . S
C475 C481 1.491 . S
C476 H467 0.950 . S
C476 C475 1.398 . S
C476 C477 1.391 . S
C477 H465 0.950 . S
C477 C473 1.393 . S
C477 C476 1.391 . S
C478 H468 0.950 . S
C478 C479 1.386 . S
C478 C480 1.391 . S
C479 C478 1.386 . S
C479 C483 1.393 . S
C480 H469 0.950 . S
C480 C478 1.391 . S
C480 C481 1.400 . S
C481 C475 1.491 . S
C481 C480 1.400 . S
C481 C482 1.398 . S
C482 H470 0.950 . S
C482 C481 1.398 . S
C482 C483 1.391 . S
C483 H471 0.950 . S
C483 C479 1.393 . S
C483 C482 1.391 . S
H484 C492 0.950 . S
H485 C497 0.950 . S
H486 C494 0.950 . S
H487 C496 0.950 . S
H488 C498 0.950 . S
H489 C500 0.950 . S
H490 C502 0.950 . S
H491 C503 0.950 . S
C492 H484 0.950 . S
C492 C493 1.386 . S
C492 C494 1.391 . S
C493 C492 1.386 . S
C493 C497 1.393 . S
C494 H486 0.950 . S
C494 C492 1.391 . S
C494 C495 1.400 . S
C495 C494 1.400 . S
C495 C496 1.398 . S
C495 C501 1.491 . S
C496 H487 0.950 . S
C496 C495 1.398 . S
C496 C497 1.391 . S
C497 H485 0.950 . S
C497 C493 1.393 . S
C497 C496 1.391 . S
C498 H488 0.950 . S
C498 C499 1.386 . S
C498 C500 1.391 . S
C499 C498 1.386 . S
C499 C503 1.393 . S
C500 H489 0.950 . S
C500 C498 1.391 . S
C500 C501 1.400 . S
C501 C495 1.491 . S
C501 C500 1.400 . S
C501 C502 1.398 . S
C502 H490 0.950 . S
C502 C501 1.398 . S
C502 C503 1.391 . S
C503 H491 0.950 . S
C503 C499 1.393 . S
C503 C502 1.391 . S
H504 C512 0.950 . S
H505 C517 0.950 . S
H506 C514 0.950 . S
H507 C516 0.950 . S
H508 C518 0.950 . S
H509 C520 0.950 . S
H510 C522 0.950 . S
H511 C523 0.950 . S
C512 H504 0.950 . S
C512 C513 1.386 . S
C512 C514 1.391 . S
C513 C512 1.386 . S
C513 C517 1.393 . S
C514 H506 0.950 . S
C514 C512 1.391 . S
C514 C515 1.400 . S
C515 C514 1.400 . S
C515 C516 1.398 . S
C515 C521 1.491 . S
C516 H507 0.950 . S
C516 C515 1.398 . S
C516 C517 1.391 . S
C517 H505 0.950 . S
C517 C513 1.393 . S
C517 C516 1.391 . S
C518 H508 0.950 . S
C518 C519 1.386 . S
C518 C520 1.391 . S
C519 C518 1.386 . S
C519 C523 1.393 . S
C520 H509 0.950 . S
C520 C518 1.391 . S
C520 C521 1.400 . S
C521 C515 1.491 . S
C521 C520 1.400 . S
C521 C522 1.398 . S
C522 H510 0.950 . S
C522 C521 1.398 . S
C522 C523 1.391 . S
C523 H511 0.950 . S
C523 C519 1.393 . S
C523 C522 1.391 . S
H524 C532 0.950 . S
H525 C537 0.950 . S
H526 C534 0.950 . S
H527 C536 0.950 . S
H528 C538 0.950 . S
H529 C540 0.950 . S
H530 C542 0.950 . S
H531 C543 0.950 . S
C532 H524 0.950 . S
C532 C533 1.386 . S
C532 C534 1.391 . S
C533 C532 1.386 . S
C533 C537 1.393 . S
C534 H526 0.950 . S
C534 C532 1.391 . S
C534 C535 1.400 . S
C535 C534 1.400 . S
C535 C536 1.398 . S
C535 C541 1.491 . S
C536 H527 0.950 . S
C536 C535 1.398 . S
C536 C537 1.391 . S
C537 H525 0.950 . S
C537 C533 1.393 . S
C537 C536 1.391 . S
C538 H528 0.950 . S
C538 C539 1.386 . S
C538 C540 1.391 . S
C539 C538 1.386 . S
C539 C543 1.393 . S
C540 H529 0.950 . S
C540 C538 1.391 . S
C540 C541 1.400 . S
C541 C535 1.491 . S
C541 C540 1.400 . S
C541 C542 1.398 . S
C542 H530 0.950 . S
C542 C541 1.398 . S
C542 C543 1.391 . S
C543 H531 0.950 . S
C543 C539 1.393 . S
C543 C542 1.391 . S
H544 C552 0.950 . S
H545 C557 0.950 . S
H546 C554 0.950 . S
H547 C556 0.950 . S
H548 C558 0.950 . S
H549 C560 0.950 . S
H550 C562 0.950 . S
H551 C563 0.950 . S
C552 H544 0.950 . S
C552 C553 1.386 . S
C552 C554 1.391 . S
C553 C552 1.386 . S
C553 C557 1.393 . S
C554 H546 0.950 . S
C554 C552 1.391 . S
C554 C555 1.400 . S
C555 C554 1.400 . S
C555 C556 1.398 . S
C555 C561 1.491 . S
C556 H547 0.950 . S
C556 C555 1.398 . S
C556 C557 1.391 . S
C557 H545 0.950 . S
C557 C553 1.393 . S
C557 C556 1.391 . S
C558 H548 0.950 . S
C558 C559 1.386 . S
C558 C560 1.391 . S
C559 C558 1.386 . S
C559 C563 1.393 . S
C560 H549 0.950 . S
C560 C558 1.391 . S
C560 C561 1.400 . S
C561 C555 1.491 . S
C561 C560 1.400 . S
C561 C562 1.398 . S
C562 H550 0.950 . S
C562 C561 1.398 . S
C562 C563 1.391 . S
C563 H551 0.950 . S
C563 C559 1.393 . S
C563 C562 1.391 . S
H564 C572 0.950 . S
H565 C577 0.950 . S
H566 C574 0.950 . S
H567 C576 0.950 . S
H568 C578 0.950 . S
H569 C580 0.950 . S
H570 C582 0.950 . S
H571 C583 0.950 . S
C572 H564 0.950 . S
C572 C573 1.386 . S
C572 C574 1.391 . S
C573 C572 1.386 . S
C573 C577 1.393 . S
C574 H566 0.950 . S
C574 C572 1.391 . S
C574 C575 1.400 . S
C575 C574 1.400 . S
C575 C576 1.398 . S
C575 C581 1.491 . S
C576 H567 0.950 . S
C576 C575 1.398 . S
C576 C577 1.391 . S
C577 H565 0.950 . S
C577 C573 1.393 . S
C577 C576 1.391 . S
C578 H568 0.950 . S
C578 C579 1.386 . S
C578 C580 1.391 . S
C579 C578 1.386 . S
C579 C583 1.393 . S
C580 H569 0.950 . S
C580 C578 1.391 . S
C580 C581 1.400 . S
C581 C575 1.491 . S
C581 C580 1.400 . S
C581 C582 1.398 . S
C582 H570 0.950 . S
C582 C581 1.398 . S
C582 C583 1.391 . S
C583 H571 0.950 . S
C583 C579 1.393 . S
C583 C582 1.391 . S
H584 C592 0.950 . S
H585 C597 0.950 . S
H586 C594 0.950 . S
H587 C596 0.950 . S
H588 C598 0.950 . S
H589 C600 0.950 . S
H590 C602 0.950 . S
H591 C603 0.950 . S
C592 H584 0.950 . S
C592 C593 1.386 . S
C592 C594 1.391 . S
C593 C592 1.386 . S
C593 C597 1.393 . S
C594 H586 0.950 . S
C594 C592 1.391 . S
C594 C595 1.400 . S
C595 C594 1.400 . S
C595 C596 1.398 . S
C595 C601 1.491 . S
C596 H587 0.950 . S
C596 C595 1.398 . S
C596 C597 1.391 . S
C597 H585 0.950 . S
C597 C593 1.393 . S
C597 C596 1.391 . S
C598 H588 0.950 . S
C598 C599 1.386 . S
C598 C600 1.391 . S
C599 C598 1.386 . S
C599 C603 1.393 . S
C600 H589 0.950 . S
C600 C598 1.391 . S
C600 C601 1.400 . S
C601 C595 1.491 . S
C601 C600 1.400 . S
C601 C602 1.398 . S
C602 H590 0.950 . S
C602 C601 1.398 . S
C602 C603 1.391 . S
C603 H591 0.950 . S
C603 C599 1.393 . S
C603 C602 1.391 . S
H604 C612 0.950 . S
H605 C617 0.950 . S
H606 C614 0.950 . S
H607 C616 0.950 . S
H608 C618 0.950 . S
H609 C620 0.950 . S
H610 C622 0.950 . S
H611 C623 0.950 . S
C612 H604 0.950 . S
C612 C613 1.386 . S
C612 C614 1.391 . S
C613 C612 1.386 . S
C613 C617 1.393 . S
C614 H606 0.950 . S
C614 C612 1.391 . S
C614 C615 1.400 . S
C615 C614 1.400 . S
C615 C616 1.398 . S
C615 C621 1.491 . S
C616 H607 0.950 . S
C616 C615 1.398 . S
C616 C617 1.391 . S
C617 H605 0.950 . S
C617 C613 1.393 . S
C617 C616 1.391 . S
C618 H608 0.950 . S
C618 C619 1.386 . S
C618 C620 1.391 . S
C619 C618 1.386 . S
C619 C623 1.393 . S
C620 H609 0.950 . S
C620 C618 1.391 . S
C620 C621 1.400 . S
C621 C615 1.491 . S
C621 C620 1.400 . S
C621 C622 1.398 . S
C622 H610 0.950 . S
C622 C621 1.398 . S
C622 C623 1.391 . S
C623 H611 0.950 . S
C623 C619 1.393 . S
C623 C622 1.391 . S
H624 C632 0.950 . S
H625 C637 0.950 . S
H626 C634 0.950 . S
H627 C636 0.950 . S
H628 C638 0.950 . S
H629 C640 0.950 . S
H630 C642 0.950 . S
H631 C643 0.950 . S
C632 H624 0.950 . S
C632 C633 1.386 . S
C632 C634 1.391 . S
C633 C632 1.386 . S
C633 C637 1.393 . S
C634 H626 0.950 . S
C634 C632 1.391 . S
C634 C635 1.400 . S
C635 C634 1.400 . S
C635 C636 1.398 . S
C635 C641 1.491 . S
C636 H627 0.950 . S
C636 C635 1.398 . S
C636 C637 1.391 . S
C637 H625 0.950 . S
C637 C633 1.393 . S
C637 C636 1.391 . S
C638 H628 0.950 . S
C638 C639 1.386 . S
C638 C640 1.391 . S
C639 C638 1.386 . S
C639 C643 1.393 . S
C640 H629 0.950 . S
C640 C638 1.391 . S
C640 C641 1.400 . S
C641 C635 1.491 . S
C641 C640 1.400 . S
C641 C642 1.398 . S
C642 H630 0.950 . S
C642 C641 1.398 . S
C642 C643 1.391 . S
C643 H631 0.950 . S
C643 C639 1.393 . S
C643 C642 1.391 . S
H644 C652 0.950 . S
H645 C657 0.950 . S
H646 C654 0.950 . S
H647 C656 0.950 . S
H648 C658 0.950 . S
H649 C660 0.950 . S
H650 C662 0.950 . S
H651 C663 0.950 . S
C652 H644 0.950 . S
C652 C653 1.386 . S
C652 C654 1.391 . S
C653 C652 1.386 . S
C653 C657 1.393 . S
C654 H646 0.950 . S
C654 C652 1.391 . S
C654 C655 1.400 . S
C655 C654 1.400 . S
C655 C656 1.398 . S
C655 C661 1.491 . S
C656 H647 0.950 . S
C656 C655 1.398 . S
C656 C657 1.391 . S
C657 H645 0.950 . S
C657 C653 1.393 . S
C657 C656 1.391 . S
C658 H648 0.950 . S
C658 C659 1.386 . S
C658 C660 1.391 . S
C659 C658 1.386 . S
C659 C663 1.393 . S
C660 H649 0.950 . S
C660 C658 1.391 . S
C660 C661 1.400 . S
C661 C655 1.491 . S
C661 C660 1.400 . S
C661 C662 1.398 . S
C662 H650 0.950 . S
C662 C661 1.398 . S
C662 C663 1.391 . S
C663 H651 0.950 . S
C663 C659 1.393 . S
C663 C662 1.391 . S
H664 C672 0.950 . S
H665 C677 0.950 . S
H666 C674 0.950 . S
H667 C676 0.950 . S
H668 C678 0.950 . S
H669 C680 0.950 . S
H670 C682 0.950 . S
H671 C683 0.950 . S
C672 H664 0.950 . S
C672 C673 1.386 . S
C672 C674 1.391 . S
C673 C672 1.386 . S
C673 C677 1.393 . S
C674 H666 0.950 . S
C674 C672 1.391 . S
C674 C675 1.400 . S
C675 C674 1.400 . S
C675 C676 1.398 . S
C675 C681 1.491 . S
C676 H667 0.950 . S
C676 C675 1.398 . S
C676 C677 1.391 . S
C677 H665 0.950 . S
C677 C673 1.393 . S
C677 C676 1.391 . S
C678 H668 0.950 . S
C678 C679 1.386 . S
C678 C680 1.391 . S
C679 C678 1.386 . S
C679 C683 1.393 . S
C680 H669 0.950 . S
C680 C678 1.391 . S
C680 C681 1.400 . S
C681 C675 1.491 . S
C681 C680 1.400 . S
C681 C682 1.398 . S
C682 H670 0.950 . S
C682 C681 1.398 . S
C682 C683 1.391 . S
C683 H671 0.950 . S
C683 C679 1.393 . S
C683 C682 1.391 . S
H684 C692 0.950 . S
H685 C697 0.950 . S
H686 C694 0.950 . S
H687 C696 0.950 . S
H688 C698 0.950 . S
H689 C700 0.950 . S
H690 C702 0.950 . S
H691 C703 0.950 . S
C692 H684 0.950 . S
C692 C693 1.386 . S
C692 C694 1.391 . S
C693 C692 1.386 . S
C693 C697 1.393 . S
C694 H686 0.950 . S
C694 C692 1.391 . S
C694 C695 1.400 . S
C695 C694 1.400 . S
C695 C696 1.398 . S
C695 C701 1.491 . S
C696 H687 0.950 . S
C696 C695 1.398 . S
C696 C697 1.391 . S
C697 H685 0.950 . S
C697 C693 1.393 . S
C697 C696 1.391 . S
C698 H688 0.950 . S
C698 C699 1.386 . S
C698 C700 1.391 . S
C699 C698 1.386 . S
C699 C703 1.393 . S
C700 H689 0.950 . S
C700 C698 1.391 . S
C700 C701 1.400 . S
C701 C695 1.491 . S
C701 C700 1.400 . S
C701 C702 1.398 . S
C702 H690 0.950 . S
C702 C701 1.398 . S
C702 C703 1.391 . S
C703 H691 0.950 . S
C703 C699 1.393 . S
C703 C702 1.391 . S
H704 C712 0.950 . S
H705 C717 0.950 . S
H706 C714 0.946 1_545 S
H707 C716 0.950 . S
H708 C718 0.950 . S
H709 C720 0.950 . S
H710 C722 0.950 . S
H711 C723 0.950 . S
C712 H704 0.950 . S
C712 C713 1.386 . S
C712 C714 1.391 1_545 S
C713 C712 1.386 . S
C713 C717 1.393 1_545 S
C714 H706 0.946 1_565 S
C714 C712 1.391 1_565 S
C714 C715 1.400 . S
C715 C714 1.400 . S
C715 C716 1.398 . S
C715 C721 1.491 . S
C716 H707 0.950 . S
C716 C715 1.398 . S
C716 C717 1.391 . S
C717 H705 0.950 . S
C717 C713 1.393 1_565 S
C717 C716 1.391 . S
C718 H708 0.950 . S
C718 C719 1.386 . S
C718 C720 1.391 . S
C719 C718 1.386 . S
C719 C723 1.393 . S
C720 H709 0.950 . S
C720 C718 1.391 . S
C720 C721 1.400 . S
C721 C715 1.491 . S
C721 C720 1.400 . S
C721 C722 1.398 . S
C722 H710 0.950 . S
C722 C721 1.398 . S
C722 C723 1.391 . S
C723 H711 0.950 . S
C723 C719 1.393 . S
C723 C722 1.391 . S
H724 C732 0.950 . S
H725 C737 0.950 . S
H726 C734 0.950 . S
H727 C736 0.950 . S
H728 C738 0.950 . S
H729 C740 0.950 . S
H730 C742 0.950 . S
H731 C743 0.950 . S
C732 H724 0.950 . S
C732 C733 1.386 . S
C732 C734 1.391 . S
C733 C732 1.386 . S
C733 C737 1.393 . S
C734 H726 0.950 . S
C734 C732 1.391 . S
C734 C735 1.400 . S
C735 C734 1.400 . S
C735 C736 1.398 . S
C735 C741 1.491 . S
C736 H727 0.950 . S
C736 C735 1.398 . S
C736 C737 1.391 . S
C737 H725 0.950 . S
C737 C733 1.393 . S
C737 C736 1.391 . S
C738 H728 0.950 . S
C738 C739 1.386 . S
C738 C740 1.391 . S
C739 C738 1.386 . S
C739 C743 1.393 . S
C740 H729 0.950 . S
C740 C738 1.391 . S
C740 C741 1.400 . S
C741 C735 1.491 . S
C741 C740 1.400 . S
C741 C742 1.398 . S
C742 H730 0.950 . S
C742 C741 1.398 . S
C742 C743 1.391 . S
C743 H731 0.950 . S
C743 C739 1.393 . S
C743 C742 1.391 . S
H744 C752 0.950 . S
H745 C757 0.950 . S
H746 C754 0.950 . S
H747 C756 0.950 . S
H748 C758 0.950 . S
H749 C760 0.950 . S
H750 C762 0.950 . S
H751 C763 0.950 . S
C752 H744 0.950 . S
C752 C753 1.386 . S
C752 C754 1.391 . S
C753 C752 1.386 . S
C753 C757 1.393 . S
C754 H746 0.950 . S
C754 C752 1.391 . S
C754 C755 1.400 . S
C755 C754 1.400 . S
C755 C756 1.398 . S
C755 C761 1.491 . S
C756 H747 0.950 . S
C756 C755 1.398 . S
C756 C757 1.391 . S
C757 H745 0.950 . S
C757 C753 1.393 . S
C757 C756 1.391 . S
C758 H748 0.950 . S
C758 C759 1.386 1_455 S
C758 C760 1.391 . S
C759 C758 1.386 1_655 S
C759 C763 1.393 . S
C760 H749 0.950 . S
C760 C758 1.391 . S
C760 C761 1.400 . S
C761 C755 1.491 . S
C761 C760 1.400 . S
C761 C762 1.398 . S
C762 H750 0.950 . S
C762 C761 1.398 . S
C762 C763 1.391 1_455 S
C763 H751 0.950 . S
C763 C759 1.393 . S
C763 C762 1.391 1_655 S
H764 C772 0.950 . S
H765 C777 0.950 . S
H766 C774 0.950 . S
H767 C776 0.950 . S
H768 C778 0.950 . S
H769 C780 0.957 . S
H770 C782 0.950 . S
H771 C783 0.950 . S
C772 H764 0.950 . S
C772 C773 1.386 1_545 S
C772 C774 1.391 . S
C773 C772 1.386 1_565 S
C773 C777 1.393 . S
C774 H766 0.950 . S
C774 C772 1.391 . S
C774 C775 1.400 . S
C775 C774 1.400 . S
C775 C776 1.398 . S
C775 C781 1.491 . S
C776 H767 0.950 . S
C776 C775 1.398 . S
C776 C777 1.391 1_545 S
C777 H765 0.950 . S
C777 C773 1.393 . S
C777 C776 1.391 1_565 S
C778 H768 0.950 . S
C778 C779 1.386 . S
C778 C780 1.391 1_455 S
C779 C778 1.386 . S
C779 C783 1.393 1_455 S
C780 H769 0.957 . S
C780 C778 1.391 1_655 S
C780 C781 1.400 . S
C781 C775 1.491 . S
C781 C780 1.400 . S
C781 C782 1.398 . S
C782 H770 0.950 . S
C782 C781 1.398 . S
C782 C783 1.391 . S
C783 H771 0.950 . S
C783 C779 1.393 1_655 S
C783 C782 1.391 . S
H784 C792 0.950 . S
H785 C797 0.950 . S
H786 C794 0.950 . S
H787 C796 0.950 . S
H788 C798 0.950 . S
H789 C800 0.950 . S
H790 C802 0.950 . S
H791 C803 0.950 . S
C792 H784 0.950 . S
C792 C793 1.386 . S
C792 C794 1.391 . S
C793 C792 1.386 . S
C793 C797 1.393 . S
C794 H786 0.950 . S
C794 C792 1.391 . S
C794 C795 1.400 . S
C795 C794 1.400 . S
C795 C796 1.398 . S
C795 C801 1.491 . S
C796 H787 0.950 . S
C796 C795 1.398 . S
C796 C797 1.391 . S
C797 H785 0.950 . S
C797 C793 1.393 . S
C797 C796 1.391 . S
C798 H788 0.950 . S
C798 C799 1.386 . S
C798 C800 1.391 . S
C799 C798 1.386 . S
C799 C803 1.393 . S
C800 H789 0.950 . S
C800 C798 1.391 . S
C800 C801 1.400 . S
C801 C795 1.491 . S
C801 C800 1.400 . S
C801 C802 1.398 . S
C802 H790 0.950 . S
C802 C801 1.398 . S
C802 C803 1.391 . S
C803 H791 0.950 . S
C803 C799 1.393 . S
C803 C802 1.391 . S
H804 C812 0.950 . S
H805 C817 0.950 . S
H806 C814 0.950 . S
H807 C816 0.950 1_455 S
H808 C818 0.950 . S
H809 C820 0.950 . S
H810 C822 0.950 . S
H811 C823 0.950 . S
C812 H804 0.950 . S
C812 C813 1.386 1_655 S
C812 C814 1.391 . S
C813 C812 1.386 1_455 S
C813 C817 1.393 . S
C814 H806 0.950 . S
C814 C812 1.391 . S
C814 C815 1.400 . S
C815 C814 1.400 . S
C815 C816 1.398 . S
C815 C821 1.491 . S
C816 H807 0.950 1_655 S
C816 C815 1.398 . S
C816 C817 1.391 1_655 S
C817 H805 0.950 . S
C817 C813 1.393 . S
C817 C816 1.391 1_455 S
C818 H808 0.950 . S
C818 C819 1.386 . S
C818 C820 1.391 . S
C819 C818 1.386 . S
C819 C823 1.393 . S
C820 H809 0.950 . S
C820 C818 1.391 . S
C820 C821 1.400 . S
C821 C815 1.491 . S
C821 C820 1.400 . S
C821 C822 1.398 . S
C822 H810 0.950 . S
C822 C821 1.398 . S
C822 C823 1.391 . S
C823 H811 0.950 . S
C823 C819 1.393 . S
C823 C822 1.391 . S
H824 C832 0.950 . S
H825 C837 0.950 . S
H826 C834 0.950 . S
H827 C836 0.950 . S
H828 C838 0.950 . S
H829 C840 0.950 . S
H830 C842 0.950 . S
H831 C843 0.950 . S
C832 H824 0.950 . S
C832 C833 1.386 . S
C832 C834 1.391 1_655 S
C833 C832 1.386 . S
C833 C837 1.393 1_655 S
C834 H826 0.950 . S
C834 C832 1.391 1_455 S
C834 C835 1.400 . S
C835 C834 1.400 . S
C835 C836 1.398 . S
C835 C841 1.491 . S
C836 H827 0.950 . S
C836 C835 1.398 . S
C836 C837 1.391 . S
C837 H825 0.950 . S
C837 C833 1.393 1_455 S
C837 C836 1.391 . S
C838 H828 0.950 . S
C838 C839 1.386 1_565 S
C838 C840 1.391 . S
C839 C838 1.386 1_545 S
C839 C843 1.393 . S
C840 H829 0.950 . S
C840 C838 1.391 . S
C840 C841 1.400 . S
C841 C835 1.491 . S
C841 C840 1.400 . S
C841 C842 1.398 . S
C842 H830 0.950 . S
C842 C841 1.398 . S
C842 C843 1.391 1_565 S
C843 H831 0.950 . S
C843 C839 1.393 . S
C843 C842 1.391 1_545 S
H844 C852 0.950 . S
H845 C857 0.950 . S
H846 C854 0.950 1_565 S
H847 C856 0.950 . S
H848 C858 0.950 . S
H849 C860 0.950 . S
H850 C862 0.950 . S
H851 C863 0.950 . S
C852 H844 0.950 . S
C852 C853 1.386 . S
C852 C854 1.391 1_565 S
C853 C852 1.386 . S
C853 C857 1.393 1_565 S
C854 H846 0.950 1_545 S
C854 C852 1.391 1_545 S
C854 C855 1.400 . S
C855 C854 1.400 . S
C855 C856 1.398 . S
C855 C861 1.491 . S
C856 H847 0.950 . S
C856 C855 1.398 . S
C856 C857 1.391 . S
C857 H845 0.950 . S
C857 C853 1.393 1_545 S
C857 C856 1.391 . S
C858 H848 0.950 . S
C858 C859 1.386 . S
C858 C860 1.391 . S
C859 C858 1.386 . S
C859 C863 1.393 . S
C860 H849 0.950 . S
C860 C858 1.391 . S
C860 C861 1.400 . S
C861 C855 1.491 . S
C861 C860 1.400 . S
C861 C862 1.398 . S
C862 H850 0.950 . S
C862 C861 1.398 . S
C862 C863 1.391 . S
C863 H851 0.950 . S
C863 C859 1.393 . S
C863 C862 1.391 . S
C233 C110 1.595 . S
C239 C0 1.587 . S
C253 C57 1.587 . S
C259 C15 1.596 . S
C273 C83 1.589 . S
C279 C29 1.594 . S
C293 C55 1.586 . S
C299 C97 1.597 . S
C313 C223 1.597 . S
C319 C112 1.586 . S
C333 C169 1.597 . S
C339 C126 1.587 . S
C353 C152 1.597 . S
C359 C183 1.587 . S
C373 C166 1.586 . S
C379 C196 1.597 . S
C393 C41 1.441 . S
C399 C12 1.439 . S
C413 C27 1.428 . S
C419 C43 1.425 . S
C433 C69 1.435 . S
C439 C85 1.430 . S
C453 C98 1.436 . S
C459 C71 1.429 . S
C473 C124 1.434 . S
C479 C140 1.439 . S
C493 C138 1.424 . S
C499 C154 1.427 . S
C513 C208 1.427 . S
C519 C181 1.433 . S
C533 C195 1.442 . S
C539 C211 1.440 . S
C553 C96 1.602 . S
C559 C1 1.602 . S
C573 C14 1.605 . S
C579 C111 1.603 . S
C593 C28 1.603 . S
C599 C56 1.604 . S
C613 C54 1.604 . S
C619 C82 1.606 . S
C633 C113 1.604 . S
C639 C197 1.603 . S
C653 C127 1.603 . S
C659 C222 1.602 . S
C673 C153 1.603 . S
C679 C168 1.602 . S
C693 C167 1.607 . S
C699 C182 1.606 . S
C713 C13 1.553 . S
C719 C210 1.555 . S
C733 C180 1.557 . S
C739 C26 1.552 . S
C753 C40 1.556 . S
C759 C194 1.553 . S
C773 C209 1.552 . S
C779 C42 1.558 . S
C793 C139 1.557 . S
C799 C68 1.553 . S
C813 C70 1.557 . S
C819 C141 1.553 . S
C833 C155 1.554 . S
C839 C84 1.556 . S
C853 C125 1.558 . S
C859 C99 1.551 . S
