# Generated by pormake.
# Topology umk, (4)-cn, num edge types: 1
# Building blocks:
#     Node 0, Type 0, BuildingBlock: NAHDIM_clean_sbu_0, # of connection points: 4
#     Node 1, Type 0, BuildingBlock: NAHDIM_clean_sbu_0, # of connection points: 4
#     Node 2, Type 0, BuildingBlock: NAHDIM_clean_sbu_0, # of connection points: 4
#     Node 3, Type 0, BuildingBlock: NAHDIM_clean_sbu_0, # of connection points: 4
#     Node 4, Type 0, BuildingBlock: NAHDIM_clean_sbu_0, # of connection points: 4
#     Node 5, Type 0, BuildingBlock: NAHDIM_clean_sbu_0, # of connection points: 4
#     Node 6, Type 0, BuildingBlock: NAHDIM_clean_sbu_0, # of connection points: 4
#     Node 7, Type 0, BuildingBlock: NAHDIM_clean_sbu_0, # of connection points: 4
#     Node 8, Type 0, BuildingBlock: NAHDIM_clean_sbu_0, # of connection points: 4
#     Node 9, Type 0, BuildingBlock: NAHDIM_clean_sbu_0, # of connection points: 4
#     Node 10, Type 0, BuildingBlock: NAHDIM_clean_sbu_0, # of connection points: 4
#     Node 11, Type 0, BuildingBlock: NAHDIM_clean_sbu_0, # of connection points: 4
#     Node 12, Type 0, BuildingBlock: NAHDIM_clean_sbu_0, # of connection points: 4
#     Node 13, Type 0, BuildingBlock: NAHDIM_clean_sbu_0, # of connection points: 4
#     Node 14, Type 0, BuildingBlock: NAHDIM_clean_sbu_0, # of connection points: 4
#     Node 15, Type 0, BuildingBlock: NAHDIM_clean_sbu_0, # of connection points: 4
#     Node 16, Type 0, BuildingBlock: NAHDIM_clean_sbu_0, # of connection points: 4
#     Node 17, Type 0, BuildingBlock: NAHDIM_clean_sbu_0, # of connection points: 4
#     Node 18, Type 0, BuildingBlock: NAHDIM_clean_sbu_0, # of connection points: 4
#     Node 19, Type 0, BuildingBlock: NAHDIM_clean_sbu_0, # of connection points: 4
#     Node 20, Type 0, BuildingBlock: NAHDIM_clean_sbu_0, # of connection points: 4
#     Node 21, Type 0, BuildingBlock: NAHDIM_clean_sbu_0, # of connection points: 4
#     Node 22, Type 0, BuildingBlock: NAHDIM_clean_sbu_0, # of connection points: 4
#     Node 23, Type 0, BuildingBlock: NAHDIM_clean_sbu_0, # of connection points: 4
#     Edge 24, Type (0, 0), BuildingBlock: ZUJKAS_clean_linker_0, # of connection points: 2
#     Edge 25, Type (0, 0), BuildingBlock: ZUJKAS_clean_linker_0, # of connection points: 2
#     Edge 26, Type (0, 0), BuildingBlock: ZUJKAS_clean_linker_0, # of connection points: 2
#     Edge 27, Type (0, 0), BuildingBlock: ZUJKAS_clean_linker_0, # of connection points: 2
#     Edge 28, Type (0, 0), BuildingBlock: ZUJKAS_clean_linker_0, # of connection points: 2
#     Edge 29, Type (0, 0), BuildingBlock: ZUJKAS_clean_linker_0, # of connection points: 2
#     Edge 30, Type (0, 0), BuildingBlock: ZUJKAS_clean_linker_0, # of connection points: 2
#     Edge 31, Type (0, 0), BuildingBlock: ZUJKAS_clean_linker_0, # of connection points: 2
#     Edge 32, Type (0, 0), BuildingBlock: ZUJKAS_clean_linker_0, # of connection points: 2
#     Edge 33, Type (0, 0), BuildingBlock: ZUJKAS_clean_linker_0, # of connection points: 2
#     Edge 34, Type (0, 0), BuildingBlock: ZUJKAS_clean_linker_0, # of connection points: 2
#     Edge 35, Type (0, 0), BuildingBlock: ZUJKAS_clean_linker_0, # of connection points: 2
#     Edge 36, Type (0, 0), BuildingBlock: ZUJKAS_clean_linker_0, # of connection points: 2
#     Edge 37, Type (0, 0), BuildingBlock: ZUJKAS_clean_linker_0, # of connection points: 2
#     Edge 38, Type (0, 0), BuildingBlock: ZUJKAS_clean_linker_0, # of connection points: 2
#     Edge 39, Type (0, 0), BuildingBlock: ZUJKAS_clean_linker_0, # of connection points: 2
#     Edge 40, Type (0, 0), BuildingBlock: ZUJKAS_clean_linker_0, # of connection points: 2
#     Edge 41, Type (0, 0), BuildingBlock: ZUJKAS_clean_linker_0, # of connection points: 2
#     Edge 42, Type (0, 0), BuildingBlock: ZUJKAS_clean_linker_0, # of connection points: 2
#     Edge 43, Type (0, 0), BuildingBlock: ZUJKAS_clean_linker_0, # of connection points: 2
#     Edge 44, Type (0, 0), BuildingBlock: ZUJKAS_clean_linker_0, # of connection points: 2
#     Edge 45, Type (0, 0), BuildingBlock: ZUJKAS_clean_linker_0, # of connection points: 2
#     Edge 46, Type (0, 0), BuildingBlock: ZUJKAS_clean_linker_0, # of connection points: 2
#     Edge 47, Type (0, 0), BuildingBlock: ZUJKAS_clean_linker_0, # of connection points: 2
#     Edge 48, Type (0, 0), BuildingBlock: ZUJKAS_clean_linker_0, # of connection points: 2
#     Edge 49, Type (0, 0), BuildingBlock: ZUJKAS_clean_linker_0, # of connection points: 2
#     Edge 50, Type (0, 0), BuildingBlock: ZUJKAS_clean_linker_0, # of connection points: 2
#     Edge 51, Type (0, 0), BuildingBlock: ZUJKAS_clean_linker_0, # of connection points: 2
#     Edge 52, Type (0, 0), BuildingBlock: ZUJKAS_clean_linker_0, # of connection points: 2
#     Edge 53, Type (0, 0), BuildingBlock: ZUJKAS_clean_linker_0, # of connection points: 2
#     Edge 54, Type (0, 0), BuildingBlock: ZUJKAS_clean_linker_0, # of connection points: 2
#     Edge 55, Type (0, 0), BuildingBlock: ZUJKAS_clean_linker_0, # of connection points: 2
#     Edge 56, Type (0, 0), BuildingBlock: ZUJKAS_clean_linker_0, # of connection points: 2
#     Edge 57, Type (0, 0), BuildingBlock: ZUJKAS_clean_linker_0, # of connection points: 2
#     Edge 58, Type (0, 0), BuildingBlock: ZUJKAS_clean_linker_0, # of connection points: 2
#     Edge 59, Type (0, 0), BuildingBlock: ZUJKAS_clean_linker_0, # of connection points: 2
#     Edge 60, Type (0, 0), BuildingBlock: ZUJKAS_clean_linker_0, # of connection points: 2
#     Edge 61, Type (0, 0), BuildingBlock: ZUJKAS_clean_linker_0, # of connection points: 2
#     Edge 62, Type (0, 0), BuildingBlock: ZUJKAS_clean_linker_0, # of connection points: 2
#     Edge 63, Type (0, 0), BuildingBlock: ZUJKAS_clean_linker_0, # of connection points: 2
#     Edge 64, Type (0, 0), BuildingBlock: ZUJKAS_clean_linker_0, # of connection points: 2
#     Edge 65, Type (0, 0), BuildingBlock: ZUJKAS_clean_linker_0, # of connection points: 2
#     Edge 66, Type (0, 0), BuildingBlock: ZUJKAS_clean_linker_0, # of connection points: 2
#     Edge 67, Type (0, 0), BuildingBlock: ZUJKAS_clean_linker_0, # of connection points: 2
#     Edge 68, Type (0, 0), BuildingBlock: ZUJKAS_clean_linker_0, # of connection points: 2
#     Edge 69, Type (0, 0), BuildingBlock: ZUJKAS_clean_linker_0, # of connection points: 2
#     Edge 70, Type (0, 0), BuildingBlock: ZUJKAS_clean_linker_0, # of connection points: 2
#     Edge 71, Type (0, 0), BuildingBlock: ZUJKAS_clean_linker_0, # of connection points: 2
# Relax obj value: 0.111
# Max RMSD: 0.129
# Mean RMSD: 0.129
data_MOF--net-umk--node1-NAHDIM_clean_sbu_0--edge1-ZUJKAS_clean_linker_0
_symmetry_space_group_name_H-M    P1
_symmetry_Int_Tables_number       1
_symmetry_cell_setting            triclinic
loop_
_symmetry_equiv_pos_as_xyz
'x, y, z'
_cell_length_a     86.521446
_cell_length_b     86.515317
_cell_length_c     54.71245
_cell_angle_alpha  90.006299
_cell_angle_beta   90.002625
_cell_angle_gamma 119.98465
loop_
_atom_site_label
_atom_site_type_symbol
_atom_site_fract_x
_atom_site_fract_y
_atom_site_fract_z
_atom_type_partial_charge
C0 C 0.30022 0.45802 0.05778 0.0
O1 O 0.31309 0.47172 0.06936 0.0
O2 O 0.32576 0.44958 0.10237 0.0
Zn3 Zn 0.32416 0.44574 0.06608 0.0
O4 O 0.34501 0.46687 0.05029 0.0
C5 C 0.3196 0.41066 0.07339 0.0
O6 O 0.31249 0.41157 0.09417 0.0
O7 O 0.30173 0.44435 0.05397 0.0
C8 C 0.35879 0.46648 0.04315 0.0
O9 O 0.35953 0.45179 0.04597 0.0
C10 C 0.33975 0.45271 0.11397 0.0
O11 O 0.3532 0.45336 0.10192 0.0
O12 O 0.32481 0.4234 0.05819 0.0
C13 C 0.84411 0.30545 0.52872 0.0
O14 O 0.85577 0.31854 0.51494 0.0
O15 O 0.85814 0.32909 0.60324 0.0
Zn16 Zn 0.86316 0.33023 0.56723 0.0
O17 O 0.86188 0.35082 0.55222 0.0
C18 C 0.89411 0.32582 0.57374 0.0
O19 O 0.88417 0.31397 0.59026 0.0
O20 O 0.84485 0.30744 0.55176 0.0
C21 C 0.87591 0.36604 0.55076 0.0
O22 O 0.89098 0.36811 0.55945 0.0
C23 C 0.87 0.33955 0.61819 0.0
O24 O 0.88578 0.35145 0.60987 0.0
O25 O 0.88766 0.3338 0.56161 0.0
C26 C 0.54152 0.83711 0.06406 0.0
O27 O 0.54888 0.84475 0.08493 0.0
O28 O 0.52801 0.8625 0.0997 0.0
Zn29 Zn 0.5311 0.8639 0.06326 0.0
O30 O 0.50995 0.86323 0.04705 0.0
C31 C 0.56675 0.89406 0.06789 0.0
O32 O 0.56744 0.88525 0.08702 0.0
O33 O 0.53345 0.84326 0.05149 0.0
C34 C 0.50384 0.8729 0.05503 0.0
O35 O 0.51128 0.88302 0.07428 0.0
C36 C 0.51344 0.85149 0.10999 0.0
O37 O 0.49973 0.84061 0.09645 0.0
O38 O 0.55277 0.8872 0.05474 0.0
C39 C 0.69061 0.52759 0.55961 0.0
O40 O 0.67976 0.51265 0.57097 0.0
O41 O 0.66721 0.53425 0.61314 0.0
Zn42 Zn 0.66518 0.53649 0.57694 0.0
O43 O 0.6441 0.51417 0.56415 0.0
C44 C 0.66721 0.57067 0.58371 0.0
O45 O 0.67733 0.57207 0.60244 0.0
O46 O 0.68723 0.54028 0.55987 0.0
C47 C 0.63869 0.51414 0.54257 0.0
O48 O 0.64734 0.52856 0.5291 0.0
C49 C 0.65308 0.5281 0.62586 0.0
O50 O 0.63782 0.52317 0.61481 0.0
O51 O 0.66099 0.55689 0.57022 0.0
C52 C 0.15404 0.69901 0.06779 0.0
O53 O 0.15818 0.69015 0.08346 0.0
O54 O 0.12204 0.66726 0.11077 0.0
Zn55 Zn 0.11901 0.66904 0.07456 0.0
O56 O 0.12053 0.64952 0.05686 0.0
C57 C 0.08698 0.67063 0.08372 0.0
O58 O 0.09521 0.67829 0.10417 0.0
O59 O 0.13785 0.69265 0.06151 0.0
C60 C 0.10814 0.63344 0.05943 0.0
O61 O 0.09466 0.62993 0.07392 0.0
C62 C 0.12969 0.65928 0.11981 0.0
O63 O 0.13638 0.6521 0.10511 0.0
O64 O 0.0948 0.66595 0.06821 0.0
C65 C 0.45696 0.15169 0.54909 0.0
O66 O 0.47305 0.15589 0.55649 0.0
O67 O 0.45272 0.11927 0.59969 0.0
Zn68 Zn 0.44938 0.11684 0.56332 0.0
O69 O 0.47154 0.11919 0.54753 0.0
C70 C 0.41416 0.08609 0.56837 0.0
O71 O 0.41267 0.09552 0.58608 0.0
O72 O 0.44449 0.13557 0.55042 0.0
C73 C 0.47189 0.10554 0.53969 0.0
O74 O 0.4576 0.08973 0.54198 0.0
C75 C 0.45342 0.10694 0.61136 0.0
O76 O 0.45235 0.09334 0.59919 0.0
O77 O 0.42845 0.09275 0.55592 0.0
C78 C 0.53269 0.68055 0.96361 0.0
O79 O 0.52929 0.66614 0.9759 0.0
O80 O 0.52675 0.66054 0.88717 0.0
Zn81 Zn 0.52968 0.65832 0.92331 0.0
O82 O 0.50801 0.63685 0.9373 0.0
C83 C 0.56631 0.66574 0.91977 0.0
O84 O 0.56867 0.67914 0.90587 0.0
O85 O 0.53346 0.68037 0.94044 0.0
C86 C 0.50776 0.62207 0.9391 0.0
O87 O 0.52158 0.62101 0.93141 0.0
C88 C 0.5159 0.64729 0.8743 0.0
O89 O 0.50614 0.63171 0.88482 0.0
O90 O 0.55104 0.65556 0.92898 0.0
C91 C 0.8343 0.53227 0.4236 0.0
O92 O 0.83062 0.5186 0.4094 0.0
O93 O 0.8664 0.53701 0.37664 0.0
Zn94 Zn 0.86957 0.54007 0.413 0.0
O95 O 0.86792 0.51792 0.42767 0.0
C96 C 0.90088 0.57508 0.40713 0.0
O97 O 0.89187 0.57654 0.38881 0.0
O98 O 0.85051 0.54379 0.42765 0.0
C99 C 0.88185 0.51741 0.43372 0.0
O100 O 0.89759 0.53157 0.43018 0.0
C101 C 0.87808 0.53559 0.36432 0.0
O102 O 0.89163 0.53603 0.37578 0.0
O103 O 0.89369 0.56106 0.42018 0.0
C104 C 0.30096 0.84014 0.94084 0.0
O105 O 0.31341 0.83651 0.93426 0.0
O106 O 0.32533 0.86981 0.88522 0.0
Zn107 Zn 0.32625 0.87401 0.92152 0.0
O108 O 0.34655 0.8726 0.93701 0.0
C109 C 0.31939 0.90336 0.91901 0.0
O110 O 0.30579 0.89221 0.90551 0.0
O111 O 0.30337 0.85567 0.93701 0.0
C112 C 0.36227 0.88072 0.92837 0.0
O113 O 0.36547 0.89022 0.90833 0.0
C114 C 0.32945 0.85901 0.8755 0.0
O115 O 0.33467 0.85014 0.88948 0.0
O116 O 0.32978 0.89836 0.92778 0.0
C117 C 0.43814 0.29243 0.44357 0.0
O118 O 0.43157 0.29151 0.42162 0.0
O119 O 0.45476 0.32781 0.40108 0.0
Zn120 Zn 0.45148 0.32993 0.43708 0.0
O121 O 0.47391 0.35053 0.4509 0.0
C122 C 0.41744 0.32751 0.42805 0.0
O123 O 0.41653 0.31698 0.41013 0.0
O124 O 0.4469 0.30752 0.45396 0.0
C125 C 0.47538 0.36574 0.45432 0.0
O126 O 0.4619 0.36808 0.44887 0.0
C127 C 0.46229 0.34159 0.38759 0.0
O128 O 0.46812 0.35739 0.39744 0.0
O129 O 0.43091 0.33412 0.44216 0.0
C130 C 0.15797 0.47495 0.95182 0.0
O131 O 0.15966 0.49088 0.95028 0.0
O132 O 0.12849 0.46593 0.89072 0.0
Zn133 Zn 0.12496 0.46456 0.92706 0.0
O134 O 0.12576 0.48679 0.9394 0.0
C135 C 0.0927 0.43044 0.92137 0.0
O136 O 0.10014 0.42996 0.90067 0.0
O137 O 0.14413 0.46161 0.94308 0.0
C138 C 0.113 0.48971 0.93522 0.0
O139 O 0.09936 0.47816 0.92211 0.0
C140 C 0.14091 0.47964 0.8803 0.0
O141 O 0.15171 0.49355 0.89361 0.0
O142 O 0.10102 0.44372 0.93555 0.0
C143 C 0.68859 0.15666 0.4262 0.0
O144 O 0.67781 0.16002 0.41327 0.0
O145 O 0.66026 0.12305 0.38109 0.0
Zn146 Zn 0.66071 0.12118 0.41771 0.0
O147 O 0.64058 0.12333 0.43238 0.0
C148 C 0.66344 0.08943 0.4132 0.0
O149 O 0.67327 0.09788 0.39413 0.0
O150 O 0.68408 0.14055 0.43072 0.0
C151 C 0.62477 0.11041 0.42962 0.0
O152 O 0.62223 0.09629 0.41731 0.0
C153 C 0.65305 0.1308 0.37013 0.0
O154 O 0.64557 0.13812 0.38301 0.0
O155 O 0.65717 0.09709 0.42639 0.0
C156 C 0.69232 0.55021 0.94123 0.0
O157 O 0.69232 0.55401 0.91799 0.0
O158 O 0.65633 0.53602 0.90115 0.0
Zn159 Zn 0.65507 0.53933 0.93748 0.0
O160 O 0.63461 0.51706 0.95181 0.0
C161 C 0.66232 0.57565 0.93581 0.0
O162 O 0.67653 0.57817 0.92375 0.0
O163 O 0.67788 0.54384 0.95332 0.0
C164 C 0.61947 0.50932 0.94133 0.0
O165 O 0.61727 0.51612 0.92106 0.0
C166 C 0.64928 0.54165 0.88574 0.0
O167 O 0.64065 0.54957 0.89361 0.0
O168 O 0.6514 0.56014 0.94378 0.0
C169 C 0.14547 0.69491 0.43458 0.0
O170 O 0.14551 0.6952 0.41057 0.0
O171 O 0.12755 0.65868 0.39293 0.0
Zn172 Zn 0.12051 0.6572 0.42821 0.0
O173 O 0.12232 0.63757 0.44506 0.0
C174 C 0.08976 0.66066 0.41805 0.0
O175 O 0.10118 0.67421 0.4047 0.0
O176 O 0.1359 0.68026 0.44568 0.0
C177 C 0.11675 0.63366 0.46692 0.0
O178 O 0.1103 0.64277 0.47781 0.0
C179 C 0.12166 0.64444 0.38049 0.0
O180 O 0.11155 0.62901 0.39125 0.0
O181 O 0.09513 0.65156 0.42978 0.0
C182 C 0.46199 0.15236 0.93551 0.0
O183 O 0.477 0.15446 0.9265 0.0
O184 O 0.45335 0.11866 0.88594 0.0
Zn185 Zn 0.45071 0.11664 0.92245 0.0
O186 O 0.47248 0.11764 0.93733 0.0
C187 C 0.41377 0.08887 0.92203 0.0
O188 O 0.41196 0.10014 0.90791 0.0
O189 O 0.44827 0.13689 0.9356 0.0
C190 C 0.47321 0.10359 0.94171 0.0
O191 O 0.45942 0.08796 0.93634 0.0
C192 C 0.45187 0.10547 0.87379 0.0
O193 O 0.44881 0.09095 0.88548 0.0
O194 O 0.42903 0.09332 0.93079 0.0
C195 C 0.29582 0.46066 0.4265 0.0
O196 O 0.30248 0.47078 0.40705 0.0
O197 O 0.32898 0.46226 0.38684 0.0
Zn198 Zn 0.32807 0.45902 0.4232 0.0
O199 O 0.34786 0.48104 0.43885 0.0
C200 C 0.32522 0.42455 0.41744 0.0
O201 O 0.31494 0.42317 0.39893 0.0
O202 O 0.30447 0.45406 0.43651 0.0
C203 C 0.35299 0.47995 0.46023 0.0
O204 O 0.34483 0.46457 0.47174 0.0
C205 C 0.34305 0.46533 0.37552 0.0
O206 O 0.35665 0.46673 0.38805 0.0
O207 O 0.33191 0.43851 0.4306 0.0
C208 C 0.83642 0.3008 0.94949 0.0
O209 O 0.83348 0.3143 0.94941 0.0
O210 O 0.86577 0.326 0.8893 0.0
Zn211 Zn 0.8685 0.32652 0.92578 0.0
O212 O 0.865 0.34602 0.94012 0.0
C213 C 0.90571 0.34489 0.92074 0.0
O214 O 0.90113 0.35298 0.90439 0.0
O215 O 0.85076 0.3028 0.94019 0.0
C216 C 0.8667 0.35913 0.92754 0.0
O217 O 0.87085 0.36014 0.90428 0.0
C218 C 0.85103 0.31933 0.87791 0.0
O219 O 0.83601 0.31166 0.89028 0.0
O220 O 0.89356 0.33225 0.93315 0.0
C221 C 0.52871 0.83413 0.42531 0.0
O222 O 0.5163 0.82989 0.40865 0.0
O223 O 0.52917 0.86572 0.38228 0.0
Zn224 Zn 0.53226 0.8685 0.4188 0.0
O225 O 0.50998 0.86553 0.43459 0.0
C226 C 0.56664 0.90028 0.41389 0.0
O227 O 0.56856 0.89118 0.39608 0.0
O228 O 0.53766 0.85021 0.43251 0.0
C229 C 0.5059 0.87766 0.43218 0.0
O230 O 0.51626 0.89184 0.41904 0.0
C231 C 0.514 0.85745 0.37195 0.0
O232 O 0.4995 0.85024 0.38544 0.0
O233 O 0.55234 0.89308 0.42635 0.0
C234 C 0.4654 0.30127 0.05575 0.0
O235 O 0.48104 0.31508 0.061 0.0
O236 O 0.4577 0.32177 0.11501 0.0
Zn237 Zn 0.45393 0.32316 0.07891 0.0
O238 O 0.47467 0.34502 0.06432 0.0
C239 C 0.43172 0.33795 0.08467 0.0
O240 O 0.44543 0.34877 0.09827 0.0
O241 O 0.45135 0.30148 0.06194 0.0
C242 C 0.47343 0.34995 0.0429 0.0
O243 O 0.45857 0.34053 0.03056 0.0
C244 C 0.4695 0.33515 0.12679 0.0
O245 O 0.47984 0.35006 0.11502 0.0
O246 O 0.43193 0.32502 0.074 0.0
C247 C 0.14957 0.46031 0.54819 0.0
O248 O 0.15185 0.47624 0.55261 0.0
O249 O 0.12563 0.45411 0.61138 0.0
Zn250 Zn 0.11828 0.45051 0.57601 0.0
O251 O 0.11826 0.47233 0.56344 0.0
C252 C 0.08291 0.42451 0.59097 0.0
O253 O 0.08878 0.43276 0.61197 0.0
O254 O 0.13573 0.44668 0.55641 0.0
C255 C 0.11159 0.48013 0.57551 0.0
O256 O 0.10421 0.47368 0.59685 0.0
C257 C 0.13809 0.46878 0.61974 0.0
O258 O 0.14708 0.48221 0.60474 0.0
O259 O 0.09337 0.42954 0.57269 0.0
C260 C 0.69682 0.1437 0.06046 0.0
O261 O 0.69528 0.14313 0.08437 0.0
O262 O 0.65989 0.11714 0.0983 0.0
Zn263 Zn 0.66031 0.11434 0.06187 0.0
O264 O 0.64048 0.11671 0.04663 0.0
C265 C 0.66307 0.08272 0.06737 0.0
O266 O 0.67396 0.09191 0.08524 0.0
O267 O 0.68373 0.13267 0.0475 0.0
C268 C 0.62466 0.10695 0.05445 0.0
O269 O 0.62179 0.09573 0.07239 0.0
C270 C 0.65606 0.12812 0.1081 0.0
O271 O 0.65247 0.13826 0.09407 0.0
O272 O 0.656 0.08982 0.05463 0.0
C273 C 0.52956 0.68786 0.54587 0.0
O274 O 0.51373 0.67482 0.55222 0.0
O275 O 0.53649 0.66536 0.60297 0.0
Zn276 Zn 0.53925 0.66393 0.56667 0.0
O277 O 0.5171 0.64304 0.55299 0.0
C278 C 0.5732 0.66619 0.57479 0.0
O279 O 0.57397 0.67631 0.5932 0.0
O280 O 0.54319 0.6864 0.55034 0.0
C281 C 0.51045 0.62771 0.56276 0.0
O282 O 0.51832 0.62556 0.58196 0.0
C283 C 0.5217 0.66125 0.61308 0.0
O284 O 0.50748 0.65621 0.59942 0.0
O285 O 0.55982 0.6599 0.56053 0.0
C286 C 0.84039 0.54813 0.0537 0.0
O287 O 0.84102 0.54666 0.07752 0.0
O288 O 0.86526 0.53512 0.09015 0.0
Zn289 Zn 0.86865 0.53946 0.05397 0.0
O290 O 0.866 0.51771 0.03688 0.0
C291 C 0.89899 0.57453 0.05909 0.0
O292 O 0.88781 0.577 0.07249 0.0
O293 O 0.85099 0.54575 0.04025 0.0
C294 C 0.85695 0.5021 0.04574 0.0
O295 O 0.84873 0.49988 0.06674 0.0
C296 C 0.87684 0.53338 0.10221 0.0
O297 O 0.89041 0.53397 0.09057 0.0
O298 O 0.89353 0.55957 0.04865 0.0
C299 C 0.28464 0.84054 0.56358 0.0
O300 O 0.28456 0.84483 0.58659 0.0
O301 O 0.32194 0.8626 0.60332 0.0
Zn302 Zn 0.32252 0.86554 0.56688 0.0
O303 O 0.34221 0.86259 0.55241 0.0
C304 C 0.31954 0.89711 0.5707 0.0
O305 O 0.3076 0.88769 0.58741 0.0
O306 O 0.29926 0.8477 0.55184 0.0
C307 C 0.35832 0.87388 0.5575 0.0
O308 O 0.36167 0.88701 0.57259 0.0
C309 C 0.32475 0.85111 0.61375 0.0
O310 O 0.32808 0.84051 0.60034 0.0
O311 O 0.32739 0.89019 0.55932 0.0
H312 H 0.36737 0.45905 0.14447 0.0
H313 H 0.36845 0.46236 0.18898 0.0
H314 H 0.31557 0.45557 0.18849 0.0
H315 H 0.31426 0.45207 0.1441 0.0
H316 H 0.36449 0.4875 0.21807 0.0
H317 H 0.3119 0.41764 0.23734 0.0
H318 H 0.32285 0.42456 0.20805 0.0
H319 H 0.30545 0.42922 0.21609 0.0
C320 C 0.35596 0.45825 0.15382 0.0
C321 C 0.34068 0.45517 0.14077 0.0
C322 C 0.35663 0.46017 0.17923 0.0
C323 C 0.342 0.45895 0.19198 0.0
C324 C 0.32687 0.45623 0.17899 0.0
H325 H 0.31694 0.46208 0.34427 0.0
H326 H 0.31744 0.46186 0.2996 0.0
C327 C 0.32618 0.4543 0.15362 0.0
C328 C 0.34252 0.46049 0.21891 0.0
H329 H 0.32201 0.43764 0.27088 0.0
C330 C 0.35527 0.4766 0.22968 0.0
C331 C 0.33046 0.44622 0.2339 0.0
C332 C 0.31698 0.42837 0.22334 0.0
C333 C 0.35605 0.47894 0.25513 0.0
C334 C 0.34392 0.46468 0.27009 0.0
C335 C 0.33122 0.44856 0.2593 0.0
C336 C 0.34422 0.46605 0.29705 0.0
C337 C 0.36957 0.49673 0.26575 0.0
C338 C 0.35913 0.4685 0.31036 0.0
C339 C 0.3589 0.46864 0.33589 0.0
C340 C 0.3437 0.46622 0.34853 0.0
C341 C 0.32886 0.464 0.3351 0.0
C342 C 0.32911 0.46386 0.30959 0.0
H343 H 0.37469 0.50749 0.25178 0.0
H344 H 0.36372 0.50053 0.28108 0.0
H345 H 0.38106 0.4958 0.27296 0.0
H346 H 0.37079 0.46987 0.30101 0.0
H347 H 0.37052 0.47031 0.34569 0.0
H348 H 0.83825 0.31792 0.64112 0.0
H349 H 0.83238 0.3147 0.6851 0.0
H350 H 0.88744 0.35369 0.69919 0.0
H351 H 0.89336 0.35727 0.65531 0.0
H352 H 0.84733 0.30357 0.71972 0.0
H353 H 0.86145 0.37196 0.74125 0.0
H354 H 0.85836 0.3636 0.71036 0.0
H355 H 0.87953 0.37181 0.72544 0.0
C356 C 0.84908 0.32593 0.65357 0.0
C357 C 0.86626 0.33792 0.64472 0.0
C358 C 0.84569 0.32406 0.67868 0.0
C359 C 0.85939 0.33417 0.69538 0.0
C360 C 0.87656 0.34609 0.6866 0.0
H361 H 0.87982 0.33741 0.84804 0.0
H362 H 0.88002 0.34024 0.80366 0.0
C363 C 0.87995 0.34804 0.66151 0.0
C364 C 0.856 0.3316 0.72201 0.0
H365 H 0.86043 0.35401 0.77527 0.0
C366 C 0.84994 0.31453 0.73185 0.0
C367 C 0.85936 0.34592 0.73775 0.0
C368 C 0.86486 0.36431 0.72815 0.0
C369 C 0.84789 0.31157 0.75716 0.0
C370 C 0.85188 0.32603 0.77291 0.0
C371 C 0.85746 0.34298 0.76306 0.0
C372 C 0.85139 0.32409 0.79975 0.0
C373 C 0.84214 0.29319 0.76701 0.0
C374 C 0.83516 0.31412 0.8122 0.0
C375 C 0.83497 0.31249 0.83766 0.0
C376 C 0.85102 0.32079 0.85098 0.0
C377 C 0.86722 0.33078 0.83835 0.0
C378 C 0.86738 0.33246 0.81299 0.0
H379 H 0.84207 0.28407 0.75264 0.0
H380 H 0.85113 0.29397 0.78204 0.0
H381 H 0.82846 0.28732 0.77461 0.0
H382 H 0.82268 0.30772 0.80223 0.0
H383 H 0.82228 0.30475 0.84686 0.0
H384 H 0.48395 0.83882 0.34407 0.0
H385 H 0.48215 0.83571 0.29952 0.0
H386 H 0.53928 0.86931 0.29447 0.0
H387 H 0.54127 0.87226 0.33889 0.0
H388 H 0.49261 0.86182 0.26399 0.0
H389 H 0.53023 0.82579 0.25477 0.0
H390 H 0.52174 0.82833 0.28372 0.0
H391 H 0.5422 0.84626 0.27156 0.0
C392 C 0.49614 0.84549 0.33348 0.0
C393 C 0.51277 0.85569 0.34503 0.0
C394 C 0.49508 0.8437 0.30805 0.0
C395 C 0.51061 0.85201 0.29376 0.0
C396 C 0.52718 0.86243 0.30521 0.0
H397 H 0.54006 0.87038 0.14287 0.0
H398 H 0.53796 0.86951 0.18741 0.0
C399 C 0.52827 0.86418 0.3306 0.0
C400 C 0.50953 0.85024 0.26682 0.0
H401 H 0.52562 0.83795 0.21809 0.0
C402 C 0.49964 0.85642 0.25394 0.0
C403 C 0.51867 0.8431 0.2538 0.0
C404 C 0.52866 0.83532 0.26667 0.0
C405 C 0.49924 0.85629 0.22828 0.0
C406 C 0.50883 0.84967 0.21531 0.0
C407 C 0.51836 0.84311 0.22817 0.0
C408 C 0.50977 0.85011 0.18833 0.0
C409 C 0.48909 0.86381 0.21521 0.0
C410 C 0.4946 0.83936 0.17417 0.0
C411 C 0.49575 0.83977 0.14866 0.0
C412 C 0.51209 0.85096 0.13695 0.0
C413 C 0.52725 0.86166 0.15128 0.0
C414 C 0.5261 0.86117 0.17673 0.0
H415 H 0.48499 0.87119 0.22778 0.0
H416 H 0.4973 0.87292 0.20028 0.0
H417 H 0.47689 0.85272 0.20685 0.0
H418 H 0.48193 0.83056 0.18286 0.0
H419 H 0.48384 0.83135 0.13814 0.0
H420 H 0.66521 0.52492 0.86325 0.0
H421 H 0.66807 0.52169 0.81926 0.0
H422 H 0.63977 0.54991 0.80446 0.0
H423 H 0.63692 0.55331 0.84827 0.0
H424 H 0.64033 0.5052 0.78376 0.0
H425 H 0.6862 0.57689 0.76405 0.0
H426 H 0.68248 0.56778 0.79459 0.0
H427 H 0.66651 0.57256 0.78065 0.0
C428 C 0.65963 0.53048 0.85063 0.0
C429 C 0.6509 0.53944 0.85924 0.0
C430 C 0.66126 0.5286 0.82554 0.0
C431 C 0.65435 0.53578 0.80869 0.0
C432 C 0.64547 0.54456 0.81721 0.0
H433 H 0.62527 0.51528 0.65803 0.0
H434 H 0.62672 0.5159 0.70261 0.0
C435 C 0.64378 0.5464 0.84226 0.0
C436 C 0.65607 0.53387 0.78215 0.0
H437 H 0.67236 0.55796 0.72969 0.0
C438 C 0.64747 0.5167 0.77192 0.0
C439 C 0.66563 0.5489 0.76687 0.0
C440 C 0.67589 0.56757 0.77708 0.0
C441 C 0.64757 0.51421 0.74658 0.0
C442 C 0.65632 0.5293 0.73119 0.0
C443 C 0.66553 0.54642 0.74154 0.0
C444 C 0.65543 0.52776 0.70425 0.0
C445 C 0.63826 0.49547 0.73651 0.0
C446 C 0.67112 0.53441 0.6904 0.0
C447 C 0.67035 0.53416 0.66488 0.0
C448 C 0.65387 0.5274 0.6528 0.0
C449 C 0.63816 0.52054 0.66676 0.0
C450 C 0.63895 0.52076 0.69225 0.0
H451 H 0.6368 0.48559 0.75062 0.0
H452 H 0.6247 0.492 0.73025 0.0
H453 H 0.64564 0.49431 0.72066 0.0
H454 H 0.68397 0.53998 0.69936 0.0
H455 H 0.6827 0.53957 0.65466 0.0
H456 H 0.11127 0.61657 0.34873 0.0
H457 H 0.11508 0.61804 0.30435 0.0
H458 H 0.14306 0.67554 0.30764 0.0
H459 H 0.13958 0.67423 0.35202 0.0
H460 H 0.10169 0.63275 0.27261 0.0
H461 H 0.1752 0.6661 0.26318 0.0
H462 H 0.16383 0.65625 0.29153 0.0
H463 H 0.16803 0.67803 0.28263 0.0
C464 C 0.11845 0.62954 0.34006 0.0
C465 C 0.12511 0.64529 0.3539 0.0
C466 C 0.12062 0.63034 0.3147 0.0
C467 C 0.12954 0.64689 0.30274 0.0
C468 C 0.13648 0.66263 0.31655 0.0
H469 H 0.11662 0.67207 0.155 0.0
H470 H 0.117 0.66843 0.19922 0.0
C471 C 0.13436 0.66185 0.34191 0.0
C472 C 0.13033 0.64768 0.27571 0.0
H473 H 0.15887 0.6652 0.22733 0.0
C474 C 0.1142 0.6397 0.26269 0.0
C475 C 0.14667 0.65658 0.26281 0.0
C476 C 0.16443 0.66458 0.27573 0.0
C477 C 0.11393 0.64086 0.23716 0.0
C478 C 0.13022 0.65052 0.22437 0.0
C479 C 0.1464 0.65799 0.23726 0.0
C480 C 0.13066 0.65325 0.19764 0.0
C481 C 0.09619 0.6317 0.22409 0.0
C482 C 0.13869 0.64636 0.18219 0.0
C483 C 0.13857 0.64847 0.15686 0.0
C484 C 0.13049 0.65761 0.14662 0.0
C485 C 0.12284 0.66486 0.16226 0.0
C486 C 0.12298 0.66273 0.18753 0.0
H487 H 0.08559 0.62109 0.23553 0.0
H488 H 0.09208 0.64167 0.21984 0.0
H489 H 0.09715 0.62569 0.20663 0.0
H490 H 0.14478 0.63909 0.1897 0.0
H491 H 0.14463 0.64279 0.14533 0.0
H492 H 0.44997 0.07986 0.84273 0.0
H493 H 0.45166 0.08099 0.79812 0.0
H494 H 0.45804 0.13371 0.79916 0.0
H495 H 0.45663 0.13284 0.84382 0.0
H496 H 0.42912 0.08504 0.76599 0.0
H497 H 0.49901 0.14013 0.75514 0.0
H498 H 0.49041 0.12863 0.78378 0.0
H499 H 0.48545 0.14554 0.77412 0.0
C500 C 0.45186 0.09176 0.8335 0.0
C501 C 0.45323 0.10629 0.84683 0.0
C502 C 0.45281 0.09237 0.80801 0.0
C503 C 0.45523 0.10752 0.79539 0.0
C504 C 0.45656 0.12204 0.8086 0.0
H505 H 0.45614 0.13318 0.64204 0.0
H506 H 0.45671 0.13324 0.68677 0.0
C507 C 0.45564 0.12147 0.83411 0.0
C508 C 0.45561 0.10781 0.76835 0.0
H509 H 0.48134 0.13022 0.71911 0.0
C510 C 0.44056 0.09485 0.75572 0.0
C511 C 0.47055 0.12067 0.75506 0.0
C512 C 0.48735 0.13444 0.76767 0.0
C513 C 0.43995 0.09456 0.73011 0.0
C514 C 0.45488 0.10741 0.71683 0.0
C515 C 0.46992 0.1204 0.72942 0.0
C516 C 0.45511 0.10756 0.68982 0.0
C517 C 0.42321 0.08072 0.71746 0.0
C518 C 0.45436 0.09323 0.67681 0.0
C519 C 0.45405 0.09314 0.65129 0.0
C520 C 0.45454 0.10742 0.63834 0.0
C521 C 0.45568 0.12194 0.65146 0.0
C522 C 0.45603 0.12203 0.677 0.0
H523 H 0.41161 0.0746 0.7301 0.0
H524 H 0.41988 0.08665 0.70174 0.0
H525 H 0.42538 0.06993 0.71035 0.0
H526 H 0.45394 0.08208 0.68642 0.0
H527 H 0.45325 0.0818 0.64174 0.0
H528 H 0.54846 0.67051 0.64634 0.0
H529 H 0.54592 0.66851 0.69083 0.0
H530 H 0.48949 0.64939 0.68544 0.0
H531 H 0.49188 0.6515 0.64082 0.0
H532 H 0.50748 0.67584 0.72218 0.0
H533 H 0.52243 0.62056 0.72799 0.0
H534 H 0.53874 0.63975 0.71144 0.0
H535 H 0.51642 0.62694 0.69968 0.0
C536 C 0.53551 0.66595 0.65457 0.0
C537 C 0.52034 0.66103 0.64003 0.0
C538 C 0.53408 0.66474 0.68 0.0
C539 C 0.51747 0.65852 0.69133 0.0
C540 C 0.5024 0.65412 0.67696 0.0
H541 H 0.49446 0.62156 0.84162 0.0
H542 H 0.49349 0.62445 0.79728 0.0
C543 C 0.5038 0.65533 0.6515 0.0
C544 C 0.51583 0.65634 0.71816 0.0
H545 H 0.52177 0.63411 0.76542 0.0
C546 C 0.51051 0.66667 0.73168 0.0
C547 C 0.51955 0.64416 0.73038 0.0
C548 C 0.52444 0.63208 0.71665 0.0
C549 C 0.50926 0.66547 0.75727 0.0
C550 C 0.51366 0.6538 0.76954 0.0
C551 C 0.51854 0.64316 0.75595 0.0
C552 C 0.51348 0.65247 0.7965 0.0
C553 C 0.5031 0.67657 0.77092 0.0
C554 C 0.52506 0.66729 0.81071 0.0
C555 C 0.52566 0.6657 0.83606 0.0
C556 C 0.51475 0.64922 0.84761 0.0
C557 C 0.50304 0.63445 0.83331 0.0
C558 C 0.50245 0.63606 0.80798 0.0
H559 H 0.4958 0.68105 0.75879 0.0
H560 H 0.4943 0.66898 0.78645 0.0
H561 H 0.5149 0.68862 0.77838 0.0
H562 H 0.53394 0.67999 0.80214 0.0
H563 H 0.53488 0.67731 0.84653 0.0
H564 H 0.90129 0.53327 0.33275 0.0
H565 H 0.89955 0.53158 0.28815 0.0
H566 H 0.85014 0.53239 0.29036 0.0
H567 H 0.85184 0.5343 0.33498 0.0
H568 H 0.87235 0.50576 0.2579 0.0
H569 H 0.88165 0.57351 0.24366 0.0
H570 H 0.88652 0.56658 0.27237 0.0
H571 H 0.86384 0.5595 0.26409 0.0
C572 C 0.89004 0.5331 0.32378 0.0
C573 C 0.87675 0.53404 0.3374 0.0
C574 C 0.88907 0.5321 0.2983 0.0
C575 C 0.87486 0.53211 0.286 0.0
C576 C 0.86139 0.5327 0.29953 0.0
H577 H 0.85094 0.53247 0.13183 0.0
H578 H 0.84955 0.5308 0.17647 0.0
C579 C 0.86235 0.53371 0.32501 0.0
C580 C 0.87417 0.5315 0.25899 0.0
H581 H 0.87521 0.55528 0.20865 0.0
C582 C 0.87298 0.51658 0.24709 0.0
C583 C 0.87499 0.54564 0.24503 0.0
C584 C 0.87697 0.5623 0.25686 0.0
C585 C 0.87243 0.51534 0.2215 0.0
C586 C 0.87338 0.52954 0.20754 0.0
C587 C 0.87443 0.5444 0.21945 0.0
C588 C 0.87375 0.52951 0.18051 0.0
C589 C 0.87059 0.49875 0.20964 0.0
C590 C 0.88785 0.52938 0.16805 0.0
C591 C 0.88869 0.53032 0.14256 0.0
C592 C 0.87549 0.53153 0.1291 0.0
C593 C 0.8613 0.53152 0.14165 0.0
C594 C 0.86048 0.53058 0.16715 0.0
H595 H 0.86525 0.48734 0.2226 0.0
H596 H 0.86168 0.49485 0.19345 0.0
H597 H 0.88392 0.50143 0.20345 0.0
H598 H 0.89842 0.52893 0.17807 0.0
H599 H 0.89984 0.53038 0.13346 0.0
H600 H 0.31735 0.87047 0.64625 0.0
H601 H 0.31765 0.8692 0.69082 0.0
H602 H 0.33175 0.82798 0.68708 0.0
H603 H 0.33163 0.82923 0.64234 0.0
H604 H 0.2972 0.83922 0.72181 0.0
H605 H 0.37033 0.86649 0.73196 0.0
H606 H 0.36046 0.86853 0.70395 0.0
H607 H 0.35883 0.84764 0.7119 0.0
C608 C 0.32054 0.86113 0.65486 0.0
C609 C 0.32456 0.85001 0.64074 0.0
C610 C 0.32067 0.86041 0.68033 0.0
C611 C 0.32493 0.84866 0.69218 0.0
C612 C 0.32871 0.83735 0.67822 0.0
H613 H 0.33701 0.83688 0.84868 0.0
H614 H 0.33507 0.83281 0.80427 0.0
C615 C 0.32855 0.83803 0.65268 0.0
C616 C 0.32529 0.8483 0.7192 0.0
H617 H 0.35322 0.85839 0.7681 0.0
C618 C 0.30942 0.84334 0.73197 0.0
C619 C 0.34125 0.8536 0.73231 0.0
C620 C 0.35875 0.85951 0.71942 0.0
C621 C 0.30911 0.84367 0.75758 0.0
C622 C 0.32517 0.84946 0.7707 0.0
C623 C 0.34095 0.85399 0.75795 0.0
C624 C 0.32602 0.85165 0.79758 0.0
C625 C 0.29158 0.83776 0.77038 0.0
C626 C 0.32181 0.86377 0.80844 0.0
C627 C 0.32288 0.86612 0.83375 0.0
C628 C 0.32833 0.85648 0.84868 0.0
C629 C 0.33272 0.84447 0.83771 0.0
C630 C 0.33163 0.84212 0.81236 0.0
H631 H 0.28005 0.82897 0.75853 0.0
H632 H 0.29065 0.83052 0.78757 0.0
H633 H 0.2905 0.84967 0.77505 0.0
H634 H 0.31785 0.87155 0.7973 0.0
H635 H 0.31951 0.87556 0.84158 0.0
H636 H 0.47974 0.36831 0.35425 0.0
H637 H 0.48187 0.36534 0.31008 0.0
H638 H 0.45112 0.30806 0.3166 0.0
H639 H 0.44887 0.31084 0.36081 0.0
H640 H 0.49559 0.34463 0.28394 0.0
H641 H 0.42415 0.32223 0.26539 0.0
H642 H 0.43517 0.33354 0.29328 0.0
H643 H 0.42866 0.31052 0.28896 0.0
C644 C 0.47344 0.35507 0.34632 0.0
C645 C 0.46405 0.33981 0.36101 0.0
C646 C 0.47472 0.35341 0.32112 0.0
C647 C 0.46652 0.3365 0.31017 0.0
C648 C 0.45738 0.32123 0.32476 0.0
H649 H 0.45128 0.30614 0.15658 0.0
H650 H 0.45169 0.3055 0.20126 0.0
C651 C 0.45615 0.32286 0.35 0.0
C652 C 0.46732 0.33491 0.28339 0.0
H653 H 0.44185 0.32373 0.23181 0.0
C654 C 0.48386 0.34002 0.27248 0.0
C655 C 0.45196 0.3288 0.26865 0.0
C656 C 0.43396 0.32355 0.27953 0.0
C657 C 0.48544 0.33917 0.24706 0.0
C658 C 0.47013 0.33345 0.23222 0.0
C659 C 0.45355 0.32808 0.24323 0.0
C660 C 0.47105 0.33357 0.20518 0.0
C661 C 0.50343 0.3442 0.23638 0.0
C662 C 0.48183 0.34955 0.19259 0.0
C663 C 0.48171 0.34995 0.16708 0.0
C664 C 0.47061 0.3344 0.15369 0.0
C665 C 0.45998 0.31835 0.16635 0.0
C666 C 0.46019 0.31795 0.19187 0.0
H667 H 0.51214 0.34279 0.25007 0.0
H668 H 0.50209 0.33584 0.22023 0.0
H669 H 0.51018 0.35836 0.23051 0.0
H670 H 0.48997 0.36185 0.20249 0.0
H671 H 0.48996 0.36255 0.1579 0.0
H672 H 0.12058 0.4442 0.65563 0.0
H673 H 0.125 0.44838 0.69971 0.0
H674 H 0.16787 0.50227 0.68834 0.0
H675 H 0.16339 0.49833 0.64408 0.0
H676 H 0.15542 0.45771 0.7284 0.0
H677 H 0.13389 0.5084 0.73458 0.0
H678 H 0.12991 0.49474 0.70779 0.0
H679 H 0.15175 0.51338 0.71358 0.0
C680 C 0.13101 0.45695 0.66244 0.0
C681 C 0.14155 0.47099 0.64634 0.0
C682 C 0.13352 0.45929 0.68765 0.0
C683 C 0.14658 0.4757 0.69726 0.0
C684 C 0.15749 0.4896 0.68127 0.0
H685 H 0.1651 0.50711 0.85167 0.0
H686 H 0.16861 0.50707 0.80722 0.0
C687 C 0.15497 0.48729 0.656 0.0
C688 C 0.14842 0.47819 0.72407 0.0
H689 H 0.14235 0.50044 0.77126 0.0
C690 C 0.15269 0.46713 0.73779 0.0
C691 C 0.1449 0.49055 0.7362 0.0
C692 C 0.13972 0.50238 0.72238 0.0
C693 C 0.15323 0.46788 0.7634 0.0
C694 C 0.14914 0.47982 0.77554 0.0
C695 C 0.14547 0.49131 0.76183 0.0
C696 C 0.14744 0.47976 0.80244 0.0
C697 C 0.15808 0.45583 0.77725 0.0
C698 C 0.13422 0.4645 0.81433 0.0
C699 C 0.13213 0.46448 0.83962 0.0
C700 C 0.1432 0.47978 0.8535 0.0
C701 C 0.1564 0.4951 0.84151 0.0
C702 C 0.15844 0.49511 0.81614 0.0
H703 H 0.16569 0.4514 0.76564 0.0
H704 H 0.16615 0.46262 0.79371 0.0
H705 H 0.14568 0.44376 0.78331 0.0
H706 H 0.12536 0.45265 0.80399 0.0
H707 H 0.12179 0.45248 0.84825 0.0
H708 H 0.66489 0.11467 0.33831 0.0
H709 H 0.66457 0.11545 0.29367 0.0
H710 H 0.64071 0.14885 0.2961 0.0
H711 H 0.64099 0.14821 0.34085 0.0
H712 H 0.63307 0.10438 0.26317 0.0
H713 H 0.68521 0.17557 0.25032 0.0
H714 H 0.68296 0.16364 0.2784 0.0
H715 H 0.66747 0.17108 0.27139 0.0
C716 C 0.65964 0.12225 0.3294 0.0
C717 C 0.653 0.13142 0.34313 0.0
C718 C 0.65945 0.12266 0.3039 0.0
C719 C 0.65278 0.13234 0.29169 0.0
C720 C 0.64613 0.1415 0.30526 0.0
H721 H 0.64639 0.14855 0.13521 0.0
H722 H 0.64461 0.14957 0.17982 0.0
C723 C 0.64624 0.14105 0.3308 0.0
C724 C 0.65241 0.13241 0.2647 0.0
H725 H 0.67129 0.15895 0.2148 0.0
C726 C 0.64138 0.1163 0.25255 0.0
C727 C 0.66318 0.14804 0.25103 0.0
C728 C 0.67549 0.16558 0.26334 0.0
C729 C 0.6409 0.11536 0.22696 0.0
C730 C 0.65206 0.13087 0.21325 0.0
C731 C 0.6628 0.14708 0.2254 0.0
C732 C 0.65323 0.13036 0.18631 0.0
C733 C 0.62833 0.09779 0.21486 0.0
C734 C 0.65897 0.11947 0.17526 0.0
C735 C 0.65995 0.11881 0.14986 0.0
C736 C 0.65536 0.12918 0.13501 0.0
C737 C 0.64996 0.14036 0.14614 0.0
C738 C 0.64894 0.14097 0.1716 0.0
H739 H 0.61722 0.08891 0.22724 0.0
H740 H 0.62259 0.09985 0.19785 0.0
H741 H 0.63577 0.09085 0.21002 0.0
H742 H 0.66274 0.1115 0.18632 0.0
H743 H 0.6643 0.11017 0.14189 0.0
H744 H 0.18801 0.50017 0.97506 0.0
H745 H 0.21139 0.49617 0.99403 0.0
H746 H 0.18308 0.44049 0.97418 0.0
H747 H 0.15965 0.44431 0.95509 0.0
H748 H 0.2069 0.47076 0.03262 0.0
H749 H 0.23458 0.46075 0.9461 0.0
H750 H 0.22073 0.47091 0.94689 0.0
H751 H 0.21084 0.44717 0.95002 0.0
C752 C 0.18676 0.48708 0.97468 0.0
C753 C 0.17202 0.47257 0.96348 0.0
C754 C 0.2001 0.48483 0.98556 0.0
C755 C 0.19898 0.4681 0.98523 0.0
C756 C 0.18424 0.45355 0.9743 0.0
H757 H 0.27097 0.43181 0.03414 0.0
H758 H 0.24555 0.43359 0.01795 0.0
C759 C 0.17086 0.45576 0.96349 0.0
C760 C 0.21323 0.46585 0.99644 0.0
H761 H 0.24661 0.45714 0.98295 0.0
C762 C 0.21562 0.4678 0.02183 0.0
C763 C 0.22445 0.46191 0.9822 0.0
C764 C 0.22269 0.46018 0.95476 0.0
C765 C 0.22892 0.46575 0.03347 0.0
C766 C 0.24031 0.46203 0.0192 0.0
C767 C 0.23781 0.45995 0.99381 0.0
C768 C 0.25523 0.4607 0.0301 0.0
C769 C 0.23049 0.4673 0.06094 0.0
C770 C 0.26909 0.4754 0.04216 0.0
C771 C 0.28359 0.47442 0.05148 0.0
C772 C 0.28455 0.45877 0.04867 0.0
C773 C 0.27061 0.44405 0.03661 0.0
C774 C 0.25609 0.44503 0.02735 0.0
H775 H 0.21789 0.46506 0.06951 0.0
H776 H 0.23399 0.45759 0.06872 0.0
H777 H 0.24118 0.48094 0.06591 0.0
H778 H 0.26887 0.48775 0.04396 0.0
H779 H 0.29416 0.48603 0.06055 0.0
H780 H 0.71365 0.15438 0.45406 0.0
H781 H 0.7411 0.17903 0.47107 0.0
H782 H 0.72937 0.21688 0.4368 0.0
H783 H 0.70185 0.1924 0.41991 0.0
H784 H 0.77073 0.20793 0.44689 0.0
H785 H 0.73584 0.23078 0.50988 0.0
H786 H 0.72469 0.2092 0.4952 0.0
H787 H 0.72905 0.22885 0.47848 0.0
C788 C 0.71691 0.16795 0.45012 0.0
C789 C 0.7055 0.17145 0.43581 0.0
C790 C 0.73261 0.18199 0.4598 0.0
C791 C 0.73708 0.19972 0.45544 0.0
C792 C 0.72596 0.20326 0.44069 0.0
H793 H 0.83663 0.29793 0.48011 0.0
H794 H 0.81132 0.27147 0.46218 0.0
C795 C 0.71028 0.18925 0.43101 0.0
C796 C 0.75326 0.21454 0.46658 0.0
H797 H 0.76717 0.24945 0.50616 0.0
C798 C 0.77001 0.217 0.45992 0.0
C799 C 0.75217 0.22615 0.48379 0.0
C800 C 0.73448 0.22357 0.49248 0.0
C801 C 0.78579 0.23106 0.46971 0.0
C802 C 0.7847 0.24301 0.48631 0.0
C803 C 0.76793 0.24033 0.49328 0.0
C804 C 0.80075 0.25839 0.49687 0.0
C805 C 0.80345 0.23288 0.46247 0.0
C806 C 0.80308 0.25984 0.52229 0.0
C807 C 0.81741 0.27497 0.53259 0.0
C808 C 0.82965 0.28898 0.51763 0.0
C809 C 0.82747 0.28734 0.49212 0.0
C810 C 0.81308 0.27219 0.48183 0.0
H811 H 0.80178 0.22025 0.45476 0.0
H812 H 0.80977 0.24339 0.44828 0.0
H813 H 0.81264 0.23684 0.47836 0.0
H814 H 0.79365 0.24934 0.53419 0.0
H815 H 0.81872 0.27578 0.5523 0.0
H816 H 0.52542 0.81687 0.02368 0.0
H817 H 0.52529 0.78984 0.01048 0.0
H818 H 0.55827 0.79394 0.07201 0.0
H819 H 0.55854 0.8211 0.08545 0.0
H820 H 0.56932 0.78713 0.02486 0.0
H821 H 0.4979 0.74058 0.04574 0.0
H822 H 0.50199 0.75968 0.02784 0.0
H823 H 0.51019 0.76272 0.05866 0.0
C824 C 0.53267 0.81206 0.03444 0.0
C825 C 0.54193 0.82108 0.05569 0.0
C826 C 0.5325 0.79657 0.02692 0.0
C827 C 0.54155 0.78982 0.04049 0.0
C828 C 0.55111 0.79893 0.06142 0.0
H829 H 0.52801 0.68424 0.01227 0.0
H830 H 0.53155 0.71086 0.03316 0.0
C831 C 0.55123 0.81442 0.06905 0.0
C832 C 0.54114 0.77332 0.0325 0.0
H833 H 0.51268 0.72919 0.02108 0.0
C834 C 0.557 0.77441 0.02425 0.0
C835 C 0.52506 0.75675 0.03207 0.0
C836 C 0.50783 0.75474 0.04175 0.0
C837 C 0.55704 0.75942 0.01455 0.0
C838 C 0.54079 0.74307 0.01296 0.0
C839 C 0.52508 0.74181 0.02218 0.0
C840 C 0.5396 0.72731 0.00068 0.0
C841 C 0.57441 0.76121 0.00588 0.0
C842 C 0.54285 0.72779 0.97552 0.0
C843 C 0.54074 0.71262 0.96351 0.0
C844 C 0.53534 0.6967 0.97649 0.0
C845 C 0.53223 0.69631 0.00177 0.0
C846 C 0.53424 0.71148 0.01374 0.0
H847 H 0.5861 0.77304 0.01404 0.0
H848 H 0.57516 0.74909 0.01046 0.0
H849 H 0.5753 0.76282 0.98572 0.0
H850 H 0.54669 0.73981 0.96507 0.0
H851 H 0.54323 0.71336 0.94403 0.0
H852 H 0.7016 0.50309 0.55556 0.0
H853 H 0.72694 0.50585 0.53218 0.0
H854 H 0.74021 0.55884 0.50962 0.0
H855 H 0.7148 0.55617 0.53277 0.0
H856 H 0.73936 0.53662 0.47115 0.0
H857 H 0.78029 0.53673 0.54937 0.0
H858 H 0.75774 0.51841 0.5494 0.0
H859 H 0.76189 0.54082 0.55299 0.0
C860 C 0.70995 0.51537 0.54575 0.0
C861 C 0.70622 0.52943 0.54608 0.0
C862 C 0.72447 0.51695 0.5325 0.0
C863 C 0.73553 0.53263 0.51947 0.0
C864 C 0.73184 0.54667 0.51968 0.0
H865 H 0.83754 0.55807 0.45546 0.0
H866 H 0.81366 0.55937 0.47755 0.0
C867 C 0.71734 0.54512 0.53295 0.0
C868 C 0.75065 0.53415 0.50501 0.0
H869 H 0.78954 0.53333 0.50974 0.0
C870 C 0.75041 0.53602 0.47956 0.0
C871 C 0.7651 0.53358 0.51612 0.0
C872 C 0.76643 0.53244 0.5435 0.0
C873 C 0.76406 0.53685 0.4648 0.0
C874 C 0.77814 0.53556 0.47584 0.0
C875 C 0.77862 0.53417 0.50135 0.0
C876 C 0.7924 0.53532 0.46128 0.0
C877 C 0.76336 0.5392 0.43758 0.0
C878 C 0.78831 0.52136 0.44482 0.0
C879 C 0.8019 0.52056 0.43215 0.0
C880 C 0.81984 0.53367 0.43587 0.0
C881 C 0.82386 0.54777 0.45216 0.0
C882 C 0.81025 0.54854 0.46482 0.0
H883 H 0.75451 0.54464 0.43285 0.0
H884 H 0.77688 0.54825 0.43013 0.0
H885 H 0.75801 0.52604 0.42849 0.0
H886 H 0.77462 0.51086 0.44218 0.0
H887 H 0.79837 0.5095 0.4198 0.0
H888 H 0.29122 0.80542 0.9498 0.0
H889 H 0.26457 0.78298 0.97107 0.0
H890 H 0.24709 0.82131 0.98107 0.0
H891 H 0.2738 0.84395 0.95989 0.0
H892 H 0.24605 0.80204 0.02409 0.0
H893 H 0.21267 0.75737 0.94508 0.0
H894 H 0.23552 0.76308 0.94929 0.0
H895 H 0.23038 0.78021 0.94154 0.0
C896 C 0.28168 0.80908 0.9564 0.0
C897 C 0.2846 0.82645 0.95311 0.0
C898 C 0.26643 0.79621 0.96843 0.0
C899 C 0.25381 0.80047 0.97733 0.0
C900 C 0.25667 0.81779 0.97418 0.0
H901 H 0.15013 0.71927 0.03265 0.0
H902 H 0.17375 0.74538 0.01169 0.0
C903 C 0.27191 0.83067 0.96206 0.0
C904 C 0.23794 0.78693 0.99062 0.0
H905 H 0.20128 0.74557 0.98461 0.0
C906 C 0.23614 0.78976 0.01545 0.0
C907 C 0.22497 0.77107 0.97916 0.0
C908 C 0.22583 0.76776 0.95224 0.0
C909 C 0.22201 0.77677 0.02941 0.0
C910 C 0.20954 0.76053 0.01821 0.0
C911 C 0.21097 0.758 0.99316 0.0
C912 C 0.19525 0.74569 0.03227 0.0
C913 C 0.22057 0.7805 0.05599 0.0
C914 C 0.19957 0.73729 0.05079 0.0
C915 C 0.18614 0.72236 0.06278 0.0
C916 C 0.16815 0.71553 0.05633 0.0
C917 C 0.16386 0.7242 0.03805 0.0
C918 C 0.17731 0.73911 0.02605 0.0
H919 H 0.22799 0.79504 0.05998 0.0
H920 H 0.20641 0.775 0.06145 0.0
H921 H 0.22635 0.77404 0.0674 0.0
H922 H 0.21338 0.74198 0.05551 0.0
H923 H 0.18989 0.71597 0.07672 0.0
H924 H 0.42504 0.14746 0.53361 0.0
H925 H 0.41944 0.17001 0.51539 0.0
H926 H 0.47511 0.20942 0.52314 0.0
H927 H 0.48092 0.18697 0.54126 0.0
H928 H 0.42628 0.20342 0.53549 0.0
H929 H 0.46395 0.21126 0.44979 0.0
H930 H 0.45698 0.19245 0.47005 0.0
H931 H 0.47622 0.21357 0.47735 0.0
C932 C 0.43611 0.16092 0.53144 0.0
C933 C 0.45346 0.16541 0.53874 0.0
C934 C 0.43286 0.17377 0.52107 0.0
C935 C 0.44691 0.19126 0.51766 0.0
C936 C 0.46417 0.19589 0.52529 0.0
H937 H 0.44927 0.28972 0.48925 0.0
H938 H 0.44916 0.26386 0.50728 0.0
C939 C 0.46743 0.18306 0.53572 0.0
C940 C 0.44351 0.20472 0.50618 0.0
H941 H 0.45467 0.2325 0.45701 0.0
C942 C 0.43238 0.20972 0.51826 0.0
C943 C 0.45128 0.21266 0.48353 0.0
C944 C 0.46265 0.20713 0.46926 0.0
C945 C 0.42927 0.22295 0.50862 0.0
C946 C 0.43767 0.23143 0.4865 0.0
C947 C 0.44834 0.22601 0.47405 0.0
C948 C 0.43623 0.24649 0.4764 0.0
C949 C 0.41705 0.22774 0.52213 0.0
C950 C 0.42908 0.24528 0.45302 0.0
C951 C 0.42917 0.26007 0.44259 0.0
C952 C 0.43661 0.27635 0.45532 0.0
C953 C 0.44343 0.27738 0.47897 0.0
C954 C 0.44328 0.26258 0.48938 0.0
H955 H 0.40803 0.21693 0.5348 0.0
H956 H 0.4252 0.23996 0.53312 0.0
H957 H 0.40883 0.2305 0.50919 0.0
H958 H 0.42368 0.23298 0.44269 0.0
H959 H 0.42383 0.25886 0.42434 0.0
H960 H 0.83735 0.55469 0.00564 0.0
H961 H 0.81386 0.55843 0.98668 0.0
H962 H 0.78902 0.5524 0.05708 0.0
H963 H 0.81266 0.54903 0.0763 0.0
H964 H 0.7786 0.53363 0.9863 0.0
H965 H 0.78855 0.59579 0.03 0.0
H966 H 0.80517 0.589 0.03116 0.0
H967 H 0.78634 0.57917 0.05155 0.0
C968 C 0.82701 0.55438 0.01715 0.0
C969 C 0.82685 0.55154 0.04248 0.0
C970 C 0.81362 0.55653 0.00628 0.0
C971 C 0.79984 0.55592 0.02051 0.0
C972 C 0.79976 0.55334 0.04584 0.0
H973 H 0.6973 0.54525 0.98932 0.0
H974 H 0.72409 0.54771 0.00816 0.0
C975 C 0.81322 0.55129 0.05677 0.0
C976 C 0.78483 0.55656 0.00856 0.0
H977 H 0.76123 0.57853 0.00819 0.0
C978 C 0.77491 0.54355 0.9909 0.0
C979 C 0.78003 0.56949 0.0147 0.0
C980 C 0.79068 0.58426 0.03272 0.0
C981 C 0.76008 0.5429 0.97956 0.0
C982 C 0.75517 0.55568 0.9859 0.0
C983 C 0.7651 0.56876 0.00344 0.0
C984 C 0.73951 0.55539 0.97475 0.0
C985 C 0.7495 0.52828 0.9613 0.0
C986 C 0.73952 0.55923 0.94986 0.0
C987 C 0.72427 0.55786 0.93903 0.0
C988 C 0.70877 0.55261 0.95296 0.0
C989 C 0.70899 0.54923 0.97807 0.0
C990 C 0.72428 0.55068 0.98888 0.0
H991 H 0.75302 0.51757 0.96186 0.0
H992 H 0.73496 0.52224 0.96474 0.0
H993 H 0.75226 0.53403 0.94261 0.0
H994 H 0.75126 0.56306 0.93877 0.0
H995 H 0.72456 0.56064 0.91968 0.0
H996 H 0.14493 0.69988 0.48375 0.0
H997 H 0.16524 0.72624 0.50745 0.0
H998 H 0.1928 0.75291 0.44129 0.0
H999 H 0.17223 0.72678 0.41736 0.0
H1000 H 0.20036 0.73963 0.51148 0.0
H1001 H 0.18777 0.7918 0.47422 0.0
H1002 H 0.17294 0.76832 0.46863 0.0
H1003 H 0.19288 0.78064 0.45066 0.0
C1004 C 0.15517 0.71145 0.47419 0.0
C1005 C 0.15701 0.71125 0.44868 0.0
C1006 C 0.16673 0.72651 0.48777 0.0
C1007 C 0.18037 0.74163 0.47612 0.0
C1008 C 0.18208 0.74157 0.4506 0.0
H1009 H 0.27976 0.83156 0.51528 0.0
H1010 H 0.2529 0.80801 0.49569 0.0
C1011 C 0.1704 0.72657 0.43696 0.0
C1012 C 0.19378 0.75677 0.49083 0.0
H1013 H 0.2152 0.80213 0.49654 0.0
C1014 C 0.20339 0.75326 0.5085 0.0
C1015 C 0.1977 0.77454 0.48691 0.0
C1016 C 0.18715 0.77904 0.46924 0.0
C1017 C 0.21732 0.76711 0.52165 0.0
C1018 C 0.22165 0.78489 0.51707 0.0
C1019 C 0.21179 0.78843 0.4999 0.0
C1020 C 0.23719 0.8 0.52882 0.0
C1021 C 0.22779 0.76275 0.53969 0.0
C1022 C 0.23704 0.8034 0.55385 0.0
C1023 C 0.25237 0.81687 0.56515 0.0
C1024 C 0.26806 0.82705 0.55154 0.0
C1025 C 0.26794 0.82387 0.52631 0.0
C1026 C 0.2526 0.8105 0.51505 0.0
H1027 H 0.22419 0.7485 0.53881 0.0
H1028 H 0.24233 0.77121 0.53622 0.0
H1029 H 0.22512 0.76563 0.55849 0.0
H1030 H 0.22518 0.79543 0.56469 0.0
H1031 H 0.25203 0.81904 0.58459 0.0
H1032 H 0.48958 0.18636 0.94193 0.0
H1033 H 0.48862 0.21126 0.9615 0.0
H1034 H 0.43192 0.17806 0.97258 0.0
H1035 H 0.43277 0.15295 0.95344 0.0
H1036 H 0.46944 0.22802 0.94918 0.0
H1037 H 0.45023 0.19685 0.04116 0.0
H1038 H 0.45813 0.18814 0.01728 0.0
H1039 H 0.4355 0.18371 0.01694 0.0
C1040 C 0.47689 0.18433 0.94852 0.0
C1041 C 0.46127 0.16764 0.94633 0.0
C1042 C 0.47638 0.19858 0.95966 0.0
C1043 C 0.46026 0.19639 0.96883 0.0
C1044 C 0.44456 0.17989 0.9661 0.0
H1045 H 0.43533 0.26965 0.04494 0.0
H1046 H 0.43351 0.24418 0.02283 0.0
C1047 C 0.44506 0.1656 0.95504 0.0
C1048 C 0.45997 0.21142 0.98126 0.0
H1049 H 0.4513 0.22452 0.03596 0.0
C1050 C 0.46548 0.22727 0.96815 0.0
C1051 C 0.45479 0.21036 0.00601 0.0
C1052 C 0.44947 0.19392 0.02129 0.0
C1053 C 0.4659 0.24212 0.97914 0.0
C1054 C 0.46085 0.24108 0.00391 0.0
C1055 C 0.45511 0.22518 0.01694 0.0
C1056 C 0.46196 0.25657 0.01688 0.0
C1057 C 0.47159 0.25874 0.96415 0.0
C1058 C 0.47859 0.27181 0.02104 0.0
C1059 C 0.47971 0.28633 0.03373 0.0
C1060 C 0.46418 0.28582 0.04249 0.0
C1061 C 0.44753 0.27047 0.03837 0.0
C1062 C 0.44645 0.25591 0.02576 0.0
H1063 H 0.47095 0.256 0.94423 0.0
H1064 H 0.46308 0.26468 0.96824 0.0
H1065 H 0.48557 0.26876 0.96881 0.0
H1066 H 0.49073 0.27241 0.01464 0.0
H1067 H 0.49273 0.29794 0.03664 0.0
H1068 H 0.14901 0.42945 0.53504 0.0
H1069 H 0.17239 0.42671 0.51357 0.0
H1070 H 0.20421 0.48401 0.50874 0.0
H1071 H 0.18106 0.48694 0.53019 0.0
H1072 H 0.18854 0.44101 0.46596 0.0
H1073 H 0.23674 0.46771 0.54297 0.0
H1074 H 0.21318 0.45959 0.54684 0.0
H1075 H 0.22744 0.48141 0.53432 0.0
C1076 C 0.16097 0.44146 0.52937 0.0
C1077 C 0.16325 0.45842 0.53447 0.0
C1078 C 0.17427 0.43986 0.51708 0.0
C1079 C 0.19006 0.45517 0.50991 0.0
C1080 C 0.1922 0.47206 0.51449 0.0
H1081 H 0.27468 0.47389 0.41091 0.0
H1082 H 0.24774 0.47043 0.43054 0.0
C1083 C 0.17893 0.47369 0.52668 0.0
C1084 C 0.20449 0.45361 0.49787 0.0
H1085 H 0.24804 0.46485 0.50469 0.0
C1086 C 0.20152 0.44607 0.47444 0.0
C1087 C 0.22128 0.46002 0.5092 0.0
C1088 C 0.22487 0.4675 0.53481 0.0
C1089 C 0.2152 0.44533 0.46165 0.0
C1090 C 0.23224 0.4525 0.47256 0.0
C1091 C 0.23498 0.45948 0.49631 0.0
C1092 C 0.24762 0.45335 0.45954 0.0
C1093 C 0.21132 0.43689 0.43662 0.0
C1094 C 0.25655 0.44504 0.4695 0.0
C1095 C 0.27201 0.4471 0.45845 0.0
C1096 C 0.27888 0.45762 0.43732 0.0
C1097 C 0.26971 0.46567 0.42714 0.0
C1098 C 0.25424 0.4636 0.43822 0.0
H1099 H 0.19679 0.4278 0.4338 0.0
H1100 H 0.21605 0.44752 0.42254 0.0
H1101 H 0.21835 0.42925 0.43378 0.0
H1102 H 0.25168 0.43716 0.48603 0.0
H1103 H 0.27874 0.4407 0.46674 0.0
H1104 H 0.83662 0.26924 0.9488 0.0
H1105 H 0.81403 0.2405 0.96572 0.0
H1106 H 0.78392 0.26468 0.99156 0.0
H1107 H 0.80616 0.29328 0.97435 0.0
H1108 H 0.80217 0.23093 0.01307 0.0
H1109 H 0.74691 0.2221 0.95283 0.0
H1110 H 0.7699 0.23855 0.94691 0.0
H1111 H 0.75707 0.24304 0.96873 0.0
C1112 C 0.82515 0.26841 0.95803 0.0
C1113 C 0.82309 0.28349 0.96006 0.0
C1114 C 0.81229 0.25201 0.96769 0.0
C1115 C 0.79716 0.25042 0.97947 0.0
C1116 C 0.79528 0.26553 0.98199 0.0
H1117 H 0.72412 0.17347 0.08151 0.0
H1118 H 0.74963 0.19806 0.061 0.0
C1119 C 0.80806 0.28189 0.97225 0.0
C1120 C 0.78339 0.23306 0.98947 0.0
H1121 H 0.73868 0.20355 0.98836 0.0
C1122 C 0.78831 0.2248 0.00751 0.0
C1123 C 0.7654 0.22494 0.98182 0.0
C1124 C 0.75952 0.23251 0.96132 0.0
C1125 C 0.77553 0.20897 0.01886 0.0
C1126 C 0.75736 0.2015 0.01231 0.0
C1127 C 0.75259 0.20939 0.99357 0.0
C1128 C 0.7429 0.18588 0.02511 0.0
C1129 C 0.78163 0.20043 0.03768 0.0
C1130 C 0.73051 0.17096 0.01172 0.0
C1131 C 0.71575 0.15703 0.02333 0.0
C1132 C 0.71314 0.15776 0.04857 0.0
C1133 C 0.72583 0.17247 0.06207 0.0
C1134 C 0.7405 0.18648 0.0504 0.0
H1135 H 0.79578 0.20415 0.03473 0.0
H1136 H 0.78062 0.20517 0.05613 0.0
H1137 H 0.77327 0.18566 0.03729 0.0
H1138 H 0.73207 0.17026 0.99218 0.0
H1139 H 0.70624 0.14584 0.01244 0.0
H1140 H 0.51154 0.79858 0.4144 0.0
H1141 H 0.51468 0.7752 0.43487 0.0
H1142 H 0.55535 0.81458 0.4818 0.0
H1143 H 0.55221 0.8381 0.46159 0.0
H1144 H 0.54531 0.77115 0.44166 0.0
H1145 H 0.51683 0.77849 0.52918 0.0
H1146 H 0.51473 0.78795 0.50083 0.0
H1147 H 0.53545 0.79853 0.51731 0.0
C1148 C 0.52122 0.80231 0.42899 0.0
C1149 C 0.5315 0.82018 0.43654 0.0
C1150 C 0.52302 0.78894 0.44061 0.0
C1151 C 0.53507 0.79318 0.46001 0.0
C1152 C 0.54578 0.81105 0.46708 0.0
H1153 H 0.56014 0.71696 0.52919 0.0
H1154 H 0.56278 0.74325 0.50839 0.0
C1155 C 0.544 0.82445 0.45546 0.0
C1156 C 0.5359 0.77876 0.47332 0.0
H1157 H 0.52636 0.75729 0.52828 0.0
C1158 C 0.54129 0.76815 0.46064 0.0
C1159 C 0.53045 0.77485 0.49799 0.0
C1160 C 0.5239 0.78543 0.51216 0.0
C1161 C 0.54124 0.75358 0.47198 0.0
C1162 C 0.53583 0.74971 0.49666 0.0
C1163 C 0.53061 0.76042 0.50939 0.0
C1164 C 0.53447 0.73397 0.50924 0.0
C1165 C 0.54641 0.74211 0.45728 0.0
C1166 C 0.51773 0.72028 0.51696 0.0
C1167 C 0.51618 0.70532 0.52889 0.0
C1168 C 0.53137 0.70384 0.53344 0.0
C1169 C 0.54818 0.71768 0.52588 0.0
C1170 C 0.54971 0.73266 0.5139 0.0
H1171 H 0.54686 0.7448 0.43737 0.0
H1172 H 0.55986 0.74488 0.46306 0.0
H1173 H 0.53689 0.72773 0.46055 0.0
H1174 H 0.50583 0.72111 0.51358 0.0
H1175 H 0.50304 0.69493 0.53451 0.0
H1176 H 0.33015 0.40219 0.03086 0.0
H1177 H 0.3434 0.38318 0.02621 0.0
H1178 H 0.33431 0.36958 0.10276 0.0
H1179 H 0.3205 0.38801 0.10732 0.0
H1180 H 0.37319 0.39099 0.0479 0.0
H1181 H 0.32342 0.32244 0.07515 0.0
H1182 H 0.31728 0.33902 0.06787 0.0
H1183 H 0.32514 0.33804 0.09803 0.0
C1184 C 0.3305 0.39473 0.04652 0.0
C1185 C 0.32443 0.39671 0.0695 0.0
C1186 C 0.33805 0.38385 0.04384 0.0
C1187 C 0.33976 0.37483 0.06408 0.0
C1188 C 0.33275 0.376 0.08672 0.0
H1189 H 0.42734 0.36394 0.10596 0.0
H1190 H 0.40381 0.37102 0.09826 0.0
C1191 C 0.32499 0.3867 0.08935 0.0
C1192 C 0.35134 0.36676 0.0626 0.0
H1193 H 0.35463 0.33069 0.08049 0.0
C1194 C 0.36896 0.37765 0.05452 0.0
C1195 C 0.34586 0.34929 0.071 0.0
C1196 C 0.32682 0.33649 0.07823 0.0
C1197 C 0.38151 0.37197 0.056 0.0
C1198 C 0.37641 0.35513 0.06634 0.0
C1199 C 0.35855 0.34374 0.07298 0.0
C1200 C 0.38982 0.34983 0.07193 0.0
C1201 C 0.40025 0.38427 0.04704 0.0
C1202 C 0.38936 0.33517 0.06027 0.0
C1203 C 0.40281 0.33102 0.0647 0.0
C1204 C 0.41683 0.34145 0.08095 0.0
C1205 C 0.41684 0.35574 0.09318 0.0
C1206 C 0.40343 0.35984 0.08876 0.0
H1207 H 0.40064 0.39395 0.03338 0.0
H1208 H 0.40877 0.39196 0.06272 0.0
H1209 H 0.40607 0.37661 0.03869 0.0
H1210 H 0.37886 0.32724 0.04733 0.0
H1211 H 0.40239 0.31988 0.05508 0.0
H1212 H 0.06573 0.40596 0.54961 0.0
H1213 H 0.03362 0.38562 0.54441 0.0
H1214 H 0.0251 0.39159 0.62062 0.0
H1215 H 0.05706 0.4119 0.62608 0.0
H1216 H 0.00749 0.3523 0.57247 0.0
H1217 H -0.00386 0.41004 0.57909 0.0
H1218 H 0.01775 0.41264 0.5724 0.0
H1219 H 0.00932 0.40821 0.60312 0.0
C1220 C 0.05706 0.40277 0.56534 0.0
C1221 C 0.06392 0.41071 0.5882 0.0
C1222 C 0.03875 0.39111 0.56233 0.0
C1223 C 0.02708 0.3873 0.58209 0.0
C1224 C 0.03396 0.39452 0.60514 0.0
H1225 H 0.91411 0.31658 0.60257 0.0
H1226 H 0.94657 0.3298 0.6021 0.0
C1227 C 0.05222 0.40613 0.60819 0.0
C1228 C 0.00759 0.37696 0.57831 0.0
H1229 H 0.97058 0.38133 0.57812 0.0
C1230 C -0.00063 0.35859 0.57358 0.0
C1231 C -0.00283 0.38533 0.57948 0.0
C1232 C 0.00549 0.40517 0.5836 0.0
C1233 C 0.98078 0.34825 0.57055 0.0
C1234 C 0.9703 0.35655 0.57249 0.0
C1235 C 0.97865 0.37499 0.57671 0.0
C1236 C 0.95061 0.34653 0.57059 0.0
C1237 C 0.97252 0.3286 0.56513 0.0
C1238 C 0.94213 0.35147 0.55294 0.0
C1239 C 0.92364 0.34409 0.5533 0.0
C1240 C 0.91328 0.33165 0.57139 0.0
C1241 C 0.92171 0.32608 0.58836 0.0
C1242 C 0.94026 0.33354 0.58803 0.0
H1243 H 0.98253 0.32528 0.55798 0.0
H1244 H 0.96686 0.32092 0.58222 0.0
H1245 H 0.96153 0.32423 0.55163 0.0
H1246 H 0.9499 0.36152 0.53938 0.0
H1247 H 0.91756 0.3486 0.53989 0.0
H1248 H 0.56876 0.91606 0.03075 0.0
H1249 H 0.58951 0.94805 0.02714 0.0
H1250 H 0.61725 0.9465 0.09174 0.0
H1251 H 0.5966 0.91439 0.09548 0.0
H1252 H 0.59155 0.97081 0.06597 0.0
H1253 H 0.65803 0.97912 0.04383 0.0
H1254 H 0.6374 0.95862 0.03802 0.0
H1255 H 0.64609 0.96413 0.06853 0.0
C1256 C 0.57949 0.92241 0.04393 0.0
C1257 C 0.58092 0.91271 0.06357 0.0
C1258 C 0.59136 0.94069 0.04179 0.0
C1259 C 0.60494 0.94958 0.05909 0.0
C1260 C 0.60702 0.93981 0.07798 0.0
H1261 H 0.671 0.06159 0.09592 0.0
H1262 H 0.65827 0.02922 0.09271 0.0
C1263 C 0.59513 0.92148 0.08017 0.0
C1264 C 0.61526 0.96928 0.05918 0.0
H1265 H 0.65713 0.00541 0.05377 0.0
C1266 C 0.60587 0.97838 0.06314 0.0
C1267 C 0.63395 0.97904 0.05583 0.0
C1268 C 0.64452 0.96979 0.05113 0.0
C1269 C 0.61467 -0.00297 0.06395 0.0
C1270 C 0.63333 0.00685 0.06017 0.0
C1271 C 0.64281 -0.00222 0.05647 0.0
C1272 C 0.64301 0.02655 0.0601 0.0
C1273 C 0.60396 0.00607 0.0693 0.0
C1274 C 0.63909 0.03575 0.04232 0.0
C1275 C 0.6462 0.05415 0.04416 0.0
C1276 C 0.65748 0.0637 0.06375 0.0
C1277 C 0.66227 0.0546 0.0807 0.0
C1278 C 0.65506 0.03613 0.07887 0.0
H1279 H 0.5908 -0.00328 0.07756 0.0
H1280 H 0.61132 0.01755 0.08189 0.0
H1281 H 0.60153 0.0112 0.05198 0.0
H1282 H 0.63 0.02858 0.02749 0.0
H1283 H 0.64241 0.0608 0.03064 0.0
H1284 H 0.64754 0.57219 0.54578 0.0
H1285 H 0.63542 0.59216 0.54135 0.0
H1286 H 0.66144 0.61898 0.60818 0.0
H1287 H 0.67387 0.59919 0.61264 0.0
H1288 H 0.61263 0.5935 0.57592 0.0
H1289 H 0.67199 0.66061 0.56206 0.0
H1290 H 0.67261 0.64023 0.5576 0.0
H1291 H 0.67328 0.64851 0.58793 0.0
C1292 C 0.65095 0.58252 0.55935 0.0
C1293 C 0.66159 0.58404 0.57965 0.0
C1294 C 0.64403 0.59394 0.55675 0.0
C1295 C 0.64766 0.60713 0.57432 0.0
C1296 C 0.65877 0.60911 0.59417 0.0
H1297 H 0.60031 0.67248 0.6063 0.0
H1298 H 0.61961 0.65932 0.60492 0.0
C1299 C 0.66576 0.5977 0.59677 0.0
C1300 C 0.63824 0.61743 0.57316 0.0
H1301 H 0.64433 0.65952 0.56931 0.0
C1302 C 0.61955 0.60793 0.57428 0.0
C1303 C 0.64736 0.63625 0.5713 0.0
C1304 C 0.66741 0.64704 0.56945 0.0
C1305 C 0.60967 0.61672 0.57383 0.0
C1306 C 0.61874 0.63552 0.57172 0.0
C1307 C 0.63745 0.6451 0.57077 0.0
C1308 C 0.60883 0.64533 0.57085 0.0
C1309 C 0.58962 0.60582 0.57619 0.0
C1310 C 0.59687 0.64231 0.5517 0.0
C1311 C 0.58577 0.6497 0.55249 0.0
C1312 C 0.58654 0.66036 0.57237 0.0
C1313 C 0.59932 0.66425 0.59079 0.0
C1314 C 0.61038 0.65678 0.59003 0.0
H1315 H 0.58519 0.59228 0.58358 0.0
H1316 H 0.58451 0.61257 0.58831 0.0
H1317 H 0.58348 0.60425 0.55789 0.0
H1318 H 0.59573 0.63375 0.53653 0.0
H1319 H 0.57621 0.6466 0.53787 0.0
H1320 H 0.91572 0.60735 0.08119 0.0
H1321 H 0.94793 0.6281 0.08392 0.0
H1322 H 0.95774 0.59306 0.03878 0.0
H1323 H 0.92571 0.57229 0.03586 0.0
H1324 H 0.97494 0.60304 0.08801 0.0
H1325 H 0.98615 0.66061 0.02979 0.0
H1326 H 0.96749 0.65132 0.05059 0.0
H1327 H 0.96749 0.63839 0.025 0.0
C1328 C 0.92472 0.60421 0.0715 0.0
C1329 C 0.91816 0.58812 0.05844 0.0
C1330 C 0.94308 0.6161 0.07302 0.0
C1331 C 0.9551 0.61207 0.06147 0.0
C1332 C 0.9486 0.59637 0.04773 0.0
H1333 H 0.06714 0.65721 0.04223 0.0
H1334 H 0.03505 0.64539 0.03756 0.0
C1335 C 0.93029 0.58453 0.04611 0.0
C1336 C 0.97449 0.62323 0.06555 0.0
H1337 H 0.0113 0.66264 0.04984 0.0
C1338 C 0.98289 0.61613 0.07984 0.0
C1339 C 0.9847 0.64024 0.05479 0.0
C1340 C 0.97612 0.64818 0.03905 0.0
C1341 C 0.00139 0.62553 0.0834 0.0
C1342 C 0.01166 0.64247 0.07244 0.0
C1343 C 0.00327 0.6497 0.05834 0.0
C1344 C 0.03129 0.65213 0.07428 0.0
C1345 C 0.00995 0.61712 0.09829 0.0
C1346 C 0.03974 0.6602 0.09631 0.0
C1347 C 0.05808 0.667 0.09907 0.0
C1348 C 0.06816 0.66567 0.07986 0.0
C1349 C 0.05972 0.65832 0.05743 0.0
C1350 C 0.04143 0.65165 0.05466 0.0
H1351 H 0.00028 0.6031 0.10339 0.0
H1352 H 0.02109 0.61736 0.0879 0.0
H1353 H 0.0156 0.62493 0.1153 0.0
H1354 H 0.03203 0.66064 0.11163 0.0
H1355 H 0.06418 0.67261 0.11655 0.0
H1356 H 0.38484 0.06559 0.5968 0.0
H1357 H 0.36493 0.03322 0.59418 0.0
H1358 H 0.39261 0.03151 0.52962 0.0
H1359 H 0.41263 0.06372 0.53214 0.0
H1360 H 0.34245 0.00882 0.55421 0.0
H1361 H 0.39963 0.00057 0.58258 0.0
H1362 H 0.39966 0.02132 0.58616 0.0
H1363 H 0.40381 0.01493 0.55672 0.0
C1364 C 0.3865 0.05837 0.58181 0.0
C1365 C 0.40047 0.06716 0.56489 0.0
C1366 C 0.37509 0.03991 0.58033 0.0
C1367 C 0.37753 0.03005 0.56192 0.0
C1368 C 0.39071 0.03893 0.54412 0.0
H1369 H 0.34257 0.91951 0.53617 0.0
H1370 H 0.35448 0.95161 0.53257 0.0
C1371 C 0.40212 0.05733 0.54562 0.0
C1372 C 0.3675 0.01036 0.56254 0.0
H1373 H 0.37318 0.97448 0.571 0.0
C1374 C 0.34908 0.00124 0.55794 0.0
C1375 C 0.37627 0.00064 0.5676 0.0
C1376 C 0.3959 0.00981 0.57377 0.0
C1377 C 0.33925 0.98249 0.55758 0.0
C1378 C 0.34811 0.9728 0.56226 0.0
C1379 C 0.36648 0.98199 0.56719 0.0
C1380 C 0.3388 0.95309 0.56231 0.0
C1381 C 0.31961 0.97321 0.55168 0.0
C1382 C 0.3258 0.94327 0.58 0.0
C1383 C 0.31893 0.92486 0.58211 0.0
C1384 C 0.3251 0.91608 0.56671 0.0
C1385 C 0.33761 0.92588 0.54841 0.0
C1386 C 0.34441 0.94422 0.54628 0.0
H1387 H 0.31575 0.98239 0.54297 0.0
H1388 H 0.31584 0.96168 0.53931 0.0
H1389 H 0.31184 0.96807 0.56882 0.0
H1390 H 0.32155 0.94993 0.59284 0.0
H1391 H 0.30933 0.91768 0.59641 0.0
H1392 H 0.60009 0.68299 0.90038 0.0
H1393 H 0.62322 0.67469 0.9049 0.0
H1394 H 0.5884 0.63113 0.95209 0.0
H1395 H 0.56542 0.63938 0.948 0.0
H1396 H 0.6244 0.65074 0.96846 0.0
H1397 H 0.61869 0.63003 0.87084 0.0
H1398 H 0.62359 0.65247 0.87684 0.0
H1399 H 0.60228 0.63402 0.88534 0.0
C1400 C 0.59743 0.67174 0.91187 0.0
C1401 C 0.58086 0.66174 0.92364 0.0
C1402 C 0.61063 0.667 0.91436 0.0
C1403 C 0.6074 0.65218 0.92858 0.0
C1404 C 0.59113 0.6426 0.94101 0.0
H1405 H 0.63538 0.57541 0.96198 0.0
H1406 H 0.62607 0.59776 0.96151 0.0
C1407 C 0.57799 0.64731 0.93856 0.0
C1408 C 0.62038 0.64582 0.92975 0.0
H1409 H 0.63649 0.62364 0.89634 0.0
C1410 C 0.62731 0.64508 0.95263 0.0
C1411 C 0.6242 0.63853 0.90902 0.0
C1412 C 0.61676 0.63864 0.8841 0.0
C1413 C 0.63732 0.6365 0.95554 0.0
C1414 C 0.6402 0.62827 0.93511 0.0
C1415 C 0.63422 0.62997 0.91197 0.0
C1416 C 0.64739 0.61604 0.93769 0.0
C1417 C 0.6443 0.63591 0.98057 0.0
C1418 C 0.66244 0.61887 0.92437 0.0
C1419 C 0.66778 0.60606 0.92453 0.0
C1420 C 0.65799 0.5901 0.93776 0.0
C1421 C 0.64322 0.58755 0.95161 0.0
C1422 C 0.63796 0.60039 0.95153 0.0
H1423 H 0.64621 0.64736 0.99198 0.0
H1424 H 0.63449 0.62346 0.98996 0.0
H1425 H 0.65718 0.63604 0.97937 0.0
H1426 H 0.66977 0.6308 0.91339 0.0
H1427 H 0.6792 0.60839 0.91362 0.0
H1428 H 0.9222 0.60401 0.37844 0.0
H1429 H 0.95476 0.62279 0.38081 0.0
H1430 H 0.95528 0.59456 0.44542 0.0
H1431 H 0.92289 0.57577 0.4433 0.0
H1432 H 0.98008 0.64372 0.42615 0.0
H1433 H 0.98427 0.58671 0.3863 0.0
H1434 H 0.96493 0.58928 0.38242 0.0
H1435 H 0.96876 0.58164 0.41106 0.0
C1436 C 0.9292 0.60204 0.39343 0.0
C1437 C 0.91999 0.58825 0.41051 0.0
C1438 C 0.94777 0.61279 0.39476 0.0
C1439 C 0.9573 0.6099 0.41318 0.0
C1440 C 0.94807 0.5969 0.43105 0.0
H1441 H 0.06336 0.63422 0.44515 0.0
H1442 H 0.03149 0.62393 0.44384 0.0
C1443 C 0.92957 0.58616 0.42975 0.0
C1444 C 0.97693 0.61901 0.41243 0.0
H1445 H 0.01107 0.6111 0.40082 0.0
C1446 C 0.98695 0.63674 0.42042 0.0
C1447 C 0.98569 0.60975 0.40485 0.0
C1448 C 0.97544 0.59082 0.39549 0.0
C1449 C 0.00565 0.64528 0.42189 0.0
C1450 C 0.01437 0.63582 0.41489 0.0
C1451 C 0.0043 0.61826 0.40628 0.0
C1452 C 0.03386 0.64347 0.41719 0.0
C1453 C 0.01591 0.66406 0.43169 0.0
C1454 C 0.04575 0.65798 0.40276 0.0
C1455 C 0.06404 0.66394 0.40346 0.0
C1456 C 0.07066 0.65535 0.41848 0.0
C1457 C 0.05871 0.64109 0.43331 0.0
C1458 C 0.04049 0.6352 0.43262 0.0
H1459 H 0.00702 0.66819 0.44065 0.0
H1460 H 0.02615 0.66535 0.44505 0.0
H1461 H 0.0229 0.6734 0.41638 0.0
H1462 H 0.04083 0.66434 0.39043 0.0
H1463 H 0.07291 0.67494 0.39178 0.0
H1464 H 0.41384 0.06224 0.94859 0.0
H1465 H 0.39049 0.031 0.95046 0.0
H1466 H 0.35635 0.04245 0.90583 0.0
H1467 H 0.37984 0.07386 0.90349 0.0
H1468 H 0.35426 0.01325 0.96571 0.0
H1469 H 0.36173 0.00505 0.86607 0.0
H1470 H 0.37769 0.02451 0.88276 0.0
H1471 H 0.35637 0.02186 0.87479 0.0
C1472 C 0.40131 0.05821 0.93936 0.0
C1473 C 0.39879 0.07049 0.9256 0.0
C1474 C 0.38795 0.04034 0.94053 0.0
C1475 C 0.37183 0.0344 0.92799 0.0
C1476 C 0.36884 0.04676 0.91531 0.0
H1477 H 0.3026 0.91997 0.89853 0.0
H1478 H 0.31105 0.95146 0.9024 0.0
C1479 C 0.38225 0.06469 0.91407 0.0
C1480 C 0.35892 0.01504 0.92688 0.0
H1481 H 0.34384 0.97922 0.88863 0.0
C1482 C 0.3517 0.00581 0.94881 0.0
C1483 C 0.35554 0.00539 0.90476 0.0
C1484 C 0.36328 0.01461 0.88072 0.0
C1485 C 0.34187 0.9871 0.94937 0.0
C1486 C 0.3395 0.97745 0.92751 0.0
C1487 C 0.34571 0.98669 0.90536 0.0
C1488 C 0.33278 0.95801 0.92753 0.0
C1489 C 0.33455 0.97784 0.97347 0.0
C1490 C 0.34219 0.9513 0.9404 0.0
C1491 C 0.33748 0.93342 0.93815 0.0
C1492 C 0.32331 0.92189 0.92285 0.0
C1493 C 0.31357 0.92851 0.91047 0.0
C1494 C 0.31835 0.94647 0.91268 0.0
H1495 H 0.33195 0.98635 0.98609 0.0
H1496 H 0.32199 0.96494 0.97093 0.0
H1497 H 0.34451 0.97515 0.98231 0.0
H1498 H 0.35365 0.96006 0.95146 0.0
H1499 H 0.34527 0.92877 0.94793 0.0
H1500 H 0.3445 0.42256 0.45552 0.0
H1501 H 0.35651 0.40246 0.45966 0.0
H1502 H 0.33054 0.37603 0.39263 0.0
H1503 H 0.31822 0.39598 0.38841 0.0
H1504 H 0.32963 0.35262 0.4318 0.0
H1505 H 0.39741 0.40966 0.41297 0.0
H1506 H 0.38585 0.41331 0.43756 0.0
H1507 H 0.37736 0.41055 0.40693 0.0
C1508 C 0.34114 0.41234 0.44178 0.0
C1509 C 0.33061 0.41101 0.42145 0.0
C1510 C 0.34803 0.40089 0.44419 0.0
C1511 C 0.34463 0.38801 0.42623 0.0
C1512 C 0.33334 0.38597 0.40661 0.0
H1513 H 0.38917 0.31935 0.39776 0.0
H1514 H 0.36959 0.3322 0.39857 0.0
C1515 C 0.32636 0.39739 0.40422 0.0
C1516 C 0.35397 0.37766 0.42708 0.0
H1517 H 0.39556 0.38253 0.42488 0.0
C1518 C 0.34403 0.35909 0.43023 0.0
C1519 C 0.37274 0.3862 0.42481 0.0
C1520 C 0.38399 0.406 0.42015 0.0
C1521 C 0.3525 0.34886 0.43186 0.0
C1522 C 0.37129 0.35748 0.43 0.0
C1523 C 0.38115 0.37601 0.42654 0.0
C1524 C 0.38123 0.34772 0.43135 0.0
C1525 C 0.34137 0.32902 0.43606 0.0
C1526 C 0.39416 0.35214 0.44958 0.0
C1527 C 0.40544 0.34496 0.44908 0.0
C1528 C 0.40405 0.33328 0.43022 0.0
C1529 C 0.39057 0.32829 0.41254 0.0
C1530 C 0.37929 0.33552 0.41305 0.0
H1531 H 0.32775 0.32512 0.44264 0.0
H1532 H 0.34006 0.32193 0.4186 0.0
H1533 H 0.34786 0.3245 0.44956 0.0
H1534 H 0.39589 0.3616 0.4638 0.0
H1535 H 0.41563 0.34903 0.46303 0.0
H1536 H 0.07503 0.42482 0.9647 0.0
H1537 H 0.04317 0.40517 0.97216 0.0
H1538 H 0.03626 0.38641 0.89769 0.0
H1539 H 0.06814 0.40556 0.89036 0.0
H1540 H 0.01861 0.40924 0.95015 0.0
H1541 H 0.00418 0.34051 0.93229 0.0
H1542 H 0.02661 0.35878 0.93696 0.0
H1543 H 0.01626 0.35488 0.90728 0.0
C1544 C 0.06679 0.4162 0.95008 0.0
C1545 C 0.07406 0.41682 0.92688 0.0
C1546 C 0.0486 0.40495 0.95439 0.0
C1547 C 0.03733 0.39417 0.93558 0.0
C1548 C 0.04472 0.39422 0.9127 0.0
H1549 H 0.93426 0.37149 0.89706 0.0
H1550 H 0.96577 0.38205 0.90423 0.0
C1551 C 0.06295 0.40532 0.90845 0.0
C1552 C 0.0177 0.38494 0.93867 0.0
H1553 H 0.97928 0.34586 0.92692 0.0
C1554 C 0.01005 0.39527 0.94558 0.0
C1555 C 0.00647 0.36667 0.93302 0.0
C1556 C 0.01384 0.35455 0.92724 0.0
C1557 C 0.99154 0.38814 0.94549 0.0
C1558 C 0.98041 0.37034 0.93778 0.0
C1559 C 0.98791 0.35962 0.93243 0.0
C1560 C 0.9612 0.36324 0.93323 0.0
C1561 C 0.98407 0.3999 0.95301 0.0
C1562 C 0.9482 0.34879 0.94671 0.0
C1563 C 0.93007 0.34264 0.94261 0.0
C1564 C 0.92475 0.35081 0.92483 0.0
C1565 C 0.93788 0.36499 0.91101 0.0
C1566 C 0.95591 0.3711 0.91513 0.0
H1567 H -0.00656 0.4109 0.96517 0.0
H1568 H 0.98188 0.40597 0.93647 0.0
H1569 H 0.97109 0.39208 0.96259 0.0
H1570 H 0.95208 0.3425 0.96065 0.0
H1571 H 0.92026 0.33164 0.95348 0.0
H1572 H 0.59648 0.92129 0.38668 0.0
H1573 H 0.61657 0.95347 0.39069 0.0
H1574 H 0.58739 0.95429 0.45413 0.0
H1575 H 0.5671 0.92222 0.45007 0.0
H1576 H 0.59047 0.97795 0.41821 0.0
H1577 H 0.65662 0.98505 0.43822 0.0
H1578 H 0.64548 0.97139 0.41212 0.0
H1579 H 0.63597 0.96422 0.44203 0.0
C1580 C 0.59453 0.92826 0.40174 0.0
C1581 C 0.58012 0.91923 0.41795 0.0
C1582 C 0.60611 0.94663 0.40411 0.0
C1583 C 0.60357 0.95622 0.42285 0.0
C1584 C 0.58962 0.9471 0.4396 0.0
H1585 H 0.6439 0.06851 0.45147 0.0
H1586 H 0.63098 0.03626 0.45559 0.0
C1587 C 0.57802 0.92878 0.43721 0.0
C1588 C 0.61408 0.97594 0.4234 0.0
H1589 H 0.65632 0.01166 0.42763 0.0
C1590 C 0.60485 0.98532 0.42051 0.0
C1591 C 0.63284 0.98548 0.42615 0.0
C1592 C 0.64333 0.97605 0.43002 0.0
C1593 C 0.61388 0.00398 0.41993 0.0
C1594 C 0.63263 0.01355 0.42276 0.0
C1595 C 0.64193 0.00423 0.4256 0.0
C1596 C 0.64267 0.03327 0.42225 0.0
C1597 C 0.6033 0.01331 0.41567 0.0
C1598 C 0.65419 0.04231 0.40274 0.0
C1599 C 0.66168 0.06078 0.40037 0.0
C1600 C 0.65774 0.07044 0.4175 0.0
C1601 C 0.64705 0.06144 0.43782 0.0
C1602 C 0.63963 0.04301 0.4402 0.0
H1603 H 0.58978 0.00409 0.40831 0.0
H1604 H 0.6017 0.01874 0.43327 0.0
H1605 H 0.61035 0.02462 0.40274 0.0
H1606 H 0.65672 0.03498 0.38877 0.0
H1607 H 0.66994 0.06733 0.38459 0.0
H1608 H 0.50341 0.58887 0.94586 0.0
H1609 H 0.47757 0.56263 0.96311 0.0
H1610 H 0.45098 0.59305 0.97346 0.0
H1611 H 0.47671 0.61939 0.95599 0.0
H1612 H 0.46258 0.55931 0.01011 0.0
H1613 H 0.41398 0.54823 0.93625 0.0
H1614 H 0.43777 0.56226 0.93227 0.0
H1615 H 0.42534 0.57038 0.94883 0.0
C1616 C 0.49204 0.58999 0.95169 0.0
C1617 C 0.49208 0.6062 0.94947 0.0
C1618 C 0.47731 0.57498 0.96156 0.0
C1619 C 0.46232 0.57587 0.96925 0.0
C1620 C 0.46232 0.59203 0.96721 0.0
H1621 H 0.36171 0.49907 0.03548 0.0
H1622 H 0.38701 0.52571 0.01797 0.0
C1623 C 0.47706 0.60708 0.95735 0.0
C1624 C 0.44689 0.55996 0.98 0.0
H1625 H 0.40265 0.53016 0.97157 0.0
C1626 C 0.44947 0.55289 0.00168 0.0
C1627 C 0.42984 0.55169 0.96893 0.0
C1628 C 0.42651 0.5584 0.94518 0.0
C1629 C 0.43537 0.53784 0.0128 0.0
C1630 C 0.41835 0.52949 0.00165 0.0
C1631 C 0.41574 0.53661 0.98004 0.0
C1632 C 0.40307 0.51329 0.01212 0.0
C1633 C 0.43873 0.5312 0.03661 0.0
C1634 C 0.40365 0.49743 0.01428 0.0
C1635 C 0.38924 0.48219 0.02431 0.0
C1636 C 0.37394 0.48252 0.0322 0.0
C1637 C 0.37331 0.49838 0.02965 0.0
C1638 C 0.38774 0.51361 0.01963 0.0
H1639 H 0.451 0.5416 0.04581 0.0
H1640 H 0.42727 0.52687 0.04929 0.0
H1641 H 0.44048 0.51956 0.03294 0.0
H1642 H 0.41523 0.49683 0.00812 0.0
H1643 H 0.39011 0.47017 0.02587 0.0
H1644 H 0.90388 0.39954 0.54252 0.0
H1645 H 0.90328 0.42436 0.52214 0.0
H1646 H 0.8465 0.39167 0.5114 0.0
H1647 H 0.84691 0.36671 0.53189 0.0
H1648 H 0.89081 0.42412 0.47324 0.0
H1649 H 0.85308 0.43808 0.5438 0.0
H1650 H 0.86392 0.42531 0.55028 0.0
H1651 H 0.84322 0.41529 0.53377 0.0
C1652 C 0.89123 0.39762 0.53596 0.0
C1653 C 0.87543 0.38115 0.53888 0.0
C1654 C 0.89093 0.41182 0.52429 0.0
C1655 C 0.87483 0.40987 0.51551 0.0
C1656 C 0.85902 0.39349 0.51839 0.0
H1657 H 0.8515 0.48549 0.44248 0.0
H1658 H 0.8493 0.45875 0.46114 0.0
C1659 C 0.8593 0.37923 0.53 0.0
C1660 C 0.87476 0.42489 0.50275 0.0
H1661 H 0.86025 0.45491 0.50738 0.0
C1662 C 0.88413 0.43087 0.48066 0.0
C1663 C 0.86593 0.43354 0.51247 0.0
C1664 C 0.85606 0.42788 0.53647 0.0
C1665 C 0.88491 0.44531 0.46794 0.0
C1666 C 0.8764 0.45422 0.47791 0.0
C1667 C 0.86678 0.44805 0.49982 0.0
C1668 C 0.87776 0.4703 0.46626 0.0
C1669 C 0.89465 0.45076 0.44382 0.0
C1670 C 0.89448 0.48569 0.46323 0.0
C1671 C 0.8958 0.50095 0.45252 0.0
C1672 C 0.88039 0.50116 0.44485 0.0
C1673 C 0.86363 0.48576 0.44813 0.0
C1674 C 0.86234 0.47047 0.4588 0.0
H1675 H 0.89584 0.43969 0.43547 0.0
H1676 H 0.88777 0.45508 0.43069 0.0
H1677 H 0.90833 0.46211 0.44685 0.0
H1678 H 0.90651 0.48597 0.46937 0.0
H1679 H 0.90889 0.51262 0.45043 0.0
H1680 H 0.36068 0.86519 0.97245 0.0
H1681 H 0.38482 0.86407 0.99397 0.0
H1682 H 0.42072 0.89225 0.93451 0.0
H1683 H 0.39673 0.89382 0.91305 0.0
H1684 H 0.40439 0.84884 0.98077 0.0
H1685 H 0.44845 0.92179 0.99316 0.0
H1686 H 0.42553 0.91205 0.98345 0.0
H1687 H 0.44257 0.91526 0.96187 0.0
C1688 C 0.37372 0.87121 0.96395 0.0
C1689 C 0.37682 0.87971 0.9411 0.0
C1690 C 0.3875 0.87054 0.97628 0.0
C1691 C 0.40463 0.87833 0.96603 0.0
C1692 C 0.4077 0.88653 0.94302 0.0
H1693 H 0.48841 0.85706 0.01161 0.0
H1694 H 0.4642 0.85816 0.99021 0.0
C1695 C 0.39395 0.88731 0.93072 0.0
C1696 C 0.41914 0.87756 0.97934 0.0
H1697 H 0.4607 0.90346 0.00356 0.0
C1698 C 0.41669 0.86078 0.98582 0.0
C1699 C 0.43506 0.89316 0.98622 0.0
C1700 C 0.43804 0.91159 0.98105 0.0
C1701 C 0.42981 0.85916 -0.00125 0.0
C1702 C 0.44598 0.87474 0.00487 0.0
C1703 C 0.44835 0.89153 -0.00135 0.0
C1704 C 0.46058 0.87395 0.0179 0.0
C1705 C 0.42605 0.84079 0.00617 0.0
C1706 C 0.46691 0.88285 0.04028 0.0
C1707 C 0.4809 0.88243 0.05243 0.0
C1708 C 0.48883 0.8731 0.0424 0.0
C1709 C 0.48248 0.86423 0.01995 0.0
C1710 C 0.46858 0.86476 0.00774 0.0
H1711 H 0.4115 0.83104 0.00638 0.0
H1712 H 0.43236 0.836 0.99281 0.0
H1713 H 0.4316 0.84101 0.02455 0.0
H1714 H 0.46097 0.89008 0.04839 0.0
H1715 H 0.48549 0.88942 0.06968 0.0
H1716 H 0.48345 0.40024 0.46154 0.0
H1717 H 0.5116 0.42521 0.47611 0.0
H1718 H 0.5335 0.39028 0.48319 0.0
H1719 H 0.5055 0.36526 0.46829 0.0
H1720 H 0.52902 0.42909 0.52021 0.0
H1721 H 0.57096 0.43144 0.44191 0.0
H1722 H 0.54689 0.41911 0.44092 0.0
H1723 H 0.55886 0.40998 0.45636 0.0
C1724 C 0.49426 0.39785 0.46614 0.0
C1725 C 0.49227 0.38078 0.46363 0.0
C1726 C 0.51032 0.41214 0.47448 0.0
C1727 C 0.5247 0.40963 0.48036 0.0
C1728 C 0.52268 0.39256 0.47825 0.0
H1729 H 0.61799 0.48216 0.56548 0.0
H1730 H 0.59044 0.45662 0.55039 0.0
C1731 C 0.50664 0.37827 0.46987 0.0
C1732 C 0.5417 0.42485 0.4891 0.0
H1733 H 0.58612 0.44977 0.47602 0.0
C1734 C 0.54151 0.43365 0.51055 0.0
C1735 C 0.5579 0.43087 0.47626 0.0
C1736 C 0.55872 0.42249 0.45246 0.0
C1737 C 0.55718 0.44821 0.5197 0.0
C1738 C 0.57347 0.45389 0.50725 0.0
C1739 C 0.57362 0.44524 0.48564 0.0
C1740 C 0.59046 0.46907 0.51609 0.0
C1741 C 0.55607 0.4576 0.54232 0.0
C1742 C 0.59988 0.48429 0.50145 0.0
C1743 C 0.6157 0.49886 0.50992 0.0
C1744 C 0.6224 0.49842 0.53316 0.0
C1745 C 0.61312 0.48297 0.54756 0.0
C1746 C 0.59733 0.4684 0.53904 0.0
H1747 H 0.5422 0.45457 0.54595 0.0
H1748 H 0.56063 0.45308 0.55834 0.0
H1749 H 0.56478 0.47228 0.54063 0.0
H1750 H 0.59484 0.48501 0.48361 0.0
H1751 H 0.62254 0.51053 0.49835 0.0
H1752 H 0.08703 0.49889 0.93231 0.0
H1753 H 0.0867 0.52403 0.95226 0.0
H1754 H 0.13879 0.54114 0.98264 0.0
H1755 H 0.13918 0.51596 0.96305 0.0
H1756 H 0.11404 0.53916 0.01688 0.0
H1757 H 0.11492 0.57727 0.9347 0.0
H1758 H 0.09763 0.55424 0.93468 0.0
H1759 H 0.12062 0.55985 0.93355 0.0
C1760 C 0.09849 0.50809 0.94306 0.0
C1761 C 0.11313 0.50543 0.94609 0.0
C1762 C 0.09831 0.5225 0.95434 0.0
C1763 C 0.11281 0.53454 0.96868 0.0
C1764 C 0.1275 0.53201 0.97156 0.0
H1765 H 0.13379 0.6363 0.02755 0.0
H1766 H 0.13493 0.61218 0.00581 0.0
C1767 C 0.1277 0.51762 0.96033 0.0
C1768 C 0.11235 0.54932 0.98164 0.0
H1769 H 0.10963 0.58695 0.97284 0.0
C1770 C 0.11312 0.54965 0.00727 0.0
C1771 C 0.11133 0.56303 0.96901 0.0
C1772 C 0.11124 0.56374 0.94146 0.0
C1773 C 0.11267 0.56324 0.02066 0.0
C1774 C 0.11115 0.57668 0.00806 0.0
C1775 C 0.11063 0.5765 0.98242 0.0
C1776 C 0.11031 0.59119 0.02119 0.0
C1777 C 0.11409 0.56325 0.04815 0.0
C1778 C 0.09598 0.58734 0.03683 0.0
C1779 C 0.09528 0.60107 0.0493 0.0
C1780 C 0.10887 0.6189 0.04625 0.0
C1781 C 0.12313 0.6227 0.03037 0.0
C1782 C 0.1238 0.60896 0.01789 0.0
H1783 H 0.11946 0.55466 0.05449 0.0
H1784 H 0.1228 0.57699 0.05518 0.0
H1785 H 0.10062 0.55804 0.05624 0.0
H1786 H 0.08529 0.57371 0.03929 0.0
H1787 H 0.08407 0.59769 0.06129 0.0
H1788 H 0.47595 0.07943 0.51782 0.0
H1789 H 0.50282 0.08232 0.49877 0.0
H1790 H 0.53145 0.13845 0.51604 0.0
H1791 H 0.50461 0.13574 0.53522 0.0
H1792 H 0.52335 0.10666 0.45888 0.0
H1793 H 0.56246 0.11774 0.54439 0.0
H1794 H 0.53849 0.10794 0.54444 0.0
H1795 H 0.55253 0.1315 0.53983 0.0
C1796 C 0.48795 0.0924 0.51765 0.0
C1797 C 0.48816 0.10735 0.52811 0.0
C1798 C 0.50327 0.09401 0.50671 0.0
C1799 C 0.5191 0.11054 0.50624 0.0
C1800 C 0.51939 0.12553 0.51652 0.0
H1801 H 0.62508 0.13839 0.45349 0.0
H1802 H 0.59959 0.13944 0.47103 0.0
C1803 C 0.50403 0.12396 0.52737 0.0
C1804 C 0.53523 0.11204 0.49468 0.0
H1805 H 0.57667 0.11849 0.5073 0.0
C1806 C 0.53505 0.10929 0.4694 0.0
C1807 C 0.55044 0.11558 0.50853 0.0
C1808 C 0.55108 0.11826 0.53584 0.0
C1809 C 0.54974 0.10995 0.45753 0.0
C1810 C 0.56479 0.11302 0.47146 0.0
C1811 C 0.56509 0.11611 0.49669 0.0
C1812 C 0.58014 0.11252 0.46034 0.0
C1813 C 0.54906 0.10755 0.43015 0.0
C1814 C 0.57766 0.09696 0.44878 0.0
C1815 C 0.59215 0.09633 0.43866 0.0
C1816 C 0.60944 0.1112 0.44017 0.0
C1817 C 0.61192 0.12672 0.45199 0.0
C1818 C 0.59739 0.12735 0.46202 0.0
H1819 H 0.53933 0.11073 0.42158 0.0
H1820 H 0.56236 0.11613 0.42177 0.0
H1821 H 0.54476 0.09343 0.42589 0.0
H1822 H 0.56452 0.08521 0.44781 0.0
H1823 H 0.58979 0.08413 0.42986 0.0
H1824 H 0.50618 0.37183 0.06314 0.0
H1825 H 0.53089 0.39889 0.04545 0.0
H1826 H 0.4996 0.39178 0.9807 0.0
H1827 H 0.47475 0.36477 -0.00174 0.0
H1828 H 0.54899 0.40236 0.00021 0.0
H1829 H 0.51614 0.44353 0.00269 0.0
H1830 H 0.50814 0.42327 0.02024 0.0
H1831 H 0.50352 0.42217 0.98808 0.0
C1832 C 0.50452 0.37603 0.04515 0.0
C1833 C 0.48847 0.36619 0.03214 0.0
C1834 C 0.51866 0.39147 0.03509 0.0
C1835 C 0.51695 0.39742 0.01195 0.0
C1836 C 0.50104 0.38755 -0.00122 0.0
H1837 H 0.58629 0.48841 0.92181 0.0
H1838 H 0.56172 0.46095 0.93875 0.0
C1839 C 0.4869 0.37208 0.0088 0.0
C1840 C 0.53193 0.41383 0.00145 0.0
H1841 H 0.54405 0.45599 0.9826 0.0
C1842 C 0.54797 0.41412 0.99641 0.0
C1843 C 0.53047 0.42908 0.99649 0.0
C1844 C 0.51371 0.42965 0.00231 0.0
C1845 C 0.56257 0.42923 0.98616 0.0
C1846 C 0.56115 0.44454 0.98132 0.0
C1847 C 0.54508 0.44422 0.98633 0.0
C1848 C 0.57619 0.46107 0.97107 0.0
C1849 C 0.57922 0.42852 0.98009 0.0
C1850 C 0.59239 0.47035 0.98379 0.0
C1851 C 0.60649 0.48601 0.97412 0.0
C1852 C 0.60456 0.49277 0.95166 0.0
C1853 C 0.58822 0.48356 0.93913 0.0
C1854 C 0.57416 0.46786 0.94877 0.0
H1855 H 0.57646 0.41456 0.97865 0.0
H1856 H 0.58518 0.43551 0.96263 0.0
H1857 H 0.58919 0.43521 0.99483 0.0
H1858 H 0.59408 0.46555 0.00131 0.0
H1859 H 0.61885 0.49286 0.98432 0.0
H1860 H 0.12884 0.612 0.44944 0.0
H1861 H 0.1282 0.58661 0.47007 0.0
H1862 H 0.10472 0.5961 0.53371 0.0
H1863 H 0.10514 0.62143 0.51319 0.0
H1864 H 0.14411 0.58587 0.51544 0.0
H1865 H 0.0702 0.54318 0.51686 0.0
H1866 H 0.08157 0.56262 0.49754 0.0
H1867 H 0.07887 0.56513 0.52959 0.0
C1868 C 0.12354 0.60871 0.46783 0.0
C1869 C 0.11694 0.61867 0.47963 0.0
C1870 C 0.12321 0.59421 0.47958 0.0
C1871 C 0.11619 0.58936 0.50324 0.0
C1872 C 0.1099 0.59946 0.51526 0.0
H1873 H 0.09938 0.50066 0.59678 0.0
H1874 H 0.10115 0.52785 0.58044 0.0
C1875 C 0.11024 0.61397 0.50354 0.0
C1876 C 0.11549 0.57373 0.51531 0.0
H1877 H 0.08674 0.53199 0.53694 0.0
C1878 C 0.13158 0.57408 0.52017 0.0
C1879 C 0.09911 0.55844 0.52151 0.0
C1880 C 0.08142 0.55716 0.51597 0.0
C1881 C 0.13174 0.55952 0.53117 0.0
C1882 C 0.11535 0.5441 0.537 0.0
C1883 C 0.09927 0.54385 0.53245 0.0
C1884 C 0.11457 0.52785 0.54707 0.0
C1885 C 0.14945 0.56085 0.53671 0.0
C1886 C 0.12132 0.51875 0.53355 0.0
C1887 C 0.12035 0.50326 0.54282 0.0
C1888 C 0.11248 0.49649 0.56572 0.0
C1889 C 0.10556 0.50554 0.57912 0.0
C1890 C 0.10655 0.52107 0.56982 0.0
H1891 H 0.1604 0.57496 0.53765 0.0
H1892 H 0.14897 0.55418 0.55427 0.0
H1893 H 0.15273 0.55416 0.52195 0.0
H1894 H 0.1272 0.52355 0.51571 0.0
H1895 H 0.12573 0.49657 0.53196 0.0
H1896 H 0.62579 0.12753 0.01575 0.0
H1897 H 0.60076 0.12865 -0.00322 0.0
H1898 H 0.5646 0.08977 0.04849 0.0
H1899 H 0.58951 0.08862 0.06771 0.0
H1900 H 0.57018 0.09989 0.97549 0.0
H1901 H 0.55261 0.13026 0.05221 0.0
H1902 H 0.57374 0.13084 0.05047 0.0
H1903 H 0.55409 0.11095 0.0605 0.0
C1904 C 0.61253 0.1193 0.02321 0.0
C1905 C 0.60964 0.108 0.04328 0.0
C1906 C 0.59826 0.11995 0.01232 0.0
C1907 C 0.5809 0.10946 0.02143 0.0
C1908 C 0.57796 0.09821 0.04147 0.0
H1909 H 0.47967 0.07635 0.95151 0.0
H1910 H 0.50631 0.07843 0.97022 0.0
C1911 C 0.5922 0.0975 0.05234 0.0
C1912 C 0.56573 0.10974 0.00937 0.0
H1913 H 0.53189 0.11846 0.0193 0.0
C1914 C 0.56185 0.10404 0.985 0.0
C1915 C 0.55505 0.11535 0.02178 0.0
C1916 C 0.55914 0.12236 0.04762 0.0
C1917 C 0.54725 0.10338 0.97285 0.0
C1918 C 0.53618 0.10836 0.98555 0.0
C1919 C 0.54033 0.1145 0.00972 0.0
C1920 C 0.52013 0.10715 0.97411 0.0
C1921 C 0.54386 0.09747 0.9465 0.0
C1922 C 0.51898 0.1226 0.97055 0.0
C1923 C 0.50376 0.12147 0.95991 0.0
C1924 C 0.48937 0.10483 0.95284 0.0
C1925 C 0.49054 0.08937 0.95665 0.0
C1926 C 0.50578 0.09053 0.96723 0.0
H1927 H 0.55587 0.09839 0.93774 0.0
H1928 H 0.53296 0.08336 0.94561 0.0
H1929 H 0.53964 0.10566 0.93583 0.0
H1930 H 0.5299 0.13553 0.97588 0.0
H1931 H 0.50327 0.13362 0.95731 0.0
H1932 H 0.49196 0.62739 0.52208 0.0
H1933 H 0.46463 0.60233 0.50562 0.0
H1934 H 0.46426 0.56872 0.56408 0.0
H1935 H 0.49157 0.59372 0.5808 0.0
H1936 H 0.45966 0.56823 0.49085 0.0
H1937 H 0.41349 0.5627 0.5654 0.0
H1938 H 0.435 0.58243 0.56089 0.0
H1939 H 0.43351 0.56299 0.57499 0.0
C1940 C 0.48605 0.61469 0.53151 0.0
C1941 C 0.49392 0.61255 0.55279 0.0
C1942 C 0.47045 0.6004 0.52206 0.0
C1943 C 0.46235 0.58378 0.53382 0.0
C1944 C 0.47017 0.58155 0.55499 0.0
H1945 H 0.36891 0.48126 0.50391 0.0
H1946 H 0.39547 0.50659 0.52152 0.0
C1947 C 0.48583 0.59582 0.56442 0.0
C1948 C 0.44599 0.56865 0.52348 0.0
H1949 H 0.40185 0.54021 0.53502 0.0
C1950 C 0.44699 0.56212 0.50042 0.0
C1951 C 0.42955 0.56073 0.53613 0.0
C1952 C 0.42768 0.56761 0.56064 0.0
C1953 C 0.43199 0.54764 0.48978 0.0
C1954 C 0.41549 0.53978 0.50233 0.0
C1955 C 0.41451 0.5463 0.52543 0.0
C1956 C 0.39913 0.52466 0.49187 0.0
C1957 C 0.43406 0.54062 0.46546 0.0
C1958 C 0.39219 0.52655 0.46961 0.0
C1959 C 0.37706 0.51208 0.45943 0.0
C1960 C 0.36851 0.49551 0.47148 0.0
C1961 C 0.37521 0.49382 0.49413 0.0
C1962 C 0.39038 0.50828 0.50423 0.0
H1963 H 0.44824 0.54489 0.46152 0.0
H1964 H 0.42615 0.52582 0.4649 0.0
H1965 H 0.42917 0.5459 0.45072 0.0
H1966 H 0.39852 0.53921 0.46005 0.0
H1967 H 0.37216 0.51387 0.44206 0.0
H1968 H 0.87277 0.39055 0.90726 0.0
H1969 H 0.86989 0.41438 0.92694 0.0
H1970 H 0.85265 0.38373 0.99354 0.0
H1971 H 0.85546 0.35977 0.97407 0.0
H1972 H 0.83149 0.40006 0.97653 0.0
H1973 H 0.90457 0.4474 0.98202 0.0
H1974 H 0.89613 0.43738 0.95264 0.0
H1975 H 0.89534 0.42368 0.97778 0.0
C1976 C 0.86833 0.38884 0.92607 0.0
C1977 C 0.86445 0.37331 0.93915 0.0
C1978 C 0.86675 0.40248 0.93729 0.0
C1979 C 0.86125 0.40083 0.96172 0.0
C1980 C 0.85699 0.38523 0.97468 0.0
H1981 H 0.8431 0.4679 0.06243 0.0
H1982 H 0.84334 0.44294 0.0418 0.0
C1983 C 0.85865 0.3716 0.96353 0.0
C1984 C 0.86011 0.41549 0.97383 0.0
H1985 H 0.88557 0.45826 0.9941 0.0
C1986 C 0.84328 0.41279 0.98045 0.0
C1987 C 0.87554 0.43202 0.97881 0.0
C1988 C 0.89396 0.43536 0.97265 0.0
C1989 C 0.84144 0.4264 0.9916 0.0
C1990 C 0.85691 0.44295 -0.00329 0.0
C1991 C 0.87373 0.44558 0.99011 0.0
C1992 C 0.85604 0.45778 0.0089 0.0
C1993 C 0.82295 0.42308 -0.00276 0.0
C1994 C 0.86342 0.4745 -0.00253 0.0
C1995 C 0.86352 0.48884 0.00932 0.0
C1996 C 0.85623 0.48673 0.03288 0.0
C1997 C 0.8487 0.46992 0.04423 0.0
C1998 C 0.84872 0.45561 0.0324 0.0
H1999 H 0.81264 0.41196 0.98611 0.0
H2000 H 0.81991 0.41938 0.01678 0.0
H2001 H 0.82197 0.43522 0.99388 0.0
H2002 H 0.86921 0.47648 0.97938 0.0
H2003 H 0.86941 0.5016 6e-05 0.0
H2004 H 0.4815 0.84992 0.4601 0.0
H2005 H 0.45542 0.84755 0.48102 0.0
H2006 H 0.46824 0.89933 0.45352 0.0
H2007 H 0.4942 0.90175 0.43227 0.0
H2008 H 0.45458 0.86991 0.51674 0.0
H2009 H 0.41563 0.86814 0.43521 0.0
H2010 H 0.43444 0.86456 0.43339 0.0
H2011 H 0.43795 0.88683 0.43567 0.0
C2012 C 0.47872 0.86077 0.45836 0.0
C2013 C 0.4899 0.87601 0.44444 0.0
C2014 C 0.46382 0.85939 0.47035 0.0
C2015 C 0.45978 0.87316 0.46854 0.0
C2016 C 0.47093 0.8884 0.45473 0.0
H2017 H 0.39415 0.89675 0.56268 0.0
H2018 H 0.41848 0.89554 0.54175 0.0
C2019 C 0.48581 0.88979 0.44271 0.0
C2020 C 0.44425 0.87186 0.48177 0.0
H2021 H 0.4055 0.87256 0.47368 0.0
C2022 C 0.44378 0.87037 0.50734 0.0
C2023 C 0.43008 0.87223 0.46941 0.0
C2024 C 0.4294 0.87285 0.44189 0.0
C2025 C 0.42972 0.8697 0.52096 0.0
C2026 C 0.41594 0.87084 0.50867 0.0
C2027 C 0.41618 0.87186 0.48306 0.0
C2028 C 0.40124 0.8712 0.52202 0.0
C2029 C 0.42966 0.86764 0.54835 0.0
C2030 C 0.38347 0.85807 0.51756 0.0
C2031 C 0.36952 0.85878 0.52937 0.0
C2032 C 0.3731 0.87271 0.54576 0.0
C2033 C 0.39094 0.88579 0.55027 0.0
C2034 C 0.40487 0.88508 0.53843 0.0
H2035 H 0.43819 0.86204 0.55409 0.0
H2036 H 0.43499 0.88093 0.55706 0.0
H2037 H 0.41592 0.85883 0.55529 0.0
H2038 H 0.38041 0.8473 0.50486 0.0
H2039 H 0.35594 0.8485 0.52545 0.0
loop_
_geom_bond_atom_site_label_1
_geom_bond_atom_site_label_2
_geom_bond_distance
_geom_bond_site_symmetry_2
_ccdc_geom_bond_type
C0 O1 1.160 . S
C0 O7 1.185 . S
O1 C0 1.160 . S
O2 Zn3 1.899 . S
O2 C10 1.284 . S
Zn3 O2 1.899 . S
Zn3 O4 2.032 . S
Zn3 O7 2.086 . S
Zn3 O12 1.977 . S
O4 Zn3 2.032 . S
O4 C8 1.278 . S
C5 O6 1.203 . S
C5 O12 1.267 . S
O6 C5 1.203 . S
O7 C0 1.185 . S
O7 Zn3 2.086 . S
C8 O4 1.278 . S
C8 O9 1.211 . S
O9 C8 1.211 . S
C10 O2 1.284 . S
C10 O11 1.273 . S
O11 C10 1.273 . S
O12 Zn3 1.977 . S
O12 C5 1.267 . S
C13 O14 1.160 . S
C13 O20 1.185 . S
O14 C13 1.160 . S
O15 Zn16 1.899 . S
O15 C23 1.284 . S
Zn16 O15 1.899 . S
Zn16 O17 2.032 . S
Zn16 O20 2.086 . S
Zn16 O25 1.977 . S
O17 Zn16 2.032 . S
O17 C21 1.278 . S
C18 O19 1.203 . S
C18 O25 1.267 . S
O19 C18 1.203 . S
O20 C13 1.185 . S
O20 Zn16 2.086 . S
C21 O17 1.278 . S
C21 O22 1.211 . S
O22 C21 1.211 . S
C23 O15 1.284 . S
C23 O24 1.273 . S
O24 C23 1.273 . S
O25 Zn16 1.977 . S
O25 C18 1.267 . S
C26 O27 1.160 . S
C26 O33 1.185 . S
O27 C26 1.160 . S
O28 Zn29 1.899 . S
O28 C36 1.284 . S
Zn29 O28 1.899 . S
Zn29 O30 2.032 . S
Zn29 O33 2.086 . S
Zn29 O38 1.977 . S
O30 Zn29 2.032 . S
O30 C34 1.278 . S
C31 O32 1.203 . S
C31 O38 1.267 . S
O32 C31 1.203 . S
O33 C26 1.185 . S
O33 Zn29 2.086 . S
C34 O30 1.278 . S
C34 O35 1.211 . S
O35 C34 1.211 . S
C36 O28 1.284 . S
C36 O37 1.273 . S
O37 C36 1.273 . S
O38 Zn29 1.977 . S
O38 C31 1.267 . S
C39 O40 1.160 . S
C39 O46 1.185 . S
O40 C39 1.160 . S
O41 Zn42 1.899 . S
O41 C49 1.284 . S
Zn42 O41 1.899 . S
Zn42 O43 2.032 . S
Zn42 O46 2.086 . S
Zn42 O51 1.977 . S
O43 Zn42 2.032 . S
O43 C47 1.278 . S
C44 O45 1.203 . S
C44 O51 1.267 . S
O45 C44 1.203 . S
O46 C39 1.185 . S
O46 Zn42 2.086 . S
C47 O43 1.278 . S
C47 O48 1.211 . S
O48 C47 1.211 . S
C49 O41 1.284 . S
C49 O50 1.273 . S
O50 C49 1.273 . S
O51 Zn42 1.977 . S
O51 C44 1.267 . S
C52 O53 1.160 . S
C52 O59 1.185 . S
O53 C52 1.160 . S
O54 Zn55 1.899 . S
O54 C62 1.284 . S
Zn55 O54 1.899 . S
Zn55 O56 2.032 . S
Zn55 O59 2.086 . S
Zn55 O64 1.977 . S
O56 Zn55 2.032 . S
O56 C60 1.278 . S
C57 O58 1.203 . S
C57 O64 1.267 . S
O58 C57 1.203 . S
O59 C52 1.185 . S
O59 Zn55 2.086 . S
C60 O56 1.278 . S
C60 O61 1.211 . S
O61 C60 1.211 . S
C62 O54 1.284 . S
C62 O63 1.273 . S
O63 C62 1.273 . S
O64 Zn55 1.977 . S
O64 C57 1.267 . S
C65 O66 1.160 . S
C65 O72 1.185 . S
O66 C65 1.160 . S
O67 Zn68 1.899 . S
O67 C75 1.284 . S
Zn68 O67 1.899 . S
Zn68 O69 2.032 . S
Zn68 O72 2.086 . S
Zn68 O77 1.977 . S
O69 Zn68 2.032 . S
O69 C73 1.278 . S
C70 O71 1.203 . S
C70 O77 1.267 . S
O71 C70 1.203 . S
O72 C65 1.185 . S
O72 Zn68 2.086 . S
C73 O69 1.278 . S
C73 O74 1.211 . S
O74 C73 1.211 . S
C75 O67 1.284 . S
C75 O76 1.273 . S
O76 C75 1.273 . S
O77 Zn68 1.977 . S
O77 C70 1.267 . S
C78 O79 1.160 . S
C78 O85 1.185 . S
O79 C78 1.160 . S
O80 Zn81 1.899 . S
O80 C88 1.284 . S
Zn81 O80 1.899 . S
Zn81 O82 2.032 . S
Zn81 O85 2.086 . S
Zn81 O90 1.977 . S
O82 Zn81 2.032 . S
O82 C86 1.278 . S
C83 O84 1.203 . S
C83 O90 1.267 . S
O84 C83 1.203 . S
O85 C78 1.185 . S
O85 Zn81 2.086 . S
C86 O82 1.278 . S
C86 O87 1.211 . S
O87 C86 1.211 . S
C88 O80 1.284 . S
C88 O89 1.273 . S
O89 C88 1.273 . S
O90 Zn81 1.977 . S
O90 C83 1.267 . S
C91 O92 1.160 . S
C91 O98 1.185 . S
O92 C91 1.160 . S
O93 Zn94 1.899 . S
O93 C101 1.284 . S
Zn94 O93 1.899 . S
Zn94 O95 2.032 . S
Zn94 O98 2.086 . S
Zn94 O103 1.977 . S
O95 Zn94 2.032 . S
O95 C99 1.278 . S
C96 O97 1.203 . S
C96 O103 1.267 . S
O97 C96 1.203 . S
O98 C91 1.185 . S
O98 Zn94 2.086 . S
C99 O95 1.278 . S
C99 O100 1.211 . S
O100 C99 1.211 . S
C101 O93 1.284 . S
C101 O102 1.273 . S
O102 C101 1.273 . S
O103 Zn94 1.977 . S
O103 C96 1.267 . S
C104 O105 1.160 . S
C104 O111 1.185 . S
O105 C104 1.160 . S
O106 Zn107 1.899 . S
O106 C114 1.284 . S
Zn107 O106 1.899 . S
Zn107 O108 2.032 . S
Zn107 O111 2.086 . S
Zn107 O116 1.977 . S
O108 Zn107 2.032 . S
O108 C112 1.278 . S
C109 O110 1.203 . S
C109 O116 1.267 . S
O110 C109 1.203 . S
O111 C104 1.185 . S
O111 Zn107 2.086 . S
C112 O108 1.278 . S
C112 O113 1.211 . S
O113 C112 1.211 . S
C114 O106 1.284 . S
C114 O115 1.273 . S
O115 C114 1.273 . S
O116 Zn107 1.977 . S
O116 C109 1.267 . S
C117 O118 1.160 . S
C117 O124 1.185 . S
O118 C117 1.160 . S
O119 Zn120 1.899 . S
O119 C127 1.284 . S
Zn120 O119 1.899 . S
Zn120 O121 2.032 . S
Zn120 O124 2.086 . S
Zn120 O129 1.977 . S
O121 Zn120 2.032 . S
O121 C125 1.278 . S
C122 O123 1.203 . S
C122 O129 1.267 . S
O123 C122 1.203 . S
O124 C117 1.185 . S
O124 Zn120 2.086 . S
C125 O121 1.278 . S
C125 O126 1.211 . S
O126 C125 1.211 . S
C127 O119 1.284 . S
C127 O128 1.273 . S
O128 C127 1.273 . S
O129 Zn120 1.977 . S
O129 C122 1.267 . S
C130 O131 1.160 . S
C130 O137 1.185 . S
O131 C130 1.160 . S
O132 Zn133 1.899 . S
O132 C140 1.284 . S
Zn133 O132 1.899 . S
Zn133 O134 2.032 . S
Zn133 O137 2.086 . S
Zn133 O142 1.977 . S
O134 Zn133 2.032 . S
O134 C138 1.278 . S
C135 O136 1.203 . S
C135 O142 1.267 . S
O136 C135 1.203 . S
O137 C130 1.185 . S
O137 Zn133 2.086 . S
C138 O134 1.278 . S
C138 O139 1.211 . S
O139 C138 1.211 . S
C140 O132 1.284 . S
C140 O141 1.273 . S
O141 C140 1.273 . S
O142 Zn133 1.977 . S
O142 C135 1.267 . S
C143 O144 1.160 . S
C143 O150 1.185 . S
O144 C143 1.160 . S
O145 Zn146 1.899 . S
O145 C153 1.284 . S
Zn146 O145 1.899 . S
Zn146 O147 2.032 . S
Zn146 O150 2.086 . S
Zn146 O155 1.977 . S
O147 Zn146 2.032 . S
O147 C151 1.278 . S
C148 O149 1.203 . S
C148 O155 1.267 . S
O149 C148 1.203 . S
O150 C143 1.185 . S
O150 Zn146 2.086 . S
C151 O147 1.278 . S
C151 O152 1.211 . S
O152 C151 1.211 . S
C153 O145 1.284 . S
C153 O154 1.273 . S
O154 C153 1.273 . S
O155 Zn146 1.977 . S
O155 C148 1.267 . S
C156 O157 1.160 . S
C156 O163 1.185 . S
O157 C156 1.160 . S
O158 Zn159 1.899 . S
O158 C166 1.284 . S
Zn159 O158 1.899 . S
Zn159 O160 2.032 . S
Zn159 O163 2.086 . S
Zn159 O168 1.977 . S
O160 Zn159 2.032 . S
O160 C164 1.278 . S
C161 O162 1.203 . S
C161 O168 1.267 . S
O162 C161 1.203 . S
O163 C156 1.185 . S
O163 Zn159 2.086 . S
C164 O160 1.278 . S
C164 O165 1.211 . S
O165 C164 1.211 . S
C166 O158 1.284 . S
C166 O167 1.273 . S
O167 C166 1.273 . S
O168 Zn159 1.977 . S
O168 C161 1.267 . S
C169 O170 1.160 . S
C169 O176 1.185 . S
O170 C169 1.160 . S
O171 Zn172 1.899 . S
O171 C179 1.284 . S
Zn172 O171 1.899 . S
Zn172 O173 2.032 . S
Zn172 O176 2.086 . S
Zn172 O181 1.977 . S
O173 Zn172 2.032 . S
O173 C177 1.278 . S
C174 O175 1.203 . S
C174 O181 1.267 . S
O175 C174 1.203 . S
O176 C169 1.185 . S
O176 Zn172 2.086 . S
C177 O173 1.278 . S
C177 O178 1.211 . S
O178 C177 1.211 . S
C179 O171 1.284 . S
C179 O180 1.273 . S
O180 C179 1.273 . S
O181 Zn172 1.977 . S
O181 C174 1.267 . S
C182 O183 1.160 . S
C182 O189 1.185 . S
O183 C182 1.160 . S
O184 Zn185 1.899 . S
O184 C192 1.284 . S
Zn185 O184 1.899 . S
Zn185 O186 2.032 . S
Zn185 O189 2.086 . S
Zn185 O194 1.977 . S
O186 Zn185 2.032 . S
O186 C190 1.278 . S
C187 O188 1.203 . S
C187 O194 1.267 . S
O188 C187 1.203 . S
O189 C182 1.185 . S
O189 Zn185 2.086 . S
C190 O186 1.278 . S
C190 O191 1.211 . S
O191 C190 1.211 . S
C192 O184 1.284 . S
C192 O193 1.273 . S
O193 C192 1.273 . S
O194 Zn185 1.977 . S
O194 C187 1.267 . S
C195 O196 1.160 . S
C195 O202 1.185 . S
O196 C195 1.160 . S
O197 Zn198 1.899 . S
O197 C205 1.284 . S
Zn198 O197 1.899 . S
Zn198 O199 2.032 . S
Zn198 O202 2.086 . S
Zn198 O207 1.977 . S
O199 Zn198 2.032 . S
O199 C203 1.278 . S
C200 O201 1.203 . S
C200 O207 1.267 . S
O201 C200 1.203 . S
O202 C195 1.185 . S
O202 Zn198 2.086 . S
C203 O199 1.278 . S
C203 O204 1.211 . S
O204 C203 1.211 . S
C205 O197 1.284 . S
C205 O206 1.273 . S
O206 C205 1.273 . S
O207 Zn198 1.977 . S
O207 C200 1.267 . S
C208 O209 1.160 . S
C208 O215 1.185 . S
O209 C208 1.160 . S
O210 Zn211 1.899 . S
O210 C218 1.284 . S
Zn211 O210 1.899 . S
Zn211 O212 2.032 . S
Zn211 O215 2.086 . S
Zn211 O220 1.977 . S
O212 Zn211 2.032 . S
O212 C216 1.278 . S
C213 O214 1.203 . S
C213 O220 1.267 . S
O214 C213 1.203 . S
O215 C208 1.185 . S
O215 Zn211 2.086 . S
C216 O212 1.278 . S
C216 O217 1.211 . S
O217 C216 1.211 . S
C218 O210 1.284 . S
C218 O219 1.273 . S
O219 C218 1.273 . S
O220 Zn211 1.977 . S
O220 C213 1.267 . S
C221 O222 1.160 . S
C221 O228 1.185 . S
O222 C221 1.160 . S
O223 Zn224 1.899 . S
O223 C231 1.284 . S
Zn224 O223 1.899 . S
Zn224 O225 2.032 . S
Zn224 O228 2.086 . S
Zn224 O233 1.977 . S
O225 Zn224 2.032 . S
O225 C229 1.278 . S
C226 O227 1.203 . S
C226 O233 1.267 . S
O227 C226 1.203 . S
O228 C221 1.185 . S
O228 Zn224 2.086 . S
C229 O225 1.278 . S
C229 O230 1.211 . S
O230 C229 1.211 . S
C231 O223 1.284 . S
C231 O232 1.273 . S
O232 C231 1.273 . S
O233 Zn224 1.977 . S
O233 C226 1.267 . S
C234 O235 1.160 . S
C234 O241 1.185 . S
O235 C234 1.160 . S
O236 Zn237 1.899 . S
O236 C244 1.284 . S
Zn237 O236 1.899 . S
Zn237 O238 2.032 . S
Zn237 O241 2.086 . S
Zn237 O246 1.977 . S
O238 Zn237 2.032 . S
O238 C242 1.278 . S
C239 O240 1.203 . S
C239 O246 1.267 . S
O240 C239 1.203 . S
O241 C234 1.185 . S
O241 Zn237 2.086 . S
C242 O238 1.278 . S
C242 O243 1.211 . S
O243 C242 1.211 . S
C244 O236 1.284 . S
C244 O245 1.273 . S
O245 C244 1.273 . S
O246 Zn237 1.977 . S
O246 C239 1.267 . S
C247 O248 1.160 . S
C247 O254 1.185 . S
O248 C247 1.160 . S
O249 Zn250 1.899 . S
O249 C257 1.284 . S
Zn250 O249 1.899 . S
Zn250 O251 2.032 . S
Zn250 O254 2.086 . S
Zn250 O259 1.977 . S
O251 Zn250 2.032 . S
O251 C255 1.278 . S
C252 O253 1.203 . S
C252 O259 1.267 . S
O253 C252 1.203 . S
O254 C247 1.185 . S
O254 Zn250 2.086 . S
C255 O251 1.278 . S
C255 O256 1.211 . S
O256 C255 1.211 . S
C257 O249 1.284 . S
C257 O258 1.273 . S
O258 C257 1.273 . S
O259 Zn250 1.977 . S
O259 C252 1.267 . S
C260 O261 1.160 . S
C260 O267 1.185 . S
O261 C260 1.160 . S
O262 Zn263 1.899 . S
O262 C270 1.284 . S
Zn263 O262 1.899 . S
Zn263 O264 2.032 . S
Zn263 O267 2.086 . S
Zn263 O272 1.977 . S
O264 Zn263 2.032 . S
O264 C268 1.278 . S
C265 O266 1.203 . S
C265 O272 1.267 . S
O266 C265 1.203 . S
O267 C260 1.185 . S
O267 Zn263 2.086 . S
C268 O264 1.278 . S
C268 O269 1.211 . S
O269 C268 1.211 . S
C270 O262 1.284 . S
C270 O271 1.273 . S
O271 C270 1.273 . S
O272 Zn263 1.977 . S
O272 C265 1.267 . S
C273 O274 1.160 . S
C273 O280 1.185 . S
O274 C273 1.160 . S
O275 Zn276 1.899 . S
O275 C283 1.284 . S
Zn276 O275 1.899 . S
Zn276 O277 2.032 . S
Zn276 O280 2.086 . S
Zn276 O285 1.977 . S
O277 Zn276 2.032 . S
O277 C281 1.278 . S
C278 O279 1.203 . S
C278 O285 1.267 . S
O279 C278 1.203 . S
O280 C273 1.185 . S
O280 Zn276 2.086 . S
C281 O277 1.278 . S
C281 O282 1.211 . S
O282 C281 1.211 . S
C283 O275 1.284 . S
C283 O284 1.273 . S
O284 C283 1.273 . S
O285 Zn276 1.977 . S
O285 C278 1.267 . S
C286 O287 1.160 . S
C286 O293 1.185 . S
O287 C286 1.160 . S
O288 Zn289 1.899 . S
O288 C296 1.284 . S
Zn289 O288 1.899 . S
Zn289 O290 2.032 . S
Zn289 O293 2.086 . S
Zn289 O298 1.977 . S
O290 Zn289 2.032 . S
O290 C294 1.278 . S
C291 O292 1.203 . S
C291 O298 1.267 . S
O292 C291 1.203 . S
O293 C286 1.185 . S
O293 Zn289 2.086 . S
C294 O290 1.278 . S
C294 O295 1.211 . S
O295 C294 1.211 . S
C296 O288 1.284 . S
C296 O297 1.273 . S
O297 C296 1.273 . S
O298 Zn289 1.977 . S
O298 C291 1.267 . S
C299 O300 1.160 . S
C299 O306 1.185 . S
O300 C299 1.160 . S
O301 Zn302 1.899 . S
O301 C309 1.284 . S
Zn302 O301 1.899 . S
Zn302 O303 2.032 . S
Zn302 O306 2.086 . S
Zn302 O311 1.977 . S
O303 Zn302 2.032 . S
O303 C307 1.278 . S
C304 O305 1.203 . S
C304 O311 1.267 . S
O305 C304 1.203 . S
O306 C299 1.185 . S
O306 Zn302 2.086 . S
C307 O303 1.278 . S
C307 O308 1.211 . S
O308 C307 1.211 . S
C309 O301 1.284 . S
C309 O310 1.273 . S
O310 C309 1.273 . S
O311 Zn302 1.977 . S
O311 C304 1.267 . S
H312 C320 0.929 . S
H313 C322 0.930 . S
H314 C324 0.930 . S
H315 C327 0.929 . S
H316 C330 0.930 . S
H317 C332 0.960 . S
H318 C332 0.960 . S
H319 C332 0.960 . S
C320 H312 0.929 . S
C320 C321 1.377 . S
C320 C322 1.384 . S
C321 C320 1.377 . S
C321 C327 1.390 . S
C322 H313 0.930 . S
C322 C320 1.384 . S
C322 C323 1.372 . S
C323 C322 1.372 . S
C323 C324 1.400 . S
C323 C328 1.490 . S
C324 H314 0.930 . S
C324 C323 1.400 . S
C324 C327 1.386 . S
H325 C341 0.930 . S
H326 C342 0.931 . S
C327 H315 0.929 . S
C327 C321 1.390 . S
C327 C324 1.386 . S
C328 C323 1.490 . S
C328 C330 1.395 . S
C328 C331 1.403 . S
H329 C335 0.930 . S
C330 H316 0.930 . S
C330 C328 1.395 . S
C330 C333 1.403 . S
C331 C328 1.403 . S
C331 C332 1.524 . S
C331 C335 1.400 . S
C332 H317 0.960 . S
C332 H318 0.960 . S
C332 H319 0.960 . S
C332 C331 1.524 . S
C333 C330 1.403 . S
C333 C334 1.392 . S
C333 C337 1.495 . S
C334 C333 1.392 . S
C334 C335 1.385 . S
C334 C336 1.478 . S
C335 H329 0.930 . S
C335 C331 1.400 . S
C335 C334 1.385 . S
C336 C334 1.478 . S
C336 C338 1.381 . S
C336 C342 1.383 . S
C337 C333 1.495 . S
C337 H343 0.959 . S
C337 H344 0.961 . S
C337 H345 0.960 . S
C338 C336 1.381 . S
C338 C339 1.394 . S
C338 H346 0.930 . S
C339 C338 1.394 . S
C339 C340 1.383 . S
C339 H347 0.929 . S
C340 C339 1.383 . S
C340 C341 1.377 . S
C341 H325 0.930 . S
C341 C340 1.377 . S
C341 C342 1.379 . S
C342 H326 0.931 . S
C342 C336 1.383 . S
C342 C341 1.379 . S
H343 C337 0.959 . S
H344 C337 0.961 . S
H345 C337 0.960 . S
H346 C338 0.930 . S
H347 C339 0.929 . S
H348 C356 0.929 . S
H349 C358 0.930 . S
H350 C360 0.930 . S
H351 C363 0.929 . S
H352 C366 0.930 . S
H353 C368 0.960 . S
H354 C368 0.960 . S
H355 C368 0.960 . S
C356 H348 0.929 . S
C356 C357 1.377 . S
C356 C358 1.384 . S
C357 C356 1.377 . S
C357 C363 1.390 . S
C358 H349 0.930 . S
C358 C356 1.384 . S
C358 C359 1.372 . S
C359 C358 1.372 . S
C359 C360 1.400 . S
C359 C364 1.490 . S
C360 H350 0.930 . S
C360 C359 1.400 . S
C360 C363 1.386 . S
H361 C377 0.930 . S
H362 C378 0.931 . S
C363 H351 0.929 . S
C363 C357 1.390 . S
C363 C360 1.386 . S
C364 C359 1.490 . S
C364 C366 1.395 . S
C364 C367 1.403 . S
H365 C371 0.930 . S
C366 H352 0.930 . S
C366 C364 1.395 . S
C366 C369 1.403 . S
C367 C364 1.403 . S
C367 C368 1.524 . S
C367 C371 1.400 . S
C368 H353 0.960 . S
C368 H354 0.960 . S
C368 H355 0.960 . S
C368 C367 1.524 . S
C369 C366 1.403 . S
C369 C370 1.392 . S
C369 C373 1.495 . S
C370 C369 1.392 . S
C370 C371 1.385 . S
C370 C372 1.478 . S
C371 H365 0.930 . S
C371 C367 1.400 . S
C371 C370 1.385 . S
C372 C370 1.478 . S
C372 C374 1.381 . S
C372 C378 1.383 . S
C373 C369 1.495 . S
C373 H379 0.959 . S
C373 H380 0.961 . S
C373 H381 0.960 . S
C374 C372 1.381 . S
C374 C375 1.394 . S
C374 H382 0.930 . S
C375 C374 1.394 . S
C375 C376 1.383 . S
C375 H383 0.929 . S
C376 C375 1.383 . S
C376 C377 1.377 . S
C377 H361 0.930 . S
C377 C376 1.377 . S
C377 C378 1.379 . S
C378 H362 0.931 . S
C378 C372 1.383 . S
C378 C377 1.379 . S
H379 C373 0.959 . S
H380 C373 0.961 . S
H381 C373 0.960 . S
H382 C374 0.930 . S
H383 C375 0.929 . S
H384 C392 0.929 . S
H385 C394 0.930 . S
H386 C396 0.930 . S
H387 C399 0.929 . S
H388 C402 0.930 . S
H389 C404 0.960 . S
H390 C404 0.960 . S
H391 C404 0.960 . S
C392 H384 0.929 . S
C392 C393 1.377 . S
C392 C394 1.384 . S
C393 C392 1.377 . S
C393 C399 1.390 . S
C394 H385 0.930 . S
C394 C392 1.384 . S
C394 C395 1.372 . S
C395 C394 1.372 . S
C395 C396 1.400 . S
C395 C400 1.490 . S
C396 H386 0.930 . S
C396 C395 1.400 . S
C396 C399 1.386 . S
H397 C413 0.930 . S
H398 C414 0.931 . S
C399 H387 0.929 . S
C399 C393 1.390 . S
C399 C396 1.386 . S
C400 C395 1.490 . S
C400 C402 1.395 . S
C400 C403 1.403 . S
H401 C407 0.930 . S
C402 H388 0.930 . S
C402 C400 1.395 . S
C402 C405 1.403 . S
C403 C400 1.403 . S
C403 C404 1.524 . S
C403 C407 1.400 . S
C404 H389 0.960 . S
C404 H390 0.960 . S
C404 H391 0.960 . S
C404 C403 1.524 . S
C405 C402 1.403 . S
C405 C406 1.392 . S
C405 C409 1.495 . S
C406 C405 1.392 . S
C406 C407 1.385 . S
C406 C408 1.478 . S
C407 H401 0.930 . S
C407 C403 1.400 . S
C407 C406 1.385 . S
C408 C406 1.478 . S
C408 C410 1.381 . S
C408 C414 1.383 . S
C409 C405 1.495 . S
C409 H415 0.959 . S
C409 H416 0.961 . S
C409 H417 0.960 . S
C410 C408 1.381 . S
C410 C411 1.394 . S
C410 H418 0.930 . S
C411 C410 1.394 . S
C411 C412 1.383 . S
C411 H419 0.929 . S
C412 C411 1.383 . S
C412 C413 1.377 . S
C413 H397 0.930 . S
C413 C412 1.377 . S
C413 C414 1.379 . S
C414 H398 0.931 . S
C414 C408 1.383 . S
C414 C413 1.379 . S
H415 C409 0.959 . S
H416 C409 0.961 . S
H417 C409 0.960 . S
H418 C410 0.930 . S
H419 C411 0.929 . S
H420 C428 0.929 . S
H421 C430 0.930 . S
H422 C432 0.930 . S
H423 C435 0.929 . S
H424 C438 0.930 . S
H425 C440 0.960 . S
H426 C440 0.960 . S
H427 C440 0.960 . S
C428 H420 0.929 . S
C428 C429 1.377 . S
C428 C430 1.384 . S
C429 C428 1.377 . S
C429 C435 1.390 . S
C430 H421 0.930 . S
C430 C428 1.384 . S
C430 C431 1.372 . S
C431 C430 1.372 . S
C431 C432 1.400 . S
C431 C436 1.490 . S
C432 H422 0.930 . S
C432 C431 1.400 . S
C432 C435 1.386 . S
H433 C449 0.930 . S
H434 C450 0.931 . S
C435 H423 0.929 . S
C435 C429 1.390 . S
C435 C432 1.386 . S
C436 C431 1.490 . S
C436 C438 1.395 . S
C436 C439 1.403 . S
H437 C443 0.930 . S
C438 H424 0.930 . S
C438 C436 1.395 . S
C438 C441 1.403 . S
C439 C436 1.403 . S
C439 C440 1.524 . S
C439 C443 1.400 . S
C440 H425 0.960 . S
C440 H426 0.960 . S
C440 H427 0.960 . S
C440 C439 1.524 . S
C441 C438 1.403 . S
C441 C442 1.392 . S
C441 C445 1.495 . S
C442 C441 1.392 . S
C442 C443 1.385 . S
C442 C444 1.478 . S
C443 H437 0.930 . S
C443 C439 1.400 . S
C443 C442 1.385 . S
C444 C442 1.478 . S
C444 C446 1.381 . S
C444 C450 1.383 . S
C445 C441 1.495 . S
C445 H451 0.959 . S
C445 H452 0.961 . S
C445 H453 0.960 . S
C446 C444 1.381 . S
C446 C447 1.394 . S
C446 H454 0.930 . S
C447 C446 1.394 . S
C447 C448 1.383 . S
C447 H455 0.929 . S
C448 C447 1.383 . S
C448 C449 1.377 . S
C449 H433 0.930 . S
C449 C448 1.377 . S
C449 C450 1.379 . S
C450 H434 0.931 . S
C450 C444 1.383 . S
C450 C449 1.379 . S
H451 C445 0.959 . S
H452 C445 0.961 . S
H453 C445 0.960 . S
H454 C446 0.930 . S
H455 C447 0.929 . S
H456 C464 0.929 . S
H457 C466 0.930 . S
H458 C468 0.930 . S
H459 C471 0.929 . S
H460 C474 0.930 . S
H461 C476 0.960 . S
H462 C476 0.960 . S
H463 C476 0.960 . S
C464 H456 0.929 . S
C464 C465 1.377 . S
C464 C466 1.384 . S
C465 C464 1.377 . S
C465 C471 1.390 . S
C466 H457 0.930 . S
C466 C464 1.384 . S
C466 C467 1.372 . S
C467 C466 1.372 . S
C467 C468 1.400 . S
C467 C472 1.490 . S
C468 H458 0.930 . S
C468 C467 1.400 . S
C468 C471 1.386 . S
H469 C485 0.930 . S
H470 C486 0.931 . S
C471 H459 0.929 . S
C471 C465 1.390 . S
C471 C468 1.386 . S
C472 C467 1.490 . S
C472 C474 1.395 . S
C472 C475 1.403 . S
H473 C479 0.930 . S
C474 H460 0.930 . S
C474 C472 1.395 . S
C474 C477 1.403 . S
C475 C472 1.403 . S
C475 C476 1.524 . S
C475 C479 1.400 . S
C476 H461 0.960 . S
C476 H462 0.960 . S
C476 H463 0.960 . S
C476 C475 1.524 . S
C477 C474 1.403 . S
C477 C478 1.392 . S
C477 C481 1.495 . S
C478 C477 1.392 . S
C478 C479 1.385 . S
C478 C480 1.478 . S
C479 H473 0.930 . S
C479 C475 1.400 . S
C479 C478 1.385 . S
C480 C478 1.478 . S
C480 C482 1.381 . S
C480 C486 1.383 . S
C481 C477 1.495 . S
C481 H487 0.959 . S
C481 H488 0.961 . S
C481 H489 0.960 . S
C482 C480 1.381 . S
C482 C483 1.394 . S
C482 H490 0.930 . S
C483 C482 1.394 . S
C483 C484 1.383 . S
C483 H491 0.929 . S
C484 C483 1.383 . S
C484 C485 1.377 . S
C485 H469 0.930 . S
C485 C484 1.377 . S
C485 C486 1.379 . S
C486 H470 0.931 . S
C486 C480 1.383 . S
C486 C485 1.379 . S
H487 C481 0.959 . S
H488 C481 0.961 . S
H489 C481 0.960 . S
H490 C482 0.930 . S
H491 C483 0.929 . S
H492 C500 0.929 . S
H493 C502 0.930 . S
H494 C504 0.930 . S
H495 C507 0.929 . S
H496 C510 0.930 . S
H497 C512 0.960 . S
H498 C512 0.960 . S
H499 C512 0.960 . S
C500 H492 0.929 . S
C500 C501 1.377 . S
C500 C502 1.384 . S
C501 C500 1.377 . S
C501 C507 1.390 . S
C502 H493 0.930 . S
C502 C500 1.384 . S
C502 C503 1.372 . S
C503 C502 1.372 . S
C503 C504 1.400 . S
C503 C508 1.490 . S
C504 H494 0.930 . S
C504 C503 1.400 . S
C504 C507 1.386 . S
H505 C521 0.930 . S
H506 C522 0.931 . S
C507 H495 0.929 . S
C507 C501 1.390 . S
C507 C504 1.386 . S
C508 C503 1.490 . S
C508 C510 1.395 . S
C508 C511 1.403 . S
H509 C515 0.930 . S
C510 H496 0.930 . S
C510 C508 1.395 . S
C510 C513 1.403 . S
C511 C508 1.403 . S
C511 C512 1.524 . S
C511 C515 1.400 . S
C512 H497 0.960 . S
C512 H498 0.960 . S
C512 H499 0.960 . S
C512 C511 1.524 . S
C513 C510 1.403 . S
C513 C514 1.392 . S
C513 C517 1.495 . S
C514 C513 1.392 . S
C514 C515 1.385 . S
C514 C516 1.478 . S
C515 H509 0.930 . S
C515 C511 1.400 . S
C515 C514 1.385 . S
C516 C514 1.478 . S
C516 C518 1.381 . S
C516 C522 1.383 . S
C517 C513 1.495 . S
C517 H523 0.959 . S
C517 H524 0.961 . S
C517 H525 0.960 . S
C518 C516 1.381 . S
C518 C519 1.394 . S
C518 H526 0.930 . S
C519 C518 1.394 . S
C519 C520 1.383 . S
C519 H527 0.929 . S
C520 C519 1.383 . S
C520 C521 1.377 . S
C521 H505 0.930 . S
C521 C520 1.377 . S
C521 C522 1.379 . S
C522 H506 0.931 . S
C522 C516 1.383 . S
C522 C521 1.379 . S
H523 C517 0.959 . S
H524 C517 0.961 . S
H525 C517 0.960 . S
H526 C518 0.930 . S
H527 C519 0.929 . S
H528 C536 0.929 . S
H529 C538 0.930 . S
H530 C540 0.930 . S
H531 C543 0.929 . S
H532 C546 0.930 . S
H533 C548 0.960 . S
H534 C548 0.960 . S
H535 C548 0.960 . S
C536 H528 0.929 . S
C536 C537 1.377 . S
C536 C538 1.384 . S
C537 C536 1.377 . S
C537 C543 1.390 . S
C538 H529 0.930 . S
C538 C536 1.384 . S
C538 C539 1.372 . S
C539 C538 1.372 . S
C539 C540 1.400 . S
C539 C544 1.490 . S
C540 H530 0.930 . S
C540 C539 1.400 . S
C540 C543 1.386 . S
H541 C557 0.930 . S
H542 C558 0.931 . S
C543 H531 0.929 . S
C543 C537 1.390 . S
C543 C540 1.386 . S
C544 C539 1.490 . S
C544 C546 1.395 . S
C544 C547 1.403 . S
H545 C551 0.930 . S
C546 H532 0.930 . S
C546 C544 1.395 . S
C546 C549 1.403 . S
C547 C544 1.403 . S
C547 C548 1.524 . S
C547 C551 1.400 . S
C548 H533 0.960 . S
C548 H534 0.960 . S
C548 H535 0.960 . S
C548 C547 1.524 . S
C549 C546 1.403 . S
C549 C550 1.392 . S
C549 C553 1.495 . S
C550 C549 1.392 . S
C550 C551 1.385 . S
C550 C552 1.478 . S
C551 H545 0.930 . S
C551 C547 1.400 . S
C551 C550 1.385 . S
C552 C550 1.478 . S
C552 C554 1.381 . S
C552 C558 1.383 . S
C553 C549 1.495 . S
C553 H559 0.959 . S
C553 H560 0.961 . S
C553 H561 0.960 . S
C554 C552 1.381 . S
C554 C555 1.394 . S
C554 H562 0.930 . S
C555 C554 1.394 . S
C555 C556 1.383 . S
C555 H563 0.929 . S
C556 C555 1.383 . S
C556 C557 1.377 . S
C557 H541 0.930 . S
C557 C556 1.377 . S
C557 C558 1.379 . S
C558 H542 0.931 . S
C558 C552 1.383 . S
C558 C557 1.379 . S
H559 C553 0.959 . S
H560 C553 0.961 . S
H561 C553 0.960 . S
H562 C554 0.930 . S
H563 C555 0.929 . S
H564 C572 0.929 . S
H565 C574 0.930 . S
H566 C576 0.930 . S
H567 C579 0.929 . S
H568 C582 0.930 . S
H569 C584 0.960 . S
H570 C584 0.960 . S
H571 C584 0.960 . S
C572 H564 0.929 . S
C572 C573 1.377 . S
C572 C574 1.384 . S
C573 C572 1.377 . S
C573 C579 1.390 . S
C574 H565 0.930 . S
C574 C572 1.384 . S
C574 C575 1.372 . S
C575 C574 1.372 . S
C575 C576 1.400 . S
C575 C580 1.490 . S
C576 H566 0.930 . S
C576 C575 1.400 . S
C576 C579 1.386 . S
H577 C593 0.930 . S
H578 C594 0.931 . S
C579 H567 0.929 . S
C579 C573 1.390 . S
C579 C576 1.386 . S
C580 C575 1.490 . S
C580 C582 1.395 . S
C580 C583 1.403 . S
H581 C587 0.930 . S
C582 H568 0.930 . S
C582 C580 1.395 . S
C582 C585 1.403 . S
C583 C580 1.403 . S
C583 C584 1.524 . S
C583 C587 1.400 . S
C584 H569 0.960 . S
C584 H570 0.960 . S
C584 H571 0.960 . S
C584 C583 1.524 . S
C585 C582 1.403 . S
C585 C586 1.392 . S
C585 C589 1.495 . S
C586 C585 1.392 . S
C586 C587 1.385 . S
C586 C588 1.478 . S
C587 H581 0.930 . S
C587 C583 1.400 . S
C587 C586 1.385 . S
C588 C586 1.478 . S
C588 C590 1.381 . S
C588 C594 1.383 . S
C589 C585 1.495 . S
C589 H595 0.959 . S
C589 H596 0.961 . S
C589 H597 0.960 . S
C590 C588 1.381 . S
C590 C591 1.394 . S
C590 H598 0.930 . S
C591 C590 1.394 . S
C591 C592 1.383 . S
C591 H599 0.929 . S
C592 C591 1.383 . S
C592 C593 1.377 . S
C593 H577 0.930 . S
C593 C592 1.377 . S
C593 C594 1.379 . S
C594 H578 0.931 . S
C594 C588 1.383 . S
C594 C593 1.379 . S
H595 C589 0.959 . S
H596 C589 0.961 . S
H597 C589 0.960 . S
H598 C590 0.930 . S
H599 C591 0.929 . S
H600 C608 0.929 . S
H601 C610 0.930 . S
H602 C612 0.930 . S
H603 C615 0.929 . S
H604 C618 0.930 . S
H605 C620 0.960 . S
H606 C620 0.960 . S
H607 C620 0.960 . S
C608 H600 0.929 . S
C608 C609 1.377 . S
C608 C610 1.384 . S
C609 C608 1.377 . S
C609 C615 1.390 . S
C610 H601 0.930 . S
C610 C608 1.384 . S
C610 C611 1.372 . S
C611 C610 1.372 . S
C611 C612 1.400 . S
C611 C616 1.490 . S
C612 H602 0.930 . S
C612 C611 1.400 . S
C612 C615 1.386 . S
H613 C629 0.930 . S
H614 C630 0.931 . S
C615 H603 0.929 . S
C615 C609 1.390 . S
C615 C612 1.386 . S
C616 C611 1.490 . S
C616 C618 1.395 . S
C616 C619 1.403 . S
H617 C623 0.930 . S
C618 H604 0.930 . S
C618 C616 1.395 . S
C618 C621 1.403 . S
C619 C616 1.403 . S
C619 C620 1.524 . S
C619 C623 1.400 . S
C620 H605 0.960 . S
C620 H606 0.960 . S
C620 H607 0.960 . S
C620 C619 1.524 . S
C621 C618 1.403 . S
C621 C622 1.392 . S
C621 C625 1.495 . S
C622 C621 1.392 . S
C622 C623 1.385 . S
C622 C624 1.478 . S
C623 H617 0.930 . S
C623 C619 1.400 . S
C623 C622 1.385 . S
C624 C622 1.478 . S
C624 C626 1.381 . S
C624 C630 1.383 . S
C625 C621 1.495 . S
C625 H631 0.959 . S
C625 H632 0.961 . S
C625 H633 0.960 . S
C626 C624 1.381 . S
C626 C627 1.394 . S
C626 H634 0.930 . S
C627 C626 1.394 . S
C627 C628 1.383 . S
C627 H635 0.929 . S
C628 C627 1.383 . S
C628 C629 1.377 . S
C629 H613 0.930 . S
C629 C628 1.377 . S
C629 C630 1.379 . S
C630 H614 0.931 . S
C630 C624 1.383 . S
C630 C629 1.379 . S
H631 C625 0.959 . S
H632 C625 0.961 . S
H633 C625 0.960 . S
H634 C626 0.930 . S
H635 C627 0.929 . S
H636 C644 0.929 . S
H637 C646 0.930 . S
H638 C648 0.930 . S
H639 C651 0.929 . S
H640 C654 0.930 . S
H641 C656 0.960 . S
H642 C656 0.960 . S
H643 C656 0.960 . S
C644 H636 0.929 . S
C644 C645 1.377 . S
C644 C646 1.384 . S
C645 C644 1.377 . S
C645 C651 1.390 . S
C646 H637 0.930 . S
C646 C644 1.384 . S
C646 C647 1.372 . S
C647 C646 1.372 . S
C647 C648 1.400 . S
C647 C652 1.490 . S
C648 H638 0.930 . S
C648 C647 1.400 . S
C648 C651 1.386 . S
H649 C665 0.930 . S
H650 C666 0.931 . S
C651 H639 0.929 . S
C651 C645 1.390 . S
C651 C648 1.386 . S
C652 C647 1.490 . S
C652 C654 1.395 . S
C652 C655 1.403 . S
H653 C659 0.930 . S
C654 H640 0.930 . S
C654 C652 1.395 . S
C654 C657 1.403 . S
C655 C652 1.403 . S
C655 C656 1.524 . S
C655 C659 1.400 . S
C656 H641 0.960 . S
C656 H642 0.960 . S
C656 H643 0.960 . S
C656 C655 1.524 . S
C657 C654 1.403 . S
C657 C658 1.392 . S
C657 C661 1.495 . S
C658 C657 1.392 . S
C658 C659 1.385 . S
C658 C660 1.478 . S
C659 H653 0.930 . S
C659 C655 1.400 . S
C659 C658 1.385 . S
C660 C658 1.478 . S
C660 C662 1.381 . S
C660 C666 1.383 . S
C661 C657 1.495 . S
C661 H667 0.959 . S
C661 H668 0.961 . S
C661 H669 0.960 . S
C662 C660 1.381 . S
C662 C663 1.394 . S
C662 H670 0.930 . S
C663 C662 1.394 . S
C663 C664 1.383 . S
C663 H671 0.929 . S
C664 C663 1.383 . S
C664 C665 1.377 . S
C665 H649 0.930 . S
C665 C664 1.377 . S
C665 C666 1.379 . S
C666 H650 0.931 . S
C666 C660 1.383 . S
C666 C665 1.379 . S
H667 C661 0.959 . S
H668 C661 0.961 . S
H669 C661 0.960 . S
H670 C662 0.930 . S
H671 C663 0.929 . S
H672 C680 0.929 . S
H673 C682 0.930 . S
H674 C684 0.930 . S
H675 C687 0.929 . S
H676 C690 0.930 . S
H677 C692 0.960 . S
H678 C692 0.960 . S
H679 C692 0.960 . S
C680 H672 0.929 . S
C680 C681 1.377 . S
C680 C682 1.384 . S
C681 C680 1.377 . S
C681 C687 1.390 . S
C682 H673 0.930 . S
C682 C680 1.384 . S
C682 C683 1.372 . S
C683 C682 1.372 . S
C683 C684 1.400 . S
C683 C688 1.490 . S
C684 H674 0.930 . S
C684 C683 1.400 . S
C684 C687 1.386 . S
H685 C701 0.930 . S
H686 C702 0.931 . S
C687 H675 0.929 . S
C687 C681 1.390 . S
C687 C684 1.386 . S
C688 C683 1.490 . S
C688 C690 1.395 . S
C688 C691 1.403 . S
H689 C695 0.930 . S
C690 H676 0.930 . S
C690 C688 1.395 . S
C690 C693 1.403 . S
C691 C688 1.403 . S
C691 C692 1.524 . S
C691 C695 1.400 . S
C692 H677 0.960 . S
C692 H678 0.960 . S
C692 H679 0.960 . S
C692 C691 1.524 . S
C693 C690 1.403 . S
C693 C694 1.392 . S
C693 C697 1.495 . S
C694 C693 1.392 . S
C694 C695 1.385 . S
C694 C696 1.478 . S
C695 H689 0.930 . S
C695 C691 1.400 . S
C695 C694 1.385 . S
C696 C694 1.478 . S
C696 C698 1.381 . S
C696 C702 1.383 . S
C697 C693 1.495 . S
C697 H703 0.959 . S
C697 H704 0.961 . S
C697 H705 0.960 . S
C698 C696 1.381 . S
C698 C699 1.394 . S
C698 H706 0.930 . S
C699 C698 1.394 . S
C699 C700 1.383 . S
C699 H707 0.929 . S
C700 C699 1.383 . S
C700 C701 1.377 . S
C701 H685 0.930 . S
C701 C700 1.377 . S
C701 C702 1.379 . S
C702 H686 0.931 . S
C702 C696 1.383 . S
C702 C701 1.379 . S
H703 C697 0.959 . S
H704 C697 0.961 . S
H705 C697 0.960 . S
H706 C698 0.930 . S
H707 C699 0.929 . S
H708 C716 0.929 . S
H709 C718 0.930 . S
H710 C720 0.930 . S
H711 C723 0.929 . S
H712 C726 0.930 . S
H713 C728 0.960 . S
H714 C728 0.960 . S
H715 C728 0.960 . S
C716 H708 0.929 . S
C716 C717 1.377 . S
C716 C718 1.384 . S
C717 C716 1.377 . S
C717 C723 1.390 . S
C718 H709 0.930 . S
C718 C716 1.384 . S
C718 C719 1.372 . S
C719 C718 1.372 . S
C719 C720 1.400 . S
C719 C724 1.490 . S
C720 H710 0.930 . S
C720 C719 1.400 . S
C720 C723 1.386 . S
H721 C737 0.930 . S
H722 C738 0.931 . S
C723 H711 0.929 . S
C723 C717 1.390 . S
C723 C720 1.386 . S
C724 C719 1.490 . S
C724 C726 1.395 . S
C724 C727 1.403 . S
H725 C731 0.930 . S
C726 H712 0.930 . S
C726 C724 1.395 . S
C726 C729 1.403 . S
C727 C724 1.403 . S
C727 C728 1.524 . S
C727 C731 1.400 . S
C728 H713 0.960 . S
C728 H714 0.960 . S
C728 H715 0.960 . S
C728 C727 1.524 . S
C729 C726 1.403 . S
C729 C730 1.392 . S
C729 C733 1.495 . S
C730 C729 1.392 . S
C730 C731 1.385 . S
C730 C732 1.478 . S
C731 H725 0.930 . S
C731 C727 1.400 . S
C731 C730 1.385 . S
C732 C730 1.478 . S
C732 C734 1.381 . S
C732 C738 1.383 . S
C733 C729 1.495 . S
C733 H739 0.959 . S
C733 H740 0.961 . S
C733 H741 0.960 . S
C734 C732 1.381 . S
C734 C735 1.394 . S
C734 H742 0.930 . S
C735 C734 1.394 . S
C735 C736 1.383 . S
C735 H743 0.929 . S
C736 C735 1.383 . S
C736 C737 1.377 . S
C737 H721 0.930 . S
C737 C736 1.377 . S
C737 C738 1.379 . S
C738 H722 0.931 . S
C738 C732 1.383 . S
C738 C737 1.379 . S
H739 C733 0.959 . S
H740 C733 0.961 . S
H741 C733 0.960 . S
H742 C734 0.930 . S
H743 C735 0.929 . S
H744 C752 0.929 . S
H745 C754 0.930 . S
H746 C756 0.930 . S
H747 C759 0.929 . S
H748 C762 0.930 . S
H749 C764 0.960 . S
H750 C764 0.960 . S
H751 C764 0.960 . S
C752 H744 0.929 . S
C752 C753 1.377 . S
C752 C754 1.384 . S
C753 C752 1.377 . S
C753 C759 1.390 . S
C754 H745 0.930 . S
C754 C752 1.384 . S
C754 C755 1.372 . S
C755 C754 1.372 . S
C755 C756 1.400 . S
C755 C760 1.490 . S
C756 H746 0.930 . S
C756 C755 1.400 . S
C756 C759 1.386 . S
H757 C773 0.930 . S
H758 C774 0.931 . S
C759 H747 0.929 . S
C759 C753 1.390 . S
C759 C756 1.386 . S
C760 C755 1.490 . S
C760 C762 1.395 1_556 S
C760 C763 1.403 . S
H761 C767 0.930 . S
C762 H748 0.930 . S
C762 C760 1.395 1_554 S
C762 C765 1.403 . S
C763 C760 1.403 . S
C763 C764 1.524 . S
C763 C767 1.400 . S
C764 H749 0.960 . S
C764 H750 0.960 . S
C764 H751 0.960 . S
C764 C763 1.524 . S
C765 C762 1.403 . S
C765 C766 1.392 . S
C765 C769 1.495 . S
C766 C765 1.392 . S
C766 C767 1.385 1_554 S
C766 C768 1.478 . S
C767 H761 0.930 . S
C767 C763 1.400 . S
C767 C766 1.385 1_556 S
C768 C766 1.478 . S
C768 C770 1.381 . S
C768 C774 1.383 . S
C769 C765 1.495 . S
C769 H775 0.959 . S
C769 H776 0.961 . S
C769 H777 0.960 . S
C770 C768 1.381 . S
C770 C771 1.394 . S
C770 H778 0.930 . S
C771 C770 1.394 . S
C771 C772 1.383 . S
C771 H779 0.929 . S
C772 C771 1.383 . S
C772 C773 1.377 . S
C773 H757 0.930 . S
C773 C772 1.377 . S
C773 C774 1.379 . S
C774 H758 0.931 . S
C774 C768 1.383 . S
C774 C773 1.379 . S
H775 C769 0.959 . S
H776 C769 0.961 . S
H777 C769 0.960 . S
H778 C770 0.930 . S
H779 C771 0.929 . S
H780 C788 0.929 . S
H781 C790 0.930 . S
H782 C792 0.930 . S
H783 C795 0.929 . S
H784 C798 0.930 . S
H785 C800 0.960 . S
H786 C800 0.960 . S
H787 C800 0.960 . S
C788 H780 0.929 . S
C788 C789 1.377 . S
C788 C790 1.384 . S
C789 C788 1.377 . S
C789 C795 1.390 . S
C790 H781 0.930 . S
C790 C788 1.384 . S
C790 C791 1.372 . S
C791 C790 1.372 . S
C791 C792 1.400 . S
C791 C796 1.490 . S
C792 H782 0.930 . S
C792 C791 1.400 . S
C792 C795 1.386 . S
H793 C809 0.930 . S
H794 C810 0.931 . S
C795 H783 0.929 . S
C795 C789 1.390 . S
C795 C792 1.386 . S
C796 C791 1.490 . S
C796 C798 1.395 . S
C796 C799 1.403 . S
H797 C803 0.930 . S
C798 H784 0.930 . S
C798 C796 1.395 . S
C798 C801 1.403 . S
C799 C796 1.403 . S
C799 C800 1.524 . S
C799 C803 1.400 . S
C800 H785 0.960 . S
C800 H786 0.960 . S
C800 H787 0.960 . S
C800 C799 1.524 . S
C801 C798 1.403 . S
C801 C802 1.392 . S
C801 C805 1.495 . S
C802 C801 1.392 . S
C802 C803 1.385 . S
C802 C804 1.478 . S
C803 H797 0.930 . S
C803 C799 1.400 . S
C803 C802 1.385 . S
C804 C802 1.478 . S
C804 C806 1.381 . S
C804 C810 1.383 . S
C805 C801 1.495 . S
C805 H811 0.959 . S
C805 H812 0.961 . S
C805 H813 0.960 . S
C806 C804 1.381 . S
C806 C807 1.394 . S
C806 H814 0.930 . S
C807 C806 1.394 . S
C807 C808 1.383 . S
C807 H815 0.929 . S
C808 C807 1.383 . S
C808 C809 1.377 . S
C809 H793 0.930 . S
C809 C808 1.377 . S
C809 C810 1.379 . S
C810 H794 0.931 . S
C810 C804 1.383 . S
C810 C809 1.379 . S
H811 C805 0.959 . S
H812 C805 0.961 . S
H813 C805 0.960 . S
H814 C806 0.930 . S
H815 C807 0.929 . S
H816 C824 0.929 . S
H817 C826 0.930 . S
H818 C828 0.930 . S
H819 C831 0.929 . S
H820 C834 0.930 . S
H821 C836 0.960 . S
H822 C836 0.960 . S
H823 C836 0.960 . S
C824 H816 0.929 . S
C824 C825 1.377 . S
C824 C826 1.384 . S
C825 C824 1.377 . S
C825 C831 1.390 . S
C826 H817 0.930 . S
C826 C824 1.384 . S
C826 C827 1.372 . S
C827 C826 1.372 . S
C827 C828 1.400 . S
C827 C832 1.490 . S
C828 H818 0.930 . S
C828 C827 1.400 . S
C828 C831 1.386 . S
H829 C845 0.930 . S
H830 C846 0.937 . S
C831 H819 0.929 . S
C831 C825 1.390 . S
C831 C828 1.386 . S
C832 C827 1.490 . S
C832 C834 1.395 . S
C832 C835 1.403 1_554 S
H833 C839 0.930 . S
C834 H820 0.930 . S
C834 C832 1.395 . S
C834 C837 1.403 . S
C835 C832 1.403 1_556 S
C835 C836 1.524 . S
C835 C839 1.400 . S
C836 H821 0.960 . S
C836 H822 0.960 . S
C836 H823 0.960 . S
C836 C835 1.524 . S
C837 C834 1.403 . S
C837 C838 1.392 1_554 S
C837 C841 1.495 . S
C838 C837 1.392 1_556 S
C838 C839 1.385 . S
C838 C840 1.478 . S
C839 H833 0.930 . S
C839 C835 1.400 . S
C839 C838 1.385 . S
C840 C838 1.478 . S
C840 C842 1.381 . S
C840 C846 1.383 . S
C841 C837 1.495 . S
C841 H847 0.959 . S
C841 H848 0.961 . S
C841 H849 0.960 . S
C842 C840 1.381 . S
C842 C843 1.394 . S
C842 H850 0.930 . S
C843 C842 1.394 . S
C843 C844 1.383 . S
C843 H851 0.929 . S
C844 C843 1.383 . S
C844 C845 1.377 . S
C845 H829 0.930 . S
C845 C844 1.377 . S
C845 C846 1.379 . S
C846 H830 0.937 . S
C846 C840 1.383 . S
C846 C845 1.379 . S
H847 C841 0.959 . S
H848 C841 0.961 . S
H849 C841 0.960 . S
H850 C842 0.930 . S
H851 C843 0.929 . S
H852 C860 0.929 . S
H853 C862 0.930 . S
H854 C864 0.930 . S
H855 C867 0.929 . S
H856 C870 0.930 . S
H857 C872 0.960 . S
H858 C872 0.960 . S
H859 C872 0.960 . S
C860 H852 0.929 . S
C860 C861 1.377 . S
C860 C862 1.384 . S
C861 C860 1.377 . S
C861 C867 1.390 . S
C862 H853 0.930 . S
C862 C860 1.384 . S
C862 C863 1.372 . S
C863 C862 1.372 . S
C863 C864 1.400 . S
C863 C868 1.490 . S
C864 H854 0.930 . S
C864 C863 1.400 . S
C864 C867 1.386 . S
H865 C881 0.930 . S
H866 C882 0.931 . S
C867 H855 0.929 . S
C867 C861 1.390 . S
C867 C864 1.386 . S
C868 C863 1.490 . S
C868 C870 1.395 . S
C868 C871 1.403 . S
H869 C875 0.930 . S
C870 H856 0.930 . S
C870 C868 1.395 . S
C870 C873 1.403 . S
C871 C868 1.403 . S
C871 C872 1.524 . S
C871 C875 1.400 . S
C872 H857 0.960 . S
C872 H858 0.960 . S
C872 H859 0.960 . S
C872 C871 1.524 . S
C873 C870 1.403 . S
C873 C874 1.392 . S
C873 C877 1.495 . S
C874 C873 1.392 . S
C874 C875 1.385 . S
C874 C876 1.478 . S
C875 H869 0.930 . S
C875 C871 1.400 . S
C875 C874 1.385 . S
C876 C874 1.478 . S
C876 C878 1.381 . S
C876 C882 1.383 . S
C877 C873 1.495 . S
C877 H883 0.959 . S
C877 H884 0.961 . S
C877 H885 0.960 . S
C878 C876 1.381 . S
C878 C879 1.394 . S
C878 H886 0.930 . S
C879 C878 1.394 . S
C879 C880 1.383 . S
C879 H887 0.929 . S
C880 C879 1.383 . S
C880 C881 1.377 . S
C881 H865 0.930 . S
C881 C880 1.377 . S
C881 C882 1.379 . S
C882 H866 0.931 . S
C882 C876 1.383 . S
C882 C881 1.379 . S
H883 C877 0.959 . S
H884 C877 0.961 . S
H885 C877 0.960 . S
H886 C878 0.930 . S
H887 C879 0.929 . S
H888 C896 0.929 . S
H889 C898 0.930 . S
H890 C900 0.930 . S
H891 C903 0.929 . S
H892 C906 0.930 . S
H893 C908 0.960 . S
H894 C908 0.960 . S
H895 C908 0.960 . S
C896 H888 0.929 . S
C896 C897 1.377 . S
C896 C898 1.384 . S
C897 C896 1.377 . S
C897 C903 1.390 . S
C898 H889 0.930 . S
C898 C896 1.384 . S
C898 C899 1.372 . S
C899 C898 1.372 . S
C899 C900 1.400 . S
C899 C904 1.490 . S
C900 H890 0.930 . S
C900 C899 1.400 . S
C900 C903 1.386 . S
H901 C917 0.930 . S
H902 C918 0.931 . S
C903 H891 0.929 . S
C903 C897 1.390 . S
C903 C900 1.386 . S
C904 C899 1.490 . S
C904 C906 1.395 1_556 S
C904 C907 1.403 . S
H905 C911 0.930 . S
C906 H892 0.930 . S
C906 C904 1.395 1_554 S
C906 C909 1.403 . S
C907 C904 1.403 . S
C907 C908 1.524 . S
C907 C911 1.400 . S
C908 H893 0.960 . S
C908 H894 0.960 . S
C908 H895 0.960 . S
C908 C907 1.524 . S
C909 C906 1.403 . S
C909 C910 1.392 . S
C909 C913 1.495 . S
C910 C909 1.392 . S
C910 C911 1.385 1_554 S
C910 C912 1.478 . S
C911 H905 0.930 . S
C911 C907 1.400 . S
C911 C910 1.385 1_556 S
C912 C910 1.478 . S
C912 C914 1.381 . S
C912 C918 1.383 . S
C913 C909 1.495 . S
C913 H919 0.959 . S
C913 H920 0.961 . S
C913 H921 0.960 . S
C914 C912 1.381 . S
C914 C915 1.394 . S
C914 H922 0.930 . S
C915 C914 1.394 . S
C915 C916 1.383 . S
C915 H923 0.929 . S
C916 C915 1.383 . S
C916 C917 1.377 . S
C917 H901 0.930 . S
C917 C916 1.377 . S
C917 C918 1.379 . S
C918 H902 0.931 . S
C918 C912 1.383 . S
C918 C917 1.379 . S
H919 C913 0.959 . S
H920 C913 0.961 . S
H921 C913 0.960 . S
H922 C914 0.930 . S
H923 C915 0.929 . S
H924 C932 0.929 . S
H925 C934 0.930 . S
H926 C936 0.930 . S
H927 C939 0.929 . S
H928 C942 0.930 . S
H929 C944 0.960 . S
H930 C944 0.960 . S
H931 C944 0.960 . S
C932 H924 0.929 . S
C932 C933 1.377 . S
C932 C934 1.384 . S
C933 C932 1.377 . S
C933 C939 1.390 . S
C934 H925 0.930 . S
C934 C932 1.384 . S
C934 C935 1.372 . S
C935 C934 1.372 . S
C935 C936 1.400 . S
C935 C940 1.490 . S
C936 H926 0.930 . S
C936 C935 1.400 . S
C936 C939 1.386 . S
H937 C953 0.930 . S
H938 C954 0.931 . S
C939 H927 0.929 . S
C939 C933 1.390 . S
C939 C936 1.386 . S
C940 C935 1.490 . S
C940 C942 1.395 . S
C940 C943 1.403 . S
H941 C947 0.930 . S
C942 H928 0.930 . S
C942 C940 1.395 . S
C942 C945 1.403 . S
C943 C940 1.403 . S
C943 C944 1.524 . S
C943 C947 1.400 . S
C944 H929 0.960 . S
C944 H930 0.960 . S
C944 H931 0.960 . S
C944 C943 1.524 . S
C945 C942 1.403 . S
C945 C946 1.392 . S
C945 C949 1.495 . S
C946 C945 1.392 . S
C946 C947 1.385 . S
C946 C948 1.478 . S
C947 H941 0.930 . S
C947 C943 1.400 . S
C947 C946 1.385 . S
C948 C946 1.478 . S
C948 C950 1.381 . S
C948 C954 1.383 . S
C949 C945 1.495 . S
C949 H955 0.959 . S
C949 H956 0.961 . S
C949 H957 0.960 . S
C950 C948 1.381 . S
C950 C951 1.394 . S
C950 H958 0.930 . S
C951 C950 1.394 . S
C951 C952 1.383 . S
C951 H959 0.929 . S
C952 C951 1.383 . S
C952 C953 1.377 . S
C953 H937 0.930 . S
C953 C952 1.377 . S
C953 C954 1.379 . S
C954 H938 0.931 . S
C954 C948 1.383 . S
C954 C953 1.379 . S
H955 C949 0.959 . S
H956 C949 0.961 . S
H957 C949 0.960 . S
H958 C950 0.930 . S
H959 C951 0.929 . S
H960 C968 0.929 . S
H961 C970 0.930 1_556 S
H962 C972 0.930 . S
H963 C975 0.929 . S
H964 C978 0.930 . S
H965 C980 0.960 . S
H966 C980 0.960 . S
H967 C980 0.960 . S
C968 H960 0.929 . S
C968 C969 1.377 . S
C968 C970 1.384 . S
C969 C968 1.377 . S
C969 C975 1.390 . S
C970 H961 0.930 1_554 S
C970 C968 1.384 . S
C970 C971 1.372 . S
C971 C970 1.372 . S
C971 C972 1.400 . S
C971 C976 1.490 . S
C972 H962 0.930 . S
C972 C971 1.400 . S
C972 C975 1.386 . S
H973 C989 0.930 . S
H974 C990 0.931 1_554 S
C975 H963 0.929 . S
C975 C969 1.390 . S
C975 C972 1.386 . S
C976 C971 1.490 . S
C976 C978 1.395 1_554 S
C976 C979 1.403 . S
H977 C983 0.930 1_554 S
C978 H964 0.930 . S
C978 C976 1.395 1_556 S
C978 C981 1.403 . S
C979 C976 1.403 . S
C979 C980 1.524 . S
C979 C983 1.396 1_554 S
C980 H965 0.960 . S
C980 H966 0.960 . S
C980 H967 0.960 . S
C980 C979 1.524 . S
C981 C978 1.403 . S
C981 C982 1.392 . S
C981 C985 1.495 . S
C982 C981 1.392 . S
C982 C983 1.390 . S
C982 C984 1.478 . S
C983 H977 0.930 1_556 S
C983 C979 1.396 1_556 S
C983 C982 1.390 . S
C984 C982 1.478 . S
C984 C986 1.381 . S
C984 C990 1.383 . S
C985 C981 1.495 . S
C985 H991 0.959 . S
C985 H992 0.961 . S
C985 H993 0.960 . S
C986 C984 1.381 . S
C986 C987 1.394 . S
C986 H994 0.930 . S
C987 C986 1.394 . S
C987 C988 1.383 . S
C987 H995 0.929 . S
C988 C987 1.383 . S
C988 C989 1.377 . S
C989 H973 0.930 . S
C989 C988 1.377 . S
C989 C990 1.379 . S
C990 H974 0.931 1_556 S
C990 C984 1.383 . S
C990 C989 1.379 . S
H991 C985 0.959 . S
H992 C985 0.961 . S
H993 C985 0.960 . S
H994 C986 0.930 . S
H995 C987 0.929 . S
H996 C1004 0.929 . S
H997 C1006 0.930 . S
H998 C1008 0.930 . S
H999 C1011 0.929 . S
H1000 C1014 0.930 . S
H1001 C1016 0.960 . S
H1002 C1016 0.960 . S
H1003 C1016 0.960 . S
C1004 H996 0.929 . S
C1004 C1005 1.377 . S
C1004 C1006 1.384 . S
C1005 C1004 1.377 . S
C1005 C1011 1.390 . S
C1006 H997 0.930 . S
C1006 C1004 1.384 . S
C1006 C1007 1.372 . S
C1007 C1006 1.372 . S
C1007 C1008 1.400 . S
C1007 C1012 1.490 . S
C1008 H998 0.930 . S
C1008 C1007 1.400 . S
C1008 C1011 1.386 . S
H1009 C1025 0.930 . S
H1010 C1026 0.931 . S
C1011 H999 0.929 . S
C1011 C1005 1.390 . S
C1011 C1008 1.386 . S
C1012 C1007 1.490 . S
C1012 C1014 1.395 . S
C1012 C1015 1.403 . S
H1013 C1019 0.930 . S
C1014 H1000 0.930 . S
C1014 C1012 1.395 . S
C1014 C1017 1.403 . S
C1015 C1012 1.403 . S
C1015 C1016 1.524 . S
C1015 C1019 1.400 . S
C1016 H1001 0.960 . S
C1016 H1002 0.960 . S
C1016 H1003 0.960 . S
C1016 C1015 1.524 . S
C1017 C1014 1.403 . S
C1017 C1018 1.392 . S
C1017 C1021 1.495 . S
C1018 C1017 1.392 . S
C1018 C1019 1.385 . S
C1018 C1020 1.478 . S
C1019 H1013 0.930 . S
C1019 C1015 1.400 . S
C1019 C1018 1.385 . S
C1020 C1018 1.478 . S
C1020 C1022 1.381 . S
C1020 C1026 1.383 . S
C1021 C1017 1.495 . S
C1021 H1027 0.959 . S
C1021 H1028 0.961 . S
C1021 H1029 0.960 . S
C1022 C1020 1.381 . S
C1022 C1023 1.394 . S
C1022 H1030 0.930 . S
C1023 C1022 1.394 . S
C1023 C1024 1.383 . S
C1023 H1031 0.929 . S
C1024 C1023 1.383 . S
C1024 C1025 1.377 . S
C1025 H1009 0.930 . S
C1025 C1024 1.377 . S
C1025 C1026 1.379 . S
C1026 H1010 0.931 . S
C1026 C1020 1.383 . S
C1026 C1025 1.379 . S
H1027 C1021 0.959 . S
H1028 C1021 0.961 . S
H1029 C1021 0.960 . S
H1030 C1022 0.930 . S
H1031 C1023 0.929 . S
H1032 C1040 0.929 . S
H1033 C1042 0.930 . S
H1034 C1044 0.930 . S
H1035 C1047 0.929 . S
H1036 C1050 0.930 . S
H1037 C1052 0.960 . S
H1038 C1052 0.960 . S
H1039 C1052 0.960 . S
C1040 H1032 0.929 . S
C1040 C1041 1.377 . S
C1040 C1042 1.384 . S
C1041 C1040 1.377 . S
C1041 C1047 1.390 . S
C1042 H1033 0.930 . S
C1042 C1040 1.384 . S
C1042 C1043 1.372 . S
C1043 C1042 1.372 . S
C1043 C1044 1.400 . S
C1043 C1048 1.490 . S
C1044 H1034 0.930 . S
C1044 C1043 1.400 . S
C1044 C1047 1.386 . S
H1045 C1061 0.930 . S
H1046 C1062 0.931 . S
C1047 H1035 0.929 . S
C1047 C1041 1.390 . S
C1047 C1044 1.386 . S
C1048 C1043 1.490 . S
C1048 C1050 1.395 . S
C1048 C1051 1.403 1_556 S
H1049 C1055 0.930 . S
C1050 H1036 0.930 . S
C1050 C1048 1.395 . S
C1050 C1053 1.403 . S
C1051 C1048 1.403 1_554 S
C1051 C1052 1.524 . S
C1051 C1055 1.400 . S
C1052 H1037 0.960 . S
C1052 H1038 0.960 . S
C1052 H1039 0.960 . S
C1052 C1051 1.524 . S
C1053 C1050 1.403 . S
C1053 C1054 1.392 1_556 S
C1053 C1057 1.495 . S
C1054 C1053 1.392 1_554 S
C1054 C1055 1.385 . S
C1054 C1056 1.478 . S
C1055 H1049 0.930 . S
C1055 C1051 1.400 . S
C1055 C1054 1.385 . S
C1056 C1054 1.478 . S
C1056 C1058 1.381 . S
C1056 C1062 1.383 . S
C1057 C1053 1.495 . S
C1057 H1063 0.959 . S
C1057 H1064 0.961 . S
C1057 H1065 0.960 . S
C1058 C1056 1.381 . S
C1058 C1059 1.394 . S
C1058 H1066 0.930 . S
C1059 C1058 1.394 . S
C1059 C1060 1.383 . S
C1059 H1067 0.929 . S
C1060 C1059 1.383 . S
C1060 C1061 1.377 . S
C1061 H1045 0.930 . S
C1061 C1060 1.377 . S
C1061 C1062 1.379 . S
C1062 H1046 0.931 . S
C1062 C1056 1.383 . S
C1062 C1061 1.379 . S
H1063 C1057 0.959 . S
H1064 C1057 0.961 . S
H1065 C1057 0.960 . S
H1066 C1058 0.930 . S
H1067 C1059 0.929 . S
H1068 C1076 0.929 . S
H1069 C1078 0.930 . S
H1070 C1080 0.930 . S
H1071 C1083 0.929 . S
H1072 C1086 0.930 . S
H1073 C1088 0.960 . S
H1074 C1088 0.960 . S
H1075 C1088 0.960 . S
C1076 H1068 0.929 . S
C1076 C1077 1.377 . S
C1076 C1078 1.384 . S
C1077 C1076 1.377 . S
C1077 C1083 1.390 . S
C1078 H1069 0.930 . S
C1078 C1076 1.384 . S
C1078 C1079 1.372 . S
C1079 C1078 1.372 . S
C1079 C1080 1.400 . S
C1079 C1084 1.490 . S
C1080 H1070 0.930 . S
C1080 C1079 1.400 . S
C1080 C1083 1.386 . S
H1081 C1097 0.930 . S
H1082 C1098 0.931 . S
C1083 H1071 0.929 . S
C1083 C1077 1.390 . S
C1083 C1080 1.386 . S
C1084 C1079 1.490 . S
C1084 C1086 1.395 . S
C1084 C1087 1.403 . S
H1085 C1091 0.930 . S
C1086 H1072 0.930 . S
C1086 C1084 1.395 . S
C1086 C1089 1.403 . S
C1087 C1084 1.403 . S
C1087 C1088 1.524 . S
C1087 C1091 1.400 . S
C1088 H1073 0.960 . S
C1088 H1074 0.960 . S
C1088 H1075 0.960 . S
C1088 C1087 1.524 . S
C1089 C1086 1.403 . S
C1089 C1090 1.392 . S
C1089 C1093 1.495 . S
C1090 C1089 1.392 . S
C1090 C1091 1.385 . S
C1090 C1092 1.478 . S
C1091 H1085 0.930 . S
C1091 C1087 1.400 . S
C1091 C1090 1.385 . S
C1092 C1090 1.478 . S
C1092 C1094 1.381 . S
C1092 C1098 1.383 . S
C1093 C1089 1.495 . S
C1093 H1099 0.959 . S
C1093 H1100 0.961 . S
C1093 H1101 0.960 . S
C1094 C1092 1.381 . S
C1094 C1095 1.394 . S
C1094 H1102 0.930 . S
C1095 C1094 1.394 . S
C1095 C1096 1.383 . S
C1095 H1103 0.929 . S
C1096 C1095 1.383 . S
C1096 C1097 1.377 . S
C1097 H1081 0.930 . S
C1097 C1096 1.377 . S
C1097 C1098 1.379 . S
C1098 H1082 0.931 . S
C1098 C1092 1.383 . S
C1098 C1097 1.379 . S
H1099 C1093 0.959 . S
H1100 C1093 0.961 . S
H1101 C1093 0.960 . S
H1102 C1094 0.930 . S
H1103 C1095 0.929 . S
H1104 C1112 0.929 . S
H1105 C1114 0.930 . S
H1106 C1116 0.930 . S
H1107 C1119 0.929 . S
H1108 C1122 0.930 . S
H1109 C1124 0.960 . S
H1110 C1124 0.960 . S
H1111 C1124 0.960 . S
C1112 H1104 0.929 . S
C1112 C1113 1.377 . S
C1112 C1114 1.384 . S
C1113 C1112 1.377 . S
C1113 C1119 1.390 . S
C1114 H1105 0.930 . S
C1114 C1112 1.384 . S
C1114 C1115 1.372 . S
C1115 C1114 1.372 . S
C1115 C1116 1.400 . S
C1115 C1120 1.490 . S
C1116 H1106 0.930 . S
C1116 C1115 1.400 . S
C1116 C1119 1.386 . S
H1117 C1133 0.930 . S
H1118 C1134 0.931 . S
C1119 H1107 0.929 . S
C1119 C1113 1.390 . S
C1119 C1116 1.386 . S
C1120 C1115 1.490 . S
C1120 C1122 1.395 1_556 S
C1120 C1123 1.403 . S
H1121 C1127 0.930 . S
C1122 H1108 0.930 . S
C1122 C1120 1.395 1_554 S
C1122 C1125 1.403 . S
C1123 C1120 1.403 . S
C1123 C1124 1.524 . S
C1123 C1127 1.400 . S
C1124 H1109 0.960 . S
C1124 H1110 0.960 . S
C1124 H1111 0.960 . S
C1124 C1123 1.524 . S
C1125 C1122 1.403 . S
C1125 C1126 1.392 . S
C1125 C1129 1.495 . S
C1126 C1125 1.392 . S
C1126 C1127 1.385 1_554 S
C1126 C1128 1.478 . S
C1127 H1121 0.930 . S
C1127 C1123 1.400 . S
C1127 C1126 1.385 1_556 S
C1128 C1126 1.478 . S
C1128 C1130 1.381 . S
C1128 C1134 1.383 . S
C1129 C1125 1.495 . S
C1129 H1135 0.959 . S
C1129 H1136 0.961 . S
C1129 H1137 0.960 . S
C1130 C1128 1.381 . S
C1130 C1131 1.394 . S
C1130 H1138 0.930 . S
C1131 C1130 1.394 . S
C1131 C1132 1.383 . S
C1131 H1139 0.929 . S
C1132 C1131 1.383 . S
C1132 C1133 1.377 . S
C1133 H1117 0.930 . S
C1133 C1132 1.377 . S
C1133 C1134 1.379 . S
C1134 H1118 0.931 . S
C1134 C1128 1.383 . S
C1134 C1133 1.379 . S
H1135 C1129 0.959 . S
H1136 C1129 0.961 . S
H1137 C1129 0.960 . S
H1138 C1130 0.930 . S
H1139 C1131 0.929 . S
H1140 C1148 0.929 . S
H1141 C1150 0.930 . S
H1142 C1152 0.930 . S
H1143 C1155 0.929 . S
H1144 C1158 0.930 . S
H1145 C1160 0.960 . S
H1146 C1160 0.960 . S
H1147 C1160 0.960 . S
C1148 H1140 0.929 . S
C1148 C1149 1.377 . S
C1148 C1150 1.384 . S
C1149 C1148 1.377 . S
C1149 C1155 1.390 . S
C1150 H1141 0.930 . S
C1150 C1148 1.384 . S
C1150 C1151 1.372 . S
C1151 C1150 1.372 . S
C1151 C1152 1.400 . S
C1151 C1156 1.490 . S
C1152 H1142 0.930 . S
C1152 C1151 1.400 . S
C1152 C1155 1.386 . S
H1153 C1169 0.930 . S
H1154 C1170 0.931 . S
C1155 H1143 0.929 . S
C1155 C1149 1.390 . S
C1155 C1152 1.386 . S
C1156 C1151 1.490 . S
C1156 C1158 1.395 . S
C1156 C1159 1.403 . S
H1157 C1163 0.930 . S
C1158 H1144 0.930 . S
C1158 C1156 1.395 . S
C1158 C1161 1.403 . S
C1159 C1156 1.403 . S
C1159 C1160 1.524 . S
C1159 C1163 1.400 . S
C1160 H1145 0.960 . S
C1160 H1146 0.960 . S
C1160 H1147 0.960 . S
C1160 C1159 1.524 . S
C1161 C1158 1.403 . S
C1161 C1162 1.392 . S
C1161 C1165 1.495 . S
C1162 C1161 1.392 . S
C1162 C1163 1.385 . S
C1162 C1164 1.478 . S
C1163 H1157 0.930 . S
C1163 C1159 1.400 . S
C1163 C1162 1.385 . S
C1164 C1162 1.478 . S
C1164 C1166 1.381 . S
C1164 C1170 1.383 . S
C1165 C1161 1.495 . S
C1165 H1171 0.959 . S
C1165 H1172 0.961 . S
C1165 H1173 0.960 . S
C1166 C1164 1.381 . S
C1166 C1167 1.394 . S
C1166 H1174 0.930 . S
C1167 C1166 1.394 . S
C1167 C1168 1.383 . S
C1167 H1175 0.929 . S
C1168 C1167 1.383 . S
C1168 C1169 1.377 . S
C1169 H1153 0.930 . S
C1169 C1168 1.377 . S
C1169 C1170 1.379 . S
C1170 H1154 0.931 . S
C1170 C1164 1.383 . S
C1170 C1169 1.379 . S
H1171 C1165 0.959 . S
H1172 C1165 0.961 . S
H1173 C1165 0.960 . S
H1174 C1166 0.930 . S
H1175 C1167 0.929 . S
H1176 C1184 0.929 . S
H1177 C1186 0.930 . S
H1178 C1188 0.930 . S
H1179 C1191 0.929 . S
H1180 C1194 0.930 . S
H1181 C1196 0.960 . S
H1182 C1196 0.960 . S
H1183 C1196 0.960 . S
C1184 H1176 0.929 . S
C1184 C1185 1.377 . S
C1184 C1186 1.384 . S
C1185 C1184 1.377 . S
C1185 C1191 1.390 . S
C1186 H1177 0.930 . S
C1186 C1184 1.384 . S
C1186 C1187 1.372 . S
C1187 C1186 1.372 . S
C1187 C1188 1.400 . S
C1187 C1192 1.490 . S
C1188 H1178 0.930 . S
C1188 C1187 1.400 . S
C1188 C1191 1.386 . S
H1189 C1205 0.930 . S
H1190 C1206 0.931 . S
C1191 H1179 0.929 . S
C1191 C1185 1.390 . S
C1191 C1188 1.386 . S
C1192 C1187 1.490 . S
C1192 C1194 1.395 . S
C1192 C1195 1.403 . S
H1193 C1199 0.930 . S
C1194 H1180 0.930 . S
C1194 C1192 1.395 . S
C1194 C1197 1.403 . S
C1195 C1192 1.403 . S
C1195 C1196 1.524 . S
C1195 C1199 1.400 . S
C1196 H1181 0.960 . S
C1196 H1182 0.960 . S
C1196 H1183 0.960 . S
C1196 C1195 1.524 . S
C1197 C1194 1.403 . S
C1197 C1198 1.392 . S
C1197 C1201 1.495 . S
C1198 C1197 1.392 . S
C1198 C1199 1.385 . S
C1198 C1200 1.478 . S
C1199 H1193 0.930 . S
C1199 C1195 1.400 . S
C1199 C1198 1.385 . S
C1200 C1198 1.478 . S
C1200 C1202 1.381 . S
C1200 C1206 1.383 . S
C1201 C1197 1.495 . S
C1201 H1207 0.959 . S
C1201 H1208 0.961 . S
C1201 H1209 0.960 . S
C1202 C1200 1.381 . S
C1202 C1203 1.394 . S
C1202 H1210 0.930 . S
C1203 C1202 1.394 . S
C1203 C1204 1.383 . S
C1203 H1211 0.929 . S
C1204 C1203 1.383 . S
C1204 C1205 1.377 . S
C1205 H1189 0.930 . S
C1205 C1204 1.377 . S
C1205 C1206 1.379 . S
C1206 H1190 0.931 . S
C1206 C1200 1.383 . S
C1206 C1205 1.379 . S
H1207 C1201 0.959 . S
H1208 C1201 0.961 . S
H1209 C1201 0.960 . S
H1210 C1202 0.930 . S
H1211 C1203 0.929 . S
H1212 C1220 0.929 . S
H1213 C1222 0.930 . S
H1214 C1224 0.930 . S
H1215 C1227 0.929 . S
H1216 C1230 0.930 . S
H1217 C1232 0.960 . S
H1218 C1232 0.960 . S
H1219 C1232 0.960 . S
C1220 H1212 0.929 . S
C1220 C1221 1.377 . S
C1220 C1222 1.384 . S
C1221 C1220 1.377 . S
C1221 C1227 1.390 . S
C1222 H1213 0.930 . S
C1222 C1220 1.384 . S
C1222 C1223 1.372 . S
C1223 C1222 1.372 . S
C1223 C1224 1.400 . S
C1223 C1228 1.490 . S
C1224 H1214 0.930 . S
C1224 C1223 1.400 . S
C1224 C1227 1.386 . S
H1225 C1241 0.930 . S
H1226 C1242 0.931 . S
C1227 H1215 0.929 . S
C1227 C1221 1.390 . S
C1227 C1224 1.386 . S
C1228 C1223 1.490 . S
C1228 C1230 1.395 . S
C1228 C1231 1.403 . S
H1229 C1235 0.930 . S
C1230 H1216 0.930 . S
C1230 C1228 1.395 . S
C1230 C1233 1.403 1_455 S
C1231 C1228 1.403 . S
C1231 C1232 1.524 . S
C1231 C1235 1.400 1_455 S
C1232 H1217 0.960 . S
C1232 H1218 0.960 . S
C1232 H1219 0.960 . S
C1232 C1231 1.524 . S
C1233 C1230 1.403 1_655 S
C1233 C1234 1.392 . S
C1233 C1237 1.495 . S
C1234 C1233 1.392 . S
C1234 C1235 1.385 . S
C1234 C1236 1.478 . S
C1235 H1229 0.930 . S
C1235 C1231 1.400 1_655 S
C1235 C1234 1.385 . S
C1236 C1234 1.478 . S
C1236 C1238 1.381 . S
C1236 C1242 1.383 . S
C1237 C1233 1.495 . S
C1237 H1243 0.959 . S
C1237 H1244 0.961 . S
C1237 H1245 0.960 . S
C1238 C1236 1.381 . S
C1238 C1239 1.394 . S
C1238 H1246 0.930 . S
C1239 C1238 1.394 . S
C1239 C1240 1.383 . S
C1239 H1247 0.929 . S
C1240 C1239 1.383 . S
C1240 C1241 1.377 . S
C1241 H1225 0.930 . S
C1241 C1240 1.377 . S
C1241 C1242 1.379 . S
C1242 H1226 0.931 . S
C1242 C1236 1.383 . S
C1242 C1241 1.379 . S
H1243 C1237 0.959 . S
H1244 C1237 0.961 . S
H1245 C1237 0.960 . S
H1246 C1238 0.930 . S
H1247 C1239 0.929 . S
H1248 C1256 0.929 . S
H1249 C1258 0.930 . S
H1250 C1260 0.930 . S
H1251 C1263 0.929 . S
H1252 C1266 0.930 . S
H1253 C1268 0.960 . S
H1254 C1268 0.960 . S
H1255 C1268 0.960 . S
C1256 H1248 0.929 . S
C1256 C1257 1.377 . S
C1256 C1258 1.384 . S
C1257 C1256 1.377 . S
C1257 C1263 1.390 . S
C1258 H1249 0.930 . S
C1258 C1256 1.384 . S
C1258 C1259 1.372 . S
C1259 C1258 1.372 . S
C1259 C1260 1.400 . S
C1259 C1264 1.490 . S
C1260 H1250 0.930 . S
C1260 C1259 1.400 . S
C1260 C1263 1.386 . S
H1261 C1277 0.930 . S
H1262 C1278 0.931 . S
C1263 H1251 0.929 . S
C1263 C1257 1.390 . S
C1263 C1260 1.386 . S
C1264 C1259 1.490 . S
C1264 C1266 1.395 . S
C1264 C1267 1.403 . S
H1265 C1271 0.930 . S
C1266 H1252 0.930 . S
C1266 C1264 1.395 . S
C1266 C1269 1.403 1_565 S
C1267 C1264 1.403 . S
C1267 C1268 1.524 . S
C1267 C1271 1.400 1_565 S
C1268 H1253 0.960 . S
C1268 H1254 0.960 . S
C1268 H1255 0.960 . S
C1268 C1267 1.524 . S
C1269 C1266 1.403 1_545 S
C1269 C1270 1.392 . S
C1269 C1273 1.495 . S
C1270 C1269 1.392 . S
C1270 C1271 1.385 . S
C1270 C1272 1.478 . S
C1271 H1265 0.930 . S
C1271 C1267 1.400 1_545 S
C1271 C1270 1.385 . S
C1272 C1270 1.478 . S
C1272 C1274 1.381 . S
C1272 C1278 1.383 . S
C1273 C1269 1.495 . S
C1273 H1279 0.959 . S
C1273 H1280 0.961 . S
C1273 H1281 0.960 . S
C1274 C1272 1.381 . S
C1274 C1275 1.394 . S
C1274 H1282 0.930 . S
C1275 C1274 1.394 . S
C1275 C1276 1.383 . S
C1275 H1283 0.929 . S
C1276 C1275 1.383 . S
C1276 C1277 1.377 . S
C1277 H1261 0.930 . S
C1277 C1276 1.377 . S
C1277 C1278 1.379 . S
C1278 H1262 0.931 . S
C1278 C1272 1.383 . S
C1278 C1277 1.379 . S
H1279 C1273 0.959 . S
H1280 C1273 0.961 . S
H1281 C1273 0.960 . S
H1282 C1274 0.930 . S
H1283 C1275 0.929 . S
H1284 C1292 0.929 . S
H1285 C1294 0.930 . S
H1286 C1296 0.930 . S
H1287 C1299 0.929 . S
H1288 C1302 0.930 . S
H1289 C1304 0.960 . S
H1290 C1304 0.960 . S
H1291 C1304 0.960 . S
C1292 H1284 0.929 . S
C1292 C1293 1.377 . S
C1292 C1294 1.384 . S
C1293 C1292 1.377 . S
C1293 C1299 1.390 . S
C1294 H1285 0.930 . S
C1294 C1292 1.384 . S
C1294 C1295 1.372 . S
C1295 C1294 1.372 . S
C1295 C1296 1.400 . S
C1295 C1300 1.490 . S
C1296 H1286 0.930 . S
C1296 C1295 1.400 . S
C1296 C1299 1.386 . S
H1297 C1313 0.930 . S
H1298 C1314 0.931 . S
C1299 H1287 0.929 . S
C1299 C1293 1.390 . S
C1299 C1296 1.386 . S
C1300 C1295 1.490 . S
C1300 C1302 1.395 . S
C1300 C1303 1.403 . S
H1301 C1307 0.930 . S
C1302 H1288 0.930 . S
C1302 C1300 1.395 . S
C1302 C1305 1.403 . S
C1303 C1300 1.403 . S
C1303 C1304 1.524 . S
C1303 C1307 1.400 . S
C1304 H1289 0.960 . S
C1304 H1290 0.960 . S
C1304 H1291 0.960 . S
C1304 C1303 1.524 . S
C1305 C1302 1.403 . S
C1305 C1306 1.392 . S
C1305 C1309 1.495 . S
C1306 C1305 1.392 . S
C1306 C1307 1.385 . S
C1306 C1308 1.478 . S
C1307 H1301 0.930 . S
C1307 C1303 1.400 . S
C1307 C1306 1.385 . S
C1308 C1306 1.478 . S
C1308 C1310 1.381 . S
C1308 C1314 1.383 . S
C1309 C1305 1.495 . S
C1309 H1315 0.959 . S
C1309 H1316 0.961 . S
C1309 H1317 0.960 . S
C1310 C1308 1.381 . S
C1310 C1311 1.394 . S
C1310 H1318 0.930 . S
C1311 C1310 1.394 . S
C1311 C1312 1.383 . S
C1311 H1319 0.929 . S
C1312 C1311 1.383 . S
C1312 C1313 1.377 . S
C1313 H1297 0.930 . S
C1313 C1312 1.377 . S
C1313 C1314 1.379 . S
C1314 H1298 0.931 . S
C1314 C1308 1.383 . S
C1314 C1313 1.379 . S
H1315 C1309 0.959 . S
H1316 C1309 0.961 . S
H1317 C1309 0.960 . S
H1318 C1310 0.930 . S
H1319 C1311 0.929 . S
H1320 C1328 0.929 . S
H1321 C1330 0.930 . S
H1322 C1332 0.930 . S
H1323 C1335 0.929 . S
H1324 C1338 0.930 . S
H1325 C1340 0.960 . S
H1326 C1340 0.960 . S
H1327 C1340 0.960 . S
C1328 H1320 0.929 . S
C1328 C1329 1.377 . S
C1328 C1330 1.384 . S
C1329 C1328 1.377 . S
C1329 C1335 1.390 . S
C1330 H1321 0.930 . S
C1330 C1328 1.384 . S
C1330 C1331 1.372 . S
C1331 C1330 1.372 . S
C1331 C1332 1.400 . S
C1331 C1336 1.490 . S
C1332 H1322 0.930 . S
C1332 C1331 1.400 . S
C1332 C1335 1.386 . S
H1333 C1349 0.930 . S
H1334 C1350 0.931 . S
C1335 H1323 0.929 . S
C1335 C1329 1.390 . S
C1335 C1332 1.386 . S
C1336 C1331 1.490 . S
C1336 C1338 1.395 . S
C1336 C1339 1.403 . S
H1337 C1343 0.930 . S
C1338 H1324 0.930 . S
C1338 C1336 1.395 . S
C1338 C1341 1.403 1_655 S
C1339 C1336 1.403 . S
C1339 C1340 1.524 . S
C1339 C1343 1.400 1_655 S
C1340 H1325 0.960 . S
C1340 H1326 0.960 . S
C1340 H1327 0.960 . S
C1340 C1339 1.524 . S
C1341 C1338 1.403 1_455 S
C1341 C1342 1.392 . S
C1341 C1345 1.495 . S
C1342 C1341 1.392 . S
C1342 C1343 1.385 . S
C1342 C1344 1.478 . S
C1343 H1337 0.930 . S
C1343 C1339 1.400 1_455 S
C1343 C1342 1.385 . S
C1344 C1342 1.478 . S
C1344 C1346 1.381 . S
C1344 C1350 1.383 . S
C1345 C1341 1.495 . S
C1345 H1351 0.959 . S
C1345 H1352 0.961 . S
C1345 H1353 0.960 . S
C1346 C1344 1.381 . S
C1346 C1347 1.394 . S
C1346 H1354 0.930 . S
C1347 C1346 1.394 . S
C1347 C1348 1.383 . S
C1347 H1355 0.929 . S
C1348 C1347 1.383 . S
C1348 C1349 1.377 . S
C1349 H1333 0.930 . S
C1349 C1348 1.377 . S
C1349 C1350 1.379 . S
C1350 H1334 0.931 . S
C1350 C1344 1.383 . S
C1350 C1349 1.379 . S
H1351 C1345 0.959 . S
H1352 C1345 0.961 . S
H1353 C1345 0.960 . S
H1354 C1346 0.930 . S
H1355 C1347 0.929 . S
H1356 C1364 0.929 . S
H1357 C1366 0.930 . S
H1358 C1368 0.930 . S
H1359 C1371 0.929 . S
H1360 C1374 0.930 . S
H1361 C1376 0.960 . S
H1362 C1376 0.960 . S
H1363 C1376 0.960 . S
C1364 H1356 0.929 . S
C1364 C1365 1.377 . S
C1364 C1366 1.384 . S
C1365 C1364 1.377 . S
C1365 C1371 1.390 . S
C1366 H1357 0.930 . S
C1366 C1364 1.384 . S
C1366 C1367 1.372 . S
C1367 C1366 1.372 . S
C1367 C1368 1.400 . S
C1367 C1372 1.490 . S
C1368 H1358 0.930 . S
C1368 C1367 1.400 . S
C1368 C1371 1.386 . S
H1369 C1385 0.930 . S
H1370 C1386 0.931 . S
C1371 H1359 0.929 . S
C1371 C1365 1.390 . S
C1371 C1368 1.386 . S
C1372 C1367 1.490 . S
C1372 C1374 1.395 . S
C1372 C1375 1.403 . S
H1373 C1379 0.930 . S
C1374 H1360 0.930 . S
C1374 C1372 1.395 . S
C1374 C1377 1.403 1_545 S
C1375 C1372 1.403 . S
C1375 C1376 1.524 . S
C1375 C1379 1.400 1_545 S
C1376 H1361 0.960 . S
C1376 H1362 0.960 . S
C1376 H1363 0.960 . S
C1376 C1375 1.524 . S
C1377 C1374 1.403 1_565 S
C1377 C1378 1.392 . S
C1377 C1381 1.495 . S
C1378 C1377 1.392 . S
C1378 C1379 1.385 . S
C1378 C1380 1.478 . S
C1379 H1373 0.930 . S
C1379 C1375 1.400 1_565 S
C1379 C1378 1.385 . S
C1380 C1378 1.478 . S
C1380 C1382 1.381 . S
C1380 C1386 1.383 . S
C1381 C1377 1.495 . S
C1381 H1387 0.959 . S
C1381 H1388 0.961 . S
C1381 H1389 0.960 . S
C1382 C1380 1.381 . S
C1382 C1383 1.394 . S
C1382 H1390 0.930 . S
C1383 C1382 1.394 . S
C1383 C1384 1.383 . S
C1383 H1391 0.929 . S
C1384 C1383 1.383 . S
C1384 C1385 1.377 . S
C1385 H1369 0.930 . S
C1385 C1384 1.377 . S
C1385 C1386 1.379 . S
C1386 H1370 0.931 . S
C1386 C1380 1.383 . S
C1386 C1385 1.379 . S
H1387 C1381 0.959 . S
H1388 C1381 0.961 . S
H1389 C1381 0.960 . S
H1390 C1382 0.930 . S
H1391 C1383 0.929 . S
H1392 C1400 0.929 . S
H1393 C1402 0.930 . S
H1394 C1404 0.930 . S
H1395 C1407 0.929 . S
H1396 C1410 0.930 . S
H1397 C1412 0.960 . S
H1398 C1412 0.960 . S
H1399 C1412 0.960 . S
C1400 H1392 0.929 . S
C1400 C1401 1.377 . S
C1400 C1402 1.384 . S
C1401 C1400 1.377 . S
C1401 C1407 1.390 . S
C1402 H1393 0.930 . S
C1402 C1400 1.384 . S
C1402 C1403 1.372 . S
C1403 C1402 1.372 . S
C1403 C1404 1.400 . S
C1403 C1408 1.490 . S
C1404 H1394 0.930 . S
C1404 C1403 1.400 . S
C1404 C1407 1.386 . S
H1405 C1421 0.930 . S
H1406 C1422 0.931 . S
C1407 H1395 0.929 . S
C1407 C1401 1.390 . S
C1407 C1404 1.386 . S
C1408 C1403 1.490 . S
C1408 C1410 1.395 . S
C1408 C1411 1.403 . S
H1409 C1415 0.930 . S
C1410 H1396 0.930 . S
C1410 C1408 1.395 . S
C1410 C1413 1.403 . S
C1411 C1408 1.403 . S
C1411 C1412 1.524 . S
C1411 C1415 1.400 . S
C1412 H1397 0.960 . S
C1412 H1398 0.960 . S
C1412 H1399 0.960 . S
C1412 C1411 1.524 . S
C1413 C1410 1.403 . S
C1413 C1414 1.392 . S
C1413 C1417 1.495 . S
C1414 C1413 1.392 . S
C1414 C1415 1.385 . S
C1414 C1416 1.478 . S
C1415 H1409 0.930 . S
C1415 C1411 1.400 . S
C1415 C1414 1.385 . S
C1416 C1414 1.478 . S
C1416 C1418 1.381 . S
C1416 C1422 1.383 . S
C1417 C1413 1.495 . S
C1417 H1423 0.959 . S
C1417 H1424 0.961 . S
C1417 H1425 0.960 . S
C1418 C1416 1.381 . S
C1418 C1419 1.394 . S
C1418 H1426 0.930 . S
C1419 C1418 1.394 . S
C1419 C1420 1.383 . S
C1419 H1427 0.929 . S
C1420 C1419 1.383 . S
C1420 C1421 1.377 . S
C1421 H1405 0.930 . S
C1421 C1420 1.377 . S
C1421 C1422 1.379 . S
C1422 H1406 0.931 . S
C1422 C1416 1.383 . S
C1422 C1421 1.379 . S
H1423 C1417 0.959 . S
H1424 C1417 0.961 . S
H1425 C1417 0.960 . S
H1426 C1418 0.930 . S
H1427 C1419 0.929 . S
H1428 C1436 0.929 . S
H1429 C1438 0.930 . S
H1430 C1440 0.930 . S
H1431 C1443 0.929 . S
H1432 C1446 0.930 . S
H1433 C1448 0.960 . S
H1434 C1448 0.960 . S
H1435 C1448 0.960 . S
C1436 H1428 0.929 . S
C1436 C1437 1.377 . S
C1436 C1438 1.384 . S
C1437 C1436 1.377 . S
C1437 C1443 1.390 . S
C1438 H1429 0.930 . S
C1438 C1436 1.384 . S
C1438 C1439 1.372 . S
C1439 C1438 1.372 . S
C1439 C1440 1.400 . S
C1439 C1444 1.490 . S
C1440 H1430 0.930 . S
C1440 C1439 1.400 . S
C1440 C1443 1.386 . S
H1441 C1457 0.930 . S
H1442 C1458 0.931 . S
C1443 H1431 0.929 . S
C1443 C1437 1.390 . S
C1443 C1440 1.386 . S
C1444 C1439 1.490 . S
C1444 C1446 1.395 . S
C1444 C1447 1.403 . S
H1445 C1451 0.930 . S
C1446 H1432 0.930 . S
C1446 C1444 1.395 . S
C1446 C1449 1.403 1_655 S
C1447 C1444 1.403 . S
C1447 C1448 1.524 . S
C1447 C1451 1.400 1_655 S
C1448 H1433 0.960 . S
C1448 H1434 0.960 . S
C1448 H1435 0.960 . S
C1448 C1447 1.524 . S
C1449 C1446 1.403 1_455 S
C1449 C1450 1.392 . S
C1449 C1453 1.495 . S
C1450 C1449 1.392 . S
C1450 C1451 1.385 . S
C1450 C1452 1.478 . S
C1451 H1445 0.930 . S
C1451 C1447 1.400 1_455 S
C1451 C1450 1.385 . S
C1452 C1450 1.478 . S
C1452 C1454 1.381 . S
C1452 C1458 1.383 . S
C1453 C1449 1.495 . S
C1453 H1459 0.959 . S
C1453 H1460 0.961 . S
C1453 H1461 0.960 . S
C1454 C1452 1.381 . S
C1454 C1455 1.394 . S
C1454 H1462 0.930 . S
C1455 C1454 1.394 . S
C1455 C1456 1.383 . S
C1455 H1463 0.929 . S
C1456 C1455 1.383 . S
C1456 C1457 1.377 . S
C1457 H1441 0.930 . S
C1457 C1456 1.377 . S
C1457 C1458 1.379 . S
C1458 H1442 0.931 . S
C1458 C1452 1.383 . S
C1458 C1457 1.379 . S
H1459 C1453 0.959 . S
H1460 C1453 0.961 . S
H1461 C1453 0.960 . S
H1462 C1454 0.930 . S
H1463 C1455 0.929 . S
H1464 C1472 0.929 . S
H1465 C1474 0.930 . S
H1466 C1476 0.930 . S
H1467 C1479 0.929 . S
H1468 C1482 0.930 . S
H1469 C1484 0.960 . S
H1470 C1484 0.960 . S
H1471 C1484 0.960 . S
C1472 H1464 0.929 . S
C1472 C1473 1.377 . S
C1472 C1474 1.384 . S
C1473 C1472 1.377 . S
C1473 C1479 1.390 . S
C1474 H1465 0.930 . S
C1474 C1472 1.384 . S
C1474 C1475 1.372 . S
C1475 C1474 1.372 . S
C1475 C1476 1.400 . S
C1475 C1480 1.490 . S
C1476 H1466 0.930 . S
C1476 C1475 1.400 . S
C1476 C1479 1.386 . S
H1477 C1493 0.930 . S
H1478 C1494 0.931 . S
C1479 H1467 0.929 . S
C1479 C1473 1.390 . S
C1479 C1476 1.386 . S
C1480 C1475 1.490 . S
C1480 C1482 1.395 . S
C1480 C1483 1.403 . S
H1481 C1487 0.930 . S
C1482 H1468 0.930 . S
C1482 C1480 1.395 . S
C1482 C1485 1.403 1_545 S
C1483 C1480 1.403 . S
C1483 C1484 1.524 . S
C1483 C1487 1.400 1_545 S
C1484 H1469 0.960 . S
C1484 H1470 0.960 . S
C1484 H1471 0.960 . S
C1484 C1483 1.524 . S
C1485 C1482 1.403 1_565 S
C1485 C1486 1.392 . S
C1485 C1489 1.495 . S
C1486 C1485 1.392 . S
C1486 C1487 1.385 . S
C1486 C1488 1.478 . S
C1487 H1481 0.930 . S
C1487 C1483 1.400 1_565 S
C1487 C1486 1.385 . S
C1488 C1486 1.478 . S
C1488 C1490 1.381 . S
C1488 C1494 1.383 . S
C1489 C1485 1.495 . S
C1489 H1495 0.959 . S
C1489 H1496 0.961 . S
C1489 H1497 0.960 . S
C1490 C1488 1.381 . S
C1490 C1491 1.394 . S
C1490 H1498 0.930 . S
C1491 C1490 1.394 . S
C1491 C1492 1.383 . S
C1491 H1499 0.929 . S
C1492 C1491 1.383 . S
C1492 C1493 1.377 . S
C1493 H1477 0.930 . S
C1493 C1492 1.377 . S
C1493 C1494 1.379 . S
C1494 H1478 0.931 . S
C1494 C1488 1.383 . S
C1494 C1493 1.379 . S
H1495 C1489 0.959 . S
H1496 C1489 0.961 . S
H1497 C1489 0.960 . S
H1498 C1490 0.930 . S
H1499 C1491 0.929 . S
H1500 C1508 0.929 . S
H1501 C1510 0.930 . S
H1502 C1512 0.930 . S
H1503 C1515 0.929 . S
H1504 C1518 0.930 . S
H1505 C1520 0.960 . S
H1506 C1520 0.960 . S
H1507 C1520 0.960 . S
C1508 H1500 0.929 . S
C1508 C1509 1.377 . S
C1508 C1510 1.384 . S
C1509 C1508 1.377 . S
C1509 C1515 1.390 . S
C1510 H1501 0.930 . S
C1510 C1508 1.384 . S
C1510 C1511 1.372 . S
C1511 C1510 1.372 . S
C1511 C1512 1.400 . S
C1511 C1516 1.490 . S
C1512 H1502 0.930 . S
C1512 C1511 1.400 . S
C1512 C1515 1.386 . S
H1513 C1529 0.930 . S
H1514 C1530 0.931 . S
C1515 H1503 0.929 . S
C1515 C1509 1.390 . S
C1515 C1512 1.386 . S
C1516 C1511 1.490 . S
C1516 C1518 1.395 . S
C1516 C1519 1.403 . S
H1517 C1523 0.930 . S
C1518 H1504 0.930 . S
C1518 C1516 1.395 . S
C1518 C1521 1.403 . S
C1519 C1516 1.403 . S
C1519 C1520 1.524 . S
C1519 C1523 1.400 . S
C1520 H1505 0.960 . S
C1520 H1506 0.960 . S
C1520 H1507 0.960 . S
C1520 C1519 1.524 . S
C1521 C1518 1.403 . S
C1521 C1522 1.392 . S
C1521 C1525 1.495 . S
C1522 C1521 1.392 . S
C1522 C1523 1.385 . S
C1522 C1524 1.478 . S
C1523 H1517 0.930 . S
C1523 C1519 1.400 . S
C1523 C1522 1.385 . S
C1524 C1522 1.478 . S
C1524 C1526 1.381 . S
C1524 C1530 1.383 . S
C1525 C1521 1.495 . S
C1525 H1531 0.959 . S
C1525 H1532 0.961 . S
C1525 H1533 0.960 . S
C1526 C1524 1.381 . S
C1526 C1527 1.394 . S
C1526 H1534 0.930 . S
C1527 C1526 1.394 . S
C1527 C1528 1.383 . S
C1527 H1535 0.929 . S
C1528 C1527 1.383 . S
C1528 C1529 1.377 . S
C1529 H1513 0.930 . S
C1529 C1528 1.377 . S
C1529 C1530 1.379 . S
C1530 H1514 0.931 . S
C1530 C1524 1.383 . S
C1530 C1529 1.379 . S
H1531 C1525 0.959 . S
H1532 C1525 0.961 . S
H1533 C1525 0.960 . S
H1534 C1526 0.930 . S
H1535 C1527 0.929 . S
H1536 C1544 0.929 . S
H1537 C1546 0.930 . S
H1538 C1548 0.930 . S
H1539 C1551 0.929 . S
H1540 C1554 0.930 . S
H1541 C1556 0.960 . S
H1542 C1556 0.960 . S
H1543 C1556 0.960 . S
C1544 H1536 0.929 . S
C1544 C1545 1.377 . S
C1544 C1546 1.384 . S
C1545 C1544 1.377 . S
C1545 C1551 1.390 . S
C1546 H1537 0.930 . S
C1546 C1544 1.384 . S
C1546 C1547 1.372 . S
C1547 C1546 1.372 . S
C1547 C1548 1.400 . S
C1547 C1552 1.490 . S
C1548 H1538 0.930 . S
C1548 C1547 1.400 . S
C1548 C1551 1.386 . S
H1549 C1565 0.930 . S
H1550 C1566 0.931 . S
C1551 H1539 0.929 . S
C1551 C1545 1.390 . S
C1551 C1548 1.386 . S
C1552 C1547 1.490 . S
C1552 C1554 1.395 . S
C1552 C1555 1.403 . S
H1553 C1559 0.930 . S
C1554 H1540 0.930 . S
C1554 C1552 1.395 . S
C1554 C1557 1.403 1_455 S
C1555 C1552 1.403 . S
C1555 C1556 1.524 . S
C1555 C1559 1.400 1_455 S
C1556 H1541 0.960 . S
C1556 H1542 0.960 . S
C1556 H1543 0.960 . S
C1556 C1555 1.524 . S
C1557 C1554 1.403 1_655 S
C1557 C1558 1.392 . S
C1557 C1561 1.495 . S
C1558 C1557 1.392 . S
C1558 C1559 1.385 . S
C1558 C1560 1.478 . S
C1559 H1553 0.930 . S
C1559 C1555 1.400 1_655 S
C1559 C1558 1.385 . S
C1560 C1558 1.478 . S
C1560 C1562 1.381 . S
C1560 C1566 1.383 . S
C1561 C1557 1.495 . S
C1561 H1567 0.959 . S
C1561 H1568 0.961 . S
C1561 H1569 0.960 . S
C1562 C1560 1.381 . S
C1562 C1563 1.394 . S
C1562 H1570 0.930 . S
C1563 C1562 1.394 . S
C1563 C1564 1.383 . S
C1563 H1571 0.929 . S
C1564 C1563 1.383 . S
C1564 C1565 1.377 . S
C1565 H1549 0.930 . S
C1565 C1564 1.377 . S
C1565 C1566 1.379 . S
C1566 H1550 0.931 . S
C1566 C1560 1.383 . S
C1566 C1565 1.379 . S
H1567 C1561 0.959 . S
H1568 C1561 0.961 . S
H1569 C1561 0.960 . S
H1570 C1562 0.930 . S
H1571 C1563 0.929 . S
H1572 C1580 0.929 . S
H1573 C1582 0.930 . S
H1574 C1584 0.930 . S
H1575 C1587 0.929 . S
H1576 C1590 0.930 . S
H1577 C1592 0.960 . S
H1578 C1592 0.960 . S
H1579 C1592 0.960 . S
C1580 H1572 0.929 . S
C1580 C1581 1.377 . S
C1580 C1582 1.384 . S
C1581 C1580 1.377 . S
C1581 C1587 1.390 . S
C1582 H1573 0.930 . S
C1582 C1580 1.384 . S
C1582 C1583 1.372 . S
C1583 C1582 1.372 . S
C1583 C1584 1.400 . S
C1583 C1588 1.490 . S
C1584 H1574 0.930 . S
C1584 C1583 1.400 . S
C1584 C1587 1.386 . S
H1585 C1601 0.930 . S
H1586 C1602 0.931 . S
C1587 H1575 0.929 . S
C1587 C1581 1.390 . S
C1587 C1584 1.386 . S
C1588 C1583 1.490 . S
C1588 C1590 1.395 . S
C1588 C1591 1.403 . S
H1589 C1595 0.930 . S
C1590 H1576 0.930 . S
C1590 C1588 1.395 . S
C1590 C1593 1.403 1_565 S
C1591 C1588 1.403 . S
C1591 C1592 1.524 . S
C1591 C1595 1.400 1_565 S
C1592 H1577 0.960 . S
C1592 H1578 0.960 . S
C1592 H1579 0.960 . S
C1592 C1591 1.524 . S
C1593 C1590 1.403 1_545 S
C1593 C1594 1.392 . S
C1593 C1597 1.495 . S
C1594 C1593 1.392 . S
C1594 C1595 1.385 . S
C1594 C1596 1.478 . S
C1595 H1589 0.930 . S
C1595 C1591 1.400 1_545 S
C1595 C1594 1.385 . S
C1596 C1594 1.478 . S
C1596 C1598 1.381 . S
C1596 C1602 1.383 . S
C1597 C1593 1.495 . S
C1597 H1603 0.959 . S
C1597 H1604 0.961 . S
C1597 H1605 0.960 . S
C1598 C1596 1.381 . S
C1598 C1599 1.394 . S
C1598 H1606 0.930 . S
C1599 C1598 1.394 . S
C1599 C1600 1.383 . S
C1599 H1607 0.929 . S
C1600 C1599 1.383 . S
C1600 C1601 1.377 . S
C1601 H1585 0.930 . S
C1601 C1600 1.377 . S
C1601 C1602 1.379 . S
C1602 H1586 0.931 . S
C1602 C1596 1.383 . S
C1602 C1601 1.379 . S
H1603 C1597 0.959 . S
H1604 C1597 0.961 . S
H1605 C1597 0.960 . S
H1606 C1598 0.930 . S
H1607 C1599 0.929 . S
H1608 C1616 0.929 . S
H1609 C1618 0.930 . S
H1610 C1620 0.930 . S
H1611 C1623 0.929 . S
H1612 C1626 0.930 . S
H1613 C1628 0.960 . S
H1614 C1628 0.960 . S
H1615 C1628 0.960 . S
C1616 H1608 0.929 . S
C1616 C1617 1.377 . S
C1616 C1618 1.384 . S
C1617 C1616 1.377 . S
C1617 C1623 1.390 . S
C1618 H1609 0.930 . S
C1618 C1616 1.384 . S
C1618 C1619 1.372 . S
C1619 C1618 1.372 . S
C1619 C1620 1.400 . S
C1619 C1624 1.490 . S
C1620 H1610 0.930 . S
C1620 C1619 1.400 . S
C1620 C1623 1.386 . S
H1621 C1637 0.930 . S
H1622 C1638 0.931 . S
C1623 H1611 0.929 . S
C1623 C1617 1.390 . S
C1623 C1620 1.386 . S
C1624 C1619 1.490 . S
C1624 C1626 1.395 1_556 S
C1624 C1627 1.403 . S
H1625 C1631 0.930 . S
C1626 H1612 0.930 . S
C1626 C1624 1.395 1_554 S
C1626 C1629 1.403 . S
C1627 C1624 1.403 . S
C1627 C1628 1.524 . S
C1627 C1631 1.400 . S
C1628 H1613 0.960 . S
C1628 H1614 0.960 . S
C1628 H1615 0.960 . S
C1628 C1627 1.524 . S
C1629 C1626 1.403 . S
C1629 C1630 1.392 . S
C1629 C1633 1.495 . S
C1630 C1629 1.392 . S
C1630 C1631 1.385 1_554 S
C1630 C1632 1.478 . S
C1631 H1625 0.930 . S
C1631 C1627 1.400 . S
C1631 C1630 1.385 1_556 S
C1632 C1630 1.478 . S
C1632 C1634 1.381 . S
C1632 C1638 1.383 . S
C1633 C1629 1.495 . S
C1633 H1639 0.959 . S
C1633 H1640 0.961 . S
C1633 H1641 0.960 . S
C1634 C1632 1.381 . S
C1634 C1635 1.394 . S
C1634 H1642 0.930 . S
C1635 C1634 1.394 . S
C1635 C1636 1.383 . S
C1635 H1643 0.929 . S
C1636 C1635 1.383 . S
C1636 C1637 1.377 . S
C1637 H1621 0.930 . S
C1637 C1636 1.377 . S
C1637 C1638 1.379 . S
C1638 H1622 0.931 . S
C1638 C1632 1.383 . S
C1638 C1637 1.379 . S
H1639 C1633 0.959 . S
H1640 C1633 0.961 . S
H1641 C1633 0.960 . S
H1642 C1634 0.930 . S
H1643 C1635 0.929 . S
H1644 C1652 0.929 . S
H1645 C1654 0.930 . S
H1646 C1656 0.930 . S
H1647 C1659 0.929 . S
H1648 C1662 0.930 . S
H1649 C1664 0.960 . S
H1650 C1664 0.960 . S
H1651 C1664 0.960 . S
C1652 H1644 0.929 . S
C1652 C1653 1.377 . S
C1652 C1654 1.384 . S
C1653 C1652 1.377 . S
C1653 C1659 1.390 . S
C1654 H1645 0.930 . S
C1654 C1652 1.384 . S
C1654 C1655 1.372 . S
C1655 C1654 1.372 . S
C1655 C1656 1.400 . S
C1655 C1660 1.490 . S
C1656 H1646 0.930 . S
C1656 C1655 1.400 . S
C1656 C1659 1.386 . S
H1657 C1673 0.930 . S
H1658 C1674 0.931 . S
C1659 H1647 0.929 . S
C1659 C1653 1.390 . S
C1659 C1656 1.386 . S
C1660 C1655 1.490 . S
C1660 C1662 1.395 . S
C1660 C1663 1.403 . S
H1661 C1667 0.930 . S
C1662 H1648 0.930 . S
C1662 C1660 1.395 . S
C1662 C1665 1.403 . S
C1663 C1660 1.403 . S
C1663 C1664 1.524 . S
C1663 C1667 1.400 . S
C1664 H1649 0.960 . S
C1664 H1650 0.960 . S
C1664 H1651 0.960 . S
C1664 C1663 1.524 . S
C1665 C1662 1.403 . S
C1665 C1666 1.392 . S
C1665 C1669 1.495 . S
C1666 C1665 1.392 . S
C1666 C1667 1.385 . S
C1666 C1668 1.478 . S
C1667 H1661 0.930 . S
C1667 C1663 1.400 . S
C1667 C1666 1.385 . S
C1668 C1666 1.478 . S
C1668 C1670 1.381 . S
C1668 C1674 1.383 . S
C1669 C1665 1.495 . S
C1669 H1675 0.959 . S
C1669 H1676 0.961 . S
C1669 H1677 0.960 . S
C1670 C1668 1.381 . S
C1670 C1671 1.394 . S
C1670 H1678 0.930 . S
C1671 C1670 1.394 . S
C1671 C1672 1.383 . S
C1671 H1679 0.929 . S
C1672 C1671 1.383 . S
C1672 C1673 1.377 . S
C1673 H1657 0.930 . S
C1673 C1672 1.377 . S
C1673 C1674 1.379 . S
C1674 H1658 0.931 . S
C1674 C1668 1.383 . S
C1674 C1673 1.379 . S
H1675 C1669 0.959 . S
H1676 C1669 0.961 . S
H1677 C1669 0.960 . S
H1678 C1670 0.930 . S
H1679 C1671 0.929 . S
H1680 C1688 0.929 . S
H1681 C1690 0.930 1_554 S
H1682 C1692 0.930 . S
H1683 C1695 0.929 . S
H1684 C1698 0.930 . S
H1685 C1700 0.960 . S
H1686 C1700 0.960 . S
H1687 C1700 0.960 . S
C1688 H1680 0.929 . S
C1688 C1689 1.377 . S
C1688 C1690 1.384 . S
C1689 C1688 1.377 . S
C1689 C1695 1.390 . S
C1690 H1681 0.930 1_556 S
C1690 C1688 1.384 . S
C1690 C1691 1.372 . S
C1691 C1690 1.372 . S
C1691 C1692 1.400 . S
C1691 C1696 1.490 . S
C1692 H1682 0.930 . S
C1692 C1691 1.400 . S
C1692 C1695 1.386 . S
H1693 C1709 0.930 . S
H1694 C1710 0.931 1_556 S
C1695 H1683 0.929 . S
C1695 C1689 1.390 . S
C1695 C1692 1.386 . S
C1696 C1691 1.490 . S
C1696 C1698 1.395 1_556 S
C1696 C1699 1.403 . S
H1697 C1703 0.938 . S
C1698 H1684 0.930 . S
C1698 C1696 1.395 1_554 S
C1698 C1701 1.403 . S
C1699 C1696 1.403 . S
C1699 C1700 1.524 . S
C1699 C1703 1.422 . S
C1700 H1685 0.960 . S
C1700 H1686 0.960 . S
C1700 H1687 0.960 . S
C1700 C1699 1.524 . S
C1701 C1698 1.403 . S
C1701 C1702 1.392 . S
C1701 C1705 1.495 . S
C1702 C1701 1.392 . S
C1702 C1703 1.358 1_554 S
C1702 C1704 1.478 . S
C1703 H1697 0.938 . S
C1703 C1699 1.422 . S
C1703 C1702 1.358 1_556 S
C1704 C1702 1.478 . S
C1704 C1706 1.381 . S
C1704 C1710 1.383 . S
C1705 C1701 1.495 . S
C1705 H1711 0.959 . S
C1705 H1712 0.961 . S
C1705 H1713 0.960 . S
C1706 C1704 1.381 . S
C1706 C1707 1.394 . S
C1706 H1714 0.930 . S
C1707 C1706 1.394 . S
C1707 C1708 1.383 . S
C1707 H1715 0.929 . S
C1708 C1707 1.383 . S
C1708 C1709 1.377 . S
C1709 H1693 0.930 . S
C1709 C1708 1.377 . S
C1709 C1710 1.379 . S
C1710 H1694 0.931 1_554 S
C1710 C1704 1.383 . S
C1710 C1709 1.379 . S
H1711 C1705 0.959 . S
H1712 C1705 0.961 . S
H1713 C1705 0.960 . S
H1714 C1706 0.930 . S
H1715 C1707 0.929 . S
H1716 C1724 0.929 . S
H1717 C1726 0.930 . S
H1718 C1728 0.930 . S
H1719 C1731 0.929 . S
H1720 C1734 0.930 . S
H1721 C1736 0.960 . S
H1722 C1736 0.960 . S
H1723 C1736 0.960 . S
C1724 H1716 0.929 . S
C1724 C1725 1.377 . S
C1724 C1726 1.384 . S
C1725 C1724 1.377 . S
C1725 C1731 1.390 . S
C1726 H1717 0.930 . S
C1726 C1724 1.384 . S
C1726 C1727 1.372 . S
C1727 C1726 1.372 . S
C1727 C1728 1.400 . S
C1727 C1732 1.490 . S
C1728 H1718 0.930 . S
C1728 C1727 1.400 . S
C1728 C1731 1.386 . S
H1729 C1745 0.930 . S
H1730 C1746 0.931 . S
C1731 H1719 0.929 . S
C1731 C1725 1.390 . S
C1731 C1728 1.386 . S
C1732 C1727 1.490 . S
C1732 C1734 1.395 . S
C1732 C1735 1.403 . S
H1733 C1739 0.930 . S
C1734 H1720 0.930 . S
C1734 C1732 1.395 . S
C1734 C1737 1.403 . S
C1735 C1732 1.403 . S
C1735 C1736 1.524 . S
C1735 C1739 1.400 . S
C1736 H1721 0.960 . S
C1736 H1722 0.960 . S
C1736 H1723 0.960 . S
C1736 C1735 1.524 . S
C1737 C1734 1.403 . S
C1737 C1738 1.392 . S
C1737 C1741 1.495 . S
C1738 C1737 1.392 . S
C1738 C1739 1.385 . S
C1738 C1740 1.478 . S
C1739 H1733 0.930 . S
C1739 C1735 1.400 . S
C1739 C1738 1.385 . S
C1740 C1738 1.478 . S
C1740 C1742 1.381 . S
C1740 C1746 1.383 . S
C1741 C1737 1.495 . S
C1741 H1747 0.959 . S
C1741 H1748 0.961 . S
C1741 H1749 0.960 . S
C1742 C1740 1.381 . S
C1742 C1743 1.394 . S
C1742 H1750 0.930 . S
C1743 C1742 1.394 . S
C1743 C1744 1.383 . S
C1743 H1751 0.929 . S
C1744 C1743 1.383 . S
C1744 C1745 1.377 . S
C1745 H1729 0.930 . S
C1745 C1744 1.377 . S
C1745 C1746 1.379 . S
C1746 H1730 0.931 . S
C1746 C1740 1.383 . S
C1746 C1745 1.379 . S
H1747 C1741 0.959 . S
H1748 C1741 0.961 . S
H1749 C1741 0.960 . S
H1750 C1742 0.930 . S
H1751 C1743 0.929 . S
H1752 C1760 0.929 . S
H1753 C1762 0.930 . S
H1754 C1764 0.930 . S
H1755 C1767 0.929 . S
H1756 C1770 0.930 . S
H1757 C1772 0.960 . S
H1758 C1772 0.960 . S
H1759 C1772 0.960 . S
C1760 H1752 0.929 . S
C1760 C1761 1.377 . S
C1760 C1762 1.384 . S
C1761 C1760 1.377 . S
C1761 C1767 1.390 . S
C1762 H1753 0.930 . S
C1762 C1760 1.384 . S
C1762 C1763 1.372 . S
C1763 C1762 1.372 . S
C1763 C1764 1.400 . S
C1763 C1768 1.490 . S
C1764 H1754 0.930 . S
C1764 C1763 1.400 . S
C1764 C1767 1.386 . S
H1765 C1781 0.930 . S
H1766 C1782 0.931 . S
C1767 H1755 0.929 . S
C1767 C1761 1.390 . S
C1767 C1764 1.386 . S
C1768 C1763 1.490 . S
C1768 C1770 1.395 1_556 S
C1768 C1771 1.403 . S
H1769 C1775 0.930 . S
C1770 H1756 0.930 . S
C1770 C1768 1.395 1_554 S
C1770 C1773 1.403 . S
C1771 C1768 1.403 . S
C1771 C1772 1.524 . S
C1771 C1775 1.400 . S
C1772 H1757 0.960 . S
C1772 H1758 0.960 . S
C1772 H1759 0.960 . S
C1772 C1771 1.524 . S
C1773 C1770 1.403 . S
C1773 C1774 1.392 . S
C1773 C1777 1.495 . S
C1774 C1773 1.392 . S
C1774 C1775 1.385 1_554 S
C1774 C1776 1.478 . S
C1775 H1769 0.930 . S
C1775 C1771 1.400 . S
C1775 C1774 1.385 1_556 S
C1776 C1774 1.478 . S
C1776 C1778 1.381 . S
C1776 C1782 1.383 . S
C1777 C1773 1.495 . S
C1777 H1783 0.959 . S
C1777 H1784 0.961 . S
C1777 H1785 0.960 . S
C1778 C1776 1.381 . S
C1778 C1779 1.394 . S
C1778 H1786 0.930 . S
C1779 C1778 1.394 . S
C1779 C1780 1.383 . S
C1779 H1787 0.929 . S
C1780 C1779 1.383 . S
C1780 C1781 1.377 . S
C1781 H1765 0.930 . S
C1781 C1780 1.377 . S
C1781 C1782 1.379 . S
C1782 H1766 0.931 . S
C1782 C1776 1.383 . S
C1782 C1781 1.379 . S
H1783 C1777 0.959 . S
H1784 C1777 0.961 . S
H1785 C1777 0.960 . S
H1786 C1778 0.930 . S
H1787 C1779 0.929 . S
H1788 C1796 0.929 . S
H1789 C1798 0.930 . S
H1790 C1800 0.930 . S
H1791 C1803 0.929 . S
H1792 C1806 0.930 . S
H1793 C1808 0.960 . S
H1794 C1808 0.960 . S
H1795 C1808 0.960 . S
C1796 H1788 0.929 . S
C1796 C1797 1.377 . S
C1796 C1798 1.384 . S
C1797 C1796 1.377 . S
C1797 C1803 1.390 . S
C1798 H1789 0.930 . S
C1798 C1796 1.384 . S
C1798 C1799 1.372 . S
C1799 C1798 1.372 . S
C1799 C1800 1.400 . S
C1799 C1804 1.490 . S
C1800 H1790 0.930 . S
C1800 C1799 1.400 . S
C1800 C1803 1.386 . S
H1801 C1817 0.930 . S
H1802 C1818 0.931 . S
C1803 H1791 0.929 . S
C1803 C1797 1.390 . S
C1803 C1800 1.386 . S
C1804 C1799 1.490 . S
C1804 C1806 1.395 . S
C1804 C1807 1.403 . S
H1805 C1811 0.930 . S
C1806 H1792 0.930 . S
C1806 C1804 1.395 . S
C1806 C1809 1.403 . S
C1807 C1804 1.403 . S
C1807 C1808 1.524 . S
C1807 C1811 1.400 . S
C1808 H1793 0.960 . S
C1808 H1794 0.960 . S
C1808 H1795 0.960 . S
C1808 C1807 1.524 . S
C1809 C1806 1.403 . S
C1809 C1810 1.392 . S
C1809 C1813 1.495 . S
C1810 C1809 1.392 . S
C1810 C1811 1.385 . S
C1810 C1812 1.478 . S
C1811 H1805 0.930 . S
C1811 C1807 1.400 . S
C1811 C1810 1.385 . S
C1812 C1810 1.478 . S
C1812 C1814 1.381 . S
C1812 C1818 1.383 . S
C1813 C1809 1.495 . S
C1813 H1819 0.959 . S
C1813 H1820 0.961 . S
C1813 H1821 0.960 . S
C1814 C1812 1.381 . S
C1814 C1815 1.394 . S
C1814 H1822 0.930 . S
C1815 C1814 1.394 . S
C1815 C1816 1.383 . S
C1815 H1823 0.929 . S
C1816 C1815 1.383 . S
C1816 C1817 1.377 . S
C1817 H1801 0.930 . S
C1817 C1816 1.377 . S
C1817 C1818 1.379 . S
C1818 H1802 0.931 . S
C1818 C1812 1.383 . S
C1818 C1817 1.379 . S
H1819 C1813 0.959 . S
H1820 C1813 0.961 . S
H1821 C1813 0.960 . S
H1822 C1814 0.930 . S
H1823 C1815 0.929 . S
H1824 C1832 0.929 . S
H1825 C1834 0.930 . S
H1826 C1836 0.930 1_556 S
H1827 C1839 0.929 . S
H1828 C1842 0.930 . S
H1829 C1844 0.960 . S
H1830 C1844 0.960 . S
H1831 C1844 0.956 1_556 S
C1832 H1824 0.929 . S
C1832 C1833 1.377 . S
C1832 C1834 1.384 . S
C1833 C1832 1.377 . S
C1833 C1839 1.390 . S
C1834 H1825 0.930 . S
C1834 C1832 1.384 . S
C1834 C1835 1.372 . S
C1835 C1834 1.372 . S
C1835 C1836 1.400 . S
C1835 C1840 1.490 . S
C1836 H1826 0.930 1_554 S
C1836 C1835 1.400 . S
C1836 C1839 1.386 . S
H1837 C1853 0.930 . S
H1838 C1854 0.931 . S
C1839 H1827 0.929 . S
C1839 C1833 1.390 . S
C1839 C1836 1.386 . S
C1840 C1835 1.490 . S
C1840 C1842 1.395 . S
C1840 C1843 1.403 . S
H1841 C1847 0.930 . S
C1842 H1828 0.930 . S
C1842 C1840 1.395 . S
C1842 C1845 1.403 1_554 S
C1843 C1840 1.403 . S
C1843 C1844 1.524 . S
C1843 C1847 1.400 1_554 S
C1844 H1829 0.960 . S
C1844 H1830 0.960 . S
C1844 H1831 0.956 1_554 S
C1844 C1843 1.524 . S
C1845 C1842 1.403 1_556 S
C1845 C1846 1.392 . S
C1845 C1849 1.495 . S
C1846 C1845 1.392 . S
C1846 C1847 1.385 . S
C1846 C1848 1.478 . S
C1847 H1841 0.930 . S
C1847 C1843 1.400 1_556 S
C1847 C1846 1.385 . S
C1848 C1846 1.478 . S
C1848 C1850 1.381 . S
C1848 C1854 1.383 . S
C1849 C1845 1.495 . S
C1849 H1855 0.959 1_556 S
C1849 H1856 0.961 . S
C1849 H1857 0.960 1_556 S
C1850 C1848 1.381 . S
C1850 C1851 1.394 . S
C1850 H1858 0.930 1_556 S
C1851 C1850 1.394 . S
C1851 C1852 1.383 . S
C1851 H1859 0.929 . S
C1852 C1851 1.383 . S
C1852 C1853 1.377 . S
C1853 H1837 0.930 . S
C1853 C1852 1.377 . S
C1853 C1854 1.379 . S
C1854 H1838 0.931 . S
C1854 C1848 1.383 . S
C1854 C1853 1.379 . S
H1855 C1849 0.959 1_554 S
H1856 C1849 0.961 . S
H1857 C1849 0.960 1_554 S
H1858 C1850 0.930 1_554 S
H1859 C1851 0.929 . S
H1860 C1868 0.929 . S
H1861 C1870 0.930 . S
H1862 C1872 0.930 . S
H1863 C1875 0.929 . S
H1864 C1878 0.930 . S
H1865 C1880 0.960 . S
H1866 C1880 0.960 . S
H1867 C1880 0.960 . S
C1868 H1860 0.929 . S
C1868 C1869 1.377 . S
C1868 C1870 1.384 . S
C1869 C1868 1.377 . S
C1869 C1875 1.390 . S
C1870 H1861 0.930 . S
C1870 C1868 1.384 . S
C1870 C1871 1.372 . S
C1871 C1870 1.372 . S
C1871 C1872 1.400 . S
C1871 C1876 1.490 . S
C1872 H1862 0.930 . S
C1872 C1871 1.400 . S
C1872 C1875 1.386 . S
H1873 C1889 0.930 . S
H1874 C1890 0.931 . S
C1875 H1863 0.929 . S
C1875 C1869 1.390 . S
C1875 C1872 1.386 . S
C1876 C1871 1.490 . S
C1876 C1878 1.395 . S
C1876 C1879 1.403 . S
H1877 C1883 0.930 . S
C1878 H1864 0.930 . S
C1878 C1876 1.395 . S
C1878 C1881 1.403 . S
C1879 C1876 1.403 . S
C1879 C1880 1.524 . S
C1879 C1883 1.400 . S
C1880 H1865 0.960 . S
C1880 H1866 0.960 . S
C1880 H1867 0.960 . S
C1880 C1879 1.524 . S
C1881 C1878 1.403 . S
C1881 C1882 1.392 . S
C1881 C1885 1.495 . S
C1882 C1881 1.392 . S
C1882 C1883 1.385 . S
C1882 C1884 1.478 . S
C1883 H1877 0.930 . S
C1883 C1879 1.400 . S
C1883 C1882 1.385 . S
C1884 C1882 1.478 . S
C1884 C1886 1.381 . S
C1884 C1890 1.383 . S
C1885 C1881 1.495 . S
C1885 H1891 0.959 . S
C1885 H1892 0.961 . S
C1885 H1893 0.960 . S
C1886 C1884 1.381 . S
C1886 C1887 1.394 . S
C1886 H1894 0.930 . S
C1887 C1886 1.394 . S
C1887 C1888 1.383 . S
C1887 H1895 0.929 . S
C1888 C1887 1.383 . S
C1888 C1889 1.377 . S
C1889 H1873 0.930 . S
C1889 C1888 1.377 . S
C1889 C1890 1.379 . S
C1890 H1874 0.931 . S
C1890 C1884 1.383 . S
C1890 C1889 1.379 . S
H1891 C1885 0.959 . S
H1892 C1885 0.961 . S
H1893 C1885 0.960 . S
H1894 C1886 0.930 . S
H1895 C1887 0.929 . S
H1896 C1904 0.929 . S
H1897 C1906 0.930 . S
H1898 C1908 0.930 . S
H1899 C1911 0.929 . S
H1900 C1914 0.930 . S
H1901 C1916 0.960 . S
H1902 C1916 0.960 . S
H1903 C1916 0.960 . S
C1904 H1896 0.929 . S
C1904 C1905 1.377 . S
C1904 C1906 1.384 . S
C1905 C1904 1.377 . S
C1905 C1911 1.390 . S
C1906 H1897 0.930 . S
C1906 C1904 1.384 . S
C1906 C1907 1.372 . S
C1907 C1906 1.372 . S
C1907 C1908 1.400 . S
C1907 C1912 1.490 . S
C1908 H1898 0.930 . S
C1908 C1907 1.400 . S
C1908 C1911 1.386 . S
H1909 C1925 0.930 . S
H1910 C1926 0.931 . S
C1911 H1899 0.929 . S
C1911 C1905 1.390 . S
C1911 C1908 1.386 . S
C1912 C1907 1.490 . S
C1912 C1914 1.395 1_554 S
C1912 C1915 1.403 . S
H1913 C1919 0.930 . S
C1914 H1900 0.930 . S
C1914 C1912 1.395 1_556 S
C1914 C1917 1.403 . S
C1915 C1912 1.403 . S
C1915 C1916 1.524 . S
C1915 C1919 1.400 . S
C1916 H1901 0.960 . S
C1916 H1902 0.960 . S
C1916 H1903 0.960 . S
C1916 C1915 1.524 . S
C1917 C1914 1.403 . S
C1917 C1918 1.392 . S
C1917 C1921 1.495 . S
C1918 C1917 1.392 . S
C1918 C1919 1.385 1_556 S
C1918 C1920 1.478 . S
C1919 H1913 0.930 . S
C1919 C1915 1.400 . S
C1919 C1918 1.385 1_554 S
C1920 C1918 1.478 . S
C1920 C1922 1.381 . S
C1920 C1926 1.383 . S
C1921 C1917 1.495 . S
C1921 H1927 0.959 . S
C1921 H1928 0.961 . S
C1921 H1929 0.960 . S
C1922 C1920 1.381 . S
C1922 C1923 1.394 . S
C1922 H1930 0.930 . S
C1923 C1922 1.394 . S
C1923 C1924 1.383 . S
C1923 H1931 0.929 . S
C1924 C1923 1.383 . S
C1924 C1925 1.377 . S
C1925 H1909 0.930 . S
C1925 C1924 1.377 . S
C1925 C1926 1.379 . S
C1926 H1910 0.931 . S
C1926 C1920 1.383 . S
C1926 C1925 1.379 . S
H1927 C1921 0.959 . S
H1928 C1921 0.961 . S
H1929 C1921 0.960 . S
H1930 C1922 0.930 . S
H1931 C1923 0.929 . S
H1932 C1940 0.929 . S
H1933 C1942 0.930 . S
H1934 C1944 0.930 . S
H1935 C1947 0.929 . S
H1936 C1950 0.930 . S
H1937 C1952 0.960 . S
H1938 C1952 0.960 . S
H1939 C1952 0.960 . S
C1940 H1932 0.929 . S
C1940 C1941 1.377 . S
C1940 C1942 1.384 . S
C1941 C1940 1.377 . S
C1941 C1947 1.390 . S
C1942 H1933 0.930 . S
C1942 C1940 1.384 . S
C1942 C1943 1.372 . S
C1943 C1942 1.372 . S
C1943 C1944 1.400 . S
C1943 C1948 1.490 . S
C1944 H1934 0.930 . S
C1944 C1943 1.400 . S
C1944 C1947 1.386 . S
H1945 C1961 0.930 . S
H1946 C1962 0.931 . S
C1947 H1935 0.929 . S
C1947 C1941 1.390 . S
C1947 C1944 1.386 . S
C1948 C1943 1.490 . S
C1948 C1950 1.395 . S
C1948 C1951 1.403 . S
H1949 C1955 0.930 . S
C1950 H1936 0.930 . S
C1950 C1948 1.395 . S
C1950 C1953 1.403 . S
C1951 C1948 1.403 . S
C1951 C1952 1.524 . S
C1951 C1955 1.400 . S
C1952 H1937 0.960 . S
C1952 H1938 0.960 . S
C1952 H1939 0.960 . S
C1952 C1951 1.524 . S
C1953 C1950 1.403 . S
C1953 C1954 1.392 . S
C1953 C1957 1.495 . S
C1954 C1953 1.392 . S
C1954 C1955 1.385 . S
C1954 C1956 1.478 . S
C1955 H1949 0.930 . S
C1955 C1951 1.400 . S
C1955 C1954 1.385 . S
C1956 C1954 1.478 . S
C1956 C1958 1.381 . S
C1956 C1962 1.383 . S
C1957 C1953 1.495 . S
C1957 H1963 0.959 . S
C1957 H1964 0.961 . S
C1957 H1965 0.960 . S
C1958 C1956 1.381 . S
C1958 C1959 1.394 . S
C1958 H1966 0.930 . S
C1959 C1958 1.394 . S
C1959 C1960 1.383 . S
C1959 H1967 0.929 . S
C1960 C1959 1.383 . S
C1960 C1961 1.377 . S
C1961 H1945 0.930 . S
C1961 C1960 1.377 . S
C1961 C1962 1.379 . S
C1962 H1946 0.931 . S
C1962 C1956 1.383 . S
C1962 C1961 1.379 . S
H1963 C1957 0.959 . S
H1964 C1957 0.961 . S
H1965 C1957 0.960 . S
H1966 C1958 0.930 . S
H1967 C1959 0.929 . S
H1968 C1976 0.929 . S
H1969 C1978 0.930 . S
H1970 C1980 0.930 1_554 S
H1971 C1983 0.929 . S
H1972 C1986 0.930 . S
H1973 C1988 0.960 . S
H1974 C1988 0.960 1_556 S
H1975 C1988 0.960 . S
C1976 H1968 0.929 . S
C1976 C1977 1.377 . S
C1976 C1978 1.384 . S
C1977 C1976 1.377 . S
C1977 C1983 1.390 . S
C1978 H1969 0.930 . S
C1978 C1976 1.384 . S
C1978 C1979 1.372 . S
C1979 C1978 1.372 . S
C1979 C1980 1.400 . S
C1979 C1984 1.490 . S
C1980 H1970 0.930 1_556 S
C1980 C1979 1.400 . S
C1980 C1983 1.386 . S
H1981 C1997 0.930 . S
H1982 C1998 0.931 . S
C1983 H1971 0.929 . S
C1983 C1977 1.390 . S
C1983 C1980 1.386 . S
C1984 C1979 1.490 . S
C1984 C1986 1.395 . S
C1984 C1987 1.403 1_556 S
H1985 C1991 0.930 . S
C1986 H1972 0.930 . S
C1986 C1984 1.395 . S
C1986 C1989 1.403 . S
C1987 C1984 1.403 1_554 S
C1987 C1988 1.524 . S
C1987 C1991 1.400 . S
C1988 H1973 0.960 . S
C1988 H1974 0.960 1_554 S
C1988 H1975 0.960 . S
C1988 C1987 1.524 . S
C1989 C1986 1.403 . S
C1989 C1990 1.392 1_556 S
C1989 C1993 1.495 . S
C1990 C1989 1.392 1_554 S
C1990 C1991 1.385 . S
C1990 C1992 1.478 . S
C1991 H1985 0.930 . S
C1991 C1987 1.400 . S
C1991 C1990 1.385 . S
C1992 C1990 1.478 . S
C1992 C1994 1.381 . S
C1992 C1998 1.383 . S
C1993 C1989 1.495 . S
C1993 H1999 0.959 . S
C1993 H2000 0.961 1_556 S
C1993 H2001 0.960 . S
C1994 C1992 1.381 . S
C1994 C1995 1.394 . S
C1994 H2002 0.930 1_554 S
C1995 C1994 1.394 . S
C1995 C1996 1.383 . S
C1995 H2003 0.929 . S
C1996 C1995 1.383 . S
C1996 C1997 1.377 . S
C1997 H1981 0.930 . S
C1997 C1996 1.377 . S
C1997 C1998 1.379 . S
C1998 H1982 0.931 . S
C1998 C1992 1.383 . S
C1998 C1997 1.379 . S
H1999 C1993 0.959 . S
H2000 C1993 0.961 1_554 S
H2001 C1993 0.960 . S
H2002 C1994 0.930 1_556 S
H2003 C1995 0.929 . S
H2004 C2012 0.929 . S
H2005 C2014 0.930 . S
H2006 C2016 0.930 . S
H2007 C2019 0.929 . S
H2008 C2022 0.930 . S
H2009 C2024 0.960 . S
H2010 C2024 0.960 . S
H2011 C2024 0.960 . S
C2012 H2004 0.929 . S
C2012 C2013 1.377 . S
C2012 C2014 1.384 . S
C2013 C2012 1.377 . S
C2013 C2019 1.390 . S
C2014 H2005 0.930 . S
C2014 C2012 1.384 . S
C2014 C2015 1.372 . S
C2015 C2014 1.372 . S
C2015 C2016 1.400 . S
C2015 C2020 1.490 . S
C2016 H2006 0.930 . S
C2016 C2015 1.400 . S
C2016 C2019 1.386 . S
H2017 C2033 0.930 . S
H2018 C2034 0.931 . S
C2019 H2007 0.929 . S
C2019 C2013 1.390 . S
C2019 C2016 1.386 . S
C2020 C2015 1.490 . S
C2020 C2022 1.395 . S
C2020 C2023 1.403 . S
H2021 C2027 0.930 . S
C2022 H2008 0.930 . S
C2022 C2020 1.395 . S
C2022 C2025 1.403 . S
C2023 C2020 1.403 . S
C2023 C2024 1.524 . S
C2023 C2027 1.400 . S
C2024 H2009 0.960 . S
C2024 H2010 0.960 . S
C2024 H2011 0.960 . S
C2024 C2023 1.524 . S
C2025 C2022 1.403 . S
C2025 C2026 1.392 . S
C2025 C2029 1.495 . S
C2026 C2025 1.392 . S
C2026 C2027 1.385 . S
C2026 C2028 1.478 . S
C2027 H2021 0.930 . S
C2027 C2023 1.400 . S
C2027 C2026 1.385 . S
C2028 C2026 1.478 . S
C2028 C2030 1.381 . S
C2028 C2034 1.383 . S
C2029 C2025 1.495 . S
C2029 H2035 0.959 . S
C2029 H2036 0.961 . S
C2029 H2037 0.960 . S
C2030 C2028 1.381 . S
C2030 C2031 1.394 . S
C2030 H2038 0.930 . S
C2031 C2030 1.394 . S
C2031 C2032 1.383 . S
C2031 H2039 0.929 . S
C2032 C2031 1.383 . S
C2032 C2033 1.377 . S
C2033 H2017 0.930 . S
C2033 C2032 1.377 . S
C2033 C2034 1.379 . S
C2034 H2018 0.931 . S
C2034 C2028 1.383 . S
C2034 C2033 1.379 . S
H2035 C2029 0.959 . S
H2036 C2029 0.961 . S
H2037 C2029 0.960 . S
H2038 C2030 0.930 . S
H2039 C2031 0.929 . S
C321 C10 1.441 . S
C340 C205 1.423 . S
C357 C23 1.438 . S
C376 C218 1.451 . S
C393 C231 1.441 . S
C412 C36 1.423 . S
C429 C166 1.443 . S
C448 C49 1.426 . S
C465 C179 1.438 . S
C484 C62 1.431 . S
C501 C192 1.437 . S
C520 C75 1.442 . S
C537 C283 1.442 . S
C556 C88 1.437 . S
C573 C101 1.441 . S
C592 C296 1.423 . S
C609 C309 1.438 . S
C628 C114 1.451 . S
C645 C127 1.439 . S
C664 C244 1.426 . S
C681 C257 1.437 . S
C700 C140 1.449 . S
C717 C153 1.443 . S
C736 C270 1.436 . S
C753 C130 0.989 . S
C772 C0 0.959 . S
C789 C143 1.002 . S
C808 C13 1.024 . S
C825 C26 1.001 . S
C844 C78 1.021 . S
C861 C39 0.988 . S
C880 C91 0.957 . S
C897 C104 0.988 . S
C916 C52 0.958 . S
C933 C65 1.000 . S
C952 C117 1.007 . S
C969 C286 1.000 . S
C988 C156 0.974 . S
C1005 C169 1.000 . S
C1024 C299 0.970 . S
C1041 C182 0.999 . S
C1060 C234 1.015 . S
C1077 C247 0.994 . S
C1096 C195 0.958 . S
C1113 C208 0.988 . S
C1132 C260 0.982 . S
C1149 C221 0.993 . S
C1168 C273 1.027 . S
C1185 C5 1.105 . S
C1204 C239 1.102 . S
C1221 C252 1.102 . S
C1240 C18 1.117 . S
C1257 C31 1.105 . S
C1276 C265 1.060 . S
C1293 C44 1.103 . S
C1312 C278 1.112 . S
C1329 C291 1.094 . S
C1348 C57 1.078 . S
C1365 C70 1.090 . S
C1384 C304 1.116 . S
C1401 C83 1.093 . S
C1420 C161 1.135 . S
C1437 C96 1.090 . S
C1456 C174 1.122 . S
C1473 C187 1.090 . S
C1492 C109 1.126 . S
C1509 C200 1.100 . S
C1528 C122 1.125 . S
C1545 C135 1.106 . S
C1564 C213 1.086 . S
C1581 C226 1.095 . S
C1600 C148 1.071 . S
C1617 C86 1.501 . S
C1636 C8 1.487 . S
C1653 C21 1.499 . S
C1672 C99 1.496 . S
C1689 C112 1.498 . S
C1708 C34 1.523 . S
C1725 C125 1.503 . S
C1744 C47 1.481 . S
C1761 C138 1.498 . S
C1780 C60 1.504 . S
C1797 C73 1.500 . S
C1816 C151 1.491 . S
C1833 C242 1.501 . S
C1852 C164 1.524 . S
C1869 C177 1.501 . S
C1888 C255 1.524 . S
C1905 C268 1.507 . S
C1924 C190 1.505 . S
C1941 C281 1.507 . S
C1960 C203 1.480 . S
C1977 C216 1.499 . S
C1996 C294 1.522 . S
C2013 C229 1.507 . S
C2032 C307 1.507 . S
