# Generated by pormake.
# Topology uoa, (4)-cn, num edge types: 1
# Building blocks:
#     Node 0, Type 0, BuildingBlock: MUDLON_clean_sbu_0, # of connection points: 4
#     Node 1, Type 0, BuildingBlock: MUDLON_clean_sbu_0, # of connection points: 4
#     Node 2, Type 0, BuildingBlock: MUDLON_clean_sbu_0, # of connection points: 4
#     Node 3, Type 0, BuildingBlock: MUDLON_clean_sbu_0, # of connection points: 4
#     Node 4, Type 0, BuildingBlock: MUDLON_clean_sbu_0, # of connection points: 4
#     Node 5, Type 0, BuildingBlock: MUDLON_clean_sbu_0, # of connection points: 4
#     Node 6, Type 0, BuildingBlock: MUDLON_clean_sbu_0, # of connection points: 4
#     Node 7, Type 0, BuildingBlock: MUDLON_clean_sbu_0, # of connection points: 4
#     Node 8, Type 0, BuildingBlock: MUDLON_clean_sbu_0, # of connection points: 4
#     Node 9, Type 0, BuildingBlock: MUDLON_clean_sbu_0, # of connection points: 4
#     Node 10, Type 0, BuildingBlock: MUDLON_clean_sbu_0, # of connection points: 4
#     Node 11, Type 0, BuildingBlock: MUDLON_clean_sbu_0, # of connection points: 4
#     Node 12, Type 0, BuildingBlock: MUDLON_clean_sbu_0, # of connection points: 4
#     Node 13, Type 0, BuildingBlock: MUDLON_clean_sbu_0, # of connection points: 4
#     Node 14, Type 0, BuildingBlock: MUDLON_clean_sbu_0, # of connection points: 4
#     Node 15, Type 0, BuildingBlock: MUDLON_clean_sbu_0, # of connection points: 4
#     Node 16, Type 0, BuildingBlock: MUDLON_clean_sbu_0, # of connection points: 4
#     Node 17, Type 0, BuildingBlock: MUDLON_clean_sbu_0, # of connection points: 4
#     Node 18, Type 0, BuildingBlock: MUDLON_clean_sbu_0, # of connection points: 4
#     Node 19, Type 0, BuildingBlock: MUDLON_clean_sbu_0, # of connection points: 4
#     Node 20, Type 0, BuildingBlock: MUDLON_clean_sbu_0, # of connection points: 4
#     Node 21, Type 0, BuildingBlock: MUDLON_clean_sbu_0, # of connection points: 4
#     Node 22, Type 0, BuildingBlock: MUDLON_clean_sbu_0, # of connection points: 4
#     Node 23, Type 0, BuildingBlock: MUDLON_clean_sbu_0, # of connection points: 4
#     Node 24, Type 0, BuildingBlock: MUDLON_clean_sbu_0, # of connection points: 4
#     Node 25, Type 0, BuildingBlock: MUDLON_clean_sbu_0, # of connection points: 4
#     Node 26, Type 0, BuildingBlock: MUDLON_clean_sbu_0, # of connection points: 4
#     Node 27, Type 0, BuildingBlock: MUDLON_clean_sbu_0, # of connection points: 4
#     Node 28, Type 0, BuildingBlock: MUDLON_clean_sbu_0, # of connection points: 4
#     Node 29, Type 0, BuildingBlock: MUDLON_clean_sbu_0, # of connection points: 4
#     Node 30, Type 0, BuildingBlock: MUDLON_clean_sbu_0, # of connection points: 4
#     Node 31, Type 0, BuildingBlock: MUDLON_clean_sbu_0, # of connection points: 4
#     Edge 32, Type (0, 0), BuildingBlock: ZUJKAS_clean_linker_0, # of connection points: 2
#     Edge 33, Type (0, 0), BuildingBlock: ZUJKAS_clean_linker_0, # of connection points: 2
#     Edge 34, Type (0, 0), BuildingBlock: ZUJKAS_clean_linker_0, # of connection points: 2
#     Edge 35, Type (0, 0), BuildingBlock: ZUJKAS_clean_linker_0, # of connection points: 2
#     Edge 36, Type (0, 0), BuildingBlock: ZUJKAS_clean_linker_0, # of connection points: 2
#     Edge 37, Type (0, 0), BuildingBlock: ZUJKAS_clean_linker_0, # of connection points: 2
#     Edge 38, Type (0, 0), BuildingBlock: ZUJKAS_clean_linker_0, # of connection points: 2
#     Edge 39, Type (0, 0), BuildingBlock: ZUJKAS_clean_linker_0, # of connection points: 2
#     Edge 40, Type (0, 0), BuildingBlock: ZUJKAS_clean_linker_0, # of connection points: 2
#     Edge 41, Type (0, 0), BuildingBlock: ZUJKAS_clean_linker_0, # of connection points: 2
#     Edge 42, Type (0, 0), BuildingBlock: ZUJKAS_clean_linker_0, # of connection points: 2
#     Edge 43, Type (0, 0), BuildingBlock: ZUJKAS_clean_linker_0, # of connection points: 2
#     Edge 44, Type (0, 0), BuildingBlock: ZUJKAS_clean_linker_0, # of connection points: 2
#     Edge 45, Type (0, 0), BuildingBlock: ZUJKAS_clean_linker_0, # of connection points: 2
#     Edge 46, Type (0, 0), BuildingBlock: ZUJKAS_clean_linker_0, # of connection points: 2
#     Edge 47, Type (0, 0), BuildingBlock: ZUJKAS_clean_linker_0, # of connection points: 2
#     Edge 48, Type (0, 0), BuildingBlock: ZUJKAS_clean_linker_0, # of connection points: 2
#     Edge 49, Type (0, 0), BuildingBlock: ZUJKAS_clean_linker_0, # of connection points: 2
#     Edge 50, Type (0, 0), BuildingBlock: ZUJKAS_clean_linker_0, # of connection points: 2
#     Edge 51, Type (0, 0), BuildingBlock: ZUJKAS_clean_linker_0, # of connection points: 2
#     Edge 52, Type (0, 0), BuildingBlock: ZUJKAS_clean_linker_0, # of connection points: 2
#     Edge 53, Type (0, 0), BuildingBlock: ZUJKAS_clean_linker_0, # of connection points: 2
#     Edge 54, Type (0, 0), BuildingBlock: ZUJKAS_clean_linker_0, # of connection points: 2
#     Edge 55, Type (0, 0), BuildingBlock: ZUJKAS_clean_linker_0, # of connection points: 2
#     Edge 56, Type (0, 0), BuildingBlock: ZUJKAS_clean_linker_0, # of connection points: 2
#     Edge 57, Type (0, 0), BuildingBlock: ZUJKAS_clean_linker_0, # of connection points: 2
#     Edge 58, Type (0, 0), BuildingBlock: ZUJKAS_clean_linker_0, # of connection points: 2
#     Edge 59, Type (0, 0), BuildingBlock: ZUJKAS_clean_linker_0, # of connection points: 2
#     Edge 60, Type (0, 0), BuildingBlock: ZUJKAS_clean_linker_0, # of connection points: 2
#     Edge 61, Type (0, 0), BuildingBlock: ZUJKAS_clean_linker_0, # of connection points: 2
#     Edge 62, Type (0, 0), BuildingBlock: ZUJKAS_clean_linker_0, # of connection points: 2
#     Edge 63, Type (0, 0), BuildingBlock: ZUJKAS_clean_linker_0, # of connection points: 2
#     Edge 64, Type (0, 0), BuildingBlock: ZUJKAS_clean_linker_0, # of connection points: 2
#     Edge 65, Type (0, 0), BuildingBlock: ZUJKAS_clean_linker_0, # of connection points: 2
#     Edge 66, Type (0, 0), BuildingBlock: ZUJKAS_clean_linker_0, # of connection points: 2
#     Edge 67, Type (0, 0), BuildingBlock: ZUJKAS_clean_linker_0, # of connection points: 2
#     Edge 68, Type (0, 0), BuildingBlock: ZUJKAS_clean_linker_0, # of connection points: 2
#     Edge 69, Type (0, 0), BuildingBlock: ZUJKAS_clean_linker_0, # of connection points: 2
#     Edge 70, Type (0, 0), BuildingBlock: ZUJKAS_clean_linker_0, # of connection points: 2
#     Edge 71, Type (0, 0), BuildingBlock: ZUJKAS_clean_linker_0, # of connection points: 2
#     Edge 72, Type (0, 0), BuildingBlock: ZUJKAS_clean_linker_0, # of connection points: 2
#     Edge 73, Type (0, 0), BuildingBlock: ZUJKAS_clean_linker_0, # of connection points: 2
#     Edge 74, Type (0, 0), BuildingBlock: ZUJKAS_clean_linker_0, # of connection points: 2
#     Edge 75, Type (0, 0), BuildingBlock: ZUJKAS_clean_linker_0, # of connection points: 2
#     Edge 76, Type (0, 0), BuildingBlock: ZUJKAS_clean_linker_0, # of connection points: 2
#     Edge 77, Type (0, 0), BuildingBlock: ZUJKAS_clean_linker_0, # of connection points: 2
#     Edge 78, Type (0, 0), BuildingBlock: ZUJKAS_clean_linker_0, # of connection points: 2
#     Edge 79, Type (0, 0), BuildingBlock: ZUJKAS_clean_linker_0, # of connection points: 2
#     Edge 80, Type (0, 0), BuildingBlock: ZUJKAS_clean_linker_0, # of connection points: 2
#     Edge 81, Type (0, 0), BuildingBlock: ZUJKAS_clean_linker_0, # of connection points: 2
#     Edge 82, Type (0, 0), BuildingBlock: ZUJKAS_clean_linker_0, # of connection points: 2
#     Edge 83, Type (0, 0), BuildingBlock: ZUJKAS_clean_linker_0, # of connection points: 2
#     Edge 84, Type (0, 0), BuildingBlock: ZUJKAS_clean_linker_0, # of connection points: 2
#     Edge 85, Type (0, 0), BuildingBlock: ZUJKAS_clean_linker_0, # of connection points: 2
#     Edge 86, Type (0, 0), BuildingBlock: ZUJKAS_clean_linker_0, # of connection points: 2
#     Edge 87, Type (0, 0), BuildingBlock: ZUJKAS_clean_linker_0, # of connection points: 2
#     Edge 88, Type (0, 0), BuildingBlock: ZUJKAS_clean_linker_0, # of connection points: 2
#     Edge 89, Type (0, 0), BuildingBlock: ZUJKAS_clean_linker_0, # of connection points: 2
#     Edge 90, Type (0, 0), BuildingBlock: ZUJKAS_clean_linker_0, # of connection points: 2
#     Edge 91, Type (0, 0), BuildingBlock: ZUJKAS_clean_linker_0, # of connection points: 2
#     Edge 92, Type (0, 0), BuildingBlock: ZUJKAS_clean_linker_0, # of connection points: 2
#     Edge 93, Type (0, 0), BuildingBlock: ZUJKAS_clean_linker_0, # of connection points: 2
#     Edge 94, Type (0, 0), BuildingBlock: ZUJKAS_clean_linker_0, # of connection points: 2
#     Edge 95, Type (0, 0), BuildingBlock: ZUJKAS_clean_linker_0, # of connection points: 2
# Relax obj value: 0.110
# Max RMSD: 0.249
# Mean RMSD: 0.249
data_MOF--net-uoa--node1-MUDLON_clean_sbu_0--edge1-ZUJKAS_clean_linker_0
_symmetry_space_group_name_H-M    P1
_symmetry_Int_Tables_number       1
_symmetry_cell_setting            triclinic
loop_
_symmetry_equiv_pos_as_xyz
'x, y, z'
_cell_length_a     101.69087
_cell_length_b     101.79005
_cell_length_c     38.208763
_cell_angle_alpha  89.958598
_cell_angle_beta   89.999703
_cell_angle_gamma 89.976366
loop_
_atom_site_label
_atom_site_type_symbol
_atom_site_fract_x
_atom_site_fract_y
_atom_site_fract_z
_atom_type_partial_charge
Mg0 Mg 0.0283 0.09261 0.06557 0.0
C1 C 0.01697 0.06646 0.05542 0.0
O2 O 0.00684 0.07384 0.06381 0.0
C3 C 0.04877 0.11321 0.07201 0.0
O4 O 0.0381 0.12011 0.06575 0.0
C5 C 0.02734 0.10145 0.99235 0.0
O6 O 0.03969 0.09813 0.99725 0.0
O7 O 0.01953 0.10096 0.01839 0.0
O8 O 0.02833 0.07167 0.0548 0.0
O9 O 0.01776 0.09508 0.11491 0.0
C10 C 0.01348 0.10576 0.12786 0.0
O11 O 0.01439 0.11666 0.10961 0.0
O12 O 0.0479 0.10075 0.07284 0.0
Mg13 Mg 0.1626 0.78043 0.32078 0.0
C14 C 0.16036 0.77659 0.39683 0.0
O15 O 0.16574 0.78827 0.39375 0.0
C16 C 0.1522 0.77916 0.24792 0.0
O17 O 0.15374 0.79187 0.25216 0.0
C18 C 0.14233 0.79996 0.33521 0.0
O19 O 0.13641 0.78855 0.33846 0.0
O20 O 0.15443 0.80007 0.32671 0.0
O21 O 0.15773 0.77018 0.36912 0.0
O22 O 0.18377 0.77941 0.31359 0.0
C23 C 0.18857 0.76794 0.31714 0.0
O24 O 0.18069 0.75834 0.32656 0.0
O25 O 0.15452 0.77156 0.27367 0.0
Mg26 Mg 0.4744 0.90797 0.56622 0.0
C27 C 0.4878 0.93257 0.54614 0.0
O28 O 0.49632 0.92342 0.5375 0.0
C29 C 0.45196 0.89012 0.57357 0.0
O30 O 0.46174 0.88241 0.56436 0.0
C31 C 0.49003 0.89507 0.50403 0.0
O32 O 0.49958 0.89297 0.5265 0.0
O33 O 0.47933 0.90021 0.51458 0.0
O34 O 0.47707 0.92911 0.56059 0.0
O35 O 0.48522 0.90065 0.6118 0.0
C36 C 0.49182 0.9085 0.63088 0.0
O37 O 0.49339 0.92069 0.62041 0.0
O38 O 0.45411 0.90239 0.57616 0.0
Mg39 Mg 0.34545 0.22424 0.81781 0.0
C40 C 0.34247 0.23578 0.88897 0.0
O41 O 0.33081 0.23063 0.88343 0.0
C42 C 0.35592 0.2239 0.7448 0.0
O43 O 0.35472 0.2113 0.75158 0.0
C44 C 0.35155 0.19839 0.8542 0.0
O45 O 0.34439 0.20379 0.87891 0.0
O46 O 0.35298 0.20442 0.82529 0.0
O47 O 0.35102 0.23516 0.86469 0.0
O48 O 0.32413 0.22541 0.8126 0.0
C49 C 0.31864 0.2249 0.78272 0.0
O50 O 0.32586 0.22237 0.75504 0.0
O51 O 0.35344 0.2321 0.76906 0.0
Mg52 Mg 0.02585 0.90745 0.44861 0.0
C53 C 0.01312 0.9324 0.46869 0.0
O54 O 0.00408 0.92356 0.47573 0.0
C55 C 0.05225 0.90257 0.41522 0.0
O56 O 0.0466 0.90938 0.39016 0.0
C57 C 0.02427 0.89212 0.51693 0.0
O58 O 0.03628 0.88888 0.50769 0.0
O59 O 0.01733 0.89898 0.49605 0.0
O60 O 0.024 0.92859 0.45572 0.0
O61 O 0.01671 0.90153 0.39926 0.0
C62 C 0.00989 0.90943 0.38089 0.0
O63 O 0.00708 0.92108 0.39357 0.0
O64 O 0.04612 0.90093 0.4439 0.0
Mg65 Mg 0.34301 0.7799 0.70338 0.0
C66 C 0.34118 0.77309 0.62857 0.0
O67 O 0.33184 0.78186 0.63292 0.0
C68 C 0.35242 0.77876 0.77675 0.0
O69 O 0.35042 0.79139 0.77202 0.0
C70 C 0.34678 0.80882 0.68031 0.0
O71 O 0.33527 0.80737 0.66519 0.0
O72 O 0.35153 0.79942 0.69825 0.0
O73 O 0.34787 0.76955 0.6551 0.0
O74 O 0.3218 0.77917 0.71021 0.0
C75 C 0.31707 0.76762 0.70851 0.0
O76 O 0.32507 0.75784 0.70127 0.0
O77 O 0.35074 0.77101 0.751 0.0
Mg78 Mg 0.47809 0.09252 0.94461 0.0
C79 C 0.48901 0.06609 0.95407 0.0
O80 O 0.49926 0.07326 0.94549 0.0
C81 C 0.45808 0.11285 0.92947 0.0
O82 O 0.46922 0.11899 0.92363 0.0
C83 C 0.48147 0.10709 0.01287 0.0
O84 O 0.46908 0.10972 1.00617 0.0
O85 O 0.48817 0.10083 0.99018 0.0
O86 O 0.47778 0.07157 0.95536 0.0
O87 O 0.48716 0.09468 0.89301 0.0
C88 C 0.49397 0.10413 0.88091 0.0
O89 O 0.49712 0.11397 0.90148 0.0
O90 O 0.45847 0.10095 0.93967 0.0
Mg91 Mg 0.1587 0.22421 0.202 0.0
C92 C 0.16197 0.23814 0.13301 0.0
O93 O 0.17432 0.23581 0.14092 0.0
C94 C 0.15092 0.22378 0.27631 0.0
O95 O 0.15502 0.21173 0.2706 0.0
C96 C 0.15342 0.19818 0.16622 0.0
O97 O 0.16115 0.20342 0.14246 0.0
O98 O 0.15135 0.20438 0.19455 0.0
O99 O 0.15308 0.23495 0.15484 0.0
O100 O 0.17988 0.22545 0.20944 0.0
C101 C 0.18384 0.2365 0.22094 0.0
O102 O 0.17511 0.24579 0.22644 0.0
O103 O 0.15055 0.23177 0.25069 0.0
Mg104 Mg 0.97854 0.90776 0.94251 0.0
C105 C 0.98796 0.89189 0.87977 0.0
O106 O 0.97915 0.88359 0.89178 0.0
C107 C 0.99524 0.90276 0.00791 0.0
O108 O 0.00395 0.90962 0.99029 0.0
C109 C 0.95497 0.89028 0.94426 0.0
O110 O 0.96309 0.88398 0.96511 0.0
O111 O 0.95859 0.90122 0.93134 0.0
O112 O 0.99038 0.90228 0.89712 0.0
O113 O 0.9799 0.92896 0.94859 0.0
C114 C 0.99082 0.93438 0.94117 0.0
O115 O 1.00031 0.92713 0.92806 0.0
O116 O 0.9844 0.89981 0.99329 0.0
Mg117 Mg 0.84315 0.22504 0.71176 0.0
C118 C 0.81235 0.22256 0.70754 0.0
O119 O 0.81405 0.21408 0.68204 0.0
C120 C 0.86077 0.20176 0.7101 0.0
O121 O 0.86771 0.21026 0.7282 0.0
C122 C 0.85037 0.22361 0.78641 0.0
O123 O 0.8446 0.21228 0.78061 0.0
O124 O 0.852 0.23145 0.76079 0.0
O125 O 0.8223 0.2277 0.72226 0.0
O126 O 0.84907 0.23627 0.66564 0.0
C127 C 0.84032 0.24041 0.64453 0.0
O128 O 0.82789 0.23901 0.65298 0.0
O129 O 0.84924 0.20496 0.70037 0.0
Mg130 Mg 0.52663 0.09253 0.44155 0.0
C131 C 0.51821 0.10725 0.37626 0.0
O132 O 0.52728 0.11535 0.38778 0.0
C133 C 0.51154 0.09544 0.50939 0.0
O134 O 0.50577 0.085 0.49635 0.0
C135 C 0.55275 0.10681 0.4496 0.0
O136 O 0.5476 0.10992 0.48002 0.0
O137 O 0.54646 0.09913 0.42941 0.0
O138 O 0.51515 0.09732 0.39485 0.0
O139 O 0.52568 0.07135 0.44937 0.0
C140 C 0.51528 0.0654 0.43978 0.0
O141 O 0.50605 0.0721 0.42366 0.0
O142 O 0.52015 0.10134 0.49101 0.0
Mg143 Mg 0.65946 0.77792 0.2004 0.0
C144 C 0.68682 0.76846 0.1962 0.0
O145 O 0.68004 0.75876 0.18247 0.0
C146 C 0.65456 0.80749 0.18556 0.0
O147 O 0.667 0.80774 0.17631 0.0
C148 C 0.64622 0.77367 0.2705 0.0
O149 O 0.64185 0.78554 0.26356 0.0
O150 O 0.65308 0.76772 0.24759 0.0
O151 O 0.68073 0.77882 0.20546 0.0
O152 O 0.65491 0.76787 0.15142 0.0
C153 C 0.65832 0.77417 0.1241 0.0
O154 O 0.66418 0.78557 0.12796 0.0
O155 O 0.64963 0.79688 0.19725 0.0
Mg156 Mg 0.97444 0.09337 0.56447 0.0
C157 C 0.98088 0.09238 0.63882 0.0
O158 O 0.97107 0.08412 0.63466 0.0
C159 C 0.97415 0.09969 0.48909 0.0
O160 O 0.9626 0.09428 0.49455 0.0
C161 C 0.95125 0.1116 0.56183 0.0
O162 O 0.95969 0.11806 0.54232 0.0
O163 O 0.95452 0.10043 0.57398 0.0
O164 O 0.9853 0.09832 0.61193 0.0
O165 O 0.97568 0.07221 0.55783 0.0
C166 C 0.98695 0.06817 0.54818 0.0
O167 O 0.99642 0.07682 0.54413 0.0
O168 O 0.98185 0.10126 0.51504 0.0
Mg169 Mg 0.66012 0.22279 0.30917 0.0
C170 C 0.68529 0.23659 0.30141 0.0
O171 O 0.67655 0.2461 0.30246 0.0
C172 C 0.64177 0.20005 0.30523 0.0
O173 O 0.63522 0.20911 0.28801 0.0
C174 C 0.65722 0.22512 0.23325 0.0
O175 O 0.66587 0.21567 0.23772 0.0
O176 O 0.6523 0.23055 0.26024 0.0
O177 O 0.68132 0.22479 0.30453 0.0
O178 O 0.65415 0.23297 0.35682 0.0
C179 C 0.65557 0.22606 0.38436 0.0
O180 O 0.66022 0.21407 0.38117 0.0
O181 O 0.65332 0.20267 0.31582 0.0
Mg182 Mg 0.5269 0.9067 0.06527 0.0
C183 C 0.51751 0.90862 0.13809 0.0
O184 O 0.52413 0.91955 0.13324 0.0
C185 C 0.50983 0.89928 1.00164 0.0
O186 O 0.5004 0.9047 0.02016 0.0
C187 C 0.54918 0.88852 0.07289 0.0
O188 O 0.53941 0.88087 0.06335 0.0
O189 O 0.5471 0.90081 0.0753 0.0
O190 O 0.51627 0.90072 0.11246 0.0
O191 O 0.52481 0.92782 0.05791 0.0
C192 C 0.51347 0.93288 0.06208 0.0
O193 O 0.50375 0.92534 0.07251 0.0
O194 O 0.52119 0.89802 0.01518 0.0
Mg195 Mg 0.84377 0.77679 0.81682 0.0
C196 C 0.81829 0.76362 0.80957 0.0
O197 O 0.82673 0.7539 0.8128 0.0
C198 C 0.86355 0.79778 0.81967 0.0
O199 O 0.87035 0.78728 0.81113 0.0
C200 C 0.84854 0.77632 0.74147 0.0
O201 O 0.8422 0.78738 0.74706 0.0
O202 O 0.85138 0.76913 0.76766 0.0
O203 O 0.82256 0.77534 0.81141 0.0
O204 O 0.84956 0.76609 0.86381 0.0
C205 C 0.84868 0.77269 0.89201 0.0
O206 O 0.84464 0.78493 0.89017 0.0
O207 O 0.85116 0.7967 0.82312 0.0
Mg208 Mg 0.52501 0.59281 0.57726 0.0
C209 C 0.5131 0.56732 0.56198 0.0
O210 O 0.50303 0.57521 0.56694 0.0
C211 C 0.54599 0.61072 0.60262 0.0
O212 O 0.53531 0.61588 0.61618 0.0
C213 C 0.52266 0.60771 0.50924 0.0
O214 O 0.53508 0.60991 0.51665 0.0
O215 O 0.51558 0.60169 0.53156 0.0
O216 O 0.52465 0.57198 0.56524 0.0
O217 O 0.51523 0.59467 0.62799 0.0
C218 C 0.50832 0.60414 0.63959 0.0
O219 O 0.5057 0.61417 0.61906 0.0
O220 O 0.54491 0.60048 0.58376 0.0
Mg221 Mg 0.65642 0.2752 0.80889 0.0
C222 C 0.64336 0.26853 0.87818 0.0
O223 O 0.63618 0.27875 0.8694 0.0
C224 C 0.64636 0.27406 0.7358 0.0
O225 O 0.64802 0.28675 0.7403 0.0
C226 C 0.65219 0.30303 0.83724 0.0
O227 O 0.66233 0.3 0.85696 0.0
O228 O 0.64824 0.29483 0.81447 0.0
O229 O 0.65207 0.2644 0.85692 0.0
O230 O 0.67756 0.27487 0.79999 0.0
C231 C 0.6849 0.26764 0.8189 0.0
O232 O 0.67974 0.26158 0.84597 0.0
O233 O 0.64841 0.2664 0.76156 0.0
Mg234 Mg 0.97576 0.41026 0.06913 0.0
C235 C 0.98773 0.43597 0.05626 0.0
O236 O 0.99782 0.42794 0.05888 0.0
C237 C 0.95378 0.39075 0.06903 0.0
O238 O 0.96335 0.38384 0.05508 0.0
C239 C 0.9764 0.40305 0.99443 0.0
O240 O 0.96438 0.40745 0.99907 0.0
O241 O 0.984 0.40233 0.02085 0.0
O242 O 0.97623 0.43133 0.06046 0.0
O243 O 0.9868 0.40652 0.11721 0.0
C244 C 0.98462 0.39643 0.13604 0.0
O245 O 0.97652 0.38738 0.12445 0.0
O246 O 0.95593 0.4027 0.07691 0.0
Mg247 Mg 0.84375 0.72358 0.31476 0.0
C248 C 0.84014 0.73563 0.38547 0.0
O249 O 0.82812 0.73176 0.37823 0.0
C250 C 0.85375 0.72326 0.24174 0.0
O251 O 0.85048 0.71091 0.24676 0.0
C252 C 0.84899 0.69764 0.35132 0.0
O253 O 0.84216 0.70343 0.37609 0.0
O254 O 0.85044 0.70347 0.32212 0.0
O255 O 0.84907 0.73404 0.36253 0.0
O256 O 0.82275 0.72587 0.30559 0.0
C257 C 0.81956 0.73739 0.29575 0.0
O258 O 0.82884 0.74631 0.29303 0.0
O259 O 0.85273 0.73125 0.26721 0.0
Mg260 Mg 0.52779 0.40873 0.93844 0.0
C261 C 0.51553 0.43411 0.95398 0.0
O262 O 0.50566 0.42577 0.95372 0.0
C263 C 0.54978 0.38936 0.93831 0.0
O264 O 0.54016 0.38251 0.95223 0.0
C265 C 0.52833 0.40161 0.01294 0.0
O266 O 0.54008 0.40644 1.00666 0.0
O267 O 0.52026 0.40066 0.98757 0.0
O268 O 0.527 0.42982 0.94716 0.0
O269 O 0.51665 0.40473 0.89057 0.0
C270 C 0.51829 0.39426 0.87288 0.0
O271 O 0.52588 0.38496 0.88551 0.0
O272 O 0.54768 0.40131 0.93022 0.0
Mg273 Mg 0.84603 0.27872 0.21184 0.0
C274 C 0.84351 0.27026 0.1388 0.0
O275 O 0.83405 0.27892 0.14298 0.0
C276 C 0.85128 0.27843 0.2869 0.0
O277 O 0.84579 0.28991 0.28086 0.0
C278 C 0.85038 0.30705 0.18496 0.0
O279 O 0.83884 0.30555 0.17006 0.0
O280 O 0.85493 0.29793 0.20422 0.0
O281 O 0.85068 0.26741 0.16502 0.0
O282 O 0.82478 0.27845 0.21799 0.0
C283 C 0.82022 0.26686 0.22092 0.0
O284 O 0.82845 0.25693 0.2189 0.0
O285 O 0.85339 0.27085 0.26104 0.0
Mg286 Mg 0.9774 0.59595 0.44906 0.0
C287 C 0.98895 0.56873 0.44809 0.0
O288 O 0.99817 0.57528 0.4315 0.0
C289 C 0.95646 0.61482 0.43345 0.0
O290 O 0.96739 0.6215 0.42894 0.0
C291 C 0.9937 0.59915 0.51504 0.0
O292 O 0.99868 0.58813 0.50311 0.0
O293 O 0.98522 0.6052 0.49652 0.0
O294 O 0.97861 0.57479 0.45765 0.0
O295 O 0.98688 0.601 0.39936 0.0
C296 C 0.98397 0.59352 0.3738 0.0
O297 O 0.97636 0.58333 0.37965 0.0
O298 O 0.9573 0.60287 0.443 0.0
Mg299 Mg 0.65903 0.72329 0.69997 0.0
C300 C 0.66185 0.7311 0.62538 0.0
O301 O 0.67226 0.72368 0.6304 0.0
C302 C 0.6485 0.72561 0.77275 0.0
O303 O 0.64881 0.7128 0.76875 0.0
C304 C 0.65329 0.69539 0.67324 0.0
O305 O 0.66284 0.698 0.65115 0.0
O306 O 0.65035 0.70379 0.6966 0.0
O307 O 0.65426 0.73336 0.65117 0.0
O308 O 0.68022 0.72373 0.70716 0.0
C309 C 0.68487 0.73531 0.70885 0.0
O310 O 0.6768 0.74527 0.70454 0.0
O311 O 0.65155 0.73289 0.74688 0.0
Mg312 Mg 0.47784 0.40819 0.44074 0.0
C313 C 0.49397 0.39638 0.37815 0.0
O314 O 0.49618 0.38621 0.39853 0.0
C315 C 0.48029 0.39455 0.51023 0.0
O316 O 0.46764 0.39327 0.50425 0.0
C317 C 0.4579 0.3879 0.42557 0.0
O318 O 0.4691 0.38166 0.42142 0.0
O319 O 0.4582 0.39991 0.4347 0.0
O320 O 0.48751 0.40612 0.38995 0.0
O321 O 0.47787 0.42908 0.452 0.0
C322 C 0.48937 0.43388 0.45478 0.0
O323 O 0.4995 0.4261 0.44974 0.0
O324 O 0.48751 0.39964 0.48659 0.0
Mg325 Mg 0.34617 0.72485 0.20326 0.0
C326 C 0.31958 0.73567 0.204 0.0
O327 O 0.32708 0.74554 0.19443 0.0
C328 C 0.35087 0.69509 0.18958 0.0
O329 O 0.33834 0.6947 0.18124 0.0
C330 C 0.35751 0.72811 0.27551 0.0
O331 O 0.35973 0.71553 0.27052 0.0
O332 O 0.35267 0.73485 0.25058 0.0
O333 O 0.32489 0.72448 0.20863 0.0
O334 O 0.35084 0.73515 0.15472 0.0
C335 C 0.34939 0.72843 0.1269 0.0
O336 O 0.34537 0.71622 0.12967 0.0
O337 O 0.35588 0.70583 0.20009 0.0
Mg338 Mg 0.02741 0.5947 0.94446 0.0
C339 C 0.01866 0.61067 0.88124 0.0
O340 O 0.02804 0.61844 0.8926 0.0
C341 C 0.01091 0.60588 1.00711 0.0
O342 O 1.00119 0.60717 0.98471 0.0
C343 C 0.05118 0.61183 0.94602 0.0
O344 O 0.04297 0.61843 0.96591 0.0
O345 O 0.04752 0.60083 0.93362 0.0
O346 O 0.01555 0.60065 0.8994 0.0
O347 O 0.02555 0.57353 0.9491 0.0
C348 C 0.01384 0.56927 0.95203 0.0
O349 O 0.00409 0.57772 0.95031 0.0
O350 O 0.02202 0.60179 0.99644 0.0
Mg351 Mg 0.16079 0.2772 0.7023 0.0
C352 C 0.18779 0.27568 0.73603 0.0
O353 O 0.18079 0.2782 0.7641 0.0
C354 C 0.14135 0.29839 0.69486 0.0
O355 O 0.13422 0.28806 0.70298 0.0
C356 C 0.15103 0.27779 0.77601 0.0
O357 O 0.15366 0.29024 0.77021 0.0
O358 O 0.15248 0.26964 0.75104 0.0
O359 O 0.1821 0.27542 0.70638 0.0
O360 O 0.1551 0.26662 0.65518 0.0
C361 C 0.1598 0.27179 0.62754 0.0
O362 O 0.16726 0.28226 0.63074 0.0
O363 O 0.15378 0.29712 0.69349 0.0
Mg364 Mg 0.47714 0.59197 0.08089 0.0
C365 C 0.48652 0.60701 0.14543 0.0
O366 O 0.47845 0.61591 0.1328 0.0
C367 C 0.47583 0.59855 1.00606 0.0
O368 O 0.46438 0.59317 0.01302 0.0
C369 C 0.45434 0.61048 0.08144 0.0
O370 O 0.46335 0.61748 0.06531 0.0
O371 O 0.45713 0.59879 0.09062 0.0
O372 O 0.48853 0.59654 0.12798 0.0
O373 O 0.47844 0.57088 0.07277 0.0
C374 C 0.48995 0.56679 0.06559 0.0
O375 O 0.49965 0.57531 0.06518 0.0
O376 O 0.48398 0.60008 0.03106 0.0
Mg377 Mg 0.15857 0.72636 0.82058 0.0
C378 C 0.18492 0.73743 0.81644 0.0
O379 O 0.17727 0.7474 0.82439 0.0
C380 C 0.15396 0.69647 0.834 0.0
O381 O 0.16664 0.69582 0.84035 0.0
C382 C 0.14866 0.72854 0.74771 0.0
O383 O 0.14918 0.71575 0.75229 0.0
O384 O 0.15143 0.736 0.77338 0.0
O385 O 0.17979 0.72607 0.81396 0.0
O386 O 0.15434 0.73663 0.86938 0.0
C387 C 0.15646 0.72982 0.89674 0.0
O388 O 0.16083 0.71775 0.89301 0.0
O389 O 0.14889 0.70737 0.82485 0.0
Mg390 Mg 0.02968 0.41135 0.56764 0.0
C391 C 0.02614 0.40645 0.64348 0.0
O392 O 0.03864 0.40956 0.64092 0.0
C393 C 0.01315 0.40969 0.50196 0.0
O394 O 0.00854 0.42065 0.51533 0.0
C395 C 0.05124 0.39163 0.56695 0.0
O396 O 0.04131 0.38488 0.55427 0.0
O397 O 0.04953 0.40372 0.57397 0.0
O398 O 0.01922 0.40619 0.61571 0.0
O399 O 0.0293 0.43258 0.56104 0.0
C400 C 0.01962 0.43898 0.57351 0.0
O401 O 0.0108 0.43268 0.59219 0.0
O402 O 0.02158 0.40314 0.51936 0.0
Mg403 Mg 0.34494 0.27596 0.31703 0.0
C404 C 0.3198 0.26359 0.29795 0.0
O405 O 0.32856 0.25439 0.29167 0.0
C406 C 0.35127 0.3016 0.35332 0.0
O407 O 0.34484 0.29577 0.37879 0.0
C408 C 0.35722 0.2759 0.24532 0.0
O409 O 0.35776 0.2885 0.25262 0.0
O410 O 0.35307 0.268 0.26867 0.0
O411 O 0.32373 0.27456 0.31002 0.0
O412 O 0.35083 0.26551 0.36443 0.0
C413 C 0.34217 0.26085 0.38499 0.0
O414 O 0.32973 0.26147 0.37584 0.0
O415 O 0.35211 0.2959 0.32381 0.0
H416 H 0.97447 0.07946 0.69879 0.0
H417 H 0.98263 0.08335 0.75783 0.0
H418 H 0.0075 0.11446 0.71937 0.0
H419 H 0.99929 0.11066 0.65969 0.0
H420 H 0.00917 0.08193 0.78047 0.0
H421 H 0.98712 0.13122 0.80323 0.0
H422 H 0.98147 0.12036 0.76902 0.0
H423 H 0.99657 0.12926 0.76374 0.0
C424 C 0.98166 0.08717 0.70272 0.0
C425 C 0.98621 0.09477 0.67442 0.0
C426 C 0.98631 0.08937 0.73658 0.0
C427 C 0.99555 0.09929 0.74309 0.0
C428 C 1.00021 0.10689 0.71498 0.0
H429 H 0.04204 0.10428 0.93323 0.0
H430 H 0.03435 0.105 0.87276 0.0
C431 C 0.99558 0.10465 0.68088 0.0
C432 C 1.00053 0.10122 0.77926 0.0
H433 H 1.00045 0.12254 0.84845 0.0
C434 C 0.00732 0.09083 0.79527 0.0
C435 C 0.99795 0.11278 0.79864 0.0
C436 C 0.9903 0.12404 0.78303 0.0
C437 C 0.01164 0.09168 0.83008 0.0
C438 C 0.00921 0.10329 0.84937 0.0
C439 C 0.00236 0.11369 0.83349 0.0
C440 C 0.01371 0.10463 0.88614 0.0
C441 C 0.01855 0.08004 0.84624 0.0
C442 C 0.00461 0.10471 0.91382 0.0
C443 C 0.00898 0.10431 0.94864 0.0
C444 C 0.02251 0.10385 0.95624 0.0
C445 C 0.03155 0.1045 0.92838 0.0
C446 C 0.02718 0.1049 0.89373 0.0
H447 H 0.01724 0.07096 0.83047 0.0
H448 H 0.02924 0.08214 0.84797 0.0
H449 H 0.01487 0.07819 0.87315 0.0
H450 H 0.99416 0.10453 0.90846 0.0
H451 H 0.00177 0.10383 0.96946 0.0
H452 H 0.15002 0.75511 0.91577 0.0
H453 H 0.14768 0.76379 0.97546 0.0
H454 H 0.15554 0.72526 0.01753 0.0
H455 H 0.15807 0.7166 0.9585 0.0
H456 H 0.13069 0.75636 0.03114 0.0
H457 H 0.18304 0.74829 0.06578 0.0
H458 H 0.17718 0.74777 0.02121 0.0
H459 H 0.175 0.73383 0.04958 0.0
C460 C 0.15123 0.7485 0.93776 0.0
C461 C 0.15437 0.7352 0.93236 0.0
C462 C 0.14987 0.75346 0.97181 0.0
C463 C 0.15168 0.74521 1.00091 0.0
C464 C 0.1544 0.73187 0.99549 0.0
H465 H 0.153 0.75344 0.22665 0.0
H466 H 0.15146 0.74514 0.16662 0.0
C467 C 0.15579 0.72693 0.96164 0.0
C468 C 0.1509 0.75046 0.03707 0.0
H469 H 0.16859 0.75356 0.11258 0.0
C470 C 0.13899 0.75584 0.04891 0.0
C471 C 0.16175 0.74977 0.0602 0.0
C472 C 0.175 0.74472 0.04852 0.0
C473 C 0.13755 0.76024 0.0836 0.0
C474 C 0.14835 0.75935 0.10681 0.0
C475 C 0.16028 0.75409 0.09484 0.0
C476 C 0.14772 0.76417 0.1434 0.0
C477 C 0.12442 0.76554 0.09537 0.0
C478 C 0.14597 0.77759 0.15026 0.0
C479 C 0.14687 0.78236 0.18448 0.0
C480 C 0.14958 0.7738 0.21252 0.0
C481 C 0.15086 0.76029 0.2057 0.0
C482 C 0.15002 0.75553 0.17141 0.0
H483 H 0.11636 0.76257 0.0774 0.0
H484 H 0.12203 0.76209 0.1222 0.0
H485 H 0.12484 0.77643 0.09581 0.0
H486 H 0.14441 0.78446 0.129 0.0
H487 H 0.14584 0.79283 0.18878 0.0
H488 H 0.51171 0.88431 0.16564 0.0
H489 H 0.50658 0.87915 0.22693 0.0
H490 H 0.50731 0.92047 0.2519 0.0
H491 H 0.51283 0.9256 0.19134 0.0
H492 H 0.52187 0.90697 0.29672 0.0
H493 H 0.47338 0.88246 0.28374 0.0
H494 H 0.48625 0.87506 0.25835 0.0
H495 H 0.48086 0.89145 0.24825 0.0
C496 C 0.51055 0.89228 0.18413 0.0
C497 C 0.5127 0.90536 0.17367 0.0
C498 C 0.50758 0.88933 0.21916 0.0
C499 C 0.50646 0.89943 0.24412 0.0
C500 C 0.50817 0.9125 0.23327 0.0
H501 H 0.47372 0.90228 0.45049 0.0
H502 H 0.47823 0.90168 0.38787 0.0
C503 C 0.51129 0.91542 0.19856 0.0
C504 C 0.50431 0.89656 0.28196 0.0
H505 H 0.48287 0.88278 0.3403 0.0
C506 C 0.51336 0.90164 0.30622 0.0
C507 C 0.49317 0.88965 0.29442 0.0
C508 C 0.48278 0.88443 0.26991 0.0
C509 C 0.51144 0.90033 0.34246 0.0
C510 C 0.50035 0.89334 0.35498 0.0
C511 C 0.49143 0.88802 0.33073 0.0
C512 C 0.49729 0.89244 0.39305 0.0
C513 C 0.52101 0.90699 0.36689 0.0
C514 C 0.50634 0.88709 0.41699 0.0
C515 C 0.50386 0.88756 0.45307 0.0
C516 C 0.49218 0.89321 0.46587 0.0
C517 C 0.48285 0.8979 0.44167 0.0
C518 C 0.48539 0.89754 0.40574 0.0
H519 H 0.52695 0.91459 0.35323 0.0
H520 H 0.5158 0.91172 0.38908 0.0
H521 H 0.5279 0.89956 0.37766 0.0
H522 H 0.51544 0.88278 0.40782 0.0
H523 H 0.5112 0.88374 0.47092 0.0
H524 H 0.36538 0.26449 0.42029 0.0
H525 H 0.37017 0.25874 0.48121 0.0
H526 H 0.33191 0.24081 0.49066 0.0
H527 H 0.32691 0.24685 0.43026 0.0
H528 H 0.33659 0.25706 0.54388 0.0
H529 H 0.37965 0.22423 0.52639 0.0
H530 H 0.38168 0.24018 0.50709 0.0
H531 H 0.36932 0.22922 0.49035 0.0
C532 C 0.35807 0.25914 0.43519 0.0
C533 C 0.34576 0.25611 0.42042 0.0
C534 C 0.36084 0.25581 0.47001 0.0
C535 C 0.35146 0.24921 0.49049 0.0
C536 C 0.33931 0.2459 0.47543 0.0
H537 H 0.35781 0.20865 0.68636 0.0
H538 H 0.35794 0.2158 0.62549 0.0
C539 C 0.33648 0.24933 0.44083 0.0
C540 C 0.35388 0.24637 0.52815 0.0
H541 H 0.37419 0.23007 0.58468 0.0
C542 C 0.34482 0.25117 0.5528 0.0
C543 C 0.36459 0.23863 0.53978 0.0
C544 C 0.3743 0.23266 0.51453 0.0
C545 C 0.34603 0.24827 0.58858 0.0
C546 C 0.35684 0.24068 0.60032 0.0
C547 C 0.366 0.23602 0.57574 0.0
C548 C 0.35817 0.23657 0.63752 0.0
C549 C 0.33539 0.25293 0.61321 0.0
C550 C 0.3587 0.24585 0.6647 0.0
C551 C 0.35848 0.24178 0.69974 0.0
C552 C 0.35791 0.22834 0.70819 0.0
C553 C 0.35818 0.21908 0.68087 0.0
C554 C 0.35828 0.22315 0.64596 0.0
H555 H 0.32628 0.25574 0.59897 0.0
H556 H 0.33288 0.24521 0.63263 0.0
H557 H 0.33893 0.26171 0.6276 0.0
H558 H 0.35897 0.25626 0.65883 0.0
H559 H 0.35841 0.24917 0.72013 0.0
H560 H 0.98644 0.8701 0.83806 0.0
H561 H 0.99357 0.86793 0.7772 0.0
H562 H 0.0084 0.90761 0.7793 0.0
H563 H 0.00169 0.90971 0.8404 0.0
H564 H 0.98514 0.88115 0.72194 0.0
H565 H 0.03872 0.88916 0.73416 0.0
H566 H 0.02834 0.88622 0.77165 0.0
H567 H 0.02951 0.90242 0.75292 0.0
C568 C 0.99144 0.87829 0.82578 0.0
C569 C 0.99354 0.89006 0.8442 0.0
C570 C 0.99547 0.87704 0.7909 0.0
C571 C 0.00167 0.88754 0.77365 0.0
C572 C 0.00396 0.89924 0.79218 0.0
H573 H 0.00311 0.90289 0.55082 0.0
H574 H 0.99734 0.90065 0.61259 0.0
C575 C 1.00005 0.90045 0.82716 0.0
C576 C 0.00496 0.88656 0.73574 0.0
H577 H 0.02967 0.89128 0.6765 0.0
C578 C 0.99492 0.88323 0.71206 0.0
C579 C 0.01775 0.88908 0.72274 0.0
C580 C 0.02922 0.89178 0.74675 0.0
C581 C 0.99722 0.88273 0.6758 0.0
C582 C 0.00983 0.88598 0.66267 0.0
C583 C 0.01996 0.88893 0.68642 0.0
C584 C 0.01272 0.88662 0.62448 0.0
C585 C 0.98613 0.87855 0.65204 0.0
C586 C 0.0234 0.87962 0.61046 0.0
C587 C 0.02684 0.88103 0.57519 0.0
C588 C 0.01967 0.88946 0.55312 0.0
C589 C 0.00876 0.89619 0.56695 0.0
C590 C 0.0054 0.89487 0.60232 0.0
H591 H 0.97886 0.87237 0.66619 0.0
H592 H 0.98091 0.88741 0.64238 0.0
H593 H 0.98984 0.87296 0.62914 0.0
H594 H 0.02922 0.87321 0.62698 0.0
H595 H 0.03531 0.87572 0.56542 0.0
H596 H 0.35238 0.75312 0.79927 0.0
H597 H 0.35405 0.74526 0.85978 0.0
H598 H 0.36008 0.78499 0.89537 0.0
H599 H 0.35824 0.79294 0.83526 0.0
H600 H 0.37375 0.74767 0.91159 0.0
H601 H 0.32776 0.77318 0.95091 0.0
H602 H 0.33245 0.77105 0.90572 0.0
H603 H 0.33999 0.78368 0.93174 0.0
C604 C 0.3542 0.76017 0.81993 0.0
C605 C 0.35503 0.77368 0.81247 0.0
C606 C 0.35514 0.75567 0.85449 0.0
C607 C 0.35691 0.76458 0.88213 0.0
C608 C 0.3584 0.77798 0.87454 0.0
H609 H 0.3551 0.75406 0.10979 0.0
H610 H 0.35823 0.76325 0.05093 0.0
C611 C 0.35741 0.78249 0.8401 0.0
C612 C 0.35674 0.75995 0.91898 0.0
H613 H 0.33973 0.76259 0.99578 0.0
C614 C 0.36633 0.75093 0.93002 0.0
C615 C 0.34705 0.76424 0.943 0.0
C616 C 0.33615 0.77348 0.93228 0.0
C617 C 0.36651 0.74612 0.96452 0.0
C618 C 0.35673 0.75031 0.9884 0.0
C619 C 0.34726 0.75946 0.97749 0.0
C620 C 0.35562 0.74471 0.02415 0.0
C621 C 0.37722 0.73668 0.97519 0.0
C622 C 0.35302 0.73129 0.02854 0.0
C623 C 0.35118 0.72605 0.06195 0.0
C624 C 0.35186 0.73412 0.09178 0.0
C625 C 0.35456 0.74757 0.08738 0.0
C626 C 0.35635 0.75284 0.0538 0.0
H627 H 0.38589 0.73739 0.95761 0.0
H628 H 0.38045 0.73851 1.00251 0.0
H629 H 0.37339 0.72649 0.97364 0.0
H630 H 0.35213 0.72489 1.00602 0.0
H631 H 0.34909 0.71565 0.06431 0.0
H632 H 0.47164 0.12374 0.06224 0.0
H633 H 0.47832 0.12572 0.12343 0.0
H634 H 0.50918 0.09737 0.10622 0.0
H635 H 0.50282 0.09569 0.04463 0.0
H636 H 0.47738 0.10743 0.17175 0.0
H637 H 0.52893 0.12432 0.16115 0.0
H638 H 0.51784 0.12438 0.12428 0.0
H639 H 0.52613 0.10948 0.13702 0.0
C640 C 0.48003 0.11813 0.07129 0.0
C641 C 0.48673 0.10959 0.0485 0.0
C642 C 0.48381 0.11924 0.10636 0.0
C643 C 0.49433 0.11179 0.11957 0.0
C644 C 0.50125 0.10348 0.09662 0.0
H645 H 0.50429 0.0893 0.33769 0.0
H646 H 0.49806 0.09085 0.27605 0.0
C647 C 0.49757 0.10249 0.06136 0.0
C648 C 0.49739 0.11203 0.15775 0.0
H649 H 0.52225 0.11601 0.21696 0.0
C650 C 0.48718 0.10941 0.1816 0.0
C651 C 0.51012 0.11478 0.17082 0.0
C652 C 0.52134 0.11853 0.14699 0.0
C653 C 0.48939 0.10924 0.21792 0.0
C654 C 0.50225 0.11136 0.23089 0.0
C655 C 0.51241 0.11423 0.2071 0.0
C656 C 0.50544 0.11063 0.26894 0.0
C657 C 0.47783 0.10702 0.24197 0.0
C658 C 0.51186 0.12113 0.28556 0.0
C659 C 0.51561 0.12019 0.32073 0.0
C660 C 0.51299 0.10874 0.34014 0.0
C661 C 0.50632 0.09833 0.32369 0.0
C662 C 0.50269 0.09923 0.28839 0.0
H663 H 0.46841 0.10979 0.22917 0.0
H664 H 0.47726 0.09644 0.24877 0.0
H665 H 0.47883 0.11275 0.26654 0.0
H666 H 0.51412 0.13002 0.27118 0.0
H667 H 0.52076 0.12838 0.33253 0.0
H668 H 0.17008 0.28003 0.56558 0.0
H669 H 0.1661 0.27122 0.50728 0.0
H670 H 0.13961 0.24241 0.55052 0.0
H671 H 0.14354 0.25123 0.60949 0.0
H672 H 0.17085 0.24456 0.48618 0.0
H673 H 0.11879 0.26003 0.46777 0.0
H674 H 0.12944 0.26752 0.49993 0.0
H675 H 0.12273 0.25149 0.5077 0.0
C676 C 0.16335 0.27185 0.56286 0.0
C677 C 0.15713 0.26633 0.59228 0.0
C678 C 0.16109 0.26683 0.52943 0.0
C679 C 0.15247 0.25626 0.52454 0.0
C680 C 0.14616 0.25071 0.55372 0.0
H681 H 0.15061 0.20881 0.3355 0.0
H682 H 0.1497 0.21634 0.39611 0.0
C683 C 0.14847 0.2557 0.58738 0.0
C684 C 0.15066 0.2508 0.4889 0.0
H685 H 0.12857 0.24787 0.4219 0.0
C686 C 0.16159 0.2452 0.47219 0.0
C687 C 0.1386 0.25181 0.47065 0.0
C688 C 0.1267 0.25811 0.48718 0.0
C689 C 0.16081 0.24061 0.43766 0.0
C690 C 0.14873 0.24152 0.41944 0.0
C691 C 0.13778 0.24713 0.43608 0.0
C692 C 0.14752 0.23688 0.38284 0.0
C693 C 0.17299 0.23506 0.4206 0.0
C694 C 0.14609 0.2459 0.35529 0.0
C695 C 0.1466 0.24163 0.32046 0.0
C696 C 0.14852 0.22825 0.3127 0.0
C697 C 0.14924 0.21919 0.34049 0.0
C698 C 0.14873 0.22347 0.37519 0.0
H699 H 0.18204 0.23742 0.43564 0.0
H700 H 0.17211 0.22421 0.419 0.0
H701 H 0.1741 0.23891 0.39356 0.0
H702 H 0.14512 0.2563 0.36073 0.0
H703 H 0.146 0.24885 0.29969 0.0
H704 H 0.99288 0.92237 0.33758 0.0
H705 H 0.98949 0.91885 0.27498 0.0
H706 H 0.01686 0.88647 0.27729 0.0
H707 H 0.01999 0.88969 0.34015 0.0
H708 H 0.00734 0.92145 0.22527 0.0
H709 H 0.98784 0.87071 0.21978 0.0
H710 H 0.98885 0.87988 0.26009 0.0
H711 H 0.00318 0.87176 0.24282 0.0
C712 C 0.99799 0.91434 0.32492 0.0
C713 C 0.00668 0.9063 0.34393 0.0
C714 C 0.99607 0.91235 0.28907 0.0
C715 C 0.00282 0.90232 0.27133 0.0
C716 C 0.01128 0.89408 0.29041 0.0
H717 H 0.0176 0.90634 0.04663 0.0
H718 H 0.01986 0.90516 0.11028 0.0
C719 C 0.01311 0.89597 0.3264 0.0
C720 C 0.00177 0.90122 0.23254 0.0
H721 H 0.9949 0.88003 0.16556 0.0
C722 C 0.00455 0.9124 0.21228 0.0
C723 C 0.99803 0.88945 0.21547 0.0
C724 C 0.99417 0.87731 0.23566 0.0
C725 C 0.00379 0.91214 0.1756 0.0
C726 C 1.00054 0.90025 0.15845 0.0
C727 C 0.9976 0.88909 0.17866 0.0
C728 C 0.99967 0.8994 0.11962 0.0
C729 C 0.00617 0.92473 0.15568 0.0
C730 C 0.9878 0.89581 0.10348 0.0
C731 C 0.98654 0.89626 0.06701 0.0
C732 C 0.99713 0.90036 0.04593 0.0
C733 C 0.00921 0.90328 0.06207 0.0
C734 C 0.01049 0.9027 0.09851 0.0
H735 H 0.00489 0.93351 0.17264 0.0
H736 H 0.01641 0.92481 0.14568 0.0
H737 H 0.99938 0.92562 0.13304 0.0
H738 H 0.97934 0.89313 0.11917 0.0
H739 H 0.9771 0.89391 0.05548 0.0
H740 H 0.86248 0.25241 0.11897 0.0
H741 H 0.86618 0.2434 0.06013 0.0
H742 H 0.83373 0.26634 0.02073 0.0
H743 H 0.82986 0.27516 0.079 0.0
H744 H 0.83281 0.24051 0.99989 0.0
H745 H 0.88211 0.26211 0.97451 0.0
H746 H 0.88064 0.25264 0.01406 0.0
H747 H 0.87161 0.26771 0.00957 0.0
C748 C 0.85615 0.25552 0.09773 0.0
C749 C 0.84588 0.26451 0.10372 0.0
C750 C 0.85834 0.25045 0.0641 0.0
C751 C 0.85033 0.25434 0.03595 0.0
C752 C 0.84005 0.26323 0.04201 0.0
H753 H 0.8559 0.24833 0.81117 0.0
H754 H 0.85728 0.25513 0.87263 0.0
C755 C 0.83786 0.26827 0.07544 0.0
C756 C 0.85222 0.24893 1.00023 0.0
H757 H 0.87335 0.24826 0.93064 0.0
C758 C 0.84171 0.24214 0.98482 0.0
C759 C 0.86377 0.25121 0.98049 0.0
C760 C 0.87516 0.25891 0.99527 0.0
C761 C 0.84235 0.23768 0.95015 0.0
C762 C 0.85396 0.23981 0.93049 0.0
C763 C 0.86452 0.24654 0.94589 0.0
C764 C 0.85499 0.2355 0.89349 0.0
C765 C 0.8304 0.23111 0.93453 0.0
C766 C 0.85377 0.22216 0.88487 0.0
C767 C 0.85288 0.21827 0.8499 0.0
C768 C 0.85335 0.22763 0.82282 0.0
C769 C 0.85547 0.24089 0.83142 0.0
C770 C 0.85626 0.24479 0.86652 0.0
H771 H 0.82137 0.23312 0.95 0.0
H772 H 0.82874 0.23445 0.90721 0.0
H773 H 0.83196 0.22032 0.93413 0.0
H774 H 0.85306 0.2148 0.90526 0.0
H775 H 0.85142 0.20796 0.84416 0.0
H776 H 0.4865 0.0866 0.83052 0.0
H777 H 0.49032 0.08788 0.76754 0.0
H778 H 0.51224 0.12372 0.78155 0.0
H779 H 0.50843 0.12258 0.84495 0.0
H780 H 0.48271 0.11072 0.72325 0.0
H781 H 0.53618 0.09884 0.71954 0.0
H782 H 0.52585 0.09422 0.75599 0.0
H783 H 0.53063 0.11103 0.75035 0.0
C784 C 0.49224 0.09472 0.8204 0.0
C785 C 0.49716 0.1045 0.84293 0.0
C786 C 0.49438 0.09544 0.78431 0.0
C787 C 0.5016 0.10586 0.7699 0.0
C788 C 0.50674 0.11553 0.79221 0.0
H789 H 0.52372 0.1147 0.54821 0.0
H790 H 0.52101 0.11913 0.61094 0.0
C791 C 0.50453 0.11487 0.82842 0.0
C792 C 0.50326 0.10671 0.73134 0.0
H793 H 0.5256 0.10236 0.66559 0.0
C794 C 0.4921 0.109 0.71061 0.0
C795 C 0.51554 0.10459 0.71497 0.0
C796 C 0.52778 0.10196 0.73616 0.0
C797 C 0.49284 0.10898 0.67389 0.0
C798 C 0.50501 0.10625 0.65739 0.0
C799 C 0.51627 0.10442 0.67818 0.0
C800 C 0.50607 0.1043 0.61886 0.0
C801 C 0.48055 0.11189 0.65315 0.0
C802 C 0.49857 0.09452 0.60239 0.0
C803 C 0.50004 0.09202 0.56664 0.0
C804 C 0.50915 0.09915 0.54648 0.0
C805 C 0.51655 0.10908 0.56288 0.0
C806 C 0.51505 0.11159 0.59877 0.0
H807 H 0.47356 0.11801 0.66845 0.0
H808 H 0.48288 0.11706 0.62831 0.0
H809 H 0.47552 0.10252 0.64677 0.0
H810 H 0.49181 0.08853 0.61739 0.0
H811 H 0.49424 0.08424 0.55504 0.0
H812 H 0.64229 0.7482 0.60525 0.0
H813 H 0.63698 0.75537 0.54545 0.0
H814 H 0.66888 0.73191 0.50531 0.0
H815 H 0.6743 0.72479 0.56455 0.0
H816 H 0.65558 0.76806 0.49468 0.0
H817 H 0.63515 0.72052 0.4486 0.0
H818 H 0.63622 0.7248 0.49442 0.0
H819 H 0.65063 0.71953 0.47119 0.0
C820 C 0.64817 0.74459 0.58368 0.0
C821 C 0.65871 0.7359 0.58969 0.0
C822 C 0.64512 0.74868 0.54959 0.0
C823 C 0.65243 0.74401 0.52101 0.0
C824 C 0.663 0.73547 0.52699 0.0
H825 H 0.65855 0.75213 0.29835 0.0
H826 H 0.65864 0.7451 0.35955 0.0
C827 C 0.66613 0.73147 0.56094 0.0
C828 C 0.64932 0.74824 0.48482 0.0
H829 H 0.63973 0.73656 0.40505 0.0
C830 C 0.65195 0.76126 0.47511 0.0
C831 C 0.64467 0.73928 0.45944 0.0
C832 C 0.64139 0.72526 0.46884 0.0
C833 C 0.65056 0.76544 0.44024 0.0
C834 C 0.64607 0.75642 0.41463 0.0
C835 C 0.64314 0.74347 0.42464 0.0
C836 C 0.64502 0.76006 0.37705 0.0
C837 C 0.65449 0.77931 0.43092 0.0
C838 C 0.63696 0.77051 0.36625 0.0
C839 C 0.63696 0.77461 0.3313 0.0
C840 C 0.64488 0.76822 0.30635 0.0
C841 C 0.65236 0.75729 0.31687 0.0
C842 C 0.65243 0.75326 0.35188 0.0
H843 H 0.66078 0.78381 0.45144 0.0
H844 H 0.65989 0.77958 0.40567 0.0
H845 H 0.64552 0.78544 0.42825 0.0
H846 H 0.63088 0.77567 0.385 0.0
H847 H 0.63098 0.78299 0.32402 0.0
H848 H 0.99915 0.10261 0.46301 0.0
H849 H 0.00549 0.10537 0.40153 0.0
H850 H 0.96456 0.1071 0.37213 0.0
H851 H 0.95822 0.10388 0.43311 0.0
H852 H 0.97692 0.09048 0.33208 0.0
H853 H 0.00625 0.13624 0.33667 0.0
H854 H 0.01233 0.12398 0.36625 0.0
H855 H 0.99621 0.13088 0.3729 0.0
C856 C 0.99153 0.10381 0.44347 0.0
C857 C 0.97819 0.103 0.45288 0.0
C858 C 0.99516 0.10545 0.40832 0.0
C859 C 0.98551 0.1066 0.38208 0.0
C860 C 0.9722 0.10623 0.39177 0.0
H861 H 0.00187 0.12624 0.163 0.0
H862 H 0.99447 0.12664 0.22405 0.0
C863 C 0.96858 0.1044 0.4267 0.0
C864 C 0.98915 0.10714 0.34433 0.0
H865 H 0.00795 0.12349 0.28427 0.0
C866 C 0.98363 0.09778 0.32165 0.0
C867 C 0.99777 0.11675 0.33045 0.0
C868 C 0.00337 0.12761 0.35276 0.0
C869 C 0.98663 0.09761 0.28579 0.0
C870 C 0.99575 0.1068 0.27223 0.0
C871 C 1.00108 0.11635 0.29469 0.0
C872 C 1.00003 0.10652 0.23497 0.0
C873 C 0.9798 0.08769 0.26275 0.0
C874 C 0.00569 0.09513 0.22078 0.0
C875 C 0.00976 0.09482 0.18585 0.0
C876 C 0.00848 0.10599 0.16439 0.0
C877 C 0.00294 0.11745 0.17872 0.0
C878 C 0.99875 0.11771 0.21366 0.0
H879 H 0.97032 0.08445 0.27435 0.0
H880 H 0.97784 0.09176 0.23628 0.0
H881 H 0.98615 0.07889 0.25995 0.0
H882 H 0.00712 0.08648 0.23687 0.0
H883 H 0.01414 0.08587 0.17589 0.0
H884 H 0.66726 0.21596 0.17188 0.0
H885 H 0.66238 0.22336 0.11265 0.0
H886 H 0.63435 0.25125 0.15327 0.0
H887 H 0.63938 0.24404 0.21311 0.0
H888 H 0.6392 0.22333 0.07559 0.0
H889 H 0.65789 0.27426 0.0925 0.0
H890 H 0.66112 0.26142 0.12392 0.0
H891 H 0.64535 0.2694 0.12296 0.0
C892 C 0.66005 0.22368 0.16837 0.0
C893 C 0.65377 0.22947 0.19733 0.0
C894 C 0.65726 0.22788 0.13439 0.0
C895 C 0.64814 0.23797 0.12849 0.0
C896 C 0.64162 0.24362 0.15724 0.0
H897 H 0.62734 0.27658 0.93154 0.0
H898 H 0.62711 0.26868 0.99199 0.0
C899 C 0.64445 0.23944 0.1914 0.0
C900 C 0.64562 0.24251 0.09213 0.0
H901 H 0.64882 0.26893 0.03756 0.0
C902 C 0.64124 0.23332 0.06731 0.0
C903 C 0.64831 0.25554 0.08133 0.0
C904 C 0.65353 0.26572 0.10643 0.0
C905 C 0.63957 0.23678 0.03198 0.0
C906 C 0.64251 0.24972 0.02109 0.0
C907 C 0.64657 0.259 0.04601 0.0
C908 C 0.64193 0.25376 0.98377 0.0
C909 C 0.63464 0.22655 1.00661 0.0
C910 C 0.65031 0.24794 0.959 0.0
C911 C 0.65049 0.25244 0.92438 0.0
C912 C 0.64232 0.26288 0.9139 0.0
C913 C 0.63374 0.26849 0.93864 0.0
C914 C 0.6336 0.26401 0.97326 0.0
H915 H 0.62951 0.2184 0.02031 0.0
H916 H 0.62782 0.23095 0.98718 0.0
H917 H 0.64312 0.22232 0.99223 0.0
H918 H 0.65699 0.24017 0.96668 0.0
H919 H 0.65727 0.24795 0.90609 0.0
H920 H 0.50837 0.92171 0.67465 0.0
H921 H 0.51246 0.91741 0.73658 0.0
H922 H 0.48782 0.88298 0.73145 0.0
H923 H 0.48396 0.88704 0.66913 0.0
H924 H 0.49416 0.91784 0.78635 0.0
H925 H 0.51841 0.86907 0.78765 0.0
H926 H 0.51665 0.87869 0.74821 0.0
H927 H 0.50306 0.86918 0.7645 0.0
C928 C 0.50404 0.91306 0.68648 0.0
C929 C 0.49583 0.90472 0.66689 0.0
C930 C 0.50636 0.91063 0.72196 0.0
C931 C 0.50052 0.89983 0.73878 0.0
C932 C 0.49267 0.89122 0.71901 0.0
H933 H 0.4868 0.90012 0.96448 0.0
H934 H 0.48411 0.89895 0.90095 0.0
C935 C 0.49043 0.89359 0.68335 0.0
C936 C 0.50172 0.89836 0.77746 0.0
H937 H 0.51106 0.8773 0.84271 0.0
C938 C 0.4979 0.90897 0.79861 0.0
C939 C 0.50668 0.88684 0.79356 0.0
C940 C 0.51156 0.87534 0.77233 0.0
C941 C 0.49887 0.90842 0.83523 0.0
C942 C 0.50345 0.89677 0.85143 0.0
C943 C 0.50737 0.88616 0.83033 0.0
C944 C 0.50475 0.89571 0.89015 0.0
C945 C 0.49529 0.92049 0.85614 0.0
C946 C 0.51712 0.89352 0.90541 0.0
C947 C 0.51866 0.894 0.9418 0.0
C948 C 0.50786 0.89671 0.9637 0.0
C949 C 0.49536 0.89816 0.94843 0.0
C950 C 0.49381 0.89757 0.91205 0.0
H951 H 0.49537 0.9295 0.8397 0.0
H952 H 0.48523 0.91931 0.8669 0.0
H953 H 0.50219 0.92193 0.87834 0.0
H954 H 0.52569 0.89198 0.88908 0.0
H955 H 0.52844 0.8928 0.95263 0.0
H956 H 0.86024 0.75344 0.719 0.0
H957 H 0.86301 0.74602 0.65832 0.0
H958 H 0.84521 0.78191 0.6214 0.0
H959 H 0.84272 0.78947 0.68139 0.0
H960 H 0.84397 0.74117 0.61176 0.0
H961 H 0.87635 0.77953 0.55711 0.0
H962 H 0.87399 0.77745 0.60362 0.0
H963 H 0.86232 0.78671 0.57806 0.0
C964 C 0.85714 0.75983 0.69789 0.0
C965 C 0.85128 0.77206 0.70508 0.0
C966 C 0.85871 0.75558 0.66324 0.0
C967 C 0.85453 0.76351 0.63521 0.0
C968 C 0.84886 0.77577 0.64243 0.0
H969 H 0.82291 0.74216 0.43718 0.0
H970 H 0.82787 0.74833 0.49739 0.0
C971 C 0.84733 0.78003 0.67689 0.0
C972 C 0.85493 0.75859 0.59859 0.0
H973 H 0.86309 0.76757 0.51516 0.0
C974 C 0.84835 0.74684 0.59074 0.0
C975 C 0.86083 0.76584 0.5711 0.0
C976 C 0.86889 0.77801 0.57796 0.0
C977 C 0.84686 0.74254 0.55606 0.0
C978 C 0.85182 0.75037 0.52839 0.0
C979 C 0.85907 0.76171 0.53632 0.0
C980 C 0.84899 0.74725 0.49117 0.0
C981 C 0.83988 0.72971 0.54942 0.0
C982 C 0.85923 0.74519 0.4671 0.0
C983 C 0.85642 0.7418 0.43234 0.0
C984 C 0.84331 0.74044 0.4211 0.0
C985 C 0.83311 0.74298 0.44501 0.0
C986 C 0.83593 0.74642 0.47957 0.0
H987 H 0.84054 0.72307 0.57246 0.0
H988 H 0.82931 0.73168 0.54444 0.0
H989 H 0.84402 0.72456 0.5263 0.0
H990 H 0.86939 0.74592 0.47541 0.0
H991 H 0.8645 0.73992 0.41457 0.0
H992 H 0.48587 0.62881 0.18722 0.0
H993 H 0.4926 0.6306 0.24846 0.0
H994 H 0.50502 0.59008 0.24738 0.0
H995 H 0.49867 0.58833 0.18586 0.0
H996 H 0.48316 0.61794 0.30387 0.0
H997 H 0.53628 0.60693 0.29274 0.0
H998 H 0.52617 0.6104 0.25505 0.0
H999 H 0.52629 0.59421 0.27414 0.0
C1000 C 0.49024 0.62033 0.19982 0.0
C1001 C 0.49179 0.60844 0.18151 0.0
C1002 C 0.49404 0.62136 0.23492 0.0
C1003 C 0.49947 0.61053 0.25257 0.0
C1004 C 0.50116 0.59868 0.23422 0.0
H1005 H 0.50063 0.59767 0.47762 0.0
H1006 H 0.49458 0.59928 0.41582 0.0
C1007 C 0.49748 0.59768 0.199 0.0
C1008 C 0.50269 0.61144 0.29056 0.0
H1009 H 0.52712 0.60607 0.35027 0.0
C1010 C 0.49281 0.61544 0.31398 0.0
C1011 C 0.51533 0.60838 0.30383 0.0
C1012 C 0.52666 0.60488 0.28009 0.0
C1013 C 0.49512 0.61619 0.35022 0.0
C1014 C 0.50756 0.61251 0.36364 0.0
C1015 C 0.51753 0.60878 0.34014 0.0
C1016 C 0.51053 0.61238 0.40187 0.0
C1017 C 0.48424 0.62113 0.37363 0.0
C1018 C 0.52156 0.61911 0.4148 0.0
C1019 C 0.52515 0.61805 0.45005 0.0
C1020 C 0.51776 0.61026 0.47325 0.0
C1021 C 0.50645 0.60388 0.46058 0.0
C1022 C 0.50295 0.60483 0.42519 0.0
H1023 H 0.47717 0.62738 0.35894 0.0
H1024 H 0.47872 0.61262 0.38428 0.0
H1025 H 0.4882 0.62691 0.39589 0.0
H1026 H 0.52758 0.62499 0.39742 0.0
H1027 H 0.53391 0.62309 0.45891 0.0
H1028 H 0.64893 0.25134 0.40316 0.0
H1029 H 0.64546 0.25979 0.46273 0.0
H1030 H 0.65174 0.22094 0.50454 0.0
H1031 H 0.65536 0.2125 0.44569 0.0
H1032 H 0.62729 0.25228 0.51649 0.0
H1033 H 0.679 0.24339 0.55624 0.0
H1034 H 0.67381 0.24326 0.51107 0.0
H1035 H 0.67101 0.22916 0.53847 0.0
C1036 C 0.64952 0.24461 0.42506 0.0
C1037 C 0.65258 0.23128 0.41969 0.0
C1038 C 0.64752 0.24944 0.45904 0.0
C1039 C 0.64859 0.24102 0.48807 0.0
C1040 C 0.65116 0.22765 0.48259 0.0
H1041 H 0.64712 0.24839 0.71406 0.0
H1042 H 0.64617 0.24029 0.65375 0.0
C1043 C 0.65318 0.22285 0.44884 0.0
C1044 C 0.64733 0.24613 0.52428 0.0
H1045 H 0.66397 0.24869 0.60162 0.0
C1046 C 0.63532 0.25158 0.53509 0.0
C1047 C 0.65783 0.24521 0.54847 0.0
C1048 C 0.67118 0.24006 0.53797 0.0
C1049 C 0.63343 0.25584 0.56976 0.0
C1050 C 0.64388 0.25473 0.59402 0.0
C1051 C 0.65592 0.24939 0.58307 0.0
C1052 C 0.64279 0.25942 0.63067 0.0
C1053 C 0.62019 0.26121 0.58036 0.0
C1054 C 0.64105 0.27282 0.63772 0.0
C1055 C 0.64161 0.27748 0.67211 0.0
C1056 C 0.64399 0.26882 0.70014 0.0
C1057 C 0.64524 0.25531 0.69312 0.0
C1058 C 0.64473 0.25068 0.65866 0.0
H1059 H 0.61236 0.25835 0.56159 0.0
H1060 H 0.61741 0.25772 0.6069 0.0
H1061 H 0.62068 0.2721 0.58102 0.0
H1062 H 0.63977 0.27977 0.61651 0.0
H1063 H 0.64061 0.28794 0.67655 0.0
H1064 H 0.03919 0.40386 0.70536 0.0
H1065 H 0.02994 0.40081 0.76365 0.0
H1066 H 0.99087 0.4001 0.71988 0.0
H1067 H 1.00008 0.40324 0.66103 0.0
H1068 H 0.99412 0.41753 0.77701 0.0
H1069 H 0.01363 0.36809 0.80911 0.0
H1070 H 0.02588 0.37943 0.79384 0.0
H1071 H 0.01293 0.37431 0.76487 0.0
C1072 C 0.02862 0.40294 0.70795 0.0
C1073 C 0.02037 0.4038 0.67846 0.0
C1074 C 0.02336 0.40109 0.74135 0.0
C1075 C 0.00973 0.40003 0.74609 0.0
C1076 C 1.00143 0.40079 0.71674 0.0
H1077 H 0.96172 0.4005 0.93521 0.0
H1078 H 0.96949 0.39875 0.87494 0.0
C1079 C 0.00671 0.40257 0.68316 0.0
C1080 C 0.0042 0.39904 0.78197 0.0
H1081 H 0.00492 0.38054 0.85667 0.0
C1082 C 0.99634 0.40937 0.79431 0.0
C1083 C 0.00724 0.38845 0.80461 0.0
C1084 C 0.01529 0.37687 0.79241 0.0
C1085 C 0.99174 0.4096 0.82896 0.0
C1086 C 0.99482 0.39904 0.8517 0.0
C1087 C 0.00257 0.38863 0.83925 0.0
C1088 C 0.99013 0.39874 0.88855 0.0
C1089 C 0.98399 0.42139 0.84122 0.0
C1090 C 0.99915 0.39862 0.91643 0.0
C1091 C 0.99472 0.39946 0.95112 0.0
C1092 C 0.9812 0.40045 0.95844 0.0
C1093 C 0.97221 0.39992 0.93049 0.0
C1094 C 0.97663 0.399 0.89596 0.0
H1095 H 0.9855 0.43002 0.82387 0.0
H1096 H 0.97336 0.41896 0.84099 0.0
H1097 H 0.98678 0.42417 0.86832 0.0
H1098 H 0.00962 0.39833 0.91131 0.0
H1099 H 0.0019 0.39983 0.97204 0.0
H1100 H 0.85832 0.7084 0.18362 0.0
H1101 H 0.86065 0.71593 0.12324 0.0
H1102 H 0.85787 0.75615 0.15786 0.0
H1103 H 0.85576 0.7487 0.2185 0.0
H1104 H 0.84211 0.72958 0.0875 0.0
H1105 H 0.88848 0.75811 0.09006 0.0
H1106 H 0.88392 0.74689 0.12463 0.0
H1107 H 0.877 0.76315 0.12309 0.0
C1108 C 0.85844 0.71886 0.17851 0.0
C1109 C 0.85684 0.72795 0.20592 0.0
C1110 C 0.85976 0.72315 0.14394 0.0
C1111 C 0.85956 0.73661 0.13598 0.0
C1112 C 0.85835 0.74573 0.16339 0.0
H1113 H 0.84907 0.78505 0.95519 0.0
H1114 H 0.85269 0.7754 0.01282 0.0
C1115 C 0.85708 0.74145 0.19807 0.0
C1116 C 0.85941 0.741 0.09889 0.0
H1117 H 0.87454 0.76138 0.0403 0.0
C1118 C 0.84931 0.7364 0.07703 0.0
C1119 C 0.86879 0.74991 0.08527 0.0
C1120 C 0.88024 0.75471 0.10688 0.0
C1121 C 0.84804 0.74082 0.04237 0.0
C1122 C 0.85724 0.74994 0.02901 0.0
C1123 C 0.8675 0.75436 0.0506 0.0
C1124 C 0.85583 0.75569 0.99349 0.0
C1125 C 0.83655 0.73608 0.02078 0.0
C1126 C 0.85663 0.74783 0.96334 0.0
C1127 C 0.85454 0.75333 0.93014 0.0
C1128 C 0.85164 0.76678 0.92663 0.0
C1129 C 0.8512 0.77464 0.95689 0.0
C1130 C 0.85332 0.76916 0.98992 0.0
H1131 H 0.82897 0.73115 0.03708 0.0
H1132 H 0.83188 0.74439 1.00662 0.0
H1133 H 0.84011 0.72892 1.00104 0.0
H1134 H 0.85876 0.73744 0.9655 0.0
H1135 H 0.855 0.74702 0.90736 0.0
H1136 H 0.54463 0.39816 0.06855 0.0
H1137 H 0.5387 0.3954 0.12993 0.0
H1138 H 0.49759 0.39581 0.1022 0.0
H1139 H 0.5035 0.39828 0.04026 0.0
H1140 H 0.52537 0.41269 0.16875 0.0
H1141 H 0.49897 0.36503 0.16942 0.0
H1142 H 0.50884 0.37039 0.13284 0.0
H1143 H 0.49245 0.37667 0.13864 0.0
C1144 C 0.53431 0.39747 0.07537 0.0
C1145 C 0.52453 0.39846 0.04948 0.0
C1146 C 0.53094 0.3959 0.11055 0.0
C1147 C 0.51771 0.39531 0.1208 0.0
C1148 C 0.50788 0.39596 0.09494 0.0
H1149 H 0.4895 0.4152 0.32845 0.0
H1150 H 0.49533 0.41464 0.26655 0.0
C1151 C 0.51126 0.39743 0.05953 0.0
C1152 C 0.51434 0.39502 0.15874 0.0
H1153 H 0.49766 0.37783 0.22153 0.0
C1154 C 0.51935 0.40502 0.18027 0.0
C1155 C 0.50661 0.38495 0.17393 0.0
C1156 C 0.5015 0.37358 0.15262 0.0
C1157 C 0.51675 0.40533 0.21634 0.0
C1158 C 0.50865 0.39553 0.23134 0.0
C1159 C 0.50378 0.3854 0.20998 0.0
C1160 C 0.50503 0.39573 0.26907 0.0
C1161 C 0.5229 0.41606 0.23814 0.0
C1162 C 0.50827 0.38516 0.29108 0.0
C1163 C 0.50486 0.3854 0.32663 0.0
C1164 C 0.49809 0.39622 0.34082 0.0
C1165 C 0.49482 0.40676 0.31859 0.0
C1166 C 0.49818 0.40648 0.28312 0.0
H1167 H 0.53166 0.42034 0.22506 0.0
H1168 H 0.51563 0.42406 0.24201 0.0
H1169 H 0.52589 0.41231 0.26426 0.0
H1170 H 0.5135 0.37673 0.28078 0.0
H1171 H 0.50748 0.37709 0.34291 0.0
H1172 H 0.8472 0.29261 0.3463 0.0
H1173 H 0.84923 0.28531 0.40668 0.0
H1174 H 0.86305 0.24749 0.37149 0.0
H1175 H 0.86077 0.25468 0.31045 0.0
H1176 H 0.84359 0.24513 0.41873 0.0
H1177 H 0.8803 0.28005 0.47037 0.0
H1178 H 0.86705 0.28852 0.44915 0.0
H1179 H 0.87757 0.27784 0.42404 0.0
C1180 C 0.85086 0.28278 0.35125 0.0
C1181 C 0.85382 0.27422 0.32346 0.0
C1182 C 0.85212 0.27866 0.38593 0.0
C1183 C 0.85653 0.26593 0.39374 0.0
C1184 C 0.85974 0.25741 0.36609 0.0
H1185 H 0.86483 0.24136 0.61413 0.0
H1186 H 0.87005 0.24687 0.55316 0.0
C1187 C 0.85845 0.26153 0.33123 0.0
C1188 C 0.85654 0.26127 0.43062 0.0
H1189 H 0.86611 0.2698 0.51331 0.0
C1190 C 0.8487 0.2504 0.43932 0.0
C1191 C 0.86334 0.26801 0.45753 0.0
C1192 C 0.87265 0.27916 0.44974 0.0
C1193 C 0.84689 0.24655 0.47427 0.0
C1194 C 0.85288 0.25392 0.50133 0.0
C1195 C 0.86133 0.26431 0.49258 0.0
C1196 C 0.84996 0.25131 0.53876 0.0
C1197 C 0.83846 0.2347 0.48191 0.0
C1198 C 0.83702 0.25243 0.55116 0.0
C1199 C 0.83401 0.24933 0.58585 0.0
C1200 C 0.8439 0.24512 0.60903 0.0
C1201 C 0.85697 0.24455 0.59697 0.0
C1202 C 0.85997 0.24766 0.56212 0.0
H1203 H 0.83795 0.22799 0.45902 0.0
H1204 H 0.84227 0.22912 0.50476 0.0
H1205 H 0.8283 0.23798 0.48798 0.0
H1206 H 0.82919 0.25554 0.53381 0.0
H1207 H 0.82386 0.24997 0.59426 0.0
H1208 H 0.02255 0.63136 0.8367 0.0
H1209 H 0.0167 0.63273 0.77476 0.0
H1210 H 0.99788 0.59485 0.7814 0.0
H1211 H 0.00341 0.59356 0.84352 0.0
H1212 H 0.02532 0.61693 0.72456 0.0
H1213 H 0.97101 0.61484 0.72562 0.0
H1214 H 0.98049 0.61802 0.76465 0.0
H1215 H 0.97812 0.60144 0.7495 0.0
C1216 C 0.01692 0.62344 0.8252 0.0
C1217 C 0.01345 0.61235 0.84516 0.0
C1218 C 0.0136 0.62423 0.7897 0.0
C1219 C 0.00673 0.61396 0.77334 0.0
C1220 C 0.0029 0.60305 0.79349 0.0
H1221 H 0.01084 0.58782 0.56095 0.0
H1222 H 0.01408 0.59304 0.62254 0.0
C1223 C 0.00613 0.6023 0.82907 0.0
C1224 C 0.00467 0.61409 0.73472 0.0
H1225 H 0.98153 0.60953 0.67098 0.0
C1226 C 0.01571 0.61548 0.71289 0.0
C1227 C 0.99212 0.6124 0.71928 0.0
C1228 C 0.97975 0.61173 0.74099 0.0
C1229 C 0.01463 0.61469 0.6763 0.0
C1230 C 0.00221 0.61215 0.661 0.0
C1231 C 0.99108 0.61133 0.68267 0.0
C1232 C 1.0007 0.60958 0.62286 0.0
C1233 C 0.02683 0.61657 0.65441 0.0
C1234 C 0.99195 0.61702 0.6024 0.0
C1235 C 0.98999 0.614 0.56696 0.0
C1236 C 0.99668 0.60339 0.55141 0.0
C1237 C 0.00558 0.59611 0.5719 0.0
C1238 C 0.00751 0.59913 0.6072 0.0
H1239 H 0.03429 0.62258 0.6684 0.0
H1240 H 0.0313 0.60684 0.64889 0.0
H1241 H 0.02452 0.6214 0.62908 0.0
H1242 H 0.98652 0.62509 0.61396 0.0
H1243 H 0.98301 0.61976 0.55203 0.0
H1244 H 0.64837 0.75005 0.10505 0.0
H1245 H 0.64521 0.74162 0.04537 0.0
H1246 H 0.65936 0.77828 1.0032 0.0
H1247 H 0.66272 0.78666 0.06221 0.0
H1248 H 0.62996 0.75131 0.98924 0.0
H1249 H 0.683 0.75128 0.95574 0.0
H1250 H 0.67716 0.75288 1.00013 0.0
H1251 H 0.67725 0.76688 0.97136 0.0
C1252 C 0.65081 0.75629 0.08303 0.0
C1253 C 0.65592 0.76897 0.08842 0.0
C1254 C 0.64899 0.75148 0.04899 0.0
C1255 C 0.65229 0.75924 0.01986 0.0
C1256 C 0.65704 0.77201 0.02525 0.0
H1257 H 0.65262 0.751 0.7941 0.0
H1258 H 0.65216 0.75939 0.85418 0.0
C1259 C 0.6589 0.77679 0.0591 0.0
C1260 C 0.65084 0.75411 0.9837 0.0
H1261 H 0.66806 0.74836 0.90849 0.0
C1262 C 0.63829 0.75057 0.97163 0.0
C1263 C 0.66173 0.75314 0.96078 0.0
C1264 C 0.67557 0.75612 0.9727 0.0
C1265 C 0.6363 0.74641 0.93693 0.0
C1266 C 0.64717 0.74567 0.91391 0.0
C1267 C 0.65972 0.74909 0.9261 0.0
C1268 C 0.64589 0.74102 0.87728 0.0
C1269 C 0.62257 0.74311 0.9249 0.0
C1270 C 0.64236 0.72796 0.87034 0.0
C1271 C 0.64265 0.72313 0.8361 0.0
C1272 C 0.6465 0.73127 0.80811 0.0
C1273 C 0.64955 0.74449 0.815 0.0
C1274 C 0.64934 0.74929 0.84932 0.0
H1275 H 0.61498 0.74711 0.94292 0.0
H1276 H 0.62074 0.74701 0.89818 0.0
H1277 H 0.62142 0.73228 0.92401 0.0
H1278 H 0.63988 0.72136 0.89156 0.0
H1279 H 0.64025 0.7129 0.83174 0.0
H1280 H 0.50713 0.41359 0.83261 0.0
H1281 H 0.50068 0.41225 0.7711 0.0
H1282 H 0.51115 0.37119 0.76949 0.0
H1283 H 0.518 0.37256 0.83072 0.0
H1284 H 0.52097 0.38347 0.7138 0.0
H1285 H 0.46846 0.3969 0.72674 0.0
H1286 H 0.47913 0.40911 0.74503 0.0
H1287 H 0.47857 0.39293 0.76407 0.0
C1288 C 0.50789 0.40422 0.81934 0.0
C1289 C 0.51304 0.39317 0.8367 0.0
C1290 C 0.50414 0.40346 0.78413 0.0
C1291 C 0.50524 0.39157 0.76566 0.0
C1292 C 0.51018 0.38047 0.78313 0.0
H1293 H 0.46892 0.37992 0.56175 0.0
H1294 H 0.47573 0.37805 0.62285 0.0
C1295 C 0.51404 0.38126 0.81822 0.0
C1296 C 0.50181 0.39084 0.72777 0.0
H1297 H 0.47733 0.3972 0.66895 0.0
C1298 C 0.51139 0.38638 0.70403 0.0
C1299 C 0.48926 0.39446 0.71494 0.0
C1300 C 0.47823 0.39849 0.73906 0.0
C1301 C 0.50885 0.38568 0.66788 0.0
C1302 C 0.4965 0.38986 0.65491 0.0
C1303 C 0.48685 0.3941 0.67873 0.0
C1304 C 0.49325 0.38991 0.61685 0.0
C1305 C 0.51937 0.38022 0.64412 0.0
C1306 C 0.50095 0.39699 0.59276 0.0
C1307 C 0.49717 0.3979 0.55755 0.0
C1308 C 0.48547 0.39197 0.5459 0.0
C1309 C 0.47797 0.38462 0.56986 0.0
C1310 C 0.48184 0.38358 0.60487 0.0
H1311 H 0.5263 0.37378 0.65865 0.0
H1312 H 0.51502 0.37451 0.62225 0.0
H1313 H 0.52513 0.38847 0.63289 0.0
H1314 H 0.50962 0.40223 0.60138 0.0
H1315 H 0.50307 0.40378 0.53988 0.0
H1316 H 0.36886 0.71689 0.3331 0.0
H1317 H 0.36791 0.72471 0.39363 0.0
H1318 H 0.34756 0.75959 0.35961 0.0
H1319 H 0.34849 0.75191 0.29892 0.0
H1320 H 0.37593 0.75153 0.4253 0.0
H1321 H 0.32279 0.73863 0.4316 0.0
H1322 H 0.3338 0.7315 0.39975 0.0
H1323 H 0.32814 0.74807 0.39438 0.0
C1324 C 0.36436 0.72633 0.33837 0.0
C1325 C 0.35866 0.73373 0.31118 0.0
C1326 C 0.36385 0.73077 0.37297 0.0
C1327 C 0.35756 0.74264 0.38102 0.0
C1328 C 0.35239 0.75036 0.35385 0.0
H1329 H 0.33021 0.78108 0.56718 0.0
H1330 H 0.33506 0.77339 0.50825 0.0
C1331 C 0.35298 0.74597 0.31919 0.0
C1332 C 0.35557 0.74653 0.41798 0.0
H1333 H 0.33186 0.74925 0.48073 0.0
C1334 C 0.36633 0.75101 0.43759 0.0
C1335 C 0.34303 0.74576 0.43378 0.0
C1336 C 0.33125 0.74065 0.41401 0.0
C1337 C 0.36478 0.75516 0.47247 0.0
C1338 C 0.35219 0.75448 0.48826 0.0
C1339 C 0.3415 0.74977 0.46865 0.0
C1340 C 0.34966 0.75916 0.52448 0.0
C1341 C 0.37652 0.76064 0.49165 0.0
C1342 C 0.35617 0.75365 0.55344 0.0
C1343 C 0.35347 0.75811 0.58741 0.0
C1344 C 0.34408 0.76805 0.59299 0.0
C1345 C 0.33748 0.7734 0.56393 0.0
C1346 C 0.34025 0.76902 0.53013 0.0
H1347 H 0.3845 0.76355 0.47336 0.0
H1348 H 0.37372 0.76933 0.50758 0.0
H1349 H 0.38049 0.75302 0.50954 0.0
H1350 H 0.36325 0.74582 0.54982 0.0
H1351 H 0.35867 0.75374 0.60925 0.0
H1352 H 0.98961 0.61706 0.03988 0.0
H1353 H 0.98546 0.6185 0.10294 0.0
H1354 H 0.02262 0.59953 0.12336 0.0
H1355 H 0.02704 0.59856 0.06082 0.0
H1356 H 0.98197 0.5998 0.14761 0.0
H1357 H 0.02485 0.62801 0.19374 0.0
H1358 H 0.02079 0.62668 0.14792 0.0
H1359 H 0.03017 0.61396 0.16935 0.0
C1360 C 0.997 0.61342 0.05786 0.0
C1361 C 0.00868 0.60775 0.04523 0.0
C1362 C 0.99461 0.61423 0.09394 0.0
C1363 C 0.00382 0.60935 0.11816 0.0
C1364 C 0.01553 0.60378 0.10549 0.0
H1365 H 0.98575 0.57646 0.31941 0.0
H1366 H 0.99064 0.58134 0.25829 0.0
C1367 C 0.018 0.60312 0.06954 0.0
C1368 C 1.00076 0.609 0.15635 0.0
H1369 H 0.01388 0.61468 0.23738 0.0
C1370 C 0.98889 0.60324 0.16716 0.0
C1371 C 0.00961 0.61371 0.18214 0.0
C1372 C 0.02199 0.62107 0.17264 0.0
C1373 C 0.9859 0.60153 0.20276 0.0
C1374 C 0.99524 0.60523 0.22845 0.0
C1375 C 0.00683 0.61157 0.21777 0.0
C1376 C 0.99328 0.60223 0.2663 0.0
C1377 C 0.97268 0.59581 0.21234 0.0
C1378 C 0.99394 0.61219 0.29175 0.0
C1379 C 0.99145 0.60934 0.32709 0.0
C1380 C 0.98817 0.5965 0.33749 0.0
C1381 C 0.98805 0.58649 0.31217 0.0
C1382 C 0.99073 0.5893 0.27711 0.0
H1383 H 0.96525 0.59782 0.1917 0.0
H1384 H 0.97359 0.58499 0.2149 0.0
H1385 H 0.96901 0.59985 0.2375 0.0
H1386 H 0.99604 0.62223 0.28416 0.0
H1387 H 0.99161 0.61726 0.34601 0.0
H1388 H 0.14531 0.25278 0.79855 0.0
H1389 H 0.14327 0.24519 0.85921 0.0
H1390 H 0.14949 0.28478 0.89579 0.0
H1391 H 0.15108 0.29246 0.83565 0.0
H1392 H 0.16163 0.24559 0.90742 0.0
H1393 H 0.11971 0.27433 0.95769 0.0
H1394 H 0.1233 0.27315 0.91155 0.0
H1395 H 0.13176 0.28497 0.93853 0.0
C1396 C 0.14596 0.2599 0.81952 0.0
C1397 C 0.14834 0.27323 0.8122 0.0
C1398 C 0.14481 0.25555 0.85419 0.0
C1399 C 0.14602 0.26443 0.88218 0.0
C1400 C 0.14813 0.27777 0.87479 0.0
H1401 H 0.1784 0.2492 0.08501 0.0
H1402 H 0.17344 0.25516 0.02457 0.0
C1403 C 0.14915 0.28214 0.84024 0.0
C1404 C 0.14642 0.25967 0.919 0.0
H1405 H 0.13488 0.26604 1.0013 0.0
C1406 C 0.15563 0.24993 0.92782 0.0
C1407 C 0.13846 0.26515 0.94571 0.0
C1408 C 0.12766 0.27487 0.9378 0.0
C1409 C 0.15753 0.24598 0.96265 0.0
C1410 C 0.1503 0.25221 0.98964 0.0
C1411 C 0.14062 0.26146 0.98072 0.0
C1412 C 0.15296 0.24948 0.02721 0.0
C1413 C 0.16729 0.23516 0.97012 0.0
C1414 C 0.14292 0.24498 0.04946 0.0
C1415 C 0.14569 0.24176 0.08436 0.0
C1416 C 0.15855 0.24297 0.09755 0.0
C1417 C 0.16843 0.248 0.07558 0.0
C1418 C 0.16563 0.25132 0.0409 0.0
H1419 H 0.16866 0.22869 0.94699 0.0
H1420 H 0.17697 0.23957 0.97648 0.0
H1421 H 0.1641 0.22903 0.99262 0.0
H1422 H 0.13303 0.24362 0.03956 0.0
H1423 H 0.13786 0.23791 0.10062 0.0
H1424 H 0.51385 0.58576 0.6897 0.0
H1425 H 0.50818 0.58628 0.75169 0.0
H1426 H 0.48807 0.62317 0.73684 0.0
H1427 H 0.49393 0.62286 0.67458 0.0
H1428 H 0.50406 0.62315 0.79571 0.0
H1429 H 0.4724 0.57887 0.79433 0.0
H1430 H 0.48854 0.5759 0.77712 0.0
H1431 H 0.47763 0.587 0.75473 0.0
C1432 C 0.50814 0.59396 0.69944 0.0
C1433 C 0.50427 0.60424 0.67699 0.0
C1434 C 0.50486 0.59422 0.73497 0.0
C1435 C 0.49753 0.60466 0.74888 0.0
C1436 C 0.49369 0.61498 0.72665 0.0
H1437 H 0.45908 0.60076 0.95095 0.0
H1438 H 0.46451 0.60359 0.88927 0.0
C1439 C 0.497 0.61476 0.69103 0.0
C1440 C 0.49403 0.60483 0.7867 0.0
H1441 H 0.47857 0.58701 0.85028 0.0
C1442 C 0.49842 0.61529 0.80765 0.0
C1443 C 0.48655 0.59466 0.80222 0.0
C1444 C 0.48089 0.58354 0.7809 0.0
C1445 C 0.49573 0.61572 0.84378 0.0
C1446 C 0.48866 0.6053 0.85949 0.0
C1447 C 0.4841 0.59496 0.83837 0.0
C1448 C 0.48551 0.60495 0.89757 0.0
C1449 C 0.5003 0.62744 0.86463 0.0
C1450 C 0.49549 0.60497 0.92307 0.0
C1451 C 0.49239 0.60346 0.95865 0.0
C1452 C 0.47926 0.60171 0.96925 0.0
C1453 C 0.4693 0.60202 0.94371 0.0
C1454 C 0.47239 0.60363 0.90836 0.0
H1455 H 0.50224 0.63606 0.84752 0.0
H1456 H 0.4929 0.63027 0.88463 0.0
H1457 H 0.50959 0.62493 0.87828 0.0
H1458 H 0.50572 0.60569 0.9154 0.0
H1459 H 0.50029 0.60316 0.97764 0.0
H1460 H 0.1641 0.78864 0.4597 0.0
H1461 H 0.15976 0.77992 0.51803 0.0
H1462 H 0.14551 0.74386 0.4727 0.0
H1463 H 0.14996 0.75248 0.41388 0.0
H1464 H 0.13584 0.77082 0.54749 0.0
H1465 H 0.17404 0.73173 0.54245 0.0
H1466 H 0.17362 0.74518 0.51167 0.0
H1467 H 0.16235 0.73171 0.50716 0.0
C1468 C 0.16006 0.77884 0.462 0.0
C1469 C 0.15746 0.77122 0.43207 0.0
C1470 C 0.15754 0.77389 0.49543 0.0
C1471 C 0.15245 0.7612 0.49972 0.0
C1472 C 0.14964 0.75361 0.46996 0.0
H1473 H 0.1408 0.71527 0.68938 0.0
H1474 H 0.14003 0.72336 0.62924 0.0
C1475 C 0.15214 0.75857 0.43638 0.0
C1476 C 0.15025 0.75598 0.53551 0.0
H1477 H 0.16106 0.73282 0.59337 0.0
C1478 C 0.1413 0.76247 0.55753 0.0
C1479 C 0.1574 0.74511 0.5485 0.0
C1480 C 0.16748 0.73806 0.52641 0.0
C1481 C 0.1393 0.75836 0.59225 0.0
C1482 C 0.14663 0.74763 0.60545 0.0
C1483 C 0.15543 0.74103 0.58321 0.0
C1484 C 0.14566 0.74324 0.64244 0.0
C1485 C 0.12926 0.76545 0.61432 0.0
C1486 C 0.1489 0.75177 0.67001 0.0
C1487 C 0.14928 0.74719 0.70456 0.0
C1488 C 0.14658 0.73393 0.71209 0.0
C1489 C 0.14296 0.72552 0.68452 0.0
C1490 C 0.14253 0.73012 0.65008 0.0
H1491 H 0.12189 0.77064 0.59786 0.0
H1492 H 0.12402 0.75855 0.632 0.0
H1493 H 0.13432 0.77291 0.63064 0.0
H1494 H 0.15163 0.76186 0.6647 0.0
H1495 H 0.15221 0.75389 0.72513 0.0
H1496 H 0.98201 0.3762 0.18274 0.0
H1497 H 0.98782 0.37614 0.24484 0.0
H1498 H 0.00393 0.41513 0.23456 0.0
H1499 H 0.99838 0.41519 0.17225 0.0
H1500 H 0.01918 0.39893 0.27671 0.0
H1501 H 0.96667 0.39705 0.31641 0.0
H1502 H 0.97179 0.38383 0.28848 0.0
H1503 H 0.97172 0.40038 0.27203 0.0
C1504 C 0.98692 0.38472 0.19355 0.0
C1505 C 0.98961 0.39576 0.17253 0.0
C1506 C 0.99016 0.38469 0.22914 0.0
C1507 C 0.99604 0.39575 0.24453 0.0
C1508 C 0.99931 0.40653 0.22329 0.0
H1509 H 0.9963 0.42231 0.45763 0.0
H1510 H 0.99241 0.41779 0.3958 0.0
C1511 C 0.99613 0.40654 0.18764 0.0
C1512 C 0.99831 0.39633 0.28294 0.0
H1513 H 0.98241 0.39622 0.36175 0.0
C1514 C 0.01116 0.39827 0.29535 0.0
C1515 C 0.9878 0.39564 0.3072 0.0
C1516 C 0.9737 0.39423 0.29546 0.0
C1517 C 0.01378 0.3996 0.33132 0.0
C1518 C 0.00329 0.39875 0.35558 0.0
C1519 C 0.99046 0.39673 0.34316 0.0
C1520 C 0.00526 0.40086 0.39372 0.0
C1521 C 0.02769 0.40237 0.34291 0.0
C1522 C 0.01352 0.39263 0.41346 0.0
C1523 C 0.0158 0.39521 0.44898 0.0
C1524 C 0.00979 0.40602 0.46544 0.0
C1525 C 1.00113 0.41392 0.44585 0.0
C1526 C 0.99889 0.41135 0.41043 0.0
H1527 H 0.03399 0.40566 0.32082 0.0
H1528 H 0.02787 0.41003 0.3636 0.0
H1529 H 0.03205 0.39327 0.35391 0.0
H1530 H 0.01832 0.38431 0.40131 0.0
H1531 H 0.02248 0.3889 0.46331 0.0
H1532 H 0.3672 0.29001 0.19057 0.0
H1533 H 0.36768 0.28373 0.12884 0.0
H1534 H 0.35222 0.24557 0.15533 0.0
H1535 H 0.35189 0.25168 0.21729 0.0
H1536 H 0.37176 0.24486 0.1027 0.0
H1537 H 0.33308 0.28192 0.07388 0.0
H1538 H 0.34766 0.28837 0.09408 0.0
H1539 H 0.33735 0.27716 0.11793 0.0
C1540 C 0.36407 0.28021 0.18338 0.0
C1541 C 0.35936 0.2714 0.20885 0.0
C1542 C 0.3643 0.27666 0.14803 0.0
C1543 C 0.35972 0.26429 0.13742 0.0
C1544 C 0.35573 0.2552 0.16295 0.0
H1545 H 0.32595 0.23878 0.94447 0.0
H1546 H 0.33132 0.24611 1.00345 0.0
C1547 C 0.35555 0.25871 0.19836 0.0
C1548 C 0.35828 0.26112 0.09969 0.0
H1549 H 0.34139 0.26993 0.02603 0.0
C1550 C 0.36519 0.25038 0.08582 0.0
C1551 C 0.34957 0.26825 0.07787 0.0
C1552 C 0.34139 0.2795 0.09164 0.0
C1553 C 0.36356 0.24652 0.05074 0.0
C1554 C 0.35491 0.25371 0.02891 0.0
C1555 C 0.34811 0.26452 0.04273 0.0
C1556 C 0.3519 0.24957 0.99252 0.0
C1557 C 0.37073 0.23451 0.03767 0.0
C1558 C 0.36166 0.24929 0.96649 0.0
C1559 C 0.35861 0.24508 0.9325 0.0
C1560 C 0.34574 0.24112 0.92402 0.0
C1561 C 0.33597 0.24172 0.95003 0.0
C1562 C 0.33902 0.24591 0.98383 0.0
H1563 H 0.3749 0.2286 0.05946 0.0
H1564 H 0.36406 0.22817 0.02208 0.0
H1565 H 0.37895 0.23762 0.02045 0.0
H1566 H 0.37162 0.2523 0.97247 0.0
H1567 H 0.36635 0.24476 0.91307 0.0
H1568 H 0.03497 0.04907 0.02837 0.0
H1569 H 0.03078 0.02669 1.00737 0.0
H1570 H 0.9901 0.03021 0.03779 0.0
H1571 H 0.99412 0.05254 0.05829 0.0
H1572 H 0.02111 0.0046 0.04249 0.0
H1573 H 0.98743 0.01936 0.93529 0.0
H1574 H 0.99781 0.03096 0.95789 0.0
H1575 H 0.98265 0.02556 0.97738 0.0
C1576 C 0.02515 0.04506 0.03066 0.0
C1577 C 0.01486 0.05263 0.04473 0.0
C1578 C 0.02277 0.03229 0.01862 0.0
C1579 C 0.01007 0.02691 0.02033 0.0
C1580 C 0.9999 0.03429 0.03538 0.0
H1581 H 0.97383 0.95212 0.97087 0.0
H1582 H 0.97874 0.97464 0.98946 0.0
C1583 C 0.00225 0.04704 0.0473 0.0
C1584 C 0.0074 0.01352 1.00674 0.0
H1585 H 0.98836 0.99653 0.94864 0.0
C1586 C 0.01404 0.00283 0.02179 0.0
C1587 C 0.99815 0.01125 0.97972 0.0
C1588 C 0.99118 0.02239 0.96137 0.0
C1589 C 0.01142 0.98989 0.01115 0.0
C1590 C 0.00205 0.98762 0.98445 0.0
C1591 C 0.99549 0.99831 0.96921 0.0
C1592 C 0.99896 0.9742 0.97193 0.0
C1593 C 0.01845 0.97871 0.02915 0.0
C1594 C 0.00862 0.96665 0.95517 0.0
C1595 C 0.00585 0.95383 0.94443 0.0
C1596 C 0.99334 0.94832 0.95018 0.0
C1597 C 0.98357 0.95606 0.96611 0.0
C1598 C 0.98635 0.96891 0.97678 0.0
H1599 H 0.023 0.98185 0.05422 0.0
H1600 H 0.01159 0.97046 0.03449 0.0
H1601 H 0.02638 0.975 0.01182 0.0
H1602 H 0.01834 0.97064 0.95061 0.0
H1603 H 0.01359 0.94818 0.9321 0.0
H1604 H 0.2016 0.74475 0.32557 0.0
H1605 H 0.2239 0.73927 0.307 0.0
H1606 H 0.22918 0.77876 0.26854 0.0
H1607 H 0.20688 0.78441 0.28757 0.0
H1608 H 0.23374 0.73997 0.23983 0.0
H1609 H 0.26231 0.77303 0.32671 0.0
H1610 H 0.24515 0.76941 0.33404 0.0
H1611 H 0.24989 0.78123 0.30142 0.0
C1612 C 0.20753 0.75234 0.31351 0.0
C1613 C 0.20245 0.76504 0.30812 0.0
C1614 C 0.22028 0.74916 0.30285 0.0
C1615 C 0.22826 0.75862 0.28668 0.0
C1616 C 0.22329 0.77136 0.28157 0.0
H1617 H 0.3057 0.75824 0.19401 0.0
H1618 H 0.2833 0.76314 0.2128 0.0
C1619 C 0.21052 0.77457 0.29235 0.0
C1620 C 0.24154 0.75492 0.27387 0.0
H1621 H 0.27417 0.76221 0.28163 0.0
C1622 C 0.2426 0.74478 0.24909 0.0
C1623 C 0.25307 0.7612 0.28601 0.0
C1624 C 0.25261 0.77174 0.31375 0.0
C1625 C 0.25486 0.74094 0.23558 0.0
C1626 C 0.26637 0.74728 0.24756 0.0
C1627 C 0.26532 0.75738 0.27245 0.0
C1628 C 0.27963 0.74381 0.23421 0.0
C1629 C 0.25536 0.73035 0.20799 0.0
C1630 C 0.28498 0.73125 0.23972 0.0
C1631 C 0.29783 0.72838 0.22886 0.0
C1632 C 0.30556 0.73807 0.21257 0.0
C1633 C 0.30004 0.75054 0.20651 0.0
C1634 C 0.28724 0.75339 0.2173 0.0
H1635 H 0.24559 0.72872 0.19572 0.0
H1636 H 0.26255 0.73289 0.18718 0.0
H1637 H 0.25854 0.72099 0.22025 0.0
H1638 H 0.27936 0.72378 0.25323 0.0
H1639 H 0.30182 0.71871 0.23412 0.0
H1640 H 0.49338 0.05068 0.427 0.0
H1641 H 0.48871 0.02838 0.44694 0.0
H1642 H 0.52702 0.02628 0.49502 0.0
H1643 H 0.53172 0.04874 0.47564 0.0
H1644 H 0.50156 0.00518 0.43279 0.0
H1645 H 0.50248 0.0159 0.57525 0.0
H1646 H 0.50179 0.02868 0.5425 0.0
H1647 H 0.51712 0.02067 0.55223 0.0
C1648 C 0.50085 0.04549 0.44175 0.0
C1649 C 0.51291 0.05153 0.44987 0.0
C1650 C 0.49815 0.03274 0.45316 0.0
C1651 C 0.50742 0.02575 0.473 0.0
C1652 C 0.51961 0.0316 0.48042 0.0
H1653 H 0.5093 0.94232 0.51247 0.0
H1654 H 0.51369 0.96502 0.49573 0.0
C1655 C 0.52232 0.0444 0.46907 0.0
C1656 C 0.50433 0.01228 0.48535 0.0
H1657 H 0.50083 0.99343 0.55885 0.0
C1658 C 0.50138 0.00262 0.46035 0.0
C1659 C 0.50391 0.00901 0.52136 0.0
C1660 C 0.50637 0.01912 0.54946 0.0
C1661 C 0.49828 0.98972 0.47033 0.0
C1662 C 0.49825 0.98636 0.50624 0.0
C1663 C 0.50094 0.99605 0.53133 0.0
C1664 C 0.49574 0.97273 0.518 0.0
C1665 C 0.49494 0.97979 0.44242 0.0
C1666 C 0.48431 0.9696 0.53687 0.0
C1667 C 0.48173 0.95656 0.54651 0.0
C1668 C 0.49061 0.9465 0.53767 0.0
C1669 C 0.50221 0.94979 0.51958 0.0
C1670 C 0.50474 0.96276 0.50987 0.0
H1671 H 0.49255 0.98456 0.41704 0.0
H1672 H 0.50349 0.97319 0.4383 0.0
H1673 H 0.48645 0.97364 0.4506 0.0
H1674 H 0.47728 0.97719 0.5435 0.0
H1675 H 0.47274 0.95436 0.56052 0.0
H1676 H 0.30429 0.22582 0.72225 0.0
H1677 H 0.28207 0.2345 0.71433 0.0
H1678 H 0.2791 0.24148 0.82533 0.0
H1679 H 0.3014 0.23295 0.83355 0.0
H1680 H 0.25778 0.22685 0.74363 0.0
H1681 H 0.27136 0.27769 0.78199 0.0
H1682 H 0.28348 0.26532 0.77168 0.0
H1683 H 0.27549 0.2653 0.81364 0.0
C1684 C 0.2989 0.22911 0.74507 0.0
C1685 C 0.30468 0.22879 0.77852 0.0
C1686 C 0.28619 0.23407 0.74046 0.0
C1687 C 0.27905 0.23887 0.76913 0.0
C1688 C 0.28457 0.23808 0.80275 0.0
H1689 H 0.2025 0.27453 0.79579 0.0
H1690 H 0.22473 0.26577 0.80264 0.0
C1691 C 0.29728 0.23311 0.80741 0.0
C1692 C 0.2659 0.24485 0.76373 0.0
H1693 H 0.24872 0.2735 0.77257 0.0
C1694 C 0.2558 0.23706 0.74981 0.0
C1695 C 0.26337 0.25818 0.77175 0.0
C1696 C 0.27401 0.26717 0.78531 0.0
C1697 C 0.24313 0.24217 0.7444 0.0
C1698 C 0.24058 0.2555 0.75252 0.0
C1699 C 0.2507 0.2633 0.76634 0.0
C1700 C 0.22739 0.26144 0.74769 0.0
C1701 C 0.23248 0.23318 0.73087 0.0
C1702 C 0.22165 0.26225 0.71434 0.0
C1703 C 0.20893 0.26728 0.71028 0.0
C1704 C 0.20174 0.27162 0.73954 0.0
C1705 C 0.20773 0.27123 0.77271 0.0
C1706 C 0.22044 0.26622 0.77671 0.0
H1707 H 0.23518 0.22266 0.73392 0.0
H1708 H 0.22305 0.23497 0.74472 0.0
H1709 H 0.23091 0.23513 0.7026 0.0
H1710 H 0.22696 0.25887 0.69148 0.0
H1711 H 0.20463 0.26749 0.68434 0.0
H1712 H 0.02982 0.9534 0.46041 0.0
H1713 H 0.02539 0.97649 0.47457 0.0
H1714 H 0.98614 0.96622 0.50738 0.0
H1715 H 0.9905 0.94322 0.49387 0.0
H1716 H 0.00592 0.99327 0.44824 0.0
H1717 H 1.00015 0.98652 0.59152 0.0
H1718 H 0.00737 0.97414 0.56371 0.0
H1719 H 0.9898 0.97599 0.56584 0.0
C1720 C 0.02026 0.95607 0.47072 0.0
C1721 C 0.01055 0.94645 0.47624 0.0
C1722 C 0.01774 0.96925 0.47878 0.0
C1723 C 0.00552 0.97302 0.49264 0.0
C1724 C 0.99575 0.96348 0.49751 0.0
H1725 H 0.96984 0.04738 0.5539 0.0
H1726 H 0.9742 0.02427 0.53975 0.0
C1727 C 0.99825 0.95033 0.48955 0.0
C1728 C 0.00283 0.98697 0.50139 0.0
H1729 H 0.99393 0.00732 0.56843 0.0
C1730 C 0.00338 0.99636 0.47454 0.0
C1731 C 0.99946 0.99096 0.53573 0.0
C1732 C 0.99927 0.98141 0.56595 0.0
C1733 C 1.00043 0.00962 0.48098 0.0
C1734 C 0.99703 0.0136 0.51529 0.0
C1735 C 0.99647 0.00421 0.54213 0.0
C1736 C 0.99437 0.02754 0.52401 0.0
C1737 C 1.00073 0.01923 0.45089 0.0
C1738 C 0.00433 0.03696 0.52041 0.0
C1739 C 0.00189 0.05011 0.5285 0.0
C1740 C 0.98944 0.05412 0.54051 0.0
C1741 C 0.97951 0.04462 0.54461 0.0
C1742 C 0.98198 0.03143 0.53655 0.0
H1743 H 1.00017 0.01416 0.42519 0.0
H1744 H 0.99248 0.02635 0.45275 0.0
H1745 H 0.01009 0.02483 0.45172 0.0
H1746 H 0.01403 0.03412 0.51145 0.0
H1747 H 0.00979 0.05713 0.5252 0.0
H1748 H 0.20317 0.71989 0.79109 0.0
H1749 H 0.22577 0.72466 0.77261 0.0
H1750 H 0.22085 0.7651 0.80344 0.0
H1751 H 0.19833 0.7605 0.82156 0.0
H1752 H 0.23107 0.76212 0.73608 0.0
H1753 H 0.25853 0.73183 0.83257 0.0
H1754 H 0.24606 0.7232 0.8085 0.0
H1755 H 0.24142 0.73607 0.83821 0.0
C1756 C 0.20696 0.72976 0.79431 0.0
C1757 C 0.19893 0.73981 0.80779 0.0
C1758 C 0.21989 0.73246 0.78384 0.0
C1759 C 0.22502 0.74522 0.78692 0.0
C1760 C 0.21709 0.75519 0.80086 0.0
H1761 H 0.2983 0.78478 0.73278 0.0
H1762 H 0.27575 0.77954 0.7507 0.0
C1763 C 0.20421 0.75252 0.81127 0.0
C1764 C 0.23844 0.74842 0.7743 0.0
H1765 H 0.27099 0.7418 0.78746 0.0
C1766 C 0.23981 0.75771 0.74734 0.0
C1767 C 0.24981 0.74263 0.78903 0.0
C1768 C 0.24896 0.73296 0.81888 0.0
C1769 C 0.25224 0.76126 0.7344 0.0
C1770 C 0.26362 0.75553 0.74926 0.0
C1771 C 0.26225 0.74619 0.77613 0.0
C1772 C 0.27706 0.75894 0.73712 0.0
C1773 C 0.25306 0.77089 0.70446 0.0
C1774 C 0.28531 0.74909 0.72389 0.0
C1775 C 0.29818 0.75203 0.71386 0.0
C1776 C 0.30311 0.76489 0.71697 0.0
C1777 C 0.29478 0.7748 0.72982 0.0
C1778 C 0.28187 0.77183 0.73995 0.0
H1779 H 0.24356 0.77172 0.69026 0.0
H1780 H 0.25558 0.78075 0.71488 0.0
H1781 H 0.26083 0.76798 0.68556 0.0
H1782 H 0.28181 0.73907 0.72153 0.0
H1783 H 0.30432 0.74414 0.70407 0.0
H1784 H 0.53086 0.95103 0.03605 0.0
H1785 H 0.5262 0.97373 0.0187 0.0
H1786 H 0.48573 0.96888 0.0498 0.0
H1787 H 0.4903 0.9463 0.06758 0.0
H1788 H 0.50801 0.98203 0.96812 0.0
H1789 H 0.49615 0.00314 0.0983 0.0
H1790 H 0.5045 0.98761 0.09324 0.0
H1791 H 0.48699 0.98862 0.08747 0.0
C1792 C 0.52101 0.95483 0.03957 0.0
C1793 C 0.51097 0.94685 0.05332 0.0
C1794 C 0.51835 0.9678 0.02957 0.0
C1795 C 0.50566 0.97304 0.03336 0.0
C1796 C 0.49565 0.96513 0.04729 0.0
H1797 H 0.47056 0.04874 0.97908 0.0
H1798 H 0.4741 0.02583 0.99688 0.0
C1799 C 0.49829 0.95218 0.05727 0.0
C1800 C 0.50273 0.98658 0.02132 0.0
H1801 H 0.49177 0.01658 0.04886 0.0
C1802 C 0.50452 0.98961 0.98579 0.0
C1803 C 0.49807 0.99641 0.04438 0.0
C1804 C 0.49641 0.99386 0.08304 0.0
C1805 C 0.50166 0.00217 0.97262 0.0
C1806 C 0.49711 0.01202 0.99572 0.0
C1807 C 0.49521 0.00898 0.0312 0.0
C1808 C 0.4948 0.0257 0.98388 0.0
C1809 C 0.50338 0.00473 0.93398 0.0
C1810 C 0.50528 0.03321 0.9709 0.0
C1811 C 0.5033 0.04624 0.96077 0.0
C1812 C 0.4908 0.05208 0.96355 0.0
C1813 C 0.48029 0.04452 0.97647 0.0
C1814 C 0.4823 0.03146 0.98671 0.0
H1815 H 0.50337 0.99546 0.91864 0.0
H1816 H 0.49546 0.01123 0.92387 0.0
H1817 H 0.51295 0.00969 0.92956 0.0
H1818 H 0.51507 0.02905 0.96913 0.0
H1819 H 0.51164 0.05178 0.95109 0.0
H1820 H 0.19481 0.25918 0.24504 0.0
H1821 H 0.21791 0.26357 0.25755 0.0
H1822 H 0.22794 0.22407 0.22674 0.0
H1823 H 0.20476 0.2196 0.21366 0.0
H1824 H 0.23436 0.25087 0.30507 0.0
H1825 H 0.25347 0.24663 0.16934 0.0
H1826 H 0.23616 0.24824 0.17893 0.0
H1827 H 0.24426 0.23267 0.18437 0.0
C1828 C 0.20191 0.25141 0.24073 0.0
C1829 C 0.19793 0.23904 0.22819 0.0
C1830 C 0.21512 0.25395 0.24797 0.0
C1831 C 0.22467 0.24421 0.24268 0.0
C1832 C 0.22076 0.23181 0.23038 0.0
H1833 H 0.30883 0.24093 0.27374 0.0
H1834 H 0.28571 0.2365 0.26153 0.0
C1835 C 0.2075 0.22925 0.22309 0.0
C1836 C 0.23864 0.24704 0.25084 0.0
H1837 H 0.26924 0.24914 0.21445 0.0
C1838 C 0.24199 0.25053 0.28526 0.0
C1839 C 0.24856 0.24661 0.22492 0.0
C1840 C 0.24546 0.24345 0.18724 0.0
C1841 C 0.25504 0.25339 0.29461 0.0
C1842 C 0.26496 0.25297 0.26869 0.0
C1843 C 0.26161 0.24948 0.23427 0.0
C1844 C 0.27894 0.2558 0.27682 0.0
C1845 C 0.25813 0.25654 0.33231 0.0
C1846 C 0.28284 0.26819 0.28929 0.0
C1847 C 0.2961 0.27077 0.29643 0.0
C1848 C 0.30569 0.26102 0.29098 0.0
C1849 C 0.30172 0.24867 0.27831 0.0
C1850 C 0.2885 0.24611 0.27124 0.0
H1851 H 0.25015 0.2533 0.3502 0.0
H1852 H 0.26747 0.2518 0.34058 0.0
H1853 H 0.25928 0.26732 0.33523 0.0
H1854 H 0.27565 0.2759 0.29314 0.0
H1855 H 0.29884 0.2804 0.30597 0.0
H1856 H 0.78863 0.21623 0.67739 0.0
H1857 H 0.7668 0.22445 0.69377 0.0
H1858 H 0.78407 0.24667 0.77809 0.0
H1859 H 0.80582 0.23873 0.76174 0.0
H1860 H 0.75295 0.22216 0.75555 0.0
H1861 H 0.76288 0.27455 0.72669 0.0
H1862 H 0.77354 0.26149 0.71204 0.0
H1863 H 0.77466 0.26752 0.75621 0.0
C1864 C 0.78777 0.22286 0.69942 0.0
C1865 C 0.79899 0.22689 0.71805 0.0
C1866 C 0.7753 0.22757 0.70871 0.0
C1867 C 0.77384 0.23641 0.73668 0.0
C1868 C 0.78498 0.24015 0.75585 0.0
H1869 H 0.70351 0.2539 0.85523 0.0
H1870 H 0.72505 0.24665 0.83445 0.0
C1871 C 0.79742 0.2355 0.74656 0.0
C1872 C 0.76069 0.24155 0.74647 0.0
H1873 H 0.74358 0.26998 0.76027 0.0
C1874 C 0.75086 0.23261 0.75634 0.0
C1875 C 0.7579 0.25518 0.74697 0.0
C1876 C 0.76776 0.26524 0.73456 0.0
C1877 C 0.73847 0.23694 0.76772 0.0
C1878 C 0.73592 0.2506 0.77 0.0
C1879 C 0.7456 0.25952 0.75905 0.0
C1880 C 0.72325 0.25579 0.78351 0.0
C1881 C 0.72817 0.22683 0.77685 0.0
C1882 C 0.71537 0.26392 0.76249 0.0
C1883 C 0.70311 0.26826 0.77451 0.0
C1884 C 0.69851 0.26452 0.8078 0.0
C1885 C 0.70669 0.25685 0.82934 0.0
C1886 C 0.71897 0.2526 0.81739 0.0
H1887 H 0.73026 0.21722 0.76424 0.0
H1888 H 0.72811 0.22528 0.80559 0.0
H1889 H 0.71822 0.23013 0.76873 0.0
H1890 H 0.71854 0.26662 0.73639 0.0
H1891 H 0.69707 0.27416 0.75725 0.0
H1892 H 0.70291 0.78396 0.2365 0.0
H1893 H 0.72583 0.77957 0.25293 0.0
H1894 H 0.7255 0.74435 0.19034 0.0
H1895 H 0.70271 0.74863 0.17377 0.0
H1896 H 0.7351 0.75601 0.28769 0.0
H1897 H 0.75924 0.76405 0.15905 0.0
H1898 H 0.74305 0.77033 0.16912 0.0
H1899 H 0.74522 0.75331 0.15803 0.0
C1900 C 0.70778 0.77538 0.22586 0.0
C1901 C 0.70099 0.76665 0.20379 0.0
C1902 C 0.72084 0.77286 0.23539 0.0
C1903 C 0.72737 0.76169 0.22264 0.0
C1904 C 0.7207 0.75312 0.2001 0.0
H1905 H 0.79748 0.72186 0.29998 0.0
H1906 H 0.77492 0.72781 0.28341 0.0
C1907 C 0.70765 0.75557 0.19075 0.0
C1908 C 0.74096 0.75861 0.23399 0.0
H1909 H 0.77219 0.75408 0.20348 0.0
C1910 C 0.74324 0.75565 0.26936 0.0
C1911 C 0.75154 0.75821 0.21001 0.0
C1912 C 0.74972 0.76175 0.17196 0.0
C1913 C 0.75581 0.75207 0.2813 0.0
C1914 C 0.76631 0.75133 0.25713 0.0
C1915 C 0.76408 0.75452 0.22188 0.0
C1916 C 0.77983 0.74768 0.26802 0.0
C1917 C 0.7578 0.74925 0.3197 0.0
C1918 C 0.79005 0.75681 0.26443 0.0
C1919 C 0.80288 0.75345 0.27379 0.0
C1920 C 0.80581 0.74083 0.28669 0.0
C1921 C 0.79555 0.73166 0.29023 0.0
C1922 C 0.78265 0.73507 0.28094 0.0
H1923 H 0.7495 0.75297 0.33582 0.0
H1924 H 0.75853 0.73848 0.32367 0.0
H1925 H 0.76707 0.75377 0.32922 0.0
H1926 H 0.78808 0.76658 0.25441 0.0
H1927 H 0.81053 0.76076 0.27063 0.0
H1928 H 0.70591 0.21946 0.29262 0.0
H1929 H 0.72886 0.22494 0.27963 0.0
H1930 H 0.71934 0.26621 0.28293 0.0
H1931 H 0.69642 0.26085 0.29541 0.0
H1932 H 0.73395 0.2593 0.22456 0.0
H1933 H 0.75678 0.23971 0.34581 0.0
H1934 H 0.74672 0.22808 0.32278 0.0
H1935 H 0.7393 0.24243 0.3418 0.0
C1936 C 0.70872 0.2297 0.29085 0.0
C1937 C 0.69933 0.23971 0.29514 0.0
C1938 C 0.72186 0.23282 0.28358 0.0
C1939 C 0.72584 0.24599 0.28074 0.0
C1940 C 0.71649 0.25598 0.28512 0.0
H1941 H 0.80041 0.28488 0.23109 0.0
H1942 H 0.77732 0.28031 0.24519 0.0
C1943 C 0.70339 0.25289 0.29232 0.0
C1944 C 0.73964 0.24942 0.27205 0.0
H1945 H 0.77132 0.24636 0.30054 0.0
C1946 C 0.74212 0.25654 0.24125 0.0
C1947 C 0.75028 0.24583 0.29391 0.0
C1948 C 0.74818 0.23869 0.32809 0.0
C1949 C 0.75499 0.2599 0.23129 0.0
C1950 C 0.76563 0.25621 0.25301 0.0
C1951 C 0.76314 0.24917 0.28393 0.0
C1952 C 0.77948 0.25916 0.24365 0.0
C1953 C 0.75712 0.26705 0.19715 0.0
C1954 C 0.78836 0.24881 0.23855 0.0
C1955 C 0.80151 0.25138 0.23069 0.0
C1956 C 0.8061 0.26438 0.2279 0.0
C1957 C 0.79717 0.27477 0.23286 0.0
C1958 C 0.78397 0.27217 0.24078 0.0
H1959 H 0.74835 0.26648 0.17987 0.0
H1960 H 0.75911 0.27757 0.20259 0.0
H1961 H 0.76572 0.26296 0.18291 0.0
H1962 H 0.78511 0.23871 0.2407 0.0
H1963 H 0.8081 0.24313 0.22706 0.0
H1964 H 0.70412 0.7173 0.7249 0.0
H1965 H 0.72682 0.72188 0.74304 0.0
H1966 H 0.71984 0.76341 0.73079 0.0
H1967 H 0.69724 0.75899 0.71305 0.0
H1968 H 0.7471 0.73562 0.70717 0.0
H1969 H 0.73371 0.76044 0.83145 0.0
H1970 H 0.72222 0.75049 0.80709 0.0
H1971 H 0.72567 0.76705 0.79347 0.0
C1972 C 0.70744 0.7274 0.72599 0.0
C1973 C 0.69884 0.73778 0.71778 0.0
C1974 C 0.72039 0.73 0.73638 0.0
C1975 C 0.72492 0.743 0.73893 0.0
C1976 C 0.71646 0.75333 0.7298 0.0
H1977 H 0.79848 0.78111 0.79458 0.0
H1978 H 0.77581 0.77597 0.77748 0.0
C1979 C 0.70356 0.75076 0.71944 0.0
C1980 C 0.7385 0.74585 0.7508 0.0
H1981 H 0.75606 0.76198 0.81375 0.0
C1982 C 0.74908 0.7413 0.73059 0.0
C1983 C 0.74104 0.75332 0.78131 0.0
C1984 C 0.73008 0.75802 0.80481 0.0
C1985 C 0.76213 0.74426 0.73964 0.0
C1986 C 0.76467 0.75176 0.77009 0.0
C1987 C 0.75409 0.75627 0.79037 0.0
C1988 C 0.77825 0.7549 0.78151 0.0
C1989 C 0.77308 0.73959 0.71606 0.0
C1990 C 0.78701 0.74478 0.79027 0.0
C1991 C 0.79992 0.74768 0.80001 0.0
C1992 C 0.80433 0.76077 0.80144 0.0
C1993 C 0.79541 0.77093 0.79367 0.0
C1994 C 0.78247 0.76801 0.78387 0.0
H1995 H 0.76942 0.73706 0.68952 0.0
H1996 H 0.78086 0.74719 0.7135 0.0
H1997 H 0.7776 0.73064 0.72751 0.0
H1998 H 0.78387 0.73462 0.78943 0.0
H1999 H 0.80649 0.73961 0.80609 0.0
H2000 H 0.53147 0.54839 0.54649 0.0
H2001 H 0.52734 0.52574 0.52754 0.0
H2002 H 0.48556 0.53233 0.53564 0.0
H2003 H 0.48955 0.55491 0.55413 0.0
H2004 H 0.51353 0.50552 0.56244 0.0
H2005 H 0.48979 0.51811 0.43596 0.0
H2006 H 0.49924 0.52985 0.46088 0.0
H2007 H 0.48261 0.52609 0.47325 0.0
C2008 C 0.52141 0.54501 0.5442 0.0
C2009 C 0.51084 0.55348 0.55161 0.0
C2010 C 0.51907 0.53208 0.53337 0.0
C2011 C 0.50614 0.52744 0.52958 0.0
C2012 C 0.4956 0.5358 0.53763 0.0
H2013 H 0.47087 0.4527 0.47034 0.0
H2014 H 0.47486 0.47541 0.48908 0.0
C2015 C 0.49792 0.54869 0.54841 0.0
C2016 C 0.50361 0.5138 0.51782 0.0
H2017 H 0.4886 0.49579 0.45384 0.0
C2018 C 0.50815 0.50338 0.5386 0.0
C2019 C 0.49652 0.51105 0.48679 0.0
C2020 C 0.49185 0.52185 0.46272 0.0
C2021 C 0.50561 0.49026 0.52948 0.0
C2022 C 0.49853 0.48751 0.49845 0.0
C2023 C 0.49398 0.49793 0.47768 0.0
C2024 C 0.49607 0.47387 0.48664 0.0
C2025 C 0.5103 0.47946 0.55352 0.0
C2026 C 0.50665 0.4656 0.4784 0.0
C2027 C 0.50441 0.45268 0.46773 0.0
C2028 C 0.49152 0.44777 0.46485 0.0
C2029 C 0.4809 0.45616 0.47239 0.0
C2030 C 0.48317 0.46913 0.48309 0.0
H2031 H 0.51238 0.48319 0.58027 0.0
H2032 H 0.50291 0.47146 0.55539 0.0
H2033 H 0.51953 0.47522 0.54293 0.0
H2034 H 0.51666 0.46915 0.48022 0.0
H2035 H 0.51282 0.44653 0.4619 0.0
H2036 H 0.0112 0.4485 0.0479 0.0
H2037 H 0.01501 0.47117 0.02988 0.0
H2038 H 0.97316 0.47769 0.0241 0.0
H2039 H 0.96922 0.45497 0.04264 0.0
H2040 H 0.00709 0.48309 0.96779 0.0
H2041 H 0.986 0.50869 0.08327 0.0
H2042 H 0.98994 0.4914 0.08363 0.0
H2043 H 0.97518 0.49709 0.06267 0.0
C2044 C 0.00278 0.45476 0.04309 0.0
C2045 C 0.98989 0.44992 0.04682 0.0
C2046 C 0.00499 0.46772 0.03272 0.0
C2047 C 0.99439 0.47616 0.02598 0.0
C2048 C 0.98149 0.47141 0.02978 0.0
H2049 H 0.98989 0.55743 0.95828 0.0
H2050 H 0.98526 0.53467 0.97426 0.0
C2051 C 0.97926 0.45841 0.04024 0.0
C2052 C 0.99692 0.48977 0.01391 0.0
H2053 H 0.99253 0.52201 0.03555 0.0
C2054 C 0.00393 0.49161 0.98261 0.0
C2055 C 0.99278 0.50085 0.03329 0.0
C2056 C 0.98565 0.49947 0.06774 0.0
C2057 C 0.00679 0.50425 0.96997 0.0
C2058 C 0.00272 0.51533 0.98947 0.0
C2059 C 0.99564 0.51349 0.02065 0.0
C2060 C 0.00569 0.52894 0.97807 0.0
C2061 C 0.01394 0.50562 0.93555 0.0
C2062 C 0.01874 0.53329 0.97486 0.0
C2063 C 0.02145 0.54632 0.96559 0.0
C2064 C 0.01113 0.55526 0.95966 0.0
C2065 C 0.99808 0.55082 0.96263 0.0
C2066 C 0.9954 0.53781 0.97182 0.0
H2067 H 0.01327 0.49651 0.91964 0.0
H2068 H 0.00992 0.51393 0.92002 0.0
H2069 H 0.02449 0.5076 0.94068 0.0
H2070 H 0.02685 0.52668 0.98022 0.0
H2071 H 0.03161 0.54944 0.96375 0.0
H2072 H 0.49204 0.44579 0.96862 0.0
H2073 H 0.48806 0.46838 0.98706 0.0
H2074 H 0.52961 0.47651 0.98098 0.0
H2075 H 0.53371 0.45386 0.96203 0.0
H2076 H 0.4979 0.48089 0.04633 0.0
H2077 H 0.51323 0.50675 0.92494 0.0
H2078 H 0.50997 0.48932 0.92611 0.0
H2079 H 0.52526 0.49564 0.94257 0.0
C2080 C 0.50036 0.45238 0.97091 0.0
C2081 C 0.51321 0.44801 0.96373 0.0
C2082 C 0.49804 0.4653 0.98153 0.0
C2083 C 0.5085 0.47417 0.98506 0.0
C2084 C 0.52136 0.46989 0.97782 0.0
H2085 H 0.51358 0.55541 0.05086 0.0
H2086 H 0.51786 0.53282 0.03277 0.0
C2087 C 0.52369 0.45693 0.96713 0.0
C2088 C 0.50591 0.48774 0.99745 0.0
H2089 H 0.50826 0.52003 0.97407 0.0
C2090 C 0.50013 0.48946 0.03051 0.0
C2091 C 0.50882 0.49888 0.97675 0.0
C2092 C 0.51456 0.49762 0.94049 0.0
C2093 C 0.49736 0.50204 0.04368 0.0
C2094 C 0.50024 0.51319 0.02294 0.0
C2095 C 0.50605 0.51147 0.98991 0.0
C2096 C 0.4975 0.52675 0.03517 0.0
C2097 C 0.49164 0.50329 0.07996 0.0
C2098 C 0.4846 0.53087 0.04251 0.0
C2099 C 0.4821 0.54381 0.05302 0.0
C2100 C 0.49246 0.55289 0.0561 0.0
C2101 C 0.50536 0.54869 0.04881 0.0
C2102 C 0.50784 0.53578 0.03839 0.0
H2103 H 0.49313 0.49421 0.09562 0.0
H2104 H 0.4961 0.51169 0.0942 0.0
H2105 H 0.4809 0.50508 0.07792 0.0
H2106 H 0.47643 0.52413 0.03955 0.0
H2107 H 0.47205 0.54675 0.05819 0.0
H2108 H 0.99921 0.45484 0.59293 0.0
H2109 H 0.99412 0.47687 0.57135 0.0
H2110 H 0.02959 0.47662 0.5095 0.0
H2111 H 0.03468 0.45447 0.53053 0.0
H2112 H 0.00805 0.50038 0.57482 0.0
H2113 H 1.00102 0.48456 0.43702 0.0
H2114 H 0.00192 0.47304 0.47289 0.0
H2115 H 0.01668 0.4802 0.45539 0.0
C2116 C 0.00599 0.45948 0.57489 0.0
C2117 C 0.01731 0.45284 0.56323 0.0
C2118 C 0.00305 0.47208 0.56258 0.0
C2119 C 0.01133 0.47827 0.53829 0.0
C2120 C 0.02291 0.4719 0.52763 0.0
H2121 H 0.00985 0.55315 0.43104 0.0
H2122 H 0.01486 0.53116 0.45302 0.0
C2123 C 0.02586 0.45928 0.5399 0.0
C2124 C 0.00775 0.49134 0.52392 0.0
H2125 H 1.00041 0.50747 0.44794 0.0
C2126 C 0.00633 0.50193 0.5471 0.0
C2127 C 0.00546 0.49331 0.48775 0.0
C2128 C 0.00622 0.48217 0.4618 0.0
C2129 C 0.00296 0.51453 0.53501 0.0
C2130 C 1.00072 0.5165 0.49883 0.0
C2131 C 0.00212 0.50591 0.47566 0.0
C2132 C 0.99724 0.52958 0.48444 0.0
C2133 C 0.0021 0.52567 0.56092 0.0
C2134 C 0.98549 0.53585 0.49412 0.0
C2135 C 0.98256 0.54844 0.48155 0.0
C2136 C 0.99134 0.55495 0.45899 0.0
C2137 C 0.00289 0.54845 0.44848 0.0
C2138 C 0.00579 0.53587 0.46101 0.0
H2139 H 0.00701 0.52322 0.58607 0.0
H2140 H 0.00665 0.53473 0.55011 0.0
H2141 H 0.99161 0.52781 0.56651 0.0
H2142 H 0.97864 0.53105 0.51166 0.0
H2143 H 0.97357 0.55315 0.49006 0.0
H2144 H 0.05288 0.13956 0.07764 0.0
H2145 H 0.07332 0.15092 0.09113 0.0
H2146 H 0.09377 0.11384 0.09599 0.0
H2147 H 0.07315 0.10227 0.08315 0.0
H2148 H 0.10013 0.12973 0.15075 0.0
H2149 H 0.10421 0.15779 0.02746 0.0
H2150 H 0.08852 0.16031 0.04773 0.0
H2151 H 0.093 0.14417 0.03248 0.0
C2152 C 0.06172 0.13378 0.0813 0.0
C2153 C 0.06138 0.11999 0.07911 0.0
C2154 C 0.07344 0.14032 0.0888 0.0
C2155 C 0.08514 0.13327 0.09383 0.0
C2156 C 0.08487 0.11949 0.09189 0.0
H2157 H 0.15595 0.18191 0.10954 0.0
H2158 H 0.14134 0.16395 0.09239 0.0
C2159 C 0.07309 0.1129 0.08452 0.0
C2160 C 0.09746 0.14038 0.10252 0.0
H2161 H 0.11637 0.16629 0.07659 0.0
C2162 C 0.10382 0.13759 0.13429 0.0
C2163 C 0.10248 0.15044 0.08072 0.0
C2164 C 0.09678 0.15325 0.04502 0.0
C2165 C 0.11458 0.14511 0.14577 0.0
C2166 C 0.11889 0.15588 0.12529 0.0
C2167 C 0.113 0.15816 0.09259 0.0
C2168 C 0.12882 0.16547 0.13804 0.0
C2169 C 0.12115 0.14145 0.1798 0.0
C2170 C 0.1268 0.17219 0.16967 0.0
C2171 C 0.13521 0.18237 0.17971 0.0
C2172 C 0.1457 0.18621 0.158 0.0
C2173 C 0.14796 0.17921 0.12685 0.0
C2174 C 0.1396 0.16894 0.11698 0.0
H2175 H 0.12012 0.13078 0.18525 0.0
H2176 H 0.13177 0.14399 0.1796 0.0
H2177 H 0.11634 0.14684 0.20155 0.0
H2178 H 0.11837 0.16997 0.18594 0.0
H2179 H 0.13312 0.1876 0.20376 0.0
H2180 H 0.15098 0.82555 0.3301 0.0
H2181 H 0.13827 0.84561 0.34176 0.0
H2182 H 0.10442 0.82207 0.36797 0.0
H2183 H 0.11686 0.80214 0.35602 0.0
H2184 H 0.09878 0.84239 0.32204 0.0
H2185 H 0.12681 0.86018 0.43775 0.0
H2186 H 0.1362 0.857 0.39878 0.0
H2187 H 0.12838 0.84364 0.42128 0.0
C2188 C 0.14084 0.82467 0.33841 0.0
C2189 C 0.13494 0.81224 0.34213 0.0
C2190 C 0.13362 0.83613 0.34525 0.0
C2191 C 0.12044 0.83532 0.35609 0.0
C2192 C 0.11458 0.82293 0.35969 0.0
H2193 H 0.0644 0.88446 0.45726 0.0
H2194 H 0.08243 0.86975 0.44139 0.0
C2195 C 0.12173 0.81153 0.35283 0.0
C2196 C 0.11245 0.84724 0.363 0.0
H2197 H 0.10862 0.87288 0.4198 0.0
C2198 C 0.101 0.84915 0.34316 0.0
C2199 C 0.11533 0.85596 0.39079 0.0
C2200 C 0.12729 0.85411 0.41364 0.0
C2201 C 0.09213 0.8593 0.35091 0.0
C2202 C 0.09495 0.86799 0.37885 0.0
C2203 C 0.10656 0.86628 0.39822 0.0
C2204 C 0.08538 0.87817 0.38998 0.0
C2205 C 0.07953 0.86023 0.33016 0.0
C2206 C 0.08139 0.88813 0.36688 0.0
C2207 C 0.071 0.89651 0.37576 0.0
C2208 C 0.06451 0.89515 0.40808 0.0
C2209 C 0.06913 0.88574 0.4321 0.0
C2210 C 0.07946 0.87733 0.42309 0.0
H2211 H 0.07759 0.85115 0.31489 0.0
H2212 H 0.07101 0.86206 0.34767 0.0
H2213 H 0.08024 0.86854 0.31146 0.0
H2214 H 0.086 0.88913 0.34147 0.0
H2215 H 0.06778 0.90374 0.3568 0.0
H2216 H 0.37115 0.81444 0.70638 0.0
H2217 H 0.38584 0.83214 0.68872 0.0
H2218 H 0.35593 0.84751 0.61993 0.0
H2219 H 0.34117 0.82961 0.63703 0.0
H2220 H 0.37907 0.84446 0.58665 0.0
H2221 H 0.38788 0.87085 0.71064 0.0
H2222 H 0.39074 0.85356 0.71561 0.0
H2223 H 0.37447 0.8594 0.70524 0.0
C2224 C 0.36757 0.8217 0.68794 0.0
C2225 C 0.35497 0.82056 0.67304 0.0
C2226 C 0.37598 0.8319 0.67807 0.0
C2227 C 0.37194 0.84128 0.65337 0.0
C2228 C 0.35922 0.84043 0.63922 0.0
H2229 H 0.42992 0.9026 0.59898 0.0
H2230 H 0.40893 0.89245 0.61579 0.0
C2231 C 0.35079 0.8302 0.64907 0.0
C2232 C 0.38152 0.85106 0.63983 0.0
H2233 H 0.40468 0.87325 0.66609 0.0
C2234 C 0.38449 0.85094 0.60395 0.0
C2235 C 0.38847 0.8597 0.6622 0.0
C2236 C 0.38512 0.861 0.7005 0.0
C2237 C 0.39477 0.85857 0.59025 0.0
C2238 C 0.40244 0.86634 0.61315 0.0
C2239 C 0.39892 0.86714 0.64862 0.0
C2240 C 0.41479 0.87274 0.60142 0.0
C2241 C 0.39749 0.85801 0.55146 0.0
C2242 C 0.42506 0.86503 0.58806 0.0
C2243 C 0.43698 0.87076 0.57848 0.0
C2244 C 0.43898 0.88435 0.58229 0.0
C2245 C 0.42867 0.89211 0.59557 0.0
C2246 C 0.41669 0.88634 0.60523 0.0
H2247 H 0.38848 0.85541 0.53653 0.0
H2248 H 0.40129 0.86754 0.54159 0.0
H2249 H 0.40497 0.85032 0.54625 0.0
H2250 H 0.42394 0.85448 0.58568 0.0
H2251 H 0.44471 0.86446 0.56853 0.0
H2252 H 0.45459 0.13838 0.91036 0.0
H2253 H 0.43397 0.15007 0.90118 0.0
H2254 H 0.41222 0.11505 0.92725 0.0
H2255 H 0.43296 0.10313 0.93637 0.0
H2256 H 0.40318 0.12836 0.86578 0.0
H2257 H 0.40839 0.16234 0.97807 0.0
H2258 H 0.42268 0.16198 0.95049 0.0
H2259 H 0.41793 0.14744 0.97408 0.0
C2260 C 0.44545 0.13312 0.91431 0.0
C2261 C 0.44543 0.11982 0.92429 0.0
C2262 C 0.43365 0.13986 0.90919 0.0
C2263 C 0.42157 0.13349 0.91407 0.0
C2264 C 0.42146 0.12016 0.9236 0.0
H2265 H 0.3517 0.18367 0.91419 0.0
H2266 H 0.36681 0.16586 0.92941 0.0
C2267 C 0.4333 0.11339 0.92885 0.0
C2268 C 0.40916 0.14083 0.90842 0.0
H2269 H 0.39304 0.16866 0.93359 0.0
C2270 C 0.40083 0.13706 0.88091 0.0
C2271 C 0.40599 0.15205 0.92854 0.0
C2272 C 0.41415 0.15613 0.95968 0.0
C2273 C 0.38979 0.14465 0.87179 0.0
C2274 C 0.38716 0.15639 0.89039 0.0
C2275 C 0.3951 0.15973 0.91909 0.0
C2276 C 0.37679 0.16581 0.87941 0.0
C2277 C 0.38113 0.14009 0.84215 0.0
C2278 C 0.37724 0.17158 0.84604 0.0
C2279 C 0.36859 0.18174 0.8372 0.0
C2280 C 0.35941 0.18643 0.86172 0.0
C2281 C 0.35865 0.18031 0.89468 0.0
C2282 C 0.36729 0.17013 0.90346 0.0
H2283 H 0.38173 0.12927 0.83871 0.0
H2284 H 0.3707 0.14286 0.8466 0.0
H2285 H 0.38449 0.14474 0.81744 0.0
H2286 H 0.38467 0.16865 0.82731 0.0
H2287 H 0.36948 0.18626 0.81164 0.0
H2288 H 0.85312 0.82087 0.84481 0.0
H2289 H 0.8652 0.84067 0.86248 0.0
H2290 H 0.90166 0.82228 0.83201 0.0
H2291 H 0.88976 0.80272 0.81383 0.0
H2292 H 0.88372 0.84257 0.91324 0.0
H2293 H 0.90556 0.85802 0.78764 0.0
H2294 H 0.89219 0.84639 0.79005 0.0
H2295 H 0.90894 0.84103 0.79603 0.0
C2296 C 0.86369 0.82115 0.84134 0.0
C2297 C 0.87047 0.81022 0.82784 0.0
C2298 C 0.87057 0.83246 0.85149 0.0
C2299 C 0.88431 0.83305 0.84801 0.0
C2300 C 0.89103 0.82221 0.83409 0.0
H2301 H 0.94528 0.86663 0.96554 0.0
H2302 H 0.92618 0.855 0.94299 0.0
C2303 C 0.8842 0.81096 0.82395 0.0
C2304 C 0.89189 0.84446 0.86143 0.0
H2305 H 0.91716 0.86499 0.83995 0.0
C2306 C 0.89085 0.84767 0.89706 0.0
C2307 C 0.901 0.85133 0.84025 0.0
C2308 C 0.90188 0.84911 0.80129 0.0
C2309 C 0.89933 0.85687 0.91254 0.0
C2310 C 0.90929 0.86279 0.89201 0.0
C2311 C 0.90968 0.8603 0.85588 0.0
C2312 C 0.92012 0.87056 0.90786 0.0
C2313 C 0.89769 0.85994 0.95091 0.0
C2314 C 0.92325 0.88316 0.89529 0.0
C2315 C 0.93433 0.88982 0.90793 0.0
C2316 C 0.94252 0.88396 0.93318 0.0
C2317 C 0.93917 0.87148 0.94623 0.0
C2318 C 0.92815 0.86484 0.93356 0.0
H2319 H 0.8873 0.85866 0.95926 0.0
H2320 H 0.90379 0.85305 0.96651 0.0
H2321 H 0.90081 0.87014 0.95701 0.0
H2322 H 0.91726 0.88772 0.87524 0.0
H2323 H 0.93665 0.8994 0.89725 0.0
H2324 H 0.93582 0.10587 0.6186 0.0
H2325 H 0.91751 0.11893 0.64135 0.0
H2326 H 0.92038 0.14488 0.55233 0.0
H2327 H 0.93894 0.13215 0.53016 0.0
H2328 H 0.92122 0.15823 0.61088 0.0
H2329 H 0.87921 0.12379 0.61869 0.0
H2330 H 0.89352 0.11768 0.6408 0.0
H2331 H 0.89393 0.12011 0.59414 0.0
C2332 C 0.93234 0.11419 0.6035 0.0
C2333 C 0.93887 0.11804 0.57271 0.0
C2334 C 0.92181 0.12161 0.61643 0.0
C2335 C 0.91746 0.13284 0.59842 0.0
C2336 C 0.92355 0.13626 0.56671 0.0
H2337 H 0.8533 0.18604 0.65521 0.0
H2338 H 0.86624 0.16832 0.62849 0.0
C2339 C 0.93417 0.12898 0.55406 0.0
C2340 C 0.90775 0.14194 0.61452 0.0
H2341 H 0.87715 0.14387 0.65132 0.0
C2342 C 0.91154 0.15508 0.61937 0.0
C2343 C 0.89507 0.1379 0.62543 0.0
C2344 C 0.89013 0.12413 0.61919 0.0
C2345 C 0.90316 0.1642 0.63534 0.0
C2346 C 0.89074 0.16002 0.6478 0.0
C2347 C 0.88676 0.14699 0.64223 0.0
C2348 C 0.88192 0.16919 0.66671 0.0
C2349 C 0.90766 0.17829 0.63842 0.0
C2350 C 0.88617 0.17513 0.69784 0.0
C2351 C 0.8789 0.18528 0.71289 0.0
C2352 C 0.86712 0.18958 0.6974 0.0
C2353 C 0.86235 0.18295 0.6677 0.0
C2354 C 0.86973 0.17284 0.65241 0.0
H2355 H 0.91559 0.1806 0.61936 0.0
H2356 H 0.89938 0.18521 0.63408 0.0
H2357 H 0.91162 0.17998 0.6651 0.0
H2358 H 0.89541 0.17225 0.70971 0.0
H2359 H 0.88275 0.19007 0.73604 0.0
H2360 H 0.61774 0.19118 0.28419 0.0
H2361 H 0.605 0.17315 0.30926 0.0
H2362 H 0.63727 0.16357 0.37784 0.0
H2363 H 0.65021 0.18158 0.35266 0.0
H2364 H 0.62351 0.14106 0.34799 0.0
H2365 H 0.59011 0.17741 0.40987 0.0
H2366 H 0.59209 0.17948 0.36347 0.0
H2367 H 0.60593 0.18187 0.39202 0.0
C2368 C 0.62223 0.18514 0.30426 0.0
C2369 C 0.63494 0.18792 0.31671 0.0
C2370 C 0.61491 0.17486 0.31862 0.0
C2371 C 0.62011 0.1672 0.34584 0.0
C2372 C 0.63307 0.16943 0.35697 0.0
H2373 H 0.56864 0.12363 0.48598 0.0
H2374 H 0.5866 0.13703 0.46292 0.0
C2375 C 0.64044 0.17971 0.34252 0.0
C2376 C 0.61166 0.15751 0.36407 0.0
H2377 H 0.58343 0.15511 0.41192 0.0
C2378 C 0.61478 0.1441 0.36218 0.0
C2379 C 0.60043 0.16154 0.38308 0.0
C2380 C 0.59697 0.17587 0.3876 0.0
C2381 C 0.60669 0.13456 0.37787 0.0
C2382 C 0.59512 0.13857 0.3955 0.0
C2383 C 0.59226 0.15202 0.39825 0.0
C2384 C 0.58554 0.12909 0.41047 0.0
C2385 C 0.61063 0.1203 0.37561 0.0
C2386 C 0.5791 0.12 0.38882 0.0
C2387 C 0.56885 0.11228 0.40197 0.0
C2388 C 0.56474 0.1136 0.43696 0.0
C2389 C 0.57153 0.12237 0.4589 0.0
C2390 C 0.58181 0.13005 0.44576 0.0
H2391 H 0.62136 0.11921 0.37095 0.0
H2392 H 0.60799 0.11492 0.39991 0.0
H2393 H 0.60539 0.11565 0.35337 0.0
H2394 H 0.5816 0.11929 0.36133 0.0
H2395 H 0.5638 0.10568 0.38428 0.0
H2396 H 0.55651 0.86289 0.06737 0.0
H2397 H 0.5769 0.85272 0.08715 0.0
H2398 H 0.59142 0.89049 0.12042 0.0
H2399 H 0.57086 0.90082 0.10092 0.0
H2400 H 0.60316 0.85765 0.0676 0.0
H2401 H 0.5943 0.86731 0.20909 0.0
H2402 H 0.58148 0.86887 0.17666 0.0
H2403 H 0.59394 0.88128 0.18026 0.0
C2404 C 0.56403 0.86909 0.07876 0.0
C2405 C 0.56201 0.88267 0.08278 0.0
C2406 C 0.5757 0.86324 0.08999 0.0
C2407 C 0.5856 0.87081 0.10563 0.0
C2408 C 0.58381 0.88444 0.10889 0.0
H2409 H 0.66059 0.83043 0.15127 0.0
H2410 H 0.6453 0.84782 0.13333 0.0
C2411 C 0.5721 0.89033 0.09756 0.0
C2412 C 0.59759 0.86419 0.11903 0.0
H2413 H 0.61301 0.85491 0.19455 0.0
C2414 C 0.60546 0.8572 0.09529 0.0
C2415 C 0.60046 0.86355 0.15522 0.0
C2416 C 0.59209 0.87056 0.18195 0.0
C2417 C 0.61585 0.84921 0.10684 0.0
C2418 C 0.61856 0.84835 0.14311 0.0
C2419 C 0.61096 0.85568 0.16676 0.0
C2420 C 0.62824 0.83879 0.15714 0.0
C2421 C 0.62338 0.8412 0.08031 0.0
C2422 C 0.62382 0.82826 0.17768 0.0
C2423 C 0.6325 0.81838 0.1881 0.0
C2424 C 0.64582 0.81883 0.17825 0.0
C2425 C 0.65038 0.82974 0.15914 0.0
C2426 C 0.64165 0.83965 0.14869 0.0
H2427 H 0.61854 0.84121 0.05425 0.0
H2428 H 0.63339 0.84538 0.0772 0.0
H2429 H 0.62443 0.83088 0.08928 0.0
H2430 H 0.61352 0.82743 0.1846 0.0
H2431 H 0.62866 0.81017 0.20299 0.0
H2432 H 0.55134 0.63051 0.64823 0.0
H2433 H 0.57235 0.64132 0.65884 0.0
H2434 H 0.59105 0.61597 0.58344 0.0
H2435 H 0.56992 0.60497 0.57253 0.0
H2436 H 0.59766 0.62888 0.68009 0.0
H2437 H 0.5991 0.65504 0.55186 0.0
H2438 H 0.58397 0.64859 0.56971 0.0
H2439 H 0.59604 0.63761 0.552 0.0
C2440 C 0.55989 0.62718 0.63386 0.0
C2441 C 0.55893 0.61691 0.60938 0.0
C2442 C 0.57191 0.63335 0.64008 0.0
C2443 C 0.5832 0.62949 0.6218 0.0
C2444 C 0.58239 0.61914 0.59762 0.0
H2445 H 0.65596 0.67588 0.62426 0.0
H2446 H 0.6407 0.65781 0.61244 0.0
C2447 C 0.57033 0.61286 0.5915 0.0
C2448 C 0.59568 0.63662 0.62791 0.0
H2449 H 0.61542 0.66032 0.59283 0.0
C2450 C 0.60168 0.63563 0.66088 0.0
C2451 C 0.60092 0.64533 0.6027 0.0
C2452 C 0.59471 0.64683 0.56706 0.0
C2453 C 0.61257 0.64343 0.6697 0.0
C2454 C 0.61736 0.6527 0.6452 0.0
C2455 C 0.61173 0.65324 0.61164 0.0
C2456 C 0.62739 0.66269 0.65466 0.0
C2457 C 0.61875 0.64172 0.70531 0.0
C2458 C 0.62504 0.67139 0.68247 0.0
C2459 C 0.63376 0.68167 0.68941 0.0
C2460 C 0.64494 0.68359 0.66836 0.0
C2461 C 0.64745 0.67468 0.64102 0.0
C2462 C 0.63873 0.66435 0.63418 0.0
H2463 H 0.61724 0.63159 0.7154 0.0
H2464 H 0.62946 0.64381 0.70464 0.0
H2465 H 0.61403 0.6486 0.72401 0.0
H2466 H 0.61619 0.67055 0.69808 0.0
H2467 H 0.63146 0.68838 0.71054 0.0
H2468 H 0.55611 0.3636 0.94766 0.0
H2469 H 0.57636 0.35243 0.93145 0.0
H2470 H 0.59262 0.38902 0.89448 0.0
H2471 H 0.5721 0.40032 0.90997 0.0
H2472 H 0.59655 0.3695 0.84805 0.0
H2473 H 0.61164 0.35213 0.97884 0.0
H2474 H 0.59509 0.34723 0.96945 0.0
H2475 H 0.59905 0.36444 0.97286 0.0
C2476 C 0.56401 0.36935 0.93643 0.0
C2477 C 0.56249 0.38288 0.93024 0.0
C2478 C 0.57566 0.36294 0.92739 0.0
C2479 C 0.58614 0.36992 0.91243 0.0
C2480 C 0.5847 0.38346 0.90629 0.0
H2481 H 0.65781 0.32303 0.88291 0.0
H2482 H 0.64358 0.34147 0.89914 0.0
C2483 C 0.57298 0.3899 0.9152 0.0
C2484 C 0.5982 0.3628 0.90138 0.0
H2485 H 0.62047 0.34006 0.92965 0.0
C2486 C 0.60194 0.36324 0.86602 0.0
C2487 C 0.60545 0.35485 0.92488 0.0
C2488 C 0.60269 0.35475 0.96369 0.0
C2489 C 0.61216 0.35531 0.85315 0.0
C2490 C 0.6186 0.34647 0.87609 0.0
C2491 C 0.61542 0.34667 0.91186 0.0
C2492 C 0.62792 0.33628 0.86336 0.0
C2493 C 0.61585 0.35643 0.81502 0.0
C2494 C 0.62393 0.32727 0.83765 0.0
C2495 C 0.63207 0.31682 0.8281 0.0
C2496 C 0.64432 0.31499 0.84451 0.0
C2497 C 0.64844 0.32416 0.86974 0.0
C2498 C 0.64031 0.3347 0.87908 0.0
H2499 H 0.61379 0.36644 0.80483 0.0
H2500 H 0.62642 0.35418 0.81074 0.0
H2501 H 0.60987 0.3494 0.79958 0.0
H2502 H 0.61428 0.32802 0.82584 0.0
H2503 H 0.62853 0.3099 0.80877 0.0
H2504 H 0.84451 0.32805 0.14255 0.0
H2505 H 0.8595 0.34542 0.12296 0.0
H2506 H 0.89045 0.32887 0.18635 0.0
H2507 H 0.87553 0.31175 0.20669 0.0
H2508 H 0.89026 0.35563 0.18914 0.0
H2509 H 0.88808 0.33848 0.05111 0.0
H2510 H 0.87255 0.34308 0.06985 0.0
H2511 H 0.88128 0.32909 0.08681 0.0
C2512 C 0.85447 0.3282 0.15264 0.0
C2513 C 0.85885 0.31842 0.17592 0.0
C2514 C 0.86304 0.33809 0.14122 0.0
C2515 C 0.87617 0.33828 0.1526 0.0
C2516 C 0.88038 0.32888 0.17706 0.0
H2517 H 0.94747 0.36488 0.06179 0.0
H2518 H 0.92758 0.35374 0.08129 0.0
C2519 C 0.87182 0.31907 0.18863 0.0
C2520 C 0.88581 0.34782 0.13819 0.0
H2521 H 0.90189 0.35642 0.0631 0.0
C2522 C 0.89273 0.35592 0.16153 0.0
C2523 C 0.8891 0.34806 0.10218 0.0
C2524 C 0.88247 0.33915 0.076 0.0
C2525 C 0.90309 0.36397 0.15007 0.0
C2526 C 0.90643 0.36414 0.1141 0.0
C2527 C 0.89925 0.35634 0.09061 0.0
C2528 C 0.91813 0.37132 0.1008 0.0
C2529 C 0.91078 0.37169 0.17685 0.0
C2530 C 0.91935 0.38499 0.10462 0.0
C2531 C 0.93082 0.39142 0.09369 0.0
C2532 C 0.9412 0.38429 0.0784 0.0
C2533 C 0.93971 0.37068 0.07351 0.0
C2534 C 0.92831 0.36428 0.08462 0.0
H2535 H 0.90881 0.36826 0.20395 0.0
H2536 H 0.92151 0.37096 0.17179 0.0
H2537 H 0.90794 0.3822 0.17522 0.0
H2538 H 0.9115 0.39067 0.11632 0.0
H2539 H 0.93162 0.40193 0.0976 0.0
H2540 H 0.95211 0.64018 0.41413 0.0
H2541 H 0.93115 0.65104 0.40358 0.0
H2542 H 0.91056 0.61515 0.42778 0.0
H2543 H 0.93168 0.60404 0.43823 0.0
H2544 H 0.90141 0.62826 0.36624 0.0
H2545 H 0.9046 0.66218 0.47909 0.0
H2546 H 0.91911 0.66246 0.45235 0.0
H2547 H 0.91473 0.64767 0.47538 0.0
C2548 C 0.94316 0.63455 0.41737 0.0
C2549 C 0.94358 0.62124 0.42726 0.0
C2550 C 0.93116 0.64081 0.41146 0.0
C2551 C 0.9193 0.63397 0.41547 0.0
C2552 C 0.91963 0.62062 0.42481 0.0
H2553 H 0.84865 0.68299 0.41142 0.0
H2554 H 0.86367 0.66524 0.42765 0.0
C2555 C 0.93168 0.61431 0.43082 0.0
C2556 C 0.90667 0.64087 0.40925 0.0
H2557 H 0.88957 0.66822 0.43347 0.0
C2558 C 0.89868 0.63688 0.38125 0.0
C2559 C 0.90299 0.65197 0.42923 0.0
C2560 C 0.91073 0.65625 0.46092 0.0
C2561 C 0.88751 0.64416 0.37148 0.0
C2562 C 0.88441 0.65583 0.38987 0.0
C2563 C 0.89199 0.65936 0.4191 0.0
C2564 C 0.87397 0.66505 0.37808 0.0
C2565 C 0.87923 0.63934 0.34135 0.0
C2566 C 0.87458 0.6707 0.34458 0.0
C2567 C 0.86595 0.6808 0.33515 0.0
C2568 C 0.85665 0.6856 0.35923 0.0
C2569 C 0.8557 0.67956 0.39226 0.0
C2570 C 0.86429 0.66941 0.4016 0.0
H2571 H 0.88002 0.62852 0.33834 0.0
H2572 H 0.86872 0.64199 0.34489 0.0
H2573 H 0.8828 0.64391 0.31674 0.0
H2574 H 0.88214 0.66775 0.32625 0.0
H2575 H 0.86701 0.68526 0.30955 0.0
H2576 H 0.36878 0.31383 0.30975 0.0
H2577 H 0.38432 0.3312 0.32494 0.0
H2578 H 0.36724 0.33392 0.42797 0.0
H2579 H 0.35182 0.31631 0.4133 0.0
H2580 H 0.38248 0.35701 0.34878 0.0
H2581 H 0.40543 0.32439 0.44839 0.0
H2582 H 0.39362 0.31846 0.41697 0.0
H2583 H 0.38822 0.32754 0.45467 0.0
C2584 C 0.36819 0.31823 0.33551 0.0
C2585 C 0.35918 0.31353 0.36051 0.0
C2586 C 0.37708 0.32819 0.34412 0.0
C2587 C 0.37712 0.33366 0.37782 0.0
C2588 C 0.36757 0.32962 0.40206 0.0
H2589 H 0.43265 0.39716 0.43405 0.0
H2590 H 0.41207 0.38509 0.42424 0.0
C2591 C 0.35872 0.3196 0.39356 0.0
C2592 C 0.38779 0.34282 0.38813 0.0
H2593 H 0.41464 0.34538 0.44136 0.0
C2594 C 0.38945 0.35455 0.36924 0.0
C2595 C 0.39696 0.3395 0.41458 0.0
C2596 C 0.39609 0.32675 0.43467 0.0
C2597 C 0.40018 0.36292 0.37565 0.0
C2598 C 0.40937 0.35954 0.40196 0.0
C2599 C 0.40752 0.34798 0.42137 0.0
C2600 C 0.42163 0.36714 0.40773 0.0
C2601 C 0.40192 0.37501 0.35325 0.0
C2602 C 0.4338 0.36099 0.40228 0.0
C2603 C 0.44551 0.36778 0.40808 0.0
C2604 C 0.44533 0.3809 0.41955 0.0
C2605 C 0.43312 0.38708 0.42508 0.0
C2606 C 0.42136 0.38023 0.41931 0.0
H2607 H 0.39541 0.37488 0.3299 0.0
H2608 H 0.3995 0.38386 0.36892 0.0
H2609 H 0.41228 0.37592 0.34436 0.0
H2610 H 0.43425 0.35089 0.39339 0.0
H2611 H 0.45471 0.3627 0.40351 0.0
H2612 H 0.37717 0.69313 0.20281 0.0
H2613 H 0.39205 0.67548 0.18584 0.0
H2614 H 0.35938 0.65338 0.14455 0.0
H2615 H 0.34435 0.6712 0.16089 0.0
H2616 H 0.39338 0.64905 0.20248 0.0
H2617 H 0.384 0.65648 0.06034 0.0
H2618 H 0.37857 0.66805 0.09303 0.0
H2619 H 0.36981 0.65291 0.08668 0.0
C2620 C 0.37308 0.6845 0.19035 0.0
C2621 C 0.35956 0.68366 0.18285 0.0
C2622 C 0.38162 0.67438 0.18073 0.0
C2623 C 0.37686 0.66321 0.1634 0.0
C2624 C 0.3633 0.66204 0.15729 0.0
H2625 H 0.43393 0.59969 0.11897 0.0
H2626 H 0.41374 0.61072 0.13836 0.0
C2627 C 0.35471 0.6722 0.16685 0.0
C2628 C 0.38632 0.6532 0.15055 0.0
H2629 H 0.39975 0.64063 0.07577 0.0
C2630 C 0.39468 0.64706 0.17482 0.0
C2631 C 0.38806 0.65074 0.11439 0.0
C2632 C 0.37973 0.65744 0.08698 0.0
C2633 C 0.40501 0.63885 0.16387 0.0
C2634 C 0.40687 0.63655 0.12768 0.0
C2635 C 0.39824 0.64234 0.1035 0.0
C2636 C 0.41851 0.62936 0.11419 0.0
C2637 C 0.41424 0.63329 0.19102 0.0
C2638 C 0.42765 0.63602 0.09318 0.0
C2639 C 0.43909 0.62974 0.08187 0.0
C2640 C 0.44165 0.61663 0.09129 0.0
C2641 C 0.43228 0.60981 0.11142 0.0
C2642 C 0.42079 0.61612 0.1227 0.0
H2643 H 0.41295 0.63804 0.21696 0.0
H2644 H 0.41231 0.62262 0.19413 0.0
H2645 H 0.42464 0.63451 0.1827 0.0
H2646 H 0.42608 0.64622 0.08621 0.0
H2647 H 0.44604 0.63529 0.0663 0.0
H2648 H 0.0608 0.63575 0.96514 0.0
H2649 H 0.08062 0.64662 0.94404 0.0
H2650 H 0.09035 0.61247 0.88252 0.0
H2651 H 0.07027 0.60155 0.903 0.0
H2652 H 0.10682 0.64029 0.94819 0.0
H2653 H 0.09012 0.6417 0.80956 0.0
H2654 H 0.07926 0.63738 0.84506 0.0
H2655 H 0.09103 0.62566 0.82909 0.0
C2656 C 0.06716 0.63049 0.94726 0.0
C2657 C 0.06387 0.61782 0.93551 0.0
C2658 C 0.07852 0.63672 0.93527 0.0
C2659 C 0.08687 0.63045 0.91128 0.0
C2660 C 0.08391 0.6176 0.90048 0.0
H2661 H 0.16073 0.67202 0.85884 0.0
H2662 H 0.1458 0.65412 0.87531 0.0
C2663 C 0.07248 0.61135 0.91238 0.0
C2664 C 0.09836 0.63769 0.89704 0.0
H2665 H 0.11037 0.6517 0.82233 0.0
C2666 C 0.10771 0.64266 0.92061 0.0
C2667 C 0.09942 0.64085 0.86107 0.0
C2668 C 0.08939 0.63623 0.83467 0.0
C2669 C 0.11781 0.65109 0.90943 0.0
C2670 C 0.11875 0.65441 0.87353 0.0
C2671 C 0.10968 0.64906 0.84978 0.0
C2672 C 0.12808 0.66456 0.86076 0.0
C2673 C 0.12693 0.65693 0.93643 0.0
C2674 C 0.12312 0.67613 0.84578 0.0
C2675 C 0.13159 0.68628 0.83605 0.0
C2676 C 0.14524 0.6851 0.84109 0.0
C2677 C 0.15026 0.67328 0.85482 0.0
C2678 C 0.14174 0.66308 0.86446 0.0
H2679 H 0.12325 0.65542 0.96352 0.0
H2680 H 0.13672 0.65217 0.93433 0.0
H2681 H 0.12823 0.66763 0.93195 0.0
H2682 H 0.11262 0.67748 0.84255 0.0
H2683 H 0.12736 0.69519 0.82539 0.0
H2684 H 0.07231 0.40138 0.60367 0.0
H2685 H 0.09163 0.38917 0.62418 0.0
H2686 H 0.07722 0.35427 0.5731 0.0
H2687 H 0.05807 0.36635 0.55224 0.0
H2688 H 0.09098 0.36781 0.6679 0.0
H2689 H 0.11565 0.35423 0.54427 0.0
H2690 H 0.10338 0.36704 0.5466 0.0
H2691 H 0.09851 0.35008 0.54346 0.0
C2692 C 0.07339 0.39117 0.59624 0.0
C2693 C 0.06364 0.38483 0.57631 0.0
C2694 C 0.08443 0.38421 0.60803 0.0
C2695 C 0.08597 0.37086 0.59976 0.0
C2696 C 0.07641 0.36463 0.57913 0.0
H2697 H 0.11552 0.30461 0.703 0.0
H2698 H 0.10408 0.32416 0.68234 0.0
C2699 C 0.06539 0.37155 0.56744 0.0
C2700 C 0.09682 0.36301 0.61521 0.0
H2701 H 0.12028 0.34034 0.59428 0.0
C2702 C 0.09758 0.362 0.65181 0.0
C2703 C 0.10557 0.35559 0.5943 0.0
C2704 C 0.10584 0.35689 0.55498 0.0
C2705 C 0.10621 0.3531 0.66793 0.0
C2706 C 0.11415 0.34487 0.64688 0.0
C2707 C 0.11407 0.34654 0.61041 0.0
C2708 C 0.12152 0.33361 0.66183 0.0
C2709 C 0.10651 0.35234 0.70735 0.0
C2710 C 0.13514 0.33234 0.65688 0.0
C2711 C 0.14176 0.32109 0.66869 0.0
C2712 C 0.1348 0.31086 0.68515 0.0
C2713 C 0.1212 0.3123 0.69048 0.0
C2714 C 0.11464 0.32353 0.6789 0.0
H2715 H 0.10345 0.3618 0.71935 0.0
H2716 H 0.09953 0.34466 0.71624 0.0
H2717 H 0.11648 0.34976 0.71704 0.0
H2718 H 0.14061 0.33996 0.64348 0.0
H2719 H 0.15223 0.32024 0.66402 0.0
loop_
_geom_bond_atom_site_label_1
_geom_bond_atom_site_label_2
_geom_bond_distance
_geom_bond_site_symmetry_2
_ccdc_geom_bond_type
Mg0 O7 2.141 . S
Mg0 O8 2.048 . S
Mg0 O9 2.048 . S
Mg0 O12 2.141 . S
C1 O2 1.380 . S
C1 O8 1.118 1_655 S
O2 C1 1.380 . S
C3 O4 1.245 . S
C3 O12 1.289 . S
O4 C3 1.245 . S
C5 O6 1.245 . S
C5 O7 1.289 1_556 S
O6 C5 1.245 . S
O7 Mg0 2.141 . S
O7 C5 1.289 1_554 S
O8 Mg0 2.048 . S
O8 C1 1.118 1_455 S
O9 Mg0 2.048 . S
O9 C10 1.195 . S
C10 O9 1.195 . S
C10 O11 1.313 1_455 S
O11 C10 1.313 1_655 S
O12 Mg0 2.141 . S
O12 C3 1.289 . S
Mg13 O20 2.141 . S
Mg13 O21 2.048 . S
Mg13 O22 2.048 . S
Mg13 O25 2.141 . S
C14 O15 1.313 . S
C14 O21 1.195 . S
O15 C14 1.313 . S
C16 O17 1.245 . S
C16 O25 1.289 . S
O17 C16 1.245 . S
C18 O19 1.245 . S
C18 O20 1.289 . S
O19 C18 1.245 . S
O20 Mg13 2.141 . S
O20 C18 1.289 . S
O21 Mg13 2.048 . S
O21 C14 1.195 . S
O22 Mg13 2.048 . S
O22 C23 1.195 . S
C23 O22 1.195 . S
C23 O24 1.313 . S
O24 C23 1.313 . S
O25 Mg13 2.141 . S
O25 C16 1.289 . S
Mg26 O33 2.141 . S
Mg26 O34 2.048 . S
Mg26 O35 2.048 . S
Mg26 O38 2.141 . S
C27 O28 1.313 . S
C27 O34 1.195 . S
O28 C27 1.313 . S
C29 O30 1.245 . S
C29 O38 1.289 . S
O30 C29 1.245 . S
C31 O32 1.245 . S
C31 O33 1.289 . S
O32 C31 1.245 . S
O33 Mg26 2.141 . S
O33 C31 1.289 . S
O34 Mg26 2.048 . S
O34 C27 1.195 . S
O35 Mg26 2.048 . S
O35 C36 1.195 . S
C36 O35 1.195 . S
C36 O37 1.313 . S
O37 C36 1.313 . S
O38 Mg26 2.141 . S
O38 C29 1.289 . S
Mg39 O46 2.141 . S
Mg39 O47 2.048 . S
Mg39 O48 2.048 . S
Mg39 O51 2.141 . S
C40 O41 1.313 . S
C40 O47 1.195 . S
O41 C40 1.313 . S
C42 O43 1.245 . S
C42 O51 1.289 . S
O43 C42 1.245 . S
C44 O45 1.245 . S
C44 O46 1.289 . S
O45 C44 1.245 . S
O46 Mg39 2.141 . S
O46 C44 1.289 . S
O47 Mg39 2.048 . S
O47 C40 1.195 . S
O48 Mg39 2.048 . S
O48 C49 1.195 . S
C49 O48 1.195 . S
C49 O50 1.313 . S
O50 C49 1.313 . S
O51 Mg39 2.141 . S
O51 C42 1.289 . S
Mg52 O59 2.141 . S
Mg52 O60 2.048 . S
Mg52 O61 2.048 . S
Mg52 O64 2.141 . S
C53 O54 1.380 . S
C53 O60 1.118 1_655 S
O54 C53 1.380 . S
C55 O56 1.245 . S
C55 O64 1.289 . S
O56 C55 1.245 . S
C57 O58 1.245 . S
C57 O59 1.289 . S
O58 C57 1.245 . S
O59 Mg52 2.141 . S
O59 C57 1.289 . S
O60 Mg52 2.048 . S
O60 C53 1.118 1_455 S
O61 Mg52 2.048 . S
O61 C62 1.195 . S
C62 O61 1.195 . S
C62 O63 1.313 1_455 S
O63 C62 1.313 1_655 S
O64 Mg52 2.141 . S
O64 C55 1.289 . S
Mg65 O72 2.141 . S
Mg65 O73 2.048 . S
Mg65 O74 2.048 . S
Mg65 O77 2.141 . S
C66 O67 1.313 . S
C66 O73 1.195 . S
O67 C66 1.313 . S
C68 O69 1.245 . S
C68 O77 1.289 . S
O69 C68 1.245 . S
C70 O71 1.245 . S
C70 O72 1.289 . S
O71 C70 1.245 . S
O72 Mg65 2.141 . S
O72 C70 1.289 . S
O73 Mg65 2.048 . S
O73 C66 1.195 . S
O74 Mg65 2.048 . S
O74 C75 1.195 . S
C75 O74 1.195 . S
C75 O76 1.313 . S
O76 C75 1.313 . S
O77 Mg65 2.141 . S
O77 C68 1.289 . S
Mg78 O85 2.141 . S
Mg78 O86 2.048 . S
Mg78 O87 2.048 . S
Mg78 O90 2.141 . S
C79 O80 1.313 . S
C79 O86 1.195 . S
O80 C79 1.313 . S
C81 O82 1.245 . S
C81 O90 1.289 . S
O82 C81 1.245 . S
C83 O84 1.245 . S
C83 O85 1.289 1_554 S
O84 C83 1.245 . S
O85 Mg78 2.141 . S
O85 C83 1.289 1_556 S
O86 Mg78 2.048 . S
O86 C79 1.195 . S
O87 Mg78 2.048 . S
O87 C88 1.195 . S
C88 O87 1.195 . S
C88 O89 1.313 . S
O89 C88 1.313 . S
O90 Mg78 2.141 . S
O90 C81 1.289 . S
Mg91 O98 2.141 . S
Mg91 O99 2.048 . S
Mg91 O100 2.048 . S
Mg91 O103 2.141 . S
C92 O93 1.313 . S
C92 O99 1.195 . S
O93 C92 1.313 . S
C94 O95 1.245 . S
C94 O103 1.289 . S
O95 C94 1.245 . S
C96 O97 1.245 . S
C96 O98 1.289 . S
O97 C96 1.245 . S
O98 Mg91 2.141 . S
O98 C96 1.289 . S
O99 Mg91 2.048 . S
O99 C92 1.195 . S
O100 Mg91 2.048 . S
O100 C101 1.195 . S
C101 O100 1.195 . S
C101 O102 1.313 . S
O102 C101 1.313 . S
O103 Mg91 2.141 . S
O103 C94 1.289 . S
Mg104 O111 2.141 . S
Mg104 O112 2.048 . S
Mg104 O113 2.048 . S
Mg104 O116 2.141 . S
C105 O106 1.313 1_655 S
C105 O112 1.195 . S
O106 C105 1.313 1_455 S
C107 O108 1.245 . S
C107 O116 1.289 1_554 S
O108 C107 1.245 . S
C109 O110 1.245 . S
C109 O111 1.289 . S
O110 C109 1.245 . S
O111 Mg104 2.141 . S
O111 C109 1.289 . S
O112 Mg104 2.048 . S
O112 C105 1.195 . S
O113 Mg104 2.048 . S
O113 C114 1.118 1_655 S
C114 O113 1.118 1_455 S
C114 O115 1.380 . S
O115 C114 1.380 . S
O116 Mg104 2.141 . S
O116 C107 1.289 1_556 S
Mg117 O124 2.141 . S
Mg117 O125 2.048 . S
Mg117 O126 2.048 . S
Mg117 O129 2.141 . S
C118 O119 1.313 . S
C118 O125 1.195 . S
O119 C118 1.313 . S
C120 O121 1.245 . S
C120 O129 1.289 . S
O121 C120 1.245 . S
C122 O123 1.245 . S
C122 O124 1.289 . S
O123 C122 1.245 . S
O124 Mg117 2.141 . S
O124 C122 1.289 . S
O125 Mg117 2.048 . S
O125 C118 1.195 . S
O126 Mg117 2.048 . S
O126 C127 1.195 . S
C127 O126 1.195 . S
C127 O128 1.313 . S
O128 C127 1.313 . S
O129 Mg117 2.141 . S
O129 C120 1.289 . S
Mg130 O137 2.141 . S
Mg130 O138 2.048 . S
Mg130 O139 2.048 . S
Mg130 O142 2.141 . S
C131 O132 1.313 . S
C131 O138 1.195 . S
O132 C131 1.313 . S
C133 O134 1.245 . S
C133 O142 1.289 . S
O134 C133 1.245 . S
C135 O136 1.245 . S
C135 O137 1.289 . S
O136 C135 1.245 . S
O137 Mg130 2.141 . S
O137 C135 1.289 . S
O138 Mg130 2.048 . S
O138 C131 1.195 . S
O139 Mg130 2.048 . S
O139 C140 1.195 . S
C140 O139 1.195 . S
C140 O141 1.313 . S
O141 C140 1.313 . S
O142 Mg130 2.141 . S
O142 C133 1.289 . S
Mg143 O150 2.141 . S
Mg143 O151 2.048 . S
Mg143 O152 2.048 . S
Mg143 O155 2.141 . S
C144 O145 1.313 . S
C144 O151 1.195 . S
O145 C144 1.313 . S
C146 O147 1.245 . S
C146 O155 1.289 . S
O147 C146 1.245 . S
C148 O149 1.245 . S
C148 O150 1.289 . S
O149 C148 1.245 . S
O150 Mg143 2.141 . S
O150 C148 1.289 . S
O151 Mg143 2.048 . S
O151 C144 1.195 . S
O152 Mg143 2.048 . S
O152 C153 1.195 . S
C153 O152 1.195 . S
C153 O154 1.313 . S
O154 C153 1.313 . S
O155 Mg143 2.141 . S
O155 C146 1.289 . S
Mg156 O163 2.141 . S
Mg156 O164 2.048 . S
Mg156 O165 2.048 . S
Mg156 O168 2.141 . S
C157 O158 1.313 1_655 S
C157 O164 1.195 . S
O158 C157 1.313 1_455 S
C159 O160 1.245 . S
C159 O168 1.289 . S
O160 C159 1.245 . S
C161 O162 1.245 . S
C161 O163 1.289 . S
O162 C161 1.245 . S
O163 Mg156 2.141 . S
O163 C161 1.289 . S
O164 Mg156 2.048 . S
O164 C157 1.195 . S
O165 Mg156 2.048 . S
O165 C166 1.118 1_655 S
C166 O165 1.118 1_455 S
C166 O167 1.380 . S
O167 C166 1.380 . S
O168 Mg156 2.141 . S
O168 C159 1.289 . S
Mg169 O176 2.141 . S
Mg169 O177 2.048 . S
Mg169 O178 2.048 . S
Mg169 O181 2.141 . S
C170 O171 1.313 . S
C170 O177 1.195 . S
O171 C170 1.313 . S
C172 O173 1.245 . S
C172 O181 1.289 . S
O173 C172 1.245 . S
C174 O175 1.245 . S
C174 O176 1.289 . S
O175 C174 1.245 . S
O176 Mg169 2.141 . S
O176 C174 1.289 . S
O177 Mg169 2.048 . S
O177 C170 1.195 . S
O178 Mg169 2.048 . S
O178 C179 1.195 . S
C179 O178 1.195 . S
C179 O180 1.313 . S
O180 C179 1.313 . S
O181 Mg169 2.141 . S
O181 C172 1.289 . S
Mg182 O189 2.141 . S
Mg182 O190 2.048 . S
Mg182 O191 2.048 . S
Mg182 O194 2.141 . S
C183 O184 1.313 . S
C183 O190 1.195 . S
O184 C183 1.313 . S
C185 O186 1.245 . S
C185 O194 1.289 1_556 S
O186 C185 1.245 . S
C187 O188 1.245 . S
C187 O189 1.289 . S
O188 C187 1.245 . S
O189 Mg182 2.141 . S
O189 C187 1.289 . S
O190 Mg182 2.048 . S
O190 C183 1.195 . S
O191 Mg182 2.048 . S
O191 C192 1.195 . S
C192 O191 1.195 . S
C192 O193 1.313 . S
O193 C192 1.313 . S
O194 Mg182 2.141 . S
O194 C185 1.289 1_554 S
Mg195 O202 2.141 . S
Mg195 O203 2.048 . S
Mg195 O204 2.048 . S
Mg195 O207 2.141 . S
C196 O197 1.313 . S
C196 O203 1.195 . S
O197 C196 1.313 . S
C198 O199 1.245 . S
C198 O207 1.289 . S
O199 C198 1.245 . S
C200 O201 1.245 . S
C200 O202 1.289 . S
O201 C200 1.245 . S
O202 Mg195 2.141 . S
O202 C200 1.289 . S
O203 Mg195 2.048 . S
O203 C196 1.195 . S
O204 Mg195 2.048 . S
O204 C205 1.195 . S
C205 O204 1.195 . S
C205 O206 1.313 . S
O206 C205 1.313 . S
O207 Mg195 2.141 . S
O207 C198 1.289 . S
Mg208 O215 2.141 . S
Mg208 O216 2.048 . S
Mg208 O217 2.048 . S
Mg208 O220 2.141 . S
C209 O210 1.313 . S
C209 O216 1.195 . S
O210 C209 1.313 . S
C211 O212 1.245 . S
C211 O220 1.289 . S
O212 C211 1.245 . S
C213 O214 1.245 . S
C213 O215 1.289 . S
O214 C213 1.245 . S
O215 Mg208 2.141 . S
O215 C213 1.289 . S
O216 Mg208 2.048 . S
O216 C209 1.195 . S
O217 Mg208 2.048 . S
O217 C218 1.195 . S
C218 O217 1.195 . S
C218 O219 1.313 . S
O219 C218 1.313 . S
O220 Mg208 2.141 . S
O220 C211 1.289 . S
Mg221 O228 2.141 . S
Mg221 O229 2.048 . S
Mg221 O230 2.048 . S
Mg221 O233 2.141 . S
C222 O223 1.313 . S
C222 O229 1.195 . S
O223 C222 1.313 . S
C224 O225 1.245 . S
C224 O233 1.289 . S
O225 C224 1.245 . S
C226 O227 1.245 . S
C226 O228 1.289 . S
O227 C226 1.245 . S
O228 Mg221 2.141 . S
O228 C226 1.289 . S
O229 Mg221 2.048 . S
O229 C222 1.195 . S
O230 Mg221 2.048 . S
O230 C231 1.195 . S
C231 O230 1.195 . S
C231 O232 1.313 . S
O232 C231 1.313 . S
O233 Mg221 2.141 . S
O233 C224 1.289 . S
Mg234 O241 2.141 . S
Mg234 O242 2.048 . S
Mg234 O243 2.048 . S
Mg234 O246 2.141 . S
C235 O236 1.380 . S
C235 O242 1.118 1_455 S
O236 C235 1.380 . S
C237 O238 1.245 . S
C237 O246 1.289 . S
O238 C237 1.245 . S
C239 O240 1.245 . S
C239 O241 1.289 1_556 S
O240 C239 1.245 . S
O241 Mg234 2.141 . S
O241 C239 1.289 1_554 S
O242 Mg234 2.048 . S
O242 C235 1.118 1_655 S
O243 Mg234 2.048 . S
O243 C244 1.195 . S
C244 O243 1.195 . S
C244 O245 1.313 1_655 S
O245 C244 1.313 1_455 S
O246 Mg234 2.141 . S
O246 C237 1.289 . S
Mg247 O254 2.141 . S
Mg247 O255 2.048 . S
Mg247 O256 2.048 . S
Mg247 O259 2.141 . S
C248 O249 1.313 . S
C248 O255 1.195 . S
O249 C248 1.313 . S
C250 O251 1.245 . S
C250 O259 1.289 . S
O251 C250 1.245 . S
C252 O253 1.245 . S
C252 O254 1.289 . S
O253 C252 1.245 . S
O254 Mg247 2.141 . S
O254 C252 1.289 . S
O255 Mg247 2.048 . S
O255 C248 1.195 . S
O256 Mg247 2.048 . S
O256 C257 1.195 . S
C257 O256 1.195 . S
C257 O258 1.313 . S
O258 C257 1.313 . S
O259 Mg247 2.141 . S
O259 C250 1.289 . S
Mg260 O267 2.141 . S
Mg260 O268 2.048 . S
Mg260 O269 2.048 . S
Mg260 O272 2.141 . S
C261 O262 1.313 . S
C261 O268 1.195 . S
O262 C261 1.313 . S
C263 O264 1.245 . S
C263 O272 1.289 . S
O264 C263 1.245 . S
C265 O266 1.245 . S
C265 O267 1.289 1_554 S
O266 C265 1.245 . S
O267 Mg260 2.141 . S
O267 C265 1.289 1_556 S
O268 Mg260 2.048 . S
O268 C261 1.195 . S
O269 Mg260 2.048 . S
O269 C270 1.195 . S
C270 O269 1.195 . S
C270 O271 1.313 . S
O271 C270 1.313 . S
O272 Mg260 2.141 . S
O272 C263 1.289 . S
Mg273 O280 2.141 . S
Mg273 O281 2.048 . S
Mg273 O282 2.048 . S
Mg273 O285 2.141 . S
C274 O275 1.313 . S
C274 O281 1.195 . S
O275 C274 1.313 . S
C276 O277 1.245 . S
C276 O285 1.289 . S
O277 C276 1.245 . S
C278 O279 1.245 . S
C278 O280 1.289 . S
O279 C278 1.245 . S
O280 Mg273 2.141 . S
O280 C278 1.289 . S
O281 Mg273 2.048 . S
O281 C274 1.195 . S
O282 Mg273 2.048 . S
O282 C283 1.195 . S
C283 O282 1.195 . S
C283 O284 1.313 . S
O284 C283 1.313 . S
O285 Mg273 2.141 . S
O285 C276 1.289 . S
Mg286 O293 2.141 . S
Mg286 O294 2.048 . S
Mg286 O295 2.048 . S
Mg286 O298 2.141 . S
C287 O288 1.380 . S
C287 O294 1.118 1_455 S
O288 C287 1.380 . S
C289 O290 1.245 . S
C289 O298 1.289 . S
O290 C289 1.245 . S
C291 O292 1.245 . S
C291 O293 1.289 . S
O292 C291 1.245 . S
O293 Mg286 2.141 . S
O293 C291 1.289 . S
O294 Mg286 2.048 . S
O294 C287 1.118 1_655 S
O295 Mg286 2.048 . S
O295 C296 1.195 . S
C296 O295 1.195 . S
C296 O297 1.313 1_655 S
O297 C296 1.313 1_455 S
O298 Mg286 2.141 . S
O298 C289 1.289 . S
Mg299 O306 2.141 . S
Mg299 O307 2.048 . S
Mg299 O308 2.048 . S
Mg299 O311 2.141 . S
C300 O301 1.313 . S
C300 O307 1.195 . S
O301 C300 1.313 . S
C302 O303 1.245 . S
C302 O311 1.289 . S
O303 C302 1.245 . S
C304 O305 1.245 . S
C304 O306 1.289 . S
O305 C304 1.245 . S
O306 Mg299 2.141 . S
O306 C304 1.289 . S
O307 Mg299 2.048 . S
O307 C300 1.195 . S
O308 Mg299 2.048 . S
O308 C309 1.195 . S
C309 O308 1.195 . S
C309 O310 1.313 . S
O310 C309 1.313 . S
O311 Mg299 2.141 . S
O311 C302 1.289 . S
Mg312 O319 2.141 . S
Mg312 O320 2.048 . S
Mg312 O321 2.048 . S
Mg312 O324 2.141 . S
C313 O314 1.313 . S
C313 O320 1.195 . S
O314 C313 1.313 . S
C315 O316 1.245 . S
C315 O324 1.289 . S
O316 C315 1.245 . S
C317 O318 1.245 . S
C317 O319 1.289 . S
O318 C317 1.245 . S
O319 Mg312 2.141 . S
O319 C317 1.289 . S
O320 Mg312 2.048 . S
O320 C313 1.195 . S
O321 Mg312 2.048 . S
O321 C322 1.195 . S
C322 O321 1.195 . S
C322 O323 1.313 . S
O323 C322 1.313 . S
O324 Mg312 2.141 . S
O324 C315 1.289 . S
Mg325 O332 2.141 . S
Mg325 O333 2.048 . S
Mg325 O334 2.048 . S
Mg325 O337 2.141 . S
C326 O327 1.313 . S
C326 O333 1.195 . S
O327 C326 1.313 . S
C328 O329 1.245 . S
C328 O337 1.289 . S
O329 C328 1.245 . S
C330 O331 1.245 . S
C330 O332 1.289 . S
O331 C330 1.245 . S
O332 Mg325 2.141 . S
O332 C330 1.289 . S
O333 Mg325 2.048 . S
O333 C326 1.195 . S
O334 Mg325 2.048 . S
O334 C335 1.195 . S
C335 O334 1.195 . S
C335 O336 1.313 . S
O336 C335 1.313 . S
O337 Mg325 2.141 . S
O337 C328 1.289 . S
Mg338 O345 2.141 . S
Mg338 O346 2.048 . S
Mg338 O347 2.048 . S
Mg338 O350 2.141 . S
C339 O340 1.313 1_455 S
C339 O346 1.195 . S
O340 C339 1.313 1_655 S
C341 O342 1.245 . S
C341 O350 1.289 1_554 S
O342 C341 1.245 . S
C343 O344 1.245 . S
C343 O345 1.289 . S
O344 C343 1.245 . S
O345 Mg338 2.141 . S
O345 C343 1.289 . S
O346 Mg338 2.048 . S
O346 C339 1.195 . S
O347 Mg338 2.048 . S
O347 C348 1.118 1_455 S
C348 O347 1.118 1_655 S
C348 O349 1.380 . S
O349 C348 1.380 . S
O350 Mg338 2.141 . S
O350 C341 1.289 1_556 S
Mg351 O358 2.141 . S
Mg351 O359 2.048 . S
Mg351 O360 2.048 . S
Mg351 O363 2.141 . S
C352 O353 1.313 . S
C352 O359 1.195 . S
O353 C352 1.313 . S
C354 O355 1.245 . S
C354 O363 1.289 . S
O355 C354 1.245 . S
C356 O357 1.245 . S
C356 O358 1.289 . S
O357 C356 1.245 . S
O358 Mg351 2.141 . S
O358 C356 1.289 . S
O359 Mg351 2.048 . S
O359 C352 1.195 . S
O360 Mg351 2.048 . S
O360 C361 1.195 . S
C361 O360 1.195 . S
C361 O362 1.313 . S
O362 C361 1.313 . S
O363 Mg351 2.141 . S
O363 C354 1.289 . S
Mg364 O371 2.141 . S
Mg364 O372 2.048 . S
Mg364 O373 2.048 . S
Mg364 O376 2.141 . S
C365 O366 1.313 . S
C365 O372 1.195 . S
O366 C365 1.313 . S
C367 O368 1.245 . S
C367 O376 1.289 1_556 S
O368 C367 1.245 . S
C369 O370 1.245 . S
C369 O371 1.289 . S
O370 C369 1.245 . S
O371 Mg364 2.141 . S
O371 C369 1.289 . S
O372 Mg364 2.048 . S
O372 C365 1.195 . S
O373 Mg364 2.048 . S
O373 C374 1.195 . S
C374 O373 1.195 . S
C374 O375 1.313 . S
O375 C374 1.313 . S
O376 Mg364 2.141 . S
O376 C367 1.289 1_554 S
Mg377 O384 2.141 . S
Mg377 O385 2.048 . S
Mg377 O386 2.048 . S
Mg377 O389 2.141 . S
C378 O379 1.313 . S
C378 O385 1.195 . S
O379 C378 1.313 . S
C380 O381 1.245 . S
C380 O389 1.289 . S
O381 C380 1.245 . S
C382 O383 1.245 . S
C382 O384 1.289 . S
O383 C382 1.245 . S
O384 Mg377 2.141 . S
O384 C382 1.289 . S
O385 Mg377 2.048 . S
O385 C378 1.195 . S
O386 Mg377 2.048 . S
O386 C387 1.195 . S
C387 O386 1.195 . S
C387 O388 1.313 . S
O388 C387 1.313 . S
O389 Mg377 2.141 . S
O389 C380 1.289 . S
Mg390 O397 2.141 . S
Mg390 O398 2.048 . S
Mg390 O399 2.048 . S
Mg390 O402 2.141 . S
C391 O392 1.313 1_455 S
C391 O398 1.195 . S
O392 C391 1.313 1_655 S
C393 O394 1.245 . S
C393 O402 1.289 . S
O394 C393 1.245 . S
C395 O396 1.245 . S
C395 O397 1.289 . S
O396 C395 1.245 . S
O397 Mg390 2.141 . S
O397 C395 1.289 . S
O398 Mg390 2.048 . S
O398 C391 1.195 . S
O399 Mg390 2.048 . S
O399 C400 1.118 1_455 S
C400 O399 1.118 1_655 S
C400 O401 1.380 . S
O401 C400 1.380 . S
O402 Mg390 2.141 . S
O402 C393 1.289 . S
Mg403 O410 2.141 . S
Mg403 O411 2.048 . S
Mg403 O412 2.048 . S
Mg403 O415 2.141 . S
C404 O405 1.313 . S
C404 O411 1.195 . S
O405 C404 1.313 . S
C406 O407 1.245 . S
C406 O415 1.289 . S
O407 C406 1.245 . S
C408 O409 1.245 . S
C408 O410 1.289 . S
O409 C408 1.245 . S
O410 Mg403 2.141 . S
O410 C408 1.289 . S
O411 Mg403 2.048 . S
O411 C404 1.195 . S
O412 Mg403 2.048 . S
O412 C413 1.195 . S
C413 O412 1.195 . S
C413 O414 1.313 . S
O414 C413 1.313 . S
O415 Mg403 2.141 . S
O415 C406 1.289 . S
H416 C424 0.954 . S
H417 C426 0.921 1_455 S
H418 C428 0.930 . S
H419 C431 0.929 . S
H420 C434 0.930 . S
H421 C436 0.960 . S
H422 C436 0.960 . S
H423 C436 0.960 . S
C424 H416 0.954 . S
C424 C425 1.377 . S
C424 C426 1.388 . S
C425 C424 1.377 . S
C425 C431 1.390 . S
C426 H417 0.921 1_655 S
C426 C424 1.388 . S
C426 C427 1.377 . S
C427 C426 1.377 . S
C427 C428 1.400 . S
C427 C432 1.496 . S
C428 H418 0.930 . S
C428 C427 1.400 . S
C428 C431 1.386 . S
H429 C445 0.930 . S
H430 C446 0.931 . S
C431 H419 0.929 . S
C431 C425 1.390 . S
C431 C428 1.386 . S
C432 C427 1.496 . S
C432 C434 1.371 1_655 S
C432 C435 1.420 . S
H433 C439 0.930 . S
C434 H420 0.930 . S
C434 C432 1.371 1_455 S
C434 C437 1.403 . S
C435 C432 1.420 . S
C435 C436 1.524 . S
C435 C439 1.400 . S
C436 H421 0.960 . S
C436 H422 0.960 . S
C436 H423 0.960 . S
C436 C435 1.524 . S
C437 C434 1.403 . S
C437 C438 1.392 . S
C437 C441 1.495 . S
C438 C437 1.392 . S
C438 C439 1.385 1_455 S
C438 C440 1.478 . S
C439 H433 0.930 . S
C439 C435 1.400 . S
C439 C438 1.385 1_655 S
C440 C438 1.478 . S
C440 C442 1.381 . S
C440 C446 1.383 . S
C441 C437 1.495 . S
C441 H447 0.959 . S
C441 H448 0.961 . S
C441 H449 0.960 . S
C442 C440 1.381 . S
C442 C443 1.394 . S
C442 H450 0.930 . S
C443 C442 1.394 . S
C443 C444 1.383 . S
C443 H451 0.929 . S
C444 C443 1.383 . S
C444 C445 1.377 . S
C445 H429 0.930 . S
C445 C444 1.377 . S
C445 C446 1.379 . S
C446 H430 0.931 . S
C446 C440 1.383 . S
C446 C445 1.379 . S
H447 C441 0.959 . S
H448 C441 0.961 . S
H449 C441 0.960 . S
H450 C442 0.930 . S
H451 C443 0.929 . S
H452 C460 0.929 . S
H453 C462 0.930 . S
H454 C464 0.930 . S
H455 C467 0.929 . S
H456 C470 0.930 . S
H457 C472 0.960 . S
H458 C472 0.960 . S
H459 C472 0.960 . S
C460 H452 0.929 . S
C460 C461 1.377 . S
C460 C462 1.384 . S
C461 C460 1.377 . S
C461 C467 1.390 . S
C462 H453 0.930 . S
C462 C460 1.384 . S
C462 C463 1.372 . S
C463 C462 1.372 . S
C463 C464 1.400 . S
C463 C468 1.490 1_556 S
C464 H454 0.930 . S
C464 C463 1.400 . S
C464 C467 1.386 . S
H465 C481 0.930 . S
H466 C482 0.931 . S
C467 H455 0.929 . S
C467 C461 1.390 . S
C467 C464 1.386 . S
C468 C463 1.490 1_554 S
C468 C470 1.395 . S
C468 C471 1.403 . S
H469 C475 0.930 . S
C470 H456 0.930 . S
C470 C468 1.395 . S
C470 C473 1.403 . S
C471 C468 1.403 . S
C471 C472 1.524 . S
C471 C475 1.400 . S
C472 H457 0.960 . S
C472 H458 0.960 . S
C472 H459 0.960 . S
C472 C471 1.524 . S
C473 C470 1.403 . S
C473 C474 1.392 . S
C473 C477 1.495 . S
C474 C473 1.392 . S
C474 C475 1.385 . S
C474 C476 1.478 . S
C475 H469 0.930 . S
C475 C471 1.400 . S
C475 C474 1.385 . S
C476 C474 1.478 . S
C476 C478 1.381 . S
C476 C482 1.383 . S
C477 C473 1.495 . S
C477 H483 0.959 . S
C477 H484 0.961 . S
C477 H485 0.960 . S
C478 C476 1.381 . S
C478 C479 1.394 . S
C478 H486 0.930 . S
C479 C478 1.394 . S
C479 C480 1.383 . S
C479 H487 0.929 . S
C480 C479 1.383 . S
C480 C481 1.377 . S
C481 H465 0.930 . S
C481 C480 1.377 . S
C481 C482 1.379 . S
C482 H466 0.931 . S
C482 C476 1.383 . S
C482 C481 1.379 . S
H483 C477 0.959 . S
H484 C477 0.961 . S
H485 C477 0.960 . S
H486 C478 0.930 . S
H487 C479 0.929 . S
H488 C496 0.929 . S
H489 C498 0.930 . S
H490 C500 0.930 . S
H491 C503 0.929 . S
H492 C506 0.930 . S
H493 C508 0.960 . S
H494 C508 0.960 . S
H495 C508 0.960 . S
C496 H488 0.929 . S
C496 C497 1.377 . S
C496 C498 1.384 . S
C497 C496 1.377 . S
C497 C503 1.390 . S
C498 H489 0.930 . S
C498 C496 1.384 . S
C498 C499 1.372 . S
C499 C498 1.372 . S
C499 C500 1.400 . S
C499 C504 1.490 . S
C500 H490 0.930 . S
C500 C499 1.400 . S
C500 C503 1.386 . S
H501 C517 0.930 . S
H502 C518 0.931 . S
C503 H491 0.929 . S
C503 C497 1.390 . S
C503 C500 1.386 . S
C504 C499 1.490 . S
C504 C506 1.395 . S
C504 C507 1.403 . S
H505 C511 0.930 . S
C506 H492 0.930 . S
C506 C504 1.395 . S
C506 C509 1.403 . S
C507 C504 1.403 . S
C507 C508 1.524 . S
C507 C511 1.400 . S
C508 H493 0.960 . S
C508 H494 0.960 . S
C508 H495 0.960 . S
C508 C507 1.524 . S
C509 C506 1.403 . S
C509 C510 1.392 . S
C509 C513 1.495 . S
C510 C509 1.392 . S
C510 C511 1.385 . S
C510 C512 1.478 . S
C511 H505 0.930 . S
C511 C507 1.400 . S
C511 C510 1.385 . S
C512 C510 1.478 . S
C512 C514 1.381 . S
C512 C518 1.383 . S
C513 C509 1.495 . S
C513 H519 0.959 . S
C513 H520 0.961 . S
C513 H521 0.960 . S
C514 C512 1.381 . S
C514 C515 1.394 . S
C514 H522 0.930 . S
C515 C514 1.394 . S
C515 C516 1.383 . S
C515 H523 0.929 . S
C516 C515 1.383 . S
C516 C517 1.377 . S
C517 H501 0.930 . S
C517 C516 1.377 . S
C517 C518 1.379 . S
C518 H502 0.931 . S
C518 C512 1.383 . S
C518 C517 1.379 . S
H519 C513 0.959 . S
H520 C513 0.961 . S
H521 C513 0.960 . S
H522 C514 0.930 . S
H523 C515 0.929 . S
H524 C532 0.929 . S
H525 C534 0.930 . S
H526 C536 0.930 . S
H527 C539 0.929 . S
H528 C542 0.930 . S
H529 C544 0.960 . S
H530 C544 0.960 . S
H531 C544 0.960 . S
C532 H524 0.929 . S
C532 C533 1.377 . S
C532 C534 1.384 . S
C533 C532 1.377 . S
C533 C539 1.390 . S
C534 H525 0.930 . S
C534 C532 1.384 . S
C534 C535 1.372 . S
C535 C534 1.372 . S
C535 C536 1.400 . S
C535 C540 1.490 . S
C536 H526 0.930 . S
C536 C535 1.400 . S
C536 C539 1.386 . S
H537 C553 0.930 . S
H538 C554 0.931 . S
C539 H527 0.929 . S
C539 C533 1.390 . S
C539 C536 1.386 . S
C540 C535 1.490 . S
C540 C542 1.395 . S
C540 C543 1.403 . S
H541 C547 0.930 . S
C542 H528 0.930 . S
C542 C540 1.395 . S
C542 C545 1.403 . S
C543 C540 1.403 . S
C543 C544 1.524 . S
C543 C547 1.400 . S
C544 H529 0.960 . S
C544 H530 0.960 . S
C544 H531 0.960 . S
C544 C543 1.524 . S
C545 C542 1.403 . S
C545 C546 1.392 . S
C545 C549 1.495 . S
C546 C545 1.392 . S
C546 C547 1.385 . S
C546 C548 1.478 . S
C547 H541 0.930 . S
C547 C543 1.400 . S
C547 C546 1.385 . S
C548 C546 1.478 . S
C548 C550 1.381 . S
C548 C554 1.383 . S
C549 C545 1.495 . S
C549 H555 0.959 . S
C549 H556 0.961 . S
C549 H557 0.960 . S
C550 C548 1.381 . S
C550 C551 1.394 . S
C550 H558 0.930 . S
C551 C550 1.394 . S
C551 C552 1.383 . S
C551 H559 0.929 . S
C552 C551 1.383 . S
C552 C553 1.377 . S
C553 H537 0.930 . S
C553 C552 1.377 . S
C553 C554 1.379 . S
C554 H538 0.931 . S
C554 C548 1.383 . S
C554 C553 1.379 . S
H555 C549 0.959 . S
H556 C549 0.961 . S
H557 C549 0.960 . S
H558 C550 0.930 . S
H559 C551 0.929 . S
H560 C568 0.929 . S
H561 C570 0.930 . S
H562 C572 0.930 . S
H563 C575 0.929 . S
H564 C578 0.930 . S
H565 C580 0.960 . S
H566 C580 0.960 . S
H567 C580 0.960 . S
C568 H560 0.929 . S
C568 C569 1.377 . S
C568 C570 1.384 . S
C569 C568 1.377 . S
C569 C575 1.390 . S
C570 H561 0.930 . S
C570 C568 1.384 . S
C570 C571 1.372 . S
C571 C570 1.372 . S
C571 C572 1.400 . S
C571 C576 1.490 . S
C572 H562 0.930 . S
C572 C571 1.400 . S
C572 C575 1.386 . S
H573 C589 0.930 . S
H574 C590 0.931 . S
C575 H563 0.929 . S
C575 C569 1.390 . S
C575 C572 1.386 . S
C576 C571 1.490 . S
C576 C578 1.395 . S
C576 C579 1.403 1_655 S
H577 C583 0.930 . S
C578 H564 0.930 . S
C578 C576 1.395 . S
C578 C581 1.403 . S
C579 C576 1.403 1_455 S
C579 C580 1.524 . S
C579 C583 1.400 . S
C580 H565 0.960 . S
C580 H566 0.960 . S
C580 H567 0.960 . S
C580 C579 1.524 . S
C581 C578 1.403 . S
C581 C582 1.392 1_655 S
C581 C585 1.495 . S
C582 C581 1.392 1_455 S
C582 C583 1.385 . S
C582 C584 1.478 . S
C583 H577 0.930 . S
C583 C579 1.400 . S
C583 C582 1.385 . S
C584 C582 1.478 . S
C584 C586 1.381 . S
C584 C590 1.383 . S
C585 C581 1.495 . S
C585 H591 0.959 . S
C585 H592 0.961 . S
C585 H593 0.960 . S
C586 C584 1.381 . S
C586 C587 1.394 . S
C586 H594 0.930 . S
C587 C586 1.394 . S
C587 C588 1.383 . S
C587 H595 0.929 . S
C588 C587 1.383 . S
C588 C589 1.377 . S
C589 H573 0.930 . S
C589 C588 1.377 . S
C589 C590 1.379 . S
C590 H574 0.931 . S
C590 C584 1.383 . S
C590 C589 1.379 . S
H591 C585 0.959 . S
H592 C585 0.961 . S
H593 C585 0.960 . S
H594 C586 0.930 . S
H595 C587 0.929 . S
H596 C604 0.929 . S
H597 C606 0.930 . S
H598 C608 0.930 . S
H599 C611 0.929 . S
H600 C614 0.930 . S
H601 C616 0.960 . S
H602 C616 0.960 . S
H603 C616 0.960 . S
C604 H596 0.929 . S
C604 C605 1.377 . S
C604 C606 1.384 . S
C605 C604 1.377 . S
C605 C611 1.390 . S
C606 H597 0.930 . S
C606 C604 1.384 . S
C606 C607 1.372 . S
C607 C606 1.372 . S
C607 C608 1.400 . S
C607 C612 1.490 . S
C608 H598 0.930 . S
C608 C607 1.400 . S
C608 C611 1.386 . S
H609 C625 0.930 . S
H610 C626 0.931 . S
C611 H599 0.929 . S
C611 C605 1.390 . S
C611 C608 1.386 . S
C612 C607 1.490 . S
C612 C614 1.395 . S
C612 C615 1.403 . S
H613 C619 0.930 . S
C614 H600 0.930 . S
C614 C612 1.395 . S
C614 C617 1.403 . S
C615 C612 1.403 . S
C615 C616 1.524 . S
C615 C619 1.400 . S
C616 H601 0.960 . S
C616 H602 0.960 . S
C616 H603 0.960 . S
C616 C615 1.524 . S
C617 C614 1.403 . S
C617 C618 1.392 . S
C617 C621 1.495 . S
C618 C617 1.392 . S
C618 C619 1.385 . S
C618 C620 1.478 1_556 S
C619 H613 0.930 . S
C619 C615 1.400 . S
C619 C618 1.385 . S
C620 C618 1.478 1_554 S
C620 C622 1.381 . S
C620 C626 1.383 . S
C621 C617 1.495 . S
C621 H627 0.959 . S
C621 H628 0.975 . S
C621 H629 0.960 . S
C622 C620 1.381 . S
C622 C623 1.394 . S
C622 H630 0.930 . S
C623 C622 1.394 . S
C623 C624 1.383 . S
C623 H631 0.929 . S
C624 C623 1.383 . S
C624 C625 1.377 . S
C625 H609 0.930 . S
C625 C624 1.377 . S
C625 C626 1.379 . S
C626 H610 0.931 . S
C626 C620 1.383 . S
C626 C625 1.379 . S
H627 C621 0.959 . S
H628 C621 0.975 . S
H629 C621 0.960 . S
H630 C622 0.930 . S
H631 C623 0.929 . S
H632 C640 0.929 . S
H633 C642 0.930 . S
H634 C644 0.930 . S
H635 C647 0.929 . S
H636 C650 0.930 . S
H637 C652 0.960 . S
H638 C652 0.960 . S
H639 C652 0.960 . S
C640 H632 0.929 . S
C640 C641 1.377 . S
C640 C642 1.384 . S
C641 C640 1.377 . S
C641 C647 1.390 . S
C642 H633 0.930 . S
C642 C640 1.384 . S
C642 C643 1.372 . S
C643 C642 1.372 . S
C643 C644 1.400 . S
C643 C648 1.490 . S
C644 H634 0.930 . S
C644 C643 1.400 . S
C644 C647 1.386 . S
H645 C661 0.930 . S
H646 C662 0.931 . S
C647 H635 0.929 . S
C647 C641 1.390 . S
C647 C644 1.386 . S
C648 C643 1.490 . S
C648 C650 1.395 . S
C648 C651 1.403 . S
H649 C655 0.930 . S
C650 H636 0.930 . S
C650 C648 1.395 . S
C650 C653 1.403 . S
C651 C648 1.403 . S
C651 C652 1.524 . S
C651 C655 1.400 . S
C652 H637 0.960 . S
C652 H638 0.960 . S
C652 H639 0.960 . S
C652 C651 1.524 . S
C653 C650 1.403 . S
C653 C654 1.392 . S
C653 C657 1.495 . S
C654 C653 1.392 . S
C654 C655 1.385 . S
C654 C656 1.478 . S
C655 H649 0.930 . S
C655 C651 1.400 . S
C655 C654 1.385 . S
C656 C654 1.478 . S
C656 C658 1.381 . S
C656 C662 1.383 . S
C657 C653 1.495 . S
C657 H663 0.959 . S
C657 H664 0.961 . S
C657 H665 0.960 . S
C658 C656 1.381 . S
C658 C659 1.394 . S
C658 H666 0.930 . S
C659 C658 1.394 . S
C659 C660 1.383 . S
C659 H667 0.929 . S
C660 C659 1.383 . S
C660 C661 1.377 . S
C661 H645 0.930 . S
C661 C660 1.377 . S
C661 C662 1.379 . S
C662 H646 0.931 . S
C662 C656 1.383 . S
C662 C661 1.379 . S
H663 C657 0.959 . S
H664 C657 0.961 . S
H665 C657 0.960 . S
H666 C658 0.930 . S
H667 C659 0.929 . S
H668 C676 0.929 . S
H669 C678 0.930 . S
H670 C680 0.930 . S
H671 C683 0.929 . S
H672 C686 0.930 . S
H673 C688 0.960 . S
H674 C688 0.960 . S
H675 C688 0.960 . S
C676 H668 0.929 . S
C676 C677 1.377 . S
C676 C678 1.384 . S
C677 C676 1.377 . S
C677 C683 1.390 . S
C678 H669 0.930 . S
C678 C676 1.384 . S
C678 C679 1.372 . S
C679 C678 1.372 . S
C679 C680 1.400 . S
C679 C684 1.490 . S
C680 H670 0.930 . S
C680 C679 1.400 . S
C680 C683 1.386 . S
H681 C697 0.930 . S
H682 C698 0.931 . S
C683 H671 0.929 . S
C683 C677 1.390 . S
C683 C680 1.386 . S
C684 C679 1.490 . S
C684 C686 1.395 . S
C684 C687 1.403 . S
H685 C691 0.930 . S
C686 H672 0.930 . S
C686 C684 1.395 . S
C686 C689 1.403 . S
C687 C684 1.403 . S
C687 C688 1.524 . S
C687 C691 1.400 . S
C688 H673 0.960 . S
C688 H674 0.960 . S
C688 H675 0.960 . S
C688 C687 1.524 . S
C689 C686 1.403 . S
C689 C690 1.392 . S
C689 C693 1.495 . S
C690 C689 1.392 . S
C690 C691 1.385 . S
C690 C692 1.478 . S
C691 H685 0.930 . S
C691 C687 1.400 . S
C691 C690 1.385 . S
C692 C690 1.478 . S
C692 C694 1.381 . S
C692 C698 1.383 . S
C693 C689 1.495 . S
C693 H699 0.959 . S
C693 H700 0.961 . S
C693 H701 0.960 . S
C694 C692 1.381 . S
C694 C695 1.394 . S
C694 H702 0.930 . S
C695 C694 1.394 . S
C695 C696 1.383 . S
C695 H703 0.929 . S
C696 C695 1.383 . S
C696 C697 1.377 . S
C697 H681 0.930 . S
C697 C696 1.377 . S
C697 C698 1.379 . S
C698 H682 0.931 . S
C698 C692 1.383 . S
C698 C697 1.379 . S
H699 C693 0.959 . S
H700 C693 0.961 . S
H701 C693 0.960 . S
H702 C694 0.930 . S
H703 C695 0.929 . S
H704 C712 0.962 . S
H705 C714 0.930 . S
H706 C716 0.930 . S
H707 C719 0.929 . S
H708 C722 0.930 . S
H709 C724 0.960 . S
H710 C724 0.960 . S
H711 C724 0.960 1_455 S
C712 H704 0.962 . S
C712 C713 1.335 1_655 S
C712 C714 1.397 . S
C713 C712 1.335 1_455 S
C713 C719 1.390 . S
C714 H705 0.930 . S
C714 C712 1.397 . S
C714 C715 1.372 1_655 S
C715 C714 1.372 1_455 S
C715 C716 1.400 . S
C715 C720 1.498 . S
C716 H706 0.930 . S
C716 C715 1.400 . S
C716 C719 1.386 . S
H717 C733 0.930 1_455 S
H718 C734 1.005 . S
C719 H707 0.929 . S
C719 C713 1.390 . S
C719 C716 1.386 . S
C720 C715 1.498 . S
C720 C722 1.399 . S
C720 C723 1.392 1_455 S
H721 C727 0.930 . S
C722 H708 0.930 . S
C722 C720 1.399 . S
C722 C725 1.395 1_455 S
C723 C720 1.392 1_655 S
C723 C724 1.524 . S
C723 C727 1.400 . S
C724 H709 0.960 . S
C724 H710 0.960 . S
C724 H711 0.960 1_655 S
C724 C723 1.524 . S
C725 C722 1.395 1_655 S
C725 C726 1.408 . S
C725 C729 1.490 1_655 S
C726 C725 1.408 . S
C726 C727 1.385 . S
C726 C728 1.478 . S
C727 H721 0.930 . S
C727 C723 1.400 . S
C727 C726 1.385 . S
C728 C726 1.478 . S
C728 C730 1.381 . S
C728 C734 1.332 1_655 S
C729 C725 1.490 1_455 S
C729 H735 0.959 . S
C729 H736 0.961 . S
C729 H737 0.960 1_455 S
C730 C728 1.381 . S
C730 C731 1.394 . S
C730 H738 0.930 . S
C731 C730 1.394 . S
C731 C732 1.383 . S
C731 H739 0.929 . S
C732 C731 1.383 . S
C732 C733 1.377 . S
C733 H717 0.930 1_655 S
C733 C732 1.377 . S
C733 C734 1.363 1_655 S
C734 H718 1.005 . S
C734 C728 1.332 1_455 S
C734 C733 1.363 1_455 S
H735 C729 0.959 . S
H736 C729 0.961 . S
H737 C729 0.960 1_655 S
H738 C730 0.930 . S
H739 C731 0.929 . S
H740 C748 0.929 . S
H741 C750 0.930 . S
H742 C752 0.930 . S
H743 C755 0.929 . S
H744 C758 0.930 . S
H745 C760 0.960 . S
H746 C760 0.960 . S
H747 C760 0.960 . S
C748 H740 0.929 . S
C748 C749 1.377 . S
C748 C750 1.384 . S
C749 C748 1.377 . S
C749 C755 1.390 . S
C750 H741 0.930 . S
C750 C748 1.384 . S
C750 C751 1.372 . S
C751 C750 1.372 . S
C751 C752 1.400 . S
C751 C756 1.490 1_554 S
C752 H742 0.930 . S
C752 C751 1.400 . S
C752 C755 1.386 . S
H753 C769 0.930 . S
H754 C770 0.931 . S
C755 H743 0.929 . S
C755 C749 1.390 . S
C755 C752 1.386 . S
C756 C751 1.490 1_556 S
C756 C758 1.395 . S
C756 C759 1.403 . S
H757 C763 0.930 . S
C758 H744 0.930 . S
C758 C756 1.395 . S
C758 C761 1.403 . S
C759 C756 1.403 . S
C759 C760 1.524 . S
C759 C763 1.400 . S
C760 H745 0.960 . S
C760 H746 0.960 . S
C760 H747 0.960 . S
C760 C759 1.524 . S
C761 C758 1.403 . S
C761 C762 1.392 . S
C761 C765 1.495 . S
C762 C761 1.392 . S
C762 C763 1.385 . S
C762 C764 1.478 . S
C763 H757 0.930 . S
C763 C759 1.400 . S
C763 C762 1.385 . S
C764 C762 1.478 . S
C764 C766 1.381 . S
C764 C770 1.383 . S
C765 C761 1.495 . S
C765 H771 0.959 . S
C765 H772 0.961 . S
C765 H773 0.960 . S
C766 C764 1.381 . S
C766 C767 1.394 . S
C766 H774 0.930 . S
C767 C766 1.394 . S
C767 C768 1.383 . S
C767 H775 0.929 . S
C768 C767 1.383 . S
C768 C769 1.377 . S
C769 H753 0.930 . S
C769 C768 1.377 . S
C769 C770 1.379 . S
C770 H754 0.931 . S
C770 C764 1.383 . S
C770 C769 1.379 . S
H771 C765 0.959 . S
H772 C765 0.961 . S
H773 C765 0.960 . S
H774 C766 0.930 . S
H775 C767 0.929 . S
H776 C784 0.929 . S
H777 C786 0.930 . S
H778 C788 0.930 . S
H779 C791 0.929 . S
H780 C794 0.930 . S
H781 C796 0.960 . S
H782 C796 0.960 . S
H783 C796 0.960 . S
C784 H776 0.929 . S
C784 C785 1.377 . S
C784 C786 1.384 . S
C785 C784 1.377 . S
C785 C791 1.390 . S
C786 H777 0.930 . S
C786 C784 1.384 . S
C786 C787 1.372 . S
C787 C786 1.372 . S
C787 C788 1.400 . S
C787 C792 1.490 . S
C788 H778 0.930 . S
C788 C787 1.400 . S
C788 C791 1.386 . S
H789 C805 0.930 . S
H790 C806 0.931 . S
C791 H779 0.929 . S
C791 C785 1.390 . S
C791 C788 1.386 . S
C792 C787 1.490 . S
C792 C794 1.395 . S
C792 C795 1.403 . S
H793 C799 0.930 . S
C794 H780 0.930 . S
C794 C792 1.395 . S
C794 C797 1.403 . S
C795 C792 1.403 . S
C795 C796 1.524 . S
C795 C799 1.400 . S
C796 H781 0.960 . S
C796 H782 0.960 . S
C796 H783 0.960 . S
C796 C795 1.524 . S
C797 C794 1.403 . S
C797 C798 1.392 . S
C797 C801 1.495 . S
C798 C797 1.392 . S
C798 C799 1.385 . S
C798 C800 1.478 . S
C799 H793 0.930 . S
C799 C795 1.400 . S
C799 C798 1.385 . S
C800 C798 1.478 . S
C800 C802 1.381 . S
C800 C806 1.383 . S
C801 C797 1.495 . S
C801 H807 0.959 . S
C801 H808 0.961 . S
C801 H809 0.960 . S
C802 C800 1.381 . S
C802 C803 1.394 . S
C802 H810 0.930 . S
C803 C802 1.394 . S
C803 C804 1.383 . S
C803 H811 0.929 . S
C804 C803 1.383 . S
C804 C805 1.377 . S
C805 H789 0.930 . S
C805 C804 1.377 . S
C805 C806 1.379 . S
C806 H790 0.931 . S
C806 C800 1.383 . S
C806 C805 1.379 . S
H807 C801 0.959 . S
H808 C801 0.961 . S
H809 C801 0.960 . S
H810 C802 0.930 . S
H811 C803 0.929 . S
H812 C820 0.929 . S
H813 C822 0.930 . S
H814 C824 0.930 . S
H815 C827 0.929 . S
H816 C830 0.930 . S
H817 C832 0.960 . S
H818 C832 0.960 . S
H819 C832 0.960 . S
C820 H812 0.929 . S
C820 C821 1.377 . S
C820 C822 1.384 . S
C821 C820 1.377 . S
C821 C827 1.390 . S
C822 H813 0.930 . S
C822 C820 1.384 . S
C822 C823 1.372 . S
C823 C822 1.372 . S
C823 C824 1.400 . S
C823 C828 1.490 . S
C824 H814 0.930 . S
C824 C823 1.400 . S
C824 C827 1.386 . S
H825 C841 0.930 . S
H826 C842 0.931 . S
C827 H815 0.929 . S
C827 C821 1.390 . S
C827 C824 1.386 . S
C828 C823 1.490 . S
C828 C830 1.395 . S
C828 C831 1.403 . S
H829 C835 0.930 . S
C830 H816 0.930 . S
C830 C828 1.395 . S
C830 C833 1.403 . S
C831 C828 1.403 . S
C831 C832 1.524 . S
C831 C835 1.400 . S
C832 H817 0.960 . S
C832 H818 0.960 . S
C832 H819 0.960 . S
C832 C831 1.524 . S
C833 C830 1.403 . S
C833 C834 1.392 . S
C833 C837 1.495 . S
C834 C833 1.392 . S
C834 C835 1.385 . S
C834 C836 1.478 . S
C835 H829 0.930 . S
C835 C831 1.400 . S
C835 C834 1.385 . S
C836 C834 1.478 . S
C836 C838 1.381 . S
C836 C842 1.383 . S
C837 C833 1.495 . S
C837 H843 0.959 . S
C837 H844 0.961 . S
C837 H845 0.960 . S
C838 C836 1.381 . S
C838 C839 1.394 . S
C838 H846 0.930 . S
C839 C838 1.394 . S
C839 C840 1.383 . S
C839 H847 0.929 . S
C840 C839 1.383 . S
C840 C841 1.377 . S
C841 H825 0.930 . S
C841 C840 1.377 . S
C841 C842 1.379 . S
C842 H826 0.931 . S
C842 C836 1.383 . S
C842 C841 1.379 . S
H843 C837 0.959 . S
H844 C837 0.961 . S
H845 C837 0.960 . S
H846 C838 0.930 . S
H847 C839 0.929 . S
H848 C856 0.929 . S
H849 C858 0.930 . S
H850 C860 0.930 . S
H851 C863 0.929 . S
H852 C866 0.930 . S
H853 C868 0.960 . S
H854 C868 0.960 . S
H855 C868 0.960 . S
C856 H848 0.929 . S
C856 C857 1.377 . S
C856 C858 1.384 . S
C857 C856 1.377 . S
C857 C863 1.390 . S
C858 H849 0.930 . S
C858 C856 1.384 . S
C858 C859 1.372 . S
C859 C858 1.372 . S
C859 C860 1.400 . S
C859 C864 1.490 . S
C860 H850 0.930 . S
C860 C859 1.400 . S
C860 C863 1.386 . S
H861 C877 0.930 . S
H862 C878 0.950 . S
C863 H851 0.929 . S
C863 C857 1.390 . S
C863 C860 1.386 . S
C864 C859 1.490 . S
C864 C866 1.395 . S
C864 C867 1.403 1_655 S
H865 C871 0.930 . S
C866 H852 0.930 . S
C866 C864 1.395 . S
C866 C869 1.403 . S
C867 C864 1.403 1_455 S
C867 C868 1.524 . S
C867 C871 1.400 . S
C868 H853 0.960 . S
C868 H854 0.960 . S
C868 H855 0.960 . S
C868 C867 1.524 . S
C869 C866 1.403 . S
C869 C870 1.420 . S
C869 C873 1.495 . S
C870 C869 1.420 . S
C870 C871 1.364 1_655 S
C870 C872 1.471 1_655 S
C871 H865 0.930 . S
C871 C867 1.400 . S
C871 C870 1.364 1_455 S
C872 C870 1.471 1_455 S
C872 C874 1.381 . S
C872 C878 1.375 1_455 S
C873 C869 1.495 . S
C873 H879 0.959 . S
C873 H880 0.961 . S
C873 H881 0.960 . S
C874 C872 1.381 . S
C874 C875 1.394 . S
C874 H882 0.930 . S
C875 C874 1.394 . S
C875 C876 1.383 . S
C875 H883 0.929 . S
C876 C875 1.383 . S
C876 C877 1.377 . S
C877 H861 0.930 . S
C877 C876 1.377 . S
C877 C878 1.370 1_455 S
C878 H862 0.950 . S
C878 C872 1.375 1_655 S
C878 C877 1.370 1_655 S
H879 C873 0.959 . S
H880 C873 0.961 . S
H881 C873 0.960 . S
H882 C874 0.930 . S
H883 C875 0.929 . S
H884 C892 0.929 . S
H885 C894 0.930 . S
H886 C896 0.930 . S
H887 C899 0.929 . S
H888 C902 0.930 . S
H889 C904 0.960 . S
H890 C904 0.960 . S
H891 C904 0.960 . S
C892 H884 0.929 . S
C892 C893 1.377 . S
C892 C894 1.384 . S
C893 C892 1.377 . S
C893 C899 1.390 . S
C894 H885 0.930 . S
C894 C892 1.384 . S
C894 C895 1.372 . S
C895 C894 1.372 . S
C895 C896 1.400 . S
C895 C900 1.490 . S
C896 H886 0.930 . S
C896 C895 1.400 . S
C896 C899 1.386 . S
H897 C913 0.930 . S
H898 C914 0.931 . S
C899 H887 0.929 . S
C899 C893 1.390 . S
C899 C896 1.386 . S
C900 C895 1.490 . S
C900 C902 1.395 . S
C900 C903 1.403 . S
H901 C907 0.930 . S
C902 H888 0.930 . S
C902 C900 1.395 . S
C902 C905 1.403 . S
C903 C900 1.403 . S
C903 C904 1.524 . S
C903 C907 1.400 . S
C904 H889 0.960 . S
C904 H890 0.960 . S
C904 H891 0.960 . S
C904 C903 1.524 . S
C905 C902 1.403 . S
C905 C906 1.392 . S
C905 C909 1.495 . S
C906 C905 1.392 . S
C906 C907 1.385 . S
C906 C908 1.478 1_554 S
C907 H901 0.930 . S
C907 C903 1.400 . S
C907 C906 1.385 . S
C908 C906 1.478 1_556 S
C908 C910 1.381 . S
C908 C914 1.383 . S
C909 C905 1.495 . S
C909 H915 0.959 . S
C909 H916 0.961 1_554 S
C909 H917 0.960 1_554 S
C910 C908 1.381 . S
C910 C911 1.394 . S
C910 H918 0.930 . S
C911 C910 1.394 . S
C911 C912 1.383 . S
C911 H919 0.929 . S
C912 C911 1.383 . S
C912 C913 1.377 . S
C913 H897 0.930 . S
C913 C912 1.377 . S
C913 C914 1.379 . S
C914 H898 0.931 . S
C914 C908 1.383 . S
C914 C913 1.379 . S
H915 C909 0.959 . S
H916 C909 0.961 1_556 S
H917 C909 0.960 1_556 S
H918 C910 0.930 . S
H919 C911 0.929 . S
H920 C928 0.929 . S
H921 C930 0.930 . S
H922 C932 0.930 . S
H923 C935 0.929 . S
H924 C938 0.930 . S
H925 C940 0.960 . S
H926 C940 0.960 . S
H927 C940 0.960 . S
C928 H920 0.929 . S
C928 C929 1.377 . S
C928 C930 1.384 . S
C929 C928 1.377 . S
C929 C935 1.390 . S
C930 H921 0.930 . S
C930 C928 1.384 . S
C930 C931 1.372 . S
C931 C930 1.372 . S
C931 C932 1.400 . S
C931 C936 1.490 . S
C932 H922 0.930 . S
C932 C931 1.400 . S
C932 C935 1.386 . S
H933 C949 0.930 . S
H934 C950 0.931 . S
C935 H923 0.929 . S
C935 C929 1.390 . S
C935 C932 1.386 . S
C936 C931 1.490 . S
C936 C938 1.395 . S
C936 C939 1.403 . S
H937 C943 0.930 . S
C938 H924 0.930 . S
C938 C936 1.395 . S
C938 C941 1.403 . S
C939 C936 1.403 . S
C939 C940 1.524 . S
C939 C943 1.400 . S
C940 H925 0.960 . S
C940 H926 0.960 . S
C940 H927 0.960 . S
C940 C939 1.524 . S
C941 C938 1.403 . S
C941 C942 1.392 . S
C941 C945 1.495 . S
C942 C941 1.392 . S
C942 C943 1.385 . S
C942 C944 1.478 . S
C943 H937 0.930 . S
C943 C939 1.400 . S
C943 C942 1.385 . S
C944 C942 1.478 . S
C944 C946 1.381 . S
C944 C950 1.383 . S
C945 C941 1.495 . S
C945 H951 0.959 . S
C945 H952 0.961 . S
C945 H953 0.960 . S
C946 C944 1.381 . S
C946 C947 1.394 . S
C946 H954 0.930 . S
C947 C946 1.394 . S
C947 C948 1.383 . S
C947 H955 0.929 . S
C948 C947 1.383 . S
C948 C949 1.377 . S
C949 H933 0.930 . S
C949 C948 1.377 . S
C949 C950 1.379 . S
C950 H934 0.931 . S
C950 C944 1.383 . S
C950 C949 1.379 . S
H951 C945 0.959 . S
H952 C945 0.961 . S
H953 C945 0.960 . S
H954 C946 0.930 . S
H955 C947 0.929 . S
H956 C964 0.929 . S
H957 C966 0.930 . S
H958 C968 0.930 . S
H959 C971 0.929 . S
H960 C974 0.930 . S
H961 C976 0.960 . S
H962 C976 0.960 . S
H963 C976 0.960 . S
C964 H956 0.929 . S
C964 C965 1.377 . S
C964 C966 1.384 . S
C965 C964 1.377 . S
C965 C971 1.390 . S
C966 H957 0.930 . S
C966 C964 1.384 . S
C966 C967 1.372 . S
C967 C966 1.372 . S
C967 C968 1.400 . S
C967 C972 1.490 . S
C968 H958 0.930 . S
C968 C967 1.400 . S
C968 C971 1.386 . S
H969 C985 0.930 . S
H970 C986 0.931 . S
C971 H959 0.929 . S
C971 C965 1.390 . S
C971 C968 1.386 . S
C972 C967 1.490 . S
C972 C974 1.395 . S
C972 C975 1.403 . S
H973 C979 0.930 . S
C974 H960 0.930 . S
C974 C972 1.395 . S
C974 C977 1.403 . S
C975 C972 1.403 . S
C975 C976 1.524 . S
C975 C979 1.400 . S
C976 H961 0.960 . S
C976 H962 0.960 . S
C976 H963 0.960 . S
C976 C975 1.524 . S
C977 C974 1.403 . S
C977 C978 1.392 . S
C977 C981 1.495 . S
C978 C977 1.392 . S
C978 C979 1.385 . S
C978 C980 1.478 . S
C979 H973 0.930 . S
C979 C975 1.400 . S
C979 C978 1.385 . S
C980 C978 1.478 . S
C980 C982 1.381 . S
C980 C986 1.383 . S
C981 C977 1.495 . S
C981 H987 0.959 . S
C981 H988 0.961 . S
C981 H989 0.960 . S
C982 C980 1.381 . S
C982 C983 1.394 . S
C982 H990 0.930 . S
C983 C982 1.394 . S
C983 C984 1.383 . S
C983 H991 0.929 . S
C984 C983 1.383 . S
C984 C985 1.377 . S
C985 H969 0.930 . S
C985 C984 1.377 . S
C985 C986 1.379 . S
C986 H970 0.931 . S
C986 C980 1.383 . S
C986 C985 1.379 . S
H987 C981 0.959 . S
H988 C981 0.961 . S
H989 C981 0.960 . S
H990 C982 0.930 . S
H991 C983 0.929 . S
H992 C1000 0.929 . S
H993 C1002 0.930 . S
H994 C1004 0.930 . S
H995 C1007 0.929 . S
H996 C1010 0.930 . S
H997 C1012 0.960 . S
H998 C1012 0.960 . S
H999 C1012 0.960 . S
C1000 H992 0.929 . S
C1000 C1001 1.377 . S
C1000 C1002 1.384 . S
C1001 C1000 1.377 . S
C1001 C1007 1.390 . S
C1002 H993 0.930 . S
C1002 C1000 1.384 . S
C1002 C1003 1.372 . S
C1003 C1002 1.372 . S
C1003 C1004 1.400 . S
C1003 C1008 1.490 . S
C1004 H994 0.930 . S
C1004 C1003 1.400 . S
C1004 C1007 1.386 . S
H1005 C1021 0.930 . S
H1006 C1022 0.931 . S
C1007 H995 0.929 . S
C1007 C1001 1.390 . S
C1007 C1004 1.386 . S
C1008 C1003 1.490 . S
C1008 C1010 1.395 . S
C1008 C1011 1.403 . S
H1009 C1015 0.930 . S
C1010 H996 0.930 . S
C1010 C1008 1.395 . S
C1010 C1013 1.403 . S
C1011 C1008 1.403 . S
C1011 C1012 1.524 . S
C1011 C1015 1.400 . S
C1012 H997 0.960 . S
C1012 H998 0.960 . S
C1012 H999 0.960 . S
C1012 C1011 1.524 . S
C1013 C1010 1.403 . S
C1013 C1014 1.392 . S
C1013 C1017 1.495 . S
C1014 C1013 1.392 . S
C1014 C1015 1.385 . S
C1014 C1016 1.478 . S
C1015 H1009 0.930 . S
C1015 C1011 1.400 . S
C1015 C1014 1.385 . S
C1016 C1014 1.478 . S
C1016 C1018 1.381 . S
C1016 C1022 1.383 . S
C1017 C1013 1.495 . S
C1017 H1023 0.959 . S
C1017 H1024 0.961 . S
C1017 H1025 0.960 . S
C1018 C1016 1.381 . S
C1018 C1019 1.394 . S
C1018 H1026 0.930 . S
C1019 C1018 1.394 . S
C1019 C1020 1.383 . S
C1019 H1027 0.929 . S
C1020 C1019 1.383 . S
C1020 C1021 1.377 . S
C1021 H1005 0.930 . S
C1021 C1020 1.377 . S
C1021 C1022 1.379 . S
C1022 H1006 0.931 . S
C1022 C1016 1.383 . S
C1022 C1021 1.379 . S
H1023 C1017 0.959 . S
H1024 C1017 0.961 . S
H1025 C1017 0.960 . S
H1026 C1018 0.930 . S
H1027 C1019 0.929 . S
H1028 C1036 0.929 . S
H1029 C1038 0.930 . S
H1030 C1040 0.930 . S
H1031 C1043 0.929 . S
H1032 C1046 0.930 . S
H1033 C1048 0.960 . S
H1034 C1048 0.960 . S
H1035 C1048 0.960 . S
C1036 H1028 0.929 . S
C1036 C1037 1.377 . S
C1036 C1038 1.384 . S
C1037 C1036 1.377 . S
C1037 C1043 1.390 . S
C1038 H1029 0.930 . S
C1038 C1036 1.384 . S
C1038 C1039 1.372 . S
C1039 C1038 1.372 . S
C1039 C1040 1.400 . S
C1039 C1044 1.490 . S
C1040 H1030 0.930 . S
C1040 C1039 1.400 . S
C1040 C1043 1.386 . S
H1041 C1057 0.930 . S
H1042 C1058 0.931 . S
C1043 H1031 0.929 . S
C1043 C1037 1.390 . S
C1043 C1040 1.386 . S
C1044 C1039 1.490 . S
C1044 C1046 1.395 . S
C1044 C1047 1.403 . S
H1045 C1051 0.930 . S
C1046 H1032 0.930 . S
C1046 C1044 1.395 . S
C1046 C1049 1.403 . S
C1047 C1044 1.403 . S
C1047 C1048 1.524 . S
C1047 C1051 1.400 . S
C1048 H1033 0.960 . S
C1048 H1034 0.960 . S
C1048 H1035 0.960 . S
C1048 C1047 1.524 . S
C1049 C1046 1.403 . S
C1049 C1050 1.392 . S
C1049 C1053 1.495 . S
C1050 C1049 1.392 . S
C1050 C1051 1.385 . S
C1050 C1052 1.478 . S
C1051 H1045 0.930 . S
C1051 C1047 1.400 . S
C1051 C1050 1.385 . S
C1052 C1050 1.478 . S
C1052 C1054 1.381 . S
C1052 C1058 1.383 . S
C1053 C1049 1.495 . S
C1053 H1059 0.959 . S
C1053 H1060 0.961 . S
C1053 H1061 0.960 . S
C1054 C1052 1.381 . S
C1054 C1055 1.394 . S
C1054 H1062 0.930 . S
C1055 C1054 1.394 . S
C1055 C1056 1.383 . S
C1055 H1063 0.929 . S
C1056 C1055 1.383 . S
C1056 C1057 1.377 . S
C1057 H1041 0.930 . S
C1057 C1056 1.377 . S
C1057 C1058 1.379 . S
C1058 H1042 0.931 . S
C1058 C1052 1.383 . S
C1058 C1057 1.379 . S
H1059 C1053 0.959 . S
H1060 C1053 0.961 . S
H1061 C1053 0.960 . S
H1062 C1054 0.930 . S
H1063 C1055 0.929 . S
H1064 C1072 0.976 . S
H1065 C1074 0.930 . S
H1066 C1076 0.930 . S
H1067 C1079 0.929 . S
H1068 C1082 0.930 . S
H1069 C1084 0.960 . S
H1070 C1084 0.960 . S
H1071 C1084 0.960 . S
C1072 H1064 0.976 . S
C1072 C1073 1.317 1_655 S
C1072 C1074 1.404 . S
C1073 C1072 1.317 1_455 S
C1073 C1079 1.390 . S
C1074 H1065 0.930 . S
C1074 C1072 1.404 . S
C1074 C1075 1.372 1_655 S
C1075 C1074 1.372 1_455 S
C1075 C1076 1.400 . S
C1075 C1080 1.490 . S
C1076 H1066 0.930 . S
C1076 C1075 1.400 . S
C1076 C1079 1.386 . S
H1077 C1093 0.910 1_455 S
H1078 C1094 0.931 1_455 S
C1079 H1067 0.929 . S
C1079 C1073 1.390 . S
C1079 C1076 1.386 . S
C1080 C1075 1.490 . S
C1080 C1082 1.395 1_455 S
C1080 C1083 1.402 . S
H1081 C1087 0.930 . S
C1082 H1068 0.930 . S
C1082 C1080 1.395 1_655 S
C1082 C1085 1.403 . S
C1083 C1080 1.402 . S
C1083 C1084 1.524 . S
C1083 C1087 1.400 . S
C1084 H1069 0.960 . S
C1084 H1070 0.960 . S
C1084 H1071 0.960 . S
C1084 C1083 1.524 . S
C1085 C1082 1.403 . S
C1085 C1086 1.392 . S
C1085 C1089 1.495 . S
C1086 C1085 1.392 . S
C1086 C1087 1.385 1_655 S
C1086 C1088 1.478 . S
C1087 H1081 0.930 . S
C1087 C1083 1.400 . S
C1087 C1086 1.385 1_455 S
C1088 C1086 1.478 . S
C1088 C1090 1.381 . S
C1088 C1094 1.383 . S
C1089 C1085 1.495 . S
C1089 H1095 0.959 . S
C1089 H1096 0.961 . S
C1089 H1097 0.960 . S
C1090 C1088 1.381 . S
C1090 C1091 1.394 . S
C1090 H1098 0.930 . S
C1091 C1090 1.394 . S
C1091 C1092 1.383 . S
C1091 H1099 0.929 . S
C1092 C1091 1.383 . S
C1092 C1093 1.377 . S
C1093 H1077 0.910 1_655 S
C1093 C1092 1.377 . S
C1093 C1094 1.379 . S
C1094 H1078 0.931 1_655 S
C1094 C1088 1.383 . S
C1094 C1093 1.379 . S
H1095 C1089 0.959 . S
H1096 C1089 0.961 . S
H1097 C1089 0.960 . S
H1098 C1090 0.930 . S
H1099 C1091 0.929 . S
H1100 C1108 0.929 . S
H1101 C1110 0.930 . S
H1102 C1112 0.930 . S
H1103 C1115 0.929 . S
H1104 C1118 0.930 . S
H1105 C1120 0.960 . S
H1106 C1120 0.960 . S
H1107 C1120 0.960 . S
C1108 H1100 0.929 . S
C1108 C1109 1.377 . S
C1108 C1110 1.384 . S
C1109 C1108 1.377 . S
C1109 C1115 1.390 . S
C1110 H1101 0.930 . S
C1110 C1108 1.384 . S
C1110 C1111 1.372 . S
C1111 C1110 1.372 . S
C1111 C1112 1.400 . S
C1111 C1116 1.490 . S
C1112 H1102 0.930 . S
C1112 C1111 1.400 . S
C1112 C1115 1.386 . S
H1113 C1129 0.930 . S
H1114 C1130 0.931 . S
C1115 H1103 0.929 . S
C1115 C1109 1.390 . S
C1115 C1112 1.386 . S
C1116 C1111 1.490 . S
C1116 C1118 1.395 . S
C1116 C1119 1.403 . S
H1117 C1123 0.930 . S
C1118 H1104 0.930 . S
C1118 C1116 1.395 . S
C1118 C1121 1.403 . S
C1119 C1116 1.403 . S
C1119 C1120 1.524 . S
C1119 C1123 1.400 . S
C1120 H1105 0.960 . S
C1120 H1106 0.960 . S
C1120 H1107 0.960 . S
C1120 C1119 1.524 . S
C1121 C1118 1.403 . S
C1121 C1122 1.392 . S
C1121 C1125 1.495 . S
C1122 C1121 1.392 . S
C1122 C1123 1.385 . S
C1122 C1124 1.478 1_554 S
C1123 H1117 0.930 . S
C1123 C1119 1.400 . S
C1123 C1122 1.385 . S
C1124 C1122 1.478 1_556 S
C1124 C1126 1.381 . S
C1124 C1130 1.383 . S
C1125 C1121 1.495 . S
C1125 H1131 0.959 . S
C1125 H1132 0.961 . S
C1125 H1133 0.960 . S
C1126 C1124 1.381 . S
C1126 C1127 1.394 . S
C1126 H1134 0.930 . S
C1127 C1126 1.394 . S
C1127 C1128 1.383 . S
C1127 H1135 0.929 . S
C1128 C1127 1.383 . S
C1128 C1129 1.377 . S
C1129 H1113 0.930 . S
C1129 C1128 1.377 . S
C1129 C1130 1.379 . S
C1130 H1114 0.931 . S
C1130 C1124 1.383 . S
C1130 C1129 1.379 . S
H1131 C1125 0.959 . S
H1132 C1125 0.961 . S
H1133 C1125 0.960 . S
H1134 C1126 0.930 . S
H1135 C1127 0.929 . S
H1136 C1144 0.929 . S
H1137 C1146 0.930 . S
H1138 C1148 0.930 . S
H1139 C1151 0.929 . S
H1140 C1154 0.930 . S
H1141 C1156 0.960 . S
H1142 C1156 0.960 . S
H1143 C1156 0.960 . S
C1144 H1136 0.929 . S
C1144 C1145 1.377 . S
C1144 C1146 1.384 . S
C1145 C1144 1.377 . S
C1145 C1151 1.390 . S
C1146 H1137 0.930 . S
C1146 C1144 1.384 . S
C1146 C1147 1.372 . S
C1147 C1146 1.372 . S
C1147 C1148 1.400 . S
C1147 C1152 1.490 . S
C1148 H1138 0.930 . S
C1148 C1147 1.400 . S
C1148 C1151 1.386 . S
H1149 C1165 0.930 . S
H1150 C1166 0.931 . S
C1151 H1139 0.929 . S
C1151 C1145 1.390 . S
C1151 C1148 1.386 . S
C1152 C1147 1.490 . S
C1152 C1154 1.395 . S
C1152 C1155 1.403 . S
H1153 C1159 0.930 . S
C1154 H1140 0.930 . S
C1154 C1152 1.395 . S
C1154 C1157 1.403 . S
C1155 C1152 1.403 . S
C1155 C1156 1.524 . S
C1155 C1159 1.400 . S
C1156 H1141 0.960 . S
C1156 H1142 0.960 . S
C1156 H1143 0.960 . S
C1156 C1155 1.524 . S
C1157 C1154 1.403 . S
C1157 C1158 1.392 . S
C1157 C1161 1.495 . S
C1158 C1157 1.392 . S
C1158 C1159 1.385 . S
C1158 C1160 1.478 . S
C1159 H1153 0.930 . S
C1159 C1155 1.400 . S
C1159 C1158 1.385 . S
C1160 C1158 1.478 . S
C1160 C1162 1.381 . S
C1160 C1166 1.383 . S
C1161 C1157 1.495 . S
C1161 H1167 0.959 . S
C1161 H1168 0.961 . S
C1161 H1169 0.960 . S
C1162 C1160 1.381 . S
C1162 C1163 1.394 . S
C1162 H1170 0.930 . S
C1163 C1162 1.394 . S
C1163 C1164 1.383 . S
C1163 H1171 0.929 . S
C1164 C1163 1.383 . S
C1164 C1165 1.377 . S
C1165 H1149 0.930 . S
C1165 C1164 1.377 . S
C1165 C1166 1.379 . S
C1166 H1150 0.931 . S
C1166 C1160 1.383 . S
C1166 C1165 1.379 . S
H1167 C1161 0.959 . S
H1168 C1161 0.961 . S
H1169 C1161 0.960 . S
H1170 C1162 0.930 . S
H1171 C1163 0.929 . S
H1172 C1180 0.929 . S
H1173 C1182 0.930 . S
H1174 C1184 0.930 . S
H1175 C1187 0.929 . S
H1176 C1190 0.930 . S
H1177 C1192 0.960 . S
H1178 C1192 0.960 . S
H1179 C1192 0.960 . S
C1180 H1172 0.929 . S
C1180 C1181 1.377 . S
C1180 C1182 1.384 . S
C1181 C1180 1.377 . S
C1181 C1187 1.390 . S
C1182 H1173 0.930 . S
C1182 C1180 1.384 . S
C1182 C1183 1.372 . S
C1183 C1182 1.372 . S
C1183 C1184 1.400 . S
C1183 C1188 1.490 . S
C1184 H1174 0.930 . S
C1184 C1183 1.400 . S
C1184 C1187 1.386 . S
H1185 C1201 0.930 . S
H1186 C1202 0.931 . S
C1187 H1175 0.929 . S
C1187 C1181 1.390 . S
C1187 C1184 1.386 . S
C1188 C1183 1.490 . S
C1188 C1190 1.395 . S
C1188 C1191 1.403 . S
H1189 C1195 0.930 . S
C1190 H1176 0.930 . S
C1190 C1188 1.395 . S
C1190 C1193 1.403 . S
C1191 C1188 1.403 . S
C1191 C1192 1.524 . S
C1191 C1195 1.400 . S
C1192 H1177 0.960 . S
C1192 H1178 0.960 . S
C1192 H1179 0.960 . S
C1192 C1191 1.524 . S
C1193 C1190 1.403 . S
C1193 C1194 1.392 . S
C1193 C1197 1.495 . S
C1194 C1193 1.392 . S
C1194 C1195 1.385 . S
C1194 C1196 1.478 . S
C1195 H1189 0.930 . S
C1195 C1191 1.400 . S
C1195 C1194 1.385 . S
C1196 C1194 1.478 . S
C1196 C1198 1.381 . S
C1196 C1202 1.383 . S
C1197 C1193 1.495 . S
C1197 H1203 0.959 . S
C1197 H1204 0.961 . S
C1197 H1205 0.960 . S
C1198 C1196 1.381 . S
C1198 C1199 1.394 . S
C1198 H1206 0.930 . S
C1199 C1198 1.394 . S
C1199 C1200 1.383 . S
C1199 H1207 0.929 . S
C1200 C1199 1.383 . S
C1200 C1201 1.377 . S
C1201 H1185 0.930 . S
C1201 C1200 1.377 . S
C1201 C1202 1.379 . S
C1202 H1186 0.931 . S
C1202 C1196 1.383 . S
C1202 C1201 1.379 . S
H1203 C1197 0.959 . S
H1204 C1197 0.961 . S
H1205 C1197 0.960 . S
H1206 C1198 0.930 . S
H1207 C1199 0.929 . S
H1208 C1216 0.929 1_655 S
H1209 C1218 0.930 . S
H1210 C1220 0.930 . S
H1211 C1223 0.929 . S
H1212 C1226 0.930 . S
H1213 C1228 0.960 . S
H1214 C1228 0.960 . S
H1215 C1228 0.960 . S
C1216 H1208 0.929 1_455 S
C1216 C1217 1.377 . S
C1216 C1218 1.384 1_455 S
C1217 C1216 1.377 . S
C1217 C1223 1.390 . S
C1218 H1209 0.930 . S
C1218 C1216 1.384 1_655 S
C1218 C1219 1.372 1_655 S
C1219 C1218 1.372 1_455 S
C1219 C1220 1.400 . S
C1219 C1224 1.503 . S
C1220 H1210 0.930 . S
C1220 C1219 1.400 . S
C1220 C1223 1.386 . S
H1221 C1237 0.902 1_455 S
H1222 C1238 0.917 1_455 S
C1223 H1211 0.929 . S
C1223 C1217 1.390 . S
C1223 C1220 1.386 . S
C1224 C1219 1.503 . S
C1224 C1226 1.413 . S
C1224 C1227 1.375 1_455 S
H1225 C1231 0.930 . S
C1226 H1212 0.930 . S
C1226 C1224 1.413 . S
C1226 C1229 1.403 . S
C1227 C1224 1.375 1_655 S
C1227 C1228 1.524 . S
C1227 C1231 1.400 . S
C1228 H1213 0.960 . S
C1228 H1214 0.960 . S
C1228 H1215 0.960 . S
C1228 C1227 1.524 . S
C1229 C1226 1.403 . S
C1229 C1230 1.392 1_455 S
C1229 C1233 1.495 . S
C1230 C1229 1.392 1_655 S
C1230 C1231 1.385 . S
C1230 C1232 1.478 . S
C1231 H1225 0.930 . S
C1231 C1227 1.400 . S
C1231 C1230 1.385 . S
C1232 C1230 1.478 . S
C1232 C1234 1.381 . S
C1232 C1238 1.392 . S
C1233 C1229 1.495 . S
C1233 H1239 0.959 . S
C1233 H1240 0.961 . S
C1233 H1241 0.950 1_455 S
C1234 C1232 1.381 . S
C1234 C1235 1.394 . S
C1234 H1242 0.930 . S
C1235 C1234 1.394 . S
C1235 C1236 1.383 . S
C1235 H1243 0.929 . S
C1236 C1235 1.383 . S
C1236 C1237 1.377 . S
C1237 H1221 0.902 1_655 S
C1237 C1236 1.377 . S
C1237 C1238 1.384 . S
C1238 H1222 0.917 1_655 S
C1238 C1232 1.392 . S
C1238 C1237 1.384 . S
H1239 C1233 0.959 . S
H1240 C1233 0.961 . S
H1241 C1233 0.950 1_655 S
H1242 C1234 0.930 . S
H1243 C1235 0.929 . S
H1244 C1252 0.929 . S
H1245 C1254 0.930 . S
H1246 C1256 0.930 . S
H1247 C1259 0.929 . S
H1248 C1262 0.930 . S
H1249 C1264 0.960 . S
H1250 C1264 0.960 . S
H1251 C1264 0.960 . S
C1252 H1244 0.929 . S
C1252 C1253 1.377 . S
C1252 C1254 1.384 . S
C1253 C1252 1.377 . S
C1253 C1259 1.390 . S
C1254 H1245 0.930 . S
C1254 C1252 1.384 . S
C1254 C1255 1.372 . S
C1255 C1254 1.372 . S
C1255 C1256 1.400 . S
C1255 C1260 1.490 1_554 S
C1256 H1246 0.930 . S
C1256 C1255 1.400 . S
C1256 C1259 1.386 . S
H1257 C1273 0.930 . S
H1258 C1274 0.931 . S
C1259 H1247 0.929 . S
C1259 C1253 1.390 . S
C1259 C1256 1.386 . S
C1260 C1255 1.490 1_556 S
C1260 C1262 1.395 . S
C1260 C1263 1.403 . S
H1261 C1267 0.930 . S
C1262 H1248 0.930 . S
C1262 C1260 1.395 . S
C1262 C1265 1.403 . S
C1263 C1260 1.403 . S
C1263 C1264 1.524 . S
C1263 C1267 1.400 . S
C1264 H1249 0.960 . S
C1264 H1250 0.960 . S
C1264 H1251 0.960 . S
C1264 C1263 1.524 . S
C1265 C1262 1.403 . S
C1265 C1266 1.392 . S
C1265 C1269 1.495 . S
C1266 C1265 1.392 . S
C1266 C1267 1.385 . S
C1266 C1268 1.478 . S
C1267 H1261 0.930 . S
C1267 C1263 1.400 . S
C1267 C1266 1.385 . S
C1268 C1266 1.478 . S
C1268 C1270 1.381 . S
C1268 C1274 1.383 . S
C1269 C1265 1.495 . S
C1269 H1275 0.959 . S
C1269 H1276 0.961 . S
C1269 H1277 0.960 . S
C1270 C1268 1.381 . S
C1270 C1271 1.394 . S
C1270 H1278 0.930 . S
C1271 C1270 1.394 . S
C1271 C1272 1.383 . S
C1271 H1279 0.929 . S
C1272 C1271 1.383 . S
C1272 C1273 1.377 . S
C1273 H1257 0.930 . S
C1273 C1272 1.377 . S
C1273 C1274 1.379 . S
C1274 H1258 0.931 . S
C1274 C1268 1.383 . S
C1274 C1273 1.379 . S
H1275 C1269 0.959 . S
H1276 C1269 0.961 . S
H1277 C1269 0.960 . S
H1278 C1270 0.930 . S
H1279 C1271 0.929 . S
H1280 C1288 0.929 . S
H1281 C1290 0.930 . S
H1282 C1292 0.930 . S
H1283 C1295 0.929 . S
H1284 C1298 0.930 . S
H1285 C1300 0.960 . S
H1286 C1300 0.960 . S
H1287 C1300 0.960 . S
C1288 H1280 0.929 . S
C1288 C1289 1.377 . S
C1288 C1290 1.384 . S
C1289 C1288 1.377 . S
C1289 C1295 1.390 . S
C1290 H1281 0.930 . S
C1290 C1288 1.384 . S
C1290 C1291 1.372 . S
C1291 C1290 1.372 . S
C1291 C1292 1.400 . S
C1291 C1296 1.490 . S
C1292 H1282 0.930 . S
C1292 C1291 1.400 . S
C1292 C1295 1.386 . S
H1293 C1309 0.930 . S
H1294 C1310 0.931 . S
C1295 H1283 0.929 . S
C1295 C1289 1.390 . S
C1295 C1292 1.386 . S
C1296 C1291 1.490 . S
C1296 C1298 1.395 . S
C1296 C1299 1.403 . S
H1297 C1303 0.930 . S
C1298 H1284 0.930 . S
C1298 C1296 1.395 . S
C1298 C1301 1.403 . S
C1299 C1296 1.403 . S
C1299 C1300 1.524 . S
C1299 C1303 1.400 . S
C1300 H1285 0.960 . S
C1300 H1286 0.960 . S
C1300 H1287 0.960 . S
C1300 C1299 1.524 . S
C1301 C1298 1.403 . S
C1301 C1302 1.392 . S
C1301 C1305 1.495 . S
C1302 C1301 1.392 . S
C1302 C1303 1.385 . S
C1302 C1304 1.478 . S
C1303 H1297 0.930 . S
C1303 C1299 1.400 . S
C1303 C1302 1.385 . S
C1304 C1302 1.478 . S
C1304 C1306 1.381 . S
C1304 C1310 1.383 . S
C1305 C1301 1.495 . S
C1305 H1311 0.959 . S
C1305 H1312 0.961 . S
C1305 H1313 0.960 . S
C1306 C1304 1.381 . S
C1306 C1307 1.394 . S
C1306 H1314 0.930 . S
C1307 C1306 1.394 . S
C1307 C1308 1.383 . S
C1307 H1315 0.929 . S
C1308 C1307 1.383 . S
C1308 C1309 1.377 . S
C1309 H1293 0.930 . S
C1309 C1308 1.377 . S
C1309 C1310 1.379 . S
C1310 H1294 0.931 . S
C1310 C1304 1.383 . S
C1310 C1309 1.379 . S
H1311 C1305 0.959 . S
H1312 C1305 0.961 . S
H1313 C1305 0.960 . S
H1314 C1306 0.930 . S
H1315 C1307 0.929 . S
H1316 C1324 0.929 . S
H1317 C1326 0.930 . S
H1318 C1328 0.930 . S
H1319 C1331 0.929 . S
H1320 C1334 0.930 . S
H1321 C1336 0.960 . S
H1322 C1336 0.960 . S
H1323 C1336 0.960 . S
C1324 H1316 0.929 . S
C1324 C1325 1.377 . S
C1324 C1326 1.384 . S
C1325 C1324 1.377 . S
C1325 C1331 1.390 . S
C1326 H1317 0.930 . S
C1326 C1324 1.384 . S
C1326 C1327 1.372 . S
C1327 C1326 1.372 . S
C1327 C1328 1.400 . S
C1327 C1332 1.490 . S
C1328 H1318 0.930 . S
C1328 C1327 1.400 . S
C1328 C1331 1.386 . S
H1329 C1345 0.930 . S
H1330 C1346 0.931 . S
C1331 H1319 0.929 . S
C1331 C1325 1.390 . S
C1331 C1328 1.386 . S
C1332 C1327 1.490 . S
C1332 C1334 1.395 . S
C1332 C1335 1.403 . S
H1333 C1339 0.930 . S
C1334 H1320 0.930 . S
C1334 C1332 1.395 . S
C1334 C1337 1.403 . S
C1335 C1332 1.403 . S
C1335 C1336 1.524 . S
C1335 C1339 1.400 . S
C1336 H1321 0.960 . S
C1336 H1322 0.960 . S
C1336 H1323 0.960 . S
C1336 C1335 1.524 . S
C1337 C1334 1.403 . S
C1337 C1338 1.392 . S
C1337 C1341 1.495 . S
C1338 C1337 1.392 . S
C1338 C1339 1.385 . S
C1338 C1340 1.478 . S
C1339 H1333 0.930 . S
C1339 C1335 1.400 . S
C1339 C1338 1.385 . S
C1340 C1338 1.478 . S
C1340 C1342 1.381 . S
C1340 C1346 1.383 . S
C1341 C1337 1.495 . S
C1341 H1347 0.959 . S
C1341 H1348 0.961 . S
C1341 H1349 0.960 . S
C1342 C1340 1.381 . S
C1342 C1343 1.394 . S
C1342 H1350 0.930 . S
C1343 C1342 1.394 . S
C1343 C1344 1.383 . S
C1343 H1351 0.929 . S
C1344 C1343 1.383 . S
C1344 C1345 1.377 . S
C1345 H1329 0.930 . S
C1345 C1344 1.377 . S
C1345 C1346 1.379 . S
C1346 H1330 0.931 . S
C1346 C1340 1.383 . S
C1346 C1345 1.379 . S
H1347 C1341 0.959 . S
H1348 C1341 0.961 . S
H1349 C1341 0.960 . S
H1350 C1342 0.930 . S
H1351 C1343 0.929 . S
H1352 C1360 0.928 1_655 S
H1353 C1362 0.930 . S
H1354 C1364 0.930 . S
H1355 C1367 0.929 . S
H1356 C1370 0.930 . S
H1357 C1372 0.960 . S
H1358 C1372 0.960 . S
H1359 C1372 0.960 . S
C1360 H1352 0.928 1_455 S
C1360 C1361 1.379 . S
C1360 C1362 1.383 1_455 S
C1361 C1360 1.379 . S
C1361 C1367 1.390 . S
C1362 H1353 0.930 . S
C1362 C1360 1.383 1_655 S
C1362 C1363 1.372 1_655 S
C1363 C1362 1.372 1_455 S
C1363 C1364 1.400 . S
C1363 C1368 1.490 . S
C1364 H1354 0.930 . S
C1364 C1363 1.400 . S
C1364 C1367 1.386 . S
H1365 C1381 0.930 . S
H1366 C1382 0.931 . S
C1367 H1355 0.929 . S
C1367 C1361 1.390 . S
C1367 C1364 1.386 . S
C1368 C1363 1.490 . S
C1368 C1370 1.395 1_455 S
C1368 C1371 1.403 . S
H1369 C1375 0.930 . S
C1370 H1356 0.930 . S
C1370 C1368 1.395 1_655 S
C1370 C1373 1.403 . S
C1371 C1368 1.403 . S
C1371 C1372 1.524 . S
C1371 C1375 1.400 . S
C1372 H1357 0.960 . S
C1372 H1358 0.960 . S
C1372 H1359 0.960 . S
C1372 C1371 1.524 . S
C1373 C1370 1.403 . S
C1373 C1374 1.392 . S
C1373 C1377 1.495 . S
C1374 C1373 1.392 . S
C1374 C1375 1.385 1_655 S
C1374 C1376 1.478 . S
C1375 H1369 0.930 . S
C1375 C1371 1.400 . S
C1375 C1374 1.385 1_455 S
C1376 C1374 1.478 . S
C1376 C1378 1.381 . S
C1376 C1382 1.383 1_655 S
C1377 C1373 1.495 . S
C1377 H1383 0.959 . S
C1377 H1384 0.961 . S
C1377 H1385 0.960 . S
C1378 C1376 1.381 . S
C1378 C1379 1.394 . S
C1378 H1386 0.930 . S
C1379 C1378 1.394 . S
C1379 C1380 1.383 . S
C1379 H1387 0.929 . S
C1380 C1379 1.383 . S
C1380 C1381 1.377 1_655 S
C1381 H1365 0.930 . S
C1381 C1380 1.377 1_455 S
C1381 C1382 1.379 . S
C1382 H1366 0.931 . S
C1382 C1376 1.383 1_455 S
C1382 C1381 1.379 . S
H1383 C1377 0.959 . S
H1384 C1377 0.961 . S
H1385 C1377 0.960 . S
H1386 C1378 0.930 . S
H1387 C1379 0.929 . S
H1388 C1396 0.929 . S
H1389 C1398 0.930 . S
H1390 C1400 0.930 . S
H1391 C1403 0.929 . S
H1392 C1406 0.930 . S
H1393 C1408 0.960 . S
H1394 C1408 0.960 . S
H1395 C1408 0.960 . S
C1396 H1388 0.929 . S
C1396 C1397 1.377 . S
C1396 C1398 1.384 . S
C1397 C1396 1.377 . S
C1397 C1403 1.390 . S
C1398 H1389 0.930 . S
C1398 C1396 1.384 . S
C1398 C1399 1.372 . S
C1399 C1398 1.372 . S
C1399 C1400 1.400 . S
C1399 C1404 1.490 . S
C1400 H1390 0.930 . S
C1400 C1399 1.400 . S
C1400 C1403 1.386 . S
H1401 C1417 0.930 . S
H1402 C1418 0.931 . S
C1403 H1391 0.929 . S
C1403 C1397 1.390 . S
C1403 C1400 1.386 . S
C1404 C1399 1.490 . S
C1404 C1406 1.395 . S
C1404 C1407 1.403 . S
H1405 C1411 0.930 . S
C1406 H1392 0.930 . S
C1406 C1404 1.395 . S
C1406 C1409 1.403 . S
C1407 C1404 1.403 . S
C1407 C1408 1.524 . S
C1407 C1411 1.400 . S
C1408 H1393 0.960 . S
C1408 H1394 0.960 . S
C1408 H1395 0.960 . S
C1408 C1407 1.524 . S
C1409 C1406 1.403 . S
C1409 C1410 1.392 . S
C1409 C1413 1.495 . S
C1410 C1409 1.392 . S
C1410 C1411 1.385 . S
C1410 C1412 1.478 1_556 S
C1411 H1405 0.930 . S
C1411 C1407 1.400 . S
C1411 C1410 1.385 . S
C1412 C1410 1.478 1_554 S
C1412 C1414 1.381 . S
C1412 C1418 1.383 . S
C1413 C1409 1.495 . S
C1413 H1419 0.959 . S
C1413 H1420 0.961 . S
C1413 H1421 0.960 . S
C1414 C1412 1.381 . S
C1414 C1415 1.394 . S
C1414 H1422 0.930 . S
C1415 C1414 1.394 . S
C1415 C1416 1.383 . S
C1415 H1423 0.929 . S
C1416 C1415 1.383 . S
C1416 C1417 1.377 . S
C1417 H1401 0.930 . S
C1417 C1416 1.377 . S
C1417 C1418 1.379 . S
C1418 H1402 0.931 . S
C1418 C1412 1.383 . S
C1418 C1417 1.379 . S
H1419 C1413 0.959 . S
H1420 C1413 0.961 . S
H1421 C1413 0.960 . S
H1422 C1414 0.930 . S
H1423 C1415 0.929 . S
H1424 C1432 0.929 . S
H1425 C1434 0.930 . S
H1426 C1436 0.930 . S
H1427 C1439 0.929 . S
H1428 C1442 0.930 . S
H1429 C1444 0.960 . S
H1430 C1444 0.960 . S
H1431 C1444 0.960 . S
C1432 H1424 0.929 . S
C1432 C1433 1.377 . S
C1432 C1434 1.384 . S
C1433 C1432 1.377 . S
C1433 C1439 1.390 . S
C1434 H1425 0.930 . S
C1434 C1432 1.384 . S
C1434 C1435 1.372 . S
C1435 C1434 1.372 . S
C1435 C1436 1.400 . S
C1435 C1440 1.490 . S
C1436 H1426 0.930 . S
C1436 C1435 1.400 . S
C1436 C1439 1.386 . S
H1437 C1453 0.930 . S
H1438 C1454 0.931 . S
C1439 H1427 0.929 . S
C1439 C1433 1.390 . S
C1439 C1436 1.386 . S
C1440 C1435 1.490 . S
C1440 C1442 1.395 . S
C1440 C1443 1.403 . S
H1441 C1447 0.930 . S
C1442 H1428 0.930 . S
C1442 C1440 1.395 . S
C1442 C1445 1.403 . S
C1443 C1440 1.403 . S
C1443 C1444 1.524 . S
C1443 C1447 1.400 . S
C1444 H1429 0.960 . S
C1444 H1430 0.960 . S
C1444 H1431 0.960 . S
C1444 C1443 1.524 . S
C1445 C1442 1.403 . S
C1445 C1446 1.392 . S
C1445 C1449 1.495 . S
C1446 C1445 1.392 . S
C1446 C1447 1.385 . S
C1446 C1448 1.478 . S
C1447 H1441 0.930 . S
C1447 C1443 1.400 . S
C1447 C1446 1.385 . S
C1448 C1446 1.478 . S
C1448 C1450 1.381 . S
C1448 C1454 1.383 . S
C1449 C1445 1.495 . S
C1449 H1455 0.959 . S
C1449 H1456 0.961 . S
C1449 H1457 0.960 . S
C1450 C1448 1.381 . S
C1450 C1451 1.394 . S
C1450 H1458 0.930 . S
C1451 C1450 1.394 . S
C1451 C1452 1.383 . S
C1451 H1459 0.929 . S
C1452 C1451 1.383 . S
C1452 C1453 1.377 . S
C1453 H1437 0.930 . S
C1453 C1452 1.377 . S
C1453 C1454 1.379 . S
C1454 H1438 0.931 . S
C1454 C1448 1.383 . S
C1454 C1453 1.379 . S
H1455 C1449 0.959 . S
H1456 C1449 0.961 . S
H1457 C1449 0.960 . S
H1458 C1450 0.930 . S
H1459 C1451 0.929 . S
H1460 C1468 0.929 . S
H1461 C1470 0.930 . S
H1462 C1472 0.930 . S
H1463 C1475 0.929 . S
H1464 C1478 0.930 . S
H1465 C1480 0.960 . S
H1466 C1480 0.960 . S
H1467 C1480 0.960 . S
C1468 H1460 0.929 . S
C1468 C1469 1.377 . S
C1468 C1470 1.384 . S
C1469 C1468 1.377 . S
C1469 C1475 1.390 . S
C1470 H1461 0.930 . S
C1470 C1468 1.384 . S
C1470 C1471 1.372 . S
C1471 C1470 1.372 . S
C1471 C1472 1.400 . S
C1471 C1476 1.490 . S
C1472 H1462 0.930 . S
C1472 C1471 1.400 . S
C1472 C1475 1.386 . S
H1473 C1489 0.930 . S
H1474 C1490 0.931 . S
C1475 H1463 0.929 . S
C1475 C1469 1.390 . S
C1475 C1472 1.386 . S
C1476 C1471 1.490 . S
C1476 C1478 1.395 . S
C1476 C1479 1.403 . S
H1477 C1483 0.930 . S
C1478 H1464 0.930 . S
C1478 C1476 1.395 . S
C1478 C1481 1.403 . S
C1479 C1476 1.403 . S
C1479 C1480 1.524 . S
C1479 C1483 1.400 . S
C1480 H1465 0.960 . S
C1480 H1466 0.960 . S
C1480 H1467 0.960 . S
C1480 C1479 1.524 . S
C1481 C1478 1.403 . S
C1481 C1482 1.392 . S
C1481 C1485 1.495 . S
C1482 C1481 1.392 . S
C1482 C1483 1.385 . S
C1482 C1484 1.478 . S
C1483 H1477 0.930 . S
C1483 C1479 1.400 . S
C1483 C1482 1.385 . S
C1484 C1482 1.478 . S
C1484 C1486 1.381 . S
C1484 C1490 1.383 . S
C1485 C1481 1.495 . S
C1485 H1491 0.959 . S
C1485 H1492 0.961 . S
C1485 H1493 0.960 . S
C1486 C1484 1.381 . S
C1486 C1487 1.394 . S
C1486 H1494 0.930 . S
C1487 C1486 1.394 . S
C1487 C1488 1.383 . S
C1487 H1495 0.929 . S
C1488 C1487 1.383 . S
C1488 C1489 1.377 . S
C1489 H1473 0.930 . S
C1489 C1488 1.377 . S
C1489 C1490 1.379 . S
C1490 H1474 0.931 . S
C1490 C1484 1.383 . S
C1490 C1489 1.379 . S
H1491 C1485 0.959 . S
H1492 C1485 0.961 . S
H1493 C1485 0.960 . S
H1494 C1486 0.930 . S
H1495 C1487 0.929 . S
H1496 C1504 0.907 1_455 S
H1497 C1506 0.930 . S
H1498 C1508 0.930 . S
H1499 C1511 0.929 . S
H1500 C1514 0.930 . S
H1501 C1516 0.960 . S
H1502 C1516 0.960 . S
H1503 C1516 0.960 . S
C1504 H1496 0.907 1_655 S
C1504 C1505 1.413 . S
C1504 C1506 1.373 1_655 S
C1505 C1504 1.413 . S
C1505 C1511 1.390 . S
C1506 H1497 0.930 . S
C1506 C1504 1.373 1_455 S
C1506 C1507 1.372 1_455 S
C1507 C1506 1.372 1_655 S
C1507 C1508 1.400 . S
C1507 C1512 1.492 . S
C1508 H1498 0.930 . S
C1508 C1507 1.400 . S
C1508 C1511 1.386 . S
H1509 C1525 0.930 . S
H1510 C1526 0.896 1_655 S
C1511 H1499 0.929 . S
C1511 C1505 1.390 . S
C1511 C1508 1.386 . S
C1512 C1507 1.492 . S
C1512 C1514 1.388 1_655 S
C1512 C1515 1.408 . S
H1513 C1519 0.930 . S
C1514 H1500 0.930 . S
C1514 C1512 1.388 1_455 S
C1514 C1517 1.403 . S
C1515 C1512 1.408 . S
C1515 C1516 1.524 . S
C1515 C1519 1.400 . S
C1516 H1501 0.960 . S
C1516 H1502 0.960 . S
C1516 H1503 0.960 . S
C1516 C1515 1.524 . S
C1517 C1514 1.403 . S
C1517 C1518 1.392 . S
C1517 C1521 1.495 . S
C1518 C1517 1.392 . S
C1518 C1519 1.385 1_455 S
C1518 C1520 1.478 . S
C1519 H1513 0.930 . S
C1519 C1515 1.400 . S
C1519 C1518 1.385 1_655 S
C1520 C1518 1.478 . S
C1520 C1522 1.381 . S
C1520 C1526 1.383 . S
C1521 C1517 1.495 . S
C1521 H1527 0.959 . S
C1521 H1528 0.961 . S
C1521 H1529 0.960 . S
C1522 C1520 1.381 . S
C1522 C1523 1.394 . S
C1522 H1530 0.930 . S
C1523 C1522 1.394 . S
C1523 C1524 1.383 . S
C1523 H1531 0.929 . S
C1524 C1523 1.383 . S
C1524 C1525 1.377 . S
C1525 H1509 0.930 . S
C1525 C1524 1.377 . S
C1525 C1526 1.379 . S
C1526 H1510 0.896 1_455 S
C1526 C1520 1.383 . S
C1526 C1525 1.379 . S
H1527 C1521 0.959 . S
H1528 C1521 0.961 . S
H1529 C1521 0.960 . S
H1530 C1522 0.930 . S
H1531 C1523 0.929 . S
H1532 C1540 0.929 . S
H1533 C1542 0.930 . S
H1534 C1544 0.930 . S
H1535 C1547 0.929 . S
H1536 C1550 0.930 . S
H1537 C1552 0.960 . S
H1538 C1552 0.960 . S
H1539 C1552 0.960 . S
C1540 H1532 0.929 . S
C1540 C1541 1.377 . S
C1540 C1542 1.384 . S
C1541 C1540 1.377 . S
C1541 C1547 1.390 . S
C1542 H1533 0.930 . S
C1542 C1540 1.384 . S
C1542 C1543 1.372 . S
C1543 C1542 1.372 . S
C1543 C1544 1.400 . S
C1543 C1548 1.490 . S
C1544 H1534 0.930 . S
C1544 C1543 1.400 . S
C1544 C1547 1.386 . S
H1545 C1561 0.930 . S
H1546 C1562 0.931 . S
C1547 H1535 0.929 . S
C1547 C1541 1.390 . S
C1547 C1544 1.386 . S
C1548 C1543 1.490 . S
C1548 C1550 1.395 . S
C1548 C1551 1.403 . S
H1549 C1555 0.930 . S
C1550 H1536 0.930 . S
C1550 C1548 1.395 . S
C1550 C1553 1.403 . S
C1551 C1548 1.403 . S
C1551 C1552 1.524 . S
C1551 C1555 1.400 . S
C1552 H1537 0.960 . S
C1552 H1538 0.960 . S
C1552 H1539 0.960 . S
C1552 C1551 1.524 . S
C1553 C1550 1.403 . S
C1553 C1554 1.392 . S
C1553 C1557 1.495 . S
C1554 C1553 1.392 . S
C1554 C1555 1.385 . S
C1554 C1556 1.478 1_554 S
C1555 H1549 0.930 . S
C1555 C1551 1.400 . S
C1555 C1554 1.385 . S
C1556 C1554 1.478 1_556 S
C1556 C1558 1.381 . S
C1556 C1562 1.383 . S
C1557 C1553 1.495 . S
C1557 H1563 0.959 . S
C1557 H1564 0.961 . S
C1557 H1565 0.960 . S
C1558 C1556 1.381 . S
C1558 C1559 1.394 . S
C1558 H1566 0.930 . S
C1559 C1558 1.394 . S
C1559 C1560 1.383 . S
C1559 H1567 0.929 . S
C1560 C1559 1.383 . S
C1560 C1561 1.377 . S
C1561 H1545 0.930 . S
C1561 C1560 1.377 . S
C1561 C1562 1.379 . S
C1562 H1546 0.931 . S
C1562 C1556 1.383 . S
C1562 C1561 1.379 . S
H1563 C1557 0.959 . S
H1564 C1557 0.961 . S
H1565 C1557 0.960 . S
H1566 C1558 0.930 . S
H1567 C1559 0.929 . S
H1568 C1576 0.929 . S
H1569 C1578 0.930 . S
H1570 C1580 0.930 . S
H1571 C1583 0.929 . S
H1572 C1586 0.930 . S
H1573 C1588 0.960 . S
H1574 C1588 0.960 . S
H1575 C1588 0.960 . S
C1576 H1568 0.929 . S
C1576 C1577 1.377 1_455 S
C1576 C1578 1.384 . S
C1577 C1576 1.377 1_655 S
C1577 C1583 1.390 . S
C1578 H1569 0.930 . S
C1578 C1576 1.384 . S
C1578 C1579 1.340 1_455 S
C1579 C1578 1.340 1_655 S
C1579 C1580 1.435 . S
C1579 C1584 1.487 1_655 S
C1580 H1570 0.930 . S
C1580 C1579 1.435 . S
C1580 C1583 1.386 . S
H1581 C1597 0.930 . S
H1582 C1598 0.924 1_554 S
C1583 H1571 0.929 . S
C1583 C1577 1.390 . S
C1583 C1580 1.386 . S
C1584 C1579 1.487 1_455 S
C1584 C1586 1.416 . S
C1584 C1587 1.384 1_454 S
H1585 C1591 0.930 . S
C1586 H1572 0.930 . S
C1586 C1584 1.416 . S
C1586 C1589 1.403 1_545 S
C1587 C1584 1.384 1_656 S
C1587 C1588 1.524 . S
C1587 C1591 1.400 1_545 S
C1588 H1573 0.960 . S
C1588 H1574 0.960 . S
C1588 H1575 0.960 . S
C1588 C1587 1.524 . S
C1589 C1586 1.403 1_565 S
C1589 C1590 1.392 1_554 S
C1589 C1593 1.495 . S
C1590 C1589 1.392 1_556 S
C1590 C1591 1.385 1_455 S
C1590 C1592 1.478 . S
C1591 H1585 0.930 . S
C1591 C1587 1.400 1_565 S
C1591 C1590 1.385 1_655 S
C1592 C1590 1.478 . S
C1592 C1594 1.381 . S
C1592 C1598 1.383 1_455 S
C1593 C1589 1.495 . S
C1593 H1599 0.959 . S
C1593 H1600 0.961 . S
C1593 H1601 0.960 . S
C1594 C1592 1.381 . S
C1594 C1595 1.394 . S
C1594 H1602 0.930 . S
C1595 C1594 1.394 . S
C1595 C1596 1.383 . S
C1595 H1603 0.929 . S
C1596 C1595 1.383 . S
C1596 C1597 1.377 1_455 S
C1597 H1581 0.930 . S
C1597 C1596 1.377 1_655 S
C1597 C1598 1.379 . S
C1598 H1582 0.924 1_556 S
C1598 C1592 1.383 1_655 S
C1598 C1597 1.379 . S
H1599 C1593 0.959 . S
H1600 C1593 0.961 . S
H1601 C1593 0.960 . S
H1602 C1594 0.930 . S
H1603 C1595 0.929 . S
H1604 C1612 0.929 . S
H1605 C1614 0.930 . S
H1606 C1616 0.930 . S
H1607 C1619 0.929 . S
H1608 C1622 0.930 . S
H1609 C1624 0.960 . S
H1610 C1624 0.960 . S
H1611 C1624 0.960 . S
C1612 H1604 0.929 . S
C1612 C1613 1.377 . S
C1612 C1614 1.384 . S
C1613 C1612 1.377 . S
C1613 C1619 1.390 . S
C1614 H1605 0.930 . S
C1614 C1612 1.384 . S
C1614 C1615 1.372 . S
C1615 C1614 1.372 . S
C1615 C1616 1.400 . S
C1615 C1620 1.490 . S
C1616 H1606 0.930 . S
C1616 C1615 1.400 . S
C1616 C1619 1.386 . S
H1617 C1633 0.930 . S
H1618 C1634 0.931 . S
C1619 H1607 0.929 . S
C1619 C1613 1.390 . S
C1619 C1616 1.386 . S
C1620 C1615 1.490 . S
C1620 C1622 1.395 . S
C1620 C1623 1.403 . S
H1621 C1627 0.930 . S
C1622 H1608 0.930 . S
C1622 C1620 1.395 . S
C1622 C1625 1.403 . S
C1623 C1620 1.403 . S
C1623 C1624 1.524 . S
C1623 C1627 1.400 . S
C1624 H1609 0.960 . S
C1624 H1610 0.960 . S
C1624 H1611 0.960 . S
C1624 C1623 1.524 . S
C1625 C1622 1.403 . S
C1625 C1626 1.392 . S
C1625 C1629 1.495 . S
C1626 C1625 1.392 . S
C1626 C1627 1.385 . S
C1626 C1628 1.478 . S
C1627 H1621 0.930 . S
C1627 C1623 1.400 . S
C1627 C1626 1.385 . S
C1628 C1626 1.478 . S
C1628 C1630 1.381 . S
C1628 C1634 1.383 . S
C1629 C1625 1.495 . S
C1629 H1635 0.959 . S
C1629 H1636 0.961 . S
C1629 H1637 0.960 . S
C1630 C1628 1.381 . S
C1630 C1631 1.394 . S
C1630 H1638 0.930 . S
C1631 C1630 1.394 . S
C1631 C1632 1.383 . S
C1631 H1639 0.929 . S
C1632 C1631 1.383 . S
C1632 C1633 1.377 . S
C1633 H1617 0.930 . S
C1633 C1632 1.377 . S
C1633 C1634 1.379 . S
C1634 H1618 0.931 . S
C1634 C1628 1.383 . S
C1634 C1633 1.379 . S
H1635 C1629 0.959 . S
H1636 C1629 0.961 . S
H1637 C1629 0.960 . S
H1638 C1630 0.930 . S
H1639 C1631 0.929 . S
H1640 C1648 0.929 . S
H1641 C1650 0.930 . S
H1642 C1652 0.930 . S
H1643 C1655 0.929 . S
H1644 C1658 0.930 . S
H1645 C1660 0.960 . S
H1646 C1660 0.960 . S
H1647 C1660 0.960 . S
C1648 H1640 0.929 . S
C1648 C1649 1.377 . S
C1648 C1650 1.384 . S
C1649 C1648 1.377 . S
C1649 C1655 1.390 . S
C1650 H1641 0.930 . S
C1650 C1648 1.384 . S
C1650 C1651 1.372 . S
C1651 C1650 1.372 . S
C1651 C1652 1.400 . S
C1651 C1656 1.490 . S
C1652 H1642 0.930 . S
C1652 C1651 1.400 . S
C1652 C1655 1.386 . S
H1653 C1669 0.930 . S
H1654 C1670 0.931 . S
C1655 H1643 0.929 . S
C1655 C1649 1.390 . S
C1655 C1652 1.386 . S
C1656 C1651 1.490 . S
C1656 C1658 1.395 . S
C1656 C1659 1.403 . S
H1657 C1663 0.930 . S
C1658 H1644 0.930 . S
C1658 C1656 1.395 . S
C1658 C1661 1.403 1_545 S
C1659 C1656 1.403 . S
C1659 C1660 1.524 . S
C1659 C1663 1.400 1_545 S
C1660 H1645 0.960 . S
C1660 H1646 0.960 . S
C1660 H1647 0.960 . S
C1660 C1659 1.524 . S
C1661 C1658 1.403 1_565 S
C1661 C1662 1.392 . S
C1661 C1665 1.495 . S
C1662 C1661 1.392 . S
C1662 C1663 1.385 . S
C1662 C1664 1.478 . S
C1663 H1657 0.930 . S
C1663 C1659 1.400 1_565 S
C1663 C1662 1.385 . S
C1664 C1662 1.478 . S
C1664 C1666 1.381 . S
C1664 C1670 1.383 . S
C1665 C1661 1.495 . S
C1665 H1671 0.959 . S
C1665 H1672 0.961 . S
C1665 H1673 0.960 . S
C1666 C1664 1.381 . S
C1666 C1667 1.394 . S
C1666 H1674 0.930 . S
C1667 C1666 1.394 . S
C1667 C1668 1.383 . S
C1667 H1675 0.929 . S
C1668 C1667 1.383 . S
C1668 C1669 1.377 . S
C1669 H1653 0.930 . S
C1669 C1668 1.377 . S
C1669 C1670 1.379 . S
C1670 H1654 0.931 . S
C1670 C1664 1.383 . S
C1670 C1669 1.379 . S
H1671 C1665 0.959 . S
H1672 C1665 0.961 . S
H1673 C1665 0.960 . S
H1674 C1666 0.930 . S
H1675 C1667 0.929 . S
H1676 C1684 0.929 . S
H1677 C1686 0.930 . S
H1678 C1688 0.930 . S
H1679 C1691 0.929 . S
H1680 C1694 0.930 . S
H1681 C1696 0.960 . S
H1682 C1696 0.960 . S
H1683 C1696 0.960 . S
C1684 H1676 0.929 . S
C1684 C1685 1.377 . S
C1684 C1686 1.384 . S
C1685 C1684 1.377 . S
C1685 C1691 1.390 . S
C1686 H1677 0.930 . S
C1686 C1684 1.384 . S
C1686 C1687 1.372 . S
C1687 C1686 1.372 . S
C1687 C1688 1.400 . S
C1687 C1692 1.490 . S
C1688 H1678 0.930 . S
C1688 C1687 1.400 . S
C1688 C1691 1.386 . S
H1689 C1705 0.930 . S
H1690 C1706 0.931 . S
C1691 H1679 0.929 . S
C1691 C1685 1.390 . S
C1691 C1688 1.386 . S
C1692 C1687 1.490 . S
C1692 C1694 1.395 . S
C1692 C1695 1.403 . S
H1693 C1699 0.930 . S
C1694 H1680 0.930 . S
C1694 C1692 1.395 . S
C1694 C1697 1.403 . S
C1695 C1692 1.403 . S
C1695 C1696 1.524 . S
C1695 C1699 1.400 . S
C1696 H1681 0.960 . S
C1696 H1682 0.960 . S
C1696 H1683 0.960 . S
C1696 C1695 1.524 . S
C1697 C1694 1.403 . S
C1697 C1698 1.392 . S
C1697 C1701 1.495 . S
C1698 C1697 1.392 . S
C1698 C1699 1.385 . S
C1698 C1700 1.478 . S
C1699 H1693 0.930 . S
C1699 C1695 1.400 . S
C1699 C1698 1.385 . S
C1700 C1698 1.478 . S
C1700 C1702 1.381 . S
C1700 C1706 1.383 . S
C1701 C1697 1.495 . S
C1701 H1707 0.959 . S
C1701 H1708 0.961 . S
C1701 H1709 0.960 . S
C1702 C1700 1.381 . S
C1702 C1703 1.394 . S
C1702 H1710 0.930 . S
C1703 C1702 1.394 . S
C1703 C1704 1.383 . S
C1703 H1711 0.929 . S
C1704 C1703 1.383 . S
C1704 C1705 1.377 . S
C1705 H1689 0.930 . S
C1705 C1704 1.377 . S
C1705 C1706 1.379 . S
C1706 H1690 0.931 . S
C1706 C1700 1.383 . S
C1706 C1705 1.379 . S
H1707 C1701 0.959 . S
H1708 C1701 0.961 . S
H1709 C1701 0.960 . S
H1710 C1702 0.930 . S
H1711 C1703 0.929 . S
H1712 C1720 0.929 . S
H1713 C1722 0.930 . S
H1714 C1724 0.930 . S
H1715 C1727 0.929 . S
H1716 C1730 0.930 . S
H1717 C1732 0.960 . S
H1718 C1732 0.960 1_455 S
H1719 C1732 0.960 . S
C1720 H1712 0.929 . S
C1720 C1721 1.377 1_455 S
C1720 C1722 1.384 . S
C1721 C1720 1.377 1_655 S
C1721 C1727 1.390 . S
C1722 H1713 0.930 . S
C1722 C1720 1.384 . S
C1722 C1723 1.345 1_455 S
C1723 C1722 1.345 1_655 S
C1723 C1724 1.429 . S
C1723 C1728 1.489 1_655 S
C1724 H1714 0.930 . S
C1724 C1723 1.429 . S
C1724 C1727 1.386 . S
H1725 C1741 0.930 . S
H1726 C1742 0.931 . S
C1727 H1715 0.929 . S
C1727 C1721 1.390 . S
C1727 C1724 1.386 . S
C1728 C1723 1.489 1_455 S
C1728 C1730 1.396 . S
C1728 C1731 1.399 1_455 S
H1729 C1735 0.933 . S
C1730 H1716 0.930 . S
C1730 C1728 1.396 . S
C1730 C1733 1.403 1_565 S
C1731 C1728 1.399 1_655 S
C1731 C1732 1.532 . S
C1731 C1735 1.399 1_565 S
C1732 H1717 0.960 . S
C1732 H1718 0.960 1_655 S
C1732 H1719 0.960 . S
C1732 C1731 1.532 . S
C1733 C1730 1.403 1_545 S
C1733 C1734 1.392 . S
C1733 C1737 1.495 . S
C1734 C1733 1.392 . S
C1734 C1735 1.382 1_455 S
C1734 C1736 1.478 . S
C1735 H1729 0.933 . S
C1735 C1731 1.399 1_545 S
C1735 C1734 1.382 1_655 S
C1736 C1734 1.478 . S
C1736 C1738 1.381 . S
C1736 C1742 1.383 1_455 S
C1737 C1733 1.495 . S
C1737 H1743 0.959 . S
C1737 H1744 0.961 1_455 S
C1737 H1745 0.960 . S
C1738 C1736 1.381 . S
C1738 C1739 1.394 . S
C1738 H1746 0.930 . S
C1739 C1738 1.394 . S
C1739 C1740 1.383 . S
C1739 H1747 0.929 . S
C1740 C1739 1.383 . S
C1740 C1741 1.377 1_455 S
C1741 H1725 0.930 . S
C1741 C1740 1.377 1_655 S
C1741 C1742 1.379 . S
C1742 H1726 0.931 . S
C1742 C1736 1.383 1_655 S
C1742 C1741 1.379 . S
H1743 C1737 0.959 . S
H1744 C1737 0.961 1_655 S
H1745 C1737 0.960 . S
H1746 C1738 0.930 . S
H1747 C1739 0.929 . S
H1748 C1756 0.929 . S
H1749 C1758 0.930 . S
H1750 C1760 0.930 . S
H1751 C1763 0.929 . S
H1752 C1766 0.930 . S
H1753 C1768 0.960 . S
H1754 C1768 0.960 . S
H1755 C1768 0.960 . S
C1756 H1748 0.929 . S
C1756 C1757 1.377 . S
C1756 C1758 1.384 . S
C1757 C1756 1.377 . S
C1757 C1763 1.390 . S
C1758 H1749 0.930 . S
C1758 C1756 1.384 . S
C1758 C1759 1.372 . S
C1759 C1758 1.372 . S
C1759 C1760 1.400 . S
C1759 C1764 1.490 . S
C1760 H1750 0.930 . S
C1760 C1759 1.400 . S
C1760 C1763 1.386 . S
H1761 C1777 0.930 . S
H1762 C1778 0.931 . S
C1763 H1751 0.929 . S
C1763 C1757 1.390 . S
C1763 C1760 1.386 . S
C1764 C1759 1.490 . S
C1764 C1766 1.395 . S
C1764 C1767 1.403 . S
H1765 C1771 0.930 . S
C1766 H1752 0.930 . S
C1766 C1764 1.395 . S
C1766 C1769 1.403 . S
C1767 C1764 1.403 . S
C1767 C1768 1.524 . S
C1767 C1771 1.400 . S
C1768 H1753 0.960 . S
C1768 H1754 0.960 . S
C1768 H1755 0.960 . S
C1768 C1767 1.524 . S
C1769 C1766 1.403 . S
C1769 C1770 1.392 . S
C1769 C1773 1.495 . S
C1770 C1769 1.392 . S
C1770 C1771 1.385 . S
C1770 C1772 1.478 . S
C1771 H1765 0.930 . S
C1771 C1767 1.400 . S
C1771 C1770 1.385 . S
C1772 C1770 1.478 . S
C1772 C1774 1.381 . S
C1772 C1778 1.383 . S
C1773 C1769 1.495 . S
C1773 H1779 0.959 . S
C1773 H1780 0.961 . S
C1773 H1781 0.960 . S
C1774 C1772 1.381 . S
C1774 C1775 1.394 . S
C1774 H1782 0.930 . S
C1775 C1774 1.394 . S
C1775 C1776 1.383 . S
C1775 H1783 0.929 . S
C1776 C1775 1.383 . S
C1776 C1777 1.377 . S
C1777 H1761 0.930 . S
C1777 C1776 1.377 . S
C1777 C1778 1.379 . S
C1778 H1762 0.931 . S
C1778 C1772 1.383 . S
C1778 C1777 1.379 . S
H1779 C1773 0.959 . S
H1780 C1773 0.961 . S
H1781 C1773 0.960 . S
H1782 C1774 0.930 . S
H1783 C1775 0.929 . S
H1784 C1792 0.913 1_556 S
H1785 C1794 0.906 1_556 S
H1786 C1796 0.930 . S
H1787 C1799 0.929 . S
H1788 C1802 0.930 . S
H1789 C1804 0.960 1_545 S
H1790 C1804 0.960 . S
H1791 C1804 0.960 . S
C1792 H1784 0.913 1_554 S
C1792 C1793 1.377 . S
C1792 C1794 1.393 . S
C1793 C1792 1.377 . S
C1793 C1799 1.390 . S
C1794 H1785 0.906 1_554 S
C1794 C1792 1.393 . S
C1794 C1795 1.387 . S
C1795 C1794 1.387 . S
C1795 C1796 1.400 . S
C1795 C1800 1.490 . S
C1796 H1786 0.930 . S
C1796 C1795 1.400 . S
C1796 C1799 1.386 . S
H1797 C1813 0.930 . S
H1798 C1814 0.931 1_554 S
C1799 H1787 0.929 . S
C1799 C1793 1.390 . S
C1799 C1796 1.386 . S
C1800 C1795 1.490 . S
C1800 C1802 1.395 1_554 S
C1800 C1803 1.403 . S
H1801 C1807 0.930 . S
C1802 H1788 0.930 . S
C1802 C1800 1.395 1_556 S
C1802 C1805 1.403 1_565 S
C1803 C1800 1.403 . S
C1803 C1804 1.524 . S
C1803 C1807 1.400 1_565 S
C1804 H1789 0.960 1_565 S
C1804 H1790 0.960 . S
C1804 H1791 0.960 . S
C1804 C1803 1.524 . S
C1805 C1802 1.403 1_545 S
C1805 C1806 1.392 . S
C1805 C1809 1.495 . S
C1806 C1805 1.392 . S
C1806 C1807 1.385 1_556 S
C1806 C1808 1.478 . S
C1807 H1801 0.930 . S
C1807 C1803 1.400 1_545 S
C1807 C1806 1.385 1_554 S
C1808 C1806 1.478 . S
C1808 C1810 1.381 . S
C1808 C1814 1.383 . S
C1809 C1805 1.495 . S
C1809 H1815 0.959 1_545 S
C1809 H1816 0.961 . S
C1809 H1817 0.960 . S
C1810 C1808 1.381 . S
C1810 C1811 1.394 . S
C1810 H1818 0.930 . S
C1811 C1810 1.394 . S
C1811 C1812 1.383 . S
C1811 H1819 0.929 . S
C1812 C1811 1.383 . S
C1812 C1813 1.377 . S
C1813 H1797 0.930 . S
C1813 C1812 1.377 . S
C1813 C1814 1.379 . S
C1814 H1798 0.931 1_556 S
C1814 C1808 1.383 . S
C1814 C1813 1.379 . S
H1815 C1809 0.959 1_565 S
H1816 C1809 0.961 . S
H1817 C1809 0.960 . S
H1818 C1810 0.930 . S
H1819 C1811 0.929 . S
H1820 C1828 0.929 . S
H1821 C1830 0.930 . S
H1822 C1832 0.930 . S
H1823 C1835 0.929 . S
H1824 C1838 0.930 . S
H1825 C1840 0.960 . S
H1826 C1840 0.960 . S
H1827 C1840 0.960 . S
C1828 H1820 0.929 . S
C1828 C1829 1.377 . S
C1828 C1830 1.384 . S
C1829 C1828 1.377 . S
C1829 C1835 1.390 . S
C1830 H1821 0.930 . S
C1830 C1828 1.384 . S
C1830 C1831 1.372 . S
C1831 C1830 1.372 . S
C1831 C1832 1.400 . S
C1831 C1836 1.490 . S
C1832 H1822 0.930 . S
C1832 C1831 1.400 . S
C1832 C1835 1.386 . S
H1833 C1849 0.930 . S
H1834 C1850 0.931 . S
C1835 H1823 0.929 . S
C1835 C1829 1.390 . S
C1835 C1832 1.386 . S
C1836 C1831 1.490 . S
C1836 C1838 1.395 . S
C1836 C1839 1.403 . S
H1837 C1843 0.930 . S
C1838 H1824 0.930 . S
C1838 C1836 1.395 . S
C1838 C1841 1.403 . S
C1839 C1836 1.403 . S
C1839 C1840 1.524 . S
C1839 C1843 1.400 . S
C1840 H1825 0.960 . S
C1840 H1826 0.960 . S
C1840 H1827 0.960 . S
C1840 C1839 1.524 . S
C1841 C1838 1.403 . S
C1841 C1842 1.392 . S
C1841 C1845 1.495 . S
C1842 C1841 1.392 . S
C1842 C1843 1.385 . S
C1842 C1844 1.478 . S
C1843 H1837 0.930 . S
C1843 C1839 1.400 . S
C1843 C1842 1.385 . S
C1844 C1842 1.478 . S
C1844 C1846 1.381 . S
C1844 C1850 1.383 . S
C1845 C1841 1.495 . S
C1845 H1851 0.959 . S
C1845 H1852 0.961 . S
C1845 H1853 0.960 . S
C1846 C1844 1.381 . S
C1846 C1847 1.394 . S
C1846 H1854 0.930 . S
C1847 C1846 1.394 . S
C1847 C1848 1.383 . S
C1847 H1855 0.929 . S
C1848 C1847 1.383 . S
C1848 C1849 1.377 . S
C1849 H1833 0.930 . S
C1849 C1848 1.377 . S
C1849 C1850 1.379 . S
C1850 H1834 0.931 . S
C1850 C1844 1.383 . S
C1850 C1849 1.379 . S
H1851 C1845 0.959 . S
H1852 C1845 0.961 . S
H1853 C1845 0.960 . S
H1854 C1846 0.930 . S
H1855 C1847 0.929 . S
H1856 C1864 0.929 . S
H1857 C1866 0.930 . S
H1858 C1868 0.930 . S
H1859 C1871 0.929 . S
H1860 C1874 0.930 . S
H1861 C1876 0.960 . S
H1862 C1876 0.960 . S
H1863 C1876 0.960 . S
C1864 H1856 0.929 . S
C1864 C1865 1.377 . S
C1864 C1866 1.384 . S
C1865 C1864 1.377 . S
C1865 C1871 1.390 . S
C1866 H1857 0.930 . S
C1866 C1864 1.384 . S
C1866 C1867 1.372 . S
C1867 C1866 1.372 . S
C1867 C1868 1.400 . S
C1867 C1872 1.490 . S
C1868 H1858 0.930 . S
C1868 C1867 1.400 . S
C1868 C1871 1.386 . S
H1869 C1885 0.930 . S
H1870 C1886 0.931 . S
C1871 H1859 0.929 . S
C1871 C1865 1.390 . S
C1871 C1868 1.386 . S
C1872 C1867 1.490 . S
C1872 C1874 1.395 . S
C1872 C1875 1.403 . S
H1873 C1879 0.930 . S
C1874 H1860 0.930 . S
C1874 C1872 1.395 . S
C1874 C1877 1.403 . S
C1875 C1872 1.403 . S
C1875 C1876 1.524 . S
C1875 C1879 1.400 . S
C1876 H1861 0.960 . S
C1876 H1862 0.960 . S
C1876 H1863 0.960 . S
C1876 C1875 1.524 . S
C1877 C1874 1.403 . S
C1877 C1878 1.392 . S
C1877 C1881 1.495 . S
C1878 C1877 1.392 . S
C1878 C1879 1.385 . S
C1878 C1880 1.478 . S
C1879 H1873 0.930 . S
C1879 C1875 1.400 . S
C1879 C1878 1.385 . S
C1880 C1878 1.478 . S
C1880 C1882 1.381 . S
C1880 C1886 1.383 . S
C1881 C1877 1.495 . S
C1881 H1887 0.959 . S
C1881 H1888 0.961 . S
C1881 H1889 0.960 . S
C1882 C1880 1.381 . S
C1882 C1883 1.394 . S
C1882 H1890 0.930 . S
C1883 C1882 1.394 . S
C1883 C1884 1.383 . S
C1883 H1891 0.929 . S
C1884 C1883 1.383 . S
C1884 C1885 1.377 . S
C1885 H1869 0.930 . S
C1885 C1884 1.377 . S
C1885 C1886 1.379 . S
C1886 H1870 0.931 . S
C1886 C1880 1.383 . S
C1886 C1885 1.379 . S
H1887 C1881 0.959 . S
H1888 C1881 0.961 . S
H1889 C1881 0.960 . S
H1890 C1882 0.930 . S
H1891 C1883 0.929 . S
H1892 C1900 0.929 . S
H1893 C1902 0.930 . S
H1894 C1904 0.930 . S
H1895 C1907 0.929 . S
H1896 C1910 0.930 . S
H1897 C1912 0.960 . S
H1898 C1912 0.960 . S
H1899 C1912 0.960 . S
C1900 H1892 0.929 . S
C1900 C1901 1.377 . S
C1900 C1902 1.384 . S
C1901 C1900 1.377 . S
C1901 C1907 1.390 . S
C1902 H1893 0.930 . S
C1902 C1900 1.384 . S
C1902 C1903 1.372 . S
C1903 C1902 1.372 . S
C1903 C1904 1.400 . S
C1903 C1908 1.490 . S
C1904 H1894 0.930 . S
C1904 C1903 1.400 . S
C1904 C1907 1.386 . S
H1905 C1921 0.930 . S
H1906 C1922 0.931 . S
C1907 H1895 0.929 . S
C1907 C1901 1.390 . S
C1907 C1904 1.386 . S
C1908 C1903 1.490 . S
C1908 C1910 1.395 . S
C1908 C1911 1.403 . S
H1909 C1915 0.930 . S
C1910 H1896 0.930 . S
C1910 C1908 1.395 . S
C1910 C1913 1.403 . S
C1911 C1908 1.403 . S
C1911 C1912 1.524 . S
C1911 C1915 1.400 . S
C1912 H1897 0.960 . S
C1912 H1898 0.960 . S
C1912 H1899 0.960 . S
C1912 C1911 1.524 . S
C1913 C1910 1.403 . S
C1913 C1914 1.392 . S
C1913 C1917 1.495 . S
C1914 C1913 1.392 . S
C1914 C1915 1.385 . S
C1914 C1916 1.478 . S
C1915 H1909 0.930 . S
C1915 C1911 1.400 . S
C1915 C1914 1.385 . S
C1916 C1914 1.478 . S
C1916 C1918 1.381 . S
C1916 C1922 1.383 . S
C1917 C1913 1.495 . S
C1917 H1923 0.959 . S
C1917 H1924 0.961 . S
C1917 H1925 0.960 . S
C1918 C1916 1.381 . S
C1918 C1919 1.394 . S
C1918 H1926 0.930 . S
C1919 C1918 1.394 . S
C1919 C1920 1.383 . S
C1919 H1927 0.929 . S
C1920 C1919 1.383 . S
C1920 C1921 1.377 . S
C1921 H1905 0.930 . S
C1921 C1920 1.377 . S
C1921 C1922 1.379 . S
C1922 H1906 0.931 . S
C1922 C1916 1.383 . S
C1922 C1921 1.379 . S
H1923 C1917 0.959 . S
H1924 C1917 0.961 . S
H1925 C1917 0.960 . S
H1926 C1918 0.930 . S
H1927 C1919 0.929 . S
H1928 C1936 0.929 . S
H1929 C1938 0.930 . S
H1930 C1940 0.930 . S
H1931 C1943 0.929 . S
H1932 C1946 0.930 . S
H1933 C1948 0.960 . S
H1934 C1948 0.960 . S
H1935 C1948 0.960 . S
C1936 H1928 0.929 . S
C1936 C1937 1.377 . S
C1936 C1938 1.384 . S
C1937 C1936 1.377 . S
C1937 C1943 1.390 . S
C1938 H1929 0.930 . S
C1938 C1936 1.384 . S
C1938 C1939 1.372 . S
C1939 C1938 1.372 . S
C1939 C1940 1.400 . S
C1939 C1944 1.490 . S
C1940 H1930 0.930 . S
C1940 C1939 1.400 . S
C1940 C1943 1.386 . S
H1941 C1957 0.930 . S
H1942 C1958 0.931 . S
C1943 H1931 0.929 . S
C1943 C1937 1.390 . S
C1943 C1940 1.386 . S
C1944 C1939 1.490 . S
C1944 C1946 1.395 . S
C1944 C1947 1.403 . S
H1945 C1951 0.930 . S
C1946 H1932 0.930 . S
C1946 C1944 1.395 . S
C1946 C1949 1.403 . S
C1947 C1944 1.403 . S
C1947 C1948 1.524 . S
C1947 C1951 1.400 . S
C1948 H1933 0.960 . S
C1948 H1934 0.960 . S
C1948 H1935 0.960 . S
C1948 C1947 1.524 . S
C1949 C1946 1.403 . S
C1949 C1950 1.392 . S
C1949 C1953 1.495 . S
C1950 C1949 1.392 . S
C1950 C1951 1.385 . S
C1950 C1952 1.478 . S
C1951 H1945 0.930 . S
C1951 C1947 1.400 . S
C1951 C1950 1.385 . S
C1952 C1950 1.478 . S
C1952 C1954 1.381 . S
C1952 C1958 1.383 . S
C1953 C1949 1.495 . S
C1953 H1959 0.959 . S
C1953 H1960 0.961 . S
C1953 H1961 0.960 . S
C1954 C1952 1.381 . S
C1954 C1955 1.394 . S
C1954 H1962 0.930 . S
C1955 C1954 1.394 . S
C1955 C1956 1.383 . S
C1955 H1963 0.929 . S
C1956 C1955 1.383 . S
C1956 C1957 1.377 . S
C1957 H1941 0.930 . S
C1957 C1956 1.377 . S
C1957 C1958 1.379 . S
C1958 H1942 0.931 . S
C1958 C1952 1.383 . S
C1958 C1957 1.379 . S
H1959 C1953 0.959 . S
H1960 C1953 0.961 . S
H1961 C1953 0.960 . S
H1962 C1954 0.930 . S
H1963 C1955 0.929 . S
H1964 C1972 0.929 . S
H1965 C1974 0.930 . S
H1966 C1976 0.930 . S
H1967 C1979 0.929 . S
H1968 C1982 0.930 . S
H1969 C1984 0.960 . S
H1970 C1984 0.960 . S
H1971 C1984 0.960 . S
C1972 H1964 0.929 . S
C1972 C1973 1.377 . S
C1972 C1974 1.384 . S
C1973 C1972 1.377 . S
C1973 C1979 1.390 . S
C1974 H1965 0.930 . S
C1974 C1972 1.384 . S
C1974 C1975 1.372 . S
C1975 C1974 1.372 . S
C1975 C1976 1.400 . S
C1975 C1980 1.490 . S
C1976 H1966 0.930 . S
C1976 C1975 1.400 . S
C1976 C1979 1.386 . S
H1977 C1993 0.930 . S
H1978 C1994 0.931 . S
C1979 H1967 0.929 . S
C1979 C1973 1.390 . S
C1979 C1976 1.386 . S
C1980 C1975 1.490 . S
C1980 C1982 1.395 . S
C1980 C1983 1.403 . S
H1981 C1987 0.930 . S
C1982 H1968 0.930 . S
C1982 C1980 1.395 . S
C1982 C1985 1.403 . S
C1983 C1980 1.403 . S
C1983 C1984 1.524 . S
C1983 C1987 1.400 . S
C1984 H1969 0.960 . S
C1984 H1970 0.960 . S
C1984 H1971 0.960 . S
C1984 C1983 1.524 . S
C1985 C1982 1.403 . S
C1985 C1986 1.392 . S
C1985 C1989 1.495 . S
C1986 C1985 1.392 . S
C1986 C1987 1.385 . S
C1986 C1988 1.478 . S
C1987 H1981 0.930 . S
C1987 C1983 1.400 . S
C1987 C1986 1.385 . S
C1988 C1986 1.478 . S
C1988 C1990 1.381 . S
C1988 C1994 1.383 . S
C1989 C1985 1.495 . S
C1989 H1995 0.959 . S
C1989 H1996 0.961 . S
C1989 H1997 0.960 . S
C1990 C1988 1.381 . S
C1990 C1991 1.394 . S
C1990 H1998 0.930 . S
C1991 C1990 1.394 . S
C1991 C1992 1.383 . S
C1991 H1999 0.929 . S
C1992 C1991 1.383 . S
C1992 C1993 1.377 . S
C1993 H1977 0.930 . S
C1993 C1992 1.377 . S
C1993 C1994 1.379 . S
C1994 H1978 0.931 . S
C1994 C1988 1.383 . S
C1994 C1993 1.379 . S
H1995 C1989 0.959 . S
H1996 C1989 0.961 . S
H1997 C1989 0.960 . S
H1998 C1990 0.930 . S
H1999 C1991 0.929 . S
H2000 C2008 0.929 . S
H2001 C2010 0.930 . S
H2002 C2012 0.930 . S
H2003 C2015 0.929 . S
H2004 C2018 0.930 . S
H2005 C2020 0.960 . S
H2006 C2020 0.960 . S
H2007 C2020 0.960 . S
C2008 H2000 0.929 . S
C2008 C2009 1.377 . S
C2008 C2010 1.384 . S
C2009 C2008 1.377 . S
C2009 C2015 1.390 . S
C2010 H2001 0.930 . S
C2010 C2008 1.384 . S
C2010 C2011 1.372 . S
C2011 C2010 1.372 . S
C2011 C2012 1.400 . S
C2011 C2016 1.490 . S
C2012 H2002 0.930 . S
C2012 C2011 1.400 . S
C2012 C2015 1.386 . S
H2013 C2029 0.930 . S
H2014 C2030 0.931 . S
C2015 H2003 0.929 . S
C2015 C2009 1.390 . S
C2015 C2012 1.386 . S
C2016 C2011 1.490 . S
C2016 C2018 1.395 . S
C2016 C2019 1.403 . S
H2017 C2023 0.930 . S
C2018 H2004 0.930 . S
C2018 C2016 1.395 . S
C2018 C2021 1.403 . S
C2019 C2016 1.403 . S
C2019 C2020 1.524 . S
C2019 C2023 1.400 . S
C2020 H2005 0.960 . S
C2020 H2006 0.960 . S
C2020 H2007 0.960 . S
C2020 C2019 1.524 . S
C2021 C2018 1.403 . S
C2021 C2022 1.392 . S
C2021 C2025 1.495 . S
C2022 C2021 1.392 . S
C2022 C2023 1.385 . S
C2022 C2024 1.478 . S
C2023 H2017 0.930 . S
C2023 C2019 1.400 . S
C2023 C2022 1.385 . S
C2024 C2022 1.478 . S
C2024 C2026 1.381 . S
C2024 C2030 1.383 . S
C2025 C2021 1.495 . S
C2025 H2031 0.959 . S
C2025 H2032 0.961 . S
C2025 H2033 0.960 . S
C2026 C2024 1.381 . S
C2026 C2027 1.394 . S
C2026 H2034 0.930 . S
C2027 C2026 1.394 . S
C2027 C2028 1.383 . S
C2027 H2035 0.929 . S
C2028 C2027 1.383 . S
C2028 C2029 1.377 . S
C2029 H2013 0.930 . S
C2029 C2028 1.377 . S
C2029 C2030 1.379 . S
C2030 H2014 0.931 . S
C2030 C2024 1.383 . S
C2030 C2029 1.379 . S
H2031 C2025 0.959 . S
H2032 C2025 0.961 . S
H2033 C2025 0.960 . S
H2034 C2026 0.930 . S
H2035 C2027 0.929 . S
H2036 C2044 0.929 . S
H2037 C2046 0.930 . S
H2038 C2048 0.930 . S
H2039 C2051 0.929 1_556 S
H2040 C2054 0.930 . S
H2041 C2056 0.960 1_556 S
H2042 C2056 0.960 . S
H2043 C2056 0.960 1_556 S
C2044 H2036 0.929 . S
C2044 C2045 1.377 . S
C2044 C2046 1.384 . S
C2045 C2044 1.377 . S
C2045 C2051 1.390 1_455 S
C2046 H2037 0.930 . S
C2046 C2044 1.384 . S
C2046 C2047 1.372 . S
C2047 C2046 1.372 . S
C2047 C2048 1.400 1_454 S
C2047 C2052 1.490 . S
C2048 H2038 0.930 . S
C2048 C2047 1.400 1_656 S
C2048 C2051 1.386 1_556 S
H2049 C2065 0.930 . S
H2050 C2066 0.931 . S
C2051 H2039 0.929 1_554 S
C2051 C2045 1.390 1_655 S
C2051 C2048 1.386 1_554 S
C2052 C2047 1.490 . S
C2052 C2054 1.395 . S
C2052 C2055 1.403 1_455 S
H2053 C2059 0.930 . S
C2054 H2040 0.930 . S
C2054 C2052 1.395 . S
C2054 C2057 1.403 . S
C2055 C2052 1.403 1_655 S
C2055 C2056 1.524 . S
C2055 C2059 1.400 1_554 S
C2056 H2041 0.960 1_554 S
C2056 H2042 0.960 . S
C2056 H2043 0.960 1_554 S
C2056 C2055 1.524 . S
C2057 C2054 1.403 . S
C2057 C2058 1.392 1_554 S
C2057 C2061 1.495 . S
C2058 C2057 1.392 1_556 S
C2058 C2059 1.385 1_455 S
C2058 C2060 1.478 . S
C2059 H2053 0.930 . S
C2059 C2055 1.400 1_556 S
C2059 C2058 1.385 1_655 S
C2060 C2058 1.478 . S
C2060 C2062 1.381 1_556 S
C2060 C2066 1.383 1_455 S
C2061 C2057 1.495 . S
C2061 H2067 0.959 . S
C2061 H2068 0.961 1_554 S
C2061 H2069 0.960 . S
C2062 C2060 1.381 1_554 S
C2062 C2063 1.394 1_554 S
C2062 H2070 0.930 . S
C2063 C2062 1.394 1_556 S
C2063 C2064 1.383 1_455 S
C2063 H2071 0.929 1_556 S
C2064 C2063 1.383 1_655 S
C2064 C2065 1.377 . S
C2065 H2049 0.930 . S
C2065 C2064 1.377 . S
C2065 C2066 1.379 . S
C2066 H2050 0.931 . S
C2066 C2060 1.383 1_655 S
C2066 C2065 1.379 . S
H2067 C2061 0.959 . S
H2068 C2061 0.961 1_556 S
H2069 C2061 0.960 . S
H2070 C2062 0.930 . S
H2071 C2063 0.929 1_554 S
H2072 C2080 0.929 . S
H2073 C2082 0.930 . S
H2074 C2084 0.930 . S
H2075 C2087 0.929 . S
H2076 C2090 0.930 . S
H2077 C2092 0.960 . S
H2078 C2092 0.960 . S
H2079 C2092 0.960 . S
C2080 H2072 0.929 . S
C2080 C2081 1.377 . S
C2080 C2082 1.384 . S
C2081 C2080 1.377 . S
C2081 C2087 1.390 . S
C2082 H2073 0.930 . S
C2082 C2080 1.384 . S
C2082 C2083 1.372 . S
C2083 C2082 1.372 . S
C2083 C2084 1.400 . S
C2083 C2088 1.490 . S
C2084 H2074 0.930 . S
C2084 C2083 1.400 . S
C2084 C2087 1.386 . S
H2085 C2101 0.930 . S
H2086 C2102 0.931 . S
C2087 H2075 0.929 . S
C2087 C2081 1.390 . S
C2087 C2084 1.386 . S
C2088 C2083 1.490 . S
C2088 C2090 1.395 1_556 S
C2088 C2091 1.403 . S
H2089 C2095 0.930 . S
C2090 H2076 0.930 . S
C2090 C2088 1.395 1_554 S
C2090 C2093 1.403 . S
C2091 C2088 1.403 . S
C2091 C2092 1.524 . S
C2091 C2095 1.400 . S
C2092 H2077 0.960 . S
C2092 H2078 0.960 . S
C2092 H2079 0.960 . S
C2092 C2091 1.524 . S
C2093 C2090 1.403 . S
C2093 C2094 1.392 . S
C2093 C2097 1.495 . S
C2094 C2093 1.392 . S
C2094 C2095 1.385 1_554 S
C2094 C2096 1.478 . S
C2095 H2089 0.930 . S
C2095 C2091 1.400 . S
C2095 C2094 1.385 1_556 S
C2096 C2094 1.478 . S
C2096 C2098 1.381 . S
C2096 C2102 1.383 . S
C2097 C2093 1.495 . S
C2097 H2103 0.959 . S
C2097 H2104 0.961 . S
C2097 H2105 0.960 . S
C2098 C2096 1.381 . S
C2098 C2099 1.394 . S
C2098 H2106 0.930 . S
C2099 C2098 1.394 . S
C2099 C2100 1.383 . S
C2099 H2107 0.929 . S
C2100 C2099 1.383 . S
C2100 C2101 1.377 . S
C2101 H2085 0.930 . S
C2101 C2100 1.377 . S
C2101 C2102 1.379 . S
C2102 H2086 0.931 . S
C2102 C2096 1.383 . S
C2102 C2101 1.379 . S
H2103 C2097 0.959 . S
H2104 C2097 0.961 . S
H2105 C2097 0.960 . S
H2106 C2098 0.930 . S
H2107 C2099 0.929 . S
H2108 C2116 0.929 . S
H2109 C2118 0.930 . S
H2110 C2120 0.930 . S
H2111 C2123 0.929 . S
H2112 C2126 0.930 . S
H2113 C2128 0.960 . S
H2114 C2128 0.960 . S
H2115 C2128 0.960 . S
C2116 H2108 0.929 . S
C2116 C2117 1.377 . S
C2116 C2118 1.384 . S
C2117 C2116 1.377 . S
C2117 C2123 1.390 1_655 S
C2118 H2109 0.930 . S
C2118 C2116 1.384 . S
C2118 C2119 1.372 . S
C2119 C2118 1.372 . S
C2119 C2120 1.400 1_655 S
C2119 C2124 1.490 . S
C2120 H2110 0.930 . S
C2120 C2119 1.400 1_455 S
C2120 C2123 1.386 . S
H2121 C2137 0.930 . S
H2122 C2138 0.931 . S
C2123 H2111 0.929 . S
C2123 C2117 1.390 1_455 S
C2123 C2120 1.386 . S
C2124 C2119 1.490 . S
C2124 C2126 1.395 . S
C2124 C2127 1.403 1_655 S
H2125 C2131 0.930 . S
C2126 H2112 0.930 . S
C2126 C2124 1.395 . S
C2126 C2129 1.403 . S
C2127 C2124 1.403 1_455 S
C2127 C2128 1.524 . S
C2127 C2131 1.400 . S
C2128 H2113 0.960 . S
C2128 H2114 0.960 . S
C2128 H2115 0.960 . S
C2128 C2127 1.524 . S
C2129 C2126 1.403 . S
C2129 C2130 1.392 . S
C2129 C2133 1.495 . S
C2130 C2129 1.392 . S
C2130 C2131 1.385 1_655 S
C2130 C2132 1.478 . S
C2131 H2125 0.930 . S
C2131 C2127 1.400 . S
C2131 C2130 1.385 1_455 S
C2132 C2130 1.478 . S
C2132 C2134 1.381 . S
C2132 C2138 1.383 1_655 S
C2133 C2129 1.495 . S
C2133 H2139 0.959 . S
C2133 H2140 0.961 . S
C2133 H2141 0.960 . S
C2134 C2132 1.381 . S
C2134 C2135 1.394 . S
C2134 H2142 0.930 . S
C2135 C2134 1.394 . S
C2135 C2136 1.383 1_655 S
C2135 H2143 0.929 . S
C2136 C2135 1.383 1_455 S
C2136 C2137 1.377 . S
C2137 H2121 0.930 . S
C2137 C2136 1.377 . S
C2137 C2138 1.379 . S
C2138 H2122 0.931 . S
C2138 C2132 1.383 1_455 S
C2138 C2137 1.379 . S
H2139 C2133 0.959 . S
H2140 C2133 0.961 . S
H2141 C2133 0.960 . S
H2142 C2134 0.930 . S
H2143 C2135 0.929 . S
H2144 C2152 0.929 . S
H2145 C2154 0.930 . S
H2146 C2156 0.930 . S
H2147 C2159 0.929 . S
H2148 C2162 0.930 . S
H2149 C2164 0.960 . S
H2150 C2164 0.960 . S
H2151 C2164 0.960 . S
C2152 H2144 0.929 . S
C2152 C2153 1.377 . S
C2152 C2154 1.384 . S
C2153 C2152 1.377 . S
C2153 C2159 1.390 . S
C2154 H2145 0.930 . S
C2154 C2152 1.384 . S
C2154 C2155 1.372 . S
C2155 C2154 1.372 . S
C2155 C2156 1.400 . S
C2155 C2160 1.490 . S
C2156 H2146 0.930 . S
C2156 C2155 1.400 . S
C2156 C2159 1.386 . S
H2157 C2173 0.930 . S
H2158 C2174 0.931 . S
C2159 H2147 0.929 . S
C2159 C2153 1.390 . S
C2159 C2156 1.386 . S
C2160 C2155 1.490 . S
C2160 C2162 1.395 . S
C2160 C2163 1.403 . S
H2161 C2167 0.930 . S
C2162 H2148 0.930 . S
C2162 C2160 1.395 . S
C2162 C2165 1.403 . S
C2163 C2160 1.403 . S
C2163 C2164 1.524 . S
C2163 C2167 1.400 . S
C2164 H2149 0.960 . S
C2164 H2150 0.960 . S
C2164 H2151 0.960 . S
C2164 C2163 1.524 . S
C2165 C2162 1.403 . S
C2165 C2166 1.392 . S
C2165 C2169 1.495 . S
C2166 C2165 1.392 . S
C2166 C2167 1.385 . S
C2166 C2168 1.478 . S
C2167 H2161 0.930 . S
C2167 C2163 1.400 . S
C2167 C2166 1.385 . S
C2168 C2166 1.478 . S
C2168 C2170 1.381 . S
C2168 C2174 1.383 . S
C2169 C2165 1.495 . S
C2169 H2175 0.959 . S
C2169 H2176 0.961 . S
C2169 H2177 0.960 . S
C2170 C2168 1.381 . S
C2170 C2171 1.394 . S
C2170 H2178 0.930 . S
C2171 C2170 1.394 . S
C2171 C2172 1.383 . S
C2171 H2179 0.929 . S
C2172 C2171 1.383 . S
C2172 C2173 1.377 . S
C2173 H2157 0.930 . S
C2173 C2172 1.377 . S
C2173 C2174 1.379 . S
C2174 H2158 0.931 . S
C2174 C2168 1.383 . S
C2174 C2173 1.379 . S
H2175 C2169 0.959 . S
H2176 C2169 0.961 . S
H2177 C2169 0.960 . S
H2178 C2170 0.930 . S
H2179 C2171 0.929 . S
H2180 C2188 0.929 . S
H2181 C2190 0.930 . S
H2182 C2192 0.930 . S
H2183 C2195 0.929 . S
H2184 C2198 0.930 . S
H2185 C2200 0.960 . S
H2186 C2200 0.960 . S
H2187 C2200 0.960 . S
C2188 H2180 0.929 . S
C2188 C2189 1.377 . S
C2188 C2190 1.384 . S
C2189 C2188 1.377 . S
C2189 C2195 1.390 . S
C2190 H2181 0.930 . S
C2190 C2188 1.384 . S
C2190 C2191 1.372 . S
C2191 C2190 1.372 . S
C2191 C2192 1.400 . S
C2191 C2196 1.490 . S
C2192 H2182 0.930 . S
C2192 C2191 1.400 . S
C2192 C2195 1.386 . S
H2193 C2209 0.930 . S
H2194 C2210 0.931 . S
C2195 H2183 0.929 . S
C2195 C2189 1.390 . S
C2195 C2192 1.386 . S
C2196 C2191 1.490 . S
C2196 C2198 1.395 . S
C2196 C2199 1.403 . S
H2197 C2203 0.930 . S
C2198 H2184 0.930 . S
C2198 C2196 1.395 . S
C2198 C2201 1.403 . S
C2199 C2196 1.403 . S
C2199 C2200 1.524 . S
C2199 C2203 1.400 . S
C2200 H2185 0.960 . S
C2200 H2186 0.960 . S
C2200 H2187 0.960 . S
C2200 C2199 1.524 . S
C2201 C2198 1.403 . S
C2201 C2202 1.392 . S
C2201 C2205 1.495 . S
C2202 C2201 1.392 . S
C2202 C2203 1.385 . S
C2202 C2204 1.478 . S
C2203 H2197 0.930 . S
C2203 C2199 1.400 . S
C2203 C2202 1.385 . S
C2204 C2202 1.478 . S
C2204 C2206 1.381 . S
C2204 C2210 1.383 . S
C2205 C2201 1.495 . S
C2205 H2211 0.959 . S
C2205 H2212 0.961 . S
C2205 H2213 0.960 . S
C2206 C2204 1.381 . S
C2206 C2207 1.394 . S
C2206 H2214 0.930 . S
C2207 C2206 1.394 . S
C2207 C2208 1.383 . S
C2207 H2215 0.929 . S
C2208 C2207 1.383 . S
C2208 C2209 1.377 . S
C2209 H2193 0.930 . S
C2209 C2208 1.377 . S
C2209 C2210 1.379 . S
C2210 H2194 0.931 . S
C2210 C2204 1.383 . S
C2210 C2209 1.379 . S
H2211 C2205 0.959 . S
H2212 C2205 0.961 . S
H2213 C2205 0.960 . S
H2214 C2206 0.930 . S
H2215 C2207 0.929 . S
H2216 C2224 0.929 . S
H2217 C2226 0.930 . S
H2218 C2228 0.930 . S
H2219 C2231 0.929 . S
H2220 C2234 0.930 . S
H2221 C2236 0.960 . S
H2222 C2236 0.960 . S
H2223 C2236 0.960 . S
C2224 H2216 0.929 . S
C2224 C2225 1.377 . S
C2224 C2226 1.384 . S
C2225 C2224 1.377 . S
C2225 C2231 1.390 . S
C2226 H2217 0.930 . S
C2226 C2224 1.384 . S
C2226 C2227 1.372 . S
C2227 C2226 1.372 . S
C2227 C2228 1.400 . S
C2227 C2232 1.490 . S
C2228 H2218 0.930 . S
C2228 C2227 1.400 . S
C2228 C2231 1.386 . S
H2229 C2245 0.930 . S
H2230 C2246 0.931 . S
C2231 H2219 0.929 . S
C2231 C2225 1.390 . S
C2231 C2228 1.386 . S
C2232 C2227 1.490 . S
C2232 C2234 1.395 . S
C2232 C2235 1.403 . S
H2233 C2239 0.930 . S
C2234 H2220 0.930 . S
C2234 C2232 1.395 . S
C2234 C2237 1.403 . S
C2235 C2232 1.403 . S
C2235 C2236 1.524 . S
C2235 C2239 1.400 . S
C2236 H2221 0.960 . S
C2236 H2222 0.960 . S
C2236 H2223 0.960 . S
C2236 C2235 1.524 . S
C2237 C2234 1.403 . S
C2237 C2238 1.392 . S
C2237 C2241 1.495 . S
C2238 C2237 1.392 . S
C2238 C2239 1.385 . S
C2238 C2240 1.478 . S
C2239 H2233 0.930 . S
C2239 C2235 1.400 . S
C2239 C2238 1.385 . S
C2240 C2238 1.478 . S
C2240 C2242 1.381 . S
C2240 C2246 1.383 . S
C2241 C2237 1.495 . S
C2241 H2247 0.959 . S
C2241 H2248 0.961 . S
C2241 H2249 0.960 . S
C2242 C2240 1.381 . S
C2242 C2243 1.394 . S
C2242 H2250 0.930 . S
C2243 C2242 1.394 . S
C2243 C2244 1.383 . S
C2243 H2251 0.929 . S
C2244 C2243 1.383 . S
C2244 C2245 1.377 . S
C2245 H2229 0.930 . S
C2245 C2244 1.377 . S
C2245 C2246 1.379 . S
C2246 H2230 0.931 . S
C2246 C2240 1.383 . S
C2246 C2245 1.379 . S
H2247 C2241 0.959 . S
H2248 C2241 0.961 . S
H2249 C2241 0.960 . S
H2250 C2242 0.930 . S
H2251 C2243 0.929 . S
H2252 C2260 0.929 . S
H2253 C2262 0.930 . S
H2254 C2264 0.930 . S
H2255 C2267 0.929 . S
H2256 C2270 0.930 . S
H2257 C2272 0.960 . S
H2258 C2272 0.960 . S
H2259 C2272 0.960 . S
C2260 H2252 0.929 . S
C2260 C2261 1.377 . S
C2260 C2262 1.384 . S
C2261 C2260 1.377 . S
C2261 C2267 1.390 . S
C2262 H2253 0.930 . S
C2262 C2260 1.384 . S
C2262 C2263 1.372 . S
C2263 C2262 1.372 . S
C2263 C2264 1.400 . S
C2263 C2268 1.490 . S
C2264 H2254 0.930 . S
C2264 C2263 1.400 . S
C2264 C2267 1.386 . S
H2265 C2281 0.930 . S
H2266 C2282 0.931 . S
C2267 H2255 0.929 . S
C2267 C2261 1.390 . S
C2267 C2264 1.386 . S
C2268 C2263 1.490 . S
C2268 C2270 1.395 . S
C2268 C2271 1.403 . S
H2269 C2275 0.930 . S
C2270 H2256 0.930 . S
C2270 C2268 1.395 . S
C2270 C2273 1.403 . S
C2271 C2268 1.403 . S
C2271 C2272 1.524 . S
C2271 C2275 1.400 . S
C2272 H2257 0.960 . S
C2272 H2258 0.960 . S
C2272 H2259 0.960 . S
C2272 C2271 1.524 . S
C2273 C2270 1.403 . S
C2273 C2274 1.392 . S
C2273 C2277 1.495 . S
C2274 C2273 1.392 . S
C2274 C2275 1.385 . S
C2274 C2276 1.478 . S
C2275 H2269 0.930 . S
C2275 C2271 1.400 . S
C2275 C2274 1.385 . S
C2276 C2274 1.478 . S
C2276 C2278 1.381 . S
C2276 C2282 1.383 . S
C2277 C2273 1.495 . S
C2277 H2283 0.959 . S
C2277 H2284 0.961 . S
C2277 H2285 0.960 . S
C2278 C2276 1.381 . S
C2278 C2279 1.394 . S
C2278 H2286 0.930 . S
C2279 C2278 1.394 . S
C2279 C2280 1.383 . S
C2279 H2287 0.929 . S
C2280 C2279 1.383 . S
C2280 C2281 1.377 . S
C2281 H2265 0.930 . S
C2281 C2280 1.377 . S
C2281 C2282 1.379 . S
C2282 H2266 0.931 . S
C2282 C2276 1.383 . S
C2282 C2281 1.379 . S
H2283 C2277 0.959 . S
H2284 C2277 0.961 . S
H2285 C2277 0.960 . S
H2286 C2278 0.930 . S
H2287 C2279 0.929 . S
H2288 C2296 0.929 . S
H2289 C2298 0.930 . S
H2290 C2300 0.930 . S
H2291 C2303 0.929 . S
H2292 C2306 0.930 . S
H2293 C2308 0.960 . S
H2294 C2308 0.960 . S
H2295 C2308 0.960 . S
C2296 H2288 0.929 . S
C2296 C2297 1.377 . S
C2296 C2298 1.384 . S
C2297 C2296 1.377 . S
C2297 C2303 1.390 . S
C2298 H2289 0.930 . S
C2298 C2296 1.384 . S
C2298 C2299 1.372 . S
C2299 C2298 1.372 . S
C2299 C2300 1.400 . S
C2299 C2304 1.490 . S
C2300 H2290 0.930 . S
C2300 C2299 1.400 . S
C2300 C2303 1.386 . S
H2301 C2317 0.930 . S
H2302 C2318 0.931 . S
C2303 H2291 0.929 . S
C2303 C2297 1.390 . S
C2303 C2300 1.386 . S
C2304 C2299 1.490 . S
C2304 C2306 1.395 . S
C2304 C2307 1.403 . S
H2305 C2311 0.930 . S
C2306 H2292 0.930 . S
C2306 C2304 1.395 . S
C2306 C2309 1.403 . S
C2307 C2304 1.403 . S
C2307 C2308 1.524 . S
C2307 C2311 1.400 . S
C2308 H2293 0.960 . S
C2308 H2294 0.960 . S
C2308 H2295 0.960 . S
C2308 C2307 1.524 . S
C2309 C2306 1.403 . S
C2309 C2310 1.392 . S
C2309 C2313 1.495 . S
C2310 C2309 1.392 . S
C2310 C2311 1.385 . S
C2310 C2312 1.478 . S
C2311 H2305 0.930 . S
C2311 C2307 1.400 . S
C2311 C2310 1.385 . S
C2312 C2310 1.478 . S
C2312 C2314 1.381 . S
C2312 C2318 1.383 . S
C2313 C2309 1.495 . S
C2313 H2319 0.959 . S
C2313 H2320 0.961 . S
C2313 H2321 0.960 . S
C2314 C2312 1.381 . S
C2314 C2315 1.394 . S
C2314 H2322 0.930 . S
C2315 C2314 1.394 . S
C2315 C2316 1.383 . S
C2315 H2323 0.929 . S
C2316 C2315 1.383 . S
C2316 C2317 1.377 . S
C2317 H2301 0.930 . S
C2317 C2316 1.377 . S
C2317 C2318 1.379 . S
C2318 H2302 0.931 . S
C2318 C2312 1.383 . S
C2318 C2317 1.379 . S
H2319 C2313 0.959 . S
H2320 C2313 0.961 . S
H2321 C2313 0.960 . S
H2322 C2314 0.930 . S
H2323 C2315 0.929 . S
H2324 C2332 0.929 . S
H2325 C2334 0.930 . S
H2326 C2336 0.930 . S
H2327 C2339 0.929 . S
H2328 C2342 0.930 . S
H2329 C2344 0.960 . S
H2330 C2344 0.960 . S
H2331 C2344 0.960 . S
C2332 H2324 0.929 . S
C2332 C2333 1.377 . S
C2332 C2334 1.384 . S
C2333 C2332 1.377 . S
C2333 C2339 1.390 . S
C2334 H2325 0.930 . S
C2334 C2332 1.384 . S
C2334 C2335 1.372 . S
C2335 C2334 1.372 . S
C2335 C2336 1.400 . S
C2335 C2340 1.490 . S
C2336 H2326 0.930 . S
C2336 C2335 1.400 . S
C2336 C2339 1.386 . S
H2337 C2353 0.930 . S
H2338 C2354 0.931 . S
C2339 H2327 0.929 . S
C2339 C2333 1.390 . S
C2339 C2336 1.386 . S
C2340 C2335 1.490 . S
C2340 C2342 1.395 . S
C2340 C2343 1.403 . S
H2341 C2347 0.930 . S
C2342 H2328 0.930 . S
C2342 C2340 1.395 . S
C2342 C2345 1.403 . S
C2343 C2340 1.403 . S
C2343 C2344 1.524 . S
C2343 C2347 1.400 . S
C2344 H2329 0.960 . S
C2344 H2330 0.960 . S
C2344 H2331 0.960 . S
C2344 C2343 1.524 . S
C2345 C2342 1.403 . S
C2345 C2346 1.392 . S
C2345 C2349 1.495 . S
C2346 C2345 1.392 . S
C2346 C2347 1.385 . S
C2346 C2348 1.478 . S
C2347 H2341 0.930 . S
C2347 C2343 1.400 . S
C2347 C2346 1.385 . S
C2348 C2346 1.478 . S
C2348 C2350 1.381 . S
C2348 C2354 1.383 . S
C2349 C2345 1.495 . S
C2349 H2355 0.959 . S
C2349 H2356 0.961 . S
C2349 H2357 0.960 . S
C2350 C2348 1.381 . S
C2350 C2351 1.394 . S
C2350 H2358 0.930 . S
C2351 C2350 1.394 . S
C2351 C2352 1.383 . S
C2351 H2359 0.929 . S
C2352 C2351 1.383 . S
C2352 C2353 1.377 . S
C2353 H2337 0.930 . S
C2353 C2352 1.377 . S
C2353 C2354 1.379 . S
C2354 H2338 0.931 . S
C2354 C2348 1.383 . S
C2354 C2353 1.379 . S
H2355 C2349 0.959 . S
H2356 C2349 0.961 . S
H2357 C2349 0.960 . S
H2358 C2350 0.930 . S
H2359 C2351 0.929 . S
H2360 C2368 0.929 . S
H2361 C2370 0.930 . S
H2362 C2372 0.930 . S
H2363 C2375 0.929 . S
H2364 C2378 0.930 . S
H2365 C2380 0.960 . S
H2366 C2380 0.960 . S
H2367 C2380 0.960 . S
C2368 H2360 0.929 . S
C2368 C2369 1.377 . S
C2368 C2370 1.384 . S
C2369 C2368 1.377 . S
C2369 C2375 1.390 . S
C2370 H2361 0.930 . S
C2370 C2368 1.384 . S
C2370 C2371 1.372 . S
C2371 C2370 1.372 . S
C2371 C2372 1.400 . S
C2371 C2376 1.490 . S
C2372 H2362 0.930 . S
C2372 C2371 1.400 . S
C2372 C2375 1.386 . S
H2373 C2389 0.930 . S
H2374 C2390 0.931 . S
C2375 H2363 0.929 . S
C2375 C2369 1.390 . S
C2375 C2372 1.386 . S
C2376 C2371 1.490 . S
C2376 C2378 1.395 . S
C2376 C2379 1.403 . S
H2377 C2383 0.930 . S
C2378 H2364 0.930 . S
C2378 C2376 1.395 . S
C2378 C2381 1.403 . S
C2379 C2376 1.403 . S
C2379 C2380 1.524 . S
C2379 C2383 1.400 . S
C2380 H2365 0.960 . S
C2380 H2366 0.960 . S
C2380 H2367 0.960 . S
C2380 C2379 1.524 . S
C2381 C2378 1.403 . S
C2381 C2382 1.392 . S
C2381 C2385 1.495 . S
C2382 C2381 1.392 . S
C2382 C2383 1.385 . S
C2382 C2384 1.478 . S
C2383 H2377 0.930 . S
C2383 C2379 1.400 . S
C2383 C2382 1.385 . S
C2384 C2382 1.478 . S
C2384 C2386 1.381 . S
C2384 C2390 1.383 . S
C2385 C2381 1.495 . S
C2385 H2391 0.959 . S
C2385 H2392 0.961 . S
C2385 H2393 0.960 . S
C2386 C2384 1.381 . S
C2386 C2387 1.394 . S
C2386 H2394 0.930 . S
C2387 C2386 1.394 . S
C2387 C2388 1.383 . S
C2387 H2395 0.929 . S
C2388 C2387 1.383 . S
C2388 C2389 1.377 . S
C2389 H2373 0.930 . S
C2389 C2388 1.377 . S
C2389 C2390 1.379 . S
C2390 H2374 0.931 . S
C2390 C2384 1.383 . S
C2390 C2389 1.379 . S
H2391 C2385 0.959 . S
H2392 C2385 0.961 . S
H2393 C2385 0.960 . S
H2394 C2386 0.930 . S
H2395 C2387 0.929 . S
H2396 C2404 0.929 . S
H2397 C2406 0.930 . S
H2398 C2408 0.930 . S
H2399 C2411 0.929 . S
H2400 C2414 0.930 . S
H2401 C2416 0.960 . S
H2402 C2416 0.960 . S
H2403 C2416 0.960 . S
C2404 H2396 0.929 . S
C2404 C2405 1.377 . S
C2404 C2406 1.384 . S
C2405 C2404 1.377 . S
C2405 C2411 1.390 . S
C2406 H2397 0.930 . S
C2406 C2404 1.384 . S
C2406 C2407 1.372 . S
C2407 C2406 1.372 . S
C2407 C2408 1.400 . S
C2407 C2412 1.490 . S
C2408 H2398 0.930 . S
C2408 C2407 1.400 . S
C2408 C2411 1.386 . S
H2409 C2425 0.930 . S
H2410 C2426 0.931 . S
C2411 H2399 0.929 . S
C2411 C2405 1.390 . S
C2411 C2408 1.386 . S
C2412 C2407 1.490 . S
C2412 C2414 1.395 . S
C2412 C2415 1.403 . S
H2413 C2419 0.930 . S
C2414 H2400 0.930 . S
C2414 C2412 1.395 . S
C2414 C2417 1.403 . S
C2415 C2412 1.403 . S
C2415 C2416 1.524 . S
C2415 C2419 1.400 . S
C2416 H2401 0.960 . S
C2416 H2402 0.960 . S
C2416 H2403 0.960 . S
C2416 C2415 1.524 . S
C2417 C2414 1.403 . S
C2417 C2418 1.392 . S
C2417 C2421 1.495 . S
C2418 C2417 1.392 . S
C2418 C2419 1.385 . S
C2418 C2420 1.478 . S
C2419 H2413 0.930 . S
C2419 C2415 1.400 . S
C2419 C2418 1.385 . S
C2420 C2418 1.478 . S
C2420 C2422 1.381 . S
C2420 C2426 1.383 . S
C2421 C2417 1.495 . S
C2421 H2427 0.959 . S
C2421 H2428 0.961 . S
C2421 H2429 0.960 . S
C2422 C2420 1.381 . S
C2422 C2423 1.394 . S
C2422 H2430 0.930 . S
C2423 C2422 1.394 . S
C2423 C2424 1.383 . S
C2423 H2431 0.929 . S
C2424 C2423 1.383 . S
C2424 C2425 1.377 . S
C2425 H2409 0.930 . S
C2425 C2424 1.377 . S
C2425 C2426 1.379 . S
C2426 H2410 0.931 . S
C2426 C2420 1.383 . S
C2426 C2425 1.379 . S
H2427 C2421 0.959 . S
H2428 C2421 0.961 . S
H2429 C2421 0.960 . S
H2430 C2422 0.930 . S
H2431 C2423 0.929 . S
H2432 C2440 0.929 . S
H2433 C2442 0.930 . S
H2434 C2444 0.930 . S
H2435 C2447 0.929 . S
H2436 C2450 0.930 . S
H2437 C2452 0.960 . S
H2438 C2452 0.960 . S
H2439 C2452 0.960 . S
C2440 H2432 0.929 . S
C2440 C2441 1.377 . S
C2440 C2442 1.384 . S
C2441 C2440 1.377 . S
C2441 C2447 1.390 . S
C2442 H2433 0.930 . S
C2442 C2440 1.384 . S
C2442 C2443 1.372 . S
C2443 C2442 1.372 . S
C2443 C2444 1.400 . S
C2443 C2448 1.490 . S
C2444 H2434 0.930 . S
C2444 C2443 1.400 . S
C2444 C2447 1.386 . S
H2445 C2461 0.930 . S
H2446 C2462 0.931 . S
C2447 H2435 0.929 . S
C2447 C2441 1.390 . S
C2447 C2444 1.386 . S
C2448 C2443 1.490 . S
C2448 C2450 1.395 . S
C2448 C2451 1.403 . S
H2449 C2455 0.930 . S
C2450 H2436 0.930 . S
C2450 C2448 1.395 . S
C2450 C2453 1.403 . S
C2451 C2448 1.403 . S
C2451 C2452 1.524 . S
C2451 C2455 1.400 . S
C2452 H2437 0.960 . S
C2452 H2438 0.960 . S
C2452 H2439 0.960 . S
C2452 C2451 1.524 . S
C2453 C2450 1.403 . S
C2453 C2454 1.392 . S
C2453 C2457 1.495 . S
C2454 C2453 1.392 . S
C2454 C2455 1.385 . S
C2454 C2456 1.478 . S
C2455 H2449 0.930 . S
C2455 C2451 1.400 . S
C2455 C2454 1.385 . S
C2456 C2454 1.478 . S
C2456 C2458 1.381 . S
C2456 C2462 1.383 . S
C2457 C2453 1.495 . S
C2457 H2463 0.959 . S
C2457 H2464 0.961 . S
C2457 H2465 0.960 . S
C2458 C2456 1.381 . S
C2458 C2459 1.394 . S
C2458 H2466 0.930 . S
C2459 C2458 1.394 . S
C2459 C2460 1.383 . S
C2459 H2467 0.929 . S
C2460 C2459 1.383 . S
C2460 C2461 1.377 . S
C2461 H2445 0.930 . S
C2461 C2460 1.377 . S
C2461 C2462 1.379 . S
C2462 H2446 0.931 . S
C2462 C2456 1.383 . S
C2462 C2461 1.379 . S
H2463 C2457 0.959 . S
H2464 C2457 0.961 . S
H2465 C2457 0.960 . S
H2466 C2458 0.930 . S
H2467 C2459 0.929 . S
H2468 C2476 0.929 . S
H2469 C2478 0.930 . S
H2470 C2480 0.930 . S
H2471 C2483 0.929 . S
H2472 C2486 0.930 . S
H2473 C2488 0.960 . S
H2474 C2488 0.960 . S
H2475 C2488 0.960 . S
C2476 H2468 0.929 . S
C2476 C2477 1.377 . S
C2476 C2478 1.384 . S
C2477 C2476 1.377 . S
C2477 C2483 1.390 . S
C2478 H2469 0.930 . S
C2478 C2476 1.384 . S
C2478 C2479 1.372 . S
C2479 C2478 1.372 . S
C2479 C2480 1.400 . S
C2479 C2484 1.490 . S
C2480 H2470 0.930 . S
C2480 C2479 1.400 . S
C2480 C2483 1.386 . S
H2481 C2497 0.930 . S
H2482 C2498 0.931 . S
C2483 H2471 0.929 . S
C2483 C2477 1.390 . S
C2483 C2480 1.386 . S
C2484 C2479 1.490 . S
C2484 C2486 1.395 . S
C2484 C2487 1.403 . S
H2485 C2491 0.930 . S
C2486 H2472 0.930 . S
C2486 C2484 1.395 . S
C2486 C2489 1.403 . S
C2487 C2484 1.403 . S
C2487 C2488 1.524 . S
C2487 C2491 1.400 . S
C2488 H2473 0.960 . S
C2488 H2474 0.960 . S
C2488 H2475 0.960 . S
C2488 C2487 1.524 . S
C2489 C2486 1.403 . S
C2489 C2490 1.392 . S
C2489 C2493 1.495 . S
C2490 C2489 1.392 . S
C2490 C2491 1.385 . S
C2490 C2492 1.478 . S
C2491 H2485 0.930 . S
C2491 C2487 1.400 . S
C2491 C2490 1.385 . S
C2492 C2490 1.478 . S
C2492 C2494 1.381 . S
C2492 C2498 1.383 . S
C2493 C2489 1.495 . S
C2493 H2499 0.959 . S
C2493 H2500 0.961 . S
C2493 H2501 0.960 . S
C2494 C2492 1.381 . S
C2494 C2495 1.394 . S
C2494 H2502 0.930 . S
C2495 C2494 1.394 . S
C2495 C2496 1.383 . S
C2495 H2503 0.929 . S
C2496 C2495 1.383 . S
C2496 C2497 1.377 . S
C2497 H2481 0.930 . S
C2497 C2496 1.377 . S
C2497 C2498 1.379 . S
C2498 H2482 0.931 . S
C2498 C2492 1.383 . S
C2498 C2497 1.379 . S
H2499 C2493 0.959 . S
H2500 C2493 0.961 . S
H2501 C2493 0.960 . S
H2502 C2494 0.930 . S
H2503 C2495 0.929 . S
H2504 C2512 0.929 . S
H2505 C2514 0.930 . S
H2506 C2516 0.930 . S
H2507 C2519 0.929 . S
H2508 C2522 0.930 . S
H2509 C2524 0.960 . S
H2510 C2524 0.960 . S
H2511 C2524 0.960 . S
C2512 H2504 0.929 . S
C2512 C2513 1.377 . S
C2512 C2514 1.384 . S
C2513 C2512 1.377 . S
C2513 C2519 1.390 . S
C2514 H2505 0.930 . S
C2514 C2512 1.384 . S
C2514 C2515 1.372 . S
C2515 C2514 1.372 . S
C2515 C2516 1.400 . S
C2515 C2520 1.490 . S
C2516 H2506 0.930 . S
C2516 C2515 1.400 . S
C2516 C2519 1.386 . S
H2517 C2533 0.930 . S
H2518 C2534 0.931 . S
C2519 H2507 0.929 . S
C2519 C2513 1.390 . S
C2519 C2516 1.386 . S
C2520 C2515 1.490 . S
C2520 C2522 1.395 . S
C2520 C2523 1.403 . S
H2521 C2527 0.930 . S
C2522 H2508 0.930 . S
C2522 C2520 1.395 . S
C2522 C2525 1.403 . S
C2523 C2520 1.403 . S
C2523 C2524 1.524 . S
C2523 C2527 1.400 . S
C2524 H2509 0.960 . S
C2524 H2510 0.960 . S
C2524 H2511 0.960 . S
C2524 C2523 1.524 . S
C2525 C2522 1.403 . S
C2525 C2526 1.392 . S
C2525 C2529 1.495 . S
C2526 C2525 1.392 . S
C2526 C2527 1.385 . S
C2526 C2528 1.478 . S
C2527 H2521 0.930 . S
C2527 C2523 1.400 . S
C2527 C2526 1.385 . S
C2528 C2526 1.478 . S
C2528 C2530 1.381 . S
C2528 C2534 1.383 . S
C2529 C2525 1.495 . S
C2529 H2535 0.959 . S
C2529 H2536 0.961 . S
C2529 H2537 0.960 . S
C2530 C2528 1.381 . S
C2530 C2531 1.394 . S
C2530 H2538 0.930 . S
C2531 C2530 1.394 . S
C2531 C2532 1.383 . S
C2531 H2539 0.929 . S
C2532 C2531 1.383 . S
C2532 C2533 1.377 . S
C2533 H2517 0.930 . S
C2533 C2532 1.377 . S
C2533 C2534 1.379 . S
C2534 H2518 0.931 . S
C2534 C2528 1.383 . S
C2534 C2533 1.379 . S
H2535 C2529 0.959 . S
H2536 C2529 0.961 . S
H2537 C2529 0.960 . S
H2538 C2530 0.930 . S
H2539 C2531 0.929 . S
H2540 C2548 0.929 . S
H2541 C2550 0.930 . S
H2542 C2552 0.930 . S
H2543 C2555 0.929 . S
H2544 C2558 0.930 . S
H2545 C2560 0.960 . S
H2546 C2560 0.960 . S
H2547 C2560 0.960 . S
C2548 H2540 0.929 . S
C2548 C2549 1.377 . S
C2548 C2550 1.384 . S
C2549 C2548 1.377 . S
C2549 C2555 1.390 . S
C2550 H2541 0.930 . S
C2550 C2548 1.384 . S
C2550 C2551 1.372 . S
C2551 C2550 1.372 . S
C2551 C2552 1.400 . S
C2551 C2556 1.490 . S
C2552 H2542 0.930 . S
C2552 C2551 1.400 . S
C2552 C2555 1.386 . S
H2553 C2569 0.930 . S
H2554 C2570 0.931 . S
C2555 H2543 0.929 . S
C2555 C2549 1.390 . S
C2555 C2552 1.386 . S
C2556 C2551 1.490 . S
C2556 C2558 1.395 . S
C2556 C2559 1.403 . S
H2557 C2563 0.930 . S
C2558 H2544 0.930 . S
C2558 C2556 1.395 . S
C2558 C2561 1.403 . S
C2559 C2556 1.403 . S
C2559 C2560 1.524 . S
C2559 C2563 1.400 . S
C2560 H2545 0.960 . S
C2560 H2546 0.960 . S
C2560 H2547 0.960 . S
C2560 C2559 1.524 . S
C2561 C2558 1.403 . S
C2561 C2562 1.392 . S
C2561 C2565 1.495 . S
C2562 C2561 1.392 . S
C2562 C2563 1.385 . S
C2562 C2564 1.478 . S
C2563 H2557 0.930 . S
C2563 C2559 1.400 . S
C2563 C2562 1.385 . S
C2564 C2562 1.478 . S
C2564 C2566 1.381 . S
C2564 C2570 1.383 . S
C2565 C2561 1.495 . S
C2565 H2571 0.959 . S
C2565 H2572 0.961 . S
C2565 H2573 0.960 . S
C2566 C2564 1.381 . S
C2566 C2567 1.394 . S
C2566 H2574 0.930 . S
C2567 C2566 1.394 . S
C2567 C2568 1.383 . S
C2567 H2575 0.929 . S
C2568 C2567 1.383 . S
C2568 C2569 1.377 . S
C2569 H2553 0.930 . S
C2569 C2568 1.377 . S
C2569 C2570 1.379 . S
C2570 H2554 0.931 . S
C2570 C2564 1.383 . S
C2570 C2569 1.379 . S
H2571 C2565 0.959 . S
H2572 C2565 0.961 . S
H2573 C2565 0.960 . S
H2574 C2566 0.930 . S
H2575 C2567 0.929 . S
H2576 C2584 0.929 . S
H2577 C2586 0.930 . S
H2578 C2588 0.930 . S
H2579 C2591 0.929 . S
H2580 C2594 0.930 . S
H2581 C2596 0.960 . S
H2582 C2596 0.960 . S
H2583 C2596 0.960 . S
C2584 H2576 0.929 . S
C2584 C2585 1.377 . S
C2584 C2586 1.384 . S
C2585 C2584 1.377 . S
C2585 C2591 1.390 . S
C2586 H2577 0.930 . S
C2586 C2584 1.384 . S
C2586 C2587 1.372 . S
C2587 C2586 1.372 . S
C2587 C2588 1.400 . S
C2587 C2592 1.490 . S
C2588 H2578 0.930 . S
C2588 C2587 1.400 . S
C2588 C2591 1.386 . S
H2589 C2605 0.930 . S
H2590 C2606 0.931 . S
C2591 H2579 0.929 . S
C2591 C2585 1.390 . S
C2591 C2588 1.386 . S
C2592 C2587 1.490 . S
C2592 C2594 1.395 . S
C2592 C2595 1.403 . S
H2593 C2599 0.930 . S
C2594 H2580 0.930 . S
C2594 C2592 1.395 . S
C2594 C2597 1.403 . S
C2595 C2592 1.403 . S
C2595 C2596 1.524 . S
C2595 C2599 1.400 . S
C2596 H2581 0.960 . S
C2596 H2582 0.960 . S
C2596 H2583 0.960 . S
C2596 C2595 1.524 . S
C2597 C2594 1.403 . S
C2597 C2598 1.392 . S
C2597 C2601 1.495 . S
C2598 C2597 1.392 . S
C2598 C2599 1.385 . S
C2598 C2600 1.478 . S
C2599 H2593 0.930 . S
C2599 C2595 1.400 . S
C2599 C2598 1.385 . S
C2600 C2598 1.478 . S
C2600 C2602 1.381 . S
C2600 C2606 1.383 . S
C2601 C2597 1.495 . S
C2601 H2607 0.959 . S
C2601 H2608 0.961 . S
C2601 H2609 0.960 . S
C2602 C2600 1.381 . S
C2602 C2603 1.394 . S
C2602 H2610 0.930 . S
C2603 C2602 1.394 . S
C2603 C2604 1.383 . S
C2603 H2611 0.929 . S
C2604 C2603 1.383 . S
C2604 C2605 1.377 . S
C2605 H2589 0.930 . S
C2605 C2604 1.377 . S
C2605 C2606 1.379 . S
C2606 H2590 0.931 . S
C2606 C2600 1.383 . S
C2606 C2605 1.379 . S
H2607 C2601 0.959 . S
H2608 C2601 0.961 . S
H2609 C2601 0.960 . S
H2610 C2602 0.930 . S
H2611 C2603 0.929 . S
H2612 C2620 0.929 . S
H2613 C2622 0.930 . S
H2614 C2624 0.930 . S
H2615 C2627 0.929 . S
H2616 C2630 0.930 . S
H2617 C2632 0.960 . S
H2618 C2632 0.960 . S
H2619 C2632 0.960 . S
C2620 H2612 0.929 . S
C2620 C2621 1.377 . S
C2620 C2622 1.384 . S
C2621 C2620 1.377 . S
C2621 C2627 1.390 . S
C2622 H2613 0.930 . S
C2622 C2620 1.384 . S
C2622 C2623 1.372 . S
C2623 C2622 1.372 . S
C2623 C2624 1.400 . S
C2623 C2628 1.490 . S
C2624 H2614 0.930 . S
C2624 C2623 1.400 . S
C2624 C2627 1.386 . S
H2625 C2641 0.930 . S
H2626 C2642 0.931 . S
C2627 H2615 0.929 . S
C2627 C2621 1.390 . S
C2627 C2624 1.386 . S
C2628 C2623 1.490 . S
C2628 C2630 1.395 . S
C2628 C2631 1.403 . S
H2629 C2635 0.930 . S
C2630 H2616 0.930 . S
C2630 C2628 1.395 . S
C2630 C2633 1.403 . S
C2631 C2628 1.403 . S
C2631 C2632 1.524 . S
C2631 C2635 1.400 . S
C2632 H2617 0.960 . S
C2632 H2618 0.960 . S
C2632 H2619 0.960 . S
C2632 C2631 1.524 . S
C2633 C2630 1.403 . S
C2633 C2634 1.392 . S
C2633 C2637 1.495 . S
C2634 C2633 1.392 . S
C2634 C2635 1.385 . S
C2634 C2636 1.478 . S
C2635 H2629 0.930 . S
C2635 C2631 1.400 . S
C2635 C2634 1.385 . S
C2636 C2634 1.478 . S
C2636 C2638 1.381 . S
C2636 C2642 1.383 . S
C2637 C2633 1.495 . S
C2637 H2643 0.959 . S
C2637 H2644 0.961 . S
C2637 H2645 0.960 . S
C2638 C2636 1.381 . S
C2638 C2639 1.394 . S
C2638 H2646 0.930 . S
C2639 C2638 1.394 . S
C2639 C2640 1.383 . S
C2639 H2647 0.929 . S
C2640 C2639 1.383 . S
C2640 C2641 1.377 . S
C2641 H2625 0.930 . S
C2641 C2640 1.377 . S
C2641 C2642 1.379 . S
C2642 H2626 0.931 . S
C2642 C2636 1.383 . S
C2642 C2641 1.379 . S
H2643 C2637 0.959 . S
H2644 C2637 0.961 . S
H2645 C2637 0.960 . S
H2646 C2638 0.930 . S
H2647 C2639 0.929 . S
H2648 C2656 0.929 . S
H2649 C2658 0.930 . S
H2650 C2660 0.930 . S
H2651 C2663 0.929 . S
H2652 C2666 0.930 . S
H2653 C2668 0.960 . S
H2654 C2668 0.960 . S
H2655 C2668 0.960 . S
C2656 H2648 0.929 . S
C2656 C2657 1.377 . S
C2656 C2658 1.384 . S
C2657 C2656 1.377 . S
C2657 C2663 1.390 . S
C2658 H2649 0.930 . S
C2658 C2656 1.384 . S
C2658 C2659 1.372 . S
C2659 C2658 1.372 . S
C2659 C2660 1.400 . S
C2659 C2664 1.490 . S
C2660 H2650 0.930 . S
C2660 C2659 1.400 . S
C2660 C2663 1.386 . S
H2661 C2677 0.930 . S
H2662 C2678 0.931 . S
C2663 H2651 0.929 . S
C2663 C2657 1.390 . S
C2663 C2660 1.386 . S
C2664 C2659 1.490 . S
C2664 C2666 1.395 . S
C2664 C2667 1.403 . S
H2665 C2671 0.930 . S
C2666 H2652 0.930 . S
C2666 C2664 1.395 . S
C2666 C2669 1.403 . S
C2667 C2664 1.403 . S
C2667 C2668 1.524 . S
C2667 C2671 1.400 . S
C2668 H2653 0.960 . S
C2668 H2654 0.960 . S
C2668 H2655 0.960 . S
C2668 C2667 1.524 . S
C2669 C2666 1.403 . S
C2669 C2670 1.392 . S
C2669 C2673 1.495 . S
C2670 C2669 1.392 . S
C2670 C2671 1.385 . S
C2670 C2672 1.478 . S
C2671 H2665 0.930 . S
C2671 C2667 1.400 . S
C2671 C2670 1.385 . S
C2672 C2670 1.478 . S
C2672 C2674 1.381 . S
C2672 C2678 1.383 . S
C2673 C2669 1.495 . S
C2673 H2679 0.959 . S
C2673 H2680 0.961 . S
C2673 H2681 0.960 . S
C2674 C2672 1.381 . S
C2674 C2675 1.394 . S
C2674 H2682 0.930 . S
C2675 C2674 1.394 . S
C2675 C2676 1.383 . S
C2675 H2683 0.929 . S
C2676 C2675 1.383 . S
C2676 C2677 1.377 . S
C2677 H2661 0.930 . S
C2677 C2676 1.377 . S
C2677 C2678 1.379 . S
C2678 H2662 0.931 . S
C2678 C2672 1.383 . S
C2678 C2677 1.379 . S
H2679 C2673 0.959 . S
H2680 C2673 0.961 . S
H2681 C2673 0.960 . S
H2682 C2674 0.930 . S
H2683 C2675 0.929 . S
H2684 C2692 0.929 . S
H2685 C2694 0.930 . S
H2686 C2696 0.930 . S
H2687 C2699 0.929 . S
H2688 C2702 0.930 . S
H2689 C2704 0.960 . S
H2690 C2704 0.960 . S
H2691 C2704 0.960 . S
C2692 H2684 0.929 . S
C2692 C2693 1.377 . S
C2692 C2694 1.384 . S
C2693 C2692 1.377 . S
C2693 C2699 1.390 . S
C2694 H2685 0.930 . S
C2694 C2692 1.384 . S
C2694 C2695 1.372 . S
C2695 C2694 1.372 . S
C2695 C2696 1.400 . S
C2695 C2700 1.490 . S
C2696 H2686 0.930 . S
C2696 C2695 1.400 . S
C2696 C2699 1.386 . S
H2697 C2713 0.930 . S
H2698 C2714 0.931 . S
C2699 H2687 0.929 . S
C2699 C2693 1.390 . S
C2699 C2696 1.386 . S
C2700 C2695 1.490 . S
C2700 C2702 1.395 . S
C2700 C2703 1.403 . S
H2701 C2707 0.930 . S
C2702 H2688 0.930 . S
C2702 C2700 1.395 . S
C2702 C2705 1.403 . S
C2703 C2700 1.403 . S
C2703 C2704 1.524 . S
C2703 C2707 1.400 . S
C2704 H2689 0.960 . S
C2704 H2690 0.960 . S
C2704 H2691 0.960 . S
C2704 C2703 1.524 . S
C2705 C2702 1.403 . S
C2705 C2706 1.392 . S
C2705 C2709 1.495 . S
C2706 C2705 1.392 . S
C2706 C2707 1.385 . S
C2706 C2708 1.478 . S
C2707 H2701 0.930 . S
C2707 C2703 1.400 . S
C2707 C2706 1.385 . S
C2708 C2706 1.478 . S
C2708 C2710 1.381 . S
C2708 C2714 1.383 . S
C2709 C2705 1.495 . S
C2709 H2715 0.959 . S
C2709 H2716 0.961 . S
C2709 H2717 0.960 . S
C2710 C2708 1.381 . S
C2710 C2711 1.394 . S
C2710 H2718 0.930 . S
C2711 C2710 1.394 . S
C2711 C2712 1.383 . S
C2711 H2719 0.929 . S
C2712 C2711 1.383 . S
C2712 C2713 1.377 . S
C2713 H2697 0.930 . S
C2713 C2712 1.377 . S
C2713 C2714 1.379 . S
C2714 H2698 0.931 . S
C2714 C2708 1.383 . S
C2714 C2713 1.379 . S
H2715 C2709 0.959 . S
H2716 C2709 0.961 . S
H2717 C2709 0.960 . S
H2718 C2710 0.930 . S
H2719 C2711 0.929 . S
C425 C157 1.260 . S
C444 C5 1.273 . S
C461 C387 1.280 . S
C480 C16 1.282 . S
C497 C183 1.253 . S
C516 C31 1.221 . S
C533 C413 1.279 . S
C552 C42 1.269 . S
C569 C105 1.251 . S
C588 C57 1.222 . S
C605 C68 1.271 . S
C624 C335 1.275 . S
C641 C83 1.246 . S
C660 C131 1.231 . S
C677 C361 1.280 . S
C696 C94 1.262 . S
C713 C62 1.251 . S
C732 C107 1.238 . S
C749 C274 1.279 . S
C768 C122 1.258 . S
C785 C88 1.261 . S
C804 C133 1.239 . S
C821 C300 1.279 . S
C840 C148 1.270 . S
C857 C159 1.244 . S
C876 C10 1.245 . S
C893 C174 1.269 . S
C912 C222 1.275 . S
C929 C36 1.251 . S
C948 C185 1.238 . S
C965 C200 1.274 . S
C984 C248 1.277 . S
C1001 C365 1.251 . S
C1020 C213 1.224 . S
C1037 C179 1.279 . S
C1056 C224 1.281 . S
C1073 C391 1.258 . S
C1092 C239 1.270 . S
C1109 C250 1.273 . S
C1128 C205 1.279 . S
C1145 C265 1.245 . S
C1164 C313 1.231 . S
C1181 C276 1.270 . S
C1200 C127 1.279 . S
C1217 C339 1.252 . S
C1236 C291 1.234 . S
C1253 C153 1.279 . S
C1272 C302 1.282 . S
C1289 C270 1.256 . S
C1308 C315 1.220 . S
C1325 C330 1.273 . S
C1344 C66 1.276 . S
C1361 C341 1.247 . S
C1380 C296 1.273 . S
C1397 C356 1.274 . S
C1416 C92 1.278 . S
C1433 C218 1.256 . S
C1452 C367 1.221 . S
C1469 C14 1.280 . S
C1488 C382 1.270 . S
C1505 C244 1.254 . S
C1524 C393 1.271 . S
C1541 C408 1.271 . S
C1560 C40 1.275 . S
C1577 C1 2.062 . S
C1596 C114 2.067 . S
C1613 C23 1.971 . S
C1632 C326 1.960 . S
C1649 C140 2.055 . S
C1668 C27 2.041 . S
C1685 C49 1.972 . S
C1704 C352 1.971 . S
C1721 C53 2.061 . S
C1740 C166 2.058 . S
C1757 C378 1.973 . S
C1776 C75 1.948 . S
C1793 C192 2.054 . S
C1812 C79 2.050 . S
C1829 C101 1.979 . S
C1848 C404 1.963 . S
C1865 C118 1.976 . S
C1884 C231 1.993 . S
C1901 C144 1.972 . S
C1920 C257 1.953 . S
C1937 C170 1.972 . S
C1956 C283 1.951 . S
C1973 C309 1.981 . S
C1992 C196 1.987 . S
C2009 C209 2.056 . S
C2028 C322 2.062 . S
C2045 C235 2.063 . S
C2064 C348 2.045 . S
C2081 C261 2.058 . S
C2100 C374 2.047 . S
C2117 C400 2.062 . S
C2136 C287 2.045 . S
C2153 C3 1.981 . S
C2172 C96 1.891 . S
C2189 C18 1.910 . S
C2208 C55 1.980 . S
C2225 C70 1.915 . S
C2244 C29 1.982 . S
C2261 C81 1.981 . S
C2280 C44 1.897 . S
C2297 C198 1.907 . S
C2316 C109 1.982 . S
C2333 C161 1.980 . S
C2352 C120 1.925 . S
C2369 C172 1.912 . S
C2388 C135 1.975 . S
C2405 C187 1.981 . S
C2424 C146 1.905 . S
C2441 C211 1.982 . S
C2460 C304 1.907 . S
C2477 C263 1.982 . S
C2496 C226 1.926 . S
C2513 C278 1.910 . S
C2532 C237 1.971 . S
C2549 C289 1.981 . S
C2568 C252 1.890 . S
C2585 C406 1.915 . S
C2604 C317 1.972 . S
C2621 C328 1.910 . S
C2640 C369 1.978 . S
C2657 C343 1.981 . S
C2676 C380 1.901 . S
C2693 C395 1.982 . S
C2712 C354 1.887 . S
