# Generated by pormake.
# Topology ume, (4)-cn, num edge types: 1
# Building blocks:
#     Node 0, Type 0, BuildingBlock: KUFVIS_clean_sbu_0, # of connection points: 4
#     Node 1, Type 0, BuildingBlock: KUFVIS_clean_sbu_0, # of connection points: 4
#     Node 2, Type 0, BuildingBlock: KUFVIS_clean_sbu_0, # of connection points: 4
#     Node 3, Type 0, BuildingBlock: KUFVIS_clean_sbu_0, # of connection points: 4
#     Node 4, Type 0, BuildingBlock: KUFVIS_clean_sbu_0, # of connection points: 4
#     Node 5, Type 0, BuildingBlock: KUFVIS_clean_sbu_0, # of connection points: 4
#     Node 6, Type 0, BuildingBlock: KUFVIS_clean_sbu_0, # of connection points: 4
#     Node 7, Type 0, BuildingBlock: KUFVIS_clean_sbu_0, # of connection points: 4
#     Node 8, Type 0, BuildingBlock: KUFVIS_clean_sbu_0, # of connection points: 4
#     Node 9, Type 0, BuildingBlock: KUFVIS_clean_sbu_0, # of connection points: 4
#     Node 10, Type 0, BuildingBlock: KUFVIS_clean_sbu_0, # of connection points: 4
#     Node 11, Type 0, BuildingBlock: KUFVIS_clean_sbu_0, # of connection points: 4
#     Node 12, Type 0, BuildingBlock: KUFVIS_clean_sbu_0, # of connection points: 4
#     Node 13, Type 0, BuildingBlock: KUFVIS_clean_sbu_0, # of connection points: 4
#     Node 14, Type 0, BuildingBlock: KUFVIS_clean_sbu_0, # of connection points: 4
#     Node 15, Type 0, BuildingBlock: KUFVIS_clean_sbu_0, # of connection points: 4
#     Edge 16, Type (0, 0), BuildingBlock: UVAHIK_clean_linker_0, # of connection points: 2
#     Edge 17, Type (0, 0), BuildingBlock: UVAHIK_clean_linker_0, # of connection points: 2
#     Edge 18, Type (0, 0), BuildingBlock: UVAHIK_clean_linker_0, # of connection points: 2
#     Edge 19, Type (0, 0), BuildingBlock: UVAHIK_clean_linker_0, # of connection points: 2
#     Edge 20, Type (0, 0), BuildingBlock: UVAHIK_clean_linker_0, # of connection points: 2
#     Edge 21, Type (0, 0), BuildingBlock: UVAHIK_clean_linker_0, # of connection points: 2
#     Edge 22, Type (0, 0), BuildingBlock: UVAHIK_clean_linker_0, # of connection points: 2
#     Edge 23, Type (0, 0), BuildingBlock: UVAHIK_clean_linker_0, # of connection points: 2
#     Edge 24, Type (0, 0), BuildingBlock: UVAHIK_clean_linker_0, # of connection points: 2
#     Edge 25, Type (0, 0), BuildingBlock: UVAHIK_clean_linker_0, # of connection points: 2
#     Edge 26, Type (0, 0), BuildingBlock: UVAHIK_clean_linker_0, # of connection points: 2
#     Edge 27, Type (0, 0), BuildingBlock: UVAHIK_clean_linker_0, # of connection points: 2
#     Edge 28, Type (0, 0), BuildingBlock: UVAHIK_clean_linker_0, # of connection points: 2
#     Edge 29, Type (0, 0), BuildingBlock: UVAHIK_clean_linker_0, # of connection points: 2
#     Edge 30, Type (0, 0), BuildingBlock: UVAHIK_clean_linker_0, # of connection points: 2
#     Edge 31, Type (0, 0), BuildingBlock: UVAHIK_clean_linker_0, # of connection points: 2
#     Edge 32, Type (0, 0), BuildingBlock: UVAHIK_clean_linker_0, # of connection points: 2
#     Edge 33, Type (0, 0), BuildingBlock: UVAHIK_clean_linker_0, # of connection points: 2
#     Edge 34, Type (0, 0), BuildingBlock: UVAHIK_clean_linker_0, # of connection points: 2
#     Edge 35, Type (0, 0), BuildingBlock: UVAHIK_clean_linker_0, # of connection points: 2
#     Edge 36, Type (0, 0), BuildingBlock: UVAHIK_clean_linker_0, # of connection points: 2
#     Edge 37, Type (0, 0), BuildingBlock: UVAHIK_clean_linker_0, # of connection points: 2
#     Edge 38, Type (0, 0), BuildingBlock: UVAHIK_clean_linker_0, # of connection points: 2
#     Edge 39, Type (0, 0), BuildingBlock: UVAHIK_clean_linker_0, # of connection points: 2
#     Edge 40, Type (0, 0), BuildingBlock: UVAHIK_clean_linker_0, # of connection points: 2
#     Edge 41, Type (0, 0), BuildingBlock: UVAHIK_clean_linker_0, # of connection points: 2
#     Edge 42, Type (0, 0), BuildingBlock: UVAHIK_clean_linker_0, # of connection points: 2
#     Edge 43, Type (0, 0), BuildingBlock: UVAHIK_clean_linker_0, # of connection points: 2
#     Edge 44, Type (0, 0), BuildingBlock: UVAHIK_clean_linker_0, # of connection points: 2
#     Edge 45, Type (0, 0), BuildingBlock: UVAHIK_clean_linker_0, # of connection points: 2
#     Edge 46, Type (0, 0), BuildingBlock: UVAHIK_clean_linker_0, # of connection points: 2
#     Edge 47, Type (0, 0), BuildingBlock: UVAHIK_clean_linker_0, # of connection points: 2
# Relax obj value: 0.106
# Max RMSD: 0.162
# Mean RMSD: 0.162
data_MOF--net-ume--node1-KUFVIS_clean_sbu_0--edge1-UVAHIK_clean_linker_0
_symmetry_space_group_name_H-M    P1
_symmetry_Int_Tables_number       1
_symmetry_cell_setting            triclinic
loop_
_symmetry_equiv_pos_as_xyz
'x, y, z'
_cell_length_a     33.580248
_cell_length_b     33.580281
_cell_length_c     148.22195
_cell_angle_alpha  89.998583
_cell_angle_beta   89.997806
_cell_angle_gamma 89.998638
loop_
_atom_site_label
_atom_site_type_symbol
_atom_site_fract_x
_atom_site_fract_y
_atom_site_fract_z
_atom_type_partial_charge
Mn0 Mn 0.25679 0.13712 0.3108 0.0
Mn1 Mn 0.27199 0.06204 0.32559 0.0
C2 C 0.32025 0.11305 0.31341 0.0
C3 C 0.24343 0.15833 0.29614 0.0
C4 C 0.25862 0.14754 0.33134 0.0
O5 O 0.20127 0.11398 0.31216 0.0
O6 O 0.21491 0.06547 0.3222 0.0
C7 C 0.25323 0.99617 0.31298 0.0
N8 N 0.27895 0.01399 0.31883 0.0
C9 C 0.32761 0.96227 0.31662 0.0
C10 C 0.30154 0.94327 0.31062 0.0
C11 C 0.26424 0.96037 0.30877 0.0
C12 C 0.31509 0.99802 0.32057 0.0
H13 H 0.22455 0.0092 0.31153 0.0
C14 C 0.19083 0.08489 0.31716 0.0
O15 O 0.23675 0.18149 0.30301 0.0
O16 O 0.25695 0.123 0.29785 0.0
N17 N 0.32584 0.05414 0.32945 0.0
C18 C 0.34745 0.07603 0.33544 0.0
C19 C 0.38515 0.06259 0.33816 0.0
C20 C 0.40009 0.0265 0.33479 0.0
C21 C 0.37728 0.0043 0.32868 0.0
C22 C 0.33966 0.01896 0.3263 0.0
H23 H 0.33586 0.10332 0.33816 0.0
O24 O 0.31525 0.14856 0.31016 0.0
O25 O 0.28815 0.09279 0.31502 0.0
O26 O 0.2532 0.16203 0.32347 0.0
O27 O 0.26638 0.11089 0.33291 0.0
C28 C 0.39034 0.96815 0.32487 0.0
C29 C 0.36563 0.9473 0.31879 0.0
H30 H 0.3099 0.91562 0.30736 0.0
H31 H 0.24401 0.94596 0.30412 0.0
H32 H 0.40253 0.07984 0.34291 0.0
H33 H 0.42895 0.01598 0.337 0.0
H34 H 0.41944 0.95628 0.32651 0.0
H35 H 0.37613 0.91972 0.31584 0.0
Mn36 Mn 0.85496 0.75971 0.56039 0.0
Mn37 Mn 0.93233 0.76518 0.57493 0.0
C38 C 0.88579 0.81992 0.56322 0.0
C39 C 0.83146 0.75003 0.54576 0.0
C40 C 0.84636 0.76062 0.58098 0.0
O41 O 0.872 0.70193 0.5614 0.0
O42 O 0.92245 0.70916 0.5713 0.0
C43 C 0.99481 0.74084 0.56193 0.0
N44 N 0.9803 0.7677 0.56799 0.0
C45 C 0.03659 0.81095 0.56573 0.0
C46 C 0.05223 0.78363 0.55951 0.0
C47 C 0.03118 0.74849 0.55759 0.0
C48 C 0.0001 0.80181 0.56981 0.0
H49 H 0.97872 0.71383 0.56042 0.0
C50 C 0.90003 0.6879 0.56625 0.0
O51 O 0.80819 0.74522 0.55268 0.0
O52 O 0.86812 0.75961 0.54738 0.0
N53 N 0.94626 0.81742 0.57904 0.0
C54 C 0.92746 0.8404 0.58529 0.0
C55 C 0.94503 0.8762 0.58813 0.0
C56 C 0.98205 0.88775 0.5846 0.0
C57 C 0.00112 0.86345 0.57825 0.0
C58 C 0.98238 0.82784 0.57576 0.0
H59 H 0.89948 0.8313 0.58816 0.0
O60 O 0.84978 0.81904 0.56006 0.0
O61 O 0.9027 0.7857 0.56458 0.0
O62 O 0.8307 0.75769 0.57315 0.0
O63 O 0.88375 0.76408 0.58241 0.0
C64 C 0.03805 0.87309 0.5743 0.0
C65 C 0.05564 0.84698 0.568 0.0
H66 H 0.0803 0.7894 0.55616 0.0
H67 H 0.04298 0.72734 0.55277 0.0
H68 H 0.93022 0.89467 0.59309 0.0
H69 H 0.99574 0.91512 0.5869 0.0
H70 H 0.05306 0.90061 0.57603 0.0
H71 H 0.08389 0.85485 0.56495 0.0
Mn72 Mn 0.23892 0.3576 0.81029 0.0
Mn73 Mn 0.22456 0.4384 0.82348 0.0
C74 C 0.17631 0.38526 0.81175 0.0
C75 C 0.2539 0.33001 0.79626 0.0
C76 C 0.23127 0.35492 0.83096 0.0
O77 O 0.29521 0.3785 0.81178 0.0
O78 O 0.28208 0.42964 0.82114 0.0
C79 C 0.25209 0.4976 0.81002 0.0
N80 N 0.22348 0.48413 0.81578 0.0
C81 C 0.18049 0.53915 0.81211 0.0
C82 C 0.20959 0.5537 0.80618 0.0
C83 C 0.24548 0.53274 0.80511 0.0
C84 C 0.18863 0.50378 0.81676 0.0
H85 H 0.27975 0.48167 0.80917 0.0
C86 C 0.30615 0.40778 0.81664 0.0
O87 O 0.25816 0.30946 0.80363 0.0
O88 O 0.24186 0.36647 0.7971 0.0
N89 N 0.1706 0.45192 0.82634 0.0
C90 C 0.14557 0.43405 0.83233 0.0
C91 C 0.10891 0.45192 0.8344 0.0
C92 C 0.09846 0.48822 0.83035 0.0
C93 C 0.12452 0.50603 0.82417 0.0
C94 C 0.16095 0.48712 0.82249 0.0
H95 H 0.15358 0.40646 0.83551 0.0
O96 O 0.1803 0.34845 0.80927 0.0
O97 O 0.20894 0.4049 0.81328 0.0
O98 O 0.23889 0.33762 0.82347 0.0
O99 O 0.22418 0.3922 0.83171 0.0
C100 C 0.11585 0.5419 0.81965 0.0
C101 C 0.1437 0.55828 0.81357 0.0
H102 H 0.20466 0.58088 0.80241 0.0
H103 H 0.26804 0.54371 0.80053 0.0
H104 H 0.08888 0.4379 0.83915 0.0
H105 H 0.07047 0.50229 0.83207 0.0
H106 H 0.08776 0.55698 0.82076 0.0
H107 H 0.13658 0.58571 0.81007 0.0
Mn108 Mn 0.63803 0.73877 0.05993 0.0
Mn109 Mn 0.56381 0.72432 0.07498 0.0
C110 C 0.61393 0.67545 0.06275 0.0
C111 C 0.65844 0.75151 0.04518 0.0
C112 C 0.64964 0.73824 0.08043 0.0
O113 O 0.61496 0.79439 0.06125 0.0
O114 O 0.56658 0.78114 0.07136 0.0
C115 C 0.49685 0.74159 0.06257 0.0
N116 N 0.51535 0.71644 0.06844 0.0
C117 C 0.46395 0.66715 0.0666 0.0
C118 C 0.44424 0.69262 0.06058 0.0
C119 C 0.46085 0.72995 0.05853 0.0
C120 C 0.49985 0.68029 0.07037 0.0
H121 H 0.5095 0.77028 0.06096 0.0
C122 C 0.58585 0.80499 0.06622 0.0
O123 O 0.68195 0.75845 0.05197 0.0
O124 O 0.62318 0.73811 0.04702 0.0
N125 N 0.55671 0.67068 0.07907 0.0
C126 C 0.5793 0.64967 0.08503 0.0
C127 C 0.56652 0.61197 0.08792 0.0
C128 C 0.53036 0.59643 0.08473 0.0
C129 C 0.50741 0.61866 0.07865 0.0
C130 C 0.52146 0.6563 0.0761 0.0
H131 H 0.60666 0.66173 0.08762 0.0
O132 O 0.64926 0.68022 0.05938 0.0
O133 O 0.59393 0.7077 0.06436 0.0
O134 O 0.66377 0.74282 0.0725 0.0
O135 O 0.61304 0.73088 0.08212 0.0
C136 C 0.4711 0.60501 0.07502 0.0
C137 C 0.44952 0.62913 0.06895 0.0
H138 H 0.41645 0.68377 0.05746 0.0
H139 H 0.4459 0.74972 0.05387 0.0
H140 H 0.58434 0.59506 0.09264 0.0
H141 H 0.52039 0.56754 0.08705 0.0
H142 H 0.45966 0.5759 0.07681 0.0
H143 H 0.42184 0.61816 0.06614 0.0
Mn144 Mn 0.26042 0.35811 0.94101 0.0
Mn145 Mn 0.27206 0.438 0.9275 0.0
C146 C 0.32347 0.38226 0.93799 0.0
C147 C 0.24865 0.33322 0.95544 0.0
C148 C 0.25131 0.35525 0.92067 0.0
O149 O 0.20472 0.38259 0.94047 0.0
O150 O 0.21877 0.43956 0.93309 0.0
C151 C 0.27074 0.50229 0.94116 0.0
N152 N 0.28956 0.48311 0.93428 0.0
C153 C 0.34386 0.52981 0.9346 0.0
C154 C 0.325 0.55019 0.94167 0.0
C155 C 0.28836 0.53625 0.94498 0.0
C156 C 0.325 0.496 0.9311 0.0
H157 H 0.24249 0.49176 0.9437 0.0
C158 C 0.19509 0.4171 0.93755 0.0
O159 O 0.24087 0.31206 0.94831 0.0
O160 O 0.26273 0.3687 0.95415 0.0
N161 N 0.32304 0.44035 0.92175 0.0
C162 C 0.33819 0.41626 0.91519 0.0
C163 C 0.37505 0.42565 0.91126 0.0
C164 C 0.39569 0.45994 0.91401 0.0
C165 C 0.37942 0.4844 0.92073 0.0
C166 C 0.3426 0.47352 0.92441 0.0
H167 H 0.32224 0.39015 0.91296 0.0
O168 O 0.31903 0.34618 0.94096 0.0
O169 O 0.29116 0.40285 0.93703 0.0
O170 O 0.255 0.33668 0.92812 0.0
O171 O 0.25476 0.39298 0.91985 0.0
C172 C 0.39838 0.51901 0.92397 0.0
C173 C 0.3808 0.5415 0.93095 0.0
H174 H 0.33846 0.57643 0.94462 0.0
H175 H 0.27368 0.55174 0.95045 0.0
H176 H 0.38743 0.40662 0.90607 0.0
H177 H 0.42408 0.4671 0.91094 0.0
H178 H 0.42672 0.52839 0.9212 0.0
H179 H 0.39602 0.56764 0.93349 0.0
Mn180 Mn 0.64238 0.75939 0.18913 0.0
Mn181 Mn 0.56837 0.77081 0.17393 0.0
C182 C 0.61628 0.82179 0.18629 0.0
C183 C 0.66189 0.74665 0.20394 0.0
C184 C 0.65464 0.75721 0.16877 0.0
O185 O 0.62123 0.70287 0.18757 0.0
O186 O 0.5695 0.71506 0.17823 0.0
C187 C 0.49957 0.75834 0.18609 0.0
N188 N 0.51954 0.78161 0.18008 0.0
C189 C 0.46926 0.83252 0.18092 0.0
C190 C 0.44802 0.80901 0.18708 0.0
C191 C 0.46333 0.77182 0.1897 0.0
C192 C 0.50528 0.81759 0.17757 0.0
H193 H 0.51126 0.72974 0.18812 0.0
C194 C 0.59066 0.69177 0.1831 0.0
O195 O 0.68624 0.74091 0.19725 0.0
O196 O 0.62631 0.75879 0.20198 0.0
N197 N 0.56371 0.82371 0.16925 0.0
C198 C 0.5885 0.84325 0.16347 0.0
C199 C 0.5777 0.88105 0.16024 0.0
C200 C 0.5414 0.89817 0.16291 0.0
C201 C 0.51626 0.87739 0.16882 0.0
C202 C 0.52849 0.83972 0.17177 0.0
H203 H 0.61627 0.83009 0.16133 0.0
O204 O 0.65131 0.81831 0.18989 0.0
O205 O 0.59778 0.78882 0.18453 0.0
O206 O 0.66938 0.75744 0.17671 0.0
O207 O 0.61756 0.76073 0.16705 0.0
C208 C 0.47967 0.89265 0.17194 0.0
C209 C 0.45632 0.87036 0.17803 0.0
H210 H 0.42006 0.8193 0.18988 0.0
H211 H 0.4472 0.75357 0.19448 0.0
H212 H 0.59725 0.8969 0.15568 0.0
H213 H 0.53319 0.92731 0.16039 0.0
H214 H 0.46936 0.92166 0.16976 0.0
H215 H 0.42853 0.88266 0.18048 0.0
Mn216 Mn 0.23587 0.14271 0.44021 0.0
Mn217 Mn 0.23421 0.06592 0.4255 0.0
C218 C 0.17674 0.11058 0.43704 0.0
C219 C 0.24447 0.16531 0.45495 0.0
C220 C 0.24095 0.15238 0.41981 0.0
O221 O 0.29431 0.12686 0.43923 0.0
O222 O 0.28883 0.07264 0.43028 0.0
C223 C 0.25022 0.00013 0.43828 0.0
N224 N 0.2265 0.01716 0.43191 0.0
C225 C 0.17984 0.96289 0.43271 0.0
C226 C 0.20389 0.94464 0.43925 0.0
C227 C 0.23917 0.96341 0.44206 0.0
C228 C 0.19236 -0.00048 0.4292 0.0
H229 H 0.27731 0.01453 0.44047 0.0
C230 C 0.30905 0.09686 0.43513 0.0
O231 O 0.24899 0.18915 0.44812 0.0
O232 O 0.23584 0.12852 0.45317 0.0
N233 N 0.18289 0.056 0.42036 0.0
C234 C 0.16242 0.07821 0.41422 0.0
C235 C 0.12625 0.06381 0.41076 0.0
C236 C 0.11169 0.02663 0.41359 0.0
C237 C 0.13343 0.00418 0.41987 0.0
C238 C 0.16945 0.01991 0.42302 0.0
H239 H 0.1736 0.10667 0.41198 0.0
O240 O 0.17634 0.14621 0.44043 0.0
O241 O 0.21155 0.09496 0.4357 0.0
O242 O 0.23739 0.1681 0.42761 0.0
O243 O 0.2414 0.11489 0.41836 0.0
C244 C 0.12062 0.96698 0.42317 0.0
C245 C 0.1437 0.94646 0.42963 0.0
H246 H 0.19543 0.91635 0.44219 0.0
H247 H 0.25778 0.9496 0.44714 0.0
H248 H 0.10965 0.0813 0.40592 0.0
H249 H 0.08375 0.01569 0.41091 0.0
H250 H 0.09286 0.95408 0.42087 0.0
H251 H 0.13326 0.91815 0.43222 0.0
Mn252 Mn 0.85776 0.73966 0.69065 0.0
Mn253 Mn 0.93733 0.72881 0.67698 0.0
C254 C 0.88485 0.67727 0.68822 0.0
C255 C 0.83252 0.75257 0.705 0.0
C256 C 0.85343 0.74441 0.67021 0.0
O257 O 0.87973 0.79626 0.68954 0.0
O258 O 0.93627 0.78343 0.68186 0.0
C259 C 0.00214 0.73696 0.69039 0.0
N260 N 0.9836 0.71542 0.68383 0.0
C261 C 0.03304 0.66373 0.68473 0.0
C262 C 0.05277 0.68542 0.69147 0.0
C263 C 0.03714 0.72211 0.69434 0.0
C264 C 0.99813 0.6799 0.6811 0.0
H265 H 0.9903 0.76527 0.69258 0.0
C266 C 0.91318 0.80694 0.6862 0.0
O267 O 0.81101 0.75829 0.69783 0.0
O268 O 0.86868 0.74013 0.70379 0.0
N269 N 0.94205 0.67664 0.6719 0.0
C270 C 0.91846 0.65863 0.66563 0.0
C271 C 0.92954 0.62133 0.66216 0.0
C272 C 0.96496 0.60319 0.66508 0.0
C273 C 0.98888 0.62239 0.6715 0.0
C274 C 0.97629 0.65949 0.67472 0.0
H275 H 0.89146 0.67266 0.66327 0.0
O276 O 0.84862 0.68059 0.69118 0.0
O277 O 0.90379 0.71031 0.68687 0.0
O278 O 0.83555 0.74186 0.67778 0.0
O279 O 0.89115 0.74188 0.66928 0.0
C280 C 0.0246 0.60611 0.67486 0.0
C281 C 0.04647 0.62657 0.68153 0.0
H282 H 0.07981 0.6741 0.69452 0.0
H283 H 0.05212 0.73897 0.69955 0.0
H284 H 0.91092 0.60668 0.65721 0.0
H285 H 0.97342 0.57445 0.66237 0.0
H286 H 0.03536 0.57767 0.67242 0.0
H287 H 0.0735 0.6134 0.68417 0.0
Mn288 Mn 0.75634 0.64217 0.80943 0.0
Mn289 Mn 0.76474 0.56281 0.82333 0.0
C290 C 0.81713 0.61129 0.81149 0.0
C291 C 0.74416 0.66864 0.79516 0.0
C292 C 0.76125 0.6477 0.83008 0.0
O293 O 0.69884 0.62456 0.81077 0.0
O294 O 0.70807 0.57365 0.82045 0.0
C295 C 0.73694 0.50271 0.81011 0.0
N296 N 0.76519 0.51595 0.81599 0.0
C297 C 0.8069 0.45923 0.81294 0.0
C298 C 0.77816 0.4449 0.8069 0.0
C299 C 0.7431 0.46682 0.80545 0.0
C300 C 0.79928 0.49538 0.81732 0.0
H301 H 0.70994 0.51941 0.80898 0.0
C302 C 0.6858 0.59634 0.81569 0.0
O303 O 0.74031 0.69027 0.80238 0.0
O304 O 0.75424 0.63172 0.79628 0.0
N305 N 0.8176 0.54767 0.82675 0.0
C306 C 0.84199 0.56512 0.83293 0.0
C307 C 0.87766 0.54627 0.8354 0.0
C308 C 0.88768 0.50939 0.83157 0.0
C309 C 0.86215 0.49189 0.82523 0.0
C310 C 0.82669 0.51181 0.82315 0.0
H311 H 0.83408 0.59296 0.83602 0.0
O312 O 0.81553 0.64783 0.80868 0.0
O313 O 0.78327 0.59386 0.81299 0.0
O314 O 0.75609 0.6642 0.8224 0.0
O315 O 0.76578 0.61021 0.83121 0.0
C316 C 0.8703 0.45528 0.82098 0.0
C317 C 0.84284 0.43913 0.81477 0.0
H318 H 0.78273 0.41715 0.80331 0.0
H319 H 0.72083 0.45602 0.80078 0.0
H320 H 0.89717 0.55992 0.84032 0.0
H321 H 0.9148 0.49454 0.83363 0.0
H322 H 0.89767 0.4394 0.8224 0.0
H323 H 0.84955 0.4111 0.81149 0.0
Mn324 Mn 0.35313 0.25766 0.06051 0.0
Mn325 Mn 0.4328 0.26057 0.0744 0.0
C326 C 0.38539 0.3172 0.06318 0.0
C327 C 0.32733 0.24757 0.0461 0.0
C328 C 0.34764 0.25316 0.08099 0.0
O329 O 0.36964 0.19938 0.06151 0.0
O330 O 0.42593 0.20579 0.06974 0.0
C331 C 0.4963 0.24524 0.061 0.0
N332 N 0.4802 0.26881 0.06752 0.0
C333 C 0.53386 0.31595 0.06624 0.0
C334 C 0.55117 0.29207 0.05954 0.0
C335 C 0.53223 0.25663 0.05689 0.0
C336 C 0.49798 0.30313 0.07007 0.0
H337 H 0.48179 0.218 0.05895 0.0
C338 C 0.40077 0.18513 0.06526 0.0
O339 O 0.30515 0.24358 0.05323 0.0
O340 O 0.36438 0.2568 0.04738 0.0
N341 N 0.443 0.31209 0.0794 0.0
C342 C 0.42172 0.33233 0.08575 0.0
C343 C 0.43644 0.36857 0.0891 0.0
C344 C 0.473 0.38342 0.08595 0.0
C345 C 0.49448 0.36195 0.07946 0.0
C346 C 0.47847 0.32586 0.07643 0.0
H347 H 0.39378 0.32088 0.08825 0.0
O348 O 0.34914 0.31714 0.06014 0.0
O349 O 0.40156 0.28258 0.06445 0.0
O350 O 0.33039 0.25676 0.07337 0.0
O351 O 0.38538 0.25278 0.08205 0.0
C352 C 0.53099 0.37505 0.07583 0.0
C353 C 0.55054 0.3522 0.06919 0.0
H354 H 0.57886 0.30076 0.05635 0.0
H355 H 0.54531 0.23813 0.0517 0.0
H356 H 0.4197 0.38497 0.09411 0.0
H357 H 0.48423 0.41137 0.08856 0.0
H358 H 0.5441 0.40287 0.07804 0.0
H359 H 0.57831 0.36286 0.06636 0.0
Mn360 Mn 0.73815 0.85336 0.31044 0.0
Mn361 Mn 0.73518 0.92922 0.32538 0.0
C362 C 0.67879 0.88542 0.31341 0.0
C363 C 0.74808 0.83162 0.29568 0.0
C364 C 0.74098 0.84241 0.33084 0.0
O365 O 0.79651 0.86899 0.31176 0.0
O366 O 0.79026 0.92253 0.32088 0.0
C367 C 0.75286 0.99564 0.31288 0.0
N368 N 0.72839 0.97837 0.31908 0.0
C369 C 0.6821 0.03292 0.31818 0.0
C370 C 0.70692 0.05142 0.31183 0.0
C371 C 0.74239 0.03263 0.30915 0.0
C372 C 0.69404 0.99603 0.32165 0.0
H373 H 0.78012 0.98124 0.3108 0.0
C374 C 0.81091 0.89864 0.31604 0.0
O375 O 0.75188 0.80735 0.30246 0.0
O376 O 0.73942 0.86833 0.29753 0.0
N377 N 0.68338 0.93912 0.33027 0.0
C378 C 0.66221 0.91671 0.33625 0.0
C379 C 0.6258 0.93115 0.33957 0.0
C380 C 0.61173 0.96856 0.33678 0.0
C381 C 0.63418 0.9912 0.33067 0.0
C382 C 0.67039 0.97542 0.32765 0.0
H383 H 0.67301 0.88807 0.33848 0.0
O384 O 0.67866 0.85001 0.30991 0.0
O385 O 0.71349 0.90089 0.31497 0.0
O386 O 0.73835 0.8272 0.32297 0.0
O387 O 0.74133 0.87979 0.33242 0.0
C388 C 0.62194 0.02868 0.32741 0.0
C389 C 0.64576 0.04941 0.32113 0.0
H390 H 0.69893 0.07993 0.30893 0.0
H391 H 0.76161 0.04664 0.30422 0.0
H392 H 0.60864 0.91351 0.34429 0.0
H393 H 0.58363 0.97955 0.33936 0.0
H394 H 0.59408 0.04167 0.32962 0.0
H395 H 0.63576 0.07794 0.31858 0.0
Mn396 Mn 0.13938 0.24124 0.5613 0.0
Mn397 Mn 0.06506 0.22854 0.57638 0.0
C398 C 0.11397 0.17846 0.56403 0.0
C399 C 0.15893 0.25457 0.54652 0.0
C400 C 0.15105 0.24283 0.58169 0.0
O401 O 0.11762 0.29747 0.56293 0.0
O402 O 0.06577 0.28443 0.57217 0.0
C403 C 0.99656 0.24066 0.56412 0.0
N404 N 0.01655 0.21744 0.57013 0.0
C405 C 0.96675 0.1661 0.56916 0.0
C406 C 0.9455 0.18956 0.56299 0.0
C407 C 0.96055 0.22694 0.56043 0.0
C408 C 0.00254 0.18127 0.57257 0.0
H409 H 0.00805 0.26941 0.56214 0.0
C410 C 0.08682 0.30811 0.56737 0.0
O411 O 0.18317 0.26037 0.55323 0.0
O412 O 0.12346 0.24204 0.54845 0.0
N413 N 0.06076 0.17548 0.58098 0.0
C414 C 0.08549 0.15609 0.5868 0.0
C415 C 0.07485 0.1182 0.59 0.0
C416 C 0.03878 0.10083 0.58726 0.0
C417 C 0.01372 0.12144 0.5813 0.0
C418 C 0.02576 0.15922 0.57839 0.0
H419 H 0.11305 0.16945 0.58901 0.0
O420 O 0.14902 0.18246 0.56046 0.0
O421 O 0.09501 0.21115 0.5658 0.0
O422 O 0.16606 0.24309 0.57377 0.0
O423 O 0.11396 0.23883 0.58334 0.0
C424 C 0.97736 0.10592 0.57811 0.0
C425 C 0.95404 0.1281 0.57199 0.0
H426 H 0.91772 0.17908 0.56013 0.0
H427 H 0.94441 0.24515 0.55565 0.0
H428 H 0.09434 0.10248 0.5946 0.0
H429 H 0.03067 0.07165 0.58977 0.0
H430 H 0.96722 0.0768 0.58025 0.0
H431 H 0.92644 0.11561 0.56949 0.0
Mn432 Mn 0.75494 0.85891 0.43967 0.0
Mn433 Mn 0.76954 0.9326 0.42449 0.0
C434 C 0.8184 0.88224 0.43668 0.0
C435 C 0.74247 0.8392 0.45447 0.0
C436 C 0.75412 0.84679 0.4192 0.0
O437 O 0.69953 0.88256 0.43841 0.0
O438 O 0.71295 0.93097 0.42832 0.0
C439 C 0.75438 0.00023 0.43685 0.0
N440 N 0.7788 0.98107 0.43094 0.0
C441 C 0.82926 0.03147 0.43256 0.0
C442 C 0.80455 0.05185 0.43863 0.0
C443 C 0.767 0.03609 0.4408 0.0
C444 C 0.81515 0.99577 0.42887 0.0
H445 H 0.72553 0.98823 0.43856 0.0
C446 C 0.68909 0.91195 0.4335 0.0
O447 O 0.73505 0.81551 0.44775 0.0
O448 O 0.75623 0.87423 0.45255 0.0
N449 N 0.82305 0.9385 0.42022 0.0
C450 C 0.84326 0.91528 0.41424 0.0
C451 C 0.88112 0.92713 0.41125 0.0
C452 C 0.89762 0.96299 0.41436 0.0
C453 C 0.87617 0.98664 0.42045 0.0
C454 C 0.83835 0.9735 0.4231 0.0
H455 H 0.83045 0.88814 0.41171 0.0
O456 O 0.81341 0.84709 0.44013 0.0
O457 O 0.78629 0.90249 0.4351 0.0
O458 O 0.75016 0.8328 0.42716 0.0
O459 O 0.76156 0.88332 0.41744 0.0
C460 C 0.89078 0.02275 0.42398 0.0
C461 C 0.86745 0.04501 0.43008 0.0
H462 H 0.81416 0.07953 0.44169 0.0
H463 H 0.74783 0.05156 0.44551 0.0
H464 H 0.89741 0.90879 0.40652 0.0
H465 H 0.92667 0.97219 0.41197 0.0
H466 H 0.92003 0.03352 0.4221 0.0
H467 H 0.87916 0.07252 0.43282 0.0
Mn468 Mn 0.14213 0.2589 0.69189 0.0
Mn469 Mn 0.06313 0.27211 0.67806 0.0
C470 C 0.11675 0.322 0.68929 0.0
C471 C 0.16727 0.24634 0.70628 0.0
C472 C 0.1471 0.2568 0.67131 0.0
O473 O 0.1189 0.20302 0.69101 0.0
O474 O 0.06569 0.2163 0.68227 0.0
C475 C -0.00036 0.25912 0.69162 0.0
N476 N 0.01688 0.28251 0.68521 0.0
C477 C 0.96635 0.33271 0.687 0.0
C478 C 0.94795 0.30908 0.69359 0.0
C479 C 0.96478 0.2722 0.69594 0.0
C480 C 0.00126 0.31829 0.683 0.0
H481 H 0.0124 0.23071 0.69344 0.0
C482 C 0.08694 0.19253 0.687 0.0
O483 O 0.18847 0.23948 0.69911 0.0
O484 O 0.1315 0.2598 0.70505 0.0
N485 N 0.05608 0.32503 0.67352 0.0
C486 C 0.07741 0.34423 0.66703 0.0
C487 C 0.06423 0.38122 0.66379 0.0
C488 C 0.02889 0.39785 0.66716 0.0
C489 C 0.00723 0.37749 0.6738 0.0
C490 C 0.0217 0.34055 0.67671 0.0
H491 H 0.10394 0.33116 0.66425 0.0
O492 O 0.15297 0.31771 0.69218 0.0
O493 O 0.09671 0.28953 0.68805 0.0
O494 O 0.16406 0.2546 0.679 0.0
O495 O 0.10983 0.26284 0.6702 0.0
C496 C 0.97173 0.39227 0.67761 0.0
C497 C 0.95152 0.37008 0.68427 0.0
H498 H 0.92098 0.31899 0.69691 0.0
H499 H 0.95083 0.25384 0.70104 0.0
H500 H 0.08102 0.39666 0.65863 0.0
H501 H 0.01853 0.42611 0.66454 0.0
H502 H 0.95986 0.4208 0.67551 0.0
H503 H 0.92452 0.38197 0.68722 0.0
Mn504 Mn 0.74118 0.64066 0.93926 0.0
Mn505 Mn 0.73487 0.56329 0.92482 0.0
C506 C 0.68009 0.61239 0.93602 0.0
C507 C 0.75048 0.66305 0.95399 0.0
C508 C 0.74916 0.64872 0.91893 0.0
O509 O 0.79842 0.62037 0.93851 0.0
O510 O 0.78877 0.56512 0.93012 0.0
C511 C 0.74306 0.49651 0.93772 0.0
N512 N 0.72186 0.51555 0.93118 0.0
C513 C 0.67096 0.46515 0.93148 0.0
C514 C 0.69232 0.44489 0.93818 0.0
C515 C 0.72846 0.46072 0.94134 0.0
C516 C 0.68692 0.50075 0.92814 0.0
H517 H 0.77087 0.50856 0.94015 0.0
C518 C 0.81072 0.58802 0.93491 0.0
O519 O 0.75701 0.68637 0.94715 0.0
O520 O 0.73945 0.62692 0.95223 0.0
N521 N 0.68354 0.55801 0.91933 0.0
C522 C 0.6656 0.58226 0.91318 0.0
C523 C 0.62869 0.57117 0.9095 0.0
C524 C 0.61083 0.53513 0.9121 0.0
C525 C 0.62999 0.51053 0.91839 0.0
C526 C 0.66674 0.52311 0.92183 0.0
H527 H 0.67933 0.60984 0.9111 0.0
O528 O 0.68185 0.64817 0.9393 0.0
O529 O 0.71387 0.59465 0.9348 0.0
O530 O 0.74515 0.66528 0.92662 0.0
O531 O 0.74759 0.61114 0.91765 0.0
C532 C 0.61388 0.47423 0.92147 0.0
C533 C 0.6342 0.4517 0.92805 0.0
H534 H 0.68114 0.4173 0.941 0.0
H535 H 0.74504 0.44535 0.94654 0.0
H536 H 0.61407 0.59033 0.90465 0.0
H537 H 0.5823 0.52675 0.90927 0.0
H538 H 0.58565 0.46356 0.91889 0.0
H539 H 0.62116 0.4242 0.93047 0.0
Mn540 Mn 0.35756 0.24075 0.19054 0.0
Mn541 Mn 0.43427 0.2346 0.17584 0.0
C542 C 0.38744 0.18018 0.18756 0.0
C543 C 0.33451 0.25028 0.20521 0.0
C544 C 0.34817 0.24076 0.16997 0.0
O545 O 0.37546 0.29832 0.18959 0.0
O546 O 0.4254 0.29064 0.17958 0.0
C547 C 0.49765 0.25747 0.18874 0.0
N548 N 0.48247 0.23107 0.18267 0.0
C549 C 0.53815 0.18686 0.18472 0.0
C550 C 0.55449 0.2137 0.19096 0.0
C551 C 0.53407 0.24909 0.19299 0.0
C552 C 0.50165 0.19672 0.18074 0.0
H553 H 0.48205 0.28468 0.19034 0.0
C554 C 0.40351 0.31207 0.18471 0.0
O555 O 0.31122 0.25572 0.19832 0.0
O556 O 0.37101 0.2402 0.20354 0.0
N557 N 0.44718 0.18229 0.17161 0.0
C558 C 0.42771 0.1598 0.16536 0.0
C559 C 0.44457 0.12382 0.16242 0.0
C560 C 0.48157 0.11157 0.16584 0.0
C561 C 0.50132 0.13536 0.1722 0.0
C562 C 0.48326 0.17119 0.17478 0.0
H563 H 0.39972 0.16942 0.16259 0.0
O564 O 0.35154 0.18147 0.19077 0.0
O565 O 0.40476 0.2142 0.18622 0.0
O566 O 0.33291 0.24361 0.17784 0.0
O567 O 0.38543 0.23675 0.16845 0.0
C568 C 0.53826 0.125 0.17604 0.0
C569 C 0.55654 0.15061 0.18235 0.0
H570 H 0.58259 0.20736 0.19424 0.0
H571 H 0.5464 0.26988 0.19782 0.0
H572 H 0.42924 0.10573 0.15748 0.0
H573 H 0.49471 0.08405 0.16348 0.0
H574 H 0.55275 0.0973 0.17423 0.0
H575 H 0.58478 0.14218 0.18532 0.0
C576 C 0.87479 0.91867 0.32303 0.0
C577 C 0.85356 0.90754 0.31528 0.0
C578 C 0.91349 0.93324 0.3223 0.0
C579 C 0.97397 0.99296 0.30797 0.0
H580 H 0.06163 0.95629 0.32282 0.0
C581 C 0.12907 0.06992 0.30837 0.0
C582 C 0.14972 0.06982 0.3166 0.0
C583 C 0.09317 0.04908 0.3075 0.0
C584 C 0.03733 0.96728 0.31871 0.0
H585 H 0.85583 0.90201 0.30073 0.0
H586 H 0.92378 0.92892 0.29943 0.0
H587 H -9e-05 0.9182 0.32238 0.0
H588 H 0.14796 0.05046 0.33054 0.0
H589 H 0.08461 0.016 0.32919 0.0
H590 H 0.01036 0.0432 0.30467 0.0
C591 C 0.91051 0.9256 0.30605 0.0
C592 C 0.00224 0.94515 0.31839 0.0
C593 C 0.87198 0.91001 0.3068 0.0
C594 C 0.13279 0.05065 0.32408 0.0
C595 C 0.09672 0.03049 0.32327 0.0
C596 C 0.00892 0.01552 0.3084 0.0
C597 C 0.93125 0.93782 0.3138 0.0
C598 C 0.97009 0.95811 0.31313 0.0
C599 C 0.0771 0.02827 0.3149 0.0
C600 C 0.04074 0.00334 0.31393 0.0
H601 H 0.86099 0.91713 0.32963 0.0
H602 H 0.92883 0.94276 0.32836 0.0
H603 H 0.94928 0.00372 0.30395 0.0
H604 H 0.14173 0.08416 0.30247 0.0
H605 H 0.07899 0.04793 0.30095 0.0
C606 C 0.91099 0.62615 0.55722 0.0
C607 C 0.90969 0.64533 0.56563 0.0
C608 C 0.92701 0.58781 0.55649 0.0
C609 C 0.94916 0.49736 0.56899 0.0
H610 H 0.04462 0.48813 0.55439 0.0
C611 C 0.05507 0.36729 0.57427 0.0
C612 C 0.07254 0.34938 0.5667 0.0
C613 C 0.0352 0.40348 0.57347 0.0
C614 C 0.01766 0.48991 0.55838 0.0
H615 H 0.92192 0.63925 0.57992 0.0
H616 H 0.94835 0.57169 0.57871 0.0
H617 H 0.0051 0.54929 0.55384 0.0
H618 H 0.08439 0.35564 0.55242 0.0
H619 H 0.04852 0.41879 0.55091 0.0
H620 H 0.96098 0.43825 0.5735 0.0
C621 C 0.93758 0.5864 0.57267 0.0
C622 C 0.99508 0.52488 0.55805 0.0
C623 C 0.92254 0.62494 0.57336 0.0
C624 C 0.07141 0.36916 0.55837 0.0
C625 C 0.0508 0.40523 0.55752 0.0
C626 C 0.97127 0.46227 0.56922 0.0
C627 C 0.94088 0.56794 0.56421 0.0
C628 C 0.96122 0.52914 0.56352 0.0
C629 C 0.03151 0.42222 0.56503 0.0
C630 C 0.00645 0.45849 0.56412 0.0
H631 H 0.90167 0.64157 0.55115 0.0
H632 H 0.92929 0.57399 0.54991 0.0
H633 H 0.92293 0.49997 0.57321 0.0
H634 H 0.05591 0.35272 0.5808 0.0
H635 H 0.02197 0.41634 0.57946 0.0
C636 C 0.62432 0.57322 0.82336 0.0
C637 C 0.6432 0.58643 0.81546 0.0
C638 C 0.58606 0.55723 0.82299 0.0
C639 C 0.52434 0.49798 0.80873 0.0
H640 H 0.43806 0.52955 0.82456 0.0
C641 C 0.36924 0.42162 0.80834 0.0
C642 C 0.34805 0.42045 0.8165 0.0
C643 C 0.40573 0.44162 0.80785 0.0
C644 C 0.46204 0.51985 0.82019 0.0
H645 H 0.63697 0.59425 0.80102 0.0
H646 H 0.56993 0.56507 0.80034 0.0
H647 H 0.49914 0.56863 0.82422 0.0
H648 H 0.34929 0.4363 0.83065 0.0
H649 H 0.41388 0.46896 0.82996 0.0
H650 H 0.4883 0.4481 0.805 0.0
C651 C 0.58469 0.56776 0.80681 0.0
C652 C 0.49676 0.54259 0.81994 0.0
C653 C 0.62271 0.5847 0.80721 0.0
C654 C 0.36504 0.43709 0.82427 0.0
C655 C 0.40177 0.45628 0.82383 0.0
C656 C 0.48983 0.47475 0.8091 0.0
C657 C 0.56643 0.55334 0.81468 0.0
C658 C 0.52827 0.53167 0.81426 0.0
C659 C 0.42188 0.46019 0.81554 0.0
C660 C 0.45841 0.48513 0.81492 0.0
H661 H 0.63969 0.57413 0.82978 0.0
H662 H 0.5726 0.54609 0.82913 0.0
H663 H 0.54859 0.48876 0.80438 0.0
H664 H 0.35642 0.40941 0.80223 0.0
H665 H 0.42018 0.44416 0.80135 0.0
C666 C 0.41158 0.12445 0.05585 0.0
C667 C 0.40949 0.14253 0.06437 0.0
C668 C 0.4269 0.08584 0.055 0.0
C669 C 0.44593 0.99352 0.06714 0.0
H670 H 0.54408 0.98514 0.05346 0.0
C671 C 0.55136 0.86319 0.07302 0.0
C672 C 0.57064 0.84604 0.06557 0.0
C673 C 0.53112 0.89918 0.07213 0.0
C674 C 0.51636 0.98666 0.05718 0.0
H675 H 0.41958 0.13455 0.07868 0.0
H676 H 0.4447 0.06657 0.07725 0.0
H677 H 0.5049 0.04645 0.05277 0.0
H678 H 0.58508 0.85357 0.05143 0.0
H679 H 0.54875 0.91623 0.04979 0.0
H680 H 0.45679 0.93403 0.07154 0.0
C681 C 0.43508 0.08221 0.07123 0.0
C682 C 0.49396 0.02173 0.05676 0.0
C683 C 0.42079 0.12096 0.07206 0.0
C684 C 0.57075 0.8664 0.0573 0.0
C685 C 0.54986 0.90224 0.05636 0.0
C686 C 0.4679 0.95833 0.06745 0.0
C687 C 0.43922 0.06471 0.06269 0.0
C688 C 0.45913 0.02571 0.06192 0.0
C689 C 0.52895 0.91852 0.06372 0.0
C690 C 0.50403 0.95485 0.06269 0.0
H691 H 0.40344 0.1409 0.04984 0.0
H692 H 0.42991 0.0728 0.04835 0.0
H693 H 0.41899 0.99593 0.07112 0.0
H694 H 0.55116 0.84827 0.0795 0.0
H695 H 0.51656 0.91147 0.07802 0.0
C696 C 0.12673 0.41162 0.9445 0.0
C697 C 0.15513 0.43344 0.93958 0.0
C698 C 0.08933 0.42815 0.94638 0.0
C699 C 0.03451 0.52465 0.94649 0.0
H700 H 0.94283 0.45959 0.94063 0.0
C701 C 0.87321 0.58749 0.94427 0.0
C702 C 0.85164 0.57402 0.93674 0.0
C703 C 0.90984 0.57005 0.94648 0.0
C704 C 0.96816 0.47812 0.94232 0.0
H705 H 0.16648 0.4901 0.93293 0.0
H706 H 0.10179 0.51807 0.93603 0.0
H707 H 0.00843 0.42898 0.94145 0.0
H708 H 0.85247 0.53319 0.92537 0.0
H709 H 0.91616 0.50373 0.92909 0.0
H710 H 0.99448 0.57425 0.94678 0.0
C711 C 0.10841 0.4886 0.9386 0.0
C712 C 0.00567 0.46046 0.94291 0.0
C713 C 0.14548 0.4722 0.93671 0.0
C714 C 0.86804 0.54396 0.93129 0.0
C715 C 0.90441 0.52673 0.93347 0.0
C716 C 0.99699 0.54235 0.94587 0.0
C717 C 0.07983 0.46683 0.94342 0.0
C718 C 0.03945 0.48382 0.94465 0.0
C719 C 0.92536 0.53894 0.94118 0.0
C720 C 0.96371 0.51949 0.94342 0.0
H721 H 0.13329 0.38182 0.94687 0.0
H722 H 0.06785 0.4107 0.95013 0.0
H723 H 0.05996 0.54328 0.94802 0.0
H724 H 0.86121 0.61044 0.94863 0.0
H725 H 0.92547 0.58016 0.95245 0.0
C726 C 0.42651 0.37482 0.17758 0.0
C727 C 0.41368 0.35454 0.18533 0.0
C728 C 0.44178 0.41327 0.17825 0.0
C729 C 0.49954 0.47501 0.19281 0.0
H730 H 0.46542 0.56121 0.17723 0.0
C731 C 0.57558 0.63096 0.19222 0.0
C732 C 0.57671 0.6504 0.18385 0.0
C733 C 0.55511 0.59483 0.19314 0.0
C734 C 0.47571 0.53731 0.18154 0.0
H735 H 0.40599 0.3584 0.19982 0.0
H736 H 0.434 0.42586 0.20101 0.0
H737 H 0.42734 0.49953 0.17762 0.0
H738 H 0.56028 0.64637 0.16975 0.0
H739 H 0.52658 0.58268 0.1712 0.0
H740 H 0.54909 0.5119 0.1964 0.0
C741 C 0.43154 0.412 0.19444 0.0
C742 C 0.45359 0.50224 0.18183 0.0
C743 C 0.4153 0.37374 0.19374 0.0
C744 C 0.55944 0.63208 0.1763 0.0
C745 C 0.5397 0.59584 0.17717 0.0
C746 C 0.52212 0.50999 0.19242 0.0
C747 C 0.44532 0.43178 0.18669 0.0
C748 C 0.46567 0.4706 0.18734 0.0
C749 C 0.53596 0.57747 0.18566 0.0
C750 C 0.5109 0.54123 0.18663 0.0
H751 H 0.42564 0.36051 0.17103 0.0
H752 H 0.45248 0.4279 0.1722 0.0
H753 H 0.50957 0.45073 0.19705 0.0
H754 H 0.5884 0.6448 0.19815 0.0
H755 H 0.5528 0.58154 0.19977 0.0
C756 C 0.36946 0.08529 0.44459 0.0
C757 C 0.35168 0.08823 0.43604 0.0
C758 C 0.40813 0.07011 0.44542 0.0
C759 C 0.50099 0.05284 0.43334 0.0
H760 H 0.50928 0.95326 0.44648 0.0
C761 C 0.63122 0.94786 0.42694 0.0
C762 C 0.64825 0.92765 0.43427 0.0
C763 C 0.59536 0.96823 0.42794 0.0
C764 C 0.50779 0.98138 0.44292 0.0
H765 H 0.36029 0.07986 0.42169 0.0
H766 H 0.42835 0.05497 0.42312 0.0
H767 H 0.44785 0.9922 0.4473 0.0
H768 H 0.64065 0.91174 0.44833 0.0
H769 H 0.5782 0.94826 0.45018 0.0
H770 H 0.56061 0.04259 0.42895 0.0
C771 C 0.41243 0.06382 0.42915 0.0
C772 C 0.47265 0.00363 0.44341 0.0
C773 C 0.37362 0.07796 0.42834 0.0
C774 C 0.62792 0.92681 0.44254 0.0
C775 C 0.5922 0.9478 0.4436 0.0
C776 C 0.53625 0.031 0.43295 0.0
C777 C 0.42963 0.05881 0.4377 0.0
C778 C 0.4687 0.03899 0.43843 0.0
C779 C 0.57602 0.96956 0.43635 0.0
C780 C 0.53969 0.99437 0.43751 0.0
H781 H 0.35275 0.09264 0.45061 0.0
H782 H 0.42094 0.06642 0.45208 0.0
H783 H 0.49861 0.0802 0.4295 0.0
H784 H 0.64609 0.94864 0.42045 0.0
H785 H 0.58314 0.98347 0.42213 0.0
C786 C 0.0876 0.12582 0.69477 0.0
C787 C 0.07131 0.15172 0.68829 0.0
C788 C 0.06989 0.08879 0.69644 0.0
C789 C 0.97483 0.03438 0.69327 0.0
H790 H 0.0407 0.9397 0.69385 0.0
C791 C 0.90985 0.87372 0.69395 0.0
C792 C 0.928 0.8479 0.68771 0.0
C793 C 0.92666 0.91107 0.69577 0.0
C794 C 0.02192 0.96594 0.69375 0.0
H795 H 0.02425 0.15839 0.67832 0.0
H796 H 0.9942 0.09415 0.68113 0.0
H797 H 0.07213 0.00515 0.69376 0.0
H798 H 0.9773 0.84177 0.67829 0.0
H799 H 0.00583 0.90635 0.68137 0.0
H800 H 0.92468 0.99507 0.69275 0.0
C801 C 0.01995 0.1027 0.68508 0.0
C802 C 0.03993 0.00338 0.69379 0.0
C803 C 0.03755 0.13944 0.68341 0.0
C804 C 0.96263 0.86057 0.68321 0.0
C805 C 0.97932 0.89755 0.68504 0.0
C806 C 0.95682 0.99692 0.69322 0.0
C807 C 0.03556 0.07716 0.69168 0.0
C808 C 0.01658 0.03793 0.69322 0.0
C809 C 0.96192 0.923 0.69141 0.0
C810 C 0.98027 0.96235 0.69313 0.0
H811 H 0.11343 0.13446 0.69868 0.0
H812 H 0.08261 0.06958 0.70155 0.0
H813 H 0.95608 0.06061 0.693 0.0
H814 H 0.88325 0.8648 0.69755 0.0
H815 H 0.91255 0.93028 0.70069 0.0
C816 C 0.60821 0.89801 0.31776 0.0
C817 C 0.64265 0.90974 0.31314 0.0
C818 C 0.57416 0.92193 0.31747 0.0
C819 C 0.52266 0.99789 0.32015 0.0
H820 H 0.47266 0.02354 0.29728 0.0
C821 C 0.39265 0.10997 0.31713 0.0
C822 C 0.35928 0.0938 0.3128 0.0
C823 C 0.42927 0.09018 0.31672 0.0
C824 C 0.48654 0.01679 0.3037 0.0
H825 H 0.66824 0.95315 0.30403 0.0
H826 H 0.60824 0.99455 0.30332 0.0
H827 H 0.53231 0.98145 0.29756 0.0
H828 H 0.33802 0.04703 0.30399 0.0
H829 H 0.40202 0.01261 0.30316 0.0
H830 H 0.47799 0.03429 0.32628 0.0
C831 C 0.60787 0.96763 0.30735 0.0
C832 C 0.5205 0.99281 0.30385 0.0
C833 C 0.64209 0.94422 0.30781 0.0
C834 C 0.36337 0.05935 0.30755 0.0
C835 C 0.39997 0.03998 0.307 0.0
C836 C 0.48947 0.02285 0.31998 0.0
C837 C 0.57388 0.95696 0.31228 0.0
C838 C 0.53841 0.98275 0.31209 0.0
C839 C 0.43306 0.05477 0.31172 0.0
C840 C 0.47063 0.03187 0.31178 0.0
H841 H 0.60803 0.87102 0.32176 0.0
H842 H 0.54803 0.91308 0.32126 0.0
H843 H 0.53618 0.99064 0.32657 0.0
H844 H 0.39005 0.13701 0.32107 0.0
H845 H 0.4545 0.1023 0.32034 0.0
C846 C 0.94301 0.85877 0.5575 0.0
C847 C 0.90875 0.85693 0.56289 0.0
C848 C 0.96542 0.89366 0.55712 0.0
C849 C 0.99205 0.97999 0.554 0.0
H850 H 0.02552 0.02575 0.57679 0.0
C851 C 0.05881 0.13718 0.55822 0.0
C852 C 0.09334 0.14016 0.56349 0.0
C853 C 0.03841 0.10116 0.55763 0.0
C854 C 0.01642 0.01322 0.57039 0.0
H855 H 0.86918 0.89002 0.57162 0.0
H856 H 0.9093 0.95128 0.57119 0.0
H857 H 0.98166 0.96776 0.57671 0.0
H858 H 0.1354 0.10811 0.57181 0.0
H859 H 0.09863 0.04475 0.57106 0.0
H860 H 0.02521 0.02692 0.54768 0.0
C861 C 0.9189 0.92561 0.56733 0.0
C862 C 0.99132 0.98015 0.57035 0.0
C863 C 0.89603 0.89084 0.56757 0.0
C864 C 0.10834 0.10635 0.56786 0.0
C865 C 0.08744 0.07037 0.56742 0.0
C866 C 0.01615 0.01387 0.55404 0.0
C867 C 0.95392 0.92714 0.56214 0.0
C868 C 0.97916 0.9631 0.56216 0.0
C869 C 0.05218 0.06767 0.56234 0.0
C870 C 0.02857 0.03067 0.56225 0.0
H871 H 0.95267 0.83304 0.55367 0.0
H872 H 0.99237 0.8941 0.5531 0.0
H873 H 0.98293 0.96738 0.5476 0.0
H874 H 0.04736 0.16289 0.55464 0.0
H875 H 0.01118 0.09981 0.55372 0.0
C876 C 0.13469 0.43879 0.8052 0.0
C877 C 0.13779 0.40519 0.81077 0.0
C878 C 0.09843 0.45868 0.80435 0.0
C879 C 0.01177 0.48324 0.80087 0.0
H880 H 0.96473 0.51424 0.82369 0.0
C881 C 0.85586 0.55508 0.8052 0.0
C882 C 0.85435 0.58881 0.81077 0.0
C883 C 0.89095 0.5331 0.80447 0.0
C884 C 0.97725 0.50544 0.81728 0.0
H885 H 0.1056 0.36376 0.81923 0.0
H886 H 0.04192 0.3994 0.81798 0.0
H887 H 0.02137 0.46897 0.82355 0.0
H888 H 0.88815 0.6279 0.81947 0.0
H889 H 0.94968 0.58841 0.81846 0.0
H890 H 0.96574 0.51792 0.7946 0.0
C891 C 0.06759 0.4105 0.81434 0.0
C892 C 0.00983 0.47979 0.81719 0.0
C893 C 0.10378 0.3902 0.81506 0.0
C894 C 0.88873 0.60148 0.81528 0.0
C895 C 0.92368 0.579 0.8147 0.0
C896 C 0.97801 0.5076 0.80095 0.0
C897 C 0.06481 0.44523 0.80908 0.0
C898 C 0.02788 0.46909 0.80901 0.0
C899 C 0.92489 0.54449 0.80934 0.0
C900 C 0.96079 0.51921 0.80917 0.0
H901 H 0.16052 0.45009 0.80165 0.0
H902 H 0.09711 0.4855 0.8003 0.0
H903 H 0.02514 0.47525 0.79447 0.0
H904 H 0.82973 0.54547 0.80151 0.0
H905 H 0.89118 0.5065 0.80034 0.0
C906 C 0.55967 0.63284 0.05698 0.0
C907 C 0.59431 0.6366 0.06219 0.0
C908 C 0.53986 0.59646 0.05649 0.0
C909 C 0.51588 0.5101 0.05322 0.0
H910 H 0.48961 0.46068 0.0761 0.0
C911 C 0.44248 0.35507 0.05708 0.0
C912 C 0.40919 0.35366 0.06278 0.0
C913 C 0.46559 0.38948 0.05658 0.0
C914 C 0.49683 0.47415 0.06968 0.0
H915 H 0.63733 0.60545 0.07044 0.0
H916 H 0.60184 0.54139 0.06979 0.0
H917 H 0.53339 0.51872 0.07579 0.0
H918 H 0.3721 0.38706 0.072 0.0
H919 H 0.41359 0.4474 0.07138 0.0
H920 H 0.48024 0.46455 0.04708 0.0
C921 C 0.58993 0.56672 0.06616 0.0
C922 C 0.52193 0.50723 0.06949 0.0
C923 C 0.61017 0.6031 0.06653 0.0
C924 C 0.39819 0.38752 0.0677 0.0
C925 C 0.42182 0.42177 0.06735 0.0
C926 C 0.49168 0.47629 0.05338 0.0
C927 C 0.55438 0.56326 0.0612 0.0
C928 C 0.53111 0.52593 0.06128 0.0
C929 C 0.45581 0.42286 0.06182 0.0
C930 C 0.48158 0.45839 0.06162 0.0
H931 H 0.54755 0.65828 0.05342 0.0
H932 H 0.51239 0.59469 0.05267 0.0
H933 H 0.5227 0.52389 0.04679 0.0
H934 H 0.4508 0.32939 0.05308 0.0
H935 H 0.4917 0.38966 0.05229 0.0
C936 C 0.39434 0.38789 0.93307 0.0
C937 C 0.36245 0.40154 0.93832 0.0
C938 C 0.43056 0.40849 0.93316 0.0
C939 C 0.48825 0.47823 0.9301 0.0
H940 H 0.53608 0.51443 0.95247 0.0
C941 C 0.60903 0.60116 0.93177 0.0
C942 C 0.64306 0.58967 0.93657 0.0
C943 C 0.57462 0.57773 0.93218 0.0
C944 C 0.52291 0.50458 0.94618 0.0
H945 H 0.34356 0.44444 0.94833 0.0
H946 H 0.40673 0.48024 0.94858 0.0
H947 H 0.47827 0.47028 0.95294 0.0
H948 H 0.66763 0.54741 0.94609 0.0
H949 H 0.60749 0.50679 0.94692 0.0
H950 H 0.53206 0.51373 0.92335 0.0
C951 C 0.40393 0.45423 0.9443 0.0
C952 C 0.48996 0.47938 0.94644 0.0
C953 C 0.36776 0.43406 0.9441 0.0
C954 C 0.64176 0.55617 0.9422 0.0
C955 C 0.60737 0.5332 0.94272 0.0
C956 C 0.52059 0.50429 0.92983 0.0
C957 C 0.4354 0.44214 0.93871 0.0
C958 C 0.47223 0.46611 0.93841 0.0
C959 C 0.57373 0.54339 0.93762 0.0
C960 C 0.53828 0.51751 0.93787 0.0
H961 H 0.39076 0.36235 0.92868 0.0
H962 H 0.45458 0.39845 0.92885 0.0
H963 H 0.47506 0.46849 0.92382 0.0
H964 H 0.60949 0.62738 0.92752 0.0
H965 H 0.5488 0.58633 0.92826 0.0
C966 C 0.60964 0.89382 0.18243 0.0
C967 C 0.59508 0.85979 0.18679 0.0
C968 C 0.58822 0.9295 0.18286 0.0
C969 C 0.5164 0.98598 0.17997 0.0
H970 H 0.4839 0.0316 0.20286 0.0
C971 C 0.3968 0.10918 0.18312 0.0
C972 C 0.40997 0.14288 0.18782 0.0
C973 C 0.41936 0.07419 0.18328 0.0
C974 C 0.49272 0.01904 0.19643 0.0
H975 H 0.54929 0.83642 0.19561 0.0
H976 H 0.51225 0.89901 0.19652 0.0
H977 H 0.52622 0.9721 0.20265 0.0
H978 H 0.4544 0.16615 0.19699 0.0
H979 H 0.49355 0.10473 0.19743 0.0
H980 H 0.48137 0.03154 0.17375 0.0
C981 C 0.53952 0.89802 0.19262 0.0
C982 C 0.51684 0.98518 0.19631 0.0
C983 C 0.56042 0.86229 0.19203 0.0
C984 C 0.44437 0.14059 0.19315 0.0
C985 C 0.46648 0.10549 0.19346 0.0
C986 C 0.49128 0.01906 0.18009 0.0
C987 C 0.55289 0.93172 0.18792 0.0
C988 C 0.52896 0.96851 0.18807 0.0
C989 C 0.45454 0.07223 0.18841 0.0
C990 C 0.47952 0.03607 0.18831 0.0
H991 H 0.63678 0.89244 0.17849 0.0
H992 H 0.59912 0.95529 0.17923 0.0
H993 H 0.52527 0.97353 0.17354 0.0
H994 H 0.36984 0.11035 0.17911 0.0
H995 H 0.40942 0.04871 0.17941 0.0
C996 C 0.86146 0.93614 0.44243 0.0
C997 C 0.85739 0.90162 0.4372 0.0
C998 C 0.89796 0.9557 0.44292 0.0
C999 C 0.98465 0.97831 0.44625 0.0
H1000 H 0.03368 0.00653 0.42343 0.0
C1001 C 0.13953 0.05209 0.44263 0.0
C1002 C 0.14056 0.08631 0.43722 0.0
C1003 C 0.10533 0.02863 0.44297 0.0
C1004 C 0.0203 -0.00126 0.42984 0.0
H1005 H 0.8881 0.85862 0.42886 0.0
H1006 H 0.95241 0.89373 0.42948 0.0
H1007 H 0.97525 0.96312 0.4236 0.0
H1008 H 0.10671 0.12457 0.42834 0.0
H1009 H 0.04672 0.08248 0.42866 0.0
H1010 H 0.0305 0.01315 0.4525 0.0
C1011 C 0.92721 0.90569 0.43315 0.0
C1012 C 0.98705 0.97383 0.42994 0.0
C1013 C 0.89069 0.88567 0.4328 0.0
C1014 C 0.10654 0.09777 0.43241 0.0
C1015 C 0.0725 0.07381 0.43259 0.0
C1016 C 0.01857 0.00234 0.44616 0.0
C1017 C 0.93098 0.94107 0.43816 0.0
C1018 C 0.96852 0.96399 0.43813 0.0
C1019 C 0.07178 0.03898 0.43785 0.0
C1020 C 0.0363 0.01316 0.43795 0.0
H1021 H 0.83616 0.94834 0.44604 0.0
H1022 H 0.9 0.98304 0.44677 0.0
H1023 H 0.97096 0.97097 0.45265 0.0
H1024 H 0.16532 0.04338 0.44656 0.0
H1025 H 0.1054 0.00189 0.44706 0.0
C1026 C 0.06372 0.36378 0.69583 0.0
C1027 C 0.09663 0.36049 0.69006 0.0
C1028 C 0.0426 0.39936 0.69637 0.0
C1029 C 0.01475 0.48475 0.69914 0.0
H1030 H 0.98016 0.52821 0.6762 0.0
C1031 C 0.93899 0.63748 0.69491 0.0
C1032 C 0.90619 0.63951 0.68909 0.0
C1033 C 0.96089 0.60245 0.69565 0.0
C1034 C 0.98962 0.5164 0.68265 0.0
H1035 H 0.1354 0.39178 0.68083 0.0
H1036 H 0.09758 0.45449 0.68158 0.0
H1037 H 0.02687 0.47266 0.67647 0.0
H1038 H 0.86847 0.6066 0.67992 0.0
H1039 H 0.90774 0.54486 0.68099 0.0
H1040 H 0.97882 0.52988 0.70532 0.0
C1041 C 0.08806 0.42939 0.68563 0.0
C1042 C 0.01645 0.48474 0.6828 0.0
C1043 C 0.10965 0.3938 0.6852 0.0
C1044 C 0.89416 0.60556 0.68433 0.0
C1045 C 0.91655 0.57053 0.68494 0.0
C1046 C 0.98896 0.51734 0.69899 0.0
C1047 C 0.05402 0.43222 0.69113 0.0
C1048 C 0.02879 0.46823 0.69103 0.0
C1049 C 0.95035 0.56892 0.69054 0.0
C1050 C 0.97602 0.53327 0.69073 0.0
H1051 H 0.05377 0.33845 0.69976 0.0
H1052 H 0.01633 0.40062 0.70061 0.0
H1053 H 0.02393 0.4726 0.70558 0.0
H1054 H 0.94815 0.66332 0.69877 0.0
H1055 H 0.98696 0.60205 0.69995 0.0
C1056 C 0.28872 0.17688 0.34507 0.0
C1057 C 0.25614 0.17406 0.33922 0.0
C1058 C 0.28471 0.19512 0.35347 0.0
C1059 C 0.27317 0.2395 0.37082 0.0
H1060 H 0.1812 0.19675 0.3833 0.0
C1061 C 0.21178 0.202 0.40919 0.0
C1062 C 0.24401 0.17811 0.41184 0.0
C1063 C 0.2111 0.21901 0.40056 0.0
C1064 C 0.20656 0.20993 0.37991 0.0
H1065 H 0.19455 0.19049 0.33714 0.0
H1066 H 0.18726 0.22294 0.3519 0.0
H1067 H 0.18327 0.19544 0.36691 0.0
H1068 H 0.30157 0.15493 0.40795 0.0
H1069 H 0.30113 0.18554 0.39302 0.0
H1070 H 0.29782 0.25063 0.38392 0.0
C1071 C 0.21591 0.21063 0.35004 0.0
C1072 C 0.20776 0.20926 0.37049 0.0
C1073 C 0.22009 0.19238 0.34158 0.0
C1074 C 0.27666 0.17366 0.40604 0.0
C1075 C 0.2764 0.1913 0.39753 0.0
C1076 C 0.27214 0.23975 0.38024 0.0
C1077 C 0.24786 0.21096 0.35621 0.0
C1078 C 0.24198 0.22212 0.36584 0.0
C1079 C 0.24302 0.21291 0.39457 0.0
C1080 C 0.23963 0.22322 0.38487 0.0
H1081 H 0.31703 0.16368 0.34332 0.0
H1082 H 0.30991 0.19433 0.35802 0.0
H1083 H 0.29955 0.2506 0.36745 0.0
H1084 H 0.18605 0.2052 0.41354 0.0
H1085 H 0.18497 0.23539 0.39842 0.0
C1086 C 0.82071 0.79413 0.59465 0.0
C1087 C 0.82048 0.76083 0.58897 0.0
C1088 C 0.80427 0.79196 0.60326 0.0
C1089 C 0.78868 0.7165 0.62074 0.0
H1090 H 0.76061 0.81053 0.63454 0.0
C1091 C 0.79991 0.72208 0.65966 0.0
C1092 C 0.82984 0.74949 0.66194 0.0
C1093 C 0.78264 0.72296 0.65106 0.0
C1094 C 0.76768 0.78383 0.63076 0.0
H1095 H 0.80016 0.70013 0.58741 0.0
H1096 H 0.77028 0.69628 0.6025 0.0
H1097 H 0.75601 0.812 0.6181 0.0
H1098 H 0.86377 0.80042 0.65738 0.0
H1099 H 0.83253 0.80304 0.6425 0.0
H1100 H 0.80141 0.68888 0.63345 0.0
C1101 C 0.78391 0.72396 0.60038 0.0
C1102 C 0.7654 0.78468 0.62135 0.0
C1103 C 0.80059 0.72619 0.59172 0.0
C1104 C 0.84056 0.77917 0.65576 0.0
C1105 C 0.82258 0.78074 0.64728 0.0
C1106 C 0.79023 0.71545 0.63016 0.0
C1107 C 0.78703 0.75634 0.60639 0.0
C1108 C 0.77813 0.7518 0.6162 0.0
C1109 C 0.79433 0.75198 0.64476 0.0
C1110 C 0.78171 0.74974 0.63521 0.0
H1111 H 0.83527 0.82138 0.59259 0.0
H1112 H 0.80774 0.81748 0.60765 0.0
H1113 H 0.79898 0.69065 0.61706 0.0
H1114 H 0.79164 0.69864 0.66432 0.0
H1115 H 0.76115 0.70032 0.64922 0.0
C1116 C 0.26203 0.30574 0.84166 0.0
C1117 C 0.23044 0.33118 0.83933 0.0
C1118 C 0.26388 0.28891 0.85032 0.0
C1119 C 0.27439 0.29208 0.87088 0.0
H1120 H 0.17846 0.27122 0.88468 0.0
C1121 C 0.21542 0.34547 0.90622 0.0
C1122 C 0.24448 0.3325 0.91234 0.0
C1123 C 0.21274 0.32841 0.89767 0.0
C1124 C 0.20563 0.27623 0.8809 0.0
H1125 H 0.1746 0.35613 0.84391 0.0
H1126 H 0.17761 0.32744 0.85882 0.0
H1127 H 0.17612 0.26923 0.86822 0.0
H1128 H 0.29309 0.29121 0.91448 0.0
H1129 H 0.28941 0.26218 0.89925 0.0
H1130 H 0.30334 0.30087 0.88361 0.0
C1131 C 0.20108 0.32017 0.85409 0.0
C1132 C 0.20432 0.27529 0.87149 0.0
C1133 C 0.19956 0.33722 0.84554 0.0
C1134 C 0.27008 0.30123 0.90989 0.0
C1135 C 0.26811 0.28482 0.9012 0.0
C1136 C 0.2758 0.29251 0.88031 0.0
C1137 C 0.23378 0.29677 0.85671 0.0
C1138 C 0.2381 0.28557 0.86637 0.0
C1139 C 0.23977 0.29876 0.89498 0.0
C1140 C 0.24092 0.2867 0.88538 0.0
H1141 H 0.28629 0.30071 0.83698 0.0
H1142 H 0.28941 0.27087 0.85212 0.0
H1143 H 0.30091 0.3003 0.86716 0.0
H1144 H 0.19559 0.36974 0.90796 0.0
H1145 H 0.191 0.34011 0.89296 0.0
C1146 C 0.69345 0.77769 0.09069 0.0
C1147 C 0.67656 0.7411 0.08822 0.0
C1148 C 0.71168 0.78205 0.09914 0.0
C1149 C 0.7422 0.72498 0.11985 0.0
H1150 H 0.69703 0.81574 0.13235 0.0
C1151 C 0.67852 0.72039 0.15538 0.0
C1152 C 0.68122 0.75391 0.16097 0.0
C1153 C 0.69601 0.72065 0.14684 0.0
C1154 C 0.71086 0.79072 0.12896 0.0
H1155 H 0.66871 0.67957 0.09211 0.0
H1156 H 0.69919 0.68702 0.10683 0.0
H1157 H 0.69558 0.81362 0.11598 0.0
H1158 H 0.70506 0.81345 0.1623 0.0
H1159 H 0.73526 0.81434 0.1472 0.0
H1160 H 0.75429 0.70072 0.13295 0.0
C1161 C 0.69896 0.7125 0.10236 0.0
C1162 C 0.71011 0.7895 0.11954 0.0
C1163 C 0.68084 0.70826 0.09396 0.0
C1164 C 0.70334 0.78703 0.15812 0.0
C1165 C 0.72031 0.7876 0.14949 0.0
C1166 C 0.74253 0.72602 0.12928 0.0
C1167 C 0.71326 0.74981 0.10522 0.0
C1168 C 0.72398 0.75572 0.11488 0.0
C1169 C 0.71571 0.75484 0.14367 0.0
C1170 C 0.72524 0.75811 0.13392 0.0
H1171 H 0.69041 0.80342 0.08633 0.0
H1172 H 0.72288 0.81107 0.10107 0.0
H1173 H 0.75407 0.69895 0.11648 0.0
H1174 H 0.66097 0.69485 0.15743 0.0
H1175 H 0.6914 0.69521 0.14247 0.0
C1176 C 0.72955 0.69639 0.84065 0.0
C1177 C 0.76231 0.67277 0.83822 0.0
C1178 C 0.72803 0.7142 0.84921 0.0
C1179 C 0.72006 0.71238 0.86973 0.0
H1180 H 0.81573 0.73979 0.88301 0.0
C1181 C 0.78541 0.6644 0.90483 0.0
C1182 C 0.75467 0.67361 0.91088 0.0
C1183 C 0.78682 0.68234 0.89636 0.0
C1184 C 0.78858 0.73291 0.87938 0.0
H1185 H 0.82054 0.65225 0.84235 0.0
H1186 H 0.81797 0.68237 0.85718 0.0
H1187 H 0.81663 0.74049 0.86654 0.0
H1188 H 0.70196 0.70945 0.91303 0.0
H1189 H 0.70359 0.74013 0.89796 0.0
H1190 H 0.69267 0.70289 0.8826 0.0
C1191 C 0.79334 0.68753 0.85261 0.0
C1192 C 0.7891 0.7331 0.86996 0.0
C1193 C 0.79463 0.66962 0.84414 0.0
C1194 C 0.72624 0.70239 0.90849 0.0
C1195 C 0.72707 0.71972 0.89989 0.0
C1196 C 0.71944 0.71261 0.87916 0.0
C1197 C 0.75951 0.70895 0.85538 0.0
C1198 C 0.75555 0.72053 0.86503 0.0
C1199 C 0.75692 0.70913 0.89368 0.0
C1200 C 0.75432 0.72075 0.88406 0.0
H1201 H 0.70425 0.69918 0.83616 0.0
H1202 H 0.70168 0.73077 0.85112 0.0
H1203 H 0.69372 0.70239 0.86618 0.0
H1204 H 0.80743 0.64202 0.90653 0.0
H1205 H 0.80981 0.67313 0.89168 0.0
C1206 C 0.30246 0.27644 0.15944 0.0
C1207 C 0.32189 0.24134 0.16205 0.0
C1208 C 0.28487 0.27916 0.15088 0.0
C1209 C 0.26126 0.21914 0.13013 0.0
H1210 H 0.29997 0.31285 0.11763 0.0
C1211 C 0.33115 0.21861 0.09526 0.0
C1212 C 0.3234 0.2497 0.0892 0.0
C1213 C 0.31351 0.21835 0.10377 0.0
C1214 C 0.28796 0.28693 0.12103 0.0
H1215 H 0.33517 0.18059 0.1583 0.0
H1216 H 0.30577 0.18525 0.14341 0.0
H1217 H 0.2997 0.31161 0.13403 0.0
H1218 H 0.29059 0.30436 0.08707 0.0
H1219 H 0.26058 0.30477 0.10223 0.0
H1220 H 0.25316 0.19327 0.11703 0.0
C1221 C 0.30343 0.21076 0.14784 0.0
C1222 C 0.2877 0.28619 0.13046 0.0
C1223 C 0.32091 0.20815 0.15635 0.0
C1224 C 0.2965 0.27984 0.09163 0.0
C1225 C 0.27954 0.28014 0.10027 0.0
C1226 C 0.26208 0.2197 0.12071 0.0
C1227 C 0.2865 0.24675 0.14484 0.0
C1228 C 0.27626 0.2515 0.13512 0.0
C1229 C 0.28855 0.24974 0.10647 0.0
C1230 C 0.27714 0.25294 0.11609 0.0
H1231 H 0.303 0.30243 0.16377 0.0
H1232 H 0.27162 0.30715 0.14884 0.0
H1233 H 0.25124 0.19233 0.1335 0.0
H1234 H 0.35206 0.19524 0.09352 0.0
H1235 H 0.32146 0.19488 0.10845 0.0
C1236 C 0.77546 0.81857 0.34455 0.0
C1237 C 0.74266 0.81618 0.33873 0.0
C1238 C 0.77398 0.80098 0.35306 0.0
C1239 C 0.7024 0.78725 0.37055 0.0
H1240 H 0.79172 0.74069 0.38333 0.0
C1241 C 0.71356 0.80459 0.40884 0.0
C1242 C 0.7507 0.81975 0.41145 0.0
C1243 C 0.70905 0.78643 0.40038 0.0
C1244 C 0.76637 0.75354 0.37988 0.0
H1245 H 0.68314 0.79279 0.33699 0.0
H1246 H 0.68 0.76266 0.3521 0.0
H1247 H 0.79113 0.74081 0.36685 0.0
H1248 H 0.81283 0.82473 0.40782 0.0
H1249 H 0.80517 0.79447 0.39308 0.0
H1250 H 0.6792 0.80329 0.38345 0.0
C1251 C 0.70715 0.77736 0.34998 0.0
C1252 C 0.76598 0.75336 0.37044 0.0
C1253 C 0.709 0.79432 0.34135 0.0
C1254 C 0.78378 0.81387 0.40586 0.0
C1255 C 0.77937 0.79588 0.39745 0.0
C1256 C 0.70302 0.78791 0.37998 0.0
C1257 C 0.73925 0.78153 0.356 0.0
C1258 C 0.73484 0.77181 0.3657 0.0
C1259 C 0.74166 0.78332 0.39443 0.0
C1260 C 0.73598 0.77284 0.38475 0.0
H1261 H 0.80146 0.83581 0.34267 0.0
H1262 H 0.79892 0.80524 0.3576 0.0
H1263 H 0.67813 0.80197 0.36708 0.0
H1264 H 0.68764 0.80892 0.41308 0.0
H1265 H 0.6797 0.77656 0.39834 0.0
C1266 C 0.17699 0.28692 0.65765 0.0
C1267 C 0.17153 0.25343 0.66313 0.0
C1268 C 0.19329 0.28297 0.64904 0.0
C1269 C 0.19918 0.2078 0.63115 0.0
H1270 H 0.2481 0.29551 0.61822 0.0
C1271 C 0.19753 0.21152 0.59258 0.0
C1272 C 0.17729 0.24552 0.58956 0.0
C1273 C 0.21318 0.2103 0.60133 0.0
C1274 C 0.23492 0.27054 0.62176 0.0
H1275 H 0.18128 0.19002 0.66435 0.0
H1276 H 0.21088 0.1829 0.6493 0.0
H1277 H 0.24702 0.29601 0.6347 0.0
H1278 H 0.15908 0.30543 0.59293 0.0
H1279 H 0.18728 0.3039 0.60812 0.0
H1280 H 0.18593 0.18304 0.6182 0.0
C1281 C 0.2018 0.2122 0.65155 0.0
C1282 C 0.23405 0.27088 0.63119 0.0
C1283 C 0.18524 0.21623 0.66018 0.0
C1284 C 0.17529 0.27922 0.59511 0.0
C1285 C 0.19145 0.27827 0.60378 0.0
C1286 C 0.20051 0.20724 0.62173 0.0
C1287 C 0.2047 0.24534 0.64574 0.0
C1288 C 0.21444 0.24045 0.63599 0.0
C1289 C 0.20906 0.24323 0.60712 0.0
C1290 C 0.21681 0.23944 0.61693 0.0
H1291 H 0.16732 0.31602 0.65987 0.0
H1292 H 0.19458 0.30917 0.64479 0.0
H1293 H 0.18348 0.18401 0.63456 0.0
H1294 H 0.19862 0.18496 0.58843 0.0
H1295 H 0.22658 0.18294 0.60373 0.0
C1296 C 0.24074 0.1439 0.2797 0.0
C1297 C 0.23931 0.17196 0.28672 0.0
C1298 C 0.24384 0.15622 0.27076 0.0
C1299 C 0.23754 0.24094 0.25491 0.0
H1300 H 0.32341 0.1844 0.24298 0.0
C1301 C 0.34747 0.24982 0.22174 0.0
C1302 C 0.32002 0.25225 0.21462 0.0
C1303 C 0.33438 0.24559 0.23061 0.0
C1304 C 0.29953 0.20069 0.24622 0.0
H1305 H 0.23709 0.23498 0.28983 0.0
H1306 H 0.24307 0.25668 0.27409 0.0
H1307 H 0.30383 0.16523 0.25812 0.0
H1308 H 0.25724 0.25482 0.21125 0.0
H1309 H 0.23423 0.24703 0.22686 0.0
H1310 H 0.23379 0.27664 0.24289 0.0
C1311 C 0.24154 0.22511 0.27555 0.0
C1312 C 0.28794 0.18935 0.25486 0.0
C1313 C 0.23822 0.21271 0.28456 0.0
C1314 C 0.27908 0.2529 0.21661 0.0
C1315 C 0.26591 0.24857 0.22553 0.0
C1316 C 0.24901 0.25216 0.24617 0.0
C1317 C 0.24588 0.19691 0.26861 0.0
C1318 C 0.25684 0.20925 0.25932 0.0
C1319 C 0.29352 0.24352 0.23257 0.0
C1320 C 0.28039 0.23227 0.24178 0.0
H1321 H 0.24103 0.11226 0.28114 0.0
H1322 H 0.24622 0.1338 0.26553 0.0
H1323 H 0.21344 0.25676 0.25819 0.0
H1324 H 0.37923 0.24978 0.22045 0.0
H1325 H 0.35635 0.24259 0.23592 0.0
C1326 C 0.74193 0.85493 0.47088 0.0
C1327 C 0.73875 0.82645 0.46398 0.0
C1328 C 0.74496 0.84314 0.47986 0.0
C1329 C 0.73493 0.75996 0.49603 0.0
H1330 H 0.82331 0.81342 0.50774 0.0
C1331 C 0.84441 0.74871 0.52924 0.0
C1332 C 0.81687 0.74789 0.53636 0.0
C1333 C 0.83153 0.75286 0.52035 0.0
C1334 C 0.7987 0.79799 0.50456 0.0
H1335 H 0.7335 0.76337 0.46112 0.0
H1336 H 0.73932 0.74259 0.47692 0.0
H1337 H 0.80459 0.83232 0.49253 0.0
H1338 H 0.75405 0.74809 0.53973 0.0
H1339 H 0.73139 0.75577 0.52409 0.0
H1340 H 0.72959 0.72536 0.50818 0.0
C1341 C 0.73922 0.77408 0.47534 0.0
C1342 C 0.78763 0.80918 0.49587 0.0
C1343 C 0.736 0.78596 0.4663 0.0
C1344 C 0.77595 0.74874 0.53437 0.0
C1345 C 0.76298 0.75302 0.52543 0.0
C1346 C 0.7459 0.74888 0.50481 0.0
C1347 C 0.74515 0.80257 0.48217 0.0
C1348 C 0.75564 0.7904 0.4915 0.0
C1349 C 0.79079 0.75648 0.51837 0.0
C1350 C 0.77816 0.76764 0.50912 0.0
H1351 H 0.74354 0.88641 0.46931 0.0
H1352 H 0.74861 0.86581 0.48499 0.0
H1353 H 0.71011 0.74503 0.49281 0.0
H1354 H 0.87614 0.74754 0.53053 0.0
H1355 H 0.85361 0.75458 0.51504 0.0
C1356 C 0.22455 0.23649 0.71694 0.0
C1357 C 0.18347 0.24132 0.71549 0.0
C1358 C 0.23994 0.23622 0.72573 0.0
C1359 C 0.21144 0.22683 0.74986 0.0
H1360 H 0.2972 0.30194 0.75402 0.0
C1361 C 0.25936 0.27104 0.7859 0.0
C1362 C 0.25951 0.31249 0.7872 0.0
C1363 C 0.2588 0.2551 0.77717 0.0
C1364 C 0.27349 0.28057 0.75296 0.0
H1365 H 0.12615 0.24766 0.72207 0.0
H1366 H 0.15286 0.24711 0.73732 0.0
H1367 H 0.27786 0.28539 0.7386 0.0
H1368 H 0.26168 0.36965 0.7804 0.0
H1369 H 0.26091 0.34202 0.76526 0.0
H1370 H 0.20562 0.22368 0.76423 0.0
C1371 C 0.17326 0.24338 0.73172 0.0
C1372 C 0.26263 0.27082 0.74413 0.0
C1373 C 0.15796 0.24402 0.72297 0.0
C1374 C 0.2614 0.33757 0.77963 0.0
C1375 C 0.26127 0.3217 0.77093 0.0
C1376 C 0.22242 0.23644 0.7587 0.0
C1377 C 0.21448 0.2403 0.73321 0.0
C1378 C 0.23059 0.24489 0.74249 0.0
C1379 C 0.25893 0.28035 0.76959 0.0
C1380 C 0.25265 0.26447 0.76034 0.0
H1381 H 0.24494 0.23431 0.7113 0.0
H1382 H 0.27182 0.23355 0.72667 0.0
H1383 H 0.18694 0.20638 0.74881 0.0
H1384 H 0.25787 0.251 0.79162 0.0
H1385 H 0.25727 0.22309 0.77633 0.0
C1386 C 0.74984 0.64938 0.97048 0.0
C1387 C 0.75233 0.67715 0.96342 0.0
C1388 C 0.74541 0.66207 0.97938 0.0
C1389 C 0.75117 0.74711 0.99509 0.0
H1390 H 0.66529 0.69057 0.00701 0.0
C1391 C 0.64341 0.75288 0.02875 0.0
C1392 C 0.67165 0.75528 0.03572 0.0
C1393 C 0.65552 0.74982 0.01979 0.0
C1394 C 0.6891 0.70696 0.00377 0.0
H1395 H 0.75476 0.74007 0.96019 0.0
H1396 H 0.74655 0.76239 0.97584 0.0
H1397 H 0.68453 0.67176 0.99183 0.0
H1398 H 0.73471 0.75911 0.03872 0.0
H1399 H 0.75603 0.75319 0.02296 0.0
H1400 H 0.75532 0.78245 0.00715 0.0
C1401 C 0.74823 0.73077 0.97445 0.0
C1402 C 0.7005 0.6958 0.9951 0.0
C1403 C 0.75282 0.718 0.9655 0.0
C1404 C 0.71229 0.75722 0.03348 0.0
C1405 C 0.72449 0.75395 0.02447 0.0
C1406 C 0.73986 0.75818 0.00385 0.0
C1407 C 0.74313 0.70284 0.98143 0.0
C1408 C 0.73174 0.71554 0.99067 0.0
C1409 C 0.69618 0.74878 0.01757 0.0
C1410 C 0.70854 0.73825 0.00825 0.0
H1411 H 0.74994 0.61769 0.96912 0.0
H1412 H 0.74244 0.63985 0.98463 0.0
H1413 H 0.77538 0.7628 0.99182 0.0
H1414 H 0.61184 0.75189 0.03024 0.0
H1415 H 0.63299 0.7468 0.0146 0.0
C1416 C 0.33704 0.24307 0.02945 0.0
C1417 C 0.31106 0.24395 0.03687 0.0
C1418 C 0.32216 0.24367 0.02067 0.0
C1419 C 0.23746 0.28101 0.00796 0.0
H1420 H 0.28846 0.22533 0.98816 0.0
C1421 C 0.24607 0.34341 0.97208 0.0
C1422 C 0.24366 0.31744 0.96468 0.0
C1423 C 0.24533 0.32864 0.98087 0.0
C1424 C 0.27335 0.2406 0.99361 0.0
H1425 H 0.24903 0.24463 0.04092 0.0
H1426 H 0.22291 0.24608 0.02549 0.0
H1427 H 0.30454 0.20716 0.00368 0.0
H1428 H 0.23711 0.25572 0.96066 0.0
H1429 H 0.23627 0.22971 0.97611 0.0
H1430 H 0.20731 0.31538 0.99789 0.0
C1431 C 0.25484 0.24496 0.02651 0.0
C1432 C 0.28284 0.23044 0.0025 0.0
C1433 C 0.26977 0.24397 0.03533 0.0
C1434 C 0.23905 0.27643 0.96624 0.0
C1435 C 0.23873 0.26155 0.97507 0.0
C1436 C 0.22814 0.29131 0.99907 0.0
C1437 C 0.28094 0.24545 0.01909 0.0
C1438 C 0.2659 0.25135 0.00976 0.0
C1439 C 0.24246 0.2875 0.98248 0.0
C1440 C 0.24689 0.27204 0.99181 0.0
H1441 H 0.36902 0.24292 0.03042 0.0
H1442 H 0.34309 0.24453 0.01511 0.0
H1443 H 0.22404 0.29782 0.01341 0.0
H1444 H 0.2495 0.37519 0.9711 0.0
H1445 H 0.24877 0.34938 0.98642 0.0
C1446 C 0.74992 0.77731 0.28402 0.0
C1447 C 0.75025 0.81805 0.28621 0.0
C1448 C 0.74595 0.76512 0.27502 0.0
C1449 C 0.70123 0.80197 0.25421 0.0
H1450 H 0.75557 0.71464 0.2423 0.0
C1451 C 0.71497 0.741 0.21582 0.0
C1452 C 0.67448 0.74304 0.21346 0.0
C1453 C 0.7266 0.7442 0.22488 0.0
C1454 C 0.74026 0.73911 0.24556 0.0
H1455 H 0.7498 0.87785 0.28067 0.0
H1456 H 0.74326 0.85666 0.26506 0.0
H1457 H 0.77454 0.73348 0.25774 0.0
H1458 H 0.61433 0.74669 0.21874 0.0
H1459 H 0.63453 0.75181 0.23445 0.0
H1460 H 0.66716 0.80808 0.24214 0.0
C1461 C 0.7452 0.83412 0.27027 0.0
C1462 C 0.75094 0.74973 0.25439 0.0
C1463 C 0.74908 0.84624 0.27922 0.0
C1464 C 0.6458 0.74559 0.22033 0.0
C1465 C 0.65736 0.74866 0.22933 0.0
C1466 C 0.69041 0.79123 0.24548 0.0
C1467 C 0.74224 0.79352 0.26809 0.0
C1468 C 0.73165 0.78149 0.25876 0.0
C1469 C 0.69787 0.74946 0.23168 0.0
C1470 C 0.70969 0.75969 0.24105 0.0
H1471 H 0.75084 0.75491 0.28927 0.0
H1472 H 0.74369 0.73362 0.27353 0.0
H1473 H 0.68539 0.82619 0.25744 0.0
H1474 H 0.73772 0.73898 0.21066 0.0
H1475 H 0.75805 0.74478 0.22649 0.0
C1476 C 0.24671 0.22028 0.46647 0.0
C1477 C 0.24601 0.17942 0.46439 0.0
C1478 C 0.24254 0.23311 0.47542 0.0
C1479 C 0.19581 0.19896 0.49624 0.0
H1480 H 0.25332 0.28439 0.5081 0.0
C1481 C 0.21199 0.25941 0.53461 0.0
C1482 C 0.17149 0.25845 0.537 0.0
C1483 C 0.22338 0.25606 0.52554 0.0
C1484 C 0.2371 0.26047 0.50485 0.0
H1485 H 0.24332 0.11999 0.47011 0.0
H1486 H 0.23637 0.1423 0.48563 0.0
H1487 H 0.27173 0.26451 0.49268 0.0
H1488 H 0.11119 0.25679 0.53177 0.0
H1489 H 0.13098 0.25151 0.51604 0.0
H1490 H 0.16144 0.19436 0.5083 0.0
C1491 C 0.23933 0.16446 0.48036 0.0
C1492 C 0.24747 0.24927 0.49604 0.0
C1493 C 0.24345 0.1517 0.47147 0.0
C1494 C 0.14265 0.257 0.53015 0.0
C1495 C 0.15398 0.25384 0.52113 0.0
C1496 C 0.18532 0.21028 0.50496 0.0
C1497 C 0.23756 0.20526 0.48241 0.0
C1498 C 0.22707 0.21813 0.49169 0.0
C1499 C 0.19441 0.2518 0.51875 0.0
C1500 C 0.20576 0.24113 0.50938 0.0
H1501 H 0.24873 0.24232 0.46115 0.0
H1502 H 0.24122 0.26475 0.47681 0.0
H1503 H 0.17915 0.17525 0.49303 0.0
H1504 H 0.23485 0.26054 0.53975 0.0
H1505 H 0.25477 0.25452 0.5239 0.0
C1506 C 0.84186 0.7558 0.72167 0.0
C1507 C 0.81624 0.75748 0.7142 0.0
C1508 C 0.82659 0.75601 0.73043 0.0
C1509 C 0.78788 0.77116 0.74857 0.0
H1510 H 0.70457 0.69333 0.75271 0.0
C1511 C 0.73955 0.72684 0.78458 0.0
C1512 C 0.73995 0.68546 0.786 0.0
C1513 C 0.74058 0.74231 0.77581 0.0
C1514 C 0.72762 0.71541 0.75166 0.0
H1515 H 0.75456 0.76233 0.71002 0.0
H1516 H 0.72773 0.76239 0.72539 0.0
H1517 H 0.72354 0.71035 0.7373 0.0
H1518 H 0.73955 0.6279 0.77936 0.0
H1519 H 0.74126 0.65475 0.76414 0.0
H1520 H 0.79342 0.77465 0.76293 0.0
C1521 C 0.75967 0.76081 0.72444 0.0
C1522 C 0.73823 0.72545 0.74283 0.0
C1523 C 0.77503 0.76096 0.71566 0.0
C1524 C 0.73936 0.65993 0.77849 0.0
C1525 C 0.74003 0.67534 0.76975 0.0
C1526 C 0.77715 0.76125 0.7574 0.0
C1527 C 0.78529 0.75765 0.73191 0.0
C1528 C 0.76938 0.75246 0.74119 0.0
C1529 C 0.74155 0.71667 0.76831 0.0
C1530 C 0.74779 0.7323 0.75904 0.0
H1531 H 0.87378 0.75321 0.72077 0.0
H1532 H 0.84713 0.75303 0.73602 0.0
H1533 H 0.81168 0.79243 0.74752 0.0
H1534 H 0.73998 0.74724 0.79024 0.0
H1535 H 0.74144 0.7743 0.77489 0.0
loop_
_geom_bond_atom_site_label_1
_geom_bond_atom_site_label_2
_geom_bond_distance
_geom_bond_site_symmetry_2
_ccdc_geom_bond_type
Mn0 O5 2.095 . S
Mn0 O15 2.162 . S
Mn0 O16 2.297 . S
Mn0 O24 2.385 . S
Mn0 O25 2.209 . S
Mn0 O26 2.094 . S
Mn1 O6 2.121 . S
Mn1 N8 2.257 . S
Mn1 N17 2.282 . S
Mn1 O25 2.215 . S
Mn1 O27 2.117 . S
C2 O24 1.234 . S
C2 O25 1.283 . S
C3 O15 1.281 . S
C3 O16 1.236 . S
C4 O26 1.240 . S
C4 O27 1.264 . S
O5 Mn0 2.095 . S
O5 C14 1.250 . S
O6 Mn1 2.121 . S
O6 C14 1.258 . S
C7 N8 1.326 1_565 S
C7 C11 1.460 . S
C7 H13 0.929 . S
N8 Mn1 2.257 . S
N8 C7 1.326 1_545 S
N8 C12 1.362 1_545 S
C9 C10 1.258 . S
C9 C12 1.431 . S
C9 C29 1.449 . S
C10 C9 1.258 . S
C10 C11 1.477 . S
C10 H30 0.931 . S
C11 C7 1.460 . S
C11 C10 1.477 . S
C11 H31 0.930 . S
C12 N8 1.362 1_565 S
C12 C9 1.431 . S
C12 C22 1.476 1_565 S
H13 C7 0.929 . S
C14 O5 1.250 . S
C14 O6 1.258 . S
O15 Mn0 2.162 . S
O15 C3 1.281 . S
O16 Mn0 2.297 . S
O16 C3 1.236 . S
N17 Mn1 2.282 . S
N17 C18 1.328 . S
N17 C22 1.318 . S
C18 N17 1.328 . S
C18 C19 1.457 . S
C18 H23 0.929 . S
C19 C18 1.457 . S
C19 C20 1.291 . S
C19 H32 0.931 . S
C20 C19 1.291 . S
C20 C21 1.373 . S
C20 H33 0.929 . S
C21 C20 1.373 . S
C21 C22 1.396 . S
C21 C28 1.403 1_545 S
C22 C12 1.476 1_545 S
C22 N17 1.318 . S
C22 C21 1.396 . S
H23 C18 0.929 . S
O24 Mn0 2.385 . S
O24 C2 1.234 . S
O25 Mn0 2.209 . S
O25 Mn1 2.215 . S
O25 C2 1.283 . S
O26 Mn0 2.094 . S
O26 C4 1.240 . S
O27 Mn1 2.117 . S
O27 C4 1.264 . S
C28 C21 1.403 1_565 S
C28 C29 1.399 . S
C28 H34 0.929 . S
C29 C9 1.449 . S
C29 C28 1.399 . S
C29 H35 0.930 . S
H30 C10 0.931 . S
H31 C11 0.930 . S
H32 C19 0.931 . S
H33 C20 0.929 . S
H34 C28 0.929 . S
H35 C29 0.930 . S
Mn36 O41 2.095 . S
Mn36 O51 2.162 . S
Mn36 O52 2.297 . S
Mn36 O60 2.385 . S
Mn36 O61 2.209 . S
Mn36 O62 2.094 . S
Mn37 O42 2.121 . S
Mn37 N44 2.257 . S
Mn37 N53 2.282 . S
Mn37 O61 2.215 . S
Mn37 O63 2.117 . S
C38 O60 1.234 . S
C38 O61 1.283 . S
C39 O51 1.281 . S
C39 O52 1.236 . S
C40 O62 1.240 . S
C40 O63 1.264 . S
O41 Mn36 2.095 . S
O41 C50 1.250 . S
O42 Mn37 2.121 . S
O42 C50 1.258 . S
C43 N44 1.326 1_455 S
C43 C47 1.460 . S
C43 H49 0.929 . S
N44 Mn37 2.257 . S
N44 C43 1.326 1_655 S
N44 C48 1.362 1_655 S
C45 C46 1.258 . S
C45 C48 1.431 . S
C45 C65 1.449 . S
C46 C45 1.258 . S
C46 C47 1.477 . S
C46 H66 0.931 . S
C47 C43 1.460 . S
C47 C46 1.477 . S
C47 H67 0.930 . S
C48 N44 1.362 1_455 S
C48 C45 1.431 . S
C48 C58 1.476 1_455 S
H49 C43 0.929 . S
C50 O41 1.250 . S
C50 O42 1.258 . S
O51 Mn36 2.162 . S
O51 C39 1.281 . S
O52 Mn36 2.297 . S
O52 C39 1.236 . S
N53 Mn37 2.282 . S
N53 C54 1.328 . S
N53 C58 1.318 . S
C54 N53 1.328 . S
C54 C55 1.457 . S
C54 H59 0.929 . S
C55 C54 1.457 . S
C55 C56 1.291 . S
C55 H68 0.931 . S
C56 C55 1.291 . S
C56 C57 1.373 . S
C56 H69 0.929 . S
C57 C56 1.373 . S
C57 C58 1.396 . S
C57 C64 1.403 1_655 S
C58 C48 1.476 1_655 S
C58 N53 1.318 . S
C58 C57 1.396 . S
H59 C54 0.929 . S
O60 Mn36 2.385 . S
O60 C38 1.234 . S
O61 Mn36 2.209 . S
O61 Mn37 2.215 . S
O61 C38 1.283 . S
O62 Mn36 2.094 . S
O62 C40 1.240 . S
O63 Mn37 2.117 . S
O63 C40 1.264 . S
C64 C57 1.403 1_455 S
C64 C65 1.399 . S
C64 H70 0.929 . S
C65 C45 1.449 . S
C65 C64 1.399 . S
C65 H71 0.930 . S
H66 C46 0.931 . S
H67 C47 0.930 . S
H68 C55 0.931 . S
H69 C56 0.929 . S
H70 C64 0.929 . S
H71 C65 0.930 . S
Mn72 O77 2.095 . S
Mn72 O87 2.162 . S
Mn72 O88 2.297 . S
Mn72 O96 2.385 . S
Mn72 O97 2.209 . S
Mn72 O98 2.094 . S
Mn73 O78 2.121 . S
Mn73 N80 2.257 . S
Mn73 N89 2.282 . S
Mn73 O97 2.215 . S
Mn73 O99 2.117 . S
C74 O96 1.234 . S
C74 O97 1.283 . S
C75 O87 1.281 . S
C75 O88 1.236 . S
C76 O98 1.240 . S
C76 O99 1.264 . S
O77 Mn72 2.095 . S
O77 C86 1.250 . S
O78 Mn73 2.121 . S
O78 C86 1.258 . S
C79 N80 1.326 . S
C79 C83 1.460 . S
C79 H85 0.929 . S
N80 Mn73 2.257 . S
N80 C79 1.326 . S
N80 C84 1.362 . S
C81 C82 1.258 . S
C81 C84 1.431 . S
C81 C101 1.449 . S
C82 C81 1.258 . S
C82 C83 1.477 . S
C82 H102 0.931 . S
C83 C79 1.460 . S
C83 C82 1.477 . S
C83 H103 0.930 . S
C84 N80 1.362 . S
C84 C81 1.431 . S
C84 C94 1.476 . S
H85 C79 0.929 . S
C86 O77 1.250 . S
C86 O78 1.258 . S
O87 Mn72 2.162 . S
O87 C75 1.281 . S
O88 Mn72 2.297 . S
O88 C75 1.236 . S
N89 Mn73 2.282 . S
N89 C90 1.328 . S
N89 C94 1.318 . S
C90 N89 1.328 . S
C90 C91 1.457 . S
C90 H95 0.929 . S
C91 C90 1.457 . S
C91 C92 1.291 . S
C91 H104 0.931 . S
C92 C91 1.291 . S
C92 C93 1.373 . S
C92 H105 0.929 . S
C93 C92 1.373 . S
C93 C94 1.396 . S
C93 C100 1.403 . S
C94 C84 1.476 . S
C94 N89 1.318 . S
C94 C93 1.396 . S
H95 C90 0.929 . S
O96 Mn72 2.385 . S
O96 C74 1.234 . S
O97 Mn72 2.209 . S
O97 Mn73 2.215 . S
O97 C74 1.283 . S
O98 Mn72 2.094 . S
O98 C76 1.240 . S
O99 Mn73 2.117 . S
O99 C76 1.264 . S
C100 C93 1.403 . S
C100 C101 1.399 . S
C100 H106 0.929 . S
C101 C81 1.449 . S
C101 C100 1.399 . S
C101 H107 0.930 . S
H102 C82 0.931 . S
H103 C83 0.930 . S
H104 C91 0.931 . S
H105 C92 0.929 . S
H106 C100 0.929 . S
H107 C101 0.930 . S
Mn108 O113 2.095 . S
Mn108 O123 2.162 . S
Mn108 O124 2.297 . S
Mn108 O132 2.385 . S
Mn108 O133 2.209 . S
Mn108 O134 2.094 . S
Mn109 O114 2.121 . S
Mn109 N116 2.257 . S
Mn109 N125 2.282 . S
Mn109 O133 2.215 . S
Mn109 O135 2.117 . S
C110 O132 1.234 . S
C110 O133 1.283 . S
C111 O123 1.281 . S
C111 O124 1.236 . S
C112 O134 1.240 . S
C112 O135 1.264 . S
O113 Mn108 2.095 . S
O113 C122 1.250 . S
O114 Mn109 2.121 . S
O114 C122 1.258 . S
C115 N116 1.326 . S
C115 C119 1.460 . S
C115 H121 0.929 . S
N116 Mn109 2.257 . S
N116 C115 1.326 . S
N116 C120 1.362 . S
C117 C118 1.258 . S
C117 C120 1.431 . S
C117 C137 1.449 . S
C118 C117 1.258 . S
C118 C119 1.477 . S
C118 H138 0.931 . S
C119 C115 1.460 . S
C119 C118 1.477 . S
C119 H139 0.930 . S
C120 N116 1.362 . S
C120 C117 1.431 . S
C120 C130 1.476 . S
H121 C115 0.929 . S
C122 O113 1.250 . S
C122 O114 1.258 . S
O123 Mn108 2.162 . S
O123 C111 1.281 . S
O124 Mn108 2.297 . S
O124 C111 1.236 . S
N125 Mn109 2.282 . S
N125 C126 1.328 . S
N125 C130 1.318 . S
C126 N125 1.328 . S
C126 C127 1.457 . S
C126 H131 0.929 . S
C127 C126 1.457 . S
C127 C128 1.291 . S
C127 H140 0.931 . S
C128 C127 1.291 . S
C128 C129 1.373 . S
C128 H141 0.929 . S
C129 C128 1.373 . S
C129 C130 1.396 . S
C129 C136 1.403 . S
C130 C120 1.476 . S
C130 N125 1.318 . S
C130 C129 1.396 . S
H131 C126 0.929 . S
O132 Mn108 2.385 . S
O132 C110 1.234 . S
O133 Mn108 2.209 . S
O133 Mn109 2.215 . S
O133 C110 1.283 . S
O134 Mn108 2.094 . S
O134 C112 1.240 . S
O135 Mn109 2.117 . S
O135 C112 1.264 . S
C136 C129 1.403 . S
C136 C137 1.399 . S
C136 H142 0.929 . S
C137 C117 1.449 . S
C137 C136 1.399 . S
C137 H143 0.930 . S
H138 C118 0.931 . S
H139 C119 0.930 . S
H140 C127 0.931 . S
H141 C128 0.929 . S
H142 C136 0.929 . S
H143 C137 0.930 . S
Mn144 O149 2.095 . S
Mn144 O159 2.162 . S
Mn144 O160 2.297 . S
Mn144 O168 2.385 . S
Mn144 O169 2.209 . S
Mn144 O170 2.094 . S
Mn145 O150 2.121 . S
Mn145 N152 2.257 . S
Mn145 N161 2.282 . S
Mn145 O169 2.215 . S
Mn145 O171 2.117 . S
C146 O168 1.234 . S
C146 O169 1.283 . S
C147 O159 1.281 . S
C147 O160 1.236 . S
C148 O170 1.240 . S
C148 O171 1.264 . S
O149 Mn144 2.095 . S
O149 C158 1.250 . S
O150 Mn145 2.121 . S
O150 C158 1.258 . S
C151 N152 1.326 . S
C151 C155 1.460 . S
C151 H157 0.929 . S
N152 Mn145 2.257 . S
N152 C151 1.326 . S
N152 C156 1.362 . S
C153 C154 1.258 . S
C153 C156 1.431 . S
C153 C173 1.449 . S
C154 C153 1.258 . S
C154 C155 1.477 . S
C154 H174 0.931 . S
C155 C151 1.460 . S
C155 C154 1.477 . S
C155 H175 0.930 . S
C156 N152 1.362 . S
C156 C153 1.431 . S
C156 C166 1.476 . S
H157 C151 0.929 . S
C158 O149 1.250 . S
C158 O150 1.258 . S
O159 Mn144 2.162 . S
O159 C147 1.281 . S
O160 Mn144 2.297 . S
O160 C147 1.236 . S
N161 Mn145 2.282 . S
N161 C162 1.328 . S
N161 C166 1.318 . S
C162 N161 1.328 . S
C162 C163 1.457 . S
C162 H167 0.929 . S
C163 C162 1.457 . S
C163 C164 1.291 . S
C163 H176 0.931 . S
C164 C163 1.291 . S
C164 C165 1.373 . S
C164 H177 0.929 . S
C165 C164 1.373 . S
C165 C166 1.396 . S
C165 C172 1.403 . S
C166 C156 1.476 . S
C166 N161 1.318 . S
C166 C165 1.396 . S
H167 C162 0.929 . S
O168 Mn144 2.385 . S
O168 C146 1.234 . S
O169 Mn144 2.209 . S
O169 Mn145 2.215 . S
O169 C146 1.283 . S
O170 Mn144 2.094 . S
O170 C148 1.240 . S
O171 Mn145 2.117 . S
O171 C148 1.264 . S
C172 C165 1.403 . S
C172 C173 1.399 . S
C172 H178 0.929 . S
C173 C153 1.449 . S
C173 C172 1.399 . S
C173 H179 0.930 . S
H174 C154 0.931 . S
H175 C155 0.930 . S
H176 C163 0.931 . S
H177 C164 0.929 . S
H178 C172 0.929 . S
H179 C173 0.930 . S
Mn180 O185 2.095 . S
Mn180 O195 2.162 . S
Mn180 O196 2.297 . S
Mn180 O204 2.385 . S
Mn180 O205 2.209 . S
Mn180 O206 2.094 . S
Mn181 O186 2.121 . S
Mn181 N188 2.257 . S
Mn181 N197 2.282 . S
Mn181 O205 2.215 . S
Mn181 O207 2.117 . S
C182 O204 1.234 . S
C182 O205 1.283 . S
C183 O195 1.281 . S
C183 O196 1.236 . S
C184 O206 1.240 . S
C184 O207 1.264 . S
O185 Mn180 2.095 . S
O185 C194 1.250 . S
O186 Mn181 2.121 . S
O186 C194 1.258 . S
C187 N188 1.326 . S
C187 C191 1.460 . S
C187 H193 0.929 . S
N188 Mn181 2.257 . S
N188 C187 1.326 . S
N188 C192 1.362 . S
C189 C190 1.258 . S
C189 C192 1.431 . S
C189 C209 1.449 . S
C190 C189 1.258 . S
C190 C191 1.477 . S
C190 H210 0.931 . S
C191 C187 1.460 . S
C191 C190 1.477 . S
C191 H211 0.930 . S
C192 N188 1.362 . S
C192 C189 1.431 . S
C192 C202 1.476 . S
H193 C187 0.929 . S
C194 O185 1.250 . S
C194 O186 1.258 . S
O195 Mn180 2.162 . S
O195 C183 1.281 . S
O196 Mn180 2.297 . S
O196 C183 1.236 . S
N197 Mn181 2.282 . S
N197 C198 1.328 . S
N197 C202 1.318 . S
C198 N197 1.328 . S
C198 C199 1.457 . S
C198 H203 0.929 . S
C199 C198 1.457 . S
C199 C200 1.291 . S
C199 H212 0.931 . S
C200 C199 1.291 . S
C200 C201 1.373 . S
C200 H213 0.929 . S
C201 C200 1.373 . S
C201 C202 1.396 . S
C201 C208 1.403 . S
C202 C192 1.476 . S
C202 N197 1.318 . S
C202 C201 1.396 . S
H203 C198 0.929 . S
O204 Mn180 2.385 . S
O204 C182 1.234 . S
O205 Mn180 2.209 . S
O205 Mn181 2.215 . S
O205 C182 1.283 . S
O206 Mn180 2.094 . S
O206 C184 1.240 . S
O207 Mn181 2.117 . S
O207 C184 1.264 . S
C208 C201 1.403 . S
C208 C209 1.399 . S
C208 H214 0.929 . S
C209 C189 1.449 . S
C209 C208 1.399 . S
C209 H215 0.930 . S
H210 C190 0.931 . S
H211 C191 0.930 . S
H212 C199 0.931 . S
H213 C200 0.929 . S
H214 C208 0.929 . S
H215 C209 0.930 . S
Mn216 O221 2.095 . S
Mn216 O231 2.162 . S
Mn216 O232 2.297 . S
Mn216 O240 2.385 . S
Mn216 O241 2.209 . S
Mn216 O242 2.094 . S
Mn217 O222 2.121 . S
Mn217 N224 2.257 . S
Mn217 N233 2.282 . S
Mn217 O241 2.215 . S
Mn217 O243 2.117 . S
C218 O240 1.234 . S
C218 O241 1.283 . S
C219 O231 1.281 . S
C219 O232 1.236 . S
C220 O242 1.240 . S
C220 O243 1.264 . S
O221 Mn216 2.095 . S
O221 C230 1.250 . S
O222 Mn217 2.121 . S
O222 C230 1.258 . S
C223 N224 1.326 1_565 S
C223 C227 1.460 . S
C223 H229 0.929 . S
N224 Mn217 2.257 . S
N224 C223 1.326 1_545 S
N224 C228 1.362 1_545 S
C225 C226 1.258 . S
C225 C228 1.431 . S
C225 C245 1.449 . S
C226 C225 1.258 . S
C226 C227 1.477 . S
C226 H246 0.931 . S
C227 C223 1.460 . S
C227 C226 1.477 . S
C227 H247 0.930 . S
C228 N224 1.362 1_565 S
C228 C225 1.431 . S
C228 C238 1.476 1_565 S
H229 C223 0.929 . S
C230 O221 1.250 . S
C230 O222 1.258 . S
O231 Mn216 2.162 . S
O231 C219 1.281 . S
O232 Mn216 2.297 . S
O232 C219 1.236 . S
N233 Mn217 2.282 . S
N233 C234 1.328 . S
N233 C238 1.318 . S
C234 N233 1.328 . S
C234 C235 1.457 . S
C234 H239 0.929 . S
C235 C234 1.457 . S
C235 C236 1.291 . S
C235 H248 0.931 . S
C236 C235 1.291 . S
C236 C237 1.373 . S
C236 H249 0.929 . S
C237 C236 1.373 . S
C237 C238 1.396 . S
C237 C244 1.403 1_545 S
C238 C228 1.476 1_545 S
C238 N233 1.318 . S
C238 C237 1.396 . S
H239 C234 0.929 . S
O240 Mn216 2.385 . S
O240 C218 1.234 . S
O241 Mn216 2.209 . S
O241 Mn217 2.215 . S
O241 C218 1.283 . S
O242 Mn216 2.094 . S
O242 C220 1.240 . S
O243 Mn217 2.117 . S
O243 C220 1.264 . S
C244 C237 1.403 1_565 S
C244 C245 1.399 . S
C244 H250 0.929 . S
C245 C225 1.449 . S
C245 C244 1.399 . S
C245 H251 0.930 . S
H246 C226 0.931 . S
H247 C227 0.930 . S
H248 C235 0.931 . S
H249 C236 0.929 . S
H250 C244 0.929 . S
H251 C245 0.930 . S
Mn252 O257 2.095 . S
Mn252 O267 2.162 . S
Mn252 O268 2.297 . S
Mn252 O276 2.385 . S
Mn252 O277 2.209 . S
Mn252 O278 2.094 . S
Mn253 O258 2.121 . S
Mn253 N260 2.257 . S
Mn253 N269 2.282 . S
Mn253 O277 2.215 . S
Mn253 O279 2.117 . S
C254 O276 1.234 . S
C254 O277 1.283 . S
C255 O267 1.281 . S
C255 O268 1.236 . S
C256 O278 1.240 . S
C256 O279 1.264 . S
O257 Mn252 2.095 . S
O257 C266 1.250 . S
O258 Mn253 2.121 . S
O258 C266 1.258 . S
C259 N260 1.326 1_455 S
C259 C263 1.460 . S
C259 H265 0.929 . S
N260 Mn253 2.257 . S
N260 C259 1.326 1_655 S
N260 C264 1.362 1_655 S
C261 C262 1.258 . S
C261 C264 1.431 . S
C261 C281 1.449 . S
C262 C261 1.258 . S
C262 C263 1.477 . S
C262 H282 0.931 . S
C263 C259 1.460 . S
C263 C262 1.477 . S
C263 H283 0.930 . S
C264 N260 1.362 1_455 S
C264 C261 1.431 . S
C264 C274 1.476 1_455 S
H265 C259 0.929 . S
C266 O257 1.250 . S
C266 O258 1.258 . S
O267 Mn252 2.162 . S
O267 C255 1.281 . S
O268 Mn252 2.297 . S
O268 C255 1.236 . S
N269 Mn253 2.282 . S
N269 C270 1.328 . S
N269 C274 1.318 . S
C270 N269 1.328 . S
C270 C271 1.457 . S
C270 H275 0.929 . S
C271 C270 1.457 . S
C271 C272 1.291 . S
C271 H284 0.931 . S
C272 C271 1.291 . S
C272 C273 1.373 . S
C272 H285 0.929 . S
C273 C272 1.373 . S
C273 C274 1.396 . S
C273 C280 1.403 1_655 S
C274 C264 1.476 1_655 S
C274 N269 1.318 . S
C274 C273 1.396 . S
H275 C270 0.929 . S
O276 Mn252 2.385 . S
O276 C254 1.234 . S
O277 Mn252 2.209 . S
O277 Mn253 2.215 . S
O277 C254 1.283 . S
O278 Mn252 2.094 . S
O278 C256 1.240 . S
O279 Mn253 2.117 . S
O279 C256 1.264 . S
C280 C273 1.403 1_455 S
C280 C281 1.399 . S
C280 H286 0.929 . S
C281 C261 1.449 . S
C281 C280 1.399 . S
C281 H287 0.930 . S
H282 C262 0.931 . S
H283 C263 0.930 . S
H284 C271 0.931 . S
H285 C272 0.929 . S
H286 C280 0.929 . S
H287 C281 0.930 . S
Mn288 O293 2.095 . S
Mn288 O303 2.162 . S
Mn288 O304 2.297 . S
Mn288 O312 2.385 . S
Mn288 O313 2.209 . S
Mn288 O314 2.094 . S
Mn289 O294 2.121 . S
Mn289 N296 2.257 . S
Mn289 N305 2.282 . S
Mn289 O313 2.215 . S
Mn289 O315 2.117 . S
C290 O312 1.234 . S
C290 O313 1.283 . S
C291 O303 1.281 . S
C291 O304 1.236 . S
C292 O314 1.240 . S
C292 O315 1.264 . S
O293 Mn288 2.095 . S
O293 C302 1.250 . S
O294 Mn289 2.121 . S
O294 C302 1.258 . S
C295 N296 1.326 . S
C295 C299 1.460 . S
C295 H301 0.929 . S
N296 Mn289 2.257 . S
N296 C295 1.326 . S
N296 C300 1.362 . S
C297 C298 1.258 . S
C297 C300 1.431 . S
C297 C317 1.449 . S
C298 C297 1.258 . S
C298 C299 1.477 . S
C298 H318 0.931 . S
C299 C295 1.460 . S
C299 C298 1.477 . S
C299 H319 0.930 . S
C300 N296 1.362 . S
C300 C297 1.431 . S
C300 C310 1.476 . S
H301 C295 0.929 . S
C302 O293 1.250 . S
C302 O294 1.258 . S
O303 Mn288 2.162 . S
O303 C291 1.281 . S
O304 Mn288 2.297 . S
O304 C291 1.236 . S
N305 Mn289 2.282 . S
N305 C306 1.328 . S
N305 C310 1.318 . S
C306 N305 1.328 . S
C306 C307 1.457 . S
C306 H311 0.929 . S
C307 C306 1.457 . S
C307 C308 1.291 . S
C307 H320 0.931 . S
C308 C307 1.291 . S
C308 C309 1.373 . S
C308 H321 0.929 . S
C309 C308 1.373 . S
C309 C310 1.396 . S
C309 C316 1.403 . S
C310 C300 1.476 . S
C310 N305 1.318 . S
C310 C309 1.396 . S
H311 C306 0.929 . S
O312 Mn288 2.385 . S
O312 C290 1.234 . S
O313 Mn288 2.209 . S
O313 Mn289 2.215 . S
O313 C290 1.283 . S
O314 Mn288 2.094 . S
O314 C292 1.240 . S
O315 Mn289 2.117 . S
O315 C292 1.264 . S
C316 C309 1.403 . S
C316 C317 1.399 . S
C316 H322 0.929 . S
C317 C297 1.449 . S
C317 C316 1.399 . S
C317 H323 0.930 . S
H318 C298 0.931 . S
H319 C299 0.930 . S
H320 C307 0.931 . S
H321 C308 0.929 . S
H322 C316 0.929 . S
H323 C317 0.930 . S
Mn324 O329 2.095 . S
Mn324 O339 2.162 . S
Mn324 O340 2.297 . S
Mn324 O348 2.385 . S
Mn324 O349 2.209 . S
Mn324 O350 2.094 . S
Mn325 O330 2.121 . S
Mn325 N332 2.257 . S
Mn325 N341 2.282 . S
Mn325 O349 2.215 . S
Mn325 O351 2.117 . S
C326 O348 1.234 . S
C326 O349 1.283 . S
C327 O339 1.281 . S
C327 O340 1.236 . S
C328 O350 1.240 . S
C328 O351 1.264 . S
O329 Mn324 2.095 . S
O329 C338 1.250 . S
O330 Mn325 2.121 . S
O330 C338 1.258 . S
C331 N332 1.326 . S
C331 C335 1.460 . S
C331 H337 0.929 . S
N332 Mn325 2.257 . S
N332 C331 1.326 . S
N332 C336 1.362 . S
C333 C334 1.258 . S
C333 C336 1.431 . S
C333 C353 1.449 . S
C334 C333 1.258 . S
C334 C335 1.477 . S
C334 H354 0.931 . S
C335 C331 1.460 . S
C335 C334 1.477 . S
C335 H355 0.930 . S
C336 N332 1.362 . S
C336 C333 1.431 . S
C336 C346 1.476 . S
H337 C331 0.929 . S
C338 O329 1.250 . S
C338 O330 1.258 . S
O339 Mn324 2.162 . S
O339 C327 1.281 . S
O340 Mn324 2.297 . S
O340 C327 1.236 . S
N341 Mn325 2.282 . S
N341 C342 1.328 . S
N341 C346 1.318 . S
C342 N341 1.328 . S
C342 C343 1.457 . S
C342 H347 0.929 . S
C343 C342 1.457 . S
C343 C344 1.291 . S
C343 H356 0.931 . S
C344 C343 1.291 . S
C344 C345 1.373 . S
C344 H357 0.929 . S
C345 C344 1.373 . S
C345 C346 1.396 . S
C345 C352 1.403 . S
C346 C336 1.476 . S
C346 N341 1.318 . S
C346 C345 1.396 . S
H347 C342 0.929 . S
O348 Mn324 2.385 . S
O348 C326 1.234 . S
O349 Mn324 2.209 . S
O349 Mn325 2.215 . S
O349 C326 1.283 . S
O350 Mn324 2.094 . S
O350 C328 1.240 . S
O351 Mn325 2.117 . S
O351 C328 1.264 . S
C352 C345 1.403 . S
C352 C353 1.399 . S
C352 H358 0.929 . S
C353 C333 1.449 . S
C353 C352 1.399 . S
C353 H359 0.930 . S
H354 C334 0.931 . S
H355 C335 0.930 . S
H356 C343 0.931 . S
H357 C344 0.929 . S
H358 C352 0.929 . S
H359 C353 0.930 . S
Mn360 O365 2.095 . S
Mn360 O375 2.162 . S
Mn360 O376 2.297 . S
Mn360 O384 2.385 . S
Mn360 O385 2.209 . S
Mn360 O386 2.094 . S
Mn361 O366 2.121 . S
Mn361 N368 2.257 . S
Mn361 N377 2.282 . S
Mn361 O385 2.215 . S
Mn361 O387 2.117 . S
C362 O384 1.234 . S
C362 O385 1.283 . S
C363 O375 1.281 . S
C363 O376 1.236 . S
C364 O386 1.240 . S
C364 O387 1.264 . S
O365 Mn360 2.095 . S
O365 C374 1.250 . S
O366 Mn361 2.121 . S
O366 C374 1.258 . S
C367 N368 1.326 1_545 S
C367 C371 1.460 . S
C367 H373 0.929 . S
N368 Mn361 2.257 . S
N368 C367 1.326 1_565 S
N368 C372 1.362 1_565 S
C369 C370 1.258 . S
C369 C372 1.431 . S
C369 C389 1.449 . S
C370 C369 1.258 . S
C370 C371 1.477 . S
C370 H390 0.931 . S
C371 C367 1.460 . S
C371 C370 1.477 . S
C371 H391 0.930 . S
C372 N368 1.362 1_545 S
C372 C369 1.431 . S
C372 C382 1.476 1_545 S
H373 C367 0.929 . S
C374 O365 1.250 . S
C374 O366 1.258 . S
O375 Mn360 2.162 . S
O375 C363 1.281 . S
O376 Mn360 2.297 . S
O376 C363 1.236 . S
N377 Mn361 2.282 . S
N377 C378 1.328 . S
N377 C382 1.318 . S
C378 N377 1.328 . S
C378 C379 1.457 . S
C378 H383 0.929 . S
C379 C378 1.457 . S
C379 C380 1.291 . S
C379 H392 0.931 . S
C380 C379 1.291 . S
C380 C381 1.373 . S
C380 H393 0.929 . S
C381 C380 1.373 . S
C381 C382 1.396 . S
C381 C388 1.403 1_565 S
C382 C372 1.476 1_565 S
C382 N377 1.318 . S
C382 C381 1.396 . S
H383 C378 0.929 . S
O384 Mn360 2.385 . S
O384 C362 1.234 . S
O385 Mn360 2.209 . S
O385 Mn361 2.215 . S
O385 C362 1.283 . S
O386 Mn360 2.094 . S
O386 C364 1.240 . S
O387 Mn361 2.117 . S
O387 C364 1.264 . S
C388 C381 1.403 1_545 S
C388 C389 1.399 . S
C388 H394 0.929 . S
C389 C369 1.449 . S
C389 C388 1.399 . S
C389 H395 0.930 . S
H390 C370 0.931 . S
H391 C371 0.930 . S
H392 C379 0.931 . S
H393 C380 0.929 . S
H394 C388 0.929 . S
H395 C389 0.930 . S
Mn396 O401 2.095 . S
Mn396 O411 2.162 . S
Mn396 O412 2.297 . S
Mn396 O420 2.385 . S
Mn396 O421 2.209 . S
Mn396 O422 2.094 . S
Mn397 O402 2.121 . S
Mn397 N404 2.257 . S
Mn397 N413 2.282 . S
Mn397 O421 2.215 . S
Mn397 O423 2.117 . S
C398 O420 1.234 . S
C398 O421 1.283 . S
C399 O411 1.281 . S
C399 O412 1.236 . S
C400 O422 1.240 . S
C400 O423 1.264 . S
O401 Mn396 2.095 . S
O401 C410 1.250 . S
O402 Mn397 2.121 . S
O402 C410 1.258 . S
C403 N404 1.326 1_655 S
C403 C407 1.460 . S
C403 H409 0.929 . S
N404 Mn397 2.257 . S
N404 C403 1.326 1_455 S
N404 C408 1.362 1_455 S
C405 C406 1.258 . S
C405 C408 1.431 . S
C405 C425 1.449 . S
C406 C405 1.258 . S
C406 C407 1.477 . S
C406 H426 0.931 . S
C407 C403 1.460 . S
C407 C406 1.477 . S
C407 H427 0.930 . S
C408 N404 1.362 1_655 S
C408 C405 1.431 . S
C408 C418 1.476 1_655 S
H409 C403 0.929 . S
C410 O401 1.250 . S
C410 O402 1.258 . S
O411 Mn396 2.162 . S
O411 C399 1.281 . S
O412 Mn396 2.297 . S
O412 C399 1.236 . S
N413 Mn397 2.282 . S
N413 C414 1.328 . S
N413 C418 1.318 . S
C414 N413 1.328 . S
C414 C415 1.457 . S
C414 H419 0.929 . S
C415 C414 1.457 . S
C415 C416 1.291 . S
C415 H428 0.931 . S
C416 C415 1.291 . S
C416 C417 1.373 . S
C416 H429 0.929 . S
C417 C416 1.373 . S
C417 C418 1.396 . S
C417 C424 1.403 1_455 S
C418 C408 1.476 1_455 S
C418 N413 1.318 . S
C418 C417 1.396 . S
H419 C414 0.929 . S
O420 Mn396 2.385 . S
O420 C398 1.234 . S
O421 Mn396 2.209 . S
O421 Mn397 2.215 . S
O421 C398 1.283 . S
O422 Mn396 2.094 . S
O422 C400 1.240 . S
O423 Mn397 2.117 . S
O423 C400 1.264 . S
C424 C417 1.403 1_655 S
C424 C425 1.399 . S
C424 H430 0.929 . S
C425 C405 1.449 . S
C425 C424 1.399 . S
C425 H431 0.930 . S
H426 C406 0.931 . S
H427 C407 0.930 . S
H428 C415 0.931 . S
H429 C416 0.929 . S
H430 C424 0.929 . S
H431 C425 0.930 . S
Mn432 O437 2.095 . S
Mn432 O447 2.162 . S
Mn432 O448 2.297 . S
Mn432 O456 2.385 . S
Mn432 O457 2.209 . S
Mn432 O458 2.094 . S
Mn433 O438 2.121 . S
Mn433 N440 2.257 . S
Mn433 N449 2.282 . S
Mn433 O457 2.215 . S
Mn433 O459 2.117 . S
C434 O456 1.234 . S
C434 O457 1.283 . S
C435 O447 1.281 . S
C435 O448 1.236 . S
C436 O458 1.240 . S
C436 O459 1.264 . S
O437 Mn432 2.095 . S
O437 C446 1.250 . S
O438 Mn433 2.121 . S
O438 C446 1.258 . S
C439 N440 1.326 1_545 S
C439 C443 1.460 . S
C439 H445 0.929 . S
N440 Mn433 2.257 . S
N440 C439 1.326 1_565 S
N440 C444 1.362 1_565 S
C441 C442 1.258 . S
C441 C444 1.431 . S
C441 C461 1.449 . S
C442 C441 1.258 . S
C442 C443 1.477 . S
C442 H462 0.931 . S
C443 C439 1.460 . S
C443 C442 1.477 . S
C443 H463 0.930 . S
C444 N440 1.362 1_545 S
C444 C441 1.431 . S
C444 C454 1.476 1_545 S
H445 C439 0.929 . S
C446 O437 1.250 . S
C446 O438 1.258 . S
O447 Mn432 2.162 . S
O447 C435 1.281 . S
O448 Mn432 2.297 . S
O448 C435 1.236 . S
N449 Mn433 2.282 . S
N449 C450 1.328 . S
N449 C454 1.318 . S
C450 N449 1.328 . S
C450 C451 1.457 . S
C450 H455 0.929 . S
C451 C450 1.457 . S
C451 C452 1.291 . S
C451 H464 0.931 . S
C452 C451 1.291 . S
C452 C453 1.373 . S
C452 H465 0.929 . S
C453 C452 1.373 . S
C453 C454 1.396 . S
C453 C460 1.403 1_565 S
C454 C444 1.476 1_565 S
C454 N449 1.318 . S
C454 C453 1.396 . S
H455 C450 0.929 . S
O456 Mn432 2.385 . S
O456 C434 1.234 . S
O457 Mn432 2.209 . S
O457 Mn433 2.215 . S
O457 C434 1.283 . S
O458 Mn432 2.094 . S
O458 C436 1.240 . S
O459 Mn433 2.117 . S
O459 C436 1.264 . S
C460 C453 1.403 1_545 S
C460 C461 1.399 . S
C460 H466 0.929 . S
C461 C441 1.449 . S
C461 C460 1.399 . S
C461 H467 0.930 . S
H462 C442 0.931 . S
H463 C443 0.930 . S
H464 C451 0.931 . S
H465 C452 0.929 . S
H466 C460 0.929 . S
H467 C461 0.930 . S
Mn468 O473 2.095 . S
Mn468 O483 2.162 . S
Mn468 O484 2.297 . S
Mn468 O492 2.385 . S
Mn468 O493 2.209 . S
Mn468 O494 2.094 . S
Mn469 O474 2.121 . S
Mn469 N476 2.257 . S
Mn469 N485 2.282 . S
Mn469 O493 2.215 . S
Mn469 O495 2.117 . S
C470 O492 1.234 . S
C470 O493 1.283 . S
C471 O483 1.281 . S
C471 O484 1.236 . S
C472 O494 1.240 . S
C472 O495 1.264 . S
O473 Mn468 2.095 . S
O473 C482 1.250 . S
O474 Mn469 2.121 . S
O474 C482 1.258 . S
C475 N476 1.326 1_655 S
C475 C479 1.460 . S
C475 H481 0.929 . S
N476 Mn469 2.257 . S
N476 C475 1.326 1_455 S
N476 C480 1.362 1_455 S
C477 C478 1.258 . S
C477 C480 1.431 . S
C477 C497 1.449 . S
C478 C477 1.258 . S
C478 C479 1.477 . S
C478 H498 0.931 . S
C479 C475 1.460 . S
C479 C478 1.477 . S
C479 H499 0.930 . S
C480 N476 1.362 1_655 S
C480 C477 1.431 . S
C480 C490 1.476 1_655 S
H481 C475 0.929 . S
C482 O473 1.250 . S
C482 O474 1.258 . S
O483 Mn468 2.162 . S
O483 C471 1.281 . S
O484 Mn468 2.297 . S
O484 C471 1.236 . S
N485 Mn469 2.282 . S
N485 C486 1.328 . S
N485 C490 1.318 . S
C486 N485 1.328 . S
C486 C487 1.457 . S
C486 H491 0.929 . S
C487 C486 1.457 . S
C487 C488 1.291 . S
C487 H500 0.931 . S
C488 C487 1.291 . S
C488 C489 1.373 . S
C488 H501 0.929 . S
C489 C488 1.373 . S
C489 C490 1.396 . S
C489 C496 1.403 1_455 S
C490 C480 1.476 1_455 S
C490 N485 1.318 . S
C490 C489 1.396 . S
H491 C486 0.929 . S
O492 Mn468 2.385 . S
O492 C470 1.234 . S
O493 Mn468 2.209 . S
O493 Mn469 2.215 . S
O493 C470 1.283 . S
O494 Mn468 2.094 . S
O494 C472 1.240 . S
O495 Mn469 2.117 . S
O495 C472 1.264 . S
C496 C489 1.403 1_655 S
C496 C497 1.399 . S
C496 H502 0.929 . S
C497 C477 1.449 . S
C497 C496 1.399 . S
C497 H503 0.930 . S
H498 C478 0.931 . S
H499 C479 0.930 . S
H500 C487 0.931 . S
H501 C488 0.929 . S
H502 C496 0.929 . S
H503 C497 0.930 . S
Mn504 O509 2.095 . S
Mn504 O519 2.162 . S
Mn504 O520 2.297 . S
Mn504 O528 2.385 . S
Mn504 O529 2.209 . S
Mn504 O530 2.094 . S
Mn505 O510 2.121 . S
Mn505 N512 2.257 . S
Mn505 N521 2.282 . S
Mn505 O529 2.215 . S
Mn505 O531 2.117 . S
C506 O528 1.234 . S
C506 O529 1.283 . S
C507 O519 1.281 . S
C507 O520 1.236 . S
C508 O530 1.240 . S
C508 O531 1.264 . S
O509 Mn504 2.095 . S
O509 C518 1.250 . S
O510 Mn505 2.121 . S
O510 C518 1.258 . S
C511 N512 1.326 . S
C511 C515 1.460 . S
C511 H517 0.929 . S
N512 Mn505 2.257 . S
N512 C511 1.326 . S
N512 C516 1.362 . S
C513 C514 1.258 . S
C513 C516 1.431 . S
C513 C533 1.449 . S
C514 C513 1.258 . S
C514 C515 1.477 . S
C514 H534 0.931 . S
C515 C511 1.460 . S
C515 C514 1.477 . S
C515 H535 0.930 . S
C516 N512 1.362 . S
C516 C513 1.431 . S
C516 C526 1.476 . S
H517 C511 0.929 . S
C518 O509 1.250 . S
C518 O510 1.258 . S
O519 Mn504 2.162 . S
O519 C507 1.281 . S
O520 Mn504 2.297 . S
O520 C507 1.236 . S
N521 Mn505 2.282 . S
N521 C522 1.328 . S
N521 C526 1.318 . S
C522 N521 1.328 . S
C522 C523 1.457 . S
C522 H527 0.929 . S
C523 C522 1.457 . S
C523 C524 1.291 . S
C523 H536 0.931 . S
C524 C523 1.291 . S
C524 C525 1.373 . S
C524 H537 0.929 . S
C525 C524 1.373 . S
C525 C526 1.396 . S
C525 C532 1.403 . S
C526 C516 1.476 . S
C526 N521 1.318 . S
C526 C525 1.396 . S
H527 C522 0.929 . S
O528 Mn504 2.385 . S
O528 C506 1.234 . S
O529 Mn504 2.209 . S
O529 Mn505 2.215 . S
O529 C506 1.283 . S
O530 Mn504 2.094 . S
O530 C508 1.240 . S
O531 Mn505 2.117 . S
O531 C508 1.264 . S
C532 C525 1.403 . S
C532 C533 1.399 . S
C532 H538 0.929 . S
C533 C513 1.449 . S
C533 C532 1.399 . S
C533 H539 0.930 . S
H534 C514 0.931 . S
H535 C515 0.930 . S
H536 C523 0.931 . S
H537 C524 0.929 . S
H538 C532 0.929 . S
H539 C533 0.930 . S
Mn540 O545 2.095 . S
Mn540 O555 2.162 . S
Mn540 O556 2.297 . S
Mn540 O564 2.385 . S
Mn540 O565 2.209 . S
Mn540 O566 2.094 . S
Mn541 O546 2.121 . S
Mn541 N548 2.257 . S
Mn541 N557 2.282 . S
Mn541 O565 2.215 . S
Mn541 O567 2.117 . S
C542 O564 1.234 . S
C542 O565 1.283 . S
C543 O555 1.281 . S
C543 O556 1.236 . S
C544 O566 1.240 . S
C544 O567 1.264 . S
O545 Mn540 2.095 . S
O545 C554 1.250 . S
O546 Mn541 2.121 . S
O546 C554 1.258 . S
C547 N548 1.326 . S
C547 C551 1.460 . S
C547 H553 0.929 . S
N548 Mn541 2.257 . S
N548 C547 1.326 . S
N548 C552 1.362 . S
C549 C550 1.258 . S
C549 C552 1.431 . S
C549 C569 1.449 . S
C550 C549 1.258 . S
C550 C551 1.477 . S
C550 H570 0.931 . S
C551 C547 1.460 . S
C551 C550 1.477 . S
C551 H571 0.930 . S
C552 N548 1.362 . S
C552 C549 1.431 . S
C552 C562 1.476 . S
H553 C547 0.929 . S
C554 O545 1.250 . S
C554 O546 1.258 . S
O555 Mn540 2.162 . S
O555 C543 1.281 . S
O556 Mn540 2.297 . S
O556 C543 1.236 . S
N557 Mn541 2.282 . S
N557 C558 1.328 . S
N557 C562 1.318 . S
C558 N557 1.328 . S
C558 C559 1.457 . S
C558 H563 0.929 . S
C559 C558 1.457 . S
C559 C560 1.291 . S
C559 H572 0.931 . S
C560 C559 1.291 . S
C560 C561 1.373 . S
C560 H573 0.929 . S
C561 C560 1.373 . S
C561 C562 1.396 . S
C561 C568 1.403 . S
C562 C552 1.476 . S
C562 N557 1.318 . S
C562 C561 1.396 . S
H563 C558 0.929 . S
O564 Mn540 2.385 . S
O564 C542 1.234 . S
O565 Mn540 2.209 . S
O565 Mn541 2.215 . S
O565 C542 1.283 . S
O566 Mn540 2.094 . S
O566 C544 1.240 . S
O567 Mn541 2.117 . S
O567 C544 1.264 . S
C568 C561 1.403 . S
C568 C569 1.399 . S
C568 H574 0.929 . S
C569 C549 1.449 . S
C569 C568 1.399 . S
C569 H575 0.930 . S
H570 C550 0.931 . S
H571 C551 0.930 . S
H572 C559 0.931 . S
H573 C560 0.929 . S
H574 C568 0.929 . S
H575 C569 0.930 . S
C576 C577 1.349 . S
C576 C578 1.327 . S
C576 H601 0.950 . S
C577 C576 1.349 . S
C577 C593 1.349 . S
C578 C576 1.327 . S
C578 C597 1.429 . S
C578 H602 0.950 . S
C579 C596 1.574 1_655 S
C579 C598 1.368 1_545 S
C579 H603 0.949 . S
H580 C584 0.949 . S
C581 C582 1.349 . S
C581 C583 1.327 . S
C581 H604 0.950 . S
C582 C581 1.349 . S
C582 C594 1.349 . S
C583 C581 1.327 . S
C583 C599 1.429 . S
C583 H605 0.950 . S
C584 H580 0.949 . S
C584 C592 1.574 1_455 S
C584 C600 1.368 1_565 S
H585 C593 0.950 . S
H586 C591 0.950 . S
H587 C592 0.949 . S
H588 C594 0.950 . S
H589 C595 0.950 . S
H590 C596 0.949 . S
C591 H586 0.950 . S
C591 C593 1.327 . S
C591 C597 1.429 . S
C592 C584 1.574 1_655 S
C592 H587 0.949 . S
C592 C598 1.368 . S
C593 C577 1.349 . S
C593 H585 0.950 . S
C593 C591 1.327 . S
C594 C582 1.349 . S
C594 H588 0.950 . S
C594 C595 1.327 . S
C595 H589 0.950 . S
C595 C594 1.327 . S
C595 C599 1.429 . S
C596 C579 1.574 1_455 S
C596 H590 0.949 . S
C596 C600 1.368 . S
C597 C578 1.429 . S
C597 C591 1.429 . S
C597 C598 1.523 . S
C598 C579 1.368 1_565 S
C598 C592 1.368 . S
C598 C597 1.523 . S
C599 C583 1.429 . S
C599 C595 1.429 . S
C599 C600 1.523 . S
C600 C584 1.368 1_545 S
C600 C596 1.368 . S
C600 C599 1.523 . S
H601 C576 0.950 . S
H602 C578 0.950 . S
H603 C579 0.949 . S
H604 C581 0.950 . S
H605 C583 0.950 . S
C606 C607 1.349 . S
C606 C608 1.327 . S
C606 H631 0.950 . S
C607 C606 1.349 . S
C607 C623 1.349 . S
C608 C606 1.327 . S
C608 C627 1.429 . S
C608 H632 0.950 . S
C609 C626 1.574 . S
C609 C628 1.368 . S
C609 H633 0.949 . S
H610 C614 0.949 . S
C611 C612 1.349 . S
C611 C613 1.327 . S
C611 H634 0.950 . S
C612 C611 1.349 . S
C612 C624 1.349 . S
C613 C611 1.327 . S
C613 C629 1.429 . S
C613 H635 0.950 . S
C614 H610 0.949 . S
C614 C622 1.574 . S
C614 C630 1.368 . S
H615 C623 0.950 . S
H616 C621 0.950 . S
H617 C622 0.949 . S
H618 C624 0.950 . S
H619 C625 0.950 . S
H620 C626 0.949 . S
C621 H616 0.950 . S
C621 C623 1.327 . S
C621 C627 1.429 . S
C622 C614 1.574 . S
C622 H617 0.949 . S
C622 C628 1.368 1_455 S
C623 C607 1.349 . S
C623 H615 0.950 . S
C623 C621 1.327 . S
C624 C612 1.349 . S
C624 H618 0.950 . S
C624 C625 1.327 . S
C625 H619 0.950 . S
C625 C624 1.327 . S
C625 C629 1.429 . S
C626 C609 1.574 . S
C626 H620 0.949 . S
C626 C630 1.368 1_655 S
C627 C608 1.429 . S
C627 C621 1.429 . S
C627 C628 1.523 . S
C628 C609 1.368 . S
C628 C622 1.368 1_655 S
C628 C627 1.523 . S
C629 C613 1.429 . S
C629 C625 1.429 . S
C629 C630 1.523 . S
C630 C614 1.368 . S
C630 C626 1.368 1_455 S
C630 C629 1.523 . S
H631 C606 0.950 . S
H632 C608 0.950 . S
H633 C609 0.949 . S
H634 C611 0.950 . S
H635 C613 0.950 . S
C636 C637 1.349 . S
C636 C638 1.327 . S
C636 H661 0.950 . S
C637 C636 1.349 . S
C637 C653 1.349 . S
C638 C636 1.327 . S
C638 C657 1.429 . S
C638 H662 0.950 . S
C639 C656 1.574 . S
C639 C658 1.368 . S
C639 H663 0.949 . S
H640 C644 0.949 . S
C641 C642 1.349 . S
C641 C643 1.327 . S
C641 H664 0.950 . S
C642 C641 1.349 . S
C642 C654 1.349 . S
C643 C641 1.327 . S
C643 C659 1.429 . S
C643 H665 0.950 . S
C644 H640 0.949 . S
C644 C652 1.574 . S
C644 C660 1.368 . S
H645 C653 0.950 . S
H646 C651 0.950 . S
H647 C652 0.949 . S
H648 C654 0.950 . S
H649 C655 0.950 . S
H650 C656 0.949 . S
C651 H646 0.950 . S
C651 C653 1.327 . S
C651 C657 1.429 . S
C652 C644 1.574 . S
C652 H647 0.949 . S
C652 C658 1.368 . S
C653 C637 1.349 . S
C653 H645 0.950 . S
C653 C651 1.327 . S
C654 C642 1.349 . S
C654 H648 0.950 . S
C654 C655 1.327 . S
C655 H649 0.950 . S
C655 C654 1.327 . S
C655 C659 1.429 . S
C656 C639 1.574 . S
C656 H650 0.949 . S
C656 C660 1.368 . S
C657 C638 1.429 . S
C657 C651 1.429 . S
C657 C658 1.523 . S
C658 C639 1.368 . S
C658 C652 1.368 . S
C658 C657 1.523 . S
C659 C643 1.429 . S
C659 C655 1.429 . S
C659 C660 1.523 . S
C660 C644 1.368 . S
C660 C656 1.368 . S
C660 C659 1.523 . S
H661 C636 0.950 . S
H662 C638 0.950 . S
H663 C639 0.949 . S
H664 C641 0.950 . S
H665 C643 0.950 . S
C666 C667 1.349 . S
C666 C668 1.327 . S
C666 H691 0.950 . S
C667 C666 1.349 . S
C667 C683 1.349 . S
C668 C666 1.327 . S
C668 C687 1.429 . S
C668 H692 0.950 . S
C669 C686 1.574 1_545 S
C669 C688 1.368 . S
C669 H693 0.949 . S
H670 C674 0.949 . S
C671 C672 1.349 . S
C671 C673 1.327 . S
C671 H694 0.950 . S
C672 C671 1.349 . S
C672 C684 1.349 . S
C673 C671 1.327 . S
C673 C689 1.429 . S
C673 H695 0.950 . S
C674 H670 0.949 . S
C674 C682 1.574 1_565 S
C674 C690 1.368 . S
H675 C683 0.950 . S
H676 C681 0.950 . S
H677 C682 0.949 . S
H678 C684 0.950 . S
H679 C685 0.950 . S
H680 C686 0.949 . S
C681 H676 0.950 . S
C681 C683 1.327 . S
C681 C687 1.429 . S
C682 C674 1.574 1_545 S
C682 H677 0.949 . S
C682 C688 1.368 . S
C683 C667 1.349 . S
C683 H675 0.950 . S
C683 C681 1.327 . S
C684 C672 1.349 . S
C684 H678 0.950 . S
C684 C685 1.327 . S
C685 H679 0.950 . S
C685 C684 1.327 . S
C685 C689 1.429 . S
C686 C669 1.574 1_565 S
C686 H680 0.949 . S
C686 C690 1.368 . S
C687 C668 1.429 . S
C687 C681 1.429 . S
C687 C688 1.523 . S
C688 C669 1.368 . S
C688 C682 1.368 . S
C688 C687 1.523 . S
C689 C673 1.429 . S
C689 C685 1.429 . S
C689 C690 1.523 . S
C690 C674 1.368 . S
C690 C686 1.368 . S
C690 C689 1.523 . S
H691 C666 0.950 . S
H692 C668 0.950 . S
H693 C669 0.949 . S
H694 C671 0.950 . S
H695 C673 0.950 . S
C696 C697 1.349 . S
C696 C698 1.327 . S
C696 H721 0.950 . S
C697 C696 1.349 . S
C697 C713 1.349 . S
C698 C696 1.327 . S
C698 C717 1.429 . S
C698 H722 0.950 . S
C699 C716 1.574 1_455 S
C699 C718 1.368 . S
C699 H723 0.949 . S
H700 C704 0.949 . S
C701 C702 1.349 . S
C701 C703 1.327 . S
C701 H724 0.950 . S
C702 C701 1.349 . S
C702 C714 1.349 . S
C703 C701 1.327 . S
C703 C719 1.429 . S
C703 H725 0.950 . S
C704 H700 0.949 . S
C704 C712 1.574 1_655 S
C704 C720 1.368 . S
H705 C713 0.950 . S
H706 C711 0.950 . S
H707 C712 0.949 . S
H708 C714 0.950 . S
H709 C715 0.950 . S
H710 C716 0.949 . S
C711 H706 0.950 . S
C711 C713 1.327 . S
C711 C717 1.429 . S
C712 C704 1.574 1_455 S
C712 H707 0.949 . S
C712 C718 1.368 . S
C713 C697 1.349 . S
C713 H705 0.950 . S
C713 C711 1.327 . S
C714 C702 1.349 . S
C714 H708 0.950 . S
C714 C715 1.327 . S
C715 H709 0.950 . S
C715 C714 1.327 . S
C715 C719 1.429 . S
C716 C699 1.574 1_655 S
C716 H710 0.949 . S
C716 C720 1.368 . S
C717 C698 1.429 . S
C717 C711 1.429 . S
C717 C718 1.523 . S
C718 C699 1.368 . S
C718 C712 1.368 . S
C718 C717 1.523 . S
C719 C703 1.429 . S
C719 C715 1.429 . S
C719 C720 1.523 . S
C720 C704 1.368 . S
C720 C716 1.368 . S
C720 C719 1.523 . S
H721 C696 0.950 . S
H722 C698 0.950 . S
H723 C699 0.949 . S
H724 C701 0.950 . S
H725 C703 0.950 . S
C726 C727 1.349 . S
C726 C728 1.327 . S
C726 H751 0.950 . S
C727 C726 1.349 . S
C727 C743 1.349 . S
C728 C726 1.327 . S
C728 C747 1.429 . S
C728 H752 0.950 . S
C729 C746 1.574 . S
C729 C748 1.368 . S
C729 H753 0.949 . S
H730 C734 0.949 . S
C731 C732 1.349 . S
C731 C733 1.327 . S
C731 H754 0.950 . S
C732 C731 1.349 . S
C732 C744 1.349 . S
C733 C731 1.327 . S
C733 C749 1.429 . S
C733 H755 0.950 . S
C734 H730 0.949 . S
C734 C742 1.574 . S
C734 C750 1.368 . S
H735 C743 0.950 . S
H736 C741 0.950 . S
H737 C742 0.949 . S
H738 C744 0.950 . S
H739 C745 0.950 . S
H740 C746 0.949 . S
C741 H736 0.950 . S
C741 C743 1.327 . S
C741 C747 1.429 . S
C742 C734 1.574 . S
C742 H737 0.949 . S
C742 C748 1.368 . S
C743 C727 1.349 . S
C743 H735 0.950 . S
C743 C741 1.327 . S
C744 C732 1.349 . S
C744 H738 0.950 . S
C744 C745 1.327 . S
C745 H739 0.950 . S
C745 C744 1.327 . S
C745 C749 1.429 . S
C746 C729 1.574 . S
C746 H740 0.949 . S
C746 C750 1.368 . S
C747 C728 1.429 . S
C747 C741 1.429 . S
C747 C748 1.523 . S
C748 C729 1.368 . S
C748 C742 1.368 . S
C748 C747 1.523 . S
C749 C733 1.429 . S
C749 C745 1.429 . S
C749 C750 1.523 . S
C750 C734 1.368 . S
C750 C746 1.368 . S
C750 C749 1.523 . S
H751 C726 0.950 . S
H752 C728 0.950 . S
H753 C729 0.949 . S
H754 C731 0.950 . S
H755 C733 0.950 . S
C756 C757 1.349 . S
C756 C758 1.327 . S
C756 H781 0.950 . S
C757 C756 1.349 . S
C757 C773 1.349 . S
C758 C756 1.327 . S
C758 C777 1.429 . S
C758 H782 0.950 . S
C759 C776 1.574 . S
C759 C778 1.368 . S
C759 H783 0.949 . S
H760 C764 0.949 . S
C761 C762 1.349 . S
C761 C763 1.327 . S
C761 H784 0.950 . S
C762 C761 1.349 . S
C762 C774 1.349 . S
C763 C761 1.327 . S
C763 C779 1.429 . S
C763 H785 0.950 . S
C764 H760 0.949 . S
C764 C772 1.574 . S
C764 C780 1.368 . S
H765 C773 0.950 . S
H766 C771 0.950 . S
H767 C772 0.949 . S
H768 C774 0.950 . S
H769 C775 0.950 . S
H770 C776 0.949 . S
C771 H766 0.950 . S
C771 C773 1.327 . S
C771 C777 1.429 . S
C772 C764 1.574 . S
C772 H767 0.949 . S
C772 C778 1.368 1_565 S
C773 C757 1.349 . S
C773 H765 0.950 . S
C773 C771 1.327 . S
C774 C762 1.349 . S
C774 H768 0.950 . S
C774 C775 1.327 . S
C775 H769 0.950 . S
C775 C774 1.327 . S
C775 C779 1.429 . S
C776 C759 1.574 . S
C776 H770 0.949 . S
C776 C780 1.368 1_545 S
C777 C758 1.429 . S
C777 C771 1.429 . S
C777 C778 1.523 . S
C778 C759 1.368 . S
C778 C772 1.368 1_545 S
C778 C777 1.523 . S
C779 C763 1.429 . S
C779 C775 1.429 . S
C779 C780 1.523 . S
C780 C764 1.368 . S
C780 C776 1.368 1_565 S
C780 C779 1.523 . S
H781 C756 0.950 . S
H782 C758 0.950 . S
H783 C759 0.949 . S
H784 C761 0.950 . S
H785 C763 0.950 . S
C786 C787 1.349 . S
C786 C788 1.327 . S
C786 H811 0.950 . S
C787 C786 1.349 . S
C787 C803 1.349 . S
C788 C786 1.327 . S
C788 C807 1.429 . S
C788 H812 0.950 . S
C789 C806 1.574 1_545 S
C789 C808 1.368 1_655 S
C789 H813 0.949 . S
H790 C794 0.949 . S
C791 C792 1.349 . S
C791 C793 1.327 . S
C791 H814 0.950 . S
C792 C791 1.349 . S
C792 C804 1.349 . S
C793 C791 1.327 . S
C793 C809 1.429 . S
C793 H815 0.950 . S
C794 H790 0.949 . S
C794 C802 1.574 1_565 S
C794 C810 1.368 1_455 S
H795 C803 0.950 . S
H796 C801 0.950 . S
H797 C802 0.949 . S
H798 C804 0.950 . S
H799 C805 0.950 . S
H800 C806 0.949 . S
C801 H796 0.950 . S
C801 C803 1.327 . S
C801 C807 1.429 . S
C802 C794 1.574 1_545 S
C802 H797 0.949 . S
C802 C808 1.368 . S
C803 C787 1.349 . S
C803 H795 0.950 . S
C803 C801 1.327 . S
C804 C792 1.349 . S
C804 H798 0.950 . S
C804 C805 1.327 . S
C805 H799 0.950 . S
C805 C804 1.327 . S
C805 C809 1.429 . S
C806 C789 1.574 1_565 S
C806 H800 0.949 . S
C806 C810 1.368 . S
C807 C788 1.429 . S
C807 C801 1.429 . S
C807 C808 1.523 . S
C808 C789 1.368 1_455 S
C808 C802 1.368 . S
C808 C807 1.523 . S
C809 C793 1.429 . S
C809 C805 1.429 . S
C809 C810 1.523 . S
C810 C794 1.368 1_655 S
C810 C806 1.368 . S
C810 C809 1.523 . S
H811 C786 0.950 . S
H812 C788 0.950 . S
H813 C789 0.949 . S
H814 C791 0.950 . S
H815 C793 0.950 . S
C816 C817 1.349 . S
C816 C818 1.327 . S
C816 H841 0.950 . S
C817 C816 1.349 . S
C817 C833 1.349 . S
C818 C816 1.327 . S
C818 C837 1.429 . S
C818 H842 0.950 . S
C819 C836 1.574 . S
C819 C838 1.368 1_545 S
C819 H843 0.949 . S
H820 C824 0.949 . S
C821 C822 1.349 . S
C821 C823 1.327 . S
C821 H844 0.950 . S
C822 C821 1.349 . S
C822 C834 1.349 . S
C823 C821 1.327 . S
C823 C839 1.429 . S
C823 H845 0.950 . S
C824 H820 0.949 . S
C824 C832 1.574 . S
C824 C840 1.368 1_565 S
H825 C833 0.950 . S
H826 C831 0.950 . S
H827 C832 0.949 . S
H828 C834 0.950 . S
H829 C835 0.950 . S
H830 C836 0.949 . S
C831 H826 0.950 . S
C831 C833 1.327 . S
C831 C837 1.429 . S
C832 C824 1.574 . S
C832 H827 0.949 . S
C832 C838 1.368 . S
C833 C817 1.349 . S
C833 H825 0.950 . S
C833 C831 1.327 . S
C834 C822 1.349 . S
C834 H828 0.950 . S
C834 C835 1.327 . S
C835 H829 0.950 . S
C835 C834 1.327 . S
C835 C839 1.429 . S
C836 C819 1.574 . S
C836 H830 0.949 . S
C836 C840 1.368 . S
C837 C818 1.429 . S
C837 C831 1.429 . S
C837 C838 1.523 . S
C838 C819 1.368 1_565 S
C838 C832 1.368 . S
C838 C837 1.523 . S
C839 C823 1.429 . S
C839 C835 1.429 . S
C839 C840 1.523 . S
C840 C824 1.368 1_545 S
C840 C836 1.368 . S
C840 C839 1.523 . S
H841 C816 0.950 . S
H842 C818 0.950 . S
H843 C819 0.949 . S
H844 C821 0.950 . S
H845 C823 0.950 . S
C846 C847 1.349 . S
C846 C848 1.327 . S
C846 H871 0.950 . S
C847 C846 1.349 . S
C847 C863 1.349 . S
C848 C846 1.327 . S
C848 C867 1.429 . S
C848 H872 0.950 . S
C849 C866 1.574 1_565 S
C849 C868 1.368 . S
C849 H873 0.949 . S
H850 C854 0.949 . S
C851 C852 1.349 . S
C851 C853 1.327 . S
C851 H874 0.950 . S
C852 C851 1.349 . S
C852 C864 1.349 . S
C853 C851 1.327 . S
C853 C869 1.429 . S
C853 H875 0.950 . S
C854 H850 0.949 . S
C854 C862 1.574 1_545 S
C854 C870 1.368 . S
H855 C863 0.950 . S
H856 C861 0.950 . S
H857 C862 0.949 . S
H858 C864 0.950 . S
H859 C865 0.950 . S
H860 C866 0.949 . S
C861 H856 0.950 . S
C861 C863 1.327 . S
C861 C867 1.429 . S
C862 C854 1.574 1_565 S
C862 H857 0.949 . S
C862 C868 1.368 1_455 S
C863 C847 1.349 . S
C863 H855 0.950 . S
C863 C861 1.327 . S
C864 C852 1.349 . S
C864 H858 0.950 . S
C864 C865 1.327 . S
C865 H859 0.950 . S
C865 C864 1.327 . S
C865 C869 1.429 . S
C866 C849 1.574 1_545 S
C866 H860 0.949 . S
C866 C870 1.368 1_655 S
C867 C848 1.429 . S
C867 C861 1.429 . S
C867 C868 1.523 . S
C868 C849 1.368 . S
C868 C862 1.368 1_655 S
C868 C867 1.523 . S
C869 C853 1.429 . S
C869 C865 1.429 . S
C869 C870 1.523 . S
C870 C854 1.368 . S
C870 C866 1.368 1_455 S
C870 C869 1.523 . S
H871 C846 0.950 . S
H872 C848 0.950 . S
H873 C849 0.949 . S
H874 C851 0.950 . S
H875 C853 0.950 . S
C876 C877 1.349 . S
C876 C878 1.327 . S
C876 H901 0.950 . S
C877 C876 1.349 . S
C877 C893 1.349 . S
C878 C876 1.327 . S
C878 C897 1.429 . S
C878 H902 0.950 . S
C879 C896 1.574 1_455 S
C879 C898 1.368 . S
C879 H903 0.949 . S
H880 C884 0.949 . S
C881 C882 1.349 . S
C881 C883 1.327 . S
C881 H904 0.950 . S
C882 C881 1.349 . S
C882 C894 1.349 . S
C883 C881 1.327 . S
C883 C899 1.429 . S
C883 H905 0.950 . S
C884 H880 0.949 . S
C884 C892 1.574 1_655 S
C884 C900 1.368 . S
H885 C893 0.950 . S
H886 C891 0.950 . S
H887 C892 0.949 . S
H888 C894 0.950 . S
H889 C895 0.950 . S
H890 C896 0.949 . S
C891 H886 0.950 . S
C891 C893 1.327 . S
C891 C897 1.429 . S
C892 C884 1.574 1_455 S
C892 H887 0.949 . S
C892 C898 1.368 . S
C893 C877 1.349 . S
C893 H885 0.950 . S
C893 C891 1.327 . S
C894 C882 1.349 . S
C894 H888 0.950 . S
C894 C895 1.327 . S
C895 H889 0.950 . S
C895 C894 1.327 . S
C895 C899 1.429 . S
C896 C879 1.574 1_655 S
C896 H890 0.949 . S
C896 C900 1.368 . S
C897 C878 1.429 . S
C897 C891 1.429 . S
C897 C898 1.523 . S
C898 C879 1.368 . S
C898 C892 1.368 . S
C898 C897 1.523 . S
C899 C883 1.429 . S
C899 C895 1.429 . S
C899 C900 1.523 . S
C900 C884 1.368 . S
C900 C896 1.368 . S
C900 C899 1.523 . S
H901 C876 0.950 . S
H902 C878 0.950 . S
H903 C879 0.949 . S
H904 C881 0.950 . S
H905 C883 0.950 . S
C906 C907 1.349 . S
C906 C908 1.327 . S
C906 H931 0.950 . S
C907 C906 1.349 . S
C907 C923 1.349 . S
C908 C906 1.327 . S
C908 C927 1.429 . S
C908 H932 0.950 . S
C909 C926 1.574 . S
C909 C928 1.368 . S
C909 H933 0.949 . S
H910 C914 0.949 . S
C911 C912 1.349 . S
C911 C913 1.327 . S
C911 H934 0.950 . S
C912 C911 1.349 . S
C912 C924 1.349 . S
C913 C911 1.327 . S
C913 C929 1.429 . S
C913 H935 0.950 . S
C914 H910 0.949 . S
C914 C922 1.574 . S
C914 C930 1.368 . S
H915 C923 0.950 . S
H916 C921 0.950 . S
H917 C922 0.949 . S
H918 C924 0.950 . S
H919 C925 0.950 . S
H920 C926 0.949 . S
C921 H916 0.950 . S
C921 C923 1.327 . S
C921 C927 1.429 . S
C922 C914 1.574 . S
C922 H917 0.949 . S
C922 C928 1.368 . S
C923 C907 1.349 . S
C923 H915 0.950 . S
C923 C921 1.327 . S
C924 C912 1.349 . S
C924 H918 0.950 . S
C924 C925 1.327 . S
C925 H919 0.950 . S
C925 C924 1.327 . S
C925 C929 1.429 . S
C926 C909 1.574 . S
C926 H920 0.949 . S
C926 C930 1.368 . S
C927 C908 1.429 . S
C927 C921 1.429 . S
C927 C928 1.523 . S
C928 C909 1.368 . S
C928 C922 1.368 . S
C928 C927 1.523 . S
C929 C913 1.429 . S
C929 C925 1.429 . S
C929 C930 1.523 . S
C930 C914 1.368 . S
C930 C926 1.368 . S
C930 C929 1.523 . S
H931 C906 0.950 . S
H932 C908 0.950 . S
H933 C909 0.949 . S
H934 C911 0.950 . S
H935 C913 0.950 . S
C936 C937 1.349 . S
C936 C938 1.327 . S
C936 H961 0.950 . S
C937 C936 1.349 . S
C937 C953 1.349 . S
C938 C936 1.327 . S
C938 C957 1.429 . S
C938 H962 0.950 . S
C939 C956 1.574 . S
C939 C958 1.368 . S
C939 H963 0.949 . S
H940 C944 0.949 . S
C941 C942 1.349 . S
C941 C943 1.327 . S
C941 H964 0.950 . S
C942 C941 1.349 . S
C942 C954 1.349 . S
C943 C941 1.327 . S
C943 C959 1.429 . S
C943 H965 0.950 . S
C944 H940 0.949 . S
C944 C952 1.574 . S
C944 C960 1.368 . S
H945 C953 0.950 . S
H946 C951 0.950 . S
H947 C952 0.949 . S
H948 C954 0.950 . S
H949 C955 0.950 . S
H950 C956 0.949 . S
C951 H946 0.950 . S
C951 C953 1.327 . S
C951 C957 1.429 . S
C952 C944 1.574 . S
C952 H947 0.949 . S
C952 C958 1.368 . S
C953 C937 1.349 . S
C953 H945 0.950 . S
C953 C951 1.327 . S
C954 C942 1.349 . S
C954 H948 0.950 . S
C954 C955 1.327 . S
C955 H949 0.950 . S
C955 C954 1.327 . S
C955 C959 1.429 . S
C956 C939 1.574 . S
C956 H950 0.949 . S
C956 C960 1.368 . S
C957 C938 1.429 . S
C957 C951 1.429 . S
C957 C958 1.523 . S
C958 C939 1.368 . S
C958 C952 1.368 . S
C958 C957 1.523 . S
C959 C943 1.429 . S
C959 C955 1.429 . S
C959 C960 1.523 . S
C960 C944 1.368 . S
C960 C956 1.368 . S
C960 C959 1.523 . S
H961 C936 0.950 . S
H962 C938 0.950 . S
H963 C939 0.949 . S
H964 C941 0.950 . S
H965 C943 0.950 . S
C966 C967 1.349 . S
C966 C968 1.327 . S
C966 H991 0.950 . S
C967 C966 1.349 . S
C967 C983 1.349 . S
C968 C966 1.327 . S
C968 C987 1.429 . S
C968 H992 0.950 . S
C969 C986 1.574 1_565 S
C969 C988 1.368 . S
C969 H993 0.949 . S
H970 C974 0.949 . S
C971 C972 1.349 . S
C971 C973 1.327 . S
C971 H994 0.950 . S
C972 C971 1.349 . S
C972 C984 1.349 . S
C973 C971 1.327 . S
C973 C989 1.429 . S
C973 H995 0.950 . S
C974 H970 0.949 . S
C974 C982 1.574 1_545 S
C974 C990 1.368 . S
H975 C983 0.950 . S
H976 C981 0.950 . S
H977 C982 0.949 . S
H978 C984 0.950 . S
H979 C985 0.950 . S
H980 C986 0.949 . S
C981 H976 0.950 . S
C981 C983 1.327 . S
C981 C987 1.429 . S
C982 C974 1.574 1_565 S
C982 H977 0.949 . S
C982 C988 1.368 . S
C983 C967 1.349 . S
C983 H975 0.950 . S
C983 C981 1.327 . S
C984 C972 1.349 . S
C984 H978 0.950 . S
C984 C985 1.327 . S
C985 H979 0.950 . S
C985 C984 1.327 . S
C985 C989 1.429 . S
C986 C969 1.574 1_545 S
C986 H980 0.949 . S
C986 C990 1.368 . S
C987 C968 1.429 . S
C987 C981 1.429 . S
C987 C988 1.523 . S
C988 C969 1.368 . S
C988 C982 1.368 . S
C988 C987 1.523 . S
C989 C973 1.429 . S
C989 C985 1.429 . S
C989 C990 1.523 . S
C990 C974 1.368 . S
C990 C986 1.368 . S
C990 C989 1.523 . S
H991 C966 0.950 . S
H992 C968 0.950 . S
H993 C969 0.949 . S
H994 C971 0.950 . S
H995 C973 0.950 . S
C996 C997 1.349 . S
C996 C998 1.327 . S
C996 H1021 0.950 . S
C997 C996 1.349 . S
C997 C1013 1.349 . S
C998 C996 1.327 . S
C998 C1017 1.429 . S
C998 H1022 0.950 . S
C999 C1016 1.574 1_655 S
C999 C1018 1.368 . S
C999 H1023 0.949 . S
H1000 C1004 0.949 . S
C1001 C1002 1.349 . S
C1001 C1003 1.327 . S
C1001 H1024 0.950 . S
C1002 C1001 1.349 . S
C1002 C1014 1.349 . S
C1003 C1001 1.327 . S
C1003 C1019 1.429 . S
C1003 H1025 0.950 . S
C1004 H1000 0.949 . S
C1004 C1012 1.574 1_455 S
C1004 C1020 1.368 . S
H1005 C1013 0.950 . S
H1006 C1011 0.950 . S
H1007 C1012 0.949 . S
H1008 C1014 0.950 . S
H1009 C1015 0.950 . S
H1010 C1016 0.949 . S
C1011 H1006 0.950 . S
C1011 C1013 1.327 . S
C1011 C1017 1.429 . S
C1012 C1004 1.574 1_655 S
C1012 H1007 0.949 . S
C1012 C1018 1.368 1_545 S
C1013 C997 1.349 . S
C1013 H1005 0.950 . S
C1013 C1011 1.327 . S
C1014 C1002 1.349 . S
C1014 H1008 0.950 . S
C1014 C1015 1.327 . S
C1015 H1009 0.950 . S
C1015 C1014 1.327 . S
C1015 C1019 1.429 . S
C1016 C999 1.574 1_455 S
C1016 H1010 0.949 . S
C1016 C1020 1.368 1_565 S
C1017 C998 1.429 . S
C1017 C1011 1.429 . S
C1017 C1018 1.523 . S
C1018 C999 1.368 . S
C1018 C1012 1.368 1_565 S
C1018 C1017 1.523 . S
C1019 C1003 1.429 . S
C1019 C1015 1.429 . S
C1019 C1020 1.523 . S
C1020 C1004 1.368 . S
C1020 C1016 1.368 1_545 S
C1020 C1019 1.523 . S
H1021 C996 0.950 . S
H1022 C998 0.950 . S
H1023 C999 0.949 . S
H1024 C1001 0.950 . S
H1025 C1003 0.950 . S
C1026 C1027 1.349 . S
C1026 C1028 1.327 . S
C1026 H1051 0.950 . S
C1027 C1026 1.349 . S
C1027 C1043 1.349 . S
C1028 C1026 1.327 . S
C1028 C1047 1.429 . S
C1028 H1052 0.950 . S
C1029 C1046 1.574 . S
C1029 C1048 1.368 . S
C1029 H1053 0.949 . S
H1030 C1034 0.949 . S
C1031 C1032 1.349 . S
C1031 C1033 1.327 . S
C1031 H1054 0.950 . S
C1032 C1031 1.349 . S
C1032 C1044 1.349 . S
C1033 C1031 1.327 . S
C1033 C1049 1.429 . S
C1033 H1055 0.950 . S
C1034 H1030 0.949 . S
C1034 C1042 1.574 . S
C1034 C1050 1.368 . S
H1035 C1043 0.950 . S
H1036 C1041 0.950 . S
H1037 C1042 0.949 . S
H1038 C1044 0.950 . S
H1039 C1045 0.950 . S
H1040 C1046 0.949 . S
C1041 H1036 0.950 . S
C1041 C1043 1.327 . S
C1041 C1047 1.429 . S
C1042 C1034 1.574 . S
C1042 H1037 0.949 . S
C1042 C1048 1.368 1_655 S
C1043 C1027 1.349 . S
C1043 H1035 0.950 . S
C1043 C1041 1.327 . S
C1044 C1032 1.349 . S
C1044 H1038 0.950 . S
C1044 C1045 1.327 . S
C1045 H1039 0.950 . S
C1045 C1044 1.327 . S
C1045 C1049 1.429 . S
C1046 C1029 1.574 . S
C1046 H1040 0.949 . S
C1046 C1050 1.368 1_455 S
C1047 C1028 1.429 . S
C1047 C1041 1.429 . S
C1047 C1048 1.523 . S
C1048 C1029 1.368 . S
C1048 C1042 1.368 1_455 S
C1048 C1047 1.523 . S
C1049 C1033 1.429 . S
C1049 C1045 1.429 . S
C1049 C1050 1.523 . S
C1050 C1034 1.368 . S
C1050 C1046 1.368 1_655 S
C1050 C1049 1.523 . S
H1051 C1026 0.950 . S
H1052 C1028 0.950 . S
H1053 C1029 0.949 . S
H1054 C1031 0.950 . S
H1055 C1033 0.950 . S
C1056 C1057 1.349 . S
C1056 C1058 1.327 . S
C1056 H1081 0.950 . S
C1057 C1056 1.349 . S
C1057 C1073 1.349 . S
C1058 C1056 1.327 . S
C1058 C1077 1.429 . S
C1058 H1082 0.950 . S
C1059 C1076 1.574 . S
C1059 C1078 1.368 . S
C1059 H1083 0.949 . S
H1060 C1064 0.949 . S
C1061 C1062 1.349 . S
C1061 C1063 1.327 . S
C1061 H1084 0.950 . S
C1062 C1061 1.349 . S
C1062 C1074 1.349 . S
C1063 C1061 1.327 . S
C1063 C1079 1.429 . S
C1063 H1085 0.950 . S
C1064 H1060 0.949 . S
C1064 C1072 1.574 . S
C1064 C1080 1.368 . S
H1065 C1073 0.950 . S
H1066 C1071 0.950 . S
H1067 C1072 0.949 . S
H1068 C1074 0.950 . S
H1069 C1075 0.950 . S
H1070 C1076 0.949 . S
C1071 H1066 0.950 . S
C1071 C1073 1.327 . S
C1071 C1077 1.429 . S
C1072 C1064 1.574 . S
C1072 H1067 0.949 . S
C1072 C1078 1.368 . S
C1073 C1057 1.349 . S
C1073 H1065 0.950 . S
C1073 C1071 1.327 . S
C1074 C1062 1.349 . S
C1074 H1068 0.950 . S
C1074 C1075 1.327 . S
C1075 H1069 0.950 . S
C1075 C1074 1.327 . S
C1075 C1079 1.429 . S
C1076 C1059 1.574 . S
C1076 H1070 0.949 . S
C1076 C1080 1.368 . S
C1077 C1058 1.429 . S
C1077 C1071 1.429 . S
C1077 C1078 1.523 . S
C1078 C1059 1.368 . S
C1078 C1072 1.368 . S
C1078 C1077 1.523 . S
C1079 C1063 1.429 . S
C1079 C1075 1.429 . S
C1079 C1080 1.523 . S
C1080 C1064 1.368 . S
C1080 C1076 1.368 . S
C1080 C1079 1.523 . S
H1081 C1056 0.950 . S
H1082 C1058 0.950 . S
H1083 C1059 0.949 . S
H1084 C1061 0.950 . S
H1085 C1063 0.950 . S
C1086 C1087 1.349 . S
C1086 C1088 1.327 . S
C1086 H1111 0.950 . S
C1087 C1086 1.349 . S
C1087 C1103 1.349 . S
C1088 C1086 1.327 . S
C1088 C1107 1.429 . S
C1088 H1112 0.950 . S
C1089 C1106 1.574 . S
C1089 C1108 1.368 . S
C1089 H1113 0.949 . S
H1090 C1094 0.949 . S
C1091 C1092 1.349 . S
C1091 C1093 1.327 . S
C1091 H1114 0.950 . S
C1092 C1091 1.349 . S
C1092 C1104 1.349 . S
C1093 C1091 1.327 . S
C1093 C1109 1.429 . S
C1093 H1115 0.950 . S
C1094 H1090 0.949 . S
C1094 C1102 1.574 . S
C1094 C1110 1.368 . S
H1095 C1103 0.950 . S
H1096 C1101 0.950 . S
H1097 C1102 0.949 . S
H1098 C1104 0.950 . S
H1099 C1105 0.950 . S
H1100 C1106 0.949 . S
C1101 H1096 0.950 . S
C1101 C1103 1.327 . S
C1101 C1107 1.429 . S
C1102 C1094 1.574 . S
C1102 H1097 0.949 . S
C1102 C1108 1.368 . S
C1103 C1087 1.349 . S
C1103 H1095 0.950 . S
C1103 C1101 1.327 . S
C1104 C1092 1.349 . S
C1104 H1098 0.950 . S
C1104 C1105 1.327 . S
C1105 H1099 0.950 . S
C1105 C1104 1.327 . S
C1105 C1109 1.429 . S
C1106 C1089 1.574 . S
C1106 H1100 0.949 . S
C1106 C1110 1.368 . S
C1107 C1088 1.429 . S
C1107 C1101 1.429 . S
C1107 C1108 1.523 . S
C1108 C1089 1.368 . S
C1108 C1102 1.368 . S
C1108 C1107 1.523 . S
C1109 C1093 1.429 . S
C1109 C1105 1.429 . S
C1109 C1110 1.523 . S
C1110 C1094 1.368 . S
C1110 C1106 1.368 . S
C1110 C1109 1.523 . S
H1111 C1086 0.950 . S
H1112 C1088 0.950 . S
H1113 C1089 0.949 . S
H1114 C1091 0.950 . S
H1115 C1093 0.950 . S
C1116 C1117 1.349 . S
C1116 C1118 1.327 . S
C1116 H1141 0.950 . S
C1117 C1116 1.349 . S
C1117 C1133 1.349 . S
C1118 C1116 1.327 . S
C1118 C1137 1.429 . S
C1118 H1142 0.950 . S
C1119 C1136 1.574 . S
C1119 C1138 1.368 . S
C1119 H1143 0.949 . S
H1120 C1124 0.949 . S
C1121 C1122 1.349 . S
C1121 C1123 1.327 . S
C1121 H1144 0.950 . S
C1122 C1121 1.349 . S
C1122 C1134 1.349 . S
C1123 C1121 1.327 . S
C1123 C1139 1.429 . S
C1123 H1145 0.950 . S
C1124 H1120 0.949 . S
C1124 C1132 1.574 . S
C1124 C1140 1.368 . S
H1125 C1133 0.950 . S
H1126 C1131 0.950 . S
H1127 C1132 0.949 . S
H1128 C1134 0.950 . S
H1129 C1135 0.950 . S
H1130 C1136 0.949 . S
C1131 H1126 0.950 . S
C1131 C1133 1.327 . S
C1131 C1137 1.429 . S
C1132 C1124 1.574 . S
C1132 H1127 0.949 . S
C1132 C1138 1.368 . S
C1133 C1117 1.349 . S
C1133 H1125 0.950 . S
C1133 C1131 1.327 . S
C1134 C1122 1.349 . S
C1134 H1128 0.950 . S
C1134 C1135 1.327 . S
C1135 H1129 0.950 . S
C1135 C1134 1.327 . S
C1135 C1139 1.429 . S
C1136 C1119 1.574 . S
C1136 H1130 0.949 . S
C1136 C1140 1.368 . S
C1137 C1118 1.429 . S
C1137 C1131 1.429 . S
C1137 C1138 1.523 . S
C1138 C1119 1.368 . S
C1138 C1132 1.368 . S
C1138 C1137 1.523 . S
C1139 C1123 1.429 . S
C1139 C1135 1.429 . S
C1139 C1140 1.523 . S
C1140 C1124 1.368 . S
C1140 C1136 1.368 . S
C1140 C1139 1.523 . S
H1141 C1116 0.950 . S
H1142 C1118 0.950 . S
H1143 C1119 0.949 . S
H1144 C1121 0.950 . S
H1145 C1123 0.950 . S
C1146 C1147 1.349 . S
C1146 C1148 1.327 . S
C1146 H1171 0.950 . S
C1147 C1146 1.349 . S
C1147 C1163 1.349 . S
C1148 C1146 1.327 . S
C1148 C1167 1.429 . S
C1148 H1172 0.950 . S
C1149 C1166 1.574 . S
C1149 C1168 1.368 . S
C1149 H1173 0.949 . S
H1150 C1154 0.949 . S
C1151 C1152 1.349 . S
C1151 C1153 1.327 . S
C1151 H1174 0.950 . S
C1152 C1151 1.349 . S
C1152 C1164 1.349 . S
C1153 C1151 1.327 . S
C1153 C1169 1.429 . S
C1153 H1175 0.950 . S
C1154 H1150 0.949 . S
C1154 C1162 1.574 . S
C1154 C1170 1.368 . S
H1155 C1163 0.950 . S
H1156 C1161 0.950 . S
H1157 C1162 0.949 . S
H1158 C1164 0.950 . S
H1159 C1165 0.950 . S
H1160 C1166 0.949 . S
C1161 H1156 0.950 . S
C1161 C1163 1.327 . S
C1161 C1167 1.429 . S
C1162 C1154 1.574 . S
C1162 H1157 0.949 . S
C1162 C1168 1.368 . S
C1163 C1147 1.349 . S
C1163 H1155 0.950 . S
C1163 C1161 1.327 . S
C1164 C1152 1.349 . S
C1164 H1158 0.950 . S
C1164 C1165 1.327 . S
C1165 H1159 0.950 . S
C1165 C1164 1.327 . S
C1165 C1169 1.429 . S
C1166 C1149 1.574 . S
C1166 H1160 0.949 . S
C1166 C1170 1.368 . S
C1167 C1148 1.429 . S
C1167 C1161 1.429 . S
C1167 C1168 1.523 . S
C1168 C1149 1.368 . S
C1168 C1162 1.368 . S
C1168 C1167 1.523 . S
C1169 C1153 1.429 . S
C1169 C1165 1.429 . S
C1169 C1170 1.523 . S
C1170 C1154 1.368 . S
C1170 C1166 1.368 . S
C1170 C1169 1.523 . S
H1171 C1146 0.950 . S
H1172 C1148 0.950 . S
H1173 C1149 0.949 . S
H1174 C1151 0.950 . S
H1175 C1153 0.950 . S
C1176 C1177 1.349 . S
C1176 C1178 1.327 . S
C1176 H1201 0.950 . S
C1177 C1176 1.349 . S
C1177 C1193 1.349 . S
C1178 C1176 1.327 . S
C1178 C1197 1.429 . S
C1178 H1202 0.950 . S
C1179 C1196 1.574 . S
C1179 C1198 1.368 . S
C1179 H1203 0.949 . S
H1180 C1184 0.949 . S
C1181 C1182 1.349 . S
C1181 C1183 1.327 . S
C1181 H1204 0.950 . S
C1182 C1181 1.349 . S
C1182 C1194 1.349 . S
C1183 C1181 1.327 . S
C1183 C1199 1.429 . S
C1183 H1205 0.950 . S
C1184 H1180 0.949 . S
C1184 C1192 1.574 . S
C1184 C1200 1.368 . S
H1185 C1193 0.950 . S
H1186 C1191 0.950 . S
H1187 C1192 0.949 . S
H1188 C1194 0.950 . S
H1189 C1195 0.950 . S
H1190 C1196 0.949 . S
C1191 H1186 0.950 . S
C1191 C1193 1.327 . S
C1191 C1197 1.429 . S
C1192 C1184 1.574 . S
C1192 H1187 0.949 . S
C1192 C1198 1.368 . S
C1193 C1177 1.349 . S
C1193 H1185 0.950 . S
C1193 C1191 1.327 . S
C1194 C1182 1.349 . S
C1194 H1188 0.950 . S
C1194 C1195 1.327 . S
C1195 H1189 0.950 . S
C1195 C1194 1.327 . S
C1195 C1199 1.429 . S
C1196 C1179 1.574 . S
C1196 H1190 0.949 . S
C1196 C1200 1.368 . S
C1197 C1178 1.429 . S
C1197 C1191 1.429 . S
C1197 C1198 1.523 . S
C1198 C1179 1.368 . S
C1198 C1192 1.368 . S
C1198 C1197 1.523 . S
C1199 C1183 1.429 . S
C1199 C1195 1.429 . S
C1199 C1200 1.523 . S
C1200 C1184 1.368 . S
C1200 C1196 1.368 . S
C1200 C1199 1.523 . S
H1201 C1176 0.950 . S
H1202 C1178 0.950 . S
H1203 C1179 0.949 . S
H1204 C1181 0.950 . S
H1205 C1183 0.950 . S
C1206 C1207 1.349 . S
C1206 C1208 1.327 . S
C1206 H1231 0.950 . S
C1207 C1206 1.349 . S
C1207 C1223 1.349 . S
C1208 C1206 1.327 . S
C1208 C1227 1.429 . S
C1208 H1232 0.950 . S
C1209 C1226 1.574 . S
C1209 C1228 1.368 . S
C1209 H1233 0.949 . S
H1210 C1214 0.949 . S
C1211 C1212 1.349 . S
C1211 C1213 1.327 . S
C1211 H1234 0.950 . S
C1212 C1211 1.349 . S
C1212 C1224 1.349 . S
C1213 C1211 1.327 . S
C1213 C1229 1.429 . S
C1213 H1235 0.950 . S
C1214 H1210 0.949 . S
C1214 C1222 1.574 . S
C1214 C1230 1.368 . S
H1215 C1223 0.950 . S
H1216 C1221 0.950 . S
H1217 C1222 0.949 . S
H1218 C1224 0.950 . S
H1219 C1225 0.950 . S
H1220 C1226 0.949 . S
C1221 H1216 0.950 . S
C1221 C1223 1.327 . S
C1221 C1227 1.429 . S
C1222 C1214 1.574 . S
C1222 H1217 0.949 . S
C1222 C1228 1.368 . S
C1223 C1207 1.349 . S
C1223 H1215 0.950 . S
C1223 C1221 1.327 . S
C1224 C1212 1.349 . S
C1224 H1218 0.950 . S
C1224 C1225 1.327 . S
C1225 H1219 0.950 . S
C1225 C1224 1.327 . S
C1225 C1229 1.429 . S
C1226 C1209 1.574 . S
C1226 H1220 0.949 . S
C1226 C1230 1.368 . S
C1227 C1208 1.429 . S
C1227 C1221 1.429 . S
C1227 C1228 1.523 . S
C1228 C1209 1.368 . S
C1228 C1222 1.368 . S
C1228 C1227 1.523 . S
C1229 C1213 1.429 . S
C1229 C1225 1.429 . S
C1229 C1230 1.523 . S
C1230 C1214 1.368 . S
C1230 C1226 1.368 . S
C1230 C1229 1.523 . S
H1231 C1206 0.950 . S
H1232 C1208 0.950 . S
H1233 C1209 0.949 . S
H1234 C1211 0.950 . S
H1235 C1213 0.950 . S
C1236 C1237 1.349 . S
C1236 C1238 1.327 . S
C1236 H1261 0.950 . S
C1237 C1236 1.349 . S
C1237 C1253 1.349 . S
C1238 C1236 1.327 . S
C1238 C1257 1.429 . S
C1238 H1262 0.950 . S
C1239 C1256 1.574 . S
C1239 C1258 1.368 . S
C1239 H1263 0.949 . S
H1240 C1244 0.949 . S
C1241 C1242 1.349 . S
C1241 C1243 1.327 . S
C1241 H1264 0.950 . S
C1242 C1241 1.349 . S
C1242 C1254 1.349 . S
C1243 C1241 1.327 . S
C1243 C1259 1.429 . S
C1243 H1265 0.950 . S
C1244 H1240 0.949 . S
C1244 C1252 1.574 . S
C1244 C1260 1.368 . S
H1245 C1253 0.950 . S
H1246 C1251 0.950 . S
H1247 C1252 0.949 . S
H1248 C1254 0.950 . S
H1249 C1255 0.950 . S
H1250 C1256 0.949 . S
C1251 H1246 0.950 . S
C1251 C1253 1.327 . S
C1251 C1257 1.429 . S
C1252 C1244 1.574 . S
C1252 H1247 0.949 . S
C1252 C1258 1.368 . S
C1253 C1237 1.349 . S
C1253 H1245 0.950 . S
C1253 C1251 1.327 . S
C1254 C1242 1.349 . S
C1254 H1248 0.950 . S
C1254 C1255 1.327 . S
C1255 H1249 0.950 . S
C1255 C1254 1.327 . S
C1255 C1259 1.429 . S
C1256 C1239 1.574 . S
C1256 H1250 0.949 . S
C1256 C1260 1.368 . S
C1257 C1238 1.429 . S
C1257 C1251 1.429 . S
C1257 C1258 1.523 . S
C1258 C1239 1.368 . S
C1258 C1252 1.368 . S
C1258 C1257 1.523 . S
C1259 C1243 1.429 . S
C1259 C1255 1.429 . S
C1259 C1260 1.523 . S
C1260 C1244 1.368 . S
C1260 C1256 1.368 . S
C1260 C1259 1.523 . S
H1261 C1236 0.950 . S
H1262 C1238 0.950 . S
H1263 C1239 0.949 . S
H1264 C1241 0.950 . S
H1265 C1243 0.950 . S
C1266 C1267 1.349 . S
C1266 C1268 1.327 . S
C1266 H1291 0.950 . S
C1267 C1266 1.349 . S
C1267 C1283 1.349 . S
C1268 C1266 1.327 . S
C1268 C1287 1.429 . S
C1268 H1292 0.950 . S
C1269 C1286 1.574 . S
C1269 C1288 1.368 . S
C1269 H1293 0.949 . S
H1270 C1274 0.949 . S
C1271 C1272 1.349 . S
C1271 C1273 1.327 . S
C1271 H1294 0.950 . S
C1272 C1271 1.349 . S
C1272 C1284 1.349 . S
C1273 C1271 1.327 . S
C1273 C1289 1.429 . S
C1273 H1295 0.950 . S
C1274 H1270 0.949 . S
C1274 C1282 1.574 . S
C1274 C1290 1.368 . S
H1275 C1283 0.950 . S
H1276 C1281 0.950 . S
H1277 C1282 0.949 . S
H1278 C1284 0.950 . S
H1279 C1285 0.950 . S
H1280 C1286 0.949 . S
C1281 H1276 0.950 . S
C1281 C1283 1.327 . S
C1281 C1287 1.429 . S
C1282 C1274 1.574 . S
C1282 H1277 0.949 . S
C1282 C1288 1.368 . S
C1283 C1267 1.349 . S
C1283 H1275 0.950 . S
C1283 C1281 1.327 . S
C1284 C1272 1.349 . S
C1284 H1278 0.950 . S
C1284 C1285 1.327 . S
C1285 H1279 0.950 . S
C1285 C1284 1.327 . S
C1285 C1289 1.429 . S
C1286 C1269 1.574 . S
C1286 H1280 0.949 . S
C1286 C1290 1.368 . S
C1287 C1268 1.429 . S
C1287 C1281 1.429 . S
C1287 C1288 1.523 . S
C1288 C1269 1.368 . S
C1288 C1282 1.368 . S
C1288 C1287 1.523 . S
C1289 C1273 1.429 . S
C1289 C1285 1.429 . S
C1289 C1290 1.523 . S
C1290 C1274 1.368 . S
C1290 C1286 1.368 . S
C1290 C1289 1.523 . S
H1291 C1266 0.950 . S
H1292 C1268 0.950 . S
H1293 C1269 0.949 . S
H1294 C1271 0.950 . S
H1295 C1273 0.950 . S
C1296 C1297 1.349 . S
C1296 C1298 1.327 . S
C1296 H1321 0.950 . S
C1297 C1296 1.349 . S
C1297 C1313 1.349 . S
C1298 C1296 1.327 . S
C1298 C1317 1.429 . S
C1298 H1322 0.950 . S
C1299 C1316 1.574 . S
C1299 C1318 1.368 . S
C1299 H1323 0.949 . S
H1300 C1304 0.949 . S
C1301 C1302 1.349 . S
C1301 C1303 1.327 . S
C1301 H1324 0.950 . S
C1302 C1301 1.349 . S
C1302 C1314 1.349 . S
C1303 C1301 1.327 . S
C1303 C1319 1.429 . S
C1303 H1325 0.950 . S
C1304 H1300 0.949 . S
C1304 C1312 1.574 . S
C1304 C1320 1.368 . S
H1305 C1313 0.950 . S
H1306 C1311 0.950 . S
H1307 C1312 0.949 . S
H1308 C1314 0.950 . S
H1309 C1315 0.950 . S
H1310 C1316 0.949 . S
C1311 H1306 0.950 . S
C1311 C1313 1.327 . S
C1311 C1317 1.429 . S
C1312 C1304 1.574 . S
C1312 H1307 0.949 . S
C1312 C1318 1.368 . S
C1313 C1297 1.349 . S
C1313 H1305 0.950 . S
C1313 C1311 1.327 . S
C1314 C1302 1.349 . S
C1314 H1308 0.950 . S
C1314 C1315 1.327 . S
C1315 H1309 0.950 . S
C1315 C1314 1.327 . S
C1315 C1319 1.429 . S
C1316 C1299 1.574 . S
C1316 H1310 0.949 . S
C1316 C1320 1.368 . S
C1317 C1298 1.429 . S
C1317 C1311 1.429 . S
C1317 C1318 1.523 . S
C1318 C1299 1.368 . S
C1318 C1312 1.368 . S
C1318 C1317 1.523 . S
C1319 C1303 1.429 . S
C1319 C1315 1.429 . S
C1319 C1320 1.523 . S
C1320 C1304 1.368 . S
C1320 C1316 1.368 . S
C1320 C1319 1.523 . S
H1321 C1296 0.950 . S
H1322 C1298 0.950 . S
H1323 C1299 0.949 . S
H1324 C1301 0.950 . S
H1325 C1303 0.950 . S
C1326 C1327 1.349 . S
C1326 C1328 1.327 . S
C1326 H1351 0.950 . S
C1327 C1326 1.349 . S
C1327 C1343 1.349 . S
C1328 C1326 1.327 . S
C1328 C1347 1.429 . S
C1328 H1352 0.950 . S
C1329 C1346 1.574 . S
C1329 C1348 1.368 . S
C1329 H1353 0.949 . S
H1330 C1334 0.949 . S
C1331 C1332 1.349 . S
C1331 C1333 1.327 . S
C1331 H1354 0.950 . S
C1332 C1331 1.349 . S
C1332 C1344 1.349 . S
C1333 C1331 1.327 . S
C1333 C1349 1.429 . S
C1333 H1355 0.950 . S
C1334 H1330 0.949 . S
C1334 C1342 1.574 . S
C1334 C1350 1.368 . S
H1335 C1343 0.950 . S
H1336 C1341 0.950 . S
H1337 C1342 0.949 . S
H1338 C1344 0.950 . S
H1339 C1345 0.950 . S
H1340 C1346 0.949 . S
C1341 H1336 0.950 . S
C1341 C1343 1.327 . S
C1341 C1347 1.429 . S
C1342 C1334 1.574 . S
C1342 H1337 0.949 . S
C1342 C1348 1.368 . S
C1343 C1327 1.349 . S
C1343 H1335 0.950 . S
C1343 C1341 1.327 . S
C1344 C1332 1.349 . S
C1344 H1338 0.950 . S
C1344 C1345 1.327 . S
C1345 H1339 0.950 . S
C1345 C1344 1.327 . S
C1345 C1349 1.429 . S
C1346 C1329 1.574 . S
C1346 H1340 0.949 . S
C1346 C1350 1.368 . S
C1347 C1328 1.429 . S
C1347 C1341 1.429 . S
C1347 C1348 1.523 . S
C1348 C1329 1.368 . S
C1348 C1342 1.368 . S
C1348 C1347 1.523 . S
C1349 C1333 1.429 . S
C1349 C1345 1.429 . S
C1349 C1350 1.523 . S
C1350 C1334 1.368 . S
C1350 C1346 1.368 . S
C1350 C1349 1.523 . S
H1351 C1326 0.950 . S
H1352 C1328 0.950 . S
H1353 C1329 0.949 . S
H1354 C1331 0.950 . S
H1355 C1333 0.950 . S
C1356 C1357 1.349 . S
C1356 C1358 1.327 . S
C1356 H1381 0.950 . S
C1357 C1356 1.349 . S
C1357 C1373 1.349 . S
C1358 C1356 1.327 . S
C1358 C1377 1.429 . S
C1358 H1382 0.950 . S
C1359 C1376 1.574 . S
C1359 C1378 1.368 . S
C1359 H1383 0.949 . S
H1360 C1364 0.949 . S
C1361 C1362 1.349 . S
C1361 C1363 1.327 . S
C1361 H1384 0.950 . S
C1362 C1361 1.349 . S
C1362 C1374 1.349 . S
C1363 C1361 1.327 . S
C1363 C1379 1.429 . S
C1363 H1385 0.950 . S
C1364 H1360 0.949 . S
C1364 C1372 1.574 . S
C1364 C1380 1.368 . S
H1365 C1373 0.950 . S
H1366 C1371 0.950 . S
H1367 C1372 0.949 . S
H1368 C1374 0.950 . S
H1369 C1375 0.950 . S
H1370 C1376 0.949 . S
C1371 H1366 0.950 . S
C1371 C1373 1.327 . S
C1371 C1377 1.429 . S
C1372 C1364 1.574 . S
C1372 H1367 0.949 . S
C1372 C1378 1.368 . S
C1373 C1357 1.349 . S
C1373 H1365 0.950 . S
C1373 C1371 1.327 . S
C1374 C1362 1.349 . S
C1374 H1368 0.950 . S
C1374 C1375 1.327 . S
C1375 H1369 0.950 . S
C1375 C1374 1.327 . S
C1375 C1379 1.429 . S
C1376 C1359 1.574 . S
C1376 H1370 0.949 . S
C1376 C1380 1.368 . S
C1377 C1358 1.429 . S
C1377 C1371 1.429 . S
C1377 C1378 1.523 . S
C1378 C1359 1.368 . S
C1378 C1372 1.368 . S
C1378 C1377 1.523 . S
C1379 C1363 1.429 . S
C1379 C1375 1.429 . S
C1379 C1380 1.523 . S
C1380 C1364 1.368 . S
C1380 C1376 1.368 . S
C1380 C1379 1.523 . S
H1381 C1356 0.950 . S
H1382 C1358 0.950 . S
H1383 C1359 0.949 . S
H1384 C1361 0.950 . S
H1385 C1363 0.950 . S
C1386 C1387 1.349 . S
C1386 C1388 1.327 . S
C1386 H1411 0.950 . S
C1387 C1386 1.349 . S
C1387 C1403 1.349 . S
C1388 C1386 1.327 . S
C1388 C1407 1.429 . S
C1388 H1412 0.950 . S
C1389 C1406 1.574 1_556 S
C1389 C1408 1.368 . S
C1389 H1413 0.949 . S
H1390 C1394 0.949 . S
C1391 C1392 1.349 . S
C1391 C1393 1.327 . S
C1391 H1414 0.950 . S
C1392 C1391 1.349 . S
C1392 C1404 1.349 . S
C1393 C1391 1.327 . S
C1393 C1409 1.429 . S
C1393 H1415 0.950 . S
C1394 H1390 0.949 . S
C1394 C1402 1.574 1_554 S
C1394 C1410 1.368 . S
H1395 C1403 0.950 . S
H1396 C1401 0.950 . S
H1397 C1402 0.949 . S
H1398 C1404 0.950 . S
H1399 C1405 0.950 . S
H1400 C1406 0.949 . S
C1401 H1396 0.950 . S
C1401 C1403 1.327 . S
C1401 C1407 1.429 . S
C1402 C1394 1.574 1_556 S
C1402 H1397 0.949 . S
C1402 C1408 1.368 . S
C1403 C1387 1.349 . S
C1403 H1395 0.950 . S
C1403 C1401 1.327 . S
C1404 C1392 1.349 . S
C1404 H1398 0.950 . S
C1404 C1405 1.327 . S
C1405 H1399 0.950 . S
C1405 C1404 1.327 . S
C1405 C1409 1.429 . S
C1406 C1389 1.574 1_554 S
C1406 H1400 0.949 . S
C1406 C1410 1.368 . S
C1407 C1388 1.429 . S
C1407 C1401 1.429 . S
C1407 C1408 1.523 . S
C1408 C1389 1.368 . S
C1408 C1402 1.368 . S
C1408 C1407 1.523 . S
C1409 C1393 1.429 . S
C1409 C1405 1.429 . S
C1409 C1410 1.523 . S
C1410 C1394 1.368 . S
C1410 C1406 1.368 . S
C1410 C1409 1.523 . S
H1411 C1386 0.950 . S
H1412 C1388 0.950 . S
H1413 C1389 0.949 . S
H1414 C1391 0.950 . S
H1415 C1393 0.950 . S
C1416 C1417 1.349 . S
C1416 C1418 1.327 . S
C1416 H1441 0.950 . S
C1417 C1416 1.349 . S
C1417 C1433 1.349 . S
C1418 C1416 1.327 . S
C1418 C1437 1.429 . S
C1418 H1442 0.950 . S
C1419 C1436 1.574 1_554 S
C1419 C1438 1.368 . S
C1419 H1443 0.949 . S
H1420 C1424 0.949 . S
C1421 C1422 1.349 . S
C1421 C1423 1.327 . S
C1421 H1444 0.950 . S
C1422 C1421 1.349 . S
C1422 C1434 1.349 . S
C1423 C1421 1.327 . S
C1423 C1439 1.429 . S
C1423 H1445 0.950 . S
C1424 H1420 0.949 . S
C1424 C1432 1.574 1_556 S
C1424 C1440 1.368 . S
H1425 C1433 0.950 . S
H1426 C1431 0.950 . S
H1427 C1432 0.949 . S
H1428 C1434 0.950 . S
H1429 C1435 0.950 . S
H1430 C1436 0.949 . S
C1431 H1426 0.950 . S
C1431 C1433 1.327 . S
C1431 C1437 1.429 . S
C1432 C1424 1.574 1_554 S
C1432 H1427 0.949 . S
C1432 C1438 1.368 . S
C1433 C1417 1.349 . S
C1433 H1425 0.950 . S
C1433 C1431 1.327 . S
C1434 C1422 1.349 . S
C1434 H1428 0.950 . S
C1434 C1435 1.327 . S
C1435 H1429 0.950 . S
C1435 C1434 1.327 . S
C1435 C1439 1.429 . S
C1436 C1419 1.574 1_556 S
C1436 H1430 0.949 . S
C1436 C1440 1.368 . S
C1437 C1418 1.429 . S
C1437 C1431 1.429 . S
C1437 C1438 1.523 . S
C1438 C1419 1.368 . S
C1438 C1432 1.368 . S
C1438 C1437 1.523 . S
C1439 C1423 1.429 . S
C1439 C1435 1.429 . S
C1439 C1440 1.523 . S
C1440 C1424 1.368 . S
C1440 C1436 1.368 . S
C1440 C1439 1.523 . S
H1441 C1416 0.950 . S
H1442 C1418 0.950 . S
H1443 C1419 0.949 . S
H1444 C1421 0.950 . S
H1445 C1423 0.950 . S
C1446 C1447 1.349 . S
C1446 C1448 1.327 . S
C1446 H1471 0.950 . S
C1447 C1446 1.349 . S
C1447 C1463 1.349 . S
C1448 C1446 1.327 . S
C1448 C1467 1.429 . S
C1448 H1472 0.950 . S
C1449 C1466 1.574 . S
C1449 C1468 1.368 . S
C1449 H1473 0.949 . S
H1450 C1454 0.949 . S
C1451 C1452 1.349 . S
C1451 C1453 1.327 . S
C1451 H1474 0.950 . S
C1452 C1451 1.349 . S
C1452 C1464 1.349 . S
C1453 C1451 1.327 . S
C1453 C1469 1.429 . S
C1453 H1475 0.950 . S
C1454 H1450 0.949 . S
C1454 C1462 1.574 . S
C1454 C1470 1.368 . S
H1455 C1463 0.950 . S
H1456 C1461 0.950 . S
H1457 C1462 0.949 . S
H1458 C1464 0.950 . S
H1459 C1465 0.950 . S
H1460 C1466 0.949 . S
C1461 H1456 0.950 . S
C1461 C1463 1.327 . S
C1461 C1467 1.429 . S
C1462 C1454 1.574 . S
C1462 H1457 0.949 . S
C1462 C1468 1.368 . S
C1463 C1447 1.349 . S
C1463 H1455 0.950 . S
C1463 C1461 1.327 . S
C1464 C1452 1.349 . S
C1464 H1458 0.950 . S
C1464 C1465 1.327 . S
C1465 H1459 0.950 . S
C1465 C1464 1.327 . S
C1465 C1469 1.429 . S
C1466 C1449 1.574 . S
C1466 H1460 0.949 . S
C1466 C1470 1.368 . S
C1467 C1448 1.429 . S
C1467 C1461 1.429 . S
C1467 C1468 1.523 . S
C1468 C1449 1.368 . S
C1468 C1462 1.368 . S
C1468 C1467 1.523 . S
C1469 C1453 1.429 . S
C1469 C1465 1.429 . S
C1469 C1470 1.523 . S
C1470 C1454 1.368 . S
C1470 C1466 1.368 . S
C1470 C1469 1.523 . S
H1471 C1446 0.950 . S
H1472 C1448 0.950 . S
H1473 C1449 0.949 . S
H1474 C1451 0.950 . S
H1475 C1453 0.950 . S
C1476 C1477 1.349 . S
C1476 C1478 1.327 . S
C1476 H1501 0.950 . S
C1477 C1476 1.349 . S
C1477 C1493 1.349 . S
C1478 C1476 1.327 . S
C1478 C1497 1.429 . S
C1478 H1502 0.950 . S
C1479 C1496 1.574 . S
C1479 C1498 1.368 . S
C1479 H1503 0.949 . S
H1480 C1484 0.949 . S
C1481 C1482 1.349 . S
C1481 C1483 1.327 . S
C1481 H1504 0.950 . S
C1482 C1481 1.349 . S
C1482 C1494 1.349 . S
C1483 C1481 1.327 . S
C1483 C1499 1.429 . S
C1483 H1505 0.950 . S
C1484 H1480 0.949 . S
C1484 C1492 1.574 . S
C1484 C1500 1.368 . S
H1485 C1493 0.950 . S
H1486 C1491 0.950 . S
H1487 C1492 0.949 . S
H1488 C1494 0.950 . S
H1489 C1495 0.950 . S
H1490 C1496 0.949 . S
C1491 H1486 0.950 . S
C1491 C1493 1.327 . S
C1491 C1497 1.429 . S
C1492 C1484 1.574 . S
C1492 H1487 0.949 . S
C1492 C1498 1.368 . S
C1493 C1477 1.349 . S
C1493 H1485 0.950 . S
C1493 C1491 1.327 . S
C1494 C1482 1.349 . S
C1494 H1488 0.950 . S
C1494 C1495 1.327 . S
C1495 H1489 0.950 . S
C1495 C1494 1.327 . S
C1495 C1499 1.429 . S
C1496 C1479 1.574 . S
C1496 H1490 0.949 . S
C1496 C1500 1.368 . S
C1497 C1478 1.429 . S
C1497 C1491 1.429 . S
C1497 C1498 1.523 . S
C1498 C1479 1.368 . S
C1498 C1492 1.368 . S
C1498 C1497 1.523 . S
C1499 C1483 1.429 . S
C1499 C1495 1.429 . S
C1499 C1500 1.523 . S
C1500 C1484 1.368 . S
C1500 C1496 1.368 . S
C1500 C1499 1.523 . S
H1501 C1476 0.950 . S
H1502 C1478 0.950 . S
H1503 C1479 0.949 . S
H1504 C1481 0.950 . S
H1505 C1483 0.950 . S
C1506 C1507 1.349 . S
C1506 C1508 1.327 . S
C1506 H1531 0.950 . S
C1507 C1506 1.349 . S
C1507 C1523 1.349 . S
C1508 C1506 1.327 . S
C1508 C1527 1.429 . S
C1508 H1532 0.950 . S
C1509 C1526 1.574 . S
C1509 C1528 1.368 . S
C1509 H1533 0.949 . S
H1510 C1514 0.949 . S
C1511 C1512 1.349 . S
C1511 C1513 1.327 . S
C1511 H1534 0.950 . S
C1512 C1511 1.349 . S
C1512 C1524 1.349 . S
C1513 C1511 1.327 . S
C1513 C1529 1.429 . S
C1513 H1535 0.950 . S
C1514 H1510 0.949 . S
C1514 C1522 1.574 . S
C1514 C1530 1.368 . S
H1515 C1523 0.950 . S
H1516 C1521 0.950 . S
H1517 C1522 0.949 . S
H1518 C1524 0.950 . S
H1519 C1525 0.950 . S
H1520 C1526 0.949 . S
C1521 H1516 0.950 . S
C1521 C1523 1.327 . S
C1521 C1527 1.429 . S
C1522 C1514 1.574 . S
C1522 H1517 0.949 . S
C1522 C1528 1.368 . S
C1523 C1507 1.349 . S
C1523 H1515 0.950 . S
C1523 C1521 1.327 . S
C1524 C1512 1.349 . S
C1524 H1518 0.950 . S
C1524 C1525 1.327 . S
C1525 H1519 0.950 . S
C1525 C1524 1.327 . S
C1525 C1529 1.429 . S
C1526 C1509 1.574 . S
C1526 H1520 0.949 . S
C1526 C1530 1.368 . S
C1527 C1508 1.429 . S
C1527 C1521 1.429 . S
C1527 C1528 1.523 . S
C1528 C1509 1.368 . S
C1528 C1522 1.368 . S
C1528 C1527 1.523 . S
C1529 C1513 1.429 . S
C1529 C1525 1.429 . S
C1529 C1530 1.523 . S
C1530 C1514 1.368 . S
C1530 C1526 1.368 . S
C1530 C1529 1.523 . S
H1531 C1506 0.950 . S
H1532 C1508 0.950 . S
H1533 C1509 0.949 . S
H1534 C1511 0.950 . S
H1535 C1513 0.950 . S
C577 C374 1.455 . S
C582 C14 1.455 . S
C607 C50 1.454 . S
C612 C410 1.454 . S
C637 C302 1.454 . S
C642 C86 1.454 . S
C667 C338 1.454 . S
C672 C122 1.454 . S
C697 C158 1.454 . S
C702 C518 1.454 . S
C727 C554 1.454 . S
C732 C194 1.454 . S
C757 C230 1.454 . S
C762 C446 1.454 . S
C787 C482 1.455 . S
C792 C266 1.455 . S
C817 C362 1.523 . S
C822 C2 1.523 . S
C847 C38 1.523 . S
C852 C398 1.523 . S
C877 C74 1.523 . S
C882 C290 1.523 . S
C907 C110 1.523 . S
C912 C326 1.523 . S
C937 C146 1.523 . S
C942 C506 1.523 . S
C967 C182 1.523 . S
C972 C542 1.523 . S
C997 C434 1.523 . S
C1002 C218 1.523 . S
C1027 C470 1.523 . S
C1032 C254 1.523 . S
C1057 C4 1.145 . S
C1062 C220 1.144 . S
C1087 C40 1.144 . S
C1092 C256 1.144 . S
C1117 C76 1.144 . S
C1122 C148 1.144 . S
C1147 C112 1.144 . S
C1152 C184 1.144 . S
C1177 C292 1.144 . S
C1182 C508 1.144 . S
C1207 C544 1.144 . S
C1212 C328 1.144 . S
C1237 C364 1.144 . S
C1242 C436 1.144 . S
C1267 C472 1.144 . S
C1272 C400 1.144 . S
C1297 C3 1.134 . S
C1302 C543 1.134 . S
C1327 C435 1.135 . S
C1332 C39 1.135 . S
C1357 C471 1.135 . S
C1362 C75 1.135 . S
C1387 C507 1.134 . S
C1392 C111 1.134 . S
C1417 C327 1.134 . S
C1422 C147 1.134 . S
C1447 C363 1.135 . S
C1452 C183 1.135 . S
C1477 C219 1.135 . S
C1482 C399 1.135 . S
C1507 C255 1.134 . S
C1512 C291 1.134 . S
