# Generated by pormake.
# Topology ukg, (4)-cn, num edge types: 1
# Building blocks:
#     Node 0, Type 0, BuildingBlock: QUQFOY_clean_sbu_1, # of connection points: 4
#     Node 1, Type 0, BuildingBlock: QUQFOY_clean_sbu_1, # of connection points: 4
#     Node 2, Type 0, BuildingBlock: QUQFOY_clean_sbu_1, # of connection points: 4
#     Node 3, Type 0, BuildingBlock: QUQFOY_clean_sbu_1, # of connection points: 4
#     Node 4, Type 0, BuildingBlock: QUQFOY_clean_sbu_1, # of connection points: 4
#     Node 5, Type 0, BuildingBlock: QUQFOY_clean_sbu_1, # of connection points: 4
#     Node 6, Type 0, BuildingBlock: QUQFOY_clean_sbu_1, # of connection points: 4
#     Node 7, Type 0, BuildingBlock: QUQFOY_clean_sbu_1, # of connection points: 4
#     Edge 8, Type (0, 0), BuildingBlock: XUDNAN_clean_linker_2, # of connection points: 2
#     Edge 9, Type (0, 0), BuildingBlock: XUDNAN_clean_linker_2, # of connection points: 2
#     Edge 10, Type (0, 0), BuildingBlock: XUDNAN_clean_linker_2, # of connection points: 2
#     Edge 11, Type (0, 0), BuildingBlock: XUDNAN_clean_linker_2, # of connection points: 2
#     Edge 12, Type (0, 0), BuildingBlock: XUDNAN_clean_linker_2, # of connection points: 2
#     Edge 13, Type (0, 0), BuildingBlock: XUDNAN_clean_linker_2, # of connection points: 2
#     Edge 14, Type (0, 0), BuildingBlock: XUDNAN_clean_linker_2, # of connection points: 2
#     Edge 15, Type (0, 0), BuildingBlock: XUDNAN_clean_linker_2, # of connection points: 2
#     Edge 16, Type (0, 0), BuildingBlock: XUDNAN_clean_linker_2, # of connection points: 2
#     Edge 17, Type (0, 0), BuildingBlock: XUDNAN_clean_linker_2, # of connection points: 2
#     Edge 18, Type (0, 0), BuildingBlock: XUDNAN_clean_linker_2, # of connection points: 2
#     Edge 19, Type (0, 0), BuildingBlock: XUDNAN_clean_linker_2, # of connection points: 2
#     Edge 20, Type (0, 0), BuildingBlock: XUDNAN_clean_linker_2, # of connection points: 2
#     Edge 21, Type (0, 0), BuildingBlock: XUDNAN_clean_linker_2, # of connection points: 2
#     Edge 22, Type (0, 0), BuildingBlock: XUDNAN_clean_linker_2, # of connection points: 2
#     Edge 23, Type (0, 0), BuildingBlock: XUDNAN_clean_linker_2, # of connection points: 2
# Relax obj value: 0.023
# Max RMSD: 0.118
# Mean RMSD: 0.118
data_MOF--net-ukg--node1-QUQFOY_clean_sbu_1--edge1-XUDNAN_clean_linker_2
_symmetry_space_group_name_H-M    P1
_symmetry_Int_Tables_number       1
_symmetry_cell_setting            triclinic
loop_
_symmetry_equiv_pos_as_xyz
'x, y, z'
_cell_length_a     32.22483
_cell_length_b     32.242653
_cell_length_c     37.216759
_cell_angle_alpha  90.050427
_cell_angle_beta   89.974899
_cell_angle_gamma 90.018005
loop_
_atom_site_label
_atom_site_type_symbol
_atom_site_fract_x
_atom_site_fract_y
_atom_site_fract_z
_atom_type_partial_charge
O0 O 0.97926 0.61064 0.21245 0.0
Cd1 Cd 0.0118 0.64083 0.17234 0.0
Cd2 Cd 0.06123 0.65414 0.23025 0.0
O3 O 0.02702 0.60844 0.25495 0.0
O4 O 0.99297 0.61453 0.12638 0.0
O5 O 0.0568 0.6084 0.14768 0.0
C6 C 0.02944 0.59821 0.12381 0.0
C7 C 0.13087 0.66787 0.24268 0.0
C8 C 0.99134 0.59848 0.24325 0.0
C9 C 0.01352 0.72636 0.19871 0.0
O10 O 0.03129 0.70941 0.22529 0.0
O11 O 0.00593 0.70531 0.17051 0.0
O12 O 0.10286 0.6697 0.26726 0.0
O13 O 0.12011 0.65411 0.21145 0.0
O14 O 0.38031 0.46516 0.69774 0.0
Cd15 Cd 0.3468 0.48535 0.65368 0.0
Cd16 Cd 0.33704 0.54848 0.69998 0.0
O17 O 0.38349 0.52235 0.73032 0.0
O18 O 0.36553 0.44727 0.61446 0.0
O19 O 0.37915 0.51439 0.61437 0.0
C20 C 0.384 0.47837 0.59969 0.0
C21 C 0.32773 0.6186 0.68783 0.0
C22 C 0.39355 0.48472 0.72514 0.0
C23 C 0.26294 0.49491 0.68454 0.0
O24 O 0.28121 0.51976 0.70569 0.0
O25 O 0.28222 0.47998 0.65759 0.0
O26 O 0.32519 0.60427 0.72009 0.0
O27 O 0.33972 0.59359 0.66271 0.0
O28 O 0.53424 0.89467 0.21097 0.0
Cd29 Cd 0.5017 0.86392 0.17116 0.0
Cd30 Cd 0.45269 0.85145 0.22918 0.0
O31 O 0.48633 0.89797 0.25331 0.0
O32 O 0.52022 0.88988 0.12499 0.0
O33 O 0.45644 0.89589 0.1465 0.0
C34 C 0.48368 0.90604 0.12249 0.0
C35 C 0.38325 0.83688 0.2418 0.0
C36 C 0.5221 0.90753 0.24157 0.0
C37 C 0.50125 0.77916 0.19867 0.0
O38 O 0.48358 0.79662 0.22509 0.0
O39 O 0.50804 0.79946 0.16994 0.0
O40 O 0.41125 0.83596 0.2664 0.0
O41 O 0.39383 0.8502 0.21039 0.0
O42 O 0.13164 0.03979 0.69741 0.0
Cd43 Cd 0.16522 0.01958 0.65334 0.0
Cd44 Cd 0.17501 0.95651 0.69967 0.0
O45 O 0.12855 0.98269 0.73004 0.0
O46 O 0.14656 0.0577 0.61421 0.0
O47 O 0.13301 0.99057 0.61391 0.0
C48 C 0.12818 0.02661 0.59932 0.0
C49 C 0.18437 0.88634 0.68765 0.0
C50 C 0.11843 0.02029 0.72485 0.0
C51 C 0.24908 0.01012 0.68417 0.0
O52 O 0.23084 0.98527 0.70531 0.0
O53 O 0.22979 0.02503 0.65725 0.0
O54 O 0.18691 0.90082 0.71987 0.0
O55 O 0.17236 0.91122 0.66249 0.0
O56 O 0.04348 0.37694 0.83963 0.0
Cd57 Cd 0.02338 0.34331 0.88366 0.0
Cd58 Cd 0.96017 0.33349 0.83747 0.0
O59 O 0.98623 0.37999 0.80715 0.0
O60 O 0.06151 0.36201 0.92284 0.0
O61 O 0.99433 0.37547 0.92311 0.0
C62 C 0.03039 0.38035 0.93773 0.0
C63 C 0.88999 0.32412 0.84958 0.0
C64 C 0.02386 0.39015 0.81227 0.0
C65 C 0.01386 0.2595 0.85271 0.0
O66 O 0.98894 0.27773 0.83164 0.0
O67 O 0.02883 0.27878 0.87965 0.0
O68 O 0.9044 0.32161 0.81733 0.0
O69 O 0.91495 0.33608 0.87473 0.0
O70 O 0.61512 0.52988 0.32596 0.0
Cd71 Cd 0.64528 0.497 0.36581 0.0
Cd72 Cd 0.65793 0.44802 0.30769 0.0
O73 O 0.61188 0.48219 0.28345 0.0
O74 O 0.61915 0.51563 0.41191 0.0
O75 O 0.61274 0.45197 0.39028 0.0
C76 C 0.60267 0.47922 0.41429 0.0
C77 C 0.67181 0.37852 0.2949 0.0
C78 C 0.60245 0.51795 0.29525 0.0
C79 C 0.73045 0.49576 0.33889 0.0
O80 O 0.71315 0.47824 0.31231 0.0
O81 O 0.70979 0.50286 0.36741 0.0
O82 O 0.67327 0.40661 0.27041 0.0
O83 O 0.65834 0.38911 0.32627 0.0
O84 O 0.46852 0.12813 0.83917 0.0
Cd85 Cd 0.48861 0.16168 0.88329 0.0
Cd86 Cd 0.55179 0.1716 0.83711 0.0
O87 O 0.5258 0.12511 0.80668 0.0
O88 O 0.45059 0.14278 0.92247 0.0
O89 O 0.51779 0.12942 0.92254 0.0
C90 C 0.48176 0.12441 0.9372 0.0
C91 C 0.62193 0.18101 0.84929 0.0
C92 C 0.48817 0.11495 0.81179 0.0
C93 C 0.49802 0.24553 0.85255 0.0
O94 O 0.52296 0.22733 0.83143 0.0
O95 O 0.48308 0.22622 0.87946 0.0
O96 O 0.60759 0.18356 0.81704 0.0
O97 O 0.59693 0.169 0.87439 0.0
O98 O 0.90011 0.97575 0.32349 0.0
Cd99 Cd 0.86926 0.00771 0.36362 0.0
Cd100 Cd 0.85601 0.0572 0.30579 0.0
O101 O 0.90227 0.02368 0.28117 0.0
O102 O 0.89531 0.98876 0.40961 0.0
O103 O 0.90109 0.05278 0.38875 0.0
C104 C 0.9113 0.02534 0.41251 0.0
C105 C 0.84134 0.12666 0.29355 0.0
C106 C 0.91242 0.98806 0.29279 0.0
C107 C 0.78405 0.00839 0.33661 0.0
O108 O 0.80114 0.02641 0.31022 0.0
O109 O 0.80478 1.00115 0.36504 0.0
O110 O 0.84015 0.09875 0.26885 0.0
O111 O 0.85502 0.11597 0.32481 0.0
H112 H 0.9745 0.43468 0.96859 0.0
H113 H 0.10163 0.3911 0.97637 0.0
H114 H 0.11548 0.44274 0.02378 0.0
H115 H 0.99712 0.54208 0.98001 0.0
H116 H 0.95164 0.55316 1.00653 0.0
H117 H 0.95075 0.5115 0.97428 0.0
H118 H 0.92898 0.45981 0.02411 0.0
H119 H 0.92931 0.50142 0.05643 0.0
H120 H 0.96005 0.45561 0.06422 0.0
H121 H 0.11645 0.50069 0.06907 0.0
H122 H 0.10316 0.55823 0.1114 0.0
H123 H 0.9757 0.56489 0.07408 0.0
C124 C 1.00507 0.43558 0.98064 0.0
C125 C 0.03692 0.40861 0.96879 0.0
C126 C 0.07665 0.41125 0.98499 0.0
C127 C 0.0849 0.44061 1.01192 0.0
C128 C 0.05313 0.46726 0.02245 0.0
C129 C 0.01391 0.46486 1.00754 0.0
C130 C 0.98549 0.49762 0.02343 0.0
C131 C 0.97037 0.52788 0.99432 0.0
C132 C 0.94879 0.4774 0.04323 0.0
C133 C 0.01488 0.5188 0.04949 0.0
C134 C 0.05377 0.50085 0.04844 0.0
C135 C 0.08609 0.51495 0.07016 0.0
C136 C 0.07828 0.5478 0.09405 0.0
C137 C 0.03846 0.56629 0.09605 0.0
C138 C 0.00657 0.5517 0.0731 0.0
H139 H 0.43871 0.53413 0.5692 0.0
H140 H 0.39465 0.40723 0.56084 0.0
H141 H 0.44647 0.39336 0.51358 0.0
H142 H 0.46014 0.54879 0.47372 0.0
H143 H 0.50606 0.57934 0.48179 0.0
H144 H 0.46428 0.5797 0.51396 0.0
H145 H 0.5157 0.55762 0.5639 0.0
H146 H 0.55752 0.55668 0.53179 0.0
H147 H 0.54614 0.51118 0.55812 0.0
H148 H 0.50464 0.39234 0.46847 0.0
H149 H 0.56241 0.4056 0.42636 0.0
H150 H 0.56942 0.53284 0.46417 0.0
C151 C 0.43954 0.50361 0.55706 0.0
C152 C 0.41238 0.47183 0.5687 0.0
C153 C 0.41495 0.43216 0.55238 0.0
C154 C 0.44441 0.4239 0.52554 0.0
C155 C 0.47125 0.45559 0.51521 0.0
C156 C 0.46893 0.49475 0.53024 0.0
C157 C 0.50189 0.5231 0.51457 0.0
C158 C 0.48189 0.55991 0.49483 0.0
C159 C 0.53209 0.53801 0.54384 0.0
C160 C 0.52308 0.49373 0.48849 0.0
C161 C 0.50497 0.45492 0.48934 0.0
C162 C 0.51904 0.42265 0.46754 0.0
C163 C 0.55201 0.43044 0.44378 0.0
C164 C 0.57066 0.47018 0.44197 0.0
C165 C 0.55611 0.50202 0.46501 0.0
H166 H 0.53721 0.93954 0.0727 0.0
H167 H 0.40974 0.94557 0.11016 0.0
H168 H 0.39614 1.00308 0.06796 0.0
H169 H 0.55245 0.04849 0.06332 0.0
H170 H 0.58361 0.04454 0.02323 0.0
H171 H 0.58317 1.00269 0.05526 0.0
H172 H 0.56097 0.95122 1.00534 0.0
H173 H 0.56185 0.99281 0.97307 0.0
H174 H 0.51549 0.96222 0.97881 0.0
H175 H 0.39687 0.06121 0.02293 0.0
H176 H 0.41054 0.11317 0.97582 0.0
H177 H 0.53784 0.0701 0.96774 0.0
C178 C 0.50626 0.95257 0.07176 0.0
C179 C 0.47446 0.93783 0.09473 0.0
C180 C 0.43455 0.95612 0.09279 0.0
C181 C 0.42657 0.98894 0.06898 0.0
C182 C 0.45881 1.00321 0.04725 0.0
C183 C 0.49778 0.98543 0.0482 0.0
C184 C 0.52708 0.00685 0.02218 0.0
C185 C 0.56374 0.02682 0.0422 0.0
C186 C 0.54223 0.97646 0.99313 0.0
C187 C 0.49851 0.03954 1.00649 0.0
C188 C 0.4593 0.0369 0.0214 0.0
C189 C 0.42744 0.06351 1.01105 0.0
C190 C 0.43559 0.09306 0.98431 0.0
C191 C 0.47532 0.09595 0.9681 0.0
C192 C 0.50727 0.06902 0.97978 0.0
H193 H 0.94459 0.97155 0.46211 0.0
H194 H 0.95063 0.09924 0.42554 0.0
H195 H 0.00778 0.11269 0.46822 0.0
H196 H 0.96633 0.99264 0.55627 0.0
H197 H 0.99701 0.94638 0.56197 0.0
H198 H 0.95573 0.94734 0.52937 0.0
H199 H 0.00778 0.92568 0.47972 0.0
H200 H 0.04933 0.92515 0.51208 0.0
H201 H 0.0536 0.95659 0.47222 0.0
H202 H 0.06551 0.11183 0.51365 0.0
H203 H 0.11709 0.09802 0.56106 0.0
H204 H 0.07423 0.9706 0.56807 0.0
C205 C 0.95756 1.0025 0.46334 0.0
C206 C 0.94292 0.03442 0.44049 0.0
C207 C 0.96111 0.07434 0.44281 0.0
C208 C 0.99372 0.08224 0.4669 0.0
C209 C 0.00789 0.04991 0.48852 0.0
C210 C 0.99021 0.01091 0.48719 0.0
C211 C 0.01146 0.98152 0.51319 0.0
C212 C 0.9808 0.96607 0.5419 0.0
C213 C 0.03174 0.94509 0.49309 0.0
C214 C 0.04392 0.01007 0.52932 0.0
C215 C 0.04133 0.04935 0.51462 0.0
C216 C 0.06777 0.0812 0.52536 0.0
C217 C 0.0971 0.07297 0.55228 0.0
C218 C 0.09993 0.03317 0.56827 0.0
C219 C 0.07318 1.00124 0.55621 0.0
H220 H 0.18598 0.69798 0.1927 0.0
H221 H 0.16684 0.68338 0.30745 0.0
H222 H 0.22771 0.72764 0.31932 0.0
H223 H 0.30051 0.69974 0.19548 0.0
H224 H 0.30398 0.73823 0.16052 0.0
H225 H 0.26103 0.70247 0.16125 0.0
H226 H 0.21008 0.76461 0.16071 0.0
H227 H 0.25286 0.80057 0.16094 0.0
H228 H 0.21365 0.80351 0.19541 0.0
H229 H 0.28741 0.77658 0.3191 0.0
H230 H 0.34787 0.82123 0.3068 0.0
H231 H 0.32808 0.80594 0.19218 0.0
C232 C 0.19536 0.70311 0.22029 0.0
C233 C 0.17189 0.68694 0.24918 0.0
C234 C 0.18452 0.69523 0.28492 0.0
C235 C 0.2189 0.72054 0.29194 0.0
C236 C 0.24029 0.73744 0.26294 0.0
C237 C 0.22951 0.72865 0.22781 0.0
C238 C 0.25724 0.75178 0.20165 0.0
C239 C 0.28218 0.72123 0.17836 0.0
C240 C 0.23193 0.7819 0.17831 0.0
C241 C 0.28509 0.77504 0.22761 0.0
C242 C 0.27459 0.76635 0.26281 0.0
C243 C 0.29604 0.78356 0.29166 0.0
C244 C 0.33017 0.8091 0.28439 0.0
C245 C 0.34249 0.81734 0.24856 0.0
C246 C 0.31897 0.80083 0.21983 0.0
H247 H 0.30161 0.67716 0.73576 0.0
H248 H 0.31565 0.65413 0.62149 0.0
H249 H 0.27777 0.71919 0.60844 0.0
H250 H 0.19964 0.71546 0.73229 0.0
H251 H 0.20714 0.7542 0.76662 0.0
H252 H 0.23783 0.70756 0.767 0.0
H253 H 0.30558 0.75096 0.76632 0.0
H254 H 0.27511 0.79775 0.76681 0.0
H255 H 0.313 0.78957 0.73189 0.0
H256 H 0.23434 0.7854 0.6084 0.0
H257 H 0.19639 0.85048 0.62136 0.0
H258 H 0.21067 0.82806 0.73566 0.0
C259 C 0.29747 0.68608 0.70794 0.0
C260 C 0.31176 0.66059 0.67963 0.0
C261 C 0.30532 0.67334 0.64363 0.0
C262 C 0.28355 0.71007 0.63597 0.0
C263 C 0.26856 0.73368 0.6646 0.0
C264 C 0.27584 0.72243 0.69986 0.0
C265 C 0.25619 0.75266 0.72588 0.0
C266 C 0.22325 0.73117 0.74932 0.0
C267 C 0.28945 0.77401 0.74908 0.0
C268 C 0.23649 0.78269 0.69982 0.0
C269 C 0.24371 0.77125 0.66458 0.0
C270 C 0.22862 0.79466 0.63591 0.0
C271 C 0.20679 0.8314 0.64353 0.0
C272 C 0.20039 0.84433 0.67952 0.0
C273 C 0.21477 0.81901 0.70786 0.0
H274 H 0.68047 0.2072 0.8014 0.0
H275 H 0.65756 0.19301 0.91565 0.0
H276 H 0.72272 0.23083 0.92874 0.0
H277 H 0.79289 0.19575 0.80514 0.0
H278 H 0.80108 0.23367 0.7703 0.0
H279 H 0.75422 0.20325 0.77077 0.0
H280 H 0.71089 0.271 0.77029 0.0
H281 H 0.7576 0.30164 0.77069 0.0
H282 H 0.71891 0.30911 0.80508 0.0
H283 H 0.78906 0.27417 0.92883 0.0
H284 H 0.85422 0.31204 0.91588 0.0
H285 H 0.83154 0.29798 0.80157 0.0
C286 C 0.68943 0.2113 0.82922 0.0
C287 C 0.66396 0.19699 0.85751 0.0
C288 C 0.67676 0.20337 0.89352 0.0
C289 C 0.71355 0.2251 0.90121 0.0
C290 C 0.73715 0.24011 0.87259 0.0
C291 C 0.72583 0.23289 0.83732 0.0
C292 C 0.75605 0.25255 0.81132 0.0
C293 C 0.77733 0.21933 0.78802 0.0
C294 C 0.73456 0.28553 0.78798 0.0
C295 C 0.78618 0.27218 0.8374 0.0
C296 C 0.77478 0.26491 0.87264 0.0
C297 C 0.79829 0.27992 0.90132 0.0
C298 C 0.83507 0.3017 0.89371 0.0
C299 C 0.84795 0.30814 0.85773 0.0
C300 C 0.82253 0.29385 0.82938 0.0
H301 H 0.70254 0.3233 0.34443 0.0
H302 H 0.68687 0.34292 0.22987 0.0
H303 H 0.73118 0.28226 0.21744 0.0
H304 H 0.80816 0.2959 0.34095 0.0
H305 H 0.80559 0.25654 0.37524 0.0
H306 H 0.76954 0.29922 0.37589 0.0
H307 H 0.70744 0.24816 0.3755 0.0
H308 H 0.7433 0.20531 0.3758 0.0
H309 H 0.70447 0.20887 0.34109 0.0
H310 H 0.78024 0.2227 0.21707 0.0
H311 H 0.82509 0.1623 0.22882 0.0
H312 H 0.81079 0.18151 0.34362 0.0
C313 C 0.70745 0.31408 0.31677 0.0
C314 C 0.69097 0.33762 0.28809 0.0
C315 C 0.69897 0.32518 0.25224 0.0
C316 C 0.72431 0.29093 0.2449 0.0
C317 C 0.74152 0.26946 0.2737 0.0
C318 C 0.73301 0.28005 0.30893 0.0
C319 C 0.75642 0.25225 0.33482 0.0
C320 C 0.78672 0.2775 0.35809 0.0
C321 C 0.7261 0.22715 0.35817 0.0
C322 C 0.77951 0.22459 0.30858 0.0
C323 C 0.7705 0.23524 0.27348 0.0
C324 C 0.78748 0.21397 0.24443 0.0
C325 C 0.81314 0.17987 0.25138 0.0
C326 C 0.82171 0.1674 0.2871 0.0
C327 C 0.80543 0.19075 0.31604 0.0
H328 H 0.77587 0.49224 0.27775 0.0
H329 H 0.78434 0.52891 0.38977 0.0
H330 H 0.85708 0.55178 0.37936 0.0
H331 H 0.88216 0.45639 0.266 0.0
H332 H 0.88494 0.47687 0.22101 0.0
H333 H 0.83596 0.4594 0.23882 0.0
H334 H 0.80336 0.53125 0.22519 0.0
H335 H 0.85202 0.5488 0.2072 0.0
H336 H 0.82744 0.57736 0.24301 0.0
H337 H 0.92836 0.5743 0.35432 0.0
H338 H 0.98672 0.5999 0.31696 0.0
H339 H 0.92743 0.54957 0.22193 0.0
C340 C 0.79294 0.50444 0.30048 0.0
C341 C 0.7744 0.5085 0.33472 0.0
C342 C 0.79796 0.52534 0.36334 0.0
C343 C 0.83931 0.53818 0.35768 0.0
C344 C 0.85638 0.53388 0.32331 0.0
C345 C 0.83359 0.51753 0.29526 0.0
C346 C 0.85691 0.51922 0.26011 0.0
C347 C 0.8655 0.47536 0.24565 0.0
C348 C 0.83355 0.54574 0.23227 0.0
C349 C 0.89633 0.54003 0.27233 0.0
C350 C 0.89608 0.5476 0.30894 0.0
C351 C 0.92889 0.56816 0.32574 0.0
C352 C 0.96201 0.58237 0.30435 0.0
C353 C 0.9615 0.57657 0.2666 0.0
C354 C 0.9287 0.55426 0.25074 0.0
H355 H 0.45003 0.42389 0.71397 0.0
H356 H 0.38579 0.4908 0.7982 0.0
H357 H 0.41098 0.43978 0.84299 0.0
H358 H 0.42678 0.3268 0.74145 0.0
H359 H 0.47595 0.3034 0.73039 0.0
H360 H 0.45882 0.34865 0.70652 0.0
H361 H 0.52636 0.38751 0.72386 0.0
H362 H 0.54415 0.34201 0.74734 0.0
H363 H 0.54125 0.39108 0.77045 0.0
H364 H 0.43281 0.37325 0.87595 0.0
H365 H 0.45646 0.30317 0.89474 0.0
H366 H 0.50898 0.28405 0.78864 0.0
C367 C 0.44255 0.4286 0.74206 0.0
C368 C 0.41631 0.46124 0.75279 0.0
C369 C 0.40651 0.46627 0.78963 0.0
C370 C 0.42046 0.4373 0.81517 0.0
C371 C 0.44493 0.40424 0.80342 0.0
C372 C 0.45679 0.40055 0.7678 0.0
C373 C 0.48099 0.3612 0.76126 0.0
C374 C 0.45932 0.3334 0.73327 0.0
C375 C 0.52585 0.37105 0.75008 0.0
C376 C 0.47935 0.34227 0.79832 0.0
C377 C 0.45858 0.36731 0.82249 0.0
C378 C 0.45008 0.35391 0.85746 0.0
C379 C 0.46337 0.31403 0.86787 0.0
C380 C 0.48502 0.2883 0.84337 0.0
C381 C 0.49329 0.30313 0.80838 0.0
H382 H 0.58671 0.95517 0.21985 0.0
H383 H 0.52633 0.9074 0.3153 0.0
H384 H 0.58509 0.93248 0.35246 0.0
H385 H 0.68535 0.92546 0.24102 0.0
H386 H 0.71081 0.97058 0.22284 0.0
H387 H 0.66161 0.95435 0.20502 0.0
H388 H 0.63038 0.0269 0.21828 0.0
H389 H 0.6798 0.04366 0.23565 0.0
H390 H 0.63384 0.04812 0.26301 0.0
H391 H 0.65672 0.95417 0.37738 0.0
H392 H 0.72973 0.9763 0.38768 0.0
H393 H 0.73916 0.01059 0.2752 0.0
C394 C 0.58528 0.95101 0.2487 0.0
C395 C 0.55207 0.92952 0.26475 0.0
C396 C 0.55136 0.92432 0.30256 0.0
C397 C 0.58469 0.93824 0.32382 0.0
C398 C 0.61793 0.95792 0.30686 0.0
C399 C 0.61784 0.96504 0.27018 0.0
C400 C 0.6578 0.98469 0.25777 0.0
C401 C 0.68019 0.95711 0.23005 0.0
C402 C 0.64997 0.02845 0.24281 0.0
C403 C 0.68109 0.9863 0.29288 0.0
C404 C 0.65792 0.97094 0.32109 0.0
C405 C 0.6748 0.96701 0.35555 0.0
C406 C 0.7163 0.97941 0.36116 0.0
C407 C 0.74016 0.99548 0.33239 0.0
C408 C 0.72186 0.999 0.29804 0.0
H409 H 1.00297 0.22104 0.78872 0.0
H410 H 0.0553 0.20179 0.8948 0.0
H411 H 0.079 0.13175 0.87585 0.0
H412 H 0.97082 0.11395 0.7701 0.0
H413 H 0.98576 0.11793 0.72355 0.0
H414 H 0.96791 0.16323 0.74739 0.0
H415 H 0.03577 0.20202 0.7307 0.0
H416 H 0.0536 0.15711 0.70667 0.0
H417 H 0.08509 0.17905 0.74191 0.0
H418 H 0.10084 0.06521 0.84279 0.0
H419 H 0.12608 0.0142 0.79791 0.0
H420 H 0.06206 0.08126 0.71376 0.0
C421 C 0.0186 0.20192 0.80842 0.0
C422 C 0.02682 0.21671 0.84344 0.0
C423 C 0.04841 0.19096 0.8679 0.0
C424 C 0.06172 0.15109 0.85741 0.0
C425 C 0.05327 0.13771 0.82241 0.0
C426 C 0.03245 0.16273 0.7983 0.0
C427 C 0.03109 0.1439 0.76114 0.0
C428 C 0.98623 0.13417 0.7499 0.0
C429 C 0.05269 0.17219 0.73351 0.0
C430 C 0.05544 0.10466 0.76761 0.0
C431 C 0.06711 0.10088 0.80324 0.0
C432 C 0.09148 0.06776 0.81495 0.0
C433 C 0.10543 0.03879 0.78936 0.0
C434 C 0.09569 0.04383 0.75252 0.0
C435 C 0.06954 0.07653 0.74184 0.0
H436 H 0.08459 0.44679 0.82337 0.0
H437 H 0.01771 0.38239 0.73923 0.0
H438 H 0.06865 0.40773 0.69436 0.0
H439 H 0.11718 0.53807 0.76681 0.0
H440 H 0.16629 0.54112 0.78983 0.0
H441 H 0.1208 0.52324 0.81339 0.0
H442 H 0.15983 0.45585 0.83069 0.0
H443 H 0.20505 0.47307 0.80675 0.0
H444 H 0.18173 0.42386 0.79573 0.0
H445 H 0.13514 0.42966 0.66131 0.0
H446 H 0.20525 0.45333 0.64242 0.0
H447 H 0.22436 0.50599 0.74847 0.0
C448 C 0.07987 0.43931 0.79528 0.0
C449 C 0.04726 0.41298 0.7846 0.0
C450 C 0.04222 0.40318 0.74776 0.0
C451 C 0.07114 0.41721 0.72217 0.0
C452 C 0.10416 0.44177 0.73387 0.0
C453 C 0.10786 0.45364 0.76949 0.0
C454 C 0.1472 0.47793 0.77596 0.0
C455 C 0.13726 0.52275 0.78714 0.0
C456 C 0.17507 0.45636 0.80391 0.0
C457 C 0.16612 0.47631 0.73887 0.0
C458 C 0.14107 0.45549 0.71474 0.0
C459 C 0.15448 0.44697 0.67976 0.0
C460 C 0.19438 0.46028 0.6693 0.0
C461 C 0.22012 0.48196 0.69376 0.0
C462 C 0.20527 0.49027 0.72876 0.0
H463 H 0.5567 0.5839 0.31706 0.0
H464 H 0.60098 0.52114 0.22142 0.0
H465 H 0.57579 0.57957 0.18404 0.0
H466 H 0.4634 0.63129 0.27565 0.0
H467 H 0.46926 0.67773 0.30218 0.0
H468 H 0.48608 0.62853 0.31986 0.0
H469 H 0.55943 0.65922 0.33072 0.0
H470 H 0.5431 0.70821 0.3126 0.0
H471 H 0.58735 0.68193 0.29363 0.0
H472 H 0.55387 0.65091 0.15855 0.0
H473 H 0.53164 0.72373 0.14767 0.0
H474 H 0.50125 0.73574 0.26084 0.0
C475 C 0.56016 0.58191 0.28815 0.0
C476 C 0.58066 0.54807 0.2721 0.0
C477 C 0.58486 0.54666 0.2342 0.0
C478 C 0.57087 0.57981 0.2128 0.0
C479 C 0.55215 0.61361 0.22974 0.0
C480 C 0.54609 0.61429 0.26656 0.0
C481 C 0.52726 0.65467 0.27887 0.0
C482 C 0.48392 0.64762 0.29508 0.0
C483 C 0.55601 0.67732 0.30551 0.0
C484 C 0.52474 0.67725 0.24346 0.0
C485 C 0.53906 0.65341 0.21524 0.0
C486 C 0.54189 0.66952 0.18042 0.0
C487 C 0.52943 0.71091 0.17448 0.0
C488 C 0.51438 0.73543 0.20327 0.0
C489 C 0.51202 0.71792 0.23799 0.0
H490 H 0.42754 0.0582 0.82282 0.0
H491 H 0.49424 0.12283 0.73876 0.0
H492 H 0.44329 0.0975 0.6939 0.0
H493 H 0.39499 0.96696 0.76607 0.0
H494 H 0.34592 0.96383 0.78916 0.0
H495 H 0.39141 0.98172 0.8127 0.0
H496 H 0.35233 0.04904 0.83024 0.0
H497 H 0.3071 0.03181 0.80633 0.0
H498 H 0.33035 0.08106 0.79541 0.0
H499 H 0.37679 0.07553 0.66089 0.0
H500 H 0.30668 0.05181 0.64206 0.0
H501 H 0.28776 0.99896 0.748 0.0
C502 C 0.43223 0.06573 0.79475 0.0
C503 C 0.46478 0.09212 0.78409 0.0
C504 C 0.46977 0.10199 0.74727 0.0
C505 C 0.44084 0.08796 0.72169 0.0
C506 C 0.40786 0.06333 0.73337 0.0
C507 C 0.40422 0.0514 0.76896 0.0
C508 C 0.36492 0.02706 0.77543 0.0
C509 C 0.37492 0.98223 0.78648 0.0
C510 C 0.33706 0.04855 0.80349 0.0
C511 C 0.34596 0.02872 0.73838 0.0
C512 C 0.37095 0.0496 0.71427 0.0
C513 C 0.35749 0.05816 0.67933 0.0
C514 C 0.31759 0.04483 0.6689 0.0
C515 C 0.29191 0.02308 0.69335 0.0
C516 C 0.3068 0.01474 0.7283 0.0
H517 H 0.01945 0.77322 0.25891 0.0
H518 H 0.97893 0.77919 0.14781 0.0
H519 H 0.95655 0.85214 0.1576 0.0
H520 H 0.93564 0.82521 0.29503 0.0
H521 H 0.96529 0.85068 0.32969 0.0
H522 H 0.98249 0.80177 0.31199 0.0
H523 H 0.0537 0.83444 0.29595 0.0
H524 H 0.03657 0.88368 0.31345 0.0
H525 H 0.05555 0.88004 0.26799 0.0
H526 H 0.93462 0.92374 0.18207 0.0
H527 H 0.90942 0.98243 0.21924 0.0
H528 H 0.96302 0.92548 0.31387 0.0
C529 C 0.00652 0.78979 0.23623 0.0
C530 C 1.0012 0.77046 0.20245 0.0
C531 C 0.98347 0.7934 0.17389 0.0
C532 C 0.97091 0.83487 0.17919 0.0
C533 C 0.97642 0.85271 0.21314 0.0
C534 C 0.99369 0.83056 0.24112 0.0
C535 C 0.99305 0.8546 0.27594 0.0
C536 C 0.96759 0.83171 0.30483 0.0
C537 C 0.03736 0.86373 0.28909 0.0
C538 C 0.97163 0.89364 0.26366 0.0
C539 C 0.963 0.89262 0.22724 0.0
C540 C 0.94162 0.92489 0.21049 0.0
C541 C 0.92765 0.9582 0.23175 0.0
C542 C 0.93446 0.9584 0.26936 0.0
C543 C 0.95762 0.92621 0.28514 0.0
loop_
_geom_bond_atom_site_label_1
_geom_bond_atom_site_label_2
_geom_bond_distance
_geom_bond_site_symmetry_2
_ccdc_geom_bond_type
O0 Cd1 2.223 . S
O0 C8 1.315 . S
Cd1 O0 2.223 . S
Cd1 O4 2.297 . S
Cd1 O5 2.439 1_655 S
Cd1 O11 2.240 1_655 S
Cd2 O3 2.240 1_455 S
Cd2 O10 2.223 . S
Cd2 O12 2.297 . S
Cd2 O13 2.439 . S
O3 Cd2 2.240 1_655 S
O3 C8 1.279 . S
O4 Cd1 2.297 . S
O4 C6 1.227 1_655 S
O5 Cd1 2.439 1_455 S
O5 C6 1.223 . S
C6 O4 1.227 1_455 S
C6 O5 1.223 . S
C7 O12 1.247 . S
C7 O13 1.208 . S
C8 O0 1.315 . S
C8 O3 1.279 . S
C9 O10 1.315 1_655 S
C9 O11 1.279 1_655 S
O10 Cd2 2.223 . S
O10 C9 1.315 1_455 S
O11 Cd1 2.240 1_455 S
O11 C9 1.279 1_455 S
O12 Cd2 2.297 . S
O12 C7 1.247 . S
O13 Cd2 2.439 . S
O13 C7 1.208 . S
O14 Cd15 2.223 . S
O14 C22 1.315 . S
Cd15 O14 2.223 . S
Cd15 O18 2.297 . S
Cd15 O19 2.439 . S
Cd15 O25 2.240 . S
Cd16 O17 2.240 . S
Cd16 O24 2.223 . S
Cd16 O26 2.297 . S
Cd16 O27 2.439 . S
O17 Cd16 2.240 . S
O17 C22 1.279 . S
O18 Cd15 2.297 . S
O18 C20 1.247 . S
O19 Cd15 2.439 . S
O19 C20 1.208 . S
C20 O18 1.247 . S
C20 O19 1.208 . S
C21 O26 1.247 . S
C21 O27 1.208 . S
C22 O14 1.315 . S
C22 O17 1.279 . S
C23 O24 1.315 . S
C23 O25 1.279 . S
O24 Cd16 2.223 . S
O24 C23 1.315 . S
O25 Cd15 2.240 . S
O25 C23 1.279 . S
O26 Cd16 2.297 . S
O26 C21 1.247 . S
O27 Cd16 2.439 . S
O27 C21 1.208 . S
O28 Cd29 2.223 . S
O28 C36 1.315 . S
Cd29 O28 2.223 . S
Cd29 O32 2.297 . S
Cd29 O33 2.439 . S
Cd29 O39 2.240 . S
Cd30 O31 2.240 . S
Cd30 O38 2.223 . S
Cd30 O40 2.297 . S
Cd30 O41 2.439 . S
O31 Cd30 2.240 . S
O31 C36 1.279 . S
O32 Cd29 2.297 . S
O32 C34 1.247 . S
O33 Cd29 2.439 . S
O33 C34 1.208 . S
C34 O32 1.247 . S
C34 O33 1.208 . S
C35 O40 1.247 . S
C35 O41 1.208 . S
C36 O28 1.315 . S
C36 O31 1.279 . S
C37 O38 1.315 . S
C37 O39 1.279 . S
O38 Cd30 2.223 . S
O38 C37 1.315 . S
O39 Cd29 2.240 . S
O39 C37 1.279 . S
O40 Cd30 2.297 . S
O40 C35 1.247 . S
O41 Cd30 2.439 . S
O41 C35 1.208 . S
O42 Cd43 2.223 . S
O42 C50 1.315 . S
Cd43 O42 2.223 . S
Cd43 O46 2.297 . S
Cd43 O47 2.439 1_545 S
Cd43 O53 2.240 1_545 S
Cd44 O45 2.240 1_565 S
Cd44 O52 2.223 . S
Cd44 O54 2.297 . S
Cd44 O55 2.439 . S
O45 Cd44 2.240 1_545 S
O45 C50 1.279 . S
O46 Cd43 2.297 . S
O46 C48 1.227 1_545 S
O47 Cd43 2.439 1_565 S
O47 C48 1.223 . S
C48 O46 1.227 1_565 S
C48 O47 1.223 . S
C49 O54 1.247 . S
C49 O55 1.208 . S
C50 O42 1.315 . S
C50 O45 1.279 . S
C51 O52 1.315 1_545 S
C51 O53 1.279 1_545 S
O52 Cd44 2.223 . S
O52 C51 1.315 1_565 S
O53 Cd43 2.240 1_565 S
O53 C51 1.279 1_565 S
O54 Cd44 2.297 . S
O54 C49 1.247 . S
O55 Cd44 2.439 . S
O55 C49 1.208 . S
O56 Cd57 2.223 . S
O56 C64 1.315 . S
Cd57 O56 2.223 . S
Cd57 O60 2.297 . S
Cd57 O61 2.439 1_455 S
Cd57 O67 2.240 1_455 S
Cd58 O59 2.240 1_655 S
Cd58 O66 2.223 . S
Cd58 O68 2.297 . S
Cd58 O69 2.439 . S
O59 Cd58 2.240 1_455 S
O59 C64 1.279 . S
O60 Cd57 2.297 . S
O60 C62 1.227 1_455 S
O61 Cd57 2.439 1_655 S
O61 C62 1.223 . S
C62 O60 1.227 1_655 S
C62 O61 1.223 . S
C63 O68 1.247 . S
C63 O69 1.208 . S
C64 O56 1.315 . S
C64 O59 1.279 . S
C65 O66 1.315 1_455 S
C65 O67 1.279 1_455 S
O66 Cd58 2.223 . S
O66 C65 1.315 1_655 S
O67 Cd57 2.240 1_655 S
O67 C65 1.279 1_655 S
O68 Cd58 2.297 . S
O68 C63 1.247 . S
O69 Cd58 2.439 . S
O69 C63 1.208 . S
O70 Cd71 2.223 . S
O70 C78 1.315 . S
Cd71 O70 2.223 . S
Cd71 O74 2.297 . S
Cd71 O75 2.439 . S
Cd71 O81 2.240 . S
Cd72 O73 2.240 . S
Cd72 O80 2.223 . S
Cd72 O82 2.297 . S
Cd72 O83 2.439 . S
O73 Cd72 2.240 . S
O73 C78 1.279 . S
O74 Cd71 2.297 . S
O74 C76 1.247 . S
O75 Cd71 2.439 . S
O75 C76 1.208 . S
C76 O74 1.247 . S
C76 O75 1.208 . S
C77 O82 1.247 . S
C77 O83 1.208 . S
C78 O70 1.315 . S
C78 O73 1.279 . S
C79 O80 1.315 . S
C79 O81 1.279 . S
O80 Cd72 2.223 . S
O80 C79 1.315 . S
O81 Cd71 2.240 . S
O81 C79 1.279 . S
O82 Cd72 2.297 . S
O82 C77 1.247 . S
O83 Cd72 2.439 . S
O83 C77 1.208 . S
O84 Cd85 2.223 . S
O84 C92 1.315 . S
Cd85 O84 2.223 . S
Cd85 O88 2.297 . S
Cd85 O89 2.439 . S
Cd85 O95 2.240 . S
Cd86 O87 2.240 . S
Cd86 O94 2.223 . S
Cd86 O96 2.297 . S
Cd86 O97 2.439 . S
O87 Cd86 2.240 . S
O87 C92 1.279 . S
O88 Cd85 2.297 . S
O88 C90 1.247 . S
O89 Cd85 2.439 . S
O89 C90 1.208 . S
C90 O88 1.247 . S
C90 O89 1.208 . S
C91 O96 1.247 . S
C91 O97 1.208 . S
C92 O84 1.315 . S
C92 O87 1.279 . S
C93 O94 1.315 . S
C93 O95 1.279 . S
O94 Cd86 2.223 . S
O94 C93 1.315 . S
O95 Cd85 2.240 . S
O95 C93 1.279 . S
O96 Cd86 2.297 . S
O96 C91 1.247 . S
O97 Cd86 2.439 . S
O97 C91 1.208 . S
O98 Cd99 2.223 . S
O98 C106 1.315 . S
Cd99 O98 2.223 . S
Cd99 O102 2.297 . S
Cd99 O103 2.439 1_565 S
Cd99 O109 2.240 1_565 S
Cd100 O101 2.240 1_545 S
Cd100 O108 2.223 . S
Cd100 O110 2.297 . S
Cd100 O111 2.439 . S
O101 Cd100 2.240 1_565 S
O101 C106 1.279 . S
O102 Cd99 2.297 . S
O102 C104 1.227 1_565 S
O103 Cd99 2.439 1_545 S
O103 C104 1.223 . S
C104 O102 1.227 1_545 S
C104 O103 1.223 . S
C105 O110 1.247 . S
C105 O111 1.208 . S
C106 O98 1.315 . S
C106 O101 1.279 . S
C107 O108 1.315 1_565 S
C107 O109 1.279 1_565 S
O108 Cd100 2.223 . S
O108 C107 1.315 1_545 S
O109 Cd99 2.240 1_545 S
O109 C107 1.279 1_545 S
O110 Cd100 2.297 . S
O110 C105 1.247 . S
O111 Cd100 2.439 . S
O111 C105 1.208 . S
H112 C124 0.930 . S
H113 C126 0.930 . S
H114 C127 0.930 . S
H115 C131 0.959 . S
H116 C131 0.959 . S
H117 C131 0.961 . S
H118 C132 0.960 . S
H119 C132 0.961 . S
H120 C132 0.959 1_455 S
H121 C135 0.929 1_556 S
H122 C136 0.931 . S
H123 C138 0.930 . S
C124 H112 0.930 . S
C124 C125 1.411 . S
C124 C129 1.399 . S
C125 C124 1.411 . S
C125 C126 1.359 1_655 S
C126 H113 0.930 . S
C126 C125 1.359 1_455 S
C126 C127 1.388 . S
C127 H114 0.930 . S
C127 C126 1.388 . S
C127 C128 1.390 . S
C128 C127 1.390 . S
C128 C129 1.394 1_455 S
C128 C134 1.465 1_556 S
C129 C124 1.399 . S
C129 C128 1.394 1_655 S
C129 C130 1.516 1_556 S
C130 C129 1.516 1_554 S
C130 C131 1.502 . S
C130 C132 1.561 . S
C130 C133 1.526 . S
C131 H115 0.959 . S
C131 H116 0.959 . S
C131 H117 0.961 . S
C131 C130 1.502 . S
C132 H118 0.960 . S
C132 H119 0.961 . S
C132 H120 0.959 1_655 S
C132 C130 1.561 . S
C133 C130 1.526 . S
C133 C134 1.396 1_655 S
C133 C138 1.390 . S
C134 C128 1.465 1_554 S
C134 C133 1.396 1_455 S
C134 C135 1.399 . S
C135 H121 0.929 1_554 S
C135 C134 1.399 . S
C135 C136 1.385 . S
C136 H122 0.931 . S
C136 C135 1.385 . S
C136 C137 1.389 . S
C137 C136 1.389 . S
C137 C138 1.387 1_455 S
C138 H123 0.930 . S
C138 C133 1.390 . S
C138 C137 1.387 1_655 S
H139 C151 0.930 . S
H140 C153 0.930 . S
H141 C154 0.930 . S
H142 C158 0.959 . S
H143 C158 0.959 . S
H144 C158 0.961 . S
H145 C159 0.960 . S
H146 C159 0.961 . S
H147 C159 0.959 . S
H148 C162 0.929 . S
H149 C163 0.931 . S
H150 C165 0.930 . S
C151 H139 0.930 . S
C151 C152 1.399 . S
C151 C156 1.399 . S
C152 C151 1.399 . S
C152 C153 1.376 . S
C153 H140 0.930 . S
C153 C152 1.376 . S
C153 C154 1.388 . S
C154 H141 0.930 . S
C154 C153 1.388 . S
C154 C155 1.390 . S
C155 C154 1.390 . S
C155 C156 1.394 . S
C155 C161 1.465 . S
C156 C151 1.399 . S
C156 C155 1.394 . S
C156 C157 1.516 . S
C157 C156 1.516 . S
C157 C158 1.502 . S
C157 C159 1.561 . S
C157 C160 1.526 . S
C158 H142 0.959 . S
C158 H143 0.959 . S
C158 H144 0.961 . S
C158 C157 1.502 . S
C159 H145 0.960 . S
C159 H146 0.961 . S
C159 H147 0.959 . S
C159 C157 1.561 . S
C160 C157 1.526 . S
C160 C161 1.396 . S
C160 C165 1.390 . S
C161 C155 1.465 . S
C161 C160 1.396 . S
C161 C162 1.399 . S
C162 H148 0.929 . S
C162 C161 1.399 . S
C162 C163 1.385 . S
C163 H149 0.931 . S
C163 C162 1.385 . S
C163 C164 1.389 . S
C164 C163 1.389 . S
C164 C165 1.387 . S
C165 H150 0.930 . S
C165 C160 1.390 . S
C165 C164 1.387 . S
H166 C178 0.930 . S
H167 C180 0.930 . S
H168 C181 0.930 . S
H169 C185 0.959 . S
H170 C185 0.959 . S
H171 C185 0.961 . S
H172 C186 0.960 . S
H173 C186 0.961 . S
H174 C186 0.959 . S
H175 C189 0.929 1_554 S
H176 C190 0.931 . S
H177 C192 0.930 . S
C178 H166 0.930 . S
C178 C179 1.399 . S
C178 C183 1.399 . S
C179 C178 1.399 . S
C179 C180 1.376 . S
C180 H167 0.930 . S
C180 C179 1.376 . S
C180 C181 1.388 1_565 S
C181 H168 0.930 . S
C181 C180 1.388 1_545 S
C181 C182 1.390 . S
C182 C181 1.390 . S
C182 C183 1.394 1_545 S
C182 C188 1.465 1_554 S
C183 C178 1.399 . S
C183 C182 1.394 1_565 S
C183 C184 1.516 1_554 S
C184 C183 1.516 1_556 S
C184 C185 1.502 . S
C184 C186 1.561 . S
C184 C187 1.526 1_565 S
C185 H169 0.959 . S
C185 H170 0.959 . S
C185 H171 0.961 . S
C185 C184 1.502 . S
C186 H172 0.960 . S
C186 H173 0.961 . S
C186 H174 0.959 . S
C186 C184 1.561 . S
C187 C184 1.526 1_545 S
C187 C188 1.396 . S
C187 C192 1.390 . S
C188 C182 1.465 1_556 S
C188 C187 1.396 . S
C188 C189 1.399 . S
C189 H175 0.929 1_556 S
C189 C188 1.399 . S
C189 C190 1.385 . S
C190 H176 0.931 . S
C190 C189 1.385 . S
C190 C191 1.389 . S
C191 C190 1.389 . S
C191 C192 1.387 . S
C192 H177 0.930 . S
C192 C187 1.390 . S
C192 C191 1.387 . S
H193 C205 0.930 . S
H194 C207 0.930 . S
H195 C208 0.930 . S
H196 C212 0.959 . S
H197 C212 0.959 . S
H198 C212 0.961 . S
H199 C213 0.960 . S
H200 C213 0.961 . S
H201 C213 0.959 1_455 S
H202 C216 0.929 . S
H203 C217 0.931 . S
H204 C219 0.930 . S
C205 H193 0.930 . S
C205 C206 1.399 1_565 S
C205 C210 1.399 . S
C206 C205 1.399 1_545 S
C206 C207 1.376 . S
C207 H194 0.930 . S
C207 C206 1.376 . S
C207 C208 1.388 1_655 S
C208 H195 0.930 . S
C208 C207 1.388 1_455 S
C208 C209 1.390 . S
C209 C208 1.390 . S
C209 C210 1.394 1_445 S
C209 C215 1.465 . S
C210 C205 1.399 . S
C210 C209 1.394 1_665 S
C210 C211 1.516 . S
C211 C210 1.516 . S
C211 C212 1.502 . S
C211 C213 1.561 . S
C211 C214 1.526 1_655 S
C212 H196 0.959 . S
C212 H197 0.959 . S
C212 H198 0.961 . S
C212 C211 1.502 . S
C213 H199 0.960 . S
C213 H200 0.961 . S
C213 H201 0.959 1_655 S
C213 C211 1.561 . S
C214 C211 1.526 1_455 S
C214 C215 1.396 1_565 S
C214 C219 1.390 . S
C215 C209 1.465 . S
C215 C214 1.396 1_545 S
C215 C216 1.399 . S
C216 H202 0.929 . S
C216 C215 1.399 . S
C216 C217 1.385 . S
C217 H203 0.931 . S
C217 C216 1.385 . S
C217 C218 1.389 1_545 S
C218 C217 1.389 1_565 S
C218 C219 1.387 . S
C219 H204 0.930 . S
C219 C214 1.390 . S
C219 C218 1.387 . S
H220 C232 0.930 . S
H221 C234 0.930 . S
H222 C235 0.930 . S
H223 C239 0.959 . S
H224 C239 0.959 . S
H225 C239 0.961 . S
H226 C240 0.960 . S
H227 C240 0.961 . S
H228 C240 0.959 . S
H229 C243 0.929 . S
H230 C244 0.931 . S
H231 C246 0.930 . S
C232 H220 0.930 . S
C232 C233 1.399 . S
C232 C237 1.399 . S
C233 C232 1.399 . S
C233 C234 1.376 . S
C234 H221 0.930 . S
C234 C233 1.376 . S
C234 C235 1.388 . S
C235 H222 0.930 . S
C235 C234 1.388 . S
C235 C236 1.390 . S
C236 C235 1.390 . S
C236 C237 1.394 . S
C236 C242 1.465 . S
C237 C232 1.399 . S
C237 C236 1.394 . S
C237 C238 1.516 . S
C238 C237 1.516 . S
C238 C239 1.502 . S
C238 C240 1.561 . S
C238 C241 1.526 . S
C239 H223 0.959 . S
C239 H224 0.959 . S
C239 H225 0.961 . S
C239 C238 1.502 . S
C240 H226 0.960 . S
C240 H227 0.961 . S
C240 H228 0.959 . S
C240 C238 1.561 . S
C241 C238 1.526 . S
C241 C242 1.396 . S
C241 C246 1.390 . S
C242 C236 1.465 . S
C242 C241 1.396 . S
C242 C243 1.399 . S
C243 H229 0.929 . S
C243 C242 1.399 . S
C243 C244 1.385 . S
C244 H230 0.931 . S
C244 C243 1.385 . S
C244 C245 1.389 . S
C245 C244 1.389 . S
C245 C246 1.387 . S
C246 H231 0.930 . S
C246 C241 1.390 . S
C246 C245 1.387 . S
H247 C259 0.930 . S
H248 C261 0.930 . S
H249 C262 0.930 . S
H250 C266 0.959 . S
H251 C266 0.959 . S
H252 C266 0.961 . S
H253 C267 0.960 . S
H254 C267 0.961 . S
H255 C267 0.959 . S
H256 C270 0.929 . S
H257 C271 0.931 . S
H258 C273 0.930 . S
C259 H247 0.930 . S
C259 C260 1.399 . S
C259 C264 1.399 . S
C260 C259 1.399 . S
C260 C261 1.376 . S
C261 H248 0.930 . S
C261 C260 1.376 . S
C261 C262 1.388 . S
C262 H249 0.930 . S
C262 C261 1.388 . S
C262 C263 1.390 . S
C263 C262 1.390 . S
C263 C264 1.394 . S
C263 C269 1.465 . S
C264 C259 1.399 . S
C264 C263 1.394 . S
C264 C265 1.516 . S
C265 C264 1.516 . S
C265 C266 1.502 . S
C265 C267 1.561 . S
C265 C268 1.526 . S
C266 H250 0.959 . S
C266 H251 0.959 . S
C266 H252 0.961 . S
C266 C265 1.502 . S
C267 H253 0.960 . S
C267 H254 0.961 . S
C267 H255 0.959 . S
C267 C265 1.561 . S
C268 C265 1.526 . S
C268 C269 1.396 . S
C268 C273 1.390 . S
C269 C263 1.465 . S
C269 C268 1.396 . S
C269 C270 1.399 . S
C270 H256 0.929 . S
C270 C269 1.399 . S
C270 C271 1.385 . S
C271 H257 0.931 . S
C271 C270 1.385 . S
C271 C272 1.389 . S
C272 C271 1.389 . S
C272 C273 1.387 . S
C273 H258 0.930 . S
C273 C268 1.390 . S
C273 C272 1.387 . S
H274 C286 0.930 . S
H275 C288 0.930 . S
H276 C289 0.930 . S
H277 C293 0.959 . S
H278 C293 0.959 . S
H279 C293 0.961 . S
H280 C294 0.960 . S
H281 C294 0.961 . S
H282 C294 0.959 . S
H283 C297 0.929 . S
H284 C298 0.931 . S
H285 C300 0.930 . S
C286 H274 0.930 . S
C286 C287 1.399 . S
C286 C291 1.399 . S
C287 C286 1.399 . S
C287 C288 1.376 . S
C288 H275 0.930 . S
C288 C287 1.376 . S
C288 C289 1.388 . S
C289 H276 0.930 . S
C289 C288 1.388 . S
C289 C290 1.390 . S
C290 C289 1.390 . S
C290 C291 1.394 . S
C290 C296 1.465 . S
C291 C286 1.399 . S
C291 C290 1.394 . S
C291 C292 1.516 . S
C292 C291 1.516 . S
C292 C293 1.502 . S
C292 C294 1.561 . S
C292 C295 1.526 . S
C293 H277 0.959 . S
C293 H278 0.959 . S
C293 H279 0.961 . S
C293 C292 1.502 . S
C294 H280 0.960 . S
C294 H281 0.961 . S
C294 H282 0.959 . S
C294 C292 1.561 . S
C295 C292 1.526 . S
C295 C296 1.396 . S
C295 C300 1.390 . S
C296 C290 1.465 . S
C296 C295 1.396 . S
C296 C297 1.399 . S
C297 H283 0.929 . S
C297 C296 1.399 . S
C297 C298 1.385 . S
C298 H284 0.931 . S
C298 C297 1.385 . S
C298 C299 1.389 . S
C299 C298 1.389 . S
C299 C300 1.387 . S
C300 H285 0.930 . S
C300 C295 1.390 . S
C300 C299 1.387 . S
H301 C313 0.930 . S
H302 C315 0.930 . S
H303 C316 0.930 . S
H304 C320 0.959 . S
H305 C320 0.959 . S
H306 C320 0.961 . S
H307 C321 0.960 . S
H308 C321 0.961 . S
H309 C321 0.959 . S
H310 C324 0.929 . S
H311 C325 0.931 . S
H312 C327 0.930 . S
C313 H301 0.930 . S
C313 C314 1.399 . S
C313 C318 1.399 . S
C314 C313 1.399 . S
C314 C315 1.376 . S
C315 H302 0.930 . S
C315 C314 1.376 . S
C315 C316 1.388 . S
C316 H303 0.930 . S
C316 C315 1.388 . S
C316 C317 1.390 . S
C317 C316 1.390 . S
C317 C318 1.394 . S
C317 C323 1.465 . S
C318 C313 1.399 . S
C318 C317 1.394 . S
C318 C319 1.516 . S
C319 C318 1.516 . S
C319 C320 1.502 . S
C319 C321 1.561 . S
C319 C322 1.526 . S
C320 H304 0.959 . S
C320 H305 0.959 . S
C320 H306 0.961 . S
C320 C319 1.502 . S
C321 H307 0.960 . S
C321 H308 0.961 . S
C321 H309 0.959 . S
C321 C319 1.561 . S
C322 C319 1.526 . S
C322 C323 1.396 . S
C322 C327 1.390 . S
C323 C317 1.465 . S
C323 C322 1.396 . S
C323 C324 1.399 . S
C324 H310 0.929 . S
C324 C323 1.399 . S
C324 C325 1.385 . S
C325 H311 0.931 . S
C325 C324 1.385 . S
C325 C326 1.389 . S
C326 C325 1.389 . S
C326 C327 1.387 . S
C327 H312 0.930 . S
C327 C322 1.390 . S
C327 C326 1.387 . S
H328 C340 0.930 . S
H329 C342 0.930 . S
H330 C343 0.930 . S
H331 C347 0.959 . S
H332 C347 0.959 . S
H333 C347 0.961 . S
H334 C348 0.960 . S
H335 C348 0.961 . S
H336 C348 0.959 . S
H337 C351 0.929 . S
H338 C352 0.931 . S
H339 C354 0.930 . S
C340 H328 0.930 . S
C340 C341 1.399 . S
C340 C345 1.399 . S
C341 C340 1.399 . S
C341 C342 1.376 . S
C342 H329 0.930 . S
C342 C341 1.376 . S
C342 C343 1.388 . S
C343 H330 0.930 . S
C343 C342 1.388 . S
C343 C344 1.390 . S
C344 C343 1.390 . S
C344 C345 1.394 . S
C344 C350 1.465 . S
C345 C340 1.399 . S
C345 C344 1.394 . S
C345 C346 1.516 . S
C346 C345 1.516 . S
C346 C347 1.502 . S
C346 C348 1.561 . S
C346 C349 1.526 . S
C347 H331 0.959 . S
C347 H332 0.959 . S
C347 H333 0.961 . S
C347 C346 1.502 . S
C348 H334 0.960 . S
C348 H335 0.961 . S
C348 H336 0.959 . S
C348 C346 1.561 . S
C349 C346 1.526 . S
C349 C350 1.396 . S
C349 C354 1.390 . S
C350 C344 1.465 . S
C350 C349 1.396 . S
C350 C351 1.399 . S
C351 H337 0.929 . S
C351 C350 1.399 . S
C351 C352 1.385 . S
C352 H338 0.931 . S
C352 C351 1.385 . S
C352 C353 1.389 . S
C353 C352 1.389 . S
C353 C354 1.387 . S
C354 H339 0.930 . S
C354 C349 1.390 . S
C354 C353 1.387 . S
H355 C367 0.930 . S
H356 C369 0.930 . S
H357 C370 0.930 . S
H358 C374 0.959 . S
H359 C374 0.959 . S
H360 C374 0.961 . S
H361 C375 0.960 . S
H362 C375 0.961 . S
H363 C375 0.959 . S
H364 C378 0.929 . S
H365 C379 0.931 . S
H366 C381 0.930 . S
C367 H355 0.930 . S
C367 C368 1.399 . S
C367 C372 1.399 . S
C368 C367 1.399 . S
C368 C369 1.376 . S
C369 H356 0.930 . S
C369 C368 1.376 . S
C369 C370 1.388 . S
C370 H357 0.930 . S
C370 C369 1.388 . S
C370 C371 1.390 . S
C371 C370 1.390 . S
C371 C372 1.394 . S
C371 C377 1.465 . S
C372 C367 1.399 . S
C372 C371 1.394 . S
C372 C373 1.516 . S
C373 C372 1.516 . S
C373 C374 1.502 . S
C373 C375 1.561 . S
C373 C376 1.526 . S
C374 H358 0.959 . S
C374 H359 0.959 . S
C374 H360 0.961 . S
C374 C373 1.502 . S
C375 H361 0.960 . S
C375 H362 0.961 . S
C375 H363 0.959 . S
C375 C373 1.561 . S
C376 C373 1.526 . S
C376 C377 1.396 . S
C376 C381 1.390 . S
C377 C371 1.465 . S
C377 C376 1.396 . S
C377 C378 1.399 . S
C378 H364 0.929 . S
C378 C377 1.399 . S
C378 C379 1.385 . S
C379 H365 0.931 . S
C379 C378 1.385 . S
C379 C380 1.389 . S
C380 C379 1.389 . S
C380 C381 1.387 . S
C381 H366 0.930 . S
C381 C376 1.390 . S
C381 C380 1.387 . S
H382 C394 0.930 . S
H383 C396 0.930 . S
H384 C397 0.930 . S
H385 C401 0.959 . S
H386 C401 0.959 . S
H387 C401 0.961 . S
H388 C402 0.960 . S
H389 C402 0.961 . S
H390 C402 0.959 . S
H391 C405 0.929 . S
H392 C406 0.931 . S
H393 C408 0.930 . S
C394 H382 0.930 . S
C394 C395 1.399 . S
C394 C399 1.399 . S
C395 C394 1.399 . S
C395 C396 1.376 . S
C396 H383 0.930 . S
C396 C395 1.376 . S
C396 C397 1.388 . S
C397 H384 0.930 . S
C397 C396 1.388 . S
C397 C398 1.390 . S
C398 C397 1.390 . S
C398 C399 1.394 . S
C398 C404 1.465 . S
C399 C394 1.399 . S
C399 C398 1.394 . S
C399 C400 1.516 . S
C400 C399 1.516 . S
C400 C401 1.502 . S
C400 C402 1.561 . S
C400 C403 1.526 . S
C401 H385 0.959 . S
C401 H386 0.959 . S
C401 H387 0.961 . S
C401 C400 1.502 . S
C402 H388 0.960 . S
C402 H389 0.961 . S
C402 H390 0.959 . S
C402 C400 1.561 . S
C403 C400 1.526 . S
C403 C404 1.396 . S
C403 C408 1.390 . S
C404 C398 1.465 . S
C404 C403 1.396 . S
C404 C405 1.399 1_565 S
C405 H391 0.929 . S
C405 C404 1.399 1_545 S
C405 C406 1.385 . S
C406 H392 0.931 . S
C406 C405 1.385 . S
C406 C407 1.389 1_545 S
C407 C406 1.389 1_565 S
C407 C408 1.387 . S
C408 H393 0.930 . S
C408 C403 1.390 . S
C408 C407 1.387 . S
H409 C421 0.930 . S
H410 C423 0.930 . S
H411 C424 0.930 . S
H412 C428 0.959 1_655 S
H413 C428 0.959 . S
H414 C428 0.961 . S
H415 C429 0.960 . S
H416 C429 0.961 . S
H417 C429 0.959 . S
H418 C432 0.929 . S
H419 C433 0.931 . S
H420 C435 0.930 . S
C421 H409 0.930 . S
C421 C422 1.399 . S
C421 C426 1.399 . S
C422 C421 1.399 . S
C422 C423 1.376 . S
C423 H410 0.930 . S
C423 C422 1.376 . S
C423 C424 1.388 . S
C424 H411 0.930 . S
C424 C423 1.388 . S
C424 C425 1.390 . S
C425 C424 1.390 . S
C425 C426 1.394 . S
C425 C431 1.465 . S
C426 C421 1.399 . S
C426 C425 1.394 . S
C426 C427 1.516 . S
C427 C426 1.516 . S
C427 C428 1.502 . S
C427 C429 1.561 . S
C427 C430 1.526 . S
C428 H412 0.959 1_455 S
C428 H413 0.959 . S
C428 H414 0.961 . S
C428 C427 1.502 . S
C429 H415 0.960 . S
C429 H416 0.961 . S
C429 H417 0.959 . S
C429 C427 1.561 . S
C430 C427 1.526 . S
C430 C431 1.396 . S
C430 C435 1.390 . S
C431 C425 1.465 . S
C431 C430 1.396 . S
C431 C432 1.399 . S
C432 H418 0.929 . S
C432 C431 1.399 . S
C432 C433 1.385 . S
C433 H419 0.931 . S
C433 C432 1.385 . S
C433 C434 1.389 . S
C434 C433 1.389 . S
C434 C435 1.387 . S
C435 H420 0.930 . S
C435 C430 1.390 . S
C435 C434 1.387 . S
H436 C448 0.930 . S
H437 C450 0.930 . S
H438 C451 0.930 . S
H439 C455 0.959 . S
H440 C455 0.959 . S
H441 C455 0.961 . S
H442 C456 0.960 . S
H443 C456 0.961 . S
H444 C456 0.959 . S
H445 C459 0.929 . S
H446 C460 0.931 . S
H447 C462 0.930 . S
C448 H436 0.930 . S
C448 C449 1.399 . S
C448 C453 1.399 . S
C449 C448 1.399 . S
C449 C450 1.376 . S
C450 H437 0.930 . S
C450 C449 1.376 . S
C450 C451 1.388 . S
C451 H438 0.930 . S
C451 C450 1.388 . S
C451 C452 1.390 . S
C452 C451 1.390 . S
C452 C453 1.394 . S
C452 C458 1.465 . S
C453 C448 1.399 . S
C453 C452 1.394 . S
C453 C454 1.516 . S
C454 C453 1.516 . S
C454 C455 1.502 . S
C454 C456 1.561 . S
C454 C457 1.526 . S
C455 H439 0.959 . S
C455 H440 0.959 . S
C455 H441 0.961 . S
C455 C454 1.502 . S
C456 H442 0.960 . S
C456 H443 0.961 . S
C456 H444 0.959 . S
C456 C454 1.561 . S
C457 C454 1.526 . S
C457 C458 1.396 . S
C457 C462 1.390 . S
C458 C452 1.465 . S
C458 C457 1.396 . S
C458 C459 1.399 . S
C459 H445 0.929 . S
C459 C458 1.399 . S
C459 C460 1.385 . S
C460 H446 0.931 . S
C460 C459 1.385 . S
C460 C461 1.389 . S
C461 C460 1.389 . S
C461 C462 1.387 . S
C462 H447 0.930 . S
C462 C457 1.390 . S
C462 C461 1.387 . S
H463 C475 0.930 . S
H464 C477 0.930 . S
H465 C478 0.930 . S
H466 C482 0.959 . S
H467 C482 0.959 . S
H468 C482 0.961 . S
H469 C483 0.960 . S
H470 C483 0.961 . S
H471 C483 0.959 . S
H472 C486 0.929 . S
H473 C487 0.931 . S
H474 C489 0.930 . S
C475 H463 0.930 . S
C475 C476 1.399 . S
C475 C480 1.399 . S
C476 C475 1.399 . S
C476 C477 1.376 . S
C477 H464 0.930 . S
C477 C476 1.376 . S
C477 C478 1.388 . S
C478 H465 0.930 . S
C478 C477 1.388 . S
C478 C479 1.390 . S
C479 C478 1.390 . S
C479 C480 1.394 . S
C479 C485 1.465 . S
C480 C475 1.399 . S
C480 C479 1.394 . S
C480 C481 1.516 . S
C481 C480 1.516 . S
C481 C482 1.502 . S
C481 C483 1.561 . S
C481 C484 1.526 . S
C482 H466 0.959 . S
C482 H467 0.959 . S
C482 H468 0.961 . S
C482 C481 1.502 . S
C483 H469 0.960 . S
C483 H470 0.961 . S
C483 H471 0.959 . S
C483 C481 1.561 . S
C484 C481 1.526 . S
C484 C485 1.396 . S
C484 C489 1.390 . S
C485 C479 1.465 . S
C485 C484 1.396 . S
C485 C486 1.399 . S
C486 H472 0.929 . S
C486 C485 1.399 . S
C486 C487 1.385 . S
C487 H473 0.931 . S
C487 C486 1.385 . S
C487 C488 1.389 . S
C488 C487 1.389 . S
C488 C489 1.387 . S
C489 H474 0.930 . S
C489 C484 1.390 . S
C489 C488 1.387 . S
H490 C502 0.930 . S
H491 C504 0.930 . S
H492 C505 0.930 . S
H493 C509 0.959 1_545 S
H494 C509 0.959 . S
H495 C509 0.961 . S
H496 C510 0.960 . S
H497 C510 0.961 . S
H498 C510 0.959 . S
H499 C513 0.929 . S
H500 C514 0.931 . S
H501 C516 0.930 1_565 S
C502 H490 0.930 . S
C502 C503 1.399 . S
C502 C507 1.399 . S
C503 C502 1.399 . S
C503 C504 1.376 . S
C504 H491 0.930 . S
C504 C503 1.376 . S
C504 C505 1.388 . S
C505 H492 0.930 . S
C505 C504 1.388 . S
C505 C506 1.390 . S
C506 C505 1.390 . S
C506 C507 1.394 . S
C506 C512 1.465 . S
C507 C502 1.399 . S
C507 C506 1.394 . S
C507 C508 1.516 . S
C508 C507 1.516 . S
C508 C509 1.502 1_545 S
C508 C510 1.561 1_545 S
C508 C511 1.526 . S
C509 H493 0.959 1_565 S
C509 H494 0.959 . S
C509 H495 0.961 . S
C509 C508 1.502 1_565 S
C510 H496 0.960 . S
C510 H497 0.961 . S
C510 H498 0.959 . S
C510 C508 1.561 1_565 S
C511 C508 1.526 . S
C511 C512 1.396 . S
C511 C516 1.390 . S
C512 C506 1.465 . S
C512 C511 1.396 . S
C512 C513 1.399 . S
C513 H499 0.929 . S
C513 C512 1.399 . S
C513 C514 1.385 . S
C514 H500 0.931 . S
C514 C513 1.385 . S
C514 C515 1.389 . S
C515 C514 1.389 . S
C515 C516 1.387 . S
C516 H501 0.930 1_545 S
C516 C511 1.390 . S
C516 C515 1.387 . S
H517 C529 0.930 1_455 S
H518 C531 0.930 . S
H519 C532 0.930 . S
H520 C536 0.959 1_655 S
H521 C536 0.959 . S
H522 C536 0.961 . S
H523 C537 0.960 . S
H524 C537 0.961 . S
H525 C537 0.959 1_655 S
H526 C540 0.929 . S
H527 C541 0.931 . S
H528 C543 0.930 . S
C529 H517 0.930 1_655 S
C529 C530 1.399 . S
C529 C534 1.399 . S
C530 C529 1.399 . S
C530 C531 1.376 . S
C531 H518 0.930 . S
C531 C530 1.376 . S
C531 C532 1.388 . S
C532 H519 0.930 . S
C532 C531 1.388 . S
C532 C533 1.390 . S
C533 C532 1.390 . S
C533 C534 1.394 . S
C533 C539 1.465 . S
C534 C529 1.399 . S
C534 C533 1.394 . S
C534 C535 1.516 . S
C535 C534 1.516 . S
C535 C536 1.502 1_655 S
C535 C537 1.561 1_655 S
C535 C538 1.526 . S
C536 H520 0.959 1_455 S
C536 H521 0.959 . S
C536 H522 0.961 . S
C536 C535 1.502 1_455 S
C537 H523 0.960 . S
C537 H524 0.961 . S
C537 H525 0.959 1_455 S
C537 C535 1.561 1_455 S
C538 C535 1.526 . S
C538 C539 1.396 . S
C538 C543 1.390 . S
C539 C533 1.465 . S
C539 C538 1.396 . S
C539 C540 1.399 . S
C540 H526 0.929 . S
C540 C539 1.399 . S
C540 C541 1.385 . S
C541 H527 0.931 . S
C541 C540 1.385 . S
C541 C542 1.389 . S
C542 C541 1.389 . S
C542 C543 1.387 . S
C543 H528 0.930 . S
C543 C538 1.390 . S
C543 C542 1.387 . S
C125 C62 1.478 . S
C137 C6 1.503 . S
C152 C20 1.475 . S
C164 C76 1.503 . S
C179 C34 1.511 . S
C191 C90 1.477 . S
C206 C104 1.508 . S
C218 C48 1.475 . S
C233 C7 1.301 . S
C245 C35 1.318 . S
C260 C21 1.349 . S
C272 C49 1.334 . S
C287 C91 1.330 . S
C299 C63 1.349 . S
C314 C77 1.335 . S
C326 C105 1.303 . S
C341 C79 1.322 . S
C353 C8 1.287 . S
C368 C22 1.343 . S
C380 C93 1.343 . S
C395 C36 1.307 . S
C407 C107 1.325 . S
C422 C65 1.386 . S
C434 C50 1.356 . S
C449 C64 1.302 . S
C461 C23 1.382 . S
C476 C78 1.296 . S
C488 C37 1.326 . S
C503 C92 1.279 . S
C515 C51 1.368 . S
C530 C9 1.386 . S
C542 C106 1.314 . S
