# Generated by pormake.
# Topology qtz-e, (6)-cn, num edge types: 1
# Building blocks:
#     Node 0, Type 0, BuildingBlock: PAMTUU_clean_sbu_0, # of connection points: 6
#     Node 1, Type 0, BuildingBlock: PAMTUU_clean_sbu_0, # of connection points: 6
#     Node 2, Type 0, BuildingBlock: PAMTUU_clean_sbu_0, # of connection points: 6
#     Node 3, Type 0, BuildingBlock: PAMTUU_clean_sbu_0, # of connection points: 6
#     Node 4, Type 0, BuildingBlock: PAMTUU_clean_sbu_0, # of connection points: 6
#     Node 5, Type 0, BuildingBlock: PAMTUU_clean_sbu_0, # of connection points: 6
#     Edge 6, Type (0, 0), BuildingBlock: ZUJKAS_clean_linker_0, # of connection points: 2
#     Edge 7, Type (0, 0), BuildingBlock: ZUJKAS_clean_linker_0, # of connection points: 2
#     Edge 8, Type (0, 0), BuildingBlock: ZUJKAS_clean_linker_0, # of connection points: 2
#     Edge 9, Type (0, 0), BuildingBlock: ZUJKAS_clean_linker_0, # of connection points: 2
#     Edge 10, Type (0, 0), BuildingBlock: ZUJKAS_clean_linker_0, # of connection points: 2
#     Edge 11, Type (0, 0), BuildingBlock: ZUJKAS_clean_linker_0, # of connection points: 2
#     Edge 12, Type (0, 0), BuildingBlock: ZUJKAS_clean_linker_0, # of connection points: 2
#     Edge 13, Type (0, 0), BuildingBlock: ZUJKAS_clean_linker_0, # of connection points: 2
#     Edge 14, Type (0, 0), BuildingBlock: ZUJKAS_clean_linker_0, # of connection points: 2
#     Edge 15, Type (0, 0), BuildingBlock: ZUJKAS_clean_linker_0, # of connection points: 2
#     Edge 16, Type (0, 0), BuildingBlock: ZUJKAS_clean_linker_0, # of connection points: 2
#     Edge 17, Type (0, 0), BuildingBlock: ZUJKAS_clean_linker_0, # of connection points: 2
#     Edge 18, Type (0, 0), BuildingBlock: ZUJKAS_clean_linker_0, # of connection points: 2
#     Edge 19, Type (0, 0), BuildingBlock: ZUJKAS_clean_linker_0, # of connection points: 2
#     Edge 20, Type (0, 0), BuildingBlock: ZUJKAS_clean_linker_0, # of connection points: 2
#     Edge 21, Type (0, 0), BuildingBlock: ZUJKAS_clean_linker_0, # of connection points: 2
#     Edge 22, Type (0, 0), BuildingBlock: ZUJKAS_clean_linker_0, # of connection points: 2
#     Edge 23, Type (0, 0), BuildingBlock: ZUJKAS_clean_linker_0, # of connection points: 2
# Relax obj value: 0.168
# Max RMSD: 0.200
# Mean RMSD: 0.200
data_MOF--net-qtz-e--node1-PAMTUU_clean_sbu_0--edge1-ZUJKAS_clean_linker_0
_symmetry_space_group_name_H-M    P1
_symmetry_Int_Tables_number       1
_symmetry_cell_setting            triclinic
loop_
_symmetry_equiv_pos_as_xyz
'x, y, z'
_cell_length_a     34.403023
_cell_length_b     34.377452
_cell_length_c     61.991293
_cell_angle_alpha  89.978149
_cell_angle_beta   90.068672
_cell_angle_gamma 120.02345
loop_
_atom_site_label
_atom_site_type_symbol
_atom_site_fract_x
_atom_site_fract_y
_atom_site_fract_z
_atom_type_partial_charge
Tb0 Tb 0.19707 0.3525 0.07766 0.0
Tb1 Tb 0.25196 0.45118 0.05297 0.0
C2 C 0.30103 0.41292 0.07873 0.0
C3 C 0.13691 0.26927 0.12057 0.0
C4 C 0.09954 0.24835 0.1624 0.0
C5 C 0.11467 0.2216 0.15239 0.0
C6 C 0.13312 0.23195 0.13163 0.0
C7 C 0.12252 0.29646 0.13064 0.0
C8 C 0.10393 0.28605 0.15132 0.0
C9 C 0.1559 0.27979 0.09863 0.0
O10 O 0.19199 0.39986 0.09905 0.0
O11 O 0.25202 0.46645 0.08706 0.0
O12 O 0.18416 0.43671 0.05828 0.0
O13 O 0.1483 0.3598 0.05836 0.0
O14 O 0.31177 0.51216 0.0474 0.0
O15 O 0.24972 0.4976 0.03189 0.0
O16 O 0.23048 0.40062 0.02788 0.0
O17 O 0.22189 0.34 0.04762 0.0
O18 O 0.26485 0.39032 0.09049 0.0
O19 O 0.29859 0.42775 0.05961 0.0
C20 C 0.22135 0.44279 0.10166 0.0
O21 O 0.13664 0.29401 0.08521 0.0
O22 O 0.19943 0.30369 0.09735 0.0
C23 C 0.14797 0.39751 0.05597 0.0
C24 C 0.31578 0.54334 0.01285 0.0
C25 C 0.35191 0.57605 0.97171 0.0
C26 C 0.3429 0.60235 0.98595 0.0
C27 C 0.32502 0.58612 0.00634 0.0
C28 C 0.32553 0.51716 0.99894 0.0
C29 C 0.34377 0.53356 0.97852 0.0
C30 C 0.29264 0.52561 0.03342 0.0
C31 C 0.22748 0.36103 0.02911 0.0
H32 H 0.11145 0.19215 0.16044 0.0
H33 H 0.14415 0.21066 0.12415 0.0
H34 H 0.12541 0.32563 0.12246 0.0
H35 H 0.09324 0.30772 0.15869 0.0
H36 H 0.34941 0.63544 0.98126 0.0
H37 H 0.31748 0.60662 0.01687 0.0
H38 H 0.3181 0.48379 1.00368 0.0
H39 H 0.35017 0.5125 0.96781 0.0
Tb40 Tb 0.77905 0.14444 0.45251 0.0
Tb41 Tb 0.75291 0.20379 0.48543 0.0
C42 C 0.67988 0.11769 0.46398 0.0
C43 C 0.82852 0.11233 0.40782 0.0
C44 C 0.87968 0.13488 0.36958 0.0
C45 C 0.85261 0.08968 0.37577 0.0
C46 C 0.82727 0.07854 0.39473 0.0
C47 C 0.85602 0.15752 0.40197 0.0
C48 C 0.88152 0.16872 0.38305 0.0
C49 C 0.79889 0.10012 0.42671 0.0
O50 O 0.78956 0.20195 0.4337 0.0
O51 O 0.74429 0.2217 0.45259 0.0
O52 O 0.81992 0.24994 0.47467 0.0
O53 O 0.8429 0.20068 0.46345 0.0
O54 O 0.70724 0.2241 0.49488 0.0
O55 O 0.76956 0.24687 0.51211 0.0
O56 O 0.77662 0.16752 0.50506 0.0
O57 O 0.75756 0.10757 0.48278 0.0
O58 O 0.70812 0.12255 0.44858 0.0
O59 O 0.69426 0.13783 0.48259 0.0
C60 C 0.76701 0.22339 0.43516 0.0
O61 O 0.8184 0.115 0.44534 0.0
O62 O 0.76442 0.10577 0.42436 0.0
C63 C 0.85141 0.24119 0.46895 0.0
C64 C 0.7068 0.23382 0.53248 0.0
C65 C 0.66237 0.21327 0.57253 0.0
C66 C 0.69257 0.2581 0.56681 0.0
C67 C 0.71453 0.26825 0.54693 0.0
C68 C 0.677 0.18895 0.53814 0.0
C69 C 0.65474 0.17877 0.55799 0.0
C70 C 0.73088 0.24518 0.51185 0.0
C71 C 0.76635 0.12567 0.5021 0.0
H72 H 0.85087 0.06286 0.36589 0.0
H73 H 0.80608 0.04348 0.39897 0.0
H74 H 0.857 0.18405 0.41181 0.0
H75 H 0.90158 0.20381 0.37864 0.0
H76 H 0.69868 0.28541 0.57757 0.0
H77 H 0.73757 0.30303 0.54282 0.0
H78 H 0.67102 0.16186 0.52725 0.0
H79 H 0.63195 0.14393 0.56205 0.0
Tb80 Tb 0.63813 0.84201 0.74436 0.0
Tb81 Tb 0.54064 0.8061 0.7198 0.0
C82 C 0.58577 0.89345 0.74535 0.0
C83 C 0.72085 0.86343 0.78756 0.0
C84 C 0.74155 0.85121 0.83028 0.0
C85 C 0.77473 0.88401 0.8168 0.0
C86 C 0.76445 0.88998 0.79563 0.0
C87 C 0.68743 0.83129 0.80102 0.0
C88 C 0.69766 0.82515 0.82213 0.0
C89 C 0.71066 0.86834 0.76498 0.0
O90 O 0.58818 0.79284 0.76604 0.0
O91 O 0.52381 0.79108 0.75386 0.0
O92 O 0.54799 0.74844 0.72558 0.0
O93 O 0.62477 0.78352 0.72511 0.0
O94 O 0.485 0.81435 0.71343 0.0
O95 O 0.49069 0.76021 0.6991 0.0
O96 O 0.5912 0.82818 0.6947 0.0
O97 O 0.65315 0.87879 0.71399 0.0
O98 O 0.60524 0.87689 0.75747 0.0
O99 O 0.57205 0.8774 0.72597 0.0
C100 C 0.54593 0.78194 0.7685 0.0
O101 O 0.69052 0.83125 0.75389 0.0
O102 O 0.69246 0.89316 0.76167 0.0
C103 C 0.58514 0.74717 0.72335 0.0
C104 C 0.45663 0.79163 0.67816 0.0
C105 C 0.4306 0.80199 0.63645 0.0
C106 C 0.47502 0.81251 0.64054 0.0
C107 C 0.488 0.80758 0.66126 0.0
C108 C 0.41272 0.78244 0.6743 0.0
C109 C 0.3998 0.78772 0.65363 0.0
C110 C 0.46847 0.78171 0.69941 0.0
C111 C 0.63187 0.86322 0.69557 0.0
H112 H 0.80869 0.90517 0.82262 0.0
H113 H 0.79064 0.91508 0.7855 0.0
H114 H 0.65356 0.81041 0.79509 0.0
H115 H 0.67135 0.79917 0.83187 0.0
H116 H 0.49957 0.82408 0.62767 0.0
H117 H 0.52219 0.81511 0.66398 0.0
H118 H 0.38811 0.77005 0.68716 0.0
H119 H 0.36527 0.77903 0.65091 0.0
Tb120 Tb 0.83931 0.63081 0.12083 0.0
Tb121 Tb 0.78451 0.53513 0.14791 0.0
C122 C 0.86191 0.55502 0.11675 0.0
C123 C 0.8664 0.71714 0.07907 0.0
C124 C 0.84458 0.74349 0.03984 0.0
C125 C 0.88759 0.76916 0.04901 0.0
C126 C 0.89837 0.75605 0.06845 0.0
C127 C 0.82328 0.69167 0.07018 0.0
C128 C 0.81243 0.70476 0.05077 0.0
C129 C 0.87887 0.70191 0.09871 0.0
O130 O 0.79455 0.58141 0.09729 0.0
O131 O 0.74427 0.52278 0.11894 0.0
O132 O 0.76456 0.58233 0.15901 0.0
O133 O 0.77187 0.61746 0.12708 0.0
O134 O 0.78347 0.47794 0.16022 0.0
O135 O 0.72823 0.48957 0.16608 0.0
O136 O 0.84611 0.57753 0.16553 0.0
O137 O 0.86032 0.64717 0.15436 0.0
O138 O 0.87932 0.59777 0.12144 0.0
O139 O 0.82031 0.5259 0.12165 0.0
C140 C 0.75688 0.54296 0.10006 0.0
O141 O 0.85543 0.69779 0.11597 0.0
O142 O 0.88453 0.66745 0.0961 0.0
C143 C 0.75039 0.60144 0.14527 0.0
C144 C 0.74673 0.45399 0.19358 0.0
C145 C 0.75024 0.42837 0.23642 0.0
C146 C 0.71265 0.40183 0.22334 0.0
C147 C 0.71102 0.4145 0.20207 0.0
C148 C 0.78365 0.48142 0.20678 0.0
C149 C 0.78548 0.46861 0.22799 0.0
C150 C 0.74611 0.4649 0.17069 0.0
C151 C 0.86565 0.62122 0.16821 0.0
H152 H 0.91294 0.79944 0.04116 0.0
H153 H 0.93186 0.77602 0.07506 0.0
H154 H 0.79825 0.66126 0.07809 0.0
H155 H 0.77921 0.6839 0.04404 0.0
H156 H 0.68519 0.37045 0.2293 0.0
H157 H 0.6823 0.39293 0.1921 0.0
H158 H 0.81147 0.51223 0.20054 0.0
H159 H 0.81462 0.49 0.23776 0.0
Tb160 Tb 0.14195 0.78428 0.41255 0.0
Tb161 Tb 0.20539 0.75665 0.38309 0.0
C162 C 0.11697 0.6847 0.4029 0.0
C163 C 0.1083 0.83321 0.45642 0.0
C164 C 0.13057 0.88083 0.49585 0.0
C165 C 0.0858 0.85749 0.48852 0.0
C166 C 0.07478 0.83377 0.469 0.0
C167 C 0.15311 0.85726 0.46338 0.0
C168 C 0.16415 0.88081 0.48291 0.0
C169 C 0.09621 0.80495 0.43695 0.0
O170 O 0.19774 0.79652 0.43307 0.0
O171 O 0.21975 0.75037 0.41686 0.0
O172 O 0.2494 0.82507 0.39286 0.0
O173 O 0.19866 0.84778 0.40176 0.0
O174 O 0.22658 0.71031 0.37637 0.0
O175 O 0.2525 0.77218 0.35836 0.0
O176 O 0.16999 0.77661 0.36072 0.0
O177 O 0.10892 0.76324 0.38128 0.0
O178 O 0.12044 0.7136 0.41769 0.0
O179 O 0.13908 0.69836 0.38475 0.0
C180 C 0.2195 0.77424 0.43344 0.0
O181 O 0.11416 0.82552 0.41888 0.0
O182 O 0.09874 0.76862 0.43905 0.0
C183 C 0.2396 0.85647 0.39723 0.0
C184 C 0.24515 0.70926 0.33992 0.0
C185 C 0.23569 0.66442 0.30059 0.0
C186 C 0.27769 0.68771 0.3109 0.0
C187 C 0.28232 0.7099 0.33041 0.0
C188 C 0.20305 0.68601 0.32981 0.0
C189 C 0.19832 0.66358 0.3103 0.0
C190 C 0.25123 0.73379 0.36013 0.0
C191 C 0.12853 0.76852 0.36244 0.0
H192 H 0.05907 0.85639 0.49818 0.0
H193 H 0.03997 0.81507 0.46397 0.0
H194 H 0.17948 0.85718 0.45389 0.0
H195 H 0.199 0.89888 0.48791 0.0
H196 H 0.30695 0.68844 0.30399 0.0
H197 H 0.31503 0.72771 0.33804 0.0
H198 H 0.17404 0.68548 0.33694 0.0
H199 H 0.16564 0.64626 0.30263 0.0
Tb200 Tb 0.34939 0.19952 0.7869 0.0
Tb201 Tb 0.44467 0.23767 0.81444 0.0
C202 C 0.42756 0.29778 0.78347 0.0
C203 C 0.26461 0.14294 0.7443 0.0
C204 C 0.24042 0.09703 0.70439 0.0
C205 C 0.21464 0.11443 0.71334 0.0
C206 C 0.22674 0.13728 0.73309 0.0
C207 C 0.28999 0.12497 0.73568 0.0
C208 C 0.27806 0.10229 0.71591 0.0
C209 C 0.27921 0.16996 0.76419 0.0
O210 O 0.3986 0.20248 0.76383 0.0
O211 O 0.45612 0.20859 0.78572 0.0
O212 O 0.39531 0.17075 0.82492 0.0
O213 O 0.36085 0.14402 0.79286 0.0
O214 O 0.50397 0.29257 0.82593 0.0
O215 O 0.48713 0.22484 0.83403 0.0
O216 O 0.40349 0.25868 0.83173 0.0
O217 O 0.33328 0.20461 0.82041 0.0
O218 O 0.38437 0.27275 0.78736 0.0
O219 O 0.45552 0.28382 0.78845 0.0
C220 C 0.43599 0.20129 0.76683 0.0
O221 O 0.28215 0.14983 0.78146 0.0
O222 O 0.31419 0.2099 0.76202 0.0
C223 C 0.37717 0.13802 0.81085 0.0
C224 C 0.52593 0.28146 0.86016 0.0
C225 C 0.55388 0.31636 0.90209 0.0
C226 C 0.57851 0.30156 0.88988 0.0
C227 C 0.56471 0.28442 0.86908 0.0
C228 C 0.5002 0.29449 0.87252 0.0
C229 C 0.51409 0.31189 0.89329 0.0
C230 C 0.51434 0.26749 0.83755 0.0
C231 C 0.35976 0.23548 0.83434 0.0
H232 H 0.18579 0.11145 0.70481 0.0
H233 H 0.20699 0.15126 0.73942 0.0
H234 H 0.31938 0.12902 0.74412 0.0
H235 H 0.29832 0.08885 0.70965 0.0
H236 H 0.60877 0.3036 0.8963 0.0
H237 H 0.58485 0.27432 0.85979 0.0
H238 H 0.47007 0.29238 0.86589 0.0
H239 H 0.49446 0.32325 0.90211 0.0
H240 H 0.16948 0.58065 0.28815 0.0
H241 H 0.1646 0.5416 0.25428 0.0
H242 H 0.28663 0.65708 0.23214 0.0
H243 H 0.29178 0.69618 0.26586 0.0
H244 H 0.16021 0.56498 0.21148 0.0
H245 H 0.31424 0.55514 0.22586 0.0
H246 H 0.28727 0.56939 0.24688 0.0
H247 H 0.32314 0.61113 0.22764 0.0
C248 C 0.19507 0.5978 0.27598 0.0
C249 C 0.23128 0.6413 0.27975 0.0
C250 C 0.19233 0.57542 0.2567 0.0
C251 C 0.22575 0.59613 0.24091 0.0
C252 C 0.26113 0.64005 0.24436 0.0
H253 H 0.2796 0.52901 0.11456 0.0
H254 H 0.27833 0.56522 0.14826 0.0
C255 C 0.264 0.66235 0.26362 0.0
C256 C 0.22373 0.57199 0.22078 0.0
H257 H 0.28258 0.53583 0.19067 0.0
C258 C 0.18676 0.55828 0.20697 0.0
C259 C 0.25841 0.56324 0.21501 0.0
C260 C 0.29781 0.57508 0.22971 0.0
C261 C 0.18418 0.53715 0.18721 0.0
C262 C 0.21923 0.5291 0.18131 0.0
C263 C 0.25591 0.54233 0.19522 0.0
C264 C 0.21878 0.50724 0.16067 0.0
C265 C 0.1446 0.52464 0.17255 0.0
C266 C 0.18584 0.46254 0.15659 0.0
C267 C 0.18644 0.44168 0.13735 0.0
C268 C 0.22014 0.46513 0.12187 0.0
C269 C 0.25307 0.50997 0.12606 0.0
C270 C 0.25247 0.53074 0.14532 0.0
H271 H 0.12598 0.54207 0.17714 0.0
H272 H 0.15563 0.53291 0.15551 0.0
H273 H 0.12109 0.4879 0.17359 0.0
H274 H 0.16002 0.44359 0.16842 0.0
H275 H 0.16061 0.40711 0.13471 0.0
H276 H 0.39848 0.17055 0.72717 0.0
H277 H 0.4342 0.16111 0.69523 0.0
H278 H 0.55624 0.20395 0.7314 0.0
H279 H 0.5203 0.21216 0.76366 0.0
H280 H 0.50435 0.22699 0.67522 0.0
H281 H 0.54722 0.09788 0.69964 0.0
H282 H 0.50898 0.10873 0.71491 0.0
H283 H 0.56868 0.14442 0.718 0.0
C284 C 0.43273 0.1774 0.72846 0.0
C285 C 0.45665 0.19243 0.74795 0.0
C286 C 0.45308 0.17188 0.71017 0.0
C287 C 0.49776 0.1814 0.71095 0.0
C288 C 0.52142 0.1954 0.73051 0.0
H289 H 0.69702 0.24803 0.61221 0.0
H290 H 0.65584 0.23589 0.6461 0.0
C291 C 0.50092 0.20048 0.74891 0.0
C292 C 0.5207 0.18092 0.6908 0.0
H293 H 0.58303 0.13992 0.66761 0.0
C294 C 0.52107 0.2075 0.67351 0.0
C295 C 0.54265 0.15558 0.6886 0.0
C296 C 0.54154 0.1247 0.7062 0.0
C297 C 0.54347 0.21014 0.65424 0.0
C298 C 0.5661 0.1856 0.65222 0.0
C299 C 0.5656 0.15871 0.66935 0.0
C300 C 0.59128 0.18875 0.63243 0.0
C301 C 0.54364 0.23979 0.63624 0.0
C302 C 0.56846 0.16566 0.61373 0.0
C303 C 0.5918 0.17255 0.59437 0.0
C304 C 0.63826 0.20291 0.59343 0.0
C305 C 0.66115 0.22488 0.61241 0.0
C306 C 0.63782 0.21774 0.63178 0.0
H307 H 0.52772 0.25971 0.64108 0.0
H308 H 0.57862 0.26321 0.63099 0.0
H309 H 0.52512 0.21867 0.62215 0.0
H310 H 0.53244 0.14332 0.61401 0.0
H311 H 0.57323 0.15543 0.57998 0.0
H312 H 0.32059 0.61491 0.94357 0.0
H313 H 0.34971 0.64551 0.90781 0.0
H314 H 0.45043 0.60652 0.91442 0.0
H315 H 0.4209 0.57517 0.95016 0.0
H316 H 0.43224 0.71336 0.89775 0.0
H317 H 0.40101 0.55861 0.85506 0.0
H318 H 0.37619 0.55722 0.88089 0.0
H319 H 0.43331 0.56904 0.8793 0.0
C320 C 0.34887 0.61273 0.93737 0.0
C321 C 0.36858 0.59275 0.94966 0.0
C322 C 0.36535 0.63008 0.91691 0.0
C323 C 0.40187 0.62781 0.90832 0.0
C324 C 0.42152 0.60766 0.9205 0.0
H325 H 0.57456 0.7432 0.79825 0.0
H326 H 0.5376 0.7055 0.8317 0.0
C327 C 0.40477 0.58992 0.94093 0.0
C328 C 0.42075 0.64878 0.88713 0.0
H329 H 0.4477 0.62808 0.83706 0.0
C330 C 0.43525 0.69461 0.88442 0.0
C331 C 0.42462 0.62424 0.86975 0.0
C332 C 0.40756 0.57446 0.87127 0.0
C333 C 0.45445 0.71683 0.86498 0.0
C334 C 0.45889 0.69244 0.84776 0.0
C335 C 0.44418 0.64659 0.85035 0.0
C336 C 0.48023 0.71442 0.82716 0.0
C337 C 0.47094 0.76646 0.86318 0.0
C338 C 0.45984 0.73146 0.81341 0.0
C339 C 0.4809 0.75313 0.79421 0.0
C340 C 0.52273 0.75817 0.78851 0.0
C341 C 0.54262 0.74041 0.80223 0.0
C342 C 0.52147 0.71861 0.82132 0.0
H343 H 0.47271 0.78197 0.87914 0.0
H344 H 0.5047 0.78426 0.85561 0.0
H345 H 0.44761 0.77157 0.85276 0.0
H346 H 0.4277 0.72803 0.81756 0.0
H347 H 0.46463 0.76631 0.78398 0.0
H348 H 0.82701 0.25437 0.402 0.0
H349 H 0.82599 0.29517 0.36998 0.0
H350 H 0.70679 0.29285 0.39336 0.0
H351 H 0.70823 0.25293 0.4258 0.0
H352 H 0.76123 0.26551 0.33969 0.0
H353 H 0.78297 0.42292 0.37567 0.0
H354 H 0.79338 0.38398 0.39062 0.0
H355 H 0.73691 0.37304 0.38691 0.0
C356 C 0.80075 0.26285 0.40044 0.0
C357 C 0.76758 0.25031 0.41641 0.0
C358 C 0.80028 0.28625 0.38213 0.0
C359 C 0.7666 0.2975 0.37934 0.0
C360 C 0.7337 0.28547 0.39538 0.0
H361 H 0.68519 0.39253 0.26759 0.0
H362 H 0.68955 0.36219 0.30278 0.0
C363 C 0.73441 0.26242 0.41386 0.0
C364 C 0.76446 0.31915 0.359 0.0
H365 H 0.76286 0.41064 0.33844 0.0
C366 C 0.76186 0.29737 0.33944 0.0
C367 C 0.76522 0.36072 0.35869 0.0
C368 C 0.7702 0.38679 0.37907 0.0
C369 C 0.75956 0.31577 0.31961 0.0
C370 C 0.76 0.35705 0.31933 0.0
C371 C 0.7624 0.37887 0.33882 0.0
C372 C 0.75837 0.37805 0.2988 0.0
C373 C 0.75624 0.29082 0.29904 0.0
C374 C 0.79589 0.39754 0.28517 0.0
C375 C 0.79356 0.41493 0.26514 0.0
C376 C 0.75355 0.41289 0.25836 0.0
C377 C 0.7163 0.39417 0.27229 0.0
C378 C 0.71879 0.37708 0.29241 0.0
H379 H 0.7494 0.25613 0.30219 0.0
H380 H 0.72924 0.28909 0.28854 0.0
H381 H 0.78835 0.30919 0.29007 0.0
H382 H 0.82673 0.3986 0.2899 0.0
H383 H 0.82266 0.4287 0.25469 0.0
H384 H 0.44769 0.76921 0.59981 0.0
H385 H 0.41876 0.76705 0.56342 0.0
H386 H 0.34999 0.83476 0.58654 0.0
H387 H 0.379 0.8373 0.62296 0.0
H388 H 0.32273 0.72513 0.55325 0.0
H389 H 0.42024 0.90592 0.53126 0.0
H390 H 0.43811 0.88147 0.5521 0.0
H391 H 0.39419 0.89392 0.55742 0.0
C392 C 0.42706 0.78434 0.59705 0.0
C393 C 0.41567 0.80355 0.61419 0.0
C394 C 0.41041 0.78286 0.57631 0.0
C395 C 0.38266 0.80111 0.57232 0.0
C396 C 0.37185 0.821 0.58929 0.0
H397 H 0.22552 0.81951 0.47059 0.0
H398 H 0.26728 0.8246 0.50319 0.0
C399 C 0.38815 0.82215 0.61007 0.0
C400 C 0.36276 0.79708 0.55072 0.0
H401 H 0.3588 0.85876 0.50855 0.0
C402 C 0.33088 0.75421 0.54331 0.0
C403 C 0.37357 0.83517 0.53794 0.0
C404 C 0.40866 0.88176 0.54492 0.0
C405 C 0.3081 0.74854 0.52374 0.0
C406 C 0.31833 0.78675 0.51109 0.0
C407 C 0.35106 0.82954 0.51829 0.0
C408 C 0.29358 0.78343 0.49098 0.0
C409 C 0.27199 0.70197 0.51722 0.0
C410 C 0.29481 0.75882 0.47318 0.0
C411 C 0.27068 0.75559 0.45443 0.0
C412 C 0.2452 0.77721 0.45314 0.0
C413 C 0.24461 0.80227 0.47096 0.0
C414 C 0.26859 0.80537 0.48965 0.0
H415 H 0.26142 0.67795 0.53091 0.0
H416 H 0.24204 0.70246 0.51088 0.0
H417 H 0.28502 0.68934 0.50426 0.0
H418 H 0.31458 0.7423 0.47376 0.0
H419 H 0.27211 0.73629 0.44096 0.0
H420 H 0.68302 0.45856 0.09768 0.0
H421 H 0.64198 0.41846 0.06524 0.0
H422 H 0.72612 0.53501 0.0266 0.0
H423 H 0.76756 0.57552 0.05885 0.0
H424 H 0.62591 0.48557 0.01777 0.0
H425 H 0.70697 0.3801 0.01824 0.0
H426 H 0.68203 0.38413 0.04305 0.0
H427 H 0.7304 0.4329 0.03252 0.0
C428 C 0.69261 0.47591 0.08234 0.0
C429 C 0.72901 0.52013 0.08086 0.0
C430 C 0.66912 0.45287 0.06383 0.0
C431 C 0.68142 0.47369 0.04358 0.0
C432 C 0.7163 0.51839 0.04213 0.0
H433 H 0.64078 0.37463 0.9139 0.0
H434 H 0.66864 0.41094 0.94879 0.0
C435 C 0.74001 0.54141 0.06059 0.0
C436 C 0.65966 0.44818 0.02372 0.0
H437 H 0.65493 0.36672 0.99051 0.0
C438 C 0.63189 0.45934 0.01184 0.0
C439 C 0.66806 0.41438 0.01602 0.0
C440 C 0.69868 0.40213 0.02796 0.0
C441 C 0.61229 0.4375 0.99232 0.0
C442 C 0.6207 0.40369 0.98462 0.0
C443 C 0.64836 0.39248 0.99657 0.0
C444 C 0.60308 0.38114 0.96363 0.0
C445 C 0.58376 0.45152 0.97973 0.0
C446 C 0.55696 0.35194 0.96052 0.0
C447 C 0.54087 0.33059 0.94062 0.0
C448 C 0.57068 0.33809 0.92349 0.0
C449 C 0.61691 0.36735 0.9268 0.0
C450 C 0.63291 0.38845 0.94669 0.0
H451 H 0.58663 0.4831 0.98605 0.0
H452 H 0.59351 0.45633 0.96244 0.0
H453 H 0.54805 0.42462 0.98074 0.0
H454 H 0.53349 0.3454 0.97353 0.0
H455 H 0.50516 0.30784 0.93874 0.0
H456 H 0.3202 0.40321 0.12054 0.0
H457 H 0.39446 0.43516 0.13722 0.0
H458 H 0.45666 0.48844 0.07567 0.0
H459 H 0.3827 0.45672 0.05878 0.0
H460 H 0.49387 0.44273 0.10142 0.0
H461 H 0.4781 0.57481 0.14609 0.0
H462 H 0.43292 0.51775 0.14877 0.0
H463 H 0.44312 0.54552 0.12318 0.0
C464 C 0.34965 0.42129 0.11048 0.0
C465 C 0.34558 0.42766 0.08834 0.0
C466 C 0.39198 0.43973 0.12009 0.0
C467 C 0.43078 0.46463 0.1077 0.0
C468 C 0.42693 0.46951 0.08548 0.0
H469 H 0.71038 0.6374 0.12078 0.0
H470 H 0.62966 0.60561 0.11568 0.0
C471 C 0.38468 0.45134 0.07587 0.0
C472 C 0.4756 0.48638 0.11784 0.0
H473 H 0.54597 0.57415 0.15021 0.0
C474 C 0.50517 0.47114 0.11226 0.0
C475 C 0.49006 0.52361 0.13184 0.0
C476 C 0.45965 0.54178 0.1378 0.0
C477 C 0.54924 0.49259 0.12015 0.0
C478 C 0.56384 0.5301 0.13395 0.0
C479 C 0.53421 0.54506 0.13979 0.0
C480 C 0.61106 0.55589 0.14085 0.0
C481 C 0.58052 0.47602 0.11324 0.0
C482 C 0.62685 0.53982 0.15748 0.0
C483 C 0.67297 0.55808 0.16056 0.0
C484 C 0.70369 0.59216 0.14679 0.0
C485 C 0.68756 0.61094 0.13152 0.0
C486 C 0.64149 0.59288 0.12858 0.0
H487 H 0.56444 0.44759 0.10167 0.0
H488 H 0.61099 0.50377 0.10559 0.0
H489 H 0.5916 0.46483 0.12761 0.0
H490 H 0.60358 0.51123 0.16708 0.0
H491 H 0.68428 0.54294 0.17251 0.0
H492 H 0.07371 0.64377 0.44028 0.0
H493 H 0.04072 0.56448 0.44973 0.0
H494 H 0.07349 0.53641 0.38666 0.0
H495 H 0.1063 0.61565 0.3769 0.0
H496 H 0.98609 0.4749 0.40052 0.0
H497 H 0.11215 0.50048 0.46291 0.0
H498 H 0.08745 0.53523 0.46677 0.0
H499 H 0.12108 0.54293 0.44322 0.0
C500 C 0.07367 0.62076 0.42833 0.0
C501 C 0.09287 0.63612 0.40788 0.0
C502 C 0.05521 0.57555 0.43385 0.0
C503 C 0.05576 0.54493 0.41907 0.0
C504 C 0.07332 0.55972 0.39837 0.0
H505 H 0.91 0.25166 0.43672 0.0
H506 H 0.97061 0.32397 0.42338 0.0
C507 C 0.09188 0.60498 0.39282 0.0
C508 C 0.03686 0.49726 0.42516 0.0
H509 H 0.04339 0.42953 0.46353 0.0
C510 C -0.00095 0.46469 0.414 0.0
C511 C 0.05423 0.48422 0.44266 0.0
C512 C 0.09625 0.51748 0.45446 0.0
C513 C 0.97618 0.41977 0.42083 0.0
C514 C 0.99224 0.40718 0.43905 0.0
C515 C 0.03141 0.43932 0.44951 0.0
C516 C 0.96482 0.36285 0.44934 0.0
C517 C 0.93339 0.3868 0.40939 0.0
C518 C 0.94398 0.36072 0.46906 0.0
C519 C 0.90971 0.31974 0.47669 0.0
C520 C 0.896 0.28022 0.46479 0.0
C521 C 0.92014 0.28164 0.44625 0.0
C522 C 0.9544 0.3229 0.43851 0.0
H523 H 0.92245 0.40349 0.39745 0.0
H524 H 0.93874 0.36162 0.40073 0.0
H525 H 0.90585 0.36853 0.4212 0.0
H526 H 0.95175 0.39119 0.47769 0.0
H527 H 0.89168 0.31943 0.49107 0.0
H528 H 0.43275 0.12851 0.83948 0.0
H529 H 0.47081 0.08549 0.83324 0.0
H530 H 0.3903 0.02643 0.7764 0.0
H531 H 0.35202 0.06906 0.78237 0.0
H532 H 0.43042 0.97934 0.81954 0.0
H533 H 0.53492 0.11537 0.7612 0.0
H534 H 0.50718 0.12442 0.78378 0.0
H535 H 0.47517 0.09329 0.76076 0.0
C536 C 0.42206 0.1053 0.82604 0.0
C537 C 0.38992 0.10285 0.81118 0.0
C538 C 0.44396 0.08087 0.8225 0.0
C539 C 0.43369 0.05355 0.8042 0.0
C540 C 0.39874 0.04771 0.79053 0.0
H541 H 0.53974 0.92861 0.72526 0.0
H542 H 0.50769 0.97059 0.74164 0.0
C543 C 0.37686 0.07204 0.79402 0.0
C544 C 0.46266 0.03534 0.7978 0.0
H545 H 0.54427 0.05184 0.76173 0.0
C546 C 0.45575 0.99527 0.80712 0.0
C547 C 0.49543 0.05651 0.78156 0.0
C548 C 0.50403 0.09992 0.77124 0.0
C549 C 0.47971 0.97458 0.7999 0.0
C550 C 0.51199 0.9953 0.78331 0.0
C551 C 0.51972 0.03619 0.77451 0.0
C552 C 0.53499 0.97309 0.77341 0.0
C553 C 0.46863 0.9297 0.80931 0.0
C554 C 0.56228 0.96185 0.78569 0.0
C555 C 0.58057 0.93751 0.77637 0.0
C556 C 0.57213 0.92443 0.75459 0.0
C557 C 0.54678 0.93792 0.74211 0.0
C558 C 0.52839 0.96195 0.75144 0.0
H559 H 0.43656 0.91403 0.81845 0.0
H560 H 0.46617 0.90613 0.79643 0.0
H561 H 0.49575 0.93441 0.82058 0.0
H562 H 0.56869 0.97111 0.80256 0.0
H563 H 0.60018 0.92786 0.78638 0.0
H564 H 0.51809 0.67309 0.70438 0.0
H565 H 0.50009 0.59557 0.71015 0.0
H566 H 0.62331 0.64242 0.74579 0.0
H567 H 0.64174 0.72052 0.73998 0.0
H568 H 0.54908 0.544 0.70465 0.0
H569 H 0.51328 0.57261 0.78905 0.0
H570 H 0.51872 0.60973 0.76721 0.0
H571 H 0.56775 0.61139 0.77824 0.0
C572 C 0.54203 0.66692 0.71288 0.0
C573 C 0.58107 0.7026 0.72193 0.0
C574 C 0.53174 0.62269 0.71611 0.0
C575 C 0.56012 0.61351 0.7286 0.0
C576 C 0.601 0.6491 0.73616 0.0
H577 H 0.51173 0.35086 0.76753 0.0
H578 H 0.54379 0.42651 0.7528 0.0
C579 C 0.61159 0.69357 0.73274 0.0
C580 C 0.54353 0.56716 0.73612 0.0
H581 H 0.49745 0.49974 0.78009 0.0
C582 C 0.53822 0.53425 0.72118 0.0
C583 C 0.52851 0.55471 0.75758 0.0
C584 C 0.53195 0.58874 0.77401 0.0
C585 C 0.51831 0.48891 0.72722 0.0
C586 C 0.50351 0.47657 0.74871 0.0
C587 C 0.50885 0.50951 0.76362 0.0
C588 C 0.48291 0.42967 0.75624 0.0
C589 C 0.51225 0.45436 0.71055 0.0
C590 C 0.43807 0.40661 0.76318 0.0
C591 C 0.41949 0.36322 0.77165 0.0
C592 C 0.44578 0.34262 0.77356 0.0
C593 C 0.49057 0.3658 0.76636 0.0
C594 C 0.50894 0.40893 0.75779 0.0
H595 H 0.51696 0.4679 0.69388 0.0
H596 H 0.53733 0.44361 0.71341 0.0
H597 H 0.47831 0.42419 0.71183 0.0
H598 H 0.41764 0.4224 0.7622 0.0
H599 H 0.38495 0.34626 0.77708 0.0
H600 H 0.08118 0.36388 0.08519 0.0
H601 H 0.02254 0.38373 0.08843 0.0
H602 H 0.06098 0.45085 0.0267 0.0
H603 H 0.12194 0.43376 0.02439 0.0
H604 H 0.06094 0.50492 0.05352 0.0
H605 H 0.9021 0.34772 0.06697 0.0
H606 H 0.94247 0.35063 0.08608 0.0
H607 H 0.9517 0.34769 0.0576 0.0
C608 C 0.07576 0.38127 0.07196 0.0
C609 C 0.10532 0.39692 0.05443 0.0
C610 C 0.04212 0.39251 0.07375 0.0
C611 C 0.03677 0.41837 0.05768 0.0
C612 C 0.06434 0.43088 0.0393 0.0
H613 H 0.83199 0.4905 0.08611 0.0
H614 H 0.87403 0.46001 0.06803 0.0
C615 C 0.09884 0.42082 0.03786 0.0
C616 C 0.00776 0.4382 0.06168 0.0
H617 H 0.90726 0.41497 0.08314 0.0
C618 C 0.02691 0.48498 0.05952 0.0
C619 C 0.9631 0.41248 0.06918 0.0
C620 C 0.93861 0.36181 0.06983 0.0
C621 C 0.00355 0.50688 0.06562 0.0
C622 C 0.96066 0.48164 0.07516 0.0
C623 C 0.94056 0.43462 0.07628 0.0
C624 C 0.93653 0.50318 0.08468 0.0
C625 C 0.02525 0.55678 0.06166 0.0
C626 C 0.9577 0.53799 0.09991 0.0
C627 C 0.93401 0.55635 0.10979 0.0
C628 C 0.88839 0.53897 0.10517 0.0
C629 C 0.86719 0.50424 0.08999 0.0
C630 C 0.89115 0.4868 0.07968 0.0
H631 H 0.04797 0.56704 0.04747 0.0
H632 H -0.00013 0.56719 0.05888 0.0
H633 H 0.04595 0.57517 0.07587 0.0
H634 H 0.99221 0.5502 0.10463 0.0
H635 H 0.95079 0.58275 0.12166 0.0
H636 H 0.24924 0.91478 0.42933 0.0
H637 H 0.32104 0.97671 0.44235 0.0
H638 H 0.38827 0.95944 0.3876 0.0
H639 H 0.31704 0.8979 0.37466 0.0
H640 H 0.386 0.95467 0.45302 0.0
H641 H 0.4562 0.09534 0.39492 0.0
H642 H 0.39692 0.0546 0.3962 0.0
H643 H 0.43465 0.04214 0.38163 0.0
C644 C 0.27904 0.92577 0.41956 0.0
C645 C 0.27784 0.90173 0.40102 0.0
C646 C 0.32002 0.96089 0.42708 0.0
C647 C 0.35992 0.97279 0.41588 0.0
C648 C 0.35786 0.95146 0.39628 0.0
H649 H 0.63713 0.07079 0.42764 0.0
H650 H 0.55782 0.03853 0.4185 0.0
C651 C 0.31716 0.91617 0.38893 0.0
C652 C 0.40413 0.00058 0.42629 0.0
H653 H 0.51033 0.08555 0.4159 0.0
C654 C 0.41303 0.98406 0.44526 0.0
C655 C 0.43924 0.0386 0.41602 0.0
C656 C 0.43116 0.05895 0.39617 0.0
C657 C 0.45682 0.00259 0.45339 0.0
C658 C 0.49236 0.03907 0.4424 0.0
C659 C 0.48303 0.05724 0.42415 0.0
C660 C 0.5398 0.05701 0.44867 0.0
C661 C 0.46506 0.98122 0.47283 0.0
C662 C 0.55575 0.07755 0.46878 0.0
C663 C 0.60102 0.09569 0.47415 0.0
C664 C 0.63118 0.09396 0.45938 0.0
C665 C 0.61484 0.07263 0.4394 0.0
C666 C 0.56958 0.05439 0.4341 0.0
H667 H 0.4355 0.94801 0.47674 0.0
H668 H 0.4945 0.97676 0.47016 0.0
H669 H 0.47231 0.00347 0.48703 0.0
H670 H 0.53341 0.08046 0.48012 0.0
H671 H 0.61256 0.11224 0.48961 0.0
H672 H 0.40209 0.30425 0.86316 0.0
H673 H 0.372 0.31668 0.89632 0.0
H674 H 0.24397 0.19871 0.88353 0.0
H675 H 0.27371 0.18624 0.84993 0.0
H676 H 0.23519 0.26959 0.89724 0.0
H677 H 0.34947 0.24695 0.952 0.0
H678 H 0.37947 0.28878 0.93181 0.0
H679 H 0.34318 0.23122 0.92389 0.0
C680 C 0.36754 0.28076 0.86735 0.0
C681 C 0.34044 0.24395 0.85394 0.0
C682 C 0.35047 0.28782 0.88643 0.0
C683 C 0.30609 0.258 0.8927 0.0
C684 C 0.27848 0.22188 0.8791 0.0
H685 H 0.22174 0.27891 0.0238 0.0
H686 H 0.23479 0.24824 0.99069 0.0
C687 C 0.29551 0.21486 0.85989 0.0
C688 C 0.28857 0.26537 0.91324 0.0
H689 H 0.31139 0.28299 0.96712 0.0
C690 C 0.25149 0.27198 0.91256 0.0
C691 C 0.30927 0.26762 0.93331 0.0
C692 C 0.34724 0.25779 0.93538 0.0
C693 C 0.23595 0.28292 0.93126 0.0
C694 C 0.25863 0.28822 0.95106 0.0
C695 C 0.29432 0.27947 0.95191 0.0
C696 C 0.24761 0.30519 0.9708 0.0
C697 C 0.19547 0.28886 0.92958 0.0
C698 C 0.25067 0.34744 0.97065 0.0
C699 C 0.24311 0.36496 0.98946 0.0
C700 C 0.23276 0.34082 0.00897 0.0
C701 C 0.22949 0.29835 0.00908 0.0
C702 C 0.23696 0.28076 0.99017 0.0
H703 H 0.17377 0.26972 0.91573 0.0
H704 H 0.17508 0.27777 0.94456 0.0
H705 H 0.20681 0.32492 0.92694 0.0
H706 H 0.26004 0.36746 0.95607 0.0
H707 H 0.24637 0.39795 0.98875 0.0
H708 H 0.9658 0.20241 0.36163 0.0
H709 H 0.00576 0.2223 0.32711 0.0
H710 H 0.88985 0.11403 0.29604 0.0
H711 H 0.84984 0.09383 0.33044 0.0
H712 H 0.96774 0.11736 0.28384 0.0
H713 H 0.98488 0.28625 0.27716 0.0
H714 H 0.00784 0.27781 0.30157 0.0
H715 H 0.94843 0.24516 0.29664 0.0
C716 C 0.94875 0.18302 0.34741 0.0
C717 C 0.90459 0.14659 0.34878 0.0
C718 C 0.97159 0.19449 0.32769 0.0
C719 C 0.95056 0.1701 0.30891 0.0
C720 C 0.90674 0.13336 0.31031 0.0
H721 H 0.02438 0.24907 0.17606 0.0
H722 H 0.98966 0.22977 0.21176 0.0
C723 C 0.88398 0.12174 0.33001 0.0
C724 C 0.97409 0.18251 0.28779 0.0
H725 H 0.02276 0.26745 0.25091 0.0
C726 C 0.97981 0.15018 0.27663 0.0
C727 C 0.98929 0.22516 0.27828 0.0
C728 C 0.98199 0.26049 0.2889 0.0
C729 C 0.0004 0.15934 0.25626 0.0
C730 C 0.01657 0.20235 0.24698 0.0
C731 C 0.01074 0.23463 0.25812 0.0
C732 C 0.03815 0.21409 0.22538 0.0
C733 C 0.00347 0.12241 0.24463 0.0
C734 C 0.07727 0.21217 0.2212 0.0
C735 C 0.09714 0.22306 0.20075 0.0
C736 C 0.07859 0.23668 0.18417 0.0
C737 C 0.03976 0.23915 0.18852 0.0
C738 C 0.01979 0.22799 0.20891 0.0
H739 H 0.97928 0.08872 0.25118 0.0
H740 H 0.99696 0.12275 0.2271 0.0
H741 H 0.03777 0.12754 0.24667 0.0
H742 H 0.09269 0.2026 0.23379 0.0
H743 H 0.12742 0.22152 0.19801 0.0
H744 H 0.70216 0.94911 0.69069 0.0
H745 H 0.72941 0.99166 0.65705 0.0
H746 H 0.63589 0.87462 0.62088 0.0
H747 H 0.60754 0.83238 0.65438 0.0
H748 H 0.76746 0.98246 0.62066 0.0
H749 H 0.60224 0.96498 0.60077 0.0
H750 H 0.61394 0.94924 0.62668 0.0
H751 H 0.59964 0.91189 0.60397 0.0
C752 C 0.68766 0.93233 0.67556 0.0
C753 C 0.65232 0.88752 0.67524 0.0
C754 C 0.70323 0.95671 0.65634 0.0
C755 C 0.68391 0.93668 0.63647 0.0
C756 C 0.65036 0.89122 0.63605 0.0
H757 H 0.72685 0.03399 0.50405 0.0
H758 H 0.71004 0.98738 0.53642 0.0
C759 C 0.63441 0.86702 0.65523 0.0
C760 C 0.69806 0.96355 0.61627 0.0
H761 H 0.65837 0.99677 0.57369 0.0
C762 C 0.74362 0.98567 0.61042 0.0
C763 C 0.66696 0.968 0.60297 0.0
C764 C 0.61807 0.94766 0.609 0.0
C765 C 0.75875 0.01156 0.5915 0.0
C766 C 0.72754 0.01538 0.57814 0.0
C767 C 0.68207 0.99328 0.58391 0.0
C768 C 0.74148 0.04355 0.55847 0.0
C769 C 0.80789 0.03445 0.58576 0.0
C770 C 0.76492 0.09051 0.5602 0.0
C771 C 0.77428 0.11724 0.54179 0.0
C772 C 0.7605 0.09745 0.52128 0.0
C773 C 0.73818 0.05034 0.51956 0.0
C774 C 0.72845 0.02363 0.53803 0.0
H775 H 0.82638 0.02214 0.59574 0.0
H776 H 0.81213 0.02904 0.56846 0.0
H777 H 0.82321 0.07117 0.58838 0.0
H778 H 0.77478 0.10646 0.57588 0.0
H779 H 0.79148 0.15339 0.54372 0.0
H780 H 0.69045 0.83176 0.86701 0.0
H781 H 0.70785 0.8157 0.90308 0.0
H782 H 0.83526 0.83694 0.88015 0.0
H783 H 0.81789 0.85213 0.84395 0.0
H784 H 0.72781 0.74686 0.91453 0.0
H785 H 0.86812 0.91724 0.93453 0.0
H786 H 0.82855 0.90724 0.91311 0.0
H787 H 0.87326 0.89534 0.90904 0.0
C788 C 0.72213 0.83286 0.86958 0.0
C789 C 0.75279 0.84336 0.85251 0.0
C790 C 0.73209 0.82391 0.89025 0.0
C791 C 0.77306 0.82569 0.89435 0.0
C792 C 0.80382 0.83628 0.87743 0.0
H793 H 0.89741 0.77423 1.00378 0.0
H794 H 0.87887 0.79401 0.96887 0.0
C795 C 0.79384 0.84507 0.85674 0.0
C796 C 0.78296 0.81481 0.91611 0.0
H797 H 0.85612 0.85828 0.95841 0.0
C798 C 0.75566 0.77126 0.92422 0.0
C799 C 0.81942 0.84669 0.92864 0.0
C800 C 0.84887 0.89439 0.92103 0.0
C801 C 0.76448 0.75837 0.94432 0.0
C802 C 0.80103 0.79023 0.95686 0.0
C803 C 0.82814 0.8339 0.94879 0.0
C804 C 0.81215 0.77876 0.97824 0.0
C805 C 0.7354 0.71037 0.95164 0.0
C806 C 0.78107 0.76428 0.99524 0.0
C807 C 0.79159 0.753 0.01525 0.0
C808 C 0.83362 0.7564 0.01872 0.0
C809 C 0.86495 0.77168 1.00175 0.0
C810 C 0.85433 0.78281 0.98174 0.0
H811 H 0.71687 0.68771 0.93796 0.0
H812 H 0.75582 0.69774 0.95966 0.0
H813 H 0.71033 0.70866 0.96342 0.0
H814 H 0.74872 0.76193 0.99308 0.0
H815 H 0.76699 0.74208 0.02807 0.0
H816 H 0.04612 0.7622 0.35779 0.0
H817 H 0.00085 0.74429 0.32487 0.0
H818 H 0.10536 0.73869 0.28906 0.0
H819 H 0.15119 0.75782 0.32156 0.0
H820 H 0.0703 0.78012 0.26619 0.0
H821 H 0.93309 0.61993 0.29932 0.0
H822 H 0.94428 0.66861 0.31475 0.0
H823 H 0.98628 0.6522 0.31286 0.0
C824 C 0.05959 0.75751 0.34287 0.0
C825 C 0.10222 0.76126 0.34237 0.0
C826 C 0.03354 0.74696 0.32408 0.0
C827 C 0.04929 0.73921 0.30457 0.0
C828 C 0.0924 0.74438 0.30392 0.0
H829 H 0.89758 0.58169 0.19573 0.0
H830 H 0.94225 0.61335 0.22829 0.0
C831 C 0.11861 0.75536 0.32258 0.0
C832 C 0.0208 0.72455 0.28485 0.0
H833 H 0.92198 0.64042 0.26452 0.0
C834 C 0.03778 0.74965 0.26582 0.0
C835 C 0.97863 0.68444 0.28432 0.0
C836 C 0.95959 0.65446 0.30383 0.0
C837 C 0.01409 0.73552 0.24624 0.0
C838 C 0.97163 0.69577 0.24579 0.0
C839 C 0.95439 0.67103 0.26489 0.0
C840 C 0.94548 0.67768 0.22552 0.0
C841 C 0.03564 0.76241 0.2261 0.0
C842 C 0.93227 0.70323 0.21303 0.0
C843 C 0.90709 0.68534 0.19416 0.0
C844 C 0.89396 0.64126 0.18763 0.0
C845 C 0.90701 0.61572 0.20026 0.0
C846 C 0.93254 0.63377 0.21894 0.0
H847 H 0.0725 0.78439 0.22806 0.0
H848 H 0.02929 0.74005 0.21202 0.0
H849 H 0.02121 0.78425 0.22256 0.0
H850 H 0.94085 0.73677 0.21803 0.0
H851 H 0.89716 0.70573 0.18494 0.0
H852 H 0.29746 0.10574 0.67151 0.0
H853 H 0.27813 0.06919 0.63616 0.0
H854 H 0.13779 0.0015 0.653 0.0
H855 H 0.15687 0.0371 0.68862 0.0
H856 H 0.1659 0.94504 0.6338 0.0
H857 H 0.2199 0.10024 0.58586 0.0
H858 H 0.26173 0.10257 0.60404 0.0
H859 H 0.211 0.09797 0.61465 0.0
C860 C 0.26248 0.0828 0.66779 0.0
C861 C 0.2287 0.07444 0.68292 0.0
C862 C 0.25147 0.06232 0.64747 0.0
C863 C 0.20648 0.03315 0.64182 0.0
C864 C 0.17271 0.02418 0.65697 0.0
H865 H 0.09838 0.93222 0.51372 0.0
H866 H 0.11588 0.9683 0.54926 0.0
C867 C 0.18366 0.04476 0.67727 0.0
C868 C 0.19467 0.01141 0.62024 0.0
H869 H 0.2006 0.03367 0.56622 0.0
C870 C 0.17337 0.96439 0.61902 0.0
C871 C 0.204 0.03669 0.60099 0.0
C872 C 0.22505 0.08714 0.60134 0.0
C873 C 0.1619 0.942 0.59906 0.0
C874 C 0.1724 0.96736 0.57978 0.0
C875 C 0.19293 0.01433 0.58101 0.0
C876 C 0.16213 0.94568 0.55819 0.0
C877 C 0.1381 0.89134 0.59875 0.0
C878 C 0.18278 0.9215 0.55131 0.0
C879 C 0.1728 0.9008 0.53104 0.0
C880 C 0.14199 0.90391 0.5172 0.0
C881 C 0.12179 0.92866 0.52407 0.0
C882 C 0.13195 0.94952 0.54432 0.0
H883 H 0.12288 0.87674 0.61464 0.0
H884 H 0.11132 0.87754 0.58627 0.0
H885 H 0.16261 0.88039 0.59481 0.0
H886 H 0.20668 0.91866 0.56162 0.0
H887 H 0.18868 0.8817 0.52637 0.0
loop_
_geom_bond_atom_site_label_1
_geom_bond_atom_site_label_2
_geom_bond_distance
_geom_bond_site_symmetry_2
_ccdc_geom_bond_type
Tb0 C9 2.764 . S
Tb0 O10 2.325 . S
Tb0 O13 2.303 . S
Tb0 O17 2.322 . S
Tb0 O18 2.349 . S
Tb0 O21 2.415 . S
Tb0 O22 2.399 . S
Tb1 O11 2.322 . S
Tb1 O12 2.349 . S
Tb1 O14 2.415 . S
Tb1 O15 2.399 . S
Tb1 O16 2.325 . S
Tb1 O19 2.303 . S
Tb1 C30 2.764 . S
C2 O18 1.261 . S
C2 O19 1.257 . S
C3 C6 1.358 . S
C3 C7 1.332 . S
C3 C9 1.504 . S
C4 C5 1.373 . S
C4 C8 1.308 . S
C5 C4 1.373 . S
C5 C6 1.429 . S
C5 H32 0.932 . S
C6 C3 1.358 . S
C6 C5 1.429 . S
C6 H33 0.930 . S
C7 C3 1.332 . S
C7 C8 1.394 . S
C7 H34 0.932 . S
C8 C4 1.308 . S
C8 C7 1.394 . S
C8 H35 0.929 . S
C9 Tb0 2.764 . S
C9 C3 1.504 . S
C9 O21 1.239 . S
C9 O22 1.263 . S
O10 Tb0 2.325 . S
O10 C20 1.236 . S
O11 Tb1 2.322 . S
O11 C20 1.257 . S
O12 Tb1 2.349 . S
O12 C23 1.261 . S
O13 Tb0 2.303 . S
O13 C23 1.257 . S
O14 Tb1 2.415 . S
O14 C30 1.239 . S
O15 Tb1 2.399 . S
O15 C30 1.263 . S
O16 Tb1 2.325 . S
O16 C31 1.236 . S
O17 Tb0 2.322 . S
O17 C31 1.257 . S
O18 Tb0 2.349 . S
O18 C2 1.261 . S
O19 Tb1 2.303 . S
O19 C2 1.257 . S
C20 O10 1.236 . S
C20 O11 1.257 . S
O21 Tb0 2.415 . S
O21 C9 1.239 . S
O22 Tb0 2.399 . S
O22 C9 1.263 . S
C23 O12 1.261 . S
C23 O13 1.257 . S
C24 C27 1.358 . S
C24 C28 1.332 . S
C24 C30 1.504 1_556 S
C25 C26 1.373 . S
C25 C29 1.308 . S
C26 C25 1.373 . S
C26 C27 1.429 . S
C26 H36 0.932 . S
C27 C24 1.358 . S
C27 C26 1.429 . S
C27 H37 0.930 . S
C28 C24 1.332 . S
C28 C29 1.394 . S
C28 H38 0.932 . S
C29 C25 1.308 . S
C29 C28 1.394 . S
C29 H39 0.929 . S
C30 Tb1 2.764 . S
C30 O14 1.239 . S
C30 O15 1.263 . S
C30 C24 1.504 1_554 S
C31 O16 1.236 . S
C31 O17 1.257 . S
H32 C5 0.932 . S
H33 C6 0.930 . S
H34 C7 0.932 . S
H35 C8 0.929 . S
H36 C26 0.932 . S
H37 C27 0.930 . S
H38 C28 0.932 . S
H39 C29 0.929 . S
Tb40 C49 2.764 . S
Tb40 O50 2.325 . S
Tb40 O53 2.303 . S
Tb40 O57 2.322 . S
Tb40 O58 2.349 . S
Tb40 O61 2.415 . S
Tb40 O62 2.399 . S
Tb41 O51 2.322 . S
Tb41 O52 2.349 . S
Tb41 O54 2.415 . S
Tb41 O55 2.399 . S
Tb41 O56 2.325 . S
Tb41 O59 2.303 . S
Tb41 C70 2.764 . S
C42 O58 1.261 . S
C42 O59 1.257 . S
C43 C46 1.358 . S
C43 C47 1.332 . S
C43 C49 1.504 . S
C44 C45 1.373 . S
C44 C48 1.308 . S
C45 C44 1.373 . S
C45 C46 1.429 . S
C45 H72 0.932 . S
C46 C43 1.358 . S
C46 C45 1.429 . S
C46 H73 0.930 . S
C47 C43 1.332 . S
C47 C48 1.394 . S
C47 H74 0.932 . S
C48 C44 1.308 . S
C48 C47 1.394 . S
C48 H75 0.929 . S
C49 Tb40 2.764 . S
C49 C43 1.504 . S
C49 O61 1.239 . S
C49 O62 1.263 . S
O50 Tb40 2.325 . S
O50 C60 1.236 . S
O51 Tb41 2.322 . S
O51 C60 1.257 . S
O52 Tb41 2.349 . S
O52 C63 1.261 . S
O53 Tb40 2.303 . S
O53 C63 1.257 . S
O54 Tb41 2.415 . S
O54 C70 1.239 . S
O55 Tb41 2.399 . S
O55 C70 1.263 . S
O56 Tb41 2.325 . S
O56 C71 1.236 . S
O57 Tb40 2.322 . S
O57 C71 1.257 . S
O58 Tb40 2.349 . S
O58 C42 1.261 . S
O59 Tb41 2.303 . S
O59 C42 1.257 . S
C60 O50 1.236 . S
C60 O51 1.257 . S
O61 Tb40 2.415 . S
O61 C49 1.239 . S
O62 Tb40 2.399 . S
O62 C49 1.263 . S
C63 O52 1.261 . S
C63 O53 1.257 . S
C64 C67 1.358 . S
C64 C68 1.332 . S
C64 C70 1.504 . S
C65 C66 1.373 . S
C65 C69 1.308 . S
C66 C65 1.373 . S
C66 C67 1.429 . S
C66 H76 0.932 . S
C67 C64 1.358 . S
C67 C66 1.429 . S
C67 H77 0.930 . S
C68 C64 1.332 . S
C68 C69 1.394 . S
C68 H78 0.932 . S
C69 C65 1.308 . S
C69 C68 1.394 . S
C69 H79 0.929 . S
C70 Tb41 2.764 . S
C70 O54 1.239 . S
C70 O55 1.263 . S
C70 C64 1.504 . S
C71 O56 1.236 . S
C71 O57 1.257 . S
H72 C45 0.932 . S
H73 C46 0.930 . S
H74 C47 0.932 . S
H75 C48 0.929 . S
H76 C66 0.932 . S
H77 C67 0.930 . S
H78 C68 0.932 . S
H79 C69 0.929 . S
Tb80 C89 2.764 . S
Tb80 O90 2.325 . S
Tb80 O93 2.303 . S
Tb80 O97 2.322 . S
Tb80 O98 2.349 . S
Tb80 O101 2.415 . S
Tb80 O102 2.399 . S
Tb81 O91 2.322 . S
Tb81 O92 2.349 . S
Tb81 O94 2.415 . S
Tb81 O95 2.399 . S
Tb81 O96 2.325 . S
Tb81 O99 2.303 . S
Tb81 C110 2.764 . S
C82 O98 1.261 . S
C82 O99 1.257 . S
C83 C86 1.358 . S
C83 C87 1.332 . S
C83 C89 1.504 . S
C84 C85 1.373 . S
C84 C88 1.308 . S
C85 C84 1.373 . S
C85 C86 1.429 . S
C85 H112 0.932 . S
C86 C83 1.358 . S
C86 C85 1.429 . S
C86 H113 0.930 . S
C87 C83 1.332 . S
C87 C88 1.394 . S
C87 H114 0.932 . S
C88 C84 1.308 . S
C88 C87 1.394 . S
C88 H115 0.929 . S
C89 Tb80 2.764 . S
C89 C83 1.504 . S
C89 O101 1.239 . S
C89 O102 1.263 . S
O90 Tb80 2.325 . S
O90 C100 1.236 . S
O91 Tb81 2.322 . S
O91 C100 1.257 . S
O92 Tb81 2.349 . S
O92 C103 1.261 . S
O93 Tb80 2.303 . S
O93 C103 1.257 . S
O94 Tb81 2.415 . S
O94 C110 1.239 . S
O95 Tb81 2.399 . S
O95 C110 1.263 . S
O96 Tb81 2.325 . S
O96 C111 1.236 . S
O97 Tb80 2.322 . S
O97 C111 1.257 . S
O98 Tb80 2.349 . S
O98 C82 1.261 . S
O99 Tb81 2.303 . S
O99 C82 1.257 . S
C100 O90 1.236 . S
C100 O91 1.257 . S
O101 Tb80 2.415 . S
O101 C89 1.239 . S
O102 Tb80 2.399 . S
O102 C89 1.263 . S
C103 O92 1.261 . S
C103 O93 1.257 . S
C104 C107 1.358 . S
C104 C108 1.332 . S
C104 C110 1.504 . S
C105 C106 1.373 . S
C105 C109 1.308 . S
C106 C105 1.373 . S
C106 C107 1.429 . S
C106 H116 0.932 . S
C107 C104 1.358 . S
C107 C106 1.429 . S
C107 H117 0.930 . S
C108 C104 1.332 . S
C108 C109 1.394 . S
C108 H118 0.932 . S
C109 C105 1.308 . S
C109 C108 1.394 . S
C109 H119 0.929 . S
C110 Tb81 2.764 . S
C110 O94 1.239 . S
C110 O95 1.263 . S
C110 C104 1.504 . S
C111 O96 1.236 . S
C111 O97 1.257 . S
H112 C85 0.932 . S
H113 C86 0.930 . S
H114 C87 0.932 . S
H115 C88 0.929 . S
H116 C106 0.932 . S
H117 C107 0.930 . S
H118 C108 0.932 . S
H119 C109 0.929 . S
Tb120 C129 2.764 . S
Tb120 O130 2.325 . S
Tb120 O133 2.303 . S
Tb120 O137 2.322 . S
Tb120 O138 2.349 . S
Tb120 O141 2.415 . S
Tb120 O142 2.399 . S
Tb121 O131 2.322 . S
Tb121 O132 2.349 . S
Tb121 O134 2.415 . S
Tb121 O135 2.399 . S
Tb121 O136 2.325 . S
Tb121 O139 2.303 . S
Tb121 C150 2.764 . S
C122 O138 1.261 . S
C122 O139 1.257 . S
C123 C126 1.358 . S
C123 C127 1.332 . S
C123 C129 1.504 . S
C124 C125 1.373 . S
C124 C128 1.308 . S
C125 C124 1.373 . S
C125 C126 1.429 . S
C125 H152 0.932 . S
C126 C123 1.358 . S
C126 C125 1.429 . S
C126 H153 0.930 . S
C127 C123 1.332 . S
C127 C128 1.394 . S
C127 H154 0.932 . S
C128 C124 1.308 . S
C128 C127 1.394 . S
C128 H155 0.929 . S
C129 Tb120 2.764 . S
C129 C123 1.504 . S
C129 O141 1.239 . S
C129 O142 1.263 . S
O130 Tb120 2.325 . S
O130 C140 1.236 . S
O131 Tb121 2.322 . S
O131 C140 1.257 . S
O132 Tb121 2.349 . S
O132 C143 1.261 . S
O133 Tb120 2.303 . S
O133 C143 1.257 . S
O134 Tb121 2.415 . S
O134 C150 1.239 . S
O135 Tb121 2.399 . S
O135 C150 1.263 . S
O136 Tb121 2.325 . S
O136 C151 1.236 . S
O137 Tb120 2.322 . S
O137 C151 1.257 . S
O138 Tb120 2.349 . S
O138 C122 1.261 . S
O139 Tb121 2.303 . S
O139 C122 1.257 . S
C140 O130 1.236 . S
C140 O131 1.257 . S
O141 Tb120 2.415 . S
O141 C129 1.239 . S
O142 Tb120 2.399 . S
O142 C129 1.263 . S
C143 O132 1.261 . S
C143 O133 1.257 . S
C144 C147 1.358 . S
C144 C148 1.332 . S
C144 C150 1.504 . S
C145 C146 1.373 . S
C145 C149 1.308 . S
C146 C145 1.373 . S
C146 C147 1.429 . S
C146 H156 0.932 . S
C147 C144 1.358 . S
C147 C146 1.429 . S
C147 H157 0.930 . S
C148 C144 1.332 . S
C148 C149 1.394 . S
C148 H158 0.932 . S
C149 C145 1.308 . S
C149 C148 1.394 . S
C149 H159 0.929 . S
C150 Tb121 2.764 . S
C150 O134 1.239 . S
C150 O135 1.263 . S
C150 C144 1.504 . S
C151 O136 1.236 . S
C151 O137 1.257 . S
H152 C125 0.932 . S
H153 C126 0.930 . S
H154 C127 0.932 . S
H155 C128 0.929 . S
H156 C146 0.932 . S
H157 C147 0.930 . S
H158 C148 0.932 . S
H159 C149 0.929 . S
Tb160 C169 2.764 . S
Tb160 O170 2.325 . S
Tb160 O173 2.303 . S
Tb160 O177 2.322 . S
Tb160 O178 2.349 . S
Tb160 O181 2.415 . S
Tb160 O182 2.399 . S
Tb161 O171 2.322 . S
Tb161 O172 2.349 . S
Tb161 O174 2.415 . S
Tb161 O175 2.399 . S
Tb161 O176 2.325 . S
Tb161 O179 2.303 . S
Tb161 C190 2.764 . S
C162 O178 1.261 . S
C162 O179 1.257 . S
C163 C166 1.358 . S
C163 C167 1.332 . S
C163 C169 1.504 . S
C164 C165 1.373 . S
C164 C168 1.308 . S
C165 C164 1.373 . S
C165 C166 1.429 . S
C165 H192 0.932 . S
C166 C163 1.358 . S
C166 C165 1.429 . S
C166 H193 0.930 . S
C167 C163 1.332 . S
C167 C168 1.394 . S
C167 H194 0.932 . S
C168 C164 1.308 . S
C168 C167 1.394 . S
C168 H195 0.929 . S
C169 Tb160 2.764 . S
C169 C163 1.504 . S
C169 O181 1.239 . S
C169 O182 1.263 . S
O170 Tb160 2.325 . S
O170 C180 1.236 . S
O171 Tb161 2.322 . S
O171 C180 1.257 . S
O172 Tb161 2.349 . S
O172 C183 1.261 . S
O173 Tb160 2.303 . S
O173 C183 1.257 . S
O174 Tb161 2.415 . S
O174 C190 1.239 . S
O175 Tb161 2.399 . S
O175 C190 1.263 . S
O176 Tb161 2.325 . S
O176 C191 1.236 . S
O177 Tb160 2.322 . S
O177 C191 1.257 . S
O178 Tb160 2.349 . S
O178 C162 1.261 . S
O179 Tb161 2.303 . S
O179 C162 1.257 . S
C180 O170 1.236 . S
C180 O171 1.257 . S
O181 Tb160 2.415 . S
O181 C169 1.239 . S
O182 Tb160 2.399 . S
O182 C169 1.263 . S
C183 O172 1.261 . S
C183 O173 1.257 . S
C184 C187 1.358 . S
C184 C188 1.332 . S
C184 C190 1.504 . S
C185 C186 1.373 . S
C185 C189 1.308 . S
C186 C185 1.373 . S
C186 C187 1.429 . S
C186 H196 0.932 . S
C187 C184 1.358 . S
C187 C186 1.429 . S
C187 H197 0.930 . S
C188 C184 1.332 . S
C188 C189 1.394 . S
C188 H198 0.932 . S
C189 C185 1.308 . S
C189 C188 1.394 . S
C189 H199 0.929 . S
C190 Tb161 2.764 . S
C190 O174 1.239 . S
C190 O175 1.263 . S
C190 C184 1.504 . S
C191 O176 1.236 . S
C191 O177 1.257 . S
H192 C165 0.932 . S
H193 C166 0.930 . S
H194 C167 0.932 . S
H195 C168 0.929 . S
H196 C186 0.932 . S
H197 C187 0.930 . S
H198 C188 0.932 . S
H199 C189 0.929 . S
Tb200 C209 2.764 . S
Tb200 O210 2.325 . S
Tb200 O213 2.303 . S
Tb200 O217 2.322 . S
Tb200 O218 2.349 . S
Tb200 O221 2.415 . S
Tb200 O222 2.399 . S
Tb201 O211 2.322 . S
Tb201 O212 2.349 . S
Tb201 O214 2.415 . S
Tb201 O215 2.399 . S
Tb201 O216 2.325 . S
Tb201 O219 2.303 . S
Tb201 C230 2.764 . S
C202 O218 1.261 . S
C202 O219 1.257 . S
C203 C206 1.358 . S
C203 C207 1.332 . S
C203 C209 1.504 . S
C204 C205 1.373 . S
C204 C208 1.308 . S
C205 C204 1.373 . S
C205 C206 1.429 . S
C205 H232 0.932 . S
C206 C203 1.358 . S
C206 C205 1.429 . S
C206 H233 0.930 . S
C207 C203 1.332 . S
C207 C208 1.394 . S
C207 H234 0.932 . S
C208 C204 1.308 . S
C208 C207 1.394 . S
C208 H235 0.929 . S
C209 Tb200 2.764 . S
C209 C203 1.504 . S
C209 O221 1.239 . S
C209 O222 1.263 . S
O210 Tb200 2.325 . S
O210 C220 1.236 . S
O211 Tb201 2.322 . S
O211 C220 1.257 . S
O212 Tb201 2.349 . S
O212 C223 1.261 . S
O213 Tb200 2.303 . S
O213 C223 1.257 . S
O214 Tb201 2.415 . S
O214 C230 1.239 . S
O215 Tb201 2.399 . S
O215 C230 1.263 . S
O216 Tb201 2.325 . S
O216 C231 1.236 . S
O217 Tb200 2.322 . S
O217 C231 1.257 . S
O218 Tb200 2.349 . S
O218 C202 1.261 . S
O219 Tb201 2.303 . S
O219 C202 1.257 . S
C220 O210 1.236 . S
C220 O211 1.257 . S
O221 Tb200 2.415 . S
O221 C209 1.239 . S
O222 Tb200 2.399 . S
O222 C209 1.263 . S
C223 O212 1.261 . S
C223 O213 1.257 . S
C224 C227 1.358 . S
C224 C228 1.332 . S
C224 C230 1.504 . S
C225 C226 1.373 . S
C225 C229 1.308 . S
C226 C225 1.373 . S
C226 C227 1.429 . S
C226 H236 0.932 . S
C227 C224 1.358 . S
C227 C226 1.429 . S
C227 H237 0.930 . S
C228 C224 1.332 . S
C228 C229 1.394 . S
C228 H238 0.932 . S
C229 C225 1.308 . S
C229 C228 1.394 . S
C229 H239 0.929 . S
C230 Tb201 2.764 . S
C230 O214 1.239 . S
C230 O215 1.263 . S
C230 C224 1.504 . S
C231 O216 1.236 . S
C231 O217 1.257 . S
H232 C205 0.932 . S
H233 C206 0.930 . S
H234 C207 0.932 . S
H235 C208 0.929 . S
H236 C226 0.932 . S
H237 C227 0.930 . S
H238 C228 0.932 . S
H239 C229 0.929 . S
H240 C248 0.929 . S
H241 C250 0.930 . S
H242 C252 0.930 . S
H243 C255 0.929 . S
H244 C258 0.930 . S
H245 C260 0.960 . S
H246 C260 0.960 . S
H247 C260 0.960 . S
C248 H240 0.929 . S
C248 C249 1.377 . S
C248 C250 1.384 . S
C249 C248 1.377 . S
C249 C255 1.390 . S
C250 H241 0.930 . S
C250 C248 1.384 . S
C250 C251 1.372 . S
C251 C250 1.372 . S
C251 C252 1.400 . S
C251 C256 1.490 . S
C252 H242 0.930 . S
C252 C251 1.400 . S
C252 C255 1.386 . S
H253 C269 0.930 . S
H254 C270 0.931 . S
C255 H243 0.929 . S
C255 C249 1.390 . S
C255 C252 1.386 . S
C256 C251 1.490 . S
C256 C258 1.395 . S
C256 C259 1.403 . S
H257 C263 0.930 . S
C258 H244 0.930 . S
C258 C256 1.395 . S
C258 C261 1.403 . S
C259 C256 1.403 . S
C259 C260 1.524 . S
C259 C263 1.400 . S
C260 H245 0.960 . S
C260 H246 0.960 . S
C260 H247 0.960 . S
C260 C259 1.524 . S
C261 C258 1.403 . S
C261 C262 1.392 . S
C261 C265 1.495 . S
C262 C261 1.392 . S
C262 C263 1.385 . S
C262 C264 1.478 . S
C263 H257 0.930 . S
C263 C259 1.400 . S
C263 C262 1.385 . S
C264 C262 1.478 . S
C264 C266 1.381 . S
C264 C270 1.383 . S
C265 C261 1.495 . S
C265 H271 0.959 . S
C265 H272 0.961 . S
C265 H273 0.960 . S
C266 C264 1.381 . S
C266 C267 1.394 . S
C266 H274 0.930 . S
C267 C266 1.394 . S
C267 C268 1.383 . S
C267 H275 0.929 . S
C268 C267 1.383 . S
C268 C269 1.377 . S
C269 H253 0.930 . S
C269 C268 1.377 . S
C269 C270 1.379 . S
C270 H254 0.931 . S
C270 C264 1.383 . S
C270 C269 1.379 . S
H271 C265 0.959 . S
H272 C265 0.961 . S
H273 C265 0.960 . S
H274 C266 0.930 . S
H275 C267 0.929 . S
H276 C284 0.929 . S
H277 C286 0.930 . S
H278 C288 0.930 . S
H279 C291 0.929 . S
H280 C294 0.930 . S
H281 C296 0.960 . S
H282 C296 0.960 . S
H283 C296 0.960 . S
C284 H276 0.929 . S
C284 C285 1.377 . S
C284 C286 1.384 . S
C285 C284 1.377 . S
C285 C291 1.390 . S
C286 H277 0.930 . S
C286 C284 1.384 . S
C286 C287 1.372 . S
C287 C286 1.372 . S
C287 C288 1.400 . S
C287 C292 1.490 . S
C288 H278 0.930 . S
C288 C287 1.400 . S
C288 C291 1.386 . S
H289 C305 0.930 . S
H290 C306 0.931 . S
C291 H279 0.929 . S
C291 C285 1.390 . S
C291 C288 1.386 . S
C292 C287 1.490 . S
C292 C294 1.395 . S
C292 C295 1.403 . S
H293 C299 0.930 . S
C294 H280 0.930 . S
C294 C292 1.395 . S
C294 C297 1.403 . S
C295 C292 1.403 . S
C295 C296 1.524 . S
C295 C299 1.400 . S
C296 H281 0.960 . S
C296 H282 0.960 . S
C296 H283 0.960 . S
C296 C295 1.524 . S
C297 C294 1.403 . S
C297 C298 1.392 . S
C297 C301 1.495 . S
C298 C297 1.392 . S
C298 C299 1.385 . S
C298 C300 1.478 . S
C299 H293 0.930 . S
C299 C295 1.400 . S
C299 C298 1.385 . S
C300 C298 1.478 . S
C300 C302 1.381 . S
C300 C306 1.383 . S
C301 C297 1.495 . S
C301 H307 0.959 . S
C301 H308 0.961 . S
C301 H309 0.960 . S
C302 C300 1.381 . S
C302 C303 1.394 . S
C302 H310 0.930 . S
C303 C302 1.394 . S
C303 C304 1.383 . S
C303 H311 0.929 . S
C304 C303 1.383 . S
C304 C305 1.377 . S
C305 H289 0.930 . S
C305 C304 1.377 . S
C305 C306 1.379 . S
C306 H290 0.931 . S
C306 C300 1.383 . S
C306 C305 1.379 . S
H307 C301 0.959 . S
H308 C301 0.961 . S
H309 C301 0.960 . S
H310 C302 0.930 . S
H311 C303 0.929 . S
H312 C320 0.929 . S
H313 C322 0.930 . S
H314 C324 0.930 . S
H315 C327 0.929 . S
H316 C330 0.930 . S
H317 C332 0.960 . S
H318 C332 0.960 . S
H319 C332 0.960 . S
C320 H312 0.929 . S
C320 C321 1.377 . S
C320 C322 1.384 . S
C321 C320 1.377 . S
C321 C327 1.390 . S
C322 H313 0.930 . S
C322 C320 1.384 . S
C322 C323 1.372 . S
C323 C322 1.372 . S
C323 C324 1.400 . S
C323 C328 1.490 . S
C324 H314 0.930 . S
C324 C323 1.400 . S
C324 C327 1.386 . S
H325 C341 0.930 . S
H326 C342 0.931 . S
C327 H315 0.929 . S
C327 C321 1.390 . S
C327 C324 1.386 . S
C328 C323 1.490 . S
C328 C330 1.395 . S
C328 C331 1.403 . S
H329 C335 0.930 . S
C330 H316 0.930 . S
C330 C328 1.395 . S
C330 C333 1.403 . S
C331 C328 1.403 . S
C331 C332 1.524 . S
C331 C335 1.400 . S
C332 H317 0.960 . S
C332 H318 0.960 . S
C332 H319 0.960 . S
C332 C331 1.524 . S
C333 C330 1.403 . S
C333 C334 1.392 . S
C333 C337 1.495 . S
C334 C333 1.392 . S
C334 C335 1.385 . S
C334 C336 1.478 . S
C335 H329 0.930 . S
C335 C331 1.400 . S
C335 C334 1.385 . S
C336 C334 1.478 . S
C336 C338 1.381 . S
C336 C342 1.383 . S
C337 C333 1.495 . S
C337 H343 0.959 . S
C337 H344 0.961 . S
C337 H345 0.960 . S
C338 C336 1.381 . S
C338 C339 1.394 . S
C338 H346 0.930 . S
C339 C338 1.394 . S
C339 C340 1.383 . S
C339 H347 0.929 . S
C340 C339 1.383 . S
C340 C341 1.377 . S
C341 H325 0.930 . S
C341 C340 1.377 . S
C341 C342 1.379 . S
C342 H326 0.931 . S
C342 C336 1.383 . S
C342 C341 1.379 . S
H343 C337 0.959 . S
H344 C337 0.961 . S
H345 C337 0.960 . S
H346 C338 0.930 . S
H347 C339 0.929 . S
H348 C356 0.929 . S
H349 C358 0.930 . S
H350 C360 0.930 . S
H351 C363 0.929 . S
H352 C366 0.930 . S
H353 C368 0.960 . S
H354 C368 0.960 . S
H355 C368 0.960 . S
C356 H348 0.929 . S
C356 C357 1.377 . S
C356 C358 1.384 . S
C357 C356 1.377 . S
C357 C363 1.390 . S
C358 H349 0.930 . S
C358 C356 1.384 . S
C358 C359 1.372 . S
C359 C358 1.372 . S
C359 C360 1.400 . S
C359 C364 1.490 . S
C360 H350 0.930 . S
C360 C359 1.400 . S
C360 C363 1.386 . S
H361 C377 0.930 . S
H362 C378 0.931 . S
C363 H351 0.929 . S
C363 C357 1.390 . S
C363 C360 1.386 . S
C364 C359 1.490 . S
C364 C366 1.395 . S
C364 C367 1.403 . S
H365 C371 0.930 . S
C366 H352 0.930 . S
C366 C364 1.395 . S
C366 C369 1.403 . S
C367 C364 1.403 . S
C367 C368 1.524 . S
C367 C371 1.400 . S
C368 H353 0.960 . S
C368 H354 0.960 . S
C368 H355 0.960 . S
C368 C367 1.524 . S
C369 C366 1.403 . S
C369 C370 1.392 . S
C369 C373 1.495 . S
C370 C369 1.392 . S
C370 C371 1.385 . S
C370 C372 1.478 . S
C371 H365 0.930 . S
C371 C367 1.400 . S
C371 C370 1.385 . S
C372 C370 1.478 . S
C372 C374 1.381 . S
C372 C378 1.383 . S
C373 C369 1.495 . S
C373 H379 0.959 . S
C373 H380 0.961 . S
C373 H381 0.960 . S
C374 C372 1.381 . S
C374 C375 1.394 . S
C374 H382 0.930 . S
C375 C374 1.394 . S
C375 C376 1.383 . S
C375 H383 0.929 . S
C376 C375 1.383 . S
C376 C377 1.377 . S
C377 H361 0.930 . S
C377 C376 1.377 . S
C377 C378 1.379 . S
C378 H362 0.931 . S
C378 C372 1.383 . S
C378 C377 1.379 . S
H379 C373 0.959 . S
H380 C373 0.961 . S
H381 C373 0.960 . S
H382 C374 0.930 . S
H383 C375 0.929 . S
H384 C392 0.929 . S
H385 C394 0.930 . S
H386 C396 0.930 . S
H387 C399 0.929 . S
H388 C402 0.930 . S
H389 C404 0.960 . S
H390 C404 0.960 . S
H391 C404 0.960 . S
C392 H384 0.929 . S
C392 C393 1.377 . S
C392 C394 1.384 . S
C393 C392 1.377 . S
C393 C399 1.390 . S
C394 H385 0.930 . S
C394 C392 1.384 . S
C394 C395 1.372 . S
C395 C394 1.372 . S
C395 C396 1.400 . S
C395 C400 1.490 . S
C396 H386 0.930 . S
C396 C395 1.400 . S
C396 C399 1.386 . S
H397 C413 0.930 . S
H398 C414 0.931 . S
C399 H387 0.929 . S
C399 C393 1.390 . S
C399 C396 1.386 . S
C400 C395 1.490 . S
C400 C402 1.395 . S
C400 C403 1.403 . S
H401 C407 0.930 . S
C402 H388 0.930 . S
C402 C400 1.395 . S
C402 C405 1.403 . S
C403 C400 1.403 . S
C403 C404 1.524 . S
C403 C407 1.400 . S
C404 H389 0.960 . S
C404 H390 0.960 . S
C404 H391 0.960 . S
C404 C403 1.524 . S
C405 C402 1.403 . S
C405 C406 1.392 . S
C405 C409 1.495 . S
C406 C405 1.392 . S
C406 C407 1.385 . S
C406 C408 1.478 . S
C407 H401 0.930 . S
C407 C403 1.400 . S
C407 C406 1.385 . S
C408 C406 1.478 . S
C408 C410 1.381 . S
C408 C414 1.383 . S
C409 C405 1.495 . S
C409 H415 0.959 . S
C409 H416 0.961 . S
C409 H417 0.960 . S
C410 C408 1.381 . S
C410 C411 1.394 . S
C410 H418 0.930 . S
C411 C410 1.394 . S
C411 C412 1.383 . S
C411 H419 0.929 . S
C412 C411 1.383 . S
C412 C413 1.377 . S
C413 H397 0.930 . S
C413 C412 1.377 . S
C413 C414 1.379 . S
C414 H398 0.931 . S
C414 C408 1.383 . S
C414 C413 1.379 . S
H415 C409 0.959 . S
H416 C409 0.961 . S
H417 C409 0.960 . S
H418 C410 0.930 . S
H419 C411 0.929 . S
H420 C428 0.929 . S
H421 C430 0.930 . S
H422 C432 0.930 . S
H423 C435 0.929 . S
H424 C438 0.930 . S
H425 C440 0.960 1_556 S
H426 C440 0.960 . S
H427 C440 0.960 . S
C428 H420 0.929 . S
C428 C429 1.377 . S
C428 C430 1.384 . S
C429 C428 1.377 . S
C429 C435 1.390 . S
C430 H421 0.930 . S
C430 C428 1.384 . S
C430 C431 1.372 . S
C431 C430 1.372 . S
C431 C432 1.400 . S
C431 C436 1.490 . S
C432 H422 0.930 . S
C432 C431 1.400 . S
C432 C435 1.386 . S
H433 C449 0.930 . S
H434 C450 0.931 . S
C435 H423 0.929 . S
C435 C429 1.390 . S
C435 C432 1.386 . S
C436 C431 1.490 . S
C436 C438 1.395 . S
C436 C439 1.404 1_554 S
H437 C443 0.930 . S
C438 H424 0.930 . S
C438 C436 1.395 . S
C438 C441 1.403 1_554 S
C439 C436 1.404 1_556 S
C439 C440 1.524 1_556 S
C439 C443 1.398 . S
C440 H425 0.960 1_554 S
C440 H426 0.960 . S
C440 H427 0.960 . S
C440 C439 1.524 1_554 S
C441 C438 1.403 1_556 S
C441 C442 1.392 . S
C441 C445 1.495 . S
C442 C441 1.392 . S
C442 C443 1.385 . S
C442 C444 1.478 . S
C443 H437 0.930 . S
C443 C439 1.398 . S
C443 C442 1.385 . S
C444 C442 1.478 . S
C444 C446 1.381 . S
C444 C450 1.383 . S
C445 C441 1.495 . S
C445 H451 0.959 . S
C445 H452 0.961 . S
C445 H453 0.960 . S
C446 C444 1.381 . S
C446 C447 1.394 . S
C446 H454 0.930 . S
C447 C446 1.394 . S
C447 C448 1.383 . S
C447 H455 0.929 . S
C448 C447 1.383 . S
C448 C449 1.377 . S
C449 H433 0.930 . S
C449 C448 1.377 . S
C449 C450 1.379 . S
C450 H434 0.931 . S
C450 C444 1.383 . S
C450 C449 1.379 . S
H451 C445 0.959 . S
H452 C445 0.961 . S
H453 C445 0.960 . S
H454 C446 0.930 . S
H455 C447 0.929 . S
H456 C464 0.929 . S
H457 C466 0.930 . S
H458 C468 0.930 . S
H459 C471 0.929 . S
H460 C474 0.930 . S
H461 C476 0.960 . S
H462 C476 0.960 . S
H463 C476 0.960 . S
C464 H456 0.929 . S
C464 C465 1.377 . S
C464 C466 1.384 . S
C465 C464 1.377 . S
C465 C471 1.390 . S
C466 H457 0.930 . S
C466 C464 1.384 . S
C466 C467 1.372 . S
C467 C466 1.372 . S
C467 C468 1.400 . S
C467 C472 1.490 . S
C468 H458 0.930 . S
C468 C467 1.400 . S
C468 C471 1.386 . S
H469 C485 0.930 . S
H470 C486 0.931 . S
C471 H459 0.929 . S
C471 C465 1.390 . S
C471 C468 1.386 . S
C472 C467 1.490 . S
C472 C474 1.395 . S
C472 C475 1.403 . S
H473 C479 0.930 . S
C474 H460 0.930 . S
C474 C472 1.395 . S
C474 C477 1.403 . S
C475 C472 1.403 . S
C475 C476 1.524 . S
C475 C479 1.400 . S
C476 H461 0.960 . S
C476 H462 0.960 . S
C476 H463 0.960 . S
C476 C475 1.524 . S
C477 C474 1.403 . S
C477 C478 1.392 . S
C477 C481 1.495 . S
C478 C477 1.392 . S
C478 C479 1.385 . S
C478 C480 1.478 . S
C479 H473 0.930 . S
C479 C475 1.400 . S
C479 C478 1.385 . S
C480 C478 1.478 . S
C480 C482 1.381 . S
C480 C486 1.383 . S
C481 C477 1.495 . S
C481 H487 0.959 . S
C481 H488 0.961 . S
C481 H489 0.960 . S
C482 C480 1.381 . S
C482 C483 1.394 . S
C482 H490 0.930 . S
C483 C482 1.394 . S
C483 C484 1.383 . S
C483 H491 0.929 . S
C484 C483 1.383 . S
C484 C485 1.377 . S
C485 H469 0.930 . S
C485 C484 1.377 . S
C485 C486 1.379 . S
C486 H470 0.931 . S
C486 C480 1.383 . S
C486 C485 1.379 . S
H487 C481 0.959 . S
H488 C481 0.961 . S
H489 C481 0.960 . S
H490 C482 0.930 . S
H491 C483 0.929 . S
H492 C500 0.929 . S
H493 C502 0.930 . S
H494 C504 0.930 . S
H495 C507 0.929 . S
H496 C510 0.930 . S
H497 C512 0.960 . S
H498 C512 0.960 . S
H499 C512 0.960 1_455 S
C500 H492 0.929 . S
C500 C501 1.377 1_655 S
C500 C502 1.384 . S
C501 C500 1.377 1_455 S
C501 C507 1.390 . S
C502 H493 0.930 . S
C502 C500 1.384 . S
C502 C503 1.372 . S
C503 C502 1.372 . S
C503 C504 1.400 1_655 S
C503 C508 1.490 . S
C504 H494 0.930 . S
C504 C503 1.400 1_455 S
C504 C507 1.386 . S
H505 C521 0.930 . S
H506 C522 0.931 . S
C507 H495 0.929 . S
C507 C501 1.390 . S
C507 C504 1.386 . S
C508 C503 1.490 . S
C508 C510 1.395 . S
C508 C511 1.403 . S
H509 C515 0.930 . S
C510 H496 0.930 . S
C510 C508 1.395 . S
C510 C513 1.403 . S
C511 C508 1.403 . S
C511 C512 1.524 . S
C511 C515 1.400 . S
C512 H497 0.960 . S
C512 H498 0.960 . S
C512 H499 0.960 1_655 S
C512 C511 1.524 . S
C513 C510 1.403 . S
C513 C514 1.392 . S
C513 C517 1.495 . S
C514 C513 1.392 . S
C514 C515 1.385 . S
C514 C516 1.478 . S
C515 H509 0.930 . S
C515 C511 1.400 . S
C515 C514 1.385 . S
C516 C514 1.478 . S
C516 C518 1.381 . S
C516 C522 1.383 . S
C517 C513 1.495 . S
C517 H523 0.959 . S
C517 H524 0.961 . S
C517 H525 0.960 . S
C518 C516 1.381 . S
C518 C519 1.394 . S
C518 H526 0.930 . S
C519 C518 1.394 . S
C519 C520 1.383 . S
C519 H527 0.929 . S
C520 C519 1.383 . S
C520 C521 1.377 . S
C521 H505 0.930 . S
C521 C520 1.377 . S
C521 C522 1.379 . S
C522 H506 0.931 . S
C522 C516 1.383 . S
C522 C521 1.379 . S
H523 C517 0.959 . S
H524 C517 0.961 . S
H525 C517 0.960 . S
H526 C518 0.930 . S
H527 C519 0.929 . S
H528 C536 0.929 . S
H529 C538 0.930 . S
H530 C540 0.930 . S
H531 C543 0.929 . S
H532 C546 0.930 . S
H533 C548 0.960 . S
H534 C548 0.960 . S
H535 C548 0.960 . S
C536 H528 0.929 . S
C536 C537 1.377 . S
C536 C538 1.384 . S
C537 C536 1.377 . S
C537 C543 1.390 . S
C538 H529 0.930 . S
C538 C536 1.384 . S
C538 C539 1.372 . S
C539 C538 1.372 . S
C539 C540 1.400 . S
C539 C544 1.490 . S
C540 H530 0.930 . S
C540 C539 1.400 . S
C540 C543 1.386 . S
H541 C557 0.930 . S
H542 C558 0.931 . S
C543 H531 0.929 . S
C543 C537 1.390 . S
C543 C540 1.386 . S
C544 C539 1.490 . S
C544 C546 1.395 . S
C544 C547 1.403 . S
H545 C551 0.930 . S
C546 H532 0.930 . S
C546 C544 1.395 . S
C546 C549 1.403 . S
C547 C544 1.403 . S
C547 C548 1.524 . S
C547 C551 1.400 . S
C548 H533 0.960 . S
C548 H534 0.960 . S
C548 H535 0.960 . S
C548 C547 1.524 . S
C549 C546 1.403 . S
C549 C550 1.392 . S
C549 C553 1.495 . S
C550 C549 1.392 . S
C550 C551 1.385 . S
C550 C552 1.478 . S
C551 H545 0.930 . S
C551 C547 1.400 . S
C551 C550 1.385 . S
C552 C550 1.478 . S
C552 C554 1.381 . S
C552 C558 1.383 1_545 S
C553 C549 1.495 . S
C553 H559 0.959 . S
C553 H560 0.961 1_545 S
C553 H561 0.960 . S
C554 C552 1.381 . S
C554 C555 1.394 1_545 S
C554 H562 0.930 . S
C555 C554 1.394 1_565 S
C555 C556 1.383 . S
C555 H563 0.929 1_565 S
C556 C555 1.383 . S
C556 C557 1.377 . S
C557 H541 0.930 . S
C557 C556 1.377 . S
C557 C558 1.379 . S
C558 H542 0.931 . S
C558 C552 1.383 1_565 S
C558 C557 1.379 . S
H559 C553 0.959 . S
H560 C553 0.961 1_565 S
H561 C553 0.960 . S
H562 C554 0.930 . S
H563 C555 0.929 1_545 S
H564 C572 0.929 . S
H565 C574 0.930 . S
H566 C576 0.930 . S
H567 C579 0.929 . S
H568 C582 0.930 . S
H569 C584 0.960 . S
H570 C584 0.960 . S
H571 C584 0.960 . S
C572 H564 0.929 . S
C572 C573 1.377 . S
C572 C574 1.384 . S
C573 C572 1.377 . S
C573 C579 1.390 . S
C574 H565 0.930 . S
C574 C572 1.384 . S
C574 C575 1.372 . S
C575 C574 1.372 . S
C575 C576 1.400 . S
C575 C580 1.490 . S
C576 H566 0.930 . S
C576 C575 1.400 . S
C576 C579 1.386 . S
H577 C593 0.930 . S
H578 C594 0.931 . S
C579 H567 0.929 . S
C579 C573 1.390 . S
C579 C576 1.386 . S
C580 C575 1.490 . S
C580 C582 1.395 . S
C580 C583 1.403 . S
H581 C587 0.930 . S
C582 H568 0.930 . S
C582 C580 1.395 . S
C582 C585 1.403 . S
C583 C580 1.403 . S
C583 C584 1.524 . S
C583 C587 1.400 . S
C584 H569 0.960 . S
C584 H570 0.960 . S
C584 H571 0.960 . S
C584 C583 1.524 . S
C585 C582 1.403 . S
C585 C586 1.392 . S
C585 C589 1.495 . S
C586 C585 1.392 . S
C586 C587 1.385 . S
C586 C588 1.478 . S
C587 H581 0.930 . S
C587 C583 1.400 . S
C587 C586 1.385 . S
C588 C586 1.478 . S
C588 C590 1.381 . S
C588 C594 1.383 . S
C589 C585 1.495 . S
C589 H595 0.959 . S
C589 H596 0.961 . S
C589 H597 0.960 . S
C590 C588 1.381 . S
C590 C591 1.394 . S
C590 H598 0.930 . S
C591 C590 1.394 . S
C591 C592 1.383 . S
C591 H599 0.929 . S
C592 C591 1.383 . S
C592 C593 1.377 . S
C593 H577 0.930 . S
C593 C592 1.377 . S
C593 C594 1.379 . S
C594 H578 0.931 . S
C594 C588 1.383 . S
C594 C593 1.379 . S
H595 C589 0.959 . S
H596 C589 0.961 . S
H597 C589 0.960 . S
H598 C590 0.930 . S
H599 C591 0.929 . S
H600 C608 0.929 . S
H601 C610 0.930 . S
H602 C612 0.930 . S
H603 C615 0.929 . S
H604 C618 0.930 . S
H605 C620 0.960 1_655 S
H606 C620 0.960 . S
H607 C620 0.960 . S
C608 H600 0.929 . S
C608 C609 1.377 . S
C608 C610 1.384 . S
C609 C608 1.377 . S
C609 C615 1.390 . S
C610 H601 0.930 . S
C610 C608 1.384 . S
C610 C611 1.372 . S
C611 C610 1.372 . S
C611 C612 1.400 . S
C611 C616 1.490 . S
C612 H602 0.930 . S
C612 C611 1.400 . S
C612 C615 1.386 . S
H613 C629 0.930 . S
H614 C630 0.931 . S
C615 H603 0.929 . S
C615 C609 1.390 . S
C615 C612 1.386 . S
C616 C611 1.490 . S
C616 C618 1.395 . S
C616 C619 1.403 . S
H617 C623 0.930 1_655 S
C618 H604 0.930 . S
C618 C616 1.395 . S
C618 C621 1.403 . S
C619 C616 1.403 . S
C619 C620 1.524 . S
C619 C623 1.400 . S
C620 H605 0.960 1_455 S
C620 H606 0.960 . S
C620 H607 0.960 . S
C620 C619 1.524 . S
C621 C618 1.403 . S
C621 C622 1.392 . S
C621 C625 1.495 . S
C622 C621 1.392 . S
C622 C623 1.385 . S
C622 C624 1.478 . S
C623 H617 0.930 1_455 S
C623 C619 1.400 . S
C623 C622 1.385 . S
C624 C622 1.478 . S
C624 C626 1.381 . S
C624 C630 1.383 1_455 S
C625 C621 1.495 . S
C625 H631 0.959 . S
C625 H632 0.961 . S
C625 H633 0.960 . S
C626 C624 1.381 . S
C626 C627 1.394 1_455 S
C626 H634 0.930 . S
C627 C626 1.394 1_655 S
C627 C628 1.383 . S
C627 H635 0.929 1_655 S
C628 C627 1.383 . S
C628 C629 1.377 . S
C629 H613 0.930 . S
C629 C628 1.377 . S
C629 C630 1.379 . S
C630 H614 0.931 . S
C630 C624 1.383 1_655 S
C630 C629 1.379 . S
H631 C625 0.959 . S
H632 C625 0.961 . S
H633 C625 0.960 . S
H634 C626 0.930 . S
H635 C627 0.929 1_455 S
H636 C644 0.929 . S
H637 C646 0.930 . S
H638 C648 0.930 . S
H639 C651 0.929 . S
H640 C654 0.930 . S
H641 C656 0.960 . S
H642 C656 0.960 . S
H643 C656 0.960 . S
C644 H636 0.929 . S
C644 C645 1.377 . S
C644 C646 1.384 . S
C645 C644 1.377 . S
C645 C651 1.390 . S
C646 H637 0.930 . S
C646 C644 1.384 . S
C646 C647 1.372 . S
C647 C646 1.372 . S
C647 C648 1.400 . S
C647 C652 1.490 . S
C648 H638 0.930 . S
C648 C647 1.400 . S
C648 C651 1.386 . S
H649 C665 0.930 1_565 S
H650 C666 0.931 . S
C651 H639 0.929 . S
C651 C645 1.390 . S
C651 C648 1.386 . S
C652 C647 1.490 . S
C652 C654 1.395 . S
C652 C655 1.403 . S
H653 C659 0.930 . S
C654 H640 0.930 . S
C654 C652 1.395 . S
C654 C657 1.403 . S
C655 C652 1.403 . S
C655 C656 1.524 . S
C655 C659 1.400 . S
C656 H641 0.960 . S
C656 H642 0.960 . S
C656 H643 0.960 . S
C656 C655 1.524 . S
C657 C654 1.403 . S
C657 C658 1.392 . S
C657 C661 1.495 . S
C658 C657 1.392 . S
C658 C659 1.385 . S
C658 C660 1.478 . S
C659 H653 0.930 . S
C659 C655 1.400 . S
C659 C658 1.385 . S
C660 C658 1.478 . S
C660 C662 1.381 1_565 S
C660 C666 1.383 . S
C661 C657 1.495 . S
C661 H667 0.959 . S
C661 H668 0.961 . S
C661 H669 0.960 . S
C662 C660 1.381 1_545 S
C662 C663 1.394 . S
C662 H670 0.930 . S
C663 C662 1.394 . S
C663 C664 1.383 . S
C663 H671 0.929 . S
C664 C663 1.383 . S
C664 C665 1.377 . S
C665 H649 0.930 1_545 S
C665 C664 1.377 . S
C665 C666 1.379 1_545 S
C666 H650 0.931 . S
C666 C660 1.383 . S
C666 C665 1.379 1_565 S
H667 C661 0.959 . S
H668 C661 0.961 . S
H669 C661 0.960 . S
H670 C662 0.930 . S
H671 C663 0.929 . S
H672 C680 0.929 . S
H673 C682 0.930 . S
H674 C684 0.930 . S
H675 C687 0.929 . S
H676 C690 0.930 . S
H677 C692 0.960 . S
H678 C692 0.960 . S
H679 C692 0.960 . S
C680 H672 0.929 . S
C680 C681 1.377 . S
C680 C682 1.384 . S
C681 C680 1.377 . S
C681 C687 1.390 . S
C682 H673 0.930 . S
C682 C680 1.384 . S
C682 C683 1.372 . S
C683 C682 1.372 . S
C683 C684 1.400 . S
C683 C688 1.490 . S
C684 H674 0.930 . S
C684 C683 1.400 . S
C684 C687 1.386 . S
H685 C701 0.930 . S
H686 C702 0.931 . S
C687 H675 0.929 . S
C687 C681 1.390 . S
C687 C684 1.386 . S
C688 C683 1.490 . S
C688 C690 1.395 . S
C688 C691 1.403 . S
H689 C695 0.930 . S
C690 H676 0.930 . S
C690 C688 1.395 . S
C690 C693 1.403 . S
C691 C688 1.403 . S
C691 C692 1.524 . S
C691 C695 1.400 . S
C692 H677 0.960 . S
C692 H678 0.960 . S
C692 H679 0.960 . S
C692 C691 1.524 . S
C693 C690 1.403 . S
C693 C694 1.392 . S
C693 C697 1.495 . S
C694 C693 1.392 . S
C694 C695 1.385 . S
C694 C696 1.478 . S
C695 H689 0.930 . S
C695 C691 1.400 . S
C695 C694 1.385 . S
C696 C694 1.478 . S
C696 C698 1.381 . S
C696 C702 1.383 . S
C697 C693 1.495 . S
C697 H703 0.959 . S
C697 H704 0.961 . S
C697 H705 0.960 . S
C698 C696 1.381 . S
C698 C699 1.394 . S
C698 H706 0.930 . S
C699 C698 1.394 . S
C699 C700 1.383 1_556 S
C699 H707 0.929 1_556 S
C700 C699 1.383 1_554 S
C700 C701 1.377 . S
C701 H685 0.930 . S
C701 C700 1.377 . S
C701 C702 1.379 1_554 S
C702 H686 0.931 . S
C702 C696 1.383 . S
C702 C701 1.379 1_556 S
H703 C697 0.959 . S
H704 C697 0.961 . S
H705 C697 0.960 . S
H706 C698 0.930 . S
H707 C699 0.929 1_554 S
H708 C716 0.929 . S
H709 C718 0.930 . S
H710 C720 0.930 . S
H711 C723 0.929 . S
H712 C726 0.930 . S
H713 C728 0.960 . S
H714 C728 0.960 . S
H715 C728 0.960 . S
C716 H708 0.929 . S
C716 C717 1.377 . S
C716 C718 1.384 . S
C717 C716 1.377 . S
C717 C723 1.390 . S
C718 H709 0.930 . S
C718 C716 1.384 . S
C718 C719 1.372 . S
C719 C718 1.372 . S
C719 C720 1.400 . S
C719 C724 1.490 . S
C720 H710 0.930 . S
C720 C719 1.400 . S
C720 C723 1.386 . S
H721 C737 0.930 . S
H722 C738 0.931 . S
C723 H711 0.929 . S
C723 C717 1.390 . S
C723 C720 1.386 . S
C724 C719 1.490 . S
C724 C726 1.395 . S
C724 C727 1.403 . S
H725 C731 0.930 . S
C726 H712 0.930 . S
C726 C724 1.395 . S
C726 C729 1.403 1_655 S
C727 C724 1.403 . S
C727 C728 1.524 . S
C727 C731 1.400 1_655 S
C728 H713 0.960 . S
C728 H714 0.960 . S
C728 H715 0.960 . S
C728 C727 1.524 . S
C729 C726 1.403 1_455 S
C729 C730 1.392 . S
C729 C733 1.495 . S
C730 C729 1.392 . S
C730 C731 1.385 . S
C730 C732 1.478 . S
C731 H725 0.930 . S
C731 C727 1.400 1_455 S
C731 C730 1.385 . S
C732 C730 1.478 . S
C732 C734 1.381 . S
C732 C738 1.383 . S
C733 C729 1.495 . S
C733 H739 0.959 . S
C733 H740 0.961 . S
C733 H741 0.960 . S
C734 C732 1.381 . S
C734 C735 1.394 . S
C734 H742 0.930 . S
C735 C734 1.394 . S
C735 C736 1.383 . S
C735 H743 0.929 . S
C736 C735 1.383 . S
C736 C737 1.377 . S
C737 H721 0.930 . S
C737 C736 1.377 . S
C737 C738 1.379 . S
C738 H722 0.931 . S
C738 C732 1.383 . S
C738 C737 1.379 . S
H739 C733 0.959 . S
H740 C733 0.961 . S
H741 C733 0.960 . S
H742 C734 0.930 . S
H743 C735 0.929 . S
H744 C752 0.929 . S
H745 C754 0.930 1_545 S
H746 C756 0.930 . S
H747 C759 0.929 . S
H748 C762 0.930 . S
H749 C764 0.960 . S
H750 C764 0.960 . S
H751 C764 0.960 . S
C752 H744 0.929 . S
C752 C753 1.377 . S
C752 C754 1.384 . S
C753 C752 1.377 . S
C753 C759 1.390 . S
C754 H745 0.930 1_565 S
C754 C752 1.384 . S
C754 C755 1.372 . S
C755 C754 1.372 . S
C755 C756 1.400 . S
C755 C760 1.490 . S
C756 H746 0.930 . S
C756 C755 1.400 . S
C756 C759 1.386 . S
H757 C773 0.930 . S
H758 C774 0.931 1_565 S
C759 H747 0.929 . S
C759 C753 1.390 . S
C759 C756 1.386 . S
C760 C755 1.490 . S
C760 C762 1.395 1_565 S
C760 C763 1.403 . S
H761 C767 0.930 . S
C762 H748 0.930 . S
C762 C760 1.395 1_545 S
C762 C765 1.403 . S
C763 C760 1.403 . S
C763 C764 1.524 . S
C763 C767 1.400 . S
C764 H749 0.960 . S
C764 H750 0.960 . S
C764 H751 0.960 . S
C764 C763 1.524 . S
C765 C762 1.403 . S
C765 C766 1.392 . S
C765 C769 1.495 . S
C766 C765 1.392 . S
C766 C767 1.385 1_545 S
C766 C768 1.478 . S
C767 H761 0.930 . S
C767 C763 1.400 . S
C767 C766 1.385 1_565 S
C768 C766 1.478 . S
C768 C770 1.381 . S
C768 C774 1.383 . S
C769 C765 1.495 . S
C769 H775 0.959 . S
C769 H776 0.961 . S
C769 H777 0.960 . S
C770 C768 1.381 . S
C770 C771 1.394 . S
C770 H778 0.930 . S
C771 C770 1.394 . S
C771 C772 1.383 . S
C771 H779 0.929 . S
C772 C771 1.383 . S
C772 C773 1.377 . S
C773 H757 0.930 . S
C773 C772 1.377 . S
C773 C774 1.379 . S
C774 H758 0.931 1_545 S
C774 C768 1.383 . S
C774 C773 1.379 . S
H775 C769 0.959 . S
H776 C769 0.961 . S
H777 C769 0.960 . S
H778 C770 0.930 . S
H779 C771 0.929 . S
H780 C788 0.929 . S
H781 C790 0.930 . S
H782 C792 0.930 . S
H783 C795 0.929 . S
H784 C798 0.930 . S
H785 C800 0.960 . S
H786 C800 0.960 . S
H787 C800 0.960 . S
C788 H780 0.929 . S
C788 C789 1.377 . S
C788 C790 1.384 . S
C789 C788 1.377 . S
C789 C795 1.390 . S
C790 H781 0.930 . S
C790 C788 1.384 . S
C790 C791 1.372 . S
C791 C790 1.372 . S
C791 C792 1.400 . S
C791 C796 1.490 . S
C792 H782 0.930 . S
C792 C791 1.400 . S
C792 C795 1.386 . S
H793 C809 0.930 . S
H794 C810 0.931 . S
C795 H783 0.929 . S
C795 C789 1.390 . S
C795 C792 1.386 . S
C796 C791 1.490 . S
C796 C798 1.395 . S
C796 C799 1.403 . S
H797 C803 0.930 . S
C798 H784 0.930 . S
C798 C796 1.395 . S
C798 C801 1.403 . S
C799 C796 1.403 . S
C799 C800 1.524 . S
C799 C803 1.400 . S
C800 H785 0.960 . S
C800 H786 0.960 . S
C800 H787 0.960 . S
C800 C799 1.524 . S
C801 C798 1.403 . S
C801 C802 1.392 . S
C801 C805 1.495 . S
C802 C801 1.392 . S
C802 C803 1.385 . S
C802 C804 1.478 . S
C803 H797 0.930 . S
C803 C799 1.400 . S
C803 C802 1.385 . S
C804 C802 1.478 . S
C804 C806 1.381 . S
C804 C810 1.383 . S
C805 C801 1.495 . S
C805 H811 0.959 . S
C805 H812 0.961 . S
C805 H813 0.960 . S
C806 C804 1.381 . S
C806 C807 1.394 1_556 S
C806 H814 0.930 . S
C807 C806 1.394 1_554 S
C807 C808 1.383 . S
C807 H815 0.929 . S
C808 C807 1.383 . S
C808 C809 1.377 1_554 S
C809 H793 0.930 . S
C809 C808 1.377 1_556 S
C809 C810 1.379 . S
C810 H794 0.931 . S
C810 C804 1.383 . S
C810 C809 1.379 . S
H811 C805 0.959 . S
H812 C805 0.961 . S
H813 C805 0.960 . S
H814 C806 0.930 . S
H815 C807 0.929 . S
H816 C824 0.929 . S
H817 C826 0.930 1_655 S
H818 C828 0.930 . S
H819 C831 0.929 . S
H820 C834 0.930 . S
H821 C836 0.960 . S
H822 C836 0.960 1_655 S
H823 C836 0.960 . S
C824 H816 0.929 . S
C824 C825 1.377 . S
C824 C826 1.384 . S
C825 C824 1.377 . S
C825 C831 1.390 . S
C826 H817 0.930 1_455 S
C826 C824 1.384 . S
C826 C827 1.372 . S
C827 C826 1.372 . S
C827 C828 1.400 . S
C827 C832 1.490 . S
C828 H818 0.930 . S
C828 C827 1.400 . S
C828 C831 1.386 . S
H829 C845 0.930 . S
H830 C846 0.931 1_455 S
C831 H819 0.929 . S
C831 C825 1.390 . S
C831 C828 1.386 . S
C832 C827 1.490 . S
C832 C834 1.395 . S
C832 C835 1.403 . S
H833 C839 0.930 . S
C834 H820 0.930 . S
C834 C832 1.395 . S
C834 C837 1.403 1_455 S
C835 C832 1.403 . S
C835 C836 1.524 . S
C835 C839 1.400 1_455 S
C836 H821 0.960 . S
C836 H822 0.960 1_455 S
C836 H823 0.960 . S
C836 C835 1.524 . S
C837 C834 1.403 1_655 S
C837 C838 1.392 . S
C837 C841 1.495 . S
C838 C837 1.392 . S
C838 C839 1.385 . S
C838 C840 1.478 . S
C839 H833 0.930 . S
C839 C835 1.400 1_655 S
C839 C838 1.385 . S
C840 C838 1.478 . S
C840 C842 1.381 . S
C840 C846 1.383 . S
C841 C837 1.495 . S
C841 H847 0.959 . S
C841 H848 0.961 . S
C841 H849 0.960 . S
C842 C840 1.381 . S
C842 C843 1.394 . S
C842 H850 0.930 . S
C843 C842 1.394 . S
C843 C844 1.383 . S
C843 H851 0.929 . S
C844 C843 1.383 . S
C844 C845 1.377 . S
C845 H829 0.930 . S
C845 C844 1.377 . S
C845 C846 1.379 . S
C846 H830 0.931 1_655 S
C846 C840 1.383 . S
C846 C845 1.379 . S
H847 C841 0.959 . S
H848 C841 0.961 . S
H849 C841 0.960 . S
H850 C842 0.930 . S
H851 C843 0.929 . S
H852 C860 0.929 . S
H853 C862 0.930 . S
H854 C864 0.930 . S
H855 C867 0.929 . S
H856 C870 0.930 . S
H857 C872 0.960 . S
H858 C872 0.960 . S
H859 C872 0.960 . S
C860 H852 0.929 . S
C860 C861 1.377 . S
C860 C862 1.384 . S
C861 C860 1.377 . S
C861 C867 1.390 . S
C862 H853 0.930 . S
C862 C860 1.384 . S
C862 C863 1.372 . S
C863 C862 1.372 . S
C863 C864 1.400 . S
C863 C868 1.490 . S
C864 H854 0.930 . S
C864 C863 1.400 . S
C864 C867 1.386 . S
H865 C881 0.930 . S
H866 C882 0.931 . S
C867 H855 0.929 . S
C867 C861 1.390 . S
C867 C864 1.386 . S
C868 C863 1.490 . S
C868 C870 1.395 1_545 S
C868 C871 1.403 . S
H869 C875 0.930 . S
C870 H856 0.930 . S
C870 C868 1.395 1_565 S
C870 C873 1.403 . S
C871 C868 1.403 . S
C871 C872 1.524 . S
C871 C875 1.400 . S
C872 H857 0.960 . S
C872 H858 0.960 . S
C872 H859 0.960 . S
C872 C871 1.524 . S
C873 C870 1.403 . S
C873 C874 1.392 . S
C873 C877 1.495 . S
C874 C873 1.392 . S
C874 C875 1.385 1_565 S
C874 C876 1.478 . S
C875 H869 0.930 . S
C875 C871 1.400 . S
C875 C874 1.385 1_545 S
C876 C874 1.478 . S
C876 C878 1.381 . S
C876 C882 1.383 . S
C877 C873 1.495 . S
C877 H883 0.959 . S
C877 H884 0.961 . S
C877 H885 0.960 . S
C878 C876 1.381 . S
C878 C879 1.394 . S
C878 H886 0.930 . S
C879 C878 1.394 . S
C879 C880 1.383 . S
C879 H887 0.929 . S
C880 C879 1.383 . S
C880 C881 1.377 . S
C881 H865 0.930 . S
C881 C880 1.377 . S
C881 C882 1.379 . S
C882 H866 0.931 . S
C882 C876 1.383 . S
C882 C881 1.379 . S
H883 C877 0.959 . S
H884 C877 0.961 . S
H885 C877 0.960 . S
H886 C878 0.930 . S
H887 C879 0.929 . S
C249 C185 1.192 . S
C268 C20 1.183 . S
C285 C220 1.191 . S
C304 C65 1.197 . S
C321 C25 1.189 . S
C340 C100 1.196 . S
C357 C60 1.191 . S
C376 C145 1.197 . S
C393 C105 1.188 . S
C412 C180 1.190 . S
C429 C140 1.194 . S
C448 C225 1.200 . S
C465 C2 1.251 . S
C484 C143 1.147 . S
C501 C162 1.254 . S
C520 C63 1.176 . S
C537 C223 1.186 . S
C556 C82 1.228 . S
C573 C103 1.185 . S
C592 C202 1.228 . S
C609 C23 1.194 . S
C628 C122 1.250 . S
C645 C183 1.203 . S
C664 C42 1.280 . S
C681 C231 1.491 . S
C700 C31 1.483 . S
C717 C44 0.653 . S
C736 C4 0.702 . S
C753 C111 1.492 . S
C772 C71 1.495 . S
C789 C84 0.662 . S
C808 C124 0.617 . S
C825 C191 1.494 . S
C844 C151 1.501 . S
C861 C204 0.650 . S
C880 C164 0.671 . S
