# Generated by pormake.
# Topology lcv, (4)-cn, num edge types: 1
# Building blocks:
#     Node 0, Type 0, BuildingBlock: ESEHIV_clean_sbu_0, # of connection points: 4
#     Node 1, Type 0, BuildingBlock: ESEHIV_clean_sbu_0, # of connection points: 4
#     Node 2, Type 0, BuildingBlock: ESEHIV_clean_sbu_0, # of connection points: 4
#     Node 3, Type 0, BuildingBlock: ESEHIV_clean_sbu_0, # of connection points: 4
#     Node 4, Type 0, BuildingBlock: ESEHIV_clean_sbu_0, # of connection points: 4
#     Node 5, Type 0, BuildingBlock: ESEHIV_clean_sbu_0, # of connection points: 4
#     Node 6, Type 0, BuildingBlock: ESEHIV_clean_sbu_0, # of connection points: 4
#     Node 7, Type 0, BuildingBlock: ESEHIV_clean_sbu_0, # of connection points: 4
#     Node 8, Type 0, BuildingBlock: ESEHIV_clean_sbu_0, # of connection points: 4
#     Node 9, Type 0, BuildingBlock: ESEHIV_clean_sbu_0, # of connection points: 4
#     Node 10, Type 0, BuildingBlock: ESEHIV_clean_sbu_0, # of connection points: 4
#     Node 11, Type 0, BuildingBlock: ESEHIV_clean_sbu_0, # of connection points: 4
#     Edge 12, Type (0, 0), BuildingBlock: KIFKEQ_clean_linker_1, # of connection points: 2
#     Edge 13, Type (0, 0), BuildingBlock: KIFKEQ_clean_linker_1, # of connection points: 2
#     Edge 14, Type (0, 0), BuildingBlock: KIFKEQ_clean_linker_1, # of connection points: 2
#     Edge 15, Type (0, 0), BuildingBlock: KIFKEQ_clean_linker_1, # of connection points: 2
#     Edge 16, Type (0, 0), BuildingBlock: KIFKEQ_clean_linker_1, # of connection points: 2
#     Edge 17, Type (0, 0), BuildingBlock: KIFKEQ_clean_linker_1, # of connection points: 2
#     Edge 18, Type (0, 0), BuildingBlock: KIFKEQ_clean_linker_1, # of connection points: 2
#     Edge 19, Type (0, 0), BuildingBlock: KIFKEQ_clean_linker_1, # of connection points: 2
#     Edge 20, Type (0, 0), BuildingBlock: KIFKEQ_clean_linker_1, # of connection points: 2
#     Edge 21, Type (0, 0), BuildingBlock: KIFKEQ_clean_linker_1, # of connection points: 2
#     Edge 22, Type (0, 0), BuildingBlock: KIFKEQ_clean_linker_1, # of connection points: 2
#     Edge 23, Type (0, 0), BuildingBlock: KIFKEQ_clean_linker_1, # of connection points: 2
#     Edge 24, Type (0, 0), BuildingBlock: KIFKEQ_clean_linker_1, # of connection points: 2
#     Edge 25, Type (0, 0), BuildingBlock: KIFKEQ_clean_linker_1, # of connection points: 2
#     Edge 26, Type (0, 0), BuildingBlock: KIFKEQ_clean_linker_1, # of connection points: 2
#     Edge 27, Type (0, 0), BuildingBlock: KIFKEQ_clean_linker_1, # of connection points: 2
#     Edge 28, Type (0, 0), BuildingBlock: KIFKEQ_clean_linker_1, # of connection points: 2
#     Edge 29, Type (0, 0), BuildingBlock: KIFKEQ_clean_linker_1, # of connection points: 2
#     Edge 30, Type (0, 0), BuildingBlock: KIFKEQ_clean_linker_1, # of connection points: 2
#     Edge 31, Type (0, 0), BuildingBlock: KIFKEQ_clean_linker_1, # of connection points: 2
#     Edge 32, Type (0, 0), BuildingBlock: KIFKEQ_clean_linker_1, # of connection points: 2
#     Edge 33, Type (0, 0), BuildingBlock: KIFKEQ_clean_linker_1, # of connection points: 2
#     Edge 34, Type (0, 0), BuildingBlock: KIFKEQ_clean_linker_1, # of connection points: 2
#     Edge 35, Type (0, 0), BuildingBlock: KIFKEQ_clean_linker_1, # of connection points: 2
# Relax obj value: 0.158
# Max RMSD: 0.306
# Mean RMSD: 0.280
data_MOF--net-lcv--node1-ESEHIV_clean_sbu_0--edge1-KIFKEQ_clean_linker_1
_symmetry_space_group_name_H-M    P1
_symmetry_Int_Tables_number       1
_symmetry_cell_setting            triclinic
loop_
_symmetry_equiv_pos_as_xyz
'x, y, z'
_cell_length_a     50.736027
_cell_length_b     49.6641
_cell_length_c     50.638018
_cell_angle_alpha  95.616852
_cell_angle_beta   90.176518
_cell_angle_gamma 101.14852
loop_
_atom_site_label
_atom_site_type_symbol
_atom_site_fract_x
_atom_site_fract_y
_atom_site_fract_z
_atom_type_partial_charge
Cu0 Cu 0.0552 0.23858 0.20243 0.0
N1 N 0.04656 0.20746 0.22065 0.0
N2 N 0.05178 0.16873 0.23723 0.0
C3 C 0.06128 0.18767 0.22049 0.0
C4 C 0.03015 0.17699 0.2484 0.0
C5 C 0.02695 0.20093 0.23806 0.0
O6 O 0.08939 0.23779 0.18621 0.0
C7 C 0.07212 0.27877 0.24648 0.0
O8 O 0.08822 0.26253 0.25284 0.0
H9 H 0.07938 0.18795 0.20918 0.0
H10 H 0.0119 0.21312 0.24338 0.0
N11 N 0.0298 0.23867 0.176 0.0
N12 N 0.0029 0.25608 0.15026 0.0
C13 C 0.01665 0.25935 0.17355 0.0
C14 C 0.02416 0.22155 0.15357 0.0
C15 C 0.00753 0.2323 0.13756 0.0
C16 C 0.10077 0.25568 0.17148 0.0
O17 O 0.08952 0.27671 0.16754 0.0
H18 H 0.01863 0.2774 0.1878 0.0
H19 H 0.03263 0.20335 0.14867 0.0
O20 O 0.05684 0.27184 0.22603 0.0
H21 H 0.0178 0.16675 0.26325 0.0
H22 H 1.00015 0.22378 0.11782 0.0
Cu23 Cu 0.16287 0.81513 0.45692 0.0
N24 N 0.16591 0.83664 0.42856 0.0
N25 N 0.17765 0.87336 0.40584 0.0
C26 C 0.18184 0.86161 0.42807 0.0
C27 C 0.15832 0.85488 0.39185 0.0
C28 C 0.15103 0.83234 0.40599 0.0
O29 O 0.19592 0.82577 0.47816 0.0
C30 C 0.1612 0.76502 0.4228 0.0
O31 O 0.17638 0.78034 0.40681 0.0
H32 H 0.1958 0.87112 0.44403 0.0
H33 H 0.13538 0.81447 0.40064 0.0
N34 N 0.13415 0.82304 0.47706 0.0
N35 N 0.09369 0.81863 0.49545 0.0
C36 C 0.11083 0.80578 0.48093 0.0
C37 C 0.13178 0.84764 0.48937 0.0
C38 C 0.10691 0.845 0.50078 0.0
C39 C 0.21651 0.81499 0.47387 0.0
O40 O 0.21526 0.79439 0.45526 0.0
H41 H 0.10662 0.78424 0.47328 0.0
H42 H 0.14694 0.86627 0.48962 0.0
O43 O 0.15457 0.77602 0.44491 0.0
H44 H 0.14921 0.8579 0.3733 0.0
H45 H 0.09902 0.86145 0.51167 0.0
Cu46 Cu 0.70656 0.89018 0.72344 0.0
N47 N 0.7309 0.90434 0.75135 0.0
N48 N 0.75361 0.89552 0.78642 0.0
C49 C 0.74638 0.88815 0.76072 0.0
C50 C 0.74291 0.91804 0.79333 0.0
C51 C 0.72894 0.9235 0.77158 0.0
O52 O 0.72045 0.85948 0.70591 0.0
C53 C 0.66644 0.87748 0.76215 0.0
O54 O 0.6855 0.87194 0.77712 0.0
H55 H 0.7484 0.86858 0.75033 0.0
H56 H 0.71531 0.93779 0.77173 0.0
N57 N 0.70273 0.91519 0.69927 0.0
N58 N 0.68192 0.93156 0.66714 0.0
C59 C 0.68343 0.90948 0.6802 0.0
C60 C 0.71404 0.94191 0.69846 0.0
C61 C 0.70122 0.9521 0.67857 0.0
C62 C 0.74078 0.86596 0.69149 0.0
O63 O 0.74804 0.89172 0.68633 0.0
H64 H 0.66971 0.8898 0.67712 0.0
H65 H 0.7297 0.95338 0.71198 0.0
O66 O 0.67098 0.88081 0.73788 0.0
H67 H 0.74258 0.92789 0.81333 0.0
H68 H 0.70538 0.97312 0.67341 0.0
Cu69 Cu 0.60771 0.36043 0.96523 0.0
N70 N 0.60792 0.38648 0.94106 0.0
N71 N 0.62018 0.42441 0.92029 0.0
C72 C 0.628 0.40759 0.93686 0.0
C73 C 0.59426 0.41342 0.91378 0.0
C74 C 0.58678 0.38997 0.92659 0.0
O75 O 0.63906 0.37159 0.98861 0.0
C76 C 0.61259 0.31827 0.92365 0.0
O77 O 0.62453 0.33866 0.9106 0.0
H78 H 0.64749 0.4113 0.94676 0.0
H79 H 0.56706 0.37688 0.92616 0.0
N80 N 0.57763 0.36045 0.98611 0.0
N81 N 0.54005 0.34588 0.00768 0.0
C82 C 0.55915 0.33848 0.99154 0.0
C83 C 0.57006 0.38251 0.99914 0.0
C84 C 0.54687 0.3736 0.0125 0.0
C85 C 0.66275 0.36966 0.98176 0.0
O86 O 0.66665 0.35855 0.95782 0.0
H87 H 0.55998 0.31749 0.98407 0.0
H88 H 0.58066 0.40358 0.99886 0.0
O89 O 0.60496 0.32347 0.94721 0.0
H90 H 0.58153 0.422 0.90105 0.0
H91 H 0.53572 0.3866 0.02448 0.0
Cu92 Cu 0.24791 0.04774 0.30918 0.0
N93 N 0.21296 0.03794 0.29516 0.0
N94 N 0.17237 0.04359 0.28223 0.0
C95 C 0.19502 0.0547 0.29658 0.0
C96 C 0.17634 0.01882 0.27127 0.0
C97 C 0.20144 0.01546 0.2792 0.0
O98 O 0.27015 0.06596 0.28271 0.0
C99 C 0.24412 0.06813 0.36404 0.0
O100 O 0.24815 0.08795 0.38362 0.0
H101 H 0.19918 0.07528 0.30685 0.0
H102 H 0.21103 0.9984 0.27273 0.0
N103 N 0.26185 0.01775 0.3185 0.0
N104 N 0.2883 0.99592 0.34035 0.0
C105 C 0.28484 0.02025 0.33259 0.0
C106 C 0.25046 0.99078 0.3169 0.0
C107 C 0.26673 0.97726 0.33043 0.0
C108 C 0.27509 0.05282 0.26105 0.0
O109 O 0.2658 0.02612 0.25714 0.0
H110 H 0.2977 0.03995 0.33872 0.0
H111 H 0.23095 0.9818 0.30809 0.0
O112 O 0.24882 0.07414 0.34039 0.0
H113 H 0.16247 0.00448 0.25789 0.0
H114 H 0.26245 0.95562 0.33358 0.0
Cu115 Cu 0.44765 0.94686 0.54141 0.0
N116 N 0.44431 0.96732 0.51309 0.0
N117 N 0.42592 0.98074 0.47769 0.0
C118 C 0.42153 0.96638 0.49908 0.0
C119 C 0.45258 0.99116 0.47836 0.0
C120 C 0.46389 0.98274 0.50017 0.0
O121 O 0.41707 0.91624 0.53822 0.0
C122 C 0.46183 0.99346 0.57918 0.0
O123 O 0.4743 0.00496 0.55923 0.0
H124 H 0.40235 0.95422 0.5038 0.0
H125 H 0.48499 0.98681 0.50574 0.0
N126 N 0.48015 0.93465 0.53912 0.0
N127 N 0.52172 0.93002 0.5501 0.0
C128 C 0.4991 0.93848 0.55852 0.0
C129 C 0.49095 0.92332 0.51762 0.0
C130 C 0.51655 0.92036 0.52433 0.0
C131 C 0.39528 0.91835 0.54993 0.0
O132 O 0.39463 0.9403 0.56646 0.0
H133 H 0.49632 0.94766 0.57832 0.0
H134 H 0.48122 0.91842 0.49824 0.0
O135 O 0.44826 0.96897 0.57531 0.0
H136 H 0.46327 0.0036 0.46394 0.0
H137 H 0.53049 0.91255 0.51092 0.0
Cu138 Cu 0.52124 0.07413 0.81933 0.0
N139 N 0.54235 0.05152 0.8325 0.0
N140 N 0.5634 0.01623 0.8349 0.0
C141 C 0.5475 0.02798 0.82 0.0
C142 C 0.56836 0.03313 0.85769 0.0
C143 C 0.55525 0.05483 0.85617 0.0
O144 O 0.52007 0.06771 0.78103 0.0
C145 C 0.55871 0.12494 0.83125 0.0
O146 O 0.57637 0.11179 0.81969 0.0
H147 H 0.54012 0.01998 0.80014 0.0
H148 H 0.55514 0.07186 0.8712 0.0
N149 N 0.4865 0.06392 0.83118 0.0
N150 N 0.45043 0.06259 0.8564 0.0
C151 C 0.47698 0.07263 0.85455 0.0
C152 C 0.4654 0.04772 0.81778 0.0
C153 C 0.44302 0.04693 0.83329 0.0
C154 C 0.50636 0.07957 0.76646 0.0
O155 O 0.49431 0.09889 0.7774 0.0
H156 H 0.48912 0.08679 0.86949 0.0
H157 H 0.46617 0.03762 0.79796 0.0
O158 O 0.5344 0.11252 0.83238 0.0
H159 H 0.58045 0.02998 0.87433 0.0
H160 H 0.4229 0.03581 0.82796 0.0
Cu161 Cu 0.32764 0.18266 0.06203 0.0
N162 N 0.32588 0.15253 0.03684 0.0
N163 N 0.33822 0.12474 0.00382 0.0
C164 C 0.34435 0.14945 0.01844 0.0
C165 C 0.31479 0.11191 0.01342 0.0
C166 C 0.30725 0.12913 0.03385 0.0
O167 O 0.35913 0.20962 0.05501 0.0
C168 C 0.34029 0.15149 0.10264 0.0
O169 O 0.3549 0.14104 0.08445 0.0
H170 H 0.36194 0.16512 0.01596 0.0
H171 H 0.28974 0.12475 0.046 0.0
N172 N 0.29719 0.19767 0.05858 0.0
N173 N 0.2604 0.21433 0.06955 0.0
C174 C 0.28238 0.20611 0.07854 0.0
C175 C 0.2844 0.20069 0.03611 0.0
C176 C 0.26168 0.21098 0.04279 0.0
C177 C 0.37733 0.22135 0.07192 0.0
O178 O 0.37511 0.2159 0.09677 0.0
H179 H 0.28764 0.20586 0.09922 0.0
H180 H 0.2908 0.19511 0.01631 0.0
O181 O 0.32811 0.17041 0.09716 0.0
H182 H 0.30419 0.0913 0.00671 0.0
H183 H 0.24684 0.21472 0.02893 0.0
Cu184 Cu 0.88324 0.46978 0.09958 0.0
N185 N 0.89104 0.50051 0.08048 0.0
N186 N 0.8886 0.5316 0.05191 0.0
C187 C 0.87715 0.50696 0.06005 0.0
C188 C 0.91064 0.54074 0.06772 0.0
C189 C 0.91206 0.52154 0.08526 0.0
O190 O 0.84621 0.4512 0.09305 0.0
C191 C 0.88755 0.46706 0.15584 0.0
O192 O 0.87281 0.44216 0.15136 0.0
H193 H 0.85871 0.49414 0.05178 0.0
H194 H 0.92727 0.52286 0.10061 0.0
N195 N 0.90425 0.44462 0.08711 0.0
N196 N 0.9259 0.40944 0.08569 0.0
C197 C 0.91483 0.42765 0.10136 0.0
C198 C 0.90891 0.43705 0.06158 0.0
C199 C 0.92226 0.41528 0.06063 0.0
C200 C 0.82612 0.46302 0.09287 0.0
O201 O 0.82949 0.48962 0.10015 0.0
H202 H 0.91329 0.42774 0.12266 0.0
H203 H 0.90218 0.44608 0.04483 0.0
O204 O 0.89272 0.48187 0.13666 0.0
H205 H 0.92485 0.55987 0.06668 0.0
H206 H 0.92836 0.40432 0.04287 0.0
Cu207 Cu 0.02658 0.52266 0.37191 0.0
N208 N 0.04938 0.49751 0.36661 0.0
N209 N 0.06439 0.45939 0.35218 0.0
C210 C 0.04511 0.47439 0.34972 0.0
C211 C 0.08143 0.47375 0.3714 0.0
C212 C 0.07201 0.49717 0.38038 0.0
O213 O 0.99948 0.51563 0.34346 0.0
C214 C 0.06979 0.56855 0.36549 0.0
O215 O 0.08224 0.55069 0.35247 0.0
H216 H 0.02802 0.46861 0.33611 0.0
H217 H 0.08066 0.51258 0.39622 0.0
N218 N 0.01087 0.51818 0.40473 0.0
N219 N 1.00164 0.52829 0.44735 0.0
C220 C 0.01105 0.53832 0.42456 0.0
C221 C 1.001 0.49449 0.41506 0.0
C222 C 0.99519 0.50063 0.44129 0.0
C223 C 0.0067 0.52023 0.32001 0.0
O224 O 0.03215 0.53012 0.31596 0.0
H225 H 0.0186 0.55983 0.42225 0.0
H226 H 0.99921 0.47415 0.40455 0.0
O227 O 0.04631 0.56046 0.37402 0.0
H228 H 0.09896 0.46737 0.37903 0.0
H229 H 0.9877 0.48564 0.45494 0.0
Cu230 Cu 0.91195 0.69728 0.61621 0.0
N231 N 0.94062 0.67953 0.6204 0.0
N232 N 0.96649 0.64976 0.60577 0.0
C233 C 0.94211 0.65655 0.60462 0.0
C234 C 0.98122 0.66957 0.62292 0.0
C235 C 0.96516 0.68802 0.63192 0.0
O236 O 0.91853 0.71103 0.58152 0.0
C237 C 0.87691 0.65292 0.63543 0.0
O238 O 0.89939 0.64626 0.64291 0.0
H239 H 0.92611 0.64634 0.59082 0.0
H240 H 0.97154 0.70719 0.64432 0.0
N241 N 0.9091 0.72611 0.64176 0.0
N242 N 0.88691 0.75672 0.66192 0.0
C243 C 0.88624 0.73592 0.6427 0.0
C244 C 0.92492 0.74085 0.66162 0.0
C245 C 0.91114 0.75988 0.6742 0.0
C246 C 0.92279 0.73655 0.57797 0.0
O247 O 0.91556 0.75418 0.5962 0.0
H248 H 0.86938 0.72795 0.62914 0.0
H249 H 0.94495 0.73819 0.6665 0.0
O250 O 0.87793 0.67187 0.61996 0.0
H251 H 1.00236 0.67137 0.62759 0.0
H252 H 0.91857 0.77523 0.69054 0.0
Cu253 Cu 0.76933 0.6426 0.85483 0.0
N254 N 0.75455 0.6744 0.85985 0.0
N255 N 0.74924 0.71804 0.85884 0.0
C256 C 0.76526 0.69957 0.85267 0.0
C257 C 0.72768 0.70375 0.87038 0.0
C258 C 0.73098 0.67693 0.87088 0.0
O259 O 0.78364 0.63962 0.81941 0.0
C260 C 0.73196 0.60559 0.88158 0.0
O261 O 0.73818 0.62462 0.90171 0.0
H262 H 0.78412 0.70395 0.84255 0.0
H263 H 0.71694 0.66041 0.87849 0.0
N264 N 0.79698 0.64488 0.8798 0.0
N265 N 0.82235 0.63345 0.91148 0.0
C266 C 0.80145 0.62469 0.89414 0.0
C267 C 0.81573 0.66716 0.88816 0.0
C268 C 0.83145 0.66017 0.90768 0.0
C269 C 0.77007 0.64234 0.79898 0.0
O270 O 0.74564 0.64722 0.8019 0.0
H271 H 0.7895 0.60402 0.89192 0.0
H272 H 0.81751 0.68719 0.8809 0.0
O273 O 0.7427 0.60961 0.85926 0.0
H274 H 0.71064 0.71195 0.87798 0.0
H275 H 0.84778 0.67396 0.91872 0.0
H276 H 0.08143 0.1406 0.20471 0.0
H277 H 0.05036 0.14586 0.28393 0.0
H278 H 0.10704 0.10678 0.21656 0.0
H279 H 0.0753 0.11112 0.29562 0.0
H280 H 0.15562 0.08368 0.31419 0.0
H281 H 0.12246 0.11057 0.30337 0.0
H282 H 0.1051 0.06049 0.22839 0.0
H283 H 0.13909 0.03433 0.23875 0.0
C284 C 0.07985 0.13431 0.2246 0.0
C285 C 0.06414 0.14623 0.24347 0.0
C286 C 0.09428 0.11462 0.23132 0.0
C287 C 0.09334 0.1063 0.2571 0.0
C288 C 0.07671 0.11734 0.27568 0.0
C289 C 0.06221 0.13704 0.26891 0.0
C290 C 0.14472 0.07837 0.29541 0.0
C291 C 0.15037 0.0571 0.27719 0.0
C292 C 0.12542 0.09356 0.28935 0.0
C293 C 0.11124 0.08783 0.26491 0.0
C294 C 0.11595 0.06569 0.24723 0.0
C295 C 0.13527 0.05049 0.25329 0.0
H296 H 0.34751 0.9123 0.57546 0.0
H297 H 0.38546 0.88057 0.50614 0.0
H298 H 0.3044 0.88445 0.5598 0.0
H299 H 0.34221 0.85349 0.4899 0.0
H300 H 0.26294 0.7945 0.47337 0.0
H301 H 0.30617 0.81607 0.49445 0.0
H302 H 0.27194 0.88522 0.52658 0.0
H303 H 0.22866 0.86321 0.50636 0.0
C304 C 0.34668 0.89922 0.55694 0.0
C305 C 0.36991 0.89875 0.54201 0.0
C306 C 0.32189 0.88339 0.54782 0.0
C307 C 0.31961 0.86692 0.52336 0.0
C308 C 0.34312 0.86564 0.50895 0.0
C309 C 0.36799 0.88127 0.51823 0.0
C310 C 0.2646 0.81418 0.48518 0.0
C311 C 0.24232 0.82713 0.48813 0.0
C312 C 0.28946 0.82665 0.49714 0.0
C313 C 0.29272 0.8525 0.5122 0.0
C314 C 0.27021 0.86512 0.51555 0.0
C315 C 0.24534 0.85256 0.50379 0.0
H316 H 0.54086 0.97249 0.80037 0.0
H317 H 0.60984 0.00401 0.85233 0.0
H318 H 0.56032 0.93264 0.78513 0.0
H319 H 0.6294 0.96445 0.83702 0.0
H320 H 0.65657 0.8862 0.8152 0.0
H321 H 0.62709 0.9154 0.83543 0.0
H322 H 0.59706 0.92489 0.75763 0.0
H323 H 0.62583 0.89521 0.73753 0.0
C324 C 0.56016 0.97092 0.80857 0.0
C325 C 0.5739 0.99162 0.8274 0.0
C326 C 0.57129 0.94802 0.79988 0.0
C327 C 0.59648 0.9453 0.80977 0.0
C328 C 0.60975 0.96554 0.82929 0.0
C329 C 0.59857 0.98836 0.83803 0.0
C330 C 0.64308 0.89382 0.80246 0.0
C331 C 0.6439 0.88868 0.7747 0.0
C332 C 0.62638 0.91083 0.81405 0.0
C333 C 0.61012 0.92302 0.79815 0.0
C334 C 0.60923 0.91586 0.77055 0.0
C335 C 0.62585 0.89884 0.75897 0.0
H336 H 0.5147 0.29588 0.98481 0.0
H337 H 0.51313 0.3552 0.05286 0.0
H338 H 0.47584 0.26578 1.00121 0.0
H339 H 0.47363 0.32546 0.0688 0.0
H340 H 0.4202 0.25075 0.10222 0.0
H341 H 0.46004 0.28086 0.0871 0.0
H342 H 0.42803 0.26508 0.00673 0.0
H343 H 0.38857 0.23478 0.02165 0.0
C344 C 0.50616 0.30248 0.00332 0.0
C345 C 0.51708 0.328 0.01748 0.0
C346 C 0.48367 0.28535 0.01258 0.0
C347 C 0.47156 0.29328 0.03626 0.0
C348 C 0.48261 0.31866 0.05059 0.0
C349 C 0.50507 0.33585 0.04128 0.0
C350 C 0.42166 0.25375 0.08134 0.0
C351 C 0.40121 0.2403 0.06316 0.0
C352 C 0.44443 0.27109 0.0727 0.0
C353 C 0.44725 0.27526 0.04569 0.0
C354 C 0.42668 0.26198 0.02759 0.0
C355 C 0.40395 0.24474 0.03621 0.0
H356 H 0.19964 0.03165 0.34497 0.0
H357 H 0.26822 0.04063 0.39774 0.0
H358 H 0.18535 0.98376 0.35436 0.0
H359 H 0.25401 0.99266 0.40747 0.0
H360 H 0.19976 0.91749 0.44031 0.0
H361 H 0.21724 0.96429 0.42991 0.0
H362 H 0.19972 0.93888 0.3467 0.0
H363 H 0.18233 0.89186 0.35703 0.0
C364 C 0.21193 0.0231 0.3581 0.0
C365 C 0.23541 0.03938 0.36997 0.0
C366 C 0.20371 0.99578 0.36366 0.0
C367 C 0.21872 0.9843 0.38143 0.0
C368 C 0.24196 1.00092 0.39378 0.0
C369 C 0.25013 0.02829 0.38821 0.0
C370 C 0.19998 0.92166 0.41974 0.0
C371 C 0.18943 0.9008 0.39953 0.0
C372 C 0.21001 0.94857 0.41379 0.0
C373 C 0.20968 0.95534 0.38751 0.0
C374 C 0.19978 0.9344 0.36721 0.0
C375 C 0.18979 0.90746 0.37315 0.0
H376 H 0.56196 0.90184 0.53869 0.0
H377 H 0.53815 0.96253 0.59602 0.0
H378 H 0.60311 0.90449 0.56427 0.0
H379 H 0.57849 0.96394 0.62232 0.0
H380 H 0.66315 0.97695 0.65554 0.0
H381 H 0.62624 0.97819 0.62496 0.0
H382 H 0.61697 0.89028 0.60445 0.0
H383 H 0.65458 0.88937 0.63379 0.0
C384 C 0.5654 0.9158 0.55667 0.0
C385 C 0.5464 0.93181 0.5652 0.0
C386 C 0.58897 0.9171 0.57156 0.0
C387 C 0.59417 0.93432 0.59551 0.0
C388 C 0.5754 0.95066 0.60385 0.0
C389 C 0.55192 0.9495 0.58888 0.0
C390 C 0.65359 0.95801 0.64412 0.0
C391 C 0.66173 0.93301 0.6474 0.0
C392 C 0.63216 0.95863 0.62681 0.0
C393 C 0.61835 0.93428 0.61236 0.0
C394 C 0.62716 0.90951 0.615 0.0
C395 C 0.64859 0.90891 0.63217 0.0
H396 H 0.58326 0.27238 0.94292 0.0
H397 H 0.62757 0.2993 0.8744 0.0
H398 H 0.57104 0.22589 0.92041 0.0
H399 H 0.61506 0.25277 0.85179 0.0
H400 H 0.60837 0.15873 0.8311 0.0
H401 H 0.62239 0.20518 0.85362 0.0
H402 H 0.54212 0.20238 0.88281 0.0
H403 H 0.52816 0.15599 0.86061 0.0
C404 C 0.59051 0.26839 0.92309 0.0
C405 C 0.60638 0.28964 0.91046 0.0
C406 C 0.58332 0.24175 0.91011 0.0
C407 C 0.59192 0.23562 0.88422 0.0
C408 C 0.60827 0.25672 0.87179 0.0
C409 C 0.61534 0.28344 0.88473 0.0
C410 C 0.59369 0.16804 0.84227 0.0
C411 C 0.56715 0.15356 0.84406 0.0
C412 C 0.60172 0.19472 0.85509 0.0
C413 C 0.58342 0.20745 0.87014 0.0
C414 C 0.55684 0.19303 0.87173 0.0
C415 C 0.54878 0.16648 0.85881 0.0
H416 H 0.24899 0.20556 0.12088 0.0
H417 H 0.22303 0.24257 0.05401 0.0
H418 H 0.21239 0.21837 0.14657 0.0
H419 H 0.18536 0.25397 0.07939 0.0
H420 H 0.13211 0.2904 0.14004 0.0
H421 H 0.17231 0.28261 0.11641 0.0
H422 H 0.16497 0.20358 0.14757 0.0
H423 H 0.12556 0.21169 0.17168 0.0
C424 C 0.23566 0.21655 0.11159 0.0
C425 C 0.23909 0.22285 0.08516 0.0
C426 C 0.21436 0.22361 0.12631 0.0
C427 C 0.19573 0.23695 0.11499 0.0
C428 C 0.19944 0.24387 0.08881 0.0
C429 C 0.22089 0.23697 0.07411 0.0
C430 C 0.13924 0.27147 0.14196 0.0
C431 C 0.12565 0.2517 0.15777 0.0
C432 C 0.16217 0.26693 0.12829 0.0
C433 C 0.17192 0.24248 0.1301 0.0
C434 C 0.15837 0.22287 0.14608 0.0
C435 C 0.13561 0.22746 0.15981 0.0
H436 H 0.295 0.10821 0.26192 0.0
H437 H 0.28681 0.03144 0.21162 0.0
H438 H 0.31475 0.13329 0.22546 0.0
H439 H 0.3061 0.05658 0.17507 0.0
H440 H 0.35875 0.10736 0.1189 0.0
H441 H 0.34678 0.08437 0.15886 0.0
H442 H 0.29815 0.14438 0.18351 0.0
H443 H 0.31042 0.1676 0.14392 0.0
C444 C 0.29757 0.09665 0.24315 0.0
C445 C 0.28914 0.06782 0.23964 0.0
C446 C 0.30877 0.11106 0.22221 0.0
C447 C 0.31186 0.09698 0.19729 0.0
C448 C 0.30428 0.06805 0.19407 0.0
C449 C 0.29305 0.05364 0.215 0.0
C450 C 0.34579 0.11586 0.13303 0.0
C451 C 0.33543 0.13923 0.12813 0.0
C452 C 0.3388 0.10257 0.15584 0.0
C453 C 0.32138 0.11242 0.1743 0.0
C454 C 0.31184 0.1364 0.16986 0.0
C455 C 0.31877 0.14964 0.14705 0.0
H456 H 0.43533 0.98927 0.42611 0.0
H457 H 0.37215 0.97633 0.48317 0.0
H458 H 0.40227 0.99148 0.3918 0.0
H459 H 0.33911 0.97857 0.44889 0.0
H460 H 0.28393 0.95774 0.37577 0.0
H461 H 0.31782 0.95303 0.40838 0.0
H462 H 0.37254 0.02133 0.3797 0.0
H463 H 0.339 0.02534 0.34653 0.0
C464 C 0.41445 0.98717 0.43143 0.0
C465 C 0.40645 0.98265 0.45746 0.0
C466 C 0.39547 0.98838 0.41173 0.0
C467 C 0.36802 0.98512 0.41757 0.0
C468 C 0.36002 0.98066 0.44359 0.0
C469 C 0.379 0.97944 0.46328 0.0
C470 C 0.30336 0.9714 0.3761 0.0
C471 C 0.30878 0.99191 0.35853 0.0
C472 C 0.32266 0.96895 0.39503 0.0
C473 C 0.34786 0.9869 0.39675 0.0
C474 C 0.35345 0.00701 0.37879 0.0
C475 C 0.33413 0.00949 0.35994 0.0
H476 H 0.48229 0.1024 0.72801 0.0
H477 H 0.51832 0.03258 0.74099 0.0
H478 H 0.47049 0.0826 0.68229 0.0
H479 H 0.50636 0.01291 0.69558 0.0
H480 H 0.4507 0.971 0.62597 0.0
H481 H 0.46181 0.99323 0.67082 0.0
H482 H 0.49421 0.07 0.639 0.0
H483 H 0.48327 0.04776 0.59397 0.0
C484 C 0.48787 0.08298 0.72108 0.0
C485 C 0.5012 0.06906 0.73816 0.0
C486 C 0.48114 0.0717 0.69493 0.0
C487 C 0.48727 0.0461 0.68553 0.0
C488 C 0.50106 0.03248 0.70244 0.0
C489 C 0.50808 0.0439 0.72839 0.0
C490 C 0.45994 0.99269 0.6285 0.0
C491 C 0.46619 0.0076 0.6064 0.0
C492 C 0.46647 0.00534 0.65417 0.0
C493 C 0.47907 0.03326 0.65833 0.0
C494 C 0.48444 0.04847 0.63634 0.0
C495 C 0.47824 0.0357 0.6106 0.0
H496 H 0.46446 0.07298 0.9084 0.0
H497 H 0.39799 0.06625 0.85321 0.0
H498 H 0.43661 0.08595 0.94474 0.0
H499 H 0.37015 0.07981 0.88941 0.0
H500 H 0.32082 0.08399 0.96421 0.0
H501 H 0.34758 0.06632 0.92912 0.0
H502 H 0.4178 0.12476 0.96026 0.0
H503 H 0.39158 0.14127 0.99597 0.0
C504 C 0.44391 0.0744 0.90405 0.0
C505 C 0.43346 0.06878 0.87796 0.0
C506 C 0.42794 0.08189 0.92484 0.0
C507 C 0.40119 0.08418 0.91998 0.0
C508 C 0.39055 0.07792 0.89393 0.0
C509 C 0.4065 0.0702 0.87316 0.0
C510 C 0.34203 0.09282 0.96379 0.0
C511 C 0.35393 0.11416 0.98297 0.0
C512 C 0.35732 0.08289 0.94347 0.0
C513 C 0.38486 0.0941 0.94184 0.0
C514 C 0.39674 0.11534 0.96108 0.0
C515 C 0.38153 0.12515 0.98141 0.0
H516 H 0.81402 0.40891 0.07258 0.0
H517 H 0.77987 0.48231 0.08487 0.0
H518 H 0.77374 0.38502 0.04768 0.0
H519 H 0.73961 0.45836 0.05968 0.0
H520 H 0.66208 0.39904 0.03033 0.0
H521 H 0.70028 0.42014 0.05968 0.0
H522 H 0.75388 0.38848 0.004 0.0
H523 H 0.71572 0.36717 0.97474 0.0
C524 C 0.79782 0.4199 0.07022 0.0
C525 C 0.80028 0.44763 0.08062 0.0
C526 C 0.7748 0.40622 0.05577 0.0
C527 C 0.75359 0.41986 0.05144 0.0
C528 C 0.75553 0.44721 0.06278 0.0
C529 C 0.77865 0.46097 0.07718 0.0
C530 C 0.68199 0.39641 0.0244 0.0
C531 C 0.68583 0.38141 1.00014 0.0
C532 C 0.70389 0.40865 0.04118 0.0
C533 C 0.73012 0.40601 0.03419 0.0
C534 C 0.7339 0.39063 0.01013 0.0
C535 C 0.71203 0.37853 0.99328 0.0
H536 H 0.02281 0.42077 0.3305 0.0
H537 H 0.10906 0.43798 0.34197 0.0
H538 H 0.02508 0.37677 0.30589 0.0
H539 H 0.11135 0.39381 0.3172 0.0
H540 H 0.10075 0.30026 0.29237 0.0
H541 H 0.09904 0.34369 0.319 0.0
H542 H 0.04089 0.36037 0.2634 0.0
H543 H 0.04216 0.31702 0.23722 0.0
C544 C 0.0423 0.41531 0.32758 0.0
C545 C 0.06578 0.43307 0.33804 0.0
C546 C 0.0436 0.39002 0.31348 0.0
C547 C 0.06842 0.38184 0.30942 0.0
C548 C 0.09189 0.39936 0.32023 0.0
C549 C 0.09058 0.4247 0.33439 0.0
C550 C 0.08759 0.31321 0.28588 0.0
C551 C 0.07154 0.30511 0.26272 0.0
C552 C 0.08672 0.33814 0.30106 0.0
C553 C 0.06973 0.35543 0.29339 0.0
C554 C 0.05384 0.34734 0.27014 0.0
C555 C 0.05471 0.32251 0.25503 0.0
H556 H 0.95545 0.7084 0.54775 0.0
H557 H 0.9355 0.78907 0.5638 0.0
H558 H 0.99512 0.72849 0.5242 0.0
H559 H 0.97486 0.80903 0.5398 0.0
H560 H 0.0666 0.83744 0.5372 0.0
H561 H 0.02224 0.81735 0.55167 0.0
H562 H 0.0153 0.75256 0.48714 0.0
H563 H 0.05989 0.77282 0.47247 0.0
C564 C 0.95902 0.73028 0.54555 0.0
C565 C 0.94246 0.74718 0.55801 0.0
C566 C 0.98183 0.74182 0.53203 0.0
C567 C 0.98851 0.77048 0.5306 0.0
C568 C 0.97068 0.78698 0.54113 0.0
C569 C 0.94796 0.77548 0.55469 0.0
C570 C 0.05556 0.81917 0.52578 0.0
C571 C 0.067 0.80683 0.50363 0.0
C572 C 0.02998 0.80764 0.53406 0.0
C573 C 0.01505 0.78341 0.52047 0.0
C574 C 0.02633 0.77111 0.49819 0.0
C575 C 0.05197 0.78271 0.48984 0.0
H576 H 0.04959 0.61024 0.39223 0.0
H577 H 0.12128 0.59261 0.35401 0.0
H578 H 0.07276 0.65724 0.40548 0.0
H579 H 0.1447 0.63971 0.36781 0.0
H580 H 0.16744 0.73542 0.37536 0.0
H581 H 0.14579 0.688 0.36052 0.0
H582 H 0.10811 0.68063 0.43655 0.0
H583 H 0.12923 0.72801 0.45118 0.0
C584 C 0.0703 0.61639 0.38659 0.0
C585 C 0.08359 0.5976 0.3721 0.0
C586 C 0.08366 0.64331 0.39439 0.0
C587 C 0.11068 0.65217 0.38796 0.0
C588 C 0.12384 0.63359 0.37295 0.0
C589 C 0.11044 0.60658 0.36511 0.0
C590 C 0.15468 0.72361 0.38896 0.0
C591 C 0.14996 0.73559 0.4144 0.0
C592 C 0.14234 0.6964 0.38048 0.0
C593 C 0.125 0.68061 0.39725 0.0
C594 C 0.12091 0.69239 0.42293 0.0
C595 C 0.13321 0.71952 0.43139 0.0
H596 H 0.72847 0.55598 0.85177 0.0
H597 H 0.69544 0.59516 0.92046 0.0
H598 H 0.70086 0.51153 0.86008 0.0
H599 H 0.66755 0.55084 0.92839 0.0
H600 H 0.60187 0.47102 0.91391 0.0
H601 H 0.62828 0.51513 0.90313 0.0
H602 H 0.69972 0.4799 0.89942 0.0
H603 H 0.67329 0.43581 0.91052 0.0
C604 C 0.71511 0.55516 0.86845 0.0
C605 C 0.7141 0.57904 0.88548 0.0
C606 C 0.69947 0.52972 0.87327 0.0
C607 C 0.68213 0.52782 0.89487 0.0
C608 C 0.68065 0.5518 0.91151 0.0
C609 C 0.69667 0.57711 0.90702 0.0
C610 C 0.62316 0.47266 0.91056 0.0
C611 C 0.63557 0.45004 0.91302 0.0
C612 C 0.63827 0.4979 0.90458 0.0
C613 C 0.66599 0.50085 0.90044 0.0
C614 C 0.67833 0.47809 0.90237 0.0
C615 C 0.6633 0.45299 0.90887 0.0
H616 H 0.73401 0.8852 0.835 0.0
H617 H 0.78874 0.86176 0.77603 0.0
H618 H 0.73697 0.84465 0.85758 0.0
H619 H 0.79119 0.82078 0.7981 0.0
H620 H 0.7966 0.75163 0.84873 0.0
H621 H 0.8029 0.79878 0.83657 0.0
H622 H 0.71773 0.79642 0.84376 0.0
H623 H 0.71135 0.74958 0.85557 0.0
C624 C 0.74742 0.87193 0.82738 0.0
C625 C 0.76103 0.87658 0.80362 0.0
C626 C 0.7488 0.84843 0.84009 0.0
C627 C 0.76387 0.82914 0.82935 0.0
C628 C 0.77943 0.83517 0.80698 0.0
C629 C 0.778 0.85862 0.79428 0.0
C630 C 0.7792 0.76112 0.84772 0.0
C631 C 0.75341 0.74652 0.85306 0.0
C632 C 0.78286 0.78824 0.84086 0.0
C633 C 0.76086 0.80148 0.83933 0.0
C634 C 0.73524 0.78714 0.84531 0.0
C635 C 0.73156 0.76008 0.85203 0.0
H636 H 0.97536 0.29001 0.17834 0.0
H637 H 1.00025 0.26748 0.0992 0.0
H638 H 0.95579 0.32652 0.16208 0.0
H639 H 0.98135 0.30447 0.08285 0.0
H640 H 0.95264 0.40878 0.13173 0.0
H641 H 0.97025 0.3705 0.14676 0.0
H642 H 0.94121 0.32056 0.07391 0.0
H643 H 0.92422 0.35923 0.05872 0.0
C644 C 0.97664 0.29293 0.15744 0.0
C645 C 0.9894 0.27598 0.14007 0.0
C646 C 0.96558 0.31395 0.14811 0.0
C647 C 0.96726 0.31873 0.12118 0.0
C648 C 0.97941 0.30124 0.10365 0.0
C649 C 0.99025 0.28001 0.11299 0.0
C650 C 0.95 0.3896 0.11899 0.0
C651 C 0.93706 0.38702 0.09407 0.0
C652 C 0.95997 0.36757 0.12762 0.0
C653 C 0.95698 0.34228 0.11166 0.0
C654 C 0.94419 0.3398 0.0866 0.0
C655 C 0.93444 0.36197 0.07786 0.0
H656 H 0.8715 0.77905 0.70912 0.0
H657 H 0.85541 0.7705 0.62469 0.0
H658 H 0.83425 0.80401 0.71613 0.0
H659 H 0.81833 0.79471 0.63157 0.0
H660 H 0.77768 0.86869 0.65279 0.0
H661 H 0.81331 0.84231 0.64642 0.0
H662 H 0.7829 0.79462 0.71053 0.0
H663 H 0.74702 0.82124 0.71699 0.0
C664 C 0.86011 0.78263 0.69214 0.0
C665 C 0.86624 0.77274 0.66641 0.0
C666 C 0.83865 0.79657 0.69612 0.0
C667 C 0.8233 0.80116 0.67438 0.0
C668 C 0.82981 0.7916 0.6487 0.0
C669 C 0.85095 0.77756 0.64478 0.0
C670 C 0.77831 0.85228 0.66526 0.0
C671 C 0.75945 0.84689 0.68524 0.0
C672 C 0.79875 0.8372 0.66164 0.0
C673 C 0.80099 0.8165 0.67808 0.0
C674 C 0.7818 0.81066 0.69775 0.0
C675 C 0.76107 0.8256 0.70119 0.0
H676 H 0.81832 0.62881 0.78573 0.0
H677 H 0.74866 0.65182 0.75172 0.0
H678 H 0.83858 0.62724 0.74231 0.0
H679 H 0.76895 0.64993 0.70798 0.0
H680 H 0.8371 0.68204 0.64777 0.0
H681 H 0.80732 0.67635 0.68546 0.0
H682 H 0.8338 0.60107 0.69866 0.0
H683 H 0.8639 0.60706 0.66138 0.0
C684 C 0.80721 0.63332 0.76894 0.0
C685 C 0.78188 0.64049 0.77226 0.0
C686 C 0.81873 0.63217 0.74395 0.0
C687 C 0.80528 0.63822 0.72158 0.0
C688 C 0.77985 0.64523 0.72481 0.0
C689 C 0.76822 0.64623 0.74987 0.0
C690 C 0.83582 0.66374 0.65809 0.0
C691 C 0.85306 0.64513 0.65179 0.0
C692 C 0.81882 0.66053 0.67981 0.0
C693 C 0.8187 0.6386 0.69547 0.0
C694 C 0.83396 0.61857 0.68743 0.0
C695 C 0.85099 0.62184 0.66588 0.0
H696 H 0.87252 0.64239 0.93342 0.0
H697 H 0.79433 0.58926 0.93369 0.0
H698 H 0.88864 0.61712 0.96695 0.0
H699 H 0.81045 0.564 0.96722 0.0
H700 H 0.85685 0.50876 0.00899 0.0
H701 H 0.8409 0.53283 0.97426 0.0
H702 H 0.88243 0.61069 0.01348 0.0
H703 H 0.89831 0.58672 0.04807 0.0
C704 C 0.8587 0.62543 0.94071 0.0
C705 C 0.8321 0.61796 0.93083 0.0
C706 C 0.86795 0.61092 0.95996 0.0
C707 C 0.85082 0.58856 0.96987 0.0
C708 C 0.8243 0.58087 0.95978 0.0
C709 C 0.81505 0.59538 0.94051 0.0
C710 C 0.86243 0.53101 0.01031 0.0
C711 C 0.879 0.54574 0.03133 0.0
C712 C 0.85328 0.54483 0.99038 0.0
C713 C 0.86048 0.5737 0.99099 0.0
C714 C 0.87693 0.5884 0.01207 0.0
C715 C 0.88605 0.57462 0.03196 0.0
H716 H 0.91887 0.51738 0.17151 0.0
H717 H 0.88741 0.43827 0.19949 0.0
H718 H 0.94536 0.53141 0.21242 0.0
H719 H 0.91438 0.45222 0.24036 0.0
H720 H 0.95334 0.49513 0.31978 0.0
H721 H 0.92198 0.48367 0.28166 0.0
H722 H 0.98492 0.51879 0.23078 0.0
H723 H 0.01594 0.53052 0.26864 0.0
C724 C 0.91742 0.50303 0.18647 0.0
C725 C 0.90114 0.47659 0.18207 0.0
C726 C 0.93277 0.51103 0.20989 0.0
C727 C 0.9323 0.49282 0.22956 0.0
C728 C 0.91512 0.46682 0.2257 0.0
C729 C 0.89972 0.45879 0.20221 0.0
C730 C 0.9604 0.50054 0.30046 0.0
C731 C 0.98717 0.51378 0.2973 0.0
C732 C 0.94246 0.49384 0.2786 0.0
C733 C 0.95087 0.50041 0.25315 0.0
C734 C 0.97759 0.51383 0.25013 0.0
C735 C 0.99548 0.5204 0.27187 0.0
H736 H 0.97545 0.50987 0.49112 0.0
H737 H 0.02395 0.58231 0.46243 0.0
H738 H 0.97127 0.53622 0.53322 0.0
H739 H 0.01825 0.60888 0.50383 0.0
H740 H 0.01626 0.65059 0.58559 0.0
H741 H 0.02819 0.61846 0.55002 0.0
H742 H 0.9475 0.57019 0.54947 0.0
H743 H 0.93629 0.6013 0.58574 0.0
C744 C 0.98533 0.5313 0.4936 0.0
C745 C 0.99981 0.54377 0.47285 0.0
C746 C 0.9827 0.54656 0.51784 0.0
C747 C 0.99422 0.57481 0.52199 0.0
C748 C 0.00933 0.58711 0.50159 0.0
C749 C 0.0122 0.57182 0.47746 0.0
C750 C 1.00138 0.63266 0.57836 0.0
C751 C 0.9752 0.6287 0.58821 0.0
C752 C 0.00807 0.61443 0.5577 0.0
C753 C 0.9887 0.59191 0.54648 0.0
C754 C 0.96307 0.58711 0.55759 0.0
C755 C 0.95649 0.60517 0.57825 0.0
loop_
_geom_bond_atom_site_label_1
_geom_bond_atom_site_label_2
_geom_bond_distance
_geom_bond_site_symmetry_2
_ccdc_geom_bond_type
Cu0 N1 1.999 . S
Cu0 O6 1.974 . S
Cu0 N11 1.985 . S
Cu0 O20 1.959 . S
N1 Cu0 1.999 . S
N1 C3 1.263 . S
N1 C5 1.389 . S
N2 C3 1.358 . S
N2 C4 1.400 . S
C3 N1 1.263 . S
C3 N2 1.358 . S
C3 H9 0.930 . S
C4 N2 1.400 . S
C4 C5 1.351 . S
C4 H21 0.930 . S
C5 N1 1.389 . S
C5 C4 1.351 . S
C5 H10 0.930 . S
O6 Cu0 1.974 . S
O6 C16 1.282 . S
C7 O8 1.261 . S
C7 O20 1.251 . S
O8 C7 1.261 . S
H9 C3 0.930 . S
H10 C5 0.930 . S
N11 Cu0 1.985 . S
N11 C13 1.335 1_455 S
N11 C14 1.390 . S
N12 C13 1.345 . S
N12 C15 1.336 1_655 S
C13 N11 1.335 1_655 S
C13 N12 1.345 . S
C13 H18 0.930 . S
C14 N11 1.390 . S
C14 C15 1.346 . S
C14 H19 0.930 . S
C15 N12 1.336 1_455 S
C15 C14 1.346 . S
C15 H22 0.929 . S
C16 O6 1.282 . S
C16 O17 1.216 . S
O17 C16 1.216 . S
H18 C13 0.930 . S
H19 C14 0.930 . S
O20 Cu0 1.959 . S
O20 C7 1.251 . S
H21 C4 0.930 . S
H22 C15 0.929 . S
Cu23 N24 1.999 . S
Cu23 O29 1.974 . S
Cu23 N34 1.985 . S
Cu23 O43 1.959 . S
N24 Cu23 1.999 . S
N24 C26 1.263 . S
N24 C28 1.389 . S
N25 C26 1.358 . S
N25 C27 1.400 . S
C26 N24 1.263 . S
C26 N25 1.358 . S
C26 H32 0.930 . S
C27 N25 1.400 . S
C27 C28 1.351 . S
C27 H44 0.930 . S
C28 N24 1.389 . S
C28 C27 1.351 . S
C28 H33 0.930 . S
O29 Cu23 1.974 . S
O29 C39 1.282 . S
C30 O31 1.261 . S
C30 O43 1.251 . S
O31 C30 1.261 . S
H32 C26 0.930 . S
H33 C28 0.930 . S
N34 Cu23 1.985 . S
N34 C36 1.335 . S
N34 C37 1.390 . S
N35 C36 1.345 . S
N35 C38 1.336 . S
C36 N34 1.335 . S
C36 N35 1.345 . S
C36 H41 0.930 . S
C37 N34 1.390 . S
C37 C38 1.346 . S
C37 H42 0.930 . S
C38 N35 1.336 . S
C38 C37 1.346 . S
C38 H45 0.929 . S
C39 O29 1.282 . S
C39 O40 1.216 . S
O40 C39 1.216 . S
H41 C36 0.930 . S
H42 C37 0.930 . S
O43 Cu23 1.959 . S
O43 C30 1.251 . S
H44 C27 0.930 . S
H45 C38 0.929 . S
Cu46 N47 1.999 . S
Cu46 O52 1.974 . S
Cu46 N57 1.985 . S
Cu46 O66 1.959 . S
N47 Cu46 1.999 . S
N47 C49 1.263 . S
N47 C51 1.389 . S
N48 C49 1.358 . S
N48 C50 1.400 . S
C49 N47 1.263 . S
C49 N48 1.358 . S
C49 H55 0.930 . S
C50 N48 1.400 . S
C50 C51 1.351 . S
C50 H67 0.930 . S
C51 N47 1.389 . S
C51 C50 1.351 . S
C51 H56 0.930 . S
O52 Cu46 1.974 . S
O52 C62 1.282 . S
C53 O54 1.261 . S
C53 O66 1.251 . S
O54 C53 1.261 . S
H55 C49 0.930 . S
H56 C51 0.930 . S
N57 Cu46 1.985 . S
N57 C59 1.335 . S
N57 C60 1.390 . S
N58 C59 1.345 . S
N58 C61 1.336 . S
C59 N57 1.335 . S
C59 N58 1.345 . S
C59 H64 0.930 . S
C60 N57 1.390 . S
C60 C61 1.346 . S
C60 H65 0.930 . S
C61 N58 1.336 . S
C61 C60 1.346 . S
C61 H68 0.929 . S
C62 O52 1.282 . S
C62 O63 1.216 . S
O63 C62 1.216 . S
H64 C59 0.930 . S
H65 C60 0.930 . S
O66 Cu46 1.959 . S
O66 C53 1.251 . S
H67 C50 0.930 . S
H68 C61 0.929 . S
Cu69 N70 1.999 . S
Cu69 O75 1.974 . S
Cu69 N80 1.985 . S
Cu69 O89 1.959 . S
N70 Cu69 1.999 . S
N70 C72 1.263 . S
N70 C74 1.389 . S
N71 C72 1.358 . S
N71 C73 1.400 . S
C72 N70 1.263 . S
C72 N71 1.358 . S
C72 H78 0.930 . S
C73 N71 1.400 . S
C73 C74 1.351 . S
C73 H90 0.930 . S
C74 N70 1.389 . S
C74 C73 1.351 . S
C74 H79 0.930 . S
O75 Cu69 1.974 . S
O75 C85 1.282 1_556 S
C76 O77 1.261 . S
C76 O89 1.251 . S
O77 C76 1.261 . S
H78 C72 0.930 . S
H79 C74 0.930 . S
N80 Cu69 1.985 . S
N80 C82 1.335 . S
N80 C83 1.390 1_556 S
N81 C82 1.345 . S
N81 C84 1.336 1_556 S
C82 N80 1.335 . S
C82 N81 1.345 . S
C82 H87 0.930 . S
C83 N80 1.390 1_554 S
C83 C84 1.346 . S
C83 H88 0.930 . S
C84 N81 1.336 1_554 S
C84 C83 1.346 . S
C84 H91 0.929 . S
C85 O75 1.282 1_554 S
C85 O86 1.205 1_554 S
O86 C85 1.205 1_556 S
H87 C82 0.930 . S
H88 C83 0.930 . S
O89 Cu69 1.959 . S
O89 C76 1.251 . S
H90 C73 0.930 . S
H91 C84 0.929 . S
Cu92 N93 1.999 . S
Cu92 O98 1.974 . S
Cu92 N103 1.985 . S
Cu92 O112 1.959 1_545 S
N93 Cu92 1.999 . S
N93 C95 1.263 . S
N93 C97 1.389 . S
N94 C95 1.358 . S
N94 C96 1.400 . S
C95 N93 1.263 . S
C95 N94 1.358 . S
C95 H101 0.930 . S
C96 N94 1.400 . S
C96 C97 1.351 . S
C96 H113 0.930 . S
C97 N93 1.389 . S
C97 C96 1.351 . S
C97 H102 0.930 . S
O98 Cu92 1.974 . S
O98 C108 1.282 . S
C99 O100 1.261 . S
C99 O112 1.251 . S
O100 C99 1.261 . S
H101 C95 0.930 . S
H102 C97 0.930 . S
N103 Cu92 1.985 . S
N103 C105 1.335 1_545 S
N103 C106 1.390 . S
N104 C105 1.345 . S
N104 C107 1.336 . S
C105 N103 1.335 1_565 S
C105 N104 1.345 . S
C105 H110 0.930 . S
C106 N103 1.390 . S
C106 C107 1.346 1_545 S
C106 H111 0.930 . S
C107 N104 1.336 . S
C107 C106 1.346 1_565 S
C107 H114 0.929 . S
C108 O98 1.282 . S
C108 O109 1.216 . S
O109 C108 1.216 . S
H110 C105 0.930 . S
H111 C106 0.930 . S
O112 Cu92 1.959 1_565 S
O112 C99 1.251 . S
H113 C96 0.930 . S
H114 C107 0.929 . S
Cu115 N116 1.999 . S
Cu115 O121 1.974 . S
Cu115 N126 1.985 . S
Cu115 O135 1.959 . S
N116 Cu115 1.999 . S
N116 C118 1.263 . S
N116 C120 1.378 1_565 S
N117 C118 1.358 . S
N117 C119 1.400 1_565 S
C118 N116 1.263 . S
C118 N117 1.358 . S
C118 H124 0.930 . S
C119 N117 1.400 1_545 S
C119 C120 1.357 . S
C119 H136 0.930 . S
C120 N116 1.378 1_545 S
C120 C119 1.357 . S
C120 H125 0.934 . S
O121 Cu115 1.974 . S
O121 C131 1.282 . S
C122 O123 1.261 . S
C122 O135 1.251 . S
O123 C122 1.261 . S
H124 C118 0.930 . S
H125 C120 0.934 . S
N126 Cu115 1.985 . S
N126 C128 1.335 . S
N126 C129 1.390 . S
N127 C128 1.345 . S
N127 C130 1.336 . S
C128 N126 1.335 . S
C128 N127 1.345 . S
C128 H133 0.930 . S
C129 N126 1.390 . S
C129 C130 1.346 . S
C129 H134 0.930 . S
C130 N127 1.336 . S
C130 C129 1.346 . S
C130 H137 0.929 . S
C131 O121 1.282 . S
C131 O132 1.216 . S
O132 C131 1.216 . S
H133 C128 0.930 . S
H134 C129 0.930 . S
O135 Cu115 1.959 . S
O135 C122 1.251 . S
H136 C119 0.930 . S
H137 C130 0.929 . S
Cu138 N139 1.999 . S
Cu138 O144 1.974 . S
Cu138 N149 1.985 . S
Cu138 O158 1.959 . S
N139 Cu138 1.999 . S
N139 C141 1.263 . S
N139 C143 1.389 . S
N140 C141 1.358 . S
N140 C142 1.400 . S
C141 N139 1.263 . S
C141 N140 1.358 . S
C141 H147 0.930 . S
C142 N140 1.400 . S
C142 C143 1.351 . S
C142 H159 0.930 . S
C143 N139 1.389 . S
C143 C142 1.351 . S
C143 H148 0.930 . S
O144 Cu138 1.974 . S
O144 C154 1.282 . S
C145 O146 1.261 . S
C145 O158 1.251 . S
O146 C145 1.261 . S
H147 C141 0.930 . S
H148 C143 0.930 . S
N149 Cu138 1.985 . S
N149 C151 1.335 . S
N149 C152 1.390 . S
N150 C151 1.345 . S
N150 C153 1.336 . S
C151 N149 1.335 . S
C151 N150 1.345 . S
C151 H156 0.930 . S
C152 N149 1.390 . S
C152 C153 1.346 . S
C152 H157 0.930 . S
C153 N150 1.336 . S
C153 C152 1.346 . S
C153 H160 0.929 . S
C154 O144 1.282 . S
C154 O155 1.216 . S
O155 C154 1.216 . S
H156 C151 0.930 . S
H157 C152 0.930 . S
O158 Cu138 1.959 . S
O158 C145 1.251 . S
H159 C142 0.930 . S
H160 C153 0.929 . S
Cu161 N162 1.999 1_554 S
Cu161 O167 1.974 1_554 S
Cu161 N172 1.985 . S
Cu161 O181 1.959 . S
N162 Cu161 1.999 1_556 S
N162 C164 1.263 . S
N162 C166 1.389 . S
N163 C164 1.358 . S
N163 C165 1.400 . S
C164 N162 1.263 . S
C164 N163 1.358 . S
C164 H170 0.930 . S
C165 N163 1.400 . S
C165 C166 1.351 . S
C165 H182 0.930 . S
C166 N162 1.389 . S
C166 C165 1.351 . S
C166 H171 0.930 . S
O167 Cu161 1.974 1_556 S
O167 C177 1.282 1_556 S
C168 O169 1.261 . S
C168 O181 1.251 . S
O169 C168 1.261 . S
H170 C164 0.930 . S
H171 C166 0.930 . S
N172 Cu161 1.985 . S
N172 C174 1.335 . S
N172 C175 1.390 . S
N173 C174 1.345 . S
N173 C176 1.336 . S
C174 N172 1.335 . S
C174 N173 1.345 . S
C174 H179 0.930 . S
C175 N172 1.390 . S
C175 C176 1.346 . S
C175 H180 0.930 . S
C176 N173 1.336 . S
C176 C175 1.346 . S
C176 H183 0.929 . S
C177 O167 1.282 1_554 S
C177 O178 1.216 . S
O178 C177 1.216 . S
H179 C174 0.930 . S
H180 C175 0.930 . S
O181 Cu161 1.959 . S
O181 C168 1.251 . S
H182 C165 0.930 . S
H183 C176 0.929 . S
Cu184 N185 1.999 . S
Cu184 O190 1.974 . S
Cu184 N195 1.985 . S
Cu184 O204 1.959 . S
N185 Cu184 1.999 . S
N185 C187 1.263 . S
N185 C189 1.389 . S
N186 C187 1.358 . S
N186 C188 1.400 . S
C187 N185 1.263 . S
C187 N186 1.358 . S
C187 H193 0.930 . S
C188 N186 1.400 . S
C188 C189 1.351 . S
C188 H205 0.930 . S
C189 N185 1.389 . S
C189 C188 1.351 . S
C189 H194 0.930 . S
O190 Cu184 1.974 . S
O190 C200 1.282 . S
C191 O192 1.261 . S
C191 O204 1.251 . S
O192 C191 1.261 . S
H193 C187 0.930 . S
H194 C189 0.930 . S
N195 Cu184 1.985 . S
N195 C197 1.335 . S
N195 C198 1.390 . S
N196 C197 1.345 . S
N196 C199 1.336 . S
C197 N195 1.335 . S
C197 N196 1.345 . S
C197 H202 0.930 . S
C198 N195 1.390 . S
C198 C199 1.346 . S
C198 H203 0.930 . S
C199 N196 1.336 . S
C199 C198 1.346 . S
C199 H206 0.929 . S
C200 O190 1.282 . S
C200 O201 1.216 . S
O201 C200 1.216 . S
H202 C197 0.930 . S
H203 C198 0.930 . S
O204 Cu184 1.959 . S
O204 C191 1.251 . S
H205 C188 0.930 . S
H206 C199 0.929 . S
Cu207 N208 1.999 1_655 S
Cu207 O213 1.974 . S
Cu207 N218 1.985 . S
Cu207 O227 1.959 1_655 S
N208 Cu207 1.999 1_455 S
N208 C210 1.263 . S
N208 C212 1.389 . S
N209 C210 1.358 . S
N209 C211 1.400 . S
C210 N208 1.263 . S
C210 N209 1.358 . S
C210 H216 0.932 1_455 S
C211 N209 1.400 . S
C211 C212 1.351 . S
C211 H228 0.930 . S
C212 N208 1.389 . S
C212 C211 1.351 . S
C212 H217 0.930 . S
O213 Cu207 1.974 . S
O213 C223 1.282 . S
C214 O215 1.261 . S
C214 O227 1.251 . S
O215 C214 1.261 . S
H216 C210 0.932 1_655 S
H217 C212 0.930 . S
N218 Cu207 1.985 . S
N218 C220 1.335 . S
N218 C221 1.390 . S
N219 C220 1.345 . S
N219 C222 1.336 . S
C220 N218 1.335 . S
C220 N219 1.345 . S
C220 H225 0.930 . S
C221 N218 1.390 . S
C221 C222 1.346 . S
C221 H226 0.930 . S
C222 N219 1.336 . S
C222 C221 1.346 . S
C222 H229 0.929 . S
C223 O213 1.282 . S
C223 O224 1.216 . S
O224 C223 1.216 . S
H225 C220 0.930 . S
H226 C221 0.930 . S
O227 Cu207 1.959 1_455 S
O227 C214 1.251 . S
H228 C211 0.930 . S
H229 C222 0.929 . S
Cu230 N231 1.999 . S
Cu230 O236 1.974 . S
Cu230 N241 1.985 . S
Cu230 O250 1.959 . S
N231 Cu230 1.999 . S
N231 C233 1.263 . S
N231 C235 1.389 . S
N232 C233 1.358 . S
N232 C234 1.400 . S
C233 N231 1.263 . S
C233 N232 1.358 . S
C233 H239 0.930 . S
C234 N232 1.400 . S
C234 C235 1.351 . S
C234 H251 0.930 . S
C235 N231 1.389 . S
C235 C234 1.351 . S
C235 H240 0.930 . S
O236 Cu230 1.974 . S
O236 C246 1.282 . S
C237 O238 1.261 . S
C237 O250 1.251 . S
O238 C237 1.261 . S
H239 C233 0.930 . S
H240 C235 0.930 . S
N241 Cu230 1.985 . S
N241 C243 1.335 . S
N241 C244 1.390 . S
N242 C243 1.345 . S
N242 C245 1.336 . S
C243 N241 1.335 . S
C243 N242 1.345 . S
C243 H248 0.930 . S
C244 N241 1.390 . S
C244 C245 1.346 . S
C244 H249 0.930 . S
C245 N242 1.336 . S
C245 C244 1.346 . S
C245 H252 0.929 . S
C246 O236 1.282 . S
C246 O247 1.216 . S
O247 C246 1.216 . S
H248 C243 0.930 . S
H249 C244 0.930 . S
O250 Cu230 1.959 . S
O250 C237 1.251 . S
H251 C234 0.930 . S
H252 C245 0.929 . S
Cu253 N254 1.999 . S
Cu253 O259 1.974 . S
Cu253 N264 1.985 . S
Cu253 O273 1.959 . S
N254 Cu253 1.999 . S
N254 C256 1.263 . S
N254 C258 1.389 . S
N255 C256 1.358 . S
N255 C257 1.400 . S
C256 N254 1.263 . S
C256 N255 1.358 . S
C256 H262 0.930 . S
C257 N255 1.400 . S
C257 C258 1.351 . S
C257 H274 0.930 . S
C258 N254 1.389 . S
C258 C257 1.351 . S
C258 H263 0.930 . S
O259 Cu253 1.974 . S
O259 C269 1.282 . S
C260 O261 1.261 . S
C260 O273 1.251 . S
O261 C260 1.261 . S
H262 C256 0.930 . S
H263 C258 0.930 . S
N264 Cu253 1.985 . S
N264 C266 1.335 . S
N264 C267 1.390 . S
N265 C266 1.345 . S
N265 C268 1.336 . S
C266 N264 1.335 . S
C266 N265 1.345 . S
C266 H271 0.930 . S
C267 N264 1.390 . S
C267 C268 1.346 . S
C267 H272 0.930 . S
C268 N265 1.336 . S
C268 C267 1.346 . S
C268 H275 0.929 . S
C269 O259 1.282 . S
C269 O270 1.216 . S
O270 C269 1.216 . S
H271 C266 0.930 . S
H272 C267 0.930 . S
O273 Cu253 1.959 . S
O273 C260 1.251 . S
H274 C257 0.930 . S
H275 C268 0.929 . S
H276 C284 0.950 . S
H277 C289 0.950 . S
H278 C286 0.950 . S
H279 C288 0.950 . S
H280 C290 0.950 . S
H281 C292 0.950 . S
H282 C294 0.950 . S
H283 C295 0.950 . S
C284 H276 0.950 . S
C284 C285 1.386 . S
C284 C286 1.391 . S
C285 C284 1.386 . S
C285 C289 1.393 . S
C286 H278 0.950 . S
C286 C284 1.391 . S
C286 C287 1.400 . S
C287 C286 1.400 . S
C287 C288 1.398 . S
C287 C293 1.491 . S
C288 H279 0.950 . S
C288 C287 1.398 . S
C288 C289 1.391 . S
C289 H277 0.950 . S
C289 C285 1.393 . S
C289 C288 1.391 . S
C290 H280 0.950 . S
C290 C291 1.386 . S
C290 C292 1.391 . S
C291 C290 1.386 . S
C291 C295 1.393 . S
C292 H281 0.950 . S
C292 C290 1.391 . S
C292 C293 1.400 . S
C293 C287 1.491 . S
C293 C292 1.400 . S
C293 C294 1.398 . S
C294 H282 0.950 . S
C294 C293 1.398 . S
C294 C295 1.391 . S
C295 H283 0.950 . S
C295 C291 1.393 . S
C295 C294 1.391 . S
H296 C304 0.950 . S
H297 C309 0.950 . S
H298 C306 0.950 . S
H299 C308 0.950 . S
H300 C310 0.950 . S
H301 C312 0.950 . S
H302 C314 0.950 . S
H303 C315 0.950 . S
C304 H296 0.950 . S
C304 C305 1.386 . S
C304 C306 1.391 . S
C305 C304 1.386 . S
C305 C309 1.393 . S
C306 H298 0.950 . S
C306 C304 1.391 . S
C306 C307 1.400 . S
C307 C306 1.400 . S
C307 C308 1.398 . S
C307 C313 1.491 . S
C308 H299 0.950 . S
C308 C307 1.398 . S
C308 C309 1.391 . S
C309 H297 0.950 . S
C309 C305 1.393 . S
C309 C308 1.391 . S
C310 H300 0.950 . S
C310 C311 1.386 . S
C310 C312 1.391 . S
C311 C310 1.386 . S
C311 C315 1.393 . S
C312 H301 0.950 . S
C312 C310 1.391 . S
C312 C313 1.400 . S
C313 C307 1.491 . S
C313 C312 1.400 . S
C313 C314 1.398 . S
C314 H302 0.950 . S
C314 C313 1.398 . S
C314 C315 1.391 . S
C315 H303 0.950 . S
C315 C311 1.393 . S
C315 C314 1.391 . S
H316 C324 0.950 . S
H317 C329 0.950 . S
H318 C326 0.950 . S
H319 C328 0.950 . S
H320 C330 0.950 . S
H321 C332 0.950 . S
H322 C334 0.950 . S
H323 C335 0.950 . S
C324 H316 0.950 . S
C324 C325 1.386 . S
C324 C326 1.391 . S
C325 C324 1.386 . S
C325 C329 1.393 . S
C326 H318 0.950 . S
C326 C324 1.391 . S
C326 C327 1.400 . S
C327 C326 1.400 . S
C327 C328 1.398 . S
C327 C333 1.491 . S
C328 H319 0.950 . S
C328 C327 1.398 . S
C328 C329 1.391 . S
C329 H317 0.950 . S
C329 C325 1.393 . S
C329 C328 1.391 . S
C330 H320 0.950 . S
C330 C331 1.386 . S
C330 C332 1.391 1_565 S
C331 C330 1.386 . S
C331 C335 1.393 . S
C332 H321 0.950 . S
C332 C330 1.391 1_545 S
C332 C333 1.400 . S
C333 C327 1.491 . S
C333 C332 1.400 . S
C333 C334 1.398 1_545 S
C334 H322 0.950 . S
C334 C333 1.398 1_565 S
C334 C335 1.391 . S
C335 H323 0.950 . S
C335 C331 1.393 . S
C335 C334 1.391 . S
H336 C344 0.950 . S
H337 C349 0.950 . S
H338 C346 0.950 . S
H339 C348 0.950 . S
H340 C350 0.950 . S
H341 C352 0.950 . S
H342 C354 0.950 . S
H343 C355 0.950 . S
C344 H336 0.950 . S
C344 C345 1.386 . S
C344 C346 1.391 . S
C345 C344 1.386 . S
C345 C349 1.393 1_556 S
C346 H338 0.950 . S
C346 C344 1.391 . S
C346 C347 1.400 . S
C347 C346 1.400 . S
C347 C348 1.398 1_556 S
C347 C353 1.491 . S
C348 H339 0.950 . S
C348 C347 1.398 1_554 S
C348 C349 1.391 . S
C349 H337 0.950 . S
C349 C345 1.393 1_554 S
C349 C348 1.391 . S
C350 H340 0.950 . S
C350 C351 1.375 1_554 S
C350 C352 1.391 . S
C351 C350 1.375 1_556 S
C351 C355 1.405 . S
C352 H341 0.950 . S
C352 C350 1.391 . S
C352 C353 1.400 1_554 S
C353 C347 1.491 . S
C353 C352 1.400 1_556 S
C353 C354 1.398 . S
C354 H342 0.950 . S
C354 C353 1.398 . S
C354 C355 1.391 . S
C355 H343 0.950 . S
C355 C351 1.405 . S
C355 C354 1.391 . S
H356 C364 0.950 . S
H357 C369 0.950 . S
H358 C366 0.950 . S
H359 C368 0.950 . S
H360 C370 0.950 . S
H361 C372 0.950 . S
H362 C374 0.950 . S
H363 C375 0.950 . S
C364 H356 0.950 . S
C364 C365 1.386 . S
C364 C366 1.391 . S
C365 C364 1.386 . S
C365 C369 1.393 . S
C366 H358 0.950 . S
C366 C364 1.391 . S
C366 C367 1.400 . S
C367 C366 1.400 . S
C367 C368 1.398 . S
C367 C373 1.491 . S
C368 H359 0.950 . S
C368 C367 1.398 . S
C368 C369 1.391 . S
C369 H357 0.950 . S
C369 C365 1.393 . S
C369 C368 1.391 . S
C370 H360 0.950 . S
C370 C371 1.386 . S
C370 C372 1.391 . S
C371 C370 1.386 . S
C371 C375 1.393 . S
C372 H361 0.950 . S
C372 C370 1.391 . S
C372 C373 1.400 . S
C373 C367 1.491 . S
C373 C372 1.400 . S
C373 C374 1.398 . S
C374 H362 0.950 . S
C374 C373 1.398 . S
C374 C375 1.391 . S
C375 H363 0.950 . S
C375 C371 1.393 . S
C375 C374 1.391 . S
H376 C384 0.950 . S
H377 C389 0.950 . S
H378 C386 0.950 . S
H379 C388 0.950 . S
H380 C390 0.950 . S
H381 C392 0.950 . S
H382 C394 0.950 . S
H383 C395 0.950 . S
C384 H376 0.950 . S
C384 C385 1.386 . S
C384 C386 1.391 . S
C385 C384 1.386 . S
C385 C389 1.393 . S
C386 H378 0.950 . S
C386 C384 1.391 . S
C386 C387 1.400 . S
C387 C386 1.400 . S
C387 C388 1.398 . S
C387 C393 1.491 . S
C388 H379 0.950 . S
C388 C387 1.398 . S
C388 C389 1.391 . S
C389 H377 0.950 . S
C389 C385 1.393 . S
C389 C388 1.391 . S
C390 H380 0.950 . S
C390 C391 1.386 . S
C390 C392 1.391 . S
C391 C390 1.386 . S
C391 C395 1.393 . S
C392 H381 0.950 . S
C392 C390 1.391 . S
C392 C393 1.400 . S
C393 C387 1.491 . S
C393 C392 1.400 . S
C393 C394 1.398 . S
C394 H382 0.950 . S
C394 C393 1.398 . S
C394 C395 1.391 . S
C395 H383 0.950 . S
C395 C391 1.393 . S
C395 C394 1.391 . S
H396 C404 0.950 . S
H397 C409 0.950 . S
H398 C406 0.950 . S
H399 C408 0.950 . S
H400 C410 0.950 . S
H401 C412 0.950 . S
H402 C414 0.950 . S
H403 C415 0.950 . S
C404 H396 0.950 . S
C404 C405 1.386 . S
C404 C406 1.391 . S
C405 C404 1.386 . S
C405 C409 1.393 . S
C406 H398 0.950 . S
C406 C404 1.391 . S
C406 C407 1.400 . S
C407 C406 1.400 . S
C407 C408 1.398 . S
C407 C413 1.491 . S
C408 H399 0.950 . S
C408 C407 1.398 . S
C408 C409 1.391 . S
C409 H397 0.950 . S
C409 C405 1.393 . S
C409 C408 1.391 . S
C410 H400 0.950 . S
C410 C411 1.386 . S
C410 C412 1.391 . S
C411 C410 1.386 . S
C411 C415 1.393 . S
C412 H401 0.950 . S
C412 C410 1.391 . S
C412 C413 1.400 . S
C413 C407 1.491 . S
C413 C412 1.400 . S
C413 C414 1.398 . S
C414 H402 0.950 . S
C414 C413 1.398 . S
C414 C415 1.391 . S
C415 H403 0.950 . S
C415 C411 1.393 . S
C415 C414 1.391 . S
H416 C424 0.950 . S
H417 C429 0.950 . S
H418 C426 0.950 . S
H419 C428 0.950 . S
H420 C430 0.950 . S
H421 C432 0.950 . S
H422 C434 0.950 . S
H423 C435 0.950 . S
C424 H416 0.950 . S
C424 C425 1.386 . S
C424 C426 1.391 . S
C425 C424 1.386 . S
C425 C429 1.393 . S
C426 H418 0.950 . S
C426 C424 1.391 . S
C426 C427 1.400 . S
C427 C426 1.400 . S
C427 C428 1.398 . S
C427 C433 1.491 . S
C428 H419 0.950 . S
C428 C427 1.398 . S
C428 C429 1.391 . S
C429 H417 0.950 . S
C429 C425 1.393 . S
C429 C428 1.391 . S
C430 H420 0.950 . S
C430 C431 1.386 . S
C430 C432 1.391 . S
C431 C430 1.386 . S
C431 C435 1.393 . S
C432 H421 0.950 . S
C432 C430 1.391 . S
C432 C433 1.400 . S
C433 C427 1.491 . S
C433 C432 1.400 . S
C433 C434 1.398 . S
C434 H422 0.950 . S
C434 C433 1.398 . S
C434 C435 1.391 . S
C435 H423 0.950 . S
C435 C431 1.393 . S
C435 C434 1.391 . S
H436 C444 0.950 . S
H437 C449 0.950 . S
H438 C446 0.950 . S
H439 C448 0.950 . S
H440 C450 0.950 . S
H441 C452 0.950 . S
H442 C454 0.950 . S
H443 C455 0.950 . S
C444 H436 0.950 . S
C444 C445 1.386 . S
C444 C446 1.391 . S
C445 C444 1.386 . S
C445 C449 1.393 . S
C446 H438 0.950 . S
C446 C444 1.391 . S
C446 C447 1.400 . S
C447 C446 1.400 . S
C447 C448 1.398 . S
C447 C453 1.491 . S
C448 H439 0.950 . S
C448 C447 1.398 . S
C448 C449 1.391 . S
C449 H437 0.950 . S
C449 C445 1.393 . S
C449 C448 1.391 . S
C450 H440 0.950 . S
C450 C451 1.386 . S
C450 C452 1.391 . S
C451 C450 1.386 . S
C451 C455 1.393 . S
C452 H441 0.950 . S
C452 C450 1.391 . S
C452 C453 1.400 . S
C453 C447 1.491 . S
C453 C452 1.400 . S
C453 C454 1.398 . S
C454 H442 0.950 . S
C454 C453 1.398 . S
C454 C455 1.391 . S
C455 H443 0.950 . S
C455 C451 1.393 . S
C455 C454 1.391 . S
H456 C464 0.950 . S
H457 C469 0.950 . S
H458 C466 0.950 . S
H459 C468 0.950 . S
H460 C470 0.950 . S
H461 C472 0.950 . S
H462 C474 0.950 . S
H463 C475 0.950 . S
C464 H456 0.950 . S
C464 C465 1.386 1_545 S
C464 C466 1.391 . S
C465 C464 1.386 1_565 S
C465 C469 1.393 . S
C466 H458 0.950 . S
C466 C464 1.391 . S
C466 C467 1.400 1_545 S
C467 C466 1.400 1_565 S
C467 C468 1.398 . S
C467 C473 1.491 . S
C468 H459 0.950 . S
C468 C467 1.398 . S
C468 C469 1.391 . S
C469 H457 0.950 . S
C469 C465 1.393 . S
C469 C468 1.391 . S
C470 H460 0.950 . S
C470 C471 1.386 . S
C470 C472 1.391 . S
C471 C470 1.386 . S
C471 C475 1.393 1_565 S
C472 H461 0.950 . S
C472 C470 1.391 . S
C472 C473 1.400 . S
C473 C467 1.491 . S
C473 C472 1.400 . S
C473 C474 1.398 1_565 S
C474 H462 0.950 . S
C474 C473 1.398 1_545 S
C474 C475 1.391 . S
C475 H463 0.950 . S
C475 C471 1.393 1_545 S
C475 C474 1.391 . S
H476 C484 0.950 . S
H477 C489 0.950 . S
H478 C486 0.950 . S
H479 C488 0.950 . S
H480 C490 0.950 1_565 S
H481 C492 0.950 . S
H482 C494 0.950 . S
H483 C495 0.950 . S
C484 H476 0.950 . S
C484 C485 1.386 . S
C484 C486 1.391 . S
C485 C484 1.386 . S
C485 C489 1.393 . S
C486 H478 0.950 . S
C486 C484 1.391 . S
C486 C487 1.400 . S
C487 C486 1.400 . S
C487 C488 1.398 . S
C487 C493 1.491 . S
C488 H479 0.950 . S
C488 C487 1.398 . S
C488 C489 1.391 . S
C489 H477 0.950 . S
C489 C485 1.393 . S
C489 C488 1.391 . S
C490 H480 0.950 1_545 S
C490 C491 1.386 . S
C490 C492 1.391 . S
C491 C490 1.386 . S
C491 C495 1.393 . S
C492 H481 0.950 . S
C492 C490 1.391 . S
C492 C493 1.400 . S
C493 C487 1.491 . S
C493 C492 1.400 . S
C493 C494 1.398 . S
C494 H482 0.950 . S
C494 C493 1.398 . S
C494 C495 1.391 . S
C495 H483 0.950 . S
C495 C491 1.393 . S
C495 C494 1.391 . S
H496 C504 0.950 . S
H497 C509 0.950 . S
H498 C506 0.950 . S
H499 C508 0.950 . S
H500 C510 0.950 . S
H501 C512 0.950 . S
H502 C514 0.950 . S
H503 C515 0.950 . S
C504 H496 0.950 . S
C504 C505 1.386 . S
C504 C506 1.391 . S
C505 C504 1.386 . S
C505 C509 1.393 . S
C506 H498 0.950 . S
C506 C504 1.391 . S
C506 C507 1.400 . S
C507 C506 1.400 . S
C507 C508 1.398 . S
C507 C513 1.491 . S
C508 H499 0.950 . S
C508 C507 1.398 . S
C508 C509 1.391 . S
C509 H497 0.950 . S
C509 C505 1.393 . S
C509 C508 1.391 . S
C510 H500 0.950 . S
C510 C511 1.386 . S
C510 C512 1.391 . S
C511 C510 1.386 . S
C511 C515 1.393 . S
C512 H501 0.950 . S
C512 C510 1.391 . S
C512 C513 1.400 . S
C513 C507 1.491 . S
C513 C512 1.400 . S
C513 C514 1.398 . S
C514 H502 0.950 . S
C514 C513 1.398 . S
C514 C515 1.391 . S
C515 H503 0.950 . S
C515 C511 1.393 . S
C515 C514 1.391 . S
H516 C524 0.950 . S
H517 C529 0.950 . S
H518 C526 0.950 . S
H519 C528 0.950 . S
H520 C530 0.950 . S
H521 C532 0.950 . S
H522 C534 0.950 . S
H523 C535 0.950 1_556 S
C524 H516 0.950 . S
C524 C525 1.386 . S
C524 C526 1.391 . S
C525 C524 1.386 . S
C525 C529 1.393 . S
C526 H518 0.950 . S
C526 C524 1.391 . S
C526 C527 1.400 . S
C527 C526 1.400 . S
C527 C528 1.398 . S
C527 C533 1.491 . S
C528 H519 0.950 . S
C528 C527 1.398 . S
C528 C529 1.391 . S
C529 H517 0.950 . S
C529 C525 1.393 . S
C529 C528 1.391 . S
C530 H520 0.950 . S
C530 C531 1.386 . S
C530 C532 1.391 . S
C531 C530 1.386 . S
C531 C535 1.393 . S
C532 H521 0.950 . S
C532 C530 1.391 . S
C532 C533 1.400 . S
C533 C527 1.491 . S
C533 C532 1.400 . S
C533 C534 1.398 . S
C534 H522 0.950 . S
C534 C533 1.398 . S
C534 C535 1.391 . S
C535 H523 0.950 1_554 S
C535 C531 1.393 . S
C535 C534 1.391 . S
H536 C544 0.950 1_655 S
H537 C549 0.950 . S
H538 C546 0.950 1_655 S
H539 C548 0.950 . S
H540 C550 0.950 . S
H541 C552 0.950 . S
H542 C554 0.950 1_655 S
H543 C555 0.950 1_655 S
C544 H536 0.950 1_455 S
C544 C545 1.386 . S
C544 C546 1.391 . S
C545 C544 1.386 . S
C545 C549 1.393 . S
C546 H538 0.950 1_455 S
C546 C544 1.391 . S
C546 C547 1.400 . S
C547 C546 1.400 . S
C547 C548 1.398 . S
C547 C553 1.491 . S
C548 H539 0.950 . S
C548 C547 1.398 . S
C548 C549 1.391 . S
C549 H537 0.950 . S
C549 C545 1.393 . S
C549 C548 1.391 . S
C550 H540 0.950 . S
C550 C551 1.386 . S
C550 C552 1.391 . S
C551 C550 1.386 . S
C551 C555 1.393 . S
C552 H541 0.950 . S
C552 C550 1.391 . S
C552 C553 1.400 . S
C553 C547 1.491 . S
C553 C552 1.400 . S
C553 C554 1.398 . S
C554 H542 0.950 1_455 S
C554 C553 1.398 . S
C554 C555 1.391 . S
C555 H543 0.950 1_455 S
C555 C551 1.393 . S
C555 C554 1.391 . S
H556 C564 0.950 1_655 S
H557 C569 0.950 . S
H558 C566 0.950 . S
H559 C568 0.950 . S
H560 C570 0.950 . S
H561 C572 0.950 . S
H562 C574 0.950 . S
H563 C575 0.950 . S
C564 H556 0.950 1_455 S
C564 C565 1.386 . S
C564 C566 1.391 . S
C565 C564 1.386 . S
C565 C569 1.393 . S
C566 H558 0.950 . S
C566 C564 1.391 . S
C566 C567 1.400 . S
C567 C566 1.400 . S
C567 C568 1.398 . S
C567 C573 1.491 . S
C568 H559 0.950 . S
C568 C567 1.398 . S
C568 C569 1.391 . S
C569 H557 0.950 . S
C569 C565 1.393 . S
C569 C568 1.391 . S
C570 H560 0.950 . S
C570 C571 1.386 . S
C570 C572 1.391 . S
C571 C570 1.386 . S
C571 C575 1.393 . S
C572 H561 0.950 . S
C572 C570 1.391 . S
C572 C573 1.400 . S
C573 C567 1.491 . S
C573 C572 1.400 . S
C573 C574 1.398 . S
C574 H562 0.950 . S
C574 C573 1.398 . S
C574 C575 1.391 . S
C575 H563 0.950 . S
C575 C571 1.393 . S
C575 C574 1.391 . S
H576 C584 0.950 . S
H577 C589 0.950 . S
H578 C586 0.950 . S
H579 C588 0.950 . S
H580 C590 0.950 . S
H581 C592 0.950 . S
H582 C594 0.950 . S
H583 C595 0.950 . S
C584 H576 0.950 . S
C584 C585 1.386 . S
C584 C586 1.391 . S
C585 C584 1.386 . S
C585 C589 1.393 . S
C586 H578 0.950 . S
C586 C584 1.391 . S
C586 C587 1.400 . S
C587 C586 1.400 . S
C587 C588 1.398 . S
C587 C593 1.491 . S
C588 H579 0.950 . S
C588 C587 1.398 . S
C588 C589 1.391 . S
C589 H577 0.950 . S
C589 C585 1.393 . S
C589 C588 1.391 . S
C590 H580 0.950 . S
C590 C591 1.386 . S
C590 C592 1.391 . S
C591 C590 1.386 . S
C591 C595 1.393 . S
C592 H581 0.950 . S
C592 C590 1.391 . S
C592 C593 1.400 . S
C593 C587 1.491 . S
C593 C592 1.400 . S
C593 C594 1.398 . S
C594 H582 0.950 . S
C594 C593 1.398 . S
C594 C595 1.391 . S
C595 H583 0.950 . S
C595 C591 1.393 . S
C595 C594 1.391 . S
H596 C604 0.950 . S
H597 C609 0.950 . S
H598 C606 0.950 . S
H599 C608 0.950 . S
H600 C610 0.950 . S
H601 C612 0.950 . S
H602 C614 0.950 . S
H603 C615 0.950 . S
C604 H596 0.950 . S
C604 C605 1.386 . S
C604 C606 1.391 . S
C605 C604 1.386 . S
C605 C609 1.393 . S
C606 H598 0.950 . S
C606 C604 1.391 . S
C606 C607 1.400 . S
C607 C606 1.400 . S
C607 C608 1.398 . S
C607 C613 1.491 . S
C608 H599 0.950 . S
C608 C607 1.398 . S
C608 C609 1.391 . S
C609 H597 0.950 . S
C609 C605 1.393 . S
C609 C608 1.391 . S
C610 H600 0.950 . S
C610 C611 1.386 . S
C610 C612 1.391 . S
C611 C610 1.386 . S
C611 C615 1.393 . S
C612 H601 0.950 . S
C612 C610 1.391 . S
C612 C613 1.400 . S
C613 C607 1.491 . S
C613 C612 1.400 . S
C613 C614 1.398 . S
C614 H602 0.950 . S
C614 C613 1.398 . S
C614 C615 1.391 . S
C615 H603 0.950 . S
C615 C611 1.393 . S
C615 C614 1.391 . S
H616 C624 0.950 . S
H617 C629 0.950 . S
H618 C626 0.950 . S
H619 C628 0.950 . S
H620 C630 0.950 . S
H621 C632 0.950 . S
H622 C634 0.950 . S
H623 C635 0.950 . S
C624 H616 0.950 . S
C624 C625 1.386 . S
C624 C626 1.391 . S
C625 C624 1.386 . S
C625 C629 1.393 . S
C626 H618 0.950 . S
C626 C624 1.391 . S
C626 C627 1.400 . S
C627 C626 1.400 . S
C627 C628 1.398 . S
C627 C633 1.491 . S
C628 H619 0.950 . S
C628 C627 1.398 . S
C628 C629 1.391 . S
C629 H617 0.950 . S
C629 C625 1.393 . S
C629 C628 1.391 . S
C630 H620 0.950 . S
C630 C631 1.386 . S
C630 C632 1.391 . S
C631 C630 1.386 . S
C631 C635 1.393 . S
C632 H621 0.950 . S
C632 C630 1.391 . S
C632 C633 1.400 . S
C633 C627 1.491 . S
C633 C632 1.400 . S
C633 C634 1.398 . S
C634 H622 0.950 . S
C634 C633 1.398 . S
C634 C635 1.391 . S
C635 H623 0.950 . S
C635 C631 1.393 . S
C635 C634 1.391 . S
H636 C644 0.950 . S
H637 C649 0.950 . S
H638 C646 0.950 . S
H639 C648 0.950 . S
H640 C650 0.950 . S
H641 C652 0.950 . S
H642 C654 0.950 . S
H643 C655 0.950 . S
C644 H636 0.950 . S
C644 C645 1.386 . S
C644 C646 1.391 . S
C645 C644 1.386 . S
C645 C649 1.393 . S
C646 H638 0.950 . S
C646 C644 1.391 . S
C646 C647 1.400 . S
C647 C646 1.400 . S
C647 C648 1.398 . S
C647 C653 1.491 . S
C648 H639 0.950 . S
C648 C647 1.398 . S
C648 C649 1.391 . S
C649 H637 0.950 . S
C649 C645 1.393 . S
C649 C648 1.391 . S
C650 H640 0.950 . S
C650 C651 1.386 . S
C650 C652 1.391 . S
C651 C650 1.386 . S
C651 C655 1.393 . S
C652 H641 0.950 . S
C652 C650 1.391 . S
C652 C653 1.400 . S
C653 C647 1.491 . S
C653 C652 1.400 . S
C653 C654 1.398 . S
C654 H642 0.950 . S
C654 C653 1.398 . S
C654 C655 1.391 . S
C655 H643 0.950 . S
C655 C651 1.393 . S
C655 C654 1.391 . S
H656 C664 0.950 . S
H657 C669 0.950 . S
H658 C666 0.950 . S
H659 C668 0.950 . S
H660 C670 0.950 . S
H661 C672 0.950 . S
H662 C674 0.950 . S
H663 C675 0.950 . S
C664 H656 0.950 . S
C664 C665 1.386 . S
C664 C666 1.391 . S
C665 C664 1.386 . S
C665 C669 1.393 . S
C666 H658 0.950 . S
C666 C664 1.391 . S
C666 C667 1.400 . S
C667 C666 1.400 . S
C667 C668 1.398 . S
C667 C673 1.491 . S
C668 H659 0.950 . S
C668 C667 1.398 . S
C668 C669 1.391 . S
C669 H657 0.950 . S
C669 C665 1.393 . S
C669 C668 1.391 . S
C670 H660 0.950 . S
C670 C671 1.386 . S
C670 C672 1.391 . S
C671 C670 1.386 . S
C671 C675 1.393 . S
C672 H661 0.950 . S
C672 C670 1.391 . S
C672 C673 1.400 . S
C673 C667 1.491 . S
C673 C672 1.400 . S
C673 C674 1.398 . S
C674 H662 0.950 . S
C674 C673 1.398 . S
C674 C675 1.391 . S
C675 H663 0.950 . S
C675 C671 1.393 . S
C675 C674 1.391 . S
H676 C684 0.950 . S
H677 C689 0.950 . S
H678 C686 0.950 . S
H679 C688 0.950 . S
H680 C690 0.950 . S
H681 C692 0.950 . S
H682 C694 0.950 . S
H683 C695 0.950 . S
C684 H676 0.950 . S
C684 C685 1.386 . S
C684 C686 1.391 . S
C685 C684 1.386 . S
C685 C689 1.393 . S
C686 H678 0.950 . S
C686 C684 1.391 . S
C686 C687 1.400 . S
C687 C686 1.400 . S
C687 C688 1.398 . S
C687 C693 1.491 . S
C688 H679 0.950 . S
C688 C687 1.398 . S
C688 C689 1.391 . S
C689 H677 0.950 . S
C689 C685 1.393 . S
C689 C688 1.391 . S
C690 H680 0.950 . S
C690 C691 1.386 . S
C690 C692 1.391 . S
C691 C690 1.386 . S
C691 C695 1.393 . S
C692 H681 0.950 . S
C692 C690 1.391 . S
C692 C693 1.400 . S
C693 C687 1.491 . S
C693 C692 1.400 . S
C693 C694 1.398 . S
C694 H682 0.950 . S
C694 C693 1.398 . S
C694 C695 1.391 . S
C695 H683 0.950 . S
C695 C691 1.393 . S
C695 C694 1.391 . S
H696 C704 0.950 . S
H697 C709 0.950 . S
H698 C706 0.950 . S
H699 C708 0.950 . S
H700 C710 0.950 . S
H701 C712 0.950 . S
H702 C714 0.950 . S
H703 C715 0.950 . S
C704 H696 0.950 . S
C704 C705 1.386 1_554 S
C704 C706 1.391 . S
C705 C704 1.386 1_556 S
C705 C709 1.393 . S
C706 H698 0.950 . S
C706 C704 1.391 . S
C706 C707 1.400 . S
C707 C706 1.400 . S
C707 C708 1.398 . S
C707 C713 1.491 . S
C708 H699 0.950 . S
C708 C707 1.398 . S
C708 C709 1.391 1_554 S
C709 H697 0.950 . S
C709 C705 1.393 . S
C709 C708 1.391 1_556 S
C710 H700 0.950 . S
C710 C711 1.386 . S
C710 C712 1.391 . S
C711 C710 1.386 . S
C711 C715 1.393 . S
C712 H701 0.950 . S
C712 C710 1.391 . S
C712 C713 1.400 . S
C713 C707 1.491 . S
C713 C712 1.400 . S
C713 C714 1.398 . S
C714 H702 0.950 . S
C714 C713 1.398 . S
C714 C715 1.391 . S
C715 H703 0.950 . S
C715 C711 1.393 . S
C715 C714 1.391 . S
H716 C724 0.950 . S
H717 C729 0.950 . S
H718 C726 0.950 . S
H719 C728 0.950 . S
H720 C730 0.950 . S
H721 C732 0.950 . S
H722 C734 0.950 . S
H723 C735 0.950 . S
C724 H716 0.950 . S
C724 C725 1.386 . S
C724 C726 1.391 . S
C725 C724 1.386 . S
C725 C729 1.393 . S
C726 H718 0.950 . S
C726 C724 1.391 . S
C726 C727 1.400 . S
C727 C726 1.400 . S
C727 C728 1.398 . S
C727 C733 1.491 . S
C728 H719 0.950 . S
C728 C727 1.398 . S
C728 C729 1.391 . S
C729 H717 0.950 . S
C729 C725 1.393 . S
C729 C728 1.391 . S
C730 H720 0.950 . S
C730 C731 1.386 . S
C730 C732 1.391 . S
C731 C730 1.386 . S
C731 C735 1.393 . S
C732 H721 0.950 . S
C732 C730 1.391 . S
C732 C733 1.400 . S
C733 C727 1.491 . S
C733 C732 1.400 . S
C733 C734 1.398 . S
C734 H722 0.950 . S
C734 C733 1.398 . S
C734 C735 1.391 . S
C735 H723 0.950 . S
C735 C731 1.393 . S
C735 C734 1.391 . S
H736 C744 0.950 . S
H737 C749 0.950 . S
H738 C746 0.950 . S
H739 C748 0.950 . S
H740 C750 0.950 . S
H741 C752 0.950 . S
H742 C754 0.950 . S
H743 C755 0.950 . S
C744 H736 0.950 . S
C744 C745 1.386 . S
C744 C746 1.391 . S
C745 C744 1.386 . S
C745 C749 1.393 . S
C746 H738 0.950 . S
C746 C744 1.391 . S
C746 C747 1.400 . S
C747 C746 1.400 . S
C747 C748 1.398 . S
C747 C753 1.491 . S
C748 H739 0.950 . S
C748 C747 1.398 . S
C748 C749 1.391 . S
C749 H737 0.950 . S
C749 C745 1.393 . S
C749 C748 1.391 . S
C750 H740 0.950 . S
C750 C751 1.386 . S
C750 C752 1.391 . S
C751 C750 1.386 . S
C751 C755 1.393 . S
C752 H741 0.950 . S
C752 C750 1.391 . S
C752 C753 1.400 . S
C753 C747 1.491 . S
C753 C752 1.400 . S
C753 C754 1.398 . S
C754 H742 0.950 . S
C754 C753 1.398 . S
C754 C755 1.391 . S
C755 H743 0.950 . S
C755 C751 1.393 . S
C755 C754 1.391 . S
C285 N2 1.341 . S
C291 N94 1.229 . S
C305 C131 1.578 . S
C311 C39 1.689 . S
C325 N140 1.343 . S
C331 C53 1.483 . S
C345 N81 1.578 . S
C351 C177 1.413 1_556 S
C365 C99 1.541 . S
C371 N25 1.356 . S
C385 N127 1.459 . S
C391 N58 1.413 . S
C405 C76 1.651 . S
C411 C145 1.731 . S
C425 N173 1.517 . S
C431 C16 1.385 . S
C445 C108 1.606 . S
C451 C168 1.564 . S
C465 N117 1.347 . S
C471 N104 1.386 . S
C485 C154 1.674 . S
C491 C122 1.621 1_545 S
C505 N150 1.423 . S
C511 N163 1.416 . S
C525 C200 1.613 . S
C531 C85 1.506 . S
C545 N209 1.542 . S
C551 C7 1.533 . S
C565 C246 1.570 1_455 S
C571 N35 1.569 . S
C585 C214 1.662 . S
C591 C30 1.736 . S
C605 C260 1.553 . S
C611 N71 1.561 . S
C625 N48 1.261 . S
C631 N255 1.364 . S
C645 N12 1.336 . S
C651 N196 1.281 . S
C665 N242 1.450 . S
C671 C62 1.477 . S
C685 C269 1.535 . S
C691 C237 1.666 . S
C705 N265 1.405 . S
C711 N186 1.222 . S
C725 C191 1.667 . S
C731 C223 1.531 . S
C745 N219 1.495 . S
C751 N232 1.338 . S
