# Generated by pormake.
# Topology wgd, (5)-cn, num edge types: 1
# Building blocks:
#     Node 0, Type 0, BuildingBlock: XOMCOT_clean_sbu_1, # of connection points: 5
#     Node 1, Type 0, BuildingBlock: XOMCOT_clean_sbu_1, # of connection points: 5
#     Node 2, Type 0, BuildingBlock: XOMCOT_clean_sbu_1, # of connection points: 5
#     Node 3, Type 0, BuildingBlock: XOMCOT_clean_sbu_1, # of connection points: 5
#     Node 4, Type 0, BuildingBlock: XOMCOT_clean_sbu_1, # of connection points: 5
#     Node 5, Type 0, BuildingBlock: XOMCOT_clean_sbu_1, # of connection points: 5
#     Node 6, Type 0, BuildingBlock: XOMCOT_clean_sbu_1, # of connection points: 5
#     Node 7, Type 0, BuildingBlock: XOMCOT_clean_sbu_1, # of connection points: 5
#     Node 8, Type 0, BuildingBlock: XOMCOT_clean_sbu_1, # of connection points: 5
#     Node 9, Type 0, BuildingBlock: XOMCOT_clean_sbu_1, # of connection points: 5
#     Node 10, Type 0, BuildingBlock: XOMCOT_clean_sbu_1, # of connection points: 5
#     Node 11, Type 0, BuildingBlock: XOMCOT_clean_sbu_1, # of connection points: 5
#     Node 12, Type 0, BuildingBlock: XOMCOT_clean_sbu_1, # of connection points: 5
#     Node 13, Type 0, BuildingBlock: XOMCOT_clean_sbu_1, # of connection points: 5
#     Node 14, Type 0, BuildingBlock: XOMCOT_clean_sbu_1, # of connection points: 5
#     Node 15, Type 0, BuildingBlock: XOMCOT_clean_sbu_1, # of connection points: 5
#     Node 16, Type 0, BuildingBlock: XOMCOT_clean_sbu_1, # of connection points: 5
#     Node 17, Type 0, BuildingBlock: XOMCOT_clean_sbu_1, # of connection points: 5
#     Node 18, Type 0, BuildingBlock: XOMCOT_clean_sbu_1, # of connection points: 5
#     Node 19, Type 0, BuildingBlock: XOMCOT_clean_sbu_1, # of connection points: 5
#     Node 20, Type 0, BuildingBlock: XOMCOT_clean_sbu_1, # of connection points: 5
#     Node 21, Type 0, BuildingBlock: XOMCOT_clean_sbu_1, # of connection points: 5
#     Node 22, Type 0, BuildingBlock: XOMCOT_clean_sbu_1, # of connection points: 5
#     Node 23, Type 0, BuildingBlock: XOMCOT_clean_sbu_1, # of connection points: 5
#     Node 24, Type 0, BuildingBlock: XOMCOT_clean_sbu_1, # of connection points: 5
#     Node 25, Type 0, BuildingBlock: XOMCOT_clean_sbu_1, # of connection points: 5
#     Node 26, Type 0, BuildingBlock: XOMCOT_clean_sbu_1, # of connection points: 5
#     Node 27, Type 0, BuildingBlock: XOMCOT_clean_sbu_1, # of connection points: 5
#     Node 28, Type 0, BuildingBlock: XOMCOT_clean_sbu_1, # of connection points: 5
#     Node 29, Type 0, BuildingBlock: XOMCOT_clean_sbu_1, # of connection points: 5
#     Node 30, Type 0, BuildingBlock: XOMCOT_clean_sbu_1, # of connection points: 5
#     Node 31, Type 0, BuildingBlock: XOMCOT_clean_sbu_1, # of connection points: 5
#     Edge 32, Type (0, 0), BuildingBlock: TEMPAE_clean_linker_10, # of connection points: 2
#     Edge 33, Type (0, 0), BuildingBlock: TEMPAE_clean_linker_10, # of connection points: 2
#     Edge 34, Type (0, 0), BuildingBlock: TEMPAE_clean_linker_10, # of connection points: 2
#     Edge 35, Type (0, 0), BuildingBlock: TEMPAE_clean_linker_10, # of connection points: 2
#     Edge 36, Type (0, 0), BuildingBlock: TEMPAE_clean_linker_10, # of connection points: 2
#     Edge 37, Type (0, 0), BuildingBlock: TEMPAE_clean_linker_10, # of connection points: 2
#     Edge 38, Type (0, 0), BuildingBlock: TEMPAE_clean_linker_10, # of connection points: 2
#     Edge 39, Type (0, 0), BuildingBlock: TEMPAE_clean_linker_10, # of connection points: 2
#     Edge 40, Type (0, 0), BuildingBlock: TEMPAE_clean_linker_10, # of connection points: 2
#     Edge 41, Type (0, 0), BuildingBlock: TEMPAE_clean_linker_10, # of connection points: 2
#     Edge 42, Type (0, 0), BuildingBlock: TEMPAE_clean_linker_10, # of connection points: 2
#     Edge 43, Type (0, 0), BuildingBlock: TEMPAE_clean_linker_10, # of connection points: 2
#     Edge 44, Type (0, 0), BuildingBlock: TEMPAE_clean_linker_10, # of connection points: 2
#     Edge 45, Type (0, 0), BuildingBlock: TEMPAE_clean_linker_10, # of connection points: 2
#     Edge 46, Type (0, 0), BuildingBlock: TEMPAE_clean_linker_10, # of connection points: 2
#     Edge 47, Type (0, 0), BuildingBlock: TEMPAE_clean_linker_10, # of connection points: 2
#     Edge 48, Type (0, 0), BuildingBlock: TEMPAE_clean_linker_10, # of connection points: 2
#     Edge 49, Type (0, 0), BuildingBlock: TEMPAE_clean_linker_10, # of connection points: 2
#     Edge 50, Type (0, 0), BuildingBlock: TEMPAE_clean_linker_10, # of connection points: 2
#     Edge 51, Type (0, 0), BuildingBlock: TEMPAE_clean_linker_10, # of connection points: 2
#     Edge 52, Type (0, 0), BuildingBlock: TEMPAE_clean_linker_10, # of connection points: 2
#     Edge 53, Type (0, 0), BuildingBlock: TEMPAE_clean_linker_10, # of connection points: 2
#     Edge 54, Type (0, 0), BuildingBlock: TEMPAE_clean_linker_10, # of connection points: 2
#     Edge 55, Type (0, 0), BuildingBlock: TEMPAE_clean_linker_10, # of connection points: 2
#     Edge 56, Type (0, 0), BuildingBlock: TEMPAE_clean_linker_10, # of connection points: 2
#     Edge 57, Type (0, 0), BuildingBlock: TEMPAE_clean_linker_10, # of connection points: 2
#     Edge 58, Type (0, 0), BuildingBlock: TEMPAE_clean_linker_10, # of connection points: 2
#     Edge 59, Type (0, 0), BuildingBlock: TEMPAE_clean_linker_10, # of connection points: 2
#     Edge 60, Type (0, 0), BuildingBlock: TEMPAE_clean_linker_10, # of connection points: 2
#     Edge 61, Type (0, 0), BuildingBlock: TEMPAE_clean_linker_10, # of connection points: 2
#     Edge 62, Type (0, 0), BuildingBlock: TEMPAE_clean_linker_10, # of connection points: 2
#     Edge 63, Type (0, 0), BuildingBlock: TEMPAE_clean_linker_10, # of connection points: 2
#     Edge 64, Type (0, 0), BuildingBlock: TEMPAE_clean_linker_10, # of connection points: 2
#     Edge 65, Type (0, 0), BuildingBlock: TEMPAE_clean_linker_10, # of connection points: 2
#     Edge 66, Type (0, 0), BuildingBlock: TEMPAE_clean_linker_10, # of connection points: 2
#     Edge 67, Type (0, 0), BuildingBlock: TEMPAE_clean_linker_10, # of connection points: 2
#     Edge 68, Type (0, 0), BuildingBlock: TEMPAE_clean_linker_10, # of connection points: 2
#     Edge 69, Type (0, 0), BuildingBlock: TEMPAE_clean_linker_10, # of connection points: 2
#     Edge 70, Type (0, 0), BuildingBlock: TEMPAE_clean_linker_10, # of connection points: 2
#     Edge 71, Type (0, 0), BuildingBlock: TEMPAE_clean_linker_10, # of connection points: 2
#     Edge 72, Type (0, 0), BuildingBlock: TEMPAE_clean_linker_10, # of connection points: 2
#     Edge 73, Type (0, 0), BuildingBlock: TEMPAE_clean_linker_10, # of connection points: 2
#     Edge 74, Type (0, 0), BuildingBlock: TEMPAE_clean_linker_10, # of connection points: 2
#     Edge 75, Type (0, 0), BuildingBlock: TEMPAE_clean_linker_10, # of connection points: 2
#     Edge 76, Type (0, 0), BuildingBlock: TEMPAE_clean_linker_10, # of connection points: 2
#     Edge 77, Type (0, 0), BuildingBlock: TEMPAE_clean_linker_10, # of connection points: 2
#     Edge 78, Type (0, 0), BuildingBlock: TEMPAE_clean_linker_10, # of connection points: 2
#     Edge 79, Type (0, 0), BuildingBlock: TEMPAE_clean_linker_10, # of connection points: 2
#     Edge 80, Type (0, 0), BuildingBlock: TEMPAE_clean_linker_10, # of connection points: 2
#     Edge 81, Type (0, 0), BuildingBlock: TEMPAE_clean_linker_10, # of connection points: 2
#     Edge 82, Type (0, 0), BuildingBlock: TEMPAE_clean_linker_10, # of connection points: 2
#     Edge 83, Type (0, 0), BuildingBlock: TEMPAE_clean_linker_10, # of connection points: 2
#     Edge 84, Type (0, 0), BuildingBlock: TEMPAE_clean_linker_10, # of connection points: 2
#     Edge 85, Type (0, 0), BuildingBlock: TEMPAE_clean_linker_10, # of connection points: 2
#     Edge 86, Type (0, 0), BuildingBlock: TEMPAE_clean_linker_10, # of connection points: 2
#     Edge 87, Type (0, 0), BuildingBlock: TEMPAE_clean_linker_10, # of connection points: 2
#     Edge 88, Type (0, 0), BuildingBlock: TEMPAE_clean_linker_10, # of connection points: 2
#     Edge 89, Type (0, 0), BuildingBlock: TEMPAE_clean_linker_10, # of connection points: 2
#     Edge 90, Type (0, 0), BuildingBlock: TEMPAE_clean_linker_10, # of connection points: 2
#     Edge 91, Type (0, 0), BuildingBlock: TEMPAE_clean_linker_10, # of connection points: 2
#     Edge 92, Type (0, 0), BuildingBlock: TEMPAE_clean_linker_10, # of connection points: 2
#     Edge 93, Type (0, 0), BuildingBlock: TEMPAE_clean_linker_10, # of connection points: 2
#     Edge 94, Type (0, 0), BuildingBlock: TEMPAE_clean_linker_10, # of connection points: 2
#     Edge 95, Type (0, 0), BuildingBlock: TEMPAE_clean_linker_10, # of connection points: 2
#     Edge 96, Type (0, 0), BuildingBlock: TEMPAE_clean_linker_10, # of connection points: 2
#     Edge 97, Type (0, 0), BuildingBlock: TEMPAE_clean_linker_10, # of connection points: 2
#     Edge 98, Type (0, 0), BuildingBlock: TEMPAE_clean_linker_10, # of connection points: 2
#     Edge 99, Type (0, 0), BuildingBlock: TEMPAE_clean_linker_10, # of connection points: 2
#     Edge 100, Type (0, 0), BuildingBlock: TEMPAE_clean_linker_10, # of connection points: 2
#     Edge 101, Type (0, 0), BuildingBlock: TEMPAE_clean_linker_10, # of connection points: 2
#     Edge 102, Type (0, 0), BuildingBlock: TEMPAE_clean_linker_10, # of connection points: 2
#     Edge 103, Type (0, 0), BuildingBlock: TEMPAE_clean_linker_10, # of connection points: 2
#     Edge 104, Type (0, 0), BuildingBlock: TEMPAE_clean_linker_10, # of connection points: 2
#     Edge 105, Type (0, 0), BuildingBlock: TEMPAE_clean_linker_10, # of connection points: 2
#     Edge 106, Type (0, 0), BuildingBlock: TEMPAE_clean_linker_10, # of connection points: 2
#     Edge 107, Type (0, 0), BuildingBlock: TEMPAE_clean_linker_10, # of connection points: 2
#     Edge 108, Type (0, 0), BuildingBlock: TEMPAE_clean_linker_10, # of connection points: 2
#     Edge 109, Type (0, 0), BuildingBlock: TEMPAE_clean_linker_10, # of connection points: 2
#     Edge 110, Type (0, 0), BuildingBlock: TEMPAE_clean_linker_10, # of connection points: 2
#     Edge 111, Type (0, 0), BuildingBlock: TEMPAE_clean_linker_10, # of connection points: 2
# Relax obj value: 0.186
# Max RMSD: 0.165
# Mean RMSD: 0.165
data_MOF--net-wgd--node1-XOMCOT_clean_sbu_1--edge1-TEMPAE_clean_linker_10
_symmetry_space_group_name_H-M    P1
_symmetry_Int_Tables_number       1
_symmetry_cell_setting            triclinic
loop_
_symmetry_equiv_pos_as_xyz
'x, y, z'
_cell_length_a     103.3958
_cell_length_b     103.39201
_cell_length_c     17.473885
_cell_angle_alpha  89.993694
_cell_angle_beta   90.022161
_cell_angle_gamma 90.002378
loop_
_atom_site_label
_atom_site_type_symbol
_atom_site_fract_x
_atom_site_fract_y
_atom_site_fract_z
_atom_type_partial_charge
C0 C 0.17091 0.16214 0.10251 0.0
C1 C 0.16851 0.16194 0.18005 0.0
N2 N 0.17895 0.15693 0.21541 0.0
N3 N 0.18279 0.15729 0.08913 0.0
C4 C 0.18741 0.15418 0.15906 0.0
H5 H 0.1646 0.16606 0.05893 0.0
Co6 Co 0.19104 0.15721 0.99442 0.0
C7 C 0.2122 0.14059 0.05868 0.0
O8 O 0.20622 0.12969 0.04326 0.0
N9 N 0.19916 0.15727 0.89936 0.0
C10 C 0.21329 0.15886 0.80402 0.0
C11 C 0.21177 0.15906 0.88237 0.0
C12 C 0.19324 0.15612 0.83095 0.0
N13 N 0.20159 0.15695 0.772 0.0
O14 O 0.18514 0.13986 0.97663 0.0
H15 H 0.21935 0.16061 0.92402 0.0
H16 H 0.18291 0.15513 0.82409 0.0
O17 O 0.20699 0.15136 0.04112 0.0
C18 C 0.17391 0.13976 0.94656 0.0
O19 O 0.16805 0.15088 0.93515 0.0
N20 N 0.19577 0.17445 0.00958 0.0
C21 C 0.1986 0.20099 0.03256 0.0
C22 C 0.2049 0.1921 0.08058 0.0
C23 C 0.20333 0.17883 0.06825 0.0
C24 C 0.18969 0.18292 0.96204 0.0
C25 C 0.19105 0.19623 0.97209 0.0
H26 H 0.2078 0.17215 0.10772 0.0
H27 H 0.1834 0.1793 0.91744 0.0
H28 H 0.1971 0.15072 0.1696 0.0
H29 H 0.15989 0.16549 0.2082 0.0
H30 H 0.22229 0.16 0.77316 0.0
H31 H 0.2108 0.19538 0.12798 0.0
H32 H 0.18579 0.20272 0.93467 0.0
C33 C 0.08582 0.92392 0.36296 0.0
C34 C 0.08607 0.92127 0.44016 0.0
N35 N 0.09295 0.93061 0.47548 0.0
N36 N 0.09255 0.93484 0.34938 0.0
C37 C 0.09677 0.93866 0.41894 0.0
H38 H 0.08083 0.91838 0.31952 0.0
Co39 Co 0.09424 0.94282 0.25412 0.0
C40 C 0.10991 0.96411 0.32357 0.0
O41 O 0.12093 0.95818 0.31073 0.0
N42 N 0.09581 0.9506 0.15932 0.0
C43 C 0.09506 0.96432 0.0619 0.0
C44 C 0.09419 0.96313 0.14014 0.0
C45 C 0.09766 0.94437 0.09248 0.0
N46 N 0.09721 0.95249 0.03209 0.0
O47 O 0.11179 0.937 0.2463 0.0
H48 H 0.09206 0.97084 0.18002 0.0
H49 H 0.09868 0.93398 0.08805 0.0
O50 O 0.09927 0.95891 0.30314 0.0
C51 C 0.11301 0.925 0.23171 0.0
O52 O 0.10259 0.91778 0.22712 0.0
N53 N 0.07684 0.94756 0.25792 0.0
C54 C 0.05024 0.95197 0.25347 0.0
C55 C 0.05803 0.95819 0.30815 0.0
C56 C 0.07137 0.95583 0.30959 0.0
C57 C 0.06939 0.94127 0.20558 0.0
C58 C 0.05611 0.94339 0.20193 0.0
H59 H 0.0772 0.96047 0.35292 0.0
H60 H 0.07383 0.93444 0.16674 0.0
H61 H 0.1021 0.94745 0.42873 0.0
H62 H 0.08141 0.91316 0.46786 0.0
H63 H 0.09394 0.97317 0.02942 0.0
H64 H 0.05387 0.96483 0.34929 0.0
H65 H 0.05044 0.93812 0.16015 0.0
C66 C 0.3275 0.83617 0.58909 0.0
C67 C 0.32997 0.83596 0.6665 0.0
N68 N 0.32215 0.84464 0.70065 0.0
N69 N 0.31806 0.84484 0.57479 0.0
C70 C 0.31516 0.84999 0.64368 0.0
H71 H 0.3319 0.83004 0.54624 0.0
Co72 Co 0.31002 0.84752 0.48064 0.0
C73 C 0.28252 0.84861 0.52985 0.0
O74 O 0.27936 0.84045 0.47526 0.0
N75 N 0.30243 0.85065 0.38448 0.0
C76 C 0.29107 0.8589 0.28755 0.0
C77 C 0.29177 0.85755 0.36566 0.0
C78 C 0.30848 0.84877 0.31675 0.0
N79 N 0.30163 0.85339 0.25702 0.0
O80 O 0.31601 0.86501 0.47871 0.0
H81 H 0.28529 0.86218 0.40551 0.0
H82 H 0.31801 0.84454 0.31145 0.0
O83 O 0.29418 0.85267 0.53487 0.0
C84 C 0.32804 0.86604 0.46432 0.0
O85 O 0.33506 0.85548 0.46004 0.0
N86 N 0.30489 0.82979 0.48045 0.0
C87 C 0.30007 0.8031 0.4818 0.0
C88 C 0.29633 0.81091 0.54355 0.0
C89 C 0.29906 0.82415 0.54243 0.0
C90 C 0.30902 0.82221 0.42145 0.0
C91 C 0.30655 0.80894 0.42039 0.0
H92 H 0.29668 0.8298 0.59247 0.0
H93 H 0.31479 0.82624 0.37624 0.0
H94 H 0.30759 0.85705 0.65263 0.0
H95 H 0.33676 0.82968 0.69559 0.0
H96 H 0.28375 0.86415 0.25592 0.0
H97 H 0.29148 0.80683 0.59287 0.0
H98 H 0.31018 0.80323 0.37308 0.0
C99 C 0.41797 0.08183 0.82913 0.0
C100 C 0.41769 0.08418 0.90671 0.0
N101 N 0.41101 0.07458 0.94089 0.0
N102 N 0.41151 0.0708 0.81436 0.0
C103 C 0.40724 0.06673 0.88332 0.0
H104 H 0.42306 0.08746 0.78657 0.0
Co105 Co 0.41103 0.06238 0.72017 0.0
C106 C 0.39482 0.03965 0.76279 0.0
O107 O 0.38628 0.04197 0.70884 0.0
N108 N 0.41072 0.0541 0.62531 0.0
C109 C 0.41248 0.03994 0.53021 0.0
C110 C 0.41298 0.04157 0.60842 0.0
C111 C 0.40906 0.05989 0.55682 0.0
N112 N 0.40999 0.05151 0.49787 0.0
O113 O 0.39376 0.0686 0.70353 0.0
H114 H 0.41513 0.03413 0.65008 0.0
H115 H 0.4077 0.07018 0.54997 0.0
O116 O 0.40471 0.0469 0.76968 0.0
C117 C 0.39382 0.07992 0.67459 0.0
O118 O 0.40503 0.08565 0.66407 0.0
N119 N 0.42819 0.0572 0.73443 0.0
C120 C 0.45468 0.05318 0.75408 0.0
C121 C 0.44567 0.04711 0.8023 0.0
C122 C 0.43244 0.0493 0.79179 0.0
C123 C 0.43676 0.06312 0.6868 0.0
C124 C 0.45004 0.0612 0.69531 0.0
H125 H 0.42571 0.04495 0.83132 0.0
H126 H 0.43325 0.06965 0.64311 0.0
H127 H 0.40206 0.0578 0.89198 0.0
H128 H 0.4224 0.09215 0.93565 0.0
H129 H 0.41392 0.03094 0.4997 0.0
H130 H 0.44881 0.04084 0.84836 0.0
H131 H 0.45661 0.06632 0.65779 0.0
C132 C 0.17654 0.83325 0.89945 0.0
C133 C 0.17432 0.83312 0.82175 0.0
N134 N 0.18274 0.84134 0.78868 0.0
N135 N 0.18628 0.84152 0.91475 0.0
C136 C 0.18976 0.84639 0.84633 0.0
H137 H 0.17162 0.82745 0.94195 0.0
Co138 Co 0.19364 0.8446 0.00939 0.0
C139 C 0.22153 0.84801 0.97426 0.0
O140 O 0.22454 0.84087 0.03392 0.0
N141 N 0.20066 0.84816 0.10573 0.0
C142 C 0.20875 0.86023 0.20004 0.0
C143 C 0.20806 0.8586 0.12222 0.0
C144 C 0.19667 0.84388 0.1748 0.0
N145 N 0.20157 0.85093 0.23268 0.0
O146 O 0.18699 0.86191 0.00883 0.0
H147 H 0.21188 0.86529 0.08038 0.0
H148 H 0.18926 0.83669 0.18323 0.0
O149 O 0.20964 0.85042 0.95962 0.0
C150 C 0.17488 0.86286 0.02039 0.0
O151 O 0.16794 0.85225 0.02563 0.0
N152 N 0.19934 0.82711 0.01063 0.0
C153 C 0.20367 0.80038 0.00458 0.0
C154 C 0.20954 0.80869 0.95164 0.0
C155 C 0.20707 0.82197 0.95473 0.0
C156 C 0.19304 0.81904 0.05981 0.0
C157 C 0.19533 0.80572 0.05926 0.0
H158 H 0.21085 0.82793 0.90929 0.0
H159 H 0.18549 0.82272 0.09606 0.0
H160 H 0.19739 0.85342 0.83856 0.0
H161 H 0.16744 0.82708 0.79169 0.0
H162 H 0.21355 0.86803 0.23011 0.0
H163 H 0.21572 0.80492 0.90681 0.0
H164 H 0.19003 0.79958 0.09846 0.0
C165 C 0.41484 0.9206 0.05783 0.0
C166 C 0.41427 0.91809 0.98055 0.0
N167 N 0.4072 0.92746 0.94674 0.0
N168 N 0.40815 0.93148 0.07299 0.0
C169 C 0.40352 0.93536 0.0044 0.0
H170 H 0.4201 0.91506 0.10011 0.0
Co171 Co 0.40721 0.93965 0.16795 0.0
C172 C 0.39278 0.96315 0.12133 0.0
O173 O 0.38366 0.96103 0.1721 0.0
N174 N 0.40642 0.94766 0.26279 0.0
C175 C 0.40822 0.96142 0.35955 0.0
C176 C 0.40921 0.96 0.28151 0.0
C177 C 0.40387 0.94175 0.32992 0.0
N178 N 0.40489 0.94991 0.39006 0.0
O179 O 0.38942 0.93474 0.17846 0.0
H180 H 0.41212 0.96741 0.24134 0.0
H181 H 0.40185 0.93152 0.33462 0.0
O182 O 0.40248 0.95558 0.11725 0.0
C183 C 0.38755 0.92281 0.19265 0.0
O184 O 0.3975 0.9149 0.19258 0.0
N185 N 0.42478 0.94361 0.16157 0.0
C186 C 0.45155 0.94689 0.16601 0.0
C187 C 0.44389 0.95433 0.11619 0.0
C188 C 0.43047 0.95247 0.11436 0.0
C189 C 0.43207 0.93625 0.20962 0.0
C190 C 0.44544 0.93775 0.21301 0.0
H191 H 0.42475 0.95807 0.0747 0.0
H192 H 0.42739 0.92917 0.24586 0.0
H193 H 0.39801 0.94412 0.9963 0.0
H194 H 0.41892 0.9101 0.95167 0.0
H195 H 0.40998 0.97024 0.39126 0.0
H196 H 0.44825 0.96137 0.07823 0.0
H197 H 0.45092 0.9319 0.2529 0.0
C198 C 0.32774 0.16595 0.39685 0.0
C199 C 0.3297 0.16758 0.31931 0.0
N200 N 0.31832 0.16574 0.28325 0.0
N201 N 0.31522 0.163 0.40923 0.0
C202 C 0.30978 0.16295 0.33908 0.0
H203 H 0.33493 0.16697 0.44141 0.0
Co204 Co 0.30729 0.16036 0.50323 0.0
C205 C 0.27985 0.15441 0.46169 0.0
O206 O 0.27561 0.16141 0.51926 0.0
N207 N 0.29962 0.15745 0.59945 0.0
C208 C 0.29095 0.14654 0.69658 0.0
C209 C 0.29255 0.14695 0.6187 0.0
C210 C 0.30253 0.16302 0.66734 0.0
N211 N 0.29737 0.1566 0.72739 0.0
O212 O 0.31487 0.14343 0.50933 0.0
H213 H 0.28948 0.1395 0.57923 0.0
H214 H 0.30934 0.17085 0.67362 0.0
O215 O 0.29203 0.15323 0.45096 0.0
C216 C 0.32463 0.14359 0.55392 0.0
O217 O 0.32806 0.15468 0.58457 0.0
N218 N 0.30106 0.17753 0.49883 0.0
C219 C 0.29748 0.20431 0.4878 0.0
C220 C 0.29016 0.1958 0.4427 0.0
C221 C 0.29223 0.18245 0.4482 0.0
C222 C 0.30851 0.18574 0.54099 0.0
C223 C 0.30671 0.1991 0.53771 0.0
H224 H 0.28722 0.1763 0.40833 0.0
H225 H 0.31648 0.18195 0.57409 0.0
H226 H 0.29971 0.16091 0.32869 0.0
H227 H 0.33874 0.17011 0.29196 0.0
H228 H 0.28598 0.13902 0.72803 0.0
H229 H 0.28316 0.19944 0.40191 0.0
H230 H 0.313 0.20531 0.57096 0.0
C231 C 0.07941 0.07435 0.68584 0.0
C232 C 0.07898 0.07671 0.60824 0.0
N233 N 0.0874 0.06868 0.57355 0.0
N234 N 0.08791 0.06475 0.69966 0.0
C235 C 0.09282 0.06171 0.63036 0.0
H236 H 0.07337 0.07881 0.72896 0.0
Co237 Co 0.09008 0.05625 0.79278 0.0
C238 C 0.09262 0.02887 0.73906 0.0
O239 O 0.08404 0.02499 0.78963 0.0
N240 N 0.09256 0.04812 0.88889 0.0
C241 C 0.10042 0.03648 0.98605 0.0
C242 C 0.09973 0.03763 0.9077 0.0
C243 C 0.0897 0.05355 0.95737 0.0
N244 N 0.09415 0.04657 0.01704 0.0
O245 O 0.10743 0.0626 0.79919 0.0
H246 H 0.10503 0.03166 0.868 0.0
H247 H 0.08506 0.06284 0.96375 0.0
O248 O 0.09601 0.04077 0.73736 0.0
C249 C 0.10761 0.07318 0.83659 0.0
O250 O 0.09653 0.07803 0.85969 0.0
N251 N 0.07247 0.05101 0.78777 0.0
C252 C 0.04559 0.04847 0.77445 0.0
C253 C 0.05382 0.04324 0.71881 0.0
C254 C 0.06721 0.04489 0.72555 0.0
C255 C 0.06451 0.05626 0.84166 0.0
C256 C 0.05111 0.05496 0.83674 0.0
H257 H 0.07324 0.04186 0.67842 0.0
H258 H 0.0684 0.06228 0.88621 0.0
H259 H 0.09964 0.05399 0.6208 0.0
H260 H 0.07263 0.08345 0.57938 0.0
H261 H 0.10587 0.02931 0.01769 0.0
H262 H 0.04992 0.03858 0.66833 0.0
H263 H 0.04508 0.05939 0.88016 0.0
C264 C 0.82534 0.83706 0.93884 0.0
C265 C 0.82778 0.83689 0.86127 0.0
N266 N 0.81712 0.84116 0.82489 0.0
N267 N 0.81323 0.84143 0.95113 0.0
C268 C 0.80847 0.84371 0.88046 0.0
H269 H 0.83192 0.83396 0.98335 0.0
Co270 Co 0.80515 0.84287 0.04613 0.0
C271 C 0.78523 0.85964 0.97135 0.0
O272 O 0.79252 0.87001 0.97572 0.0
N273 N 0.79722 0.84414 0.14116 0.0
C274 C 0.7832 0.84316 0.23737 0.0
C275 C 0.78457 0.8429 0.15898 0.0
C276 C 0.80331 0.84511 0.20911 0.0
N277 N 0.79503 0.84458 0.2685 0.0
O278 O 0.81176 0.86014 0.0571 0.0
H279 H 0.77688 0.84143 0.11795 0.0
H280 H 0.81369 0.84551 0.21542 0.0
O281 O 0.78931 0.84889 0.99787 0.0
C282 C 0.82302 0.86023 0.08682 0.0
O283 O 0.82847 0.84909 0.10323 0.0
N284 N 0.79977 0.82573 0.0385 0.0
C285 C 0.79498 0.7992 0.03595 0.0
C286 C 0.7886 0.80752 0.98478 0.0
C287 C 0.79114 0.82082 0.98689 0.0
C288 C 0.80615 0.81778 0.0878 0.0
C289 C 0.80384 0.80452 0.08795 0.0
H290 H 0.78638 0.82707 0.94612 0.0
H291 H 0.81323 0.8218 0.1267 0.0
H292 H 0.79866 0.84665 0.86889 0.0
H293 H 0.83666 0.83385 0.83392 0.0
H294 H 0.77426 0.84218 0.26899 0.0
H295 H 0.78174 0.80378 0.94346 0.0
H296 H 0.80922 0.79844 0.12711 0.0
C297 C 0.91524 0.0794 0.6095 0.0
C298 C 0.91503 0.08169 0.53185 0.0
N299 N 0.90671 0.07326 0.49964 0.0
N300 N 0.90709 0.0696 0.62564 0.0
C301 C 0.90194 0.06616 0.5578 0.0
H302 H 0.92114 0.08435 0.65137 0.0
Co303 Co 0.90414 0.06223 0.72045 0.0
C304 C 0.90198 0.03423 0.68492 0.0
O305 O 0.90907 0.0315 0.74529 0.0
N306 N 0.90066 0.05516 0.8169 0.0
C307 C 0.88869 0.04672 0.91065 0.0
C308 C 0.89057 0.04726 0.83295 0.0
C309 C 0.90447 0.05958 0.88608 0.0
N310 N 0.89749 0.05447 0.94359 0.0
O311 O 0.88661 0.06817 0.71914 0.0
H312 H 0.88423 0.04299 0.79074 0.0
H313 H 0.91119 0.06741 0.89468 0.0
O314 O 0.89907 0.046 0.67036 0.0
C315 C 0.88512 0.08023 0.73062 0.0
O316 O 0.89539 0.0877 0.73277 0.0
N317 N 0.92182 0.05718 0.72337 0.0
C318 C 0.94846 0.05245 0.72853 0.0
C319 C 0.94077 0.04682 0.67156 0.0
C320 C 0.92751 0.04949 0.66912 0.0
C321 C 0.92942 0.06355 0.77483 0.0
C322 C 0.94265 0.06105 0.78001 0.0
H323 H 0.92195 0.04569 0.62192 0.0
H324 H 0.9254 0.07115 0.80944 0.0
H325 H 0.89488 0.05853 0.55089 0.0
H326 H 0.92089 0.08865 0.5012 0.0
H327 H 0.88106 0.04161 0.94037 0.0
H328 H 0.94497 0.04051 0.62878 0.0
H329 H 0.94839 0.06622 0.82193 0.0
C330 C 0.66886 0.16474 0.38644 0.0
C331 C 0.66636 0.16375 0.30943 0.0
N332 N 0.67499 0.15552 0.27775 0.0
N333 N 0.67902 0.15719 0.40407 0.0
C334 C 0.68237 0.1515 0.33738 0.0
H335 H 0.66398 0.17103 0.42655 0.0
Co336 Co 0.68735 0.1571 0.49886 0.0
C337 C 0.71242 0.14405 0.4623 0.0
O338 O 0.71239 0.13697 0.52471 0.0
N339 N 0.69542 0.15719 0.59421 0.0
C340 C 0.70869 0.16084 0.69175 0.0
C341 C 0.7072 0.16174 0.61364 0.0
C342 C 0.6899 0.1537 0.6611 0.0
N343 N 0.69778 0.15579 0.72157 0.0
O344 O 0.68256 0.13939 0.51509 0.0
H345 H 0.71413 0.16574 0.57378 0.0
H346 H 0.68006 0.15023 0.66562 0.0
O347 O 0.70324 0.15196 0.44912 0.0
C348 C 0.6706 0.1375 0.52829 0.0
O349 O 0.66257 0.1473 0.523 0.0
N350 N 0.69145 0.17462 0.48575 0.0
C351 C 0.69563 0.20124 0.47497 0.0
C352 C 0.70133 0.19269 0.42235 0.0
C353 C 0.69906 0.17939 0.42844 0.0
C354 C 0.68567 0.18276 0.53654 0.0
C355 C 0.68771 0.19608 0.53264 0.0
H356 H 0.70324 0.173 0.38628 0.0
H357 H 0.67945 0.17885 0.58062 0.0
H358 H 0.69036 0.14488 0.33275 0.0
H359 H 0.65903 0.16921 0.27944 0.0
H360 H 0.7171 0.16384 0.72408 0.0
H361 H 0.70729 0.19626 0.37596 0.0
H362 H 0.6832 0.20225 0.57495 0.0
C363 C 0.58815 0.92098 0.19876 0.0
C364 C 0.58835 0.91885 0.12088 0.0
N365 N 0.59128 0.9301 0.08626 0.0
N366 N 0.59097 0.93349 0.21289 0.0
C367 C 0.59271 0.93878 0.14299 0.0
H368 H 0.58568 0.91393 0.242 0.0
Co369 Co 0.59066 0.9416 0.30809 0.0
C370 C 0.60861 0.96077 0.2373 0.0
O371 O 0.61832 0.95258 0.23653 0.0
N372 N 0.59016 0.94965 0.40315 0.0
C373 C 0.58802 0.964 0.49706 0.0
C374 C 0.588 0.96226 0.41891 0.0
C375 C 0.59134 0.94395 0.47213 0.0
N376 N 0.5902 0.95245 0.53016 0.0
O377 O 0.60767 0.93498 0.33029 0.0
H378 H 0.58636 0.96969 0.37644 0.0
H379 H 0.59265 0.93368 0.48023 0.0
O380 O 0.59771 0.95733 0.26464 0.0
C381 C 0.60759 0.9238 0.3611 0.0
O382 O 0.5964 0.91815 0.37329 0.0
N383 N 0.57375 0.9471 0.28851 0.0
C384 C 0.54751 0.95129 0.26043 0.0
C385 C 0.55698 0.95827 0.22024 0.0
C386 C 0.57009 0.95603 0.23507 0.0
C387 C 0.56472 0.94035 0.32867 0.0
C388 C 0.55155 0.94234 0.31588 0.0
H389 H 0.57719 0.96121 0.20187 0.0
H390 H 0.5678 0.93314 0.36965 0.0
H391 H 0.59424 0.94896 0.13276 0.0
H392 H 0.58632 0.90981 0.09203 0.0
H393 H 0.58661 0.97305 0.52711 0.0
H394 H 0.55429 0.9653 0.17712 0.0
H395 H 0.54461 0.93656 0.34727 0.0
C396 C 0.82983 0.1668 0.13692 0.0
C397 C 0.8325 0.16666 0.21408 0.0
N398 N 0.82383 0.1589 0.24876 0.0
N399 N 0.81945 0.15927 0.12316 0.0
C400 C 0.81612 0.15443 0.19224 0.0
H401 H 0.83479 0.17245 0.09388 0.0
Co402 Co 0.81104 0.15775 0.02905 0.0
C403 C 0.78377 0.15847 0.08429 0.0
O404 O 0.78103 0.16809 0.03788 0.0
N405 N 0.80305 0.15581 0.93286 0.0
C406 C 0.79062 0.14991 0.83456 0.0
C407 C 0.79132 0.15107 0.91278 0.0
C408 C 0.80949 0.1567 0.8657 0.0
N409 N 0.80209 0.15343 0.8051 0.0
O410 O 0.81579 0.13992 0.02276 0.0
H411 H 0.78394 0.14774 0.95154 0.0
H412 H 0.81958 0.15942 0.86154 0.0
O413 O 0.79498 0.15324 0.0832 0.0
C414 C 0.82766 0.13834 0.00577 0.0
O415 O 0.83521 0.14853 0.00176 0.0
N416 N 0.80728 0.17578 0.03259 0.0
C417 C 0.80426 0.20267 0.03547 0.0
C418 C 0.80039 0.19512 0.09791 0.0
C419 C 0.8023 0.18173 0.09619 0.0
C420 C 0.81159 0.18313 0.97297 0.0
C421 C 0.81005 0.19653 0.97281 0.0
H422 H 0.79982 0.17615 0.14637 0.0
H423 H 0.81666 0.17873 0.92595 0.0
H424 H 0.80778 0.14832 0.20177 0.0
H425 H 0.84002 0.17211 0.24269 0.0
H426 H 0.78254 0.14612 0.80215 0.0
H427 H 0.79626 0.19955 0.14846 0.0
H428 H 0.81342 0.20206 0.92407 0.0
C429 C 0.58532 0.08006 0.94306 0.0
C430 C 0.5848 0.08195 0.02104 0.0
N431 N 0.59218 0.07283 0.05447 0.0
N432 N 0.59302 0.06984 0.92805 0.0
C433 C 0.59716 0.06576 0.99697 0.0
H434 H 0.58016 0.08556 0.90012 0.0
Co435 Co 0.59625 0.06254 0.83341 0.0
C436 C 0.59865 0.03433 0.86612 0.0
O437 O 0.59192 0.03161 0.80429 0.0
N438 N 0.5999 0.05546 0.73732 0.0
C439 C 0.61176 0.04681 0.64404 0.0
C440 C 0.61039 0.0481 0.72174 0.0
C441 C 0.59525 0.05875 0.66779 0.0
N442 N 0.60222 0.05355 0.6104 0.0
O443 O 0.61386 0.06825 0.83721 0.0
H444 H 0.61714 0.04455 0.76409 0.0
H445 H 0.58765 0.06571 0.65832 0.0
O446 O 0.60099 0.04614 0.88302 0.0
C447 C 0.61536 0.08029 0.82477 0.0
O448 O 0.60507 0.0877 0.82064 0.0
N449 N 0.57858 0.05796 0.82768 0.0
C450 C 0.55164 0.05548 0.82005 0.0
C451 C 0.55891 0.0479 0.87095 0.0
C452 C 0.57233 0.0495 0.87522 0.0
C453 C 0.57156 0.06592 0.78149 0.0
C454 C 0.55818 0.06464 0.77525 0.0
H455 H 0.5775 0.04437 0.91937 0.0
H456 H 0.57629 0.07376 0.75183 0.0
H457 H 0.60362 0.05767 0.0053 0.0
H458 H 0.57905 0.0891 0.05091 0.0
H459 H 0.61948 0.04179 0.61459 0.0
H460 H 0.55421 0.04116 0.90941 0.0
H461 H 0.55299 0.07095 0.73639 0.0
C462 C 0.67489 0.82911 0.61066 0.0
C463 C 0.67256 0.82866 0.68828 0.0
N464 N 0.68033 0.83736 0.72278 0.0
N465 N 0.68423 0.83789 0.59665 0.0
C466 C 0.68712 0.84295 0.66583 0.0
H467 H 0.67061 0.82292 0.56766 0.0
Co468 Co 0.69264 0.84039 0.50355 0.0
C469 C 0.71993 0.84314 0.55798 0.0
O470 O 0.72387 0.83463 0.50717 0.0
N471 N 0.70067 0.84324 0.40751 0.0
C472 C 0.71227 0.85123 0.31064 0.0
C473 C 0.71119 0.85038 0.38898 0.0
C474 C 0.69516 0.84056 0.33897 0.0
N475 N 0.70212 0.84509 0.27944 0.0
O476 O 0.68589 0.85763 0.49844 0.0
H477 H 0.71726 0.85552 0.4289 0.0
H478 H 0.68587 0.8359 0.33255 0.0
O479 O 0.70803 0.84651 0.55934 0.0
C480 C 0.67526 0.85772 0.46148 0.0
O481 O 0.67057 0.84663 0.43743 0.0
N482 N 0.69831 0.82286 0.50728 0.0
C483 C 0.70218 0.79604 0.51709 0.0
C484 C 0.70643 0.8043 0.57566 0.0
C485 C 0.7042 0.81762 0.57031 0.0
C486 C 0.69387 0.81489 0.45093 0.0
C487 C 0.69588 0.80155 0.45398 0.0
H488 H 0.70674 0.82361 0.61863 0.0
H489 H 0.68799 0.81865 0.40541 0.0
H490 H 0.69463 0.85002 0.67517 0.0
H491 H 0.666 0.82214 0.71728 0.0
H492 H 0.71949 0.85664 0.27921 0.0
H493 H 0.71114 0.80048 0.62619 0.0
H494 H 0.69188 0.79554 0.40904 0.0
C495 C 0.91204 0.9231 0.31094 0.0
C496 C 0.91329 0.92075 0.3883 0.0
N497 N 0.91225 0.93212 0.42539 0.0
N498 N 0.91011 0.93585 0.29979 0.0
C499 C 0.91026 0.94106 0.37057 0.0
H500 H 0.9126 0.916 0.26563 0.0
Co501 Co 0.90826 0.94396 0.20583 0.0
C502 C 0.90499 0.97177 0.24702 0.0
O503 O 0.91254 0.9752 0.19 0.0
N504 N 0.90609 0.95177 0.10929 0.0
C505 C 0.89639 0.9615 0.01121 0.0
C506 C 0.89658 0.96006 0.08926 0.0
C507 C 0.91118 0.94794 0.04172 0.0
N508 N 0.90551 0.95373 0.98103 0.0
O509 O 0.89077 0.93784 0.1996 0.0
H510 H 0.88958 0.96417 0.12828 0.0
H511 H 0.91799 0.9401 0.03634 0.0
O512 O 0.90241 0.9598 0.25758 0.0
C513 C 0.88993 0.92802 0.15581 0.0
O514 O 0.90055 0.92363 0.12373 0.0
N515 N 0.92591 0.94882 0.21103 0.0
C516 C 0.95284 0.95141 0.22048 0.0
C517 C 0.94469 0.95878 0.26745 0.0
C518 C 0.93129 0.95712 0.26315 0.0
C519 C 0.93376 0.9412 0.16755 0.0
C520 C 0.94719 0.94251 0.17007 0.0
H521 H 0.92545 0.96208 0.3048 0.0
H522 H 0.92962 0.93356 0.13337 0.0
H523 H 0.90888 0.95123 0.38226 0.0
H524 H 0.91505 0.91147 0.41498 0.0
H525 H 0.88958 0.96735 0.97939 0.0
H526 H 0.94865 0.96532 0.30982 0.0
H527 H 0.95309 0.93638 0.13388 0.0
C528 C 0.67034 0.66369 0.6458 0.0
C529 C 0.66792 0.66317 0.72323 0.0
N530 N 0.67662 0.65512 0.75535 0.0
N531 N 0.68052 0.65602 0.6296 0.0
C532 C 0.68404 0.65083 0.69723 0.0
H533 H 0.66524 0.66952 0.60416 0.0
Co534 Co 0.68818 0.6538 0.53481 0.0
C535 C 0.71616 0.65261 0.57277 0.0
O536 O 0.71874 0.66021 0.5144 0.0
N537 N 0.69552 0.65103 0.43823 0.0
C538 C 0.70447 0.63968 0.34346 0.0
C539 C 0.70408 0.64154 0.4212 0.0
C540 C 0.69056 0.65446 0.36959 0.0
N541 N 0.69597 0.64786 0.31147 0.0
O542 O 0.6829 0.63607 0.53271 0.0
H543 H 0.70886 0.63544 0.46273 0.0
H544 H 0.68215 0.66049 0.36209 0.0
O545 O 0.7045 0.64909 0.58535 0.0
C546 C 0.67096 0.63423 0.51887 0.0
O547 O 0.66315 0.64425 0.517 0.0
N548 N 0.69258 0.67168 0.53515 0.0
C549 C 0.69609 0.69858 0.53647 0.0
C550 C 0.70193 0.69074 0.59215 0.0
C551 C 0.69981 0.67737 0.59156 0.0
C552 C 0.6862 0.67929 0.48383 0.0
C553 C 0.68806 0.69266 0.48214 0.0
H554 H 0.70362 0.67172 0.63835 0.0
H555 H 0.67909 0.67514 0.44626 0.0
H556 H 0.69197 0.64412 0.704 0.0
H557 H 0.66067 0.66867 0.75385 0.0
H558 H 0.70997 0.63239 0.31316 0.0
H559 H 0.70769 0.69493 0.63758 0.0
H560 H 0.68305 0.6983 0.43916 0.0
C561 C 0.59005 0.42163 0.7963 0.0
C562 C 0.58996 0.41943 0.87411 0.0
N563 N 0.59212 0.43078 0.90951 0.0
N564 N 0.59229 0.43429 0.783 0.0
C565 C 0.59332 0.43959 0.85334 0.0
H566 H 0.58824 0.41448 0.75248 0.0
Co567 Co 0.59231 0.44247 0.68791 0.0
C568 C 0.6096 0.46159 0.76369 0.0
O569 O 0.61922 0.45329 0.7649 0.0
N570 N 0.5921 0.45054 0.59295 0.0
C571 C 0.5901 0.46471 0.49796 0.0
C572 C 0.59025 0.46316 0.57631 0.0
C573 C 0.59295 0.44464 0.52439 0.0
N574 N 0.59188 0.45301 0.46577 0.0
O575 O 0.60955 0.43624 0.66843 0.0
H576 H 0.58884 0.47072 0.61824 0.0
H577 H 0.59388 0.43432 0.51703 0.0
O578 O 0.59881 0.45836 0.73373 0.0
C579 C 0.6098 0.42515 0.63667 0.0
O580 O 0.59876 0.41928 0.62291 0.0
N581 N 0.57521 0.44745 0.70387 0.0
C582 C 0.54863 0.45059 0.72347 0.0
C583 C 0.55742 0.4586 0.76243 0.0
C584 C 0.57074 0.45683 0.75218 0.0
C585 C 0.56683 0.43977 0.66468 0.0
C586 C 0.55352 0.44119 0.67333 0.0
H587 H 0.57736 0.46275 0.78461 0.0
H588 H 0.57058 0.43231 0.62731 0.0
H589 H 0.59429 0.44983 0.86416 0.0
H590 H 0.58837 0.41025 0.90239 0.0
H591 H 0.5888 0.4737 0.46715 0.0
H592 H 0.55405 0.46588 0.80224 0.0
H593 H 0.54711 0.43492 0.64129 0.0
C594 C 0.82862 0.33848 0.06727 0.0
C595 C 0.83105 0.33854 0.14484 0.0
N596 N 0.82031 0.3427 0.18082 0.0
N597 N 0.81644 0.34261 0.05451 0.0
C598 C 0.81164 0.34503 0.12494 0.0
H599 H 0.83521 0.33525 0.02319 0.0
Co600 Co 0.80821 0.34306 0.95951 0.0
C601 C 0.78841 0.36034 0.03081 0.0
O602 O 0.79584 0.3706 0.02545 0.0
N603 N 0.80015 0.34336 0.86443 0.0
C604 C 0.78608 0.34164 0.76876 0.0
C605 C 0.78755 0.34156 0.84716 0.0
C606 C 0.80612 0.34444 0.79619 0.0
N607 N 0.79781 0.34351 0.73712 0.0
O608 O 0.81468 0.36026 0.94235 0.0
H609 H 0.77996 0.33997 0.88868 0.0
H610 H 0.81646 0.34535 0.78942 0.0
O611 O 0.7924 0.34944 0.00598 0.0
C612 C 0.82589 0.36031 0.91211 0.0
O613 O 0.83158 0.34916 0.89902 0.0
N614 N 0.80289 0.32596 0.97373 0.0
C615 C 0.79873 0.29952 0.99209 0.0
C616 C 0.79286 0.30844 0.04157 0.0
C617 C 0.79502 0.32169 0.03122 0.0
C618 C 0.80865 0.31742 0.92524 0.0
C619 C 0.80658 0.30416 0.93278 0.0
H620 H 0.79069 0.32842 0.07091 0.0
H621 H 0.81515 0.32093 0.88139 0.0
H622 H 0.80175 0.34772 0.13617 0.0
H623 H 0.83993 0.33558 0.17251 0.0
H624 H 0.77713 0.34036 0.73752 0.0
H625 H 0.78677 0.3052 0.08823 0.0
H626 H 0.81148 0.29756 0.8943 0.0
C627 C 0.92025 0.57403 0.31517 0.0
C628 C 0.92059 0.5764 0.39273 0.0
N629 N 0.91212 0.56839 0.42714 0.0
N630 N 0.91176 0.56443 0.30115 0.0
C631 C 0.90679 0.56137 0.37027 0.0
H632 H 0.92624 0.57856 0.2721 0.0
Co633 Co 0.90921 0.55625 0.20755 0.0
C634 C 0.90772 0.52872 0.25764 0.0
O635 O 0.91588 0.52535 0.20347 0.0
N636 N 0.90623 0.54847 0.11137 0.0
C637 C 0.89787 0.53709 0.01472 0.0
C638 C 0.899 0.538 0.09296 0.0
C639 C 0.90863 0.55415 0.04307 0.0
N640 N 0.90389 0.54732 0.98366 0.0
O641 O 0.89178 0.56246 0.20528 0.0
H642 H 0.894 0.53185 0.13311 0.0
H643 H 0.9132 0.56349 0.03681 0.0
O644 O 0.90391 0.54047 0.26216 0.0
C645 C 0.89149 0.57332 0.17084 0.0
O646 O 0.90251 0.57831 0.14767 0.0
N647 N 0.92692 0.55114 0.2085 0.0
C648 C 0.95381 0.54761 0.21401 0.0
C649 C 0.94585 0.54301 0.27305 0.0
C650 C 0.9325 0.54512 0.27002 0.0
C651 C 0.9346 0.556 0.15196 0.0
C652 C 0.94797 0.55418 0.15291 0.0
H653 H 0.92675 0.54231 0.31886 0.0
H654 H 0.93056 0.56203 0.10799 0.0
H655 H 0.8999 0.55366 0.37954 0.0
H656 H 0.92683 0.58324 0.42175 0.0
H657 H 0.89238 0.52992 0.98334 0.0
H658 H 0.94991 0.53808 0.32217 0.0
H659 H 0.95374 0.55848 0.10787 0.0
C660 C 0.67784 0.33135 0.39035 0.0
C661 C 0.67553 0.33088 0.31271 0.0
N662 N 0.68326 0.33961 0.27824 0.0
N663 N 0.68713 0.34019 0.40441 0.0
C664 C 0.69 0.34525 0.33525 0.0
H665 H 0.67359 0.32514 0.43333 0.0
Co666 Co 0.69554 0.34272 0.49753 0.0
C667 C 0.72285 0.34547 0.44359 0.0
O668 O 0.72677 0.33699 0.4947 0.0
N669 N 0.70356 0.34559 0.59362 0.0
C670 C 0.71517 0.3536 0.69049 0.0
C671 C 0.71406 0.35277 0.61215 0.0
C672 C 0.69809 0.34289 0.66217 0.0
N673 N 0.70504 0.34742 0.7217 0.0
O674 O 0.68881 0.35995 0.50237 0.0
H675 H 0.7201 0.35794 0.57222 0.0
H676 H 0.6888 0.33823 0.66864 0.0
O677 O 0.71094 0.3488 0.44176 0.0
C678 C 0.67816 0.35995 0.53896 0.0
O679 O 0.67351 0.34881 0.56253 0.0
N680 N 0.70117 0.3252 0.49411 0.0
C681 C 0.70469 0.29835 0.48437 0.0
C682 C 0.70915 0.30655 0.42611 0.0
C683 C 0.7071 0.3199 0.43143 0.0
C684 C 0.69653 0.31728 0.55015 0.0
C685 C 0.69837 0.30392 0.54715 0.0
H686 H 0.70976 0.32586 0.38323 0.0
H687 H 0.69059 0.3211 0.59516 0.0
H688 H 0.69745 0.35238 0.32598 0.0
H689 H 0.66901 0.32432 0.28368 0.0
H690 H 0.72238 0.35904 0.72192 0.0
H691 H 0.71388 0.30267 0.37578 0.0
H692 H 0.69421 0.29796 0.59176 0.0
C693 C 0.92052 0.42657 0.66549 0.0
C694 C 0.92085 0.42418 0.58794 0.0
N695 N 0.91246 0.43228 0.55342 0.0
N696 N 0.91212 0.43626 0.6794 0.0
C697 C 0.90719 0.43936 0.61021 0.0
H698 H 0.92648 0.422 0.70862 0.0
Co699 Co 0.90975 0.4445 0.77292 0.0
C700 C 0.90813 0.47202 0.7228 0.0
O701 O 0.91635 0.47541 0.77666 0.0
N702 N 0.90697 0.45237 0.86914 0.0
C703 C 0.89855 0.4637 0.96579 0.0
C704 C 0.8996 0.46274 0.88755 0.0
C705 C 0.90956 0.4468 0.93754 0.0
N706 N 0.90477 0.45359 0.99691 0.0
O707 O 0.8923 0.43832 0.77641 0.0
H708 H 0.89442 0.46875 0.8474 0.0
H709 H 0.91424 0.43752 0.94396 0.0
O710 O 0.90436 0.46025 0.71834 0.0
C711 C 0.892 0.42767 0.81309 0.0
O712 O 0.90301 0.42275 0.83691 0.0
N713 N 0.92747 0.44958 0.77073 0.0
C714 C 0.95436 0.45299 0.76305 0.0
C715 C 0.94627 0.45771 0.70495 0.0
C716 C 0.93292 0.45565 0.709 0.0
C717 C 0.93527 0.44462 0.82641 0.0
C718 C 0.94865 0.44637 0.82438 0.0
H719 H 0.92707 0.45852 0.6607 0.0
H720 H 0.93131 0.43855 0.87044 0.0
H721 H 0.9004 0.44715 0.6008 0.0
H722 H 0.92704 0.4173 0.55899 0.0
H723 H 0.89294 0.47078 0.99716 0.0
H724 H 0.95022 0.46269 0.6557 0.0
H725 H 0.95451 0.44197 0.8687 0.0
C726 C 0.82715 0.66176 0.94722 0.0
C727 C 0.82945 0.66307 0.86986 0.0
N728 N 0.81809 0.6618 0.83283 0.0
N729 N 0.81444 0.65956 0.95844 0.0
C730 C 0.80921 0.65962 0.8877 0.0
H731 H 0.83425 0.66244 0.99247 0.0
Co732 Co 0.8064 0.65743 0.05239 0.0
C733 C 0.77863 0.65373 0.01166 0.0
O734 O 0.77516 0.66104 0.06969 0.0
N735 N 0.79868 0.655 0.1489 0.0
C736 C 0.78922 0.64497 0.24675 0.0
C737 C 0.79065 0.64524 0.1687 0.0
C738 C 0.80237 0.66016 0.21656 0.0
N739 N 0.79673 0.6543 0.27711 0.0
O740 O 0.81289 0.64007 0.05799 0.0
H741 H 0.78673 0.63817 0.12947 0.0
H742 H 0.81001 0.66717 0.22211 0.0
O743 O 0.79064 0.65137 0.00049 0.0
C744 C 0.8228 0.63956 0.10131 0.0
O745 O 0.82693 0.65036 0.13259 0.0
N746 N 0.8012 0.67499 0.04806 0.0
C747 C 0.79788 0.70185 0.04169 0.0
C748 C 0.7907 0.69366 0.99396 0.0
C749 C 0.79272 0.6803 0.99667 0.0
C750 C 0.8087 0.6829 0.09187 0.0
C751 C 0.80703 0.69629 0.09091 0.0
H752 H 0.78787 0.67444 0.95458 0.0
H753 H 0.81649 0.67886 0.12527 0.0
H754 H 0.79907 0.65804 0.87605 0.0
H755 H 0.83869 0.665 0.84314 0.0
H756 H 0.78355 0.638 0.27843 0.0
H757 H 0.78397 0.69757 0.9524 0.0
H758 H 0.81303 0.70224 0.12756 0.0
C759 C 0.58544 0.57397 0.11456 0.0
C760 C 0.58526 0.57641 0.03707 0.0
N761 N 0.59412 0.56873 0.00328 0.0
N762 N 0.59426 0.56469 0.12934 0.0
C763 C 0.59954 0.56188 0.06068 0.0
H764 H 0.57919 0.57829 0.1571 0.0
Co765 Co 0.59708 0.55659 0.22336 0.0
C766 C 0.59791 0.52904 0.17032 0.0
O767 O 0.5895 0.52561 0.22299 0.0
N768 N 0.60032 0.54887 0.31933 0.0
C769 C 0.60787 0.53697 0.41602 0.0
C770 C 0.60647 0.53775 0.33792 0.0
C771 C 0.59893 0.55503 0.38719 0.0
N772 N 0.60313 0.54788 0.44683 0.0
O773 O 0.61465 0.56235 0.2241 0.0
H774 H 0.61052 0.53091 0.29801 0.0
H775 H 0.59525 0.56478 0.39269 0.0
O776 O 0.60195 0.54073 0.16788 0.0
C777 C 0.61575 0.57438 0.23855 0.0
O778 O 0.60523 0.58147 0.24247 0.0
N779 N 0.57932 0.55182 0.22572 0.0
C780 C 0.55246 0.5482 0.23067 0.0
C781 C 0.55973 0.5438 0.16801 0.0
C782 C 0.5731 0.54593 0.16597 0.0
C783 C 0.57227 0.55664 0.28515 0.0
C784 C 0.55894 0.55477 0.28942 0.0
H785 H 0.57837 0.54313 0.11525 0.0
H786 H 0.57679 0.56256 0.32801 0.0
H787 H 0.6068 0.55452 0.05228 0.0
H788 H 0.5789 0.58308 0.00774 0.0
H789 H 0.61258 0.52927 0.44745 0.0
H790 H 0.55513 0.53891 0.12045 0.0
H791 H 0.55369 0.55894 0.33701 0.0
C792 C 0.33276 0.33784 0.35554 0.0
C793 C 0.33534 0.33858 0.27845 0.0
N794 N 0.32624 0.34607 0.24511 0.0
N795 N 0.32212 0.34486 0.37129 0.0
C796 C 0.3185 0.34989 0.30329 0.0
H797 H 0.33802 0.33216 0.39717 0.0
Co798 Co 0.3138 0.34526 0.46598 0.0
C799 C 0.28964 0.35964 0.42942 0.0
O800 O 0.29073 0.36708 0.49001 0.0
N801 N 0.30575 0.34543 0.56111 0.0
C802 C 0.29218 0.34269 0.65806 0.0
C803 C 0.29365 0.34177 0.58 0.0
C804 C 0.31149 0.34835 0.62827 0.0
N805 N 0.30344 0.34681 0.6885 0.0
O806 O 0.31905 0.36286 0.48163 0.0
H807 H 0.28644 0.33841 0.53977 0.0
H808 H 0.32157 0.35106 0.63294 0.0
O809 O 0.298 0.35086 0.41626 0.0
C810 C 0.33102 0.36444 0.49596 0.0
O811 O 0.33878 0.35441 0.49293 0.0
N812 N 0.30936 0.32786 0.45397 0.0
C813 C 0.30515 0.30123 0.4482 0.0
C814 C 0.2982 0.30963 0.40027 0.0
C815 C 0.30053 0.32297 0.40349 0.0
C816 C 0.31626 0.31984 0.50038 0.0
C817 C 0.3143 0.30651 0.49859 0.0
H818 H 0.29533 0.32927 0.36496 0.0
H819 H 0.32334 0.32389 0.53923 0.0
H820 H 0.31004 0.35583 0.29622 0.0
H821 H 0.34315 0.33365 0.24941 0.0
H822 H 0.2835 0.34037 0.68979 0.0
H823 H 0.29119 0.30592 0.35977 0.0
H824 H 0.3198 0.30041 0.53704 0.0
C825 C 0.4151 0.58087 0.18214 0.0
C826 C 0.4162 0.58328 0.10477 0.0
N827 N 0.41431 0.57206 0.06728 0.0
N828 N 0.41244 0.56824 0.19285 0.0
C829 C 0.41194 0.56316 0.1218 0.0
H830 H 0.41632 0.58783 0.22778 0.0
Co831 Co 0.41058 0.56013 0.28673 0.0
C832 C 0.40754 0.53236 0.24596 0.0
O833 O 0.41534 0.52915 0.30231 0.0
N834 N 0.40836 0.55237 0.38338 0.0
C835 C 0.39864 0.5426 0.48134 0.0
C836 C 0.39897 0.54391 0.40322 0.0
C837 C 0.41319 0.55645 0.45113 0.0
N838 N 0.40754 0.55061 0.51163 0.0
O839 O 0.39313 0.56632 0.29285 0.0
H840 H 0.39212 0.53961 0.36401 0.0
H841 H 0.41972 0.56451 0.4568 0.0
O842 O 0.40467 0.54426 0.23532 0.0
C843 C 0.39231 0.57627 0.33564 0.0
O844 O 0.40295 0.58073 0.36731 0.0
N845 N 0.42823 0.55513 0.28124 0.0
C846 C 0.4551 0.55187 0.27085 0.0
C847 C 0.44674 0.54528 0.22118 0.0
C848 C 0.43339 0.54723 0.22624 0.0
C849 C 0.43629 0.56211 0.32711 0.0
C850 C 0.44968 0.56041 0.32435 0.0
H851 H 0.4274 0.54281 0.18316 0.0
H852 H 0.43241 0.56958 0.36341 0.0
H853 H 0.40992 0.55312 0.10967 0.0
H854 H 0.41849 0.59247 0.07832 0.0
H855 H 0.39189 0.53668 0.51314 0.0
H856 H 0.45048 0.53908 0.17638 0.0
H857 H 0.45572 0.56596 0.36286 0.0
C858 C 0.17665 0.67068 0.86709 0.0
C859 C 0.17425 0.671 0.78959 0.0
N860 N 0.18155 0.66185 0.75574 0.0
N861 N 0.18556 0.66148 0.88178 0.0
C862 C 0.18813 0.6561 0.81311 0.0
H863 H 0.1726 0.6771 0.90966 0.0
Co864 Co 0.19357 0.65838 0.97568 0.0
C865 C 0.22124 0.65666 0.92444 0.0
O866 O 0.22494 0.66473 0.97838 0.0
N867 N 0.20116 0.65491 0.07165 0.0
C868 C 0.21268 0.64677 0.16829 0.0
C869 C 0.21189 0.64809 0.09013 0.0
C870 C 0.19519 0.65678 0.13966 0.0
N871 N 0.20213 0.65223 0.19923 0.0
O872 O 0.18754 0.64089 0.9753 0.0
H873 H 0.21838 0.64354 0.05008 0.0
H874 H 0.18566 0.66097 0.1454 0.0
O875 O 0.20937 0.65324 0.92031 0.0
C876 C 0.17547 0.63971 0.9878 0.0
O877 O 0.1683 0.65018 0.99185 0.0
N878 N 0.19865 0.67605 0.97873 0.0
C879 C 0.20204 0.70292 0.9817 0.0
C880 C 0.20721 0.6955 0.92197 0.0
C881 C 0.20513 0.68212 0.92054 0.0
C882 C 0.19329 0.68326 0.03589 0.0
C883 C 0.19502 0.69662 0.03913 0.0
H884 H 0.20827 0.67676 0.87085 0.0
H885 H 0.18701 0.67882 0.07723 0.0
H886 H 0.19513 0.64849 0.80477 0.0
H887 H 0.16788 0.67767 0.7603 0.0
H888 H 0.22009 0.64159 0.19968 0.0
H889 H 0.21228 0.70007 0.87494 0.0
H890 H 0.19061 0.70202 0.08542 0.0
C891 C 0.08479 0.42231 0.61295 0.0
C892 C 0.0845 0.42037 0.53499 0.0
N893 N 0.09255 0.429 0.50231 0.0
N894 N 0.09299 0.4321 0.62873 0.0
C895 C 0.09766 0.43586 0.56037 0.0
H896 H 0.07918 0.41715 0.6553 0.0
Co897 Co 0.09639 0.43925 0.72348 0.0
C898 C 0.09881 0.46737 0.69106 0.0
O899 O 0.09219 0.47003 0.75336 0.0
N900 N 0.10027 0.4462 0.81962 0.0
C901 C 0.11255 0.45446 0.91241 0.0
C902 C 0.1109 0.4534 0.83474 0.0
C903 C 0.0958 0.4428 0.88937 0.0
N904 N 0.10301 0.44778 0.94635 0.0
O905 O 0.11393 0.43327 0.71877 0.0
H906 H 0.11758 0.45694 0.79199 0.0
H907 H 0.0882 0.43588 0.89926 0.0
O908 O 0.10127 0.4556 0.67409 0.0
C909 C 0.11528 0.42116 0.72946 0.0
O910 O 0.10489 0.4139 0.73385 0.0
N911 N 0.07875 0.44417 0.72962 0.0
C912 C 0.05189 0.44761 0.73665 0.0
C913 C 0.05939 0.45452 0.68367 0.0
C914 C 0.07274 0.45244 0.67986 0.0
C915 C 0.07147 0.43677 0.77765 0.0
C916 C 0.05814 0.43858 0.78379 0.0
H917 H 0.07805 0.45704 0.63423 0.0
H918 H 0.0759 0.42892 0.80867 0.0
H919 H 0.10463 0.44356 0.553 0.0
H920 H 0.0785 0.4135 0.50459 0.0
H921 H 0.12045 0.45924 0.94162 0.0
H922 H 0.05493 0.46107 0.64315 0.0
H923 H 0.05277 0.43274 0.82423 0.0
C924 C 0.32772 0.66813 0.54712 0.0
C925 C 0.33019 0.66817 0.62466 0.0
N926 N 0.31993 0.66292 0.66065 0.0
N927 N 0.31598 0.66289 0.53441 0.0
C928 C 0.3115 0.65983 0.6047 0.0
H929 H 0.33394 0.67199 0.50295 0.0
Co930 Co 0.30781 0.66169 0.43961 0.0
C931 C 0.28724 0.64498 0.50813 0.0
O932 O 0.29357 0.63425 0.49357 0.0
N933 N 0.29978 0.66063 0.3446 0.0
C934 C 0.28575 0.66172 0.24849 0.0
C935 C 0.28715 0.66203 0.32688 0.0
C936 C 0.30584 0.65953 0.2766 0.0
N937 N 0.29755 0.66013 0.2172 0.0
O938 O 0.31419 0.64438 0.42794 0.0
H939 H 0.27949 0.66359 0.36799 0.0
H940 H 0.31621 0.65895 0.27035 0.0
O941 O 0.29196 0.65588 0.48831 0.0
C942 C 0.32549 0.64423 0.39898 0.0
O943 O 0.33109 0.65535 0.38359 0.0
N944 N 0.30269 0.67892 0.44836 0.0
C945 C 0.29936 0.70564 0.45929 0.0
C946 C 0.29299 0.69725 0.51014 0.0
C947 C 0.29483 0.68387 0.50394 0.0
C948 C 0.30879 0.68689 0.39796 0.0
C949 C 0.30715 0.70024 0.40178 0.0
H950 H 0.29035 0.67758 0.5456 0.0
H951 H 0.31523 0.68284 0.35552 0.0
H952 H 0.30198 0.65602 0.61571 0.0
H953 H 0.33878 0.67191 0.65226 0.0
H954 H 0.27679 0.66276 0.21701 0.0
H955 H 0.28706 0.70099 0.55612 0.0
H956 H 0.31211 0.70629 0.3606 0.0
C957 C 0.08469 0.5787 0.34546 0.0
C958 C 0.08446 0.58073 0.42335 0.0
N959 N 0.0924 0.57202 0.45626 0.0
N960 N 0.09274 0.56878 0.32992 0.0
C961 C 0.0974 0.56503 0.39839 0.0
H962 H 0.0791 0.58387 0.30299 0.0
Co963 Co 0.09587 0.56145 0.23528 0.0
C964 C 0.09827 0.53339 0.26945 0.0
O965 O 0.09142 0.53067 0.20813 0.0
N966 N 0.09948 0.55435 0.13916 0.0
C967 C 0.11152 0.54591 0.0459 0.0
C968 C 0.10993 0.54692 0.12362 0.0
C969 C 0.09508 0.55797 0.06959 0.0
N970 N 0.10215 0.55288 0.01232 0.0
O971 O 0.1134 0.56744 0.23783 0.0
H972 H 0.11659 0.54322 0.16608 0.0
H973 H 0.08772 0.56516 0.0601 0.0
O974 O 0.1009 0.54518 0.28525 0.0
C975 C 0.11475 0.57953 0.22627 0.0
O976 O 0.10438 0.58683 0.22182 0.0
N977 N 0.07822 0.5565 0.23132 0.0
C978 C 0.05135 0.55296 0.22813 0.0
C979 C 0.05906 0.54632 0.28131 0.0
C980 C 0.07241 0.54845 0.28316 0.0
C981 C 0.07075 0.56363 0.18287 0.0
C982 C 0.0574 0.56176 0.17869 0.0
H983 H 0.07788 0.54409 0.32891 0.0
H984 H 0.07503 0.57135 0.15011 0.0
H985 H 0.10423 0.55722 0.40603 0.0
H986 H 0.07854 0.58768 0.45357 0.0
H987 H 0.11931 0.54099 0.01644 0.0
H988 H 0.05476 0.53996 0.32345 0.0
H989 H 0.05187 0.5674 0.13801 0.0
C990 C 0.16754 0.33852 0.16086 0.0
C991 C 0.16542 0.34103 0.23698 0.0
N992 N 0.17535 0.34818 0.26383 0.0
N993 N 0.17876 0.34404 0.13931 0.0
C994 C 0.18325 0.34995 0.20298 0.0
H995 H 0.16159 0.33255 0.12417 0.0
Co996 Co 0.18622 0.34171 0.04323 0.0
C997 C 0.2145 0.34155 0.08756 0.0
O998 O 0.21677 0.33067 0.05171 0.0
N999 N 0.19339 0.33923 0.94384 0.0
C1000 C 0.20235 0.33054 0.8397 0.0
C1001 C 0.20114 0.32965 0.91756 0.0
C1002 C 0.18985 0.34565 0.87941 0.0
N1003 N 0.19516 0.34056 0.81557 0.0
O1004 O 0.18296 0.35959 0.01874 0.0
H1005 H 0.20479 0.32166 0.95078 0.0
H1006 H 0.18273 0.35327 0.87809 0.0
O1007 O 0.20321 0.3466 0.08621 0.0
C1008 C 0.17105 0.36223 0.00777 0.0
O1009 O 0.16245 0.353 0.01643 0.0
N1010 N 0.18828 0.32405 0.06646 0.0
C1011 C 0.18987 0.29736 0.08731 0.0
C1012 C 0.19601 0.30585 0.13845 0.0
C1013 C 0.19482 0.31921 0.1281 0.0
C1014 C 0.18137 0.31598 0.02029 0.0
C1015 C 0.1822 0.30261 0.02882 0.0
H1016 H 0.19925 0.32565 0.1692 0.0
H1017 H 0.17552 0.31998 0.97473 0.0
H1018 H 0.19235 0.35509 0.20522 0.0
H1019 H 0.15755 0.33716 0.27078 0.0
H1020 H 0.20756 0.32387 0.80326 0.0
H1021 H 0.20163 0.30219 0.18608 0.0
H1022 H 0.17717 0.29644 0.98848 0.0
C1023 C 0.41916 0.42405 0.89274 0.0
C1024 C 0.4195 0.42204 0.97062 0.0
N1025 N 0.4113 0.43048 0.00362 0.0
N1026 N 0.41078 0.43369 0.87729 0.0
C1027 C 0.40605 0.4373 0.94578 0.0
H1028 H 0.42485 0.41901 0.8502 0.0
Co1029 Co 0.40722 0.44075 0.78257 0.0
C1030 C 0.40389 0.46879 0.81441 0.0
O1031 O 0.41031 0.47165 0.75171 0.0
N1032 N 0.40319 0.44755 0.68638 0.0
C1033 C 0.39067 0.45525 0.59307 0.0
C1034 C 0.39233 0.45438 0.6708 0.0
C1035 C 0.40779 0.44418 0.6169 0.0
N1036 N 0.40042 0.44881 0.5596 0.0
O1037 O 0.38986 0.43434 0.78711 0.0
H1038 H 0.38552 0.45775 0.7133 0.0
H1039 H 0.41561 0.43749 0.60754 0.0
O1040 O 0.40188 0.45695 0.8318 0.0
C1041 C 0.38872 0.42224 0.77543 0.0
O1042 O 0.39924 0.41515 0.77108 0.0
N1043 N 0.42471 0.44614 0.7765 0.0
C1044 C 0.45142 0.45042 0.76839 0.0
C1045 C 0.44376 0.45725 0.82086 0.0
C1046 C 0.43048 0.45475 0.82527 0.0
C1047 C 0.43219 0.4388 0.72924 0.0
C1048 C 0.44546 0.44098 0.72281 0.0
H1049 H 0.42505 0.45937 0.87029 0.0
H1050 H 0.42798 0.43071 0.69926 0.0
H1051 H 0.39892 0.44485 0.95336 0.0
H1052 H 0.42563 0.41524 0.00074 0.0
H1053 H 0.38261 0.4597 0.56354 0.0
H1054 H 0.448 0.46431 0.85915 0.0
H1055 H 0.4511 0.43492 0.68482 0.0
C1056 C 0.18119 0.27477 0.08215 0.0
C1057 C 0.1917 0.28314 0.09278 0.0
C1058 C 0.18297 0.26133 0.0787 0.0
C1059 C 0.19558 0.25613 0.08592 0.0
C1060 C 0.20617 0.26449 0.0998 0.0
C1061 C 0.2041 0.27791 0.10316 0.0
C1062 C 0.1714 0.25274 0.06454 0.0
C1063 C 0.21975 0.25931 0.10786 0.0
C1064 C 0.19764 0.21993 0.12213 0.0
C1065 C 0.1992 0.21512 0.04758 0.0
C1066 C 0.19688 0.23329 0.136 0.0
C1067 C 0.1977 0.24204 0.07385 0.0
C1068 C 0.19978 0.23726 0.99891 0.0
C1069 C 0.20049 0.22387 0.98671 0.0
C1070 C 0.19467 0.23802 0.21668 0.0
C1071 C 0.20081 0.24627 0.93115 0.0
H1072 H 0.17156 0.27875 0.07529 0.0
H1073 H 0.21228 0.28435 0.11077 0.0
H1074 H 0.1724 0.24791 0.00815 0.0
H1075 H 0.1709 0.24503 0.10863 0.0
H1076 H 0.16216 0.25822 0.06508 0.0
H1077 H 0.22673 0.26694 0.1251 0.0
H1078 H 0.22003 0.25142 0.15087 0.0
H1079 H 0.22296 0.25515 0.05252 0.0
H1080 H 0.1965 0.21323 0.16934 0.0
H1081 H 0.20188 0.22021 0.92915 0.0
H1082 H 0.18492 0.24246 0.22098 0.0
H1083 H 0.20182 0.24561 0.23164 0.0
H1084 H 0.19535 0.23008 0.25936 0.0
H1085 H 0.19151 0.25144 0.92301 0.0
H1086 H 0.20319 0.24106 0.87737 0.0
H1087 H 0.20836 0.25368 0.94173 0.0
C1088 C 0.02961 0.95517 0.18064 0.0
C1089 C 0.036 0.95394 0.25114 0.0
C1090 C 0.01607 0.95574 0.17661 0.0
C1091 C 0.00871 0.95507 0.24477 0.0
C1092 C 0.0151 0.95435 0.31637 0.0
C1093 C 0.02868 0.9538 0.31872 0.0
C1094 C 0.00964 0.9566 0.09916 0.0
C1095 C 0.00759 0.95363 0.39031 0.0
C1096 C 0.97317 0.96454 0.23512 0.0
C1097 C 0.96715 0.95243 0.22744 0.0
C1098 C 0.98668 0.96557 0.24164 0.0
C1099 C 0.99435 0.95423 0.24054 0.0
C1100 C 0.98833 0.94198 0.23353 0.0
C1101 C 0.97482 0.94124 0.22716 0.0
C1102 C 0.99275 0.97879 0.2489 0.0
C1103 C 0.99616 0.92965 0.23238 0.0
H1104 H 0.03523 0.9555 0.12829 0.0
H1105 H 0.03354 0.95275 0.37333 0.0
H1106 H 0.00406 0.94762 0.08811 0.0
H1107 H 0.0027 0.96477 0.09795 0.0
H1108 H 0.01674 0.95792 0.05211 0.0
H1109 H 0.01398 0.95415 0.44134 0.0
H1110 H 1.00044 0.96161 0.39334 0.0
H1111 H 0.00211 0.94441 0.39251 0.0
H1112 H 0.96731 0.97323 0.23488 0.0
H1113 H 0.97025 0.93184 0.22283 0.0
H1114 H 0.99928 0.98058 0.19962 0.0
H1115 H 0.99875 0.97927 0.30149 0.0
H1116 H 0.98542 0.98663 0.25103 0.0
H1117 H 0.00296 0.92979 0.18331 0.0
H1118 H 0.98998 0.92089 0.2277 0.0
H1119 H 0.00204 0.9289 0.28531 0.0
C1120 C 0.29993 0.78174 0.55052 0.0
C1121 C 0.29798 0.78884 0.48303 0.0
C1122 C 0.29903 0.76818 0.55086 0.0
C1123 C 0.29621 0.76155 0.48195 0.0
C1124 C 0.29377 0.76868 0.4143 0.0
C1125 C 0.29464 0.78223 0.41572 0.0
C1126 C 0.30163 0.76093 0.62429 0.0
C1127 C 0.29076 0.76198 0.33962 0.0
C1128 C 0.30951 0.72763 0.45713 0.0
C1129 C 0.29846 0.71994 0.46765 0.0
C1130 C 0.30888 0.74114 0.46211 0.0
C1131 C 0.29694 0.74718 0.47894 0.0
C1132 C 0.28579 0.73951 0.49134 0.0
C1133 C 0.28667 0.72597 0.48539 0.0
C1134 C 0.32102 0.74896 0.44858 0.0
C1135 C 0.27291 0.74561 0.50995 0.0
H1136 H 0.30266 0.78672 0.60265 0.0
H1137 H 0.29288 0.78765 0.36365 0.0
H1138 H 0.29384 0.75379 0.63527 0.0
H1139 H 0.31083 0.75547 0.61908 0.0
H1140 H 0.30237 0.76751 0.67437 0.0
H1141 H 0.28822 0.76892 0.29346 0.0
H1142 H 0.29927 0.75627 0.32092 0.0
H1143 H 0.28261 0.75512 0.34719 0.0
H1144 H 0.31873 0.72306 0.44523 0.0
H1145 H 0.27807 0.72011 0.49321 0.0
H1146 H 0.32317 0.755 0.49947 0.0
H1147 H 0.31955 0.75562 0.39951 0.0
H1148 H 0.32955 0.74277 0.43642 0.0
H1149 H 0.27383 0.7519 0.5611 0.0
H1150 H 0.26527 0.73828 0.52099 0.0
H1151 H 0.26975 0.75185 0.46177 0.0
C1152 C 0.47397 0.05212 0.84133 0.0
C1153 C 0.46884 0.05175 0.76694 0.0
C1154 C 0.48739 0.05182 0.85385 0.0
C1155 C 0.4959 0.05121 0.79048 0.0
C1156 C 0.49078 0.05044 0.71545 0.0
C1157 C 0.47733 0.05069 0.70462 0.0
C1158 C 0.49246 0.05263 0.93474 0.0
C1159 C 0.49952 0.04976 0.64636 0.0
C1160 C 0.52959 0.06544 0.80926 0.0
C1161 C 0.5373 0.05433 0.81596 0.0
C1162 C 0.51611 0.06455 0.80199 0.0
C1163 C 0.51013 0.05223 0.80203 0.0
C1164 C 0.5178 0.04097 0.81075 0.0
C1165 C 0.5313 0.04215 0.81748 0.0
C1166 C 0.50829 0.07679 0.79309 0.0
C1167 C 0.51176 0.02768 0.81156 0.0
H1168 H 0.46751 0.05309 0.8898 0.0
H1169 H 0.47345 0.05019 0.64707 0.0
H1170 H 0.49954 0.04477 0.94551 0.0
H1171 H 0.49762 0.06194 0.94295 0.0
H1172 H 0.48461 0.05196 0.97792 0.0
H1173 H 0.49403 0.04851 0.59223 0.0
H1174 H 0.50531 0.05877 0.64221 0.0
H1175 H 0.50642 0.0416 0.65234 0.0
H1176 H 0.5341 0.0749 0.80984 0.0
H1177 H 0.53718 0.03351 0.8222 0.0
H1178 H 0.50085 0.07738 0.83869 0.0
H1179 H 0.50313 0.07668 0.7374 0.0
H1180 H 0.51439 0.08563 0.79574 0.0
H1181 H 0.50413 0.02717 0.85611 0.0
H1182 H 0.51897 0.01995 0.82266 0.0
H1183 H 0.50703 0.02575 0.7557 0.0
C1184 C 0.21512 0.72329 0.96944 0.0
C1185 C 0.20316 0.71724 0.98188 0.0
C1186 C 0.21625 0.73684 0.97181 0.0
C1187 C 0.20513 0.74449 0.98586 0.0
C1188 C 0.19301 0.73841 0.99708 0.0
C1189 C 0.19219 0.72487 0.9953 0.0
C1190 C 0.22935 0.74297 0.96032 0.0
C1191 C 0.18088 0.7462 0.01109 0.0
C1192 C 0.20734 0.77867 0.06469 0.0
C1193 C 0.20524 0.78613 0.99882 0.0
C1194 C 0.20787 0.76512 0.06079 0.0
C1195 C 0.20607 0.75886 0.98946 0.0
C1196 C 0.20426 0.76636 0.92247 0.0
C1197 C 0.20393 0.7799 0.92792 0.0
C1198 C 0.20997 0.75748 0.13337 0.0
C1199 C 0.20215 0.76006 0.84551 0.0
H1200 H 0.22362 0.7174 0.95941 0.0
H1201 H 0.18289 0.72024 0.00372 0.0
H1202 H 0.22903 0.74979 0.91135 0.0
H1203 H 0.23203 0.74866 0.01178 0.0
H1204 H 0.23703 0.73568 0.94942 0.0
H1205 H 0.17216 0.74 0.01701 0.0
H1206 H 0.18197 0.75202 0.06403 0.0
H1207 H 0.17929 0.75306 0.96317 0.0
H1208 H 0.20847 0.78347 0.11947 0.0
H1209 H 0.20214 0.78562 0.87698 0.0
H1210 H 0.21801 0.75049 0.12558 0.0
H1211 H 0.20116 0.7518 0.14686 0.0
H1212 H 0.21224 0.76379 0.18302 0.0
H1213 H 0.21001 0.75307 0.83322 0.0
H1214 H 0.20172 0.76724 0.79829 0.0
H1215 H 0.19294 0.75455 0.84625 0.0
C1216 C 0.52929 0.95321 0.16609 0.0
C1217 C 0.53353 0.95277 0.24237 0.0
C1218 C 0.51603 0.95333 0.14823 0.0
C1219 C 0.50681 0.95302 0.20806 0.0
C1220 C 0.51104 0.9531 0.28516 0.0
C1221 C 0.52433 0.95297 0.30134 0.0
C1222 C 0.51192 0.95324 0.06533 0.0
C1223 C 0.50151 0.95285 0.35065 0.0
C1224 C 0.47134 0.96098 0.17263 0.0
C1225 C 0.46582 0.94859 0.16997 0.0
C1226 C 0.48474 0.96261 0.18291 0.0
C1227 C 0.49277 0.95159 0.19052 0.0
C1228 C 0.4873 0.93907 0.18517 0.0
C1229 C 0.47391 0.93773 0.17492 0.0
C1230 C 0.49022 0.97611 0.18815 0.0
C1231 C 0.49553 0.92706 0.19238 0.0
H1232 H 0.53633 0.95293 0.12018 0.0
H1233 H 0.52754 0.95284 0.3604 0.0
H1234 H 0.50731 0.94383 0.05155 0.0
H1235 H 0.50462 0.9609 0.05464 0.0
H1236 H 0.52021 0.95472 0.02584 0.0
H1237 H 0.50634 0.95383 0.40717 0.0
H1238 H 0.49436 0.96077 0.34429 0.0
H1239 H 0.49608 0.94359 0.34987 0.0
H1240 H 0.46514 0.96941 0.16933 0.0
H1241 H 0.46974 0.92813 0.17151 0.0
H1242 H 0.49841 0.97725 0.1477 0.0
H1243 H 0.49407 0.97779 0.24659 0.0
H1244 H 0.48286 0.98363 0.17548 0.0
H1245 H 0.50354 0.92733 0.15019 0.0
H1246 H 0.48987 0.91805 0.18333 0.0
H1247 H 0.49996 0.92668 0.25019 0.0
C1248 C 0.29656 0.22666 0.54314 0.0
C1249 C 0.29638 0.21858 0.4787 0.0
C1250 C 0.29689 0.24017 0.53542 0.0
C1251 C 0.29714 0.24576 0.46141 0.0
C1252 C 0.29649 0.23767 0.39612 0.0
C1253 C 0.29609 0.22417 0.40554 0.0
C1254 C 0.29746 0.24845 0.60652 0.0
C1255 C 0.2968 0.24324 0.31627 0.0
C1256 C 0.29042 0.28189 0.44584 0.0
C1257 C 0.30299 0.28701 0.44619 0.0
C1258 C 0.28833 0.26846 0.44929 0.0
C1259 C 0.29907 0.25997 0.45267 0.0
C1260 C 0.31177 0.26508 0.45071 0.0
C1261 C 0.31357 0.27852 0.44765 0.0
C1262 C 0.27465 0.26338 0.45149 0.0
C1263 C 0.32349 0.25637 0.4534 0.0
H1264 H 0.29663 0.22239 0.5998 0.0
H1265 H 0.29611 0.21799 0.35547 0.0
H1266 H 0.30693 0.25348 0.60932 0.0
H1267 H 0.28985 0.256 0.60455 0.0
H1268 H 0.29621 0.24269 0.65966 0.0
H1269 H 0.2951 0.23575 0.27176 0.0
H1270 H 0.28937 0.25091 0.31007 0.0
H1271 H 0.30635 0.24777 0.30566 0.0
H1272 H 0.28221 0.28841 0.44527 0.0
H1273 H 0.3233 0.28242 0.44667 0.0
H1274 H 0.27288 0.25849 0.50702 0.0
H1275 H 0.2732 0.25607 0.40582 0.0
H1276 H 0.26738 0.27119 0.4442 0.0
H1277 H 0.32363 0.25096 0.50824 0.0
H1278 H 0.33269 0.26184 0.44809 0.0
H1279 H 0.32301 0.24914 0.40658 0.0
C1280 C 0.96861 0.04741 0.80208 0.0
C1281 C 0.96262 0.05011 0.73188 0.0
C1282 C 0.98209 0.04609 0.80738 0.0
C1283 C 0.98979 0.0477 0.74105 0.0
C1284 C 0.98376 0.0501 0.66961 0.0
C1285 C 0.97023 0.0512 0.66581 0.0
C1286 C 0.98811 0.04334 0.88441 0.0
C1287 C 0.99164 0.05205 0.59779 0.0
C1288 C 0.02411 0.05953 0.77381 0.0
C1289 C 0.03133 0.04816 0.76463 0.0
C1290 C 0.01062 0.05952 0.76513 0.0
C1291 C 0.00416 0.04781 0.74761 0.0
C1292 C 0.0114 0.0363 0.73784 0.0
C1293 C 0.02493 0.03663 0.74589 0.0
C1294 C 0.0033 0.07205 0.7749 0.0
C1295 C 0.00483 0.02361 0.72001 0.0
H1296 H 0.96272 0.04644 0.85309 0.0
H1297 H 0.96564 0.05341 0.61157 0.0
H1298 H 0.99475 0.03494 0.88037 0.0
H1299 H 0.99396 0.05178 0.90293 0.0
H1300 H 0.98074 0.04131 0.92907 0.0
H1301 H 0.98547 0.053 0.54603 0.0
H1302 H 0.99759 0.06093 0.60349 0.0
H1303 H 0.99838 0.04383 0.58937 0.0
H1304 H 0.02905 0.06851 0.78698 0.0
H1305 H 0.0305 0.02782 0.73899 0.0
H1306 H 0.9964 0.07119 0.82323 0.0
H1307 H 0.99755 0.07413 0.72268 0.0
H1308 H 0.00981 0.08038 0.78614 0.0
H1309 H 0.998 0.0211 0.76664 0.0
H1310 H 0.01185 0.01556 0.71319 0.0
H1311 H 0.99909 0.02449 0.66663 0.0
C1312 C 0.78406 0.72178 0.03167 0.0
C1313 C 0.79637 0.71614 0.03711 0.0
C1314 C 0.78256 0.73528 0.0285 0.0
C1315 C 0.79364 0.74332 0.03074 0.0
C1316 C 0.8061 0.73767 0.03507 0.0
C1317 C 0.8073 0.72417 0.03811 0.0
C1318 C 0.76913 0.74095 0.02397 0.0
C1319 C 0.81816 0.7459 0.03725 0.0
C1320 C 0.79302 0.7783 0.96379 0.0
C1321 C 0.79299 0.78497 0.0337 0.0
C1322 C 0.7927 0.76471 0.96171 0.0
C1323 C 0.79231 0.75766 0.03117 0.0
C1324 C 0.79166 0.76436 0.10169 0.0
C1325 C 0.79201 0.77792 0.10208 0.0
C1326 C 0.79338 0.75792 0.88537 0.0
C1327 C 0.79116 0.75721 0.17699 0.0
H1328 H 0.77556 0.71563 0.03133 0.0
H1329 H 0.81686 0.71989 0.04069 0.0
H1330 H 0.7672 0.74689 0.0756 0.0
H1331 H 0.76835 0.74746 0.97367 0.0
H1332 H 0.76154 0.73338 0.01955 0.0
H1333 H 0.82714 0.73999 0.03892 0.0
H1334 H 0.81853 0.75228 0.98623 0.0
H1335 H 0.81799 0.75224 0.08847 0.0
H1336 H 0.79387 0.78368 0.91079 0.0
H1337 H 0.79177 0.78304 0.15621 0.0
H1338 H 0.78567 0.75049 0.88107 0.0
H1339 H 0.80279 0.75284 0.88013 0.0
H1340 H 0.79239 0.76474 0.8366 0.0
H1341 H 0.78323 0.74998 0.1764 0.0
H1342 H 0.78969 0.76383 0.22632 0.0
H1343 H 0.80035 0.75186 0.18579 0.0
C1344 C 0.70281 0.27788 0.40751 0.0
C1345 C 0.70554 0.28401 0.47739 0.0
C1346 C 0.70216 0.26434 0.40229 0.0
C1347 C 0.7042 0.25673 0.46858 0.0
C1348 C 0.70746 0.26283 0.53852 0.0
C1349 C 0.70812 0.27637 0.54201 0.0
C1350 C 0.69872 0.2582 0.32656 0.0
C1351 C 0.70974 0.25507 0.61049 0.0
C1352 C 0.68757 0.22408 0.48341 0.0
C1353 C 0.6978 0.21546 0.46978 0.0
C1354 C 0.68951 0.2375 0.48219 0.0
C1355 C 0.70198 0.24249 0.4664 0.0
C1356 C 0.7123 0.23388 0.45083 0.0
C1357 C 0.71009 0.22046 0.45285 0.0
C1358 C 0.67824 0.24635 0.49893 0.0
C1359 C 0.72571 0.23883 0.4334 0.0
H1360 H 0.70065 0.28368 0.35745 0.0
H1361 H 0.71043 0.28102 0.59592 0.0
H1362 H 0.70567 0.25038 0.31249 0.0
H1363 H 0.68899 0.25373 0.33041 0.0
H1364 H 0.69866 0.26533 0.279 0.0
H1365 H 0.71303 0.2612 0.65897 0.0
H1366 H 0.70066 0.25012 0.62746 0.0
H1367 H 0.7171 0.24746 0.60007 0.0
H1368 H 0.67798 0.22032 0.49501 0.0
H1369 H 0.71808 0.21389 0.44291 0.0
H1370 H 0.67675 0.25314 0.45056 0.0
H1371 H 0.68035 0.25226 0.55046 0.0
H1372 H 0.66911 0.24094 0.5088 0.0
H1373 H 0.72537 0.24576 0.38496 0.0
H1374 H 0.73253 0.23091 0.41879 0.0
H1375 H 0.72956 0.24414 0.48366 0.0
C1376 C 0.81309 0.22493 0.01625 0.0
C1377 C 0.80269 0.21693 0.03625 0.0
C1378 C 0.81168 0.23842 0.01374 0.0
C1379 C 0.79952 0.24403 0.03062 0.0
C1380 C 0.78901 0.23601 0.05188 0.0
C1381 C 0.79075 0.22253 0.05501 0.0
C1382 C 0.82318 0.24664 0.99202 0.0
C1383 C 0.77587 0.24163 0.06936 0.0
C1384 C 0.79986 0.27998 0.07636 0.0
C1385 C 0.79739 0.28538 0.00424 0.0
C1386 C 0.80017 0.2665 0.08653 0.0
C1387 C 0.79778 0.25828 0.02324 0.0
C1388 C 0.79467 0.26372 0.95117 0.0
C1389 C 0.79461 0.27721 0.94241 0.0
C1390 C 0.80367 0.26108 0.16403 0.0
C1391 C 0.79187 0.25529 0.88257 0.0
H1392 H 0.82237 0.22062 0.00274 0.0
H1393 H 0.78268 0.21634 0.07004 0.0
H1394 H 0.82114 0.25187 0.93789 0.0
H1395 H 0.82499 0.25403 0.0368 0.0
H1396 H 0.83211 0.24081 0.98422 0.0
H1397 H 0.76883 0.23412 0.08767 0.0
H1398 H 0.77666 0.24901 0.11517 0.0
H1399 H 0.77201 0.24656 0.0178 0.0
H1400 H 0.80213 0.28629 0.12407 0.0
H1401 H 0.79259 0.28139 0.88678 0.0
H1402 H 0.81318 0.25614 0.16054 0.0
H1403 H 0.79646 0.25375 0.18216 0.0
H1404 H 0.80425 0.26871 0.20863 0.0
H1405 H 0.80074 0.24996 0.86591 0.0
H1406 H 0.78849 0.261 0.83253 0.0
H1407 H 0.78439 0.24799 0.89696 0.0
C1408 C 0.68734 0.7211 0.52181 0.0
C1409 C 0.69784 0.7129 0.53718 0.0
C1410 C 0.68883 0.73459 0.52066 0.0
C1411 C 0.70111 0.74008 0.53584 0.0
C1412 C 0.71173 0.73189 0.5525 0.0
C1413 C 0.70997 0.7184 0.55285 0.0
C1414 C 0.67725 0.74297 0.50276 0.0
C1415 C 0.72496 0.73738 0.56927 0.0
C1416 C 0.7061 0.77413 0.45944 0.0
C1417 C 0.70329 0.78171 0.52396 0.0
C1418 C 0.70585 0.76056 0.46313 0.0
C1419 C 0.70278 0.75439 0.53315 0.0
C1420 C 0.70046 0.76197 0.59925 0.0
C1421 C 0.70071 0.77552 0.59383 0.0
C1422 C 0.70841 0.75284 0.39136 0.0
C1423 C 0.69721 0.75576 0.67505 0.0
H1424 H 0.67787 0.71698 0.51127 0.0
H1425 H 0.71816 0.71214 0.56418 0.0
H1426 H 0.6754 0.74973 0.55083 0.0
H1427 H 0.67923 0.74892 0.45122 0.0
H1428 H 0.66836 0.7372 0.49242 0.0
H1429 H 0.73212 0.72973 0.58329 0.0
H1430 H 0.7285 0.74289 0.51902 0.0
H1431 H 0.7244 0.74424 0.61798 0.0
H1432 H 0.7083 0.77882 0.40552 0.0
H1433 H 0.69837 0.78127 0.64381 0.0
H1434 H 0.69952 0.74755 0.37453 0.0
H1435 H 0.71605 0.74552 0.402 0.0
H1436 H 0.71146 0.75906 0.34273 0.0
H1437 H 0.6877 0.75084 0.67092 0.0
H1438 H 0.69677 0.76293 0.72235 0.0
H1439 H 0.70449 0.74828 0.68973 0.0
C1440 C 0.47196 0.45253 0.69332 0.0
C1441 C 0.46565 0.45241 0.76438 0.0
C1442 C 0.48549 0.45333 0.68858 0.0
C1443 C 0.49292 0.45401 0.75656 0.0
C1444 C 0.4866 0.45436 0.8284 0.0
C1445 C 0.47304 0.45355 0.83146 0.0
C1446 C 0.49185 0.45299 0.61083 0.0
C1447 C 0.49417 0.45505 0.90216 0.0
C1448 C 0.52695 0.44043 0.74412 0.0
C1449 C 0.53444 0.45166 0.73606 0.0
C1450 C 0.51348 0.4411 0.75221 0.0
C1451 C 0.50729 0.45332 0.75243 0.0
C1452 C 0.51482 0.46473 0.7462 0.0
C1453 C 0.52832 0.46376 0.73822 0.0
C1454 C 0.50583 0.42871 0.75924 0.0
C1455 C 0.50857 0.47792 0.74625 0.0
H1456 H 0.46631 0.45184 0.64124 0.0
H1457 H 0.46826 0.45332 0.88663 0.0
H1458 H 0.49862 0.46125 0.60456 0.0
H1459 H 0.49761 0.44399 0.60501 0.0
H1460 H 0.4847 0.45335 0.56344 0.0
H1461 H 0.48781 0.45638 0.95277 0.0
H1462 H 0.49979 0.446 0.90989 0.0
H1463 H 0.5012 0.46314 0.90008 0.0
H1464 H 0.53164 0.43105 0.74403 0.0
H1465 H 0.53405 0.47247 0.73163 0.0
H1466 H 0.49906 0.42781 0.71029 0.0
H1467 H 0.49993 0.42886 0.81225 0.0
H1468 H 0.51215 0.42001 0.76044 0.0
H1469 H 0.50213 0.47888 0.69576 0.0
H1470 H 0.51581 0.48585 0.74475 0.0
H1471 H 0.50246 0.47911 0.79795 0.0
C1472 C 0.0289 0.56202 0.2162 0.0
C1473 C 0.03703 0.5513 0.22734 0.0
C1474 C 0.01541 0.56066 0.21481 0.0
C1475 C 0.00983 0.54829 0.22574 0.0
C1476 C 0.01793 0.53744 0.23784 0.0
C1477 C 0.03143 0.53907 0.23822 0.0
C1478 C 0.00711 0.57248 0.20163 0.0
C1479 C 0.01233 0.52412 0.25021 0.0
C1480 C 0.97463 0.54847 0.28819 0.0
C1481 C 0.96816 0.54652 0.21845 0.0
C1482 C 0.9882 0.54857 0.29191 0.0
C1483 C 0.9955 0.54681 0.22419 0.0
C1484 C 0.98906 0.54444 0.15408 0.0
C1485 C 0.97548 0.54427 0.15213 0.0
C1486 C 0.99471 0.55103 0.36789 0.0
C1487 C 0.9965 0.54254 0.08058 0.0
H1488 H 0.03308 0.57156 0.20946 0.0
H1489 H 0.03761 0.53071 0.24619 0.0
H1490 H 0.00092 0.57102 0.15047 0.0
H1491 H 1.00059 0.57399 0.2512 0.0
H1492 H 0.01296 0.58137 0.19313 0.0
H1493 H 0.01993 0.51672 0.26023 0.0
H1494 H 0.0057 0.52422 0.30011 0.0
H1495 H 0.00654 0.5212 0.1996 0.0
H1496 H 0.9691 0.55039 0.33961 0.0
H1497 H 0.97059 0.54255 0.09824 0.0
H1498 H 0.99974 0.56051 0.36632 0.0
H1499 H 0.00214 0.54353 0.3792 0.0
H1500 H 0.98772 0.55111 0.41615 0.0
H1501 H 0.00187 0.55152 0.0664 0.0
H1502 H 0.99008 0.54009 0.03168 0.0
H1503 H 0.00374 0.53471 0.08751 0.0
C1504 C 0.03191 0.46152 0.73112 0.0
C1505 C 0.03756 0.44925 0.73964 0.0
C1506 C 0.01842 0.46313 0.73353 0.0
C1507 C 0.01037 0.45223 0.74536 0.0
C1508 C 0.016 0.43983 0.75405 0.0
C1509 C 0.02949 0.43849 0.75059 0.0
C1510 C 0.01276 0.47648 0.72346 0.0
C1511 C 0.00776 0.42796 0.76696 0.0
C1512 C 0.97626 0.45603 0.82309 0.0
C1513 C 0.96872 0.45401 0.75731 0.0
C1514 C 0.98983 0.45583 0.8197 0.0
C1515 C 0.99605 0.45368 0.74868 0.0
C1516 C 0.98853 0.45213 0.68158 0.0
C1517 C 0.97497 0.45224 0.68674 0.0
C1518 C 0.9975 0.45749 0.8926 0.0
C1519 C 0.99479 0.44991 0.60465 0.0
H1520 H 0.03805 0.46991 0.72337 0.0
H1521 H 0.0337 0.42893 0.75552 0.0
H1522 H 0.00597 0.47655 0.6743 0.0
H1523 H 0.00714 0.4792 0.77505 0.0
H1524 H 0.02032 0.48393 0.71354 0.0
H1525 H 0.01366 0.41905 0.77392 0.0
H1526 H 0.00173 0.42926 0.81891 0.0
H1527 H 0.00108 0.42657 0.71795 0.0
H1528 H 0.97153 0.45762 0.87765 0.0
H1529 H 0.96929 0.45048 0.6357 0.0
H1530 H 0.0047 0.46536 0.88583 0.0
H1531 H 0.00293 0.44848 0.90507 0.0
H1532 H 0.99123 0.45976 0.94248 0.0
H1533 H 0.00217 0.45746 0.59332 0.0
H1534 H 0.98765 0.44995 0.55716 0.0
H1535 H 0.99985 0.44044 0.60469 0.0
C1536 C 0.47497 0.53835 0.24793 0.0
C1537 C 0.4694 0.55045 0.26368 0.0
C1538 C 0.48843 0.53696 0.24003 0.0
C1539 C 0.49652 0.54791 0.24866 0.0
C1540 C 0.49097 0.56013 0.26455 0.0
C1541 C 0.4775 0.56127 0.27143 0.0
C1542 C 0.49398 0.52378 0.22267 0.0
C1543 C 0.49928 0.57204 0.27438 0.0
C1544 C 0.53188 0.54416 0.30289 0.0
C1545 C 0.53813 0.54678 0.23328 0.0
C1546 C 0.51834 0.54412 0.30823 0.0
C1547 C 0.51083 0.54664 0.24218 0.0
C1548 C 0.51704 0.54873 0.17104 0.0
C1549 C 0.53062 0.54883 0.16747 0.0
C1550 C 0.51209 0.54185 0.38517 0.0
C1551 C 0.50936 0.55136 0.0992 0.0
H1552 H 0.46881 0.52992 0.24254 0.0
H1553 H 0.47331 0.57071 0.28191 0.0
H1554 H 0.4998 0.52418 0.16937 0.0
H1555 H 0.50058 0.52076 0.26945 0.0
H1556 H 0.48636 0.5163 0.21581 0.0
H1557 H 0.49346 0.58082 0.2871 0.0
H1558 H 0.50627 0.57053 0.32171 0.0
H1559 H 0.50496 0.57381 0.22159 0.0
H1560 H 0.53761 0.54234 0.35374 0.0
H1561 H 0.53533 0.551 0.11359 0.0
H1562 H 0.50487 0.53394 0.38116 0.0
H1563 H 0.50686 0.5507 0.40336 0.0
H1564 H 0.51927 0.53931 0.43008 0.0
H1565 H 0.50187 0.54379 0.09105 0.0
H1566 H 0.51557 0.55169 0.0474 0.0
H1567 H 0.50426 0.56075 0.10463 0.0
C1568 C 0.18998 0.14674 0.32508 0.0
C1569 C 0.18141 0.15609 0.29645 0.0
C1570 C 0.19325 0.14638 0.40294 0.0
C1571 C 0.18778 0.15556 0.45349 0.0
C1572 C 0.17893 0.16486 0.42533 0.0
C1573 C 0.17584 0.165 0.34713 0.0
C1574 C 0.20267 0.13627 0.43096 0.0
C1575 C 0.17296 0.17485 0.47749 0.0
C1576 C 0.18794 0.14878 0.66693 0.0
C1577 C 0.19844 0.15628 0.6918 0.0
C1578 C 0.18442 0.14837 0.58946 0.0
C1579 C 0.19158 0.15565 0.53553 0.0
C1580 C 0.2023 0.1631 0.56006 0.0
C1581 C 0.20561 0.16332 0.63796 0.0
C1582 C 0.17297 0.14025 0.56548 0.0
C1583 C 0.21007 0.17117 0.50463 0.0
H1584 H 0.19418 0.13971 0.28642 0.0
H1585 H 0.16936 0.17235 0.3253 0.0
H1586 H 0.21082 0.14095 0.46167 0.0
H1587 H 0.19778 0.12976 0.47229 0.0
H1588 H 0.20666 0.13032 0.38353 0.0
H1589 H 0.16584 0.18107 0.44725 0.0
H1590 H 0.16804 0.17004 0.52621 0.0
H1591 H 0.18065 0.18111 0.50173 0.0
H1592 H 0.18249 0.14317 0.70817 0.0
H1593 H 0.21361 0.16927 0.657 0.0
H1594 H 0.17601 0.13303 0.52212 0.0
H1595 H 0.16552 0.14648 0.53843 0.0
H1596 H 0.1685 0.13507 0.61449 0.0
H1597 H 0.21188 0.16585 0.45058 0.0
H1598 H 0.21952 0.17418 0.52927 0.0
H1599 H 0.20452 0.18001 0.48999 0.0
C1600 C 0.10471 0.94062 0.58382 0.0
C1601 C 0.09485 0.93245 0.55676 0.0
C1602 C 0.10593 0.94346 0.66197 0.0
C1603 C 0.09723 0.93783 0.71483 0.0
C1604 C 0.0876 0.92918 0.68856 0.0
C1605 C 0.08648 0.92664 0.60992 0.0
C1606 C 0.11616 0.95295 0.68757 0.0
C1607 C 0.07813 0.92299 0.74322 0.0
C1608 C 0.10505 0.9385 0.92748 0.0
C1609 C 0.09761 0.94903 0.95233 0.0
C1610 C 0.10516 0.93479 0.85015 0.0
C1611 C 0.09757 0.94175 0.79668 0.0
C1612 C 0.0901 0.95244 0.82149 0.0
C1613 C 0.09022 0.95594 0.89893 0.0
C1614 C 0.11327 0.92338 0.82579 0.0
C1615 C 0.08164 0.95996 0.7669 0.0
H1616 H 0.11142 0.94497 0.54392 0.0
H1617 H 0.07876 0.92043 0.59015 0.0
H1618 H 0.11146 0.96172 0.71138 0.0
H1619 H 0.12214 0.94865 0.73378 0.0
H1620 H 0.12262 0.95595 0.63993 0.0
H1621 H 0.07197 0.91562 0.71472 0.0
H1622 H 0.08336 0.91833 0.79133 0.0
H1623 H 0.07176 0.93053 0.76805 0.0
H1624 H 0.11085 0.93321 0.96857 0.0
H1625 H 0.08425 0.96391 0.91804 0.0
H1626 H 0.1202 0.92638 0.78068 0.0
H1627 H 0.10699 0.91578 0.80077 0.0
H1628 H 0.11879 0.91913 0.87424 0.0
H1629 H 0.08666 0.96164 0.7118 0.0
H1630 H 0.07867 0.96944 0.79111 0.0
H1631 H 0.07279 0.95427 0.7545 0.0
C1632 C 0.32149 0.83617 0.83241 0.0
C1633 C 0.32032 0.84658 0.78152 0.0
C1634 C 0.31884 0.83768 0.91062 0.0
C1635 C 0.3151 0.84996 0.93882 0.0
C1636 C 0.31421 0.8606 0.88803 0.0
C1637 C 0.31672 0.85875 0.80982 0.0
C1638 C 0.31964 0.82604 0.96263 0.0
C1639 C 0.3104 0.87387 0.91605 0.0
C1640 C 0.29546 0.85063 0.12222 0.0
C1641 C 0.30502 0.85295 0.17729 0.0
C1642 C 0.29859 0.84975 0.04432 0.0
C1643 C 0.31158 0.85148 0.02089 0.0
C1644 C 0.32124 0.85419 0.07618 0.0
C1645 C 0.31786 0.85474 0.15396 0.0
C1646 C 0.28804 0.84667 0.98737 0.0
C1647 C 0.33514 0.85642 0.05325 0.0
H1648 H 0.32405 0.82671 0.81057 0.0
H1649 H 0.3159 0.86683 0.77063 0.0
H1650 H 0.32639 0.82799 0.01059 0.0
H1651 H 0.31 0.82407 0.98797 0.0
H1652 H 0.32295 0.81723 0.93197 0.0
H1653 H 0.3112 0.88132 0.87047 0.0
H1654 H 0.30027 0.8737 0.93684 0.0
H1655 H 0.3166 0.87678 0.96498 0.0
H1656 H 0.28555 0.84916 0.14053 0.0
H1657 H 0.32521 0.85674 0.19657 0.0
H1658 H 0.29027 0.83742 0.95794 0.0
H1659 H 0.28755 0.85429 0.94283 0.0
H1660 H 0.27839 0.84583 0.01482 0.0
H1661 H 0.33919 0.84747 0.02781 0.0
H1662 H 0.34128 0.8593 0.10258 0.0
H1663 H 0.33568 0.86409 0.00891 0.0
C1664 C 0.41879 0.07704 0.0741 0.0
C1665 C 0.40976 0.07202 0.02192 0.0
C1666 C 0.4183 0.0738 0.15205 0.0
C1667 C 0.40858 0.06527 0.1787 0.0
C1668 C 0.39929 0.06035 0.12685 0.0
C1669 C 0.39995 0.06383 0.04928 0.0
C1670 C 0.42838 0.07925 0.20562 0.0
C1671 C 0.3888 0.0512 0.15298 0.0
C1672 C 0.41576 0.0471 0.36301 0.0
C1673 C 0.40912 0.05455 0.41737 0.0
C1674 C 0.41546 0.05033 0.28495 0.0
C1675 C 0.40836 0.0613 0.26061 0.0
C1676 C 0.40141 0.0687 0.31489 0.0
C1677 C 0.40186 0.06523 0.39251 0.0
C1678 C 0.42298 0.04217 0.22874 0.0
C1679 C 0.39364 0.0804 0.29114 0.0
H1680 H 0.42651 0.08321 0.05384 0.0
H1681 H 0.3928 0.06005 0.00996 0.0
H1682 H 0.42364 0.08435 0.25392 0.0
H1683 H 0.43421 0.07127 0.23035 0.0
H1684 H 0.43502 0.08611 0.17643 0.0
H1685 H 0.38205 0.04858 0.10598 0.0
H1686 H 0.39321 0.04219 0.17561 0.0
H1687 H 0.38317 0.05562 0.20024 0.0
H1688 H 0.42149 0.03892 0.38164 0.0
H1689 H 0.3965 0.0709 0.43382 0.0
H1690 H 0.43064 0.04812 0.20146 0.0
H1691 H 0.41651 0.03869 0.18245 0.0
H1692 H 0.4276 0.03367 0.25642 0.0
H1693 H 0.40013 0.08775 0.2653 0.0
H1694 H 0.38846 0.0849 0.34007 0.0
H1695 H 0.38645 0.07766 0.24688 0.0
C1696 C 0.19731 0.84562 0.68054 0.0
C1697 C 0.1848 0.84334 0.70827 0.0
C1698 C 0.1996 0.84721 0.6022 0.0
C1699 C 0.18912 0.84648 0.55042 0.0
C1700 C 0.17642 0.84438 0.57801 0.0
C1701 C 0.17442 0.84276 0.65682 0.0
C1702 C 0.2133 0.84928 0.57483 0.0
C1703 C 0.165 0.8438 0.5243 0.0
C1704 C 0.19543 0.86092 0.35494 0.0
C1705 C 0.19818 0.84984 0.31188 0.0
C1706 C 0.19199 0.85994 0.43225 0.0
C1707 C 0.19158 0.8476 0.46723 0.0
C1708 C 0.19428 0.83637 0.42372 0.0
C1709 C 0.19742 0.83763 0.34612 0.0
C1710 C 0.18904 0.8721 0.47683 0.0
C1711 C 0.19419 0.82308 0.45956 0.0
H1712 H 0.2054 0.84583 0.71999 0.0
H1713 H 0.16474 0.84113 0.6784 0.0
H1714 H 0.2168 0.84037 0.54613 0.0
H1715 H 0.21379 0.85727 0.53256 0.0
H1716 H 0.21993 0.8516 0.6227 0.0
H1717 H 0.15569 0.84261 0.55526 0.0
H1718 H 0.16452 0.85278 0.48955 0.0
H1719 H 0.16617 0.8356 0.48397 0.0
H1720 H 0.19581 0.87033 0.32773 0.0
H1721 H 0.19959 0.82912 0.31234 0.0
H1722 H 0.19643 0.87349 0.52214 0.0
H1723 H 0.17953 0.8712 0.50567 0.0
H1724 H 0.18891 0.88083 0.43981 0.0
H1725 H 0.20168 0.82256 0.50501 0.0
H1726 H 0.1961 0.81531 0.41711 0.0
H1727 H 0.18471 0.8212 0.48708 0.0
C1728 C 0.39533 0.93768 0.83933 0.0
C1729 C 0.4053 0.92958 0.86565 0.0
C1730 C 0.39411 0.94077 0.76137 0.0
C1731 C 0.403 0.93555 0.70812 0.0
C1732 C 0.41276 0.92698 0.73368 0.0
C1733 C 0.41382 0.92414 0.81198 0.0
C1734 C 0.38359 0.94998 0.73642 0.0
C1735 C 0.42242 0.92118 0.67866 0.0
C1736 C 0.39617 0.93621 0.49411 0.0
C1737 C 0.40378 0.94671 0.47023 0.0
C1738 C 0.39556 0.93262 0.5716 0.0
C1739 C 0.40271 0.93971 0.62655 0.0
C1740 C 0.41013 0.95051 0.60312 0.0
C1741 C 0.4106 0.95385 0.52538 0.0
C1742 C 0.38746 0.92109 0.59441 0.0
C1743 C 0.41786 0.95835 0.65996 0.0
H1744 H 0.38853 0.94176 0.8797 0.0
H1745 H 0.42165 0.918 0.83115 0.0
H1746 H 0.388 0.9591 0.71542 0.0
H1747 H 0.37798 0.94578 0.68834 0.0
H1748 H 0.37683 0.95237 0.78374 0.0
H1749 H 0.42885 0.914 0.70674 0.0
H1750 H 0.41733 0.91639 0.63051 0.0
H1751 H 0.42851 0.92897 0.65391 0.0
H1752 H 0.3907 0.93077 0.45216 0.0
H1753 H 0.41662 0.96187 0.50765 0.0
H1754 H 0.38178 0.91717 0.54568 0.0
H1755 H 0.3807 0.92377 0.64106 0.0
H1756 H 0.39383 0.91332 0.61672 0.0
H1757 H 0.4115 0.96186 0.7067 0.0
H1758 H 0.42265 0.96683 0.63301 0.0
H1759 H 0.42541 0.95218 0.68648 0.0
C1760 C 0.2995 0.14857 0.86008 0.0
C1761 C 0.29999 0.15883 0.80749 0.0
C1762 C 0.30251 0.15047 0.93747 0.0
C1763 C 0.30623 0.1629 0.96305 0.0
C1764 C 0.30667 0.17334 0.91069 0.0
C1765 C 0.30349 0.17119 0.83359 0.0
C1766 C 0.30183 0.13911 0.99178 0.0
C1767 C 0.31054 0.18675 0.93609 0.0
C1768 C 0.30302 0.16876 0.17623 0.0
C1769 C 0.31562 0.16621 0.20228 0.0
C1770 C 0.2999 0.16807 0.09831 0.0
C1771 C 0.30965 0.1649 0.04479 0.0
C1772 C 0.32251 0.16286 0.07011 0.0
C1773 C 0.32533 0.16351 0.14863 0.0
C1774 C 0.28606 0.17026 0.07375 0.0
C1775 C 0.33317 0.15951 0.01454 0.0
H1776 H 0.29703 0.13895 0.84069 0.0
H1777 H 0.30373 0.1792 0.79373 0.0
H1778 H 0.31149 0.13735 0.01751 0.0
H1779 H 0.29507 0.14128 0.03934 0.0
H1780 H 0.29858 0.1301 0.96297 0.0
H1781 H 0.3104 0.19382 0.88824 0.0
H1782 H 0.3039 0.19019 0.98158 0.0
H1783 H 0.32042 0.18652 0.96096 0.0
H1784 H 0.2955 0.17117 0.21686 0.0
H1785 H 0.33506 0.16146 0.16815 0.0
H1786 H 0.28187 0.16103 0.05282 0.0
H1787 H 0.28563 0.17728 0.02582 0.0
H1788 H 0.27994 0.1739 0.12131 0.0
H1789 H 0.3312 0.14994 0.98828 0.0
H1790 H 0.34281 0.15915 0.04262 0.0
H1791 H 0.33351 0.16671 0.9675 0.0
C1792 C 0.10076 0.06243 0.46261 0.0
C1793 C 0.08881 0.06634 0.49268 0.0
C1794 C 0.1021 0.05937 0.3847 0.0
C1795 C 0.09117 0.06002 0.33598 0.0
C1796 C 0.07908 0.06396 0.36608 0.0
C1797 C 0.07808 0.06718 0.4439 0.0
C1798 C 0.1152 0.05538 0.35467 0.0
C1799 C 0.06713 0.06449 0.31646 0.0
C1800 C 0.0952 0.06278 0.12031 0.0
C1801 C 0.09357 0.04992 0.09691 0.0
C1802 C 0.09474 0.06616 0.19809 0.0
C1803 C 0.0923 0.05647 0.25361 0.0
C1804 C 0.09065 0.04345 0.2302 0.0
C1805 C 0.09145 0.04032 0.15211 0.0
C1806 C 0.09689 0.08008 0.22086 0.0
C1807 C 0.08783 0.03288 0.28745 0.0
H1808 H 0.10907 0.06181 0.50021 0.0
H1809 H 0.06878 0.06995 0.46721 0.0
H1810 H 0.11481 0.04525 0.3339 0.0
H1811 H 0.11795 0.06155 0.30531 0.0
H1812 H 0.12286 0.05609 0.39905 0.0
H1813 H 0.05844 0.06767 0.34879 0.0
H1814 H 0.06868 0.07124 0.268 0.0
H1815 H 0.06519 0.0548 0.29171 0.0
H1816 H 0.09706 0.07016 0.07769 0.0
H1817 H 0.09014 0.03039 0.13378 0.0
H1818 H 0.1049 0.08071 0.26302 0.0
H1819 H 0.08809 0.08396 0.24893 0.0
H1820 H 0.09927 0.08632 0.17104 0.0
H1821 H 0.09569 0.03232 0.3305 0.0
H1822 H 0.08679 0.02325 0.2599 0.0
H1823 H 0.07876 0.03511 0.31876 0.0
C1824 C 0.80619 0.85154 0.71571 0.0
C1825 C 0.81493 0.8423 0.74376 0.0
C1826 C 0.80327 0.85229 0.63757 0.0
C1827 C 0.80927 0.84361 0.58605 0.0
C1828 C 0.8183 0.83443 0.61361 0.0
C1829 C 0.82106 0.83391 0.69224 0.0
C1830 C 0.79353 0.86215 0.61036 0.0
C1831 C 0.82476 0.82492 0.56037 0.0
C1832 C 0.79158 0.83677 0.40004 0.0
C1833 C 0.79841 0.84454 0.34832 0.0
C1834 C 0.79509 0.83628 0.4775 0.0
C1835 C 0.80563 0.84382 0.50382 0.0
C1836 C 0.81253 0.85173 0.45184 0.0
C1837 C 0.80886 0.85195 0.37458 0.0
C1838 C 0.78772 0.82736 0.5302 0.0
C1839 C 0.82377 0.85996 0.47784 0.0
H1840 H 0.80158 0.85819 0.75506 0.0
H1841 H 0.8277 0.82667 0.7137 0.0
H1842 H 0.79797 0.86852 0.56656 0.0
H1843 H 0.78523 0.85718 0.58287 0.0
H1844 H 0.78982 0.86827 0.6578 0.0
H1845 H 0.83212 0.81891 0.59009 0.0
H1846 H 0.81736 0.81842 0.53513 0.0
H1847 H 0.8295 0.83012 0.51241 0.0
H1848 H 0.78368 0.83082 0.3795 0.0
H1849 H 0.81408 0.85802 0.33461 0.0
H1850 H 0.78663 0.83158 0.58814 0.0
H1851 H 0.79316 0.81817 0.53619 0.0
H1852 H 0.77796 0.82506 0.50726 0.0
H1853 H 0.8205 0.86689 0.52228 0.0
H1854 H 0.82819 0.86548 0.43 0.0
H1855 H 0.83131 0.85376 0.50421 0.0
C1856 C 0.91035 0.05891 0.05826 0.0
C1857 C 0.89827 0.058 0.02269 0.0
C1858 C 0.91133 0.06208 0.13596 0.0
C1859 C 0.89995 0.0647 0.17819 0.0
C1860 C 0.88773 0.06419 0.14173 0.0
C1861 C 0.88703 0.06069 0.06435 0.0
C1862 C 0.92451 0.06226 0.17331 0.0
C1863 C 0.87541 0.06708 0.18481 0.0
C1864 C 0.90191 0.05883 0.39146 0.0
C1865 C 0.90434 0.07131 0.41943 0.0
C1866 C 0.90013 0.05662 0.31316 0.0
C1867 C 0.90082 0.06714 0.26159 0.0
C1868 C 0.90294 0.07981 0.28952 0.0
C1869 C 0.90475 0.08174 0.36828 0.0
C1870 C 0.89802 0.04294 0.28559 0.0
C1871 C 0.90345 0.09128 0.23614 0.0
H1872 H 0.91899 0.0568 0.02547 0.0
H1873 H 0.87772 0.06017 0.036 0.0
H1874 H 0.92625 0.07175 0.20096 0.0
H1875 H 0.92493 0.05478 0.21885 0.0
H1876 H 0.93242 0.06038 0.13176 0.0
H1877 H 0.86682 0.06727 0.14659 0.0
H1878 H 0.87384 0.05961 0.22947 0.0
H1879 H 0.87619 0.07655 0.21433 0.0
H1880 H 0.9018 0.0507 0.43059 0.0
H1881 H 0.90647 0.0914 0.39002 0.0
H1882 H 0.90706 0.03931 0.25898 0.0
H1883 H 0.89029 0.0425 0.24166 0.0
H1884 H 0.89534 0.03638 0.33316 0.0
H1885 H 0.91182 0.0903 0.19685 0.0
H1886 H 0.90435 0.10059 0.26747 0.0
H1887 H 0.8946 0.0916 0.20026 0.0
C1888 C 0.66987 0.15977 0.14089 0.0
C1889 C 0.67719 0.1532 0.19665 0.0
C1890 C 0.67287 0.15888 0.06272 0.0
C1891 C 0.68341 0.15118 0.03881 0.0
C1892 C 0.69039 0.14392 0.09362 0.0
C1893 C 0.68721 0.145 0.17161 0.0
C1894 C 0.66509 0.1667 0.00594 0.0
C1895 C 0.70153 0.13535 0.07007 0.0
C1896 C 0.68592 0.14448 0.82486 0.0
C1897 C 0.6947 0.15406 0.80151 0.0
C1898 C 0.68245 0.1431 0.90226 0.0
C1899 C 0.68775 0.15162 0.95748 0.0
C1900 C 0.69681 0.16113 0.9344 0.0
C1901 C 0.70019 0.16221 0.8569 0.0
C1902 C 0.67285 0.13276 0.9243 0.0
C1903 C 0.70268 0.17043 0.99136 0.0
H1904 H 0.66197 0.16597 0.15771 0.0
H1905 H 0.69285 0.13958 0.21258 0.0
H1906 H 0.67136 0.17418 0.97951 0.0
H1907 H 0.66152 0.16038 0.95918 0.0
H1908 H 0.65668 0.17157 0.03292 0.0
H1909 H 0.70537 0.12958 0.11865 0.0
H1910 H 0.69843 0.12864 0.02399 0.0
H1911 H 0.70948 0.14137 0.04669 0.0
H1912 H 0.68176 0.13805 0.78255 0.0
H1913 H 0.70684 0.16973 0.83936 0.0
H1914 H 0.66327 0.13727 0.93452 0.0
H1915 H 0.67581 0.12784 0.97796 0.0
H1916 H 0.67174 0.12537 0.87864 0.0
H1917 H 0.69494 0.17641 0.01754 0.0
H1918 H 0.70989 0.17698 0.96462 0.0
H1919 H 0.70747 0.16502 0.03828 0.0
C1920 C 0.58362 0.92646 0.95444 0.0
C1921 C 0.59187 0.93283 0.00564 0.0
C1922 C 0.58353 0.9297 0.87647 0.0
C1923 C 0.59201 0.93942 0.8492 0.0
C1924 C 0.60055 0.94569 0.90042 0.0
C1925 C 0.60034 0.94235 0.97811 0.0
C1926 C 0.57419 0.92291 0.82356 0.0
C1927 C 0.60989 0.95595 0.87324 0.0
C1928 C 0.59916 0.93966 0.63647 0.0
C1929 C 0.59098 0.94956 0.61053 0.0
C1930 C 0.59973 0.93638 0.71419 0.0
C1931 C 0.59186 0.9431 0.76711 0.0
C1932 C 0.58371 0.95322 0.74147 0.0
C1933 C 0.58341 0.95637 0.66338 0.0
C1934 C 0.60871 0.92568 0.73958 0.0
C1935 C 0.57511 0.96054 0.79629 0.0
H1936 H 0.57696 0.91923 0.9758 0.0
H1937 H 0.60685 0.94716 0.01753 0.0
H1938 H 0.56757 0.93008 0.79711 0.0
H1939 H 0.57954 0.91812 0.77641 0.0
H1940 H 0.5683 0.91551 0.85374 0.0
H1941 H 0.61572 0.96006 0.9208 0.0
H1942 H 0.61656 0.95178 0.83008 0.0
H1943 H 0.60454 0.96393 0.84492 0.0
H1944 H 0.60518 0.93453 0.59584 0.0
H1945 H 0.577 0.96393 0.64332 0.0
H1946 H 0.60304 0.91773 0.76591 0.0
H1947 H 0.61547 0.92934 0.78386 0.0
H1948 H 0.61444 0.92165 0.6914 0.0
H1949 H 0.56796 0.95382 0.82204 0.0
H1950 H 0.5698 0.96854 0.76778 0.0
H1951 H 0.58093 0.96462 0.84382 0.0
C1952 C 0.82444 0.16741 0.38047 0.0
C1953 C 0.82194 0.1572 0.32984 0.0
C1954 C 0.82172 0.16628 0.45883 0.0
C1955 C 0.81653 0.15457 0.48751 0.0
C1956 C 0.81435 0.14407 0.43707 0.0
C1957 C 0.81699 0.14555 0.35868 0.0
C1958 C 0.82398 0.17777 0.51047 0.0
C1959 C 0.80899 0.13138 0.4656 0.0
C1960 C 0.81823 0.14983 0.70321 0.0
C1961 C 0.80569 0.15334 0.72555 0.0
C1962 C 0.82182 0.14981 0.62565 0.0
C1963 C 0.8127 0.15363 0.56944 0.0
C1964 C 0.79999 0.15707 0.59178 0.0
C1965 C 0.79663 0.15679 0.66952 0.0
C1966 C 0.83536 0.14579 0.60392 0.0
C1967 C 0.79002 0.16132 0.53377 0.0
H1968 H 0.82808 0.1765 0.35831 0.0
H1969 H 0.81516 0.1376 0.31974 0.0
H1970 H 0.81464 0.18104 0.53505 0.0
H1971 H 0.83032 0.17501 0.55898 0.0
H1972 H 0.82848 0.18603 0.47971 0.0
H1973 H 0.80895 0.12382 0.42041 0.0
H1974 H 0.81475 0.12784 0.51494 0.0
H1975 H 0.79892 0.13278 0.48594 0.0
H1976 H 0.82517 0.14694 0.74641 0.0
H1977 H 0.78697 0.15959 0.68686 0.0
H1978 H 0.84102 0.14234 0.65398 0.0
H1979 H 0.84053 0.15408 0.5777 0.0
H1980 H 0.83501 0.13796 0.56053 0.0
H1981 H 0.79341 0.17018 0.50413 0.0
H1982 H 0.78048 0.16336 0.56036 0.0
H1983 H 0.78871 0.15374 0.48952 0.0
C1984 C 0.58838 0.05771 0.49883 0.0
C1985 C 0.60075 0.05622 0.53031 0.0
C1986 C 0.58678 0.06059 0.42108 0.0
C1987 C 0.59783 0.06214 0.37424 0.0
C1988 C 0.61035 0.06073 0.40587 0.0
C1989 C 0.61166 0.05772 0.48363 0.0
C1990 C 0.57328 0.06186 0.38894 0.0
C1991 C 0.62235 0.06248 0.35771 0.0
C1992 C 0.59441 0.05744 0.16063 0.0
C1993 C 0.59354 0.07024 0.13473 0.0
C1994 C 0.59571 0.05467 0.23859 0.0
C1995 C 0.5963 0.06497 0.2917 0.0
C1996 C 0.59545 0.07793 0.26595 0.0
C1997 C 0.59397 0.08041 0.18753 0.0
C1998 C 0.59643 0.04072 0.26401 0.0
C1999 C 0.59622 0.08914 0.3211 0.0
H2000 H 0.57997 0.05647 0.53506 0.0
H2001 H 0.62122 0.0568 0.50835 0.0
H2002 H 0.57197 0.07157 0.36314 0.0
H2003 H 0.5718 0.05464 0.34275 0.0
H2004 H 0.56571 0.06041 0.43326 0.0
H2005 H 0.63137 0.06135 0.39163 0.0
H2006 H 0.62244 0.05529 0.31059 0.0
H2007 H 0.62234 0.07222 0.33107 0.0
H2008 H 0.59386 0.04957 0.11985 0.0
H2009 H 0.59339 0.09029 0.1672 0.0
H2010 H 0.58887 0.03872 0.30748 0.0
H2011 H 0.60593 0.03881 0.29119 0.0
H2012 H 0.59515 0.03387 0.21563 0.0
H2013 H 0.58831 0.08846 0.3638 0.0
H2014 H 0.59551 0.09864 0.29165 0.0
H2015 H 0.60549 0.08878 0.35306 0.0
C2016 C 0.68626 0.85099 0.83324 0.0
C2017 C 0.68261 0.83893 0.80364 0.0
C2018 C 0.68926 0.85251 0.91113 0.0
C2019 C 0.68882 0.84163 0.96035 0.0
C2020 C 0.68513 0.82942 0.93075 0.0
C2021 C 0.68197 0.82824 0.85291 0.0
C2022 C 0.693 0.86572 0.94058 0.0
C2023 C 0.68482 0.81753 0.98093 0.0
C2024 C 0.70846 0.84246 0.14445 0.0
C2025 C 0.69881 0.84447 0.19948 0.0
C2026 C 0.70536 0.84155 0.06634 0.0
C2027 C 0.69233 0.84294 0.04271 0.0
C2028 C 0.68259 0.84527 0.09803 0.0
C2029 C 0.68594 0.84587 0.17584 0.0
C2030 C 0.71601 0.83885 0.00933 0.0
C2031 C 0.66864 0.84715 0.07501 0.0
H2032 H 0.68671 0.85927 0.79531 0.0
H2033 H 0.67941 0.81885 0.83001 0.0
H2034 H 0.68676 0.86841 0.98975 0.0
H2035 H 0.70312 0.86555 0.96148 0.0
H2036 H 0.69215 0.87331 0.89584 0.0
H2037 H 0.6818 0.80874 0.949 0.0
H2038 H 0.69454 0.81581 0.00582 0.0
H2039 H 0.67803 0.81902 0.02928 0.0
H2040 H 0.7184 0.84131 0.16291 0.0
H2041 H 0.67851 0.84764 0.21829 0.0
H2042 H 0.7164 0.84666 0.96589 0.0
H2043 H 0.71396 0.8297 0.97846 0.0
H2044 H 0.72565 0.83806 0.03701 0.0
H2045 H 0.66787 0.85508 0.03244 0.0
H2046 H 0.66235 0.84949 0.12465 0.0
H2047 H 0.66492 0.83823 0.04735 0.0
C2048 C 0.91899 0.9448 0.87653 0.0
C2049 C 0.90747 0.95068 0.90112 0.0
C2050 C 0.92075 0.94118 0.79979 0.0
C2051 C 0.91083 0.94369 0.74602 0.0
C2052 C 0.8993 0.94984 0.76989 0.0
C2053 C 0.89772 0.95317 0.84707 0.0
C2054 C 0.9332 0.93466 0.77625 0.0
C2055 C 0.88857 0.95285 0.71387 0.0
C2056 C 0.91786 0.94624 0.5339 0.0
C2057 C 0.91297 0.93446 0.50647 0.0
C2058 C 0.91775 0.94913 0.61223 0.0
C2059 C 0.91249 0.94008 0.66432 0.0
C2060 C 0.90799 0.92797 0.6374 0.0
C2061 C 0.90833 0.92528 0.55866 0.0
C2062 C 0.92281 0.96207 0.6388 0.0
C2063 C 0.90238 0.91805 0.69141 0.0
H2064 H 0.92669 0.94303 0.91718 0.0
H2065 H 0.88871 0.95752 0.86494 0.0
H2066 H 0.93107 0.92509 0.7505 0.0
H2067 H 0.93817 0.94052 0.73193 0.0
H2068 H 0.9399 0.93327 0.82524 0.0
H2069 H 0.88022 0.95772 0.74159 0.0
H2070 H 0.89227 0.9592 0.66759 0.0
H2071 H 0.88511 0.94379 0.68663 0.0
H2072 H 0.9217 0.95326 0.49389 0.0
H2073 H 0.9045 0.91621 0.5376 0.0
H2074 H 0.92933 0.96088 0.68871 0.0
H2075 H 0.91459 0.9682 0.65745 0.0
H2076 H 0.92817 0.96721 0.59289 0.0
H2077 H 0.90916 0.91621 0.73942 0.0
H2078 H 0.90026 0.90873 0.6623 0.0
H2079 H 0.89327 0.92181 0.7165 0.0
C2080 C 0.68959 0.63676 0.19306 0.0
C2081 C 0.69207 0.64824 0.2329 0.0
C2082 C 0.68593 0.63705 0.11582 0.0
C2083 C 0.68509 0.64909 0.07754 0.0
C2084 C 0.68744 0.66071 0.1181 0.0
C2085 C 0.69073 0.66014 0.19579 0.0
C2086 C 0.68329 0.62448 0.07472 0.0
C2087 C 0.6869 0.67372 0.07887 0.0
C2088 C 0.69104 0.65056 0.86416 0.0
C2089 C 0.67855 0.65272 0.83564 0.0
C2090 C 0.69322 0.64894 0.94265 0.0
C2091 C 0.68266 0.64955 0.99394 0.0
C2092 C 0.66997 0.6513 0.96545 0.0
C2093 C 0.66807 0.65294 0.8865 0.0
C2094 C 0.70693 0.64717 0.97068 0.0
C2095 C 0.65845 0.65169 0.01847 0.0
H2096 H 0.69044 0.62759 0.22269 0.0
H2097 H 0.69268 0.66896 0.22728 0.0
H2098 H 0.67388 0.62496 0.0444 0.0
H2099 H 0.69088 0.6228 0.03091 0.0
H2100 H 0.68316 0.61608 0.11443 0.0
H2101 H 0.68854 0.68185 0.11928 0.0
H2102 H 0.69437 0.67415 0.03338 0.0
H2103 H 0.67737 0.67508 0.05086 0.0
H2104 H 0.69922 0.65058 0.82538 0.0
H2105 H 0.65839 0.65442 0.86446 0.0
H2106 H 0.70748 0.63968 0.01598 0.0
H2107 H 0.71042 0.6564 0.99561 0.0
H2108 H 0.71352 0.64432 0.92361 0.0
H2109 H 0.65839 0.64301 0.05582 0.0
H2110 H 0.64915 0.65214 0.98677 0.0
H2111 H 0.65913 0.66027 0.05633 0.0
C2112 C 0.601 0.44283 0.01874 0.0
C2113 C 0.5926 0.43333 0.99029 0.0
C2114 C 0.60125 0.44589 0.09682 0.0
C2115 C 0.59276 0.43941 0.14742 0.0
C2116 C 0.58433 0.42972 0.11916 0.0
C2117 C 0.58443 0.42672 0.04083 0.0
C2118 C 0.6105 0.45613 0.12509 0.0
C2119 C 0.57503 0.42274 0.17138 0.0
C2120 C 0.60035 0.43988 0.35968 0.0
C2121 C 0.59229 0.44986 0.3857 0.0
C2122 C 0.60063 0.43639 0.28222 0.0
C2123 C 0.59255 0.44298 0.22969 0.0
C2124 C 0.58442 0.45309 0.25559 0.0
C2125 C 0.58442 0.45645 0.33339 0.0
C2126 C 0.60956 0.42568 0.25661 0.0
C2127 C 0.57541 0.46014 0.2018 0.0
H2128 H 0.60742 0.44784 0.97973 0.0
H2129 H 0.57785 0.41948 0.01863 0.0
H2130 H 0.60503 0.46414 0.15231 0.0
H2131 H 0.61699 0.452 0.16938 0.0
H2132 H 0.61653 0.46017 0.07827 0.0
H2133 H 0.56936 0.41522 0.14074 0.0
H2134 H 0.58038 0.41807 0.219 0.0
H2135 H 0.56822 0.42978 0.19721 0.0
H2136 H 0.60655 0.43489 0.40004 0.0
H2137 H 0.57804 0.46401 0.3537 0.0
H2138 H 0.61638 0.42938 0.21278 0.0
H2139 H 0.60388 0.4178 0.22963 0.0
H2140 H 0.61523 0.42155 0.30478 0.0
H2141 H 0.58026 0.46236 0.14677 0.0
H2142 H 0.57176 0.4693 0.22704 0.0
H2143 H 0.567 0.45384 0.18885 0.0
C2144 C 0.79445 0.33606 0.60464 0.0
C2145 C 0.80107 0.34386 0.65716 0.0
C2146 C 0.79791 0.33596 0.52702 0.0
C2147 C 0.80819 0.34392 0.50141 0.0
C2148 C 0.81485 0.35189 0.55418 0.0
C2149 C 0.81123 0.35173 0.63148 0.0
C2150 C 0.79081 0.32693 0.47365 0.0
C2151 C 0.82584 0.36052 0.52909 0.0
C2152 C 0.82416 0.33508 0.31285 0.0
C2153 C 0.81795 0.34352 0.26192 0.0
C2154 C 0.82122 0.33521 0.39126 0.0
C2155 C 0.81189 0.34404 0.41928 0.0
C2156 C 0.80576 0.35275 0.36842 0.0
C2157 C 0.80888 0.35239 0.29042 0.0
C2158 C 0.82782 0.32568 0.44378 0.0
C2159 C 0.79571 0.36224 0.39618 0.0
H2160 H 0.78678 0.32978 0.62464 0.0
H2161 H 0.81628 0.35785 0.67198 0.0
H2162 H 0.79015 0.33085 0.41476 0.0
H2163 H 0.79614 0.31763 0.47068 0.0
H2164 H 0.78088 0.32485 0.49468 0.0
H2165 H 0.83008 0.36607 0.57746 0.0
H2166 H 0.83359 0.35462 0.50241 0.0
H2167 H 0.82239 0.36745 0.48514 0.0
H2168 H 0.83103 0.32809 0.29107 0.0
H2169 H 0.80417 0.35906 0.25154 0.0
H2170 H 0.82053 0.31893 0.4678 0.0
H2171 H 0.83236 0.33083 0.4926 0.0
H2172 H 0.83536 0.31995 0.41383 0.0
H2173 H 0.7876 0.35696 0.42371 0.0
H2174 H 0.79176 0.36828 0.34906 0.0
H2175 H 0.79997 0.36871 0.44011 0.0
C2176 C 0.90295 0.56357 0.88054 0.0
C2177 C 0.90441 0.55069 0.9039 0.0
C2178 C 0.90355 0.56695 0.80277 0.0
C2179 C 0.90597 0.55724 0.74744 0.0
C2180 C 0.90742 0.54421 0.77097 0.0
C2181 C 0.90648 0.54108 0.84886 0.0
C2182 C 0.90162 0.5809 0.77982 0.0
C2183 C 0.91026 0.53362 0.71409 0.0
C2184 C 0.89828 0.56276 0.53709 0.0
C2185 C 0.91039 0.56634 0.50801 0.0
C2186 C 0.89661 0.56007 0.61525 0.0
C2187 C 0.90738 0.56073 0.66518 0.0
C2188 C 0.91964 0.56437 0.63607 0.0
C2189 C 0.92096 0.56725 0.55797 0.0
C2190 C 0.88335 0.55639 0.64419 0.0
C2191 C 0.93143 0.56488 0.68701 0.0
H2192 H 0.90114 0.57097 0.92314 0.0
H2193 H 0.90769 0.53114 0.86721 0.0
H2194 H 0.91054 0.58467 0.75262 0.0
H2195 H 0.89374 0.58162 0.73687 0.0
H2196 H 0.89917 0.58715 0.82943 0.0
H2197 H 0.91122 0.52399 0.74171 0.0
H2198 H 0.90244 0.5331 0.67082 0.0
H2199 H 0.91937 0.53585 0.68323 0.0
H2200 H 0.8901 0.56211 0.49854 0.0
H2201 H 0.93038 0.56978 0.5354 0.0
H2202 H 0.88064 0.56259 0.69345 0.0
H2203 H 0.88345 0.54624 0.66476 0.0
H2204 H 0.87581 0.5573 0.5992 0.0
H2205 H 0.92977 0.57167 0.73515 0.0
H2206 H 0.94023 0.56799 0.65558 0.0
H2207 H 0.93323 0.55519 0.71219 0.0
C2208 C 0.68889 0.34815 0.82533 0.0
C2209 C 0.70176 0.34677 0.80166 0.0
C2210 C 0.68555 0.34752 0.90313 0.0
C2211 C 0.6953 0.34518 0.95842 0.0
C2212 C 0.70834 0.34381 0.93477 0.0
C2213 C 0.71142 0.34476 0.85666 0.0
C2214 C 0.6716 0.34936 0.92617 0.0
C2215 C 0.71899 0.3411 0.99175 0.0
C2216 C 0.68919 0.35324 0.16778 0.0
C2217 C 0.68555 0.34117 0.1974 0.0
C2218 C 0.69223 0.35474 0.08993 0.0
C2219 C 0.69181 0.34386 0.04077 0.0
C2220 C 0.68813 0.33165 0.07038 0.0
C2221 C 0.68495 0.33048 0.14818 0.0
C2222 C 0.69596 0.36795 0.06046 0.0
C2223 C 0.68783 0.31976 0.02024 0.0
H2224 H 0.68145 0.34992 0.78291 0.0
H2225 H 0.72136 0.34362 0.83817 0.0
H2226 H 0.66791 0.34044 0.95389 0.0
H2227 H 0.67082 0.35729 0.96871 0.0
H2228 H 0.66529 0.35168 0.87654 0.0
H2229 H 0.72864 0.34042 0.96415 0.0
H2230 H 0.71933 0.34883 0.03569 0.0
H2231 H 0.717 0.33187 0.02203 0.0
H2232 H 0.68963 0.36152 0.20566 0.0
H2233 H 0.68239 0.32109 0.17109 0.0
H2234 H 0.68971 0.37066 0.01134 0.0
H2235 H 0.70608 0.36778 0.03949 0.0
H2236 H 0.69513 0.37554 0.10521 0.0
H2237 H 0.68104 0.32124 0.97188 0.0
H2238 H 0.68483 0.31097 0.05219 0.0
H2239 H 0.69755 0.31805 0.99536 0.0
C2240 C 0.90374 0.43731 0.09978 0.0
C2241 C 0.90526 0.4502 0.07662 0.0
C2242 C 0.90425 0.4339 0.17754 0.0
C2243 C 0.90664 0.44359 0.23308 0.0
C2244 C 0.90814 0.45663 0.20973 0.0
C2245 C 0.90728 0.45979 0.13183 0.0
C2246 C 0.90225 0.41996 0.20025 0.0
C2247 C 0.91093 0.4672 0.26684 0.0
C2248 C 0.89874 0.43802 0.4431 0.0
C2249 C 0.91081 0.43437 0.47253 0.0
C2250 C 0.89715 0.44075 0.36492 0.0
C2251 C 0.90797 0.44008 0.31536 0.0
C2252 C 0.92018 0.43638 0.34485 0.0
C2253 C 0.92142 0.43345 0.42293 0.0
C2254 C 0.88393 0.44448 0.33556 0.0
C2255 C 0.93202 0.43586 0.29433 0.0
H2256 H 0.90196 0.42993 0.05702 0.0
H2257 H 0.90851 0.46973 0.11361 0.0
H2258 H 0.91115 0.41614 0.22756 0.0
H2259 H 0.89436 0.41925 0.24304 0.0
H2260 H 0.8998 0.41373 0.1505 0.0
H2261 H 0.91196 0.47683 0.23931 0.0
H2262 H 0.90305 0.46773 0.30969 0.0
H2263 H 0.91999 0.46494 0.29816 0.0
H2264 H 0.89053 0.43868 0.48139 0.0
H2265 H 0.93081 0.43088 0.4458 0.0
H2266 H 0.88124 0.43831 0.28608 0.0
H2267 H 0.88407 0.45464 0.31519 0.0
H2268 H 0.87635 0.44356 0.38026 0.0
H2269 H 0.93039 0.42909 0.24609 0.0
H2270 H 0.94079 0.43274 0.32607 0.0
H2271 H 0.93386 0.44556 0.2693 0.0
C2272 C 0.80526 0.66802 0.38169 0.0
C2273 C 0.79969 0.65635 0.35705 0.0
C2274 C 0.80882 0.66988 0.45844 0.0
C2275 C 0.80656 0.65991 0.51221 0.0
C2276 C 0.8007 0.64822 0.48833 0.0
C2277 C 0.79744 0.64655 0.41111 0.0
C2278 C 0.81496 0.68252 0.48208 0.0
C2279 C 0.79794 0.63744 0.5444 0.0
C2280 C 0.82502 0.65797 0.69964 0.0
C2281 C 0.81572 0.66241 0.75174 0.0
C2282 C 0.82233 0.65751 0.62091 0.0
C2283 C 0.81011 0.66168 0.5939 0.0
C2284 C 0.80094 0.66675 0.64588 0.0
C2285 C 0.80382 0.66698 0.72421 0.0
C2286 C 0.83239 0.65214 0.567 0.0
C2287 C 0.78786 0.67145 0.6194 0.0
H2288 H 0.80683 0.67577 0.34107 0.0
H2289 H 0.79332 0.63742 0.39323 0.0
H2290 H 0.80888 0.68735 0.52586 0.0
H2291 H 0.82454 0.68067 0.50854 0.0
H2292 H 0.81627 0.68922 0.43301 0.0
H2293 H 0.7933 0.62896 0.51667 0.0
H2294 H 0.80706 0.63423 0.57192 0.0
H2295 H 0.79146 0.641 0.59047 0.0
H2296 H 0.83419 0.65439 0.72075 0.0
H2297 H 0.7967 0.67065 0.76413 0.0
H2298 H 0.83409 0.65896 0.51903 0.0
H2299 H 0.82885 0.64294 0.54183 0.0
H2300 H 0.84175 0.65024 0.59619 0.0
H2301 H 0.78869 0.6773 0.56641 0.0
H2302 H 0.78299 0.67741 0.66377 0.0
H2303 H 0.78165 0.66299 0.60618 0.0
C2304 C 0.60503 0.56397 0.5505 0.0
C2305 C 0.60279 0.55122 0.52677 0.0
C2306 C 0.60445 0.56735 0.62829 0.0
C2307 C 0.6013 0.5578 0.68333 0.0
C2308 C 0.59916 0.54487 0.65963 0.0
C2309 C 0.60004 0.54173 0.58167 0.0
C2310 C 0.60711 0.58117 0.65148 0.0
C2311 C 0.59561 0.53442 0.71635 0.0
C2312 C 0.60829 0.56288 0.89493 0.0
C2313 C 0.59618 0.56684 0.92243 0.0
C2314 C 0.61021 0.56021 0.81693 0.0
C2315 C 0.5997 0.56137 0.76534 0.0
C2316 C 0.58749 0.56551 0.79262 0.0
C2317 C 0.5859 0.56827 0.87069 0.0
C2318 C 0.6234 0.55593 0.79001 0.0
C2319 C 0.576 0.56667 0.7397 0.0
H2320 H 0.60736 0.57126 0.50815 0.0
H2321 H 0.59822 0.53189 0.56319 0.0
H2322 H 0.59824 0.58551 0.67627 0.0
H2323 H 0.6147 0.58145 0.69638 0.0
H2324 H 0.6103 0.58721 0.60241 0.0
H2325 H 0.5946 0.52478 0.68888 0.0
H2326 H 0.60307 0.53374 0.76183 0.0
H2327 H 0.58633 0.53689 0.74467 0.0
H2328 H 0.61628 0.56187 0.93456 0.0
H2329 H 0.57647 0.5711 0.89169 0.0
H2330 H 0.62663 0.562 0.74126 0.0
H2331 H 0.62291 0.5458 0.76933 0.0
H2332 H 0.63077 0.55648 0.83617 0.0
H2333 H 0.57826 0.57334 0.69184 0.0
H2334 H 0.56723 0.57027 0.76963 0.0
H2335 H 0.57378 0.55708 0.71429 0.0
C2336 C 0.31664 0.35649 0.79204 0.0
C2337 C 0.30656 0.34829 0.76867 0.0
C2338 C 0.32021 0.35744 0.86949 0.0
C2339 C 0.31351 0.35004 0.92499 0.0
C2340 C 0.30308 0.34205 0.9021 0.0
C2341 C 0.29977 0.34125 0.82439 0.0
C2342 C 0.33134 0.36612 0.89161 0.0
C2343 C 0.29565 0.33405 0.95952 0.0
C2344 C 0.32979 0.33972 0.10986 0.0
C2345 C 0.32404 0.34798 0.16394 0.0
C2346 C 0.32683 0.34065 0.03167 0.0
C2347 C 0.3178 0.35001 0.00642 0.0
C2348 C 0.31226 0.35866 0.05989 0.0
C2349 C 0.31551 0.35761 0.13776 0.0
C2350 C 0.33299 0.33126 0.97643 0.0
C2351 C 0.30255 0.36875 0.03525 0.0
H2352 H 0.32179 0.36215 0.74976 0.0
H2353 H 0.29207 0.33478 0.80717 0.0
H2354 H 0.3284 0.37276 0.93828 0.0
H2355 H 0.33946 0.36016 0.91361 0.0
H2356 H 0.33491 0.37196 0.8426 0.0
H2357 H 0.28734 0.32889 0.93309 0.0
H2358 H 0.30217 0.32679 0.98591 0.0
H2359 H 0.29195 0.3403 0.00627 0.0
H2360 H 0.33629 0.33216 0.12847 0.0
H2361 H 0.31117 0.36424 0.1781 0.0
H2362 H 0.33746 0.33655 0.92793 0.0
H2363 H 0.32548 0.32478 0.95224 0.0
H2364 H 0.34053 0.3252 0.00416 0.0
H2365 H 0.30652 0.37463 0.9876 0.0
H2366 H 0.2998 0.37532 0.08285 0.0
H2367 H 0.29368 0.36393 0.0137 0.0
C2368 C 0.4209 0.55952 0.61654 0.0
C2369 C 0.40933 0.55381 0.59138 0.0
C2370 C 0.42257 0.56316 0.69327 0.0
C2371 C 0.41251 0.56088 0.74636 0.0
C2372 C 0.40088 0.55498 0.72177 0.0
C2373 C 0.39941 0.55159 0.64462 0.0
C2374 C 0.43513 0.56939 0.71761 0.0
C2375 C 0.38998 0.55226 0.77704 0.0
C2376 C 0.41936 0.55787 0.95838 0.0
C2377 C 0.41485 0.56976 0.98619 0.0
C2378 C 0.41916 0.55507 0.87998 0.0
C2379 C 0.41417 0.56433 0.82824 0.0
C2380 C 0.41002 0.57654 0.8556 0.0
C2381 C 0.41047 0.57914 0.93443 0.0
C2382 C 0.42387 0.54203 0.85294 0.0
C2383 C 0.4047 0.58667 0.80195 0.0
H2384 H 0.4287 0.56109 0.57632 0.0
H2385 H 0.39036 0.54738 0.62604 0.0
H2386 H 0.43319 0.57894 0.74412 0.0
H2387 H 0.43996 0.56333 0.76153 0.0
H2388 H 0.44189 0.57077 0.66889 0.0
H2389 H 0.38151 0.54771 0.74862 0.0
H2390 H 0.3934 0.54571 0.82316 0.0
H2391 H 0.38678 0.56138 0.80462 0.0
H2392 H 0.42299 0.5507 0.99818 0.0
H2393 H 0.40695 0.58831 0.95592 0.0
H2394 H 0.43043 0.54309 0.80314 0.0
H2395 H 0.41548 0.53615 0.83399 0.0
H2396 H 0.42908 0.5367 0.89869 0.0
H2397 H 0.41157 0.58843 0.75432 0.0
H2398 H 0.40278 0.59599 0.8315 0.0
H2399 H 0.39553 0.58316 0.77627 0.0
C2400 C 0.18258 0.67022 0.62367 0.0
C2401 C 0.18343 0.65981 0.67488 0.0
C2402 C 0.18534 0.66861 0.54562 0.0
C2403 C 0.18889 0.65625 0.51784 0.0
C2404 C 0.18949 0.64563 0.56891 0.0
C2405 C 0.18683 0.64756 0.64691 0.0
C2406 C 0.1848 0.68022 0.49329 0.0
C2407 C 0.19313 0.63227 0.5414 0.0
C2408 C 0.18598 0.65121 0.30293 0.0
C2409 C 0.19883 0.65276 0.27917 0.0
C2410 C 0.18264 0.65195 0.38073 0.0
C2411 C 0.19236 0.65457 0.43575 0.0
C2412 C 0.20538 0.65605 0.412 0.0
C2413 C 0.20846 0.65501 0.33402 0.0
C2414 C 0.16871 0.65002 0.40398 0.0
C2415 C 0.216 0.65905 0.4687 0.0
H2416 H 0.1802 0.67975 0.64509 0.0
H2417 H 0.18741 0.63947 0.68617 0.0
H2418 H 0.19449 0.68197 0.46799 0.0
H2419 H 0.17802 0.67838 0.4453 0.0
H2420 H 0.18167 0.68913 0.52364 0.0
H2421 H 0.19229 0.62489 0.58733 0.0
H2422 H 0.18685 0.62938 0.4928 0.0
H2423 H 0.20324 0.63231 0.52028 0.0
H2424 H 0.17857 0.64927 0.26062 0.0
H2425 H 0.21837 0.65631 0.31549 0.0
H2426 H 0.16488 0.65905 0.42969 0.0
H2427 H 0.16803 0.64235 0.4482 0.0
H2428 H 0.16247 0.64731 0.35478 0.0
H2429 H 0.2141 0.66853 0.49618 0.0
H2430 H 0.22569 0.65938 0.4414 0.0
H2431 H 0.21616 0.65168 0.51478 0.0
C2432 C 0.11271 0.44223 0.07046 0.0
C2433 C 0.10174 0.44489 0.02619 0.0
C2434 C 0.11154 0.43903 0.14804 0.0
C2435 C 0.09912 0.43872 0.18196 0.0
C2436 C 0.08801 0.44144 0.13743 0.0
C2437 C 0.08946 0.44438 0.05968 0.0
C2438 C 0.12358 0.43609 0.19382 0.0
C2439 C 0.07464 0.44143 0.17212 0.0
C2440 C 0.09395 0.42107 0.36965 0.0
C2441 C 0.09446 0.43131 0.42207 0.0
C2442 C 0.09565 0.4233 0.29112 0.0
C2443 C 0.09777 0.43607 0.26483 0.0
C2444 C 0.09837 0.44642 0.31758 0.0
C2445 C 0.09669 0.44391 0.3956 0.0
C2446 C 0.09516 0.41202 0.23634 0.0
C2447 C 0.10045 0.4602 0.29164 0.0
H2448 H 0.12218 0.44243 0.04393 0.0
H2449 H 0.08103 0.4465 0.02506 0.0
H2450 H 0.12474 0.44335 0.24007 0.0
H2451 H 0.12269 0.42648 0.22155 0.0
H2452 H 0.13244 0.43615 0.1579 0.0
H2453 H 0.067 0.44353 0.12917 0.0
H2454 H 0.07259 0.4319 0.19867 0.0
H2455 H 0.07409 0.4488 0.21815 0.0
H2456 H 0.09235 0.41132 0.39026 0.0
H2457 H 0.09683 0.45188 0.43582 0.0
H2458 H 0.10425 0.41157 0.20262 0.0
H2459 H 0.08711 0.41335 0.19515 0.0
H2460 H 0.0938 0.40264 0.26631 0.0
H2461 H 0.10853 0.46082 0.25005 0.0
H2462 H 0.10263 0.46672 0.34032 0.0
H2463 H 0.0916 0.46375 0.26254 0.0
C2464 C 0.31144 0.6527 0.1115 0.0
C2465 C 0.30088 0.65999 0.13724 0.0
C2466 C 0.3151 0.6528 0.03421 0.0
C2467 C 0.30804 0.66043 0.98149 0.0
C2468 C 0.29734 0.6678 0.00713 0.0
C2469 C 0.29388 0.66747 0.08472 0.0
C2470 C 0.32658 0.64483 0.00909 0.0
C2471 C 0.28976 0.67644 0.95372 0.0
C2472 C 0.32339 0.67051 0.79322 0.0
C2473 C 0.3177 0.66177 0.74183 0.0
C2474 C 0.32053 0.67003 0.87171 0.0
C2475 C 0.31177 0.6606 0.89937 0.0
C2476 C 0.30619 0.6516 0.84808 0.0
C2477 C 0.30928 0.65226 0.77008 0.0
C2478 C 0.32658 0.67985 0.9247 0.0
C2479 C 0.29677 0.64144 0.8754 0.0
H2480 H 0.31681 0.64683 0.15191 0.0
H2481 H 0.28588 0.67333 0.10466 0.0
H2482 H 0.32355 0.63775 0.9649 0.0
H2483 H 0.33399 0.65119 0.98272 0.0
H2484 H 0.3311 0.63949 0.0574 0.0
H2485 H 0.27985 0.67827 0.97563 0.0
H2486 H 0.29479 0.68589 0.94897 0.0
H2487 H 0.28904 0.67229 0.89538 0.0
H2488 H 0.32978 0.67798 0.77183 0.0
H2489 H 0.30501 0.64533 0.73102 0.0
H2490 H 0.33136 0.6749 0.97348 0.0
H2491 H 0.31894 0.68619 0.94874 0.0
H2492 H 0.33383 0.686 0.89511 0.0
H2493 H 0.30167 0.63482 0.9161 0.0
H2494 H 0.29274 0.63562 0.82754 0.0
H2495 H 0.28865 0.64607 0.90661 0.0
C2496 C 0.08871 0.55678 0.899 0.0
C2497 C 0.10096 0.55592 0.93263 0.0
C2498 C 0.08736 0.5598 0.82129 0.0
C2499 C 0.09854 0.56227 0.77695 0.0
C2500 C 0.11094 0.56165 0.81109 0.0
C2501 C 0.11201 0.55836 0.88859 0.0
C2502 C 0.074 0.56015 0.78639 0.0
C2503 C 0.12306 0.56434 0.76559 0.0
C2504 C 0.09615 0.55707 0.56328 0.0
C2505 C 0.09422 0.56971 0.53658 0.0
C2506 C 0.0977 0.55455 0.6414 0.0
C2507 C 0.09729 0.56492 0.69402 0.0
C2508 C 0.09548 0.57773 0.66749 0.0
C2509 C 0.09389 0.57997 0.58886 0.0
C2510 C 0.09945 0.54074 0.66764 0.0
C2511 C 0.09521 0.58904 0.72211 0.0
H2512 H 0.08022 0.55483 0.93345 0.0
H2513 H 0.12146 0.55791 0.91524 0.0
H2514 H 0.0722 0.56972 0.75977 0.0
H2515 H 0.07328 0.55279 0.74039 0.0
H2516 H 0.06629 0.55825 0.82924 0.0
H2517 H 0.1319 0.5641 0.80173 0.0
H2518 H 0.1241 0.55705 0.71942 0.0
H2519 H 0.12238 0.57396 0.73776 0.0
H2520 H 0.09616 0.54908 0.52315 0.0
H2521 H 0.09251 0.58974 0.56807 0.0
H2522 H 0.09062 0.5375 0.6982 0.0
H2523 H 0.10767 0.53993 0.70811 0.0
H2524 H 0.10122 0.53409 0.619 0.0
H2525 H 0.0871 0.5879 0.7631 0.0
H2526 H 0.09408 0.59844 0.69198 0.0
H2527 H 0.10428 0.5893 0.75607 0.0
C2528 C 0.16779 0.35117 0.39692 0.0
C2529 C 0.1779 0.35117 0.34326 0.0
C2530 C 0.1703 0.35169 0.47579 0.0
C2531 C 0.18324 0.35242 0.50174 0.0
C2532 C 0.19338 0.35372 0.44795 0.0
C2533 C 0.19062 0.35296 0.36941 0.0
C2534 C 0.15918 0.35046 0.53129 0.0
C2535 C 0.20728 0.35497 0.47321 0.0
C2536 C 0.18971 0.35656 0.71533 0.0
C2537 C 0.19215 0.34374 0.73729 0.0
C2538 C 0.18695 0.35967 0.63863 0.0
C2539 C 0.1863 0.34966 0.58334 0.0
C2540 C 0.18858 0.33669 0.60572 0.0
C2541 C 0.19153 0.33392 0.68213 0.0
C2542 C 0.18464 0.37363 0.61734 0.0
C2543 C 0.18782 0.32568 0.54898 0.0
H2544 H 0.15789 0.35024 0.37747 0.0
H2545 H 0.19856 0.35305 0.3291 0.0
H2546 H 0.15963 0.34089 0.55995 0.0
H2547 H 0.15989 0.35796 0.57647 0.0
H2548 H 0.14965 0.35137 0.50247 0.0
H2549 H 0.2135 0.35865 0.42628 0.0
H2550 H 0.20813 0.36159 0.52296 0.0
H2551 H 0.21096 0.34535 0.49102 0.0
H2552 H 0.19017 0.36416 0.75792 0.0
H2553 H 0.19311 0.32397 0.69907 0.0
H2554 H 0.17408 0.37539 0.61309 0.0
H2555 H 0.18901 0.37596 0.56103 0.0
H2556 H 0.18865 0.38033 0.661 0.0
H2557 H 0.17813 0.3255 0.52167 0.0
H2558 H 0.1896 0.31613 0.57607 0.0
H2559 H 0.19507 0.32712 0.50291 0.0
C2560 C 0.40664 0.44509 0.11108 0.0
C2561 C 0.4093 0.43261 0.08397 0.0
C2562 C 0.40488 0.44742 0.18923 0.0
C2563 C 0.40587 0.43703 0.24148 0.0
C2564 C 0.40842 0.42438 0.21457 0.0
C2565 C 0.41016 0.42232 0.13592 0.0
C2566 C 0.40231 0.46108 0.21585 0.0
C2567 C 0.40934 0.41305 0.26884 0.0
C2568 C 0.41403 0.44565 0.44632 0.0
C2569 C 0.40176 0.44579 0.48 0.0
C2570 C 0.41554 0.44267 0.36868 0.0
C2571 C 0.4045 0.43953 0.32447 0.0
C2572 C 0.3921 0.43941 0.35869 0.0
C2573 C 0.39087 0.44267 0.43614 0.0
C2574 C 0.42888 0.44312 0.33366 0.0
C2575 C 0.38014 0.43604 0.31325 0.0
H2576 H 0.40621 0.45311 0.07129 0.0
H2577 H 0.41208 0.41266 0.11487 0.0
H2578 H 0.39438 0.46135 0.25854 0.0
H2579 H 0.41112 0.46499 0.24375 0.0
H2580 H 0.39966 0.46752 0.16765 0.0
H2581 H 0.41099 0.40376 0.23841 0.0
H2582 H 0.41738 0.41461 0.30986 0.0
H2583 H 0.4003 0.41224 0.30279 0.0
H2584 H 0.4224 0.44812 0.48067 0.0
H2585 H 0.38141 0.44257 0.46286 0.0
H2586 H 0.42917 0.45059 0.28807 0.0
H2587 H 0.4312 0.43371 0.30649 0.0
H2588 H 0.43649 0.44538 0.37654 0.0
H2589 H 0.37863 0.44333 0.26748 0.0
H2590 H 0.37133 0.43568 0.34953 0.0
H2591 H 0.3814 0.42652 0.28491 0.0
C2592 C 0.25728 0.15176 0.41262 0.0
C2593 C 0.2706 0.14984 0.40252 0.0
C2594 C 0.24845 0.14891 0.35404 0.0
C2595 C 0.25302 0.14411 0.28312 0.0
C2596 C 0.2664 0.1417 0.27336 0.0
C2597 C 0.27502 0.14448 0.33344 0.0
C2598 C 0.23427 0.15161 0.36711 0.0
C2599 C 0.27168 0.13667 0.1985 0.0
C2600 C 0.22708 0.12997 0.15326 0.0
C2601 C 0.22387 0.14071 0.10804 0.0
C2602 C 0.23698 0.13072 0.20835 0.0
C2603 C 0.24383 0.14247 0.21812 0.0
C2604 C 0.24109 0.15311 0.16972 0.0
C2605 C 0.23115 0.15209 0.11536 0.0
C2606 C 0.2396 0.11918 0.25891 0.0
C2607 C 0.24819 0.1658 0.17788 0.0
H2608 H 0.25374 0.15582 0.46582 0.0
H2609 H 0.28526 0.1428 0.32526 0.0
H2610 H 0.23134 0.16023 0.33346 0.0
H2611 H 0.22826 0.14337 0.34743 0.0
H2612 H 0.23211 0.15347 0.42838 0.0
H2613 H 0.28218 0.13449 0.20175 0.0
H2614 H 0.26644 0.12777 0.18118 0.0
H2615 H 0.27013 0.14396 0.15285 0.0
H2616 H 0.22149 0.12114 0.14812 0.0
H2617 H 0.22886 0.16039 0.07994 0.0
H2618 H 0.23632 0.12132 0.31803 0.0
H2619 H 0.25013 0.11717 0.26159 0.0
H2620 H 0.23453 0.11036 0.23855 0.0
H2621 H 0.24549 0.17041 0.23294 0.0
H2622 H 0.2459 0.17263 0.1307 0.0
H2623 H 0.25879 0.16417 0.179 0.0
C2624 C 0.10523 0.02404 0.61931 0.0
C2625 C 0.097 0.01984 0.67824 0.0
C2626 C 0.10832 0.01592 0.55741 0.0
C2627 C 0.10329 0.00319 0.55523 0.0
C2628 C 0.09529 0.99878 0.61556 0.0
C2629 C 0.09226 0.00713 0.67622 0.0
C2630 C 0.1167 0.02106 0.49354 0.0
C2631 C 0.08977 0.98525 0.61563 0.0
C2632 C 0.09907 0.98409 0.37148 0.0
C2633 C 0.10941 0.97535 0.37573 0.0
C2634 C 0.09742 0.99375 0.42709 0.0
C2635 C 0.10613 0.99445 0.48956 0.0
C2636 C 0.11686 0.98594 0.4926 0.0
C2637 C 0.11845 0.97657 0.43511 0.0
C2638 C 0.08595 0.00273 0.42113 0.0
C2639 C 0.12623 0.98623 0.55881 0.0
H2640 H 0.10912 0.03375 0.62073 0.0
H2641 H 0.08595 0.00374 0.72151 0.0
H2642 H 0.12545 0.01493 0.48725 0.0
H2643 H 0.11136 0.02062 0.43852 0.0
H2644 H 0.11978 0.03122 0.50355 0.0
H2645 H 0.08296 0.98368 0.66388 0.0
H2646 H 0.08454 0.98333 0.56136 0.0
H2647 H 0.09774 0.97811 0.61983 0.0
H2648 H 0.09207 0.98316 0.32554 0.0
H2649 H 0.12637 0.96974 0.43912 0.0
H2650 H 0.08895 0.01289 0.4313 0.0
H2651 H 0.07875 1.00018 0.46574 0.0
H2652 H 0.08117 0.00212 0.36429 0.0
H2653 H 0.12981 0.99622 0.5684 0.0
H2654 H 0.13466 0.97975 0.54944 0.0
H2655 H 0.12121 0.98313 0.61185 0.0
C2656 C 0.26215 0.84344 0.59971 0.0
C2657 C 0.27329 0.85109 0.59306 0.0
C2658 C 0.25407 0.84437 0.66381 0.0
C2659 C 0.25709 0.8533 0.72261 0.0
C2660 C 0.26809 0.86137 0.71522 0.0
C2661 C 0.2761 0.86014 0.65056 0.0
C2662 C 0.2428 0.83512 0.67017 0.0
C2663 C 0.27165 0.87097 0.77683 0.0
C2664 C 0.22902 0.85981 0.85712 0.0
C2665 C 0.23152 0.85094 0.91606 0.0
C2666 C 0.23768 0.86129 0.7958 0.0
C2667 C 0.24903 0.85362 0.79312 0.0
C2668 C 0.25188 0.8451 0.85426 0.0
C2669 C 0.24315 0.84396 0.91532 0.0
C2670 C 0.23448 0.87076 0.73281 0.0
C2671 C 0.26372 0.83656 0.85286 0.0
H2672 H 0.25997 0.83628 0.55624 0.0
H2673 H 0.28469 0.86609 0.64585 0.0
H2674 H 0.2459 0.82649 0.7032 0.0
H2675 H 0.23446 0.83948 0.70056 0.0
H2676 H 0.2395 0.83178 0.61294 0.0
H2677 H 0.28018 0.87692 0.76094 0.0
H2678 H 0.26335 0.87748 0.78851 0.0
H2679 H 0.27386 0.86577 0.83082 0.0
H2680 H 0.22012 0.86536 0.85792 0.0
H2681 H 0.24515 0.83706 0.96049 0.0
H2682 H 0.23566 0.86622 0.67575 0.0
H2683 H 0.24129 0.87903 0.73565 0.0
H2684 H 0.22445 0.87454 0.73762 0.0
H2685 H 0.26256 0.82908 0.80783 0.0
H2686 H 0.26534 0.8316 0.90843 0.0
H2687 H 0.27246 0.84228 0.83841 0.0
C2688 C 0.4 0.97474 0.00326 0.0
C2689 C 0.39188 0.97422 0.06754 0.0
C2690 C 0.39952 0.98518 0.95212 0.0
C2691 C 0.3908 0.99547 0.96587 0.0
C2692 C 0.3824 0.99492 0.02988 0.0
C2693 C 0.383 0.98426 0.07979 0.0
C2694 C 0.40855 0.98531 0.88418 0.0
C2695 C 0.37302 0.00574 0.04662 0.0
C2696 C 0.40076 0.02784 0.88261 0.0
C2697 C 0.39322 0.02856 0.81591 0.0
C2698 C 0.39975 0.01734 0.93293 0.0
C2699 C 0.3911 0.00713 0.91583 0.0
C2700 C 0.3833 0.00785 0.84927 0.0
C2701 C 0.38439 0.0186 0.80026 0.0
C2702 C 0.40815 0.01706 0.00372 0.0
C2703 C 0.37401 0.99711 0.82897 0.0
H2704 H 0.4068 0.96697 0.99267 0.0
H2705 H 0.37667 0.98392 0.1292 0.0
H2706 H 0.403 0.98677 0.83052 0.0
H2707 H 0.41543 0.9935 0.88953 0.0
H2708 H 0.41419 0.9762 0.87904 0.0
H2709 H 0.36664 0.00351 0.09601 0.0
H2710 H 0.37844 0.01476 0.05935 0.0
H2711 H 0.3669 0.00769 0.99573 0.0
H2712 H 0.40754 0.03549 0.89581 0.0
H2713 H 0.37853 0.01906 0.7489 0.0
H2714 H 0.41498 0.0088 0.00038 0.0
H2715 H 0.4021 0.01562 0.05545 0.0
H2716 H 0.41382 0.02611 0.011 0.0
H2717 H 0.37947 0.98806 0.81798 0.0
H2718 H 0.36815 0.99943 0.77747 0.0
H2719 H 0.36738 0.99519 0.87757 0.0
C2720 C 0.76461 0.84952 0.92673 0.0
C2721 C 0.77374 0.85951 0.92067 0.0
C2722 C 0.75481 0.84801 0.8718 0.0
C2723 C 0.75426 0.85655 0.80849 0.0
C2724 C 0.76307 0.86701 0.80403 0.0
C2725 C 0.77264 0.86843 0.86056 0.0
C2726 C 0.74555 0.83678 0.87919 0.0
C2727 C 0.76284 0.87628 0.73729 0.0
C2728 C 0.74151 0.84247 0.62245 0.0
C2729 C 0.72891 0.84745 0.61932 0.0
C2730 C 0.74983 0.84545 0.68343 0.0
C2731 C 0.74549 0.85367 0.74292 0.0
C2732 C 0.73285 0.8589 0.73976 0.0
C2733 C 0.72474 0.85582 0.67767 0.0
C2734 C 0.7632 0.83958 0.68481 0.0
C2735 C 0.72779 0.86752 0.80274 0.0
H2736 H 0.76537 0.84262 0.97325 0.0
H2737 H 0.77971 0.87612 0.85518 0.0
H2738 H 0.73549 0.8399 0.86721 0.0
H2739 H 0.74809 0.82925 0.83652 0.0
H2740 H 0.7459 0.83235 0.93707 0.0
H2741 H 0.77002 0.8842 0.7437 0.0
H2742 H 0.76495 0.87098 0.68352 0.0
H2743 H 0.75307 0.88058 0.73118 0.0
H2744 H 0.74486 0.83601 0.57782 0.0
H2745 H 0.71508 0.85983 0.67558 0.0
H2746 H 0.76459 0.83389 0.73799 0.0
H2747 H 0.7706 0.84735 0.68464 0.0
H2748 H 0.76491 0.83311 0.63515 0.0
H2749 H 0.72808 0.8623 0.8582 0.0
H2750 H 0.71769 0.87074 0.79205 0.0
H2751 H 0.73405 0.87617 0.80863 0.0
C2752 C 0.89056 0.02601 0.56802 0.0
C2753 C 0.89981 0.02421 0.62579 0.0
C2754 C 0.88958 0.01728 0.50656 0.0
C2755 C 0.89818 0.00664 0.50235 0.0
C2756 C 0.90725 0.00459 0.56181 0.0
C2757 C 0.90786 0.01331 0.62314 0.0
C2758 C 0.87949 0.01959 0.44563 0.0
C2759 C 0.91683 0.99358 0.55859 0.0
C2760 C 0.89341 0.97813 0.3676 0.0
C2761 C 0.90185 0.98131 0.30759 0.0
C2762 C 0.89164 0.98654 0.42995 0.0
C2763 C 0.89861 0.99833 0.43278 0.0
C2764 C 0.90682 0.00176 0.37116 0.0
C2765 C 0.90825 0.99327 0.3092 0.0
C2766 C 0.88277 0.98256 0.49436 0.0
C2767 C 0.91484 0.01398 0.37249 0.0
H2768 H 0.88424 0.03436 0.57017 0.0
H2769 H 0.91512 0.01191 0.66714 0.0
H2770 H 0.88365 0.01839 0.38758 0.0
H2771 H 0.87167 0.01231 0.4519 0.0
H2772 H 0.87513 0.02939 0.44995 0.0
H2773 H 0.92217 0.99239 0.61332 0.0
H2774 H 0.91186 0.98438 0.54469 0.0
H2775 H 0.92395 0.99546 0.51242 0.0
H2776 H 0.88842 0.96891 0.36681 0.0
H2777 H 0.9149 0.99579 0.2636 0.0
H2778 H 0.87606 0.99057 0.5088 0.0
H2779 H 0.88858 0.98045 0.54631 0.0
H2780 H 0.87701 0.97383 0.47986 0.0
H2781 H 0.90962 0.0221 0.40001 0.0
H2782 H 0.91776 0.01698 0.31392 0.0
H2783 H 0.92376 0.01218 0.40616 0.0
C2784 C 0.7215 0.14623 0.33104 0.0
C2785 C 0.72351 0.14376 0.40898 0.0
C2786 C 0.73188 0.14715 0.27993 0.0
C2787 C 0.74468 0.14603 0.30784 0.0
C2788 C 0.74682 0.14332 0.38639 0.0
C2789 C 0.73616 0.142 0.43593 0.0
C2790 C 0.72913 0.14973 0.19635 0.0
C2791 C 0.76033 0.14255 0.41884 0.0
C2792 C 0.77136 0.14206 0.15943 0.0
C2793 C 0.77445 0.15499 0.1444 0.0
C2794 C 0.76183 0.1389 0.21381 0.0
C2795 C 0.7557 0.14891 0.25572 0.0
C2796 C 0.75937 0.16194 0.24324 0.0
C2797 C 0.76852 0.16483 0.18667 0.0
C2798 C 0.75793 0.12494 0.22401 0.0
C2799 C 0.75337 0.17289 0.28822 0.0
H2800 H 0.71177 0.1476 0.30983 0.0
H2801 H 0.73776 0.14026 0.49638 0.0
H2802 H 0.73326 0.1592 0.17928 0.0
H2803 H 0.7338 0.14221 0.16045 0.0
H2804 H 0.71861 0.14985 0.18361 0.0
H2805 H 0.76038 0.13937 0.47958 0.0
H2806 H 0.76635 0.13578 0.38488 0.0
H2807 H 0.76498 0.15221 0.41532 0.0
H2808 H 0.77601 0.13448 0.12655 0.0
H2809 H 0.77112 0.17482 0.17569 0.0
H2810 H 0.74776 0.12365 0.20515 0.0
H2811 H 0.75839 0.12218 0.28528 0.0
H2812 H 0.76417 0.11826 0.19063 0.0
H2813 H 0.74303 0.17391 0.27244 0.0
H2814 H 0.75829 0.18227 0.27744 0.0
H2815 H 0.75379 0.17077 0.35044 0.0
C2816 C 0.60917 0.02652 0.98723 0.0
C2817 C 0.60196 0.02388 0.92094 0.0
C2818 C 0.61148 0.01687 0.04224 0.0
C2819 C 0.60652 0.00426 0.03048 0.0
C2820 C 0.59952 0.00145 0.96282 0.0
C2821 C 0.59734 0.01128 0.90893 0.0
C2822 C 0.61905 0.02021 0.11343 0.0
C2823 C 0.59391 0.98817 0.94846 0.0
C2824 C 0.61906 0.97482 0.13787 0.0
C2825 C 0.60924 0.9729 0.1921 0.0
C2826 C 0.6186 0.98531 0.08676 0.0
C2827 C 0.6081 0.99409 0.09014 0.0
C2828 C 0.59851 0.99255 0.14724 0.0
C2829 C 0.59921 0.98199 0.19751 0.0
C2830 C 0.62899 0.98662 0.02659 0.0
C2831 C 0.58714 0.00166 0.15285 0.0
H2832 H 0.61289 0.03618 0.99672 0.0
H2833 H 0.59174 0.00912 0.85808 0.0
H2834 H 0.61325 0.01801 0.1652 0.0
H2835 H 0.62792 0.01419 0.11628 0.0
H2836 H 0.62189 0.03057 0.11514 0.0
H2837 H 0.58998 0.98717 0.88959 0.0
H2838 H 0.60135 0.9806 0.95751 0.0
H2839 H 0.58599 0.98631 0.98982 0.0
H2840 H 0.62682 0.96782 0.13301 0.0
H2841 H 0.59164 0.98065 0.23963 0.0
H2842 H 0.63284 0.99663 0.02578 0.0
H2843 H 0.62479 0.98467 0.96928 0.0
H2844 H 0.63713 0.97979 0.03617 0.0
H2845 H 0.59048 0.01186 0.15292 0.0
H2846 H 0.58128 0.99995 0.20518 0.0
H2847 H 0.5808 1.00038 0.10214 0.0
C2848 C 0.77244 0.64295 0.8881 0.0
C2849 C 0.7691 0.65081 0.95054 0.0
C2850 C 0.76404 0.64154 0.82529 0.0
C2851 C 0.7521 0.64826 0.82462 0.0
C2852 C 0.74853 0.65588 0.88858 0.0
C2853 C 0.75701 0.65697 0.95085 0.0
C2854 C 0.76824 0.63341 0.75803 0.0
C2855 C 0.73617 0.66368 0.88961 0.0
C2856 C 0.73684 0.65867 0.637 0.0
C2857 C 0.72617 0.65033 0.63188 0.0
C2858 C 0.74557 0.65781 0.69823 0.0
C2859 C 0.74376 0.64823 0.75505 0.0
C2860 C 0.73334 0.6394 0.7484 0.0
C2861 C 0.7246 0.64062 0.68714 0.0
C2862 C 0.75626 0.66769 0.70438 0.0
C2863 C 0.73127 0.62886 0.8069 0.0
H2864 H 0.78177 0.63817 0.88729 0.0
H2865 H 0.75437 0.66318 0.99831 0.0
H2866 H 0.76037 0.62672 0.74079 0.0
H2867 H 0.77031 0.63978 0.70838 0.0
H2868 H 0.77706 0.62767 0.77085 0.0
H2869 H 0.73307 0.66593 0.94901 0.0
H2870 H 0.73785 0.67297 0.85944 0.0
H2871 H 0.72817 0.65863 0.85984 0.0
H2872 H 0.73805 0.6663 0.59507 0.0
H2873 H 0.71641 0.6341 0.6832 0.0
H2874 H 0.76553 0.66301 0.7202 0.0
H2875 H 0.75386 0.6747 0.7503 0.0
H2876 H 0.75763 0.67314 0.65016 0.0
H2877 H 0.73926 0.62173 0.80277 0.0
H2878 H 0.72194 0.62372 0.79844 0.0
H2879 H 0.7315 0.63291 0.86566 0.0
C2880 C 0.60054 0.48289 0.80568 0.0
C2881 C 0.61013 0.47335 0.81216 0.0
C2882 C 0.59966 0.49302 0.85905 0.0
C2883 C 0.60849 0.49353 0.92094 0.0
C2884 C 0.61863 0.48434 0.92535 0.0
C2885 C 0.61938 0.47441 0.87063 0.0
C2886 C 0.58884 0.50274 0.85147 0.0
C2887 C 0.62824 0.48457 0.99042 0.0
C2888 C 0.60959 0.52345 0.04833 0.0
C2889 C 0.60142 0.51977 0.10875 0.0
C2890 C 0.61197 0.51508 0.98644 0.0
C2891 C 0.60623 0.50264 0.98565 0.0
C2892 C 0.59819 0.49879 0.0472 0.0
C2893 C 0.59587 0.50739 0.10774 0.0
C2894 C 0.62047 0.5196 0.92152 0.0
C2895 C 0.59172 0.4857 0.04828 0.0
H2896 H 0.59343 0.48222 0.76022 0.0
H2897 H 0.62682 0.46709 0.8762 0.0
H2898 H 0.58156 0.501 0.89697 0.0
H2899 H 0.59256 0.51272 0.85907 0.0
H2900 H 0.58392 0.50209 0.79504 0.0
H2901 H 0.63566 0.47685 0.98512 0.0
H2902 H 0.63318 0.49408 0.99248 0.0
H2903 H 0.6231 0.48331 0.0457 0.0
H2904 H 0.61401 0.53294 0.0487 0.0
H2905 H 0.58951 0.50444 0.15382 0.0
H2906 H 0.61533 0.51856 0.86614 0.0
H2907 H 0.62927 0.51348 0.91849 0.0
H2908 H 0.62348 0.52986 0.92824 0.0
H2909 H 0.58425 0.48528 0.00276 0.0
H2910 H 0.587 0.48367 0.10406 0.0
H2911 H 0.59884 0.47794 0.03622 0.0
C2912 C 0.74461 0.34513 0.3813 0.0
C2913 C 0.73187 0.34978 0.38252 0.0
C2914 C 0.75299 0.34806 0.32059 0.0
C2915 C 0.74853 0.35576 0.25899 0.0
C2916 C 0.73576 0.36071 0.26036 0.0
C2917 C 0.72764 0.35778 0.32254 0.0
C2918 C 0.76649 0.3425 0.32133 0.0
C2919 C 0.7306 0.36883 0.19537 0.0
C2920 C 0.77552 0.36996 0.13791 0.0
C2921 C 0.77683 0.36053 0.08074 0.0
C2922 C 0.76589 0.36891 0.1943 0.0
C2923 C 0.75725 0.35827 0.19275 0.0
C2924 C 0.75799 0.34922 0.13212 0.0
C2925 C 0.76782 0.3504 0.07722 0.0
C2926 C 0.76548 0.3787 0.25829 0.0
C2927 C 0.74887 0.33783 0.12766 0.0
H2928 H 0.74802 0.33896 0.4272 0.0
H2929 H 0.71789 0.36158 0.32329 0.0
H2930 H 0.7673 0.33489 0.27685 0.0
H2931 H 0.77374 0.35006 0.30767 0.0
H2932 H 0.76894 0.33816 0.37756 0.0
H2933 H 0.72035 0.37169 0.20426 0.0
H2934 H 0.73653 0.3777 0.18898 0.0
H2935 H 0.7313 0.3634 0.14078 0.0
H2936 H 0.78248 0.37778 0.14129 0.0
H2937 H 0.76873 0.34312 0.03289 0.0
H2938 H 0.76786 0.37391 0.31334 0.0
H2939 H 0.75559 0.38276 0.26387 0.0
H2940 H 0.7724 0.38678 0.24912 0.0
H2941 H 0.75137 0.33075 0.17306 0.0
H2942 H 0.74941 0.33285 0.0714 0.0
H2943 H 0.73875 0.34095 0.13756 0.0
C2944 C 0.89642 0.47787 0.60175 0.0
C2945 C 0.90536 0.4811 0.65913 0.0
C2946 C 0.89509 0.48556 0.53584 0.0
C2947 C 0.90292 0.4967 0.52706 0.0
C2948 C 0.91163 0.50024 0.58595 0.0
C2949 C 0.91265 0.49248 0.65154 0.0
C2950 C 0.88577 0.48142 0.47403 0.0
C2951 C 0.92045 0.51181 0.57765 0.0
C2952 C 0.91252 0.50837 0.3293 0.0
C2953 C 0.90509 0.51965 0.32155 0.0
C2954 C 0.91162 0.50063 0.39504 0.0
C2955 C 0.90288 0.50409 0.45391 0.0
C2956 C 0.89493 0.51514 0.44503 0.0
C2957 C 0.89615 0.52281 0.37899 0.0
C2958 C 0.92059 0.48918 0.4035 0.0
C2959 C 0.88556 0.51918 0.50679 0.0
H2960 H 0.8907 0.46914 0.60731 0.0
H2961 H 0.91963 0.49505 0.69526 0.0
H2962 H 0.87941 0.48962 0.45774 0.0
H2963 H 0.89124 0.47854 0.42216 0.0
H2964 H 0.87964 0.47314 0.49214 0.0
H2965 H 0.92614 0.5137 0.6304 0.0
H2966 H 0.92733 0.51015 0.52997 0.0
H2967 H 0.91477 0.52056 0.56308 0.0
H2968 H 0.91951 0.50586 0.28556 0.0
H2969 H 0.89032 0.53148 0.37333 0.0
H2970 H 0.915 0.48035 0.41793 0.0
H2971 H 0.92742 0.49092 0.45133 0.0
H2972 H 0.92632 0.48736 0.35086 0.0
H2973 H 0.87924 0.51094 0.52277 0.0
H2974 H 0.87939 0.52744 0.48879 0.0
H2975 H 0.89099 0.52206 0.55882 0.0
C2976 C 0.27921 0.35824 0.30116 0.0
C2977 C 0.27807 0.36039 0.38001 0.0
C2978 C 0.26825 0.35737 0.25425 0.0
C2979 C 0.25579 0.35818 0.2875 0.0
C2980 C 0.25458 0.36088 0.36673 0.0
C2981 C 0.26577 0.36215 0.41194 0.0
C2982 C 0.27004 0.35483 0.16976 0.0
C2983 C 0.24151 0.36147 0.40482 0.0
C2984 C 0.22683 0.35944 0.15214 0.0
C2985 C 0.2243 0.34623 0.14235 0.0
C2986 C 0.23691 0.3636 0.20054 0.0
C2987 C 0.24428 0.35432 0.24149 0.0
C2988 C 0.24124 0.34102 0.23455 0.0
C2989 C 0.23143 0.33715 0.18433 0.0
C2990 C 0.24004 0.37782 0.20527 0.0
C2991 C 0.24858 0.3308 0.27865 0.0
H2992 H 0.28867 0.35699 0.27601 0.0
H2993 H 0.26487 0.36372 0.47306 0.0
H2994 H 0.26735 0.34468 0.1567 0.0
H2995 H 0.26363 0.3612 0.13553 0.0
H2996 H 0.2802 0.35638 0.15119 0.0
H2997 H 0.2421 0.36527 0.46418 0.0
H2998 H 0.23478 0.36762 0.37141 0.0
H2999 H 0.2373 0.3516 0.40694 0.0
H3000 H 0.22127 0.36644 0.11972 0.0
H3001 H 0.22931 0.32693 0.1779 0.0
H3002 H 0.24967 0.3796 0.17932 0.0
H3003 H 0.24059 0.38098 0.26584 0.0
H3004 H 0.23278 0.38386 0.17501 0.0
H3005 H 0.25872 0.33037 0.25806 0.0
H3006 H 0.24421 0.32105 0.2723 0.0
H3007 H 0.24887 0.3333 0.34039 0.0
C3008 C 0.39291 0.47692 0.93287 0.0
C3009 C 0.40165 0.47894 0.87267 0.0
C3010 C 0.39196 0.48581 0.99353 0.0
C3011 C 0.4001 0.49683 0.99443 0.0
C3012 C 0.4086 0.49911 0.93242 0.0
C3013 C 0.40917 0.49022 0.87195 0.0
C3014 C 0.38243 0.48326 0.05719 0.0
C3015 C 0.41767 0.51055 0.93198 0.0
C3016 C 0.39533 0.52543 0.12864 0.0
C3017 C 0.40434 0.52265 0.18647 0.0
C3018 C 0.39338 0.51682 0.06736 0.0
C3019 C 0.40076 0.5053 0.06326 0.0
C3020 C 0.40958 0.50229 0.12273 0.0
C3021 C 0.41117 0.51094 0.18376 0.0
C3022 C 0.38381 0.5203 0.00548 0.0
C3023 C 0.41802 0.49037 0.1199 0.0
H3024 H 0.38698 0.46828 0.93326 0.0
H3025 H 0.41603 0.4918 0.82597 0.0
H3026 H 0.38694 0.48486 0.11402 0.0
H3027 H 0.37425 0.49014 0.05202 0.0
H3028 H 0.37852 0.47325 0.05509 0.0
H3029 H 0.42265 0.51172 0.87609 0.0
H3030 H 0.41234 0.51958 0.9452 0.0
H3031 H 0.42511 0.50926 0.97711 0.0
H3032 H 0.39001 0.53445 0.13036 0.0
H3033 H 0.41825 0.50875 0.22766 0.0
H3034 H 0.37729 0.51201 0.99373 0.0
H3035 H 0.38906 0.52251 0.95166 0.0
H3036 H 0.37785 0.52885 0.0211 0.0
H3037 H 0.41285 0.48199 0.0949 0.0
H3038 H 0.4216 0.48765 0.17766 0.0
H3039 H 0.42654 0.49239 0.08313 0.0
C3040 C 0.22635 0.64607 0.79835 0.0
C3041 C 0.23052 0.65286 0.86349 0.0
C3042 C 0.23475 0.64376 0.7366 0.0
C3043 C 0.24775 0.64801 0.74094 0.0
C3044 C 0.25216 0.65434 0.80792 0.0
C3045 C 0.24348 0.65678 0.86796 0.0
C3046 C 0.22966 0.63697 0.66626 0.0
C3047 C 0.26592 0.65904 0.81537 0.0
C3048 C 0.27415 0.63459 0.6119 0.0
C3049 C 0.27595 0.64483 0.56033 0.0
C3050 C 0.26467 0.63526 0.6694 0.0
C3051 C 0.25669 0.64635 0.67471 0.0
C3052 C 0.258 0.6564 0.62019 0.0
C3053 C 0.26767 0.65556 0.56401 0.0
C3054 C 0.26372 0.62445 0.72721 0.0
C3055 C 0.24954 0.66829 0.62303 0.0
H3056 H 0.21644 0.64281 0.79459 0.0
H3057 H 0.24685 0.66198 0.91801 0.0
H3058 H 0.23187 0.6427 0.61421 0.0
H3059 H 0.23453 0.62748 0.65988 0.0
H3060 H 0.21904 0.63535 0.66897 0.0
H3061 H 0.26842 0.66126 0.87575 0.0
H3062 H 0.27286 0.65176 0.79336 0.0
H3063 H 0.26717 0.66798 0.78098 0.0
H3064 H 0.28058 0.62631 0.60985 0.0
H3065 H 0.26895 0.66346 0.52394 0.0
H3066 H 0.25355 0.62124 0.73339 0.0
H3067 H 0.26696 0.62803 0.78398 0.0
H3068 H 0.26977 0.61599 0.71123 0.0
H3069 H 0.23919 0.66547 0.6247 0.0
H3070 H 0.25111 0.67476 0.57309 0.0
H3071 H 0.25161 0.67382 0.67606 0.0
C3072 C 0.10938 0.52523 0.38762 0.0
C3073 C 0.10061 0.52321 0.32753 0.0
C3074 C 0.11059 0.5162 0.44734 0.0
C3075 C 0.10276 0.50495 0.44724 0.0
C3076 C 0.09413 0.50273 0.38565 0.0
C3077 C 0.09324 0.51183 0.32638 0.0
C3078 C 0.12008 0.51881 0.51119 0.0
C3079 C 0.08523 0.49114 0.38415 0.0
C3080 C 0.10981 0.47578 0.57331 0.0
C3081 C 0.10098 0.47762 0.63326 0.0
C3082 C 0.11089 0.48487 0.51378 0.0
C3083 C 0.10284 0.49596 0.51384 0.0
C3084 C 0.09414 0.498 0.57531 0.0
C3085 C 0.0934 0.48886 0.63446 0.0
C3086 C 0.12048 0.48248 0.45025 0.0
C3087 C 0.08498 0.50938 0.5769 0.0
H3088 H 0.11516 0.53398 0.3886 0.0
H3089 H 0.08631 0.51025 0.28073 0.0
H3090 H 0.11545 0.51734 0.5678 0.0
H3091 H 0.12822 0.51185 0.50705 0.0
H3092 H 0.12405 0.52878 0.50871 0.0
H3093 H 0.08184 0.48896 0.32521 0.0
H3094 H 0.08998 0.4824 0.40783 0.0
H3095 H 0.07664 0.49323 0.42007 0.0
H3096 H 0.11575 0.46714 0.57234 0.0
H3097 H 0.08642 0.49028 0.67997 0.0
H3098 H 0.12855 0.4895 0.45538 0.0
H3099 H 0.11593 0.48402 0.39347 0.0
H3100 H 0.12455 0.47254 0.45227 0.0
H3101 H 0.08926 0.51811 0.5502 0.0
H3102 H 0.08202 0.5118 0.63632 0.0
H3103 H 0.07614 0.50684 0.54412 0.0
C3104 C 0.16973 0.11586 0.95921 0.0
C3105 C 0.16735 0.1277 0.92275 0.0
C3106 C 0.16198 0.10496 0.94334 0.0
C3107 C 0.15175 0.10599 0.88951 0.0
C3108 C 0.15004 0.11767 0.84851 0.0
C3109 C 0.15781 0.12836 0.86588 0.0
C3110 C 0.1642 0.09265 0.98771 0.0
C3111 C 0.13939 0.11921 0.79001 0.0
C3112 C 0.1311 0.07836 0.81278 0.0
C3113 C 0.11975 0.08007 0.85557 0.0
C3114 C 0.14204 0.08618 0.82622 0.0
C3115 C 0.14157 0.09582 0.88391 0.0
C3116 C 0.13042 0.09692 0.9304 0.0
C3117 C 0.11968 0.08908 0.9155 0.0
C3118 C 0.15378 0.08463 0.77587 0.0
C3119 C 0.12949 0.10696 0.99302 0.0
H3120 H 0.17716 0.1153 0.00289 0.0
H3121 H 0.15612 0.13743 0.83631 0.0
H3122 H 0.15663 0.09167 0.03233 0.0
H3123 H 0.16346 0.08409 0.94966 0.0
H3124 H 0.1738 0.09258 0.01624 0.0
H3125 H 0.14031 0.12835 0.75703 0.0
H3126 H 0.13942 0.11099 0.74925 0.0
H3127 H 0.12987 0.11922 0.81941 0.0
H3128 H 0.13123 0.07134 0.76672 0.0
H3129 H 0.11103 0.09028 0.94988 0.0
H3130 H 0.16278 0.08502 0.8104 0.0
H3131 H 0.15416 0.09271 0.73417 0.0
H3132 H 0.15357 0.07538 0.74353 0.0
H3133 H 0.13812 0.10653 0.03061 0.0
H3134 H 0.12071 0.10568 0.02889 0.0
H3135 H 0.12918 0.11676 0.96714 0.0
C3136 C 0.15595 0.87753 0.01536 0.0
C3137 C 0.16872 0.87535 0.03857 0.0
C3138 C 0.14881 0.88793 0.04472 0.0
C3139 C 0.15446 0.89612 0.10047 0.0
C3140 C 0.16766 0.89446 0.12032 0.0
C3141 C 0.1747 0.88412 0.08847 0.0
C3142 C 0.13488 0.88951 0.02034 0.0
C3143 C 0.17403 0.90291 0.17973 0.0
C3144 C 0.13322 0.92478 0.15366 0.0
C3145 C 0.12553 0.91923 0.21091 0.0
C3146 C 0.14337 0.91771 0.11995 0.0
C3147 C 0.14593 0.90493 0.14533 0.0
C3148 C 0.13887 0.89981 0.20785 0.0
C3149 C 0.12863 0.90695 0.23901 0.0
C3150 C 0.15055 0.92349 0.05311 0.0
C3151 C 0.14143 0.88636 0.23801 0.0
H3152 H 0.15137 0.87076 0.97647 0.0
H3153 H 0.18455 0.88234 0.10704 0.0
H3154 H 0.12841 0.8866 0.06801 0.0
H3155 H 0.13278 0.89977 0.00672 0.0
H3156 H 0.1325 0.8835 0.96953 0.0
H3157 H 0.18473 0.90196 0.17866 0.0
H3158 H 0.17142 0.91322 0.17106 0.0
H3159 H 0.17055 0.90006 0.23739 0.0
H3160 H 0.13067 0.93422 0.13122 0.0
H3161 H 0.12264 0.90268 0.28331 0.0
H3162 H 0.14675 0.9193 0.99915 0.0
H3163 H 0.16102 0.92119 0.05613 0.0
H3164 H 0.14935 0.93416 0.0505 0.0
H3165 H 0.13809 0.87911 0.19549 0.0
H3166 H 0.13633 0.88451 0.2929 0.0
H3167 H 0.15194 0.88484 0.24688 0.0
C3168 C 0.3469 0.8807 0.4551 0.0
C3169 C 0.33385 0.87835 0.43916 0.0
C3170 C 0.3537 0.89049 0.417 0.0
C3171 C 0.34735 0.89792 0.36014 0.0
C3172 C 0.33389 0.89627 0.34823 0.0
C3173 C 0.32725 0.88651 0.38839 0.0
C3174 C 0.36798 0.89209 0.43293 0.0
C3175 C 0.32675 0.90402 0.28853 0.0
C3176 C 0.36856 0.92473 0.28001 0.0
C3177 C 0.37511 0.918 0.22219 0.0
C3178 C 0.35872 0.91866 0.3226 0.0
C3179 C 0.35532 0.90568 0.30585 0.0
C3180 C 0.36114 0.89934 0.24273 0.0
C3181 C 0.37108 0.90553 0.2024 0.0
C3182 C 0.35284 0.92575 0.3895 0.0
C3183 C 0.35765 0.8856 0.22168 0.0
H3184 H 0.35199 0.87441 0.49465 0.0
H3185 H 0.31716 0.88462 0.37547 0.0
H3186 H 0.37362 0.88811 0.38429 0.0
H3187 H 0.37052 0.90246 0.43859 0.0
H3188 H 0.37099 0.88697 0.48594 0.0
H3189 H 0.3161 0.90347 0.29652 0.0
H3190 H 0.32977 0.91432 0.28994 0.0
H3191 H 0.32911 0.90018 0.23091 0.0
H3192 H 0.37181 0.93433 0.29602 0.0
H3193 H 0.37617 0.90035 0.15759 0.0
H3194 H 0.35762 0.92253 0.44308 0.0
H3195 H 0.34237 0.9236 0.39476 0.0
H3196 H 0.35416 0.93638 0.38432 0.0
H3197 H 0.36136 0.87891 0.26625 0.0
H3198 H 0.36182 0.88269 0.16568 0.0
H3199 H 0.347 0.8844 0.21907 0.0
C3200 C 0.38277 0.09693 0.59835 0.0
C3201 C 0.38183 0.08658 0.6499 0.0
C3202 C 0.37194 0.10436 0.57881 0.0
C3203 C 0.3598 0.10145 0.61201 0.0
C3204 C 0.3586 0.09055 0.66078 0.0
C3205 C 0.36966 0.08318 0.67903 0.0
C3206 C 0.37369 0.1158 0.52602 0.0
C3207 C 0.34582 0.08709 0.69692 0.0
C3208 C 0.34007 0.13189 0.638 0.0
C3209 C 0.33212 0.1318 0.57293 0.0
C3210 C 0.34846 0.12161 0.65402 0.0
C3211 C 0.34902 0.11094 0.60347 0.0
C3212 C 0.34047 0.1104 0.54003 0.0
C3213 C 0.33206 0.12086 0.52555 0.0
C3214 C 0.3573 0.1226 0.72266 0.0
C3215 C 0.34073 0.09915 0.4851 0.0
H3216 H 0.3921 0.09946 0.5743 0.0
H3217 H 0.36887 0.07512 0.71845 0.0
H3218 H 0.36627 0.11568 0.48014 0.0
H3219 H 0.3724 0.1249 0.55884 0.0
H3220 H 0.38341 0.11596 0.49901 0.0
H3221 H 0.34599 0.07729 0.72297 0.0
H3222 H 0.3435 0.09421 0.74237 0.0
H3223 H 0.33792 0.0875 0.65399 0.0
H3224 H 0.34 0.14021 0.67576 0.0
H3225 H 0.32588 0.1207 0.47542 0.0
H3226 H 0.36743 0.1239 0.70307 0.0
H3227 H 0.35694 0.11356 0.75681 0.0
H3228 H 0.35474 0.13085 0.76045 0.0
H3229 H 0.34957 0.09973 0.44929 0.0
H3230 H 0.33217 0.09911 0.44666 0.0
H3231 H 0.3411 0.08985 0.51665 0.0
C3232 C 0.84095 0.87186 0.15177 0.0
C3233 C 0.83014 0.87235 0.10332 0.0
C3234 C 0.84886 0.88269 0.16285 0.0
C3235 C 0.84594 0.89438 0.1244 0.0
C3236 C 0.83461 0.8952 0.07889 0.0
C3237 C 0.8268 0.88414 0.06887 0.0
C3238 C 0.86078 0.88135 0.21225 0.0
C3239 C 0.8311 0.90752 0.03761 0.0
C3240 C 0.86706 0.92227 0.19224 0.0
C3241 C 0.87757 0.92114 0.14201 0.0
C3242 C 0.85612 0.91424 0.18416 0.0
C3243 C 0.85576 0.90495 0.12448 0.0
C3244 C 0.86595 0.90449 0.07056 0.0
C3245 C 0.87671 0.91256 0.08009 0.0
C3246 C 0.84538 0.91513 0.24228 0.0
C3247 C 0.86598 0.89481 0.00575 0.0
H3248 H 0.84348 0.86286 0.1798 0.0
H3249 H 0.81841 0.8846 0.03176 0.0
H3250 H 0.86956 0.882 0.17588 0.0
H3251 H 0.86126 0.88932 0.2546 0.0
H3252 H 0.86104 0.87199 0.2435 0.0
H3253 H 0.82102 0.9073 0.0157 0.0
H3254 H 0.83226 0.916 0.07594 0.0
H3255 H 0.83773 0.90891 0.98838 0.0
H3256 H 0.86763 0.92895 0.23993 0.0
H3257 H 0.88469 0.9118 0.04012 0.0
H3258 H 0.84607 0.90685 0.28243 0.0
H3259 H 0.83579 0.91458 0.2139 0.0
H3260 H 0.84592 0.92423 0.27599 0.0
H3261 H 0.86722 0.88492 0.02925 0.0
H3262 H 0.87389 0.89666 0.96414 0.0
H3263 H 0.85662 0.89504 0.97473 0.0
C3264 C 0.8455 0.12253 0.9949 0.0
C3265 C 0.83271 0.12588 0.97785 0.0
C3266 C 0.85183 0.11269 0.95455 0.0
C3267 C 0.8453 0.10625 0.8943 0.0
C3268 C 0.83204 0.10892 0.88082 0.0
C3269 C 0.82585 0.1187 0.92325 0.0
C3270 C 0.86588 0.10999 0.97218 0.0
C3271 C 0.82471 0.10228 0.81739 0.0
C3272 C 0.86954 0.09837 0.73993 0.0
C3273 C 0.87269 0.08555 0.75745 0.0
C3274 C 0.85966 0.10484 0.77929 0.0
C3275 C 0.85301 0.09841 0.83914 0.0
C3276 C 0.85547 0.08512 0.85291 0.0
C3277 C 0.86526 0.0788 0.81134 0.0
C3278 C 0.85716 0.11891 0.76128 0.0
C3279 C 0.84863 0.0779 0.91604 0.0
H3280 H 0.85078 0.1281 0.03724 0.0
H3281 H 0.81599 0.12142 0.90937 0.0
H3282 H 0.86762 0.09942 0.97634 0.0
H3283 H 0.87201 0.11376 0.92507 0.0
H3284 H 0.86904 0.1146 0.02649 0.0
H3285 H 0.81408 0.10329 0.82471 0.0
H3286 H 0.82742 0.10669 0.76178 0.0
H3287 H 0.82719 0.09185 0.81462 0.0
H3288 H 0.87528 0.10357 0.69804 0.0
H3289 H 0.86778 0.0689 0.82553 0.0
H3290 H 0.86104 0.12502 0.8082 0.0
H3291 H 0.84663 0.12082 0.75711 0.0
H3292 H 0.86181 0.12195 0.70686 0.0
H3293 H 0.85307 0.08048 0.97181 0.0
H3294 H 0.84943 0.06726 0.90852 0.0
H3295 H 0.83825 0.08059 0.91862 0.0
C3296 C 0.67317 0.11887 0.61847 0.0
C3297 C 0.66588 0.12535 0.5627 0.0
C3298 C 0.66744 0.10932 0.66491 0.0
C3299 C 0.65423 0.10613 0.65421 0.0
C3300 C 0.64724 0.11189 0.59333 0.0
C3301 C 0.65311 0.12151 0.54892 0.0
C3302 C 0.67522 0.10334 0.72879 0.0
C3303 C 0.6332 0.10864 0.57879 0.0
C3304 C 0.63532 0.07868 0.74498 0.0
C3305 C 0.6278 0.08558 0.79777 0.0
C3306 C 0.6449 0.08498 0.70156 0.0
C3307 C 0.64703 0.0984 0.71227 0.0
C3308 C 0.64038 0.10501 0.77145 0.0
C3309 C 0.63074 0.09854 0.8128 0.0
C3310 C 0.65174 0.07755 0.63929 0.0
C3311 C 0.64247 0.11926 0.78604 0.0
H3312 H 0.68303 0.12192 0.6296 0.0
H3313 H 0.6475 0.1265 0.50552 0.0
H3314 H 0.67127 0.10648 0.78479 0.0
H3315 H 0.67445 0.09264 0.7266 0.0
H3316 H 0.6856 0.1061 0.72607 0.0
H3317 H 0.62962 0.11284 0.52421 0.0
H3318 H 0.6318 0.09801 0.57697 0.0
H3319 H 0.62718 0.11247 0.62623 0.0
H3320 H 0.63297 0.06867 0.73272 0.0
H3321 H 0.62493 0.10386 0.85382 0.0
H3322 H 0.66193 0.08074 0.6333 0.0
H3323 H 0.6468 0.07936 0.58391 0.0
H3324 H 0.65155 0.06698 0.65046 0.0
H3325 H 0.65291 0.1217 0.78462 0.0
H3326 H 0.63845 0.12231 0.84213 0.0
H3327 H 0.63762 0.12493 0.74039 0.0
C3328 C 0.61891 0.90695 0.43716 0.0
C3329 C 0.61962 0.91699 0.38338 0.0
C3330 C 0.62964 0.89913 0.45312 0.0
C3331 C 0.64142 0.9013 0.41393 0.0
C3332 C 0.64246 0.91194 0.363 0.0
C3333 C 0.63152 0.91971 0.34845 0.0
C3334 C 0.62808 0.888 0.50842 0.0
C3335 C 0.65485 0.91463 0.32044 0.0
C3336 C 0.66936 0.8809 0.48952 0.0
C3337 C 0.66811 0.86979 0.44415 0.0
C3338 C 0.66126 0.89169 0.47764 0.0
C3339 C 0.65181 0.89132 0.41875 0.0
C3340 C 0.65117 0.88043 0.36979 0.0
C3341 C 0.65927 0.86982 0.3833 0.0
C3342 C 0.66229 0.90314 0.53076 0.0
C3343 C 0.64137 0.87962 0.30578 0.0
H3344 H 0.6098 0.90493 0.46548 0.0
H3345 H 0.63214 0.92751 0.3071 0.0
H3346 H 0.62841 0.87872 0.47654 0.0
H3347 H 0.63613 0.8879 0.5504 0.0
H3348 H 0.61878 0.88847 0.54018 0.0
H3349 H 0.65482 0.92436 0.29351 0.0
H3350 H 0.6633 0.91389 0.3594 0.0
H3351 H 0.65615 0.90729 0.27476 0.0
H3352 H 0.67624 0.88095 0.53639 0.0
H3353 H 0.65843 0.86135 0.34702 0.0
H3354 H 0.65396 0.90313 0.57074 0.0
H3355 H 0.66193 0.91233 0.49806 0.0
H3356 H 0.67135 0.9029 0.56497 0.0
H3357 H 0.6315 0.87887 0.33033 0.0
H3358 H 0.64303 0.87113 0.26812 0.0
H3359 H 0.64167 0.88851 0.27023 0.0
C3360 C 0.63558 0.57358 0.32007 0.0
C3361 C 0.628 0.58006 0.26568 0.0
C3362 C 0.64503 0.58028 0.36241 0.0
C3363 C 0.64698 0.59367 0.34907 0.0
C3364 C 0.64019 0.59985 0.28883 0.0
C3365 C 0.63068 0.593 0.24855 0.0
C3366 C 0.65208 0.57332 0.42574 0.0
C3367 C 0.64214 0.61402 0.27127 0.0
C3368 C 0.65347 0.61799 0.50567 0.0
C3369 C 0.66618 0.62174 0.4895 0.0
C3370 C 0.64751 0.60796 0.46473 0.0
C3371 C 0.65433 0.60178 0.40463 0.0
C3372 C 0.6675 0.60492 0.39174 0.0
C3373 C 0.67332 0.61483 0.4349 0.0
C3374 C 0.63355 0.60475 0.48174 0.0
C3375 C 0.67512 0.59864 0.32819 0.0
H3376 H 0.63339 0.5636 0.33402 0.0
H3377 H 0.62482 0.59799 0.20635 0.0
H3378 H 0.6624 0.57625 0.42775 0.0
H3379 H 0.64766 0.57591 0.48151 0.0
H3380 H 0.65152 0.56265 0.4189 0.0
H3381 H 0.63741 0.61692 0.2168 0.0
H3382 H 0.63799 0.61994 0.31824 0.0
H3383 H 0.6526 0.61634 0.26748 0.0
H3384 H 0.64797 0.62333 0.54798 0.0
H3385 H 0.68311 0.61785 0.42163 0.0
H3386 H 0.63218 0.59413 0.48565 0.0
H3387 H 0.62734 0.60833 0.43445 0.0
H3388 H 0.63018 0.60922 0.53601 0.0
H3389 H 0.6729 0.58816 0.32408 0.0
H3390 H 0.6857 0.59989 0.33646 0.0
H3391 H 0.67243 0.60317 0.27286 0.0
C3392 C 0.6724 0.38322 0.51242 0.0
C3393 C 0.67091 0.37195 0.55625 0.0
C3394 C 0.66425 0.39397 0.52415 0.0
C3395 C 0.65451 0.39341 0.5812 0.0
C3396 C 0.65361 0.38236 0.62872 0.0
C3397 C 0.66177 0.37179 0.6155 0.0
C3398 C 0.66558 0.40561 0.47271 0.0
C3399 C 0.64347 0.38133 0.69071 0.0
C3400 C 0.63372 0.42134 0.65208 0.0
C3401 C 0.62201 0.41865 0.61485 0.0
C3402 C 0.64479 0.41376 0.63797 0.0
C3403 C 0.64408 0.40335 0.58521 0.0
C3404 C 0.63252 0.40128 0.54358 0.0
C3405 C 0.62165 0.40891 0.55912 0.0
C3406 C 0.65696 0.41635 0.68301 0.0
C3407 C 0.63132 0.3904 0.48624 0.0
H3408 H 0.67951 0.38341 0.46684 0.0
H3409 H 0.66074 0.36321 0.65066 0.0
H3410 H 0.65753 0.4057 0.43072 0.0
H3411 H 0.66495 0.41469 0.50636 0.0
H3412 H 0.67487 0.40553 0.4407 0.0
H3413 H 0.6449 0.37268 0.72751 0.0
H3414 H 0.64361 0.39007 0.7275 0.0
H3415 H 0.63374 0.38071 0.66419 0.0
H3416 H 0.63406 0.42892 0.6949 0.0
H3417 H 0.61269 0.40695 0.52899 0.0
H3418 H 0.66561 0.41575 0.64557 0.0
H3419 H 0.65804 0.40889 0.72821 0.0
H3420 H 0.65676 0.42601 0.71087 0.0
H3421 H 0.6396 0.39051 0.44592 0.0
H3422 H 0.62221 0.39099 0.4527 0.0
H3423 H 0.6315 0.38099 0.51672 0.0
C3424 C 0.86872 0.42215 0.78537 0.0
C3425 C 0.87982 0.42077 0.83074 0.0
C3426 C 0.85785 0.41416 0.79732 0.0
C3427 C 0.85813 0.40471 0.85619 0.0
C3428 C 0.86899 0.40399 0.90534 0.0
C3429 C 0.87968 0.41198 0.89183 0.0
C3430 C 0.84641 0.41531 0.74414 0.0
C3431 C 0.86971 0.39418 0.9693 0.0
C3432 C 0.82983 0.38425 0.92565 0.0
C3433 C 0.83264 0.3724 0.89042 0.0
C3434 C 0.83752 0.39525 0.91129 0.0
C3435 C 0.84816 0.39431 0.86034 0.0
C3436 C 0.8504 0.38258 0.82077 0.0
C3437 C 0.84265 0.3718 0.83649 0.0
C3438 C 0.83475 0.40761 0.9541 0.0
C3439 C 0.86153 0.38113 0.76541 0.0
H3440 H 0.86877 0.42899 0.73837 0.0
H3441 H 0.88813 0.41105 0.92817 0.0
H3442 H 0.84648 0.4071 0.70328 0.0
H3443 H 0.83721 0.41483 0.7766 0.0
H3444 H 0.84664 0.42446 0.71086 0.0
H3445 H 0.87818 0.3958 0.00724 0.0
H3446 H 0.8608 0.3945 0.00458 0.0
H3447 H 0.87046 0.38431 0.94467 0.0
H3448 H 0.82203 0.38478 0.96702 0.0
H3449 H 0.84472 0.36273 0.80784 0.0
H3450 H 0.83554 0.41609 0.91549 0.0
H3451 H 0.842 0.40886 0.00031 0.0
H3452 H 0.82496 0.40753 0.9804 0.0
H3453 H 0.86158 0.38921 0.72366 0.0
H3454 H 0.86111 0.37185 0.73339 0.0
H3455 H 0.87081 0.38148 0.79732 0.0
C3456 C 0.86774 0.5774 0.1938 0.0
C3457 C 0.87931 0.58046 0.156 0.0
C3458 C 0.85662 0.58513 0.18409 0.0
C3459 C 0.85715 0.59611 0.13556 0.0
C3460 C 0.8686 0.59875 0.09413 0.0
C3461 C 0.87949 0.59092 0.10487 0.0
C3462 C 0.84454 0.58192 0.22858 0.0
C3463 C 0.86964 0.61032 0.04157 0.0
C3464 C 0.82872 0.61658 0.06816 0.0
C3465 C 0.83 0.62741 0.11584 0.0
C3466 C 0.83692 0.60578 0.07709 0.0
C3467 C 0.84654 0.60589 0.13495 0.0
C3468 C 0.84722 0.61645 0.18628 0.0
C3469 C 0.83897 0.62704 0.17606 0.0
C3470 C 0.83578 0.59464 0.0218 0.0
C3471 C 0.85728 0.61699 0.24899 0.0
H3472 H 0.8675 0.56926 0.23292 0.0
H3473 H 0.88831 0.59323 0.07427 0.0
H3474 H 0.84334 0.58896 0.27592 0.0
H3475 H 0.83587 0.58267 0.19144 0.0
H3476 H 0.84495 0.57204 0.25352 0.0
H3477 H 0.87882 0.61038 0.00858 0.0
H3478 H 0.86144 0.61047 0.00062 0.0
H3479 H 0.86914 0.61935 0.0758 0.0
H3480 H 0.82175 0.61676 0.02185 0.0
H3481 H 0.83987 0.63527 0.21413 0.0
H3482 H 0.8365 0.58526 0.05241 0.0
H3483 H 0.84387 0.59506 0.98015 0.0
H3484 H 0.82653 0.59491 0.98952 0.0
H3485 H 0.85728 0.60788 0.28249 0.0
H3486 H 0.85566 0.62521 0.28881 0.0
H3487 H 0.86702 0.61807 0.22316 0.0
C3488 C 0.32946 0.38276 0.58859 0.0
C3489 C 0.33602 0.37658 0.52869 0.0
C3490 C 0.33569 0.39224 0.63321 0.0
C3491 C 0.34865 0.39567 0.61637 0.0
C3492 C 0.35484 0.39022 0.55159 0.0
C3493 C 0.3485 0.38062 0.50925 0.0
C3494 C 0.32878 0.39774 0.70189 0.0
C3495 C 0.36856 0.39376 0.53046 0.0
C3496 C 0.368 0.42334 0.70206 0.0
C3497 C 0.37633 0.4165 0.75076 0.0
C3498 C 0.35813 0.41688 0.66175 0.0
C3499 C 0.35653 0.40337 0.67147 0.0
C3500 C 0.36413 0.39675 0.72647 0.0
C3501 C 0.37403 0.40337 0.76473 0.0
C3502 C 0.35026 0.42431 0.60385 0.0
C3503 C 0.36261 0.3824 0.73993 0.0
H3504 H 0.31985 0.37949 0.6043 0.0
H3505 H 0.35355 0.37581 0.46287 0.0
H3506 H 0.33263 0.39317 0.75464 0.0
H3507 H 0.33049 0.4083 0.70661 0.0
H3508 H 0.3182 0.39593 0.69941 0.0
H3509 H 0.37137 0.38987 0.4736 0.0
H3510 H 0.36978 0.40442 0.52967 0.0
H3511 H 0.37531 0.38982 0.57401 0.0
H3512 H 0.36983 0.43348 0.69065 0.0
H3513 H 0.38044 0.3981 0.80269 0.0
H3514 H 0.34 0.42117 0.60462 0.0
H3515 H 0.35412 0.42239 0.5457 0.0
H3516 H 0.35069 0.4349 0.61432 0.0
H3517 H 0.35226 0.37974 0.74461 0.0
H3518 H 0.36769 0.37918 0.79267 0.0
H3519 H 0.36671 0.37703 0.69058 0.0
C3520 C 0.37912 0.59203 0.4093 0.0
C3521 C 0.37997 0.58322 0.3485 0.0
C3522 C 0.36837 0.60013 0.41778 0.0
C3523 C 0.35816 0.59947 0.36393 0.0
C3524 C 0.35853 0.58998 0.30539 0.0
C3525 C 0.36946 0.58192 0.29836 0.0
C3526 C 0.36839 0.61002 0.48143 0.0
C3527 C 0.34778 0.58888 0.24737 0.0
C3528 C 0.32921 0.62035 0.41799 0.0
C3529 C 0.33254 0.63207 0.38267 0.0
C3530 C 0.33701 0.60928 0.40869 0.0
C3531 C 0.34831 0.61 0.36294 0.0
C3532 C 0.35118 0.6216 0.32339 0.0
C3533 C 0.34329 0.63245 0.33385 0.0
C3534 C 0.33355 0.59706 0.45114 0.0
C3535 C 0.36307 0.62282 0.27359 0.0
H3536 H 0.38711 0.59292 0.44918 0.0
H3537 H 0.37003 0.57507 0.25152 0.0
H3538 H 0.35905 0.60986 0.51258 0.0
H3539 H 0.37633 0.60835 0.52315 0.0
H3540 H 0.36958 0.61984 0.45674 0.0
H3541 H 0.34832 0.57967 0.21474 0.0
H3542 H 0.3382 0.58951 0.27565 0.0
H3543 H 0.34846 0.59703 0.20624 0.0
H3544 H 0.32085 0.61998 0.45539 0.0
H3545 H 0.3458 0.6414 0.30514 0.0
H3546 H 0.34018 0.59583 0.50053 0.0
H3547 H 0.33473 0.58848 0.41366 0.0
H3548 H 0.32346 0.5973 0.47302 0.0
H3549 H 0.37187 0.62234 0.30985 0.0
H3550 H 0.36325 0.63207 0.24121 0.0
H3551 H 0.36356 0.61471 0.2322 0.0
C3552 C 0.13511 0.57897 0.14955 0.0
C3553 C 0.1273 0.58515 0.20393 0.0
C3554 C 0.14517 0.58571 0.11276 0.0
C3555 C 0.14754 0.59882 0.13209 0.0
C3556 C 0.14042 0.60464 0.19221 0.0
C3557 C 0.13026 0.59779 0.22654 0.0
C3558 C 0.15245 0.57917 0.0488 0.0
C3559 C 0.1428 0.61847 0.21612 0.0
C3560 C 0.17587 0.61931 0.06432 0.0
C3561 C 0.16968 0.62726 0.01062 0.0
C3562 C 0.16905 0.6093 0.10125 0.0
C3563 C 0.15587 0.60715 0.08285 0.0
C3564 C 0.15002 0.61445 0.02354 0.0
C3565 C 0.15695 0.62453 0.98897 0.0
C3566 C 0.17564 0.60182 0.1643 0.0
C3567 C 0.13609 0.61231 0.00068 0.0
H3568 H 0.1327 0.56923 0.13133 0.0
H3569 H 0.1242 0.60255 0.26869 0.0
H3570 H 0.14867 0.58266 0.99306 0.0
H3571 H 0.1629 0.58159 0.05112 0.0
H3572 H 0.15133 0.56849 0.05078 0.0
H3573 H 0.13772 0.62094 0.27019 0.0
H3574 H 0.1533 0.62026 0.22392 0.0
H3575 H 0.13932 0.6251 0.17057 0.0
H3576 H 0.18568 0.62154 0.08181 0.0
H3577 H 0.15219 0.63069 0.94733 0.0
H3578 H 0.17308 0.59141 0.16147 0.0
H3579 H 0.1723 0.60553 0.22052 0.0
H3580 H 0.18633 0.60281 0.16166 0.0
H3581 H 0.13414 0.60186 0.99228 0.0
H3582 H 0.13356 0.61754 0.9472 0.0
H3583 H 0.12964 0.61578 0.04706 0.0
C3584 C 0.15439 0.37919 0.99286 0.0
C3585 C 0.16675 0.37464 0.9746 0.0
C3586 C 0.14855 0.38903 0.95006 0.0
C3587 C 0.15515 0.39431 0.88625 0.0
C3588 C 0.16806 0.39047 0.87114 0.0
C3589 C 0.17379 0.38071 0.91615 0.0
C3590 C 0.13486 0.39297 0.9694 0.0
C3591 C 0.17544 0.39592 0.80407 0.0
C3592 C 0.13021 0.40245 0.73667 0.0
C3593 C 0.12781 0.41551 0.75235 0.0
C3594 C 0.14013 0.39575 0.77426 0.0
C3595 C 0.14767 0.40221 0.83015 0.0
C3596 C 0.14609 0.41571 0.84088 0.0
C3597 C 0.13617 0.42225 0.80141 0.0
C3598 C 0.14163 0.38142 0.75963 0.0
C3599 C 0.15395 0.42301 0.89933 0.0
H3600 H 0.14899 0.37456 0.03851 0.0
H3601 H 0.18336 0.37719 0.90187 0.0
H3602 H 0.13398 0.40366 0.97104 0.0
H3603 H 0.12818 0.38937 0.92445 0.0
H3604 H 0.13165 0.38903 0.02543 0.0
H3605 H 0.18586 0.39333 0.80624 0.0
H3606 H 0.17131 0.39208 0.75005 0.0
H3607 H 0.1745 0.40661 0.80223 0.0
H3608 H 0.1238 0.39727 0.69827 0.0
H3609 H 0.13429 0.43234 0.81399 0.0
H3610 H 0.13772 0.37594 0.80908 0.0
H3611 H 0.15198 0.37881 0.75351 0.0
H3612 H 0.1364 0.37829 0.70726 0.0
H3613 H 0.14973 0.42143 0.95695 0.0
H3614 H 0.15394 0.43357 0.88762 0.0
H3615 H 0.1641 0.41952 0.90071 0.0
loop_
_geom_bond_atom_site_label_1
_geom_bond_atom_site_label_2
_geom_bond_distance
_geom_bond_site_symmetry_2
_ccdc_geom_bond_type
C0 C1 1.351 . S
C0 N3 1.368 . S
C0 H5 0.931 . S
C1 C0 1.351 . S
C1 N2 1.373 . S
C1 H29 0.930 . S
N2 C1 1.373 . S
N2 C4 1.340 . S
N3 C0 1.368 . S
N3 C4 1.321 . S
N3 Co6 2.135 . S
C4 N2 1.340 . S
C4 N3 1.321 . S
C4 H28 0.930 . S
H5 C0 0.931 . S
Co6 N3 2.135 . S
Co6 N9 2.121 1_554 S
Co6 O14 2.055 . S
Co6 O17 2.039 . S
Co6 N20 2.140 . S
C7 O8 1.227 . S
C7 O17 1.265 . S
O8 C7 1.227 . S
N9 Co6 2.121 1_556 S
N9 C11 1.375 . S
N9 C12 1.313 . S
C10 C11 1.338 . S
C10 N13 1.377 . S
C10 H30 0.930 . S
C11 N9 1.375 . S
C11 C10 1.338 . S
C11 H15 0.931 . S
C12 N9 1.313 . S
C12 N13 1.344 . S
C12 H16 0.930 . S
N13 C10 1.377 . S
N13 C12 1.344 . S
O14 Co6 2.055 . S
O14 C18 1.253 . S
H15 C11 0.931 . S
H16 C12 0.930 . S
O17 Co6 2.039 . S
O17 C7 1.265 . S
C18 O14 1.253 . S
C18 O19 1.227 . S
O19 C18 1.227 . S
N20 Co6 2.140 . S
N20 C23 1.346 . S
N20 C24 1.345 . S
C21 C22 1.387 . S
C21 C25 1.391 . S
C22 C21 1.387 . S
C22 C23 1.369 . S
C22 H31 0.929 . S
C23 N20 1.346 . S
C23 C22 1.369 . S
C23 H26 0.928 . S
C24 N20 1.345 . S
C24 C25 1.371 . S
C24 H27 0.931 1_554 S
C25 C21 1.391 . S
C25 C24 1.371 . S
C25 H32 0.930 1_554 S
H26 C23 0.928 . S
H27 C24 0.931 1_556 S
H28 C4 0.930 . S
H29 C1 0.930 . S
H30 C10 0.930 . S
H31 C22 0.929 . S
H32 C25 0.930 1_556 S
C33 C34 1.351 . S
C33 N36 1.368 . S
C33 H38 0.931 . S
C34 C33 1.351 . S
C34 N35 1.373 . S
C34 H62 0.930 . S
N35 C34 1.373 . S
N35 C37 1.340 . S
N36 C33 1.368 . S
N36 C37 1.321 . S
N36 Co39 2.135 . S
C37 N35 1.340 . S
C37 N36 1.321 . S
C37 H61 0.930 . S
H38 C33 0.931 . S
Co39 N36 2.135 . S
Co39 N42 2.121 . S
Co39 O47 2.055 . S
Co39 O50 2.039 . S
Co39 N53 2.140 . S
C40 O41 1.227 . S
C40 O50 1.265 . S
O41 C40 1.227 . S
N42 Co39 2.121 . S
N42 C44 1.375 . S
N42 C45 1.313 . S
C43 C44 1.338 . S
C43 N46 1.377 . S
C43 H63 0.930 . S
C44 N42 1.375 . S
C44 C43 1.338 . S
C44 H48 0.931 . S
C45 N42 1.313 . S
C45 N46 1.344 . S
C45 H49 0.930 . S
N46 C43 1.377 . S
N46 C45 1.344 . S
O47 Co39 2.055 . S
O47 C51 1.253 . S
H48 C44 0.931 . S
H49 C45 0.930 . S
O50 Co39 2.039 . S
O50 C40 1.265 . S
C51 O47 1.253 . S
C51 O52 1.227 . S
O52 C51 1.227 . S
N53 Co39 2.140 . S
N53 C56 1.346 . S
N53 C57 1.345 . S
C54 C55 1.387 . S
C54 C58 1.391 . S
C55 C54 1.387 . S
C55 C56 1.369 . S
C55 H64 0.929 . S
C56 N53 1.346 . S
C56 C55 1.369 . S
C56 H59 0.928 . S
C57 N53 1.345 . S
C57 C58 1.371 . S
C57 H60 0.931 . S
C58 C54 1.391 . S
C58 C57 1.371 . S
C58 H65 0.930 . S
H59 C56 0.928 . S
H60 C57 0.931 . S
H61 C37 0.930 . S
H62 C34 0.930 . S
H63 C43 0.930 . S
H64 C55 0.929 . S
H65 C58 0.930 . S
C66 C67 1.351 . S
C66 N69 1.368 . S
C66 H71 0.931 . S
C67 C66 1.351 . S
C67 N68 1.373 . S
C67 H95 0.930 . S
N68 C67 1.373 . S
N68 C70 1.340 . S
N69 C66 1.368 . S
N69 C70 1.321 . S
N69 Co72 2.135 . S
C70 N68 1.340 . S
C70 N69 1.321 . S
C70 H94 0.930 . S
H71 C66 0.931 . S
Co72 N69 2.135 . S
Co72 N75 2.121 . S
Co72 O80 2.055 . S
Co72 O83 2.039 . S
Co72 N86 2.140 . S
C73 O74 1.227 . S
C73 O83 1.265 . S
O74 C73 1.227 . S
N75 Co72 2.121 . S
N75 C77 1.375 . S
N75 C78 1.313 . S
C76 C77 1.338 . S
C76 N79 1.377 . S
C76 H96 0.930 . S
C77 N75 1.375 . S
C77 C76 1.338 . S
C77 H81 0.931 . S
C78 N75 1.313 . S
C78 N79 1.344 . S
C78 H82 0.930 . S
N79 C76 1.377 . S
N79 C78 1.344 . S
O80 Co72 2.055 . S
O80 C84 1.253 . S
H81 C77 0.931 . S
H82 C78 0.930 . S
O83 Co72 2.039 . S
O83 C73 1.265 . S
C84 O80 1.253 . S
C84 O85 1.227 . S
O85 C84 1.227 . S
N86 Co72 2.140 . S
N86 C89 1.346 . S
N86 C90 1.345 . S
C87 C88 1.387 . S
C87 C91 1.391 . S
C88 C87 1.387 . S
C88 C89 1.369 . S
C88 H97 0.929 . S
C89 N86 1.346 . S
C89 C88 1.369 . S
C89 H92 0.928 . S
C90 N86 1.345 . S
C90 C91 1.371 . S
C90 H93 0.931 . S
C91 C87 1.391 . S
C91 C90 1.371 . S
C91 H98 0.930 . S
H92 C89 0.928 . S
H93 C90 0.931 . S
H94 C70 0.930 . S
H95 C67 0.930 . S
H96 C76 0.930 . S
H97 C88 0.929 . S
H98 C91 0.930 . S
C99 C100 1.351 1_556 S
C99 N102 1.368 . S
C99 H104 0.931 . S
C100 C99 1.351 1_554 S
C100 N101 1.373 . S
C100 H128 0.930 . S
N101 C100 1.373 . S
N101 C103 1.340 . S
N102 C99 1.368 . S
N102 C103 1.321 1_556 S
N102 Co105 2.135 . S
C103 N101 1.340 . S
C103 N102 1.321 1_554 S
C103 H127 0.930 . S
H104 C99 0.931 . S
Co105 N102 2.135 . S
Co105 N108 2.121 . S
Co105 O113 2.055 . S
Co105 O116 2.039 . S
Co105 N119 2.140 . S
C106 O107 1.227 . S
C106 O116 1.265 . S
O107 C106 1.227 . S
N108 Co105 2.121 . S
N108 C110 1.375 . S
N108 C111 1.313 . S
C109 C110 1.338 . S
C109 N112 1.377 . S
C109 H129 0.930 . S
C110 N108 1.375 . S
C110 C109 1.338 . S
C110 H114 0.931 . S
C111 N108 1.313 . S
C111 N112 1.344 . S
C111 H115 0.930 . S
N112 C109 1.377 . S
N112 C111 1.344 . S
O113 Co105 2.055 . S
O113 C117 1.253 . S
H114 C110 0.931 . S
H115 C111 0.930 . S
O116 Co105 2.039 . S
O116 C106 1.265 . S
C117 O113 1.253 . S
C117 O118 1.227 . S
O118 C117 1.227 . S
N119 Co105 2.140 . S
N119 C122 1.346 . S
N119 C123 1.345 . S
C120 C121 1.387 . S
C120 C124 1.391 . S
C121 C120 1.387 . S
C121 C122 1.369 . S
C121 H130 0.929 . S
C122 N119 1.346 . S
C122 C121 1.369 . S
C122 H125 0.928 . S
C123 N119 1.345 . S
C123 C124 1.371 . S
C123 H126 0.931 . S
C124 C120 1.391 . S
C124 C123 1.371 . S
C124 H131 0.930 . S
H125 C122 0.928 . S
H126 C123 0.931 . S
H127 C103 0.930 . S
H128 C100 0.930 . S
H129 C109 0.930 . S
H130 C121 0.929 . S
H131 C124 0.930 . S
C132 C133 1.351 . S
C132 N135 1.368 . S
C132 H137 0.931 . S
C133 C132 1.351 . S
C133 N134 1.373 . S
C133 H161 0.930 . S
N134 C133 1.373 . S
N134 C136 1.340 . S
N135 C132 1.368 . S
N135 C136 1.321 . S
N135 Co138 2.135 . S
C136 N134 1.340 . S
C136 N135 1.321 . S
C136 H160 0.930 . S
H137 C132 0.931 . S
Co138 N135 2.135 . S
Co138 N141 2.121 1_556 S
Co138 O146 2.055 . S
Co138 O149 2.039 . S
Co138 N152 2.140 . S
C139 O140 1.227 . S
C139 O149 1.265 . S
O140 C139 1.227 . S
N141 Co138 2.121 1_554 S
N141 C143 1.375 . S
N141 C144 1.313 . S
C142 C143 1.338 . S
C142 N145 1.377 . S
C142 H162 0.930 . S
C143 N141 1.375 . S
C143 C142 1.338 . S
C143 H147 0.931 . S
C144 N141 1.313 . S
C144 N145 1.344 . S
C144 H148 0.930 . S
N145 C142 1.377 . S
N145 C144 1.344 . S
O146 Co138 2.055 . S
O146 C150 1.253 . S
H147 C143 0.931 . S
H148 C144 0.930 . S
O149 Co138 2.039 . S
O149 C139 1.265 . S
C150 O146 1.253 . S
C150 O151 1.227 . S
O151 C150 1.227 . S
N152 Co138 2.140 . S
N152 C155 1.346 . S
N152 C156 1.345 . S
C153 C154 1.387 . S
C153 C157 1.391 . S
C154 C153 1.387 . S
C154 C155 1.369 . S
C154 H163 0.929 . S
C155 N152 1.346 . S
C155 C154 1.369 . S
C155 H158 0.928 . S
C156 N152 1.345 . S
C156 C157 1.371 . S
C156 H159 0.931 1_556 S
C157 C153 1.391 . S
C157 C156 1.371 . S
C157 H164 0.930 1_556 S
H158 C155 0.928 . S
H159 C156 0.931 1_554 S
H160 C136 0.930 . S
H161 C133 0.930 . S
H162 C142 0.930 . S
H163 C154 0.929 . S
H164 C157 0.930 1_554 S
C165 C166 1.351 1_554 S
C165 N168 1.368 . S
C165 H170 0.931 . S
C166 C165 1.351 1_556 S
C166 N167 1.373 . S
C166 H194 0.930 . S
N167 C166 1.373 . S
N167 C169 1.340 . S
N168 C165 1.368 . S
N168 C169 1.321 1_554 S
N168 Co171 2.135 . S
C169 N167 1.340 . S
C169 N168 1.321 1_556 S
C169 H193 0.930 . S
H170 C165 0.931 . S
Co171 N168 2.135 . S
Co171 N174 2.121 . S
Co171 O179 2.055 . S
Co171 O182 2.039 . S
Co171 N185 2.140 . S
C172 O173 1.227 . S
C172 O182 1.265 . S
O173 C172 1.227 . S
N174 Co171 2.121 . S
N174 C176 1.375 . S
N174 C177 1.313 . S
C175 C176 1.338 . S
C175 N178 1.377 . S
C175 H195 0.930 . S
C176 N174 1.375 . S
C176 C175 1.338 . S
C176 H180 0.931 . S
C177 N174 1.313 . S
C177 N178 1.344 . S
C177 H181 0.930 . S
N178 C175 1.377 . S
N178 C177 1.344 . S
O179 Co171 2.055 . S
O179 C183 1.253 . S
H180 C176 0.931 . S
H181 C177 0.930 . S
O182 Co171 2.039 . S
O182 C172 1.265 . S
C183 O179 1.253 . S
C183 O184 1.227 . S
O184 C183 1.227 . S
N185 Co171 2.140 . S
N185 C188 1.346 . S
N185 C189 1.345 . S
C186 C187 1.387 . S
C186 C190 1.391 . S
C187 C186 1.387 . S
C187 C188 1.369 . S
C187 H196 0.929 . S
C188 N185 1.346 . S
C188 C187 1.369 . S
C188 H191 0.928 . S
C189 N185 1.345 . S
C189 C190 1.371 . S
C189 H192 0.931 . S
C190 C186 1.391 . S
C190 C189 1.371 . S
C190 H197 0.930 . S
H191 C188 0.928 . S
H192 C189 0.931 . S
H193 C169 0.930 . S
H194 C166 0.930 . S
H195 C175 0.930 . S
H196 C187 0.929 . S
H197 C190 0.930 . S
C198 C199 1.351 . S
C198 N201 1.368 . S
C198 H203 0.931 . S
C199 C198 1.351 . S
C199 N200 1.373 . S
C199 H227 0.930 . S
N200 C199 1.373 . S
N200 C202 1.340 . S
N201 C198 1.368 . S
N201 C202 1.321 . S
N201 Co204 2.135 . S
C202 N200 1.340 . S
C202 N201 1.321 . S
C202 H226 0.930 . S
H203 C198 0.931 . S
Co204 N201 2.135 . S
Co204 N207 2.121 . S
Co204 O212 2.055 . S
Co204 O215 2.039 . S
Co204 N218 2.140 . S
C205 O206 1.227 . S
C205 O215 1.265 . S
O206 C205 1.227 . S
N207 Co204 2.121 . S
N207 C209 1.375 . S
N207 C210 1.313 . S
C208 C209 1.338 . S
C208 N211 1.377 . S
C208 H228 0.930 . S
C209 N207 1.375 . S
C209 C208 1.338 . S
C209 H213 0.931 . S
C210 N207 1.313 . S
C210 N211 1.344 . S
C210 H214 0.930 . S
N211 C208 1.377 . S
N211 C210 1.344 . S
O212 Co204 2.055 . S
O212 C216 1.253 . S
H213 C209 0.931 . S
H214 C210 0.930 . S
O215 Co204 2.039 . S
O215 C205 1.265 . S
C216 O212 1.253 . S
C216 O217 1.227 . S
O217 C216 1.227 . S
N218 Co204 2.140 . S
N218 C221 1.346 . S
N218 C222 1.345 . S
C219 C220 1.387 . S
C219 C223 1.391 . S
C220 C219 1.387 . S
C220 C221 1.369 . S
C220 H229 0.929 . S
C221 N218 1.346 . S
C221 C220 1.369 . S
C221 H224 0.928 . S
C222 N218 1.345 . S
C222 C223 1.371 . S
C222 H225 0.931 . S
C223 C219 1.391 . S
C223 C222 1.371 . S
C223 H230 0.930 . S
H224 C221 0.928 . S
H225 C222 0.931 . S
H226 C202 0.930 . S
H227 C199 0.930 . S
H228 C208 0.930 . S
H229 C220 0.929 . S
H230 C223 0.930 . S
C231 C232 1.351 . S
C231 N234 1.368 . S
C231 H236 0.931 . S
C232 C231 1.351 . S
C232 N233 1.373 . S
C232 H260 0.930 . S
N233 C232 1.373 . S
N233 C235 1.340 . S
N234 C231 1.368 . S
N234 C235 1.321 . S
N234 Co237 2.135 . S
C235 N233 1.340 . S
C235 N234 1.321 . S
C235 H259 0.930 . S
H236 C231 0.931 . S
Co237 N234 2.135 . S
Co237 N240 2.121 . S
Co237 O245 2.055 . S
Co237 O248 2.039 . S
Co237 N251 2.140 . S
C238 O239 1.227 . S
C238 O248 1.265 . S
O239 C238 1.227 . S
N240 Co237 2.121 . S
N240 C242 1.375 . S
N240 C243 1.313 . S
C241 C242 1.338 . S
C241 N244 1.377 . S
C241 H261 0.930 . S
C242 N240 1.375 . S
C242 C241 1.338 . S
C242 H246 0.931 . S
C243 N240 1.313 . S
C243 N244 1.344 . S
C243 H247 0.930 . S
N244 C241 1.377 . S
N244 C243 1.344 . S
O245 Co237 2.055 . S
O245 C249 1.253 . S
H246 C242 0.931 . S
H247 C243 0.930 . S
O248 Co237 2.039 . S
O248 C238 1.265 . S
C249 O245 1.253 . S
C249 O250 1.227 . S
O250 C249 1.227 . S
N251 Co237 2.140 . S
N251 C254 1.346 . S
N251 C255 1.345 . S
C252 C253 1.387 . S
C252 C256 1.391 . S
C253 C252 1.387 . S
C253 C254 1.369 . S
C253 H262 0.929 . S
C254 N251 1.346 . S
C254 C253 1.369 . S
C254 H257 0.928 . S
C255 N251 1.345 . S
C255 C256 1.371 . S
C255 H258 0.931 . S
C256 C252 1.391 . S
C256 C255 1.371 . S
C256 H263 0.930 . S
H257 C254 0.928 . S
H258 C255 0.931 . S
H259 C235 0.930 . S
H260 C232 0.930 . S
H261 C241 0.930 . S
H262 C253 0.929 . S
H263 C256 0.930 . S
C264 C265 1.351 . S
C264 N267 1.368 . S
C264 H269 0.931 . S
C265 C264 1.351 . S
C265 N266 1.373 . S
C265 H293 0.930 . S
N266 C265 1.373 . S
N266 C268 1.340 . S
N267 C264 1.368 . S
N267 C268 1.321 . S
N267 Co270 2.135 . S
C268 N266 1.340 . S
C268 N267 1.321 . S
C268 H292 0.930 . S
H269 C264 0.931 . S
Co270 N267 2.135 . S
Co270 N273 2.121 1_556 S
Co270 O278 2.055 . S
Co270 O281 2.039 . S
Co270 N284 2.140 . S
C271 O272 1.227 . S
C271 O281 1.265 . S
O272 C271 1.227 . S
N273 Co270 2.121 1_554 S
N273 C275 1.375 . S
N273 C276 1.313 . S
C274 C275 1.338 . S
C274 N277 1.377 . S
C274 H294 0.930 . S
C275 N273 1.375 . S
C275 C274 1.338 . S
C275 H279 0.931 . S
C276 N273 1.313 . S
C276 N277 1.344 . S
C276 H280 0.930 . S
N277 C274 1.377 . S
N277 C276 1.344 . S
O278 Co270 2.055 . S
O278 C282 1.253 . S
H279 C275 0.931 . S
H280 C276 0.930 . S
O281 Co270 2.039 . S
O281 C271 1.265 . S
C282 O278 1.253 . S
C282 O283 1.227 . S
O283 C282 1.227 . S
N284 Co270 2.140 . S
N284 C287 1.346 . S
N284 C288 1.345 . S
C285 C286 1.387 . S
C285 C289 1.391 . S
C286 C285 1.387 . S
C286 C287 1.369 . S
C286 H295 0.929 . S
C287 N284 1.346 . S
C287 C286 1.369 . S
C287 H290 0.928 . S
C288 N284 1.345 . S
C288 C289 1.371 . S
C288 H291 0.931 1_556 S
C289 C285 1.391 . S
C289 C288 1.371 . S
C289 H296 0.930 1_556 S
H290 C287 0.928 . S
H291 C288 0.931 1_554 S
H292 C268 0.930 . S
H293 C265 0.930 . S
H294 C274 0.930 . S
H295 C286 0.929 . S
H296 C289 0.930 1_554 S
C297 C298 1.351 . S
C297 N300 1.368 . S
C297 H302 0.931 . S
C298 C297 1.351 . S
C298 N299 1.373 . S
C298 H326 0.930 . S
N299 C298 1.373 . S
N299 C301 1.340 . S
N300 C297 1.368 . S
N300 C301 1.321 . S
N300 Co303 2.135 . S
C301 N299 1.340 . S
C301 N300 1.321 . S
C301 H325 0.930 . S
H302 C297 0.931 . S
Co303 N300 2.135 . S
Co303 N306 2.121 . S
Co303 O311 2.055 . S
Co303 O314 2.039 . S
Co303 N317 2.140 . S
C304 O305 1.227 . S
C304 O314 1.265 . S
O305 C304 1.227 . S
N306 Co303 2.121 . S
N306 C308 1.375 . S
N306 C309 1.313 . S
C307 C308 1.338 . S
C307 N310 1.377 . S
C307 H327 0.930 . S
C308 N306 1.375 . S
C308 C307 1.338 . S
C308 H312 0.931 . S
C309 N306 1.313 . S
C309 N310 1.344 . S
C309 H313 0.930 . S
N310 C307 1.377 . S
N310 C309 1.344 . S
O311 Co303 2.055 . S
O311 C315 1.253 . S
H312 C308 0.931 . S
H313 C309 0.930 . S
O314 Co303 2.039 . S
O314 C304 1.265 . S
C315 O311 1.253 . S
C315 O316 1.227 . S
O316 C315 1.227 . S
N317 Co303 2.140 . S
N317 C320 1.346 . S
N317 C321 1.345 . S
C318 C319 1.387 . S
C318 C322 1.391 . S
C319 C318 1.387 . S
C319 C320 1.369 . S
C319 H328 0.929 . S
C320 N317 1.346 . S
C320 C319 1.369 . S
C320 H323 0.928 . S
C321 N317 1.345 . S
C321 C322 1.371 . S
C321 H324 0.931 . S
C322 C318 1.391 . S
C322 C321 1.371 . S
C322 H329 0.930 . S
H323 C320 0.928 . S
H324 C321 0.931 . S
H325 C301 0.930 . S
H326 C298 0.930 . S
H327 C307 0.930 . S
H328 C319 0.929 . S
H329 C322 0.930 . S
C330 C331 1.351 . S
C330 N333 1.368 . S
C330 H335 0.931 . S
C331 C330 1.351 . S
C331 N332 1.373 . S
C331 H359 0.930 . S
N332 C331 1.373 . S
N332 C334 1.340 . S
N333 C330 1.368 . S
N333 C334 1.321 . S
N333 Co336 2.135 . S
C334 N332 1.340 . S
C334 N333 1.321 . S
C334 H358 0.930 . S
H335 C330 0.931 . S
Co336 N333 2.135 . S
Co336 N339 2.121 . S
Co336 O344 2.055 . S
Co336 O347 2.039 . S
Co336 N350 2.140 . S
C337 O338 1.227 . S
C337 O347 1.265 . S
O338 C337 1.227 . S
N339 Co336 2.121 . S
N339 C341 1.375 . S
N339 C342 1.313 . S
C340 C341 1.338 . S
C340 N343 1.377 . S
C340 H360 0.930 . S
C341 N339 1.375 . S
C341 C340 1.338 . S
C341 H345 0.931 . S
C342 N339 1.313 . S
C342 N343 1.344 . S
C342 H346 0.930 . S
N343 C340 1.377 . S
N343 C342 1.344 . S
O344 Co336 2.055 . S
O344 C348 1.253 . S
H345 C341 0.931 . S
H346 C342 0.930 . S
O347 Co336 2.039 . S
O347 C337 1.265 . S
C348 O344 1.253 . S
C348 O349 1.227 . S
O349 C348 1.227 . S
N350 Co336 2.140 . S
N350 C353 1.346 . S
N350 C354 1.345 . S
C351 C352 1.387 . S
C351 C355 1.391 . S
C352 C351 1.387 . S
C352 C353 1.369 . S
C352 H361 0.929 . S
C353 N350 1.346 . S
C353 C352 1.369 . S
C353 H356 0.928 . S
C354 N350 1.345 . S
C354 C355 1.371 . S
C354 H357 0.931 . S
C355 C351 1.391 . S
C355 C354 1.371 . S
C355 H362 0.930 . S
H356 C353 0.928 . S
H357 C354 0.931 . S
H358 C334 0.930 . S
H359 C331 0.930 . S
H360 C340 0.930 . S
H361 C352 0.929 . S
H362 C355 0.930 . S
C363 C364 1.351 1_554 S
C363 N366 1.368 . S
C363 H368 0.931 . S
C364 C363 1.351 1_556 S
C364 N365 1.373 . S
C364 H392 0.930 . S
N365 C364 1.373 . S
N365 C367 1.340 . S
N366 C363 1.368 . S
N366 C367 1.321 1_554 S
N366 Co369 2.135 . S
C367 N365 1.340 . S
C367 N366 1.321 1_556 S
C367 H391 0.930 . S
H368 C363 0.931 . S
Co369 N366 2.135 . S
Co369 N372 2.121 . S
Co369 O377 2.055 . S
Co369 O380 2.039 . S
Co369 N383 2.140 . S
C370 O371 1.227 . S
C370 O380 1.265 . S
O371 C370 1.227 . S
N372 Co369 2.121 . S
N372 C374 1.375 . S
N372 C375 1.313 . S
C373 C374 1.338 . S
C373 N376 1.377 . S
C373 H393 0.930 . S
C374 N372 1.375 . S
C374 C373 1.338 . S
C374 H378 0.931 . S
C375 N372 1.313 . S
C375 N376 1.344 . S
C375 H379 0.930 . S
N376 C373 1.377 . S
N376 C375 1.344 . S
O377 Co369 2.055 . S
O377 C381 1.253 . S
H378 C374 0.931 . S
H379 C375 0.930 . S
O380 Co369 2.039 . S
O380 C370 1.265 . S
C381 O377 1.253 . S
C381 O382 1.227 . S
O382 C381 1.227 . S
N383 Co369 2.140 . S
N383 C386 1.346 . S
N383 C387 1.345 . S
C384 C385 1.387 . S
C384 C388 1.391 . S
C385 C384 1.387 . S
C385 C386 1.369 . S
C385 H394 0.929 . S
C386 N383 1.346 . S
C386 C385 1.369 . S
C386 H389 0.928 . S
C387 N383 1.345 . S
C387 C388 1.371 . S
C387 H390 0.931 . S
C388 C384 1.391 . S
C388 C387 1.371 . S
C388 H395 0.930 . S
H389 C386 0.928 . S
H390 C387 0.931 . S
H391 C367 0.930 . S
H392 C364 0.930 . S
H393 C373 0.930 . S
H394 C385 0.929 . S
H395 C388 0.930 . S
C396 C397 1.351 . S
C396 N399 1.368 . S
C396 H401 0.931 . S
C397 C396 1.351 . S
C397 N398 1.373 . S
C397 H425 0.930 . S
N398 C397 1.373 . S
N398 C400 1.340 . S
N399 C396 1.368 . S
N399 C400 1.321 . S
N399 Co402 2.135 . S
C400 N398 1.340 . S
C400 N399 1.321 . S
C400 H424 0.930 . S
H401 C396 0.931 . S
Co402 N399 2.135 . S
Co402 N405 2.121 1_554 S
Co402 O410 2.055 . S
Co402 O413 2.039 . S
Co402 N416 2.140 . S
C403 O404 1.227 . S
C403 O413 1.265 . S
O404 C403 1.227 . S
N405 Co402 2.121 1_556 S
N405 C407 1.375 . S
N405 C408 1.313 . S
C406 C407 1.338 . S
C406 N409 1.377 . S
C406 H426 0.930 . S
C407 N405 1.375 . S
C407 C406 1.338 . S
C407 H411 0.931 . S
C408 N405 1.313 . S
C408 N409 1.344 . S
C408 H412 0.930 . S
N409 C406 1.377 . S
N409 C408 1.344 . S
O410 Co402 2.055 . S
O410 C414 1.253 . S
H411 C407 0.931 . S
H412 C408 0.930 . S
O413 Co402 2.039 . S
O413 C403 1.265 . S
C414 O410 1.253 . S
C414 O415 1.227 . S
O415 C414 1.227 . S
N416 Co402 2.140 . S
N416 C419 1.346 . S
N416 C420 1.345 . S
C417 C418 1.387 . S
C417 C421 1.391 . S
C418 C417 1.387 . S
C418 C419 1.369 . S
C418 H427 0.929 . S
C419 N416 1.346 . S
C419 C418 1.369 . S
C419 H422 0.928 . S
C420 N416 1.345 . S
C420 C421 1.371 . S
C420 H423 0.931 1_554 S
C421 C417 1.391 . S
C421 C420 1.371 . S
C421 H428 0.930 1_554 S
H422 C419 0.928 . S
H423 C420 0.931 1_556 S
H424 C400 0.930 . S
H425 C397 0.930 . S
H426 C406 0.930 . S
H427 C418 0.929 . S
H428 C421 0.930 1_556 S
C429 C430 1.351 1_556 S
C429 N432 1.368 . S
C429 H434 0.931 . S
C430 C429 1.351 1_554 S
C430 N431 1.373 . S
C430 H458 0.930 . S
N431 C430 1.373 . S
N431 C433 1.340 . S
N432 C429 1.368 . S
N432 C433 1.321 1_556 S
N432 Co435 2.135 . S
C433 N431 1.340 . S
C433 N432 1.321 1_554 S
C433 H457 0.930 . S
H434 C429 0.931 . S
Co435 N432 2.135 . S
Co435 N438 2.121 . S
Co435 O443 2.055 . S
Co435 O446 2.039 . S
Co435 N449 2.140 . S
C436 O437 1.227 . S
C436 O446 1.265 . S
O437 C436 1.227 . S
N438 Co435 2.121 . S
N438 C440 1.375 . S
N438 C441 1.313 . S
C439 C440 1.338 . S
C439 N442 1.377 . S
C439 H459 0.930 . S
C440 N438 1.375 . S
C440 C439 1.338 . S
C440 H444 0.931 . S
C441 N438 1.313 . S
C441 N442 1.344 . S
C441 H445 0.930 . S
N442 C439 1.377 . S
N442 C441 1.344 . S
O443 Co435 2.055 . S
O443 C447 1.253 . S
H444 C440 0.931 . S
H445 C441 0.930 . S
O446 Co435 2.039 . S
O446 C436 1.265 . S
C447 O443 1.253 . S
C447 O448 1.227 . S
O448 C447 1.227 . S
N449 Co435 2.140 . S
N449 C452 1.346 . S
N449 C453 1.345 . S
C450 C451 1.387 . S
C450 C454 1.391 . S
C451 C450 1.387 . S
C451 C452 1.369 . S
C451 H460 0.929 . S
C452 N449 1.346 . S
C452 C451 1.369 . S
C452 H455 0.928 . S
C453 N449 1.345 . S
C453 C454 1.371 . S
C453 H456 0.931 . S
C454 C450 1.391 . S
C454 C453 1.371 . S
C454 H461 0.930 . S
H455 C452 0.928 . S
H456 C453 0.931 . S
H457 C433 0.930 . S
H458 C430 0.930 . S
H459 C439 0.930 . S
H460 C451 0.929 . S
H461 C454 0.930 . S
C462 C463 1.351 . S
C462 N465 1.368 . S
C462 H467 0.931 . S
C463 C462 1.351 . S
C463 N464 1.373 . S
C463 H491 0.930 . S
N464 C463 1.373 . S
N464 C466 1.340 . S
N465 C462 1.368 . S
N465 C466 1.321 . S
N465 Co468 2.135 . S
C466 N464 1.340 . S
C466 N465 1.321 . S
C466 H490 0.930 . S
H467 C462 0.931 . S
Co468 N465 2.135 . S
Co468 N471 2.121 . S
Co468 O476 2.055 . S
Co468 O479 2.039 . S
Co468 N482 2.140 . S
C469 O470 1.227 . S
C469 O479 1.265 . S
O470 C469 1.227 . S
N471 Co468 2.121 . S
N471 C473 1.375 . S
N471 C474 1.313 . S
C472 C473 1.338 . S
C472 N475 1.377 . S
C472 H492 0.930 . S
C473 N471 1.375 . S
C473 C472 1.338 . S
C473 H477 0.931 . S
C474 N471 1.313 . S
C474 N475 1.344 . S
C474 H478 0.930 . S
N475 C472 1.377 . S
N475 C474 1.344 . S
O476 Co468 2.055 . S
O476 C480 1.253 . S
H477 C473 0.931 . S
H478 C474 0.930 . S
O479 Co468 2.039 . S
O479 C469 1.265 . S
C480 O476 1.253 . S
C480 O481 1.227 . S
O481 C480 1.227 . S
N482 Co468 2.140 . S
N482 C485 1.346 . S
N482 C486 1.345 . S
C483 C484 1.387 . S
C483 C487 1.391 . S
C484 C483 1.387 . S
C484 C485 1.369 . S
C484 H493 0.929 . S
C485 N482 1.346 . S
C485 C484 1.369 . S
C485 H488 0.928 . S
C486 N482 1.345 . S
C486 C487 1.371 . S
C486 H489 0.931 . S
C487 C483 1.391 . S
C487 C486 1.371 . S
C487 H494 0.930 . S
H488 C485 0.928 . S
H489 C486 0.931 . S
H490 C466 0.930 . S
H491 C463 0.930 . S
H492 C472 0.930 . S
H493 C484 0.929 . S
H494 C487 0.930 . S
C495 C496 1.351 . S
C495 N498 1.368 . S
C495 H500 0.931 . S
C496 C495 1.351 . S
C496 N497 1.373 . S
C496 H524 0.930 . S
N497 C496 1.373 . S
N497 C499 1.340 . S
N498 C495 1.368 . S
N498 C499 1.321 . S
N498 Co501 2.135 . S
C499 N497 1.340 . S
C499 N498 1.321 . S
C499 H523 0.930 . S
H500 C495 0.931 . S
Co501 N498 2.135 . S
Co501 N504 2.121 . S
Co501 O509 2.055 . S
Co501 O512 2.039 . S
Co501 N515 2.140 . S
C502 O503 1.227 . S
C502 O512 1.265 . S
O503 C502 1.227 . S
N504 Co501 2.121 . S
N504 C506 1.375 . S
N504 C507 1.313 . S
C505 C506 1.338 . S
C505 N508 1.377 . S
C505 H525 0.930 . S
C506 N504 1.375 . S
C506 C505 1.338 . S
C506 H510 0.931 . S
C507 N504 1.313 . S
C507 N508 1.344 . S
C507 H511 0.930 . S
N508 C505 1.377 . S
N508 C507 1.344 . S
O509 Co501 2.055 . S
O509 C513 1.253 . S
H510 C506 0.931 . S
H511 C507 0.930 . S
O512 Co501 2.039 . S
O512 C502 1.265 . S
C513 O509 1.253 . S
C513 O514 1.227 . S
O514 C513 1.227 . S
N515 Co501 2.140 . S
N515 C518 1.346 . S
N515 C519 1.345 . S
C516 C517 1.387 . S
C516 C520 1.391 . S
C517 C516 1.387 . S
C517 C518 1.369 . S
C517 H526 0.929 . S
C518 N515 1.346 . S
C518 C517 1.369 . S
C518 H521 0.928 . S
C519 N515 1.345 . S
C519 C520 1.371 . S
C519 H522 0.931 . S
C520 C516 1.391 . S
C520 C519 1.371 . S
C520 H527 0.930 . S
H521 C518 0.928 . S
H522 C519 0.931 . S
H523 C499 0.930 . S
H524 C496 0.930 . S
H525 C505 0.930 . S
H526 C517 0.929 . S
H527 C520 0.930 . S
C528 C529 1.351 . S
C528 N531 1.368 . S
C528 H533 0.931 . S
C529 C528 1.351 . S
C529 N530 1.373 . S
C529 H557 0.930 . S
N530 C529 1.373 . S
N530 C532 1.340 . S
N531 C528 1.368 . S
N531 C532 1.321 . S
N531 Co534 2.135 . S
C532 N530 1.340 . S
C532 N531 1.321 . S
C532 H556 0.930 . S
H533 C528 0.931 . S
Co534 N531 2.135 . S
Co534 N537 2.121 . S
Co534 O542 2.055 . S
Co534 O545 2.039 . S
Co534 N548 2.140 . S
C535 O536 1.227 . S
C535 O545 1.265 . S
O536 C535 1.227 . S
N537 Co534 2.121 . S
N537 C539 1.375 . S
N537 C540 1.313 . S
C538 C539 1.338 . S
C538 N541 1.377 . S
C538 H558 0.930 . S
C539 N537 1.375 . S
C539 C538 1.338 . S
C539 H543 0.931 . S
C540 N537 1.313 . S
C540 N541 1.344 . S
C540 H544 0.930 . S
N541 C538 1.377 . S
N541 C540 1.344 . S
O542 Co534 2.055 . S
O542 C546 1.253 . S
H543 C539 0.931 . S
H544 C540 0.930 . S
O545 Co534 2.039 . S
O545 C535 1.265 . S
C546 O542 1.253 . S
C546 O547 1.227 . S
O547 C546 1.227 . S
N548 Co534 2.140 . S
N548 C551 1.346 . S
N548 C552 1.345 . S
C549 C550 1.387 . S
C549 C553 1.391 . S
C550 C549 1.387 . S
C550 C551 1.369 . S
C550 H559 0.929 . S
C551 N548 1.346 . S
C551 C550 1.369 . S
C551 H554 0.928 . S
C552 N548 1.345 . S
C552 C553 1.371 . S
C552 H555 0.931 . S
C553 C549 1.391 . S
C553 C552 1.371 . S
C553 H560 0.930 . S
H554 C551 0.928 . S
H555 C552 0.931 . S
H556 C532 0.930 . S
H557 C529 0.930 . S
H558 C538 0.930 . S
H559 C550 0.929 . S
H560 C553 0.930 . S
C561 C562 1.351 1_556 S
C561 N564 1.368 . S
C561 H566 0.931 . S
C562 C561 1.351 1_554 S
C562 N563 1.373 . S
C562 H590 0.930 . S
N563 C562 1.373 . S
N563 C565 1.340 . S
N564 C561 1.368 . S
N564 C565 1.321 1_556 S
N564 Co567 2.135 . S
C565 N563 1.340 . S
C565 N564 1.321 1_554 S
C565 H589 0.930 . S
H566 C561 0.931 . S
Co567 N564 2.135 . S
Co567 N570 2.121 . S
Co567 O575 2.055 . S
Co567 O578 2.039 . S
Co567 N581 2.140 . S
C568 O569 1.227 . S
C568 O578 1.265 . S
O569 C568 1.227 . S
N570 Co567 2.121 . S
N570 C572 1.375 . S
N570 C573 1.313 . S
C571 C572 1.338 . S
C571 N574 1.377 . S
C571 H591 0.930 . S
C572 N570 1.375 . S
C572 C571 1.338 . S
C572 H576 0.931 . S
C573 N570 1.313 . S
C573 N574 1.344 . S
C573 H577 0.930 . S
N574 C571 1.377 . S
N574 C573 1.344 . S
O575 Co567 2.055 . S
O575 C579 1.253 . S
H576 C572 0.931 . S
H577 C573 0.930 . S
O578 Co567 2.039 . S
O578 C568 1.265 . S
C579 O575 1.253 . S
C579 O580 1.227 . S
O580 C579 1.227 . S
N581 Co567 2.140 . S
N581 C584 1.346 . S
N581 C585 1.345 . S
C582 C583 1.387 . S
C582 C586 1.391 . S
C583 C582 1.387 . S
C583 C584 1.369 . S
C583 H592 0.929 . S
C584 N581 1.346 . S
C584 C583 1.369 . S
C584 H587 0.928 . S
C585 N581 1.345 . S
C585 C586 1.371 . S
C585 H588 0.931 . S
C586 C582 1.391 . S
C586 C585 1.371 . S
C586 H593 0.930 . S
H587 C584 0.928 . S
H588 C585 0.931 . S
H589 C565 0.930 . S
H590 C562 0.930 . S
H591 C571 0.930 . S
H592 C583 0.929 . S
H593 C586 0.930 . S
C594 C595 1.351 . S
C594 N597 1.368 . S
C594 H599 0.931 . S
C595 C594 1.351 . S
C595 N596 1.373 . S
C595 H623 0.930 . S
N596 C595 1.373 . S
N596 C598 1.340 . S
N597 C594 1.368 . S
N597 C598 1.321 . S
N597 Co600 2.135 . S
C598 N596 1.340 . S
C598 N597 1.321 . S
C598 H622 0.930 . S
H599 C594 0.931 . S
Co600 N597 2.135 . S
Co600 N603 2.121 1_554 S
Co600 O608 2.055 . S
Co600 O611 2.039 . S
Co600 N614 2.140 . S
C601 O602 1.227 . S
C601 O611 1.265 . S
O602 C601 1.227 . S
N603 Co600 2.121 1_556 S
N603 C605 1.375 . S
N603 C606 1.313 . S
C604 C605 1.338 . S
C604 N607 1.377 . S
C604 H624 0.930 . S
C605 N603 1.375 . S
C605 C604 1.338 . S
C605 H609 0.931 . S
C606 N603 1.313 . S
C606 N607 1.344 . S
C606 H610 0.930 . S
N607 C604 1.377 . S
N607 C606 1.344 . S
O608 Co600 2.055 . S
O608 C612 1.253 . S
H609 C605 0.931 . S
H610 C606 0.930 . S
O611 Co600 2.039 . S
O611 C601 1.265 . S
C612 O608 1.253 . S
C612 O613 1.227 . S
O613 C612 1.227 . S
N614 Co600 2.140 . S
N614 C617 1.346 . S
N614 C618 1.345 . S
C615 C616 1.387 . S
C615 C619 1.391 . S
C616 C615 1.387 . S
C616 C617 1.369 . S
C616 H625 0.929 . S
C617 N614 1.346 . S
C617 C616 1.369 . S
C617 H620 0.928 . S
C618 N614 1.345 . S
C618 C619 1.371 . S
C618 H621 0.931 1_554 S
C619 C615 1.391 . S
C619 C618 1.371 . S
C619 H626 0.930 1_554 S
H620 C617 0.928 . S
H621 C618 0.931 1_556 S
H622 C598 0.930 . S
H623 C595 0.930 . S
H624 C604 0.930 . S
H625 C616 0.929 . S
H626 C619 0.930 1_556 S
C627 C628 1.351 . S
C627 N630 1.368 . S
C627 H632 0.931 . S
C628 C627 1.351 . S
C628 N629 1.373 . S
C628 H656 0.930 . S
N629 C628 1.373 . S
N629 C631 1.340 . S
N630 C627 1.368 . S
N630 C631 1.321 . S
N630 Co633 2.135 . S
C631 N629 1.340 . S
C631 N630 1.321 . S
C631 H655 0.930 . S
H632 C627 0.931 . S
Co633 N630 2.135 . S
Co633 N636 2.121 . S
Co633 O641 2.055 . S
Co633 O644 2.039 . S
Co633 N647 2.140 . S
C634 O635 1.227 . S
C634 O644 1.265 . S
O635 C634 1.227 . S
N636 Co633 2.121 . S
N636 C638 1.375 . S
N636 C639 1.313 . S
C637 C638 1.338 . S
C637 N640 1.377 . S
C637 H657 0.930 . S
C638 N636 1.375 . S
C638 C637 1.338 . S
C638 H642 0.931 . S
C639 N636 1.313 . S
C639 N640 1.344 . S
C639 H643 0.930 . S
N640 C637 1.377 . S
N640 C639 1.344 . S
O641 Co633 2.055 . S
O641 C645 1.253 . S
H642 C638 0.931 . S
H643 C639 0.930 . S
O644 Co633 2.039 . S
O644 C634 1.265 . S
C645 O641 1.253 . S
C645 O646 1.227 . S
O646 C645 1.227 . S
N647 Co633 2.140 . S
N647 C650 1.346 . S
N647 C651 1.345 . S
C648 C649 1.387 . S
C648 C652 1.391 . S
C649 C648 1.387 . S
C649 C650 1.369 . S
C649 H658 0.929 . S
C650 N647 1.346 . S
C650 C649 1.369 . S
C650 H653 0.928 . S
C651 N647 1.345 . S
C651 C652 1.371 . S
C651 H654 0.931 . S
C652 C648 1.391 . S
C652 C651 1.371 . S
C652 H659 0.930 . S
H653 C650 0.928 . S
H654 C651 0.931 . S
H655 C631 0.930 . S
H656 C628 0.930 . S
H657 C637 0.930 . S
H658 C649 0.929 . S
H659 C652 0.930 . S
C660 C661 1.351 . S
C660 N663 1.368 . S
C660 H665 0.931 . S
C661 C660 1.351 . S
C661 N662 1.373 . S
C661 H689 0.930 . S
N662 C661 1.373 . S
N662 C664 1.340 . S
N663 C660 1.368 . S
N663 C664 1.321 . S
N663 Co666 2.135 . S
C664 N662 1.340 . S
C664 N663 1.321 . S
C664 H688 0.930 . S
H665 C660 0.931 . S
Co666 N663 2.135 . S
Co666 N669 2.121 . S
Co666 O674 2.055 . S
Co666 O677 2.039 . S
Co666 N680 2.140 . S
C667 O668 1.227 . S
C667 O677 1.265 . S
O668 C667 1.227 . S
N669 Co666 2.121 . S
N669 C671 1.375 . S
N669 C672 1.313 . S
C670 C671 1.338 . S
C670 N673 1.377 . S
C670 H690 0.930 . S
C671 N669 1.375 . S
C671 C670 1.338 . S
C671 H675 0.931 . S
C672 N669 1.313 . S
C672 N673 1.344 . S
C672 H676 0.930 . S
N673 C670 1.377 . S
N673 C672 1.344 . S
O674 Co666 2.055 . S
O674 C678 1.253 . S
H675 C671 0.931 . S
H676 C672 0.930 . S
O677 Co666 2.039 . S
O677 C667 1.265 . S
C678 O674 1.253 . S
C678 O679 1.227 . S
O679 C678 1.227 . S
N680 Co666 2.140 . S
N680 C683 1.346 . S
N680 C684 1.345 . S
C681 C682 1.387 . S
C681 C685 1.391 . S
C682 C681 1.387 . S
C682 C683 1.369 . S
C682 H691 0.929 . S
C683 N680 1.346 . S
C683 C682 1.369 . S
C683 H686 0.928 . S
C684 N680 1.345 . S
C684 C685 1.371 . S
C684 H687 0.931 . S
C685 C681 1.391 . S
C685 C684 1.371 . S
C685 H692 0.930 . S
H686 C683 0.928 . S
H687 C684 0.931 . S
H688 C664 0.930 . S
H689 C661 0.930 . S
H690 C670 0.930 . S
H691 C682 0.929 . S
H692 C685 0.930 . S
C693 C694 1.351 . S
C693 N696 1.368 . S
C693 H698 0.931 . S
C694 C693 1.351 . S
C694 N695 1.373 . S
C694 H722 0.930 . S
N695 C694 1.373 . S
N695 C697 1.340 . S
N696 C693 1.368 . S
N696 C697 1.321 . S
N696 Co699 2.135 . S
C697 N695 1.340 . S
C697 N696 1.321 . S
C697 H721 0.930 . S
H698 C693 0.931 . S
Co699 N696 2.135 . S
Co699 N702 2.121 . S
Co699 O707 2.055 . S
Co699 O710 2.039 . S
Co699 N713 2.140 . S
C700 O701 1.227 . S
C700 O710 1.265 . S
O701 C700 1.227 . S
N702 Co699 2.121 . S
N702 C704 1.375 . S
N702 C705 1.313 . S
C703 C704 1.338 . S
C703 N706 1.377 . S
C703 H723 0.930 . S
C704 N702 1.375 . S
C704 C703 1.338 . S
C704 H708 0.931 . S
C705 N702 1.313 . S
C705 N706 1.344 . S
C705 H709 0.930 . S
N706 C703 1.377 . S
N706 C705 1.344 . S
O707 Co699 2.055 . S
O707 C711 1.253 . S
H708 C704 0.931 . S
H709 C705 0.930 . S
O710 Co699 2.039 . S
O710 C700 1.265 . S
C711 O707 1.253 . S
C711 O712 1.227 . S
O712 C711 1.227 . S
N713 Co699 2.140 . S
N713 C716 1.346 . S
N713 C717 1.345 . S
C714 C715 1.387 . S
C714 C718 1.391 . S
C715 C714 1.387 . S
C715 C716 1.369 . S
C715 H724 0.929 . S
C716 N713 1.346 . S
C716 C715 1.369 . S
C716 H719 0.928 . S
C717 N713 1.345 . S
C717 C718 1.371 . S
C717 H720 0.931 . S
C718 C714 1.391 . S
C718 C717 1.371 . S
C718 H725 0.930 . S
H719 C716 0.928 . S
H720 C717 0.931 . S
H721 C697 0.930 . S
H722 C694 0.930 . S
H723 C703 0.930 . S
H724 C715 0.929 . S
H725 C718 0.930 . S
C726 C727 1.351 . S
C726 N729 1.368 . S
C726 H731 0.931 . S
C727 C726 1.351 . S
C727 N728 1.373 . S
C727 H755 0.930 . S
N728 C727 1.373 . S
N728 C730 1.340 . S
N729 C726 1.368 . S
N729 C730 1.321 . S
N729 Co732 2.135 . S
C730 N728 1.340 . S
C730 N729 1.321 . S
C730 H754 0.930 . S
H731 C726 0.931 . S
Co732 N729 2.135 . S
Co732 N735 2.121 1_556 S
Co732 O740 2.055 . S
Co732 O743 2.039 . S
Co732 N746 2.140 . S
C733 O734 1.227 . S
C733 O743 1.265 . S
O734 C733 1.227 . S
N735 Co732 2.121 1_554 S
N735 C737 1.375 . S
N735 C738 1.313 . S
C736 C737 1.338 . S
C736 N739 1.377 . S
C736 H756 0.930 . S
C737 N735 1.375 . S
C737 C736 1.338 . S
C737 H741 0.931 . S
C738 N735 1.313 . S
C738 N739 1.344 . S
C738 H742 0.930 . S
N739 C736 1.377 . S
N739 C738 1.344 . S
O740 Co732 2.055 . S
O740 C744 1.253 . S
H741 C737 0.931 . S
H742 C738 0.930 . S
O743 Co732 2.039 . S
O743 C733 1.265 . S
C744 O740 1.253 . S
C744 O745 1.227 . S
O745 C744 1.227 . S
N746 Co732 2.140 . S
N746 C749 1.346 . S
N746 C750 1.345 . S
C747 C748 1.387 . S
C747 C751 1.391 . S
C748 C747 1.387 . S
C748 C749 1.369 . S
C748 H757 0.929 . S
C749 N746 1.346 . S
C749 C748 1.369 . S
C749 H752 0.928 . S
C750 N746 1.345 . S
C750 C751 1.371 . S
C750 H753 0.931 1_556 S
C751 C747 1.391 . S
C751 C750 1.371 . S
C751 H758 0.930 1_556 S
H752 C749 0.928 . S
H753 C750 0.931 1_554 S
H754 C730 0.930 . S
H755 C727 0.930 . S
H756 C736 0.930 . S
H757 C748 0.929 . S
H758 C751 0.930 1_554 S
C759 C760 1.351 1_554 S
C759 N762 1.368 . S
C759 H764 0.931 . S
C760 C759 1.351 1_556 S
C760 N761 1.373 . S
C760 H788 0.930 . S
N761 C760 1.373 . S
N761 C763 1.340 . S
N762 C759 1.368 . S
N762 C763 1.321 1_554 S
N762 Co765 2.135 . S
C763 N761 1.340 . S
C763 N762 1.321 1_556 S
C763 H787 0.930 . S
H764 C759 0.931 . S
Co765 N762 2.135 . S
Co765 N768 2.121 . S
Co765 O773 2.055 . S
Co765 O776 2.039 . S
Co765 N779 2.140 . S
C766 O767 1.227 . S
C766 O776 1.265 . S
O767 C766 1.227 . S
N768 Co765 2.121 . S
N768 C770 1.375 . S
N768 C771 1.313 . S
C769 C770 1.338 . S
C769 N772 1.377 . S
C769 H789 0.930 . S
C770 N768 1.375 . S
C770 C769 1.338 . S
C770 H774 0.931 . S
C771 N768 1.313 . S
C771 N772 1.344 . S
C771 H775 0.930 . S
N772 C769 1.377 . S
N772 C771 1.344 . S
O773 Co765 2.055 . S
O773 C777 1.253 . S
H774 C770 0.931 . S
H775 C771 0.930 . S
O776 Co765 2.039 . S
O776 C766 1.265 . S
C777 O773 1.253 . S
C777 O778 1.227 . S
O778 C777 1.227 . S
N779 Co765 2.140 . S
N779 C782 1.346 . S
N779 C783 1.345 . S
C780 C781 1.387 . S
C780 C784 1.391 . S
C781 C780 1.387 . S
C781 C782 1.369 . S
C781 H790 0.929 . S
C782 N779 1.346 . S
C782 C781 1.369 . S
C782 H785 0.928 . S
C783 N779 1.345 . S
C783 C784 1.371 . S
C783 H786 0.931 . S
C784 C780 1.391 . S
C784 C783 1.371 . S
C784 H791 0.930 . S
H785 C782 0.928 . S
H786 C783 0.931 . S
H787 C763 0.930 . S
H788 C760 0.930 . S
H789 C769 0.930 . S
H790 C781 0.929 . S
H791 C784 0.930 . S
C792 C793 1.351 . S
C792 N795 1.368 . S
C792 H797 0.931 . S
C793 C792 1.351 . S
C793 N794 1.373 . S
C793 H821 0.930 . S
N794 C793 1.373 . S
N794 C796 1.340 . S
N795 C792 1.368 . S
N795 C796 1.321 . S
N795 Co798 2.135 . S
C796 N794 1.340 . S
C796 N795 1.321 . S
C796 H820 0.930 . S
H797 C792 0.931 . S
Co798 N795 2.135 . S
Co798 N801 2.121 . S
Co798 O806 2.055 . S
Co798 O809 2.039 . S
Co798 N812 2.140 . S
C799 O800 1.227 . S
C799 O809 1.265 . S
O800 C799 1.227 . S
N801 Co798 2.121 . S
N801 C803 1.375 . S
N801 C804 1.313 . S
C802 C803 1.338 . S
C802 N805 1.377 . S
C802 H822 0.930 . S
C803 N801 1.375 . S
C803 C802 1.338 . S
C803 H807 0.931 . S
C804 N801 1.313 . S
C804 N805 1.344 . S
C804 H808 0.930 . S
N805 C802 1.377 . S
N805 C804 1.344 . S
O806 Co798 2.055 . S
O806 C810 1.253 . S
H807 C803 0.931 . S
H808 C804 0.930 . S
O809 Co798 2.039 . S
O809 C799 1.265 . S
C810 O806 1.253 . S
C810 O811 1.227 . S
O811 C810 1.227 . S
N812 Co798 2.140 . S
N812 C815 1.346 . S
N812 C816 1.345 . S
C813 C814 1.387 . S
C813 C817 1.391 . S
C814 C813 1.387 . S
C814 C815 1.369 . S
C814 H823 0.929 . S
C815 N812 1.346 . S
C815 C814 1.369 . S
C815 H818 0.928 . S
C816 N812 1.345 . S
C816 C817 1.371 . S
C816 H819 0.931 . S
C817 C813 1.391 . S
C817 C816 1.371 . S
C817 H824 0.930 . S
H818 C815 0.928 . S
H819 C816 0.931 . S
H820 C796 0.930 . S
H821 C793 0.930 . S
H822 C802 0.930 . S
H823 C814 0.929 . S
H824 C817 0.930 . S
C825 C826 1.351 1_554 S
C825 N828 1.368 . S
C825 H830 0.931 . S
C826 C825 1.351 1_556 S
C826 N827 1.373 . S
C826 H854 0.930 . S
N827 C826 1.373 . S
N827 C829 1.340 . S
N828 C825 1.368 . S
N828 C829 1.321 1_554 S
N828 Co831 2.135 . S
C829 N827 1.340 . S
C829 N828 1.321 1_556 S
C829 H853 0.930 . S
H830 C825 0.931 . S
Co831 N828 2.135 . S
Co831 N834 2.121 . S
Co831 O839 2.055 . S
Co831 O842 2.039 . S
Co831 N845 2.140 . S
C832 O833 1.227 . S
C832 O842 1.265 . S
O833 C832 1.227 . S
N834 Co831 2.121 . S
N834 C836 1.375 . S
N834 C837 1.313 . S
C835 C836 1.338 . S
C835 N838 1.377 . S
C835 H855 0.930 . S
C836 N834 1.375 . S
C836 C835 1.338 . S
C836 H840 0.931 . S
C837 N834 1.313 . S
C837 N838 1.344 . S
C837 H841 0.930 . S
N838 C835 1.377 . S
N838 C837 1.344 . S
O839 Co831 2.055 . S
O839 C843 1.253 . S
H840 C836 0.931 . S
H841 C837 0.930 . S
O842 Co831 2.039 . S
O842 C832 1.265 . S
C843 O839 1.253 . S
C843 O844 1.227 . S
O844 C843 1.227 . S
N845 Co831 2.140 . S
N845 C848 1.346 . S
N845 C849 1.345 . S
C846 C847 1.387 . S
C846 C850 1.391 . S
C847 C846 1.387 . S
C847 C848 1.369 . S
C847 H856 0.929 . S
C848 N845 1.346 . S
C848 C847 1.369 . S
C848 H851 0.928 . S
C849 N845 1.345 . S
C849 C850 1.371 . S
C849 H852 0.931 . S
C850 C846 1.391 . S
C850 C849 1.371 . S
C850 H857 0.930 . S
H851 C848 0.928 . S
H852 C849 0.931 . S
H853 C829 0.930 . S
H854 C826 0.930 . S
H855 C835 0.930 . S
H856 C847 0.929 . S
H857 C850 0.930 . S
C858 C859 1.351 . S
C858 N861 1.368 . S
C858 H863 0.931 . S
C859 C858 1.351 . S
C859 N860 1.373 . S
C859 H887 0.930 . S
N860 C859 1.373 . S
N860 C862 1.340 . S
N861 C858 1.368 . S
N861 C862 1.321 . S
N861 Co864 2.135 . S
C862 N860 1.340 . S
C862 N861 1.321 . S
C862 H886 0.930 . S
H863 C858 0.931 . S
Co864 N861 2.135 . S
Co864 N867 2.121 1_556 S
Co864 O872 2.055 . S
Co864 O875 2.039 . S
Co864 N878 2.140 . S
C865 O866 1.227 . S
C865 O875 1.265 . S
O866 C865 1.227 . S
N867 Co864 2.121 1_554 S
N867 C869 1.375 . S
N867 C870 1.313 . S
C868 C869 1.338 . S
C868 N871 1.377 . S
C868 H888 0.930 . S
C869 N867 1.375 . S
C869 C868 1.338 . S
C869 H873 0.931 . S
C870 N867 1.313 . S
C870 N871 1.344 . S
C870 H874 0.930 . S
N871 C868 1.377 . S
N871 C870 1.344 . S
O872 Co864 2.055 . S
O872 C876 1.253 . S
H873 C869 0.931 . S
H874 C870 0.930 . S
O875 Co864 2.039 . S
O875 C865 1.265 . S
C876 O872 1.253 . S
C876 O877 1.227 . S
O877 C876 1.227 . S
N878 Co864 2.140 . S
N878 C881 1.346 . S
N878 C882 1.345 . S
C879 C880 1.387 . S
C879 C883 1.391 . S
C880 C879 1.387 . S
C880 C881 1.369 . S
C880 H889 0.929 . S
C881 N878 1.346 . S
C881 C880 1.369 . S
C881 H884 0.928 . S
C882 N878 1.345 . S
C882 C883 1.371 . S
C882 H885 0.931 1_556 S
C883 C879 1.391 . S
C883 C882 1.371 . S
C883 H890 0.930 1_556 S
H884 C881 0.928 . S
H885 C882 0.931 1_554 S
H886 C862 0.930 . S
H887 C859 0.930 . S
H888 C868 0.930 . S
H889 C880 0.929 . S
H890 C883 0.930 1_554 S
C891 C892 1.351 . S
C891 N894 1.368 . S
C891 H896 0.931 . S
C892 C891 1.351 . S
C892 N893 1.373 . S
C892 H920 0.930 . S
N893 C892 1.373 . S
N893 C895 1.340 . S
N894 C891 1.368 . S
N894 C895 1.321 . S
N894 Co897 2.135 . S
C895 N893 1.340 . S
C895 N894 1.321 . S
C895 H919 0.930 . S
H896 C891 0.931 . S
Co897 N894 2.135 . S
Co897 N900 2.121 . S
Co897 O905 2.055 . S
Co897 O908 2.039 . S
Co897 N911 2.140 . S
C898 O899 1.227 . S
C898 O908 1.265 . S
O899 C898 1.227 . S
N900 Co897 2.121 . S
N900 C902 1.375 . S
N900 C903 1.313 . S
C901 C902 1.338 . S
C901 N904 1.377 . S
C901 H921 0.930 . S
C902 N900 1.375 . S
C902 C901 1.338 . S
C902 H906 0.931 . S
C903 N900 1.313 . S
C903 N904 1.344 . S
C903 H907 0.930 . S
N904 C901 1.377 . S
N904 C903 1.344 . S
O905 Co897 2.055 . S
O905 C909 1.253 . S
H906 C902 0.931 . S
H907 C903 0.930 . S
O908 Co897 2.039 . S
O908 C898 1.265 . S
C909 O905 1.253 . S
C909 O910 1.227 . S
O910 C909 1.227 . S
N911 Co897 2.140 . S
N911 C914 1.346 . S
N911 C915 1.345 . S
C912 C913 1.387 . S
C912 C916 1.391 . S
C913 C912 1.387 . S
C913 C914 1.369 . S
C913 H922 0.929 . S
C914 N911 1.346 . S
C914 C913 1.369 . S
C914 H917 0.928 . S
C915 N911 1.345 . S
C915 C916 1.371 . S
C915 H918 0.931 . S
C916 C912 1.391 . S
C916 C915 1.371 . S
C916 H923 0.930 . S
H917 C914 0.928 . S
H918 C915 0.931 . S
H919 C895 0.930 . S
H920 C892 0.930 . S
H921 C901 0.930 . S
H922 C913 0.929 . S
H923 C916 0.930 . S
C924 C925 1.351 . S
C924 N927 1.368 . S
C924 H929 0.931 . S
C925 C924 1.351 . S
C925 N926 1.373 . S
C925 H953 0.930 . S
N926 C925 1.373 . S
N926 C928 1.340 . S
N927 C924 1.368 . S
N927 C928 1.321 . S
N927 Co930 2.135 . S
C928 N926 1.340 . S
C928 N927 1.321 . S
C928 H952 0.930 . S
H929 C924 0.931 . S
Co930 N927 2.135 . S
Co930 N933 2.121 . S
Co930 O938 2.055 . S
Co930 O941 2.039 . S
Co930 N944 2.140 . S
C931 O932 1.227 . S
C931 O941 1.265 . S
O932 C931 1.227 . S
N933 Co930 2.121 . S
N933 C935 1.375 . S
N933 C936 1.313 . S
C934 C935 1.338 . S
C934 N937 1.377 . S
C934 H954 0.930 . S
C935 N933 1.375 . S
C935 C934 1.338 . S
C935 H939 0.931 . S
C936 N933 1.313 . S
C936 N937 1.344 . S
C936 H940 0.930 . S
N937 C934 1.377 . S
N937 C936 1.344 . S
O938 Co930 2.055 . S
O938 C942 1.253 . S
H939 C935 0.931 . S
H940 C936 0.930 . S
O941 Co930 2.039 . S
O941 C931 1.265 . S
C942 O938 1.253 . S
C942 O943 1.227 . S
O943 C942 1.227 . S
N944 Co930 2.140 . S
N944 C947 1.346 . S
N944 C948 1.345 . S
C945 C946 1.387 . S
C945 C949 1.391 . S
C946 C945 1.387 . S
C946 C947 1.369 . S
C946 H955 0.929 . S
C947 N944 1.346 . S
C947 C946 1.369 . S
C947 H950 0.928 . S
C948 N944 1.345 . S
C948 C949 1.371 . S
C948 H951 0.931 . S
C949 C945 1.391 . S
C949 C948 1.371 . S
C949 H956 0.930 . S
H950 C947 0.928 . S
H951 C948 0.931 . S
H952 C928 0.930 . S
H953 C925 0.930 . S
H954 C934 0.930 . S
H955 C946 0.929 . S
H956 C949 0.930 . S
C957 C958 1.351 . S
C957 N960 1.368 . S
C957 H962 0.931 . S
C958 C957 1.351 . S
C958 N959 1.373 . S
C958 H986 0.930 . S
N959 C958 1.373 . S
N959 C961 1.340 . S
N960 C957 1.368 . S
N960 C961 1.321 . S
N960 Co963 2.135 . S
C961 N959 1.340 . S
C961 N960 1.321 . S
C961 H985 0.930 . S
H962 C957 0.931 . S
Co963 N960 2.135 . S
Co963 N966 2.121 . S
Co963 O971 2.055 . S
Co963 O974 2.039 . S
Co963 N977 2.140 . S
C964 O965 1.227 . S
C964 O974 1.265 . S
O965 C964 1.227 . S
N966 Co963 2.121 . S
N966 C968 1.375 . S
N966 C969 1.313 . S
C967 C968 1.338 . S
C967 N970 1.377 . S
C967 H987 0.930 . S
C968 N966 1.375 . S
C968 C967 1.338 . S
C968 H972 0.931 . S
C969 N966 1.313 . S
C969 N970 1.344 . S
C969 H973 0.930 . S
N970 C967 1.377 . S
N970 C969 1.344 . S
O971 Co963 2.055 . S
O971 C975 1.253 . S
H972 C968 0.931 . S
H973 C969 0.930 . S
O974 Co963 2.039 . S
O974 C964 1.265 . S
C975 O971 1.253 . S
C975 O976 1.227 . S
O976 C975 1.227 . S
N977 Co963 2.140 . S
N977 C980 1.346 . S
N977 C981 1.345 . S
C978 C979 1.387 . S
C978 C982 1.391 . S
C979 C978 1.387 . S
C979 C980 1.369 . S
C979 H988 0.929 . S
C980 N977 1.346 . S
C980 C979 1.369 . S
C980 H983 0.928 . S
C981 N977 1.345 . S
C981 C982 1.371 . S
C981 H984 0.931 . S
C982 C978 1.391 . S
C982 C981 1.371 . S
C982 H989 0.930 . S
H983 C980 0.928 . S
H984 C981 0.931 . S
H985 C961 0.930 . S
H986 C958 0.930 . S
H987 C967 0.930 . S
H988 C979 0.929 . S
H989 C982 0.930 . S
C990 C991 1.351 . S
C990 N993 1.368 . S
C990 H995 0.931 . S
C991 C990 1.351 . S
C991 N992 1.373 . S
C991 H1019 0.930 . S
N992 C991 1.373 . S
N992 C994 1.340 . S
N993 C990 1.368 . S
N993 C994 1.321 . S
N993 Co996 2.135 . S
C994 N992 1.340 . S
C994 N993 1.321 . S
C994 H1018 0.930 . S
H995 C990 0.931 . S
Co996 N993 2.135 . S
Co996 N999 2.121 1_554 S
Co996 O1004 2.055 . S
Co996 O1007 2.039 . S
Co996 N1010 2.140 . S
C997 O998 1.227 . S
C997 O1007 1.265 . S
O998 C997 1.227 . S
N999 Co996 2.121 1_556 S
N999 C1001 1.375 . S
N999 C1002 1.313 . S
C1000 C1001 1.338 . S
C1000 N1003 1.377 . S
C1000 H1020 0.930 . S
C1001 N999 1.375 . S
C1001 C1000 1.338 . S
C1001 H1005 0.931 . S
C1002 N999 1.313 . S
C1002 N1003 1.344 . S
C1002 H1006 0.930 . S
N1003 C1000 1.377 . S
N1003 C1002 1.344 . S
O1004 Co996 2.055 . S
O1004 C1008 1.253 . S
H1005 C1001 0.931 . S
H1006 C1002 0.930 . S
O1007 Co996 2.039 . S
O1007 C997 1.265 . S
C1008 O1004 1.253 . S
C1008 O1009 1.227 . S
O1009 C1008 1.227 . S
N1010 Co996 2.140 . S
N1010 C1013 1.346 . S
N1010 C1014 1.345 . S
C1011 C1012 1.387 . S
C1011 C1015 1.391 . S
C1012 C1011 1.387 . S
C1012 C1013 1.369 . S
C1012 H1021 0.929 . S
C1013 N1010 1.346 . S
C1013 C1012 1.369 . S
C1013 H1016 0.928 . S
C1014 N1010 1.345 . S
C1014 C1015 1.371 . S
C1014 H1017 0.931 1_554 S
C1015 C1011 1.391 . S
C1015 C1014 1.371 . S
C1015 H1022 0.930 1_554 S
H1016 C1013 0.928 . S
H1017 C1014 0.931 1_556 S
H1018 C994 0.930 . S
H1019 C991 0.930 . S
H1020 C1000 0.930 . S
H1021 C1012 0.929 . S
H1022 C1015 0.930 1_556 S
C1023 C1024 1.351 1_556 S
C1023 N1026 1.368 . S
C1023 H1028 0.931 . S
C1024 C1023 1.351 1_554 S
C1024 N1025 1.373 . S
C1024 H1052 0.930 . S
N1025 C1024 1.373 . S
N1025 C1027 1.340 . S
N1026 C1023 1.368 . S
N1026 C1027 1.321 1_556 S
N1026 Co1029 2.135 . S
C1027 N1025 1.340 . S
C1027 N1026 1.321 1_554 S
C1027 H1051 0.930 . S
H1028 C1023 0.931 . S
Co1029 N1026 2.135 . S
Co1029 N1032 2.121 . S
Co1029 O1037 2.055 . S
Co1029 O1040 2.039 . S
Co1029 N1043 2.140 . S
C1030 O1031 1.227 . S
C1030 O1040 1.265 . S
O1031 C1030 1.227 . S
N1032 Co1029 2.121 . S
N1032 C1034 1.375 . S
N1032 C1035 1.313 . S
C1033 C1034 1.338 . S
C1033 N1036 1.377 . S
C1033 H1053 0.930 . S
C1034 N1032 1.375 . S
C1034 C1033 1.338 . S
C1034 H1038 0.931 . S
C1035 N1032 1.313 . S
C1035 N1036 1.344 . S
C1035 H1039 0.930 . S
N1036 C1033 1.377 . S
N1036 C1035 1.344 . S
O1037 Co1029 2.055 . S
O1037 C1041 1.253 . S
H1038 C1034 0.931 . S
H1039 C1035 0.930 . S
O1040 Co1029 2.039 . S
O1040 C1030 1.265 . S
C1041 O1037 1.253 . S
C1041 O1042 1.227 . S
O1042 C1041 1.227 . S
N1043 Co1029 2.140 . S
N1043 C1046 1.346 . S
N1043 C1047 1.345 . S
C1044 C1045 1.387 . S
C1044 C1048 1.391 . S
C1045 C1044 1.387 . S
C1045 C1046 1.369 . S
C1045 H1054 0.929 . S
C1046 N1043 1.346 . S
C1046 C1045 1.369 . S
C1046 H1049 0.928 . S
C1047 N1043 1.345 . S
C1047 C1048 1.371 . S
C1047 H1050 0.931 . S
C1048 C1044 1.391 . S
C1048 C1047 1.371 . S
C1048 H1055 0.930 . S
H1049 C1046 0.928 . S
H1050 C1047 0.931 . S
H1051 C1027 0.930 . S
H1052 C1024 0.930 . S
H1053 C1033 0.930 . S
H1054 C1045 0.929 . S
H1055 C1048 0.930 . S
C1056 C1057 1.391 . S
C1056 C1058 1.394 . S
C1056 H1072 0.931 . S
C1057 C1056 1.391 . S
C1057 C1061 1.376 . S
C1058 C1056 1.394 . S
C1058 C1059 1.369 . S
C1058 C1062 1.531 . S
C1059 C1058 1.369 . S
C1059 C1060 1.410 . S
C1059 C1067 1.503 . S
C1060 C1059 1.410 . S
C1060 C1061 1.392 . S
C1060 C1063 1.511 . S
C1061 C1057 1.376 . S
C1061 C1060 1.392 . S
C1061 H1073 0.929 . S
C1062 C1058 1.531 . S
C1062 H1074 0.960 1_554 S
C1062 H1075 0.962 . S
C1062 H1076 0.960 1_554 S
C1063 C1060 1.511 . S
C1063 H1077 0.961 . S
C1063 H1078 0.961 . S
C1063 H1079 0.961 . S
C1064 C1065 1.370 . S
C1064 C1066 1.363 . S
C1064 H1080 0.931 . S
C1065 C1064 1.370 . S
C1065 C1069 1.408 . S
C1066 C1064 1.363 . S
C1066 C1067 1.370 . S
C1066 C1070 1.524 . S
C1067 C1059 1.503 . S
C1067 C1066 1.370 . S
C1067 C1068 1.403 . S
C1068 C1067 1.403 . S
C1068 C1069 1.404 . S
C1068 C1071 1.539 1_554 S
C1069 C1065 1.408 . S
C1069 C1068 1.404 . S
C1069 H1081 0.930 1_554 S
C1070 C1066 1.524 . S
C1070 H1082 0.956 . S
C1070 H1083 0.961 . S
C1070 H1084 0.961 . S
C1071 C1068 1.539 1_556 S
C1071 H1085 0.958 . S
C1071 H1086 0.961 . S
C1071 H1087 0.960 . S
H1072 C1056 0.931 . S
H1073 C1061 0.929 . S
H1074 C1062 0.960 1_556 S
H1075 C1062 0.962 . S
H1076 C1062 0.960 1_556 S
H1077 C1063 0.961 . S
H1078 C1063 0.961 . S
H1079 C1063 0.961 . S
H1080 C1064 0.931 . S
H1081 C1069 0.930 1_556 S
H1082 C1070 0.956 . S
H1083 C1070 0.961 . S
H1084 C1070 0.961 . S
H1085 C1071 0.958 . S
H1086 C1071 0.961 . S
H1087 C1071 0.960 . S
C1088 C1089 1.391 . S
C1088 C1090 1.394 . S
C1088 H1104 0.931 . S
C1089 C1088 1.391 . S
C1089 C1093 1.376 . S
C1090 C1088 1.394 . S
C1090 C1091 1.369 . S
C1090 C1094 1.531 . S
C1091 C1090 1.369 . S
C1091 C1092 1.410 . S
C1091 C1099 1.503 1_455 S
C1092 C1091 1.410 . S
C1092 C1093 1.392 . S
C1092 C1095 1.511 . S
C1093 C1089 1.376 . S
C1093 C1092 1.392 . S
C1093 H1105 0.929 . S
C1094 C1090 1.531 . S
C1094 H1106 0.960 1_455 S
C1094 H1107 0.962 . S
C1094 H1108 0.960 . S
C1095 C1092 1.511 . S
C1095 H1109 0.961 . S
C1095 H1110 0.961 1_455 S
C1095 H1111 0.961 . S
C1096 C1097 1.370 . S
C1096 C1098 1.363 . S
C1096 H1112 0.931 . S
C1097 C1096 1.370 . S
C1097 C1101 1.408 . S
C1098 C1096 1.363 . S
C1098 C1099 1.370 . S
C1098 C1102 1.524 . S
C1099 C1091 1.503 1_655 S
C1099 C1098 1.370 . S
C1099 C1100 1.403 . S
C1100 C1099 1.403 . S
C1100 C1101 1.404 . S
C1100 C1103 1.539 . S
C1101 C1097 1.408 . S
C1101 C1100 1.404 . S
C1101 H1113 0.930 . S
C1102 C1098 1.524 . S
C1102 H1114 0.982 . S
C1102 H1115 0.920 1_655 S
C1102 H1116 0.961 . S
C1103 C1100 1.539 . S
C1103 H1117 0.958 . S
C1103 H1118 0.961 . S
C1103 H1119 0.966 . S
H1104 C1088 0.931 . S
H1105 C1093 0.929 . S
H1106 C1094 0.960 1_655 S
H1107 C1094 0.962 . S
H1108 C1094 0.960 . S
H1109 C1095 0.961 . S
H1110 C1095 0.961 1_655 S
H1111 C1095 0.961 . S
H1112 C1096 0.931 . S
H1113 C1101 0.930 . S
H1114 C1102 0.982 . S
H1115 C1102 0.920 1_455 S
H1116 C1102 0.961 . S
H1117 C1103 0.958 . S
H1118 C1103 0.961 . S
H1119 C1103 0.966 . S
C1120 C1121 1.391 . S
C1120 C1122 1.394 . S
C1120 H1136 0.931 . S
C1121 C1120 1.391 . S
C1121 C1125 1.376 . S
C1122 C1120 1.394 . S
C1122 C1123 1.369 . S
C1122 C1126 1.531 . S
C1123 C1122 1.369 . S
C1123 C1124 1.410 . S
C1123 C1131 1.503 . S
C1124 C1123 1.410 . S
C1124 C1125 1.392 . S
C1124 C1127 1.511 . S
C1125 C1121 1.376 . S
C1125 C1124 1.392 . S
C1125 H1137 0.929 . S
C1126 C1122 1.531 . S
C1126 H1138 0.960 . S
C1126 H1139 0.962 . S
C1126 H1140 0.960 . S
C1127 C1124 1.511 . S
C1127 H1141 0.961 . S
C1127 H1142 0.961 . S
C1127 H1143 0.961 . S
C1128 C1129 1.370 . S
C1128 C1130 1.363 . S
C1128 H1144 0.931 . S
C1129 C1128 1.370 . S
C1129 C1133 1.408 . S
C1130 C1128 1.363 . S
C1130 C1131 1.370 . S
C1130 C1134 1.524 . S
C1131 C1123 1.503 . S
C1131 C1130 1.370 . S
C1131 C1132 1.403 . S
C1132 C1131 1.403 . S
C1132 C1133 1.404 . S
C1132 C1135 1.539 . S
C1133 C1129 1.408 . S
C1133 C1132 1.404 . S
C1133 H1145 0.930 . S
C1134 C1130 1.524 . S
C1134 H1146 0.956 . S
C1134 H1147 0.961 . S
C1134 H1148 0.961 . S
C1135 C1132 1.539 . S
C1135 H1149 0.958 . S
C1135 H1150 0.961 . S
C1135 H1151 0.960 . S
H1136 C1120 0.931 . S
H1137 C1125 0.929 . S
H1138 C1126 0.960 . S
H1139 C1126 0.962 . S
H1140 C1126 0.960 . S
H1141 C1127 0.961 . S
H1142 C1127 0.961 . S
H1143 C1127 0.961 . S
H1144 C1128 0.931 . S
H1145 C1133 0.930 . S
H1146 C1134 0.956 . S
H1147 C1134 0.961 . S
H1148 C1134 0.961 . S
H1149 C1135 0.958 . S
H1150 C1135 0.961 . S
H1151 C1135 0.960 . S
C1152 C1153 1.391 . S
C1152 C1154 1.394 . S
C1152 H1168 0.931 . S
C1153 C1152 1.391 . S
C1153 C1157 1.376 . S
C1154 C1152 1.394 . S
C1154 C1155 1.369 . S
C1154 C1158 1.531 . S
C1155 C1154 1.369 . S
C1155 C1156 1.410 . S
C1155 C1163 1.503 . S
C1156 C1155 1.410 . S
C1156 C1157 1.392 . S
C1156 C1159 1.511 . S
C1157 C1153 1.376 . S
C1157 C1156 1.392 . S
C1157 H1169 0.929 . S
C1158 C1154 1.531 . S
C1158 H1170 0.960 . S
C1158 H1171 0.962 . S
C1158 H1172 0.960 1_556 S
C1159 C1156 1.511 . S
C1159 H1173 0.961 . S
C1159 H1174 0.961 . S
C1159 H1175 0.961 . S
C1160 C1161 1.370 . S
C1160 C1162 1.363 . S
C1160 H1176 0.931 . S
C1161 C1160 1.370 . S
C1161 C1165 1.408 . S
C1162 C1160 1.363 . S
C1162 C1163 1.370 . S
C1162 C1166 1.524 . S
C1163 C1155 1.503 . S
C1163 C1162 1.370 . S
C1163 C1164 1.403 . S
C1164 C1163 1.403 . S
C1164 C1165 1.404 . S
C1164 C1167 1.539 . S
C1165 C1161 1.408 . S
C1165 C1164 1.404 . S
C1165 H1177 0.930 . S
C1166 C1162 1.524 . S
C1166 H1178 0.956 . S
C1166 H1179 0.961 . S
C1166 H1180 0.961 . S
C1167 C1164 1.539 . S
C1167 H1181 0.958 . S
C1167 H1182 0.961 . S
C1167 H1183 0.960 . S
H1168 C1152 0.931 . S
H1169 C1157 0.929 . S
H1170 C1158 0.960 . S
H1171 C1158 0.962 . S
H1172 C1158 0.960 1_554 S
H1173 C1159 0.961 . S
H1174 C1159 0.961 . S
H1175 C1159 0.961 . S
H1176 C1160 0.931 . S
H1177 C1165 0.930 . S
H1178 C1166 0.956 . S
H1179 C1166 0.961 . S
H1180 C1166 0.961 . S
H1181 C1167 0.958 . S
H1182 C1167 0.961 . S
H1183 C1167 0.960 . S
C1184 C1185 1.391 . S
C1184 C1186 1.394 . S
C1184 H1200 0.931 . S
C1185 C1184 1.391 . S
C1185 C1189 1.376 . S
C1186 C1184 1.394 . S
C1186 C1187 1.369 . S
C1186 C1190 1.531 . S
C1187 C1186 1.369 . S
C1187 C1188 1.410 . S
C1187 C1195 1.503 . S
C1188 C1187 1.410 . S
C1188 C1189 1.392 . S
C1188 C1191 1.511 . S
C1189 C1185 1.376 . S
C1189 C1188 1.392 . S
C1189 H1201 0.929 . S
C1190 C1186 1.531 . S
C1190 H1202 0.960 . S
C1190 H1203 0.962 . S
C1190 H1204 0.960 . S
C1191 C1188 1.511 . S
C1191 H1205 0.961 1_556 S
C1191 H1206 0.961 1_556 S
C1191 H1207 0.961 . S
C1192 C1193 1.370 . S
C1192 C1194 1.363 . S
C1192 H1208 0.926 1_556 S
C1193 C1192 1.370 . S
C1193 C1197 1.408 . S
C1194 C1192 1.363 . S
C1194 C1195 1.370 . S
C1194 C1198 1.524 1_556 S
C1195 C1187 1.503 . S
C1195 C1194 1.370 . S
C1195 C1196 1.403 . S
C1196 C1195 1.403 . S
C1196 C1197 1.404 . S
C1196 C1199 1.539 . S
C1197 C1193 1.408 . S
C1197 C1196 1.404 . S
C1197 H1209 0.930 . S
C1198 C1194 1.524 1_554 S
C1198 H1210 0.956 1_554 S
C1198 H1211 0.961 . S
C1198 H1212 0.961 . S
C1199 C1196 1.539 . S
C1199 H1213 0.958 . S
C1199 H1214 0.961 . S
C1199 H1215 0.960 . S
H1200 C1184 0.931 . S
H1201 C1189 0.929 . S
H1202 C1190 0.960 . S
H1203 C1190 0.962 . S
H1204 C1190 0.960 . S
H1205 C1191 0.961 1_554 S
H1206 C1191 0.961 1_554 S
H1207 C1191 0.961 . S
H1208 C1192 0.926 1_554 S
H1209 C1197 0.930 . S
H1210 C1198 0.956 1_556 S
H1211 C1198 0.961 . S
H1212 C1198 0.961 . S
H1213 C1199 0.958 . S
H1214 C1199 0.961 . S
H1215 C1199 0.960 . S
C1216 C1217 1.391 . S
C1216 C1218 1.394 . S
C1216 H1232 0.931 . S
C1217 C1216 1.391 . S
C1217 C1221 1.376 . S
C1218 C1216 1.394 . S
C1218 C1219 1.369 . S
C1218 C1222 1.531 . S
C1219 C1218 1.369 . S
C1219 C1220 1.410 . S
C1219 C1227 1.503 . S
C1220 C1219 1.410 . S
C1220 C1221 1.392 . S
C1220 C1223 1.511 . S
C1221 C1217 1.376 . S
C1221 C1220 1.392 . S
C1221 H1233 0.929 . S
C1222 C1218 1.531 . S
C1222 H1234 0.960 . S
C1222 H1235 0.962 . S
C1222 H1236 0.960 1_554 S
C1223 C1220 1.511 . S
C1223 H1237 0.961 . S
C1223 H1238 0.961 . S
C1223 H1239 0.961 . S
C1224 C1225 1.370 . S
C1224 C1226 1.363 . S
C1224 H1240 0.931 . S
C1225 C1224 1.370 . S
C1225 C1229 1.408 . S
C1226 C1224 1.363 . S
C1226 C1227 1.370 . S
C1226 C1230 1.524 . S
C1227 C1219 1.503 . S
C1227 C1226 1.370 . S
C1227 C1228 1.403 . S
C1228 C1227 1.403 . S
C1228 C1229 1.404 . S
C1228 C1231 1.539 . S
C1229 C1225 1.408 . S
C1229 C1228 1.404 . S
C1229 H1241 0.930 . S
C1230 C1226 1.524 . S
C1230 H1242 0.956 . S
C1230 H1243 0.961 . S
C1230 H1244 0.961 . S
C1231 C1228 1.539 . S
C1231 H1245 0.958 . S
C1231 H1246 0.961 . S
C1231 H1247 0.960 . S
H1232 C1216 0.931 . S
H1233 C1221 0.929 . S
H1234 C1222 0.960 . S
H1235 C1222 0.962 . S
H1236 C1222 0.960 1_556 S
H1237 C1223 0.961 . S
H1238 C1223 0.961 . S
H1239 C1223 0.961 . S
H1240 C1224 0.931 . S
H1241 C1229 0.930 . S
H1242 C1230 0.956 . S
H1243 C1230 0.961 . S
H1244 C1230 0.961 . S
H1245 C1231 0.958 . S
H1246 C1231 0.961 . S
H1247 C1231 0.960 . S
C1248 C1249 1.391 . S
C1248 C1250 1.394 . S
C1248 H1264 0.931 . S
C1249 C1248 1.391 . S
C1249 C1253 1.376 . S
C1250 C1248 1.394 . S
C1250 C1251 1.369 . S
C1250 C1254 1.531 . S
C1251 C1250 1.369 . S
C1251 C1252 1.410 . S
C1251 C1259 1.503 . S
C1252 C1251 1.410 . S
C1252 C1253 1.392 . S
C1252 C1255 1.511 . S
C1253 C1249 1.376 . S
C1253 C1252 1.392 . S
C1253 H1265 0.929 . S
C1254 C1250 1.531 . S
C1254 H1266 0.960 . S
C1254 H1267 0.962 . S
C1254 H1268 0.960 . S
C1255 C1252 1.511 . S
C1255 H1269 0.961 . S
C1255 H1270 0.961 . S
C1255 H1271 0.961 . S
C1256 C1257 1.370 . S
C1256 C1258 1.363 . S
C1256 H1272 0.931 . S
C1257 C1256 1.370 . S
C1257 C1261 1.408 . S
C1258 C1256 1.363 . S
C1258 C1259 1.370 . S
C1258 C1262 1.524 . S
C1259 C1251 1.503 . S
C1259 C1258 1.370 . S
C1259 C1260 1.403 . S
C1260 C1259 1.403 . S
C1260 C1261 1.404 . S
C1260 C1263 1.539 . S
C1261 C1257 1.408 . S
C1261 C1260 1.404 . S
C1261 H1273 0.930 . S
C1262 C1258 1.524 . S
C1262 H1274 0.956 . S
C1262 H1275 0.961 . S
C1262 H1276 0.961 . S
C1263 C1260 1.539 . S
C1263 H1277 0.958 . S
C1263 H1278 0.961 . S
C1263 H1279 0.960 . S
H1264 C1248 0.931 . S
H1265 C1253 0.929 . S
H1266 C1254 0.960 . S
H1267 C1254 0.962 . S
H1268 C1254 0.960 . S
H1269 C1255 0.961 . S
H1270 C1255 0.961 . S
H1271 C1255 0.961 . S
H1272 C1256 0.931 . S
H1273 C1261 0.930 . S
H1274 C1262 0.956 . S
H1275 C1262 0.961 . S
H1276 C1262 0.961 . S
H1277 C1263 0.958 . S
H1278 C1263 0.961 . S
H1279 C1263 0.960 . S
C1280 C1281 1.391 . S
C1280 C1282 1.394 . S
C1280 H1296 0.931 . S
C1281 C1280 1.391 . S
C1281 C1285 1.376 . S
C1282 C1280 1.394 . S
C1282 C1283 1.369 . S
C1282 C1286 1.531 . S
C1283 C1282 1.369 . S
C1283 C1284 1.410 . S
C1283 C1291 1.503 1_655 S
C1284 C1283 1.410 . S
C1284 C1285 1.392 . S
C1284 C1287 1.511 . S
C1285 C1281 1.376 . S
C1285 C1284 1.392 . S
C1285 H1297 0.929 . S
C1286 C1282 1.531 . S
C1286 H1298 0.960 1_655 S
C1286 H1299 0.962 . S
C1286 H1300 0.960 . S
C1287 C1284 1.511 . S
C1287 H1301 0.961 . S
C1287 H1302 0.961 1_655 S
C1287 H1303 0.961 . S
C1288 C1289 1.370 . S
C1288 C1290 1.363 . S
C1288 H1304 0.931 . S
C1289 C1288 1.370 . S
C1289 C1293 1.408 . S
C1290 C1288 1.363 . S
C1290 C1291 1.370 . S
C1290 C1294 1.524 . S
C1291 C1283 1.503 1_455 S
C1291 C1290 1.370 . S
C1291 C1292 1.403 . S
C1292 C1291 1.403 . S
C1292 C1293 1.404 . S
C1292 C1295 1.539 . S
C1293 C1289 1.408 . S
C1293 C1292 1.404 . S
C1293 H1305 0.930 . S
C1294 C1290 1.524 . S
C1294 H1306 0.982 . S
C1294 H1307 0.920 1_455 S
C1294 H1308 0.961 . S
C1295 C1292 1.539 . S
C1295 H1309 0.958 . S
C1295 H1310 0.961 . S
C1295 H1311 0.966 . S
H1296 C1280 0.931 . S
H1297 C1285 0.929 . S
H1298 C1286 0.960 1_455 S
H1299 C1286 0.962 . S
H1300 C1286 0.960 . S
H1301 C1287 0.961 . S
H1302 C1287 0.961 1_455 S
H1303 C1287 0.961 . S
H1304 C1288 0.931 . S
H1305 C1293 0.930 . S
H1306 C1294 0.982 . S
H1307 C1294 0.920 1_655 S
H1308 C1294 0.961 . S
H1309 C1295 0.958 . S
H1310 C1295 0.961 . S
H1311 C1295 0.966 . S
C1312 C1313 1.391 . S
C1312 C1314 1.394 . S
C1312 H1328 0.931 . S
C1313 C1312 1.391 . S
C1313 C1317 1.376 . S
C1314 C1312 1.394 . S
C1314 C1315 1.369 . S
C1314 C1318 1.531 . S
C1315 C1314 1.369 . S
C1315 C1316 1.410 . S
C1315 C1323 1.503 . S
C1316 C1315 1.410 . S
C1316 C1317 1.392 . S
C1316 C1319 1.511 1_556 S
C1317 C1313 1.376 . S
C1317 C1316 1.392 . S
C1317 H1329 0.929 1_556 S
C1318 C1314 1.531 . S
C1318 H1330 0.960 . S
C1318 H1331 0.962 . S
C1318 H1332 0.960 . S
C1319 C1316 1.511 1_554 S
C1319 H1333 0.961 . S
C1319 H1334 0.961 . S
C1319 H1335 0.961 . S
C1320 C1321 1.370 . S
C1320 C1322 1.363 . S
C1320 H1336 0.931 . S
C1321 C1320 1.370 . S
C1321 C1325 1.408 . S
C1322 C1320 1.363 . S
C1322 C1323 1.370 . S
C1322 C1326 1.524 . S
C1323 C1315 1.503 . S
C1323 C1322 1.370 . S
C1323 C1324 1.403 . S
C1324 C1323 1.403 . S
C1324 C1325 1.404 . S
C1324 C1327 1.539 . S
C1325 C1321 1.408 . S
C1325 C1324 1.404 . S
C1325 H1337 0.930 . S
C1326 C1322 1.524 . S
C1326 H1338 0.956 . S
C1326 H1339 0.961 . S
C1326 H1340 0.961 . S
C1327 C1324 1.539 . S
C1327 H1341 0.958 . S
C1327 H1342 0.961 1_556 S
C1327 H1343 0.960 1_556 S
H1328 C1312 0.931 . S
H1329 C1317 0.929 1_554 S
H1330 C1318 0.960 . S
H1331 C1318 0.962 . S
H1332 C1318 0.960 . S
H1333 C1319 0.961 . S
H1334 C1319 0.961 . S
H1335 C1319 0.961 . S
H1336 C1320 0.931 . S
H1337 C1325 0.930 . S
H1338 C1326 0.956 . S
H1339 C1326 0.961 . S
H1340 C1326 0.961 . S
H1341 C1327 0.958 . S
H1342 C1327 0.961 1_554 S
H1343 C1327 0.960 1_554 S
C1344 C1345 1.391 . S
C1344 C1346 1.394 . S
C1344 H1360 0.931 . S
C1345 C1344 1.391 . S
C1345 C1349 1.376 . S
C1346 C1344 1.394 . S
C1346 C1347 1.369 . S
C1346 C1350 1.531 . S
C1347 C1346 1.369 . S
C1347 C1348 1.410 . S
C1347 C1355 1.503 . S
C1348 C1347 1.410 . S
C1348 C1349 1.392 . S
C1348 C1351 1.511 . S
C1349 C1345 1.376 . S
C1349 C1348 1.392 . S
C1349 H1361 0.929 . S
C1350 C1346 1.531 . S
C1350 H1362 0.960 . S
C1350 H1363 0.962 . S
C1350 H1364 0.960 . S
C1351 C1348 1.511 . S
C1351 H1365 0.961 . S
C1351 H1366 0.961 . S
C1351 H1367 0.961 . S
C1352 C1353 1.370 . S
C1352 C1354 1.363 . S
C1352 H1368 0.931 . S
C1353 C1352 1.370 . S
C1353 C1357 1.408 . S
C1354 C1352 1.363 . S
C1354 C1355 1.370 . S
C1354 C1358 1.524 . S
C1355 C1347 1.503 . S
C1355 C1354 1.370 . S
C1355 C1356 1.403 . S
C1356 C1355 1.403 . S
C1356 C1357 1.404 . S
C1356 C1359 1.539 . S
C1357 C1353 1.408 . S
C1357 C1356 1.404 . S
C1357 H1369 0.930 . S
C1358 C1354 1.524 . S
C1358 H1370 0.956 . S
C1358 H1371 0.961 . S
C1358 H1372 0.961 . S
C1359 C1356 1.539 . S
C1359 H1373 0.958 . S
C1359 H1374 0.961 . S
C1359 H1375 0.960 . S
H1360 C1344 0.931 . S
H1361 C1349 0.929 . S
H1362 C1350 0.960 . S
H1363 C1350 0.962 . S
H1364 C1350 0.960 . S
H1365 C1351 0.961 . S
H1366 C1351 0.961 . S
H1367 C1351 0.961 . S
H1368 C1352 0.931 . S
H1369 C1357 0.930 . S
H1370 C1358 0.956 . S
H1371 C1358 0.961 . S
H1372 C1358 0.961 . S
H1373 C1359 0.958 . S
H1374 C1359 0.961 . S
H1375 C1359 0.960 . S
C1376 C1377 1.391 . S
C1376 C1378 1.394 . S
C1376 H1392 0.931 . S
C1377 C1376 1.391 . S
C1377 C1381 1.376 . S
C1378 C1376 1.394 . S
C1378 C1379 1.369 . S
C1378 C1382 1.531 1_554 S
C1379 C1378 1.369 . S
C1379 C1380 1.410 . S
C1379 C1387 1.503 . S
C1380 C1379 1.410 . S
C1380 C1381 1.392 . S
C1380 C1383 1.511 . S
C1381 C1377 1.376 . S
C1381 C1380 1.392 . S
C1381 H1393 0.929 . S
C1382 C1378 1.531 1_556 S
C1382 H1394 0.960 . S
C1382 H1395 0.962 1_556 S
C1382 H1396 0.960 . S
C1383 C1380 1.511 . S
C1383 H1397 0.961 . S
C1383 H1398 0.961 . S
C1383 H1399 0.961 . S
C1384 C1385 1.370 . S
C1384 C1386 1.363 . S
C1384 H1400 0.931 . S
C1385 C1384 1.370 . S
C1385 C1389 1.408 . S
C1386 C1384 1.363 . S
C1386 C1387 1.370 . S
C1386 C1390 1.524 . S
C1387 C1379 1.503 . S
C1387 C1386 1.370 . S
C1387 C1388 1.403 . S
C1388 C1387 1.403 . S
C1388 C1389 1.404 . S
C1388 C1391 1.539 1_554 S
C1389 C1385 1.408 . S
C1389 C1388 1.404 . S
C1389 H1401 0.930 1_554 S
C1390 C1386 1.524 . S
C1390 H1402 0.956 . S
C1390 H1403 0.961 . S
C1390 H1404 0.961 . S
C1391 C1388 1.539 1_556 S
C1391 H1405 0.958 . S
C1391 H1406 0.961 . S
C1391 H1407 0.960 . S
H1392 C1376 0.931 . S
H1393 C1381 0.929 . S
H1394 C1382 0.960 . S
H1395 C1382 0.962 1_554 S
H1396 C1382 0.960 . S
H1397 C1383 0.961 . S
H1398 C1383 0.961 . S
H1399 C1383 0.961 . S
H1400 C1384 0.931 . S
H1401 C1389 0.930 1_556 S
H1402 C1390 0.956 . S
H1403 C1390 0.961 . S
H1404 C1390 0.961 . S
H1405 C1391 0.958 . S
H1406 C1391 0.961 . S
H1407 C1391 0.960 . S
C1408 C1409 1.391 . S
C1408 C1410 1.394 . S
C1408 H1424 0.931 . S
C1409 C1408 1.391 . S
C1409 C1413 1.376 . S
C1410 C1408 1.394 . S
C1410 C1411 1.369 . S
C1410 C1414 1.531 . S
C1411 C1410 1.369 . S
C1411 C1412 1.410 . S
C1411 C1419 1.503 . S
C1412 C1411 1.410 . S
C1412 C1413 1.392 . S
C1412 C1415 1.511 . S
C1413 C1409 1.376 . S
C1413 C1412 1.392 . S
C1413 H1425 0.929 . S
C1414 C1410 1.531 . S
C1414 H1426 0.960 . S
C1414 H1427 0.962 . S
C1414 H1428 0.960 . S
C1415 C1412 1.511 . S
C1415 H1429 0.961 . S
C1415 H1430 0.961 . S
C1415 H1431 0.961 . S
C1416 C1417 1.370 . S
C1416 C1418 1.363 . S
C1416 H1432 0.931 . S
C1417 C1416 1.370 . S
C1417 C1421 1.408 . S
C1418 C1416 1.363 . S
C1418 C1419 1.370 . S
C1418 C1422 1.524 . S
C1419 C1411 1.503 . S
C1419 C1418 1.370 . S
C1419 C1420 1.403 . S
C1420 C1419 1.403 . S
C1420 C1421 1.404 . S
C1420 C1423 1.539 . S
C1421 C1417 1.408 . S
C1421 C1420 1.404 . S
C1421 H1433 0.930 . S
C1422 C1418 1.524 . S
C1422 H1434 0.956 . S
C1422 H1435 0.961 . S
C1422 H1436 0.961 . S
C1423 C1420 1.539 . S
C1423 H1437 0.958 . S
C1423 H1438 0.961 . S
C1423 H1439 0.960 . S
H1424 C1408 0.931 . S
H1425 C1413 0.929 . S
H1426 C1414 0.960 . S
H1427 C1414 0.962 . S
H1428 C1414 0.960 . S
H1429 C1415 0.961 . S
H1430 C1415 0.961 . S
H1431 C1415 0.961 . S
H1432 C1416 0.931 . S
H1433 C1421 0.930 . S
H1434 C1422 0.956 . S
H1435 C1422 0.961 . S
H1436 C1422 0.961 . S
H1437 C1423 0.958 . S
H1438 C1423 0.961 . S
H1439 C1423 0.960 . S
C1440 C1441 1.391 . S
C1440 C1442 1.394 . S
C1440 H1456 0.931 . S
C1441 C1440 1.391 . S
C1441 C1445 1.376 . S
C1442 C1440 1.394 . S
C1442 C1443 1.369 . S
C1442 C1446 1.531 . S
C1443 C1442 1.369 . S
C1443 C1444 1.410 . S
C1443 C1451 1.503 . S
C1444 C1443 1.410 . S
C1444 C1445 1.392 . S
C1444 C1447 1.511 . S
C1445 C1441 1.376 . S
C1445 C1444 1.392 . S
C1445 H1457 0.929 . S
C1446 C1442 1.531 . S
C1446 H1458 0.960 . S
C1446 H1459 0.962 . S
C1446 H1460 0.960 . S
C1447 C1444 1.511 . S
C1447 H1461 0.961 1_556 S
C1447 H1462 0.961 . S
C1447 H1463 0.961 1_556 S
C1448 C1449 1.370 . S
C1448 C1450 1.363 . S
C1448 H1464 0.931 . S
C1449 C1448 1.370 . S
C1449 C1453 1.408 . S
C1450 C1448 1.363 . S
C1450 C1451 1.370 . S
C1450 C1454 1.524 . S
C1451 C1443 1.503 . S
C1451 C1450 1.370 . S
C1451 C1452 1.403 . S
C1452 C1451 1.403 . S
C1452 C1453 1.404 . S
C1452 C1455 1.539 . S
C1453 C1449 1.408 . S
C1453 C1452 1.404 . S
C1453 H1465 0.930 . S
C1454 C1450 1.524 . S
C1454 H1466 0.956 . S
C1454 H1467 0.961 . S
C1454 H1468 0.961 . S
C1455 C1452 1.539 . S
C1455 H1469 0.958 . S
C1455 H1470 0.961 . S
C1455 H1471 0.960 . S
H1456 C1440 0.931 . S
H1457 C1445 0.929 . S
H1458 C1446 0.960 . S
H1459 C1446 0.962 . S
H1460 C1446 0.960 . S
H1461 C1447 0.961 1_554 S
H1462 C1447 0.961 . S
H1463 C1447 0.961 1_554 S
H1464 C1448 0.931 . S
H1465 C1453 0.930 . S
H1466 C1454 0.956 . S
H1467 C1454 0.961 . S
H1468 C1454 0.961 . S
H1469 C1455 0.958 . S
H1470 C1455 0.961 . S
H1471 C1455 0.960 . S
C1472 C1473 1.391 . S
C1472 C1474 1.394 . S
C1472 H1488 0.931 . S
C1473 C1472 1.391 . S
C1473 C1477 1.376 . S
C1474 C1472 1.394 . S
C1474 C1475 1.369 . S
C1474 C1478 1.531 . S
C1475 C1474 1.369 . S
C1475 C1476 1.410 . S
C1475 C1483 1.503 1_455 S
C1476 C1475 1.410 . S
C1476 C1477 1.392 . S
C1476 C1479 1.511 . S
C1477 C1473 1.376 . S
C1477 C1476 1.392 . S
C1477 H1489 0.929 . S
C1478 C1474 1.531 . S
C1478 H1490 0.960 1_455 S
C1478 H1491 0.962 . S
C1478 H1492 0.960 . S
C1479 C1476 1.511 . S
C1479 H1493 0.961 . S
C1479 H1494 0.961 1_455 S
C1479 H1495 0.961 . S
C1480 C1481 1.370 . S
C1480 C1482 1.363 . S
C1480 H1496 0.931 . S
C1481 C1480 1.370 . S
C1481 C1485 1.408 . S
C1482 C1480 1.363 . S
C1482 C1483 1.370 . S
C1482 C1486 1.524 . S
C1483 C1475 1.503 1_655 S
C1483 C1482 1.370 . S
C1483 C1484 1.403 . S
C1484 C1483 1.403 . S
C1484 C1485 1.404 . S
C1484 C1487 1.539 . S
C1485 C1481 1.408 . S
C1485 C1484 1.404 . S
C1485 H1497 0.930 . S
C1486 C1482 1.524 . S
C1486 H1498 0.982 . S
C1486 H1499 0.919 1_655 S
C1486 H1500 0.961 . S
C1487 C1484 1.539 . S
C1487 H1501 0.958 . S
C1487 H1502 0.961 . S
C1487 H1503 0.966 . S
H1488 C1472 0.931 . S
H1489 C1477 0.929 . S
H1490 C1478 0.960 1_655 S
H1491 C1478 0.962 . S
H1492 C1478 0.960 . S
H1493 C1479 0.961 . S
H1494 C1479 0.961 1_655 S
H1495 C1479 0.961 . S
H1496 C1480 0.931 . S
H1497 C1485 0.930 . S
H1498 C1486 0.982 . S
H1499 C1486 0.919 1_455 S
H1500 C1486 0.961 . S
H1501 C1487 0.958 . S
H1502 C1487 0.961 . S
H1503 C1487 0.966 . S
C1504 C1505 1.391 . S
C1504 C1506 1.394 . S
C1504 H1520 0.931 . S
C1505 C1504 1.391 . S
C1505 C1509 1.376 . S
C1506 C1504 1.394 . S
C1506 C1507 1.369 . S
C1506 C1510 1.531 . S
C1507 C1506 1.369 . S
C1507 C1508 1.410 . S
C1507 C1515 1.503 1_455 S
C1508 C1507 1.410 . S
C1508 C1509 1.392 . S
C1508 C1511 1.511 . S
C1509 C1505 1.376 . S
C1509 C1508 1.392 . S
C1509 H1521 0.929 . S
C1510 C1506 1.531 . S
C1510 H1522 0.960 1_455 S
C1510 H1523 0.962 . S
C1510 H1524 0.960 . S
C1511 C1508 1.511 . S
C1511 H1525 0.961 . S
C1511 H1526 0.961 1_455 S
C1511 H1527 0.961 . S
C1512 C1513 1.370 . S
C1512 C1514 1.363 . S
C1512 H1528 0.931 . S
C1513 C1512 1.370 . S
C1513 C1517 1.408 . S
C1514 C1512 1.363 . S
C1514 C1515 1.370 . S
C1514 C1518 1.524 . S
C1515 C1507 1.503 1_655 S
C1515 C1514 1.370 . S
C1515 C1516 1.403 . S
C1516 C1515 1.403 . S
C1516 C1517 1.404 . S
C1516 C1519 1.539 . S
C1517 C1513 1.408 . S
C1517 C1516 1.404 . S
C1517 H1529 0.930 . S
C1518 C1514 1.524 . S
C1518 H1530 0.982 . S
C1518 H1531 0.920 1_655 S
C1518 H1532 0.961 . S
C1519 C1516 1.539 . S
C1519 H1533 0.958 . S
C1519 H1534 0.961 . S
C1519 H1535 0.966 . S
H1520 C1504 0.931 . S
H1521 C1509 0.929 . S
H1522 C1510 0.960 1_655 S
H1523 C1510 0.962 . S
H1524 C1510 0.960 . S
H1525 C1511 0.961 . S
H1526 C1511 0.961 1_655 S
H1527 C1511 0.961 . S
H1528 C1512 0.931 . S
H1529 C1517 0.930 . S
H1530 C1518 0.982 . S
H1531 C1518 0.920 1_455 S
H1532 C1518 0.961 . S
H1533 C1519 0.958 . S
H1534 C1519 0.961 . S
H1535 C1519 0.966 . S
C1536 C1537 1.391 . S
C1536 C1538 1.394 . S
C1536 H1552 0.931 . S
C1537 C1536 1.391 . S
C1537 C1541 1.376 . S
C1538 C1536 1.394 . S
C1538 C1539 1.369 . S
C1538 C1542 1.531 . S
C1539 C1538 1.369 . S
C1539 C1540 1.410 . S
C1539 C1547 1.503 . S
C1540 C1539 1.410 . S
C1540 C1541 1.392 . S
C1540 C1543 1.511 . S
C1541 C1537 1.376 . S
C1541 C1540 1.392 . S
C1541 H1553 0.929 . S
C1542 C1538 1.531 . S
C1542 H1554 0.960 . S
C1542 H1555 0.962 . S
C1542 H1556 0.960 . S
C1543 C1540 1.511 . S
C1543 H1557 0.961 . S
C1543 H1558 0.961 . S
C1543 H1559 0.961 . S
C1544 C1545 1.370 . S
C1544 C1546 1.363 . S
C1544 H1560 0.931 . S
C1545 C1544 1.370 . S
C1545 C1549 1.408 . S
C1546 C1544 1.363 . S
C1546 C1547 1.370 . S
C1546 C1550 1.524 . S
C1547 C1539 1.503 . S
C1547 C1546 1.370 . S
C1547 C1548 1.403 . S
C1548 C1547 1.403 . S
C1548 C1549 1.404 . S
C1548 C1551 1.539 . S
C1549 C1545 1.408 . S
C1549 C1548 1.404 . S
C1549 H1561 0.930 . S
C1550 C1546 1.524 . S
C1550 H1562 0.956 . S
C1550 H1563 0.961 . S
C1550 H1564 0.961 . S
C1551 C1548 1.539 . S
C1551 H1565 0.958 1_554 S
C1551 H1566 0.961 1_554 S
C1551 H1567 0.960 . S
H1552 C1536 0.931 . S
H1553 C1541 0.929 . S
H1554 C1542 0.960 . S
H1555 C1542 0.962 . S
H1556 C1542 0.960 . S
H1557 C1543 0.961 . S
H1558 C1543 0.961 . S
H1559 C1543 0.961 . S
H1560 C1544 0.931 . S
H1561 C1549 0.930 . S
H1562 C1550 0.956 . S
H1563 C1550 0.961 . S
H1564 C1550 0.961 . S
H1565 C1551 0.958 1_556 S
H1566 C1551 0.961 1_556 S
H1567 C1551 0.960 . S
C1568 C1569 1.391 . S
C1568 C1570 1.394 . S
C1568 H1584 0.931 . S
C1569 C1568 1.391 . S
C1569 C1573 1.376 . S
C1570 C1568 1.394 . S
C1570 C1571 1.369 . S
C1570 C1574 1.531 . S
C1571 C1570 1.369 . S
C1571 C1572 1.410 . S
C1571 C1579 1.503 . S
C1572 C1571 1.410 . S
C1572 C1573 1.392 . S
C1572 C1575 1.511 . S
C1573 C1569 1.376 . S
C1573 C1572 1.392 . S
C1573 H1585 0.929 . S
C1574 C1570 1.531 . S
C1574 H1586 0.960 . S
C1574 H1587 0.962 . S
C1574 H1588 0.960 . S
C1575 C1572 1.511 . S
C1575 H1589 0.961 . S
C1575 H1590 0.961 . S
C1575 H1591 0.961 . S
C1576 C1577 1.370 . S
C1576 C1578 1.363 . S
C1576 H1592 0.931 . S
C1577 C1576 1.370 . S
C1577 C1581 1.408 . S
C1578 C1576 1.363 . S
C1578 C1579 1.370 . S
C1578 C1582 1.524 . S
C1579 C1571 1.503 . S
C1579 C1578 1.370 . S
C1579 C1580 1.403 . S
C1580 C1579 1.403 . S
C1580 C1581 1.404 . S
C1580 C1583 1.539 . S
C1581 C1577 1.408 . S
C1581 C1580 1.404 . S
C1581 H1593 0.930 . S
C1582 C1578 1.524 . S
C1582 H1594 0.956 . S
C1582 H1595 0.961 . S
C1582 H1596 0.961 . S
C1583 C1580 1.539 . S
C1583 H1597 0.958 . S
C1583 H1598 0.961 . S
C1583 H1599 0.960 . S
H1584 C1568 0.931 . S
H1585 C1573 0.929 . S
H1586 C1574 0.960 . S
H1587 C1574 0.962 . S
H1588 C1574 0.960 . S
H1589 C1575 0.961 . S
H1590 C1575 0.961 . S
H1591 C1575 0.961 . S
H1592 C1576 0.931 . S
H1593 C1581 0.930 . S
H1594 C1582 0.956 . S
H1595 C1582 0.961 . S
H1596 C1582 0.961 . S
H1597 C1583 0.958 . S
H1598 C1583 0.961 . S
H1599 C1583 0.960 . S
C1600 C1601 1.391 . S
C1600 C1602 1.394 . S
C1600 H1616 0.931 . S
C1601 C1600 1.391 . S
C1601 C1605 1.376 . S
C1602 C1600 1.394 . S
C1602 C1603 1.369 . S
C1602 C1606 1.531 . S
C1603 C1602 1.369 . S
C1603 C1604 1.410 . S
C1603 C1611 1.503 . S
C1604 C1603 1.410 . S
C1604 C1605 1.392 . S
C1604 C1607 1.511 . S
C1605 C1601 1.376 . S
C1605 C1604 1.392 . S
C1605 H1617 0.929 . S
C1606 C1602 1.531 . S
C1606 H1618 0.960 . S
C1606 H1619 0.962 . S
C1606 H1620 0.960 . S
C1607 C1604 1.511 . S
C1607 H1621 0.961 . S
C1607 H1622 0.961 . S
C1607 H1623 0.961 . S
C1608 C1609 1.370 1_556 S
C1608 C1610 1.363 . S
C1608 H1624 0.931 1_556 S
C1609 C1608 1.370 1_554 S
C1609 C1613 1.408 1_554 S
C1610 C1608 1.363 . S
C1610 C1611 1.370 . S
C1610 C1614 1.524 . S
C1611 C1603 1.503 . S
C1611 C1610 1.370 . S
C1611 C1612 1.403 . S
C1612 C1611 1.403 . S
C1612 C1613 1.404 . S
C1612 C1615 1.539 . S
C1613 C1609 1.408 1_556 S
C1613 C1612 1.404 . S
C1613 H1625 0.929 . S
C1614 C1610 1.524 . S
C1614 H1626 0.956 . S
C1614 H1627 0.961 . S
C1614 H1628 0.961 . S
C1615 C1612 1.539 . S
C1615 H1629 0.958 . S
C1615 H1630 0.961 . S
C1615 H1631 0.960 . S
H1616 C1600 0.931 . S
H1617 C1605 0.929 . S
H1618 C1606 0.960 . S
H1619 C1606 0.962 . S
H1620 C1606 0.960 . S
H1621 C1607 0.961 . S
H1622 C1607 0.961 . S
H1623 C1607 0.961 . S
H1624 C1608 0.931 1_554 S
H1625 C1613 0.929 . S
H1626 C1614 0.956 . S
H1627 C1614 0.961 . S
H1628 C1614 0.961 . S
H1629 C1615 0.958 . S
H1630 C1615 0.961 . S
H1631 C1615 0.960 . S
C1632 C1633 1.391 . S
C1632 C1634 1.394 . S
C1632 H1648 0.931 . S
C1633 C1632 1.391 . S
C1633 C1637 1.376 . S
C1634 C1632 1.394 . S
C1634 C1635 1.369 1_556 S
C1634 C1638 1.531 1_556 S
C1635 C1634 1.369 1_554 S
C1635 C1636 1.410 . S
C1635 C1643 1.503 . S
C1636 C1635 1.410 . S
C1636 C1637 1.392 1_554 S
C1636 C1639 1.511 . S
C1637 C1633 1.376 . S
C1637 C1636 1.392 1_556 S
C1637 H1649 0.929 . S
C1638 C1634 1.531 1_554 S
C1638 H1650 0.960 . S
C1638 H1651 0.962 . S
C1638 H1652 0.968 . S
C1639 C1636 1.511 . S
C1639 H1653 0.961 . S
C1639 H1654 0.961 . S
C1639 H1655 0.961 . S
C1640 C1641 1.370 . S
C1640 C1642 1.363 . S
C1640 H1656 0.931 . S
C1641 C1640 1.370 . S
C1641 C1645 1.408 . S
C1642 C1640 1.363 . S
C1642 C1643 1.370 . S
C1642 C1646 1.524 . S
C1643 C1635 1.503 . S
C1643 C1642 1.370 . S
C1643 C1644 1.403 . S
C1644 C1643 1.403 . S
C1644 C1645 1.404 . S
C1644 C1647 1.539 . S
C1645 C1641 1.408 . S
C1645 C1644 1.404 . S
C1645 H1657 0.930 . S
C1646 C1642 1.524 . S
C1646 H1658 0.956 . S
C1646 H1659 0.961 . S
C1646 H1660 0.961 . S
C1647 C1644 1.539 . S
C1647 H1661 0.958 . S
C1647 H1662 0.961 . S
C1647 H1663 0.960 . S
H1648 C1632 0.931 . S
H1649 C1637 0.929 . S
H1650 C1638 0.960 . S
H1651 C1638 0.962 . S
H1652 C1638 0.968 . S
H1653 C1639 0.961 . S
H1654 C1639 0.961 . S
H1655 C1639 0.961 . S
H1656 C1640 0.931 . S
H1657 C1645 0.930 . S
H1658 C1646 0.956 . S
H1659 C1646 0.961 . S
H1660 C1646 0.961 . S
H1661 C1647 0.958 . S
H1662 C1647 0.961 . S
H1663 C1647 0.960 . S
C1664 C1665 1.391 . S
C1664 C1666 1.394 . S
C1664 H1680 0.931 . S
C1665 C1664 1.391 . S
C1665 C1669 1.376 . S
C1666 C1664 1.394 . S
C1666 C1667 1.369 . S
C1666 C1670 1.531 . S
C1667 C1666 1.369 . S
C1667 C1668 1.410 . S
C1667 C1675 1.503 . S
C1668 C1667 1.410 . S
C1668 C1669 1.392 . S
C1668 C1671 1.511 . S
C1669 C1665 1.376 . S
C1669 C1668 1.392 . S
C1669 H1681 0.929 . S
C1670 C1666 1.531 . S
C1670 H1682 0.960 . S
C1670 H1683 0.962 . S
C1670 H1684 0.960 . S
C1671 C1668 1.511 . S
C1671 H1685 0.961 . S
C1671 H1686 0.961 . S
C1671 H1687 0.961 . S
C1672 C1673 1.370 . S
C1672 C1674 1.363 . S
C1672 H1688 0.931 . S
C1673 C1672 1.370 . S
C1673 C1677 1.408 . S
C1674 C1672 1.363 . S
C1674 C1675 1.370 . S
C1674 C1678 1.524 . S
C1675 C1667 1.503 . S
C1675 C1674 1.370 . S
C1675 C1676 1.403 . S
C1676 C1675 1.403 . S
C1676 C1677 1.404 . S
C1676 C1679 1.539 . S
C1677 C1673 1.408 . S
C1677 C1676 1.404 . S
C1677 H1689 0.930 . S
C1678 C1674 1.524 . S
C1678 H1690 0.956 . S
C1678 H1691 0.961 . S
C1678 H1692 0.961 . S
C1679 C1676 1.539 . S
C1679 H1693 0.958 . S
C1679 H1694 0.961 . S
C1679 H1695 0.960 . S
H1680 C1664 0.931 . S
H1681 C1669 0.929 . S
H1682 C1670 0.960 . S
H1683 C1670 0.962 . S
H1684 C1670 0.960 . S
H1685 C1671 0.961 . S
H1686 C1671 0.961 . S
H1687 C1671 0.961 . S
H1688 C1672 0.931 . S
H1689 C1677 0.930 . S
H1690 C1678 0.956 . S
H1691 C1678 0.961 . S
H1692 C1678 0.961 . S
H1693 C1679 0.958 . S
H1694 C1679 0.961 . S
H1695 C1679 0.960 . S
C1696 C1697 1.391 . S
C1696 C1698 1.394 . S
C1696 H1712 0.931 . S
C1697 C1696 1.391 . S
C1697 C1701 1.376 . S
C1698 C1696 1.394 . S
C1698 C1699 1.369 . S
C1698 C1702 1.531 . S
C1699 C1698 1.369 . S
C1699 C1700 1.410 . S
C1699 C1707 1.503 . S
C1700 C1699 1.410 . S
C1700 C1701 1.392 . S
C1700 C1703 1.511 . S
C1701 C1697 1.376 . S
C1701 C1700 1.392 . S
C1701 H1713 0.929 . S
C1702 C1698 1.531 . S
C1702 H1714 0.960 . S
C1702 H1715 0.962 . S
C1702 H1716 0.960 . S
C1703 C1700 1.511 . S
C1703 H1717 0.961 . S
C1703 H1718 0.961 . S
C1703 H1719 0.961 . S
C1704 C1705 1.370 . S
C1704 C1706 1.363 . S
C1704 H1720 0.931 . S
C1705 C1704 1.370 . S
C1705 C1709 1.408 . S
C1706 C1704 1.363 . S
C1706 C1707 1.370 . S
C1706 C1710 1.524 . S
C1707 C1699 1.503 . S
C1707 C1706 1.370 . S
C1707 C1708 1.403 . S
C1708 C1707 1.403 . S
C1708 C1709 1.404 . S
C1708 C1711 1.539 . S
C1709 C1705 1.408 . S
C1709 C1708 1.404 . S
C1709 H1721 0.930 . S
C1710 C1706 1.524 . S
C1710 H1722 0.956 . S
C1710 H1723 0.961 . S
C1710 H1724 0.961 . S
C1711 C1708 1.539 . S
C1711 H1725 0.958 . S
C1711 H1726 0.961 . S
C1711 H1727 0.960 . S
H1712 C1696 0.931 . S
H1713 C1701 0.929 . S
H1714 C1702 0.960 . S
H1715 C1702 0.962 . S
H1716 C1702 0.960 . S
H1717 C1703 0.961 . S
H1718 C1703 0.961 . S
H1719 C1703 0.961 . S
H1720 C1704 0.931 . S
H1721 C1709 0.930 . S
H1722 C1710 0.956 . S
H1723 C1710 0.961 . S
H1724 C1710 0.961 . S
H1725 C1711 0.958 . S
H1726 C1711 0.961 . S
H1727 C1711 0.960 . S
C1728 C1729 1.391 . S
C1728 C1730 1.394 . S
C1728 H1744 0.931 . S
C1729 C1728 1.391 . S
C1729 C1733 1.376 . S
C1730 C1728 1.394 . S
C1730 C1731 1.369 . S
C1730 C1734 1.531 . S
C1731 C1730 1.369 . S
C1731 C1732 1.410 . S
C1731 C1739 1.503 . S
C1732 C1731 1.410 . S
C1732 C1733 1.392 . S
C1732 C1735 1.511 . S
C1733 C1729 1.376 . S
C1733 C1732 1.392 . S
C1733 H1745 0.929 . S
C1734 C1730 1.531 . S
C1734 H1746 0.960 . S
C1734 H1747 0.962 . S
C1734 H1748 0.960 . S
C1735 C1732 1.511 . S
C1735 H1749 0.961 . S
C1735 H1750 0.961 . S
C1735 H1751 0.961 . S
C1736 C1737 1.370 . S
C1736 C1738 1.363 . S
C1736 H1752 0.931 . S
C1737 C1736 1.370 . S
C1737 C1741 1.408 . S
C1738 C1736 1.363 . S
C1738 C1739 1.370 . S
C1738 C1742 1.524 . S
C1739 C1731 1.503 . S
C1739 C1738 1.370 . S
C1739 C1740 1.403 . S
C1740 C1739 1.403 . S
C1740 C1741 1.404 . S
C1740 C1743 1.539 . S
C1741 C1737 1.408 . S
C1741 C1740 1.404 . S
C1741 H1753 0.930 . S
C1742 C1738 1.524 . S
C1742 H1754 0.956 . S
C1742 H1755 0.961 . S
C1742 H1756 0.961 . S
C1743 C1740 1.539 . S
C1743 H1757 0.958 . S
C1743 H1758 0.961 . S
C1743 H1759 0.960 . S
H1744 C1728 0.931 . S
H1745 C1733 0.929 . S
H1746 C1734 0.960 . S
H1747 C1734 0.962 . S
H1748 C1734 0.960 . S
H1749 C1735 0.961 . S
H1750 C1735 0.961 . S
H1751 C1735 0.961 . S
H1752 C1736 0.931 . S
H1753 C1741 0.930 . S
H1754 C1742 0.956 . S
H1755 C1742 0.961 . S
H1756 C1742 0.961 . S
H1757 C1743 0.958 . S
H1758 C1743 0.961 . S
H1759 C1743 0.960 . S
C1760 C1761 1.391 . S
C1760 C1762 1.394 . S
C1760 H1776 0.931 . S
C1761 C1760 1.391 . S
C1761 C1765 1.376 . S
C1762 C1760 1.394 . S
C1762 C1763 1.369 . S
C1762 C1766 1.531 . S
C1763 C1762 1.369 . S
C1763 C1764 1.410 . S
C1763 C1771 1.503 . S
C1764 C1763 1.410 . S
C1764 C1765 1.392 . S
C1764 C1767 1.511 . S
C1765 C1761 1.376 . S
C1765 C1764 1.392 . S
C1765 H1777 0.929 . S
C1766 C1762 1.531 . S
C1766 H1778 0.960 . S
C1766 H1779 0.962 . S
C1766 H1780 0.960 . S
C1767 C1764 1.511 . S
C1767 H1781 0.961 . S
C1767 H1782 0.961 . S
C1767 H1783 0.961 . S
C1768 C1769 1.370 . S
C1768 C1770 1.363 . S
C1768 H1784 0.931 . S
C1769 C1768 1.370 . S
C1769 C1773 1.408 . S
C1770 C1768 1.363 . S
C1770 C1771 1.370 1_554 S
C1770 C1774 1.524 1_554 S
C1771 C1763 1.503 . S
C1771 C1770 1.370 1_556 S
C1771 C1772 1.403 . S
C1772 C1771 1.403 . S
C1772 C1773 1.404 1_556 S
C1772 C1775 1.539 . S
C1773 C1769 1.408 . S
C1773 C1772 1.404 1_554 S
C1773 H1785 0.930 . S
C1774 C1770 1.524 1_556 S
C1774 H1786 0.956 . S
C1774 H1787 0.961 . S
C1774 H1788 0.961 1_556 S
C1775 C1772 1.539 . S
C1775 H1789 0.958 . S
C1775 H1790 0.961 . S
C1775 H1791 0.960 . S
H1776 C1760 0.931 . S
H1777 C1765 0.929 . S
H1778 C1766 0.960 . S
H1779 C1766 0.962 . S
H1780 C1766 0.960 . S
H1781 C1767 0.961 . S
H1782 C1767 0.961 . S
H1783 C1767 0.961 . S
H1784 C1768 0.931 . S
H1785 C1773 0.930 . S
H1786 C1774 0.956 . S
H1787 C1774 0.961 . S
H1788 C1774 0.961 1_554 S
H1789 C1775 0.958 . S
H1790 C1775 0.961 . S
H1791 C1775 0.960 . S
C1792 C1793 1.391 . S
C1792 C1794 1.394 . S
C1792 H1808 0.931 . S
C1793 C1792 1.391 . S
C1793 C1797 1.376 . S
C1794 C1792 1.394 . S
C1794 C1795 1.369 . S
C1794 C1798 1.531 . S
C1795 C1794 1.369 . S
C1795 C1796 1.410 . S
C1795 C1803 1.503 . S
C1796 C1795 1.410 . S
C1796 C1797 1.392 . S
C1796 C1799 1.511 . S
C1797 C1793 1.376 . S
C1797 C1796 1.392 . S
C1797 H1809 0.929 . S
C1798 C1794 1.531 . S
C1798 H1810 0.960 . S
C1798 H1811 0.962 . S
C1798 H1812 0.960 . S
C1799 C1796 1.511 . S
C1799 H1813 0.961 . S
C1799 H1814 0.961 . S
C1799 H1815 0.961 . S
C1800 C1801 1.370 1_554 S
C1800 C1802 1.363 . S
C1800 H1816 0.931 1_554 S
C1801 C1800 1.370 1_556 S
C1801 C1805 1.408 1_556 S
C1802 C1800 1.363 . S
C1802 C1803 1.370 . S
C1802 C1806 1.524 . S
C1803 C1795 1.503 . S
C1803 C1802 1.370 . S
C1803 C1804 1.403 . S
C1804 C1803 1.403 . S
C1804 C1805 1.404 . S
C1804 C1807 1.539 . S
C1805 C1801 1.408 1_554 S
C1805 C1804 1.404 . S
C1805 H1817 0.930 1_554 S
C1806 C1802 1.524 . S
C1806 H1818 0.956 . S
C1806 H1819 0.961 . S
C1806 H1820 0.961 . S
C1807 C1804 1.539 . S
C1807 H1821 0.958 . S
C1807 H1822 0.961 . S
C1807 H1823 0.960 . S
H1808 C1792 0.931 . S
H1809 C1797 0.929 . S
H1810 C1798 0.960 . S
H1811 C1798 0.962 . S
H1812 C1798 0.960 . S
H1813 C1799 0.961 . S
H1814 C1799 0.961 . S
H1815 C1799 0.961 . S
H1816 C1800 0.931 1_556 S
H1817 C1805 0.930 1_556 S
H1818 C1806 0.956 . S
H1819 C1806 0.961 . S
H1820 C1806 0.961 . S
H1821 C1807 0.958 . S
H1822 C1807 0.961 . S
H1823 C1807 0.960 . S
C1824 C1825 1.391 . S
C1824 C1826 1.394 . S
C1824 H1840 0.931 . S
C1825 C1824 1.391 . S
C1825 C1829 1.376 . S
C1826 C1824 1.394 . S
C1826 C1827 1.369 . S
C1826 C1830 1.531 . S
C1827 C1826 1.369 . S
C1827 C1828 1.410 . S
C1827 C1835 1.503 . S
C1828 C1827 1.410 . S
C1828 C1829 1.392 . S
C1828 C1831 1.511 . S
C1829 C1825 1.376 . S
C1829 C1828 1.392 . S
C1829 H1841 0.929 . S
C1830 C1826 1.531 . S
C1830 H1842 0.960 . S
C1830 H1843 0.962 . S
C1830 H1844 0.960 . S
C1831 C1828 1.511 . S
C1831 H1845 0.961 . S
C1831 H1846 0.961 . S
C1831 H1847 0.961 . S
C1832 C1833 1.370 . S
C1832 C1834 1.363 . S
C1832 H1848 0.931 . S
C1833 C1832 1.370 . S
C1833 C1837 1.408 . S
C1834 C1832 1.363 . S
C1834 C1835 1.370 . S
C1834 C1838 1.524 . S
C1835 C1827 1.503 . S
C1835 C1834 1.370 . S
C1835 C1836 1.403 . S
C1836 C1835 1.403 . S
C1836 C1837 1.404 . S
C1836 C1839 1.539 . S
C1837 C1833 1.408 . S
C1837 C1836 1.404 . S
C1837 H1849 0.930 . S
C1838 C1834 1.524 . S
C1838 H1850 0.956 . S
C1838 H1851 0.961 . S
C1838 H1852 0.961 . S
C1839 C1836 1.539 . S
C1839 H1853 0.958 . S
C1839 H1854 0.961 . S
C1839 H1855 0.960 . S
H1840 C1824 0.931 . S
H1841 C1829 0.929 . S
H1842 C1830 0.960 . S
H1843 C1830 0.962 . S
H1844 C1830 0.960 . S
H1845 C1831 0.961 . S
H1846 C1831 0.961 . S
H1847 C1831 0.961 . S
H1848 C1832 0.931 . S
H1849 C1837 0.930 . S
H1850 C1838 0.956 . S
H1851 C1838 0.961 . S
H1852 C1838 0.961 . S
H1853 C1839 0.958 . S
H1854 C1839 0.961 . S
H1855 C1839 0.960 . S
C1856 C1857 1.391 1_554 S
C1856 C1858 1.394 . S
C1856 H1872 0.931 1_554 S
C1857 C1856 1.391 1_556 S
C1857 C1861 1.376 1_556 S
C1858 C1856 1.394 . S
C1858 C1859 1.369 . S
C1858 C1862 1.531 . S
C1859 C1858 1.369 . S
C1859 C1860 1.410 . S
C1859 C1867 1.503 . S
C1860 C1859 1.410 . S
C1860 C1861 1.392 . S
C1860 C1863 1.511 . S
C1861 C1857 1.376 1_554 S
C1861 C1860 1.392 . S
C1861 H1873 0.929 1_554 S
C1862 C1858 1.531 . S
C1862 H1874 0.960 . S
C1862 H1875 0.962 . S
C1862 H1876 0.960 . S
C1863 C1860 1.511 . S
C1863 H1877 0.961 . S
C1863 H1878 0.961 . S
C1863 H1879 0.961 . S
C1864 C1865 1.370 . S
C1864 C1866 1.363 . S
C1864 H1880 0.931 . S
C1865 C1864 1.370 . S
C1865 C1869 1.408 . S
C1866 C1864 1.363 . S
C1866 C1867 1.370 . S
C1866 C1870 1.524 . S
C1867 C1859 1.503 . S
C1867 C1866 1.370 . S
C1867 C1868 1.403 . S
C1868 C1867 1.403 . S
C1868 C1869 1.404 . S
C1868 C1871 1.539 . S
C1869 C1865 1.408 . S
C1869 C1868 1.404 . S
C1869 H1881 0.930 . S
C1870 C1866 1.524 . S
C1870 H1882 0.956 . S
C1870 H1883 0.961 . S
C1870 H1884 0.961 . S
C1871 C1868 1.539 . S
C1871 H1885 0.958 . S
C1871 H1886 0.961 . S
C1871 H1887 0.960 . S
H1872 C1856 0.931 1_556 S
H1873 C1861 0.929 1_556 S
H1874 C1862 0.960 . S
H1875 C1862 0.962 . S
H1876 C1862 0.960 . S
H1877 C1863 0.961 . S
H1878 C1863 0.961 . S
H1879 C1863 0.961 . S
H1880 C1864 0.931 . S
H1881 C1869 0.930 . S
H1882 C1870 0.956 . S
H1883 C1870 0.961 . S
H1884 C1870 0.961 . S
H1885 C1871 0.958 . S
H1886 C1871 0.961 . S
H1887 C1871 0.960 . S
C1888 C1889 1.391 . S
C1888 C1890 1.394 1_554 S
C1888 H1904 0.931 . S
C1889 C1888 1.391 . S
C1889 C1893 1.376 . S
C1890 C1888 1.394 1_556 S
C1890 C1891 1.369 . S
C1890 C1894 1.531 . S
C1891 C1890 1.369 . S
C1891 C1892 1.410 1_556 S
C1891 C1899 1.503 . S
C1892 C1891 1.410 1_554 S
C1892 C1893 1.392 . S
C1892 C1895 1.511 1_554 S
C1893 C1889 1.376 . S
C1893 C1892 1.392 . S
C1893 H1905 0.929 . S
C1894 C1890 1.531 . S
C1894 H1906 0.960 . S
C1894 H1907 0.962 . S
C1894 H1908 0.960 . S
C1895 C1892 1.511 1_556 S
C1895 H1909 0.961 1_556 S
C1895 H1910 0.961 . S
C1895 H1911 0.961 . S
C1896 C1897 1.370 . S
C1896 C1898 1.363 . S
C1896 H1912 0.931 . S
C1897 C1896 1.370 . S
C1897 C1901 1.408 . S
C1898 C1896 1.363 . S
C1898 C1899 1.370 . S
C1898 C1902 1.524 . S
C1899 C1891 1.503 . S
C1899 C1898 1.370 . S
C1899 C1900 1.403 . S
C1900 C1899 1.403 . S
C1900 C1901 1.404 . S
C1900 C1903 1.539 . S
C1901 C1897 1.408 . S
C1901 C1900 1.404 . S
C1901 H1913 0.930 . S
C1902 C1898 1.524 . S
C1902 H1914 0.956 . S
C1902 H1915 0.961 . S
C1902 H1916 0.961 . S
C1903 C1900 1.539 . S
C1903 H1917 0.958 . S
C1903 H1918 0.961 . S
C1903 H1919 0.960 . S
H1904 C1888 0.931 . S
H1905 C1893 0.929 . S
H1906 C1894 0.960 . S
H1907 C1894 0.962 . S
H1908 C1894 0.960 . S
H1909 C1895 0.961 1_554 S
H1910 C1895 0.961 . S
H1911 C1895 0.961 . S
H1912 C1896 0.931 . S
H1913 C1901 0.930 . S
H1914 C1902 0.956 . S
H1915 C1902 0.961 . S
H1916 C1902 0.961 . S
H1917 C1903 0.958 . S
H1918 C1903 0.961 . S
H1919 C1903 0.960 . S
C1920 C1921 1.391 . S
C1920 C1922 1.394 . S
C1920 H1936 0.931 . S
C1921 C1920 1.391 . S
C1921 C1925 1.376 . S
C1922 C1920 1.394 . S
C1922 C1923 1.369 . S
C1922 C1926 1.531 . S
C1923 C1922 1.369 . S
C1923 C1924 1.410 . S
C1923 C1931 1.503 . S
C1924 C1923 1.410 . S
C1924 C1925 1.392 . S
C1924 C1927 1.511 . S
C1925 C1921 1.376 . S
C1925 C1924 1.392 . S
C1925 H1937 0.929 . S
C1926 C1922 1.531 . S
C1926 H1938 0.960 . S
C1926 H1939 0.962 . S
C1926 H1940 0.960 . S
C1927 C1924 1.511 . S
C1927 H1941 0.961 . S
C1927 H1942 0.961 . S
C1927 H1943 0.961 . S
C1928 C1929 1.370 . S
C1928 C1930 1.363 . S
C1928 H1944 0.931 . S
C1929 C1928 1.370 . S
C1929 C1933 1.408 . S
C1930 C1928 1.363 . S
C1930 C1931 1.370 . S
C1930 C1934 1.524 . S
C1931 C1923 1.503 . S
C1931 C1930 1.370 . S
C1931 C1932 1.403 . S
C1932 C1931 1.403 . S
C1932 C1933 1.404 . S
C1932 C1935 1.539 . S
C1933 C1929 1.408 . S
C1933 C1932 1.404 . S
C1933 H1945 0.930 . S
C1934 C1930 1.524 . S
C1934 H1946 0.956 . S
C1934 H1947 0.961 . S
C1934 H1948 0.961 . S
C1935 C1932 1.539 . S
C1935 H1949 0.958 . S
C1935 H1950 0.961 . S
C1935 H1951 0.960 . S
H1936 C1920 0.931 . S
H1937 C1925 0.929 . S
H1938 C1926 0.960 . S
H1939 C1926 0.962 . S
H1940 C1926 0.960 . S
H1941 C1927 0.961 . S
H1942 C1927 0.961 . S
H1943 C1927 0.961 . S
H1944 C1928 0.931 . S
H1945 C1933 0.930 . S
H1946 C1934 0.956 . S
H1947 C1934 0.961 . S
H1948 C1934 0.961 . S
H1949 C1935 0.958 . S
H1950 C1935 0.961 . S
H1951 C1935 0.960 . S
C1952 C1953 1.391 . S
C1952 C1954 1.394 . S
C1952 H1968 0.931 . S
C1953 C1952 1.391 . S
C1953 C1957 1.376 . S
C1954 C1952 1.394 . S
C1954 C1955 1.369 . S
C1954 C1958 1.531 . S
C1955 C1954 1.369 . S
C1955 C1956 1.410 . S
C1955 C1963 1.503 . S
C1956 C1955 1.410 . S
C1956 C1957 1.392 . S
C1956 C1959 1.511 . S
C1957 C1953 1.376 . S
C1957 C1956 1.392 . S
C1957 H1969 0.929 . S
C1958 C1954 1.531 . S
C1958 H1970 0.960 . S
C1958 H1971 0.962 . S
C1958 H1972 0.960 . S
C1959 C1956 1.511 . S
C1959 H1973 0.961 . S
C1959 H1974 0.961 . S
C1959 H1975 0.961 . S
C1960 C1961 1.370 . S
C1960 C1962 1.363 . S
C1960 H1976 0.931 . S
C1961 C1960 1.370 . S
C1961 C1965 1.408 . S
C1962 C1960 1.363 . S
C1962 C1963 1.370 . S
C1962 C1966 1.524 . S
C1963 C1955 1.503 . S
C1963 C1962 1.370 . S
C1963 C1964 1.403 . S
C1964 C1963 1.403 . S
C1964 C1965 1.404 . S
C1964 C1967 1.539 . S
C1965 C1961 1.408 . S
C1965 C1964 1.404 . S
C1965 H1977 0.930 . S
C1966 C1962 1.524 . S
C1966 H1978 0.956 . S
C1966 H1979 0.961 . S
C1966 H1980 0.961 . S
C1967 C1964 1.539 . S
C1967 H1981 0.958 . S
C1967 H1982 0.961 . S
C1967 H1983 0.960 . S
H1968 C1952 0.931 . S
H1969 C1957 0.929 . S
H1970 C1958 0.960 . S
H1971 C1958 0.962 . S
H1972 C1958 0.960 . S
H1973 C1959 0.961 . S
H1974 C1959 0.961 . S
H1975 C1959 0.961 . S
H1976 C1960 0.931 . S
H1977 C1965 0.930 . S
H1978 C1966 0.956 . S
H1979 C1966 0.961 . S
H1980 C1966 0.961 . S
H1981 C1967 0.958 . S
H1982 C1967 0.961 . S
H1983 C1967 0.960 . S
C1984 C1985 1.391 . S
C1984 C1986 1.394 . S
C1984 H2000 0.931 . S
C1985 C1984 1.391 . S
C1985 C1989 1.376 . S
C1986 C1984 1.394 . S
C1986 C1987 1.369 . S
C1986 C1990 1.531 . S
C1987 C1986 1.369 . S
C1987 C1988 1.410 . S
C1987 C1995 1.503 . S
C1988 C1987 1.410 . S
C1988 C1989 1.392 . S
C1988 C1991 1.511 . S
C1989 C1985 1.376 . S
C1989 C1988 1.392 . S
C1989 H2001 0.929 . S
C1990 C1986 1.531 . S
C1990 H2002 0.960 . S
C1990 H2003 0.962 . S
C1990 H2004 0.960 . S
C1991 C1988 1.511 . S
C1991 H2005 0.961 . S
C1991 H2006 0.961 . S
C1991 H2007 0.961 . S
C1992 C1993 1.370 . S
C1992 C1994 1.363 . S
C1992 H2008 0.931 . S
C1993 C1992 1.370 . S
C1993 C1997 1.408 . S
C1994 C1992 1.363 . S
C1994 C1995 1.370 . S
C1994 C1998 1.524 . S
C1995 C1987 1.503 . S
C1995 C1994 1.370 . S
C1995 C1996 1.403 . S
C1996 C1995 1.403 . S
C1996 C1997 1.404 . S
C1996 C1999 1.539 . S
C1997 C1993 1.408 . S
C1997 C1996 1.404 . S
C1997 H2009 0.930 . S
C1998 C1994 1.524 . S
C1998 H2010 0.956 . S
C1998 H2011 0.961 . S
C1998 H2012 0.961 . S
C1999 C1996 1.539 . S
C1999 H2013 0.958 . S
C1999 H2014 0.961 . S
C1999 H2015 0.960 . S
H2000 C1984 0.931 . S
H2001 C1989 0.929 . S
H2002 C1990 0.960 . S
H2003 C1990 0.962 . S
H2004 C1990 0.960 . S
H2005 C1991 0.961 . S
H2006 C1991 0.961 . S
H2007 C1991 0.961 . S
H2008 C1992 0.931 . S
H2009 C1997 0.930 . S
H2010 C1998 0.956 . S
H2011 C1998 0.961 . S
H2012 C1998 0.961 . S
H2013 C1999 0.958 . S
H2014 C1999 0.961 . S
H2015 C1999 0.960 . S
C2016 C2017 1.391 . S
C2016 C2018 1.394 . S
C2016 H2032 0.931 . S
C2017 C2016 1.391 . S
C2017 C2021 1.376 . S
C2018 C2016 1.394 . S
C2018 C2019 1.369 1_556 S
C2018 C2022 1.531 1_556 S
C2019 C2018 1.369 1_554 S
C2019 C2020 1.410 . S
C2019 C2027 1.503 . S
C2020 C2019 1.410 . S
C2020 C2021 1.392 1_554 S
C2020 C2023 1.511 . S
C2021 C2017 1.376 . S
C2021 C2020 1.392 1_556 S
C2021 H2033 0.929 . S
C2022 C2018 1.531 1_554 S
C2022 H2034 0.960 . S
C2022 H2035 0.962 . S
C2022 H2036 0.960 1_554 S
C2023 C2020 1.511 . S
C2023 H2037 0.961 . S
C2023 H2038 0.961 . S
C2023 H2039 0.961 . S
C2024 C2025 1.370 . S
C2024 C2026 1.363 . S
C2024 H2040 0.931 . S
C2025 C2024 1.370 . S
C2025 C2029 1.408 . S
C2026 C2024 1.363 . S
C2026 C2027 1.370 . S
C2026 C2030 1.524 . S
C2027 C2019 1.503 . S
C2027 C2026 1.370 . S
C2027 C2028 1.403 . S
C2028 C2027 1.403 . S
C2028 C2029 1.404 . S
C2028 C2031 1.539 . S
C2029 C2025 1.408 . S
C2029 C2028 1.404 . S
C2029 H2041 0.930 . S
C2030 C2026 1.524 . S
C2030 H2042 0.956 . S
C2030 H2043 0.961 . S
C2030 H2044 0.961 . S
C2031 C2028 1.539 . S
C2031 H2045 0.958 . S
C2031 H2046 0.961 . S
C2031 H2047 0.960 . S
H2032 C2016 0.931 . S
H2033 C2021 0.929 . S
H2034 C2022 0.960 . S
H2035 C2022 0.962 . S
H2036 C2022 0.960 1_556 S
H2037 C2023 0.961 . S
H2038 C2023 0.961 . S
H2039 C2023 0.961 . S
H2040 C2024 0.931 . S
H2041 C2029 0.930 . S
H2042 C2030 0.956 . S
H2043 C2030 0.961 . S
H2044 C2030 0.961 . S
H2045 C2031 0.958 . S
H2046 C2031 0.961 . S
H2047 C2031 0.960 . S
C2048 C2049 1.391 1_556 S
C2048 C2050 1.394 . S
C2048 H2064 0.931 1_556 S
C2049 C2048 1.391 1_554 S
C2049 C2053 1.376 1_554 S
C2050 C2048 1.394 . S
C2050 C2051 1.369 . S
C2050 C2054 1.531 . S
C2051 C2050 1.369 . S
C2051 C2052 1.410 . S
C2051 C2059 1.503 . S
C2052 C2051 1.410 . S
C2052 C2053 1.392 . S
C2052 C2055 1.511 . S
C2053 C2049 1.376 1_556 S
C2053 C2052 1.392 . S
C2053 H2065 0.929 1_556 S
C2054 C2050 1.531 . S
C2054 H2066 0.960 . S
C2054 H2067 0.962 . S
C2054 H2068 0.960 . S
C2055 C2052 1.511 . S
C2055 H2069 0.961 . S
C2055 H2070 0.961 . S
C2055 H2071 0.961 . S
C2056 C2057 1.370 . S
C2056 C2058 1.363 . S
C2056 H2072 0.931 . S
C2057 C2056 1.370 . S
C2057 C2061 1.408 . S
C2058 C2056 1.363 . S
C2058 C2059 1.370 . S
C2058 C2062 1.524 . S
C2059 C2051 1.503 . S
C2059 C2058 1.370 . S
C2059 C2060 1.403 . S
C2060 C2059 1.403 . S
C2060 C2061 1.404 . S
C2060 C2063 1.539 . S
C2061 C2057 1.408 . S
C2061 C2060 1.404 . S
C2061 H2073 0.930 . S
C2062 C2058 1.524 . S
C2062 H2074 0.956 . S
C2062 H2075 0.961 . S
C2062 H2076 0.961 . S
C2063 C2060 1.539 . S
C2063 H2077 0.958 . S
C2063 H2078 0.961 . S
C2063 H2079 0.960 . S
H2064 C2048 0.931 1_554 S
H2065 C2053 0.929 1_554 S
H2066 C2054 0.960 . S
H2067 C2054 0.962 . S
H2068 C2054 0.960 . S
H2069 C2055 0.961 . S
H2070 C2055 0.961 . S
H2071 C2055 0.961 . S
H2072 C2056 0.931 . S
H2073 C2061 0.930 . S
H2074 C2062 0.956 . S
H2075 C2062 0.961 . S
H2076 C2062 0.961 . S
H2077 C2063 0.958 . S
H2078 C2063 0.961 . S
H2079 C2063 0.960 . S
C2080 C2081 1.391 . S
C2080 C2082 1.394 . S
C2080 H2096 0.931 . S
C2081 C2080 1.391 . S
C2081 C2085 1.376 . S
C2082 C2080 1.394 . S
C2082 C2083 1.369 . S
C2082 C2086 1.531 . S
C2083 C2082 1.369 . S
C2083 C2084 1.410 . S
C2083 C2091 1.503 . S
C2084 C2083 1.410 . S
C2084 C2085 1.392 . S
C2084 C2087 1.511 . S
C2085 C2081 1.376 . S
C2085 C2084 1.392 . S
C2085 H2097 0.929 . S
C2086 C2082 1.531 . S
C2086 H2098 0.960 . S
C2086 H2099 0.962 . S
C2086 H2100 0.960 . S
C2087 C2084 1.511 . S
C2087 H2101 0.961 . S
C2087 H2102 0.961 . S
C2087 H2103 0.961 . S
C2088 C2089 1.370 . S
C2088 C2090 1.363 . S
C2088 H2104 0.931 . S
C2089 C2088 1.370 . S
C2089 C2093 1.408 . S
C2090 C2088 1.363 . S
C2090 C2091 1.370 1_556 S
C2090 C2094 1.524 1_556 S
C2091 C2083 1.503 . S
C2091 C2090 1.370 1_554 S
C2091 C2092 1.403 1_554 S
C2092 C2091 1.403 1_556 S
C2092 C2093 1.404 . S
C2092 C2095 1.539 1_556 S
C2093 C2089 1.408 . S
C2093 C2092 1.404 . S
C2093 H2105 0.930 . S
C2094 C2090 1.524 1_554 S
C2094 H2106 0.956 . S
C2094 H2107 0.961 . S
C2094 H2108 0.961 1_554 S
C2095 C2092 1.539 1_554 S
C2095 H2109 0.958 . S
C2095 H2110 0.961 . S
C2095 H2111 0.960 . S
H2096 C2080 0.931 . S
H2097 C2085 0.929 . S
H2098 C2086 0.960 . S
H2099 C2086 0.962 . S
H2100 C2086 0.960 . S
H2101 C2087 0.961 . S
H2102 C2087 0.961 . S
H2103 C2087 0.961 . S
H2104 C2088 0.931 . S
H2105 C2093 0.930 . S
H2106 C2094 0.956 . S
H2107 C2094 0.961 . S
H2108 C2094 0.961 1_556 S
H2109 C2095 0.958 . S
H2110 C2095 0.961 . S
H2111 C2095 0.960 . S
C2112 C2113 1.391 . S
C2112 C2114 1.394 . S
C2112 H2128 0.931 . S
C2113 C2112 1.391 . S
C2113 C2117 1.376 . S
C2114 C2112 1.394 . S
C2114 C2115 1.369 . S
C2114 C2118 1.531 . S
C2115 C2114 1.369 . S
C2115 C2116 1.410 . S
C2115 C2123 1.503 . S
C2116 C2115 1.410 . S
C2116 C2117 1.392 . S
C2116 C2119 1.511 . S
C2117 C2113 1.376 . S
C2117 C2116 1.392 . S
C2117 H2129 0.929 . S
C2118 C2114 1.531 . S
C2118 H2130 0.960 . S
C2118 H2131 0.962 . S
C2118 H2132 0.960 . S
C2119 C2116 1.511 . S
C2119 H2133 0.961 . S
C2119 H2134 0.961 . S
C2119 H2135 0.961 . S
C2120 C2121 1.370 . S
C2120 C2122 1.363 . S
C2120 H2136 0.931 . S
C2121 C2120 1.370 . S
C2121 C2125 1.408 . S
C2122 C2120 1.363 . S
C2122 C2123 1.370 . S
C2122 C2126 1.524 . S
C2123 C2115 1.503 . S
C2123 C2122 1.370 . S
C2123 C2124 1.403 . S
C2124 C2123 1.403 . S
C2124 C2125 1.404 . S
C2124 C2127 1.539 . S
C2125 C2121 1.408 . S
C2125 C2124 1.404 . S
C2125 H2137 0.930 . S
C2126 C2122 1.524 . S
C2126 H2138 0.956 . S
C2126 H2139 0.961 . S
C2126 H2140 0.961 . S
C2127 C2124 1.539 . S
C2127 H2141 0.958 . S
C2127 H2142 0.961 . S
C2127 H2143 0.960 . S
H2128 C2112 0.931 . S
H2129 C2117 0.929 . S
H2130 C2118 0.960 . S
H2131 C2118 0.962 . S
H2132 C2118 0.960 . S
H2133 C2119 0.961 . S
H2134 C2119 0.961 . S
H2135 C2119 0.961 . S
H2136 C2120 0.931 . S
H2137 C2125 0.930 . S
H2138 C2126 0.956 . S
H2139 C2126 0.961 . S
H2140 C2126 0.961 . S
H2141 C2127 0.958 . S
H2142 C2127 0.961 . S
H2143 C2127 0.960 . S
C2144 C2145 1.391 . S
C2144 C2146 1.394 . S
C2144 H2160 0.931 . S
C2145 C2144 1.391 . S
C2145 C2149 1.376 . S
C2146 C2144 1.394 . S
C2146 C2147 1.369 . S
C2146 C2150 1.531 . S
C2147 C2146 1.369 . S
C2147 C2148 1.410 . S
C2147 C2155 1.503 . S
C2148 C2147 1.410 . S
C2148 C2149 1.392 . S
C2148 C2151 1.511 . S
C2149 C2145 1.376 . S
C2149 C2148 1.392 . S
C2149 H2161 0.929 . S
C2150 C2146 1.531 . S
C2150 H2162 0.960 . S
C2150 H2163 0.962 . S
C2150 H2164 0.960 . S
C2151 C2148 1.511 . S
C2151 H2165 0.961 . S
C2151 H2166 0.961 . S
C2151 H2167 0.961 . S
C2152 C2153 1.370 . S
C2152 C2154 1.363 . S
C2152 H2168 0.931 . S
C2153 C2152 1.370 . S
C2153 C2157 1.408 . S
C2154 C2152 1.363 . S
C2154 C2155 1.370 . S
C2154 C2158 1.524 . S
C2155 C2147 1.503 . S
C2155 C2154 1.370 . S
C2155 C2156 1.403 . S
C2156 C2155 1.403 . S
C2156 C2157 1.404 . S
C2156 C2159 1.539 . S
C2157 C2153 1.408 . S
C2157 C2156 1.404 . S
C2157 H2169 0.930 . S
C2158 C2154 1.524 . S
C2158 H2170 0.956 . S
C2158 H2171 0.961 . S
C2158 H2172 0.961 . S
C2159 C2156 1.539 . S
C2159 H2173 0.958 . S
C2159 H2174 0.961 . S
C2159 H2175 0.960 . S
H2160 C2144 0.931 . S
H2161 C2149 0.929 . S
H2162 C2150 0.960 . S
H2163 C2150 0.962 . S
H2164 C2150 0.960 . S
H2165 C2151 0.961 . S
H2166 C2151 0.961 . S
H2167 C2151 0.961 . S
H2168 C2152 0.931 . S
H2169 C2157 0.930 . S
H2170 C2158 0.956 . S
H2171 C2158 0.961 . S
H2172 C2158 0.961 . S
H2173 C2159 0.958 . S
H2174 C2159 0.961 . S
H2175 C2159 0.960 . S
C2176 C2177 1.391 1_556 S
C2176 C2178 1.394 . S
C2176 H2192 0.931 1_556 S
C2177 C2176 1.391 1_554 S
C2177 C2181 1.376 1_554 S
C2178 C2176 1.394 . S
C2178 C2179 1.369 . S
C2178 C2182 1.531 . S
C2179 C2178 1.369 . S
C2179 C2180 1.410 . S
C2179 C2187 1.503 . S
C2180 C2179 1.410 . S
C2180 C2181 1.392 . S
C2180 C2183 1.511 . S
C2181 C2177 1.376 1_556 S
C2181 C2180 1.392 . S
C2181 H2193 0.929 1_556 S
C2182 C2178 1.531 . S
C2182 H2194 0.960 . S
C2182 H2195 0.962 . S
C2182 H2196 0.960 . S
C2183 C2180 1.511 . S
C2183 H2197 0.961 . S
C2183 H2198 0.961 . S
C2183 H2199 0.961 . S
C2184 C2185 1.370 . S
C2184 C2186 1.363 . S
C2184 H2200 0.931 . S
C2185 C2184 1.370 . S
C2185 C2189 1.408 . S
C2186 C2184 1.363 . S
C2186 C2187 1.370 . S
C2186 C2190 1.524 . S
C2187 C2179 1.503 . S
C2187 C2186 1.370 . S
C2187 C2188 1.403 . S
C2188 C2187 1.403 . S
C2188 C2189 1.404 . S
C2188 C2191 1.539 . S
C2189 C2185 1.408 . S
C2189 C2188 1.404 . S
C2189 H2201 0.930 . S
C2190 C2186 1.524 . S
C2190 H2202 0.956 . S
C2190 H2203 0.961 . S
C2190 H2204 0.961 . S
C2191 C2188 1.539 . S
C2191 H2205 0.958 . S
C2191 H2206 0.961 . S
C2191 H2207 0.960 . S
H2192 C2176 0.931 1_554 S
H2193 C2181 0.929 1_554 S
H2194 C2182 0.960 . S
H2195 C2182 0.962 . S
H2196 C2182 0.960 . S
H2197 C2183 0.961 . S
H2198 C2183 0.961 . S
H2199 C2183 0.961 . S
H2200 C2184 0.931 . S
H2201 C2189 0.930 . S
H2202 C2190 0.956 . S
H2203 C2190 0.961 . S
H2204 C2190 0.961 . S
H2205 C2191 0.958 . S
H2206 C2191 0.961 . S
H2207 C2191 0.960 . S
C2208 C2209 1.391 . S
C2208 C2210 1.394 . S
C2208 H2224 0.931 . S
C2209 C2208 1.391 . S
C2209 C2213 1.376 . S
C2210 C2208 1.394 . S
C2210 C2211 1.369 . S
C2210 C2214 1.531 . S
C2211 C2210 1.369 . S
C2211 C2212 1.410 . S
C2211 C2219 1.503 . S
C2212 C2211 1.410 . S
C2212 C2213 1.392 . S
C2212 C2215 1.511 . S
C2213 C2209 1.376 . S
C2213 C2212 1.392 . S
C2213 H2225 0.929 . S
C2214 C2210 1.531 . S
C2214 H2226 0.960 . S
C2214 H2227 0.962 . S
C2214 H2228 0.960 . S
C2215 C2212 1.511 . S
C2215 H2229 0.961 . S
C2215 H2230 0.961 . S
C2215 H2231 0.961 . S
C2216 C2217 1.370 . S
C2216 C2218 1.363 1_554 S
C2216 H2232 0.931 . S
C2217 C2216 1.370 . S
C2217 C2221 1.408 . S
C2218 C2216 1.363 1_556 S
C2218 C2219 1.370 . S
C2218 C2222 1.524 . S
C2219 C2211 1.503 . S
C2219 C2218 1.370 . S
C2219 C2220 1.403 1_556 S
C2220 C2219 1.403 1_554 S
C2220 C2221 1.404 . S
C2220 C2223 1.539 1_554 S
C2221 C2217 1.408 . S
C2221 C2220 1.404 . S
C2221 H2233 0.930 . S
C2222 C2218 1.524 . S
C2222 H2234 0.956 . S
C2222 H2235 0.961 . S
C2222 H2236 0.961 . S
C2223 C2220 1.539 1_556 S
C2223 H2237 0.958 . S
C2223 H2238 0.961 1_556 S
C2223 H2239 0.960 . S
H2224 C2208 0.931 . S
H2225 C2213 0.929 . S
H2226 C2214 0.960 . S
H2227 C2214 0.962 . S
H2228 C2214 0.960 . S
H2229 C2215 0.961 . S
H2230 C2215 0.961 . S
H2231 C2215 0.961 . S
H2232 C2216 0.931 . S
H2233 C2221 0.930 . S
H2234 C2222 0.956 . S
H2235 C2222 0.961 . S
H2236 C2222 0.961 . S
H2237 C2223 0.958 . S
H2238 C2223 0.961 1_554 S
H2239 C2223 0.960 . S
C2240 C2241 1.391 1_554 S
C2240 C2242 1.394 . S
C2240 H2256 0.931 1_554 S
C2241 C2240 1.391 1_556 S
C2241 C2245 1.376 1_556 S
C2242 C2240 1.394 . S
C2242 C2243 1.369 . S
C2242 C2246 1.531 . S
C2243 C2242 1.369 . S
C2243 C2244 1.410 . S
C2243 C2251 1.503 . S
C2244 C2243 1.410 . S
C2244 C2245 1.392 . S
C2244 C2247 1.511 . S
C2245 C2241 1.376 1_554 S
C2245 C2244 1.392 . S
C2245 H2257 0.929 . S
C2246 C2242 1.531 . S
C2246 H2258 0.960 . S
C2246 H2259 0.962 . S
C2246 H2260 0.960 . S
C2247 C2244 1.511 . S
C2247 H2261 0.961 . S
C2247 H2262 0.961 . S
C2247 H2263 0.961 . S
C2248 C2249 1.370 . S
C2248 C2250 1.363 . S
C2248 H2264 0.931 . S
C2249 C2248 1.370 . S
C2249 C2253 1.408 . S
C2250 C2248 1.363 . S
C2250 C2251 1.370 . S
C2250 C2254 1.524 . S
C2251 C2243 1.503 . S
C2251 C2250 1.370 . S
C2251 C2252 1.403 . S
C2252 C2251 1.403 . S
C2252 C2253 1.404 . S
C2252 C2255 1.539 . S
C2253 C2249 1.408 . S
C2253 C2252 1.404 . S
C2253 H2265 0.930 . S
C2254 C2250 1.524 . S
C2254 H2266 0.956 . S
C2254 H2267 0.961 . S
C2254 H2268 0.961 . S
C2255 C2252 1.539 . S
C2255 H2269 0.958 . S
C2255 H2270 0.961 . S
C2255 H2271 0.960 . S
H2256 C2240 0.931 1_556 S
H2257 C2245 0.929 . S
H2258 C2246 0.960 . S
H2259 C2246 0.962 . S
H2260 C2246 0.960 . S
H2261 C2247 0.961 . S
H2262 C2247 0.961 . S
H2263 C2247 0.961 . S
H2264 C2248 0.931 . S
H2265 C2253 0.930 . S
H2266 C2254 0.956 . S
H2267 C2254 0.961 . S
H2268 C2254 0.961 . S
H2269 C2255 0.958 . S
H2270 C2255 0.961 . S
H2271 C2255 0.960 . S
C2272 C2273 1.391 . S
C2272 C2274 1.394 . S
C2272 H2288 0.931 . S
C2273 C2272 1.391 . S
C2273 C2277 1.376 . S
C2274 C2272 1.394 . S
C2274 C2275 1.369 . S
C2274 C2278 1.531 . S
C2275 C2274 1.369 . S
C2275 C2276 1.410 . S
C2275 C2283 1.503 . S
C2276 C2275 1.410 . S
C2276 C2277 1.392 . S
C2276 C2279 1.511 . S
C2277 C2273 1.376 . S
C2277 C2276 1.392 . S
C2277 H2289 0.929 . S
C2278 C2274 1.531 . S
C2278 H2290 0.960 . S
C2278 H2291 0.962 . S
C2278 H2292 0.960 . S
C2279 C2276 1.511 . S
C2279 H2293 0.961 . S
C2279 H2294 0.961 . S
C2279 H2295 0.961 . S
C2280 C2281 1.370 . S
C2280 C2282 1.363 . S
C2280 H2296 0.931 . S
C2281 C2280 1.370 . S
C2281 C2285 1.408 . S
C2282 C2280 1.363 . S
C2282 C2283 1.370 . S
C2282 C2286 1.524 . S
C2283 C2275 1.503 . S
C2283 C2282 1.370 . S
C2283 C2284 1.403 . S
C2284 C2283 1.403 . S
C2284 C2285 1.404 . S
C2284 C2287 1.539 . S
C2285 C2281 1.408 . S
C2285 C2284 1.404 . S
C2285 H2297 0.930 . S
C2286 C2282 1.524 . S
C2286 H2298 0.956 . S
C2286 H2299 0.961 . S
C2286 H2300 0.961 . S
C2287 C2284 1.539 . S
C2287 H2301 0.958 . S
C2287 H2302 0.961 . S
C2287 H2303 0.960 . S
H2288 C2272 0.931 . S
H2289 C2277 0.929 . S
H2290 C2278 0.960 . S
H2291 C2278 0.962 . S
H2292 C2278 0.960 . S
H2293 C2279 0.961 . S
H2294 C2279 0.961 . S
H2295 C2279 0.961 . S
H2296 C2280 0.931 . S
H2297 C2285 0.930 . S
H2298 C2286 0.956 . S
H2299 C2286 0.961 . S
H2300 C2286 0.961 . S
H2301 C2287 0.958 . S
H2302 C2287 0.961 . S
H2303 C2287 0.960 . S
C2304 C2305 1.391 . S
C2304 C2306 1.394 . S
C2304 H2320 0.931 . S
C2305 C2304 1.391 . S
C2305 C2309 1.376 . S
C2306 C2304 1.394 . S
C2306 C2307 1.369 . S
C2306 C2310 1.531 . S
C2307 C2306 1.369 . S
C2307 C2308 1.410 . S
C2307 C2315 1.503 . S
C2308 C2307 1.410 . S
C2308 C2309 1.392 . S
C2308 C2311 1.511 . S
C2309 C2305 1.376 . S
C2309 C2308 1.392 . S
C2309 H2321 0.929 . S
C2310 C2306 1.531 . S
C2310 H2322 0.960 . S
C2310 H2323 0.962 . S
C2310 H2324 0.960 . S
C2311 C2308 1.511 . S
C2311 H2325 0.961 . S
C2311 H2326 0.961 . S
C2311 H2327 0.961 . S
C2312 C2313 1.370 . S
C2312 C2314 1.363 . S
C2312 H2328 0.931 . S
C2313 C2312 1.370 . S
C2313 C2317 1.408 . S
C2314 C2312 1.363 . S
C2314 C2315 1.370 . S
C2314 C2318 1.524 . S
C2315 C2307 1.503 . S
C2315 C2314 1.370 . S
C2315 C2316 1.403 . S
C2316 C2315 1.403 . S
C2316 C2317 1.404 . S
C2316 C2319 1.539 . S
C2317 C2313 1.408 . S
C2317 C2316 1.404 . S
C2317 H2329 0.930 . S
C2318 C2314 1.524 . S
C2318 H2330 0.956 . S
C2318 H2331 0.961 . S
C2318 H2332 0.961 . S
C2319 C2316 1.539 . S
C2319 H2333 0.958 . S
C2319 H2334 0.961 . S
C2319 H2335 0.960 . S
H2320 C2304 0.931 . S
H2321 C2309 0.929 . S
H2322 C2310 0.960 . S
H2323 C2310 0.962 . S
H2324 C2310 0.960 . S
H2325 C2311 0.961 . S
H2326 C2311 0.961 . S
H2327 C2311 0.961 . S
H2328 C2312 0.931 . S
H2329 C2317 0.930 . S
H2330 C2318 0.956 . S
H2331 C2318 0.961 . S
H2332 C2318 0.961 . S
H2333 C2319 0.958 . S
H2334 C2319 0.961 . S
H2335 C2319 0.960 . S
C2336 C2337 1.391 . S
C2336 C2338 1.394 . S
C2336 H2352 0.931 . S
C2337 C2336 1.391 . S
C2337 C2341 1.376 . S
C2338 C2336 1.394 . S
C2338 C2339 1.369 . S
C2338 C2342 1.531 . S
C2339 C2338 1.369 . S
C2339 C2340 1.410 . S
C2339 C2347 1.503 . S
C2340 C2339 1.410 . S
C2340 C2341 1.392 . S
C2340 C2343 1.511 . S
C2341 C2337 1.376 . S
C2341 C2340 1.392 . S
C2341 H2353 0.929 . S
C2342 C2338 1.531 . S
C2342 H2354 0.960 . S
C2342 H2355 0.962 . S
C2342 H2356 0.960 . S
C2343 C2340 1.511 . S
C2343 H2357 0.961 . S
C2343 H2358 0.961 . S
C2343 H2359 0.961 . S
C2344 C2345 1.370 . S
C2344 C2346 1.363 . S
C2344 H2360 0.931 . S
C2345 C2344 1.370 . S
C2345 C2349 1.408 . S
C2346 C2344 1.363 . S
C2346 C2347 1.370 1_554 S
C2346 C2350 1.524 1_554 S
C2347 C2339 1.503 . S
C2347 C2346 1.370 1_556 S
C2347 C2348 1.403 1_556 S
C2348 C2347 1.403 1_554 S
C2348 C2349 1.404 . S
C2348 C2351 1.539 1_554 S
C2349 C2345 1.408 . S
C2349 C2348 1.404 . S
C2349 H2361 0.930 . S
C2350 C2346 1.524 1_556 S
C2350 H2362 0.956 . S
C2350 H2363 0.961 . S
C2350 H2364 0.961 . S
C2351 C2348 1.539 1_556 S
C2351 H2365 0.958 . S
C2351 H2366 0.961 1_556 S
C2351 H2367 0.960 . S
H2352 C2336 0.931 . S
H2353 C2341 0.929 . S
H2354 C2342 0.960 . S
H2355 C2342 0.962 . S
H2356 C2342 0.960 . S
H2357 C2343 0.961 . S
H2358 C2343 0.961 . S
H2359 C2343 0.961 . S
H2360 C2344 0.931 . S
H2361 C2349 0.930 . S
H2362 C2350 0.956 . S
H2363 C2350 0.961 . S
H2364 C2350 0.961 . S
H2365 C2351 0.958 . S
H2366 C2351 0.961 1_554 S
H2367 C2351 0.960 . S
C2368 C2369 1.391 . S
C2368 C2370 1.394 . S
C2368 H2384 0.931 . S
C2369 C2368 1.391 . S
C2369 C2373 1.376 . S
C2370 C2368 1.394 . S
C2370 C2371 1.369 . S
C2370 C2374 1.531 . S
C2371 C2370 1.369 . S
C2371 C2372 1.410 . S
C2371 C2379 1.503 . S
C2372 C2371 1.410 . S
C2372 C2373 1.392 . S
C2372 C2375 1.511 . S
C2373 C2369 1.376 . S
C2373 C2372 1.392 . S
C2373 H2385 0.929 . S
C2374 C2370 1.531 . S
C2374 H2386 0.960 . S
C2374 H2387 0.962 . S
C2374 H2388 0.960 . S
C2375 C2372 1.511 . S
C2375 H2389 0.961 . S
C2375 H2390 0.961 . S
C2375 H2391 0.961 . S
C2376 C2377 1.370 . S
C2376 C2378 1.363 . S
C2376 H2392 0.931 . S
C2377 C2376 1.370 . S
C2377 C2381 1.408 . S
C2378 C2376 1.363 . S
C2378 C2379 1.370 . S
C2378 C2382 1.524 . S
C2379 C2371 1.503 . S
C2379 C2378 1.370 . S
C2379 C2380 1.403 . S
C2380 C2379 1.403 . S
C2380 C2381 1.404 . S
C2380 C2383 1.539 . S
C2381 C2377 1.408 . S
C2381 C2380 1.404 . S
C2381 H2393 0.930 . S
C2382 C2378 1.524 . S
C2382 H2394 0.956 . S
C2382 H2395 0.961 . S
C2382 H2396 0.961 . S
C2383 C2380 1.539 . S
C2383 H2397 0.958 . S
C2383 H2398 0.961 . S
C2383 H2399 0.960 . S
H2384 C2368 0.931 . S
H2385 C2373 0.929 . S
H2386 C2374 0.960 . S
H2387 C2374 0.962 . S
H2388 C2374 0.960 . S
H2389 C2375 0.961 . S
H2390 C2375 0.961 . S
H2391 C2375 0.961 . S
H2392 C2376 0.931 . S
H2393 C2381 0.930 . S
H2394 C2382 0.956 . S
H2395 C2382 0.961 . S
H2396 C2382 0.961 . S
H2397 C2383 0.958 . S
H2398 C2383 0.961 . S
H2399 C2383 0.960 . S
C2400 C2401 1.391 . S
C2400 C2402 1.394 . S
C2400 H2416 0.931 . S
C2401 C2400 1.391 . S
C2401 C2405 1.376 . S
C2402 C2400 1.394 . S
C2402 C2403 1.369 . S
C2402 C2406 1.531 . S
C2403 C2402 1.369 . S
C2403 C2404 1.410 . S
C2403 C2411 1.503 . S
C2404 C2403 1.410 . S
C2404 C2405 1.392 . S
C2404 C2407 1.511 . S
C2405 C2401 1.376 . S
C2405 C2404 1.392 . S
C2405 H2417 0.929 . S
C2406 C2402 1.531 . S
C2406 H2418 0.960 . S
C2406 H2419 0.962 . S
C2406 H2420 0.960 . S
C2407 C2404 1.511 . S
C2407 H2421 0.961 . S
C2407 H2422 0.961 . S
C2407 H2423 0.961 . S
C2408 C2409 1.370 . S
C2408 C2410 1.363 . S
C2408 H2424 0.931 . S
C2409 C2408 1.370 . S
C2409 C2413 1.408 . S
C2410 C2408 1.363 . S
C2410 C2411 1.370 . S
C2410 C2414 1.524 . S
C2411 C2403 1.503 . S
C2411 C2410 1.370 . S
C2411 C2412 1.403 . S
C2412 C2411 1.403 . S
C2412 C2413 1.404 . S
C2412 C2415 1.539 . S
C2413 C2409 1.408 . S
C2413 C2412 1.404 . S
C2413 H2425 0.930 . S
C2414 C2410 1.524 . S
C2414 H2426 0.956 . S
C2414 H2427 0.961 . S
C2414 H2428 0.961 . S
C2415 C2412 1.539 . S
C2415 H2429 0.958 . S
C2415 H2430 0.961 . S
C2415 H2431 0.960 . S
H2416 C2400 0.931 . S
H2417 C2405 0.929 . S
H2418 C2406 0.960 . S
H2419 C2406 0.962 . S
H2420 C2406 0.960 . S
H2421 C2407 0.961 . S
H2422 C2407 0.961 . S
H2423 C2407 0.961 . S
H2424 C2408 0.931 . S
H2425 C2413 0.930 . S
H2426 C2414 0.956 . S
H2427 C2414 0.961 . S
H2428 C2414 0.961 . S
H2429 C2415 0.958 . S
H2430 C2415 0.961 . S
H2431 C2415 0.960 . S
C2432 C2433 1.391 1_554 S
C2432 C2434 1.394 . S
C2432 H2448 0.931 1_554 S
C2433 C2432 1.391 1_556 S
C2433 C2437 1.376 1_556 S
C2434 C2432 1.394 . S
C2434 C2435 1.369 . S
C2434 C2438 1.531 . S
C2435 C2434 1.369 . S
C2435 C2436 1.410 . S
C2435 C2443 1.503 . S
C2436 C2435 1.410 . S
C2436 C2437 1.392 . S
C2436 C2439 1.511 . S
C2437 C2433 1.376 1_554 S
C2437 C2436 1.392 . S
C2437 H2449 0.929 1_554 S
C2438 C2434 1.531 . S
C2438 H2450 0.960 . S
C2438 H2451 0.962 . S
C2438 H2452 0.960 . S
C2439 C2436 1.511 . S
C2439 H2453 0.961 . S
C2439 H2454 0.961 . S
C2439 H2455 0.961 . S
C2440 C2441 1.370 . S
C2440 C2442 1.363 . S
C2440 H2456 0.931 . S
C2441 C2440 1.370 . S
C2441 C2445 1.408 . S
C2442 C2440 1.363 . S
C2442 C2443 1.370 . S
C2442 C2446 1.524 . S
C2443 C2435 1.503 . S
C2443 C2442 1.370 . S
C2443 C2444 1.403 . S
C2444 C2443 1.403 . S
C2444 C2445 1.404 . S
C2444 C2447 1.539 . S
C2445 C2441 1.408 . S
C2445 C2444 1.404 . S
C2445 H2457 0.930 . S
C2446 C2442 1.524 . S
C2446 H2458 0.956 . S
C2446 H2459 0.961 . S
C2446 H2460 0.961 . S
C2447 C2444 1.539 . S
C2447 H2461 0.958 . S
C2447 H2462 0.961 . S
C2447 H2463 0.960 . S
H2448 C2432 0.931 1_556 S
H2449 C2437 0.929 1_556 S
H2450 C2438 0.960 . S
H2451 C2438 0.962 . S
H2452 C2438 0.960 . S
H2453 C2439 0.961 . S
H2454 C2439 0.961 . S
H2455 C2439 0.961 . S
H2456 C2440 0.931 . S
H2457 C2445 0.930 . S
H2458 C2446 0.956 . S
H2459 C2446 0.961 . S
H2460 C2446 0.961 . S
H2461 C2447 0.958 . S
H2462 C2447 0.961 . S
H2463 C2447 0.960 . S
C2464 C2465 1.391 . S
C2464 C2466 1.394 . S
C2464 H2480 0.931 . S
C2465 C2464 1.391 . S
C2465 C2469 1.376 . S
C2466 C2464 1.394 . S
C2466 C2467 1.369 . S
C2466 C2470 1.531 . S
C2467 C2466 1.369 . S
C2467 C2468 1.410 . S
C2467 C2475 1.503 . S
C2468 C2467 1.410 . S
C2468 C2469 1.392 . S
C2468 C2471 1.511 . S
C2469 C2465 1.376 . S
C2469 C2468 1.392 . S
C2469 H2481 0.929 . S
C2470 C2466 1.531 . S
C2470 H2482 0.960 . S
C2470 H2483 0.962 . S
C2470 H2484 0.960 . S
C2471 C2468 1.511 . S
C2471 H2485 0.961 . S
C2471 H2486 0.961 . S
C2471 H2487 0.961 . S
C2472 C2473 1.370 . S
C2472 C2474 1.363 1_556 S
C2472 H2488 0.931 . S
C2473 C2472 1.370 . S
C2473 C2477 1.408 . S
C2474 C2472 1.363 1_554 S
C2474 C2475 1.370 . S
C2474 C2478 1.524 . S
C2475 C2467 1.503 . S
C2475 C2474 1.370 . S
C2475 C2476 1.403 1_554 S
C2476 C2475 1.403 1_556 S
C2476 C2477 1.404 . S
C2476 C2479 1.539 1_556 S
C2477 C2473 1.408 . S
C2477 C2476 1.404 . S
C2477 H2489 0.930 . S
C2478 C2474 1.524 . S
C2478 H2490 0.956 . S
C2478 H2491 0.961 . S
C2478 H2492 0.961 . S
C2479 C2476 1.539 1_554 S
C2479 H2493 0.958 . S
C2479 H2494 0.961 1_554 S
C2479 H2495 0.960 . S
H2480 C2464 0.931 . S
H2481 C2469 0.929 . S
H2482 C2470 0.960 . S
H2483 C2470 0.962 . S
H2484 C2470 0.960 . S
H2485 C2471 0.961 . S
H2486 C2471 0.961 . S
H2487 C2471 0.961 . S
H2488 C2472 0.931 . S
H2489 C2477 0.930 . S
H2490 C2478 0.956 . S
H2491 C2478 0.961 . S
H2492 C2478 0.961 . S
H2493 C2479 0.958 . S
H2494 C2479 0.961 1_556 S
H2495 C2479 0.960 . S
C2496 C2497 1.391 1_556 S
C2496 C2498 1.394 . S
C2496 H2512 0.931 1_556 S
C2497 C2496 1.391 1_554 S
C2497 C2501 1.376 1_554 S
C2498 C2496 1.394 . S
C2498 C2499 1.369 . S
C2498 C2502 1.531 . S
C2499 C2498 1.369 . S
C2499 C2500 1.410 . S
C2499 C2507 1.503 . S
C2500 C2499 1.410 . S
C2500 C2501 1.392 . S
C2500 C2503 1.511 . S
C2501 C2497 1.376 1_556 S
C2501 C2500 1.392 . S
C2501 H2513 0.929 1_556 S
C2502 C2498 1.531 . S
C2502 H2514 0.960 . S
C2502 H2515 0.962 . S
C2502 H2516 0.960 . S
C2503 C2500 1.511 . S
C2503 H2517 0.961 . S
C2503 H2518 0.961 . S
C2503 H2519 0.961 . S
C2504 C2505 1.370 . S
C2504 C2506 1.363 . S
C2504 H2520 0.931 . S
C2505 C2504 1.370 . S
C2505 C2509 1.408 . S
C2506 C2504 1.363 . S
C2506 C2507 1.370 . S
C2506 C2510 1.524 . S
C2507 C2499 1.503 . S
C2507 C2506 1.370 . S
C2507 C2508 1.403 . S
C2508 C2507 1.403 . S
C2508 C2509 1.404 . S
C2508 C2511 1.539 . S
C2509 C2505 1.408 . S
C2509 C2508 1.404 . S
C2509 H2521 0.930 . S
C2510 C2506 1.524 . S
C2510 H2522 0.956 . S
C2510 H2523 0.961 . S
C2510 H2524 0.961 . S
C2511 C2508 1.539 . S
C2511 H2525 0.958 . S
C2511 H2526 0.961 . S
C2511 H2527 0.960 . S
H2512 C2496 0.931 1_554 S
H2513 C2501 0.929 1_554 S
H2514 C2502 0.960 . S
H2515 C2502 0.962 . S
H2516 C2502 0.960 . S
H2517 C2503 0.961 . S
H2518 C2503 0.961 . S
H2519 C2503 0.961 . S
H2520 C2504 0.931 . S
H2521 C2509 0.930 . S
H2522 C2510 0.956 . S
H2523 C2510 0.961 . S
H2524 C2510 0.961 . S
H2525 C2511 0.958 . S
H2526 C2511 0.961 . S
H2527 C2511 0.960 . S
C2528 C2529 1.391 . S
C2528 C2530 1.394 . S
C2528 H2544 0.931 . S
C2529 C2528 1.391 . S
C2529 C2533 1.376 . S
C2530 C2528 1.394 . S
C2530 C2531 1.369 . S
C2530 C2534 1.531 . S
C2531 C2530 1.369 . S
C2531 C2532 1.410 . S
C2531 C2539 1.503 . S
C2532 C2531 1.410 . S
C2532 C2533 1.392 . S
C2532 C2535 1.511 . S
C2533 C2529 1.376 . S
C2533 C2532 1.392 . S
C2533 H2545 0.929 . S
C2534 C2530 1.531 . S
C2534 H2546 0.960 . S
C2534 H2547 0.962 . S
C2534 H2548 0.960 . S
C2535 C2532 1.511 . S
C2535 H2549 0.961 . S
C2535 H2550 0.961 . S
C2535 H2551 0.961 . S
C2536 C2537 1.370 . S
C2536 C2538 1.363 . S
C2536 H2552 0.931 . S
C2537 C2536 1.370 . S
C2537 C2541 1.408 . S
C2538 C2536 1.363 . S
C2538 C2539 1.370 . S
C2538 C2542 1.524 . S
C2539 C2531 1.503 . S
C2539 C2538 1.370 . S
C2539 C2540 1.403 . S
C2540 C2539 1.403 . S
C2540 C2541 1.404 . S
C2540 C2543 1.539 . S
C2541 C2537 1.408 . S
C2541 C2540 1.404 . S
C2541 H2553 0.930 . S
C2542 C2538 1.524 . S
C2542 H2554 0.956 . S
C2542 H2555 0.961 . S
C2542 H2556 0.961 . S
C2543 C2540 1.539 . S
C2543 H2557 0.958 . S
C2543 H2558 0.961 . S
C2543 H2559 0.960 . S
H2544 C2528 0.931 . S
H2545 C2533 0.929 . S
H2546 C2534 0.960 . S
H2547 C2534 0.962 . S
H2548 C2534 0.960 . S
H2549 C2535 0.961 . S
H2550 C2535 0.961 . S
H2551 C2535 0.961 . S
H2552 C2536 0.931 . S
H2553 C2541 0.930 . S
H2554 C2542 0.956 . S
H2555 C2542 0.961 . S
H2556 C2542 0.961 . S
H2557 C2543 0.958 . S
H2558 C2543 0.961 . S
H2559 C2543 0.960 . S
C2560 C2561 1.391 . S
C2560 C2562 1.394 . S
C2560 H2576 0.931 . S
C2561 C2560 1.391 . S
C2561 C2565 1.376 . S
C2562 C2560 1.394 . S
C2562 C2563 1.369 . S
C2562 C2566 1.531 . S
C2563 C2562 1.369 . S
C2563 C2564 1.410 . S
C2563 C2571 1.503 . S
C2564 C2563 1.410 . S
C2564 C2565 1.392 . S
C2564 C2567 1.511 . S
C2565 C2561 1.376 . S
C2565 C2564 1.392 . S
C2565 H2577 0.929 . S
C2566 C2562 1.531 . S
C2566 H2578 0.960 . S
C2566 H2579 0.962 . S
C2566 H2580 0.960 . S
C2567 C2564 1.511 . S
C2567 H2581 0.961 . S
C2567 H2582 0.961 . S
C2567 H2583 0.961 . S
C2568 C2569 1.370 . S
C2568 C2570 1.363 . S
C2568 H2584 0.931 . S
C2569 C2568 1.370 . S
C2569 C2573 1.408 . S
C2570 C2568 1.363 . S
C2570 C2571 1.370 . S
C2570 C2574 1.524 . S
C2571 C2563 1.503 . S
C2571 C2570 1.370 . S
C2571 C2572 1.403 . S
C2572 C2571 1.403 . S
C2572 C2573 1.404 . S
C2572 C2575 1.539 . S
C2573 C2569 1.408 . S
C2573 C2572 1.404 . S
C2573 H2585 0.930 . S
C2574 C2570 1.524 . S
C2574 H2586 0.956 . S
C2574 H2587 0.961 . S
C2574 H2588 0.961 . S
C2575 C2572 1.539 . S
C2575 H2589 0.958 . S
C2575 H2590 0.961 . S
C2575 H2591 0.960 . S
H2576 C2560 0.931 . S
H2577 C2565 0.929 . S
H2578 C2566 0.960 . S
H2579 C2566 0.962 . S
H2580 C2566 0.960 . S
H2581 C2567 0.961 . S
H2582 C2567 0.961 . S
H2583 C2567 0.961 . S
H2584 C2568 0.931 . S
H2585 C2573 0.930 . S
H2586 C2574 0.956 . S
H2587 C2574 0.961 . S
H2588 C2574 0.961 . S
H2589 C2575 0.958 . S
H2590 C2575 0.961 . S
H2591 C2575 0.960 . S
C2592 C2593 1.391 . S
C2592 C2594 1.394 . S
C2592 H2608 0.931 . S
C2593 C2592 1.391 . S
C2593 C2597 1.376 . S
C2594 C2592 1.394 . S
C2594 C2595 1.369 . S
C2594 C2598 1.531 . S
C2595 C2594 1.369 . S
C2595 C2596 1.410 . S
C2595 C2603 1.503 . S
C2596 C2595 1.410 . S
C2596 C2597 1.392 . S
C2596 C2599 1.511 . S
C2597 C2593 1.376 . S
C2597 C2596 1.392 . S
C2597 H2609 0.929 . S
C2598 C2594 1.531 . S
C2598 H2610 0.960 . S
C2598 H2611 0.962 . S
C2598 H2612 0.960 . S
C2599 C2596 1.511 . S
C2599 H2613 0.961 . S
C2599 H2614 0.961 . S
C2599 H2615 0.961 . S
C2600 C2601 1.370 . S
C2600 C2602 1.363 . S
C2600 H2616 0.931 . S
C2601 C2600 1.370 . S
C2601 C2605 1.408 . S
C2602 C2600 1.363 . S
C2602 C2603 1.370 . S
C2602 C2606 1.524 . S
C2603 C2595 1.503 . S
C2603 C2602 1.370 . S
C2603 C2604 1.403 . S
C2604 C2603 1.403 . S
C2604 C2605 1.404 . S
C2604 C2607 1.539 . S
C2605 C2601 1.408 . S
C2605 C2604 1.404 . S
C2605 H2617 0.930 . S
C2606 C2602 1.524 . S
C2606 H2618 0.956 . S
C2606 H2619 0.961 . S
C2606 H2620 0.961 . S
C2607 C2604 1.539 . S
C2607 H2621 0.958 . S
C2607 H2622 0.961 . S
C2607 H2623 0.960 . S
H2608 C2592 0.931 . S
H2609 C2597 0.929 . S
H2610 C2598 0.960 . S
H2611 C2598 0.962 . S
H2612 C2598 0.960 . S
H2613 C2599 0.961 . S
H2614 C2599 0.961 . S
H2615 C2599 0.961 . S
H2616 C2600 0.931 . S
H2617 C2605 0.930 . S
H2618 C2606 0.956 . S
H2619 C2606 0.961 . S
H2620 C2606 0.961 . S
H2621 C2607 0.958 . S
H2622 C2607 0.961 . S
H2623 C2607 0.960 . S
C2624 C2625 1.391 . S
C2624 C2626 1.394 . S
C2624 H2640 0.931 . S
C2625 C2624 1.391 . S
C2625 C2629 1.376 . S
C2626 C2624 1.394 . S
C2626 C2627 1.369 . S
C2626 C2630 1.509 1_545 S
C2627 C2626 1.369 . S
C2627 C2628 1.410 . S
C2627 C2635 1.503 1_545 S
C2628 C2627 1.410 . S
C2628 C2629 1.392 . S
C2628 C2631 1.511 . S
C2629 C2625 1.376 . S
C2629 C2628 1.392 . S
C2629 H2641 0.929 . S
C2630 C2626 1.509 1_565 S
C2630 H2642 0.994 . S
C2630 H2643 0.957 1_565 S
C2630 H2644 0.955 1_565 S
C2631 C2628 1.511 . S
C2631 H2645 0.961 . S
C2631 H2646 0.961 . S
C2631 H2647 0.961 . S
C2632 C2633 1.370 . S
C2632 C2634 1.363 . S
C2632 H2648 0.931 . S
C2633 C2632 1.370 . S
C2633 C2637 1.408 . S
C2634 C2632 1.363 . S
C2634 C2635 1.370 . S
C2634 C2638 1.524 1_565 S
C2635 C2627 1.503 1_565 S
C2635 C2634 1.370 . S
C2635 C2636 1.403 . S
C2636 C2635 1.403 . S
C2636 C2637 1.404 . S
C2636 C2639 1.539 . S
C2637 C2633 1.408 . S
C2637 C2636 1.404 . S
C2637 H2649 0.930 . S
C2638 C2634 1.524 1_545 S
C2638 H2650 0.956 . S
C2638 H2651 0.961 . S
C2638 H2652 0.961 . S
C2639 C2636 1.539 . S
C2639 H2653 0.958 . S
C2639 H2654 0.961 . S
C2639 H2655 0.960 . S
H2640 C2624 0.931 . S
H2641 C2629 0.929 . S
H2642 C2630 0.994 . S
H2643 C2630 0.957 1_545 S
H2644 C2630 0.955 1_545 S
H2645 C2631 0.961 . S
H2646 C2631 0.961 . S
H2647 C2631 0.961 . S
H2648 C2632 0.931 . S
H2649 C2637 0.930 . S
H2650 C2638 0.956 . S
H2651 C2638 0.961 . S
H2652 C2638 0.961 . S
H2653 C2639 0.958 . S
H2654 C2639 0.961 . S
H2655 C2639 0.960 . S
C2656 C2657 1.391 . S
C2656 C2658 1.394 . S
C2656 H2672 0.931 . S
C2657 C2656 1.391 . S
C2657 C2661 1.376 . S
C2658 C2656 1.394 . S
C2658 C2659 1.369 . S
C2658 C2662 1.531 . S
C2659 C2658 1.369 . S
C2659 C2660 1.410 . S
C2659 C2667 1.503 . S
C2660 C2659 1.410 . S
C2660 C2661 1.392 . S
C2660 C2663 1.511 . S
C2661 C2657 1.376 . S
C2661 C2660 1.392 . S
C2661 H2673 0.929 . S
C2662 C2658 1.531 . S
C2662 H2674 0.960 . S
C2662 H2675 0.962 . S
C2662 H2676 0.960 . S
C2663 C2660 1.511 . S
C2663 H2677 0.961 . S
C2663 H2678 0.961 . S
C2663 H2679 0.961 . S
C2664 C2665 1.370 . S
C2664 C2666 1.363 . S
C2664 H2680 0.931 . S
C2665 C2664 1.370 . S
C2665 C2669 1.408 . S
C2666 C2664 1.363 . S
C2666 C2667 1.370 . S
C2666 C2670 1.524 . S
C2667 C2659 1.503 . S
C2667 C2666 1.370 . S
C2667 C2668 1.403 . S
C2668 C2667 1.403 . S
C2668 C2669 1.404 . S
C2668 C2671 1.539 . S
C2669 C2665 1.408 . S
C2669 C2668 1.404 . S
C2669 H2681 0.930 . S
C2670 C2666 1.524 . S
C2670 H2682 0.956 . S
C2670 H2683 0.961 . S
C2670 H2684 0.961 . S
C2671 C2668 1.539 . S
C2671 H2685 0.958 . S
C2671 H2686 0.961 . S
C2671 H2687 0.960 . S
H2672 C2656 0.931 . S
H2673 C2661 0.929 . S
H2674 C2662 0.960 . S
H2675 C2662 0.962 . S
H2676 C2662 0.960 . S
H2677 C2663 0.961 . S
H2678 C2663 0.961 . S
H2679 C2663 0.961 . S
H2680 C2664 0.931 . S
H2681 C2669 0.930 . S
H2682 C2670 0.956 . S
H2683 C2670 0.961 . S
H2684 C2670 0.961 . S
H2685 C2671 0.958 . S
H2686 C2671 0.961 . S
H2687 C2671 0.960 . S
C2688 C2689 1.391 . S
C2688 C2690 1.394 . S
C2688 H2704 0.931 . S
C2689 C2688 1.391 . S
C2689 C2693 1.376 . S
C2690 C2688 1.394 . S
C2690 C2691 1.369 . S
C2690 C2694 1.531 1_565 S
C2691 C2690 1.369 . S
C2691 C2692 1.410 1_554 S
C2691 C2699 1.503 1_564 S
C2692 C2691 1.410 1_556 S
C2692 C2693 1.392 1_556 S
C2692 C2695 1.511 . S
C2693 C2689 1.376 . S
C2693 C2692 1.392 1_554 S
C2693 H2705 0.929 1_554 S
C2694 C2690 1.531 1_545 S
C2694 H2706 0.960 . S
C2694 H2707 0.962 . S
C2694 H2708 0.960 . S
C2695 C2692 1.511 . S
C2695 H2709 0.961 . S
C2695 H2710 0.961 . S
C2695 H2711 0.961 . S
C2696 C2697 1.370 . S
C2696 C2698 1.363 . S
C2696 H2712 0.931 . S
C2697 C2696 1.370 . S
C2697 C2701 1.408 . S
C2698 C2696 1.363 . S
C2698 C2699 1.370 . S
C2698 C2702 1.524 1_556 S
C2699 C2691 1.503 1_546 S
C2699 C2698 1.370 . S
C2699 C2700 1.403 . S
C2700 C2699 1.403 . S
C2700 C2701 1.404 . S
C2700 C2703 1.539 . S
C2701 C2697 1.408 . S
C2701 C2700 1.404 . S
C2701 H2713 0.930 . S
C2702 C2698 1.524 1_554 S
C2702 H2714 0.956 . S
C2702 H2715 1.026 . S
C2702 H2716 0.961 . S
C2703 C2700 1.539 . S
C2703 H2717 0.958 . S
C2703 H2718 0.961 . S
C2703 H2719 0.960 1_545 S
H2704 C2688 0.931 . S
H2705 C2693 0.929 1_556 S
H2706 C2694 0.960 . S
H2707 C2694 0.962 . S
H2708 C2694 0.960 . S
H2709 C2695 0.961 . S
H2710 C2695 0.961 . S
H2711 C2695 0.961 . S
H2712 C2696 0.931 . S
H2713 C2701 0.930 . S
H2714 C2702 0.956 . S
H2715 C2702 1.026 . S
H2716 C2702 0.961 . S
H2717 C2703 0.958 . S
H2718 C2703 0.961 . S
H2719 C2703 0.960 1_565 S
C2720 C2721 1.391 . S
C2720 C2722 1.394 . S
C2720 H2736 0.931 . S
C2721 C2720 1.391 . S
C2721 C2725 1.376 . S
C2722 C2720 1.394 . S
C2722 C2723 1.369 . S
C2722 C2726 1.531 . S
C2723 C2722 1.369 . S
C2723 C2724 1.410 . S
C2723 C2731 1.503 . S
C2724 C2723 1.410 . S
C2724 C2725 1.392 . S
C2724 C2727 1.511 . S
C2725 C2721 1.376 . S
C2725 C2724 1.392 . S
C2725 H2737 0.929 . S
C2726 C2722 1.531 . S
C2726 H2738 0.960 . S
C2726 H2739 0.962 . S
C2726 H2740 0.960 . S
C2727 C2724 1.511 . S
C2727 H2741 0.961 . S
C2727 H2742 0.961 . S
C2727 H2743 0.961 . S
C2728 C2729 1.370 . S
C2728 C2730 1.363 . S
C2728 H2744 0.931 . S
C2729 C2728 1.370 . S
C2729 C2733 1.408 . S
C2730 C2728 1.363 . S
C2730 C2731 1.370 . S
C2730 C2734 1.524 . S
C2731 C2723 1.503 . S
C2731 C2730 1.370 . S
C2731 C2732 1.403 . S
C2732 C2731 1.403 . S
C2732 C2733 1.404 . S
C2732 C2735 1.539 . S
C2733 C2729 1.408 . S
C2733 C2732 1.404 . S
C2733 H2745 0.930 . S
C2734 C2730 1.524 . S
C2734 H2746 0.956 . S
C2734 H2747 0.961 . S
C2734 H2748 0.961 . S
C2735 C2732 1.539 . S
C2735 H2749 0.958 . S
C2735 H2750 0.961 . S
C2735 H2751 0.960 . S
H2736 C2720 0.931 . S
H2737 C2725 0.929 . S
H2738 C2726 0.960 . S
H2739 C2726 0.962 . S
H2740 C2726 0.960 . S
H2741 C2727 0.961 . S
H2742 C2727 0.961 . S
H2743 C2727 0.961 . S
H2744 C2728 0.931 . S
H2745 C2733 0.930 . S
H2746 C2734 0.956 . S
H2747 C2734 0.961 . S
H2748 C2734 0.961 . S
H2749 C2735 0.958 . S
H2750 C2735 0.961 . S
H2751 C2735 0.960 . S
C2752 C2753 1.391 . S
C2752 C2754 1.394 . S
C2752 H2768 0.931 . S
C2753 C2752 1.391 . S
C2753 C2757 1.376 . S
C2754 C2752 1.394 . S
C2754 C2755 1.369 . S
C2754 C2758 1.531 . S
C2755 C2754 1.369 . S
C2755 C2756 1.410 . S
C2755 C2763 1.503 1_545 S
C2756 C2755 1.410 . S
C2756 C2757 1.392 . S
C2756 C2759 1.511 1_545 S
C2757 C2753 1.376 . S
C2757 C2756 1.392 . S
C2757 H2769 0.929 . S
C2758 C2754 1.531 . S
C2758 H2770 0.960 . S
C2758 H2771 0.962 . S
C2758 H2772 0.960 . S
C2759 C2756 1.511 1_565 S
C2759 H2773 0.961 . S
C2759 H2774 0.961 . S
C2759 H2775 0.961 . S
C2760 C2761 1.370 . S
C2760 C2762 1.363 . S
C2760 H2776 0.931 . S
C2761 C2760 1.370 . S
C2761 C2765 1.408 . S
C2762 C2760 1.363 . S
C2762 C2763 1.370 . S
C2762 C2766 1.524 . S
C2763 C2755 1.503 1_565 S
C2763 C2762 1.370 . S
C2763 C2764 1.403 . S
C2764 C2763 1.403 . S
C2764 C2765 1.404 . S
C2764 C2767 1.539 . S
C2765 C2761 1.408 . S
C2765 C2764 1.404 . S
C2765 H2777 0.930 . S
C2766 C2762 1.524 . S
C2766 H2778 0.956 1_565 S
C2766 H2779 0.961 . S
C2766 H2780 0.961 . S
C2767 C2764 1.539 . S
C2767 H2781 0.958 . S
C2767 H2782 0.961 . S
C2767 H2783 0.960 . S
H2768 C2752 0.931 . S
H2769 C2757 0.929 . S
H2770 C2758 0.960 . S
H2771 C2758 0.962 . S
H2772 C2758 0.960 . S
H2773 C2759 0.961 . S
H2774 C2759 0.961 . S
H2775 C2759 0.961 . S
H2776 C2760 0.931 . S
H2777 C2765 0.930 . S
H2778 C2766 0.956 1_545 S
H2779 C2766 0.961 . S
H2780 C2766 0.961 . S
H2781 C2767 0.958 . S
H2782 C2767 0.961 . S
H2783 C2767 0.960 . S
C2784 C2785 1.391 . S
C2784 C2786 1.394 . S
C2784 H2800 0.931 . S
C2785 C2784 1.391 . S
C2785 C2789 1.376 . S
C2786 C2784 1.394 . S
C2786 C2787 1.369 . S
C2786 C2790 1.531 . S
C2787 C2786 1.369 . S
C2787 C2788 1.410 . S
C2787 C2795 1.503 . S
C2788 C2787 1.410 . S
C2788 C2789 1.392 . S
C2788 C2791 1.511 . S
C2789 C2785 1.376 . S
C2789 C2788 1.392 . S
C2789 H2801 0.929 . S
C2790 C2786 1.531 . S
C2790 H2802 0.960 . S
C2790 H2803 0.962 . S
C2790 H2804 0.960 . S
C2791 C2788 1.511 . S
C2791 H2805 0.961 . S
C2791 H2806 0.961 . S
C2791 H2807 0.961 . S
C2792 C2793 1.370 . S
C2792 C2794 1.363 . S
C2792 H2808 0.931 . S
C2793 C2792 1.370 . S
C2793 C2797 1.408 . S
C2794 C2792 1.363 . S
C2794 C2795 1.370 . S
C2794 C2798 1.524 . S
C2795 C2787 1.503 . S
C2795 C2794 1.370 . S
C2795 C2796 1.403 . S
C2796 C2795 1.403 . S
C2796 C2797 1.404 . S
C2796 C2799 1.539 . S
C2797 C2793 1.408 . S
C2797 C2796 1.404 . S
C2797 H2809 0.930 . S
C2798 C2794 1.524 . S
C2798 H2810 0.956 . S
C2798 H2811 0.961 . S
C2798 H2812 0.961 . S
C2799 C2796 1.539 . S
C2799 H2813 0.958 . S
C2799 H2814 0.961 . S
C2799 H2815 0.960 . S
H2800 C2784 0.931 . S
H2801 C2789 0.929 . S
H2802 C2790 0.960 . S
H2803 C2790 0.962 . S
H2804 C2790 0.960 . S
H2805 C2791 0.961 . S
H2806 C2791 0.961 . S
H2807 C2791 0.961 . S
H2808 C2792 0.931 . S
H2809 C2797 0.930 . S
H2810 C2798 0.956 . S
H2811 C2798 0.961 . S
H2812 C2798 0.961 . S
H2813 C2799 0.958 . S
H2814 C2799 0.961 . S
H2815 C2799 0.960 . S
C2816 C2817 1.391 . S
C2816 C2818 1.394 1_556 S
C2816 H2832 0.931 . S
C2817 C2816 1.391 . S
C2817 C2821 1.376 . S
C2818 C2816 1.394 1_554 S
C2818 C2819 1.369 1_554 S
C2818 C2822 1.531 . S
C2819 C2818 1.369 1_556 S
C2819 C2820 1.410 . S
C2819 C2827 1.503 1_546 S
C2820 C2819 1.410 . S
C2820 C2821 1.392 . S
C2820 C2823 1.511 1_545 S
C2821 C2817 1.376 . S
C2821 C2820 1.392 . S
C2821 H2833 0.929 . S
C2822 C2818 1.531 . S
C2822 H2834 0.960 . S
C2822 H2835 0.962 . S
C2822 H2836 0.960 . S
C2823 C2820 1.511 1_565 S
C2823 H2837 0.966 . S
C2823 H2838 0.961 . S
C2823 H2839 0.961 . S
C2824 C2825 1.370 . S
C2824 C2826 1.363 . S
C2824 H2840 0.931 . S
C2825 C2824 1.370 . S
C2825 C2829 1.408 . S
C2826 C2824 1.363 . S
C2826 C2827 1.370 . S
C2826 C2830 1.524 1_554 S
C2827 C2819 1.503 1_564 S
C2827 C2826 1.370 . S
C2827 C2828 1.403 . S
C2828 C2827 1.403 . S
C2828 C2829 1.404 . S
C2828 C2831 1.539 1_565 S
C2829 C2825 1.408 . S
C2829 C2828 1.404 . S
C2829 H2841 0.930 . S
C2830 C2826 1.524 1_556 S
C2830 H2842 0.956 . S
C2830 H2843 0.961 . S
C2830 H2844 0.961 . S
C2831 C2828 1.539 1_545 S
C2831 H2845 0.958 . S
C2831 H2846 0.961 1_545 S
C2831 H2847 0.960 . S
H2832 C2816 0.931 . S
H2833 C2821 0.929 . S
H2834 C2822 0.960 . S
H2835 C2822 0.962 . S
H2836 C2822 0.960 . S
H2837 C2823 0.966 . S
H2838 C2823 0.961 . S
H2839 C2823 0.961 . S
H2840 C2824 0.931 . S
H2841 C2829 0.930 . S
H2842 C2830 0.956 . S
H2843 C2830 0.961 . S
H2844 C2830 0.961 . S
H2845 C2831 0.958 . S
H2846 C2831 0.961 1_565 S
H2847 C2831 0.960 . S
C2848 C2849 1.391 . S
C2848 C2850 1.394 . S
C2848 H2864 0.931 . S
C2849 C2848 1.391 . S
C2849 C2853 1.376 . S
C2850 C2848 1.394 . S
C2850 C2851 1.369 . S
C2850 C2854 1.531 . S
C2851 C2850 1.369 . S
C2851 C2852 1.410 . S
C2851 C2859 1.503 . S
C2852 C2851 1.410 . S
C2852 C2853 1.392 . S
C2852 C2855 1.511 . S
C2853 C2849 1.376 . S
C2853 C2852 1.392 . S
C2853 H2865 0.929 . S
C2854 C2850 1.531 . S
C2854 H2866 0.960 . S
C2854 H2867 0.962 . S
C2854 H2868 0.960 . S
C2855 C2852 1.511 . S
C2855 H2869 0.961 . S
C2855 H2870 0.961 . S
C2855 H2871 0.961 . S
C2856 C2857 1.370 . S
C2856 C2858 1.363 . S
C2856 H2872 0.931 . S
C2857 C2856 1.370 . S
C2857 C2861 1.408 . S
C2858 C2856 1.363 . S
C2858 C2859 1.370 . S
C2858 C2862 1.524 . S
C2859 C2851 1.503 . S
C2859 C2858 1.370 . S
C2859 C2860 1.403 . S
C2860 C2859 1.403 . S
C2860 C2861 1.404 . S
C2860 C2863 1.539 . S
C2861 C2857 1.408 . S
C2861 C2860 1.404 . S
C2861 H2873 0.930 . S
C2862 C2858 1.524 . S
C2862 H2874 0.956 . S
C2862 H2875 0.961 . S
C2862 H2876 0.961 . S
C2863 C2860 1.539 . S
C2863 H2877 0.958 . S
C2863 H2878 0.961 . S
C2863 H2879 0.960 . S
H2864 C2848 0.931 . S
H2865 C2853 0.929 . S
H2866 C2854 0.960 . S
H2867 C2854 0.962 . S
H2868 C2854 0.960 . S
H2869 C2855 0.961 . S
H2870 C2855 0.961 . S
H2871 C2855 0.961 . S
H2872 C2856 0.931 . S
H2873 C2861 0.930 . S
H2874 C2862 0.956 . S
H2875 C2862 0.961 . S
H2876 C2862 0.961 . S
H2877 C2863 0.958 . S
H2878 C2863 0.961 . S
H2879 C2863 0.960 . S
C2880 C2881 1.391 . S
C2880 C2882 1.394 . S
C2880 H2896 0.931 . S
C2881 C2880 1.391 . S
C2881 C2885 1.376 . S
C2882 C2880 1.394 . S
C2882 C2883 1.369 . S
C2882 C2886 1.531 . S
C2883 C2882 1.369 . S
C2883 C2884 1.410 1_556 S
C2883 C2891 1.503 1_556 S
C2884 C2883 1.410 1_554 S
C2884 C2885 1.392 1_554 S
C2884 C2887 1.511 . S
C2885 C2881 1.376 . S
C2885 C2884 1.392 1_556 S
C2885 H2897 0.929 . S
C2886 C2882 1.531 . S
C2886 H2898 0.960 . S
C2886 H2899 0.962 . S
C2886 H2900 0.960 . S
C2887 C2884 1.511 . S
C2887 H2901 0.961 . S
C2887 H2902 0.961 . S
C2887 H2903 0.961 . S
C2888 C2889 1.370 . S
C2888 C2890 1.363 1_554 S
C2888 H2904 0.931 . S
C2889 C2888 1.370 . S
C2889 C2893 1.408 . S
C2890 C2888 1.363 1_556 S
C2890 C2891 1.370 1_556 S
C2890 C2894 1.524 . S
C2891 C2883 1.503 1_554 S
C2891 C2890 1.370 1_554 S
C2891 C2892 1.403 . S
C2892 C2891 1.403 . S
C2892 C2893 1.404 . S
C2892 C2895 1.539 . S
C2893 C2889 1.408 . S
C2893 C2892 1.404 . S
C2893 H2905 0.930 . S
C2894 C2890 1.524 . S
C2894 H2906 0.956 . S
C2894 H2907 0.961 . S
C2894 H2908 0.961 . S
C2895 C2892 1.539 . S
C2895 H2909 0.958 . S
C2895 H2910 0.961 . S
C2895 H2911 0.960 . S
H2896 C2880 0.931 . S
H2897 C2885 0.929 . S
H2898 C2886 0.960 . S
H2899 C2886 0.962 . S
H2900 C2886 0.960 . S
H2901 C2887 0.961 . S
H2902 C2887 0.961 . S
H2903 C2887 0.961 . S
H2904 C2888 0.931 . S
H2905 C2893 0.930 . S
H2906 C2894 0.956 . S
H2907 C2894 0.961 . S
H2908 C2894 0.961 . S
H2909 C2895 0.958 . S
H2910 C2895 0.961 . S
H2911 C2895 0.960 . S
C2912 C2913 1.391 . S
C2912 C2914 1.394 . S
C2912 H2928 0.931 . S
C2913 C2912 1.391 . S
C2913 C2917 1.376 . S
C2914 C2912 1.394 . S
C2914 C2915 1.369 . S
C2914 C2918 1.531 . S
C2915 C2914 1.369 . S
C2915 C2916 1.410 . S
C2915 C2923 1.503 . S
C2916 C2915 1.410 . S
C2916 C2917 1.392 . S
C2916 C2919 1.511 . S
C2917 C2913 1.376 . S
C2917 C2916 1.392 . S
C2917 H2929 0.929 . S
C2918 C2914 1.531 . S
C2918 H2930 0.960 . S
C2918 H2931 0.962 . S
C2918 H2932 0.960 . S
C2919 C2916 1.511 . S
C2919 H2933 0.961 . S
C2919 H2934 0.961 . S
C2919 H2935 0.961 . S
C2920 C2921 1.370 . S
C2920 C2922 1.363 . S
C2920 H2936 0.931 . S
C2921 C2920 1.370 . S
C2921 C2925 1.408 . S
C2922 C2920 1.363 . S
C2922 C2923 1.370 . S
C2922 C2926 1.524 . S
C2923 C2915 1.503 . S
C2923 C2922 1.370 . S
C2923 C2924 1.403 . S
C2924 C2923 1.403 . S
C2924 C2925 1.404 . S
C2924 C2927 1.539 . S
C2925 C2921 1.408 . S
C2925 C2924 1.404 . S
C2925 H2937 0.930 . S
C2926 C2922 1.524 . S
C2926 H2938 0.956 . S
C2926 H2939 0.961 . S
C2926 H2940 0.961 . S
C2927 C2924 1.539 . S
C2927 H2941 0.958 . S
C2927 H2942 0.961 . S
C2927 H2943 0.960 . S
H2928 C2912 0.931 . S
H2929 C2917 0.929 . S
H2930 C2918 0.960 . S
H2931 C2918 0.962 . S
H2932 C2918 0.960 . S
H2933 C2919 0.961 . S
H2934 C2919 0.961 . S
H2935 C2919 0.961 . S
H2936 C2920 0.931 . S
H2937 C2925 0.930 . S
H2938 C2926 0.956 . S
H2939 C2926 0.961 . S
H2940 C2926 0.961 . S
H2941 C2927 0.958 . S
H2942 C2927 0.961 . S
H2943 C2927 0.960 . S
C2944 C2945 1.391 . S
C2944 C2946 1.394 . S
C2944 H2960 0.931 . S
C2945 C2944 1.391 . S
C2945 C2949 1.376 . S
C2946 C2944 1.394 . S
C2946 C2947 1.369 . S
C2946 C2950 1.531 . S
C2947 C2946 1.369 . S
C2947 C2948 1.410 . S
C2947 C2955 1.503 . S
C2948 C2947 1.410 . S
C2948 C2949 1.392 . S
C2948 C2951 1.511 . S
C2949 C2945 1.376 . S
C2949 C2948 1.392 . S
C2949 H2961 0.929 . S
C2950 C2946 1.531 . S
C2950 H2962 0.960 . S
C2950 H2963 0.962 . S
C2950 H2964 0.960 . S
C2951 C2948 1.511 . S
C2951 H2965 0.961 . S
C2951 H2966 0.961 . S
C2951 H2967 0.961 . S
C2952 C2953 1.370 . S
C2952 C2954 1.363 . S
C2952 H2968 0.931 . S
C2953 C2952 1.370 . S
C2953 C2957 1.408 . S
C2954 C2952 1.363 . S
C2954 C2955 1.370 . S
C2954 C2958 1.524 . S
C2955 C2947 1.503 . S
C2955 C2954 1.370 . S
C2955 C2956 1.403 . S
C2956 C2955 1.403 . S
C2956 C2957 1.404 . S
C2956 C2959 1.539 . S
C2957 C2953 1.408 . S
C2957 C2956 1.404 . S
C2957 H2969 0.930 . S
C2958 C2954 1.524 . S
C2958 H2970 0.956 . S
C2958 H2971 0.961 . S
C2958 H2972 0.961 . S
C2959 C2956 1.539 . S
C2959 H2973 0.958 . S
C2959 H2974 0.961 . S
C2959 H2975 0.960 . S
H2960 C2944 0.931 . S
H2961 C2949 0.929 . S
H2962 C2950 0.960 . S
H2963 C2950 0.962 . S
H2964 C2950 0.960 . S
H2965 C2951 0.961 . S
H2966 C2951 0.961 . S
H2967 C2951 0.961 . S
H2968 C2952 0.931 . S
H2969 C2957 0.930 . S
H2970 C2958 0.956 . S
H2971 C2958 0.961 . S
H2972 C2958 0.961 . S
H2973 C2959 0.958 . S
H2974 C2959 0.961 . S
H2975 C2959 0.960 . S
C2976 C2977 1.391 . S
C2976 C2978 1.394 . S
C2976 H2992 0.931 . S
C2977 C2976 1.391 . S
C2977 C2981 1.376 . S
C2978 C2976 1.394 . S
C2978 C2979 1.369 . S
C2978 C2982 1.531 . S
C2979 C2978 1.369 . S
C2979 C2980 1.410 . S
C2979 C2987 1.503 . S
C2980 C2979 1.410 . S
C2980 C2981 1.392 . S
C2980 C2983 1.511 . S
C2981 C2977 1.376 . S
C2981 C2980 1.392 . S
C2981 H2993 0.929 . S
C2982 C2978 1.531 . S
C2982 H2994 0.960 . S
C2982 H2995 0.962 . S
C2982 H2996 0.960 . S
C2983 C2980 1.511 . S
C2983 H2997 0.961 . S
C2983 H2998 0.961 . S
C2983 H2999 0.961 . S
C2984 C2985 1.370 . S
C2984 C2986 1.363 . S
C2984 H3000 0.931 . S
C2985 C2984 1.370 . S
C2985 C2989 1.408 . S
C2986 C2984 1.363 . S
C2986 C2987 1.370 . S
C2986 C2990 1.524 . S
C2987 C2979 1.503 . S
C2987 C2986 1.370 . S
C2987 C2988 1.403 . S
C2988 C2987 1.403 . S
C2988 C2989 1.404 . S
C2988 C2991 1.539 . S
C2989 C2985 1.408 . S
C2989 C2988 1.404 . S
C2989 H3001 0.930 . S
C2990 C2986 1.524 . S
C2990 H3002 0.956 . S
C2990 H3003 0.961 . S
C2990 H3004 0.961 . S
C2991 C2988 1.539 . S
C2991 H3005 0.958 . S
C2991 H3006 0.961 . S
C2991 H3007 0.960 . S
H2992 C2976 0.931 . S
H2993 C2981 0.929 . S
H2994 C2982 0.960 . S
H2995 C2982 0.962 . S
H2996 C2982 0.960 . S
H2997 C2983 0.961 . S
H2998 C2983 0.961 . S
H2999 C2983 0.961 . S
H3000 C2984 0.931 . S
H3001 C2989 0.930 . S
H3002 C2990 0.956 . S
H3003 C2990 0.961 . S
H3004 C2990 0.961 . S
H3005 C2991 0.958 . S
H3006 C2991 0.961 . S
H3007 C2991 0.960 . S
C3008 C3009 1.391 . S
C3008 C3010 1.394 1_556 S
C3008 H3024 0.931 . S
C3009 C3008 1.391 . S
C3009 C3013 1.376 . S
C3010 C3008 1.394 1_554 S
C3010 C3011 1.369 1_554 S
C3010 C3014 1.531 . S
C3011 C3010 1.369 1_556 S
C3011 C3012 1.410 . S
C3011 C3019 1.503 1_556 S
C3012 C3011 1.410 . S
C3012 C3013 1.392 . S
C3012 C3015 1.511 . S
C3013 C3009 1.376 . S
C3013 C3012 1.392 . S
C3013 H3025 0.929 . S
C3014 C3010 1.531 . S
C3014 H3026 0.960 . S
C3014 H3027 0.962 . S
C3014 H3028 0.960 . S
C3015 C3012 1.511 . S
C3015 H3029 0.961 . S
C3015 H3030 0.961 . S
C3015 H3031 0.961 . S
C3016 C3017 1.370 . S
C3016 C3018 1.361 1_554 S
C3016 H3032 0.931 . S
C3017 C3016 1.370 . S
C3017 C3021 1.408 . S
C3018 C3016 1.361 1_556 S
C3018 C3019 1.369 1_556 S
C3018 C3022 1.528 . S
C3019 C3011 1.503 1_554 S
C3019 C3018 1.369 1_554 S
C3019 C3020 1.403 . S
C3020 C3019 1.403 . S
C3020 C3021 1.404 . S
C3020 C3023 1.539 . S
C3021 C3017 1.408 . S
C3021 C3020 1.404 . S
C3021 H3033 0.930 . S
C3022 C3018 1.528 . S
C3022 H3034 0.956 . S
C3022 H3035 0.961 . S
C3022 H3036 0.961 . S
C3023 C3020 1.539 . S
C3023 H3037 0.958 . S
C3023 H3038 0.961 . S
C3023 H3039 0.960 . S
H3024 C3008 0.931 . S
H3025 C3013 0.929 . S
H3026 C3014 0.960 . S
H3027 C3014 0.962 . S
H3028 C3014 0.960 . S
H3029 C3015 0.961 . S
H3030 C3015 0.961 . S
H3031 C3015 0.961 . S
H3032 C3016 0.931 . S
H3033 C3021 0.930 . S
H3034 C3022 0.956 . S
H3035 C3022 0.961 . S
H3036 C3022 0.961 . S
H3037 C3023 0.958 . S
H3038 C3023 0.961 . S
H3039 C3023 0.960 . S
C3040 C3041 1.391 . S
C3040 C3042 1.394 . S
C3040 H3056 0.931 . S
C3041 C3040 1.391 . S
C3041 C3045 1.376 . S
C3042 C3040 1.394 . S
C3042 C3043 1.369 . S
C3042 C3046 1.531 . S
C3043 C3042 1.369 . S
C3043 C3044 1.410 . S
C3043 C3051 1.503 . S
C3044 C3043 1.410 . S
C3044 C3045 1.392 . S
C3044 C3047 1.511 . S
C3045 C3041 1.376 . S
C3045 C3044 1.392 . S
C3045 H3057 0.929 . S
C3046 C3042 1.531 . S
C3046 H3058 0.960 . S
C3046 H3059 0.962 . S
C3046 H3060 0.960 . S
C3047 C3044 1.511 . S
C3047 H3061 0.961 . S
C3047 H3062 0.961 . S
C3047 H3063 0.961 . S
C3048 C3049 1.370 . S
C3048 C3050 1.363 . S
C3048 H3064 0.931 . S
C3049 C3048 1.370 . S
C3049 C3053 1.408 . S
C3050 C3048 1.363 . S
C3050 C3051 1.370 . S
C3050 C3054 1.524 . S
C3051 C3043 1.503 . S
C3051 C3050 1.370 . S
C3051 C3052 1.403 . S
C3052 C3051 1.403 . S
C3052 C3053 1.404 . S
C3052 C3055 1.539 . S
C3053 C3049 1.408 . S
C3053 C3052 1.404 . S
C3053 H3065 0.930 . S
C3054 C3050 1.524 . S
C3054 H3066 0.956 . S
C3054 H3067 0.961 . S
C3054 H3068 0.961 . S
C3055 C3052 1.539 . S
C3055 H3069 0.958 . S
C3055 H3070 0.961 . S
C3055 H3071 0.960 . S
H3056 C3040 0.931 . S
H3057 C3045 0.929 . S
H3058 C3046 0.960 . S
H3059 C3046 0.962 . S
H3060 C3046 0.960 . S
H3061 C3047 0.961 . S
H3062 C3047 0.961 . S
H3063 C3047 0.961 . S
H3064 C3048 0.931 . S
H3065 C3053 0.930 . S
H3066 C3054 0.956 . S
H3067 C3054 0.961 . S
H3068 C3054 0.961 . S
H3069 C3055 0.958 . S
H3070 C3055 0.961 . S
H3071 C3055 0.960 . S
C3072 C3073 1.391 . S
C3072 C3074 1.394 . S
C3072 H3088 0.931 . S
C3073 C3072 1.391 . S
C3073 C3077 1.376 . S
C3074 C3072 1.394 . S
C3074 C3075 1.369 . S
C3074 C3078 1.531 . S
C3075 C3074 1.369 . S
C3075 C3076 1.410 . S
C3075 C3083 1.503 . S
C3076 C3075 1.410 . S
C3076 C3077 1.392 . S
C3076 C3079 1.511 . S
C3077 C3073 1.376 . S
C3077 C3076 1.392 . S
C3077 H3089 0.929 . S
C3078 C3074 1.531 . S
C3078 H3090 0.960 . S
C3078 H3091 0.962 . S
C3078 H3092 0.960 . S
C3079 C3076 1.511 . S
C3079 H3093 0.961 . S
C3079 H3094 0.961 . S
C3079 H3095 0.961 . S
C3080 C3081 1.370 . S
C3080 C3082 1.363 . S
C3080 H3096 0.931 . S
C3081 C3080 1.370 . S
C3081 C3085 1.408 . S
C3082 C3080 1.363 . S
C3082 C3083 1.370 . S
C3082 C3086 1.524 . S
C3083 C3075 1.503 . S
C3083 C3082 1.370 . S
C3083 C3084 1.403 . S
C3084 C3083 1.403 . S
C3084 C3085 1.404 . S
C3084 C3087 1.539 . S
C3085 C3081 1.408 . S
C3085 C3084 1.404 . S
C3085 H3097 0.930 . S
C3086 C3082 1.524 . S
C3086 H3098 0.956 . S
C3086 H3099 0.961 . S
C3086 H3100 0.961 . S
C3087 C3084 1.539 . S
C3087 H3101 0.958 . S
C3087 H3102 0.961 . S
C3087 H3103 0.960 . S
H3088 C3072 0.931 . S
H3089 C3077 0.929 . S
H3090 C3078 0.960 . S
H3091 C3078 0.962 . S
H3092 C3078 0.960 . S
H3093 C3079 0.961 . S
H3094 C3079 0.961 . S
H3095 C3079 0.961 . S
H3096 C3080 0.931 . S
H3097 C3085 0.930 . S
H3098 C3086 0.956 . S
H3099 C3086 0.961 . S
H3100 C3086 0.961 . S
H3101 C3087 0.958 . S
H3102 C3087 0.961 . S
H3103 C3087 0.960 . S
C3104 C3105 1.391 . S
C3104 C3106 1.394 1_554 S
C3104 H3120 0.931 . S
C3105 C3104 1.391 . S
C3105 C3109 1.376 1_554 S
C3106 C3104 1.394 1_556 S
C3106 C3107 1.369 . S
C3106 C3110 1.531 1_556 S
C3107 C3106 1.369 . S
C3107 C3108 1.410 . S
C3107 C3115 1.503 . S
C3108 C3107 1.410 . S
C3108 C3109 1.392 . S
C3108 C3111 1.511 . S
C3109 C3105 1.376 1_556 S
C3109 C3108 1.392 . S
C3109 H3121 0.929 . S
C3110 C3106 1.531 1_554 S
C3110 H3122 0.960 1_554 S
C3110 H3123 0.962 . S
C3110 H3124 0.960 . S
C3111 C3108 1.511 . S
C3111 H3125 0.961 . S
C3111 H3126 0.961 . S
C3111 H3127 0.961 . S
C3112 C3113 1.370 . S
C3112 C3114 1.363 . S
C3112 H3128 0.931 . S
C3113 C3112 1.370 . S
C3113 C3117 1.408 . S
C3114 C3112 1.363 . S
C3114 C3115 1.370 . S
C3114 C3118 1.524 . S
C3115 C3107 1.503 . S
C3115 C3114 1.370 . S
C3115 C3116 1.403 . S
C3116 C3115 1.403 . S
C3116 C3117 1.404 . S
C3116 C3119 1.539 . S
C3117 C3113 1.408 . S
C3117 C3116 1.404 . S
C3117 H3129 0.930 . S
C3118 C3114 1.524 . S
C3118 H3130 0.956 . S
C3118 H3131 0.961 . S
C3118 H3132 0.961 . S
C3119 C3116 1.539 . S
C3119 H3133 0.958 . S
C3119 H3134 0.961 . S
C3119 H3135 0.960 . S
H3120 C3104 0.931 . S
H3121 C3109 0.929 . S
H3122 C3110 0.960 1_556 S
H3123 C3110 0.962 . S
H3124 C3110 0.960 . S
H3125 C3111 0.961 . S
H3126 C3111 0.961 . S
H3127 C3111 0.961 . S
H3128 C3112 0.931 . S
H3129 C3117 0.930 . S
H3130 C3118 0.956 . S
H3131 C3118 0.961 . S
H3132 C3118 0.961 . S
H3133 C3119 0.958 . S
H3134 C3119 0.961 . S
H3135 C3119 0.960 . S
C3136 C3137 1.391 . S
C3136 C3138 1.394 . S
C3136 H3152 0.931 . S
C3137 C3136 1.391 . S
C3137 C3141 1.376 . S
C3138 C3136 1.394 . S
C3138 C3139 1.369 . S
C3138 C3142 1.531 . S
C3139 C3138 1.369 . S
C3139 C3140 1.410 . S
C3139 C3147 1.503 . S
C3140 C3139 1.410 . S
C3140 C3141 1.392 . S
C3140 C3143 1.511 . S
C3141 C3137 1.376 . S
C3141 C3140 1.392 . S
C3141 H3153 0.934 . S
C3142 C3138 1.531 . S
C3142 H3154 0.960 . S
C3142 H3155 0.962 . S
C3142 H3156 0.960 . S
C3143 C3140 1.511 . S
C3143 H3157 0.961 . S
C3143 H3158 0.961 . S
C3143 H3159 0.961 . S
C3144 C3145 1.370 . S
C3144 C3146 1.363 . S
C3144 H3160 0.931 . S
C3145 C3144 1.370 . S
C3145 C3149 1.408 . S
C3146 C3144 1.363 . S
C3146 C3147 1.370 . S
C3146 C3150 1.524 . S
C3147 C3139 1.503 . S
C3147 C3146 1.370 . S
C3147 C3148 1.403 . S
C3148 C3147 1.403 . S
C3148 C3149 1.404 . S
C3148 C3151 1.539 . S
C3149 C3145 1.408 . S
C3149 C3148 1.404 . S
C3149 H3161 0.930 . S
C3150 C3146 1.524 . S
C3150 H3162 0.956 . S
C3150 H3163 0.961 . S
C3150 H3164 0.961 . S
C3151 C3148 1.539 . S
C3151 H3165 0.958 . S
C3151 H3166 0.961 . S
C3151 H3167 0.960 . S
H3152 C3136 0.931 . S
H3153 C3141 0.934 . S
H3154 C3142 0.960 . S
H3155 C3142 0.962 . S
H3156 C3142 0.960 . S
H3157 C3143 0.961 . S
H3158 C3143 0.961 . S
H3159 C3143 0.961 . S
H3160 C3144 0.931 . S
H3161 C3149 0.930 . S
H3162 C3150 0.956 . S
H3163 C3150 0.961 . S
H3164 C3150 0.961 . S
H3165 C3151 0.958 . S
H3166 C3151 0.961 . S
H3167 C3151 0.960 . S
C3168 C3169 1.391 . S
C3168 C3170 1.394 . S
C3168 H3184 0.931 . S
C3169 C3168 1.391 . S
C3169 C3173 1.376 . S
C3170 C3168 1.394 . S
C3170 C3171 1.369 . S
C3170 C3174 1.531 . S
C3171 C3170 1.369 . S
C3171 C3172 1.410 . S
C3171 C3179 1.503 . S
C3172 C3171 1.410 . S
C3172 C3173 1.392 . S
C3172 C3175 1.511 . S
C3173 C3169 1.376 . S
C3173 C3172 1.392 . S
C3173 H3185 0.929 . S
C3174 C3170 1.531 . S
C3174 H3186 0.960 . S
C3174 H3187 0.962 . S
C3174 H3188 0.960 . S
C3175 C3172 1.511 . S
C3175 H3189 0.961 . S
C3175 H3190 0.961 . S
C3175 H3191 0.961 . S
C3176 C3177 1.370 . S
C3176 C3178 1.363 . S
C3176 H3192 0.931 . S
C3177 C3176 1.370 . S
C3177 C3181 1.408 . S
C3178 C3176 1.363 . S
C3178 C3179 1.370 . S
C3178 C3182 1.524 . S
C3179 C3171 1.503 . S
C3179 C3178 1.370 . S
C3179 C3180 1.403 . S
C3180 C3179 1.403 . S
C3180 C3181 1.404 . S
C3180 C3183 1.539 . S
C3181 C3177 1.408 . S
C3181 C3180 1.404 . S
C3181 H3193 0.930 . S
C3182 C3178 1.524 . S
C3182 H3194 0.956 . S
C3182 H3195 0.961 . S
C3182 H3196 0.961 . S
C3183 C3180 1.539 . S
C3183 H3197 0.958 . S
C3183 H3198 0.961 . S
C3183 H3199 0.960 . S
H3184 C3168 0.931 . S
H3185 C3173 0.929 . S
H3186 C3174 0.960 . S
H3187 C3174 0.962 . S
H3188 C3174 0.960 . S
H3189 C3175 0.961 . S
H3190 C3175 0.961 . S
H3191 C3175 0.961 . S
H3192 C3176 0.931 . S
H3193 C3181 0.930 . S
H3194 C3182 0.956 . S
H3195 C3182 0.961 . S
H3196 C3182 0.961 . S
H3197 C3183 0.958 . S
H3198 C3183 0.961 . S
H3199 C3183 0.960 . S
C3200 C3201 1.391 . S
C3200 C3202 1.394 . S
C3200 H3216 0.931 . S
C3201 C3200 1.391 . S
C3201 C3205 1.376 . S
C3202 C3200 1.394 . S
C3202 C3203 1.369 . S
C3202 C3206 1.531 . S
C3203 C3202 1.369 . S
C3203 C3204 1.410 . S
C3203 C3211 1.503 . S
C3204 C3203 1.410 . S
C3204 C3205 1.392 . S
C3204 C3207 1.511 . S
C3205 C3201 1.376 . S
C3205 C3204 1.392 . S
C3205 H3217 0.929 . S
C3206 C3202 1.531 . S
C3206 H3218 0.960 . S
C3206 H3219 0.962 . S
C3206 H3220 0.960 . S
C3207 C3204 1.511 . S
C3207 H3221 0.961 . S
C3207 H3222 0.961 . S
C3207 H3223 0.961 . S
C3208 C3209 1.370 . S
C3208 C3210 1.363 . S
C3208 H3224 0.931 . S
C3209 C3208 1.370 . S
C3209 C3213 1.408 . S
C3210 C3208 1.363 . S
C3210 C3211 1.370 . S
C3210 C3214 1.524 . S
C3211 C3203 1.503 . S
C3211 C3210 1.370 . S
C3211 C3212 1.403 . S
C3212 C3211 1.403 . S
C3212 C3213 1.404 . S
C3212 C3215 1.539 . S
C3213 C3209 1.408 . S
C3213 C3212 1.404 . S
C3213 H3225 0.930 . S
C3214 C3210 1.524 . S
C3214 H3226 0.956 . S
C3214 H3227 0.961 . S
C3214 H3228 0.961 . S
C3215 C3212 1.539 . S
C3215 H3229 0.958 . S
C3215 H3230 0.961 . S
C3215 H3231 0.960 . S
H3216 C3200 0.931 . S
H3217 C3205 0.929 . S
H3218 C3206 0.960 . S
H3219 C3206 0.962 . S
H3220 C3206 0.960 . S
H3221 C3207 0.961 . S
H3222 C3207 0.961 . S
H3223 C3207 0.961 . S
H3224 C3208 0.931 . S
H3225 C3213 0.930 . S
H3226 C3214 0.956 . S
H3227 C3214 0.961 . S
H3228 C3214 0.961 . S
H3229 C3215 0.958 . S
H3230 C3215 0.961 . S
H3231 C3215 0.960 . S
C3232 C3233 1.391 1_554 S
C3232 C3234 1.394 . S
C3232 H3248 0.931 . S
C3233 C3232 1.391 1_556 S
C3233 C3237 1.376 . S
C3234 C3232 1.394 . S
C3234 C3235 1.369 . S
C3234 C3238 1.531 . S
C3235 C3234 1.369 . S
C3235 C3236 1.410 . S
C3235 C3243 1.503 . S
C3236 C3235 1.410 . S
C3236 C3237 1.392 1_554 S
C3236 C3239 1.511 1_554 S
C3237 C3233 1.376 . S
C3237 C3236 1.392 1_556 S
C3237 H3249 0.929 . S
C3238 C3234 1.531 . S
C3238 H3250 0.960 . S
C3238 H3251 0.962 . S
C3238 H3252 0.960 . S
C3239 C3236 1.511 1_556 S
C3239 H3253 0.961 . S
C3239 H3254 0.961 1_556 S
C3239 H3255 0.961 . S
C3240 C3241 1.370 . S
C3240 C3242 1.363 . S
C3240 H3256 0.931 . S
C3241 C3240 1.370 . S
C3241 C3245 1.408 . S
C3242 C3240 1.363 . S
C3242 C3243 1.370 . S
C3242 C3246 1.524 . S
C3243 C3235 1.503 . S
C3243 C3242 1.370 . S
C3243 C3244 1.403 . S
C3244 C3243 1.403 . S
C3244 C3245 1.404 . S
C3244 C3247 1.539 . S
C3245 C3241 1.408 . S
C3245 C3244 1.404 . S
C3245 H3257 0.930 . S
C3246 C3242 1.524 . S
C3246 H3258 0.956 . S
C3246 H3259 0.961 . S
C3246 H3260 0.961 . S
C3247 C3244 1.539 . S
C3247 H3261 0.958 . S
C3247 H3262 0.961 . S
C3247 H3263 0.960 . S
H3248 C3232 0.931 . S
H3249 C3237 0.929 . S
H3250 C3238 0.960 . S
H3251 C3238 0.962 . S
H3252 C3238 0.960 . S
H3253 C3239 0.961 . S
H3254 C3239 0.961 1_554 S
H3255 C3239 0.961 . S
H3256 C3240 0.931 . S
H3257 C3245 0.930 . S
H3258 C3246 0.956 . S
H3259 C3246 0.961 . S
H3260 C3246 0.961 . S
H3261 C3247 0.958 . S
H3262 C3247 0.961 . S
H3263 C3247 0.960 . S
C3264 C3265 1.391 . S
C3264 C3266 1.394 1_554 S
C3264 H3280 0.931 . S
C3265 C3264 1.391 . S
C3265 C3269 1.376 1_554 S
C3266 C3264 1.394 1_556 S
C3266 C3267 1.369 . S
C3266 C3270 1.531 . S
C3267 C3266 1.369 . S
C3267 C3268 1.410 . S
C3267 C3275 1.503 . S
C3268 C3267 1.410 . S
C3268 C3269 1.392 . S
C3268 C3271 1.511 . S
C3269 C3265 1.376 1_556 S
C3269 C3268 1.392 . S
C3269 H3281 0.929 . S
C3270 C3266 1.531 . S
C3270 H3282 0.960 . S
C3270 H3283 0.962 . S
C3270 H3284 0.960 1_556 S
C3271 C3268 1.511 . S
C3271 H3285 0.961 . S
C3271 H3286 0.961 . S
C3271 H3287 0.961 . S
C3272 C3273 1.370 . S
C3272 C3274 1.363 . S
C3272 H3288 0.931 . S
C3273 C3272 1.370 . S
C3273 C3277 1.408 . S
C3274 C3272 1.363 . S
C3274 C3275 1.370 . S
C3274 C3278 1.524 . S
C3275 C3267 1.503 . S
C3275 C3274 1.370 . S
C3275 C3276 1.403 . S
C3276 C3275 1.403 . S
C3276 C3277 1.404 . S
C3276 C3279 1.539 . S
C3277 C3273 1.408 . S
C3277 C3276 1.404 . S
C3277 H3289 0.930 . S
C3278 C3274 1.524 . S
C3278 H3290 0.956 . S
C3278 H3291 0.961 . S
C3278 H3292 0.961 . S
C3279 C3276 1.539 . S
C3279 H3293 0.958 . S
C3279 H3294 0.961 . S
C3279 H3295 0.960 . S
H3280 C3264 0.931 . S
H3281 C3269 0.929 . S
H3282 C3270 0.960 . S
H3283 C3270 0.962 . S
H3284 C3270 0.960 1_554 S
H3285 C3271 0.961 . S
H3286 C3271 0.961 . S
H3287 C3271 0.961 . S
H3288 C3272 0.931 . S
H3289 C3277 0.930 . S
H3290 C3278 0.956 . S
H3291 C3278 0.961 . S
H3292 C3278 0.961 . S
H3293 C3279 0.958 . S
H3294 C3279 0.961 . S
H3295 C3279 0.960 . S
C3296 C3297 1.391 . S
C3296 C3298 1.394 . S
C3296 H3312 0.931 . S
C3297 C3296 1.391 . S
C3297 C3301 1.376 . S
C3298 C3296 1.394 . S
C3298 C3299 1.369 . S
C3298 C3302 1.531 . S
C3299 C3298 1.369 . S
C3299 C3300 1.410 . S
C3299 C3307 1.503 . S
C3300 C3299 1.410 . S
C3300 C3301 1.392 . S
C3300 C3303 1.511 . S
C3301 C3297 1.376 . S
C3301 C3300 1.392 . S
C3301 H3313 0.929 . S
C3302 C3298 1.531 . S
C3302 H3314 0.960 . S
C3302 H3315 0.962 . S
C3302 H3316 0.960 . S
C3303 C3300 1.511 . S
C3303 H3317 0.961 . S
C3303 H3318 0.961 . S
C3303 H3319 0.961 . S
C3304 C3305 1.370 . S
C3304 C3306 1.363 . S
C3304 H3320 0.931 . S
C3305 C3304 1.370 . S
C3305 C3309 1.408 . S
C3306 C3304 1.363 . S
C3306 C3307 1.370 . S
C3306 C3310 1.524 . S
C3307 C3299 1.503 . S
C3307 C3306 1.370 . S
C3307 C3308 1.403 . S
C3308 C3307 1.403 . S
C3308 C3309 1.404 . S
C3308 C3311 1.539 . S
C3309 C3305 1.408 . S
C3309 C3308 1.404 . S
C3309 H3321 0.930 . S
C3310 C3306 1.524 . S
C3310 H3322 0.956 . S
C3310 H3323 0.961 . S
C3310 H3324 0.961 . S
C3311 C3308 1.539 . S
C3311 H3325 0.958 . S
C3311 H3326 0.961 . S
C3311 H3327 0.960 . S
H3312 C3296 0.931 . S
H3313 C3301 0.929 . S
H3314 C3302 0.960 . S
H3315 C3302 0.962 . S
H3316 C3302 0.960 . S
H3317 C3303 0.961 . S
H3318 C3303 0.961 . S
H3319 C3303 0.961 . S
H3320 C3304 0.931 . S
H3321 C3309 0.930 . S
H3322 C3310 0.956 . S
H3323 C3310 0.961 . S
H3324 C3310 0.961 . S
H3325 C3311 0.958 . S
H3326 C3311 0.961 . S
H3327 C3311 0.960 . S
C3328 C3329 1.391 . S
C3328 C3330 1.394 . S
C3328 H3344 0.931 . S
C3329 C3328 1.391 . S
C3329 C3333 1.376 . S
C3330 C3328 1.394 . S
C3330 C3331 1.369 . S
C3330 C3334 1.531 . S
C3331 C3330 1.369 . S
C3331 C3332 1.410 . S
C3331 C3339 1.503 . S
C3332 C3331 1.410 . S
C3332 C3333 1.392 . S
C3332 C3335 1.511 . S
C3333 C3329 1.376 . S
C3333 C3332 1.392 . S
C3333 H3345 0.929 . S
C3334 C3330 1.531 . S
C3334 H3346 0.960 . S
C3334 H3347 0.962 . S
C3334 H3348 0.960 . S
C3335 C3332 1.511 . S
C3335 H3349 0.961 . S
C3335 H3350 0.961 . S
C3335 H3351 0.961 . S
C3336 C3337 1.370 . S
C3336 C3338 1.363 . S
C3336 H3352 0.931 . S
C3337 C3336 1.370 . S
C3337 C3341 1.408 . S
C3338 C3336 1.363 . S
C3338 C3339 1.370 . S
C3338 C3342 1.524 . S
C3339 C3331 1.503 . S
C3339 C3338 1.370 . S
C3339 C3340 1.403 . S
C3340 C3339 1.403 . S
C3340 C3341 1.404 . S
C3340 C3343 1.539 . S
C3341 C3337 1.408 . S
C3341 C3340 1.404 . S
C3341 H3353 0.930 . S
C3342 C3338 1.524 . S
C3342 H3354 0.956 . S
C3342 H3355 0.961 . S
C3342 H3356 0.961 . S
C3343 C3340 1.539 . S
C3343 H3357 0.958 . S
C3343 H3358 0.961 . S
C3343 H3359 0.960 . S
H3344 C3328 0.931 . S
H3345 C3333 0.929 . S
H3346 C3334 0.960 . S
H3347 C3334 0.962 . S
H3348 C3334 0.960 . S
H3349 C3335 0.961 . S
H3350 C3335 0.961 . S
H3351 C3335 0.961 . S
H3352 C3336 0.931 . S
H3353 C3341 0.930 . S
H3354 C3342 0.956 . S
H3355 C3342 0.961 . S
H3356 C3342 0.961 . S
H3357 C3343 0.958 . S
H3358 C3343 0.961 . S
H3359 C3343 0.960 . S
C3360 C3361 1.391 . S
C3360 C3362 1.394 . S
C3360 H3376 0.931 . S
C3361 C3360 1.391 . S
C3361 C3365 1.376 . S
C3362 C3360 1.394 . S
C3362 C3363 1.369 . S
C3362 C3366 1.531 . S
C3363 C3362 1.369 . S
C3363 C3364 1.410 . S
C3363 C3371 1.503 . S
C3364 C3363 1.410 . S
C3364 C3365 1.392 . S
C3364 C3367 1.511 . S
C3365 C3361 1.376 . S
C3365 C3364 1.392 . S
C3365 H3377 0.929 . S
C3366 C3362 1.531 . S
C3366 H3378 0.960 . S
C3366 H3379 0.962 . S
C3366 H3380 0.960 . S
C3367 C3364 1.511 . S
C3367 H3381 0.961 . S
C3367 H3382 0.961 . S
C3367 H3383 0.961 . S
C3368 C3369 1.370 . S
C3368 C3370 1.363 . S
C3368 H3384 0.931 . S
C3369 C3368 1.370 . S
C3369 C3373 1.408 . S
C3370 C3368 1.363 . S
C3370 C3371 1.370 . S
C3370 C3374 1.524 . S
C3371 C3363 1.503 . S
C3371 C3370 1.370 . S
C3371 C3372 1.403 . S
C3372 C3371 1.403 . S
C3372 C3373 1.404 . S
C3372 C3375 1.539 . S
C3373 C3369 1.408 . S
C3373 C3372 1.404 . S
C3373 H3385 0.930 . S
C3374 C3370 1.524 . S
C3374 H3386 0.956 . S
C3374 H3387 0.961 . S
C3374 H3388 0.961 . S
C3375 C3372 1.539 . S
C3375 H3389 0.958 . S
C3375 H3390 0.961 . S
C3375 H3391 0.960 . S
H3376 C3360 0.931 . S
H3377 C3365 0.929 . S
H3378 C3366 0.960 . S
H3379 C3366 0.962 . S
H3380 C3366 0.960 . S
H3381 C3367 0.961 . S
H3382 C3367 0.961 . S
H3383 C3367 0.961 . S
H3384 C3368 0.931 . S
H3385 C3373 0.930 . S
H3386 C3374 0.956 . S
H3387 C3374 0.961 . S
H3388 C3374 0.961 . S
H3389 C3375 0.958 . S
H3390 C3375 0.961 . S
H3391 C3375 0.960 . S
C3392 C3393 1.391 . S
C3392 C3394 1.394 . S
C3392 H3408 0.931 . S
C3393 C3392 1.391 . S
C3393 C3397 1.376 . S
C3394 C3392 1.394 . S
C3394 C3395 1.369 . S
C3394 C3398 1.531 . S
C3395 C3394 1.369 . S
C3395 C3396 1.410 . S
C3395 C3403 1.503 . S
C3396 C3395 1.410 . S
C3396 C3397 1.392 . S
C3396 C3399 1.511 . S
C3397 C3393 1.376 . S
C3397 C3396 1.392 . S
C3397 H3409 0.929 . S
C3398 C3394 1.531 . S
C3398 H3410 0.960 . S
C3398 H3411 0.962 . S
C3398 H3412 0.960 . S
C3399 C3396 1.511 . S
C3399 H3413 0.961 . S
C3399 H3414 0.961 . S
C3399 H3415 0.961 . S
C3400 C3401 1.370 . S
C3400 C3402 1.363 . S
C3400 H3416 0.931 . S
C3401 C3400 1.370 . S
C3401 C3405 1.408 . S
C3402 C3400 1.363 . S
C3402 C3403 1.370 . S
C3402 C3406 1.524 . S
C3403 C3395 1.503 . S
C3403 C3402 1.370 . S
C3403 C3404 1.403 . S
C3404 C3403 1.403 . S
C3404 C3405 1.404 . S
C3404 C3407 1.539 . S
C3405 C3401 1.408 . S
C3405 C3404 1.404 . S
C3405 H3417 0.930 . S
C3406 C3402 1.524 . S
C3406 H3418 0.956 . S
C3406 H3419 0.961 . S
C3406 H3420 0.961 . S
C3407 C3404 1.539 . S
C3407 H3421 0.958 . S
C3407 H3422 0.961 . S
C3407 H3423 0.960 . S
H3408 C3392 0.931 . S
H3409 C3397 0.929 . S
H3410 C3398 0.960 . S
H3411 C3398 0.962 . S
H3412 C3398 0.960 . S
H3413 C3399 0.961 . S
H3414 C3399 0.961 . S
H3415 C3399 0.961 . S
H3416 C3400 0.931 . S
H3417 C3405 0.930 . S
H3418 C3406 0.956 . S
H3419 C3406 0.961 . S
H3420 C3406 0.961 . S
H3421 C3407 0.958 . S
H3422 C3407 0.961 . S
H3423 C3407 0.960 . S
C3424 C3425 1.391 . S
C3424 C3426 1.394 . S
C3424 H3440 0.931 . S
C3425 C3424 1.391 . S
C3425 C3429 1.376 . S
C3426 C3424 1.394 . S
C3426 C3427 1.369 . S
C3426 C3430 1.531 . S
C3427 C3426 1.369 . S
C3427 C3428 1.410 . S
C3427 C3435 1.503 . S
C3428 C3427 1.410 . S
C3428 C3429 1.392 . S
C3428 C3431 1.511 . S
C3429 C3425 1.376 . S
C3429 C3428 1.392 . S
C3429 H3441 0.929 . S
C3430 C3426 1.531 . S
C3430 H3442 0.960 . S
C3430 H3443 0.962 . S
C3430 H3444 0.960 . S
C3431 C3428 1.511 . S
C3431 H3445 0.961 . S
C3431 H3446 0.961 . S
C3431 H3447 0.961 . S
C3432 C3433 1.370 1_554 S
C3432 C3434 1.363 1_554 S
C3432 H3448 0.931 . S
C3433 C3432 1.370 1_556 S
C3433 C3437 1.408 . S
C3434 C3432 1.363 1_556 S
C3434 C3435 1.370 . S
C3434 C3438 1.524 . S
C3435 C3427 1.503 . S
C3435 C3434 1.370 . S
C3435 C3436 1.403 . S
C3436 C3435 1.403 . S
C3436 C3437 1.404 . S
C3436 C3439 1.539 . S
C3437 C3433 1.408 . S
C3437 C3436 1.404 . S
C3437 H3449 0.930 . S
C3438 C3434 1.524 . S
C3438 H3450 0.956 . S
C3438 H3451 0.961 . S
C3438 H3452 0.961 1_556 S
C3439 C3436 1.539 . S
C3439 H3453 0.958 . S
C3439 H3454 0.961 . S
C3439 H3455 0.960 . S
H3440 C3424 0.931 . S
H3441 C3429 0.929 . S
H3442 C3430 0.960 . S
H3443 C3430 0.962 . S
H3444 C3430 0.960 . S
H3445 C3431 0.961 . S
H3446 C3431 0.961 . S
H3447 C3431 0.961 . S
H3448 C3432 0.931 . S
H3449 C3437 0.930 . S
H3450 C3438 0.956 . S
H3451 C3438 0.961 . S
H3452 C3438 0.961 1_554 S
H3453 C3439 0.958 . S
H3454 C3439 0.961 . S
H3455 C3439 0.960 . S
C3456 C3457 1.391 . S
C3456 C3458 1.394 . S
C3456 H3472 0.931 . S
C3457 C3456 1.391 . S
C3457 C3461 1.376 . S
C3458 C3456 1.394 . S
C3458 C3459 1.369 . S
C3458 C3462 1.531 . S
C3459 C3458 1.369 . S
C3459 C3460 1.410 . S
C3459 C3467 1.503 . S
C3460 C3459 1.410 . S
C3460 C3461 1.392 . S
C3460 C3463 1.511 . S
C3461 C3457 1.376 . S
C3461 C3460 1.392 . S
C3461 H3473 0.929 . S
C3462 C3458 1.531 . S
C3462 H3474 0.960 . S
C3462 H3475 0.962 . S
C3462 H3476 0.960 . S
C3463 C3460 1.511 . S
C3463 H3477 0.961 . S
C3463 H3478 0.961 . S
C3463 H3479 0.961 . S
C3464 C3465 1.370 1_556 S
C3464 C3466 1.363 1_556 S
C3464 H3480 0.931 . S
C3465 C3464 1.370 1_554 S
C3465 C3469 1.408 . S
C3466 C3464 1.363 1_554 S
C3466 C3467 1.370 . S
C3466 C3470 1.524 . S
C3467 C3459 1.503 . S
C3467 C3466 1.370 . S
C3467 C3468 1.403 . S
C3468 C3467 1.403 . S
C3468 C3469 1.404 . S
C3468 C3471 1.539 . S
C3469 C3465 1.408 . S
C3469 C3468 1.404 . S
C3469 H3481 0.930 . S
C3470 C3466 1.524 . S
C3470 H3482 0.956 . S
C3470 H3483 0.961 . S
C3470 H3484 0.961 1_554 S
C3471 C3468 1.539 . S
C3471 H3485 0.958 . S
C3471 H3486 0.961 . S
C3471 H3487 0.960 . S
H3472 C3456 0.931 . S
H3473 C3461 0.929 . S
H3474 C3462 0.960 . S
H3475 C3462 0.962 . S
H3476 C3462 0.960 . S
H3477 C3463 0.961 . S
H3478 C3463 0.961 . S
H3479 C3463 0.961 . S
H3480 C3464 0.931 . S
H3481 C3469 0.930 . S
H3482 C3470 0.956 . S
H3483 C3470 0.961 . S
H3484 C3470 0.961 1_556 S
H3485 C3471 0.958 . S
H3486 C3471 0.961 . S
H3487 C3471 0.960 . S
C3488 C3489 1.391 . S
C3488 C3490 1.394 . S
C3488 H3504 0.931 . S
C3489 C3488 1.391 . S
C3489 C3493 1.376 . S
C3490 C3488 1.394 . S
C3490 C3491 1.369 . S
C3490 C3494 1.531 . S
C3491 C3490 1.369 . S
C3491 C3492 1.410 . S
C3491 C3499 1.503 . S
C3492 C3491 1.410 . S
C3492 C3493 1.392 . S
C3492 C3495 1.511 . S
C3493 C3489 1.376 . S
C3493 C3492 1.392 . S
C3493 H3505 0.929 . S
C3494 C3490 1.531 . S
C3494 H3506 0.960 . S
C3494 H3507 0.962 . S
C3494 H3508 0.960 . S
C3495 C3492 1.511 . S
C3495 H3509 0.961 . S
C3495 H3510 0.961 . S
C3495 H3511 0.961 . S
C3496 C3497 1.370 . S
C3496 C3498 1.363 . S
C3496 H3512 0.931 . S
C3497 C3496 1.370 . S
C3497 C3501 1.408 . S
C3498 C3496 1.363 . S
C3498 C3499 1.370 . S
C3498 C3502 1.524 . S
C3499 C3491 1.503 . S
C3499 C3498 1.370 . S
C3499 C3500 1.403 . S
C3500 C3499 1.403 . S
C3500 C3501 1.404 . S
C3500 C3503 1.539 . S
C3501 C3497 1.408 . S
C3501 C3500 1.404 . S
C3501 H3513 0.930 . S
C3502 C3498 1.524 . S
C3502 H3514 0.956 . S
C3502 H3515 0.961 . S
C3502 H3516 0.961 . S
C3503 C3500 1.539 . S
C3503 H3517 0.958 . S
C3503 H3518 0.961 . S
C3503 H3519 0.960 . S
H3504 C3488 0.931 . S
H3505 C3493 0.929 . S
H3506 C3494 0.960 . S
H3507 C3494 0.962 . S
H3508 C3494 0.960 . S
H3509 C3495 0.961 . S
H3510 C3495 0.961 . S
H3511 C3495 0.961 . S
H3512 C3496 0.931 . S
H3513 C3501 0.930 . S
H3514 C3502 0.956 . S
H3515 C3502 0.961 . S
H3516 C3502 0.961 . S
H3517 C3503 0.958 . S
H3518 C3503 0.961 . S
H3519 C3503 0.960 . S
C3520 C3521 1.391 . S
C3520 C3522 1.394 . S
C3520 H3536 0.931 . S
C3521 C3520 1.391 . S
C3521 C3525 1.376 . S
C3522 C3520 1.394 . S
C3522 C3523 1.369 . S
C3522 C3526 1.531 . S
C3523 C3522 1.369 . S
C3523 C3524 1.410 . S
C3523 C3531 1.503 . S
C3524 C3523 1.410 . S
C3524 C3525 1.392 . S
C3524 C3527 1.511 . S
C3525 C3521 1.376 . S
C3525 C3524 1.392 . S
C3525 H3537 0.929 . S
C3526 C3522 1.531 . S
C3526 H3538 0.960 . S
C3526 H3539 0.962 . S
C3526 H3540 0.960 . S
C3527 C3524 1.511 . S
C3527 H3541 0.961 . S
C3527 H3542 0.961 . S
C3527 H3543 0.961 . S
C3528 C3529 1.370 . S
C3528 C3530 1.363 . S
C3528 H3544 0.931 . S
C3529 C3528 1.370 . S
C3529 C3533 1.408 . S
C3530 C3528 1.363 . S
C3530 C3531 1.370 . S
C3530 C3534 1.524 . S
C3531 C3523 1.503 . S
C3531 C3530 1.370 . S
C3531 C3532 1.403 . S
C3532 C3531 1.403 . S
C3532 C3533 1.404 . S
C3532 C3535 1.539 . S
C3533 C3529 1.408 . S
C3533 C3532 1.404 . S
C3533 H3545 0.930 . S
C3534 C3530 1.524 . S
C3534 H3546 0.956 . S
C3534 H3547 0.961 . S
C3534 H3548 0.961 . S
C3535 C3532 1.539 . S
C3535 H3549 0.958 . S
C3535 H3550 0.961 . S
C3535 H3551 0.960 . S
H3536 C3520 0.931 . S
H3537 C3525 0.929 . S
H3538 C3526 0.960 . S
H3539 C3526 0.962 . S
H3540 C3526 0.960 . S
H3541 C3527 0.961 . S
H3542 C3527 0.961 . S
H3543 C3527 0.961 . S
H3544 C3528 0.931 . S
H3545 C3533 0.930 . S
H3546 C3534 0.956 . S
H3547 C3534 0.961 . S
H3548 C3534 0.961 . S
H3549 C3535 0.958 . S
H3550 C3535 0.961 . S
H3551 C3535 0.960 . S
C3552 C3553 1.391 . S
C3552 C3554 1.394 . S
C3552 H3568 0.931 . S
C3553 C3552 1.391 . S
C3553 C3557 1.376 . S
C3554 C3552 1.394 . S
C3554 C3555 1.369 . S
C3554 C3558 1.531 . S
C3555 C3554 1.369 . S
C3555 C3556 1.410 . S
C3555 C3563 1.503 . S
C3556 C3555 1.410 . S
C3556 C3557 1.392 . S
C3556 C3559 1.511 . S
C3557 C3553 1.376 . S
C3557 C3556 1.392 . S
C3557 H3569 0.929 . S
C3558 C3554 1.531 . S
C3558 H3570 0.960 . S
C3558 H3571 0.962 . S
C3558 H3572 0.960 . S
C3559 C3556 1.511 . S
C3559 H3573 0.961 . S
C3559 H3574 0.961 . S
C3559 H3575 0.961 . S
C3560 C3561 1.370 1_554 S
C3560 C3562 1.363 . S
C3560 H3576 0.931 . S
C3561 C3560 1.370 1_556 S
C3561 C3565 1.408 . S
C3562 C3560 1.363 . S
C3562 C3563 1.370 . S
C3562 C3566 1.524 . S
C3563 C3555 1.503 . S
C3563 C3562 1.370 . S
C3563 C3564 1.403 . S
C3564 C3563 1.403 . S
C3564 C3565 1.404 1_554 S
C3564 C3567 1.539 1_554 S
C3565 C3561 1.408 . S
C3565 C3564 1.404 1_556 S
C3565 H3577 0.930 . S
C3566 C3562 1.524 . S
C3566 H3578 0.956 . S
C3566 H3579 0.961 . S
C3566 H3580 0.961 . S
C3567 C3564 1.539 1_556 S
C3567 H3581 0.958 . S
C3567 H3582 0.961 . S
C3567 H3583 0.960 1_556 S
H3568 C3552 0.931 . S
H3569 C3557 0.929 . S
H3570 C3558 0.960 . S
H3571 C3558 0.962 . S
H3572 C3558 0.960 . S
H3573 C3559 0.961 . S
H3574 C3559 0.961 . S
H3575 C3559 0.961 . S
H3576 C3560 0.931 . S
H3577 C3565 0.930 . S
H3578 C3566 0.956 . S
H3579 C3566 0.961 . S
H3580 C3566 0.961 . S
H3581 C3567 0.958 . S
H3582 C3567 0.961 . S
H3583 C3567 0.960 1_554 S
C3584 C3585 1.391 . S
C3584 C3586 1.394 1_554 S
C3584 H3600 0.931 . S
C3585 C3584 1.391 . S
C3585 C3589 1.376 1_554 S
C3586 C3584 1.394 1_556 S
C3586 C3587 1.369 . S
C3586 C3590 1.531 . S
C3587 C3586 1.369 . S
C3587 C3588 1.410 . S
C3587 C3595 1.503 . S
C3588 C3587 1.410 . S
C3588 C3589 1.392 . S
C3588 C3591 1.511 . S
C3589 C3585 1.376 1_556 S
C3589 C3588 1.392 . S
C3589 H3601 0.929 . S
C3590 C3586 1.531 . S
C3590 H3602 0.960 . S
C3590 H3603 0.962 . S
C3590 H3604 0.960 1_556 S
C3591 C3588 1.511 . S
C3591 H3605 0.961 . S
C3591 H3606 0.961 . S
C3591 H3607 0.961 . S
C3592 C3593 1.370 . S
C3592 C3594 1.363 . S
C3592 H3608 0.931 . S
C3593 C3592 1.370 . S
C3593 C3597 1.408 . S
C3594 C3592 1.363 . S
C3594 C3595 1.370 . S
C3594 C3598 1.524 . S
C3595 C3587 1.503 . S
C3595 C3594 1.370 . S
C3595 C3596 1.403 . S
C3596 C3595 1.403 . S
C3596 C3597 1.404 . S
C3596 C3599 1.539 . S
C3597 C3593 1.408 . S
C3597 C3596 1.404 . S
C3597 H3609 0.930 . S
C3598 C3594 1.524 . S
C3598 H3610 0.956 . S
C3598 H3611 0.961 . S
C3598 H3612 0.961 . S
C3599 C3596 1.539 . S
C3599 H3613 0.958 . S
C3599 H3614 0.961 . S
C3599 H3615 0.960 . S
H3600 C3584 0.931 . S
H3601 C3589 0.929 . S
H3602 C3590 0.960 . S
H3603 C3590 0.962 . S
H3604 C3590 0.960 1_554 S
H3605 C3591 0.961 . S
H3606 C3591 0.961 . S
H3607 C3591 0.961 . S
H3608 C3592 0.931 . S
H3609 C3597 0.930 . S
H3610 C3598 0.956 . S
H3611 C3598 0.961 . S
H3612 C3598 0.961 . S
H3613 C3599 0.958 . S
H3614 C3599 0.961 . S
H3615 C3599 0.960 . S
C1057 C1011 1.512 . S
C1065 C21 1.518 . S
C1089 C54 1.521 . S
C1097 C516 1.524 . S
C1121 C87 1.510 . S
C1129 C945 1.517 . S
C1153 C120 1.508 . S
C1161 C450 1.517 . S
C1185 C879 1.525 . S
C1193 C153 1.525 . S
C1217 C384 1.529 . S
C1225 C186 1.526 . S
C1249 C219 1.522 . S
C1257 C813 1.524 . S
C1281 C318 1.510 . S
C1289 C252 1.519 . S
C1313 C747 1.506 . S
C1321 C285 1.517 . S
C1345 C681 1.509 . S
C1353 C351 1.517 . S
C1377 C417 1.510 . S
C1385 C615 1.517 . S
C1409 C549 1.515 . S
C1417 C483 1.519 . S
C1441 C1044 1.506 . S
C1449 C582 1.517 . S
C1473 C978 1.519 . S
C1481 C648 1.521 . S
C1505 C912 1.524 . S
C1513 C714 1.524 . S
C1537 C846 1.519 . S
C1545 C780 1.523 . S
C1569 N2 1.109 . S
C1577 N13 1.103 . S
C1601 N35 1.111 . S
C1609 N46 1.101 . S
C1633 N68 1.099 . S
C1641 N79 1.107 . S
C1665 N101 1.091 . S
C1673 N112 1.110 . S
C1697 N134 1.107 . S
C1705 N145 1.104 . S
C1729 N167 1.113 . S
C1737 N178 1.101 . S
C1761 N211 1.113 . S
C1769 N200 1.100 . S
C1793 N233 1.116 . S
C1801 N244 1.100 . S
C1825 N266 1.093 . S
C1833 N277 1.110 . S
C1857 N310 1.114 . S
C1865 N299 1.099 . S
C1889 N332 1.113 . S
C1897 N343 1.100 . S
C1921 N365 1.109 . S
C1929 N376 1.104 . S
C1953 N398 1.116 . S
C1961 N409 1.100 . S
C1985 N442 1.113 . S
C1993 N431 1.099 . S
C2017 N464 1.089 . S
C2025 N475 1.110 . S
C2049 N508 1.110 . S
C2057 N497 1.100 . S
C2081 N541 1.116 . S
C2089 N530 1.099 . S
C2113 N563 1.113 . S
C2121 N574 1.102 . S
C2145 N607 1.113 . S
C2153 N596 1.100 . S
C2177 N640 1.104 . S
C2185 N629 1.105 . S
C2209 N673 1.090 . S
C2217 N662 1.111 . S
C2241 N706 1.098 . S
C2249 N695 1.108 . S
C2273 N739 1.090 . S
C2281 N728 1.111 . S
C2305 N772 1.103 . S
C2313 N761 1.105 . S
C2337 N805 1.115 . S
C2345 N794 1.100 . S
C2369 N838 1.115 . S
C2377 N827 1.099 . S
C2401 N860 1.116 . S
C2409 N871 1.100 . S
C2433 N904 1.092 . S
C2441 N893 1.110 . S
C2465 N937 1.111 . S
C2473 N926 1.102 . S
C2497 N970 1.113 . S
C2505 N959 1.099 . S
C2529 N992 1.115 . S
C2537 N1003 1.100 . S
C2561 N1025 1.103 . S
C2569 N1036 1.106 . S
C2593 C205 1.386 . S
C2601 C7 1.417 . S
C2625 C238 1.413 . S
C2633 C40 1.391 . S
C2657 C73 1.374 . S
C2665 C139 1.400 . S
C2689 C172 1.371 . S
C2697 C106 1.403 . S
C2721 C271 1.402 . S
C2729 C469 1.417 . S
C2753 C304 1.384 . S
C2761 C502 1.392 . S
C2785 C337 1.405 . S
C2793 C403 1.391 . S
C2817 C436 1.369 . S
C2825 C370 1.402 . S
C2849 C733 1.423 . S
C2857 C535 1.410 . S
C2881 C568 1.369 . S
C2889 C766 1.410 . S
C2913 C667 1.385 . S
C2921 C601 1.395 . S
C2945 C700 1.411 . S
C2953 C634 1.391 . S
C2977 C799 1.397 . S
C2985 C997 1.391 . S
C3009 C1030 1.369 . S
C3017 C832 1.404 . S
C3041 C865 1.386 . S
C3049 C931 1.392 . S
C3073 C964 1.381 . S
C3081 C898 1.414 . S
C3105 C18 1.239 . S
C3113 C249 1.228 . S
C3137 C150 1.196 1_554 S
C3145 C51 1.242 . S
C3169 C84 1.206 . S
C3177 C183 1.241 . S
C3201 C117 1.206 . S
C3209 C216 1.237 . S
C3233 C282 1.242 . S
C3241 C513 1.223 . S
C3265 C414 1.249 . S
C3273 C315 1.223 . S
C3297 C348 1.202 . S
C3305 C447 1.240 . S
C3329 C381 1.251 . S
C3337 C480 1.220 . S
C3361 C777 1.241 . S
C3369 C546 1.222 . S
C3393 C678 1.242 . S
C3401 C579 1.227 . S
C3425 C711 1.250 . S
C3433 C612 1.223 1_556 S
C3457 C645 1.252 . S
C3465 C744 1.222 1_554 S
C3489 C810 1.203 . S
C3497 C1041 1.239 . S
C3521 C843 1.256 . S
C3529 C942 1.218 . S
C3553 C975 1.197 . S
C3561 C876 1.242 . S
C3585 C1008 1.252 . S
C3593 C909 1.221 . S
