# Generated by pormake.
# Topology yfy, (5)-cn, num edge types: 1
# Building blocks:
#     Node 0, Type 0, BuildingBlock: XOMCOT_clean_sbu_1, # of connection points: 5
#     Node 1, Type 0, BuildingBlock: XOMCOT_clean_sbu_1, # of connection points: 5
#     Node 2, Type 0, BuildingBlock: XOMCOT_clean_sbu_1, # of connection points: 5
#     Node 3, Type 0, BuildingBlock: XOMCOT_clean_sbu_1, # of connection points: 5
#     Node 4, Type 0, BuildingBlock: XOMCOT_clean_sbu_1, # of connection points: 5
#     Node 5, Type 0, BuildingBlock: XOMCOT_clean_sbu_1, # of connection points: 5
#     Node 6, Type 0, BuildingBlock: XOMCOT_clean_sbu_1, # of connection points: 5
#     Node 7, Type 0, BuildingBlock: XOMCOT_clean_sbu_1, # of connection points: 5
#     Node 8, Type 0, BuildingBlock: XOMCOT_clean_sbu_1, # of connection points: 5
#     Node 9, Type 0, BuildingBlock: XOMCOT_clean_sbu_1, # of connection points: 5
#     Node 10, Type 0, BuildingBlock: XOMCOT_clean_sbu_1, # of connection points: 5
#     Node 11, Type 0, BuildingBlock: XOMCOT_clean_sbu_1, # of connection points: 5
#     Node 12, Type 0, BuildingBlock: XOMCOT_clean_sbu_1, # of connection points: 5
#     Node 13, Type 0, BuildingBlock: XOMCOT_clean_sbu_1, # of connection points: 5
#     Node 14, Type 0, BuildingBlock: XOMCOT_clean_sbu_1, # of connection points: 5
#     Node 15, Type 0, BuildingBlock: XOMCOT_clean_sbu_1, # of connection points: 5
#     Edge 16, Type (0, 0), BuildingBlock: AJUNOK_clean_linker_0, # of connection points: 2
#     Edge 17, Type (0, 0), BuildingBlock: AJUNOK_clean_linker_0, # of connection points: 2
#     Edge 18, Type (0, 0), BuildingBlock: AJUNOK_clean_linker_0, # of connection points: 2
#     Edge 19, Type (0, 0), BuildingBlock: AJUNOK_clean_linker_0, # of connection points: 2
#     Edge 20, Type (0, 0), BuildingBlock: AJUNOK_clean_linker_0, # of connection points: 2
#     Edge 21, Type (0, 0), BuildingBlock: AJUNOK_clean_linker_0, # of connection points: 2
#     Edge 22, Type (0, 0), BuildingBlock: AJUNOK_clean_linker_0, # of connection points: 2
#     Edge 23, Type (0, 0), BuildingBlock: AJUNOK_clean_linker_0, # of connection points: 2
#     Edge 24, Type (0, 0), BuildingBlock: AJUNOK_clean_linker_0, # of connection points: 2
#     Edge 25, Type (0, 0), BuildingBlock: AJUNOK_clean_linker_0, # of connection points: 2
#     Edge 26, Type (0, 0), BuildingBlock: AJUNOK_clean_linker_0, # of connection points: 2
#     Edge 27, Type (0, 0), BuildingBlock: AJUNOK_clean_linker_0, # of connection points: 2
#     Edge 28, Type (0, 0), BuildingBlock: AJUNOK_clean_linker_0, # of connection points: 2
#     Edge 29, Type (0, 0), BuildingBlock: AJUNOK_clean_linker_0, # of connection points: 2
#     Edge 30, Type (0, 0), BuildingBlock: AJUNOK_clean_linker_0, # of connection points: 2
#     Edge 31, Type (0, 0), BuildingBlock: AJUNOK_clean_linker_0, # of connection points: 2
#     Edge 32, Type (0, 0), BuildingBlock: AJUNOK_clean_linker_0, # of connection points: 2
#     Edge 33, Type (0, 0), BuildingBlock: AJUNOK_clean_linker_0, # of connection points: 2
#     Edge 34, Type (0, 0), BuildingBlock: AJUNOK_clean_linker_0, # of connection points: 2
#     Edge 35, Type (0, 0), BuildingBlock: AJUNOK_clean_linker_0, # of connection points: 2
#     Edge 36, Type (0, 0), BuildingBlock: AJUNOK_clean_linker_0, # of connection points: 2
#     Edge 37, Type (0, 0), BuildingBlock: AJUNOK_clean_linker_0, # of connection points: 2
#     Edge 38, Type (0, 0), BuildingBlock: AJUNOK_clean_linker_0, # of connection points: 2
#     Edge 39, Type (0, 0), BuildingBlock: AJUNOK_clean_linker_0, # of connection points: 2
#     Edge 40, Type (0, 0), BuildingBlock: AJUNOK_clean_linker_0, # of connection points: 2
#     Edge 41, Type (0, 0), BuildingBlock: AJUNOK_clean_linker_0, # of connection points: 2
#     Edge 42, Type (0, 0), BuildingBlock: AJUNOK_clean_linker_0, # of connection points: 2
#     Edge 43, Type (0, 0), BuildingBlock: AJUNOK_clean_linker_0, # of connection points: 2
#     Edge 44, Type (0, 0), BuildingBlock: AJUNOK_clean_linker_0, # of connection points: 2
#     Edge 45, Type (0, 0), BuildingBlock: AJUNOK_clean_linker_0, # of connection points: 2
#     Edge 46, Type (0, 0), BuildingBlock: AJUNOK_clean_linker_0, # of connection points: 2
#     Edge 47, Type (0, 0), BuildingBlock: AJUNOK_clean_linker_0, # of connection points: 2
#     Edge 48, Type (0, 0), BuildingBlock: AJUNOK_clean_linker_0, # of connection points: 2
#     Edge 49, Type (0, 0), BuildingBlock: AJUNOK_clean_linker_0, # of connection points: 2
#     Edge 50, Type (0, 0), BuildingBlock: AJUNOK_clean_linker_0, # of connection points: 2
#     Edge 51, Type (0, 0), BuildingBlock: AJUNOK_clean_linker_0, # of connection points: 2
#     Edge 52, Type (0, 0), BuildingBlock: AJUNOK_clean_linker_0, # of connection points: 2
#     Edge 53, Type (0, 0), BuildingBlock: AJUNOK_clean_linker_0, # of connection points: 2
#     Edge 54, Type (0, 0), BuildingBlock: AJUNOK_clean_linker_0, # of connection points: 2
#     Edge 55, Type (0, 0), BuildingBlock: AJUNOK_clean_linker_0, # of connection points: 2
# Relax obj value: 0.177
# Max RMSD: 0.196
# Mean RMSD: 0.196
data_MOF--net-yfy--node1-XOMCOT_clean_sbu_1--edge1-AJUNOK_clean_linker_0
_symmetry_space_group_name_H-M    P1
_symmetry_Int_Tables_number       1
_symmetry_cell_setting            triclinic
loop_
_symmetry_equiv_pos_as_xyz
'x, y, z'
_cell_length_a     32.994167
_cell_length_b     32.899965
_cell_length_c     38.968362
_cell_angle_alpha  89.923143
_cell_angle_beta   89.966015
_cell_angle_gamma 90.132398
loop_
_atom_site_label
_atom_site_type_symbol
_atom_site_fract_x
_atom_site_fract_y
_atom_site_fract_z
_atom_type_partial_charge
C0 C 0.96975 0.31548 0.3366 0.0
C1 C 0.94471 0.28238 0.33194 0.0
N2 N 0.96057 0.25875 0.30714 0.0
N3 N 1.00137 0.31301 0.31479 0.0
C4 C 0.99474 0.27824 0.29698 0.0
H5 H 0.96562 0.33947 0.35522 0.0
Co6 Co 0.04459 0.35068 0.31218 0.0
C7 C 0.09559 0.28795 0.26922 0.0
O8 O 0.08086 0.2908 0.23801 0.0
N9 N 0.08924 0.38785 0.3084 0.0
C10 C 0.15357 0.40853 0.3081 0.0
C11 C 0.12655 0.38081 0.32123 0.0
C12 C 0.09466 0.42071 0.28765 0.0
N13 N 0.13386 0.43375 0.28654 0.0
O14 O 1.02296 0.37019 0.26946 0.0
H15 H 0.13439 0.35552 0.33761 0.0
H16 H 0.07037 0.43394 0.27299 0.0
O17 O 0.08077 0.30984 0.29313 0.0
C18 C 0.99723 0.39625 0.28089 0.0
O19 O 0.99577 0.40231 0.31421 0.0
N20 N 0.06023 0.33574 0.35641 0.0
C21 C 0.06062 0.3197 0.42658 0.0
C22 C 0.06489 0.28793 0.40282 0.0
C23 C 0.06438 0.2966 0.3676 0.0
C24 C 0.05779 0.36697 0.37918 0.0
C25 C 0.05871 0.35971 0.41432 0.0
H26 H 0.06455 0.27177 0.34944 0.0
H27 H 0.05316 0.39763 0.36998 0.0
H28 H 1.01444 0.26742 0.27686 0.0
H29 H 0.91759 0.27551 0.34651 0.0
H30 H 0.18591 0.40824 0.31262 0.0
H31 H 0.06653 0.25662 0.41132 0.0
H32 H 0.05662 0.38522 0.43176 0.0
C33 C 0.86406 0.9925 0.35125 0.0
C34 C 0.89402 0.96431 0.34565 0.0
N35 N 0.90438 0.96569 0.31234 0.0
N36 N 0.85612 1.01273 0.32179 0.0
C37 C 0.88021 0.9943 0.29812 0.0
H38 H 0.84934 0.99814 0.37556 0.0
Co39 Co 0.81786 0.05605 0.31729 0.0
C40 C 0.8953 0.09711 0.28838 0.0
O41 O 0.91998 0.06688 0.2948 0.0
N42 N 0.77981 0.09969 0.31185 0.0
C43 C 0.75735 0.16348 0.3101 0.0
C44 C 0.78621 0.1379 0.32324 0.0
C45 C 0.74615 0.10313 0.29188 0.0
N46 N 0.73199 0.14193 0.28998 0.0
O47 O 0.79675 0.0303 0.27658 0.0
H48 H 0.81184 0.14736 0.33858 0.0
H49 H 0.733 0.07774 0.27842 0.0
O50 O 0.85724 0.09278 0.29415 0.0
C51 C 0.77162 1.00544 0.29087 0.0
O52 O 0.76936 1.00579 0.32453 0.0
N53 N 0.83312 0.0761 0.3605 0.0
C54 C 0.84675 0.07914 0.43085 0.0
C55 C 0.87869 0.08617 0.40781 0.0
C56 C 0.87123 0.08443 0.3724 0.0
C57 C 0.80146 0.07235 0.38274 0.0
C58 C 0.8075 0.07436 0.41793 0.0
H59 H 0.89663 0.08606 0.35517 0.0
H60 H 0.77159 0.065 0.37316 0.0
H61 H 0.881 1.00266 0.27125 0.0
H62 H 0.90746 0.94443 0.36464 0.0
H63 H 0.75681 0.19609 0.31357 0.0
H64 H 0.90941 0.09012 0.41701 0.0
H65 H 0.7819 0.06987 0.43496 0.0
C66 C 0.18307 0.84384 0.32741 0.0
C67 C 0.2085 0.87636 0.32216 0.0
N68 N 0.18913 0.90405 0.30271 0.0
N69 N 0.1474 0.85061 0.31162 0.0
C70 C 0.1518 0.88788 0.29695 0.0
H71 H 0.19007 0.81685 0.34209 0.0
Co72 Co 0.10616 0.81079 0.31179 0.0
C73 C 0.02828 0.85136 0.29815 0.0
O74 O 1.01375 0.82672 0.32164 0.0
N75 N 0.06519 0.76859 0.31095 0.0
C76 C 1.01987 0.7197 0.32227 0.0
C77 C 0.04745 0.74646 0.33622 0.0
C78 C 0.04777 0.75391 0.28183 0.0
N79 N 1.02026 0.72418 0.28801 0.0
O80 O 0.12759 0.78976 0.26934 0.0
H81 H 0.05317 0.74936 0.36331 0.0
H82 H 0.05464 0.76542 0.25646 0.0
O83 O 0.06626 0.84975 0.29027 0.0
C84 C 0.14963 0.76048 0.28062 0.0
O85 O 0.14948 0.75335 0.31377 0.0
N86 N 0.09216 0.82777 0.35608 0.0
C87 C 0.09546 0.84972 0.42513 0.0
C88 C 0.08069 0.8771 0.40051 0.0
C89 C 0.08018 0.86582 0.36582 0.0
C90 C 0.10734 0.80148 0.37979 0.0
C91 C 0.10818 0.81127 0.41438 0.0
H92 H 0.0725 0.88844 0.3469 0.0
H93 H 0.11996 0.7728 0.37169 0.0
H94 H 0.12835 0.90275 0.28218 0.0
H95 H 0.2386 0.87986 0.3328 0.0
H96 H 1.00132 0.69812 0.33626 0.0
H97 H 0.07126 0.90738 0.40784 0.0
H98 H 0.11932 0.78897 0.43253 0.0
C99 C 0.3043 0.19311 0.32619 0.0
C100 C 0.27377 0.22046 0.32061 0.0
N101 N 0.245 0.20242 0.30158 0.0
N102 N 0.2948 0.1568 0.31209 0.0
C103 C 0.25911 0.16439 0.29561 0.0
H104 H 0.33244 0.20008 0.33904 0.0
Co105 Co 0.3321 0.11193 0.31402 0.0
C106 C 0.25636 0.06537 0.29777 0.0
O107 O 0.23722 0.08747 0.32068 0.0
N108 N 0.37048 0.06893 0.31474 0.0
C109 C 0.4188 1.0256 0.33073 0.0
C110 C 0.39133 0.05424 0.34186 0.0
C111 C 0.38642 0.04912 0.28736 0.0
N112 N 0.41578 1.02246 0.29639 0.0
O113 O 0.35672 0.13287 0.27285 0.0
H114 H 0.38797 0.0647 0.36799 0.0
H115 H 0.37738 0.0549 0.26111 0.0
O116 O 0.29343 0.07411 0.29033 0.0
C117 C 0.3866 0.15395 0.28438 0.0
O118 O 0.39389 0.15261 0.31752 0.0
N119 N 0.31265 0.09572 0.35771 0.0
C120 C 0.29313 0.08138 0.42649 0.0
C121 C 0.28686 0.0511 0.40165 0.0
C122 C 0.29786 0.05852 0.36743 0.0
C123 C 0.32169 0.12386 0.38213 0.0
C124 C 0.31172 0.11768 0.41633 0.0
H125 H 0.29572 0.03394 0.3492 0.0
H126 H 0.33902 0.15042 0.37558 0.0
H127 H 0.24374 0.14291 0.27922 0.0
H128 H 0.27302 0.25162 0.32951 0.0
H129 H 0.44078 1.00988 0.34649 0.0
H130 H 0.27465 1.02168 0.40872 0.0
H131 H 0.32051 0.1405 0.43493 0.0
C132 C 0.97594 0.85357 0.66486 0.0
C133 C 0.94941 0.88399 0.67335 0.0
N134 N 0.96508 0.90528 0.6996 0.0
N135 N 1.00937 0.85572 0.68485 0.0
C136 C 1.00068 0.88664 0.70689 0.0
H137 H 0.96984 0.83061 0.64589 0.0
Co138 Co 0.05349 0.81748 0.68489 0.0
C139 C 0.09648 0.89504 0.70094 0.0
O140 O 0.07262 0.91252 0.67836 0.0
N141 N 0.09573 0.77847 0.68629 0.0
C142 C 0.13775 0.72803 0.67284 0.0
C143 C 0.10992 0.75546 0.66029 0.0
C144 C 0.11521 0.76404 0.71447 0.0
N145 N 0.14083 0.73309 0.70703 0.0
O146 O 0.03118 0.79456 0.72616 0.0
H147 H 0.09979 0.75743 0.63397 0.0
H148 H 0.11008 0.77562 0.74008 0.0
O149 O 0.09072 0.85722 0.70821 0.0
C150 C 1.00739 0.76746 0.71353 0.0
O151 O 1.00698 0.76281 0.68005 0.0
N152 N 0.07128 0.83492 0.64104 0.0
C153 C 0.08607 0.85334 0.57218 0.0
C154 C 0.11439 0.86391 0.59756 0.0
C155 C 0.10704 0.85308 0.63182 0.0
C156 C 0.04566 0.82138 0.61617 0.0
C157 C 0.05187 0.83095 0.58188 0.0
H158 H 0.13051 0.85856 0.65048 0.0
H159 H 1.02103 0.80133 0.62273 0.0
H160 H 1.01987 0.89507 0.72822 0.0
H161 H 0.92086 0.89028 0.66076 0.0
H162 H 0.15327 0.70492 0.65811 0.0
H163 H 0.14209 0.87985 0.59106 0.0
H164 H 0.03066 0.81961 0.56294 0.0
C165 C 0.31599 0.9715 0.67067 0.0
C166 C 0.28331 0.94636 0.67614 0.0
N167 N 0.25565 0.96654 0.69489 0.0
N168 N 0.30948 1.00762 0.68594 0.0
C169 C 0.27231 1.00374 0.70057 0.0
H170 H 0.34293 0.96395 0.65623 0.0
Co171 Co 0.34924 0.04887 0.68502 0.0
C172 C 0.30932 0.12706 0.69918 0.0
O173 O 0.33372 0.14091 0.67522 0.0
N174 N 0.39151 0.08961 0.68514 0.0
C175 C 0.44225 0.13244 0.67337 0.0
C176 C 0.41563 0.10442 0.65993 0.0
C177 C 0.40487 0.10914 0.71377 0.0
N178 N 0.43547 0.13564 0.7073 0.0
O179 O 0.37184 1.02676 0.72654 0.0
H180 H 0.41461 0.09605 0.63326 0.0
H181 H 0.39259 0.10341 0.73906 0.0
O182 O 0.31157 0.08916 0.70787 0.0
C183 C 0.40048 1.00464 0.71433 0.0
O184 O 0.40687 1.00573 0.68108 0.0
N185 N 0.33014 0.06377 0.64147 0.0
C186 C 0.30477 0.06537 0.57313 0.0
C187 C 0.2784 0.07731 0.59954 0.0
C188 C 0.29147 0.07564 0.63371 0.0
C189 C 0.3549 0.04973 0.61621 0.0
C190 C 0.34345 0.05144 0.58197 0.0
H191 H 0.26974 0.08169 0.65377 0.0
H192 H 0.3835 0.03585 0.62275 0.0
H193 H 0.25796 0.02741 0.71537 0.0
H194 H 0.27966 0.91583 0.66624 0.0
H195 H 0.46474 0.14945 0.65905 0.0
H196 H 0.24753 0.08627 0.59403 0.0
H197 H 0.36467 0.04128 0.56259 0.0
C198 C 0.10981 0.24795 0.68136 0.0
C199 C 0.13516 0.21594 0.68796 0.0
N200 N 0.16945 0.23046 0.70203 0.0
N201 N 0.12759 0.28322 0.69097 0.0
C202 C 0.16436 0.27145 0.70318 0.0
H203 H 0.07987 0.24544 0.67029 0.0
Co204 Co 0.1005 0.33457 0.68804 0.0
C205 C 0.04364 0.28432 0.73228 0.0
O206 O 0.07241 0.27056 0.75245 0.0
N207 N 0.07184 0.38413 0.68652 0.0
C208 C 0.03999 0.44129 0.67234 0.0
C209 C 0.06624 0.41135 0.66109 0.0
C210 C 0.04926 0.39847 0.7129 0.0
N211 N 0.02892 0.4329 0.70496 0.0
O212 O 0.1257 0.35317 0.72984 0.0
H213 H 0.07957 0.40912 0.6358 0.0
H214 H 0.04815 0.38373 0.7377 0.0
O215 O 0.05246 0.30999 0.70888 0.0
C216 C 0.15632 0.3724 0.71722 0.0
O217 O 0.16333 0.36876 0.68417 0.0
N218 N 0.08166 0.32087 0.64441 0.0
C219 C 0.06653 0.30816 0.57484 0.0
C220 C 0.03475 0.30657 0.59895 0.0
C221 C 0.04291 0.31353 0.6338 0.0
C222 C 0.11275 0.32166 0.62146 0.0
C223 C 0.10593 0.31541 0.58671 0.0
H224 H 1.01817 0.3138 0.65192 0.0
H225 H 0.14319 0.32796 0.63019 0.0
H226 H 0.18694 0.29233 0.71291 0.0
H227 H 0.12924 0.18444 0.68171 0.0
H228 H 0.02912 0.4667 0.65729 0.0
H229 H 1.00389 0.30057 0.59098 0.0
H230 H 0.13129 0.31767 0.56914 0.0
C231 C 0.85709 0.16897 0.65897 0.0
C232 C 0.88508 0.19912 0.6651 0.0
N233 N 0.89768 0.19616 0.69786 0.0
N234 N 0.85216 0.14618 0.6875 0.0
C235 C 0.87628 0.16458 0.71118 0.0
H236 H 0.84163 0.16371 0.63492 0.0
Co237 Co 0.81593 0.1009 0.69095 0.0
C238 C 0.89416 0.06249 0.72083 0.0
O239 O 0.91824 0.09316 0.71407 0.0
N240 N 0.7797 0.05528 0.69526 0.0
C241 C 0.76029 0.99037 0.69546 0.0
C242 C 0.78834 1.01772 0.6835 0.0
C243 C 0.74556 0.0496 0.71437 0.0
N244 N 0.73315 1.01002 0.71524 0.0
O245 O 0.79349 0.12445 0.73179 0.0
H246 H 0.81491 1.00994 0.66867 0.0
H247 H 0.73081 0.07399 0.72793 0.0
O248 O 0.85619 0.06559 0.71438 0.0
C249 C 0.76828 0.14979 0.71856 0.0
O250 O 0.76523 0.15102 0.68493 0.0
N251 N 0.83313 0.08245 0.64773 0.0
C252 C 0.84858 0.07149 0.57821 0.0
C253 C 0.88044 0.07085 0.60189 0.0
C254 C 0.87203 0.07621 0.63683 0.0
C255 C 0.80201 0.08309 0.62476 0.0
C256 C 0.80896 0.07703 0.58997 0.0
H257 H 0.89701 0.07789 0.65441 0.0
H258 H 0.77161 0.08981 0.63342 0.0
H259 H 0.87846 0.15462 0.7376 0.0
H260 H 0.89633 0.22081 0.64644 0.0
H261 H 0.76147 0.95787 0.6914 0.0
H262 H 0.91148 0.06724 0.59338 0.0
H263 H 0.78376 0.07839 0.57219 0.0
C264 C 0.46267 0.78488 0.83884 0.0
C265 C 0.4371 0.75387 0.82984 0.0
N266 N 0.45035 0.73737 0.80041 0.0
N267 N 0.49344 0.78794 0.81602 0.0
C268 C 0.48418 0.75894 0.79219 0.0
H269 H 0.45763 0.80447 0.86048 0.0
Co270 Co 0.5353 0.82932 0.81741 0.0
C271 C 0.5822 0.75601 0.79633 0.0
O272 O 0.5588 0.73445 0.8167 0.0
N273 N 0.57525 0.87118 0.81781 0.0
C274 C 0.61643 0.92131 0.83403 0.0
C275 C 0.58927 0.89227 0.84501 0.0
C276 C 0.59421 0.88856 0.79048 0.0
N277 N 0.61921 0.91964 0.79952 0.0
O278 O 0.51253 0.85336 0.77701 0.0
H279 H 0.58045 0.88719 0.87136 0.0
H280 H 0.58909 0.87901 0.76428 0.0
O281 O 0.57462 0.79407 0.79235 0.0
C282 C 0.48578 0.8776 0.78929 0.0
O283 O 0.47947 0.87725 0.82257 0.0
N284 N 0.55403 0.81056 0.86045 0.0
C285 C 0.57017 0.7924 0.92904 0.0
C286 C 0.59794 0.7818 0.9033 0.0
C287 C 0.58976 0.79213 0.86909 0.0
C288 C 0.52909 0.82434 0.8857 0.0
C289 C 0.53602 0.81499 0.9199 0.0
H290 H 0.61296 0.78677 0.85023 0.0
H291 H 0.50452 0.84455 0.87942 0.0
H292 H 0.50177 0.75378 0.76916 0.0
H293 H 0.41083 0.74392 0.84426 0.0
H294 H 0.63342 0.94137 0.85064 0.0
H295 H 0.62606 0.76662 0.90962 0.0
H296 H 0.51562 0.82696 0.93918 0.0
C297 C 0.34174 0.45257 0.80539 0.0
C298 C 0.37414 0.42702 0.80125 0.0
N299 N 0.40803 0.44953 0.7978 0.0
N300 N 0.35432 0.49156 0.80394 0.0
C301 C 0.39516 0.48874 0.79937 0.0
H302 H 0.31074 0.44299 0.80918 0.0
Co303 Co 0.31727 0.53553 0.80805 0.0
C304 C 0.3793 0.58389 0.76034 0.0
O305 O 0.39642 0.55736 0.7398 0.0
N306 N 0.27989 0.57939 0.81132 0.0
C307 C 0.23722 0.62702 0.82968 0.0
C308 C 0.26411 0.59712 0.83951 0.0
C309 C 0.26172 0.59887 0.78474 0.0
N310 N 0.23542 0.62798 0.79511 0.0
O311 O 0.28704 0.51414 0.76936 0.0
H312 H 0.27155 0.58893 0.86563 0.0
H313 H 0.26753 0.5916 0.75812 0.0
O314 O 0.35298 0.57192 0.78222 0.0
C315 C 0.25631 0.49659 0.7835 0.0
O316 O 0.252 0.50031 0.81688 0.0
N317 N 0.34241 0.55125 0.84868 0.0
C318 C 0.36755 0.5653 0.91591 0.0
C319 C 0.37764 0.5928 0.88955 0.0
C320 C 0.36465 0.58525 0.85586 0.0
C321 C 0.33277 0.52424 0.87386 0.0
C322 C 0.34489 0.53065 0.90753 0.0
H323 H 0.37124 0.60732 0.83612 0.0
H324 H 0.31419 0.49809 0.86785 0.0
H325 H 0.41515 0.51478 0.79776 0.0
H326 H 0.37253 0.39419 0.80012 0.0
H327 H 0.22091 0.64698 0.84684 0.0
H328 H 0.39448 0.62032 0.89509 0.0
H329 H 0.3348 0.50951 0.92709 0.0
C330 C 0.70174 0.34165 0.8208 0.0
C331 C 0.72897 0.37259 0.81559 0.0
N332 N 0.70865 0.40607 0.80559 0.0
N333 N 0.66406 0.35467 0.81351 0.0
C334 C 0.66916 0.39422 0.80425 0.0
H335 H 0.70922 0.31116 0.82892 0.0
Co336 Co 0.61902 0.31939 0.81604 0.0
C337 C 0.56725 0.38047 0.76793 0.0
O338 O 0.58601 0.39208 0.73983 0.0
N339 N 0.57402 0.28322 0.81784 0.0
C340 C 0.52602 0.23911 0.8335 0.0
C341 C 0.55549 0.26563 0.84501 0.0
C342 C 0.55541 0.26651 0.79019 0.0
N343 N 0.52603 0.23967 0.79895 0.0
O344 O 0.64057 0.28899 0.77765 0.0
H345 H 0.56332 0.27073 0.87156 0.0
H346 H 0.56363 0.27355 0.76395 0.0
O347 O 0.58553 0.35633 0.78855 0.0
C348 C 0.65757 0.25811 0.79183 0.0
O349 O 0.65309 0.25366 0.82511 0.0
N350 N 0.60317 0.34482 0.85641 0.0
C351 C 0.59044 0.37087 0.92336 0.0
C352 C 0.57217 0.39135 0.8958 0.0
C353 C 0.57967 0.37825 0.86215 0.0
C354 C 0.62235 0.32596 0.88288 0.0
C355 C 0.61632 0.33831 0.91648 0.0
H356 H 0.56687 0.39512 0.84113 0.0
H357 H 0.64202 0.30047 0.87778 0.0
H358 H 0.64451 0.41396 0.79679 0.0
H359 H 0.76152 0.36991 0.81791 0.0
H360 H 0.50721 0.21969 0.84935 0.0
H361 H 0.55254 0.41716 0.90024 0.0
H362 H 0.6309 0.32164 0.93704 0.0
C363 C 0.8077 0.69474 0.82481 0.0
C364 C 0.77389 0.71843 0.81976 0.0
N365 N 0.74627 0.69673 0.80201 0.0
N366 N 0.80188 0.65807 0.81029 0.0
C367 C 0.76418 0.66021 0.79649 0.0
H368 H 0.8346 0.70345 0.83885 0.0
Co369 Co 0.84001 0.61561 0.81222 0.0
C370 C 0.7834 0.55939 0.76388 0.0
O371 O 0.77484 0.57406 0.73338 0.0
N372 N 0.87884 0.57264 0.81315 0.0
C373 C 0.92291 0.52413 0.82746 0.0
C374 C 0.89622 0.55284 0.83976 0.0
C375 C 0.89615 0.55555 0.78498 0.0
N376 N 0.92289 0.52592 0.79297 0.0
O377 O 0.86882 0.63972 0.77421 0.0
H378 H 0.89027 0.55849 0.86654 0.0
H379 H 0.88905 0.56449 0.75893 0.0
O380 O 0.80567 0.5805 0.78403 0.0
C381 C 0.89734 0.6599 0.78884 0.0
O382 O 0.90012 0.65755 0.82238 0.0
N383 N 0.8153 0.59747 0.85252 0.0
C384 C 0.78579 0.58697 0.91889 0.0
C385 C 0.76427 0.57136 0.89073 0.0
C386 C 0.7791 0.57802 0.85737 0.0
C387 C 0.83552 0.61378 0.87966 0.0
C388 C 0.82157 0.60864 0.91296 0.0
H389 H 0.76102 0.56852 0.8358 0.0
H390 H 0.86292 0.63105 0.87535 0.0
H391 H 0.75016 0.63552 0.78266 0.0
H392 H 0.76947 0.74888 0.82952 0.0
H393 H 0.94152 0.50398 0.84274 0.0
H394 H 0.73602 0.55513 0.89446 0.0
H395 H 0.83896 0.6212 0.93402 0.0
C396 C 0.46612 0.35394 0.15657 0.0
C397 C 0.44019 0.38558 0.16253 0.0
N398 N 0.45578 0.40884 0.18763 0.0
N399 N 0.49822 0.35672 0.17782 0.0
C400 C 0.4912 0.39084 0.19659 0.0
H401 H 0.46142 0.32976 0.13824 0.0
Co402 Co 0.5376 0.31547 0.17793 0.0
C403 C 0.61551 0.35236 0.19867 0.0
O404 O 0.63147 0.32774 0.17594 0.0
N405 N 0.57634 0.27164 0.17849 0.0
C406 C 0.62005 0.22235 0.16538 0.0
C407 C 0.59392 0.25101 0.15245 0.0
C408 C 0.59221 0.25398 0.20709 0.0
N409 N 0.61882 0.22374 0.19991 0.0
O410 O 0.5127 0.29211 0.21827 0.0
H411 H 0.58965 0.25671 0.12549 0.0
H412 H 0.58467 0.2636 0.23285 0.0
O413 O 0.57687 0.35166 0.20368 0.0
C414 C 0.4875 0.26663 0.2052 0.0
O415 O 0.48688 0.26291 0.17166 0.0
N416 N 0.55578 0.33526 0.13526 0.0
C417 C 0.56245 0.36264 0.0677 0.0
C418 C 0.57722 0.38629 0.09482 0.0
C419 C 0.57246 0.37255 0.1286 0.0
C420 C 0.54022 0.31275 0.10904 0.0
C421 C 0.54385 0.32541 0.07513 0.0
H422 H 0.58033 0.39283 0.14907 0.0
H423 H 0.5241 0.28487 0.11461 0.0
H424 H 0.51077 0.40146 0.21698 0.0
H425 H 0.41158 0.39092 0.1497 0.0
H426 H 0.63978 0.20336 0.15016 0.0
H427 H 0.59097 0.41568 0.09 0.0
H428 H 0.53209 0.3062 0.05487 0.0
C429 C 0.79771 0.47108 0.15556 0.0
C430 C 0.76693 0.44447 0.16304 0.0
N431 N 0.74388 0.46065 0.18799 0.0
N432 N 0.79459 0.5042 0.17567 0.0
C433 C 0.76117 0.4971 0.19531 0.0
H434 H 0.82158 0.46618 0.13701 0.0
Co435 Co 0.83477 0.54486 0.17389 0.0
C436 C 0.79681 0.62224 0.19335 0.0
O437 O 0.81866 0.6379 0.16846 0.0
N438 N 0.8773 0.58517 0.17286 0.0
C439 C 0.92691 0.62845 0.1589 0.0
C440 C 0.89835 0.6017 0.14647 0.0
C441 C 0.89427 0.60256 0.2011 0.0
N442 N 0.92469 0.62879 0.19339 0.0
O443 O 0.86025 0.52142 0.21393 0.0
H444 H 0.89359 0.59559 0.11963 0.0
H445 H 0.88459 0.59581 0.22703 0.0
O446 O 0.79906 0.58388 0.19984 0.0
C447 C 0.88748 0.4985 0.20047 0.0
O448 O 0.88983 0.49754 0.16686 0.0
N449 N 0.8133 0.56141 0.13136 0.0
C450 C 0.78586 0.56589 0.06374 0.0
C451 C 0.76181 0.58048 0.0907 0.0
C452 C 0.77557 0.57667 0.12463 0.0
C453 C 0.83608 0.54595 0.10532 0.0
C454 C 0.82335 0.54844 0.07142 0.0
H455 H 0.7552 0.58432 0.14522 0.0
H456 H 0.86427 0.53073 0.11099 0.0
H457 H 0.75061 0.51737 0.21524 0.0
H458 H 0.76209 0.41501 0.15137 0.0
H459 H 0.94715 0.64687 0.14349 0.0
H460 H 0.7322 0.59333 0.08565 0.0
H461 H 0.84274 0.53669 0.05131 0.0
C462 C 0.68872 0.8157 0.16825 0.0
C463 C 0.71486 0.78409 0.174 0.0
N464 N 0.69713 0.75775 0.19578 0.0
N465 N 0.65438 0.80979 0.18634 0.0
C466 C 0.66017 0.77375 0.20279 0.0
H467 H 0.69451 0.84171 0.15197 0.0
Co468 Co 0.61332 0.84946 0.18588 0.0
C469 C 0.5364 0.80892 0.2032 0.0
O470 O 0.52123 0.83229 0.1791 0.0
N471 N 0.57251 0.89151 0.18622 0.0
C472 C 0.52849 0.94073 0.17351 0.0
C473 C 0.55722 0.91468 0.16061 0.0
C474 C 0.55266 0.90509 0.21462 0.0
N475 N 0.52529 0.9347 0.20756 0.0
O476 O 0.63624 0.87317 0.22669 0.0
H477 H 0.56554 0.91322 0.13394 0.0
H478 H 0.55854 0.89343 0.24009 0.0
O479 O 0.57451 0.81146 0.21035 0.0
C480 C 0.65972 0.90074 0.21418 0.0
O481 O 0.6595 0.90612 0.18078 0.0
N482 N 0.59738 0.82968 0.14281 0.0
C483 C 0.59274 0.80395 0.07474 0.0
C484 C 0.58094 0.77797 0.10153 0.0
C485 C 0.58432 0.79118 0.13553 0.0
C486 C 0.61144 0.85396 0.1171 0.0
C487 C 0.60837 0.8423 0.08296 0.0
H488 H 0.57854 0.76972 0.15574 0.0
H489 H 0.6261 0.88244 0.12319 0.0
H490 H 0.63831 0.75999 0.21998 0.0
H491 H 0.74476 0.78055 0.16294 0.0
H492 H 0.51079 0.96212 0.15867 0.0
H493 H 0.57066 0.74731 0.09637 0.0
H494 H 0.61856 0.86311 0.06318 0.0
C495 C 0.36261 0.68762 0.15025 0.0
C496 C 0.39451 0.71259 0.15837 0.0
N497 N 0.4118 0.69874 0.18733 0.0
N498 N 0.35942 0.65784 0.17393 0.0
C499 C 0.38995 0.66548 0.19648 0.0
H500 H 0.34214 0.6917 0.12889 0.0
Co501 Co 0.31652 0.61982 0.17318 0.0
C502 C 0.35103 0.54056 0.1924 0.0
O503 O 0.32648 0.52557 0.16914 0.0
N504 N 0.27141 0.58217 0.17333 0.0
C505 C 0.22058 0.53988 0.16055 0.0
C506 C 0.25011 0.565 0.14744 0.0
C507 C 0.2534 0.56677 0.20202 0.0
N508 N 0.22209 0.54125 0.19505 0.0
O509 O 0.29432 0.64378 0.21384 0.0
H510 H 0.25579 0.56872 0.12043 0.0
H511 H 0.26352 0.57382 0.22772 0.0
O512 O 0.35113 0.57908 0.19814 0.0
C513 C 0.27123 0.67196 0.20222 0.0
O514 O 0.27131 0.67892 0.16901 0.0
N515 N 0.33525 0.60201 0.13012 0.0
C516 C 0.35941 0.59337 0.06174 0.0
C517 C 0.38462 0.58029 0.08861 0.0
C518 C 0.3722 0.58548 0.12273 0.0
C519 C 0.31189 0.6172 0.10435 0.0
C520 C 0.3227 0.61222 0.07014 0.0
H521 H 0.39311 0.57805 0.14293 0.0
H522 H 0.28453 0.6337 0.11052 0.0
H523 H 0.39511 0.64808 0.21965 0.0
H524 H 0.40374 0.73967 0.14458 0.0
H525 H 0.20082 0.52071 0.14545 0.0
H526 H 0.41418 0.56747 0.08341 0.0
H527 H 0.30238 0.62329 0.05043 0.0
C528 C 0.0859 0.28671 0.4805 0.0
C529 C 0.05745 0.31171 0.46403 0.0
C530 C 0.08687 0.28356 0.51638 0.0
C531 C 0.05949 0.30538 0.53717 0.0
H532 H 0.10883 0.27102 0.46568 0.0
H533 H 0.11032 0.26513 0.52801 0.0
S534 S 0.97541 0.3705 0.5061 0.0
N535 N 0.99792 0.35445 0.47081 0.0
N536 N 1.00089 0.35011 0.53822 0.0
C537 C 0.02921 0.32835 0.52085 0.0
C538 C 0.028 0.33122 0.48431 0.0
C539 C 0.87418 0.10171 0.5235 0.0
C540 C 0.85579 0.06904 0.54094 0.0
C541 C 0.87327 0.10396 0.48749 0.0
C542 C 0.85385 0.07363 0.46809 0.0
H543 H 0.88718 0.12674 0.53783 0.0
H544 H 0.88578 0.13056 0.47491 0.0
S545 S 0.80696 0.979 0.50179 0.0
N546 N 0.82158 1.00399 0.53638 0.0
N547 N 0.82058 1.00753 0.46882 0.0
C548 C 0.83808 0.03944 0.48532 0.0
C549 C 0.83882 0.03735 0.52176 0.0
C550 C 0.05999 0.8748 0.51475 0.0
C551 C 0.09275 0.86169 0.53516 0.0
C552 C 0.0621 0.87392 0.47886 0.0
C553 C 0.09709 0.85999 0.46213 0.0
H554 H 0.03167 0.88364 0.52665 0.0
H555 H 0.03525 0.88153 0.46423 0.0
S556 S 0.19361 0.82923 0.50343 0.0
N557 N 0.16278 0.83879 0.5358 0.0
N558 N 0.16729 0.8388 0.46832 0.0
C559 C 0.13135 0.85057 0.48214 0.0
C560 C 0.12909 0.85108 0.51868 0.0
C561 C 0.30393 0.03443 0.51447 0.0
C562 C 0.29284 0.06662 0.53636 0.0
C563 C 0.30087 0.03805 0.47877 0.0
C564 C 0.28617 0.07387 0.46362 0.0
H565 H 0.31705 1.00692 0.52493 0.0
H566 H 0.31272 1.01372 0.46302 0.0
S567 S 0.2458 0.16391 0.50952 0.0
N568 N 0.26203 0.13355 0.54033 0.0
N569 N 0.25431 0.1395 0.47324 0.0
C570 C 0.27113 0.1046 0.48529 0.0
C571 C 0.27484 0.10117 0.52166 0.0
C572 C 0.61594 0.79766 0.97979 0.0
C573 C 0.57862 0.78535 0.9659 0.0
C574 C 0.62119 0.8008 0.01532 0.0
C575 C 0.58926 0.79195 0.03819 0.0
H576 H 0.64034 0.80762 0.96315 0.0
H577 H 0.64985 0.81223 0.0249 0.0
S578 S 0.48779 0.75209 0.01467 0.0
N579 N 0.51121 0.75868 0.97761 0.0
N580 N 0.52056 0.76603 0.04445 0.0
C581 C 0.55295 0.77635 0.0247 0.0
C582 C 0.54775 0.77279 0.98852 0.0
C583 C 0.36488 0.61279 0.96586 0.0
C584 C 0.37553 0.57454 0.95265 0.0
C585 C 0.36256 0.61939 0.00131 0.0
C586 C 0.37044 0.58793 0.02497 0.0
H587 H 0.35562 0.63706 0.94879 0.0
H588 H 0.3526 0.6489 0.01022 0.0
S589 S 0.40646 0.48425 0.00343 0.0
N590 N 0.40016 0.50667 0.96588 0.0
N591 N 0.39392 0.51844 0.03252 0.0
C592 C 0.3844 0.55056 0.01212 0.0
C593 C 0.38729 0.54402 0.97598 0.0
C594 C 0.61337 0.38499 0.98313 0.0
C595 C 0.58129 0.38055 0.9596 0.0
C596 C 0.60655 0.38261 0.01856 0.0
C597 C 0.56747 0.37536 0.03152 0.0
H598 H 0.64429 0.38765 0.97399 0.0
H599 H 0.63237 0.38337 0.03571 0.0
S600 S 0.47253 0.36819 0.981 0.0
N601 N 0.50855 0.37351 0.95187 0.0
N602 N 0.49564 0.36937 0.01858 0.0
C603 C 0.53473 0.37453 0.00843 0.0
C604 C 0.54166 0.37715 0.97238 0.0
C605 C 0.76925 0.60849 0.0128 0.0
C606 C 0.77359 0.56968 0.02736 0.0
C607 C 0.76922 0.61366 0.97707 0.0
C608 C 0.77305 0.58015 0.95485 0.0
H609 H 0.7693 0.63521 0.02903 0.0
H610 H 0.7691 0.64427 0.96677 0.0
S611 S 0.77874 0.47189 0.9804 0.0
N612 N 0.77676 0.49692 0.01709 0.0
N613 N 0.77658 0.50672 0.94987 0.0
C614 C 0.77348 0.541 0.9691 0.0
C615 C 0.77385 0.53575 0.00543 0.0
C616 C 0.15034 0.26513 0.30952 0.0
C617 C 0.13223 0.26256 0.27683 0.0
C618 C 0.18635 0.24469 0.31732 0.0
C619 C 0.20614 0.22019 0.29303 0.0
H620 H 0.13719 0.28382 0.32936 0.0
H621 H 0.19906 0.24836 0.34274 0.0
S622 S 0.17087 0.20044 0.20426 0.0
N623 N 0.13638 0.23148 0.22024 0.0
N624 N 0.20426 0.19291 0.2352 0.0
C625 C 0.18793 0.21584 0.2606 0.0
C626 C 0.15107 0.23707 0.25244 0.0
C627 C 0.88721 0.17335 0.2891 0.0
C628 C 0.91264 0.1392 0.28561 0.0
C629 C 0.90311 0.21246 0.29474 0.0
C630 C 0.94518 0.21947 0.2964 0.0
H631 H 0.85464 0.16975 0.28908 0.0
H632 H 0.88224 0.23736 0.29874 0.0
S633 S 1.02538 0.14198 0.28397 0.0
N634 N 0.98257 0.11624 0.28048 0.0
N635 N 1.0121 0.18958 0.29099 0.0
C636 C 0.97106 0.18632 0.29034 0.0
C637 C 0.9549 0.14634 0.28488 0.0
C638 C 0.97733 0.95301 0.3034 0.0
C639 C 0.93663 0.94236 0.29706 0.0
C640 C 1.00903 0.92488 0.29841 0.0
C641 C 1.00085 0.88486 0.28761 0.0
H642 H 0.98423 0.98219 0.31486 0.0
H643 H 0.03932 0.93322 0.30651 0.0
S644 S 0.89992 0.84375 0.26381 0.0
N645 N 0.89053 0.89089 0.27601 0.0
N646 N 0.94947 0.83776 0.26724 0.0
C647 C 0.96067 0.87528 0.27835 0.0
C648 C 0.92867 0.90401 0.28307 0.0
C649 C 0.19665 1.01798 0.29534 0.0
C650 C 0.2385 1.02459 0.28977 0.0
C651 C 0.18005 0.97856 0.29712 0.0
C652 C 0.20464 0.94398 0.29372 0.0
H653 H 0.17681 0.04348 0.30033 0.0
H654 H 0.14828 0.97513 0.30349 0.0
S655 S 0.31468 0.94405 0.27334 0.0
N656 N 0.30309 0.99267 0.27677 0.0
N657 N 0.27199 0.91891 0.27999 0.0
C658 C 0.24585 0.9501 0.28541 0.0
C659 C 0.26272 0.99025 0.28335 0.0
C660 C 0.21013 0.90997 0.7123 0.0
C661 C 0.21569 0.95132 0.7037 0.0
C662 C 0.17119 0.89249 0.71473 0.0
C663 C 0.13612 0.91557 0.70821 0.0
H664 H 0.23626 0.89055 0.71575 0.0
H665 H 0.1688 0.86009 0.71934 0.0
S666 S 0.13393 1.02594 0.68756 0.0
N667 N 0.18262 1.01531 0.691 0.0
N668 N 0.10975 0.98302 0.6957 0.0
C669 C 0.1413 0.95758 0.70187 0.0
C670 C 0.18092 0.97531 0.69956 0.0
C671 C 0.24382 0.22166 0.70045 0.0
C672 C 0.20539 0.20673 0.70937 0.0
C673 C 0.27788 0.19614 0.70038 0.0
C674 C 0.2751 0.15444 0.70909 0.0
H675 H 0.24718 0.25254 0.69123 0.0
H676 H 0.30629 0.20886 0.69139 0.0
S677 S 0.18308 0.10319 0.74263 0.0
N678 N 0.16779 0.1497 0.73338 0.0
N679 N 0.23171 0.10162 0.73266 0.0
C680 C 0.23765 0.14025 0.72144 0.0
C681 C 0.20284 0.16635 0.72158 0.0
C682 C 0.93581 0.26066 0.70385 0.0
C683 C 0.9306 0.2195 0.71286 0.0
C684 C 0.97119 0.2822 0.71253 0.0
C685 C 1.00333 0.26348 0.73032 0.0
H686 H 0.91283 0.27599 0.68885 0.0
H687 H 0.97405 0.3134 0.70391 0.0
S688 S 1.00395 0.15694 0.76205 0.0
N689 N 0.95971 0.16166 0.7427 0.0
N690 N 0.02628 0.20172 0.75862 0.0
C691 C 0.99756 0.22301 0.7413 0.0
C692 C 0.96126 0.20114 0.73264 0.0
C693 C 0.90586 0.94777 0.71461 0.0
C694 C 0.94821 0.94254 0.71333 0.0
C695 C 0.88841 0.98607 0.72045 0.0
C696 C 0.91253 1.0211 0.72468 0.0
H697 H 0.88595 0.92227 0.70954 0.0
H698 H 0.85576 0.98843 0.71966 0.0
S699 S 1.025 1.02265 0.73012 0.0
N700 N 1.01378 0.97478 0.72162 0.0
N701 N 0.98122 0.04659 0.73271 0.0
C702 C 0.9549 1.01555 0.72679 0.0
C703 C 0.97267 0.9764 0.72103 0.0
C704 C 0.65695 0.76586 0.78561 0.0
C705 C 0.62348 0.73948 0.78885 0.0
C706 C 0.69695 0.75131 0.78816 0.0
C707 C 0.70532 0.70977 0.79386 0.0
H708 H 0.65234 0.79835 0.78341 0.0
H709 H 0.72155 0.77308 0.78693 0.0
S710 S 0.62849 0.62733 0.79947 0.0
N711 N 0.60161 0.66908 0.79402 0.0
N712 N 0.67632 0.64208 0.79956 0.0
C713 C 0.67219 0.68272 0.79455 0.0
C714 C 0.63149 0.6975 0.79184 0.0
C715 C 0.45674 0.66961 0.77242 0.0
C716 C 0.43251 0.70214 0.78383 0.0
C717 C 0.43925 0.63204 0.76272 0.0
C718 C 0.39695 0.62558 0.76426 0.0
H719 H 0.48943 0.67244 0.77293 0.0
H720 H 0.45918 0.60721 0.75591 0.0
S721 S 0.32007 0.70324 0.78665 0.0
N722 N 0.36384 0.72692 0.79153 0.0
N723 N 0.33146 0.65673 0.77414 0.0
C724 C 0.37253 0.65879 0.7734 0.0
C725 C 0.39016 0.69689 0.78293 0.0
C726 C 0.51361 0.435 0.76142 0.0
C727 C 0.52646 0.39813 0.77657 0.0
C728 C 0.47565 0.4525 0.76927 0.0
C729 C 0.44867 0.43375 0.79243 0.0
H730 H 0.53308 0.45062 0.7433 0.0
H731 H 0.4669 0.48033 0.75643 0.0
S732 S 0.46772 0.33791 0.84027 0.0
N733 N 0.50839 0.34396 0.81616 0.0
N734 N 0.43856 0.37734 0.83187 0.0
C735 C 0.46142 0.39739 0.80824 0.0
C736 C 0.49976 0.37947 0.80005 0.0
C737 C 0.72851 0.5059 0.75989 0.0
C738 C 0.76463 0.52005 0.77527 0.0
C739 C 0.70979 0.46935 0.7704 0.0
C740 C 0.72643 0.44519 0.79671 0.0
H741 H 0.71439 0.5233 0.73955 0.0
H742 H 0.68256 0.45952 0.75731 0.0
S743 S 0.81998 0.46891 0.84605 0.0
N744 N 0.81636 0.50623 0.81794 0.0
N745 N 0.78024 0.43952 0.83914 0.0
C746 C 0.76214 0.45938 0.81269 0.0
C747 C 0.78146 0.49615 0.80159 0.0
C748 C 0.68293 0.37306 0.21967 0.0
C749 C 0.64304 0.38486 0.21159 0.0
C750 C 0.71569 0.3999 0.21575 0.0
C751 C 0.71005 0.43981 0.20379 0.0
H752 H 0.68946 0.34149 0.22537 0.0
H753 H 0.74614 0.38823 0.21892 0.0
S754 S 0.61113 0.48887 0.18679 0.0
N755 N 0.59909 0.44171 0.1975 0.0
N756 N 0.66107 0.49193 0.18935 0.0
C757 C 0.67004 0.45366 0.1999 0.0
C758 C 0.63637 0.42625 0.20415 0.0
C759 C 0.72554 0.64759 0.19758 0.0
C760 C 0.76619 0.64974 0.20867 0.0
C761 C 0.70068 0.68255 0.19703 0.0
C762 C 0.71575 0.72059 0.20763 0.0
H763 H 0.71422 0.62 0.18585 0.0
H764 H 0.67109 0.68069 0.18512 0.0
S765 S 0.81726 0.74064 0.24452 0.0
N766 N 0.81807 0.69179 0.2348 0.0
N767 N 0.77154 0.75685 0.23406 0.0
C768 C 0.7546 0.72188 0.22228 0.0
C769 C 0.77973 0.68659 0.2228 0.0
C770 C 0.4686 0.78689 0.22231 0.0
C771 C 0.50912 0.77598 0.21562 0.0
C772 C 0.43661 0.7594 0.21708 0.0
C773 C 0.4438 0.71976 0.20527 0.0
H774 H 0.46113 0.81832 0.22772 0.0
H775 H 0.40577 0.77042 0.21888 0.0
S776 S 0.54442 0.67303 0.19133 0.0
N777 N 0.55493 0.72029 0.20272 0.0
N778 N 0.49448 0.66889 0.19223 0.0
C779 C 0.48423 0.70682 0.20273 0.0
C780 C 0.51704 0.73485 0.20827 0.0
C781 C 0.39481 0.43918 0.21261 0.0
C782 C 0.43529 0.44363 0.20197 0.0
C783 C 0.36874 0.47267 0.21464 0.0
C784 C 0.38202 0.51209 0.20608 0.0
H785 H 0.38226 0.40901 0.21615 0.0
H786 H 0.33685 0.46702 0.21944 0.0
S787 S 0.48746 0.54105 0.18361 0.0
N788 N 0.48914 0.49106 0.18783 0.0
N789 N 0.44031 0.55447 0.19238 0.0
C790 C 0.42371 0.51768 0.19974 0.0
C791 C 0.45033 0.48327 0.1974 0.0
C792 C 0.21348 0.50575 0.25099 0.0
C793 C 0.19759 0.51774 0.21907 0.0
C794 C 0.19172 0.47998 0.27323 0.0
C795 C 0.15309 0.46429 0.26462 0.0
H796 H 0.24358 0.51527 0.25856 0.0
H797 H 0.2059 0.47183 0.29727 0.0
S798 S 0.09543 0.49088 0.18566 0.0
N799 N 0.13844 0.51612 0.18185 0.0
N800 N 0.09885 0.46578 0.2222 0.0
C801 C 0.13604 0.47759 0.23332 0.0
C802 C 0.15797 0.50456 0.21094 0.0
C803 C 0.6829 0.19726 0.27718 0.0
C804 C 0.70005 0.15926 0.26859 0.0
C805 C 0.65571 0.21747 0.25527 0.0
C806 C 0.64374 0.20055 0.22371 0.0
H807 H 0.69104 0.21217 0.30092 0.0
H808 H 0.64507 0.24726 0.26272 0.0
S809 S 0.67471 0.09928 0.19059 0.0
N810 N 0.70025 0.10437 0.22671 0.0
N811 N 0.64743 0.14102 0.18686 0.0
C812 C 0.65855 0.16146 0.21564 0.0
C813 C 0.6869 0.14111 0.23772 0.0
C814 C 0.93247 0.66791 0.24755 0.0
C815 C 0.94921 0.65266 0.21689 0.0
C816 C 0.95567 0.69154 0.27042 0.0
C817 C 0.99652 0.70114 0.26353 0.0
H818 H 0.90103 0.66192 0.25375 0.0
H819 H 0.94144 0.70272 0.29359 0.0
S820 S 0.05621 0.6655 0.18885 0.0
N821 N 1.01041 0.64667 0.18236 0.0
N822 N 0.0534 0.69148 0.22499 0.0
C823 C 1.01379 0.68578 0.23326 0.0
C824 C 0.99034 0.66148 0.21008 0.0
C825 C 0.4589 1.0176 0.24448 0.0
C826 C 0.44224 0.99949 0.27399 0.0
C827 C 0.4863 0.99647 0.22338 0.0
C828 C 0.49801 0.95608 0.23062 0.0
H829 H 0.45136 0.04871 0.23807 0.0
H830 H 0.49877 1.01219 0.20136 0.0
S831 S 0.45977 0.89369 0.3033 0.0
N832 N 0.43771 0.93827 0.30858 0.0
N833 N 0.48823 0.89815 0.26861 0.0
C834 C 0.48087 0.93739 0.25981 0.0
C835 C 0.45325 0.95914 0.28149 0.0
C836 C 0.22606 0.66816 0.74158 0.0
C837 C 0.21132 0.65488 0.77366 0.0
C838 C 0.20324 0.69418 0.72039 0.0
C839 C 0.16462 0.70821 0.73026 0.0
H840 H 0.25569 0.65865 0.73284 0.0
H841 H 0.21599 0.70355 0.69602 0.0
S842 S 0.11009 0.67937 0.80996 0.0
N843 N 0.15409 0.65584 0.81305 0.0
N844 N 0.11161 0.70472 0.77339 0.0
C845 C 0.14926 0.6949 0.76206 0.0
C846 C 0.17245 0.66828 0.78364 0.0
C847 C 0.49884 0.17038 0.72531 0.0
C848 C 0.45754 0.16145 0.73108 0.0
C849 C 0.52079 0.19617 0.74729 0.0
C850 C 0.50254 0.21401 0.7762 0.0
H851 H 0.51456 0.15696 0.70376 0.0
H852 H 0.55255 0.20164 0.74195 0.0
S853 S 0.39463 0.20359 0.80156 0.0
N854 N 0.39879 0.17487 0.767 0.0
N855 N 0.44023 0.22268 0.8085 0.0
C856 C 0.46126 0.20573 0.78221 0.0
C857 C 0.43876 0.17964 0.75968 0.0
C858 C 0.99669 0.4981 0.7226 0.0
C859 C 1.00091 0.45562 0.72649 0.0
C860 C 0.97043 0.52079 0.74375 0.0
C861 C 0.94763 0.50204 0.76989 0.0
H862 H 1.01442 0.51412 0.7035 0.0
H863 H 0.96877 0.55341 0.74028 0.0
S864 S 0.94303 0.39159 0.78822 0.0
N865 N 0.97616 0.39556 0.75661 0.0
N866 N 0.92835 0.43844 0.79679 0.0
C867 C 0.95063 0.45968 0.77353 0.0
C868 C 0.97684 0.43645 0.75178 0.0
C869 C 0.65929 0.92927 0.74601 0.0
C870 C 0.64469 0.94467 0.77732 0.0
C871 C 0.68649 0.95157 0.72546 0.0
C872 C 0.70111 0.99034 0.73521 0.0
H873 H 0.6506 0.89914 0.73765 0.0
H874 H 0.69659 0.93772 0.70181 0.0
S875 S 0.66802 0.04704 0.8128 0.0
N876 N 0.64302 1.00364 0.81496 0.0
N877 N 0.69585 0.04424 0.77771 0.0
C878 C 0.68529 1.00694 0.76578 0.0
C879 C 0.65691 0.98443 0.78647 0.0
C880 C 0.94716 0.72142 0.71743 0.0
C881 C 0.97963 0.7414 0.73413 0.0
C882 C 0.92102 0.69486 0.73498 0.0
C883 C 0.92618 0.68697 0.77006 0.0
H884 H 0.94164 0.72635 0.69035 0.0
H885 H 0.89646 0.68065 0.72094 0.0
S886 S 1.00733 0.73056 0.82567 0.0
N887 N 1.0158 0.7509 0.78759 0.0
N888 N 0.96724 0.70099 0.82093 0.0
C889 C 0.95875 0.70666 0.78713 0.0
C890 C 0.98523 0.7339 0.76915 0.0
C891 C 0.40771 0.95735 0.76467 0.0
C892 C 0.42392 0.9746 0.73473 0.0
C893 C 0.4275 0.92512 0.78135 0.0
C894 C 0.46416 0.90873 0.76871 0.0
H895 H 0.3791 0.96806 0.77482 0.0
H896 H 0.41379 0.91283 0.80442 0.0
S897 S 0.52106 0.94542 0.69281 0.0
N898 N 0.48035 0.97447 0.69422 0.0
N899 N 0.51687 0.9138 0.72555 0.0
C900 C 0.48099 0.92608 0.73913 0.0
C901 C 0.4611 0.95908 0.72225 0.0
C902 C 0.2196 0.41413 0.72234 0.0
C903 C 0.18177 0.40225 0.73636 0.0
C904 C 0.24284 0.44576 0.7366 0.0
C905 C 0.22931 0.467 0.76558 0.0
H906 H 0.23148 0.39889 0.69987 0.0
H907 H 0.272 0.45293 0.72528 0.0
S908 S 0.13148 0.44974 0.81115 0.0
N909 N 0.13139 0.41552 0.7802 0.0
N910 N 0.17467 0.47481 0.80723 0.0
C911 C 0.19133 0.45572 0.77973 0.0
C912 C 0.16775 0.42339 0.76519 0.0
C913 C 0.69563 0.23628 0.73895 0.0
C914 C 0.68514 0.22955 0.77337 0.0
C915 C 0.72313 0.21068 0.72201 0.0
C916 C 0.74156 0.17728 0.7387 0.0
H917 H 0.68276 0.26165 0.72499 0.0
H918 H 0.73001 0.21733 0.6954 0.0
S919 S 0.7242 0.14567 0.82868 0.0
N920 N 0.6953 0.18611 0.8236 0.0
N921 N 0.74702 0.13872 0.79147 0.0
C922 C 0.73155 0.17019 0.77308 0.0
C923 C 0.7033 0.19604 0.7904 0.0
C924 C 0.93632 0.44086 0.27458 0.0
C925 C 0.96947 0.42077 0.25902 0.0
C926 C 0.91026 0.46625 0.25584 0.0
C927 C 0.91612 0.47273 0.22063 0.0
H928 H 0.93022 0.43697 0.3017 0.0
H929 H 0.88519 0.48061 0.26903 0.0
S930 S 0.99931 0.42848 0.1677 0.0
N931 N 1.00708 0.40982 0.20647 0.0
N932 N 0.95869 0.45744 0.17092 0.0
C933 C 0.94938 0.45292 0.2047 0.0
C934 C 0.9758 0.42694 0.2239 0.0
C935 C 0.71566 0.95243 0.21776 0.0
C936 C 0.68799 0.92633 0.23486 0.0
C937 C 0.74278 0.97759 0.23574 0.0
C938 C 0.74354 0.97786 0.2717 0.0
H939 H 0.71654 0.95363 0.19 0.0
H940 H 0.76309 0.99708 0.2213 0.0
S941 S 0.67737 0.91527 0.32896 0.0
N942 N 0.66323 0.90248 0.28984 0.0
N943 N 0.71381 0.94922 0.32398 0.0
C944 C 0.71609 0.95169 0.2892 0.0
C945 C 0.68849 0.92611 0.27075 0.0
C946 C 0.19515 0.75267 0.22923 0.0
C947 C 0.17802 0.73636 0.25918 0.0
C948 C 0.22612 0.73198 0.21169 0.0
C949 C 0.24135 0.69433 0.22351 0.0
H950 H 0.18538 0.78202 0.21976 0.0
H951 H 0.23839 0.7458 0.18867 0.0
S952 S 0.20407 0.63679 0.29895 0.0
N953 N 0.17667 0.67871 0.29862 0.0
N954 N 0.23513 0.64067 0.2659 0.0
C955 C 0.22401 0.67741 0.25306 0.0
C956 C 0.19223 0.69815 0.27074 0.0
C957 C 0.44631 0.2007 0.27776 0.0
C958 C 0.41179 0.18193 0.26301 0.0
C959 C 0.47 0.22902 0.25956 0.0
C960 C 0.46034 0.23971 0.22572 0.0
H961 H 0.45539 0.19345 0.30375 0.0
H962 H 0.49652 0.2419 0.27184 0.0
S963 S 0.37191 0.20155 0.17574 0.0
N964 N 0.36852 0.17759 0.21287 0.0
N965 N 0.41263 0.23062 0.17852 0.0
C966 C 0.42557 0.22165 0.21077 0.0
C967 C 0.40149 0.19281 0.22936 0.0
loop_
_geom_bond_atom_site_label_1
_geom_bond_atom_site_label_2
_geom_bond_distance
_geom_bond_site_symmetry_2
_ccdc_geom_bond_type
C0 C1 1.351 . S
C0 N3 1.368 . S
C0 H5 0.931 . S
C1 C0 1.351 . S
C1 N2 1.373 . S
C1 H29 0.930 . S
N2 C1 1.373 . S
N2 C4 1.340 . S
N3 C0 1.368 . S
N3 C4 1.321 . S
N3 Co6 2.135 1_655 S
C4 N2 1.340 . S
C4 N3 1.321 . S
C4 H28 0.930 1_655 S
H5 C0 0.931 . S
Co6 N3 2.135 1_455 S
Co6 N9 2.121 . S
Co6 O14 2.045 1_455 S
Co6 O17 2.039 . S
Co6 N20 2.140 . S
C7 O8 1.227 . S
C7 O17 1.265 . S
O8 C7 1.227 . S
N9 Co6 2.121 . S
N9 C11 1.375 . S
N9 C12 1.313 . S
C10 C11 1.338 . S
C10 N13 1.377 . S
C10 H30 0.930 . S
C11 N9 1.375 . S
C11 C10 1.338 . S
C11 H15 0.931 . S
C12 N9 1.313 . S
C12 N13 1.344 . S
C12 H16 0.930 . S
N13 C10 1.377 . S
N13 C12 1.344 . S
O14 Co6 2.045 1_655 S
O14 C18 1.264 . S
H15 C11 0.931 . S
H16 C12 0.930 . S
O17 Co6 2.039 . S
O17 C7 1.265 . S
C18 O14 1.264 . S
C18 O19 1.227 . S
O19 C18 1.227 . S
N20 Co6 2.140 . S
N20 C23 1.346 . S
N20 C24 1.345 . S
C21 C22 1.387 . S
C21 C25 1.391 . S
C22 C21 1.387 . S
C22 C23 1.369 . S
C22 H31 0.929 . S
C23 N20 1.346 . S
C23 C22 1.369 . S
C23 H26 0.928 . S
C24 N20 1.345 . S
C24 C25 1.371 . S
C24 H27 0.931 . S
C25 C21 1.391 . S
C25 C24 1.371 . S
C25 H32 0.930 . S
H26 C23 0.928 . S
H27 C24 0.931 . S
H28 C4 0.930 1_455 S
H29 C1 0.930 . S
H30 C10 0.930 . S
H31 C22 0.929 . S
H32 C25 0.930 . S
C33 C34 1.351 . S
C33 N36 1.368 . S
C33 H38 0.931 . S
C34 C33 1.351 . S
C34 N35 1.373 . S
C34 H62 0.930 . S
N35 C34 1.373 . S
N35 C37 1.340 . S
N36 C33 1.368 . S
N36 C37 1.321 . S
N36 Co39 2.135 1_565 S
C37 N35 1.340 . S
C37 N36 1.321 . S
C37 H61 0.930 1_565 S
H38 C33 0.931 . S
Co39 N36 2.135 1_545 S
Co39 N42 2.121 . S
Co39 O47 2.045 1_545 S
Co39 O50 2.039 . S
Co39 N53 2.140 . S
C40 O41 1.227 . S
C40 O50 1.265 . S
O41 C40 1.227 . S
N42 Co39 2.121 . S
N42 C44 1.375 . S
N42 C45 1.313 . S
C43 C44 1.338 . S
C43 N46 1.377 . S
C43 H63 0.930 . S
C44 N42 1.375 . S
C44 C43 1.338 . S
C44 H48 0.931 . S
C45 N42 1.313 . S
C45 N46 1.344 . S
C45 H49 0.930 . S
N46 C43 1.377 . S
N46 C45 1.344 . S
O47 Co39 2.045 1_565 S
O47 C51 1.264 . S
H48 C44 0.931 . S
H49 C45 0.930 . S
O50 Co39 2.039 . S
O50 C40 1.265 . S
C51 O47 1.264 . S
C51 O52 1.227 . S
O52 C51 1.227 . S
N53 Co39 2.140 . S
N53 C56 1.346 . S
N53 C57 1.345 . S
C54 C55 1.387 . S
C54 C58 1.391 . S
C55 C54 1.387 . S
C55 C56 1.369 . S
C55 H64 0.929 . S
C56 N53 1.346 . S
C56 C55 1.369 . S
C56 H59 0.928 . S
C57 N53 1.345 . S
C57 C58 1.371 . S
C57 H60 0.931 . S
C58 C54 1.391 . S
C58 C57 1.371 . S
C58 H65 0.930 . S
H59 C56 0.928 . S
H60 C57 0.931 . S
H61 C37 0.930 1_545 S
H62 C34 0.930 . S
H63 C43 0.930 . S
H64 C55 0.929 . S
H65 C58 0.930 . S
C66 C67 1.351 . S
C66 N69 1.368 . S
C66 H71 0.931 . S
C67 C66 1.351 . S
C67 N68 1.373 . S
C67 H95 0.930 . S
N68 C67 1.373 . S
N68 C70 1.340 . S
N69 C66 1.368 . S
N69 C70 1.321 . S
N69 Co72 2.135 . S
C70 N68 1.340 . S
C70 N69 1.321 . S
C70 H94 0.930 . S
H71 C66 0.931 . S
Co72 N69 2.135 . S
Co72 N75 2.121 . S
Co72 O80 2.055 . S
Co72 O83 2.039 . S
Co72 N86 2.140 . S
C73 O74 1.227 . S
C73 O83 1.265 . S
O74 C73 1.227 . S
N75 Co72 2.121 . S
N75 C77 1.375 1_455 S
N75 C78 1.313 . S
C76 C77 1.338 . S
C76 N79 1.377 . S
C76 H96 0.930 . S
C77 N75 1.375 1_655 S
C77 C76 1.338 . S
C77 H81 0.931 . S
C78 N75 1.313 . S
C78 N79 1.344 1_455 S
C78 H82 0.930 . S
N79 C76 1.377 . S
N79 C78 1.344 1_655 S
O80 Co72 2.055 . S
O80 C84 1.253 . S
H81 C77 0.931 . S
H82 C78 0.930 . S
O83 Co72 2.039 . S
O83 C73 1.265 . S
C84 O80 1.253 . S
C84 O85 1.227 . S
O85 C84 1.227 . S
N86 Co72 2.140 . S
N86 C89 1.346 . S
N86 C90 1.345 . S
C87 C88 1.387 . S
C87 C91 1.391 . S
C88 C87 1.387 . S
C88 C89 1.369 . S
C88 H97 0.929 . S
C89 N86 1.346 . S
C89 C88 1.369 . S
C89 H92 0.928 . S
C90 N86 1.345 . S
C90 C91 1.371 . S
C90 H93 0.931 . S
C91 C87 1.391 . S
C91 C90 1.371 . S
C91 H98 0.930 . S
H92 C89 0.928 . S
H93 C90 0.931 . S
H94 C70 0.930 . S
H95 C67 0.930 . S
H96 C76 0.930 . S
H97 C88 0.929 . S
H98 C91 0.930 . S
C99 C100 1.351 . S
C99 N102 1.368 . S
C99 H104 0.931 . S
C100 C99 1.351 . S
C100 N101 1.373 . S
C100 H128 0.930 . S
N101 C100 1.373 . S
N101 C103 1.340 . S
N102 C99 1.368 . S
N102 C103 1.321 . S
N102 Co105 2.135 . S
C103 N101 1.340 . S
C103 N102 1.321 . S
C103 H127 0.930 . S
H104 C99 0.931 . S
Co105 N102 2.135 . S
Co105 N108 2.121 . S
Co105 O113 2.055 . S
Co105 O116 2.039 . S
Co105 N119 2.140 . S
C106 O107 1.227 . S
C106 O116 1.265 . S
O107 C106 1.227 . S
N108 Co105 2.121 . S
N108 C110 1.375 1_545 S
N108 C111 1.313 . S
C109 C110 1.338 . S
C109 N112 1.377 . S
C109 H129 0.930 . S
C110 N108 1.375 1_565 S
C110 C109 1.338 . S
C110 H114 0.931 . S
C111 N108 1.313 . S
C111 N112 1.344 1_545 S
C111 H115 0.930 . S
N112 C109 1.377 . S
N112 C111 1.344 1_565 S
O113 Co105 2.055 . S
O113 C117 1.253 . S
H114 C110 0.931 . S
H115 C111 0.930 . S
O116 Co105 2.039 . S
O116 C106 1.265 . S
C117 O113 1.253 . S
C117 O118 1.227 . S
O118 C117 1.227 . S
N119 Co105 2.140 . S
N119 C122 1.346 . S
N119 C123 1.345 . S
C120 C121 1.387 . S
C120 C124 1.391 . S
C121 C120 1.387 . S
C121 C122 1.369 . S
C121 H130 0.929 . S
C122 N119 1.346 . S
C122 C121 1.369 . S
C122 H125 0.928 . S
C123 N119 1.345 . S
C123 C124 1.371 . S
C123 H126 0.931 . S
C124 C120 1.391 . S
C124 C123 1.371 . S
C124 H131 0.930 . S
H125 C122 0.928 . S
H126 C123 0.931 . S
H127 C103 0.930 . S
H128 C100 0.930 . S
H129 C109 0.930 . S
H130 C121 0.929 . S
H131 C124 0.930 . S
C132 C133 1.351 . S
C132 N135 1.368 . S
C132 H137 0.931 . S
C133 C132 1.351 . S
C133 N134 1.373 . S
C133 H161 0.930 . S
N134 C133 1.373 . S
N134 C136 1.340 . S
N135 C132 1.368 . S
N135 C136 1.321 . S
N135 Co138 2.135 1_655 S
C136 N134 1.340 . S
C136 N135 1.321 . S
C136 H160 0.930 1_655 S
H137 C132 0.931 . S
Co138 N135 2.135 1_455 S
Co138 N141 2.121 . S
Co138 O146 2.045 1_455 S
Co138 O149 2.039 . S
Co138 N152 2.140 . S
C139 O140 1.227 . S
C139 O149 1.265 . S
O140 C139 1.227 . S
N141 Co138 2.121 . S
N141 C143 1.375 . S
N141 C144 1.313 . S
C142 C143 1.338 . S
C142 N145 1.377 . S
C142 H162 0.930 . S
C143 N141 1.375 . S
C143 C142 1.338 . S
C143 H147 0.931 . S
C144 N141 1.313 . S
C144 N145 1.344 . S
C144 H148 0.930 . S
N145 C142 1.377 . S
N145 C144 1.344 . S
O146 Co138 2.045 1_655 S
O146 C150 1.264 . S
H147 C143 0.931 . S
H148 C144 0.930 . S
O149 Co138 2.039 . S
O149 C139 1.265 . S
C150 O146 1.264 . S
C150 O151 1.227 . S
O151 C150 1.227 . S
N152 Co138 2.140 . S
N152 C155 1.346 . S
N152 C156 1.345 . S
C153 C154 1.387 . S
C153 C157 1.391 . S
C154 C153 1.387 . S
C154 C155 1.369 . S
C154 H163 0.929 . S
C155 N152 1.346 . S
C155 C154 1.369 . S
C155 H158 0.928 . S
C156 N152 1.345 . S
C156 C157 1.371 . S
C156 H159 0.931 . S
C157 C153 1.391 . S
C157 C156 1.371 . S
C157 H164 0.930 . S
H158 C155 0.928 . S
H159 C156 0.931 . S
H160 C136 0.930 1_455 S
H161 C133 0.930 . S
H162 C142 0.930 . S
H163 C154 0.929 . S
H164 C157 0.930 . S
C165 C166 1.351 . S
C165 N168 1.368 . S
C165 H170 0.931 . S
C166 C165 1.351 . S
C166 N167 1.373 . S
C166 H194 0.930 . S
N167 C166 1.373 . S
N167 C169 1.340 . S
N168 C165 1.368 . S
N168 C169 1.321 . S
N168 Co171 2.135 1_565 S
C169 N167 1.340 . S
C169 N168 1.321 . S
C169 H193 0.930 1_565 S
H170 C165 0.931 . S
Co171 N168 2.135 1_545 S
Co171 N174 2.121 . S
Co171 O179 2.045 1_545 S
Co171 O182 2.039 . S
Co171 N185 2.140 . S
C172 O173 1.227 . S
C172 O182 1.265 . S
O173 C172 1.227 . S
N174 Co171 2.121 . S
N174 C176 1.375 . S
N174 C177 1.313 . S
C175 C176 1.338 . S
C175 N178 1.377 . S
C175 H195 0.930 . S
C176 N174 1.375 . S
C176 C175 1.338 . S
C176 H180 0.931 . S
C177 N174 1.313 . S
C177 N178 1.344 . S
C177 H181 0.930 . S
N178 C175 1.377 . S
N178 C177 1.344 . S
O179 Co171 2.045 1_565 S
O179 C183 1.264 . S
H180 C176 0.931 . S
H181 C177 0.930 . S
O182 Co171 2.039 . S
O182 C172 1.265 . S
C183 O179 1.264 . S
C183 O184 1.227 . S
O184 C183 1.227 . S
N185 Co171 2.140 . S
N185 C188 1.346 . S
N185 C189 1.345 . S
C186 C187 1.387 . S
C186 C190 1.391 . S
C187 C186 1.387 . S
C187 C188 1.369 . S
C187 H196 0.929 . S
C188 N185 1.346 . S
C188 C187 1.369 . S
C188 H191 0.928 . S
C189 N185 1.345 . S
C189 C190 1.371 . S
C189 H192 0.931 . S
C190 C186 1.391 . S
C190 C189 1.371 . S
C190 H197 0.930 . S
H191 C188 0.928 . S
H192 C189 0.931 . S
H193 C169 0.930 1_545 S
H194 C166 0.930 . S
H195 C175 0.930 . S
H196 C187 0.929 . S
H197 C190 0.930 . S
C198 C199 1.351 . S
C198 N201 1.368 . S
C198 H203 0.931 . S
C199 C198 1.351 . S
C199 N200 1.373 . S
C199 H227 0.930 . S
N200 C199 1.373 . S
N200 C202 1.340 . S
N201 C198 1.368 . S
N201 C202 1.321 . S
N201 Co204 2.135 . S
C202 N200 1.340 . S
C202 N201 1.321 . S
C202 H226 0.930 . S
H203 C198 0.931 . S
Co204 N201 2.135 . S
Co204 N207 2.121 . S
Co204 O212 2.055 . S
Co204 O215 2.039 . S
Co204 N218 2.140 . S
C205 O206 1.227 . S
C205 O215 1.265 . S
O206 C205 1.227 . S
N207 Co204 2.121 . S
N207 C209 1.375 1_455 S
N207 C210 1.313 . S
C208 C209 1.338 . S
C208 N211 1.377 . S
C208 H228 0.930 . S
C209 N207 1.375 1_655 S
C209 C208 1.338 . S
C209 H213 0.931 . S
C210 N207 1.313 . S
C210 N211 1.344 1_455 S
C210 H214 0.930 . S
N211 C208 1.377 . S
N211 C210 1.344 1_655 S
O212 Co204 2.055 . S
O212 C216 1.253 . S
H213 C209 0.931 . S
H214 C210 0.930 . S
O215 Co204 2.039 . S
O215 C205 1.265 . S
C216 O212 1.253 . S
C216 O217 1.227 . S
O217 C216 1.227 . S
N218 Co204 2.140 . S
N218 C221 1.346 . S
N218 C222 1.345 . S
C219 C220 1.387 . S
C219 C223 1.391 . S
C220 C219 1.387 . S
C220 C221 1.369 . S
C220 H229 0.929 . S
C221 N218 1.346 . S
C221 C220 1.369 . S
C221 H224 0.928 . S
C222 N218 1.345 . S
C222 C223 1.371 . S
C222 H225 0.931 . S
C223 C219 1.391 . S
C223 C222 1.371 . S
C223 H230 0.930 . S
H224 C221 0.928 . S
H225 C222 0.931 . S
H226 C202 0.930 . S
H227 C199 0.930 . S
H228 C208 0.930 . S
H229 C220 0.929 . S
H230 C223 0.930 . S
C231 C232 1.351 . S
C231 N234 1.368 . S
C231 H236 0.931 . S
C232 C231 1.351 . S
C232 N233 1.373 . S
C232 H260 0.930 . S
N233 C232 1.373 . S
N233 C235 1.340 . S
N234 C231 1.368 . S
N234 C235 1.321 . S
N234 Co237 2.135 . S
C235 N233 1.340 . S
C235 N234 1.321 . S
C235 H259 0.930 . S
H236 C231 0.931 . S
Co237 N234 2.135 . S
Co237 N240 2.121 . S
Co237 O245 2.055 . S
Co237 O248 2.039 . S
Co237 N251 2.140 . S
C238 O239 1.227 . S
C238 O248 1.265 . S
O239 C238 1.227 . S
N240 Co237 2.121 . S
N240 C242 1.375 1_545 S
N240 C243 1.313 . S
C241 C242 1.338 . S
C241 N244 1.377 . S
C241 H261 0.930 . S
C242 N240 1.375 1_565 S
C242 C241 1.338 . S
C242 H246 0.931 . S
C243 N240 1.313 . S
C243 N244 1.344 1_545 S
C243 H247 0.930 . S
N244 C241 1.377 . S
N244 C243 1.344 1_565 S
O245 Co237 2.055 . S
O245 C249 1.253 . S
H246 C242 0.931 . S
H247 C243 0.930 . S
O248 Co237 2.039 . S
O248 C238 1.265 . S
C249 O245 1.253 . S
C249 O250 1.227 . S
O250 C249 1.227 . S
N251 Co237 2.140 . S
N251 C254 1.346 . S
N251 C255 1.345 . S
C252 C253 1.387 . S
C252 C256 1.391 . S
C253 C252 1.387 . S
C253 C254 1.369 . S
C253 H262 0.929 . S
C254 N251 1.346 . S
C254 C253 1.369 . S
C254 H257 0.928 . S
C255 N251 1.345 . S
C255 C256 1.371 . S
C255 H258 0.931 . S
C256 C252 1.391 . S
C256 C255 1.371 . S
C256 H263 0.930 . S
H257 C254 0.928 . S
H258 C255 0.931 . S
H259 C235 0.930 . S
H260 C232 0.930 . S
H261 C241 0.930 . S
H262 C253 0.929 . S
H263 C256 0.930 . S
C264 C265 1.351 . S
C264 N267 1.368 . S
C264 H269 0.931 . S
C265 C264 1.351 . S
C265 N266 1.373 . S
C265 H293 0.930 . S
N266 C265 1.373 . S
N266 C268 1.340 . S
N267 C264 1.368 . S
N267 C268 1.321 . S
N267 Co270 2.135 . S
C268 N266 1.340 . S
C268 N267 1.321 . S
C268 H292 0.930 . S
H269 C264 0.931 . S
Co270 N267 2.135 . S
Co270 N273 2.121 . S
Co270 O278 2.055 . S
Co270 O281 2.039 . S
Co270 N284 2.140 . S
C271 O272 1.227 . S
C271 O281 1.265 . S
O272 C271 1.227 . S
N273 Co270 2.121 . S
N273 C275 1.375 . S
N273 C276 1.313 . S
C274 C275 1.338 . S
C274 N277 1.377 . S
C274 H294 0.930 . S
C275 N273 1.375 . S
C275 C274 1.338 . S
C275 H279 0.931 . S
C276 N273 1.313 . S
C276 N277 1.344 . S
C276 H280 0.930 . S
N277 C274 1.377 . S
N277 C276 1.344 . S
O278 Co270 2.055 . S
O278 C282 1.253 . S
H279 C275 0.931 . S
H280 C276 0.930 . S
O281 Co270 2.039 . S
O281 C271 1.265 . S
C282 O278 1.253 . S
C282 O283 1.227 . S
O283 C282 1.227 . S
N284 Co270 2.140 . S
N284 C287 1.346 . S
N284 C288 1.345 . S
C285 C286 1.387 . S
C285 C289 1.391 . S
C286 C285 1.387 . S
C286 C287 1.369 . S
C286 H295 0.929 . S
C287 N284 1.346 . S
C287 C286 1.369 . S
C287 H290 0.928 . S
C288 N284 1.345 . S
C288 C289 1.371 . S
C288 H291 0.931 . S
C289 C285 1.391 . S
C289 C288 1.371 . S
C289 H296 0.930 . S
H290 C287 0.928 . S
H291 C288 0.931 . S
H292 C268 0.930 . S
H293 C265 0.930 . S
H294 C274 0.930 . S
H295 C286 0.929 . S
H296 C289 0.930 . S
C297 C298 1.351 . S
C297 N300 1.368 . S
C297 H302 0.931 . S
C298 C297 1.351 . S
C298 N299 1.373 . S
C298 H326 0.930 . S
N299 C298 1.373 . S
N299 C301 1.340 . S
N300 C297 1.368 . S
N300 C301 1.321 . S
N300 Co303 2.135 . S
C301 N299 1.340 . S
C301 N300 1.321 . S
C301 H325 0.930 . S
H302 C297 0.931 . S
Co303 N300 2.135 . S
Co303 N306 2.121 . S
Co303 O311 2.055 . S
Co303 O314 2.039 . S
Co303 N317 2.140 . S
C304 O305 1.227 . S
C304 O314 1.265 . S
O305 C304 1.227 . S
N306 Co303 2.121 . S
N306 C308 1.375 . S
N306 C309 1.313 . S
C307 C308 1.338 . S
C307 N310 1.377 . S
C307 H327 0.930 . S
C308 N306 1.375 . S
C308 C307 1.338 . S
C308 H312 0.931 . S
C309 N306 1.313 . S
C309 N310 1.344 . S
C309 H313 0.930 . S
N310 C307 1.377 . S
N310 C309 1.344 . S
O311 Co303 2.055 . S
O311 C315 1.253 . S
H312 C308 0.931 . S
H313 C309 0.930 . S
O314 Co303 2.039 . S
O314 C304 1.265 . S
C315 O311 1.253 . S
C315 O316 1.227 . S
O316 C315 1.227 . S
N317 Co303 2.140 . S
N317 C320 1.346 . S
N317 C321 1.345 . S
C318 C319 1.387 . S
C318 C322 1.391 . S
C319 C318 1.387 . S
C319 C320 1.369 . S
C319 H328 0.929 . S
C320 N317 1.346 . S
C320 C319 1.369 . S
C320 H323 0.928 . S
C321 N317 1.345 . S
C321 C322 1.371 . S
C321 H324 0.931 . S
C322 C318 1.391 . S
C322 C321 1.371 . S
C322 H329 0.930 . S
H323 C320 0.928 . S
H324 C321 0.931 . S
H325 C301 0.930 . S
H326 C298 0.930 . S
H327 C307 0.930 . S
H328 C319 0.929 . S
H329 C322 0.930 . S
C330 C331 1.351 . S
C330 N333 1.368 . S
C330 H335 0.931 . S
C331 C330 1.351 . S
C331 N332 1.373 . S
C331 H359 0.930 . S
N332 C331 1.373 . S
N332 C334 1.340 . S
N333 C330 1.368 . S
N333 C334 1.321 . S
N333 Co336 2.135 . S
C334 N332 1.340 . S
C334 N333 1.321 . S
C334 H358 0.930 . S
H335 C330 0.931 . S
Co336 N333 2.135 . S
Co336 N339 2.121 . S
Co336 O344 2.055 . S
Co336 O347 2.039 . S
Co336 N350 2.140 . S
C337 O338 1.227 . S
C337 O347 1.265 . S
O338 C337 1.227 . S
N339 Co336 2.121 . S
N339 C341 1.375 . S
N339 C342 1.313 . S
C340 C341 1.338 . S
C340 N343 1.377 . S
C340 H360 0.930 . S
C341 N339 1.375 . S
C341 C340 1.338 . S
C341 H345 0.931 . S
C342 N339 1.313 . S
C342 N343 1.344 . S
C342 H346 0.930 . S
N343 C340 1.377 . S
N343 C342 1.344 . S
O344 Co336 2.055 . S
O344 C348 1.253 . S
H345 C341 0.931 . S
H346 C342 0.930 . S
O347 Co336 2.039 . S
O347 C337 1.265 . S
C348 O344 1.253 . S
C348 O349 1.227 . S
O349 C348 1.227 . S
N350 Co336 2.140 . S
N350 C353 1.346 . S
N350 C354 1.345 . S
C351 C352 1.387 . S
C351 C355 1.391 . S
C352 C351 1.387 . S
C352 C353 1.369 . S
C352 H361 0.929 . S
C353 N350 1.346 . S
C353 C352 1.369 . S
C353 H356 0.928 . S
C354 N350 1.345 . S
C354 C355 1.371 . S
C354 H357 0.931 . S
C355 C351 1.391 . S
C355 C354 1.371 . S
C355 H362 0.930 . S
H356 C353 0.928 . S
H357 C354 0.931 . S
H358 C334 0.930 . S
H359 C331 0.930 . S
H360 C340 0.930 . S
H361 C352 0.929 . S
H362 C355 0.930 . S
C363 C364 1.351 . S
C363 N366 1.368 . S
C363 H368 0.931 . S
C364 C363 1.351 . S
C364 N365 1.373 . S
C364 H392 0.930 . S
N365 C364 1.373 . S
N365 C367 1.340 . S
N366 C363 1.368 . S
N366 C367 1.321 . S
N366 Co369 2.135 . S
C367 N365 1.340 . S
C367 N366 1.321 . S
C367 H391 0.930 . S
H368 C363 0.931 . S
Co369 N366 2.135 . S
Co369 N372 2.121 . S
Co369 O377 2.055 . S
Co369 O380 2.039 . S
Co369 N383 2.140 . S
C370 O371 1.227 . S
C370 O380 1.265 . S
O371 C370 1.227 . S
N372 Co369 2.121 . S
N372 C374 1.375 . S
N372 C375 1.313 . S
C373 C374 1.338 . S
C373 N376 1.377 . S
C373 H393 0.930 . S
C374 N372 1.375 . S
C374 C373 1.338 . S
C374 H378 0.931 . S
C375 N372 1.313 . S
C375 N376 1.344 . S
C375 H379 0.930 . S
N376 C373 1.377 . S
N376 C375 1.344 . S
O377 Co369 2.055 . S
O377 C381 1.253 . S
H378 C374 0.931 . S
H379 C375 0.930 . S
O380 Co369 2.039 . S
O380 C370 1.265 . S
C381 O377 1.253 . S
C381 O382 1.227 . S
O382 C381 1.227 . S
N383 Co369 2.140 . S
N383 C386 1.346 . S
N383 C387 1.345 . S
C384 C385 1.387 . S
C384 C388 1.391 . S
C385 C384 1.387 . S
C385 C386 1.369 . S
C385 H394 0.929 . S
C386 N383 1.346 . S
C386 C385 1.369 . S
C386 H389 0.928 . S
C387 N383 1.345 . S
C387 C388 1.371 . S
C387 H390 0.931 . S
C388 C384 1.391 . S
C388 C387 1.371 . S
C388 H395 0.930 . S
H389 C386 0.928 . S
H390 C387 0.931 . S
H391 C367 0.930 . S
H392 C364 0.930 . S
H393 C373 0.930 . S
H394 C385 0.929 . S
H395 C388 0.930 . S
C396 C397 1.351 . S
C396 N399 1.368 . S
C396 H401 0.931 . S
C397 C396 1.351 . S
C397 N398 1.373 . S
C397 H425 0.930 . S
N398 C397 1.373 . S
N398 C400 1.340 . S
N399 C396 1.368 . S
N399 C400 1.321 . S
N399 Co402 2.135 . S
C400 N398 1.340 . S
C400 N399 1.321 . S
C400 H424 0.930 . S
H401 C396 0.931 . S
Co402 N399 2.135 . S
Co402 N405 2.121 . S
Co402 O410 2.055 . S
Co402 O413 2.039 . S
Co402 N416 2.140 . S
C403 O404 1.227 . S
C403 O413 1.265 . S
O404 C403 1.227 . S
N405 Co402 2.121 . S
N405 C407 1.375 . S
N405 C408 1.313 . S
C406 C407 1.338 . S
C406 N409 1.377 . S
C406 H426 0.930 . S
C407 N405 1.375 . S
C407 C406 1.338 . S
C407 H411 0.931 . S
C408 N405 1.313 . S
C408 N409 1.344 . S
C408 H412 0.930 . S
N409 C406 1.377 . S
N409 C408 1.344 . S
O410 Co402 2.055 . S
O410 C414 1.253 . S
H411 C407 0.931 . S
H412 C408 0.930 . S
O413 Co402 2.039 . S
O413 C403 1.265 . S
C414 O410 1.253 . S
C414 O415 1.227 . S
O415 C414 1.227 . S
N416 Co402 2.140 . S
N416 C419 1.346 . S
N416 C420 1.345 . S
C417 C418 1.387 . S
C417 C421 1.391 . S
C418 C417 1.387 . S
C418 C419 1.369 . S
C418 H427 0.929 . S
C419 N416 1.346 . S
C419 C418 1.369 . S
C419 H422 0.928 . S
C420 N416 1.345 . S
C420 C421 1.371 . S
C420 H423 0.931 . S
C421 C417 1.391 . S
C421 C420 1.371 . S
C421 H428 0.930 . S
H422 C419 0.928 . S
H423 C420 0.931 . S
H424 C400 0.930 . S
H425 C397 0.930 . S
H426 C406 0.930 . S
H427 C418 0.929 . S
H428 C421 0.930 . S
C429 C430 1.351 . S
C429 N432 1.368 . S
C429 H434 0.931 . S
C430 C429 1.351 . S
C430 N431 1.373 . S
C430 H458 0.930 . S
N431 C430 1.373 . S
N431 C433 1.340 . S
N432 C429 1.368 . S
N432 C433 1.321 . S
N432 Co435 2.135 . S
C433 N431 1.340 . S
C433 N432 1.321 . S
C433 H457 0.930 . S
H434 C429 0.931 . S
Co435 N432 2.135 . S
Co435 N438 2.121 . S
Co435 O443 2.055 . S
Co435 O446 2.039 . S
Co435 N449 2.140 . S
C436 O437 1.227 . S
C436 O446 1.265 . S
O437 C436 1.227 . S
N438 Co435 2.121 . S
N438 C440 1.375 . S
N438 C441 1.313 . S
C439 C440 1.338 . S
C439 N442 1.377 . S
C439 H459 0.930 . S
C440 N438 1.375 . S
C440 C439 1.338 . S
C440 H444 0.931 . S
C441 N438 1.313 . S
C441 N442 1.344 . S
C441 H445 0.930 . S
N442 C439 1.377 . S
N442 C441 1.344 . S
O443 Co435 2.055 . S
O443 C447 1.253 . S
H444 C440 0.931 . S
H445 C441 0.930 . S
O446 Co435 2.039 . S
O446 C436 1.265 . S
C447 O443 1.253 . S
C447 O448 1.227 . S
O448 C447 1.227 . S
N449 Co435 2.140 . S
N449 C452 1.346 . S
N449 C453 1.345 . S
C450 C451 1.387 . S
C450 C454 1.391 . S
C451 C450 1.387 . S
C451 C452 1.369 . S
C451 H460 0.929 . S
C452 N449 1.346 . S
C452 C451 1.369 . S
C452 H455 0.928 . S
C453 N449 1.345 . S
C453 C454 1.371 . S
C453 H456 0.931 . S
C454 C450 1.391 . S
C454 C453 1.371 . S
C454 H461 0.930 . S
H455 C452 0.928 . S
H456 C453 0.931 . S
H457 C433 0.930 . S
H458 C430 0.930 . S
H459 C439 0.930 . S
H460 C451 0.929 . S
H461 C454 0.930 . S
C462 C463 1.351 . S
C462 N465 1.368 . S
C462 H467 0.931 . S
C463 C462 1.351 . S
C463 N464 1.373 . S
C463 H491 0.930 . S
N464 C463 1.373 . S
N464 C466 1.340 . S
N465 C462 1.368 . S
N465 C466 1.321 . S
N465 Co468 2.135 . S
C466 N464 1.340 . S
C466 N465 1.321 . S
C466 H490 0.930 . S
H467 C462 0.931 . S
Co468 N465 2.135 . S
Co468 N471 2.121 . S
Co468 O476 2.055 . S
Co468 O479 2.039 . S
Co468 N482 2.140 . S
C469 O470 1.227 . S
C469 O479 1.265 . S
O470 C469 1.227 . S
N471 Co468 2.121 . S
N471 C473 1.375 . S
N471 C474 1.313 . S
C472 C473 1.338 . S
C472 N475 1.377 . S
C472 H492 0.930 . S
C473 N471 1.375 . S
C473 C472 1.338 . S
C473 H477 0.931 . S
C474 N471 1.313 . S
C474 N475 1.344 . S
C474 H478 0.930 . S
N475 C472 1.377 . S
N475 C474 1.344 . S
O476 Co468 2.055 . S
O476 C480 1.253 . S
H477 C473 0.931 . S
H478 C474 0.930 . S
O479 Co468 2.039 . S
O479 C469 1.265 . S
C480 O476 1.253 . S
C480 O481 1.227 . S
O481 C480 1.227 . S
N482 Co468 2.140 . S
N482 C485 1.346 . S
N482 C486 1.345 . S
C483 C484 1.387 . S
C483 C487 1.391 . S
C484 C483 1.387 . S
C484 C485 1.369 . S
C484 H493 0.929 . S
C485 N482 1.346 . S
C485 C484 1.369 . S
C485 H488 0.928 . S
C486 N482 1.345 . S
C486 C487 1.371 . S
C486 H489 0.931 . S
C487 C483 1.391 . S
C487 C486 1.371 . S
C487 H494 0.930 . S
H488 C485 0.928 . S
H489 C486 0.931 . S
H490 C466 0.930 . S
H491 C463 0.930 . S
H492 C472 0.930 . S
H493 C484 0.929 . S
H494 C487 0.930 . S
C495 C496 1.351 . S
C495 N498 1.368 . S
C495 H500 0.931 . S
C496 C495 1.351 . S
C496 N497 1.373 . S
C496 H524 0.930 . S
N497 C496 1.373 . S
N497 C499 1.340 . S
N498 C495 1.368 . S
N498 C499 1.321 . S
N498 Co501 2.135 . S
C499 N497 1.340 . S
C499 N498 1.321 . S
C499 H523 0.930 . S
H500 C495 0.931 . S
Co501 N498 2.135 . S
Co501 N504 2.121 . S
Co501 O509 2.055 . S
Co501 O512 2.039 . S
Co501 N515 2.140 . S
C502 O503 1.227 . S
C502 O512 1.265 . S
O503 C502 1.227 . S
N504 Co501 2.121 . S
N504 C506 1.375 . S
N504 C507 1.313 . S
C505 C506 1.338 . S
C505 N508 1.377 . S
C505 H525 0.930 . S
C506 N504 1.375 . S
C506 C505 1.338 . S
C506 H510 0.931 . S
C507 N504 1.313 . S
C507 N508 1.344 . S
C507 H511 0.930 . S
N508 C505 1.377 . S
N508 C507 1.344 . S
O509 Co501 2.055 . S
O509 C513 1.253 . S
H510 C506 0.931 . S
H511 C507 0.930 . S
O512 Co501 2.039 . S
O512 C502 1.265 . S
C513 O509 1.253 . S
C513 O514 1.227 . S
O514 C513 1.227 . S
N515 Co501 2.140 . S
N515 C518 1.346 . S
N515 C519 1.345 . S
C516 C517 1.387 . S
C516 C520 1.391 . S
C517 C516 1.387 . S
C517 C518 1.369 . S
C517 H526 0.929 . S
C518 N515 1.346 . S
C518 C517 1.369 . S
C518 H521 0.928 . S
C519 N515 1.345 . S
C519 C520 1.371 . S
C519 H522 0.931 . S
C520 C516 1.391 . S
C520 C519 1.371 . S
C520 H527 0.930 . S
H521 C518 0.928 . S
H522 C519 0.931 . S
H523 C499 0.930 . S
H524 C496 0.930 . S
H525 C505 0.930 . S
H526 C517 0.929 . S
H527 C520 0.930 . S
C528 C529 1.369 . S
C528 C530 1.419 . S
C528 H532 0.930 . S
C529 C528 1.369 . S
C529 C538 1.429 . S
C530 C528 1.419 . S
C530 C531 1.363 . S
C530 H533 0.929 . S
C531 C530 1.363 . S
C531 C537 1.428 . S
H532 C528 0.930 . S
H533 C530 0.929 . S
S534 N535 1.613 . S
S534 N536 1.610 . S
N535 S534 1.613 . S
N535 C538 1.350 . S
N536 S534 1.610 . S
N536 C537 1.351 . S
C537 C531 1.428 . S
C537 N536 1.351 . S
C537 C538 1.434 . S
C538 C529 1.429 . S
C538 N535 1.350 . S
C538 C537 1.434 . S
C539 C540 1.369 . S
C539 C541 1.419 . S
C539 H543 0.930 . S
C540 C539 1.369 . S
C540 C549 1.429 . S
C541 C539 1.419 . S
C541 C542 1.363 . S
C541 H544 0.929 . S
C542 C541 1.363 . S
C542 C548 1.428 . S
H543 C539 0.930 . S
H544 C541 0.929 . S
S545 N546 1.613 1_565 S
S545 N547 1.610 . S
N546 S545 1.613 1_545 S
N546 C549 1.350 . S
N547 S545 1.610 . S
N547 C548 1.351 1_565 S
C548 C542 1.428 . S
C548 N547 1.351 1_545 S
C548 C549 1.434 . S
C549 C540 1.429 . S
C549 N546 1.350 . S
C549 C548 1.434 . S
C550 C551 1.369 . S
C550 C552 1.419 . S
C550 H554 0.930 . S
C551 C550 1.369 . S
C551 C560 1.429 . S
C552 C550 1.419 . S
C552 C553 1.363 . S
C552 H555 0.929 . S
C553 C552 1.363 . S
C553 C559 1.428 . S
H554 C550 0.930 . S
H555 C552 0.929 . S
S556 N557 1.613 . S
S556 N558 1.610 . S
N557 S556 1.613 . S
N557 C560 1.350 . S
N558 S556 1.610 . S
N558 C559 1.351 . S
C559 C553 1.428 . S
C559 N558 1.351 . S
C559 C560 1.434 . S
C560 C551 1.429 . S
C560 N557 1.350 . S
C560 C559 1.434 . S
C561 C562 1.369 . S
C561 C563 1.419 . S
C561 H565 0.930 . S
C562 C561 1.369 . S
C562 C571 1.429 . S
C563 C561 1.419 . S
C563 C564 1.363 . S
C563 H566 0.929 . S
C564 C563 1.363 . S
C564 C570 1.428 . S
H565 C561 0.930 . S
H566 C563 0.929 . S
S567 N568 1.613 . S
S567 N569 1.610 . S
N568 S567 1.613 . S
N568 C571 1.350 . S
N569 S567 1.610 . S
N569 C570 1.351 . S
C570 C564 1.428 . S
C570 N569 1.351 . S
C570 C571 1.434 . S
C571 C562 1.429 . S
C571 N568 1.350 . S
C571 C570 1.434 . S
C572 C573 1.369 . S
C572 C574 1.419 1_556 S
C572 H576 0.930 . S
C573 C572 1.369 . S
C573 C582 1.429 . S
C574 C572 1.419 1_554 S
C574 C575 1.363 . S
C574 H577 0.929 . S
C575 C574 1.363 . S
C575 C581 1.428 . S
H576 C572 0.930 . S
H577 C574 0.929 . S
S578 N579 1.613 1_554 S
S578 N580 1.610 . S
N579 S578 1.613 1_556 S
N579 C582 1.350 . S
N580 S578 1.610 . S
N580 C581 1.351 . S
C581 C575 1.428 . S
C581 N580 1.351 . S
C581 C582 1.434 1_554 S
C582 C573 1.429 . S
C582 N579 1.350 . S
C582 C581 1.434 1_556 S
C583 C584 1.369 . S
C583 C585 1.419 1_556 S
C583 H587 0.930 . S
C584 C583 1.369 . S
C584 C593 1.429 . S
C585 C583 1.419 1_554 S
C585 C586 1.363 . S
C585 H588 0.929 . S
C586 C585 1.363 . S
C586 C592 1.428 . S
H587 C583 0.930 . S
H588 C585 0.929 . S
S589 N590 1.613 1_554 S
S589 N591 1.610 . S
N590 S589 1.613 1_556 S
N590 C593 1.350 . S
N591 S589 1.610 . S
N591 C592 1.351 . S
C592 C586 1.428 . S
C592 N591 1.351 . S
C592 C593 1.434 1_554 S
C593 C584 1.429 . S
C593 N590 1.350 . S
C593 C592 1.434 1_556 S
C594 C595 1.369 . S
C594 C596 1.419 1_556 S
C594 H598 0.930 . S
C595 C594 1.369 . S
C595 C604 1.429 . S
C596 C594 1.419 1_554 S
C596 C597 1.363 . S
C596 H599 0.929 . S
C597 C596 1.363 . S
C597 C603 1.428 . S
H598 C594 0.930 . S
H599 C596 0.929 . S
S600 N601 1.613 . S
S600 N602 1.610 1_556 S
N601 S600 1.613 . S
N601 C604 1.350 . S
N602 S600 1.610 1_554 S
N602 C603 1.351 . S
C603 C597 1.428 . S
C603 N602 1.351 . S
C603 C604 1.434 1_554 S
C604 C595 1.429 . S
C604 N601 1.350 . S
C604 C603 1.434 1_556 S
C605 C606 1.369 . S
C605 C607 1.419 1_554 S
C605 H609 0.930 . S
C606 C605 1.369 . S
C606 C615 1.429 . S
C607 C605 1.419 1_556 S
C607 C608 1.363 . S
C607 H610 0.929 . S
C608 C607 1.363 . S
C608 C614 1.428 . S
H609 C605 0.930 . S
H610 C607 0.929 . S
S611 N612 1.613 1_556 S
S611 N613 1.610 . S
N612 S611 1.613 1_554 S
N612 C615 1.350 . S
N613 S611 1.610 . S
N613 C614 1.351 . S
C614 C608 1.428 . S
C614 N613 1.351 . S
C614 C615 1.434 1_556 S
C615 C606 1.429 . S
C615 N612 1.350 . S
C615 C614 1.434 1_554 S
C616 C617 1.369 . S
C616 C618 1.419 . S
C616 H620 0.930 . S
C617 C616 1.369 . S
C617 C626 1.429 . S
C618 C616 1.419 . S
C618 C619 1.363 . S
C618 H621 0.929 . S
C619 C618 1.363 . S
C619 C625 1.428 . S
H620 C616 0.930 . S
H621 C618 0.929 . S
S622 N623 1.613 . S
S622 N624 1.610 . S
N623 S622 1.613 . S
N623 C626 1.350 . S
N624 S622 1.610 . S
N624 C625 1.351 . S
C625 C619 1.428 . S
C625 N624 1.351 . S
C625 C626 1.434 . S
C626 C617 1.429 . S
C626 N623 1.350 . S
C626 C625 1.434 . S
C627 C628 1.369 . S
C627 C629 1.419 . S
C627 H631 0.930 . S
C628 C627 1.369 . S
C628 C637 1.429 . S
C629 C627 1.419 . S
C629 C630 1.363 . S
C629 H632 0.929 . S
C630 C629 1.363 . S
C630 C636 1.428 . S
H631 C627 0.930 . S
H632 C629 0.929 . S
S633 N634 1.613 . S
S633 N635 1.610 . S
N634 S633 1.613 . S
N634 C637 1.350 . S
N635 S633 1.610 . S
N635 C636 1.351 . S
C636 C630 1.428 . S
C636 N635 1.351 . S
C636 C637 1.434 . S
C637 C628 1.429 . S
C637 N634 1.350 . S
C637 C636 1.434 . S
C638 C639 1.369 . S
C638 C640 1.419 . S
C638 H642 0.930 . S
C639 C638 1.369 . S
C639 C648 1.429 . S
C640 C638 1.419 . S
C640 C641 1.363 . S
C640 H643 0.929 1_655 S
C641 C640 1.363 . S
C641 C647 1.428 . S
H642 C638 0.930 . S
H643 C640 0.929 1_455 S
S644 N645 1.613 . S
S644 N646 1.610 . S
N645 S644 1.613 . S
N645 C648 1.350 . S
N646 S644 1.610 . S
N646 C647 1.351 . S
C647 C641 1.428 . S
C647 N646 1.351 . S
C647 C648 1.434 . S
C648 C639 1.429 . S
C648 N645 1.350 . S
C648 C647 1.434 . S
C649 C650 1.369 . S
C649 C651 1.419 . S
C649 H653 0.930 1_565 S
C650 C649 1.369 . S
C650 C659 1.429 . S
C651 C649 1.419 . S
C651 C652 1.363 . S
C651 H654 0.929 . S
C652 C651 1.363 . S
C652 C658 1.428 . S
H653 C649 0.930 1_545 S
H654 C651 0.929 . S
S655 N656 1.613 . S
S655 N657 1.610 . S
N656 S655 1.613 . S
N656 C659 1.350 . S
N657 S655 1.610 . S
N657 C658 1.351 . S
C658 C652 1.428 . S
C658 N657 1.351 . S
C658 C659 1.434 . S
C659 C650 1.429 . S
C659 N656 1.350 . S
C659 C658 1.434 . S
C660 C661 1.369 . S
C660 C662 1.419 . S
C660 H664 0.930 . S
C661 C660 1.369 . S
C661 C670 1.429 . S
C662 C660 1.419 . S
C662 C663 1.363 . S
C662 H665 0.929 . S
C663 C662 1.363 . S
C663 C669 1.428 . S
H664 C660 0.930 . S
H665 C662 0.929 . S
S666 N667 1.613 . S
S666 N668 1.610 . S
N667 S666 1.613 . S
N667 C670 1.350 . S
N668 S666 1.610 . S
N668 C669 1.351 . S
C669 C663 1.428 . S
C669 N668 1.351 . S
C669 C670 1.434 . S
C670 C661 1.429 . S
C670 N667 1.350 . S
C670 C669 1.434 . S
C671 C672 1.369 . S
C671 C673 1.419 . S
C671 H675 0.930 . S
C672 C671 1.369 . S
C672 C681 1.429 . S
C673 C671 1.419 . S
C673 C674 1.363 . S
C673 H676 0.929 . S
C674 C673 1.363 . S
C674 C680 1.428 . S
H675 C671 0.930 . S
H676 C673 0.929 . S
S677 N678 1.613 . S
S677 N679 1.610 . S
N678 S677 1.613 . S
N678 C681 1.350 . S
N679 S677 1.610 . S
N679 C680 1.351 . S
C680 C674 1.428 . S
C680 N679 1.351 . S
C680 C681 1.434 . S
C681 C672 1.429 . S
C681 N678 1.350 . S
C681 C680 1.434 . S
C682 C683 1.369 . S
C682 C684 1.419 . S
C682 H686 0.930 . S
C683 C682 1.369 . S
C683 C692 1.429 . S
C684 C682 1.419 . S
C684 C685 1.363 . S
C684 H687 0.929 . S
C685 C684 1.363 . S
C685 C691 1.428 . S
H686 C682 0.930 . S
H687 C684 0.929 . S
S688 N689 1.613 1_455 S
S688 N690 1.610 . S
N689 S688 1.613 1_655 S
N689 C692 1.350 . S
N690 S688 1.610 . S
N690 C691 1.351 1_455 S
C691 C685 1.428 . S
C691 N690 1.351 1_655 S
C691 C692 1.434 . S
C692 C683 1.429 . S
C692 N689 1.350 . S
C692 C691 1.434 . S
C693 C694 1.369 . S
C693 C695 1.419 . S
C693 H697 0.930 . S
C694 C693 1.369 . S
C694 C703 1.429 . S
C695 C693 1.419 . S
C695 C696 1.363 . S
C695 H698 0.929 . S
C696 C695 1.363 . S
C696 C702 1.428 . S
H697 C693 0.930 . S
H698 C695 0.929 . S
S699 N700 1.613 . S
S699 N701 1.610 1_565 S
N700 S699 1.613 . S
N700 C703 1.350 . S
N701 S699 1.610 1_545 S
N701 C702 1.351 1_545 S
C702 C696 1.428 . S
C702 N701 1.351 1_565 S
C702 C703 1.434 . S
C703 C694 1.429 . S
C703 N700 1.350 . S
C703 C702 1.434 . S
C704 C705 1.369 . S
C704 C706 1.419 . S
C704 H708 0.930 . S
C705 C704 1.369 . S
C705 C714 1.429 . S
C706 C704 1.419 . S
C706 C707 1.363 . S
C706 H709 0.929 . S
C707 C706 1.363 . S
C707 C713 1.428 . S
H708 C704 0.930 . S
H709 C706 0.929 . S
S710 N711 1.613 . S
S710 N712 1.610 . S
N711 S710 1.613 . S
N711 C714 1.350 . S
N712 S710 1.610 . S
N712 C713 1.351 . S
C713 C707 1.428 . S
C713 N712 1.351 . S
C713 C714 1.434 . S
C714 C705 1.429 . S
C714 N711 1.350 . S
C714 C713 1.434 . S
C715 C716 1.369 . S
C715 C717 1.419 . S
C715 H719 0.930 . S
C716 C715 1.369 . S
C716 C725 1.429 . S
C717 C715 1.419 . S
C717 C718 1.363 . S
C717 H720 0.929 . S
C718 C717 1.363 . S
C718 C724 1.428 . S
H719 C715 0.930 . S
H720 C717 0.929 . S
S721 N722 1.613 . S
S721 N723 1.610 . S
N722 S721 1.613 . S
N722 C725 1.350 . S
N723 S721 1.610 . S
N723 C724 1.351 . S
C724 C718 1.428 . S
C724 N723 1.351 . S
C724 C725 1.434 . S
C725 C716 1.429 . S
C725 N722 1.350 . S
C725 C724 1.434 . S
C726 C727 1.369 . S
C726 C728 1.419 . S
C726 H730 0.930 . S
C727 C726 1.369 . S
C727 C736 1.429 . S
C728 C726 1.419 . S
C728 C729 1.363 . S
C728 H731 0.929 . S
C729 C728 1.363 . S
C729 C735 1.428 . S
H730 C726 0.930 . S
H731 C728 0.929 . S
S732 N733 1.613 . S
S732 N734 1.610 . S
N733 S732 1.613 . S
N733 C736 1.350 . S
N734 S732 1.610 . S
N734 C735 1.351 . S
C735 C729 1.428 . S
C735 N734 1.351 . S
C735 C736 1.434 . S
C736 C727 1.429 . S
C736 N733 1.350 . S
C736 C735 1.434 . S
C737 C738 1.369 . S
C737 C739 1.419 . S
C737 H741 0.930 . S
C738 C737 1.369 . S
C738 C747 1.429 . S
C739 C737 1.419 . S
C739 C740 1.363 . S
C739 H742 0.929 . S
C740 C739 1.363 . S
C740 C746 1.428 . S
H741 C737 0.930 . S
H742 C739 0.929 . S
S743 N744 1.613 . S
S743 N745 1.610 . S
N744 S743 1.613 . S
N744 C747 1.350 . S
N745 S743 1.610 . S
N745 C746 1.351 . S
C746 C740 1.428 . S
C746 N745 1.351 . S
C746 C747 1.434 . S
C747 C738 1.429 . S
C747 N744 1.350 . S
C747 C746 1.434 . S
C748 C749 1.369 . S
C748 C750 1.419 . S
C748 H752 0.930 . S
C749 C748 1.369 . S
C749 C758 1.429 . S
C750 C748 1.419 . S
C750 C751 1.363 . S
C750 H753 0.929 . S
C751 C750 1.363 . S
C751 C757 1.428 . S
H752 C748 0.930 . S
H753 C750 0.929 . S
S754 N755 1.613 . S
S754 N756 1.610 . S
N755 S754 1.613 . S
N755 C758 1.350 . S
N756 S754 1.610 . S
N756 C757 1.351 . S
C757 C751 1.428 . S
C757 N756 1.351 . S
C757 C758 1.434 . S
C758 C749 1.429 . S
C758 N755 1.350 . S
C758 C757 1.434 . S
C759 C760 1.369 . S
C759 C761 1.419 . S
C759 H763 0.930 . S
C760 C759 1.369 . S
C760 C769 1.429 . S
C761 C759 1.419 . S
C761 C762 1.363 . S
C761 H764 0.929 . S
C762 C761 1.363 . S
C762 C768 1.428 . S
H763 C759 0.930 . S
H764 C761 0.929 . S
S765 N766 1.613 . S
S765 N767 1.610 . S
N766 S765 1.613 . S
N766 C769 1.350 . S
N767 S765 1.610 . S
N767 C768 1.351 . S
C768 C762 1.428 . S
C768 N767 1.351 . S
C768 C769 1.434 . S
C769 C760 1.429 . S
C769 N766 1.350 . S
C769 C768 1.434 . S
C770 C771 1.369 . S
C770 C772 1.419 . S
C770 H774 0.930 . S
C771 C770 1.369 . S
C771 C780 1.429 . S
C772 C770 1.419 . S
C772 C773 1.363 . S
C772 H775 0.929 . S
C773 C772 1.363 . S
C773 C779 1.428 . S
H774 C770 0.930 . S
H775 C772 0.929 . S
S776 N777 1.613 . S
S776 N778 1.610 . S
N777 S776 1.613 . S
N777 C780 1.350 . S
N778 S776 1.610 . S
N778 C779 1.351 . S
C779 C773 1.428 . S
C779 N778 1.351 . S
C779 C780 1.434 . S
C780 C771 1.429 . S
C780 N777 1.350 . S
C780 C779 1.434 . S
C781 C782 1.369 . S
C781 C783 1.419 . S
C781 H785 0.930 . S
C782 C781 1.369 . S
C782 C791 1.429 . S
C783 C781 1.419 . S
C783 C784 1.363 . S
C783 H786 0.929 . S
C784 C783 1.363 . S
C784 C790 1.428 . S
H785 C781 0.930 . S
H786 C783 0.929 . S
S787 N788 1.613 . S
S787 N789 1.610 . S
N788 S787 1.613 . S
N788 C791 1.350 . S
N789 S787 1.610 . S
N789 C790 1.351 . S
C790 C784 1.428 . S
C790 N789 1.351 . S
C790 C791 1.434 . S
C791 C782 1.429 . S
C791 N788 1.350 . S
C791 C790 1.434 . S
C792 C793 1.369 . S
C792 C794 1.419 . S
C792 H796 0.930 . S
C793 C792 1.369 . S
C793 C802 1.429 . S
C794 C792 1.419 . S
C794 C795 1.363 . S
C794 H797 0.929 . S
C795 C794 1.363 . S
C795 C801 1.428 . S
H796 C792 0.930 . S
H797 C794 0.929 . S
S798 N799 1.613 . S
S798 N800 1.610 . S
N799 S798 1.613 . S
N799 C802 1.350 . S
N800 S798 1.610 . S
N800 C801 1.351 . S
C801 C795 1.428 . S
C801 N800 1.351 . S
C801 C802 1.434 . S
C802 C793 1.429 . S
C802 N799 1.350 . S
C802 C801 1.434 . S
C803 C804 1.369 . S
C803 C805 1.419 . S
C803 H807 0.930 . S
C804 C803 1.369 . S
C804 C813 1.429 . S
C805 C803 1.419 . S
C805 C806 1.363 . S
C805 H808 0.929 . S
C806 C805 1.363 . S
C806 C812 1.428 . S
H807 C803 0.930 . S
H808 C805 0.929 . S
S809 N810 1.613 . S
S809 N811 1.610 . S
N810 S809 1.613 . S
N810 C813 1.350 . S
N811 S809 1.610 . S
N811 C812 1.351 . S
C812 C806 1.428 . S
C812 N811 1.351 . S
C812 C813 1.434 . S
C813 C804 1.429 . S
C813 N810 1.350 . S
C813 C812 1.434 . S
C814 C815 1.369 . S
C814 C816 1.419 . S
C814 H818 0.930 . S
C815 C814 1.369 . S
C815 C824 1.429 . S
C816 C814 1.419 . S
C816 C817 1.363 . S
C816 H819 0.929 . S
C817 C816 1.363 . S
C817 C823 1.428 . S
H818 C814 0.930 . S
H819 C816 0.929 . S
S820 N821 1.613 1_455 S
S820 N822 1.610 . S
N821 S820 1.613 1_655 S
N821 C824 1.350 . S
N822 S820 1.610 . S
N822 C823 1.351 1_455 S
C823 C817 1.428 . S
C823 N822 1.351 1_655 S
C823 C824 1.434 . S
C824 C815 1.429 . S
C824 N821 1.350 . S
C824 C823 1.434 . S
C825 C826 1.369 . S
C825 C827 1.419 . S
C825 H829 0.930 1_565 S
C826 C825 1.369 . S
C826 C835 1.429 . S
C827 C825 1.419 . S
C827 C828 1.363 . S
C827 H830 0.929 . S
C828 C827 1.363 . S
C828 C834 1.428 . S
H829 C825 0.930 1_545 S
H830 C827 0.929 . S
S831 N832 1.613 . S
S831 N833 1.610 . S
N832 S831 1.613 . S
N832 C835 1.350 . S
N833 S831 1.610 . S
N833 C834 1.351 . S
C834 C828 1.428 . S
C834 N833 1.351 . S
C834 C835 1.434 . S
C835 C826 1.429 . S
C835 N832 1.350 . S
C835 C834 1.434 . S
C836 C837 1.369 . S
C836 C838 1.419 . S
C836 H840 0.930 . S
C837 C836 1.369 . S
C837 C846 1.429 . S
C838 C836 1.419 . S
C838 C839 1.363 . S
C838 H841 0.929 . S
C839 C838 1.363 . S
C839 C845 1.428 . S
H840 C836 0.930 . S
H841 C838 0.929 . S
S842 N843 1.613 . S
S842 N844 1.610 . S
N843 S842 1.613 . S
N843 C846 1.350 . S
N844 S842 1.610 . S
N844 C845 1.351 . S
C845 C839 1.428 . S
C845 N844 1.351 . S
C845 C846 1.434 . S
C846 C837 1.429 . S
C846 N843 1.350 . S
C846 C845 1.434 . S
C847 C848 1.369 . S
C847 C849 1.419 . S
C847 H851 0.930 . S
C848 C847 1.369 . S
C848 C857 1.429 . S
C849 C847 1.419 . S
C849 C850 1.363 . S
C849 H852 0.929 . S
C850 C849 1.363 . S
C850 C856 1.428 . S
H851 C847 0.930 . S
H852 C849 0.929 . S
S853 N854 1.613 . S
S853 N855 1.610 . S
N854 S853 1.613 . S
N854 C857 1.350 . S
N855 S853 1.610 . S
N855 C856 1.351 . S
C856 C850 1.428 . S
C856 N855 1.351 . S
C856 C857 1.434 . S
C857 C848 1.429 . S
C857 N854 1.350 . S
C857 C856 1.434 . S
C858 C859 1.369 . S
C858 C860 1.419 . S
C858 H862 0.930 1_655 S
C859 C858 1.369 . S
C859 C868 1.429 . S
C860 C858 1.419 . S
C860 C861 1.363 . S
C860 H863 0.929 . S
C861 C860 1.363 . S
C861 C867 1.428 . S
H862 C858 0.930 1_455 S
H863 C860 0.929 . S
S864 N865 1.613 . S
S864 N866 1.610 . S
N865 S864 1.613 . S
N865 C868 1.350 . S
N866 S864 1.610 . S
N866 C867 1.351 . S
C867 C861 1.428 . S
C867 N866 1.351 . S
C867 C868 1.434 . S
C868 C859 1.429 . S
C868 N865 1.350 . S
C868 C867 1.434 . S
C869 C870 1.369 . S
C869 C871 1.419 . S
C869 H873 0.930 . S
C870 C869 1.369 . S
C870 C879 1.429 . S
C871 C869 1.419 . S
C871 C872 1.363 . S
C871 H874 0.929 . S
C872 C871 1.363 . S
C872 C878 1.428 . S
H873 C869 0.930 . S
H874 C871 0.929 . S
S875 N876 1.613 1_545 S
S875 N877 1.610 . S
N876 S875 1.613 1_565 S
N876 C879 1.350 . S
N877 S875 1.610 . S
N877 C878 1.351 1_545 S
C878 C872 1.428 . S
C878 N877 1.351 1_565 S
C878 C879 1.434 . S
C879 C870 1.429 . S
C879 N876 1.350 . S
C879 C878 1.434 . S
C880 C881 1.369 . S
C880 C882 1.419 . S
C880 H884 0.930 . S
C881 C880 1.369 . S
C881 C890 1.429 . S
C882 C880 1.419 . S
C882 C883 1.363 . S
C882 H885 0.929 . S
C883 C882 1.363 . S
C883 C889 1.428 . S
H884 C880 0.930 . S
H885 C882 0.929 . S
S886 N887 1.613 . S
S886 N888 1.610 . S
N887 S886 1.613 . S
N887 C890 1.350 . S
N888 S886 1.610 . S
N888 C889 1.351 . S
C889 C883 1.428 . S
C889 N888 1.351 . S
C889 C890 1.434 . S
C890 C881 1.429 . S
C890 N887 1.350 . S
C890 C889 1.434 . S
C891 C892 1.369 . S
C891 C893 1.419 . S
C891 H895 0.930 . S
C892 C891 1.369 . S
C892 C901 1.429 . S
C893 C891 1.419 . S
C893 C894 1.363 . S
C893 H896 0.929 . S
C894 C893 1.363 . S
C894 C900 1.428 . S
H895 C891 0.930 . S
H896 C893 0.929 . S
S897 N898 1.613 . S
S897 N899 1.610 . S
N898 S897 1.613 . S
N898 C901 1.350 . S
N899 S897 1.610 . S
N899 C900 1.351 . S
C900 C894 1.428 . S
C900 N899 1.351 . S
C900 C901 1.434 . S
C901 C892 1.429 . S
C901 N898 1.350 . S
C901 C900 1.434 . S
C902 C903 1.369 . S
C902 C904 1.419 . S
C902 H906 0.930 . S
C903 C902 1.369 . S
C903 C912 1.429 . S
C904 C902 1.419 . S
C904 C905 1.363 . S
C904 H907 0.929 . S
C905 C904 1.363 . S
C905 C911 1.428 . S
H906 C902 0.930 . S
H907 C904 0.929 . S
S908 N909 1.613 . S
S908 N910 1.610 . S
N909 S908 1.613 . S
N909 C912 1.350 . S
N910 S908 1.610 . S
N910 C911 1.351 . S
C911 C905 1.428 . S
C911 N910 1.351 . S
C911 C912 1.434 . S
C912 C903 1.429 . S
C912 N909 1.350 . S
C912 C911 1.434 . S
C913 C914 1.369 . S
C913 C915 1.419 . S
C913 H917 0.930 . S
C914 C913 1.369 . S
C914 C923 1.429 . S
C915 C913 1.419 . S
C915 C916 1.363 . S
C915 H918 0.929 . S
C916 C915 1.363 . S
C916 C922 1.428 . S
H917 C913 0.930 . S
H918 C915 0.929 . S
S919 N920 1.613 . S
S919 N921 1.610 . S
N920 S919 1.613 . S
N920 C923 1.350 . S
N921 S919 1.610 . S
N921 C922 1.351 . S
C922 C916 1.428 . S
C922 N921 1.351 . S
C922 C923 1.434 . S
C923 C914 1.429 . S
C923 N920 1.350 . S
C923 C922 1.434 . S
C924 C925 1.369 . S
C924 C926 1.419 . S
C924 H928 0.930 . S
C925 C924 1.369 . S
C925 C934 1.429 . S
C926 C924 1.419 . S
C926 C927 1.363 . S
C926 H929 0.929 . S
C927 C926 1.363 . S
C927 C933 1.428 . S
H928 C924 0.930 . S
H929 C926 0.929 . S
S930 N931 1.613 . S
S930 N932 1.610 . S
N931 S930 1.613 . S
N931 C934 1.350 . S
N932 S930 1.610 . S
N932 C933 1.351 . S
C933 C927 1.428 . S
C933 N932 1.351 . S
C933 C934 1.434 . S
C934 C925 1.429 . S
C934 N931 1.350 . S
C934 C933 1.434 . S
C935 C936 1.369 . S
C935 C937 1.419 . S
C935 H939 0.930 . S
C936 C935 1.369 . S
C936 C945 1.429 . S
C937 C935 1.419 . S
C937 C938 1.363 . S
C937 H940 0.929 . S
C938 C937 1.363 . S
C938 C944 1.428 . S
H939 C935 0.930 . S
H940 C937 0.929 . S
S941 N942 1.613 . S
S941 N943 1.610 . S
N942 S941 1.613 . S
N942 C945 1.350 . S
N943 S941 1.610 . S
N943 C944 1.351 . S
C944 C938 1.428 . S
C944 N943 1.351 . S
C944 C945 1.434 . S
C945 C936 1.429 . S
C945 N942 1.350 . S
C945 C944 1.434 . S
C946 C947 1.369 . S
C946 C948 1.419 . S
C946 H950 0.930 . S
C947 C946 1.369 . S
C947 C956 1.429 . S
C948 C946 1.419 . S
C948 C949 1.363 . S
C948 H951 0.929 . S
C949 C948 1.363 . S
C949 C955 1.428 . S
H950 C946 0.930 . S
H951 C948 0.929 . S
S952 N953 1.613 . S
S952 N954 1.610 . S
N953 S952 1.613 . S
N953 C956 1.350 . S
N954 S952 1.610 . S
N954 C955 1.351 . S
C955 C949 1.428 . S
C955 N954 1.351 . S
C955 C956 1.434 . S
C956 C947 1.429 . S
C956 N953 1.350 . S
C956 C955 1.434 . S
C957 C958 1.369 . S
C957 C959 1.419 . S
C957 H961 0.930 . S
C958 C957 1.369 . S
C958 C967 1.429 . S
C959 C957 1.419 . S
C959 C960 1.363 . S
C959 H962 0.929 . S
C960 C959 1.363 . S
C960 C966 1.428 . S
H961 C957 0.930 . S
H962 C959 0.929 . S
S963 N964 1.613 . S
S963 N965 1.610 . S
N964 S963 1.613 . S
N964 C967 1.350 . S
N965 S963 1.610 . S
N965 C966 1.351 . S
C966 C960 1.428 . S
C966 N965 1.351 . S
C966 C967 1.434 . S
C967 C958 1.429 . S
C967 N964 1.350 . S
C967 C966 1.434 . S
C529 C21 1.533 . S
C531 C219 1.533 . S
C540 C252 1.530 . S
C542 C54 1.534 . S
C551 C153 1.530 . S
C553 C87 1.534 . S
C562 C186 1.531 . S
C564 C120 1.534 . S
C573 C285 1.535 . S
C575 C483 1.530 . S
C584 C318 1.534 . S
C586 C516 1.530 . S
C595 C351 1.530 . S
C597 C417 1.531 . S
C606 C450 1.533 . S
C608 C384 1.529 . S
C617 C7 1.489 . S
C619 N101 1.502 . S
C628 C40 1.483 . S
C630 N2 1.507 . S
C639 N35 1.499 . S
C641 C73 1.486 1_655 S
C650 C106 1.482 1_565 S
C652 N68 1.502 . S
C661 N167 1.500 . S
C663 C139 1.488 . S
C672 N200 1.508 . S
C674 C172 1.482 . S
C683 N233 1.504 . S
C685 C205 1.486 1_655 S
C694 N134 1.502 . S
C696 C238 1.487 1_565 S
C705 C271 1.482 . S
C707 N365 1.507 . S
C716 N266 1.509 . S
C718 C304 1.478 . S
C727 C337 1.479 . S
C729 N299 1.504 . S
C738 C370 1.479 . S
C740 N332 1.504 . S
C749 C403 1.477 . S
C751 N431 1.508 . S
C760 C436 1.489 . S
C762 N464 1.501 . S
C771 C469 1.477 . S
C773 N497 1.507 . S
C782 N398 1.510 . S
C784 C502 1.479 . S
C793 N508 1.286 . S
C795 N13 1.281 . S
C804 N46 1.277 . S
C806 N409 1.281 . S
C815 N442 1.289 . S
C817 N79 1.286 . S
C826 N112 1.282 . S
C828 N475 1.279 . S
C837 N310 1.288 . S
C839 N145 1.287 . S
C848 N178 1.278 . S
C850 N343 1.280 . S
C859 N211 1.281 . S
C861 N376 1.279 . S
C870 N277 1.289 . S
C872 N244 1.286 . S
C881 C150 1.619 . S
C883 C381 1.618 . S
C892 C183 1.615 . S
C894 C282 1.622 . S
C903 C216 1.623 . S
C905 C315 1.616 . S
C914 C348 1.615 . S
C916 C249 1.622 . S
C925 C18 1.620 . S
C927 C447 1.617 . S
C936 C480 1.620 . S
C938 C51 1.617 . S
C947 C84 1.615 . S
C949 C513 1.622 . S
C958 C117 1.622 . S
C960 C414 1.617 . S
