# Generated by pormake.
# Topology mon, (4)-cn, num edge types: 1
# Building blocks:
#     Node 0, Type 0, BuildingBlock: NAHDIM_clean_sbu_0, # of connection points: 4
#     Node 1, Type 0, BuildingBlock: NAHDIM_clean_sbu_0, # of connection points: 4
#     Node 2, Type 0, BuildingBlock: NAHDIM_clean_sbu_0, # of connection points: 4
#     Node 3, Type 0, BuildingBlock: NAHDIM_clean_sbu_0, # of connection points: 4
#     Node 4, Type 0, BuildingBlock: NAHDIM_clean_sbu_0, # of connection points: 4
#     Node 5, Type 0, BuildingBlock: NAHDIM_clean_sbu_0, # of connection points: 4
#     Node 6, Type 0, BuildingBlock: NAHDIM_clean_sbu_0, # of connection points: 4
#     Node 7, Type 0, BuildingBlock: NAHDIM_clean_sbu_0, # of connection points: 4
#     Node 8, Type 0, BuildingBlock: NAHDIM_clean_sbu_0, # of connection points: 4
#     Node 9, Type 0, BuildingBlock: NAHDIM_clean_sbu_0, # of connection points: 4
#     Node 10, Type 0, BuildingBlock: NAHDIM_clean_sbu_0, # of connection points: 4
#     Node 11, Type 0, BuildingBlock: NAHDIM_clean_sbu_0, # of connection points: 4
#     Node 12, Type 0, BuildingBlock: NAHDIM_clean_sbu_0, # of connection points: 4
#     Node 13, Type 0, BuildingBlock: NAHDIM_clean_sbu_0, # of connection points: 4
#     Node 14, Type 0, BuildingBlock: NAHDIM_clean_sbu_0, # of connection points: 4
#     Node 15, Type 0, BuildingBlock: NAHDIM_clean_sbu_0, # of connection points: 4
#     Edge 16, Type (0, 0), BuildingBlock: CIFDUS_clean_linker_0, # of connection points: 2
#     Edge 17, Type (0, 0), BuildingBlock: CIFDUS_clean_linker_0, # of connection points: 2
#     Edge 18, Type (0, 0), BuildingBlock: CIFDUS_clean_linker_0, # of connection points: 2
#     Edge 19, Type (0, 0), BuildingBlock: CIFDUS_clean_linker_0, # of connection points: 2
#     Edge 20, Type (0, 0), BuildingBlock: CIFDUS_clean_linker_0, # of connection points: 2
#     Edge 21, Type (0, 0), BuildingBlock: CIFDUS_clean_linker_0, # of connection points: 2
#     Edge 22, Type (0, 0), BuildingBlock: CIFDUS_clean_linker_0, # of connection points: 2
#     Edge 23, Type (0, 0), BuildingBlock: CIFDUS_clean_linker_0, # of connection points: 2
#     Edge 24, Type (0, 0), BuildingBlock: CIFDUS_clean_linker_0, # of connection points: 2
#     Edge 25, Type (0, 0), BuildingBlock: CIFDUS_clean_linker_0, # of connection points: 2
#     Edge 26, Type (0, 0), BuildingBlock: CIFDUS_clean_linker_0, # of connection points: 2
#     Edge 27, Type (0, 0), BuildingBlock: CIFDUS_clean_linker_0, # of connection points: 2
#     Edge 28, Type (0, 0), BuildingBlock: CIFDUS_clean_linker_0, # of connection points: 2
#     Edge 29, Type (0, 0), BuildingBlock: CIFDUS_clean_linker_0, # of connection points: 2
#     Edge 30, Type (0, 0), BuildingBlock: CIFDUS_clean_linker_0, # of connection points: 2
#     Edge 31, Type (0, 0), BuildingBlock: CIFDUS_clean_linker_0, # of connection points: 2
#     Edge 32, Type (0, 0), BuildingBlock: CIFDUS_clean_linker_0, # of connection points: 2
#     Edge 33, Type (0, 0), BuildingBlock: CIFDUS_clean_linker_0, # of connection points: 2
#     Edge 34, Type (0, 0), BuildingBlock: CIFDUS_clean_linker_0, # of connection points: 2
#     Edge 35, Type (0, 0), BuildingBlock: CIFDUS_clean_linker_0, # of connection points: 2
#     Edge 36, Type (0, 0), BuildingBlock: CIFDUS_clean_linker_0, # of connection points: 2
#     Edge 37, Type (0, 0), BuildingBlock: CIFDUS_clean_linker_0, # of connection points: 2
#     Edge 38, Type (0, 0), BuildingBlock: CIFDUS_clean_linker_0, # of connection points: 2
#     Edge 39, Type (0, 0), BuildingBlock: CIFDUS_clean_linker_0, # of connection points: 2
#     Edge 40, Type (0, 0), BuildingBlock: CIFDUS_clean_linker_0, # of connection points: 2
#     Edge 41, Type (0, 0), BuildingBlock: CIFDUS_clean_linker_0, # of connection points: 2
#     Edge 42, Type (0, 0), BuildingBlock: CIFDUS_clean_linker_0, # of connection points: 2
#     Edge 43, Type (0, 0), BuildingBlock: CIFDUS_clean_linker_0, # of connection points: 2
#     Edge 44, Type (0, 0), BuildingBlock: CIFDUS_clean_linker_0, # of connection points: 2
#     Edge 45, Type (0, 0), BuildingBlock: CIFDUS_clean_linker_0, # of connection points: 2
#     Edge 46, Type (0, 0), BuildingBlock: CIFDUS_clean_linker_0, # of connection points: 2
#     Edge 47, Type (0, 0), BuildingBlock: CIFDUS_clean_linker_0, # of connection points: 2
# Relax obj value: 0.124
# Max RMSD: 0.121
# Mean RMSD: 0.121
data_MOF--net-mon--node1-NAHDIM_clean_sbu_0--edge1-CIFDUS_clean_linker_0
_symmetry_space_group_name_H-M    P1
_symmetry_Int_Tables_number       1
_symmetry_cell_setting            triclinic
loop_
_symmetry_equiv_pos_as_xyz
'x, y, z'
_cell_length_a     30.54417
_cell_length_b     30.568624
_cell_length_c     70.963539
_cell_angle_alpha  89.954092
_cell_angle_beta   90.04949
_cell_angle_gamma 90.08634
loop_
_atom_site_label
_atom_site_type_symbol
_atom_site_fract_x
_atom_site_fract_y
_atom_site_fract_z
_atom_type_partial_charge
C0 C 0.96326 0.10691 0.60035 0.0
O1 O 0.92441 0.08912 0.59816 0.0
O2 O 0.93681 0.99342 0.60195 0.0
Zn3 Zn 0.99307 0.01939 0.5921 0.0
O4 O -0.00371 0.01374 0.56388 0.0
C5 C 0.03953 0.97333 0.62081 0.0
O6 O 0.00444 0.98426 0.6304 0.0
O7 O -0.00285 0.0831 0.59879 0.0
C8 C 0.00177 0.9769 0.55595 0.0
O9 O 0.00535 0.94164 0.56644 0.0
C10 C 0.90586 0.97913 0.59166 0.0
O11 O 0.90874 0.98265 0.57326 0.0
O12 O 0.04304 0.98596 0.60381 0.0
C13 C 0.15271 0.70593 0.83603 0.0
O14 O 0.16829 0.66839 0.83004 0.0
O15 O 0.2568 0.66569 0.84566 0.0
Zn16 Zn 0.24272 0.72487 0.83491 0.0
O17 O 0.25513 0.72834 0.80705 0.0
C18 C 0.32172 0.75773 0.84927 0.0
O19 O 0.33476 0.72176 0.84086 0.0
O20 O 0.17916 0.73712 0.83933 0.0
C21 C 0.26344 0.76569 0.8 0.0
O22 O 0.26374 0.80009 0.81109 0.0
C23 C 0.27603 0.63521 0.8368 0.0
O24 O 0.28594 0.64082 0.81894 0.0
O25 O 0.28137 0.76781 0.84863 0.0
C26 C 0.52359 0.87639 0.10728 0.0
O27 O 0.56391 0.88827 0.10331 0.0
O28 O 0.56662 0.98368 0.11255 0.0
Zn29 Zn 0.50883 0.96697 0.10109 0.0
O30 O 0.50897 0.97235 0.0728 0.0
C31 C 0.45911 0.04512 0.10485 0.0
O32 O 0.48454 0.05706 0.09083 0.0
O33 O 0.49378 0.90523 0.10763 0.0
C34 C 0.47274 0.96549 0.06448 0.0
O35 O 0.43822 0.95544 0.07465 0.0
C36 C 0.59906 -0.00209 0.10317 0.0
O37 O 0.59601 0.00086 0.08475 0.0
O38 O 0.46323 0.00699 0.11174 0.0
C39 C 0.38471 0.26825 0.35287 0.0
O40 O 0.36796 0.30696 0.34934 0.0
O41 O 0.27858 0.30282 0.36149 0.0
Zn42 Zn 0.2962 0.24811 0.34758 0.0
O43 O 0.29031 0.25661 0.31938 0.0
C44 C 0.21459 0.21207 0.35542 0.0
O45 O 0.20515 0.25108 0.34878 0.0
O46 O 0.35937 0.23522 0.3533 0.0
C47 C 0.2703 0.22921 0.309 0.0
O48 O 0.25298 0.19411 0.31665 0.0
C49 C 0.26586 0.33771 0.35345 0.0
O50 O 0.26574 0.3398 0.33496 0.0
O51 O 0.2546 0.20076 0.35642 0.0
C52 C 0.96969 0.87101 0.40578 0.0
O53 O 0.93837 0.88874 0.41589 0.0
O54 O 0.94352 0.98441 0.39642 0.0
Zn55 Zn -0.00114 0.95848 0.40724 0.0
O56 O -0.00058 0.96308 0.43562 0.0
C57 C 0.04535 0.0305 0.39107 0.0
O58 O 0.00578 0.04719 0.39165 0.0
O59 O 0.00097 0.89505 0.40007 0.0
C60 C 0.00237 -2e-05 0.44377 0.0
O61 O 0.00462 0.03564 0.43348 0.0
C62 C 0.91096 -0.0028 0.40608 0.0
O63 O 0.91132 0.99195 0.42445 0.0
O64 O 0.05119 0.99155 0.39687 0.0
C65 C 0.38211 0.71317 0.65177 0.0
O66 O 0.36212 0.68074 0.66038 0.0
O67 O 0.27112 0.68913 0.63365 0.0
Zn68 Zn 0.29443 0.7393 0.64894 0.0
O69 O 0.28385 0.72907 0.67664 0.0
C70 C 0.22522 0.8012 0.64783 0.0
O71 O 0.21006 0.77411 0.66065 0.0
O72 O 0.35928 0.74413 0.64497 0.0
C73 C 0.29466 0.75872 0.68828 0.0
O74 O 0.31202 0.79516 0.68188 0.0
C75 C 0.26049 0.65249 0.64078 0.0
O76 O 0.26554 0.64619 0.65897 0.0
O77 O 0.26255 0.79379 0.64058 0.0
C78 C 0.52988 0.10133 0.90649 0.0
O79 O 0.57042 0.08723 0.90557 0.0
O80 O 0.56569 -0.00554 0.89937 0.0
Zn81 Zn 0.51283 0.01112 0.91462 0.0
O82 O 0.52214 0.00085 0.94239 0.0
C83 C 0.4698 0.93398 0.90253 0.0
O84 O 0.50865 0.91807 0.90654 0.0
O85 O 0.49938 0.07441 0.91026 0.0
C86 C 0.48873 -0.00353 0.95288 0.0
O87 O 0.44959 -0.0017 0.94523 0.0
C88 C 0.60128 0.98004 0.90621 0.0
O89 O 0.60541 0.97628 0.92457 0.0
O90 O 0.46264 0.97441 0.90526 0.0
C91 C 0.15106 0.28697 0.15094 0.0
O92 O 0.16073 0.32874 0.14954 0.0
O93 O 0.25887 0.33496 0.15143 0.0
Zn94 Zn 0.24206 0.27679 0.16261 0.0
O95 O 0.24854 0.27545 0.19081 0.0
C96 C 0.29644 0.23679 0.13478 0.0
O97 O 0.28389 0.27107 0.125 0.0
O98 O 0.18048 0.26012 0.15601 0.0
C99 C 0.28386 0.28514 0.19933 0.0
O100 O 0.31802 0.29805 0.18954 0.0
C101 C 0.2669 0.3705 0.16003 0.0
O102 O 0.26144 0.37266 0.17836 0.0
O103 O 0.28231 0.2318 0.15149 0.0
C104 C 0.89486 0.24173 0.14435 0.0
O105 O 0.88627 0.20122 0.14936 0.0
O106 O 0.79172 0.1895 0.13656 0.0
Zn107 Zn 0.804 0.24621 0.15003 0.0
O108 O 0.80421 0.23801 0.17833 0.0
C109 C 0.71836 0.2736 0.13959 0.0
O110 O 0.71065 0.23219 0.1433 0.0
O111 O 0.8634 0.26863 0.14289 0.0
C112 C 0.77232 0.24737 0.18909 0.0
O113 O 0.7361 0.26299 0.18175 0.0
C114 C 0.77918 0.15511 0.14506 0.0
O115 O 0.77816 0.15488 0.16357 0.0
O116 O 0.75693 0.28854 0.14185 0.0
C117 C 0.63848 0.75953 0.64382 0.0
O118 O 0.65906 0.79186 0.63543 0.0
O119 O 0.74716 0.79517 0.64703 0.0
Zn120 Zn 0.72441 0.74011 0.6593 0.0
O121 O 0.73343 0.74353 0.68743 0.0
C122 C 0.79639 0.6947 0.64271 0.0
O123 O 0.81245 0.73458 0.64299 0.0
O124 O 0.65994 0.73333 0.65424 0.0
C125 C 0.77119 0.74931 0.69456 0.0
O126 O 0.8052 0.7528 0.68334 0.0
C127 C 0.75269 0.83127 0.65559 0.0
O128 O 0.74146 0.83457 0.67339 0.0
O129 O 0.75794 0.68818 0.64899 0.0
C130 C 0.63735 0.20596 0.34933 0.0
O131 O 0.65485 0.16777 0.34548 0.0
O132 O 0.75056 0.18082 0.3507 0.0
Zn133 Zn 0.72367 0.2359 0.34013 0.0
O134 O 0.72332 0.23663 0.31171 0.0
C135 C 0.79892 0.28296 0.3527 0.0
O136 O 0.81671 0.24457 0.34953 0.0
O137 O 0.66111 0.24009 0.3485 0.0
C138 C 0.7572 0.23482 0.30136 0.0
O139 O 0.79593 0.2311 0.30925 0.0
C140 C 0.76127 0.14719 0.34127 0.0
O141 O 0.75348 0.14603 0.32307 0.0
O142 O 0.75818 0.28789 0.34968 0.0
C143 C 0.90287 0.77669 0.84655 0.0
O144 O 0.88627 0.81631 0.84688 0.0
O145 O 0.79351 0.80495 0.85714 0.0
Zn146 Zn 0.81281 0.75281 0.84191 0.0
O147 O 0.80068 0.76004 0.81411 0.0
C148 C 0.74206 0.70549 0.85839 0.0
O149 O 0.72652 0.74544 0.85952 0.0
O150 O 0.87735 0.74404 0.84497 0.0
C151 C 0.76265 0.75606 0.80701 0.0
O152 O 0.72913 0.74894 0.81818 0.0
C153 C 0.77503 0.83864 0.85033 0.0
O154 O 0.77034 0.8421 0.83199 0.0
O155 O 0.77989 0.69967 0.85136 0.0
C156 C 0.49671 0.61867 0.09995 0.0
O157 O 0.45529 0.60704 0.09982 0.0
O158 O 0.45384 0.5113 0.09895 0.0
Zn159 Zn 0.50992 0.5309 0.08652 0.0
O160 O 0.50464 0.53286 0.05826 0.0
C161 C 0.55159 0.45164 0.09933 0.0
O162 O 0.5112 0.43681 0.09923 0.0
O163 O 0.52562 0.59111 0.09512 0.0
C164 C 0.50343 0.49899 0.04791 0.0
O165 O 0.50476 0.46014 0.05582 0.0
C166 C 0.41882 0.50225 0.09008 0.0
O167 O 0.41764 0.50661 0.07168 0.0
O168 O 0.55893 0.49074 0.09413 0.0
C169 C 0.02897 0.35884 0.59918 0.0
O170 O 0.06739 0.37446 0.59426 0.0
O171 O 0.06718 0.4645 0.60343 0.0
Zn172 Zn 0.00939 0.44663 0.59185 0.0
O173 O 0.01212 0.44642 0.56337 0.0
C174 C 0.97671 0.52905 0.60341 0.0
O175 O 0.01783 0.53845 0.59984 0.0
O176 O -0.00356 0.38472 0.59981 0.0
C177 C 0.0095 0.48031 0.55303 0.0
O178 O 0.00536 0.51887 0.56096 0.0
C179 C 0.09932 0.4805 0.59438 0.0
O180 O 0.09694 0.48385 0.57595 0.0
O181 O 0.96349 0.48992 0.60101 0.0
C182 C 0.51606 0.36006 0.89506 0.0
O183 O 0.47703 0.3738 0.90008 0.0
O184 O 0.47355 0.4622 0.88139 0.0
Zn185 Zn 0.52619 0.44929 0.89754 0.0
O186 O 0.51208 0.4505 0.92536 0.0
C187 C 0.55826 0.53292 0.88798 0.0
O188 O 0.51592 0.54017 0.88871 0.0
O189 O 0.54597 0.38819 0.89215 0.0
C190 C 0.51071 0.48442 0.93568 0.0
O191 O 0.51729 0.52303 0.92807 0.0
C192 C 0.43558 0.47092 0.8876 0.0
O193 O 0.42825 0.46914 0.90582 0.0
O194 O 0.5724 0.49455 0.89134 0.0
C195 C 0.0155 0.61977 0.38442 0.0
O196 O 0.04922 0.60261 0.37567 0.0
O197 O 0.06817 0.51999 0.39018 0.0
Zn198 Zn 0.01005 0.53433 0.40216 0.0
O199 O 0.01408 0.53277 0.43056 0.0
C200 C 0.98016 0.45128 0.38964 0.0
O201 O 0.02178 0.44308 0.39264 0.0
O202 O 0.99284 0.59595 0.39542 0.0
C203 C 0.01092 0.49866 0.44073 0.0
O204 O 0.00536 0.46044 0.43264 0.0
C205 C 0.10164 0.50625 0.39901 0.0
O206 O 0.10039 0.50334 0.41747 0.0
O207 O 0.96576 0.48961 0.39287 0.0
H208 H 0.03861 0.15361 0.6032 0.0
H209 H 0.89802 0.16788 0.60299 0.0
H210 H 0.90582 0.24739 0.60413 0.0
H211 H 0.95271 0.31294 0.60282 0.0
H212 H 0.09324 0.29776 0.60212 0.0
H213 H 0.08519 0.21858 0.60383 0.0
C214 C 0.00961 0.17402 0.60356 0.0
C215 C 0.96781 0.15478 0.60284 0.0
C216 C 0.0143 0.21964 0.60396 0.0
C217 C 0.93062 0.18181 0.60342 0.0
C218 C 0.93504 0.22732 0.60405 0.0
C219 C 0.98156 0.29232 0.60326 0.0
C220 C 0.02349 0.31127 0.60219 0.0
C221 C 0.97674 0.24662 0.60397 0.0
C222 C 0.06055 0.28407 0.60278 0.0
C223 C 0.05602 0.23873 0.60374 0.0
H224 H 0.94693 0.70083 0.84098 0.0
H225 H 0.96652 0.8383 0.85215 0.0
H226 H 0.04575 0.82828 0.8505 0.0
H227 H 0.1093 0.78094 0.84476 0.0
H228 H 0.08904 0.64388 0.8328 0.0
H229 H 0.01017 0.65341 0.83591 0.0
C230 C 0.96848 0.72859 0.84318 0.0
C231 C 0.95081 0.77025 0.84664 0.0
C232 C 0.01389 0.72274 0.84199 0.0
C233 C 0.97926 0.80587 0.84941 0.0
C234 C 0.02457 0.8002 0.84845 0.0
C235 C 0.08764 0.75312 0.84291 0.0
C236 C 0.10506 0.71181 0.8385 0.0
C237 C 0.04223 0.75885 0.84456 0.0
C238 C 0.07653 0.6761 0.83613 0.0
C239 C 0.03139 0.68147 0.83792 0.0
H240 H 0.44315 0.68685 0.10834 0.0
H241 H 0.57912 0.65326 0.10021 0.0
H242 H 0.59976 0.72996 0.10329 0.0
H243 H 0.5787 0.80695 0.10575 0.0
H244 H 0.44264 0.84087 0.11325 0.0
H245 H 0.4227 0.76357 0.11314 0.0
C246 C 0.47734 0.69623 0.10742 0.0
C247 C 0.50944 0.66443 0.10383 0.0
C248 C 0.489 0.74047 0.109 0.0
C249 C 0.55366 0.67712 0.10282 0.0
C250 C 0.56554 0.721 0.10456 0.0
C251 C 0.54473 0.79747 0.10754 0.0
C252 C 0.5122 0.82965 0.10929 0.0
C253 C 0.53339 0.75302 0.10725 0.0
C254 C 0.46835 0.81676 0.11175 0.0
C255 C 0.45686 0.77256 0.11165 0.0
H256 H 0.59027 0.28046 0.35379 0.0
H257 H 0.57724 0.13987 0.3521 0.0
H258 H 0.49775 0.14654 0.35443 0.0
H259 H 0.43171 0.19255 0.35465 0.0
H260 H 0.44545 0.33316 0.35538 0.0
H261 H 0.52486 0.3261 0.3558 0.0
C262 C 0.57014 0.25121 0.35411 0.0
C263 C 0.58969 0.20977 0.35262 0.0
C264 C 0.52449 0.25527 0.35516 0.0
C265 C 0.56304 0.17223 0.35312 0.0
C266 C 0.51755 0.17599 0.35442 0.0
C267 C 0.45208 0.22162 0.3551 0.0
C268 C 0.43264 0.26329 0.35483 0.0
C269 C 0.49787 0.21739 0.35509 0.0
C270 C 0.45952 0.30065 0.35543 0.0
C271 C 0.50498 0.29669 0.35567 0.0
H272 H 0.02449 0.82554 0.38277 0.0
H273 H 0.91392 0.80967 0.42005 0.0
H274 H 0.91599 0.73068 0.41539 0.0
H275 H 0.95211 0.66587 0.40248 0.0
H276 H 0.06306 0.68139 0.36539 0.0
H277 H 0.05739 0.76077 0.36802 0.0
C278 C 0.0007 0.80483 0.3898 0.0
C279 C 0.96942 0.82348 0.4019 0.0
C280 C 0.00207 0.75936 0.38709 0.0
C281 C 0.93853 0.7962 0.41074 0.0
C282 C 0.93966 0.75098 0.40809 0.0
C283 C 0.97478 0.68656 0.39479 0.0
C284 C 0.00823 0.66762 0.38391 0.0
C285 C 0.97171 0.73217 0.39654 0.0
C286 C 0.0371 0.69502 0.37394 0.0
C287 C 0.03402 0.74047 0.3755 0.0
H288 H 0.43358 0.77331 0.63403 0.0
H289 H 0.43932 0.65535 0.66747 0.0
H290 H 0.51903 0.65843 0.66731 0.0
H291 H 0.58698 0.69584 0.65873 0.0
H292 H 0.58181 0.81384 0.62532 0.0
H293 H 0.50202 0.80925 0.62433 0.0
C294 C 0.45227 0.74819 0.64122 0.0
C295 C 0.43046 0.71431 0.65083 0.0
C296 C 0.49821 0.75014 0.64111 0.0
C297 C 0.4552 0.68188 0.65999 0.0
C298 C 0.50084 0.6836 0.65993 0.0
C299 C 0.56847 0.72048 0.65115 0.0
C300 C 0.59037 0.75526 0.64221 0.0
C301 C 0.52265 0.71778 0.65069 0.0
C302 C 0.56582 0.78675 0.63237 0.0
C303 C 0.52016 0.78422 0.63182 0.0
H304 H 0.45863 0.29389 0.90058 0.0
H305 H 0.59479 0.31989 0.88866 0.0
H306 H 0.61085 0.24167 0.89057 0.0
H307 H 0.58667 0.16644 0.89712 0.0
H308 H 0.45041 0.14132 0.90936 0.0
H309 H 0.43402 0.21889 0.90583 0.0
C310 C 0.49181 0.28252 0.89828 0.0
C311 C 0.5255 0.3127 0.8946 0.0
C312 C 0.50084 0.23772 0.89957 0.0
C313 C 0.56826 0.29733 0.89155 0.0
C314 C 0.57748 0.25264 0.8927 0.0
C315 C 0.55336 0.1779 0.89896 0.0
C316 C 0.51989 0.14813 0.90362 0.0
C317 C 0.54412 0.22262 0.89696 0.0
C318 C 0.47685 0.16351 0.90584 0.0
C319 C 0.46741 0.20788 0.90382 0.0
H320 H 0.07878 0.33556 0.14258 0.0
H321 H 0.12152 0.20288 0.15251 0.0
H322 H 0.04633 0.17701 0.14999 0.0
H323 H 0.96818 0.19234 0.147 0.0
H324 H 0.92456 0.32484 0.13759 0.0
H325 H 0.00042 0.35032 0.13768 0.0
C326 C 0.0717 0.30095 0.14405 0.0
C327 C 0.10575 0.27132 0.14791 0.0
C328 C 0.02822 0.28621 0.14273 0.0
C329 C 0.09597 0.22652 0.14967 0.0
C330 C 0.05293 0.21162 0.14824 0.0
C331 C 0.9752 0.22676 0.14481 0.0
C332 C 0.94072 0.25665 0.14246 0.0
C333 C 0.01876 0.24125 0.14509 0.0
C334 C 0.95049 0.30111 0.13951 0.0
C335 C 0.99386 0.31575 0.13961 0.0
H336 H 0.00422 0.93284 0.46902 0.0
H337 H 0.0006 0.0738 0.46534 0.0
H338 H 0.00016 0.079 0.49964 0.0
H339 H 0.00053 0.04371 0.53065 0.0
H340 H 0.00505 0.90282 0.53445 0.0
H341 H 0.00549 0.89751 0.50012 0.0
C342 C 0.00333 0.96471 0.47571 0.0
C343 C 0.00239 0.00286 0.4646 0.0
C344 C 0.00327 0.96752 0.49546 0.0
C345 C 0.00138 0.04389 0.47352 0.0
C346 C 0.0011 0.04692 0.49315 0.0
C347 C 0.00163 0.0118 0.52399 0.0
C348 C 0.0027 0.97373 0.53514 0.0
C349 C 0.002 0.00897 0.50426 0.0
C350 C 0.00426 0.93268 0.52624 0.0
C351 C 0.00446 0.92959 0.50659 0.0
H352 H 0.25455 0.70422 0.77243 0.0
H353 H 0.29173 0.83884 0.78172 0.0
H354 H 0.30518 0.84825 0.74811 0.0
H355 H 0.30571 0.81875 0.71605 0.0
H356 H 0.26713 0.68469 0.70645 0.0
H357 H 0.2549 0.67467 0.7402 0.0
C358 C 0.26571 0.73558 0.76711 0.0
C359 C 0.27212 0.77075 0.7796 0.0
C360 C 0.27306 0.74094 0.7477 0.0
C361 C 0.28642 0.81122 0.77244 0.0
C362 C 0.29416 0.81667 0.75321 0.0
C363 C 0.29471 0.78729 0.72132 0.0
C364 C 0.28739 0.75255 0.70873 0.0
C365 C 0.28747 0.78182 0.7407 0.0
C366 C 0.27295 0.71205 0.71582 0.0
C367 C 0.26599 0.70625 0.73513 0.0
H368 H 0.53827 0.97964 0.03909 0.0
H369 H 0.39856 0.96011 0.04328 0.0
H370 H 0.39143 0.9675 0.00922 0.0
H371 H 0.42442 0.98032 0.97831 0.0
H372 H 0.56412 -0.00091 0.97377 0.0
H373 H 0.57162 0.99104 0.00789 0.0
C374 C 0.50627 0.97698 0.03255 0.0
C375 C 0.46901 0.96945 0.04375 0.0
C376 C 0.50235 0.98112 0.01289 0.0
C377 C 0.42782 0.9659 0.03503 0.0
C378 C 0.42366 0.97016 0.01553 0.0
C379 C 0.45655 0.98263 0.98475 0.0
C380 C 0.4936 0.99045 0.97349 0.0
C381 C 0.46065 0.97789 0.00434 0.0
C382 C 0.53501 0.99311 0.98209 0.0
C383 C 0.53934 0.98856 0.00162 0.0
H384 H 0.23092 0.23711 0.22189 0.0
H385 H 0.3433 0.32274 0.22315 0.0
H386 H 0.3481 0.3144 0.2574 0.0
H387 H 0.32094 0.28165 0.28692 0.0
H388 H 0.2111 0.19274 0.28507 0.0
H389 H 0.2047 0.20356 0.2511 0.0
C390 C 0.25634 0.25414 0.22966 0.0
C391 C 0.2866 0.28065 0.22003 0.0
C392 C 0.25941 0.24852 0.24924 0.0
C393 C 0.31967 0.30207 0.23026 0.0
C394 C 0.32239 0.29736 0.24983 0.0
C395 C 0.2955 0.26483 0.27907 0.0
C396 C 0.26648 0.23652 0.28849 0.0
C397 C 0.29252 0.27053 0.25946 0.0
C398 C 0.23396 0.21457 0.27813 0.0
C399 C 0.23021 0.22079 0.25872 0.0
H400 H 0.70895 0.25851 0.2155 0.0
H401 H 0.84499 0.22338 0.20911 0.0
H402 H 0.85226 0.21607 0.24323 0.0
H403 H 0.82033 0.22089 0.27496 0.0
H404 H 0.68395 0.25494 0.28114 0.0
H405 H 0.6766 0.26138 0.24704 0.0
C406 C 0.74021 0.24921 0.22154 0.0
C407 C 0.77638 0.24171 0.20974 0.0
C408 C 0.74417 0.24492 0.24116 0.0
C409 C 0.81657 0.22942 0.21785 0.0
C410 C 0.82081 0.22527 0.23737 0.0
C411 C 0.789 0.2297 0.26885 0.0
C412 C 0.75283 0.23757 0.28062 0.0
C413 C 0.78488 0.23316 0.24918 0.0
C414 C 0.71237 0.24866 0.27244 0.0
C415 C 0.70811 0.25242 0.25292 0.0
H416 H 0.70759 0.74642 0.72138 0.0
H417 H 0.84729 0.76038 0.71422 0.0
H418 H 0.85673 0.76537 0.7483 0.0
H419 H 0.82564 0.76405 0.78013 0.0
H420 H 0.68601 0.74951 0.78734 0.0
H421 H 0.67631 0.74676 0.75322 0.0
C422 C 0.74012 0.75058 0.72726 0.0
C423 C 0.77668 0.75281 0.71524 0.0
C424 C 0.74536 0.75339 0.74688 0.0
C425 C 0.81856 0.75842 0.72312 0.0
C426 C 0.82402 0.76131 0.74262 0.0
C427 C 0.79304 0.76051 0.77426 0.0
C428 C 0.75664 0.75686 0.78631 0.0
C429 C 0.78769 0.75862 0.75463 0.0
C430 C 0.71464 0.7523 0.77842 0.0
C431 C 0.70904 0.75065 0.7589 0.0
H432 H 0.50777 0.54954 0.96174 0.0
H433 H 0.50087 0.40908 0.95602 0.0
H434 H 0.49656 0.40126 0.99018 0.0
H435 H 0.49801 0.43405 0.02176 0.0
H436 H 0.50513 0.57454 0.02739 0.0
H437 H 0.50597 0.58245 0.9932 0.0
C438 C 0.50507 0.51721 0.96793 0.0
C439 C 0.50494 0.47999 0.95631 0.0
C440 C 0.50284 0.51288 0.98761 0.0
C441 C 0.5012 0.43834 0.96461 0.0
C442 C 0.49881 0.43379 0.98417 0.0
C443 C 0.49958 0.46642 0.01552 0.0
C444 C 0.50181 0.50358 0.02715 0.0
C445 C 0.50015 0.4708 0.99582 0.0
C446 C 0.50355 0.5453 0.0188 0.0
C447 C 0.50406 0.54991 -0.00077 0.0
H448 H 0.01406 0.54598 0.52727 0.0
H449 H 0.00804 0.4053 0.5321 0.0
H450 H 0.00851 0.39854 0.49783 0.0
H451 H 0.00936 0.43258 0.46647 0.0
H452 H 0.01622 0.57327 0.46174 0.0
H453 H 0.01682 0.57988 0.49598 0.0
C454 C 0.01287 0.51382 0.52084 0.0
C455 C 0.01083 0.47625 0.53226 0.0
C456 C 0.01329 0.51012 0.50113 0.0
C457 C 0.0096 0.43481 0.52367 0.0
C458 C 0.00982 0.43088 0.50406 0.0
C459 C 0.01106 0.46469 0.47292 0.0
C460 C 0.01256 0.50234 0.46152 0.0
C461 C 0.01147 0.46832 0.49265 0.0
C462 C 0.01497 0.5437 0.47014 0.0
C463 C 0.01527 0.54756 0.48974 0.0
H464 H 0.15177 0.83284 0.66422 0.0
H465 H 0.2368 0.85183 0.61637 0.0
H466 H 0.1877 0.90823 0.6041 0.0
H467 H 0.11849 0.94926 0.60616 0.0
H468 H 0.03439 0.93037 0.65439 0.0
H469 H 0.08541 0.87697 0.66731 0.0
C470 C 0.15972 0.84945 0.65115 0.0
C471 C 0.19768 0.83786 0.64115 0.0
C472 C 0.13143 0.88178 0.6442 0.0
C473 C 0.20775 0.86008 0.62434 0.0
C474 C 0.17961 0.89224 0.61728 0.0
C475 C 0.11147 0.93367 0.61956 0.0
C476 C 0.07247 0.94361 0.6292 0.0
C477 C 0.14103 0.90292 0.62697 0.0
C478 C 0.06407 0.92334 0.64662 0.0
C479 C 0.09319 0.89267 0.65403 0.0
H480 H 0.30885 0.83888 0.86428 0.0
H481 H 0.40671 0.73846 0.85707 0.0
H482 H 0.46036 0.78343 0.87351 0.0
H483 H 0.48014 0.85153 0.88936 0.0
H484 H 0.3836 0.95332 0.89598 0.0
H485 H 0.32879 0.90743 0.88043 0.0
C486 C 0.34188 0.82682 0.86635 0.0
C487 C 0.35371 0.78539 0.85942 0.0
C488 C 0.37283 0.85305 0.87572 0.0
C489 C 0.39671 0.7703 0.86218 0.0
C490 C 0.42746 0.79595 0.87162 0.0
C491 C 0.44705 0.86365 0.88752 0.0
C492 C 0.436 0.90576 0.89384 0.0
C493 C 0.41595 0.83741 0.87837 0.0
C494 C 0.39301 0.92102 0.89122 0.0
C495 C 0.36165 0.89482 0.88232 0.0
H496 H 0.43457 0.12361 0.09044 0.0
H497 H 0.41069 0.03562 0.13694 0.0
H498 H 0.35823 0.08715 0.15029 0.0
H499 H 0.31977 0.1575 0.14895 0.0
H500 H 0.34258 0.24473 0.10207 0.0
H501 H 0.39482 0.19308 0.08869 0.0
C502 C 0.41791 0.11568 0.10349 0.0
C503 C 0.42667 0.07592 0.1127 0.0
C504 C 0.3876 0.1453 0.11104 0.0
C505 C 0.40454 0.06601 0.12955 0.0
C506 C 0.37458 0.09548 0.13722 0.0
C507 C 0.33616 0.16522 0.1358 0.0
C508 C 0.32737 0.20496 0.12656 0.0
C509 C 0.36596 0.13527 0.12811 0.0
C510 C 0.34868 0.21434 0.10947 0.0
C511 C 0.37862 0.18486 0.10181 0.0
H512 H 0.0413 0.11292 0.37742 0.0
H513 H 0.13279 0.00947 0.39 0.0
H514 H 0.19362 0.05633 0.38 0.0
H515 H 0.22071 0.12752 0.36808 0.0
H516 H 0.1276 0.22993 0.35577 0.0
H517 H 0.06766 0.18255 0.36531 0.0
C518 C 0.0745 0.10044 0.37797 0.0
C519 C 0.08244 0.05776 0.38449 0.0
C520 C 0.10913 0.12747 0.37228 0.0
C521 C 0.12573 0.04221 0.38503 0.0
C522 C 0.16054 0.06902 0.37934 0.0
C523 C 0.1873 0.13941 0.36749 0.0
C524 C 0.17879 0.1823 0.36124 0.0
C525 C 0.15264 0.11184 0.37301 0.0
C526 C 0.13526 0.19714 0.36051 0.0
C527 C 0.10083 0.17005 0.36597 0.0
H528 H 0.89308 0.0024 0.36865 0.0
H529 H 0.84977 0.04903 0.42292 0.0
H530 H 0.7974 0.0977 0.40757 0.0
H531 H 0.76824 0.13119 0.37875 0.0
H532 H 0.81068 0.08392 0.32447 0.0
H533 H 0.8588 0.031 0.33984 0.0
C534 C 0.87189 0.02292 0.37713 0.0
C535 C 0.87568 0.02247 0.39688 0.0
C536 C 0.84187 0.05084 0.36822 0.0
C537 C 0.84761 0.0488 0.40768 0.0
C538 C 0.81776 0.07679 0.39892 0.0
C539 C 0.78774 0.10905 0.37028 0.0
C540 C 0.7863 0.11183 0.35051 0.0
C541 C 0.8153 0.07874 0.3792 0.0
C542 C 0.81127 0.08252 0.33972 0.0
C543 C 0.83893 0.05237 0.3485 0.0
H544 H 0.66607 0.04562 0.08841 0.0
H545 H 0.61778 0.99168 0.14067 0.0
H546 H 0.67419 0.03106 0.15812 0.0
H547 H 0.73077 0.0878 0.15891 0.0
H548 H 0.7767 0.14467 0.10683 0.0
H549 H 0.72826 0.09656 0.08896 0.0
C550 C 0.66831 0.04191 0.10358 0.0
C551 C 0.6373 0.01631 0.11323 0.0
C552 C 0.70027 0.0654 0.11359 0.0
C553 C 0.64087 0.01165 0.1329 0.0
C554 C 0.67312 0.03418 0.14291 0.0
C555 C 0.73087 0.08911 0.14364 0.0
C556 C 0.75686 0.12024 0.13425 0.0
C557 C 0.70206 0.06224 0.13346 0.0
C558 C 0.75668 0.12131 0.11444 0.0
C559 C 0.72885 0.09392 0.10419 0.0
H560 H 0.71587 0.90134 0.84101 0.0
H561 H 0.78327 0.84444 0.88855 0.0
H562 H 0.73805 0.88687 0.91016 0.0
H563 H 0.67433 0.93399 0.91558 0.0
H564 H 0.60498 0.98828 0.86797 0.0
H565 H 0.6562 0.95329 0.84642 0.0
C566 C 0.7212 0.89875 0.85608 0.0
C567 C 0.75259 0.86942 0.86315 0.0
C568 C 0.69439 0.92245 0.86845 0.0
C569 C 0.75906 0.86651 0.88273 0.0
C570 C 0.73313 0.89068 0.89512 0.0
C571 C 0.67075 0.93866 0.9005 0.0
C572 C 0.63556 0.96327 0.89342 0.0
C573 C 0.69987 0.91778 0.88815 0.0
C574 C 0.63152 0.96911 0.87383 0.0
C575 C 0.6608 0.9491 0.86147 0.0
H576 H 0.76453 0.84261 0.61804 0.0
H577 H 0.79487 0.90012 0.67203 0.0
H578 H 0.84277 0.95345 0.65674 0.0
H579 H 0.88111 0.97919 0.62839 0.0
H580 H 0.84978 0.92242 0.57435 0.0
H581 H 0.79681 0.87362 0.5893 0.0
C582 C 0.78127 0.86712 0.62643 0.0
C583 C 0.77664 0.86708 0.64614 0.0
C584 C 0.80874 0.89764 0.61756 0.0
C585 C 0.79798 0.8994 0.65682 0.0
C586 C 0.82554 0.92978 0.64811 0.0
C587 C 0.86235 0.95645 0.61986 0.0
C588 C 0.86978 0.954 0.60034 0.0
C589 C 0.83196 0.9285 0.62854 0.0
C590 C 0.84478 0.92486 0.58942 0.0
C591 C 0.81462 0.8968 0.59797 0.0
H592 H 0.72414 0.35764 0.12695 0.0
H593 H 0.63186 0.25292 0.13676 0.0
H594 H 0.57242 0.29853 0.12502 0.0
H595 H 0.54647 0.36791 0.11195 0.0
H596 H 0.63845 0.47272 0.10186 0.0
H597 H 0.69809 0.42719 0.11365 0.0
C598 C 0.69101 0.34485 0.12657 0.0
C599 C 0.68252 0.30195 0.13276 0.0
C600 C 0.6569 0.37118 0.11969 0.0
C601 C 0.6394 0.28581 0.13208 0.0
C602 C 0.60532 0.31186 0.12536 0.0
C603 C 0.57955 0.38083 0.11229 0.0
C604 C 0.58791 0.42367 0.10604 0.0
C605 C 0.6137 0.35454 0.1191 0.0
C606 C 0.63104 0.43983 0.10658 0.0
C607 C 0.6652 0.41384 0.11335 0.0
H608 H 0.88562 0.28111 0.36044 0.0
H609 H 0.77375 0.36718 0.36062 0.0
H610 H 0.81976 0.42716 0.3721 0.0
H611 H 0.89221 0.45505 0.38208 0.0
H612 H 0.00316 0.36754 0.38166 0.0
H613 H 0.95695 0.3084 0.37029 0.0
C614 C 0.87116 0.31295 0.36297 0.0
C615 C 0.82629 0.31958 0.35967 0.0
C616 C 0.89769 0.34713 0.36955 0.0
C617 C 0.80823 0.36114 0.36305 0.0
C618 C 0.83452 0.39546 0.36962 0.0
C619 C 0.90623 0.42304 0.3795 0.0
C620 C 0.95114 0.41588 0.38274 0.0
C621 C 0.87936 0.38884 0.37292 0.0
C622 C 0.96875 0.37414 0.37932 0.0
C623 C 0.94235 0.34017 0.3728 0.0
H624 H 0.89129 0.52205 0.6151 0.0
H625 H -0.00425 0.6154 0.60646 0.0
H626 H 0.94909 0.67418 0.61755 0.0
H627 H 0.87956 0.6995 0.62998 0.0
H628 H 0.77418 0.60783 0.63927 0.0
H629 H 0.82025 0.54814 0.62764 0.0
C630 C 0.90373 0.55527 0.61561 0.0
C631 C 0.94704 0.56415 0.60996 0.0
C632 C 0.87664 0.5893 0.62214 0.0
C633 C 0.96266 0.60743 0.61075 0.0
C634 C 0.93599 0.64122 0.61709 0.0
C635 C 0.86647 0.66652 0.62945 0.0
C636 C 0.82347 0.65821 0.63549 0.0
C637 C 0.89306 0.63253 0.62286 0.0
C638 C 0.80721 0.61517 0.63471 0.0
C639 C 0.83354 0.58101 0.62806 0.0
H640 H 0.65736 0.70804 0.86919 0.0
H641 H 0.76488 0.61879 0.86068 0.0
H642 H 0.7179 0.55723 0.86966 0.0
H643 H 0.64543 0.52879 0.87929 0.0
H644 H 0.53836 0.6193 0.88671 0.0
H645 H 0.58616 0.68027 0.87881 0.0
C646 C 0.67072 0.67518 0.86936 0.0
C647 C 0.71457 0.66805 0.86428 0.0
C648 C 0.64353 0.6401 0.87431 0.0
C649 C 0.73117 0.62517 0.86451 0.0
C650 C 0.70433 0.58997 0.86964 0.0
C651 C 0.63268 0.56188 0.87925 0.0
C652 C 0.58836 0.56941 0.88356 0.0
C653 C 0.66034 0.59703 0.87448 0.0
C654 C 0.57226 0.61247 0.88336 0.0
C655 C 0.59958 0.64746 0.87887 0.0
H656 H 0.35858 0.50982 0.89693 0.0
H657 H 0.43958 0.47637 0.84925 0.0
H658 H 0.39306 0.51997 0.82859 0.0
H659 H 0.33566 0.57531 0.82491 0.0
H660 H 0.25687 0.61139 0.87291 0.0
H661 H 0.29583 0.55861 0.89247 0.0
C662 C 0.36561 0.51137 0.88196 0.0
C663 C 0.4029 0.49044 0.87472 0.0
C664 C 0.33933 0.53736 0.87021 0.0
C665 C 0.41136 0.49261 0.85525 0.0
C666 C 0.38482 0.51763 0.84341 0.0
C667 C 0.32642 0.57104 0.83955 0.0
C668 C 0.29391 0.59775 0.8475 0.0
C669 C 0.34967 0.54138 0.85086 0.0
C670 C 0.28219 0.59163 0.86649 0.0
C671 C 0.30451 0.5615 0.87771 0.0
H672 H 0.15666 0.54106 0.58113 0.0
H673 H 0.121 0.46981 0.63137 0.0
H674 H 0.17152 0.51426 0.64995 0.0
H675 H 0.2197 0.57822 0.65248 0.0
H676 H 0.25214 0.65199 0.60248 0.0
H677 H 0.20925 0.6015 0.58326 0.0
C678 C 0.16053 0.5347 0.59607 0.0
C679 C 0.13488 0.50242 0.60488 0.0
C680 C 0.1887 0.56119 0.60677 0.0
C681 C 0.14016 0.49472 0.62428 0.0
C682 C 0.16894 0.52019 0.63493 0.0
C683 C 0.21787 0.58295 0.63735 0.0
C684 C 0.23869 0.61909 0.62897 0.0
C685 C 0.19241 0.55433 0.62642 0.0
C686 C 0.23605 0.62467 0.60933 0.0
C687 C 0.21153 0.59581 0.59831 0.0
H688 H 0.16575 0.45312 0.41245 0.0
H689 H 0.11796 0.51308 0.36133 0.0
H690 H 0.16895 0.46951 0.34274 0.0
H691 H 0.22033 0.40816 0.34073 0.0
H692 H 0.26528 0.34562 0.39176 0.0
H693 H 0.22255 0.39674 0.41062 0.0
C694 C 0.16706 0.4573 0.39728 0.0
C695 C 0.13772 0.48591 0.38828 0.0
C696 C 0.19564 0.4313 0.38662 0.0
C697 C 0.1399 0.49094 0.3686 0.0
C698 C 0.16897 0.46595 0.35794 0.0
C699 C 0.22137 0.40614 0.35598 0.0
C700 C 0.24549 0.37274 0.36479 0.0
C701 C 0.19595 0.43501 0.36675 0.0
C702 C 0.24659 0.37072 0.38459 0.0
C703 C 0.22212 0.39991 0.39541 0.0
H704 H 0.40232 0.50523 0.12765 0.0
H705 H 0.35208 0.45401 0.07524 0.0
H706 H 0.2968 0.41218 0.09238 0.0
H707 H 0.26836 0.38398 0.12233 0.0
H708 H 0.318 0.43543 0.17479 0.0
H709 H 0.36736 0.48402 0.15752 0.0
C710 C 0.37892 0.48529 0.11998 0.0
C711 C 0.38172 0.48213 0.10024 0.0
C712 C 0.34723 0.46133 0.12992 0.0
C713 C 0.35077 0.45682 0.09045 0.0
C714 C 0.31923 0.43276 0.10023 0.0
C715 C 0.28949 0.40635 0.12998 0.0
C716 C 0.29001 0.40569 0.14979 0.0
C717 C 0.31798 0.43385 0.11998 0.0
C718 C 0.31705 0.43525 0.15953 0.0
C719 C 0.34551 0.46281 0.14967 0.0
loop_
_geom_bond_atom_site_label_1
_geom_bond_atom_site_label_2
_geom_bond_distance
_geom_bond_site_symmetry_2
_ccdc_geom_bond_type
C0 O1 1.160 1_455 S
C0 O7 1.185 . S
O1 C0 1.160 1_655 S
O2 Zn3 1.899 1_655 S
O2 C10 1.284 1_545 S
Zn3 O2 1.899 1_455 S
Zn3 O4 2.032 . S
Zn3 O7 2.086 . S
Zn3 O12 1.977 . S
O4 Zn3 2.032 . S
O4 C8 1.278 . S
C5 O6 1.203 . S
C5 O12 1.267 1_565 S
O6 C5 1.203 . S
O7 C0 1.185 . S
O7 Zn3 2.086 . S
C8 O4 1.278 . S
C8 O9 1.211 1_545 S
O9 C8 1.211 1_565 S
C10 O2 1.284 1_565 S
C10 O11 1.273 . S
O11 C10 1.273 . S
O12 Zn3 1.977 . S
O12 C5 1.267 1_545 S
C13 O14 1.160 . S
C13 O20 1.185 . S
O14 C13 1.160 . S
O15 Zn16 1.899 . S
O15 C23 1.284 . S
Zn16 O15 1.899 . S
Zn16 O17 2.032 . S
Zn16 O20 2.086 . S
Zn16 O25 1.977 . S
O17 Zn16 2.032 . S
O17 C21 1.278 . S
C18 O19 1.203 . S
C18 O25 1.267 . S
O19 C18 1.203 . S
O20 C13 1.185 . S
O20 Zn16 2.086 . S
C21 O17 1.278 . S
C21 O22 1.211 . S
O22 C21 1.211 . S
C23 O15 1.284 . S
C23 O24 1.273 . S
O24 C23 1.273 . S
O25 Zn16 1.977 . S
O25 C18 1.267 . S
C26 O27 1.160 . S
C26 O33 1.185 . S
O27 C26 1.160 . S
O28 Zn29 1.899 . S
O28 C36 1.284 1_565 S
Zn29 O28 1.899 . S
Zn29 O30 2.032 . S
Zn29 O33 2.086 . S
Zn29 O38 1.977 . S
O30 Zn29 2.032 . S
O30 C34 1.278 . S
C31 O32 1.203 . S
C31 O38 1.267 1_545 S
O32 C31 1.203 . S
O33 C26 1.185 . S
O33 Zn29 2.086 . S
C34 O30 1.278 . S
C34 O35 1.211 1_565 S
O35 C34 1.211 1_545 S
C36 O28 1.284 1_545 S
C36 O37 1.273 . S
O37 C36 1.273 . S
O38 Zn29 1.977 . S
O38 C31 1.267 1_565 S
C39 O40 1.160 . S
C39 O46 1.185 . S
O40 C39 1.160 . S
O41 Zn42 1.899 . S
O41 C49 1.284 . S
Zn42 O41 1.899 . S
Zn42 O43 2.032 . S
Zn42 O46 2.086 . S
Zn42 O51 1.977 . S
O43 Zn42 2.032 . S
O43 C47 1.278 . S
C44 O45 1.203 . S
C44 O51 1.267 . S
O45 C44 1.203 . S
O46 C39 1.185 . S
O46 Zn42 2.086 . S
C47 O43 1.278 . S
C47 O48 1.211 . S
O48 C47 1.211 . S
C49 O41 1.284 . S
C49 O50 1.273 . S
O50 C49 1.273 . S
O51 Zn42 1.977 . S
O51 C44 1.267 . S
C52 O53 1.160 1_455 S
C52 O59 1.185 . S
O53 C52 1.160 1_655 S
O54 Zn55 1.899 1_655 S
O54 C62 1.284 1_565 S
Zn55 O54 1.899 1_455 S
Zn55 O56 2.032 . S
Zn55 O59 2.086 . S
Zn55 O64 1.977 . S
O56 Zn55 2.032 . S
O56 C60 1.278 . S
C57 O58 1.203 . S
C57 O64 1.267 1_545 S
O58 C57 1.203 . S
O59 C52 1.185 . S
O59 Zn55 2.086 . S
C60 O56 1.278 . S
C60 O61 1.211 1_565 S
O61 C60 1.211 1_545 S
C62 O54 1.284 1_545 S
C62 O63 1.273 . S
O63 C62 1.273 . S
O64 Zn55 1.977 . S
O64 C57 1.267 1_565 S
C65 O66 1.160 . S
C65 O72 1.185 . S
O66 C65 1.160 . S
O67 Zn68 1.899 . S
O67 C75 1.284 . S
Zn68 O67 1.899 . S
Zn68 O69 2.032 . S
Zn68 O72 2.086 . S
Zn68 O77 1.977 . S
O69 Zn68 2.032 . S
O69 C73 1.278 . S
C70 O71 1.203 . S
C70 O77 1.267 . S
O71 C70 1.203 . S
O72 C65 1.185 . S
O72 Zn68 2.086 . S
C73 O69 1.278 . S
C73 O74 1.211 . S
O74 C73 1.211 . S
C75 O67 1.284 . S
C75 O76 1.273 . S
O76 C75 1.273 . S
O77 Zn68 1.977 . S
O77 C70 1.267 . S
C78 O79 1.160 . S
C78 O85 1.185 . S
O79 C78 1.160 . S
O80 Zn81 1.899 . S
O80 C88 1.284 1_545 S
Zn81 O80 1.899 . S
Zn81 O82 2.032 . S
Zn81 O85 2.086 . S
Zn81 O90 1.977 . S
O82 Zn81 2.032 . S
O82 C86 1.278 . S
C83 O84 1.203 . S
C83 O90 1.267 1_565 S
O84 C83 1.203 . S
O85 C78 1.185 . S
O85 Zn81 2.086 . S
C86 O82 1.278 . S
C86 O87 1.211 1_545 S
O87 C86 1.211 1_565 S
C88 O80 1.284 1_565 S
C88 O89 1.273 . S
O89 C88 1.273 . S
O90 Zn81 1.977 . S
O90 C83 1.267 1_545 S
C91 O92 1.160 . S
C91 O98 1.185 . S
O92 C91 1.160 . S
O93 Zn94 1.899 . S
O93 C101 1.284 . S
Zn94 O93 1.899 . S
Zn94 O95 2.032 . S
Zn94 O98 2.086 . S
Zn94 O103 1.977 . S
O95 Zn94 2.032 . S
O95 C99 1.278 . S
C96 O97 1.203 . S
C96 O103 1.267 . S
O97 C96 1.203 . S
O98 C91 1.185 . S
O98 Zn94 2.086 . S
C99 O95 1.278 . S
C99 O100 1.211 . S
O100 C99 1.211 . S
C101 O93 1.284 . S
C101 O102 1.273 . S
O102 C101 1.273 . S
O103 Zn94 1.977 . S
O103 C96 1.267 . S
C104 O105 1.160 . S
C104 O111 1.185 . S
O105 C104 1.160 . S
O106 Zn107 1.899 . S
O106 C114 1.284 . S
Zn107 O106 1.899 . S
Zn107 O108 2.032 . S
Zn107 O111 2.086 . S
Zn107 O116 1.977 . S
O108 Zn107 2.032 . S
O108 C112 1.278 . S
C109 O110 1.203 . S
C109 O116 1.267 . S
O110 C109 1.203 . S
O111 C104 1.185 . S
O111 Zn107 2.086 . S
C112 O108 1.278 . S
C112 O113 1.211 . S
O113 C112 1.211 . S
C114 O106 1.284 . S
C114 O115 1.273 . S
O115 C114 1.273 . S
O116 Zn107 1.977 . S
O116 C109 1.267 . S
C117 O118 1.160 . S
C117 O124 1.185 . S
O118 C117 1.160 . S
O119 Zn120 1.899 . S
O119 C127 1.284 . S
Zn120 O119 1.899 . S
Zn120 O121 2.032 . S
Zn120 O124 2.086 . S
Zn120 O129 1.977 . S
O121 Zn120 2.032 . S
O121 C125 1.278 . S
C122 O123 1.203 . S
C122 O129 1.267 . S
O123 C122 1.203 . S
O124 C117 1.185 . S
O124 Zn120 2.086 . S
C125 O121 1.278 . S
C125 O126 1.211 . S
O126 C125 1.211 . S
C127 O119 1.284 . S
C127 O128 1.273 . S
O128 C127 1.273 . S
O129 Zn120 1.977 . S
O129 C122 1.267 . S
C130 O131 1.160 . S
C130 O137 1.185 . S
O131 C130 1.160 . S
O132 Zn133 1.899 . S
O132 C140 1.284 . S
Zn133 O132 1.899 . S
Zn133 O134 2.032 . S
Zn133 O137 2.086 . S
Zn133 O142 1.977 . S
O134 Zn133 2.032 . S
O134 C138 1.278 . S
C135 O136 1.203 . S
C135 O142 1.267 . S
O136 C135 1.203 . S
O137 C130 1.185 . S
O137 Zn133 2.086 . S
C138 O134 1.278 . S
C138 O139 1.211 . S
O139 C138 1.211 . S
C140 O132 1.284 . S
C140 O141 1.273 . S
O141 C140 1.273 . S
O142 Zn133 1.977 . S
O142 C135 1.267 . S
C143 O144 1.160 . S
C143 O150 1.185 . S
O144 C143 1.160 . S
O145 Zn146 1.899 . S
O145 C153 1.284 . S
Zn146 O145 1.899 . S
Zn146 O147 2.032 . S
Zn146 O150 2.086 . S
Zn146 O155 1.977 . S
O147 Zn146 2.032 . S
O147 C151 1.278 . S
C148 O149 1.203 . S
C148 O155 1.267 . S
O149 C148 1.203 . S
O150 C143 1.185 . S
O150 Zn146 2.086 . S
C151 O147 1.278 . S
C151 O152 1.211 . S
O152 C151 1.211 . S
C153 O145 1.284 . S
C153 O154 1.273 . S
O154 C153 1.273 . S
O155 Zn146 1.977 . S
O155 C148 1.267 . S
C156 O157 1.160 . S
C156 O163 1.185 . S
O157 C156 1.160 . S
O158 Zn159 1.899 . S
O158 C166 1.284 . S
Zn159 O158 1.899 . S
Zn159 O160 2.032 . S
Zn159 O163 2.086 . S
Zn159 O168 1.977 . S
O160 Zn159 2.032 . S
O160 C164 1.278 . S
C161 O162 1.203 . S
C161 O168 1.267 . S
O162 C161 1.203 . S
O163 C156 1.185 . S
O163 Zn159 2.086 . S
C164 O160 1.278 . S
C164 O165 1.211 . S
O165 C164 1.211 . S
C166 O158 1.284 . S
C166 O167 1.273 . S
O167 C166 1.273 . S
O168 Zn159 1.977 . S
O168 C161 1.267 . S
C169 O170 1.160 . S
C169 O176 1.185 . S
O170 C169 1.160 . S
O171 Zn172 1.899 . S
O171 C179 1.284 . S
Zn172 O171 1.899 . S
Zn172 O173 2.032 . S
Zn172 O176 2.086 . S
Zn172 O181 1.977 1_455 S
O173 Zn172 2.032 . S
O173 C177 1.278 . S
C174 O175 1.203 . S
C174 O181 1.267 . S
O175 C174 1.203 . S
O176 C169 1.185 . S
O176 Zn172 2.086 . S
C177 O173 1.278 . S
C177 O178 1.211 . S
O178 C177 1.211 . S
C179 O171 1.284 . S
C179 O180 1.273 . S
O180 C179 1.273 . S
O181 Zn172 1.977 1_655 S
O181 C174 1.267 . S
C182 O183 1.160 . S
C182 O189 1.185 . S
O183 C182 1.160 . S
O184 Zn185 1.899 . S
O184 C192 1.284 . S
Zn185 O184 1.899 . S
Zn185 O186 2.032 . S
Zn185 O189 2.086 . S
Zn185 O194 1.977 . S
O186 Zn185 2.032 . S
O186 C190 1.278 . S
C187 O188 1.203 . S
C187 O194 1.267 . S
O188 C187 1.203 . S
O189 C182 1.185 . S
O189 Zn185 2.086 . S
C190 O186 1.278 . S
C190 O191 1.211 . S
O191 C190 1.211 . S
C192 O184 1.284 . S
C192 O193 1.273 . S
O193 C192 1.273 . S
O194 Zn185 1.977 . S
O194 C187 1.267 . S
C195 O196 1.160 . S
C195 O202 1.185 . S
O196 C195 1.160 . S
O197 Zn198 1.899 . S
O197 C205 1.284 . S
Zn198 O197 1.899 . S
Zn198 O199 2.032 . S
Zn198 O202 2.086 . S
Zn198 O207 1.977 1_455 S
O199 Zn198 2.032 . S
O199 C203 1.278 . S
C200 O201 1.203 . S
C200 O207 1.267 . S
O201 C200 1.203 . S
O202 C195 1.185 . S
O202 Zn198 2.086 . S
C203 O199 1.278 . S
C203 O204 1.211 . S
O204 C203 1.211 . S
C205 O197 1.284 . S
C205 O206 1.273 . S
O206 C205 1.273 . S
O207 Zn198 1.977 1_655 S
O207 C200 1.267 . S
H208 C214 0.930 . S
H209 C217 0.930 . S
H210 C218 0.930 . S
H211 C219 0.930 1_655 S
H212 C222 0.930 . S
H213 C223 0.930 . S
C214 H208 0.930 . S
C214 C215 1.355 . S
C214 C216 1.415 . S
C215 C214 1.355 . S
C215 C217 1.419 1_455 S
C216 C214 1.415 . S
C216 C221 1.425 . S
C216 C223 1.409 . S
C217 H209 0.930 . S
C217 C215 1.419 1_655 S
C217 C218 1.362 . S
C218 H210 0.930 . S
C218 C217 1.362 . S
C218 C221 1.409 1_655 S
C219 H211 0.930 1_455 S
C219 C220 1.355 . S
C219 C221 1.415 . S
C220 C219 1.355 . S
C220 C222 1.419 . S
C221 C216 1.425 . S
C221 C218 1.409 1_455 S
C221 C219 1.415 . S
C222 H212 0.930 . S
C222 C220 1.419 . S
C222 C223 1.362 . S
C223 H213 0.930 . S
C223 C216 1.409 . S
C223 C222 1.362 . S
H224 C230 0.930 . S
H225 C233 0.930 . S
H226 C234 0.931 . S
H227 C235 0.930 . S
H228 C238 0.930 . S
H229 C239 0.930 . S
C230 H224 0.930 . S
C230 C231 1.355 . S
C230 C232 1.415 1_655 S
C231 C230 1.355 . S
C231 C233 1.419 . S
C232 C230 1.415 1_455 S
C232 C237 1.425 . S
C232 C239 1.409 . S
C233 H225 0.930 . S
C233 C231 1.419 . S
C233 C234 1.360 1_655 S
C234 H226 0.931 . S
C234 C233 1.360 1_455 S
C234 C237 1.411 . S
C235 H227 0.930 . S
C235 C236 1.355 . S
C235 C237 1.415 . S
C236 C235 1.355 . S
C236 C238 1.419 . S
C237 C232 1.425 . S
C237 C234 1.411 . S
C237 C235 1.415 . S
C238 H228 0.930 . S
C238 C236 1.419 . S
C238 C239 1.362 . S
C239 H229 0.930 . S
C239 C232 1.409 . S
C239 C238 1.362 . S
H240 C246 0.930 . S
H241 C249 0.930 . S
H242 C250 0.930 . S
H243 C251 0.930 . S
H244 C254 0.930 . S
H245 C255 0.930 . S
C246 H240 0.930 . S
C246 C247 1.355 . S
C246 C248 1.415 . S
C247 C246 1.355 . S
C247 C249 1.419 . S
C248 C246 1.415 . S
C248 C253 1.425 . S
C248 C255 1.409 . S
C249 H241 0.930 . S
C249 C247 1.419 . S
C249 C250 1.362 . S
C250 H242 0.930 . S
C250 C249 1.362 . S
C250 C253 1.409 . S
C251 H243 0.930 . S
C251 C252 1.355 . S
C251 C253 1.415 . S
C252 C251 1.355 . S
C252 C254 1.419 . S
C253 C248 1.425 . S
C253 C250 1.409 . S
C253 C251 1.415 . S
C254 H244 0.930 . S
C254 C252 1.419 . S
C254 C255 1.362 . S
C255 H245 0.930 . S
C255 C248 1.409 . S
C255 C254 1.362 . S
H256 C262 0.930 . S
H257 C265 0.930 . S
H258 C266 0.930 . S
H259 C267 0.930 . S
H260 C270 0.930 . S
H261 C271 0.930 . S
C262 H256 0.930 . S
C262 C263 1.355 . S
C262 C264 1.415 . S
C263 C262 1.355 . S
C263 C265 1.419 . S
C264 C262 1.415 . S
C264 C269 1.425 . S
C264 C271 1.409 . S
C265 H257 0.930 . S
C265 C263 1.419 . S
C265 C266 1.362 . S
C266 H258 0.930 . S
C266 C265 1.362 . S
C266 C269 1.409 . S
C267 H259 0.930 . S
C267 C268 1.355 . S
C267 C269 1.415 . S
C268 C267 1.355 . S
C268 C270 1.419 . S
C269 C264 1.425 . S
C269 C266 1.409 . S
C269 C267 1.415 . S
C270 H260 0.930 . S
C270 C268 1.419 . S
C270 C271 1.362 . S
C271 H261 0.930 . S
C271 C264 1.409 . S
C271 C270 1.362 . S
H272 C278 0.930 . S
H273 C281 0.930 . S
H274 C282 0.930 . S
H275 C283 0.930 . S
H276 C286 0.930 . S
H277 C287 0.930 . S
C278 H272 0.930 . S
C278 C279 1.355 . S
C278 C280 1.415 . S
C279 C278 1.355 . S
C279 C281 1.419 1_455 S
C280 C278 1.415 . S
C280 C285 1.425 1_455 S
C280 C287 1.409 . S
C281 H273 0.930 . S
C281 C279 1.419 1_655 S
C281 C282 1.362 . S
C282 H274 0.930 . S
C282 C281 1.362 . S
C282 C285 1.409 . S
C283 H275 0.930 . S
C283 C284 1.355 1_655 S
C283 C285 1.415 . S
C284 C283 1.355 1_455 S
C284 C286 1.419 . S
C285 C280 1.425 1_655 S
C285 C282 1.409 . S
C285 C283 1.415 . S
C286 H276 0.930 . S
C286 C284 1.419 . S
C286 C287 1.362 . S
C287 H277 0.930 . S
C287 C280 1.409 . S
C287 C286 1.362 . S
H288 C294 0.930 . S
H289 C297 0.930 . S
H290 C298 0.930 . S
H291 C299 0.930 . S
H292 C302 0.930 . S
H293 C303 0.930 . S
C294 H288 0.930 . S
C294 C295 1.355 . S
C294 C296 1.415 . S
C295 C294 1.355 . S
C295 C297 1.419 . S
C296 C294 1.415 . S
C296 C301 1.425 . S
C296 C303 1.409 . S
C297 H289 0.930 . S
C297 C295 1.419 . S
C297 C298 1.362 . S
C298 H290 0.930 . S
C298 C297 1.362 . S
C298 C301 1.409 . S
C299 H291 0.930 . S
C299 C300 1.355 . S
C299 C301 1.415 . S
C300 C299 1.355 . S
C300 C302 1.419 . S
C301 C296 1.425 . S
C301 C298 1.409 . S
C301 C299 1.415 . S
C302 H292 0.930 . S
C302 C300 1.419 . S
C302 C303 1.362 . S
C303 H293 0.930 . S
C303 C296 1.409 . S
C303 C302 1.362 . S
H304 C310 0.930 . S
H305 C313 0.930 . S
H306 C314 0.930 . S
H307 C315 0.930 . S
H308 C318 0.930 . S
H309 C319 0.930 . S
C310 H304 0.930 . S
C310 C311 1.355 . S
C310 C312 1.415 . S
C311 C310 1.355 . S
C311 C313 1.419 . S
C312 C310 1.415 . S
C312 C317 1.425 . S
C312 C319 1.409 . S
C313 H305 0.930 . S
C313 C311 1.419 . S
C313 C314 1.362 . S
C314 H306 0.930 . S
C314 C313 1.362 . S
C314 C317 1.409 . S
C315 H307 0.930 . S
C315 C316 1.355 . S
C315 C317 1.415 . S
C316 C315 1.355 . S
C316 C318 1.419 . S
C317 C312 1.425 . S
C317 C314 1.409 . S
C317 C315 1.415 . S
C318 H308 0.930 . S
C318 C316 1.419 . S
C318 C319 1.362 . S
C319 H309 0.930 . S
C319 C312 1.409 . S
C319 C318 1.362 . S
H320 C326 0.930 . S
H321 C329 0.930 . S
H322 C330 0.930 . S
H323 C331 0.930 . S
H324 C334 0.930 . S
H325 C335 0.930 . S
C326 H320 0.930 . S
C326 C327 1.355 . S
C326 C328 1.415 . S
C327 C326 1.355 . S
C327 C329 1.419 . S
C328 C326 1.415 . S
C328 C333 1.425 . S
C328 C335 1.409 1_455 S
C329 H321 0.930 . S
C329 C327 1.419 . S
C329 C330 1.362 . S
C330 H322 0.930 . S
C330 C329 1.362 . S
C330 C333 1.409 . S
C331 H323 0.930 . S
C331 C332 1.355 . S
C331 C333 1.415 1_655 S
C332 C331 1.355 . S
C332 C334 1.419 . S
C333 C328 1.425 . S
C333 C330 1.409 . S
C333 C331 1.415 1_455 S
C334 H324 0.930 . S
C334 C332 1.419 . S
C334 C335 1.362 . S
C335 H325 0.930 . S
C335 C328 1.409 1_655 S
C335 C334 1.362 . S
H336 C342 0.930 . S
H337 C345 0.930 . S
H338 C346 0.930 . S
H339 C347 0.930 . S
H340 C350 0.930 . S
H341 C351 0.930 . S
C342 H336 0.930 . S
C342 C343 1.355 . S
C342 C344 1.415 . S
C343 C342 1.355 . S
C343 C345 1.419 1_565 S
C344 C342 1.415 . S
C344 C349 1.425 1_565 S
C344 C351 1.409 . S
C345 H337 0.930 . S
C345 C343 1.419 1_545 S
C345 C346 1.362 . S
C346 H338 0.930 . S
C346 C345 1.362 . S
C346 C349 1.409 . S
C347 H339 0.930 . S
C347 C348 1.355 . S
C347 C349 1.415 . S
C348 C347 1.355 . S
C348 C350 1.419 1_545 S
C349 C344 1.425 1_545 S
C349 C346 1.409 . S
C349 C347 1.415 . S
C350 H340 0.930 . S
C350 C348 1.419 1_565 S
C350 C351 1.362 . S
C351 H341 0.930 . S
C351 C344 1.409 . S
C351 C350 1.362 . S
H352 C358 0.930 . S
H353 C361 0.930 . S
H354 C362 0.930 . S
H355 C363 0.930 . S
H356 C366 0.930 . S
H357 C367 0.930 . S
C358 H352 0.930 . S
C358 C359 1.355 . S
C358 C360 1.415 . S
C359 C358 1.355 . S
C359 C361 1.419 . S
C360 C358 1.415 . S
C360 C365 1.425 . S
C360 C367 1.409 . S
C361 H353 0.930 . S
C361 C359 1.419 . S
C361 C362 1.362 . S
C362 H354 0.930 . S
C362 C361 1.362 . S
C362 C365 1.409 . S
C363 H355 0.930 . S
C363 C364 1.355 . S
C363 C365 1.415 . S
C364 C363 1.355 . S
C364 C366 1.419 . S
C365 C360 1.425 . S
C365 C362 1.409 . S
C365 C363 1.415 . S
C366 H356 0.930 . S
C366 C364 1.419 . S
C366 C367 1.362 . S
C367 H357 0.930 . S
C367 C360 1.409 . S
C367 C366 1.362 . S
H368 C374 0.930 1_545 S
H369 C377 0.930 . S
H370 C378 0.930 . S
H371 C379 0.930 1_565 S
H372 C382 0.930 . S
H373 C383 0.930 . S
C374 H368 0.930 1_565 S
C374 C375 1.355 . S
C374 C376 1.415 1_565 S
C375 C374 1.355 . S
C375 C377 1.419 . S
C376 C374 1.415 1_545 S
C376 C381 1.425 1_544 S
C376 C383 1.409 1_554 S
C377 H369 0.930 . S
C377 C375 1.419 . S
C377 C378 1.362 . S
C378 H370 0.930 . S
C378 C377 1.362 . S
C378 C381 1.409 1_554 S
C379 H371 0.930 1_545 S
C379 C380 1.355 . S
C379 C381 1.415 1_545 S
C380 C379 1.355 . S
C380 C382 1.419 . S
C381 C376 1.425 1_566 S
C381 C378 1.409 1_556 S
C381 C379 1.415 1_565 S
C382 H372 0.930 . S
C382 C380 1.419 . S
C382 C383 1.362 . S
C383 H373 0.930 . S
C383 C376 1.409 1_556 S
C383 C382 1.362 . S
H384 C390 0.930 . S
H385 C393 0.930 . S
H386 C394 0.930 . S
H387 C395 0.930 . S
H388 C398 0.930 . S
H389 C399 0.930 . S
C390 H384 0.930 . S
C390 C391 1.355 . S
C390 C392 1.415 . S
C391 C390 1.355 . S
C391 C393 1.419 . S
C392 C390 1.415 . S
C392 C397 1.425 . S
C392 C399 1.409 . S
C393 H385 0.930 . S
C393 C391 1.419 . S
C393 C394 1.362 . S
C394 H386 0.930 . S
C394 C393 1.362 . S
C394 C397 1.409 . S
C395 H387 0.930 . S
C395 C396 1.355 . S
C395 C397 1.415 . S
C396 C395 1.355 . S
C396 C398 1.419 . S
C397 C392 1.425 . S
C397 C394 1.409 . S
C397 C395 1.415 . S
C398 H388 0.930 . S
C398 C396 1.419 . S
C398 C399 1.362 . S
C399 H389 0.930 . S
C399 C392 1.409 . S
C399 C398 1.362 . S
H400 C406 0.930 . S
H401 C409 0.930 . S
H402 C410 0.930 . S
H403 C411 0.930 . S
H404 C414 0.930 . S
H405 C415 0.930 . S
C406 H400 0.930 . S
C406 C407 1.355 . S
C406 C408 1.415 . S
C407 C406 1.355 . S
C407 C409 1.419 . S
C408 C406 1.415 . S
C408 C413 1.425 . S
C408 C415 1.409 . S
C409 H401 0.930 . S
C409 C407 1.419 . S
C409 C410 1.362 . S
C410 H402 0.930 . S
C410 C409 1.362 . S
C410 C413 1.409 . S
C411 H403 0.930 . S
C411 C412 1.355 . S
C411 C413 1.415 . S
C412 C411 1.355 . S
C412 C414 1.419 . S
C413 C408 1.425 . S
C413 C410 1.409 . S
C413 C411 1.415 . S
C414 H404 0.930 . S
C414 C412 1.419 . S
C414 C415 1.362 . S
C415 H405 0.930 . S
C415 C408 1.409 . S
C415 C414 1.362 . S
H416 C422 0.930 . S
H417 C425 0.930 . S
H418 C426 0.930 . S
H419 C427 0.930 . S
H420 C430 0.930 . S
H421 C431 0.930 . S
C422 H416 0.930 . S
C422 C423 1.355 . S
C422 C424 1.415 . S
C423 C422 1.355 . S
C423 C425 1.419 . S
C424 C422 1.415 . S
C424 C429 1.425 . S
C424 C431 1.409 . S
C425 H417 0.930 . S
C425 C423 1.419 . S
C425 C426 1.362 . S
C426 H418 0.930 . S
C426 C425 1.362 . S
C426 C429 1.409 . S
C427 H419 0.930 . S
C427 C428 1.355 . S
C427 C429 1.415 . S
C428 C427 1.355 . S
C428 C430 1.419 . S
C429 C424 1.425 . S
C429 C426 1.409 . S
C429 C427 1.415 . S
C430 H420 0.930 . S
C430 C428 1.419 . S
C430 C431 1.362 . S
C431 H421 0.930 . S
C431 C424 1.409 . S
C431 C430 1.362 . S
H432 C438 0.930 . S
H433 C441 0.930 . S
H434 C442 0.930 . S
H435 C443 0.930 . S
H436 C446 0.930 . S
H437 C447 0.930 . S
C438 H432 0.930 . S
C438 C439 1.355 . S
C438 C440 1.415 . S
C439 C438 1.355 . S
C439 C441 1.419 . S
C440 C438 1.415 . S
C440 C445 1.425 1_556 S
C440 C447 1.409 1_556 S
C441 H433 0.930 . S
C441 C439 1.419 . S
C441 C442 1.362 . S
C442 H434 0.930 . S
C442 C441 1.362 . S
C442 C445 1.409 1_556 S
C443 H435 0.930 . S
C443 C444 1.355 . S
C443 C445 1.415 . S
C444 C443 1.355 . S
C444 C446 1.419 . S
C445 C440 1.425 1_554 S
C445 C442 1.409 1_554 S
C445 C443 1.415 . S
C446 H436 0.930 . S
C446 C444 1.419 . S
C446 C447 1.362 . S
C447 H437 0.930 . S
C447 C440 1.409 1_554 S
C447 C446 1.362 . S
H448 C454 0.930 . S
H449 C457 0.930 . S
H450 C458 0.930 1_655 S
H451 C459 0.930 . S
H452 C462 0.930 . S
H453 C463 0.930 . S
C454 H448 0.930 . S
C454 C455 1.355 . S
C454 C456 1.415 . S
C455 C454 1.355 . S
C455 C457 1.419 . S
C456 C454 1.415 . S
C456 C461 1.425 . S
C456 C463 1.409 . S
C457 H449 0.930 . S
C457 C455 1.419 . S
C457 C458 1.362 . S
C458 H450 0.930 1_455 S
C458 C457 1.362 . S
C458 C461 1.409 . S
C459 H451 0.930 . S
C459 C460 1.355 . S
C459 C461 1.415 . S
C460 C459 1.355 . S
C460 C462 1.419 . S
C461 C456 1.425 . S
C461 C458 1.409 . S
C461 C459 1.415 . S
C462 H452 0.930 . S
C462 C460 1.419 . S
C462 C463 1.362 . S
C463 H453 0.930 . S
C463 C456 1.409 . S
C463 C462 1.362 . S
H464 C470 0.930 . S
H465 C473 0.930 . S
H466 C474 0.930 . S
H467 C475 0.930 . S
H468 C478 0.930 . S
H469 C479 0.930 . S
C470 H464 0.930 . S
C470 C471 1.355 . S
C470 C472 1.415 . S
C471 C470 1.355 . S
C471 C473 1.419 . S
C472 C470 1.415 . S
C472 C477 1.425 . S
C472 C479 1.409 . S
C473 H465 0.930 . S
C473 C471 1.419 . S
C473 C474 1.362 . S
C474 H466 0.930 . S
C474 C473 1.362 . S
C474 C477 1.409 . S
C475 H467 0.930 . S
C475 C476 1.355 . S
C475 C477 1.415 . S
C476 C475 1.355 . S
C476 C478 1.419 . S
C477 C472 1.425 . S
C477 C474 1.409 . S
C477 C475 1.415 . S
C478 H468 0.930 . S
C478 C476 1.419 . S
C478 C479 1.362 . S
C479 H469 0.930 . S
C479 C472 1.409 . S
C479 C478 1.362 . S
H480 C486 0.930 . S
H481 C489 0.930 . S
H482 C490 0.930 . S
H483 C491 0.930 . S
H484 C494 0.930 . S
H485 C495 0.930 . S
C486 H480 0.930 . S
C486 C487 1.355 . S
C486 C488 1.415 . S
C487 C486 1.355 . S
C487 C489 1.419 . S
C488 C486 1.415 . S
C488 C493 1.425 . S
C488 C495 1.409 . S
C489 H481 0.930 . S
C489 C487 1.419 . S
C489 C490 1.362 . S
C490 H482 0.930 . S
C490 C489 1.362 . S
C490 C493 1.409 . S
C491 H483 0.930 . S
C491 C492 1.355 . S
C491 C493 1.415 . S
C492 C491 1.355 . S
C492 C494 1.419 . S
C493 C488 1.425 . S
C493 C490 1.409 . S
C493 C491 1.415 . S
C494 H484 0.930 . S
C494 C492 1.419 . S
C494 C495 1.362 . S
C495 H485 0.930 . S
C495 C488 1.409 . S
C495 C494 1.362 . S
H496 C502 0.930 . S
H497 C505 0.930 1_565 S
H498 C506 0.930 . S
H499 C507 0.930 . S
H500 C510 0.930 . S
H501 C511 0.930 . S
C502 H496 0.930 . S
C502 C503 1.355 . S
C502 C504 1.415 . S
C503 C502 1.355 . S
C503 C505 1.419 . S
C504 C502 1.415 . S
C504 C509 1.425 . S
C504 C511 1.409 . S
C505 H497 0.930 1_545 S
C505 C503 1.419 . S
C505 C506 1.362 . S
C506 H498 0.930 . S
C506 C505 1.362 . S
C506 C509 1.409 . S
C507 H499 0.930 . S
C507 C508 1.355 . S
C507 C509 1.415 . S
C508 C507 1.355 . S
C508 C510 1.419 . S
C509 C504 1.425 . S
C509 C506 1.409 . S
C509 C507 1.415 . S
C510 H500 0.930 . S
C510 C508 1.419 . S
C510 C511 1.362 . S
C511 H501 0.930 . S
C511 C504 1.409 . S
C511 C510 1.362 . S
H512 C518 0.930 . S
H513 C521 0.930 1_565 S
H514 C522 0.930 . S
H515 C523 0.930 . S
H516 C526 0.930 . S
H517 C527 0.930 . S
C518 H512 0.930 . S
C518 C519 1.355 . S
C518 C520 1.415 . S
C519 C518 1.355 . S
C519 C521 1.419 . S
C520 C518 1.415 . S
C520 C525 1.425 . S
C520 C527 1.409 . S
C521 H513 0.930 1_545 S
C521 C519 1.419 . S
C521 C522 1.362 . S
C522 H514 0.930 . S
C522 C521 1.362 . S
C522 C525 1.409 . S
C523 H515 0.930 . S
C523 C524 1.355 . S
C523 C525 1.415 . S
C524 C523 1.355 . S
C524 C526 1.419 . S
C525 C520 1.425 . S
C525 C522 1.409 . S
C525 C523 1.415 . S
C526 H516 0.930 . S
C526 C524 1.419 . S
C526 C527 1.362 . S
C527 H517 0.930 . S
C527 C520 1.409 . S
C527 C526 1.362 . S
H528 C534 0.930 . S
H529 C537 0.930 . S
H530 C538 0.930 . S
H531 C539 0.930 . S
H532 C542 0.930 . S
H533 C543 0.930 . S
C534 H528 0.930 . S
C534 C535 1.355 . S
C534 C536 1.415 . S
C535 C534 1.355 . S
C535 C537 1.419 . S
C536 C534 1.415 . S
C536 C541 1.425 . S
C536 C543 1.409 . S
C537 H529 0.930 . S
C537 C535 1.419 . S
C537 C538 1.362 . S
C538 H530 0.930 . S
C538 C537 1.362 . S
C538 C541 1.409 . S
C539 H531 0.930 . S
C539 C540 1.355 . S
C539 C541 1.415 . S
C540 C539 1.355 . S
C540 C542 1.419 . S
C541 C536 1.425 . S
C541 C538 1.409 . S
C541 C539 1.415 . S
C542 H532 0.930 . S
C542 C540 1.419 . S
C542 C543 1.362 . S
C543 H533 0.930 . S
C543 C536 1.409 . S
C543 C542 1.362 . S
H544 C550 0.930 . S
H545 C553 0.930 1_565 S
H546 C554 0.930 . S
H547 C555 0.930 . S
H548 C558 0.930 . S
H549 C559 0.930 . S
C550 H544 0.930 . S
C550 C551 1.355 . S
C550 C552 1.415 . S
C551 C550 1.355 . S
C551 C553 1.419 . S
C552 C550 1.415 . S
C552 C557 1.425 . S
C552 C559 1.409 . S
C553 H545 0.930 1_545 S
C553 C551 1.419 . S
C553 C554 1.362 . S
C554 H546 0.930 . S
C554 C553 1.362 . S
C554 C557 1.409 . S
C555 H547 0.930 . S
C555 C556 1.355 . S
C555 C557 1.415 . S
C556 C555 1.355 . S
C556 C558 1.419 . S
C557 C552 1.425 . S
C557 C554 1.409 . S
C557 C555 1.415 . S
C558 H548 0.930 . S
C558 C556 1.419 . S
C558 C559 1.362 . S
C559 H549 0.930 . S
C559 C552 1.409 . S
C559 C558 1.362 . S
H560 C566 0.930 . S
H561 C569 0.930 . S
H562 C570 0.930 . S
H563 C571 0.930 . S
H564 C574 0.930 . S
H565 C575 0.930 . S
C566 H560 0.930 . S
C566 C567 1.355 . S
C566 C568 1.415 . S
C567 C566 1.355 . S
C567 C569 1.419 . S
C568 C566 1.415 . S
C568 C573 1.425 . S
C568 C575 1.409 . S
C569 H561 0.930 . S
C569 C567 1.419 . S
C569 C570 1.362 . S
C570 H562 0.930 . S
C570 C569 1.362 . S
C570 C573 1.409 . S
C571 H563 0.930 . S
C571 C572 1.355 . S
C571 C573 1.415 . S
C572 C571 1.355 . S
C572 C574 1.419 . S
C573 C568 1.425 . S
C573 C570 1.409 . S
C573 C571 1.415 . S
C574 H564 0.930 . S
C574 C572 1.419 . S
C574 C575 1.362 . S
C575 H565 0.930 . S
C575 C568 1.409 . S
C575 C574 1.362 . S
H576 C582 0.930 . S
H577 C585 0.930 . S
H578 C586 0.930 . S
H579 C587 0.930 . S
H580 C590 0.930 . S
H581 C591 0.930 . S
C582 H576 0.930 . S
C582 C583 1.355 . S
C582 C584 1.415 . S
C583 C582 1.355 . S
C583 C585 1.419 . S
C584 C582 1.415 . S
C584 C589 1.425 . S
C584 C591 1.409 . S
C585 H577 0.930 . S
C585 C583 1.419 . S
C585 C586 1.362 . S
C586 H578 0.930 . S
C586 C585 1.362 . S
C586 C589 1.409 . S
C587 H579 0.930 . S
C587 C588 1.355 . S
C587 C589 1.415 . S
C588 C587 1.355 . S
C588 C590 1.419 . S
C589 C584 1.425 . S
C589 C586 1.409 . S
C589 C587 1.415 . S
C590 H580 0.930 . S
C590 C588 1.419 . S
C590 C591 1.362 . S
C591 H581 0.930 . S
C591 C584 1.409 . S
C591 C590 1.362 . S
H592 C598 0.930 . S
H593 C601 0.930 . S
H594 C602 0.930 . S
H595 C603 0.930 . S
H596 C606 0.930 . S
H597 C607 0.930 . S
C598 H592 0.930 . S
C598 C599 1.355 . S
C598 C600 1.415 . S
C599 C598 1.355 . S
C599 C601 1.419 . S
C600 C598 1.415 . S
C600 C605 1.425 . S
C600 C607 1.409 . S
C601 H593 0.930 . S
C601 C599 1.419 . S
C601 C602 1.362 . S
C602 H594 0.930 . S
C602 C601 1.362 . S
C602 C605 1.409 . S
C603 H595 0.930 . S
C603 C604 1.355 . S
C603 C605 1.415 . S
C604 C603 1.355 . S
C604 C606 1.419 . S
C605 C600 1.425 . S
C605 C602 1.409 . S
C605 C603 1.415 . S
C606 H596 0.930 . S
C606 C604 1.419 . S
C606 C607 1.362 . S
C607 H597 0.930 . S
C607 C600 1.409 . S
C607 C606 1.362 . S
H608 C614 0.930 . S
H609 C617 0.930 . S
H610 C618 0.930 . S
H611 C619 0.930 . S
H612 C622 0.930 . S
H613 C623 0.930 . S
C614 H608 0.930 . S
C614 C615 1.355 . S
C614 C616 1.415 . S
C615 C614 1.355 . S
C615 C617 1.419 . S
C616 C614 1.415 . S
C616 C621 1.425 . S
C616 C623 1.409 . S
C617 H609 0.930 . S
C617 C615 1.419 . S
C617 C618 1.362 . S
C618 H610 0.930 . S
C618 C617 1.362 . S
C618 C621 1.409 . S
C619 H611 0.930 . S
C619 C620 1.355 . S
C619 C621 1.415 . S
C620 C619 1.355 . S
C620 C622 1.419 . S
C621 C616 1.425 . S
C621 C618 1.409 . S
C621 C619 1.415 . S
C622 H612 0.930 . S
C622 C620 1.419 . S
C622 C623 1.362 . S
C623 H613 0.930 . S
C623 C616 1.409 . S
C623 C622 1.362 . S
H624 C630 0.930 . S
H625 C633 0.930 . S
H626 C634 0.930 . S
H627 C635 0.930 . S
H628 C638 0.930 . S
H629 C639 0.930 . S
C630 H624 0.930 . S
C630 C631 1.355 . S
C630 C632 1.415 . S
C631 C630 1.355 . S
C631 C633 1.419 . S
C632 C630 1.415 . S
C632 C637 1.425 . S
C632 C639 1.409 . S
C633 H625 0.930 . S
C633 C631 1.419 . S
C633 C634 1.362 . S
C634 H626 0.930 . S
C634 C633 1.362 . S
C634 C637 1.409 . S
C635 H627 0.930 . S
C635 C636 1.355 . S
C635 C637 1.415 . S
C636 C635 1.355 . S
C636 C638 1.419 . S
C637 C632 1.425 . S
C637 C634 1.409 . S
C637 C635 1.415 . S
C638 H628 0.930 . S
C638 C636 1.419 . S
C638 C639 1.362 . S
C639 H629 0.930 . S
C639 C632 1.409 . S
C639 C638 1.362 . S
H640 C646 0.930 . S
H641 C649 0.930 . S
H642 C650 0.930 . S
H643 C651 0.930 . S
H644 C654 0.930 . S
H645 C655 0.930 . S
C646 H640 0.930 . S
C646 C647 1.355 . S
C646 C648 1.415 . S
C647 C646 1.355 . S
C647 C649 1.419 . S
C648 C646 1.415 . S
C648 C653 1.425 . S
C648 C655 1.409 . S
C649 H641 0.930 . S
C649 C647 1.419 . S
C649 C650 1.362 . S
C650 H642 0.930 . S
C650 C649 1.362 . S
C650 C653 1.409 . S
C651 H643 0.930 . S
C651 C652 1.355 . S
C651 C653 1.415 . S
C652 C651 1.355 . S
C652 C654 1.419 . S
C653 C648 1.425 . S
C653 C650 1.409 . S
C653 C651 1.415 . S
C654 H644 0.930 . S
C654 C652 1.419 . S
C654 C655 1.362 . S
C655 H645 0.930 . S
C655 C648 1.409 . S
C655 C654 1.362 . S
H656 C662 0.930 . S
H657 C665 0.930 . S
H658 C666 0.930 . S
H659 C667 0.930 . S
H660 C670 0.930 . S
H661 C671 0.930 . S
C662 H656 0.930 . S
C662 C663 1.355 . S
C662 C664 1.415 . S
C663 C662 1.355 . S
C663 C665 1.419 . S
C664 C662 1.415 . S
C664 C669 1.425 . S
C664 C671 1.409 . S
C665 H657 0.930 . S
C665 C663 1.419 . S
C665 C666 1.362 . S
C666 H658 0.930 . S
C666 C665 1.362 . S
C666 C669 1.409 . S
C667 H659 0.930 . S
C667 C668 1.355 . S
C667 C669 1.415 . S
C668 C667 1.355 . S
C668 C670 1.419 . S
C669 C664 1.425 . S
C669 C666 1.409 . S
C669 C667 1.415 . S
C670 H660 0.930 . S
C670 C668 1.419 . S
C670 C671 1.362 . S
C671 H661 0.930 . S
C671 C664 1.409 . S
C671 C670 1.362 . S
H672 C678 0.930 . S
H673 C681 0.930 . S
H674 C682 0.930 . S
H675 C683 0.930 . S
H676 C686 0.930 . S
H677 C687 0.930 . S
C678 H672 0.930 . S
C678 C679 1.355 . S
C678 C680 1.415 . S
C679 C678 1.355 . S
C679 C681 1.419 . S
C680 C678 1.415 . S
C680 C685 1.425 . S
C680 C687 1.409 . S
C681 H673 0.930 . S
C681 C679 1.419 . S
C681 C682 1.362 . S
C682 H674 0.930 . S
C682 C681 1.362 . S
C682 C685 1.409 . S
C683 H675 0.930 . S
C683 C684 1.355 . S
C683 C685 1.415 . S
C684 C683 1.355 . S
C684 C686 1.419 . S
C685 C680 1.425 . S
C685 C682 1.409 . S
C685 C683 1.415 . S
C686 H676 0.930 . S
C686 C684 1.419 . S
C686 C687 1.362 . S
C687 H677 0.930 . S
C687 C680 1.409 . S
C687 C686 1.362 . S
H688 C694 0.930 . S
H689 C697 0.930 . S
H690 C698 0.930 . S
H691 C699 0.930 . S
H692 C702 0.930 . S
H693 C703 0.930 . S
C694 H688 0.930 . S
C694 C695 1.355 . S
C694 C696 1.415 . S
C695 C694 1.355 . S
C695 C697 1.419 . S
C696 C694 1.415 . S
C696 C701 1.425 . S
C696 C703 1.409 . S
C697 H689 0.930 . S
C697 C695 1.419 . S
C697 C698 1.362 . S
C698 H690 0.930 . S
C698 C697 1.362 . S
C698 C701 1.409 . S
C699 H691 0.930 . S
C699 C700 1.355 . S
C699 C701 1.415 . S
C700 C699 1.355 . S
C700 C702 1.419 . S
C701 C696 1.425 . S
C701 C698 1.409 . S
C701 C699 1.415 . S
C702 H692 0.930 . S
C702 C700 1.419 . S
C702 C703 1.362 . S
C703 H693 0.930 . S
C703 C696 1.409 . S
C703 C702 1.362 . S
H704 C710 0.930 . S
H705 C713 0.930 . S
H706 C714 0.930 . S
H707 C715 0.930 . S
H708 C718 0.930 . S
H709 C719 0.930 . S
C710 H704 0.930 . S
C710 C711 1.355 . S
C710 C712 1.415 . S
C711 C710 1.355 . S
C711 C713 1.419 . S
C712 C710 1.415 . S
C712 C717 1.425 . S
C712 C719 1.409 . S
C713 H705 0.930 . S
C713 C711 1.419 . S
C713 C714 1.362 . S
C714 H706 0.930 . S
C714 C713 1.362 . S
C714 C717 1.409 . S
C715 H707 0.930 . S
C715 C716 1.355 . S
C715 C717 1.415 . S
C716 C715 1.355 . S
C716 C718 1.419 . S
C717 C712 1.425 . S
C717 C714 1.409 . S
C717 C715 1.415 . S
C718 H708 0.930 . S
C718 C716 1.419 . S
C718 C719 1.362 . S
C719 H709 0.930 . S
C719 C712 1.409 . S
C719 C718 1.362 . S
C215 C0 1.155 . S
C220 C169 1.164 . S
C231 C143 1.147 . S
C236 C13 1.153 . S
C247 C156 1.181 . S
C252 C26 1.175 . S
C263 C130 1.149 . S
C268 C39 1.157 . S
C279 C52 1.146 . S
C284 C195 1.147 . S
C295 C65 1.149 . S
C300 C117 1.146 . S
C311 C182 1.172 . S
C316 C78 1.179 . S
C327 C91 1.182 . S
C332 C104 1.180 . S
C343 C60 1.532 . S
C348 C8 1.524 . S
C359 C21 1.526 . S
C364 C73 1.559 . S
C375 C34 1.529 . S
C380 C86 1.563 . S
C391 C99 1.567 . S
C396 C47 1.532 . S
C407 C112 1.573 . S
C412 C138 1.564 . S
C423 C125 1.554 . S
C428 C151 1.523 . S
C439 C190 1.526 . S
C444 C164 1.560 . S
C455 C177 1.556 . S
C460 C203 1.575 . S
C471 C70 1.275 . S
C476 C5 1.261 . S
C487 C18 1.237 . S
C492 C83 1.288 . S
C503 C31 1.278 . S
C508 C96 1.259 . S
C519 C57 1.304 . S
C524 C44 1.228 . S
C535 C62 1.282 . S
C540 C140 1.302 . S
C551 C36 1.330 . S
C556 C114 1.292 . S
C567 C153 1.344 . S
C572 C88 1.307 . S
C583 C127 1.282 . S
C588 C10 1.306 . S
C599 C109 1.223 . S
C604 C161 1.307 . S
C615 C135 1.307 . S
C620 C200 1.224 . S
C631 C174 1.223 . S
C636 C122 1.307 . S
C647 C148 1.307 . S
C652 C187 1.224 . S
C663 C192 1.352 . S
C668 C23 1.328 . S
C679 C179 1.352 . S
C684 C75 1.336 . S
C695 C205 1.322 . S
C700 C49 1.351 . S
C711 C166 1.320 . S
C716 C101 1.286 . S
