# Generated by pormake.
# Topology wme, (6)-cn, num edge types: 1
# Building blocks:
#     Node 0, Type 0, BuildingBlock: KUMJIN_clean_sbu_1, # of connection points: 6
#     Node 1, Type 0, BuildingBlock: KUMJIN_clean_sbu_1, # of connection points: 6
#     Node 2, Type 0, BuildingBlock: KUMJIN_clean_sbu_1, # of connection points: 6
#     Node 3, Type 0, BuildingBlock: KUMJIN_clean_sbu_1, # of connection points: 6
#     Node 4, Type 0, BuildingBlock: KUMJIN_clean_sbu_1, # of connection points: 6
#     Node 5, Type 0, BuildingBlock: KUMJIN_clean_sbu_1, # of connection points: 6
#     Node 6, Type 0, BuildingBlock: KUMJIN_clean_sbu_1, # of connection points: 6
#     Node 7, Type 0, BuildingBlock: KUMJIN_clean_sbu_1, # of connection points: 6
#     Node 8, Type 0, BuildingBlock: KUMJIN_clean_sbu_1, # of connection points: 6
#     Node 9, Type 0, BuildingBlock: KUMJIN_clean_sbu_1, # of connection points: 6
#     Node 10, Type 0, BuildingBlock: KUMJIN_clean_sbu_1, # of connection points: 6
#     Node 11, Type 0, BuildingBlock: KUMJIN_clean_sbu_1, # of connection points: 6
#     Edge 12, Type (0, 0), BuildingBlock: XIVTED_clean_linker_0, # of connection points: 2
#     Edge 13, Type (0, 0), BuildingBlock: XIVTED_clean_linker_0, # of connection points: 2
#     Edge 14, Type (0, 0), BuildingBlock: XIVTED_clean_linker_0, # of connection points: 2
#     Edge 15, Type (0, 0), BuildingBlock: XIVTED_clean_linker_0, # of connection points: 2
#     Edge 16, Type (0, 0), BuildingBlock: XIVTED_clean_linker_0, # of connection points: 2
#     Edge 17, Type (0, 0), BuildingBlock: XIVTED_clean_linker_0, # of connection points: 2
#     Edge 18, Type (0, 0), BuildingBlock: XIVTED_clean_linker_0, # of connection points: 2
#     Edge 19, Type (0, 0), BuildingBlock: XIVTED_clean_linker_0, # of connection points: 2
#     Edge 20, Type (0, 0), BuildingBlock: XIVTED_clean_linker_0, # of connection points: 2
#     Edge 21, Type (0, 0), BuildingBlock: XIVTED_clean_linker_0, # of connection points: 2
#     Edge 22, Type (0, 0), BuildingBlock: XIVTED_clean_linker_0, # of connection points: 2
#     Edge 23, Type (0, 0), BuildingBlock: XIVTED_clean_linker_0, # of connection points: 2
#     Edge 24, Type (0, 0), BuildingBlock: XIVTED_clean_linker_0, # of connection points: 2
#     Edge 25, Type (0, 0), BuildingBlock: XIVTED_clean_linker_0, # of connection points: 2
#     Edge 26, Type (0, 0), BuildingBlock: XIVTED_clean_linker_0, # of connection points: 2
#     Edge 27, Type (0, 0), BuildingBlock: XIVTED_clean_linker_0, # of connection points: 2
#     Edge 28, Type (0, 0), BuildingBlock: XIVTED_clean_linker_0, # of connection points: 2
#     Edge 29, Type (0, 0), BuildingBlock: XIVTED_clean_linker_0, # of connection points: 2
#     Edge 30, Type (0, 0), BuildingBlock: XIVTED_clean_linker_0, # of connection points: 2
#     Edge 31, Type (0, 0), BuildingBlock: XIVTED_clean_linker_0, # of connection points: 2
#     Edge 32, Type (0, 0), BuildingBlock: XIVTED_clean_linker_0, # of connection points: 2
#     Edge 33, Type (0, 0), BuildingBlock: XIVTED_clean_linker_0, # of connection points: 2
#     Edge 34, Type (0, 0), BuildingBlock: XIVTED_clean_linker_0, # of connection points: 2
#     Edge 35, Type (0, 0), BuildingBlock: XIVTED_clean_linker_0, # of connection points: 2
#     Edge 36, Type (0, 0), BuildingBlock: XIVTED_clean_linker_0, # of connection points: 2
#     Edge 37, Type (0, 0), BuildingBlock: XIVTED_clean_linker_0, # of connection points: 2
#     Edge 38, Type (0, 0), BuildingBlock: XIVTED_clean_linker_0, # of connection points: 2
#     Edge 39, Type (0, 0), BuildingBlock: XIVTED_clean_linker_0, # of connection points: 2
#     Edge 40, Type (0, 0), BuildingBlock: XIVTED_clean_linker_0, # of connection points: 2
#     Edge 41, Type (0, 0), BuildingBlock: XIVTED_clean_linker_0, # of connection points: 2
#     Edge 42, Type (0, 0), BuildingBlock: XIVTED_clean_linker_0, # of connection points: 2
#     Edge 43, Type (0, 0), BuildingBlock: XIVTED_clean_linker_0, # of connection points: 2
#     Edge 44, Type (0, 0), BuildingBlock: XIVTED_clean_linker_0, # of connection points: 2
#     Edge 45, Type (0, 0), BuildingBlock: XIVTED_clean_linker_0, # of connection points: 2
#     Edge 46, Type (0, 0), BuildingBlock: XIVTED_clean_linker_0, # of connection points: 2
#     Edge 47, Type (0, 0), BuildingBlock: XIVTED_clean_linker_0, # of connection points: 2
# Relax obj value: 0.062
# Max RMSD: 0.171
# Mean RMSD: 0.171
data_MOF--net-wme--node1-KUMJIN_clean_sbu_1--edge1-XIVTED_clean_linker_0
_symmetry_space_group_name_H-M    P1
_symmetry_Int_Tables_number       1
_symmetry_cell_setting            triclinic
loop_
_symmetry_equiv_pos_as_xyz
'x, y, z'
_cell_length_a     39.398369
_cell_length_b     39.398354
_cell_length_c     53.902241
_cell_angle_alpha  90.112482
_cell_angle_beta   89.934964
_cell_angle_gamma 119.89004
loop_
_atom_site_label
_atom_site_type_symbol
_atom_site_fract_x
_atom_site_fract_y
_atom_site_fract_z
_atom_type_partial_charge
Eu0 Eu 0.24627 0.31023 0.13906 0.0
C1 C 0.11622 0.31923 0.07628 0.0
N2 N 0.1554 0.33877 0.0718 0.0
C3 C 0.14389 0.3256 0.02829 0.0
C4 C 0.08922 0.30166 0.0567 0.0
C5 C 0.16957 0.34243 0.04827 0.0
C6 C 0.10355 0.30507 0.03251 0.0
C7 C 0.06257 0.29499 0.10581 0.0
C8 C 0.10308 0.31578 0.10063 0.0
C9 C 0.03565 0.27765 0.08633 0.0
C10 C 0.04893 0.28093 0.06186 0.0
Eu11 Eu 0.19636 0.36599 0.10661 0.0
N12 N 0.12986 0.33181 0.11927 0.0
C13 C 0.05029 0.292 0.13046 0.0
C14 C 0.11784 0.33087 0.14313 0.0
C15 C 0.07804 0.31039 0.14915 0.0
H16 H 0.2007 0.35878 0.04482 0.0
H17 H 0.06878 0.30923 0.16819 0.0
H18 H 0.2379 0.31611 0.20069 0.0
H19 H 0.37728 0.36331 0.08129 0.0
H20 H 0.13851 0.34655 0.15757 0.0
H21 H 0.01946 0.27609 0.1352 0.0
H22 H 0.30675 0.32612 0.09036 0.0
H23 H 0.15522 0.32854 0.00963 0.0
H24 H 1.00447 0.26147 0.09001 0.0
H25 H 0.02778 0.26718 0.04706 0.0
H26 H 0.28092 0.34875 0.23665 0.0
H27 H 0.08374 0.29197 0.01698 0.0
H28 H 0.42445 0.3991 0.11495 0.0
N29 N 0.2847 0.3379 0.17479 0.0
C30 C 0.32411 0.35822 0.1712 0.0
C31 C 0.29342 0.35183 0.21834 0.0
C32 C 0.3498 0.37685 0.19123 0.0
C33 C 0.26909 0.33383 0.19793 0.0
C34 C 0.33394 0.3736 0.21497 0.0
N35 N 0.31328 0.34321 0.12819 0.0
C36 C 0.32669 0.34282 0.10494 0.0
C37 C 0.37955 0.38185 0.14308 0.0
C38 C 0.33882 0.36081 0.14731 0.0
C39 C 0.39336 0.38328 0.11895 0.0
C40 C 0.36682 0.3633 0.09987 0.0
H41 H 0.35272 0.38752 0.23083 0.0
H42 H 0.41052 0.41268 0.20215 0.0
H43 H 0.43654 0.41697 0.16007 0.0
O44 O 0.24246 0.25589 0.12559 0.0
O45 O 0.27933 0.37768 0.13967 0.0
O46 O 0.26172 0.39399 0.10301 0.0
O47 O 0.24917 0.26901 0.16471 0.0
O48 O 0.23516 0.30143 0.0976 0.0
O49 O 0.23871 0.35777 0.08149 0.0
O50 O 0.19152 0.41523 0.12116 0.0
O51 O 0.16579 0.29951 0.1036 0.0
O52 O 0.17991 0.28191 0.14085 0.0
O53 O 0.19729 0.4102 0.0817 0.0
O54 O 0.2104 0.37619 0.14849 0.0
O55 O 0.20159 0.3167 0.16101 0.0
C56 C 0.28594 0.40264 0.12159 0.0
C57 C 0.20787 0.20337 0.1533 0.0
C58 C 0.17748 0.13211 0.15355 0.0
C59 C 0.14375 0.12962 0.1643 0.0
C60 C 0.17399 0.20006 0.16429 0.0
C61 C 0.14206 0.1634 0.16955 0.0
C62 C 0.20943 0.16926 0.14775 0.0
C63 C 0.24056 0.3253 0.07906 0.0
C64 C 0.24134 0.24246 0.14784 0.0
C65 C 0.39034 0.39811 0.18698 0.0
C66 C 0.40517 0.40058 0.163 0.0
C67 C 0.15654 0.27426 0.12172 0.0
C68 C 0.22076 0.47389 0.0982 0.0
C69 C 0.2298 0.53985 0.10275 0.0
C70 C 0.26906 0.55526 0.09515 0.0
C71 C 0.25999 0.49002 0.09105 0.0
C72 C 0.20589 0.49877 0.10427 0.0
C73 C 0.28398 0.53054 0.08958 0.0
C74 C 0.20471 0.35064 0.16609 0.0
C75 C 0.19483 0.43121 0.09953 0.0
H76 H 0.11855 0.10145 0.1686 0.0
H77 H 0.17231 0.22586 0.16904 0.0
H78 H 0.11601 0.16116 0.17789 0.0
H79 H 0.23565 0.17167 0.1395 0.0
H80 H 0.28831 0.58648 0.09307 0.0
H81 H 0.2719 0.47129 0.08644 0.0
H82 H 0.17577 0.48592 0.11035 0.0
H83 H 0.31421 0.54287 0.08387 0.0
Eu84 Eu 0.9453 0.23746 0.63746 0.0
C85 C 0.7945 0.10886 0.58922 0.0
N86 N 0.81884 0.14605 0.58129 0.0
C87 C 0.81839 0.12286 0.54013 0.0
C88 C 0.78223 0.07688 0.57283 0.0
C89 C 0.82999 0.15363 0.55705 0.0
C90 C 0.79463 0.0843 0.54808 0.0
C91 C 0.75812 0.06425 0.62268 0.0
C92 C 0.78257 0.10272 0.61394 0.0
C93 C 0.74665 0.03232 0.60654 0.0
C94 C 0.75849 0.03862 0.58167 0.0
Eu95 Eu 0.83546 0.19606 0.61069 0.0
N96 N 0.79405 0.1342 0.62925 0.0
C97 C 0.7452 0.05896 0.64729 0.0
C98 C 0.77884 0.12914 0.65262 0.0
C99 C 0.75509 0.09157 0.66218 0.0
H100 H 0.84776 0.18342 0.55072 0.0
H101 H 0.74378 0.08782 0.68089 0.0
H102 H 0.93358 0.22774 0.69984 0.0
H103 H 0.04282 0.36787 0.5846 0.0
H104 H 0.78371 0.15377 0.66387 0.0
H105 H 0.72648 0.02989 0.6547 0.0
H106 H 0.99995 0.29678 0.59202 0.0
H107 H 0.82766 0.12889 0.52096 0.0
H108 H 0.72815 1.00262 0.61303 0.0
H109 H 0.74914 0.01369 0.56942 0.0
H110 H 0.94411 0.26982 0.73621 0.0
H111 H 0.78587 0.06051 0.53495 0.0
H112 H 0.0542 0.41518 0.61832 0.0
N113 N 0.95706 0.2749 0.67412 0.0
C114 C 0.97821 0.31443 0.67128 0.0
C115 C 0.95332 0.28275 0.718 0.0
C116 C 0.98641 0.33975 0.69173 0.0
C117 C 0.94655 0.25889 0.69723 0.0
C118 C 0.97277 0.32337 0.71519 0.0
N119 N 0.98626 0.30447 0.62895 0.0
C120 C 1.00445 0.31746 0.60659 0.0
C121 C 0.01803 0.3703 0.64484 0.0
C122 C 0.99383 0.32964 0.64814 0.0
C123 C 0.03529 0.38414 0.62157 0.0
C124 C 0.02891 0.35754 0.60246 0.0
H125 H 0.97842 0.34181 0.73136 0.0
H126 H 0.01538 0.40033 0.70377 0.0
H127 H 0.04311 0.42705 0.66272 0.0
O128 O 0.98517 0.22074 0.62032 0.0
O129 O 0.9267 0.27976 0.62181 0.0
O130 O 0.86283 0.25126 0.63388 0.0
O131 O 0.99319 0.23866 0.65866 0.0
O132 O 0.93551 0.2237 0.59654 0.0
O133 O 0.8853 0.23437 0.58357 0.0
O134 O 0.77342 0.17786 0.60864 0.0
O135 O 0.86903 0.16335 0.60484 0.0
O136 O 0.9014 0.17269 0.64145 0.0
O137 O 0.81445 0.22592 0.58601 0.0
O138 O 0.84344 0.20989 0.65242 0.0
O139 O 0.89437 0.19919 0.66273 0.0
C140 C 0.89584 0.28249 0.62796 0.0
C141 C 0.04943 0.24975 0.63615 0.0
C142 C 0.11008 0.2488 0.62866 0.0
C143 C 0.13019 0.28982 0.62668 0.0
C144 C 0.07017 0.29075 0.63477 0.0
C145 C 0.11032 0.31061 0.6299 0.0
C146 C 0.06956 0.22891 0.63336 0.0
C147 C 0.91908 0.23532 0.57992 0.0
C148 C 1.0068 0.22807 0.64002 0.0
C149 C 1.00906 0.38044 0.68831 0.0
C150 C 0.02491 0.39567 0.66493 0.0
C151 C 0.88131 0.1499 0.6229 0.0
C152 C 0.75671 0.22611 0.60001 0.0
C153 C 0.69481 0.22292 0.61109 0.0
C154 C 0.71528 0.26364 0.61495 0.0
C155 C 0.77627 0.26685 0.60334 0.0
C156 C 0.71584 0.20438 0.60356 0.0
C157 C 0.75565 0.28539 0.61092 0.0
C158 C 0.86364 0.20225 0.66882 0.0
C159 C 0.7782 0.20543 0.59348 0.0
H160 H 0.16141 0.30582 0.62316 0.0
H161 H 0.05549 0.30741 0.63752 0.0
H162 H 0.12613 0.34224 0.62872 0.0
H163 H 0.05363 0.19722 0.63457 0.0
H164 H 0.6999 0.27879 0.62051 0.0
H165 H 0.80744 0.28432 0.60015 0.0
H166 H 0.70049 0.17292 0.60082 0.0
H167 H 0.77101 0.31681 0.61359 0.0
Eu168 Eu 0.71315 0.93386 0.13857 0.0
C169 C 0.69044 0.78216 0.09048 0.0
N170 N 0.67833 0.80708 0.08242 0.0
C171 C 0.70199 0.80675 0.04154 0.0
C172 C 0.71022 0.76961 0.07432 0.0
C173 C 0.68274 0.81862 0.05824 0.0
C174 C 0.71603 0.78236 0.04964 0.0
C175 C 0.69713 0.7449 0.12402 0.0
C176 C 0.68386 0.76993 0.11512 0.0
C177 C 0.71761 0.7331 0.10811 0.0
C178 C 0.72396 0.74525 0.08332 0.0
Eu179 Eu 0.64501 0.82441 0.11149 0.0
N180 N 0.66392 0.78181 0.13019 0.0
C181 C 0.68881 0.73181 0.14856 0.0
C182 C 0.65329 0.76669 0.15354 0.0
C183 C 0.66629 0.74228 0.16324 0.0
H184 H 0.67134 0.8369 0.05179 0.0
H185 H 0.65833 0.73099 0.18191 0.0
H186 H 0.7129 0.92595 0.201 0.0
H187 H 0.67696 0.02764 0.08372 0.0
H188 H 0.63388 0.77224 0.16468 0.0
H189 H 0.69856 0.71264 0.15609 0.0
H190 H 0.70789 0.9874 0.09233 0.0
H191 H 0.70588 0.81631 0.02241 0.0
H192 H 0.72825 0.71414 0.11473 0.0
H193 H 0.73959 0.73567 0.07125 0.0
H194 H 0.68071 0.93667 0.23705 0.0
H195 H 0.73113 0.7734 0.03668 0.0
H196 H 0.63947 0.03825 0.11675 0.0
N197 N 0.68748 0.94685 0.17478 0.0
C198 C 0.66805 0.96693 0.17142 0.0
C199 C 0.67635 0.94475 0.21864 0.0
C200 C 0.65046 0.9752 0.19157 0.0
C201 C 0.69378 0.93781 0.19811 0.0
C202 C 0.65397 0.96291 0.21531 0.0
N203 N 0.6862 0.97402 0.12917 0.0
C204 C 0.69102 0.99152 0.10659 0.0
C205 C 0.65007 1.00435 0.14408 0.0
C206 C 0.66791 0.98146 0.14802 0.0
C207 C 0.65274 0.02043 0.12051 0.0
C208 C 0.67384 0.01448 0.10179 0.0
H209 H 0.64086 0.96867 0.23127 0.0
H210 H 0.61716 1.00291 0.20278 0.0
H211 H 0.61679 0.02839 0.16118 0.0
O212 O 0.76987 0.97325 0.1216 0.0
O213 O 0.65251 0.91507 0.1222 0.0
O214 O 0.61741 0.85179 0.13492 0.0
O215 O 0.75956 0.98226 0.15964 0.0
O216 O 0.7185 0.92347 0.09793 0.0
O217 O 0.65765 0.87456 0.08437 0.0
O218 O 0.6 0.76281 0.10913 0.0
O219 O 0.71133 0.85684 0.10675 0.0
O220 O 0.7336 0.88953 0.14341 0.0
O221 O 0.59509 0.80494 0.08623 0.0
O222 O 0.63867 0.83248 0.15308 0.0
O223 O 0.69956 0.8834 0.16474 0.0
C224 C 0.6191 0.88473 0.12894 0.0
C225 C 0.80511 0.03786 0.13691 0.0
C226 C 0.86685 0.09827 0.12953 0.0
C227 C 0.84596 0.11833 0.12662 0.0
C228 C 0.78489 0.05858 0.13449 0.0
C229 C 0.80527 0.0986 0.12927 0.0
C230 C 0.84614 0.05789 0.13471 0.0
C231 C 0.69092 0.90785 0.08098 0.0
C232 C 0.78399 0.99531 0.14115 0.0
C233 C 0.63115 0.99659 0.18755 0.0
C234 C 0.63099 0.01116 0.16387 0.0
C235 C 0.73638 0.86884 0.1252 0.0
C236 C 0.53601 0.74917 0.10042 0.0
C237 C 0.47558 0.68904 0.11134 0.0
C238 C 0.45741 0.71144 0.1158 0.0
C239 C 0.51698 0.77077 0.10453 0.0
C240 C 0.51496 0.70821 0.10355 0.0
C241 C 0.47793 0.75195 0.11222 0.0
C242 C 0.66568 0.85223 0.17005 0.0
C243 C 0.57803 0.76869 0.09384 0.0
H244 H 0.8612 0.14943 0.12272 0.0
H245 H 0.75347 0.04393 0.13665 0.0
H246 H 0.78948 0.11439 0.1273 0.0
H247 H 0.86186 0.04197 0.13664 0.0
H248 H 0.42706 0.6975 0.12157 0.0
H249 H 0.53227 0.80215 0.1019 0.0
H250 H 0.52948 0.69136 0.10036 0.0
H251 H 0.46348 0.76881 0.11541 0.0
Eu252 Eu 0.78599 0.70735 0.63552 0.0
C253 C 0.91784 0.69417 0.58267 0.0
N254 N 0.88014 0.67969 0.57517 0.0
C255 C 0.90157 0.70345 0.53399 0.0
C256 C 0.9491 0.71459 0.56596 0.0
C257 C 0.87151 0.68357 0.55122 0.0
C258 C 0.94052 0.71908 0.54139 0.0
C259 C 0.96412 0.70531 0.61573 0.0
C260 C 0.9252 0.68964 0.60739 0.0
C261 C 0.99529 0.72569 0.59911 0.0
C262 C 0.9878 0.73025 0.57431 0.0
Eu263 Eu 0.83171 0.64488 0.60513 0.0
N264 N 0.89448 0.67044 0.62329 0.0
C265 C 0.97063 0.69995 0.64055 0.0
C266 C 0.90072 0.66288 0.64701 0.0
C267 C 0.93877 0.67824 0.65617 0.0
H268 H 0.84144 0.67093 0.54531 0.0
H269 H 0.94349 0.67268 0.67515 0.0
H270 H 0.80652 0.71817 0.69645 0.0
H271 H 0.64669 0.65139 0.58721 0.0
H272 H 0.87668 0.64393 0.65878 0.0
H273 H 1.00009 0.71169 0.64769 0.0
H274 H 0.71841 0.68027 0.59077 0.0
H275 H 0.89468 0.70657 0.515 0.0
H276 H 0.02533 0.73807 0.60527 0.0
H277 H 1.01219 0.74614 0.56175 0.0
H278 H 0.77059 0.7027 0.73623 0.0
H279 H 0.96374 0.73457 0.52799 0.0
H280 H 0.60606 0.63466 0.62516 0.0
N281 N 0.755 0.69467 0.67443 0.0
C282 C 0.71541 0.67832 0.67397 0.0
C283 C 0.75472 0.69557 0.71886 0.0
C284 C 0.69381 0.66988 0.6962 0.0
C285 C 0.77494 0.70387 0.69634 0.0
C286 C 0.71397 0.67845 0.7188 0.0
N287 N 0.71787 0.67784 0.63003 0.0
C288 C 0.70077 0.67218 0.60729 0.0
C289 C 0.65545 0.6542 0.65009 0.0
C290 C 0.69638 0.67028 0.65117 0.0
C291 C 0.63745 0.64701 0.62678 0.0
C292 C 0.66026 0.65625 0.6053 0.0
H293 H 0.69841 0.67229 0.73628 0.0
H294 H 0.63587 0.64673 0.71207 0.0
H295 H 0.60235 0.63319 0.67175 0.0
O296 O 0.7964 0.75941 0.61506 0.0
O297 O 0.74348 0.64068 0.63358 0.0
O298 O 0.76623 0.6157 0.6029 0.0
O299 O 0.79074 0.75845 0.65497 0.0
O300 O 0.79836 0.71153 0.59436 0.0
O301 O 0.79079 0.65336 0.57896 0.0
O302 O 0.83513 0.59255 0.61483 0.0
O303 O 0.86402 0.7119 0.60305 0.0
O304 O 0.85087 0.72949 0.6406 0.0
O305 O 0.82771 0.60359 0.57666 0.0
O306 O 0.81205 0.6326 0.64599 0.0
O307 O 0.82495 0.69355 0.65838 0.0
C308 C 0.73968 0.61181 0.61911 0.0
C309 C 0.77231 0.79831 0.63238 0.0
C310 C 0.77067 0.85925 0.62811 0.0
C311 C 0.72991 0.83726 0.62478 0.0
C312 C 0.73157 0.77696 0.6293 0.0
C313 C 0.71052 0.7964 0.62557 0.0
C314 C 0.79173 0.83949 0.63208 0.0
C315 C 0.78709 0.68478 0.57697 0.0
C316 C 0.79516 0.77817 0.6347 0.0
C317 C 0.65295 0.65342 0.69518 0.0
C318 C 0.63385 0.64572 0.67221 0.0
C319 C 0.87526 0.73557 0.62226 0.0
C320 C 0.86529 0.57269 0.58438 0.0
C321 C 0.89463 0.53051 0.58744 0.0
C322 C 0.9222 0.55388 0.56931 0.0
C323 C 0.89345 0.59544 0.5665 0.0
C324 C 0.86609 0.54029 0.59488 0.0
C325 C 0.92168 0.5861 0.55912 0.0
C326 C 0.81734 0.65801 0.66363 0.0
C327 C 0.83475 0.58217 0.59185 0.0
H328 H 0.71299 0.85172 0.62182 0.0
H329 H 0.71608 0.74537 0.62954 0.0
H330 H 0.67909 0.77972 0.62311 0.0
H331 H 0.82327 0.85609 0.63427 0.0
H332 H 0.94389 0.54691 0.56253 0.0
H333 H 0.89349 0.62025 0.55793 0.0
H334 H 0.84463 0.52296 0.60885 0.0
H335 H 0.94302 0.60366 0.54517 0.0
Eu336 Eu 0.08592 0.77621 0.13398 0.0
C337 C 0.2273 0.90904 0.07593 0.0
N338 N 0.20345 0.871 0.0693 0.0
C339 C 0.19662 0.89061 0.02843 0.0
C340 C 0.23612 0.93955 0.05896 0.0
C341 C 0.18842 0.86133 0.04592 0.0
C342 C 0.22048 0.92988 0.03499 0.0
C343 C 0.26544 0.95682 0.10767 0.0
C344 C 0.24168 0.91756 0.1001 0.0
C345 C 0.27428 0.98723 0.09078 0.0
C346 C 0.25972 0.97863 0.06651 0.0
Eu347 Eu 0.19262 0.82394 0.09983 0.0
N348 N 0.23188 0.88756 0.11631 0.0
C349 C 0.27972 0.96438 0.132 0.0
C350 C 0.24767 0.89476 0.13953 0.0
C351 C 0.27114 0.93319 0.14789 0.0
H352 H 0.17053 0.83105 0.04056 0.0
H353 H 0.28308 0.93872 0.16649 0.0
H354 H 0.097 0.79487 0.19511 0.0
H355 H 1.0066 0.63774 0.0839 0.0
H356 H 0.24324 0.87113 0.1515 0.0
H357 H 0.298 0.99413 0.13853 0.0
H358 H 0.04696 0.70951 0.08828 0.0
H359 H 0.18462 0.88287 0.00989 0.0
H360 H 0.2924 0.01754 0.09632 0.0
H361 H 0.26672 1.00244 0.05374 0.0
H362 H 0.07836 0.75757 0.2344 0.0
H363 H 0.22662 0.95249 0.02142 0.0
H364 H 0.98501 0.59594 0.12135 0.0
N365 N 0.06925 0.74399 0.17243 0.0
C366 C 0.04741 0.7043 0.17143 0.0
C367 C 0.0695 0.74226 0.21683 0.0
C368 C 0.03554 0.68193 0.19338 0.0
C369 C 0.08026 0.76325 0.19458 0.0
C370 C 0.04702 0.70142 0.21624 0.0
N371 N 0.04949 0.70812 0.12745 0.0
C372 C 0.03827 0.69151 0.10457 0.0
C373 C 0.01355 0.64481 0.14682 0.0
C374 C 0.0368 0.68589 0.14837 0.0
C375 C 1.00291 0.62741 0.12332 0.0
C376 C 0.01515 0.65089 0.10212 0.0
H377 H 0.03858 0.68525 0.23351 0.0
H378 H 1.00324 0.6233 0.20854 0.0
H379 H 0.9838 0.59087 0.16783 0.0
O380 O 0.04097 0.78286 0.11474 0.0
O381 O 0.11274 0.73607 0.13173 0.0
O382 O 0.15198 0.75901 0.09737 0.0
O383 O 0.04104 0.78164 0.15485 0.0
O384 O 0.09576 0.79602 0.09396 0.0
O385 O 0.14029 0.78361 0.0751 0.0
O386 O 0.24774 0.82356 0.10786 0.0
O387 O 0.16128 0.85966 0.10313 0.0
O388 O 0.12836 0.84076 0.14036 0.0
O389 O 0.22803 0.82144 0.06971 0.0
O390 O 0.18957 0.80611 0.14091 0.0
O391 O 0.13934 0.81403 0.15681 0.0
C392 C 0.13751 0.73464 0.11592 0.0
C393 C 0.98016 0.76043 0.13464 0.0
C394 C 0.91709 0.75821 0.13207 0.0
C395 C 0.89839 0.71723 0.13002 0.0
C396 C 0.96088 0.71951 0.1328 0.0
C397 C 0.92017 0.69806 0.13059 0.0
C398 C 0.95814 0.77968 0.13458 0.0
C399 C 0.10573 0.78146 0.07542 0.0
C400 C 0.02321 0.7836 0.135 0.0
C401 C 0.01266 0.64096 0.19187 0.0
C402 C 1.00161 0.62248 0.16867 0.0
C403 C 0.14737 0.86743 0.12324 0.0
C404 C 0.28865 0.82027 0.07422 0.0
C405 C 0.35678 0.83476 0.07625 0.0
C406 C 0.35283 0.81921 0.05226 0.0
C407 C 0.28573 0.8048 0.05029 0.0
C408 C 0.32425 0.83469 0.08744 0.0
C409 C 0.31751 0.80412 0.0395 0.0
C410 C 0.16975 0.8092 0.15978 0.0
C411 C 0.25468 0.82229 0.08432 0.0
H412 H 0.86686 0.70001 0.12815 0.0
H413 H 0.97727 0.7042 0.13273 0.0
H414 H 0.90546 0.66648 0.12907 0.0
H415 H 0.973 0.81136 0.13572 0.0
H416 H 0.37719 0.81855 0.04338 0.0
H417 H 0.25877 0.79327 0.0398 0.0
H418 H 0.32706 0.84693 0.10585 0.0
H419 H 0.31485 0.79211 0.02106 0.0
Eu420 Eu 0.31492 0.07466 0.63462 0.0
C421 C 0.32984 0.21503 0.57286 0.0
N422 N 0.34632 0.19261 0.56765 0.0
C423 C 0.32843 0.18916 0.52487 0.0
C424 C 0.31154 0.22508 0.55407 0.0
C425 C 0.34623 0.17991 0.54408 0.0
C426 C 0.31094 0.21177 0.52988 0.0
C427 C 0.31364 0.2505 0.60309 0.0
C428 C 0.3308 0.22747 0.59717 0.0
C429 C 0.29528 0.26043 0.58443 0.0
C430 C 0.29426 0.24778 0.56 0.0
Eu431 Eu 0.37646 0.1793 0.60102 0.0
N432 N 0.34814 0.21679 0.61502 0.0
C433 C 0.31555 0.26305 0.62759 0.0
C434 C 0.35237 0.23129 0.63853 0.0
C435 C 0.33545 0.25382 0.6453 0.0
H436 H 0.36035 0.16308 0.53998 0.0
H437 H 0.33838 0.26466 0.6641 0.0
H438 H 0.31352 0.0882 0.69593 0.0
H439 H 0.36872 0.9922 0.58218 0.0
H440 H 0.36978 0.22685 0.65202 0.0
H441 H 0.30261 0.28066 0.63289 0.0
H442 H 0.33525 0.03031 0.58809 0.0
H443 H 0.32836 0.17901 0.50619 0.0
H444 H 0.28179 0.27791 0.5887 0.0
H445 H 0.27996 0.25567 0.54582 0.0
H446 H 0.33851 0.07377 0.73421 0.0
H447 H 0.29716 0.21887 0.51495 0.0
H448 H 0.39636 0.97577 0.61837 0.0
N449 N 0.33575 0.06077 0.67222 0.0
C450 C 0.35434 0.03962 0.67043 0.0
C451 C 0.34328 0.06412 0.71639 0.0
C452 C 0.36848 0.03012 0.69179 0.0
C453 C 0.32956 0.07264 0.6947 0.0
C454 C 0.36292 0.04286 0.71493 0.0
N455 N 0.34602 0.03773 0.62678 0.0
C456 C 0.34822 0.02448 0.60382 0.0
C457 C 0.37824 1.00525 0.6447 0.0
C458 C 0.35935 0.02748 0.64711 0.0
C459 C 0.38209 0.99296 0.621 0.0
C460 C 0.36669 1.00233 0.60051 0.0
H461 H 0.37344 0.03622 0.73178 0.0
H462 H 0.39875 1.00073 0.70562 0.0
H463 H 0.40713 0.97885 0.66444 0.0
O464 O 0.26252 0.0255 0.61849 0.0
O465 O 0.38218 0.10421 0.63552 0.0
O466 O 0.40059 0.13826 0.5989 0.0
O467 O 0.26665 0.03411 0.65827 0.0
O468 O 0.3074 0.07805 0.59315 0.0
O469 O 0.36553 0.12704 0.57649 0.0
O470 O 0.43027 0.23191 0.6129 0.0
O471 O 0.30972 0.14647 0.59846 0.0
O472 O 0.29027 0.11588 0.63605 0.0
O473 O 0.4201 0.21805 0.57403 0.0
O474 O 0.38628 0.17562 0.64301 0.0
O475 O 0.32534 0.12796 0.65582 0.0
C476 C 0.40822 0.12275 0.61798 0.0
C477 C 0.22625 0.96949 0.64351 0.0
C478 C 0.16588 0.90609 0.64336 0.0
C479 C 0.18714 0.88853 0.65201 0.0
C480 C 0.24702 0.95143 0.65194 0.0
C481 C 0.22747 0.91108 0.65611 0.0
C482 C 0.18583 0.94671 0.63898 0.0
C483 C 0.33225 0.09337 0.57466 0.0
C484 C 0.24576 0.01209 0.63991 0.0
C485 C 0.38765 0.00828 0.68941 0.0
C486 C 0.39245 0.99584 0.66595 0.0
C487 C 0.28455 0.13287 0.61682 0.0
C488 C 0.45179 0.28544 0.58528 0.0
C489 C 0.49362 0.35614 0.59219 0.0
C490 C 0.46831 0.36271 0.57716 0.0
C491 C 0.42781 0.29325 0.56982 0.0
C492 C 0.48507 0.31718 0.59625 0.0
C493 C 0.43581 0.3315 0.56603 0.0
C494 C 0.36019 0.15748 0.66071 0.0
C495 C 0.44162 0.2444 0.5904 0.0
H496 H 0.17261 0.85731 0.65543 0.0
H497 H 0.27814 0.96849 0.65549 0.0
H498 H 0.24359 0.89725 0.66269 0.0
H499 H 0.16975 0.96078 0.63267 0.0
H500 H 0.47429 0.39217 0.57338 0.0
H501 H 0.40291 0.26989 0.56047 0.0
H502 H 0.50403 0.31155 0.60799 0.0
H503 H 0.41695 0.33702 0.55416 0.0
Eu504 Eu 0.70984 0.78059 0.3746 0.0
C505 C 0.70756 0.91496 0.43157 0.0
N506 N 0.69314 0.87749 0.43949 0.0
C507 C 0.72417 0.90031 0.47896 0.0
C508 C 0.73174 0.94678 0.44711 0.0
C509 C 0.70063 0.86966 0.46284 0.0
C510 C 0.73988 0.93903 0.47106 0.0
C511 C 0.71508 0.96005 0.39857 0.0
C512 C 0.69949 0.9214 0.40743 0.0
C513 C 0.73927 0.99178 0.414 0.0
C514 C 0.74752 0.98518 0.43819 0.0
Eu515 Eu 0.65356 0.82776 0.41124 0.0
N516 N 0.67675 0.89007 0.3926 0.0
C517 C 0.70569 0.96573 0.3745 0.0
C518 C 0.665 0.89571 0.36992 0.0
C519 C 0.68003 0.93343 0.36028 0.0
H520 H 0.68833 0.83976 0.46904 0.0
H521 H 0.67121 0.93759 0.34205 0.0
H522 H 0.7109 0.79904 0.31381 0.0
H523 H 0.652 0.64165 0.42383 0.0
H524 H 0.64308 0.87156 0.35936 0.0
H525 H 0.7172 0.99493 0.367 0.0
H526 H 0.68697 0.71361 0.41961 0.0
H527 H 0.73022 0.89407 0.49746 0.0
H528 H 0.75171 0.0216 0.40739 0.0
H529 H 0.76632 0.00998 0.44983 0.0
H530 H 0.6845 0.76183 0.27481 0.0
H531 H 0.75833 0.9627 0.48354 0.0
H532 H 0.62386 0.59976 0.38671 0.0
N533 N 0.68802 0.74815 0.3363 0.0
C534 C 0.66859 0.70838 0.33718 0.0
C535 C 0.67975 0.74646 0.29222 0.0
C536 C 0.6536 0.68598 0.31538 0.0
C537 C 0.69429 0.76744 0.31431 0.0
C538 C 0.65922 0.70555 0.29275 0.0
N539 N 0.67731 0.71234 0.38085 0.0
C540 C 0.67429 0.69562 0.40344 0.0
C541 C 0.64348 0.64876 0.3615 0.0
C542 C 0.66351 0.68994 0.36001 0.0
C543 C 0.63905 0.63132 0.38479 0.0
C544 C 0.65477 0.65487 0.40581 0.0
H545 H 0.64804 0.68937 0.2756 0.0
H546 H 0.62174 0.62721 0.30026 0.0
H547 H 0.61296 0.59468 0.34058 0.0
O548 O 0.76388 0.78584 0.38974 0.0
O549 O 0.64277 0.74234 0.37763 0.0
O550 O 0.62618 0.7621 0.41369 0.0
O551 O 0.75506 0.78259 0.35014 0.0
O552 O 0.72035 0.79102 0.4159 0.0
O553 O 0.66545 0.78668 0.43503 0.0
O554 O 0.59832 0.82878 0.40577 0.0
O555 O 0.72076 0.8591 0.41098 0.0
O556 O 0.73321 0.84595 0.37196 0.0
O557 O 0.6188 0.82671 0.44304 0.0
O558 O 0.63681 0.80947 0.3704 0.0
O559 O 0.69635 0.82253 0.35499 0.0
C560 C 0.61758 0.73724 0.39537 0.0
C561 C 0.8196 0.82253 0.36456 0.0
C562 C 0.89077 0.85064 0.3636 0.0
C563 C 0.89464 0.88674 0.35649 0.0
C564 C 0.82442 0.85889 0.3573 0.0
C565 C 0.86171 0.89081 0.35351 0.0
C566 C 0.85297 0.81857 0.36798 0.0
C567 C 0.69718 0.78325 0.43516 0.0
C568 C 0.77976 0.78888 0.368 0.0
C569 C 0.6335 0.64491 0.31682 0.0
C570 C 0.6285 0.62637 0.3398 0.0
C571 C 0.74263 0.86988 0.39096 0.0
C572 C 0.55774 0.8279 0.44088 0.0
C573 C 0.50292 0.84084 0.43943 0.0
C574 C 0.49549 0.83047 0.4646 0.0
C575 C 0.54936 0.81767 0.46601 0.0
C576 C 0.53392 0.83896 0.42744 0.0
C577 C 0.51838 0.81878 0.47769 0.0
C578 C 0.66049 0.81534 0.35154 0.0
C579 C 0.59222 0.82816 0.42956 0.0
H580 H 0.92331 0.91193 0.35325 0.0
H581 H 0.79934 0.86255 0.35426 0.0
H582 H 0.86507 0.91872 0.34797 0.0
H583 H 0.84951 0.79051 0.37335 0.0
H584 H 0.47165 0.83117 0.47418 0.0
H585 H 0.5669 0.80888 0.47677 0.0
H586 H 0.54015 0.84721 0.4081 0.0
H587 H 0.51223 0.8108 0.49705 0.0
Eu588 Eu 0.94575 0.70555 0.87737 0.0
C589 C 0.79922 0.69596 0.92347 0.0
N590 N 0.82033 0.67959 0.932 0.0
C591 C 0.82113 0.70373 0.97291 0.0
C592 C 0.7894 0.71816 0.93945 0.0
C593 C 0.83037 0.68212 0.9564 0.0
C594 C 0.80082 0.72206 0.96437 0.0
C595 C 0.76717 0.70891 0.88925 0.0
C596 C 0.78833 0.69141 0.8985 0.0
C597 C 0.75782 0.7314 0.9051 0.0
C598 C 0.76883 0.73595 0.93011 0.0
Eu599 Eu 0.8338 0.64341 0.90286 0.0
N600 N 0.79833 0.67 0.88332 0.0
C601 C 0.75578 0.70314 0.86433 0.0
C602 C 0.78488 0.66217 0.85947 0.0
C603 C 0.76421 0.67924 0.84949 0.0
H604 H 0.84539 0.6674 0.96321 0.0
H605 H 0.75422 0.67342 0.83045 0.0
H606 H 0.93878 0.70856 0.8149 0.0
H607 H 0.03977 0.66829 0.93074 0.0
H608 H 0.7887 0.64181 0.84816 0.0
H609 H 0.73964 0.71622 0.85654 0.0
H610 H 0.99903 0.69901 0.92296 0.0
H611 H 0.82954 0.70612 0.99222 0.0
H612 H 0.74191 0.7453 0.89821 0.0
H613 H 0.7613 0.75333 0.94208 0.0
H614 H 0.95042 0.6785 0.77808 0.0
H615 H 0.79383 0.7389 0.97721 0.0
H616 H 0.0514 0.63278 0.89683 0.0
N617 N 0.95942 0.68195 0.84044 0.0
C618 C 0.97982 0.66274 0.84323 0.0
C619 C 0.95824 0.67324 0.79634 0.0
C620 C 0.98869 0.64641 0.82263 0.0
C621 C 0.95075 0.68944 0.81731 0.0
C622 C 0.97664 0.65098 0.79905 0.0
N623 N 0.98634 0.67894 0.88579 0.0
C624 C 1.00363 0.68297 0.90833 0.0
C625 C 0.01753 0.64421 0.86991 0.0
C626 C 0.99421 0.66172 0.86652 0.0
C627 C 0.03334 0.64591 0.89346 0.0
C628 C 0.02682 0.66589 0.91267 0.0
H629 H 0.98285 0.63887 0.78275 0.0
H630 H 0.01722 0.61432 0.8105 0.0
H631 H 0.04241 0.61233 0.85192 0.0
O632 O 0.98333 0.76234 0.89503 0.0
O633 O 0.9259 0.64445 0.89304 0.0
O634 O 0.8607 0.61181 0.88296 0.0
O635 O 0.99717 0.75128 0.85834 0.0
O636 O 0.93507 0.70856 0.91841 0.0
O637 O 0.88031 0.65055 0.93121 0.0
O638 O 0.77053 0.60507 0.90247 0.0
O639 O 0.87143 0.7098 0.90794 0.0
O640 O 0.90256 0.7266 0.87094 0.0
O641 O 0.80538 0.59098 0.92637 0.0
O642 O 0.84214 0.63395 0.86184 0.0
O643 O 0.89604 0.69294 0.85084 0.0
C644 C 0.89259 0.61172 0.88976 0.0
C645 C 1.00829 0.81451 0.86657 0.0
C646 C 0.0455 0.88566 0.8624 0.0
C647 C 0.01416 0.88415 0.84898 0.0
C648 C 0.97773 0.81375 0.85274 0.0
C649 C 0.98053 0.84842 0.84425 0.0
C650 C 0.04212 0.85057 0.8715 0.0
C651 C 0.91585 0.68079 0.93487 0.0
C652 C 1.00484 0.77756 0.87536 0.0
C653 C 1.01046 0.62737 0.82607 0.0
C654 C 0.02489 0.62631 0.84965 0.0
C655 C 0.88513 0.73398 0.88911 0.0
C656 C 0.74982 0.53891 0.90633 0.0
C657 C 0.68789 0.48137 0.89461 0.0
C658 C 0.70872 0.46794 0.88033 0.0
C659 C 0.76976 0.52541 0.89131 0.0
C660 C 0.70875 0.51662 0.90804 0.0
C661 C 0.74941 0.48979 0.87882 0.0
C662 C 0.86477 0.6595 0.84498 0.0
C663 C 0.7708 0.57882 0.91676 0.0
H664 H 0.01566 0.9107 0.84211 0.0
H665 H 0.95184 0.78634 0.84825 0.0
H666 H 0.9567 0.84756 0.83376 0.0
H667 H 0.06604 0.85117 0.8818 0.0
H668 H 0.69344 0.44068 0.87011 0.0
H669 H 0.80088 0.54299 0.88847 0.0
H670 H 0.69298 0.5277 0.91871 0.0
H671 H 0.76515 0.47961 0.86737 0.0
Eu672 Eu 0.24429 0.93729 0.37395 0.0
C673 C 0.11005 0.78573 0.41761 0.0
N674 N 0.14682 0.80935 0.42654 0.0
C675 C 0.12107 0.80853 0.46694 0.0
C676 C 0.07708 0.77376 0.43303 0.0
C677 C 0.15288 0.81993 0.45094 0.0
C678 C 0.083 0.78559 0.45792 0.0
C679 C 0.06747 0.75079 0.38295 0.0
C680 C 0.1054 0.77443 0.39275 0.0
C681 C 0.03459 0.73947 0.39817 0.0
C682 C 0.03938 0.7508 0.42314 0.0
Eu683 Eu 0.19856 0.82594 0.3985 0.0
N684 N 0.13779 0.78594 0.37833 0.0
C685 C 0.06365 0.73864 0.35821 0.0
C686 C 0.1341 0.77178 0.35473 0.0
C687 C 0.09711 0.74872 0.34417 0.0
H688 H 0.18223 0.83701 0.45813 0.0
H689 H 0.09443 0.73815 0.32532 0.0
H690 H 0.24055 0.93069 0.31115 0.0
H691 H 0.37027 0.02897 0.43214 0.0
H692 H 0.15936 0.77701 0.34407 0.0
H693 H 0.03503 0.72052 0.35001 0.0
H694 H 0.29981 0.98924 0.42155 0.0
H695 H 0.12592 0.81732 0.48624 0.0
H696 H 1.00529 0.72152 0.39087 0.0
H697 H 0.01371 0.7416 0.43466 0.0
H698 H 0.28572 0.94239 0.2764 0.0
H699 H 0.05842 0.77698 0.47035 0.0
H700 H 0.4204 0.04021 0.40045 0.0
N701 N 0.28506 0.95102 0.3387 0.0
C702 C 0.32425 0.9708 0.34313 0.0
C703 C 0.29693 0.94998 0.29513 0.0
C704 C 0.35136 0.97951 0.3237 0.0
C705 C 0.27127 0.94256 0.31496 0.0
C706 C 0.33714 0.96794 0.29956 0.0
N707 N 0.31056 0.97676 0.38505 0.0
C708 C 0.32171 0.99359 0.40793 0.0
C709 C 0.37778 1.0072 0.37194 0.0
C710 C 0.33741 0.98457 0.36691 0.0
C711 C 0.38963 0.02261 0.39586 0.0
C712 C 0.36144 0.01629 0.41382 0.0
H713 H 0.357 0.97406 0.28412 0.0
H714 H 0.41294 1.00725 0.31415 0.0
H715 H 0.43605 0.03147 0.35641 0.0
O716 O 0.22628 0.97614 0.39114 0.0
O717 O 0.28429 0.9169 0.39103 0.0
O718 O 0.2558 0.85391 0.37729 0.0
O719 O 0.24801 0.987 0.35359 0.0
O720 O 0.22487 0.92395 0.41393 0.0
O721 O 0.23538 0.87401 0.42704 0.0
O722 O 0.18037 0.76376 0.39864 0.0
O723 O 0.16458 0.85885 0.40222 0.0
O724 O 0.18032 0.89425 0.36642 0.0
O725 O 0.22451 0.80247 0.42446 0.0
O726 O 0.21587 0.83545 0.35731 0.0
O727 O 0.20882 0.88853 0.34645 0.0
C728 C 0.28688 0.8861 0.38458 0.0
C729 C 0.25626 0.04142 0.3771 0.0
C730 C 0.25363 0.10113 0.38509 0.0
C731 C 0.29449 0.12158 0.38833 0.0
C732 C 0.29705 0.06246 0.37995 0.0
C733 C 0.316 0.10234 0.38564 0.0
C734 C 0.23471 0.0609 0.37947 0.0
C735 C 0.23621 0.90767 0.43078 0.0
C736 C 0.23544 0.99914 0.372 0.0
C737 C 0.39169 1.0006 0.32881 0.0
C738 C 0.40487 0.01444 0.35287 0.0
C739 C 0.15458 0.87328 0.38348 0.0
C740 C 0.22804 0.74709 0.40933 0.0
C741 C 0.22819 0.68685 0.3979 0.0
C742 C 0.26917 0.70871 0.39555 0.0
C743 C 0.269 0.76803 0.40733 0.0
C744 C 0.20784 0.70639 0.40486 0.0
C745 C 0.28935 0.74893 0.40037 0.0
C746 C 0.21055 0.85692 0.34062 0.0
C747 C 0.20569 0.76712 0.41525 0.0
H748 H 0.30987 0.15261 0.39251 0.0
H749 H 0.31423 0.04817 0.37774 0.0
H750 H 0.34748 0.11843 0.3879 0.0
H751 H 0.20316 0.0446 0.37728 0.0
H752 H 0.28575 0.69456 0.39052 0.0
H753 H 0.28525 0.79913 0.41107 0.0
H754 H 0.1762 0.69006 0.40643 0.0
H755 H 0.32093 0.76535 0.39877 0.0
Eu756 Eu 0.31296 0.245 0.86958 0.0
C757 C 0.31328 0.10781 0.92505 0.0
N758 N 0.33274 0.14596 0.93232 0.0
C759 C 0.31059 0.12728 0.9741 0.0
C760 C 0.2912 0.07777 0.94219 0.0
C761 C 0.33203 0.15609 0.95644 0.0
C762 C 0.28999 0.08797 0.96695 0.0
C763 C 0.29528 0.05957 0.89222 0.0
C764 C 0.31518 0.09889 0.90026 0.0
C765 C 0.27293 0.02962 0.90921 0.0
C766 C 0.27092 0.03869 0.93411 0.0
Eu767 Eu 0.36759 0.19259 0.90127 0.0
N768 N 0.33647 0.1286 0.88406 0.0
C769 C 0.29872 0.05144 0.86737 0.0
C770 C 0.34221 0.12047 0.86033 0.0
C771 C 0.32278 0.08199 0.85147 0.0
H772 H 0.34829 0.18639 0.96214 0.0
H773 H 0.32692 0.07585 0.83247 0.0
H774 H 0.31544 0.23576 0.80774 0.0
H775 H 0.36948 0.37646 0.9272 0.0
H776 H 0.36263 0.14319 0.8483 0.0
H777 H 0.28383 0.02164 0.86046 0.0
H778 H 0.33256 0.30567 0.91851 0.0
H779 H 0.31002 0.1354 0.99323 0.0
H780 H 0.25726 0.99929 0.9033 0.0
H781 H 0.25365 0.01523 0.947 0.0
H782 H 0.34555 0.27843 0.77132 0.0
H783 H 0.27335 0.06573 0.98068 0.0
H784 H 0.40223 0.42336 0.89294 0.0
N785 N 0.33817 0.28294 0.83346 0.0
C786 C 0.35848 0.32239 0.83686 0.0
C787 C 0.34958 0.29114 0.78965 0.0
C788 C 0.37574 0.34786 0.81656 0.0
C789 C 0.33295 0.26703 0.81032 0.0
C790 C 0.37121 0.33172 0.79279 0.0
N791 N 0.34606 0.31209 0.8801 0.0
C792 C 0.3475 0.32564 0.90357 0.0
C793 C 0.38334 0.37818 0.86482 0.0
C794 C 0.36227 0.33741 0.86076 0.0
C795 C 0.38631 0.39223 0.88906 0.0
C796 C 0.36801 0.36584 0.90847 0.0
H797 H 0.38405 0.35033 0.77674 0.0
H798 H 0.41046 0.40849 0.80524 0.0
H799 H 0.41709 0.435 0.84742 0.0
O800 O 0.25755 0.23681 0.88447 0.0
O801 O 0.38 0.27961 0.87151 0.0
O802 O 0.39586 0.25773 0.90677 0.0
O803 O 0.27094 0.24988 0.84568 0.0
O804 O 0.30357 0.23236 0.91086 0.0
O805 O 0.35843 0.23319 0.92758 0.0
O806 O 0.42143 0.19367 0.88952 0.0
O807 O 0.3008 0.16304 0.9025 0.0
O808 O 0.28711 0.17967 0.86495 0.0
O809 O 0.40719 0.18905 0.92833 0.0
O810 O 0.38073 0.2105 0.85997 0.0
O811 O 0.32214 0.203 0.84636 0.0
C812 C 0.40443 0.28413 0.88952 0.0
C813 C 0.20569 0.20465 0.8559 0.0
C814 C 0.13416 0.17124 0.85519 0.0
C815 C 0.13374 0.13984 0.84243 0.0
C816 C 0.20434 0.17315 0.84279 0.0
C817 C 0.16859 0.14084 0.83633 0.0
C818 C 0.17044 0.20351 0.86227 0.0
C819 C 0.32674 0.23661 0.92961 0.0
C820 C 0.24399 0.23837 0.8627 0.0
C821 C 0.39693 0.38848 0.8206 0.0
C822 C 0.4007 0.40359 0.84464 0.0
C823 C 0.27752 0.15493 0.88337 0.0
C824 C 0.43967 0.15555 0.9139 0.0
C825 C 0.48438 0.12987 0.90748 0.0
C826 C 0.45474 0.09295 0.91552 0.0
C827 C 0.41108 0.11852 0.92239 0.0
C828 C 0.47669 0.16129 0.90674 0.0
C829 C 0.41851 0.08747 0.92305 0.0
C830 C 0.35631 0.20617 0.84185 0.0
C831 C 0.43038 0.18757 0.91167 0.0
H832 H 0.10632 0.11439 0.83713 0.0
H833 H 0.23101 0.17366 0.83733 0.0
H834 H 0.16789 0.11661 0.82637 0.0
H835 H 0.17129 0.22794 0.87211 0.0
H836 H 0.45992 0.06844 0.91649 0.0
H837 H 0.38296 0.11346 0.92859 0.0
H838 H 0.49914 0.18981 0.90032 0.0
H839 H 0.3961 0.05903 0.92953 0.0
Eu840 Eu 0.07953 0.3082 0.37642 0.0
C841 C 0.22406 0.33362 0.44538 0.0
N842 N 0.20341 0.3528 0.44638 0.0
C843 C 0.20497 0.35254 0.4908 0.0
C844 C 0.23576 0.32283 0.46731 0.0
C845 C 0.19399 0.36264 0.46858 0.0
C846 C 0.2259 0.33251 0.49018 0.0
C847 C 0.25381 0.30368 0.4207 0.0
C848 C 0.2329 0.32405 0.42233 0.0
C849 C 0.26564 0.29304 0.44251 0.0
C850 C 0.25662 0.30256 0.46574 0.0
Eu851 Eu 0.18658 0.3688 0.40797 0.0
N852 N 0.21968 0.33332 0.40154 0.0
C853 C 0.26168 0.29408 0.39719 0.0
C854 C 0.22848 0.32529 0.37857 0.0
C855 C 0.24914 0.30514 0.37604 0.0
H856 H 0.17843 0.37875 0.46917 0.0
H857 H 0.25549 0.29825 0.35778 0.0
H858 H 0.09815 0.34453 0.31866 0.0
H859 H 0.98044 0.31209 0.44628 0.0
H860 H 0.21967 0.33436 0.36215 0.0
H861 H 0.27745 0.27823 0.39516 0.0
H862 H 0.01977 0.28693 0.42632 0.0
H863 H 0.19743 0.36034 0.5084 0.0
H864 H 0.28156 0.27721 0.44162 0.0
H865 H 0.2658 0.29398 0.48239 0.0
H866 H 0.08614 0.38966 0.29304 0.0
H867 H 0.23434 0.3247 0.50744 0.0
H868 H 0.97255 0.36381 0.4257 0.0
N869 N 0.0686 0.34961 0.35017 0.0
C870 C 0.04649 0.36416 0.35984 0.0
C871 C 0.07505 0.38289 0.31183 0.0
C872 C 0.03904 0.39002 0.34595 0.0
C873 C 0.08188 0.3575 0.3263 0.0
C874 C 0.05387 0.39952 0.32176 0.0
N875 N 0.03896 0.328 0.39673 0.0
C876 C 0.01876 0.31128 0.41801 0.0
C877 C 1.00825 0.3677 0.39406 0.0
C878 C 0.03185 0.35355 0.38386 0.0
C879 C 0.99091 0.35371 0.41726 0.0
C880 C 0.99546 0.32469 0.429 0.0
H881 H 0.04875 0.41929 0.31051 0.0
H882 H 1.01114 0.42551 0.3462 0.0
H883 H 0.98385 0.40566 0.38816 0.0
O884 O 0.02372 0.252 0.38074 0.0
O885 O 0.11707 0.37531 0.37266 0.0
O886 O 0.14672 0.39417 0.41038 0.0
O887 O 0.04761 0.27475 0.34403 0.0
O888 O 0.08592 0.29856 0.41725 0.0
O889 O 0.13431 0.35854 0.43213 0.0
O890 O 0.2398 0.41326 0.38999 0.0
O891 O 0.15592 0.30251 0.41158 0.0
O892 O 0.11469 0.27654 0.37776 0.0
O893 O 0.22977 0.42087 0.42843 0.0
O894 O 0.18202 0.37317 0.36553 0.0
O895 O 0.13013 0.31323 0.35453 0.0
C896 C 0.13089 0.40062 0.39103 0.0
C897 C 0.98622 0.2133 0.34434 0.0
C898 C 0.92859 0.14726 0.34445 0.0
C899 C 0.92506 0.15061 0.31868 0.0
C900 C 0.98135 0.21559 0.31869 0.0
C901 C 0.95107 0.18448 0.30603 0.0
C902 C 0.95966 0.1789 0.35726 0.0
C903 C 0.10192 0.32448 0.43524 0.0
C904 C 0.01961 0.24694 0.35681 0.0
C905 C 0.01698 0.4054 0.35654 0.0
C906 C 1.00158 0.39423 0.38049 0.0
C907 C 0.13647 0.27425 0.39549 0.0
C908 C 0.27152 0.47799 0.40488 0.0
C909 C 0.33085 0.54075 0.39687 0.0
C910 C 0.30719 0.55717 0.39134 0.0
C911 C 0.24857 0.49507 0.39951 0.0
C912 C 0.31266 0.50102 0.40383 0.0
C913 C 0.26639 0.53453 0.39286 0.0
C914 C 0.16185 0.34589 0.34882 0.0
C915 C 0.25324 0.43561 0.4095 0.0
H916 H 0.90239 0.12669 0.30808 0.0
H917 H 1.00111 0.24152 0.30827 0.0
H918 H 0.94788 0.18652 0.28623 0.0
H919 H 0.96305 0.17684 0.37705 0.0
H920 H 0.3203 0.58768 0.38609 0.0
H921 H 0.21697 0.47775 0.40012 0.0
H922 H 0.33045 0.48771 0.40768 0.0
H923 H 0.2485 0.54754 0.38864 0.0
Eu924 Eu 0.77228 0.06635 0.87882 0.0
C925 C 0.90544 0.21133 0.93648 0.0
N926 N 0.86673 0.18968 0.94221 0.0
C927 C 0.88245 0.18755 0.98488 0.0
C928 C 0.93431 0.22155 0.95492 0.0
C929 C 0.85485 0.17811 0.96599 0.0
C930 C 0.92234 0.20927 0.97933 0.0
C931 C 0.95613 0.24515 0.90551 0.0
C932 C 0.9162 0.22298 0.91199 0.0
C933 C 0.98492 0.25528 0.92385 0.0
C934 C 0.97405 0.24354 0.94847 0.0
Eu935 Eu 0.82247 0.1761 0.90926 0.0
N936 N 0.88768 0.21191 0.89446 0.0
C937 C 0.96597 0.2564 0.88076 0.0
C938 C 0.89716 0.2245 0.87057 0.0
C939 C 0.93634 0.24632 0.86328 0.0
H940 H 0.82407 0.16208 0.97053 0.0
H941 H 0.94366 0.25579 0.84422 0.0
H942 H 0.74805 0.08123 0.82204 0.0
H943 H 0.68014 0.96548 0.95135 0.0
H944 H 0.87483 0.21872 0.85712 0.0
H945 H 0.99631 0.27336 0.87503 0.0
H946 H 0.74201 0.00875 0.92966 0.0
H947 H 0.87294 0.17826 1.00374 0.0
H948 H 0.01572 0.27219 0.91917 0.0
H949 H 0.99663 0.2516 0.96239 0.0
H950 H 0.68787 0.06138 0.79744 0.0
H951 H 0.94363 0.21655 0.99402 0.0
H952 H 0.61709 0.95038 0.93222 0.0
N953 N 0.71696 0.05027 0.85421 0.0
C954 C 0.68164 0.02573 0.8647 0.0
C955 C 0.68574 0.05131 0.81635 0.0
C956 C 0.64667 0.01373 0.8514 0.0
C957 C 0.71966 0.0626 0.83027 0.0
C958 C 0.64908 0.02694 0.82699 0.0
N959 N 0.71487 0.02342 0.90087 0.0
C960 C 0.71496 1.00486 0.92217 0.0
C961 C 0.64432 0.98635 0.89985 0.0
C962 C 0.68058 0.01259 0.88882 0.0
C963 C 0.64431 0.97065 0.92313 0.0
C964 C 0.67982 0.97926 0.93407 0.0
H965 H 0.62286 0.01834 0.81617 0.0
H966 H 0.58335 0.97969 0.85294 0.0
H967 H 0.58128 0.95548 0.89524 0.0
O968 O 0.77943 0.01389 0.88327 0.0
O969 O 0.73845 0.10006 0.87687 0.0
O970 O 0.75751 0.13549 0.9128 0.0
O971 O 0.77197 0.03308 0.84678 0.0
O972 O 0.79355 0.07634 0.91878 0.0
O973 O 0.78248 0.1247 0.93447 0.0
O974 O 0.8222 0.22915 0.89687 0.0
O975 O 0.85774 0.14434 0.90936 0.0
O976 O 0.83794 0.10538 0.87448 0.0
O977 O 0.81856 0.21613 0.93581 0.0
O978 O 0.80688 0.17043 0.86762 0.0
O979 O 0.81127 0.11678 0.85434 0.0
C980 C 0.73346 0.12104 0.89404 0.0
C981 C 0.77922 0.9756 0.84652 0.0
C982 C 0.79077 0.9197 0.84554 0.0
C983 C 0.78481 0.91736 0.81968 0.0
C984 C 0.77286 0.97165 0.82075 0.0
C985 C 0.77577 0.94291 0.80752 0.0
C986 C 0.78832 0.94944 0.85897 0.0
C987 C 0.78356 0.09186 0.93704 0.0
C988 C 0.77709 0.00793 0.85937 0.0
C989 C 0.61054 0.98896 0.86279 0.0
C990 C 0.60937 0.97533 0.88694 0.0
C991 C 0.86486 0.12713 0.89081 0.0
C992 C 0.85387 0.28339 0.92438 0.0
C993 C 0.8811 0.3543 0.91928 0.0
C994 C 0.91414 0.36073 0.93294 0.0
C995 C 0.88685 0.29114 0.93858 0.0
C996 C 0.8508 0.31533 0.91502 0.0
C997 C 0.9168 0.3294 0.94262 0.0
C998 C 0.8107 0.14922 0.84994 0.0
C999 C 0.82323 0.24216 0.91925 0.0
H1000 H 0.78761 0.89591 0.80862 0.0
H1001 H 0.76588 0.99108 0.81059 0.0
H1002 H 0.77122 0.94058 0.78764 0.0
H1003 H 0.79319 0.95204 0.87883 0.0
H1004 H 0.93764 0.39022 0.93664 0.0
H1005 H 0.88952 0.26769 0.94681 0.0
H1006 H 0.8253 0.30993 0.90433 0.0
H1007 H 0.94212 0.33481 0.95348 0.0
H1008 H 0.14589 0.90013 0.1675 0.0
H1009 H 0.20081 0.1097 0.11141 0.0
H1010 H 0.1669 0.92671 0.08947 0.0
H1011 H 0.15723 0.07156 0.18551 0.0
H1012 H 0.19731 0.04643 0.10382 0.0
H1013 H 0.15803 0.9662 0.17511 0.0
C1014 C 0.15311 0.9199 0.15192 0.0
C1015 C 0.15543 0.90784 0.12779 0.0
C1016 C 0.1887 0.05206 0.12175 0.0
C1017 C 0.16955 0.98391 0.13642 0.0
C1018 C 0.19093 0.08819 0.12613 0.0
C1019 C 0.17893 0.09567 0.14904 0.0
C1020 C 0.17475 0.02352 0.14053 0.0
C1021 C 0.16619 0.06676 0.16746 0.0
C1022 C 0.16018 0.95773 0.1563 0.0
C1023 C 0.16528 0.93494 0.1084 0.0
N1024 N 0.16435 0.03203 0.16278 0.0
N1025 N 0.17192 0.97173 0.11311 0.0
H1026 H 0.25133 0.15001 0.57787 0.0
H1027 H 0.1092 0.19413 0.66022 0.0
H1028 H 0.24567 0.13821 0.65753 0.0
H1029 H 0.16002 0.25424 0.59159 0.0
H1030 H 0.14783 0.16096 0.65686 0.0
H1031 H 0.2061 0.17562 0.58 0.0
C1032 C 0.24045 0.15267 0.5958 0.0
C1033 C 0.25303 0.14292 0.6176 0.0
C1034 C 0.15031 0.18127 0.64251 0.0
C1035 C 0.20048 0.17105 0.6201 0.0
C1036 C 0.1282 0.2 0.64434 0.0
C1037 C 0.1316 0.227 0.62619 0.0
C1038 C 0.17537 0.18907 0.62214 0.0
C1039 C 0.15683 0.23383 0.60606 0.0
C1040 C 0.2146 0.16717 0.59698 0.0
C1041 C 0.23699 0.14569 0.64027 0.0
N1042 N 0.17767 0.21488 0.60452 0.0
N1043 N 0.21165 0.15969 0.64095 0.0
H1044 H 0.91125 0.14652 0.09199 0.0
H1045 H 0.11352 0.2349 0.16274 0.0
H1046 H 0.92076 0.09907 0.16196 0.0
H1047 H 0.10632 0.23913 0.08306 0.0
H1048 H 0.0432 0.18752 0.1641 0.0
H1049 H 0.98282 0.18445 0.08947 0.0
C1050 C 0.92849 0.14405 0.10678 0.0
C1051 C 0.91016 0.1197 0.12722 0.0
C1052 C 0.05718 0.19847 0.14631 0.0
C1053 C 0.99195 0.16326 0.12462 0.0
C1054 C 0.09735 0.22533 0.1455 0.0
C1055 C 0.11572 0.24132 0.12276 0.0
C1056 C 0.03525 0.18795 0.12426 0.0
C1057 C 0.09319 0.22805 0.10103 0.0
C1058 C 0.96927 0.16551 0.10529 0.0
C1059 C 0.93383 0.11736 0.14583 0.0
N1060 N 0.05406 0.20262 0.10233 0.0
N1061 N 0.97355 0.13925 0.14424 0.0
H1062 H 0.82204 0.91207 0.66178 0.0
H1063 H 0.86494 0.10098 0.58319 0.0
H1064 H 0.76512 0.905 0.59214 0.0
H1065 H 0.87342 0.10379 0.66298 0.0
H1066 H 0.8399 0.03024 0.58406 0.0
H1067 H 0.85263 0.98382 0.66044 0.0
C1068 C 0.8163 0.92568 0.64613 0.0
C1069 C 0.79095 0.90267 0.62708 0.0
C1070 C 0.84737 0.04638 0.60137 0.0
C1071 C 0.82599 0.98436 0.62532 0.0
C1072 C 0.86148 0.08666 0.6009 0.0
C1073 C 0.87026 0.10805 0.62308 0.0
C1074 C 0.84292 0.02746 0.62417 0.0
C1075 C 0.86666 0.08832 0.64545 0.0
C1076 C 0.83354 0.96649 0.64545 0.0
C1077 C 0.78425 0.9217 0.60729 0.0
N1078 N 0.85313 0.04906 0.64545 0.0
N1079 N 0.80178 0.96142 0.60686 0.0
H1080 H 0.91684 0.81154 0.1648 0.0
H1081 H 0.76876 0.85114 0.08598 0.0
H1082 H 0.86386 0.75023 0.09681 0.0
H1083 H 0.77491 0.86202 0.16567 0.0
H1084 H 0.81422 0.8258 0.08741 0.0
H1085 H 0.87528 0.84188 0.16325 0.0
C1086 C 0.89669 0.80476 0.14947 0.0
C1087 C 0.89362 0.77827 0.13095 0.0
C1088 C 0.80571 0.83384 0.10458 0.0
C1089 C 0.84658 0.81307 0.1289 0.0
C1090 C 0.77963 0.8481 0.1038 0.0
C1091 C 0.76718 0.85765 0.12578 0.0
C1092 C 0.82038 0.83006 0.12749 0.0
C1093 C 0.78347 0.85466 0.14828 0.0
C1094 C 0.87291 0.82186 0.14867 0.0
C1095 C 0.86691 0.77027 0.11155 0.0
N1096 N 0.80919 0.84103 0.14858 0.0
N1097 N 0.84459 0.78774 0.11095 0.0
H1098 H 0.91651 0.75965 0.66546 0.0
H1099 H 0.12278 0.90551 0.60319 0.0
H1100 H 0.92985 0.77687 0.58636 0.0
H1101 H 0.11111 0.85256 0.67495 0.0
H1102 H 0.05152 0.86583 0.59764 0.0
H1103 H 0.98713 0.80164 0.67041 0.0
C1104 C 0.93427 0.77254 0.64914 0.0
C1105 C 0.91737 0.7643 0.62545 0.0
C1106 C 0.06463 0.86293 0.61457 0.0
C1107 C 0.99833 0.81288 0.63096 0.0
C1108 C 0.10519 0.88564 0.61779 0.0
C1109 C 0.12285 0.88225 0.63955 0.0
C1110 C 0.04152 0.8372 0.63345 0.0
C1111 C 0.09874 0.85584 0.65781 0.0
C1112 C 0.97464 0.79636 0.65196 0.0
C1113 C 0.94185 0.78213 0.60494 0.0
N1114 N 0.05935 0.83454 0.65441 0.0
N1115 N 0.98115 0.80562 0.60814 0.0
H1116 H 0.09857 0.85342 0.41982 0.0
H1117 H 0.94797 0.87093 0.32904 0.0
H1118 H 0.11788 0.8762 0.34138 0.0
H1119 H 0.91537 0.82334 0.40276 0.0
H1120 H 1.0103 0.87244 0.33365 0.0
H1121 H 0.03157 0.8415 0.41465 0.0
C1122 C 0.08856 0.85538 0.40147 0.0
C1123 C 0.11379 0.86546 0.38097 0.0
C1124 C 0.98952 0.86132 0.34881 0.0
C1125 C 0.0376 0.85301 0.37502 0.0
C1126 C 0.95391 0.8605 0.34617 0.0
C1127 C 0.92656 0.84716 0.36559 0.0
C1128 C 0.99836 0.84922 0.3712 0.0
C1129 C 0.93564 0.83371 0.38732 0.0
C1130 C 0.05039 0.8488 0.39856 0.0
C1131 C 0.09961 0.8687 0.35775 0.0
N1132 N 0.971 0.83551 0.38968 0.0
N1133 N 0.06266 0.86269 0.35545 0.0
H1134 H 0.08875 0.91555 0.9051 0.0
H1135 H 0.24363 0.11688 0.84031 0.0
H1136 H 0.08482 0.94277 0.82804 0.0
H1137 H 0.23514 0.10179 0.91974 0.0
H1138 H 0.18897 0.05054 0.83541 0.0
H1139 H 0.14661 0.98072 0.91071 0.0
C1140 C 0.10023 0.93511 0.88935 0.0
C1141 C 0.08177 0.9239 0.86612 0.0
C1142 C 0.19897 0.06164 0.85395 0.0
C1143 C 0.14758 0.99824 0.87239 0.0
C1144 C 0.23007 0.09966 0.85676 0.0
C1145 C 0.24383 0.11494 0.88048 0.0
C1146 C 0.18141 0.03848 0.875 0.0
C1147 C 0.22552 0.091 0.90111 0.0
C1148 C 0.13303 0.97233 0.8926 0.0
C1149 C 0.09772 0.95043 0.84637 0.0
N1150 N 0.19523 0.05387 0.89791 0.0
N1151 N 0.12959 0.98627 0.84996 0.0
H1152 H 0.16049 0.24738 0.43446 0.0
H1153 H 0.19719 0.09789 0.35384 0.0
H1154 H 0.13136 0.22648 0.35671 0.0
H1155 H 0.25864 0.15165 0.4217 0.0
H1156 H 0.16234 0.13485 0.35729 0.0
H1157 H 0.18517 0.20158 0.43282 0.0
C1158 C 0.15881 0.23275 0.41709 0.0
C1159 C 0.14445 0.24127 0.39558 0.0
C1160 C 0.18333 0.13837 0.37145 0.0
C1161 C 0.17241 0.18849 0.39364 0.0
C1162 C 0.20306 0.11719 0.36958 0.0
C1163 C 0.23098 0.12188 0.38746 0.0
C1164 C 0.19116 0.16396 0.39156 0.0
C1165 C 0.23768 0.1475 0.40736 0.0
C1166 C 0.173 0.20666 0.41617 0.0
C1167 C 0.14231 0.22087 0.37371 0.0
N1168 N 0.21791 0.16752 0.40888 0.0
N1169 N 0.1565 0.19564 0.37324 0.0
H1170 H 0.07419 0.15207 0.82295 0.0
H1171 H 0.92528 0.15162 0.92447 0.0
H1172 H 0.1082 0.18728 0.89885 0.0
H1173 H 0.89699 0.12139 0.84735 0.0
H1174 H 0.99279 0.1673 0.91595 0.0
H1175 H 1.00985 0.14363 0.83184 0.0
C1176 C 0.06807 0.15811 0.84154 0.0
C1177 C 0.09645 0.16998 0.86026 0.0
C1178 C 0.97179 0.15732 0.90091 0.0
C1179 C 0.02243 0.16026 0.87069 0.0
C1180 C 0.9333 0.1485 0.90574 0.0
C1181 C 0.90548 0.13548 0.88656 0.0
C1182 C 0.98238 0.1527 0.87675 0.0
C1183 C 0.9173 0.13121 0.86276 0.0
C1184 C 0.03129 0.15336 0.84661 0.0
C1185 C 0.08713 0.1781 0.88389 0.0
N1186 N 0.95472 0.13978 0.85857 0.0
N1187 N 0.05074 0.17275 0.88852 0.0
H1188 H 0.84957 0.10418 0.33685 0.0
H1189 H 0.793 0.92372 0.42509 0.0
H1190 H 0.94165 0.10515 0.38072 0.0
H1191 H 0.75821 0.91145 0.34834 0.0
H1192 H 0.83879 0.99419 0.41778 0.0
H1193 H 0.80492 0.03763 0.35092 0.0
C1194 C 0.86041 0.09058 0.34962 0.0
C1195 C 0.89987 0.11006 0.35703 0.0
C1196 C 0.82112 0.97579 0.40264 0.0
C1197 C 0.84829 0.03392 0.37362 0.0
C1198 C 0.79508 0.93581 0.40675 0.0
C1199 C 0.7718 0.91179 0.38725 0.0
C1200 C 0.82281 0.99173 0.37908 0.0
C1201 C 0.77557 0.92879 0.36386 0.0
C1202 C 0.83482 0.05262 0.35764 0.0
C1203 C 0.91162 0.09122 0.37436 0.0
N1204 N 0.80011 0.9677 0.36052 0.0
N1205 N 0.886 0.05392 0.38193 0.0
H1206 H 0.87849 0.78165 0.92387 0.0
H1207 H 0.7575 0.84139 0.83592 0.0
H1208 H 0.86297 0.7529 0.84599 0.0
H1209 H 0.84533 0.93205 0.88223 0.0
H1210 H 0.78122 0.79748 0.84858 0.0
H1211 H 0.85405 0.82778 0.91688 0.0
C1212 C 0.87017 0.78524 0.90534 0.0
C1213 C 0.87275 0.76351 0.88545 0.0
C1214 C 0.79504 0.82689 0.85613 0.0
C1215 C 0.84408 0.81498 0.87758 0.0
C1216 C 0.78161 0.85207 0.84893 0.0
C1217 C 0.80013 0.89102 0.85745 0.0
C1218 C 0.82674 0.84013 0.87246 0.0
C1219 C 0.83033 0.90245 0.87503 0.0
C1220 C 0.85638 0.8115 0.9014 0.0
C1221 C 0.86166 0.76919 0.86179 0.0
N1222 N 0.84297 0.87718 0.88186 0.0
N1223 N 0.84726 0.79385 0.8586 0.0
H1224 H 0.09146 0.65639 0.12852 0.0
H1225 H 0.26865 0.61375 0.12339 0.0
H1226 H 0.20857 0.74302 0.10713 0.0
H1227 H 0.15458 0.52749 0.09605 0.0
H1228 H 0.24443 0.65931 0.12921 0.0
H1229 H 0.11184 0.60629 0.12805 0.0
C1230 C 0.12142 0.6649 0.12401 0.0
C1231 C 0.14834 0.70378 0.11767 0.0
C1232 C 0.22471 0.63025 0.12211 0.0
C1233 C 0.17187 0.6474 0.1177 0.0
C1234 C 0.23857 0.6042 0.11852 0.0
C1235 C 0.21404 0.56664 0.10864 0.0
C1236 C 0.18574 0.61869 0.11636 0.0
C1237 C 0.17475 0.55589 0.10378 0.0
C1238 C 0.13295 0.6364 0.12363 0.0
C1239 C 0.18683 0.71333 0.1119 0.0
N1240 N 0.16184 0.5818 0.10762 0.0
N1241 N 0.19749 0.68549 0.11221 0.0
H1242 H 0.64037 0.1689 0.57938 0.0
H1243 H 0.45339 0.13316 0.6592 0.0
H1244 H 0.65062 0.22574 0.64966 0.0
H1245 H 0.45294 0.12304 0.57953 0.0
H1246 H 0.52312 0.15166 0.65946 0.0
H1247 H 0.5689 0.13656 0.58285 0.0
C1248 C 0.62757 0.17411 0.59572 0.0
C1249 C 0.65148 0.2003 0.61416 0.0
C1250 C 0.50749 0.14483 0.642 0.0
C1251 C 0.56973 0.16328 0.61829 0.0
C1252 C 0.46775 0.13401 0.64187 0.0
C1253 C 0.44763 0.12698 0.61929 0.0
C1254 C 0.52678 0.14776 0.61944 0.0
C1255 C 0.46756 0.12868 0.59731 0.0
C1256 C 0.58682 0.15582 0.59763 0.0
C1257 C 0.63325 0.20615 0.63486 0.0
N1258 N 0.50599 0.13896 0.59793 0.0
N1259 N 0.59348 0.18787 0.63637 0.0
H1260 H 0.47084 0.63302 0.07914 0.0
H1261 H 0.32154 0.44986 0.16194 0.0
H1262 H 0.42886 0.64654 0.15032 0.0
H1263 H 0.32844 0.44587 0.08225 0.0
H1264 H 0.37237 0.51958 0.16093 0.0
H1265 H 0.42984 0.56179 0.08305 0.0
C1266 C 0.45337 0.62096 0.09573 0.0
C1267 C 0.45307 0.64574 0.11435 0.0
C1268 C 0.36299 0.50322 0.14373 0.0
C1269 C 0.40625 0.56429 0.11901 0.0
C1270 C 0.3343 0.46348 0.14432 0.0
C1271 C 0.32061 0.44235 0.12212 0.0
C1272 C 0.37851 0.5215 0.12083 0.0
C1273 C 0.33795 0.46131 0.09976 0.0
C1274 C 0.42985 0.58036 0.09789 0.0
C1275 C 0.4296 0.62849 0.13539 0.0
N1276 N 0.36588 0.49977 0.09967 0.0
N1277 N 0.40713 0.58884 0.13716 0.0
H1278 H 0.95895 0.52273 0.59741 0.0
H1279 H 0.84153 0.30161 0.64447 0.0
H1280 H 0.83264 0.45846 0.60131 0.0
H1281 H 0.95172 0.35001 0.60569 0.0
H1282 H 0.84116 0.36294 0.63748 0.0
H1283 H 0.95997 0.46364 0.60948 0.0
C1284 C 0.93134 0.49629 0.60074 0.0
C1285 C 0.89556 0.49569 0.59775 0.0
C1286 C 0.86554 0.36014 0.63071 0.0
C1287 C 0.89684 0.42792 0.61239 0.0
C1288 C 0.86586 0.3252 0.63469 0.0
C1289 C 0.89672 0.3205 0.62558 0.0
C1290 C 0.89676 0.39098 0.61803 0.0
C1291 C 0.92757 0.3523 0.61328 0.0
C1292 C 0.93206 0.46258 0.60779 0.0
C1293 C 0.86096 0.46062 0.60337 0.0
N1294 N 0.92684 0.38613 0.60989 0.0
N1295 N 0.86245 0.42813 0.61033 0.0
H1296 H 0.54998 0.83929 0.15306 0.0
H1297 H 0.42718 0.89221 0.05929 0.0
H1298 H 0.60292 0.93003 0.09784 0.0
H1299 H 0.37453 0.81335 0.12081 0.0
H1300 H 0.49204 0.91076 0.07559 0.0
H1301 H 0.48637 0.83351 0.14422 0.0
C1302 C 0.54828 0.85836 0.13927 0.0
C1303 C 0.58174 0.88489 0.12596 0.0
C1304 C 0.46643 0.88985 0.08581 0.0
C1305 C 0.50881 0.87815 0.11554 0.0
C1306 C 0.42938 0.87934 0.07653 0.0
C1307 C 0.39548 0.85119 0.08872 0.0
C1308 C 0.46982 0.87163 0.1073 0.0
C1309 C 0.39995 0.83533 0.11094 0.0
C1310 C 0.51192 0.85505 0.13424 0.0
C1311 C 0.5779 0.9091 0.10849 0.0
N1312 N 0.43644 0.84534 0.11933 0.0
N1313 N 0.54203 0.90476 0.10354 0.0
H1314 H 0.66801 0.59034 0.64138 0.0
H1315 H 0.56866 0.36882 0.59181 0.0
H1316 H 0.72761 0.54383 0.59793 0.0
H1317 H 0.50105 0.42218 0.61468 0.0
H1318 H 0.62869 0.42968 0.60212 0.0
H1319 H 0.60787 0.5263 0.6389 0.0
C1320 C 0.66856 0.56694 0.63129 0.0
C1321 C 0.70286 0.57311 0.61934 0.0
C1322 C 0.6007 0.42797 0.60512 0.0
C1323 C 0.63451 0.49932 0.61706 0.0
C1324 C 0.5664 0.39306 0.59945 0.0
C1325 C 0.52977 0.39047 0.60215 0.0
C1326 C 0.59846 0.46054 0.61374 0.0
C1327 C 0.52872 0.42309 0.61196 0.0
C1328 C 0.63424 0.53028 0.62997 0.0
C1329 C 0.70186 0.54103 0.60706 0.0
N1330 N 0.56251 0.45681 0.61725 0.0
N1331 N 0.66841 0.50578 0.60624 0.0
H1332 H 0.34821 0.93357 0.41499 0.0
H1333 H 0.46119 0.8128 0.39601 0.0
H1334 H 0.30974 0.83705 0.3638 0.0
H1335 H 0.48705 0.89772 0.45399 0.0
H1336 H 0.41221 0.82808 0.37926 0.0
H1337 H 0.40575 0.92784 0.42466 0.0
C1338 C 0.35212 0.9115 0.40552 0.0
C1339 C 0.32385 0.88551 0.38875 0.0
C1340 C 0.42899 0.84373 0.39545 0.0
C1341 C 0.38969 0.87844 0.39992 0.0
C1342 C 0.45712 0.83521 0.40488 0.0
C1343 C 0.47802 0.85387 0.42648 0.0
C1344 C 0.42203 0.87136 0.40761 0.0
C1345 C 0.47132 0.88241 0.43741 0.0
C1346 C 0.38491 0.90806 0.41116 0.0
C1347 C 0.33055 0.85742 0.37708 0.0
N1348 N 0.44388 0.8901 0.42797 0.0
N1349 N 0.36256 0.85441 0.38302 0.0
H1350 H 0.63798 0.45895 0.93444 0.0
H1351 H 0.44469 0.33619 0.85209 0.0
H1352 H 0.63917 0.45313 0.85457 0.0
H1353 H 0.45273 0.31372 0.9296 0.0
H1354 H 0.51254 0.39048 0.85368 0.0
H1355 H 0.56649 0.41678 0.93374 0.0
C1356 C 0.62311 0.44918 0.91677 0.0
C1357 C 0.64446 0.45902 0.89456 0.0
C1358 C 0.49923 0.37381 0.87036 0.0
C1359 C 0.56298 0.4111 0.89357 0.0
C1360 C 0.46051 0.34297 0.86949 0.0
C1361 C 0.44331 0.31998 0.89063 0.0
C1362 C 0.52058 0.38194 0.89259 0.0
C1363 C 0.46509 0.33021 0.91273 0.0
C1364 C 0.58242 0.42504 0.91637 0.0
C1365 C 0.6238 0.44559 0.87214 0.0
N1366 N 0.50261 0.36027 0.9131 0.0
N1367 N 0.58424 0.4222 0.87221 0.0
H1368 H 0.23833 0.64565 0.36016 0.0
H1369 H 0.12101 0.4414 0.42793 0.0
H1370 H 0.17046 0.62956 0.42641 0.0
H1371 H 0.15031 0.44892 0.35033 0.0
H1372 H 0.13865 0.51027 0.42748 0.0
H1373 H 0.20737 0.57432 0.3559 0.0
C1374 C 0.21674 0.62711 0.37373 0.0
C1375 C 0.20715 0.64366 0.39378 0.0
C1376 C 0.14068 0.49685 0.41041 0.0
C1377 C 0.17169 0.56199 0.38901 0.0
C1378 C 0.13057 0.45753 0.41066 0.0
C1379 C 0.13436 0.43962 0.38916 0.0
C1380 C 0.15561 0.51884 0.38863 0.0
C1381 C 0.14684 0.46171 0.36727 0.0
C1382 C 0.19888 0.58641 0.37117 0.0
C1383 C 0.17863 0.61817 0.41061 0.0
N1384 N 0.15778 0.50048 0.36766 0.0
N1385 N 0.16233 0.57871 0.40803 0.0
H1386 H 0.71406 0.16115 0.92734 0.0
H1387 H 0.50012 0.08609 0.87502 0.0
H1388 H 0.67404 0.09511 0.85929 0.0
H1389 H 0.55666 0.1837 0.92543 0.0
H1390 H 0.56256 0.08755 0.86921 0.0
H1391 H 0.65606 0.1683 0.92756 0.0
C1392 C 0.69305 0.14794 0.91243 0.0
C1393 C 0.69867 0.12653 0.89354 0.0
C1394 C 0.56149 0.10903 0.88127 0.0
C1395 C 0.63173 0.13469 0.89379 0.0
C1396 C 0.52589 0.10822 0.88458 0.0
C1397 C 0.52324 0.13481 0.90076 0.0
C1398 C 0.59463 0.13613 0.89461 0.0
C1399 C 0.55749 0.16285 0.91268 0.0
C1400 C 0.65994 0.15224 0.91254 0.0
C1401 C 0.67049 0.11072 0.8746 0.0
N1402 N 0.59163 0.16242 0.90966 0.0
N1403 N 0.63804 0.1147 0.87536 0.0
H1404 H 0.37488 0.58758 0.35845 0.0
H1405 H 0.57139 0.69916 0.43512 0.0
H1406 H 0.38572 0.54986 0.43155 0.0
H1407 H 0.57276 0.69639 0.35516 0.0
H1408 H 0.50273 0.64725 0.43468 0.0
H1409 H 0.44622 0.63071 0.35707 0.0
C1410 C 0.39233 0.5883 0.37417 0.0
C1411 C 0.37432 0.56519 0.3952 0.0
C1412 C 0.51812 0.65763 0.41723 0.0
C1413 C 0.45591 0.6148 0.39384 0.0
C1414 C 0.55731 0.68732 0.41745 0.0
C1415 C 0.5778 0.70224 0.39513 0.0
C1416 C 0.49878 0.64328 0.39451 0.0
C1417 C 0.55808 0.68566 0.37279 0.0
C1418 C 0.43302 0.61272 0.3733 0.0
C1419 C 0.39839 0.56706 0.41496 0.0
N1420 N 0.51946 0.65752 0.37302 0.0
N1421 N 0.43783 0.5918 0.41395 0.0
H1422 H 0.84607 0.55382 0.92195 0.0
H1423 H 0.93463 0.4152 0.89123 0.0
H1424 H 0.93462 0.58265 0.86626 0.0
H1425 H 0.82408 0.37349 0.92845 0.0
H1426 H 0.93687 0.47742 0.88294 0.0
H1427 H 0.83967 0.48897 0.92635 0.0
C1428 C 0.8641 0.54641 0.91058 0.0
C1429 C 0.89069 0.57354 0.89357 0.0
C1430 C 0.91185 0.45455 0.89264 0.0
C1431 C 0.88427 0.49961 0.89887 0.0
C1432 C 0.91049 0.41897 0.89729 0.0
C1433 C 0.87902 0.38905 0.91045 0.0
C1434 C 0.88188 0.46073 0.90161 0.0
C1435 C 0.84865 0.3956 0.91803 0.0
C1436 C 0.8605 0.50941 0.91312 0.0
C1437 C 0.91415 0.56286 0.87981 0.0
N1438 N 0.85106 0.43088 0.91378 0.0
N1439 N 0.91046 0.52679 0.88277 0.0
H1440 H 0.14631 0.28804 0.3161 0.0
H1441 H 0.24266 0.41719 0.19532 0.0
H1442 H 0.20464 0.414 0.32137 0.0
H1443 H 0.14921 0.2971 0.19588 0.0
H1444 H 0.23558 0.41979 0.24086 0.0
H1445 H 0.15659 0.2932 0.27171 0.0
C1446 C 0.16159 0.31697 0.3079 0.0
C1447 C 0.17426 0.35063 0.32249 0.0
C1448 C 0.21632 0.39319 0.23084 0.0
C1449 C 0.18585 0.35683 0.27105 0.0
C1450 C 0.22008 0.39183 0.20492 0.0
C1451 C 0.19654 0.35683 0.19196 0.0
C1452 C 0.18906 0.35922 0.24353 0.0
C1453 C 0.16817 0.32455 0.2052 0.0
C1454 C 0.16728 0.3199 0.28242 0.0
C1455 C 0.19448 0.38732 0.31075 0.0
N1456 N 0.16552 0.32646 0.23015 0.0
N1457 N 0.19949 0.38952 0.28556 0.0
H1458 H 0.86716 0.14892 0.69822 0.0
H1459 H 0.78493 0.19212 0.82283 0.0
H1460 H 0.82952 0.23462 0.69835 0.0
H1461 H 0.85706 0.1384 0.8181 0.0
H1462 H 0.79452 0.20564 0.7777 0.0
H1463 H 0.85379 0.13894 0.74228 0.0
C1464 C 0.85582 0.16554 0.7076 0.0
C1465 C 0.84996 0.19301 0.69475 0.0
C1466 C 0.80838 0.1912 0.78676 0.0
C1467 C 0.83489 0.18212 0.74565 0.0
C1468 C 0.80316 0.18376 0.81243 0.0
C1469 C 0.8198 0.16365 0.82411 0.0
C1470 C 0.8302 0.17821 0.77303 0.0
C1471 C 0.84303 0.15329 0.80986 0.0
C1472 C 0.84835 0.16001 0.73285 0.0
C1473 C 0.83451 0.21323 0.70774 0.0
N1474 N 0.84723 0.16041 0.78521 0.0
N1475 N 0.82775 0.20765 0.73268 0.0
H1476 H 0.59484 0.81162 0.19434 0.0
H1477 H 0.59499 0.76696 0.32383 0.0
H1478 H 0.71945 0.86442 0.20547 0.0
H1479 H 0.70482 0.87532 0.32128 0.0
H1480 H 0.58931 0.77065 0.27833 0.0
H1481 H 0.58508 0.7998 0.2394 0.0
C1482 C 0.62001 0.82014 0.20619 0.0
C1483 C 0.65808 0.83965 0.19627 0.0
C1484 C 0.61403 0.79407 0.28793 0.0
C1485 C 0.64721 0.82661 0.24737 0.0
C1486 C 0.6171 0.79212 0.31381 0.0
C1487 C 0.6504 0.82097 0.32616 0.0
C1488 C 0.64473 0.82491 0.27473 0.0
C1489 C 0.67882 0.85246 0.31241 0.0
C1490 C 0.61441 0.81342 0.23182 0.0
C1491 C 0.68967 0.85005 0.21236 0.0
N1492 N 0.67564 0.85325 0.28746 0.0
N1493 N 0.68355 0.84401 0.23708 0.0
H1494 H 0.87717 0.7086 0.69201 0.0
H1495 H 0.82278 0.59057 0.81853 0.0
H1496 H 0.77566 0.59315 0.69382 0.0
H1497 H 0.87748 0.71609 0.81189 0.0
H1498 H 0.80983 0.5848 0.77333 0.0
H1499 H 0.88597 0.70491 0.73614 0.0
C1500 C 0.85688 0.68221 0.70175 0.0
C1501 C 0.82541 0.65138 0.68935 0.0
C1502 C 0.82439 0.61343 0.78198 0.0
C1503 C 0.83486 0.64708 0.74032 0.0
C1504 C 0.83166 0.61675 0.80765 0.0
C1505 C 0.85203 0.65392 0.81879 0.0
C1506 C 0.83791 0.64758 0.76771 0.0
C1507 C 0.86261 0.68691 0.80401 0.0
C1508 C 0.86176 0.68019 0.72702 0.0
C1509 C 0.8003 0.61754 0.70284 0.0
N1510 N 0.85586 0.68296 0.7793 0.0
N1511 N 0.80531 0.61633 0.72786 0.0
H1512 H 0.19432 0.87628 0.18481 0.0
H1513 H 0.16531 0.86835 0.30792 0.0
H1514 H 0.18092 0.7613 0.19182 0.0
H1515 H 0.23953 0.81709 0.31358 0.0
H1516 H 0.16037 0.85678 0.26341 0.0
H1517 H 0.20649 0.88635 0.22929 0.0
C1518 C 0.19495 0.85352 0.19573 0.0
C1519 C 0.18697 0.81808 0.18476 0.0
C1520 C 0.17797 0.84825 0.27433 0.0
C1521 C 0.19872 0.82851 0.23584 0.0
C1522 C 0.18058 0.85458 0.29975 0.0
C1523 C 0.20365 0.84453 0.31434 0.0
C1524 C 0.19858 0.83174 0.26319 0.0
C1525 C 0.22183 0.82567 0.30285 0.0
C1526 C 0.2013 0.85903 0.22111 0.0
C1527 C 0.18754 0.78923 0.19971 0.0
N1528 N 0.21915 0.82005 0.27774 0.0
N1529 N 0.19289 0.79487 0.22473 0.0
H1530 H 0.30195 0.15335 0.81108 0.0
H1531 H 0.42801 0.18873 0.68912 0.0
H1532 H 0.42493 0.23902 0.81399 0.0
H1533 H 0.30706 0.15971 0.69104 0.0
H1534 H 0.43218 0.20154 0.73442 0.0
H1535 H 0.3077 0.1452 0.76699 0.0
C1536 C 0.33038 0.17029 0.80241 0.0
C1537 C 0.36288 0.19733 0.81615 0.0
C1538 C 0.40503 0.19288 0.7247 0.0
C1539 C 0.36965 0.18841 0.76519 0.0
C1540 C 0.40271 0.18586 0.69894 0.0
C1541 C 0.36699 0.1727 0.68645 0.0
C1542 C 0.37128 0.18622 0.73771 0.0
C1543 C 0.33499 0.16916 0.69997 0.0
C1544 C 0.33361 0.16578 0.77715 0.0
C1545 C 0.39917 0.21792 0.80396 0.0
N1546 N 0.33779 0.17537 0.72477 0.0
N1547 N 0.40162 0.21332 0.77896 0.0
H1548 H 0.37479 0.29425 0.9625 0.0
H1549 H 0.20274 0.25488 0.05646 0.0
H1550 H 0.25472 0.20548 0.95007 0.0
H1551 H 0.30256 0.37044 0.04811 0.0
H1552 H 0.22496 0.23272 0.02077 0.0
H1553 H 0.3534 0.31854 0.99814 0.0
C1554 C 0.34414 0.27934 0.96767 0.0
C1555 C 0.31646 0.24762 0.95355 0.0
C1556 C 0.24185 0.26305 0.02651 0.0
C1557 C 0.29189 0.27528 0.99379 0.0
C1558 C 0.22904 0.27574 0.04676 0.0
C1559 C 0.25057 0.31461 0.05494 0.0
C1560 C 0.27711 0.28912 0.01467 0.0
C1561 C 0.28478 0.3404 0.04199 0.0
C1562 C 0.3319 0.29355 0.98768 0.0
C1563 C 0.27698 0.22991 0.96057 0.0
N1564 N 0.29737 0.32707 0.02264 0.0
N1565 N 0.26592 0.24382 0.9802 0.0
H1566 H 0.06727 0.25412 0.4578 0.0
H1567 H 0.94335 0.30423 0.55451 0.0
H1568 H 0.08564 0.37094 0.46574 0.0
H1569 H 0.94451 0.19552 0.55226 0.0
H1570 H 0.99112 0.32884 0.52007 0.0
H1571 H 0.02019 0.23242 0.49165 0.0
C1572 C 0.0619 0.27541 0.4671 0.0
C1573 C 0.08055 0.3144 0.45911 0.0
C1574 C 0.98045 0.29942 0.52693 0.0
C1575 C 0.02548 0.28951 0.49763 0.0
C1576 C 0.95272 0.28518 0.54622 0.0
C1577 C 0.93966 0.24762 0.55589 0.0
C1578 C 0.99479 0.27571 0.51731 0.0
C1579 C 0.95363 0.22452 0.54515 0.0
C1580 C 0.0347 0.26296 0.48632 0.0
C1581 C 0.07228 0.34074 0.47166 0.0
N1582 N 0.98035 0.23891 0.52656 0.0
N1583 N 0.04493 0.32771 0.49017 0.0
H1584 H 0.64536 0.92943 0.05395 0.0
H1585 H 0.82045 0.05813 0.95959 0.0
H1586 H 0.75834 0.93716 0.05526 0.0
H1587 H 0.72081 0.07469 0.96744 0.0
H1588 H 0.79566 0.0109 0.99341 0.0
H1589 H 0.66845 0.97757 0.01977 0.0
C1590 C 0.67454 0.94037 0.04653 0.0
C1591 C 0.6999 0.92906 0.05715 0.0
C1592 C 0.77928 0.02509 0.98805 0.0
C1593 C 0.72673 0.98451 0.01882 0.0
C1594 C 0.79367 0.05235 0.96888 0.0
C1595 C 0.77278 0.07047 0.96087 0.0
C1596 C 0.74332 0.01529 0.99925 0.0
C1597 C 0.73805 0.06171 0.97337 0.0
C1598 C 0.68794 0.9683 0.02739 0.0
C1599 C 0.73782 0.94495 0.04746 0.0
N1600 N 0.72406 0.03428 0.99179 0.0
N1601 N 0.75002 0.97176 0.02894 0.0
H1602 H 0.7212 0.63994 0.54888 0.0
H1603 H 0.77025 0.81377 0.45359 0.0
H1604 H 0.82557 0.75319 0.55235 0.0
H1605 H 0.65142 0.72272 0.467 0.0
H1606 H 0.79254 0.78722 0.48652 0.0
H1607 H 0.69702 0.66394 0.51466 0.0
C1608 C 0.73942 0.66941 0.54194 0.0
C1609 C 0.77551 0.69461 0.55321 0.0
C1610 C 0.76151 0.77314 0.48251 0.0
C1611 C 0.74806 0.72227 0.51472 0.0
C1612 C 0.74876 0.78843 0.4638 0.0
C1613 C 0.70892 0.77065 0.45781 0.0
C1614 C 0.73438 0.73922 0.49514 0.0
C1615 C 0.68233 0.73765 0.47143 0.0
C1616 C 0.72539 0.68327 0.52279 0.0
C1617 C 0.79764 0.73283 0.54406 0.0
N1618 N 0.69558 0.72265 0.48936 0.0
N1619 N 0.78362 0.74544 0.52541 0.0
H1620 H 0.92629 0.73675 0.96778 0.0
H1621 H 0.09934 0.72827 0.03955 0.0
H1622 H 0.95097 0.6431 0.95596 0.0
H1623 H 0.04914 0.79857 0.06294 0.0
H1624 H 0.04828 0.69848 0.00732 0.0
H1625 H 0.97226 0.76013 1.00252 0.0
C1626 C 0.94061 0.72045 0.97309 0.0
C1627 C 0.93441 0.68761 0.95943 0.0
C1628 C 0.0486 0.72045 0.01956 0.0
C1629 C 0.98867 0.71524 0.99833 0.0
C1630 C 0.07799 0.73778 0.03771 0.0
C1631 C 0.07858 0.76599 0.05394 0.0
C1632 C 0.02007 0.73188 0.01752 0.0
C1633 C 0.04983 0.77682 0.05098 0.0
C1634 C 0.96722 0.73402 0.99271 0.0
C1635 C 0.95446 0.66808 0.9665 0.0
N1636 N 0.02196 0.75989 0.03318 0.0
N1637 N 0.98122 0.68252 0.98528 0.0
H1638 H 0.19627 0.93331 0.45814 0.0
H1639 H 0.37883 0.08019 0.54205 0.0
H1640 H 0.30482 0.93184 0.45665 0.0
H1641 H 0.25962 0.05176 0.55532 0.0
H1642 H 0.35549 0.03139 0.50811 0.0
H1643 H 0.22122 0.98016 0.49228 0.0
C1644 C 0.22512 0.94225 0.46549 0.0
C1645 C 0.24826 0.92824 0.45489 0.0
C1646 C 0.3346 0.03616 0.51839 0.0
C1647 C 0.27793 0.98337 0.49347 0.0
C1648 C 0.34797 0.06438 0.53744 0.0
C1649 C 0.32111 0.07015 0.55139 0.0
C1650 C 0.29426 0.01414 0.51315 0.0
C1651 C 0.28134 0.04828 0.54506 0.0
C1652 C 0.23956 0.96931 0.48484 0.0
C1653 C 0.28576 0.94131 0.46477 0.0
N1654 N 0.26922 0.02143 0.5265 0.0
N1655 N 0.29972 0.96861 0.48335 0.0
loop_
_geom_bond_atom_site_label_1
_geom_bond_atom_site_label_2
_geom_bond_distance
_geom_bond_site_symmetry_2
_ccdc_geom_bond_type
Eu0 N29 2.600 . S
Eu0 N35 2.562 . S
Eu0 O44 2.462 . S
Eu0 O45 2.373 . S
Eu0 O47 2.432 . S
Eu0 O48 2.291 . S
Eu0 O52 2.335 . S
Eu0 O55 2.372 . S
Eu0 C64 2.787 . S
C1 N2 1.365 . S
C1 C4 1.405 . S
C1 C8 1.448 . S
N2 C1 1.365 . S
N2 C5 1.319 . S
N2 Eu11 2.600 . S
C3 C5 1.397 . S
C3 C6 1.367 . S
C3 H23 0.931 1_554 S
C4 C1 1.405 . S
C4 C6 1.403 . S
C4 C10 1.439 . S
C5 N2 1.319 . S
C5 C3 1.397 . S
C5 H16 0.930 . S
C6 C3 1.367 . S
C6 C4 1.403 . S
C6 H27 0.929 . S
C7 C8 1.430 . S
C7 C9 1.378 1_455 S
C7 C13 1.404 . S
C8 C1 1.448 . S
C8 C7 1.430 . S
C8 N12 1.351 . S
C9 C7 1.378 1_655 S
C9 C10 1.368 1_655 S
C9 H24 0.946 . S
C10 C4 1.439 . S
C10 C9 1.368 1_455 S
C10 H25 0.931 1_455 S
Eu11 N2 2.600 . S
Eu11 N12 2.562 . S
Eu11 O46 2.335 . S
Eu11 O49 2.372 . S
Eu11 O50 2.462 . S
Eu11 O51 2.373 . S
Eu11 O53 2.432 . S
Eu11 O54 2.291 . S
Eu11 C75 2.787 . S
N12 C8 1.351 . S
N12 Eu11 2.562 . S
N12 C14 1.325 . S
C13 C7 1.404 . S
C13 C15 1.366 . S
C13 H21 0.930 1_455 S
C14 N12 1.325 . S
C14 C15 1.416 . S
C14 H20 0.929 . S
C15 C13 1.366 . S
C15 C14 1.416 . S
C15 H17 0.930 . S
H16 C5 0.930 . S
H17 C15 0.930 . S
H18 C33 0.930 . S
H19 C40 0.930 . S
H20 C14 0.929 . S
H21 C13 0.930 1_655 S
H22 C36 0.929 . S
H23 C3 0.931 1_556 S
H24 C9 0.946 . S
H25 C10 0.931 1_655 S
H26 C31 0.931 . S
H27 C6 0.929 . S
H28 C39 0.930 . S
N29 Eu0 2.600 . S
N29 C30 1.365 . S
N29 C33 1.319 . S
C30 N29 1.365 . S
C30 C32 1.405 . S
C30 C38 1.448 . S
C31 H26 0.931 . S
C31 C33 1.397 . S
C31 C34 1.367 . S
C32 C30 1.405 . S
C32 C34 1.403 . S
C32 C65 1.439 . S
C33 H18 0.930 . S
C33 N29 1.319 . S
C33 C31 1.397 . S
C34 C31 1.367 . S
C34 C32 1.403 . S
C34 H41 0.929 . S
N35 Eu0 2.562 . S
N35 C36 1.325 . S
N35 C38 1.351 . S
C36 H22 0.929 . S
C36 N35 1.325 . S
C36 C40 1.416 . S
C37 C38 1.430 . S
C37 C39 1.404 . S
C37 C66 1.387 . S
C38 C30 1.448 . S
C38 N35 1.351 . S
C38 C37 1.430 . S
C39 H28 0.930 . S
C39 C37 1.404 . S
C39 C40 1.366 . S
C40 H19 0.930 . S
C40 C36 1.416 . S
C40 C39 1.366 . S
H41 C34 0.929 . S
H42 C65 0.931 . S
H43 C66 0.931 . S
O44 Eu0 2.462 . S
O44 C64 1.252 . S
O45 Eu0 2.373 . S
O45 C56 1.249 . S
O46 Eu11 2.335 . S
O46 C56 1.264 . S
O47 Eu0 2.432 . S
O47 C64 1.268 . S
O48 Eu0 2.291 . S
O48 C63 1.255 . S
O49 Eu11 2.372 . S
O49 C63 1.257 . S
O50 Eu11 2.462 . S
O50 C75 1.252 . S
O51 Eu11 2.373 . S
O51 C67 1.249 . S
O52 Eu0 2.335 . S
O52 C67 1.264 . S
O53 Eu11 2.432 . S
O53 C75 1.268 . S
O54 Eu11 2.291 . S
O54 C74 1.255 . S
O55 Eu0 2.372 . S
O55 C74 1.257 . S
C56 O45 1.249 . S
C56 O46 1.264 . S
C57 C60 1.382 . S
C57 C62 1.390 . S
C57 C64 1.506 . S
C58 C59 1.398 . S
C58 C62 1.392 . S
C59 C58 1.398 . S
C59 C61 1.372 . S
C59 H76 0.931 . S
C60 C57 1.382 . S
C60 C61 1.390 . S
C60 H77 0.931 . S
C61 C59 1.372 . S
C61 C60 1.390 . S
C61 H78 0.929 . S
C62 C57 1.390 . S
C62 C58 1.392 . S
C62 H79 0.930 . S
C63 O48 1.255 . S
C63 O49 1.257 . S
C64 Eu0 2.787 . S
C64 O44 1.252 . S
C64 O47 1.268 . S
C64 C57 1.506 . S
C65 C32 1.439 . S
C65 H42 0.931 . S
C65 C66 1.374 . S
C66 C37 1.387 . S
C66 H43 0.931 . S
C66 C65 1.374 . S
C67 O51 1.249 . S
C67 O52 1.264 . S
C68 C71 1.382 . S
C68 C72 1.390 . S
C68 C75 1.506 . S
C69 C70 1.398 . S
C69 C72 1.392 . S
C70 C69 1.398 . S
C70 C73 1.372 . S
C70 H80 0.931 . S
C71 C68 1.382 . S
C71 C73 1.390 . S
C71 H81 0.931 . S
C72 C68 1.390 . S
C72 C69 1.392 . S
C72 H82 0.930 . S
C73 C70 1.372 . S
C73 C71 1.390 . S
C73 H83 0.929 . S
C74 O54 1.255 . S
C74 O55 1.257 . S
C75 Eu11 2.787 . S
C75 O50 1.252 . S
C75 O53 1.268 . S
C75 C68 1.506 . S
H76 C59 0.931 . S
H77 C60 0.931 . S
H78 C61 0.929 . S
H79 C62 0.930 . S
H80 C70 0.931 . S
H81 C71 0.931 . S
H82 C72 0.930 . S
H83 C73 0.929 . S
Eu84 N113 2.600 . S
Eu84 N119 2.562 . S
Eu84 O128 2.462 . S
Eu84 O129 2.373 . S
Eu84 O131 2.432 . S
Eu84 O132 2.291 . S
Eu84 O136 2.335 . S
Eu84 O139 2.372 . S
Eu84 C148 2.787 . S
C85 N86 1.365 . S
C85 C88 1.405 . S
C85 C92 1.448 . S
N86 C85 1.365 . S
N86 C89 1.319 . S
N86 Eu95 2.600 . S
C87 C89 1.397 . S
C87 C90 1.367 . S
C87 H107 0.931 . S
C88 C85 1.405 . S
C88 C90 1.403 . S
C88 C94 1.439 . S
C89 N86 1.319 . S
C89 C87 1.397 . S
C89 H100 0.930 . S
C90 C87 1.367 . S
C90 C88 1.403 . S
C90 H111 0.929 . S
C91 C92 1.430 . S
C91 C93 1.377 1_545 S
C91 C97 1.404 . S
C92 C85 1.448 . S
C92 C91 1.430 . S
C92 N96 1.351 . S
C93 C91 1.377 1_565 S
C93 C94 1.372 1_565 S
C93 H108 0.944 . S
C94 C88 1.439 . S
C94 C93 1.372 1_545 S
C94 H109 0.931 1_545 S
Eu95 N86 2.600 . S
Eu95 N96 2.562 . S
Eu95 O130 2.335 . S
Eu95 O133 2.372 . S
Eu95 O134 2.462 . S
Eu95 O135 2.373 . S
Eu95 O137 2.432 . S
Eu95 O138 2.291 . S
Eu95 C159 2.787 . S
N96 C92 1.351 . S
N96 Eu95 2.562 . S
N96 C98 1.325 . S
C97 C91 1.404 . S
C97 C99 1.366 . S
C97 H105 0.930 1_545 S
C98 N96 1.325 . S
C98 C99 1.416 . S
C98 H104 0.929 . S
C99 C97 1.366 . S
C99 C98 1.416 . S
C99 H101 0.930 . S
H100 C89 0.930 . S
H101 C99 0.930 . S
H102 C117 0.930 . S
H103 C124 0.930 . S
H104 C98 0.929 . S
H105 C97 0.930 1_565 S
H106 C120 0.929 . S
H107 C87 0.931 . S
H108 C93 0.944 . S
H109 C94 0.931 1_565 S
H110 C115 0.931 . S
H111 C90 0.929 . S
H112 C123 0.930 . S
N113 Eu84 2.600 . S
N113 C114 1.365 . S
N113 C117 1.319 . S
C114 N113 1.365 . S
C114 C116 1.405 . S
C114 C122 1.448 . S
C115 H110 0.931 . S
C115 C117 1.397 . S
C115 C118 1.367 . S
C116 C114 1.405 . S
C116 C118 1.403 . S
C116 C149 1.439 . S
C117 H102 0.930 . S
C117 N113 1.319 . S
C117 C115 1.397 . S
C118 C115 1.367 . S
C118 C116 1.403 . S
C118 H125 0.929 . S
N119 Eu84 2.562 . S
N119 C120 1.325 . S
N119 C122 1.351 . S
C120 H106 0.929 . S
C120 N119 1.325 . S
C120 C124 1.416 1_655 S
C121 C122 1.430 1_455 S
C121 C123 1.404 . S
C121 C150 1.387 . S
C122 C114 1.448 . S
C122 N119 1.351 . S
C122 C121 1.430 1_655 S
C123 H112 0.930 . S
C123 C121 1.404 . S
C123 C124 1.366 . S
C124 H103 0.930 . S
C124 C120 1.416 1_455 S
C124 C123 1.366 . S
H125 C118 0.929 . S
H126 C149 0.931 1_455 S
H127 C150 0.931 . S
O128 Eu84 2.462 . S
O128 C148 1.252 . S
O129 Eu84 2.373 . S
O129 C140 1.249 . S
O130 Eu95 2.335 . S
O130 C140 1.264 . S
O131 Eu84 2.432 . S
O131 C148 1.268 . S
O132 Eu84 2.291 . S
O132 C147 1.255 . S
O133 Eu95 2.372 . S
O133 C147 1.257 . S
O134 Eu95 2.462 . S
O134 C159 1.252 . S
O135 Eu95 2.373 . S
O135 C151 1.249 . S
O136 Eu84 2.335 . S
O136 C151 1.264 . S
O137 Eu95 2.432 . S
O137 C159 1.268 . S
O138 Eu95 2.291 . S
O138 C158 1.255 . S
O139 Eu84 2.372 . S
O139 C158 1.257 . S
C140 O129 1.249 . S
C140 O130 1.264 . S
C141 C144 1.382 . S
C141 C146 1.390 . S
C141 C148 1.506 1_455 S
C142 C143 1.398 . S
C142 C146 1.392 . S
C143 C142 1.398 . S
C143 C145 1.372 . S
C143 H160 0.931 . S
C144 C141 1.382 . S
C144 C145 1.390 . S
C144 H161 0.931 . S
C145 C143 1.372 . S
C145 C144 1.390 . S
C145 H162 0.929 . S
C146 C141 1.390 . S
C146 C142 1.392 . S
C146 H163 0.930 . S
C147 O132 1.255 . S
C147 O133 1.257 . S
C148 Eu84 2.787 . S
C148 O128 1.252 . S
C148 O131 1.268 . S
C148 C141 1.506 1_655 S
C149 C116 1.439 . S
C149 H126 0.931 1_655 S
C149 C150 1.374 1_655 S
C150 C121 1.387 . S
C150 H127 0.931 . S
C150 C149 1.374 1_455 S
C151 O135 1.249 . S
C151 O136 1.264 . S
C152 C155 1.382 . S
C152 C156 1.390 . S
C152 C159 1.506 . S
C153 C154 1.398 . S
C153 C156 1.392 . S
C154 C153 1.398 . S
C154 C157 1.372 . S
C154 H164 0.931 . S
C155 C152 1.382 . S
C155 C157 1.390 . S
C155 H165 0.931 . S
C156 C152 1.390 . S
C156 C153 1.392 . S
C156 H166 0.930 . S
C157 C154 1.372 . S
C157 C155 1.390 . S
C157 H167 0.929 . S
C158 O138 1.255 . S
C158 O139 1.257 . S
C159 Eu95 2.787 . S
C159 O134 1.252 . S
C159 O137 1.268 . S
C159 C152 1.506 . S
H160 C143 0.931 . S
H161 C144 0.931 . S
H162 C145 0.929 . S
H163 C146 0.930 . S
H164 C154 0.931 . S
H165 C155 0.931 . S
H166 C156 0.930 . S
H167 C157 0.929 . S
Eu168 N197 2.600 . S
Eu168 N203 2.562 . S
Eu168 O212 2.462 . S
Eu168 O213 2.373 . S
Eu168 O215 2.432 . S
Eu168 O216 2.291 . S
Eu168 O220 2.335 . S
Eu168 O223 2.372 . S
Eu168 C232 2.787 . S
C169 N170 1.365 . S
C169 C172 1.405 . S
C169 C176 1.448 . S
N170 C169 1.365 . S
N170 C173 1.319 . S
N170 Eu179 2.600 . S
C171 C173 1.397 . S
C171 C174 1.367 . S
C171 H191 0.931 1_554 S
C172 C169 1.405 . S
C172 C174 1.403 . S
C172 C178 1.439 . S
C173 N170 1.319 . S
C173 C171 1.397 . S
C173 H184 0.930 . S
C174 C171 1.367 . S
C174 C172 1.403 . S
C174 H195 0.929 . S
C175 C176 1.430 . S
C175 C177 1.387 . S
C175 C181 1.404 . S
C176 C169 1.448 . S
C176 C175 1.430 . S
C176 N180 1.351 . S
C177 C175 1.387 . S
C177 C178 1.374 . S
C177 H192 0.931 . S
C178 C172 1.439 . S
C178 C177 1.374 . S
C178 H193 0.931 . S
Eu179 N170 2.600 . S
Eu179 N180 2.562 . S
Eu179 O214 2.335 . S
Eu179 O217 2.372 . S
Eu179 O218 2.462 . S
Eu179 O219 2.373 . S
Eu179 O221 2.432 . S
Eu179 O222 2.291 . S
Eu179 C243 2.787 . S
N180 C176 1.351 . S
N180 Eu179 2.562 . S
N180 C182 1.325 . S
C181 C175 1.404 . S
C181 C183 1.366 . S
C181 H189 0.930 . S
C182 N180 1.325 . S
C182 C183 1.416 . S
C182 H188 0.929 . S
C183 C181 1.366 . S
C183 C182 1.416 . S
C183 H185 0.930 . S
H184 C173 0.930 . S
H185 C183 0.930 . S
H186 C201 0.930 . S
H187 C208 0.930 . S
H188 C182 0.929 . S
H189 C181 0.930 . S
H190 C204 0.929 . S
H191 C171 0.931 1_556 S
H192 C177 0.931 . S
H193 C178 0.931 . S
H194 C199 0.931 . S
H195 C174 0.929 . S
H196 C207 0.930 . S
N197 Eu168 2.600 . S
N197 C198 1.365 . S
N197 C201 1.319 . S
C198 N197 1.365 . S
C198 C200 1.405 . S
C198 C206 1.448 . S
C199 H194 0.931 . S
C199 C201 1.397 . S
C199 C202 1.367 . S
C200 C198 1.405 . S
C200 C202 1.403 . S
C200 C233 1.439 . S
C201 H186 0.930 . S
C201 N197 1.319 . S
C201 C199 1.397 . S
C202 C199 1.367 . S
C202 C200 1.403 . S
C202 H209 0.929 . S
N203 Eu168 2.562 . S
N203 C204 1.325 . S
N203 C206 1.351 . S
C204 H190 0.929 . S
C204 N203 1.325 . S
C204 C208 1.416 1_565 S
C205 C206 1.433 1_545 S
C205 C207 1.403 . S
C205 C234 1.385 . S
C206 C198 1.448 . S
C206 N203 1.351 . S
C206 C205 1.433 1_565 S
C207 H196 0.930 . S
C207 C205 1.403 . S
C207 C208 1.366 . S
C208 H187 0.930 . S
C208 C204 1.416 1_545 S
C208 C207 1.366 . S
H209 C202 0.929 . S
H210 C233 0.931 1_545 S
H211 C234 0.931 . S
O212 Eu168 2.462 . S
O212 C232 1.252 . S
O213 Eu168 2.373 . S
O213 C224 1.249 . S
O214 Eu179 2.335 . S
O214 C224 1.264 . S
O215 Eu168 2.432 . S
O215 C232 1.268 . S
O216 Eu168 2.291 . S
O216 C231 1.255 . S
O217 Eu179 2.372 . S
O217 C231 1.257 . S
O218 Eu179 2.462 . S
O218 C243 1.252 . S
O219 Eu179 2.373 . S
O219 C235 1.249 . S
O220 Eu168 2.335 . S
O220 C235 1.264 . S
O221 Eu179 2.432 . S
O221 C243 1.268 . S
O222 Eu179 2.291 . S
O222 C242 1.255 . S
O223 Eu168 2.372 . S
O223 C242 1.257 . S
C224 O213 1.249 . S
C224 O214 1.264 . S
C225 C228 1.382 . S
C225 C230 1.390 . S
C225 C232 1.506 1_545 S
C226 C227 1.398 . S
C226 C230 1.392 . S
C227 C226 1.398 . S
C227 C229 1.372 . S
C227 H244 0.931 . S
C228 C225 1.382 . S
C228 C229 1.390 . S
C228 H245 0.931 . S
C229 C227 1.372 . S
C229 C228 1.390 . S
C229 H246 0.929 . S
C230 C225 1.390 . S
C230 C226 1.392 . S
C230 H247 0.930 . S
C231 O216 1.255 . S
C231 O217 1.257 . S
C232 Eu168 2.787 . S
C232 O212 1.252 . S
C232 O215 1.268 . S
C232 C225 1.506 1_565 S
C233 C200 1.439 . S
C233 H210 0.931 1_565 S
C233 C234 1.374 1_565 S
C234 C205 1.385 . S
C234 H211 0.931 . S
C234 C233 1.374 1_545 S
C235 O219 1.249 . S
C235 O220 1.264 . S
C236 C239 1.382 . S
C236 C240 1.390 . S
C236 C243 1.506 . S
C237 C238 1.398 . S
C237 C240 1.392 . S
C238 C237 1.398 . S
C238 C241 1.372 . S
C238 H248 0.931 . S
C239 C236 1.382 . S
C239 C241 1.390 . S
C239 H249 0.931 . S
C240 C236 1.390 . S
C240 C237 1.392 . S
C240 H250 0.930 . S
C241 C238 1.372 . S
C241 C239 1.390 . S
C241 H251 0.929 . S
C242 O222 1.255 . S
C242 O223 1.257 . S
C243 Eu179 2.787 . S
C243 O218 1.252 . S
C243 O221 1.268 . S
C243 C236 1.506 . S
H244 C227 0.931 . S
H245 C228 0.931 . S
H246 C229 0.929 . S
H247 C230 0.930 . S
H248 C238 0.931 . S
H249 C239 0.931 . S
H250 C240 0.930 . S
H251 C241 0.929 . S
Eu252 N281 2.600 . S
Eu252 N287 2.562 . S
Eu252 O296 2.462 . S
Eu252 O297 2.373 . S
Eu252 O299 2.432 . S
Eu252 O300 2.291 . S
Eu252 O304 2.335 . S
Eu252 O307 2.372 . S
Eu252 C316 2.787 . S
C253 N254 1.365 . S
C253 C256 1.405 . S
C253 C260 1.448 . S
N254 C253 1.365 . S
N254 C257 1.319 . S
N254 Eu263 2.600 . S
C255 C257 1.397 . S
C255 C258 1.367 . S
C255 H275 0.931 . S
C256 C253 1.405 . S
C256 C258 1.403 . S
C256 C262 1.439 . S
C257 N254 1.319 . S
C257 C255 1.397 . S
C257 H268 0.930 . S
C258 C255 1.367 . S
C258 C256 1.403 . S
C258 H279 0.929 . S
C259 C260 1.430 . S
C259 C261 1.378 1_655 S
C259 C265 1.404 . S
C260 C253 1.448 . S
C260 C259 1.430 . S
C260 N264 1.351 . S
C261 C259 1.378 1_455 S
C261 C262 1.368 1_455 S
C261 H276 0.946 . S
C262 C256 1.439 . S
C262 C261 1.368 1_655 S
C262 H277 0.931 1_655 S
Eu263 N254 2.600 . S
Eu263 N264 2.562 . S
Eu263 O298 2.335 . S
Eu263 O301 2.372 . S
Eu263 O302 2.462 . S
Eu263 O303 2.373 . S
Eu263 O305 2.432 . S
Eu263 O306 2.291 . S
Eu263 C327 2.787 . S
N264 C260 1.351 . S
N264 Eu263 2.562 . S
N264 C266 1.325 . S
C265 C259 1.404 . S
C265 C267 1.366 . S
C265 H273 0.930 1_655 S
C266 N264 1.325 . S
C266 C267 1.416 . S
C266 H272 0.929 . S
C267 C265 1.366 . S
C267 C266 1.416 . S
C267 H269 0.930 . S
H268 C257 0.930 . S
H269 C267 0.930 . S
H270 C285 0.930 . S
H271 C292 0.930 . S
H272 C266 0.929 . S
H273 C265 0.930 1_455 S
H274 C288 0.929 . S
H275 C255 0.931 . S
H276 C261 0.946 . S
H277 C262 0.931 1_455 S
H278 C283 0.931 . S
H279 C258 0.929 . S
H280 C291 0.930 . S
N281 Eu252 2.600 . S
N281 C282 1.365 . S
N281 C285 1.319 . S
C282 N281 1.365 . S
C282 C284 1.405 . S
C282 C290 1.448 . S
C283 H278 0.931 . S
C283 C285 1.397 . S
C283 C286 1.367 . S
C284 C282 1.405 . S
C284 C286 1.403 . S
C284 C317 1.439 . S
C285 H270 0.930 . S
C285 N281 1.319 . S
C285 C283 1.397 . S
C286 C283 1.367 . S
C286 C284 1.403 . S
C286 H293 0.929 . S
N287 Eu252 2.562 . S
N287 C288 1.325 . S
N287 C290 1.351 . S
C288 H274 0.929 . S
C288 N287 1.325 . S
C288 C292 1.416 . S
C289 C290 1.430 . S
C289 C291 1.404 . S
C289 C318 1.387 . S
C290 C282 1.448 . S
C290 N287 1.351 . S
C290 C289 1.430 . S
C291 H280 0.930 . S
C291 C289 1.404 . S
C291 C292 1.366 . S
C292 H271 0.930 . S
C292 C288 1.416 . S
C292 C291 1.366 . S
H293 C286 0.929 . S
H294 C317 0.931 . S
H295 C318 0.931 . S
O296 Eu252 2.462 . S
O296 C316 1.252 . S
O297 Eu252 2.373 . S
O297 C308 1.249 . S
O298 Eu263 2.335 . S
O298 C308 1.264 . S
O299 Eu252 2.432 . S
O299 C316 1.268 . S
O300 Eu252 2.291 . S
O300 C315 1.255 . S
O301 Eu263 2.372 . S
O301 C315 1.257 . S
O302 Eu263 2.462 . S
O302 C327 1.252 . S
O303 Eu263 2.373 . S
O303 C319 1.249 . S
O304 Eu252 2.335 . S
O304 C319 1.264 . S
O305 Eu263 2.432 . S
O305 C327 1.268 . S
O306 Eu263 2.291 . S
O306 C326 1.255 . S
O307 Eu252 2.372 . S
O307 C326 1.257 . S
C308 O297 1.249 . S
C308 O298 1.264 . S
C309 C312 1.382 . S
C309 C314 1.390 . S
C309 C316 1.506 . S
C310 C311 1.398 . S
C310 C314 1.392 . S
C311 C310 1.398 . S
C311 C313 1.372 . S
C311 H328 0.931 . S
C312 C309 1.382 . S
C312 C313 1.390 . S
C312 H329 0.931 . S
C313 C311 1.372 . S
C313 C312 1.390 . S
C313 H330 0.929 . S
C314 C309 1.390 . S
C314 C310 1.392 . S
C314 H331 0.930 . S
C315 O300 1.255 . S
C315 O301 1.257 . S
C316 Eu252 2.787 . S
C316 O296 1.252 . S
C316 O299 1.268 . S
C316 C309 1.506 . S
C317 C284 1.439 . S
C317 H294 0.931 . S
C317 C318 1.374 . S
C318 C289 1.387 . S
C318 H295 0.931 . S
C318 C317 1.374 . S
C319 O303 1.249 . S
C319 O304 1.264 . S
C320 C323 1.382 . S
C320 C324 1.390 . S
C320 C327 1.506 . S
C321 C322 1.398 . S
C321 C324 1.392 . S
C322 C321 1.398 . S
C322 C325 1.372 . S
C322 H332 0.931 . S
C323 C320 1.382 . S
C323 C325 1.390 . S
C323 H333 0.931 . S
C324 C320 1.390 . S
C324 C321 1.392 . S
C324 H334 0.930 . S
C325 C322 1.372 . S
C325 C323 1.390 . S
C325 H335 0.929 . S
C326 O306 1.255 . S
C326 O307 1.257 . S
C327 Eu263 2.787 . S
C327 O302 1.252 . S
C327 O305 1.268 . S
C327 C320 1.506 . S
H328 C311 0.931 . S
H329 C312 0.931 . S
H330 C313 0.929 . S
H331 C314 0.930 . S
H332 C322 0.931 . S
H333 C323 0.931 . S
H334 C324 0.930 . S
H335 C325 0.929 . S
Eu336 N365 2.600 . S
Eu336 N371 2.562 . S
Eu336 O380 2.462 . S
Eu336 O381 2.373 . S
Eu336 O383 2.432 . S
Eu336 O384 2.291 . S
Eu336 O388 2.335 . S
Eu336 O391 2.372 . S
Eu336 C400 2.787 . S
C337 N338 1.365 . S
C337 C340 1.405 . S
C337 C344 1.448 . S
N338 C337 1.365 . S
N338 C341 1.319 . S
N338 Eu347 2.600 . S
C339 C341 1.397 . S
C339 C342 1.367 . S
C339 H359 0.931 1_554 S
C340 C337 1.405 . S
C340 C342 1.403 . S
C340 C346 1.439 . S
C341 N338 1.319 . S
C341 C339 1.397 . S
C341 H352 0.930 . S
C342 C339 1.367 . S
C342 C340 1.403 . S
C342 H363 0.929 . S
C343 C344 1.430 . S
C343 C345 1.377 1_565 S
C343 C349 1.404 . S
C344 C337 1.448 . S
C344 C343 1.430 . S
C344 N348 1.351 . S
C345 C343 1.377 1_545 S
C345 C346 1.372 1_545 S
C345 H360 0.944 . S
C346 C340 1.439 . S
C346 C345 1.372 1_565 S
C346 H361 0.931 1_565 S
Eu347 N338 2.600 . S
Eu347 N348 2.562 . S
Eu347 O382 2.335 . S
Eu347 O385 2.372 . S
Eu347 O386 2.462 . S
Eu347 O387 2.373 . S
Eu347 O389 2.432 . S
Eu347 O390 2.291 . S
Eu347 C411 2.787 . S
N348 C344 1.351 . S
N348 Eu347 2.562 . S
N348 C350 1.325 . S
C349 C343 1.404 . S
C349 C351 1.366 . S
C349 H357 0.930 1_565 S
C350 N348 1.325 . S
C350 C351 1.416 . S
C350 H356 0.929 . S
C351 C349 1.366 . S
C351 C350 1.416 . S
C351 H353 0.930 . S
H352 C341 0.930 . S
H353 C351 0.930 . S
H354 C369 0.930 . S
H355 C376 0.930 . S
H356 C350 0.929 . S
H357 C349 0.930 1_545 S
H358 C372 0.929 . S
H359 C339 0.931 1_556 S
H360 C345 0.944 . S
H361 C346 0.931 1_545 S
H362 C367 0.931 . S
H363 C342 0.929 . S
H364 C375 0.930 . S
N365 Eu336 2.600 . S
N365 C366 1.365 . S
N365 C369 1.319 . S
C366 N365 1.365 . S
C366 C368 1.405 . S
C366 C374 1.448 . S
C367 H362 0.931 . S
C367 C369 1.397 . S
C367 C370 1.367 . S
C368 C366 1.405 . S
C368 C370 1.403 . S
C368 C401 1.439 . S
C369 H354 0.930 . S
C369 N365 1.319 . S
C369 C367 1.397 . S
C370 C367 1.367 . S
C370 C368 1.403 . S
C370 H377 0.929 . S
N371 Eu336 2.562 . S
N371 C372 1.325 . S
N371 C374 1.351 . S
C372 H358 0.929 . S
C372 N371 1.325 . S
C372 C376 1.416 1_455 S
C373 C374 1.430 1_655 S
C373 C375 1.404 . S
C373 C402 1.387 . S
C374 C366 1.448 . S
C374 N371 1.351 . S
C374 C373 1.430 1_455 S
C375 H364 0.930 . S
C375 C373 1.404 . S
C375 C376 1.366 . S
C376 H355 0.930 . S
C376 C372 1.416 1_655 S
C376 C375 1.366 . S
H377 C370 0.929 . S
H378 C401 0.931 1_655 S
H379 C402 0.931 . S
O380 Eu336 2.462 . S
O380 C400 1.252 . S
O381 Eu336 2.373 . S
O381 C392 1.249 . S
O382 Eu347 2.335 . S
O382 C392 1.264 . S
O383 Eu336 2.432 . S
O383 C400 1.268 . S
O384 Eu336 2.291 . S
O384 C399 1.255 . S
O385 Eu347 2.372 . S
O385 C399 1.257 . S
O386 Eu347 2.462 . S
O386 C411 1.252 . S
O387 Eu347 2.373 . S
O387 C403 1.249 . S
O388 Eu336 2.335 . S
O388 C403 1.264 . S
O389 Eu347 2.432 . S
O389 C411 1.268 . S
O390 Eu347 2.291 . S
O390 C410 1.255 . S
O391 Eu336 2.372 . S
O391 C410 1.257 . S
C392 O381 1.249 . S
C392 O382 1.264 . S
C393 C396 1.382 . S
C393 C398 1.390 . S
C393 C400 1.506 1_655 S
C394 C395 1.398 . S
C394 C398 1.392 . S
C395 C394 1.398 . S
C395 C397 1.372 . S
C395 H412 0.931 . S
C396 C393 1.382 . S
C396 C397 1.390 . S
C396 H413 0.931 . S
C397 C395 1.372 . S
C397 C396 1.390 . S
C397 H414 0.929 . S
C398 C393 1.390 . S
C398 C394 1.392 . S
C398 H415 0.930 . S
C399 O384 1.255 . S
C399 O385 1.257 . S
C400 Eu336 2.787 . S
C400 O380 1.252 . S
C400 O383 1.268 . S
C400 C393 1.506 1_455 S
C401 C368 1.439 . S
C401 H378 0.931 1_455 S
C401 C402 1.374 1_455 S
C402 C373 1.387 . S
C402 H379 0.931 . S
C402 C401 1.374 1_655 S
C403 O387 1.249 . S
C403 O388 1.264 . S
C404 C407 1.382 . S
C404 C408 1.390 . S
C404 C411 1.506 . S
C405 C406 1.398 . S
C405 C408 1.392 . S
C406 C405 1.398 . S
C406 C409 1.372 . S
C406 H416 0.931 . S
C407 C404 1.382 . S
C407 C409 1.390 . S
C407 H417 0.931 . S
C408 C404 1.390 . S
C408 C405 1.392 . S
C408 H418 0.930 . S
C409 C406 1.372 . S
C409 C407 1.390 . S
C409 H419 0.929 . S
C410 O390 1.255 . S
C410 O391 1.257 . S
C411 Eu347 2.787 . S
C411 O386 1.252 . S
C411 O389 1.268 . S
C411 C404 1.506 . S
H412 C395 0.931 . S
H413 C396 0.931 . S
H414 C397 0.929 . S
H415 C398 0.930 . S
H416 C406 0.931 . S
H417 C407 0.931 . S
H418 C408 0.930 . S
H419 C409 0.929 . S
Eu420 N449 2.600 . S
Eu420 N455 2.562 . S
Eu420 O464 2.462 . S
Eu420 O465 2.373 . S
Eu420 O467 2.432 . S
Eu420 O468 2.291 . S
Eu420 O472 2.335 . S
Eu420 O475 2.372 . S
Eu420 C484 2.787 . S
C421 N422 1.365 . S
C421 C424 1.405 . S
C421 C428 1.448 . S
N422 C421 1.365 . S
N422 C425 1.319 . S
N422 Eu431 2.600 . S
C423 C425 1.397 . S
C423 C426 1.367 . S
C423 H443 0.931 . S
C424 C421 1.405 . S
C424 C426 1.403 . S
C424 C430 1.439 . S
C425 N422 1.319 . S
C425 C423 1.397 . S
C425 H436 0.930 . S
C426 C423 1.367 . S
C426 C424 1.403 . S
C426 H447 0.929 . S
C427 C428 1.430 . S
C427 C429 1.387 . S
C427 C433 1.404 . S
C428 C421 1.448 . S
C428 C427 1.430 . S
C428 N432 1.351 . S
C429 C427 1.387 . S
C429 C430 1.374 . S
C429 H444 0.931 . S
C430 C424 1.439 . S
C430 C429 1.374 . S
C430 H445 0.931 . S
Eu431 N422 2.600 . S
Eu431 N432 2.562 . S
Eu431 O466 2.335 . S
Eu431 O469 2.372 . S
Eu431 O470 2.462 . S
Eu431 O471 2.373 . S
Eu431 O473 2.432 . S
Eu431 O474 2.291 . S
Eu431 C495 2.787 . S
N432 C428 1.351 . S
N432 Eu431 2.562 . S
N432 C434 1.325 . S
C433 C427 1.404 . S
C433 C435 1.366 . S
C433 H441 0.930 . S
C434 N432 1.325 . S
C434 C435 1.416 . S
C434 H440 0.929 . S
C435 C433 1.366 . S
C435 C434 1.416 . S
C435 H437 0.930 . S
H436 C425 0.930 . S
H437 C435 0.930 . S
H438 C453 0.930 . S
H439 C460 0.930 . S
H440 C434 0.929 . S
H441 C433 0.930 . S
H442 C456 0.929 . S
H443 C423 0.931 . S
H444 C429 0.931 . S
H445 C430 0.931 . S
H446 C451 0.931 . S
H447 C426 0.929 . S
H448 C459 0.930 . S
N449 Eu420 2.600 . S
N449 C450 1.365 . S
N449 C453 1.319 . S
C450 N449 1.365 . S
C450 C452 1.405 . S
C450 C458 1.448 . S
C451 H446 0.931 . S
C451 C453 1.397 . S
C451 C454 1.367 . S
C452 C450 1.405 . S
C452 C454 1.403 . S
C452 C485 1.439 . S
C453 H438 0.930 . S
C453 N449 1.319 . S
C453 C451 1.397 . S
C454 C451 1.367 . S
C454 C452 1.403 . S
C454 H461 0.929 . S
N455 Eu420 2.562 . S
N455 C456 1.325 . S
N455 C458 1.351 . S
C456 H442 0.929 . S
C456 N455 1.325 . S
C456 C460 1.416 1_545 S
C457 C458 1.433 1_565 S
C457 C459 1.403 . S
C457 C486 1.385 . S
C458 C450 1.448 . S
C458 N455 1.351 . S
C458 C457 1.433 1_545 S
C459 H448 0.930 . S
C459 C457 1.403 . S
C459 C460 1.366 . S
C460 H439 0.930 . S
C460 C456 1.416 1_565 S
C460 C459 1.366 . S
H461 C454 0.929 . S
H462 C485 0.931 1_565 S
H463 C486 0.931 . S
O464 Eu420 2.462 . S
O464 C484 1.252 . S
O465 Eu420 2.373 . S
O465 C476 1.249 . S
O466 Eu431 2.335 . S
O466 C476 1.264 . S
O467 Eu420 2.432 . S
O467 C484 1.268 . S
O468 Eu420 2.291 . S
O468 C483 1.255 . S
O469 Eu431 2.372 . S
O469 C483 1.257 . S
O470 Eu431 2.462 . S
O470 C495 1.252 . S
O471 Eu431 2.373 . S
O471 C487 1.249 . S
O472 Eu420 2.335 . S
O472 C487 1.264 . S
O473 Eu431 2.432 . S
O473 C495 1.268 . S
O474 Eu431 2.291 . S
O474 C494 1.255 . S
O475 Eu420 2.372 . S
O475 C494 1.257 . S
C476 O465 1.249 . S
C476 O466 1.264 . S
C477 C480 1.382 . S
C477 C482 1.390 . S
C477 C484 1.506 1_565 S
C478 C479 1.398 . S
C478 C482 1.392 . S
C479 C478 1.398 . S
C479 C481 1.372 . S
C479 H496 0.931 . S
C480 C477 1.382 . S
C480 C481 1.390 . S
C480 H497 0.931 . S
C481 C479 1.372 . S
C481 C480 1.390 . S
C481 H498 0.929 . S
C482 C477 1.390 . S
C482 C478 1.392 . S
C482 H499 0.930 . S
C483 O468 1.255 . S
C483 O469 1.257 . S
C484 Eu420 2.787 . S
C484 O464 1.252 . S
C484 O467 1.268 . S
C484 C477 1.506 1_545 S
C485 C452 1.439 . S
C485 H462 0.931 1_545 S
C485 C486 1.374 1_545 S
C486 C457 1.385 . S
C486 H463 0.931 . S
C486 C485 1.374 1_565 S
C487 O471 1.249 . S
C487 O472 1.264 . S
C488 C491 1.382 . S
C488 C492 1.390 . S
C488 C495 1.506 . S
C489 C490 1.398 . S
C489 C492 1.392 . S
C490 C489 1.398 . S
C490 C493 1.372 . S
C490 H500 0.931 . S
C491 C488 1.382 . S
C491 C493 1.390 . S
C491 H501 0.931 . S
C492 C488 1.390 . S
C492 C489 1.392 . S
C492 H502 0.930 . S
C493 C490 1.372 . S
C493 C491 1.390 . S
C493 H503 0.929 . S
C494 O474 1.255 . S
C494 O475 1.257 . S
C495 Eu431 2.787 . S
C495 O470 1.252 . S
C495 O473 1.268 . S
C495 C488 1.506 . S
H496 C479 0.931 . S
H497 C480 0.931 . S
H498 C481 0.929 . S
H499 C482 0.930 . S
H500 C490 0.931 . S
H501 C491 0.931 . S
H502 C492 0.930 . S
H503 C493 0.929 . S
Eu504 N533 2.600 . S
Eu504 N539 2.562 . S
Eu504 O548 2.462 . S
Eu504 O549 2.373 . S
Eu504 O551 2.432 . S
Eu504 O552 2.291 . S
Eu504 O556 2.335 . S
Eu504 O559 2.372 . S
Eu504 C568 2.787 . S
C505 N506 1.365 . S
C505 C508 1.405 . S
C505 C512 1.448 . S
N506 C505 1.365 . S
N506 C509 1.319 . S
N506 Eu515 2.600 . S
C507 C509 1.397 . S
C507 C510 1.367 . S
C507 H527 0.931 . S
C508 C505 1.405 . S
C508 C510 1.403 . S
C508 C514 1.439 . S
C509 N506 1.319 . S
C509 C507 1.397 . S
C509 H520 0.930 . S
C510 C507 1.367 . S
C510 C508 1.403 . S
C510 H531 0.929 . S
C511 C512 1.430 . S
C511 C513 1.378 1_565 S
C511 C517 1.404 . S
C512 C505 1.448 . S
C512 C511 1.430 . S
C512 N516 1.351 . S
C513 C511 1.378 1_545 S
C513 C514 1.368 1_545 S
C513 H528 0.946 . S
C514 C508 1.439 . S
C514 C513 1.368 1_565 S
C514 H529 0.931 1_565 S
Eu515 N506 2.600 . S
Eu515 N516 2.562 . S
Eu515 O550 2.335 . S
Eu515 O553 2.372 . S
Eu515 O554 2.462 . S
Eu515 O555 2.373 . S
Eu515 O557 2.432 . S
Eu515 O558 2.291 . S
Eu515 C579 2.787 . S
N516 C512 1.351 . S
N516 Eu515 2.562 . S
N516 C518 1.325 . S
C517 C511 1.404 . S
C517 C519 1.366 . S
C517 H525 0.930 1_565 S
C518 N516 1.325 . S
C518 C519 1.416 . S
C518 H524 0.929 . S
C519 C517 1.366 . S
C519 C518 1.416 . S
C519 H521 0.930 . S
H520 C509 0.930 . S
H521 C519 0.930 . S
H522 C537 0.930 . S
H523 C544 0.930 . S
H524 C518 0.929 . S
H525 C517 0.930 1_545 S
H526 C540 0.929 . S
H527 C507 0.931 . S
H528 C513 0.946 . S
H529 C514 0.931 1_545 S
H530 C535 0.931 . S
H531 C510 0.929 . S
H532 C543 0.930 . S
N533 Eu504 2.600 . S
N533 C534 1.365 . S
N533 C537 1.319 . S
C534 N533 1.365 . S
C534 C536 1.405 . S
C534 C542 1.448 . S
C535 H530 0.931 . S
C535 C537 1.397 . S
C535 C538 1.367 . S
C536 C534 1.405 . S
C536 C538 1.403 . S
C536 C569 1.439 . S
C537 H522 0.930 . S
C537 N533 1.319 . S
C537 C535 1.397 . S
C538 C535 1.367 . S
C538 C536 1.403 . S
C538 H545 0.929 . S
N539 Eu504 2.562 . S
N539 C540 1.325 . S
N539 C542 1.351 . S
C540 H526 0.929 . S
C540 N539 1.325 . S
C540 C544 1.416 . S
C541 C542 1.430 . S
C541 C543 1.404 . S
C541 C570 1.387 . S
C542 C534 1.448 . S
C542 N539 1.351 . S
C542 C541 1.430 . S
C543 H532 0.930 . S
C543 C541 1.404 . S
C543 C544 1.366 . S
C544 H523 0.930 . S
C544 C540 1.416 . S
C544 C543 1.366 . S
H545 C538 0.929 . S
H546 C569 0.931 . S
H547 C570 0.931 . S
O548 Eu504 2.462 . S
O548 C568 1.252 . S
O549 Eu504 2.373 . S
O549 C560 1.249 . S
O550 Eu515 2.335 . S
O550 C560 1.264 . S
O551 Eu504 2.432 . S
O551 C568 1.268 . S
O552 Eu504 2.291 . S
O552 C567 1.255 . S
O553 Eu515 2.372 . S
O553 C567 1.257 . S
O554 Eu515 2.462 . S
O554 C579 1.252 . S
O555 Eu515 2.373 . S
O555 C571 1.249 . S
O556 Eu504 2.335 . S
O556 C571 1.264 . S
O557 Eu515 2.432 . S
O557 C579 1.268 . S
O558 Eu515 2.291 . S
O558 C578 1.255 . S
O559 Eu504 2.372 . S
O559 C578 1.257 . S
C560 O549 1.249 . S
C560 O550 1.264 . S
C561 C564 1.382 . S
C561 C566 1.390 . S
C561 C568 1.506 . S
C562 C563 1.398 . S
C562 C566 1.392 . S
C563 C562 1.398 . S
C563 C565 1.372 . S
C563 H580 0.931 . S
C564 C561 1.382 . S
C564 C565 1.390 . S
C564 H581 0.931 . S
C565 C563 1.372 . S
C565 C564 1.390 . S
C565 H582 0.929 . S
C566 C561 1.390 . S
C566 C562 1.392 . S
C566 H583 0.930 . S
C567 O552 1.255 . S
C567 O553 1.257 . S
C568 Eu504 2.787 . S
C568 O548 1.252 . S
C568 O551 1.268 . S
C568 C561 1.506 . S
C569 C536 1.439 . S
C569 H546 0.931 . S
C569 C570 1.374 . S
C570 C541 1.387 . S
C570 H547 0.931 . S
C570 C569 1.374 . S
C571 O555 1.249 . S
C571 O556 1.264 . S
C572 C575 1.382 . S
C572 C576 1.390 . S
C572 C579 1.506 . S
C573 C574 1.398 . S
C573 C576 1.392 . S
C574 C573 1.398 . S
C574 C577 1.372 . S
C574 H584 0.931 . S
C575 C572 1.382 . S
C575 C577 1.390 . S
C575 H585 0.931 . S
C576 C572 1.390 . S
C576 C573 1.392 . S
C576 H586 0.930 . S
C577 C574 1.372 . S
C577 C575 1.390 . S
C577 H587 0.929 . S
C578 O558 1.255 . S
C578 O559 1.257 . S
C579 Eu515 2.787 . S
C579 O554 1.252 . S
C579 O557 1.268 . S
C579 C572 1.506 . S
H580 C563 0.931 . S
H581 C564 0.931 . S
H582 C565 0.929 . S
H583 C566 0.930 . S
H584 C574 0.931 . S
H585 C575 0.931 . S
H586 C576 0.930 . S
H587 C577 0.929 . S
Eu588 N617 2.600 . S
Eu588 N623 2.562 . S
Eu588 O632 2.462 . S
Eu588 O633 2.373 . S
Eu588 O635 2.432 . S
Eu588 O636 2.291 . S
Eu588 O640 2.335 . S
Eu588 O643 2.372 . S
Eu588 C652 2.787 . S
C589 N590 1.365 . S
C589 C592 1.405 . S
C589 C596 1.448 . S
N590 C589 1.365 . S
N590 C593 1.319 . S
N590 Eu599 2.600 . S
C591 C593 1.397 . S
C591 C594 1.367 . S
C591 H611 0.931 1_556 S
C592 C589 1.405 . S
C592 C594 1.403 . S
C592 C598 1.439 . S
C593 N590 1.319 . S
C593 C591 1.397 . S
C593 H604 0.930 . S
C594 C591 1.367 . S
C594 C592 1.403 . S
C594 H615 0.929 . S
C595 C596 1.430 . S
C595 C597 1.387 . S
C595 C601 1.404 . S
C596 C589 1.448 . S
C596 C595 1.430 . S
C596 N600 1.351 . S
C597 C595 1.387 . S
C597 C598 1.374 . S
C597 H612 0.931 . S
C598 C592 1.439 . S
C598 C597 1.374 . S
C598 H613 0.931 . S
Eu599 N590 2.600 . S
Eu599 N600 2.562 . S
Eu599 O634 2.335 . S
Eu599 O637 2.372 . S
Eu599 O638 2.462 . S
Eu599 O639 2.373 . S
Eu599 O641 2.432 . S
Eu599 O642 2.291 . S
Eu599 C663 2.787 . S
N600 C596 1.351 . S
N600 Eu599 2.562 . S
N600 C602 1.325 . S
C601 C595 1.404 . S
C601 C603 1.366 . S
C601 H609 0.930 . S
C602 N600 1.325 . S
C602 C603 1.416 . S
C602 H608 0.929 . S
C603 C601 1.366 . S
C603 C602 1.416 . S
C603 H605 0.930 . S
H604 C593 0.930 . S
H605 C603 0.930 . S
H606 C621 0.930 . S
H607 C628 0.930 . S
H608 C602 0.929 . S
H609 C601 0.930 . S
H610 C624 0.929 . S
H611 C591 0.931 1_554 S
H612 C597 0.931 . S
H613 C598 0.931 . S
H614 C619 0.931 . S
H615 C594 0.929 . S
H616 C627 0.930 . S
N617 Eu588 2.600 . S
N617 C618 1.365 . S
N617 C621 1.319 . S
C618 N617 1.365 . S
C618 C620 1.405 . S
C618 C626 1.448 . S
C619 H614 0.931 . S
C619 C621 1.397 . S
C619 C622 1.367 . S
C620 C618 1.405 . S
C620 C622 1.403 . S
C620 C653 1.439 . S
C621 H606 0.930 . S
C621 N617 1.319 . S
C621 C619 1.397 . S
C622 C619 1.367 . S
C622 C620 1.403 . S
C622 H629 0.929 . S
N623 Eu588 2.562 . S
N623 C624 1.325 . S
N623 C626 1.351 . S
C624 H610 0.929 . S
C624 N623 1.325 . S
C624 C628 1.416 1_655 S
C625 C626 1.433 1_455 S
C625 C627 1.403 . S
C625 C654 1.385 . S
C626 C618 1.448 . S
C626 N623 1.351 . S
C626 C625 1.433 1_655 S
C627 H616 0.930 . S
C627 C625 1.403 . S
C627 C628 1.366 . S
C628 H607 0.930 . S
C628 C624 1.416 1_455 S
C628 C627 1.366 . S
H629 C622 0.929 . S
H630 C653 0.931 1_455 S
H631 C654 0.931 . S
O632 Eu588 2.462 . S
O632 C652 1.252 . S
O633 Eu588 2.373 . S
O633 C644 1.249 . S
O634 Eu599 2.335 . S
O634 C644 1.264 . S
O635 Eu588 2.432 . S
O635 C652 1.268 . S
O636 Eu588 2.291 . S
O636 C651 1.255 . S
O637 Eu599 2.372 . S
O637 C651 1.257 . S
O638 Eu599 2.462 . S
O638 C663 1.252 . S
O639 Eu599 2.373 . S
O639 C655 1.249 . S
O640 Eu588 2.335 . S
O640 C655 1.264 . S
O641 Eu599 2.432 . S
O641 C663 1.268 . S
O642 Eu599 2.291 . S
O642 C662 1.255 . S
O643 Eu588 2.372 . S
O643 C662 1.257 . S
C644 O633 1.249 . S
C644 O634 1.264 . S
C645 C648 1.382 . S
C645 C650 1.390 . S
C645 C652 1.506 1_455 S
C646 C647 1.398 . S
C646 C650 1.392 . S
C647 C646 1.398 . S
C647 C649 1.372 . S
C647 H664 0.931 . S
C648 C645 1.382 . S
C648 C649 1.390 . S
C648 H665 0.931 . S
C649 C647 1.372 . S
C649 C648 1.390 . S
C649 H666 0.929 . S
C650 C645 1.390 . S
C650 C646 1.392 . S
C650 H667 0.930 . S
C651 O636 1.255 . S
C651 O637 1.257 . S
C652 Eu588 2.787 . S
C652 O632 1.252 . S
C652 O635 1.268 . S
C652 C645 1.506 1_655 S
C653 C620 1.439 . S
C653 H630 0.931 1_655 S
C653 C654 1.374 1_655 S
C654 C625 1.385 . S
C654 H631 0.931 . S
C654 C653 1.374 1_455 S
C655 O639 1.249 . S
C655 O640 1.264 . S
C656 C659 1.382 . S
C656 C660 1.390 . S
C656 C663 1.506 . S
C657 C658 1.398 . S
C657 C660 1.392 . S
C658 C657 1.398 . S
C658 C661 1.372 . S
C658 H668 0.931 . S
C659 C656 1.382 . S
C659 C661 1.390 . S
C659 H669 0.931 . S
C660 C656 1.390 . S
C660 C657 1.392 . S
C660 H670 0.930 . S
C661 C658 1.372 . S
C661 C659 1.390 . S
C661 H671 0.929 . S
C662 O642 1.255 . S
C662 O643 1.257 . S
C663 Eu599 2.787 . S
C663 O638 1.252 . S
C663 O641 1.268 . S
C663 C656 1.506 . S
H664 C647 0.931 . S
H665 C648 0.931 . S
H666 C649 0.929 . S
H667 C650 0.930 . S
H668 C658 0.931 . S
H669 C659 0.931 . S
H670 C660 0.930 . S
H671 C661 0.929 . S
Eu672 N701 2.600 . S
Eu672 N707 2.562 . S
Eu672 O716 2.462 . S
Eu672 O717 2.373 . S
Eu672 O719 2.432 . S
Eu672 O720 2.291 . S
Eu672 O724 2.335 . S
Eu672 O727 2.372 . S
Eu672 C736 2.787 . S
C673 N674 1.365 . S
C673 C676 1.405 . S
C673 C680 1.448 . S
N674 C673 1.365 . S
N674 C677 1.319 . S
N674 Eu683 2.600 . S
C675 C677 1.397 . S
C675 C678 1.367 . S
C675 H695 0.931 . S
C676 C673 1.405 . S
C676 C678 1.403 . S
C676 C682 1.439 . S
C677 N674 1.319 . S
C677 C675 1.397 . S
C677 H688 0.930 . S
C678 C675 1.367 . S
C678 C676 1.403 . S
C678 H699 0.929 . S
C679 C680 1.430 . S
C679 C681 1.377 1_455 S
C679 C685 1.404 . S
C680 C673 1.448 . S
C680 C679 1.430 . S
C680 N684 1.351 . S
C681 C679 1.377 1_655 S
C681 C682 1.372 1_655 S
C681 H696 0.944 . S
C682 C676 1.439 . S
C682 C681 1.372 1_455 S
C682 H697 0.931 1_455 S
Eu683 N674 2.600 . S
Eu683 N684 2.562 . S
Eu683 O718 2.335 . S
Eu683 O721 2.372 . S
Eu683 O722 2.462 . S
Eu683 O723 2.373 . S
Eu683 O725 2.432 . S
Eu683 O726 2.291 . S
Eu683 C747 2.787 . S
N684 C680 1.351 . S
N684 Eu683 2.562 . S
N684 C686 1.325 . S
C685 C679 1.404 . S
C685 C687 1.366 . S
C685 H693 0.930 1_455 S
C686 N684 1.325 . S
C686 C687 1.416 . S
C686 H692 0.929 . S
C687 C685 1.366 . S
C687 C686 1.416 . S
C687 H689 0.930 . S
H688 C677 0.930 . S
H689 C687 0.930 . S
H690 C705 0.930 . S
H691 C712 0.930 . S
H692 C686 0.929 . S
H693 C685 0.930 1_655 S
H694 C708 0.929 . S
H695 C675 0.931 . S
H696 C681 0.944 . S
H697 C682 0.931 1_655 S
H698 C703 0.931 . S
H699 C678 0.929 . S
H700 C711 0.930 . S
N701 Eu672 2.600 . S
N701 C702 1.365 . S
N701 C705 1.319 . S
C702 N701 1.365 . S
C702 C704 1.405 . S
C702 C710 1.448 . S
C703 H698 0.931 . S
C703 C705 1.397 . S
C703 C706 1.367 . S
C704 C702 1.405 . S
C704 C706 1.403 . S
C704 C737 1.439 . S
C705 H690 0.930 . S
C705 N701 1.319 . S
C705 C703 1.397 . S
C706 C703 1.367 . S
C706 C704 1.403 . S
C706 H713 0.929 . S
N707 Eu672 2.562 . S
N707 C708 1.325 . S
N707 C710 1.351 . S
C708 H694 0.929 . S
C708 N707 1.325 . S
C708 C712 1.416 1_565 S
C709 C710 1.430 1_545 S
C709 C711 1.404 . S
C709 C738 1.387 . S
C710 C702 1.448 . S
C710 N707 1.351 . S
C710 C709 1.430 1_565 S
C711 H700 0.930 . S
C711 C709 1.404 . S
C711 C712 1.366 . S
C712 H691 0.930 . S
C712 C708 1.416 1_545 S
C712 C711 1.366 . S
H713 C706 0.929 . S
H714 C737 0.931 1_545 S
H715 C738 0.931 . S
O716 Eu672 2.462 . S
O716 C736 1.252 . S
O717 Eu672 2.373 . S
O717 C728 1.249 . S
O718 Eu683 2.335 . S
O718 C728 1.264 . S
O719 Eu672 2.432 . S
O719 C736 1.268 . S
O720 Eu672 2.291 . S
O720 C735 1.255 . S
O721 Eu683 2.372 . S
O721 C735 1.257 . S
O722 Eu683 2.462 . S
O722 C747 1.252 . S
O723 Eu683 2.373 . S
O723 C739 1.249 . S
O724 Eu672 2.335 . S
O724 C739 1.264 . S
O725 Eu683 2.432 . S
O725 C747 1.268 . S
O726 Eu683 2.291 . S
O726 C746 1.255 . S
O727 Eu672 2.372 . S
O727 C746 1.257 . S
C728 O717 1.249 . S
C728 O718 1.264 . S
C729 C732 1.382 . S
C729 C734 1.390 . S
C729 C736 1.506 1_545 S
C730 C731 1.398 . S
C730 C734 1.392 . S
C731 C730 1.398 . S
C731 C733 1.372 . S
C731 H748 0.931 . S
C732 C729 1.382 . S
C732 C733 1.390 . S
C732 H749 0.931 . S
C733 C731 1.372 . S
C733 C732 1.390 . S
C733 H750 0.929 . S
C734 C729 1.390 . S
C734 C730 1.392 . S
C734 H751 0.930 . S
C735 O720 1.255 . S
C735 O721 1.257 . S
C736 Eu672 2.787 . S
C736 O716 1.252 . S
C736 O719 1.268 . S
C736 C729 1.506 1_565 S
C737 C704 1.439 . S
C737 H714 0.931 1_565 S
C737 C738 1.374 1_565 S
C738 C709 1.387 . S
C738 H715 0.931 . S
C738 C737 1.374 1_545 S
C739 O723 1.249 . S
C739 O724 1.264 . S
C740 C743 1.382 . S
C740 C744 1.390 . S
C740 C747 1.506 . S
C741 C742 1.398 . S
C741 C744 1.392 . S
C742 C741 1.398 . S
C742 C745 1.372 . S
C742 H752 0.931 . S
C743 C740 1.382 . S
C743 C745 1.390 . S
C743 H753 0.931 . S
C744 C740 1.390 . S
C744 C741 1.392 . S
C744 H754 0.930 . S
C745 C742 1.372 . S
C745 C743 1.390 . S
C745 H755 0.929 . S
C746 O726 1.255 . S
C746 O727 1.257 . S
C747 Eu683 2.787 . S
C747 O722 1.252 . S
C747 O725 1.268 . S
C747 C740 1.506 . S
H748 C731 0.931 . S
H749 C732 0.931 . S
H750 C733 0.929 . S
H751 C734 0.930 . S
H752 C742 0.931 . S
H753 C743 0.931 . S
H754 C744 0.930 . S
H755 C745 0.929 . S
Eu756 N785 2.600 . S
Eu756 N791 2.562 . S
Eu756 O800 2.462 . S
Eu756 O801 2.373 . S
Eu756 O803 2.432 . S
Eu756 O804 2.291 . S
Eu756 O808 2.335 . S
Eu756 O811 2.372 . S
Eu756 C820 2.787 . S
C757 N758 1.365 . S
C757 C760 1.405 . S
C757 C764 1.448 . S
N758 C757 1.365 . S
N758 C761 1.319 . S
N758 Eu767 2.600 . S
C759 C761 1.397 . S
C759 C762 1.367 . S
C759 H779 0.931 1_556 S
C760 C757 1.405 . S
C760 C762 1.403 . S
C760 C766 1.439 . S
C761 N758 1.319 . S
C761 C759 1.397 . S
C761 H772 0.930 . S
C762 C759 1.367 . S
C762 C760 1.403 . S
C762 H783 0.929 . S
C763 C764 1.430 . S
C763 C765 1.378 1_545 S
C763 C769 1.404 . S
C764 C757 1.448 . S
C764 C763 1.430 . S
C764 N768 1.351 . S
C765 C763 1.378 1_565 S
C765 C766 1.368 1_565 S
C765 H780 0.946 . S
C766 C760 1.439 . S
C766 C765 1.368 1_545 S
C766 H781 0.931 1_545 S
Eu767 N758 2.600 . S
Eu767 N768 2.562 . S
Eu767 O802 2.335 . S
Eu767 O805 2.372 . S
Eu767 O806 2.462 . S
Eu767 O807 2.373 . S
Eu767 O809 2.432 . S
Eu767 O810 2.291 . S
Eu767 C831 2.787 . S
N768 C764 1.351 . S
N768 Eu767 2.562 . S
N768 C770 1.325 . S
C769 C763 1.404 . S
C769 C771 1.366 . S
C769 H777 0.930 1_545 S
C770 N768 1.325 . S
C770 C771 1.416 . S
C770 H776 0.929 . S
C771 C769 1.366 . S
C771 C770 1.416 . S
C771 H773 0.930 . S
H772 C761 0.930 . S
H773 C771 0.930 . S
H774 C789 0.930 . S
H775 C796 0.930 . S
H776 C770 0.929 . S
H777 C769 0.930 1_565 S
H778 C792 0.929 . S
H779 C759 0.931 1_554 S
H780 C765 0.946 . S
H781 C766 0.931 1_565 S
H782 C787 0.931 . S
H783 C762 0.929 . S
H784 C795 0.930 . S
N785 Eu756 2.600 . S
N785 C786 1.365 . S
N785 C789 1.319 . S
C786 N785 1.365 . S
C786 C788 1.405 . S
C786 C794 1.448 . S
C787 H782 0.931 . S
C787 C789 1.397 . S
C787 C790 1.367 . S
C788 C786 1.405 . S
C788 C790 1.403 . S
C788 C821 1.439 . S
C789 H774 0.930 . S
C789 N785 1.319 . S
C789 C787 1.397 . S
C790 C787 1.367 . S
C790 C788 1.403 . S
C790 H797 0.929 . S
N791 Eu756 2.562 . S
N791 C792 1.325 . S
N791 C794 1.351 . S
C792 H778 0.929 . S
C792 N791 1.325 . S
C792 C796 1.416 . S
C793 C794 1.430 . S
C793 C795 1.404 . S
C793 C822 1.387 . S
C794 C786 1.448 . S
C794 N791 1.351 . S
C794 C793 1.430 . S
C795 H784 0.930 . S
C795 C793 1.404 . S
C795 C796 1.366 . S
C796 H775 0.930 . S
C796 C792 1.416 . S
C796 C795 1.366 . S
H797 C790 0.929 . S
H798 C821 0.931 . S
H799 C822 0.931 . S
O800 Eu756 2.462 . S
O800 C820 1.252 . S
O801 Eu756 2.373 . S
O801 C812 1.249 . S
O802 Eu767 2.335 . S
O802 C812 1.264 . S
O803 Eu756 2.432 . S
O803 C820 1.268 . S
O804 Eu756 2.291 . S
O804 C819 1.255 . S
O805 Eu767 2.372 . S
O805 C819 1.257 . S
O806 Eu767 2.462 . S
O806 C831 1.252 . S
O807 Eu767 2.373 . S
O807 C823 1.249 . S
O808 Eu756 2.335 . S
O808 C823 1.264 . S
O809 Eu767 2.432 . S
O809 C831 1.268 . S
O810 Eu767 2.291 . S
O810 C830 1.255 . S
O811 Eu756 2.372 . S
O811 C830 1.257 . S
C812 O801 1.249 . S
C812 O802 1.264 . S
C813 C816 1.382 . S
C813 C818 1.390 . S
C813 C820 1.506 . S
C814 C815 1.398 . S
C814 C818 1.392 . S
C815 C814 1.398 . S
C815 C817 1.372 . S
C815 H832 0.931 . S
C816 C813 1.382 . S
C816 C817 1.390 . S
C816 H833 0.931 . S
C817 C815 1.372 . S
C817 C816 1.390 . S
C817 H834 0.929 . S
C818 C813 1.390 . S
C818 C814 1.392 . S
C818 H835 0.930 . S
C819 O804 1.255 . S
C819 O805 1.257 . S
C820 Eu756 2.787 . S
C820 O800 1.252 . S
C820 O803 1.268 . S
C820 C813 1.506 . S
C821 C788 1.439 . S
C821 H798 0.931 . S
C821 C822 1.374 . S
C822 C793 1.387 . S
C822 H799 0.931 . S
C822 C821 1.374 . S
C823 O807 1.249 . S
C823 O808 1.264 . S
C824 C827 1.382 . S
C824 C828 1.390 . S
C824 C831 1.506 . S
C825 C826 1.398 . S
C825 C828 1.392 . S
C826 C825 1.398 . S
C826 C829 1.372 . S
C826 H836 0.931 . S
C827 C824 1.382 . S
C827 C829 1.390 . S
C827 H837 0.931 . S
C828 C824 1.390 . S
C828 C825 1.392 . S
C828 H838 0.930 . S
C829 C826 1.372 . S
C829 C827 1.390 . S
C829 H839 0.929 . S
C830 O810 1.255 . S
C830 O811 1.257 . S
C831 Eu767 2.787 . S
C831 O806 1.252 . S
C831 O809 1.268 . S
C831 C824 1.506 . S
H832 C815 0.931 . S
H833 C816 0.931 . S
H834 C817 0.929 . S
H835 C818 0.930 . S
H836 C826 0.931 . S
H837 C827 0.931 . S
H838 C828 0.930 . S
H839 C829 0.929 . S
Eu840 N869 2.600 . S
Eu840 N875 2.562 . S
Eu840 O884 2.462 . S
Eu840 O885 2.373 . S
Eu840 O887 2.432 . S
Eu840 O888 2.291 . S
Eu840 O892 2.335 . S
Eu840 O895 2.372 . S
Eu840 C904 2.787 . S
C841 N842 1.365 . S
C841 C844 1.405 . S
C841 C848 1.448 . S
N842 C841 1.365 . S
N842 C845 1.319 . S
N842 Eu851 2.600 . S
C843 C845 1.397 . S
C843 C846 1.367 . S
C843 H863 0.931 . S
C844 C841 1.405 . S
C844 C846 1.403 . S
C844 C850 1.439 . S
C845 N842 1.319 . S
C845 C843 1.397 . S
C845 H856 0.930 . S
C846 C843 1.367 . S
C846 C844 1.403 . S
C846 H867 0.929 . S
C847 C848 1.430 . S
C847 C849 1.387 . S
C847 C853 1.404 . S
C848 C841 1.448 . S
C848 C847 1.430 . S
C848 N852 1.351 . S
C849 C847 1.387 . S
C849 C850 1.374 . S
C849 H864 0.931 . S
C850 C844 1.439 . S
C850 C849 1.374 . S
C850 H865 0.931 . S
Eu851 N842 2.600 . S
Eu851 N852 2.562 . S
Eu851 O886 2.335 . S
Eu851 O889 2.372 . S
Eu851 O890 2.462 . S
Eu851 O891 2.373 . S
Eu851 O893 2.432 . S
Eu851 O894 2.291 . S
Eu851 C915 2.787 . S
N852 C848 1.351 . S
N852 Eu851 2.562 . S
N852 C854 1.325 . S
C853 C847 1.404 . S
C853 C855 1.366 . S
C853 H861 0.930 . S
C854 N852 1.325 . S
C854 C855 1.416 . S
C854 H860 0.929 . S
C855 C853 1.366 . S
C855 C854 1.416 . S
C855 H857 0.930 . S
H856 C845 0.930 . S
H857 C855 0.930 . S
H858 C873 0.930 . S
H859 C880 0.930 . S
H860 C854 0.929 . S
H861 C853 0.930 . S
H862 C876 0.929 . S
H863 C843 0.931 . S
H864 C849 0.931 . S
H865 C850 0.931 . S
H866 C871 0.931 . S
H867 C846 0.929 . S
H868 C879 0.930 . S
N869 Eu840 2.600 . S
N869 C870 1.365 . S
N869 C873 1.319 . S
C870 N869 1.365 . S
C870 C872 1.405 . S
C870 C878 1.448 . S
C871 H866 0.931 . S
C871 C873 1.397 . S
C871 C874 1.367 . S
C872 C870 1.405 . S
C872 C874 1.403 . S
C872 C905 1.439 . S
C873 H858 0.930 . S
C873 N869 1.319 . S
C873 C871 1.397 . S
C874 C871 1.367 . S
C874 C872 1.403 . S
C874 H881 0.929 . S
N875 Eu840 2.562 . S
N875 C876 1.325 . S
N875 C878 1.351 . S
C876 H862 0.929 . S
C876 N875 1.325 . S
C876 C880 1.416 1_455 S
C877 C878 1.433 1_655 S
C877 C879 1.403 . S
C877 C906 1.385 . S
C878 C870 1.448 . S
C878 N875 1.351 . S
C878 C877 1.433 1_455 S
C879 H868 0.930 . S
C879 C877 1.403 . S
C879 C880 1.366 . S
C880 H859 0.930 . S
C880 C876 1.416 1_655 S
C880 C879 1.366 . S
H881 C874 0.929 . S
H882 C905 0.931 1_655 S
H883 C906 0.931 . S
O884 Eu840 2.462 . S
O884 C904 1.252 . S
O885 Eu840 2.373 . S
O885 C896 1.249 . S
O886 Eu851 2.335 . S
O886 C896 1.264 . S
O887 Eu840 2.432 . S
O887 C904 1.268 . S
O888 Eu840 2.291 . S
O888 C903 1.255 . S
O889 Eu851 2.372 . S
O889 C903 1.257 . S
O890 Eu851 2.462 . S
O890 C915 1.252 . S
O891 Eu851 2.373 . S
O891 C907 1.249 . S
O892 Eu840 2.335 . S
O892 C907 1.264 . S
O893 Eu851 2.432 . S
O893 C915 1.268 . S
O894 Eu851 2.291 . S
O894 C914 1.255 . S
O895 Eu840 2.372 . S
O895 C914 1.257 . S
C896 O885 1.249 . S
C896 O886 1.264 . S
C897 C900 1.382 . S
C897 C902 1.390 . S
C897 C904 1.506 1_655 S
C898 C899 1.398 . S
C898 C902 1.392 . S
C899 C898 1.398 . S
C899 C901 1.372 . S
C899 H916 0.931 . S
C900 C897 1.382 . S
C900 C901 1.390 . S
C900 H917 0.931 . S
C901 C899 1.372 . S
C901 C900 1.390 . S
C901 H918 0.929 . S
C902 C897 1.390 . S
C902 C898 1.392 . S
C902 H919 0.930 . S
C903 O888 1.255 . S
C903 O889 1.257 . S
C904 Eu840 2.787 . S
C904 O884 1.252 . S
C904 O887 1.268 . S
C904 C897 1.506 1_455 S
C905 C872 1.439 . S
C905 H882 0.931 1_455 S
C905 C906 1.374 1_455 S
C906 C877 1.385 . S
C906 H883 0.931 . S
C906 C905 1.374 1_655 S
C907 O891 1.249 . S
C907 O892 1.264 . S
C908 C911 1.382 . S
C908 C912 1.390 . S
C908 C915 1.506 . S
C909 C910 1.398 . S
C909 C912 1.392 . S
C910 C909 1.398 . S
C910 C913 1.372 . S
C910 H920 0.931 . S
C911 C908 1.382 . S
C911 C913 1.390 . S
C911 H921 0.931 . S
C912 C908 1.390 . S
C912 C909 1.392 . S
C912 H922 0.930 . S
C913 C910 1.372 . S
C913 C911 1.390 . S
C913 H923 0.929 . S
C914 O894 1.255 . S
C914 O895 1.257 . S
C915 Eu851 2.787 . S
C915 O890 1.252 . S
C915 O893 1.268 . S
C915 C908 1.506 . S
H916 C899 0.931 . S
H917 C900 0.931 . S
H918 C901 0.929 . S
H919 C902 0.930 . S
H920 C910 0.931 . S
H921 C911 0.931 . S
H922 C912 0.930 . S
H923 C913 0.929 . S
Eu924 N953 2.600 . S
Eu924 N959 2.562 . S
Eu924 O968 2.462 . S
Eu924 O969 2.373 . S
Eu924 O971 2.432 . S
Eu924 O972 2.291 . S
Eu924 O976 2.335 . S
Eu924 O979 2.372 . S
Eu924 C988 2.787 . S
C925 N926 1.365 . S
C925 C928 1.405 . S
C925 C932 1.448 . S
N926 C925 1.365 . S
N926 C929 1.319 . S
N926 Eu935 2.600 . S
C927 C929 1.397 . S
C927 C930 1.367 . S
C927 H947 0.931 1_556 S
C928 C925 1.405 . S
C928 C930 1.403 . S
C928 C934 1.439 . S
C929 N926 1.319 . S
C929 C927 1.397 . S
C929 H940 0.930 . S
C930 C927 1.367 . S
C930 C928 1.403 . S
C930 H951 0.929 . S
C931 C932 1.430 . S
C931 C933 1.377 1_655 S
C931 C937 1.404 . S
C932 C925 1.448 . S
C932 C931 1.430 . S
C932 N936 1.351 . S
C933 C931 1.377 1_455 S
C933 C934 1.372 1_455 S
C933 H948 0.944 . S
C934 C928 1.439 . S
C934 C933 1.372 1_655 S
C934 H949 0.931 1_655 S
Eu935 N926 2.600 . S
Eu935 N936 2.562 . S
Eu935 O970 2.335 . S
Eu935 O973 2.372 . S
Eu935 O974 2.462 . S
Eu935 O975 2.373 . S
Eu935 O977 2.432 . S
Eu935 O978 2.291 . S
Eu935 C999 2.787 . S
N936 C932 1.351 . S
N936 Eu935 2.562 . S
N936 C938 1.325 . S
C937 C931 1.404 . S
C937 C939 1.366 . S
C937 H945 0.930 1_655 S
C938 N936 1.325 . S
C938 C939 1.416 . S
C938 H944 0.929 . S
C939 C937 1.366 . S
C939 C938 1.416 . S
C939 H941 0.930 . S
H940 C929 0.930 . S
H941 C939 0.930 . S
H942 C957 0.930 . S
H943 C964 0.930 . S
H944 C938 0.929 . S
H945 C937 0.930 1_455 S
H946 C960 0.929 . S
H947 C927 0.931 1_554 S
H948 C933 0.944 . S
H949 C934 0.931 1_455 S
H950 C955 0.931 . S
H951 C930 0.929 . S
H952 C963 0.930 . S
N953 Eu924 2.600 . S
N953 C954 1.365 . S
N953 C957 1.319 . S
C954 N953 1.365 . S
C954 C956 1.405 . S
C954 C962 1.448 . S
C955 H950 0.931 . S
C955 C957 1.397 . S
C955 C958 1.367 . S
C956 C954 1.405 . S
C956 C958 1.403 . S
C956 C989 1.439 . S
C957 H942 0.930 . S
C957 N953 1.319 . S
C957 C955 1.397 . S
C958 C955 1.367 . S
C958 C956 1.403 . S
C958 H965 0.929 . S
N959 Eu924 2.562 . S
N959 C960 1.325 . S
N959 C962 1.351 . S
C960 H946 0.929 . S
C960 N959 1.325 . S
C960 C964 1.416 1_545 S
C961 C962 1.430 1_565 S
C961 C963 1.404 . S
C961 C990 1.387 . S
C962 C954 1.448 . S
C962 N959 1.351 . S
C962 C961 1.430 1_545 S
C963 H952 0.930 . S
C963 C961 1.404 . S
C963 C964 1.366 . S
C964 H943 0.930 . S
C964 C960 1.416 1_565 S
C964 C963 1.366 . S
H965 C958 0.929 . S
H966 C989 0.931 1_565 S
H967 C990 0.931 . S
O968 Eu924 2.462 . S
O968 C988 1.252 . S
O969 Eu924 2.373 . S
O969 C980 1.249 . S
O970 Eu935 2.335 . S
O970 C980 1.264 . S
O971 Eu924 2.432 . S
O971 C988 1.268 . S
O972 Eu924 2.291 . S
O972 C987 1.255 . S
O973 Eu935 2.372 . S
O973 C987 1.257 . S
O974 Eu935 2.462 . S
O974 C999 1.252 . S
O975 Eu935 2.373 . S
O975 C991 1.249 . S
O976 Eu924 2.335 . S
O976 C991 1.264 . S
O977 Eu935 2.432 . S
O977 C999 1.268 . S
O978 Eu935 2.291 . S
O978 C998 1.255 . S
O979 Eu924 2.372 . S
O979 C998 1.257 . S
C980 O969 1.249 . S
C980 O970 1.264 . S
C981 C984 1.382 . S
C981 C986 1.390 . S
C981 C988 1.506 1_565 S
C982 C983 1.398 . S
C982 C986 1.392 . S
C983 C982 1.398 . S
C983 C985 1.372 . S
C983 H1000 0.931 . S
C984 C981 1.382 . S
C984 C985 1.390 . S
C984 H1001 0.931 . S
C985 C983 1.372 . S
C985 C984 1.390 . S
C985 H1002 0.929 . S
C986 C981 1.390 . S
C986 C982 1.392 . S
C986 H1003 0.930 . S
C987 O972 1.255 . S
C987 O973 1.257 . S
C988 Eu924 2.787 . S
C988 O968 1.252 . S
C988 O971 1.268 . S
C988 C981 1.506 1_545 S
C989 C956 1.439 . S
C989 H966 0.931 1_545 S
C989 C990 1.374 1_545 S
C990 C961 1.387 . S
C990 H967 0.931 . S
C990 C989 1.374 1_565 S
C991 O975 1.249 . S
C991 O976 1.264 . S
C992 C995 1.382 . S
C992 C996 1.390 . S
C992 C999 1.506 . S
C993 C994 1.398 . S
C993 C996 1.392 . S
C994 C993 1.398 . S
C994 C997 1.372 . S
C994 H1004 0.931 . S
C995 C992 1.382 . S
C995 C997 1.390 . S
C995 H1005 0.931 . S
C996 C992 1.390 . S
C996 C993 1.392 . S
C996 H1006 0.930 . S
C997 C994 1.372 . S
C997 C995 1.390 . S
C997 H1007 0.929 . S
C998 O978 1.255 . S
C998 O979 1.257 . S
C999 Eu935 2.787 . S
C999 O974 1.252 . S
C999 O977 1.268 . S
C999 C992 1.506 . S
H1000 C983 0.931 . S
H1001 C984 0.931 . S
H1002 C985 0.929 . S
H1003 C986 0.930 . S
H1004 C994 0.931 . S
H1005 C995 0.931 . S
H1006 C996 0.930 . S
H1007 C997 0.929 . S
H1008 C1014 0.930 . S
H1009 C1018 0.930 . S
H1010 C1023 0.929 . S
H1011 C1021 0.929 . S
H1012 C1016 0.929 . S
H1013 C1022 0.929 . S
C1014 H1008 0.930 . S
C1014 C1015 1.367 . S
C1014 C1022 1.378 . S
C1015 C1014 1.367 . S
C1015 C1023 1.433 . S
C1016 H1012 0.929 . S
C1016 C1018 1.378 . S
C1016 C1020 1.350 . S
C1017 C1020 1.463 1_565 S
C1017 C1022 1.350 . S
C1017 N1025 1.427 . S
C1018 H1009 0.930 . S
C1018 C1016 1.378 . S
C1018 C1019 1.367 . S
C1019 C1018 1.367 . S
C1019 C1021 1.433 . S
C1020 C1016 1.350 . S
C1020 C1017 1.463 1_545 S
C1020 N1024 1.427 . S
C1021 H1011 0.929 . S
C1021 C1019 1.433 . S
C1021 N1024 1.384 . S
C1022 H1013 0.929 . S
C1022 C1014 1.378 . S
C1022 C1017 1.350 . S
C1023 H1010 0.929 . S
C1023 C1015 1.433 . S
C1023 N1025 1.384 . S
N1024 C1020 1.427 . S
N1024 C1021 1.384 . S
N1025 C1017 1.427 . S
N1025 C1023 1.384 . S
H1026 C1032 0.930 . S
H1027 C1036 0.930 . S
H1028 C1041 0.929 . S
H1029 C1039 0.929 . S
H1030 C1034 0.929 . S
H1031 C1040 0.929 . S
C1032 H1026 0.930 . S
C1032 C1033 1.367 . S
C1032 C1040 1.378 . S
C1033 C1032 1.367 . S
C1033 C1041 1.433 . S
C1034 H1030 0.929 . S
C1034 C1036 1.378 . S
C1034 C1038 1.350 . S
C1035 C1038 1.463 . S
C1035 C1040 1.350 . S
C1035 N1043 1.427 . S
C1036 H1027 0.930 . S
C1036 C1034 1.378 . S
C1036 C1037 1.367 . S
C1037 C1036 1.367 . S
C1037 C1039 1.433 . S
C1038 C1034 1.350 . S
C1038 C1035 1.463 . S
C1038 N1042 1.427 . S
C1039 H1029 0.929 . S
C1039 C1037 1.433 . S
C1039 N1042 1.384 . S
C1040 H1031 0.929 . S
C1040 C1032 1.378 . S
C1040 C1035 1.350 . S
C1041 H1028 0.929 . S
C1041 C1033 1.433 . S
C1041 N1043 1.384 . S
N1042 C1038 1.427 . S
N1042 C1039 1.384 . S
N1043 C1035 1.427 . S
N1043 C1041 1.384 . S
H1044 C1050 0.930 . S
H1045 C1054 0.930 . S
H1046 C1059 0.929 . S
H1047 C1057 0.929 . S
H1048 C1052 0.929 . S
H1049 C1058 0.929 . S
C1050 H1044 0.930 . S
C1050 C1051 1.367 . S
C1050 C1058 1.378 . S
C1051 C1050 1.367 . S
C1051 C1059 1.433 . S
C1052 H1048 0.929 . S
C1052 C1054 1.378 . S
C1052 C1056 1.350 . S
C1053 C1056 1.463 1_655 S
C1053 C1058 1.350 . S
C1053 N1061 1.427 . S
C1054 H1045 0.930 . S
C1054 C1052 1.378 . S
C1054 C1055 1.367 . S
C1055 C1054 1.367 . S
C1055 C1057 1.433 . S
C1056 C1052 1.350 . S
C1056 C1053 1.463 1_455 S
C1056 N1060 1.427 . S
C1057 H1047 0.929 . S
C1057 C1055 1.433 . S
C1057 N1060 1.384 . S
C1058 H1049 0.929 . S
C1058 C1050 1.378 . S
C1058 C1053 1.350 . S
C1059 H1046 0.929 . S
C1059 C1051 1.433 . S
C1059 N1061 1.384 . S
N1060 C1056 1.427 . S
N1060 C1057 1.384 . S
N1061 C1053 1.427 . S
N1061 C1059 1.384 . S
H1062 C1068 0.930 . S
H1063 C1072 0.930 . S
H1064 C1077 0.929 . S
H1065 C1075 0.929 . S
H1066 C1070 0.929 . S
H1067 C1076 0.929 . S
C1068 H1062 0.930 . S
C1068 C1069 1.367 . S
C1068 C1076 1.378 . S
C1069 C1068 1.367 . S
C1069 C1077 1.433 . S
C1070 H1066 0.929 . S
C1070 C1072 1.378 . S
C1070 C1074 1.350 . S
C1071 C1074 1.463 1_565 S
C1071 C1076 1.350 . S
C1071 N1079 1.427 . S
C1072 H1063 0.930 . S
C1072 C1070 1.378 . S
C1072 C1073 1.367 . S
C1073 C1072 1.367 . S
C1073 C1075 1.433 . S
C1074 C1070 1.350 . S
C1074 C1071 1.463 1_545 S
C1074 N1078 1.427 . S
C1075 H1065 0.929 . S
C1075 C1073 1.433 . S
C1075 N1078 1.384 . S
C1076 H1067 0.929 . S
C1076 C1068 1.378 . S
C1076 C1071 1.350 . S
C1077 H1064 0.929 . S
C1077 C1069 1.433 . S
C1077 N1079 1.384 . S
N1078 C1074 1.427 . S
N1078 C1075 1.384 . S
N1079 C1071 1.427 . S
N1079 C1077 1.384 . S
H1080 C1086 0.930 . S
H1081 C1090 0.930 . S
H1082 C1095 0.929 . S
H1083 C1093 0.929 . S
H1084 C1088 0.929 . S
H1085 C1094 0.929 . S
C1086 H1080 0.930 . S
C1086 C1087 1.367 . S
C1086 C1094 1.378 . S
C1087 C1086 1.367 . S
C1087 C1095 1.433 . S
C1088 H1084 0.929 . S
C1088 C1090 1.378 . S
C1088 C1092 1.350 . S
C1089 C1092 1.463 . S
C1089 C1094 1.350 . S
C1089 N1097 1.427 . S
C1090 H1081 0.930 . S
C1090 C1088 1.378 . S
C1090 C1091 1.367 . S
C1091 C1090 1.367 . S
C1091 C1093 1.433 . S
C1092 C1088 1.350 . S
C1092 C1089 1.463 . S
C1092 N1096 1.427 . S
C1093 H1083 0.929 . S
C1093 C1091 1.433 . S
C1093 N1096 1.384 . S
C1094 H1085 0.929 . S
C1094 C1086 1.378 . S
C1094 C1089 1.350 . S
C1095 H1082 0.929 . S
C1095 C1087 1.433 . S
C1095 N1097 1.384 . S
N1096 C1092 1.427 . S
N1096 C1093 1.384 . S
N1097 C1089 1.427 . S
N1097 C1095 1.384 . S
H1098 C1104 0.930 . S
H1099 C1108 0.930 . S
H1100 C1113 0.929 . S
H1101 C1111 0.929 . S
H1102 C1106 0.929 . S
H1103 C1112 0.929 . S
C1104 H1098 0.930 . S
C1104 C1105 1.367 . S
C1104 C1112 1.378 . S
C1105 C1104 1.367 . S
C1105 C1113 1.433 . S
C1106 H1102 0.929 . S
C1106 C1108 1.378 . S
C1106 C1110 1.350 . S
C1107 C1110 1.463 1_655 S
C1107 C1112 1.350 . S
C1107 N1115 1.427 . S
C1108 H1099 0.930 . S
C1108 C1106 1.378 . S
C1108 C1109 1.367 . S
C1109 C1108 1.367 . S
C1109 C1111 1.433 . S
C1110 C1106 1.350 . S
C1110 C1107 1.463 1_455 S
C1110 N1114 1.427 . S
C1111 H1101 0.929 . S
C1111 C1109 1.433 . S
C1111 N1114 1.384 . S
C1112 H1103 0.929 . S
C1112 C1104 1.378 . S
C1112 C1107 1.350 . S
C1113 H1100 0.929 . S
C1113 C1105 1.433 . S
C1113 N1115 1.384 . S
N1114 C1110 1.427 . S
N1114 C1111 1.384 . S
N1115 C1107 1.427 . S
N1115 C1113 1.384 . S
H1116 C1122 0.930 . S
H1117 C1126 0.930 . S
H1118 C1131 0.929 . S
H1119 C1129 0.929 . S
H1120 C1124 0.929 . S
H1121 C1130 0.929 . S
C1122 H1116 0.930 . S
C1122 C1123 1.367 . S
C1122 C1130 1.378 . S
C1123 C1122 1.367 . S
C1123 C1131 1.433 . S
C1124 H1120 0.929 . S
C1124 C1126 1.378 . S
C1124 C1128 1.350 . S
C1125 C1128 1.463 1_455 S
C1125 C1130 1.350 . S
C1125 N1133 1.427 . S
C1126 H1117 0.930 . S
C1126 C1124 1.378 . S
C1126 C1127 1.367 . S
C1127 C1126 1.367 . S
C1127 C1129 1.433 . S
C1128 C1124 1.350 . S
C1128 C1125 1.463 1_655 S
C1128 N1132 1.427 . S
C1129 H1119 0.929 . S
C1129 C1127 1.433 . S
C1129 N1132 1.384 . S
C1130 H1121 0.929 . S
C1130 C1122 1.378 . S
C1130 C1125 1.350 . S
C1131 H1118 0.929 . S
C1131 C1123 1.433 . S
C1131 N1133 1.384 . S
N1132 C1128 1.427 . S
N1132 C1129 1.384 . S
N1133 C1125 1.427 . S
N1133 C1131 1.384 . S
H1134 C1140 0.930 . S
H1135 C1144 0.930 . S
H1136 C1149 0.929 . S
H1137 C1147 0.929 . S
H1138 C1142 0.929 . S
H1139 C1148 0.929 . S
C1140 H1134 0.930 . S
C1140 C1141 1.367 . S
C1140 C1148 1.378 . S
C1141 C1140 1.367 . S
C1141 C1149 1.433 . S
C1142 H1138 0.929 . S
C1142 C1144 1.378 . S
C1142 C1146 1.350 . S
C1143 C1146 1.463 1_565 S
C1143 C1148 1.350 . S
C1143 N1151 1.427 . S
C1144 H1135 0.930 . S
C1144 C1142 1.378 . S
C1144 C1145 1.367 . S
C1145 C1144 1.367 . S
C1145 C1147 1.433 . S
C1146 C1142 1.350 . S
C1146 C1143 1.463 1_545 S
C1146 N1150 1.427 . S
C1147 H1137 0.929 . S
C1147 C1145 1.433 . S
C1147 N1150 1.384 . S
C1148 H1139 0.929 . S
C1148 C1140 1.378 . S
C1148 C1143 1.350 . S
C1149 H1136 0.929 . S
C1149 C1141 1.433 . S
C1149 N1151 1.384 . S
N1150 C1146 1.427 . S
N1150 C1147 1.384 . S
N1151 C1143 1.427 . S
N1151 C1149 1.384 . S
H1152 C1158 0.930 . S
H1153 C1162 0.930 . S
H1154 C1167 0.929 . S
H1155 C1165 0.929 . S
H1156 C1160 0.929 . S
H1157 C1166 0.929 . S
C1158 H1152 0.930 . S
C1158 C1159 1.367 . S
C1158 C1166 1.378 . S
C1159 C1158 1.367 . S
C1159 C1167 1.433 . S
C1160 H1156 0.929 . S
C1160 C1162 1.378 . S
C1160 C1164 1.350 . S
C1161 C1164 1.463 . S
C1161 C1166 1.350 . S
C1161 N1169 1.427 . S
C1162 H1153 0.930 . S
C1162 C1160 1.378 . S
C1162 C1163 1.367 . S
C1163 C1162 1.367 . S
C1163 C1165 1.433 . S
C1164 C1160 1.350 . S
C1164 C1161 1.463 . S
C1164 N1168 1.427 . S
C1165 H1155 0.929 . S
C1165 C1163 1.433 . S
C1165 N1168 1.384 . S
C1166 H1157 0.929 . S
C1166 C1158 1.378 . S
C1166 C1161 1.350 . S
C1167 H1154 0.929 . S
C1167 C1159 1.433 . S
C1167 N1169 1.384 . S
N1168 C1164 1.427 . S
N1168 C1165 1.384 . S
N1169 C1161 1.427 . S
N1169 C1167 1.384 . S
H1170 C1176 0.930 . S
H1171 C1180 0.930 . S
H1172 C1185 0.929 . S
H1173 C1183 0.929 . S
H1174 C1178 0.929 . S
H1175 C1184 0.929 . S
C1176 H1170 0.930 . S
C1176 C1177 1.367 . S
C1176 C1184 1.378 . S
C1177 C1176 1.367 . S
C1177 C1185 1.433 . S
C1178 H1174 0.929 . S
C1178 C1180 1.378 . S
C1178 C1182 1.350 . S
C1179 C1182 1.463 1_455 S
C1179 C1184 1.350 . S
C1179 N1187 1.427 . S
C1180 H1171 0.930 . S
C1180 C1178 1.378 . S
C1180 C1181 1.367 . S
C1181 C1180 1.367 . S
C1181 C1183 1.433 . S
C1182 C1178 1.350 . S
C1182 C1179 1.463 1_655 S
C1182 N1186 1.427 . S
C1183 H1173 0.929 . S
C1183 C1181 1.433 . S
C1183 N1186 1.384 . S
C1184 H1175 0.929 . S
C1184 C1176 1.378 . S
C1184 C1179 1.350 . S
C1185 H1172 0.929 . S
C1185 C1177 1.433 . S
C1185 N1187 1.384 . S
N1186 C1182 1.427 . S
N1186 C1183 1.384 . S
N1187 C1179 1.427 . S
N1187 C1185 1.384 . S
H1188 C1194 0.930 . S
H1189 C1198 0.930 . S
H1190 C1203 0.929 . S
H1191 C1201 0.929 . S
H1192 C1196 0.929 . S
H1193 C1202 0.929 . S
C1194 H1188 0.930 . S
C1194 C1195 1.367 . S
C1194 C1202 1.378 . S
C1195 C1194 1.367 . S
C1195 C1203 1.433 . S
C1196 H1192 0.929 . S
C1196 C1198 1.378 . S
C1196 C1200 1.350 . S
C1197 C1200 1.463 1_545 S
C1197 C1202 1.350 . S
C1197 N1205 1.427 . S
C1198 H1189 0.930 . S
C1198 C1196 1.378 . S
C1198 C1199 1.367 . S
C1199 C1198 1.367 . S
C1199 C1201 1.433 . S
C1200 C1196 1.350 . S
C1200 C1197 1.463 1_565 S
C1200 N1204 1.427 . S
C1201 H1191 0.929 . S
C1201 C1199 1.433 . S
C1201 N1204 1.384 . S
C1202 H1193 0.929 . S
C1202 C1194 1.378 . S
C1202 C1197 1.350 . S
C1203 H1190 0.929 . S
C1203 C1195 1.433 . S
C1203 N1205 1.384 . S
N1204 C1200 1.427 . S
N1204 C1201 1.384 . S
N1205 C1197 1.427 . S
N1205 C1203 1.384 . S
H1206 C1212 0.930 . S
H1207 C1216 0.930 . S
H1208 C1221 0.929 . S
H1209 C1219 0.929 . S
H1210 C1214 0.929 . S
H1211 C1220 0.929 . S
C1212 H1206 0.930 . S
C1212 C1213 1.367 . S
C1212 C1220 1.378 . S
C1213 C1212 1.367 . S
C1213 C1221 1.433 . S
C1214 H1210 0.929 . S
C1214 C1216 1.378 . S
C1214 C1218 1.350 . S
C1215 C1218 1.463 . S
C1215 C1220 1.350 . S
C1215 N1223 1.427 . S
C1216 H1207 0.930 . S
C1216 C1214 1.378 . S
C1216 C1217 1.367 . S
C1217 C1216 1.367 . S
C1217 C1219 1.433 . S
C1218 C1214 1.350 . S
C1218 C1215 1.463 . S
C1218 N1222 1.427 . S
C1219 H1209 0.929 . S
C1219 C1217 1.433 . S
C1219 N1222 1.384 . S
C1220 H1211 0.929 . S
C1220 C1212 1.378 . S
C1220 C1215 1.350 . S
C1221 H1208 0.929 . S
C1221 C1213 1.433 . S
C1221 N1223 1.384 . S
N1222 C1218 1.427 . S
N1222 C1219 1.384 . S
N1223 C1215 1.427 . S
N1223 C1221 1.384 . S
H1224 C1230 0.930 . S
H1225 C1234 0.930 . S
H1226 C1239 0.929 . S
H1227 C1237 0.929 . S
H1228 C1232 0.929 . S
H1229 C1238 0.929 . S
C1230 H1224 0.930 . S
C1230 C1231 1.367 . S
C1230 C1238 1.378 . S
C1231 C1230 1.367 . S
C1231 C1239 1.433 . S
C1232 H1228 0.929 . S
C1232 C1234 1.378 . S
C1232 C1236 1.350 . S
C1233 C1236 1.463 . S
C1233 C1238 1.350 . S
C1233 N1241 1.427 . S
C1234 H1225 0.930 . S
C1234 C1232 1.378 . S
C1234 C1235 1.367 . S
C1235 C1234 1.367 . S
C1235 C1237 1.433 . S
C1236 C1232 1.350 . S
C1236 C1233 1.463 . S
C1236 N1240 1.427 . S
C1237 H1227 0.929 . S
C1237 C1235 1.433 . S
C1237 N1240 1.384 . S
C1238 H1229 0.929 . S
C1238 C1230 1.378 . S
C1238 C1233 1.350 . S
C1239 H1226 0.929 . S
C1239 C1231 1.433 . S
C1239 N1241 1.384 . S
N1240 C1236 1.427 . S
N1240 C1237 1.384 . S
N1241 C1233 1.427 . S
N1241 C1239 1.384 . S
H1242 C1248 0.930 . S
H1243 C1252 0.930 . S
H1244 C1257 0.929 . S
H1245 C1255 0.929 . S
H1246 C1250 0.929 . S
H1247 C1256 0.929 . S
C1248 H1242 0.930 . S
C1248 C1249 1.367 . S
C1248 C1256 1.378 . S
C1249 C1248 1.367 . S
C1249 C1257 1.433 . S
C1250 H1246 0.929 . S
C1250 C1252 1.378 . S
C1250 C1254 1.350 . S
C1251 C1254 1.463 . S
C1251 C1256 1.350 . S
C1251 N1259 1.427 . S
C1252 H1243 0.930 . S
C1252 C1250 1.378 . S
C1252 C1253 1.367 . S
C1253 C1252 1.367 . S
C1253 C1255 1.433 . S
C1254 C1250 1.350 . S
C1254 C1251 1.463 . S
C1254 N1258 1.427 . S
C1255 H1245 0.929 . S
C1255 C1253 1.433 . S
C1255 N1258 1.384 . S
C1256 H1247 0.929 . S
C1256 C1248 1.378 . S
C1256 C1251 1.350 . S
C1257 H1244 0.929 . S
C1257 C1249 1.433 . S
C1257 N1259 1.384 . S
N1258 C1254 1.427 . S
N1258 C1255 1.384 . S
N1259 C1251 1.427 . S
N1259 C1257 1.384 . S
H1260 C1266 0.930 . S
H1261 C1270 0.930 . S
H1262 C1275 0.929 . S
H1263 C1273 0.929 . S
H1264 C1268 0.929 . S
H1265 C1274 0.929 . S
C1266 H1260 0.930 . S
C1266 C1267 1.367 . S
C1266 C1274 1.378 . S
C1267 C1266 1.367 . S
C1267 C1275 1.433 . S
C1268 H1264 0.929 . S
C1268 C1270 1.378 . S
C1268 C1272 1.350 . S
C1269 C1272 1.463 . S
C1269 C1274 1.350 . S
C1269 N1277 1.427 . S
C1270 H1261 0.930 . S
C1270 C1268 1.378 . S
C1270 C1271 1.367 . S
C1271 C1270 1.367 . S
C1271 C1273 1.433 . S
C1272 C1268 1.350 . S
C1272 C1269 1.463 . S
C1272 N1276 1.427 . S
C1273 H1263 0.929 . S
C1273 C1271 1.433 . S
C1273 N1276 1.384 . S
C1274 H1265 0.929 . S
C1274 C1266 1.378 . S
C1274 C1269 1.350 . S
C1275 H1262 0.929 . S
C1275 C1267 1.433 . S
C1275 N1277 1.384 . S
N1276 C1272 1.427 . S
N1276 C1273 1.384 . S
N1277 C1269 1.427 . S
N1277 C1275 1.384 . S
H1278 C1284 0.930 . S
H1279 C1288 0.930 . S
H1280 C1293 0.929 . S
H1281 C1291 0.929 . S
H1282 C1286 0.929 . S
H1283 C1292 0.929 . S
C1284 H1278 0.930 . S
C1284 C1285 1.367 . S
C1284 C1292 1.378 . S
C1285 C1284 1.367 . S
C1285 C1293 1.433 . S
C1286 H1282 0.929 . S
C1286 C1288 1.378 . S
C1286 C1290 1.350 . S
C1287 C1290 1.463 . S
C1287 C1292 1.350 . S
C1287 N1295 1.427 . S
C1288 H1279 0.930 . S
C1288 C1286 1.378 . S
C1288 C1289 1.367 . S
C1289 C1288 1.367 . S
C1289 C1291 1.433 . S
C1290 C1286 1.350 . S
C1290 C1287 1.463 . S
C1290 N1294 1.427 . S
C1291 H1281 0.929 . S
C1291 C1289 1.433 . S
C1291 N1294 1.384 . S
C1292 H1283 0.929 . S
C1292 C1284 1.378 . S
C1292 C1287 1.350 . S
C1293 H1280 0.929 . S
C1293 C1285 1.433 . S
C1293 N1295 1.384 . S
N1294 C1290 1.427 . S
N1294 C1291 1.384 . S
N1295 C1287 1.427 . S
N1295 C1293 1.384 . S
H1296 C1302 0.930 . S
H1297 C1306 0.930 . S
H1298 C1311 0.929 . S
H1299 C1309 0.929 . S
H1300 C1304 0.929 . S
H1301 C1310 0.929 . S
C1302 H1296 0.930 . S
C1302 C1303 1.367 . S
C1302 C1310 1.378 . S
C1303 C1302 1.367 . S
C1303 C1311 1.433 . S
C1304 H1300 0.929 . S
C1304 C1306 1.378 . S
C1304 C1308 1.350 . S
C1305 C1308 1.463 . S
C1305 C1310 1.350 . S
C1305 N1313 1.427 . S
C1306 H1297 0.930 . S
C1306 C1304 1.378 . S
C1306 C1307 1.367 . S
C1307 C1306 1.367 . S
C1307 C1309 1.433 . S
C1308 C1304 1.350 . S
C1308 C1305 1.463 . S
C1308 N1312 1.427 . S
C1309 H1299 0.929 . S
C1309 C1307 1.433 . S
C1309 N1312 1.384 . S
C1310 H1301 0.929 . S
C1310 C1302 1.378 . S
C1310 C1305 1.350 . S
C1311 H1298 0.929 . S
C1311 C1303 1.433 . S
C1311 N1313 1.384 . S
N1312 C1308 1.427 . S
N1312 C1309 1.384 . S
N1313 C1305 1.427 . S
N1313 C1311 1.384 . S
H1314 C1320 0.930 . S
H1315 C1324 0.930 . S
H1316 C1329 0.929 . S
H1317 C1327 0.929 . S
H1318 C1322 0.929 . S
H1319 C1328 0.929 . S
C1320 H1314 0.930 . S
C1320 C1321 1.367 . S
C1320 C1328 1.378 . S
C1321 C1320 1.367 . S
C1321 C1329 1.433 . S
C1322 H1318 0.929 . S
C1322 C1324 1.378 . S
C1322 C1326 1.350 . S
C1323 C1326 1.463 . S
C1323 C1328 1.350 . S
C1323 N1331 1.427 . S
C1324 H1315 0.930 . S
C1324 C1322 1.378 . S
C1324 C1325 1.367 . S
C1325 C1324 1.367 . S
C1325 C1327 1.433 . S
C1326 C1322 1.350 . S
C1326 C1323 1.463 . S
C1326 N1330 1.427 . S
C1327 H1317 0.929 . S
C1327 C1325 1.433 . S
C1327 N1330 1.384 . S
C1328 H1319 0.929 . S
C1328 C1320 1.378 . S
C1328 C1323 1.350 . S
C1329 H1316 0.929 . S
C1329 C1321 1.433 . S
C1329 N1331 1.384 . S
N1330 C1326 1.427 . S
N1330 C1327 1.384 . S
N1331 C1323 1.427 . S
N1331 C1329 1.384 . S
H1332 C1338 0.930 . S
H1333 C1342 0.930 . S
H1334 C1347 0.929 . S
H1335 C1345 0.929 . S
H1336 C1340 0.929 . S
H1337 C1346 0.929 . S
C1338 H1332 0.930 . S
C1338 C1339 1.367 . S
C1338 C1346 1.378 . S
C1339 C1338 1.367 . S
C1339 C1347 1.433 . S
C1340 H1336 0.929 . S
C1340 C1342 1.378 . S
C1340 C1344 1.350 . S
C1341 C1344 1.463 . S
C1341 C1346 1.350 . S
C1341 N1349 1.427 . S
C1342 H1333 0.930 . S
C1342 C1340 1.378 . S
C1342 C1343 1.367 . S
C1343 C1342 1.367 . S
C1343 C1345 1.433 . S
C1344 C1340 1.350 . S
C1344 C1341 1.463 . S
C1344 N1348 1.427 . S
C1345 H1335 0.929 . S
C1345 C1343 1.433 . S
C1345 N1348 1.384 . S
C1346 H1337 0.929 . S
C1346 C1338 1.378 . S
C1346 C1341 1.350 . S
C1347 H1334 0.929 . S
C1347 C1339 1.433 . S
C1347 N1349 1.384 . S
N1348 C1344 1.427 . S
N1348 C1345 1.384 . S
N1349 C1341 1.427 . S
N1349 C1347 1.384 . S
H1350 C1356 0.930 . S
H1351 C1360 0.930 . S
H1352 C1365 0.929 . S
H1353 C1363 0.929 . S
H1354 C1358 0.929 . S
H1355 C1364 0.929 . S
C1356 H1350 0.930 . S
C1356 C1357 1.367 . S
C1356 C1364 1.378 . S
C1357 C1356 1.367 . S
C1357 C1365 1.433 . S
C1358 H1354 0.929 . S
C1358 C1360 1.378 . S
C1358 C1362 1.350 . S
C1359 C1362 1.463 . S
C1359 C1364 1.350 . S
C1359 N1367 1.427 . S
C1360 H1351 0.930 . S
C1360 C1358 1.378 . S
C1360 C1361 1.367 . S
C1361 C1360 1.367 . S
C1361 C1363 1.433 . S
C1362 C1358 1.350 . S
C1362 C1359 1.463 . S
C1362 N1366 1.427 . S
C1363 H1353 0.929 . S
C1363 C1361 1.433 . S
C1363 N1366 1.384 . S
C1364 H1355 0.929 . S
C1364 C1356 1.378 . S
C1364 C1359 1.350 . S
C1365 H1352 0.929 . S
C1365 C1357 1.433 . S
C1365 N1367 1.384 . S
N1366 C1362 1.427 . S
N1366 C1363 1.384 . S
N1367 C1359 1.427 . S
N1367 C1365 1.384 . S
H1368 C1374 0.930 . S
H1369 C1378 0.930 . S
H1370 C1383 0.929 . S
H1371 C1381 0.929 . S
H1372 C1376 0.929 . S
H1373 C1382 0.929 . S
C1374 H1368 0.930 . S
C1374 C1375 1.367 . S
C1374 C1382 1.378 . S
C1375 C1374 1.367 . S
C1375 C1383 1.433 . S
C1376 H1372 0.929 . S
C1376 C1378 1.378 . S
C1376 C1380 1.350 . S
C1377 C1380 1.463 . S
C1377 C1382 1.350 . S
C1377 N1385 1.427 . S
C1378 H1369 0.930 . S
C1378 C1376 1.378 . S
C1378 C1379 1.367 . S
C1379 C1378 1.367 . S
C1379 C1381 1.433 . S
C1380 C1376 1.350 . S
C1380 C1377 1.463 . S
C1380 N1384 1.427 . S
C1381 H1371 0.929 . S
C1381 C1379 1.433 . S
C1381 N1384 1.384 . S
C1382 H1373 0.929 . S
C1382 C1374 1.378 . S
C1382 C1377 1.350 . S
C1383 H1370 0.929 . S
C1383 C1375 1.433 . S
C1383 N1385 1.384 . S
N1384 C1380 1.427 . S
N1384 C1381 1.384 . S
N1385 C1377 1.427 . S
N1385 C1383 1.384 . S
H1386 C1392 0.930 . S
H1387 C1396 0.930 . S
H1388 C1401 0.929 . S
H1389 C1399 0.929 . S
H1390 C1394 0.929 . S
H1391 C1400 0.929 . S
C1392 H1386 0.930 . S
C1392 C1393 1.367 . S
C1392 C1400 1.378 . S
C1393 C1392 1.367 . S
C1393 C1401 1.433 . S
C1394 H1390 0.929 . S
C1394 C1396 1.378 . S
C1394 C1398 1.350 . S
C1395 C1398 1.463 . S
C1395 C1400 1.350 . S
C1395 N1403 1.427 . S
C1396 H1387 0.930 . S
C1396 C1394 1.378 . S
C1396 C1397 1.367 . S
C1397 C1396 1.367 . S
C1397 C1399 1.433 . S
C1398 C1394 1.350 . S
C1398 C1395 1.463 . S
C1398 N1402 1.427 . S
C1399 H1389 0.929 . S
C1399 C1397 1.433 . S
C1399 N1402 1.384 . S
C1400 H1391 0.929 . S
C1400 C1392 1.378 . S
C1400 C1395 1.350 . S
C1401 H1388 0.929 . S
C1401 C1393 1.433 . S
C1401 N1403 1.384 . S
N1402 C1398 1.427 . S
N1402 C1399 1.384 . S
N1403 C1395 1.427 . S
N1403 C1401 1.384 . S
H1404 C1410 0.930 . S
H1405 C1414 0.930 . S
H1406 C1419 0.929 . S
H1407 C1417 0.929 . S
H1408 C1412 0.929 . S
H1409 C1418 0.929 . S
C1410 H1404 0.930 . S
C1410 C1411 1.367 . S
C1410 C1418 1.378 . S
C1411 C1410 1.367 . S
C1411 C1419 1.433 . S
C1412 H1408 0.929 . S
C1412 C1414 1.378 . S
C1412 C1416 1.350 . S
C1413 C1416 1.463 . S
C1413 C1418 1.350 . S
C1413 N1421 1.427 . S
C1414 H1405 0.930 . S
C1414 C1412 1.378 . S
C1414 C1415 1.367 . S
C1415 C1414 1.367 . S
C1415 C1417 1.433 . S
C1416 C1412 1.350 . S
C1416 C1413 1.463 . S
C1416 N1420 1.427 . S
C1417 H1407 0.929 . S
C1417 C1415 1.433 . S
C1417 N1420 1.384 . S
C1418 H1409 0.929 . S
C1418 C1410 1.378 . S
C1418 C1413 1.350 . S
C1419 H1406 0.929 . S
C1419 C1411 1.433 . S
C1419 N1421 1.384 . S
N1420 C1416 1.427 . S
N1420 C1417 1.384 . S
N1421 C1413 1.427 . S
N1421 C1419 1.384 . S
H1422 C1428 0.930 . S
H1423 C1432 0.930 . S
H1424 C1437 0.929 . S
H1425 C1435 0.929 . S
H1426 C1430 0.929 . S
H1427 C1436 0.929 . S
C1428 H1422 0.930 . S
C1428 C1429 1.367 . S
C1428 C1436 1.378 . S
C1429 C1428 1.367 . S
C1429 C1437 1.433 . S
C1430 H1426 0.929 . S
C1430 C1432 1.378 . S
C1430 C1434 1.350 . S
C1431 C1434 1.463 . S
C1431 C1436 1.350 . S
C1431 N1439 1.427 . S
C1432 H1423 0.930 . S
C1432 C1430 1.378 . S
C1432 C1433 1.367 . S
C1433 C1432 1.367 . S
C1433 C1435 1.433 . S
C1434 C1430 1.350 . S
C1434 C1431 1.463 . S
C1434 N1438 1.427 . S
C1435 H1425 0.929 . S
C1435 C1433 1.433 . S
C1435 N1438 1.384 . S
C1436 H1427 0.929 . S
C1436 C1428 1.378 . S
C1436 C1431 1.350 . S
C1437 H1424 0.929 . S
C1437 C1429 1.433 . S
C1437 N1439 1.384 . S
N1438 C1434 1.427 . S
N1438 C1435 1.384 . S
N1439 C1431 1.427 . S
N1439 C1437 1.384 . S
H1440 C1446 0.930 . S
H1441 C1450 0.930 . S
H1442 C1455 0.929 . S
H1443 C1453 0.929 . S
H1444 C1448 0.929 . S
H1445 C1454 0.929 . S
C1446 H1440 0.930 . S
C1446 C1447 1.367 . S
C1446 C1454 1.378 . S
C1447 C1446 1.367 . S
C1447 C1455 1.433 . S
C1448 H1444 0.929 . S
C1448 C1450 1.378 . S
C1448 C1452 1.350 . S
C1449 C1452 1.463 . S
C1449 C1454 1.350 . S
C1449 N1457 1.427 . S
C1450 H1441 0.930 . S
C1450 C1448 1.378 . S
C1450 C1451 1.367 . S
C1451 C1450 1.367 . S
C1451 C1453 1.433 . S
C1452 C1448 1.350 . S
C1452 C1449 1.463 . S
C1452 N1456 1.427 . S
C1453 H1443 0.929 . S
C1453 C1451 1.433 . S
C1453 N1456 1.384 . S
C1454 H1445 0.929 . S
C1454 C1446 1.378 . S
C1454 C1449 1.350 . S
C1455 H1442 0.929 . S
C1455 C1447 1.433 . S
C1455 N1457 1.384 . S
N1456 C1452 1.427 . S
N1456 C1453 1.384 . S
N1457 C1449 1.427 . S
N1457 C1455 1.384 . S
H1458 C1464 0.930 . S
H1459 C1468 0.930 . S
H1460 C1473 0.929 . S
H1461 C1471 0.929 . S
H1462 C1466 0.929 . S
H1463 C1472 0.929 . S
C1464 H1458 0.930 . S
C1464 C1465 1.367 . S
C1464 C1472 1.378 . S
C1465 C1464 1.367 . S
C1465 C1473 1.433 . S
C1466 H1462 0.929 . S
C1466 C1468 1.378 . S
C1466 C1470 1.350 . S
C1467 C1470 1.463 . S
C1467 C1472 1.350 . S
C1467 N1475 1.427 . S
C1468 H1459 0.930 . S
C1468 C1466 1.378 . S
C1468 C1469 1.367 . S
C1469 C1468 1.367 . S
C1469 C1471 1.433 . S
C1470 C1466 1.350 . S
C1470 C1467 1.463 . S
C1470 N1474 1.427 . S
C1471 H1461 0.929 . S
C1471 C1469 1.433 . S
C1471 N1474 1.384 . S
C1472 H1463 0.929 . S
C1472 C1464 1.378 . S
C1472 C1467 1.350 . S
C1473 H1460 0.929 . S
C1473 C1465 1.433 . S
C1473 N1475 1.384 . S
N1474 C1470 1.427 . S
N1474 C1471 1.384 . S
N1475 C1467 1.427 . S
N1475 C1473 1.384 . S
H1476 C1482 0.930 . S
H1477 C1486 0.930 . S
H1478 C1491 0.929 . S
H1479 C1489 0.929 . S
H1480 C1484 0.929 . S
H1481 C1490 0.929 . S
C1482 H1476 0.930 . S
C1482 C1483 1.367 . S
C1482 C1490 1.378 . S
C1483 C1482 1.367 . S
C1483 C1491 1.433 . S
C1484 H1480 0.929 . S
C1484 C1486 1.378 . S
C1484 C1488 1.350 . S
C1485 C1488 1.463 . S
C1485 C1490 1.350 . S
C1485 N1493 1.427 . S
C1486 H1477 0.930 . S
C1486 C1484 1.378 . S
C1486 C1487 1.367 . S
C1487 C1486 1.367 . S
C1487 C1489 1.433 . S
C1488 C1484 1.350 . S
C1488 C1485 1.463 . S
C1488 N1492 1.427 . S
C1489 H1479 0.929 . S
C1489 C1487 1.433 . S
C1489 N1492 1.384 . S
C1490 H1481 0.929 . S
C1490 C1482 1.378 . S
C1490 C1485 1.350 . S
C1491 H1478 0.929 . S
C1491 C1483 1.433 . S
C1491 N1493 1.384 . S
N1492 C1488 1.427 . S
N1492 C1489 1.384 . S
N1493 C1485 1.427 . S
N1493 C1491 1.384 . S
H1494 C1500 0.930 . S
H1495 C1504 0.930 . S
H1496 C1509 0.929 . S
H1497 C1507 0.929 . S
H1498 C1502 0.929 . S
H1499 C1508 0.929 . S
C1500 H1494 0.930 . S
C1500 C1501 1.367 . S
C1500 C1508 1.378 . S
C1501 C1500 1.367 . S
C1501 C1509 1.433 . S
C1502 H1498 0.929 . S
C1502 C1504 1.378 . S
C1502 C1506 1.350 . S
C1503 C1506 1.463 . S
C1503 C1508 1.350 . S
C1503 N1511 1.427 . S
C1504 H1495 0.930 . S
C1504 C1502 1.378 . S
C1504 C1505 1.367 . S
C1505 C1504 1.367 . S
C1505 C1507 1.433 . S
C1506 C1502 1.350 . S
C1506 C1503 1.463 . S
C1506 N1510 1.427 . S
C1507 H1497 0.929 . S
C1507 C1505 1.433 . S
C1507 N1510 1.384 . S
C1508 H1499 0.929 . S
C1508 C1500 1.378 . S
C1508 C1503 1.350 . S
C1509 H1496 0.929 . S
C1509 C1501 1.433 . S
C1509 N1511 1.384 . S
N1510 C1506 1.427 . S
N1510 C1507 1.384 . S
N1511 C1503 1.427 . S
N1511 C1509 1.384 . S
H1512 C1518 0.930 . S
H1513 C1522 0.930 . S
H1514 C1527 0.929 . S
H1515 C1525 0.929 . S
H1516 C1520 0.929 . S
H1517 C1526 0.929 . S
C1518 H1512 0.930 . S
C1518 C1519 1.367 . S
C1518 C1526 1.378 . S
C1519 C1518 1.367 . S
C1519 C1527 1.433 . S
C1520 H1516 0.929 . S
C1520 C1522 1.378 . S
C1520 C1524 1.350 . S
C1521 C1524 1.463 . S
C1521 C1526 1.350 . S
C1521 N1529 1.427 . S
C1522 H1513 0.930 . S
C1522 C1520 1.378 . S
C1522 C1523 1.367 . S
C1523 C1522 1.367 . S
C1523 C1525 1.433 . S
C1524 C1520 1.350 . S
C1524 C1521 1.463 . S
C1524 N1528 1.427 . S
C1525 H1515 0.929 . S
C1525 C1523 1.433 . S
C1525 N1528 1.384 . S
C1526 H1517 0.929 . S
C1526 C1518 1.378 . S
C1526 C1521 1.350 . S
C1527 H1514 0.929 . S
C1527 C1519 1.433 . S
C1527 N1529 1.384 . S
N1528 C1524 1.427 . S
N1528 C1525 1.384 . S
N1529 C1521 1.427 . S
N1529 C1527 1.384 . S
H1530 C1536 0.930 . S
H1531 C1540 0.930 . S
H1532 C1545 0.929 . S
H1533 C1543 0.929 . S
H1534 C1538 0.929 . S
H1535 C1544 0.929 . S
C1536 H1530 0.930 . S
C1536 C1537 1.367 . S
C1536 C1544 1.378 . S
C1537 C1536 1.367 . S
C1537 C1545 1.433 . S
C1538 H1534 0.929 . S
C1538 C1540 1.378 . S
C1538 C1542 1.350 . S
C1539 C1542 1.463 . S
C1539 C1544 1.350 . S
C1539 N1547 1.427 . S
C1540 H1531 0.930 . S
C1540 C1538 1.378 . S
C1540 C1541 1.367 . S
C1541 C1540 1.367 . S
C1541 C1543 1.433 . S
C1542 C1538 1.350 . S
C1542 C1539 1.463 . S
C1542 N1546 1.427 . S
C1543 H1533 0.929 . S
C1543 C1541 1.433 . S
C1543 N1546 1.384 . S
C1544 H1535 0.929 . S
C1544 C1536 1.378 . S
C1544 C1539 1.350 . S
C1545 H1532 0.929 . S
C1545 C1537 1.433 . S
C1545 N1547 1.384 . S
N1546 C1542 1.427 . S
N1546 C1543 1.384 . S
N1547 C1539 1.427 . S
N1547 C1545 1.384 . S
H1548 C1554 0.930 . S
H1549 C1558 0.930 . S
H1550 C1563 0.929 . S
H1551 C1561 0.929 . S
H1552 C1556 0.929 . S
H1553 C1562 0.929 . S
C1554 H1548 0.930 . S
C1554 C1555 1.367 . S
C1554 C1562 1.378 . S
C1555 C1554 1.367 . S
C1555 C1563 1.433 . S
C1556 H1552 0.929 . S
C1556 C1558 1.378 . S
C1556 C1560 1.350 . S
C1557 C1560 1.463 1_556 S
C1557 C1562 1.350 . S
C1557 N1565 1.427 . S
C1558 H1549 0.930 . S
C1558 C1556 1.378 . S
C1558 C1559 1.367 . S
C1559 C1558 1.367 . S
C1559 C1561 1.433 . S
C1560 C1556 1.350 . S
C1560 C1557 1.463 1_554 S
C1560 N1564 1.427 . S
C1561 H1551 0.929 . S
C1561 C1559 1.433 . S
C1561 N1564 1.384 . S
C1562 H1553 0.929 . S
C1562 C1554 1.378 . S
C1562 C1557 1.350 . S
C1563 H1550 0.929 . S
C1563 C1555 1.433 . S
C1563 N1565 1.384 . S
N1564 C1560 1.427 . S
N1564 C1561 1.384 . S
N1565 C1557 1.427 . S
N1565 C1563 1.384 . S
H1566 C1572 0.930 . S
H1567 C1576 0.930 . S
H1568 C1581 0.929 . S
H1569 C1579 0.929 . S
H1570 C1574 0.929 . S
H1571 C1580 0.929 . S
C1572 H1566 0.930 . S
C1572 C1573 1.367 . S
C1572 C1580 1.378 . S
C1573 C1572 1.367 . S
C1573 C1581 1.433 . S
C1574 H1570 0.929 . S
C1574 C1576 1.378 . S
C1574 C1578 1.350 . S
C1575 C1578 1.463 1_455 S
C1575 C1580 1.350 . S
C1575 N1583 1.427 . S
C1576 H1567 0.930 . S
C1576 C1574 1.378 . S
C1576 C1577 1.367 . S
C1577 C1576 1.367 . S
C1577 C1579 1.433 . S
C1578 C1574 1.350 . S
C1578 C1575 1.463 1_655 S
C1578 N1582 1.427 . S
C1579 H1569 0.929 . S
C1579 C1577 1.433 . S
C1579 N1582 1.384 . S
C1580 H1571 0.929 . S
C1580 C1572 1.378 . S
C1580 C1575 1.350 . S
C1581 H1568 0.929 . S
C1581 C1573 1.433 . S
C1581 N1583 1.384 . S
N1582 C1578 1.427 . S
N1582 C1579 1.384 . S
N1583 C1575 1.427 . S
N1583 C1581 1.384 . S
H1584 C1590 0.930 . S
H1585 C1594 0.930 . S
H1586 C1599 0.929 . S
H1587 C1597 0.929 . S
H1588 C1592 0.929 1_554 S
H1589 C1598 0.929 1_556 S
C1590 H1584 0.930 . S
C1590 C1591 1.367 . S
C1590 C1598 1.378 . S
C1591 C1590 1.367 . S
C1591 C1599 1.433 . S
C1592 H1588 0.929 1_556 S
C1592 C1594 1.378 . S
C1592 C1596 1.350 . S
C1593 C1596 1.463 1_564 S
C1593 C1598 1.350 . S
C1593 N1601 1.427 . S
C1594 H1585 0.930 . S
C1594 C1592 1.378 . S
C1594 C1595 1.367 . S
C1595 C1594 1.367 . S
C1595 C1597 1.433 . S
C1596 C1592 1.350 . S
C1596 C1593 1.463 1_546 S
C1596 N1600 1.427 . S
C1597 H1587 0.929 . S
C1597 C1595 1.433 . S
C1597 N1600 1.384 . S
C1598 H1589 0.929 1_554 S
C1598 C1590 1.378 . S
C1598 C1593 1.350 . S
C1599 H1586 0.929 . S
C1599 C1591 1.433 . S
C1599 N1601 1.384 . S
N1600 C1596 1.427 . S
N1600 C1597 1.384 . S
N1601 C1593 1.427 . S
N1601 C1599 1.384 . S
H1602 C1608 0.930 . S
H1603 C1612 0.930 . S
H1604 C1617 0.929 . S
H1605 C1615 0.929 . S
H1606 C1610 0.929 . S
H1607 C1616 0.929 . S
C1608 H1602 0.930 . S
C1608 C1609 1.367 . S
C1608 C1616 1.378 . S
C1609 C1608 1.367 . S
C1609 C1617 1.433 . S
C1610 H1606 0.929 . S
C1610 C1612 1.378 . S
C1610 C1614 1.350 . S
C1611 C1614 1.463 . S
C1611 C1616 1.350 . S
C1611 N1619 1.427 . S
C1612 H1603 0.930 . S
C1612 C1610 1.378 . S
C1612 C1613 1.367 . S
C1613 C1612 1.367 . S
C1613 C1615 1.433 . S
C1614 C1610 1.350 . S
C1614 C1611 1.463 . S
C1614 N1618 1.427 . S
C1615 H1605 0.929 . S
C1615 C1613 1.433 . S
C1615 N1618 1.384 . S
C1616 H1607 0.929 . S
C1616 C1608 1.378 . S
C1616 C1611 1.350 . S
C1617 H1604 0.929 . S
C1617 C1609 1.433 . S
C1617 N1619 1.384 . S
N1618 C1614 1.427 . S
N1618 C1615 1.384 . S
N1619 C1611 1.427 . S
N1619 C1617 1.384 . S
H1620 C1626 0.930 . S
H1621 C1630 0.930 . S
H1622 C1635 0.929 . S
H1623 C1633 0.929 . S
H1624 C1628 0.929 . S
H1625 C1634 0.929 . S
C1626 H1620 0.930 . S
C1626 C1627 1.367 . S
C1626 C1634 1.378 . S
C1627 C1626 1.367 . S
C1627 C1635 1.433 . S
C1628 H1624 0.929 . S
C1628 C1630 1.378 . S
C1628 C1632 1.350 . S
C1629 C1632 1.463 1_656 S
C1629 C1634 1.350 . S
C1629 N1637 1.427 . S
C1630 H1621 0.930 . S
C1630 C1628 1.378 . S
C1630 C1631 1.367 . S
C1631 C1630 1.367 . S
C1631 C1633 1.433 . S
C1632 C1628 1.350 . S
C1632 C1629 1.463 1_454 S
C1632 N1636 1.427 . S
C1633 H1623 0.929 . S
C1633 C1631 1.433 . S
C1633 N1636 1.384 . S
C1634 H1625 0.929 . S
C1634 C1626 1.378 . S
C1634 C1629 1.350 . S
C1635 H1622 0.929 . S
C1635 C1627 1.433 . S
C1635 N1637 1.384 . S
N1636 C1632 1.427 . S
N1636 C1633 1.384 . S
N1637 C1629 1.427 . S
N1637 C1635 1.384 . S
H1638 C1644 0.930 . S
H1639 C1648 0.930 . S
H1640 C1653 0.929 . S
H1641 C1651 0.929 . S
H1642 C1646 0.929 1_565 S
H1643 C1652 0.929 1_545 S
C1644 H1638 0.930 . S
C1644 C1645 1.367 . S
C1644 C1652 1.378 . S
C1645 C1644 1.367 . S
C1645 C1653 1.433 . S
C1646 H1642 0.929 1_545 S
C1646 C1648 1.378 . S
C1646 C1650 1.350 . S
C1647 C1650 1.463 1_565 S
C1647 C1652 1.350 . S
C1647 N1655 1.427 . S
C1648 H1639 0.930 . S
C1648 C1646 1.378 . S
C1648 C1649 1.367 . S
C1649 C1648 1.367 . S
C1649 C1651 1.433 . S
C1650 C1646 1.350 . S
C1650 C1647 1.463 1_545 S
C1650 N1654 1.427 . S
C1651 H1641 0.929 . S
C1651 C1649 1.433 . S
C1651 N1654 1.384 . S
C1652 H1643 0.929 1_565 S
C1652 C1644 1.378 . S
C1652 C1647 1.350 . S
C1653 H1640 0.929 . S
C1653 C1645 1.433 . S
C1653 N1655 1.384 . S
N1654 C1650 1.427 . S
N1654 C1651 1.384 . S
N1655 C1647 1.427 . S
N1655 C1653 1.384 . S
C1015 C403 1.364 . S
C1019 C58 1.217 . S
C1033 C487 1.359 . S
C1037 C142 1.194 . S
C1051 C226 1.219 . S
C1055 C67 1.365 . S
C1069 C310 1.190 . S
C1073 C151 1.359 . S
C1087 C394 1.190 . S
C1091 C235 1.359 . S
C1105 C319 1.365 . S
C1109 C478 1.218 . S
C1123 C739 1.360 . S
C1127 C562 1.193 . S
C1141 C646 1.217 . S
C1145 C823 1.364 . S
C1159 C907 1.359 . S
C1163 C730 1.190 . S
C1177 C814 1.190 . S
C1181 C991 1.359 . S
C1195 C898 1.197 . S
C1199 C571 1.362 . S
C1213 C655 1.361 . S
C1217 C982 1.195 . S
C1231 C392 1.438 . S
C1235 C69 1.282 . S
C1249 C153 1.282 . S
C1253 C476 1.431 . S
C1267 C237 1.273 . S
C1271 C56 1.432 . S
C1285 C321 1.298 . S
C1289 C140 1.435 . S
C1303 C224 1.435 . S
C1307 C405 1.297 . S
C1321 C308 1.434 . S
C1325 C489 1.274 . S
C1339 C728 1.437 . S
C1343 C573 1.281 . S
C1357 C657 1.273 . S
C1361 C812 1.432 . S
C1375 C741 1.297 . S
C1379 C896 1.439 . S
C1393 C980 1.436 . S
C1397 C825 1.299 . S
C1411 C909 1.297 . S
C1415 C560 1.439 . S
C1429 C644 1.436 . S
C1433 C993 1.298 . S
C1447 C914 1.812 . S
C1451 C74 1.821 . S
C1465 C158 1.813 . S
C1469 C998 1.825 . S
C1483 C242 1.816 . S
C1487 C578 1.813 . S
C1501 C326 1.812 . S
C1505 C662 1.821 . S
C1519 C410 1.825 . S
C1523 C746 1.823 . S
C1537 C830 1.817 . S
C1541 C494 1.827 . S
C1555 C819 1.939 . S
C1559 C63 1.942 . S
C1573 C903 1.945 . S
C1577 C147 1.940 . S
C1591 C231 1.941 . S
C1595 C987 1.946 . S
C1609 C315 1.939 . S
C1613 C567 1.944 . S
C1627 C651 1.944 . S
C1631 C399 1.939 . S
C1645 C735 1.942 . S
C1649 C483 1.939 . S
