# Generated by pormake.
# Topology uoa, (4)-cn, num edge types: 1
# Building blocks:
#     Node 0, Type 0, BuildingBlock: NAWXER_clean_sbu_0, # of connection points: 4
#     Node 1, Type 0, BuildingBlock: NAWXER_clean_sbu_0, # of connection points: 4
#     Node 2, Type 0, BuildingBlock: NAWXER_clean_sbu_0, # of connection points: 4
#     Node 3, Type 0, BuildingBlock: NAWXER_clean_sbu_0, # of connection points: 4
#     Node 4, Type 0, BuildingBlock: NAWXER_clean_sbu_0, # of connection points: 4
#     Node 5, Type 0, BuildingBlock: NAWXER_clean_sbu_0, # of connection points: 4
#     Node 6, Type 0, BuildingBlock: NAWXER_clean_sbu_0, # of connection points: 4
#     Node 7, Type 0, BuildingBlock: NAWXER_clean_sbu_0, # of connection points: 4
#     Node 8, Type 0, BuildingBlock: NAWXER_clean_sbu_0, # of connection points: 4
#     Node 9, Type 0, BuildingBlock: NAWXER_clean_sbu_0, # of connection points: 4
#     Node 10, Type 0, BuildingBlock: NAWXER_clean_sbu_0, # of connection points: 4
#     Node 11, Type 0, BuildingBlock: NAWXER_clean_sbu_0, # of connection points: 4
#     Node 12, Type 0, BuildingBlock: NAWXER_clean_sbu_0, # of connection points: 4
#     Node 13, Type 0, BuildingBlock: NAWXER_clean_sbu_0, # of connection points: 4
#     Node 14, Type 0, BuildingBlock: NAWXER_clean_sbu_0, # of connection points: 4
#     Node 15, Type 0, BuildingBlock: NAWXER_clean_sbu_0, # of connection points: 4
#     Node 16, Type 0, BuildingBlock: NAWXER_clean_sbu_0, # of connection points: 4
#     Node 17, Type 0, BuildingBlock: NAWXER_clean_sbu_0, # of connection points: 4
#     Node 18, Type 0, BuildingBlock: NAWXER_clean_sbu_0, # of connection points: 4
#     Node 19, Type 0, BuildingBlock: NAWXER_clean_sbu_0, # of connection points: 4
#     Node 20, Type 0, BuildingBlock: NAWXER_clean_sbu_0, # of connection points: 4
#     Node 21, Type 0, BuildingBlock: NAWXER_clean_sbu_0, # of connection points: 4
#     Node 22, Type 0, BuildingBlock: NAWXER_clean_sbu_0, # of connection points: 4
#     Node 23, Type 0, BuildingBlock: NAWXER_clean_sbu_0, # of connection points: 4
#     Node 24, Type 0, BuildingBlock: NAWXER_clean_sbu_0, # of connection points: 4
#     Node 25, Type 0, BuildingBlock: NAWXER_clean_sbu_0, # of connection points: 4
#     Node 26, Type 0, BuildingBlock: NAWXER_clean_sbu_0, # of connection points: 4
#     Node 27, Type 0, BuildingBlock: NAWXER_clean_sbu_0, # of connection points: 4
#     Node 28, Type 0, BuildingBlock: NAWXER_clean_sbu_0, # of connection points: 4
#     Node 29, Type 0, BuildingBlock: NAWXER_clean_sbu_0, # of connection points: 4
#     Node 30, Type 0, BuildingBlock: NAWXER_clean_sbu_0, # of connection points: 4
#     Node 31, Type 0, BuildingBlock: NAWXER_clean_sbu_0, # of connection points: 4
#     Edge 32, Type (0, 0), BuildingBlock: XIVTED_clean_linker_0, # of connection points: 2
#     Edge 33, Type (0, 0), BuildingBlock: XIVTED_clean_linker_0, # of connection points: 2
#     Edge 34, Type (0, 0), BuildingBlock: XIVTED_clean_linker_0, # of connection points: 2
#     Edge 35, Type (0, 0), BuildingBlock: XIVTED_clean_linker_0, # of connection points: 2
#     Edge 36, Type (0, 0), BuildingBlock: XIVTED_clean_linker_0, # of connection points: 2
#     Edge 37, Type (0, 0), BuildingBlock: XIVTED_clean_linker_0, # of connection points: 2
#     Edge 38, Type (0, 0), BuildingBlock: XIVTED_clean_linker_0, # of connection points: 2
#     Edge 39, Type (0, 0), BuildingBlock: XIVTED_clean_linker_0, # of connection points: 2
#     Edge 40, Type (0, 0), BuildingBlock: XIVTED_clean_linker_0, # of connection points: 2
#     Edge 41, Type (0, 0), BuildingBlock: XIVTED_clean_linker_0, # of connection points: 2
#     Edge 42, Type (0, 0), BuildingBlock: XIVTED_clean_linker_0, # of connection points: 2
#     Edge 43, Type (0, 0), BuildingBlock: XIVTED_clean_linker_0, # of connection points: 2
#     Edge 44, Type (0, 0), BuildingBlock: XIVTED_clean_linker_0, # of connection points: 2
#     Edge 45, Type (0, 0), BuildingBlock: XIVTED_clean_linker_0, # of connection points: 2
#     Edge 46, Type (0, 0), BuildingBlock: XIVTED_clean_linker_0, # of connection points: 2
#     Edge 47, Type (0, 0), BuildingBlock: XIVTED_clean_linker_0, # of connection points: 2
#     Edge 48, Type (0, 0), BuildingBlock: XIVTED_clean_linker_0, # of connection points: 2
#     Edge 49, Type (0, 0), BuildingBlock: XIVTED_clean_linker_0, # of connection points: 2
#     Edge 50, Type (0, 0), BuildingBlock: XIVTED_clean_linker_0, # of connection points: 2
#     Edge 51, Type (0, 0), BuildingBlock: XIVTED_clean_linker_0, # of connection points: 2
#     Edge 52, Type (0, 0), BuildingBlock: XIVTED_clean_linker_0, # of connection points: 2
#     Edge 53, Type (0, 0), BuildingBlock: XIVTED_clean_linker_0, # of connection points: 2
#     Edge 54, Type (0, 0), BuildingBlock: XIVTED_clean_linker_0, # of connection points: 2
#     Edge 55, Type (0, 0), BuildingBlock: XIVTED_clean_linker_0, # of connection points: 2
#     Edge 56, Type (0, 0), BuildingBlock: XIVTED_clean_linker_0, # of connection points: 2
#     Edge 57, Type (0, 0), BuildingBlock: XIVTED_clean_linker_0, # of connection points: 2
#     Edge 58, Type (0, 0), BuildingBlock: XIVTED_clean_linker_0, # of connection points: 2
#     Edge 59, Type (0, 0), BuildingBlock: XIVTED_clean_linker_0, # of connection points: 2
#     Edge 60, Type (0, 0), BuildingBlock: XIVTED_clean_linker_0, # of connection points: 2
#     Edge 61, Type (0, 0), BuildingBlock: XIVTED_clean_linker_0, # of connection points: 2
#     Edge 62, Type (0, 0), BuildingBlock: XIVTED_clean_linker_0, # of connection points: 2
#     Edge 63, Type (0, 0), BuildingBlock: XIVTED_clean_linker_0, # of connection points: 2
#     Edge 64, Type (0, 0), BuildingBlock: XIVTED_clean_linker_0, # of connection points: 2
#     Edge 65, Type (0, 0), BuildingBlock: XIVTED_clean_linker_0, # of connection points: 2
#     Edge 66, Type (0, 0), BuildingBlock: XIVTED_clean_linker_0, # of connection points: 2
#     Edge 67, Type (0, 0), BuildingBlock: XIVTED_clean_linker_0, # of connection points: 2
#     Edge 68, Type (0, 0), BuildingBlock: XIVTED_clean_linker_0, # of connection points: 2
#     Edge 69, Type (0, 0), BuildingBlock: XIVTED_clean_linker_0, # of connection points: 2
#     Edge 70, Type (0, 0), BuildingBlock: XIVTED_clean_linker_0, # of connection points: 2
#     Edge 71, Type (0, 0), BuildingBlock: XIVTED_clean_linker_0, # of connection points: 2
#     Edge 72, Type (0, 0), BuildingBlock: XIVTED_clean_linker_0, # of connection points: 2
#     Edge 73, Type (0, 0), BuildingBlock: XIVTED_clean_linker_0, # of connection points: 2
#     Edge 74, Type (0, 0), BuildingBlock: XIVTED_clean_linker_0, # of connection points: 2
#     Edge 75, Type (0, 0), BuildingBlock: XIVTED_clean_linker_0, # of connection points: 2
#     Edge 76, Type (0, 0), BuildingBlock: XIVTED_clean_linker_0, # of connection points: 2
#     Edge 77, Type (0, 0), BuildingBlock: XIVTED_clean_linker_0, # of connection points: 2
#     Edge 78, Type (0, 0), BuildingBlock: XIVTED_clean_linker_0, # of connection points: 2
#     Edge 79, Type (0, 0), BuildingBlock: XIVTED_clean_linker_0, # of connection points: 2
#     Edge 80, Type (0, 0), BuildingBlock: XIVTED_clean_linker_0, # of connection points: 2
#     Edge 81, Type (0, 0), BuildingBlock: XIVTED_clean_linker_0, # of connection points: 2
#     Edge 82, Type (0, 0), BuildingBlock: XIVTED_clean_linker_0, # of connection points: 2
#     Edge 83, Type (0, 0), BuildingBlock: XIVTED_clean_linker_0, # of connection points: 2
#     Edge 84, Type (0, 0), BuildingBlock: XIVTED_clean_linker_0, # of connection points: 2
#     Edge 85, Type (0, 0), BuildingBlock: XIVTED_clean_linker_0, # of connection points: 2
#     Edge 86, Type (0, 0), BuildingBlock: XIVTED_clean_linker_0, # of connection points: 2
#     Edge 87, Type (0, 0), BuildingBlock: XIVTED_clean_linker_0, # of connection points: 2
#     Edge 88, Type (0, 0), BuildingBlock: XIVTED_clean_linker_0, # of connection points: 2
#     Edge 89, Type (0, 0), BuildingBlock: XIVTED_clean_linker_0, # of connection points: 2
#     Edge 90, Type (0, 0), BuildingBlock: XIVTED_clean_linker_0, # of connection points: 2
#     Edge 91, Type (0, 0), BuildingBlock: XIVTED_clean_linker_0, # of connection points: 2
#     Edge 92, Type (0, 0), BuildingBlock: XIVTED_clean_linker_0, # of connection points: 2
#     Edge 93, Type (0, 0), BuildingBlock: XIVTED_clean_linker_0, # of connection points: 2
#     Edge 94, Type (0, 0), BuildingBlock: XIVTED_clean_linker_0, # of connection points: 2
#     Edge 95, Type (0, 0), BuildingBlock: XIVTED_clean_linker_0, # of connection points: 2
# Relax obj value: 0.037
# Max RMSD: 0.224
# Mean RMSD: 0.224
data_MOF--net-uoa--node1-NAWXER_clean_sbu_0--edge1-XIVTED_clean_linker_0
_symmetry_space_group_name_H-M    P1
_symmetry_Int_Tables_number       1
_symmetry_cell_setting            triclinic
loop_
_symmetry_equiv_pos_as_xyz
'x, y, z'
_cell_length_a     76.081307
_cell_length_b     75.994116
_cell_length_c     29.477727
_cell_angle_alpha  90.022826
_cell_angle_beta   90.003448
_cell_angle_gamma 89.99796
loop_
_atom_site_label
_atom_site_type_symbol
_atom_site_fract_x
_atom_site_fract_y
_atom_site_fract_z
_atom_type_partial_charge
C0 C 0.00494 0.10208 0.9528 0.0
C1 C 0.00072 0.09648 0.11676 0.0
O2 O 0.01835 0.09407 0.96917 0.0
Zn3 Zn 0.02727 0.08635 0.03542 0.0
O4 O 0.99312 0.10771 0.97945 0.0
Zn5 Zn 0.00312 0.09924 0.03523 0.0
O6 O 0.02589 0.116 0.04805 0.0
O7 O 0.04881 0.09838 0.04225 0.0
O8 O 0.98954 0.10287 0.08934 0.0
O9 O 0.0151 0.08993 0.10139 0.0
O10 O 0.02935 0.06151 0.03029 0.0
O11 O 0.00192 0.07082 0.02737 0.0
C12 C 0.04259 0.11357 0.04993 0.0
C13 C 0.01311 0.05817 0.02616 0.0
C14 C 0.18255 0.76601 0.27502 0.0
C15 C 0.12699 0.7951 0.29899 0.0
O16 O 0.16997 0.75474 0.27597 0.0
Zn17 Zn 0.14159 0.75573 0.28356 0.0
O18 O 0.17912 0.78225 0.27933 0.0
Zn19 Zn 0.1543 0.78002 0.28426 0.0
O20 O 0.15072 0.76766 0.35001 0.0
O21 O 0.13799 0.742 0.33751 0.0
O22 O 0.14211 0.80147 0.29145 0.0
O23 O 0.12469 0.77836 0.29675 0.0
O24 O 0.13326 0.74583 0.22744 0.0
O25 O 0.14666 0.77124 0.21781 0.0
C26 C 0.14425 0.7532 0.36514 0.0
C27 C 0.13877 0.75781 0.20109 0.0
C28 C 0.48741 0.89637 0.62181 0.0
C29 C 0.4814 0.89037 0.45795 0.0
O30 O 0.47327 0.90371 0.60733 0.0
Zn31 Zn 0.46007 0.90654 0.54217 0.0
O32 O 0.49759 0.88868 0.59401 0.0
Zn33 Zn 0.48381 0.89304 0.54054 0.0
O34 O 0.48542 0.92162 0.53226 0.0
O35 O 0.45809 0.93127 0.53637 0.0
O36 O 0.4932 0.88438 0.48415 0.0
O37 O 0.4683 0.89869 0.47499 0.0
O38 O 0.4384 0.8948 0.55119 0.0
O39 O 0.46101 0.87677 0.55458 0.0
C40 C 0.47434 0.93441 0.5313 0.0
C41 C 0.44441 0.87948 0.55791 0.0
C42 C 0.30649 0.227 0.78241 0.0
C43 C 0.36179 0.19702 0.80161 0.0
O44 O 0.31921 0.23812 0.78256 0.0
Zn45 Zn 0.34764 0.2367 0.7889 0.0
O46 O 0.30976 0.21075 0.78698 0.0
Zn47 Zn 0.3346 0.21265 0.7903 0.0
O48 O 0.33912 0.22478 0.85596 0.0
O49 O 0.35198 0.25029 0.84253 0.0
O50 O 0.34644 0.19096 0.79572 0.0
O51 O 0.36436 0.21373 0.79985 0.0
O52 O 0.35561 0.24669 0.73276 0.0
O53 O 0.34174 0.22151 0.72342 0.0
C54 C 0.34591 0.23918 0.87059 0.0
C55 C 0.34968 0.23487 0.70653 0.0
C56 C 0.04423 0.87881 0.44817 0.0
C57 C 0.01463 0.93416 0.47165 0.0
O58 O 0.02754 0.87631 0.45059 0.0
Zn59 Zn 0.00477 0.89303 0.46381 0.0
O60 O 0.05041 0.89405 0.45523 0.0
Zn61 Zn 0.02886 0.906 0.46239 0.0
O62 O 0.02035 0.89843 0.52915 0.0
O63 O -0.0049 0.88469 0.52007 0.0
O64 O 0.03085 0.93087 0.46686 0.0
O65 O 0.00349 0.92145 0.47117 0.0
O66 O 0.9909 0.88914 0.41035 0.0
O67 O 0.01637 0.90207 0.39692 0.0
C68 C 0.00706 0.89042 0.54616 0.0
C69 C 0.00191 0.89541 0.38231 0.0
C70 C 0.35078 0.75612 0.79872 0.0
C71 C 0.34525 0.75142 0.63505 0.0
O72 O 0.34267 0.76944 0.78222 0.0
Zn73 Zn 0.3349 0.77818 0.7158 0.0
O74 O 0.35651 0.74429 0.77221 0.0
Zn75 Zn 0.34796 0.75413 0.71641 0.0
O76 O 0.36454 0.77703 0.7033 0.0
O77 O 0.34673 0.79982 0.70876 0.0
O78 O 0.35172 0.74038 0.66274 0.0
O79 O 0.3386 0.76583 0.65002 0.0
O80 O 0.31009 0.7801 0.72079 0.0
O81 O 0.31958 0.75271 0.72416 0.0
C82 C 0.36196 0.79373 0.70124 0.0
C83 C 0.30686 0.76383 0.72513 0.0
C84 C 0.48178 0.10127 0.04299 0.0
C85 C 0.49215 0.09735 0.87937 0.0
O86 O 0.46995 0.0922 0.02272 0.0
Zn87 Zn 0.46341 0.08558 0.95376 0.0
O88 O 0.4935 0.10901 0.01971 0.0
Zn89 Zn 0.48645 0.10019 0.96048 0.0
O90 O 0.46349 0.11557 0.94338 0.0
O91 O 0.44156 0.09671 0.94222 0.0
O92 O 0.5013 0.10545 0.90879 0.0
O93 O 0.47807 0.08936 0.89159 0.0
O94 O 0.46217 0.06091 0.95706 0.0
O95 O 0.48895 0.07144 0.96776 0.0
C96 C 0.44712 0.11228 0.93724 0.0
C97 C 0.4783 0.05828 0.96559 0.0
C98 C 0.14419 0.23886 0.12627 0.0
C99 C 0.13957 0.23403 0.29015 0.0
O100 O 0.15088 0.22442 0.14089 0.0
Zn101 Zn 0.15498 0.21204 0.2064 0.0
O102 O 0.13798 0.24992 0.1543 0.0
Zn103 Zn 0.14198 0.23614 0.2078 0.0
O104 O 0.17037 0.23747 0.21495 0.0
O105 O 0.17985 0.2101 0.21055 0.0
O106 O 0.13374 0.24592 0.26396 0.0
O107 O 0.14756 0.22071 0.27322 0.0
O108 O 0.14303 0.19043 0.19967 0.0
O109 O 0.12527 0.2133 0.19528 0.0
C110 C 0.18309 0.22636 0.21536 0.0
C111 C 0.12777 0.1966 0.19297 0.0
C112 C 0.98414 0.88965 0.04616 0.0
C113 C 0.98818 0.895 0.88213 0.0
O114 O -0.00403 0.88404 0.01952 0.0
Zn115 Zn 0.98588 0.89237 0.9637 0.0
O116 O 0.97069 0.89758 0.02977 0.0
Zn117 Zn 0.96167 0.90517 0.96351 0.0
O118 O 0.94018 0.89301 0.95709 0.0
O119 O 0.96318 0.87549 0.95128 0.0
O120 O 0.97379 0.90151 0.89751 0.0
O121 O -0.00058 0.8887 0.90955 0.0
O122 O 0.98697 0.92079 0.97123 0.0
O123 O 0.95951 0.93001 0.96839 0.0
C124 C 0.94646 0.87783 0.94959 0.0
C125 C 0.97575 0.93341 0.97238 0.0
C126 C 0.85107 0.23493 0.79758 0.0
C127 C 0.84595 0.24027 0.63377 0.0
O128 O 0.85679 0.24692 0.77156 0.0
Zn129 Zn 0.84841 0.23732 0.71522 0.0
O130 O 0.84305 0.22165 0.78049 0.0
Zn131 Zn 0.83544 0.21321 0.71369 0.0
O132 O 0.84737 0.19164 0.70612 0.0
O133 O 0.86509 0.21455 0.70159 0.0
O134 O 0.8393 0.2258 0.64832 0.0
O135 O 0.85225 0.25127 0.66184 0.0
O136 O 0.82003 0.23861 0.72265 0.0
O137 O 0.8106 0.21122 0.71826 0.0
C138 C 0.86258 0.19785 0.6989 0.0
C139 C 0.80733 0.22746 0.72312 0.0
C140 C 0.49911 0.09761 0.3794 0.0
C141 C 0.50931 0.10121 0.54306 0.0
O142 O 0.48995 0.10561 0.40898 0.0
Zn143 Zn 0.50467 0.10003 0.46058 0.0
O144 O 0.5131 0.08943 0.39155 0.0
Zn145 Zn 0.52759 0.08527 0.45398 0.0
O146 O 0.52856 0.06056 0.45704 0.0
O147 O 0.50186 0.0713 0.46737 0.0
O148 O 0.52109 0.092 0.52299 0.0
O149 O 0.49764 0.10893 0.5196 0.0
O150 O 0.52779 0.11522 0.44374 0.0
O151 O 0.54959 0.0962 0.44266 0.0
C152 C 0.51239 0.05805 0.46516 0.0
C153 C 0.54414 0.11182 0.43769 0.0
C154 C 0.6284 0.79379 0.19436 0.0
C155 C 0.68345 0.76398 0.2201 0.0
O156 O 0.6436 0.79993 0.20195 0.0
Zn157 Zn 0.65544 0.77832 0.20963 0.0
O158 O 0.62584 0.77709 0.19673 0.0
Zn159 Zn 0.6424 0.75424 0.21034 0.0
O160 O 0.63367 0.74452 0.26608 0.0
O161 O 0.64743 0.76973 0.27598 0.0
O162 O 0.67073 0.75287 0.21899 0.0
O163 O 0.68025 0.78023 0.21523 0.0
O164 O 0.65194 0.76588 0.144 0.0
O165 O 0.63885 0.74041 0.15663 0.0
C166 C 0.63928 0.75643 0.29252 0.0
C167 C 0.64536 0.75144 0.12899 0.0
C168 C 0.94478 0.1133 0.55067 0.0
C169 C 0.97415 0.05779 0.52759 0.0
O170 O 0.93852 0.09808 0.5438 0.0
Zn171 Zn 0.96002 0.086 0.53669 0.0
O172 O 0.96148 0.11571 0.54819 0.0
Zn173 Zn 0.98417 0.09889 0.53513 0.0
O174 O 0.99385 0.10711 0.47877 0.0
O175 O 0.96855 0.09346 0.46985 0.0
O176 O 0.98532 0.07046 0.52797 0.0
O177 O 0.95794 0.06113 0.5324 0.0
O178 O 0.97255 0.08996 0.6021 0.0
O179 O -0.00194 0.10277 0.58856 0.0
C180 C 0.98186 0.10139 0.45274 0.0
C181 C 0.98703 0.09656 0.61665 0.0
C182 C 0.64552 0.23799 0.3683 0.0
C183 C 0.6409 0.23431 0.20411 0.0
O184 O 0.6393 0.24921 0.34073 0.0
Zn185 Zn 0.64337 0.23582 0.28658 0.0
O186 O 0.65223 0.22365 0.35303 0.0
Zn187 Zn 0.65635 0.21175 0.28681 0.0
O188 O 0.68117 0.20981 0.28264 0.0
O189 O 0.67178 0.23723 0.27967 0.0
O190 O 0.64889 0.22087 0.22038 0.0
O191 O 0.63514 0.24604 0.23088 0.0
O192 O 0.62668 0.21284 0.29773 0.0
O193 O 0.64451 0.19006 0.29223 0.0
C194 C 0.68447 0.22608 0.27877 0.0
C195 C 0.62923 0.19613 0.29904 0.0
C196 C 0.50223 0.89502 0.12208 0.0
C197 C 0.50751 0.89225 0.95716 0.0
O198 O 0.49135 0.88875 0.09364 0.0
Zn199 Zn 0.50531 0.89316 0.04007 0.0
O200 O 0.5166 0.90194 0.10782 0.0
Zn201 Zn 0.52915 0.9066 0.04285 0.0
O202 O 0.53112 0.93141 0.0413 0.0
O203 O 0.50385 0.92183 0.03421 0.0
O204 O 0.52028 0.90075 0.97512 0.0
O205 O 0.4962 0.8849 0.98249 0.0
O206 O 0.52814 0.87664 0.05247 0.0
O207 O 0.55082 0.89458 0.04829 0.0
C208 C 0.51492 0.93462 0.03542 0.0
C209 C 0.5448 0.87924 0.0546 0.0
C210 C 0.84634 0.75183 0.86674 0.0
C211 C 0.85261 0.75631 0.70293 0.0
O212 O 0.85276 0.74063 0.83939 0.0
Zn213 Zn 0.84946 0.75434 0.78528 0.0
O214 O 0.83994 0.76628 0.85133 0.0
Zn215 Zn 0.83669 0.7786 0.78546 0.0
O216 O 0.8119 0.7808 0.77969 0.0
O217 O 0.82112 0.75332 0.77655 0.0
O218 O 0.84462 0.76974 0.71931 0.0
O219 O 0.85809 0.7444 0.72955 0.0
O220 O 0.86625 0.77699 0.7989 0.0
O221 O 0.84883 0.80007 0.79294 0.0
C222 C 0.80853 0.76456 0.77514 0.0
C223 C 0.86392 0.79372 0.801 0.0
C224 C 0.50793 0.60067 0.45528 0.0
C225 C 0.50102 0.59814 0.61964 0.0
O226 O 0.52038 0.592 0.47414 0.0
Zn227 Zn 0.52834 0.58586 0.5422 0.0
O228 O 0.49635 0.60804 0.47974 0.0
Zn229 Zn 0.50469 0.59963 0.53785 0.0
O230 O 0.52769 0.61577 0.55163 0.0
O231 O 0.55015 0.5975 0.54938 0.0
O232 O 0.49038 0.60443 0.59061 0.0
O233 O 0.51536 0.59093 0.60619 0.0
O234 O 0.5298 0.56103 0.54077 0.0
O235 O 0.50275 0.57101 0.53213 0.0
C236 C 0.54427 0.61293 0.55519 0.0
C237 C 0.51361 0.55805 0.53407 0.0
C238 C 0.62779 0.29514 0.80172 0.0
C239 C 0.68295 0.2653 0.77828 0.0
O240 O 0.6252 0.27845 0.79955 0.0
Zn241 Zn 0.64182 0.25556 0.78637 0.0
O242 O 0.64303 0.30123 0.79446 0.0
Zn243 Zn 0.65488 0.27961 0.78748 0.0
O244 O 0.64735 0.27095 0.72079 0.0
O245 O 0.63346 0.24579 0.73014 0.0
O246 O 0.67971 0.28156 0.7829 0.0
O247 O 0.67023 0.25418 0.77893 0.0
O248 O 0.638 0.24173 0.83994 0.0
O249 O 0.65108 0.26716 0.85308 0.0
C250 C 0.6393 0.25765 0.70391 0.0
C251 C 0.64443 0.25272 0.86784 0.0
C252 C 0.98409 0.38921 0.95079 0.0
C253 C 0.98903 0.39541 0.11424 0.0
O254 O 0.97067 0.39716 0.9673 0.0
Zn255 Zn 0.962 0.40509 0.03362 0.0
O256 O -0.0039 0.38386 0.97724 0.0
Zn257 Zn 0.98628 0.39249 0.03295 0.0
O258 O 0.96377 0.37552 0.04698 0.0
O259 O 0.94063 0.39286 0.04138 0.0
O260 O 0.00017 0.38914 0.08652 0.0
O261 O 0.9745 0.40176 0.09931 0.0
O262 O 0.95962 0.42988 0.02813 0.0
O263 O 0.98714 0.42088 0.02459 0.0
C264 C 0.94705 0.37779 0.04935 0.0
C265 C 0.9758 0.4334 0.02351 0.0
C266 C 0.84649 0.73865 0.36681 0.0
C267 C 0.85109 0.7332 0.20287 0.0
O268 O 0.83977 0.72419 0.3524 0.0
Zn269 Zn 0.83566 0.71157 0.28715 0.0
O270 O 0.85272 0.74963 0.3386 0.0
Zn271 Zn 0.84868 0.73567 0.28528 0.0
O272 O 0.8203 0.73701 0.27833 0.0
O273 O 0.8108 0.70966 0.28307 0.0
O274 O 0.8569 0.7452 0.22874 0.0
O275 O 0.84311 0.71995 0.22017 0.0
O276 O 0.84759 0.68999 0.29455 0.0
O277 O 0.86535 0.71287 0.29853 0.0
C278 C 0.80756 0.72591 0.27815 0.0
C279 C 0.86283 0.69619 0.30135 0.0
C280 C 0.50751 0.39198 0.04538 0.0
C281 C 0.50299 0.39702 0.88114 0.0
O282 O 0.521 0.39972 0.02861 0.0
Zn283 Zn 0.52989 0.40707 0.96192 0.0
O284 O 0.49557 0.38641 0.01901 0.0
Zn285 Zn 0.50556 0.3945 0.96279 0.0
O286 O 0.52802 0.37737 0.94997 0.0
O287 O 0.55123 0.39464 0.95497 0.0
O288 O 0.4918 0.39087 0.9089 0.0
O289 O 0.5175 0.40342 0.89614 0.0
O290 O 0.53231 0.43196 0.96643 0.0
O291 O 0.50479 0.42294 0.96994 0.0
C292 C 0.54475 0.37953 0.94771 0.0
C293 C 0.51611 0.43548 0.97071 0.0
C294 C 0.8463 0.25379 0.13359 0.0
C295 C 0.85178 0.25793 0.29761 0.0
O296 O 0.83987 0.26824 0.14896 0.0
Zn297 Zn 0.8363 0.28042 0.21494 0.0
O298 O 0.85256 0.24253 0.16102 0.0
Zn299 Zn 0.849 0.25613 0.21517 0.0
O300 O 0.82063 0.25516 0.22289 0.0
O301 O 0.81149 0.28268 0.21991 0.0
O302 O 0.85734 0.24605 0.271 0.0
O303 O 0.84389 0.27141 0.28119 0.0
O304 O 0.84851 0.30188 0.20845 0.0
O305 O 0.86592 0.27878 0.20258 0.0
C306 C 0.80805 0.26644 0.22405 0.0
C307 C 0.86364 0.29552 0.20087 0.0
C308 C 0.94579 0.61219 0.44889 0.0
C309 C 0.97552 0.55694 0.4729 0.0
O310 O 0.96249 0.61468 0.45071 0.0
Zn311 Zn 0.98532 0.59803 0.46358 0.0
O312 O 0.93962 0.59699 0.45659 0.0
Zn313 Zn 0.96122 0.58505 0.46341 0.0
O314 O 0.97008 0.59293 0.52962 0.0
O315 O -0.00473 0.60663 0.51929 0.0
O316 O 0.95926 0.56021 0.46869 0.0
O317 O 0.98665 0.56965 0.47163 0.0
O318 O -0.00112 0.60168 0.40946 0.0
O319 O 0.97336 0.58866 0.39741 0.0
C320 C 0.98345 0.60102 0.54595 0.0
C321 C 0.98772 0.59525 0.38205 0.0
C322 C 0.64517 0.73934 0.62861 0.0
C323 C 0.64066 0.73458 0.79247 0.0
O324 O 0.65194 0.72494 0.64324 0.0
Zn325 Zn 0.65617 0.71263 0.7088 0.0
O326 O 0.63894 0.75039 0.65663 0.0
Zn327 Zn 0.64308 0.73666 0.71013 0.0
O328 O 0.67149 0.73815 0.71704 0.0
O329 O 0.68101 0.7108 0.71281 0.0
O330 O 0.63482 0.74645 0.76626 0.0
O331 O 0.64871 0.72129 0.77558 0.0
O332 O 0.6444 0.69095 0.70234 0.0
O333 O 0.62648 0.7137 0.69785 0.0
C334 C 0.68423 0.72706 0.71741 0.0
C335 C 0.62909 0.697 0.6957 0.0
C336 C 0.48277 0.39111 0.54547 0.0
C337 C 0.48724 0.39641 0.38124 0.0
O338 O 0.49472 0.38555 0.5191 0.0
Zn339 Zn 0.48469 0.3937 0.46294 0.0
O340 O 0.46927 0.39884 0.52871 0.0
Zn341 Zn 0.46034 0.40622 0.46209 0.0
O342 O 0.43903 0.39379 0.45526 0.0
O343 O 0.46225 0.37652 0.45022 0.0
O344 O 0.47271 0.40272 0.39634 0.0
O345 O 0.49845 0.39024 0.40892 0.0
O346 O 0.48536 0.42212 0.47083 0.0
O347 O 0.45783 0.43107 0.46685 0.0
C348 C 0.44551 0.37867 0.4481 0.0
C349 C 0.474 0.43462 0.47166 0.0
C350 C 0.30645 0.72587 0.22344 0.0
C351 C 0.36202 0.69649 0.20224 0.0
O352 O 0.30985 0.70963 0.21922 0.0
Zn353 Zn 0.3347 0.71176 0.21523 0.0
O354 O 0.31908 0.7371 0.22296 0.0
Zn355 Zn 0.34749 0.73596 0.21631 0.0
O356 O 0.35147 0.74967 0.16274 0.0
O357 O 0.33874 0.72407 0.14952 0.0
O358 O 0.36439 0.71322 0.20422 0.0
O359 O 0.3468 0.69022 0.20894 0.0
O360 O 0.34202 0.72063 0.28193 0.0
O361 O 0.3556 0.74595 0.27233 0.0
C362 C 0.34533 0.73854 0.1348 0.0
C363 C 0.3499 0.73406 0.29867 0.0
C364 C 0.04335 0.61356 0.94762 0.0
C365 C 0.01467 0.55773 0.97065 0.0
O366 O 0.04978 0.59843 0.95475 0.0
Zn367 Zn 0.02845 0.58612 0.96201 0.0
O368 O 0.02664 0.61581 0.95024 0.0
Zn369 Zn 0.00416 0.59873 0.96364 0.0
O370 O 0.99443 0.60678 0.02017 0.0
O371 O 0.01986 0.59338 0.0289 0.0
O372 O 0.00333 0.57026 0.97039 0.0
O373 O 0.03085 0.56128 0.96606 0.0
O374 O 0.01581 0.58991 0.89668 0.0
O375 O 0.99017 0.60247 0.91029 0.0
C376 C 0.00648 0.60115 0.04612 0.0
C377 C 0.00125 0.59637 0.88217 0.0
C378 C 0.12736 0.2934 0.69211 0.0
C379 C 0.18254 0.264 0.71851 0.0
O380 O 0.14252 0.29962 0.69982 0.0
Zn381 Zn 0.15447 0.27809 0.70737 0.0
O382 O 0.12489 0.27669 0.69427 0.0
Zn383 Zn 0.14159 0.25393 0.70801 0.0
O384 O 0.13282 0.24415 0.76365 0.0
O385 O 0.14644 0.26942 0.77368 0.0
O386 O 0.16991 0.25279 0.71728 0.0
O387 O 0.17924 0.28021 0.71325 0.0
O388 O 0.15114 0.26563 0.64167 0.0
O389 O 0.13825 0.24007 0.65428 0.0
C390 C 0.13835 0.25608 0.79015 0.0
C391 C 0.14469 0.25114 0.62664 0.0
C392 C 0.49107 0.59767 0.11917 0.0
C393 C 0.48412 0.6046 0.95601 0.0
O394 O 0.50101 0.60574 0.09154 0.0
Zn395 Zn 0.4871 0.60139 0.03831 0.0
O396 O 0.47702 0.59016 0.10471 0.0
Zn397 Zn 0.46358 0.58748 0.03998 0.0
O398 O 0.46209 0.56282 0.03312 0.0
O399 O 0.48926 0.57288 0.02916 0.0
O400 O 0.47127 0.59593 0.97312 0.0
O401 O 0.49598 0.61059 0.98201 0.0
O402 O 0.46407 0.61714 0.05394 0.0
O403 O 0.44176 0.59873 0.05046 0.0
C404 C 0.47837 0.55993 0.0279 0.0
C405 C 0.44754 0.61409 0.05781 0.0
C406 C 0.14355 0.73834 0.86524 0.0
C407 C 0.13879 0.73383 0.70099 0.0
O408 O 0.1373 0.74951 0.83754 0.0
Zn409 Zn 0.1412 0.73585 0.78358 0.0
O410 O 0.15016 0.72393 0.85016 0.0
Zn411 Zn 0.15407 0.71165 0.78443 0.0
O412 O 0.17892 0.70958 0.78019 0.0
O413 O 0.1696 0.73702 0.77682 0.0
O414 O 0.14668 0.72045 0.71786 0.0
O415 O 0.13307 0.74576 0.72724 0.0
O416 O 0.12439 0.7131 0.79606 0.0
O417 O 0.14199 0.69012 0.79094 0.0
C418 C 0.18226 0.72584 0.77613 0.0
C419 C 0.12679 0.69637 0.79808 0.0
C420 C 0.04299 0.37682 0.54776 0.0
C421 C 0.0135 0.43235 0.52594 0.0
O422 O 0.04923 0.39206 0.54103 0.0
Zn423 Zn 0.02772 0.40415 0.5343 0.0
O424 O 0.0263 0.3744 0.54541 0.0
Zn425 Zn 0.00357 0.39121 0.53294 0.0
O426 O 0.99377 0.3831 0.47665 0.0
O427 O 0.01902 0.39682 0.46757 0.0
O428 O 0.00235 0.41965 0.52633 0.0
O429 O 0.02973 0.42904 0.53031 0.0
O430 O 0.01532 0.40011 0.59973 0.0
O431 O 0.98981 0.38721 0.58651 0.0
C432 C 0.00569 0.3889 0.45055 0.0
C433 C 0.00089 0.39345 0.61445 0.0
C434 C 0.35132 0.25667 0.20662 0.0
C435 C 0.34479 0.25193 0.37004 0.0
O436 O 0.35689 0.24482 0.23327 0.0
Zn437 Zn 0.34797 0.25463 0.28872 0.0
O438 O 0.34309 0.26998 0.22288 0.0
Zn439 Zn 0.33488 0.27868 0.28904 0.0
O440 O 0.34664 0.30033 0.29658 0.0
O441 O 0.36446 0.27755 0.30241 0.0
O442 O 0.33823 0.26634 0.35486 0.0
O443 O 0.35138 0.24088 0.34254 0.0
O444 O 0.31966 0.2532 0.27938 0.0
O445 O 0.31009 0.28055 0.28294 0.0
C446 C 0.36185 0.29425 0.30444 0.0
C447 C 0.30693 0.2643 0.27795 0.0
H448 H 0.01838 0.10233 0.66016 0.0
H449 H 0.97491 0.10982 0.90583 0.0
H450 H 0.96314 0.09382 0.68531 0.0
H451 H 0.02972 0.09713 0.88662 0.0
H452 H 0.9708 0.10917 0.82356 0.0
H453 H 0.02317 0.10507 0.74216 0.0
C454 C 0.00728 0.10102 0.6829 0.0
C455 C 0.99035 0.09774 0.66595 0.0
C456 C 0.98374 0.10661 0.83741 0.0
C457 C -0.00431 0.10115 0.75937 0.0
C458 C 0.98613 0.1071 0.88431 0.0
C459 C 0.00267 0.10344 0.90312 0.0
C460 C -0.00196 0.10267 0.80906 0.0
C461 C 0.01672 0.09993 0.87356 0.0
C462 C 0.01002 0.10257 0.7296 0.0
C463 C 0.97643 0.09619 0.69692 0.0
N464 N 0.01409 0.09963 0.82794 0.0
N465 N 0.97939 0.09801 0.74211 0.0
H466 H 0.1469 0.71414 0.93302 0.0
H467 H 0.14316 0.78301 0.13566 0.0
H468 H 0.13757 0.76945 0.91002 0.0
H469 H 0.13171 0.72779 0.1532 0.0
H470 H 0.14357 0.77861 0.05334 0.0
H471 H 0.1443 0.71914 0.0146 0.0
C472 C 0.1444 0.72737 0.94514 0.0
C473 C 0.14249 0.74142 0.91468 0.0
C474 C 0.14082 0.76751 0.07525 0.0
C475 C 0.13952 0.74721 0.00805 0.0
C476 C 0.1406 0.76999 0.1222 0.0
C477 C 0.13743 0.75573 0.15134 0.0
C478 C 0.13816 0.75059 0.05741 0.0
C479 C 0.13417 0.73916 0.13203 0.0
C480 C 0.14279 0.73017 0.99169 0.0
C481 C 0.13911 0.75825 0.93233 0.0
N482 N 0.13481 0.73701 0.08629 0.0
N483 N 0.13784 0.76071 0.97794 0.0
H484 H 0.52604 0.89776 0.19088 0.0
H485 H 0.45655 0.89602 0.39198 0.0
H486 H 0.47079 0.88934 0.16577 0.0
H487 H 0.51111 0.88217 0.41022 0.0
H488 H 0.46116 0.89631 0.3096 0.0
H489 H 0.52057 0.89525 0.27226 0.0
C490 C 0.51273 0.89546 0.20249 0.0
C491 C 0.49884 0.89379 0.17146 0.0
C492 C 0.47205 0.89306 0.33171 0.0
C493 C 0.49249 0.89096 0.26473 0.0
C494 C 0.46946 0.89291 0.37868 0.0
C495 C 0.48348 0.88908 0.40807 0.0
C496 C 0.48887 0.8897 0.31408 0.0
C497 C 0.49991 0.88514 0.38892 0.0
C498 C 0.50964 0.89391 0.24895 0.0
C499 C 0.48188 0.89067 0.18852 0.0
N500 N 0.50219 0.88574 0.34321 0.0
N501 N 0.47915 0.88949 0.23408 0.0
H502 H 0.35032 0.22067 0.41424 0.0
H503 H 0.35707 0.26485 0.659 0.0
H504 H 0.34126 0.27598 0.43816 0.0
H505 H 0.34439 0.20992 0.64086 0.0
H506 H 0.35625 0.26876 0.57669 0.0
H507 H 0.35258 0.21611 0.49641 0.0
C508 C 0.34878 0.23183 0.43676 0.0
C509 C 0.34552 0.24872 0.41941 0.0
C510 C 0.35371 0.25584 0.59078 0.0
C511 C 0.34837 0.24363 0.513 0.0
C512 C 0.35429 0.25357 0.6377 0.0
C513 C 0.35073 0.23705 0.6568 0.0
C514 C 0.34978 0.24145 0.56273 0.0
C515 C 0.34713 0.22291 0.62754 0.0
C516 C 0.35005 0.22921 0.48354 0.0
C517 C 0.34364 0.26272 0.45008 0.0
N518 N 0.34677 0.22542 0.58189 0.0
N519 N 0.34521 0.25988 0.49538 0.0
H520 H 0.96388 0.89838 0.81465 0.0
H521 H 0.0323 0.89523 0.61125 0.0
H522 H 0.01922 0.88933 0.83701 0.0
H523 H 0.97725 0.88311 0.59441 0.0
H524 H 0.02805 0.89569 0.69362 0.0
H525 H 0.96875 0.89593 0.733 0.0
C526 C 0.97708 0.89598 0.80238 0.0
C527 C 0.99118 0.8941 0.83267 0.0
C528 C 0.01696 0.89279 0.67184 0.0
C529 C -0.00317 0.89128 0.73925 0.0
C530 C 0.01936 0.89254 0.62488 0.0
C531 C 0.0051 0.88915 0.59593 0.0
C532 C 0.00013 0.88995 0.68988 0.0
C533 C 0.98862 0.88573 0.61544 0.0
C534 C 0.97982 0.89445 0.75579 0.0
C535 C 0.00798 0.89084 0.81483 0.0
N536 N 0.98655 0.8864 0.66118 0.0
N537 N 0.01037 0.88965 0.7692 0.0
H538 H 0.3588 0.72619 0.84583 0.0
H539 H 0.35093 0.76988 0.09113 0.0
H540 H 0.34559 0.78095 0.86472 0.0
H541 H 0.34278 0.71449 0.06634 0.0
H542 H 0.35367 0.77459 0.00914 0.0
H543 H 0.35818 0.72214 0.92811 0.0
C544 C 0.35597 0.73741 0.86728 0.0
C545 C 0.35216 0.75392 0.84839 0.0
C546 C 0.35125 0.76143 0.02177 0.0
C547 C 0.35143 0.74936 0.94243 0.0
C548 C 0.3497 0.75873 0.06846 0.0
C549 C 0.34653 0.74178 0.08551 0.0
C550 C 0.34993 0.74704 0.9921 0.0
C551 C 0.34508 0.72779 0.05464 0.0
C552 C 0.3555 0.73506 0.91418 0.0
C553 C 0.34851 0.76798 0.87786 0.0
N554 N 0.34689 0.73072 0.00944 0.0
N555 N 0.34824 0.76538 0.92348 0.0
H556 H 0.4715 0.0752 0.1003 0.0
H557 H 0.48559 0.12548 0.33215 0.0
H558 H 0.49395 0.12732 0.09969 0.0
H559 H 0.50235 0.07163 0.31622 0.0
H560 H 0.48036 0.12709 0.24972 0.0
H561 H 0.47445 0.07443 0.18315 0.0
C562 C 0.47683 0.08658 0.11767 0.0
C563 C 0.48252 0.10135 0.09316 0.0
C564 C 0.48505 0.11493 0.26454 0.0
C565 C 0.48559 0.10062 0.1877 0.0
C566 C 0.4879 0.11394 0.31139 0.0
C567 C 0.49438 0.09838 0.33082 0.0
C568 C 0.48819 0.10008 0.23741 0.0
C569 C 0.49738 0.08386 0.30245 0.0
C570 C 0.47858 0.08607 0.16479 0.0
C571 C 0.48949 0.11566 0.11736 0.0
N572 N 0.49411 0.085 0.25718 0.0
N573 N 0.49071 0.11502 0.16347 0.0
H574 H 0.13932 0.21981 0.58255 0.0
H575 H 0.13186 0.26391 0.33785 0.0
H576 H 0.14788 0.27517 0.55843 0.0
H577 H 0.14494 0.20907 0.35572 0.0
H578 H 0.13268 0.26779 0.42016 0.0
H579 H 0.13692 0.21518 0.5004 0.0
C580 C 0.14073 0.23097 0.55999 0.0
C581 C 0.14389 0.24789 0.57728 0.0
C582 C 0.1353 0.2549 0.40602 0.0
C583 C 0.14086 0.24274 0.48372 0.0
C584 C 0.13472 0.25264 0.35909 0.0
C585 C 0.13841 0.23615 0.3399 0.0
C586 C 0.13937 0.24053 0.434 0.0
C587 C 0.1421 0.22203 0.3691 0.0
C588 C 0.13937 0.22831 0.51322 0.0
C589 C 0.14558 0.26189 0.54656 0.0
N590 N 0.14247 0.22453 0.41476 0.0
N591 N 0.14393 0.25902 0.50129 0.0
H592 H 0.97061 0.88948 0.33872 0.0
H593 H 0.01422 0.88217 0.09318 0.0
H594 H 0.02582 0.89832 0.31372 0.0
H595 H 0.95932 0.89448 0.11227 0.0
H596 H 0.01831 0.8829 0.17547 0.0
H597 H 0.96588 0.88669 0.25672 0.0
C598 C 0.98172 0.89086 0.31601 0.0
C599 C -0.00138 0.89424 0.33301 0.0
C600 C 0.00536 0.88536 0.16159 0.0
C601 C 0.99335 0.89077 0.23958 0.0
C602 C 0.00298 0.88483 0.11468 0.0
C603 C 0.98642 0.88835 0.09584 0.0
C604 C 0.99103 0.88922 0.18989 0.0
C605 C 0.97234 0.89179 0.12537 0.0
C606 C 0.97901 0.88928 0.26931 0.0
C607 C 0.01255 0.89586 0.30207 0.0
N608 N 0.97496 0.89213 0.17098 0.0
N609 N 0.00962 0.89402 0.25688 0.0
H610 H 0.84299 0.27813 0.06612 0.0
H611 H 0.8462 0.20964 0.86256 0.0
H612 H 0.85191 0.2227 0.08845 0.0
H613 H 0.8584 0.26474 0.84597 0.0
H614 H 0.84568 0.21388 0.94495 0.0
H615 H 0.8455 0.27324 0.98447 0.0
C616 C 0.84537 0.2649 0.05383 0.0
C617 C 0.8472 0.25078 0.08412 0.0
C618 C 0.84861 0.22499 0.92322 0.0
C619 C 0.85008 0.24513 0.9907 0.0
C620 C 0.8489 0.2226 0.87625 0.0
C621 C 0.85233 0.23688 0.84737 0.0
C622 C 0.85145 0.24183 0.94133 0.0
C623 C 0.85575 0.25336 0.86695 0.0
C624 C 0.84693 0.26216 0.00725 0.0
C625 C 0.85043 0.23395 0.06627 0.0
N626 N 0.85504 0.25543 0.91269 0.0
N627 N 0.85166 0.23157 0.02064 0.0
H628 H 0.48939 0.07068 0.81815 0.0
H629 H 0.49713 0.12765 0.5983 0.0
H630 H 0.50538 0.12491 0.83029 0.0
H631 H 0.51966 0.07558 0.60179 0.0
H632 H 0.49493 0.12709 0.68168 0.0
H633 H 0.49534 0.07202 0.73631 0.0
C634 C 0.49426 0.08282 0.80355 0.0
C635 C 0.49703 0.09767 0.83087 0.0
C636 C 0.50047 0.11588 0.66401 0.0
C637 C 0.50328 0.09943 0.73752 0.0
C638 C 0.50166 0.11616 0.61662 0.0
C639 C 0.50863 0.10166 0.59323 0.0
C640 C 0.50575 0.10079 0.68785 0.0
C641 C 0.51432 0.08708 0.61855 0.0
C642 C 0.49766 0.08356 0.75704 0.0
C643 C 0.50327 0.11313 0.81035 0.0
N644 N 0.5125 0.08689 0.66444 0.0
N645 N 0.50593 0.11371 0.76465 0.0
H646 H 0.63919 0.77061 0.58488 0.0
H647 H 0.63124 0.72658 0.33995 0.0
H648 H 0.64775 0.71527 0.56025 0.0
H649 H 0.64425 0.78143 0.35822 0.0
H650 H 0.63186 0.72269 0.42227 0.0
H651 H 0.6362 0.77523 0.50288 0.0
C652 C 0.64046 0.75945 0.56224 0.0
C653 C 0.64383 0.74255 0.57933 0.0
C654 C 0.63449 0.73558 0.4082 0.0
C655 C 0.64013 0.74769 0.48595 0.0
C656 C 0.63402 0.73785 0.36127 0.0
C657 C 0.63779 0.75434 0.3422 0.0
C658 C 0.63853 0.74994 0.43629 0.0
C659 C 0.64137 0.76847 0.37151 0.0
C660 C 0.63876 0.7621 0.51556 0.0
C661 C 0.64531 0.72855 0.54851 0.0
N662 N 0.64165 0.76595 0.41716 0.0
N663 N 0.64336 0.73141 0.50333 0.0
H664 H 0.95659 0.09661 0.38772 0.0
H665 H 0.02498 0.09289 0.18427 0.0
H666 H 0.01171 0.10846 0.40439 0.0
H667 H 0.9697 0.1023 0.16185 0.0
H668 H 0.02011 0.09538 0.26592 0.0
H669 H 0.96083 0.09601 0.30534 0.0
C670 C 0.96955 0.09921 0.37405 0.0
C671 C 0.98383 0.10257 0.40295 0.0
C672 C 0.00905 0.09693 0.24312 0.0
C673 C 0.98878 0.10161 0.30901 0.0
C674 C 0.01179 0.09538 0.19653 0.0
C675 C -0.00229 0.09735 0.16622 0.0
C676 C 0.99207 0.10021 0.25964 0.0
C677 C 0.98092 0.10071 0.18405 0.0
C678 C 0.97194 0.09888 0.32709 0.0
C679 C 0.00032 0.10587 0.3834 0.0
N680 N 0.97854 0.10193 0.22968 0.0
N681 N 0.00238 0.10512 0.33766 0.0
H682 H 0.63308 0.26445 0.15765 0.0
H683 H 0.63893 0.2213 0.91134 0.0
H684 H 0.64589 0.20966 0.13749 0.0
H685 H 0.64771 0.27656 0.93656 0.0
H686 H 0.63688 0.2164 0.99343 0.0
H687 H 0.63335 0.26869 0.07542 0.0
C688 C 0.63577 0.25327 0.13593 0.0
C689 C 0.63954 0.23669 0.15445 0.0
C690 C 0.63929 0.22957 0.98086 0.0
C691 C 0.63985 0.24147 0.06043 0.0
C692 C 0.64043 0.23238 0.93412 0.0
C693 C 0.64358 0.24935 0.91715 0.0
C694 C 0.64098 0.24388 0.01069 0.0
C695 C 0.64542 0.26324 0.94817 0.0
C696 C 0.63603 0.25573 0.08905 0.0
C697 C 0.64301 0.22269 0.12464 0.0
N698 N 0.64399 0.26022 0.99343 0.0
N699 N 0.64306 0.22539 0.07904 0.0
H700 H 0.48128 0.92232 0.68387 0.0
H701 H 0.49464 0.86583 0.90324 0.0
H702 H 0.50202 0.86974 0.67105 0.0
H703 H 0.51524 0.91867 0.89828 0.0
H704 H 0.49062 0.86667 0.82029 0.0
H705 H 0.48704 0.92118 0.76597 0.0
C706 C 0.48705 0.91057 0.69839 0.0
C707 C 0.49131 0.89615 0.67083 0.0
C708 C 0.49607 0.87801 0.83758 0.0
C709 C 0.49737 0.89459 0.76418 0.0
C710 C 0.4983 0.87756 0.88467 0.0
C711 C 0.50537 0.89216 0.90738 0.0
C712 C 0.50036 0.89336 0.81356 0.0
C713 C 0.50991 0.90708 0.88188 0.0
C714 C 0.49035 0.90995 0.74499 0.0
C715 C 0.49873 0.88119 0.6912 0.0
N716 N 0.50709 0.90741 0.83634 0.0
N717 N 0.50131 0.88068 0.73686 0.0
H718 H 0.86026 0.72627 0.65573 0.0
H719 H 0.85259 0.76999 0.41031 0.0
H720 H 0.84791 0.78124 0.63695 0.0
H721 H 0.84378 0.71474 0.43545 0.0
H722 H 0.85561 0.77473 0.49228 0.0
H723 H 0.85955 0.72224 0.57342 0.0
C724 C 0.85761 0.73754 0.6343 0.0
C725 C 0.85405 0.7541 0.65324 0.0
C726 C 0.85299 0.76159 0.47972 0.0
C727 C 0.8532 0.74955 0.55915 0.0
C728 C 0.85128 0.75888 0.43304 0.0
C729 C 0.84783 0.74197 0.41609 0.0
C730 C 0.85156 0.74724 0.50947 0.0
C731 C 0.84628 0.72802 0.44705 0.0
C732 C 0.85709 0.73519 0.58738 0.0
C733 C 0.85062 0.76822 0.62378 0.0
N734 N 0.84825 0.73095 0.49221 0.0
N735 N 0.85028 0.76563 0.57815 0.0
H736 H 0.48569 0.57118 0.1799 0.0
H737 H 0.49546 0.62717 0.40104 0.0
H738 H 0.50495 0.6244 0.1695 0.0
H739 H 0.51696 0.57467 0.39643 0.0
H740 H 0.49264 0.62663 0.31777 0.0
H741 H 0.49094 0.57211 0.26219 0.0
C742 C 0.49106 0.58301 0.195 0.0
C743 C 0.49502 0.59769 0.1681 0.0
C744 C 0.49804 0.61531 0.33521 0.0
C745 C 0.50048 0.599 0.26163 0.0
C746 C 0.49958 0.61557 0.38248 0.0
C747 C 0.50652 0.60097 0.40538 0.0
C748 C 0.50292 0.60013 0.31118 0.0
C749 C 0.51169 0.58625 0.3799 0.0
C750 C 0.49407 0.58351 0.2417 0.0
C751 C 0.50191 0.61275 0.18916 0.0
N752 N 0.50954 0.58609 0.33414 0.0
N753 N 0.5042 0.61314 0.23493 0.0
H754 H 0.6487 0.21374 0.43614 0.0
H755 H 0.64418 0.28274 0.63846 0.0
H756 H 0.63946 0.26906 0.41298 0.0
H757 H 0.63235 0.2276 0.65603 0.0
H758 H 0.64504 0.27822 0.55621 0.0
H759 H 0.6458 0.21875 0.51773 0.0
C760 C 0.64616 0.22696 0.44823 0.0
C761 C 0.64436 0.24102 0.41774 0.0
C762 C 0.64211 0.26717 0.57811 0.0
C763 C 0.64104 0.24681 0.51102 0.0
C764 C 0.64163 0.26972 0.62501 0.0
C765 C 0.6382 0.25552 0.65414 0.0
C766 C 0.63947 0.25024 0.56031 0.0
C767 C 0.63498 0.23893 0.63485 0.0
C768 C 0.64437 0.22977 0.49476 0.0
C769 C 0.64092 0.25785 0.43531 0.0
N770 N 0.63588 0.23671 0.58916 0.0
N771 N 0.63949 0.26031 0.48086 0.0
H772 H 0.96966 0.38766 0.65849 0.0
H773 H 0.0139 0.38113 0.90338 0.0
H774 H 0.02496 0.39627 0.68258 0.0
H775 H 0.95903 0.39381 0.88512 0.0
H776 H 0.01769 0.3813 0.82104 0.0
H777 H 0.96509 0.3851 0.74063 0.0
C778 C 0.98082 0.38902 0.68103 0.0
C779 C -0.0023 0.39229 0.66376 0.0
C780 C 0.00481 0.38396 0.83511 0.0
C781 C 0.99261 0.38909 0.75727 0.0
C782 C 0.0026 0.38375 0.88206 0.0
C783 C 0.98614 0.38756 0.90114 0.0
C784 C 0.99042 0.38778 0.807 0.0
C785 C 0.97198 0.39092 0.87182 0.0
C786 C 0.9782 0.38758 0.72779 0.0
C787 C 0.0117 0.39391 0.69445 0.0
N788 N 0.97444 0.39095 0.82615 0.0
N789 N 0.00887 0.3922 0.7397 0.0
H790 H 0.84606 0.70784 0.13806 0.0
H791 H 0.8427 0.77613 0.9342 0.0
H792 H 0.85831 0.76296 0.15422 0.0
H793 H 0.8519 0.72074 0.91194 0.0
H794 H 0.84508 0.77128 0.01586 0.0
H795 H 0.84541 0.71199 0.05563 0.0
C796 C 0.84874 0.72078 0.12427 0.0
C797 C 0.85223 0.73509 0.15305 0.0
C798 C 0.8466 0.76019 0.99309 0.0
C799 C 0.85121 0.73994 0.05906 0.0
C800 C 0.84511 0.76291 0.9465 0.0
C801 C 0.84707 0.7488 0.91622 0.0
C802 C 0.84981 0.74319 0.00967 0.0
C803 C 0.85033 0.73199 0.93411 0.0
C804 C 0.84838 0.72312 0.07729 0.0
C805 C 0.85562 0.75155 0.13334 0.0
N806 N 0.85149 0.72961 0.97976 0.0
N807 N 0.85484 0.75356 0.08759 0.0
H808 H 0.53249 0.3967 0.11127 0.0
H809 H 0.46319 0.39981 0.31309 0.0
H810 H 0.47743 0.385 0.09292 0.0
H811 H 0.51848 0.39093 0.33676 0.0
H812 H 0.46839 0.3975 0.23152 0.0
H813 H 0.5279 0.39722 0.19354 0.0
C814 C 0.51947 0.39412 0.12453 0.0
C815 C 0.50532 0.39081 0.09517 0.0
C816 C 0.47938 0.39603 0.25457 0.0
C817 C 0.49995 0.39168 0.18905 0.0
C818 C 0.47645 0.39747 0.30113 0.0
C819 C 0.49044 0.39559 0.33179 0.0
C820 C 0.49645 0.39295 0.23841 0.0
C821 C 0.50732 0.39243 0.31431 0.0
C822 C 0.51687 0.3944 0.17145 0.0
C823 C 0.48873 0.38755 0.11425 0.0
N824 N 0.50988 0.39132 0.26871 0.0
N825 N 0.48647 0.38824 0.15995 0.0
H826 H 0.8592 0.22783 0.34473 0.0
H827 H 0.85191 0.2716 0.59019 0.0
H828 H 0.84701 0.28283 0.36365 0.0
H829 H 0.84299 0.21634 0.56517 0.0
H830 H 0.85473 0.27631 0.50818 0.0
H831 H 0.85845 0.22378 0.42701 0.0
C832 C 0.85657 0.2391 0.36619 0.0
C833 C 0.85309 0.25568 0.3473 0.0
C834 C 0.85212 0.26318 0.52077 0.0
C835 C 0.85219 0.25112 0.44136 0.0
C836 C 0.85052 0.26048 0.56747 0.0
C837 C 0.84711 0.24357 0.58447 0.0
C838 C 0.85061 0.24882 0.49104 0.0
C839 C 0.84546 0.22962 0.55353 0.0
C840 C 0.85602 0.23675 0.4131 0.0
C841 C 0.84967 0.2698 0.37678 0.0
N842 N 0.84733 0.23254 0.50834 0.0
N843 N 0.84932 0.2672 0.4224 0.0
H844 H 0.96984 0.60179 0.8386 0.0
H845 H 0.01336 0.60919 0.59295 0.0
H846 H 0.02518 0.59382 0.81358 0.0
H847 H 0.95866 0.59601 0.61209 0.0
H848 H 0.01741 0.60881 0.67524 0.0
H849 H 0.96505 0.60436 0.75656 0.0
C850 C 0.98096 0.60057 0.81588 0.0
C851 C -0.00208 0.59748 0.83288 0.0
C852 C 0.00451 0.60609 0.66137 0.0
C853 C 0.99257 0.6007 0.73942 0.0
C854 C 0.00215 0.60641 0.61445 0.0
C855 C 0.98566 0.60254 0.59562 0.0
C856 C 0.99023 0.60208 0.68971 0.0
C857 C 0.97162 0.59897 0.62518 0.0
C858 C 0.97821 0.60202 0.76916 0.0
C859 C 0.01187 0.59604 0.80193 0.0
N860 N 0.97422 0.59883 0.67081 0.0
N861 N 0.0089 0.59776 0.75673 0.0
H862 H 0.63981 0.72016 0.08478 0.0
H863 H 0.63284 0.76442 0.84019 0.0
H864 H 0.64861 0.7755 0.06091 0.0
H865 H 0.64591 0.70957 0.85797 0.0
H866 H 0.63345 0.76823 0.92254 0.0
H867 H 0.63746 0.71559 0.0026 0.0
C868 C 0.64127 0.73132 0.06228 0.0
C869 C 0.6445 0.74822 0.07963 0.0
C870 C 0.63611 0.75535 0.90836 0.0
C871 C 0.64152 0.74314 0.98605 0.0
C872 C 0.63565 0.75313 0.86141 0.0
C873 C 0.63941 0.73666 0.8422 0.0
C874 C 0.64013 0.74096 0.93632 0.0
C875 C 0.64304 0.72252 0.87138 0.0
C876 C 0.63994 0.72871 0.01549 0.0
C877 C 0.64626 0.76223 0.04898 0.0
N878 N 0.64329 0.72498 0.91706 0.0
N879 N 0.64464 0.7594 0.0037 0.0
H880 H 0.52704 0.40031 0.81294 0.0
H881 H 0.45776 0.39575 0.61126 0.0
H882 H 0.47181 0.39117 0.83675 0.0
H883 H 0.51292 0.38447 0.59309 0.0
H884 H 0.46237 0.39661 0.69348 0.0
H885 H 0.52189 0.39758 0.73142 0.0
C886 C 0.51381 0.39783 0.80102 0.0
C887 C 0.49982 0.396 0.8317 0.0
C888 C 0.47342 0.39381 0.67145 0.0
C889 C 0.49386 0.39286 0.7384 0.0
C890 C 0.47081 0.39332 0.62456 0.0
C891 C 0.48499 0.39004 0.59526 0.0
C892 C 0.49037 0.39132 0.6891 0.0
C893 C 0.50161 0.38698 0.61439 0.0
C894 C 0.51091 0.39614 0.7545 0.0
C895 C 0.48297 0.39265 0.81428 0.0
N896 N 0.50387 0.38788 0.66007 0.0
N897 N 0.48043 0.39129 0.76873 0.0
H898 H 0.35749 0.76406 0.346 0.0
H899 H 0.3509 0.72012 0.59106 0.0
H900 H 0.34484 0.70914 0.36451 0.0
H901 H 0.34196 0.77542 0.56679 0.0
H902 H 0.35324 0.71546 0.50893 0.0
H903 H 0.3569 0.76802 0.42829 0.0
C904 C 0.35477 0.75279 0.36737 0.0
C905 C 0.35113 0.73625 0.34837 0.0
C906 C 0.35072 0.72859 0.52172 0.0
C907 C 0.35044 0.74073 0.44245 0.0
C908 C 0.34941 0.73126 0.56848 0.0
C909 C 0.34614 0.74817 0.58571 0.0
C910 C 0.34908 0.74298 0.49217 0.0
C911 C 0.34434 0.76214 0.55495 0.0
C912 C 0.35432 0.7551 0.41428 0.0
C913 C 0.34762 0.72214 0.37775 0.0
N914 N 0.34594 0.75925 0.50969 0.0
N915 N 0.34738 0.72469 0.42339 0.0
H916 H 0.0318 0.59651 0.11104 0.0
H917 H 0.96347 0.59152 0.31451 0.0
H918 H 0.97655 0.60774 0.09461 0.0
H919 H 0.01868 0.60137 0.33696 0.0
H920 H 0.96829 0.59424 0.23289 0.0
H921 H 0.02757 0.59561 0.19339 0.0
C922 C 0.01882 0.59892 0.12476 0.0
C923 C 0.0045 0.60219 0.09593 0.0
C924 C 0.97934 0.59583 0.25569 0.0
C925 C -0.00045 0.60088 0.18985 0.0
C926 C 0.97664 0.59415 0.30226 0.0
C927 C 0.99071 0.59619 0.33257 0.0
C928 C -0.00371 0.59931 0.23919 0.0
C929 C 0.00746 0.59973 0.31476 0.0
C930 C 0.01643 0.59841 0.17171 0.0
C931 C 0.98797 0.60523 0.11555 0.0
N932 N 0.00982 0.60107 0.26916 0.0
N933 N 0.98591 0.60432 0.16127 0.0
H934 H 0.13044 0.22617 0.83749 0.0
H935 H 0.13825 0.27015 0.08256 0.0
H936 H 0.1432 0.28107 0.85594 0.0
H937 H 0.14682 0.21482 0.05785 0.0
H938 H 0.13529 0.27479 0.00056 0.0
H939 H 0.13108 0.22224 0.91981 0.0
C940 C 0.13316 0.23745 0.85886 0.0
C941 C 0.13686 0.25396 0.83983 0.0
C942 C 0.13785 0.26166 0.01322 0.0
C943 C 0.13763 0.24952 0.93392 0.0
C944 C 0.13952 0.259 0.05991 0.0
C945 C 0.14289 0.24209 0.07698 0.0
C946 C 0.13923 0.24726 0.98359 0.0
C947 C 0.14439 0.2281 0.04613 0.0
C948 C 0.13365 0.23516 0.90578 0.0
C949 C 0.14038 0.26809 0.86919 0.0
N950 N 0.14245 0.23098 0.00095 0.0
N951 N 0.14068 0.26555 0.91483 0.0
H952 H 0.4695 0.60416 0.66273 0.0
H953 H 0.51326 0.61407 0.90758 0.0
H954 H 0.52482 0.59647 0.68845 0.0
H955 H 0.45908 0.5985 0.89084 0.0
H956 H 0.51685 0.61359 0.8252 0.0
H957 H 0.46467 0.60741 0.74481 0.0
C958 C 0.4806 0.60317 0.68558 0.0
C959 C 0.49756 0.59992 0.66881 0.0
C960 C 0.50415 0.61039 0.8396 0.0
C961 C 0.49219 0.60395 0.76214 0.0
C962 C 0.50205 0.61077 0.88659 0.0
C963 C 0.48587 0.60621 0.90617 0.0
C964 C 0.48992 0.60565 0.81185 0.0
C965 C 0.47182 0.60199 0.87718 0.0
C966 C 0.47783 0.60501 0.73229 0.0
C967 C 0.5115 0.59879 0.6999 0.0
N968 N 0.47416 0.6018 0.83141 0.0
N969 N 0.50852 0.6009 0.74497 0.0
H970 H 0.14766 0.77742 0.43293 0.0
H971 H 0.14346 0.70864 0.63566 0.0
H972 H 0.13838 0.72209 0.40995 0.0
H973 H 0.13194 0.76386 0.65295 0.0
H974 H 0.14417 0.71302 0.55336 0.0
H975 H 0.14499 0.77246 0.51451 0.0
C976 C 0.14516 0.76419 0.44505 0.0
C977 C 0.14328 0.75012 0.4146 0.0
C978 C 0.14135 0.72412 0.57521 0.0
C979 C 0.14022 0.74439 0.50796 0.0
C980 C 0.14095 0.72165 0.62214 0.0
C981 C 0.13765 0.73592 0.65121 0.0
C982 C 0.13874 0.74103 0.5573 0.0
C983 C 0.13447 0.75248 0.63182 0.0
C984 C 0.14351 0.76141 0.4916 0.0
C985 C 0.1399 0.7333 0.43226 0.0
N986 N 0.13528 0.75462 0.58611 0.0
N987 N 0.13859 0.73087 0.47785 0.0
H988 H 0.02028 0.38992 0.15842 0.0
H989 H 0.97586 0.38142 0.40254 0.0
H990 H 0.96492 0.39825 0.18232 0.0
H991 H 0.03073 0.39427 0.3853 0.0
H992 H 0.97208 0.38253 0.32022 0.0
H993 H 0.02477 0.38708 0.24049 0.0
C994 C 0.0091 0.39119 0.18091 0.0
C995 C 0.99222 0.39441 0.16359 0.0
C996 C 0.98495 0.38503 0.33451 0.0
C997 C -0.00278 0.39087 0.25705 0.0
C998 C 0.98715 0.38428 0.38143 0.0
C999 C 0.00362 0.38783 0.4008 0.0
C1000 C -0.00064 0.38915 0.30672 0.0
C1001 C 0.01778 0.39154 0.37177 0.0
C1002 C 0.01167 0.38958 0.22764 0.0
C1003 C 0.97818 0.39591 0.19423 0.0
N1004 N 0.01533 0.39209 0.32612 0.0
N1005 N 0.98098 0.39402 0.23945 0.0
H1006 H 0.35953 0.22675 0.15959 0.0
H1007 H 0.35186 0.27047 0.91426 0.0
H1008 H 0.34649 0.28155 0.14061 0.0
H1009 H 0.34352 0.21511 0.939 0.0
H1010 H 0.35481 0.27516 0.99622 0.0
H1011 H 0.35913 0.22272 0.07728 0.0
C1012 C 0.35679 0.23799 0.13812 0.0
C1013 C 0.35295 0.2545 0.15698 0.0
C1014 C 0.35232 0.26201 0.98358 0.0
C1015 C 0.35246 0.24995 0.06292 0.0
C1016 C 0.35065 0.25932 0.93691 0.0
C1017 C 0.34734 0.24239 0.91986 0.0
C1018 C 0.35097 0.24762 0.01324 0.0
C1019 C 0.34591 0.2284 0.95071 0.0
C1020 C 0.35645 0.23564 0.0912 0.0
C1021 C 0.34943 0.26857 0.12748 0.0
N1022 N 0.34783 0.23131 0.9959 0.0
N1023 N 0.34926 0.26598 0.08186 0.0
H1024 H 0.97949 0.04603 0.01409 0.0
H1025 H 0.00934 0.94561 0.98414 0.0
H1026 H 0.03343 0.02856 0.02157 0.0
H1027 H 0.95537 0.96301 0.97686 0.0
H1028 H 0.01845 0.97599 0.99754 0.0
H1029 H 0.97036 0.01565 0.00052 0.0
C1030 C 0.98941 0.03581 0.01299 0.0
C1031 C 0.00725 0.03985 0.01898 0.0
C1032 C 0.00461 0.97316 0.99296 0.0
C1033 C -0.00309 0.00508 0.00333 0.0
C1034 C -0.00059 0.95581 0.98525 0.0
C1035 C 0.98157 0.95175 0.97938 0.0
C1036 C 0.99189 0.98654 0.99483 0.0
C1037 C 0.96928 0.96552 0.9812 0.0
C1038 C 0.98419 0.01847 0.00517 0.0
C1039 C 0.01953 0.02607 0.01714 0.0
N1040 N 0.97466 0.98229 0.98881 0.0
N1041 N 0.01413 0.00931 0.00945 0.0
H1042 H 0.21208 0.78648 0.27135 0.0
H1043 H 0.27687 0.70548 0.2262 0.0
H1044 H 0.19483 0.73245 0.26248 0.0
H1045 H 0.2942 0.75947 0.23575 0.0
H1046 H 0.24672 0.71516 0.23887 0.0
H1047 H 0.24222 0.77684 0.25823 0.0
C1048 C 0.21462 0.77257 0.26673 0.0
C1049 C 0.20089 0.76025 0.26803 0.0
C1050 C 0.25711 0.7249 0.23815 0.0
C1051 C 0.23541 0.74913 0.25286 0.0
C1052 C 0.27434 0.71939 0.23086 0.0
C1053 C 0.2881 0.73169 0.22993 0.0
C1054 C 0.25356 0.74285 0.24459 0.0
C1055 C 0.28402 0.74953 0.23619 0.0
C1056 C 0.23185 0.76709 0.25919 0.0
C1057 C 0.20499 0.74241 0.26178 0.0
N1058 N 0.26711 0.75457 0.24331 0.0
N1059 N 0.22189 0.73739 0.25443 0.0
H1060 H 0.47899 0.04703 0.4868 0.0
H1061 H 0.50772 0.94606 0.51342 0.0
H1062 H 0.53163 0.02779 0.46338 0.0
H1063 H 0.45432 0.96428 0.52962 0.0
H1064 H 0.51681 0.97621 0.49684 0.0
H1065 H 0.46961 0.0169 0.50366 0.0
C1066 C 0.48854 0.03649 0.48502 0.0
C1067 C 0.50611 0.03995 0.47368 0.0
C1068 C 0.5031 0.97361 0.50407 0.0
C1069 C 0.49553 0.00553 0.49315 0.0
C1070 C 0.49792 0.9564 0.51367 0.0
C1071 C 0.48024 0.95263 0.52288 0.0
C1072 C 0.49051 0.98716 0.50375 0.0
C1073 C 0.4681 0.96656 0.52264 0.0
C1074 C 0.4832 0.01931 0.49473 0.0
C1075 C 0.51795 0.02578 0.47198 0.0
N1076 N 0.47346 0.9832 0.51319 0.0
N1077 N 0.51245 0.00923 0.48169 0.0
H1078 H 0.29454 0.26058 0.76805 0.0
H1079 H 0.19446 0.23053 0.73447 0.0
H1080 H 0.27681 0.20678 0.77978 0.0
H1081 H 0.21209 0.28438 0.72333 0.0
H1082 H 0.22459 0.22157 0.75141 0.0
H1083 H 0.26431 0.26965 0.75263 0.0
C1084 C 0.28429 0.25069 0.76759 0.0
C1085 C 0.28822 0.23289 0.77514 0.0
C1086 C 0.22186 0.23535 0.74521 0.0
C1087 C 0.25363 0.24316 0.7573 0.0
C1088 C 0.20466 0.24046 0.73544 0.0
C1089 C 0.20074 0.25822 0.72743 0.0
C1090 C 0.23523 0.24809 0.74698 0.0
C1091 C 0.2145 0.27053 0.72925 0.0
C1092 C 0.26704 0.25586 0.75869 0.0
C1093 C 0.2744 0.22064 0.77409 0.0
N1094 N 0.23112 0.26523 0.73885 0.0
N1095 N 0.25774 0.226 0.76523 0.0
H1096 H 0.03484 0.96388 0.47442 0.0
H1097 H 0.95388 0.02809 0.52487 0.0
H1098 H 0.98108 0.94617 0.48573 0.0
H1099 H 0.00767 0.04573 0.51361 0.0
H1100 H 0.96361 -0.002 0.51087 0.0
H1101 H 0.02509 0.99394 0.48847 0.0
C1102 C 0.02096 0.96631 0.47975 0.0
C1103 C 0.00875 0.95246 0.4789 0.0
C1104 C 0.97329 0.00844 0.51151 0.0
C1105 C -0.00249 0.98691 0.49516 0.0
C1106 C 0.96776 0.02564 0.51957 0.0
C1107 C 0.97999 0.03947 0.52041 0.0
C1108 C 0.99119 0.00501 0.50421 0.0
C1109 C -0.00222 0.03548 0.51328 0.0
C1110 C 0.01541 0.98349 0.48784 0.0
C1111 C 0.99095 0.95642 0.48606 0.0
N1112 N 0.00284 0.01861 0.50543 0.0
N1113 N 0.98587 0.97329 0.49394 0.0
H1114 H 0.19434 0.75951 0.76455 0.0
H1115 H 0.29491 0.73012 0.7374 0.0
H1116 H 0.21193 0.70557 0.77261 0.0
H1117 H 0.27717 0.78401 0.72912 0.0
H1118 H 0.26457 0.72081 0.7504 0.0
H1119 H 0.2247 0.76876 0.75201 0.0
C1120 C 0.20458 0.74961 0.76379 0.0
C1121 C 0.20058 0.73174 0.76962 0.0
C1122 C 0.26733 0.73467 0.7457 0.0
C1123 C 0.23535 0.74222 0.75515 0.0
C1124 C 0.28464 0.73999 0.73822 0.0
C1125 C 0.28859 0.75786 0.73215 0.0
C1126 C 0.25387 0.74733 0.74713 0.0
C1127 C 0.27475 0.77008 0.73362 0.0
C1128 C 0.22191 0.7549 0.75657 0.0
C1129 C 0.2144 0.71949 0.76827 0.0
N1130 N 0.25802 0.76458 0.74098 0.0
N1131 N 0.23116 0.72496 0.76114 0.0
H1132 H 0.48179 0.94642 0.01538 0.0
H1133 H 0.51137 0.04716 0.98994 0.0
H1134 H 0.53496 0.96448 0.03715 0.0
H1135 H 0.45889 0.02815 0.963 0.0
H1136 H 0.52033 0.01706 0.00852 0.0
H1137 H 0.47303 0.9766 0.99829 0.0
C1138 C 0.4916 0.95674 0.01683 0.0
C1139 C 0.50913 0.95291 0.02764 0.0
C1140 C 0.50687 0.01951 0.99844 0.0
C1141 C 0.49923 0.98747 0.00782 0.0
C1142 C 0.50177 0.03667 0.98772 0.0
C1143 C 0.48436 0.04019 0.9749 0.0
C1144 C 0.49446 0.00582 0.99637 0.0
C1145 C 0.47245 0.02609 0.97274 0.0
C1146 C 0.48661 0.97397 0.00691 0.0
C1147 C 0.52129 0.96681 0.0289 0.0
N1148 N 0.47771 0.00956 0.98343 0.0
N1149 N 0.51612 0.98347 0.01901 0.0
H1150 H 0.19493 0.25999 0.22928 0.0
H1151 H 0.29522 0.23066 0.26299 0.0
H1152 H 0.21285 0.20621 0.21904 0.0
H1153 H 0.27722 0.28443 0.2728 0.0
H1154 H 0.26511 0.22141 0.24673 0.0
H1155 H 0.2251 0.26924 0.24454 0.0
C1156 C 0.20521 0.25013 0.23008 0.0
C1157 C 0.20134 0.2323 0.22292 0.0
C1158 C 0.26775 0.23523 0.25249 0.0
C1159 C 0.2359 0.24277 0.24055 0.0
C1160 C 0.28494 0.24051 0.26186 0.0
C1161 C 0.28875 0.25834 0.2693 0.0
C1162 C 0.25429 0.24786 0.25054 0.0
C1163 C 0.2749 0.27054 0.26731 0.0
C1164 C 0.22243 0.25541 0.23887 0.0
C1165 C 0.2152 0.2201 0.22439 0.0
N1166 N 0.2583 0.26507 0.2581 0.0
N1167 N 0.23185 0.22556 0.23312 0.0
H1168 H 0.79538 0.26108 0.73668 0.0
H1169 H 0.69487 0.23164 0.76487 0.0
H1170 H 0.77763 0.20724 0.72642 0.0
H1171 H 0.71266 0.28547 0.77494 0.0
H1172 H 0.72516 0.2224 0.75103 0.0
H1173 H 0.76509 0.2703 0.75055 0.0
C1174 C 0.78512 0.25121 0.73723 0.0
C1175 C 0.78905 0.23337 0.73039 0.0
C1176 C 0.72243 0.23623 0.75632 0.0
C1177 C 0.75437 0.2438 0.74638 0.0
C1178 C 0.70514 0.24151 0.7643 0.0
C1179 C 0.70122 0.25935 0.77107 0.0
C1180 C 0.73589 0.24889 0.75511 0.0
C1181 C 0.71506 0.27157 0.7699 0.0
C1182 C 0.76783 0.25647 0.74521 0.0
C1183 C 0.77522 0.22114 0.73152 0.0
N1184 N 0.73177 0.26611 0.76203 0.0
N1185 N 0.75851 0.22659 0.73941 0.0
H1186 H 0.69523 0.73034 0.23436 0.0
H1187 H 0.79572 0.75955 0.26449 0.0
H1188 H 0.71318 0.78411 0.22443 0.0
H1189 H 0.77779 0.70579 0.27506 0.0
H1190 H 0.76548 0.76884 0.25029 0.0
H1191 H 0.72543 0.72105 0.24931 0.0
C1192 C 0.70551 0.74018 0.23521 0.0
C1193 C 0.70167 0.75802 0.22811 0.0
C1194 C 0.76816 0.75501 0.25579 0.0
C1195 C 0.73623 0.74751 0.24535 0.0
C1196 C 0.78543 0.74971 0.26397 0.0
C1197 C 0.7893 0.73187 0.27094 0.0
C1198 C 0.75468 0.74239 0.25454 0.0
C1199 C 0.77543 0.71968 0.26984 0.0
C1200 C 0.72275 0.73488 0.24382 0.0
C1201 C 0.71553 0.77021 0.22969 0.0
N1202 N 0.75874 0.72517 0.26172 0.0
N1203 N 0.73218 0.76473 0.23816 0.0
H1204 H 0.71411 0.20581 0.2755 0.0
H1205 H 0.77852 0.2869 0.22824 0.0
H1206 H 0.69655 0.25974 0.26628 0.0
H1207 H 0.79585 0.23288 0.23673 0.0
H1208 H 0.74843 0.27724 0.24221 0.0
H1209 H 0.74415 0.21557 0.26196 0.0
C1210 C 0.71657 0.21973 0.27075 0.0
C1211 C 0.70277 0.23199 0.272 0.0
C1212 C 0.75881 0.26749 0.24097 0.0
C1213 C 0.7372 0.24324 0.25633 0.0
C1214 C 0.776 0.27299 0.23294 0.0
C1215 C 0.78974 0.26067 0.23131 0.0
C1216 C 0.7553 0.24954 0.24746 0.0
C1217 C 0.78568 0.24284 0.23767 0.0
C1218 C 0.73375 0.22529 0.26295 0.0
C1219 C 0.70677 0.24984 0.26561 0.0
N1220 N 0.76882 0.23781 0.24551 0.0
N1221 N 0.72363 0.25493 0.25798 0.0
H1222 H 0.69616 0.76072 0.73076 0.0
H1223 H 0.79648 0.731 0.76147 0.0
H1224 H 0.71394 0.70689 0.72054 0.0
H1225 H 0.77896 0.78496 0.77031 0.0
H1226 H 0.76623 0.72192 0.74656 0.0
H1227 H 0.72645 0.76994 0.74489 0.0
C1228 C 0.70643 0.75085 0.73134 0.0
C1229 C 0.7025 0.73301 0.72449 0.0
C1230 C 0.76901 0.73575 0.7518 0.0
C1231 C 0.73716 0.74344 0.7408 0.0
C1232 C 0.78627 0.74094 0.76039 0.0
C1233 C 0.79026 0.75876 0.76717 0.0
C1234 C 0.75563 0.74847 0.74998 0.0
C1235 C 0.7765 0.77106 0.7653 0.0
C1236 C 0.72372 0.75612 0.73947 0.0
C1237 C 0.71634 0.72079 0.72566 0.0
N1238 N 0.75981 0.76569 0.75686 0.0
N1239 N 0.73304 0.72624 0.73373 0.0
H1240 H 0.53338 0.52809 0.53586 0.0
H1241 H 0.45344 0.46418 0.47387 0.0
H1242 H 0.48024 0.54637 0.51507 0.0
H1243 H 0.50723 0.44687 0.48826 0.0
H1244 H 0.46279 0.49427 0.48995 0.0
H1245 H 0.52374 0.49816 0.52039 0.0
C1246 C 0.51965 0.52582 0.5282 0.0
C1247 C 0.50759 0.53979 0.52672 0.0
C1248 C 0.47255 0.4839 0.48951 0.0
C1249 C 0.49647 0.50544 0.50874 0.0
C1250 C 0.46724 0.4667 0.48027 0.0
C1251 C 0.47958 0.45297 0.47971 0.0
C1252 C 0.49033 0.48739 0.49835 0.0
C1253 C 0.49726 0.45703 0.48828 0.0
C1254 C 0.51416 0.50869 0.51926 0.0
C1255 C 0.48997 0.536 0.5166 0.0
N1256 N 0.50209 0.47387 0.49733 0.0
N1257 N 0.48494 0.51917 0.50791 0.0
H1258 H 0.95511 0.46277 0.01967 0.0
H1259 H 0.03533 0.52831 0.97315 0.0
H1260 H 0.00921 0.44593 0.01031 0.0
H1261 H 0.98127 0.54516 0.98351 0.0
H1262 H 0.02598 0.49803 0.986 0.0
H1263 H 0.96445 0.493 0.00616 0.0
C1264 C 0.96897 0.46543 0.01484 0.0
C1265 C 0.9814 0.45178 0.01614 0.0
C1266 C 0.01615 0.50834 0.98542 0.0
C1267 C 0.99218 0.48641 0.00055 0.0
C1268 C 0.02148 0.52565 0.97803 0.0
C1269 C 0.00906 0.53931 0.97727 0.0
C1270 C -0.00173 0.50463 0.99213 0.0
C1271 C 0.99129 0.53505 0.98381 0.0
C1272 C 0.97429 0.48271 0.00709 0.0
C1273 C -0.00083 0.45603 0.00963 0.0
N1274 N 0.98643 0.51808 0.99102 0.0
N1275 N 0.00403 0.47298 0.00208 0.0
H1276 H 0.48262 0.44778 0.98283 0.0
H1277 H 0.51214 0.5483 0.01361 0.0
H1278 H 0.53661 0.46507 0.9749 0.0
H1279 H 0.45848 0.53013 0.02317 0.0
H1280 H 0.52153 0.51801 0.99874 0.0
H1281 H 0.4736 0.47812 0.99656 0.0
C1282 C 0.49258 0.45795 0.98385 0.0
C1283 C 0.5104 0.45386 0.97773 0.0
C1284 C 0.5077 0.52069 0.00413 0.0
C1285 C 0.50017 0.48866 0.99361 0.0
C1286 C 0.50235 0.53796 0.01266 0.0
C1287 C 0.48451 0.54176 0.01966 0.0
C1288 C 0.49511 0.50716 0.00258 0.0
C1289 C 0.47238 0.52785 0.018 0.0
C1290 C 0.48743 0.47529 0.99176 0.0
C1291 C 0.52272 0.46761 0.97945 0.0
N1292 N 0.47791 0.5112 0.00962 0.0
N1293 N 0.51738 0.4844 0.98728 0.0
H1294 H 0.97986 0.44437 0.51386 0.0
H1295 H 0.00917 0.545 0.48545 0.0
H1296 H 0.03369 0.46209 0.52262 0.0
H1297 H 0.95534 0.52723 0.47731 0.0
H1298 H 0.01845 0.51467 0.49909 0.0
H1299 H 0.9706 0.47472 0.50087 0.0
C1300 C 0.98973 0.45464 0.51317 0.0
C1301 C 0.00758 0.45067 0.51931 0.0
C1302 C 0.00461 0.51742 0.49428 0.0
C1303 C -0.00292 0.48543 0.50432 0.0
C1304 C -0.00069 0.53473 0.48643 0.0
C1305 C 0.98146 0.53866 0.48021 0.0
C1306 C 0.99197 0.50395 0.49593 0.0
C1307 C 0.96925 0.52482 0.4819 0.0
C1308 C 0.98443 0.47197 0.5057 0.0
C1309 C 0.01978 0.46452 0.51805 0.0
N1310 N 0.97474 0.50809 0.48962 0.0
N1311 N 0.01431 0.48128 0.51064 0.0
H1312 H 0.03421 0.14707 0.07869 0.0
H1313 H 0.12918 0.16094 0.18606 0.0
H1314 H 0.07807 0.11169 0.06014 0.0
H1315 H 0.09446 0.20503 0.16323 0.0
H1316 H 0.10792 0.14168 0.14991 0.0
H1317 H 0.05408 0.16804 0.11624 0.0
C1318 C 0.04801 0.14381 0.08193 0.0
C1319 C 0.05446 0.12755 0.06648 0.0
C1320 C 0.1049 0.15556 0.15288 0.0
C1321 C 0.07698 0.15117 0.11005 0.0
C1322 C 0.11699 0.16657 0.17385 0.0
C1323 C 0.11368 0.18468 0.17731 0.0
C1324 C 0.08928 0.16261 0.13529 0.0
C1325 C 0.09755 0.19115 0.16112 0.0
C1326 C 0.05928 0.15573 0.10351 0.0
C1327 C 0.07244 0.12399 0.07169 0.0
N1328 N 0.08592 0.18011 0.14052 0.0
N1329 N 0.08299 0.13561 0.09338 0.0
H1330 H 0.09367 0.78627 0.32786 0.0
H1331 H 0.07985 0.88018 0.44149 0.0
H1332 H 0.12859 0.83057 0.31047 0.0
H1333 H 0.03571 0.84576 0.41643 0.0
H1334 H 0.09899 0.85927 0.40365 0.0
H1335 H 0.07274 0.80572 0.36693 0.0
C1336 C 0.09683 0.80008 0.33164 0.0
C1337 C 0.11297 0.80678 0.31612 0.0
C1338 C 0.08513 0.85623 0.4065 0.0
C1339 C 0.0894 0.82881 0.36144 0.0
C1340 C 0.07418 0.86812 0.42845 0.0
C1341 C 0.05609 0.86481 0.43175 0.0
C1342 C 0.07803 0.84082 0.38778 0.0
C1343 C 0.04958 0.84885 0.41447 0.0
C1344 C 0.08494 0.81112 0.35409 0.0
C1345 C 0.1164 0.82477 0.32206 0.0
N1346 N 0.06056 0.83742 0.39293 0.0
N1347 N 0.10482 0.83508 0.34462 0.0
H1348 H 0.39531 0.78556 0.67124 0.0
H1349 H 0.40897 0.88159 0.56906 0.0
H1350 H 0.36002 0.82931 0.69273 0.0
H1351 H 0.45264 0.8458 0.58528 0.0
H1352 H 0.38987 0.8603 0.60557 0.0
H1353 H 0.41609 0.80572 0.63412 0.0
C1354 C 0.39203 0.7994 0.66874 0.0
C1355 C 0.37584 0.80574 0.68487 0.0
C1356 C 0.40362 0.85705 0.60111 0.0
C1357 C 0.39926 0.82861 0.64183 0.0
C1358 C 0.41454 0.86916 0.57992 0.0
C1359 C 0.43249 0.86554 0.5744 0.0
C1360 C 0.4106 0.84109 0.61685 0.0
C1361 C 0.43888 0.84914 0.58899 0.0
C1362 C 0.40384 0.81084 0.64739 0.0
C1363 C 0.37225 0.82377 0.68059 0.0
N1364 N 0.42793 0.83749 0.60978 0.0
N1365 N 0.38378 0.83449 0.65916 0.0
H1366 H 0.45432 0.14705 0.91846 0.0
H1367 H 0.36102 0.16127 0.80026 0.0
H1368 H 0.4126 0.10852 0.91521 0.0
H1369 H 0.39465 0.20504 0.83489 0.0
H1370 H 0.38236 0.14124 0.83314 0.0
H1371 H 0.43456 0.16829 0.88174 0.0
C1372 C 0.44099 0.14311 0.91046 0.0
C1373 C 0.43511 0.12597 0.91985 0.0
C1374 C 0.38515 0.15522 0.83347 0.0
C1375 C 0.41271 0.14997 0.87729 0.0
C1376 C 0.373 0.16668 0.81442 0.0
C1377 C 0.37597 0.18488 0.81525 0.0
C1378 C 0.40045 0.16194 0.85358 0.0
C1379 C 0.39183 0.19108 0.83368 0.0
C1380 C 0.42979 0.15519 0.88938 0.0
C1381 C 0.41775 0.12155 0.90862 0.0
N1382 N 0.40348 0.17961 0.85249 0.0
N1383 N 0.40724 0.13342 0.88772 0.0
H1384 H 0.89731 0.78503 0.82971 0.0
H1385 H 0.9108 0.87889 0.94406 0.0
H1386 H 0.86206 0.82914 0.81329 0.0
H1387 H 0.95512 0.84488 0.91745 0.0
H1388 H 0.89166 0.85784 0.90665 0.0
H1389 H 0.91817 0.80455 0.86886 0.0
C1390 C 0.89406 0.79882 0.83375 0.0
C1391 C 0.87786 0.80544 0.81842 0.0
C1392 C 0.90557 0.85492 0.90909 0.0
C1393 C 0.90135 0.82754 0.86384 0.0
C1394 C 0.91651 0.86689 0.93078 0.0
C1395 C 0.93464 0.86374 0.93349 0.0
C1396 C 0.91271 0.8396 0.89005 0.0
C1397 C 0.94121 0.84785 0.91593 0.0
C1398 C 0.90591 0.80989 0.85624 0.0
C1399 C 0.87431 0.82339 0.82468 0.0
N1400 N 0.93024 0.83635 0.89464 0.0
N1401 N 0.88586 0.83374 0.84727 0.0
H1402 H 0.90915 0.11216 0.55731 0.0
H1403 H 0.89603 0.20635 0.67025 0.0
H1404 H 0.95349 0.14636 0.58199 0.0
H1405 H 0.8606 0.16241 0.68718 0.0
H1406 H 0.9168 0.18668 0.63132 0.0
H1407 H 0.89012 0.13328 0.59479 0.0
C1408 C 0.91489 0.12421 0.5702 0.0
C1409 C 0.933 0.1274 0.56689 0.0
C1410 C 0.90453 0.18141 0.64401 0.0
C1411 C 0.91119 0.15162 0.61045 0.0
C1412 C 0.89272 0.19257 0.66639 0.0
C1413 C 0.8765 0.18604 0.68175 0.0
C1414 C 0.89989 0.16376 0.6366 0.0
C1415 C 0.87287 0.16809 0.67571 0.0
C1416 C 0.90401 0.13622 0.59193 0.0
C1417 C 0.9396 0.14336 0.58396 0.0
N1418 N 0.88438 0.15766 0.65326 0.0
N1419 N 0.92869 0.1549 0.60531 0.0
H1420 H 0.63011 0.16035 0.29887 0.0
H1421 H 0.5371 0.1466 0.4189 0.0
H1422 H 0.59646 0.20419 0.33286 0.0
H1423 H 0.57864 0.10787 0.41543 0.0
H1424 H 0.55686 0.16769 0.38173 0.0
H1425 H 0.60893 0.14042 0.33285 0.0
C1426 C 0.61816 0.1658 0.3131 0.0
C1427 C 0.61513 0.184 0.31339 0.0
C1428 C 0.5616 0.15459 0.38943 0.0
C1429 C 0.59084 0.16116 0.35299 0.0
C1430 C 0.55039 0.14258 0.41078 0.0
C1431 C 0.55622 0.12543 0.42021 0.0
C1432 C 0.57862 0.14928 0.37712 0.0
C1433 C 0.57354 0.12092 0.40881 0.0
C1434 C 0.60611 0.15439 0.33279 0.0
C1435 C 0.59932 0.19024 0.33202 0.0
N1436 N 0.58405 0.13272 0.38764 0.0
N1437 N 0.58777 0.17882 0.35141 0.0
H1438 H 0.58046 0.88073 0.06 0.0
H1439 H 0.5947 0.78557 0.16715 0.0
H1440 H 0.53664 0.84581 0.08405 0.0
H1441 H 0.63064 0.82919 0.18227 0.0
H1442 H 0.57367 0.80549 0.13008 0.0
H1443 H 0.59997 0.85938 0.09485 0.0
C1444 C 0.57493 0.86848 0.07222 0.0
C1445 C 0.55684 0.86514 0.06949 0.0
C1446 C 0.58613 0.81063 0.14191 0.0
C1447 C 0.57919 0.84063 0.11003 0.0
C1448 C 0.59808 0.79933 0.16321 0.0
C1449 C 0.61449 0.8057 0.17765 0.0
C1450 C 0.59079 0.82828 0.13463 0.0
C1451 C 0.61821 0.82363 0.17156 0.0
C1452 C 0.58609 0.85633 0.09244 0.0
C1453 C 0.55051 0.84893 0.08562 0.0
N1454 N 0.60654 0.83421 0.1502 0.0
N1455 N 0.56169 0.83726 0.10551 0.0
H1456 H 0.53635 0.64709 0.579 0.0
H1457 H 0.63046 0.66128 0.69169 0.0
H1458 H 0.57948 0.61029 0.56982 0.0
H1459 H 0.59601 0.70516 0.66395 0.0
H1460 H 0.60938 0.64165 0.65622 0.0
H1461 H 0.55614 0.66826 0.61595 0.0
C1462 C 0.54999 0.64354 0.58419 0.0
C1463 C 0.55625 0.62686 0.57149 0.0
C1464 C 0.60637 0.65557 0.65795 0.0
C1465 C 0.57868 0.65074 0.61438 0.0
C1466 C 0.61836 0.6668 0.67852 0.0
C1467 C 0.61508 0.68494 0.68043 0.0
C1468 C 0.59089 0.66244 0.63915 0.0
C1469 C 0.59908 0.69126 0.66307 0.0
C1470 C 0.56121 0.65558 0.60543 0.0
C1471 C 0.57402 0.62294 0.57916 0.0
N1472 N 0.58756 0.68 0.64286 0.0
N1473 N 0.58453 0.63472 0.60042 0.0
H1474 H 0.5357 0.34602 0.92034 0.0
H1475 H 0.62932 0.33083 0.80688 0.0
H1476 H 0.58017 0.38086 0.93575 0.0
H1477 H 0.59478 0.28698 0.83429 0.0
H1478 H 0.60857 0.35036 0.84395 0.0
H1479 H 0.55499 0.32466 0.8822 0.0
C1480 C 0.54952 0.34908 0.9163 0.0
C1481 C 0.55631 0.36531 0.93102 0.0
C1482 C 0.60547 0.33648 0.8418 0.0
C1483 C 0.57815 0.34124 0.88676 0.0
C1484 C 0.61727 0.3253 0.8203 0.0
C1485 C 0.61388 0.30719 0.81786 0.0
C1486 C 0.59007 0.32959 0.86094 0.0
C1487 C 0.59793 0.30086 0.83558 0.0
C1488 C 0.56045 0.33694 0.8944 0.0
C1489 C 0.57429 0.3686 0.9248 0.0
N1490 N 0.58659 0.31207 0.85667 0.0
N1491 N 0.5845 0.35677 0.90278 0.0
H1492 H 0.86274 0.33123 0.19549 0.0
H1493 H 0.95598 0.3445 0.07863 0.0
H1494 H 0.89639 0.2867 0.16802 0.0
H1495 H 0.91168 0.37947 0.06181 0.0
H1496 H 0.93667 0.32368 0.11861 0.0
H1497 H 0.88367 0.35027 0.15734 0.0
C1498 C 0.87465 0.32546 0.18187 0.0
C1499 C 0.87772 0.30729 0.18453 0.0
C1500 C 0.93125 0.33587 0.10571 0.0
C1501 C 0.90171 0.3291 0.14025 0.0
C1502 C 0.94219 0.34769 0.08274 0.0
C1503 C 0.93546 0.36381 0.06709 0.0
C1504 C 0.91362 0.34039 0.11346 0.0
C1505 C 0.91752 0.36729 0.07346 0.0
C1506 C 0.88653 0.33634 0.15977 0.0
C1507 C 0.89349 0.30063 0.16655 0.0
N1508 N 0.90731 0.35578 0.09653 0.0
N1509 N 0.90491 0.31155 0.14484 0.0
H1510 H 0.91016 0.61074 0.44233 0.0
H1511 H 0.89641 0.70471 0.32882 0.0
H1512 H 0.95422 0.64522 0.417 0.0
H1513 H 0.86088 0.66076 0.31356 0.0
H1514 H 0.91736 0.68513 0.36732 0.0
H1515 H 0.89093 0.63165 0.40479 0.0
C1516 C 0.91579 0.62281 0.42929 0.0
C1517 C 0.93388 0.62614 0.43247 0.0
C1518 C 0.90502 0.67983 0.35508 0.0
C1519 C 0.91184 0.65013 0.38884 0.0
C1520 C 0.89311 0.69094 0.33295 0.0
C1521 C 0.87681 0.68439 0.31819 0.0
C1522 C 0.90042 0.6622 0.36286 0.0
C1523 C 0.87321 0.66646 0.32456 0.0
C1524 C 0.9048 0.6347 0.40751 0.0
C1525 C 0.94035 0.64211 0.41516 0.0
N1526 N 0.88482 0.65607 0.34677 0.0
N1527 N 0.92932 0.65354 0.3938 0.0
H1528 H 0.35998 0.32987 0.31164 0.0
H1529 H 0.4545 0.34527 0.41965 0.0
H1530 H 0.39508 0.28616 0.33557 0.0
H1531 H 0.40998 0.37979 0.43856 0.0
H1532 H 0.43497 0.32386 0.38252 0.0
H1533 H 0.38084 0.34936 0.34841 0.0
C1534 C 0.37217 0.32436 0.32425 0.0
C1535 C 0.3757 0.3063 0.32086 0.0
C1536 C 0.42955 0.33608 0.39527 0.0
C1537 C 0.39966 0.32865 0.36357 0.0
C1538 C 0.44063 0.34825 0.41659 0.0
C1539 C 0.43389 0.36441 0.43195 0.0
C1540 C 0.41175 0.34029 0.38889 0.0
C1541 C 0.41583 0.3676 0.42701 0.0
C1542 C 0.38403 0.33551 0.34558 0.0
C1543 C 0.39182 0.3 0.3376 0.0
N1544 N 0.40547 0.35575 0.40555 0.0
N1545 N 0.40324 0.31119 0.35849 0.0
H1546 H 0.36126 0.66073 0.19869 0.0
H1547 H 0.45508 0.64824 0.08262 0.0
H1548 H 0.39492 0.70514 0.17018 0.0
H1549 H 0.41259 0.61066 0.07519 0.0
H1550 H 0.43522 0.66892 0.12114 0.0
H1551 H 0.3826 0.6414 0.1631 0.0
C1552 C 0.37324 0.66642 0.18534 0.0
C1553 C 0.37622 0.68462 0.18703 0.0
C1554 C 0.4303 0.65617 0.11071 0.0
C1555 C 0.4007 0.66248 0.14561 0.0
C1556 C 0.44157 0.64441 0.08859 0.0
C1557 C 0.4355 0.62766 0.07578 0.0
C1558 C 0.41299 0.651 0.12044 0.0
C1559 C 0.41789 0.62337 0.0845 0.0
C1560 C 0.38539 0.65537 0.16471 0.0
C1561 C 0.39209 0.69118 0.16946 0.0
N1562 N 0.40734 0.63489 0.10655 0.0
N1563 N 0.40375 0.6801 0.14915 0.0
H1564 H 0.03436 0.64687 0.91856 0.0
H1565 H 0.12792 0.66068 0.80389 0.0
H1566 H 0.07879 0.61215 0.93631 0.0
H1567 H 0.09388 0.70502 0.83023 0.0
H1568 H 0.10701 0.64156 0.84179 0.0
H1569 H 0.0537 0.66785 0.87924 0.0
C1570 C 0.04818 0.64377 0.91481 0.0
C1571 C 0.05494 0.62767 0.93048 0.0
C1572 C 0.10406 0.65547 0.83918 0.0
C1573 C 0.07683 0.65127 0.88485 0.0
C1574 C 0.11594 0.6664 0.81721 0.0
C1575 C 0.11274 0.68454 0.81429 0.0
C1576 C 0.08877 0.66262 0.85831 0.0
C1577 C 0.09688 0.69112 0.8319 0.0
C1578 C 0.05914 0.65568 0.89221 0.0
C1579 C 0.07293 0.6243 0.92458 0.0
N1580 N 0.08546 0.68014 0.85348 0.0
N1581 N 0.08316 0.6359 0.90187 0.0
H1582 H 0.03444 0.34324 0.57544 0.0
H1583 H 0.12884 0.32904 0.68514 0.0
H1584 H 0.07848 0.37846 0.55791 0.0
H1585 H 0.09429 0.28494 0.66058 0.0
H1586 H 0.10785 0.34829 0.64808 0.0
H1587 H 0.05416 0.32208 0.61273 0.0
C1588 C 0.04825 0.34642 0.57882 0.0
C1589 C 0.05479 0.36271 0.56383 0.0
C1590 C 0.10481 0.33441 0.65083 0.0
C1591 C 0.07714 0.33886 0.60708 0.0
C1592 C 0.11674 0.3234 0.67234 0.0
C1593 C 0.1134 0.3053 0.67563 0.0
C1594 C 0.08931 0.32738 0.63256 0.0
C1595 C 0.0974 0.29882 0.65863 0.0
C1596 C 0.05944 0.33439 0.60025 0.0
C1597 C 0.07279 0.36616 0.56917 0.0
N1598 N 0.08591 0.30987 0.63757 0.0
N1599 N 0.08325 0.35444 0.59073 0.0
loop_
_geom_bond_atom_site_label_1
_geom_bond_atom_site_label_2
_geom_bond_distance
_geom_bond_site_symmetry_2
_ccdc_geom_bond_type
C0 O2 1.247 . S
C0 O4 1.258 1_455 S
C1 O8 1.247 1_455 S
C1 O9 1.258 . S
O2 C0 1.247 . S
O2 Zn3 2.028 1_556 S
Zn3 O2 2.028 1_554 S
Zn3 O7 2.035 . S
Zn3 O9 2.035 . S
Zn3 O10 2.028 . S
O4 C0 1.258 1_655 S
O4 Zn5 2.035 1_556 S
Zn5 O4 2.035 1_554 S
Zn5 O6 2.028 1_655 S
Zn5 O8 2.028 . S
Zn5 O11 2.035 . S
O6 Zn5 2.028 1_455 S
O6 C12 1.247 . S
O7 Zn3 2.035 . S
O7 C12 1.258 . S
O8 C1 1.247 1_655 S
O8 Zn5 2.028 . S
O9 C1 1.258 . S
O9 Zn3 2.035 . S
O10 Zn3 2.028 . S
O10 C13 1.247 1_455 S
O11 Zn5 2.035 . S
O11 C13 1.258 . S
C12 O6 1.247 . S
C12 O7 1.258 . S
C13 O10 1.247 1_655 S
C13 O11 1.258 . S
C14 O16 1.247 . S
C14 O18 1.258 . S
C15 O22 1.247 . S
C15 O23 1.258 . S
O16 C14 1.247 . S
O16 Zn17 2.028 . S
Zn17 O16 2.028 . S
Zn17 O21 2.035 . S
Zn17 O23 2.035 . S
Zn17 O24 2.028 . S
O18 C14 1.258 . S
O18 Zn19 2.035 . S
Zn19 O18 2.035 . S
Zn19 O20 2.028 . S
Zn19 O22 2.028 . S
Zn19 O25 2.035 . S
O20 Zn19 2.028 . S
O20 C26 1.247 . S
O21 Zn17 2.035 . S
O21 C26 1.258 . S
O22 C15 1.247 . S
O22 Zn19 2.028 . S
O23 C15 1.258 . S
O23 Zn17 2.035 . S
O24 Zn17 2.028 . S
O24 C27 1.247 . S
O25 Zn19 2.035 . S
O25 C27 1.258 . S
C26 O20 1.247 . S
C26 O21 1.258 . S
C27 O24 1.247 . S
C27 O25 1.258 . S
C28 O30 1.247 . S
C28 O32 1.258 . S
C29 O36 1.247 . S
C29 O37 1.258 . S
O30 C28 1.247 . S
O30 Zn31 2.028 . S
Zn31 O30 2.028 . S
Zn31 O35 2.035 . S
Zn31 O37 2.035 . S
Zn31 O38 2.028 . S
O32 C28 1.258 . S
O32 Zn33 2.035 . S
Zn33 O32 2.035 . S
Zn33 O34 2.028 . S
Zn33 O36 2.028 . S
Zn33 O39 2.035 . S
O34 Zn33 2.028 . S
O34 C40 1.247 . S
O35 Zn31 2.035 . S
O35 C40 1.258 . S
O36 C29 1.247 . S
O36 Zn33 2.028 . S
O37 C29 1.258 . S
O37 Zn31 2.035 . S
O38 Zn31 2.028 . S
O38 C41 1.247 . S
O39 Zn33 2.035 . S
O39 C41 1.258 . S
C40 O34 1.247 . S
C40 O35 1.258 . S
C41 O38 1.247 . S
C41 O39 1.258 . S
C42 O44 1.247 . S
C42 O46 1.258 . S
C43 O50 1.247 . S
C43 O51 1.258 . S
O44 C42 1.247 . S
O44 Zn45 2.028 . S
Zn45 O44 2.028 . S
Zn45 O49 2.035 . S
Zn45 O51 2.035 . S
Zn45 O52 2.028 . S
O46 C42 1.258 . S
O46 Zn47 2.035 . S
Zn47 O46 2.035 . S
Zn47 O48 2.028 . S
Zn47 O50 2.028 . S
Zn47 O53 2.035 . S
O48 Zn47 2.028 . S
O48 C54 1.247 . S
O49 Zn45 2.035 . S
O49 C54 1.258 . S
O50 C43 1.247 . S
O50 Zn47 2.028 . S
O51 C43 1.258 . S
O51 Zn45 2.035 . S
O52 Zn45 2.028 . S
O52 C55 1.247 . S
O53 Zn47 2.035 . S
O53 C55 1.258 . S
C54 O48 1.247 . S
C54 O49 1.258 . S
C55 O52 1.247 . S
C55 O53 1.258 . S
C56 O58 1.247 . S
C56 O60 1.258 . S
C57 O64 1.247 1_655 S
C57 O65 1.258 . S
O58 C56 1.247 . S
O58 Zn59 2.028 1_455 S
Zn59 O58 2.028 1_655 S
Zn59 O63 2.035 . S
Zn59 O65 2.035 . S
Zn59 O66 2.028 . S
O60 C56 1.258 . S
O60 Zn61 2.035 . S
Zn61 O60 2.035 . S
Zn61 O62 2.028 . S
Zn61 O64 2.028 . S
Zn61 O67 2.035 . S
O62 Zn61 2.028 . S
O62 C68 1.247 . S
O63 Zn59 2.035 . S
O63 C68 1.258 1_655 S
O64 C57 1.247 1_455 S
O64 Zn61 2.028 . S
O65 C57 1.258 . S
O65 Zn59 2.035 . S
O66 Zn59 2.028 . S
O66 C69 1.247 1_655 S
O67 Zn61 2.035 . S
O67 C69 1.258 . S
C68 O62 1.247 . S
C68 O63 1.258 1_455 S
C69 O66 1.247 1_455 S
C69 O67 1.258 . S
C70 O72 1.247 . S
C70 O74 1.258 . S
C71 O78 1.247 . S
C71 O79 1.258 . S
O72 C70 1.247 . S
O72 Zn73 2.028 . S
Zn73 O72 2.028 . S
Zn73 O77 2.035 . S
Zn73 O79 2.035 . S
Zn73 O80 2.028 . S
O74 C70 1.258 . S
O74 Zn75 2.035 . S
Zn75 O74 2.035 . S
Zn75 O76 2.028 . S
Zn75 O78 2.028 . S
Zn75 O81 2.035 . S
O76 Zn75 2.028 . S
O76 C82 1.247 . S
O77 Zn73 2.035 . S
O77 C82 1.258 . S
O78 C71 1.247 . S
O78 Zn75 2.028 . S
O79 C71 1.258 . S
O79 Zn73 2.035 . S
O80 Zn73 2.028 . S
O80 C83 1.247 . S
O81 Zn75 2.035 . S
O81 C83 1.258 . S
C82 O76 1.247 . S
C82 O77 1.258 . S
C83 O80 1.247 . S
C83 O81 1.258 . S
C84 O86 1.247 . S
C84 O88 1.258 . S
C85 O92 1.247 . S
C85 O93 1.258 . S
O86 C84 1.247 . S
O86 Zn87 2.028 1_554 S
Zn87 O86 2.028 1_556 S
Zn87 O91 2.035 . S
Zn87 O93 2.035 . S
Zn87 O94 2.028 . S
O88 C84 1.258 . S
O88 Zn89 2.035 1_554 S
Zn89 O88 2.035 1_556 S
Zn89 O90 2.028 . S
Zn89 O92 2.028 . S
Zn89 O95 2.035 . S
O90 Zn89 2.028 . S
O90 C96 1.247 . S
O91 Zn87 2.035 . S
O91 C96 1.258 . S
O92 C85 1.247 . S
O92 Zn89 2.028 . S
O93 C85 1.258 . S
O93 Zn87 2.035 . S
O94 Zn87 2.028 . S
O94 C97 1.247 . S
O95 Zn89 2.035 . S
O95 C97 1.258 . S
C96 O90 1.247 . S
C96 O91 1.258 . S
C97 O94 1.247 . S
C97 O95 1.258 . S
C98 O100 1.247 . S
C98 O102 1.258 . S
C99 O106 1.247 . S
C99 O107 1.258 . S
O100 C98 1.247 . S
O100 Zn101 2.028 . S
Zn101 O100 2.028 . S
Zn101 O105 2.035 . S
Zn101 O107 2.035 . S
Zn101 O108 2.028 . S
O102 C98 1.258 . S
O102 Zn103 2.035 . S
Zn103 O102 2.035 . S
Zn103 O104 2.028 . S
Zn103 O106 2.028 . S
Zn103 O109 2.035 . S
O104 Zn103 2.028 . S
O104 C110 1.247 . S
O105 Zn101 2.035 . S
O105 C110 1.258 . S
O106 C99 1.247 . S
O106 Zn103 2.028 . S
O107 C99 1.258 . S
O107 Zn101 2.035 . S
O108 Zn101 2.028 . S
O108 C111 1.247 . S
O109 Zn103 2.035 . S
O109 C111 1.258 . S
C110 O104 1.247 . S
C110 O105 1.258 . S
C111 O108 1.247 . S
C111 O109 1.258 . S
C112 O114 1.247 1_655 S
C112 O116 1.258 . S
C113 O120 1.247 . S
C113 O121 1.258 1_655 S
O114 C112 1.247 1_455 S
O114 Zn115 2.028 1_554 S
Zn115 O114 2.028 1_556 S
Zn115 O119 2.035 1_455 S
Zn115 O121 2.035 . S
Zn115 O122 2.028 . S
O116 C112 1.258 . S
O116 Zn117 2.035 1_554 S
Zn117 O116 2.035 1_556 S
Zn117 O118 2.028 . S
Zn117 O120 2.028 . S
Zn117 O123 2.035 . S
O118 Zn117 2.028 . S
O118 C124 1.247 . S
O119 Zn115 2.035 1_655 S
O119 C124 1.258 . S
O120 C113 1.247 . S
O120 Zn117 2.028 . S
O121 C113 1.258 1_455 S
O121 Zn115 2.035 . S
O122 Zn115 2.028 . S
O122 C125 1.247 . S
O123 Zn117 2.035 . S
O123 C125 1.258 1_655 S
C124 O118 1.247 . S
C124 O119 1.258 . S
C125 O122 1.247 . S
C125 O123 1.258 1_455 S
C126 O128 1.247 . S
C126 O130 1.258 . S
C127 O134 1.247 . S
C127 O135 1.258 . S
O128 C126 1.247 . S
O128 Zn129 2.028 . S
Zn129 O128 2.028 . S
Zn129 O133 2.035 . S
Zn129 O135 2.035 . S
Zn129 O136 2.028 . S
O130 C126 1.258 . S
O130 Zn131 2.035 . S
Zn131 O130 2.035 . S
Zn131 O132 2.028 . S
Zn131 O134 2.028 . S
Zn131 O137 2.035 . S
O132 Zn131 2.028 . S
O132 C138 1.247 . S
O133 Zn129 2.035 . S
O133 C138 1.258 . S
O134 C127 1.247 . S
O134 Zn131 2.028 . S
O135 C127 1.258 . S
O135 Zn129 2.035 . S
O136 Zn129 2.028 . S
O136 C139 1.247 . S
O137 Zn131 2.035 . S
O137 C139 1.258 . S
C138 O132 1.247 . S
C138 O133 1.258 . S
C139 O136 1.247 . S
C139 O137 1.258 . S
C140 O142 1.247 . S
C140 O144 1.258 . S
C141 O148 1.247 . S
C141 O149 1.258 . S
O142 C140 1.247 . S
O142 Zn143 2.028 . S
Zn143 O142 2.028 . S
Zn143 O147 2.035 . S
Zn143 O149 2.035 . S
Zn143 O150 2.028 . S
O144 C140 1.258 . S
O144 Zn145 2.035 . S
Zn145 O144 2.035 . S
Zn145 O146 2.028 . S
Zn145 O148 2.028 . S
Zn145 O151 2.035 . S
O146 Zn145 2.028 . S
O146 C152 1.247 . S
O147 Zn143 2.035 . S
O147 C152 1.258 . S
O148 C141 1.247 . S
O148 Zn145 2.028 . S
O149 C141 1.258 . S
O149 Zn143 2.035 . S
O150 Zn143 2.028 . S
O150 C153 1.247 . S
O151 Zn145 2.035 . S
O151 C153 1.258 . S
C152 O146 1.247 . S
C152 O147 1.258 . S
C153 O150 1.247 . S
C153 O151 1.258 . S
C154 O156 1.247 . S
C154 O158 1.258 . S
C155 O162 1.247 . S
C155 O163 1.258 . S
O156 C154 1.247 . S
O156 Zn157 2.028 . S
Zn157 O156 2.028 . S
Zn157 O161 2.035 . S
Zn157 O163 2.035 . S
Zn157 O164 2.028 . S
O158 C154 1.258 . S
O158 Zn159 2.035 . S
Zn159 O158 2.035 . S
Zn159 O160 2.028 . S
Zn159 O162 2.028 . S
Zn159 O165 2.035 . S
O160 Zn159 2.028 . S
O160 C166 1.247 . S
O161 Zn157 2.035 . S
O161 C166 1.258 . S
O162 C155 1.247 . S
O162 Zn159 2.028 . S
O163 C155 1.258 . S
O163 Zn157 2.035 . S
O164 Zn157 2.028 . S
O164 C167 1.247 . S
O165 Zn159 2.035 . S
O165 C167 1.258 . S
C166 O160 1.247 . S
C166 O161 1.258 . S
C167 O164 1.247 . S
C167 O165 1.258 . S
C168 O170 1.247 . S
C168 O172 1.258 . S
C169 O176 1.247 . S
C169 O177 1.258 1_455 S
O170 C168 1.247 . S
O170 Zn171 2.028 . S
Zn171 O170 2.028 . S
Zn171 O175 2.035 . S
Zn171 O177 2.035 . S
Zn171 O178 2.028 . S
O172 C168 1.258 . S
O172 Zn173 2.035 1_655 S
Zn173 O172 2.035 1_455 S
Zn173 O174 2.028 . S
Zn173 O176 2.028 . S
Zn173 O179 2.035 . S
O174 Zn173 2.028 . S
O174 C180 1.247 1_455 S
O175 Zn171 2.035 . S
O175 C180 1.258 . S
O176 C169 1.247 . S
O176 Zn173 2.028 . S
O177 C169 1.258 1_655 S
O177 Zn171 2.035 . S
O178 Zn171 2.028 . S
O178 C181 1.247 . S
O179 Zn173 2.035 . S
O179 C181 1.258 1_455 S
C180 O174 1.247 1_655 S
C180 O175 1.258 . S
C181 O178 1.247 . S
C181 O179 1.258 1_655 S
C182 O184 1.247 . S
C182 O186 1.258 . S
C183 O190 1.247 . S
C183 O191 1.258 . S
O184 C182 1.247 . S
O184 Zn185 2.028 . S
Zn185 O184 2.028 . S
Zn185 O189 2.035 . S
Zn185 O191 2.035 . S
Zn185 O192 2.028 . S
O186 C182 1.258 . S
O186 Zn187 2.035 . S
Zn187 O186 2.035 . S
Zn187 O188 2.028 . S
Zn187 O190 2.028 . S
Zn187 O193 2.035 . S
O188 Zn187 2.028 . S
O188 C194 1.247 . S
O189 Zn185 2.035 . S
O189 C194 1.258 . S
O190 C183 1.247 . S
O190 Zn187 2.028 . S
O191 C183 1.258 . S
O191 Zn185 2.035 . S
O192 Zn185 2.028 . S
O192 C195 1.247 . S
O193 Zn187 2.035 . S
O193 C195 1.258 . S
C194 O188 1.247 . S
C194 O189 1.258 . S
C195 O192 1.247 . S
C195 O193 1.258 . S
C196 O198 1.247 . S
C196 O200 1.258 . S
C197 O204 1.247 . S
C197 O205 1.258 . S
O198 C196 1.247 . S
O198 Zn199 2.028 . S
Zn199 O198 2.028 . S
Zn199 O203 2.035 . S
Zn199 O205 2.035 1_554 S
Zn199 O206 2.028 . S
O200 C196 1.258 . S
O200 Zn201 2.035 . S
Zn201 O200 2.035 . S
Zn201 O202 2.028 . S
Zn201 O204 2.028 1_554 S
Zn201 O207 2.035 . S
O202 Zn201 2.028 . S
O202 C208 1.247 . S
O203 Zn199 2.035 . S
O203 C208 1.258 . S
O204 C197 1.247 . S
O204 Zn201 2.028 1_556 S
O205 C197 1.258 . S
O205 Zn199 2.035 1_556 S
O206 Zn199 2.028 . S
O206 C209 1.247 . S
O207 Zn201 2.035 . S
O207 C209 1.258 . S
C208 O202 1.247 . S
C208 O203 1.258 . S
C209 O206 1.247 . S
C209 O207 1.258 . S
C210 O212 1.247 . S
C210 O214 1.258 . S
C211 O218 1.247 . S
C211 O219 1.258 . S
O212 C210 1.247 . S
O212 Zn213 2.028 . S
Zn213 O212 2.028 . S
Zn213 O217 2.035 . S
Zn213 O219 2.035 . S
Zn213 O220 2.028 . S
O214 C210 1.258 . S
O214 Zn215 2.035 . S
Zn215 O214 2.035 . S
Zn215 O216 2.028 . S
Zn215 O218 2.028 . S
Zn215 O221 2.035 . S
O216 Zn215 2.028 . S
O216 C222 1.247 . S
O217 Zn213 2.035 . S
O217 C222 1.258 . S
O218 C211 1.247 . S
O218 Zn215 2.028 . S
O219 C211 1.258 . S
O219 Zn213 2.035 . S
O220 Zn213 2.028 . S
O220 C223 1.247 . S
O221 Zn215 2.035 . S
O221 C223 1.258 . S
C222 O216 1.247 . S
C222 O217 1.258 . S
C223 O220 1.247 . S
C223 O221 1.258 . S
C224 O226 1.247 . S
C224 O228 1.258 . S
C225 O232 1.247 . S
C225 O233 1.258 . S
O226 C224 1.247 . S
O226 Zn227 2.028 . S
Zn227 O226 2.028 . S
Zn227 O231 2.035 . S
Zn227 O233 2.035 . S
Zn227 O234 2.028 . S
O228 C224 1.258 . S
O228 Zn229 2.035 . S
Zn229 O228 2.035 . S
Zn229 O230 2.028 . S
Zn229 O232 2.028 . S
Zn229 O235 2.035 . S
O230 Zn229 2.028 . S
O230 C236 1.247 . S
O231 Zn227 2.035 . S
O231 C236 1.258 . S
O232 C225 1.247 . S
O232 Zn229 2.028 . S
O233 C225 1.258 . S
O233 Zn227 2.035 . S
O234 Zn227 2.028 . S
O234 C237 1.247 . S
O235 Zn229 2.035 . S
O235 C237 1.258 . S
C236 O230 1.247 . S
C236 O231 1.258 . S
C237 O234 1.247 . S
C237 O235 1.258 . S
C238 O240 1.247 . S
C238 O242 1.258 . S
C239 O246 1.247 . S
C239 O247 1.258 . S
O240 C238 1.247 . S
O240 Zn241 2.028 . S
Zn241 O240 2.028 . S
Zn241 O245 2.035 . S
Zn241 O247 2.035 . S
Zn241 O248 2.028 . S
O242 C238 1.258 . S
O242 Zn243 2.035 . S
Zn243 O242 2.035 . S
Zn243 O244 2.028 . S
Zn243 O246 2.028 . S
Zn243 O249 2.035 . S
O244 Zn243 2.028 . S
O244 C250 1.247 . S
O245 Zn241 2.035 . S
O245 C250 1.258 . S
O246 C239 1.247 . S
O246 Zn243 2.028 . S
O247 C239 1.258 . S
O247 Zn241 2.035 . S
O248 Zn241 2.028 . S
O248 C251 1.247 . S
O249 Zn243 2.035 . S
O249 C251 1.258 . S
C250 O244 1.247 . S
C250 O245 1.258 . S
C251 O248 1.247 . S
C251 O249 1.258 . S
C252 O254 1.247 . S
C252 O256 1.258 1_655 S
C253 O260 1.247 1_655 S
C253 O261 1.258 . S
O254 C252 1.247 . S
O254 Zn255 2.028 1_556 S
Zn255 O254 2.028 1_554 S
Zn255 O259 2.035 . S
Zn255 O261 2.035 . S
Zn255 O262 2.028 . S
O256 C252 1.258 1_455 S
O256 Zn257 2.035 1_556 S
Zn257 O256 2.035 1_554 S
Zn257 O258 2.028 1_455 S
Zn257 O260 2.028 . S
Zn257 O263 2.035 . S
O258 Zn257 2.028 1_655 S
O258 C264 1.247 . S
O259 Zn255 2.035 . S
O259 C264 1.258 . S
O260 C253 1.247 1_455 S
O260 Zn257 2.028 . S
O261 C253 1.258 . S
O261 Zn255 2.035 . S
O262 Zn255 2.028 . S
O262 C265 1.247 1_655 S
O263 Zn257 2.035 . S
O263 C265 1.258 . S
C264 O258 1.247 . S
C264 O259 1.258 . S
C265 O262 1.247 1_455 S
C265 O263 1.258 . S
C266 O268 1.247 . S
C266 O270 1.258 . S
C267 O274 1.247 . S
C267 O275 1.258 . S
O268 C266 1.247 . S
O268 Zn269 2.028 . S
Zn269 O268 2.028 . S
Zn269 O273 2.035 . S
Zn269 O275 2.035 . S
Zn269 O276 2.028 . S
O270 C266 1.258 . S
O270 Zn271 2.035 . S
Zn271 O270 2.035 . S
Zn271 O272 2.028 . S
Zn271 O274 2.028 . S
Zn271 O277 2.035 . S
O272 Zn271 2.028 . S
O272 C278 1.247 . S
O273 Zn269 2.035 . S
O273 C278 1.258 . S
O274 C267 1.247 . S
O274 Zn271 2.028 . S
O275 C267 1.258 . S
O275 Zn269 2.035 . S
O276 Zn269 2.028 . S
O276 C279 1.247 . S
O277 Zn271 2.035 . S
O277 C279 1.258 . S
C278 O272 1.247 . S
C278 O273 1.258 . S
C279 O276 1.247 . S
C279 O277 1.258 . S
C280 O282 1.247 . S
C280 O284 1.258 . S
C281 O288 1.247 . S
C281 O289 1.258 . S
O282 C280 1.247 . S
O282 Zn283 2.028 1_554 S
Zn283 O282 2.028 1_556 S
Zn283 O287 2.035 . S
Zn283 O289 2.035 . S
Zn283 O290 2.028 . S
O284 C280 1.258 . S
O284 Zn285 2.035 1_554 S
Zn285 O284 2.035 1_556 S
Zn285 O286 2.028 . S
Zn285 O288 2.028 . S
Zn285 O291 2.035 . S
O286 Zn285 2.028 . S
O286 C292 1.247 . S
O287 Zn283 2.035 . S
O287 C292 1.258 . S
O288 C281 1.247 . S
O288 Zn285 2.028 . S
O289 C281 1.258 . S
O289 Zn283 2.035 . S
O290 Zn283 2.028 . S
O290 C293 1.247 . S
O291 Zn285 2.035 . S
O291 C293 1.258 . S
C292 O286 1.247 . S
C292 O287 1.258 . S
C293 O290 1.247 . S
C293 O291 1.258 . S
C294 O296 1.247 . S
C294 O298 1.258 . S
C295 O302 1.247 . S
C295 O303 1.258 . S
O296 C294 1.247 . S
O296 Zn297 2.028 . S
Zn297 O296 2.028 . S
Zn297 O301 2.035 . S
Zn297 O303 2.035 . S
Zn297 O304 2.028 . S
O298 C294 1.258 . S
O298 Zn299 2.035 . S
Zn299 O298 2.035 . S
Zn299 O300 2.028 . S
Zn299 O302 2.028 . S
Zn299 O305 2.035 . S
O300 Zn299 2.028 . S
O300 C306 1.247 . S
O301 Zn297 2.035 . S
O301 C306 1.258 . S
O302 C295 1.247 . S
O302 Zn299 2.028 . S
O303 C295 1.258 . S
O303 Zn297 2.035 . S
O304 Zn297 2.028 . S
O304 C307 1.247 . S
O305 Zn299 2.035 . S
O305 C307 1.258 . S
C306 O300 1.247 . S
C306 O301 1.258 . S
C307 O304 1.247 . S
C307 O305 1.258 . S
C308 O310 1.247 . S
C308 O312 1.258 . S
C309 O316 1.247 1_455 S
C309 O317 1.258 . S
O310 C308 1.247 . S
O310 Zn311 2.028 1_655 S
Zn311 O310 2.028 1_455 S
Zn311 O315 2.035 . S
Zn311 O317 2.035 . S
Zn311 O318 2.028 . S
O312 C308 1.258 . S
O312 Zn313 2.035 . S
Zn313 O312 2.035 . S
Zn313 O314 2.028 . S
Zn313 O316 2.028 . S
Zn313 O319 2.035 . S
O314 Zn313 2.028 . S
O314 C320 1.247 . S
O315 Zn311 2.035 . S
O315 C320 1.258 1_455 S
O316 C309 1.247 1_655 S
O316 Zn313 2.028 . S
O317 C309 1.258 . S
O317 Zn311 2.035 . S
O318 Zn311 2.028 . S
O318 C321 1.247 1_455 S
O319 Zn313 2.035 . S
O319 C321 1.258 . S
C320 O314 1.247 . S
C320 O315 1.258 1_655 S
C321 O318 1.247 1_655 S
C321 O319 1.258 . S
C322 O324 1.247 . S
C322 O326 1.258 . S
C323 O330 1.247 . S
C323 O331 1.258 . S
O324 C322 1.247 . S
O324 Zn325 2.028 . S
Zn325 O324 2.028 . S
Zn325 O329 2.035 . S
Zn325 O331 2.035 . S
Zn325 O332 2.028 . S
O326 C322 1.258 . S
O326 Zn327 2.035 . S
Zn327 O326 2.035 . S
Zn327 O328 2.028 . S
Zn327 O330 2.028 . S
Zn327 O333 2.035 . S
O328 Zn327 2.028 . S
O328 C334 1.247 . S
O329 Zn325 2.035 . S
O329 C334 1.258 . S
O330 C323 1.247 . S
O330 Zn327 2.028 . S
O331 C323 1.258 . S
O331 Zn325 2.035 . S
O332 Zn325 2.028 . S
O332 C335 1.247 . S
O333 Zn327 2.035 . S
O333 C335 1.258 . S
C334 O328 1.247 . S
C334 O329 1.258 . S
C335 O332 1.247 . S
C335 O333 1.258 . S
C336 O338 1.247 . S
C336 O340 1.258 . S
C337 O344 1.247 . S
C337 O345 1.258 . S
O338 C336 1.247 . S
O338 Zn339 2.028 . S
Zn339 O338 2.028 . S
Zn339 O343 2.035 . S
Zn339 O345 2.035 . S
Zn339 O346 2.028 . S
O340 C336 1.258 . S
O340 Zn341 2.035 . S
Zn341 O340 2.035 . S
Zn341 O342 2.028 . S
Zn341 O344 2.028 . S
Zn341 O347 2.035 . S
O342 Zn341 2.028 . S
O342 C348 1.247 . S
O343 Zn339 2.035 . S
O343 C348 1.258 . S
O344 C337 1.247 . S
O344 Zn341 2.028 . S
O345 C337 1.258 . S
O345 Zn339 2.035 . S
O346 Zn339 2.028 . S
O346 C349 1.247 . S
O347 Zn341 2.035 . S
O347 C349 1.258 . S
C348 O342 1.247 . S
C348 O343 1.258 . S
C349 O346 1.247 . S
C349 O347 1.258 . S
C350 O352 1.247 . S
C350 O354 1.258 . S
C351 O358 1.247 . S
C351 O359 1.258 . S
O352 C350 1.247 . S
O352 Zn353 2.028 . S
Zn353 O352 2.028 . S
Zn353 O357 2.035 . S
Zn353 O359 2.035 . S
Zn353 O360 2.028 . S
O354 C350 1.258 . S
O354 Zn355 2.035 . S
Zn355 O354 2.035 . S
Zn355 O356 2.028 . S
Zn355 O358 2.028 . S
Zn355 O361 2.035 . S
O356 Zn355 2.028 . S
O356 C362 1.247 . S
O357 Zn353 2.035 . S
O357 C362 1.258 . S
O358 C351 1.247 . S
O358 Zn355 2.028 . S
O359 C351 1.258 . S
O359 Zn353 2.035 . S
O360 Zn353 2.028 . S
O360 C363 1.247 . S
O361 Zn355 2.035 . S
O361 C363 1.258 . S
C362 O356 1.247 . S
C362 O357 1.258 . S
C363 O360 1.247 . S
C363 O361 1.258 . S
C364 O366 1.247 . S
C364 O368 1.258 . S
C365 O372 1.247 . S
C365 O373 1.258 1_655 S
O366 C364 1.247 . S
O366 Zn367 2.028 . S
Zn367 O366 2.028 . S
Zn367 O371 2.035 1_556 S
Zn367 O373 2.035 . S
Zn367 O374 2.028 . S
O368 C364 1.258 . S
O368 Zn369 2.035 1_455 S
Zn369 O368 2.035 1_655 S
Zn369 O370 2.028 1_556 S
Zn369 O372 2.028 . S
Zn369 O375 2.035 . S
O370 Zn369 2.028 1_554 S
O370 C376 1.247 1_655 S
O371 Zn367 2.035 1_554 S
O371 C376 1.258 . S
O372 C365 1.247 . S
O372 Zn369 2.028 . S
O373 C365 1.258 1_455 S
O373 Zn367 2.035 . S
O374 Zn367 2.028 . S
O374 C377 1.247 . S
O375 Zn369 2.035 . S
O375 C377 1.258 1_655 S
C376 O370 1.247 1_455 S
C376 O371 1.258 . S
C377 O374 1.247 . S
C377 O375 1.258 1_455 S
C378 O380 1.247 . S
C378 O382 1.258 . S
C379 O386 1.247 . S
C379 O387 1.258 . S
O380 C378 1.247 . S
O380 Zn381 2.028 . S
Zn381 O380 2.028 . S
Zn381 O385 2.035 . S
Zn381 O387 2.035 . S
Zn381 O388 2.028 . S
O382 C378 1.258 . S
O382 Zn383 2.035 . S
Zn383 O382 2.035 . S
Zn383 O384 2.028 . S
Zn383 O386 2.028 . S
Zn383 O389 2.035 . S
O384 Zn383 2.028 . S
O384 C390 1.247 . S
O385 Zn381 2.035 . S
O385 C390 1.258 . S
O386 C379 1.247 . S
O386 Zn383 2.028 . S
O387 C379 1.258 . S
O387 Zn381 2.035 . S
O388 Zn381 2.028 . S
O388 C391 1.247 . S
O389 Zn383 2.035 . S
O389 C391 1.258 . S
C390 O384 1.247 . S
C390 O385 1.258 . S
C391 O388 1.247 . S
C391 O389 1.258 . S
C392 O394 1.247 . S
C392 O396 1.258 . S
C393 O400 1.247 . S
C393 O401 1.258 . S
O394 C392 1.247 . S
O394 Zn395 2.028 . S
Zn395 O394 2.028 . S
Zn395 O399 2.035 . S
Zn395 O401 2.035 1_554 S
Zn395 O402 2.028 . S
O396 C392 1.258 . S
O396 Zn397 2.035 . S
Zn397 O396 2.035 . S
Zn397 O398 2.028 . S
Zn397 O400 2.028 1_554 S
Zn397 O403 2.035 . S
O398 Zn397 2.028 . S
O398 C404 1.247 . S
O399 Zn395 2.035 . S
O399 C404 1.258 . S
O400 C393 1.247 . S
O400 Zn397 2.028 1_556 S
O401 C393 1.258 . S
O401 Zn395 2.035 1_556 S
O402 Zn395 2.028 . S
O402 C405 1.247 . S
O403 Zn397 2.035 . S
O403 C405 1.258 . S
C404 O398 1.247 . S
C404 O399 1.258 . S
C405 O402 1.247 . S
C405 O403 1.258 . S
C406 O408 1.247 . S
C406 O410 1.258 . S
C407 O414 1.247 . S
C407 O415 1.258 . S
O408 C406 1.247 . S
O408 Zn409 2.028 . S
Zn409 O408 2.028 . S
Zn409 O413 2.035 . S
Zn409 O415 2.035 . S
Zn409 O416 2.028 . S
O410 C406 1.258 . S
O410 Zn411 2.035 . S
Zn411 O410 2.035 . S
Zn411 O412 2.028 . S
Zn411 O414 2.028 . S
Zn411 O417 2.035 . S
O412 Zn411 2.028 . S
O412 C418 1.247 . S
O413 Zn409 2.035 . S
O413 C418 1.258 . S
O414 C407 1.247 . S
O414 Zn411 2.028 . S
O415 C407 1.258 . S
O415 Zn409 2.035 . S
O416 Zn409 2.028 . S
O416 C419 1.247 . S
O417 Zn411 2.035 . S
O417 C419 1.258 . S
C418 O412 1.247 . S
C418 O413 1.258 . S
C419 O416 1.247 . S
C419 O417 1.258 . S
C420 O422 1.247 . S
C420 O424 1.258 . S
C421 O428 1.247 . S
C421 O429 1.258 1_655 S
O422 C420 1.247 . S
O422 Zn423 2.028 . S
Zn423 O422 2.028 . S
Zn423 O427 2.035 . S
Zn423 O429 2.035 . S
Zn423 O430 2.028 . S
O424 C420 1.258 . S
O424 Zn425 2.035 1_455 S
Zn425 O424 2.035 1_655 S
Zn425 O426 2.028 . S
Zn425 O428 2.028 . S
Zn425 O431 2.035 . S
O426 Zn425 2.028 . S
O426 C432 1.247 1_655 S
O427 Zn423 2.035 . S
O427 C432 1.258 . S
O428 C421 1.247 . S
O428 Zn425 2.028 . S
O429 C421 1.258 1_455 S
O429 Zn423 2.035 . S
O430 Zn423 2.028 . S
O430 C433 1.247 . S
O431 Zn425 2.035 . S
O431 C433 1.258 1_655 S
C432 O426 1.247 1_455 S
C432 O427 1.258 . S
C433 O430 1.247 . S
C433 O431 1.258 1_455 S
C434 O436 1.247 . S
C434 O438 1.258 . S
C435 O442 1.247 . S
C435 O443 1.258 . S
O436 C434 1.247 . S
O436 Zn437 2.028 . S
Zn437 O436 2.028 . S
Zn437 O441 2.035 . S
Zn437 O443 2.035 . S
Zn437 O444 2.028 . S
O438 C434 1.258 . S
O438 Zn439 2.035 . S
Zn439 O438 2.035 . S
Zn439 O440 2.028 . S
Zn439 O442 2.028 . S
Zn439 O445 2.035 . S
O440 Zn439 2.028 . S
O440 C446 1.247 . S
O441 Zn437 2.035 . S
O441 C446 1.258 . S
O442 C435 1.247 . S
O442 Zn439 2.028 . S
O443 C435 1.258 . S
O443 Zn437 2.035 . S
O444 Zn437 2.028 . S
O444 C447 1.247 . S
O445 Zn439 2.035 . S
O445 C447 1.258 . S
C446 O440 1.247 . S
C446 O441 1.258 . S
C447 O444 1.247 . S
C447 O445 1.258 . S
H448 C454 0.930 . S
H449 C458 0.919 1_655 S
H450 C463 0.929 . S
H451 C461 0.929 . S
H452 C456 0.929 . S
H453 C462 0.929 . S
C454 H448 0.930 . S
C454 C455 1.367 1_455 S
C454 C462 1.378 . S
C455 C454 1.367 1_655 S
C455 C463 1.433 . S
C456 H452 0.929 . S
C456 C458 1.371 1_655 S
C456 C460 1.350 1_655 S
C457 C460 1.459 1_655 S
C457 C462 1.343 1_655 S
C457 N465 1.439 . S
C458 H449 0.919 1_455 S
C458 C456 1.371 1_455 S
C458 C459 1.387 . S
C459 C458 1.387 . S
C459 C461 1.433 . S
C460 C456 1.350 1_455 S
C460 C457 1.459 1_455 S
C460 N464 1.427 . S
C461 H451 0.929 . S
C461 C459 1.433 . S
C461 N464 1.384 . S
C462 H453 0.929 . S
C462 C454 1.378 . S
C462 C457 1.343 1_455 S
C463 H450 0.929 . S
C463 C455 1.433 . S
C463 N465 1.384 . S
N464 C460 1.427 . S
N464 C461 1.384 . S
N465 C457 1.439 . S
N465 C463 1.384 . S
H466 C472 0.930 . S
H467 C476 0.930 . S
H468 C481 0.929 . S
H469 C479 0.929 . S
H470 C474 0.929 . S
H471 C480 0.929 . S
C472 H466 0.930 . S
C472 C473 1.367 . S
C472 C480 1.378 1_556 S
C473 C472 1.367 . S
C473 C481 1.433 . S
C474 H470 0.929 . S
C474 C476 1.378 . S
C474 C478 1.350 . S
C475 C478 1.463 . S
C475 C480 1.350 . S
C475 N483 1.427 . S
C476 H467 0.930 . S
C476 C474 1.378 . S
C476 C477 1.367 . S
C477 C476 1.367 . S
C477 C479 1.433 . S
C478 C474 1.350 . S
C478 C475 1.463 . S
C478 N482 1.427 . S
C479 H469 0.929 . S
C479 C477 1.433 . S
C479 N482 1.384 . S
C480 H471 0.929 . S
C480 C472 1.378 1_554 S
C480 C475 1.350 . S
C481 H468 0.929 . S
C481 C473 1.433 . S
C481 N483 1.384 1_556 S
N482 C478 1.427 . S
N482 C479 1.384 . S
N483 C475 1.427 . S
N483 C481 1.384 1_554 S
H484 C490 0.930 . S
H485 C494 0.930 . S
H486 C499 0.929 . S
H487 C497 0.929 . S
H488 C492 0.929 . S
H489 C498 0.929 . S
C490 H484 0.930 . S
C490 C491 1.367 . S
C490 C498 1.378 . S
C491 C490 1.367 . S
C491 C499 1.433 . S
C492 H488 0.929 . S
C492 C494 1.378 . S
C492 C496 1.350 . S
C493 C496 1.463 . S
C493 C498 1.350 . S
C493 N501 1.427 . S
C494 H485 0.930 . S
C494 C492 1.378 . S
C494 C495 1.367 . S
C495 C494 1.367 . S
C495 C497 1.433 . S
C496 C492 1.350 . S
C496 C493 1.463 . S
C496 N500 1.427 . S
C497 H487 0.929 . S
C497 C495 1.433 . S
C497 N500 1.384 . S
C498 H489 0.929 . S
C498 C490 1.378 . S
C498 C493 1.350 . S
C499 H486 0.929 . S
C499 C491 1.433 . S
C499 N501 1.384 . S
N500 C496 1.427 . S
N500 C497 1.384 . S
N501 C493 1.427 . S
N501 C499 1.384 . S
H502 C508 0.930 . S
H503 C512 0.930 . S
H504 C517 0.929 . S
H505 C515 0.929 . S
H506 C510 0.929 . S
H507 C516 0.929 . S
C508 H502 0.930 . S
C508 C509 1.367 . S
C508 C516 1.378 . S
C509 C508 1.367 . S
C509 C517 1.433 . S
C510 H506 0.929 . S
C510 C512 1.378 . S
C510 C514 1.350 . S
C511 C514 1.463 . S
C511 C516 1.350 . S
C511 N519 1.427 . S
C512 H503 0.930 . S
C512 C510 1.378 . S
C512 C513 1.367 . S
C513 C512 1.367 . S
C513 C515 1.433 . S
C514 C510 1.350 . S
C514 C511 1.463 . S
C514 N518 1.427 . S
C515 H505 0.929 . S
C515 C513 1.433 . S
C515 N518 1.384 . S
C516 H507 0.929 . S
C516 C508 1.378 . S
C516 C511 1.350 . S
C517 H504 0.929 . S
C517 C509 1.433 . S
C517 N519 1.384 . S
N518 C514 1.427 . S
N518 C515 1.384 . S
N519 C511 1.427 . S
N519 C517 1.384 . S
H520 C526 0.930 . S
H521 C530 0.930 . S
H522 C535 0.929 . S
H523 C533 0.922 1_655 S
H524 C528 0.929 . S
H525 C534 0.929 . S
C526 H520 0.930 . S
C526 C527 1.367 . S
C526 C534 1.378 . S
C527 C526 1.367 . S
C527 C535 1.433 1_655 S
C528 H524 0.929 . S
C528 C530 1.378 . S
C528 C532 1.350 . S
C529 C532 1.451 1_655 S
C529 C534 1.381 . S
C529 N537 1.409 1_655 S
C530 H521 0.930 . S
C530 C528 1.378 . S
C530 C531 1.367 . S
C531 C530 1.367 . S
C531 C533 1.446 . S
C532 C528 1.350 . S
C532 C529 1.451 1_455 S
C532 N536 1.427 1_455 S
C533 H523 0.922 1_455 S
C533 C531 1.446 . S
C533 N536 1.379 1_455 S
C534 H525 0.929 . S
C534 C526 1.378 . S
C534 C529 1.381 . S
C535 H522 0.929 . S
C535 C527 1.433 1_455 S
C535 N537 1.384 . S
N536 C532 1.427 1_655 S
N536 C533 1.379 1_655 S
N537 C529 1.409 1_455 S
N537 C535 1.384 . S
H538 C544 0.930 . S
H539 C548 0.930 . S
H540 C553 0.929 . S
H541 C551 0.929 . S
H542 C546 0.929 . S
H543 C552 0.929 . S
C544 H538 0.930 . S
C544 C545 1.367 . S
C544 C552 1.378 . S
C545 C544 1.367 . S
C545 C553 1.433 . S
C546 H542 0.929 . S
C546 C548 1.378 1_556 S
C546 C550 1.350 . S
C547 C550 1.463 . S
C547 C552 1.350 . S
C547 N555 1.427 . S
C548 H539 0.930 . S
C548 C546 1.378 1_554 S
C548 C549 1.367 . S
C549 C548 1.367 . S
C549 C551 1.433 . S
C550 C546 1.350 . S
C550 C547 1.463 . S
C550 N554 1.427 . S
C551 H541 0.929 . S
C551 C549 1.433 . S
C551 N554 1.384 1_554 S
C552 H543 0.929 . S
C552 C544 1.378 . S
C552 C547 1.350 . S
C553 H540 0.929 . S
C553 C545 1.433 . S
C553 N555 1.384 . S
N554 C550 1.427 . S
N554 C551 1.384 1_556 S
N555 C547 1.427 . S
N555 C553 1.384 . S
H556 C562 0.930 . S
H557 C566 0.930 . S
H558 C571 0.929 . S
H559 C569 0.929 . S
H560 C564 0.929 . S
H561 C570 0.929 . S
C562 H556 0.930 . S
C562 C563 1.367 . S
C562 C570 1.378 . S
C563 C562 1.367 . S
C563 C571 1.433 . S
C564 H560 0.929 . S
C564 C566 1.378 . S
C564 C568 1.350 . S
C565 C568 1.463 . S
C565 C570 1.350 . S
C565 N573 1.427 . S
C566 H557 0.930 . S
C566 C564 1.378 . S
C566 C567 1.367 . S
C567 C566 1.367 . S
C567 C569 1.433 . S
C568 C564 1.350 . S
C568 C565 1.463 . S
C568 N572 1.427 . S
C569 H559 0.929 . S
C569 C567 1.433 . S
C569 N572 1.384 . S
C570 H561 0.929 . S
C570 C562 1.378 . S
C570 C565 1.350 . S
C571 H558 0.929 . S
C571 C563 1.433 . S
C571 N573 1.384 . S
N572 C568 1.427 . S
N572 C569 1.384 . S
N573 C565 1.427 . S
N573 C571 1.384 . S
H574 C580 0.930 . S
H575 C584 0.930 . S
H576 C589 0.929 . S
H577 C587 0.929 . S
H578 C582 0.929 . S
H579 C588 0.929 . S
C580 H574 0.930 . S
C580 C581 1.367 . S
C580 C588 1.378 . S
C581 C580 1.367 . S
C581 C589 1.433 . S
C582 H578 0.929 . S
C582 C584 1.378 . S
C582 C586 1.350 . S
C583 C586 1.463 . S
C583 C588 1.350 . S
C583 N591 1.427 . S
C584 H575 0.930 . S
C584 C582 1.378 . S
C584 C585 1.367 . S
C585 C584 1.367 . S
C585 C587 1.433 . S
C586 C582 1.350 . S
C586 C583 1.463 . S
C586 N590 1.427 . S
C587 H577 0.929 . S
C587 C585 1.433 . S
C587 N590 1.384 . S
C588 H579 0.929 . S
C588 C580 1.378 . S
C588 C583 1.350 . S
C589 H576 0.929 . S
C589 C581 1.433 . S
C589 N591 1.384 . S
N590 C586 1.427 . S
N590 C587 1.384 . S
N591 C583 1.427 . S
N591 C589 1.384 . S
H592 C598 0.938 . S
H593 C602 0.930 1_455 S
H594 C607 0.929 . S
H595 C605 0.929 . S
H596 C600 0.929 . S
H597 C606 0.929 . S
C598 H592 0.938 . S
C598 C599 1.355 1_655 S
C598 C606 1.383 . S
C599 C598 1.355 1_455 S
C599 C607 1.433 . S
C600 H596 0.929 . S
C600 C602 1.378 1_455 S
C600 C604 1.350 1_455 S
C601 C604 1.458 1_455 S
C601 C606 1.344 1_455 S
C601 N609 1.439 . S
C602 H593 0.930 1_655 S
C602 C600 1.378 1_655 S
C602 C603 1.367 . S
C603 C602 1.367 . S
C603 C605 1.433 . S
C604 C600 1.350 1_655 S
C604 C601 1.458 1_655 S
C604 N608 1.427 . S
C605 H595 0.929 . S
C605 C603 1.433 . S
C605 N608 1.384 . S
C606 H597 0.929 . S
C606 C598 1.383 . S
C606 C601 1.344 1_655 S
C607 H594 0.929 . S
C607 C599 1.433 . S
C607 N609 1.384 . S
N608 C604 1.427 . S
N608 C605 1.384 . S
N609 C601 1.439 . S
N609 C607 1.384 . S
H610 C616 0.930 . S
H611 C620 0.930 . S
H612 C625 0.929 . S
H613 C623 0.929 . S
H614 C618 0.929 . S
H615 C624 0.929 . S
C616 H610 0.930 . S
C616 C617 1.367 . S
C616 C624 1.378 1_554 S
C617 C616 1.367 . S
C617 C625 1.433 . S
C618 H614 0.929 . S
C618 C620 1.378 . S
C618 C622 1.350 . S
C619 C622 1.463 . S
C619 C624 1.350 . S
C619 N627 1.427 . S
C620 H611 0.930 . S
C620 C618 1.378 . S
C620 C621 1.367 . S
C621 C620 1.367 . S
C621 C623 1.433 . S
C622 C618 1.350 . S
C622 C619 1.463 . S
C622 N626 1.427 . S
C623 H613 0.929 . S
C623 C621 1.433 . S
C623 N626 1.384 . S
C624 H615 0.929 . S
C624 C616 1.378 1_556 S
C624 C619 1.350 . S
C625 H612 0.929 . S
C625 C617 1.433 . S
C625 N627 1.384 1_554 S
N626 C622 1.427 . S
N626 C623 1.384 . S
N627 C619 1.427 . S
N627 C625 1.384 1_556 S
H628 C634 0.930 . S
H629 C638 0.930 . S
H630 C643 0.929 . S
H631 C641 0.929 . S
H632 C636 0.929 . S
H633 C642 0.929 . S
C634 H628 0.930 . S
C634 C635 1.367 . S
C634 C642 1.378 . S
C635 C634 1.367 . S
C635 C643 1.433 . S
C636 H632 0.929 . S
C636 C638 1.378 . S
C636 C640 1.350 . S
C637 C640 1.463 . S
C637 C642 1.350 . S
C637 N645 1.427 . S
C638 H629 0.930 . S
C638 C636 1.378 . S
C638 C639 1.367 . S
C639 C638 1.367 . S
C639 C641 1.433 . S
C640 C636 1.350 . S
C640 C637 1.463 . S
C640 N644 1.427 . S
C641 H631 0.929 . S
C641 C639 1.433 . S
C641 N644 1.384 . S
C642 H633 0.929 . S
C642 C634 1.378 . S
C642 C637 1.350 . S
C643 H630 0.929 . S
C643 C635 1.433 . S
C643 N645 1.384 . S
N644 C640 1.427 . S
N644 C641 1.384 . S
N645 C637 1.427 . S
N645 C643 1.384 . S
H646 C652 0.930 . S
H647 C656 0.930 . S
H648 C661 0.929 . S
H649 C659 0.929 . S
H650 C654 0.929 . S
H651 C660 0.929 . S
C652 H646 0.930 . S
C652 C653 1.367 . S
C652 C660 1.378 . S
C653 C652 1.367 . S
C653 C661 1.433 . S
C654 H650 0.929 . S
C654 C656 1.378 . S
C654 C658 1.350 . S
C655 C658 1.463 . S
C655 C660 1.350 . S
C655 N663 1.427 . S
C656 H647 0.930 . S
C656 C654 1.378 . S
C656 C657 1.367 . S
C657 C656 1.367 . S
C657 C659 1.433 . S
C658 C654 1.350 . S
C658 C655 1.463 . S
C658 N662 1.427 . S
C659 H649 0.929 . S
C659 C657 1.433 . S
C659 N662 1.384 . S
C660 H651 0.929 . S
C660 C652 1.378 . S
C660 C655 1.350 . S
C661 H648 0.929 . S
C661 C653 1.433 . S
C661 N663 1.384 . S
N662 C658 1.427 . S
N662 C659 1.384 . S
N663 C655 1.427 . S
N663 C661 1.384 . S
H664 C670 0.930 . S
H665 C674 0.930 . S
H666 C679 0.949 . S
H667 C677 0.929 . S
H668 C672 0.929 . S
H669 C678 0.929 . S
C670 H664 0.930 . S
C670 C671 1.367 . S
C670 C678 1.378 . S
C671 C670 1.367 . S
C671 C679 1.405 1_655 S
C672 H668 0.929 . S
C672 C674 1.378 . S
C672 C676 1.387 . S
C673 C676 1.450 1_655 S
C673 C678 1.350 . S
C673 N681 1.427 1_655 S
C674 H665 0.930 . S
C674 C672 1.378 . S
C674 C675 1.367 . S
C675 C674 1.367 . S
C675 C677 1.433 1_455 S
C676 C672 1.387 . S
C676 C673 1.450 1_455 S
C676 N680 1.404 1_455 S
C677 H667 0.929 . S
C677 C675 1.433 1_655 S
C677 N680 1.384 . S
C678 H669 0.929 . S
C678 C670 1.378 . S
C678 C673 1.350 . S
C679 H666 0.949 . S
C679 C671 1.405 1_455 S
C679 N681 1.394 . S
N680 C676 1.404 1_655 S
N680 C677 1.384 . S
N681 C673 1.427 1_455 S
N681 C679 1.394 . S
H682 C688 0.930 . S
H683 C692 0.930 . S
H684 C697 0.929 . S
H685 C695 0.929 . S
H686 C690 0.929 . S
H687 C696 0.929 . S
C688 H682 0.930 . S
C688 C689 1.367 . S
C688 C696 1.378 . S
C689 C688 1.367 . S
C689 C697 1.433 . S
C690 H686 0.929 . S
C690 C692 1.378 1_554 S
C690 C694 1.350 . S
C691 C694 1.463 . S
C691 C696 1.350 . S
C691 N699 1.427 . S
C692 H683 0.930 . S
C692 C690 1.378 1_556 S
C692 C693 1.367 . S
C693 C692 1.367 . S
C693 C695 1.433 . S
C694 C690 1.350 . S
C694 C691 1.463 . S
C694 N698 1.427 . S
C695 H685 0.929 . S
C695 C693 1.433 . S
C695 N698 1.384 1_556 S
C696 H687 0.929 . S
C696 C688 1.378 . S
C696 C691 1.350 . S
C697 H684 0.929 . S
C697 C689 1.433 . S
C697 N699 1.384 . S
N698 C694 1.427 . S
N698 C695 1.384 1_554 S
N699 C691 1.427 . S
N699 C697 1.384 . S
H700 C706 0.930 . S
H701 C710 0.930 . S
H702 C715 0.929 . S
H703 C713 0.929 . S
H704 C708 0.929 . S
H705 C714 0.929 . S
C706 H700 0.930 . S
C706 C707 1.367 . S
C706 C714 1.378 . S
C707 C706 1.367 . S
C707 C715 1.433 . S
C708 H704 0.929 . S
C708 C710 1.378 . S
C708 C712 1.350 . S
C709 C712 1.463 . S
C709 C714 1.350 . S
C709 N717 1.427 . S
C710 H701 0.930 . S
C710 C708 1.378 . S
C710 C711 1.367 . S
C711 C710 1.367 . S
C711 C713 1.433 . S
C712 C708 1.350 . S
C712 C709 1.463 . S
C712 N716 1.427 . S
C713 H703 0.929 . S
C713 C711 1.433 . S
C713 N716 1.384 . S
C714 H705 0.929 . S
C714 C706 1.378 . S
C714 C709 1.350 . S
C715 H702 0.929 . S
C715 C707 1.433 . S
C715 N717 1.384 . S
N716 C712 1.427 . S
N716 C713 1.384 . S
N717 C709 1.427 . S
N717 C715 1.384 . S
H718 C724 0.930 . S
H719 C728 0.930 . S
H720 C733 0.929 . S
H721 C731 0.929 . S
H722 C726 0.929 . S
H723 C732 0.929 . S
C724 H718 0.930 . S
C724 C725 1.367 . S
C724 C732 1.378 . S
C725 C724 1.367 . S
C725 C733 1.433 . S
C726 H722 0.929 . S
C726 C728 1.378 . S
C726 C730 1.350 . S
C727 C730 1.463 . S
C727 C732 1.350 . S
C727 N735 1.427 . S
C728 H719 0.930 . S
C728 C726 1.378 . S
C728 C729 1.367 . S
C729 C728 1.367 . S
C729 C731 1.433 . S
C730 C726 1.350 . S
C730 C727 1.463 . S
C730 N734 1.427 . S
C731 H721 0.929 . S
C731 C729 1.433 . S
C731 N734 1.384 . S
C732 H723 0.929 . S
C732 C724 1.378 . S
C732 C727 1.350 . S
C733 H720 0.929 . S
C733 C725 1.433 . S
C733 N735 1.384 . S
N734 C730 1.427 . S
N734 C731 1.384 . S
N735 C727 1.427 . S
N735 C733 1.384 . S
H736 C742 0.930 . S
H737 C746 0.930 . S
H738 C751 0.929 . S
H739 C749 0.929 . S
H740 C744 0.929 . S
H741 C750 0.929 . S
C742 H736 0.930 . S
C742 C743 1.367 . S
C742 C750 1.378 . S
C743 C742 1.367 . S
C743 C751 1.433 . S
C744 H740 0.929 . S
C744 C746 1.378 . S
C744 C748 1.350 . S
C745 C748 1.463 . S
C745 C750 1.350 . S
C745 N753 1.427 . S
C746 H737 0.930 . S
C746 C744 1.378 . S
C746 C747 1.367 . S
C747 C746 1.367 . S
C747 C749 1.433 . S
C748 C744 1.350 . S
C748 C745 1.463 . S
C748 N752 1.427 . S
C749 H739 0.929 . S
C749 C747 1.433 . S
C749 N752 1.384 . S
C750 H741 0.929 . S
C750 C742 1.378 . S
C750 C745 1.350 . S
C751 H738 0.929 . S
C751 C743 1.433 . S
C751 N753 1.384 . S
N752 C748 1.427 . S
N752 C749 1.384 . S
N753 C745 1.427 . S
N753 C751 1.384 . S
H754 C760 0.930 . S
H755 C764 0.930 . S
H756 C769 0.929 . S
H757 C767 0.929 . S
H758 C762 0.929 . S
H759 C768 0.929 . S
C760 H754 0.930 . S
C760 C761 1.367 . S
C760 C768 1.378 . S
C761 C760 1.367 . S
C761 C769 1.433 . S
C762 H758 0.929 . S
C762 C764 1.378 . S
C762 C766 1.350 . S
C763 C766 1.463 . S
C763 C768 1.350 . S
C763 N771 1.427 . S
C764 H755 0.930 . S
C764 C762 1.378 . S
C764 C765 1.367 . S
C765 C764 1.367 . S
C765 C767 1.433 . S
C766 C762 1.350 . S
C766 C763 1.463 . S
C766 N770 1.427 . S
C767 H757 0.929 . S
C767 C765 1.433 . S
C767 N770 1.384 . S
C768 H759 0.929 . S
C768 C760 1.378 . S
C768 C763 1.350 . S
C769 H756 0.929 . S
C769 C761 1.433 . S
C769 N771 1.384 . S
N770 C766 1.427 . S
N770 C767 1.384 . S
N771 C763 1.427 . S
N771 C769 1.384 . S
H772 C778 0.930 . S
H773 C782 0.930 . S
H774 C787 0.929 . S
H775 C785 0.929 . S
H776 C780 0.929 . S
H777 C786 0.929 . S
C778 H772 0.930 . S
C778 C779 1.367 1_655 S
C778 C786 1.378 . S
C779 C778 1.367 1_455 S
C779 C787 1.433 . S
C780 H776 0.929 . S
C780 C782 1.378 . S
C780 C784 1.350 1_455 S
C781 C784 1.462 1_455 S
C781 C786 1.348 1_455 S
C781 N789 1.430 . S
C782 H773 0.930 . S
C782 C780 1.378 . S
C782 C783 1.367 1_455 S
C783 C782 1.367 1_655 S
C783 C785 1.433 . S
C784 C780 1.350 1_655 S
C784 C781 1.462 1_655 S
C784 N788 1.427 . S
C785 H775 0.929 . S
C785 C783 1.433 . S
C785 N788 1.384 . S
C786 H777 0.929 . S
C786 C778 1.378 . S
C786 C781 1.348 1_655 S
C787 H774 0.929 . S
C787 C779 1.433 . S
C787 N789 1.384 . S
N788 C784 1.427 . S
N788 C785 1.384 . S
N789 C781 1.430 . S
N789 C787 1.384 . S
H790 C796 0.930 . S
H791 C800 0.930 . S
H792 C805 0.929 . S
H793 C803 0.929 . S
H794 C798 0.929 . S
H795 C804 0.929 . S
C796 H790 0.930 . S
C796 C797 1.367 . S
C796 C804 1.378 . S
C797 C796 1.367 . S
C797 C805 1.433 . S
C798 H794 0.929 . S
C798 C800 1.378 1_554 S
C798 C802 1.350 . S
C799 C802 1.463 . S
C799 C804 1.350 . S
C799 N807 1.427 . S
C800 H791 0.930 . S
C800 C798 1.378 1_556 S
C800 C801 1.367 . S
C801 C800 1.367 . S
C801 C803 1.433 . S
C802 C798 1.350 . S
C802 C799 1.463 . S
C802 N806 1.427 . S
C803 H793 0.929 . S
C803 C801 1.433 . S
C803 N806 1.384 1_556 S
C804 H795 0.929 . S
C804 C796 1.378 . S
C804 C799 1.350 . S
C805 H792 0.929 . S
C805 C797 1.433 . S
C805 N807 1.384 . S
N806 C802 1.427 . S
N806 C803 1.384 1_554 S
N807 C799 1.427 . S
N807 C805 1.384 . S
H808 C814 0.930 . S
H809 C818 0.930 . S
H810 C823 0.929 . S
H811 C821 0.929 . S
H812 C816 0.929 . S
H813 C822 0.929 . S
C814 H808 0.930 . S
C814 C815 1.367 . S
C814 C822 1.378 . S
C815 C814 1.367 . S
C815 C823 1.433 . S
C816 H812 0.929 . S
C816 C818 1.378 . S
C816 C820 1.350 . S
C817 C820 1.463 . S
C817 C822 1.350 . S
C817 N825 1.427 . S
C818 H809 0.930 . S
C818 C816 1.378 . S
C818 C819 1.367 . S
C819 C818 1.367 . S
C819 C821 1.433 . S
C820 C816 1.350 . S
C820 C817 1.463 . S
C820 N824 1.427 . S
C821 H811 0.929 . S
C821 C819 1.433 . S
C821 N824 1.384 . S
C822 H813 0.929 . S
C822 C814 1.378 . S
C822 C817 1.350 . S
C823 H810 0.929 . S
C823 C815 1.433 . S
C823 N825 1.384 . S
N824 C820 1.427 . S
N824 C821 1.384 . S
N825 C817 1.427 . S
N825 C823 1.384 . S
H826 C832 0.930 . S
H827 C836 0.930 . S
H828 C841 0.929 . S
H829 C839 0.929 . S
H830 C834 0.929 . S
H831 C840 0.929 . S
C832 H826 0.930 . S
C832 C833 1.367 . S
C832 C840 1.378 . S
C833 C832 1.367 . S
C833 C841 1.433 . S
C834 H830 0.929 . S
C834 C836 1.378 . S
C834 C838 1.350 . S
C835 C838 1.463 . S
C835 C840 1.350 . S
C835 N843 1.427 . S
C836 H827 0.930 . S
C836 C834 1.378 . S
C836 C837 1.367 . S
C837 C836 1.367 . S
C837 C839 1.433 . S
C838 C834 1.350 . S
C838 C835 1.463 . S
C838 N842 1.427 . S
C839 H829 0.929 . S
C839 C837 1.433 . S
C839 N842 1.384 . S
C840 H831 0.929 . S
C840 C832 1.378 . S
C840 C835 1.350 . S
C841 H828 0.929 . S
C841 C833 1.433 . S
C841 N843 1.384 . S
N842 C838 1.427 . S
N842 C839 1.384 . S
N843 C835 1.427 . S
N843 C841 1.384 . S
H844 C850 0.930 . S
H845 C854 0.930 . S
H846 C859 0.929 . S
H847 C857 0.929 . S
H848 C852 0.929 . S
H849 C858 0.929 . S
C850 H844 0.930 . S
C850 C851 1.367 1_655 S
C850 C858 1.378 . S
C851 C850 1.367 1_455 S
C851 C859 1.433 . S
C852 H848 0.929 . S
C852 C854 1.378 . S
C852 C856 1.350 1_455 S
C853 C856 1.460 1_455 S
C853 C858 1.342 1_455 S
C853 N861 1.439 . S
C854 H845 0.930 . S
C854 C852 1.378 . S
C854 C855 1.367 1_455 S
C855 C854 1.367 1_655 S
C855 C857 1.433 . S
C856 C852 1.350 1_655 S
C856 C853 1.460 1_655 S
C856 N860 1.427 . S
C857 H847 0.929 . S
C857 C855 1.433 . S
C857 N860 1.384 . S
C858 H849 0.929 . S
C858 C850 1.378 . S
C858 C853 1.342 1_655 S
C859 H846 0.929 . S
C859 C851 1.433 . S
C859 N861 1.384 . S
N860 C856 1.427 . S
N860 C857 1.384 . S
N861 C853 1.439 . S
N861 C859 1.384 . S
H862 C868 0.930 . S
H863 C872 0.930 . S
H864 C877 0.929 . S
H865 C875 0.929 . S
H866 C870 0.929 . S
H867 C876 0.929 . S
C868 H862 0.930 . S
C868 C869 1.367 . S
C868 C876 1.378 1_554 S
C869 C868 1.367 . S
C869 C877 1.433 . S
C870 H866 0.929 . S
C870 C872 1.378 . S
C870 C874 1.350 . S
C871 C874 1.463 . S
C871 C876 1.350 . S
C871 N879 1.427 . S
C872 H863 0.930 . S
C872 C870 1.378 . S
C872 C873 1.367 . S
C873 C872 1.367 . S
C873 C875 1.433 . S
C874 C870 1.350 . S
C874 C871 1.463 . S
C874 N878 1.427 . S
C875 H865 0.929 . S
C875 C873 1.433 . S
C875 N878 1.384 . S
C876 H867 0.929 . S
C876 C868 1.378 1_556 S
C876 C871 1.350 . S
C877 H864 0.929 . S
C877 C869 1.433 . S
C877 N879 1.384 1_554 S
N878 C874 1.427 . S
N878 C875 1.384 . S
N879 C871 1.427 . S
N879 C877 1.384 1_556 S
H880 C886 0.930 . S
H881 C890 0.930 . S
H882 C895 0.929 . S
H883 C893 0.929 . S
H884 C888 0.929 . S
H885 C894 0.929 . S
C886 H880 0.930 . S
C886 C887 1.367 . S
C886 C894 1.378 . S
C887 C886 1.367 . S
C887 C895 1.433 . S
C888 H884 0.929 . S
C888 C890 1.378 . S
C888 C892 1.350 . S
C889 C892 1.463 . S
C889 C894 1.350 . S
C889 N897 1.427 . S
C890 H881 0.930 . S
C890 C888 1.378 . S
C890 C891 1.367 . S
C891 C890 1.367 . S
C891 C893 1.433 . S
C892 C888 1.350 . S
C892 C889 1.463 . S
C892 N896 1.427 . S
C893 H883 0.929 . S
C893 C891 1.433 . S
C893 N896 1.384 . S
C894 H885 0.929 . S
C894 C886 1.378 . S
C894 C889 1.350 . S
C895 H882 0.929 . S
C895 C887 1.433 . S
C895 N897 1.384 . S
N896 C892 1.427 . S
N896 C893 1.384 . S
N897 C889 1.427 . S
N897 C895 1.384 . S
H898 C904 0.930 . S
H899 C908 0.930 . S
H900 C913 0.929 . S
H901 C911 0.929 . S
H902 C906 0.929 . S
H903 C912 0.929 . S
C904 H898 0.930 . S
C904 C905 1.367 . S
C904 C912 1.378 . S
C905 C904 1.367 . S
C905 C913 1.433 . S
C906 H902 0.929 . S
C906 C908 1.378 . S
C906 C910 1.350 . S
C907 C910 1.463 . S
C907 C912 1.350 . S
C907 N915 1.427 . S
C908 H899 0.930 . S
C908 C906 1.378 . S
C908 C909 1.367 . S
C909 C908 1.367 . S
C909 C911 1.433 . S
C910 C906 1.350 . S
C910 C907 1.463 . S
C910 N914 1.427 . S
C911 H901 0.929 . S
C911 C909 1.433 . S
C911 N914 1.384 . S
C912 H903 0.929 . S
C912 C904 1.378 . S
C912 C907 1.350 . S
C913 H900 0.929 . S
C913 C905 1.433 . S
C913 N915 1.384 . S
N914 C910 1.427 . S
N914 C911 1.384 . S
N915 C907 1.427 . S
N915 C913 1.384 . S
H916 C922 0.930 . S
H917 C926 0.930 . S
H918 C931 0.929 . S
H919 C929 0.929 . S
H920 C924 0.929 . S
H921 C930 0.929 . S
C922 H916 0.930 . S
C922 C923 1.367 . S
C922 C930 1.378 . S
C923 C922 1.367 . S
C923 C931 1.433 1_455 S
C924 H920 0.929 . S
C924 C926 1.378 . S
C924 C928 1.388 . S
C925 C928 1.450 1_455 S
C925 C930 1.350 . S
C925 N933 1.427 1_455 S
C926 H917 0.930 . S
C926 C924 1.378 . S
C926 C927 1.367 . S
C927 C926 1.367 . S
C927 C929 1.433 1_655 S
C928 C924 1.388 . S
C928 C925 1.450 1_655 S
C928 N932 1.402 1_655 S
C929 H919 0.929 . S
C929 C927 1.433 1_455 S
C929 N932 1.384 . S
C930 H921 0.929 . S
C930 C922 1.378 . S
C930 C925 1.350 . S
C931 H918 0.929 . S
C931 C923 1.433 1_655 S
C931 N933 1.384 . S
N932 C928 1.402 1_455 S
N932 C929 1.384 . S
N933 C925 1.427 1_655 S
N933 C931 1.384 . S
H934 C940 0.930 . S
H935 C944 0.930 . S
H936 C949 0.929 . S
H937 C947 0.929 . S
H938 C942 0.929 . S
H939 C948 0.929 . S
C940 H934 0.930 . S
C940 C941 1.367 . S
C940 C948 1.378 . S
C941 C940 1.367 . S
C941 C949 1.433 . S
C942 H938 0.929 . S
C942 C944 1.378 1_556 S
C942 C946 1.350 . S
C943 C946 1.463 . S
C943 C948 1.350 . S
C943 N951 1.427 . S
C944 H935 0.930 . S
C944 C942 1.378 1_554 S
C944 C945 1.367 . S
C945 C944 1.367 . S
C945 C947 1.433 . S
C946 C942 1.350 . S
C946 C943 1.463 . S
C946 N950 1.427 . S
C947 H937 0.929 . S
C947 C945 1.433 . S
C947 N950 1.384 1_554 S
C948 H939 0.929 . S
C948 C940 1.378 . S
C948 C943 1.350 . S
C949 H936 0.929 . S
C949 C941 1.433 . S
C949 N951 1.384 . S
N950 C946 1.427 . S
N950 C947 1.384 1_556 S
N951 C943 1.427 . S
N951 C949 1.384 . S
H952 C958 0.930 . S
H953 C962 0.930 . S
H954 C967 0.929 . S
H955 C965 0.929 . S
H956 C960 0.929 . S
H957 C966 0.929 . S
C958 H952 0.930 . S
C958 C959 1.367 . S
C958 C966 1.378 . S
C959 C958 1.367 . S
C959 C967 1.433 . S
C960 H956 0.929 . S
C960 C962 1.378 . S
C960 C964 1.350 . S
C961 C964 1.463 . S
C961 C966 1.350 . S
C961 N969 1.427 . S
C962 H953 0.930 . S
C962 C960 1.378 . S
C962 C963 1.367 . S
C963 C962 1.367 . S
C963 C965 1.433 . S
C964 C960 1.350 . S
C964 C961 1.463 . S
C964 N968 1.427 . S
C965 H955 0.929 . S
C965 C963 1.433 . S
C965 N968 1.384 . S
C966 H957 0.929 . S
C966 C958 1.378 . S
C966 C961 1.350 . S
C967 H954 0.929 . S
C967 C959 1.433 . S
C967 N969 1.384 . S
N968 C964 1.427 . S
N968 C965 1.384 . S
N969 C961 1.427 . S
N969 C967 1.384 . S
H970 C976 0.930 . S
H971 C980 0.930 . S
H972 C985 0.929 . S
H973 C983 0.929 . S
H974 C978 0.929 . S
H975 C984 0.929 . S
C976 H970 0.930 . S
C976 C977 1.367 . S
C976 C984 1.378 . S
C977 C976 1.367 . S
C977 C985 1.433 . S
C978 H974 0.929 . S
C978 C980 1.378 . S
C978 C982 1.350 . S
C979 C982 1.463 . S
C979 C984 1.350 . S
C979 N987 1.427 . S
C980 H971 0.930 . S
C980 C978 1.378 . S
C980 C981 1.367 . S
C981 C980 1.367 . S
C981 C983 1.433 . S
C982 C978 1.350 . S
C982 C979 1.463 . S
C982 N986 1.427 . S
C983 H973 0.929 . S
C983 C981 1.433 . S
C983 N986 1.384 . S
C984 H975 0.929 . S
C984 C976 1.378 . S
C984 C979 1.350 . S
C985 H972 0.929 . S
C985 C977 1.433 . S
C985 N987 1.384 . S
N986 C982 1.427 . S
N986 C983 1.384 . S
N987 C979 1.427 . S
N987 C985 1.384 . S
H988 C994 0.930 . S
H989 C998 0.930 . S
H990 C1003 0.929 . S
H991 C1001 0.929 . S
H992 C996 0.929 . S
H993 C1002 0.929 . S
C994 H988 0.930 . S
C994 C995 1.367 1_455 S
C994 C1002 1.378 . S
C995 C994 1.367 1_655 S
C995 C1003 1.433 . S
C996 H992 0.929 . S
C996 C998 1.378 . S
C996 C1000 1.350 1_655 S
C997 C1000 1.461 1_655 S
C997 C1002 1.345 1_655 S
C997 N1005 1.434 . S
C998 H989 0.930 . S
C998 C996 1.378 . S
C998 C999 1.367 1_655 S
C999 C998 1.367 1_455 S
C999 C1001 1.433 . S
C1000 C996 1.350 1_455 S
C1000 C997 1.461 1_455 S
C1000 N1004 1.427 . S
C1001 H991 0.929 . S
C1001 C999 1.433 . S
C1001 N1004 1.384 . S
C1002 H993 0.929 . S
C1002 C994 1.378 . S
C1002 C997 1.345 1_455 S
C1003 H990 0.929 . S
C1003 C995 1.433 . S
C1003 N1005 1.384 . S
N1004 C1000 1.427 . S
N1004 C1001 1.384 . S
N1005 C997 1.434 . S
N1005 C1003 1.384 . S
H1006 C1012 0.930 . S
H1007 C1016 0.930 . S
H1008 C1021 0.929 . S
H1009 C1019 0.929 . S
H1010 C1014 0.929 . S
H1011 C1020 0.929 . S
C1012 H1006 0.930 . S
C1012 C1013 1.367 . S
C1012 C1020 1.378 . S
C1013 C1012 1.367 . S
C1013 C1021 1.433 . S
C1014 H1010 0.929 . S
C1014 C1016 1.378 1_554 S
C1014 C1018 1.350 . S
C1015 C1018 1.463 . S
C1015 C1020 1.350 . S
C1015 N1023 1.427 . S
C1016 H1007 0.930 . S
C1016 C1014 1.378 1_556 S
C1016 C1017 1.367 . S
C1017 C1016 1.367 . S
C1017 C1019 1.433 . S
C1018 C1014 1.350 . S
C1018 C1015 1.463 . S
C1018 N1022 1.427 . S
C1019 H1009 0.929 . S
C1019 C1017 1.433 . S
C1019 N1022 1.384 1_556 S
C1020 H1011 0.929 . S
C1020 C1012 1.378 . S
C1020 C1015 1.350 . S
C1021 H1008 0.929 . S
C1021 C1013 1.433 . S
C1021 N1023 1.384 . S
N1022 C1018 1.427 . S
N1022 C1019 1.384 1_554 S
N1023 C1015 1.427 . S
N1023 C1021 1.384 . S
H1024 C1030 0.930 . S
H1025 C1034 0.930 . S
H1026 C1039 0.930 . S
H1027 C1037 0.930 . S
H1028 C1032 0.929 . S
H1029 C1038 0.929 . S
C1030 H1024 0.930 . S
C1030 C1031 1.367 . S
C1030 C1038 1.378 . S
C1031 C1030 1.367 . S
C1031 C1039 1.432 1_654 S
C1032 H1028 0.929 . S
C1032 C1034 1.378 . S
C1032 C1036 1.350 . S
C1033 C1036 1.463 1_644 S
C1033 C1038 1.350 . S
C1033 N1041 1.427 1_654 S
C1034 H1025 0.930 . S
C1034 C1032 1.378 . S
C1034 C1035 1.367 . S
C1035 C1034 1.367 . S
C1035 C1037 1.432 1_456 S
C1036 C1032 1.350 . S
C1036 C1033 1.463 1_466 S
C1036 N1040 1.427 1_456 S
C1037 H1027 0.930 . S
C1037 C1035 1.432 1_654 S
C1037 N1040 1.384 . S
C1038 H1029 0.929 . S
C1038 C1030 1.378 . S
C1038 C1033 1.350 . S
C1039 H1026 0.930 . S
C1039 C1031 1.432 1_456 S
C1039 N1041 1.384 . S
N1040 C1036 1.427 1_654 S
N1040 C1037 1.384 . S
N1041 C1033 1.427 1_456 S
N1041 C1039 1.384 . S
H1042 C1048 0.930 . S
H1043 C1052 0.930 . S
H1044 C1057 0.929 . S
H1045 C1055 0.929 . S
H1046 C1050 0.929 . S
H1047 C1056 0.929 . S
C1048 H1042 0.930 . S
C1048 C1049 1.367 . S
C1048 C1056 1.378 . S
C1049 C1048 1.367 . S
C1049 C1057 1.433 . S
C1050 H1046 0.929 . S
C1050 C1052 1.378 . S
C1050 C1054 1.350 . S
C1051 C1054 1.463 . S
C1051 C1056 1.350 . S
C1051 N1059 1.427 . S
C1052 H1043 0.930 . S
C1052 C1050 1.378 . S
C1052 C1053 1.367 . S
C1053 C1052 1.367 . S
C1053 C1055 1.433 . S
C1054 C1050 1.350 . S
C1054 C1051 1.463 . S
C1054 N1058 1.427 . S
C1055 H1045 0.929 . S
C1055 C1053 1.433 . S
C1055 N1058 1.384 . S
C1056 H1047 0.929 . S
C1056 C1048 1.378 . S
C1056 C1051 1.350 . S
C1057 H1044 0.929 . S
C1057 C1049 1.433 . S
C1057 N1059 1.384 . S
N1058 C1054 1.427 . S
N1058 C1055 1.384 . S
N1059 C1051 1.427 . S
N1059 C1057 1.384 . S
H1060 C1066 0.930 . S
H1061 C1070 0.930 . S
H1062 C1075 0.929 . S
H1063 C1073 0.929 . S
H1064 C1068 0.929 . S
H1065 C1074 0.929 . S
C1066 H1060 0.930 . S
C1066 C1067 1.367 . S
C1066 C1074 1.378 . S
C1067 C1066 1.367 . S
C1067 C1075 1.433 . S
C1068 H1064 0.929 . S
C1068 C1070 1.378 . S
C1068 C1072 1.350 . S
C1069 C1072 1.463 1_545 S
C1069 C1074 1.350 . S
C1069 N1077 1.427 . S
C1070 H1061 0.930 . S
C1070 C1068 1.378 . S
C1070 C1071 1.367 . S
C1071 C1070 1.367 . S
C1071 C1073 1.433 . S
C1072 C1068 1.350 . S
C1072 C1069 1.463 1_565 S
C1072 N1076 1.427 . S
C1073 H1063 0.929 . S
C1073 C1071 1.433 . S
C1073 N1076 1.384 . S
C1074 H1065 0.929 . S
C1074 C1066 1.378 . S
C1074 C1069 1.350 . S
C1075 H1062 0.929 . S
C1075 C1067 1.433 . S
C1075 N1077 1.384 . S
N1076 C1072 1.427 . S
N1076 C1073 1.384 . S
N1077 C1069 1.427 . S
N1077 C1075 1.384 . S
H1078 C1084 0.930 . S
H1079 C1088 0.930 . S
H1080 C1093 0.929 . S
H1081 C1091 0.929 . S
H1082 C1086 0.929 . S
H1083 C1092 0.929 . S
C1084 H1078 0.930 . S
C1084 C1085 1.367 . S
C1084 C1092 1.378 . S
C1085 C1084 1.367 . S
C1085 C1093 1.433 . S
C1086 H1082 0.929 . S
C1086 C1088 1.378 . S
C1086 C1090 1.350 . S
C1087 C1090 1.463 . S
C1087 C1092 1.350 . S
C1087 N1095 1.427 . S
C1088 H1079 0.930 . S
C1088 C1086 1.378 . S
C1088 C1089 1.367 . S
C1089 C1088 1.367 . S
C1089 C1091 1.433 . S
C1090 C1086 1.350 . S
C1090 C1087 1.463 . S
C1090 N1094 1.427 . S
C1091 H1081 0.929 . S
C1091 C1089 1.433 . S
C1091 N1094 1.384 . S
C1092 H1083 0.929 . S
C1092 C1084 1.378 . S
C1092 C1087 1.350 . S
C1093 H1080 0.929 . S
C1093 C1085 1.433 . S
C1093 N1095 1.384 . S
N1094 C1090 1.427 . S
N1094 C1091 1.384 . S
N1095 C1087 1.427 . S
N1095 C1093 1.384 . S
H1096 C1102 0.930 . S
H1097 C1106 0.930 . S
H1098 C1111 0.929 . S
H1099 C1109 0.929 . S
H1100 C1104 0.929 . S
H1101 C1110 0.929 . S
C1102 H1096 0.930 . S
C1102 C1103 1.367 1_455 S
C1102 C1110 1.378 . S
C1103 C1102 1.367 1_655 S
C1103 C1111 1.433 . S
C1104 H1100 0.929 . S
C1104 C1106 1.378 . S
C1104 C1108 1.320 1_655 S
C1105 C1108 1.456 1_665 S
C1105 C1110 1.320 1_655 S
C1105 N1113 1.467 . S
C1106 H1097 0.930 . S
C1106 C1104 1.378 . S
C1106 C1107 1.367 1_655 S
C1107 C1106 1.367 1_455 S
C1107 C1109 1.433 . S
C1108 C1104 1.320 1_455 S
C1108 C1105 1.456 1_445 S
C1108 N1112 1.467 . S
C1109 H1099 0.929 . S
C1109 C1107 1.433 . S
C1109 N1112 1.384 . S
C1110 H1101 0.929 . S
C1110 C1102 1.378 . S
C1110 C1105 1.320 1_455 S
C1111 H1098 0.929 . S
C1111 C1103 1.433 . S
C1111 N1113 1.384 . S
N1112 C1108 1.467 . S
N1112 C1109 1.384 . S
N1113 C1105 1.467 . S
N1113 C1111 1.384 . S
H1114 C1120 0.930 . S
H1115 C1124 0.930 . S
H1116 C1129 0.929 . S
H1117 C1127 0.929 . S
H1118 C1122 0.929 . S
H1119 C1128 0.929 . S
C1120 H1114 0.930 . S
C1120 C1121 1.367 . S
C1120 C1128 1.378 . S
C1121 C1120 1.367 . S
C1121 C1129 1.433 . S
C1122 H1118 0.929 . S
C1122 C1124 1.378 . S
C1122 C1126 1.350 . S
C1123 C1126 1.463 . S
C1123 C1128 1.350 . S
C1123 N1131 1.427 . S
C1124 H1115 0.930 . S
C1124 C1122 1.378 . S
C1124 C1125 1.367 . S
C1125 C1124 1.367 . S
C1125 C1127 1.433 . S
C1126 C1122 1.350 . S
C1126 C1123 1.463 . S
C1126 N1130 1.427 . S
C1127 H1117 0.929 . S
C1127 C1125 1.433 . S
C1127 N1130 1.384 . S
C1128 H1119 0.929 . S
C1128 C1120 1.378 . S
C1128 C1123 1.350 . S
C1129 H1116 0.929 . S
C1129 C1121 1.433 . S
C1129 N1131 1.384 . S
N1130 C1126 1.427 . S
N1130 C1127 1.384 . S
N1131 C1123 1.427 . S
N1131 C1129 1.384 . S
H1132 C1138 0.930 . S
H1133 C1142 0.930 . S
H1134 C1147 0.929 . S
H1135 C1145 0.929 . S
H1136 C1140 0.929 . S
H1137 C1146 0.929 . S
C1138 H1132 0.930 . S
C1138 C1139 1.367 1_556 S
C1138 C1146 1.378 . S
C1139 C1138 1.367 1_554 S
C1139 C1147 1.433 . S
C1140 H1136 0.929 . S
C1140 C1142 1.378 . S
C1140 C1144 1.350 1_554 S
C1141 C1144 1.463 1_564 S
C1141 C1146 1.350 1_554 S
C1141 N1149 1.427 . S
C1142 H1133 0.930 . S
C1142 C1140 1.378 . S
C1142 C1143 1.367 1_554 S
C1143 C1142 1.367 1_556 S
C1143 C1145 1.433 . S
C1144 C1140 1.350 1_556 S
C1144 C1141 1.463 1_546 S
C1144 N1148 1.427 . S
C1145 H1135 0.929 . S
C1145 C1143 1.433 . S
C1145 N1148 1.384 . S
C1146 H1137 0.929 . S
C1146 C1138 1.378 . S
C1146 C1141 1.350 1_556 S
C1147 H1134 0.929 . S
C1147 C1139 1.433 . S
C1147 N1149 1.384 . S
N1148 C1144 1.427 . S
N1148 C1145 1.384 . S
N1149 C1141 1.427 . S
N1149 C1147 1.384 . S
H1150 C1156 0.930 . S
H1151 C1160 0.930 . S
H1152 C1165 0.929 . S
H1153 C1163 0.929 . S
H1154 C1158 0.929 . S
H1155 C1164 0.929 . S
C1156 H1150 0.930 . S
C1156 C1157 1.367 . S
C1156 C1164 1.378 . S
C1157 C1156 1.367 . S
C1157 C1165 1.433 . S
C1158 H1154 0.929 . S
C1158 C1160 1.378 . S
C1158 C1162 1.350 . S
C1159 C1162 1.463 . S
C1159 C1164 1.350 . S
C1159 N1167 1.427 . S
C1160 H1151 0.930 . S
C1160 C1158 1.378 . S
C1160 C1161 1.367 . S
C1161 C1160 1.367 . S
C1161 C1163 1.433 . S
C1162 C1158 1.350 . S
C1162 C1159 1.463 . S
C1162 N1166 1.427 . S
C1163 H1153 0.929 . S
C1163 C1161 1.433 . S
C1163 N1166 1.384 . S
C1164 H1155 0.929 . S
C1164 C1156 1.378 . S
C1164 C1159 1.350 . S
C1165 H1152 0.929 . S
C1165 C1157 1.433 . S
C1165 N1167 1.384 . S
N1166 C1162 1.427 . S
N1166 C1163 1.384 . S
N1167 C1159 1.427 . S
N1167 C1165 1.384 . S
H1168 C1174 0.930 . S
H1169 C1178 0.930 . S
H1170 C1183 0.929 . S
H1171 C1181 0.929 . S
H1172 C1176 0.929 . S
H1173 C1182 0.929 . S
C1174 H1168 0.930 . S
C1174 C1175 1.367 . S
C1174 C1182 1.378 . S
C1175 C1174 1.367 . S
C1175 C1183 1.433 . S
C1176 H1172 0.929 . S
C1176 C1178 1.378 . S
C1176 C1180 1.350 . S
C1177 C1180 1.463 . S
C1177 C1182 1.350 . S
C1177 N1185 1.427 . S
C1178 H1169 0.930 . S
C1178 C1176 1.378 . S
C1178 C1179 1.367 . S
C1179 C1178 1.367 . S
C1179 C1181 1.433 . S
C1180 C1176 1.350 . S
C1180 C1177 1.463 . S
C1180 N1184 1.427 . S
C1181 H1171 0.929 . S
C1181 C1179 1.433 . S
C1181 N1184 1.384 . S
C1182 H1173 0.929 . S
C1182 C1174 1.378 . S
C1182 C1177 1.350 . S
C1183 H1170 0.929 . S
C1183 C1175 1.433 . S
C1183 N1185 1.384 . S
N1184 C1180 1.427 . S
N1184 C1181 1.384 . S
N1185 C1177 1.427 . S
N1185 C1183 1.384 . S
H1186 C1192 0.930 . S
H1187 C1196 0.930 . S
H1188 C1201 0.929 . S
H1189 C1199 0.929 . S
H1190 C1194 0.929 . S
H1191 C1200 0.929 . S
C1192 H1186 0.930 . S
C1192 C1193 1.367 . S
C1192 C1200 1.378 . S
C1193 C1192 1.367 . S
C1193 C1201 1.433 . S
C1194 H1190 0.929 . S
C1194 C1196 1.378 . S
C1194 C1198 1.350 . S
C1195 C1198 1.463 . S
C1195 C1200 1.350 . S
C1195 N1203 1.427 . S
C1196 H1187 0.930 . S
C1196 C1194 1.378 . S
C1196 C1197 1.367 . S
C1197 C1196 1.367 . S
C1197 C1199 1.433 . S
C1198 C1194 1.350 . S
C1198 C1195 1.463 . S
C1198 N1202 1.427 . S
C1199 H1189 0.929 . S
C1199 C1197 1.433 . S
C1199 N1202 1.384 . S
C1200 H1191 0.929 . S
C1200 C1192 1.378 . S
C1200 C1195 1.350 . S
C1201 H1188 0.929 . S
C1201 C1193 1.433 . S
C1201 N1203 1.384 . S
N1202 C1198 1.427 . S
N1202 C1199 1.384 . S
N1203 C1195 1.427 . S
N1203 C1201 1.384 . S
H1204 C1210 0.930 . S
H1205 C1214 0.930 . S
H1206 C1219 0.929 . S
H1207 C1217 0.929 . S
H1208 C1212 0.929 . S
H1209 C1218 0.929 . S
C1210 H1204 0.930 . S
C1210 C1211 1.367 . S
C1210 C1218 1.378 . S
C1211 C1210 1.367 . S
C1211 C1219 1.433 . S
C1212 H1208 0.929 . S
C1212 C1214 1.378 . S
C1212 C1216 1.350 . S
C1213 C1216 1.463 . S
C1213 C1218 1.350 . S
C1213 N1221 1.427 . S
C1214 H1205 0.930 . S
C1214 C1212 1.378 . S
C1214 C1215 1.367 . S
C1215 C1214 1.367 . S
C1215 C1217 1.433 . S
C1216 C1212 1.350 . S
C1216 C1213 1.463 . S
C1216 N1220 1.427 . S
C1217 H1207 0.929 . S
C1217 C1215 1.433 . S
C1217 N1220 1.384 . S
C1218 H1209 0.929 . S
C1218 C1210 1.378 . S
C1218 C1213 1.350 . S
C1219 H1206 0.929 . S
C1219 C1211 1.433 . S
C1219 N1221 1.384 . S
N1220 C1216 1.427 . S
N1220 C1217 1.384 . S
N1221 C1213 1.427 . S
N1221 C1219 1.384 . S
H1222 C1228 0.930 . S
H1223 C1232 0.930 . S
H1224 C1237 0.929 . S
H1225 C1235 0.929 . S
H1226 C1230 0.929 . S
H1227 C1236 0.929 . S
C1228 H1222 0.930 . S
C1228 C1229 1.367 . S
C1228 C1236 1.378 . S
C1229 C1228 1.367 . S
C1229 C1237 1.433 . S
C1230 H1226 0.929 . S
C1230 C1232 1.378 . S
C1230 C1234 1.350 . S
C1231 C1234 1.463 . S
C1231 C1236 1.350 . S
C1231 N1239 1.427 . S
C1232 H1223 0.930 . S
C1232 C1230 1.378 . S
C1232 C1233 1.367 . S
C1233 C1232 1.367 . S
C1233 C1235 1.433 . S
C1234 C1230 1.350 . S
C1234 C1231 1.463 . S
C1234 N1238 1.427 . S
C1235 H1225 0.929 . S
C1235 C1233 1.433 . S
C1235 N1238 1.384 . S
C1236 H1227 0.929 . S
C1236 C1228 1.378 . S
C1236 C1231 1.350 . S
C1237 H1224 0.929 . S
C1237 C1229 1.433 . S
C1237 N1239 1.384 . S
N1238 C1234 1.427 . S
N1238 C1235 1.384 . S
N1239 C1231 1.427 . S
N1239 C1237 1.384 . S
H1240 C1246 0.930 . S
H1241 C1250 0.930 . S
H1242 C1255 0.929 . S
H1243 C1253 0.929 . S
H1244 C1248 0.929 . S
H1245 C1254 0.929 . S
C1246 H1240 0.930 . S
C1246 C1247 1.367 . S
C1246 C1254 1.378 . S
C1247 C1246 1.367 . S
C1247 C1255 1.433 . S
C1248 H1244 0.929 . S
C1248 C1250 1.378 . S
C1248 C1252 1.350 . S
C1249 C1252 1.463 . S
C1249 C1254 1.350 . S
C1249 N1257 1.427 . S
C1250 H1241 0.930 . S
C1250 C1248 1.378 . S
C1250 C1251 1.367 . S
C1251 C1250 1.367 . S
C1251 C1253 1.433 . S
C1252 C1248 1.350 . S
C1252 C1249 1.463 . S
C1252 N1256 1.427 . S
C1253 H1243 0.929 . S
C1253 C1251 1.433 . S
C1253 N1256 1.384 . S
C1254 H1245 0.929 . S
C1254 C1246 1.378 . S
C1254 C1249 1.350 . S
C1255 H1242 0.929 . S
C1255 C1247 1.433 . S
C1255 N1257 1.384 . S
N1256 C1252 1.427 . S
N1256 C1253 1.384 . S
N1257 C1249 1.427 . S
N1257 C1255 1.384 . S
H1258 C1264 0.930 . S
H1259 C1268 0.930 . S
H1260 C1273 0.929 . S
H1261 C1271 0.929 . S
H1262 C1266 0.929 . S
H1263 C1272 0.929 . S
C1264 H1258 0.930 . S
C1264 C1265 1.367 1_656 S
C1264 C1272 1.378 . S
C1265 C1264 1.367 1_454 S
C1265 C1273 1.433 . S
C1266 H1262 0.929 . S
C1266 C1268 1.378 . S
C1266 C1270 1.319 1_454 S
C1267 C1270 1.456 1_454 S
C1267 C1272 1.319 1_454 S
C1267 N1275 1.468 . S
C1268 H1259 0.930 . S
C1268 C1266 1.378 . S
C1268 C1269 1.367 1_454 S
C1269 C1268 1.367 1_656 S
C1269 C1271 1.433 . S
C1270 C1266 1.319 1_656 S
C1270 C1267 1.456 1_656 S
C1270 N1274 1.468 . S
C1271 H1261 0.929 . S
C1271 C1269 1.433 . S
C1271 N1274 1.384 . S
C1272 H1263 0.929 . S
C1272 C1264 1.378 . S
C1272 C1267 1.319 1_656 S
C1273 H1260 0.929 . S
C1273 C1265 1.433 . S
C1273 N1275 1.384 . S
N1274 C1270 1.468 . S
N1274 C1271 1.384 . S
N1275 C1267 1.468 . S
N1275 C1273 1.384 . S
H1276 C1282 0.930 . S
H1277 C1286 0.930 . S
H1278 C1291 0.929 . S
H1279 C1289 0.929 . S
H1280 C1284 0.929 . S
H1281 C1290 0.929 . S
C1282 H1276 0.930 . S
C1282 C1283 1.367 . S
C1282 C1290 1.378 . S
C1283 C1282 1.367 . S
C1283 C1291 1.433 . S
C1284 H1280 0.929 . S
C1284 C1286 1.378 . S
C1284 C1288 1.350 . S
C1285 C1288 1.463 1_556 S
C1285 C1290 1.350 . S
C1285 N1293 1.427 . S
C1286 H1277 0.930 . S
C1286 C1284 1.378 . S
C1286 C1287 1.367 . S
C1287 C1286 1.367 . S
C1287 C1289 1.433 . S
C1288 C1284 1.350 . S
C1288 C1285 1.463 1_554 S
C1288 N1292 1.427 . S
C1289 H1279 0.929 . S
C1289 C1287 1.433 . S
C1289 N1292 1.384 . S
C1290 H1281 0.929 . S
C1290 C1282 1.378 . S
C1290 C1285 1.350 . S
C1291 H1278 0.929 . S
C1291 C1283 1.433 . S
C1291 N1293 1.384 . S
N1292 C1288 1.427 . S
N1292 C1289 1.384 . S
N1293 C1285 1.427 . S
N1293 C1291 1.384 . S
H1294 C1300 0.930 . S
H1295 C1304 0.930 . S
H1296 C1309 0.929 . S
H1297 C1307 0.929 . S
H1298 C1302 0.929 1_655 S
H1299 C1308 0.929 1_455 S
C1300 H1294 0.930 . S
C1300 C1301 1.367 . S
C1300 C1308 1.378 . S
C1301 C1300 1.367 . S
C1301 C1309 1.433 . S
C1302 H1298 0.929 1_455 S
C1302 C1304 1.378 . S
C1302 C1306 1.350 . S
C1303 C1306 1.463 1_655 S
C1303 C1308 1.350 . S
C1303 N1311 1.427 . S
C1304 H1295 0.930 . S
C1304 C1302 1.378 . S
C1304 C1305 1.367 . S
C1305 C1304 1.367 . S
C1305 C1307 1.433 . S
C1306 C1302 1.350 . S
C1306 C1303 1.463 1_455 S
C1306 N1310 1.427 . S
C1307 H1297 0.929 . S
C1307 C1305 1.433 . S
C1307 N1310 1.384 . S
C1308 H1299 0.929 1_655 S
C1308 C1300 1.378 . S
C1308 C1303 1.350 . S
C1309 H1296 0.929 . S
C1309 C1301 1.433 . S
C1309 N1311 1.384 . S
N1310 C1306 1.427 . S
N1310 C1307 1.384 . S
N1311 C1303 1.427 . S
N1311 C1309 1.384 . S
H1312 C1318 0.930 . S
H1313 C1322 0.930 . S
H1314 C1327 0.929 . S
H1315 C1325 0.929 . S
H1316 C1320 0.929 . S
H1317 C1326 0.929 . S
C1318 H1312 0.930 . S
C1318 C1319 1.367 . S
C1318 C1326 1.378 . S
C1319 C1318 1.367 . S
C1319 C1327 1.433 . S
C1320 H1316 0.929 . S
C1320 C1322 1.378 . S
C1320 C1324 1.350 . S
C1321 C1324 1.463 . S
C1321 C1326 1.350 . S
C1321 N1329 1.427 . S
C1322 H1313 0.930 . S
C1322 C1320 1.378 . S
C1322 C1323 1.367 . S
C1323 C1322 1.367 . S
C1323 C1325 1.433 . S
C1324 C1320 1.350 . S
C1324 C1321 1.463 . S
C1324 N1328 1.427 . S
C1325 H1315 0.929 . S
C1325 C1323 1.433 . S
C1325 N1328 1.384 . S
C1326 H1317 0.929 . S
C1326 C1318 1.378 . S
C1326 C1321 1.350 . S
C1327 H1314 0.929 . S
C1327 C1319 1.433 . S
C1327 N1329 1.384 . S
N1328 C1324 1.427 . S
N1328 C1325 1.384 . S
N1329 C1321 1.427 . S
N1329 C1327 1.384 . S
H1330 C1336 0.930 . S
H1331 C1340 0.930 . S
H1332 C1345 0.929 . S
H1333 C1343 0.929 . S
H1334 C1338 0.929 . S
H1335 C1344 0.929 . S
C1336 H1330 0.930 . S
C1336 C1337 1.367 . S
C1336 C1344 1.378 . S
C1337 C1336 1.367 . S
C1337 C1345 1.433 . S
C1338 H1334 0.929 . S
C1338 C1340 1.378 . S
C1338 C1342 1.350 . S
C1339 C1342 1.463 . S
C1339 C1344 1.350 . S
C1339 N1347 1.427 . S
C1340 H1331 0.930 . S
C1340 C1338 1.378 . S
C1340 C1341 1.367 . S
C1341 C1340 1.367 . S
C1341 C1343 1.433 . S
C1342 C1338 1.350 . S
C1342 C1339 1.463 . S
C1342 N1346 1.427 . S
C1343 H1333 0.929 . S
C1343 C1341 1.433 . S
C1343 N1346 1.384 . S
C1344 H1335 0.929 . S
C1344 C1336 1.378 . S
C1344 C1339 1.350 . S
C1345 H1332 0.929 . S
C1345 C1337 1.433 . S
C1345 N1347 1.384 . S
N1346 C1342 1.427 . S
N1346 C1343 1.384 . S
N1347 C1339 1.427 . S
N1347 C1345 1.384 . S
H1348 C1354 0.930 . S
H1349 C1358 0.930 . S
H1350 C1363 0.929 . S
H1351 C1361 0.929 . S
H1352 C1356 0.929 . S
H1353 C1362 0.929 . S
C1354 H1348 0.930 . S
C1354 C1355 1.367 . S
C1354 C1362 1.378 . S
C1355 C1354 1.367 . S
C1355 C1363 1.433 . S
C1356 H1352 0.929 . S
C1356 C1358 1.378 . S
C1356 C1360 1.350 . S
C1357 C1360 1.463 . S
C1357 C1362 1.350 . S
C1357 N1365 1.427 . S
C1358 H1349 0.930 . S
C1358 C1356 1.378 . S
C1358 C1359 1.367 . S
C1359 C1358 1.367 . S
C1359 C1361 1.433 . S
C1360 C1356 1.350 . S
C1360 C1357 1.463 . S
C1360 N1364 1.427 . S
C1361 H1351 0.929 . S
C1361 C1359 1.433 . S
C1361 N1364 1.384 . S
C1362 H1353 0.929 . S
C1362 C1354 1.378 . S
C1362 C1357 1.350 . S
C1363 H1350 0.929 . S
C1363 C1355 1.433 . S
C1363 N1365 1.384 . S
N1364 C1360 1.427 . S
N1364 C1361 1.384 . S
N1365 C1357 1.427 . S
N1365 C1363 1.384 . S
H1366 C1372 0.930 . S
H1367 C1376 0.930 . S
H1368 C1381 0.929 . S
H1369 C1379 0.929 . S
H1370 C1374 0.929 . S
H1371 C1380 0.929 . S
C1372 H1366 0.930 . S
C1372 C1373 1.367 . S
C1372 C1380 1.378 . S
C1373 C1372 1.367 . S
C1373 C1381 1.433 . S
C1374 H1370 0.929 . S
C1374 C1376 1.378 . S
C1374 C1378 1.350 . S
C1375 C1378 1.463 . S
C1375 C1380 1.350 . S
C1375 N1383 1.427 . S
C1376 H1367 0.930 . S
C1376 C1374 1.378 . S
C1376 C1377 1.367 . S
C1377 C1376 1.367 . S
C1377 C1379 1.433 . S
C1378 C1374 1.350 . S
C1378 C1375 1.463 . S
C1378 N1382 1.427 . S
C1379 H1369 0.929 . S
C1379 C1377 1.433 . S
C1379 N1382 1.384 . S
C1380 H1371 0.929 . S
C1380 C1372 1.378 . S
C1380 C1375 1.350 . S
C1381 H1368 0.929 . S
C1381 C1373 1.433 . S
C1381 N1383 1.384 . S
N1382 C1378 1.427 . S
N1382 C1379 1.384 . S
N1383 C1375 1.427 . S
N1383 C1381 1.384 . S
H1384 C1390 0.930 . S
H1385 C1394 0.930 . S
H1386 C1399 0.929 . S
H1387 C1397 0.929 . S
H1388 C1392 0.929 . S
H1389 C1398 0.929 . S
C1390 H1384 0.930 . S
C1390 C1391 1.367 . S
C1390 C1398 1.378 . S
C1391 C1390 1.367 . S
C1391 C1399 1.433 . S
C1392 H1388 0.929 . S
C1392 C1394 1.378 . S
C1392 C1396 1.350 . S
C1393 C1396 1.463 . S
C1393 C1398 1.350 . S
C1393 N1401 1.427 . S
C1394 H1385 0.930 . S
C1394 C1392 1.378 . S
C1394 C1395 1.367 . S
C1395 C1394 1.367 . S
C1395 C1397 1.433 . S
C1396 C1392 1.350 . S
C1396 C1393 1.463 . S
C1396 N1400 1.427 . S
C1397 H1387 0.929 . S
C1397 C1395 1.433 . S
C1397 N1400 1.384 . S
C1398 H1389 0.929 . S
C1398 C1390 1.378 . S
C1398 C1393 1.350 . S
C1399 H1386 0.929 . S
C1399 C1391 1.433 . S
C1399 N1401 1.384 . S
N1400 C1396 1.427 . S
N1400 C1397 1.384 . S
N1401 C1393 1.427 . S
N1401 C1399 1.384 . S
H1402 C1408 0.930 . S
H1403 C1412 0.930 . S
H1404 C1417 0.929 . S
H1405 C1415 0.929 . S
H1406 C1410 0.929 . S
H1407 C1416 0.929 . S
C1408 H1402 0.930 . S
C1408 C1409 1.367 . S
C1408 C1416 1.378 . S
C1409 C1408 1.367 . S
C1409 C1417 1.433 . S
C1410 H1406 0.929 . S
C1410 C1412 1.378 . S
C1410 C1414 1.350 . S
C1411 C1414 1.463 . S
C1411 C1416 1.350 . S
C1411 N1419 1.427 . S
C1412 H1403 0.930 . S
C1412 C1410 1.378 . S
C1412 C1413 1.367 . S
C1413 C1412 1.367 . S
C1413 C1415 1.433 . S
C1414 C1410 1.350 . S
C1414 C1411 1.463 . S
C1414 N1418 1.427 . S
C1415 H1405 0.929 . S
C1415 C1413 1.433 . S
C1415 N1418 1.384 . S
C1416 H1407 0.929 . S
C1416 C1408 1.378 . S
C1416 C1411 1.350 . S
C1417 H1404 0.929 . S
C1417 C1409 1.433 . S
C1417 N1419 1.384 . S
N1418 C1414 1.427 . S
N1418 C1415 1.384 . S
N1419 C1411 1.427 . S
N1419 C1417 1.384 . S
H1420 C1426 0.930 . S
H1421 C1430 0.930 . S
H1422 C1435 0.929 . S
H1423 C1433 0.929 . S
H1424 C1428 0.929 . S
H1425 C1434 0.929 . S
C1426 H1420 0.930 . S
C1426 C1427 1.367 . S
C1426 C1434 1.378 . S
C1427 C1426 1.367 . S
C1427 C1435 1.433 . S
C1428 H1424 0.929 . S
C1428 C1430 1.378 . S
C1428 C1432 1.350 . S
C1429 C1432 1.463 . S
C1429 C1434 1.350 . S
C1429 N1437 1.427 . S
C1430 H1421 0.930 . S
C1430 C1428 1.378 . S
C1430 C1431 1.367 . S
C1431 C1430 1.367 . S
C1431 C1433 1.433 . S
C1432 C1428 1.350 . S
C1432 C1429 1.463 . S
C1432 N1436 1.427 . S
C1433 H1423 0.929 . S
C1433 C1431 1.433 . S
C1433 N1436 1.384 . S
C1434 H1425 0.929 . S
C1434 C1426 1.378 . S
C1434 C1429 1.350 . S
C1435 H1422 0.929 . S
C1435 C1427 1.433 . S
C1435 N1437 1.384 . S
N1436 C1432 1.427 . S
N1436 C1433 1.384 . S
N1437 C1429 1.427 . S
N1437 C1435 1.384 . S
H1438 C1444 0.930 . S
H1439 C1448 0.930 . S
H1440 C1453 0.929 . S
H1441 C1451 0.929 . S
H1442 C1446 0.929 . S
H1443 C1452 0.929 . S
C1444 H1438 0.930 . S
C1444 C1445 1.367 . S
C1444 C1452 1.378 . S
C1445 C1444 1.367 . S
C1445 C1453 1.433 . S
C1446 H1442 0.929 . S
C1446 C1448 1.378 . S
C1446 C1450 1.350 . S
C1447 C1450 1.463 . S
C1447 C1452 1.350 . S
C1447 N1455 1.427 . S
C1448 H1439 0.930 . S
C1448 C1446 1.378 . S
C1448 C1449 1.367 . S
C1449 C1448 1.367 . S
C1449 C1451 1.433 . S
C1450 C1446 1.350 . S
C1450 C1447 1.463 . S
C1450 N1454 1.427 . S
C1451 H1441 0.929 . S
C1451 C1449 1.433 . S
C1451 N1454 1.384 . S
C1452 H1443 0.929 . S
C1452 C1444 1.378 . S
C1452 C1447 1.350 . S
C1453 H1440 0.929 . S
C1453 C1445 1.433 . S
C1453 N1455 1.384 . S
N1454 C1450 1.427 . S
N1454 C1451 1.384 . S
N1455 C1447 1.427 . S
N1455 C1453 1.384 . S
H1456 C1462 0.930 . S
H1457 C1466 0.930 . S
H1458 C1471 0.929 . S
H1459 C1469 0.929 . S
H1460 C1464 0.929 . S
H1461 C1470 0.929 . S
C1462 H1456 0.930 . S
C1462 C1463 1.367 . S
C1462 C1470 1.378 . S
C1463 C1462 1.367 . S
C1463 C1471 1.433 . S
C1464 H1460 0.929 . S
C1464 C1466 1.378 . S
C1464 C1468 1.350 . S
C1465 C1468 1.463 . S
C1465 C1470 1.350 . S
C1465 N1473 1.427 . S
C1466 H1457 0.930 . S
C1466 C1464 1.378 . S
C1466 C1467 1.367 . S
C1467 C1466 1.367 . S
C1467 C1469 1.433 . S
C1468 C1464 1.350 . S
C1468 C1465 1.463 . S
C1468 N1472 1.427 . S
C1469 H1459 0.929 . S
C1469 C1467 1.433 . S
C1469 N1472 1.384 . S
C1470 H1461 0.929 . S
C1470 C1462 1.378 . S
C1470 C1465 1.350 . S
C1471 H1458 0.929 . S
C1471 C1463 1.433 . S
C1471 N1473 1.384 . S
N1472 C1468 1.427 . S
N1472 C1469 1.384 . S
N1473 C1465 1.427 . S
N1473 C1471 1.384 . S
H1474 C1480 0.930 . S
H1475 C1484 0.930 . S
H1476 C1489 0.929 . S
H1477 C1487 0.929 . S
H1478 C1482 0.929 . S
H1479 C1488 0.929 . S
C1480 H1474 0.930 . S
C1480 C1481 1.367 . S
C1480 C1488 1.378 . S
C1481 C1480 1.367 . S
C1481 C1489 1.433 . S
C1482 H1478 0.929 . S
C1482 C1484 1.378 . S
C1482 C1486 1.350 . S
C1483 C1486 1.463 . S
C1483 C1488 1.350 . S
C1483 N1491 1.427 . S
C1484 H1475 0.930 . S
C1484 C1482 1.378 . S
C1484 C1485 1.367 . S
C1485 C1484 1.367 . S
C1485 C1487 1.433 . S
C1486 C1482 1.350 . S
C1486 C1483 1.463 . S
C1486 N1490 1.427 . S
C1487 H1477 0.929 . S
C1487 C1485 1.433 . S
C1487 N1490 1.384 . S
C1488 H1479 0.929 . S
C1488 C1480 1.378 . S
C1488 C1483 1.350 . S
C1489 H1476 0.929 . S
C1489 C1481 1.433 . S
C1489 N1491 1.384 . S
N1490 C1486 1.427 . S
N1490 C1487 1.384 . S
N1491 C1483 1.427 . S
N1491 C1489 1.384 . S
H1492 C1498 0.930 . S
H1493 C1502 0.930 . S
H1494 C1507 0.929 . S
H1495 C1505 0.929 . S
H1496 C1500 0.929 . S
H1497 C1506 0.929 . S
C1498 H1492 0.930 . S
C1498 C1499 1.367 . S
C1498 C1506 1.378 . S
C1499 C1498 1.367 . S
C1499 C1507 1.433 . S
C1500 H1496 0.929 . S
C1500 C1502 1.378 . S
C1500 C1504 1.350 . S
C1501 C1504 1.463 . S
C1501 C1506 1.350 . S
C1501 N1509 1.427 . S
C1502 H1493 0.930 . S
C1502 C1500 1.378 . S
C1502 C1503 1.367 . S
C1503 C1502 1.367 . S
C1503 C1505 1.433 . S
C1504 C1500 1.350 . S
C1504 C1501 1.463 . S
C1504 N1508 1.427 . S
C1505 H1495 0.929 . S
C1505 C1503 1.433 . S
C1505 N1508 1.384 . S
C1506 H1497 0.929 . S
C1506 C1498 1.378 . S
C1506 C1501 1.350 . S
C1507 H1494 0.929 . S
C1507 C1499 1.433 . S
C1507 N1509 1.384 . S
N1508 C1504 1.427 . S
N1508 C1505 1.384 . S
N1509 C1501 1.427 . S
N1509 C1507 1.384 . S
H1510 C1516 0.930 . S
H1511 C1520 0.930 . S
H1512 C1525 0.929 . S
H1513 C1523 0.929 . S
H1514 C1518 0.929 . S
H1515 C1524 0.929 . S
C1516 H1510 0.930 . S
C1516 C1517 1.367 . S
C1516 C1524 1.378 . S
C1517 C1516 1.367 . S
C1517 C1525 1.433 . S
C1518 H1514 0.929 . S
C1518 C1520 1.378 . S
C1518 C1522 1.350 . S
C1519 C1522 1.463 . S
C1519 C1524 1.350 . S
C1519 N1527 1.427 . S
C1520 H1511 0.930 . S
C1520 C1518 1.378 . S
C1520 C1521 1.367 . S
C1521 C1520 1.367 . S
C1521 C1523 1.433 . S
C1522 C1518 1.350 . S
C1522 C1519 1.463 . S
C1522 N1526 1.427 . S
C1523 H1513 0.929 . S
C1523 C1521 1.433 . S
C1523 N1526 1.384 . S
C1524 H1515 0.929 . S
C1524 C1516 1.378 . S
C1524 C1519 1.350 . S
C1525 H1512 0.929 . S
C1525 C1517 1.433 . S
C1525 N1527 1.384 . S
N1526 C1522 1.427 . S
N1526 C1523 1.384 . S
N1527 C1519 1.427 . S
N1527 C1525 1.384 . S
H1528 C1534 0.930 . S
H1529 C1538 0.930 . S
H1530 C1543 0.929 . S
H1531 C1541 0.929 . S
H1532 C1536 0.929 . S
H1533 C1542 0.929 . S
C1534 H1528 0.930 . S
C1534 C1535 1.367 . S
C1534 C1542 1.378 . S
C1535 C1534 1.367 . S
C1535 C1543 1.433 . S
C1536 H1532 0.929 . S
C1536 C1538 1.378 . S
C1536 C1540 1.350 . S
C1537 C1540 1.463 . S
C1537 C1542 1.350 . S
C1537 N1545 1.427 . S
C1538 H1529 0.930 . S
C1538 C1536 1.378 . S
C1538 C1539 1.367 . S
C1539 C1538 1.367 . S
C1539 C1541 1.433 . S
C1540 C1536 1.350 . S
C1540 C1537 1.463 . S
C1540 N1544 1.427 . S
C1541 H1531 0.929 . S
C1541 C1539 1.433 . S
C1541 N1544 1.384 . S
C1542 H1533 0.929 . S
C1542 C1534 1.378 . S
C1542 C1537 1.350 . S
C1543 H1530 0.929 . S
C1543 C1535 1.433 . S
C1543 N1545 1.384 . S
N1544 C1540 1.427 . S
N1544 C1541 1.384 . S
N1545 C1537 1.427 . S
N1545 C1543 1.384 . S
H1546 C1552 0.930 . S
H1547 C1556 0.930 . S
H1548 C1561 0.929 . S
H1549 C1559 0.929 . S
H1550 C1554 0.929 . S
H1551 C1560 0.929 . S
C1552 H1546 0.930 . S
C1552 C1553 1.367 . S
C1552 C1560 1.378 . S
C1553 C1552 1.367 . S
C1553 C1561 1.433 . S
C1554 H1550 0.929 . S
C1554 C1556 1.378 . S
C1554 C1558 1.350 . S
C1555 C1558 1.463 . S
C1555 C1560 1.350 . S
C1555 N1563 1.427 . S
C1556 H1547 0.930 . S
C1556 C1554 1.378 . S
C1556 C1557 1.367 . S
C1557 C1556 1.367 . S
C1557 C1559 1.433 . S
C1558 C1554 1.350 . S
C1558 C1555 1.463 . S
C1558 N1562 1.427 . S
C1559 H1549 0.929 . S
C1559 C1557 1.433 . S
C1559 N1562 1.384 . S
C1560 H1551 0.929 . S
C1560 C1552 1.378 . S
C1560 C1555 1.350 . S
C1561 H1548 0.929 . S
C1561 C1553 1.433 . S
C1561 N1563 1.384 . S
N1562 C1558 1.427 . S
N1562 C1559 1.384 . S
N1563 C1555 1.427 . S
N1563 C1561 1.384 . S
H1564 C1570 0.930 . S
H1565 C1574 0.930 . S
H1566 C1579 0.929 . S
H1567 C1577 0.929 . S
H1568 C1572 0.929 . S
H1569 C1578 0.929 . S
C1570 H1564 0.930 . S
C1570 C1571 1.367 . S
C1570 C1578 1.378 . S
C1571 C1570 1.367 . S
C1571 C1579 1.433 . S
C1572 H1568 0.929 . S
C1572 C1574 1.378 . S
C1572 C1576 1.350 . S
C1573 C1576 1.463 . S
C1573 C1578 1.350 . S
C1573 N1581 1.427 . S
C1574 H1565 0.930 . S
C1574 C1572 1.378 . S
C1574 C1575 1.367 . S
C1575 C1574 1.367 . S
C1575 C1577 1.433 . S
C1576 C1572 1.350 . S
C1576 C1573 1.463 . S
C1576 N1580 1.427 . S
C1577 H1567 0.929 . S
C1577 C1575 1.433 . S
C1577 N1580 1.384 . S
C1578 H1569 0.929 . S
C1578 C1570 1.378 . S
C1578 C1573 1.350 . S
C1579 H1566 0.929 . S
C1579 C1571 1.433 . S
C1579 N1581 1.384 . S
N1580 C1576 1.427 . S
N1580 C1577 1.384 . S
N1581 C1573 1.427 . S
N1581 C1579 1.384 . S
H1582 C1588 0.930 . S
H1583 C1592 0.930 . S
H1584 C1597 0.929 . S
H1585 C1595 0.929 . S
H1586 C1590 0.929 . S
H1587 C1596 0.929 . S
C1588 H1582 0.930 . S
C1588 C1589 1.367 . S
C1588 C1596 1.378 . S
C1589 C1588 1.367 . S
C1589 C1597 1.433 . S
C1590 H1586 0.929 . S
C1590 C1592 1.378 . S
C1590 C1594 1.350 . S
C1591 C1594 1.463 . S
C1591 C1596 1.350 . S
C1591 N1599 1.427 . S
C1592 H1583 0.930 . S
C1592 C1590 1.378 . S
C1592 C1593 1.367 . S
C1593 C1592 1.367 . S
C1593 C1595 1.433 . S
C1594 C1590 1.350 . S
C1594 C1591 1.463 . S
C1594 N1598 1.427 . S
C1595 H1585 0.929 . S
C1595 C1593 1.433 . S
C1595 N1598 1.384 . S
C1596 H1587 0.929 . S
C1596 C1588 1.378 . S
C1596 C1591 1.350 . S
C1597 H1584 0.929 . S
C1597 C1589 1.433 . S
C1597 N1599 1.384 . S
N1598 C1594 1.427 . S
N1598 C1595 1.384 . S
N1599 C1591 1.427 . S
N1599 C1597 1.384 . S
C455 C181 1.429 . S
C459 C0 1.431 . S
C473 C406 1.432 . S
C477 C27 1.434 . S
C491 C196 1.430 . S
C495 C29 1.432 . S
C509 C435 1.428 . S
C513 C55 1.429 . S
C527 C113 1.431 . S
C531 C68 1.432 . S
C545 C70 1.430 . S
C549 C362 1.427 . S
C563 C84 1.431 . S
C567 C140 1.428 . S
C581 C391 1.428 . S
C585 C99 1.429 . S
C599 C69 1.428 . S
C603 C112 1.430 . S
C617 C294 1.433 . S
C621 C126 1.433 . S
C635 C85 1.429 . S
C639 C141 1.432 . S
C653 C322 1.429 . S
C657 C166 1.430 . S
C671 C180 1.432 . S
C675 C1 1.430 . S
C689 C183 1.430 . S
C693 C251 1.427 . S
C707 C28 1.431 . S
C711 C197 1.433 . S
C725 C211 1.429 . S
C729 C266 1.427 . S
C743 C392 1.428 . S
C747 C224 1.431 . S
C761 C182 1.432 . S
C765 C250 1.434 . S
C779 C433 1.427 . S
C783 C252 1.429 . S
C797 C267 1.433 . S
C801 C210 1.432 . S
C815 C280 1.434 . S
C819 C337 1.432 . S
C833 C295 1.429 . S
C837 C127 1.428 . S
C851 C377 1.428 . S
C855 C320 1.430 . S
C869 C167 1.427 . S
C873 C323 1.429 . S
C887 C281 1.431 . S
C891 C336 1.433 . S
C905 C363 1.430 . S
C909 C71 1.427 . S
C923 C376 1.433 . S
C927 C321 1.431 . S
C941 C390 1.429 . S
C945 C98 1.428 . S
C959 C225 1.426 . S
C963 C393 1.429 . S
C977 C26 1.431 . S
C981 C407 1.433 . S
C995 C253 1.427 . S
C999 C432 1.429 . S
C1013 C434 1.428 . S
C1017 C54 1.427 . S
C1031 C13 1.951 . S
C1035 C125 1.954 . S
C1049 C14 1.952 . S
C1053 C350 1.948 . S
C1067 C152 1.954 . S
C1071 C40 1.957 . S
C1085 C42 1.958 . S
C1089 C379 1.958 . S
C1103 C57 1.946 . S
C1107 C169 1.950 . S
C1121 C418 1.950 . S
C1125 C83 1.950 . S
C1139 C208 1.953 . S
C1143 C97 1.953 . S
C1157 C110 1.957 . S
C1161 C447 1.957 . S
C1175 C139 1.953 . S
C1179 C239 1.949 . S
C1193 C155 1.958 . S
C1197 C278 1.958 . S
C1211 C194 1.948 . S
C1215 C306 1.951 . S
C1229 C334 1.957 . S
C1233 C222 1.954 . S
C1247 C237 1.946 . S
C1251 C349 1.950 . S
C1265 C265 1.946 . S
C1269 C365 1.949 . S
C1283 C293 1.955 . S
C1287 C404 1.955 . S
C1301 C421 1.953 . S
C1305 C309 1.949 . S
C1319 C12 1.888 . S
C1323 C111 1.881 . S
C1337 C15 1.887 . S
C1341 C56 1.882 . S
C1355 C82 1.886 . S
C1359 C41 1.882 . S
C1373 C96 1.885 . S
C1377 C43 1.883 . S
C1391 C223 1.887 . S
C1395 C124 1.883 . S
C1409 C168 1.881 . S
C1413 C138 1.885 . S
C1427 C195 1.883 . S
C1431 C153 1.887 . S
C1445 C209 1.882 . S
C1449 C154 1.887 . S
C1463 C236 1.886 . S
C1467 C335 1.882 . S
C1481 C292 1.885 . S
C1485 C238 1.884 . S
C1499 C307 1.882 . S
C1503 C264 1.888 . S
C1517 C308 1.882 . S
C1521 C279 1.887 . S
C1535 C446 1.882 . S
C1539 C348 1.885 . S
C1553 C351 1.882 . S
C1557 C405 1.888 . S
C1571 C364 1.885 . S
C1575 C419 1.884 . S
C1589 C420 1.886 . S
C1593 C378 1.882 . S
