# Generated by pormake.
# Topology vbm, (6)-cn, num edge types: 1
# Building blocks:
#     Node 0, Type 0, BuildingBlock: MIDCAF_clean_sbu_0, # of connection points: 6
#     Node 1, Type 0, BuildingBlock: MIDCAF_clean_sbu_0, # of connection points: 6
#     Node 2, Type 0, BuildingBlock: MIDCAF_clean_sbu_0, # of connection points: 6
#     Node 3, Type 0, BuildingBlock: MIDCAF_clean_sbu_0, # of connection points: 6
#     Node 4, Type 0, BuildingBlock: MIDCAF_clean_sbu_0, # of connection points: 6
#     Node 5, Type 0, BuildingBlock: MIDCAF_clean_sbu_0, # of connection points: 6
#     Node 6, Type 0, BuildingBlock: MIDCAF_clean_sbu_0, # of connection points: 6
#     Node 7, Type 0, BuildingBlock: MIDCAF_clean_sbu_0, # of connection points: 6
#     Node 8, Type 0, BuildingBlock: MIDCAF_clean_sbu_0, # of connection points: 6
#     Node 9, Type 0, BuildingBlock: MIDCAF_clean_sbu_0, # of connection points: 6
#     Node 10, Type 0, BuildingBlock: MIDCAF_clean_sbu_0, # of connection points: 6
#     Node 11, Type 0, BuildingBlock: MIDCAF_clean_sbu_0, # of connection points: 6
#     Node 12, Type 0, BuildingBlock: MIDCAF_clean_sbu_0, # of connection points: 6
#     Node 13, Type 0, BuildingBlock: MIDCAF_clean_sbu_0, # of connection points: 6
#     Node 14, Type 0, BuildingBlock: MIDCAF_clean_sbu_0, # of connection points: 6
#     Node 15, Type 0, BuildingBlock: MIDCAF_clean_sbu_0, # of connection points: 6
#     Edge 16, Type (0, 0), BuildingBlock: XIVTED_clean_linker_0, # of connection points: 2
#     Edge 17, Type (0, 0), BuildingBlock: XIVTED_clean_linker_0, # of connection points: 2
#     Edge 18, Type (0, 0), BuildingBlock: XIVTED_clean_linker_0, # of connection points: 2
#     Edge 19, Type (0, 0), BuildingBlock: XIVTED_clean_linker_0, # of connection points: 2
#     Edge 20, Type (0, 0), BuildingBlock: XIVTED_clean_linker_0, # of connection points: 2
#     Edge 21, Type (0, 0), BuildingBlock: XIVTED_clean_linker_0, # of connection points: 2
#     Edge 22, Type (0, 0), BuildingBlock: XIVTED_clean_linker_0, # of connection points: 2
#     Edge 23, Type (0, 0), BuildingBlock: XIVTED_clean_linker_0, # of connection points: 2
#     Edge 24, Type (0, 0), BuildingBlock: XIVTED_clean_linker_0, # of connection points: 2
#     Edge 25, Type (0, 0), BuildingBlock: XIVTED_clean_linker_0, # of connection points: 2
#     Edge 26, Type (0, 0), BuildingBlock: XIVTED_clean_linker_0, # of connection points: 2
#     Edge 27, Type (0, 0), BuildingBlock: XIVTED_clean_linker_0, # of connection points: 2
#     Edge 28, Type (0, 0), BuildingBlock: XIVTED_clean_linker_0, # of connection points: 2
#     Edge 29, Type (0, 0), BuildingBlock: XIVTED_clean_linker_0, # of connection points: 2
#     Edge 30, Type (0, 0), BuildingBlock: XIVTED_clean_linker_0, # of connection points: 2
#     Edge 31, Type (0, 0), BuildingBlock: XIVTED_clean_linker_0, # of connection points: 2
#     Edge 32, Type (0, 0), BuildingBlock: XIVTED_clean_linker_0, # of connection points: 2
#     Edge 33, Type (0, 0), BuildingBlock: XIVTED_clean_linker_0, # of connection points: 2
#     Edge 34, Type (0, 0), BuildingBlock: XIVTED_clean_linker_0, # of connection points: 2
#     Edge 35, Type (0, 0), BuildingBlock: XIVTED_clean_linker_0, # of connection points: 2
#     Edge 36, Type (0, 0), BuildingBlock: XIVTED_clean_linker_0, # of connection points: 2
#     Edge 37, Type (0, 0), BuildingBlock: XIVTED_clean_linker_0, # of connection points: 2
#     Edge 38, Type (0, 0), BuildingBlock: XIVTED_clean_linker_0, # of connection points: 2
#     Edge 39, Type (0, 0), BuildingBlock: XIVTED_clean_linker_0, # of connection points: 2
#     Edge 40, Type (0, 0), BuildingBlock: XIVTED_clean_linker_0, # of connection points: 2
#     Edge 41, Type (0, 0), BuildingBlock: XIVTED_clean_linker_0, # of connection points: 2
#     Edge 42, Type (0, 0), BuildingBlock: XIVTED_clean_linker_0, # of connection points: 2
#     Edge 43, Type (0, 0), BuildingBlock: XIVTED_clean_linker_0, # of connection points: 2
#     Edge 44, Type (0, 0), BuildingBlock: XIVTED_clean_linker_0, # of connection points: 2
#     Edge 45, Type (0, 0), BuildingBlock: XIVTED_clean_linker_0, # of connection points: 2
#     Edge 46, Type (0, 0), BuildingBlock: XIVTED_clean_linker_0, # of connection points: 2
#     Edge 47, Type (0, 0), BuildingBlock: XIVTED_clean_linker_0, # of connection points: 2
#     Edge 48, Type (0, 0), BuildingBlock: XIVTED_clean_linker_0, # of connection points: 2
#     Edge 49, Type (0, 0), BuildingBlock: XIVTED_clean_linker_0, # of connection points: 2
#     Edge 50, Type (0, 0), BuildingBlock: XIVTED_clean_linker_0, # of connection points: 2
#     Edge 51, Type (0, 0), BuildingBlock: XIVTED_clean_linker_0, # of connection points: 2
#     Edge 52, Type (0, 0), BuildingBlock: XIVTED_clean_linker_0, # of connection points: 2
#     Edge 53, Type (0, 0), BuildingBlock: XIVTED_clean_linker_0, # of connection points: 2
#     Edge 54, Type (0, 0), BuildingBlock: XIVTED_clean_linker_0, # of connection points: 2
#     Edge 55, Type (0, 0), BuildingBlock: XIVTED_clean_linker_0, # of connection points: 2
#     Edge 56, Type (0, 0), BuildingBlock: XIVTED_clean_linker_0, # of connection points: 2
#     Edge 57, Type (0, 0), BuildingBlock: XIVTED_clean_linker_0, # of connection points: 2
#     Edge 58, Type (0, 0), BuildingBlock: XIVTED_clean_linker_0, # of connection points: 2
#     Edge 59, Type (0, 0), BuildingBlock: XIVTED_clean_linker_0, # of connection points: 2
#     Edge 60, Type (0, 0), BuildingBlock: XIVTED_clean_linker_0, # of connection points: 2
#     Edge 61, Type (0, 0), BuildingBlock: XIVTED_clean_linker_0, # of connection points: 2
#     Edge 62, Type (0, 0), BuildingBlock: XIVTED_clean_linker_0, # of connection points: 2
#     Edge 63, Type (0, 0), BuildingBlock: XIVTED_clean_linker_0, # of connection points: 2
# Relax obj value: 0.153
# Max RMSD: 0.187
# Mean RMSD: 0.187
data_MOF--net-vbm--node1-MIDCAF_clean_sbu_0--edge1-XIVTED_clean_linker_0
_symmetry_space_group_name_H-M    P1
_symmetry_Int_Tables_number       1
_symmetry_cell_setting            triclinic
loop_
_symmetry_equiv_pos_as_xyz
'x, y, z'
_cell_length_a     58.940211
_cell_length_b     15.404695
_cell_length_c     59.88529
_cell_angle_alpha  89.805901
_cell_angle_beta   90.017499
_cell_angle_gamma 90.090505
loop_
_atom_site_label
_atom_site_type_symbol
_atom_site_fract_x
_atom_site_fract_y
_atom_site_fract_z
_atom_type_partial_charge
Zn0 Zn 0.15853 0.08668 0.11396 0.0
Zn1 Zn 0.10928 0.20778 0.17642 0.0
Zn2 Zn 0.13413 0.14683 0.14533 0.0
C3 C 0.084 0.07369 0.15813 0.0
C4 C 0.14872 0.16249 0.198 0.0
O5 O 0.1686 0.11863 0.16008 0.0
O6 O 0.18653 0.06533 0.13079 0.0
C7 C 0.14633 0.24717 0.09856 0.0
O8 O 0.1022 0.0674 0.14623 0.0
O9 O 0.08306 0.12903 0.17358 0.0
O10 O 0.12965 0.19567 0.20216 0.0
O11 O 0.15379 0.14052 0.17778 0.0
O12 O 0.15837 0.18366 0.09275 0.0
O13 O 0.13607 0.24636 0.11764 0.0
O14 O 0.11896 0.02131 0.13384 0.0
O15 O 0.14136 0.98225 0.1061 0.0
C16 C 0.12469 0.9662 0.11864 0.0
O17 O 0.1245 0.28339 0.13592 0.0
O18 O 0.1042 0.32511 0.16498 0.0
C19 C 0.18662 0.086 0.15114 0.0
C20 C 0.11275 0.34183 0.14616 0.0
Zn21 Zn 0.9206 0.60744 0.15562 0.0
Zn22 Zn 0.85557 0.71954 0.10733 0.0
Zn23 Zn 0.88923 0.67334 0.13208 0.0
C24 C 0.88658 0.85935 0.10891 0.0
C25 C 0.87441 0.58636 0.08391 0.0
O26 O 0.89898 0.5433 0.11856 0.0
O27 O 0.92257 0.4901 0.1438 0.0
C28 C 0.8867 0.65167 0.18588 0.0
O29 O 0.89851 0.80418 0.1201 0.0
O30 O 0.86697 0.83897 0.10219 0.0
O31 O 0.85813 0.63884 0.08218 0.0
O32 O 0.88705 0.58704 0.10158 0.0
O33 O 0.90691 0.62467 0.18543 0.0
O34 O 0.87627 0.66777 0.16733 0.0
O35 O 0.91801 0.76863 0.13159 0.0
O36 O 0.94499 0.68728 0.14654 0.0
C37 C 0.93897 0.75668 0.13708 0.0
O38 O 0.85739 0.67444 0.15316 0.0
O39 O 0.83044 0.70173 0.12836 0.0
C40 C 0.91147 0.4807 0.12599 0.0
C41 C 0.8362 0.68364 0.1481 0.0
Zn42 Zn 0.14756 0.08129 0.43001 0.0
Zn43 Zn 0.09562 0.96833 0.36613 0.0
Zn44 Zn 0.12136 0.02538 0.39849 0.0
C45 C 0.07274 0.10711 0.38514 0.0
C46 C 0.13703 0.0023 0.34619 0.0
O47 O 0.15668 0.03761 0.38468 0.0
O48 O 0.17648 0.08123 0.41398 0.0
C49 C 0.12634 0.93756 0.44777 0.0
O50 O 0.09116 0.10996 0.39671 0.0
O51 O 0.07051 0.05245 0.36965 0.0
O52 O 0.11719 0.97856 0.34114 0.0
O53 O 0.14199 0.02062 0.36668 0.0
O54 O 0.14138 -0.00776 0.45293 0.0
O55 O 0.11787 0.93737 0.4279 0.0
O56 O 0.10842 0.15457 0.40849 0.0
O57 O 0.13303 0.19553 0.43421 0.0
C58 C 0.11579 0.2117 0.42242 0.0
O59 O 0.10973 0.89421 0.40854 0.0
O60 O 0.09052 0.8514 0.37884 0.0
C61 C 0.17573 0.05985 0.39369 0.0
C62 C 0.09825 0.83571 0.39809 0.0
Zn63 Zn 0.83229 0.03394 0.40098 0.0
Zn64 Zn 0.88716 0.14114 0.3373 0.0
Zn65 Zn 0.86307 0.08338 0.37075 0.0
C66 C 0.91423 0.1405 0.37705 0.0
C67 C 0.87312 0.98139 0.32329 0.0
O68 O 0.83262 0.16848 0.36972 0.0
O69 O 0.80773 0.11792 0.39424 0.0
C70 C 0.87349 0.06809 0.42387 0.0
O71 O 0.89626 0.11069 0.38664 0.0
O72 O 0.91439 0.15482 0.35626 0.0
O73 O 0.88472 0.04428 0.31607 0.0
O74 O 0.86451 0.98361 0.34314 0.0
O75 O 0.85266 0.05293 0.42699 0.0
O76 O 0.88131 0.07864 0.40387 0.0
O77 O 0.85298 0.95008 0.36209 0.0
O78 O 0.82917 0.9137 0.38917 0.0
C79 C 0.84002 0.89376 0.37174 0.0
O80 O 0.85072 0.21221 0.35877 0.0
O81 O 0.8719 0.25131 0.32999 0.0
C82 C 0.81288 0.17094 0.37897 0.0
C83 C 0.85629 0.26841 0.34366 0.0
Zn84 Zn 0.86659 0.74667 0.90605 0.0
Zn85 Zn 0.92896 0.62276 0.85615 0.0
Zn86 Zn 0.89906 0.68662 0.88184 0.0
C87 C 0.94837 0.77228 0.87359 0.0
C88 C 0.89376 0.65543 0.82765 0.0
O89 O 0.86691 0.69051 0.86155 0.0
O90 O 0.84154 0.74735 0.88442 0.0
C91 C 0.88177 0.60051 0.92868 0.0
O92 O 0.92859 0.77812 0.88272 0.0
O93 O 0.95282 0.70942 0.8609 0.0
O94 O 0.91355 0.62466 0.82711 0.0
O95 O 0.88517 0.67913 0.84655 0.0
O96 O 0.86642 0.65732 0.92974 0.0
O97 O 0.89544 0.59924 0.91181 0.0
O98 O 0.90977 0.81809 0.89338 0.0
O99 O 0.88031 0.85905 0.9136 0.0
C100 C 0.89966 0.87515 0.90559 0.0
O101 O 0.90907 0.55686 0.89566 0.0
O102 O 0.93358 0.51033 0.87053 0.0
C103 C 0.84644 0.71589 0.86563 0.0
C104 C 0.92262 0.49766 0.88831 0.0
Zn105 Zn 0.16526 0.19975 0.92166 0.0
Zn106 Zn 0.09574 0.32118 0.88205 0.0
Zn107 Zn 0.13029 0.25227 0.90011 0.0
C108 C 0.08061 0.16283 0.8967 0.0
C109 C 0.12807 0.30103 0.84795 0.0
O110 O 0.1601 0.25171 0.87635 0.0
O111 O 0.18791 0.20279 0.89779 0.0
C112 C 0.15039 0.33327 0.9471 0.0
O113 O 0.10204 0.15439 0.90071 0.0
O114 O 0.07286 0.23348 0.88937 0.0
O115 O 0.10782 0.32429 0.85126 0.0
O116 O 0.14025 0.27414 0.8645 0.0
O117 O 0.16747 0.28429 0.94615 0.0
O118 O 0.13542 0.33125 0.93131 0.0
O119 O 0.12193 0.11833 0.91144 0.0
O120 O 0.15322 0.08449 0.92984 0.0
C121 C 0.13368 0.0638 0.92307 0.0
O122 O 0.12163 0.37973 0.91639 0.0
O123 O 0.09267 0.43163 0.89717 0.0
C124 C 0.18104 0.22914 0.87904 0.0
C125 C 0.10706 0.44062 0.91254 0.0
Zn126 Zn 0.83723 0.97788 0.60655 0.0
Zn127 Zn 0.89942 0.08741 0.66515 0.0
Zn128 Zn 0.86993 0.02823 0.63489 0.0
C129 C 0.92257 0.05218 0.62432 0.0
C130 C 0.88003 0.93703 0.68323 0.0
O131 O 0.84139 0.12085 0.63644 0.0
O132 O 0.81505 0.0711 0.61336 0.0
C133 C 0.87691 0.00611 0.58103 0.0
O134 O 0.90259 0.03405 0.61694 0.0
O135 O 0.9255 0.07418 0.64442 0.0
O136 O 0.89312 -0.00141 0.68847 0.0
O137 O 0.87088 0.93437 0.66364 0.0
O138 O 0.8562 -0.01382 0.57919 0.0
O139 O 0.88553 0.02186 0.60046 0.0
O140 O 0.8583 0.89861 0.64576 0.0
O141 O 0.83265 0.86205 0.62043 0.0
C142 C 0.8441 0.84332 0.63761 0.0
O143 O 0.86036 0.16059 0.64642 0.0
O144 O 0.88718 0.20524 0.66958 0.0
C145 C 0.82144 0.12573 0.62771 0.0
C146 C 0.86911 0.22 0.65894 0.0
Zn147 Zn 0.15204 0.0758 0.61541 0.0
Zn148 Zn 0.10312 0.94557 0.67957 0.0
Zn149 Zn 0.13076 0.00428 0.64818 0.0
C150 C 0.07675 0.96159 0.64166 0.0
C151 C 0.1222 0.09778 0.69612 0.0
O152 O 0.16057 0.92104 0.64432 0.0
O153 O 0.17677 -0.0104 0.61597 0.0
C154 C 0.11389 0.02171 0.59542 0.0
O155 O 0.09621 -0.01436 0.634 0.0
O156 O 0.07464 0.94033 0.66193 0.0
O157 O 0.10825 0.03924 0.70158 0.0
O158 O 0.13156 0.09755 0.67663 0.0
O159 O 0.13072 0.06805 0.59022 0.0
O160 O 0.11133 -0.0043 0.61581 0.0
O161 O 0.1416 0.13924 0.65793 0.0
O162 O 0.15907 0.18948 0.62787 0.0
C163 C 0.1524 0.20058 0.64764 0.0
O164 O 0.14533 0.87853 0.65929 0.0
O165 O 0.11983 0.83572 0.6841 0.0
C166 C 0.1769 0.92901 0.63021 0.0
C167 C 0.13781 0.82141 0.67326 0.0
Zn168 Zn 0.66413 0.68015 0.114 0.0
Zn169 Zn 0.60023 0.73415 0.15515 0.0
Zn170 Zn 0.63219 0.67693 0.13416 0.0
C171 C 0.58321 0.60303 0.12503 0.0
C172 C 0.63003 0.64563 0.1857 0.0
O173 O 0.663 0.64273 0.15442 0.0
O174 O 0.68229 0.74399 0.13696 0.0
C175 C 0.62961 0.69925 0.0843 0.0
O176 O 0.60434 0.59686 0.11955 0.0
O177 O 0.57717 0.65802 0.13952 0.0
O178 O 0.61294 0.69544 0.18523 0.0
O179 O 0.64025 0.62663 0.16743 0.0
O180 O 0.64775 0.73944 0.0889 0.0
O181 O 0.62139 0.6463 0.09903 0.0
O182 O 0.62736 0.56265 0.11301 0.0
O183 O 0.66427 0.54447 0.11442 0.0
C184 C 0.6447 0.51171 0.11177 0.0
O185 O 0.63404 0.81554 0.12709 0.0
O186 O 0.60354 0.85825 0.1449 0.0
C187 C 0.68062 0.69216 0.15327 0.0
C188 C 0.62041 0.8761 0.13266 0.0
Zn189 Zn 0.42699 0.206 0.17218 0.0
Zn190 Zn 0.36454 0.31452 0.12747 0.0
Zn191 Zn 0.39449 0.26322 0.14903 0.0
C192 C 0.37705 0.45587 0.14819 0.0
C193 C 0.39269 0.23632 0.09749 0.0
O194 O 0.38463 0.13398 0.16118 0.0
O195 O 0.41637 0.08646 0.17668 0.0
C196 C 0.40898 0.34587 0.19589 0.0
O197 O 0.38519 0.39416 0.16034 0.0
O198 O 0.37021 0.43988 0.12866 0.0
O199 O 0.37167 0.24623 0.10044 0.0
O200 O 0.40649 0.25566 0.11346 0.0
O201 O 0.42308 0.28473 0.19777 0.0
O202 O 0.39738 0.35427 0.17774 0.0
O203 O 0.4259 0.27038 0.12725 0.0
O204 O 0.45219 0.23003 0.15148 0.0
C205 C 0.44704 0.25948 0.13247 0.0
O206 O 0.36431 0.17509 0.15465 0.0
O207 O 0.33919 0.27582 0.14648 0.0
C208 C 0.39605 0.07361 0.17098 0.0
C209 C 0.34369 0.20342 0.15518 0.0
Zn210 Zn 0.64994 0.47666 0.41822 0.0
Zn211 Zn 0.58657 0.36084 0.3632 0.0
Zn212 Zn 0.61972 0.41865 0.39036 0.0
C213 C 0.56964 0.50248 0.38751 0.0
C214 C 0.62422 0.40987 0.33647 0.0
O215 O 0.6519 0.43028 0.37104 0.0
O216 O 0.67509 0.48225 0.39677 0.0
C217 C 0.63565 0.31915 0.4356 0.0
O218 O 0.59044 0.50641 0.39402 0.0
O219 O 0.56317 0.44376 0.37429 0.0
O220 O 0.60385 0.38455 0.33519 0.0
O221 O 0.63351 0.42251 0.35571 0.0
O222 O 0.64958 0.37934 0.43963 0.0
O223 O 0.62329 0.32169 0.41783 0.0
O224 O 0.60932 0.54738 0.40383 0.0
O225 O 0.63627 0.58707 0.42741 0.0
C226 C 0.61787 0.60324 0.41751 0.0
O227 O 0.60996 0.28524 0.40072 0.0
O228 O 0.58549 0.24095 0.37509 0.0
C229 C 0.6718 0.456 0.37709 0.0
C230 C 0.59714 0.2256 0.39234 0.0
Zn231 Zn 0.40176 0.81294 0.35908 0.0
Zn232 Zn 0.34344 0.69698 0.41575 0.0
Zn233 Zn 0.37414 0.7414 0.3867 0.0
C234 C 0.349 0.56033 0.38408 0.0
C235 C 0.38301 0.71233 0.44029 0.0
O236 O 0.36329 0.87624 0.37665 0.0
O237 O 0.38822 0.92517 0.35205 0.0
C238 C 0.38778 0.6587 0.33921 0.0
O239 O 0.36237 0.61505 0.37444 0.0
O240 O 0.33953 0.57969 0.40233 0.0
O241 O 0.36185 0.70802 0.4433 0.0
O242 O 0.39107 0.72047 0.42031 0.0
O243 O 0.40053 0.72324 0.33591 0.0
O244 O 0.37637 0.65169 0.3575 0.0
O245 O 0.40751 0.74561 0.404 0.0
O246 O 0.42842 0.81369 0.3788 0.0
C247 C 0.42673 0.77713 0.39761 0.0
O248 O 0.34453 0.83277 0.38622 0.0
O249 O 0.31908 0.7811 0.41001 0.0
C250 C 0.37061 0.93706 0.36352 0.0
C251 C 0.32467 0.8357 0.3953 0.0
Zn252 Zn 0.35565 0.30653 0.91512 0.0
Zn253 Zn 0.41449 0.18276 0.8634 0.0
Zn254 Zn 0.3871 0.25628 0.88881 0.0
C255 C 0.43472 0.33839 0.87528 0.0
C256 C 0.37811 0.20448 0.83619 0.0
O257 O 0.35391 0.26266 0.86994 0.0
O258 O 0.32888 0.29945 0.89577 0.0
C259 C 0.37634 0.18152 0.93949 0.0
O260 O 0.41616 0.34764 0.88636 0.0
O261 O 0.43786 0.27212 0.86343 0.0
O262 O 0.39741 0.16954 0.83576 0.0
O263 O 0.37091 0.23924 0.85453 0.0
O264 O 0.35888 0.22828 0.94103 0.0
O265 O 0.38778 0.18041 0.92107 0.0
O266 O 0.3983 0.38803 0.89869 0.0
O267 O 0.36879 0.42365 0.91942 0.0
C268 C 0.38772 0.4435 0.91093 0.0
O269 O 0.39739 0.12788 0.90366 0.0
O270 O 0.42194 0.07646 0.87928 0.0
C271 C 0.33332 0.28013 0.87581 0.0
C272 C 0.41104 0.06739 0.89721 0.0
Zn273 Zn 0.66905 0.52377 0.90508 0.0
Zn274 Zn 0.61821 0.65438 0.84412 0.0
Zn275 Zn 0.64051 0.58368 0.87573 0.0
C276 C 0.59323 0.50996 0.85907 0.0
C277 C 0.65668 0.61323 0.82293 0.0
O278 O 0.67549 0.57552 0.86103 0.0
O279 O 0.69788 0.53134 0.88844 0.0
C280 C 0.64685 0.66043 0.92572 0.0
O281 O 0.61032 0.5005 0.87224 0.0
O282 O 0.59319 0.56975 0.84462 0.0
O283 O 0.63864 0.65325 0.81833 0.0
O284 O 0.66018 0.58608 0.84313 0.0
O285 O 0.66211 0.6051 0.92961 0.0
O286 O 0.63791 0.66618 0.9061 0.0
O287 O 0.62685 0.45482 0.88525 0.0
O288 O 0.65429 0.40886 0.90748 0.0
C289 C 0.63562 0.39534 0.89774 0.0
O290 O 0.62924 0.71402 0.88763 0.0
O291 O 0.61125 0.76574 0.85807 0.0
C292 C 0.69541 0.55591 0.86847 0.0
C293 C 0.61796 0.77512 0.8779 0.0
Zn294 Zn 0.34973 0.47133 0.60626 0.0
Zn295 Zn 0.39149 0.59588 0.67405 0.0
Zn296 Zn 0.37049 0.53665 0.63985 0.0
C297 C 0.42314 0.59148 0.63944 0.0
C298 C 0.37459 0.44132 0.68895 0.0
O299 O 0.33983 0.61582 0.63506 0.0
O300 O 0.32383 0.55198 0.60602 0.0
C301 C 0.39015 0.52346 0.5883 0.0
O302 O 0.40579 0.56378 0.62842 0.0
O303 O 0.42146 0.60784 0.66 0.0
O304 O 0.38595 0.50453 0.69621 0.0
O305 O 0.36823 0.43939 0.66827 0.0
O306 O 0.3724 0.48366 0.58255 0.0
O307 O 0.39284 0.54665 0.6089 0.0
O308 O 0.36002 0.40058 0.6484 0.0
O309 O 0.34323 0.35511 0.61753 0.0
C310 C 0.34959 0.34078 0.63729 0.0
O311 O 0.35424 0.66161 0.64974 0.0
O312 O 0.37492 0.70449 0.67841 0.0
C313 C 0.32336 0.60917 0.62104 0.0
C314 C 0.35899 0.71845 0.66484 0.0
Zn315 Zn 0.60334 0.33515 0.66267 0.0
Zn316 Zn 0.65444 0.45317 0.59763 0.0
Zn317 Zn 0.62937 0.39051 0.62919 0.0
C318 C 0.62193 0.57681 0.60343 0.0
C319 C 0.63833 0.2939 0.58243 0.0
O320 O 0.61811 0.2566 0.62082 0.0
O321 O 0.59852 0.21693 0.65069 0.0
C322 C 0.64489 0.37929 0.6817 0.0
O323 O 0.61562 0.5188 0.61778 0.0
O324 O 0.63903 0.56323 0.59129 0.0
O325 O 0.65052 0.35713 0.57643 0.0
O326 O 0.62906 0.29281 0.60193 0.0
O327 O 0.62552 0.35131 0.68717 0.0
O328 O 0.64945 0.39529 0.661 0.0
O329 O 0.59897 0.47351 0.63017 0.0
O330 O 0.57847 0.42057 0.65809 0.0
C331 C 0.58073 0.47313 0.64202 0.0
O332 O 0.6644 0.40607 0.64279 0.0
O333 O 0.68325 0.45939 0.61397 0.0
C334 C 0.60653 0.19916 0.63169 0.0
C335 C 0.68312 0.43268 0.6339 0.0
H336 H 0.20532 0.19438 0.18285 0.0
H337 H 0.32665 0.04393 0.14366 0.0
H338 H 0.21817 0.96036 0.14573 0.0
H339 H 0.31581 0.26029 0.18766 0.0
H340 H 0.28819 -0.00701 0.15161 0.0
H341 H 0.24588 0.20171 0.1923 0.0
C342 C 0.21651 0.14298 0.17736 0.0
C343 C 0.20849 0.07762 0.16315 0.0
C344 C 0.2944 0.05011 0.16016 0.0
C345 C 0.25486 0.08634 0.17338 0.0
C346 C 0.31662 0.07814 0.15591 0.0
C347 C 0.32457 0.15545 0.16533 0.0
C348 C 0.2799 0.10111 0.17346 0.0
C349 C 0.3103 0.19985 0.1802 0.0
C350 C 0.23972 0.14746 0.18257 0.0
C351 C 0.22376 0.01281 0.1564 0.0
N352 N 0.28855 0.17312 0.18348 0.0
N353 N 0.2462 0.0197 0.16119 0.0
H354 H 0.81621 0.80802 0.17325 0.0
H355 H 0.70168 0.54047 0.1652 0.0
H356 H 0.81268 0.53634 0.15719 0.0
H357 H 0.70661 0.81818 0.17171 0.0
H358 H 0.74195 0.52836 0.17543 0.0
H359 H 0.77689 0.80215 0.18629 0.0
C360 C 0.80748 0.74608 0.17355 0.0
C361 C 0.81774 0.67233 0.16442 0.0
C362 C 0.73403 0.59174 0.17536 0.0
C363 C 0.77229 0.66584 0.17808 0.0
C364 C 0.71096 0.59849 0.16979 0.0
C365 C 0.70092 0.68051 0.16746 0.0
C366 C 0.74698 0.66759 0.17864 0.0
C367 C 0.7138 0.75376 0.17321 0.0
C368 C 0.78489 0.74289 0.18067 0.0
C369 C 0.80542 0.59431 0.16444 0.0
N370 N 0.73621 0.74575 0.17814 0.0
N371 N 0.7832 0.59342 0.17068 0.0
H372 H 0.30778 0.97287 0.418 0.0
H373 H 0.20971 0.1777 0.39423 0.0
H374 H 0.30086 0.83152 0.35648 0.0
H375 H 0.19189 0.92724 0.36759 0.0
H376 H 0.24974 0.14587 0.38766 0.0
H377 H 0.27285 0.05129 0.40944 0.0
C378 C 0.29924 0.96086 0.40228 0.0
C379 C 0.30733 0.89749 0.38766 0.0
C380 C 0.23707 0.0985 0.38283 0.0
C381 C 0.26691 0.98427 0.37802 0.0
C382 C 0.21423 0.11703 0.38629 0.0
C383 C 0.19759 0.05427 0.3818 0.0
C384 C 0.24334 0.01592 0.37524 0.0
C385 C 0.20428 0.97701 0.37141 0.0
C386 C 0.27932 0.00559 0.39732 0.0
C387 C 0.29529 0.88164 0.36787 0.0
N388 N 0.22679 0.95894 0.36895 0.0
N389 N 0.2753 0.92322 0.36385 0.0
H390 H 0.79691 0.3097 0.40165 0.0
H391 H 0.6807 0.31984 0.34898 0.0
H392 H 0.78903 0.16969 0.34001 0.0
H393 H 0.70996 0.55416 0.37568 0.0
H394 H 0.71913 0.26425 0.34217 0.0
H395 H 0.76442 0.40047 0.39154 0.0
C396 C 0.78851 0.29942 0.38578 0.0
C397 C 0.79565 0.23341 0.37148 0.0
C398 C 0.71707 0.32927 0.34868 0.0
C399 C 0.75801 0.33392 0.3602 0.0
C400 C 0.69514 0.36138 0.35236 0.0
C401 C 0.69223 0.44077 0.3634 0.0
C402 C 0.73587 0.3768 0.35641 0.0
C403 C 0.71154 0.49175 0.36756 0.0
C404 C 0.77006 0.35119 0.37995 0.0
C405 C 0.78405 0.22111 0.35127 0.0
N406 N 0.73255 0.45776 0.36477 0.0
N407 N 0.76537 0.26965 0.3464 0.0
H408 H 0.73085 0.445 0.86451 0.0
H409 H 0.81286 0.82559 0.85269 0.0
H410 H 0.70723 0.6955 0.8425 0.0
H411 H 0.83575 0.56168 0.84608 0.0
H412 H 0.77471 0.78024 0.84179 0.0
H413 H 0.76891 0.48151 0.85135 0.0
C414 C 0.7336 0.50685 0.85626 0.0
C415 C 0.71601 0.56773 0.85477 0.0
C416 C 0.78818 0.7325 0.8419 0.0
C417 C 0.75973 0.61151 0.84041 0.0
C418 C 0.81002 0.75859 0.84797 0.0
C419 C 0.82737 0.69708 0.85043 0.0
C420 C 0.78353 0.64378 0.83903 0.0
C421 C 0.8228 0.61104 0.84436 0.0
C422 C 0.75535 0.5278 0.84875 0.0
C423 C 0.72041 0.64693 0.84399 0.0
N424 N 0.80113 0.58631 0.83964 0.0
N425 N 0.74201 0.66765 0.8378 0.0
H426 H 0.30806 0.41552 0.86149 0.0
H427 H 0.20433 0.10003 0.85897 0.0
H428 H 0.3137 0.13777 0.85678 0.0
H429 H 0.19875 0.37819 0.86173 0.0
H430 H 0.24324 0.11471 0.8454 0.0
H431 H 0.26863 0.40612 0.84909 0.0
C432 C 0.30121 0.35277 0.85687 0.0
C433 C 0.31408 0.2773 0.8601 0.0
C434 C 0.23334 0.17285 0.84816 0.0
C435 C 0.26857 0.26526 0.847 0.0
C436 C 0.21097 0.1644 0.85561 0.0
C437 C 0.19836 0.23805 0.86145 0.0
C438 C 0.24335 0.25562 0.84711 0.0
C439 C 0.20789 0.31985 0.85725 0.0
C440 C 0.2786 0.34723 0.85001 0.0
C441 C 0.30435 0.19747 0.85432 0.0
N442 N 0.23003 0.3265 0.85093 0.0
N443 N 0.28199 0.19326 0.84858 0.0
H444 H 0.69459 0.31348 0.66639 0.0
H445 H 0.80742 0.16295 0.6701 0.0
H446 H 0.72259 0.51697 0.62505 0.0
H447 H 0.79879 0.23909 0.60133 0.0
H448 H 0.77574 0.25981 0.68049 0.0
H449 H 0.73301 0.25616 0.67195 0.0
C450 C 0.70885 0.34844 0.65934 0.0
C451 C 0.70536 0.41875 0.64476 0.0
C452 C 0.78116 0.25615 0.66324 0.0
C453 C 0.74899 0.35284 0.65066 0.0
C454 C 0.79916 0.20157 0.65733 0.0
C455 C 0.80536 0.19294 0.63483 0.0
C456 C 0.76995 0.30353 0.6465 0.0
C457 C 0.79426 0.24361 0.61881 0.0
C458 C 0.73078 0.31549 0.66245 0.0
C459 C 0.72449 0.46125 0.63596 0.0
N460 N 0.77711 0.29699 0.62497 0.0
N461 N 0.74538 0.4258 0.63837 0.0
H462 H 0.19899 0.85545 0.66611 0.0
H463 H 0.2957 0.65884 0.5874 0.0
H464 H 0.19978 0.87276 0.59422 0.0
H465 H 0.30409 0.67873 0.65876 0.0
H466 H 0.25909 0.72973 0.59043 0.0
H467 H 0.23562 0.77835 0.66477 0.0
C468 C 0.20669 0.84159 0.65009 0.0
C469 C 0.19652 0.87035 0.63024 0.0
C470 C 0.26891 0.7194 0.60549 0.0
C471 C 0.23812 0.78447 0.62857 0.0
C472 C 0.28988 0.67919 0.60372 0.0
C473 C 0.30291 0.66333 0.62284 0.0
C474 C 0.2607 0.74344 0.62658 0.0
C475 C 0.29458 0.69078 0.6436 0.0
C476 C 0.22762 0.79866 0.64934 0.0
C477 C 0.20716 0.85195 0.60991 0.0
N478 N 0.27383 0.72921 0.64498 0.0
N479 N 0.22736 0.81051 0.60962 0.0
H480 H 0.16317 0.14545 0.33702 0.0
H481 H 0.16655 0.00436 0.20902 0.0
H482 H 0.14598 0.89166 0.31221 0.0
H483 H 0.16119 0.26796 0.23207 0.0
H484 H 0.175 0.95776 0.24742 0.0
H485 H 0.17806 0.18386 0.29987 0.0
C486 C 0.16345 0.09665 0.32404 0.0
C487 C 0.15317 0.01561 0.32756 0.0
C488 C 0.17279 0.02626 0.24393 0.0
C489 C 0.16982 0.05906 0.28511 0.0
C490 C 0.16828 0.05294 0.22195 0.0
C491 C 0.16302 0.13998 0.21745 0.0
C492 C 0.17215 0.08729 0.26138 0.0
C493 C 0.16507 0.20012 0.23492 0.0
C494 C 0.17172 0.11879 0.30279 0.0
C495 C 0.15364 0.95509 0.31008 0.0
N496 N 0.16906 0.17257 0.25616 0.0
N497 N 0.16147 0.97837 0.28956 0.0
H498 H 0.83638 0.9576 0.29648 0.0
H499 H 0.89898 0.5872 0.22645 0.0
H500 H 0.90121 0.84727 0.31345 0.0
H501 H 0.85315 0.77055 0.19593 0.0
H502 H 0.8908 0.65017 0.26287 0.0
H503 H 0.83405 0.85922 0.26416 0.0
C504 C 0.84971 0.91041 0.29382 0.0
C505 C 0.86882 0.90905 0.30778 0.0
C506 C 0.88217 0.67556 0.24828 0.0
C507 C 0.86644 0.7978 0.27094 0.0
C508 C 0.88673 0.63941 0.22744 0.0
C509 C 0.87693 0.67425 0.20799 0.0
C510 C 0.86766 0.74727 0.24984 0.0
C511 C 0.86103 0.74145 0.21044 0.0
C512 C 0.84848 0.85508 0.27531 0.0
C513 C 0.88603 0.84906 0.30327 0.0
N514 N 0.85714 0.77677 0.23097 0.0
N515 N 0.88444 0.79585 0.28526 0.0
H516 H 0.84628 0.94842 0.71384 0.0
H517 H 0.90026 0.57023 0.78854 0.0
H518 H 0.90238 0.78783 0.69394 0.0
H519 H 0.86266 0.78323 0.81678 0.0
H520 H 0.89112 0.62307 0.7512 0.0
H521 H 0.84303 0.864 0.74869 0.0
C522 C 0.85735 0.89324 0.71648 0.0
C523 C 0.87428 0.87348 0.70084 0.0
C524 C 0.88449 0.65746 0.76552 0.0
C525 C 0.87099 0.77807 0.74067 0.0
C526 C 0.88957 0.62706 0.7869 0.0
C527 C 0.88251 0.67307 0.80589 0.0
C528 C 0.87225 0.73481 0.76294 0.0
C529 C 0.86851 0.74579 0.80265 0.0
C530 C 0.85564 0.84577 0.73642 0.0
C531 C 0.88875 0.80361 0.70533 0.0
N532 N 0.86416 0.77539 0.78155 0.0
N533 N 0.88681 0.75855 0.72483 0.0
H534 H 0.15993 0.19246 0.8288 0.0
H535 H 0.09748 0.22806 0.71429 0.0
H536 H 0.11338 0.39991 0.81333 0.0
H537 H 0.16198 0.09867 0.71901 0.0
H538 H 0.10511 0.29998 0.74987 0.0
H539 H 0.16401 0.16435 0.78858 0.0
C540 C 0.15116 0.23385 0.81698 0.0
C541 C 0.13601 0.29768 0.82445 0.0
C542 C 0.11794 0.25771 0.74292 0.0
C543 C 0.14015 0.26474 0.77862 0.0
C544 C 0.1136 0.21721 0.72255 0.0
C545 C 0.12931 0.15889 0.71364 0.0
C546 C 0.13772 0.2368 0.75496 0.0
C547 C 0.14967 0.14474 0.72524 0.0
C548 C 0.15338 0.21747 0.79402 0.0
C549 C 0.12492 0.3489 0.80835 0.0
N550 N 0.15312 0.18194 0.74559 0.0
N551 N 0.12686 0.33026 0.78631 0.0
H552 H 0.64826 0.5578 0.32741 0.0
H553 H 0.64698 0.48336 0.19494 0.0
H554 H 0.62471 0.32041 0.29736 0.0
H555 H 0.62984 0.72653 0.22605 0.0
H556 H 0.65325 0.41981 0.23229 0.0
H557 H 0.65657 0.61556 0.28989 0.0
C558 C 0.64569 0.51665 0.31299 0.0
C559 C 0.63572 0.43444 0.31541 0.0
C560 C 0.64857 0.48755 0.23082 0.0
C561 C 0.64514 0.4997 0.27269 0.0
C562 C 0.64508 0.52383 0.20958 0.0
C563 C 0.63763 0.60995 0.20747 0.0
C564 C 0.6452 0.5386 0.24996 0.0
C565 C 0.63531 0.65954 0.22698 0.0
C566 C 0.6502 0.54989 0.29163 0.0
C567 C 0.63235 0.38424 0.29615 0.0
N568 N 0.63903 0.62319 0.24738 0.0
N569 N 0.63689 0.41781 0.27558 0.0
H570 H 0.35268 0.61763 0.31106 0.0
H571 H 0.43974 0.38669 0.22759 0.0
H572 H 0.42242 0.55852 0.32601 0.0
H573 H 0.3696 0.42676 0.20988 0.0
H574 H 0.43272 0.45185 0.26372 0.0
H575 H 0.35678 0.54285 0.2749 0.0
C576 C 0.36856 0.58603 0.30705 0.0
C577 C 0.38718 0.59277 0.32154 0.0
C578 C 0.41877 0.44712 0.25201 0.0
C579 C 0.39229 0.51101 0.28018 0.0
C580 C 0.42285 0.41046 0.23123 0.0
C581 C 0.40523 0.40121 0.2157 0.0
C582 C 0.39682 0.47484 0.25759 0.0
C583 C 0.38369 0.43333 0.22135 0.0
C584 C 0.37102 0.54474 0.28632 0.0
C585 C 0.40761 0.55353 0.31538 0.0
N586 N 0.38001 0.46835 0.24196 0.0
N587 N 0.40966 0.51502 0.29516 0.0
H588 H 0.38083 0.09736 0.80046 0.0
H589 H 0.33663 0.4542 0.71394 0.0
H590 H 0.34974 0.33633 0.82179 0.0
H591 H 0.39557 0.2944 0.70397 0.0
H592 H 0.32966 0.38011 0.74977 0.0
H593 H 0.37339 0.13707 0.76168 0.0
C594 C 0.37175 0.15704 0.79703 0.0
C595 C 0.36627 0.21439 0.81443 0.0
C596 C 0.34364 0.3593 0.73935 0.0
C597 C 0.35787 0.26032 0.76989 0.0
C598 C 0.34746 0.40061 0.71882 0.0
C599 C 0.36633 0.37849 0.70572 0.0
C600 C 0.35872 0.29493 0.7467 0.0
C601 C 0.38046 0.31145 0.71323 0.0
C602 C 0.36767 0.17979 0.77485 0.0
C603 C 0.35434 0.29036 0.80894 0.0
N604 N 0.37638 0.27209 0.73322 0.0
N605 N 0.3509 0.31204 0.78706 0.0
H606 H 0.6768 0.45516 0.81723 0.0
H607 H 0.67102 0.52577 0.6854 0.0
H608 H 0.66695 0.70243 0.78484 0.0
H609 H 0.6534 0.28926 0.71991 0.0
H610 H 0.68615 0.58425 0.72057 0.0
H611 H 0.68538 0.39061 0.78079 0.0
C612 C 0.67749 0.49675 0.80262 0.0
C613 C 0.67078 0.5839 0.80397 0.0
C614 C 0.67965 0.51846 0.72024 0.0
C615 C 0.68027 0.51051 0.76231 0.0
C616 C 0.67119 0.48486 0.70015 0.0
C617 C 0.66068 0.40313 0.69989 0.0
C618 C 0.6778 0.46932 0.74001 0.0
C619 C 0.66114 0.35305 0.71951 0.0
C620 C 0.68213 0.45967 0.78179 0.0
C621 C 0.67176 0.63464 0.78445 0.0
N622 N 0.66922 0.38732 0.73884 0.0
N623 N 0.67594 0.59693 0.76437 0.0
H624 H 0.10977 0.35918 0.96832 0.0
H625 H 0.1782 0.35444 0.08128 0.0
H626 H 0.18155 0.40596 0.97492 0.0
H627 H 0.10738 0.28894 0.07643 0.0
H628 H 0.17625 0.4233 0.04455 0.0
H629 H 0.10539 0.38196 1.00864 0.0
C630 C 0.12446 0.37787 0.97809 0.0
C631 C 0.14614 0.37898 0.96839 0.0
C632 C 0.16089 0.39629 0.05169 0.0
C633 C 0.14136 0.4036 0.01447 0.0
C634 C 0.16199 0.35784 0.07279 0.0
C635 C 0.14294 0.31613 0.0818 0.0
C636 C 0.14077 0.39032 0.03915 0.0
C637 C 0.1224 0.321 0.07003 0.0
C638 C 0.12199 0.39 1.00116 0.0
C639 C 0.16458 0.40307 0.98182 0.0
N640 N 0.12198 0.35525 0.04901 0.0
N641 N 0.16185 0.41272 1.00419 0.0
H642 H 0.92109 0.57026 0.95186 0.0
H643 H 0.84554 0.48861 0.05928 0.0
H644 H 0.8496 0.51227 0.95183 0.0
H645 H 0.91521 0.57206 0.06236 0.0
H646 H 0.85076 0.44998 0.02015 0.0
H647 H 0.92298 0.52678 0.9914 0.0
C648 C 0.90602 0.54471 0.9599 0.0
C649 C 0.88512 0.54535 0.94867 0.0
C650 C 0.86516 0.4746 0.02942 0.0
C651 C 0.887 0.49725 0.99385 0.0
C652 C 0.86221 0.49579 0.05187 0.0
C653 C 0.87993 0.53395 0.064 0.0
C654 C 0.88582 0.49397 0.01876 0.0
C655 C 0.90115 0.54249 0.05357 0.0
C656 C 0.90703 0.52086 0.98254 0.0
C657 C 0.86603 0.51312 0.95995 0.0
N658 N 0.90336 0.52493 0.03135 0.0
N659 N 0.86735 0.4917 0.98193 0.0
H660 H 0.08227 0.9561 0.45891 0.0
H661 H 0.11118 0.8508 0.58592 0.0
H662 H 0.1442 0.83349 0.48034 0.0
H663 H 0.0903 0.10224 0.56203 0.0
H664 H 0.10581 0.79224 0.54817 0.0
H665 H 0.06851 0.95229 0.49758 0.0
C666 C 0.09237 0.92332 0.47149 0.0
C667 C 0.11444 0.89529 0.46652 0.0
C668 C 0.10136 0.85916 0.5515 0.0
C669 C 0.09881 0.89068 0.51053 0.0
C670 C 0.10417 0.89246 0.57304 0.0
C671 C 0.10116 0.98144 0.57699 0.0
C672 C 0.09492 0.91498 0.53408 0.0
C673 C 0.09271 0.03324 0.55961 0.0
C674 C 0.08461 0.92226 0.49357 0.0
C675 C 0.12708 0.85555 0.48354 0.0
N676 N 0.09014 -0.00051 0.53879 0.0
N677 N 0.11924 0.85564 0.50491 0.0
H678 H 0.89366 0.15546 0.56258 0.0
H679 H 0.89644 0.93256 0.44199 0.0
H680 H 0.88701 0.88116 0.55079 0.0
H681 H 0.88059 0.20171 0.45273 0.0
H682 H 0.90666 0.91847 0.48156 0.0
H683 H 0.9022 0.17714 0.5227 0.0
C684 C 0.89503 0.09941 0.55179 0.0
C685 C 0.88989 0.01626 0.56001 0.0
C686 C 0.90169 0.98143 0.47514 0.0
C687 C 0.89911 0.04056 0.51435 0.0
C688 C 0.89619 -0.01023 0.45246 0.0
C689 C 0.88805 0.06879 0.444 0.0
C690 C 0.89886 0.05256 0.48955 0.0
C691 C 0.88722 0.1401 0.45852 0.0
C692 C 0.8996 0.11188 0.52898 0.0
C693 C 0.89116 0.94615 0.54516 0.0
N694 N 0.89225 0.13012 0.48062 0.0
N695 N 0.89543 0.95989 0.52308 0.0
H696 H 0.60908 0.57619 0.05725 0.0
H697 H 0.66256 0.78967 0.95276 0.0
H698 H 0.63194 0.84217 0.05832 0.0
H699 H 0.60758 0.60845 0.94442 0.0
H700 H 0.65058 0.8128 0.99152 0.0
H701 H 0.60642 0.58542 0.01617 0.0
C702 C 0.61277 0.63718 0.04895 0.0
C703 C 0.62105 0.70808 0.06114 0.0
C704 C 0.64067 0.76994 0.98103 0.0
C705 C 0.6187 0.7184 0.01446 0.0
C706 C 0.6474 0.75763 0.95887 0.0
C707 C 0.63571 0.69876 0.94534 0.0
C708 C 0.62277 0.72008 0.98995 0.0
C709 C 0.61666 0.65601 0.95427 0.0
C710 C 0.61142 0.64236 0.02553 0.0
C711 C 0.62585 0.78544 0.04951 0.0
N712 N 0.6111 0.66573 0.9762 0.0
N713 N 0.62512 0.78793 0.02687 0.0
H714 H 0.35517 0.08075 0.97059 0.0
H715 H 0.42453 0.29809 0.06723 0.0
H716 H 0.41805 0.21338 0.95711 0.0
H717 H 0.37571 0.09379 0.07792 0.0
H718 H 0.42627 0.25758 0.02739 0.0
H719 H 0.36565 0.0708 1.00999 0.0
C720 C 0.37162 0.10472 0.97584 0.0
C721 C 0.38587 0.14691 0.96056 0.0
C722 C 0.41569 0.22004 0.03862 0.0
C723 C 0.39752 0.14079 1.00598 0.0
C724 C 0.41486 0.24281 0.06137 0.0
C725 C 0.39987 0.19943 0.0758 0.0
C726 C 0.40128 0.15419 0.03042 0.0
C727 C 0.38738 0.12923 0.06729 0.0
C728 C 0.37755 0.10003 0.99841 0.0
C729 C 0.40676 0.17899 0.96834 0.0
N730 N 0.38808 0.10982 0.04521 0.0
N731 N 0.41172 0.1774 0.99061 0.0
H732 H 0.59562 0.26775 0.45452 0.0
H733 H 0.66752 0.18404 0.56219 0.0
H734 H 0.66781 0.22667 0.45751 0.0
H735 H 0.59766 0.26473 0.5624 0.0
H736 H 0.66311 0.13396 0.52381 0.0
H737 H 0.59204 0.20549 0.49219 0.0
C738 C 0.61056 0.24204 0.46273 0.0
C739 C 0.6321 0.25374 0.45325 0.0
C740 C 0.64844 0.15975 0.53241 0.0
C741 C 0.62825 0.18397 0.49617 0.0
C742 C 0.65092 0.18734 0.55443 0.0
C743 C 0.63298 0.22923 0.56525 0.0
C744 C 0.62813 0.17732 0.52094 0.0
C745 C 0.61189 0.23285 0.55449 0.0
C746 C 0.60856 0.20711 0.48428 0.0
C747 C 0.65095 0.21992 0.46451 0.0
N748 N 0.6102 0.20999 0.5326 0.0
N749 N 0.64866 0.18808 0.48553 0.0
H750 H 0.4034 0.6904 0.58007 0.0
H751 H 0.411 0.57664 0.45022 0.0
H752 H 0.40743 0.43145 0.55357 0.0
H753 H 0.38572 0.81748 0.47651 0.0
H754 H 0.42384 0.53583 0.48786 0.0
H755 H 0.41148 0.74862 0.54265 0.0
C756 C 0.40716 0.64572 0.56664 0.0
C757 C 0.40471 0.55596 0.56992 0.0
C758 C 0.41619 0.59894 0.48527 0.0
C759 C 0.41337 0.62191 0.52697 0.0
C760 C 0.40916 0.62273 0.46372 0.0
C761 C 0.3976 0.70109 0.46021 0.0
C762 C 0.41153 0.65385 0.50345 0.0
C763 C 0.39482 0.75693 0.47849 0.0
C764 C 0.4114 0.67898 0.54518 0.0
C765 C 0.40921 0.5011 0.55175 0.0
N766 N 0.40148 0.73192 0.49932 0.0
N767 N 0.41293 0.53483 0.53103 0.0
H768 H 0.94571 0.89664 0.16337 0.0
H769 H 0.07219 -0.0139 0.11944 0.0
H770 H 0.97352 0.76048 0.10705 0.0
H771 H 0.04743 0.05082 0.18512 0.0
H772 H 0.03522 0.91916 0.11104 0.0
H773 H 0.98123 0.97801 0.16686 0.0
C774 C 0.95903 0.88657 0.15119 0.0
C775 C 0.95654 0.82384 0.13452 0.0
C776 C 0.03802 0.9478 0.1273 0.0
C777 C 0.9977 0.91285 0.13908 0.0
C778 C 0.05921 0.98495 0.13221 0.0
C779 C 0.0631 0.02325 0.15313 0.0
C780 C 0.02055 0.95058 0.14329 0.0
C781 C 0.04533 0.02205 0.16878 0.0
C782 C 0.97945 0.93173 0.1534 0.0
C783 C 0.97467 0.81019 0.11974 0.0
N784 N 0.02492 -0.0131 0.16351 0.0
N785 N 0.99459 0.85393 0.12243 0.0
H786 H 0.93841 0.28744 0.37284 0.0
H787 H 0.0507 0.08071 0.42411 0.0
H788 H 0.93811 0.04283 0.40798 0.0
H789 H 0.04698 0.22444 0.36243 0.0
H790 H 0.01011 0.10882 0.43042 0.0
H791 H 0.97832 0.30684 0.3824 0.0
C792 C 0.94662 0.23905 0.38323 0.0
C793 C 0.93513 0.16272 0.38934 0.0
C794 C 0.01842 0.13678 0.41596 0.0
C795 C 0.98088 0.18414 0.40004 0.0
C796 C 0.04157 0.12188 0.41248 0.0
C797 C 0.05208 0.15109 0.3928 0.0
C798 C 0.006 0.18271 0.39983 0.0
C799 C 0.03947 0.20169 0.37789 0.0
C800 C 0.9694 0.25008 0.38857 0.0
C801 C 0.94646 0.10235 0.40289 0.0
N802 N 0.01703 0.2155 0.38164 0.0
N803 N 0.96899 0.11341 0.40742 0.0
H804 H 0.04734 0.13738 0.92752 0.0
H805 H 0.98211 0.81687 0.84534 0.0
H806 H 0.0759 0.03159 0.86735 0.0
H807 H 0.95737 0.86692 0.91183 0.0
H808 H 0.01574 0.90236 0.85332 0.0
H809 H 0.01429 0.04106 0.92321 0.0
C810 C 0.04697 0.09143 0.91387 0.0
C811 C 0.06457 0.09009 0.89811 0.0
C812 C 1.00301 0.89519 0.86623 0.0
C813 C 0.02656 0.9836 0.89243 0.0
C814 C 0.98367 0.84681 0.86162 0.0
C815 C 0.96683 0.83517 0.87791 0.0
C816 C 0.00573 0.93282 0.88735 0.0
C817 C 0.9698 0.87544 0.8987 0.0
C818 C 0.02804 0.03739 0.91127 0.0
C819 C 0.06295 0.03257 0.88017 0.0
N820 N 0.98895 0.92267 0.90287 0.0
N821 N 0.04422 0.98204 0.87775 0.0
H822 H 0.95361 0.17315 0.61213 0.0
H823 H 0.0437 0.83921 0.6401 0.0
H824 H 0.93891 0.89983 0.60848 0.0
H825 H 0.06314 0.0854 0.61156 0.0
H826 H 0.00611 0.85462 0.62342 0.0
H827 H 0.99372 0.14226 0.60548 0.0
C828 C 0.95874 0.10691 0.60881 0.0
C829 C 0.94306 0.03884 0.61081 0.0
C830 C 0.01872 0.90438 0.62024 0.0
C831 C 0.98897 0.00243 0.60448 0.0
C832 C 0.04014 0.89567 0.62985 0.0
C833 C 0.05633 0.96169 0.62741 0.0
C834 C 0.01316 0.98119 0.60879 0.0
C835 C 0.05101 0.03333 0.61389 0.0
C836 C 0.98167 0.08911 0.60521 0.0
C837 C 0.95054 0.95402 0.60689 0.0
N838 N 0.02961 0.04248 0.6056 0.0
N839 N 0.97311 0.93782 0.60461 0.0
H840 H 0.48851 0.18659 0.12635 0.0
H841 H 0.5435 0.65177 0.10572 0.0
H842 H 0.44953 0.41367 0.10939 0.0
H843 H 0.58125 0.4253 0.12545 0.0
H844 H 0.51024 0.55999 0.09876 0.0
H845 H 0.52331 0.26474 0.11689 0.0
C846 C 0.48722 0.25207 0.1198 0.0
C847 C 0.46604 0.29365 0.11871 0.0
C848 C 0.52595 0.52977 0.10399 0.0
C849 C 0.50608 0.38525 0.10867 0.0
C850 C 0.54499 0.58213 0.10784 0.0
C851 C 0.56537 0.54577 0.11562 0.0
C852 C 0.52708 0.4402 0.10837 0.0
C853 C 0.56621 0.45554 0.11863 0.0
C854 C 0.50717 0.29713 0.11466 0.0
C855 C 0.46545 0.37884 0.11033 0.0
N856 N 0.5473 0.40608 0.11526 0.0
N857 N 0.48519 0.42246 0.10611 0.0
H858 H 0.46456 0.87743 0.39898 0.0
H859 H 0.54371 0.46956 0.42376 0.0
H860 H 0.4381 0.63107 0.42134 0.0
H861 H 0.55533 0.66002 0.3722 0.0
H862 H 0.51 0.55117 0.43583 0.0
H863 H 0.50307 0.82229 0.40391 0.0
C864 C 0.46686 0.81287 0.40585 0.0
C865 C 0.44813 0.75815 0.40944 0.0
C866 C 0.52036 0.57628 0.42233 0.0
C867 C 0.49208 0.69454 0.41474 0.0
C868 C 0.53953 0.53016 0.4155 0.0
C869 C 0.55239 0.55946 0.39728 0.0
C870 C 0.51426 0.6524 0.41092 0.0
C871 C 0.54612 0.63677 0.38668 0.0
C872 C 0.48884 0.78131 0.40845 0.0
C873 C 0.45207 0.67532 0.41842 0.0
N874 N 0.52745 0.68066 0.39365 0.0
N875 N 0.47369 0.64508 0.42028 0.0
H876 H 0.46149 0.36198 0.91171 0.0
H877 H 0.56285 0.46151 0.82774 0.0
H878 H 0.45334 0.43596 0.8428 0.0
H879 H 0.57368 0.46313 0.89894 0.0
H880 H 0.52263 0.43573 0.83396 0.0
H881 H 0.50212 0.39769 0.90914 0.0
C882 C 0.46806 0.39009 0.89641 0.0
C883 C 0.45416 0.39696 0.87747 0.0
C884 C 0.53375 0.44085 0.8483 0.0
C885 C 0.50044 0.43279 0.87403 0.0
C886 C 0.55679 0.4539 0.84472 0.0
C887 C 0.57154 0.46466 0.86284 0.0
C888 C 0.52526 0.43861 0.87019 0.0
C889 C 0.56282 0.45454 0.88452 0.0
C890 C 0.49129 0.40854 0.8948 0.0
C891 C 0.46351 0.43078 0.85782 0.0
N892 N 0.54009 0.44304 0.88765 0.0
N893 N 0.48613 0.44594 0.85648 0.0
H894 H 0.45125 0.72792 0.64486 0.0
H895 H 0.55686 0.58486 0.66774 0.0
H896 H 0.44655 0.48038 0.61188 0.0
H897 H 0.55886 0.47213 0.60207 0.0
H898 H 0.51883 0.63994 0.65992 0.0
H899 H 0.49231 0.72699 0.63933 0.0
C900 C 0.45886 0.67445 0.63586 0.0
C901 C 0.44567 0.60327 0.62919 0.0
C902 C 0.52783 0.6059 0.64686 0.0
C903 C 0.49261 0.60028 0.62362 0.0
C904 C 0.54949 0.57442 0.65138 0.0
C905 C 0.56093 0.52507 0.63542 0.0
C906 C 0.51724 0.5853 0.62648 0.0
C907 C 0.55056 0.51127 0.61463 0.0
C908 C 0.48228 0.67362 0.63292 0.0
C909 C 0.45624 0.53608 0.6174 0.0
N910 N 0.52895 0.53913 0.61094 0.0
N911 N 0.4793 0.53516 0.61542 0.0
H912 H 0.12926 0.84729 0.08533 0.0
H913 H 0.07922 0.4551 0.15687 0.0
H914 H 0.09871 0.88179 0.15022 0.0
H915 H 0.13886 0.4319 0.11562 0.0
H916 H 0.07639 0.60801 0.1464 0.0
H917 H 0.12212 0.69143 0.08814 0.0
C918 C 0.12048 0.82261 0.09992 0.0
C919 C 0.11475 0.87792 0.11769 0.0
C920 C 0.08979 0.56881 0.13929 0.0
C921 C 0.10651 0.69964 0.12082 0.0
C922 C 0.09149 0.48159 0.14523 0.0
C923 C 0.1093 0.43017 0.13697 0.0
C924 C 0.10585 0.60498 0.12479 0.0
C925 C 0.12457 0.46811 0.12188 0.0
C926 C 0.11655 0.73359 0.1015 0.0
C927 C 0.1033 0.84203 0.13608 0.0
N928 N 0.12258 0.55355 0.11634 0.0
N929 N 0.09974 0.75485 0.13727 0.0
H930 H 0.86841 0.97956 0.08042 0.0
H931 H 0.94536 0.36216 0.12797 0.0
H932 H 0.92207 0.94547 0.12853 0.0
H933 H 0.87868 0.40282 0.10011 0.0
H934 H 0.94303 0.20934 0.11778 0.0
H935 H 0.87789 0.13371 0.07792 0.0
C936 C 0.8825 0.00397 0.09019 0.0
C937 C 0.89453 0.94919 0.10483 0.0
C938 C 0.92909 0.25202 0.11351 0.0
C939 C 0.90546 0.12545 0.10184 0.0
C940 C 0.9304 0.33926 0.11926 0.0
C941 C 0.91203 0.39497 0.11512 0.0
C942 C 0.90924 0.22004 0.10361 0.0
C943 C 0.89323 0.36221 0.10354 0.0
C944 C 0.88787 0.09198 0.0887 0.0
C945 C 0.91264 0.98457 0.11687 0.0
N946 N 0.89215 0.27626 0.09847 0.0
N947 N 0.91746 0.07061 0.11527 0.0
H948 H 0.08599 0.28964 0.3932 0.0
H949 H 0.12064 0.75775 0.43325 0.0
H950 H 0.12372 0.33588 0.45382 0.0
H951 H 0.06881 0.71145 0.38372 0.0
H952 H 0.11892 0.60461 0.44378 0.0
H953 H 0.076 0.44317 0.39195 0.0
C954 C 0.09168 0.33137 0.40656 0.0
C955 C 0.10588 0.29975 0.42351 0.0
C956 C 0.10762 0.62835 0.43089 0.0
C957 C 0.09512 0.4763 0.42183 0.0
C958 C 0.10853 0.71609 0.42495 0.0
C959 C 0.09503 0.74751 0.40743 0.0
C960 C 0.09336 0.57163 0.41898 0.0
C961 C 0.07982 0.68985 0.39709 0.0
C962 C 0.08611 0.41941 0.40577 0.0
C963 C 0.11301 0.3576 0.44022 0.0
N964 N 0.07966 0.60456 0.40278 0.0
N965 N 0.10788 0.44326 0.43875 0.0
H966 H 0.83355 0.34797 0.37766 0.0
H967 H 0.8703 0.80675 0.34559 0.0
H968 H 0.85965 0.39382 0.31136 0.0
H969 H 0.80693 0.77372 0.38048 0.0
H970 H 0.8685 0.6552 0.33383 0.0
H971 H 0.82419 0.50169 0.38057 0.0
C972 C 0.8364 0.38942 0.36334 0.0
C973 C 0.84686 0.35727 0.34404 0.0
C974 C 0.85471 0.68185 0.34359 0.0
C975 C 0.83779 0.53433 0.34794 0.0
C976 C 0.85558 0.76869 0.35 0.0
C977 C 0.83839 0.80389 0.36331 0.0
C978 C 0.83701 0.62894 0.35139 0.0
C979 C 0.8205 0.74938 0.37007 0.0
C980 C 0.83138 0.47751 0.36516 0.0
C981 C 0.85151 0.41566 0.32654 0.0
N982 N 0.82045 0.66412 0.36434 0.0
N983 N 0.8474 0.50179 0.32909 0.0
H984 H 0.88878 -0.01109 0.93856 0.0
H985 H 0.95692 0.38172 0.88365 0.0
H986 H 0.93071 0.96389 0.87988 0.0
H987 H 0.89199 0.41403 0.91586 0.0
H988 H 0.95589 0.22743 0.89287 0.0
H989 H 0.89835 0.14323 0.94021 0.0
C990 C 0.90045 0.01531 0.92632 0.0
C991 C 0.90906 0.96315 0.90906 0.0
C992 C 0.94212 0.26876 0.89832 0.0
C993 C 0.92012 0.13937 0.91107 0.0
C994 C 0.94266 0.35685 0.89315 0.0
C995 C 0.92434 0.41086 0.89879 0.0
C996 C 0.92323 0.23431 0.90939 0.0
C997 C 0.90651 0.37515 0.91132 0.0
C998 C 0.90584 0.10333 0.92731 0.0
C999 C 0.92409 0.00095 0.89371 0.0
N1000 N 0.90625 0.28858 0.91598 0.0
N1001 N 0.92905 0.08704 0.895 0.0
H1002 H 0.14351 0.51734 0.9336 0.0
H1003 H 0.0989 0.9749 0.90321 0.0
H1004 H 0.07339 0.55979 0.91593 0.0
H1005 H 0.15152 0.94633 0.95254 0.0
H1006 H 0.08892 0.82241 0.90818 0.0
H1007 H 0.14706 0.67208 0.94236 0.0
C1008 C 0.12868 0.55835 0.93229 0.0
C1009 C 0.10822 0.52582 0.92374 0.0
C1010 C 0.10232 0.85001 0.91831 0.0
C1011 C 0.11237 0.70267 0.93292 0.0
C1012 C 0.10778 0.93753 0.91561 0.0
C1013 C 0.12568 0.97425 0.92765 0.0
C1014 C 0.11538 0.79798 0.93271 0.0
C1015 C 0.13756 0.92087 0.94279 0.0
C1016 C 0.13075 0.64684 0.93711 0.0
C1017 C 0.08962 0.58247 0.92207 0.0
N1018 N 0.13246 0.83508 0.94461 0.0
N1019 N 0.09228 0.66841 0.9261 0.0
H1020 H 0.80928 0.72796 0.63258 0.0
H1021 H 0.84224 0.29921 0.62775 0.0
H1022 H 0.87573 0.75437 0.66197 0.0
H1023 H 0.87556 0.34417 0.6908 0.0
H1024 H 0.83006 0.45012 0.62714 0.0
H1025 H 0.80993 0.57277 0.64144 0.0
C1026 C 0.82382 0.70149 0.64132 0.0
C1027 C 0.84251 0.75422 0.64664 0.0
C1028 C 0.83936 0.42632 0.6415 0.0
C1029 C 0.84344 0.5771 0.65646 0.0
C1030 C 0.84614 0.33972 0.64195 0.0
C1031 C 0.85931 0.30815 0.65967 0.0
C1032 C 0.84646 0.48248 0.65856 0.0
C1033 C 0.86526 0.36568 0.67688 0.0
C1034 C 0.82421 0.61298 0.64622 0.0
C1035 C 0.8608 0.71664 0.65806 0.0
N1036 N 0.85914 0.45057 0.67568 0.0
N1037 N 0.8609 0.63006 0.66247 0.0
H1038 H 0.18607 0.31454 0.63758 0.0
H1039 H 0.13165 0.70313 0.70664 0.0
H1040 H 0.12704 0.28499 0.67945 0.0
H1041 H 0.16554 0.73731 0.64335 0.0
H1042 H 0.14008 0.54804 0.70521 0.0
H1043 H 0.18842 0.46718 0.64825 0.0
C1044 C 0.17389 0.33962 0.64947 0.0
C1045 C 0.1563 0.28679 0.65772 0.0
C1046 C 0.14612 0.59001 0.69193 0.0
C1047 C 0.15904 0.46133 0.66998 0.0
C1048 C 0.14142 0.67858 0.69271 0.0
C1049 C 0.14784 0.73358 0.675 0.0
C1050 C 0.15755 0.55615 0.67342 0.0
C1051 C 0.16055 0.698 0.6575 0.0
C1052 C 0.17528 0.4267 0.6555 0.0
C1053 C 0.14113 0.32265 0.67313 0.0
N1054 N 0.16479 0.61124 0.65703 0.0
N1055 N 0.1427 0.40814 0.67863 0.0
H1056 H 0.58858 0.00332 0.13012 0.0
H1057 H 0.60815 0.42427 0.09466 0.0
H1058 H 0.65978 0.9573 0.11849 0.0
H1059 H 0.67497 0.38252 0.12184 0.0
H1060 H 0.60145 0.26731 0.09576 0.0
H1061 H 0.59405 0.1556 0.12073 0.0
C1062 C 0.60538 0.02511 0.12533 0.0
C1063 C 0.62377 0.96724 0.12514 0.0
C1064 C 0.61754 0.2924 0.10162 0.0
C1065 C 0.63014 0.14273 0.11398 0.0
C1066 C 0.62135 0.38199 0.10097 0.0
C1067 C 0.6418 0.41669 0.10888 0.0
C1068 C 0.63439 0.23688 0.11021 0.0
C1069 C 0.6588 0.35863 0.11587 0.0
C1070 C 0.60843 0.11223 0.11969 0.0
C1071 C 0.64512 -0.00045 0.11877 0.0
N1072 N 0.65465 0.27164 0.11655 0.0
N1073 N 0.6478 0.08552 0.11378 0.0
H1074 H 0.34696 0.57756 0.13454 0.0
H1075 H 0.40758 0.95395 0.20249 0.0
H1076 H 0.40155 0.5354 0.18137 0.0
H1077 H 0.36376 -0.00548 0.14577 0.0
H1078 H 0.39747 0.80003 0.20242 0.0
H1079 H 0.34518 0.72887 0.14596 0.0
C1080 C 0.35849 0.60014 0.14738 0.0
C1081 C 0.3747 0.54446 0.15681 0.0
C1082 C 0.38965 0.84304 0.19033 0.0
C1083 C 0.37273 0.71733 0.16992 0.0
C1084 C 0.39538 0.93069 0.19036 0.0
C1085 C 0.38645 -0.01347 0.17404 0.0
C1086 C 0.37508 0.81134 0.17373 0.0
C1087 C 0.37064 0.95377 0.15883 0.0
C1088 C 0.35736 0.68633 0.15397 0.0
C1089 C 0.38884 0.5763 0.1737 0.0
N1090 N 0.36569 0.86781 0.15882 0.0
N1091 N 0.38776 0.66132 0.17952 0.0
H1092 H 0.62952 0.14484 0.41784 0.0
H1093 H 0.62331 0.71736 0.45188 0.0
H1094 H 0.56438 0.10218 0.38692 0.0
H1095 H 0.59221 0.69099 0.3871 0.0
H1096 H 0.61481 0.87293 0.45106 0.0
H1097 H 0.62979 -0.00594 0.43024 0.0
C1098 C 0.61484 0.10495 0.41448 0.0
C1099 C 0.59663 0.13707 0.4019 0.0
C1100 C 0.60949 0.83257 0.43724 0.0
C1101 C 0.59725 0.96308 0.41511 0.0
C1102 C 0.61415 0.74389 0.43775 0.0
C1103 C 0.60826 0.69117 0.41955 0.0
C1104 C 0.59893 0.8685 0.41838 0.0
C1105 C 0.59643 0.72877 0.40169 0.0
C1106 C 0.61507 0.01845 0.4214 0.0
C1107 C 0.57874 0.08022 0.39669 0.0
N1108 N 0.59227 0.81546 0.40146 0.0
N1109 N 0.57968 -0.00449 0.40297 0.0
H1110 H 0.34527 0.01487 0.396 0.0
H1111 H 0.31517 0.4465 0.39443 0.0
H1112 H 0.3736 0.05899 0.33056 0.0
H1113 H 0.376 0.46986 0.35477 0.0
H1114 H 0.31403 0.29149 0.38629 0.0
H1115 H 0.33353 0.16642 0.39726 0.0
C1116 C 0.34812 0.05547 0.3815 0.0
C1117 C 0.35998 0.02376 0.363 0.0
C1118 C 0.32755 0.33064 0.37928 0.0
C1119 C 0.34743 0.19842 0.36457 0.0
C1120 C 0.32815 0.41928 0.38375 0.0
C1121 C 0.34592 0.47119 0.3755 0.0
C1122 C 0.34494 0.29344 0.36656 0.0
C1123 C 0.36199 0.43263 0.36142 0.0
C1124 C 0.34158 0.14242 0.38226 0.0
C1125 C 0.36443 0.0808 0.34515 0.0
N1126 N 0.36126 0.34569 0.35758 0.0
N1127 N 0.35853 0.16578 0.34656 0.0
H1128 H 0.42374 0.52756 0.89064 0.0
H1129 H 0.38003 -0.00976 0.92549 0.0
H1130 H 0.37095 0.56423 0.93965 0.0
H1131 H 0.44489 0.94881 0.89387 0.0
H1132 H 0.37832 0.83506 0.93444 0.0
H1133 H 0.43376 0.68103 0.89416 0.0
C1134 C 0.41455 0.56717 0.90241 0.0
C1135 C 0.39635 0.53279 0.91464 0.0
C1136 C 0.39317 0.86036 0.92597 0.0
C1137 C 0.40737 0.709 0.91851 0.0
C1138 C 0.39421 0.94917 0.92104 0.0
C1139 C 0.4124 0.98214 0.90854 0.0
C1140 C 0.4103 0.80464 0.91809 0.0
C1141 C 0.43029 0.92571 0.90313 0.0
C1142 C 0.42022 0.65502 0.90442 0.0
C1143 C 0.38491 0.58793 0.92958 0.0
N1144 N 0.42857 0.83953 0.9075 0.0
N1145 N 0.39037 0.67336 0.93083 0.0
H1146 H 0.60326 0.31804 0.87114 0.0
H1147 H 0.58176 0.88031 0.87143 0.0
H1148 H 0.64541 0.27205 0.92891 0.0
H1149 H 0.64461 0.86327 0.90804 0.0
H1150 H 0.57914 0.03359 0.88084 0.0
H1151 H 0.59276 0.16508 0.87121 0.0
C1152 C 0.60975 0.27641 0.88424 0.0
C1153 C 0.6254 0.30788 0.89986 0.0
C1154 C 0.59354 -0.00318 0.88682 0.0
C1155 C 0.61345 0.13198 0.90024 0.0
C1156 C 0.59491 0.9089 0.88172 0.0
C1157 C 0.61373 0.85973 0.88855 0.0
C1158 C 0.61139 0.03634 0.8985 0.0
C1159 C 0.62995 0.89918 0.90227 0.0
C1160 C 0.60371 0.1886 0.88437 0.0
C1161 C 0.63353 0.25037 0.9163 0.0
N1162 N 0.62862 -0.01414 0.90646 0.0
N1163 N 0.62779 0.16509 0.91582 0.0
H1164 H 0.33535 0.79946 0.63109 0.0
H1165 H 0.37325 0.25481 0.66996 0.0
H1166 H 0.36036 0.83852 0.69808 0.0
H1167 H 0.31696 0.22622 0.62465 0.0
H1168 H 0.36856 0.10285 0.68129 0.0
H1169 H 0.32714 0.95456 0.62852 0.0
C1170 C 0.33837 0.83982 0.64553 0.0
C1171 C 0.34861 0.80578 0.66478 0.0
C1172 C 0.35688 0.13058 0.66926 0.0
C1173 C 0.34032 0.98374 0.66156 0.0
C1174 C 0.35942 0.21755 0.66305 0.0
C1175 C 0.34533 0.25348 0.64666 0.0
C1176 C 0.34055 0.07891 0.65847 0.0
C1177 C 0.32832 0.20088 0.63729 0.0
C1178 C 0.3339 0.92865 0.64398 0.0
C1179 C 0.35271 0.86212 0.68278 0.0
N1180 N 0.32665 0.11586 0.64304 0.0
N1181 N 0.34905 0.94864 0.68055 0.0
H1182 H 0.6261 0.69919 0.57072 0.0
H1183 H 0.57502 0.08003 0.64507 0.0
H1184 H 0.59549 0.65597 0.63528 0.0
H1185 H 0.63108 0.11341 0.59954 0.0
H1186 H 0.57279 0.92709 0.63453 0.0
H1187 H 0.61751 0.85364 0.57391 0.0
C1188 C 0.61703 0.72165 0.58533 0.0
C1189 C 0.61163 0.66434 0.60286 0.0
C1190 C 0.58525 0.96855 0.62653 0.0
C1191 C 0.60182 0.84108 0.60651 0.0
C1192 C 0.5866 0.05579 0.63251 0.0
C1193 C 0.60321 0.11014 0.62301 0.0
C1194 C 0.60051 0.93537 0.61081 0.0
C1195 C 0.61766 0.07498 0.60681 0.0
C1196 C 0.61224 0.80988 0.58712 0.0
C1197 C 0.59975 0.69724 0.62127 0.0
N1198 N 0.61606 -0.01036 0.6013 0.0
N1199 N 0.59546 0.78378 0.62275 0.0
loop_
_geom_bond_atom_site_label_1
_geom_bond_atom_site_label_2
_geom_bond_distance
_geom_bond_site_symmetry_2
_ccdc_geom_bond_type
Zn0 O6 1.920 1_565 S
Zn0 O12 1.898 . S
Zn0 O15 1.905 . S
Zn1 O9 1.905 . S
Zn1 O10 1.898 . S
Zn1 O18 1.920 . S
Zn2 O5 2.080 . S
Zn2 O8 2.114 . S
Zn2 O11 2.120 . S
Zn2 O13 2.120 . S
Zn2 O14 2.114 1_545 S
Zn2 O17 2.080 . S
C3 O8 1.166 . S
C3 O9 1.182 . S
C4 O10 1.167 . S
C4 O11 1.299 . S
O5 Zn2 2.080 . S
O5 C19 1.305 . S
O6 Zn0 1.920 1_545 S
O6 C19 1.234 . S
C7 O12 1.167 1_545 S
C7 O13 1.299 . S
O8 Zn2 2.114 . S
O8 C3 1.166 . S
O9 Zn1 1.905 . S
O9 C3 1.182 . S
O10 Zn1 1.898 . S
O10 C4 1.167 . S
O11 Zn2 2.120 . S
O11 C4 1.299 . S
O12 Zn0 1.898 . S
O12 C7 1.167 1_565 S
O13 Zn2 2.120 . S
O13 C7 1.299 . S
O14 Zn2 2.114 1_565 S
O14 C16 1.166 . S
O15 Zn0 1.905 . S
O15 C16 1.182 . S
C16 O14 1.166 . S
C16 O15 1.182 . S
O17 Zn2 2.080 . S
O17 C20 1.305 . S
O18 Zn1 1.920 . S
O18 C20 1.234 . S
C19 O5 1.305 . S
C19 O6 1.234 . S
C20 O17 1.305 . S
C20 O18 1.234 . S
Zn21 O27 1.920 . S
Zn21 O33 1.898 . S
Zn21 O36 1.905 . S
Zn22 O30 1.905 . S
Zn22 O31 1.898 . S
Zn22 O39 1.920 1_545 S
Zn23 O26 2.080 . S
Zn23 O29 2.114 1_565 S
Zn23 O32 2.120 . S
Zn23 O34 2.120 . S
Zn23 O35 2.114 . S
Zn23 O38 2.080 . S
C24 O29 1.166 . S
C24 O30 1.182 . S
C25 O31 1.167 1_565 S
C25 O32 1.299 . S
O26 Zn23 2.080 . S
O26 C40 1.305 . S
O27 Zn21 1.920 . S
O27 C40 1.234 . S
C28 O33 1.167 . S
C28 O34 1.299 . S
O29 Zn23 2.114 1_545 S
O29 C24 1.166 . S
O30 Zn22 1.905 . S
O30 C24 1.182 . S
O31 Zn22 1.898 . S
O31 C25 1.167 1_545 S
O32 Zn23 2.120 . S
O32 C25 1.299 . S
O33 Zn21 1.898 . S
O33 C28 1.167 . S
O34 Zn23 2.120 . S
O34 C28 1.299 . S
O35 Zn23 2.114 . S
O35 C37 1.166 . S
O36 Zn21 1.905 . S
O36 C37 1.182 . S
C37 O35 1.166 . S
C37 O36 1.182 . S
O38 Zn23 2.080 . S
O38 C41 1.305 . S
O39 Zn22 1.920 1_565 S
O39 C41 1.234 . S
C40 O26 1.305 . S
C40 O27 1.234 . S
C41 O38 1.305 . S
C41 O39 1.234 . S
Zn42 O48 1.920 1_545 S
Zn42 O54 1.898 . S
Zn42 O57 1.905 . S
Zn43 O51 1.905 . S
Zn43 O52 1.898 . S
Zn43 O60 1.920 . S
Zn44 O47 2.080 . S
Zn44 O50 2.114 . S
Zn44 O53 2.120 . S
Zn44 O55 2.120 . S
Zn44 O56 2.114 1_565 S
Zn44 O59 2.080 . S
C45 O50 1.166 . S
C45 O51 1.182 . S
C46 O52 1.167 . S
C46 O53 1.299 . S
O47 Zn44 2.080 . S
O47 C61 1.305 . S
O48 Zn42 1.920 1_565 S
O48 C61 1.234 . S
C49 O54 1.167 1_565 S
C49 O55 1.299 . S
O50 Zn44 2.114 . S
O50 C45 1.166 . S
O51 Zn43 1.905 . S
O51 C45 1.182 . S
O52 Zn43 1.898 . S
O52 C46 1.167 . S
O53 Zn44 2.120 . S
O53 C46 1.299 . S
O54 Zn42 1.898 . S
O54 C49 1.167 1_545 S
O55 Zn44 2.120 . S
O55 C49 1.299 . S
O56 Zn44 2.114 1_545 S
O56 C58 1.166 . S
O57 Zn42 1.905 . S
O57 C58 1.182 . S
C58 O56 1.166 . S
C58 O57 1.182 . S
O59 Zn44 2.080 . S
O59 C62 1.305 . S
O60 Zn43 1.920 . S
O60 C62 1.234 . S
C61 O47 1.305 . S
C61 O48 1.234 . S
C62 O59 1.305 . S
C62 O60 1.234 . S
Zn63 O69 1.920 1_565 S
Zn63 O75 1.898 . S
Zn63 O78 1.905 . S
Zn64 O72 1.905 . S
Zn64 O73 1.898 . S
Zn64 O81 1.920 . S
Zn65 O68 2.080 . S
Zn65 O71 2.114 . S
Zn65 O74 2.120 . S
Zn65 O76 2.120 . S
Zn65 O77 2.114 1_545 S
Zn65 O80 2.080 . S
C66 O71 1.166 . S
C66 O72 1.182 . S
C67 O73 1.167 . S
C67 O74 1.299 . S
O68 Zn65 2.080 . S
O68 C82 1.305 . S
O69 Zn63 1.920 1_545 S
O69 C82 1.234 . S
C70 O75 1.167 1_545 S
C70 O76 1.299 . S
O71 Zn65 2.114 . S
O71 C66 1.166 . S
O72 Zn64 1.905 . S
O72 C66 1.182 . S
O73 Zn64 1.898 . S
O73 C67 1.167 . S
O74 Zn65 2.120 . S
O74 C67 1.299 . S
O75 Zn63 1.898 . S
O75 C70 1.167 1_565 S
O76 Zn65 2.120 . S
O76 C70 1.299 . S
O77 Zn65 2.114 1_565 S
O77 C79 1.166 . S
O78 Zn63 1.905 . S
O78 C79 1.182 . S
C79 O77 1.166 . S
C79 O78 1.182 . S
O80 Zn65 2.080 . S
O80 C83 1.305 . S
O81 Zn64 1.920 . S
O81 C83 1.234 . S
C82 O68 1.305 . S
C82 O69 1.234 . S
C83 O80 1.305 . S
C83 O81 1.234 . S
Zn84 O90 1.920 1_545 S
Zn84 O96 1.898 . S
Zn84 O99 1.905 . S
Zn85 O93 1.905 . S
Zn85 O94 1.898 . S
Zn85 O102 1.920 . S
Zn86 O89 2.080 . S
Zn86 O92 2.114 . S
Zn86 O95 2.120 . S
Zn86 O97 2.120 . S
Zn86 O98 2.114 1_565 S
Zn86 O101 2.080 . S
C87 O92 1.166 . S
C87 O93 1.182 . S
C88 O94 1.167 . S
C88 O95 1.299 . S
O89 Zn86 2.080 . S
O89 C103 1.305 . S
O90 Zn84 1.920 1_565 S
O90 C103 1.234 . S
C91 O96 1.167 1_565 S
C91 O97 1.299 . S
O92 Zn86 2.114 . S
O92 C87 1.166 . S
O93 Zn85 1.905 . S
O93 C87 1.182 . S
O94 Zn85 1.898 . S
O94 C88 1.167 . S
O95 Zn86 2.120 . S
O95 C88 1.299 . S
O96 Zn84 1.898 . S
O96 C91 1.167 1_545 S
O97 Zn86 2.120 . S
O97 C91 1.299 . S
O98 Zn86 2.114 1_545 S
O98 C100 1.166 . S
O99 Zn84 1.905 . S
O99 C100 1.182 . S
C100 O98 1.166 . S
C100 O99 1.182 . S
O101 Zn86 2.080 . S
O101 C104 1.305 . S
O102 Zn85 1.920 . S
O102 C104 1.234 . S
C103 O89 1.305 . S
C103 O90 1.234 . S
C104 O101 1.305 . S
C104 O102 1.234 . S
Zn105 O111 1.920 1_565 S
Zn105 O117 1.898 . S
Zn105 O120 1.905 . S
Zn106 O114 1.905 . S
Zn106 O115 1.898 . S
Zn106 O123 1.920 . S
Zn107 O110 2.080 . S
Zn107 O113 2.114 . S
Zn107 O116 2.120 . S
Zn107 O118 2.120 . S
Zn107 O119 2.114 1_545 S
Zn107 O122 2.080 . S
C108 O113 1.166 . S
C108 O114 1.182 . S
C109 O115 1.167 . S
C109 O116 1.299 . S
O110 Zn107 2.080 . S
O110 C124 1.305 . S
O111 Zn105 1.920 1_545 S
O111 C124 1.234 . S
C112 O117 1.167 1_545 S
C112 O118 1.299 . S
O113 Zn107 2.114 . S
O113 C108 1.166 . S
O114 Zn106 1.905 . S
O114 C108 1.182 . S
O115 Zn106 1.898 . S
O115 C109 1.167 . S
O116 Zn107 2.120 . S
O116 C109 1.299 . S
O117 Zn105 1.898 . S
O117 C112 1.167 1_565 S
O118 Zn107 2.120 . S
O118 C112 1.299 . S
O119 Zn107 2.114 1_565 S
O119 C121 1.166 . S
O120 Zn105 1.905 . S
O120 C121 1.182 . S
C121 O119 1.166 . S
C121 O120 1.182 . S
O122 Zn107 2.080 . S
O122 C125 1.305 . S
O123 Zn106 1.920 . S
O123 C125 1.234 . S
C124 O110 1.305 . S
C124 O111 1.234 . S
C125 O122 1.305 . S
C125 O123 1.234 . S
Zn126 O132 1.920 1_565 S
Zn126 O138 1.898 . S
Zn126 O141 1.905 . S
Zn127 O135 1.905 . S
Zn127 O136 1.898 . S
Zn127 O144 1.920 . S
Zn128 O131 2.080 . S
Zn128 O134 2.114 . S
Zn128 O137 2.120 . S
Zn128 O139 2.120 . S
Zn128 O140 2.114 1_545 S
Zn128 O143 2.080 . S
C129 O134 1.166 . S
C129 O135 1.182 . S
C130 O136 1.167 . S
C130 O137 1.299 . S
O131 Zn128 2.080 . S
O131 C145 1.305 . S
O132 Zn126 1.920 1_545 S
O132 C145 1.234 . S
C133 O138 1.167 1_545 S
C133 O139 1.299 . S
O134 Zn128 2.114 . S
O134 C129 1.166 . S
O135 Zn127 1.905 . S
O135 C129 1.182 . S
O136 Zn127 1.898 . S
O136 C130 1.167 . S
O137 Zn128 2.120 . S
O137 C130 1.299 . S
O138 Zn126 1.898 . S
O138 C133 1.167 1_565 S
O139 Zn128 2.120 . S
O139 C133 1.299 . S
O140 Zn128 2.114 1_565 S
O140 C142 1.166 . S
O141 Zn126 1.905 . S
O141 C142 1.182 . S
C142 O140 1.166 . S
C142 O141 1.182 . S
O143 Zn128 2.080 . S
O143 C146 1.305 . S
O144 Zn127 1.920 . S
O144 C146 1.234 . S
C145 O131 1.305 . S
C145 O132 1.234 . S
C146 O143 1.305 . S
C146 O144 1.234 . S
Zn147 O153 1.920 1_545 S
Zn147 O159 1.898 . S
Zn147 O162 1.905 . S
Zn148 O156 1.905 . S
Zn148 O157 1.898 . S
Zn148 O165 1.920 . S
Zn149 O152 2.080 . S
Zn149 O155 2.114 . S
Zn149 O158 2.120 . S
Zn149 O160 2.120 . S
Zn149 O161 2.114 1_565 S
Zn149 O164 2.080 . S
C150 O155 1.166 . S
C150 O156 1.182 . S
C151 O157 1.167 . S
C151 O158 1.299 . S
O152 Zn149 2.080 . S
O152 C166 1.305 . S
O153 Zn147 1.920 1_565 S
O153 C166 1.234 . S
C154 O159 1.167 1_565 S
C154 O160 1.299 . S
O155 Zn149 2.114 . S
O155 C150 1.166 . S
O156 Zn148 1.905 . S
O156 C150 1.182 . S
O157 Zn148 1.898 . S
O157 C151 1.167 . S
O158 Zn149 2.120 . S
O158 C151 1.299 . S
O159 Zn147 1.898 . S
O159 C154 1.167 1_545 S
O160 Zn149 2.120 . S
O160 C154 1.299 . S
O161 Zn149 2.114 1_545 S
O161 C163 1.166 . S
O162 Zn147 1.905 . S
O162 C163 1.182 . S
C163 O161 1.166 . S
C163 O162 1.182 . S
O164 Zn149 2.080 . S
O164 C167 1.305 . S
O165 Zn148 1.920 . S
O165 C167 1.234 . S
C166 O152 1.305 . S
C166 O153 1.234 . S
C167 O164 1.305 . S
C167 O165 1.234 . S
Zn168 O174 1.920 . S
Zn168 O180 1.898 . S
Zn168 O183 1.905 . S
Zn169 O177 1.905 . S
Zn169 O178 1.898 . S
Zn169 O186 1.920 . S
Zn170 O173 2.080 . S
Zn170 O176 2.114 . S
Zn170 O179 2.120 . S
Zn170 O181 2.120 . S
Zn170 O182 2.114 . S
Zn170 O185 2.080 . S
C171 O176 1.166 . S
C171 O177 1.182 . S
C172 O178 1.167 . S
C172 O179 1.299 . S
O173 Zn170 2.080 . S
O173 C187 1.305 . S
O174 Zn168 1.920 . S
O174 C187 1.234 . S
C175 O180 1.167 . S
C175 O181 1.299 . S
O176 Zn170 2.114 . S
O176 C171 1.166 . S
O177 Zn169 1.905 . S
O177 C171 1.182 . S
O178 Zn169 1.898 . S
O178 C172 1.167 . S
O179 Zn170 2.120 . S
O179 C172 1.299 . S
O180 Zn168 1.898 . S
O180 C175 1.167 . S
O181 Zn170 2.120 . S
O181 C175 1.299 . S
O182 Zn170 2.114 . S
O182 C184 1.166 . S
O183 Zn168 1.905 . S
O183 C184 1.182 . S
C184 O182 1.166 . S
C184 O183 1.182 . S
O185 Zn170 2.080 . S
O185 C188 1.305 . S
O186 Zn169 1.920 . S
O186 C188 1.234 . S
C187 O173 1.305 . S
C187 O174 1.234 . S
C188 O185 1.305 . S
C188 O186 1.234 . S
Zn189 O195 1.920 . S
Zn189 O201 1.898 . S
Zn189 O204 1.905 . S
Zn190 O198 1.905 . S
Zn190 O199 1.898 . S
Zn190 O207 1.920 . S
Zn191 O194 2.080 . S
Zn191 O197 2.114 . S
Zn191 O200 2.120 . S
Zn191 O202 2.120 . S
Zn191 O203 2.114 . S
Zn191 O206 2.080 . S
C192 O197 1.166 . S
C192 O198 1.182 . S
C193 O199 1.167 . S
C193 O200 1.299 . S
O194 Zn191 2.080 . S
O194 C208 1.305 . S
O195 Zn189 1.920 . S
O195 C208 1.234 . S
C196 O201 1.167 . S
C196 O202 1.299 . S
O197 Zn191 2.114 . S
O197 C192 1.166 . S
O198 Zn190 1.905 . S
O198 C192 1.182 . S
O199 Zn190 1.898 . S
O199 C193 1.167 . S
O200 Zn191 2.120 . S
O200 C193 1.299 . S
O201 Zn189 1.898 . S
O201 C196 1.167 . S
O202 Zn191 2.120 . S
O202 C196 1.299 . S
O203 Zn191 2.114 . S
O203 C205 1.166 . S
O204 Zn189 1.905 . S
O204 C205 1.182 . S
C205 O203 1.166 . S
C205 O204 1.182 . S
O206 Zn191 2.080 . S
O206 C209 1.305 . S
O207 Zn190 1.920 . S
O207 C209 1.234 . S
C208 O194 1.305 . S
C208 O195 1.234 . S
C209 O206 1.305 . S
C209 O207 1.234 . S
Zn210 O216 1.920 . S
Zn210 O222 1.898 . S
Zn210 O225 1.905 . S
Zn211 O219 1.905 . S
Zn211 O220 1.898 . S
Zn211 O228 1.920 . S
Zn212 O215 2.080 . S
Zn212 O218 2.114 . S
Zn212 O221 2.120 . S
Zn212 O223 2.120 . S
Zn212 O224 2.114 . S
Zn212 O227 2.080 . S
C213 O218 1.166 . S
C213 O219 1.182 . S
C214 O220 1.167 . S
C214 O221 1.299 . S
O215 Zn212 2.080 . S
O215 C229 1.305 . S
O216 Zn210 1.920 . S
O216 C229 1.234 . S
C217 O222 1.167 . S
C217 O223 1.299 . S
O218 Zn212 2.114 . S
O218 C213 1.166 . S
O219 Zn211 1.905 . S
O219 C213 1.182 . S
O220 Zn211 1.898 . S
O220 C214 1.167 . S
O221 Zn212 2.120 . S
O221 C214 1.299 . S
O222 Zn210 1.898 . S
O222 C217 1.167 . S
O223 Zn212 2.120 . S
O223 C217 1.299 . S
O224 Zn212 2.114 . S
O224 C226 1.166 . S
O225 Zn210 1.905 . S
O225 C226 1.182 . S
C226 O224 1.166 . S
C226 O225 1.182 . S
O227 Zn212 2.080 . S
O227 C230 1.305 . S
O228 Zn211 1.920 . S
O228 C230 1.234 . S
C229 O215 1.305 . S
C229 O216 1.234 . S
C230 O227 1.305 . S
C230 O228 1.234 . S
Zn231 O237 1.920 . S
Zn231 O243 1.898 . S
Zn231 O246 1.905 . S
Zn232 O240 1.905 . S
Zn232 O241 1.898 . S
Zn232 O249 1.920 . S
Zn233 O236 2.080 . S
Zn233 O239 2.114 . S
Zn233 O242 2.120 . S
Zn233 O244 2.120 . S
Zn233 O245 2.114 . S
Zn233 O248 2.080 . S
C234 O239 1.166 . S
C234 O240 1.182 . S
C235 O241 1.167 . S
C235 O242 1.299 . S
O236 Zn233 2.080 . S
O236 C250 1.305 . S
O237 Zn231 1.920 . S
O237 C250 1.234 . S
C238 O243 1.167 . S
C238 O244 1.299 . S
O239 Zn233 2.114 . S
O239 C234 1.166 . S
O240 Zn232 1.905 . S
O240 C234 1.182 . S
O241 Zn232 1.898 . S
O241 C235 1.167 . S
O242 Zn233 2.120 . S
O242 C235 1.299 . S
O243 Zn231 1.898 . S
O243 C238 1.167 . S
O244 Zn233 2.120 . S
O244 C238 1.299 . S
O245 Zn233 2.114 . S
O245 C247 1.166 . S
O246 Zn231 1.905 . S
O246 C247 1.182 . S
C247 O245 1.166 . S
C247 O246 1.182 . S
O248 Zn233 2.080 . S
O248 C251 1.305 . S
O249 Zn232 1.920 . S
O249 C251 1.234 . S
C250 O236 1.305 . S
C250 O237 1.234 . S
C251 O248 1.305 . S
C251 O249 1.234 . S
Zn252 O258 1.920 . S
Zn252 O264 1.898 . S
Zn252 O267 1.905 . S
Zn253 O261 1.905 . S
Zn253 O262 1.898 . S
Zn253 O270 1.920 . S
Zn254 O257 2.080 . S
Zn254 O260 2.114 . S
Zn254 O263 2.120 . S
Zn254 O265 2.120 . S
Zn254 O266 2.114 . S
Zn254 O269 2.080 . S
C255 O260 1.166 . S
C255 O261 1.182 . S
C256 O262 1.167 . S
C256 O263 1.299 . S
O257 Zn254 2.080 . S
O257 C271 1.305 . S
O258 Zn252 1.920 . S
O258 C271 1.234 . S
C259 O264 1.167 . S
C259 O265 1.299 . S
O260 Zn254 2.114 . S
O260 C255 1.166 . S
O261 Zn253 1.905 . S
O261 C255 1.182 . S
O262 Zn253 1.898 . S
O262 C256 1.167 . S
O263 Zn254 2.120 . S
O263 C256 1.299 . S
O264 Zn252 1.898 . S
O264 C259 1.167 . S
O265 Zn254 2.120 . S
O265 C259 1.299 . S
O266 Zn254 2.114 . S
O266 C268 1.166 . S
O267 Zn252 1.905 . S
O267 C268 1.182 . S
C268 O266 1.166 . S
C268 O267 1.182 . S
O269 Zn254 2.080 . S
O269 C272 1.305 . S
O270 Zn253 1.920 . S
O270 C272 1.234 . S
C271 O257 1.305 . S
C271 O258 1.234 . S
C272 O269 1.305 . S
C272 O270 1.234 . S
Zn273 O279 1.920 . S
Zn273 O285 1.898 . S
Zn273 O288 1.905 . S
Zn274 O282 1.905 . S
Zn274 O283 1.898 . S
Zn274 O291 1.920 . S
Zn275 O278 2.080 . S
Zn275 O281 2.114 . S
Zn275 O284 2.120 . S
Zn275 O286 2.120 . S
Zn275 O287 2.114 . S
Zn275 O290 2.080 . S
C276 O281 1.166 . S
C276 O282 1.182 . S
C277 O283 1.167 . S
C277 O284 1.299 . S
O278 Zn275 2.080 . S
O278 C292 1.305 . S
O279 Zn273 1.920 . S
O279 C292 1.234 . S
C280 O285 1.167 . S
C280 O286 1.299 . S
O281 Zn275 2.114 . S
O281 C276 1.166 . S
O282 Zn274 1.905 . S
O282 C276 1.182 . S
O283 Zn274 1.898 . S
O283 C277 1.167 . S
O284 Zn275 2.120 . S
O284 C277 1.299 . S
O285 Zn273 1.898 . S
O285 C280 1.167 . S
O286 Zn275 2.120 . S
O286 C280 1.299 . S
O287 Zn275 2.114 . S
O287 C289 1.166 . S
O288 Zn273 1.905 . S
O288 C289 1.182 . S
C289 O287 1.166 . S
C289 O288 1.182 . S
O290 Zn275 2.080 . S
O290 C293 1.305 . S
O291 Zn274 1.920 . S
O291 C293 1.234 . S
C292 O278 1.305 . S
C292 O279 1.234 . S
C293 O290 1.305 . S
C293 O291 1.234 . S
Zn294 O300 1.920 . S
Zn294 O306 1.898 . S
Zn294 O309 1.905 . S
Zn295 O303 1.905 . S
Zn295 O304 1.898 . S
Zn295 O312 1.920 . S
Zn296 O299 2.080 . S
Zn296 O302 2.114 . S
Zn296 O305 2.120 . S
Zn296 O307 2.120 . S
Zn296 O308 2.114 . S
Zn296 O311 2.080 . S
C297 O302 1.166 . S
C297 O303 1.182 . S
C298 O304 1.167 . S
C298 O305 1.299 . S
O299 Zn296 2.080 . S
O299 C313 1.305 . S
O300 Zn294 1.920 . S
O300 C313 1.234 . S
C301 O306 1.167 . S
C301 O307 1.299 . S
O302 Zn296 2.114 . S
O302 C297 1.166 . S
O303 Zn295 1.905 . S
O303 C297 1.182 . S
O304 Zn295 1.898 . S
O304 C298 1.167 . S
O305 Zn296 2.120 . S
O305 C298 1.299 . S
O306 Zn294 1.898 . S
O306 C301 1.167 . S
O307 Zn296 2.120 . S
O307 C301 1.299 . S
O308 Zn296 2.114 . S
O308 C310 1.166 . S
O309 Zn294 1.905 . S
O309 C310 1.182 . S
C310 O308 1.166 . S
C310 O309 1.182 . S
O311 Zn296 2.080 . S
O311 C314 1.305 . S
O312 Zn295 1.920 . S
O312 C314 1.234 . S
C313 O299 1.305 . S
C313 O300 1.234 . S
C314 O311 1.305 . S
C314 O312 1.234 . S
Zn315 O321 1.920 . S
Zn315 O327 1.898 . S
Zn315 O330 1.905 . S
Zn316 O324 1.905 . S
Zn316 O325 1.898 . S
Zn316 O333 1.920 . S
Zn317 O320 2.080 . S
Zn317 O323 2.114 . S
Zn317 O326 2.120 . S
Zn317 O328 2.120 . S
Zn317 O329 2.114 . S
Zn317 O332 2.080 . S
C318 O323 1.166 . S
C318 O324 1.182 . S
C319 O325 1.167 . S
C319 O326 1.299 . S
O320 Zn317 2.080 . S
O320 C334 1.305 . S
O321 Zn315 1.920 . S
O321 C334 1.234 . S
C322 O327 1.167 . S
C322 O328 1.299 . S
O323 Zn317 2.114 . S
O323 C318 1.166 . S
O324 Zn316 1.905 . S
O324 C318 1.182 . S
O325 Zn316 1.898 . S
O325 C319 1.167 . S
O326 Zn317 2.120 . S
O326 C319 1.299 . S
O327 Zn315 1.898 . S
O327 C322 1.167 . S
O328 Zn317 2.120 . S
O328 C322 1.299 . S
O329 Zn317 2.114 . S
O329 C331 1.166 . S
O330 Zn315 1.905 . S
O330 C331 1.182 . S
C331 O329 1.166 . S
C331 O330 1.182 . S
O332 Zn317 2.080 . S
O332 C335 1.305 . S
O333 Zn316 1.920 . S
O333 C335 1.234 . S
C334 O320 1.305 . S
C334 O321 1.234 . S
C335 O332 1.305 . S
C335 O333 1.234 . S
H336 C342 0.930 . S
H337 C346 0.930 . S
H338 C351 0.929 . S
H339 C349 0.929 . S
H340 C344 0.929 . S
H341 C350 0.929 . S
C342 H336 0.930 . S
C342 C343 1.367 . S
C342 C350 1.378 . S
C343 C342 1.367 . S
C343 C351 1.433 . S
C344 H340 0.929 . S
C344 C346 1.378 . S
C344 C348 1.350 . S
C345 C348 1.463 . S
C345 C350 1.350 . S
C345 N353 1.427 . S
C346 H337 0.930 . S
C346 C344 1.378 . S
C346 C347 1.367 . S
C347 C346 1.367 . S
C347 C349 1.433 . S
C348 C344 1.350 . S
C348 C345 1.463 . S
C348 N352 1.427 . S
C349 H339 0.929 . S
C349 C347 1.433 . S
C349 N352 1.384 . S
C350 H341 0.929 . S
C350 C342 1.378 . S
C350 C345 1.350 . S
C351 H338 0.929 . S
C351 C343 1.433 . S
C351 N353 1.384 . S
N352 C348 1.427 . S
N352 C349 1.384 . S
N353 C345 1.427 . S
N353 C351 1.384 . S
H354 C360 0.930 . S
H355 C364 0.930 . S
H356 C369 0.929 . S
H357 C367 0.929 . S
H358 C362 0.929 . S
H359 C368 0.929 . S
C360 H354 0.930 . S
C360 C361 1.367 . S
C360 C368 1.378 . S
C361 C360 1.367 . S
C361 C369 1.433 . S
C362 H358 0.929 . S
C362 C364 1.378 . S
C362 C366 1.350 . S
C363 C366 1.463 . S
C363 C368 1.350 . S
C363 N371 1.427 . S
C364 H355 0.930 . S
C364 C362 1.378 . S
C364 C365 1.367 . S
C365 C364 1.367 . S
C365 C367 1.433 . S
C366 C362 1.350 . S
C366 C363 1.463 . S
C366 N370 1.427 . S
C367 H357 0.929 . S
C367 C365 1.433 . S
C367 N370 1.384 . S
C368 H359 0.929 . S
C368 C360 1.378 . S
C368 C363 1.350 . S
C369 H356 0.929 . S
C369 C361 1.433 . S
C369 N371 1.384 . S
N370 C366 1.427 . S
N370 C367 1.384 . S
N371 C363 1.427 . S
N371 C369 1.384 . S
H372 C378 0.930 . S
H373 C382 0.930 . S
H374 C387 0.929 . S
H375 C385 0.929 . S
H376 C380 0.929 . S
H377 C386 0.929 . S
C378 H372 0.930 . S
C378 C379 1.367 . S
C378 C386 1.378 . S
C379 C378 1.367 . S
C379 C387 1.433 . S
C380 H376 0.929 . S
C380 C382 1.378 . S
C380 C384 1.350 . S
C381 C384 1.463 . S
C381 C386 1.350 . S
C381 N389 1.427 . S
C382 H373 0.930 . S
C382 C380 1.378 . S
C382 C383 1.367 . S
C383 C382 1.367 . S
C383 C385 1.433 . S
C384 C380 1.350 . S
C384 C381 1.463 . S
C384 N388 1.427 . S
C385 H375 0.929 . S
C385 C383 1.433 . S
C385 N388 1.384 . S
C386 H377 0.929 . S
C386 C378 1.378 . S
C386 C381 1.350 . S
C387 H374 0.929 . S
C387 C379 1.433 . S
C387 N389 1.384 . S
N388 C384 1.427 . S
N388 C385 1.384 . S
N389 C381 1.427 . S
N389 C387 1.384 . S
H390 C396 0.930 . S
H391 C400 0.930 . S
H392 C405 0.929 . S
H393 C403 0.929 . S
H394 C398 0.929 . S
H395 C404 0.929 . S
C396 H390 0.930 . S
C396 C397 1.367 . S
C396 C404 1.378 . S
C397 C396 1.367 . S
C397 C405 1.433 . S
C398 H394 0.929 . S
C398 C400 1.378 . S
C398 C402 1.350 . S
C399 C402 1.463 . S
C399 C404 1.350 . S
C399 N407 1.427 . S
C400 H391 0.930 . S
C400 C398 1.378 . S
C400 C401 1.367 . S
C401 C400 1.367 . S
C401 C403 1.433 . S
C402 C398 1.350 . S
C402 C399 1.463 . S
C402 N406 1.427 . S
C403 H393 0.929 . S
C403 C401 1.433 . S
C403 N406 1.384 . S
C404 H395 0.929 . S
C404 C396 1.378 . S
C404 C399 1.350 . S
C405 H392 0.929 . S
C405 C397 1.433 . S
C405 N407 1.384 . S
N406 C402 1.427 . S
N406 C403 1.384 . S
N407 C399 1.427 . S
N407 C405 1.384 . S
H408 C414 0.930 . S
H409 C418 0.930 . S
H410 C423 0.929 . S
H411 C421 0.929 . S
H412 C416 0.929 . S
H413 C422 0.929 . S
C414 H408 0.930 . S
C414 C415 1.367 . S
C414 C422 1.378 . S
C415 C414 1.367 . S
C415 C423 1.433 . S
C416 H412 0.929 . S
C416 C418 1.378 . S
C416 C420 1.350 . S
C417 C420 1.463 . S
C417 C422 1.350 . S
C417 N425 1.427 . S
C418 H409 0.930 . S
C418 C416 1.378 . S
C418 C419 1.367 . S
C419 C418 1.367 . S
C419 C421 1.433 . S
C420 C416 1.350 . S
C420 C417 1.463 . S
C420 N424 1.427 . S
C421 H411 0.929 . S
C421 C419 1.433 . S
C421 N424 1.384 . S
C422 H413 0.929 . S
C422 C414 1.378 . S
C422 C417 1.350 . S
C423 H410 0.929 . S
C423 C415 1.433 . S
C423 N425 1.384 . S
N424 C420 1.427 . S
N424 C421 1.384 . S
N425 C417 1.427 . S
N425 C423 1.384 . S
H426 C432 0.930 . S
H427 C436 0.930 . S
H428 C441 0.929 . S
H429 C439 0.929 . S
H430 C434 0.929 . S
H431 C440 0.929 . S
C432 H426 0.930 . S
C432 C433 1.367 . S
C432 C440 1.378 . S
C433 C432 1.367 . S
C433 C441 1.433 . S
C434 H430 0.929 . S
C434 C436 1.378 . S
C434 C438 1.350 . S
C435 C438 1.463 . S
C435 C440 1.350 . S
C435 N443 1.427 . S
C436 H427 0.930 . S
C436 C434 1.378 . S
C436 C437 1.367 . S
C437 C436 1.367 . S
C437 C439 1.433 . S
C438 C434 1.350 . S
C438 C435 1.463 . S
C438 N442 1.427 . S
C439 H429 0.929 . S
C439 C437 1.433 . S
C439 N442 1.384 . S
C440 H431 0.929 . S
C440 C432 1.378 . S
C440 C435 1.350 . S
C441 H428 0.929 . S
C441 C433 1.433 . S
C441 N443 1.384 . S
N442 C438 1.427 . S
N442 C439 1.384 . S
N443 C435 1.427 . S
N443 C441 1.384 . S
H444 C450 0.930 . S
H445 C454 0.930 . S
H446 C459 0.929 . S
H447 C457 0.929 . S
H448 C452 0.929 . S
H449 C458 0.929 . S
C450 H444 0.930 . S
C450 C451 1.367 . S
C450 C458 1.378 . S
C451 C450 1.367 . S
C451 C459 1.433 . S
C452 H448 0.929 . S
C452 C454 1.378 . S
C452 C456 1.350 . S
C453 C456 1.463 . S
C453 C458 1.350 . S
C453 N461 1.427 . S
C454 H445 0.930 . S
C454 C452 1.378 . S
C454 C455 1.367 . S
C455 C454 1.367 . S
C455 C457 1.433 . S
C456 C452 1.350 . S
C456 C453 1.463 . S
C456 N460 1.427 . S
C457 H447 0.929 . S
C457 C455 1.433 . S
C457 N460 1.384 . S
C458 H449 0.929 . S
C458 C450 1.378 . S
C458 C453 1.350 . S
C459 H446 0.929 . S
C459 C451 1.433 . S
C459 N461 1.384 . S
N460 C456 1.427 . S
N460 C457 1.384 . S
N461 C453 1.427 . S
N461 C459 1.384 . S
H462 C468 0.930 . S
H463 C472 0.930 . S
H464 C477 0.929 . S
H465 C475 0.929 . S
H466 C470 0.929 . S
H467 C476 0.929 . S
C468 H462 0.930 . S
C468 C469 1.367 . S
C468 C476 1.378 . S
C469 C468 1.367 . S
C469 C477 1.433 . S
C470 H466 0.929 . S
C470 C472 1.378 . S
C470 C474 1.350 . S
C471 C474 1.463 . S
C471 C476 1.350 . S
C471 N479 1.427 . S
C472 H463 0.930 . S
C472 C470 1.378 . S
C472 C473 1.367 . S
C473 C472 1.367 . S
C473 C475 1.433 . S
C474 C470 1.350 . S
C474 C471 1.463 . S
C474 N478 1.427 . S
C475 H465 0.929 . S
C475 C473 1.433 . S
C475 N478 1.384 . S
C476 H467 0.929 . S
C476 C468 1.378 . S
C476 C471 1.350 . S
C477 H464 0.929 . S
C477 C469 1.433 . S
C477 N479 1.384 . S
N478 C474 1.427 . S
N478 C475 1.384 . S
N479 C471 1.427 . S
N479 C477 1.384 . S
H480 C486 0.930 . S
H481 C490 0.930 . S
H482 C495 0.929 . S
H483 C493 0.929 . S
H484 C488 0.929 . S
H485 C494 0.929 . S
C486 H480 0.930 . S
C486 C487 1.367 1_545 S
C486 C494 1.378 . S
C487 C486 1.367 1_565 S
C487 C495 1.433 . S
C488 H484 0.929 . S
C488 C490 1.378 . S
C488 C492 1.350 1_565 S
C489 C492 1.463 1_565 S
C489 C494 1.350 1_565 S
C489 N497 1.427 . S
C490 H481 0.930 . S
C490 C488 1.378 . S
C490 C491 1.367 1_565 S
C491 C490 1.367 1_545 S
C491 C493 1.433 . S
C492 C488 1.350 1_545 S
C492 C489 1.463 1_545 S
C492 N496 1.427 . S
C493 H483 0.929 . S
C493 C491 1.433 . S
C493 N496 1.384 . S
C494 H485 0.929 . S
C494 C486 1.378 . S
C494 C489 1.350 1_545 S
C495 H482 0.929 . S
C495 C487 1.433 . S
C495 N497 1.384 . S
N496 C492 1.427 . S
N496 C493 1.384 . S
N497 C489 1.427 . S
N497 C495 1.384 . S
H498 C504 0.930 . S
H499 C508 0.930 . S
H500 C513 0.929 . S
H501 C511 0.929 . S
H502 C506 0.929 . S
H503 C512 0.929 . S
C504 H498 0.930 . S
C504 C505 1.367 1_565 S
C504 C512 1.378 . S
C505 C504 1.367 1_545 S
C505 C513 1.433 . S
C506 H502 0.929 . S
C506 C508 1.378 . S
C506 C510 1.347 1_545 S
C507 C510 1.462 1_545 S
C507 C512 1.347 1_545 S
C507 N515 1.431 . S
C508 H499 0.930 . S
C508 C506 1.378 . S
C508 C509 1.367 1_545 S
C509 C508 1.367 1_565 S
C509 C511 1.433 . S
C510 C506 1.347 1_565 S
C510 C507 1.462 1_565 S
C510 N514 1.431 . S
C511 H501 0.929 . S
C511 C509 1.433 . S
C511 N514 1.384 . S
C512 H503 0.929 . S
C512 C504 1.378 . S
C512 C507 1.347 1_565 S
C513 H500 0.929 . S
C513 C505 1.433 . S
C513 N515 1.384 . S
N514 C510 1.431 . S
N514 C511 1.384 . S
N515 C507 1.431 . S
N515 C513 1.384 . S
H516 C522 0.930 . S
H517 C526 0.930 . S
H518 C531 0.929 . S
H519 C529 0.929 . S
H520 C524 0.929 . S
H521 C530 0.929 . S
C522 H516 0.930 . S
C522 C523 1.367 . S
C522 C530 1.378 . S
C523 C522 1.367 . S
C523 C531 1.433 1_545 S
C524 H520 0.929 . S
C524 C526 1.378 . S
C524 C528 1.350 . S
C525 C528 1.463 1_545 S
C525 C530 1.350 . S
C525 N533 1.427 1_545 S
C526 H517 0.930 . S
C526 C524 1.378 . S
C526 C527 1.367 . S
C527 C526 1.367 . S
C527 C529 1.433 1_565 S
C528 C524 1.350 . S
C528 C525 1.463 1_565 S
C528 N532 1.427 1_565 S
C529 H519 0.929 . S
C529 C527 1.433 1_545 S
C529 N532 1.384 . S
C530 H521 0.929 . S
C530 C522 1.378 . S
C530 C525 1.350 . S
C531 H518 0.929 . S
C531 C523 1.433 1_565 S
C531 N533 1.384 . S
N532 C528 1.427 1_545 S
N532 C529 1.384 . S
N533 C525 1.427 1_565 S
N533 C531 1.384 . S
H534 C540 0.930 . S
H535 C544 0.930 . S
H536 C549 0.929 . S
H537 C547 0.929 . S
H538 C542 0.929 . S
H539 C548 0.929 . S
C540 H534 0.930 . S
C540 C541 1.367 . S
C540 C548 1.378 . S
C541 C540 1.367 . S
C541 C549 1.433 1_545 S
C542 H538 0.929 . S
C542 C544 1.378 . S
C542 C546 1.350 . S
C543 C546 1.463 1_545 S
C543 C548 1.350 . S
C543 N551 1.427 1_545 S
C544 H535 0.930 . S
C544 C542 1.378 . S
C544 C545 1.367 . S
C545 C544 1.367 . S
C545 C547 1.433 1_565 S
C546 C542 1.350 . S
C546 C543 1.463 1_565 S
C546 N550 1.427 1_565 S
C547 H537 0.929 . S
C547 C545 1.433 1_545 S
C547 N550 1.384 . S
C548 H539 0.929 . S
C548 C540 1.378 . S
C548 C543 1.350 . S
C549 H536 0.929 . S
C549 C541 1.433 1_565 S
C549 N551 1.384 . S
N550 C546 1.427 1_545 S
N550 C547 1.384 . S
N551 C543 1.427 1_565 S
N551 C549 1.384 . S
H552 C558 0.930 . S
H553 C562 0.930 . S
H554 C567 0.929 . S
H555 C565 0.929 . S
H556 C560 0.929 . S
H557 C566 0.929 . S
C558 H552 0.930 . S
C558 C559 1.367 . S
C558 C566 1.378 . S
C559 C558 1.367 . S
C559 C567 1.433 . S
C560 H556 0.929 . S
C560 C562 1.378 . S
C560 C564 1.350 . S
C561 C564 1.463 . S
C561 C566 1.350 . S
C561 N569 1.427 . S
C562 H553 0.930 . S
C562 C560 1.378 . S
C562 C563 1.367 . S
C563 C562 1.367 . S
C563 C565 1.433 . S
C564 C560 1.350 . S
C564 C561 1.463 . S
C564 N568 1.427 . S
C565 H555 0.929 . S
C565 C563 1.433 . S
C565 N568 1.384 . S
C566 H557 0.929 . S
C566 C558 1.378 . S
C566 C561 1.350 . S
C567 H554 0.929 . S
C567 C559 1.433 . S
C567 N569 1.384 . S
N568 C564 1.427 . S
N568 C565 1.384 . S
N569 C561 1.427 . S
N569 C567 1.384 . S
H570 C576 0.930 . S
H571 C580 0.930 . S
H572 C585 0.929 . S
H573 C583 0.929 . S
H574 C578 0.929 . S
H575 C584 0.929 . S
C576 H570 0.930 . S
C576 C577 1.367 . S
C576 C584 1.378 . S
C577 C576 1.367 . S
C577 C585 1.433 . S
C578 H574 0.929 . S
C578 C580 1.378 . S
C578 C582 1.350 . S
C579 C582 1.463 . S
C579 C584 1.350 . S
C579 N587 1.427 . S
C580 H571 0.930 . S
C580 C578 1.378 . S
C580 C581 1.367 . S
C581 C580 1.367 . S
C581 C583 1.433 . S
C582 C578 1.350 . S
C582 C579 1.463 . S
C582 N586 1.427 . S
C583 H573 0.929 . S
C583 C581 1.433 . S
C583 N586 1.384 . S
C584 H575 0.929 . S
C584 C576 1.378 . S
C584 C579 1.350 . S
C585 H572 0.929 . S
C585 C577 1.433 . S
C585 N587 1.384 . S
N586 C582 1.427 . S
N586 C583 1.384 . S
N587 C579 1.427 . S
N587 C585 1.384 . S
H588 C594 0.930 . S
H589 C598 0.930 . S
H590 C603 0.929 . S
H591 C601 0.929 . S
H592 C596 0.929 . S
H593 C602 0.929 . S
C594 H588 0.930 . S
C594 C595 1.367 . S
C594 C602 1.378 . S
C595 C594 1.367 . S
C595 C603 1.433 . S
C596 H592 0.929 . S
C596 C598 1.378 . S
C596 C600 1.350 . S
C597 C600 1.463 . S
C597 C602 1.350 . S
C597 N605 1.427 . S
C598 H589 0.930 . S
C598 C596 1.378 . S
C598 C599 1.367 . S
C599 C598 1.367 . S
C599 C601 1.433 . S
C600 C596 1.350 . S
C600 C597 1.463 . S
C600 N604 1.427 . S
C601 H591 0.929 . S
C601 C599 1.433 . S
C601 N604 1.384 . S
C602 H593 0.929 . S
C602 C594 1.378 . S
C602 C597 1.350 . S
C603 H590 0.929 . S
C603 C595 1.433 . S
C603 N605 1.384 . S
N604 C600 1.427 . S
N604 C601 1.384 . S
N605 C597 1.427 . S
N605 C603 1.384 . S
H606 C612 0.930 . S
H607 C616 0.930 . S
H608 C621 0.929 . S
H609 C619 0.929 . S
H610 C614 0.929 . S
H611 C620 0.929 . S
C612 H606 0.930 . S
C612 C613 1.367 . S
C612 C620 1.378 . S
C613 C612 1.367 . S
C613 C621 1.433 . S
C614 H610 0.929 . S
C614 C616 1.378 . S
C614 C618 1.350 . S
C615 C618 1.463 . S
C615 C620 1.350 . S
C615 N623 1.427 . S
C616 H607 0.930 . S
C616 C614 1.378 . S
C616 C617 1.367 . S
C617 C616 1.367 . S
C617 C619 1.433 . S
C618 C614 1.350 . S
C618 C615 1.463 . S
C618 N622 1.427 . S
C619 H609 0.929 . S
C619 C617 1.433 . S
C619 N622 1.384 . S
C620 H611 0.929 . S
C620 C612 1.378 . S
C620 C615 1.350 . S
C621 H608 0.929 . S
C621 C613 1.433 . S
C621 N623 1.384 . S
N622 C618 1.427 . S
N622 C619 1.384 . S
N623 C615 1.427 . S
N623 C621 1.384 . S
H624 C630 0.930 . S
H625 C634 0.930 . S
H626 C639 0.929 . S
H627 C637 0.929 . S
H628 C632 0.929 . S
H629 C638 0.929 . S
C630 H624 0.930 . S
C630 C631 1.367 1_565 S
C630 C638 1.378 . S
C631 C630 1.367 1_545 S
C631 C639 1.433 . S
C632 H628 0.929 . S
C632 C634 1.378 . S
C632 C636 1.350 . S
C633 C636 1.463 1_556 S
C633 C638 1.350 1_545 S
C633 N641 1.427 . S
C634 H625 0.930 . S
C634 C632 1.378 . S
C634 C635 1.367 . S
C635 C634 1.367 . S
C635 C637 1.433 1_545 S
C636 C632 1.350 . S
C636 C633 1.463 1_554 S
C636 N640 1.427 1_545 S
C637 H627 0.929 . S
C637 C635 1.433 1_565 S
C637 N640 1.384 . S
C638 H629 0.929 . S
C638 C630 1.378 . S
C638 C633 1.350 1_565 S
C639 H626 0.929 . S
C639 C631 1.433 . S
C639 N641 1.384 . S
N640 C636 1.427 1_565 S
N640 C637 1.384 . S
N641 C633 1.427 . S
N641 C639 1.384 . S
H642 C648 0.930 . S
H643 C652 0.930 . S
H644 C657 0.929 . S
H645 C655 0.929 . S
H646 C650 0.929 . S
H647 C656 0.929 . S
C648 H642 0.930 . S
C648 C649 1.367 . S
C648 C656 1.378 . S
C649 C648 1.367 . S
C649 C657 1.433 1_565 S
C650 H646 0.929 . S
C650 C652 1.378 . S
C650 C654 1.350 1_545 S
C651 C654 1.463 1_556 S
C651 C656 1.350 . S
C651 N659 1.427 1_565 S
C652 H643 0.930 . S
C652 C650 1.378 . S
C652 C653 1.367 1_545 S
C653 C652 1.367 1_565 S
C653 C655 1.433 . S
C654 C650 1.350 1_565 S
C654 C651 1.463 1_554 S
C654 N658 1.427 . S
C655 H645 0.929 . S
C655 C653 1.433 . S
C655 N658 1.384 . S
C656 H647 0.929 . S
C656 C648 1.378 . S
C656 C651 1.350 . S
C657 H644 0.929 . S
C657 C649 1.433 1_545 S
C657 N659 1.384 . S
N658 C654 1.427 . S
N658 C655 1.384 . S
N659 C651 1.427 1_545 S
N659 C657 1.384 . S
H660 C666 0.930 . S
H661 C670 0.930 . S
H662 C675 0.929 . S
H663 C673 0.929 . S
H664 C668 0.929 . S
H665 C674 0.929 . S
C666 H660 0.930 . S
C666 C667 1.367 1_545 S
C666 C674 1.378 . S
C667 C666 1.367 1_565 S
C667 C675 1.433 . S
C668 H664 0.929 . S
C668 C670 1.378 . S
C668 C672 1.350 . S
C669 C672 1.463 . S
C669 C674 1.350 1_565 S
C669 N677 1.427 . S
C670 H661 0.930 . S
C670 C668 1.378 . S
C670 C671 1.367 . S
C671 C670 1.367 . S
C671 C673 1.433 1_565 S
C672 C668 1.350 . S
C672 C669 1.463 . S
C672 N676 1.427 1_565 S
C673 H663 0.929 . S
C673 C671 1.433 1_545 S
C673 N676 1.384 . S
C674 H665 0.929 . S
C674 C666 1.378 . S
C674 C669 1.350 1_545 S
C675 H662 0.929 . S
C675 C667 1.433 . S
C675 N677 1.384 . S
N676 C672 1.427 1_545 S
N676 C673 1.384 . S
N677 C669 1.427 . S
N677 C675 1.384 . S
H678 C684 0.930 . S
H679 C688 0.930 . S
H680 C693 0.929 . S
H681 C691 0.929 . S
H682 C686 0.929 . S
H683 C692 0.929 . S
C684 H678 0.930 . S
C684 C685 1.367 . S
C684 C692 1.378 . S
C685 C684 1.367 . S
C685 C693 1.433 1_545 S
C686 H682 0.929 . S
C686 C688 1.378 . S
C686 C690 1.350 1_565 S
C687 C690 1.463 . S
C687 C692 1.350 . S
C687 N695 1.427 1_545 S
C688 H679 0.930 . S
C688 C686 1.378 . S
C688 C689 1.367 1_565 S
C689 C688 1.367 1_545 S
C689 C691 1.433 . S
C690 C686 1.350 1_545 S
C690 C687 1.463 . S
C690 N694 1.427 . S
C691 H681 0.929 . S
C691 C689 1.433 . S
C691 N694 1.384 . S
C692 H683 0.929 . S
C692 C684 1.378 . S
C692 C687 1.350 . S
C693 H680 0.929 . S
C693 C685 1.433 1_565 S
C693 N695 1.384 . S
N694 C690 1.427 . S
N694 C691 1.384 . S
N695 C687 1.427 1_565 S
N695 C693 1.384 . S
H696 C702 0.930 . S
H697 C706 0.930 . S
H698 C711 0.929 . S
H699 C709 0.929 . S
H700 C704 0.929 . S
H701 C710 0.929 . S
C702 H696 0.930 . S
C702 C703 1.367 . S
C702 C710 1.378 . S
C703 C702 1.367 . S
C703 C711 1.433 . S
C704 H700 0.929 . S
C704 C706 1.378 . S
C704 C708 1.350 . S
C705 C708 1.463 1_554 S
C705 C710 1.350 . S
C705 N713 1.427 . S
C706 H697 0.930 . S
C706 C704 1.378 . S
C706 C707 1.367 . S
C707 C706 1.367 . S
C707 C709 1.433 . S
C708 C704 1.350 . S
C708 C705 1.463 1_556 S
C708 N712 1.427 . S
C709 H699 0.929 . S
C709 C707 1.433 . S
C709 N712 1.384 . S
C710 H701 0.929 . S
C710 C702 1.378 . S
C710 C705 1.350 . S
C711 H698 0.929 . S
C711 C703 1.433 . S
C711 N713 1.384 . S
N712 C708 1.427 . S
N712 C709 1.384 . S
N713 C705 1.427 . S
N713 C711 1.384 . S
H714 C720 0.930 . S
H715 C724 0.930 . S
H716 C729 0.929 . S
H717 C727 0.929 . S
H718 C722 0.929 . S
H719 C728 0.929 . S
C720 H714 0.930 . S
C720 C721 1.367 . S
C720 C728 1.378 . S
C721 C720 1.367 . S
C721 C729 1.433 . S
C722 H718 0.929 . S
C722 C724 1.378 . S
C722 C726 1.350 . S
C723 C726 1.463 1_556 S
C723 C728 1.350 . S
C723 N731 1.427 . S
C724 H715 0.930 . S
C724 C722 1.378 . S
C724 C725 1.367 . S
C725 C724 1.367 . S
C725 C727 1.433 . S
C726 C722 1.350 . S
C726 C723 1.463 1_554 S
C726 N730 1.427 . S
C727 H717 0.929 . S
C727 C725 1.433 . S
C727 N730 1.384 . S
C728 H719 0.929 . S
C728 C720 1.378 . S
C728 C723 1.350 . S
C729 H716 0.929 . S
C729 C721 1.433 . S
C729 N731 1.384 . S
N730 C726 1.427 . S
N730 C727 1.384 . S
N731 C723 1.427 . S
N731 C729 1.384 . S
H732 C738 0.930 . S
H733 C742 0.930 . S
H734 C747 0.929 . S
H735 C745 0.929 . S
H736 C740 0.929 . S
H737 C746 0.929 . S
C738 H732 0.930 . S
C738 C739 1.367 . S
C738 C746 1.378 . S
C739 C738 1.367 . S
C739 C747 1.433 . S
C740 H736 0.929 . S
C740 C742 1.378 . S
C740 C744 1.350 . S
C741 C744 1.463 . S
C741 C746 1.350 . S
C741 N749 1.427 . S
C742 H733 0.930 . S
C742 C740 1.378 . S
C742 C743 1.367 . S
C743 C742 1.367 . S
C743 C745 1.433 . S
C744 C740 1.350 . S
C744 C741 1.463 . S
C744 N748 1.427 . S
C745 H735 0.929 . S
C745 C743 1.433 . S
C745 N748 1.384 . S
C746 H737 0.929 . S
C746 C738 1.378 . S
C746 C741 1.350 . S
C747 H734 0.929 . S
C747 C739 1.433 . S
C747 N749 1.384 . S
N748 C744 1.427 . S
N748 C745 1.384 . S
N749 C741 1.427 . S
N749 C747 1.384 . S
H750 C756 0.930 . S
H751 C760 0.930 . S
H752 C765 0.929 . S
H753 C763 0.929 . S
H754 C758 0.929 . S
H755 C764 0.929 . S
C756 H750 0.930 . S
C756 C757 1.367 . S
C756 C764 1.378 . S
C757 C756 1.367 . S
C757 C765 1.433 . S
C758 H754 0.929 . S
C758 C760 1.378 . S
C758 C762 1.350 . S
C759 C762 1.463 . S
C759 C764 1.350 . S
C759 N767 1.427 . S
C760 H751 0.930 . S
C760 C758 1.378 . S
C760 C761 1.367 . S
C761 C760 1.367 . S
C761 C763 1.433 . S
C762 C758 1.350 . S
C762 C759 1.463 . S
C762 N766 1.427 . S
C763 H753 0.929 . S
C763 C761 1.433 . S
C763 N766 1.384 . S
C764 H755 0.929 . S
C764 C756 1.378 . S
C764 C759 1.350 . S
C765 H752 0.929 . S
C765 C757 1.433 . S
C765 N767 1.384 . S
N766 C762 1.427 . S
N766 C763 1.384 . S
N767 C759 1.427 . S
N767 C765 1.384 . S
H768 C774 0.930 . S
H769 C778 0.930 . S
H770 C783 0.929 . S
H771 C781 0.929 . S
H772 C776 0.929 . S
H773 C782 0.929 . S
C774 H768 0.930 . S
C774 C775 1.367 . S
C774 C782 1.378 . S
C775 C774 1.367 . S
C775 C783 1.433 . S
C776 H772 0.929 . S
C776 C778 1.378 . S
C776 C780 1.350 . S
C777 C780 1.463 1_665 S
C777 C782 1.350 . S
C777 N785 1.427 . S
C778 H769 0.930 . S
C778 C776 1.378 . S
C778 C779 1.367 . S
C779 C778 1.367 . S
C779 C781 1.433 . S
C780 C776 1.350 . S
C780 C777 1.463 1_445 S
C780 N784 1.427 . S
C781 H771 0.929 . S
C781 C779 1.433 . S
C781 N784 1.384 . S
C782 H773 0.929 . S
C782 C774 1.378 . S
C782 C777 1.350 . S
C783 H770 0.929 . S
C783 C775 1.433 . S
C783 N785 1.384 . S
N784 C780 1.427 . S
N784 C781 1.384 . S
N785 C777 1.427 . S
N785 C783 1.384 . S
H786 C792 0.930 . S
H787 C796 0.930 . S
H788 C801 0.929 . S
H789 C799 0.929 . S
H790 C794 0.929 . S
H791 C800 0.929 . S
C792 H786 0.930 . S
C792 C793 1.367 . S
C792 C800 1.378 . S
C793 C792 1.367 . S
C793 C801 1.433 1_545 S
C794 H790 0.929 . S
C794 C796 1.378 . S
C794 C798 1.350 . S
C795 C798 1.463 1_645 S
C795 C800 1.350 . S
C795 N803 1.427 1_545 S
C796 H787 0.930 . S
C796 C794 1.378 . S
C796 C797 1.367 . S
C797 C796 1.367 . S
C797 C799 1.433 1_565 S
C798 C794 1.350 . S
C798 C795 1.463 1_465 S
C798 N802 1.427 1_565 S
C799 H789 0.929 . S
C799 C797 1.433 1_545 S
C799 N802 1.384 . S
C800 H791 0.929 . S
C800 C792 1.378 . S
C800 C795 1.350 . S
C801 H788 0.929 . S
C801 C793 1.433 1_565 S
C801 N803 1.384 . S
N802 C798 1.427 1_545 S
N802 C799 1.384 . S
N803 C795 1.427 1_565 S
N803 C801 1.384 . S
H804 C810 0.930 . S
H805 C814 0.930 . S
H806 C819 0.931 . S
H807 C817 0.931 . S
H808 C812 0.929 . S
H809 C818 0.929 . S
C810 H804 0.930 . S
C810 C811 1.367 . S
C810 C818 1.378 . S
C811 C810 1.367 . S
C811 C819 1.433 . S
C812 H808 0.929 . S
C812 C814 1.378 . S
C812 C816 1.350 . S
C813 C816 1.463 1_445 S
C813 C818 1.350 . S
C813 N821 1.427 1_545 S
C814 H805 0.930 . S
C814 C812 1.378 . S
C814 C815 1.367 . S
C815 C814 1.367 . S
C815 C817 1.433 . S
C816 C812 1.350 . S
C816 C813 1.463 1_665 S
C816 N820 1.427 1_565 S
C817 H807 0.931 . S
C817 C815 1.433 . S
C817 N820 1.384 1_565 S
C818 H809 0.929 . S
C818 C810 1.378 . S
C818 C813 1.350 . S
C819 H806 0.931 . S
C819 C811 1.433 . S
C819 N821 1.384 1_545 S
N820 C816 1.427 1_545 S
N820 C817 1.384 1_545 S
N821 C813 1.427 1_565 S
N821 C819 1.384 1_565 S
H822 C828 0.930 . S
H823 C832 0.930 . S
H824 C837 0.929 . S
H825 C835 0.929 . S
H826 C830 0.929 . S
H827 C836 0.929 . S
C828 H822 0.930 . S
C828 C829 1.367 . S
C828 C836 1.378 . S
C829 C828 1.367 . S
C829 C837 1.433 1_545 S
C830 H826 0.929 . S
C830 C832 1.378 . S
C830 C834 1.350 . S
C831 C834 1.463 1_645 S
C831 C836 1.350 . S
C831 N839 1.427 1_545 S
C832 H823 0.930 . S
C832 C830 1.378 . S
C832 C833 1.367 . S
C833 C832 1.367 . S
C833 C835 1.433 1_565 S
C834 C830 1.350 . S
C834 C831 1.463 1_465 S
C834 N838 1.427 1_565 S
C835 H825 0.929 . S
C835 C833 1.433 1_545 S
C835 N838 1.384 . S
C836 H827 0.929 . S
C836 C828 1.378 . S
C836 C831 1.350 . S
C837 H824 0.929 . S
C837 C829 1.433 1_565 S
C837 N839 1.384 . S
N838 C834 1.427 1_545 S
N838 C835 1.384 . S
N839 C831 1.427 1_565 S
N839 C837 1.384 . S
H840 C846 0.930 . S
H841 C850 0.930 . S
H842 C855 0.929 . S
H843 C853 0.929 . S
H844 C848 0.929 . S
H845 C854 0.929 . S
C846 H840 0.930 . S
C846 C847 1.367 . S
C846 C854 1.378 . S
C847 C846 1.367 . S
C847 C855 1.433 . S
C848 H844 0.929 . S
C848 C850 1.378 . S
C848 C852 1.350 . S
C849 C852 1.463 . S
C849 C854 1.350 . S
C849 N857 1.427 . S
C850 H841 0.930 . S
C850 C848 1.378 . S
C850 C851 1.367 . S
C851 C850 1.367 . S
C851 C853 1.433 . S
C852 C848 1.350 . S
C852 C849 1.463 . S
C852 N856 1.427 . S
C853 H843 0.929 . S
C853 C851 1.433 . S
C853 N856 1.384 . S
C854 H845 0.929 . S
C854 C846 1.378 . S
C854 C849 1.350 . S
C855 H842 0.929 . S
C855 C847 1.433 . S
C855 N857 1.384 . S
N856 C852 1.427 . S
N856 C853 1.384 . S
N857 C849 1.427 . S
N857 C855 1.384 . S
H858 C864 0.930 . S
H859 C868 0.930 . S
H860 C873 0.929 . S
H861 C871 0.929 . S
H862 C866 0.929 . S
H863 C872 0.929 . S
C864 H858 0.930 . S
C864 C865 1.367 . S
C864 C872 1.378 . S
C865 C864 1.367 . S
C865 C873 1.433 . S
C866 H862 0.929 . S
C866 C868 1.378 . S
C866 C870 1.350 . S
C867 C870 1.463 . S
C867 C872 1.350 . S
C867 N875 1.427 . S
C868 H859 0.930 . S
C868 C866 1.378 . S
C868 C869 1.367 . S
C869 C868 1.367 . S
C869 C871 1.433 . S
C870 C866 1.350 . S
C870 C867 1.463 . S
C870 N874 1.427 . S
C871 H861 0.929 . S
C871 C869 1.433 . S
C871 N874 1.384 . S
C872 H863 0.929 . S
C872 C864 1.378 . S
C872 C867 1.350 . S
C873 H860 0.929 . S
C873 C865 1.433 . S
C873 N875 1.384 . S
N874 C870 1.427 . S
N874 C871 1.384 . S
N875 C867 1.427 . S
N875 C873 1.384 . S
H876 C882 0.930 . S
H877 C886 0.930 . S
H878 C891 0.929 . S
H879 C889 0.929 . S
H880 C884 0.929 . S
H881 C890 0.929 . S
C882 H876 0.930 . S
C882 C883 1.367 . S
C882 C890 1.378 . S
C883 C882 1.367 . S
C883 C891 1.433 . S
C884 H880 0.929 . S
C884 C886 1.378 . S
C884 C888 1.350 . S
C885 C888 1.463 . S
C885 C890 1.350 . S
C885 N893 1.427 . S
C886 H877 0.930 . S
C886 C884 1.378 . S
C886 C887 1.367 . S
C887 C886 1.367 . S
C887 C889 1.433 . S
C888 C884 1.350 . S
C888 C885 1.463 . S
C888 N892 1.427 . S
C889 H879 0.929 . S
C889 C887 1.433 . S
C889 N892 1.384 . S
C890 H881 0.929 . S
C890 C882 1.378 . S
C890 C885 1.350 . S
C891 H878 0.929 . S
C891 C883 1.433 . S
C891 N893 1.384 . S
N892 C888 1.427 . S
N892 C889 1.384 . S
N893 C885 1.427 . S
N893 C891 1.384 . S
H894 C900 0.930 . S
H895 C904 0.930 . S
H896 C909 0.929 . S
H897 C907 0.929 . S
H898 C902 0.929 . S
H899 C908 0.929 . S
C900 H894 0.930 . S
C900 C901 1.367 . S
C900 C908 1.378 . S
C901 C900 1.367 . S
C901 C909 1.433 . S
C902 H898 0.929 . S
C902 C904 1.378 . S
C902 C906 1.350 . S
C903 C906 1.463 . S
C903 C908 1.350 . S
C903 N911 1.427 . S
C904 H895 0.930 . S
C904 C902 1.378 . S
C904 C905 1.367 . S
C905 C904 1.367 . S
C905 C907 1.433 . S
C906 C902 1.350 . S
C906 C903 1.463 . S
C906 N910 1.427 . S
C907 H897 0.929 . S
C907 C905 1.433 . S
C907 N910 1.384 . S
C908 H899 0.929 . S
C908 C900 1.378 . S
C908 C903 1.350 . S
C909 H896 0.929 . S
C909 C901 1.433 . S
C909 N911 1.384 . S
N910 C906 1.427 . S
N910 C907 1.384 . S
N911 C903 1.427 . S
N911 C909 1.384 . S
H912 C918 0.930 . S
H913 C922 0.930 . S
H914 C927 0.929 . S
H915 C925 0.929 . S
H916 C920 0.929 . S
H917 C926 0.929 . S
C918 H912 0.930 . S
C918 C919 1.367 . S
C918 C926 1.378 . S
C919 C918 1.367 . S
C919 C927 1.433 . S
C920 H916 0.929 . S
C920 C922 1.378 . S
C920 C924 1.350 . S
C921 C924 1.463 . S
C921 C926 1.350 . S
C921 N929 1.427 . S
C922 H913 0.930 . S
C922 C920 1.378 . S
C922 C923 1.367 . S
C923 C922 1.367 . S
C923 C925 1.433 . S
C924 C920 1.350 . S
C924 C921 1.463 . S
C924 N928 1.427 . S
C925 H915 0.929 . S
C925 C923 1.433 . S
C925 N928 1.384 . S
C926 H917 0.929 . S
C926 C918 1.378 . S
C926 C921 1.350 . S
C927 H914 0.929 . S
C927 C919 1.433 . S
C927 N929 1.384 . S
N928 C924 1.427 . S
N928 C925 1.384 . S
N929 C921 1.427 . S
N929 C927 1.384 . S
H930 C936 0.930 . S
H931 C940 0.930 . S
H932 C945 0.929 . S
H933 C943 0.929 . S
H934 C938 0.929 . S
H935 C944 0.929 . S
C936 H930 0.930 . S
C936 C937 1.367 . S
C936 C944 1.378 . S
C937 C936 1.367 . S
C937 C945 1.433 . S
C938 H934 0.929 . S
C938 C940 1.378 . S
C938 C942 1.350 . S
C939 C942 1.463 . S
C939 C944 1.350 . S
C939 N947 1.427 . S
C940 H931 0.930 . S
C940 C938 1.378 . S
C940 C941 1.367 . S
C941 C940 1.367 . S
C941 C943 1.433 . S
C942 C938 1.350 . S
C942 C939 1.463 . S
C942 N946 1.427 . S
C943 H933 0.929 . S
C943 C941 1.433 . S
C943 N946 1.384 . S
C944 H935 0.929 . S
C944 C936 1.378 . S
C944 C939 1.350 . S
C945 H932 0.929 . S
C945 C937 1.433 . S
C945 N947 1.384 . S
N946 C942 1.427 . S
N946 C943 1.384 . S
N947 C939 1.427 . S
N947 C945 1.384 . S
H948 C954 0.930 . S
H949 C958 0.930 . S
H950 C963 0.929 . S
H951 C961 0.929 . S
H952 C956 0.929 . S
H953 C962 0.929 . S
C954 H948 0.930 . S
C954 C955 1.367 . S
C954 C962 1.378 . S
C955 C954 1.367 . S
C955 C963 1.433 . S
C956 H952 0.929 . S
C956 C958 1.378 . S
C956 C960 1.350 . S
C957 C960 1.463 . S
C957 C962 1.350 . S
C957 N965 1.427 . S
C958 H949 0.930 . S
C958 C956 1.378 . S
C958 C959 1.367 . S
C959 C958 1.367 . S
C959 C961 1.433 . S
C960 C956 1.350 . S
C960 C957 1.463 . S
C960 N964 1.427 . S
C961 H951 0.929 . S
C961 C959 1.433 . S
C961 N964 1.384 . S
C962 H953 0.929 . S
C962 C954 1.378 . S
C962 C957 1.350 . S
C963 H950 0.929 . S
C963 C955 1.433 . S
C963 N965 1.384 . S
N964 C960 1.427 . S
N964 C961 1.384 . S
N965 C957 1.427 . S
N965 C963 1.384 . S
H966 C972 0.930 . S
H967 C976 0.930 . S
H968 C981 0.929 . S
H969 C979 0.929 . S
H970 C974 0.929 . S
H971 C980 0.929 . S
C972 H966 0.930 . S
C972 C973 1.367 . S
C972 C980 1.378 . S
C973 C972 1.367 . S
C973 C981 1.433 . S
C974 H970 0.929 . S
C974 C976 1.378 . S
C974 C978 1.350 . S
C975 C978 1.463 . S
C975 C980 1.350 . S
C975 N983 1.427 . S
C976 H967 0.930 . S
C976 C974 1.378 . S
C976 C977 1.367 . S
C977 C976 1.367 . S
C977 C979 1.433 . S
C978 C974 1.350 . S
C978 C975 1.463 . S
C978 N982 1.427 . S
C979 H969 0.929 . S
C979 C977 1.433 . S
C979 N982 1.384 . S
C980 H971 0.929 . S
C980 C972 1.378 . S
C980 C975 1.350 . S
C981 H968 0.929 . S
C981 C973 1.433 . S
C981 N983 1.384 . S
N982 C978 1.427 . S
N982 C979 1.384 . S
N983 C975 1.427 . S
N983 C981 1.384 . S
H984 C990 0.930 . S
H985 C994 0.930 . S
H986 C999 0.929 . S
H987 C997 0.929 . S
H988 C992 0.929 . S
H989 C998 0.929 . S
C990 H984 0.930 . S
C990 C991 1.367 . S
C990 C998 1.378 . S
C991 C990 1.367 . S
C991 C999 1.433 . S
C992 H988 0.929 . S
C992 C994 1.378 . S
C992 C996 1.350 . S
C993 C996 1.463 . S
C993 C998 1.350 . S
C993 N1001 1.427 . S
C994 H985 0.930 . S
C994 C992 1.378 . S
C994 C995 1.367 . S
C995 C994 1.367 . S
C995 C997 1.433 . S
C996 C992 1.350 . S
C996 C993 1.463 . S
C996 N1000 1.427 . S
C997 H987 0.929 . S
C997 C995 1.433 . S
C997 N1000 1.384 . S
C998 H989 0.929 . S
C998 C990 1.378 . S
C998 C993 1.350 . S
C999 H986 0.929 . S
C999 C991 1.433 . S
C999 N1001 1.384 . S
N1000 C996 1.427 . S
N1000 C997 1.384 . S
N1001 C993 1.427 . S
N1001 C999 1.384 . S
H1002 C1008 0.930 . S
H1003 C1012 0.930 . S
H1004 C1017 0.929 . S
H1005 C1015 0.929 . S
H1006 C1010 0.929 . S
H1007 C1016 0.929 . S
C1008 H1002 0.930 . S
C1008 C1009 1.367 . S
C1008 C1016 1.378 . S
C1009 C1008 1.367 . S
C1009 C1017 1.433 . S
C1010 H1006 0.929 . S
C1010 C1012 1.378 . S
C1010 C1014 1.350 . S
C1011 C1014 1.463 . S
C1011 C1016 1.350 . S
C1011 N1019 1.427 . S
C1012 H1003 0.930 . S
C1012 C1010 1.378 . S
C1012 C1013 1.367 . S
C1013 C1012 1.367 . S
C1013 C1015 1.433 . S
C1014 C1010 1.350 . S
C1014 C1011 1.463 . S
C1014 N1018 1.427 . S
C1015 H1005 0.929 . S
C1015 C1013 1.433 . S
C1015 N1018 1.384 . S
C1016 H1007 0.929 . S
C1016 C1008 1.378 . S
C1016 C1011 1.350 . S
C1017 H1004 0.929 . S
C1017 C1009 1.433 . S
C1017 N1019 1.384 . S
N1018 C1014 1.427 . S
N1018 C1015 1.384 . S
N1019 C1011 1.427 . S
N1019 C1017 1.384 . S
H1020 C1026 0.930 . S
H1021 C1030 0.930 . S
H1022 C1035 0.929 . S
H1023 C1033 0.929 . S
H1024 C1028 0.929 . S
H1025 C1034 0.929 . S
C1026 H1020 0.930 . S
C1026 C1027 1.367 . S
C1026 C1034 1.378 . S
C1027 C1026 1.367 . S
C1027 C1035 1.433 . S
C1028 H1024 0.929 . S
C1028 C1030 1.378 . S
C1028 C1032 1.350 . S
C1029 C1032 1.463 . S
C1029 C1034 1.350 . S
C1029 N1037 1.427 . S
C1030 H1021 0.930 . S
C1030 C1028 1.378 . S
C1030 C1031 1.367 . S
C1031 C1030 1.367 . S
C1031 C1033 1.433 . S
C1032 C1028 1.350 . S
C1032 C1029 1.463 . S
C1032 N1036 1.427 . S
C1033 H1023 0.929 . S
C1033 C1031 1.433 . S
C1033 N1036 1.384 . S
C1034 H1025 0.929 . S
C1034 C1026 1.378 . S
C1034 C1029 1.350 . S
C1035 H1022 0.929 . S
C1035 C1027 1.433 . S
C1035 N1037 1.384 . S
N1036 C1032 1.427 . S
N1036 C1033 1.384 . S
N1037 C1029 1.427 . S
N1037 C1035 1.384 . S
H1038 C1044 0.930 . S
H1039 C1048 0.930 . S
H1040 C1053 0.929 . S
H1041 C1051 0.929 . S
H1042 C1046 0.929 . S
H1043 C1052 0.929 . S
C1044 H1038 0.930 . S
C1044 C1045 1.367 . S
C1044 C1052 1.378 . S
C1045 C1044 1.367 . S
C1045 C1053 1.433 . S
C1046 H1042 0.929 . S
C1046 C1048 1.378 . S
C1046 C1050 1.350 . S
C1047 C1050 1.463 . S
C1047 C1052 1.350 . S
C1047 N1055 1.427 . S
C1048 H1039 0.930 . S
C1048 C1046 1.378 . S
C1048 C1049 1.367 . S
C1049 C1048 1.367 . S
C1049 C1051 1.433 . S
C1050 C1046 1.350 . S
C1050 C1047 1.463 . S
C1050 N1054 1.427 . S
C1051 H1041 0.929 . S
C1051 C1049 1.433 . S
C1051 N1054 1.384 . S
C1052 H1043 0.929 . S
C1052 C1044 1.378 . S
C1052 C1047 1.350 . S
C1053 H1040 0.929 . S
C1053 C1045 1.433 . S
C1053 N1055 1.384 . S
N1054 C1050 1.427 . S
N1054 C1051 1.384 . S
N1055 C1047 1.427 . S
N1055 C1053 1.384 . S
H1056 C1062 0.930 . S
H1057 C1066 0.930 . S
H1058 C1071 0.929 . S
H1059 C1069 0.929 . S
H1060 C1064 0.929 . S
H1061 C1070 0.929 1_545 S
C1062 H1056 0.930 . S
C1062 C1063 1.367 . S
C1062 C1070 1.378 . S
C1063 C1062 1.367 . S
C1063 C1071 1.433 . S
C1064 H1060 0.929 . S
C1064 C1066 1.378 . S
C1064 C1068 1.350 . S
C1065 C1068 1.463 . S
C1065 C1070 1.350 1_545 S
C1065 N1073 1.427 1_545 S
C1066 H1057 0.930 . S
C1066 C1064 1.378 . S
C1066 C1067 1.367 . S
C1067 C1066 1.367 . S
C1067 C1069 1.433 . S
C1068 C1064 1.350 . S
C1068 C1065 1.463 . S
C1068 N1072 1.427 . S
C1069 H1059 0.929 . S
C1069 C1067 1.433 . S
C1069 N1072 1.384 . S
C1070 H1061 0.929 1_565 S
C1070 C1062 1.378 . S
C1070 C1065 1.350 1_565 S
C1071 H1058 0.929 . S
C1071 C1063 1.433 . S
C1071 N1073 1.384 . S
N1072 C1068 1.427 . S
N1072 C1069 1.384 . S
N1073 C1065 1.427 1_565 S
N1073 C1071 1.384 . S
H1074 C1080 0.930 . S
H1075 C1084 0.930 . S
H1076 C1089 0.929 . S
H1077 C1087 0.929 . S
H1078 C1082 0.929 1_565 S
H1079 C1088 0.929 . S
C1080 H1074 0.930 . S
C1080 C1081 1.367 . S
C1080 C1088 1.378 . S
C1081 C1080 1.367 . S
C1081 C1089 1.433 . S
C1082 H1078 0.929 1_545 S
C1082 C1084 1.378 . S
C1082 C1086 1.350 1_545 S
C1083 C1086 1.463 . S
C1083 C1088 1.350 . S
C1083 N1091 1.427 . S
C1084 H1075 0.930 . S
C1084 C1082 1.378 . S
C1084 C1085 1.367 . S
C1085 C1084 1.367 . S
C1085 C1087 1.433 . S
C1086 C1082 1.350 1_565 S
C1086 C1083 1.463 . S
C1086 N1090 1.427 1_565 S
C1087 H1077 0.929 . S
C1087 C1085 1.433 . S
C1087 N1090 1.384 . S
C1088 H1079 0.929 . S
C1088 C1080 1.378 . S
C1088 C1083 1.350 . S
C1089 H1076 0.929 . S
C1089 C1081 1.433 . S
C1089 N1091 1.384 . S
N1090 C1086 1.427 1_545 S
N1090 C1087 1.384 . S
N1091 C1083 1.427 . S
N1091 C1089 1.384 . S
H1092 C1098 0.930 . S
H1093 C1102 0.930 . S
H1094 C1107 0.929 . S
H1095 C1105 0.929 . S
H1096 C1100 0.929 . S
H1097 C1106 0.929 1_565 S
C1098 H1092 0.930 . S
C1098 C1099 1.367 . S
C1098 C1106 1.378 . S
C1099 C1098 1.367 . S
C1099 C1107 1.433 . S
C1100 H1096 0.929 . S
C1100 C1102 1.378 . S
C1100 C1104 1.350 . S
C1101 C1104 1.463 . S
C1101 C1106 1.350 1_565 S
C1101 N1109 1.427 1_565 S
C1102 H1093 0.930 . S
C1102 C1100 1.378 . S
C1102 C1103 1.367 . S
C1103 C1102 1.367 . S
C1103 C1105 1.433 . S
C1104 C1100 1.350 . S
C1104 C1101 1.463 . S
C1104 N1108 1.427 . S
C1105 H1095 0.929 . S
C1105 C1103 1.433 . S
C1105 N1108 1.384 . S
C1106 H1097 0.929 1_545 S
C1106 C1098 1.378 . S
C1106 C1101 1.350 1_545 S
C1107 H1094 0.929 . S
C1107 C1099 1.433 . S
C1107 N1109 1.384 . S
N1108 C1104 1.427 . S
N1108 C1105 1.384 . S
N1109 C1101 1.427 1_545 S
N1109 C1107 1.384 . S
H1110 C1116 0.930 . S
H1111 C1120 0.930 . S
H1112 C1125 0.929 . S
H1113 C1123 0.929 . S
H1114 C1118 0.929 . S
H1115 C1124 0.929 1_545 S
C1116 H1110 0.930 . S
C1116 C1117 1.367 . S
C1116 C1124 1.378 . S
C1117 C1116 1.367 . S
C1117 C1125 1.433 . S
C1118 H1114 0.929 . S
C1118 C1120 1.378 . S
C1118 C1122 1.350 . S
C1119 C1122 1.463 . S
C1119 C1124 1.350 1_545 S
C1119 N1127 1.427 1_545 S
C1120 H1111 0.930 . S
C1120 C1118 1.378 . S
C1120 C1121 1.367 . S
C1121 C1120 1.367 . S
C1121 C1123 1.433 . S
C1122 C1118 1.350 . S
C1122 C1119 1.463 . S
C1122 N1126 1.427 . S
C1123 H1113 0.929 . S
C1123 C1121 1.433 . S
C1123 N1126 1.384 . S
C1124 H1115 0.929 1_565 S
C1124 C1116 1.378 . S
C1124 C1119 1.350 1_565 S
C1125 H1112 0.929 . S
C1125 C1117 1.433 . S
C1125 N1127 1.384 . S
N1126 C1122 1.427 . S
N1126 C1123 1.384 . S
N1127 C1119 1.427 1_565 S
N1127 C1125 1.384 . S
H1128 C1134 0.930 . S
H1129 C1138 0.930 . S
H1130 C1143 0.929 . S
H1131 C1141 0.929 . S
H1132 C1136 0.929 1_565 S
H1133 C1142 0.929 . S
C1134 H1128 0.930 . S
C1134 C1135 1.367 . S
C1134 C1142 1.378 . S
C1135 C1134 1.367 . S
C1135 C1143 1.433 . S
C1136 H1132 0.929 1_545 S
C1136 C1138 1.378 . S
C1136 C1140 1.350 1_545 S
C1137 C1140 1.463 . S
C1137 C1142 1.350 . S
C1137 N1145 1.427 . S
C1138 H1129 0.930 . S
C1138 C1136 1.378 . S
C1138 C1139 1.367 . S
C1139 C1138 1.367 . S
C1139 C1141 1.433 . S
C1140 C1136 1.350 1_565 S
C1140 C1137 1.463 . S
C1140 N1144 1.427 1_565 S
C1141 H1131 0.929 . S
C1141 C1139 1.433 . S
C1141 N1144 1.384 . S
C1142 H1133 0.929 . S
C1142 C1134 1.378 . S
C1142 C1137 1.350 . S
C1143 H1130 0.929 . S
C1143 C1135 1.433 . S
C1143 N1145 1.384 . S
N1144 C1140 1.427 1_545 S
N1144 C1141 1.384 . S
N1145 C1137 1.427 . S
N1145 C1143 1.384 . S
H1146 C1152 0.930 . S
H1147 C1156 0.930 . S
H1148 C1161 0.929 . S
H1149 C1159 0.929 . S
H1150 C1154 0.929 1_545 S
H1151 C1160 0.929 . S
C1152 H1146 0.930 . S
C1152 C1153 1.367 . S
C1152 C1160 1.378 . S
C1153 C1152 1.367 . S
C1153 C1161 1.433 . S
C1154 H1150 0.929 1_565 S
C1154 C1156 1.378 . S
C1154 C1158 1.350 1_565 S
C1155 C1158 1.463 . S
C1155 C1160 1.350 . S
C1155 N1163 1.427 . S
C1156 H1147 0.930 . S
C1156 C1154 1.378 . S
C1156 C1157 1.367 . S
C1157 C1156 1.367 . S
C1157 C1159 1.433 . S
C1158 C1154 1.350 1_545 S
C1158 C1155 1.463 . S
C1158 N1162 1.427 1_545 S
C1159 H1149 0.929 . S
C1159 C1157 1.433 . S
C1159 N1162 1.384 . S
C1160 H1151 0.929 . S
C1160 C1152 1.378 . S
C1160 C1155 1.350 . S
C1161 H1148 0.929 . S
C1161 C1153 1.433 . S
C1161 N1163 1.384 . S
N1162 C1158 1.427 1_565 S
N1162 C1159 1.384 . S
N1163 C1155 1.427 . S
N1163 C1161 1.384 . S
H1164 C1170 0.930 . S
H1165 C1174 0.930 . S
H1166 C1179 0.929 . S
H1167 C1177 0.929 . S
H1168 C1172 0.929 . S
H1169 C1178 0.929 1_545 S
C1170 H1164 0.930 . S
C1170 C1171 1.367 . S
C1170 C1178 1.378 . S
C1171 C1170 1.367 . S
C1171 C1179 1.433 . S
C1172 H1168 0.929 . S
C1172 C1174 1.378 . S
C1172 C1176 1.350 . S
C1173 C1176 1.463 . S
C1173 C1178 1.350 1_545 S
C1173 N1181 1.427 1_545 S
C1174 H1165 0.930 . S
C1174 C1172 1.378 . S
C1174 C1175 1.367 . S
C1175 C1174 1.367 . S
C1175 C1177 1.433 . S
C1176 C1172 1.350 . S
C1176 C1173 1.463 . S
C1176 N1180 1.427 . S
C1177 H1167 0.929 . S
C1177 C1175 1.433 . S
C1177 N1180 1.384 . S
C1178 H1169 0.929 1_565 S
C1178 C1170 1.378 . S
C1178 C1173 1.350 1_565 S
C1179 H1166 0.929 . S
C1179 C1171 1.433 . S
C1179 N1181 1.384 . S
N1180 C1176 1.427 . S
N1180 C1177 1.384 . S
N1181 C1173 1.427 1_565 S
N1181 C1179 1.384 . S
H1182 C1188 0.930 . S
H1183 C1192 0.930 . S
H1184 C1197 0.929 . S
H1185 C1195 0.929 . S
H1186 C1190 0.929 1_565 S
H1187 C1196 0.929 . S
C1188 H1182 0.930 . S
C1188 C1189 1.367 . S
C1188 C1196 1.378 . S
C1189 C1188 1.367 . S
C1189 C1197 1.433 . S
C1190 H1186 0.929 1_545 S
C1190 C1192 1.378 . S
C1190 C1194 1.350 1_545 S
C1191 C1194 1.463 . S
C1191 C1196 1.350 . S
C1191 N1199 1.427 . S
C1192 H1183 0.930 . S
C1192 C1190 1.378 . S
C1192 C1193 1.367 . S
C1193 C1192 1.367 . S
C1193 C1195 1.433 . S
C1194 C1190 1.350 1_565 S
C1194 C1191 1.463 . S
C1194 N1198 1.427 1_565 S
C1195 H1185 0.929 . S
C1195 C1193 1.433 . S
C1195 N1198 1.384 . S
C1196 H1187 0.929 . S
C1196 C1188 1.378 . S
C1196 C1191 1.350 . S
C1197 H1184 0.929 . S
C1197 C1189 1.433 . S
C1197 N1199 1.384 . S
N1198 C1194 1.427 1_545 S
N1198 C1195 1.384 . S
N1199 C1191 1.427 . S
N1199 C1197 1.384 . S
C343 C19 1.398 . S
C347 C209 1.387 . S
C361 C41 1.394 . S
C365 C187 1.385 . S
C379 C251 1.384 . S
C383 C61 1.393 . S
C397 C82 1.393 . S
C401 C229 1.402 . S
C415 C292 1.385 . S
C419 C103 1.395 . S
C433 C271 1.388 . S
C437 C124 1.385 . S
C451 C335 1.399 . S
C455 C145 1.402 . S
C469 C166 1.399 . S
C473 C313 1.388 . S
C487 C46 1.305 . S
C491 C4 1.294 . S
C505 C67 1.306 . S
C509 C28 1.299 . S
C523 C130 1.288 . S
C527 C88 1.280 . S
C541 C109 1.293 . S
C545 C151 1.281 . S
C559 C214 1.306 . S
C563 C172 1.301 . S
C577 C238 1.306 . S
C581 C196 1.297 . S
C595 C256 1.299 . S
C599 C298 1.306 . S
C613 C277 1.300 . S
C617 C322 1.306 . S
C631 C112 1.293 . S
C635 C7 1.309 . S
C649 C91 1.313 . S
C653 C25 1.289 . S
C667 C49 1.301 . S
C671 C154 1.300 . S
C685 C133 1.311 . S
C689 C70 1.291 . S
C703 C175 1.302 . S
C707 C280 1.300 . S
C721 C259 1.313 . S
C725 C193 1.288 . S
C739 C217 1.304 . S
C743 C319 1.298 . S
C757 C301 1.311 . S
C761 C235 1.290 . S
C775 C37 1.381 . S
C779 C3 1.403 . S
C793 C66 1.387 . S
C797 C45 1.392 . S
C811 C108 1.401 . S
C815 C87 1.381 . S
C829 C129 1.384 . S
C833 C150 1.396 . S
C847 C205 1.384 . S
C851 C171 1.395 . S
C865 C247 1.403 . S
C869 C213 1.381 . S
C883 C255 1.404 . S
C887 C276 1.382 . S
C901 C297 1.403 . S
C905 C331 1.381 . S
C919 C16 1.199 . S
C923 C20 1.224 . S
C937 C24 1.223 . S
C941 C40 1.238 . S
C955 C58 1.222 . S
C959 C62 1.240 . S
C973 C83 1.238 . S
C977 C79 1.211 . S
C991 C100 1.216 . S
C995 C104 1.226 . S
C1009 C125 1.241 . S
C1013 C121 1.220 . S
C1027 C142 1.220 . S
C1031 C146 1.230 . S
C1045 C163 1.216 . S
C1049 C167 1.226 . S
C1063 C188 1.228 . S
C1067 C184 1.200 . S
C1081 C192 1.200 . S
C1085 C208 1.221 . S
C1099 C230 1.235 . S
C1103 C226 1.207 . S
C1117 C250 1.226 . S
C1121 C234 1.215 . S
C1135 C268 1.204 . S
C1139 C272 1.233 . S
C1153 C289 1.222 . S
C1157 C293 1.233 . S
C1171 C314 1.241 . S
C1175 C310 1.221 . S
C1189 C318 1.221 . S
C1193 C334 1.231 . S
