# Generated by pormake.
# Topology uov, (4)-cn, num edge types: 1
# Building blocks:
#     Node 0, Type 0, BuildingBlock: QUQFOY_clean_sbu_3, # of connection points: 4
#     Node 1, Type 0, BuildingBlock: QUQFOY_clean_sbu_3, # of connection points: 4
#     Node 2, Type 0, BuildingBlock: QUQFOY_clean_sbu_3, # of connection points: 4
#     Node 3, Type 0, BuildingBlock: QUQFOY_clean_sbu_3, # of connection points: 4
#     Node 4, Type 0, BuildingBlock: QUQFOY_clean_sbu_3, # of connection points: 4
#     Node 5, Type 0, BuildingBlock: QUQFOY_clean_sbu_3, # of connection points: 4
#     Node 6, Type 0, BuildingBlock: QUQFOY_clean_sbu_3, # of connection points: 4
#     Node 7, Type 0, BuildingBlock: QUQFOY_clean_sbu_3, # of connection points: 4
#     Edge 8, Type (0, 0), BuildingBlock: AJUNOK_clean_linker_0, # of connection points: 2
#     Edge 9, Type (0, 0), BuildingBlock: AJUNOK_clean_linker_0, # of connection points: 2
#     Edge 10, Type (0, 0), BuildingBlock: AJUNOK_clean_linker_0, # of connection points: 2
#     Edge 11, Type (0, 0), BuildingBlock: AJUNOK_clean_linker_0, # of connection points: 2
#     Edge 12, Type (0, 0), BuildingBlock: AJUNOK_clean_linker_0, # of connection points: 2
#     Edge 13, Type (0, 0), BuildingBlock: AJUNOK_clean_linker_0, # of connection points: 2
#     Edge 14, Type (0, 0), BuildingBlock: AJUNOK_clean_linker_0, # of connection points: 2
#     Edge 15, Type (0, 0), BuildingBlock: AJUNOK_clean_linker_0, # of connection points: 2
#     Edge 16, Type (0, 0), BuildingBlock: AJUNOK_clean_linker_0, # of connection points: 2
#     Edge 17, Type (0, 0), BuildingBlock: AJUNOK_clean_linker_0, # of connection points: 2
#     Edge 18, Type (0, 0), BuildingBlock: AJUNOK_clean_linker_0, # of connection points: 2
#     Edge 19, Type (0, 0), BuildingBlock: AJUNOK_clean_linker_0, # of connection points: 2
#     Edge 20, Type (0, 0), BuildingBlock: AJUNOK_clean_linker_0, # of connection points: 2
#     Edge 21, Type (0, 0), BuildingBlock: AJUNOK_clean_linker_0, # of connection points: 2
#     Edge 22, Type (0, 0), BuildingBlock: AJUNOK_clean_linker_0, # of connection points: 2
#     Edge 23, Type (0, 0), BuildingBlock: AJUNOK_clean_linker_0, # of connection points: 2
# Relax obj value: 0.138
# Max RMSD: 0.154
# Mean RMSD: 0.146
data_MOF--net-uov--node1-QUQFOY_clean_sbu_3--edge1-AJUNOK_clean_linker_0
_symmetry_space_group_name_H-M    P1
_symmetry_Int_Tables_number       1
_symmetry_cell_setting            triclinic
loop_
_symmetry_equiv_pos_as_xyz
'x, y, z'
_cell_length_a     23.87803
_cell_length_b     23.90266
_cell_length_c     32.70379
_cell_angle_alpha  89.973703
_cell_angle_beta   89.909904
_cell_angle_gamma 87.254903
loop_
_atom_site_label
_atom_site_type_symbol
_atom_site_fract_x
_atom_site_fract_y
_atom_site_fract_z
_atom_type_partial_charge
C0 C 0.95784 0.18835 0.53459 0.0
O1 O 0.95951 0.15086 0.56215 0.0
Cd2 Cd 0.04362 0.1288 0.59992 0.0
O3 O -0.0034 0.22272 0.53134 0.0
Cd4 Cd 0.07832 0.25505 0.56938 0.0
C5 C 0.13874 0.15165 0.51909 0.0
O6 O 0.068 0.20886 0.63554 0.0
O7 O 0.14954 0.24124 0.62393 0.0
O8 O 0.01522 0.32984 0.58755 0.0
C9 C 0.11795 0.21442 0.64745 0.0
O10 O 0.11122 0.12458 0.54521 0.0
C11 C 0.03856 0.36836 0.56826 0.0
O12 O 0.13537 0.20497 0.51751 0.0
O13 O 0.08453 0.3554 0.54984 0.0
C14 C 0.20077 0.84044 0.29379 0.0
O15 O 0.16162 0.87277 0.3074 0.0
Cd16 Cd 0.14287 0.92094 0.36687 0.0
O17 O 0.24487 0.82961 0.31475 0.0
Cd18 Cd 0.27041 0.87329 0.3818 0.0
C19 C 0.17415 0.80217 0.42643 0.0
O20 O 0.22303 0.96794 0.38361 0.0
O21 O 0.24308 0.92665 0.44081 0.0
O22 O 0.35044 0.90948 0.34785 0.0
C23 C 0.22802 0.97127 0.42216 0.0
O24 O 0.1449 0.84223 0.41057 0.0
C25 C 0.3837 0.90354 0.37787 0.0
O26 O 0.22718 0.79768 0.42106 0.0
O27 O 0.36684 0.87638 0.40866 0.0
C28 C 0.00027 0.76235 0.53783 0.0
O29 O -0.00846 0.80068 0.56427 0.0
Cd30 Cd 0.90825 0.82088 0.6016 0.0
O31 O 0.965 0.72478 0.5329 0.0
Cd32 Cd 0.88061 0.69534 0.57014 0.0
C33 C 0.81789 0.79605 0.51893 0.0
O34 O 0.88928 0.7401 0.63754 0.0
O35 O 0.80782 0.71028 0.62396 0.0
O36 O 0.94326 0.61913 0.58653 0.0
C37 C 0.83896 0.73529 0.64882 0.0
O38 O 0.84289 0.82335 0.54618 0.0
C39 C 0.91686 0.58196 0.56821 0.0
O40 O 0.82403 0.74295 0.51657 0.0
O41 O 0.86991 0.59631 0.55185 0.0
C42 C 0.75354 0.1133 0.29422 0.0
O43 O 0.78901 0.07245 0.29792 0.0
Cd44 Cd 0.80748 0.02531 0.35985 0.0
O45 O 0.71701 0.12464 0.32175 0.0
Cd46 Cd 0.68635 0.07502 0.38429 0.0
C47 C 0.78563 0.14285 0.4247 0.0
O48 O 0.72952 -0.02092 0.38217 0.0
O49 O 0.71501 0.01894 0.44088 0.0
O50 O 0.60941 0.04145 0.34771 0.0
C51 C 0.72794 0.9748 0.42083 0.0
O52 O 0.81206 0.10379 0.40526 0.0
C53 C 0.5735 0.04654 0.3762 0.0
O54 O 0.73212 0.14739 0.42437 0.0
O55 O 0.58748 0.07428 0.4076 0.0
C56 C 0.83933 0.20152 0.15147 0.0
O57 O 0.87675 0.16296 0.14566 0.0
Cd58 Cd 0.92224 0.14318 0.0833 0.0
O59 O 0.82933 0.23996 0.1252 0.0
Cd60 Cd 0.87808 0.26738 0.06166 0.0
C61 C 0.80778 0.16818 0.01795 0.0
O62 O 0.97308 0.22031 0.06296 0.0
O63 O 0.93423 0.24134 0.00493 0.0
O64 O 0.91333 0.3443 0.09786 0.0
C65 C 0.97773 0.22468 0.02441 0.0
O66 O 0.8451 0.13799 0.03634 0.0
C67 C 0.90852 0.3802 0.06941 0.0
O68 O 0.80611 0.22158 0.02082 0.0
O69 O 0.88015 0.36656 0.03824 0.0
C70 C 0.19329 0.95376 0.90755 0.0
O71 O 0.15626 0.95833 0.8798 0.0
Cd72 Cd 0.13733 0.04174 0.8421 0.0
O73 O 0.22843 -0.00843 0.91245 0.0
Cd74 Cd 0.25839 0.0759 0.87396 0.0
C75 C 0.15948 0.13398 0.9258 0.0
O76 O 0.21626 0.06629 0.80537 0.0
O77 O 0.23766 0.14966 0.82224 0.0
O78 O 0.33069 0.01245 0.8551 0.0
C79 C 0.21742 0.11757 0.79562 0.0
O80 O 0.13617 0.10587 0.8982 0.0
C81 C 0.37043 0.03555 0.87296 0.0
O82 O 0.21264 0.13264 0.92893 0.0
O83 O 0.35964 0.08337 0.88932 0.0
C84 C 0.10869 0.74402 0.15137 0.0
O85 O 0.05775 0.76117 0.15008 0.0
Cd86 Cd 0.02914 0.79929 0.08707 0.0
O87 O 0.13132 0.71949 0.1205 0.0
Cd88 Cd 0.08412 0.68134 0.05809 0.0
C89 C 0.14967 0.77412 0.02061 0.0
O90 O -0.01453 0.72535 0.05765 0.0
O91 O 0.03016 0.71335 0.00074 0.0
O92 O 0.05123 0.60179 0.09544 0.0
C93 C -0.0153 0.72712 0.01891 0.0
O94 O 0.10779 0.7881 0.04269 0.0
C95 C 0.05414 0.56839 0.06528 0.0
O96 O 0.16372 0.72212 0.01771 0.0
O97 O 0.07896 0.58471 0.03325 0.0
C98 C 0.77169 -0.00619 0.90735 0.0
O99 O 0.81207 -0.01461 0.88232 0.0
Cd100 Cd 0.83381 0.90245 0.84428 0.0
O101 O 0.7338 0.9583 0.91121 0.0
Cd102 Cd 0.69945 0.87234 0.87744 0.0
C103 C 0.79272 0.81317 0.92645 0.0
O104 O 0.75019 0.8835 0.81117 0.0
O105 O 0.71181 0.80482 0.82027 0.0
O106 O 0.62816 0.94235 0.86421 0.0
C107 C 0.74174 0.83486 0.79778 0.0
O108 O 0.80701 0.84443 0.89769 0.0
C109 C 0.58691 0.91567 0.87663 0.0
O110 O 0.7407 0.81054 0.93388 0.0
O111 O 0.59695 0.86532 0.88845 0.0
C112 C 0.9453 0.49208 0.60048 0.0
C113 C 0.94247 0.52541 0.56531 0.0
C114 C -0.02178 0.44221 0.60121 0.0
C115 C 0.01055 0.42463 0.56713 0.0
H116 H 0.92258 0.50512 0.62784 0.0
H117 H -0.02144 0.41724 0.62888 0.0
S118 S 0.01863 0.49921 0.46793 0.0
N119 N 0.97478 0.53903 0.49574 0.0
N120 N 0.0381 0.44529 0.49719 0.0
C121 C 0.00881 0.45829 0.53183 0.0
C122 C 0.97423 0.50871 0.53089 0.0
C123 C 0.4875 0.01017 0.4098 0.0
C124 C 0.52292 0.01256 0.37539 0.0
C125 C 0.44431 0.97219 0.41148 0.0
C126 C 0.43498 0.93548 0.37881 0.0
H127 H 0.49352 0.03727 0.43581 0.0
H128 H 0.41699 0.97273 0.43799 0.0
S129 S 0.51615 0.92318 0.28251 0.0
N130 N 0.54567 0.97333 0.30817 0.0
N131 N 0.46447 0.90295 0.31173 0.0
C132 C 0.46979 0.93733 0.34445 0.0
C133 C 0.51369 0.97563 0.34262 0.0
C134 C 0.9401 0.46987 0.03803 0.0
C135 C 0.94332 0.43029 0.06998 0.0
C136 C 0.97798 0.51312 0.03574 0.0
C137 C 0.0203 0.51834 0.06526 0.0
H138 H 0.90857 0.46715 0.01443 0.0
H139 H 0.97332 0.54348 0.0112 0.0
S140 S 0.04868 0.42519 0.1539 0.0
N141 N -0.00589 0.39901 0.13121 0.0
N142 N 0.06392 0.48066 0.12673 0.0
C143 C 0.0239 0.47958 0.09727 0.0
C144 C -0.01421 0.43549 0.09965 0.0
C145 C 0.47485 0.03306 0.8807 0.0
C146 C 0.42517 0.00476 0.87641 0.0
C147 C 0.52683 0.00332 0.88126 0.0
C148 C 0.53083 0.94434 0.87833 0.0
H149 H 0.47373 0.07836 0.8825 0.0
H150 H 0.56432 0.02688 0.88382 0.0
S151 S 0.41207 0.85065 0.87046 0.0
N152 N 0.38249 0.9144 0.87192 0.0
N153 N 0.48025 0.85877 0.87333 0.0
C154 C 0.48125 0.91548 0.87583 0.0
C155 C 0.42841 0.94571 0.87474 0.0
C156 C 0.18057 0.06717 0.4268 0.0
C157 C 0.21272 0.02293 0.44511 0.0
C158 C 0.1614 0.1139 0.44987 0.0
C159 C 0.17469 0.11773 0.49157 0.0
H160 H 0.16757 0.06425 0.39518 0.0
H161 H 0.13264 0.14472 0.43593 0.0
S162 S 0.26099 0.01641 0.55306 0.0
N163 N 0.25916 -0.01183 0.50708 0.0
N164 N 0.22497 0.07679 0.54935 0.0
C165 C 0.21 0.07603 0.50923 0.0
C166 C 0.22831 0.02818 0.48635 0.0
C167 C 0.13192 0.81645 0.49228 0.0
C168 C 0.14713 0.77749 0.46173 0.0
C169 C 0.08469 0.81037 0.51629 0.0
C170 C 0.05178 0.76349 0.51251 0.0
H171 H 0.15301 0.85557 0.49444 0.0
H172 H 0.07288 0.84438 0.53691 0.0
S173 S 0.08125 0.64297 0.44245 0.0
N174 N 0.13036 0.68714 0.43149 0.0
N175 N 0.04268 0.67274 0.47927 0.0
C176 C 0.06947 0.72111 0.48449 0.0
C177 C 0.11722 0.72856 0.45876 0.0
C178 C 0.73309 0.92063 0.48486 0.0
C179 C 0.74372 0.92254 0.44268 0.0
C180 C 0.75158 0.87501 0.50826 0.0
C181 C 0.78247 0.82972 0.49078 0.0
H182 H 0.71201 0.95561 0.50051 0.0
H183 H 0.74524 0.87717 0.54108 0.0
S184 S 0.81628 0.81076 0.38085 0.0
N185 N 0.78239 0.87262 0.38327 0.0
N186 N 0.81853 0.78632 0.42818 0.0
C187 C 0.79019 0.8287 0.44818 0.0
C188 C 0.77077 0.87553 0.42392 0.0
C189 C 0.81104 0.17758 0.49322 0.0
C190 C 0.8203 0.1772 0.45083 0.0
C191 C 0.85565 0.18442 0.52038 0.0
C192 C 0.91032 0.1918 0.50588 0.0
H193 H 0.77088 0.16648 0.50548 0.0
H194 H 0.848 0.18068 0.55291 0.0
S195 S 0.9538 0.20152 0.39724 0.0
N196 N 0.88586 0.19191 0.3955 0.0
N197 N 0.96989 0.2038 0.44634 0.0
C198 C 0.91873 0.19724 0.46357 0.0
C199 C 0.87337 0.19063 0.43608 0.0
C200 C 0.73866 0.04985 0.96893 0.0
C201 C 0.76889 0.04618 0.93186 0.0
C202 C 0.74416 0.09561 -0.00456 0.0
C203 C 0.7787 0.13961 -0.01484 0.0
H204 H 0.71419 0.01539 -0.021 0.0
H205 H 0.72549 0.0941 0.02563 0.0
S206 S 0.8606 0.15345 0.88988 0.0
N207 N 0.82997 0.09346 0.88485 0.0
N208 N 0.83876 0.17933 0.93419 0.0
C209 C 0.8041 0.13908 0.94655 0.0
C210 C 0.79983 0.09221 0.9201 0.0
C211 C 0.06989 0.18547 0.93513 0.0
C212 C 0.1211 0.16704 0.95272 0.0
C213 C 0.02473 0.20388 0.9589 0.0
C214 C 0.02869 0.2063 0.00162 0.0
H215 H 0.06346 0.18303 0.90238 0.0
H216 H -0.01419 0.215 0.94325 0.0
S217 S 0.15576 0.16982 0.06323 0.0
N218 N 0.17535 0.15648 0.01552 0.0
N219 N 0.08951 0.19319 0.06099 0.0
C220 C 0.08064 0.19122 0.02002 0.0
C221 C 0.12729 0.17161 -0.00463 0.0
C222 C 0.12418 0.85712 -0.02054 0.0
C223 C 0.16681 0.81754 -0.00871 0.0
C224 C 0.13454 0.90146 0.95369 0.0
C225 C 0.18808 0.90884 0.93802 0.0
H226 H 0.08134 0.85378 -0.01015 0.0
H227 H 0.09975 0.93014 0.94563 0.0
S228 S 0.31618 0.82008 0.96013 0.0
N229 N 0.26611 0.78976 -0.01414 0.0
N230 N 0.28591 0.87526 0.9371 0.0
C231 C 0.23221 0.87106 0.94998 0.0
C232 C 0.22142 0.82455 -0.02365 0.0
C233 C 0.83451 0.77568 -0.00759 0.0
C234 C 0.83801 0.78387 0.94992 0.0
C235 C 0.88223 0.75738 0.01495 0.0
C236 C 0.93456 0.74689 -0.00443 0.0
H237 H 0.79555 0.78548 0.00845 0.0
H238 H 0.87824 0.75209 0.0477 0.0
S239 S 0.96482 0.76221 0.88474 0.0
N240 N 0.89721 0.77805 0.88929 0.0
N241 N -0.01346 0.74734 0.93146 0.0
C242 C 0.93801 0.75474 0.95308 0.0
C243 C 0.88974 0.77201 0.93031 0.0
C244 C 0.1521 0.22157 0.71907 0.0
C245 C 0.13964 0.18798 0.68547 0.0
C246 C 0.17648 0.1982 0.75461 0.0
C247 C 0.18982 0.14027 0.75782 0.0
H248 H 0.1433 0.26642 0.71776 0.0
H249 H 0.18525 0.22599 0.7797 0.0
S250 S 0.1642 0.03398 0.67789 0.0
N251 N 0.14098 0.09389 0.65739 0.0
N252 N 0.187 0.04959 0.72401 0.0
C253 C 0.17617 0.10593 0.72454 0.0
C254 C 0.1511 0.12988 0.68838 0.0
C255 C 0.18168 0.73768 0.20721 0.0
C256 C 0.14323 0.76933 0.1829 0.0
C257 C 0.2057 0.76174 0.24209 0.0
C258 C 0.19228 0.81804 0.25246 0.0
H259 H 0.19004 0.69357 0.20094 0.0
H260 H 0.23124 0.73538 0.26238 0.0
S261 S 0.10228 0.92041 0.19396 0.0
N262 N 0.09868 0.86098 0.16877 0.0
N263 N 0.14568 0.90635 0.23207 0.0
C264 C 0.15896 0.85101 0.22552 0.0
C265 C 0.13372 0.82658 0.19131 0.0
C266 C 0.76418 0.74611 0.7023 0.0
C267 C 0.81588 0.76238 0.68674 0.0
C268 C 0.74088 0.77011 0.73797 0.0
C269 C 0.76749 0.81242 0.75929 0.0
H270 H 0.74164 0.71386 0.68708 0.0
H271 H 0.70128 0.75546 0.74883 0.0
S272 S 0.90294 0.87231 0.73077 0.0
N273 N 0.89295 0.82463 0.6953 0.0
N274 N 0.84821 0.87083 0.76166 0.0
C275 C 0.81874 0.8303 0.74368 0.0
C276 C 0.84318 0.80497 0.70766 0.0
C277 C 0.73325 0.15158 0.22486 0.0
C278 C 0.76357 0.15321 0.26153 0.0
C279 C 0.75483 0.17469 0.18898 0.0
C280 C 0.80712 0.19939 0.1893 0.0
H281 H 0.69567 0.12804 0.22307 0.0
H282 H 0.73344 0.16819 0.16029 0.0
S283 S 0.89873 0.21904 0.27868 0.0
N284 N 0.8448 0.18624 0.29704 0.0
N285 N 0.88566 0.22872 0.22954 0.0
C286 C 0.83497 0.20548 0.22649 0.0
C287 C 0.813 0.18252 0.26279 0.0
loop_
_geom_bond_atom_site_label_1
_geom_bond_atom_site_label_2
_geom_bond_distance
_geom_bond_site_symmetry_2
_ccdc_geom_bond_type
C0 O1 1.306 . S
C0 O3 1.160 1_655 S
O1 C0 1.306 . S
O1 Cd2 2.228 1_655 S
Cd2 O1 2.228 1_455 S
Cd2 O6 2.273 . S
Cd2 O10 2.277 . S
O3 C0 1.160 1_455 S
O3 Cd4 2.203 . S
Cd4 O3 2.203 . S
Cd4 O6 2.411 . S
Cd4 O7 2.333 . S
Cd4 O8 2.352 . S
Cd4 O12 2.277 . S
Cd4 O13 2.356 . S
C5 O10 1.209 . S
C5 O12 1.226 . S
O6 Cd2 2.273 . S
O6 Cd4 2.411 . S
O6 C9 1.320 . S
O7 Cd4 2.333 . S
O7 C9 1.214 . S
O8 Cd4 2.352 . S
O8 C11 1.258 . S
C9 O6 1.320 . S
C9 O7 1.214 . S
O10 Cd2 2.277 . S
O10 C5 1.209 . S
C11 O8 1.258 . S
C11 O13 1.282 . S
O12 Cd4 2.277 . S
O12 C5 1.226 . S
O13 Cd4 2.356 . S
O13 C11 1.282 . S
C14 O15 1.306 . S
C14 O17 1.160 . S
O15 C14 1.306 . S
O15 Cd16 2.228 . S
Cd16 O15 2.228 . S
Cd16 O20 2.273 . S
Cd16 O24 2.277 . S
O17 C14 1.160 . S
O17 Cd18 2.203 . S
Cd18 O17 2.203 . S
Cd18 O20 2.411 . S
Cd18 O21 2.333 . S
Cd18 O22 2.352 . S
Cd18 O26 2.277 . S
Cd18 O27 2.356 . S
C19 O24 1.209 . S
C19 O26 1.226 . S
O20 Cd16 2.273 . S
O20 Cd18 2.411 . S
O20 C23 1.320 1_565 S
O21 Cd18 2.333 . S
O21 C23 1.214 1_565 S
O22 Cd18 2.352 . S
O22 C25 1.258 . S
C23 O20 1.320 1_545 S
C23 O21 1.214 1_545 S
O24 Cd16 2.277 . S
O24 C19 1.209 . S
C25 O22 1.258 . S
C25 O27 1.282 . S
O26 Cd18 2.277 . S
O26 C19 1.226 . S
O27 Cd18 2.356 . S
O27 C25 1.282 . S
C28 O29 1.306 . S
C28 O31 1.160 1_455 S
O29 C28 1.306 . S
O29 Cd30 2.228 1_455 S
Cd30 O29 2.228 1_655 S
Cd30 O34 2.273 . S
Cd30 O38 2.277 . S
O31 C28 1.160 1_655 S
O31 Cd32 2.203 . S
Cd32 O31 2.203 . S
Cd32 O34 2.411 . S
Cd32 O35 2.333 . S
Cd32 O36 2.352 . S
Cd32 O40 2.277 . S
Cd32 O41 2.356 . S
C33 O38 1.209 . S
C33 O40 1.226 . S
O34 Cd30 2.273 . S
O34 Cd32 2.411 . S
O34 C37 1.320 . S
O35 Cd32 2.333 . S
O35 C37 1.214 . S
O36 Cd32 2.352 . S
O36 C39 1.258 . S
C37 O34 1.320 . S
C37 O35 1.214 . S
O38 Cd30 2.277 . S
O38 C33 1.209 . S
C39 O36 1.258 . S
C39 O41 1.282 . S
O40 Cd32 2.277 . S
O40 C33 1.226 . S
O41 Cd32 2.356 . S
O41 C39 1.282 . S
C42 O43 1.306 . S
C42 O45 1.160 . S
O43 C42 1.306 . S
O43 Cd44 2.228 . S
Cd44 O43 2.228 . S
Cd44 O48 2.273 . S
Cd44 O52 2.277 . S
O45 C42 1.160 . S
O45 Cd46 2.203 . S
Cd46 O45 2.203 . S
Cd46 O48 2.411 . S
Cd46 O49 2.333 . S
Cd46 O50 2.352 . S
Cd46 O54 2.277 . S
Cd46 O55 2.356 . S
C47 O52 1.209 . S
C47 O54 1.226 . S
O48 Cd44 2.273 . S
O48 Cd46 2.411 . S
O48 C51 1.320 1_545 S
O49 Cd46 2.333 . S
O49 C51 1.214 1_545 S
O50 Cd46 2.352 . S
O50 C53 1.258 . S
C51 O48 1.320 1_565 S
C51 O49 1.214 1_565 S
O52 Cd44 2.277 . S
O52 C47 1.209 . S
C53 O50 1.258 . S
C53 O55 1.282 . S
O54 Cd46 2.277 . S
O54 C47 1.226 . S
O55 Cd46 2.356 . S
O55 C53 1.282 . S
C56 O57 1.306 . S
C56 O59 1.160 . S
O57 C56 1.306 . S
O57 Cd58 2.228 . S
Cd58 O57 2.228 . S
Cd58 O62 2.273 . S
Cd58 O66 2.277 . S
O59 C56 1.160 . S
O59 Cd60 2.203 . S
Cd60 O59 2.203 . S
Cd60 O62 2.411 . S
Cd60 O63 2.333 . S
Cd60 O64 2.352 . S
Cd60 O68 2.277 . S
Cd60 O69 2.356 . S
C61 O66 1.209 . S
C61 O68 1.226 . S
O62 Cd58 2.273 . S
O62 Cd60 2.411 . S
O62 C65 1.320 1_655 S
O63 Cd60 2.333 . S
O63 C65 1.214 1_655 S
O64 Cd60 2.352 . S
O64 C67 1.258 . S
C65 O62 1.320 1_455 S
C65 O63 1.214 1_455 S
O66 Cd58 2.277 . S
O66 C61 1.209 . S
C67 O64 1.258 . S
C67 O69 1.282 . S
O68 Cd60 2.277 . S
O68 C61 1.226 . S
O69 Cd60 2.356 . S
O69 C67 1.282 . S
C70 O71 1.306 . S
C70 O73 1.160 1_565 S
O71 C70 1.306 . S
O71 Cd72 2.228 1_565 S
Cd72 O71 2.228 1_545 S
Cd72 O76 2.273 . S
Cd72 O80 2.277 . S
O73 C70 1.160 1_545 S
O73 Cd74 2.203 . S
Cd74 O73 2.203 . S
Cd74 O76 2.411 . S
Cd74 O77 2.333 . S
Cd74 O78 2.352 . S
Cd74 O82 2.277 . S
Cd74 O83 2.356 . S
C75 O80 1.209 . S
C75 O82 1.226 . S
O76 Cd72 2.273 . S
O76 Cd74 2.411 . S
O76 C79 1.320 . S
O77 Cd74 2.333 . S
O77 C79 1.214 . S
O78 Cd74 2.352 . S
O78 C81 1.258 . S
C79 O76 1.320 . S
C79 O77 1.214 . S
O80 Cd72 2.277 . S
O80 C75 1.209 . S
C81 O78 1.258 . S
C81 O83 1.282 . S
O82 Cd74 2.277 . S
O82 C75 1.226 . S
O83 Cd74 2.356 . S
O83 C81 1.282 . S
C84 O85 1.306 . S
C84 O87 1.160 . S
O85 C84 1.306 . S
O85 Cd86 2.228 . S
Cd86 O85 2.228 . S
Cd86 O90 2.273 . S
Cd86 O94 2.277 . S
O87 C84 1.160 . S
O87 Cd88 2.203 . S
Cd88 O87 2.203 . S
Cd88 O90 2.411 . S
Cd88 O91 2.333 . S
Cd88 O92 2.352 . S
Cd88 O96 2.277 . S
Cd88 O97 2.356 . S
C89 O94 1.209 . S
C89 O96 1.226 . S
O90 Cd86 2.273 . S
O90 Cd88 2.411 . S
O90 C93 1.320 1_455 S
O91 Cd88 2.333 . S
O91 C93 1.214 1_455 S
O92 Cd88 2.352 . S
O92 C95 1.258 . S
C93 O90 1.320 1_655 S
C93 O91 1.214 1_655 S
O94 Cd86 2.277 . S
O94 C89 1.209 . S
C95 O92 1.258 . S
C95 O97 1.282 . S
O96 Cd88 2.277 . S
O96 C89 1.226 . S
O97 Cd88 2.356 . S
O97 C95 1.282 . S
C98 O99 1.306 . S
C98 O101 1.160 1_545 S
O99 C98 1.306 . S
O99 Cd100 2.228 1_545 S
Cd100 O99 2.228 1_565 S
Cd100 O104 2.273 . S
Cd100 O108 2.277 . S
O101 C98 1.160 1_565 S
O101 Cd102 2.203 . S
Cd102 O101 2.203 . S
Cd102 O104 2.411 . S
Cd102 O105 2.333 . S
Cd102 O106 2.352 . S
Cd102 O110 2.277 . S
Cd102 O111 2.356 . S
C103 O108 1.209 . S
C103 O110 1.226 . S
O104 Cd100 2.273 . S
O104 Cd102 2.411 . S
O104 C107 1.320 . S
O105 Cd102 2.333 . S
O105 C107 1.214 . S
O106 Cd102 2.352 . S
O106 C109 1.258 . S
C107 O104 1.320 . S
C107 O105 1.214 . S
O108 Cd100 2.277 . S
O108 C103 1.209 . S
C109 O106 1.258 . S
C109 O111 1.282 . S
O110 Cd102 2.277 . S
O110 C103 1.226 . S
O111 Cd102 2.356 . S
O111 C109 1.282 . S
C112 C113 1.369 . S
C112 C114 1.419 1_655 S
C112 H116 0.930 . S
C113 C112 1.369 . S
C113 C122 1.429 . S
C114 C112 1.419 1_455 S
C114 C115 1.363 . S
C114 H117 0.929 . S
C115 C114 1.363 . S
C115 C121 1.428 . S
H116 C112 0.930 . S
H117 C114 0.929 . S
S118 N119 1.613 1_455 S
S118 N120 1.610 . S
N119 S118 1.613 1_655 S
N119 C122 1.350 . S
N120 S118 1.610 . S
N120 C121 1.351 . S
C121 C115 1.428 . S
C121 N120 1.351 . S
C121 C122 1.434 1_455 S
C122 C113 1.429 . S
C122 N119 1.350 . S
C122 C121 1.434 1_655 S
C123 C124 1.369 . S
C123 C125 1.419 1_545 S
C123 H127 0.930 . S
C124 C123 1.369 . S
C124 C133 1.429 . S
C125 C123 1.419 1_565 S
C125 C126 1.363 . S
C125 H128 0.929 . S
C126 C125 1.363 . S
C126 C132 1.428 . S
H127 C123 0.930 . S
H128 C125 0.929 . S
S129 N130 1.613 1_565 S
S129 N131 1.610 . S
N130 S129 1.613 1_545 S
N130 C133 1.350 . S
N131 S129 1.610 . S
N131 C132 1.351 . S
C132 C126 1.428 . S
C132 N131 1.351 . S
C132 C133 1.434 1_565 S
C133 C124 1.429 . S
C133 N130 1.350 . S
C133 C132 1.434 1_545 S
C134 C135 1.369 . S
C134 C136 1.413 1_655 S
C134 H138 0.930 . S
C135 C134 1.369 . S
C135 C144 1.420 1_655 S
C136 C134 1.413 1_455 S
C136 C137 1.369 . S
C136 H139 0.929 1_455 S
C137 C136 1.369 . S
C137 C143 1.428 . S
H138 C134 0.930 . S
H139 C136 0.929 1_655 S
S140 N141 1.613 . S
S140 N142 1.610 . S
N141 S140 1.613 . S
N141 C144 1.351 . S
N142 S140 1.610 . S
N142 C143 1.351 . S
C143 C137 1.428 . S
C143 N142 1.351 . S
C143 C144 1.442 . S
C144 C135 1.420 1_455 S
C144 N141 1.351 . S
C144 C143 1.442 . S
C145 C146 1.369 . S
C145 C147 1.419 . S
C145 H149 0.930 . S
C146 C145 1.369 . S
C146 C155 1.429 1_545 S
C147 C145 1.419 . S
C147 C148 1.363 1_545 S
C147 H150 0.929 . S
C148 C147 1.363 1_565 S
C148 C154 1.428 . S
H149 C145 0.930 . S
H150 C147 0.929 . S
S151 N152 1.613 . S
S151 N153 1.610 . S
N152 S151 1.613 . S
N152 C155 1.350 . S
N153 S151 1.610 . S
N153 C154 1.351 . S
C154 C148 1.428 . S
C154 N153 1.351 . S
C154 C155 1.434 . S
C155 C146 1.429 1_565 S
C155 N152 1.350 . S
C155 C154 1.434 . S
C156 C157 1.369 . S
C156 C158 1.419 . S
C156 H160 0.930 . S
C157 C156 1.369 . S
C157 C166 1.429 . S
C158 C156 1.419 . S
C158 C159 1.363 . S
C158 H161 0.929 . S
C159 C158 1.363 . S
C159 C165 1.428 . S
H160 C156 0.930 . S
H161 C158 0.929 . S
S162 N163 1.613 . S
S162 N164 1.610 . S
N163 S162 1.613 . S
N163 C166 1.350 . S
N164 S162 1.610 . S
N164 C165 1.351 . S
C165 C159 1.428 . S
C165 N164 1.351 . S
C165 C166 1.434 . S
C166 C157 1.429 . S
C166 N163 1.350 . S
C166 C165 1.434 . S
C167 C168 1.369 . S
C167 C169 1.419 . S
C167 H171 0.930 . S
C168 C167 1.369 . S
C168 C177 1.429 . S
C169 C167 1.419 . S
C169 C170 1.363 . S
C169 H172 0.929 . S
C170 C169 1.363 . S
C170 C176 1.428 . S
H171 C167 0.930 . S
H172 C169 0.929 . S
S173 N174 1.613 . S
S173 N175 1.610 . S
N174 S173 1.613 . S
N174 C177 1.350 . S
N175 S173 1.610 . S
N175 C176 1.351 . S
C176 C170 1.428 . S
C176 N175 1.351 . S
C176 C177 1.434 . S
C177 C168 1.429 . S
C177 N174 1.350 . S
C177 C176 1.434 . S
C178 C179 1.369 . S
C178 C180 1.419 . S
C178 H182 0.930 . S
C179 C178 1.369 . S
C179 C188 1.429 . S
C180 C178 1.419 . S
C180 C181 1.363 . S
C180 H183 0.929 . S
C181 C180 1.363 . S
C181 C187 1.428 . S
H182 C178 0.930 . S
H183 C180 0.929 . S
S184 N185 1.613 . S
S184 N186 1.610 . S
N185 S184 1.613 . S
N185 C188 1.350 . S
N186 S184 1.610 . S
N186 C187 1.351 . S
C187 C181 1.428 . S
C187 N186 1.351 . S
C187 C188 1.434 . S
C188 C179 1.429 . S
C188 N185 1.350 . S
C188 C187 1.434 . S
C189 C190 1.369 . S
C189 C191 1.419 . S
C189 H193 0.930 . S
C190 C189 1.369 . S
C190 C199 1.429 . S
C191 C189 1.419 . S
C191 C192 1.363 . S
C191 H194 0.929 . S
C192 C191 1.363 . S
C192 C198 1.428 . S
H193 C189 0.930 . S
H194 C191 0.929 . S
S195 N196 1.613 . S
S195 N197 1.610 . S
N196 S195 1.613 . S
N196 C199 1.350 . S
N197 S195 1.610 . S
N197 C198 1.351 . S
C198 C192 1.428 . S
C198 N197 1.351 . S
C198 C199 1.434 . S
C199 C190 1.429 . S
C199 N196 1.350 . S
C199 C198 1.434 . S
C200 C201 1.369 1_554 S
C200 C202 1.419 . S
C200 H204 0.930 . S
C201 C200 1.369 1_556 S
C201 C210 1.429 . S
C202 C200 1.419 . S
C202 C203 1.363 . S
C202 H205 0.929 . S
C203 C202 1.363 . S
C203 C209 1.428 1_554 S
H204 C200 0.930 . S
H205 C202 0.929 . S
S206 N207 1.613 . S
S206 N208 1.610 . S
N207 S206 1.613 . S
N207 C210 1.350 . S
N208 S206 1.610 . S
N208 C209 1.351 . S
C209 C203 1.428 1_556 S
C209 N208 1.351 . S
C209 C210 1.434 . S
C210 C201 1.429 . S
C210 N207 1.350 . S
C210 C209 1.434 . S
C211 C212 1.369 . S
C211 C213 1.419 . S
C211 H215 0.930 . S
C212 C211 1.369 . S
C212 C221 1.429 1_556 S
C213 C211 1.419 . S
C213 C214 1.363 1_556 S
C213 H216 0.929 . S
C214 C213 1.363 1_554 S
C214 C220 1.428 . S
H215 C211 0.930 . S
H216 C213 0.929 . S
S217 N218 1.613 . S
S217 N219 1.610 . S
N218 S217 1.613 . S
N218 C221 1.350 . S
N219 S217 1.610 . S
N219 C220 1.351 . S
C220 C214 1.428 . S
C220 N219 1.351 . S
C220 C221 1.434 . S
C221 C212 1.429 1_554 S
C221 N218 1.350 . S
C221 C220 1.434 . S
C222 C223 1.369 . S
C222 C224 1.419 1_554 S
C222 H226 0.930 . S
C223 C222 1.369 . S
C223 C232 1.432 . S
C224 C222 1.419 1_556 S
C224 C225 1.363 . S
C224 H227 0.929 . S
C225 C224 1.363 . S
C225 C231 1.428 . S
H226 C222 0.930 . S
H227 C224 0.929 . S
S228 N229 1.613 1_556 S
S228 N230 1.610 . S
N229 S228 1.613 1_554 S
N229 C232 1.351 . S
N230 S228 1.610 . S
N230 C231 1.351 . S
C231 C225 1.428 . S
C231 N230 1.351 . S
C231 C232 1.430 1_556 S
C232 C223 1.432 . S
C232 N229 1.351 . S
C232 C231 1.430 1_554 S
C233 C234 1.369 1_554 S
C233 C235 1.419 . S
C233 H237 0.930 . S
C234 C233 1.369 1_556 S
C234 C243 1.429 . S
C235 C233 1.419 . S
C235 C236 1.363 . S
C235 H238 0.929 . S
C236 C235 1.363 . S
C236 C242 1.428 1_554 S
H237 C233 0.930 . S
H238 C235 0.929 . S
S239 N240 1.613 . S
S239 N241 1.610 1_655 S
N240 S239 1.613 . S
N240 C243 1.350 . S
N241 S239 1.610 1_455 S
N241 C242 1.351 1_455 S
C242 C236 1.428 1_556 S
C242 N241 1.351 1_655 S
C242 C243 1.434 . S
C243 C234 1.429 . S
C243 N240 1.350 . S
C243 C242 1.434 . S
C244 C245 1.369 . S
C244 C246 1.419 . S
C244 H248 0.930 . S
C245 C244 1.369 . S
C245 C254 1.429 . S
C246 C244 1.419 . S
C246 C247 1.363 . S
C246 H249 0.929 . S
C247 C246 1.363 . S
C247 C253 1.428 . S
H248 C244 0.930 . S
H249 C246 0.929 . S
S250 N251 1.613 . S
S250 N252 1.610 . S
N251 S250 1.613 . S
N251 C254 1.350 . S
N252 S250 1.610 . S
N252 C253 1.351 . S
C253 C247 1.428 . S
C253 N252 1.351 . S
C253 C254 1.434 . S
C254 C245 1.429 . S
C254 N251 1.350 . S
C254 C253 1.434 . S
C255 C256 1.369 . S
C255 C257 1.419 . S
C255 H259 0.930 . S
C256 C255 1.369 . S
C256 C265 1.429 . S
C257 C255 1.419 . S
C257 C258 1.363 . S
C257 H260 0.929 . S
C258 C257 1.363 . S
C258 C264 1.428 . S
H259 C255 0.930 . S
H260 C257 0.929 . S
S261 N262 1.613 . S
S261 N263 1.610 . S
N262 S261 1.613 . S
N262 C265 1.350 . S
N263 S261 1.610 . S
N263 C264 1.351 . S
C264 C258 1.428 . S
C264 N263 1.351 . S
C264 C265 1.434 . S
C265 C256 1.429 . S
C265 N262 1.350 . S
C265 C264 1.434 . S
C266 C267 1.369 . S
C266 C268 1.419 . S
C266 H270 0.930 . S
C267 C266 1.369 . S
C267 C276 1.429 . S
C268 C266 1.419 . S
C268 C269 1.363 . S
C268 H271 0.929 . S
C269 C268 1.363 . S
C269 C275 1.428 . S
H270 C266 0.930 . S
H271 C268 0.929 . S
S272 N273 1.613 . S
S272 N274 1.610 . S
N273 S272 1.613 . S
N273 C276 1.350 . S
N274 S272 1.610 . S
N274 C275 1.351 . S
C275 C269 1.428 . S
C275 N274 1.351 . S
C275 C276 1.434 . S
C276 C267 1.429 . S
C276 N273 1.350 . S
C276 C275 1.434 . S
C277 C278 1.369 . S
C277 C279 1.419 . S
C277 H281 0.930 . S
C278 C277 1.369 . S
C278 C287 1.429 . S
C279 C277 1.419 . S
C279 C280 1.363 . S
C279 H282 0.929 . S
C280 C279 1.363 . S
C280 C286 1.428 . S
H281 C277 0.930 . S
H282 C279 0.929 . S
S283 N284 1.613 . S
S283 N285 1.610 . S
N284 S283 1.613 . S
N284 C287 1.350 . S
N285 S283 1.610 . S
N285 C286 1.351 . S
C286 C280 1.428 . S
C286 N285 1.351 . S
C286 C287 1.434 . S
C287 C278 1.429 . S
C287 N284 1.350 . S
C287 C286 1.434 . S
C113 C39 1.549 . S
C115 C11 1.549 . S
C124 C53 1.608 . S
C126 C25 1.609 . S
C135 C67 1.608 . S
C137 C95 1.610 . S
C146 C81 1.545 . S
C148 C109 1.552 . S
C157 C23 1.239 . S
C159 C5 1.217 . S
C168 C19 1.254 . S
C170 C28 1.309 . S
C179 C51 1.243 . S
C181 C33 1.218 . S
C190 C47 1.247 . S
C192 C0 1.308 . S
C201 C98 1.309 . S
C203 C61 1.247 . S
C212 C75 1.216 . S
C214 C65 1.244 . S
C223 C89 1.256 . S
C225 C70 1.309 . S
C234 C103 1.218 . S
C236 C93 1.239 . S
C245 C9 1.654 . S
C247 C79 1.655 . S
C256 C84 1.625 . S
C258 C14 1.629 . S
C267 C37 1.656 . S
C269 C107 1.654 . S
C278 C42 1.626 . S
C280 C56 1.631 . S
