# Generated by pormake.
# Topology pcl, (4)-cn, num edge types: 1
# Building blocks:
#     Node 0, Type 0, BuildingBlock: GALJAG_clean_sbu_0, # of connection points: 4
#     Node 1, Type 0, BuildingBlock: GALJAG_clean_sbu_0, # of connection points: 4
#     Node 2, Type 0, BuildingBlock: GALJAG_clean_sbu_0, # of connection points: 4
#     Node 3, Type 0, BuildingBlock: GALJAG_clean_sbu_0, # of connection points: 4
#     Node 4, Type 0, BuildingBlock: GALJAG_clean_sbu_0, # of connection points: 4
#     Node 5, Type 0, BuildingBlock: GALJAG_clean_sbu_0, # of connection points: 4
#     Node 6, Type 0, BuildingBlock: GALJAG_clean_sbu_0, # of connection points: 4
#     Node 7, Type 0, BuildingBlock: GALJAG_clean_sbu_0, # of connection points: 4
#     Node 8, Type 0, BuildingBlock: GALJAG_clean_sbu_0, # of connection points: 4
#     Node 9, Type 0, BuildingBlock: GALJAG_clean_sbu_0, # of connection points: 4
#     Node 10, Type 0, BuildingBlock: GALJAG_clean_sbu_0, # of connection points: 4
#     Node 11, Type 0, BuildingBlock: GALJAG_clean_sbu_0, # of connection points: 4
#     Node 12, Type 0, BuildingBlock: GALJAG_clean_sbu_0, # of connection points: 4
#     Node 13, Type 0, BuildingBlock: GALJAG_clean_sbu_0, # of connection points: 4
#     Node 14, Type 0, BuildingBlock: GALJAG_clean_sbu_0, # of connection points: 4
#     Node 15, Type 0, BuildingBlock: GALJAG_clean_sbu_0, # of connection points: 4
#     Edge 16, Type (0, 0), BuildingBlock: XIVTED_clean_linker_0, # of connection points: 2
#     Edge 17, Type (0, 0), BuildingBlock: XIVTED_clean_linker_0, # of connection points: 2
#     Edge 18, Type (0, 0), BuildingBlock: XIVTED_clean_linker_0, # of connection points: 2
#     Edge 19, Type (0, 0), BuildingBlock: XIVTED_clean_linker_0, # of connection points: 2
#     Edge 20, Type (0, 0), BuildingBlock: XIVTED_clean_linker_0, # of connection points: 2
#     Edge 21, Type (0, 0), BuildingBlock: XIVTED_clean_linker_0, # of connection points: 2
#     Edge 22, Type (0, 0), BuildingBlock: XIVTED_clean_linker_0, # of connection points: 2
#     Edge 23, Type (0, 0), BuildingBlock: XIVTED_clean_linker_0, # of connection points: 2
#     Edge 24, Type (0, 0), BuildingBlock: XIVTED_clean_linker_0, # of connection points: 2
#     Edge 25, Type (0, 0), BuildingBlock: XIVTED_clean_linker_0, # of connection points: 2
#     Edge 26, Type (0, 0), BuildingBlock: XIVTED_clean_linker_0, # of connection points: 2
#     Edge 27, Type (0, 0), BuildingBlock: XIVTED_clean_linker_0, # of connection points: 2
#     Edge 28, Type (0, 0), BuildingBlock: XIVTED_clean_linker_0, # of connection points: 2
#     Edge 29, Type (0, 0), BuildingBlock: XIVTED_clean_linker_0, # of connection points: 2
#     Edge 30, Type (0, 0), BuildingBlock: XIVTED_clean_linker_0, # of connection points: 2
#     Edge 31, Type (0, 0), BuildingBlock: XIVTED_clean_linker_0, # of connection points: 2
#     Edge 32, Type (0, 0), BuildingBlock: XIVTED_clean_linker_0, # of connection points: 2
#     Edge 33, Type (0, 0), BuildingBlock: XIVTED_clean_linker_0, # of connection points: 2
#     Edge 34, Type (0, 0), BuildingBlock: XIVTED_clean_linker_0, # of connection points: 2
#     Edge 35, Type (0, 0), BuildingBlock: XIVTED_clean_linker_0, # of connection points: 2
#     Edge 36, Type (0, 0), BuildingBlock: XIVTED_clean_linker_0, # of connection points: 2
#     Edge 37, Type (0, 0), BuildingBlock: XIVTED_clean_linker_0, # of connection points: 2
#     Edge 38, Type (0, 0), BuildingBlock: XIVTED_clean_linker_0, # of connection points: 2
#     Edge 39, Type (0, 0), BuildingBlock: XIVTED_clean_linker_0, # of connection points: 2
#     Edge 40, Type (0, 0), BuildingBlock: XIVTED_clean_linker_0, # of connection points: 2
#     Edge 41, Type (0, 0), BuildingBlock: XIVTED_clean_linker_0, # of connection points: 2
#     Edge 42, Type (0, 0), BuildingBlock: XIVTED_clean_linker_0, # of connection points: 2
#     Edge 43, Type (0, 0), BuildingBlock: XIVTED_clean_linker_0, # of connection points: 2
#     Edge 44, Type (0, 0), BuildingBlock: XIVTED_clean_linker_0, # of connection points: 2
#     Edge 45, Type (0, 0), BuildingBlock: XIVTED_clean_linker_0, # of connection points: 2
#     Edge 46, Type (0, 0), BuildingBlock: XIVTED_clean_linker_0, # of connection points: 2
#     Edge 47, Type (0, 0), BuildingBlock: XIVTED_clean_linker_0, # of connection points: 2
# Relax obj value: 0.122
# Max RMSD: 0.108
# Mean RMSD: 0.092
data_MOF--net-pcl--node1-GALJAG_clean_sbu_0--edge1-XIVTED_clean_linker_0
_symmetry_space_group_name_H-M    P1
_symmetry_Int_Tables_number       1
_symmetry_cell_setting            triclinic
loop_
_symmetry_equiv_pos_as_xyz
'x, y, z'
_cell_length_a     53.404283
_cell_length_b     40.219109
_cell_length_c     43.907142
_cell_angle_alpha  89.983627
_cell_angle_beta   90.019481
_cell_angle_gamma 89.959887
loop_
_atom_site_label
_atom_site_type_symbol
_atom_site_fract_x
_atom_site_fract_y
_atom_site_fract_z
_atom_type_partial_charge
In0 In 0.10372 0.3262 0.06883 0.0
O1 O 0.11986 0.28113 0.04348 0.0
O2 O 0.14032 0.32644 0.0429 0.0
C3 C 0.05631 0.30373 0.07553 0.0
C4 C 0.12796 0.32495 0.12261 0.0
C5 C 0.0936 0.38609 0.04415 0.0
O6 O 0.06814 0.30086 0.05081 0.0
O7 O 0.06866 0.31679 0.09682 0.0
O8 O 0.09627 0.38185 0.07241 0.0
O9 O 0.0958 0.36007 0.02836 0.0
C10 C 0.13912 0.29653 0.03455 0.0
O11 O 0.12518 0.35112 0.10712 0.0
O12 O 0.11849 0.29912 0.11095 0.0
In13 In 0.8902 0.66683 0.57752 0.0
O14 O 0.87408 0.71076 0.5504 0.0
O15 O 0.85314 0.66588 0.55271 0.0
C16 C 0.93829 0.68585 0.5852 0.0
C17 C 0.86757 0.67147 0.63218 0.0
C18 C 0.89909 0.60789 0.5505 0.0
O19 O 0.92535 0.69576 0.5629 0.0
O20 O 0.92673 0.66751 0.60371 0.0
O21 O 0.89346 0.61038 0.5783 0.0
O22 O 0.90041 0.63514 0.53638 0.0
C23 C 0.85452 0.69517 0.5427 0.0
O24 O 0.86895 0.64469 0.61734 0.0
O25 O 0.87761 0.69627 0.61941 0.0
In26 In 0.10749 0.67106 0.92507 0.0
O27 O 0.13056 0.64824 0.88707 0.0
O28 O 0.12122 0.69949 0.88316 0.0
C29 C 0.09722 0.61098 0.94917 0.0
C30 C 0.14206 0.70023 0.96091 0.0
C31 C 0.05975 0.69165 0.91719 0.0
O32 O 0.1022 0.61506 0.92136 0.0
O33 O 0.09737 0.63722 0.96488 0.0
O34 O 0.07192 0.69802 0.94113 0.0
O35 O 0.07196 0.67614 0.89718 0.0
C36 C 0.13207 0.67458 0.8716 0.0
O37 O 0.12318 0.71588 0.95114 0.0
O38 O 0.14329 0.67029 0.95264 0.0
In39 In 0.88964 0.32756 0.42124 0.0
O40 O 0.86805 0.35001 0.38178 0.0
O41 O 0.87648 0.29834 0.37958 0.0
C42 C 0.8982 0.38645 0.44845 0.0
C43 C 0.85427 0.29794 0.45549 0.0
C44 C 0.93785 0.30928 0.41299 0.0
O45 O 0.8926 0.38402 0.42063 0.0
O46 O 0.89956 0.35916 0.46252 0.0
O47 O 0.92542 0.29996 0.43591 0.0
O48 O 0.92571 0.32657 0.39416 0.0
C49 C 0.86631 0.32319 0.36703 0.0
O50 O 0.87379 0.28266 0.44712 0.0
O51 O 0.8529 0.32769 0.4467 0.0
In52 In 0.82533 0.66015 0.9115 0.0
O53 O 0.80775 0.69347 0.94773 0.0
O54 O 0.78448 0.67666 0.91162 0.0
C55 C 0.87442 0.67545 0.91416 0.0
C56 C 0.82205 0.60143 0.94112 0.0
C57 C 0.82074 0.66862 0.85109 0.0
O58 O 0.85792 0.69441 0.92529 0.0
O59 O 0.86613 0.64904 0.90252 0.0
O60 O 0.81668 0.64102 0.86398 0.0
O61 O 0.82622 0.69223 0.86888 0.0
C62 C 0.78618 0.69293 0.93605 0.0
O63 O 0.8174 0.60414 0.91305 0.0
O64 O 0.82825 0.62815 0.95401 0.0
In65 In 0.17292 0.34086 0.40022 0.0
O66 O 0.17883 0.39678 0.40581 0.0
O67 O 0.16904 0.36867 0.44506 0.0
C68 C 0.17892 0.33383 0.3397 0.0
C69 C 0.21288 0.3079 0.42228 0.0
C70 C 0.12362 0.32666 0.40293 0.0
O71 O 0.18067 0.36166 0.35287 0.0
O72 O 0.1751 0.30949 0.35724 0.0
O73 O 0.13954 0.31046 0.41825 0.0
O74 O 0.13261 0.34982 0.38702 0.0
C75 C 0.17431 0.39676 0.43404 0.0
O76 O 0.1909 0.29643 0.42408 0.0
O77 O 0.21463 0.33559 0.40897 0.0
In78 In 0.82188 0.32981 0.08941 0.0
O79 O 0.81704 0.38606 0.08653 0.0
O80 O 0.82572 0.3601 0.04574 0.0
C81 C 0.81543 0.32283 0.14989 0.0
C82 C 0.78206 0.29703 0.06671 0.0
C83 C 0.87094 0.31418 0.08551 0.0
O84 O 0.8132 0.35045 0.13647 0.0
O85 O 0.81994 0.29848 0.13259 0.0
O86 O 0.85483 0.30106 0.06821 0.0
O87 O 0.86229 0.3351 0.10407 0.0
C88 C 0.82114 0.38765 0.05828 0.0
O89 O 0.80388 0.28494 0.06632 0.0
O90 O 0.78034 0.32527 0.07898 0.0
In91 In 0.17384 0.6606 0.59355 0.0
O92 O 0.17954 0.60462 0.58801 0.0
O93 O 0.16974 0.63279 0.54876 0.0
C94 C 0.18054 0.66836 0.65387 0.0
C95 C 0.21366 0.69297 0.5706 0.0
C96 C 0.1244 0.674 0.59198 0.0
O97 O 0.18274 0.6405 0.64084 0.0
O98 O 0.17589 0.69241 0.63626 0.0
O99 O 0.13994 0.69097 0.57679 0.0
O100 O 0.13385 0.65056 0.60716 0.0
C101 C 0.17494 0.60466 0.55979 0.0
O102 O 0.19163 0.70424 0.56825 0.0
O103 O 0.21549 0.66591 0.58493 0.0
In104 In 0.60375 0.82405 0.07439 0.0
O105 O 0.62735 0.8504 0.11037 0.0
O106 O 0.61891 0.79925 0.11719 0.0
C107 C 0.59567 0.88393 0.0491 0.0
C108 C 0.63705 0.79079 0.03949 0.0
C109 C 0.55563 0.80513 0.08318 0.0
O110 O 0.60368 0.88054 0.076 0.0
O111 O 0.59176 0.85707 0.03498 0.0
O112 O 0.56791 0.79628 0.06004 0.0
O113 O 0.56785 0.8223 0.10194 0.0
C114 C 0.6296 0.82505 0.12711 0.0
O115 O 0.62515 0.77692 0.06077 0.0
O116 O 0.63178 0.82095 0.03542 0.0
In117 In 0.39059 0.17092 0.56765 0.0
O118 O 0.37412 0.21539 0.54174 0.0
O119 O 0.35424 0.16963 0.54116 0.0
C120 C 0.43818 0.19238 0.57505 0.0
C121 C 0.36656 0.17392 0.62148 0.0
C122 C 0.40107 0.11105 0.54325 0.0
O123 O 0.42608 0.19747 0.5508 0.0
O124 O 0.42598 0.17776 0.5956 0.0
O125 O 0.39604 0.11495 0.57108 0.0
O126 O 0.40086 0.13739 0.52767 0.0
C127 C 0.3551 0.19953 0.53271 0.0
O128 O 0.36915 0.14731 0.60661 0.0
O129 O 0.37615 0.19932 0.60918 0.0
In130 In 0.6037 0.16416 0.91962 0.0
O131 O 0.62477 0.14064 0.88027 0.0
O132 O 0.61837 0.19286 0.87845 0.0
C133 C 0.59441 0.10504 0.94622 0.0
C134 C 0.63912 0.19347 0.954 0.0
C135 C 0.55605 0.18498 0.91127 0.0
O136 O 0.59857 0.10793 0.91808 0.0
O137 O 0.59473 0.13198 0.96089 0.0
O138 O 0.56814 0.19154 0.93522 0.0
O139 O 0.56823 0.169 0.89156 0.0
C140 C 0.62764 0.16747 0.86578 0.0
O141 O 0.61951 0.20872 0.94589 0.0
O142 O 0.64063 0.16388 0.94479 0.0
In143 In 0.39528 0.82445 0.42777 0.0
O144 O 0.37746 0.78051 0.45307 0.0
O145 O 0.35721 0.82591 0.45042 0.0
C146 C 0.44213 0.79879 0.42478 0.0
C147 C 0.37303 0.82492 0.37276 0.0
C148 C 0.40542 0.88422 0.45258 0.0
O149 O 0.43021 0.80116 0.44944 0.0
O150 O 0.43014 0.80826 0.40165 0.0
O151 O 0.40496 0.87959 0.42417 0.0
O152 O 0.40101 0.85871 0.46835 0.0
C153 C 0.35779 0.79635 0.45982 0.0
O154 O 0.37782 0.85113 0.38745 0.0
O155 O 0.37971 0.79826 0.3857 0.0
In156 In 0.32144 0.15955 0.89893 0.0
O157 O 0.31636 0.1035 0.90502 0.0
O158 O 0.3258 0.13228 0.94397 0.0
C159 C 0.31501 0.16544 0.83834 0.0
C160 C 0.28156 0.19256 0.92112 0.0
C161 C 0.37055 0.17479 0.90168 0.0
O162 O 0.31319 0.1379 0.852 0.0
O163 O 0.31908 0.19008 0.85543 0.0
O164 O 0.35447 0.19017 0.91741 0.0
O165 O 0.36182 0.1519 0.88523 0.0
C166 C 0.32093 0.10394 0.93324 0.0
O167 O 0.30341 0.20454 0.92172 0.0
O168 O 0.27982 0.16432 0.90881 0.0
In169 In 0.67359 0.83053 0.404 0.0
O170 O 0.66651 0.88676 0.4065 0.0
O171 O 0.67868 0.86193 0.4465 0.0
C172 C 0.68133 0.83238 0.34351 0.0
C173 C 0.71435 0.79767 0.42414 0.0
C174 C 0.62663 0.80581 0.4117 0.0
O175 O 0.67821 0.85845 0.35915 0.0
O176 O 0.68151 0.80565 0.35864 0.0
O177 O 0.63598 0.81215 0.38612 0.0
O178 O 0.64106 0.81138 0.4338 0.0
C179 C 0.67235 0.88898 0.43428 0.0
O180 O 0.6927 0.78507 0.42472 0.0
O181 O 0.71547 0.82636 0.41264 0.0
In182 In 0.32154 0.84277 0.09667 0.0
O183 O 0.31559 0.89856 0.08998 0.0
O184 O 0.32639 0.86981 0.05155 0.0
C185 C 0.31621 0.83773 0.15748 0.0
C186 C 0.28147 0.80962 0.07522 0.0
C187 C 0.37053 0.8268 0.0939 0.0
O188 O 0.31496 0.86524 0.14366 0.0
O189 O 0.31898 0.81273 0.14043 0.0
O190 O 0.35429 0.81129 0.07852 0.0
O191 O 0.36203 0.85026 0.10985 0.0
C192 C 0.32079 0.89807 0.06193 0.0
O193 O 0.30337 0.79778 0.07417 0.0
O194 O 0.27978 0.83783 0.08759 0.0
In195 In 0.67204 0.15678 0.58834 0.0
O196 O 0.67866 0.10108 0.5833 0.0
O197 O 0.66429 0.1272 0.54502 0.0
C198 C 0.67887 0.16187 0.64891 0.0
C199 C 0.71209 0.18885 0.56524 0.0
C200 C 0.62326 0.1741 0.58627 0.0
O201 O 0.67939 0.13436 0.63507 0.0
O202 O 0.67584 0.18695 0.632 0.0
O203 O 0.63926 0.18717 0.56876 0.0
O204 O 0.63189 0.1524 0.60412 0.0
C205 C 0.67136 0.09978 0.55599 0.0
O206 O 0.69046 0.20155 0.56541 0.0
O207 O 0.71348 0.16035 0.57703 0.0
H208 H 0.02793 0.3074 0.12685 0.0
H209 H 0.89721 0.28143 0.04072 0.0
H210 H 0.02329 0.28387 0.03113 0.0
H211 H 0.90587 0.32863 0.12832 0.0
H212 H 0.94272 0.27186 0.03923 0.0
H213 H 0.98249 0.30374 0.13037 0.0
C214 C 0.01735 0.30102 0.10663 0.0
C215 C 0.02935 0.29633 0.07857 0.0
C216 C 0.93455 0.28409 0.05882 0.0
C217 C 0.97722 0.29247 0.08236 0.0
C218 C 0.90866 0.2895 0.05969 0.0
C219 C 0.89788 0.30614 0.08453 0.0
C220 C 0.94955 0.29504 0.08315 0.0
C221 C 0.91345 0.31604 0.10857 0.0
C222 C 0.99138 0.29907 0.10862 0.0
C223 C 0.01471 0.28787 0.05316 0.0
N224 N 0.93845 0.3104 0.10725 0.0
N225 N 0.98932 0.28655 0.05557 0.0
H226 H 0.97005 0.71623 0.54443 0.0
H227 H 0.09059 0.64942 0.63199 0.0
H228 H 0.96844 0.66849 0.63243 0.0
H229 H 0.09645 0.71366 0.5536 0.0
H230 H 0.04556 0.65789 0.63238 0.0
H231 H 0.01598 0.71818 0.54738 0.0
C232 C 0.97932 0.70665 0.56454 0.0
C233 C 0.96546 0.69188 0.5881 0.0
C234 C 0.05659 0.67038 0.61514 0.0
C235 C 0.01775 0.69369 0.59146 0.0
C236 C 0.08235 0.66542 0.61484 0.0
C237 C 0.09723 0.68068 0.59259 0.0
C238 C 0.04541 0.69046 0.59278 0.0
C239 C 0.08557 0.70138 0.5711 0.0
C240 C 0.0055 0.70769 0.56618 0.0
C241 C 0.97837 0.67983 0.61362 0.0
N242 N 0.06023 0.70544 0.57151 0.0
N243 N 0.00374 0.68071 0.61447 0.0
H244 H 0.90027 0.72046 0.94943 0.0
H245 H 0.03045 0.67831 0.86808 0.0
H246 H 0.90969 0.64872 0.87729 0.0
H247 H 0.02725 0.71835 0.95919 0.0
H248 H 0.98489 0.67985 0.86566 0.0
H249 H 0.94574 0.73091 0.94842 0.0
C250 C 0.91187 0.70713 0.9333 0.0
C251 C 0.90134 0.68348 0.91361 0.0
C252 C 0.99414 0.68861 0.88609 0.0
C253 C 0.95283 0.69566 0.91197 0.0
C254 C 0.02016 0.68789 0.88745 0.0
C255 C 0.03262 0.69782 0.91403 0.0
C256 C 0.98039 0.69937 0.91148 0.0
C257 C 0.01831 0.71024 0.93834 0.0
C258 C 0.93771 0.71306 0.93277 0.0
C259 C 0.91709 0.66689 0.89309 0.0
N260 N 0.99285 0.71039 0.93662 0.0
N261 N 0.94199 0.67333 0.89279 0.0
H262 H 0.08888 0.34962 0.36316 0.0
H263 H 0.97064 0.28124 0.454 0.0
H264 H 0.09681 0.28719 0.44252 0.0
H265 H 0.9671 0.32602 0.36478 0.0
H266 H 0.01656 0.28078 0.45037 0.0
H267 H 0.044 0.3398 0.3637 0.0
C268 C 0.08113 0.33375 0.38073 0.0
C269 C 0.09654 0.31937 0.40296 0.0
C270 C 0.00567 0.29027 0.43146 0.0
C271 C 0.04492 0.30803 0.40383 0.0
C272 C 0.9795 0.29046 0.43348 0.0
C273 C 0.96509 0.30398 0.40976 0.0
C274 C 0.01735 0.30389 0.40563 0.0
C275 C 0.97747 0.31563 0.38372 0.0
C276 C 0.05546 0.328 0.38095 0.0
C277 C 0.08551 0.29879 0.42501 0.0
N278 N 0.00283 0.31562 0.3825 0.0
N279 N 0.06025 0.29396 0.42509 0.0
H280 H 0.4055 0.84712 0.1345 0.0
H281 H 0.52253 0.77846 0.04187 0.0
H282 H 0.39662 0.7873 0.05367 0.0
H283 H 0.52683 0.82022 0.13223 0.0
H284 H 0.47665 0.7785 0.04583 0.0
H285 H 0.45016 0.83556 0.134 0.0
C286 C 0.413 0.83146 0.11662 0.0
C287 C 0.39741 0.81836 0.09394 0.0
C288 C 0.4877 0.78718 0.06492 0.0
C289 C 0.44875 0.80504 0.0931 0.0
C290 C 0.51385 0.78707 0.06271 0.0
C291 C 0.52845 0.79969 0.08664 0.0
C292 C 0.47624 0.80019 0.09116 0.0
C293 C 0.5163 0.81058 0.11311 0.0
C294 C 0.43853 0.8247 0.11642 0.0
C295 C 0.40809 0.79795 0.0715 0.0
N296 N 0.49094 0.8109 0.11451 0.0
N297 N 0.43323 0.79217 0.07144 0.0
H298 H 0.58895 0.15971 0.62978 0.0
H299 H 0.47096 0.21503 0.5315 0.0
H300 H 0.59666 0.20853 0.54279 0.0
H301 H 0.46714 0.18367 0.62538 0.0
H302 H 0.5168 0.21648 0.5354 0.0
H303 H 0.54422 0.17107 0.62881 0.0
C304 C 0.58119 0.17296 0.61047 0.0
C305 C 0.59646 0.18295 0.58619 0.0
C306 C 0.50588 0.20977 0.55524 0.0
C307 C 0.54505 0.19593 0.58479 0.0
C308 C 0.47974 0.20903 0.55306 0.0
C309 C 0.46528 0.19887 0.57807 0.0
C310 C 0.5175 0.20006 0.58256 0.0
C311 C 0.47757 0.19135 0.60544 0.0
C312 C 0.55562 0.17959 0.60997 0.0
C313 C 0.58546 0.20033 0.5619 0.0
N314 N 0.50293 0.19174 0.60683 0.0
N315 N 0.5603 0.20596 0.56163 0.0
H316 H 0.52762 0.17499 0.86076 0.0
H317 H 0.39686 0.21239 0.94312 0.0
H318 H 0.52305 0.21013 0.95345 0.0
H319 H 0.40556 0.15469 0.86097 0.0
H320 H 0.44243 0.22152 0.94398 0.0
H321 H 0.4822 0.17837 0.85685 0.0
C322 C 0.51705 0.18382 0.88021 0.0
C323 C 0.52907 0.19191 0.9076 0.0
C324 C 0.43426 0.20707 0.92571 0.0
C325 C 0.47695 0.19548 0.90339 0.0
C326 C 0.40833 0.2019 0.92518 0.0
C327 C 0.39754 0.1825 0.9021 0.0
C328 C 0.44927 0.19305 0.90276 0.0
C329 C 0.41315 0.16951 0.87937 0.0
C330 C 0.49109 0.18562 0.878 0.0
C331 C 0.51445 0.20347 0.93198 0.0
N332 N 0.43817 0.17498 0.88031 0.0
N333 N 0.48905 0.20459 0.92942 0.0
H334 H 0.47032 0.78722 0.37412 0.0
H335 H 0.59954 0.79889 0.46444 0.0
H336 H 0.47489 0.79044 0.47218 0.0
H337 H 0.59364 0.7898 0.36679 0.0
H338 H 0.55439 0.78891 0.46859 0.0
H339 H 0.5157 0.78085 0.37168 0.0
C340 C 0.48087 0.78611 0.39517 0.0
C341 C 0.46889 0.7897 0.42337 0.0
C342 C 0.56304 0.78867 0.4463 0.0
C343 C 0.52094 0.78294 0.4208 0.0
C344 C 0.5888 0.79432 0.44394 0.0
C345 C 0.60025 0.79556 0.41521 0.0
C346 C 0.54871 0.78434 0.41972 0.0
C347 C 0.58551 0.78941 0.38938 0.0
C348 C 0.50681 0.78253 0.39379 0.0
C349 C 0.48344 0.78791 0.44995 0.0
N350 N 0.5605 0.7844 0.39223 0.0
N351 N 0.50878 0.78512 0.44801 0.0
H352 H 0.14974 0.3775 0.15155 0.0
H353 H 0.17202 0.27722 0.30635 0.0
H354 H 0.13438 0.27279 0.16199 0.0
H355 H 0.18316 0.38299 0.29699 0.0
H356 H 0.16399 0.27356 0.25165 0.0
H357 H 0.16741 0.37844 0.20283 0.0
C358 C 0.15025 0.35463 0.16458 0.0
C359 C 0.14036 0.32508 0.15265 0.0
C360 C 0.16848 0.29751 0.26148 0.0
C361 C 0.16051 0.32599 0.21141 0.0
C362 C 0.17316 0.29961 0.29269 0.0
C363 C 0.17802 0.33052 0.30624 0.0
C364 C 0.16859 0.32657 0.24373 0.0
C365 C 0.17933 0.35869 0.28748 0.0
C366 C 0.16035 0.35518 0.19386 0.0
C367 C 0.14165 0.29615 0.17043 0.0
N368 N 0.17438 0.35609 0.25722 0.0
N369 N 0.15136 0.29739 0.19904 0.0
H370 H 0.8432 0.62191 0.66235 0.0
H371 H 0.83285 0.72393 0.81795 0.0
H372 H 0.86583 0.7244 0.67148 0.0
H373 H 0.81159 0.62098 0.80819 0.0
H374 H 0.84025 0.72681 0.76304 0.0
H375 H 0.82706 0.62322 0.71429 0.0
C376 C 0.84462 0.64479 0.67525 0.0
C377 C 0.85608 0.67301 0.66271 0.0
C378 C 0.8337 0.70369 0.77285 0.0
C379 C 0.83771 0.67467 0.72231 0.0
C380 C 0.8294 0.70206 0.80418 0.0
C381 C 0.82181 0.67208 0.81765 0.0
C382 C 0.83046 0.67509 0.75492 0.0
C383 C 0.81758 0.64454 0.79876 0.0
C384 C 0.83538 0.64553 0.70492 0.0
C385 C 0.85726 0.70203 0.68037 0.0
N386 N 0.82219 0.64663 0.7684 0.0
N387 N 0.84838 0.70204 0.70939 0.0
H388 H 0.15658 0.62404 0.84286 0.0
H389 H 0.17197 0.72469 0.68708 0.0
H390 H 0.1356 0.72699 0.83195 0.0
H391 H 0.18749 0.6199 0.69672 0.0
H392 H 0.16475 0.72821 0.74196 0.0
H393 H 0.17378 0.62427 0.79137 0.0
C394 C 0.15578 0.6468 0.82969 0.0
C395 C 0.14442 0.67546 0.84155 0.0
C396 C 0.17003 0.70453 0.73214 0.0
C397 C 0.164 0.67587 0.78252 0.0
C398 C 0.17425 0.70252 0.70083 0.0
C399 C 0.18009 0.67187 0.68732 0.0
C400 C 0.17161 0.67565 0.75003 0.0
C401 C 0.18285 0.64398 0.70619 0.0
C402 C 0.1656 0.64691 0.80028 0.0
C403 C 0.14404 0.70429 0.82357 0.0
N404 N 0.17834 0.64647 0.73656 0.0
N405 N 0.1535 0.70369 0.79483 0.0
H406 H 0.8251 0.26747 0.18416 0.0
H407 H 0.84227 0.37311 0.3368 0.0
H408 H 0.80824 0.37209 0.19177 0.0
H409 H 0.86245 0.26956 0.32886 0.0
H410 H 0.82456 0.37119 0.2856 0.0
H411 H 0.83319 0.26563 0.23896 0.0
C412 C 0.8227 0.28993 0.19745 0.0
C413 C 0.81624 0.32007 0.18338 0.0
C414 C 0.83269 0.3488 0.29509 0.0
C415 C 0.82574 0.31823 0.24596 0.0
C416 C 0.84284 0.34989 0.32432 0.0
C417 C 0.85407 0.32153 0.33694 0.0
C418 C 0.83387 0.31915 0.27825 0.0
C419 C 0.85411 0.29205 0.31986 0.0
C420 C 0.82742 0.28889 0.22871 0.0
C421 C 0.81336 0.34839 0.20167 0.0
N422 N 0.84435 0.29169 0.29126 0.0
N423 N 0.81838 0.34685 0.23196 0.0
H424 H 0.67763 0.886 0.30528 0.0
H425 H 0.64156 0.77251 0.16362 0.0
H426 H 0.68367 0.779 0.30531 0.0
H427 H 0.64707 0.87936 0.15804 0.0
H428 H 0.65991 0.77454 0.21451 0.0
H429 H 0.66987 0.88457 0.25036 0.0
C430 C 0.67776 0.86226 0.29363 0.0
C431 C 0.68103 0.83254 0.30989 0.0
C432 C 0.65736 0.79755 0.20209 0.0
C433 C 0.67182 0.83067 0.24725 0.0
C434 C 0.64682 0.79639 0.17305 0.0
C435 C 0.6426 0.82583 0.15675 0.0
C436 C 0.66345 0.82842 0.21509 0.0
C437 C 0.64991 0.85608 0.16994 0.0
C438 C 0.67327 0.86144 0.2623 0.0
C439 C 0.68105 0.80249 0.29369 0.0
N440 N 0.65973 0.85665 0.19851 0.0
N441 N 0.67617 0.80229 0.26334 0.0
H442 H 0.30916 0.1157 0.7965 0.0
H443 H 0.35985 0.22743 0.65921 0.0
H444 H 0.32332 0.221 0.80398 0.0
H445 H 0.34521 0.12221 0.65213 0.0
H446 H 0.34202 0.227 0.71057 0.0
H447 H 0.31726 0.11906 0.74181 0.0
C448 C 0.3136 0.13962 0.78654 0.0
C449 C 0.31582 0.16805 0.80482 0.0
C450 C 0.34252 0.20406 0.69768 0.0
C451 C 0.32545 0.17203 0.74236 0.0
C452 C 0.35271 0.2043 0.66839 0.0
C453 C 0.35422 0.17476 0.65155 0.0
C454 C 0.33387 0.17401 0.71021 0.0
C455 C 0.34458 0.14552 0.66444 0.0
C456 C 0.31831 0.14152 0.75533 0.0
C457 C 0.32156 0.19843 0.79073 0.0
N458 N 0.335 0.14584 0.69307 0.0
N459 N 0.32646 0.19955 0.76039 0.0
H460 H 0.63497 0.22157 0.82896 0.0
H461 H 0.68429 0.1114 0.69002 0.0
H462 H 0.64844 0.11592 0.83431 0.0
H463 H 0.67144 0.21714 0.68403 0.0
H464 H 0.67638 0.11398 0.74473 0.0
H465 H 0.65286 0.22182 0.77764 0.0
C466 C 0.64187 0.19849 0.81941 0.0
C467 C 0.64 0.16863 0.83575 0.0
C468 C 0.67558 0.13672 0.73155 0.0
C469 C 0.66042 0.16867 0.77713 0.0
C470 C 0.68018 0.13526 0.70032 0.0
C471 C 0.67826 0.16404 0.68245 0.0
C472 C 0.66883 0.16715 0.74497 0.0
C473 C 0.67296 0.19431 0.69697 0.0
C474 C 0.65209 0.19863 0.79014 0.0
C475 C 0.64933 0.13946 0.8224 0.0
N476 N 0.66813 0.19502 0.72735 0.0
N477 N 0.65896 0.14017 0.79379 0.0
H478 H 0.31488 0.88835 0.19902 0.0
H479 H 0.36156 0.77227 0.33578 0.0
H480 H 0.3225 0.7818 0.19198 0.0
H481 H 0.35664 0.87921 0.34121 0.0
H482 H 0.34285 0.77453 0.28493 0.0
H483 H 0.325 0.8847 0.25321 0.0
C484 C 0.31829 0.86412 0.20899 0.0
C485 C 0.31807 0.83536 0.19095 0.0
C486 C 0.34573 0.79749 0.29732 0.0
C487 C 0.33001 0.83102 0.25281 0.0
C488 C 0.35644 0.7962 0.32631 0.0
C489 C 0.36084 0.82561 0.34259 0.0
C490 C 0.3394 0.82842 0.28453 0.0
C491 C 0.35373 0.85594 0.32934 0.0
C492 C 0.32418 0.86206 0.2399 0.0
C493 C 0.32261 0.80462 0.20505 0.0
N494 N 0.34349 0.85657 0.30103 0.0
N495 N 0.32865 0.80329 0.23508 0.0
H496 H 0.27984 0.25466 0.94623 0.0
H497 H 0.14069 0.23341 0.0109 0.0
H498 H 0.23416 0.16835 0.92845 0.0
H499 H 0.18291 0.32468 0.01623 0.0
H500 H 0.17474 0.20858 0.98113 0.0
H501 H 0.24444 0.28053 0.97232 0.0
C502 C 0.2623 0.24124 0.94768 0.0
C503 C 0.25992 0.20932 0.93524 0.0
C504 C 0.17648 0.23408 0.98873 0.0
C505 C 0.21938 0.23858 0.96526 0.0
C506 C 0.15709 0.2482 0.00575 0.0
C507 C 0.15904 0.28108 0.01609 0.0
C508 C 0.19797 0.25296 0.98222 0.0
C509 C 0.18065 0.29921 0.00875 0.0
C510 C 0.24209 0.256 0.96257 0.0
C511 C 0.23677 0.19303 0.93774 0.0
N512 N 0.1993 0.28487 0.99239 0.0
N513 N 0.21742 0.20777 0.95264 0.0
H514 H 0.81073 0.66605 0.5258 0.0
H515 H 0.76179 0.82234 0.42993 0.0
H516 H 0.85305 0.75677 0.51569 0.0
H517 H 0.71676 0.73613 0.45038 0.0
H518 H 0.79694 0.79687 0.45705 0.0
H519 H 0.77757 0.68971 0.49442 0.0
C520 C 0.81305 0.691 0.51693 0.0
C521 C 0.83462 0.70956 0.52346 0.0
C522 C 0.77941 0.78346 0.45546 0.0
C523 C 0.79668 0.73682 0.48738 0.0
C524 C 0.75938 0.79791 0.43989 0.0
C525 C 0.73631 0.78134 0.43802 0.0
C526 C 0.77635 0.7522 0.46919 0.0
C527 C 0.7342 0.74979 0.45135 0.0
C528 C 0.79409 0.70449 0.499 0.0
C529 C 0.83666 0.74169 0.51129 0.0
N530 N 0.75394 0.7363 0.46646 0.0
N531 N 0.81788 0.75435 0.49383 0.0
H532 H 0.23384 0.83348 0.06862 0.0
H533 H 0.18507 0.67147 0.98123 0.0
H534 H 0.27974 0.74742 0.05036 0.0
H535 H 0.14363 0.76358 0.98409 0.0
H536 H 0.21811 0.69708 0.01149 0.0
H537 H 0.19877 0.80632 0.04276 0.0
C538 C 0.23647 0.80876 0.05936 0.0
C539 C 0.25973 0.79268 0.06151 0.0
C540 C 0.20179 0.71172 0.00557 0.0
C541 C 0.21978 0.76157 0.03191 0.0
C542 C 0.18289 0.6971 0.98832 0.0
C543 C 0.16164 0.71551 0.98002 0.0
C544 C 0.19944 0.745 0.01473 0.0
C545 C 0.15978 0.74858 0.98991 0.0
C546 C 0.21649 0.79335 0.04452 0.0
C547 C 0.26214 0.76073 0.04911 0.0
N548 N 0.17849 0.76232 0.00674 0.0
N549 N 0.24242 0.74624 0.03479 0.0
H550 H 0.75931 0.16391 0.55813 0.0
H551 H 0.81048 0.32633 0.47346 0.0
H552 H 0.71451 0.25119 0.54058 0.0
H553 H 0.85214 0.23451 0.47857 0.0
H554 H 0.77651 0.30053 0.50195 0.0
H555 H 0.79482 0.19073 0.53299 0.0
C556 C 0.75699 0.1888 0.54911 0.0
C557 C 0.73393 0.20536 0.55135 0.0
C558 C 0.79307 0.28598 0.49691 0.0
C559 C 0.77443 0.23612 0.52258 0.0
C560 C 0.81251 0.30071 0.48067 0.0
C561 C 0.83412 0.28246 0.47355 0.0
C562 C 0.79522 0.25272 0.50622 0.0
C563 C 0.83575 0.2494 0.48352 0.0
C564 C 0.77725 0.20403 0.53471 0.0
C565 C 0.73194 0.23752 0.53927 0.0
N566 N 0.81651 0.23553 0.49935 0.0
N567 N 0.75193 0.25183 0.52538 0.0
H568 H 0.65335 0.80501 0.98217 0.0
H569 H 0.77971 0.70584 0.99641 0.0
H570 H 0.66673 0.73963 0.05836 0.0
H571 H 0.74277 0.71377 0.90931 0.0
H572 H 0.74194 0.72786 0.02107 0.0
H573 H 0.68948 0.7804 0.95587 0.0
C574 C 0.6638 0.7853 0.9932 0.0
C575 C 0.65711 0.77415 0.02234 0.0
C576 C 0.7422 0.72478 0.99656 0.0
C577 C 0.69857 0.74687 0.99298 0.0
C578 C 0.76373 0.71255 0.98249 0.0
C579 C 0.76425 0.7081 0.95084 0.0
C580 C 0.72139 0.73337 0.97872 0.0
C581 C 0.74301 0.71684 0.9338 0.0
C582 C 0.68431 0.77133 0.97824 0.0
C583 C 0.67123 0.74866 0.03578 0.0
N584 N 0.72244 0.7294 0.94795 0.0
N585 N 0.69159 0.73617 0.02116 0.0
H586 H 0.31139 0.17071 0.51489 0.0
H587 H 0.26076 0.33121 0.4266 0.0
H588 H 0.35288 0.26252 0.5088 0.0
H589 H 0.21469 0.2466 0.44915 0.0
H590 H 0.2963 0.30431 0.45171 0.0
H591 H 0.27739 0.19611 0.48596 0.0
C592 C 0.31338 0.19623 0.50736 0.0
C593 C 0.33493 0.21462 0.51435 0.0
C594 C 0.27843 0.2916 0.45109 0.0
C595 C 0.29606 0.24384 0.48118 0.0
C596 C 0.25817 0.30687 0.43669 0.0
C597 C 0.23474 0.29111 0.43591 0.0
C598 C 0.27527 0.26028 0.46464 0.0
C599 C 0.23241 0.25964 0.44933 0.0
C600 C 0.29393 0.21072 0.49089 0.0
C601 C 0.33652 0.24753 0.50398 0.0
N602 N 0.25243 0.24526 0.46318 0.0
N603 N 0.3173 0.26114 0.4879 0.0
H604 H 0.78038 0.23511 0.0412 0.0
H605 H 0.64042 0.2561 0.97873 0.0
H606 H 0.73459 0.3212 0.05976 0.0
H607 H 0.68335 0.16553 0.97112 0.0
H608 H 0.67464 0.28081 0.00827 0.0
H609 H 0.74486 0.20928 0.01531 0.0
C610 C 0.7628 0.24848 0.03995 0.0
C611 C 0.76041 0.28033 0.05256 0.0
C612 C 0.6765 0.25548 0.00022 0.0
C613 C 0.71975 0.25112 0.0228 0.0
C614 C 0.65701 0.24143 0.98334 0.0
C615 C 0.65911 0.2088 0.97242 0.0
C616 C 0.69824 0.23678 0.00601 0.0
C617 C 0.68097 0.19081 0.97906 0.0
C618 C 0.74252 0.23376 0.02518 0.0
C619 C 0.73721 0.29658 0.05032 0.0
N620 N 0.6997 0.20508 0.99531 0.0
N621 N 0.7178 0.28187 0.03556 0.0
H622 H 0.26173 0.6701 0.56855 0.0
H623 H 0.31275 0.82487 0.47259 0.0
H624 H 0.21531 0.75234 0.54015 0.0
H625 H 0.35524 0.73484 0.48664 0.0
H626 H 0.27801 0.80067 0.50103 0.0
H627 H 0.29737 0.6956 0.54265 0.0
C628 C 0.25908 0.69364 0.55699 0.0
C629 C 0.23553 0.70913 0.55641 0.0
C630 C 0.29491 0.78618 0.49791 0.0
C631 C 0.2762 0.73838 0.5267 0.0
C632 C 0.31478 0.79998 0.48171 0.0
C633 C 0.33688 0.78176 0.4772 0.0
C634 C 0.29718 0.75396 0.50987 0.0
C635 C 0.33849 0.74967 0.48953 0.0
C636 C 0.27941 0.70811 0.54213 0.0
C637 C 0.23314 0.73955 0.54109 0.0
N638 N 0.31888 0.73677 0.50535 0.0
N639 N 0.25323 0.75318 0.52681 0.0
H640 H 0.09486 0.55137 0.91961 0.0
H641 H 0.08826 0.44557 0.07346 0.0
H642 H 0.08941 0.59539 0.009 0.0
H643 H 0.09043 0.4018 0.98377 0.0
H644 H 0.08551 0.50066 0.05018 0.0
H645 H 0.0902 0.49637 0.94251 0.0
C646 C 0.09253 0.54944 0.94406 0.0
C647 C 0.09271 0.57789 0.96249 0.0
C648 C 0.08639 0.47901 0.03558 0.0
C649 C 0.08748 0.5151 0.98887 0.0
C650 C 0.08796 0.44757 0.04886 0.0
C651 C 0.08977 0.41916 0.03048 0.0
C652 C 0.08678 0.48203 0.00371 0.0
C653 C 0.0892 0.4231 -0.00124 0.0
C654 C 0.08985 0.51805 0.95712 0.0
C655 C 0.08949 0.57403 0.99399 0.0
N656 N 0.08794 0.45399 0.98636 0.0
N657 N 0.08719 0.54316 0.00623 0.0
H658 H 0.90658 0.59607 0.48995 0.0
H659 H 0.90591 0.39815 0.50899 0.0
H660 H 0.8995 0.54623 0.57658 0.0
H661 H 0.89867 0.44813 0.42243 0.0
H662 H 0.90934 0.45222 0.53411 0.0
H663 H 0.9095 0.54195 0.46483 0.0
C664 C 0.90582 0.57372 0.50369 0.0
C665 C 0.90262 0.57555 0.53534 0.0
C666 C 0.90711 0.45134 0.50961 0.0
C667 C 0.90591 0.51368 0.50682 0.0
C668 C 0.9052 0.42052 0.49527 0.0
C669 C 0.90183 0.41874 0.46364 0.0
C670 C 0.90572 0.48055 0.49216 0.0
C671 C 0.9011 0.44844 0.44691 0.0
C672 C 0.90743 0.54286 0.48935 0.0
C673 C 0.90181 0.54588 0.55209 0.0
N674 N 0.90295 0.47816 0.4614 0.0
N675 N 0.90335 0.51612 0.5376 0.0
H676 H 0.8167 0.45052 0.08109 0.0
H677 H 0.81537 0.5389 0.91772 0.0
H678 H 0.82409 0.39655 0.99664 0.0
H679 H 0.82587 0.59163 0.00234 0.0
H680 H 0.81441 0.48641 0.94611 0.0
H681 H 0.81597 0.50262 0.05241 0.0
C682 C 0.81814 0.44966 0.0565 0.0
C683 C 0.82054 0.41923 0.0412 0.0
C684 C 0.81692 0.50949 0.95843 0.0
C685 C 0.8196 0.47867 0.00823 0.0
C686 C 0.81738 0.53941 0.94226 0.0
C687 C 0.82076 0.56958 0.95772 0.0
C688 C 0.81962 0.50986 0.99026 0.0
C689 C 0.82331 0.56889 0.98952 0.0
C690 C 0.81777 0.47938 0.04014 0.0
C691 C 0.82231 0.41952 0.00931 0.0
N692 N 0.82265 0.53952 0.00474 0.0
N693 N 0.82176 0.44879 0.99385 0.0
H694 H 0.17073 0.40143 0.49589 0.0
H695 H 0.17125 0.60003 0.49795 0.0
H696 H 0.1796 0.46115 0.41495 0.0
H697 H 0.17996 0.54022 0.57888 0.0
H698 H 0.17178 0.54943 0.46713 0.0
H699 H 0.17157 0.45202 0.52672 0.0
C700 C 0.17286 0.42522 0.48461 0.0
C701 C 0.17506 0.42715 0.45283 0.0
C702 C 0.17364 0.54736 0.49161 0.0
C703 C 0.17595 0.48511 0.48793 0.0
C704 C 0.17327 0.57622 0.50922 0.0
C705 C 0.17553 0.57426 0.541 0.0
C706 C 0.17605 0.51629 0.50591 0.0
C707 C 0.17818 0.54281 0.55443 0.0
C708 C 0.17341 0.45407 0.50223 0.0
C709 C 0.17785 0.45858 0.4394 0.0
N710 N 0.17826 0.51502 0.53681 0.0
N711 N 0.1781 0.48636 0.45702 0.0
H712 H 0.59005 0.04417 0.91916 0.0
H713 H 0.59899 0.94493 0.07606 0.0
H714 H 0.59086 0.09207 0.00709 0.0
H715 H 0.58445 0.89751 0.9897 0.0
H716 H 0.59546 -0.00083 0.0513 0.0
H717 H 0.58727 0.99017 0.94452 0.0
C718 C 0.58947 0.0433 0.94381 0.0
C719 C 0.59084 0.07255 0.96109 0.0
C720 C 0.59286 0.97691 0.03779 0.0
C721 C 0.58785 0.01097 0.99023 0.0
C722 C 0.59493 0.94597 0.0519 0.0
C723 C 0.59215 0.91676 0.03483 0.0
C724 C 0.58824 0.97861 0.00633 0.0
C725 C 0.5868 0.91947 0.00366 0.0
C726 C 0.58786 0.0125 0.95827 0.0
C727 C 0.58993 0.07008 0.99293 0.0
N728 N 0.58521 0.94988 0.99034 0.0
N729 N 0.5887 0.03978 0.0065 0.0
H730 H 0.40729 0.89974 0.51298 0.0
H731 H 0.41034 0.09595 0.48359 0.0
H732 H 0.41207 0.94373 0.42351 0.0
H733 H 0.40248 0.05118 0.57241 0.0
H734 H 0.41531 0.04053 0.46145 0.0
H735 H 0.40997 0.95511 0.53547 0.0
C736 C 0.4091 0.92107 0.49808 0.0
C737 C 0.40925 0.91723 0.46635 0.0
C738 C 0.41266 0.04284 0.48581 0.0
C739 C 0.41217 0.98068 0.49188 0.0
C740 C 0.40983 0.07445 0.49844 0.0
C741 C 0.40579 0.07807 0.52982 0.0
C742 C 0.4114 0.01471 0.50472 0.0
C743 C 0.40539 0.04946 0.54806 0.0
C744 C 0.4106 0.95269 0.51092 0.0
C745 C 0.41176 0.94566 0.44809 0.0
N746 N 0.40801 0.01896 0.53521 0.0
N747 N 0.41293 0.97625 0.46113 0.0
H748 H 0.32569 0.9017 0.00014 0.0
H749 H 0.32439 0.10024 0.99514 0.0
H750 H 0.315 0.96276 0.07988 0.0
H751 H 0.31661 0.03913 0.91493 0.0
H752 H 0.32392 0.05012 0.02662 0.0
H753 H 0.32532 0.95177 0.96854 0.0
C754 C 0.32327 0.92567 0.01099 0.0
C755 C 0.32039 0.92814 0.04267 0.0
C756 C 0.32225 0.04766 0.00215 0.0
C757 C 0.32005 0.98548 0.00669 0.0
C758 C 0.32259 0.07624 0.98416 0.0
C759 C 0.32055 0.07378 0.95239 0.0
C760 C 0.32009 0.01636 0.98825 0.0
C761 C 0.31821 0.0421 0.93935 0.0
C762 C 0.32299 0.95422 0.99294 0.0
C763 C 0.31726 0.95978 0.05553 0.0
N764 N 0.31814 0.01458 0.95734 0.0
N765 N 0.31728 0.98725 0.0375 0.0
H766 H 0.68627 0.03812 0.57461 0.0
H767 H 0.65766 0.95062 0.41432 0.0
H768 H 0.65651 0.09072 0.49692 0.0
H769 H 0.68619 0.89902 0.49324 0.0
H770 H 0.65721 0.00239 0.44377 0.0
H771 H 0.68648 0.98693 0.54475 0.0
C772 C 0.67975 0.03887 0.55125 0.0
C773 C 0.67135 0.06866 0.5382 0.0
C774 C 0.66357 0.97972 0.45461 0.0
C775 C 0.67155 0.01018 0.50383 0.0
C776 C 0.66383 0.95021 0.43782 0.0
C777 C 0.67195 0.92053 0.45139 0.0
C778 C 0.67152 0.97947 0.48514 0.0
C779 C 0.67975 0.92134 0.48189 0.0
C780 C 0.67988 0.00964 0.53419 0.0
C781 C 0.66313 0.06823 0.50784 0.0
N782 N 0.67935 0.95031 0.49771 0.0
N783 N 0.66344 0.03943 0.49165 0.0
loop_
_geom_bond_atom_site_label_1
_geom_bond_atom_site_label_2
_geom_bond_distance
_geom_bond_site_symmetry_2
_ccdc_geom_bond_type
In0 O1 2.294 . S
In0 O2 2.326 . S
In0 O6 2.266 . S
In0 O7 2.326 . S
In0 O8 2.266 . S
In0 O9 2.326 . S
In0 O11 2.294 . S
In0 O12 2.326 . S
O1 In0 2.294 . S
O1 C10 1.240 . S
O2 In0 2.326 . S
O2 C10 1.252 . S
C3 O6 1.252 . S
C3 O7 1.260 . S
C4 O11 1.240 . S
C4 O12 1.252 . S
C5 O8 1.252 . S
C5 O9 1.260 . S
O6 In0 2.266 . S
O6 C3 1.252 . S
O7 In0 2.326 . S
O7 C3 1.260 . S
O8 In0 2.266 . S
O8 C5 1.252 . S
O9 In0 2.326 . S
O9 C5 1.260 . S
C10 O1 1.240 . S
C10 O2 1.252 . S
O11 In0 2.294 . S
O11 C4 1.240 . S
O12 In0 2.326 . S
O12 C4 1.252 . S
In13 O14 2.294 . S
In13 O15 2.326 . S
In13 O19 2.266 . S
In13 O20 2.326 . S
In13 O21 2.266 . S
In13 O22 2.326 . S
In13 O24 2.294 . S
In13 O25 2.326 . S
O14 In13 2.294 . S
O14 C23 1.240 . S
O15 In13 2.326 . S
O15 C23 1.252 . S
C16 O19 1.252 . S
C16 O20 1.260 . S
C17 O24 1.240 . S
C17 O25 1.252 . S
C18 O21 1.252 . S
C18 O22 1.260 . S
O19 In13 2.266 . S
O19 C16 1.252 . S
O20 In13 2.326 . S
O20 C16 1.260 . S
O21 In13 2.266 . S
O21 C18 1.252 . S
O22 In13 2.326 . S
O22 C18 1.260 . S
C23 O14 1.240 . S
C23 O15 1.252 . S
O24 In13 2.294 . S
O24 C17 1.240 . S
O25 In13 2.326 . S
O25 C17 1.252 . S
In26 O27 2.294 . S
In26 O28 2.326 . S
In26 O32 2.266 . S
In26 O33 2.326 . S
In26 O34 2.266 . S
In26 O35 2.326 . S
In26 O37 2.294 . S
In26 O38 2.326 . S
O27 In26 2.294 . S
O27 C36 1.240 . S
O28 In26 2.326 . S
O28 C36 1.252 . S
C29 O32 1.252 . S
C29 O33 1.260 . S
C30 O37 1.240 . S
C30 O38 1.252 . S
C31 O34 1.252 . S
C31 O35 1.260 . S
O32 In26 2.266 . S
O32 C29 1.252 . S
O33 In26 2.326 . S
O33 C29 1.260 . S
O34 In26 2.266 . S
O34 C31 1.252 . S
O35 In26 2.326 . S
O35 C31 1.260 . S
C36 O27 1.240 . S
C36 O28 1.252 . S
O37 In26 2.294 . S
O37 C30 1.240 . S
O38 In26 2.326 . S
O38 C30 1.252 . S
In39 O40 2.294 . S
In39 O41 2.326 . S
In39 O45 2.266 . S
In39 O46 2.326 . S
In39 O47 2.266 . S
In39 O48 2.326 . S
In39 O50 2.294 . S
In39 O51 2.326 . S
O40 In39 2.294 . S
O40 C49 1.240 . S
O41 In39 2.326 . S
O41 C49 1.252 . S
C42 O45 1.252 . S
C42 O46 1.260 . S
C43 O50 1.240 . S
C43 O51 1.252 . S
C44 O47 1.252 . S
C44 O48 1.260 . S
O45 In39 2.266 . S
O45 C42 1.252 . S
O46 In39 2.326 . S
O46 C42 1.260 . S
O47 In39 2.266 . S
O47 C44 1.252 . S
O48 In39 2.326 . S
O48 C44 1.260 . S
C49 O40 1.240 . S
C49 O41 1.252 . S
O50 In39 2.294 . S
O50 C43 1.240 . S
O51 In39 2.326 . S
O51 C43 1.252 . S
In52 O53 2.294 . S
In52 O54 2.326 . S
In52 O58 2.266 . S
In52 O59 2.326 . S
In52 O60 2.266 . S
In52 O61 2.326 . S
In52 O63 2.294 . S
In52 O64 2.326 . S
O53 In52 2.294 . S
O53 C62 1.240 . S
O54 In52 2.326 . S
O54 C62 1.252 . S
C55 O58 1.252 . S
C55 O59 1.260 . S
C56 O63 1.240 . S
C56 O64 1.252 . S
C57 O60 1.252 . S
C57 O61 1.260 . S
O58 In52 2.266 . S
O58 C55 1.252 . S
O59 In52 2.326 . S
O59 C55 1.260 . S
O60 In52 2.266 . S
O60 C57 1.252 . S
O61 In52 2.326 . S
O61 C57 1.260 . S
C62 O53 1.240 . S
C62 O54 1.252 . S
O63 In52 2.294 . S
O63 C56 1.240 . S
O64 In52 2.326 . S
O64 C56 1.252 . S
In65 O66 2.294 . S
In65 O67 2.326 . S
In65 O71 2.266 . S
In65 O72 2.326 . S
In65 O73 2.266 . S
In65 O74 2.326 . S
In65 O76 2.294 . S
In65 O77 2.326 . S
O66 In65 2.294 . S
O66 C75 1.240 . S
O67 In65 2.326 . S
O67 C75 1.252 . S
C68 O71 1.252 . S
C68 O72 1.260 . S
C69 O76 1.240 . S
C69 O77 1.252 . S
C70 O73 1.252 . S
C70 O74 1.260 . S
O71 In65 2.266 . S
O71 C68 1.252 . S
O72 In65 2.326 . S
O72 C68 1.260 . S
O73 In65 2.266 . S
O73 C70 1.252 . S
O74 In65 2.326 . S
O74 C70 1.260 . S
C75 O66 1.240 . S
C75 O67 1.252 . S
O76 In65 2.294 . S
O76 C69 1.240 . S
O77 In65 2.326 . S
O77 C69 1.252 . S
In78 O79 2.294 . S
In78 O80 2.326 . S
In78 O84 2.266 . S
In78 O85 2.326 . S
In78 O86 2.266 . S
In78 O87 2.326 . S
In78 O89 2.294 . S
In78 O90 2.326 . S
O79 In78 2.294 . S
O79 C88 1.240 . S
O80 In78 2.326 . S
O80 C88 1.252 . S
C81 O84 1.252 . S
C81 O85 1.260 . S
C82 O89 1.240 . S
C82 O90 1.252 . S
C83 O86 1.252 . S
C83 O87 1.260 . S
O84 In78 2.266 . S
O84 C81 1.252 . S
O85 In78 2.326 . S
O85 C81 1.260 . S
O86 In78 2.266 . S
O86 C83 1.252 . S
O87 In78 2.326 . S
O87 C83 1.260 . S
C88 O79 1.240 . S
C88 O80 1.252 . S
O89 In78 2.294 . S
O89 C82 1.240 . S
O90 In78 2.326 . S
O90 C82 1.252 . S
In91 O92 2.294 . S
In91 O93 2.326 . S
In91 O97 2.266 . S
In91 O98 2.326 . S
In91 O99 2.266 . S
In91 O100 2.326 . S
In91 O102 2.294 . S
In91 O103 2.326 . S
O92 In91 2.294 . S
O92 C101 1.240 . S
O93 In91 2.326 . S
O93 C101 1.252 . S
C94 O97 1.252 . S
C94 O98 1.260 . S
C95 O102 1.240 . S
C95 O103 1.252 . S
C96 O99 1.252 . S
C96 O100 1.260 . S
O97 In91 2.266 . S
O97 C94 1.252 . S
O98 In91 2.326 . S
O98 C94 1.260 . S
O99 In91 2.266 . S
O99 C96 1.252 . S
O100 In91 2.326 . S
O100 C96 1.260 . S
C101 O92 1.240 . S
C101 O93 1.252 . S
O102 In91 2.294 . S
O102 C95 1.240 . S
O103 In91 2.326 . S
O103 C95 1.252 . S
In104 O105 2.294 . S
In104 O106 2.326 . S
In104 O110 2.266 . S
In104 O111 2.326 . S
In104 O112 2.266 . S
In104 O113 2.326 . S
In104 O115 2.294 . S
In104 O116 2.326 . S
O105 In104 2.294 . S
O105 C114 1.240 . S
O106 In104 2.326 . S
O106 C114 1.252 . S
C107 O110 1.252 . S
C107 O111 1.260 . S
C108 O115 1.240 . S
C108 O116 1.252 . S
C109 O112 1.252 . S
C109 O113 1.260 . S
O110 In104 2.266 . S
O110 C107 1.252 . S
O111 In104 2.326 . S
O111 C107 1.260 . S
O112 In104 2.266 . S
O112 C109 1.252 . S
O113 In104 2.326 . S
O113 C109 1.260 . S
C114 O105 1.240 . S
C114 O106 1.252 . S
O115 In104 2.294 . S
O115 C108 1.240 . S
O116 In104 2.326 . S
O116 C108 1.252 . S
In117 O118 2.294 . S
In117 O119 2.326 . S
In117 O123 2.266 . S
In117 O124 2.326 . S
In117 O125 2.266 . S
In117 O126 2.326 . S
In117 O128 2.294 . S
In117 O129 2.326 . S
O118 In117 2.294 . S
O118 C127 1.240 . S
O119 In117 2.326 . S
O119 C127 1.252 . S
C120 O123 1.252 . S
C120 O124 1.260 . S
C121 O128 1.240 . S
C121 O129 1.252 . S
C122 O125 1.252 . S
C122 O126 1.260 . S
O123 In117 2.266 . S
O123 C120 1.252 . S
O124 In117 2.326 . S
O124 C120 1.260 . S
O125 In117 2.266 . S
O125 C122 1.252 . S
O126 In117 2.326 . S
O126 C122 1.260 . S
C127 O118 1.240 . S
C127 O119 1.252 . S
O128 In117 2.294 . S
O128 C121 1.240 . S
O129 In117 2.326 . S
O129 C121 1.252 . S
In130 O131 2.294 . S
In130 O132 2.326 . S
In130 O136 2.266 . S
In130 O137 2.326 . S
In130 O138 2.266 . S
In130 O139 2.326 . S
In130 O141 2.294 . S
In130 O142 2.326 . S
O131 In130 2.294 . S
O131 C140 1.240 . S
O132 In130 2.326 . S
O132 C140 1.252 . S
C133 O136 1.252 . S
C133 O137 1.260 . S
C134 O141 1.240 . S
C134 O142 1.252 . S
C135 O138 1.252 . S
C135 O139 1.260 . S
O136 In130 2.266 . S
O136 C133 1.252 . S
O137 In130 2.326 . S
O137 C133 1.260 . S
O138 In130 2.266 . S
O138 C135 1.252 . S
O139 In130 2.326 . S
O139 C135 1.260 . S
C140 O131 1.240 . S
C140 O132 1.252 . S
O141 In130 2.294 . S
O141 C134 1.240 . S
O142 In130 2.326 . S
O142 C134 1.252 . S
In143 O144 2.294 . S
In143 O145 2.326 . S
In143 O149 2.266 . S
In143 O150 2.326 . S
In143 O151 2.266 . S
In143 O152 2.326 . S
In143 O154 2.294 . S
In143 O155 2.326 . S
O144 In143 2.294 . S
O144 C153 1.240 . S
O145 In143 2.326 . S
O145 C153 1.252 . S
C146 O149 1.252 . S
C146 O150 1.260 . S
C147 O154 1.240 . S
C147 O155 1.252 . S
C148 O151 1.252 . S
C148 O152 1.260 . S
O149 In143 2.266 . S
O149 C146 1.252 . S
O150 In143 2.326 . S
O150 C146 1.260 . S
O151 In143 2.266 . S
O151 C148 1.252 . S
O152 In143 2.326 . S
O152 C148 1.260 . S
C153 O144 1.240 . S
C153 O145 1.252 . S
O154 In143 2.294 . S
O154 C147 1.240 . S
O155 In143 2.326 . S
O155 C147 1.252 . S
In156 O157 2.294 . S
In156 O158 2.326 . S
In156 O162 2.266 . S
In156 O163 2.326 . S
In156 O164 2.266 . S
In156 O165 2.326 . S
In156 O167 2.294 . S
In156 O168 2.326 . S
O157 In156 2.294 . S
O157 C166 1.240 . S
O158 In156 2.326 . S
O158 C166 1.252 . S
C159 O162 1.252 . S
C159 O163 1.260 . S
C160 O167 1.240 . S
C160 O168 1.252 . S
C161 O164 1.252 . S
C161 O165 1.260 . S
O162 In156 2.266 . S
O162 C159 1.252 . S
O163 In156 2.326 . S
O163 C159 1.260 . S
O164 In156 2.266 . S
O164 C161 1.252 . S
O165 In156 2.326 . S
O165 C161 1.260 . S
C166 O157 1.240 . S
C166 O158 1.252 . S
O167 In156 2.294 . S
O167 C160 1.240 . S
O168 In156 2.326 . S
O168 C160 1.252 . S
In169 O170 2.294 . S
In169 O171 2.326 . S
In169 O175 2.266 . S
In169 O176 2.326 . S
In169 O177 2.266 . S
In169 O178 2.326 . S
In169 O180 2.294 . S
In169 O181 2.326 . S
O170 In169 2.294 . S
O170 C179 1.240 . S
O171 In169 2.326 . S
O171 C179 1.252 . S
C172 O175 1.252 . S
C172 O176 1.260 . S
C173 O180 1.240 . S
C173 O181 1.252 . S
C174 O177 1.252 . S
C174 O178 1.260 . S
O175 In169 2.266 . S
O175 C172 1.252 . S
O176 In169 2.326 . S
O176 C172 1.260 . S
O177 In169 2.266 . S
O177 C174 1.252 . S
O178 In169 2.326 . S
O178 C174 1.260 . S
C179 O170 1.240 . S
C179 O171 1.252 . S
O180 In169 2.294 . S
O180 C173 1.240 . S
O181 In169 2.326 . S
O181 C173 1.252 . S
In182 O183 2.294 . S
In182 O184 2.326 . S
In182 O188 2.266 . S
In182 O189 2.326 . S
In182 O190 2.266 . S
In182 O191 2.326 . S
In182 O193 2.294 . S
In182 O194 2.326 . S
O183 In182 2.294 . S
O183 C192 1.240 . S
O184 In182 2.326 . S
O184 C192 1.252 . S
C185 O188 1.252 . S
C185 O189 1.260 . S
C186 O193 1.240 . S
C186 O194 1.252 . S
C187 O190 1.252 . S
C187 O191 1.260 . S
O188 In182 2.266 . S
O188 C185 1.252 . S
O189 In182 2.326 . S
O189 C185 1.260 . S
O190 In182 2.266 . S
O190 C187 1.252 . S
O191 In182 2.326 . S
O191 C187 1.260 . S
C192 O183 1.240 . S
C192 O184 1.252 . S
O193 In182 2.294 . S
O193 C186 1.240 . S
O194 In182 2.326 . S
O194 C186 1.252 . S
In195 O196 2.294 . S
In195 O197 2.326 . S
In195 O201 2.266 . S
In195 O202 2.326 . S
In195 O203 2.266 . S
In195 O204 2.326 . S
In195 O206 2.294 . S
In195 O207 2.326 . S
O196 In195 2.294 . S
O196 C205 1.240 . S
O197 In195 2.326 . S
O197 C205 1.252 . S
C198 O201 1.252 . S
C198 O202 1.260 . S
C199 O206 1.240 . S
C199 O207 1.252 . S
C200 O203 1.252 . S
C200 O204 1.260 . S
O201 In195 2.266 . S
O201 C198 1.252 . S
O202 In195 2.326 . S
O202 C198 1.260 . S
O203 In195 2.266 . S
O203 C200 1.252 . S
O204 In195 2.326 . S
O204 C200 1.260 . S
C205 O196 1.240 . S
C205 O197 1.252 . S
O206 In195 2.294 . S
O206 C199 1.240 . S
O207 In195 2.326 . S
O207 C199 1.252 . S
H208 C214 0.930 . S
H209 C218 0.930 . S
H210 C223 0.929 . S
H211 C221 0.929 . S
H212 C216 0.929 . S
H213 C222 0.929 . S
C214 H208 0.930 . S
C214 C215 1.367 . S
C214 C222 1.378 1_455 S
C215 C214 1.367 . S
C215 C223 1.433 . S
C216 H212 0.929 . S
C216 C218 1.378 . S
C216 C220 1.350 . S
C217 C220 1.463 . S
C217 C222 1.350 . S
C217 N225 1.427 . S
C218 H209 0.930 . S
C218 C216 1.378 . S
C218 C219 1.367 . S
C219 C218 1.367 . S
C219 C221 1.433 . S
C220 C216 1.350 . S
C220 C217 1.463 . S
C220 N224 1.427 . S
C221 H211 0.929 . S
C221 C219 1.433 . S
C221 N224 1.384 . S
C222 H213 0.929 . S
C222 C214 1.378 1_655 S
C222 C217 1.350 . S
C223 H210 0.929 . S
C223 C215 1.433 . S
C223 N225 1.384 1_455 S
N224 C220 1.427 . S
N224 C221 1.384 . S
N225 C217 1.427 . S
N225 C223 1.384 1_655 S
H226 C232 0.930 . S
H227 C236 0.930 . S
H228 C241 0.929 . S
H229 C239 0.929 . S
H230 C234 0.929 . S
H231 C240 0.929 . S
C232 H226 0.930 . S
C232 C233 1.367 . S
C232 C240 1.378 1_655 S
C233 C232 1.367 . S
C233 C241 1.433 . S
C234 H230 0.929 . S
C234 C236 1.378 . S
C234 C238 1.350 . S
C235 C238 1.463 . S
C235 C240 1.350 . S
C235 N243 1.427 . S
C236 H227 0.930 . S
C236 C234 1.378 . S
C236 C237 1.367 . S
C237 C236 1.367 . S
C237 C239 1.433 . S
C238 C234 1.350 . S
C238 C235 1.463 . S
C238 N242 1.427 . S
C239 H229 0.929 . S
C239 C237 1.433 . S
C239 N242 1.384 . S
C240 H231 0.929 . S
C240 C232 1.378 1_455 S
C240 C235 1.350 . S
C241 H228 0.929 . S
C241 C233 1.433 . S
C241 N243 1.384 1_655 S
N242 C238 1.427 . S
N242 C239 1.384 . S
N243 C235 1.427 . S
N243 C241 1.384 1_455 S
H244 C250 0.930 . S
H245 C254 0.930 . S
H246 C259 0.929 . S
H247 C257 0.929 . S
H248 C252 0.929 . S
H249 C258 0.929 . S
C250 H244 0.930 . S
C250 C251 1.367 . S
C250 C258 1.378 . S
C251 C250 1.367 . S
C251 C259 1.433 . S
C252 H248 0.929 . S
C252 C254 1.378 1_655 S
C252 C256 1.350 . S
C253 C256 1.463 . S
C253 C258 1.350 . S
C253 N261 1.427 . S
C254 H245 0.930 . S
C254 C252 1.378 1_455 S
C254 C255 1.367 . S
C255 C254 1.367 . S
C255 C257 1.433 . S
C256 C252 1.350 . S
C256 C253 1.463 . S
C256 N260 1.427 . S
C257 H247 0.929 . S
C257 C255 1.433 . S
C257 N260 1.384 1_455 S
C258 H249 0.929 . S
C258 C250 1.378 . S
C258 C253 1.350 . S
C259 H246 0.929 . S
C259 C251 1.433 . S
C259 N261 1.384 . S
N260 C256 1.427 . S
N260 C257 1.384 1_655 S
N261 C253 1.427 . S
N261 C259 1.384 . S
H262 C268 0.930 . S
H263 C272 0.930 . S
H264 C277 0.929 . S
H265 C275 0.929 . S
H266 C270 0.929 . S
H267 C276 0.929 . S
C268 H262 0.930 . S
C268 C269 1.367 . S
C268 C276 1.378 . S
C269 C268 1.367 . S
C269 C277 1.433 . S
C270 H266 0.929 . S
C270 C272 1.378 1_455 S
C270 C274 1.350 . S
C271 C274 1.463 . S
C271 C276 1.350 . S
C271 N279 1.427 . S
C272 H263 0.930 . S
C272 C270 1.378 1_655 S
C272 C273 1.367 . S
C273 C272 1.367 . S
C273 C275 1.433 . S
C274 C270 1.350 . S
C274 C271 1.463 . S
C274 N278 1.427 . S
C275 H265 0.929 . S
C275 C273 1.433 . S
C275 N278 1.384 1_655 S
C276 H267 0.929 . S
C276 C268 1.378 . S
C276 C271 1.350 . S
C277 H264 0.929 . S
C277 C269 1.433 . S
C277 N279 1.384 . S
N278 C274 1.427 . S
N278 C275 1.384 1_455 S
N279 C271 1.427 . S
N279 C277 1.384 . S
H280 C286 0.930 . S
H281 C290 0.930 . S
H282 C295 0.929 . S
H283 C293 0.929 . S
H284 C288 0.929 . S
H285 C294 0.929 . S
C286 H280 0.930 . S
C286 C287 1.367 . S
C286 C294 1.378 . S
C287 C286 1.367 . S
C287 C295 1.433 . S
C288 H284 0.929 . S
C288 C290 1.378 . S
C288 C292 1.350 . S
C289 C292 1.463 . S
C289 C294 1.350 . S
C289 N297 1.427 . S
C290 H281 0.930 . S
C290 C288 1.378 . S
C290 C291 1.367 . S
C291 C290 1.367 . S
C291 C293 1.433 . S
C292 C288 1.350 . S
C292 C289 1.463 . S
C292 N296 1.427 . S
C293 H283 0.929 . S
C293 C291 1.433 . S
C293 N296 1.384 . S
C294 H285 0.929 . S
C294 C286 1.378 . S
C294 C289 1.350 . S
C295 H282 0.929 . S
C295 C287 1.433 . S
C295 N297 1.384 . S
N296 C292 1.427 . S
N296 C293 1.384 . S
N297 C289 1.427 . S
N297 C295 1.384 . S
H298 C304 0.930 . S
H299 C308 0.930 . S
H300 C313 0.929 . S
H301 C311 0.929 . S
H302 C306 0.929 . S
H303 C312 0.929 . S
C304 H298 0.930 . S
C304 C305 1.367 . S
C304 C312 1.378 . S
C305 C304 1.367 . S
C305 C313 1.433 . S
C306 H302 0.929 . S
C306 C308 1.378 . S
C306 C310 1.350 . S
C307 C310 1.463 . S
C307 C312 1.350 . S
C307 N315 1.427 . S
C308 H299 0.930 . S
C308 C306 1.378 . S
C308 C309 1.367 . S
C309 C308 1.367 . S
C309 C311 1.433 . S
C310 C306 1.350 . S
C310 C307 1.463 . S
C310 N314 1.427 . S
C311 H301 0.929 . S
C311 C309 1.433 . S
C311 N314 1.384 . S
C312 H303 0.929 . S
C312 C304 1.378 . S
C312 C307 1.350 . S
C313 H300 0.929 . S
C313 C305 1.433 . S
C313 N315 1.384 . S
N314 C310 1.427 . S
N314 C311 1.384 . S
N315 C307 1.427 . S
N315 C313 1.384 . S
H316 C322 0.930 . S
H317 C326 0.930 . S
H318 C331 0.929 . S
H319 C329 0.929 . S
H320 C324 0.929 . S
H321 C330 0.929 . S
C322 H316 0.930 . S
C322 C323 1.367 . S
C322 C330 1.378 . S
C323 C322 1.367 . S
C323 C331 1.433 . S
C324 H320 0.929 . S
C324 C326 1.378 . S
C324 C328 1.350 . S
C325 C328 1.463 . S
C325 C330 1.350 . S
C325 N333 1.427 . S
C326 H317 0.930 . S
C326 C324 1.378 . S
C326 C327 1.367 . S
C327 C326 1.367 . S
C327 C329 1.433 . S
C328 C324 1.350 . S
C328 C325 1.463 . S
C328 N332 1.427 . S
C329 H319 0.929 . S
C329 C327 1.433 . S
C329 N332 1.384 . S
C330 H321 0.929 . S
C330 C322 1.378 . S
C330 C325 1.350 . S
C331 H318 0.929 . S
C331 C323 1.433 . S
C331 N333 1.384 . S
N332 C328 1.427 . S
N332 C329 1.384 . S
N333 C325 1.427 . S
N333 C331 1.384 . S
H334 C340 0.930 . S
H335 C344 0.930 . S
H336 C349 0.929 . S
H337 C347 0.929 . S
H338 C342 0.929 . S
H339 C348 0.929 . S
C340 H334 0.930 . S
C340 C341 1.367 . S
C340 C348 1.378 . S
C341 C340 1.367 . S
C341 C349 1.433 . S
C342 H338 0.929 . S
C342 C344 1.378 . S
C342 C346 1.350 . S
C343 C346 1.463 . S
C343 C348 1.350 . S
C343 N351 1.427 . S
C344 H335 0.930 . S
C344 C342 1.378 . S
C344 C345 1.367 . S
C345 C344 1.367 . S
C345 C347 1.433 . S
C346 C342 1.350 . S
C346 C343 1.463 . S
C346 N350 1.427 . S
C347 H337 0.929 . S
C347 C345 1.433 . S
C347 N350 1.384 . S
C348 H339 0.929 . S
C348 C340 1.378 . S
C348 C343 1.350 . S
C349 H336 0.929 . S
C349 C341 1.433 . S
C349 N351 1.384 . S
N350 C346 1.427 . S
N350 C347 1.384 . S
N351 C343 1.427 . S
N351 C349 1.384 . S
H352 C358 0.930 . S
H353 C362 0.930 . S
H354 C367 0.929 . S
H355 C365 0.929 . S
H356 C360 0.929 . S
H357 C366 0.929 . S
C358 H352 0.930 . S
C358 C359 1.367 . S
C358 C366 1.378 . S
C359 C358 1.367 . S
C359 C367 1.433 . S
C360 H356 0.929 . S
C360 C362 1.378 . S
C360 C364 1.350 . S
C361 C364 1.463 . S
C361 C366 1.350 . S
C361 N369 1.427 . S
C362 H353 0.930 . S
C362 C360 1.378 . S
C362 C363 1.367 . S
C363 C362 1.367 . S
C363 C365 1.433 . S
C364 C360 1.350 . S
C364 C361 1.463 . S
C364 N368 1.427 . S
C365 H355 0.929 . S
C365 C363 1.433 . S
C365 N368 1.384 . S
C366 H357 0.929 . S
C366 C358 1.378 . S
C366 C361 1.350 . S
C367 H354 0.929 . S
C367 C359 1.433 . S
C367 N369 1.384 . S
N368 C364 1.427 . S
N368 C365 1.384 . S
N369 C361 1.427 . S
N369 C367 1.384 . S
H370 C376 0.930 . S
H371 C380 0.930 . S
H372 C385 0.929 . S
H373 C383 0.929 . S
H374 C378 0.929 . S
H375 C384 0.929 . S
C376 H370 0.930 . S
C376 C377 1.367 . S
C376 C384 1.378 . S
C377 C376 1.367 . S
C377 C385 1.433 . S
C378 H374 0.929 . S
C378 C380 1.378 . S
C378 C382 1.350 . S
C379 C382 1.463 . S
C379 C384 1.350 . S
C379 N387 1.427 . S
C380 H371 0.930 . S
C380 C378 1.378 . S
C380 C381 1.367 . S
C381 C380 1.367 . S
C381 C383 1.433 . S
C382 C378 1.350 . S
C382 C379 1.463 . S
C382 N386 1.427 . S
C383 H373 0.929 . S
C383 C381 1.433 . S
C383 N386 1.384 . S
C384 H375 0.929 . S
C384 C376 1.378 . S
C384 C379 1.350 . S
C385 H372 0.929 . S
C385 C377 1.433 . S
C385 N387 1.384 . S
N386 C382 1.427 . S
N386 C383 1.384 . S
N387 C379 1.427 . S
N387 C385 1.384 . S
H388 C394 0.930 . S
H389 C398 0.930 . S
H390 C403 0.929 . S
H391 C401 0.929 . S
H392 C396 0.929 . S
H393 C402 0.929 . S
C394 H388 0.930 . S
C394 C395 1.367 . S
C394 C402 1.378 . S
C395 C394 1.367 . S
C395 C403 1.433 . S
C396 H392 0.929 . S
C396 C398 1.378 . S
C396 C400 1.350 . S
C397 C400 1.463 . S
C397 C402 1.350 . S
C397 N405 1.427 . S
C398 H389 0.930 . S
C398 C396 1.378 . S
C398 C399 1.367 . S
C399 C398 1.367 . S
C399 C401 1.433 . S
C400 C396 1.350 . S
C400 C397 1.463 . S
C400 N404 1.427 . S
C401 H391 0.929 . S
C401 C399 1.433 . S
C401 N404 1.384 . S
C402 H393 0.929 . S
C402 C394 1.378 . S
C402 C397 1.350 . S
C403 H390 0.929 . S
C403 C395 1.433 . S
C403 N405 1.384 . S
N404 C400 1.427 . S
N404 C401 1.384 . S
N405 C397 1.427 . S
N405 C403 1.384 . S
H406 C412 0.930 . S
H407 C416 0.930 . S
H408 C421 0.929 . S
H409 C419 0.929 . S
H410 C414 0.929 . S
H411 C420 0.929 . S
C412 H406 0.930 . S
C412 C413 1.367 . S
C412 C420 1.378 . S
C413 C412 1.367 . S
C413 C421 1.433 . S
C414 H410 0.929 . S
C414 C416 1.378 . S
C414 C418 1.350 . S
C415 C418 1.463 . S
C415 C420 1.350 . S
C415 N423 1.427 . S
C416 H407 0.930 . S
C416 C414 1.378 . S
C416 C417 1.367 . S
C417 C416 1.367 . S
C417 C419 1.433 . S
C418 C414 1.350 . S
C418 C415 1.463 . S
C418 N422 1.427 . S
C419 H409 0.929 . S
C419 C417 1.433 . S
C419 N422 1.384 . S
C420 H411 0.929 . S
C420 C412 1.378 . S
C420 C415 1.350 . S
C421 H408 0.929 . S
C421 C413 1.433 . S
C421 N423 1.384 . S
N422 C418 1.427 . S
N422 C419 1.384 . S
N423 C415 1.427 . S
N423 C421 1.384 . S
H424 C430 0.930 . S
H425 C434 0.930 . S
H426 C439 0.929 . S
H427 C437 0.929 . S
H428 C432 0.929 . S
H429 C438 0.929 . S
C430 H424 0.930 . S
C430 C431 1.367 . S
C430 C438 1.378 . S
C431 C430 1.367 . S
C431 C439 1.433 . S
C432 H428 0.929 . S
C432 C434 1.378 . S
C432 C436 1.350 . S
C433 C436 1.463 . S
C433 C438 1.350 . S
C433 N441 1.427 . S
C434 H425 0.930 . S
C434 C432 1.378 . S
C434 C435 1.367 . S
C435 C434 1.367 . S
C435 C437 1.433 . S
C436 C432 1.350 . S
C436 C433 1.463 . S
C436 N440 1.427 . S
C437 H427 0.929 . S
C437 C435 1.433 . S
C437 N440 1.384 . S
C438 H429 0.929 . S
C438 C430 1.378 . S
C438 C433 1.350 . S
C439 H426 0.929 . S
C439 C431 1.433 . S
C439 N441 1.384 . S
N440 C436 1.427 . S
N440 C437 1.384 . S
N441 C433 1.427 . S
N441 C439 1.384 . S
H442 C448 0.930 . S
H443 C452 0.930 . S
H444 C457 0.929 . S
H445 C455 0.929 . S
H446 C450 0.929 . S
H447 C456 0.929 . S
C448 H442 0.930 . S
C448 C449 1.367 . S
C448 C456 1.378 . S
C449 C448 1.367 . S
C449 C457 1.433 . S
C450 H446 0.929 . S
C450 C452 1.378 . S
C450 C454 1.350 . S
C451 C454 1.463 . S
C451 C456 1.350 . S
C451 N459 1.427 . S
C452 H443 0.930 . S
C452 C450 1.378 . S
C452 C453 1.367 . S
C453 C452 1.367 . S
C453 C455 1.433 . S
C454 C450 1.350 . S
C454 C451 1.463 . S
C454 N458 1.427 . S
C455 H445 0.929 . S
C455 C453 1.433 . S
C455 N458 1.384 . S
C456 H447 0.929 . S
C456 C448 1.378 . S
C456 C451 1.350 . S
C457 H444 0.929 . S
C457 C449 1.433 . S
C457 N459 1.384 . S
N458 C454 1.427 . S
N458 C455 1.384 . S
N459 C451 1.427 . S
N459 C457 1.384 . S
H460 C466 0.930 . S
H461 C470 0.930 . S
H462 C475 0.929 . S
H463 C473 0.929 . S
H464 C468 0.929 . S
H465 C474 0.929 . S
C466 H460 0.930 . S
C466 C467 1.367 . S
C466 C474 1.378 . S
C467 C466 1.367 . S
C467 C475 1.433 . S
C468 H464 0.929 . S
C468 C470 1.378 . S
C468 C472 1.350 . S
C469 C472 1.463 . S
C469 C474 1.350 . S
C469 N477 1.427 . S
C470 H461 0.930 . S
C470 C468 1.378 . S
C470 C471 1.367 . S
C471 C470 1.367 . S
C471 C473 1.433 . S
C472 C468 1.350 . S
C472 C469 1.463 . S
C472 N476 1.427 . S
C473 H463 0.929 . S
C473 C471 1.433 . S
C473 N476 1.384 . S
C474 H465 0.929 . S
C474 C466 1.378 . S
C474 C469 1.350 . S
C475 H462 0.929 . S
C475 C467 1.433 . S
C475 N477 1.384 . S
N476 C472 1.427 . S
N476 C473 1.384 . S
N477 C469 1.427 . S
N477 C475 1.384 . S
H478 C484 0.930 . S
H479 C488 0.930 . S
H480 C493 0.929 . S
H481 C491 0.929 . S
H482 C486 0.929 . S
H483 C492 0.929 . S
C484 H478 0.930 . S
C484 C485 1.367 . S
C484 C492 1.378 . S
C485 C484 1.367 . S
C485 C493 1.433 . S
C486 H482 0.929 . S
C486 C488 1.378 . S
C486 C490 1.350 . S
C487 C490 1.463 . S
C487 C492 1.350 . S
C487 N495 1.427 . S
C488 H479 0.930 . S
C488 C486 1.378 . S
C488 C489 1.367 . S
C489 C488 1.367 . S
C489 C491 1.433 . S
C490 C486 1.350 . S
C490 C487 1.463 . S
C490 N494 1.427 . S
C491 H481 0.929 . S
C491 C489 1.433 . S
C491 N494 1.384 . S
C492 H483 0.929 . S
C492 C484 1.378 . S
C492 C487 1.350 . S
C493 H480 0.929 . S
C493 C485 1.433 . S
C493 N495 1.384 . S
N494 C490 1.427 . S
N494 C491 1.384 . S
N495 C487 1.427 . S
N495 C493 1.384 . S
H496 C502 0.930 . S
H497 C506 0.930 . S
H498 C511 0.929 . S
H499 C509 0.929 . S
H500 C504 0.929 . S
H501 C510 0.929 1_554 S
C502 H496 0.930 . S
C502 C503 1.367 . S
C502 C510 1.378 . S
C503 C502 1.367 . S
C503 C511 1.433 . S
C504 H500 0.929 . S
C504 C506 1.378 1_556 S
C504 C508 1.350 1_556 S
C505 C508 1.463 1_556 S
C505 C510 1.350 . S
C505 N513 1.427 . S
C506 H497 0.930 . S
C506 C504 1.378 1_554 S
C506 C507 1.367 . S
C507 C506 1.367 . S
C507 C509 1.433 . S
C508 C504 1.350 1_554 S
C508 C505 1.463 1_554 S
C508 N512 1.427 . S
C509 H499 0.929 . S
C509 C507 1.433 . S
C509 N512 1.384 . S
C510 H501 0.929 1_556 S
C510 C502 1.378 . S
C510 C505 1.350 . S
C511 H498 0.929 . S
C511 C503 1.433 . S
C511 N513 1.384 . S
N512 C508 1.427 . S
N512 C509 1.384 . S
N513 C505 1.427 . S
N513 C511 1.384 . S
H514 C520 0.930 . S
H515 C524 0.930 . S
H516 C529 0.929 . S
H517 C527 0.929 . S
H518 C522 0.929 . S
H519 C528 0.929 . S
C520 H514 0.930 . S
C520 C521 1.367 . S
C520 C528 1.378 . S
C521 C520 1.367 . S
C521 C529 1.433 . S
C522 H518 0.929 . S
C522 C524 1.378 . S
C522 C526 1.350 . S
C523 C526 1.463 . S
C523 C528 1.350 . S
C523 N531 1.427 . S
C524 H515 0.930 . S
C524 C522 1.378 . S
C524 C525 1.367 . S
C525 C524 1.367 . S
C525 C527 1.433 . S
C526 C522 1.350 . S
C526 C523 1.463 . S
C526 N530 1.427 . S
C527 H517 0.929 . S
C527 C525 1.433 . S
C527 N530 1.384 . S
C528 H519 0.929 . S
C528 C520 1.378 . S
C528 C523 1.350 . S
C529 H516 0.929 . S
C529 C521 1.433 . S
C529 N531 1.384 . S
N530 C526 1.427 . S
N530 C527 1.384 . S
N531 C523 1.427 . S
N531 C529 1.384 . S
H532 C538 0.930 . S
H533 C542 0.930 . S
H534 C547 0.929 . S
H535 C545 0.929 . S
H536 C540 0.929 1_554 S
H537 C546 0.929 1_556 S
C538 H532 0.930 . S
C538 C539 1.367 . S
C538 C546 1.378 . S
C539 C538 1.367 . S
C539 C547 1.433 . S
C540 H536 0.929 1_556 S
C540 C542 1.378 . S
C540 C544 1.350 . S
C541 C544 1.463 1_554 S
C541 C546 1.350 . S
C541 N549 1.427 . S
C542 H533 0.930 . S
C542 C540 1.378 . S
C542 C543 1.367 . S
C543 C542 1.367 . S
C543 C545 1.433 . S
C544 C540 1.350 . S
C544 C541 1.463 1_556 S
C544 N548 1.427 . S
C545 H535 0.929 . S
C545 C543 1.433 . S
C545 N548 1.384 . S
C546 H537 0.929 1_554 S
C546 C538 1.378 . S
C546 C541 1.350 . S
C547 H534 0.929 . S
C547 C539 1.433 . S
C547 N549 1.384 . S
N548 C544 1.427 . S
N548 C545 1.384 . S
N549 C541 1.427 . S
N549 C547 1.384 . S
H550 C556 0.930 . S
H551 C560 0.930 . S
H552 C565 0.929 . S
H553 C563 0.929 . S
H554 C558 0.929 . S
H555 C564 0.929 . S
C556 H550 0.930 . S
C556 C557 1.367 . S
C556 C564 1.378 . S
C557 C556 1.367 . S
C557 C565 1.433 . S
C558 H554 0.929 . S
C558 C560 1.378 . S
C558 C562 1.350 . S
C559 C562 1.463 . S
C559 C564 1.350 . S
C559 N567 1.427 . S
C560 H551 0.930 . S
C560 C558 1.378 . S
C560 C561 1.367 . S
C561 C560 1.367 . S
C561 C563 1.433 . S
C562 C558 1.350 . S
C562 C559 1.463 . S
C562 N566 1.427 . S
C563 H553 0.929 . S
C563 C561 1.433 . S
C563 N566 1.384 . S
C564 H555 0.929 . S
C564 C556 1.378 . S
C564 C559 1.350 . S
C565 H552 0.929 . S
C565 C557 1.433 . S
C565 N567 1.384 . S
N566 C562 1.427 . S
N566 C563 1.384 . S
N567 C559 1.427 . S
N567 C565 1.384 . S
H568 C574 0.930 . S
H569 C578 0.930 . S
H570 C583 0.929 . S
H571 C581 0.929 . S
H572 C576 0.937 . S
H573 C582 0.929 . S
C574 H568 0.930 . S
C574 C575 1.367 . S
C574 C582 1.378 1_554 S
C575 C574 1.367 . S
C575 C583 1.433 . S
C576 H572 0.937 . S
C576 C578 1.373 1_554 S
C576 C580 1.347 1_554 S
C577 C580 1.463 1_554 S
C577 C582 1.350 1_554 S
C577 N585 1.427 . S
C578 H569 0.930 . S
C578 C576 1.373 1_556 S
C578 C579 1.367 . S
C579 C578 1.367 . S
C579 C581 1.433 . S
C580 C576 1.347 1_556 S
C580 C577 1.463 1_556 S
C580 N584 1.427 . S
C581 H571 0.929 . S
C581 C579 1.433 . S
C581 N584 1.384 . S
C582 H573 0.929 . S
C582 C574 1.378 1_556 S
C582 C577 1.350 1_556 S
C583 H570 0.929 . S
C583 C575 1.433 . S
C583 N585 1.384 . S
N584 C580 1.427 . S
N584 C581 1.384 . S
N585 C577 1.427 . S
N585 C583 1.384 . S
H586 C592 0.930 . S
H587 C596 0.930 . S
H588 C601 0.929 . S
H589 C599 0.929 . S
H590 C594 0.929 . S
H591 C600 0.929 . S
C592 H586 0.930 . S
C592 C593 1.367 . S
C592 C600 1.378 . S
C593 C592 1.367 . S
C593 C601 1.433 . S
C594 H590 0.929 . S
C594 C596 1.378 . S
C594 C598 1.350 . S
C595 C598 1.463 . S
C595 C600 1.350 . S
C595 N603 1.427 . S
C596 H587 0.930 . S
C596 C594 1.378 . S
C596 C597 1.367 . S
C597 C596 1.367 . S
C597 C599 1.433 . S
C598 C594 1.350 . S
C598 C595 1.463 . S
C598 N602 1.427 . S
C599 H589 0.929 . S
C599 C597 1.433 . S
C599 N602 1.384 . S
C600 H591 0.929 . S
C600 C592 1.378 . S
C600 C595 1.350 . S
C601 H588 0.929 . S
C601 C593 1.433 . S
C601 N603 1.384 . S
N602 C598 1.427 . S
N602 C599 1.384 . S
N603 C595 1.427 . S
N603 C601 1.384 . S
H604 C610 0.930 . S
H605 C614 0.930 . S
H606 C619 0.929 . S
H607 C617 0.929 . S
H608 C612 0.929 . S
H609 C618 0.929 . S
C610 H604 0.930 . S
C610 C611 1.367 . S
C610 C618 1.378 . S
C611 C610 1.367 . S
C611 C619 1.433 . S
C612 H608 0.929 . S
C612 C614 1.378 . S
C612 C616 1.350 . S
C613 C616 1.463 1_554 S
C613 C618 1.350 . S
C613 N621 1.427 . S
C614 H605 0.930 . S
C614 C612 1.378 . S
C614 C615 1.367 . S
C615 C614 1.367 . S
C615 C617 1.433 . S
C616 C612 1.350 . S
C616 C613 1.463 1_556 S
C616 N620 1.427 . S
C617 H607 0.929 . S
C617 C615 1.433 . S
C617 N620 1.384 . S
C618 H609 0.929 . S
C618 C610 1.378 . S
C618 C613 1.350 . S
C619 H606 0.929 . S
C619 C611 1.433 . S
C619 N621 1.384 . S
N620 C616 1.427 . S
N620 C617 1.384 . S
N621 C613 1.427 . S
N621 C619 1.384 . S
H622 C628 0.930 . S
H623 C632 0.930 . S
H624 C637 0.929 . S
H625 C635 0.929 . S
H626 C630 0.929 . S
H627 C636 0.929 . S
C628 H622 0.930 . S
C628 C629 1.367 . S
C628 C636 1.378 . S
C629 C628 1.367 . S
C629 C637 1.433 . S
C630 H626 0.929 . S
C630 C632 1.378 . S
C630 C634 1.350 . S
C631 C634 1.463 . S
C631 C636 1.350 . S
C631 N639 1.427 . S
C632 H623 0.930 . S
C632 C630 1.378 . S
C632 C633 1.367 . S
C633 C632 1.367 . S
C633 C635 1.433 . S
C634 C630 1.350 . S
C634 C631 1.463 . S
C634 N638 1.427 . S
C635 H625 0.929 . S
C635 C633 1.433 . S
C635 N638 1.384 . S
C636 H627 0.929 . S
C636 C628 1.378 . S
C636 C631 1.350 . S
C637 H624 0.929 . S
C637 C629 1.433 . S
C637 N639 1.384 . S
N638 C634 1.427 . S
N638 C635 1.384 . S
N639 C631 1.427 . S
N639 C637 1.384 . S
H640 C646 0.930 . S
H641 C650 0.930 . S
H642 C655 0.929 . S
H643 C653 0.929 . S
H644 C648 0.929 . S
H645 C654 0.929 . S
C646 H640 0.930 . S
C646 C647 1.367 . S
C646 C654 1.378 . S
C647 C646 1.367 . S
C647 C655 1.433 . S
C648 H644 0.929 . S
C648 C650 1.378 . S
C648 C652 1.350 . S
C649 C652 1.463 1_556 S
C649 C654 1.350 . S
C649 N657 1.427 . S
C650 H641 0.930 . S
C650 C648 1.378 . S
C650 C651 1.367 . S
C651 C650 1.367 . S
C651 C653 1.433 . S
C652 C648 1.350 . S
C652 C649 1.463 1_554 S
C652 N656 1.427 . S
C653 H643 0.929 . S
C653 C651 1.433 . S
C653 N656 1.384 . S
C654 H645 0.929 . S
C654 C646 1.378 . S
C654 C649 1.350 . S
C655 H642 0.929 . S
C655 C647 1.433 . S
C655 N657 1.384 . S
N656 C652 1.427 . S
N656 C653 1.384 . S
N657 C649 1.427 . S
N657 C655 1.384 . S
H658 C664 0.930 . S
H659 C668 0.930 . S
H660 C673 0.929 . S
H661 C671 0.929 . S
H662 C666 0.929 . S
H663 C672 0.929 . S
C664 H658 0.930 . S
C664 C665 1.367 . S
C664 C672 1.378 . S
C665 C664 1.367 . S
C665 C673 1.433 . S
C666 H662 0.929 . S
C666 C668 1.378 . S
C666 C670 1.350 . S
C667 C670 1.463 . S
C667 C672 1.350 . S
C667 N675 1.427 . S
C668 H659 0.930 . S
C668 C666 1.378 . S
C668 C669 1.367 . S
C669 C668 1.367 . S
C669 C671 1.433 . S
C670 C666 1.350 . S
C670 C667 1.463 . S
C670 N674 1.427 . S
C671 H661 0.929 . S
C671 C669 1.433 . S
C671 N674 1.384 . S
C672 H663 0.929 . S
C672 C664 1.378 . S
C672 C667 1.350 . S
C673 H660 0.929 . S
C673 C665 1.433 . S
C673 N675 1.384 . S
N674 C670 1.427 . S
N674 C671 1.384 . S
N675 C667 1.427 . S
N675 C673 1.384 . S
H676 C682 0.930 . S
H677 C686 0.930 . S
H678 C691 0.929 1_556 S
H679 C689 0.929 1_554 S
H680 C684 0.929 . S
H681 C690 0.929 . S
C682 H676 0.930 . S
C682 C683 1.367 . S
C682 C690 1.378 . S
C683 C682 1.367 . S
C683 C691 1.433 . S
C684 H680 0.929 . S
C684 C686 1.378 . S
C684 C688 1.350 . S
C685 C688 1.463 1_554 S
C685 C690 1.350 . S
C685 N693 1.427 1_554 S
C686 H677 0.930 . S
C686 C684 1.378 . S
C686 C687 1.367 . S
C687 C686 1.367 . S
C687 C689 1.433 . S
C688 C684 1.350 . S
C688 C685 1.463 1_556 S
C688 N692 1.427 1_556 S
C689 H679 0.929 1_556 S
C689 C687 1.433 . S
C689 N692 1.384 1_556 S
C690 H681 0.929 . S
C690 C682 1.378 . S
C690 C685 1.350 . S
C691 H678 0.929 1_554 S
C691 C683 1.433 . S
C691 N693 1.384 1_554 S
N692 C688 1.427 1_554 S
N692 C689 1.384 1_554 S
N693 C685 1.427 1_556 S
N693 C691 1.384 1_556 S
H694 C700 0.930 . S
H695 C704 0.930 . S
H696 C709 0.929 . S
H697 C707 0.929 . S
H698 C702 0.929 . S
H699 C708 0.929 . S
C700 H694 0.930 . S
C700 C701 1.367 . S
C700 C708 1.378 . S
C701 C700 1.367 . S
C701 C709 1.433 . S
C702 H698 0.929 . S
C702 C704 1.378 . S
C702 C706 1.350 . S
C703 C706 1.463 . S
C703 C708 1.350 . S
C703 N711 1.427 . S
C704 H695 0.930 . S
C704 C702 1.378 . S
C704 C705 1.367 . S
C705 C704 1.367 . S
C705 C707 1.433 . S
C706 C702 1.350 . S
C706 C703 1.463 . S
C706 N710 1.427 . S
C707 H697 0.929 . S
C707 C705 1.433 . S
C707 N710 1.384 . S
C708 H699 0.929 . S
C708 C700 1.378 . S
C708 C703 1.350 . S
C709 H696 0.929 . S
C709 C701 1.433 . S
C709 N711 1.384 . S
N710 C706 1.427 . S
N710 C707 1.384 . S
N711 C703 1.427 . S
N711 C709 1.384 . S
H712 C718 0.930 . S
H713 C722 0.930 . S
H714 C727 0.925 1_554 S
H715 C725 0.925 1_556 S
H716 C720 0.929 . S
H717 C726 0.929 . S
C718 H712 0.930 . S
C718 C719 1.367 . S
C718 C726 1.378 . S
C719 C718 1.367 . S
C719 C727 1.441 . S
C720 H716 0.929 . S
C720 C722 1.378 . S
C720 C724 1.350 . S
C721 C724 1.463 1_546 S
C721 C726 1.350 . S
C721 N729 1.427 1_556 S
C722 H713 0.930 . S
C722 C720 1.378 . S
C722 C723 1.367 . S
C723 C722 1.367 . S
C723 C725 1.441 . S
C724 C720 1.350 . S
C724 C721 1.463 1_564 S
C724 N728 1.427 1_554 S
C725 H715 0.925 1_554 S
C725 C723 1.441 . S
C725 N728 1.381 1_554 S
C726 H717 0.929 . S
C726 C718 1.378 . S
C726 C721 1.350 . S
C727 H714 0.925 1_556 S
C727 C719 1.441 . S
C727 N729 1.381 1_556 S
N728 C724 1.427 1_556 S
N728 C725 1.381 1_556 S
N729 C721 1.427 1_554 S
N729 C727 1.381 1_554 S
H730 C736 0.930 . S
H731 C740 0.930 . S
H732 C745 0.929 . S
H733 C743 0.929 . S
H734 C738 0.929 . S
H735 C744 0.929 . S
C736 H730 0.930 . S
C736 C737 1.367 . S
C736 C744 1.378 . S
C737 C736 1.367 . S
C737 C745 1.433 . S
C738 H734 0.929 . S
C738 C740 1.378 . S
C738 C742 1.350 . S
C739 C742 1.463 1_565 S
C739 C744 1.350 . S
C739 N747 1.427 . S
C740 H731 0.930 . S
C740 C738 1.378 . S
C740 C741 1.367 . S
C741 C740 1.367 . S
C741 C743 1.433 . S
C742 C738 1.350 . S
C742 C739 1.463 1_545 S
C742 N746 1.427 . S
C743 H733 0.929 . S
C743 C741 1.433 . S
C743 N746 1.384 . S
C744 H735 0.929 . S
C744 C736 1.378 . S
C744 C739 1.350 . S
C745 H732 0.929 . S
C745 C737 1.433 . S
C745 N747 1.384 . S
N746 C742 1.427 . S
N746 C743 1.384 . S
N747 C739 1.427 . S
N747 C745 1.384 . S
H748 C754 0.930 1_556 S
H749 C758 0.930 1_554 S
H750 C763 0.929 . S
H751 C761 0.929 . S
H752 C756 0.929 . S
H753 C762 0.929 . S
C754 H748 0.930 1_554 S
C754 C755 1.367 . S
C754 C762 1.378 1_554 S
C755 C754 1.367 . S
C755 C763 1.433 . S
C756 H752 0.929 . S
C756 C758 1.378 1_554 S
C756 C760 1.350 1_554 S
C757 C760 1.463 1_564 S
C757 C762 1.350 1_554 S
C757 N765 1.427 . S
C758 H749 0.930 1_556 S
C758 C756 1.378 1_556 S
C758 C759 1.367 . S
C759 C758 1.367 . S
C759 C761 1.433 . S
C760 C756 1.350 1_556 S
C760 C757 1.463 1_546 S
C760 N764 1.427 . S
C761 H751 0.929 . S
C761 C759 1.433 . S
C761 N764 1.384 . S
C762 H753 0.929 . S
C762 C754 1.378 1_556 S
C762 C757 1.350 1_556 S
C763 H750 0.929 . S
C763 C755 1.433 . S
C763 N765 1.384 . S
N764 C760 1.427 . S
N764 C761 1.384 . S
N765 C757 1.427 . S
N765 C763 1.384 . S
H766 C772 0.930 . S
H767 C776 0.930 . S
H768 C781 0.929 . S
H769 C779 0.929 . S
H770 C774 0.929 . S
H771 C780 0.929 . S
C772 H766 0.930 . S
C772 C773 1.367 . S
C772 C780 1.378 . S
C773 C772 1.367 . S
C773 C781 1.433 . S
C774 H770 0.929 . S
C774 C776 1.378 . S
C774 C778 1.350 . S
C775 C778 1.463 1_545 S
C775 C780 1.350 . S
C775 N783 1.427 . S
C776 H767 0.930 . S
C776 C774 1.378 . S
C776 C777 1.367 . S
C777 C776 1.367 . S
C777 C779 1.433 . S
C778 C774 1.350 . S
C778 C775 1.463 1_565 S
C778 N782 1.427 . S
C779 H769 0.929 . S
C779 C777 1.433 . S
C779 N782 1.384 . S
C780 H771 0.929 . S
C780 C772 1.378 . S
C780 C775 1.350 . S
C781 H768 0.929 . S
C781 C773 1.433 . S
C781 N783 1.384 . S
N782 C778 1.427 . S
N782 C779 1.384 . S
N783 C775 1.427 . S
N783 C781 1.384 . S
C215 C3 1.463 . S
C219 C83 1.462 . S
C233 C16 1.464 . S
C237 C96 1.461 . S
C251 C55 1.463 . S
C255 C31 1.463 . S
C269 C70 1.460 . S
C273 C44 1.466 . S
C287 C187 1.460 . S
C291 C109 1.466 . S
C305 C200 1.461 . S
C309 C120 1.465 . S
C323 C135 1.462 . S
C327 C161 1.463 . S
C341 C146 1.464 . S
C345 C174 1.461 . S
C359 C4 1.562 . S
C363 C68 1.567 . S
C377 C17 1.563 . S
C381 C57 1.569 . S
C395 C36 1.563 . S
C399 C94 1.569 . S
C413 C81 1.565 . S
C417 C49 1.564 . S
C431 C172 1.568 . S
C435 C114 1.569 . S
C449 C159 1.568 . S
C453 C121 1.569 . S
C467 C140 1.569 . S
C471 C198 1.564 . S
C485 C185 1.564 . S
C489 C147 1.569 . S
C503 C160 1.478 . S
C507 C10 1.481 . S
C521 C23 1.484 . S
C525 C173 1.483 . S
C539 C186 1.477 . S
C543 C30 1.479 . S
C557 C199 1.477 . S
C561 C43 1.479 . S
C575 C108 1.479 . S
C579 C62 1.476 . S
C593 C127 1.479 . S
C597 C69 1.477 . S
C611 C82 1.481 . S
C615 C134 1.484 . S
C629 C95 1.483 . S
C633 C153 1.485 . S
C647 C29 1.733 . S
C651 C5 1.734 . S
C665 C18 1.737 . S
C669 C42 1.736 . S
C683 C88 1.367 . S
C687 C56 1.370 . S
C701 C75 1.373 . S
C705 C101 1.370 . S
C719 C133 1.732 . S
C723 C107 1.733 . S
C737 C148 1.737 . S
C741 C122 1.736 . S
C755 C192 1.372 . S
C759 C166 1.373 . S
C773 C205 1.367 . S
C777 C179 1.370 . S
