# Generated by pormake.
# Topology lcv-a, (4)-cn, num edge types: 1
# Building blocks:
#     Node 0, Type 0, BuildingBlock: QUQFOY_clean_sbu_1, # of connection points: 4
#     Node 1, Type 0, BuildingBlock: QUQFOY_clean_sbu_1, # of connection points: 4
#     Node 2, Type 0, BuildingBlock: QUQFOY_clean_sbu_1, # of connection points: 4
#     Node 3, Type 0, BuildingBlock: QUQFOY_clean_sbu_1, # of connection points: 4
#     Node 4, Type 0, BuildingBlock: QUQFOY_clean_sbu_1, # of connection points: 4
#     Node 5, Type 0, BuildingBlock: QUQFOY_clean_sbu_1, # of connection points: 4
#     Node 6, Type 0, BuildingBlock: QUQFOY_clean_sbu_1, # of connection points: 4
#     Node 7, Type 0, BuildingBlock: QUQFOY_clean_sbu_1, # of connection points: 4
#     Node 8, Type 0, BuildingBlock: QUQFOY_clean_sbu_1, # of connection points: 4
#     Node 9, Type 0, BuildingBlock: QUQFOY_clean_sbu_1, # of connection points: 4
#     Node 10, Type 0, BuildingBlock: QUQFOY_clean_sbu_1, # of connection points: 4
#     Node 11, Type 0, BuildingBlock: QUQFOY_clean_sbu_1, # of connection points: 4
#     Node 12, Type 0, BuildingBlock: QUQFOY_clean_sbu_1, # of connection points: 4
#     Node 13, Type 0, BuildingBlock: QUQFOY_clean_sbu_1, # of connection points: 4
#     Node 14, Type 0, BuildingBlock: QUQFOY_clean_sbu_1, # of connection points: 4
#     Node 15, Type 0, BuildingBlock: QUQFOY_clean_sbu_1, # of connection points: 4
#     Node 16, Type 0, BuildingBlock: QUQFOY_clean_sbu_1, # of connection points: 4
#     Node 17, Type 0, BuildingBlock: QUQFOY_clean_sbu_1, # of connection points: 4
#     Node 18, Type 0, BuildingBlock: QUQFOY_clean_sbu_1, # of connection points: 4
#     Node 19, Type 0, BuildingBlock: QUQFOY_clean_sbu_1, # of connection points: 4
#     Node 20, Type 0, BuildingBlock: QUQFOY_clean_sbu_1, # of connection points: 4
#     Node 21, Type 0, BuildingBlock: QUQFOY_clean_sbu_1, # of connection points: 4
#     Node 22, Type 0, BuildingBlock: QUQFOY_clean_sbu_1, # of connection points: 4
#     Node 23, Type 0, BuildingBlock: QUQFOY_clean_sbu_1, # of connection points: 4
#     Node 24, Type 0, BuildingBlock: QUQFOY_clean_sbu_1, # of connection points: 4
#     Node 25, Type 0, BuildingBlock: QUQFOY_clean_sbu_1, # of connection points: 4
#     Node 26, Type 0, BuildingBlock: QUQFOY_clean_sbu_1, # of connection points: 4
#     Node 27, Type 0, BuildingBlock: QUQFOY_clean_sbu_1, # of connection points: 4
#     Node 28, Type 0, BuildingBlock: QUQFOY_clean_sbu_1, # of connection points: 4
#     Node 29, Type 0, BuildingBlock: QUQFOY_clean_sbu_1, # of connection points: 4
#     Node 30, Type 0, BuildingBlock: QUQFOY_clean_sbu_1, # of connection points: 4
#     Node 31, Type 0, BuildingBlock: QUQFOY_clean_sbu_1, # of connection points: 4
#     Node 32, Type 0, BuildingBlock: QUQFOY_clean_sbu_1, # of connection points: 4
#     Node 33, Type 0, BuildingBlock: QUQFOY_clean_sbu_1, # of connection points: 4
#     Node 34, Type 0, BuildingBlock: QUQFOY_clean_sbu_1, # of connection points: 4
#     Node 35, Type 0, BuildingBlock: QUQFOY_clean_sbu_1, # of connection points: 4
#     Node 36, Type 0, BuildingBlock: QUQFOY_clean_sbu_1, # of connection points: 4
#     Node 37, Type 0, BuildingBlock: QUQFOY_clean_sbu_1, # of connection points: 4
#     Node 38, Type 0, BuildingBlock: QUQFOY_clean_sbu_1, # of connection points: 4
#     Node 39, Type 0, BuildingBlock: QUQFOY_clean_sbu_1, # of connection points: 4
#     Node 40, Type 0, BuildingBlock: QUQFOY_clean_sbu_1, # of connection points: 4
#     Node 41, Type 0, BuildingBlock: QUQFOY_clean_sbu_1, # of connection points: 4
#     Node 42, Type 0, BuildingBlock: QUQFOY_clean_sbu_1, # of connection points: 4
#     Node 43, Type 0, BuildingBlock: QUQFOY_clean_sbu_1, # of connection points: 4
#     Node 44, Type 0, BuildingBlock: QUQFOY_clean_sbu_1, # of connection points: 4
#     Node 45, Type 0, BuildingBlock: QUQFOY_clean_sbu_1, # of connection points: 4
#     Node 46, Type 0, BuildingBlock: QUQFOY_clean_sbu_1, # of connection points: 4
#     Node 47, Type 0, BuildingBlock: QUQFOY_clean_sbu_1, # of connection points: 4
#     Edge 48, Type (0, 0), BuildingBlock: KIFKEQ_clean_linker_1, # of connection points: 2
#     Edge 49, Type (0, 0), BuildingBlock: KIFKEQ_clean_linker_1, # of connection points: 2
#     Edge 50, Type (0, 0), BuildingBlock: KIFKEQ_clean_linker_1, # of connection points: 2
#     Edge 51, Type (0, 0), BuildingBlock: KIFKEQ_clean_linker_1, # of connection points: 2
#     Edge 52, Type (0, 0), BuildingBlock: KIFKEQ_clean_linker_1, # of connection points: 2
#     Edge 53, Type (0, 0), BuildingBlock: KIFKEQ_clean_linker_1, # of connection points: 2
#     Edge 54, Type (0, 0), BuildingBlock: KIFKEQ_clean_linker_1, # of connection points: 2
#     Edge 55, Type (0, 0), BuildingBlock: KIFKEQ_clean_linker_1, # of connection points: 2
#     Edge 56, Type (0, 0), BuildingBlock: KIFKEQ_clean_linker_1, # of connection points: 2
#     Edge 57, Type (0, 0), BuildingBlock: KIFKEQ_clean_linker_1, # of connection points: 2
#     Edge 58, Type (0, 0), BuildingBlock: KIFKEQ_clean_linker_1, # of connection points: 2
#     Edge 59, Type (0, 0), BuildingBlock: KIFKEQ_clean_linker_1, # of connection points: 2
#     Edge 60, Type (0, 0), BuildingBlock: KIFKEQ_clean_linker_1, # of connection points: 2
#     Edge 61, Type (0, 0), BuildingBlock: KIFKEQ_clean_linker_1, # of connection points: 2
#     Edge 62, Type (0, 0), BuildingBlock: KIFKEQ_clean_linker_1, # of connection points: 2
#     Edge 63, Type (0, 0), BuildingBlock: KIFKEQ_clean_linker_1, # of connection points: 2
#     Edge 64, Type (0, 0), BuildingBlock: KIFKEQ_clean_linker_1, # of connection points: 2
#     Edge 65, Type (0, 0), BuildingBlock: KIFKEQ_clean_linker_1, # of connection points: 2
#     Edge 66, Type (0, 0), BuildingBlock: KIFKEQ_clean_linker_1, # of connection points: 2
#     Edge 67, Type (0, 0), BuildingBlock: KIFKEQ_clean_linker_1, # of connection points: 2
#     Edge 68, Type (0, 0), BuildingBlock: KIFKEQ_clean_linker_1, # of connection points: 2
#     Edge 69, Type (0, 0), BuildingBlock: KIFKEQ_clean_linker_1, # of connection points: 2
#     Edge 70, Type (0, 0), BuildingBlock: KIFKEQ_clean_linker_1, # of connection points: 2
#     Edge 71, Type (0, 0), BuildingBlock: KIFKEQ_clean_linker_1, # of connection points: 2
#     Edge 72, Type (0, 0), BuildingBlock: KIFKEQ_clean_linker_1, # of connection points: 2
#     Edge 73, Type (0, 0), BuildingBlock: KIFKEQ_clean_linker_1, # of connection points: 2
#     Edge 74, Type (0, 0), BuildingBlock: KIFKEQ_clean_linker_1, # of connection points: 2
#     Edge 75, Type (0, 0), BuildingBlock: KIFKEQ_clean_linker_1, # of connection points: 2
#     Edge 76, Type (0, 0), BuildingBlock: KIFKEQ_clean_linker_1, # of connection points: 2
#     Edge 77, Type (0, 0), BuildingBlock: KIFKEQ_clean_linker_1, # of connection points: 2
#     Edge 78, Type (0, 0), BuildingBlock: KIFKEQ_clean_linker_1, # of connection points: 2
#     Edge 79, Type (0, 0), BuildingBlock: KIFKEQ_clean_linker_1, # of connection points: 2
#     Edge 80, Type (0, 0), BuildingBlock: KIFKEQ_clean_linker_1, # of connection points: 2
#     Edge 81, Type (0, 0), BuildingBlock: KIFKEQ_clean_linker_1, # of connection points: 2
#     Edge 82, Type (0, 0), BuildingBlock: KIFKEQ_clean_linker_1, # of connection points: 2
#     Edge 83, Type (0, 0), BuildingBlock: KIFKEQ_clean_linker_1, # of connection points: 2
#     Edge 84, Type (0, 0), BuildingBlock: KIFKEQ_clean_linker_1, # of connection points: 2
#     Edge 85, Type (0, 0), BuildingBlock: KIFKEQ_clean_linker_1, # of connection points: 2
#     Edge 86, Type (0, 0), BuildingBlock: KIFKEQ_clean_linker_1, # of connection points: 2
#     Edge 87, Type (0, 0), BuildingBlock: KIFKEQ_clean_linker_1, # of connection points: 2
#     Edge 88, Type (0, 0), BuildingBlock: KIFKEQ_clean_linker_1, # of connection points: 2
#     Edge 89, Type (0, 0), BuildingBlock: KIFKEQ_clean_linker_1, # of connection points: 2
#     Edge 90, Type (0, 0), BuildingBlock: KIFKEQ_clean_linker_1, # of connection points: 2
#     Edge 91, Type (0, 0), BuildingBlock: KIFKEQ_clean_linker_1, # of connection points: 2
#     Edge 92, Type (0, 0), BuildingBlock: KIFKEQ_clean_linker_1, # of connection points: 2
#     Edge 93, Type (0, 0), BuildingBlock: KIFKEQ_clean_linker_1, # of connection points: 2
#     Edge 94, Type (0, 0), BuildingBlock: KIFKEQ_clean_linker_1, # of connection points: 2
#     Edge 95, Type (0, 0), BuildingBlock: KIFKEQ_clean_linker_1, # of connection points: 2
#     Edge 96, Type (0, 0), BuildingBlock: KIFKEQ_clean_linker_1, # of connection points: 2
#     Edge 97, Type (0, 0), BuildingBlock: KIFKEQ_clean_linker_1, # of connection points: 2
#     Edge 98, Type (0, 0), BuildingBlock: KIFKEQ_clean_linker_1, # of connection points: 2
#     Edge 99, Type (0, 0), BuildingBlock: KIFKEQ_clean_linker_1, # of connection points: 2
#     Edge 100, Type (0, 0), BuildingBlock: KIFKEQ_clean_linker_1, # of connection points: 2
#     Edge 101, Type (0, 0), BuildingBlock: KIFKEQ_clean_linker_1, # of connection points: 2
#     Edge 102, Type (0, 0), BuildingBlock: KIFKEQ_clean_linker_1, # of connection points: 2
#     Edge 103, Type (0, 0), BuildingBlock: KIFKEQ_clean_linker_1, # of connection points: 2
#     Edge 104, Type (0, 0), BuildingBlock: KIFKEQ_clean_linker_1, # of connection points: 2
#     Edge 105, Type (0, 0), BuildingBlock: KIFKEQ_clean_linker_1, # of connection points: 2
#     Edge 106, Type (0, 0), BuildingBlock: KIFKEQ_clean_linker_1, # of connection points: 2
#     Edge 107, Type (0, 0), BuildingBlock: KIFKEQ_clean_linker_1, # of connection points: 2
#     Edge 108, Type (0, 0), BuildingBlock: KIFKEQ_clean_linker_1, # of connection points: 2
#     Edge 109, Type (0, 0), BuildingBlock: KIFKEQ_clean_linker_1, # of connection points: 2
#     Edge 110, Type (0, 0), BuildingBlock: KIFKEQ_clean_linker_1, # of connection points: 2
#     Edge 111, Type (0, 0), BuildingBlock: KIFKEQ_clean_linker_1, # of connection points: 2
#     Edge 112, Type (0, 0), BuildingBlock: KIFKEQ_clean_linker_1, # of connection points: 2
#     Edge 113, Type (0, 0), BuildingBlock: KIFKEQ_clean_linker_1, # of connection points: 2
#     Edge 114, Type (0, 0), BuildingBlock: KIFKEQ_clean_linker_1, # of connection points: 2
#     Edge 115, Type (0, 0), BuildingBlock: KIFKEQ_clean_linker_1, # of connection points: 2
#     Edge 116, Type (0, 0), BuildingBlock: KIFKEQ_clean_linker_1, # of connection points: 2
#     Edge 117, Type (0, 0), BuildingBlock: KIFKEQ_clean_linker_1, # of connection points: 2
#     Edge 118, Type (0, 0), BuildingBlock: KIFKEQ_clean_linker_1, # of connection points: 2
#     Edge 119, Type (0, 0), BuildingBlock: KIFKEQ_clean_linker_1, # of connection points: 2
#     Edge 120, Type (0, 0), BuildingBlock: KIFKEQ_clean_linker_1, # of connection points: 2
#     Edge 121, Type (0, 0), BuildingBlock: KIFKEQ_clean_linker_1, # of connection points: 2
#     Edge 122, Type (0, 0), BuildingBlock: KIFKEQ_clean_linker_1, # of connection points: 2
#     Edge 123, Type (0, 0), BuildingBlock: KIFKEQ_clean_linker_1, # of connection points: 2
#     Edge 124, Type (0, 0), BuildingBlock: KIFKEQ_clean_linker_1, # of connection points: 2
#     Edge 125, Type (0, 0), BuildingBlock: KIFKEQ_clean_linker_1, # of connection points: 2
#     Edge 126, Type (0, 0), BuildingBlock: KIFKEQ_clean_linker_1, # of connection points: 2
#     Edge 127, Type (0, 0), BuildingBlock: KIFKEQ_clean_linker_1, # of connection points: 2
#     Edge 128, Type (0, 0), BuildingBlock: KIFKEQ_clean_linker_1, # of connection points: 2
#     Edge 129, Type (0, 0), BuildingBlock: KIFKEQ_clean_linker_1, # of connection points: 2
#     Edge 130, Type (0, 0), BuildingBlock: KIFKEQ_clean_linker_1, # of connection points: 2
#     Edge 131, Type (0, 0), BuildingBlock: KIFKEQ_clean_linker_1, # of connection points: 2
#     Edge 132, Type (0, 0), BuildingBlock: KIFKEQ_clean_linker_1, # of connection points: 2
#     Edge 133, Type (0, 0), BuildingBlock: KIFKEQ_clean_linker_1, # of connection points: 2
#     Edge 134, Type (0, 0), BuildingBlock: KIFKEQ_clean_linker_1, # of connection points: 2
#     Edge 135, Type (0, 0), BuildingBlock: KIFKEQ_clean_linker_1, # of connection points: 2
#     Edge 136, Type (0, 0), BuildingBlock: KIFKEQ_clean_linker_1, # of connection points: 2
#     Edge 137, Type (0, 0), BuildingBlock: KIFKEQ_clean_linker_1, # of connection points: 2
#     Edge 138, Type (0, 0), BuildingBlock: KIFKEQ_clean_linker_1, # of connection points: 2
#     Edge 139, Type (0, 0), BuildingBlock: KIFKEQ_clean_linker_1, # of connection points: 2
#     Edge 140, Type (0, 0), BuildingBlock: KIFKEQ_clean_linker_1, # of connection points: 2
#     Edge 141, Type (0, 0), BuildingBlock: KIFKEQ_clean_linker_1, # of connection points: 2
#     Edge 142, Type (0, 0), BuildingBlock: KIFKEQ_clean_linker_1, # of connection points: 2
#     Edge 143, Type (0, 0), BuildingBlock: KIFKEQ_clean_linker_1, # of connection points: 2
# Relax obj value: 0.767
# Max RMSD: 0.377
# Mean RMSD: 0.346
data_MOF--net-lcv-a--node1-QUQFOY_clean_sbu_1--edge1-KIFKEQ_clean_linker_1
_symmetry_space_group_name_H-M    P1
_symmetry_Int_Tables_number       1
_symmetry_cell_setting            triclinic
loop_
_symmetry_equiv_pos_as_xyz
'x, y, z'
_cell_length_a     92.985236
_cell_length_b     93.234403
_cell_length_c     93.210876
_cell_angle_alpha  89.625086
_cell_angle_beta   89.552185
_cell_angle_gamma 89.563761
loop_
_atom_site_label
_atom_site_type_symbol
_atom_site_fract_x
_atom_site_fract_y
_atom_site_fract_z
_atom_type_partial_charge
O0 O 0.98134 0.32911 0.21512 0.0
Cd1 Cd 1.00197 0.33496 0.2112 0.0
Cd2 Cd 1.00461 0.31859 0.23294 0.0
O3 O 0.98664 0.33192 0.23755 0.0
O4 O 1.00207 0.35523 0.2032 0.0
O5 O 0.0087 0.34971 0.2253 0.0
C6 C 1.00572 0.35946 0.21587 0.0
C7 C 0.02744 0.31936 0.24281 0.0
C8 C 0.97741 0.33286 0.22756 0.0
C9 C 0.01033 0.30566 0.2048 0.0
O10 O 1.00429 0.30315 0.21687 0.0
O11 O 0.01313 0.31856 0.20108 0.0
O12 O 0.01735 0.31204 0.24901 0.0
O13 O 0.02405 0.3273 0.23195 0.0
O14 O 0.96879 0.73362 0.43066 0.0
Cd15 Cd 0.97573 0.7451 0.44771 0.0
Cd16 Cd 0.99486 0.72321 0.4456 0.0
O17 O 0.97849 0.71237 0.43523 0.0
O18 O 0.95797 0.75632 0.45399 0.0
O19 O 0.96639 0.7376 0.46594 0.0
C20 C 0.9562 0.74684 0.46406 0.0
C21 C 1.00419 0.72545 0.46844 0.0
C22 C 0.96952 0.72021 0.42839 0.0
C23 C 1.00563 0.75048 0.43599 0.0
O24 O 1.00512 0.73735 0.43257 0.0
O25 O 0.99591 0.75582 0.44434 0.0
O26 O 0.00945 0.71576 0.45994 0.0
O27 O 0.99259 0.73193 0.46458 0.0
O28 O 0.5956 0.74588 0.74289 0.0
Cd29 Cd 0.58986 0.73748 0.72372 0.0
Cd30 Cd 0.58752 0.77075 0.74519 0.0
O31 O 0.60762 0.7633 0.75141 0.0
O32 O 0.60227 0.72071 0.71854 0.0
O33 O 0.58026 0.71827 0.72723 0.0
C34 C 0.59248 0.71242 0.72381 0.0
C35 C 0.56774 0.77875 0.75768 0.0
C36 C 0.60783 0.75131 0.74512 0.0
C37 C 0.58369 0.76723 0.71056 0.0
O38 O 0.58473 0.77219 0.72323 0.0
O39 O 0.5849 0.75368 0.70805 0.0
O40 O 0.57829 0.78732 0.7547 0.0
O41 O 0.56937 0.7652 0.75503 0.0
O42 O 0.59001 0.35705 0.95057 0.0
Cd43 Cd 0.59373 0.33803 0.96022 0.0
Cd44 Cd 0.57304 0.34759 0.97525 0.0
O45 O 0.58696 0.36537 0.97221 0.0
O46 O 0.61532 0.33335 0.95961 0.0
O47 O 0.60414 0.34154 0.97888 0.0
C48 C 0.61609 0.33827 0.97257 0.0
C49 C 0.57073 0.33066 0.9937 0.0
C50 C 0.59092 0.36739 0.95921 0.0
C51 C 0.56442 0.32919 0.95244 0.0
O52 O 0.56086 0.34106 0.95815 0.0
O53 O 0.5771 0.32408 0.95436 0.0
O54 O 0.56294 0.34224 0.99378 0.0
O55 O 0.58067 0.32955 0.9841 0.0
O56 O 0.98485 0.76999 0.37902 0.0
Cd57 Cd 1.00474 0.76228 0.3837 0.0
Cd58 Cd 0.01057 0.77978 0.36319 0.0
O59 O 0.99183 0.76893 0.35676 0.0
O60 O 1.00295 0.74143 0.39008 0.0
O61 O 0.01144 0.74787 0.36884 0.0
C62 C 0.00721 0.73775 0.37736 0.0
C63 C 0.03334 0.77741 0.35316 0.0
C64 C 0.98179 0.76772 0.36605 0.0
C65 C 0.01578 0.79058 0.39223 0.0
O66 O 0.01113 0.79446 0.37997 0.0
O67 O 0.01638 0.77723 0.3954 0.0
O68 O 0.0241 0.78638 0.34784 0.0
O69 O 0.02911 0.76891 0.36328 0.0
O70 O 0.61444 0.74512 0.64756 0.0
Cd71 Cd 0.60458 0.75329 0.62969 0.0
Cd72 Cd 0.58964 0.73023 0.63654 0.0
O73 O 0.60776 0.72249 0.6468 0.0
O74 O 0.62023 0.76555 0.62063 0.0
O75 O 0.61305 0.74514 0.61133 0.0
C76 C 0.62213 0.75551 0.61127 0.0
C77 C 0.5769 0.72728 0.61585 0.0
C78 C 0.61574 0.73224 0.65193 0.0
C79 C 0.57562 0.75699 0.64359 0.0
O80 O 0.57853 0.74463 0.64855 0.0
O81 O 0.58364 0.7624 0.63368 0.0
O82 O 0.57434 0.71899 0.62678 0.0
O83 O 0.58829 0.73506 0.61604 0.0
O84 O 0.6202 0.34818 0.87649 0.0
Cd85 Cd 0.60194 0.35279 0.88758 0.0
Cd86 Cd 0.62009 0.32161 0.87672 0.0
O87 O 0.63783 0.33432 0.88136 0.0
O88 O 0.60182 0.37298 0.89458 0.0
O89 O 0.58996 0.36602 0.87534 0.0
C90 C 0.59474 0.37637 0.88314 0.0
C91 C 0.60865 0.31618 0.85551 0.0
C92 C 0.63218 0.34663 0.88262 0.0
C93 C 0.59761 0.32232 0.90186 0.0
O94 O 0.60741 0.31647 0.89417 0.0
O95 O 0.59366 0.33554 0.90037 0.0
O96 O 0.61847 0.30768 0.86059 0.0
O97 O 0.60668 0.32844 0.86162 0.0
O98 O 0.97211 0.35328 0.15342 0.0
Cd99 Cd 0.97916 0.33908 0.13813 0.0
Cd100 Cd 0.99876 0.35999 0.13779 0.0
O101 O 0.98346 0.37314 0.14728 0.0
O102 O 0.96126 0.32751 0.13446 0.0
O103 O 0.97013 0.34303 0.11883 0.0
C104 C 0.95975 0.33473 0.12267 0.0
C105 C 0.00802 0.3568 0.11497 0.0
C106 C 0.97377 0.36674 0.15456 0.0
C107 C 0.00842 0.33303 0.15029 0.0
O108 O 0.00879 0.34653 0.15183 0.0
O109 O 0.99837 0.32733 0.14294 0.0
O110 O 0.01368 0.36621 0.12335 0.0
O111 O 0.99618 0.35087 0.11898 0.0
O112 O 0.19543 0.991 0.36024 0.0
Cd113 Cd 0.21307 1.00079 0.35169 0.0
Cd114 Cd 0.20918 0.9786 0.3352 0.0
O115 O 0.19908 0.96893 0.35256 0.0
O116 O 0.22037 0.01225 0.36846 0.0
O117 O 0.23131 0.99278 0.36034 0.0
C118 C 0.23008 1.00238 0.37017 0.0
C119 C 0.23059 0.97794 0.32278 0.0
C120 C 0.19258 0.97771 0.36086 0.0
C121 C 0.20027 1.00557 0.32286 0.0
O122 O 0.19621 0.99275 0.32482 0.0
O123 O 0.20949 0.01103 0.3314 0.0
O124 O 0.22048 0.96906 0.31951 0.0
O125 O 0.22928 0.98508 0.33451 0.0
O126 O 0.34457 0.99405 0.59079 0.0
Cd127 Cd 0.3401 0.97434 0.59909 0.0
Cd128 Cd 0.3368 0.99661 0.56592 0.0
O129 O 0.35628 1.00391 0.57354 0.0
O130 O 0.35284 0.96946 0.61553 0.0
O131 O 0.3303 0.97658 0.61846 0.0
C132 C 0.34272 0.97373 0.62406 0.0
C133 C 0.31658 0.00784 0.5574 0.0
C134 C 0.3567 0.99729 0.58542 0.0
C135 C 0.3351 0.96165 0.56938 0.0
O136 O 0.33542 0.97453 0.56469 0.0
O137 O 0.33629 0.95878 0.58286 0.0
O138 O 0.32756 1.00552 0.54906 0.0
O139 O 0.31793 1.00533 0.57102 0.0
O140 O 0.37513 0.11483 0.85447 0.0
Cd141 Cd 0.38387 0.09737 0.86418 0.0
Cd142 Cd 0.37534 0.1127 0.82811 0.0
O143 O 0.38094 0.13107 0.8392 0.0
O144 O 0.3903 0.10114 0.88427 0.0
O145 O 0.3702 0.08967 0.87929 0.0
C146 C 0.37826 0.09577 0.88871 0.0
C147 C 0.35651 0.10659 0.8138 0.0
C148 C 0.38194 0.1263 0.85189 0.0
C149 C 0.39694 0.08629 0.83569 0.0
O150 O 0.39003 0.09595 0.82882 0.0
O151 O 0.39576 0.08452 0.84938 0.0
O152 O 0.36734 0.11364 0.80858 0.0
O153 O 0.35552 0.105 0.8276 0.0
O154 O 0.25318 0.1514 0.122 0.0
Cd155 Cd 0.2602 0.13258 0.11321 0.0
Cd156 Cd 0.23949 0.14038 0.09681 0.0
O157 O 0.2308 0.15087 0.11438 0.0
O158 O 0.26938 0.12174 0.12978 0.0
O159 O 0.24824 0.11614 0.12087 0.0
C160 C 0.25765 0.11438 0.13082 0.0
C161 C 0.23673 0.12084 0.08238 0.0
C162 C 0.24031 0.15609 0.12261 0.0
C163 C 0.26723 0.14586 0.08493 0.0
O164 O 0.25528 0.15197 0.08747 0.0
O165 O 0.27117 0.13526 0.09291 0.0
O166 O 0.22914 0.13235 0.08 0.0
O167 O 0.24337 0.11971 0.09443 0.0
O168 O 0.21464 0.10377 0.25546 0.0
Cd169 Cd 0.21337 0.08266 0.25051 0.0
Cd170 Cd 0.23394 0.08316 0.26818 0.0
O171 O 0.23779 0.10081 0.25433 0.0
O172 O 0.20766 0.08115 0.22961 0.0
O173 O 0.22957 0.07637 0.23744 0.0
C174 C 0.22103 0.07833 0.22672 0.0
C175 C 0.24737 0.06226 0.27078 0.0
C176 C 0.22684 0.10884 0.25235 0.0
C177 C 0.20524 0.07558 0.27965 0.0
O178 O 0.2165 0.08275 0.28235 0.0
O179 O 0.20276 0.07164 0.2668 0.0
O180 O 0.25057 0.07365 0.27791 0.0
O181 O 0.23753 0.06329 0.26113 0.0
O182 O 0.24172 0.93323 0.4777 0.0
Cd183 Cd 0.25544 0.94847 0.48542 0.0
Cd184 Cd 0.23345 0.94693 0.5052 0.0
O185 O 0.22142 0.93697 0.48966 0.0
O186 O 0.26761 0.95267 0.46776 0.0
O187 O 0.2518 0.96807 0.47655 0.0
C188 C 0.26042 0.9645 0.46627 0.0
C189 C 0.23482 0.97026 0.51321 0.0
C190 C 0.22835 0.93098 0.47946 0.0
C191 C 0.2612 0.93594 0.51505 0.0
O192 O 0.24772 0.93393 0.51565 0.0
O193 O 0.26671 0.94338 0.50477 0.0
O194 O 0.22592 0.96148 0.51932 0.0
O195 O 0.2414 0.96613 0.50175 0.0
O196 O 0.37934 0.97983 0.75321 0.0
Cd197 Cd 0.37914 1.00098 0.74787 0.0
Cd198 Cd 0.35729 0.99815 0.76389 0.0
O199 O 0.35622 0.98031 0.75008 0.0
O200 O 0.38599 1.00308 0.7273 0.0
O201 O 0.36328 0.00566 0.73407 0.0
C202 C 0.37259 1.0045 0.7238 0.0
C203 C 0.34235 0.01799 0.76608 0.0
C204 C 0.3681 0.97348 0.74924 0.0
C205 C 0.38434 0.00808 0.77699 0.0
O206 O 0.37371 0.9997 0.77871 0.0
O207 O 0.38751 0.01285 0.76449 0.0
O208 O 0.33953 0.00628 0.77305 0.0
O209 O 0.35263 0.01777 0.75671 0.0
O210 O 0.36786 0.12597 0.01799 0.0
Cd211 Cd 0.3474 0.13047 0.01188 0.0
Cd212 Cd 0.34416 0.1096 0.02882 0.0
O213 O 0.36198 0.10362 0.01588 0.0
O214 O 0.34809 0.13791 0.99148 0.0
O215 O 0.34004 0.11637 0.99739 0.0
C216 C 0.34381 0.12537 0.98747 0.0
C217 C 0.32159 0.09936 0.03015 0.0
C218 C 0.3715 0.11331 0.01475 0.0
C219 C 0.33953 0.13853 0.04066 0.0
O220 O 0.34516 0.12635 0.04348 0.0
O221 O 0.33671 0.1419 0.02767 0.0
O222 O 0.33213 0.09426 0.03765 0.0
O223 O 0.32437 0.10919 0.02071 0.0
O224 O 0.37462 0.18841 0.99597 0.0
Cd225 Cd 0.36624 0.204 0.00919 0.0
Cd226 Cd 0.34698 0.20196 0.98742 0.0
O227 O 0.36314 0.19213 0.9756 0.0
O228 O 0.38349 0.20926 0.02123 0.0
O229 O 0.37435 0.22366 1.00475 0.0
C230 C 0.38456 0.22085 0.01361 0.0
C231 C 0.33757 0.22492 0.98862 0.0
C232 C 0.3732 0.18606 0.98264 0.0
C233 C 0.33699 0.19103 0.01509 0.0
O234 O 0.33685 0.18878 1.00169 0.0
O235 O 0.34682 0.19886 0.02056 0.0
O236 O 0.33214 0.21583 0.97977 0.0
O237 O 0.34919 0.22136 0.99518 0.0
O238 O 0.85298 0.40195 0.10376 0.0
Cd239 Cd 0.84418 0.38453 0.09418 0.0
Cd240 Cd 0.82817 0.38888 0.11895 0.0
O241 O 0.84561 0.40034 0.12632 0.0
O242 O 0.86046 0.37792 0.08099 0.0
O243 O 0.85368 0.36593 0.10032 0.0
C244 C 0.86286 0.36764 0.09007 0.0
C245 C 0.81938 0.36585 0.12044 0.0
C246 C 0.85369 0.40598 0.11673 0.0
C247 C 0.81413 0.39677 0.09201 0.0
O248 O 0.81603 0.40034 0.10496 0.0
O249 O 0.82312 0.38831 0.08571 0.0
O250 O 0.81461 0.37542 0.12935 0.0
O251 O 0.83025 0.36908 0.11252 0.0
O252 O 0.9744 0.60676 0.36032 0.0
Cd253 Cd 0.96492 0.61705 0.34359 0.0
Cd254 Cd 0.97403 0.58101 0.35515 0.0
O255 O 0.96943 0.58984 0.37507 0.0
O256 O 0.9592 0.63708 0.34909 0.0
O257 O 0.97839 0.6324 0.33577 0.0
C258 C 0.97098 0.64157 0.34323 0.0
C259 C 0.99424 0.57124 0.3447 0.0
C260 C 0.96745 0.60278 0.37138 0.0
C261 C 0.94937 0.58941 0.33291 0.0
O262 O 0.957 0.58156 0.34116 0.0
O263 O 0.95117 0.6031 0.3316 0.0
O264 O 0.98567 0.56337 0.3524 0.0
O265 O 0.9922 0.585 0.34457 0.0
O266 O 0.73046 0.6937 0.58072 0.0
Cd267 Cd 0.73767 0.71104 0.56957 0.0
Cd268 Cd 0.75543 0.70861 0.5914 0.0
O269 O 0.73852 0.69884 0.60227 0.0
O270 O 0.71974 0.71701 0.55872 0.0
O271 O 0.72811 0.72912 0.5771 0.0
C272 C 0.71782 0.72694 0.56822 0.0
C273 C 0.76618 0.73073 0.58974 0.0
C274 C 0.73012 0.69181 0.59421 0.0
C275 C 0.76723 0.69902 0.56442 0.0
O276 O 0.76593 0.6954 0.5775 0.0
O277 O 0.75796 0.70766 0.55881 0.0
O278 O 0.77067 0.72153 0.59921 0.0
O279 O 0.75433 0.72812 0.58327 0.0
O280 O 0.10087 0.99413 0.34214 0.0
Cd281 Cd 0.12007 0.98746 0.3341 0.0
Cd282 Cd 0.09808 0.01971 0.33707 0.0
O283 O 0.0931 0.01008 0.35665 0.0
O284 O 0.12724 0.96947 0.3435 0.0
O285 O 0.11647 0.96965 0.32242 0.0
C286 C 0.12135 0.96239 0.33326 0.0
C287 C 0.08464 0.02497 0.31715 0.0
C288 C 0.09907 0.99796 0.35504 0.0
C289 C 0.13212 0.01845 0.3305 0.0
O290 O 0.11967 0.02364 0.33338 0.0
O291 O 0.13449 1.00481 0.32965 0.0
O292 O 0.08548 0.03409 0.32753 0.0
O293 O 0.08995 0.01223 0.31903 0.0
O294 O 0.26673 0.87535 0.48206 0.0
Cd295 Cd 0.26055 0.87996 0.50243 0.0
Cd296 Cd 0.27819 0.85947 0.50645 0.0
O297 O 0.26567 0.85303 0.48878 0.0
O298 O 0.23986 0.88708 0.50245 0.0
O299 O 0.24634 0.86547 0.51001 0.0
C300 C 0.23616 0.87439 0.50676 0.0
C301 C 0.27789 0.85102 0.5299 0.0
C302 C 0.2642 0.86244 0.47893 0.0
C303 C 0.28966 0.88823 0.51015 0.0
O304 O 0.29295 0.87607 0.50486 0.0
O305 O 0.27648 0.89133 0.51269 0.0
O306 O 0.28548 0.84454 0.52017 0.0
O307 O 0.26931 0.8612 0.52589 0.0
O308 O 0.99181 0.49429 0.23092 0.0
Cd309 Cd 0.97463 0.48578 0.24161 0.0
Cd310 Cd 0.9943 0.51976 0.23692 0.0
O311 O 0.99682 0.51151 0.21648 0.0
O312 O 0.96804 0.46747 0.23295 0.0
O313 O 0.98119 0.46804 0.25255 0.0
C314 C 0.97563 0.46063 0.24231 0.0
C315 C 0.01014 0.52891 0.25305 0.0
C316 C 0.99104 0.49939 0.21829 0.0
C317 C 0.96146 0.5153 0.24855 0.0
O318 O 0.97333 0.52083 0.24449 0.0
O319 O 0.95948 0.50164 0.24872 0.0
O320 O 1.00483 0.53695 0.24298 0.0
O321 O 0.00778 0.51523 0.25269 0.0
O322 O 0.62727 0.58212 0.7317 0.0
Cd323 Cd 0.63156 0.58879 0.75189 0.0
Cd324 Cd 0.61178 0.5708 0.75627 0.0
O325 O 0.60481 0.58278 0.73823 0.0
O326 O 0.638 0.60948 0.75103 0.0
O327 O 0.61659 0.60284 0.75906 0.0
C328 C 0.62518 0.61305 0.7553 0.0
C329 C 0.60236 0.57032 0.77935 0.0
C330 C 0.61428 0.58436 0.72842 0.0
C331 C 0.64121 0.5604 0.76059 0.0
O332 O 0.62923 0.55674 0.75527 0.0
O333 O 0.64374 0.57365 0.76278 0.0
O334 O 0.59717 0.5622 0.76947 0.0
O335 O 0.61171 0.57984 0.77562 0.0
O336 O 0.48441 0.85976 0.69009 0.0
Cd337 Cd 0.49891 0.8528 0.70518 0.0
Cd338 Cd 0.47831 0.83236 0.70504 0.0
O339 O 0.4649 0.84739 0.69555 0.0
O340 O 0.51001 0.87092 0.7096 0.0
O341 O 0.49469 0.86108 0.72482 0.0
C342 C 0.50277 0.87176 0.72147 0.0
C343 C 0.48158 0.82325 0.72788 0.0
C344 C 0.47103 0.8575 0.68863 0.0
C345 C 0.50571 0.82379 0.69237 0.0
O346 O 0.49219 0.82288 0.69102 0.0
O347 O 0.51114 0.83398 0.69974 0.0
O348 O 0.4724 0.81729 0.71944 0.0
O349 O 0.48723 0.83518 0.72386 0.0
O350 O 0.49346 0.24741 0.95431 0.0
Cd351 Cd 0.50029 0.25937 0.97091 0.0
Cd352 Cd 0.51739 0.23657 0.97133 0.0
O353 O 0.49991 0.22601 0.96247 0.0
O354 O 0.4825 0.27106 0.97612 0.0
O355 O 0.49033 0.25268 0.98904 0.0
C356 C 0.4803 0.26191 0.98642 0.0
C357 C 0.52807 0.24074 0.99317 0.0
C358 C 0.49227 0.23386 0.95417 0.0
C359 C 0.53008 0.26195 0.95946 0.0
O360 O 0.52811 0.24878 0.95681 0.0
O361 O 0.52105 0.26871 0.96749 0.0
O362 O 0.53259 0.23012 0.98538 0.0
O363 O 0.51624 0.24694 0.98961 0.0
O364 O 0.09493 0.22876 0.19124 0.0
Cd365 Cd 0.08589 0.23764 0.20908 0.0
Cd366 Cd 0.10844 0.25448 0.20301 0.0
O367 O 0.11719 0.2366 0.19293 0.0
O368 O 0.07449 0.22107 0.21742 0.0
O369 O 0.0945 0.22903 0.22705 0.0
C370 C 0.08473 0.21933 0.22661 0.0
C371 C 0.10966 0.26594 0.22477 0.0
C372 C 0.10808 0.22805 0.18753 0.0
C373 C 0.08069 0.26672 0.19607 0.0
O374 O 0.09335 0.26494 0.19118 0.0
O375 O 0.07571 0.25803 0.20561 0.0
O376 O 0.11838 0.26968 0.21451 0.0
O377 O 0.10241 0.25437 0.22319 0.0
O378 O 0.10071 0.83511 0.49825 0.0
Cd379 Cd 0.11076 0.83763 0.47844 0.0
Cd380 Cd 0.07652 0.82176 0.49775 0.0
O381 O 0.08129 0.83915 0.51037 0.0
O382 O 0.12574 0.85305 0.47809 0.0
O383 O 0.13127 0.83001 0.47935 0.0
C384 C 0.13544 0.84323 0.4797 0.0
C385 C 0.06523 0.80064 0.50324 0.0
C386 C 0.09204 0.84425 0.50366 0.0
C387 C 0.08437 0.82898 0.46351 0.0
O388 O 0.08135 0.82622 0.47654 0.0
O389 O 0.09678 0.83419 0.46055 0.0
O390 O 0.05782 0.81224 0.50094 0.0
O391 O 0.07914 0.80132 0.50327 0.0
O392 O 0.49636 0.23843 0.85858 0.0
Cd393 Cd 0.50658 0.23012 0.87599 0.0
Cd394 Cd 0.50311 0.26336 0.85419 0.0
O395 O 0.48232 0.25571 0.85264 0.0
O396 O 0.49614 0.21323 0.88395 0.0
O397 O 0.51571 0.21107 0.87053 0.0
C398 C 0.50467 0.20509 0.87659 0.0
C399 C 0.52008 0.27024 0.83772 0.0
C400 C 0.48382 0.24383 0.8591 0.0
C401 C 0.51486 0.2599 0.88698 0.0
O402 O 0.51078 0.26488 0.87488 0.0
O403 O 0.51457 0.24636 0.88987 0.0
O404 O 0.51028 0.27924 0.842 0.0
O405 O 0.51892 0.25687 0.84143 0.0
O406 O 0.09211 0.24754 0.09986 0.0
Cd407 Cd 0.09961 0.25344 0.11935 0.0
Cd408 Cd 0.06659 0.25345 0.0974 0.0
O409 O 0.07591 0.23426 0.09082 0.0
O410 O 0.11716 0.24262 0.12542 0.0
O411 O 0.11796 0.26456 0.11624 0.0
C412 C 0.12471 0.25306 0.12032 0.0
C413 C 0.05754 0.27289 0.08516 0.0
C414 C 0.08795 0.23498 0.09699 0.0
C415 C 0.06925 0.25714 0.13209 0.0
O416 O 0.06442 0.25577 0.11939 0.0
O417 O 0.08285 0.25713 0.13466 0.0
O418 O 0.04964 0.26174 0.08765 0.0
O419 O 0.07112 0.27214 0.08813 0.0
O420 O 0.08842 0.8566 0.40632 0.0
Cd421 Cd 0.08604 0.84732 0.38673 0.0
Cd422 Cd 0.10753 0.83304 0.39732 0.0
O423 O 0.11162 0.85187 0.40812 0.0
O424 O 0.07775 0.86267 0.37337 0.0
O425 O 0.10057 0.85606 0.37318 0.0
C426 C 0.09074 0.86478 0.36874 0.0
C427 C 0.11588 0.81967 0.37841 0.0
C428 C 0.10045 0.85879 0.41228 0.0
C429 C 0.08084 0.81807 0.39878 0.0
O430 O 0.09145 0.82157 0.40643 0.0
O431 O 0.07759 0.82588 0.38785 0.0
O432 O 0.1217 0.81803 0.39092 0.0
O433 O 0.10751 0.83055 0.37641 0.0
O434 O 0.5083 0.85255 0.62732 0.0
Cd435 Cd 0.50326 0.83155 0.6299 0.0
Cd436 Cd 0.52073 0.831 0.60893 0.0
O437 O 0.50694 0.84859 0.60445 0.0
O438 O 0.48244 0.83043 0.63644 0.0
O439 O 0.48974 0.82477 0.61457 0.0
C440 C 0.47921 0.82715 0.62338 0.0
C441 C 0.52293 0.80955 0.59667 0.0
C442 C 0.5051 0.8571 0.61494 0.0
C443 C 0.53261 0.82447 0.63755 0.0
O444 O 0.53525 0.83114 0.62587 0.0
O445 O 0.5197 0.82084 0.64059 0.0
O446 O 0.53009 0.82072 0.59259 0.0
O447 O 0.51344 0.81107 0.60673 0.0
O448 O 0.74928 0.51145 0.84342 0.0
Cd449 Cd 0.7287 0.51353 0.85087 0.0
Cd450 Cd 0.75145 0.52046 0.8186 0.0
O451 O 0.76109 0.50181 0.82615 0.0
O452 O 0.72488 0.49912 0.86613 0.0
O453 O 0.72793 0.52206 0.87088 0.0
C454 C 0.72664 0.50901 0.87553 0.0
C455 C 0.76071 0.54146 0.8097 0.0
C456 C 0.7541 0.50004 0.83771 0.0
C457 C 0.71636 0.51797 0.82088 0.0
O458 O 0.72933 0.51935 0.81656 0.0
O459 O 0.7133 0.51597 0.83423 0.0
O460 O 0.75963 0.53027 0.80162 0.0
O461 O 0.75802 0.54008 0.8233 0.0
O462 O 0.82929 0.49443 0.0942 0.0
Cd463 Cd 0.82275 0.47581 0.10333 0.0
Cd464 Cd 0.8223 0.49602 0.06916 0.0
O465 O 0.84244 0.50171 0.07676 0.0
O466 O 0.83397 0.4704 0.12091 0.0
O467 O 0.81268 0.48108 0.12195 0.0
C468 C 0.82427 0.47695 0.12846 0.0
C469 C 0.8022 0.50877 0.06256 0.0
C470 C 0.84184 0.49643 0.08929 0.0
C471 C 0.81677 0.46199 0.07362 0.0
O472 O 0.81872 0.47423 0.06774 0.0
O473 O 0.81728 0.46018 0.08738 0.0
O474 O 0.81247 0.50633 0.0534 0.0
O475 O 0.80436 0.50559 0.07593 0.0
O476 O 0.90175 0.6158 0.32216 0.0
Cd477 Cd 0.89262 0.59647 0.32575 0.0
Cd478 Cd 0.87601 0.60747 0.30648 0.0
O479 O 0.87976 0.62386 0.32174 0.0
O480 O 0.89466 0.59047 0.3469 0.0
O481 O 0.87457 0.59913 0.33782 0.0
C482 C 0.88163 0.59507 0.34897 0.0
C483 C 0.85719 0.59087 0.306 0.0
C484 C 0.8929 0.62573 0.32506 0.0
C485 C 0.89793 0.58874 0.29538 0.0
O486 O 0.89247 0.60103 0.29279 0.0
O487 O 0.8966 0.58322 0.30793 0.0
O488 O 0.85638 0.60253 0.29845 0.0
O489 O 0.86801 0.58924 0.3143 0.0
O490 O 0.7444 0.59933 0.58441 0.0
Cd491 Cd 0.75297 0.61831 0.59048 0.0
Cd492 Cd 0.74935 0.59594 0.55891 0.0
O493 O 0.72972 0.59171 0.56871 0.0
O494 O 0.74258 0.62596 0.60743 0.0
O495 O 0.76408 0.61582 0.60897 0.0
C496 C 0.7527 0.62078 0.61537 0.0
C497 C 0.76822 0.58141 0.55234 0.0
C498 C 0.73144 0.59808 0.5805 0.0
C499 C 0.75641 0.62989 0.55958 0.0
O500 O 0.75358 0.61738 0.55493 0.0
O501 O 0.75714 0.63261 0.57308 0.0
O502 O 0.75767 0.58379 0.54361 0.0
O503 O 0.76703 0.58593 0.56541 0.0
O504 O 0.68449 0.61134 0.72478 0.0
Cd505 Cd 0.70102 0.5992 0.73306 0.0
Cd506 Cd 0.69717 0.62086 0.75203 0.0
O507 O 0.68663 0.63204 0.73595 0.0
O508 O 0.70691 0.58724 0.71596 0.0
O509 O 0.72029 0.60462 0.72446 0.0
C510 C 0.71791 0.59552 0.71443 0.0
C511 C 0.72015 0.62093 0.76124 0.0
C512 C 0.68118 0.62454 0.72602 0.0
C513 C 0.68833 0.59266 0.76223 0.0
O514 O 0.68492 0.60586 0.76226 0.0
O515 O 0.69675 0.58768 0.75246 0.0
O516 O 0.71039 0.62928 0.76672 0.0
O517 O 0.71716 0.6142 0.74964 0.0
O518 O 0.73388 0.4397 0.98616 0.0
Cd519 Cd 0.74371 0.45703 0.99479 0.0
Cd520 Cd 0.71913 0.45328 0.0111 0.0
O521 O 0.71135 0.44212 0.99358 0.0
O522 O 0.7569 0.46373 0.97857 0.0
O523 O 0.73719 0.47537 0.98501 0.0
C524 C 0.74757 0.47377 0.97595 0.0
C525 C 0.71849 0.47644 0.01984 0.0
C526 C 0.72074 0.43618 0.98545 0.0
C527 C 0.74597 0.44489 0.02484 0.0
O528 O 0.73295 0.4414 0.02303 0.0
O529 O 0.75225 0.45333 0.01583 0.0
O530 O 0.70927 0.46722 0.02468 0.0
O531 O 0.72635 0.47284 0.00906 0.0
O532 O 0.89822 0.50536 0.23434 0.0
Cd533 Cd 0.88079 0.51632 0.24112 0.0
Cd534 Cd 0.88216 0.49587 0.2605 0.0
O535 O 0.89042 0.4846 0.24285 0.0
O536 O 0.87127 0.52478 0.22314 0.0
O537 O 0.86413 0.50477 0.23361 0.0
C538 C 0.86338 0.51338 0.22278 0.0
C539 C 0.86005 0.50026 0.27156 0.0
C540 C 0.89833 0.49175 0.23414 0.0
C541 C 0.89355 0.52215 0.27023 0.0
O542 O 0.8968 0.50894 0.26957 0.0
O543 O 0.8847 0.52754 0.26106 0.0
O544 O 0.86821 0.48997 0.27631 0.0
O545 O 0.86368 0.5064 0.25975 0.0
O546 O 0.86947 0.62897 0.47932 0.0
Cd547 Cd 0.85062 0.63593 0.47101 0.0
Cd548 Cd 0.866 0.6285 0.5054 0.0
O549 O 0.88441 0.63595 0.49501 0.0
O550 O 0.85212 0.64179 0.45023 0.0
O551 O 0.84409 0.62061 0.45747 0.0
C552 C 0.84842 0.62884 0.44708 0.0
C553 C 0.85904 0.60649 0.51406 0.0
C554 C 0.87986 0.63708 0.48229 0.0
C555 C 0.83905 0.64883 0.49995 0.0
O556 O 0.84937 0.6432 0.50701 0.0
O557 O 0.83712 0.6466 0.48644 0.0
O558 O 0.86596 0.61531 0.52214 0.0
O559 O 0.85788 0.60952 0.50054 0.0
O560 O 0.83016 0.70321 0.47002 0.0
Cd561 Cd 0.83343 0.70781 0.49091 0.0
Cd562 Cd 0.81526 0.72686 0.48326 0.0
O563 O 0.83109 0.72623 0.46667 0.0
O564 O 0.85413 0.70297 0.49627 0.0
O565 O 0.84608 0.72511 0.49325 0.0
C566 C 0.85683 0.71656 0.49533 0.0
C567 C 0.81269 0.74274 0.50235 0.0
C568 C 0.83386 0.71362 0.46214 0.0
C569 C 0.80346 0.70141 0.49679 0.0
O570 O 0.80132 0.70978 0.48618 0.0
O571 O 0.81579 0.70097 0.50276 0.0
O572 O 0.80598 0.74511 0.49044 0.0
O573 O 0.82169 0.73221 0.50283 0.0
O574 O 0.37175 0.89941 0.59359 0.0
Cd575 Cd 0.36356 0.88017 0.58748 0.0
Cd576 Cd 0.34721 0.88773 0.60896 0.0
O577 O 0.36479 0.89897 0.61628 0.0
O578 O 0.38033 0.86959 0.57801 0.0
O579 O 0.3722 0.86426 0.59968 0.0
C580 C 0.38192 0.8625 0.5899 0.0
C581 C 0.33388 0.86737 0.61198 0.0
C582 C 0.37249 0.90437 0.60623 0.0
C583 C 0.33439 0.89238 0.58164 0.0
O584 O 0.33708 0.89872 0.59329 0.0
O585 O 0.34269 0.88207 0.57755 0.0
O586 O 0.33097 0.8785 0.61981 0.0
O587 O 0.34596 0.86711 0.60511 0.0
O588 O 0.44688 0.08293 0.87165 0.0
Cd589 Cd 0.45432 0.0857 0.8514 0.0
Cd590 Cd 0.47097 0.06674 0.86149 0.0
O591 O 0.46939 0.08277 0.87762 0.0
O592 O 0.45189 0.10665 0.8455 0.0
O593 O 0.47284 0.09688 0.85103 0.0
C594 C 0.46547 0.10826 0.84803 0.0
C595 C 0.48819 0.06224 0.8437 0.0
C596 C 0.4564 0.08613 0.88064 0.0
C597 C 0.44653 0.05637 0.8459 0.0
O598 O 0.45325 0.05418 0.85755 0.0
O599 O 0.44786 0.06833 0.83923 0.0
O600 O 0.48896 0.05573 0.85598 0.0
O601 O 0.47867 0.0722 0.8422 0.0
O602 O 0.25855 0.24465 0.0979 0.0
Cd603 Cd 0.25148 0.22491 0.09241 0.0
Cd604 Cd 0.28393 0.24707 0.09172 0.0
O605 O 0.27482 0.25385 0.11095 0.0
O606 O 0.23388 0.21888 0.10324 0.0
O607 O 0.23324 0.22758 0.08108 0.0
C608 C 0.2264 0.22374 0.09262 0.0
C609 C 0.2912 0.25903 0.07138 0.0
C610 C 0.26278 0.24768 0.11039 0.0
C611 C 0.28216 0.21244 0.08882 0.0
O612 O 0.28704 0.22514 0.08997 0.0
O613 O 0.26855 0.20987 0.08889 0.0
O614 O 0.29979 0.2575 0.08218 0.0
O615 O 0.27789 0.25528 0.07298 0.0
O616 O 0.6578 0.48239 0.84301 0.0
Cd617 Cd 0.638 0.49086 0.83855 0.0
Cd618 Cd 0.64659 0.50645 0.85912 0.0
O619 O 0.65813 0.48853 0.86581 0.0
O620 O 0.62609 0.47455 0.83072 0.0
O621 O 0.62377 0.48283 0.85278 0.0
C622 C 0.62059 0.47322 0.84347 0.0
C623 C 0.6272 0.52093 0.86408 0.0
C624 C 0.66322 0.48111 0.85544 0.0
C625 C 0.64925 0.51968 0.83181 0.0
O626 O 0.65667 0.51647 0.84271 0.0
O627 O 0.63855 0.51171 0.82862 0.0
O628 O 0.63924 0.52299 0.87069 0.0
O629 O 0.62561 0.50904 0.85733 0.0
O630 O 0.74523 0.35132 0.01008 0.0
Cd631 Cd 0.7367 0.3704 0.01606 0.0
Cd632 Cd 0.77045 0.34935 0.01649 0.0
O633 O 0.7622 0.34339 0.99669 0.0
O634 O 0.71992 0.37658 1.00408 0.0
O635 O 0.7174 0.36609 0.02529 0.0
C636 C 0.71163 0.37048 0.01343 0.0
C637 C 0.7764 0.33638 0.03667 0.0
C638 C 0.74962 0.34859 0.9975 0.0
C639 C 0.76695 0.3835 0.0217 0.0
O640 O 0.77273 0.37118 0.0198 0.0
O641 O 0.75318 0.3855 0.02131 0.0
O642 O 0.78572 0.33834 0.02645 0.0
O643 O 0.7632 0.34032 0.0345 0.0
O644 O 0.44378 0.98348 0.74597 0.0
Cd645 Cd 0.45833 0.98733 0.76179 0.0
Cd646 Cd 0.46193 0.00854 0.7441 0.0
O647 O 0.45501 0.99472 0.72827 0.0
O648 O 0.46122 0.96782 0.77096 0.0
O649 O 0.4773 0.97794 0.75664 0.0
C650 C 0.47296 0.96668 0.76347 0.0
C651 C 0.48322 0.01789 0.75221 0.0
C652 C 0.44572 0.98567 0.73263 0.0
C653 C 0.44714 0.01624 0.7697 0.0
O654 O 0.44586 0.01731 0.7562 0.0
O655 O 0.45418 0.00561 0.77501 0.0
O656 O 0.47645 0.02417 0.74178 0.0
O657 O 0.47914 1.00525 0.75607 0.0
O658 O 0.15232 0.10974 0.23391 0.0
Cd659 Cd 0.13833 0.10326 0.24975 0.0
Cd660 Cd 0.13644 0.08263 0.22873 0.0
O661 O 0.14563 0.09746 0.2149 0.0
O662 O 0.13587 0.1214 0.26146 0.0
O663 O 0.11868 0.11265 0.24799 0.0
C664 C 0.12336 0.12302 0.25569 0.0
C665 C 0.11323 0.07564 0.23429 0.0
C666 C 0.15297 0.10743 0.2205 0.0
C667 C 0.15058 0.07342 0.2551 0.0
O668 O 0.15083 0.07226 0.24154 0.0
O669 O 0.14415 0.08407 0.2611 0.0
O670 O 0.12022 0.06915 0.22413 0.0
O671 O 0.11885 0.08696 0.23964 0.0
H672 H 0.05069 0.32707 0.22682 0.0
H673 H 0.03881 0.30525 0.2661 0.0
H674 H 0.07456 0.31699 0.22819 0.0
H675 H 0.06325 0.29583 0.26814 0.0
H676 H 0.09232 0.26055 0.24774 0.0
H677 H 0.07482 0.27732 0.25698 0.0
H678 H 0.09737 0.31215 0.23601 0.0
H679 H 0.11436 0.29496 0.2258 0.0
C680 C 0.05337 0.32059 0.23612 0.0
C681 C 0.04275 0.31673 0.24621 0.0
C682 C 0.06723 0.31483 0.237 0.0
C683 C 0.07096 0.30527 0.24816 0.0
C684 C 0.06073 0.30276 0.25914 0.0
C685 C 0.04672 0.30828 0.25807 0.0
C686 C 0.0939 0.27186 0.24552 0.0
C687 C 0.10444 0.27634 0.2356 0.0
C688 C 0.08378 0.2816 0.2509 0.0
C689 C 0.08421 0.29614 0.24677 0.0
C690 C 0.09628 0.30095 0.2389 0.0
C691 C 0.10625 0.29111 0.23325 0.0
H692 H 0.04016 0.79418 0.51705 0.0
H693 H 0.07365 0.77597 0.4905 0.0
H694 H 0.0261 0.77244 0.51461 0.0
H695 H 0.05918 0.75487 0.48665 0.0
H696 H 0.03177 0.7187 0.47697 0.0
H697 H 0.0475 0.73417 0.49068 0.0
H698 H 0.0116 0.76305 0.49844 0.0
H699 H 0.99597 0.74705 0.48613 0.0
C700 C 0.04452 0.78541 0.51078 0.0
C701 C 0.05791 0.7867 0.50393 0.0
C702 C 0.0364 0.77297 0.50916 0.0
C703 C 0.04116 0.76183 0.50005 0.0
C704 C 0.05503 0.76293 0.4939 0.0
C705 C 0.06338 0.77513 0.49601 0.0
C706 C 0.02718 0.72804 0.48219 0.0
C707 C 0.01266 0.73173 0.48023 0.0
C708 C 0.03627 0.73713 0.48983 0.0
C709 C 0.0311 0.75029 0.49535 0.0
C710 C 0.01623 0.75312 0.49455 0.0
C711 C 0.00714 0.74388 0.4873 0.0
H712 H 0.56 0.80689 0.75969 0.0
H713 H 0.54279 0.76411 0.76322 0.0
H714 H 0.53595 0.81664 0.75812 0.0
H715 H 0.51843 0.77396 0.76238 0.0
H716 H 0.49407 0.83427 0.75169 0.0
H717 H 0.51288 0.82253 0.76562 0.0
H718 H 0.50479 0.78287 0.74335 0.0
H719 H 0.48549 0.79444 0.73021 0.0
C720 C 0.55105 0.79958 0.76072 0.0
C721 C 0.55336 0.78469 0.76132 0.0
C722 C 0.53712 0.80521 0.75991 0.0
C723 C 0.5251 0.7961 0.75986 0.0
C724 C 0.5274 0.78129 0.762 0.0
C725 C 0.54139 0.77564 0.76264 0.0
C726 C 0.49586 0.82286 0.75034 0.0
C727 C 0.48839 0.81529 0.7398 0.0
C728 C 0.50681 0.81615 0.75815 0.0
C729 C 0.51078 0.80184 0.75531 0.0
C730 C 0.50213 0.79387 0.74595 0.0
C731 C 0.49095 0.80051 0.73837 0.0
H732 H 0.5566 0.24468 0.98899 0.0
H733 H 0.52116 0.25681 0.01655 0.0
H734 H 0.56888 0.26661 0.99491 0.0
H735 H 0.5338 0.27852 0.02326 0.0
H736 H 0.54428 0.32362 1.00411 0.0
H737 H 0.53624 0.29963 0.0101 0.0
H738 H 0.58021 0.28421 0.00806 0.0
H739 H 0.58806 0.3082 1.00126 0.0
C740 C 0.55186 0.25157 0.9971 0.0
C741 C 0.53788 0.24905 1.00224 0.0
C742 C 0.55888 0.26432 1.00046 0.0
C743 C 0.55219 0.27467 0.00929 0.0
C744 C 0.53911 0.27107 0.01607 0.0
C745 C 0.53197 0.25845 0.01247 0.0
C746 C 0.55228 0.31523 1.00549 0.0
C747 C 0.56677 0.31777 1.0021 0.0
C748 C 0.54769 0.30137 0.00894 0.0
C749 C 0.55752 0.28977 0.00933 0.0
C750 C 0.57225 0.29273 0.00749 0.0
C751 C 0.57679 0.30654 1.00377 0.0
H752 H 0.04682 0.79948 0.33958 0.0
H753 H 0.05494 0.75841 0.3597 0.0
H754 H 0.07204 0.80511 0.34089 0.0
H755 H 0.08057 0.76359 0.3602 0.0
H756 H 0.11139 0.79229 0.38666 0.0
H757 H 0.09364 0.77768 0.37523 0.0
H758 H 0.0964 0.80428 0.33711 0.0
H759 H 0.11343 0.81965 0.34926 0.0
C760 C 0.05412 0.79136 0.3437 0.0
C761 C 0.04884 0.77863 0.34978 0.0
C762 C 0.06874 0.79454 0.34438 0.0
C763 C 0.07851 0.78494 0.35094 0.0
C764 C 0.07338 0.77146 0.35547 0.0
C765 C 0.05868 0.76841 0.35506 0.0
C766 C 0.10888 0.79455 0.37554 0.0
C767 C 0.11355 0.8073 0.36899 0.0
C768 C 0.09849 0.78616 0.36892 0.0
C769 C 0.09299 0.79013 0.3554 0.0
C770 C 0.09986 0.80127 0.34778 0.0
C771 C 0.10993 0.8099 0.3546 0.0
H772 H 0.57919 0.73723 0.58833 0.0
H773 H 0.54857 0.72928 0.62237 0.0
H774 H 0.56274 0.7546 0.57761 0.0
H775 H 0.53268 0.74732 0.61254 0.0
H776 H 0.5079 0.78452 0.59937 0.0
H777 H 0.5178 0.7603 0.59801 0.0
H778 H 0.55859 0.7778 0.58397 0.0
H779 H 0.54834 0.80164 0.58438 0.0
C780 C 0.56867 0.73876 0.59318 0.0
C781 C 0.56521 0.73195 0.60623 0.0
C782 C 0.55933 0.74898 0.58723 0.0
C783 C 0.54655 0.75294 0.59447 0.0
C784 C 0.54233 0.74472 0.60653 0.0
C785 C 0.55149 0.7342 0.61221 0.0
C786 C 0.51881 0.78307 0.59547 0.0
C787 C 0.52738 0.795 0.59212 0.0
C788 C 0.52459 0.76917 0.59486 0.0
C789 C 0.53918 0.76692 0.59125 0.0
C790 C 0.54729 0.77885 0.58668 0.0
C791 C 0.54142 0.79268 0.58696 0.0
H792 H 0.58341 0.329 0.84807 0.0
H793 H 0.60947 0.29139 0.83976 0.0
H794 H 0.56294 0.31754 0.83762 0.0
H795 H 0.5891 0.28011 0.82816 0.0
H796 H 0.54623 0.25712 0.83847 0.0
H797 H 0.5692 0.26888 0.83685 0.0
H798 H 0.54819 0.3075 0.82132 0.0
H799 H 0.52496 0.29588 0.82413 0.0
C800 C 0.58495 0.31847 0.84343 0.0
C801 C 0.59801 0.31098 0.84505 0.0
C802 C 0.57312 0.31184 0.83728 0.0
C803 C 0.5741 0.29764 0.83227 0.0
C804 C 0.5877 0.29084 0.83235 0.0
C805 C 0.59949 0.29737 0.83883 0.0
C806 C 0.54653 0.26798 0.83427 0.0
C807 C 0.53376 0.27567 0.8317 0.0
C808 C 0.55983 0.2748 0.83328 0.0
C809 C 0.56069 0.2894 0.82936 0.0
C810 C 0.54799 0.29645 0.82495 0.0
C811 C 0.53464 0.28974 0.82634 0.0
H812 H 0.99761 0.34318 0.09148 0.0
H813 H 0.03706 0.35428 0.11262 0.0
H814 H 0.01037 0.32488 0.07775 0.0
H815 H 0.04967 0.33549 0.09969 0.0
H816 H 0.07066 0.29867 0.07979 0.0
H817 H 0.05934 0.32233 0.08077 0.0
H818 H 0.01771 0.30229 0.08513 0.0
H819 H 0.02891 0.27893 0.08339 0.0
C820 C 0.00913 0.34204 0.09281 0.0
C821 C 0.01632 0.3501 0.10319 0.0
C822 C 0.01643 0.33138 0.08511 0.0
C823 C 0.03099 0.32829 0.0879 0.0
C824 C 0.03849 0.33748 0.09713 0.0
C825 C 0.03125 0.34836 0.10459 0.0
C826 C 0.05904 0.29937 0.08043 0.0
C827 C 0.05071 0.2869 0.0817 0.0
C828 C 0.05254 0.31295 0.08115 0.0
C829 C 0.03759 0.31435 0.08336 0.0
C830 C 0.02921 0.30183 0.0833 0.0
C831 C 0.03568 0.2883 0.08238 0.0
H832 H 0.24738 0.03729 0.25551 0.0
H833 H 0.25845 0.05481 0.29667 0.0
H834 H 0.24973 0.01309 0.26528 0.0
H835 H 0.25978 0.03093 0.30675 0.0
H836 H 0.25704 0.98976 0.32661 0.0
H837 H 0.26747 0.00805 0.31103 0.0
H838 H 0.23509 0.99922 0.27924 0.0
H839 H 0.22561 0.98035 0.2943 0.0
C840 C 0.25064 0.03594 0.26657 0.0
C841 C 0.2526 0.04795 0.27536 0.0
C842 C 0.25181 0.02205 0.27226 0.0
C843 C 0.25457 0.01986 0.28696 0.0
C844 C 0.25778 0.03194 0.29537 0.0
C845 C 0.25695 0.04578 0.28959 0.0
C846 C 0.25274 0.99121 0.31592 0.0
C847 C 0.24046 0.98367 0.31171 0.0
C848 C 0.2585 1.00194 0.30707 0.0
C849 C 0.25183 0.00565 0.29403 0.0
C850 C 0.24066 0.99683 0.28912 0.0
C851 C 0.23518 0.98584 0.2978 0.0
H852 H 0.30961 0.00893 0.5291 0.0
H853 H 0.29088 0.01193 0.57153 0.0
H854 H 0.28608 1.00536 0.5191 0.0
H855 H 0.26699 0.00912 0.5614 0.0
H856 H 0.23743 0.97391 0.54191 0.0
H857 H 0.25513 0.989 0.55314 0.0
H858 H 0.26276 0.01053 0.51256 0.0
H859 H 0.24565 0.99463 0.50119 0.0
C860 C 0.30038 0.00943 0.53626 0.0
C861 C 0.30218 0.01044 0.55116 0.0
C862 C 0.28675 0.00746 0.53048 0.0
C863 C 0.2745 0.00665 0.53944 0.0
C864 C 0.27617 0.00928 0.55419 0.0
C865 C 0.28988 0.01106 0.56 0.0
C866 C 0.24241 0.9823 0.53553 0.0
C867 C 0.24029 0.98299 0.52066 0.0
C868 C 0.25266 0.991 0.54197 0.0
C869 C 0.26079 1.00078 0.5337 0.0
C870 C 0.25712 1.0028 0.51919 0.0
C871 C 0.24712 0.99385 0.51269 0.0
H872 H 0.33237 0.02489 0.79259 0.0
H873 H 0.3398 0.04269 0.75037 0.0
H874 H 0.3307 0.04878 0.80242 0.0
H875 H 0.33701 0.06681 0.75993 0.0
H876 H 0.3611 0.10125 0.78548 0.0
H877 H 0.35224 0.08105 0.77233 0.0
H878 H 0.32248 0.0715 0.80697 0.0
H879 H 0.33224 0.09133 0.82062 0.0
C880 C 0.33291 0.03395 0.78527 0.0
C881 C 0.33638 0.03193 0.77075 0.0
C882 C 0.33193 0.04778 0.79092 0.0
C883 C 0.33407 0.05993 0.78208 0.0
C884 C 0.33582 0.0578 0.76721 0.0
C885 C 0.3372 0.04395 0.76165 0.0
C886 C 0.35236 0.09513 0.79015 0.0
C887 C 0.34758 0.09777 0.80423 0.0
C888 C 0.34716 0.08346 0.78252 0.0
C889 C 0.33679 0.07426 0.78864 0.0
C890 C 0.3308 0.07798 0.80206 0.0
C891 C 0.33625 0.08951 0.80984 0.0
H892 H 0.24584 0.09295 0.08315 0.0
H893 H 0.24139 0.12957 0.05499 0.0
H894 H 0.26386 0.0827 0.06703 0.0
H895 H 0.26005 0.12008 0.03952 0.0
H896 H 0.29719 0.10532 0.01484 0.0
H897 H 0.27259 0.1056 0.02404 0.0
H898 H 0.28768 0.08798 0.06433 0.0
H899 H 0.31185 0.08686 0.05476 0.0
C900 C 0.2483 0.09853 0.0732 0.0
C901 C 0.2422 0.11207 0.07036 0.0
C902 C 0.25889 0.09282 0.06409 0.0
C903 C 0.26392 0.10074 0.05216 0.0
C904 C 0.25657 0.11352 0.04849 0.0
C905 C 0.2457 0.119 0.05739 0.0
C906 C 0.29511 0.10104 0.02548 0.0
C907 C 0.30649 0.09616 0.03411 0.0
C908 C 0.281 0.10135 0.03085 0.0
C909 C 0.278 0.09712 0.0451 0.0
C910 C 0.28932 0.09119 0.05327 0.0
C911 C 0.30333 0.0906 0.04778 0.0
H912 H 0.2765 0.26243 0.04615 0.0
H913 H 0.31933 0.26206 0.06374 0.0
H914 H 0.28663 0.26052 0.02203 0.0
H915 H 0.32939 0.25937 0.03998 0.0
H916 H 0.34781 0.24997 0.99921 0.0
H917 H 0.33535 0.26506 0.01662 0.0
H918 H 0.29633 0.24116 0.0097 0.0
H919 H 0.3086 0.2269 0.99169 0.0
C920 C 0.28809 0.26232 0.04485 0.0
C921 C 0.2971 0.26218 0.0569 0.0
C922 C 0.29391 0.26106 0.03101 0.0
C923 C 0.30885 0.25942 0.02894 0.0
C924 C 0.31786 0.26071 0.04095 0.0
C925 C 0.31205 0.26218 0.05472 0.0
C926 C 0.33637 0.2485 1.00089 0.0
C927 C 0.32919 0.23721 0.99417 0.0
C928 C 0.32925 0.25698 0.01107 0.0
C929 C 0.31493 0.25404 0.01505 0.0
C930 C 0.30733 0.24386 0.00702 0.0
C931 C 0.31437 0.23563 0.99658 0.0
H932 H 0.80387 0.3316 0.04555 0.0
H933 H 0.76 0.33294 0.06105 0.0
H934 H 0.81246 0.33279 0.06988 0.0
H935 H 0.7686 0.33345 0.08568 0.0
H936 H 0.79047 0.36541 0.11753 0.0
H937 H 0.77845 0.35207 0.09899 0.0
H938 H 0.81644 0.32558 0.09339 0.0
H939 H 0.82871 0.33969 0.11141 0.0
C940 C 0.79602 0.33155 0.0542 0.0
C941 C 0.78125 0.33245 0.0513 0.0
C942 C 0.80097 0.33215 0.06829 0.0
C943 C 0.79125 0.33348 0.07989 0.0
C944 C 0.77642 0.33279 0.07704 0.0
C945 C 0.77147 0.33235 0.06289 0.0
C946 C 0.79598 0.35623 0.11292 0.0
C947 C 0.81056 0.35368 0.11581 0.0
C948 C 0.7891 0.34856 0.10213 0.0
C949 C 0.79661 0.338 0.09425 0.0
C950 C 0.81047 0.33397 0.09884 0.0
C951 C 0.81743 0.34186 0.1094 0.0
H952 H 0.01098 0.55731 0.25959 0.0
H953 H 0.02196 0.51539 0.2764 0.0
H954 H 0.01286 0.56733 0.28334 0.0
H955 H 0.02457 0.52558 0.30024 0.0
H956 H 0.997 0.5428 0.33855 0.0
H957 H 1.00683 0.5327 0.31672 0.0
H958 H 0.02383 0.57416 0.30472 0.0
H959 H 0.01329 0.58444 0.32639 0.0
C960 C 0.01441 0.55032 0.26826 0.0
C961 C 0.01604 0.5355 0.26613 0.0
C962 C 0.01556 0.55611 0.28198 0.0
C963 C 0.01856 0.54723 0.29388 0.0
C964 C 0.02184 0.53268 0.29142 0.0
C965 C 0.0205 0.52685 0.2777 0.0
C966 C 1.00321 0.54971 0.3315 0.0
C967 C 1.00411 0.56449 0.33411 0.0
C968 C 0.00895 0.54387 0.31892 0.0
C969 C 0.01592 0.55265 0.30872 0.0
C970 C 0.0182 0.56714 0.31213 0.0
C971 C 0.01228 0.57302 0.32465 0.0
H972 H 0.82909 0.74721 0.52598 0.0
H973 H 0.78622 0.75299 0.5095 0.0
H974 H 0.82019 0.75145 0.55025 0.0
H975 H 0.77705 0.75618 0.53365 0.0
H976 H 0.79501 0.72786 0.58651 0.0
H977 H 0.80831 0.73686 0.56607 0.0
H978 H 0.77309 0.7657 0.55594 0.0
H979 H 0.75938 0.75575 0.57597 0.0
C980 C 0.8178 0.7498 0.52754 0.0
C981 C 0.80832 0.7497 0.51588 0.0
C982 C 0.81263 0.75202 0.54148 0.0
C983 C 0.79779 0.75376 0.54413 0.0
C984 C 0.78856 0.75502 0.53223 0.0
C985 C 0.7938 0.75316 0.51826 0.0
C986 C 0.79038 0.73663 0.58037 0.0
C987 C 0.77608 0.74096 0.58275 0.0
C988 C 0.79803 0.74182 0.56847 0.0
C989 C 0.79166 0.75175 0.55891 0.0
C990 C 0.77818 0.75767 0.56268 0.0
C991 C 0.7704 0.7522 0.57437 0.0
H992 H 0.09779 0.08673 0.2565 0.0
H993 H 0.10144 0.04904 0.23002 0.0
H994 H 0.08499 0.07322 0.27445 0.0
H995 H 0.08744 0.03553 0.24763 0.0
H996 H 0.09257 0.01307 0.29177 0.0
H997 H 0.09351 0.02513 0.26883 0.0
H998 H 0.06825 0.06023 0.28623 0.0
H999 H 0.06845 0.04849 0.30965 0.0
C1000 C 0.09529 0.07565 0.25421 0.0
C1001 C 0.10102 0.06886 0.24199 0.0
C1002 C 0.08777 0.06781 0.26457 0.0
C1003 C 0.08546 0.05301 0.26286 0.0
C1004 C 0.08948 0.04674 0.24967 0.0
C1005 C 0.09733 0.05455 0.2394 0.0
C1006 C 0.08684 0.02317 0.29061 0.0
C1007 C 0.08069 0.02997 0.3026 0.0
C1008 C 0.08731 0.03015 0.27731 0.0
C1009 C 0.08133 0.04398 0.27558 0.0
C1010 C 0.07352 0.04988 0.2872 0.0
C1011 C 0.07343 0.04307 0.30062 0.0
H1012 H 0.33686 0.84361 0.59544 0.0
H1013 H 0.30467 0.8705 0.61559 0.0
H1014 H 0.31965 0.8362 0.57786 0.0
H1015 H 0.28692 0.86223 0.59853 0.0
H1016 H 0.27287 0.86972 0.55156 0.0
H1017 H 0.28338 0.8692 0.57515 0.0
H1018 H 0.30009 0.82651 0.56711 0.0
H1019 H 0.29038 0.82764 0.54289 0.0
C1020 C 0.32586 0.84736 0.5966 0.0
C1021 C 0.32229 0.85799 0.60669 0.0
C1022 C 0.31587 0.84307 0.58643 0.0
C1023 C 0.30189 0.84899 0.58633 0.0
C1024 C 0.29773 0.85787 0.59786 0.0
C1025 C 0.30785 0.8624 0.60789 0.0
C1026 C 0.27845 0.86005 0.55495 0.0
C1027 C 0.28091 0.84877 0.5453 0.0
C1028 C 0.28446 0.85969 0.56863 0.0
C1029 C 0.29283 0.84786 0.57318 0.0
C1030 C 0.29409 0.83599 0.56394 0.0
C1031 C 0.28838 0.83653 0.55008 0.0
H1032 H 0.60947 0.58654 0.80262 0.0
H1033 H 0.59023 0.54634 0.79085 0.0
H1034 H 0.61085 0.5784 0.82748 0.0
H1035 H 0.59235 0.53786 0.81529 0.0
H1036 H 0.59866 0.52103 0.85753 0.0
H1037 H 0.58778 0.53673 0.83958 0.0
H1038 H 0.62601 0.56288 0.83953 0.0
H1039 H 0.63622 0.54785 0.85809 0.0
C1040 C 0.60523 0.57608 0.8054 0.0
C1041 C 0.59983 0.56705 0.79473 0.0
C1042 C 0.60617 0.57133 0.81965 0.0
C1043 C 0.60198 0.55732 0.82351 0.0
C1044 C 0.59554 0.54877 0.81296 0.0
C1045 C 0.59437 0.55362 0.7988 0.0
C1046 C 0.60431 0.53065 0.85429 0.0
C1047 C 0.61829 0.53318 0.85923 0.0
C1048 C 0.59823 0.5395 0.84373 0.0
C1049 C 0.60617 0.55085 0.83763 0.0
C1050 C 0.61943 0.55435 0.84389 0.0
C1051 C 0.62532 0.54572 0.85471 0.0
H1052 H 0.76216 0.56746 0.82322 0.0
H1053 H 0.76225 0.54811 0.78125 0.0
H1054 H 0.75818 0.59097 0.81227 0.0
H1055 H 0.75757 0.57123 0.77041 0.0
H1056 H 0.7458 0.61103 0.75087 0.0
H1057 H 0.76193 0.59467 0.76351 0.0
H1058 H 0.73769 0.60172 0.80266 0.0
H1059 H 0.72229 0.61868 0.79018 0.0
C1060 C 0.7617 0.56826 0.81163 0.0
C1061 C 0.76232 0.55587 0.80312 0.0
C1062 C 0.75926 0.58174 0.80535 0.0
C1063 C 0.75722 0.58309 0.79044 0.0
C1064 C 0.75919 0.57081 0.78189 0.0
C1065 C 0.7618 0.55741 0.78814 0.0
C1066 C 0.74443 0.60962 0.76235 0.0
C1067 C 0.73274 0.61606 0.76953 0.0
C1068 C 0.75352 0.60004 0.76957 0.0
C1069 C 0.75087 0.59642 0.78403 0.0
C1070 C 0.74019 0.60418 0.79156 0.0
C1071 C 0.7313 0.61401 0.78439 0.0
H1072 H 0.72176 0.47745 0.04864 0.0
H1073 H 0.72763 0.50231 0.00991 0.0
H1074 H 0.74021 0.49129 0.06032 0.0
H1075 H 0.74554 0.51689 0.02182 0.0
H1076 H 0.79349 0.51242 0.03493 0.0
H1077 H 0.76924 0.51025 0.02618 0.0
H1078 H 0.75295 0.51061 0.06976 0.0
H1079 H 0.77751 0.51215 0.07856 0.0
C1080 C 0.7263 0.48653 0.04293 0.0
C1081 C 0.72332 0.48875 0.02835 0.0
C1082 C 0.73703 0.49448 0.04962 0.0
C1083 C 0.74477 0.50499 0.0419 0.0
C1084 C 0.74018 0.50858 0.02796 0.0
C1085 C 0.72968 0.50042 0.0212 0.0
C1086 C 0.78473 0.5125 0.04267 0.0
C1087 C 0.7875 0.51221 0.05745 0.0
C1088 C 0.77069 0.51132 0.03763 0.0
C1089 C 0.759 0.50999 0.04724 0.0
C1090 C 0.76167 0.51126 0.06203 0.0
C1091 C 0.77577 0.5123 0.06708 0.0
H1092 H 0.8486 0.57093 0.32555 0.0
H1093 H 0.84606 0.58218 0.2807 0.0
H1094 H 0.84142 0.54648 0.32015 0.0
H1095 H 0.83974 0.55767 0.27507 0.0
H1096 H 0.86302 0.50577 0.29982 0.0
H1097 H 0.85543 0.52817 0.31049 0.0
H1098 H 0.82709 0.5362 0.2747 0.0
H1099 H 0.83544 0.51399 0.26369 0.0
C1100 C 0.84598 0.56827 0.31458 0.0
C1101 C 0.84793 0.57839 0.30352 0.0
C1102 C 0.84205 0.5542 0.31144 0.0
C1103 C 0.84037 0.54987 0.29713 0.0
C1104 C 0.84081 0.56048 0.28625 0.0
C1105 C 0.84444 0.57464 0.28945 0.0
C1106 C 0.85453 0.51187 0.29465 0.0
C1107 C 0.84995 0.50821 0.28087 0.0
C1108 C 0.8502 0.5249 0.30073 0.0
C1109 C 0.84095 0.53434 0.29325 0.0
C1110 C 0.83459 0.52946 0.28055 0.0
C1111 C 0.83913 0.51656 0.27437 0.0
H1112 H 0.84457 0.58504 0.50046 0.0
H1113 H 0.85238 0.6028 0.54232 0.0
H1114 H 0.82413 0.57185 0.51015 0.0
H1115 H 0.83161 0.59049 0.5518 0.0
H1116 H 0.79187 0.57291 0.56767 0.0
H1117 H 0.81657 0.57215 0.55878 0.0
H1118 H 0.80119 0.57965 0.51566 0.0
H1119 H 0.77671 0.57948 0.52444 0.0
C1120 C 0.84217 0.58583 0.51182 0.0
C1121 C 0.84996 0.59516 0.52056 0.0
C1122 C 0.83031 0.5784 0.51736 0.0
C1123 C 0.82583 0.58039 0.53169 0.0
C1124 C 0.83462 0.58853 0.54074 0.0
C1125 C 0.84661 0.59571 0.53526 0.0
C1126 C 0.79379 0.57382 0.55622 0.0
C1127 C 0.78235 0.57649 0.54679 0.0
C1128 C 0.80798 0.57356 0.55112 0.0
C1129 C 0.81104 0.57628 0.53653 0.0
C1130 C 0.79944 0.57744 0.52695 0.0
C1131 C 0.78527 0.57741 0.53201 0.0
H1132 H 0.49708 0.07751 0.8203 0.0
H1133 H 0.49488 0.03457 0.83758 0.0
H1134 H 0.50238 0.06792 0.79658 0.0
H1135 H 0.49906 0.02485 0.81385 0.0
H1136 H 0.48203 0.04653 0.75708 0.0
H1137 H 0.48852 0.05806 0.77921 0.0
H1138 H 0.51082 0.01946 0.79286 0.0
H1139 H 0.50331 0.00764 0.77096 0.0
C1140 C 0.49813 0.066 0.81907 0.0
C1141 C 0.49562 0.05678 0.83077 0.0
C1142 C 0.50093 0.06046 0.80541 0.0
C1143 C 0.50081 0.04555 0.80305 0.0
C1144 C 0.49944 0.03637 0.81508 0.0
C1145 C 0.49703 0.04194 0.8288 0.0
C1146 C 0.48883 0.04068 0.76452 0.0
C1147 C 0.49208 0.02614 0.76229 0.0
C1148 C 0.49257 0.04731 0.77736 0.0
C1149 C 0.49998 0.03966 0.78816 0.0
C1150 C 0.50471 0.02561 0.78508 0.0
C1151 C 0.50066 0.01888 0.77238 0.0
H1152 H 0.97773 0.36034 0.23753 0.0
H1153 H 0.95051 0.3295 0.21735 0.0
H1154 H 0.96823 0.37913 0.22197 0.0
H1155 H 0.9414 0.34763 0.20147 0.0
H1156 H 0.94539 0.36512 0.16142 0.0
H1157 H 0.93643 0.36509 0.18598 0.0
H1158 H 0.97675 0.3827 0.19984 0.0
H1159 H 0.98533 0.38328 0.17534 0.0
C1160 C 0.96908 0.35773 0.23031 0.0
C1161 C 0.96551 0.34335 0.22793 0.0
C1162 C 0.96385 0.36846 0.22107 0.0
C1163 C 0.95507 0.36477 0.20937 0.0
C1164 C 0.94866 0.35107 0.20974 0.0
C1165 C 0.95377 0.34048 0.21909 0.0
C1166 C 0.95202 0.3697 0.16971 0.0
C1167 C 0.96624 0.37372 0.16661 0.0
C1168 C 0.947 0.36945 0.18389 0.0
C1169 C 0.9564 0.37256 0.19523 0.0
C1170 C 0.96943 0.37945 0.19165 0.0
C1171 C 0.97437 0.37996 0.17745 0.0
H1172 H 0.9549 0.77072 0.37683 0.0
H1173 H 0.98121 0.7426 0.35107 0.0
H1174 H 0.94273 0.75052 0.3871 0.0
H1175 H 0.96854 0.72196 0.36078 0.0
H1176 H 0.94148 0.7245 0.42157 0.0
H1177 H 0.93449 0.73051 0.39721 0.0
H1178 H 0.97401 0.7117 0.38158 0.0
H1179 H 0.98076 0.70536 0.40585 0.0
C1180 C 0.95739 0.76017 0.37263 0.0
C1181 C 0.96948 0.75817 0.36378 0.0
C1182 C 0.95044 0.74834 0.37865 0.0
C1183 C 0.95545 0.73429 0.37581 0.0
C1184 C 0.96506 0.73253 0.36412 0.0
C1185 C 0.97216 0.74443 0.35823 0.0
C1186 C 0.94829 0.7209 0.41279 0.0
C1187 C 0.962 0.71513 0.41558 0.0
C1188 C 0.94444 0.72463 0.39877 0.0
C1189 C 0.95452 0.72311 0.38751 0.0
C1190 C 0.96645 0.71403 0.39002 0.0
C1191 C 0.97027 0.71015 0.40403 0.0
H1192 H 0.62371 0.72683 0.74196 0.0
H1193 H 0.61661 0.7689 0.7238 0.0
H1194 H 0.63491 0.719 0.71938 0.0
H1195 H 0.62719 0.76112 0.7013 0.0
H1196 H 0.61193 0.71199 0.67305 0.0
H1197 H 0.61929 0.71499 0.69781 0.0
H1198 H 0.64587 0.75078 0.6853 0.0
H1199 H 0.63881 0.74754 0.66046 0.0
C1200 C 0.62523 0.73459 0.73339 0.0
C1201 C 0.61922 0.74839 0.73449 0.0
C1202 C 0.63155 0.73009 0.72045 0.0
C1203 C 0.63163 0.73931 0.70844 0.0
C1204 C 0.62735 0.75371 0.71029 0.0
C1205 C 0.62124 0.75821 0.72322 0.0
C1206 C 0.61993 0.72 0.67546 0.0
C1207 C 0.62443 0.72982 0.66493 0.0
C1208 C 0.62412 0.7218 0.68972 0.0
C1209 C 0.63267 0.73356 0.69362 0.0
C1210 C 0.63898 0.74186 0.68269 0.0
C1211 C 0.63492 0.73999 0.66846 0.0
H1212 H 0.61819 0.37006 0.96867 0.0
H1213 H 0.58788 0.38795 0.93879 0.0
H1214 H 0.63651 0.36928 0.94986 0.0
H1215 H 0.60607 0.38775 0.92013 0.0
H1216 H 0.63649 0.33668 0.90981 0.0
H1217 H 0.63245 0.35024 0.93169 0.0
H1218 H 0.62893 0.38935 0.90678 0.0
H1219 H 0.63267 0.37557 0.8848 0.0
C1220 C 0.61575 0.37491 0.95838 0.0
C1221 C 0.60143 0.37826 0.9549 0.0
C1222 C 0.62621 0.37423 0.94751 0.0
C1223 C 0.62255 0.37778 0.9333 0.0
C1224 C 0.60925 0.38466 0.93086 0.0
C1225 C 0.59878 0.38504 0.94169 0.0
C1226 C 0.63555 0.34825 0.90907 0.0
C1227 C 0.63475 0.35509 0.89565 0.0
C1228 C 0.63327 0.35609 0.92164 0.0
C1229 C 0.63017 0.37091 0.92099 0.0
C1230 C 0.63117 0.37796 0.90764 0.0
C1231 C 0.63335 0.37008 0.89506 0.0
H1232 H 0.11992 0.01373 0.3672 0.0
H1233 H 0.10274 0.97097 0.36563 0.0
H1234 H 0.14228 1.00431 0.37674 0.0
H1235 H 0.12513 0.96138 0.37568 0.0
H1236 H 0.18339 0.98901 0.38603 0.0
H1237 H 0.15818 0.99114 0.3931 0.0
H1238 H 0.14715 0.96033 0.36082 0.0
H1239 H 0.17223 0.95813 0.35378 0.0
C1240 C 0.12065 1.00238 0.3697 0.0
C1241 C 0.10972 0.99303 0.36559 0.0
C1242 C 0.1335 0.99693 0.37522 0.0
C1243 C 0.13561 0.98202 0.37676 0.0
C1244 C 0.12388 0.97288 0.37449 0.0
C1245 C 0.11105 0.97836 0.3688 0.0
C1246 C 0.17562 0.98212 0.38095 0.0
C1247 C 0.17966 0.97366 0.36912 0.0
C1248 C 0.16117 0.98341 0.38496 0.0
C1249 C 0.15057 0.97627 0.37718 0.0
C1250 C 0.15497 0.96603 0.36697 0.0
C1251 C 0.16943 0.96472 0.36294 0.0
H1252 H 0.36694 0.92542 0.62593 0.0
H1253 H 0.39424 0.91491 0.58976 0.0
H1254 H 0.3718 0.95066 0.62199 0.0
H1255 H 0.39887 0.94027 0.58568 0.0
H1256 H 0.37269 0.99507 0.60971 0.0
H1257 H 0.38553 0.97333 0.61751 0.0
H1258 H 0.37911 0.95494 0.57564 0.0
H1259 H 0.36692 0.97669 0.56787 0.0
C1260 C 0.37452 0.92845 0.61758 0.0
C1261 C 0.37985 0.91824 0.60789 0.0
C1262 C 0.37729 0.943 0.61526 0.0
C1263 C 0.38529 0.94755 0.60318 0.0
C1264 C 0.3924 0.93714 0.59488 0.0
C1265 C 0.38973 0.92261 0.59725 0.0
C1266 C 0.37483 0.98667 0.60199 0.0
C1267 C 0.36878 0.98742 0.58826 0.0
C1268 C 0.38208 0.9742 0.60647 0.0
C1269 C 0.38305 0.96228 0.59733 0.0
C1270 C 0.37861 0.96388 0.58299 0.0
C1271 C 0.37158 0.97637 0.57849 0.0
H1272 H 0.38356 0.1316 0.8805 0.0
H1273 H 0.40955 0.12704 0.84229 0.0
H1274 H 0.40521 0.12948 0.89529 0.0
H1275 H 0.43095 0.12447 0.85692 0.0
H1276 H 0.43574 0.08721 0.90129 0.0
H1277 H 0.41768 0.10571 0.89787 0.0
H1278 H 0.44891 0.13195 0.8758 0.0
H1279 H 0.46708 0.11325 0.87941 0.0
C1280 C 0.39397 0.13071 0.87527 0.0
C1281 C 0.39492 0.12933 0.86031 0.0
C1282 C 0.40633 0.12944 0.88373 0.0
C1283 C 0.41978 0.12659 0.87733 0.0
C1284 C 0.42084 0.12683 0.86224 0.0
C1285 C 0.40853 0.12822 0.85381 0.0
C1286 C 0.43911 0.09739 0.89675 0.0
C1287 C 0.45249 0.09842 0.88972 0.0
C1288 C 0.42861 0.10799 0.89454 0.0
C1289 C 0.43167 0.11992 0.88575 0.0
C1290 C 0.44611 0.12254 0.88204 0.0
C1291 C 0.45661 0.11192 0.88438 0.0
H1292 H 0.25496 0.16548 0.14576 0.0
H1293 H 0.22049 0.17729 0.11717 0.0
H1294 H 0.25835 0.19058 0.15177 0.0
H1295 H 0.22372 0.20231 0.12341 0.0
H1296 H 0.27911 0.22717 0.12286 0.0
H1297 H 0.27004 0.20576 0.1345 0.0
H1298 H 0.22734 0.22447 0.13573 0.0
H1299 H 0.23655 0.24578 0.12334 0.0
C1300 C 0.24768 0.1734 0.14123 0.0
C1301 C 0.23781 0.16952 0.13059 0.0
C1302 C 0.24966 0.18779 0.14465 0.0
C1303 C 0.2418 0.19853 0.13748 0.0
C1304 C 0.23022 0.19437 0.12882 0.0
C1305 C 0.22829 0.17996 0.12529 0.0
C1306 C 0.26795 0.227 0.12627 0.0
C1307 C 0.25848 0.238 0.12214 0.0
C1308 C 0.26268 0.21469 0.13302 0.0
C1309 C 0.24784 0.21322 0.13581 0.0
C1310 C 0.23877 0.22517 0.13354 0.0
C1311 C 0.24404 0.23741 0.12653 0.0
H1312 H 0.15844 0.13597 0.21892 0.0
H1313 H 0.17454 0.09469 0.20559 0.0
H1314 H 0.1827 0.14556 0.21808 0.0
H1315 H 0.19873 0.10384 0.20562 0.0
H1316 H 0.23717 0.10789 0.2249 0.0
H1317 H 0.22048 0.11494 0.20611 0.0
H1318 H 0.19792 0.14198 0.23657 0.0
H1319 H 0.21482 0.13523 0.25475 0.0
C1320 C 0.16712 0.12915 0.21509 0.0
C1321 C 0.16472 0.11452 0.21263 0.0
C1322 C 0.18112 0.13456 0.21485 0.0
C1323 C 0.19294 0.12524 0.21278 0.0
C1324 C 0.19011 0.11134 0.20764 0.0
C1325 C 0.1761 0.10603 0.20753 0.0
C1326 C 0.22925 0.11615 0.22722 0.0
C1327 C 0.22663 0.12032 0.24146 0.0
C1328 C 0.2194 0.11996 0.21651 0.0
C1329 C 0.20699 0.12804 0.22005 0.0
C1330 C 0.20687 0.13525 0.23333 0.0
C1331 C 0.2168 0.13152 0.24391 0.0
H1332 H 0.2314 0.92656 0.45083 0.0
H1333 H 0.2116 0.90896 0.48888 0.0
H1334 H 0.23177 0.90301 0.43991 0.0
H1335 H 0.2125 0.88533 0.47835 0.0
H1336 H 0.23782 0.84957 0.479 0.0
H1337 H 0.21815 0.86412 0.46973 0.0
H1338 H 0.24855 0.8867 0.44254 0.0
H1339 H 0.26756 0.87178 0.45146 0.0
C1340 C 0.22665 0.91766 0.45666 0.0
C1341 C 0.22208 0.91938 0.47094 0.0
C1342 C 0.2271 0.90402 0.45052 0.0
C1343 C 0.22374 0.89182 0.45887 0.0
C1344 C 0.21621 0.89416 0.47189 0.0
C1345 C 0.21549 0.90785 0.47796 0.0
C1346 C 0.24004 0.85709 0.47039 0.0
C1347 C 0.2543 0.86054 0.46686 0.0
C1348 C 0.22879 0.86578 0.4653 0.0
C1349 C 0.2319 0.87794 0.45672 0.0
C1350 C 0.24555 0.87825 0.44994 0.0
C1351 C 0.25666 0.86941 0.45489 0.0
H1352 H 0.38152 0.94784 0.75351 0.0
H1353 H 0.36172 0.97353 0.72067 0.0
H1354 H 0.40281 0.94519 0.73898 0.0
H1355 H 0.38309 0.97085 0.70559 0.0
H1356 H 0.44393 0.95716 0.72828 0.0
H1357 H 0.42159 0.94494 0.72283 0.0
H1358 H 0.40231 0.98574 0.7115 0.0
H1359 H 0.42477 0.99766 0.71639 0.0
C1360 C 0.38126 0.952 0.74262 0.0
C1361 C 0.37067 0.96204 0.73872 0.0
C1362 C 0.39372 0.9507 0.73423 0.0
C1363 C 0.39522 0.95888 0.72152 0.0
C1364 C 0.3827 0.96521 0.71577 0.0
C1365 C 0.37027 0.96649 0.7243 0.0
C1366 C 0.43513 0.96333 0.72374 0.0
C1367 C 0.43595 0.97833 0.72286 0.0
C1368 C 0.42223 0.95637 0.7208 0.0
C1369 C 0.4098 0.96439 0.71746 0.0
C1370 C 0.41145 0.97913 0.71427 0.0
C1371 C 0.42443 0.98606 0.71701 0.0
H1372 H 0.39899 0.12168 0.01881 0.0
H1373 H 0.37128 0.10359 0.98714 0.0
H1374 H 0.4086 0.13796 1.00138 0.0
H1375 H 0.38128 0.11948 0.96902 0.0
H1376 H 0.36453 0.16527 0.96416 0.0
H1377 H 0.37455 0.1413 0.96384 0.0
H1378 H 0.41168 0.15593 0.98692 0.0
H1379 H 0.40136 0.17985 0.98753 0.0
C1380 C 0.39566 0.12052 0.00776 0.0
C1381 C 0.3836 0.11226 1.00455 0.0
C1382 C 0.401 0.1302 0.99757 0.0
C1383 C 0.39448 0.13145 0.98396 0.0
C1384 C 0.38558 0.12001 0.97974 0.0
C1385 C 0.3801 0.11046 0.99007 0.0
C1386 C 0.37507 0.16343 0.96874 0.0
C1387 C 0.38182 0.1742 0.97654 0.0
C1388 C 0.3808 0.1495 0.96879 0.0
C1389 C 0.39312 0.14606 0.97695 0.0
C1390 C 0.40143 0.15765 0.98177 0.0
C1391 C 0.39566 0.17153 0.98189 0.0
H1392 H 0.87802 0.41471 0.10317 0.0
H1393 H 0.84694 0.42764 0.13527 0.0
H1394 H 0.88369 0.43974 0.09834 0.0
H1395 H 0.85283 0.45257 0.13061 0.0
H1396 H 0.85421 0.47471 0.0745 0.0
H1397 H 0.86561 0.45373 0.0851 0.0
H1398 H 0.86633 0.47483 0.12624 0.0
H1399 H 0.8544 0.49578 0.11551 0.0
C1400 C 0.87294 0.42289 0.10974 0.0
C1401 C 0.86171 0.41929 0.11929 0.0
C1402 C 0.87616 0.43723 0.10691 0.0
C1403 C 0.86826 0.44818 0.11367 0.0
C1404 C 0.85892 0.44444 0.12504 0.0
C1405 C 0.8556 0.43007 0.12781 0.0
C1406 C 0.85748 0.47515 0.08562 0.0
C1407 C 0.85336 0.48675 0.09424 0.0
C1408 C 0.86407 0.4631 0.09176 0.0
C1409 C 0.86667 0.46248 0.10662 0.0
C1410 C 0.86434 0.47493 0.1148 0.0
C1411 C 0.85758 0.48694 0.10866 0.0
H1412 H 0.96194 0.63046 0.37855 0.0
H1413 H 0.94114 0.59046 0.36919 0.0
H1414 H 0.93939 0.6434 0.37386 0.0
H1415 H 0.91867 0.60329 0.36466 0.0
H1416 H 0.91504 0.64437 0.32618 0.0
H1417 H 0.93132 0.64252 0.3463 0.0
H1418 H 0.89789 0.6228 0.37179 0.0
H1419 H 0.88119 0.62594 0.35182 0.0
C1420 C 0.95235 0.62439 0.37624 0.0
C1421 C 0.95328 0.60954 0.37402 0.0
C1422 C 0.93946 0.63179 0.37358 0.0
C1423 C 0.92734 0.62438 0.36876 0.0
C1424 C 0.9278 0.60929 0.36846 0.0
C1425 C 0.9407 0.60192 0.37104 0.0
C1426 C 0.91078 0.64084 0.33645 0.0
C1427 C 0.89709 0.63463 0.33728 0.0
C1428 C 0.92021 0.63953 0.34799 0.0
C1429 C 0.91604 0.63195 0.36041 0.0
C1430 C 0.90147 0.62842 0.36222 0.0
C1431 C 0.89189 0.63031 0.35081 0.0
H1432 H 0.7186 0.60293 0.60647 0.0
H1433 H 0.72253 0.61976 0.56343 0.0
H1434 H 0.70926 0.62627 0.61464 0.0
H1435 H 0.71393 0.64298 0.57158 0.0
H1436 H 0.73674 0.67212 0.61508 0.0
H1437 H 0.72795 0.64761 0.61508 0.0
H1438 H 0.69557 0.65943 0.58419 0.0
H1439 H 0.70405 0.68406 0.58458 0.0
C1440 C 0.71685 0.61142 0.59867 0.0
C1441 C 0.72137 0.60969 0.58438 0.0
C1442 C 0.71165 0.62477 0.60337 0.0
C1443 C 0.71126 0.63651 0.59386 0.0
C1444 C 0.71407 0.63415 0.5792 0.0
C1445 C 0.71905 0.62084 0.5745 0.0
C1446 C 0.72719 0.66968 0.60901 0.0
C1447 C 0.72133 0.67982 0.59953 0.0
C1448 C 0.72217 0.65556 0.6089 0.0
C1449 C 0.71144 0.65148 0.59917 0.0
C1450 C 0.70402 0.66222 0.59159 0.0
C1451 C 0.70891 0.67631 0.59182 0.0
H1452 H 0.96925 0.51748 0.2115 0.0
H1453 H 0.9834 0.47353 0.20752 0.0
H1454 H 0.94458 0.5102 0.20774 0.0
H1455 H 0.95845 0.46612 0.20367 0.0
H1456 H 0.90172 0.49819 0.20621 0.0
H1457 H 0.92462 0.49657 0.19342 0.0
H1458 H 0.94125 0.46921 0.22701 0.0
H1459 H 0.91843 0.47111 0.23996 0.0
C1460 C 0.96717 0.50637 0.20897 0.0
C1461 C 0.97811 0.496 0.21004 0.0
C1462 C 0.953 0.50216 0.20681 0.0
C1463 C 0.94961 0.48753 0.2057 0.0
C1464 C 0.96082 0.47744 0.2046 0.0
C1465 C 0.97506 0.48168 0.20676 0.0
C1466 C 0.91004 0.49117 0.21045 0.0
C1467 C 0.9085 0.48495 0.22415 0.0
C1468 C 0.92313 0.49026 0.20311 0.0
C1469 C 0.93479 0.48306 0.20938 0.0
C1470 C 0.93246 0.47488 0.22195 0.0
C1471 C 0.91935 0.47589 0.22937 0.0
H1472 H 0.65815 0.64054 0.73488 0.0
H1473 H 0.67647 0.62002 0.69768 0.0
H1474 H 0.63438 0.63787 0.72493 0.0
H1475 H 0.65275 0.61786 0.68733 0.0
H1476 H 0.62413 0.58106 0.7012 0.0
H1477 H 0.63764 0.60046 0.69118 0.0
H1478 H 0.61347 0.63039 0.71749 0.0
H1479 H 0.6004 0.61037 0.72793 0.0
C1480 C 0.65712 0.63606 0.72425 0.0
C1481 C 0.669 0.62979 0.71739 0.0
C1482 C 0.64336 0.63432 0.71853 0.0
C1483 C 0.64131 0.62606 0.70607 0.0
C1484 C 0.65361 0.62302 0.69764 0.0
C1485 C 0.66734 0.62451 0.70343 0.0
C1486 C 0.62111 0.59189 0.70421 0.0
C1487 C 0.61214 0.59415 0.71615 0.0
C1488 C 0.62912 0.60325 0.69861 0.0
C1489 C 0.62798 0.61704 0.70475 0.0
C1490 C 0.61578 0.61975 0.71349 0.0
C1491 C 0.60791 0.60827 0.71925 0.0
H1492 H 0.47767 0.85612 0.60481 0.0
H1493 H 0.50759 0.88379 0.62578 0.0
H1494 H 0.45862 0.8641 0.62097 0.0
H1495 H 0.48919 0.89139 0.64225 0.0
H1496 H 0.45584 0.84532 0.66727 0.0
H1497 H 0.45644 0.85421 0.64292 0.0
H1498 H 0.47118 0.8953 0.65774 0.0
H1499 H 0.47133 0.88597 0.68217 0.0
C1500 C 0.47998 0.86459 0.61231 0.0
C1501 C 0.49426 0.86866 0.61473 0.0
C1502 C 0.46912 0.86894 0.6219 0.0
C1503 C 0.47257 0.87737 0.63391 0.0
C1504 C 0.48598 0.88437 0.63368 0.0
C1505 C 0.4967 0.88015 0.62399 0.0
C1506 C 0.4585 0.85648 0.66541 0.0
C1507 C 0.46399 0.86481 0.6765 0.0
C1508 C 0.45897 0.86164 0.65129 0.0
C1509 C 0.46497 0.87516 0.64805 0.0
C1510 C 0.46743 0.88448 0.6596 0.0
C1511 C 0.46727 0.87924 0.67369 0.0
H1512 H 0.46535 0.24259 0.94839 0.0
H1513 H 0.49855 0.21319 0.93441 0.0
H1514 H 0.45512 0.24275 0.92441 0.0
H1515 H 0.488 0.21296 0.91049 0.0
H1516 H 0.47879 0.26217 0.88088 0.0
H1517 H 0.47337 0.25519 0.90551 0.0
H1518 H 0.46487 0.21199 0.89181 0.0
H1519 H 0.47052 0.21903 0.86694 0.0
C1520 C 0.46991 0.23544 0.9404 0.0
C1521 C 0.48283 0.22801 0.94312 0.0
C1522 C 0.46405 0.23559 0.92667 0.0
C1523 C 0.47093 0.22811 0.91555 0.0
C1524 C 0.4825 0.21885 0.91887 0.0
C1525 C 0.4885 0.21886 0.93261 0.0
C1526 C 0.47503 0.25139 0.88299 0.0
C1527 C 0.47521 0.24107 0.87212 0.0
C1528 C 0.47194 0.24736 0.89711 0.0
C1529 C 0.46897 0.23297 0.90054 0.0
C1530 C 0.46725 0.2231 0.8894 0.0
C1531 C 0.47039 0.22715 0.8752 0.0
H1532 H 0.11432 0.2223 0.09914 0.0
H1533 H 0.07163 0.22245 0.11747 0.0
H1534 H 0.12357 0.21046 0.12074 0.0
H1535 H 0.08072 0.21139 0.13914 0.0
H1536 H 0.12884 0.23219 0.16687 0.0
H1537 H 0.12692 0.22359 0.14241 0.0
H1538 H 0.09264 0.19528 0.15525 0.0
H1539 H 0.09488 0.20347 0.17984 0.0
C1540 C 0.10682 0.21914 0.10752 0.0
C1541 C 0.09233 0.22335 0.10679 0.0
C1542 C 0.11211 0.21243 0.11993 0.0
C1543 C 0.10301 0.21033 0.13189 0.0
C1544 C 0.08813 0.21279 0.13023 0.0
C1545 C 0.08285 0.21921 0.11777 0.0
C1546 C 0.12142 0.2236 0.16463 0.0
C1547 C 0.11159 0.21894 0.17509 0.0
C1548 C 0.12021 0.21873 0.15053 0.0
C1549 C 0.10896 0.20949 0.14669 0.0
C1550 C 0.10102 0.20287 0.15772 0.0
C1551 C 0.10232 0.20757 0.17182 0.0
H1552 H 0.11092 0.86626 0.50049 0.0
H1553 H 0.06908 0.85183 0.48762 0.0
H1554 H 0.11286 0.88056 0.47848 0.0
H1555 H 0.07125 0.86517 0.46545 0.0
H1556 H 0.12188 0.86068 0.43217 0.0
H1557 H 0.11863 0.86776 0.4569 0.0
H1558 H 0.07567 0.88292 0.44758 0.0
H1559 H 0.07903 0.87604 0.42267 0.0
C1560 C 0.10184 0.86675 0.49329 0.0
C1561 C 0.0901 0.85762 0.49543 0.0
C1562 C 0.10298 0.87481 0.48062 0.0
C1563 C 0.09259 0.87342 0.46985 0.0
C1564 C 0.07963 0.86641 0.47333 0.0
C1565 C 0.07835 0.85867 0.48613 0.0
C1566 C 0.11195 0.86601 0.43526 0.0
C1567 C 0.10052 0.86725 0.42562 0.0
C1568 C 0.11003 0.87011 0.44953 0.0
C1569 C 0.09658 0.87527 0.45445 0.0
C1570 C 0.08599 0.87853 0.44427 0.0
C1571 C 0.08793 0.87455 0.42998 0.0
H1572 H 0.73495 0.48994 0.81887 0.0
H1573 H 0.75303 0.48149 0.86053 0.0
H1574 H 0.71402 0.47595 0.82517 0.0
H1575 H 0.73232 0.46638 0.86665 0.0
H1576 H 0.67406 0.46114 0.83709 0.0
H1577 H 0.69947 0.45611 0.83326 0.0
H1578 H 0.7092 0.478 0.87263 0.0
H1579 H 0.68388 0.48349 0.8762 0.0
C1580 C 0.73479 0.48437 0.8291 0.0
C1581 C 0.74535 0.48705 0.83936 0.0
C1582 C 0.72278 0.47621 0.83275 0.0
C1583 C 0.72124 0.47041 0.84667 0.0
C1584 C 0.73303 0.47107 0.85601 0.0
C1585 C 0.74493 0.47959 0.85248 0.0
C1586 C 0.6816 0.46451 0.84518 0.0
C1587 C 0.67707 0.47331 0.8566 0.0
C1588 C 0.69618 0.46158 0.84298 0.0
C1589 C 0.70648 0.46737 0.85217 0.0
C1590 C 0.70166 0.47384 0.865 0.0
C1591 C 0.68706 0.47695 0.86713 0.0
H1592 H 0.76335 0.36987 0.98336 0.0
H1593 H 0.72292 0.34766 0.9858 0.0
H1594 H 0.75177 0.3898 0.97122 0.0
H1595 H 0.71117 0.3675 0.97299 0.0
H1596 H 0.73343 0.42812 0.9605 0.0
H1597 H 0.73791 0.40325 0.95405 0.0
H1598 H 0.70566 0.3899 0.98474 0.0
H1599 H 0.70161 0.41473 0.99163 0.0
C1600 C 0.75212 0.36891 0.98051 0.0
C1601 C 0.74397 0.35737 0.98562 0.0
C1602 C 0.7454 0.38036 0.97346 0.0
C1603 C 0.73038 0.38044 0.97136 0.0
C1604 C 0.72268 0.36787 0.97459 0.0
C1605 C 0.72941 0.35648 0.98188 0.0
C1606 C 0.72684 0.41989 0.96544 0.0
C1607 C 0.71761 0.42326 0.977 0.0
C1608 C 0.72945 0.40562 0.96177 0.0
C1609 C 0.72285 0.39453 0.96959 0.0
C1610 C 0.71142 0.39814 0.97897 0.0
C1611 C 0.70894 0.41244 0.98283 0.0
H1612 H 0.8611 0.72392 0.46383 0.0
H1613 H 0.8347 0.69493 0.44005 0.0
H1614 H 0.88025 0.70593 0.46458 0.0
H1615 H 0.85356 0.67694 0.44079 0.0
H1616 H 0.88026 0.66378 0.49392 0.0
H1617 H 0.87516 0.68613 0.48147 0.0
H1618 H 0.87656 0.66425 0.44084 0.0
H1619 H 0.88139 0.6416 0.45348 0.0
C1620 C 0.85975 0.71411 0.45785 0.0
C1621 C 0.84615 0.71044 0.45262 0.0
C1622 C 0.87064 0.70365 0.45853 0.0
C1623 C 0.8681 0.6897 0.45349 0.0
C1624 C 0.85584 0.68744 0.44507 0.0
C1625 C 0.84501 0.69791 0.44443 0.0
C1626 C 0.88011 0.66382 0.4823 0.0
C1627 C 0.88103 0.65095 0.47465 0.0
C1628 C 0.87731 0.67672 0.47511 0.0
C1629 C 0.87549 0.67708 0.46013 0.0
C1630 C 0.87784 0.66437 0.45238 0.0
C1631 C 0.88059 0.65142 0.4596 0.0
H1632 H 1.00492 0.30378 0.17642 0.0
H1633 H 0.02391 0.28022 0.21138 0.0
H1634 H 0.01512 0.28716 0.15955 0.0
H1635 H 0.03471 0.26333 0.19447 0.0
H1636 H 0.07136 0.25387 0.16173 0.0
H1637 H 0.05305 0.25971 0.17969 0.0
H1638 H 0.02331 0.27063 0.14585 0.0
H1639 H 0.04142 0.26524 0.12834 0.0
C1640 C 0.0113 0.29488 0.18045 0.0
C1641 C 0.01422 0.2937 0.19509 0.0
C1642 C 0.01724 0.28511 0.17073 0.0
C1643 C 0.02687 0.2742 0.17527 0.0
C1644 C 0.02818 0.27198 0.19023 0.0
C1645 C 0.02184 0.2816 0.20004 0.0
C1646 C 0.06094 0.25773 0.15822 0.0
C1647 C 0.05821 0.25972 0.14356 0.0
C1648 C 0.05029 0.26107 0.16855 0.0
C1649 C 0.03678 0.26688 0.16454 0.0
C1650 C 0.03373 0.26733 0.14976 0.0
C1651 C 0.04424 0.26401 0.13953 0.0
H1652 H 0.08083 0.80531 0.42506 0.0
H1653 H 0.0626 0.80098 0.38288 0.0
H1654 H 0.06533 0.78658 0.43418 0.0
H1655 H 0.04711 0.78178 0.39201 0.0
H1656 H 0.02104 0.74603 0.41151 0.0
H1657 H 0.04195 0.75898 0.40254 0.0
H1658 H 0.04098 0.78521 0.44049 0.0
H1659 H 0.01956 0.77276 0.44906 0.0
C1660 C 0.07354 0.8003 0.41764 0.0
C1661 C 0.07242 0.80524 0.40337 0.0
C1662 C 0.06459 0.78949 0.42295 0.0
C1663 C 0.05443 0.783 0.41408 0.0
C1664 C 0.05455 0.78671 0.39933 0.0
C1665 C 0.06334 0.79783 0.39406 0.0
C1666 C 0.02513 0.75478 0.41782 0.0
C1667 C 0.01818 0.75883 0.43068 0.0
C1668 C 0.03724 0.76213 0.41271 0.0
C1669 C 0.04293 0.77362 0.42044 0.0
C1670 C 0.03669 0.7768 0.43394 0.0
C1671 C 0.02427 0.76977 0.43883 0.0
H1672 H 0.57332 0.79423 0.71443 0.0
H1673 H 0.58716 0.76557 0.68082 0.0
H1674 H 0.56699 0.81211 0.69711 0.0
H1675 H 0.58039 0.78365 0.66302 0.0
H1676 H 0.53377 0.82961 0.6661 0.0
H1677 H 0.55064 0.82004 0.68313 0.0
H1678 H 0.57586 0.80182 0.64838 0.0
H1679 H 0.55877 0.81206 0.63133 0.0
C1680 C 0.57488 0.79162 0.70321 0.0
C1681 C 0.58022 0.77805 0.6991 0.0
C1682 C 0.57102 0.80201 0.69308 0.0
C1683 C 0.57195 0.79924 0.67826 0.0
C1684 C 0.57866 0.78617 0.67416 0.0
C1685 C 0.58254 0.77563 0.68442 0.0
C1686 C 0.54299 0.82361 0.66215 0.0
C1687 C 0.5445 0.82086 0.64751 0.0
C1688 C 0.55291 0.81804 0.67197 0.0
C1689 C 0.56431 0.80891 0.66751 0.0
C1690 C 0.56683 0.80789 0.65257 0.0
C1691 C 0.55708 0.8139 0.64268 0.0
H1692 H 0.53996 0.31456 0.95988 0.0
H1693 H 0.56516 0.32822 0.92352 0.0
H1694 H 0.52533 0.29958 0.94431 0.0
H1695 H 0.55103 0.31351 0.9079 0.0
H1696 H 0.51568 0.25948 0.91691 0.0
H1697 H 0.52379 0.27871 0.93253 0.0
H1698 H 0.53413 0.30448 0.89516 0.0
H1699 H 0.5264 0.28552 0.87998 0.0
C1700 C 0.54227 0.31439 0.94847 0.0
C1701 C 0.55417 0.32185 0.94294 0.0
C1702 C 0.53398 0.30568 0.93949 0.0
C1703 C 0.53728 0.30445 0.92472 0.0
C1704 C 0.5481 0.31355 0.91913 0.0
C1705 C 0.55647 0.32199 0.92812 0.0
C1706 C 0.52 0.26916 0.91213 0.0
C1707 C 0.52063 0.27073 0.89715 0.0
C1708 C 0.52464 0.28034 0.9211 0.0
C1709 C 0.53045 0.29319 0.91537 0.0
C1710 C 0.53056 0.29472 0.90033 0.0
C1711 C 0.52589 0.28373 0.89147 0.0
H1712 H 0.08096 0.84075 0.43604 0.0
H1713 H 0.06134 0.81183 0.46653 0.0
H1714 H 0.06114 0.83675 0.41951 0.0
H1715 H 0.04214 0.80755 0.45061 0.0
H1716 H 0.01028 0.79326 0.42087 0.0
H1717 H 0.02323 0.80748 0.43801 0.0
H1718 H 0.04824 0.82609 0.4033 0.0
H1719 H 0.03392 0.81291 0.38626 0.0
C1720 C 0.07249 0.83343 0.43915 0.0
C1721 C 0.07294 0.82647 0.45258 0.0
C1722 C 0.06093 0.8311 0.42966 0.0
C1723 C 0.04959 0.82154 0.43321 0.0
C1724 C 0.05017 0.81499 0.44691 0.0
C1725 C 0.06151 0.81737 0.45628 0.0
C1726 C 0.01843 0.80059 0.41696 0.0
C1727 C 0.02162 0.80138 0.4023 0.0
C1728 C 0.02622 0.80866 0.42686 0.0
C1729 C 0.03818 0.81701 0.42249 0.0
C1730 C 0.03984 0.81932 0.40755 0.0
C1731 C 0.03154 0.81172 0.3976 0.0
H1732 H 0.55829 0.77795 0.63136 0.0
H1733 H 0.56363 0.75265 0.66991 0.0
H1734 H 0.53838 0.79092 0.64285 0.0
H1735 H 0.54473 0.76637 0.68174 0.0
H1736 H 0.52875 0.80874 0.70328 0.0
H1737 H 0.54254 0.78961 0.69154 0.0
H1738 H 0.51578 0.79378 0.65403 0.0
H1739 H 0.50194 0.81266 0.66593 0.0
C1740 C 0.55535 0.77529 0.64232 0.0
C1741 C 0.56298 0.76468 0.64988 0.0
C1742 C 0.5439 0.78271 0.64896 0.0
C1743 C 0.54042 0.78031 0.66356 0.0
C1744 C 0.54741 0.76897 0.67071 0.0
C1745 C 0.55829 0.76107 0.66386 0.0
C1746 C 0.52592 0.8056 0.6925 0.0
C1747 C 0.51465 0.81258 0.6853 0.0
C1748 C 0.53365 0.79444 0.68581 0.0
C1749 C 0.53059 0.79034 0.67158 0.0
C1750 C 0.5188 0.7969 0.66475 0.0
C1751 C 0.51088 0.80777 0.67157 0.0
H1752 H 0.54608 0.28478 0.96922 0.0
H1753 H 0.5438 0.25392 0.93505 0.0
H1754 H 0.56622 0.2964 0.95688 0.0
H1755 H 0.56337 0.26564 0.92255 0.0
H1756 H 0.57808 0.30293 0.89393 0.0
H1757 H 0.56539 0.28565 0.90878 0.0
H1758 H 0.58852 0.30024 0.94595 0.0
H1759 H 0.60049 0.31842 0.9309 0.0
C1760 C 0.54981 0.28056 0.95903 0.0
C1761 C 0.54287 0.26888 0.95279 0.0
C1762 C 0.56147 0.28713 0.95195 0.0
C1763 C 0.56598 0.28257 0.93818 0.0
C1764 C 0.55982 0.27003 0.93271 0.0
C1765 C 0.54857 0.26323 0.93996 0.0
C1766 C 0.58023 0.30259 0.90534 0.0
C1767 C 0.5896 0.31251 0.91144 0.0
C1768 C 0.57325 0.29238 0.91389 0.0
C1769 C 0.57552 0.29171 0.92883 0.0
C1770 C 0.58587 0.30093 0.93468 0.0
C1771 C 0.59271 0.31135 0.92611 0.0
H1772 H 0.02042 0.3372 0.17628 0.0
H1773 H 0.0236 0.31036 0.13888 0.0
H1774 H 0.04025 0.32405 0.18737 0.0
H1775 H 0.0437 0.29728 0.14982 0.0
H1776 H 0.05893 0.28232 0.20908 0.0
H1777 H 0.04414 0.30123 0.19819 0.0
H1778 H 0.06791 0.29691 0.15847 0.0
H1779 H 0.08345 0.27906 0.16972 0.0
C1780 C 0.02536 0.32841 0.17045 0.0
C1781 C 0.02013 0.32445 0.15693 0.0
C1782 C 0.03677 0.3209 0.1768 0.0
C1783 C 0.04346 0.30938 0.16968 0.0
C1784 C 0.03882 0.30605 0.1557 0.0
C1785 C 0.02711 0.31335 0.1495 0.0
C1786 C 0.06105 0.28552 0.19807 0.0
C1787 C 0.07202 0.2788 0.19011 0.0
C1788 C 0.05258 0.29637 0.19179 0.0
C1789 C 0.05432 0.30011 0.17718 0.0
C1790 C 0.0659 0.294 0.16957 0.0
C1791 C 0.07483 0.28375 0.17606 0.0
H1792 H 0.17739 0.06269 0.25077 0.0
H1793 H 0.13976 0.05762 0.27754 0.0
H1794 H 0.18978 0.04379 0.26428 0.0
H1795 H 0.15192 0.03844 0.29089 0.0
H1796 H 0.17427 1.00116 0.31073 0.0
H1797 H 0.1624 0.01517 0.29214 0.0
H1798 H 0.20053 0.04089 0.28712 0.0
H1799 H 0.21204 0.02753 0.30667 0.0
C1800 C 0.17179 0.0575 0.2596 0.0
C1801 C 0.15786 0.06201 0.26354 0.0
C1802 C 0.17887 0.04665 0.26732 0.0
C1803 C 0.17205 0.03976 0.27895 0.0
C1804 C 0.15763 0.04354 0.28211 0.0
C1805 C 0.15068 0.05469 0.27462 0.0
C1806 C 0.18013 0.00989 0.30574 0.0
C1807 C 0.19389 0.01365 0.31064 0.0
C1808 C 0.17328 0.01794 0.29504 0.0
C1809 C 0.18019 0.02966 0.28854 0.0
C1810 C 0.1946 0.03236 0.2923 0.0
C1811 C 0.20124 0.02472 0.30353 0.0
H1812 H 0.33884 0.93201 0.57126 0.0
H1813 H 0.32669 0.96579 0.54179 0.0
H1814 H 0.33347 0.91434 0.55287 0.0
H1815 H 0.32177 0.94855 0.52363 0.0
H1816 H 0.28983 0.91692 0.50532 0.0
H1817 H 0.30541 0.93439 0.51581 0.0
H1818 H 0.33146 0.90018 0.53395 0.0
H1819 H 0.31557 0.88271 0.52302 0.0
C1820 C 0.33491 0.93567 0.56094 0.0
C1821 C 0.33265 0.95034 0.55835 0.0
C1822 C 0.33188 0.92551 0.55025 0.0
C1823 C 0.32614 0.92969 0.53682 0.0
C1824 C 0.32518 0.94451 0.53395 0.0
C1825 C 0.3282 0.95457 0.54451 0.0
C1826 C 0.299 0.91318 0.51144 0.0
C1827 C 0.30105 0.89853 0.51398 0.0
C1828 C 0.30818 0.92325 0.51749 0.0
C1829 C 0.3194 0.91897 0.52679 0.0
C1830 C 0.32252 0.90414 0.52768 0.0
C1831 C 0.31348 0.89403 0.52126 0.0
H1832 H 0.42583 0.08627 0.83005 0.0
H1833 H 0.38634 0.06525 0.81929 0.0
H1834 H 0.4388 0.07167 0.81215 0.0
H1835 H 0.39909 0.05051 0.80175 0.0
H1836 H 0.45805 0.02834 0.79416 0.0
H1837 H 0.44725 0.0476 0.8085 0.0
H1838 H 0.41127 0.04962 0.77953 0.0
H1839 H 0.42248 0.0311 0.76483 0.0
C1840 C 0.42005 0.0782 0.82415 0.0
C1841 C 0.40529 0.07623 0.82664 0.0
C1842 C 0.42741 0.06994 0.81382 0.0
C1843 C 0.42013 0.05963 0.80566 0.0
C1844 C 0.40516 0.05828 0.80774 0.0
C1845 C 0.39787 0.06649 0.81804 0.0
C1846 C 0.44782 0.0329 0.79093 0.0
C1847 C 0.44083 0.02781 0.77868 0.0
C1848 C 0.44162 0.04399 0.79911 0.0
C1849 C 0.42801 0.04976 0.79561 0.0
C1850 C 0.42149 0.04515 0.78289 0.0
C1851 C 0.42794 0.03452 0.77443 0.0
H1852 H 0.32559 0.16457 0.01199 0.0
H1853 H 0.32149 0.20291 0.03732 0.0
H1854 H 0.30681 0.15307 0.02638 0.0
H1855 H 0.30227 0.19169 0.05141 0.0
H1856 H 0.26394 0.17153 0.07141 0.0
H1857 H 0.27861 0.18214 0.05264 0.0
H1858 H 0.30361 0.14306 0.04995 0.0
H1859 H 0.2894 0.13264 0.06965 0.0
C1860 C 0.32064 0.17054 0.02068 0.0
C1861 C 0.32542 0.18442 0.02393 0.0
C1862 C 0.30984 0.16395 0.0289 0.0
C1863 C 0.30317 0.17126 0.04032 0.0
C1864 C 0.30721 0.18561 0.04282 0.0
C1865 C 0.31836 0.19204 0.03487 0.0
C1866 C 0.27264 0.16514 0.06694 0.0
C1867 C 0.27588 0.15141 0.07257 0.0
C1868 C 0.28108 0.1713 0.05612 0.0
C1869 C 0.2928 0.16378 0.0502 0.0
C1870 C 0.29508 0.14944 0.05469 0.0
C1871 C 0.28695 0.14343 0.066 0.0
H1872 H 0.21128 0.06296 0.30556 0.0
H1873 H 0.17653 0.08068 0.28081 0.0
H1874 H 0.19408 0.05268 0.32261 0.0
H1875 H 0.15931 0.07097 0.29765 0.0
H1876 H 0.12804 0.04587 0.32138 0.0
H1877 H 0.14547 0.06365 0.3149 0.0
H1878 H 0.17967 0.034 0.32582 0.0
H1879 H 0.16186 0.01603 0.33257 0.0
C1880 C 0.1999 0.06481 0.30391 0.0
C1881 C 0.19512 0.07182 0.29142 0.0
C1882 C 0.18994 0.05879 0.31363 0.0
C1883 C 0.175 0.05987 0.31116 0.0
C1884 C 0.17053 0.069 0.29983 0.0
C1885 C 0.18043 0.07461 0.28995 0.0
C1886 C 0.13931 0.04302 0.32238 0.0
C1887 C 0.14349 0.0292 0.327 0.0
C1888 C 0.14946 0.05333 0.31847 0.0
C1889 C 0.1643 0.0502 0.31875 0.0
C1890 C 0.16847 0.0368 0.32469 0.0
C1891 C 0.15823 0.02635 0.32853 0.0
H1892 H 0.2588 0.90927 0.52659 0.0
H1893 H 0.28283 0.94835 0.53037 0.0
H1894 H 0.27416 0.89768 0.54455 0.0
H1895 H 0.29762 0.93719 0.54901 0.0
H1896 H 0.3192 0.91694 0.58605 0.0
H1897 H 0.29946 0.92686 0.5724 0.0
H1898 H 0.29875 0.88872 0.54647 0.0
H1899 H 0.31941 0.87897 0.55973 0.0
C1900 C 0.2674 0.91538 0.53131 0.0
C1901 C 0.27014 0.92945 0.52655 0.0
C1902 C 0.27615 0.90876 0.54165 0.0
C1903 C 0.28744 0.91631 0.54801 0.0
C1904 C 0.2892 0.9309 0.54423 0.0
C1905 C 0.28083 0.93731 0.53344 0.0
C1906 C 0.31498 0.91059 0.57738 0.0
C1907 C 0.32143 0.89737 0.57359 0.0
C1908 C 0.30357 0.91636 0.56953 0.0
C1909 C 0.29789 0.90896 0.55784 0.0
C1910 C 0.30324 0.89502 0.55502 0.0
C1911 C 0.31512 0.8894 0.56258 0.0
H1912 H 0.45418 0.03106 0.83346 0.0
H1913 H 0.41746 0.05596 0.8469 0.0
H1914 H 0.43856 0.01468 0.82079 0.0
H1915 H 0.40168 0.04028 0.83389 0.0
H1916 H 0.37469 0.01743 0.80289 0.0
H1917 H 0.38878 0.02403 0.82362 0.0
H1918 H 0.42763 0.01245 0.80038 0.0
H1919 H 0.41333 0.00607 0.77984 0.0
C1920 C 0.44267 0.03295 0.83369 0.0
C1921 C 0.437 0.0452 0.84032 0.0
C1922 C 0.43362 0.02366 0.82625 0.0
C1923 C 0.41872 0.02658 0.82513 0.0
C1924 C 0.41302 0.03774 0.83371 0.0
C1925 C 0.42208 0.04697 0.84113 0.0
C1926 C 0.3863 0.01648 0.80229 0.0
C1927 C 0.39301 0.01188 0.78959 0.0
C1928 C 0.39449 0.02034 0.81419 0.0
C1929 C 0.40968 0.01966 0.81373 0.0
C1930 C 0.41615 0.01377 0.8013 0.0
C1931 C 0.40795 0.01017 0.78933 0.0
H1932 H 0.27979 0.1829 0.09223 0.0
H1933 H 0.31011 0.21594 0.08084 0.0
H1934 H 0.29786 0.16473 0.08627 0.0
H1935 H 0.32804 0.19816 0.07536 0.0
H1936 H 0.3451 0.16699 0.04169 0.0
H1937 H 0.33534 0.1843 0.05824 0.0
H1938 H 0.3165 0.14994 0.08343 0.0
H1939 H 0.32672 0.13263 0.06659 0.0
C1940 C 0.29025 0.18628 0.08836 0.0
C1941 C 0.29315 0.2009 0.08638 0.0
C1942 C 0.30076 0.17584 0.085 0.0
C1943 C 0.31433 0.1797 0.07923 0.0
C1944 C 0.31758 0.19442 0.07875 0.0
C1945 C 0.30717 0.20478 0.08209 0.0
C1946 C 0.33894 0.16319 0.05085 0.0
C1947 C 0.33597 0.1486 0.05242 0.0
C1948 C 0.33332 0.17315 0.06057 0.0
C1949 C 0.32403 0.16884 0.07188 0.0
C1950 C 0.32277 0.15396 0.07447 0.0
C1951 C 0.32876 0.14394 0.06488 0.0
H1952 H 0.76685 0.45676 0.04189 0.0
H1953 H 0.74126 0.41876 0.03677 0.0
H1954 H 0.77955 0.44512 0.06175 0.0
H1955 H 0.75431 0.40692 0.05607 0.0
H1956 H 0.79745 0.38507 0.07076 0.0
H1957 H 0.77724 0.39652 0.05839 0.0
H1958 H 0.78201 0.43427 0.08446 0.0
H1959 H 0.80154 0.42254 0.09729 0.0
C1960 C 0.764 0.44593 0.04497 0.0
C1961 C 0.75346 0.43849 0.03739 0.0
C1962 C 0.7712 0.43923 0.05643 0.0
C1963 C 0.76843 0.42479 0.06017 0.0
C1964 C 0.75711 0.41784 0.05325 0.0
C1965 C 0.74961 0.42467 0.04216 0.0
C1966 C 0.7941 0.39577 0.07386 0.0
C1967 C 0.80145 0.40309 0.08462 0.0
C1968 C 0.78246 0.40236 0.06683 0.0
C1969 C 0.77837 0.41664 0.06992 0.0
C1970 C 0.78509 0.42348 0.08142 0.0
C1971 C 0.79633 0.41672 0.08878 0.0
H1972 H 0.88154 0.54234 0.28848 0.0
H1973 H 0.92122 0.52022 0.27879 0.0
H1974 H 0.89399 0.55673 0.30632 0.0
H1975 H 0.9338 0.53475 0.29606 0.0
H1976 H 0.95624 0.57582 0.3085 0.0
H1977 H 0.9429 0.55707 0.29689 0.0
H1978 H 0.90751 0.56354 0.32642 0.0
H1979 H 0.9213 0.58245 0.33822 0.0
C1980 C 0.89298 0.54072 0.29003 0.0
C1981 C 0.90058 0.53078 0.28157 0.0
C1982 C 0.90019 0.54893 0.30036 0.0
C1983 C 0.91527 0.54782 0.30205 0.0
C1984 C 0.92243 0.53674 0.29456 0.0
C1985 C 0.91518 0.52831 0.28461 0.0
C1986 C 0.94536 0.57366 0.31213 0.0
C1987 C 0.93945 0.58131 0.32367 0.0
C1988 C 0.93774 0.56258 0.30566 0.0
C1989 C 0.92375 0.55886 0.31023 0.0
C1990 C 0.91796 0.56634 0.32209 0.0
C1991 C 0.92573 0.57739 0.32873 0.0
H1992 H 0.81546 0.63889 0.51382 0.0
H1993 H 0.84077 0.67689 0.50758 0.0
H1994 H 0.80081 0.65123 0.53179 0.0
H1995 H 0.82639 0.68932 0.52595 0.0
H1996 H 0.77987 0.67306 0.56866 0.0
H1997 H 0.79874 0.6615 0.55464 0.0
H1998 H 0.8031 0.69997 0.52901 0.0
H1999 H 0.78325 0.71114 0.54239 0.0
C2000 C 0.81762 0.65005 0.51606 0.0
C2001 C 0.82864 0.65723 0.50864 0.0
C2002 C 0.80951 0.65705 0.5267 0.0
C2003 C 0.81207 0.67153 0.53012 0.0
C2004 C 0.8236 0.67845 0.52314 0.0
C2005 C 0.83176 0.67139 0.51252 0.0
C2006 C 0.78475 0.67903 0.55991 0.0
C2007 C 0.77954 0.69278 0.55618 0.0
C2008 C 0.79561 0.67236 0.55183 0.0
C2009 C 0.80211 0.67947 0.54015 0.0
C2010 C 0.79803 0.69387 0.53751 0.0
C2011 C 0.78659 0.70031 0.54515 0.0
H2012 H 0.96663 0.53585 0.26759 0.0
H2013 H 0.93256 0.51913 0.24173 0.0
H2014 H 0.95199 0.55579 0.27436 0.0
H2015 H 0.91728 0.53955 0.24836 0.0
H2016 H 0.88837 0.56962 0.27554 0.0
H2017 H 0.90298 0.55336 0.26112 0.0
H2018 H 0.9411 0.57611 0.27414 0.0
H2019 H 0.92636 0.59143 0.28925 0.0
C2020 C 0.95575 0.5364 0.26352 0.0
C2021 C 0.95071 0.5257 0.25437 0.0
C2022 C 0.9472 0.54815 0.26725 0.0
C2023 C 0.93305 0.54985 0.26207 0.0
C2024 C 0.92792 0.53893 0.25289 0.0
C2025 C 0.93662 0.52699 0.24915 0.0
C2026 C 0.89992 0.57103 0.27524 0.0
C2027 C 0.90635 0.58115 0.28416 0.0
C2028 C 0.90845 0.56165 0.26693 0.0
C2029 C 0.92364 0.5622 0.26736 0.0
C2030 C 0.92967 0.57412 0.27442 0.0
C2031 C 0.92119 0.58323 0.28297 0.0
H2032 H 0.72027 0.52539 0.79285 0.0
H2033 H 0.6869 0.51292 0.82276 0.0
H2034 H 0.70277 0.52963 0.77462 0.0
H2035 H 0.66899 0.51749 0.80427 0.0
H2036 H 0.67 0.56092 0.75594 0.0
H2037 H 0.68805 0.54581 0.76674 0.0
H2038 H 0.65466 0.51922 0.78538 0.0
H2039 H 0.63661 0.53461 0.7741 0.0
C2040 C 0.70909 0.52366 0.79565 0.0
C2041 C 0.70503 0.51941 0.80964 0.0
C2042 C 0.69887 0.52628 0.78505 0.0
C2043 C 0.68407 0.52509 0.78803 0.0
C2044 C 0.68011 0.51935 0.80158 0.0
C2045 C 0.69042 0.51672 0.81231 0.0
C2046 C 0.66658 0.55173 0.76223 0.0
C2047 C 0.65196 0.54936 0.76477 0.0
C2048 C 0.67698 0.54282 0.76845 0.0
C2049 C 0.67308 0.53158 0.77795 0.0
C2050 C 0.65832 0.52817 0.77893 0.0
C2051 C 0.64788 0.53692 0.77231 0.0
H2052 H 0.82105 0.43258 0.07631 0.0
H2053 H 0.80459 0.46484 0.04732 0.0
H2054 H 0.81354 0.41404 0.05978 0.0
H2055 H 0.79723 0.44661 0.03082 0.0
H2056 H 0.76445 0.41278 0.01702 0.0
H2057 H 0.78046 0.43142 0.02524 0.0
H2058 H 0.8093 0.39907 0.04229 0.0
H2059 H 0.7933 0.38068 0.03404 0.0
C2060 C 0.81565 0.4357 0.0665 0.0
C2061 C 0.81282 0.4502 0.06359 0.0
C2062 C 0.81136 0.42502 0.05682 0.0
C2063 C 0.80369 0.42847 0.04414 0.0
C2064 C 0.80221 0.44313 0.0407 0.0
C2065 C 0.80659 0.45374 0.05026 0.0
C2066 C 0.77413 0.40972 0.0227 0.0
C2067 C 0.77706 0.39525 0.02559 0.0
C2068 C 0.7835 0.42046 0.02745 0.0
C2069 C 0.79587 0.41709 0.03566 0.0
C2070 C 0.79956 0.40246 0.03696 0.0
C2071 C 0.79031 0.39177 0.03207 0.0
H2072 H 0.75409 0.6596 0.56099 0.0
H2073 H 0.76534 0.62511 0.53229 0.0
H2074 H 0.75993 0.67688 0.5421 0.0
H2075 H 0.77108 0.642 0.51368 0.0
H2076 H 0.80337 0.67272 0.49373 0.0
H2077 H 0.78788 0.6557 0.50551 0.0
H2078 H 0.76207 0.69063 0.52259 0.0
H2079 H 0.77788 0.70765 0.51028 0.0
C2080 C 0.75799 0.65572 0.55074 0.0
C2081 C 0.75971 0.64095 0.54841 0.0
C2082 C 0.76134 0.66565 0.53977 0.0
C2083 C 0.76708 0.66113 0.52642 0.0
C2084 C 0.7677 0.64626 0.52392 0.0
C2085 C 0.7642 0.63641 0.53471 0.0
C2086 C 0.7942 0.67669 0.49981 0.0
C2087 C 0.79212 0.69142 0.50159 0.0
C2088 C 0.78511 0.6669 0.50665 0.0
C2089 C 0.77396 0.67155 0.51596 0.0
C2090 C 0.77091 0.68642 0.51626 0.0
C2091 C 0.77987 0.69626 0.50906 0.0
H2092 H 0.63447 0.53422 0.81023 0.0
H2093 H 0.67343 0.53539 0.83515 0.0
H2094 H 0.64323 0.55459 0.79591 0.0
H2095 H 0.68241 0.55481 0.82042 0.0
H2096 H 0.66172 0.59429 0.77425 0.0
H2097 H 0.65134 0.57911 0.79307 0.0
H2098 H 0.69176 0.55624 0.79647 0.0
H2099 H 0.70187 0.57109 0.77721 0.0
C2100 C 0.64489 0.5387 0.8126 0.0
C2101 C 0.65345 0.53272 0.82349 0.0
C2102 C 0.64994 0.5504 0.80441 0.0
C2103 C 0.66388 0.55589 0.80653 0.0
C2104 C 0.67188 0.55056 0.8181 0.0
C2105 C 0.66665 0.53935 0.82658 0.0
C2106 C 0.66834 0.58592 0.77898 0.0
C2107 C 0.68242 0.58347 0.77387 0.0
C2108 C 0.66239 0.57725 0.78979 0.0
C2109 C 0.67056 0.56622 0.79614 0.0
C2110 C 0.68507 0.56457 0.79181 0.0
C2111 C 0.69085 0.57292 0.78061 0.0
H2112 H 1.00432 0.38342 0.19855 0.0
H2113 H 1.00368 0.37026 0.243 0.0
H2114 H 0.99722 0.40771 0.20559 0.0
H2115 H 0.99644 0.39439 0.25004 0.0
H2116 H 0.9667 0.44318 0.22072 0.0
H2117 H 0.97553 0.41932 0.21463 0.0
H2118 H 1.00286 0.41945 0.25186 0.0
H2119 H 0.99386 0.44336 0.25807 0.0
C2120 C 1.00289 0.38575 0.20984 0.0
C2121 C 1.00437 0.3748 0.22015 0.0
C2122 C 0.99866 0.39966 0.21389 0.0
C2123 C 0.99594 0.40302 0.2284 0.0
C2124 C 0.99841 0.39227 0.23878 0.0
C2125 C 1.00262 0.37839 0.23472 0.0
C2126 C 0.97444 0.43807 0.22776 0.0
C2127 C 0.97949 0.44524 0.23996 0.0
C2128 C 0.97967 0.42442 0.22413 0.0
C2129 C 0.99011 0.41746 0.2326 0.0
C2130 C 0.9948 0.42442 0.24509 0.0
C2131 C 0.9896 0.43814 0.24869 0.0
H2132 H 0.93011 0.75898 0.45746 0.0
H2133 H 0.95031 0.7298 0.48738 0.0
H2134 H 0.90659 0.75229 0.4668 0.0
H2135 H 0.92684 0.72354 0.49725 0.0
H2136 H 0.88249 0.70189 0.49875 0.0
H2137 H 0.9065 0.71024 0.49241 0.0
H2138 H 0.88929 0.75279 0.48472 0.0
H2139 H 0.86527 0.74411 0.48998 0.0
C2140 C 0.92957 0.75146 0.46634 0.0
C2141 C 0.94216 0.74499 0.47167 0.0
C2142 C 0.916 0.74758 0.47176 0.0
C2143 C 0.9146 0.73723 0.48281 0.0
C2144 C 0.92731 0.73129 0.48857 0.0
C2145 C 0.94085 0.73504 0.48302 0.0
C2146 C 0.88384 0.713 0.49566 0.0
C2147 C 0.87183 0.72218 0.49454 0.0
C2148 C 0.8977 0.7179 0.49217 0.0
C2149 C 0.90001 0.73224 0.48778 0.0
C2150 C 0.88805 0.7416 0.48761 0.0
C2151 C 0.87421 0.73664 0.49086 0.0
H2152 H 0.64058 0.63812 0.75526 0.0
H2153 H 0.59744 0.62203 0.75161 0.0
H2154 H 0.63213 0.662 0.74802 0.0
H2155 H 0.58904 0.6456 0.74382 0.0
H2156 H 0.61719 0.69738 0.71767 0.0
H2157 H 0.6246 0.67398 0.72675 0.0
H2158 H 0.5839 0.6699 0.749 0.0
H2159 H 0.57634 0.69321 0.73952 0.0
C2160 C 0.62926 0.63972 0.75306 0.0
C2161 C 0.61976 0.62809 0.75376 0.0
C2162 C 0.6244 0.65339 0.74873 0.0
C2163 C 0.60991 0.65578 0.74494 0.0
C2164 C 0.60026 0.6443 0.7466 0.0
C2165 C 0.6051 0.63071 0.75109 0.0
C2166 C 0.60969 0.69142 0.7243 0.0
C2167 C 0.59608 0.69723 0.72772 0.0
C2168 C 0.61406 0.67802 0.72972 0.0
C2169 C 0.60499 0.66998 0.73885 0.0
C2170 C 0.5912 0.67563 0.74195 0.0
C2171 C 0.58681 0.68904 0.73646 0.0
H2172 H 0.70164 0.34333 0.01224 0.0
H2173 H 0.68875 0.38715 1.00441 0.0
H2174 H 0.67883 0.33496 1.00234 0.0
H2175 H 0.66571 0.3788 0.9948 0.0
H2176 H 0.62041 0.3561 0.99518 0.0
H2177 H 0.6431 0.36406 1.00533 0.0
H2178 H 0.66643 0.33668 0.97607 0.0
H2179 H 0.64361 0.32904 0.96542 0.0
C2180 C 0.69378 0.35119 0.00867 0.0
C2181 C 0.69692 0.36591 0.00927 0.0
C2182 C 0.6808 0.34638 1.00283 0.0
C2183 C 0.67045 0.35619 0.99772 0.0
C2184 C 0.67344 0.37096 0.99866 0.0
C2185 C 0.68661 0.37576 1.00418 0.0
C2186 C 0.63034 0.35163 0.99094 0.0
C2187 C 0.63011 0.34181 0.97949 0.0
C2188 C 0.64337 0.35632 0.99671 0.0
C2189 C 0.65659 0.35105 0.99152 0.0
C2190 C 0.65642 0.34092 0.98035 0.0
C2191 C 0.64335 0.33651 0.97426 0.0
H2192 H 0.99365 0.65618 0.33071 0.0
H2193 H 0.96177 0.65961 0.36445 0.0
H2194 H 1.00446 0.6787 0.3387 0.0
H2195 H 0.9727 0.68182 0.37253 0.0
H2196 H 1.00411 0.71274 0.39294 0.0
H2197 H 0.99648 0.6893 0.38406 0.0
H2198 H 0.99795 0.70555 0.34065 0.0
H2199 H 1.00576 0.72883 0.34948 0.0
C2200 C 0.98885 0.66178 0.33972 0.0
C2201 C 0.97673 0.65607 0.34682 0.0
C2202 C 0.99509 0.67467 0.34434 0.0
C2203 C 0.98959 0.682 0.3564 0.0
C2204 C 0.97738 0.67637 0.36336 0.0
C2205 C 0.97099 0.66369 0.35858 0.0
C2206 C 1.0031 0.71123 0.38149 0.0
C2207 C 1.00535 0.72278 0.37198 0.0
C2208 C 0.99866 0.6978 0.37638 0.0
C2209 C 0.99629 0.6956 0.36164 0.0
C2210 C 0.99956 0.70685 0.35206 0.0
C2211 C 1.00407 0.72023 0.35716 0.0
H2212 H 0.69142 0.71576 0.56274 0.0
H2213 H 0.71177 0.75296 0.58045 0.0
H2214 H 0.66831 0.72401 0.57173 0.0
H2215 H 0.68849 0.76206 0.58846 0.0
H2216 H 0.62586 0.74187 0.58555 0.0
H2217 H 0.64828 0.73722 0.57274 0.0
H2218 H 0.67128 0.76069 0.60517 0.0
H2219 H 0.64867 0.76626 0.61708 0.0
C2220 C 0.69085 0.72604 0.56807 0.0
C2221 C 0.70347 0.73374 0.57076 0.0
C2222 C 0.67747 0.73088 0.57329 0.0
C2223 C 0.67617 0.74379 0.58108 0.0
C2224 C 0.68881 0.75188 0.58297 0.0
C2225 C 0.70225 0.7468 0.57812 0.0
C2226 C 0.63571 0.74635 0.58968 0.0
C2227 C 0.63542 0.75457 0.60226 0.0
C2228 C 0.64872 0.74347 0.58245 0.0
C2229 C 0.66198 0.74831 0.58784 0.0
C2230 C 0.66152 0.7569 0.60029 0.0
C2231 C 0.64845 0.76012 0.60725 0.0
H2232 H 0.58508 0.38673 0.85724 0.0
H2233 H 0.60432 0.4003 0.89686 0.0
H2234 H 0.58864 0.4107 0.84712 0.0
H2235 H 0.60812 0.42405 0.88672 0.0
H2236 H 0.60667 0.46858 0.86897 0.0
H2237 H 0.59764 0.446 0.87852 0.0
H2238 H 0.60838 0.42519 0.83854 0.0
H2239 H 0.61715 0.44794 0.82886 0.0
C2240 C 0.58979 0.39488 0.86392 0.0
C2241 C 0.59433 0.39153 0.87793 0.0
C2242 C 0.592 0.40861 0.85804 0.0
C2243 C 0.59875 0.41938 0.86602 0.0
C2244 C 0.60271 0.41617 0.88025 0.0
C2245 C 0.60054 0.40247 0.88611 0.0
C2246 C 0.60684 0.45927 0.86208 0.0
C2247 C 0.61267 0.46012 0.84812 0.0
C2248 C 0.60177 0.44624 0.86763 0.0
C2249 C 0.60243 0.43363 0.85942 0.0
C2250 C 0.60757 0.43465 0.84518 0.0
C2251 C 0.61261 0.44773 0.8396 0.0
H2252 H 0.9333 0.32719 0.13299 0.0
H2253 H 0.95438 0.34491 0.09557 0.0
H2254 H 0.91006 0.33336 0.12298 0.0
H2255 H 0.93108 0.35031 0.08499 0.0
H2256 H 0.86821 0.34139 0.10208 0.0
H2257 H 0.89151 0.33072 0.1075 0.0
H2258 H 0.91246 0.36638 0.08626 0.0
H2259 H 0.88909 0.37641 0.08007 0.0
C2260 C 0.93295 0.33195 0.12236 0.0
C2261 C 0.94573 0.33553 0.1151 0.0
C2262 C 0.91953 0.3355 0.11652 0.0
C2263 C 0.91844 0.3425 0.10309 0.0
C2264 C 0.93131 0.34528 0.09548 0.0
C2265 C 0.94474 0.34198 0.10146 0.0
C2266 C 0.87782 0.34669 0.09819 0.0
C2267 C 0.87677 0.35969 0.09054 0.0
C2268 C 0.89126 0.34069 0.10151 0.0
C2269 C 0.90411 0.34773 0.09763 0.0
C2270 C 0.90298 0.36042 0.08934 0.0
C2271 C 0.8895 0.36623 0.08574 0.0
H2272 H 0.25146 0.99213 0.46125 0.0
H2273 H 0.26765 0.95449 0.43969 0.0
H2274 H 0.24683 1.00357 0.43817 0.0
H2275 H 0.26213 0.96533 0.41665 0.0
H2276 H 0.22184 0.01182 0.39667 0.0
H2277 H 0.23115 1.00407 0.41972 0.0
H2278 H 0.26531 0.98075 0.39809 0.0
H2279 H 0.25522 0.98774 0.37505 0.0
C2280 C 0.2542 0.98636 0.45154 0.0
C2281 C 0.26004 0.97243 0.45235 0.0
C2282 C 0.25132 0.99284 0.43822 0.0
C2283 C 0.25384 0.98543 0.42527 0.0
C2284 C 0.26021 0.97165 0.42617 0.0
C2285 C 0.26339 0.96533 0.43949 0.0
C2286 C 0.23153 1.0053 0.39686 0.0
C2287 C 0.23779 1.00045 0.38399 0.0
C2288 C 0.23696 1.00081 0.41017 0.0
C2289 C 0.24902 0.99155 0.41105 0.0
C2290 C 0.25579 0.98749 0.39807 0.0
C2291 C 0.25014 0.9917 0.38477 0.0
H2292 H 0.32582 0.98817 0.64362 0.0
H2293 H 0.36748 0.96801 0.63887 0.0
H2294 H 0.33278 0.99709 0.66709 0.0
H2295 H 0.3742 0.97622 0.66248 0.0
H2296 H 0.38883 1.00391 0.69894 0.0
H2297 H 0.38116 0.99644 0.67518 0.0
H2298 H 0.33761 0.99202 0.69107 0.0
H2299 H 0.34523 0.99993 0.71455 0.0
C2300 C 0.33633 0.98531 0.64771 0.0
C2301 C 0.346 0.97721 0.63931 0.0
C2302 C 0.34037 0.99045 0.66123 0.0
C2303 C 0.35417 0.98756 0.6668 0.0
C2304 C 0.36362 0.97904 0.65854 0.0
C2305 C 0.35965 0.97405 0.645 0.0
C2306 C 0.37759 1.00154 0.69729 0.0
C2307 C 0.36771 1.00247 0.70873 0.0
C2308 C 0.37317 0.99708 0.68366 0.0
C2309 C 0.35873 0.99334 0.68109 0.0
C2310 C 0.34877 0.99489 0.69244 0.0
C2311 C 0.35317 0.99948 0.706 0.0
H2312 H 0.3437 0.09796 0.97697 0.0
H2313 H 0.34786 0.14208 0.96345 0.0
H2314 H 0.3514 0.09003 0.95312 0.0
H2315 H 0.35597 0.13412 0.93971 0.0
H2316 H 0.35464 0.08426 0.90252 0.0
H2317 H 0.34452 0.09111 0.92593 0.0
H2318 H 0.37936 0.12073 0.93178 0.0
H2319 H 0.38965 0.11365 0.90871 0.0
C2320 C 0.34595 0.10599 0.96883 0.0
C2321 C 0.34539 0.1207 0.97224 0.0
C2322 C 0.35046 0.10142 0.95517 0.0
C2323 C 0.35458 0.11143 0.94459 0.0
C2324 C 0.35312 0.12612 0.9477 0.0
C2325 C 0.34841 0.13069 0.96129 0.0
C2326 C 0.36027 0.09205 0.9089 0.0
C2327 C 0.37301 0.09836 0.90367 0.0
C2328 C 0.35444 0.09602 0.92229 0.0
C2329 C 0.36101 0.10663 0.93063 0.0
C2330 C 0.37389 0.1127 0.92553 0.0
C2331 C 0.37987 0.10853 0.91233 0.0
H2332 H 0.20627 0.08057 0.20131 0.0
H2333 H 0.24928 0.07898 0.2182 0.0
H2334 H 0.21577 0.08801 0.17803 0.0
H2335 H 0.25898 0.08521 0.1947 0.0
H2336 H 0.27073 0.11493 0.15708 0.0
H2337 H 0.26223 0.1044 0.1795 0.0
H2338 H 0.22773 0.08379 0.15682 0.0
H2339 H 0.23588 0.09501 0.13458 0.0
C2340 C 0.21779 0.0816 0.2 0.0
C2341 C 0.22692 0.07954 0.21178 0.0
C2342 C 0.22333 0.08571 0.18652 0.0
C2343 C 0.23825 0.08752 0.1843 0.0
C2344 C 0.24743 0.08443 0.19591 0.0
C2345 C 0.24185 0.08057 0.20943 0.0
C2346 C 0.26149 0.10793 0.15684 0.0
C2347 C 0.25405 0.10581 0.14396 0.0
C2348 C 0.25656 0.10181 0.16977 0.0
C2349 C 0.24414 0.09318 0.17023 0.0
C2350 C 0.23711 0.09058 0.15715 0.0
C2351 C 0.24191 0.09688 0.14427 0.0
H2352 H 0.38834 0.24797 1.00283 0.0
H2353 H 0.41132 0.21289 0.02278 0.0
H2354 H 0.41092 0.26041 0.99856 0.0
H2355 H 0.43397 0.22475 0.01777 0.0
H2356 H 0.47415 0.24961 0.01239 0.0
H2357 H 0.45078 0.24194 0.02136 0.0
H2358 H 0.43068 0.26059 0.98384 0.0
H2359 H 0.45398 0.26901 0.97549 0.0
C2360 C 0.39823 0.24298 0.00647 0.0
C2361 C 0.39798 0.22947 0.01325 0.0
C2362 C 0.41127 0.25004 1.00383 0.0
C2363 C 0.42452 0.24364 0.00762 0.0
C2364 C 0.42414 0.2303 0.01487 0.0
C2365 C 0.41107 0.2234 0.01775 0.0
C2366 C 0.46466 0.25245 0.00631 0.0
C2367 C 0.46594 0.26006 0.9933 0.0
C2368 C 0.4512 0.24782 0.01132 0.0
C2369 C 0.43863 0.25033 1.00329 0.0
C2370 C 0.43991 0.25854 0.99056 0.0
C2371 C 0.45336 0.26344 0.98571 0.0
H2372 H 0.11741 0.87181 0.3586 0.0
H2373 H 0.07359 0.88744 0.35989 0.0
H2374 H 0.12518 0.89438 0.34799 0.0
H2375 H 0.08145 0.9102 0.34925 0.0
H2376 H 0.13542 0.94276 0.35019 0.0
H2377 H 0.12773 0.91877 0.35686 0.0
H2378 H 0.09197 0.92254 0.32779 0.0
H2379 H 0.09966 0.94682 0.32126 0.0
C2380 C 0.10935 0.87997 0.35642 0.0
C2381 C 0.09483 0.87773 0.36015 0.0
C2382 C 0.11387 0.893 0.35041 0.0
C2383 C 0.104 0.90423 0.34787 0.0
C2384 C 0.08935 0.90178 0.35096 0.0
C2385 C 0.08483 0.88871 0.35707 0.0
C2386 C 0.12604 0.93848 0.34507 0.0
C2387 C 0.11823 0.94681 0.33517 0.0
C2388 C 0.12163 0.92461 0.34884 0.0
C2389 C 0.10917 0.91865 0.34291 0.0
C2390 C 0.10155 0.9268 0.33267 0.0
C2391 C 0.10608 0.94067 0.32878 0.0
H2392 H 0.14846 0.86925 0.47607 0.0
H2393 H 0.15635 0.8264 0.49199 0.0
H2394 H 0.17227 0.87645 0.48379 0.0
H2395 H 0.17983 0.8337 0.50055 0.0
H2396 H 0.22684 0.84715 0.50254 0.0
H2397 H 0.20304 0.8395 0.49563 0.0
H2398 H 0.18683 0.88252 0.50261 0.0
H2399 H 0.2111 0.89029 0.50856 0.0
C2400 C 0.15532 0.86134 0.48122 0.0
C2401 C 0.15051 0.8472 0.48326 0.0
C2402 C 0.16897 0.86553 0.48588 0.0
C2403 C 0.17818 0.85578 0.49303 0.0
C2404 C 0.17333 0.84157 0.49493 0.0
C2405 C 0.15977 0.83732 0.49002 0.0
C2406 C 0.21817 0.85497 0.50273 0.0
C2407 C 0.22098 0.86942 0.50578 0.0
C2408 C 0.20438 0.85055 0.4988 0.0
C2409 C 0.19278 0.86036 0.49823 0.0
C2410 C 0.19544 0.87465 0.50239 0.0
C2411 C 0.20935 0.87912 0.50604 0.0
H2412 H 0.49197 0.87547 0.7486 0.0
H2413 H 0.5109 0.89877 0.71316 0.0
H2414 H 0.48687 0.89795 0.76084 0.0
H2415 H 0.50516 0.92132 0.72495 0.0
H2416 H 0.49912 0.96118 0.75083 0.0
H2417 H 0.50854 0.93819 0.74259 0.0
H2418 H 0.47108 0.9171 0.76034 0.0
H2419 H 0.46215 0.93999 0.76916 0.0
C2420 C 0.49521 0.88541 0.74349 0.0
C2421 C 0.50193 0.88527 0.72991 0.0
C2422 C 0.4921 0.89838 0.75043 0.0
C2423 C 0.49538 0.91166 0.74391 0.0
C2424 C 0.50261 0.91144 0.73054 0.0
C2425 C 0.50591 0.89844 0.7237 0.0
C2426 C 0.49309 0.95157 0.75329 0.0
C2427 C 0.47991 0.95247 0.76076 0.0
C2428 C 0.49839 0.93834 0.74837 0.0
C2429 C 0.49057 0.9256 0.75057 0.0
C2430 C 0.47763 0.9265 0.75855 0.0
C2431 C 0.47244 0.93971 0.76364 0.0
H2432 H 0.09505 0.12841 0.24961 0.0
H2433 H 0.1344 0.1495 0.26109 0.0
H2434 H 0.08356 0.15162 0.24552 0.0
H2435 H 0.12337 0.17266 0.25613 0.0
H2436 H 0.10082 0.21445 0.25063 0.0
H2437 H 0.10823 0.1914 0.26064 0.0
H2438 H 0.08231 0.16984 0.22916 0.0
H2439 H 0.07426 0.19292 0.21992 0.0
C2440 C 0.1012 0.13804 0.25144 0.0
C2441 C 0.11563 0.13707 0.25577 0.0
C2442 C 0.09467 0.15143 0.24888 0.0
C2443 C 0.10247 0.16426 0.25023 0.0
C2444 C 0.11678 0.16321 0.25514 0.0
C2445 C 0.12319 0.14984 0.25799 0.0
C2446 C 0.09639 0.20476 0.24615 0.0
C2447 C 0.08686 0.20556 0.23453 0.0
C2448 C 0.10083 0.19145 0.25174 0.0
C2449 C 0.09616 0.1785 0.24565 0.0
C2450 C 0.08608 0.1794 0.23441 0.0
C2451 C 0.08141 0.19272 0.22903 0.0
H2452 H 0.49356 0.11438 0.85381 0.0
H2453 H 0.45248 0.13488 0.84645 0.0
H2454 H 0.50368 0.13734 0.86077 0.0
H2455 H 0.4626 0.15787 0.85361 0.0
H2456 H 0.48014 0.19125 0.88492 0.0
H2457 H 0.47116 0.16832 0.87658 0.0
H2458 H 0.51018 0.16185 0.85204 0.0
H2459 H 0.51918 0.18498 0.86029 0.0
C2460 C 0.48672 0.12382 0.85341 0.0
C2461 C 0.47213 0.12269 0.84962 0.0
C2462 C 0.49255 0.13702 0.85745 0.0
C2463 C 0.48394 0.14946 0.85795 0.0
C2464 C 0.4695 0.14847 0.85358 0.0
C2465 C 0.46371 0.13529 0.84934 0.0
C2466 C 0.48694 0.1849 0.87789 0.0
C2467 C 0.50045 0.19003 0.87334 0.0
C2468 C 0.48168 0.17179 0.87296 0.0
C2469 C 0.48983 0.16328 0.86346 0.0
C2470 C 0.5036 0.1681 0.85935 0.0
C2471 C 0.5088 0.18135 0.86415 0.0
H2472 H 0.20612 0.20846 0.10766 0.0
H2473 H 0.21174 0.24712 0.08278 0.0
H2474 H 0.18197 0.21623 0.11446 0.0
H2475 H 0.18784 0.25532 0.08993 0.0
H2476 H 0.13939 0.26161 0.09644 0.0
H2477 H 0.16328 0.25397 0.08863 0.0
H2478 H 0.16908 0.23158 0.12899 0.0
H2479 H 0.14495 0.23884 0.13639 0.0
C2480 C 0.20219 0.21865 0.10367 0.0
C2481 C 0.21088 0.22716 0.09472 0.0
C2482 C 0.18832 0.22322 0.10766 0.0
C2483 C 0.18281 0.23661 0.10302 0.0
C2484 C 0.19144 0.2449 0.09366 0.0
C2485 C 0.20522 0.24018 0.08949 0.0
C2486 C 0.1459 0.25527 0.10373 0.0
C2487 C 0.14023 0.25076 0.11701 0.0
C2488 C 0.15966 0.25082 0.09924 0.0
C2489 C 0.16827 0.2419 0.10802 0.0
C2490 C 0.16275 0.238 0.12163 0.0
C2491 C 0.14889 0.24226 0.12599 0.0
H2492 H 0.40797 0.8633 0.57586 0.0
H2493 H 0.38644 0.84336 0.61186 0.0
H2494 H 0.43074 0.85297 0.58365 0.0
H2495 H 0.40901 0.83234 0.61931 0.0
H2496 H 0.45409 0.82936 0.63903 0.0
H2497 H 0.4305 0.83664 0.63033 0.0
H2498 H 0.44624 0.83391 0.58665 0.0
H2499 H 0.47003 0.82774 0.59552 0.0
C2500 C 0.40801 0.85636 0.58522 0.0
C2501 C 0.3953 0.85415 0.59317 0.0
C2502 C 0.42115 0.85035 0.58974 0.0
C2503 C 0.42198 0.84175 0.60226 0.0
C2504 C 0.40907 0.8391 0.60983 0.0
C2505 C 0.39599 0.84529 0.60543 0.0
C2506 C 0.45248 0.8303 0.62756 0.0
C2507 C 0.4641 0.82829 0.61804 0.0
C2508 C 0.43883 0.83436 0.62249 0.0
C2509 C 0.43626 0.83617 0.60767 0.0
C2510 C 0.44771 0.83312 0.59813 0.0
C2511 C 0.4614 0.82929 0.60323 0.0
H2512 H 0.76204 0.46734 0.95103 0.0
H2513 H 0.7313 0.49732 0.96895 0.0
H2514 H 0.75721 0.4769 0.92705 0.0
H2515 H 0.72644 0.50682 0.94499 0.0
H2516 H 0.72967 0.5268 0.8989 0.0
H2517 H 0.73627 0.51984 0.92345 0.0
H2518 H 0.73615 0.47529 0.91115 0.0
H2519 H 0.72974 0.48216 0.8869 0.0
C2520 C 0.75453 0.47621 0.94992 0.0
C2521 C 0.74709 0.48156 0.96195 0.0
C2522 C 0.75162 0.48158 0.93614 0.0
C2523 C 0.74128 0.49252 0.93405 0.0
C2524 C 0.73449 0.49845 0.94618 0.0
C2525 C 0.7373 0.49299 0.95994 0.0
C2526 C 0.73087 0.51552 0.9015 0.0
C2527 C 0.72899 0.50506 0.89088 0.0
C2528 C 0.7347 0.51153 0.91556 0.0
C2529 C 0.73694 0.497 0.91925 0.0
C2530 C 0.73479 0.48658 0.90867 0.0
C2531 C 0.73087 0.49055 0.89474 0.0
H2532 H 0.85019 0.48782 0.21804 0.0
H2533 H 0.85857 0.52864 0.19762 0.0
H2534 H 0.83966 0.47904 0.196 0.0
H2535 H 0.84774 0.51979 0.17543 0.0
H2536 H 0.8157 0.50166 0.14181 0.0
H2537 H 0.82402 0.51115 0.16475 0.0
H2538 H 0.84907 0.4726 0.1716 0.0
H2539 H 0.84071 0.46317 0.14878 0.0
C2540 C 0.84958 0.49506 0.20893 0.0
C2541 C 0.85522 0.50903 0.20972 0.0
C2542 C 0.84362 0.48993 0.1962 0.0
C2543 C 0.84289 0.49863 0.18386 0.0
C2544 C 0.84803 0.5128 0.18475 0.0
C2545 C 0.85424 0.51789 0.19748 0.0
C2546 C 0.82276 0.49509 0.14835 0.0
C2547 C 0.8275 0.48159 0.14341 0.0
C2548 C 0.82769 0.50063 0.16142 0.0
C2549 C 0.83729 0.4927 0.17005 0.0
C2550 C 0.84164 0.47901 0.16531 0.0
C2551 C 0.83691 0.4736 0.15215 0.0
H2552 H 0.8929 0.58787 0.37553 0.0
H2553 H 0.8565 0.60882 0.35566 0.0
H2554 H 0.88377 0.59526 0.39923 0.0
H2555 H 0.84781 0.61653 0.37912 0.0
H2556 H 0.85149 0.64376 0.42175 0.0
H2557 H 0.8588 0.63434 0.39828 0.0
H2558 H 0.86006 0.59149 0.41592 0.0
H2559 H 0.85231 0.60081 0.43929 0.0
C2560 C 0.88288 0.59383 0.37619 0.0
C2561 C 0.87544 0.59765 0.36362 0.0
C2562 C 0.87768 0.59811 0.38976 0.0
C2563 C 0.86511 0.60658 0.39103 0.0
C2564 C 0.85755 0.61012 0.37851 0.0
C2565 C 0.86252 0.60557 0.36505 0.0
C2566 C 0.85304 0.6323 0.42056 0.0
C2567 C 0.85108 0.62304 0.43239 0.0
C2568 C 0.85729 0.62691 0.40713 0.0
C2569 C 0.86008 0.61217 0.40525 0.0
C2570 C 0.85807 0.6029 0.41703 0.0
C2571 C 0.85346 0.60824 0.43038 0.0
H2572 H 0.72855 0.62761 0.63071 0.0
H2573 H 0.77055 0.60816 0.63548 0.0
H2574 H 0.72199 0.61984 0.65477 0.0
H2575 H 0.76399 0.60072 0.66005 0.0
H2576 H 0.74378 0.60857 0.70906 0.0
H2577 H 0.75408 0.6147 0.6855 0.0
H2578 H 0.71977 0.59203 0.66489 0.0
H2579 H 0.70965 0.58558 0.68831 0.0
C2580 C 0.73652 0.62193 0.63694 0.0
C2581 C 0.75007 0.61849 0.63102 0.0
C2582 C 0.73269 0.61738 0.65074 0.0
C2583 C 0.7424 0.6095 0.65917 0.0
C2584 C 0.75628 0.60674 0.65371 0.0
C2585 C 0.76005 0.61108 0.63969 0.0
C2586 C 0.73868 0.60452 0.69951 0.0
C2587 C 0.72591 0.59652 0.70059 0.0
C2588 C 0.74457 0.60807 0.68604 0.0
C2589 C 0.73765 0.60393 0.67341 0.0
C2590 C 0.72529 0.59539 0.67448 0.0
C2591 C 0.71957 0.5916 0.68791 0.0
loop_
_geom_bond_atom_site_label_1
_geom_bond_atom_site_label_2
_geom_bond_distance
_geom_bond_site_symmetry_2
_ccdc_geom_bond_type
O0 Cd1 2.223 1_655 S
O0 C8 1.315 . S
Cd1 O0 2.223 1_455 S
Cd1 O4 2.297 1_455 S
Cd1 O5 2.439 1_455 S
Cd1 O11 2.240 . S
Cd2 O3 2.240 . S
Cd2 O10 2.223 1_655 S
Cd2 O12 2.297 1_655 S
Cd2 O13 2.439 1_655 S
O3 Cd2 2.240 . S
O3 C8 1.279 . S
O4 Cd1 2.297 1_655 S
O4 C6 1.247 . S
O5 Cd1 2.439 1_655 S
O5 C6 1.208 . S
C6 O4 1.247 . S
C6 O5 1.208 . S
C7 O12 1.247 . S
C7 O13 1.208 . S
C8 O0 1.315 . S
C8 O3 1.279 . S
C9 O10 1.315 . S
C9 O11 1.279 . S
O10 Cd2 2.223 1_455 S
O10 C9 1.315 . S
O11 Cd1 2.240 . S
O11 C9 1.279 . S
O12 Cd2 2.297 1_455 S
O12 C7 1.247 . S
O13 Cd2 2.439 1_455 S
O13 C7 1.208 . S
O14 Cd15 2.223 . S
O14 C22 1.315 . S
Cd15 O14 2.223 . S
Cd15 O18 2.297 . S
Cd15 O19 2.439 . S
Cd15 O25 2.240 1_655 S
Cd16 O17 2.245 1_455 S
Cd16 O24 2.223 . S
Cd16 O26 2.297 . S
Cd16 O27 2.439 . S
O17 Cd16 2.245 1_655 S
O17 C22 1.278 . S
O18 Cd15 2.297 . S
O18 C20 1.247 . S
O19 Cd15 2.439 . S
O19 C20 1.208 . S
C20 O18 1.247 . S
C20 O19 1.208 . S
C21 O26 1.247 . S
C21 O27 1.208 . S
C22 O14 1.315 . S
C22 O17 1.278 . S
C23 O24 1.315 . S
C23 O25 1.279 . S
O24 Cd16 2.223 . S
O24 C23 1.315 . S
O25 Cd15 2.240 1_455 S
O25 C23 1.279 . S
O26 Cd16 2.297 . S
O26 C21 1.247 . S
O27 Cd16 2.439 . S
O27 C21 1.208 . S
O28 Cd29 2.223 . S
O28 C36 1.315 . S
Cd29 O28 2.223 . S
Cd29 O32 2.297 . S
Cd29 O33 2.439 . S
Cd29 O39 2.240 . S
Cd30 O31 2.240 . S
Cd30 O38 2.223 . S
Cd30 O40 2.297 . S
Cd30 O41 2.439 . S
O31 Cd30 2.240 . S
O31 C36 1.279 . S
O32 Cd29 2.297 . S
O32 C34 1.247 . S
O33 Cd29 2.439 . S
O33 C34 1.208 . S
C34 O32 1.247 . S
C34 O33 1.208 . S
C35 O40 1.247 . S
C35 O41 1.208 . S
C36 O28 1.315 . S
C36 O31 1.279 . S
C37 O38 1.315 . S
C37 O39 1.279 . S
O38 Cd30 2.223 . S
O38 C37 1.315 . S
O39 Cd29 2.240 . S
O39 C37 1.279 . S
O40 Cd30 2.297 . S
O40 C35 1.247 . S
O41 Cd30 2.439 . S
O41 C35 1.208 . S
O42 Cd43 2.223 . S
O42 C50 1.315 . S
Cd43 O42 2.223 . S
Cd43 O46 2.297 . S
Cd43 O47 2.439 . S
Cd43 O53 2.240 . S
Cd44 O45 2.240 . S
Cd44 O52 2.223 . S
Cd44 O54 2.297 . S
Cd44 O55 2.439 . S
O45 Cd44 2.240 . S
O45 C50 1.279 . S
O46 Cd43 2.297 . S
O46 C48 1.247 . S
O47 Cd43 2.439 . S
O47 C48 1.208 . S
C48 O46 1.247 . S
C48 O47 1.208 . S
C49 O54 1.262 . S
C49 O55 1.211 . S
C50 O42 1.315 . S
C50 O45 1.279 . S
C51 O52 1.315 . S
C51 O53 1.279 . S
O52 Cd44 2.223 . S
O52 C51 1.315 . S
O53 Cd43 2.240 . S
O53 C51 1.279 . S
O54 Cd44 2.297 . S
O54 C49 1.262 . S
O55 Cd44 2.439 . S
O55 C49 1.211 . S
O56 Cd57 2.223 1_655 S
O56 C64 1.315 . S
Cd57 O56 2.223 1_455 S
Cd57 O60 2.297 1_455 S
Cd57 O61 2.439 1_455 S
Cd57 O67 2.240 . S
Cd58 O59 2.240 . S
Cd58 O66 2.223 1_655 S
Cd58 O68 2.297 1_655 S
Cd58 O69 2.439 1_655 S
O59 Cd58 2.240 . S
O59 C64 1.279 . S
O60 Cd57 2.297 1_655 S
O60 C62 1.247 . S
O61 Cd57 2.439 1_655 S
O61 C62 1.208 . S
C62 O60 1.247 . S
C62 O61 1.208 . S
C63 O68 1.247 . S
C63 O69 1.208 . S
C64 O56 1.315 . S
C64 O59 1.279 . S
C65 O66 1.315 . S
C65 O67 1.279 . S
O66 Cd58 2.223 1_455 S
O66 C65 1.315 . S
O67 Cd57 2.240 . S
O67 C65 1.279 . S
O68 Cd58 2.297 1_455 S
O68 C63 1.247 . S
O69 Cd58 2.439 1_455 S
O69 C63 1.208 . S
O70 Cd71 2.223 . S
O70 C78 1.315 . S
Cd71 O70 2.223 . S
Cd71 O74 2.297 . S
Cd71 O75 2.439 . S
Cd71 O81 2.240 . S
Cd72 O73 2.240 . S
Cd72 O80 2.223 . S
Cd72 O82 2.297 . S
Cd72 O83 2.439 . S
O73 Cd72 2.240 . S
O73 C78 1.279 . S
O74 Cd71 2.297 . S
O74 C76 1.247 . S
O75 Cd71 2.439 . S
O75 C76 1.208 . S
C76 O74 1.247 . S
C76 O75 1.208 . S
C77 O82 1.247 . S
C77 O83 1.208 . S
C78 O70 1.315 . S
C78 O73 1.279 . S
C79 O80 1.315 . S
C79 O81 1.279 . S
O80 Cd72 2.223 . S
O80 C79 1.315 . S
O81 Cd71 2.240 . S
O81 C79 1.279 . S
O82 Cd72 2.297 . S
O82 C77 1.247 . S
O83 Cd72 2.439 . S
O83 C77 1.208 . S
O84 Cd85 2.223 . S
O84 C92 1.315 . S
Cd85 O84 2.223 . S
Cd85 O88 2.297 . S
Cd85 O89 2.439 . S
Cd85 O95 2.240 . S
Cd86 O87 2.240 . S
Cd86 O94 2.223 . S
Cd86 O96 2.297 . S
Cd86 O97 2.439 . S
O87 Cd86 2.240 . S
O87 C92 1.279 . S
O88 Cd85 2.297 . S
O88 C90 1.247 . S
O89 Cd85 2.439 . S
O89 C90 1.208 . S
C90 O88 1.247 . S
C90 O89 1.208 . S
C91 O96 1.247 . S
C91 O97 1.208 . S
C92 O84 1.315 . S
C92 O87 1.279 . S
C93 O94 1.315 . S
C93 O95 1.279 . S
O94 Cd86 2.223 . S
O94 C93 1.315 . S
O95 Cd85 2.240 . S
O95 C93 1.279 . S
O96 Cd86 2.297 . S
O96 C91 1.247 . S
O97 Cd86 2.439 . S
O97 C91 1.208 . S
O98 Cd99 2.223 . S
O98 C106 1.315 . S
Cd99 O98 2.223 . S
Cd99 O102 2.297 . S
Cd99 O103 2.439 . S
Cd99 O109 2.240 1_655 S
Cd100 O101 2.247 . S
Cd100 O108 2.223 . S
Cd100 O110 2.297 . S
Cd100 O111 2.439 . S
O101 Cd100 2.247 . S
O101 C106 1.277 1_455 S
O102 Cd99 2.297 . S
O102 C104 1.247 . S
O103 Cd99 2.439 . S
O103 C104 1.208 . S
C104 O102 1.247 . S
C104 O103 1.208 . S
C105 O110 1.247 . S
C105 O111 1.208 . S
C106 O98 1.315 . S
C106 O101 1.277 1_655 S
C107 O108 1.315 . S
C107 O109 1.279 . S
O108 Cd100 2.223 . S
O108 C107 1.315 . S
O109 Cd99 2.240 1_455 S
O109 C107 1.279 . S
O110 Cd100 2.297 . S
O110 C105 1.247 . S
O111 Cd100 2.439 . S
O111 C105 1.208 . S
O112 Cd113 2.223 1_565 S
O112 C120 1.315 . S
Cd113 O112 2.223 1_545 S
Cd113 O116 2.297 1_545 S
Cd113 O117 2.439 1_545 S
Cd113 O123 2.240 . S
Cd114 O115 2.240 . S
Cd114 O122 2.223 1_565 S
Cd114 O124 2.297 1_565 S
Cd114 O125 2.439 1_565 S
O115 Cd114 2.240 . S
O115 C120 1.279 . S
O116 Cd113 2.297 1_565 S
O116 C118 1.247 . S
O117 Cd113 2.439 1_565 S
O117 C118 1.208 . S
C118 O116 1.247 . S
C118 O117 1.208 . S
C119 O124 1.247 . S
C119 O125 1.208 . S
C120 O112 1.315 . S
C120 O115 1.279 . S
C121 O122 1.315 . S
C121 O123 1.279 . S
O122 Cd114 2.223 1_545 S
O122 C121 1.315 . S
O123 Cd113 2.240 . S
O123 C121 1.279 . S
O124 Cd114 2.297 1_545 S
O124 C119 1.247 . S
O125 Cd114 2.439 1_545 S
O125 C119 1.208 . S
O126 Cd127 2.223 . S
O126 C134 1.315 . S
Cd127 O126 2.223 . S
Cd127 O130 2.297 . S
Cd127 O131 2.439 . S
Cd127 O137 2.240 . S
Cd128 O129 2.240 . S
Cd128 O136 2.223 . S
Cd128 O138 2.297 . S
Cd128 O139 2.439 . S
O129 Cd128 2.240 . S
O129 C134 1.279 . S
O130 Cd127 2.297 . S
O130 C132 1.247 . S
O131 Cd127 2.439 . S
O131 C132 1.208 . S
C132 O130 1.247 . S
C132 O131 1.208 . S
C133 O138 1.262 . S
C133 O139 1.211 . S
C134 O126 1.315 . S
C134 O129 1.279 . S
C135 O136 1.315 . S
C135 O137 1.279 . S
O136 Cd128 2.223 . S
O136 C135 1.315 . S
O137 Cd127 2.240 . S
O137 C135 1.279 . S
O138 Cd128 2.297 . S
O138 C133 1.262 . S
O139 Cd128 2.439 . S
O139 C133 1.211 . S
O140 Cd141 2.223 . S
O140 C148 1.315 . S
Cd141 O140 2.223 . S
Cd141 O144 2.297 . S
Cd141 O145 2.439 . S
Cd141 O151 2.240 . S
Cd142 O143 2.240 . S
Cd142 O150 2.223 . S
Cd142 O152 2.297 . S
Cd142 O153 2.439 . S
O143 Cd142 2.240 . S
O143 C148 1.279 . S
O144 Cd141 2.297 . S
O144 C146 1.247 . S
O145 Cd141 2.439 . S
O145 C146 1.208 . S
C146 O144 1.247 . S
C146 O145 1.208 . S
C147 O152 1.247 . S
C147 O153 1.208 . S
C148 O140 1.315 . S
C148 O143 1.279 . S
C149 O150 1.315 . S
C149 O151 1.279 . S
O150 Cd142 2.223 . S
O150 C149 1.315 . S
O151 Cd141 2.240 . S
O151 C149 1.279 . S
O152 Cd142 2.297 . S
O152 C147 1.247 . S
O153 Cd142 2.439 . S
O153 C147 1.208 . S
O154 Cd155 2.223 . S
O154 C162 1.315 . S
Cd155 O154 2.223 . S
Cd155 O158 2.297 . S
Cd155 O159 2.439 . S
Cd155 O165 2.240 . S
Cd156 O157 2.240 . S
Cd156 O164 2.223 . S
Cd156 O166 2.297 . S
Cd156 O167 2.439 . S
O157 Cd156 2.240 . S
O157 C162 1.279 . S
O158 Cd155 2.297 . S
O158 C160 1.247 . S
O159 Cd155 2.439 . S
O159 C160 1.208 . S
C160 O158 1.247 . S
C160 O159 1.208 . S
C161 O166 1.247 . S
C161 O167 1.208 . S
C162 O154 1.315 . S
C162 O157 1.279 . S
C163 O164 1.315 . S
C163 O165 1.279 . S
O164 Cd156 2.223 . S
O164 C163 1.315 . S
O165 Cd155 2.240 . S
O165 C163 1.279 . S
O166 Cd156 2.297 . S
O166 C161 1.247 . S
O167 Cd156 2.439 . S
O167 C161 1.208 . S
O168 Cd169 2.223 . S
O168 C176 1.315 . S
Cd169 O168 2.223 . S
Cd169 O172 2.297 . S
Cd169 O173 2.439 . S
Cd169 O179 2.240 . S
Cd170 O171 2.240 . S
Cd170 O178 2.223 . S
Cd170 O180 2.297 . S
Cd170 O181 2.439 . S
O171 Cd170 2.240 . S
O171 C176 1.279 . S
O172 Cd169 2.297 . S
O172 C174 1.247 . S
O173 Cd169 2.439 . S
O173 C174 1.208 . S
C174 O172 1.247 . S
C174 O173 1.208 . S
C175 O180 1.247 . S
C175 O181 1.208 . S
C176 O168 1.315 . S
C176 O171 1.279 . S
C177 O178 1.315 . S
C177 O179 1.279 . S
O178 Cd170 2.223 . S
O178 C177 1.315 . S
O179 Cd169 2.240 . S
O179 C177 1.279 . S
O180 Cd170 2.297 . S
O180 C175 1.247 . S
O181 Cd170 2.439 . S
O181 C175 1.208 . S
O182 Cd183 2.223 . S
O182 C190 1.315 . S
Cd183 O182 2.223 . S
Cd183 O186 2.297 . S
Cd183 O187 2.439 . S
Cd183 O193 2.240 . S
Cd184 O185 2.240 . S
Cd184 O192 2.223 . S
Cd184 O194 2.297 . S
Cd184 O195 2.505 . S
O185 Cd184 2.240 . S
O185 C190 1.279 . S
O186 Cd183 2.297 . S
O186 C188 1.247 . S
O187 Cd183 2.439 . S
O187 C188 1.208 . S
C188 O186 1.247 . S
C188 O187 1.208 . S
C189 O194 1.202 1_545 S
C189 O195 1.195 1_545 S
C190 O182 1.315 . S
C190 O185 1.279 . S
C191 O192 1.315 . S
C191 O193 1.279 . S
O192 Cd184 2.223 . S
O192 C191 1.315 . S
O193 Cd183 2.240 . S
O193 C191 1.279 . S
O194 Cd184 2.297 . S
O194 C189 1.202 1_565 S
O195 Cd184 2.505 . S
O195 C189 1.195 1_565 S
O196 Cd197 2.223 1_565 S
O196 C204 1.315 . S
Cd197 O196 2.223 1_545 S
Cd197 O200 2.297 1_545 S
Cd197 O201 2.439 1_545 S
Cd197 O207 2.240 . S
Cd198 O199 2.240 . S
Cd198 O206 2.223 1_565 S
Cd198 O208 2.297 1_565 S
Cd198 O209 2.439 1_565 S
O199 Cd198 2.240 . S
O199 C204 1.279 . S
O200 Cd197 2.297 1_565 S
O200 C202 1.247 . S
O201 Cd197 2.439 1_565 S
O201 C202 1.208 . S
C202 O200 1.247 . S
C202 O201 1.208 . S
C203 O208 1.247 . S
C203 O209 1.208 . S
C204 O196 1.315 . S
C204 O199 1.279 . S
C205 O206 1.315 . S
C205 O207 1.279 . S
O206 Cd198 2.223 1_545 S
O206 C205 1.315 . S
O207 Cd197 2.240 . S
O207 C205 1.279 . S
O208 Cd198 2.297 1_545 S
O208 C203 1.247 . S
O209 Cd198 2.439 1_545 S
O209 C203 1.208 . S
O210 Cd211 2.223 . S
O210 C218 1.315 . S
Cd211 O210 2.223 . S
Cd211 O214 2.297 . S
Cd211 O215 2.439 . S
Cd211 O221 2.240 1_556 S
Cd212 O213 2.247 . S
Cd212 O220 2.223 . S
Cd212 O222 2.297 . S
Cd212 O223 2.439 . S
O213 Cd212 2.247 . S
O213 C218 1.277 1_554 S
O214 Cd211 2.297 . S
O214 C216 1.247 . S
O215 Cd211 2.439 . S
O215 C216 1.208 . S
C216 O214 1.247 . S
C216 O215 1.208 . S
C217 O222 1.247 . S
C217 O223 1.208 . S
C218 O210 1.315 . S
C218 O213 1.277 1_556 S
C219 O220 1.315 . S
C219 O221 1.279 . S
O220 Cd212 2.223 . S
O220 C219 1.315 . S
O221 Cd211 2.240 1_554 S
O221 C219 1.279 . S
O222 Cd212 2.297 . S
O222 C217 1.247 . S
O223 Cd212 2.439 . S
O223 C217 1.208 . S
O224 Cd225 2.223 1_556 S
O224 C232 1.315 . S
Cd225 O224 2.223 1_554 S
Cd225 O228 2.297 1_554 S
Cd225 O229 2.439 1_554 S
Cd225 O235 2.240 . S
Cd226 O227 2.240 . S
Cd226 O234 2.223 1_556 S
Cd226 O236 2.297 1_556 S
Cd226 O237 2.439 1_556 S
O227 Cd226 2.240 . S
O227 C232 1.279 . S
O228 Cd225 2.297 1_556 S
O228 C230 1.247 . S
O229 Cd225 2.439 1_556 S
O229 C230 1.208 . S
C230 O228 1.247 . S
C230 O229 1.208 . S
C231 O236 1.247 . S
C231 O237 1.208 . S
C232 O224 1.315 . S
C232 O227 1.279 . S
C233 O234 1.315 . S
C233 O235 1.279 . S
O234 Cd226 2.223 1_554 S
O234 C233 1.315 . S
O235 Cd225 2.240 . S
O235 C233 1.279 . S
O236 Cd226 2.297 1_554 S
O236 C231 1.247 . S
O237 Cd226 2.439 1_554 S
O237 C231 1.208 . S
O238 Cd239 2.223 . S
O238 C246 1.315 . S
Cd239 O238 2.223 . S
Cd239 O242 2.297 . S
Cd239 O243 2.439 . S
Cd239 O249 2.240 . S
Cd240 O241 2.240 . S
Cd240 O248 2.223 . S
Cd240 O250 2.297 . S
Cd240 O251 2.439 . S
O241 Cd240 2.240 . S
O241 C246 1.279 . S
O242 Cd239 2.297 . S
O242 C244 1.247 . S
O243 Cd239 2.439 . S
O243 C244 1.208 . S
C244 O242 1.247 . S
C244 O243 1.208 . S
C245 O250 1.247 . S
C245 O251 1.208 . S
C246 O238 1.315 . S
C246 O241 1.279 . S
C247 O248 1.315 . S
C247 O249 1.279 . S
O248 Cd240 2.223 . S
O248 C247 1.315 . S
O249 Cd239 2.240 . S
O249 C247 1.279 . S
O250 Cd240 2.297 . S
O250 C245 1.247 . S
O251 Cd240 2.439 . S
O251 C245 1.208 . S
O252 Cd253 2.223 . S
O252 C260 1.315 . S
Cd253 O252 2.223 . S
Cd253 O256 2.297 . S
Cd253 O257 2.439 . S
Cd253 O263 2.240 . S
Cd254 O255 2.240 . S
Cd254 O262 2.223 . S
Cd254 O264 2.297 . S
Cd254 O265 2.439 . S
O255 Cd254 2.240 . S
O255 C260 1.279 . S
O256 Cd253 2.297 . S
O256 C258 1.247 . S
O257 Cd253 2.439 . S
O257 C258 1.208 . S
C258 O256 1.247 . S
C258 O257 1.208 . S
C259 O264 1.262 . S
C259 O265 1.211 . S
C260 O252 1.315 . S
C260 O255 1.279 . S
C261 O262 1.315 . S
C261 O263 1.279 . S
O262 Cd254 2.223 . S
O262 C261 1.315 . S
O263 Cd253 2.240 . S
O263 C261 1.279 . S
O264 Cd254 2.297 . S
O264 C259 1.262 . S
O265 Cd254 2.439 . S
O265 C259 1.211 . S
O266 Cd267 2.223 . S
O266 C274 1.315 . S
Cd267 O266 2.223 . S
Cd267 O270 2.297 . S
Cd267 O271 2.439 . S
Cd267 O277 2.240 . S
Cd268 O269 2.240 . S
Cd268 O276 2.223 . S
Cd268 O278 2.297 . S
Cd268 O279 2.439 . S
O269 Cd268 2.240 . S
O269 C274 1.279 . S
O270 Cd267 2.297 . S
O270 C272 1.247 . S
O271 Cd267 2.439 . S
O271 C272 1.208 . S
C272 O270 1.247 . S
C272 O271 1.208 . S
C273 O278 1.247 . S
C273 O279 1.208 . S
C274 O266 1.315 . S
C274 O269 1.279 . S
C275 O276 1.315 . S
C275 O277 1.279 . S
O276 Cd268 2.223 . S
O276 C275 1.315 . S
O277 Cd267 2.240 . S
O277 C275 1.279 . S
O278 Cd268 2.297 . S
O278 C273 1.247 . S
O279 Cd268 2.439 . S
O279 C273 1.208 . S
O280 Cd281 2.223 . S
O280 C288 1.315 . S
Cd281 O280 2.223 . S
Cd281 O284 2.297 . S
Cd281 O285 2.439 . S
Cd281 O291 2.240 1_565 S
Cd282 O283 2.247 . S
Cd282 O290 2.223 . S
Cd282 O292 2.297 . S
Cd282 O293 2.439 . S
O283 Cd282 2.247 . S
O283 C288 1.277 1_545 S
O284 Cd281 2.297 . S
O284 C286 1.247 . S
O285 Cd281 2.439 . S
O285 C286 1.208 . S
C286 O284 1.247 . S
C286 O285 1.208 . S
C287 O292 1.247 . S
C287 O293 1.208 . S
C288 O280 1.315 . S
C288 O283 1.277 1_565 S
C289 O290 1.315 . S
C289 O291 1.279 . S
O290 Cd282 2.223 . S
O290 C289 1.315 . S
O291 Cd281 2.240 1_545 S
O291 C289 1.279 . S
O292 Cd282 2.297 . S
O292 C287 1.247 . S
O293 Cd282 2.439 . S
O293 C287 1.208 . S
O294 Cd295 2.223 . S
O294 C302 1.315 . S
Cd295 O294 2.223 . S
Cd295 O298 2.297 . S
Cd295 O299 2.439 . S
Cd295 O305 2.240 . S
Cd296 O297 2.240 . S
Cd296 O304 2.223 . S
Cd296 O306 2.297 . S
Cd296 O307 2.439 . S
O297 Cd296 2.240 . S
O297 C302 1.279 . S
O298 Cd295 2.297 . S
O298 C300 1.247 . S
O299 Cd295 2.439 . S
O299 C300 1.208 . S
C300 O298 1.247 . S
C300 O299 1.208 . S
C301 O306 1.247 . S
C301 O307 1.208 . S
C302 O294 1.315 . S
C302 O297 1.279 . S
C303 O304 1.315 . S
C303 O305 1.279 . S
O304 Cd296 2.223 . S
O304 C303 1.315 . S
O305 Cd295 2.240 . S
O305 C303 1.279 . S
O306 Cd296 2.297 . S
O306 C301 1.247 . S
O307 Cd296 2.439 . S
O307 C301 1.208 . S
O308 Cd309 2.223 . S
O308 C316 1.315 . S
Cd309 O308 2.223 . S
Cd309 O312 2.297 . S
Cd309 O313 2.439 . S
Cd309 O319 2.240 . S
Cd310 O311 2.240 . S
Cd310 O318 2.223 . S
Cd310 O320 2.297 . S
Cd310 O321 2.505 . S
O311 Cd310 2.240 . S
O311 C316 1.279 . S
O312 Cd309 2.297 . S
O312 C314 1.247 . S
O313 Cd309 2.439 . S
O313 C314 1.208 . S
C314 O312 1.247 . S
C314 O313 1.208 . S
C315 O320 1.202 1_455 S
C315 O321 1.195 1_455 S
C316 O308 1.315 . S
C316 O311 1.279 . S
C317 O318 1.315 . S
C317 O319 1.279 . S
O318 Cd310 2.223 . S
O318 C317 1.315 . S
O319 Cd309 2.240 . S
O319 C317 1.279 . S
O320 Cd310 2.297 . S
O320 C315 1.202 1_655 S
O321 Cd310 2.505 . S
O321 C315 1.195 1_655 S
O322 Cd323 2.223 . S
O322 C330 1.315 . S
Cd323 O322 2.223 . S
Cd323 O326 2.297 . S
Cd323 O327 2.439 . S
Cd323 O333 2.240 . S
Cd324 O325 2.240 . S
Cd324 O332 2.223 . S
Cd324 O334 2.297 . S
Cd324 O335 2.439 . S
O325 Cd324 2.240 . S
O325 C330 1.279 . S
O326 Cd323 2.297 . S
O326 C328 1.247 . S
O327 Cd323 2.439 . S
O327 C328 1.208 . S
C328 O326 1.247 . S
C328 O327 1.208 . S
C329 O334 1.247 . S
C329 O335 1.208 . S
C330 O322 1.315 . S
C330 O325 1.279 . S
C331 O332 1.315 . S
C331 O333 1.279 . S
O332 Cd324 2.223 . S
O332 C331 1.315 . S
O333 Cd323 2.240 . S
O333 C331 1.279 . S
O334 Cd324 2.297 . S
O334 C329 1.247 . S
O335 Cd324 2.439 . S
O335 C329 1.208 . S
O336 Cd337 2.223 . S
O336 C344 1.315 . S
Cd337 O336 2.223 . S
Cd337 O340 2.297 . S
Cd337 O341 2.439 . S
Cd337 O347 2.240 . S
Cd338 O339 2.240 . S
Cd338 O346 2.223 . S
Cd338 O348 2.297 . S
Cd338 O349 2.439 . S
O339 Cd338 2.240 . S
O339 C344 1.279 . S
O340 Cd337 2.297 . S
O340 C342 1.247 . S
O341 Cd337 2.439 . S
O341 C342 1.208 . S
C342 O340 1.247 . S
C342 O341 1.208 . S
C343 O348 1.247 . S
C343 O349 1.208 . S
C344 O336 1.315 . S
C344 O339 1.279 . S
C345 O346 1.315 . S
C345 O347 1.279 . S
O346 Cd338 2.223 . S
O346 C345 1.315 . S
O347 Cd337 2.240 . S
O347 C345 1.279 . S
O348 Cd338 2.297 . S
O348 C343 1.247 . S
O349 Cd338 2.439 . S
O349 C343 1.208 . S
O350 Cd351 2.223 . S
O350 C358 1.315 . S
Cd351 O350 2.223 . S
Cd351 O354 2.297 . S
Cd351 O355 2.439 . S
Cd351 O361 2.240 . S
Cd352 O353 2.240 . S
Cd352 O360 2.223 . S
Cd352 O362 2.297 . S
Cd352 O363 2.505 . S
O353 Cd352 2.240 . S
O353 C358 1.279 . S
O354 Cd351 2.297 . S
O354 C356 1.247 . S
O355 Cd351 2.439 . S
O355 C356 1.208 . S
C356 O354 1.247 . S
C356 O355 1.208 . S
C357 O362 1.202 1_554 S
C357 O363 1.195 1_554 S
C358 O350 1.315 . S
C358 O353 1.279 . S
C359 O360 1.315 . S
C359 O361 1.279 . S
O360 Cd352 2.223 . S
O360 C359 1.315 . S
O361 Cd351 2.240 . S
O361 C359 1.279 . S
O362 Cd352 2.297 . S
O362 C357 1.202 1_556 S
O363 Cd352 2.505 . S
O363 C357 1.195 1_556 S
O364 Cd365 2.223 . S
O364 C372 1.315 . S
Cd365 O364 2.223 . S
Cd365 O368 2.297 . S
Cd365 O369 2.439 . S
Cd365 O375 2.240 . S
Cd366 O367 2.240 . S
Cd366 O374 2.223 . S
Cd366 O376 2.297 . S
Cd366 O377 2.439 . S
O367 Cd366 2.240 . S
O367 C372 1.279 . S
O368 Cd365 2.297 . S
O368 C370 1.247 . S
O369 Cd365 2.439 . S
O369 C370 1.208 . S
C370 O368 1.247 . S
C370 O369 1.208 . S
C371 O376 1.247 . S
C371 O377 1.208 . S
C372 O364 1.315 . S
C372 O367 1.279 . S
C373 O374 1.315 . S
C373 O375 1.279 . S
O374 Cd366 2.223 . S
O374 C373 1.315 . S
O375 Cd365 2.240 . S
O375 C373 1.279 . S
O376 Cd366 2.297 . S
O376 C371 1.247 . S
O377 Cd366 2.439 . S
O377 C371 1.208 . S
O378 Cd379 2.223 . S
O378 C386 1.315 . S
Cd379 O378 2.223 . S
Cd379 O382 2.297 . S
Cd379 O383 2.439 . S
Cd379 O389 2.240 . S
Cd380 O381 2.240 . S
Cd380 O388 2.223 . S
Cd380 O390 2.297 . S
Cd380 O391 2.439 . S
O381 Cd380 2.240 . S
O381 C386 1.279 . S
O382 Cd379 2.297 . S
O382 C384 1.247 . S
O383 Cd379 2.439 . S
O383 C384 1.208 . S
C384 O382 1.247 . S
C384 O383 1.208 . S
C385 O390 1.247 . S
C385 O391 1.208 . S
C386 O378 1.315 . S
C386 O381 1.279 . S
C387 O388 1.315 . S
C387 O389 1.279 . S
O388 Cd380 2.223 . S
O388 C387 1.315 . S
O389 Cd379 2.240 . S
O389 C387 1.279 . S
O390 Cd380 2.297 . S
O390 C385 1.247 . S
O391 Cd380 2.439 . S
O391 C385 1.208 . S
O392 Cd393 2.223 . S
O392 C400 1.315 . S
Cd393 O392 2.223 . S
Cd393 O396 2.297 . S
Cd393 O397 2.439 . S
Cd393 O403 2.240 . S
Cd394 O395 2.240 . S
Cd394 O402 2.223 . S
Cd394 O404 2.297 . S
Cd394 O405 2.439 . S
O395 Cd394 2.240 . S
O395 C400 1.279 . S
O396 Cd393 2.297 . S
O396 C398 1.247 . S
O397 Cd393 2.439 . S
O397 C398 1.208 . S
C398 O396 1.247 . S
C398 O397 1.208 . S
C399 O404 1.247 . S
C399 O405 1.208 . S
C400 O392 1.315 . S
C400 O395 1.279 . S
C401 O402 1.315 . S
C401 O403 1.279 . S
O402 Cd394 2.223 . S
O402 C401 1.315 . S
O403 Cd393 2.240 . S
O403 C401 1.279 . S
O404 Cd394 2.297 . S
O404 C399 1.247 . S
O405 Cd394 2.439 . S
O405 C399 1.208 . S
O406 Cd407 2.223 . S
O406 C414 1.315 . S
Cd407 O406 2.223 . S
Cd407 O410 2.297 . S
Cd407 O411 2.439 . S
Cd407 O417 2.240 . S
Cd408 O409 2.240 . S
Cd408 O416 2.223 . S
Cd408 O418 2.297 . S
Cd408 O419 2.439 . S
O409 Cd408 2.240 . S
O409 C414 1.279 . S
O410 Cd407 2.297 . S
O410 C412 1.247 . S
O411 Cd407 2.439 . S
O411 C412 1.208 . S
C412 O410 1.247 . S
C412 O411 1.208 . S
C413 O418 1.247 . S
C413 O419 1.208 . S
C414 O406 1.315 . S
C414 O409 1.279 . S
C415 O416 1.315 . S
C415 O417 1.279 . S
O416 Cd408 2.223 . S
O416 C415 1.315 . S
O417 Cd407 2.240 . S
O417 C415 1.279 . S
O418 Cd408 2.297 . S
O418 C413 1.247 . S
O419 Cd408 2.439 . S
O419 C413 1.208 . S
O420 Cd421 2.223 . S
O420 C428 1.315 . S
Cd421 O420 2.223 . S
Cd421 O424 2.297 . S
Cd421 O425 2.439 . S
Cd421 O431 2.240 . S
Cd422 O423 2.240 . S
Cd422 O430 2.223 . S
Cd422 O432 2.297 . S
Cd422 O433 2.439 . S
O423 Cd422 2.240 . S
O423 C428 1.279 . S
O424 Cd421 2.297 . S
O424 C426 1.247 . S
O425 Cd421 2.439 . S
O425 C426 1.208 . S
C426 O424 1.247 . S
C426 O425 1.208 . S
C427 O432 1.247 . S
C427 O433 1.208 . S
C428 O420 1.315 . S
C428 O423 1.279 . S
C429 O430 1.315 . S
C429 O431 1.279 . S
O430 Cd422 2.223 . S
O430 C429 1.315 . S
O431 Cd421 2.240 . S
O431 C429 1.279 . S
O432 Cd422 2.297 . S
O432 C427 1.247 . S
O433 Cd422 2.439 . S
O433 C427 1.208 . S
O434 Cd435 2.223 . S
O434 C442 1.315 . S
Cd435 O434 2.223 . S
Cd435 O438 2.297 . S
Cd435 O439 2.439 . S
Cd435 O445 2.240 . S
Cd436 O437 2.240 . S
Cd436 O444 2.223 . S
Cd436 O446 2.297 . S
Cd436 O447 2.439 . S
O437 Cd436 2.240 . S
O437 C442 1.279 . S
O438 Cd435 2.297 . S
O438 C440 1.247 . S
O439 Cd435 2.439 . S
O439 C440 1.208 . S
C440 O438 1.247 . S
C440 O439 1.208 . S
C441 O446 1.247 . S
C441 O447 1.208 . S
C442 O434 1.315 . S
C442 O437 1.279 . S
C443 O444 1.315 . S
C443 O445 1.279 . S
O444 Cd436 2.223 . S
O444 C443 1.315 . S
O445 Cd435 2.240 . S
O445 C443 1.279 . S
O446 Cd436 2.297 . S
O446 C441 1.247 . S
O447 Cd436 2.439 . S
O447 C441 1.208 . S
O448 Cd449 2.223 . S
O448 C456 1.315 . S
Cd449 O448 2.223 . S
Cd449 O452 2.297 . S
Cd449 O453 2.439 . S
Cd449 O459 2.240 . S
Cd450 O451 2.240 . S
Cd450 O458 2.223 . S
Cd450 O460 2.297 . S
Cd450 O461 2.439 . S
O451 Cd450 2.240 . S
O451 C456 1.279 . S
O452 Cd449 2.297 . S
O452 C454 1.247 . S
O453 Cd449 2.439 . S
O453 C454 1.208 . S
C454 O452 1.247 . S
C454 O453 1.208 . S
C455 O460 1.247 . S
C455 O461 1.208 . S
C456 O448 1.315 . S
C456 O451 1.279 . S
C457 O458 1.315 . S
C457 O459 1.279 . S
O458 Cd450 2.223 . S
O458 C457 1.315 . S
O459 Cd449 2.240 . S
O459 C457 1.279 . S
O460 Cd450 2.297 . S
O460 C455 1.247 . S
O461 Cd450 2.439 . S
O461 C455 1.208 . S
O462 Cd463 2.223 . S
O462 C470 1.315 . S
Cd463 O462 2.223 . S
Cd463 O466 2.297 . S
Cd463 O467 2.439 . S
Cd463 O473 2.240 . S
Cd464 O465 2.240 . S
Cd464 O472 2.223 . S
Cd464 O474 2.297 . S
Cd464 O475 2.439 . S
O465 Cd464 2.240 . S
O465 C470 1.279 . S
O466 Cd463 2.297 . S
O466 C468 1.247 . S
O467 Cd463 2.439 . S
O467 C468 1.208 . S
C468 O466 1.247 . S
C468 O467 1.208 . S
C469 O474 1.247 . S
C469 O475 1.208 . S
C470 O462 1.315 . S
C470 O465 1.279 . S
C471 O472 1.315 . S
C471 O473 1.279 . S
O472 Cd464 2.223 . S
O472 C471 1.315 . S
O473 Cd463 2.240 . S
O473 C471 1.279 . S
O474 Cd464 2.297 . S
O474 C469 1.247 . S
O475 Cd464 2.439 . S
O475 C469 1.208 . S
O476 Cd477 2.223 . S
O476 C484 1.315 . S
Cd477 O476 2.223 . S
Cd477 O480 2.297 . S
Cd477 O481 2.439 . S
Cd477 O487 2.240 . S
Cd478 O479 2.240 . S
Cd478 O486 2.223 . S
Cd478 O488 2.297 . S
Cd478 O489 2.439 . S
O479 Cd478 2.240 . S
O479 C484 1.279 . S
O480 Cd477 2.297 . S
O480 C482 1.247 . S
O481 Cd477 2.439 . S
O481 C482 1.208 . S
C482 O480 1.247 . S
C482 O481 1.208 . S
C483 O488 1.247 . S
C483 O489 1.208 . S
C484 O476 1.315 . S
C484 O479 1.279 . S
C485 O486 1.315 . S
C485 O487 1.279 . S
O486 Cd478 2.223 . S
O486 C485 1.315 . S
O487 Cd477 2.240 . S
O487 C485 1.279 . S
O488 Cd478 2.297 . S
O488 C483 1.247 . S
O489 Cd478 2.439 . S
O489 C483 1.208 . S
O490 Cd491 2.223 . S
O490 C498 1.315 . S
Cd491 O490 2.223 . S
Cd491 O494 2.297 . S
Cd491 O495 2.439 . S
Cd491 O501 2.240 . S
Cd492 O493 2.240 . S
Cd492 O500 2.223 . S
Cd492 O502 2.297 . S
Cd492 O503 2.439 . S
O493 Cd492 2.240 . S
O493 C498 1.279 . S
O494 Cd491 2.297 . S
O494 C496 1.247 . S
O495 Cd491 2.439 . S
O495 C496 1.208 . S
C496 O494 1.247 . S
C496 O495 1.208 . S
C497 O502 1.247 . S
C497 O503 1.208 . S
C498 O490 1.315 . S
C498 O493 1.279 . S
C499 O500 1.315 . S
C499 O501 1.279 . S
O500 Cd492 2.223 . S
O500 C499 1.315 . S
O501 Cd491 2.240 . S
O501 C499 1.279 . S
O502 Cd492 2.297 . S
O502 C497 1.247 . S
O503 Cd492 2.439 . S
O503 C497 1.208 . S
O504 Cd505 2.223 . S
O504 C512 1.315 . S
Cd505 O504 2.223 . S
Cd505 O508 2.297 . S
Cd505 O509 2.439 . S
Cd505 O515 2.240 . S
Cd506 O507 2.240 . S
Cd506 O514 2.223 . S
Cd506 O516 2.297 . S
Cd506 O517 2.439 . S
O507 Cd506 2.240 . S
O507 C512 1.279 . S
O508 Cd505 2.297 . S
O508 C510 1.247 . S
O509 Cd505 2.439 . S
O509 C510 1.208 . S
C510 O508 1.247 . S
C510 O509 1.208 . S
C511 O516 1.247 . S
C511 O517 1.208 . S
C512 O504 1.315 . S
C512 O507 1.279 . S
C513 O514 1.315 . S
C513 O515 1.279 . S
O514 Cd506 2.223 . S
O514 C513 1.315 . S
O515 Cd505 2.240 . S
O515 C513 1.279 . S
O516 Cd506 2.297 . S
O516 C511 1.247 . S
O517 Cd506 2.439 . S
O517 C511 1.208 . S
O518 Cd519 2.223 . S
O518 C526 1.315 . S
Cd519 O518 2.223 . S
Cd519 O522 2.297 . S
Cd519 O523 2.439 . S
Cd519 O529 2.240 1_556 S
Cd520 O521 2.245 1_554 S
Cd520 O528 2.223 . S
Cd520 O530 2.297 . S
Cd520 O531 2.439 . S
O521 Cd520 2.245 1_556 S
O521 C526 1.278 . S
O522 Cd519 2.297 . S
O522 C524 1.247 . S
O523 Cd519 2.439 . S
O523 C524 1.208 . S
C524 O522 1.247 . S
C524 O523 1.208 . S
C525 O530 1.247 . S
C525 O531 1.208 . S
C526 O518 1.315 . S
C526 O521 1.278 . S
C527 O528 1.315 . S
C527 O529 1.279 . S
O528 Cd520 2.223 . S
O528 C527 1.315 . S
O529 Cd519 2.240 1_554 S
O529 C527 1.279 . S
O530 Cd520 2.297 . S
O530 C525 1.247 . S
O531 Cd520 2.439 . S
O531 C525 1.208 . S
O532 Cd533 2.223 . S
O532 C540 1.315 . S
Cd533 O532 2.223 . S
Cd533 O536 2.297 . S
Cd533 O537 2.439 . S
Cd533 O543 2.240 . S
Cd534 O535 2.240 . S
Cd534 O542 2.223 . S
Cd534 O544 2.297 . S
Cd534 O545 2.439 . S
O535 Cd534 2.240 . S
O535 C540 1.279 . S
O536 Cd533 2.297 . S
O536 C538 1.247 . S
O537 Cd533 2.439 . S
O537 C538 1.208 . S
C538 O536 1.247 . S
C538 O537 1.208 . S
C539 O544 1.247 . S
C539 O545 1.208 . S
C540 O532 1.315 . S
C540 O535 1.279 . S
C541 O542 1.315 . S
C541 O543 1.279 . S
O542 Cd534 2.223 . S
O542 C541 1.315 . S
O543 Cd533 2.240 . S
O543 C541 1.279 . S
O544 Cd534 2.297 . S
O544 C539 1.247 . S
O545 Cd534 2.439 . S
O545 C539 1.208 . S
O546 Cd547 2.223 . S
O546 C554 1.315 . S
Cd547 O546 2.223 . S
Cd547 O550 2.297 . S
Cd547 O551 2.439 . S
Cd547 O557 2.240 . S
Cd548 O549 2.240 . S
Cd548 O556 2.223 . S
Cd548 O558 2.297 . S
Cd548 O559 2.439 . S
O549 Cd548 2.240 . S
O549 C554 1.279 . S
O550 Cd547 2.297 . S
O550 C552 1.247 . S
O551 Cd547 2.439 . S
O551 C552 1.208 . S
C552 O550 1.247 . S
C552 O551 1.208 . S
C553 O558 1.247 . S
C553 O559 1.208 . S
C554 O546 1.315 . S
C554 O549 1.279 . S
C555 O556 1.315 . S
C555 O557 1.279 . S
O556 Cd548 2.223 . S
O556 C555 1.315 . S
O557 Cd547 2.240 . S
O557 C555 1.279 . S
O558 Cd548 2.297 . S
O558 C553 1.247 . S
O559 Cd548 2.439 . S
O559 C553 1.208 . S
O560 Cd561 2.223 . S
O560 C568 1.315 . S
Cd561 O560 2.223 . S
Cd561 O564 2.297 . S
Cd561 O565 2.439 . S
Cd561 O571 2.240 . S
Cd562 O563 2.240 . S
Cd562 O570 2.223 . S
Cd562 O572 2.297 . S
Cd562 O573 2.439 . S
O563 Cd562 2.240 . S
O563 C568 1.279 . S
O564 Cd561 2.297 . S
O564 C566 1.247 . S
O565 Cd561 2.439 . S
O565 C566 1.208 . S
C566 O564 1.247 . S
C566 O565 1.208 . S
C567 O572 1.247 . S
C567 O573 1.208 . S
C568 O560 1.315 . S
C568 O563 1.279 . S
C569 O570 1.315 . S
C569 O571 1.279 . S
O570 Cd562 2.223 . S
O570 C569 1.315 . S
O571 Cd561 2.240 . S
O571 C569 1.279 . S
O572 Cd562 2.297 . S
O572 C567 1.247 . S
O573 Cd562 2.439 . S
O573 C567 1.208 . S
O574 Cd575 2.223 . S
O574 C582 1.315 . S
Cd575 O574 2.223 . S
Cd575 O578 2.297 . S
Cd575 O579 2.439 . S
Cd575 O585 2.240 . S
Cd576 O577 2.240 . S
Cd576 O584 2.223 . S
Cd576 O586 2.297 . S
Cd576 O587 2.439 . S
O577 Cd576 2.240 . S
O577 C582 1.279 . S
O578 Cd575 2.297 . S
O578 C580 1.247 . S
O579 Cd575 2.439 . S
O579 C580 1.208 . S
C580 O578 1.247 . S
C580 O579 1.208 . S
C581 O586 1.247 . S
C581 O587 1.208 . S
C582 O574 1.315 . S
C582 O577 1.279 . S
C583 O584 1.315 . S
C583 O585 1.279 . S
O584 Cd576 2.223 . S
O584 C583 1.315 . S
O585 Cd575 2.240 . S
O585 C583 1.279 . S
O586 Cd576 2.297 . S
O586 C581 1.247 . S
O587 Cd576 2.439 . S
O587 C581 1.208 . S
O588 Cd589 2.223 . S
O588 C596 1.315 . S
Cd589 O588 2.223 . S
Cd589 O592 2.297 . S
Cd589 O593 2.439 . S
Cd589 O599 2.240 . S
Cd590 O591 2.240 . S
Cd590 O598 2.223 . S
Cd590 O600 2.297 . S
Cd590 O601 2.439 . S
O591 Cd590 2.240 . S
O591 C596 1.279 . S
O592 Cd589 2.297 . S
O592 C594 1.247 . S
O593 Cd589 2.439 . S
O593 C594 1.208 . S
C594 O592 1.247 . S
C594 O593 1.208 . S
C595 O600 1.247 . S
C595 O601 1.208 . S
C596 O588 1.315 . S
C596 O591 1.279 . S
C597 O598 1.315 . S
C597 O599 1.279 . S
O598 Cd590 2.223 . S
O598 C597 1.315 . S
O599 Cd589 2.240 . S
O599 C597 1.279 . S
O600 Cd590 2.297 . S
O600 C595 1.247 . S
O601 Cd590 2.439 . S
O601 C595 1.208 . S
O602 Cd603 2.223 . S
O602 C610 1.315 . S
Cd603 O602 2.223 . S
Cd603 O606 2.297 . S
Cd603 O607 2.439 . S
Cd603 O613 2.240 . S
Cd604 O605 2.240 . S
Cd604 O612 2.223 . S
Cd604 O614 2.297 . S
Cd604 O615 2.439 . S
O605 Cd604 2.240 . S
O605 C610 1.279 . S
O606 Cd603 2.297 . S
O606 C608 1.247 . S
O607 Cd603 2.439 . S
O607 C608 1.208 . S
C608 O606 1.247 . S
C608 O607 1.208 . S
C609 O614 1.247 . S
C609 O615 1.208 . S
C610 O602 1.315 . S
C610 O605 1.279 . S
C611 O612 1.315 . S
C611 O613 1.279 . S
O612 Cd604 2.223 . S
O612 C611 1.315 . S
O613 Cd603 2.240 . S
O613 C611 1.279 . S
O614 Cd604 2.297 . S
O614 C609 1.247 . S
O615 Cd604 2.439 . S
O615 C609 1.208 . S
O616 Cd617 2.223 . S
O616 C624 1.315 . S
Cd617 O616 2.223 . S
Cd617 O620 2.297 . S
Cd617 O621 2.439 . S
Cd617 O627 2.240 . S
Cd618 O619 2.240 . S
Cd618 O626 2.223 . S
Cd618 O628 2.297 . S
Cd618 O629 2.439 . S
O619 Cd618 2.240 . S
O619 C624 1.279 . S
O620 Cd617 2.297 . S
O620 C622 1.247 . S
O621 Cd617 2.439 . S
O621 C622 1.208 . S
C622 O620 1.247 . S
C622 O621 1.208 . S
C623 O628 1.247 . S
C623 O629 1.208 . S
C624 O616 1.315 . S
C624 O619 1.279 . S
C625 O626 1.315 . S
C625 O627 1.279 . S
O626 Cd618 2.223 . S
O626 C625 1.315 . S
O627 Cd617 2.240 . S
O627 C625 1.279 . S
O628 Cd618 2.297 . S
O628 C623 1.247 . S
O629 Cd618 2.439 . S
O629 C623 1.208 . S
O630 Cd631 2.223 1_556 S
O630 C638 1.315 . S
Cd631 O630 2.223 1_554 S
Cd631 O634 2.297 1_554 S
Cd631 O635 2.439 1_554 S
Cd631 O641 2.240 . S
Cd632 O633 2.240 . S
Cd632 O640 2.223 1_556 S
Cd632 O642 2.297 1_556 S
Cd632 O643 2.439 1_556 S
O633 Cd632 2.240 . S
O633 C638 1.279 . S
O634 Cd631 2.297 1_556 S
O634 C636 1.247 . S
O635 Cd631 2.439 1_556 S
O635 C636 1.208 . S
C636 O634 1.247 . S
C636 O635 1.208 . S
C637 O642 1.247 . S
C637 O643 1.208 . S
C638 O630 1.315 . S
C638 O633 1.279 . S
C639 O640 1.315 . S
C639 O641 1.279 . S
O640 Cd632 2.223 1_554 S
O640 C639 1.315 . S
O641 Cd631 2.240 . S
O641 C639 1.279 . S
O642 Cd632 2.297 1_554 S
O642 C637 1.247 . S
O643 Cd632 2.439 1_554 S
O643 C637 1.208 . S
O644 Cd645 2.223 . S
O644 C652 1.315 . S
Cd645 O644 2.223 . S
Cd645 O648 2.297 . S
Cd645 O649 2.439 . S
Cd645 O655 2.240 1_565 S
Cd646 O647 2.245 1_545 S
Cd646 O654 2.223 . S
Cd646 O656 2.297 . S
Cd646 O657 2.439 . S
O647 Cd646 2.245 1_565 S
O647 C652 1.278 . S
O648 Cd645 2.297 . S
O648 C650 1.247 . S
O649 Cd645 2.439 . S
O649 C650 1.208 . S
C650 O648 1.247 . S
C650 O649 1.208 . S
C651 O656 1.247 . S
C651 O657 1.208 . S
C652 O644 1.315 . S
C652 O647 1.278 . S
C653 O654 1.315 . S
C653 O655 1.279 . S
O654 Cd646 2.223 . S
O654 C653 1.315 . S
O655 Cd645 2.240 1_545 S
O655 C653 1.279 . S
O656 Cd646 2.297 . S
O656 C651 1.247 . S
O657 Cd646 2.439 . S
O657 C651 1.208 . S
O658 Cd659 2.223 . S
O658 C666 1.315 . S
Cd659 O658 2.223 . S
Cd659 O662 2.297 . S
Cd659 O663 2.439 . S
Cd659 O669 2.240 . S
Cd660 O661 2.240 . S
Cd660 O668 2.223 . S
Cd660 O670 2.297 . S
Cd660 O671 2.439 . S
O661 Cd660 2.240 . S
O661 C666 1.279 . S
O662 Cd659 2.297 . S
O662 C664 1.247 . S
O663 Cd659 2.439 . S
O663 C664 1.208 . S
C664 O662 1.247 . S
C664 O663 1.208 . S
C665 O670 1.247 . S
C665 O671 1.208 . S
C666 O658 1.315 . S
C666 O661 1.279 . S
C667 O668 1.315 . S
C667 O669 1.279 . S
O668 Cd660 2.223 . S
O668 C667 1.315 . S
O669 Cd659 2.240 . S
O669 C667 1.279 . S
O670 Cd660 2.297 . S
O670 C665 1.247 . S
O671 Cd660 2.439 . S
O671 C665 1.208 . S
H672 C680 0.950 . S
H673 C685 0.950 . S
H674 C682 0.950 . S
H675 C684 0.950 . S
H676 C686 0.950 . S
H677 C688 0.950 . S
H678 C690 0.950 . S
H679 C691 0.950 . S
C680 H672 0.950 . S
C680 C681 1.386 . S
C680 C682 1.391 . S
C681 C680 1.386 . S
C681 C685 1.393 . S
C682 H674 0.950 . S
C682 C680 1.391 . S
C682 C683 1.400 . S
C683 C682 1.400 . S
C683 C684 1.398 . S
C683 C689 1.491 . S
C684 H675 0.950 . S
C684 C683 1.398 . S
C684 C685 1.391 . S
C685 H673 0.950 . S
C685 C681 1.393 . S
C685 C684 1.391 . S
C686 H676 0.950 . S
C686 C687 1.386 . S
C686 C688 1.391 . S
C687 C686 1.386 . S
C687 C691 1.393 . S
C688 H677 0.950 . S
C688 C686 1.391 . S
C688 C689 1.400 . S
C689 C683 1.491 . S
C689 C688 1.400 . S
C689 C690 1.398 . S
C690 H678 0.950 . S
C690 C689 1.398 . S
C690 C691 1.391 . S
C691 H679 0.950 . S
C691 C687 1.393 . S
C691 C690 1.391 . S
H692 C700 0.950 . S
H693 C705 0.950 . S
H694 C702 0.950 . S
H695 C704 0.950 . S
H696 C706 0.950 . S
H697 C708 0.950 . S
H698 C710 0.950 . S
H699 C711 0.950 . S
C700 H692 0.950 . S
C700 C701 1.386 . S
C700 C702 1.391 . S
C701 C700 1.386 . S
C701 C705 1.393 . S
C702 H694 0.950 . S
C702 C700 1.391 . S
C702 C703 1.400 . S
C703 C702 1.400 . S
C703 C704 1.398 . S
C703 C709 1.491 . S
C704 H695 0.950 . S
C704 C703 1.398 . S
C704 C705 1.391 . S
C705 H693 0.950 . S
C705 C701 1.393 . S
C705 C704 1.391 . S
C706 H696 0.950 . S
C706 C707 1.386 . S
C706 C708 1.391 . S
C707 C706 1.386 . S
C707 C711 1.393 . S
C708 H697 0.950 . S
C708 C706 1.391 . S
C708 C709 1.400 . S
C709 C703 1.491 . S
C709 C708 1.400 . S
C709 C710 1.398 . S
C710 H698 0.950 . S
C710 C709 1.398 . S
C710 C711 1.391 . S
C711 H699 0.950 . S
C711 C707 1.393 . S
C711 C710 1.391 . S
H712 C720 0.950 . S
H713 C725 0.950 . S
H714 C722 0.950 . S
H715 C724 0.950 . S
H716 C726 0.950 . S
H717 C728 0.950 . S
H718 C730 0.950 . S
H719 C731 0.950 . S
C720 H712 0.950 . S
C720 C721 1.386 . S
C720 C722 1.391 . S
C721 C720 1.386 . S
C721 C725 1.393 . S
C722 H714 0.950 . S
C722 C720 1.391 . S
C722 C723 1.400 . S
C723 C722 1.400 . S
C723 C724 1.398 . S
C723 C729 1.491 . S
C724 H715 0.950 . S
C724 C723 1.398 . S
C724 C725 1.391 . S
C725 H713 0.950 . S
C725 C721 1.393 . S
C725 C724 1.391 . S
C726 H716 0.950 . S
C726 C727 1.386 . S
C726 C728 1.391 . S
C727 C726 1.386 . S
C727 C731 1.393 . S
C728 H717 0.950 . S
C728 C726 1.391 . S
C728 C729 1.400 . S
C729 C723 1.491 . S
C729 C728 1.400 . S
C729 C730 1.398 . S
C730 H718 0.950 . S
C730 C729 1.398 . S
C730 C731 1.391 . S
C731 H719 0.950 . S
C731 C727 1.393 . S
C731 C730 1.391 . S
H732 C740 0.950 . S
H733 C745 0.963 . S
H734 C742 0.950 . S
H735 C744 0.947 1_556 S
H736 C746 0.950 . S
H737 C748 0.950 . S
H738 C750 0.950 . S
H739 C751 0.950 . S
C740 H732 0.950 . S
C740 C741 1.386 . S
C740 C742 1.391 . S
C741 C740 1.386 . S
C741 C745 1.393 . S
C742 H734 0.950 . S
C742 C740 1.391 . S
C742 C743 1.400 . S
C743 C742 1.400 . S
C743 C744 1.398 . S
C743 C749 1.491 . S
C744 H735 0.947 1_554 S
C744 C743 1.398 . S
C744 C745 1.391 . S
C745 H733 0.963 . S
C745 C741 1.393 . S
C745 C744 1.391 . S
C746 H736 0.950 . S
C746 C747 1.386 . S
C746 C748 1.391 . S
C747 C746 1.386 . S
C747 C751 1.393 . S
C748 H737 0.950 . S
C748 C746 1.391 . S
C748 C749 1.400 . S
C749 C743 1.491 . S
C749 C748 1.400 . S
C749 C750 1.398 . S
C750 H738 0.950 . S
C750 C749 1.398 . S
C750 C751 1.391 . S
C751 H739 0.950 . S
C751 C747 1.393 . S
C751 C750 1.391 . S
H752 C760 0.950 . S
H753 C765 0.950 . S
H754 C762 0.950 . S
H755 C764 0.950 . S
H756 C766 0.950 . S
H757 C768 0.950 . S
H758 C770 0.950 . S
H759 C771 0.950 . S
C760 H752 0.950 . S
C760 C761 1.386 . S
C760 C762 1.391 . S
C761 C760 1.386 . S
C761 C765 1.393 . S
C762 H754 0.950 . S
C762 C760 1.391 . S
C762 C763 1.400 . S
C763 C762 1.400 . S
C763 C764 1.398 . S
C763 C769 1.491 . S
C764 H755 0.950 . S
C764 C763 1.398 . S
C764 C765 1.391 . S
C765 H753 0.950 . S
C765 C761 1.393 . S
C765 C764 1.391 . S
C766 H756 0.950 . S
C766 C767 1.386 . S
C766 C768 1.391 . S
C767 C766 1.386 . S
C767 C771 1.393 . S
C768 H757 0.950 . S
C768 C766 1.391 . S
C768 C769 1.400 . S
C769 C763 1.491 . S
C769 C768 1.400 . S
C769 C770 1.398 . S
C770 H758 0.950 . S
C770 C769 1.398 . S
C770 C771 1.391 . S
C771 H759 0.950 . S
C771 C767 1.393 . S
C771 C770 1.391 . S
H772 C780 0.950 . S
H773 C785 0.950 . S
H774 C782 0.950 . S
H775 C784 0.950 . S
H776 C786 0.950 . S
H777 C788 0.950 . S
H778 C790 0.950 . S
H779 C791 0.950 . S
C780 H772 0.950 . S
C780 C781 1.386 . S
C780 C782 1.391 . S
C781 C780 1.386 . S
C781 C785 1.393 . S
C782 H774 0.950 . S
C782 C780 1.391 . S
C782 C783 1.400 . S
C783 C782 1.400 . S
C783 C784 1.398 . S
C783 C789 1.491 . S
C784 H775 0.950 . S
C784 C783 1.398 . S
C784 C785 1.391 . S
C785 H773 0.950 . S
C785 C781 1.393 . S
C785 C784 1.391 . S
C786 H776 0.950 . S
C786 C787 1.386 . S
C786 C788 1.391 . S
C787 C786 1.386 . S
C787 C791 1.393 . S
C788 H777 0.950 . S
C788 C786 1.391 . S
C788 C789 1.400 . S
C789 C783 1.491 . S
C789 C788 1.400 . S
C789 C790 1.398 . S
C790 H778 0.950 . S
C790 C789 1.398 . S
C790 C791 1.391 . S
C791 H779 0.950 . S
C791 C787 1.393 . S
C791 C790 1.391 . S
H792 C800 0.950 . S
H793 C805 0.950 . S
H794 C802 0.950 . S
H795 C804 0.950 . S
H796 C806 0.950 . S
H797 C808 0.950 . S
H798 C810 0.950 . S
H799 C811 0.950 . S
C800 H792 0.950 . S
C800 C801 1.386 . S
C800 C802 1.391 . S
C801 C800 1.386 . S
C801 C805 1.393 . S
C802 H794 0.950 . S
C802 C800 1.391 . S
C802 C803 1.400 . S
C803 C802 1.400 . S
C803 C804 1.398 . S
C803 C809 1.491 . S
C804 H795 0.950 . S
C804 C803 1.398 . S
C804 C805 1.391 . S
C805 H793 0.950 . S
C805 C801 1.393 . S
C805 C804 1.391 . S
C806 H796 0.950 . S
C806 C807 1.386 . S
C806 C808 1.391 . S
C807 C806 1.386 . S
C807 C811 1.393 . S
C808 H797 0.950 . S
C808 C806 1.391 . S
C808 C809 1.400 . S
C809 C803 1.491 . S
C809 C808 1.400 . S
C809 C810 1.398 . S
C810 H798 0.950 . S
C810 C809 1.398 . S
C810 C811 1.391 . S
C811 H799 0.950 . S
C811 C807 1.393 . S
C811 C810 1.391 . S
H812 C820 0.950 . S
H813 C825 0.950 . S
H814 C822 0.950 . S
H815 C824 0.950 . S
H816 C826 0.950 . S
H817 C828 0.950 . S
H818 C830 0.950 . S
H819 C831 0.950 . S
C820 H812 0.950 . S
C820 C821 1.386 . S
C820 C822 1.391 . S
C821 C820 1.386 . S
C821 C825 1.393 . S
C822 H814 0.950 . S
C822 C820 1.391 . S
C822 C823 1.400 . S
C823 C822 1.400 . S
C823 C824 1.398 . S
C823 C829 1.491 . S
C824 H815 0.950 . S
C824 C823 1.398 . S
C824 C825 1.391 . S
C825 H813 0.950 . S
C825 C821 1.393 . S
C825 C824 1.391 . S
C826 H816 0.950 . S
C826 C827 1.386 . S
C826 C828 1.391 . S
C827 C826 1.386 . S
C827 C831 1.393 . S
C828 H817 0.950 . S
C828 C826 1.391 . S
C828 C829 1.400 . S
C829 C823 1.491 . S
C829 C828 1.400 . S
C829 C830 1.398 . S
C830 H818 0.950 . S
C830 C829 1.398 . S
C830 C831 1.391 . S
C831 H819 0.950 . S
C831 C827 1.393 . S
C831 C830 1.391 . S
H832 C840 0.950 . S
H833 C845 0.950 . S
H834 C842 0.950 . S
H835 C844 0.950 . S
H836 C846 0.950 . S
H837 C848 0.950 . S
H838 C850 0.950 . S
H839 C851 0.950 . S
C840 H832 0.950 . S
C840 C841 1.386 . S
C840 C842 1.391 . S
C841 C840 1.386 . S
C841 C845 1.393 . S
C842 H834 0.950 . S
C842 C840 1.391 . S
C842 C843 1.400 . S
C843 C842 1.400 . S
C843 C844 1.398 . S
C843 C849 1.491 . S
C844 H835 0.950 . S
C844 C843 1.398 . S
C844 C845 1.391 . S
C845 H833 0.950 . S
C845 C841 1.393 . S
C845 C844 1.391 . S
C846 H836 0.950 . S
C846 C847 1.386 . S
C846 C848 1.391 . S
C847 C846 1.386 . S
C847 C851 1.393 . S
C848 H837 0.950 . S
C848 C846 1.391 . S
C848 C849 1.400 . S
C849 C843 1.491 . S
C849 C848 1.400 . S
C849 C850 1.398 . S
C850 H838 0.950 . S
C850 C849 1.398 . S
C850 C851 1.391 . S
C851 H839 0.950 . S
C851 C847 1.393 . S
C851 C850 1.391 . S
H852 C860 0.950 . S
H853 C865 0.950 . S
H854 C862 0.950 . S
H855 C864 0.950 . S
H856 C866 0.950 . S
H857 C868 0.950 . S
H858 C870 0.948 . S
H859 C871 0.945 . S
C860 H852 0.950 . S
C860 C861 1.386 1_565 S
C860 C862 1.391 . S
C861 C860 1.386 1_545 S
C861 C865 1.393 . S
C862 H854 0.950 . S
C862 C860 1.391 . S
C862 C863 1.400 1_565 S
C863 C862 1.400 1_545 S
C863 C864 1.398 . S
C863 C869 1.491 . S
C864 H855 0.950 . S
C864 C863 1.398 . S
C864 C865 1.391 . S
C865 H853 0.950 . S
C865 C861 1.393 . S
C865 C864 1.391 . S
C866 H856 0.950 . S
C866 C867 1.386 . S
C866 C868 1.391 . S
C867 C866 1.386 . S
C867 C871 1.397 1_545 S
C868 H857 0.950 . S
C868 C866 1.391 . S
C868 C869 1.400 . S
C869 C863 1.491 . S
C869 C868 1.400 . S
C869 C870 1.400 1_545 S
C870 H858 0.948 . S
C870 C869 1.400 1_565 S
C870 C871 1.391 . S
C871 H859 0.945 . S
C871 C867 1.397 1_565 S
C871 C870 1.391 . S
H872 C880 0.950 . S
H873 C885 0.950 . S
H874 C882 0.950 . S
H875 C884 0.950 . S
H876 C886 0.950 . S
H877 C888 0.950 . S
H878 C890 0.950 . S
H879 C891 0.950 . S
C880 H872 0.950 . S
C880 C881 1.386 . S
C880 C882 1.391 . S
C881 C880 1.386 . S
C881 C885 1.393 . S
C882 H874 0.950 . S
C882 C880 1.391 . S
C882 C883 1.400 . S
C883 C882 1.400 . S
C883 C884 1.398 . S
C883 C889 1.491 . S
C884 H875 0.950 . S
C884 C883 1.398 . S
C884 C885 1.391 . S
C885 H873 0.950 . S
C885 C881 1.393 . S
C885 C884 1.391 . S
C886 H876 0.950 . S
C886 C887 1.386 . S
C886 C888 1.391 . S
C887 C886 1.386 . S
C887 C891 1.393 . S
C888 H877 0.950 . S
C888 C886 1.391 . S
C888 C889 1.400 . S
C889 C883 1.491 . S
C889 C888 1.400 . S
C889 C890 1.398 . S
C890 H878 0.950 . S
C890 C889 1.398 . S
C890 C891 1.391 . S
C891 H879 0.950 . S
C891 C887 1.393 . S
C891 C890 1.391 . S
H892 C900 0.950 . S
H893 C905 0.950 . S
H894 C902 0.950 . S
H895 C904 0.950 . S
H896 C906 0.950 . S
H897 C908 0.950 . S
H898 C910 0.950 . S
H899 C911 0.950 . S
C900 H892 0.950 . S
C900 C901 1.386 . S
C900 C902 1.391 . S
C901 C900 1.386 . S
C901 C905 1.393 . S
C902 H894 0.950 . S
C902 C900 1.391 . S
C902 C903 1.400 . S
C903 C902 1.400 . S
C903 C904 1.398 . S
C903 C909 1.491 . S
C904 H895 0.950 . S
C904 C903 1.398 . S
C904 C905 1.391 . S
C905 H893 0.950 . S
C905 C901 1.393 . S
C905 C904 1.391 . S
C906 H896 0.950 . S
C906 C907 1.386 . S
C906 C908 1.391 . S
C907 C906 1.386 . S
C907 C911 1.393 . S
C908 H897 0.950 . S
C908 C906 1.391 . S
C908 C909 1.400 . S
C909 C903 1.491 . S
C909 C908 1.400 . S
C909 C910 1.398 . S
C910 H898 0.950 . S
C910 C909 1.398 . S
C910 C911 1.391 . S
C911 H899 0.950 . S
C911 C907 1.393 . S
C911 C910 1.391 . S
H912 C920 0.950 . S
H913 C925 0.950 . S
H914 C922 0.950 . S
H915 C924 0.950 . S
H916 C926 0.950 . S
H917 C928 0.950 . S
H918 C930 0.950 . S
H919 C931 0.950 . S
C920 H912 0.950 . S
C920 C921 1.386 . S
C920 C922 1.391 . S
C921 C920 1.386 . S
C921 C925 1.393 . S
C922 H914 0.950 . S
C922 C920 1.391 . S
C922 C923 1.400 . S
C923 C922 1.400 . S
C923 C924 1.398 . S
C923 C929 1.491 . S
C924 H915 0.950 . S
C924 C923 1.398 . S
C924 C925 1.391 . S
C925 H913 0.950 . S
C925 C921 1.393 . S
C925 C924 1.391 . S
C926 H916 0.950 . S
C926 C927 1.386 . S
C926 C928 1.391 . S
C927 C926 1.386 . S
C927 C931 1.393 . S
C928 H917 0.950 . S
C928 C926 1.391 . S
C928 C929 1.400 . S
C929 C923 1.491 . S
C929 C928 1.400 . S
C929 C930 1.398 . S
C930 H918 0.950 . S
C930 C929 1.398 . S
C930 C931 1.391 . S
C931 H919 0.950 . S
C931 C927 1.393 . S
C931 C930 1.391 . S
H932 C940 0.950 . S
H933 C945 0.950 . S
H934 C942 0.950 . S
H935 C944 0.950 . S
H936 C946 0.950 . S
H937 C948 0.950 . S
H938 C950 0.950 . S
H939 C951 0.950 . S
C940 H932 0.950 . S
C940 C941 1.386 . S
C940 C942 1.391 . S
C941 C940 1.386 . S
C941 C945 1.393 . S
C942 H934 0.950 . S
C942 C940 1.391 . S
C942 C943 1.400 . S
C943 C942 1.400 . S
C943 C944 1.398 . S
C943 C949 1.491 . S
C944 H935 0.950 . S
C944 C943 1.398 . S
C944 C945 1.391 . S
C945 H933 0.950 . S
C945 C941 1.393 . S
C945 C944 1.391 . S
C946 H936 0.950 . S
C946 C947 1.386 . S
C946 C948 1.391 . S
C947 C946 1.386 . S
C947 C951 1.393 . S
C948 H937 0.950 . S
C948 C946 1.391 . S
C948 C949 1.400 . S
C949 C943 1.491 . S
C949 C948 1.400 . S
C949 C950 1.398 . S
C950 H938 0.950 . S
C950 C949 1.398 . S
C950 C951 1.391 . S
C951 H939 0.950 . S
C951 C947 1.393 . S
C951 C950 1.391 . S
H952 C960 0.950 . S
H953 C965 0.950 . S
H954 C962 0.950 . S
H955 C964 0.950 . S
H956 C966 0.950 . S
H957 C968 0.950 . S
H958 C970 0.950 . S
H959 C971 0.950 . S
C960 H952 0.950 . S
C960 C961 1.386 . S
C960 C962 1.391 . S
C961 C960 1.386 . S
C961 C965 1.393 . S
C962 H954 0.950 . S
C962 C960 1.391 . S
C962 C963 1.400 . S
C963 C962 1.400 . S
C963 C964 1.398 . S
C963 C969 1.491 . S
C964 H955 0.950 . S
C964 C963 1.398 . S
C964 C965 1.391 . S
C965 H953 0.950 . S
C965 C961 1.393 . S
C965 C964 1.391 . S
C966 H956 0.950 . S
C966 C967 1.386 . S
C966 C968 1.391 . S
C967 C966 1.386 . S
C967 C971 1.393 . S
C968 H957 0.950 . S
C968 C966 1.391 . S
C968 C969 1.400 . S
C969 C963 1.491 . S
C969 C968 1.400 . S
C969 C970 1.398 . S
C970 H958 0.950 . S
C970 C969 1.398 . S
C970 C971 1.391 . S
C971 H959 0.950 . S
C971 C967 1.393 . S
C971 C970 1.391 . S
H972 C980 0.950 . S
H973 C985 0.950 . S
H974 C982 0.950 . S
H975 C984 0.950 . S
H976 C986 0.950 . S
H977 C988 0.950 . S
H978 C990 0.950 . S
H979 C991 0.950 . S
C980 H972 0.950 . S
C980 C981 1.386 . S
C980 C982 1.391 . S
C981 C980 1.386 . S
C981 C985 1.393 . S
C982 H974 0.950 . S
C982 C980 1.391 . S
C982 C983 1.400 . S
C983 C982 1.400 . S
C983 C984 1.398 . S
C983 C989 1.491 . S
C984 H975 0.950 . S
C984 C983 1.398 . S
C984 C985 1.391 . S
C985 H973 0.950 . S
C985 C981 1.393 . S
C985 C984 1.391 . S
C986 H976 0.950 . S
C986 C987 1.386 . S
C986 C988 1.391 . S
C987 C986 1.386 . S
C987 C991 1.393 . S
C988 H977 0.950 . S
C988 C986 1.391 . S
C988 C989 1.400 . S
C989 C983 1.491 . S
C989 C988 1.400 . S
C989 C990 1.398 . S
C990 H978 0.950 . S
C990 C989 1.398 . S
C990 C991 1.391 . S
C991 H979 0.950 . S
C991 C987 1.393 . S
C991 C990 1.391 . S
H992 C1000 0.950 . S
H993 C1005 0.950 . S
H994 C1002 0.950 . S
H995 C1004 0.950 . S
H996 C1006 0.950 . S
H997 C1008 0.950 . S
H998 C1010 0.950 . S
H999 C1011 0.950 . S
C1000 H992 0.950 . S
C1000 C1001 1.386 . S
C1000 C1002 1.391 . S
C1001 C1000 1.386 . S
C1001 C1005 1.393 . S
C1002 H994 0.950 . S
C1002 C1000 1.391 . S
C1002 C1003 1.400 . S
C1003 C1002 1.400 . S
C1003 C1004 1.398 . S
C1003 C1009 1.491 . S
C1004 H995 0.950 . S
C1004 C1003 1.398 . S
C1004 C1005 1.391 . S
C1005 H993 0.950 . S
C1005 C1001 1.393 . S
C1005 C1004 1.391 . S
C1006 H996 0.950 . S
C1006 C1007 1.386 . S
C1006 C1008 1.391 . S
C1007 C1006 1.386 . S
C1007 C1011 1.393 . S
C1008 H997 0.950 . S
C1008 C1006 1.391 . S
C1008 C1009 1.400 . S
C1009 C1003 1.491 . S
C1009 C1008 1.400 . S
C1009 C1010 1.398 . S
C1010 H998 0.950 . S
C1010 C1009 1.398 . S
C1010 C1011 1.391 . S
C1011 H999 0.950 . S
C1011 C1007 1.393 . S
C1011 C1010 1.391 . S
H1012 C1020 0.950 . S
H1013 C1025 0.950 . S
H1014 C1022 0.950 . S
H1015 C1024 0.950 . S
H1016 C1026 0.950 . S
H1017 C1028 0.950 . S
H1018 C1030 0.950 . S
H1019 C1031 0.950 . S
C1020 H1012 0.950 . S
C1020 C1021 1.386 . S
C1020 C1022 1.391 . S
C1021 C1020 1.386 . S
C1021 C1025 1.393 . S
C1022 H1014 0.950 . S
C1022 C1020 1.391 . S
C1022 C1023 1.400 . S
C1023 C1022 1.400 . S
C1023 C1024 1.398 . S
C1023 C1029 1.491 . S
C1024 H1015 0.950 . S
C1024 C1023 1.398 . S
C1024 C1025 1.391 . S
C1025 H1013 0.950 . S
C1025 C1021 1.393 . S
C1025 C1024 1.391 . S
C1026 H1016 0.950 . S
C1026 C1027 1.386 . S
C1026 C1028 1.391 . S
C1027 C1026 1.386 . S
C1027 C1031 1.393 . S
C1028 H1017 0.950 . S
C1028 C1026 1.391 . S
C1028 C1029 1.400 . S
C1029 C1023 1.491 . S
C1029 C1028 1.400 . S
C1029 C1030 1.398 . S
C1030 H1018 0.950 . S
C1030 C1029 1.398 . S
C1030 C1031 1.391 . S
C1031 H1019 0.950 . S
C1031 C1027 1.393 . S
C1031 C1030 1.391 . S
H1032 C1040 0.950 . S
H1033 C1045 0.950 . S
H1034 C1042 0.950 . S
H1035 C1044 0.950 . S
H1036 C1046 0.950 . S
H1037 C1048 0.950 . S
H1038 C1050 0.950 . S
H1039 C1051 0.950 . S
C1040 H1032 0.950 . S
C1040 C1041 1.386 . S
C1040 C1042 1.391 . S
C1041 C1040 1.386 . S
C1041 C1045 1.393 . S
C1042 H1034 0.950 . S
C1042 C1040 1.391 . S
C1042 C1043 1.400 . S
C1043 C1042 1.400 . S
C1043 C1044 1.398 . S
C1043 C1049 1.491 . S
C1044 H1035 0.950 . S
C1044 C1043 1.398 . S
C1044 C1045 1.391 . S
C1045 H1033 0.950 . S
C1045 C1041 1.393 . S
C1045 C1044 1.391 . S
C1046 H1036 0.950 . S
C1046 C1047 1.386 . S
C1046 C1048 1.391 . S
C1047 C1046 1.386 . S
C1047 C1051 1.393 . S
C1048 H1037 0.950 . S
C1048 C1046 1.391 . S
C1048 C1049 1.400 . S
C1049 C1043 1.491 . S
C1049 C1048 1.400 . S
C1049 C1050 1.398 . S
C1050 H1038 0.950 . S
C1050 C1049 1.398 . S
C1050 C1051 1.391 . S
C1051 H1039 0.950 . S
C1051 C1047 1.393 . S
C1051 C1050 1.391 . S
H1052 C1060 0.950 . S
H1053 C1065 0.950 . S
H1054 C1062 0.950 . S
H1055 C1064 0.950 . S
H1056 C1066 0.950 . S
H1057 C1068 0.950 . S
H1058 C1070 0.950 . S
H1059 C1071 0.950 . S
C1060 H1052 0.950 . S
C1060 C1061 1.386 . S
C1060 C1062 1.391 . S
C1061 C1060 1.386 . S
C1061 C1065 1.393 . S
C1062 H1054 0.950 . S
C1062 C1060 1.391 . S
C1062 C1063 1.400 . S
C1063 C1062 1.400 . S
C1063 C1064 1.398 . S
C1063 C1069 1.491 . S
C1064 H1055 0.950 . S
C1064 C1063 1.398 . S
C1064 C1065 1.391 . S
C1065 H1053 0.950 . S
C1065 C1061 1.393 . S
C1065 C1064 1.391 . S
C1066 H1056 0.950 . S
C1066 C1067 1.386 . S
C1066 C1068 1.391 . S
C1067 C1066 1.386 . S
C1067 C1071 1.393 . S
C1068 H1057 0.950 . S
C1068 C1066 1.391 . S
C1068 C1069 1.400 . S
C1069 C1063 1.491 . S
C1069 C1068 1.400 . S
C1069 C1070 1.398 . S
C1070 H1058 0.950 . S
C1070 C1069 1.398 . S
C1070 C1071 1.391 . S
C1071 H1059 0.950 . S
C1071 C1067 1.393 . S
C1071 C1070 1.391 . S
H1072 C1080 0.950 . S
H1073 C1085 0.950 . S
H1074 C1082 0.950 . S
H1075 C1084 0.950 . S
H1076 C1086 0.950 . S
H1077 C1088 0.950 . S
H1078 C1090 0.950 . S
H1079 C1091 0.950 . S
C1080 H1072 0.950 . S
C1080 C1081 1.386 . S
C1080 C1082 1.391 . S
C1081 C1080 1.386 . S
C1081 C1085 1.393 . S
C1082 H1074 0.950 . S
C1082 C1080 1.391 . S
C1082 C1083 1.400 . S
C1083 C1082 1.400 . S
C1083 C1084 1.398 . S
C1083 C1089 1.491 . S
C1084 H1075 0.950 . S
C1084 C1083 1.398 . S
C1084 C1085 1.391 . S
C1085 H1073 0.950 . S
C1085 C1081 1.393 . S
C1085 C1084 1.391 . S
C1086 H1076 0.950 . S
C1086 C1087 1.386 . S
C1086 C1088 1.391 . S
C1087 C1086 1.386 . S
C1087 C1091 1.393 . S
C1088 H1077 0.950 . S
C1088 C1086 1.391 . S
C1088 C1089 1.400 . S
C1089 C1083 1.491 . S
C1089 C1088 1.400 . S
C1089 C1090 1.398 . S
C1090 H1078 0.950 . S
C1090 C1089 1.398 . S
C1090 C1091 1.391 . S
C1091 H1079 0.950 . S
C1091 C1087 1.393 . S
C1091 C1090 1.391 . S
H1092 C1100 0.950 . S
H1093 C1105 0.950 . S
H1094 C1102 0.950 . S
H1095 C1104 0.950 . S
H1096 C1106 0.950 . S
H1097 C1108 0.950 . S
H1098 C1110 0.950 . S
H1099 C1111 0.950 . S
C1100 H1092 0.950 . S
C1100 C1101 1.386 . S
C1100 C1102 1.391 . S
C1101 C1100 1.386 . S
C1101 C1105 1.393 . S
C1102 H1094 0.950 . S
C1102 C1100 1.391 . S
C1102 C1103 1.400 . S
C1103 C1102 1.400 . S
C1103 C1104 1.398 . S
C1103 C1109 1.491 . S
C1104 H1095 0.950 . S
C1104 C1103 1.398 . S
C1104 C1105 1.391 . S
C1105 H1093 0.950 . S
C1105 C1101 1.393 . S
C1105 C1104 1.391 . S
C1106 H1096 0.950 . S
C1106 C1107 1.386 . S
C1106 C1108 1.391 . S
C1107 C1106 1.386 . S
C1107 C1111 1.393 . S
C1108 H1097 0.950 . S
C1108 C1106 1.391 . S
C1108 C1109 1.400 . S
C1109 C1103 1.491 . S
C1109 C1108 1.400 . S
C1109 C1110 1.398 . S
C1110 H1098 0.950 . S
C1110 C1109 1.398 . S
C1110 C1111 1.391 . S
C1111 H1099 0.950 . S
C1111 C1107 1.393 . S
C1111 C1110 1.391 . S
H1112 C1120 0.950 . S
H1113 C1125 0.950 . S
H1114 C1122 0.950 . S
H1115 C1124 0.950 . S
H1116 C1126 0.950 . S
H1117 C1128 0.950 . S
H1118 C1130 0.950 . S
H1119 C1131 0.950 . S
C1120 H1112 0.950 . S
C1120 C1121 1.386 . S
C1120 C1122 1.391 . S
C1121 C1120 1.386 . S
C1121 C1125 1.393 . S
C1122 H1114 0.950 . S
C1122 C1120 1.391 . S
C1122 C1123 1.400 . S
C1123 C1122 1.400 . S
C1123 C1124 1.398 . S
C1123 C1129 1.491 . S
C1124 H1115 0.950 . S
C1124 C1123 1.398 . S
C1124 C1125 1.391 . S
C1125 H1113 0.950 . S
C1125 C1121 1.393 . S
C1125 C1124 1.391 . S
C1126 H1116 0.950 . S
C1126 C1127 1.386 . S
C1126 C1128 1.391 . S
C1127 C1126 1.386 . S
C1127 C1131 1.393 . S
C1128 H1117 0.950 . S
C1128 C1126 1.391 . S
C1128 C1129 1.400 . S
C1129 C1123 1.491 . S
C1129 C1128 1.400 . S
C1129 C1130 1.398 . S
C1130 H1118 0.950 . S
C1130 C1129 1.398 . S
C1130 C1131 1.391 . S
C1131 H1119 0.950 . S
C1131 C1127 1.393 . S
C1131 C1130 1.391 . S
H1132 C1140 0.950 . S
H1133 C1145 0.950 . S
H1134 C1142 0.950 . S
H1135 C1144 0.950 . S
H1136 C1146 0.950 . S
H1137 C1148 0.950 . S
H1138 C1150 0.950 . S
H1139 C1151 0.950 . S
C1140 H1132 0.950 . S
C1140 C1141 1.386 . S
C1140 C1142 1.391 . S
C1141 C1140 1.386 . S
C1141 C1145 1.393 . S
C1142 H1134 0.950 . S
C1142 C1140 1.391 . S
C1142 C1143 1.400 . S
C1143 C1142 1.400 . S
C1143 C1144 1.398 . S
C1143 C1149 1.491 . S
C1144 H1135 0.950 . S
C1144 C1143 1.398 . S
C1144 C1145 1.391 . S
C1145 H1133 0.950 . S
C1145 C1141 1.393 . S
C1145 C1144 1.391 . S
C1146 H1136 0.950 . S
C1146 C1147 1.386 . S
C1146 C1148 1.391 . S
C1147 C1146 1.386 . S
C1147 C1151 1.393 . S
C1148 H1137 0.950 . S
C1148 C1146 1.391 . S
C1148 C1149 1.400 . S
C1149 C1143 1.491 . S
C1149 C1148 1.400 . S
C1149 C1150 1.398 . S
C1150 H1138 0.950 . S
C1150 C1149 1.398 . S
C1150 C1151 1.391 . S
C1151 H1139 0.950 . S
C1151 C1147 1.393 . S
C1151 C1150 1.391 . S
H1152 C1160 0.950 . S
H1153 C1165 0.950 . S
H1154 C1162 0.913 1_455 S
H1155 C1164 0.950 . S
H1156 C1166 0.950 . S
H1157 C1168 0.950 . S
H1158 C1170 0.950 . S
H1159 C1171 0.950 . S
C1160 H1152 0.950 . S
C1160 C1161 1.386 . S
C1160 C1162 1.391 . S
C1161 C1160 1.386 . S
C1161 C1165 1.393 . S
C1162 H1154 0.913 1_655 S
C1162 C1160 1.391 . S
C1162 C1163 1.400 . S
C1163 C1162 1.400 . S
C1163 C1164 1.398 . S
C1163 C1169 1.491 . S
C1164 H1155 0.950 . S
C1164 C1163 1.398 . S
C1164 C1165 1.391 . S
C1165 H1153 0.950 . S
C1165 C1161 1.393 . S
C1165 C1164 1.391 . S
C1166 H1156 0.950 . S
C1166 C1167 1.397 . S
C1166 C1168 1.391 . S
C1167 C1166 1.397 . S
C1167 C1171 1.386 1_655 S
C1168 H1157 0.950 . S
C1168 C1166 1.391 . S
C1168 C1169 1.400 . S
C1169 C1163 1.491 . S
C1169 C1168 1.400 . S
C1169 C1170 1.398 1_655 S
C1170 H1158 0.950 . S
C1170 C1169 1.398 1_455 S
C1170 C1171 1.391 . S
C1171 H1159 0.950 . S
C1171 C1167 1.386 1_455 S
C1171 C1170 1.391 . S
H1172 C1180 0.950 . S
H1173 C1185 0.950 . S
H1174 C1182 0.922 1_455 S
H1175 C1184 0.950 . S
H1176 C1186 0.950 . S
H1177 C1188 0.950 . S
H1178 C1190 0.950 . S
H1179 C1191 0.950 . S
C1180 H1172 0.950 . S
C1180 C1181 1.386 . S
C1180 C1182 1.391 . S
C1181 C1180 1.386 . S
C1181 C1185 1.393 . S
C1182 H1174 0.922 1_655 S
C1182 C1180 1.391 . S
C1182 C1183 1.400 . S
C1183 C1182 1.400 . S
C1183 C1184 1.398 . S
C1183 C1189 1.491 . S
C1184 H1175 0.950 . S
C1184 C1183 1.398 . S
C1184 C1185 1.391 . S
C1185 H1173 0.950 . S
C1185 C1181 1.393 . S
C1185 C1184 1.391 . S
C1186 H1176 0.950 . S
C1186 C1187 1.385 . S
C1186 C1188 1.391 . S
C1187 C1186 1.385 . S
C1187 C1191 1.393 1_655 S
C1188 H1177 0.950 . S
C1188 C1186 1.391 . S
C1188 C1189 1.400 . S
C1189 C1183 1.491 . S
C1189 C1188 1.400 . S
C1189 C1190 1.398 1_655 S
C1190 H1178 0.950 . S
C1190 C1189 1.398 1_455 S
C1190 C1191 1.391 . S
C1191 H1179 0.950 . S
C1191 C1187 1.393 1_455 S
C1191 C1190 1.391 . S
H1192 C1200 0.950 . S
H1193 C1205 0.950 . S
H1194 C1202 0.950 . S
H1195 C1204 0.950 . S
H1196 C1206 0.950 . S
H1197 C1208 0.950 . S
H1198 C1210 0.950 . S
H1199 C1211 0.950 . S
C1200 H1192 0.950 . S
C1200 C1201 1.386 . S
C1200 C1202 1.391 . S
C1201 C1200 1.386 . S
C1201 C1205 1.393 . S
C1202 H1194 0.950 . S
C1202 C1200 1.391 . S
C1202 C1203 1.400 . S
C1203 C1202 1.400 . S
C1203 C1204 1.398 . S
C1203 C1209 1.491 . S
C1204 H1195 0.950 . S
C1204 C1203 1.398 . S
C1204 C1205 1.391 . S
C1205 H1193 0.950 . S
C1205 C1201 1.393 . S
C1205 C1204 1.391 . S
C1206 H1196 0.950 . S
C1206 C1207 1.386 . S
C1206 C1208 1.391 . S
C1207 C1206 1.386 . S
C1207 C1211 1.393 . S
C1208 H1197 0.950 . S
C1208 C1206 1.391 . S
C1208 C1209 1.400 . S
C1209 C1203 1.491 . S
C1209 C1208 1.400 . S
C1209 C1210 1.398 . S
C1210 H1198 0.950 . S
C1210 C1209 1.398 . S
C1210 C1211 1.391 . S
C1211 H1199 0.950 . S
C1211 C1207 1.393 . S
C1211 C1210 1.391 . S
H1212 C1220 0.950 . S
H1213 C1225 0.950 . S
H1214 C1222 0.950 . S
H1215 C1224 0.950 . S
H1216 C1226 0.950 . S
H1217 C1228 0.950 . S
H1218 C1230 0.950 . S
H1219 C1231 0.950 . S
C1220 H1212 0.950 . S
C1220 C1221 1.386 . S
C1220 C1222 1.391 . S
C1221 C1220 1.386 . S
C1221 C1225 1.393 . S
C1222 H1214 0.950 . S
C1222 C1220 1.391 . S
C1222 C1223 1.400 . S
C1223 C1222 1.400 . S
C1223 C1224 1.398 . S
C1223 C1229 1.491 . S
C1224 H1215 0.950 . S
C1224 C1223 1.398 . S
C1224 C1225 1.391 . S
C1225 H1213 0.950 . S
C1225 C1221 1.393 . S
C1225 C1224 1.391 . S
C1226 H1216 0.950 . S
C1226 C1227 1.386 . S
C1226 C1228 1.391 . S
C1227 C1226 1.386 . S
C1227 C1231 1.393 . S
C1228 H1217 0.950 . S
C1228 C1226 1.391 . S
C1228 C1229 1.400 . S
C1229 C1223 1.491 . S
C1229 C1228 1.400 . S
C1229 C1230 1.398 . S
C1230 H1218 0.950 . S
C1230 C1229 1.398 . S
C1230 C1231 1.391 . S
C1231 H1219 0.950 . S
C1231 C1227 1.393 . S
C1231 C1230 1.391 . S
H1232 C1240 0.950 . S
H1233 C1245 0.950 . S
H1234 C1242 0.951 1_545 S
H1235 C1244 0.950 . S
H1236 C1246 0.950 . S
H1237 C1248 0.950 . S
H1238 C1250 0.950 . S
H1239 C1251 0.950 . S
C1240 H1232 0.950 . S
C1240 C1241 1.388 . S
C1240 C1242 1.393 1_545 S
C1241 C1240 1.388 . S
C1241 C1245 1.389 1_545 S
C1242 H1234 0.951 1_565 S
C1242 C1240 1.393 1_565 S
C1242 C1243 1.398 . S
C1243 C1242 1.398 . S
C1243 C1244 1.398 . S
C1243 C1249 1.491 . S
C1244 H1235 0.950 . S
C1244 C1243 1.398 . S
C1244 C1245 1.391 . S
C1245 H1233 0.950 . S
C1245 C1241 1.389 1_565 S
C1245 C1244 1.391 . S
C1246 H1236 0.950 . S
C1246 C1247 1.386 . S
C1246 C1248 1.391 . S
C1247 C1246 1.386 . S
C1247 C1251 1.393 . S
C1248 H1237 0.950 . S
C1248 C1246 1.391 . S
C1248 C1249 1.400 . S
C1249 C1243 1.491 . S
C1249 C1248 1.400 . S
C1249 C1250 1.398 . S
C1250 H1238 0.950 . S
C1250 C1249 1.398 . S
C1250 C1251 1.391 . S
C1251 H1239 0.950 . S
C1251 C1247 1.393 . S
C1251 C1250 1.391 . S
H1252 C1260 0.950 . S
H1253 C1265 0.950 . S
H1254 C1262 0.950 . S
H1255 C1264 0.950 . S
H1256 C1266 0.950 . S
H1257 C1268 0.950 . S
H1258 C1270 0.950 . S
H1259 C1271 0.950 . S
C1260 H1252 0.950 . S
C1260 C1261 1.386 . S
C1260 C1262 1.391 . S
C1261 C1260 1.386 . S
C1261 C1265 1.393 . S
C1262 H1254 0.950 . S
C1262 C1260 1.391 . S
C1262 C1263 1.400 . S
C1263 C1262 1.400 . S
C1263 C1264 1.398 . S
C1263 C1269 1.491 . S
C1264 H1255 0.950 . S
C1264 C1263 1.398 . S
C1264 C1265 1.391 . S
C1265 H1253 0.950 . S
C1265 C1261 1.393 . S
C1265 C1264 1.391 . S
C1266 H1256 0.950 . S
C1266 C1267 1.386 . S
C1266 C1268 1.391 . S
C1267 C1266 1.386 . S
C1267 C1271 1.393 . S
C1268 H1257 0.950 . S
C1268 C1266 1.391 . S
C1268 C1269 1.400 . S
C1269 C1263 1.491 . S
C1269 C1268 1.400 . S
C1269 C1270 1.398 . S
C1270 H1258 0.950 . S
C1270 C1269 1.398 . S
C1270 C1271 1.391 . S
C1271 H1259 0.950 . S
C1271 C1267 1.393 . S
C1271 C1270 1.391 . S
H1272 C1280 0.950 . S
H1273 C1285 0.950 . S
H1274 C1282 0.950 . S
H1275 C1284 0.950 . S
H1276 C1286 0.950 . S
H1277 C1288 0.950 . S
H1278 C1290 0.950 . S
H1279 C1291 0.950 . S
C1280 H1272 0.950 . S
C1280 C1281 1.386 . S
C1280 C1282 1.391 . S
C1281 C1280 1.386 . S
C1281 C1285 1.393 . S
C1282 H1274 0.950 . S
C1282 C1280 1.391 . S
C1282 C1283 1.400 . S
C1283 C1282 1.400 . S
C1283 C1284 1.398 . S
C1283 C1289 1.491 . S
C1284 H1275 0.950 . S
C1284 C1283 1.398 . S
C1284 C1285 1.391 . S
C1285 H1273 0.950 . S
C1285 C1281 1.393 . S
C1285 C1284 1.391 . S
C1286 H1276 0.950 . S
C1286 C1287 1.386 . S
C1286 C1288 1.391 . S
C1287 C1286 1.386 . S
C1287 C1291 1.393 . S
C1288 H1277 0.950 . S
C1288 C1286 1.391 . S
C1288 C1289 1.400 . S
C1289 C1283 1.491 . S
C1289 C1288 1.400 . S
C1289 C1290 1.398 . S
C1290 H1278 0.950 . S
C1290 C1289 1.398 . S
C1290 C1291 1.391 . S
C1291 H1279 0.950 . S
C1291 C1287 1.393 . S
C1291 C1290 1.391 . S
H1292 C1300 0.950 . S
H1293 C1305 0.950 . S
H1294 C1302 0.950 . S
H1295 C1304 0.950 . S
H1296 C1306 0.950 . S
H1297 C1308 0.950 . S
H1298 C1310 0.950 . S
H1299 C1311 0.950 . S
C1300 H1292 0.950 . S
C1300 C1301 1.386 . S
C1300 C1302 1.391 . S
C1301 C1300 1.386 . S
C1301 C1305 1.393 . S
C1302 H1294 0.950 . S
C1302 C1300 1.391 . S
C1302 C1303 1.400 . S
C1303 C1302 1.400 . S
C1303 C1304 1.398 . S
C1303 C1309 1.491 . S
C1304 H1295 0.950 . S
C1304 C1303 1.398 . S
C1304 C1305 1.391 . S
C1305 H1293 0.950 . S
C1305 C1301 1.393 . S
C1305 C1304 1.391 . S
C1306 H1296 0.950 . S
C1306 C1307 1.386 . S
C1306 C1308 1.391 . S
C1307 C1306 1.386 . S
C1307 C1311 1.393 . S
C1308 H1297 0.950 . S
C1308 C1306 1.391 . S
C1308 C1309 1.400 . S
C1309 C1303 1.491 . S
C1309 C1308 1.400 . S
C1309 C1310 1.398 . S
C1310 H1298 0.950 . S
C1310 C1309 1.398 . S
C1310 C1311 1.391 . S
C1311 H1299 0.950 . S
C1311 C1307 1.393 . S
C1311 C1310 1.391 . S
H1312 C1320 0.950 . S
H1313 C1325 0.950 . S
H1314 C1322 0.950 . S
H1315 C1324 0.950 . S
H1316 C1326 0.950 . S
H1317 C1328 0.950 . S
H1318 C1330 0.950 . S
H1319 C1331 0.950 . S
C1320 H1312 0.950 . S
C1320 C1321 1.386 . S
C1320 C1322 1.391 . S
C1321 C1320 1.386 . S
C1321 C1325 1.393 . S
C1322 H1314 0.950 . S
C1322 C1320 1.391 . S
C1322 C1323 1.400 . S
C1323 C1322 1.400 . S
C1323 C1324 1.398 . S
C1323 C1329 1.491 . S
C1324 H1315 0.950 . S
C1324 C1323 1.398 . S
C1324 C1325 1.391 . S
C1325 H1313 0.950 . S
C1325 C1321 1.393 . S
C1325 C1324 1.391 . S
C1326 H1316 0.950 . S
C1326 C1327 1.386 . S
C1326 C1328 1.391 . S
C1327 C1326 1.386 . S
C1327 C1331 1.393 . S
C1328 H1317 0.950 . S
C1328 C1326 1.391 . S
C1328 C1329 1.400 . S
C1329 C1323 1.491 . S
C1329 C1328 1.400 . S
C1329 C1330 1.398 . S
C1330 H1318 0.950 . S
C1330 C1329 1.398 . S
C1330 C1331 1.391 . S
C1331 H1319 0.950 . S
C1331 C1327 1.393 . S
C1331 C1330 1.391 . S
H1332 C1340 0.950 . S
H1333 C1345 0.950 . S
H1334 C1342 0.950 . S
H1335 C1344 0.950 . S
H1336 C1346 0.950 . S
H1337 C1348 0.950 . S
H1338 C1350 0.950 . S
H1339 C1351 0.950 . S
C1340 H1332 0.950 . S
C1340 C1341 1.386 . S
C1340 C1342 1.391 . S
C1341 C1340 1.386 . S
C1341 C1345 1.393 . S
C1342 H1334 0.950 . S
C1342 C1340 1.391 . S
C1342 C1343 1.400 . S
C1343 C1342 1.400 . S
C1343 C1344 1.398 . S
C1343 C1349 1.491 . S
C1344 H1335 0.950 . S
C1344 C1343 1.398 . S
C1344 C1345 1.391 . S
C1345 H1333 0.950 . S
C1345 C1341 1.393 . S
C1345 C1344 1.391 . S
C1346 H1336 0.950 . S
C1346 C1347 1.386 . S
C1346 C1348 1.391 . S
C1347 C1346 1.386 . S
C1347 C1351 1.393 . S
C1348 H1337 0.950 . S
C1348 C1346 1.391 . S
C1348 C1349 1.400 . S
C1349 C1343 1.491 . S
C1349 C1348 1.400 . S
C1349 C1350 1.398 . S
C1350 H1338 0.950 . S
C1350 C1349 1.398 . S
C1350 C1351 1.391 . S
C1351 H1339 0.950 . S
C1351 C1347 1.393 . S
C1351 C1350 1.391 . S
H1352 C1360 0.950 . S
H1353 C1365 0.950 . S
H1354 C1362 0.950 . S
H1355 C1364 0.950 . S
H1356 C1366 0.950 . S
H1357 C1368 0.950 . S
H1358 C1370 0.968 . S
H1359 C1371 0.950 . S
C1360 H1352 0.950 . S
C1360 C1361 1.386 . S
C1360 C1362 1.391 . S
C1361 C1360 1.386 . S
C1361 C1365 1.393 . S
C1362 H1354 0.950 . S
C1362 C1360 1.391 . S
C1362 C1363 1.400 . S
C1363 C1362 1.400 . S
C1363 C1364 1.398 . S
C1363 C1369 1.491 . S
C1364 H1355 0.950 . S
C1364 C1363 1.398 . S
C1364 C1365 1.391 . S
C1365 H1353 0.950 . S
C1365 C1361 1.393 . S
C1365 C1364 1.391 . S
C1366 H1356 0.950 . S
C1366 C1367 1.392 1_565 S
C1366 C1368 1.391 . S
C1367 C1366 1.392 1_545 S
C1367 C1371 1.389 . S
C1368 H1357 0.950 . S
C1368 C1366 1.391 . S
C1368 C1369 1.400 . S
C1369 C1363 1.491 . S
C1369 C1368 1.400 . S
C1369 C1370 1.367 1_565 S
C1370 H1358 0.968 . S
C1370 C1369 1.367 1_545 S
C1370 C1371 1.406 . S
C1371 H1359 0.950 . S
C1371 C1367 1.389 . S
C1371 C1370 1.406 . S
H1372 C1380 0.950 . S
H1373 C1385 0.950 . S
H1374 C1382 0.950 1_554 S
H1375 C1384 0.950 . S
H1376 C1386 0.950 . S
H1377 C1388 0.950 . S
H1378 C1390 0.950 . S
H1379 C1391 0.950 . S
C1380 H1372 0.950 . S
C1380 C1381 1.373 1_554 S
C1380 C1382 1.391 1_554 S
C1381 C1380 1.373 1_556 S
C1381 C1385 1.425 . S
C1382 H1374 0.950 1_556 S
C1382 C1380 1.391 1_556 S
C1382 C1383 1.400 . S
C1383 C1382 1.400 . S
C1383 C1384 1.398 . S
C1383 C1389 1.491 . S
C1384 H1375 0.950 . S
C1384 C1383 1.398 . S
C1384 C1385 1.391 . S
C1385 H1373 0.950 . S
C1385 C1381 1.425 . S
C1385 C1384 1.391 . S
C1386 H1376 0.950 . S
C1386 C1387 1.386 . S
C1386 C1388 1.391 . S
C1387 C1386 1.386 . S
C1387 C1391 1.393 . S
C1388 H1377 0.950 . S
C1388 C1386 1.391 . S
C1388 C1389 1.400 . S
C1389 C1383 1.491 . S
C1389 C1388 1.400 . S
C1389 C1390 1.398 . S
C1390 H1378 0.950 . S
C1390 C1389 1.398 . S
C1390 C1391 1.391 . S
C1391 H1379 0.950 . S
C1391 C1387 1.393 . S
C1391 C1390 1.391 . S
H1392 C1400 0.950 . S
H1393 C1405 0.950 . S
H1394 C1402 0.950 . S
H1395 C1404 0.950 . S
H1396 C1406 0.950 . S
H1397 C1408 0.950 . S
H1398 C1410 0.950 . S
H1399 C1411 0.950 . S
C1400 H1392 0.950 . S
C1400 C1401 1.386 . S
C1400 C1402 1.391 . S
C1401 C1400 1.386 . S
C1401 C1405 1.393 . S
C1402 H1394 0.950 . S
C1402 C1400 1.391 . S
C1402 C1403 1.400 . S
C1403 C1402 1.400 . S
C1403 C1404 1.398 . S
C1403 C1409 1.491 . S
C1404 H1395 0.950 . S
C1404 C1403 1.398 . S
C1404 C1405 1.391 . S
C1405 H1393 0.950 . S
C1405 C1401 1.393 . S
C1405 C1404 1.391 . S
C1406 H1396 0.950 . S
C1406 C1407 1.386 . S
C1406 C1408 1.391 . S
C1407 C1406 1.386 . S
C1407 C1411 1.393 . S
C1408 H1397 0.950 . S
C1408 C1406 1.391 . S
C1408 C1409 1.400 . S
C1409 C1403 1.491 . S
C1409 C1408 1.400 . S
C1409 C1410 1.398 . S
C1410 H1398 0.950 . S
C1410 C1409 1.398 . S
C1410 C1411 1.391 . S
C1411 H1399 0.950 . S
C1411 C1407 1.393 . S
C1411 C1410 1.391 . S
H1412 C1420 0.950 . S
H1413 C1425 0.950 . S
H1414 C1422 0.950 . S
H1415 C1424 0.950 . S
H1416 C1426 0.950 . S
H1417 C1428 0.950 . S
H1418 C1430 0.950 . S
H1419 C1431 0.950 . S
C1420 H1412 0.950 . S
C1420 C1421 1.386 . S
C1420 C1422 1.391 . S
C1421 C1420 1.386 . S
C1421 C1425 1.393 . S
C1422 H1414 0.950 . S
C1422 C1420 1.391 . S
C1422 C1423 1.400 . S
C1423 C1422 1.400 . S
C1423 C1424 1.398 . S
C1423 C1429 1.491 . S
C1424 H1415 0.950 . S
C1424 C1423 1.398 . S
C1424 C1425 1.391 . S
C1425 H1413 0.950 . S
C1425 C1421 1.393 . S
C1425 C1424 1.391 . S
C1426 H1416 0.950 . S
C1426 C1427 1.386 . S
C1426 C1428 1.391 . S
C1427 C1426 1.386 . S
C1427 C1431 1.393 . S
C1428 H1417 0.950 . S
C1428 C1426 1.391 . S
C1428 C1429 1.400 . S
C1429 C1423 1.491 . S
C1429 C1428 1.400 . S
C1429 C1430 1.398 . S
C1430 H1418 0.950 . S
C1430 C1429 1.398 . S
C1430 C1431 1.391 . S
C1431 H1419 0.950 . S
C1431 C1427 1.393 . S
C1431 C1430 1.391 . S
H1432 C1440 0.950 . S
H1433 C1445 0.950 . S
H1434 C1442 0.950 . S
H1435 C1444 0.950 . S
H1436 C1446 0.950 . S
H1437 C1448 0.950 . S
H1438 C1450 0.950 . S
H1439 C1451 0.950 . S
C1440 H1432 0.950 . S
C1440 C1441 1.386 . S
C1440 C1442 1.391 . S
C1441 C1440 1.386 . S
C1441 C1445 1.393 . S
C1442 H1434 0.950 . S
C1442 C1440 1.391 . S
C1442 C1443 1.400 . S
C1443 C1442 1.400 . S
C1443 C1444 1.398 . S
C1443 C1449 1.491 . S
C1444 H1435 0.950 . S
C1444 C1443 1.398 . S
C1444 C1445 1.391 . S
C1445 H1433 0.950 . S
C1445 C1441 1.393 . S
C1445 C1444 1.391 . S
C1446 H1436 0.950 . S
C1446 C1447 1.386 . S
C1446 C1448 1.391 . S
C1447 C1446 1.386 . S
C1447 C1451 1.393 . S
C1448 H1437 0.950 . S
C1448 C1446 1.391 . S
C1448 C1449 1.400 . S
C1449 C1443 1.491 . S
C1449 C1448 1.400 . S
C1449 C1450 1.398 . S
C1450 H1438 0.950 . S
C1450 C1449 1.398 . S
C1450 C1451 1.391 . S
C1451 H1439 0.950 . S
C1451 C1447 1.393 . S
C1451 C1450 1.391 . S
H1452 C1460 0.950 . S
H1453 C1465 0.950 . S
H1454 C1462 0.950 . S
H1455 C1464 0.950 . S
H1456 C1466 0.950 . S
H1457 C1468 0.950 . S
H1458 C1470 0.950 . S
H1459 C1471 0.950 . S
C1460 H1452 0.950 . S
C1460 C1461 1.386 . S
C1460 C1462 1.391 . S
C1461 C1460 1.386 . S
C1461 C1465 1.393 . S
C1462 H1454 0.950 . S
C1462 C1460 1.391 . S
C1462 C1463 1.400 . S
C1463 C1462 1.400 . S
C1463 C1464 1.398 . S
C1463 C1469 1.491 . S
C1464 H1455 0.950 . S
C1464 C1463 1.398 . S
C1464 C1465 1.391 . S
C1465 H1453 0.950 . S
C1465 C1461 1.393 . S
C1465 C1464 1.391 . S
C1466 H1456 0.950 . S
C1466 C1467 1.386 . S
C1466 C1468 1.391 . S
C1467 C1466 1.386 . S
C1467 C1471 1.393 . S
C1468 H1457 0.950 . S
C1468 C1466 1.391 . S
C1468 C1469 1.400 . S
C1469 C1463 1.491 . S
C1469 C1468 1.400 . S
C1469 C1470 1.398 . S
C1470 H1458 0.950 . S
C1470 C1469 1.398 . S
C1470 C1471 1.391 . S
C1471 H1459 0.950 . S
C1471 C1467 1.393 . S
C1471 C1470 1.391 . S
H1472 C1480 0.950 . S
H1473 C1485 0.950 . S
H1474 C1482 0.950 . S
H1475 C1484 0.950 . S
H1476 C1486 0.950 . S
H1477 C1488 0.950 . S
H1478 C1490 0.950 . S
H1479 C1491 0.950 . S
C1480 H1472 0.950 . S
C1480 C1481 1.386 . S
C1480 C1482 1.391 . S
C1481 C1480 1.386 . S
C1481 C1485 1.393 . S
C1482 H1474 0.950 . S
C1482 C1480 1.391 . S
C1482 C1483 1.400 . S
C1483 C1482 1.400 . S
C1483 C1484 1.398 . S
C1483 C1489 1.491 . S
C1484 H1475 0.950 . S
C1484 C1483 1.398 . S
C1484 C1485 1.391 . S
C1485 H1473 0.950 . S
C1485 C1481 1.393 . S
C1485 C1484 1.391 . S
C1486 H1476 0.950 . S
C1486 C1487 1.386 . S
C1486 C1488 1.391 . S
C1487 C1486 1.386 . S
C1487 C1491 1.393 . S
C1488 H1477 0.950 . S
C1488 C1486 1.391 . S
C1488 C1489 1.400 . S
C1489 C1483 1.491 . S
C1489 C1488 1.400 . S
C1489 C1490 1.398 . S
C1490 H1478 0.950 . S
C1490 C1489 1.398 . S
C1490 C1491 1.391 . S
C1491 H1479 0.950 . S
C1491 C1487 1.393 . S
C1491 C1490 1.391 . S
H1492 C1500 0.950 . S
H1493 C1505 0.950 . S
H1494 C1502 0.950 . S
H1495 C1504 0.950 . S
H1496 C1506 0.950 . S
H1497 C1508 0.950 . S
H1498 C1510 0.950 . S
H1499 C1511 0.950 . S
C1500 H1492 0.950 . S
C1500 C1501 1.386 . S
C1500 C1502 1.391 . S
C1501 C1500 1.386 . S
C1501 C1505 1.393 . S
C1502 H1494 0.950 . S
C1502 C1500 1.391 . S
C1502 C1503 1.400 . S
C1503 C1502 1.400 . S
C1503 C1504 1.398 . S
C1503 C1509 1.491 . S
C1504 H1495 0.950 . S
C1504 C1503 1.398 . S
C1504 C1505 1.391 . S
C1505 H1493 0.950 . S
C1505 C1501 1.393 . S
C1505 C1504 1.391 . S
C1506 H1496 0.950 . S
C1506 C1507 1.386 . S
C1506 C1508 1.391 . S
C1507 C1506 1.386 . S
C1507 C1511 1.393 . S
C1508 H1497 0.950 . S
C1508 C1506 1.391 . S
C1508 C1509 1.400 . S
C1509 C1503 1.491 . S
C1509 C1508 1.400 . S
C1509 C1510 1.398 . S
C1510 H1498 0.950 . S
C1510 C1509 1.398 . S
C1510 C1511 1.391 . S
C1511 H1499 0.950 . S
C1511 C1507 1.393 . S
C1511 C1510 1.391 . S
H1512 C1520 0.950 . S
H1513 C1525 0.950 . S
H1514 C1522 0.950 . S
H1515 C1524 0.950 . S
H1516 C1526 0.950 . S
H1517 C1528 0.950 . S
H1518 C1530 0.950 . S
H1519 C1531 0.950 . S
C1520 H1512 0.950 . S
C1520 C1521 1.386 . S
C1520 C1522 1.391 . S
C1521 C1520 1.386 . S
C1521 C1525 1.393 . S
C1522 H1514 0.950 . S
C1522 C1520 1.391 . S
C1522 C1523 1.400 . S
C1523 C1522 1.400 . S
C1523 C1524 1.398 . S
C1523 C1529 1.491 . S
C1524 H1515 0.950 . S
C1524 C1523 1.398 . S
C1524 C1525 1.391 . S
C1525 H1513 0.950 . S
C1525 C1521 1.393 . S
C1525 C1524 1.391 . S
C1526 H1516 0.950 . S
C1526 C1527 1.386 . S
C1526 C1528 1.391 . S
C1527 C1526 1.386 . S
C1527 C1531 1.393 . S
C1528 H1517 0.950 . S
C1528 C1526 1.391 . S
C1528 C1529 1.400 . S
C1529 C1523 1.491 . S
C1529 C1528 1.400 . S
C1529 C1530 1.398 . S
C1530 H1518 0.950 . S
C1530 C1529 1.398 . S
C1530 C1531 1.391 . S
C1531 H1519 0.950 . S
C1531 C1527 1.393 . S
C1531 C1530 1.391 . S
H1532 C1540 0.950 . S
H1533 C1545 0.950 . S
H1534 C1542 0.950 . S
H1535 C1544 0.950 . S
H1536 C1546 0.950 . S
H1537 C1548 0.950 . S
H1538 C1550 0.950 . S
H1539 C1551 0.950 . S
C1540 H1532 0.950 . S
C1540 C1541 1.386 . S
C1540 C1542 1.391 . S
C1541 C1540 1.386 . S
C1541 C1545 1.393 . S
C1542 H1534 0.950 . S
C1542 C1540 1.391 . S
C1542 C1543 1.400 . S
C1543 C1542 1.400 . S
C1543 C1544 1.398 . S
C1543 C1549 1.491 . S
C1544 H1535 0.950 . S
C1544 C1543 1.398 . S
C1544 C1545 1.391 . S
C1545 H1533 0.950 . S
C1545 C1541 1.393 . S
C1545 C1544 1.391 . S
C1546 H1536 0.950 . S
C1546 C1547 1.386 . S
C1546 C1548 1.391 . S
C1547 C1546 1.386 . S
C1547 C1551 1.393 . S
C1548 H1537 0.950 . S
C1548 C1546 1.391 . S
C1548 C1549 1.400 . S
C1549 C1543 1.491 . S
C1549 C1548 1.400 . S
C1549 C1550 1.398 . S
C1550 H1538 0.950 . S
C1550 C1549 1.398 . S
C1550 C1551 1.391 . S
C1551 H1539 0.950 . S
C1551 C1547 1.393 . S
C1551 C1550 1.391 . S
H1552 C1560 0.950 . S
H1553 C1565 0.950 . S
H1554 C1562 0.950 . S
H1555 C1564 0.950 . S
H1556 C1566 0.950 . S
H1557 C1568 0.950 . S
H1558 C1570 0.950 . S
H1559 C1571 0.950 . S
C1560 H1552 0.950 . S
C1560 C1561 1.386 . S
C1560 C1562 1.391 . S
C1561 C1560 1.386 . S
C1561 C1565 1.393 . S
C1562 H1554 0.950 . S
C1562 C1560 1.391 . S
C1562 C1563 1.400 . S
C1563 C1562 1.400 . S
C1563 C1564 1.398 . S
C1563 C1569 1.491 . S
C1564 H1555 0.950 . S
C1564 C1563 1.398 . S
C1564 C1565 1.391 . S
C1565 H1553 0.950 . S
C1565 C1561 1.393 . S
C1565 C1564 1.391 . S
C1566 H1556 0.950 . S
C1566 C1567 1.386 . S
C1566 C1568 1.391 . S
C1567 C1566 1.386 . S
C1567 C1571 1.393 . S
C1568 H1557 0.950 . S
C1568 C1566 1.391 . S
C1568 C1569 1.400 . S
C1569 C1563 1.491 . S
C1569 C1568 1.400 . S
C1569 C1570 1.398 . S
C1570 H1558 0.950 . S
C1570 C1569 1.398 . S
C1570 C1571 1.391 . S
C1571 H1559 0.950 . S
C1571 C1567 1.393 . S
C1571 C1570 1.391 . S
H1572 C1580 0.950 . S
H1573 C1585 0.950 . S
H1574 C1582 0.950 . S
H1575 C1584 0.950 . S
H1576 C1586 0.950 . S
H1577 C1588 0.950 . S
H1578 C1590 0.950 . S
H1579 C1591 0.950 . S
C1580 H1572 0.950 . S
C1580 C1581 1.386 . S
C1580 C1582 1.391 . S
C1581 C1580 1.386 . S
C1581 C1585 1.393 . S
C1582 H1574 0.950 . S
C1582 C1580 1.391 . S
C1582 C1583 1.400 . S
C1583 C1582 1.400 . S
C1583 C1584 1.398 . S
C1583 C1589 1.491 . S
C1584 H1575 0.950 . S
C1584 C1583 1.398 . S
C1584 C1585 1.391 . S
C1585 H1573 0.950 . S
C1585 C1581 1.393 . S
C1585 C1584 1.391 . S
C1586 H1576 0.950 . S
C1586 C1587 1.386 . S
C1586 C1588 1.391 . S
C1587 C1586 1.386 . S
C1587 C1591 1.393 . S
C1588 H1577 0.950 . S
C1588 C1586 1.391 . S
C1588 C1589 1.400 . S
C1589 C1583 1.491 . S
C1589 C1588 1.400 . S
C1589 C1590 1.398 . S
C1590 H1578 0.950 . S
C1590 C1589 1.398 . S
C1590 C1591 1.391 . S
C1591 H1579 0.950 . S
C1591 C1587 1.393 . S
C1591 C1590 1.391 . S
H1592 C1600 0.950 . S
H1593 C1605 0.950 . S
H1594 C1602 0.950 1_554 S
H1595 C1604 0.950 . S
H1596 C1606 0.950 . S
H1597 C1608 0.950 . S
H1598 C1610 0.950 . S
H1599 C1611 0.950 . S
C1600 H1592 0.950 . S
C1600 C1601 1.386 . S
C1600 C1602 1.391 . S
C1601 C1600 1.386 . S
C1601 C1605 1.393 . S
C1602 H1594 0.950 1_556 S
C1602 C1600 1.391 . S
C1602 C1603 1.400 . S
C1603 C1602 1.400 . S
C1603 C1604 1.398 . S
C1603 C1609 1.491 . S
C1604 H1595 0.950 . S
C1604 C1603 1.398 . S
C1604 C1605 1.391 . S
C1605 H1593 0.950 . S
C1605 C1601 1.393 . S
C1605 C1604 1.391 . S
C1606 H1596 0.950 . S
C1606 C1607 1.399 . S
C1606 C1608 1.391 . S
C1607 C1606 1.399 . S
C1607 C1611 1.384 1_556 S
C1608 H1597 0.950 . S
C1608 C1606 1.391 . S
C1608 C1609 1.400 . S
C1609 C1603 1.491 . S
C1609 C1608 1.400 . S
C1609 C1610 1.398 1_556 S
C1610 H1598 0.950 . S
C1610 C1609 1.398 1_554 S
C1610 C1611 1.391 . S
C1611 H1599 0.950 . S
C1611 C1607 1.384 1_554 S
C1611 C1610 1.391 . S
H1612 C1620 0.950 . S
H1613 C1625 0.950 . S
H1614 C1622 0.950 . S
H1615 C1624 0.950 . S
H1616 C1626 0.950 . S
H1617 C1628 0.950 . S
H1618 C1630 0.950 . S
H1619 C1631 0.950 . S
C1620 H1612 0.950 . S
C1620 C1621 1.386 . S
C1620 C1622 1.391 . S
C1621 C1620 1.386 . S
C1621 C1625 1.393 . S
C1622 H1614 0.950 . S
C1622 C1620 1.391 . S
C1622 C1623 1.400 . S
C1623 C1622 1.400 . S
C1623 C1624 1.398 . S
C1623 C1629 1.491 . S
C1624 H1615 0.950 . S
C1624 C1623 1.398 . S
C1624 C1625 1.391 . S
C1625 H1613 0.950 . S
C1625 C1621 1.393 . S
C1625 C1624 1.391 . S
C1626 H1616 0.950 . S
C1626 C1627 1.386 . S
C1626 C1628 1.391 . S
C1627 C1626 1.386 . S
C1627 C1631 1.393 . S
C1628 H1617 0.950 . S
C1628 C1626 1.391 . S
C1628 C1629 1.400 . S
C1629 C1623 1.491 . S
C1629 C1628 1.400 . S
C1629 C1630 1.398 . S
C1630 H1618 0.950 . S
C1630 C1629 1.398 . S
C1630 C1631 1.391 . S
C1631 H1619 0.950 . S
C1631 C1627 1.393 . S
C1631 C1630 1.391 . S
H1632 C1640 0.950 . S
H1633 C1645 0.950 . S
H1634 C1642 0.950 . S
H1635 C1644 0.950 . S
H1636 C1646 0.950 . S
H1637 C1648 0.950 . S
H1638 C1650 0.950 . S
H1639 C1651 0.950 . S
C1640 H1632 0.950 . S
C1640 C1641 1.386 . S
C1640 C1642 1.391 . S
C1641 C1640 1.386 . S
C1641 C1645 1.393 . S
C1642 H1634 0.950 . S
C1642 C1640 1.391 . S
C1642 C1643 1.400 . S
C1643 C1642 1.400 . S
C1643 C1644 1.398 . S
C1643 C1649 1.491 . S
C1644 H1635 0.950 . S
C1644 C1643 1.398 . S
C1644 C1645 1.391 . S
C1645 H1633 0.950 . S
C1645 C1641 1.393 . S
C1645 C1644 1.391 . S
C1646 H1636 0.950 . S
C1646 C1647 1.386 . S
C1646 C1648 1.391 . S
C1647 C1646 1.386 . S
C1647 C1651 1.393 . S
C1648 H1637 0.950 . S
C1648 C1646 1.391 . S
C1648 C1649 1.400 . S
C1649 C1643 1.491 . S
C1649 C1648 1.400 . S
C1649 C1650 1.398 . S
C1650 H1638 0.950 . S
C1650 C1649 1.398 . S
C1650 C1651 1.391 . S
C1651 H1639 0.950 . S
C1651 C1647 1.393 . S
C1651 C1650 1.391 . S
H1652 C1660 0.950 . S
H1653 C1665 0.950 . S
H1654 C1662 0.950 . S
H1655 C1664 0.950 . S
H1656 C1666 0.950 . S
H1657 C1668 0.950 . S
H1658 C1670 0.950 . S
H1659 C1671 0.950 . S
C1660 H1652 0.950 . S
C1660 C1661 1.386 . S
C1660 C1662 1.391 . S
C1661 C1660 1.386 . S
C1661 C1665 1.393 . S
C1662 H1654 0.950 . S
C1662 C1660 1.391 . S
C1662 C1663 1.400 . S
C1663 C1662 1.400 . S
C1663 C1664 1.398 . S
C1663 C1669 1.491 . S
C1664 H1655 0.950 . S
C1664 C1663 1.398 . S
C1664 C1665 1.391 . S
C1665 H1653 0.950 . S
C1665 C1661 1.393 . S
C1665 C1664 1.391 . S
C1666 H1656 0.950 . S
C1666 C1667 1.386 . S
C1666 C1668 1.391 . S
C1667 C1666 1.386 . S
C1667 C1671 1.393 . S
C1668 H1657 0.950 . S
C1668 C1666 1.391 . S
C1668 C1669 1.400 . S
C1669 C1663 1.491 . S
C1669 C1668 1.400 . S
C1669 C1670 1.398 . S
C1670 H1658 0.950 . S
C1670 C1669 1.398 . S
C1670 C1671 1.391 . S
C1671 H1659 0.950 . S
C1671 C1667 1.393 . S
C1671 C1670 1.391 . S
H1672 C1680 0.950 . S
H1673 C1685 0.950 . S
H1674 C1682 0.950 . S
H1675 C1684 0.950 . S
H1676 C1686 0.950 . S
H1677 C1688 0.950 . S
H1678 C1690 0.950 . S
H1679 C1691 0.950 . S
C1680 H1672 0.950 . S
C1680 C1681 1.386 . S
C1680 C1682 1.391 . S
C1681 C1680 1.386 . S
C1681 C1685 1.393 . S
C1682 H1674 0.950 . S
C1682 C1680 1.391 . S
C1682 C1683 1.400 . S
C1683 C1682 1.400 . S
C1683 C1684 1.398 . S
C1683 C1689 1.491 . S
C1684 H1675 0.950 . S
C1684 C1683 1.398 . S
C1684 C1685 1.391 . S
C1685 H1673 0.950 . S
C1685 C1681 1.393 . S
C1685 C1684 1.391 . S
C1686 H1676 0.950 . S
C1686 C1687 1.386 . S
C1686 C1688 1.391 . S
C1687 C1686 1.386 . S
C1687 C1691 1.393 . S
C1688 H1677 0.950 . S
C1688 C1686 1.391 . S
C1688 C1689 1.400 . S
C1689 C1683 1.491 . S
C1689 C1688 1.400 . S
C1689 C1690 1.398 . S
C1690 H1678 0.950 . S
C1690 C1689 1.398 . S
C1690 C1691 1.391 . S
C1691 H1679 0.950 . S
C1691 C1687 1.393 . S
C1691 C1690 1.391 . S
H1692 C1700 0.950 . S
H1693 C1705 0.950 . S
H1694 C1702 0.950 . S
H1695 C1704 0.950 . S
H1696 C1706 0.950 . S
H1697 C1708 0.950 . S
H1698 C1710 0.950 . S
H1699 C1711 0.950 . S
C1700 H1692 0.950 . S
C1700 C1701 1.386 . S
C1700 C1702 1.391 . S
C1701 C1700 1.386 . S
C1701 C1705 1.393 . S
C1702 H1694 0.950 . S
C1702 C1700 1.391 . S
C1702 C1703 1.400 . S
C1703 C1702 1.400 . S
C1703 C1704 1.398 . S
C1703 C1709 1.491 . S
C1704 H1695 0.950 . S
C1704 C1703 1.398 . S
C1704 C1705 1.391 . S
C1705 H1693 0.950 . S
C1705 C1701 1.393 . S
C1705 C1704 1.391 . S
C1706 H1696 0.950 . S
C1706 C1707 1.386 . S
C1706 C1708 1.391 . S
C1707 C1706 1.386 . S
C1707 C1711 1.393 . S
C1708 H1697 0.950 . S
C1708 C1706 1.391 . S
C1708 C1709 1.400 . S
C1709 C1703 1.491 . S
C1709 C1708 1.400 . S
C1709 C1710 1.398 . S
C1710 H1698 0.950 . S
C1710 C1709 1.398 . S
C1710 C1711 1.391 . S
C1711 H1699 0.950 . S
C1711 C1707 1.393 . S
C1711 C1710 1.391 . S
H1712 C1720 0.950 . S
H1713 C1725 0.950 . S
H1714 C1722 0.950 . S
H1715 C1724 0.950 . S
H1716 C1726 0.950 . S
H1717 C1728 0.950 . S
H1718 C1730 0.950 . S
H1719 C1731 0.950 . S
C1720 H1712 0.950 . S
C1720 C1721 1.386 . S
C1720 C1722 1.391 . S
C1721 C1720 1.386 . S
C1721 C1725 1.393 . S
C1722 H1714 0.950 . S
C1722 C1720 1.391 . S
C1722 C1723 1.400 . S
C1723 C1722 1.400 . S
C1723 C1724 1.398 . S
C1723 C1729 1.491 . S
C1724 H1715 0.950 . S
C1724 C1723 1.398 . S
C1724 C1725 1.391 . S
C1725 H1713 0.950 . S
C1725 C1721 1.393 . S
C1725 C1724 1.391 . S
C1726 H1716 0.950 . S
C1726 C1727 1.386 . S
C1726 C1728 1.391 . S
C1727 C1726 1.386 . S
C1727 C1731 1.393 . S
C1728 H1717 0.950 . S
C1728 C1726 1.391 . S
C1728 C1729 1.400 . S
C1729 C1723 1.491 . S
C1729 C1728 1.400 . S
C1729 C1730 1.398 . S
C1730 H1718 0.950 . S
C1730 C1729 1.398 . S
C1730 C1731 1.391 . S
C1731 H1719 0.950 . S
C1731 C1727 1.393 . S
C1731 C1730 1.391 . S
H1732 C1740 0.950 . S
H1733 C1745 0.950 . S
H1734 C1742 0.950 . S
H1735 C1744 0.950 . S
H1736 C1746 0.950 . S
H1737 C1748 0.950 . S
H1738 C1750 0.950 . S
H1739 C1751 0.950 . S
C1740 H1732 0.950 . S
C1740 C1741 1.386 . S
C1740 C1742 1.391 . S
C1741 C1740 1.386 . S
C1741 C1745 1.393 . S
C1742 H1734 0.950 . S
C1742 C1740 1.391 . S
C1742 C1743 1.400 . S
C1743 C1742 1.400 . S
C1743 C1744 1.398 . S
C1743 C1749 1.491 . S
C1744 H1735 0.950 . S
C1744 C1743 1.398 . S
C1744 C1745 1.391 . S
C1745 H1733 0.950 . S
C1745 C1741 1.393 . S
C1745 C1744 1.391 . S
C1746 H1736 0.950 . S
C1746 C1747 1.386 . S
C1746 C1748 1.391 . S
C1747 C1746 1.386 . S
C1747 C1751 1.393 . S
C1748 H1737 0.950 . S
C1748 C1746 1.391 . S
C1748 C1749 1.400 . S
C1749 C1743 1.491 . S
C1749 C1748 1.400 . S
C1749 C1750 1.398 . S
C1750 H1738 0.950 . S
C1750 C1749 1.398 . S
C1750 C1751 1.391 . S
C1751 H1739 0.950 . S
C1751 C1747 1.393 . S
C1751 C1750 1.391 . S
H1752 C1760 0.950 . S
H1753 C1765 0.950 . S
H1754 C1762 0.950 . S
H1755 C1764 0.950 . S
H1756 C1766 0.950 . S
H1757 C1768 0.950 . S
H1758 C1770 0.950 . S
H1759 C1771 0.950 . S
C1760 H1752 0.950 . S
C1760 C1761 1.386 . S
C1760 C1762 1.391 . S
C1761 C1760 1.386 . S
C1761 C1765 1.393 . S
C1762 H1754 0.950 . S
C1762 C1760 1.391 . S
C1762 C1763 1.400 . S
C1763 C1762 1.400 . S
C1763 C1764 1.398 . S
C1763 C1769 1.491 . S
C1764 H1755 0.950 . S
C1764 C1763 1.398 . S
C1764 C1765 1.391 . S
C1765 H1753 0.950 . S
C1765 C1761 1.393 . S
C1765 C1764 1.391 . S
C1766 H1756 0.950 . S
C1766 C1767 1.386 . S
C1766 C1768 1.391 . S
C1767 C1766 1.386 . S
C1767 C1771 1.393 . S
C1768 H1757 0.950 . S
C1768 C1766 1.391 . S
C1768 C1769 1.400 . S
C1769 C1763 1.491 . S
C1769 C1768 1.400 . S
C1769 C1770 1.398 . S
C1770 H1758 0.950 . S
C1770 C1769 1.398 . S
C1770 C1771 1.391 . S
C1771 H1759 0.950 . S
C1771 C1767 1.393 . S
C1771 C1770 1.391 . S
H1772 C1780 0.950 . S
H1773 C1785 0.950 . S
H1774 C1782 0.950 . S
H1775 C1784 0.950 . S
H1776 C1786 0.950 . S
H1777 C1788 0.950 . S
H1778 C1790 0.950 . S
H1779 C1791 0.950 . S
C1780 H1772 0.950 . S
C1780 C1781 1.386 . S
C1780 C1782 1.391 . S
C1781 C1780 1.386 . S
C1781 C1785 1.393 . S
C1782 H1774 0.950 . S
C1782 C1780 1.391 . S
C1782 C1783 1.400 . S
C1783 C1782 1.400 . S
C1783 C1784 1.398 . S
C1783 C1789 1.491 . S
C1784 H1775 0.950 . S
C1784 C1783 1.398 . S
C1784 C1785 1.391 . S
C1785 H1773 0.950 . S
C1785 C1781 1.393 . S
C1785 C1784 1.391 . S
C1786 H1776 0.950 . S
C1786 C1787 1.386 . S
C1786 C1788 1.391 . S
C1787 C1786 1.386 . S
C1787 C1791 1.393 . S
C1788 H1777 0.950 . S
C1788 C1786 1.391 . S
C1788 C1789 1.400 . S
C1789 C1783 1.491 . S
C1789 C1788 1.400 . S
C1789 C1790 1.398 . S
C1790 H1778 0.950 . S
C1790 C1789 1.398 . S
C1790 C1791 1.391 . S
C1791 H1779 0.950 . S
C1791 C1787 1.393 . S
C1791 C1790 1.391 . S
H1792 C1800 0.950 . S
H1793 C1805 0.950 . S
H1794 C1802 0.950 . S
H1795 C1804 0.950 . S
H1796 C1806 0.950 . S
H1797 C1808 0.950 . S
H1798 C1810 0.950 . S
H1799 C1811 0.950 . S
C1800 H1792 0.950 . S
C1800 C1801 1.386 . S
C1800 C1802 1.391 . S
C1801 C1800 1.386 . S
C1801 C1805 1.393 . S
C1802 H1794 0.950 . S
C1802 C1800 1.391 . S
C1802 C1803 1.400 . S
C1803 C1802 1.400 . S
C1803 C1804 1.398 . S
C1803 C1809 1.491 . S
C1804 H1795 0.950 . S
C1804 C1803 1.398 . S
C1804 C1805 1.391 . S
C1805 H1793 0.950 . S
C1805 C1801 1.393 . S
C1805 C1804 1.391 . S
C1806 H1796 0.950 . S
C1806 C1807 1.386 . S
C1806 C1808 1.391 . S
C1807 C1806 1.386 . S
C1807 C1811 1.393 . S
C1808 H1797 0.950 . S
C1808 C1806 1.391 . S
C1808 C1809 1.400 . S
C1809 C1803 1.491 . S
C1809 C1808 1.400 . S
C1809 C1810 1.398 . S
C1810 H1798 0.950 . S
C1810 C1809 1.398 . S
C1810 C1811 1.391 . S
C1811 H1799 0.950 . S
C1811 C1807 1.393 . S
C1811 C1810 1.391 . S
H1812 C1820 0.950 . S
H1813 C1825 0.950 . S
H1814 C1822 0.950 . S
H1815 C1824 0.950 . S
H1816 C1826 0.950 . S
H1817 C1828 0.950 . S
H1818 C1830 0.950 . S
H1819 C1831 0.950 . S
C1820 H1812 0.950 . S
C1820 C1821 1.386 . S
C1820 C1822 1.391 . S
C1821 C1820 1.386 . S
C1821 C1825 1.393 . S
C1822 H1814 0.950 . S
C1822 C1820 1.391 . S
C1822 C1823 1.400 . S
C1823 C1822 1.400 . S
C1823 C1824 1.398 . S
C1823 C1829 1.491 . S
C1824 H1815 0.950 . S
C1824 C1823 1.398 . S
C1824 C1825 1.391 . S
C1825 H1813 0.950 . S
C1825 C1821 1.393 . S
C1825 C1824 1.391 . S
C1826 H1816 0.950 . S
C1826 C1827 1.386 . S
C1826 C1828 1.391 . S
C1827 C1826 1.386 . S
C1827 C1831 1.393 . S
C1828 H1817 0.950 . S
C1828 C1826 1.391 . S
C1828 C1829 1.400 . S
C1829 C1823 1.491 . S
C1829 C1828 1.400 . S
C1829 C1830 1.398 . S
C1830 H1818 0.950 . S
C1830 C1829 1.398 . S
C1830 C1831 1.391 . S
C1831 H1819 0.950 . S
C1831 C1827 1.393 . S
C1831 C1830 1.391 . S
H1832 C1840 0.950 . S
H1833 C1845 0.950 . S
H1834 C1842 0.950 . S
H1835 C1844 0.950 . S
H1836 C1846 0.950 . S
H1837 C1848 0.950 . S
H1838 C1850 0.950 . S
H1839 C1851 0.950 . S
C1840 H1832 0.950 . S
C1840 C1841 1.386 . S
C1840 C1842 1.391 . S
C1841 C1840 1.386 . S
C1841 C1845 1.393 . S
C1842 H1834 0.950 . S
C1842 C1840 1.391 . S
C1842 C1843 1.400 . S
C1843 C1842 1.400 . S
C1843 C1844 1.398 . S
C1843 C1849 1.491 . S
C1844 H1835 0.950 . S
C1844 C1843 1.398 . S
C1844 C1845 1.391 . S
C1845 H1833 0.950 . S
C1845 C1841 1.393 . S
C1845 C1844 1.391 . S
C1846 H1836 0.950 . S
C1846 C1847 1.386 . S
C1846 C1848 1.391 . S
C1847 C1846 1.386 . S
C1847 C1851 1.393 . S
C1848 H1837 0.950 . S
C1848 C1846 1.391 . S
C1848 C1849 1.400 . S
C1849 C1843 1.491 . S
C1849 C1848 1.400 . S
C1849 C1850 1.398 . S
C1850 H1838 0.950 . S
C1850 C1849 1.398 . S
C1850 C1851 1.391 . S
C1851 H1839 0.950 . S
C1851 C1847 1.393 . S
C1851 C1850 1.391 . S
H1852 C1860 0.950 . S
H1853 C1865 0.950 . S
H1854 C1862 0.950 . S
H1855 C1864 0.950 . S
H1856 C1866 0.950 . S
H1857 C1868 0.950 . S
H1858 C1870 0.950 . S
H1859 C1871 0.950 . S
C1860 H1852 0.950 . S
C1860 C1861 1.386 . S
C1860 C1862 1.391 . S
C1861 C1860 1.386 . S
C1861 C1865 1.393 . S
C1862 H1854 0.950 . S
C1862 C1860 1.391 . S
C1862 C1863 1.400 . S
C1863 C1862 1.400 . S
C1863 C1864 1.398 . S
C1863 C1869 1.491 . S
C1864 H1855 0.950 . S
C1864 C1863 1.398 . S
C1864 C1865 1.391 . S
C1865 H1853 0.950 . S
C1865 C1861 1.393 . S
C1865 C1864 1.391 . S
C1866 H1856 0.950 . S
C1866 C1867 1.386 . S
C1866 C1868 1.391 . S
C1867 C1866 1.386 . S
C1867 C1871 1.393 . S
C1868 H1857 0.950 . S
C1868 C1866 1.391 . S
C1868 C1869 1.400 . S
C1869 C1863 1.491 . S
C1869 C1868 1.400 . S
C1869 C1870 1.398 . S
C1870 H1858 0.950 . S
C1870 C1869 1.398 . S
C1870 C1871 1.391 . S
C1871 H1859 0.950 . S
C1871 C1867 1.393 . S
C1871 C1870 1.391 . S
H1872 C1880 0.950 . S
H1873 C1885 0.950 . S
H1874 C1882 0.950 . S
H1875 C1884 0.950 . S
H1876 C1886 0.950 . S
H1877 C1888 0.950 . S
H1878 C1890 0.950 . S
H1879 C1891 0.950 . S
C1880 H1872 0.950 . S
C1880 C1881 1.386 . S
C1880 C1882 1.391 . S
C1881 C1880 1.386 . S
C1881 C1885 1.393 . S
C1882 H1874 0.950 . S
C1882 C1880 1.391 . S
C1882 C1883 1.400 . S
C1883 C1882 1.400 . S
C1883 C1884 1.398 . S
C1883 C1889 1.491 . S
C1884 H1875 0.950 . S
C1884 C1883 1.398 . S
C1884 C1885 1.391 . S
C1885 H1873 0.950 . S
C1885 C1881 1.393 . S
C1885 C1884 1.391 . S
C1886 H1876 0.950 . S
C1886 C1887 1.386 . S
C1886 C1888 1.391 . S
C1887 C1886 1.386 . S
C1887 C1891 1.393 . S
C1888 H1877 0.950 . S
C1888 C1886 1.391 . S
C1888 C1889 1.400 . S
C1889 C1883 1.491 . S
C1889 C1888 1.400 . S
C1889 C1890 1.398 . S
C1890 H1878 0.950 . S
C1890 C1889 1.398 . S
C1890 C1891 1.391 . S
C1891 H1879 0.950 . S
C1891 C1887 1.393 . S
C1891 C1890 1.391 . S
H1892 C1900 0.950 . S
H1893 C1905 0.950 . S
H1894 C1902 0.950 . S
H1895 C1904 0.950 . S
H1896 C1906 0.950 . S
H1897 C1908 0.950 . S
H1898 C1910 0.950 . S
H1899 C1911 0.950 . S
C1900 H1892 0.950 . S
C1900 C1901 1.386 . S
C1900 C1902 1.391 . S
C1901 C1900 1.386 . S
C1901 C1905 1.393 . S
C1902 H1894 0.950 . S
C1902 C1900 1.391 . S
C1902 C1903 1.400 . S
C1903 C1902 1.400 . S
C1903 C1904 1.398 . S
C1903 C1909 1.491 . S
C1904 H1895 0.950 . S
C1904 C1903 1.398 . S
C1904 C1905 1.391 . S
C1905 H1893 0.950 . S
C1905 C1901 1.393 . S
C1905 C1904 1.391 . S
C1906 H1896 0.950 . S
C1906 C1907 1.386 . S
C1906 C1908 1.391 . S
C1907 C1906 1.386 . S
C1907 C1911 1.393 . S
C1908 H1897 0.950 . S
C1908 C1906 1.391 . S
C1908 C1909 1.400 . S
C1909 C1903 1.491 . S
C1909 C1908 1.400 . S
C1909 C1910 1.398 . S
C1910 H1898 0.950 . S
C1910 C1909 1.398 . S
C1910 C1911 1.391 . S
C1911 H1899 0.950 . S
C1911 C1907 1.393 . S
C1911 C1910 1.391 . S
H1912 C1920 0.950 . S
H1913 C1925 0.950 . S
H1914 C1922 0.950 . S
H1915 C1924 0.950 . S
H1916 C1926 0.950 . S
H1917 C1928 0.950 . S
H1918 C1930 0.950 . S
H1919 C1931 0.950 . S
C1920 H1912 0.950 . S
C1920 C1921 1.386 . S
C1920 C1922 1.391 . S
C1921 C1920 1.386 . S
C1921 C1925 1.393 . S
C1922 H1914 0.950 . S
C1922 C1920 1.391 . S
C1922 C1923 1.400 . S
C1923 C1922 1.400 . S
C1923 C1924 1.398 . S
C1923 C1929 1.491 . S
C1924 H1915 0.950 . S
C1924 C1923 1.398 . S
C1924 C1925 1.391 . S
C1925 H1913 0.950 . S
C1925 C1921 1.393 . S
C1925 C1924 1.391 . S
C1926 H1916 0.950 . S
C1926 C1927 1.386 . S
C1926 C1928 1.391 . S
C1927 C1926 1.386 . S
C1927 C1931 1.393 . S
C1928 H1917 0.950 . S
C1928 C1926 1.391 . S
C1928 C1929 1.400 . S
C1929 C1923 1.491 . S
C1929 C1928 1.400 . S
C1929 C1930 1.398 . S
C1930 H1918 0.950 . S
C1930 C1929 1.398 . S
C1930 C1931 1.391 . S
C1931 H1919 0.950 . S
C1931 C1927 1.393 . S
C1931 C1930 1.391 . S
H1932 C1940 0.950 . S
H1933 C1945 0.950 . S
H1934 C1942 0.950 . S
H1935 C1944 0.950 . S
H1936 C1946 0.950 . S
H1937 C1948 0.950 . S
H1938 C1950 0.950 . S
H1939 C1951 0.950 . S
C1940 H1932 0.950 . S
C1940 C1941 1.386 . S
C1940 C1942 1.391 . S
C1941 C1940 1.386 . S
C1941 C1945 1.393 . S
C1942 H1934 0.950 . S
C1942 C1940 1.391 . S
C1942 C1943 1.400 . S
C1943 C1942 1.400 . S
C1943 C1944 1.398 . S
C1943 C1949 1.491 . S
C1944 H1935 0.950 . S
C1944 C1943 1.398 . S
C1944 C1945 1.391 . S
C1945 H1933 0.950 . S
C1945 C1941 1.393 . S
C1945 C1944 1.391 . S
C1946 H1936 0.950 . S
C1946 C1947 1.386 . S
C1946 C1948 1.391 . S
C1947 C1946 1.386 . S
C1947 C1951 1.393 . S
C1948 H1937 0.950 . S
C1948 C1946 1.391 . S
C1948 C1949 1.400 . S
C1949 C1943 1.491 . S
C1949 C1948 1.400 . S
C1949 C1950 1.398 . S
C1950 H1938 0.950 . S
C1950 C1949 1.398 . S
C1950 C1951 1.391 . S
C1951 H1939 0.950 . S
C1951 C1947 1.393 . S
C1951 C1950 1.391 . S
H1952 C1960 0.950 . S
H1953 C1965 0.950 . S
H1954 C1962 0.950 . S
H1955 C1964 0.950 . S
H1956 C1966 0.950 . S
H1957 C1968 0.950 . S
H1958 C1970 0.950 . S
H1959 C1971 0.950 . S
C1960 H1952 0.950 . S
C1960 C1961 1.386 . S
C1960 C1962 1.391 . S
C1961 C1960 1.386 . S
C1961 C1965 1.393 . S
C1962 H1954 0.950 . S
C1962 C1960 1.391 . S
C1962 C1963 1.400 . S
C1963 C1962 1.400 . S
C1963 C1964 1.398 . S
C1963 C1969 1.491 . S
C1964 H1955 0.950 . S
C1964 C1963 1.398 . S
C1964 C1965 1.391 . S
C1965 H1953 0.950 . S
C1965 C1961 1.393 . S
C1965 C1964 1.391 . S
C1966 H1956 0.950 . S
C1966 C1967 1.386 . S
C1966 C1968 1.391 . S
C1967 C1966 1.386 . S
C1967 C1971 1.393 . S
C1968 H1957 0.950 . S
C1968 C1966 1.391 . S
C1968 C1969 1.400 . S
C1969 C1963 1.491 . S
C1969 C1968 1.400 . S
C1969 C1970 1.398 . S
C1970 H1958 0.950 . S
C1970 C1969 1.398 . S
C1970 C1971 1.391 . S
C1971 H1959 0.950 . S
C1971 C1967 1.393 . S
C1971 C1970 1.391 . S
H1972 C1980 0.950 . S
H1973 C1985 0.950 . S
H1974 C1982 0.950 . S
H1975 C1984 0.950 . S
H1976 C1986 0.950 . S
H1977 C1988 0.950 . S
H1978 C1990 0.950 . S
H1979 C1991 0.950 . S
C1980 H1972 0.950 . S
C1980 C1981 1.386 . S
C1980 C1982 1.391 . S
C1981 C1980 1.386 . S
C1981 C1985 1.393 . S
C1982 H1974 0.950 . S
C1982 C1980 1.391 . S
C1982 C1983 1.400 . S
C1983 C1982 1.400 . S
C1983 C1984 1.398 . S
C1983 C1989 1.491 . S
C1984 H1975 0.950 . S
C1984 C1983 1.398 . S
C1984 C1985 1.391 . S
C1985 H1973 0.950 . S
C1985 C1981 1.393 . S
C1985 C1984 1.391 . S
C1986 H1976 0.950 . S
C1986 C1987 1.386 . S
C1986 C1988 1.391 . S
C1987 C1986 1.386 . S
C1987 C1991 1.393 . S
C1988 H1977 0.950 . S
C1988 C1986 1.391 . S
C1988 C1989 1.400 . S
C1989 C1983 1.491 . S
C1989 C1988 1.400 . S
C1989 C1990 1.398 . S
C1990 H1978 0.950 . S
C1990 C1989 1.398 . S
C1990 C1991 1.391 . S
C1991 H1979 0.950 . S
C1991 C1987 1.393 . S
C1991 C1990 1.391 . S
H1992 C2000 0.950 . S
H1993 C2005 0.950 . S
H1994 C2002 0.950 . S
H1995 C2004 0.950 . S
H1996 C2006 0.950 . S
H1997 C2008 0.950 . S
H1998 C2010 0.950 . S
H1999 C2011 0.950 . S
C2000 H1992 0.950 . S
C2000 C2001 1.386 . S
C2000 C2002 1.391 . S
C2001 C2000 1.386 . S
C2001 C2005 1.393 . S
C2002 H1994 0.950 . S
C2002 C2000 1.391 . S
C2002 C2003 1.400 . S
C2003 C2002 1.400 . S
C2003 C2004 1.398 . S
C2003 C2009 1.491 . S
C2004 H1995 0.950 . S
C2004 C2003 1.398 . S
C2004 C2005 1.391 . S
C2005 H1993 0.950 . S
C2005 C2001 1.393 . S
C2005 C2004 1.391 . S
C2006 H1996 0.950 . S
C2006 C2007 1.386 . S
C2006 C2008 1.391 . S
C2007 C2006 1.386 . S
C2007 C2011 1.393 . S
C2008 H1997 0.950 . S
C2008 C2006 1.391 . S
C2008 C2009 1.400 . S
C2009 C2003 1.491 . S
C2009 C2008 1.400 . S
C2009 C2010 1.398 . S
C2010 H1998 0.950 . S
C2010 C2009 1.398 . S
C2010 C2011 1.391 . S
C2011 H1999 0.950 . S
C2011 C2007 1.393 . S
C2011 C2010 1.391 . S
H2012 C2020 0.950 . S
H2013 C2025 0.950 . S
H2014 C2022 0.950 . S
H2015 C2024 0.950 . S
H2016 C2026 0.950 . S
H2017 C2028 0.950 . S
H2018 C2030 0.950 . S
H2019 C2031 0.950 . S
C2020 H2012 0.950 . S
C2020 C2021 1.386 . S
C2020 C2022 1.391 . S
C2021 C2020 1.386 . S
C2021 C2025 1.393 . S
C2022 H2014 0.950 . S
C2022 C2020 1.391 . S
C2022 C2023 1.400 . S
C2023 C2022 1.400 . S
C2023 C2024 1.398 . S
C2023 C2029 1.491 . S
C2024 H2015 0.950 . S
C2024 C2023 1.398 . S
C2024 C2025 1.391 . S
C2025 H2013 0.950 . S
C2025 C2021 1.393 . S
C2025 C2024 1.391 . S
C2026 H2016 0.950 . S
C2026 C2027 1.386 . S
C2026 C2028 1.391 . S
C2027 C2026 1.386 . S
C2027 C2031 1.393 . S
C2028 H2017 0.950 . S
C2028 C2026 1.391 . S
C2028 C2029 1.400 . S
C2029 C2023 1.491 . S
C2029 C2028 1.400 . S
C2029 C2030 1.398 . S
C2030 H2018 0.950 . S
C2030 C2029 1.398 . S
C2030 C2031 1.391 . S
C2031 H2019 0.950 . S
C2031 C2027 1.393 . S
C2031 C2030 1.391 . S
H2032 C2040 0.950 . S
H2033 C2045 0.950 . S
H2034 C2042 0.950 . S
H2035 C2044 0.950 . S
H2036 C2046 0.950 . S
H2037 C2048 0.950 . S
H2038 C2050 0.950 . S
H2039 C2051 0.950 . S
C2040 H2032 0.950 . S
C2040 C2041 1.386 . S
C2040 C2042 1.391 . S
C2041 C2040 1.386 . S
C2041 C2045 1.393 . S
C2042 H2034 0.950 . S
C2042 C2040 1.391 . S
C2042 C2043 1.400 . S
C2043 C2042 1.400 . S
C2043 C2044 1.398 . S
C2043 C2049 1.491 . S
C2044 H2035 0.950 . S
C2044 C2043 1.398 . S
C2044 C2045 1.391 . S
C2045 H2033 0.950 . S
C2045 C2041 1.393 . S
C2045 C2044 1.391 . S
C2046 H2036 0.950 . S
C2046 C2047 1.386 . S
C2046 C2048 1.391 . S
C2047 C2046 1.386 . S
C2047 C2051 1.393 . S
C2048 H2037 0.950 . S
C2048 C2046 1.391 . S
C2048 C2049 1.400 . S
C2049 C2043 1.491 . S
C2049 C2048 1.400 . S
C2049 C2050 1.398 . S
C2050 H2038 0.950 . S
C2050 C2049 1.398 . S
C2050 C2051 1.391 . S
C2051 H2039 0.950 . S
C2051 C2047 1.393 . S
C2051 C2050 1.391 . S
H2052 C2060 0.950 . S
H2053 C2065 0.950 . S
H2054 C2062 0.950 . S
H2055 C2064 0.950 . S
H2056 C2066 0.950 . S
H2057 C2068 0.950 . S
H2058 C2070 0.950 . S
H2059 C2071 0.950 . S
C2060 H2052 0.950 . S
C2060 C2061 1.386 . S
C2060 C2062 1.391 . S
C2061 C2060 1.386 . S
C2061 C2065 1.393 . S
C2062 H2054 0.950 . S
C2062 C2060 1.391 . S
C2062 C2063 1.400 . S
C2063 C2062 1.400 . S
C2063 C2064 1.398 . S
C2063 C2069 1.491 . S
C2064 H2055 0.950 . S
C2064 C2063 1.398 . S
C2064 C2065 1.391 . S
C2065 H2053 0.950 . S
C2065 C2061 1.393 . S
C2065 C2064 1.391 . S
C2066 H2056 0.950 . S
C2066 C2067 1.386 . S
C2066 C2068 1.391 . S
C2067 C2066 1.386 . S
C2067 C2071 1.393 . S
C2068 H2057 0.950 . S
C2068 C2066 1.391 . S
C2068 C2069 1.400 . S
C2069 C2063 1.491 . S
C2069 C2068 1.400 . S
C2069 C2070 1.398 . S
C2070 H2058 0.950 . S
C2070 C2069 1.398 . S
C2070 C2071 1.391 . S
C2071 H2059 0.950 . S
C2071 C2067 1.393 . S
C2071 C2070 1.391 . S
H2072 C2080 0.950 . S
H2073 C2085 0.950 . S
H2074 C2082 0.950 . S
H2075 C2084 0.950 . S
H2076 C2086 0.950 . S
H2077 C2088 0.950 . S
H2078 C2090 0.950 . S
H2079 C2091 0.950 . S
C2080 H2072 0.950 . S
C2080 C2081 1.386 . S
C2080 C2082 1.391 . S
C2081 C2080 1.386 . S
C2081 C2085 1.393 . S
C2082 H2074 0.950 . S
C2082 C2080 1.391 . S
C2082 C2083 1.400 . S
C2083 C2082 1.400 . S
C2083 C2084 1.398 . S
C2083 C2089 1.491 . S
C2084 H2075 0.950 . S
C2084 C2083 1.398 . S
C2084 C2085 1.391 . S
C2085 H2073 0.950 . S
C2085 C2081 1.393 . S
C2085 C2084 1.391 . S
C2086 H2076 0.950 . S
C2086 C2087 1.386 . S
C2086 C2088 1.391 . S
C2087 C2086 1.386 . S
C2087 C2091 1.393 . S
C2088 H2077 0.950 . S
C2088 C2086 1.391 . S
C2088 C2089 1.400 . S
C2089 C2083 1.491 . S
C2089 C2088 1.400 . S
C2089 C2090 1.398 . S
C2090 H2078 0.950 . S
C2090 C2089 1.398 . S
C2090 C2091 1.391 . S
C2091 H2079 0.950 . S
C2091 C2087 1.393 . S
C2091 C2090 1.391 . S
H2092 C2100 0.950 . S
H2093 C2105 0.950 . S
H2094 C2102 0.950 . S
H2095 C2104 0.950 . S
H2096 C2106 0.950 . S
H2097 C2108 0.950 . S
H2098 C2110 0.950 . S
H2099 C2111 0.950 . S
C2100 H2092 0.950 . S
C2100 C2101 1.386 . S
C2100 C2102 1.391 . S
C2101 C2100 1.386 . S
C2101 C2105 1.393 . S
C2102 H2094 0.950 . S
C2102 C2100 1.391 . S
C2102 C2103 1.400 . S
C2103 C2102 1.400 . S
C2103 C2104 1.398 . S
C2103 C2109 1.491 . S
C2104 H2095 0.950 . S
C2104 C2103 1.398 . S
C2104 C2105 1.391 . S
C2105 H2093 0.950 . S
C2105 C2101 1.393 . S
C2105 C2104 1.391 . S
C2106 H2096 0.950 . S
C2106 C2107 1.386 . S
C2106 C2108 1.391 . S
C2107 C2106 1.386 . S
C2107 C2111 1.393 . S
C2108 H2097 0.950 . S
C2108 C2106 1.391 . S
C2108 C2109 1.400 . S
C2109 C2103 1.491 . S
C2109 C2108 1.400 . S
C2109 C2110 1.398 . S
C2110 H2098 0.950 . S
C2110 C2109 1.398 . S
C2110 C2111 1.391 . S
C2111 H2099 0.950 . S
C2111 C2107 1.393 . S
C2111 C2110 1.391 . S
H2112 C2120 0.950 . S
H2113 C2125 0.950 . S
H2114 C2122 0.950 . S
H2115 C2124 0.950 . S
H2116 C2126 0.950 . S
H2117 C2128 0.950 . S
H2118 C2130 0.950 . S
H2119 C2131 0.950 . S
C2120 H2112 0.950 . S
C2120 C2121 1.386 1_455 S
C2120 C2122 1.391 . S
C2121 C2120 1.386 1_655 S
C2121 C2125 1.393 . S
C2122 H2114 0.950 . S
C2122 C2120 1.391 . S
C2122 C2123 1.400 1_455 S
C2123 C2122 1.400 1_655 S
C2123 C2124 1.398 . S
C2123 C2129 1.491 . S
C2124 H2115 0.950 . S
C2124 C2123 1.398 . S
C2124 C2125 1.391 . S
C2125 H2113 0.950 . S
C2125 C2121 1.393 . S
C2125 C2124 1.391 . S
C2126 H2116 0.950 . S
C2126 C2127 1.386 . S
C2126 C2128 1.391 . S
C2127 C2126 1.386 . S
C2127 C2131 1.393 1_655 S
C2128 H2117 0.950 . S
C2128 C2126 1.391 . S
C2128 C2129 1.400 . S
C2129 C2123 1.491 . S
C2129 C2128 1.400 . S
C2129 C2130 1.398 1_655 S
C2130 H2118 0.950 . S
C2130 C2129 1.398 1_455 S
C2130 C2131 1.391 . S
C2131 H2119 0.950 . S
C2131 C2127 1.393 1_455 S
C2131 C2130 1.391 . S
H2132 C2140 0.950 . S
H2133 C2145 0.950 . S
H2134 C2142 0.950 . S
H2135 C2144 0.950 . S
H2136 C2146 0.950 . S
H2137 C2148 0.950 . S
H2138 C2150 0.950 . S
H2139 C2151 0.950 . S
C2140 H2132 0.950 . S
C2140 C2141 1.386 . S
C2140 C2142 1.391 . S
C2141 C2140 1.386 . S
C2141 C2145 1.393 . S
C2142 H2134 0.950 . S
C2142 C2140 1.391 . S
C2142 C2143 1.400 . S
C2143 C2142 1.400 . S
C2143 C2144 1.398 . S
C2143 C2149 1.491 . S
C2144 H2135 0.950 . S
C2144 C2143 1.398 . S
C2144 C2145 1.391 . S
C2145 H2133 0.950 . S
C2145 C2141 1.393 . S
C2145 C2144 1.391 . S
C2146 H2136 0.950 . S
C2146 C2147 1.386 . S
C2146 C2148 1.391 . S
C2147 C2146 1.386 . S
C2147 C2151 1.393 . S
C2148 H2137 0.950 . S
C2148 C2146 1.391 . S
C2148 C2149 1.400 . S
C2149 C2143 1.491 . S
C2149 C2148 1.400 . S
C2149 C2150 1.398 . S
C2150 H2138 0.950 . S
C2150 C2149 1.398 . S
C2150 C2151 1.391 . S
C2151 H2139 0.950 . S
C2151 C2147 1.393 . S
C2151 C2150 1.391 . S
H2152 C2160 0.950 . S
H2153 C2165 0.950 . S
H2154 C2162 0.950 . S
H2155 C2164 0.950 . S
H2156 C2166 0.950 . S
H2157 C2168 0.950 . S
H2158 C2170 0.950 . S
H2159 C2171 0.950 . S
C2160 H2152 0.950 . S
C2160 C2161 1.386 . S
C2160 C2162 1.391 . S
C2161 C2160 1.386 . S
C2161 C2165 1.393 . S
C2162 H2154 0.950 . S
C2162 C2160 1.391 . S
C2162 C2163 1.400 . S
C2163 C2162 1.400 . S
C2163 C2164 1.398 . S
C2163 C2169 1.491 . S
C2164 H2155 0.950 . S
C2164 C2163 1.398 . S
C2164 C2165 1.391 . S
C2165 H2153 0.950 . S
C2165 C2161 1.393 . S
C2165 C2164 1.391 . S
C2166 H2156 0.950 . S
C2166 C2167 1.386 . S
C2166 C2168 1.391 . S
C2167 C2166 1.386 . S
C2167 C2171 1.393 . S
C2168 H2157 0.950 . S
C2168 C2166 1.391 . S
C2168 C2169 1.400 . S
C2169 C2163 1.491 . S
C2169 C2168 1.400 . S
C2169 C2170 1.398 . S
C2170 H2158 0.950 . S
C2170 C2169 1.398 . S
C2170 C2171 1.391 . S
C2171 H2159 0.950 . S
C2171 C2167 1.393 . S
C2171 C2170 1.391 . S
H2172 C2180 0.950 . S
H2173 C2185 0.950 . S
H2174 C2182 0.950 . S
H2175 C2184 0.950 . S
H2176 C2186 0.950 1_554 S
H2177 C2188 0.950 1_554 S
H2178 C2190 0.950 . S
H2179 C2191 0.950 . S
C2180 H2172 0.950 . S
C2180 C2181 1.386 . S
C2180 C2182 1.391 . S
C2181 C2180 1.386 . S
C2181 C2185 1.393 1_556 S
C2182 H2174 0.950 . S
C2182 C2180 1.391 . S
C2182 C2183 1.400 . S
C2183 C2182 1.400 . S
C2183 C2184 1.398 1_556 S
C2183 C2189 1.491 . S
C2184 H2175 0.950 . S
C2184 C2183 1.398 1_554 S
C2184 C2185 1.391 . S
C2185 H2173 0.950 . S
C2185 C2181 1.393 1_554 S
C2185 C2184 1.391 . S
C2186 H2176 0.950 1_556 S
C2186 C2187 1.386 . S
C2186 C2188 1.391 . S
C2187 C2186 1.386 . S
C2187 C2191 1.393 . S
C2188 H2177 0.950 1_556 S
C2188 C2186 1.391 . S
C2188 C2189 1.400 . S
C2189 C2183 1.491 . S
C2189 C2188 1.400 . S
C2189 C2190 1.398 . S
C2190 H2178 0.950 . S
C2190 C2189 1.398 . S
C2190 C2191 1.391 . S
C2191 H2179 0.950 . S
C2191 C2187 1.393 . S
C2191 C2190 1.391 . S
H2192 C2200 0.950 . S
H2193 C2205 0.950 . S
H2194 C2202 0.953 . S
H2195 C2204 0.950 . S
H2196 C2206 0.950 . S
H2197 C2208 0.950 . S
H2198 C2210 0.950 1_455 S
H2199 C2211 0.950 1_455 S
C2200 H2192 0.950 . S
C2200 C2201 1.386 . S
C2200 C2202 1.391 . S
C2201 C2200 1.386 . S
C2201 C2205 1.393 . S
C2202 H2194 0.953 . S
C2202 C2200 1.391 . S
C2202 C2203 1.400 . S
C2203 C2202 1.400 . S
C2203 C2204 1.398 . S
C2203 C2209 1.491 . S
C2204 H2195 0.950 . S
C2204 C2203 1.398 . S
C2204 C2205 1.391 . S
C2205 H2193 0.950 . S
C2205 C2201 1.393 . S
C2205 C2204 1.391 . S
C2206 H2196 0.950 . S
C2206 C2207 1.386 . S
C2206 C2208 1.391 . S
C2207 C2206 1.386 . S
C2207 C2211 1.393 . S
C2208 H2197 0.950 . S
C2208 C2206 1.391 . S
C2208 C2209 1.400 . S
C2209 C2203 1.491 . S
C2209 C2208 1.400 . S
C2209 C2210 1.398 . S
C2210 H2198 0.950 1_655 S
C2210 C2209 1.398 . S
C2210 C2211 1.391 . S
C2211 H2199 0.950 1_655 S
C2211 C2207 1.393 . S
C2211 C2210 1.391 . S
H2212 C2220 0.950 . S
H2213 C2225 0.950 . S
H2214 C2222 0.950 . S
H2215 C2224 0.950 . S
H2216 C2226 0.950 . S
H2217 C2228 0.950 . S
H2218 C2230 0.950 . S
H2219 C2231 0.950 . S
C2220 H2212 0.950 . S
C2220 C2221 1.386 . S
C2220 C2222 1.391 . S
C2221 C2220 1.386 . S
C2221 C2225 1.393 . S
C2222 H2214 0.950 . S
C2222 C2220 1.391 . S
C2222 C2223 1.400 . S
C2223 C2222 1.400 . S
C2223 C2224 1.398 . S
C2223 C2229 1.491 . S
C2224 H2215 0.950 . S
C2224 C2223 1.398 . S
C2224 C2225 1.391 . S
C2225 H2213 0.950 . S
C2225 C2221 1.393 . S
C2225 C2224 1.391 . S
C2226 H2216 0.950 . S
C2226 C2227 1.386 . S
C2226 C2228 1.391 . S
C2227 C2226 1.386 . S
C2227 C2231 1.393 . S
C2228 H2217 0.950 . S
C2228 C2226 1.391 . S
C2228 C2229 1.400 . S
C2229 C2223 1.491 . S
C2229 C2228 1.400 . S
C2229 C2230 1.398 . S
C2230 H2218 0.950 . S
C2230 C2229 1.398 . S
C2230 C2231 1.391 . S
C2231 H2219 0.950 . S
C2231 C2227 1.393 . S
C2231 C2230 1.391 . S
H2232 C2240 0.950 . S
H2233 C2245 0.950 . S
H2234 C2242 0.950 . S
H2235 C2244 0.950 . S
H2236 C2246 0.950 . S
H2237 C2248 0.950 . S
H2238 C2250 0.950 . S
H2239 C2251 0.950 . S
C2240 H2232 0.950 . S
C2240 C2241 1.386 . S
C2240 C2242 1.391 . S
C2241 C2240 1.386 . S
C2241 C2245 1.393 . S
C2242 H2234 0.950 . S
C2242 C2240 1.391 . S
C2242 C2243 1.400 . S
C2243 C2242 1.400 . S
C2243 C2244 1.398 . S
C2243 C2249 1.491 . S
C2244 H2235 0.950 . S
C2244 C2243 1.398 . S
C2244 C2245 1.391 . S
C2245 H2233 0.950 . S
C2245 C2241 1.393 . S
C2245 C2244 1.391 . S
C2246 H2236 0.950 . S
C2246 C2247 1.386 . S
C2246 C2248 1.391 . S
C2247 C2246 1.386 . S
C2247 C2251 1.393 . S
C2248 H2237 0.950 . S
C2248 C2246 1.391 . S
C2248 C2249 1.400 . S
C2249 C2243 1.491 . S
C2249 C2248 1.400 . S
C2249 C2250 1.398 . S
C2250 H2238 0.950 . S
C2250 C2249 1.398 . S
C2250 C2251 1.391 . S
C2251 H2239 0.950 . S
C2251 C2247 1.393 . S
C2251 C2250 1.391 . S
H2252 C2260 0.950 . S
H2253 C2265 0.950 . S
H2254 C2262 0.950 . S
H2255 C2264 0.950 . S
H2256 C2266 0.950 . S
H2257 C2268 0.950 . S
H2258 C2270 0.950 . S
H2259 C2271 0.950 . S
C2260 H2252 0.950 . S
C2260 C2261 1.386 . S
C2260 C2262 1.391 . S
C2261 C2260 1.386 . S
C2261 C2265 1.393 . S
C2262 H2254 0.950 . S
C2262 C2260 1.391 . S
C2262 C2263 1.400 . S
C2263 C2262 1.400 . S
C2263 C2264 1.398 . S
C2263 C2269 1.491 . S
C2264 H2255 0.950 . S
C2264 C2263 1.398 . S
C2264 C2265 1.391 . S
C2265 H2253 0.950 . S
C2265 C2261 1.393 . S
C2265 C2264 1.391 . S
C2266 H2256 0.950 . S
C2266 C2267 1.386 . S
C2266 C2268 1.391 . S
C2267 C2266 1.386 . S
C2267 C2271 1.393 . S
C2268 H2257 0.950 . S
C2268 C2266 1.391 . S
C2268 C2269 1.400 . S
C2269 C2263 1.491 . S
C2269 C2268 1.400 . S
C2269 C2270 1.398 . S
C2270 H2258 0.950 . S
C2270 C2269 1.398 . S
C2270 C2271 1.391 . S
C2271 H2259 0.950 . S
C2271 C2267 1.393 . S
C2271 C2270 1.391 . S
H2272 C2280 0.962 . S
H2273 C2285 0.950 . S
H2274 C2282 0.950 . S
H2275 C2284 0.950 . S
H2276 C2286 0.950 . S
H2277 C2288 0.950 . S
H2278 C2290 0.950 . S
H2279 C2291 0.950 . S
C2280 H2272 0.962 . S
C2280 C2281 1.373 1_545 S
C2280 C2282 1.392 . S
C2281 C2280 1.373 1_565 S
C2281 C2285 1.393 . S
C2282 H2274 0.950 . S
C2282 C2280 1.392 . S
C2282 C2283 1.400 1_545 S
C2283 C2282 1.400 1_565 S
C2283 C2284 1.398 . S
C2283 C2289 1.491 . S
C2284 H2275 0.950 . S
C2284 C2283 1.398 . S
C2284 C2285 1.391 . S
C2285 H2273 0.950 . S
C2285 C2281 1.393 . S
C2285 C2284 1.391 . S
C2286 H2276 0.950 . S
C2286 C2287 1.386 . S
C2286 C2288 1.391 . S
C2287 C2286 1.386 . S
C2287 C2291 1.393 1_565 S
C2288 H2277 0.950 . S
C2288 C2286 1.391 . S
C2288 C2289 1.400 . S
C2289 C2283 1.491 . S
C2289 C2288 1.400 . S
C2289 C2290 1.398 1_565 S
C2290 H2278 0.950 . S
C2290 C2289 1.398 1_545 S
C2290 C2291 1.391 . S
C2291 H2279 0.950 . S
C2291 C2287 1.393 1_545 S
C2291 C2290 1.391 . S
H2292 C2300 0.950 1_545 S
H2293 C2305 0.950 . S
H2294 C2302 0.914 1_545 S
H2295 C2304 0.950 . S
H2296 C2306 0.950 . S
H2297 C2308 0.950 . S
H2298 C2310 0.950 . S
H2299 C2311 0.950 . S
C2300 H2292 0.950 1_565 S
C2300 C2301 1.386 . S
C2300 C2302 1.396 . S
C2301 C2300 1.386 . S
C2301 C2305 1.393 . S
C2302 H2294 0.914 1_565 S
C2302 C2300 1.396 . S
C2302 C2303 1.433 . S
C2303 C2302 1.433 . S
C2303 C2304 1.398 . S
C2303 C2309 1.491 . S
C2304 H2295 0.950 . S
C2304 C2303 1.398 . S
C2304 C2305 1.391 . S
C2305 H2293 0.950 . S
C2305 C2301 1.393 . S
C2305 C2304 1.391 . S
C2306 H2296 0.950 . S
C2306 C2307 1.386 . S
C2306 C2308 1.391 . S
C2307 C2306 1.386 . S
C2307 C2311 1.393 1_565 S
C2308 H2297 0.950 . S
C2308 C2306 1.391 . S
C2308 C2309 1.400 . S
C2309 C2303 1.491 . S
C2309 C2308 1.400 . S
C2309 C2310 1.398 1_565 S
C2310 H2298 0.950 . S
C2310 C2309 1.398 1_545 S
C2310 C2311 1.391 . S
C2311 H2299 0.950 . S
C2311 C2307 1.393 1_545 S
C2311 C2310 1.391 . S
H2312 C2320 0.950 . S
H2313 C2325 0.950 . S
H2314 C2322 0.950 . S
H2315 C2324 0.950 . S
H2316 C2326 0.950 . S
H2317 C2328 0.950 . S
H2318 C2330 0.950 . S
H2319 C2331 0.950 . S
C2320 H2312 0.950 . S
C2320 C2321 1.386 . S
C2320 C2322 1.391 . S
C2321 C2320 1.386 . S
C2321 C2325 1.393 . S
C2322 H2314 0.950 . S
C2322 C2320 1.391 . S
C2322 C2323 1.400 . S
C2323 C2322 1.400 . S
C2323 C2324 1.398 . S
C2323 C2329 1.491 . S
C2324 H2315 0.950 . S
C2324 C2323 1.398 . S
C2324 C2325 1.391 . S
C2325 H2313 0.950 . S
C2325 C2321 1.393 . S
C2325 C2324 1.391 . S
C2326 H2316 0.950 . S
C2326 C2327 1.386 . S
C2326 C2328 1.391 . S
C2327 C2326 1.386 . S
C2327 C2331 1.393 . S
C2328 H2317 0.950 . S
C2328 C2326 1.391 . S
C2328 C2329 1.400 . S
C2329 C2323 1.491 . S
C2329 C2328 1.400 . S
C2329 C2330 1.398 . S
C2330 H2318 0.950 . S
C2330 C2329 1.398 . S
C2330 C2331 1.391 . S
C2331 H2319 0.950 . S
C2331 C2327 1.393 . S
C2331 C2330 1.391 . S
H2332 C2340 0.950 . S
H2333 C2345 0.950 . S
H2334 C2342 0.950 . S
H2335 C2344 0.950 . S
H2336 C2346 0.950 . S
H2337 C2348 0.950 . S
H2338 C2350 0.950 . S
H2339 C2351 0.950 . S
C2340 H2332 0.950 . S
C2340 C2341 1.386 . S
C2340 C2342 1.391 . S
C2341 C2340 1.386 . S
C2341 C2345 1.393 . S
C2342 H2334 0.950 . S
C2342 C2340 1.391 . S
C2342 C2343 1.400 . S
C2343 C2342 1.400 . S
C2343 C2344 1.398 . S
C2343 C2349 1.491 . S
C2344 H2335 0.950 . S
C2344 C2343 1.398 . S
C2344 C2345 1.391 . S
C2345 H2333 0.950 . S
C2345 C2341 1.393 . S
C2345 C2344 1.391 . S
C2346 H2336 0.950 . S
C2346 C2347 1.386 . S
C2346 C2348 1.391 . S
C2347 C2346 1.386 . S
C2347 C2351 1.393 . S
C2348 H2337 0.950 . S
C2348 C2346 1.391 . S
C2348 C2349 1.400 . S
C2349 C2343 1.491 . S
C2349 C2348 1.400 . S
C2349 C2350 1.398 . S
C2350 H2338 0.950 . S
C2350 C2349 1.398 . S
C2350 C2351 1.391 . S
C2351 H2339 0.950 . S
C2351 C2347 1.393 . S
C2351 C2350 1.391 . S
H2352 C2360 0.950 . S
H2353 C2365 0.950 . S
H2354 C2362 0.950 . S
H2355 C2364 0.950 . S
H2356 C2366 0.950 . S
H2357 C2368 0.950 . S
H2358 C2370 0.950 . S
H2359 C2371 0.950 . S
C2360 H2352 0.950 . S
C2360 C2361 1.386 . S
C2360 C2362 1.391 . S
C2361 C2360 1.386 . S
C2361 C2365 1.393 1_556 S
C2362 H2354 0.950 . S
C2362 C2360 1.391 . S
C2362 C2363 1.400 . S
C2363 C2362 1.400 . S
C2363 C2364 1.398 1_556 S
C2363 C2369 1.491 . S
C2364 H2355 0.950 . S
C2364 C2363 1.398 1_554 S
C2364 C2365 1.391 . S
C2365 H2353 0.950 . S
C2365 C2361 1.393 1_554 S
C2365 C2364 1.391 . S
C2366 H2356 0.950 . S
C2366 C2367 1.386 1_554 S
C2366 C2368 1.391 . S
C2367 C2366 1.386 1_556 S
C2367 C2371 1.393 . S
C2368 H2357 0.950 . S
C2368 C2366 1.391 . S
C2368 C2369 1.400 1_554 S
C2369 C2363 1.491 . S
C2369 C2368 1.400 1_556 S
C2369 C2370 1.398 . S
C2370 H2358 0.950 . S
C2370 C2369 1.398 . S
C2370 C2371 1.391 . S
C2371 H2359 0.950 . S
C2371 C2367 1.393 . S
C2371 C2370 1.391 . S
H2372 C2380 0.950 . S
H2373 C2385 0.950 . S
H2374 C2382 0.950 . S
H2375 C2384 0.950 . S
H2376 C2386 0.950 . S
H2377 C2388 0.950 . S
H2378 C2390 0.950 . S
H2379 C2391 0.950 . S
C2380 H2372 0.950 . S
C2380 C2381 1.386 . S
C2380 C2382 1.391 . S
C2381 C2380 1.386 . S
C2381 C2385 1.393 . S
C2382 H2374 0.950 . S
C2382 C2380 1.391 . S
C2382 C2383 1.400 . S
C2383 C2382 1.400 . S
C2383 C2384 1.398 . S
C2383 C2389 1.491 . S
C2384 H2375 0.950 . S
C2384 C2383 1.398 . S
C2384 C2385 1.391 . S
C2385 H2373 0.950 . S
C2385 C2381 1.393 . S
C2385 C2384 1.391 . S
C2386 H2376 0.950 . S
C2386 C2387 1.386 . S
C2386 C2388 1.391 . S
C2387 C2386 1.386 . S
C2387 C2391 1.393 . S
C2388 H2377 0.950 . S
C2388 C2386 1.391 . S
C2388 C2389 1.400 . S
C2389 C2383 1.491 . S
C2389 C2388 1.400 . S
C2389 C2390 1.398 . S
C2390 H2378 0.950 . S
C2390 C2389 1.398 . S
C2390 C2391 1.391 . S
C2391 H2379 0.950 . S
C2391 C2387 1.393 . S
C2391 C2390 1.391 . S
H2392 C2400 0.950 . S
H2393 C2405 0.950 . S
H2394 C2402 0.950 . S
H2395 C2404 0.950 . S
H2396 C2406 0.950 . S
H2397 C2408 0.950 . S
H2398 C2410 0.950 . S
H2399 C2411 0.950 . S
C2400 H2392 0.950 . S
C2400 C2401 1.386 . S
C2400 C2402 1.391 . S
C2401 C2400 1.386 . S
C2401 C2405 1.393 . S
C2402 H2394 0.950 . S
C2402 C2400 1.391 . S
C2402 C2403 1.400 . S
C2403 C2402 1.400 . S
C2403 C2404 1.398 . S
C2403 C2409 1.491 . S
C2404 H2395 0.950 . S
C2404 C2403 1.398 . S
C2404 C2405 1.391 . S
C2405 H2393 0.950 . S
C2405 C2401 1.393 . S
C2405 C2404 1.391 . S
C2406 H2396 0.950 . S
C2406 C2407 1.386 . S
C2406 C2408 1.391 . S
C2407 C2406 1.386 . S
C2407 C2411 1.393 . S
C2408 H2397 0.950 . S
C2408 C2406 1.391 . S
C2408 C2409 1.400 . S
C2409 C2403 1.491 . S
C2409 C2408 1.400 . S
C2409 C2410 1.398 . S
C2410 H2398 0.950 . S
C2410 C2409 1.398 . S
C2410 C2411 1.391 . S
C2411 H2399 0.950 . S
C2411 C2407 1.393 . S
C2411 C2410 1.391 . S
H2412 C2420 0.950 . S
H2413 C2425 0.950 . S
H2414 C2422 0.950 . S
H2415 C2424 0.950 . S
H2416 C2426 0.950 . S
H2417 C2428 0.950 . S
H2418 C2430 0.950 . S
H2419 C2431 0.950 . S
C2420 H2412 0.950 . S
C2420 C2421 1.386 . S
C2420 C2422 1.391 . S
C2421 C2420 1.386 . S
C2421 C2425 1.393 . S
C2422 H2414 0.950 . S
C2422 C2420 1.391 . S
C2422 C2423 1.400 . S
C2423 C2422 1.400 . S
C2423 C2424 1.398 . S
C2423 C2429 1.491 . S
C2424 H2415 0.950 . S
C2424 C2423 1.398 . S
C2424 C2425 1.391 . S
C2425 H2413 0.950 . S
C2425 C2421 1.393 . S
C2425 C2424 1.391 . S
C2426 H2416 0.950 . S
C2426 C2427 1.386 . S
C2426 C2428 1.391 . S
C2427 C2426 1.386 . S
C2427 C2431 1.393 . S
C2428 H2417 0.950 . S
C2428 C2426 1.391 . S
C2428 C2429 1.400 . S
C2429 C2423 1.491 . S
C2429 C2428 1.400 . S
C2429 C2430 1.398 . S
C2430 H2418 0.950 . S
C2430 C2429 1.398 . S
C2430 C2431 1.391 . S
C2431 H2419 0.950 . S
C2431 C2427 1.393 . S
C2431 C2430 1.391 . S
H2432 C2440 0.950 . S
H2433 C2445 0.950 . S
H2434 C2442 0.950 . S
H2435 C2444 0.950 . S
H2436 C2446 0.950 . S
H2437 C2448 0.950 . S
H2438 C2450 0.950 . S
H2439 C2451 0.950 . S
C2440 H2432 0.950 . S
C2440 C2441 1.386 . S
C2440 C2442 1.391 . S
C2441 C2440 1.386 . S
C2441 C2445 1.393 . S
C2442 H2434 0.950 . S
C2442 C2440 1.391 . S
C2442 C2443 1.400 . S
C2443 C2442 1.400 . S
C2443 C2444 1.398 . S
C2443 C2449 1.491 . S
C2444 H2435 0.950 . S
C2444 C2443 1.398 . S
C2444 C2445 1.391 . S
C2445 H2433 0.950 . S
C2445 C2441 1.393 . S
C2445 C2444 1.391 . S
C2446 H2436 0.950 . S
C2446 C2447 1.386 . S
C2446 C2448 1.391 . S
C2447 C2446 1.386 . S
C2447 C2451 1.393 . S
C2448 H2437 0.950 . S
C2448 C2446 1.391 . S
C2448 C2449 1.400 . S
C2449 C2443 1.491 . S
C2449 C2448 1.400 . S
C2449 C2450 1.398 . S
C2450 H2438 0.950 . S
C2450 C2449 1.398 . S
C2450 C2451 1.391 . S
C2451 H2439 0.950 . S
C2451 C2447 1.393 . S
C2451 C2450 1.391 . S
H2452 C2460 0.950 . S
H2453 C2465 0.950 . S
H2454 C2462 0.950 . S
H2455 C2464 0.950 . S
H2456 C2466 0.950 . S
H2457 C2468 0.950 . S
H2458 C2470 0.950 . S
H2459 C2471 0.950 . S
C2460 H2452 0.950 . S
C2460 C2461 1.386 . S
C2460 C2462 1.391 . S
C2461 C2460 1.386 . S
C2461 C2465 1.393 . S
C2462 H2454 0.950 . S
C2462 C2460 1.391 . S
C2462 C2463 1.400 . S
C2463 C2462 1.400 . S
C2463 C2464 1.398 . S
C2463 C2469 1.491 . S
C2464 H2455 0.950 . S
C2464 C2463 1.398 . S
C2464 C2465 1.391 . S
C2465 H2453 0.950 . S
C2465 C2461 1.393 . S
C2465 C2464 1.391 . S
C2466 H2456 0.950 . S
C2466 C2467 1.386 . S
C2466 C2468 1.391 . S
C2467 C2466 1.386 . S
C2467 C2471 1.393 . S
C2468 H2457 0.950 . S
C2468 C2466 1.391 . S
C2468 C2469 1.400 . S
C2469 C2463 1.491 . S
C2469 C2468 1.400 . S
C2469 C2470 1.398 . S
C2470 H2458 0.950 . S
C2470 C2469 1.398 . S
C2470 C2471 1.391 . S
C2471 H2459 0.950 . S
C2471 C2467 1.393 . S
C2471 C2470 1.391 . S
H2472 C2480 0.950 . S
H2473 C2485 0.950 . S
H2474 C2482 0.950 . S
H2475 C2484 0.950 . S
H2476 C2486 0.950 . S
H2477 C2488 0.950 . S
H2478 C2490 0.950 . S
H2479 C2491 0.950 . S
C2480 H2472 0.950 . S
C2480 C2481 1.386 . S
C2480 C2482 1.391 . S
C2481 C2480 1.386 . S
C2481 C2485 1.393 . S
C2482 H2474 0.950 . S
C2482 C2480 1.391 . S
C2482 C2483 1.400 . S
C2483 C2482 1.400 . S
C2483 C2484 1.398 . S
C2483 C2489 1.491 . S
C2484 H2475 0.950 . S
C2484 C2483 1.398 . S
C2484 C2485 1.391 . S
C2485 H2473 0.950 . S
C2485 C2481 1.393 . S
C2485 C2484 1.391 . S
C2486 H2476 0.950 . S
C2486 C2487 1.386 . S
C2486 C2488 1.391 . S
C2487 C2486 1.386 . S
C2487 C2491 1.393 . S
C2488 H2477 0.950 . S
C2488 C2486 1.391 . S
C2488 C2489 1.400 . S
C2489 C2483 1.491 . S
C2489 C2488 1.400 . S
C2489 C2490 1.398 . S
C2490 H2478 0.950 . S
C2490 C2489 1.398 . S
C2490 C2491 1.391 . S
C2491 H2479 0.950 . S
C2491 C2487 1.393 . S
C2491 C2490 1.391 . S
H2492 C2500 0.950 . S
H2493 C2505 0.950 . S
H2494 C2502 0.950 . S
H2495 C2504 0.950 . S
H2496 C2506 0.950 . S
H2497 C2508 0.950 . S
H2498 C2510 0.950 . S
H2499 C2511 0.950 . S
C2500 H2492 0.950 . S
C2500 C2501 1.386 . S
C2500 C2502 1.391 . S
C2501 C2500 1.386 . S
C2501 C2505 1.393 . S
C2502 H2494 0.950 . S
C2502 C2500 1.391 . S
C2502 C2503 1.400 . S
C2503 C2502 1.400 . S
C2503 C2504 1.398 . S
C2503 C2509 1.491 . S
C2504 H2495 0.950 . S
C2504 C2503 1.398 . S
C2504 C2505 1.391 . S
C2505 H2493 0.950 . S
C2505 C2501 1.393 . S
C2505 C2504 1.391 . S
C2506 H2496 0.950 . S
C2506 C2507 1.386 . S
C2506 C2508 1.391 . S
C2507 C2506 1.386 . S
C2507 C2511 1.393 . S
C2508 H2497 0.950 . S
C2508 C2506 1.391 . S
C2508 C2509 1.400 . S
C2509 C2503 1.491 . S
C2509 C2508 1.400 . S
C2509 C2510 1.398 . S
C2510 H2498 0.950 . S
C2510 C2509 1.398 . S
C2510 C2511 1.391 . S
C2511 H2499 0.950 . S
C2511 C2507 1.393 . S
C2511 C2510 1.391 . S
H2512 C2520 0.950 . S
H2513 C2525 0.950 . S
H2514 C2522 0.950 . S
H2515 C2524 0.950 . S
H2516 C2526 0.950 . S
H2517 C2528 0.950 . S
H2518 C2530 0.950 . S
H2519 C2531 0.950 . S
C2520 H2512 0.950 . S
C2520 C2521 1.386 . S
C2520 C2522 1.391 . S
C2521 C2520 1.386 . S
C2521 C2525 1.393 . S
C2522 H2514 0.950 . S
C2522 C2520 1.391 . S
C2522 C2523 1.400 . S
C2523 C2522 1.400 . S
C2523 C2524 1.398 . S
C2523 C2529 1.491 . S
C2524 H2515 0.950 . S
C2524 C2523 1.398 . S
C2524 C2525 1.391 . S
C2525 H2513 0.950 . S
C2525 C2521 1.393 . S
C2525 C2524 1.391 . S
C2526 H2516 0.950 . S
C2526 C2527 1.386 . S
C2526 C2528 1.391 . S
C2527 C2526 1.386 . S
C2527 C2531 1.393 . S
C2528 H2517 0.950 . S
C2528 C2526 1.391 . S
C2528 C2529 1.400 . S
C2529 C2523 1.491 . S
C2529 C2528 1.400 . S
C2529 C2530 1.398 . S
C2530 H2518 0.950 . S
C2530 C2529 1.398 . S
C2530 C2531 1.391 . S
C2531 H2519 0.950 . S
C2531 C2527 1.393 . S
C2531 C2530 1.391 . S
H2532 C2540 0.950 . S
H2533 C2545 0.950 . S
H2534 C2542 0.950 . S
H2535 C2544 0.950 . S
H2536 C2546 0.950 . S
H2537 C2548 0.950 . S
H2538 C2550 0.950 . S
H2539 C2551 0.950 . S
C2540 H2532 0.950 . S
C2540 C2541 1.386 . S
C2540 C2542 1.391 . S
C2541 C2540 1.386 . S
C2541 C2545 1.393 . S
C2542 H2534 0.950 . S
C2542 C2540 1.391 . S
C2542 C2543 1.400 . S
C2543 C2542 1.400 . S
C2543 C2544 1.398 . S
C2543 C2549 1.491 . S
C2544 H2535 0.950 . S
C2544 C2543 1.398 . S
C2544 C2545 1.391 . S
C2545 H2533 0.950 . S
C2545 C2541 1.393 . S
C2545 C2544 1.391 . S
C2546 H2536 0.950 . S
C2546 C2547 1.386 . S
C2546 C2548 1.391 . S
C2547 C2546 1.386 . S
C2547 C2551 1.393 . S
C2548 H2537 0.950 . S
C2548 C2546 1.391 . S
C2548 C2549 1.400 . S
C2549 C2543 1.491 . S
C2549 C2548 1.400 . S
C2549 C2550 1.398 . S
C2550 H2538 0.950 . S
C2550 C2549 1.398 . S
C2550 C2551 1.391 . S
C2551 H2539 0.950 . S
C2551 C2547 1.393 . S
C2551 C2550 1.391 . S
H2552 C2560 0.950 . S
H2553 C2565 0.950 . S
H2554 C2562 0.950 . S
H2555 C2564 0.950 . S
H2556 C2566 0.950 . S
H2557 C2568 0.950 . S
H2558 C2570 0.950 . S
H2559 C2571 0.950 . S
C2560 H2552 0.950 . S
C2560 C2561 1.386 . S
C2560 C2562 1.391 . S
C2561 C2560 1.386 . S
C2561 C2565 1.393 . S
C2562 H2554 0.950 . S
C2562 C2560 1.391 . S
C2562 C2563 1.400 . S
C2563 C2562 1.400 . S
C2563 C2564 1.398 . S
C2563 C2569 1.491 . S
C2564 H2555 0.950 . S
C2564 C2563 1.398 . S
C2564 C2565 1.391 . S
C2565 H2553 0.950 . S
C2565 C2561 1.393 . S
C2565 C2564 1.391 . S
C2566 H2556 0.950 . S
C2566 C2567 1.386 . S
C2566 C2568 1.391 . S
C2567 C2566 1.386 . S
C2567 C2571 1.393 . S
C2568 H2557 0.950 . S
C2568 C2566 1.391 . S
C2568 C2569 1.400 . S
C2569 C2563 1.491 . S
C2569 C2568 1.400 . S
C2569 C2570 1.398 . S
C2570 H2558 0.950 . S
C2570 C2569 1.398 . S
C2570 C2571 1.391 . S
C2571 H2559 0.950 . S
C2571 C2567 1.393 . S
C2571 C2570 1.391 . S
H2572 C2580 0.950 . S
H2573 C2585 0.950 . S
H2574 C2582 0.950 . S
H2575 C2584 0.950 . S
H2576 C2586 0.950 . S
H2577 C2588 0.950 . S
H2578 C2590 0.950 . S
H2579 C2591 0.950 . S
C2580 H2572 0.950 . S
C2580 C2581 1.386 . S
C2580 C2582 1.391 . S
C2581 C2580 1.386 . S
C2581 C2585 1.393 . S
C2582 H2574 0.950 . S
C2582 C2580 1.391 . S
C2582 C2583 1.400 . S
C2583 C2582 1.400 . S
C2583 C2584 1.398 . S
C2583 C2589 1.491 . S
C2584 H2575 0.950 . S
C2584 C2583 1.398 . S
C2584 C2585 1.391 . S
C2585 H2573 0.950 . S
C2585 C2581 1.393 . S
C2585 C2584 1.391 . S
C2586 H2576 0.950 . S
C2586 C2587 1.386 . S
C2586 C2588 1.391 . S
C2587 C2586 1.386 . S
C2587 C2591 1.393 . S
C2588 H2577 0.950 . S
C2588 C2586 1.391 . S
C2588 C2589 1.400 . S
C2589 C2583 1.491 . S
C2589 C2588 1.400 . S
C2589 C2590 1.398 . S
C2590 H2578 0.950 . S
C2590 C2589 1.398 . S
C2590 C2591 1.391 . S
C2591 H2579 0.950 . S
C2591 C2587 1.393 . S
C2591 C2590 1.391 . S
C681 C7 0.729 . S
C687 C371 0.687 . S
C701 C385 0.819 . S
C707 C21 0.892 . S
C721 C35 0.902 . S
C727 C343 0.909 . S
C741 C357 0.991 . S
C747 C49 0.993 1_554 S
C761 C63 0.743 . S
C767 C427 0.784 . S
C781 C77 0.929 . S
C787 C441 0.859 . S
C801 C91 1.010 . S
C807 C399 0.962 . S
C821 C105 0.788 . S
C827 C413 0.721 . S
C841 C175 0.735 . S
C847 C119 0.651 . S
C861 C133 0.930 1_545 S
C867 C189 1.040 . S
C881 C203 0.736 . S
C887 C147 0.795 . S
C901 C161 0.791 . S
C907 C217 0.710 . S
C921 C609 0.743 . S
C927 C231 0.653 . S
C941 C637 0.733 . S
C947 C245 0.803 . S
C961 C315 0.987 . S
C967 C259 0.986 1_455 S
C981 C567 0.910 . S
C987 C273 0.938 . S
C1001 C665 0.766 . S
C1007 C287 0.752 . S
C1021 C581 1.007 . S
C1027 C301 0.967 . S
C1041 C329 0.931 . S
C1047 C623 0.860 . S
C1061 C455 0.948 . S
C1067 C511 0.893 . S
C1081 C525 0.838 . S
C1087 C469 0.848 . S
C1101 C483 0.990 . S
C1107 C539 0.988 . S
C1121 C553 0.931 . S
C1127 C497 0.874 . S
C1141 C595 0.857 . S
C1147 C651 0.867 . S
C1161 C8 0.746 . S
C1167 C106 0.789 . S
C1181 C64 0.809 . S
C1187 C22 0.811 . S
C1201 C36 0.737 . S
C1207 C78 0.731 . S
C1221 C50 0.785 . S
C1227 C92 0.816 . S
C1241 C288 0.789 1_545 S
C1247 C120 0.809 . S
C1261 C582 0.854 . S
C1267 C134 0.837 . S
C1281 C148 0.740 . S
C1287 C596 0.717 . S
C1301 C162 0.709 . S
C1307 C610 0.736 . S
C1321 C666 0.740 . S
C1327 C176 0.772 . S
C1341 C190 0.808 . S
C1347 C302 0.848 . S
C1361 C204 0.811 . S
C1367 C652 0.809 1_545 S
C1381 C218 0.768 . S
C1387 C232 0.733 . S
C1401 C246 0.713 . S
C1407 C470 0.737 . S
C1421 C260 0.774 . S
C1427 C484 0.765 . S
C1441 C498 0.730 . S
C1447 C274 0.738 . S
C1461 C316 0.847 . S
C1467 C540 0.867 . S
C1481 C512 0.801 . S
C1487 C330 0.764 . S
C1501 C442 0.734 . S
C1507 C344 0.734 . S
C1521 C358 0.770 . S
C1527 C400 0.800 . S
C1541 C414 0.747 . S
C1547 C372 0.714 . S
C1561 C386 0.754 . S
C1567 C428 0.722 . S
C1581 C456 0.822 . S
C1587 C624 0.817 . S
C1601 C638 0.801 . S
C1607 C526 0.819 . S
C1621 C568 0.740 . S
C1627 C554 0.778 . S
C1641 C9 1.636 . S
C1647 C415 1.627 . S
C1661 C429 1.686 . S
C1667 C23 1.656 . S
C1681 C37 1.643 . S
C1687 C443 1.648 . S
C1701 C51 1.658 . S
C1707 C401 1.659 . S
C1721 C387 1.656 . S
C1727 C65 1.634 . S
C1741 C79 1.663 . S
C1747 C345 1.683 . S
C1761 C359 1.652 . S
C1767 C93 1.659 . S
C1781 C107 1.638 . S
C1787 C373 1.653 . S
C1801 C667 1.640 . S
C1807 C121 1.614 . S
C1821 C135 1.667 . S
C1827 C303 1.650 . S
C1841 C149 1.671 . S
C1847 C653 1.672 . S
C1861 C233 1.634 . S
C1867 C163 1.634 . S
C1881 C177 1.646 . S
C1887 C289 1.654 . S
C1901 C191 1.658 . S
C1907 C583 1.642 . S
C1921 C597 1.647 . S
C1927 C205 1.652 . S
C1941 C611 1.656 . S
C1947 C219 1.635 . S
C1961 C527 1.654 . S
C1967 C247 1.695 . S
C1981 C541 1.645 . S
C1987 C261 1.668 . S
C2001 C555 1.649 . S
C2007 C275 1.642 . S
C2021 C317 1.646 . S
C2027 C485 1.654 . S
C2041 C457 1.680 . S
C2047 C331 1.675 . S
C2061 C471 1.660 . S
C2067 C639 1.632 . S
C2081 C499 1.681 . S
C2087 C569 1.673 . S
C2101 C625 1.643 . S
C2107 C513 1.648 . S
C2121 C6 1.568 . S
C2127 C314 1.592 . S
C2141 C20 1.636 . S
C2147 C566 1.619 . S
C2161 C328 1.632 . S
C2167 C34 1.636 . S
C2181 C636 1.572 . S
C2187 C48 1.564 . S
C2201 C258 1.553 . S
C2207 C62 1.560 . S
C2221 C272 1.660 . S
C2227 C76 1.659 . S
C2241 C90 1.632 . S
C2247 C622 1.618 . S
C2261 C104 1.579 . S
C2267 C244 1.561 . S
C2281 C188 1.573 . S
C2287 C118 1.564 . S
C2301 C132 1.553 . S
C2307 C202 1.556 . S
C2321 C216 1.563 . S
C2327 C146 1.538 . S
C2341 C174 1.617 . S
C2347 C160 1.616 . S
C2361 C230 1.590 . S
C2367 C356 1.593 . S
C2381 C426 1.539 . S
C2387 C286 1.542 . S
C2401 C384 1.645 . S
C2407 C300 1.657 . S
C2421 C342 1.624 . S
C2427 C650 1.619 . S
C2441 C664 1.611 . S
C2447 C370 1.612 . S
C2461 C594 1.618 . S
C2467 C398 1.634 . S
C2481 C608 1.637 . S
C2487 C412 1.623 . S
C2501 C580 1.622 . S
C2507 C440 1.627 . S
C2521 C524 1.640 . S
C2527 C454 1.614 . S
C2541 C538 1.644 . S
C2547 C468 1.616 . S
C2561 C482 1.629 . S
C2567 C552 1.633 . S
C2581 C496 1.659 . S
C2587 C510 1.649 . S
