# Generated by pormake.
# Topology sod, (4)-cn, num edge types: 1
# Building blocks:
#     Node 0, Type 0, BuildingBlock: NAHDIM_clean_sbu_0, # of connection points: 4
#     Node 1, Type 0, BuildingBlock: NAHDIM_clean_sbu_0, # of connection points: 4
#     Node 2, Type 0, BuildingBlock: NAHDIM_clean_sbu_0, # of connection points: 4
#     Node 3, Type 0, BuildingBlock: NAHDIM_clean_sbu_0, # of connection points: 4
#     Node 4, Type 0, BuildingBlock: NAHDIM_clean_sbu_0, # of connection points: 4
#     Node 5, Type 0, BuildingBlock: NAHDIM_clean_sbu_0, # of connection points: 4
#     Node 6, Type 0, BuildingBlock: NAHDIM_clean_sbu_0, # of connection points: 4
#     Node 7, Type 0, BuildingBlock: NAHDIM_clean_sbu_0, # of connection points: 4
#     Node 8, Type 0, BuildingBlock: NAHDIM_clean_sbu_0, # of connection points: 4
#     Node 9, Type 0, BuildingBlock: NAHDIM_clean_sbu_0, # of connection points: 4
#     Node 10, Type 0, BuildingBlock: NAHDIM_clean_sbu_0, # of connection points: 4
#     Node 11, Type 0, BuildingBlock: NAHDIM_clean_sbu_0, # of connection points: 4
#     Edge 12, Type (0, 0), BuildingBlock: AJUNOK_clean_linker_0, # of connection points: 2
#     Edge 13, Type (0, 0), BuildingBlock: AJUNOK_clean_linker_0, # of connection points: 2
#     Edge 14, Type (0, 0), BuildingBlock: AJUNOK_clean_linker_0, # of connection points: 2
#     Edge 15, Type (0, 0), BuildingBlock: AJUNOK_clean_linker_0, # of connection points: 2
#     Edge 16, Type (0, 0), BuildingBlock: AJUNOK_clean_linker_0, # of connection points: 2
#     Edge 17, Type (0, 0), BuildingBlock: AJUNOK_clean_linker_0, # of connection points: 2
#     Edge 18, Type (0, 0), BuildingBlock: AJUNOK_clean_linker_0, # of connection points: 2
#     Edge 19, Type (0, 0), BuildingBlock: AJUNOK_clean_linker_0, # of connection points: 2
#     Edge 20, Type (0, 0), BuildingBlock: AJUNOK_clean_linker_0, # of connection points: 2
#     Edge 21, Type (0, 0), BuildingBlock: AJUNOK_clean_linker_0, # of connection points: 2
#     Edge 22, Type (0, 0), BuildingBlock: AJUNOK_clean_linker_0, # of connection points: 2
#     Edge 23, Type (0, 0), BuildingBlock: AJUNOK_clean_linker_0, # of connection points: 2
#     Edge 24, Type (0, 0), BuildingBlock: AJUNOK_clean_linker_0, # of connection points: 2
#     Edge 25, Type (0, 0), BuildingBlock: AJUNOK_clean_linker_0, # of connection points: 2
#     Edge 26, Type (0, 0), BuildingBlock: AJUNOK_clean_linker_0, # of connection points: 2
#     Edge 27, Type (0, 0), BuildingBlock: AJUNOK_clean_linker_0, # of connection points: 2
#     Edge 28, Type (0, 0), BuildingBlock: AJUNOK_clean_linker_0, # of connection points: 2
#     Edge 29, Type (0, 0), BuildingBlock: AJUNOK_clean_linker_0, # of connection points: 2
#     Edge 30, Type (0, 0), BuildingBlock: AJUNOK_clean_linker_0, # of connection points: 2
#     Edge 31, Type (0, 0), BuildingBlock: AJUNOK_clean_linker_0, # of connection points: 2
#     Edge 32, Type (0, 0), BuildingBlock: AJUNOK_clean_linker_0, # of connection points: 2
#     Edge 33, Type (0, 0), BuildingBlock: AJUNOK_clean_linker_0, # of connection points: 2
#     Edge 34, Type (0, 0), BuildingBlock: AJUNOK_clean_linker_0, # of connection points: 2
#     Edge 35, Type (0, 0), BuildingBlock: AJUNOK_clean_linker_0, # of connection points: 2
# Relax obj value: 0.091
# Max RMSD: 0.132
# Mean RMSD: 0.128
data_MOF--net-sod--node1-NAHDIM_clean_sbu_0--edge1-AJUNOK_clean_linker_0
_symmetry_space_group_name_H-M    P1
_symmetry_Int_Tables_number       1
_symmetry_cell_setting            triclinic
loop_
_symmetry_equiv_pos_as_xyz
'x, y, z'
_cell_length_a     31.614893
_cell_length_b     31.561177
_cell_length_c     31.356552
_cell_angle_alpha  90.96973
_cell_angle_beta   91.279347
_cell_angle_gamma 94.352103
loop_
_atom_site_label
_atom_site_type_symbol
_atom_site_fract_x
_atom_site_fract_y
_atom_site_fract_z
_atom_type_partial_charge
C0 C 0.08064 0.19815 0.49198 0.0
O1 O 0.04589 0.1934 0.46813 0.0
O2 O 0.06244 0.32028 0.46404 0.0
Zn3 Zn 0.04722 0.27786 0.50903 0.0
O4 O 0.98926 0.2486 0.4965 0.0
C5 C 0.01585 0.33127 0.5735 0.0
O6 O 0.98262 0.32846 0.54743 0.0
O7 O 0.08957 0.23317 0.51201 0.0
C8 C 0.97071 0.22691 0.52532 0.0
O9 O 0.98874 0.22636 0.56344 0.0
C10 C 0.04561 0.31966 0.42688 0.0
O11 O 0.01801 0.28805 0.41549 0.0
O12 O 0.04775 0.31098 0.56435 0.0
C13 C 0.81941 0.93562 0.50603 0.0
O14 O 0.78244 0.923 0.52162 0.0
O15 O 0.74374 0.00894 0.5462 0.0
Zn16 Zn 0.78474 0.01898 0.49819 0.0
O17 O 0.81926 0.07438 0.50889 0.0
C18 C 0.72319 0.04414 0.43615 0.0
O19 O 0.71729 0.07318 0.46547 0.0
O20 O 0.82617 0.97398 0.49484 0.0
C21 C 0.83674 0.09687 0.48008 0.0
O22 O 0.83116 0.08455 0.43998 0.0
C23 C 0.73126 0.04091 0.56622 0.0
O24 O 0.7467 0.07911 0.556 0.0
O25 O 0.75136 0.01825 0.44278 0.0
C26 C 0.95822 0.82554 0.48798 0.0
O27 O 0.99074 0.83857 0.46495 0.0
O28 O 0.00996 0.7225 0.4518 0.0
Zn29 Zn 0.01144 0.75796 0.50579 0.0
O30 O 0.06353 0.79884 0.50713 0.0
C31 C 0.9784 0.69208 0.55719 0.0
O32 O 0.94895 0.69225 0.52698 0.0
O33 O 0.95966 0.7911 0.50811 0.0
C34 C 0.09858 0.79275 0.52581 0.0
O35 O 0.10204 0.7576 0.54701 0.0
C36 C 0.04311 0.70538 0.44036 0.0
O37 O 0.07793 0.71198 0.46389 0.0
O38 O 0.01046 0.7188 0.55556 0.0
C39 C 0.18978 0.05899 0.50911 0.0
O40 O 0.17462 0.02101 0.52026 0.0
O41 O 0.30641 0.01737 0.54768 0.0
Zn42 Zn 0.265 0.01475 0.49811 0.0
O43 O 0.22712 0.96054 0.49843 0.0
C44 C 0.32528 0.04951 0.44086 0.0
O45 O 0.32627 0.08002 0.47 0.0
O46 O 0.22865 0.06474 0.49955 0.0
C47 C 0.23655 0.9252 0.51335 0.0
O48 O 0.27513 0.92152 0.52852 0.0
C49 C 0.29832 0.00673 0.58568 0.0
O50 O 0.25933 0.99345 0.59519 0.0
O51 O 0.2996 0.01699 0.44516 0.0
C52 C 0.4567 0.05798 0.31337 0.0
O53 O 0.4838 0.09168 0.31329 0.0
O54 O 0.51746 0.07884 0.21654 0.0
Zn55 Zn 0.51696 0.02942 0.256 0.0
O56 O 0.56657 0.03763 0.29733 0.0
C57 C 0.49155 0.97264 0.18911 0.0
O58 O 0.46361 0.00126 0.18594 0.0
O59 O 0.4637 0.02622 0.28987 0.0
C60 C 0.60073 0.01908 0.29464 0.0
O61 O 0.60508 0.99254 0.26261 0.0
C62 C 0.54819 0.08389 0.19125 0.0
O63 O 0.57876 0.05799 0.19368 0.0
O64 O 0.51906 0.97665 0.21937 0.0
C65 C 0.13862 0.51821 0.21086 0.0
O66 O 0.15123 0.52927 0.24996 0.0
O67 O 0.06164 0.56731 0.28238 0.0
Zn68 Zn 0.05209 0.51583 0.24361 0.0
O69 O -0.00197 0.5197 0.20934 0.0
C70 C 0.07086 0.46344 0.31368 0.0
O71 O 0.09682 0.49683 0.32344 0.0
O72 O 0.09918 0.51194 0.20226 0.0
C73 C 0.96389 0.49714 0.21597 0.0
O74 O 0.96319 0.46934 0.24671 0.0
C75 C 0.02978 0.58091 0.30078 0.0
O76 O 0.99194 0.56228 0.29206 0.0
O77 O 0.04826 0.4637 0.2797 0.0
C78 C 0.59229 0.02796 0.68544 0.0
O79 O 0.57351 0.06271 0.69424 0.0
O80 O 0.53393 0.04383 0.77903 0.0
Zn81 Zn 0.52585 0.99459 0.73701 0.0
O82 O 0.47542 0.00106 0.69822 0.0
C83 C 0.54617 0.93437 0.79829 0.0
O84 O 0.57978 0.96146 0.80208 0.0
O85 O 0.57758 0.99315 0.701 0.0
C86 C 0.43732 0.99053 0.70798 0.0
O87 O 0.42971 0.97358 0.74529 0.0
C88 C 0.50973 0.07417 0.78063 0.0
O89 O 0.47798 0.07466 0.75298 0.0
O90 O 0.51772 0.94117 0.77055 0.0
C91 C 0.97059 0.56881 0.69368 0.0
O92 O 0.94459 0.5343 0.69152 0.0
O93 O 0.95411 0.52336 0.80608 0.0
Zn94 Zn 0.00185 0.52491 0.76471 0.0
O95 O -0.00151 0.47092 0.72949 0.0
C96 C 0.07723 0.50305 0.81188 0.0
O97 O 0.06236 0.46377 0.80324 0.0
O98 O -0.00206 0.57295 0.72406 0.0
C99 C 0.02892 0.46279 0.7057 0.0
O100 O 0.06348 0.48873 0.70655 0.0
C101 C 0.94624 0.48965 0.82701 0.0
O102 O 0.96853 0.45699 0.8195 0.0
O103 O 0.057 0.53348 0.79807 0.0
C104 C 0.36396 0.46519 -0.00455 0.0
O105 O 0.37747 0.50345 0.00924 0.0
O106 O 0.25027 0.50248 0.03837 0.0
Zn107 Zn 0.2863 0.50553 0.98657 0.0
O108 O 0.32219 0.56104 0.98537 0.0
C109 C 0.22234 0.53021 0.92916 0.0
O110 O 0.22637 0.56407 0.95428 0.0
O111 O 0.32498 0.45756 0.98509 0.0
C112 C 0.31626 0.5945 0.0068 0.0
O113 O 0.2826 0.5952 0.03054 0.0
C114 C 0.26269 0.50796 0.07699 0.0
O115 O 0.30333 0.5162 0.08581 0.0
O116 O 0.24616 0.50027 0.93593 0.0
C117 C 0.48036 0.33329 0.97211 0.0
O118 O 0.51451 0.34018 0.94938 0.0
O119 O 0.50929 0.21948 0.93374 0.0
Zn120 Zn 0.51906 0.25639 0.98646 0.0
O121 O 0.5752 0.29077 0.98437 0.0
C122 C 0.55103 0.20347 0.05173 0.0
O123 O 0.58651 0.2112 0.03127 0.0
O124 O 0.47378 0.29782 0.99036 0.0
C125 C 0.58638 0.31448 0.01643 0.0
O126 O 0.5622 0.31337 0.04999 0.0
C127 C 0.53915 0.19934 0.91888 0.0
O128 O 0.57666 0.2037 0.93802 0.0
O129 O 0.51772 0.21962 0.03831 0.0
C130 C 0.71247 0.58227 0.9932 0.0
O131 O 0.71106 0.55396 0.9619 0.0
O132 O 0.81463 0.53129 0.07368 0.0
Zn133 Zn 0.77202 0.52696 0.02493 0.0
O134 O 0.73193 0.47469 0.03052 0.0
C135 C 0.82881 0.49296 0.96739 0.0
O136 O 0.82951 0.46517 -0.00193 0.0
O137 O 0.73776 0.57807 0.02462 0.0
C138 C 0.71882 0.45098 -0.00092 0.0
O139 O 0.73189 0.4605 0.96069 0.0
C140 C 0.81718 0.50246 0.10121 0.0
O141 O 0.78932 0.46938 0.09954 0.0
O142 O 0.80512 0.52353 0.9711 0.0
C143 C 0.58951 0.71086 0.98918 0.0
O144 O 0.56291 0.7104 0.95633 0.0
O145 O 0.5445 0.80839 0.96042 0.0
Zn146 Zn 0.53544 0.77278 0.01261 0.0
O147 O 0.4832 0.7324 0.00442 0.0
C148 C 0.50538 0.84215 0.05732 0.0
O149 O 0.48552 0.84419 0.02025 0.0
O150 O 0.58494 0.73694 0.01976 0.0
C151 C 0.44979 0.73156 0.02624 0.0
O152 O 0.44711 0.75966 0.05724 0.0
C153 C 0.52025 0.80518 0.92746 0.0
O154 O 0.48787 0.77652 0.92635 0.0
O155 O 0.52993 0.81252 0.06294 0.0
C156 C 0.03682 0.35448 0.35639 0.0
C157 C 0.05462 0.35586 0.39797 0.0
C158 C 0.04272 0.38915 0.32925 0.0
C159 C 0.06672 0.42664 0.34252 0.0
H160 H 0.01773 0.32657 0.34472 0.0
H161 H 0.02801 0.38654 0.29768 0.0
S162 S 0.12043 0.44665 0.44832 0.0
N163 N 0.0977 0.398 0.45102 0.0
N164 N 0.10872 0.46296 0.40006 0.0
C165 C 0.08525 0.42829 0.38381 0.0
C166 C 0.07922 0.39299 0.41149 0.0
C167 C 0.65866 0.06278 0.39524 0.0
C168 C 0.69458 0.03916 0.39789 0.0
C169 C 0.6291 0.05651 0.3614 0.0
C170 C 0.63419 0.02645 0.32856 0.0
H171 H 0.65264 0.08574 0.42001 0.0
H172 H 0.60168 0.07511 0.36145 0.0
S173 S 0.72445 0.95839 0.31873 0.0
N174 N 0.7348 0.98594 0.36344 0.0
N175 N 0.67926 0.97422 0.29977 0.0
C176 C 0.67069 0.00352 0.33001 0.0
C177 C 0.70083 0.00984 0.36465 0.0
C178 C -0.00092 0.63388 0.34879 0.0
C179 C 0.03504 0.61505 0.33394 0.0
C180 C 0.00225 0.66384 0.38235 0.0
C181 C 0.0415 0.67604 0.40275 0.0
H182 H 0.96796 0.62503 0.33479 0.0
H183 H 0.97342 0.67676 0.39296 0.0
S184 S 0.1458 0.63774 0.37464 0.0
N185 N 0.11156 0.61201 0.34111 0.0
N186 N 0.11757 0.66823 0.4043 0.0
C187 C 0.07798 0.65834 0.38747 0.0
C188 C 0.07476 0.62792 0.35305 0.0
C189 C 0.38579 0.08726 0.40361 0.0
C190 C 0.35605 0.05188 0.40571 0.0
C191 C 0.41736 0.08931 0.37296 0.0
C192 C 0.42068 0.05605 0.34307 0.0
H193 H 0.38535 0.11341 0.42637 0.0
H194 H 0.43991 0.11694 0.37346 0.0
S195 S 0.34865 0.95762 0.33257 0.0
N196 N 0.33045 0.98373 0.37347 0.0
N197 N 0.38984 0.98759 0.31587 0.0
C198 C 0.3903 0.02104 0.34379 0.0
C199 C 0.35801 0.01897 0.37507 0.0
C200 C 0.00259 0.63421 0.6591 0.0
C201 C 0.97039 0.60087 0.65958 0.0
C202 C 0.00473 0.66359 0.62609 0.0
C203 C 0.97463 0.66105 0.59221 0.0
H204 H 0.02688 0.6374 0.68411 0.0
H205 H 0.03041 0.68836 0.62711 0.0
S206 S 0.88295 0.58059 0.57898 0.0
N207 N 0.90699 0.56768 0.62363 0.0
N208 N 0.91091 0.62287 0.5617 0.0
C209 C 0.94178 0.6283 0.59262 0.0
C210 C 0.93968 0.59825 0.62622 0.0
C211 C 0.36072 0.97929 0.68516 0.0
C212 C 0.40197 -0.00295 0.6774 0.0
C213 C 0.32714 0.9835 0.65591 0.0
C214 C 0.33348 0.00564 0.61771 0.0
H215 H 0.35434 0.96126 0.71371 0.0
H216 H 0.29623 0.96841 0.66293 0.0
S217 S 0.4346 0.06147 0.58389 0.0
N218 N 0.44661 0.04003 0.62979 0.0
N219 N 0.38369 0.04794 0.57501 0.0
C220 C 0.37429 0.02472 0.61017 0.0
C221 C 0.40846 0.02043 0.63992 0.0
C222 C 0.05787 0.3787 0.62606 0.0
C223 C 0.01812 0.36153 0.61019 0.0
C224 C 0.06101 0.41079 0.65763 0.0
C225 C 0.02454 0.42643 0.67507 0.0
H226 H 0.08689 0.36841 0.61294 0.0
H227 H 0.09232 0.42382 0.668 0.0
S228 S 0.91288 0.38974 0.64684 0.0
N229 N 0.94149 0.36092 0.61583 0.0
N230 N 0.94732 0.42079 0.67563 0.0
C231 C 0.98457 0.40829 0.66077 0.0
C232 C 0.98138 0.376 0.62818 0.0
C233 C 0.64662 0.06936 0.64325 0.0
C234 C 0.6291 0.02968 0.65676 0.0
C235 C 0.68012 0.07246 0.6148 0.0
C236 C 0.69752 0.03601 0.59835 0.0
H237 H 0.6342 0.09851 0.6544 0.0
H238 H 0.69192 0.10389 0.60514 0.0
S239 S 0.66443 0.92432 0.62489 0.0
N240 N 0.63269 0.95292 0.65257 0.0
N241 N 0.69563 0.95878 0.59887 0.0
C242 C 0.68093 -0.00397 0.61217 0.0
C243 C 0.64679 0.99287 0.64141 0.0
C244 C 0.40794 0.35689 0.98524 0.0
C245 C 0.45122 0.36722 0.97809 0.0
C246 C 0.3798 0.38876 0.99062 0.0
C247 C 0.39418 0.43205 0.99006 0.0
H248 H 0.39559 0.32395 0.98607 0.0
H249 H 0.34663 0.3794 -0.00436 0.0
S250 S 0.50491 0.47576 0.97375 0.0
N251 N 0.50729 0.42372 0.97131 0.0
N252 N 0.4547 0.48352 0.98217 0.0
C253 C 0.43753 0.44275 0.98352 0.0
C254 C 0.46598 0.41036 0.9773 0.0
C255 C 0.34498 0.6655 0.03608 0.0
C256 C 0.34924 0.63064 0.00832 0.0
C257 C 0.37725 0.69831 0.041 0.0
C258 C 0.4151 0.69774 0.01828 0.0
H259 H 0.31687 0.66714 0.05498 0.0
H260 H 0.37262 0.72401 0.06334 0.0
S261 S 0.44131 0.61479 0.93965 0.0
N262 N 0.3938 0.59849 0.95633 0.0
N263 N 0.45427 0.66002 0.96553 0.0
C264 C 0.4193 0.66371 0.98939 0.0
C265 C 0.38645 0.63024 0.98444 0.0
C266 C 0.64002 0.3566 0.97381 0.0
C267 C 0.62283 0.34667 0.01375 0.0
C268 C 0.6716 0.38975 0.9696 0.0
C269 C 0.68746 0.41427 0.00518 0.0
H270 H 0.62817 0.33949 0.94522 0.0
H271 H 0.68301 0.39665 0.93797 0.0
S272 S 0.65597 0.39844 0.11763 0.0
N273 N 0.62605 0.36208 0.09008 0.0
N274 N 0.68548 0.42428 0.0823 0.0
C275 C 0.67172 0.40358 0.04562 0.0
C276 C 0.63941 0.36986 0.04986 0.0
C277 C 0.65414 0.61913 0.95821 0.0
C278 C 0.6832 0.61692 0.9926 0.0
C279 C 0.6246 0.64995 0.95731 0.0
C280 C 0.62271 0.68001 0.99074 0.0
H281 H 0.6537 0.59652 0.93182 0.0
H282 H 0.6027 0.64972 0.93021 0.0
S283 S 0.69293 0.68939 0.08753 0.0
N284 N 0.70916 0.64855 0.06052 0.0
N285 N 0.65354 0.70653 0.05878 0.0
C286 C 0.65209 0.67881 0.02505 0.0
C287 C 0.68232 0.6473 0.02597 0.0
C288 C 0.56301 0.86495 0.89378 0.0
C289 C 0.52728 0.83546 0.89211 0.0
C290 C 0.56932 0.89589 0.86265 0.0
C291 C 0.54012 0.89885 0.82852 0.0
H292 H 0.58615 0.86472 0.91977 0.0
H293 H 0.59697 0.91824 0.86606 0.0
S294 S 0.44265 0.82752 0.80759 0.0
N295 N 0.46325 0.80983 0.8521 0.0
N296 N 0.47508 0.8681 0.79362 0.0
C297 C 0.50486 0.86876 0.82562 0.0
C298 C 0.49847 0.83706 0.85736 0.0
C299 C 0.17497 0.48435 0.87947 0.0
C300 C 0.18759 0.525 0.89652 0.0
C301 C 0.13978 0.47778 0.85155 0.0
C302 C 0.11595 0.51163 0.83924 0.0
H303 H 0.19162 0.45704 0.88865 0.0
H304 H 0.1309 0.44571 0.84008 0.0
S305 S 0.13796 0.62499 0.87215 0.0
N306 N 0.17501 0.60009 0.89714 0.0
N307 N 0.10906 0.58789 0.84454 0.0
C308 C 0.12918 0.55276 0.85483 0.0
C309 C 0.1649 0.55939 0.8835 0.0
C310 C 0.5545 0.11017 0.83934 0.0
C311 C 0.51688 0.10778 0.81425 0.0
C312 C 0.56166 0.1404 0.87241 0.0
C313 C 0.53137 0.16933 0.88211 0.0
H314 H 0.57869 0.08835 0.83362 0.0
H315 H 0.59098 0.14047 0.89099 0.0
S316 S 0.42808 0.17754 0.82521 0.0
N317 N 0.44933 0.13792 0.80068 0.0
N318 N 0.46272 0.19458 0.863 0.0
C319 C 0.49384 0.16781 0.85689 0.0
C320 C 0.48665 0.13714 0.82294 0.0
C321 C 0.89121 0.5239 0.8691 0.0
C322 C 0.91443 0.48835 0.86123 0.0
C323 C 0.8629 0.52469 0.90281 0.0
C324 C 0.85677 0.49003 0.93024 0.0
H325 H 0.89532 0.55178 0.84947 0.0
H326 H 0.84643 0.55314 0.90789 0.0
S327 S 0.90751 0.38795 0.9218 0.0
N328 N 0.92761 0.41658 0.88253 0.0
N329 N 0.87458 0.41815 0.94586 0.0
C330 C 0.87886 0.45378 0.92208 0.0
C331 C 0.90759 0.4529 0.88761 0.0
C332 C 0.58423 0.12287 0.13187 0.0
C333 C 0.54853 0.11644 0.15765 0.0
C334 C 0.58489 0.15155 0.09829 0.0
C335 C 0.54978 0.17489 0.08884 0.0
H336 H 0.61192 0.10529 0.13729 0.0
H337 H 0.61302 0.15481 0.07917 0.0
S338 S 0.44899 0.17134 0.14781 0.0
N339 N 0.47752 0.13702 0.17232 0.0
N340 N 0.47873 0.19084 0.1091 0.0
C341 C 0.5141 0.16946 0.11486 0.0
C342 C 0.5135 0.14032 0.14927 0.0
C343 C 0.89129 0.47022 0.18985 0.0
C344 C 0.92576 0.50103 0.18832 0.0
C345 C 0.85592 0.47161 0.16233 0.0
C346 C 0.85342 0.504 0.13227 0.0
H347 H 0.89191 0.44415 0.21184 0.0
H348 H 0.83068 0.44657 0.16425 0.0
S349 S 0.93384 0.59441 0.11756 0.0
N350 N 0.95414 0.56639 0.15584 0.0
N351 N 0.88774 0.56909 0.10425 0.0
C352 C 0.88706 0.5359 0.13138 0.0
C353 C 0.92319 0.53438 0.15931 0.0
C354 C 0.52658 0.87663 0.12806 0.0
C355 C 0.4998 0.87429 0.09147 0.0
C356 C 0.52322 0.90802 0.15977 0.0
C357 C 0.4928 0.93822 0.15633 0.0
H358 H 0.55089 0.85453 0.13197 0.0
H359 H 0.54507 0.90884 0.18693 0.0
S360 S 0.41332 0.94446 0.06794 0.0
N361 N 0.44061 0.90396 0.05453 0.0
N362 N 0.43422 0.96267 0.11396 0.0
C363 C 0.46511 0.93558 0.12039 0.0
C364 C 0.46865 0.90374 0.08804 0.0
C365 C 0.24315 0.52299 0.15258 0.0
C366 C 0.23099 0.50806 0.11122 0.0
C367 C 0.21322 0.52572 0.1847 0.0
C368 C 0.16994 0.51362 0.17677 0.0
H369 H 0.27593 0.53341 0.16011 0.0
H370 H 0.22413 0.53801 0.21582 0.0
S371 S 0.12199 0.46943 0.07457 0.0
N372 N 0.17283 0.4789 0.06472 0.0
N373 N 0.11681 0.48404 0.12481 0.0
C374 C 0.15751 0.49762 0.13579 0.0
C375 C 0.18795 0.49484 0.10314 0.0
C376 C 0.89051 0.91939 0.47959 0.0
C377 C 0.85341 0.906 0.50121 0.0
C378 C 0.92372 0.89291 0.475 0.0
C379 C 0.9215 0.85189 0.49203 0.0
H380 H 0.89417 0.95078 0.46604 0.0
H381 H 0.95159 0.90508 0.45835 0.0
S382 S 0.83098 0.80086 0.55076 0.0
N383 N 0.8161 0.84844 0.53923 0.0
N384 N 0.87863 0.79864 0.53074 0.0
C385 C 0.88442 0.83778 0.51339 0.0
C386 C 0.85039 0.86478 0.51792 0.0
C387 C 0.92383 0.18579 0.47148 0.0
C388 C 0.93287 0.19788 0.51433 0.0
C389 C 0.8916 0.15427 0.46057 0.0
C390 C 0.86698 0.1337 0.49204 0.0
H391 H 0.94289 0.1995 0.44617 0.0
H392 H 0.887 0.14505 0.42726 0.0
S393 S 0.87404 0.15815 0.6085 0.0
N394 N 0.91191 0.18992 0.58805 0.0
N395 N 0.85113 0.13097 0.56771 0.0
C396 C 0.87409 0.1473 0.53485 0.0
C397 C 0.90708 0.17927 0.54594 0.0
C398 C 0.12907 0.86349 0.50198 0.0
C399 C 0.13496 0.82516 0.52283 0.0
C400 C 0.16225 0.89506 0.49865 0.0
C401 C 0.20296 0.88983 0.51592 0.0
H402 H 0.09841 0.86951 0.48824 0.0
H403 H 0.15561 0.92402 0.48255 0.0
S404 S 0.23568 0.79493 0.57287 0.0
N405 N 0.18506 0.78335 0.56044 0.0
N406 N 0.24755 0.84284 0.55415 0.0
C407 C 0.2096 0.85146 0.53645 0.0
C408 C 0.1756 0.81917 0.53994 0.0
C409 C 0.15181 0.17026 0.50459 0.0
C410 C 0.10792 0.16245 0.49678 0.0
C411 C 0.17818 0.13663 0.50841 0.0
C412 C 0.1614 0.09404 0.50558 0.0
H413 H 0.16601 0.20257 0.50706 0.0
H414 H 0.2119 0.14407 0.51393 0.0
S415 S 0.04811 0.05679 0.48698 0.0
N416 N 0.04867 0.10912 0.48712 0.0
N417 N 0.09791 0.04603 0.49509 0.0
C418 C 0.1174 0.08589 0.4985 0.0
C419 C 0.09075 0.12007 0.49386 0.0
loop_
_geom_bond_atom_site_label_1
_geom_bond_atom_site_label_2
_geom_bond_distance
_geom_bond_site_symmetry_2
_ccdc_geom_bond_type
C0 O1 1.160 . S
C0 O7 1.185 . S
O1 C0 1.160 . S
O2 Zn3 1.899 . S
O2 C10 1.284 . S
Zn3 O2 1.899 . S
Zn3 O4 2.032 1_455 S
Zn3 O7 2.086 . S
Zn3 O12 1.977 . S
O4 Zn3 2.032 1_655 S
O4 C8 1.278 . S
C5 O6 1.203 1_455 S
C5 O12 1.267 . S
O6 C5 1.203 1_655 S
O7 C0 1.185 . S
O7 Zn3 2.086 . S
C8 O4 1.278 . S
C8 O9 1.211 . S
O9 C8 1.211 . S
C10 O2 1.284 . S
C10 O11 1.273 1_455 S
O11 C10 1.273 1_655 S
O12 Zn3 1.977 . S
O12 C5 1.267 . S
C13 O14 1.160 . S
C13 O20 1.185 . S
O14 C13 1.160 . S
O15 Zn16 1.898 1_565 S
O15 C23 1.280 1_565 S
Zn16 O15 1.898 1_545 S
Zn16 O17 2.032 . S
Zn16 O20 2.086 1_545 S
Zn16 O25 1.977 . S
O17 Zn16 2.032 . S
O17 C21 1.278 . S
C18 O19 1.203 . S
C18 O25 1.267 . S
O19 C18 1.203 . S
O20 C13 1.185 . S
O20 Zn16 2.086 1_565 S
C21 O17 1.278 . S
C21 O22 1.211 . S
O22 C21 1.211 . S
C23 O15 1.280 1_545 S
C23 O24 1.273 . S
O24 C23 1.273 . S
O25 Zn16 1.977 . S
O25 C18 1.267 . S
C26 O27 1.160 . S
C26 O33 1.185 . S
O27 C26 1.160 . S
O28 Zn29 1.899 . S
O28 C36 1.284 . S
Zn29 O28 1.899 . S
Zn29 O30 2.032 . S
Zn29 O33 2.086 1_455 S
Zn29 O38 1.977 . S
O30 Zn29 2.032 . S
O30 C34 1.278 . S
C31 O32 1.203 . S
C31 O38 1.267 . S
O32 C31 1.203 . S
O33 C26 1.185 . S
O33 Zn29 2.086 1_655 S
C34 O30 1.278 . S
C34 O35 1.211 . S
O35 C34 1.211 . S
C36 O28 1.284 . S
C36 O37 1.273 . S
O37 C36 1.273 . S
O38 Zn29 1.977 . S
O38 C31 1.267 . S
C39 O40 1.160 . S
C39 O46 1.185 . S
O40 C39 1.160 . S
O41 Zn42 1.899 . S
O41 C49 1.284 . S
Zn42 O41 1.899 . S
Zn42 O43 2.032 1_545 S
Zn42 O46 2.086 . S
Zn42 O51 1.977 . S
O43 Zn42 2.032 1_565 S
O43 C47 1.278 . S
C44 O45 1.203 1_545 S
C44 O51 1.267 . S
O45 C44 1.203 1_565 S
O46 C39 1.185 . S
O46 Zn42 2.086 . S
C47 O43 1.278 . S
C47 O48 1.211 . S
O48 C47 1.211 . S
C49 O41 1.284 . S
C49 O50 1.273 1_545 S
O50 C49 1.273 1_565 S
O51 Zn42 1.977 . S
O51 C44 1.267 . S
C52 O53 1.160 . S
C52 O59 1.185 . S
O53 C52 1.160 . S
O54 Zn55 1.899 . S
O54 C62 1.284 . S
Zn55 O54 1.899 . S
Zn55 O56 2.032 . S
Zn55 O59 2.086 . S
Zn55 O64 1.977 1_545 S
O56 Zn55 2.032 . S
O56 C60 1.278 . S
C57 O58 1.203 . S
C57 O64 1.267 . S
O58 C57 1.203 . S
O59 C52 1.185 . S
O59 Zn55 2.086 . S
C60 O56 1.278 . S
C60 O61 1.214 . S
O61 C60 1.214 . S
C62 O54 1.284 . S
C62 O63 1.273 . S
O63 C62 1.273 . S
O64 Zn55 1.977 1_565 S
O64 C57 1.267 . S
C65 O66 1.160 . S
C65 O72 1.185 . S
O66 C65 1.160 . S
O67 Zn68 1.899 . S
O67 C75 1.284 . S
Zn68 O67 1.899 . S
Zn68 O69 2.032 . S
Zn68 O72 2.086 . S
Zn68 O77 1.977 . S
O69 Zn68 2.032 . S
O69 C73 1.278 1_455 S
C70 O71 1.203 . S
C70 O77 1.267 . S
O71 C70 1.203 . S
O72 C65 1.185 . S
O72 Zn68 2.086 . S
C73 O69 1.278 1_655 S
C73 O74 1.211 . S
O74 C73 1.211 . S
C75 O67 1.284 . S
C75 O76 1.273 1_455 S
O76 C75 1.273 1_655 S
O77 Zn68 1.977 . S
O77 C70 1.267 . S
C78 O79 1.160 . S
C78 O85 1.185 . S
O79 C78 1.160 . S
O80 Zn81 1.899 . S
O80 C88 1.284 . S
Zn81 O80 1.899 . S
Zn81 O82 2.032 . S
Zn81 O85 2.086 . S
Zn81 O90 1.977 1_545 S
O82 Zn81 2.032 . S
O82 C86 1.278 . S
C83 O84 1.203 . S
C83 O90 1.267 . S
O84 C83 1.203 . S
O85 C78 1.185 . S
O85 Zn81 2.086 . S
C86 O82 1.278 . S
C86 O87 1.211 1_545 S
O87 C86 1.211 1_565 S
C88 O80 1.284 . S
C88 O89 1.273 . S
O89 C88 1.273 . S
O90 Zn81 1.977 1_565 S
O90 C83 1.267 . S
C91 O92 1.160 1_455 S
C91 O98 1.185 . S
O92 C91 1.160 1_655 S
O93 Zn94 1.899 1_655 S
O93 C101 1.284 . S
Zn94 O93 1.899 1_455 S
Zn94 O95 2.032 . S
Zn94 O98 2.086 . S
Zn94 O103 1.977 . S
O95 Zn94 2.032 . S
O95 C99 1.278 . S
C96 O97 1.203 . S
C96 O103 1.267 . S
O97 C96 1.203 . S
O98 C91 1.185 . S
O98 Zn94 2.086 . S
C99 O95 1.278 . S
C99 O100 1.211 . S
O100 C99 1.211 . S
C101 O93 1.284 . S
C101 O102 1.273 . S
O102 C101 1.273 . S
O103 Zn94 1.977 . S
O103 C96 1.267 . S
C104 O105 1.160 . S
C104 O111 1.185 1_554 S
O105 C104 1.160 . S
O106 Zn107 1.899 . S
O106 C114 1.284 . S
Zn107 O106 1.899 . S
Zn107 O108 2.032 . S
Zn107 O111 2.086 1_554 S
Zn107 O116 1.977 1_554 S
O108 Zn107 2.032 . S
O108 C112 1.278 1_554 S
C109 O110 1.203 . S
C109 O116 1.267 . S
O110 C109 1.203 . S
O111 C104 1.185 1_556 S
O111 Zn107 2.086 1_556 S
C112 O108 1.278 1_556 S
C112 O113 1.211 . S
O113 C112 1.211 . S
C114 O106 1.284 . S
C114 O115 1.273 . S
O115 C114 1.273 . S
O116 Zn107 1.977 1_556 S
O116 C109 1.267 . S
C117 O118 1.160 . S
C117 O124 1.185 1_556 S
O118 C117 1.160 . S
O119 Zn120 1.899 1_556 S
O119 C127 1.284 . S
Zn120 O119 1.899 1_554 S
Zn120 O121 2.032 . S
Zn120 O124 2.086 . S
Zn120 O129 1.977 . S
O121 Zn120 2.032 . S
O121 C125 1.278 . S
C122 O123 1.203 . S
C122 O129 1.267 . S
O123 C122 1.203 . S
O124 C117 1.185 1_554 S
O124 Zn120 2.086 . S
C125 O121 1.278 . S
C125 O126 1.211 . S
O126 C125 1.211 . S
C127 O119 1.284 . S
C127 O128 1.273 . S
O128 C127 1.273 . S
O129 Zn120 1.977 . S
O129 C122 1.267 . S
C130 O131 1.160 . S
C130 O137 1.185 1_554 S
O131 C130 1.160 . S
O132 Zn133 1.899 . S
O132 C140 1.284 . S
Zn133 O132 1.899 . S
Zn133 O134 2.032 . S
Zn133 O137 2.086 1_554 S
Zn133 O142 1.977 1_554 S
O134 Zn133 2.032 . S
O134 C138 1.284 . S
C135 O136 1.203 . S
C135 O142 1.267 . S
O136 C135 1.203 . S
O137 C130 1.185 1_556 S
O137 Zn133 2.086 1_556 S
C138 O134 1.284 . S
C138 O139 1.201 1_554 S
O139 C138 1.201 1_556 S
C140 O132 1.284 . S
C140 O141 1.273 . S
O141 C140 1.273 . S
O142 Zn133 1.977 1_556 S
O142 C135 1.267 . S
C143 O144 1.160 . S
C143 O150 1.185 1_556 S
O144 C143 1.160 . S
O145 Zn146 1.899 1_556 S
O145 C153 1.284 . S
Zn146 O145 1.899 1_554 S
Zn146 O147 2.032 . S
Zn146 O150 2.086 . S
Zn146 O155 1.977 . S
O147 Zn146 2.032 . S
O147 C151 1.278 . S
C148 O149 1.203 . S
C148 O155 1.267 . S
O149 C148 1.203 . S
O150 C143 1.185 1_554 S
O150 Zn146 2.086 . S
C151 O147 1.278 . S
C151 O152 1.211 . S
O152 C151 1.211 . S
C153 O145 1.284 . S
C153 O154 1.273 . S
O154 C153 1.273 . S
O155 Zn146 1.977 . S
O155 C148 1.267 . S
C156 C157 1.369 . S
C156 C158 1.419 . S
C156 H160 0.930 . S
C157 C156 1.369 . S
C157 C166 1.429 . S
C158 C156 1.419 . S
C158 C159 1.363 . S
C158 H161 0.929 . S
C159 C158 1.363 . S
C159 C165 1.428 . S
H160 C156 0.930 . S
H161 C158 0.929 . S
S162 N163 1.611 1_655 S
S162 N164 1.610 . S
N163 S162 1.611 1_455 S
N163 C166 1.353 . S
N164 S162 1.610 . S
N164 C165 1.351 1_655 S
C165 C159 1.428 . S
C165 N164 1.351 1_455 S
C165 C166 1.434 . S
C166 C157 1.429 . S
C166 N163 1.353 . S
C166 C165 1.434 . S
C167 C168 1.369 . S
C167 C169 1.419 . S
C167 H171 0.930 . S
C168 C167 1.369 . S
C168 C177 1.429 . S
C169 C167 1.419 . S
C169 C170 1.363 . S
C169 H172 0.929 . S
C170 C169 1.363 . S
C170 C176 1.428 . S
H171 C167 0.930 . S
H172 C169 0.929 . S
S173 N174 1.613 . S
S173 N175 1.610 . S
N174 S173 1.613 . S
N174 C177 1.350 . S
N175 S173 1.610 . S
N175 C176 1.351 . S
C176 C170 1.428 . S
C176 N175 1.351 . S
C176 C177 1.434 . S
C177 C168 1.429 . S
C177 N174 1.350 . S
C177 C176 1.434 . S
C178 C179 1.369 . S
C178 C180 1.419 . S
C178 H182 0.930 . S
C179 C178 1.369 . S
C179 C188 1.429 . S
C180 C178 1.419 . S
C180 C181 1.363 . S
C180 H183 0.929 . S
C181 C180 1.363 . S
C181 C187 1.428 . S
H182 C178 0.930 . S
H183 C180 0.929 . S
S184 N185 1.613 . S
S184 N186 1.610 . S
N185 S184 1.613 . S
N185 C188 1.350 . S
N186 S184 1.610 . S
N186 C187 1.351 . S
C187 C181 1.428 . S
C187 N186 1.351 . S
C187 C188 1.434 . S
C188 C179 1.429 . S
C188 N185 1.350 . S
C188 C187 1.434 . S
C189 C190 1.369 . S
C189 C191 1.419 . S
C189 H193 0.930 . S
C190 C189 1.369 . S
C190 C199 1.429 . S
C191 C189 1.419 . S
C191 C192 1.363 . S
C191 H194 0.929 . S
C192 C191 1.363 . S
C192 C198 1.428 . S
H193 C189 0.930 . S
H194 C191 0.929 . S
S195 N196 1.613 . S
S195 N197 1.610 . S
N196 S195 1.613 . S
N196 C199 1.350 . S
N197 S195 1.610 . S
N197 C198 1.351 . S
C198 C192 1.428 . S
C198 N197 1.351 . S
C198 C199 1.434 . S
C199 C190 1.429 . S
C199 N196 1.350 . S
C199 C198 1.434 . S
C200 C201 1.369 . S
C200 C202 1.419 . S
C200 H204 0.930 . S
C201 C200 1.369 . S
C201 C210 1.429 . S
C202 C200 1.419 . S
C202 C203 1.363 . S
C202 H205 0.929 . S
C203 C202 1.363 . S
C203 C209 1.428 . S
H204 C200 0.930 . S
H205 C202 0.929 . S
S206 N207 1.613 . S
S206 N208 1.610 1_655 S
N207 S206 1.613 . S
N207 C210 1.350 1_655 S
N208 S206 1.610 1_455 S
N208 C209 1.351 . S
C209 C203 1.428 . S
C209 N208 1.351 . S
C209 C210 1.434 . S
C210 C201 1.429 . S
C210 N207 1.350 1_455 S
C210 C209 1.434 . S
C211 C212 1.369 1_565 S
C211 C213 1.419 . S
C211 H215 0.930 . S
C212 C211 1.369 1_545 S
C212 C221 1.429 . S
C213 C211 1.419 . S
C213 C214 1.363 1_565 S
C213 H216 0.929 . S
C214 C213 1.363 1_545 S
C214 C220 1.428 . S
H215 C211 0.930 . S
H216 C213 0.929 . S
S217 N218 1.613 . S
S217 N219 1.610 . S
N218 S217 1.613 . S
N218 C221 1.350 . S
N219 S217 1.610 . S
N219 C220 1.351 . S
C220 C214 1.428 . S
C220 N219 1.351 . S
C220 C221 1.434 . S
C221 C212 1.429 . S
C221 N218 1.350 . S
C221 C220 1.434 . S
C222 C223 1.369 . S
C222 C224 1.419 . S
C222 H226 0.930 . S
C223 C222 1.369 . S
C223 C232 1.429 1_455 S
C224 C222 1.419 . S
C224 C225 1.363 . S
C224 H227 0.929 . S
C225 C224 1.363 . S
C225 C231 1.428 1_455 S
H226 C222 0.930 . S
H227 C224 0.929 . S
S228 N229 1.613 . S
S228 N230 1.610 . S
N229 S228 1.613 . S
N229 C232 1.350 . S
N230 S228 1.610 . S
N230 C231 1.351 . S
C231 C225 1.428 1_655 S
C231 N230 1.351 . S
C231 C232 1.434 . S
C232 C223 1.429 1_655 S
C232 N229 1.350 . S
C232 C231 1.434 . S
C233 C234 1.369 . S
C233 C235 1.419 . S
C233 H237 0.930 . S
C234 C233 1.369 . S
C234 C243 1.429 . S
C235 C233 1.419 . S
C235 C236 1.363 . S
C235 H238 0.929 . S
C236 C235 1.363 . S
C236 C242 1.428 . S
H237 C233 0.930 . S
H238 C235 0.929 . S
S239 N240 1.613 . S
S239 N241 1.610 . S
N240 S239 1.613 . S
N240 C243 1.350 1_565 S
N241 S239 1.610 . S
N241 C242 1.351 1_565 S
C242 C236 1.428 . S
C242 N241 1.351 1_545 S
C242 C243 1.434 . S
C243 C234 1.429 . S
C243 N240 1.350 1_545 S
C243 C242 1.434 . S
C244 C245 1.369 1_556 S
C244 C246 1.419 . S
C244 H248 0.930 . S
C245 C244 1.369 1_554 S
C245 C254 1.429 . S
C246 C244 1.419 . S
C246 C247 1.363 1_556 S
C246 H249 0.929 . S
C247 C246 1.363 1_554 S
C247 C253 1.428 . S
H248 C244 0.930 . S
H249 C246 0.929 . S
S250 N251 1.613 . S
S250 N252 1.610 . S
N251 S250 1.613 . S
N251 C254 1.350 . S
N252 S250 1.610 . S
N252 C253 1.351 . S
C253 C247 1.428 . S
C253 N252 1.351 . S
C253 C254 1.434 . S
C254 C245 1.429 . S
C254 N251 1.350 . S
C254 C253 1.434 . S
C255 C256 1.369 . S
C255 C257 1.419 . S
C255 H259 0.930 . S
C256 C255 1.369 . S
C256 C265 1.429 . S
C257 C255 1.419 . S
C257 C258 1.363 . S
C257 H260 0.929 . S
C258 C257 1.363 . S
C258 C264 1.428 . S
H259 C255 0.930 . S
H260 C257 0.929 . S
S261 N262 1.613 . S
S261 N263 1.610 . S
N262 S261 1.613 . S
N262 C265 1.350 . S
N263 S261 1.610 . S
N263 C264 1.351 . S
C264 C258 1.428 . S
C264 N263 1.351 . S
C264 C265 1.434 . S
C265 C256 1.429 . S
C265 N262 1.350 . S
C265 C264 1.434 . S
C266 C267 1.369 1_556 S
C266 C268 1.419 . S
C266 H270 0.930 . S
C267 C266 1.369 1_554 S
C267 C276 1.429 . S
C268 C266 1.419 . S
C268 C269 1.363 1_556 S
C268 H271 0.929 . S
C269 C268 1.363 1_554 S
C269 C275 1.428 . S
H270 C266 0.930 . S
H271 C268 0.929 . S
S272 N273 1.613 . S
S272 N274 1.610 . S
N273 S272 1.613 . S
N273 C276 1.350 . S
N274 S272 1.610 . S
N274 C275 1.351 . S
C275 C269 1.428 . S
C275 N274 1.351 . S
C275 C276 1.434 . S
C276 C267 1.429 . S
C276 N273 1.350 . S
C276 C275 1.434 . S
C277 C278 1.369 . S
C277 C279 1.419 . S
C277 H281 0.930 . S
C278 C277 1.369 . S
C278 C287 1.429 . S
C279 C277 1.419 . S
C279 C280 1.363 . S
C279 H282 0.929 1_554 S
C280 C279 1.363 . S
C280 C286 1.428 . S
H281 C277 0.930 . S
H282 C279 0.929 1_556 S
S283 N284 1.613 . S
S283 N285 1.610 . S
N284 S283 1.613 . S
N284 C287 1.350 . S
N285 S283 1.610 . S
N285 C286 1.351 . S
C286 C280 1.428 . S
C286 N285 1.351 . S
C286 C287 1.434 . S
C287 C278 1.429 . S
C287 N284 1.350 . S
C287 C286 1.434 . S
C288 C289 1.369 . S
C288 C290 1.419 . S
C288 H292 0.930 . S
C289 C288 1.369 . S
C289 C298 1.429 . S
C290 C288 1.419 . S
C290 C291 1.363 . S
C290 H293 0.929 . S
C291 C290 1.363 . S
C291 C297 1.428 . S
H292 C288 0.930 . S
H293 C290 0.929 . S
S294 N295 1.613 . S
S294 N296 1.610 . S
N295 S294 1.613 . S
N295 C298 1.350 . S
N296 S294 1.610 . S
N296 C297 1.351 . S
C297 C291 1.428 . S
C297 N296 1.351 . S
C297 C298 1.434 . S
C298 C289 1.429 . S
C298 N295 1.350 . S
C298 C297 1.434 . S
C299 C300 1.369 . S
C299 C301 1.419 . S
C299 H303 0.930 . S
C300 C299 1.369 . S
C300 C309 1.429 . S
C301 C299 1.419 . S
C301 C302 1.363 . S
C301 H304 0.929 . S
C302 C301 1.363 . S
C302 C308 1.428 . S
H303 C299 0.930 . S
H304 C301 0.929 . S
S305 N306 1.613 . S
S305 N307 1.610 . S
N306 S305 1.613 . S
N306 C309 1.350 . S
N307 S305 1.610 . S
N307 C308 1.351 . S
C308 C302 1.428 . S
C308 N307 1.351 . S
C308 C309 1.434 . S
C309 C300 1.429 . S
C309 N306 1.350 . S
C309 C308 1.434 . S
C310 C311 1.369 . S
C310 C312 1.419 . S
C310 H314 0.930 . S
C311 C310 1.369 . S
C311 C320 1.429 . S
C312 C310 1.419 . S
C312 C313 1.363 . S
C312 H315 0.929 . S
C313 C312 1.363 . S
C313 C319 1.428 . S
H314 C310 0.930 . S
H315 C312 0.929 . S
S316 N317 1.613 . S
S316 N318 1.610 . S
N317 S316 1.613 . S
N317 C320 1.350 . S
N318 S316 1.610 . S
N318 C319 1.351 . S
C319 C313 1.428 . S
C319 N318 1.351 . S
C319 C320 1.434 . S
C320 C311 1.429 . S
C320 N317 1.350 . S
C320 C319 1.434 . S
C321 C322 1.369 . S
C321 C323 1.419 . S
C321 H325 0.930 . S
C322 C321 1.369 . S
C322 C331 1.429 . S
C323 C321 1.419 . S
C323 C324 1.363 . S
C323 H326 0.929 . S
C324 C323 1.363 . S
C324 C330 1.428 . S
H325 C321 0.930 . S
H326 C323 0.929 . S
S327 N328 1.613 . S
S327 N329 1.610 . S
N328 S327 1.613 . S
N328 C331 1.350 . S
N329 S327 1.610 . S
N329 C330 1.351 . S
C330 C324 1.428 . S
C330 N329 1.351 . S
C330 C331 1.434 . S
C331 C322 1.429 . S
C331 N328 1.350 . S
C331 C330 1.434 . S
C332 C333 1.369 . S
C332 C334 1.419 . S
C332 H336 0.930 . S
C333 C332 1.369 . S
C333 C342 1.429 . S
C334 C332 1.419 . S
C334 C335 1.363 . S
C334 H337 0.929 . S
C335 C334 1.363 . S
C335 C341 1.428 . S
H336 C332 0.930 . S
H337 C334 0.929 . S
S338 N339 1.613 . S
S338 N340 1.610 . S
N339 S338 1.613 . S
N339 C342 1.350 . S
N340 S338 1.610 . S
N340 C341 1.351 . S
C341 C335 1.428 . S
C341 N340 1.351 . S
C341 C342 1.434 . S
C342 C333 1.429 . S
C342 N339 1.350 . S
C342 C341 1.434 . S
C343 C344 1.369 . S
C343 C345 1.419 . S
C343 H347 0.930 . S
C344 C343 1.369 . S
C344 C353 1.429 . S
C345 C343 1.419 . S
C345 C346 1.363 . S
C345 H348 0.929 . S
C346 C345 1.363 . S
C346 C352 1.428 . S
H347 C343 0.930 . S
H348 C345 0.929 . S
S349 N350 1.613 . S
S349 N351 1.610 . S
N350 S349 1.613 . S
N350 C353 1.350 . S
N351 S349 1.610 . S
N351 C352 1.351 . S
C352 C346 1.428 . S
C352 N351 1.351 . S
C352 C353 1.434 . S
C353 C344 1.429 . S
C353 N350 1.350 . S
C353 C352 1.434 . S
C354 C355 1.369 . S
C354 C356 1.419 . S
C354 H358 0.930 . S
C355 C354 1.369 . S
C355 C364 1.429 . S
C356 C354 1.419 . S
C356 C357 1.363 . S
C356 H359 0.929 . S
C357 C356 1.363 . S
C357 C363 1.428 . S
H358 C354 0.930 . S
H359 C356 0.929 . S
S360 N361 1.613 . S
S360 N362 1.610 . S
N361 S360 1.613 . S
N361 C364 1.350 . S
N362 S360 1.610 . S
N362 C363 1.351 . S
C363 C357 1.428 . S
C363 N362 1.351 . S
C363 C364 1.434 . S
C364 C355 1.429 . S
C364 N361 1.350 . S
C364 C363 1.434 . S
C365 C366 1.369 . S
C365 C367 1.419 . S
C365 H369 0.930 . S
C366 C365 1.369 . S
C366 C375 1.429 . S
C367 C365 1.419 . S
C367 C368 1.363 . S
C367 H370 0.929 . S
C368 C367 1.363 . S
C368 C374 1.428 . S
H369 C365 0.930 . S
H370 C367 0.929 . S
S371 N372 1.613 . S
S371 N373 1.610 . S
N372 S371 1.613 . S
N372 C375 1.350 . S
N373 S371 1.610 . S
N373 C374 1.351 . S
C374 C368 1.428 . S
C374 N373 1.351 . S
C374 C375 1.434 . S
C375 C366 1.429 . S
C375 N372 1.350 . S
C375 C374 1.434 . S
C376 C377 1.369 . S
C376 C378 1.419 . S
C376 H380 0.930 . S
C377 C376 1.369 . S
C377 C386 1.429 . S
C378 C376 1.419 . S
C378 C379 1.363 . S
C378 H381 0.929 . S
C379 C378 1.363 . S
C379 C385 1.428 . S
H380 C376 0.930 . S
H381 C378 0.929 . S
S382 N383 1.613 . S
S382 N384 1.610 . S
N383 S382 1.613 . S
N383 C386 1.350 . S
N384 S382 1.610 . S
N384 C385 1.351 . S
C385 C379 1.428 . S
C385 N384 1.351 . S
C385 C386 1.434 . S
C386 C377 1.429 . S
C386 N383 1.350 . S
C386 C385 1.434 . S
C387 C388 1.369 . S
C387 C389 1.419 . S
C387 H391 0.930 . S
C388 C387 1.369 . S
C388 C397 1.429 . S
C389 C387 1.419 . S
C389 C390 1.363 . S
C389 H392 0.929 . S
C390 C389 1.363 . S
C390 C396 1.428 . S
H391 C387 0.930 . S
H392 C389 0.929 . S
S393 N394 1.613 . S
S393 N395 1.610 . S
N394 S393 1.613 . S
N394 C397 1.350 . S
N395 S393 1.610 . S
N395 C396 1.351 . S
C396 C390 1.428 . S
C396 N395 1.351 . S
C396 C397 1.434 . S
C397 C388 1.429 . S
C397 N394 1.350 . S
C397 C396 1.434 . S
C398 C399 1.369 . S
C398 C400 1.419 . S
C398 H402 0.930 . S
C399 C398 1.369 . S
C399 C408 1.429 . S
C400 C398 1.419 . S
C400 C401 1.363 . S
C400 H403 0.929 . S
C401 C400 1.363 . S
C401 C407 1.428 . S
H402 C398 0.930 . S
H403 C400 0.929 . S
S404 N405 1.613 . S
S404 N406 1.610 . S
N405 S404 1.613 . S
N405 C408 1.350 . S
N406 S404 1.610 . S
N406 C407 1.351 . S
C407 C401 1.428 . S
C407 N406 1.351 . S
C407 C408 1.434 . S
C408 C399 1.429 . S
C408 N405 1.350 . S
C408 C407 1.434 . S
C409 C410 1.369 . S
C409 C411 1.419 . S
C409 H413 0.930 . S
C410 C409 1.369 . S
C410 C419 1.429 . S
C411 C409 1.419 . S
C411 C412 1.363 . S
C411 H414 0.929 . S
C412 C411 1.363 . S
C412 C418 1.428 . S
H413 C409 0.930 . S
H414 C411 0.929 . S
S415 N416 1.613 . S
S415 N417 1.610 . S
N416 S415 1.613 . S
N416 C419 1.350 . S
N417 S415 1.610 . S
N417 C418 1.351 . S
C418 C412 1.428 . S
C418 N417 1.351 . S
C418 C419 1.434 . S
C419 C410 1.429 . S
C419 N416 1.350 . S
C419 C418 1.434 . S
C157 C10 1.467 . S
C159 C70 1.445 . S
C168 C18 1.268 . S
C170 C60 1.285 . S
C179 C75 1.420 . S
C181 C36 1.421 . S
C190 C44 1.339 . S
C192 C52 1.352 . S
C201 C91 1.317 . S
C203 C31 1.296 . S
C212 C86 1.436 . S
C214 C49 1.432 . S
C223 C5 1.277 . S
C225 C99 1.300 . S
C234 C78 1.439 . S
C236 C23 1.439 . S
C245 C117 1.421 1_554 S
C247 C104 1.418 . S
C256 C112 1.318 1_554 S
C258 C151 1.316 . S
C267 C125 1.375 . S
C269 C138 1.383 . S
C278 C130 1.444 . S
C280 C143 1.445 1_554 S
C289 C153 1.423 . S
C291 C83 1.409 . S
C300 C109 1.257 . S
C302 C96 1.270 . S
C311 C88 1.452 . S
C313 C127 1.457 . S
C322 C101 1.388 . S
C324 C135 1.376 . S
C333 C62 1.352 . S
C335 C122 1.339 . S
C344 C73 1.468 . S
C346 C140 1.466 . S
C355 C148 1.271 . S
C357 C57 1.274 . S
C366 C114 1.394 . S
C368 C65 1.399 . S
C377 C13 1.400 . S
C379 C26 1.408 . S
C388 C8 1.320 . S
C390 C21 1.323 . S
C399 C34 1.337 . S
C401 C47 1.341 . S
C410 C0 1.431 . S
C412 C39 1.434 . S
