# Generated by pormake.
# Topology ukh, (4)-cn, num edge types: 1
# Building blocks:
#     Node 0, Type 0, BuildingBlock: QUQFOY_clean_sbu_1, # of connection points: 4
#     Node 1, Type 0, BuildingBlock: QUQFOY_clean_sbu_1, # of connection points: 4
#     Node 2, Type 0, BuildingBlock: QUQFOY_clean_sbu_1, # of connection points: 4
#     Node 3, Type 0, BuildingBlock: QUQFOY_clean_sbu_1, # of connection points: 4
#     Node 4, Type 0, BuildingBlock: QUQFOY_clean_sbu_1, # of connection points: 4
#     Node 5, Type 0, BuildingBlock: QUQFOY_clean_sbu_1, # of connection points: 4
#     Node 6, Type 0, BuildingBlock: QUQFOY_clean_sbu_1, # of connection points: 4
#     Node 7, Type 0, BuildingBlock: QUQFOY_clean_sbu_1, # of connection points: 4
#     Node 8, Type 0, BuildingBlock: QUQFOY_clean_sbu_1, # of connection points: 4
#     Node 9, Type 0, BuildingBlock: QUQFOY_clean_sbu_1, # of connection points: 4
#     Node 10, Type 0, BuildingBlock: QUQFOY_clean_sbu_1, # of connection points: 4
#     Node 11, Type 0, BuildingBlock: QUQFOY_clean_sbu_1, # of connection points: 4
#     Edge 12, Type (0, 0), BuildingBlock: XIVTED_clean_linker_0, # of connection points: 2
#     Edge 13, Type (0, 0), BuildingBlock: XIVTED_clean_linker_0, # of connection points: 2
#     Edge 14, Type (0, 0), BuildingBlock: XIVTED_clean_linker_0, # of connection points: 2
#     Edge 15, Type (0, 0), BuildingBlock: XIVTED_clean_linker_0, # of connection points: 2
#     Edge 16, Type (0, 0), BuildingBlock: XIVTED_clean_linker_0, # of connection points: 2
#     Edge 17, Type (0, 0), BuildingBlock: XIVTED_clean_linker_0, # of connection points: 2
#     Edge 18, Type (0, 0), BuildingBlock: XIVTED_clean_linker_0, # of connection points: 2
#     Edge 19, Type (0, 0), BuildingBlock: XIVTED_clean_linker_0, # of connection points: 2
#     Edge 20, Type (0, 0), BuildingBlock: XIVTED_clean_linker_0, # of connection points: 2
#     Edge 21, Type (0, 0), BuildingBlock: XIVTED_clean_linker_0, # of connection points: 2
#     Edge 22, Type (0, 0), BuildingBlock: XIVTED_clean_linker_0, # of connection points: 2
#     Edge 23, Type (0, 0), BuildingBlock: XIVTED_clean_linker_0, # of connection points: 2
#     Edge 24, Type (0, 0), BuildingBlock: XIVTED_clean_linker_0, # of connection points: 2
#     Edge 25, Type (0, 0), BuildingBlock: XIVTED_clean_linker_0, # of connection points: 2
#     Edge 26, Type (0, 0), BuildingBlock: XIVTED_clean_linker_0, # of connection points: 2
#     Edge 27, Type (0, 0), BuildingBlock: XIVTED_clean_linker_0, # of connection points: 2
#     Edge 28, Type (0, 0), BuildingBlock: XIVTED_clean_linker_0, # of connection points: 2
#     Edge 29, Type (0, 0), BuildingBlock: XIVTED_clean_linker_0, # of connection points: 2
#     Edge 30, Type (0, 0), BuildingBlock: XIVTED_clean_linker_0, # of connection points: 2
#     Edge 31, Type (0, 0), BuildingBlock: XIVTED_clean_linker_0, # of connection points: 2
#     Edge 32, Type (0, 0), BuildingBlock: XIVTED_clean_linker_0, # of connection points: 2
#     Edge 33, Type (0, 0), BuildingBlock: XIVTED_clean_linker_0, # of connection points: 2
#     Edge 34, Type (0, 0), BuildingBlock: XIVTED_clean_linker_0, # of connection points: 2
#     Edge 35, Type (0, 0), BuildingBlock: XIVTED_clean_linker_0, # of connection points: 2
# Relax obj value: 0.059
# Max RMSD: 0.078
# Mean RMSD: 0.078
data_MOF--net-ukh--node1-QUQFOY_clean_sbu_1--edge1-XIVTED_clean_linker_0
_symmetry_space_group_name_H-M    P1
_symmetry_Int_Tables_number       1
_symmetry_cell_setting            triclinic
loop_
_symmetry_equiv_pos_as_xyz
'x, y, z'
_cell_length_a     33.346689
_cell_length_b     33.334653
_cell_length_c     66.886513
_cell_angle_alpha  90.028514
_cell_angle_beta   89.989359
_cell_angle_gamma 119.98439
loop_
_atom_site_label
_atom_site_type_symbol
_atom_site_fract_x
_atom_site_fract_y
_atom_site_fract_z
_atom_type_partial_charge
O0 O 0.32202 0.16157 0.04785 0.0
Cd1 Cd 0.31433 0.21131 0.06298 0.0
Cd2 Cd 0.36707 0.26094 0.03118 0.0
O3 O 0.37434 0.20376 0.02518 0.0
O4 O 0.28033 0.17631 0.08728 0.0
O5 O 0.35085 0.23684 0.08863 0.0
C6 C 0.31608 0.20347 0.09777 0.0
C7 C 0.42598 0.3381 0.03435 0.0
C8 C 0.3487 0.16486 0.03359 0.0
C9 C 0.27085 0.24491 0.03304 0.0
O10 O 0.30558 0.25492 0.02202 0.0
O11 O 0.2695 0.23118 0.05091 0.0
O12 O 0.41547 0.31738 0.01723 0.0
O13 O 0.40551 0.3137 0.05003 0.0
O14 O 0.17275 0.31667 0.38095 0.0
Cd15 Cd 0.11486 0.30901 0.39557 0.0
Cd16 Cd 0.11952 0.36185 0.36367 0.0
O17 O 0.18435 0.36951 0.3583 0.0
O18 O 0.11495 0.2746 0.41991 0.0
O19 O 0.12507 0.34518 0.42129 0.0
C20 C 0.12342 0.31028 0.43044 0.0
C21 C 0.10038 0.42017 0.36684 0.0
C22 C 0.19695 0.34352 0.36689 0.0
C23 C 0.0397 0.26545 0.36485 0.0
O24 O 0.06503 0.30027 0.35397 0.0
O25 O 0.05084 0.26418 0.38294 0.0
O26 O 0.11165 0.41045 0.34979 0.0
O27 O 0.10373 0.39926 0.3825 0.0
O28 O 0.86572 0.16342 0.71375 0.0
Cd29 Cd 0.81546 0.10741 0.72936 0.0
Cd30 Cd 0.76539 0.1118 0.69849 0.0
O31 O 0.82274 0.17608 0.69247 0.0
O32 O 0.8501 0.10813 0.75373 0.0
O33 O 0.79087 0.12027 0.75482 0.0
C34 C 0.82371 0.1181 0.76408 0.0
C35 C 0.68839 0.09399 0.7017 0.0
C36 C 0.86218 0.18778 0.69999 0.0
C37 C 0.77963 0.03043 0.6996 0.0
O38 O 0.77053 0.05612 0.68877 0.0
O39 O 0.79346 0.04213 0.7175 0.0
O40 O 0.70927 0.1047 0.68464 0.0
O41 O 0.7126 0.09729 0.71737 0.0
O42 O 0.70791 0.8638 0.04735 0.0
Cd43 Cd 0.72031 0.81749 0.06272 0.0
Cd44 Cd 0.66718 0.76429 0.03122 0.0
O45 O 0.65819 0.81999 0.02416 0.0
O46 O 0.74985 0.85504 0.08715 0.0
O47 O 0.68491 0.78753 0.08812 0.0
C48 C 0.71579 0.82396 0.09737 0.0
C49 C 0.60897 0.6865 0.03366 0.0
C50 C 0.6817 0.85915 0.03269 0.0
C51 C 0.76612 0.78584 0.03322 0.0
O52 O 0.72972 0.77177 0.02278 0.0
O53 O 0.7686 0.80231 0.05065 0.0
O54 O 0.62079 0.70764 0.01667 0.0
O55 O 0.62777 0.71068 0.04959 0.0
O56 O 0.86073 0.70561 0.38233 0.0
Cd57 Cd 0.91809 0.71292 0.39734 0.0
Cd58 Cd 0.91386 0.65946 0.36557 0.0
O59 O 0.84926 0.65222 0.35996 0.0
O60 O 0.91785 0.74774 0.4215 0.0
O61 O 0.90677 0.67681 0.42312 0.0
C62 C 0.90872 0.71202 0.43212 0.0
C63 C 0.93243 0.60072 0.36861 0.0
C64 C 0.83665 0.67848 0.36831 0.0
C65 C 0.99451 0.75542 0.36712 0.0
O66 O 0.96912 0.72081 0.35614 0.0
O67 O 0.98279 0.75694 0.38509 0.0
O68 O 0.92164 0.61092 0.35156 0.0
O69 O 0.92877 0.62129 0.38433 0.0
O70 O 0.1631 0.8567 0.71464 0.0
Cd71 Cd 0.21344 0.9132 0.73002 0.0
Cd72 Cd 0.26325 0.90786 0.69927 0.0
O73 O 0.20594 0.84335 0.69355 0.0
O74 O 0.17896 0.91335 0.75431 0.0
O75 O 0.23802 0.90097 0.75564 0.0
C76 C 0.20529 0.90358 0.76479 0.0
C77 C 0.34028 0.92605 0.7028 0.0
C78 C 0.16655 0.83189 0.70107 0.0
C79 C 0.24905 0.98923 0.69981 0.0
O80 O 0.25796 0.96315 0.68915 0.0
O81 O 0.23546 0.97813 0.71777 0.0
O82 O 0.31962 0.91485 0.68568 0.0
O83 O 0.31582 0.92296 0.71835 0.0
O84 O 0.86415 0.70497 0.62542 0.0
Cd85 Cd 0.81342 0.71149 0.6106 0.0
Cd86 Cd 0.76531 0.65803 0.64214 0.0
O87 O 0.82292 0.65129 0.64777 0.0
O88 O 0.84752 0.74586 0.5862 0.0
O89 O 0.78803 0.67467 0.58502 0.0
C90 C 0.82081 0.70977 0.57578 0.0
C91 C 0.6884 0.59928 0.63838 0.0
C92 C 0.8616 0.67796 0.6394 0.0
C93 C 0.77937 0.75341 0.641 0.0
O94 O 0.77069 0.71884 0.65189 0.0
O95 O 0.79239 0.75515 0.62298 0.0
O96 O 0.7087 0.60868 0.65558 0.0
O97 O 0.71319 0.62064 0.6229 0.0
O98 O 0.17397 0.86232 0.95871 0.0
Cd99 Cd 0.11597 0.81252 0.94396 0.0
Cd100 Cd 0.11985 0.76341 0.97562 0.0
O101 O 0.18472 0.82024 0.98123 0.0
O102 O 0.11643 0.84714 0.9196 0.0
O103 O 0.12582 0.78621 0.91827 0.0
C104 C 0.12442 0.81956 0.90909 0.0
C105 C 0.10042 0.68593 0.97216 0.0
C106 C 0.19777 0.8591 0.9728 0.0
C107 C 0.04052 0.78077 0.97455 0.0
O108 O 0.06544 0.7706 0.98535 0.0
O109 O 0.052 0.79373 0.95654 0.0
O110 O 0.11145 0.70652 0.9893 0.0
O111 O 0.10419 0.71059 0.95658 0.0
O112 O 0.31839 0.16321 0.29196 0.0
Cd113 Cd 0.31187 0.10673 0.27642 0.0
Cd114 Cd 0.36587 0.11056 0.30762 0.0
O115 O 0.37335 0.17517 0.3135 0.0
O116 O 0.27738 0.10743 0.25223 0.0
O117 O 0.3485 0.11902 0.25073 0.0
C118 C 0.31332 0.11697 0.24168 0.0
C119 C 0.42483 0.09234 0.30442 0.0
C120 C 0.34617 0.18738 0.30578 0.0
C121 C 0.26991 0.0298 0.30625 0.0
O122 O 0.30465 0.05516 0.31717 0.0
O123 O 0.26817 0.04167 0.28834 0.0
O124 O 0.41458 0.10292 0.32151 0.0
O125 O 0.40407 0.09588 0.28875 0.0
O126 O 0.16421 0.31267 0.62393 0.0
Cd127 Cd 0.21496 0.3061 0.60914 0.0
Cd128 Cd 0.26325 0.36035 0.64072 0.0
O129 O 0.20541 0.36681 0.64613 0.0
O130 O 0.18084 0.27123 0.58482 0.0
O131 O 0.24003 0.34256 0.58346 0.0
C132 C 0.20731 0.30722 0.57431 0.0
C133 C 0.34026 0.41961 0.63784 0.0
C134 C 0.16673 0.33989 0.63782 0.0
C135 C 0.24931 0.26488 0.63973 0.0
O136 O 0.25793 0.29961 0.65051 0.0
O137 O 0.23624 0.26279 0.6217 0.0
O138 O 0.3189 0.40951 0.65479 0.0
O139 O 0.31651 0.39862 0.62207 0.0
O140 O 0.86089 0.16105 0.95765 0.0
Cd141 Cd 0.91848 0.21116 0.94279 0.0
Cd142 Cd 0.91442 0.26009 0.97477 0.0
O143 O 0.84974 0.20277 0.98025 0.0
O144 O 0.91839 0.17623 0.9186 0.0
O145 O 0.90764 0.23629 0.91698 0.0
C146 C 0.90961 0.20306 0.90797 0.0
C147 C 0.93292 0.33745 0.97208 0.0
C148 C 0.83692 0.16401 0.97175 0.0
C149 C 0.9948 0.24439 0.97309 0.0
O150 O 0.96957 0.2537 0.98413 0.0
O151 O 0.983 0.23136 0.9551 0.0
O152 O 0.92202 0.31607 0.98903 0.0
O153 O 0.92952 0.31362 0.95625 0.0
O154 O 0.70777 0.84947 0.29224 0.0
Cd155 Cd 0.72001 0.90805 0.2768 0.0
Cd156 Cd 0.66668 0.90809 0.30821 0.0
O157 O 0.65793 0.84354 0.31538 0.0
O158 O 0.74961 0.90005 0.2524 0.0
O159 O 0.68456 0.90239 0.25139 0.0
C160 C 0.71551 0.89693 0.24216 0.0
C161 C 0.60829 0.9274 0.30563 0.0
C162 C 0.68155 0.82795 0.3069 0.0
C163 C 0.76552 0.98572 0.30623 0.0
O164 O 0.72908 0.96336 0.31664 0.0
O165 O 0.76813 0.97163 0.28884 0.0
O166 O 0.62011 0.91824 0.32266 0.0
O167 O 0.6272 0.92201 0.28974 0.0
H168 H 0.56862 0.62712 1.00233 0.0
H169 H 0.45301 0.39454 0.06765 0.0
H170 H 0.5807 0.62894 0.0666 0.0
H171 H 0.46795 0.39849 0.00348 0.0
H172 H 0.49624 0.47962 0.0682 0.0
H173 H 0.52604 0.5428 0.00308 0.0
C174 C 0.56193 0.60983 0.01666 0.0
C175 C 0.5784 0.63536 0.03443 0.0
C176 C 0.49029 0.46176 0.05404 0.0
C177 C 0.52974 0.5381 0.03538 0.0
C178 C 0.46581 0.41319 0.05371 0.0
C179 C 0.45678 0.38917 0.03548 0.0
C180 C 0.50547 0.4865 0.03599 0.0
C181 C 0.47401 0.4153 0.0179 0.0
C182 C 0.53781 0.56151 0.01706 0.0
C183 C 0.56862 0.61074 0.05253 0.0
N184 N 0.49715 0.46234 0.01859 0.0
N185 N 0.54501 0.56348 0.05255 0.0
H186 H 0.0836 0.46335 0.33596 0.0
H187 H 0.96175 0.57324 0.40179 0.0
H188 H 0.06852 0.44537 0.39994 0.0
H189 H 0.95196 0.56004 0.33754 0.0
H190 H 1.00436 0.53072 0.40213 0.0
H191 H 0.04133 0.50541 0.33699 0.0
C192 C 0.07186 0.46865 0.35029 0.0
C193 C 0.07969 0.45064 0.36789 0.0
C194 C 0.99254 0.5369 0.388 0.0
C195 C 0.03048 0.49869 0.36914 0.0
C196 C 0.96803 0.56097 0.38779 0.0
C197 C 0.95313 0.57026 0.3696 0.0
C198 C 1.00268 0.52246 0.36987 0.0
C199 C 0.96259 0.55373 0.35193 0.0
C200 C 0.04734 0.49246 0.35085 0.0
C201 C 0.06337 0.45866 0.386 0.0
N202 N 0.98694 0.53103 0.35251 0.0
N203 N 0.03947 0.48201 0.38616 0.0
H204 H 0.39654 0.95629 0.73615 0.0
H205 H 0.6287 0.07775 0.6708 0.0
H206 H 0.40086 0.94458 0.67202 0.0
H207 H 0.6313 0.06243 0.73478 0.0
H208 H 0.54442 0.03551 0.67175 0.0
H209 H 0.48164 0.99913 0.73671 0.0
C210 C 0.41528 0.96218 0.72223 0.0
C211 C 0.39137 0.94671 0.704 0.0
C212 C 0.56331 0.04147 0.68562 0.0
C213 C 0.48863 0.99652 0.70452 0.0
C214 C 0.61159 0.06599 0.68512 0.0
C215 C 0.63733 0.07369 0.70274 0.0
C216 C 0.54015 0.0245 0.70389 0.0
C217 C 0.61294 0.05737 0.72083 0.0
C218 C 0.46384 0.98683 0.72256 0.0
C219 C 0.41759 0.95567 0.68643 0.0
N220 N 0.5657 0.03345 0.72094 0.0
N221 N 0.46459 0.98019 0.68713 0.0
H222 H 0.63295 0.57318 0.60478 0.0
H223 H 0.39914 0.4631 0.66899 0.0
H224 H 0.62705 0.55753 0.66894 0.0
H225 H 0.39823 0.44506 0.60506 0.0
H226 H 0.48344 0.50503 0.66847 0.0
H227 H 0.54789 0.53109 0.60382 0.0
C228 C 0.61387 0.56045 0.61862 0.0
C229 C 0.63733 0.56893 0.63697 0.0
C230 C 0.46492 0.4921 0.65451 0.0
C231 C 0.54009 0.52168 0.636 0.0
C232 C 0.41662 0.4684 0.65477 0.0
C233 C 0.39135 0.45036 0.63704 0.0
C234 C 0.48856 0.49822 0.63638 0.0
C235 C 0.41622 0.45837 0.61909 0.0
C236 C 0.56532 0.53663 0.61807 0.0
C237 C 0.61067 0.55184 0.65443 0.0
N238 N 0.46346 0.48163 0.61922 0.0
N239 N 0.56369 0.52944 0.65352 0.0
H240 H 0.94938 0.3965 0.00332 0.0
H241 H 0.071 0.62998 0.93869 0.0
H242 H 0.96446 0.39536 0.93927 0.0
H243 H 0.08054 0.62489 1.00289 0.0
H244 H 0.02835 0.54488 0.93791 0.0
H245 H 0.99136 0.48084 1.00273 0.0
C246 C 0.96105 0.41394 0.98906 0.0
C247 C 0.95332 0.38859 0.97131 0.0
C248 C 0.0401 0.56249 0.95213 0.0
C249 C 1.0022 0.48586 0.97057 0.0
C250 C 0.06463 0.61107 0.95259 0.0
C251 C 0.0795 0.63478 0.97089 0.0
C252 C 0.02992 0.53745 0.97011 0.0
C253 C 0.06994 0.60833 0.98842 0.0
C254 C 0.9854 0.46227 0.98876 0.0
C255 C 0.96953 0.41341 0.95332 0.0
N256 N 0.04558 0.5613 0.98759 0.0
N257 N 0.99329 0.46067 0.95341 0.0
H258 H 0.45147 0.06229 0.2712 0.0
H259 H 0.56784 0.9466 0.33687 0.0
H260 H 0.46729 0.07464 0.33532 0.0
H261 H 0.57987 0.95625 0.27258 0.0
H262 H 0.52512 0.9882 0.33597 0.0
H263 H 0.49479 0.02052 0.27076 0.0
C264 C 0.46447 0.05675 0.28514 0.0
C265 C 0.45567 0.07211 0.30333 0.0
C266 C 0.53691 0.98115 0.32201 0.0
C267 C 0.50445 0.02355 0.30296 0.0
C268 C 0.5611 0.95703 0.3225 0.0
C269 C 0.57761 0.94785 0.30477 0.0
C270 C 0.52879 0.99628 0.30365 0.0
C271 C 0.56777 0.96247 0.28662 0.0
C272 C 0.48901 0.0327 0.28489 0.0
C273 C 0.47317 0.06361 0.32093 0.0
N274 N 0.54408 0.98604 0.28653 0.0
N275 N 0.49634 0.03973 0.32031 0.0
H276 H 0.24 0.09881 0.21789 0.0
H277 H 0.39145 0.23845 0.12297 0.0
H278 H 0.38863 0.16018 0.21657 0.0
H279 H 0.24347 0.14682 0.12161 0.0
H280 H 0.39209 0.21677 0.15806 0.0
H281 H 0.24155 0.12162 0.1832 0.0
C282 C 0.27302 0.11688 0.21024 0.0
C283 C 0.31425 0.12752 0.22014 0.0
C284 C 0.35955 0.20157 0.15004 0.0
C285 C 0.31635 0.1544 0.18033 0.0
C286 C 0.3591 0.21418 0.13009 0.0
C287 C 0.31734 0.1944 0.11936 0.0
C288 C 0.31787 0.16938 0.1593 0.0
C289 C 0.27649 0.16286 0.12927 0.0
C290 C 0.27388 0.12996 0.19041 0.0
C291 C 0.356 0.15104 0.20945 0.0
N292 N 0.2778 0.15142 0.14863 0.0
N293 N 0.35605 0.164 0.19012 0.0
H294 H 0.16365 0.38554 0.45573 0.0
H295 H 0.15315 0.23378 0.55035 0.0
H296 H 0.10733 0.23751 0.45422 0.0
H297 H 0.23903 0.38262 0.54928 0.0
H298 H 0.1318 0.23534 0.51567 0.0
H299 H 0.18617 0.38606 0.49077 0.0
C300 C 0.15559 0.35315 0.46281 0.0
C301 C 0.13358 0.31141 0.45204 0.0
C302 C 0.15553 0.26772 0.52293 0.0
C303 C 0.1594 0.31181 0.49193 0.0
C304 C 0.16781 0.26685 0.54276 0.0
C305 C 0.198 0.30814 0.55273 0.0
C306 C 0.17309 0.31026 0.51293 0.0
C307 C 0.21586 0.34995 0.54211 0.0
C308 C 0.16877 0.35353 0.48273 0.0
C309 C 0.12432 0.27051 0.4619 0.0
N310 N 0.20288 0.35001 0.52279 0.0
N311 N 0.13722 0.27176 0.48124 0.0
H312 H 0.78985 0.16016 0.78895 0.0
H313 H 0.928 0.14781 0.88432 0.0
H314 H 0.87979 0.10175 0.78815 0.0
H315 H 0.8674 0.23579 0.8826 0.0
H316 H 0.90562 0.12655 0.84959 0.0
H317 H 0.81172 0.1831 0.82397 0.0
C318 C 0.8138 0.15178 0.79618 0.0
C319 C 0.83302 0.129 0.78562 0.0
C320 C 0.89738 0.15072 0.85671 0.0
C321 C 0.85827 0.15526 0.82549 0.0
C322 C 0.91022 0.16294 0.87657 0.0
C323 C 0.89962 0.1937 0.88637 0.0
C324 C 0.87322 0.16892 0.84651 0.0
C325 C 0.87649 0.21217 0.87556 0.0
C326 C 0.82652 0.16518 0.81609 0.0
C327 C 0.86416 0.11932 0.79566 0.0
N328 N 0.86374 0.19924 0.85621 0.0
N329 N 0.87572 0.13243 0.81498 0.0
H330 H 0.68306 0.76034 0.12785 0.0
H331 H 0.68261 0.92759 0.21166 0.0
H332 H 0.73827 0.90547 0.1153 0.0
H333 H 0.7383 0.8381 0.22426 0.0
H334 H 0.67896 0.9078 0.1759 0.0
H335 H 0.67926 0.77638 0.16362 0.0
C336 C 0.69396 0.79538 0.13262 0.0
C337 C 0.71143 0.83176 0.11876 0.0
C338 C 0.69164 0.8924 0.18661 0.0
C339 C 0.70578 0.84983 0.15911 0.0
C340 C 0.69364 0.90356 0.2069 0.0
C341 C 0.71121 0.88476 0.22077 0.0
C342 C 0.70573 0.86108 0.18043 0.0
C343 C 0.72507 0.85372 0.21393 0.0
C344 C 0.69187 0.80446 0.15291 0.0
C345 C 0.72512 0.87661 0.12561 0.0
N346 N 0.7217 0.84251 0.19424 0.0
N347 N 0.72167 0.88439 0.14531 0.0
H348 H 0.78706 0.63411 0.55078 0.0
H349 H 0.92647 0.78548 0.45578 0.0
H350 H 0.87639 0.78252 0.55178 0.0
H351 H 0.86601 0.63692 0.45737 0.0
H352 H 0.90325 0.78408 0.4904 0.0
H353 H 0.80922 0.6334 0.51577 0.0
C354 C 0.8109 0.66653 0.54359 0.0
C355 C 0.82991 0.70844 0.55421 0.0
C356 C 0.89522 0.75173 0.48327 0.0
C357 C 0.85553 0.70784 0.51436 0.0
C358 C 0.90854 0.75251 0.46347 0.0
C359 C 0.89825 0.71125 0.45367 0.0
C360 C 0.87088 0.7093 0.49339 0.0
C361 C 0.87489 0.66956 0.46441 0.0
C362 C 0.82379 0.66606 0.52369 0.0
C363 C 0.86093 0.74939 0.54422 0.0
N364 N 0.86168 0.66959 0.4837 0.0
N365 N 0.87269 0.74804 0.52491 0.0
H366 H 0.16369 0.78363 0.88375 0.0
H367 H 0.15097 0.92261 0.78876 0.0
H368 H 0.10827 0.87611 0.88525 0.0
H369 H 0.23736 0.86021 0.78983 0.0
H370 H 0.13028 0.90033 0.82354 0.0
H371 H 0.18523 0.80465 0.84856 0.0
C372 C 0.15563 0.80794 0.87664 0.0
C373 C 0.13416 0.82816 0.88745 0.0
C374 C 0.15396 0.89165 0.81625 0.0
C375 C 0.15883 0.85243 0.84738 0.0
C376 C 0.16585 0.90442 0.79636 0.0
C377 C 0.19603 0.89334 0.78637 0.0
C378 C 0.17191 0.86707 0.82629 0.0
C379 C 0.21419 0.86969 0.79702 0.0
C380 C 0.16825 0.82017 0.85663 0.0
C381 C 0.12486 0.85973 0.87754 0.0
N382 N 0.20161 0.85704 0.8164 0.0
N383 N 0.13719 0.87081 0.85812 0.0
H384 H 0.25037 0.94061 0.95307 0.0
H385 H 0.32011 0.08329 0.05324 0.0
H386 H 0.23318 0.87696 0.01093 0.0
H387 H 0.36652 0.14729 0.99544 0.0
H388 H 0.29726 1.00805 0.03831 0.0
H389 H 0.30176 0.01612 0.96801 0.0
C390 C 0.25823 0.94242 0.96888 0.0
C391 C 0.23701 0.90244 0.98082 0.0
C392 C 0.31328 0.03857 0.02892 0.0
C393 C 0.29516 0.98915 0.99815 0.0
C394 C 0.32636 0.08162 0.03745 0.0
C395 C 0.34478 0.12161 0.02552 0.0
C396 C 0.31773 0.03519 0.0082 0.0
C397 C 0.35236 0.11738 0.00518 0.0
C398 C 0.2876 0.98562 0.97741 0.0
C399 C 0.24868 0.90685 1.00118 0.0
N400 N 0.33793 0.07481 0.99708 0.0
N401 N 0.2762 0.94955 0.00928 0.0
H402 H 0.24864 0.31454 0.38721 0.0
H403 H 0.37903 0.23259 0.34173 0.0
H404 H 0.23301 0.35998 0.32886 0.0
H405 H 0.30339 0.23094 0.2891 0.0
H406 H 0.35819 0.28582 0.35763 0.0
H407 H 0.29943 0.28932 0.37295 0.0
C408 C 0.25705 0.32045 0.37144 0.0
C409 C 0.23627 0.33913 0.35919 0.0
C410 C 0.34611 0.27383 0.34261 0.0
C411 C 0.29484 0.3102 0.34258 0.0
C412 C 0.35857 0.24388 0.33342 0.0
C413 C 0.34208 0.2264 0.31422 0.0
C414 C 0.31675 0.28616 0.33254 0.0
C415 C 0.3161 0.24271 0.30409 0.0
C416 C 0.28645 0.30625 0.36328 0.0
C417 C 0.24833 0.34585 0.33887 0.0
N418 N 0.30383 0.27117 0.31344 0.0
N419 N 0.27597 0.33041 0.33112 0.0
H420 H 0.87434 0.23182 0.66378 0.0
H421 H 0.0853 0.3087 0.61782 0.0
H422 H 0.94877 0.23104 0.71641 0.0
H423 H 0.14784 0.35823 0.67565 0.0
H424 H 1.00964 0.28437 0.63226 0.0
H425 H 0.94831 0.28363 0.64751 0.0
C426 C 0.90616 0.24305 0.67202 0.0
C427 C 0.90532 0.22621 0.69134 0.0
C428 C 0.03982 0.30198 0.64176 0.0
C429 C 0.99023 0.28432 0.6726 0.0
C430 C 0.0832 0.31563 0.63349 0.0
C431 C 0.12297 0.33529 0.64557 0.0
C432 C 0.03593 0.30744 0.66237 0.0
C433 C 0.11813 0.34332 0.66579 0.0
C434 C 0.9485 0.27216 0.66262 0.0
C435 C 0.94772 0.24236 0.70135 0.0
N436 N 0.07526 0.3284 0.67365 0.0
N437 N 0.98836 0.27003 0.6918 0.0
H438 H 0.70468 0.93982 0.05207 0.0
H439 H 0.78585 0.08236 0.95185 0.0
H440 H 0.66775 0.87597 0.99383 0.0
H441 H 0.79884 0.14606 0.00943 0.0
H442 H 0.73279 1.00699 0.96643 0.0
H443 H 0.72862 0.01489 0.03675 0.0
C444 C 0.7006 0.94145 0.03607 0.0
C445 C 0.68468 0.9016 0.02418 0.0
C446 C 0.74645 0.03746 0.97584 0.0
C447 C 0.71314 0.98786 0.00643 0.0
C448 C 0.77681 0.0806 0.96751 0.0
C449 C 0.79732 0.12056 0.9795 0.0
C450 C 0.73706 0.03395 0.99643 0.0
C451 C 0.784 0.11619 0.99965 0.0
C452 C 0.71439 0.98442 0.02732 0.0
C453 C 0.6799 0.90577 0.00356 0.0
N454 N 0.75545 0.07353 0.00757 0.0
N455 N 0.69501 0.94829 0.99529 0.0
H456 H 0.70481 0.77033 0.28764 0.0
H457 H 0.78572 0.7094 0.38806 0.0
H458 H 0.66755 0.79735 0.3458 0.0
H459 H 0.79868 0.6582 0.3306 0.0
H460 H 0.73279 0.73176 0.37337 0.0
H461 H 0.72881 0.71935 0.30307 0.0
C462 C 0.70068 0.76468 0.30364 0.0
C463 C 0.68464 0.78858 0.31548 0.0
C464 C 0.74641 0.71483 0.36401 0.0
C465 C 0.71315 0.73094 0.33335 0.0
C466 C 0.7767 0.70203 0.3724 0.0
C467 C 0.79714 0.6824 0.36048 0.0
C468 C 0.73704 0.70882 0.34342 0.0
C469 C 0.78387 0.67335 0.34033 0.0
C470 C 0.7145 0.73557 0.31246 0.0
C471 C 0.67979 0.77972 0.3361 0.0
N472 N 0.75539 0.68748 0.33235 0.0
N473 N 0.69493 0.75238 0.34444 0.0
H474 H 0.15411 0.78662 0.66514 0.0
H475 H 0.94276 0.70818 0.61932 0.0
H476 H 0.08011 0.78913 0.71762 0.0
H477 H 0.88072 0.66071 0.67737 0.0
H478 H 0.01852 0.73286 0.63373 0.0
H479 H 0.08001 0.73421 0.64908 0.0
C480 C 0.12235 0.77566 0.67339 0.0
C481 C 0.12335 0.79315 0.69259 0.0
C482 C 0.98844 0.71562 0.64329 0.0
C483 C 0.03829 0.73434 0.6741 0.0
C484 C 0.94499 0.70176 0.63505 0.0
C485 C 0.90534 0.6826 0.64718 0.0
C486 C 0.9925 0.71087 0.66395 0.0
C487 C 0.91034 0.67522 0.66746 0.0
C488 C 0.07994 0.74619 0.66411 0.0
C489 C 0.08103 0.77731 0.70264 0.0
N490 N 0.95326 0.69034 0.67529 0.0
N491 N 0.04032 0.74928 0.69321 0.0
H492 H 0.06408 0.23905 0.95325 0.0
H493 H 0.19541 0.23774 0.0529 0.0
H494 H 0.02211 0.25619 0.01223 0.0
H495 H 0.25588 0.25832 0.99404 0.0
H496 H 0.12924 0.23993 0.03828 0.0
H497 H 0.13251 0.24152 0.96792 0.0
C498 C 0.06928 0.24344 0.96926 0.0
C499 C 0.03726 0.24737 0.98152 0.0
C500 C 0.15713 0.24418 0.0286 0.0
C501 C 0.11527 0.24989 0.99841 0.0
C502 C 0.19486 0.24283 0.03693 0.0
C503 C 0.23125 0.2478 0.02469 0.0
C504 C 0.15553 0.24999 0.00786 0.0
C505 C 0.22868 0.25441 0.00408 0.0
C506 C 0.10839 0.24495 0.97762 0.0
C507 C 0.04587 0.2531 1.00219 0.0
N508 N 0.19137 0.25502 0.99631 0.0
N509 N 0.08388 0.2539 0.00998 0.0
H510 H 0.77738 0.0155 0.34495 0.0
H511 H 1.01523 0.24945 0.32539 0.0
H512 H 0.84401 0.05188 0.28718 0.0
H513 H 0.96962 0.19047 0.38416 0.0
H514 H 0.94808 0.18214 0.31089 0.0
H515 H 0.84309 0.08428 0.35921 0.0
C516 C 0.80577 0.03802 0.33522 0.0
C517 C 0.80518 0.02781 0.3148 0.0
C518 C 0.95279 0.18397 0.32695 0.0
C519 C 0.88054 0.10683 0.33112 0.0
C520 C 0.99098 0.22248 0.33528 0.0
C521 C 0.99814 0.2256 0.35605 0.0
C522 C 0.92115 0.14851 0.33948 0.0
C523 C 0.96559 0.18947 0.36808 0.0
C524 C 0.84336 0.07721 0.34342 0.0
C525 C 0.84307 0.05828 0.30299 0.0
N526 N 0.92844 0.15247 0.35961 0.0
N527 N 0.87919 0.09653 0.31132 0.0
H528 H 0.76611 0.76706 0.68021 0.0
H529 H 0.76477 1.00268 0.6605 0.0
H530 H 0.7844 0.82851 0.62168 0.0
H531 H 0.78576 0.96094 0.71888 0.0
H532 H 0.76174 0.9339 0.64613 0.0
H533 H 0.76313 0.83282 0.69459 0.0
C534 C 0.76928 0.79426 0.67034 0.0
C535 C 0.7757 0.79231 0.64968 0.0
C536 C 0.76693 0.93977 0.66208 0.0
C537 C 0.7722 0.86769 0.66613 0.0
C538 C 0.7685 0.97895 0.67034 0.0
C539 C 0.77572 0.98773 0.69095 0.0
C540 C 0.77218 0.90883 0.67452 0.0
C541 C 0.78036 0.9557 0.70291 0.0
C542 C 0.76773 0.83187 0.6786 0.0
C543 C 0.77962 0.82865 0.63768 0.0
N544 N 0.77848 0.91764 0.69452 0.0
N545 N 0.77777 0.86484 0.64609 0.0
H546 H 0.7784 0.76881 0.99442 0.0
H547 H 0.01563 0.7715 0.01397 0.0
H548 H 0.84445 0.79781 0.05231 0.0
H549 H 0.97096 0.7867 0.95527 0.0
H550 H 0.9485 0.77169 0.02848 0.0
H551 H 0.84424 0.76604 0.98014 0.0
C552 C 0.80669 0.77448 0.00417 0.0
C553 C 0.80589 0.78364 0.02463 0.0
C554 C 0.95342 0.77497 0.01243 0.0
C555 C 0.8814 0.78029 0.00828 0.0
C556 C 0.9916 0.77464 0.0041 0.0
C557 C 0.999 0.77916 0.98334 0.0
C558 C 0.92205 0.77931 0.99992 0.0
C559 C 0.96674 0.78329 0.97134 0.0
C560 C 0.84436 0.77304 0.99596 0.0
C561 C 0.84367 0.79081 0.03646 0.0
N562 N 0.92959 0.78313 0.97981 0.0
N563 N 0.87986 0.78882 0.02813 0.0
H564 H 0.06394 0.83041 0.38676 0.0
H565 H 0.19474 0.96062 0.28666 0.0
H566 H 0.02187 0.76998 0.32799 0.0
H567 H 0.25548 1.00234 0.34539 0.0
H568 H 0.12891 0.89246 0.30154 0.0
H569 H 0.13244 0.89596 0.3719 0.0
C570 C 0.06913 0.83084 0.37076 0.0
C571 C 0.03705 0.79465 0.35861 0.0
C572 C 0.15679 0.91644 0.31114 0.0
C573 C 0.11513 0.86965 0.34151 0.0
C574 C 0.19433 0.9554 0.30266 0.0
C575 C 0.23068 0.98731 0.31478 0.0
C576 C 0.15531 0.90961 0.33191 0.0
C577 C 0.2283 0.97867 0.33544 0.0
C578 C 0.10829 0.8682 0.36229 0.0
C579 C 0.04567 0.79703 0.33795 0.0
N580 N 0.19114 0.94083 0.34336 0.0
N581 N 0.08369 0.83401 0.33005 0.0
H582 H 0.26331 0.01566 0.66055 0.0
H583 H 0.26312 0.2523 0.67898 0.0
H584 H 0.24345 0.05948 0.71868 0.0
H585 H 0.24387 0.18914 0.62076 0.0
H586 H 0.26609 0.18688 0.69369 0.0
H587 H 0.26636 0.08408 0.64578 0.0
C588 C 0.25983 0.03977 0.67025 0.0
C589 C 0.25293 0.03168 0.69091 0.0
C590 C 0.26128 0.18737 0.6777 0.0
C591 C 0.25649 0.11017 0.67402 0.0
C592 C 0.25974 0.2248 0.66925 0.0
C593 C 0.25304 0.22617 0.64858 0.0
C594 C 0.25652 0.15114 0.66541 0.0
C595 C 0.24886 0.18945 0.63676 0.0
C596 C 0.26141 0.07874 0.66176 0.0
C597 C 0.24861 0.06418 0.70268 0.0
N598 N 0.25071 0.15343 0.64535 0.0
N599 N 0.25049 0.10203 0.69407 0.0
loop_
_geom_bond_atom_site_label_1
_geom_bond_atom_site_label_2
_geom_bond_distance
_geom_bond_site_symmetry_2
_ccdc_geom_bond_type
O0 Cd1 2.223 . S
O0 C8 1.315 . S
Cd1 O0 2.223 . S
Cd1 O4 2.297 . S
Cd1 O5 2.439 . S
Cd1 O11 2.240 . S
Cd2 O3 2.240 . S
Cd2 O10 2.223 . S
Cd2 O12 2.297 . S
Cd2 O13 2.439 . S
O3 Cd2 2.240 . S
O3 C8 1.279 . S
O4 Cd1 2.297 . S
O4 C6 1.247 . S
O5 Cd1 2.439 . S
O5 C6 1.208 . S
C6 O4 1.247 . S
C6 O5 1.208 . S
C7 O12 1.247 . S
C7 O13 1.208 . S
C8 O0 1.315 . S
C8 O3 1.279 . S
C9 O10 1.315 . S
C9 O11 1.279 . S
O10 Cd2 2.223 . S
O10 C9 1.315 . S
O11 Cd1 2.240 . S
O11 C9 1.279 . S
O12 Cd2 2.297 . S
O12 C7 1.247 . S
O13 Cd2 2.439 . S
O13 C7 1.208 . S
O14 Cd15 2.223 . S
O14 C22 1.315 . S
Cd15 O14 2.223 . S
Cd15 O18 2.297 . S
Cd15 O19 2.439 . S
Cd15 O25 2.240 . S
Cd16 O17 2.240 . S
Cd16 O24 2.223 . S
Cd16 O26 2.297 . S
Cd16 O27 2.439 . S
O17 Cd16 2.240 . S
O17 C22 1.279 . S
O18 Cd15 2.297 . S
O18 C20 1.247 . S
O19 Cd15 2.439 . S
O19 C20 1.208 . S
C20 O18 1.247 . S
C20 O19 1.208 . S
C21 O26 1.247 . S
C21 O27 1.208 . S
C22 O14 1.315 . S
C22 O17 1.279 . S
C23 O24 1.315 . S
C23 O25 1.279 . S
O24 Cd16 2.223 . S
O24 C23 1.315 . S
O25 Cd15 2.240 . S
O25 C23 1.279 . S
O26 Cd16 2.297 . S
O26 C21 1.247 . S
O27 Cd16 2.439 . S
O27 C21 1.208 . S
O28 Cd29 2.223 . S
O28 C36 1.315 . S
Cd29 O28 2.223 . S
Cd29 O32 2.297 . S
Cd29 O33 2.439 . S
Cd29 O39 2.240 . S
Cd30 O31 2.240 . S
Cd30 O38 2.223 . S
Cd30 O40 2.297 . S
Cd30 O41 2.439 . S
O31 Cd30 2.240 . S
O31 C36 1.279 . S
O32 Cd29 2.297 . S
O32 C34 1.247 . S
O33 Cd29 2.439 . S
O33 C34 1.208 . S
C34 O32 1.247 . S
C34 O33 1.208 . S
C35 O40 1.247 . S
C35 O41 1.208 . S
C36 O28 1.315 . S
C36 O31 1.279 . S
C37 O38 1.315 . S
C37 O39 1.279 . S
O38 Cd30 2.223 . S
O38 C37 1.315 . S
O39 Cd29 2.240 . S
O39 C37 1.279 . S
O40 Cd30 2.297 . S
O40 C35 1.247 . S
O41 Cd30 2.439 . S
O41 C35 1.208 . S
O42 Cd43 2.223 . S
O42 C50 1.315 . S
Cd43 O42 2.223 . S
Cd43 O46 2.297 . S
Cd43 O47 2.439 . S
Cd43 O53 2.240 . S
Cd44 O45 2.240 . S
Cd44 O52 2.223 . S
Cd44 O54 2.297 . S
Cd44 O55 2.439 . S
O45 Cd44 2.240 . S
O45 C50 1.279 . S
O46 Cd43 2.297 . S
O46 C48 1.247 . S
O47 Cd43 2.439 . S
O47 C48 1.208 . S
C48 O46 1.247 . S
C48 O47 1.208 . S
C49 O54 1.247 . S
C49 O55 1.208 . S
C50 O42 1.315 . S
C50 O45 1.279 . S
C51 O52 1.315 . S
C51 O53 1.279 . S
O52 Cd44 2.223 . S
O52 C51 1.315 . S
O53 Cd43 2.240 . S
O53 C51 1.279 . S
O54 Cd44 2.297 . S
O54 C49 1.247 . S
O55 Cd44 2.439 . S
O55 C49 1.208 . S
O56 Cd57 2.223 . S
O56 C64 1.315 . S
Cd57 O56 2.223 . S
Cd57 O60 2.297 . S
Cd57 O61 2.439 . S
Cd57 O67 2.240 . S
Cd58 O59 2.240 . S
Cd58 O66 2.223 . S
Cd58 O68 2.297 . S
Cd58 O69 2.439 . S
O59 Cd58 2.240 . S
O59 C64 1.279 . S
O60 Cd57 2.297 . S
O60 C62 1.247 . S
O61 Cd57 2.439 . S
O61 C62 1.208 . S
C62 O60 1.247 . S
C62 O61 1.208 . S
C63 O68 1.247 . S
C63 O69 1.208 . S
C64 O56 1.315 . S
C64 O59 1.279 . S
C65 O66 1.315 . S
C65 O67 1.279 . S
O66 Cd58 2.223 . S
O66 C65 1.315 . S
O67 Cd57 2.240 . S
O67 C65 1.279 . S
O68 Cd58 2.297 . S
O68 C63 1.247 . S
O69 Cd58 2.439 . S
O69 C63 1.208 . S
O70 Cd71 2.223 . S
O70 C78 1.315 . S
Cd71 O70 2.223 . S
Cd71 O74 2.297 . S
Cd71 O75 2.439 . S
Cd71 O81 2.240 . S
Cd72 O73 2.240 . S
Cd72 O80 2.223 . S
Cd72 O82 2.297 . S
Cd72 O83 2.439 . S
O73 Cd72 2.240 . S
O73 C78 1.279 . S
O74 Cd71 2.297 . S
O74 C76 1.247 . S
O75 Cd71 2.439 . S
O75 C76 1.208 . S
C76 O74 1.247 . S
C76 O75 1.208 . S
C77 O82 1.247 . S
C77 O83 1.208 . S
C78 O70 1.315 . S
C78 O73 1.279 . S
C79 O80 1.315 . S
C79 O81 1.279 . S
O80 Cd72 2.223 . S
O80 C79 1.315 . S
O81 Cd71 2.240 . S
O81 C79 1.279 . S
O82 Cd72 2.297 . S
O82 C77 1.247 . S
O83 Cd72 2.439 . S
O83 C77 1.208 . S
O84 Cd85 2.223 . S
O84 C92 1.315 . S
Cd85 O84 2.223 . S
Cd85 O88 2.297 . S
Cd85 O89 2.439 . S
Cd85 O95 2.240 . S
Cd86 O87 2.240 . S
Cd86 O94 2.223 . S
Cd86 O96 2.297 . S
Cd86 O97 2.439 . S
O87 Cd86 2.240 . S
O87 C92 1.279 . S
O88 Cd85 2.297 . S
O88 C90 1.247 . S
O89 Cd85 2.439 . S
O89 C90 1.208 . S
C90 O88 1.247 . S
C90 O89 1.208 . S
C91 O96 1.247 . S
C91 O97 1.208 . S
C92 O84 1.315 . S
C92 O87 1.279 . S
C93 O94 1.315 . S
C93 O95 1.279 . S
O94 Cd86 2.223 . S
O94 C93 1.315 . S
O95 Cd85 2.240 . S
O95 C93 1.279 . S
O96 Cd86 2.297 . S
O96 C91 1.247 . S
O97 Cd86 2.439 . S
O97 C91 1.208 . S
O98 Cd99 2.223 . S
O98 C106 1.315 . S
Cd99 O98 2.223 . S
Cd99 O102 2.297 . S
Cd99 O103 2.439 . S
Cd99 O109 2.240 . S
Cd100 O101 2.240 . S
Cd100 O108 2.223 . S
Cd100 O110 2.297 . S
Cd100 O111 2.439 . S
O101 Cd100 2.240 . S
O101 C106 1.279 . S
O102 Cd99 2.297 . S
O102 C104 1.247 . S
O103 Cd99 2.439 . S
O103 C104 1.208 . S
C104 O102 1.247 . S
C104 O103 1.208 . S
C105 O110 1.247 . S
C105 O111 1.208 . S
C106 O98 1.315 . S
C106 O101 1.279 . S
C107 O108 1.315 . S
C107 O109 1.279 . S
O108 Cd100 2.223 . S
O108 C107 1.315 . S
O109 Cd99 2.240 . S
O109 C107 1.279 . S
O110 Cd100 2.297 . S
O110 C105 1.247 . S
O111 Cd100 2.439 . S
O111 C105 1.208 . S
O112 Cd113 2.223 . S
O112 C120 1.315 . S
Cd113 O112 2.223 . S
Cd113 O116 2.297 . S
Cd113 O117 2.439 . S
Cd113 O123 2.240 . S
Cd114 O115 2.240 . S
Cd114 O122 2.223 . S
Cd114 O124 2.297 . S
Cd114 O125 2.439 . S
O115 Cd114 2.240 . S
O115 C120 1.279 . S
O116 Cd113 2.297 . S
O116 C118 1.247 . S
O117 Cd113 2.439 . S
O117 C118 1.208 . S
C118 O116 1.247 . S
C118 O117 1.208 . S
C119 O124 1.247 . S
C119 O125 1.208 . S
C120 O112 1.315 . S
C120 O115 1.279 . S
C121 O122 1.315 . S
C121 O123 1.279 . S
O122 Cd114 2.223 . S
O122 C121 1.315 . S
O123 Cd113 2.240 . S
O123 C121 1.279 . S
O124 Cd114 2.297 . S
O124 C119 1.247 . S
O125 Cd114 2.439 . S
O125 C119 1.208 . S
O126 Cd127 2.223 . S
O126 C134 1.315 . S
Cd127 O126 2.223 . S
Cd127 O130 2.297 . S
Cd127 O131 2.439 . S
Cd127 O137 2.240 . S
Cd128 O129 2.240 . S
Cd128 O136 2.223 . S
Cd128 O138 2.297 . S
Cd128 O139 2.439 . S
O129 Cd128 2.240 . S
O129 C134 1.279 . S
O130 Cd127 2.297 . S
O130 C132 1.247 . S
O131 Cd127 2.439 . S
O131 C132 1.208 . S
C132 O130 1.247 . S
C132 O131 1.208 . S
C133 O138 1.247 . S
C133 O139 1.208 . S
C134 O126 1.315 . S
C134 O129 1.279 . S
C135 O136 1.315 . S
C135 O137 1.279 . S
O136 Cd128 2.223 . S
O136 C135 1.315 . S
O137 Cd127 2.240 . S
O137 C135 1.279 . S
O138 Cd128 2.297 . S
O138 C133 1.247 . S
O139 Cd128 2.439 . S
O139 C133 1.208 . S
O140 Cd141 2.223 . S
O140 C148 1.315 . S
Cd141 O140 2.223 . S
Cd141 O144 2.297 . S
Cd141 O145 2.439 . S
Cd141 O151 2.240 . S
Cd142 O143 2.240 . S
Cd142 O150 2.223 . S
Cd142 O152 2.297 . S
Cd142 O153 2.439 . S
O143 Cd142 2.240 . S
O143 C148 1.279 . S
O144 Cd141 2.297 . S
O144 C146 1.247 . S
O145 Cd141 2.439 . S
O145 C146 1.208 . S
C146 O144 1.247 . S
C146 O145 1.208 . S
C147 O152 1.247 . S
C147 O153 1.208 . S
C148 O140 1.315 . S
C148 O143 1.279 . S
C149 O150 1.315 . S
C149 O151 1.279 . S
O150 Cd142 2.223 . S
O150 C149 1.315 . S
O151 Cd141 2.240 . S
O151 C149 1.279 . S
O152 Cd142 2.297 . S
O152 C147 1.247 . S
O153 Cd142 2.439 . S
O153 C147 1.208 . S
O154 Cd155 2.223 . S
O154 C162 1.315 . S
Cd155 O154 2.223 . S
Cd155 O158 2.297 . S
Cd155 O159 2.439 . S
Cd155 O165 2.240 . S
Cd156 O157 2.240 . S
Cd156 O164 2.223 . S
Cd156 O166 2.297 . S
Cd156 O167 2.439 . S
O157 Cd156 2.240 . S
O157 C162 1.279 . S
O158 Cd155 2.297 . S
O158 C160 1.247 . S
O159 Cd155 2.439 . S
O159 C160 1.208 . S
C160 O158 1.247 . S
C160 O159 1.208 . S
C161 O166 1.247 . S
C161 O167 1.208 . S
C162 O154 1.315 . S
C162 O157 1.279 . S
C163 O164 1.315 . S
C163 O165 1.279 . S
O164 Cd156 2.223 . S
O164 C163 1.315 . S
O165 Cd155 2.240 . S
O165 C163 1.279 . S
O166 Cd156 2.297 . S
O166 C161 1.247 . S
O167 Cd156 2.439 . S
O167 C161 1.208 . S
H168 C174 0.930 . S
H169 C178 0.930 . S
H170 C183 0.929 . S
H171 C181 0.929 . S
H172 C176 0.929 . S
H173 C182 0.929 . S
C174 H168 0.930 . S
C174 C175 1.367 . S
C174 C182 1.378 . S
C175 C174 1.367 . S
C175 C183 1.433 . S
C176 H172 0.929 . S
C176 C178 1.378 . S
C176 C180 1.350 . S
C177 C180 1.463 . S
C177 C182 1.350 . S
C177 N185 1.427 . S
C178 H169 0.930 . S
C178 C176 1.378 . S
C178 C179 1.367 . S
C179 C178 1.367 . S
C179 C181 1.433 . S
C180 C176 1.350 . S
C180 C177 1.463 . S
C180 N184 1.427 . S
C181 H171 0.929 . S
C181 C179 1.433 . S
C181 N184 1.384 . S
C182 H173 0.929 . S
C182 C174 1.378 . S
C182 C177 1.350 . S
C183 H170 0.929 . S
C183 C175 1.433 . S
C183 N185 1.384 . S
N184 C180 1.427 . S
N184 C181 1.384 . S
N185 C177 1.427 . S
N185 C183 1.384 . S
H186 C192 0.930 . S
H187 C196 0.930 . S
H188 C201 0.929 . S
H189 C199 0.929 . S
H190 C194 0.929 . S
H191 C200 0.929 . S
C192 H186 0.930 . S
C192 C193 1.367 . S
C192 C200 1.378 . S
C193 C192 1.367 . S
C193 C201 1.433 1_455 S
C194 H190 0.929 . S
C194 C196 1.378 . S
C194 C198 1.350 . S
C195 C198 1.463 1_455 S
C195 C200 1.350 . S
C195 N203 1.427 1_455 S
C196 H187 0.930 . S
C196 C194 1.378 . S
C196 C197 1.367 . S
C197 C196 1.367 . S
C197 C199 1.433 1_655 S
C198 C194 1.350 . S
C198 C195 1.463 1_655 S
C198 N202 1.427 1_655 S
C199 H189 0.929 . S
C199 C197 1.433 1_455 S
C199 N202 1.384 . S
C200 H191 0.929 . S
C200 C192 1.378 . S
C200 C195 1.350 . S
C201 H188 0.929 . S
C201 C193 1.433 1_655 S
C201 N203 1.384 . S
N202 C198 1.427 1_455 S
N202 C199 1.384 . S
N203 C195 1.427 1_655 S
N203 C201 1.384 . S
H204 C210 0.930 . S
H205 C214 0.930 . S
H206 C219 0.929 . S
H207 C217 0.929 . S
H208 C212 0.929 . S
H209 C218 0.929 . S
C210 H204 0.930 . S
C210 C211 1.367 1_545 S
C210 C218 1.378 . S
C211 C210 1.367 1_565 S
C211 C219 1.433 . S
C212 H208 0.929 . S
C212 C214 1.378 . S
C212 C216 1.350 1_565 S
C213 C216 1.463 1_565 S
C213 C218 1.350 1_565 S
C213 N221 1.427 . S
C214 H205 0.930 . S
C214 C212 1.378 . S
C214 C215 1.367 1_565 S
C215 C214 1.367 1_545 S
C215 C217 1.433 . S
C216 C212 1.350 1_545 S
C216 C213 1.463 1_545 S
C216 N220 1.427 . S
C217 H207 0.929 . S
C217 C215 1.433 . S
C217 N220 1.384 . S
C218 H209 0.929 . S
C218 C210 1.378 . S
C218 C213 1.350 1_545 S
C219 H206 0.929 . S
C219 C211 1.433 . S
C219 N221 1.384 . S
N220 C216 1.427 . S
N220 C217 1.384 . S
N221 C213 1.427 . S
N221 C219 1.384 . S
H222 C228 0.930 . S
H223 C232 0.930 . S
H224 C237 0.929 . S
H225 C235 0.929 . S
H226 C230 0.929 . S
H227 C236 0.929 . S
C228 H222 0.930 . S
C228 C229 1.367 . S
C228 C236 1.378 . S
C229 C228 1.367 . S
C229 C237 1.433 . S
C230 H226 0.929 . S
C230 C232 1.378 . S
C230 C234 1.350 . S
C231 C234 1.463 . S
C231 C236 1.350 . S
C231 N239 1.427 . S
C232 H223 0.930 . S
C232 C230 1.378 . S
C232 C233 1.367 . S
C233 C232 1.367 . S
C233 C235 1.433 . S
C234 C230 1.350 . S
C234 C231 1.463 . S
C234 N238 1.427 . S
C235 H225 0.929 . S
C235 C233 1.433 . S
C235 N238 1.384 . S
C236 H227 0.929 . S
C236 C228 1.378 . S
C236 C231 1.350 . S
C237 H224 0.929 . S
C237 C229 1.433 . S
C237 N239 1.384 . S
N238 C234 1.427 . S
N238 C235 1.384 . S
N239 C231 1.427 . S
N239 C237 1.384 . S
H240 C246 0.930 1_455 S
H241 C250 0.930 1_655 S
H242 C255 0.929 . S
H243 C253 0.929 . S
H244 C248 0.929 . S
H245 C254 0.929 . S
C246 H240 0.930 1_655 S
C246 C247 1.367 . S
C246 C254 1.378 1_655 S
C247 C246 1.367 . S
C247 C255 1.433 . S
C248 H244 0.929 . S
C248 C250 1.378 1_655 S
C248 C252 1.350 1_655 S
C249 C252 1.463 1_655 S
C249 C254 1.350 1_655 S
C249 N257 1.427 . S
C250 H241 0.930 1_455 S
C250 C248 1.378 1_455 S
C250 C251 1.367 . S
C251 C250 1.367 . S
C251 C253 1.433 . S
C252 C248 1.350 1_455 S
C252 C249 1.463 1_455 S
C252 N256 1.427 . S
C253 H243 0.929 . S
C253 C251 1.433 . S
C253 N256 1.384 . S
C254 H245 0.929 . S
C254 C246 1.378 1_455 S
C254 C249 1.350 1_455 S
C255 H242 0.929 . S
C255 C247 1.433 . S
C255 N257 1.384 . S
N256 C252 1.427 . S
N256 C253 1.384 . S
N257 C249 1.427 . S
N257 C255 1.384 . S
H258 C264 0.930 . S
H259 C268 0.930 . S
H260 C273 0.929 . S
H261 C271 0.929 . S
H262 C266 0.929 . S
H263 C272 0.929 . S
C264 H258 0.930 . S
C264 C265 1.367 1_565 S
C264 C272 1.378 . S
C265 C264 1.367 1_545 S
C265 C273 1.433 . S
C266 H262 0.929 . S
C266 C268 1.378 . S
C266 C270 1.350 1_545 S
C267 C270 1.463 1_545 S
C267 C272 1.350 1_545 S
C267 N275 1.427 . S
C268 H259 0.930 . S
C268 C266 1.378 . S
C268 C269 1.367 1_545 S
C269 C268 1.367 1_565 S
C269 C271 1.433 . S
C270 C266 1.350 1_565 S
C270 C267 1.463 1_565 S
C270 N274 1.427 . S
C271 H261 0.929 . S
C271 C269 1.433 . S
C271 N274 1.384 . S
C272 H263 0.929 . S
C272 C264 1.378 . S
C272 C267 1.350 1_565 S
C273 H260 0.929 . S
C273 C265 1.433 . S
C273 N275 1.384 . S
N274 C270 1.427 . S
N274 C271 1.384 . S
N275 C267 1.427 . S
N275 C273 1.384 . S
H276 C282 0.930 . S
H277 C286 0.930 . S
H278 C291 0.929 . S
H279 C289 0.929 . S
H280 C284 0.929 . S
H281 C290 0.929 . S
C282 H276 0.930 . S
C282 C283 1.367 . S
C282 C290 1.378 . S
C283 C282 1.367 . S
C283 C291 1.433 . S
C284 H280 0.929 . S
C284 C286 1.378 . S
C284 C288 1.350 . S
C285 C288 1.463 . S
C285 C290 1.350 . S
C285 N293 1.427 . S
C286 H277 0.930 . S
C286 C284 1.378 . S
C286 C287 1.367 . S
C287 C286 1.367 . S
C287 C289 1.433 . S
C288 C284 1.350 . S
C288 C285 1.463 . S
C288 N292 1.427 . S
C289 H279 0.929 . S
C289 C287 1.433 . S
C289 N292 1.384 . S
C290 H281 0.929 . S
C290 C282 1.378 . S
C290 C285 1.350 . S
C291 H278 0.929 . S
C291 C283 1.433 . S
C291 N293 1.384 . S
N292 C288 1.427 . S
N292 C289 1.384 . S
N293 C285 1.427 . S
N293 C291 1.384 . S
H294 C300 0.930 . S
H295 C304 0.930 . S
H296 C309 0.929 . S
H297 C307 0.929 . S
H298 C302 0.929 . S
H299 C308 0.929 . S
C300 H294 0.930 . S
C300 C301 1.367 . S
C300 C308 1.378 . S
C301 C300 1.367 . S
C301 C309 1.433 . S
C302 H298 0.929 . S
C302 C304 1.378 . S
C302 C306 1.350 . S
C303 C306 1.463 . S
C303 C308 1.350 . S
C303 N311 1.427 . S
C304 H295 0.930 . S
C304 C302 1.378 . S
C304 C305 1.367 . S
C305 C304 1.367 . S
C305 C307 1.433 . S
C306 C302 1.350 . S
C306 C303 1.463 . S
C306 N310 1.427 . S
C307 H297 0.929 . S
C307 C305 1.433 . S
C307 N310 1.384 . S
C308 H299 0.929 . S
C308 C300 1.378 . S
C308 C303 1.350 . S
C309 H296 0.929 . S
C309 C301 1.433 . S
C309 N311 1.384 . S
N310 C306 1.427 . S
N310 C307 1.384 . S
N311 C303 1.427 . S
N311 C309 1.384 . S
H312 C318 0.930 . S
H313 C322 0.930 . S
H314 C327 0.929 . S
H315 C325 0.929 . S
H316 C320 0.929 . S
H317 C326 0.929 . S
C318 H312 0.930 . S
C318 C319 1.367 . S
C318 C326 1.378 . S
C319 C318 1.367 . S
C319 C327 1.433 . S
C320 H316 0.929 . S
C320 C322 1.378 . S
C320 C324 1.350 . S
C321 C324 1.463 . S
C321 C326 1.350 . S
C321 N329 1.427 . S
C322 H313 0.930 . S
C322 C320 1.378 . S
C322 C323 1.367 . S
C323 C322 1.367 . S
C323 C325 1.433 . S
C324 C320 1.350 . S
C324 C321 1.463 . S
C324 N328 1.427 . S
C325 H315 0.929 . S
C325 C323 1.433 . S
C325 N328 1.384 . S
C326 H317 0.929 . S
C326 C318 1.378 . S
C326 C321 1.350 . S
C327 H314 0.929 . S
C327 C319 1.433 . S
C327 N329 1.384 . S
N328 C324 1.427 . S
N328 C325 1.384 . S
N329 C321 1.427 . S
N329 C327 1.384 . S
H330 C336 0.930 . S
H331 C340 0.930 . S
H332 C345 0.929 . S
H333 C343 0.929 . S
H334 C338 0.929 . S
H335 C344 0.929 . S
C336 H330 0.930 . S
C336 C337 1.367 . S
C336 C344 1.378 . S
C337 C336 1.367 . S
C337 C345 1.433 . S
C338 H334 0.929 . S
C338 C340 1.378 . S
C338 C342 1.350 . S
C339 C342 1.463 . S
C339 C344 1.350 . S
C339 N347 1.427 . S
C340 H331 0.930 . S
C340 C338 1.378 . S
C340 C341 1.367 . S
C341 C340 1.367 . S
C341 C343 1.433 . S
C342 C338 1.350 . S
C342 C339 1.463 . S
C342 N346 1.427 . S
C343 H333 0.929 . S
C343 C341 1.433 . S
C343 N346 1.384 . S
C344 H335 0.929 . S
C344 C336 1.378 . S
C344 C339 1.350 . S
C345 H332 0.929 . S
C345 C337 1.433 . S
C345 N347 1.384 . S
N346 C342 1.427 . S
N346 C343 1.384 . S
N347 C339 1.427 . S
N347 C345 1.384 . S
H348 C354 0.930 . S
H349 C358 0.930 . S
H350 C363 0.929 . S
H351 C361 0.929 . S
H352 C356 0.929 . S
H353 C362 0.929 . S
C354 H348 0.930 . S
C354 C355 1.367 . S
C354 C362 1.378 . S
C355 C354 1.367 . S
C355 C363 1.433 . S
C356 H352 0.929 . S
C356 C358 1.378 . S
C356 C360 1.350 . S
C357 C360 1.463 . S
C357 C362 1.350 . S
C357 N365 1.427 . S
C358 H349 0.930 . S
C358 C356 1.378 . S
C358 C359 1.367 . S
C359 C358 1.367 . S
C359 C361 1.433 . S
C360 C356 1.350 . S
C360 C357 1.463 . S
C360 N364 1.427 . S
C361 H351 0.929 . S
C361 C359 1.433 . S
C361 N364 1.384 . S
C362 H353 0.929 . S
C362 C354 1.378 . S
C362 C357 1.350 . S
C363 H350 0.929 . S
C363 C355 1.433 . S
C363 N365 1.384 . S
N364 C360 1.427 . S
N364 C361 1.384 . S
N365 C357 1.427 . S
N365 C363 1.384 . S
H366 C372 0.930 . S
H367 C376 0.930 . S
H368 C381 0.929 . S
H369 C379 0.929 . S
H370 C374 0.929 . S
H371 C380 0.929 . S
C372 H366 0.930 . S
C372 C373 1.367 . S
C372 C380 1.378 . S
C373 C372 1.367 . S
C373 C381 1.433 . S
C374 H370 0.929 . S
C374 C376 1.378 . S
C374 C378 1.350 . S
C375 C378 1.463 . S
C375 C380 1.350 . S
C375 N383 1.427 . S
C376 H367 0.930 . S
C376 C374 1.378 . S
C376 C377 1.367 . S
C377 C376 1.367 . S
C377 C379 1.433 . S
C378 C374 1.350 . S
C378 C375 1.463 . S
C378 N382 1.427 . S
C379 H369 0.929 . S
C379 C377 1.433 . S
C379 N382 1.384 . S
C380 H371 0.929 . S
C380 C372 1.378 . S
C380 C375 1.350 . S
C381 H368 0.929 . S
C381 C373 1.433 . S
C381 N383 1.384 . S
N382 C378 1.427 . S
N382 C379 1.384 . S
N383 C375 1.427 . S
N383 C381 1.384 . S
H384 C390 0.930 . S
H385 C394 0.930 . S
H386 C399 0.929 1_554 S
H387 C397 0.929 1_556 S
H388 C392 0.929 . S
H389 C398 0.929 . S
C390 H384 0.930 . S
C390 C391 1.367 . S
C390 C398 1.378 . S
C391 C390 1.367 . S
C391 C399 1.433 . S
C392 H388 0.929 . S
C392 C394 1.378 . S
C392 C396 1.350 . S
C393 C396 1.463 1_566 S
C393 C398 1.350 . S
C393 N401 1.427 1_556 S
C394 H385 0.930 . S
C394 C392 1.378 . S
C394 C395 1.367 . S
C395 C394 1.367 . S
C395 C397 1.433 . S
C396 C392 1.350 . S
C396 C393 1.463 1_544 S
C396 N400 1.427 1_554 S
C397 H387 0.929 1_554 S
C397 C395 1.433 . S
C397 N400 1.384 1_554 S
C398 H389 0.929 . S
C398 C390 1.378 . S
C398 C393 1.350 . S
C399 H386 0.929 1_556 S
C399 C391 1.433 . S
C399 N401 1.384 1_556 S
N400 C396 1.427 1_556 S
N400 C397 1.384 1_556 S
N401 C393 1.427 1_554 S
N401 C399 1.384 1_554 S
H402 C408 0.930 . S
H403 C412 0.930 . S
H404 C417 0.929 . S
H405 C415 0.929 . S
H406 C410 0.929 . S
H407 C416 0.929 . S
C408 H402 0.930 . S
C408 C409 1.367 . S
C408 C416 1.378 . S
C409 C408 1.367 . S
C409 C417 1.433 . S
C410 H406 0.929 . S
C410 C412 1.378 . S
C410 C414 1.350 . S
C411 C414 1.463 . S
C411 C416 1.350 . S
C411 N419 1.427 . S
C412 H403 0.930 . S
C412 C410 1.378 . S
C412 C413 1.367 . S
C413 C412 1.367 . S
C413 C415 1.433 . S
C414 C410 1.350 . S
C414 C411 1.463 . S
C414 N418 1.427 . S
C415 H405 0.929 . S
C415 C413 1.433 . S
C415 N418 1.384 . S
C416 H407 0.929 . S
C416 C408 1.378 . S
C416 C411 1.350 . S
C417 H404 0.929 . S
C417 C409 1.433 . S
C417 N419 1.384 . S
N418 C414 1.427 . S
N418 C415 1.384 . S
N419 C411 1.427 . S
N419 C417 1.384 . S
H420 C426 0.930 . S
H421 C430 0.930 . S
H422 C435 0.929 . S
H423 C433 0.929 . S
H424 C428 0.929 . S
H425 C434 0.929 . S
C426 H420 0.930 . S
C426 C427 1.367 . S
C426 C434 1.378 . S
C427 C426 1.367 . S
C427 C435 1.433 . S
C428 H424 0.929 . S
C428 C430 1.378 . S
C428 C432 1.350 . S
C429 C432 1.463 1_655 S
C429 C434 1.350 . S
C429 N437 1.427 . S
C430 H421 0.930 . S
C430 C428 1.378 . S
C430 C431 1.367 . S
C431 C430 1.367 . S
C431 C433 1.433 . S
C432 C428 1.350 . S
C432 C429 1.463 1_455 S
C432 N436 1.427 . S
C433 H423 0.929 . S
C433 C431 1.433 . S
C433 N436 1.384 . S
C434 H425 0.929 . S
C434 C426 1.378 . S
C434 C429 1.350 . S
C435 H422 0.929 . S
C435 C427 1.433 . S
C435 N437 1.384 . S
N436 C432 1.427 . S
N436 C433 1.384 . S
N437 C429 1.427 . S
N437 C435 1.384 . S
H438 C444 0.930 . S
H439 C448 0.930 . S
H440 C453 0.929 1_556 S
H441 C451 0.929 1_554 S
H442 C446 0.929 . S
H443 C452 0.929 . S
C444 H438 0.930 . S
C444 C445 1.367 . S
C444 C452 1.378 . S
C445 C444 1.367 . S
C445 C453 1.433 . S
C446 H442 0.929 . S
C446 C448 1.378 . S
C446 C450 1.350 . S
C447 C450 1.463 1_564 S
C447 C452 1.350 . S
C447 N455 1.427 1_554 S
C448 H439 0.930 . S
C448 C446 1.378 . S
C448 C449 1.367 . S
C449 C448 1.367 . S
C449 C451 1.433 . S
C450 C446 1.350 . S
C450 C447 1.463 1_546 S
C450 N454 1.427 1_556 S
C451 H441 0.929 1_556 S
C451 C449 1.433 . S
C451 N454 1.384 1_556 S
C452 H443 0.929 . S
C452 C444 1.378 . S
C452 C447 1.350 . S
C453 H440 0.929 1_554 S
C453 C445 1.433 . S
C453 N455 1.384 1_554 S
N454 C450 1.427 1_554 S
N454 C451 1.384 1_554 S
N455 C447 1.427 1_556 S
N455 C453 1.384 1_556 S
H456 C462 0.930 . S
H457 C466 0.930 . S
H458 C471 0.929 . S
H459 C469 0.929 . S
H460 C464 0.929 . S
H461 C470 0.929 . S
C462 H456 0.930 . S
C462 C463 1.367 . S
C462 C470 1.378 . S
C463 C462 1.367 . S
C463 C471 1.433 . S
C464 H460 0.929 . S
C464 C466 1.378 . S
C464 C468 1.350 . S
C465 C468 1.463 . S
C465 C470 1.350 . S
C465 N473 1.427 . S
C466 H457 0.930 . S
C466 C464 1.378 . S
C466 C467 1.367 . S
C467 C466 1.367 . S
C467 C469 1.433 . S
C468 C464 1.350 . S
C468 C465 1.463 . S
C468 N472 1.427 . S
C469 H459 0.929 . S
C469 C467 1.433 . S
C469 N472 1.384 . S
C470 H461 0.929 . S
C470 C462 1.378 . S
C470 C465 1.350 . S
C471 H458 0.929 . S
C471 C463 1.433 . S
C471 N473 1.384 . S
N472 C468 1.427 . S
N472 C469 1.384 . S
N473 C465 1.427 . S
N473 C471 1.384 . S
H474 C480 0.930 . S
H475 C484 0.930 . S
H476 C489 0.929 . S
H477 C487 0.929 . S
H478 C482 0.929 . S
H479 C488 0.929 . S
C480 H474 0.930 . S
C480 C481 1.367 . S
C480 C488 1.378 . S
C481 C480 1.367 . S
C481 C489 1.433 . S
C482 H478 0.929 . S
C482 C484 1.378 . S
C482 C486 1.350 . S
C483 C486 1.463 1_455 S
C483 C488 1.350 . S
C483 N491 1.427 . S
C484 H475 0.930 . S
C484 C482 1.378 . S
C484 C485 1.367 . S
C485 C484 1.367 . S
C485 C487 1.433 . S
C486 C482 1.350 . S
C486 C483 1.463 1_655 S
C486 N490 1.427 . S
C487 H477 0.929 . S
C487 C485 1.433 . S
C487 N490 1.384 . S
C488 H479 0.929 . S
C488 C480 1.378 . S
C488 C483 1.350 . S
C489 H476 0.929 . S
C489 C481 1.433 . S
C489 N491 1.384 . S
N490 C486 1.427 . S
N490 C487 1.384 . S
N491 C483 1.427 . S
N491 C489 1.384 . S
H492 C498 0.930 . S
H493 C502 0.930 . S
H494 C507 0.929 . S
H495 C505 0.929 . S
H496 C500 0.929 . S
H497 C506 0.929 . S
C498 H492 0.930 . S
C498 C499 1.367 . S
C498 C506 1.378 . S
C499 C498 1.367 . S
C499 C507 1.433 1_556 S
C500 H496 0.929 . S
C500 C502 1.378 . S
C500 C504 1.350 . S
C501 C504 1.463 1_556 S
C501 C506 1.350 . S
C501 N509 1.427 1_556 S
C502 H493 0.930 . S
C502 C500 1.378 . S
C502 C503 1.367 . S
C503 C502 1.367 . S
C503 C505 1.433 1_554 S
C504 C500 1.350 . S
C504 C501 1.463 1_554 S
C504 N508 1.427 1_554 S
C505 H495 0.929 . S
C505 C503 1.433 1_556 S
C505 N508 1.384 . S
C506 H497 0.929 . S
C506 C498 1.378 . S
C506 C501 1.350 . S
C507 H494 0.929 . S
C507 C499 1.433 1_554 S
C507 N509 1.384 . S
N508 C504 1.427 1_556 S
N508 C505 1.384 . S
N509 C501 1.427 1_554 S
N509 C507 1.384 . S
H510 C516 0.930 . S
H511 C520 0.930 1_455 S
H512 C525 0.929 . S
H513 C523 0.929 . S
H514 C518 0.929 . S
H515 C524 0.929 . S
C516 H510 0.930 . S
C516 C517 1.367 . S
C516 C524 1.378 . S
C517 C516 1.367 . S
C517 C525 1.433 . S
C518 H514 0.929 . S
C518 C520 1.378 . S
C518 C522 1.350 . S
C519 C522 1.463 . S
C519 C524 1.350 . S
C519 N527 1.427 . S
C520 H511 0.930 1_655 S
C520 C518 1.378 . S
C520 C521 1.367 . S
C521 C520 1.367 . S
C521 C523 1.433 . S
C522 C518 1.350 . S
C522 C519 1.463 . S
C522 N526 1.427 . S
C523 H513 0.929 . S
C523 C521 1.433 . S
C523 N526 1.384 . S
C524 H515 0.929 . S
C524 C516 1.378 . S
C524 C519 1.350 . S
C525 H512 0.929 . S
C525 C517 1.433 . S
C525 N527 1.384 . S
N526 C522 1.427 . S
N526 C523 1.384 . S
N527 C519 1.427 . S
N527 C525 1.384 . S
H528 C534 0.930 . S
H529 C538 0.930 . S
H530 C543 0.929 . S
H531 C541 0.929 . S
H532 C536 0.929 . S
H533 C542 0.929 . S
C534 H528 0.930 . S
C534 C535 1.367 . S
C534 C542 1.378 . S
C535 C534 1.367 . S
C535 C543 1.433 . S
C536 H532 0.929 . S
C536 C538 1.378 . S
C536 C540 1.350 . S
C537 C540 1.463 . S
C537 C542 1.350 . S
C537 N545 1.427 . S
C538 H529 0.930 . S
C538 C536 1.378 . S
C538 C539 1.367 . S
C539 C538 1.367 . S
C539 C541 1.433 . S
C540 C536 1.350 . S
C540 C537 1.463 . S
C540 N544 1.427 . S
C541 H531 0.929 . S
C541 C539 1.433 . S
C541 N544 1.384 . S
C542 H533 0.929 . S
C542 C534 1.378 . S
C542 C537 1.350 . S
C543 H530 0.929 . S
C543 C535 1.433 . S
C543 N545 1.384 . S
N544 C540 1.427 . S
N544 C541 1.384 . S
N545 C537 1.427 . S
N545 C543 1.384 . S
H546 C552 0.930 . S
H547 C556 0.930 1_455 S
H548 C561 0.929 . S
H549 C559 0.929 . S
H550 C554 0.929 1_554 S
H551 C560 0.929 1_556 S
C552 H546 0.930 . S
C552 C553 1.367 . S
C552 C560 1.378 . S
C553 C552 1.367 . S
C553 C561 1.433 . S
C554 H550 0.929 1_556 S
C554 C556 1.378 . S
C554 C558 1.350 . S
C555 C558 1.463 1_554 S
C555 C560 1.350 . S
C555 N563 1.427 . S
C556 H547 0.930 1_655 S
C556 C554 1.378 . S
C556 C557 1.367 . S
C557 C556 1.367 . S
C557 C559 1.433 . S
C558 C554 1.350 . S
C558 C555 1.463 1_556 S
C558 N562 1.427 . S
C559 H549 0.929 . S
C559 C557 1.433 . S
C559 N562 1.384 . S
C560 H551 0.929 1_554 S
C560 C552 1.378 . S
C560 C555 1.350 . S
C561 H548 0.929 . S
C561 C553 1.433 . S
C561 N563 1.384 . S
N562 C558 1.427 . S
N562 C559 1.384 . S
N563 C555 1.427 . S
N563 C561 1.384 . S
H564 C570 0.930 . S
H565 C574 0.930 . S
H566 C579 0.929 . S
H567 C577 0.929 . S
H568 C572 0.929 . S
H569 C578 0.929 . S
C570 H564 0.930 . S
C570 C571 1.367 . S
C570 C578 1.378 . S
C571 C570 1.367 . S
C571 C579 1.433 . S
C572 H568 0.929 . S
C572 C574 1.378 . S
C572 C576 1.350 . S
C573 C576 1.463 . S
C573 C578 1.350 . S
C573 N581 1.427 . S
C574 H565 0.930 . S
C574 C572 1.378 . S
C574 C575 1.367 . S
C575 C574 1.367 . S
C575 C577 1.433 . S
C576 C572 1.350 . S
C576 C573 1.463 . S
C576 N580 1.427 . S
C577 H567 0.929 . S
C577 C575 1.433 . S
C577 N580 1.384 . S
C578 H569 0.929 . S
C578 C570 1.378 . S
C578 C573 1.350 . S
C579 H566 0.929 . S
C579 C571 1.433 . S
C579 N581 1.384 . S
N580 C576 1.427 . S
N580 C577 1.384 . S
N581 C573 1.427 . S
N581 C579 1.384 . S
H582 C588 0.930 1_565 S
H583 C592 0.930 . S
H584 C597 0.929 . S
H585 C595 0.929 . S
H586 C590 0.929 . S
H587 C596 0.929 . S
C588 H582 0.930 1_545 S
C588 C589 1.367 . S
C588 C596 1.378 . S
C589 C588 1.367 . S
C589 C597 1.433 . S
C590 H586 0.929 . S
C590 C592 1.378 . S
C590 C594 1.350 . S
C591 C594 1.463 . S
C591 C596 1.350 . S
C591 N599 1.427 . S
C592 H583 0.930 . S
C592 C590 1.378 . S
C592 C593 1.367 . S
C593 C592 1.367 . S
C593 C595 1.433 . S
C594 C590 1.350 . S
C594 C591 1.463 . S
C594 N598 1.427 . S
C595 H585 0.929 . S
C595 C593 1.433 . S
C595 N598 1.384 . S
C596 H587 0.929 . S
C596 C588 1.378 . S
C596 C591 1.350 . S
C597 H584 0.929 . S
C597 C589 1.433 . S
C597 N599 1.384 . S
N598 C594 1.427 . S
N598 C595 1.384 . S
N599 C591 1.427 . S
N599 C597 1.384 . S
C175 C49 1.303 . S
C179 C7 1.309 . S
C193 C21 1.306 . S
C197 C63 1.307 . S
C211 C77 1.308 . S
C215 C35 1.306 . S
C229 C91 1.310 . S
C233 C133 1.303 . S
C247 C147 1.304 . S
C251 C105 1.309 . S
C265 C119 1.309 . S
C269 C161 1.305 . S
C283 C118 1.581 . S
C287 C6 1.587 . S
C301 C20 1.589 . S
C305 C132 1.580 . S
C319 C34 1.593 . S
C323 C146 1.582 . S
C337 C48 1.584 . S
C341 C160 1.584 . S
C355 C90 1.587 . S
C359 C62 1.581 . S
C373 C104 1.592 . S
C377 C76 1.581 . S
C391 C106 1.604 . S
C395 C8 1.608 . S
C409 C22 1.605 . S
C413 C120 1.612 . S
C427 C36 1.614 . S
C431 C134 1.607 . S
C445 C50 1.604 . S
C449 C148 1.608 . S
C463 C162 1.606 . S
C467 C64 1.604 . S
C481 C78 1.614 . S
C485 C92 1.606 . S
C499 C149 1.481 1_455 S
C503 C9 1.480 . S
C517 C163 1.477 1_545 S
C521 C23 1.479 1_655 S
C535 C93 1.477 . S
C539 C37 1.478 1_565 S
C553 C51 1.477 . S
C557 C107 1.480 1_655 S
C571 C65 1.481 1_455 S
C575 C121 1.480 1_565 S
C589 C79 1.479 1_545 S
C593 C135 1.477 . S
