# Generated by pormake.
# Topology ukg, (4)-cn, num edge types: 1
# Building blocks:
#     Node 0, Type 0, BuildingBlock: GALJAG_clean_sbu_0, # of connection points: 4
#     Node 1, Type 0, BuildingBlock: GALJAG_clean_sbu_0, # of connection points: 4
#     Node 2, Type 0, BuildingBlock: GALJAG_clean_sbu_0, # of connection points: 4
#     Node 3, Type 0, BuildingBlock: GALJAG_clean_sbu_0, # of connection points: 4
#     Node 4, Type 0, BuildingBlock: GALJAG_clean_sbu_0, # of connection points: 4
#     Node 5, Type 0, BuildingBlock: GALJAG_clean_sbu_0, # of connection points: 4
#     Node 6, Type 0, BuildingBlock: GALJAG_clean_sbu_0, # of connection points: 4
#     Node 7, Type 0, BuildingBlock: GALJAG_clean_sbu_0, # of connection points: 4
#     Edge 8, Type (0, 0), BuildingBlock: CIFDUS_clean_linker_0, # of connection points: 2
#     Edge 9, Type (0, 0), BuildingBlock: CIFDUS_clean_linker_0, # of connection points: 2
#     Edge 10, Type (0, 0), BuildingBlock: CIFDUS_clean_linker_0, # of connection points: 2
#     Edge 11, Type (0, 0), BuildingBlock: CIFDUS_clean_linker_0, # of connection points: 2
#     Edge 12, Type (0, 0), BuildingBlock: CIFDUS_clean_linker_0, # of connection points: 2
#     Edge 13, Type (0, 0), BuildingBlock: CIFDUS_clean_linker_0, # of connection points: 2
#     Edge 14, Type (0, 0), BuildingBlock: CIFDUS_clean_linker_0, # of connection points: 2
#     Edge 15, Type (0, 0), BuildingBlock: CIFDUS_clean_linker_0, # of connection points: 2
#     Edge 16, Type (0, 0), BuildingBlock: CIFDUS_clean_linker_0, # of connection points: 2
#     Edge 17, Type (0, 0), BuildingBlock: CIFDUS_clean_linker_0, # of connection points: 2
#     Edge 18, Type (0, 0), BuildingBlock: CIFDUS_clean_linker_0, # of connection points: 2
#     Edge 19, Type (0, 0), BuildingBlock: CIFDUS_clean_linker_0, # of connection points: 2
#     Edge 20, Type (0, 0), BuildingBlock: CIFDUS_clean_linker_0, # of connection points: 2
#     Edge 21, Type (0, 0), BuildingBlock: CIFDUS_clean_linker_0, # of connection points: 2
#     Edge 22, Type (0, 0), BuildingBlock: CIFDUS_clean_linker_0, # of connection points: 2
#     Edge 23, Type (0, 0), BuildingBlock: CIFDUS_clean_linker_0, # of connection points: 2
# Relax obj value: 0.111
# Max RMSD: 0.188
# Mean RMSD: 0.187
data_MOF--net-ukg--node1-GALJAG_clean_sbu_0--edge1-CIFDUS_clean_linker_0
_symmetry_space_group_name_H-M    P1
_symmetry_Int_Tables_number       1
_symmetry_cell_setting            triclinic
loop_
_symmetry_equiv_pos_as_xyz
'x, y, z'
_cell_length_a     26.48872
_cell_length_b     26.503163
_cell_length_c     34.034258
_cell_angle_alpha  90.058996
_cell_angle_beta   89.8875
_cell_angle_gamma 89.93102
loop_
_atom_site_label
_atom_site_type_symbol
_atom_site_fract_x
_atom_site_fract_y
_atom_site_fract_z
_atom_type_partial_charge
In0 In 0.01045 0.63719 0.14575 0.0
O1 O 0.97789 0.61593 0.08547 0.0
O2 O 0.04663 0.58157 0.10405 0.0
C3 C 0.95318 0.7132 0.17308 0.0
C4 C 0.0995 0.68468 0.14697 0.0
C5 C 0.97354 0.56773 0.19521 0.0
O6 O 0.95945 0.70711 0.13641 0.0
O7 O 0.97425 0.68067 0.19441 0.0
O8 O 0.01261 0.59304 0.20342 0.0
O9 O 0.95487 0.57616 0.16175 0.0
C10 C 0.01295 0.58472 0.07799 0.0
O11 O 0.09397 0.64113 0.16155 0.0
O12 O 0.06068 0.70334 0.13131 0.0
In13 In 0.31718 0.50768 0.64763 0.0
O14 O 0.31928 0.58746 0.67225 0.0
O15 O 0.30735 0.57803 0.61065 0.0
C16 C 0.34622 0.45339 0.71071 0.0
C17 C 0.38633 0.48403 0.59224 0.0
C18 C 0.21659 0.4935 0.65103 0.0
O19 O 0.36043 0.49843 0.70555 0.0
O20 O 0.31826 0.4361 0.68399 0.0
O21 O 0.24441 0.46548 0.62992 0.0
O22 O 0.23961 0.52774 0.66932 0.0
C23 C 0.31046 0.60802 0.63941 0.0
O24 O 0.34001 0.47345 0.58838 0.0
O25 O 0.39746 0.50566 0.6241 0.0
In26 In 0.46881 0.83749 0.16079 0.0
O27 O 0.50781 0.85495 0.10239 0.0
O28 O 0.44593 0.90127 0.12031 0.0
C29 C 0.51647 0.75721 0.1913 0.0
C30 C 0.37824 0.79488 0.15122 0.0
C31 C 0.5059 0.90128 0.21458 0.0
O32 O 0.5232 0.76958 0.15567 0.0
O33 O 0.48675 0.7853 0.21028 0.0
O34 O 0.46322 0.88069 0.2191 0.0
O35 O 0.52804 0.89118 0.18266 0.0
C36 C 0.47984 0.89261 0.09501 0.0
O37 O 0.38335 0.83632 0.1693 0.0
O38 O 0.41825 0.77654 0.13701 0.0
In39 In 0.17966 0.98545 0.64375 0.0
O40 O 0.17776 0.91048 0.67622 0.0
O41 O 0.20621 0.91126 0.61758 0.0
C42 C 0.14236 0.04324 0.70236 0.0
C43 C 0.11453 -0.00569 0.58289 0.0
C44 C 0.27649 0.01541 0.64969 0.0
O45 O 0.13197 -0.00313 0.69948 0.0
O46 O 0.17006 0.06021 0.67534 0.0
O47 O 0.24579 0.03772 0.62713 0.0
O48 O 0.25843 0.97805 0.66767 0.0
C49 C 0.19756 0.8859 0.64828 0.0
O50 O 0.16078 0.00534 0.57987 0.0
O51 O 0.10133 0.97931 0.61649 0.0
In52 In 0.96654 0.34079 0.83056 0.0
O53 O 0.88251 0.33673 0.81564 0.0
O54 O 0.91449 0.27835 0.85077 0.0
C55 C 0.98846 0.38011 0.75923 0.0
C56 C 0.96824 0.40545 0.89243 0.0
C57 C 0.03884 0.26927 0.82856 0.0
O58 O 0.9723 0.33577 0.76347 0.0
O59 O 0.98995 0.40549 0.79054 0.0
O60 O 0.04847 0.31544 0.82329 0.0
O61 O -0.00618 0.26017 0.83835 0.0
C62 C 0.8759 0.29591 0.83407 0.0
O63 O 0.00115 0.37148 0.88776 0.0
O64 O 0.93455 0.40613 0.86643 0.0
In65 In 0.6723 0.47319 0.37402 0.0
O66 O 0.65597 0.39375 0.35207 0.0
O67 O 0.71596 0.40527 0.39348 0.0
C68 C 0.62378 0.54362 0.3325 0.0
C69 C 0.61418 0.47384 0.43865 0.0
C70 C 0.7638 0.49709 0.34686 0.0
O71 O 0.62608 0.49829 0.32067 0.0
O72 O 0.64517 0.55248 0.3649 0.0
O73 O 0.7508 0.50912 0.38164 0.0
O74 O 0.73046 0.4748 0.32689 0.0
C75 C 0.69183 0.37488 0.37193 0.0
O76 O 0.65834 0.49255 0.43881 0.0
O77 O 0.60062 0.45461 0.40636 0.0
In78 In 0.50185 0.15627 0.85922 0.0
O79 O 0.46067 0.13645 0.91675 0.0
O80 O 0.52636 0.09486 0.90203 0.0
C81 C 0.43445 0.23119 0.84775 0.0
C82 C 0.59482 0.19686 0.859 0.0
C83 C 0.4837 0.10317 0.79292 0.0
O84 O 0.42264 0.18516 0.8449 0.0
O85 O 0.47895 0.23897 0.85935 0.0
O86 O 0.48415 0.08336 0.82657 0.0
O87 O 0.49454 0.14943 0.79246 0.0
C88 C 0.49046 0.10116 0.92581 0.0
O89 O 0.58443 0.15746 0.83981 0.0
O90 O 0.55899 0.21458 0.87914 0.0
In91 In 0.83022 0.00504 0.36309 0.0
O92 O 0.85145 0.08486 0.3451 0.0
O93 O 0.79343 0.07313 0.38867 0.0
C94 C 0.86276 0.92734 0.32033 0.0
C95 C 0.89118 -0.00438 0.4252 0.0
C96 C 0.73895 -0.00128 0.33121 0.0
O97 O 0.87323 0.97248 0.31068 0.0
O98 O 0.83782 0.9223 0.35186 0.0
O99 O 0.74675 0.98217 0.36585 0.0
O100 O 0.77706 0.01693 0.31382 0.0
C101 C 0.81811 0.10388 0.36767 0.0
O102 O 0.84496 0.98271 0.42691 0.0
O103 O 0.9057 0.0127 0.39235 0.0
H104 H 0.0429 0.41998 0.94595 0.0
H105 H 0.89595 0.47444 0.91162 0.0
H106 H 0.89738 0.53632 0.96485 0.0
H107 H 0.93982 0.57411 0.02216 0.0
H108 H 0.08701 0.51954 0.05597 0.0
H109 H 0.08622 0.45918 1.00189 0.0
C110 C 0.01118 0.44534 0.95019 0.0
C111 C 0.96931 0.44242 0.92502 0.0
C112 C 0.01237 0.4811 0.98069 0.0
C113 C 0.92863 0.47582 0.93068 0.0
C114 C 0.92942 0.5113 0.96108 0.0
C115 C 0.97186 0.5493 0.01744 0.0
C116 C 0.01334 0.55134 0.04309 0.0
C117 C 0.97106 0.51426 0.98635 0.0
C118 C 0.05453 0.51877 0.03669 0.0
C119 C 0.0541 0.48408 0.00581 0.0
H120 H 0.48535 0.51092 0.59247 0.0
H121 H 0.3726 0.43588 0.52219 0.0
H122 H 0.43414 0.42413 0.46936 0.0
H123 H 0.51858 0.43825 0.44214 0.0
H124 H 0.63123 0.51497 0.51136 0.0
H125 H 0.57108 0.52279 0.56581 0.0
C126 C 0.47433 0.49169 0.56569 0.0
C127 C 0.42439 0.47438 0.56121 0.0
C128 C 0.5098 0.48553 0.53527 0.0
C129 C 0.41071 0.44962 0.52633 0.0
C130 C 0.44588 0.44294 0.49611 0.0
C131 C 0.53017 0.45645 0.46922 0.0
C132 C 0.57932 0.47614 0.47267 0.0
C133 C 0.49532 0.46121 0.50011 0.0
C134 C 0.59364 0.49954 0.50796 0.0
C135 C 0.55923 0.50408 0.53905 0.0
H136 H 0.42663 0.97667 0.07599 0.0
H137 H 0.55097 0.8837 0.03715 0.0
H138 H 0.56589 0.9408 0.98193 0.0
H139 H 0.54383 0.01727 0.94492 0.0
H140 H 0.41908 0.10987 0.98346 0.0
H141 H 0.40432 0.05291 0.03881 0.0
C142 C 0.45689 0.96877 0.05536 0.0
C143 C 0.4876 0.92591 0.06063 0.0
C144 C 0.46535 0.00185 0.02381 0.0
C145 C 0.52672 0.91632 0.0337 0.0
C146 C 0.53534 0.94903 1.00219 0.0
C147 C 0.51354 0.02513 0.96554 0.0
C148 C 0.48269 0.06786 0.96018 0.0
C149 C 0.50501 0.99199 0.99705 0.0
C150 C 0.44342 0.07732 0.98699 0.0
C151 C 0.4349 0.04471 0.01858 0.0
H152 H 0.99022 0.02064 0.42627 0.0
H153 H 0.87109 0.96208 0.4998 0.0
H154 H 0.92974 0.95684 0.55522 0.0
H155 H 0.01497 0.96907 0.58263 0.0
H156 H 0.13368 0.02736 0.50849 0.0
H157 H 0.07494 0.03261 0.45339 0.0
C158 C 0.97699 0.00668 0.4544 0.0
C159 C 0.92631 0.99177 0.4589 0.0
C160 C 0.01084 0.00381 0.486 0.0
C161 C 0.90988 0.97377 0.49556 0.0
C162 C 0.94341 0.97081 0.52724 0.0
C163 C 0.02796 0.98299 0.55442 0.0
C164 C 0.07866 -0.00212 0.54968 0.0
C165 C -0.00603 0.98577 0.5228 0.0
C166 C 0.09491 0.01571 0.51293 0.0
C167 C 0.06133 0.0187 0.4814 0.0
H168 H 0.19373 0.64571 0.14539 0.0
H169 H 0.11152 0.78596 0.15147 0.0
H170 H 0.19078 0.83311 0.15431 0.0
H171 H 0.28375 0.83419 0.15497 0.0
H172 H 0.36552 0.69419 0.14293 0.0
H173 H 0.28637 0.64713 0.14227 0.0
C174 C 0.1934 0.68657 0.14746 0.0
C175 C 0.14731 0.71248 0.14855 0.0
C176 C 0.23896 0.7134 0.14782 0.0
C177 C 0.14689 0.76541 0.15058 0.0
C178 C 0.19207 0.79232 0.15224 0.0
C179 C 0.28402 0.79342 0.15215 0.0
C180 C 0.33008 0.76758 0.14915 0.0
C181 C 0.23836 0.76671 0.15084 0.0
C182 C 0.33028 0.71482 0.14509 0.0
C183 C 0.28513 0.68788 0.14487 0.0
H184 H 0.27232 0.66863 0.696 0.0
H185 H 0.31575 0.66626 0.57383 0.0
H186 H 0.28369 0.75222 0.56556 0.0
H187 H 0.24106 0.82682 0.59267 0.0
H188 H 0.19398 0.82756 0.71414 0.0
H189 H 0.22895 0.74299 0.72297 0.0
C190 C 0.27546 0.68732 0.66776 0.0
C191 C 0.29684 0.66163 0.63567 0.0
C192 C 0.25547 0.73595 0.66295 0.0
C193 C 0.29972 0.68564 0.59899 0.0
C194 C 0.28115 0.73456 0.5942 0.0
C195 C 0.23818 0.80833 0.62101 0.0
C196 C 0.21483 0.83328 0.65266 0.0
C197 C 0.25836 0.7598 0.62586 0.0
C198 C 0.21148 0.80897 0.68924 0.0
C199 C 0.23175 0.76077 0.69438 0.0
H200 H 0.6858 0.15433 0.84404 0.0
H201 H 0.6129 0.29689 0.86707 0.0
H202 H 0.69325 0.34096 0.85876 0.0
H203 H 0.78453 0.3388 0.84502 0.0
H204 H 0.85893 0.19556 0.82916 0.0
H205 H 0.77788 0.15168 0.83428 0.0
C206 C 0.68773 0.19501 0.84728 0.0
C207 C 0.64383 0.22248 0.85596 0.0
C208 C 0.73421 0.21986 0.84354 0.0
C209 C 0.64652 0.27507 0.86057 0.0
C210 C 0.6923 0.30027 0.85565 0.0
C211 C 0.78266 0.29804 0.84246 0.0
C212 C 0.827 0.27025 0.83626 0.0
C213 C 0.73636 0.27307 0.84704 0.0
C214 C 0.82486 0.21745 0.8338 0.0
C215 C 0.77868 0.19244 0.83676 0.0
H216 H 0.78663 0.33905 0.37147 0.0
H217 H 0.63089 0.29284 0.36482 0.0
H218 H 0.65699 0.20401 0.36334 0.0
H219 H 0.72415 0.14015 0.3659 0.0
H220 H 0.88014 0.18608 0.3661 0.0
H221 H 0.85418 0.27513 0.36795 0.0
C222 C 0.75855 0.30936 0.36967 0.0
C223 C 0.707 0.32183 0.36884 0.0
C224 C 0.77394 0.25885 0.36771 0.0
C225 C 0.67074 0.28364 0.36563 0.0
C226 C 0.68565 0.2331 0.36488 0.0
C227 C 0.75234 0.16983 0.36635 0.0
C228 C 0.80383 0.15724 0.36654 0.0
C229 C 0.73709 0.22037 0.36626 0.0
C230 C 0.84032 0.19543 0.36615 0.0
C231 C 0.82546 0.24606 0.36729 0.0
H232 H 0.80388 0.45296 0.28324 0.0
H233 H 0.83475 0.56649 0.37077 0.0
H234 H 0.91021 0.59269 0.33401 0.0
H235 H 0.95936 0.59091 0.27192 0.0
H236 H 0.92207 0.4814 0.18285 0.0
H237 H 0.85762 0.44503 0.22566 0.0
C238 C 0.82743 0.4831 0.29459 0.0
C239 C 0.81342 0.50846 0.32922 0.0
C240 C 0.8696 0.49844 0.27298 0.0
C241 C 0.84471 0.5467 0.34399 0.0
C242 C 0.88767 0.56172 0.32291 0.0
C243 C 0.9382 0.558 0.2626 0.0
C244 C 0.94533 0.53847 0.22452 0.0
C245 C 0.8995 0.53891 0.28669 0.0
C246 C 0.91714 0.49667 0.21216 0.0
C247 C 0.88011 0.47622 0.23647 0.0
H248 H 0.30613 0.36462 0.73429 0.0
H249 H 0.42287 0.47208 0.76228 0.0
H250 H 0.45618 0.41498 0.81244 0.0
H251 H 0.45802 0.33055 0.84224 0.0
H252 H 0.34224 0.22253 0.81286 0.0
H253 H 0.30178 0.28439 0.77009 0.0
C254 C 0.33855 0.37576 0.75168 0.0
C255 C 0.36261 0.42205 0.7442 0.0
C256 C 0.35754 0.34269 0.78024 0.0
C257 C 0.404 0.43643 0.76733 0.0
C258 C 0.42306 0.40378 0.79595 0.0
C259 C 0.42325 0.32094 0.82722 0.0
C260 C 0.40347 0.27183 0.83037 0.0
C261 C 0.40096 0.35625 0.80186 0.0
C262 C 0.35832 0.26 0.81084 0.0
C263 C 0.3354 0.29522 0.7861 0.0
H264 H 0.56826 0.97976 0.2063 0.0
H265 H 0.50599 0.87898 0.29281 0.0
H266 H 0.57073 0.90495 0.34015 0.0
H267 H 0.65377 0.94587 0.35214 0.0
H268 H 0.71444 0.04575 0.2637 0.0
H269 H 0.64153 0.03114 0.22225 0.0
C270 C 0.568 0.96477 0.23598 0.0
C271 C 0.53301 0.92749 0.24617 0.0
C272 C 0.6057 0.97904 0.26245 0.0
C273 C 0.53258 0.90817 0.28457 0.0
C274 C 0.56997 0.92251 0.31141 0.0
C275 C 0.65038 0.96512 0.32416 0.0
C276 C 0.69006 -0.00425 0.31059 0.0
C277 C 0.60814 0.95627 0.30002 0.0
C278 C 0.68497 0.02103 0.27449 0.0
C279 C 0.64321 0.01285 0.25069 0.0
H280 H 0.02027 0.16866 0.82717 0.0
H281 H 0.13276 0.27964 0.79654 0.0
H282 H 0.17753 0.21708 0.7569 0.0
H283 H 0.17759 0.13495 0.72351 0.0
H284 H 0.0642 0.0244 0.7527 0.0
H285 H 0.02672 0.08279 0.80035 0.0
C286 C 0.05531 0.17882 0.81267 0.0
C287 C 0.07284 0.22888 0.81442 0.0
C288 C 0.08 0.14307 0.78897 0.0
C289 C 0.11838 0.24141 0.79558 0.0
C290 C 0.14373 0.20578 0.77258 0.0
C291 C 0.14493 0.12349 0.74058 0.0
C292 C 0.12299 0.07592 0.73413 0.0
C293 C 0.12366 0.15721 0.76776 0.0
C294 C 0.08138 0.06107 0.75693 0.0
C295 C 0.05998 0.09443 0.78414 0.0
H296 H 0.01261 0.47543 0.7387 0.0
H297 H 0.02839 0.3207 0.70151 0.0
H298 H 0.09711 0.34432 0.65723 0.0
H299 H 0.16394 0.40592 0.6406 0.0
H300 H 0.1488 0.55982 0.68038 0.0
H301 H 0.06834 0.53992 0.71131 0.0
C302 C 0.02998 0.44723 0.71988 0.0
C303 C 0.01619 0.39641 0.72382 0.0
C304 C 0.0703 0.46084 0.69537 0.0
C305 C 0.0385 0.36017 0.69906 0.0
C306 C 0.07823 0.37356 0.67403 0.0
C307 C 0.14213 0.43535 0.65491 0.0
C308 C 0.16269 0.48392 0.65901 0.0
C309 C 0.09625 0.42333 0.67361 0.0
C310 C 0.13408 0.52187 0.67748 0.0
C311 C 0.08811 0.51053 0.69529 0.0
H312 H 0.61746 0.55545 0.25292 0.0
H313 H 0.57534 0.62344 0.36348 0.0
H314 H 0.53858 0.6952 0.32914 0.0
H315 H 0.52041 0.73951 0.26861 0.0
H316 H 0.56513 0.67626 0.15705 0.0
H317 H 0.59975 0.60189 0.1908 0.0
C318 C 0.59967 0.58583 0.26924 0.0
C319 C 0.59863 0.58424 0.31056 0.0
C320 C 0.57983 0.6279 0.24925 0.0
C321 C 0.57643 0.62402 0.33165 0.0
C322 C 0.55555 0.66505 0.31208 0.0
C323 C 0.53769 0.70948 0.25153 0.0
C324 C 0.54012 0.71318 0.21043 0.0
C325 C 0.55749 0.66756 0.27102 0.0
C326 C 0.56304 0.67423 0.18879 0.0
C327 C 0.58255 0.6317 0.20807 0.0
H328 H 0.44371 0.1454 0.72741 0.0
H329 H 0.47406 0.00204 0.78255 0.0
H330 H 0.41906 0.95978 0.73544 0.0
H331 H 0.3503 0.96641 0.68814 0.0
H332 H 0.31347 0.11053 0.6369 0.0
H333 H 0.38389 0.1496 0.67209 0.0
C334 C 0.43948 0.1047 0.72828 0.0
C335 C 0.46226 0.07684 0.75865 0.0
C336 C 0.40608 0.081 0.70213 0.0
C337 C 0.45645 0.02423 0.75962 0.0
C338 C 0.42485 0.00012 0.73282 0.0
C339 C 0.35852 0.00613 0.68387 0.0
C340 C 0.32631 0.03581 0.66063 0.0
C341 C 0.39754 0.02852 0.70537 0.0
C342 C 0.33767 0.087 0.65483 0.0
C343 C 0.37763 0.1094 0.67524 0.0
H344 H 0.91362 0.71695 0.24523 0.0
H345 H 0.93916 0.80821 0.14238 0.0
H346 H 0.91347 0.88397 0.17914 0.0
H347 H 0.88974 0.92447 0.2426 0.0
H348 H 0.86514 0.83041 0.34437 0.0
H349 H 0.88532 0.75552 0.30608 0.0
C350 C 0.91292 0.75336 0.23065 0.0
C351 C 0.9284 0.75722 0.19132 0.0
C352 C 0.89925 0.79629 0.25204 0.0
C353 C 0.92696 0.8044 0.17262 0.0
C354 C 0.91288 0.84768 0.19377 0.0
C355 C 0.88909 0.88755 0.25629 0.0
C356 C 0.87663 0.883 0.29637 0.0
C357 C 0.90016 0.84421 0.23384 0.0
C358 C 0.87494 0.83493 0.31365 0.0
C359 C 0.88629 0.79203 0.29177 0.0
loop_
_geom_bond_atom_site_label_1
_geom_bond_atom_site_label_2
_geom_bond_distance
_geom_bond_site_symmetry_2
_ccdc_geom_bond_type
In0 O1 2.293 1_455 S
In0 O2 2.327 . S
In0 O6 2.264 1_455 S
In0 O7 2.325 1_455 S
In0 O8 2.266 1_455 S
In0 O9 2.323 1_455 S
In0 O11 2.297 . S
In0 O12 2.329 . S
O1 In0 2.293 1_655 S
O1 C10 1.240 1_655 S
O2 In0 2.327 . S
O2 C10 1.252 . S
C3 O6 1.252 . S
C3 O7 1.260 . S
C4 O11 1.240 . S
C4 O12 1.252 . S
C5 O8 1.252 . S
C5 O9 1.260 . S
O6 In0 2.264 1_655 S
O6 C3 1.252 . S
O7 In0 2.325 1_655 S
O7 C3 1.260 . S
O8 In0 2.266 1_655 S
O8 C5 1.252 . S
O9 In0 2.323 1_655 S
O9 C5 1.260 . S
C10 O1 1.240 1_455 S
C10 O2 1.252 . S
O11 In0 2.297 . S
O11 C4 1.240 . S
O12 In0 2.329 . S
O12 C4 1.252 . S
In13 O14 2.294 . S
In13 O15 2.326 . S
In13 O19 2.266 . S
In13 O20 2.326 . S
In13 O21 2.266 . S
In13 O22 2.326 . S
In13 O24 2.294 . S
In13 O25 2.326 . S
O14 In13 2.294 . S
O14 C23 1.240 . S
O15 In13 2.326 . S
O15 C23 1.252 . S
C16 O19 1.252 . S
C16 O20 1.260 . S
C17 O24 1.240 . S
C17 O25 1.252 . S
C18 O21 1.252 . S
C18 O22 1.260 . S
O19 In13 2.266 . S
O19 C16 1.252 . S
O20 In13 2.326 . S
O20 C16 1.260 . S
O21 In13 2.266 . S
O21 C18 1.252 . S
O22 In13 2.326 . S
O22 C18 1.260 . S
C23 O14 1.240 . S
C23 O15 1.252 . S
O24 In13 2.294 . S
O24 C17 1.240 . S
O25 In13 2.326 . S
O25 C17 1.252 . S
In26 O27 2.294 . S
In26 O28 2.326 . S
In26 O32 2.266 . S
In26 O33 2.326 . S
In26 O34 2.266 . S
In26 O35 2.326 . S
In26 O37 2.294 . S
In26 O38 2.326 . S
O27 In26 2.294 . S
O27 C36 1.240 . S
O28 In26 2.326 . S
O28 C36 1.252 . S
C29 O32 1.252 . S
C29 O33 1.260 . S
C30 O37 1.240 . S
C30 O38 1.252 . S
C31 O34 1.252 . S
C31 O35 1.260 . S
O32 In26 2.266 . S
O32 C29 1.252 . S
O33 In26 2.326 . S
O33 C29 1.260 . S
O34 In26 2.266 . S
O34 C31 1.252 . S
O35 In26 2.326 . S
O35 C31 1.260 . S
C36 O27 1.240 . S
C36 O28 1.252 . S
O37 In26 2.294 . S
O37 C30 1.240 . S
O38 In26 2.326 . S
O38 C30 1.252 . S
In39 O40 2.297 . S
In39 O41 2.329 . S
In39 O45 2.266 1_565 S
In39 O46 2.323 1_565 S
In39 O47 2.264 1_565 S
In39 O48 2.325 1_565 S
In39 O50 2.293 1_565 S
In39 O51 2.327 . S
O40 In39 2.297 . S
O40 C49 1.240 . S
O41 In39 2.329 . S
O41 C49 1.252 . S
C42 O45 1.252 . S
C42 O46 1.260 . S
C43 O50 1.240 1_565 S
C43 O51 1.252 . S
C44 O47 1.252 . S
C44 O48 1.260 . S
O45 In39 2.266 1_545 S
O45 C42 1.252 . S
O46 In39 2.323 1_545 S
O46 C42 1.260 . S
O47 In39 2.264 1_545 S
O47 C44 1.252 . S
O48 In39 2.325 1_545 S
O48 C44 1.260 . S
C49 O40 1.240 . S
C49 O41 1.252 . S
O50 In39 2.293 1_545 S
O50 C43 1.240 1_545 S
O51 In39 2.327 . S
O51 C43 1.252 . S
In52 O53 2.297 . S
In52 O54 2.329 . S
In52 O58 2.266 1_655 S
In52 O59 2.323 1_655 S
In52 O60 2.264 1_655 S
In52 O61 2.325 1_655 S
In52 O63 2.293 1_655 S
In52 O64 2.327 . S
O53 In52 2.297 . S
O53 C62 1.240 . S
O54 In52 2.329 . S
O54 C62 1.252 . S
C55 O58 1.252 . S
C55 O59 1.260 . S
C56 O63 1.240 1_655 S
C56 O64 1.252 . S
C57 O60 1.252 . S
C57 O61 1.260 . S
O58 In52 2.266 1_455 S
O58 C55 1.252 . S
O59 In52 2.323 1_455 S
O59 C55 1.260 . S
O60 In52 2.264 1_455 S
O60 C57 1.252 . S
O61 In52 2.325 1_455 S
O61 C57 1.260 . S
C62 O53 1.240 . S
C62 O54 1.252 . S
O63 In52 2.293 1_455 S
O63 C56 1.240 1_455 S
O64 In52 2.327 . S
O64 C56 1.252 . S
In65 O66 2.294 . S
In65 O67 2.326 . S
In65 O71 2.266 . S
In65 O72 2.326 . S
In65 O73 2.266 . S
In65 O74 2.326 . S
In65 O76 2.294 . S
In65 O77 2.326 . S
O66 In65 2.294 . S
O66 C75 1.240 . S
O67 In65 2.326 . S
O67 C75 1.252 . S
C68 O71 1.252 . S
C68 O72 1.260 . S
C69 O76 1.240 . S
C69 O77 1.252 . S
C70 O73 1.252 . S
C70 O74 1.260 . S
O71 In65 2.266 . S
O71 C68 1.252 . S
O72 In65 2.326 . S
O72 C68 1.260 . S
O73 In65 2.266 . S
O73 C70 1.252 . S
O74 In65 2.326 . S
O74 C70 1.260 . S
C75 O66 1.240 . S
C75 O67 1.252 . S
O76 In65 2.294 . S
O76 C69 1.240 . S
O77 In65 2.326 . S
O77 C69 1.252 . S
In78 O79 2.294 . S
In78 O80 2.326 . S
In78 O84 2.266 . S
In78 O85 2.326 . S
In78 O86 2.266 . S
In78 O87 2.326 . S
In78 O89 2.294 . S
In78 O90 2.326 . S
O79 In78 2.294 . S
O79 C88 1.240 . S
O80 In78 2.326 . S
O80 C88 1.252 . S
C81 O84 1.252 . S
C81 O85 1.260 . S
C82 O89 1.240 . S
C82 O90 1.252 . S
C83 O86 1.252 . S
C83 O87 1.260 . S
O84 In78 2.266 . S
O84 C81 1.252 . S
O85 In78 2.326 . S
O85 C81 1.260 . S
O86 In78 2.266 . S
O86 C83 1.252 . S
O87 In78 2.326 . S
O87 C83 1.260 . S
C88 O79 1.240 . S
C88 O80 1.252 . S
O89 In78 2.294 . S
O89 C82 1.240 . S
O90 In78 2.326 . S
O90 C82 1.252 . S
In91 O92 2.297 . S
In91 O93 2.329 . S
In91 O97 2.266 1_545 S
In91 O98 2.323 1_545 S
In91 O99 2.264 1_545 S
In91 O100 2.325 1_545 S
In91 O102 2.293 1_545 S
In91 O103 2.327 . S
O92 In91 2.297 . S
O92 C101 1.240 . S
O93 In91 2.329 . S
O93 C101 1.252 . S
C94 O97 1.252 . S
C94 O98 1.260 . S
C95 O102 1.240 1_545 S
C95 O103 1.252 . S
C96 O99 1.252 . S
C96 O100 1.260 . S
O97 In91 2.266 1_565 S
O97 C94 1.252 . S
O98 In91 2.323 1_565 S
O98 C94 1.260 . S
O99 In91 2.264 1_565 S
O99 C96 1.252 . S
O100 In91 2.325 1_565 S
O100 C96 1.260 . S
C101 O92 1.240 . S
C101 O93 1.252 . S
O102 In91 2.293 1_565 S
O102 C95 1.240 1_565 S
O103 In91 2.327 . S
O103 C95 1.252 . S
H104 C110 0.930 1_554 S
H105 C113 0.930 . S
H106 C114 0.930 . S
H107 C115 0.930 1_556 S
H108 C118 0.930 . S
H109 C119 0.930 . S
C110 H104 0.930 1_556 S
C110 C111 1.355 1_455 S
C110 C112 1.415 1_556 S
C111 C110 1.355 1_655 S
C111 C113 1.419 . S
C112 C110 1.415 1_554 S
C112 C117 1.425 1_454 S
C112 C119 1.409 . S
C113 H105 0.930 . S
C113 C111 1.419 . S
C113 C114 1.362 . S
C114 H106 0.930 . S
C114 C113 1.362 . S
C114 C117 1.409 . S
C115 H107 0.930 1_554 S
C115 C116 1.355 1_655 S
C115 C117 1.415 1_554 S
C116 C115 1.355 1_455 S
C116 C118 1.419 . S
C117 C112 1.425 1_656 S
C117 C114 1.409 . S
C117 C115 1.415 1_556 S
C118 H108 0.930 . S
C118 C116 1.419 . S
C118 C119 1.362 . S
C119 H109 0.930 . S
C119 C112 1.409 . S
C119 C118 1.362 . S
H120 C126 0.930 . S
H121 C129 0.930 . S
H122 C130 0.930 . S
H123 C131 0.930 . S
H124 C134 0.930 . S
H125 C135 0.930 . S
C126 H120 0.930 . S
C126 C127 1.355 . S
C126 C128 1.415 . S
C127 C126 1.355 . S
C127 C129 1.419 . S
C128 C126 1.415 . S
C128 C133 1.425 . S
C128 C135 1.409 . S
C129 H121 0.930 . S
C129 C127 1.419 . S
C129 C130 1.362 . S
C130 H122 0.930 . S
C130 C129 1.362 . S
C130 C133 1.409 . S
C131 H123 0.930 . S
C131 C132 1.355 . S
C131 C133 1.415 . S
C132 C131 1.355 . S
C132 C134 1.419 . S
C133 C128 1.425 . S
C133 C130 1.409 . S
C133 C131 1.415 . S
C134 H124 0.930 . S
C134 C132 1.419 . S
C134 C135 1.362 . S
C135 H125 0.930 . S
C135 C128 1.409 . S
C135 C134 1.362 . S
H136 C142 0.930 . S
H137 C145 0.930 . S
H138 C146 0.930 . S
H139 C147 0.930 . S
H140 C150 0.930 . S
H141 C151 0.930 . S
C142 H136 0.930 . S
C142 C143 1.355 . S
C142 C144 1.415 . S
C143 C142 1.355 . S
C143 C145 1.419 . S
C144 C142 1.415 . S
C144 C149 1.425 1_564 S
C144 C151 1.409 1_565 S
C145 H137 0.930 . S
C145 C143 1.419 . S
C145 C146 1.362 1_554 S
C146 H138 0.930 . S
C146 C145 1.362 1_556 S
C146 C149 1.409 1_565 S
C147 H139 0.930 . S
C147 C148 1.355 . S
C147 C149 1.415 . S
C148 C147 1.355 . S
C148 C150 1.419 . S
C149 C144 1.425 1_546 S
C149 C146 1.409 1_545 S
C149 C147 1.415 . S
C150 H140 0.930 . S
C150 C148 1.419 . S
C150 C151 1.362 1_556 S
C151 H141 0.930 . S
C151 C144 1.409 1_545 S
C151 C150 1.362 1_554 S
H152 C158 0.930 . S
H153 C161 0.930 . S
H154 C162 0.930 . S
H155 C163 0.931 . S
H156 C166 0.930 . S
H157 C167 0.930 . S
C158 H152 0.930 . S
C158 C159 1.354 1_565 S
C158 C160 1.415 1_655 S
C159 C158 1.354 1_545 S
C159 C161 1.419 . S
C160 C158 1.415 1_455 S
C160 C165 1.425 1_465 S
C160 C167 1.409 . S
C161 H153 0.930 . S
C161 C159 1.419 . S
C161 C162 1.363 . S
C162 H154 0.930 . S
C162 C161 1.363 . S
C162 C165 1.409 . S
C163 H155 0.931 . S
C163 C164 1.354 1_545 S
C163 C165 1.415 1_455 S
C164 C163 1.354 1_565 S
C164 C166 1.420 . S
C165 C160 1.425 1_645 S
C165 C162 1.409 . S
C165 C163 1.415 1_655 S
C166 H156 0.930 . S
C166 C164 1.420 . S
C166 C167 1.363 . S
C167 H157 0.930 . S
C167 C160 1.409 . S
C167 C166 1.363 . S
H168 C174 0.930 . S
H169 C177 0.930 . S
H170 C178 0.930 . S
H171 C179 0.930 . S
H172 C182 0.930 . S
H173 C183 0.930 . S
C174 H168 0.930 . S
C174 C175 1.355 . S
C174 C176 1.415 . S
C175 C174 1.355 . S
C175 C177 1.419 . S
C176 C174 1.415 . S
C176 C181 1.425 . S
C176 C183 1.409 . S
C177 H169 0.930 . S
C177 C175 1.419 . S
C177 C178 1.362 . S
C178 H170 0.930 . S
C178 C177 1.362 . S
C178 C181 1.409 . S
C179 H171 0.930 . S
C179 C180 1.355 . S
C179 C181 1.415 . S
C180 C179 1.355 . S
C180 C182 1.419 . S
C181 C176 1.425 . S
C181 C178 1.409 . S
C181 C179 1.415 . S
C182 H172 0.930 . S
C182 C180 1.419 . S
C182 C183 1.362 . S
C183 H173 0.930 . S
C183 C176 1.409 . S
C183 C182 1.362 . S
H184 C190 0.930 . S
H185 C193 0.930 . S
H186 C194 0.930 . S
H187 C195 0.930 . S
H188 C198 0.930 . S
H189 C199 0.930 . S
C190 H184 0.930 . S
C190 C191 1.355 . S
C190 C192 1.415 . S
C191 C190 1.355 . S
C191 C193 1.419 . S
C192 C190 1.415 . S
C192 C197 1.425 . S
C192 C199 1.409 . S
C193 H185 0.930 . S
C193 C191 1.419 . S
C193 C194 1.362 . S
C194 H186 0.930 . S
C194 C193 1.362 . S
C194 C197 1.409 . S
C195 H187 0.930 . S
C195 C196 1.355 . S
C195 C197 1.415 . S
C196 C195 1.355 . S
C196 C198 1.419 . S
C197 C192 1.425 . S
C197 C194 1.409 . S
C197 C195 1.415 . S
C198 H188 0.930 . S
C198 C196 1.419 . S
C198 C199 1.362 . S
C199 H189 0.930 . S
C199 C192 1.409 . S
C199 C198 1.362 . S
H200 C206 0.930 . S
H201 C209 0.930 . S
H202 C210 0.930 . S
H203 C211 0.930 . S
H204 C214 0.930 . S
H205 C215 0.930 . S
C206 H200 0.930 . S
C206 C207 1.355 . S
C206 C208 1.415 . S
C207 C206 1.355 . S
C207 C209 1.419 . S
C208 C206 1.415 . S
C208 C213 1.425 . S
C208 C215 1.409 . S
C209 H201 0.930 . S
C209 C207 1.419 . S
C209 C210 1.362 . S
C210 H202 0.930 . S
C210 C209 1.362 . S
C210 C213 1.409 . S
C211 H203 0.930 . S
C211 C212 1.355 . S
C211 C213 1.415 . S
C212 C211 1.355 . S
C212 C214 1.419 . S
C213 C208 1.425 . S
C213 C210 1.409 . S
C213 C211 1.415 . S
C214 H204 0.930 . S
C214 C212 1.419 . S
C214 C215 1.362 . S
C215 H205 0.930 . S
C215 C208 1.409 . S
C215 C214 1.362 . S
H216 C222 0.930 . S
H217 C225 0.930 . S
H218 C226 0.930 . S
H219 C227 0.930 . S
H220 C230 0.930 . S
H221 C231 0.930 . S
C222 H216 0.930 . S
C222 C223 1.355 . S
C222 C224 1.415 . S
C223 C222 1.355 . S
C223 C225 1.419 . S
C224 C222 1.415 . S
C224 C229 1.425 . S
C224 C231 1.409 . S
C225 H217 0.930 . S
C225 C223 1.419 . S
C225 C226 1.362 . S
C226 H218 0.930 . S
C226 C225 1.362 . S
C226 C229 1.409 . S
C227 H219 0.930 . S
C227 C228 1.355 . S
C227 C229 1.415 . S
C228 C227 1.355 . S
C228 C230 1.419 . S
C229 C224 1.425 . S
C229 C226 1.409 . S
C229 C227 1.415 . S
C230 H220 0.930 . S
C230 C228 1.419 . S
C230 C231 1.362 . S
C231 H221 0.930 . S
C231 C224 1.409 . S
C231 C230 1.362 . S
H232 C238 0.930 . S
H233 C241 0.930 . S
H234 C242 0.930 . S
H235 C243 0.930 . S
H236 C246 0.930 . S
H237 C247 0.930 . S
C238 H232 0.930 . S
C238 C239 1.355 . S
C238 C240 1.415 . S
C239 C238 1.355 . S
C239 C241 1.419 . S
C240 C238 1.415 . S
C240 C245 1.425 . S
C240 C247 1.409 . S
C241 H233 0.930 . S
C241 C239 1.419 . S
C241 C242 1.362 . S
C242 H234 0.930 . S
C242 C241 1.362 . S
C242 C245 1.409 . S
C243 H235 0.930 . S
C243 C244 1.355 . S
C243 C245 1.415 . S
C244 C243 1.355 . S
C244 C246 1.419 . S
C245 C240 1.425 . S
C245 C242 1.409 . S
C245 C243 1.415 . S
C246 H236 0.930 . S
C246 C244 1.419 . S
C246 C247 1.362 . S
C247 H237 0.930 . S
C247 C240 1.409 . S
C247 C246 1.362 . S
H248 C254 0.930 . S
H249 C257 0.930 . S
H250 C258 0.930 . S
H251 C259 0.930 . S
H252 C262 0.930 . S
H253 C263 0.930 . S
C254 H248 0.930 . S
C254 C255 1.355 . S
C254 C256 1.415 . S
C255 C254 1.355 . S
C255 C257 1.419 . S
C256 C254 1.415 . S
C256 C261 1.425 . S
C256 C263 1.409 . S
C257 H249 0.930 . S
C257 C255 1.419 . S
C257 C258 1.362 . S
C258 H250 0.930 . S
C258 C257 1.362 . S
C258 C261 1.409 . S
C259 H251 0.930 . S
C259 C260 1.355 . S
C259 C261 1.415 . S
C260 C259 1.355 . S
C260 C262 1.419 . S
C261 C256 1.425 . S
C261 C258 1.409 . S
C261 C259 1.415 . S
C262 H252 0.930 . S
C262 C260 1.419 . S
C262 C263 1.362 . S
C263 H253 0.930 . S
C263 C256 1.409 . S
C263 C262 1.362 . S
H264 C270 0.930 . S
H265 C273 0.930 . S
H266 C274 0.930 . S
H267 C275 0.930 . S
H268 C278 0.930 1_545 S
H269 C279 0.930 1_545 S
C270 H264 0.930 . S
C270 C271 1.355 . S
C270 C272 1.415 . S
C271 C270 1.355 . S
C271 C273 1.419 . S
C272 C270 1.415 . S
C272 C277 1.425 . S
C272 C279 1.409 . S
C273 H265 0.930 . S
C273 C271 1.419 . S
C273 C274 1.362 . S
C274 H266 0.930 . S
C274 C273 1.362 . S
C274 C277 1.409 . S
C275 H267 0.930 . S
C275 C276 1.355 . S
C275 C277 1.415 . S
C276 C275 1.355 . S
C276 C278 1.419 . S
C277 C272 1.425 . S
C277 C274 1.409 . S
C277 C275 1.415 . S
C278 H268 0.930 1_565 S
C278 C276 1.419 . S
C278 C279 1.362 . S
C279 H269 0.930 1_565 S
C279 C272 1.409 . S
C279 C278 1.362 . S
H280 C286 0.930 . S
H281 C289 0.930 . S
H282 C290 0.930 . S
H283 C291 0.930 . S
H284 C294 0.930 . S
H285 C295 0.930 . S
C286 H280 0.930 . S
C286 C287 1.355 . S
C286 C288 1.415 . S
C287 C286 1.355 . S
C287 C289 1.419 . S
C288 C286 1.415 . S
C288 C293 1.425 . S
C288 C295 1.409 . S
C289 H281 0.930 . S
C289 C287 1.419 . S
C289 C290 1.362 . S
C290 H282 0.930 . S
C290 C289 1.362 . S
C290 C293 1.409 . S
C291 H283 0.930 . S
C291 C292 1.355 . S
C291 C293 1.415 . S
C292 C291 1.355 . S
C292 C294 1.419 . S
C293 C288 1.425 . S
C293 C290 1.409 . S
C293 C291 1.415 . S
C294 H284 0.930 . S
C294 C292 1.419 . S
C294 C295 1.362 . S
C295 H285 0.930 . S
C295 C288 1.409 . S
C295 C294 1.362 . S
H296 C302 0.930 . S
H297 C305 0.930 . S
H298 C306 0.930 . S
H299 C307 0.930 . S
H300 C310 0.930 . S
H301 C311 0.930 . S
C302 H296 0.930 . S
C302 C303 1.355 . S
C302 C304 1.415 . S
C303 C302 1.355 . S
C303 C305 1.419 . S
C304 C302 1.415 . S
C304 C309 1.425 . S
C304 C311 1.409 . S
C305 H297 0.930 . S
C305 C303 1.419 . S
C305 C306 1.362 . S
C306 H298 0.930 . S
C306 C305 1.362 . S
C306 C309 1.409 . S
C307 H299 0.930 . S
C307 C308 1.355 . S
C307 C309 1.415 . S
C308 C307 1.355 . S
C308 C310 1.419 . S
C309 C304 1.425 . S
C309 C306 1.409 . S
C309 C307 1.415 . S
C310 H300 0.930 . S
C310 C308 1.419 . S
C310 C311 1.362 . S
C311 H301 0.930 . S
C311 C304 1.409 . S
C311 C310 1.362 . S
H312 C318 0.930 . S
H313 C321 0.930 . S
H314 C322 0.930 . S
H315 C323 0.930 . S
H316 C326 0.930 . S
H317 C327 0.930 . S
C318 H312 0.930 . S
C318 C319 1.355 . S
C318 C320 1.415 . S
C319 C318 1.355 . S
C319 C321 1.419 . S
C320 C318 1.415 . S
C320 C325 1.425 . S
C320 C327 1.409 . S
C321 H313 0.930 . S
C321 C319 1.419 . S
C321 C322 1.362 . S
C322 H314 0.930 . S
C322 C321 1.362 . S
C322 C325 1.409 . S
C323 H315 0.930 . S
C323 C324 1.355 . S
C323 C325 1.415 . S
C324 C323 1.355 . S
C324 C326 1.419 . S
C325 C320 1.425 . S
C325 C322 1.409 . S
C325 C323 1.415 . S
C326 H316 0.930 . S
C326 C324 1.419 . S
C326 C327 1.362 . S
C327 H317 0.930 . S
C327 C320 1.409 . S
C327 C326 1.362 . S
H328 C334 0.930 . S
H329 C337 0.930 . S
H330 C338 0.930 . S
H331 C339 0.930 . S
H332 C342 0.930 . S
H333 C343 0.930 . S
C334 H328 0.930 . S
C334 C335 1.355 . S
C334 C336 1.415 . S
C335 C334 1.355 . S
C335 C337 1.419 . S
C336 C334 1.415 . S
C336 C341 1.425 . S
C336 C343 1.409 . S
C337 H329 0.930 . S
C337 C335 1.419 . S
C337 C338 1.362 . S
C338 H330 0.930 . S
C338 C337 1.362 . S
C338 C341 1.409 . S
C339 H331 0.930 . S
C339 C340 1.355 . S
C339 C341 1.415 . S
C340 C339 1.355 . S
C340 C342 1.419 . S
C341 C336 1.425 . S
C341 C338 1.409 . S
C341 C339 1.415 . S
C342 H332 0.930 . S
C342 C340 1.419 . S
C342 C343 1.362 . S
C343 H333 0.930 . S
C343 C336 1.409 . S
C343 C342 1.362 . S
H344 C350 0.930 . S
H345 C353 0.930 1_455 S
H346 C354 0.930 . S
H347 C355 0.930 . S
H348 C358 0.930 . S
H349 C359 0.930 . S
C350 H344 0.930 . S
C350 C351 1.355 . S
C350 C352 1.415 . S
C351 C350 1.355 . S
C351 C353 1.419 . S
C352 C350 1.415 . S
C352 C357 1.425 . S
C352 C359 1.409 . S
C353 H345 0.930 1_655 S
C353 C351 1.419 . S
C353 C354 1.362 . S
C354 H346 0.930 . S
C354 C353 1.362 . S
C354 C357 1.409 . S
C355 H347 0.930 . S
C355 C356 1.355 . S
C355 C357 1.415 . S
C356 C355 1.355 . S
C356 C358 1.419 . S
C357 C352 1.425 . S
C357 C354 1.409 . S
C357 C355 1.415 . S
C358 H348 0.930 . S
C358 C356 1.419 . S
C358 C359 1.362 . S
C359 H349 0.930 . S
C359 C352 1.409 . S
C359 C358 1.362 . S
C111 C56 1.714 . S
C116 C10 1.714 . S
C127 C17 1.759 . S
C132 C69 1.759 . S
C143 C36 1.750 . S
C148 C88 1.750 . S
C159 C95 1.749 . S
C164 C43 1.751 . S
C175 C4 1.646 . S
C180 C30 1.646 . S
C191 C23 1.647 . S
C196 C49 1.643 . S
C207 C82 1.646 . S
C212 C62 1.644 . S
C223 C75 1.660 . S
C228 C101 1.661 . S
C239 C70 1.171 . S
C244 C5 1.173 . S
C255 C16 1.198 . S
C260 C81 1.140 . S
C271 C31 1.144 . S
C276 C96 1.107 . S
C287 C57 1.073 . S
C292 C42 1.152 . S
C303 C55 1.156 . S
C308 C18 1.084 . S
C319 C68 1.190 . S
C324 C29 1.188 . S
C335 C83 1.185 . S
C340 C44 1.129 . S
C351 C3 1.154 . S
C356 C94 1.157 . S
