# Generated by pormake.
# Topology sml, (6)-cn, num edge types: 1
# Building blocks:
#     Node 0, Type 0, BuildingBlock: INOVEN_clean_sbu_0, # of connection points: 6
#     Node 1, Type 0, BuildingBlock: INOVEN_clean_sbu_0, # of connection points: 6
#     Node 2, Type 0, BuildingBlock: INOVEN_clean_sbu_0, # of connection points: 6
#     Node 3, Type 0, BuildingBlock: INOVEN_clean_sbu_0, # of connection points: 6
#     Node 4, Type 0, BuildingBlock: INOVEN_clean_sbu_0, # of connection points: 6
#     Node 5, Type 0, BuildingBlock: INOVEN_clean_sbu_0, # of connection points: 6
#     Edge 6, Type (0, 0), BuildingBlock: TEMPAE_clean_linker_10, # of connection points: 2
#     Edge 7, Type (0, 0), BuildingBlock: TEMPAE_clean_linker_10, # of connection points: 2
#     Edge 8, Type (0, 0), BuildingBlock: TEMPAE_clean_linker_10, # of connection points: 2
#     Edge 9, Type (0, 0), BuildingBlock: TEMPAE_clean_linker_10, # of connection points: 2
#     Edge 10, Type (0, 0), BuildingBlock: TEMPAE_clean_linker_10, # of connection points: 2
#     Edge 11, Type (0, 0), BuildingBlock: TEMPAE_clean_linker_10, # of connection points: 2
#     Edge 12, Type (0, 0), BuildingBlock: TEMPAE_clean_linker_10, # of connection points: 2
#     Edge 13, Type (0, 0), BuildingBlock: TEMPAE_clean_linker_10, # of connection points: 2
#     Edge 14, Type (0, 0), BuildingBlock: TEMPAE_clean_linker_10, # of connection points: 2
#     Edge 15, Type (0, 0), BuildingBlock: TEMPAE_clean_linker_10, # of connection points: 2
#     Edge 16, Type (0, 0), BuildingBlock: TEMPAE_clean_linker_10, # of connection points: 2
#     Edge 17, Type (0, 0), BuildingBlock: TEMPAE_clean_linker_10, # of connection points: 2
#     Edge 18, Type (0, 0), BuildingBlock: TEMPAE_clean_linker_10, # of connection points: 2
#     Edge 19, Type (0, 0), BuildingBlock: TEMPAE_clean_linker_10, # of connection points: 2
#     Edge 20, Type (0, 0), BuildingBlock: TEMPAE_clean_linker_10, # of connection points: 2
#     Edge 21, Type (0, 0), BuildingBlock: TEMPAE_clean_linker_10, # of connection points: 2
#     Edge 22, Type (0, 0), BuildingBlock: TEMPAE_clean_linker_10, # of connection points: 2
#     Edge 23, Type (0, 0), BuildingBlock: TEMPAE_clean_linker_10, # of connection points: 2
# Relax obj value: 0.208
# Max RMSD: 0.240
# Mean RMSD: 0.240
data_MOF--net-sml--node1-INOVEN_clean_sbu_0--edge1-TEMPAE_clean_linker_10
_symmetry_space_group_name_H-M    P1
_symmetry_Int_Tables_number       1
_symmetry_cell_setting            triclinic
loop_
_symmetry_equiv_pos_as_xyz
'x, y, z'
_cell_length_a     33.035536
_cell_length_b     33.041596
_cell_length_c     25.378434
_cell_angle_alpha  89.98052
_cell_angle_beta   90.009165
_cell_angle_gamma 120.00497
loop_
_atom_site_label
_atom_site_type_symbol
_atom_site_fract_x
_atom_site_fract_y
_atom_site_fract_z
_atom_type_partial_charge
Gd0 Gd 0.17665 0.43936 0.97864 0.0
Gd1 Gd 0.20802 0.40423 0.07468 0.0
C2 C 0.20565 0.35812 0.96529 0.0
C3 C 0.16688 0.46818 0.88712 0.0
C4 C 0.1735 0.46158 0.83093 0.0
C5 C 0.14452 0.46558 0.79353 0.0
C6 C 0.20774 0.4511 0.81399 0.0
C7 C 0.18397 0.44932 0.72242 0.0
C8 C 0.21292 0.44501 0.76018 0.0
C9 C 0.14961 0.4595 0.73994 0.0
C10 C 0.10779 0.37937 0.04257 0.0
C11 C 0.18537 0.48986 0.08727 0.0
C12 C 0.2161 0.37462 0.16642 0.0
C13 C 0.21132 0.38298 0.22267 0.0
C14 C 0.244 0.38403 0.2587 0.0
C15 C 0.17524 0.39015 0.24106 0.0
C16 C 0.20496 0.39932 0.33102 0.0
C17 C 0.17201 0.3981 0.29481 0.0
C18 C 0.24093 0.39213 0.31221 0.0
C19 C 0.27687 0.46651 0.01194 0.0
O20 O 0.20051 0.39181 0.94373 0.0
O21 O 0.20345 0.35123 0.01676 0.0
O22 O 0.13305 0.4322 0.91137 0.0
O23 O 0.20458 0.49074 0.916 0.0
O24 O 0.10748 0.41392 0.0186 0.0
O25 O 0.14303 0.37641 0.02917 0.0
O26 O 0.18791 0.45485 0.10942 0.0
O27 O 0.18643 0.4953 0.03555 0.0
O28 O 0.25116 0.40873 0.14132 0.0
O29 O 0.17782 0.35383 0.13812 0.0
O30 O 0.27866 0.43254 0.0355 0.0
O31 O 0.24063 0.4673 0.02537 0.0
H32 H 0.11771 0.47333 0.80584 0.0
H33 H 0.23047 0.44773 0.84225 0.0
H34 H 0.23995 0.43754 0.74812 0.0
H35 H 0.12614 0.46221 0.71223 0.0
H36 H 0.27203 0.37849 0.24539 0.0
H37 H 0.1497 0.38977 0.21397 0.0
H38 H 0.14413 0.40392 0.30789 0.0
H39 H 0.26646 0.39216 0.33901 0.0
Gd40 Gd 0.73855 0.17865 0.31306 0.0
Gd41 Gd 0.80534 0.21026 0.4088 0.0
C42 C 0.84866 0.20695 0.29953 0.0
C43 C 0.70029 0.16903 0.22139 0.0
C44 C 0.71381 0.17531 0.16519 0.0
C45 C 0.68397 0.14169 0.12879 0.0
C46 C 0.75562 0.21384 0.14719 0.0
C47 C 0.73725 0.18458 0.05688 0.0
C48 C 0.76715 0.21851 0.09345 0.0
C49 C 0.69552 0.1462 0.07531 0.0
C50 C 0.72954 0.10991 0.3773 0.0
C51 C 0.69703 0.18737 0.42179 0.0
C52 C 0.84347 0.21917 0.5004 0.0
C53 C 0.8306 0.21434 0.55673 0.0
C54 C 0.86285 0.24631 0.59279 0.0
C55 C 0.78699 0.17893 0.57512 0.0
C56 C 0.80873 0.2074 0.66541 0.0
C57 C 0.77616 0.1755 0.62899 0.0
C58 C 0.85209 0.24297 0.64644 0.0
C59 C 0.81222 0.27884 0.34536 0.0
O60 O 0.80981 0.20178 0.27801 0.0
O61 O 0.85354 0.20514 0.35101 0.0
O62 O 0.70175 0.13496 0.24599 0.0
O63 O 0.71545 0.20675 0.25023 0.0
O64 O 0.69472 0.10962 0.35325 0.0
O65 O 0.76779 0.14502 0.36376 0.0
O66 O 0.73466 0.18995 0.44373 0.0
O67 O 0.69251 0.18852 0.3701 0.0
O68 O 0.8436 0.25382 0.47529 0.0
O69 O 0.82642 0.18084 0.47226 0.0
O70 O 0.84792 0.28046 0.36886 0.0
O71 O 0.77507 0.2429 0.3592 0.0
H72 H 0.65152 0.1118 0.14179 0.0
H73 H 0.77941 0.24021 0.17456 0.0
H74 H 0.79974 0.24829 0.08065 0.0
H75 H 0.67139 0.11981 0.04823 0.0
H76 H 0.89654 0.27407 0.57938 0.0
H77 H 0.76141 0.15389 0.54798 0.0
H78 H 0.7426 0.14744 0.64219 0.0
H79 H 0.87767 0.26866 0.67303 0.0
Gd80 Gd 0.56178 0.74031 0.64787 0.0
Gd81 Gd 0.59651 0.807 0.7436 0.0
C82 C 0.64294 0.8506 0.6343 0.0
C83 C 0.53343 0.7021 0.55616 0.0
C84 C 0.54056 0.71584 0.50003 0.0
C85 C 0.5445 0.68627 0.46339 0.0
C86 C 0.54367 0.75765 0.48234 0.0
C87 C 0.55472 0.73983 0.39186 0.0
C88 C 0.55051 0.76944 0.42867 0.0
C89 C 0.55153 0.69808 0.40998 0.0
C90 C 0.62163 0.73154 0.7121 0.0
C91 C 0.51133 0.69857 0.75654 0.0
C92 C 0.62564 0.84528 0.83515 0.0
C93 C 0.61752 0.83262 0.89153 0.0
C94 C 0.61789 0.86506 0.92737 0.0
C95 C 0.60922 0.78907 0.9102 0.0
C96 C 0.60261 0.81122 1.00033 0.0
C97 C 0.60186 0.77848 0.96412 0.0
C98 C 0.61047 0.85452 0.98108 0.0
C99 C 0.53437 0.81327 0.68025 0.0
O100 O 0.6094 0.81167 0.61281 0.0
O101 O 0.64966 0.85546 0.68578 0.0
O102 O 0.56919 0.70398 0.58067 0.0
O103 O 0.51049 0.71674 0.58511 0.0
O104 O 0.5872 0.6967 0.68798 0.0
O105 O 0.62466 0.76977 0.69863 0.0
O106 O 0.54621 0.73627 0.77859 0.0
O107 O 0.50589 0.69406 0.70482 0.0
O108 O 0.59121 0.84545 0.80988 0.0
O109 O 0.64685 0.82804 0.80721 0.0
O110 O 0.56832 0.84913 0.70367 0.0
O111 O 0.53357 0.77633 0.69408 0.0
H112 H 0.54208 0.65382 0.47615 0.0
H113 H 0.54096 0.78123 0.50991 0.0
H114 H 0.55319 0.80203 0.41612 0.0
H115 H 0.55392 0.67416 0.3827 0.0
H116 H 0.62389 0.89871 0.91375 0.0
H117 H 0.60861 0.76335 0.88322 0.0
H118 H 0.5963 0.74495 0.97752 0.0
H119 H 0.61043 0.88023 1.0075 0.0
Gd120 Gd 0.82486 0.56189 0.97749 0.0
Gd121 Gd 0.79493 0.59782 0.07392 0.0
C122 C 0.79629 0.64366 0.96467 0.0
C123 C 0.83189 0.53161 0.88578 0.0
C124 C 0.8246 0.53906 0.83003 0.0
C125 C 0.83563 0.58339 0.81119 0.0
C126 C 0.80734 0.50139 0.79478 0.0
C127 C 0.81434 0.55261 0.72186 0.0
C128 C 0.80226 0.50804 0.74125 0.0
C129 C 0.83055 0.5901 0.75766 0.0
C130 C 0.8948 0.62267 0.03976 0.0
C131 C 0.81797 0.51247 0.08646 0.0
C132 C 0.78841 0.62841 0.16563 0.0
C133 C 0.79456 0.62038 0.22148 0.0
C134 C 0.78707 0.57688 0.23918 0.0
C135 C 0.8066 0.65643 0.258 0.0
C136 C 0.80149 0.60508 0.3299 0.0
C137 C 0.81003 0.64891 0.31165 0.0
C138 C 0.79059 0.56932 0.29289 0.0
C139 C 0.72519 0.53483 0.01263 0.0
O140 O 0.80143 0.61005 0.94286 0.0
O141 O 0.79872 0.65049 0.01613 0.0
O142 O 0.86697 0.5665 0.91004 0.0
O143 O 0.79439 0.5102 0.91511 0.0
O144 O 0.89484 0.58798 0.0158 0.0
O145 O 0.85922 0.62533 0.0271 0.0
O146 O 0.81582 0.54772 0.10851 0.0
O147 O 0.81599 0.50649 0.0348 0.0
O148 O 0.75303 0.59409 0.14112 0.0
O149 O 0.8263 0.64897 0.13675 0.0
O150 O 0.72374 0.56908 0.03591 0.0
O151 O 0.76166 0.53426 0.02553 0.0
H152 H 0.84876 0.61296 0.83772 0.0
H153 H 0.79853 0.46688 0.80854 0.0
H154 H 0.79006 0.47848 0.71483 0.0
H155 H 0.83943 0.6247 0.74427 0.0
H156 H 0.77763 0.5485 0.21164 0.0
H157 H 0.81276 0.69031 0.24508 0.0
H158 H 0.8193 0.67745 0.3389 0.0
H159 H 0.7835 0.53507 0.30556 0.0
Gd160 Gd 0.26374 0.82451 0.3119 0.0
Gd161 Gd 0.19661 0.7927 0.40745 0.0
C162 C 0.15353 0.79565 0.29775 0.0
C163 C 0.30203 0.83433 0.22022 0.0
C164 C 0.28836 0.82799 0.16404 0.0
C165 C 0.31817 0.86147 0.12749 0.0
C166 C 0.24638 0.78956 0.14622 0.0
C167 C 0.26456 0.81863 0.05579 0.0
C168 C 0.23468 0.78485 0.09253 0.0
C169 C 0.30645 0.85692 0.07405 0.0
C170 C 0.27245 0.89311 0.37615 0.0
C171 C 0.30495 0.81549 0.42075 0.0
C172 C 0.15843 0.78394 0.49902 0.0
C173 C 0.17122 0.78878 0.5554 0.0
C174 C 0.13882 0.75697 0.59149 0.0
C175 C 0.21488 0.82405 0.57384 0.0
C176 C 0.19292 0.79572 0.66418 0.0
C177 C 0.22562 0.82748 0.62775 0.0
C178 C 0.14949 0.76031 0.64518 0.0
C179 C 0.19011 0.72419 0.34425 0.0
O180 O 0.19259 0.80112 0.27653 0.0
O181 O 0.14834 0.79733 0.34921 0.0
O182 O 0.30048 0.86832 0.24485 0.0
O183 O 0.28705 0.79662 0.24907 0.0
O184 O 0.30736 0.89349 0.35221 0.0
O185 O 0.23425 0.85798 0.36246 0.0
O186 O 0.26723 0.81282 0.44257 0.0
O187 O 0.30965 0.81454 0.36907 0.0
O188 O 0.15825 0.74924 0.47401 0.0
O189 O 0.17557 0.82224 0.4708 0.0
O190 O 0.15431 0.72239 0.36771 0.0
O191 O 0.22717 0.76023 0.35807 0.0
H192 H 0.35075 0.89129 0.14033 0.0
H193 H 0.2226 0.76331 0.17371 0.0
H194 H 0.20197 0.75515 0.07989 0.0
H195 H 0.33058 0.8832 0.04685 0.0
H196 H 0.10508 0.72932 0.57807 0.0
H197 H 0.24058 0.84897 0.54669 0.0
H198 H 0.25925 0.85542 0.64096 0.0
H199 H 0.12379 0.73474 0.67178 0.0
Gd200 Gd 0.44005 0.2617 0.64817 0.0
Gd201 Gd 0.40467 0.19482 0.74383 0.0
C202 C 0.35864 0.15147 0.63431 0.0
C203 C 0.46866 0.29984 0.55643 0.0
C204 C 0.46136 0.28604 0.50031 0.0
C205 C 0.45699 0.31542 0.46373 0.0
C206 C 0.45854 0.24438 0.48255 0.0
C207 C 0.44696 0.262 0.39215 0.0
C208 C 0.45157 0.23256 0.4289 0.0
C209 C 0.44983 0.30358 0.41033 0.0
C210 C 0.38009 0.27058 0.71202 0.0
C211 C 0.49025 0.30308 0.75707 0.0
C212 C 0.37513 0.15667 0.83538 0.0
C213 C 0.38342 0.16933 0.89177 0.0
C214 C 0.38335 0.13698 0.92754 0.0
C215 C 0.39155 0.2128 0.91053 0.0
C216 C 0.39857 0.19069 1.00057 0.0
C217 C 0.39903 0.22336 0.96445 0.0
C218 C 0.3909 0.14749 0.98124 0.0
C219 C 0.46702 0.18851 0.68094 0.0
O220 O 0.39234 0.19042 0.61298 0.0
O221 O 0.3517 0.1465 0.68576 0.0
O222 O 0.43312 0.29838 0.58097 0.0
O223 O 0.49134 0.2849 0.58542 0.0
O224 O 0.41471 0.30543 0.68812 0.0
O225 O 0.37696 0.23231 0.69856 0.0
O226 O 0.45519 0.2654 0.77897 0.0
O227 O 0.49587 0.30769 0.70537 0.0
O228 O 0.40925 0.1559 0.81011 0.0
O229 O 0.35434 0.17436 0.80739 0.0
O230 O 0.43293 0.15263 0.7042 0.0
O231 O 0.46782 0.22545 0.69471 0.0
H232 H 0.45918 0.34775 0.47652 0.0
H233 H 0.46157 0.22093 0.51005 0.0
H234 H 0.44914 0.2001 0.4163 0.0
H235 H 0.44712 0.32737 0.38311 0.0
H236 H 0.37748 0.10339 0.91387 0.0
H237 H 0.39193 0.23847 0.88363 0.0
H238 H 0.40444 0.25681 0.97791 0.0
H239 H 0.39116 0.12184 1.00758 0.0
C240 C 0.36658 0.3205 0.77428 0.0
C241 C 0.35107 0.27629 0.75221 0.0
C242 C 0.3394 0.3278 0.81126 0.0
C243 C 0.29521 0.29004 0.82598 0.0
C244 C 0.27967 0.24504 0.80449 0.0
C245 C 0.30803 0.2386 0.768 0.0
C246 C 0.35772 0.3762 0.8339 0.0
C247 C 0.23263 0.2041 0.81894 0.0
C248 C 0.24634 0.31225 0.95104 0.0
C249 C 0.22073 0.33208 0.9306 0.0
C250 C 0.26876 0.29581 0.91739 0.0
C251 C 0.26492 0.29879 0.8621 0.0
C252 C 0.23635 0.3157 0.84141 0.0
C253 C 0.21484 0.33237 0.87589 0.0
C254 C 0.29938 0.27857 0.94098 0.0
C255 C 0.23091 0.31907 0.78273 0.0
H256 H 0.40013 0.3496 0.76255 0.0
H257 H 0.29606 0.20441 0.75088 0.0
H258 H 0.33477 0.39016 0.82185 0.0
H259 H 0.35735 0.37477 0.87759 0.0
H260 H 0.39391 0.40106 0.82068 0.0
H261 H 0.22674 0.17093 0.80096 0.0
H262 H 0.22945 0.19974 0.86235 0.0
H263 H 0.20457 0.21084 0.80553 0.0
H264 H 0.25133 0.31218 0.99325 0.0
H265 H 0.19484 0.34737 0.85979 0.0
H266 H 0.33665 0.30493 0.93415 0.0
H267 H 0.2928 0.24568 0.92177 0.0
H268 H 0.29375 0.27246 0.98409 0.0
H269 H 0.26433 0.34693 0.76593 0.0
H270 H 0.20307 0.32742 0.77316 0.0
H271 H 0.22259 0.28579 0.7631 0.0
C272 C 0.0448 0.36618 0.10542 0.0
C273 C 0.07356 0.35074 0.08337 0.0
C274 C 0.01094 0.33938 0.14317 0.0
C275 C 0.00525 0.29567 0.15875 0.0
C276 C 0.0348 0.28023 0.1373 0.0
C277 C 0.0689 0.30816 0.09994 0.0
C278 C 0.98069 0.35754 0.16567 0.0
C279 C 0.02951 0.23372 0.15272 0.0
C280 C 0.93519 0.24803 0.28471 0.0
C281 C 0.88965 0.22174 0.26469 0.0
C282 C 0.97382 0.27028 0.25067 0.0
C283 C 0.96663 0.26558 0.19546 0.0
C284 C 0.92111 0.23631 0.17528 0.0
C285 C 0.88317 0.21499 0.21011 0.0
C286 C 0.02175 0.30163 0.27373 0.0
C287 C 0.91194 0.22994 0.11671 0.0
H288 H 0.04871 0.39937 0.09307 0.0
H289 H 0.09114 0.29622 0.08281 0.0
H290 H 0.94371 0.33412 0.15416 0.0
H291 H 0.98218 0.3578 0.20935 0.0
H292 H 0.99152 0.39345 0.15182 0.0
H293 H 0.05697 0.22803 0.13485 0.0
H294 H 0.03108 0.23126 0.19618 0.0
H295 H 0.99478 0.20512 0.13987 0.0
H296 H 0.94046 0.25369 0.32682 0.0
H297 H 0.8481 0.19449 0.19436 0.0
H298 H 0.03214 0.33869 0.2664 0.0
H299 H 0.04822 0.29528 0.25452 0.0
H300 H 0.02261 0.29652 0.3169 0.0
H301 H 0.9169 0.26293 0.09931 0.0
H302 H 0.87585 0.20161 0.10765 0.0
H303 H 0.9371 0.22179 0.09725 0.0
C304 C 0.67959 0.04684 0.44004 0.0
C305 C 0.72386 0.07565 0.41812 0.0
C306 C 0.67244 0.01293 0.47777 0.0
C307 C 0.71042 0.00721 0.49344 0.0
C308 C 0.75548 0.03681 0.47213 0.0
C309 C 0.76174 0.07098 0.43481 0.0
C310 C 0.62395 0.98263 0.50013 0.0
C311 C 0.79668 0.03151 0.48764 0.0
C312 C 0.68803 0.93713 0.61943 0.0
C313 C 0.66893 0.89162 0.59943 0.0
C314 C 0.70428 0.97575 0.58538 0.0
C315 C 0.70185 0.96858 0.53017 0.0
C316 C 0.6857 0.92308 0.51 0.0
C317 C 0.6692 0.88516 0.54484 0.0
C318 C 0.72073 0.02363 0.60842 0.0
C319 C 0.68296 0.91394 0.45143 0.0
H320 H 0.65033 0.05076 0.42761 0.0
H321 H 0.79598 0.09326 0.41779 0.0
H322 H 0.61044 0.94567 0.4886 0.0
H323 H 0.62507 0.98408 0.54381 0.0
H324 H 0.59889 0.99345 0.48618 0.0
H325 H 0.82986 0.05895 0.46981 0.0
H326 H 0.80065 0.03309 0.53112 0.0
H327 H 0.79055 0.99678 0.47484 0.0
H328 H 0.68764 0.94239 0.66155 0.0
H329 H 0.65475 0.85011 0.52909 0.0
H330 H 0.69404 0.03398 0.60095 0.0
H331 H 0.7536 0.05014 0.5893 0.0
H332 H 0.72659 0.02448 0.65161 0.0
H333 H 0.65494 0.91891 0.43399 0.0
H334 H 0.67519 0.87785 0.44237 0.0
H335 H 0.71628 0.93909 0.432 0.0
C336 C 0.63578 0.68143 0.77346 0.0
C337 C 0.65068 0.72586 0.75231 0.0
C338 C 0.66299 0.67418 0.81046 0.0
C339 C 0.70659 0.71226 0.82623 0.0
C340 C 0.7215 0.75748 0.80571 0.0
C341 C 0.69315 0.76381 0.76908 0.0
C342 C 0.64537 0.62551 0.83197 0.0
C343 C 0.76786 0.79879 0.82138 0.0
C344 C 0.75452 0.68856 0.95112 0.0
C345 C 0.78111 0.6699 0.93041 0.0
C346 C 0.73211 0.7052 0.9177 0.0
C347 C 0.73698 0.70365 0.8624 0.0
C348 C 0.7666 0.68808 0.84157 0.0
C349 C 0.78803 0.67112 0.87581 0.0
C350 C 0.70046 0.72108 0.94145 0.0
C351 C 0.77325 0.68639 0.7829 0.0
H352 H 0.60268 0.6521 0.76096 0.0
H353 H 0.70469 0.79818 0.75266 0.0
H354 H 0.66918 0.61259 0.81987 0.0
H355 H 0.64504 0.62606 0.87568 0.0
H356 H 0.60958 0.6003 0.81791 0.0
H357 H 0.77318 0.83203 0.8042 0.0
H358 H 0.7704 0.80226 0.8649 0.0
H359 H 0.79666 0.79318 0.80798 0.0
H360 H 0.74876 0.68749 0.99327 0.0
H361 H 0.80885 0.65716 0.85956 0.0
H362 H 0.66347 0.69429 0.9339 0.0
H363 H 0.70657 0.75409 0.92294 0.0
H364 H 0.70551 0.72645 0.9847 0.0
H365 H 0.74057 0.65816 0.76515 0.0
H366 H 0.80212 0.67953 0.77344 0.0
H367 H 0.78075 0.71976 0.76411 0.0
C368 C 0.06709 0.75408 0.282 0.0
C369 C 0.11276 0.78073 0.26248 0.0
C370 C 0.02877 0.73176 0.24754 0.0
C371 C 0.03639 0.73674 0.19239 0.0
C372 C 0.08203 0.76632 0.1727 0.0
C373 C 0.11966 0.78771 0.20795 0.0
C374 C 0.98073 0.70011 0.27009 0.0
C375 C 0.09167 0.77303 0.11424 0.0
C376 C 0.95853 0.63633 0.10183 0.0
C377 C 0.92951 0.65159 0.08006 0.0
C378 C 0.99248 0.66318 0.1395 0.0
C379 C 0.99805 0.7068 0.15526 0.0
C380 C 0.96842 0.72218 0.13386 0.0
C381 C 0.93421 0.69418 0.09661 0.0
C382 C 0.02283 0.64508 0.16191 0.0
C383 C 0.97359 0.76862 0.14936 0.0
H384 H 0.0615 0.74823 0.32406 0.0
H385 H 0.15483 0.80848 0.19256 0.0
H386 H 0.95435 0.7066 0.25085 0.0
H387 H 0.97049 0.66314 0.26233 0.0
H388 H 0.97954 0.70477 0.31331 0.0
H389 H 0.12779 0.80152 0.10556 0.0
H390 H 0.08702 0.7402 0.09674 0.0
H391 H 0.06657 0.78112 0.09453 0.0
H392 H 0.95464 0.60315 0.08947 0.0
H393 H 0.91182 0.70603 0.07966 0.0
H394 H 0.02111 0.64448 0.20559 0.0
H395 H 0.05984 0.66874 0.15069 0.0
H396 H 0.01225 0.60932 0.14776 0.0
H397 H 0.9714 0.77072 0.1928 0.0
H398 H 0.94644 0.77453 0.13103 0.0
H399 H 0.00854 0.79728 0.13718 0.0
C400 C 0.31346 0.06497 0.6191 0.0
C401 C 0.3327 0.11057 0.59927 0.0
C402 C 0.29724 0.02647 0.58489 0.0
C403 C 0.29984 0.03383 0.5297 0.0
C404 C 0.31613 0.07942 0.5097 0.0
C405 C 0.3326 0.11723 0.5447 0.0
C406 C 0.28063 0.97848 0.60776 0.0
C407 C 0.31906 0.08879 0.45117 0.0
C408 C 0.32222 0.95583 0.43932 0.0
C409 C 0.27802 0.92719 0.41715 0.0
C410 C 0.32929 0.98958 0.47721 0.0
C411 C 0.2913 0.99531 0.49283 0.0
C412 C 0.24631 0.96586 0.47127 0.0
C413 C 0.24013 0.93186 0.43377 0.0
C414 C 0.37771 0.01971 0.4998 0.0
C415 C 0.2051 0.97117 0.48671 0.0
H416 H 0.31373 0.05956 0.6612 0.0
H417 H 0.34716 0.15234 0.52908 0.0
H418 H 0.2478 0.95209 0.58847 0.0
H419 H 0.30729 0.96809 0.60033 0.0
H420 H 0.27464 0.97748 0.65093 0.0
H421 H 0.32694 0.12494 0.44224 0.0
H422 H 0.34708 0.08381 0.43378 0.0
H423 H 0.28577 0.06376 0.43159 0.0
H424 H 0.35149 0.95191 0.42695 0.0
H425 H 0.20594 0.90971 0.41657 0.0
H426 H 0.37644 0.01807 0.54348 0.0
H427 H 0.39133 0.05673 0.48844 0.0
H428 H 0.40277 0.00889 0.48589 0.0
H429 H 0.20102 0.96945 0.53017 0.0
H430 H 0.17196 0.94381 0.46874 0.0
H431 H 0.21131 0.00596 0.47401 0.0
C432 C 0.19672 0.40727 0.64705 0.0
C433 C 0.18908 0.44309 0.66497 0.0
C434 C 0.19969 0.40005 0.59286 0.0
C435 C 0.19493 0.42935 0.55555 0.0
C436 C 0.18783 0.46592 0.57341 0.0
C437 C 0.18509 0.47238 0.62774 0.0
C438 C 0.2074 0.36073 0.57549 0.0
C439 C 0.1829 0.49816 0.53507 0.0
C440 C 0.24265 0.4375 0.4169 0.0
C441 C 0.20205 0.40783 0.38829 0.0
C442 C 0.24084 0.44479 0.47121 0.0
C443 C 0.19736 0.42183 0.49783 0.0
C444 C 0.15617 0.39209 0.46915 0.0
C445 C 0.15899 0.38555 0.41477 0.0
C446 C 0.28552 0.4771 0.50011 0.0
C447 C 0.10913 0.3669 0.49602 0.0
H448 H 0.19939 0.38415 0.67538 0.0
H449 H 0.18001 0.50067 0.64113 0.0
H450 H 0.1776 0.33566 0.55084 0.0
H451 H 0.23934 0.37468 0.55084 0.0
H452 H 0.21112 0.34153 0.60937 0.0
H453 H 0.17772 0.52505 0.55529 0.0
H454 H 0.21454 0.51609 0.50994 0.0
H455 H 0.15272 0.47763 0.50854 0.0
H456 H 0.27598 0.4554 0.39665 0.0
H457 H 0.12753 0.36219 0.39314 0.0
H458 H 0.29129 0.4579 0.5324 0.0
H459 H 0.28275 0.5061 0.51843 0.0
H460 H 0.31651 0.49225 0.47373 0.0
H461 H 0.10973 0.34413 0.5278 0.0
H462 H 0.08043 0.34504 0.4682 0.0
H463 H 0.10131 0.39256 0.51473 0.0
C464 C 0.76676 0.23177 0.97343 0.0
C465 C 0.74914 0.18882 0.99967 0.0
C466 C 0.77637 0.23558 0.91904 0.0
C467 C 0.76844 0.19554 0.89015 0.0
C468 C 0.75114 0.15223 0.91657 0.0
C469 C 0.74171 0.1494 0.97085 0.0
C470 C 0.79469 0.28238 0.89239 0.0
C471 C 0.74258 0.10878 0.88746 0.0
C472 C 0.75355 0.1933 0.74087 0.0
C473 C 0.79798 0.20381 0.72298 0.0
C474 C 0.74352 0.19077 0.79508 0.0
C475 C 0.7787 0.19892 0.83244 0.0
C476 C 0.82354 0.20942 0.81464 0.0
C477 C 0.83257 0.21163 0.76029 0.0
C478 C 0.69526 0.17947 0.81238 0.0
C479 C 0.86199 0.21813 0.85305 0.0
H480 H 0.77216 0.26228 0.99524 0.0
H481 H 0.72876 0.11623 0.99092 0.0
H482 H 0.82894 0.29309 0.87365 0.0
H483 H 0.77037 0.27969 0.86064 0.0
H484 H 0.79906 0.31015 0.92035 0.0
H485 H 0.72894 0.07777 0.91369 0.0
H486 H 0.71711 0.10104 0.85514 0.0
H487 H 0.77555 0.11453 0.86918 0.0
H488 H 0.72675 0.18777 0.71247 0.0
H489 H 0.86677 0.21902 0.74699 0.0
H490 H 0.69761 0.20809 0.83742 0.0
H491 H 0.67909 0.1472 0.83662 0.0
H492 H 0.67189 0.17437 0.77848 0.0
H493 H 0.8687 0.24744 0.87972 0.0
H494 H 0.89518 0.22664 0.83289 0.0
H495 H 0.85104 0.18677 0.87801 0.0
C496 C 0.53688 0.76953 0.30867 0.0
C497 C 0.56238 0.752 0.33472 0.0
C498 C 0.54261 0.77928 0.2543 0.0
C499 C 0.5748 0.77158 0.22526 0.0
C500 C 0.60104 0.75446 0.25151 0.0
C501 C 0.5945 0.74488 0.30577 0.0
C502 C 0.51391 0.79744 0.22783 0.0
C503 C 0.63603 0.74616 0.22223 0.0
C504 C 0.56172 0.75631 0.07607 0.0
C505 C 0.59552 0.80071 0.05796 0.0
C506 C 0.55437 0.74643 0.13032 0.0
C507 C 0.58143 0.78175 0.16752 0.0
C508 C 0.61559 0.82658 0.14951 0.0
C509 C 0.62228 0.83545 0.09512 0.0
C510 C 0.5176 0.69816 0.14784 0.0
C511 C 0.64533 0.86519 0.18775 0.0
H512 H 0.51166 0.7747 0.33059 0.0
H513 H 0.61488 0.73203 0.3257 0.0
H514 H 0.53729 0.83164 0.20893 0.0
H515 H 0.49215 0.77301 0.19624 0.0
H516 H 0.49059 0.8018 0.25595 0.0
H517 H 0.6537 0.73278 0.24838 0.0
H518 H 0.6183 0.72057 0.19002 0.0
H519 H 0.66302 0.77916 0.20378 0.0
H520 H 0.54044 0.72939 0.0478 0.0
H521 H 0.649 0.86964 0.08166 0.0
H522 H 0.49139 0.70046 0.17305 0.0
H523 H 0.53393 0.68215 0.17198 0.0
H524 H 0.49923 0.6747 0.11405 0.0
H525 H 0.62272 0.87174 0.21457 0.0
H526 H 0.66975 0.89838 0.16744 0.0
H527 H 0.66602 0.85448 0.21257 0.0
C528 C 0.77349 0.52742 0.63421 0.0
C529 C 0.81145 0.56018 0.66435 0.0
C530 C 0.77108 0.53364 0.57971 0.0
C531 C 0.80747 0.5736 0.5546 0.0
C532 C 0.84576 0.60688 0.5848 0.0
C533 C 0.84728 0.59978 0.6392 0.0
C534 C 0.72954 0.49745 0.549 0.0
C535 C 0.8853 0.64993 0.55959 0.0
C536 C 0.82361 0.57126 0.40611 0.0
C537 C 0.80281 0.59655 0.38742 0.0
C538 C 0.82517 0.56329 0.46033 0.0
C539 C 0.80534 0.58093 0.49683 0.0
C540 C 0.78399 0.60616 0.47818 0.0
C541 C 0.78299 0.61365 0.42382 0.0
C542 C 0.84838 0.53634 0.47861 0.0
C543 C 0.76224 0.62535 0.51569 0.0
H544 H 0.74537 0.49702 0.65336 0.0
H545 H 0.87709 0.62492 0.66193 0.0
H546 H 0.71109 0.5139 0.53002 0.0
H547 H 0.74147 0.48292 0.51708 0.0
H548 H 0.70431 0.4682 0.57428 0.0
H549 H 0.91254 0.67248 0.58854 0.0
H550 H 0.90188 0.63962 0.52837 0.0
H551 H 0.87156 0.6708 0.54042 0.0
H552 H 0.83938 0.55828 0.37835 0.0
H553 H 0.76612 0.63252 0.40972 0.0
H554 H 0.82337 0.50546 0.50193 0.0
H555 H 0.87826 0.55859 0.5048 0.0
H556 H 0.86138 0.52425 0.44522 0.0
H557 H 0.73461 0.59656 0.53937 0.0
H558 H 0.74659 0.64382 0.49486 0.0
H559 H 0.78903 0.65008 0.54364 0.0
C560 C 0.24795 0.80958 0.73979 0.0
C561 C 0.2036 0.79929 0.7218 0.0
C562 C 0.25792 0.81208 0.79402 0.0
C563 C 0.22278 0.80415 0.83134 0.0
C564 C 0.17802 0.79386 0.81345 0.0
C565 C 0.16904 0.79166 0.75907 0.0
C566 C 0.30609 0.82313 0.81139 0.0
C567 C 0.1396 0.78538 0.85179 0.0
C568 C 0.23459 0.77132 0.97247 0.0
C569 C 0.2525 0.81435 0.9986 0.0
C570 C 0.22488 0.76747 0.91809 0.0
C571 C 0.23301 0.80754 0.88909 0.0
C572 C 0.25056 0.85091 0.9154 0.0
C573 C 0.26009 0.85378 0.96968 0.0
C574 C 0.20629 0.72059 0.89156 0.0
C575 C 0.25932 0.89439 0.8862 0.0
H576 H 0.27473 0.81496 0.71143 0.0
H577 H 0.1349 0.78443 0.74571 0.0
H578 H 0.3224 0.85543 0.83557 0.0
H579 H 0.30355 0.79447 0.83652 0.0
H580 H 0.32944 0.82806 0.77753 0.0
H581 H 0.10648 0.77702 0.83158 0.0
H582 H 0.13273 0.75605 0.87853 0.0
H583 H 0.15069 0.81679 0.87669 0.0
H584 H 0.22906 0.74078 0.99435 0.0
H585 H 0.27325 0.88702 0.98965 0.0
H586 H 0.23056 0.72307 0.85987 0.0
H587 H 0.1721 0.71007 0.87278 0.0
H588 H 0.20172 0.69279 0.91962 0.0
H589 H 0.28479 0.90201 0.85391 0.0
H590 H 0.27305 0.92544 0.91237 0.0
H591 H 0.22641 0.88877 0.86785 0.0
C592 C 0.46492 0.23259 0.30882 0.0
C593 C 0.43922 0.24982 0.33501 0.0
C594 C 0.45913 0.22285 0.25446 0.0
C595 C 0.42667 0.23025 0.22554 0.0
C596 C 0.40023 0.24706 0.25192 0.0
C597 C 0.40683 0.25664 0.30617 0.0
C598 C 0.48806 0.20504 0.22785 0.0
C599 C 0.36495 0.25503 0.22279 0.0
C600 C 0.43937 0.24565 0.07631 0.0
C601 C 0.40576 0.20117 0.05822 0.0
C602 C 0.44677 0.25552 0.13055 0.0
C603 C 0.41998 0.2201 0.16778 0.0
C604 C 0.38603 0.17518 0.14981 0.0
C605 C 0.37927 0.16632 0.09542 0.0
C606 C 0.48332 0.30389 0.14803 0.0
C607 C 0.35657 0.13646 0.18807 0.0
H608 H 0.49034 0.22765 0.33064 0.0
H609 H 0.38631 0.26926 0.3262 0.0
H610 H 0.46484 0.17079 0.20896 0.0
H611 H 0.50963 0.22957 0.19623 0.0
H612 H 0.51156 0.20087 0.25588 0.0
H613 H 0.34714 0.26818 0.24903 0.0
H614 H 0.38246 0.28067 0.19056 0.0
H615 H 0.33809 0.22195 0.20438 0.0
H616 H 0.46044 0.27266 0.04802 0.0
H617 H 0.35269 0.13207 0.082 0.0
H618 H 0.5097 0.30181 0.17316 0.0
H619 H 0.46683 0.31968 0.17224 0.0
H620 H 0.50151 0.32742 0.11422 0.0
H621 H 0.3794 0.13013 0.21482 0.0
H622 H 0.33231 0.1032 0.16779 0.0
H623 H 0.33573 0.14691 0.21297 0.0
C624 C 0.17553 0.51544 0.1766 0.0
C625 C 0.18212 0.52407 0.12223 0.0
C626 C 0.17459 0.5481 0.21102 0.0
C627 C 0.18043 0.5906 0.19073 0.0
C628 C 0.186 0.59921 0.13578 0.0
C629 C 0.1867 0.56575 0.10211 0.0
C630 C 0.16836 0.53749 0.26934 0.0
C631 C 0.19238 0.64421 0.11278 0.0
C632 C 0.14457 0.65882 0.28135 0.0
C633 C 0.18755 0.69089 0.30394 0.0
C634 C 0.14179 0.62672 0.24322 0.0
C635 C 0.18299 0.62678 0.22762 0.0
C636 C 0.22657 0.65977 0.24972 0.0
C637 C 0.22828 0.69136 0.28773 0.0
C638 C 0.09477 0.5924 0.22017 0.0
C639 C 0.2713 0.66101 0.23412 0.0
H640 H 0.17153 0.48321 0.19258 0.0
H641 H 0.19174 0.57271 0.06018 0.0
H642 H 0.19986 0.56363 0.29097 0.0
H643 H 0.13821 0.54006 0.28442 0.0
H644 H 0.16254 0.50207 0.27852 0.0
H645 H 0.19391 0.64458 0.06904 0.0
H646 H 0.16329 0.64972 0.12521 0.0
H647 H 0.22519 0.67422 0.12794 0.0
H648 H 0.1131 0.65882 0.29349 0.0
H649 H 0.2615 0.71605 0.3054 0.0
H650 H 0.0868 0.5561 0.22797 0.0
H651 H 0.09547 0.59681 0.17678 0.0
H652 H 0.06609 0.59687 0.23664 0.0
H653 H 0.2695 0.62774 0.2456 0.0
H654 H 0.30254 0.69038 0.25298 0.0
H655 H 0.27586 0.66442 0.19074 0.0
C656 C 0.6221 0.18789 0.43734 0.0
C657 C 0.65946 0.18354 0.45702 0.0
C658 C 0.5878 0.1865 0.47134 0.0
C659 C 0.59096 0.18045 0.52616 0.0
C660 C 0.62789 0.17483 0.546 0.0
C661 C 0.66162 0.17647 0.51126 0.0
C662 C 0.54891 0.19272 0.44884 0.0
C663 C 0.63245 0.16815 0.60418 0.0
C664 C 0.53798 0.22715 0.62449 0.0
C665 C 0.49781 0.18623 0.64049 0.0
C666 C 0.56783 0.22587 0.58611 0.0
C667 C 0.55733 0.18253 0.56346 0.0
C668 C 0.51633 0.14112 0.57894 0.0
C669 C 0.48701 0.14347 0.61743 0.0
C670 C 0.61115 0.27082 0.57065 0.0
C671 C 0.50376 0.09433 0.55534 0.0
H672 H 0.6201 0.1933 0.39552 0.0
H673 H 0.69004 0.17261 0.52691 0.0
H674 H 0.51443 0.16356 0.46147 0.0
H675 H 0.55172 0.22547 0.4642 0.0
H676 H 0.5498 0.19431 0.4051 0.0
H677 H 0.66221 0.16248 0.61295 0.0
H678 H 0.63766 0.19937 0.62627 0.0
H679 H 0.59984 0.13775 0.61913 0.0
H680 H 0.54646 0.2602 0.64254 0.0
H681 H 0.45562 0.11187 0.62943 0.0
H682 H 0.61213 0.2757 0.52733 0.0
H683 H 0.64276 0.2691 0.5817 0.0
H684 H 0.61294 0.30185 0.58997 0.0
H685 H 0.49992 0.09533 0.51201 0.0
H686 H 0.47071 0.06545 0.57176 0.0
H687 H 0.53223 0.08647 0.56271 0.0
C688 C 0.34338 0.48763 0.95026 0.0
C689 C 0.31063 0.49783 0.97231 0.0
C690 C 0.37576 0.51745 0.91261 0.0
C691 C 0.37532 0.5584 0.89701 0.0
C692 C 0.34176 0.56836 0.9187 0.0
C693 C 0.30988 0.53797 0.95619 0.0
C694 C 0.41072 0.50544 0.89001 0.0
C695 C 0.34007 0.6116 0.90306 0.0
C696 C 0.48596 0.66325 0.846 0.0
C697 C 0.47738 0.66097 0.7916 0.0
C698 C 0.45356 0.62941 0.88047 0.0
C699 C 0.41138 0.59228 0.86017 0.0
C700 C 0.40284 0.58905 0.8052 0.0
C701 C 0.43602 0.62343 0.77151 0.0
C702 C 0.46408 0.63405 0.93882 0.0
C703 C 0.35815 0.54994 0.7822 0.0
H704 H 0.34365 0.4563 0.96239 0.0
H705 H 0.28468 0.54598 0.97345 0.0
H706 H 0.40743 0.50278 0.84647 0.0
H707 H 0.44677 0.53366 0.89916 0.0
H708 H 0.40597 0.47194 0.90573 0.0
H709 H 0.31048 0.61313 0.92182 0.0
H710 H 0.37315 0.64327 0.91459 0.0
H711 H 0.33672 0.61274 0.85966 0.0
H712 H 0.51795 0.69183 0.86199 0.0
H713 H 0.4291 0.62133 0.72956 0.0
H714 H 0.46195 0.60157 0.95408 0.0
H715 H 0.43762 0.639 0.9603 0.0
H716 H 0.4993 0.66398 0.94801 0.0
H717 H 0.3532 0.51558 0.79471 0.0
H718 H 0.35782 0.55106 0.73846 0.0
H719 H 0.32781 0.5522 0.79727 0.0
C720 C 0.77447 0.31206 0.28873 0.0
C721 C 0.81499 0.31203 0.30475 0.0
C722 C 0.7764 0.3436 0.25045 0.0
C723 C 0.81999 0.37592 0.2278 0.0
C724 C 0.86096 0.37544 0.24321 0.0
C725 C 0.85797 0.34346 0.28166 0.0
C726 C 0.73193 0.34303 0.23517 0.0
C727 C 0.90796 0.40899 0.21953 0.0
C728 C 0.8159 0.43625 0.10182 0.0
C729 C 0.82151 0.47846 0.12153 0.0
C730 C 0.81651 0.40288 0.13574 0.0
C731 C 0.82285 0.41203 0.19055 0.0
C732 C 0.82979 0.45506 0.2104 0.0
C733 C 0.82919 0.48773 0.17569 0.0
C734 C 0.80915 0.35737 0.11318 0.0
C735 C 0.83674 0.46623 0.26858 0.0
H736 H 0.74125 0.28785 0.30676 0.0
H737 H 0.88926 0.34304 0.29363 0.0
H738 H 0.73451 0.37674 0.24617 0.0
H739 H 0.72688 0.33912 0.19188 0.0
H740 H 0.70063 0.31425 0.25465 0.0
H741 H 0.93657 0.40473 0.23661 0.0
H742 H 0.90703 0.40343 0.17633 0.0
H743 H 0.91622 0.44555 0.22594 0.0
H744 H 0.81008 0.42882 0.06003 0.0
H745 H 0.83429 0.52047 0.19131 0.0
H746 H 0.77612 0.32787 0.12866 0.0
H747 H 0.83787 0.35129 0.12563 0.0
H748 H 0.80741 0.35671 0.06945 0.0
H749 H 0.80512 0.44085 0.29063 0.0
H750 H 0.84357 0.50206 0.27735 0.0
H751 H 0.86649 0.46289 0.28356 0.0
C752 C 0.37976 0.81478 0.43652 0.0
C753 C 0.34235 0.81907 0.45612 0.0
C754 C 0.41391 0.81594 0.47062 0.0
C755 C 0.41054 0.82167 0.52547 0.0
C756 C 0.37353 0.8272 0.54524 0.0
C757 C 0.33996 0.8258 0.5104 0.0
C758 C 0.45288 0.80983 0.44818 0.0
C759 C 0.36874 0.83356 0.60344 0.0
C760 C 0.4635 0.77471 0.62358 0.0
C761 C 0.5036 0.81559 0.63978 0.0
C762 C 0.43366 0.77608 0.58525 0.0
C763 C 0.4441 0.8195 0.56282 0.0
C764 C 0.48504 0.86089 0.57849 0.0
C765 C 0.51434 0.85843 0.61693 0.0
C766 C 0.39041 0.73117 0.5696 0.0
C767 C 0.49755 0.90775 0.55512 0.0
H768 H 0.38194 0.80962 0.39468 0.0
H769 H 0.31149 0.8296 0.526 0.0
H770 H 0.48731 0.83903 0.46086 0.0
H771 H 0.45014 0.7771 0.46354 0.0
H772 H 0.45204 0.80829 0.40444 0.0
H773 H 0.33891 0.83911 0.61219 0.0
H774 H 0.36353 0.80225 0.62537 0.0
H775 H 0.40127 0.86392 0.6186 0.0
H776 H 0.45508 0.7416 0.64146 0.0
H777 H 0.54567 0.89002 0.62909 0.0
H778 H 0.38952 0.72645 0.52626 0.0
H779 H 0.35875 0.7328 0.58063 0.0
H780 H 0.38862 0.70009 0.5888 0.0
H781 H 0.50143 0.90694 0.51178 0.0
H782 H 0.53057 0.9366 0.57164 0.0
H783 H 0.46904 0.91553 0.56259 0.0
C784 C 0.65853 0.51358 0.95107 0.0
C785 C 0.69104 0.5032 0.97348 0.0
C786 C 0.62609 0.4837 0.91349 0.0
C787 C 0.62619 0.44248 0.89834 0.0
C788 C 0.65939 0.43224 0.92055 0.0
C789 C 0.69133 0.46269 0.95796 0.0
C790 C 0.59151 0.49602 0.89036 0.0
C791 C 0.66074 0.38872 0.9054 0.0
C792 C 0.51532 0.33827 0.84664 0.0
C793 C 0.52424 0.34047 0.79232 0.0
C794 C 0.54771 0.37189 0.88129 0.0
C795 C 0.59024 0.40873 0.86127 0.0
C796 C 0.59916 0.41184 0.80639 0.0
C797 C 0.56597 0.37769 0.7725 0.0
C798 C 0.53679 0.36735 0.93954 0.0
C799 C 0.64424 0.45058 0.78366 0.0
H800 H 0.65858 0.54517 0.96275 0.0
H801 H 0.71632 0.45452 0.97553 0.0
H802 H 0.59503 0.4985 0.84684 0.0
H803 H 0.55533 0.46803 0.89939 0.0
H804 H 0.59649 0.52968 0.90577 0.0
H805 H 0.68991 0.38683 0.92478 0.0
H806 H 0.62734 0.35725 0.91654 0.0
H807 H 0.66459 0.38758 0.86209 0.0
H808 H 0.48306 0.30992 0.86241 0.0
H809 H 0.57317 0.37971 0.73062 0.0
H810 H 0.53909 0.39996 0.95457 0.0
H811 H 0.56294 0.36216 0.96139 0.0
H812 H 0.5014 0.3376 0.94851 0.0
H813 H 0.64947 0.4851 0.79591 0.0
H814 H 0.64488 0.44939 0.73993 0.0
H815 H 0.67424 0.44794 0.79918 0.0
loop_
_geom_bond_atom_site_label_1
_geom_bond_atom_site_label_2
_geom_bond_distance
_geom_bond_site_symmetry_2
_ccdc_geom_bond_type
Gd0 C3 2.818 . S
Gd0 O20 2.377 . S
Gd0 O22 2.448 . S
Gd0 O23 2.506 . S
Gd0 O24 2.433 1_556 S
Gd0 O25 2.717 1_556 S
Gd0 O27 2.395 1_556 S
Gd0 O31 2.327 . S
Gd1 C12 2.818 . S
Gd1 O21 2.407 . S
Gd1 O25 2.327 . S
Gd1 O26 2.377 . S
Gd1 O28 2.448 . S
Gd1 O29 2.506 . S
Gd1 O30 2.435 . S
Gd1 O31 2.717 1_554 S
C2 O20 1.240 . S
C2 O21 1.227 1_556 S
C3 Gd0 2.818 . S
C3 C4 1.510 . S
C3 O22 1.249 . S
C3 O23 1.252 . S
C4 C3 1.510 . S
C4 C5 1.404 . S
C4 C6 1.352 . S
C5 C4 1.404 . S
C5 C9 1.389 . S
C5 H32 0.930 . S
C6 C4 1.352 . S
C6 C8 1.374 . S
C6 H33 0.931 . S
C7 C8 1.359 . S
C7 C9 1.364 . S
C8 C6 1.374 . S
C8 C7 1.359 . S
C8 H34 0.931 . S
C9 C5 1.389 . S
C9 C7 1.364 . S
C9 H35 0.931 . S
C10 O24 1.261 . S
C10 O25 1.257 . S
C11 O26 1.240 . S
C11 O27 1.240 . S
C12 Gd1 2.818 . S
C12 C13 1.510 . S
C12 O28 1.249 . S
C12 O29 1.252 . S
C13 C12 1.510 . S
C13 C14 1.404 . S
C13 C15 1.352 . S
C14 C13 1.404 . S
C14 C18 1.389 . S
C14 H36 0.930 . S
C15 C13 1.352 . S
C15 C17 1.374 . S
C15 H37 0.931 . S
C16 C17 1.359 . S
C16 C18 1.364 . S
C17 C15 1.374 . S
C17 C16 1.359 . S
C17 H38 0.931 . S
C18 C14 1.389 . S
C18 C16 1.364 . S
C18 H39 0.931 . S
C19 O30 1.256 1_556 S
C19 O31 1.257 . S
O20 Gd0 2.377 . S
O20 C2 1.240 . S
O21 Gd1 2.407 . S
O21 C2 1.227 1_554 S
O22 Gd0 2.448 . S
O22 C3 1.249 . S
O23 Gd0 2.506 . S
O23 C3 1.252 . S
O24 Gd0 2.433 1_554 S
O24 C10 1.261 . S
O25 Gd0 2.717 1_554 S
O25 Gd1 2.327 . S
O25 C10 1.257 . S
O26 Gd1 2.377 . S
O26 C11 1.240 . S
O27 Gd0 2.395 1_554 S
O27 C11 1.240 . S
O28 Gd1 2.448 . S
O28 C12 1.249 . S
O29 Gd1 2.506 . S
O29 C12 1.252 . S
O30 Gd1 2.435 . S
O30 C19 1.256 1_554 S
O31 Gd0 2.327 . S
O31 Gd1 2.717 1_556 S
O31 C19 1.257 . S
H32 C5 0.930 . S
H33 C6 0.931 . S
H34 C8 0.931 . S
H35 C9 0.931 . S
H36 C14 0.930 . S
H37 C15 0.931 . S
H38 C17 0.931 . S
H39 C18 0.931 . S
Gd40 C43 2.818 . S
Gd40 O60 2.377 . S
Gd40 O62 2.448 . S
Gd40 O63 2.506 . S
Gd40 O64 2.435 . S
Gd40 O65 2.717 . S
Gd40 O67 2.395 . S
Gd40 O71 2.327 . S
Gd41 C52 2.818 . S
Gd41 O61 2.395 . S
Gd41 O65 2.327 . S
Gd41 O66 2.377 . S
Gd41 O68 2.448 . S
Gd41 O69 2.506 . S
Gd41 O70 2.435 . S
Gd41 O71 2.717 . S
C42 O60 1.240 . S
C42 O61 1.240 . S
C43 Gd40 2.818 . S
C43 C44 1.510 . S
C43 O62 1.249 . S
C43 O63 1.252 . S
C44 C43 1.510 . S
C44 C45 1.404 . S
C44 C46 1.352 . S
C45 C44 1.404 . S
C45 C49 1.389 . S
C45 H72 0.930 . S
C46 C44 1.352 . S
C46 C48 1.374 . S
C46 H73 0.931 . S
C47 C48 1.359 . S
C47 C49 1.364 . S
C48 C46 1.374 . S
C48 C47 1.359 . S
C48 H74 0.931 . S
C49 C45 1.389 . S
C49 C47 1.364 . S
C49 H75 0.931 . S
C50 O64 1.256 . S
C50 O65 1.257 . S
C51 O66 1.240 . S
C51 O67 1.240 . S
C52 Gd41 2.818 . S
C52 C53 1.510 . S
C52 O68 1.249 . S
C52 O69 1.252 . S
C53 C52 1.510 . S
C53 C54 1.404 . S
C53 C55 1.352 . S
C54 C53 1.404 . S
C54 C58 1.389 . S
C54 H76 0.930 . S
C55 C53 1.352 . S
C55 C57 1.374 . S
C55 H77 0.931 . S
C56 C57 1.359 . S
C56 C58 1.364 . S
C57 C55 1.374 . S
C57 C56 1.359 . S
C57 H78 0.931 . S
C58 C54 1.389 . S
C58 C56 1.364 . S
C58 H79 0.931 . S
C59 O70 1.256 . S
C59 O71 1.257 . S
O60 Gd40 2.377 . S
O60 C42 1.240 . S
O61 Gd41 2.395 . S
O61 C42 1.240 . S
O62 Gd40 2.448 . S
O62 C43 1.249 . S
O63 Gd40 2.506 . S
O63 C43 1.252 . S
O64 Gd40 2.435 . S
O64 C50 1.256 . S
O65 Gd40 2.717 . S
O65 Gd41 2.327 . S
O65 C50 1.257 . S
O66 Gd41 2.377 . S
O66 C51 1.240 . S
O67 Gd40 2.395 . S
O67 C51 1.240 . S
O68 Gd41 2.448 . S
O68 C52 1.249 . S
O69 Gd41 2.506 . S
O69 C52 1.252 . S
O70 Gd41 2.435 . S
O70 C59 1.256 . S
O71 Gd40 2.327 . S
O71 Gd41 2.717 . S
O71 C59 1.257 . S
H72 C45 0.930 . S
H73 C46 0.931 . S
H74 C48 0.931 . S
H75 C49 0.931 . S
H76 C54 0.930 . S
H77 C55 0.931 . S
H78 C57 0.931 . S
H79 C58 0.931 . S
Gd80 C83 2.818 . S
Gd80 O100 2.377 . S
Gd80 O102 2.448 . S
Gd80 O103 2.506 . S
Gd80 O104 2.435 . S
Gd80 O105 2.717 . S
Gd80 O107 2.395 . S
Gd80 O111 2.327 . S
Gd81 C92 2.818 . S
Gd81 O101 2.395 . S
Gd81 O105 2.327 . S
Gd81 O106 2.377 . S
Gd81 O108 2.448 . S
Gd81 O109 2.506 . S
Gd81 O110 2.435 . S
Gd81 O111 2.717 . S
C82 O100 1.240 . S
C82 O101 1.240 . S
C83 Gd80 2.818 . S
C83 C84 1.510 . S
C83 O102 1.249 . S
C83 O103 1.252 . S
C84 C83 1.510 . S
C84 C85 1.404 . S
C84 C86 1.352 . S
C85 C84 1.404 . S
C85 C89 1.389 . S
C85 H112 0.930 . S
C86 C84 1.352 . S
C86 C88 1.374 . S
C86 H113 0.931 . S
C87 C88 1.359 . S
C87 C89 1.364 . S
C88 C86 1.374 . S
C88 C87 1.359 . S
C88 H114 0.931 . S
C89 C85 1.389 . S
C89 C87 1.364 . S
C89 H115 0.931 . S
C90 O104 1.256 . S
C90 O105 1.257 . S
C91 O106 1.240 . S
C91 O107 1.240 . S
C92 Gd81 2.818 . S
C92 C93 1.510 . S
C92 O108 1.249 . S
C92 O109 1.252 . S
C93 C92 1.510 . S
C93 C94 1.404 . S
C93 C95 1.352 . S
C94 C93 1.404 . S
C94 C98 1.389 . S
C94 H116 0.930 . S
C95 C93 1.352 . S
C95 C97 1.374 . S
C95 H117 0.931 . S
C96 C97 1.359 1_554 S
C96 C98 1.364 1_554 S
C97 C95 1.374 . S
C97 C96 1.359 1_556 S
C97 H118 0.931 1_556 S
C98 C94 1.389 . S
C98 C96 1.364 1_556 S
C98 H119 0.931 . S
C99 O110 1.256 . S
C99 O111 1.257 . S
O100 Gd80 2.377 . S
O100 C82 1.240 . S
O101 Gd81 2.395 . S
O101 C82 1.240 . S
O102 Gd80 2.448 . S
O102 C83 1.249 . S
O103 Gd80 2.506 . S
O103 C83 1.252 . S
O104 Gd80 2.435 . S
O104 C90 1.256 . S
O105 Gd80 2.717 . S
O105 Gd81 2.327 . S
O105 C90 1.257 . S
O106 Gd81 2.377 . S
O106 C91 1.240 . S
O107 Gd80 2.395 . S
O107 C91 1.240 . S
O108 Gd81 2.448 . S
O108 C92 1.249 . S
O109 Gd81 2.506 . S
O109 C92 1.252 . S
O110 Gd81 2.435 . S
O110 C99 1.256 . S
O111 Gd80 2.327 . S
O111 Gd81 2.717 . S
O111 C99 1.257 . S
H112 C85 0.930 . S
H113 C86 0.931 . S
H114 C88 0.931 . S
H115 C89 0.931 . S
H116 C94 0.930 . S
H117 C95 0.931 . S
H118 C97 0.931 1_554 S
H119 C98 0.931 . S
Gd120 C123 2.818 . S
Gd120 O140 2.377 . S
Gd120 O142 2.448 . S
Gd120 O143 2.506 . S
Gd120 O144 2.433 1_556 S
Gd120 O145 2.717 1_556 S
Gd120 O147 2.395 1_556 S
Gd120 O151 2.327 . S
Gd121 C132 2.818 . S
Gd121 O141 2.407 . S
Gd121 O145 2.327 . S
Gd121 O146 2.377 . S
Gd121 O148 2.448 . S
Gd121 O149 2.506 . S
Gd121 O150 2.435 . S
Gd121 O151 2.717 1_554 S
C122 O140 1.240 . S
C122 O141 1.227 1_556 S
C123 Gd120 2.818 . S
C123 C124 1.510 . S
C123 O142 1.249 . S
C123 O143 1.252 . S
C124 C123 1.510 . S
C124 C125 1.404 . S
C124 C126 1.352 . S
C125 C124 1.404 . S
C125 C129 1.389 . S
C125 H152 0.930 . S
C126 C124 1.352 . S
C126 C128 1.374 . S
C126 H153 0.931 . S
C127 C128 1.359 . S
C127 C129 1.364 . S
C128 C126 1.374 . S
C128 C127 1.359 . S
C128 H154 0.931 . S
C129 C125 1.389 . S
C129 C127 1.364 . S
C129 H155 0.931 . S
C130 O144 1.261 . S
C130 O145 1.257 . S
C131 O146 1.240 . S
C131 O147 1.240 . S
C132 Gd121 2.818 . S
C132 C133 1.510 . S
C132 O148 1.249 . S
C132 O149 1.252 . S
C133 C132 1.510 . S
C133 C134 1.404 . S
C133 C135 1.352 . S
C134 C133 1.404 . S
C134 C138 1.389 . S
C134 H156 0.930 . S
C135 C133 1.352 . S
C135 C137 1.374 . S
C135 H157 0.931 . S
C136 C137 1.359 . S
C136 C138 1.364 . S
C137 C135 1.374 . S
C137 C136 1.359 . S
C137 H158 0.931 . S
C138 C134 1.389 . S
C138 C136 1.364 . S
C138 H159 0.931 . S
C139 O150 1.256 1_556 S
C139 O151 1.257 . S
O140 Gd120 2.377 . S
O140 C122 1.240 . S
O141 Gd121 2.407 . S
O141 C122 1.227 1_554 S
O142 Gd120 2.448 . S
O142 C123 1.249 . S
O143 Gd120 2.506 . S
O143 C123 1.252 . S
O144 Gd120 2.433 1_554 S
O144 C130 1.261 . S
O145 Gd120 2.717 1_554 S
O145 Gd121 2.327 . S
O145 C130 1.257 . S
O146 Gd121 2.377 . S
O146 C131 1.240 . S
O147 Gd120 2.395 1_554 S
O147 C131 1.240 . S
O148 Gd121 2.448 . S
O148 C132 1.249 . S
O149 Gd121 2.506 . S
O149 C132 1.252 . S
O150 Gd121 2.435 . S
O150 C139 1.256 1_554 S
O151 Gd120 2.327 . S
O151 Gd121 2.717 1_556 S
O151 C139 1.257 . S
H152 C125 0.930 . S
H153 C126 0.931 . S
H154 C128 0.931 . S
H155 C129 0.931 . S
H156 C134 0.930 . S
H157 C135 0.931 . S
H158 C137 0.931 . S
H159 C138 0.931 . S
Gd160 C163 2.818 . S
Gd160 O180 2.377 . S
Gd160 O182 2.448 . S
Gd160 O183 2.506 . S
Gd160 O184 2.435 . S
Gd160 O185 2.717 . S
Gd160 O187 2.395 . S
Gd160 O191 2.327 . S
Gd161 C172 2.818 . S
Gd161 O181 2.395 . S
Gd161 O185 2.327 . S
Gd161 O186 2.377 . S
Gd161 O188 2.448 . S
Gd161 O189 2.506 . S
Gd161 O190 2.435 . S
Gd161 O191 2.717 . S
C162 O180 1.240 . S
C162 O181 1.240 . S
C163 Gd160 2.818 . S
C163 C164 1.510 . S
C163 O182 1.249 . S
C163 O183 1.252 . S
C164 C163 1.510 . S
C164 C165 1.404 . S
C164 C166 1.352 . S
C165 C164 1.404 . S
C165 C169 1.389 . S
C165 H192 0.930 . S
C166 C164 1.352 . S
C166 C168 1.374 . S
C166 H193 0.931 . S
C167 C168 1.359 . S
C167 C169 1.364 . S
C168 C166 1.374 . S
C168 C167 1.359 . S
C168 H194 0.931 . S
C169 C165 1.389 . S
C169 C167 1.364 . S
C169 H195 0.931 . S
C170 O184 1.256 . S
C170 O185 1.257 . S
C171 O186 1.240 . S
C171 O187 1.240 . S
C172 Gd161 2.818 . S
C172 C173 1.510 . S
C172 O188 1.249 . S
C172 O189 1.252 . S
C173 C172 1.510 . S
C173 C174 1.404 . S
C173 C175 1.352 . S
C174 C173 1.404 . S
C174 C178 1.389 . S
C174 H196 0.930 . S
C175 C173 1.352 . S
C175 C177 1.374 . S
C175 H197 0.931 . S
C176 C177 1.359 . S
C176 C178 1.364 . S
C177 C175 1.374 . S
C177 C176 1.359 . S
C177 H198 0.931 . S
C178 C174 1.389 . S
C178 C176 1.364 . S
C178 H199 0.931 . S
C179 O190 1.256 . S
C179 O191 1.257 . S
O180 Gd160 2.377 . S
O180 C162 1.240 . S
O181 Gd161 2.395 . S
O181 C162 1.240 . S
O182 Gd160 2.448 . S
O182 C163 1.249 . S
O183 Gd160 2.506 . S
O183 C163 1.252 . S
O184 Gd160 2.435 . S
O184 C170 1.256 . S
O185 Gd160 2.717 . S
O185 Gd161 2.327 . S
O185 C170 1.257 . S
O186 Gd161 2.377 . S
O186 C171 1.240 . S
O187 Gd160 2.395 . S
O187 C171 1.240 . S
O188 Gd161 2.448 . S
O188 C172 1.249 . S
O189 Gd161 2.506 . S
O189 C172 1.252 . S
O190 Gd161 2.435 . S
O190 C179 1.256 . S
O191 Gd160 2.327 . S
O191 Gd161 2.717 . S
O191 C179 1.257 . S
H192 C165 0.930 . S
H193 C166 0.931 . S
H194 C168 0.931 . S
H195 C169 0.931 . S
H196 C174 0.930 . S
H197 C175 0.931 . S
H198 C177 0.931 . S
H199 C178 0.931 . S
Gd200 C203 2.818 . S
Gd200 O220 2.377 . S
Gd200 O222 2.448 . S
Gd200 O223 2.506 . S
Gd200 O224 2.435 . S
Gd200 O225 2.717 . S
Gd200 O227 2.395 . S
Gd200 O231 2.327 . S
Gd201 C212 2.818 . S
Gd201 O221 2.395 . S
Gd201 O225 2.327 . S
Gd201 O226 2.377 . S
Gd201 O228 2.448 . S
Gd201 O229 2.506 . S
Gd201 O230 2.435 . S
Gd201 O231 2.717 . S
C202 O220 1.240 . S
C202 O221 1.240 . S
C203 Gd200 2.818 . S
C203 C204 1.510 . S
C203 O222 1.249 . S
C203 O223 1.252 . S
C204 C203 1.510 . S
C204 C205 1.404 . S
C204 C206 1.352 . S
C205 C204 1.404 . S
C205 C209 1.389 . S
C205 H232 0.930 . S
C206 C204 1.352 . S
C206 C208 1.374 . S
C206 H233 0.931 . S
C207 C208 1.359 . S
C207 C209 1.364 . S
C208 C206 1.374 . S
C208 C207 1.359 . S
C208 H234 0.931 . S
C209 C205 1.389 . S
C209 C207 1.364 . S
C209 H235 0.931 . S
C210 O224 1.256 . S
C210 O225 1.257 . S
C211 O226 1.240 . S
C211 O227 1.240 . S
C212 Gd201 2.818 . S
C212 C213 1.510 . S
C212 O228 1.249 . S
C212 O229 1.252 . S
C213 C212 1.510 . S
C213 C214 1.404 . S
C213 C215 1.352 . S
C214 C213 1.404 . S
C214 C218 1.389 . S
C214 H236 0.930 . S
C215 C213 1.352 . S
C215 C217 1.374 . S
C215 H237 0.931 . S
C216 C217 1.359 1_554 S
C216 C218 1.364 1_554 S
C217 C215 1.374 . S
C217 C216 1.359 1_556 S
C217 H238 0.931 1_556 S
C218 C214 1.389 . S
C218 C216 1.364 1_556 S
C218 H239 0.931 . S
C219 O230 1.256 . S
C219 O231 1.257 . S
O220 Gd200 2.377 . S
O220 C202 1.240 . S
O221 Gd201 2.395 . S
O221 C202 1.240 . S
O222 Gd200 2.448 . S
O222 C203 1.249 . S
O223 Gd200 2.506 . S
O223 C203 1.252 . S
O224 Gd200 2.435 . S
O224 C210 1.256 . S
O225 Gd200 2.717 . S
O225 Gd201 2.327 . S
O225 C210 1.257 . S
O226 Gd201 2.377 . S
O226 C211 1.240 . S
O227 Gd200 2.395 . S
O227 C211 1.240 . S
O228 Gd201 2.448 . S
O228 C212 1.249 . S
O229 Gd201 2.506 . S
O229 C212 1.252 . S
O230 Gd201 2.435 . S
O230 C219 1.256 . S
O231 Gd200 2.327 . S
O231 Gd201 2.717 . S
O231 C219 1.257 . S
H232 C205 0.930 . S
H233 C206 0.931 . S
H234 C208 0.931 . S
H235 C209 0.931 . S
H236 C214 0.930 . S
H237 C215 0.931 . S
H238 C217 0.931 1_554 S
H239 C218 0.931 . S
C240 C241 1.391 . S
C240 C242 1.394 . S
C240 H256 0.931 . S
C241 C240 1.391 . S
C241 C245 1.376 . S
C242 C240 1.394 . S
C242 C243 1.369 . S
C242 C246 1.531 . S
C243 C242 1.369 . S
C243 C244 1.410 . S
C243 C251 1.503 . S
C244 C243 1.410 . S
C244 C245 1.392 . S
C244 C247 1.511 . S
C245 C241 1.376 . S
C245 C244 1.392 . S
C245 H257 0.929 . S
C246 C242 1.531 . S
C246 H258 0.960 . S
C246 H259 0.962 . S
C246 H260 0.960 . S
C247 C244 1.511 . S
C247 H261 0.961 . S
C247 H262 0.961 . S
C247 H263 0.961 . S
C248 C249 1.370 . S
C248 C250 1.363 . S
C248 H264 0.931 . S
C249 C248 1.370 . S
C249 C253 1.408 . S
C250 C248 1.363 . S
C250 C251 1.370 . S
C250 C254 1.524 . S
C251 C243 1.503 . S
C251 C250 1.370 . S
C251 C252 1.403 . S
C252 C251 1.403 . S
C252 C253 1.404 . S
C252 C255 1.539 . S
C253 C249 1.408 . S
C253 C252 1.404 . S
C253 H265 0.930 . S
C254 C250 1.524 . S
C254 H266 0.956 . S
C254 H267 0.961 . S
C254 H268 0.961 . S
C255 C252 1.539 . S
C255 H269 0.958 . S
C255 H270 0.961 . S
C255 H271 0.960 . S
H256 C240 0.931 . S
H257 C245 0.929 . S
H258 C246 0.960 . S
H259 C246 0.962 . S
H260 C246 0.960 . S
H261 C247 0.961 . S
H262 C247 0.961 . S
H263 C247 0.961 . S
H264 C248 0.931 . S
H265 C253 0.930 . S
H266 C254 0.956 . S
H267 C254 0.961 . S
H268 C254 0.961 . S
H269 C255 0.958 . S
H270 C255 0.961 . S
H271 C255 0.960 . S
C272 C273 1.391 . S
C272 C274 1.394 . S
C272 H288 0.931 . S
C273 C272 1.391 . S
C273 C277 1.376 . S
C274 C272 1.394 . S
C274 C275 1.369 . S
C274 C278 1.531 1_455 S
C275 C274 1.369 . S
C275 C276 1.410 . S
C275 C283 1.503 1_455 S
C276 C275 1.410 . S
C276 C277 1.392 . S
C276 C279 1.511 . S
C277 C273 1.376 . S
C277 C276 1.392 . S
C277 H289 0.929 . S
C278 C274 1.531 1_655 S
C278 H290 0.960 . S
C278 H291 0.962 . S
C278 H292 0.960 . S
C279 C276 1.511 . S
C279 H293 0.961 . S
C279 H294 0.961 . S
C279 H295 0.961 . S
C280 C281 1.370 . S
C280 C282 1.363 . S
C280 H296 0.931 . S
C281 C280 1.370 . S
C281 C285 1.408 . S
C282 C280 1.363 . S
C282 C283 1.370 . S
C282 C286 1.524 . S
C283 C275 1.503 1_655 S
C283 C282 1.370 . S
C283 C284 1.403 . S
C284 C283 1.403 . S
C284 C285 1.404 . S
C284 C287 1.539 . S
C285 C281 1.408 . S
C285 C284 1.404 . S
C285 H297 0.930 . S
C286 C282 1.524 . S
C286 H298 0.956 . S
C286 H299 0.961 1_655 S
C286 H300 0.961 . S
C287 C284 1.539 . S
C287 H301 0.958 . S
C287 H302 0.961 . S
C287 H303 0.960 . S
H288 C272 0.931 . S
H289 C277 0.929 . S
H290 C278 0.960 . S
H291 C278 0.962 . S
H292 C278 0.960 . S
H293 C279 0.961 . S
H294 C279 0.961 . S
H295 C279 0.961 . S
H296 C280 0.931 . S
H297 C285 0.930 . S
H298 C286 0.956 . S
H299 C286 0.961 1_455 S
H300 C286 0.961 . S
H301 C287 0.958 . S
H302 C287 0.961 . S
H303 C287 0.960 . S
C304 C305 1.391 . S
C304 C306 1.394 . S
C304 H320 0.931 . S
C305 C304 1.391 . S
C305 C309 1.376 . S
C306 C304 1.394 . S
C306 C307 1.369 . S
C306 C310 1.531 1_545 S
C307 C306 1.369 . S
C307 C308 1.410 . S
C307 C315 1.503 1_545 S
C308 C307 1.410 . S
C308 C309 1.392 . S
C308 C311 1.511 . S
C309 C305 1.376 . S
C309 C308 1.392 . S
C309 H321 0.929 . S
C310 C306 1.531 1_565 S
C310 H322 0.960 . S
C310 H323 0.962 . S
C310 H324 0.960 . S
C311 C308 1.511 . S
C311 H325 0.961 . S
C311 H326 0.961 . S
C311 H327 0.961 . S
C312 C313 1.370 . S
C312 C314 1.363 . S
C312 H328 0.931 . S
C313 C312 1.370 . S
C313 C317 1.408 . S
C314 C312 1.363 . S
C314 C315 1.370 . S
C314 C318 1.524 1_565 S
C315 C307 1.503 1_565 S
C315 C314 1.370 . S
C315 C316 1.403 . S
C316 C315 1.403 . S
C316 C317 1.404 . S
C316 C319 1.539 . S
C317 C313 1.408 . S
C317 C316 1.404 . S
C317 H329 0.930 . S
C318 C314 1.524 1_545 S
C318 H330 0.956 . S
C318 H331 0.961 . S
C318 H332 0.961 . S
C319 C316 1.539 . S
C319 H333 0.958 . S
C319 H334 0.961 . S
C319 H335 0.960 . S
H320 C304 0.931 . S
H321 C309 0.929 . S
H322 C310 0.960 . S
H323 C310 0.962 . S
H324 C310 0.960 . S
H325 C311 0.961 . S
H326 C311 0.961 . S
H327 C311 0.961 . S
H328 C312 0.931 . S
H329 C317 0.930 . S
H330 C318 0.956 . S
H331 C318 0.961 . S
H332 C318 0.961 . S
H333 C319 0.958 . S
H334 C319 0.961 . S
H335 C319 0.960 . S
C336 C337 1.391 . S
C336 C338 1.394 . S
C336 H352 0.931 . S
C337 C336 1.391 . S
C337 C341 1.376 . S
C338 C336 1.394 . S
C338 C339 1.369 . S
C338 C342 1.531 . S
C339 C338 1.369 . S
C339 C340 1.410 . S
C339 C347 1.503 . S
C340 C339 1.410 . S
C340 C341 1.392 . S
C340 C343 1.511 . S
C341 C337 1.376 . S
C341 C340 1.392 . S
C341 H353 0.929 . S
C342 C338 1.531 . S
C342 H354 0.960 . S
C342 H355 0.962 . S
C342 H356 0.960 . S
C343 C340 1.511 . S
C343 H357 0.961 . S
C343 H358 0.961 . S
C343 H359 0.961 . S
C344 C345 1.370 . S
C344 C346 1.363 . S
C344 H360 0.931 . S
C345 C344 1.370 . S
C345 C349 1.408 . S
C346 C344 1.363 . S
C346 C347 1.370 . S
C346 C350 1.524 . S
C347 C339 1.503 . S
C347 C346 1.370 . S
C347 C348 1.403 . S
C348 C347 1.403 . S
C348 C349 1.404 . S
C348 C351 1.539 . S
C349 C345 1.408 . S
C349 C348 1.404 . S
C349 H361 0.930 . S
C350 C346 1.524 . S
C350 H362 0.956 . S
C350 H363 0.961 . S
C350 H364 0.961 . S
C351 C348 1.539 . S
C351 H365 0.958 . S
C351 H366 0.961 . S
C351 H367 0.960 . S
H352 C336 0.931 . S
H353 C341 0.929 . S
H354 C342 0.960 . S
H355 C342 0.962 . S
H356 C342 0.960 . S
H357 C343 0.961 . S
H358 C343 0.961 . S
H359 C343 0.961 . S
H360 C344 0.931 . S
H361 C349 0.930 . S
H362 C350 0.956 . S
H363 C350 0.961 . S
H364 C350 0.961 . S
H365 C351 0.958 . S
H366 C351 0.961 . S
H367 C351 0.960 . S
C368 C369 1.391 . S
C368 C370 1.394 . S
C368 H384 0.931 . S
C369 C368 1.391 . S
C369 C373 1.376 . S
C370 C368 1.394 . S
C370 C371 1.369 . S
C370 C374 1.531 1_455 S
C371 C370 1.369 . S
C371 C372 1.410 . S
C371 C379 1.503 1_455 S
C372 C371 1.410 . S
C372 C373 1.392 . S
C372 C375 1.511 . S
C373 C369 1.376 . S
C373 C372 1.392 . S
C373 H385 0.929 . S
C374 C370 1.531 1_655 S
C374 H386 0.960 . S
C374 H387 0.962 . S
C374 H388 0.960 . S
C375 C372 1.511 . S
C375 H389 0.961 . S
C375 H390 0.961 . S
C375 H391 0.961 . S
C376 C377 1.370 . S
C376 C378 1.363 . S
C376 H392 0.931 . S
C377 C376 1.370 . S
C377 C381 1.408 . S
C378 C376 1.363 . S
C378 C379 1.370 . S
C378 C382 1.524 1_655 S
C379 C371 1.503 1_655 S
C379 C378 1.370 . S
C379 C380 1.403 . S
C380 C379 1.403 . S
C380 C381 1.404 . S
C380 C383 1.539 . S
C381 C377 1.408 . S
C381 C380 1.404 . S
C381 H393 0.930 . S
C382 C378 1.524 1_455 S
C382 H394 0.956 . S
C382 H395 0.961 . S
C382 H396 0.961 . S
C383 C380 1.539 . S
C383 H397 0.958 . S
C383 H398 0.961 . S
C383 H399 0.960 . S
H384 C368 0.931 . S
H385 C373 0.929 . S
H386 C374 0.960 . S
H387 C374 0.962 . S
H388 C374 0.960 . S
H389 C375 0.961 . S
H390 C375 0.961 . S
H391 C375 0.961 . S
H392 C376 0.931 . S
H393 C381 0.930 . S
H394 C382 0.956 . S
H395 C382 0.961 . S
H396 C382 0.961 . S
H397 C383 0.958 . S
H398 C383 0.961 . S
H399 C383 0.960 . S
C400 C401 1.391 . S
C400 C402 1.394 . S
C400 H416 0.931 . S
C401 C400 1.391 . S
C401 C405 1.376 . S
C402 C400 1.394 . S
C402 C403 1.369 . S
C402 C406 1.531 1_545 S
C403 C402 1.369 . S
C403 C404 1.410 . S
C403 C411 1.503 1_545 S
C404 C403 1.410 . S
C404 C405 1.392 . S
C404 C407 1.511 . S
C405 C401 1.376 . S
C405 C404 1.392 . S
C405 H417 0.929 . S
C406 C402 1.531 1_565 S
C406 H418 0.960 . S
C406 H419 0.962 . S
C406 H420 0.960 . S
C407 C404 1.511 . S
C407 H421 0.961 . S
C407 H422 0.961 . S
C407 H423 0.961 . S
C408 C409 1.370 . S
C408 C410 1.363 . S
C408 H424 0.931 . S
C409 C408 1.370 . S
C409 C413 1.408 . S
C410 C408 1.363 . S
C410 C411 1.370 . S
C410 C414 1.524 1_565 S
C411 C403 1.503 1_565 S
C411 C410 1.370 . S
C411 C412 1.403 . S
C412 C411 1.403 . S
C412 C413 1.404 . S
C412 C415 1.539 . S
C413 C409 1.408 . S
C413 C412 1.404 . S
C413 H425 0.930 . S
C414 C410 1.524 1_545 S
C414 H426 0.956 . S
C414 H427 0.961 . S
C414 H428 0.961 . S
C415 C412 1.539 . S
C415 H429 0.958 . S
C415 H430 0.961 . S
C415 H431 0.960 . S
H416 C400 0.931 . S
H417 C405 0.929 . S
H418 C406 0.960 . S
H419 C406 0.962 . S
H420 C406 0.960 . S
H421 C407 0.961 . S
H422 C407 0.961 . S
H423 C407 0.961 . S
H424 C408 0.931 . S
H425 C413 0.930 . S
H426 C414 0.956 . S
H427 C414 0.961 . S
H428 C414 0.961 . S
H429 C415 0.958 . S
H430 C415 0.961 . S
H431 C415 0.960 . S
C432 C433 1.391 . S
C432 C434 1.394 . S
C432 H448 0.931 . S
C433 C432 1.391 . S
C433 C437 1.376 . S
C434 C432 1.394 . S
C434 C435 1.369 . S
C434 C438 1.531 . S
C435 C434 1.369 . S
C435 C436 1.410 . S
C435 C443 1.503 . S
C436 C435 1.410 . S
C436 C437 1.392 . S
C436 C439 1.511 . S
C437 C433 1.376 . S
C437 C436 1.392 . S
C437 H449 0.929 . S
C438 C434 1.531 . S
C438 H450 0.960 . S
C438 H451 0.962 . S
C438 H452 0.960 . S
C439 C436 1.511 . S
C439 H453 0.961 . S
C439 H454 0.961 . S
C439 H455 0.961 . S
C440 C441 1.370 . S
C440 C442 1.363 . S
C440 H456 0.931 . S
C441 C440 1.370 . S
C441 C445 1.408 . S
C442 C440 1.363 . S
C442 C443 1.370 . S
C442 C446 1.524 . S
C443 C435 1.503 . S
C443 C442 1.370 . S
C443 C444 1.403 . S
C444 C443 1.403 . S
C444 C445 1.404 . S
C444 C447 1.539 . S
C445 C441 1.408 . S
C445 C444 1.404 . S
C445 H457 0.930 . S
C446 C442 1.524 . S
C446 H458 0.956 . S
C446 H459 0.961 . S
C446 H460 0.961 . S
C447 C444 1.539 . S
C447 H461 0.958 . S
C447 H462 0.961 . S
C447 H463 0.960 . S
H448 C432 0.931 . S
H449 C437 0.929 . S
H450 C438 0.960 . S
H451 C438 0.962 . S
H452 C438 0.960 . S
H453 C439 0.961 . S
H454 C439 0.961 . S
H455 C439 0.961 . S
H456 C440 0.931 . S
H457 C445 0.930 . S
H458 C446 0.956 . S
H459 C446 0.961 . S
H460 C446 0.961 . S
H461 C447 0.958 . S
H462 C447 0.961 . S
H463 C447 0.960 . S
C464 C465 1.391 . S
C464 C466 1.394 . S
C464 H480 0.937 . S
C465 C464 1.391 . S
C465 C469 1.376 . S
C466 C464 1.394 . S
C466 C467 1.369 . S
C466 C470 1.531 . S
C467 C466 1.369 . S
C467 C468 1.410 . S
C467 C475 1.503 . S
C468 C467 1.410 . S
C468 C469 1.392 . S
C468 C471 1.511 . S
C469 C465 1.376 . S
C469 C468 1.392 . S
C469 H481 0.929 . S
C470 C466 1.531 . S
C470 H482 0.960 . S
C470 H483 0.962 . S
C470 H484 0.960 . S
C471 C468 1.511 . S
C471 H485 0.961 . S
C471 H486 0.961 . S
C471 H487 0.961 . S
C472 C473 1.370 . S
C472 C474 1.363 . S
C472 H488 0.931 . S
C473 C472 1.370 . S
C473 C477 1.408 . S
C474 C472 1.363 . S
C474 C475 1.370 . S
C474 C478 1.524 . S
C475 C467 1.503 . S
C475 C474 1.370 . S
C475 C476 1.403 . S
C476 C475 1.403 . S
C476 C477 1.404 . S
C476 C479 1.539 . S
C477 C473 1.408 . S
C477 C476 1.404 . S
C477 H489 0.930 . S
C478 C474 1.524 . S
C478 H490 0.956 . S
C478 H491 0.961 . S
C478 H492 0.961 . S
C479 C476 1.539 . S
C479 H493 0.958 . S
C479 H494 0.961 . S
C479 H495 0.960 . S
H480 C464 0.937 . S
H481 C469 0.929 . S
H482 C470 0.960 . S
H483 C470 0.962 . S
H484 C470 0.960 . S
H485 C471 0.961 . S
H486 C471 0.961 . S
H487 C471 0.961 . S
H488 C472 0.931 . S
H489 C477 0.930 . S
H490 C478 0.956 . S
H491 C478 0.961 . S
H492 C478 0.961 . S
H493 C479 0.958 . S
H494 C479 0.961 . S
H495 C479 0.960 . S
C496 C497 1.391 . S
C496 C498 1.394 . S
C496 H512 0.931 . S
C497 C496 1.391 . S
C497 C501 1.376 . S
C498 C496 1.394 . S
C498 C499 1.369 . S
C498 C502 1.531 . S
C499 C498 1.369 . S
C499 C500 1.410 . S
C499 C507 1.503 . S
C500 C499 1.410 . S
C500 C501 1.392 . S
C500 C503 1.511 . S
C501 C497 1.376 . S
C501 C500 1.392 . S
C501 H513 0.929 . S
C502 C498 1.531 . S
C502 H514 0.960 . S
C502 H515 0.962 . S
C502 H516 0.960 . S
C503 C500 1.511 . S
C503 H517 0.961 . S
C503 H518 0.961 . S
C503 H519 0.961 . S
C504 C505 1.370 . S
C504 C506 1.363 . S
C504 H520 0.931 . S
C505 C504 1.370 . S
C505 C509 1.408 . S
C506 C504 1.363 . S
C506 C507 1.370 . S
C506 C510 1.524 . S
C507 C499 1.503 . S
C507 C506 1.370 . S
C507 C508 1.403 . S
C508 C507 1.403 . S
C508 C509 1.404 . S
C508 C511 1.539 . S
C509 C505 1.408 . S
C509 C508 1.404 . S
C509 H521 0.930 . S
C510 C506 1.524 . S
C510 H522 0.956 . S
C510 H523 0.961 . S
C510 H524 0.961 . S
C511 C508 1.539 . S
C511 H525 0.958 . S
C511 H526 0.961 . S
C511 H527 0.960 . S
H512 C496 0.931 . S
H513 C501 0.929 . S
H514 C502 0.960 . S
H515 C502 0.962 . S
H516 C502 0.960 . S
H517 C503 0.961 . S
H518 C503 0.961 . S
H519 C503 0.961 . S
H520 C504 0.931 . S
H521 C509 0.930 . S
H522 C510 0.956 . S
H523 C510 0.961 . S
H524 C510 0.961 . S
H525 C511 0.958 . S
H526 C511 0.961 . S
H527 C511 0.960 . S
C528 C529 1.391 . S
C528 C530 1.394 . S
C528 H544 0.931 . S
C529 C528 1.391 . S
C529 C533 1.376 . S
C530 C528 1.394 . S
C530 C531 1.369 . S
C530 C534 1.531 . S
C531 C530 1.369 . S
C531 C532 1.410 . S
C531 C539 1.503 . S
C532 C531 1.410 . S
C532 C533 1.392 . S
C532 C535 1.511 . S
C533 C529 1.376 . S
C533 C532 1.392 . S
C533 H545 0.929 . S
C534 C530 1.531 . S
C534 H546 0.960 . S
C534 H547 0.962 . S
C534 H548 0.960 . S
C535 C532 1.511 . S
C535 H549 0.961 . S
C535 H550 0.961 . S
C535 H551 0.961 . S
C536 C537 1.370 . S
C536 C538 1.363 . S
C536 H552 0.931 . S
C537 C536 1.370 . S
C537 C541 1.408 . S
C538 C536 1.363 . S
C538 C539 1.370 . S
C538 C542 1.524 . S
C539 C531 1.503 . S
C539 C538 1.370 . S
C539 C540 1.403 . S
C540 C539 1.403 . S
C540 C541 1.404 . S
C540 C543 1.539 . S
C541 C537 1.408 . S
C541 C540 1.404 . S
C541 H553 0.930 . S
C542 C538 1.524 . S
C542 H554 0.956 . S
C542 H555 0.961 . S
C542 H556 0.961 . S
C543 C540 1.539 . S
C543 H557 0.958 . S
C543 H558 0.961 . S
C543 H559 0.960 . S
H544 C528 0.931 . S
H545 C533 0.929 . S
H546 C534 0.960 . S
H547 C534 0.962 . S
H548 C534 0.960 . S
H549 C535 0.961 . S
H550 C535 0.961 . S
H551 C535 0.961 . S
H552 C536 0.931 . S
H553 C541 0.930 . S
H554 C542 0.956 . S
H555 C542 0.961 . S
H556 C542 0.961 . S
H557 C543 0.958 . S
H558 C543 0.961 . S
H559 C543 0.960 . S
C560 C561 1.391 . S
C560 C562 1.394 . S
C560 H576 0.931 . S
C561 C560 1.391 . S
C561 C565 1.376 . S
C562 C560 1.394 . S
C562 C563 1.369 . S
C562 C566 1.531 . S
C563 C562 1.369 . S
C563 C564 1.410 . S
C563 C571 1.503 . S
C564 C563 1.410 . S
C564 C565 1.392 . S
C564 C567 1.511 . S
C565 C561 1.376 . S
C565 C564 1.392 . S
C565 H577 0.929 . S
C566 C562 1.531 . S
C566 H578 0.960 . S
C566 H579 0.962 . S
C566 H580 0.960 . S
C567 C564 1.511 . S
C567 H581 0.961 . S
C567 H582 0.961 . S
C567 H583 0.961 . S
C568 C569 1.370 . S
C568 C570 1.363 . S
C568 H584 0.931 . S
C569 C568 1.370 . S
C569 C573 1.408 . S
C570 C568 1.363 . S
C570 C571 1.370 . S
C570 C574 1.524 . S
C571 C563 1.503 . S
C571 C570 1.370 . S
C571 C572 1.403 . S
C572 C571 1.403 . S
C572 C573 1.404 . S
C572 C575 1.539 . S
C573 C569 1.408 . S
C573 C572 1.404 . S
C573 H585 0.930 . S
C574 C570 1.524 . S
C574 H586 0.956 . S
C574 H587 0.961 . S
C574 H588 0.961 . S
C575 C572 1.539 . S
C575 H589 0.958 . S
C575 H590 0.961 . S
C575 H591 0.960 . S
H576 C560 0.931 . S
H577 C565 0.929 . S
H578 C566 0.960 . S
H579 C566 0.962 . S
H580 C566 0.960 . S
H581 C567 0.961 . S
H582 C567 0.961 . S
H583 C567 0.961 . S
H584 C568 0.931 . S
H585 C573 0.930 . S
H586 C574 0.956 . S
H587 C574 0.961 . S
H588 C574 0.961 . S
H589 C575 0.958 . S
H590 C575 0.961 . S
H591 C575 0.960 . S
C592 C593 1.391 . S
C592 C594 1.394 . S
C592 H608 0.931 . S
C593 C592 1.391 . S
C593 C597 1.376 . S
C594 C592 1.394 . S
C594 C595 1.369 . S
C594 C598 1.531 . S
C595 C594 1.369 . S
C595 C596 1.410 . S
C595 C603 1.503 . S
C596 C595 1.410 . S
C596 C597 1.392 . S
C596 C599 1.511 . S
C597 C593 1.376 . S
C597 C596 1.392 . S
C597 H609 0.929 . S
C598 C594 1.531 . S
C598 H610 0.960 . S
C598 H611 0.962 . S
C598 H612 0.960 . S
C599 C596 1.511 . S
C599 H613 0.961 . S
C599 H614 0.961 . S
C599 H615 0.961 . S
C600 C601 1.370 . S
C600 C602 1.363 . S
C600 H616 0.931 . S
C601 C600 1.370 . S
C601 C605 1.408 . S
C602 C600 1.363 . S
C602 C603 1.370 . S
C602 C606 1.524 . S
C603 C595 1.503 . S
C603 C602 1.370 . S
C603 C604 1.403 . S
C604 C603 1.403 . S
C604 C605 1.404 . S
C604 C607 1.539 . S
C605 C601 1.408 . S
C605 C604 1.404 . S
C605 H617 0.930 . S
C606 C602 1.524 . S
C606 H618 0.956 . S
C606 H619 0.961 . S
C606 H620 0.961 . S
C607 C604 1.539 . S
C607 H621 0.958 . S
C607 H622 0.961 . S
C607 H623 0.960 . S
H608 C592 0.931 . S
H609 C597 0.929 . S
H610 C598 0.960 . S
H611 C598 0.962 . S
H612 C598 0.960 . S
H613 C599 0.961 . S
H614 C599 0.961 . S
H615 C599 0.961 . S
H616 C600 0.931 . S
H617 C605 0.930 . S
H618 C606 0.956 . S
H619 C606 0.961 . S
H620 C606 0.961 . S
H621 C607 0.958 . S
H622 C607 0.961 . S
H623 C607 0.960 . S
C624 C625 1.391 . S
C624 C626 1.394 . S
C624 H640 0.931 . S
C625 C624 1.391 . S
C625 C629 1.376 . S
C626 C624 1.394 . S
C626 C627 1.369 . S
C626 C630 1.531 . S
C627 C626 1.369 . S
C627 C628 1.410 . S
C627 C635 1.503 . S
C628 C627 1.410 . S
C628 C629 1.392 . S
C628 C631 1.511 . S
C629 C625 1.376 . S
C629 C628 1.392 . S
C629 H641 0.929 . S
C630 C626 1.531 . S
C630 H642 0.960 . S
C630 H643 0.962 . S
C630 H644 0.960 . S
C631 C628 1.511 . S
C631 H645 0.961 . S
C631 H646 0.961 . S
C631 H647 0.961 . S
C632 C633 1.370 . S
C632 C634 1.363 . S
C632 H648 0.931 . S
C633 C632 1.370 . S
C633 C637 1.408 . S
C634 C632 1.363 . S
C634 C635 1.370 . S
C634 C638 1.524 . S
C635 C627 1.503 . S
C635 C634 1.370 . S
C635 C636 1.403 . S
C636 C635 1.403 . S
C636 C637 1.404 . S
C636 C639 1.539 . S
C637 C633 1.408 . S
C637 C636 1.404 . S
C637 H649 0.930 . S
C638 C634 1.524 . S
C638 H650 0.956 . S
C638 H651 0.961 . S
C638 H652 0.961 . S
C639 C636 1.539 . S
C639 H653 0.958 . S
C639 H654 0.961 . S
C639 H655 0.960 . S
H640 C624 0.931 . S
H641 C629 0.929 . S
H642 C630 0.960 . S
H643 C630 0.962 . S
H644 C630 0.960 . S
H645 C631 0.961 . S
H646 C631 0.961 . S
H647 C631 0.961 . S
H648 C632 0.931 . S
H649 C637 0.930 . S
H650 C638 0.956 . S
H651 C638 0.961 . S
H652 C638 0.961 . S
H653 C639 0.958 . S
H654 C639 0.961 . S
H655 C639 0.960 . S
C656 C657 1.391 . S
C656 C658 1.394 . S
C656 H672 0.931 . S
C657 C656 1.391 . S
C657 C661 1.376 . S
C658 C656 1.394 . S
C658 C659 1.369 . S
C658 C662 1.531 . S
C659 C658 1.369 . S
C659 C660 1.410 . S
C659 C667 1.503 . S
C660 C659 1.410 . S
C660 C661 1.392 . S
C660 C663 1.511 . S
C661 C657 1.376 . S
C661 C660 1.392 . S
C661 H673 0.929 . S
C662 C658 1.531 . S
C662 H674 0.960 . S
C662 H675 0.962 . S
C662 H676 0.960 . S
C663 C660 1.511 . S
C663 H677 0.961 . S
C663 H678 0.961 . S
C663 H679 0.961 . S
C664 C665 1.370 . S
C664 C666 1.363 . S
C664 H680 0.931 . S
C665 C664 1.370 . S
C665 C669 1.408 . S
C666 C664 1.363 . S
C666 C667 1.370 . S
C666 C670 1.524 . S
C667 C659 1.503 . S
C667 C666 1.370 . S
C667 C668 1.403 . S
C668 C667 1.403 . S
C668 C669 1.404 . S
C668 C671 1.539 . S
C669 C665 1.408 . S
C669 C668 1.404 . S
C669 H681 0.930 . S
C670 C666 1.524 . S
C670 H682 0.956 . S
C670 H683 0.961 . S
C670 H684 0.961 . S
C671 C668 1.539 . S
C671 H685 0.958 . S
C671 H686 0.961 . S
C671 H687 0.960 . S
H672 C656 0.931 . S
H673 C661 0.929 . S
H674 C662 0.960 . S
H675 C662 0.962 . S
H676 C662 0.960 . S
H677 C663 0.961 . S
H678 C663 0.961 . S
H679 C663 0.961 . S
H680 C664 0.931 . S
H681 C669 0.930 . S
H682 C670 0.956 . S
H683 C670 0.961 . S
H684 C670 0.961 . S
H685 C671 0.958 . S
H686 C671 0.961 . S
H687 C671 0.960 . S
C688 C689 1.391 . S
C688 C690 1.394 . S
C688 H704 0.931 . S
C689 C688 1.391 . S
C689 C693 1.376 . S
C690 C688 1.394 . S
C690 C691 1.369 . S
C690 C694 1.531 . S
C691 C690 1.369 . S
C691 C692 1.410 . S
C691 C699 1.503 . S
C692 C691 1.410 . S
C692 C693 1.392 . S
C692 C695 1.511 . S
C693 C689 1.376 . S
C693 C692 1.392 . S
C693 H705 0.929 . S
C694 C690 1.531 . S
C694 H706 0.960 . S
C694 H707 0.962 . S
C694 H708 0.960 . S
C695 C692 1.511 . S
C695 H709 0.961 . S
C695 H710 0.961 . S
C695 H711 0.961 . S
C696 C697 1.370 . S
C696 C698 1.363 . S
C696 H712 0.931 . S
C697 C696 1.370 . S
C697 C701 1.408 . S
C698 C696 1.363 . S
C698 C699 1.370 . S
C698 C702 1.524 . S
C699 C691 1.503 . S
C699 C698 1.370 . S
C699 C700 1.403 . S
C700 C699 1.403 . S
C700 C701 1.404 . S
C700 C703 1.539 . S
C701 C697 1.408 . S
C701 C700 1.404 . S
C701 H713 0.930 . S
C702 C698 1.524 . S
C702 H714 0.956 . S
C702 H715 0.961 . S
C702 H716 0.961 . S
C703 C700 1.539 . S
C703 H717 0.958 . S
C703 H718 0.961 . S
C703 H719 0.960 . S
H704 C688 0.931 . S
H705 C693 0.929 . S
H706 C694 0.960 . S
H707 C694 0.962 . S
H708 C694 0.960 . S
H709 C695 0.961 . S
H710 C695 0.961 . S
H711 C695 0.961 . S
H712 C696 0.931 . S
H713 C701 0.930 . S
H714 C702 0.956 . S
H715 C702 0.961 . S
H716 C702 0.961 . S
H717 C703 0.958 . S
H718 C703 0.961 . S
H719 C703 0.960 . S
C720 C721 1.391 . S
C720 C722 1.394 . S
C720 H736 0.931 . S
C721 C720 1.391 . S
C721 C725 1.376 . S
C722 C720 1.394 . S
C722 C723 1.369 . S
C722 C726 1.531 . S
C723 C722 1.369 . S
C723 C724 1.410 . S
C723 C731 1.503 . S
C724 C723 1.410 . S
C724 C725 1.392 . S
C724 C727 1.511 . S
C725 C721 1.376 . S
C725 C724 1.392 . S
C725 H737 0.929 . S
C726 C722 1.531 . S
C726 H738 0.960 . S
C726 H739 0.962 . S
C726 H740 0.960 . S
C727 C724 1.511 . S
C727 H741 0.961 . S
C727 H742 0.961 . S
C727 H743 0.961 . S
C728 C729 1.370 . S
C728 C730 1.363 . S
C728 H744 0.931 . S
C729 C728 1.370 . S
C729 C733 1.408 . S
C730 C728 1.363 . S
C730 C731 1.370 . S
C730 C734 1.524 . S
C731 C723 1.503 . S
C731 C730 1.370 . S
C731 C732 1.403 . S
C732 C731 1.403 . S
C732 C733 1.404 . S
C732 C735 1.539 . S
C733 C729 1.408 . S
C733 C732 1.404 . S
C733 H745 0.930 . S
C734 C730 1.524 . S
C734 H746 0.956 . S
C734 H747 0.961 . S
C734 H748 0.961 . S
C735 C732 1.539 . S
C735 H749 0.958 . S
C735 H750 0.961 . S
C735 H751 0.960 . S
H736 C720 0.931 . S
H737 C725 0.929 . S
H738 C726 0.960 . S
H739 C726 0.962 . S
H740 C726 0.960 . S
H741 C727 0.961 . S
H742 C727 0.961 . S
H743 C727 0.961 . S
H744 C728 0.931 . S
H745 C733 0.930 . S
H746 C734 0.956 . S
H747 C734 0.961 . S
H748 C734 0.961 . S
H749 C735 0.958 . S
H750 C735 0.961 . S
H751 C735 0.960 . S
C752 C753 1.391 . S
C752 C754 1.394 . S
C752 H768 0.931 . S
C753 C752 1.391 . S
C753 C757 1.376 . S
C754 C752 1.394 . S
C754 C755 1.369 . S
C754 C758 1.531 . S
C755 C754 1.369 . S
C755 C756 1.410 . S
C755 C763 1.503 . S
C756 C755 1.410 . S
C756 C757 1.392 . S
C756 C759 1.511 . S
C757 C753 1.376 . S
C757 C756 1.392 . S
C757 H769 0.929 . S
C758 C754 1.531 . S
C758 H770 0.960 . S
C758 H771 0.962 . S
C758 H772 0.960 . S
C759 C756 1.511 . S
C759 H773 0.961 . S
C759 H774 0.961 . S
C759 H775 0.961 . S
C760 C761 1.370 . S
C760 C762 1.363 . S
C760 H776 0.931 . S
C761 C760 1.370 . S
C761 C765 1.408 . S
C762 C760 1.363 . S
C762 C763 1.370 . S
C762 C766 1.524 . S
C763 C755 1.503 . S
C763 C762 1.370 . S
C763 C764 1.403 . S
C764 C763 1.403 . S
C764 C765 1.404 . S
C764 C767 1.539 . S
C765 C761 1.408 . S
C765 C764 1.404 . S
C765 H777 0.930 . S
C766 C762 1.524 . S
C766 H778 0.956 . S
C766 H779 0.961 . S
C766 H780 0.961 . S
C767 C764 1.539 . S
C767 H781 0.958 . S
C767 H782 0.961 . S
C767 H783 0.960 . S
H768 C752 0.931 . S
H769 C757 0.929 . S
H770 C758 0.960 . S
H771 C758 0.962 . S
H772 C758 0.960 . S
H773 C759 0.961 . S
H774 C759 0.961 . S
H775 C759 0.961 . S
H776 C760 0.931 . S
H777 C765 0.930 . S
H778 C766 0.956 . S
H779 C766 0.961 . S
H780 C766 0.961 . S
H781 C767 0.958 . S
H782 C767 0.961 . S
H783 C767 0.960 . S
C784 C785 1.391 . S
C784 C786 1.394 . S
C784 H800 0.931 1_556 S
C785 C784 1.391 . S
C785 C789 1.376 . S
C786 C784 1.394 . S
C786 C787 1.369 . S
C786 C790 1.531 . S
C787 C786 1.369 . S
C787 C788 1.410 . S
C787 C795 1.503 . S
C788 C787 1.410 . S
C788 C789 1.392 . S
C788 C791 1.511 . S
C789 C785 1.376 . S
C789 C788 1.392 . S
C789 H801 0.929 . S
C790 C786 1.531 . S
C790 H802 0.960 . S
C790 H803 0.962 . S
C790 H804 0.960 . S
C791 C788 1.511 . S
C791 H805 0.961 . S
C791 H806 0.961 . S
C791 H807 0.961 . S
C792 C793 1.370 . S
C792 C794 1.363 . S
C792 H808 0.931 . S
C793 C792 1.370 . S
C793 C797 1.408 . S
C794 C792 1.363 . S
C794 C795 1.370 . S
C794 C798 1.524 . S
C795 C787 1.503 . S
C795 C794 1.370 . S
C795 C796 1.403 . S
C796 C795 1.403 . S
C796 C797 1.404 . S
C796 C799 1.539 . S
C797 C793 1.408 . S
C797 C796 1.404 . S
C797 H809 0.930 . S
C798 C794 1.524 . S
C798 H810 0.956 . S
C798 H811 0.961 . S
C798 H812 0.961 . S
C799 C796 1.539 . S
C799 H813 0.958 . S
C799 H814 0.961 . S
C799 H815 0.960 . S
H800 C784 0.931 1_554 S
H801 C789 0.929 . S
H802 C790 0.960 . S
H803 C790 0.962 . S
H804 C790 0.960 . S
H805 C791 0.961 . S
H806 C791 0.961 . S
H807 C791 0.961 . S
H808 C792 0.931 . S
H809 C797 0.930 . S
H810 C798 0.956 . S
H811 C798 0.961 . S
H812 C798 0.961 . S
H813 C799 0.958 . S
H814 C799 0.961 . S
H815 C799 0.960 . S
C241 C210 1.331 . S
C249 C2 1.397 . S
C273 C10 1.386 . S
C281 C42 1.403 . S
C305 C50 1.379 . S
C313 C82 1.403 . S
C337 C90 1.330 . S
C345 C122 1.396 . S
C369 C162 1.402 . S
C377 C130 1.376 . S
C401 C202 1.399 . S
C409 C170 1.374 . S
C433 C7 1.569 . S
C441 C16 1.517 . S
C465 C47 1.521 1_556 S
C473 C56 1.533 . S
C497 C87 1.517 . S
C505 C96 1.535 . S
C529 C127 1.550 . S
C537 C136 1.522 . S
C561 C176 1.488 . S
C569 C167 1.549 1_556 S
C593 C207 1.521 . S
C601 C216 1.534 . S
C625 C11 1.638 . S
C633 C179 1.667 . S
C657 C51 1.658 . S
C665 C219 1.662 . S
C689 C19 1.663 . S
C697 C91 1.654 . S
C721 C59 1.654 . S
C729 C131 1.660 . S
C753 C171 1.663 . S
C761 C99 1.662 . S
C785 C139 1.655 . S
C793 C211 1.660 . S
