# Generated by pormake.
# Topology ukn, (4)-cn, num edge types: 1
# Building blocks:
#     Node 0, Type 0, BuildingBlock: GALJAG_clean_sbu_0, # of connection points: 4
#     Node 1, Type 0, BuildingBlock: GALJAG_clean_sbu_0, # of connection points: 4
#     Node 2, Type 0, BuildingBlock: GALJAG_clean_sbu_0, # of connection points: 4
#     Node 3, Type 0, BuildingBlock: GALJAG_clean_sbu_0, # of connection points: 4
#     Node 4, Type 0, BuildingBlock: GALJAG_clean_sbu_0, # of connection points: 4
#     Node 5, Type 0, BuildingBlock: GALJAG_clean_sbu_0, # of connection points: 4
#     Node 6, Type 0, BuildingBlock: GALJAG_clean_sbu_0, # of connection points: 4
#     Node 7, Type 0, BuildingBlock: GALJAG_clean_sbu_0, # of connection points: 4
#     Node 8, Type 0, BuildingBlock: GALJAG_clean_sbu_0, # of connection points: 4
#     Node 9, Type 0, BuildingBlock: GALJAG_clean_sbu_0, # of connection points: 4
#     Node 10, Type 0, BuildingBlock: GALJAG_clean_sbu_0, # of connection points: 4
#     Node 11, Type 0, BuildingBlock: GALJAG_clean_sbu_0, # of connection points: 4
#     Node 12, Type 0, BuildingBlock: GALJAG_clean_sbu_0, # of connection points: 4
#     Node 13, Type 0, BuildingBlock: GALJAG_clean_sbu_0, # of connection points: 4
#     Node 14, Type 0, BuildingBlock: GALJAG_clean_sbu_0, # of connection points: 4
#     Node 15, Type 0, BuildingBlock: GALJAG_clean_sbu_0, # of connection points: 4
#     Node 16, Type 0, BuildingBlock: GALJAG_clean_sbu_0, # of connection points: 4
#     Node 17, Type 0, BuildingBlock: GALJAG_clean_sbu_0, # of connection points: 4
#     Node 18, Type 0, BuildingBlock: GALJAG_clean_sbu_0, # of connection points: 4
#     Node 19, Type 0, BuildingBlock: GALJAG_clean_sbu_0, # of connection points: 4
#     Node 20, Type 0, BuildingBlock: GALJAG_clean_sbu_0, # of connection points: 4
#     Node 21, Type 0, BuildingBlock: GALJAG_clean_sbu_0, # of connection points: 4
#     Node 22, Type 0, BuildingBlock: GALJAG_clean_sbu_0, # of connection points: 4
#     Node 23, Type 0, BuildingBlock: GALJAG_clean_sbu_0, # of connection points: 4
#     Node 24, Type 0, BuildingBlock: GALJAG_clean_sbu_0, # of connection points: 4
#     Node 25, Type 0, BuildingBlock: GALJAG_clean_sbu_0, # of connection points: 4
#     Node 26, Type 0, BuildingBlock: GALJAG_clean_sbu_0, # of connection points: 4
#     Node 27, Type 0, BuildingBlock: GALJAG_clean_sbu_0, # of connection points: 4
#     Node 28, Type 0, BuildingBlock: GALJAG_clean_sbu_0, # of connection points: 4
#     Node 29, Type 0, BuildingBlock: GALJAG_clean_sbu_0, # of connection points: 4
#     Node 30, Type 0, BuildingBlock: GALJAG_clean_sbu_0, # of connection points: 4
#     Node 31, Type 0, BuildingBlock: GALJAG_clean_sbu_0, # of connection points: 4
#     Node 32, Type 0, BuildingBlock: GALJAG_clean_sbu_0, # of connection points: 4
#     Node 33, Type 0, BuildingBlock: GALJAG_clean_sbu_0, # of connection points: 4
#     Node 34, Type 0, BuildingBlock: GALJAG_clean_sbu_0, # of connection points: 4
#     Node 35, Type 0, BuildingBlock: GALJAG_clean_sbu_0, # of connection points: 4
#     Edge 36, Type (0, 0), None
#     Edge 37, Type (0, 0), None
#     Edge 38, Type (0, 0), None
#     Edge 39, Type (0, 0), None
#     Edge 40, Type (0, 0), None
#     Edge 41, Type (0, 0), None
#     Edge 42, Type (0, 0), None
#     Edge 43, Type (0, 0), None
#     Edge 44, Type (0, 0), None
#     Edge 45, Type (0, 0), None
#     Edge 46, Type (0, 0), None
#     Edge 47, Type (0, 0), None
#     Edge 48, Type (0, 0), None
#     Edge 49, Type (0, 0), None
#     Edge 50, Type (0, 0), None
#     Edge 51, Type (0, 0), None
#     Edge 52, Type (0, 0), None
#     Edge 53, Type (0, 0), None
#     Edge 54, Type (0, 0), None
#     Edge 55, Type (0, 0), None
#     Edge 56, Type (0, 0), None
#     Edge 57, Type (0, 0), None
#     Edge 58, Type (0, 0), None
#     Edge 59, Type (0, 0), None
#     Edge 60, Type (0, 0), None
#     Edge 61, Type (0, 0), None
#     Edge 62, Type (0, 0), None
#     Edge 63, Type (0, 0), None
#     Edge 64, Type (0, 0), None
#     Edge 65, Type (0, 0), None
#     Edge 66, Type (0, 0), None
#     Edge 67, Type (0, 0), None
#     Edge 68, Type (0, 0), None
#     Edge 69, Type (0, 0), None
#     Edge 70, Type (0, 0), None
#     Edge 71, Type (0, 0), None
#     Edge 72, Type (0, 0), None
#     Edge 73, Type (0, 0), None
#     Edge 74, Type (0, 0), None
#     Edge 75, Type (0, 0), None
#     Edge 76, Type (0, 0), None
#     Edge 77, Type (0, 0), None
#     Edge 78, Type (0, 0), None
#     Edge 79, Type (0, 0), None
#     Edge 80, Type (0, 0), None
#     Edge 81, Type (0, 0), None
#     Edge 82, Type (0, 0), None
#     Edge 83, Type (0, 0), None
#     Edge 84, Type (0, 0), None
#     Edge 85, Type (0, 0), None
#     Edge 86, Type (0, 0), None
#     Edge 87, Type (0, 0), None
#     Edge 88, Type (0, 0), None
#     Edge 89, Type (0, 0), None
#     Edge 90, Type (0, 0), None
#     Edge 91, Type (0, 0), None
#     Edge 92, Type (0, 0), None
#     Edge 93, Type (0, 0), None
#     Edge 94, Type (0, 0), None
#     Edge 95, Type (0, 0), None
#     Edge 96, Type (0, 0), None
#     Edge 97, Type (0, 0), None
#     Edge 98, Type (0, 0), None
#     Edge 99, Type (0, 0), None
#     Edge 100, Type (0, 0), None
#     Edge 101, Type (0, 0), None
#     Edge 102, Type (0, 0), None
#     Edge 103, Type (0, 0), None
#     Edge 104, Type (0, 0), None
#     Edge 105, Type (0, 0), None
#     Edge 106, Type (0, 0), None
#     Edge 107, Type (0, 0), None
# Relax obj value: 0.060
# Max RMSD: 0.091
# Mean RMSD: 0.091
data_MOF--net-ukn--node1-GALJAG_clean_sbu_0--edge1-none
_symmetry_space_group_name_H-M    P1
_symmetry_Int_Tables_number       1
_symmetry_cell_setting            triclinic
loop_
_symmetry_equiv_pos_as_xyz
'x, y, z'
_cell_length_a     47.449617
_cell_length_b     47.449228
_cell_length_c     12.386508
_cell_angle_alpha  89.999387
_cell_angle_beta   89.998784
_cell_angle_gamma 119.98831
loop_
_atom_site_label
_atom_site_type_symbol
_atom_site_fract_x
_atom_site_fract_y
_atom_site_fract_z
_atom_type_partial_charge
In0 In 0.06286 0.28953 0.08983 0.0
O1 O 0.08725 0.25783 0.11276 0.0
O2 O 0.11612 0.30953 0.0989 0.0
C3 C 0.00053 0.2548 0.02936 0.0
C4 C 0.06418 0.31521 0.28582 0.0
C5 C 0.07857 0.31583 0.89375 0.0
O6 O 0.01669 0.24081 0.05112 0.0
O7 O 0.01484 0.28498 0.04796 0.0
O8 O 0.08207 0.33281 0.97683 0.0
O9 O 0.06771 0.28591 0.90974 0.0
C10 C 0.11542 0.28284 0.10969 0.0
O11 O 0.07295 0.33206 0.20059 0.0
O12 O 0.05312 0.28504 0.27195 0.0
In13 In 0.68392 0.768 0.08984 0.0
O14 O 0.71564 0.82407 0.11277 0.0
O15 O 0.66395 0.80128 0.0989 0.0
C16 C 0.71866 0.74039 0.02936 0.0
C17 C 0.65824 0.74364 0.28582 0.0
C18 C 0.65762 0.75741 0.89377 0.0
O19 O 0.73265 0.77054 0.05112 0.0
O20 O 0.68848 0.72454 0.04796 0.0
O21 O 0.64064 0.74394 0.97686 0.0
O22 O 0.68754 0.77645 0.90974 0.0
C23 C 0.69064 0.82726 0.10969 0.0
O24 O 0.64139 0.73557 0.20059 0.0
O25 O 0.68841 0.76273 0.27195 0.0
In26 In 0.20547 0.91062 0.08982 0.0
O27 O 0.23791 0.90051 0.20057 0.0
O28 O 0.21073 0.92036 0.27194 0.0
C29 C 0.21607 0.89491 0.89375 0.0
C30 C 0.14623 0.85808 0.10967 0.0
C31 C 0.23307 0.97295 0.02936 0.0
O32 O 0.22954 0.8914 0.97683 0.0
O33 O 0.19702 0.90579 0.90972 0.0
O34 O 0.20292 0.9568 0.05111 0.0
O35 O 0.24893 0.95863 0.04795 0.0
C36 C 0.22983 0.90929 0.2858 0.0
O37 O 0.14939 0.88626 0.11275 0.0
O38 O 0.17221 0.85737 0.09888 0.0
In39 In 0.28424 0.06816 0.92305 0.0
O40 O 0.32677 0.07824 0.81229 0.0
O41 O 0.27975 0.05842 0.74094 0.0
C42 C 0.31053 0.08387 0.11913 0.0
C43 C 0.27755 0.12072 0.90319 0.0
C44 C 0.2495 0.00583 0.98353 0.0
O45 O 0.32752 0.08736 0.03605 0.0
O46 O 0.28062 0.073 0.10315 0.0
O47 O 0.23551 0.02199 0.96177 0.0
O48 O 0.27968 0.02014 0.96493 0.0
C49 C 0.30991 0.06947 0.72706 0.0
O50 O 0.25254 0.09255 0.90013 0.0
O51 O 0.30424 0.12141 0.91397 0.0
In52 In 0.90533 0.21077 0.92306 0.0
O53 O 0.89522 0.2432 0.81231 0.0
O54 O 0.91507 0.21603 0.74094 0.0
C55 C 0.88961 0.22136 0.11914 0.0
C56 C 0.85279 0.15153 0.90322 0.0
C57 C 0.96766 0.23836 0.98354 0.0
O58 O 0.88611 0.23484 0.03605 0.0
O59 O 0.90049 0.20231 0.10316 0.0
O60 O 0.9515 0.20821 0.96178 0.0
O61 O 0.95334 0.25422 0.96493 0.0
C62 C 0.904 0.23513 0.72708 0.0
O63 O 0.88096 0.15469 0.90013 0.0
O64 O 0.85207 0.17751 0.91401 0.0
In65 In 0.7627 0.68922 0.92303 0.0
O66 O 0.81878 0.72094 0.9001 0.0
O67 O 0.79598 0.66924 0.91397 0.0
C68 C 0.7351 0.72395 0.98352 0.0
C69 C 0.73834 0.66354 0.72706 0.0
C70 C 0.75211 0.66292 0.11911 0.0
O71 O 0.76525 0.73794 0.96175 0.0
O72 O 0.71924 0.69378 0.96492 0.0
O73 O 0.73865 0.64593 0.03602 0.0
O74 O 0.77115 0.69283 0.10313 0.0
C75 C 0.82196 0.69594 0.90318 0.0
O76 O 0.73028 0.64668 0.81229 0.0
O77 O 0.75743 0.6937 0.74092 0.0
In78 In 0.90534 0.68927 0.92305 0.0
O79 O 0.89525 0.64673 0.81229 0.0
O80 O 0.91508 0.69375 0.74093 0.0
C81 C 0.88963 0.66297 0.11913 0.0
C82 C 0.85278 0.69595 0.90321 0.0
C83 C 0.96767 0.724 0.98352 0.0
O84 O 0.88614 0.64598 0.03605 0.0
O85 O 0.9005 0.69288 0.10315 0.0
O86 O 0.95151 0.73799 0.96176 0.0
O87 O 0.95336 0.69382 0.96492 0.0
C88 C 0.90402 0.66359 0.72706 0.0
O89 O 0.88095 0.72096 0.9001 0.0
O90 O 0.85208 0.66926 0.914 0.0
In91 In 0.28428 0.2108 0.92304 0.0
O92 O 0.25256 0.15472 0.9001 0.0
O93 O 0.30425 0.17751 0.914 0.0
C94 C 0.24954 0.2384 0.98352 0.0
C95 C 0.30996 0.23515 0.72706 0.0
C96 C 0.31058 0.22139 0.11911 0.0
O97 O 0.23555 0.20825 0.96177 0.0
O98 O 0.27972 0.25426 0.96491 0.0
O99 O 0.32756 0.23485 0.03602 0.0
O100 O 0.28066 0.20235 0.10314 0.0
C101 C 0.27756 0.15154 0.90322 0.0
O102 O 0.32681 0.24322 0.81229 0.0
O103 O 0.27979 0.21606 0.74093 0.0
In104 In 0.76273 0.06817 0.92306 0.0
O105 O 0.7303 0.07828 0.81231 0.0
O106 O 0.75748 0.05844 0.74094 0.0
C107 C 0.75213 0.08388 0.11914 0.0
C108 C 0.82198 0.12071 0.90324 0.0
C109 C 0.73514 0.00584 0.98352 0.0
O110 O 0.73866 0.0874 0.03605 0.0
O111 O 0.77118 0.07301 0.10316 0.0
O112 O 0.76529 0.022 0.96177 0.0
O113 O 0.71928 0.02016 0.96492 0.0
C114 C 0.73837 0.0695 0.72708 0.0
O115 O 0.81881 0.09254 0.90012 0.0
O116 O 0.79599 0.12143 0.91403 0.0
In117 In 0.68397 0.91064 0.08983 0.0
O118 O 0.64144 0.90055 0.20059 0.0
O119 O 0.68846 0.92038 0.27194 0.0
C120 C 0.65767 0.89493 0.89375 0.0
C121 C 0.69065 0.85808 0.10966 0.0
C122 C 0.7187 0.97297 0.02934 0.0
O123 O 0.64069 0.89143 0.97683 0.0
O124 O 0.68759 0.90579 0.90973 0.0
O125 O 0.73269 0.9568 0.0511 0.0
O126 O 0.68852 0.95866 0.04795 0.0
C127 C 0.65829 0.90932 0.28582 0.0
O128 O 0.71566 0.88625 0.11276 0.0
O129 O 0.66396 0.85738 0.09888 0.0
In130 In 0.06287 0.76803 0.08982 0.0
O131 O 0.08724 0.82411 0.11276 0.0
O132 O 0.11613 0.80129 0.09885 0.0
C133 C 0.00054 0.74044 0.02934 0.0
C134 C 0.0642 0.74367 0.2858 0.0
C135 C 0.07859 0.75743 0.89374 0.0
O136 O 0.0167 0.77059 0.05109 0.0
O137 O 0.01486 0.72457 0.04795 0.0
O138 O 0.08209 0.74396 0.97683 0.0
O139 O 0.06771 0.77648 0.90972 0.0
C140 C 0.11541 0.82727 0.10964 0.0
O141 O 0.07298 0.73559 0.20057 0.0
O142 O 0.05313 0.76277 0.27194 0.0
In143 In 0.2055 0.28957 0.08985 0.0
O144 O 0.23792 0.33211 0.20059 0.0
O145 O 0.21076 0.28509 0.27196 0.0
C146 C 0.21609 0.31588 0.89377 0.0
C147 C 0.14624 0.28285 0.10967 0.0
C148 C 0.2331 0.25484 0.02935 0.0
O149 O 0.22955 0.33286 0.97686 0.0
O150 O 0.19705 0.28596 0.90974 0.0
O151 O 0.20295 0.24085 0.05112 0.0
O152 O 0.24896 0.28501 0.04796 0.0
C153 C 0.22986 0.31526 0.28582 0.0
O154 O 0.14942 0.25785 0.11279 0.0
O155 O 0.17221 0.30955 0.09888 0.0
In156 In 0.72952 0.62286 0.42315 0.0
O157 O 0.73961 0.6654 0.5339 0.0
O158 O 0.71979 0.61837 0.60527 0.0
C159 C 0.74523 0.64916 0.22706 0.0
C160 C 0.78208 0.61618 0.44301 0.0
C161 C 0.6672 0.58813 0.36269 0.0
O162 O 0.74873 0.66614 0.31014 0.0
O163 O 0.73437 0.61924 0.24305 0.0
O164 O 0.68336 0.57414 0.38444 0.0
O165 O 0.68151 0.61831 0.38129 0.0
C166 C 0.73086 0.64854 0.61913 0.0
O167 O 0.75392 0.59117 0.44608 0.0
O168 O 0.78278 0.64287 0.43221 0.0
In169 In 0.35059 0.10133 0.42316 0.0
O170 O 0.38231 0.15741 0.44609 0.0
O171 O 0.33061 0.13461 0.43221 0.0
C172 C 0.38533 0.07373 0.36268 0.0
C173 C 0.32491 0.07698 0.61913 0.0
C174 C 0.32429 0.09074 0.22708 0.0
O175 O 0.39932 0.10388 0.38444 0.0
O176 O 0.35515 0.05787 0.38129 0.0
O177 O 0.30731 0.07728 0.31017 0.0
O178 O 0.35421 0.10978 0.24305 0.0
C179 C 0.35731 0.16059 0.443 0.0
O180 O 0.30805 0.06891 0.5339 0.0
O181 O 0.35508 0.09607 0.60527 0.0
In182 In 0.87214 0.24396 0.42317 0.0
O183 O 0.81606 0.21959 0.4461 0.0
O184 O 0.83888 0.1907 0.43222 0.0
C185 C 0.89973 0.30629 0.36271 0.0
C186 C 0.89649 0.24261 0.61914 0.0
C187 C 0.88273 0.22825 0.22709 0.0
O188 O 0.86958 0.29013 0.38446 0.0
O189 O 0.91559 0.29197 0.38131 0.0
O190 O 0.89621 0.22473 0.31017 0.0
O191 O 0.86369 0.23912 0.24307 0.0
C192 C 0.8129 0.19142 0.44301 0.0
O193 O 0.90458 0.23384 0.53391 0.0
O194 O 0.87739 0.25369 0.60529 0.0
In195 In 0.9509 0.40149 0.2564 0.0
O196 O -0.00656 0.41158 0.14564 0.0
O197 O 0.94641 0.39175 0.07428 0.0
C198 C 0.9772 0.4172 0.45247 0.0
C199 C 0.94422 0.45405 0.23653 0.0
C200 C 0.91617 0.33916 0.31689 0.0
O201 O -0.00582 0.4207 0.36939 0.0
O202 O 0.94728 0.40634 0.43649 0.0
O203 O 0.90218 0.35532 0.29512 0.0
O204 O 0.94635 0.35347 0.29828 0.0
C205 C 0.97658 0.40281 0.06041 0.0
O206 O 0.9192 0.42588 0.23347 0.0
O207 O 0.97091 0.45475 0.24731 0.0
In208 In 0.57199 0.5441 0.25638 0.0
O209 O 0.54763 0.48802 0.23346 0.0
O210 O 0.51874 0.51084 0.24733 0.0
C211 C 0.63432 0.57169 0.31686 0.0
C212 C 0.57066 0.56846 0.0604 0.0
C213 C 0.55628 0.55469 0.45246 0.0
O214 O 0.61817 0.54154 0.2951 0.0
O215 O 0.62 0.58756 0.29826 0.0
O216 O 0.55277 0.56817 0.36937 0.0
O217 O 0.56715 0.53564 0.43648 0.0
C218 C 0.51945 0.48486 0.23653 0.0
O219 O 0.56188 0.57654 0.14563 0.0
O220 O 0.58173 0.54936 0.07427 0.0
In221 In 0.42937 0.02255 0.25636 0.0
O222 O 0.48545 0.05428 0.23343 0.0
O223 O 0.46265 0.00258 0.2473 0.0
C224 C 0.40177 0.05729 0.31685 0.0
C225 C 0.40501 -0.00313 0.06039 0.0
C226 C 0.41878 -0.00375 0.45244 0.0
O227 O 0.43192 0.07128 0.29508 0.0
O228 O 0.38591 0.02711 0.29826 0.0
O229 O 0.40532 0.97927 0.36935 0.0
O230 O 0.43782 0.02617 0.43646 0.0
C231 C 0.48863 0.02927 0.23651 0.0
O232 O 0.39695 0.98002 0.14562 0.0
O233 O 0.4241 0.02704 0.07425 0.0
In234 In 0.57201 0.0226 0.25639 0.0
O235 O 0.54762 0.0543 0.23344 0.0
O236 O 0.51875 0.00259 0.24734 0.0
C237 C 0.63434 0.05733 0.31687 0.0
C238 C 0.57069 -0.00308 0.06041 0.0
C239 C 0.5563 -0.0037 0.45247 0.0
O240 O 0.61818 0.07132 0.29511 0.0
O241 O 0.62003 0.02715 0.29827 0.0
O242 O 0.5528 0.97932 0.3694 0.0
O243 O 0.56716 0.02622 0.43649 0.0
C244 C 0.51945 0.02928 0.23655 0.0
O245 O 0.56192 0.98007 0.14564 0.0
O246 O 0.58175 0.02709 0.07428 0.0
In247 In 0.95094 0.54413 0.25637 0.0
O248 O -0.00652 0.57655 0.14562 0.0
O249 O 0.94646 0.5494 0.07426 0.0
C250 C 0.97725 0.55472 0.45244 0.0
C251 C 0.94422 0.48487 0.23655 0.0
C252 C 0.91621 0.57173 0.31685 0.0
O253 O -0.00577 0.56819 0.36935 0.0
O254 O 0.94733 0.53568 0.43647 0.0
O255 O 0.90222 0.54158 0.29509 0.0
O256 O 0.94639 0.58759 0.29825 0.0
C257 C 0.97663 0.56849 0.06039 0.0
O258 O 0.91922 0.48805 0.23343 0.0
O259 O 0.97092 0.51085 0.24733 0.0
In260 In 0.4294 0.40151 0.25638 0.0
O261 O 0.39696 0.41162 0.14563 0.0
O262 O 0.42414 0.39177 0.07426 0.0
C263 C 0.4188 0.41722 0.45246 0.0
C264 C 0.48864 0.45404 0.23656 0.0
C265 C 0.4018 0.33918 0.31685 0.0
O266 O 0.40533 0.42073 0.36937 0.0
O267 O 0.43785 0.40634 0.43648 0.0
O268 O 0.43195 0.35533 0.29509 0.0
O269 O 0.38594 0.3535 0.29825 0.0
C270 C 0.40504 0.40284 0.0604 0.0
O271 O 0.48548 0.42587 0.23344 0.0
O272 O 0.46266 0.45476 0.24734 0.0
In273 In 0.35063 0.24397 0.42315 0.0
O274 O 0.38233 0.21958 0.44609 0.0
O275 O 0.33063 0.19071 0.43218 0.0
C276 C 0.38537 0.3063 0.36267 0.0
C277 C 0.32495 0.24264 0.61913 0.0
C278 C 0.32434 0.22827 0.22706 0.0
O279 O 0.39936 0.29014 0.38442 0.0
O280 O 0.35519 0.29199 0.38128 0.0
O281 O 0.30735 0.22477 0.31015 0.0
O282 O 0.35425 0.23913 0.24305 0.0
C283 C 0.35732 0.19141 0.44297 0.0
O284 O 0.3081 0.23388 0.5339 0.0
O285 O 0.35512 0.25371 0.60526 0.0
In286 In 0.72954 0.10136 0.42317 0.0
O287 O 0.75391 0.15744 0.44611 0.0
O288 O 0.7828 0.13462 0.43218 0.0
C289 C 0.66721 0.07377 0.36269 0.0
C290 C 0.73089 0.07701 0.61914 0.0
C291 C 0.74525 0.09076 0.22709 0.0
O292 O 0.68337 0.10392 0.38444 0.0
O293 O 0.68153 0.05791 0.38131 0.0
O294 O 0.74876 0.07729 0.31017 0.0
O295 O 0.73438 0.10982 0.24306 0.0
C296 C 0.78208 0.1606 0.44298 0.0
O297 O 0.73965 0.06893 0.53391 0.0
O298 O 0.71981 0.09611 0.60529 0.0
In299 In 0.87216 0.62291 0.42316 0.0
O300 O 0.90459 0.66545 0.5339 0.0
O301 O 0.87743 0.61842 0.60528 0.0
C302 C 0.88276 0.64921 0.22708 0.0
C303 C 0.81291 0.61619 0.44299 0.0
C304 C 0.89977 0.58817 0.36268 0.0
O305 O 0.89622 0.66619 0.31017 0.0
O306 O 0.86371 0.61929 0.24306 0.0
O307 O 0.86962 0.57418 0.38444 0.0
O308 O 0.91563 0.61835 0.38129 0.0
C309 C 0.89651 0.64859 0.61913 0.0
O310 O 0.81609 0.59119 0.44612 0.0
O311 O 0.83888 0.64288 0.43219 0.0
In312 In 0.39619 0.9562 0.75648 0.0
O313 O 0.40628 -0.00127 0.86722 0.0
O314 O 0.38646 0.95171 0.9386 0.0
C315 C 0.4119 0.98249 0.56039 0.0
C316 C 0.44875 0.94951 0.77634 0.0
C317 C 0.33386 0.92147 0.69601 0.0
O318 O 0.4154 -0.00052 0.64347 0.0
O319 O 0.40104 0.95258 0.57638 0.0
O320 O 0.35003 0.90747 0.71777 0.0
O321 O 0.34818 0.95164 0.71461 0.0
C322 C 0.39752 0.98188 0.95246 0.0
O323 O 0.42058 0.9245 0.77942 0.0
O324 O 0.44945 0.9762 0.76555 0.0
In325 In 0.01726 0.43467 0.7565 0.0
O326 O 0.04898 0.49074 0.77943 0.0
O327 O -0.00272 0.46795 0.76556 0.0
C328 C 0.05199 0.40706 0.69603 0.0
C329 C -0.00843 0.41032 0.95247 0.0
C330 C -0.00904 0.42408 0.56042 0.0
O331 O 0.06598 0.43721 0.71778 0.0
O332 O 0.02182 0.39121 0.71463 0.0
O333 O 0.97397 0.41061 0.64351 0.0
O334 O 0.02088 0.44312 0.5764 0.0
C335 C 0.02398 0.49393 0.77635 0.0
O336 O 0.97472 0.40224 0.86725 0.0
O337 O 0.02174 0.4294 0.93862 0.0
In338 In 0.5388 0.57729 0.75649 0.0
O339 O 0.57124 0.56718 0.86723 0.0
O340 O 0.54406 0.58702 0.93861 0.0
C341 C 0.5494 0.56158 0.56041 0.0
C342 C 0.47956 0.52475 0.77634 0.0
C343 C 0.5664 0.63962 0.69603 0.0
O344 O 0.56287 0.55806 0.6435 0.0
O345 O 0.53035 0.57245 0.57639 0.0
O346 O 0.53625 0.62346 0.71778 0.0
O347 O 0.58226 0.6253 0.71463 0.0
C348 C 0.56315 0.57594 0.95247 0.0
O349 O 0.48272 0.55292 0.77942 0.0
O350 O 0.50554 0.52403 0.76554 0.0
In351 In 0.61757 0.73482 0.58973 0.0
O352 O 0.6601 0.74491 0.47898 0.0
O353 O 0.61308 0.72509 0.40761 0.0
C354 C 0.64386 0.75053 0.78581 0.0
C355 C 0.61088 0.78738 0.56988 0.0
C356 C 0.58284 0.67249 0.65021 0.0
O357 O 0.66085 0.75403 0.70273 0.0
O358 O 0.61395 0.73967 0.76983 0.0
O359 O 0.56884 0.68866 0.62845 0.0
O360 O 0.61301 0.68681 0.63161 0.0
C361 C 0.64325 0.73615 0.39375 0.0
O362 O 0.58587 0.75921 0.56681 0.0
O363 O 0.63757 0.78808 0.58066 0.0
In364 In 0.23866 0.87744 0.58971 0.0
O365 O 0.22855 0.90987 0.47897 0.0
O366 O 0.2484 0.88269 0.40759 0.0
C367 C 0.22295 0.88803 0.78579 0.0
C368 C 0.18612 0.81819 0.56987 0.0
C369 C 0.30099 0.90503 0.65019 0.0
O370 O 0.21944 0.90151 0.70271 0.0
O371 O 0.23382 0.86898 0.76982 0.0
O372 O 0.28483 0.87488 0.62843 0.0
O373 O 0.28667 0.92089 0.63158 0.0
C374 C 0.23732 0.90178 0.39374 0.0
O375 O 0.21429 0.82136 0.56678 0.0
O376 O 0.18541 0.84418 0.58067 0.0
In377 In 0.09604 0.35589 0.58971 0.0
O378 O 0.06361 0.31335 0.47898 0.0
O379 O 0.09077 0.36037 0.4076 0.0
C380 C 0.08545 0.32959 0.7858 0.0
C381 C 0.15529 0.36261 0.56986 0.0
C382 C 0.06843 0.39062 0.6502 0.0
O383 O 0.07198 0.3126 0.70271 0.0
O384 O 0.10449 0.35951 0.76982 0.0
O385 O 0.09858 0.40461 0.62843 0.0
O386 O 0.05258 0.36045 0.6316 0.0
C387 C 0.07169 0.3302 0.39375 0.0
O388 O 0.15211 0.38761 0.56678 0.0
O389 O 0.12932 0.33591 0.58066 0.0
In390 In 0.23868 0.35593 0.58973 0.0
O391 O 0.21428 0.38763 0.56678 0.0
O392 O 0.18542 0.33593 0.58069 0.0
C393 C 0.301 0.39066 0.65019 0.0
C394 C 0.23734 0.33025 0.39375 0.0
C395 C 0.22297 0.32963 0.78582 0.0
O396 O 0.28484 0.40465 0.62844 0.0
O397 O 0.28669 0.36049 0.63159 0.0
O398 O 0.21947 0.31265 0.70274 0.0
O399 O 0.23383 0.35955 0.76983 0.0
C400 C 0.18612 0.36262 0.5699 0.0
O401 O 0.22859 0.31339 0.47898 0.0
O402 O 0.24841 0.36042 0.40761 0.0
In403 In 0.61761 0.87746 0.58972 0.0
O404 O 0.58589 0.82139 0.56678 0.0
O405 O 0.63759 0.84418 0.58069 0.0
C406 C 0.58288 0.90507 0.6502 0.0
C407 C 0.6433 0.90181 0.39375 0.0
C408 C 0.64391 0.88805 0.7858 0.0
O409 O 0.56889 0.87492 0.62845 0.0
O410 O 0.61305 0.92092 0.63159 0.0
O411 O 0.66089 0.90152 0.70271 0.0
O412 O 0.61399 0.86901 0.76983 0.0
C413 C 0.61089 0.8182 0.5699 0.0
O414 O 0.66015 0.90989 0.47898 0.0
O415 O 0.61313 0.88273 0.40761 0.0
In416 In 0.09606 0.73484 0.58971 0.0
O417 O 0.15214 0.75921 0.56677 0.0
O418 O 0.12932 0.7881 0.58069 0.0
C419 C 0.06847 0.67251 0.65017 0.0
C420 C 0.07172 0.73619 0.39374 0.0
C421 C 0.08547 0.75055 0.78579 0.0
O422 O 0.09862 0.68867 0.62843 0.0
O423 O 0.05261 0.68683 0.63157 0.0
O424 O 0.07199 0.75406 0.7027 0.0
O425 O 0.10451 0.73968 0.76981 0.0
C426 C 0.15531 0.78738 0.56989 0.0
O427 O 0.06363 0.74495 0.47897 0.0
O428 O 0.09081 0.72511 0.40759 0.0
In429 In 0.0173 0.57731 0.75648 0.0
O430 O 0.049 0.55292 0.77942 0.0
O431 O -0.0027 0.52405 0.76552 0.0
C432 C 0.05203 0.63964 0.69599 0.0
C433 C -0.00838 0.57597 0.95246 0.0
C434 C -0.00899 0.5616 0.56039 0.0
O435 O 0.06602 0.62347 0.71775 0.0
O436 O 0.02186 0.62532 0.7146 0.0
O437 O 0.97402 0.5581 0.64348 0.0
O438 O 0.02092 0.57246 0.57638 0.0
C439 C 0.02399 0.52475 0.77631 0.0
O440 O 0.97477 0.56722 0.86723 0.0
O441 O 0.02179 0.58704 0.93859 0.0
In442 In 0.39621 0.43469 0.75649 0.0
O443 O 0.40632 0.40226 0.86723 0.0
O444 O 0.38647 0.42944 0.93861 0.0
C445 C 0.41192 0.4241 0.56041 0.0
C446 C 0.44875 0.49394 0.77631 0.0
C447 C 0.33388 0.4071 0.69602 0.0
O448 O 0.41543 0.41062 0.64349 0.0
O449 O 0.40105 0.44315 0.57639 0.0
O450 O 0.35003 0.43725 0.71777 0.0
O451 O 0.3482 0.39124 0.71463 0.0
C452 C 0.39755 0.41035 0.95247 0.0
O453 O 0.42057 0.49077 0.77943 0.0
O454 O 0.44946 0.46795 0.76551 0.0
In455 In 0.53883 0.95624 0.75651 0.0
O456 O 0.57126 -0.00122 0.86724 0.0
O457 O 0.5441 0.95176 0.93862 0.0
C458 C 0.54942 0.98254 0.56043 0.0
C459 C 0.47957 0.94952 0.77633 0.0
C460 C 0.56644 0.92151 0.69603 0.0
O461 O 0.56289 -0.00047 0.64352 0.0
O462 O 0.53038 0.95262 0.57641 0.0
O463 O 0.53629 0.90752 0.71779 0.0
O464 O 0.58229 0.95168 0.71463 0.0
C465 C 0.56318 0.98193 0.95248 0.0
O466 O 0.48276 0.92452 0.77946 0.0
O467 O 0.50555 0.97622 0.76554 0.0
loop_
_geom_bond_atom_site_label_1
_geom_bond_atom_site_label_2
_geom_bond_distance
_geom_bond_site_symmetry_2
_ccdc_geom_bond_type
In0 O1 2.294 . S
In0 O2 2.326 . S
In0 O6 2.266 . S
In0 O7 2.326 . S
In0 O8 2.266 1_554 S
In0 O9 2.326 1_554 S
In0 O11 2.294 . S
In0 O12 2.326 . S
O1 In0 2.294 . S
O1 C10 1.240 . S
O2 In0 2.326 . S
O2 C10 1.252 . S
C3 O6 1.252 . S
C3 O7 1.260 . S
C4 O11 1.240 . S
C4 O12 1.252 . S
C5 O8 1.252 . S
C5 O9 1.260 . S
O6 In0 2.266 . S
O6 C3 1.252 . S
O7 In0 2.326 . S
O7 C3 1.260 . S
O8 In0 2.266 1_556 S
O8 C5 1.252 . S
O9 In0 2.326 1_556 S
O9 C5 1.260 . S
C10 O1 1.240 . S
C10 O2 1.252 . S
O11 In0 2.294 . S
O11 C4 1.240 . S
O12 In0 2.326 . S
O12 C4 1.252 . S
In13 O14 2.294 . S
In13 O15 2.326 . S
In13 O19 2.266 . S
In13 O20 2.326 . S
In13 O21 2.266 1_554 S
In13 O22 2.326 1_554 S
In13 O24 2.294 . S
In13 O25 2.326 . S
O14 In13 2.294 . S
O14 C23 1.240 . S
O15 In13 2.326 . S
O15 C23 1.252 . S
C16 O19 1.252 . S
C16 O20 1.260 . S
C17 O24 1.240 . S
C17 O25 1.252 . S
C18 O21 1.252 . S
C18 O22 1.260 . S
O19 In13 2.266 . S
O19 C16 1.252 . S
O20 In13 2.326 . S
O20 C16 1.260 . S
O21 In13 2.266 1_556 S
O21 C18 1.252 . S
O22 In13 2.326 1_556 S
O22 C18 1.260 . S
C23 O14 1.240 . S
C23 O15 1.252 . S
O24 In13 2.294 . S
O24 C17 1.240 . S
O25 In13 2.326 . S
O25 C17 1.252 . S
In26 O27 2.294 . S
In26 O28 2.326 . S
In26 O32 2.266 1_554 S
In26 O33 2.326 1_554 S
In26 O34 2.266 . S
In26 O35 2.326 . S
In26 O37 2.294 . S
In26 O38 2.326 . S
O27 In26 2.294 . S
O27 C36 1.240 . S
O28 In26 2.326 . S
O28 C36 1.252 . S
C29 O32 1.252 . S
C29 O33 1.260 . S
C30 O37 1.240 . S
C30 O38 1.252 . S
C31 O34 1.252 . S
C31 O35 1.260 . S
O32 In26 2.266 1_556 S
O32 C29 1.252 . S
O33 In26 2.326 1_556 S
O33 C29 1.260 . S
O34 In26 2.266 . S
O34 C31 1.252 . S
O35 In26 2.326 . S
O35 C31 1.260 . S
C36 O27 1.240 . S
C36 O28 1.252 . S
O37 In26 2.294 . S
O37 C30 1.240 . S
O38 In26 2.326 . S
O38 C30 1.252 . S
In39 O40 2.294 . S
In39 O41 2.326 . S
In39 O45 2.266 1_556 S
In39 O46 2.326 1_556 S
In39 O47 2.266 . S
In39 O48 2.326 . S
In39 O50 2.294 . S
In39 O51 2.326 . S
O40 In39 2.294 . S
O40 C49 1.240 . S
O41 In39 2.326 . S
O41 C49 1.252 . S
C42 O45 1.252 . S
C42 O46 1.260 . S
C43 O50 1.240 . S
C43 O51 1.252 . S
C44 O47 1.252 . S
C44 O48 1.260 . S
O45 In39 2.266 1_554 S
O45 C42 1.252 . S
O46 In39 2.326 1_554 S
O46 C42 1.260 . S
O47 In39 2.266 . S
O47 C44 1.252 . S
O48 In39 2.326 . S
O48 C44 1.260 . S
C49 O40 1.240 . S
C49 O41 1.252 . S
O50 In39 2.294 . S
O50 C43 1.240 . S
O51 In39 2.326 . S
O51 C43 1.252 . S
In52 O53 2.294 . S
In52 O54 2.326 . S
In52 O58 2.266 1_556 S
In52 O59 2.326 1_556 S
In52 O60 2.266 . S
In52 O61 2.326 . S
In52 O63 2.294 . S
In52 O64 2.326 . S
O53 In52 2.294 . S
O53 C62 1.240 . S
O54 In52 2.326 . S
O54 C62 1.252 . S
C55 O58 1.252 . S
C55 O59 1.260 . S
C56 O63 1.240 . S
C56 O64 1.252 . S
C57 O60 1.252 . S
C57 O61 1.260 . S
O58 In52 2.266 1_554 S
O58 C55 1.252 . S
O59 In52 2.326 1_554 S
O59 C55 1.260 . S
O60 In52 2.266 . S
O60 C57 1.252 . S
O61 In52 2.326 . S
O61 C57 1.260 . S
C62 O53 1.240 . S
C62 O54 1.252 . S
O63 In52 2.294 . S
O63 C56 1.240 . S
O64 In52 2.326 . S
O64 C56 1.252 . S
In65 O66 2.294 . S
In65 O67 2.326 . S
In65 O71 2.266 . S
In65 O72 2.326 . S
In65 O73 2.266 1_556 S
In65 O74 2.326 1_556 S
In65 O76 2.294 . S
In65 O77 2.326 . S
O66 In65 2.294 . S
O66 C75 1.240 . S
O67 In65 2.326 . S
O67 C75 1.252 . S
C68 O71 1.252 . S
C68 O72 1.260 . S
C69 O76 1.240 . S
C69 O77 1.252 . S
C70 O73 1.252 . S
C70 O74 1.260 . S
O71 In65 2.266 . S
O71 C68 1.252 . S
O72 In65 2.326 . S
O72 C68 1.260 . S
O73 In65 2.266 1_554 S
O73 C70 1.252 . S
O74 In65 2.326 1_554 S
O74 C70 1.260 . S
C75 O66 1.240 . S
C75 O67 1.252 . S
O76 In65 2.294 . S
O76 C69 1.240 . S
O77 In65 2.326 . S
O77 C69 1.252 . S
In78 O79 2.294 . S
In78 O80 2.326 . S
In78 O84 2.266 1_556 S
In78 O85 2.326 1_556 S
In78 O86 2.266 . S
In78 O87 2.326 . S
In78 O89 2.294 . S
In78 O90 2.326 . S
O79 In78 2.294 . S
O79 C88 1.240 . S
O80 In78 2.326 . S
O80 C88 1.252 . S
C81 O84 1.252 . S
C81 O85 1.260 . S
C82 O89 1.240 . S
C82 O90 1.252 . S
C83 O86 1.252 . S
C83 O87 1.260 . S
O84 In78 2.266 1_554 S
O84 C81 1.252 . S
O85 In78 2.326 1_554 S
O85 C81 1.260 . S
O86 In78 2.266 . S
O86 C83 1.252 . S
O87 In78 2.326 . S
O87 C83 1.260 . S
C88 O79 1.240 . S
C88 O80 1.252 . S
O89 In78 2.294 . S
O89 C82 1.240 . S
O90 In78 2.326 . S
O90 C82 1.252 . S
In91 O92 2.294 . S
In91 O93 2.326 . S
In91 O97 2.266 . S
In91 O98 2.326 . S
In91 O99 2.266 1_556 S
In91 O100 2.326 1_556 S
In91 O102 2.294 . S
In91 O103 2.326 . S
O92 In91 2.294 . S
O92 C101 1.240 . S
O93 In91 2.326 . S
O93 C101 1.252 . S
C94 O97 1.252 . S
C94 O98 1.260 . S
C95 O102 1.240 . S
C95 O103 1.252 . S
C96 O99 1.252 . S
C96 O100 1.260 . S
O97 In91 2.266 . S
O97 C94 1.252 . S
O98 In91 2.326 . S
O98 C94 1.260 . S
O99 In91 2.266 1_554 S
O99 C96 1.252 . S
O100 In91 2.326 1_554 S
O100 C96 1.260 . S
C101 O92 1.240 . S
C101 O93 1.252 . S
O102 In91 2.294 . S
O102 C95 1.240 . S
O103 In91 2.326 . S
O103 C95 1.252 . S
In104 O105 2.294 . S
In104 O106 2.326 . S
In104 O110 2.266 1_556 S
In104 O111 2.326 1_556 S
In104 O112 2.266 . S
In104 O113 2.326 . S
In104 O115 2.294 . S
In104 O116 2.326 . S
O105 In104 2.294 . S
O105 C114 1.240 . S
O106 In104 2.326 . S
O106 C114 1.252 . S
C107 O110 1.252 . S
C107 O111 1.260 . S
C108 O115 1.240 . S
C108 O116 1.252 . S
C109 O112 1.252 . S
C109 O113 1.260 . S
O110 In104 2.266 1_554 S
O110 C107 1.252 . S
O111 In104 2.326 1_554 S
O111 C107 1.260 . S
O112 In104 2.266 . S
O112 C109 1.252 . S
O113 In104 2.326 . S
O113 C109 1.260 . S
C114 O105 1.240 . S
C114 O106 1.252 . S
O115 In104 2.294 . S
O115 C108 1.240 . S
O116 In104 2.326 . S
O116 C108 1.252 . S
In117 O118 2.294 . S
In117 O119 2.326 . S
In117 O123 2.266 1_554 S
In117 O124 2.326 1_554 S
In117 O125 2.266 . S
In117 O126 2.326 . S
In117 O128 2.294 . S
In117 O129 2.326 . S
O118 In117 2.294 . S
O118 C127 1.240 . S
O119 In117 2.326 . S
O119 C127 1.252 . S
C120 O123 1.252 . S
C120 O124 1.260 . S
C121 O128 1.240 . S
C121 O129 1.252 . S
C122 O125 1.252 . S
C122 O126 1.260 . S
O123 In117 2.266 1_556 S
O123 C120 1.252 . S
O124 In117 2.326 1_556 S
O124 C120 1.260 . S
O125 In117 2.266 . S
O125 C122 1.252 . S
O126 In117 2.326 . S
O126 C122 1.260 . S
C127 O118 1.240 . S
C127 O119 1.252 . S
O128 In117 2.294 . S
O128 C121 1.240 . S
O129 In117 2.326 . S
O129 C121 1.252 . S
In130 O131 2.294 . S
In130 O132 2.326 . S
In130 O136 2.266 . S
In130 O137 2.326 . S
In130 O138 2.266 1_554 S
In130 O139 2.326 1_554 S
In130 O141 2.294 . S
In130 O142 2.326 . S
O131 In130 2.294 . S
O131 C140 1.240 . S
O132 In130 2.326 . S
O132 C140 1.252 . S
C133 O136 1.252 . S
C133 O137 1.260 . S
C134 O141 1.240 . S
C134 O142 1.252 . S
C135 O138 1.252 . S
C135 O139 1.260 . S
O136 In130 2.266 . S
O136 C133 1.252 . S
O137 In130 2.326 . S
O137 C133 1.260 . S
O138 In130 2.266 1_556 S
O138 C135 1.252 . S
O139 In130 2.326 1_556 S
O139 C135 1.260 . S
C140 O131 1.240 . S
C140 O132 1.252 . S
O141 In130 2.294 . S
O141 C134 1.240 . S
O142 In130 2.326 . S
O142 C134 1.252 . S
In143 O144 2.294 . S
In143 O145 2.326 . S
In143 O149 2.266 1_554 S
In143 O150 2.326 1_554 S
In143 O151 2.266 . S
In143 O152 2.326 . S
In143 O154 2.294 . S
In143 O155 2.326 . S
O144 In143 2.294 . S
O144 C153 1.240 . S
O145 In143 2.326 . S
O145 C153 1.252 . S
C146 O149 1.252 . S
C146 O150 1.260 . S
C147 O154 1.240 . S
C147 O155 1.252 . S
C148 O151 1.252 . S
C148 O152 1.260 . S
O149 In143 2.266 1_556 S
O149 C146 1.252 . S
O150 In143 2.326 1_556 S
O150 C146 1.260 . S
O151 In143 2.266 . S
O151 C148 1.252 . S
O152 In143 2.326 . S
O152 C148 1.260 . S
C153 O144 1.240 . S
C153 O145 1.252 . S
O154 In143 2.294 . S
O154 C147 1.240 . S
O155 In143 2.326 . S
O155 C147 1.252 . S
In156 O157 2.294 . S
In156 O158 2.326 . S
In156 O162 2.266 . S
In156 O163 2.326 . S
In156 O164 2.266 . S
In156 O165 2.326 . S
In156 O167 2.294 . S
In156 O168 2.326 . S
O157 In156 2.294 . S
O157 C166 1.240 . S
O158 In156 2.326 . S
O158 C166 1.252 . S
C159 O162 1.252 . S
C159 O163 1.260 . S
C160 O167 1.240 . S
C160 O168 1.252 . S
C161 O164 1.252 . S
C161 O165 1.260 . S
O162 In156 2.266 . S
O162 C159 1.252 . S
O163 In156 2.326 . S
O163 C159 1.260 . S
O164 In156 2.266 . S
O164 C161 1.252 . S
O165 In156 2.326 . S
O165 C161 1.260 . S
C166 O157 1.240 . S
C166 O158 1.252 . S
O167 In156 2.294 . S
O167 C160 1.240 . S
O168 In156 2.326 . S
O168 C160 1.252 . S
In169 O170 2.294 . S
In169 O171 2.326 . S
In169 O175 2.266 . S
In169 O176 2.326 . S
In169 O177 2.266 . S
In169 O178 2.326 . S
In169 O180 2.294 . S
In169 O181 2.326 . S
O170 In169 2.294 . S
O170 C179 1.240 . S
O171 In169 2.326 . S
O171 C179 1.252 . S
C172 O175 1.252 . S
C172 O176 1.260 . S
C173 O180 1.240 . S
C173 O181 1.252 . S
C174 O177 1.252 . S
C174 O178 1.260 . S
O175 In169 2.266 . S
O175 C172 1.252 . S
O176 In169 2.326 . S
O176 C172 1.260 . S
O177 In169 2.266 . S
O177 C174 1.252 . S
O178 In169 2.326 . S
O178 C174 1.260 . S
C179 O170 1.240 . S
C179 O171 1.252 . S
O180 In169 2.294 . S
O180 C173 1.240 . S
O181 In169 2.326 . S
O181 C173 1.252 . S
In182 O183 2.294 . S
In182 O184 2.326 . S
In182 O188 2.266 . S
In182 O189 2.326 . S
In182 O190 2.266 . S
In182 O191 2.326 . S
In182 O193 2.294 . S
In182 O194 2.326 . S
O183 In182 2.294 . S
O183 C192 1.240 . S
O184 In182 2.326 . S
O184 C192 1.252 . S
C185 O188 1.252 . S
C185 O189 1.260 . S
C186 O193 1.240 . S
C186 O194 1.252 . S
C187 O190 1.252 . S
C187 O191 1.260 . S
O188 In182 2.266 . S
O188 C185 1.252 . S
O189 In182 2.326 . S
O189 C185 1.260 . S
O190 In182 2.266 . S
O190 C187 1.252 . S
O191 In182 2.326 . S
O191 C187 1.260 . S
C192 O183 1.240 . S
C192 O184 1.252 . S
O193 In182 2.294 . S
O193 C186 1.240 . S
O194 In182 2.326 . S
O194 C186 1.252 . S
In195 O196 2.294 1_655 S
In195 O197 2.326 . S
In195 O201 2.266 1_655 S
In195 O202 2.326 . S
In195 O203 2.266 . S
In195 O204 2.326 . S
In195 O206 2.294 . S
In195 O207 2.326 . S
O196 In195 2.294 1_455 S
O196 C205 1.240 1_455 S
O197 In195 2.326 . S
O197 C205 1.252 . S
C198 O201 1.252 1_655 S
C198 O202 1.260 . S
C199 O206 1.240 . S
C199 O207 1.252 . S
C200 O203 1.252 . S
C200 O204 1.260 . S
O201 In195 2.266 1_455 S
O201 C198 1.252 1_455 S
O202 In195 2.326 . S
O202 C198 1.260 . S
O203 In195 2.266 . S
O203 C200 1.252 . S
O204 In195 2.326 . S
O204 C200 1.260 . S
C205 O196 1.240 1_655 S
C205 O197 1.252 . S
O206 In195 2.294 . S
O206 C199 1.240 . S
O207 In195 2.326 . S
O207 C199 1.252 . S
In208 O209 2.294 . S
In208 O210 2.326 . S
In208 O214 2.266 . S
In208 O215 2.326 . S
In208 O216 2.266 . S
In208 O217 2.326 . S
In208 O219 2.294 . S
In208 O220 2.326 . S
O209 In208 2.294 . S
O209 C218 1.240 . S
O210 In208 2.326 . S
O210 C218 1.252 . S
C211 O214 1.252 . S
C211 O215 1.260 . S
C212 O219 1.240 . S
C212 O220 1.252 . S
C213 O216 1.252 . S
C213 O217 1.260 . S
O214 In208 2.266 . S
O214 C211 1.252 . S
O215 In208 2.326 . S
O215 C211 1.260 . S
O216 In208 2.266 . S
O216 C213 1.252 . S
O217 In208 2.326 . S
O217 C213 1.260 . S
C218 O209 1.240 . S
C218 O210 1.252 . S
O219 In208 2.294 . S
O219 C212 1.240 . S
O220 In208 2.326 . S
O220 C212 1.252 . S
In221 O222 2.294 . S
In221 O223 2.326 . S
In221 O227 2.266 . S
In221 O228 2.326 . S
In221 O229 2.266 1_545 S
In221 O230 2.326 . S
In221 O232 2.294 1_545 S
In221 O233 2.326 . S
O222 In221 2.294 . S
O222 C231 1.240 . S
O223 In221 2.326 . S
O223 C231 1.252 . S
C224 O227 1.252 . S
C224 O228 1.260 . S
C225 O232 1.240 1_545 S
C225 O233 1.252 . S
C226 O229 1.252 1_545 S
C226 O230 1.260 . S
O227 In221 2.266 . S
O227 C224 1.252 . S
O228 In221 2.326 . S
O228 C224 1.260 . S
O229 In221 2.266 1_565 S
O229 C226 1.252 1_565 S
O230 In221 2.326 . S
O230 C226 1.260 . S
C231 O222 1.240 . S
C231 O223 1.252 . S
O232 In221 2.294 1_565 S
O232 C225 1.240 1_565 S
O233 In221 2.326 . S
O233 C225 1.252 . S
In234 O235 2.294 . S
In234 O236 2.326 . S
In234 O240 2.266 . S
In234 O241 2.326 . S
In234 O242 2.266 1_545 S
In234 O243 2.326 . S
In234 O245 2.294 1_545 S
In234 O246 2.326 . S
O235 In234 2.294 . S
O235 C244 1.240 . S
O236 In234 2.326 . S
O236 C244 1.252 . S
C237 O240 1.252 . S
C237 O241 1.260 . S
C238 O245 1.240 1_545 S
C238 O246 1.252 . S
C239 O242 1.252 1_545 S
C239 O243 1.260 . S
O240 In234 2.266 . S
O240 C237 1.252 . S
O241 In234 2.326 . S
O241 C237 1.260 . S
O242 In234 2.266 1_565 S
O242 C239 1.252 1_565 S
O243 In234 2.326 . S
O243 C239 1.260 . S
C244 O235 1.240 . S
C244 O236 1.252 . S
O245 In234 2.294 1_565 S
O245 C238 1.240 1_565 S
O246 In234 2.326 . S
O246 C238 1.252 . S
In247 O248 2.294 1_655 S
In247 O249 2.326 . S
In247 O253 2.266 1_655 S
In247 O254 2.326 . S
In247 O255 2.266 . S
In247 O256 2.326 . S
In247 O258 2.294 . S
In247 O259 2.326 . S
O248 In247 2.294 1_455 S
O248 C257 1.240 1_455 S
O249 In247 2.326 . S
O249 C257 1.252 . S
C250 O253 1.252 1_655 S
C250 O254 1.260 . S
C251 O258 1.240 . S
C251 O259 1.252 . S
C252 O255 1.252 . S
C252 O256 1.260 . S
O253 In247 2.266 1_455 S
O253 C250 1.252 1_455 S
O254 In247 2.326 . S
O254 C250 1.260 . S
O255 In247 2.266 . S
O255 C252 1.252 . S
O256 In247 2.326 . S
O256 C252 1.260 . S
C257 O248 1.240 1_655 S
C257 O249 1.252 . S
O258 In247 2.294 . S
O258 C251 1.240 . S
O259 In247 2.326 . S
O259 C251 1.252 . S
In260 O261 2.294 . S
In260 O262 2.326 . S
In260 O266 2.266 . S
In260 O267 2.326 . S
In260 O268 2.266 . S
In260 O269 2.326 . S
In260 O271 2.294 . S
In260 O272 2.326 . S
O261 In260 2.294 . S
O261 C270 1.240 . S
O262 In260 2.326 . S
O262 C270 1.252 . S
C263 O266 1.252 . S
C263 O267 1.260 . S
C264 O271 1.240 . S
C264 O272 1.252 . S
C265 O268 1.252 . S
C265 O269 1.260 . S
O266 In260 2.266 . S
O266 C263 1.252 . S
O267 In260 2.326 . S
O267 C263 1.260 . S
O268 In260 2.266 . S
O268 C265 1.252 . S
O269 In260 2.326 . S
O269 C265 1.260 . S
C270 O261 1.240 . S
C270 O262 1.252 . S
O271 In260 2.294 . S
O271 C264 1.240 . S
O272 In260 2.326 . S
O272 C264 1.252 . S
In273 O274 2.294 . S
In273 O275 2.326 . S
In273 O279 2.266 . S
In273 O280 2.326 . S
In273 O281 2.266 . S
In273 O282 2.326 . S
In273 O284 2.294 . S
In273 O285 2.326 . S
O274 In273 2.294 . S
O274 C283 1.240 . S
O275 In273 2.326 . S
O275 C283 1.252 . S
C276 O279 1.252 . S
C276 O280 1.260 . S
C277 O284 1.240 . S
C277 O285 1.252 . S
C278 O281 1.252 . S
C278 O282 1.260 . S
O279 In273 2.266 . S
O279 C276 1.252 . S
O280 In273 2.326 . S
O280 C276 1.260 . S
O281 In273 2.266 . S
O281 C278 1.252 . S
O282 In273 2.326 . S
O282 C278 1.260 . S
C283 O274 1.240 . S
C283 O275 1.252 . S
O284 In273 2.294 . S
O284 C277 1.240 . S
O285 In273 2.326 . S
O285 C277 1.252 . S
In286 O287 2.294 . S
In286 O288 2.326 . S
In286 O292 2.266 . S
In286 O293 2.326 . S
In286 O294 2.266 . S
In286 O295 2.326 . S
In286 O297 2.294 . S
In286 O298 2.326 . S
O287 In286 2.294 . S
O287 C296 1.240 . S
O288 In286 2.326 . S
O288 C296 1.252 . S
C289 O292 1.252 . S
C289 O293 1.260 . S
C290 O297 1.240 . S
C290 O298 1.252 . S
C291 O294 1.252 . S
C291 O295 1.260 . S
O292 In286 2.266 . S
O292 C289 1.252 . S
O293 In286 2.326 . S
O293 C289 1.260 . S
O294 In286 2.266 . S
O294 C291 1.252 . S
O295 In286 2.326 . S
O295 C291 1.260 . S
C296 O287 1.240 . S
C296 O288 1.252 . S
O297 In286 2.294 . S
O297 C290 1.240 . S
O298 In286 2.326 . S
O298 C290 1.252 . S
In299 O300 2.294 . S
In299 O301 2.326 . S
In299 O305 2.266 . S
In299 O306 2.326 . S
In299 O307 2.266 . S
In299 O308 2.326 . S
In299 O310 2.294 . S
In299 O311 2.326 . S
O300 In299 2.294 . S
O300 C309 1.240 . S
O301 In299 2.326 . S
O301 C309 1.252 . S
C302 O305 1.252 . S
C302 O306 1.260 . S
C303 O310 1.240 . S
C303 O311 1.252 . S
C304 O307 1.252 . S
C304 O308 1.260 . S
O305 In299 2.266 . S
O305 C302 1.252 . S
O306 In299 2.326 . S
O306 C302 1.260 . S
O307 In299 2.266 . S
O307 C304 1.252 . S
O308 In299 2.326 . S
O308 C304 1.260 . S
C309 O300 1.240 . S
C309 O301 1.252 . S
O310 In299 2.294 . S
O310 C303 1.240 . S
O311 In299 2.326 . S
O311 C303 1.252 . S
In312 O313 2.294 1_565 S
In312 O314 2.326 . S
In312 O318 2.266 1_565 S
In312 O319 2.326 . S
In312 O320 2.266 . S
In312 O321 2.326 . S
In312 O323 2.294 . S
In312 O324 2.326 . S
O313 In312 2.294 1_545 S
O313 C322 1.240 1_545 S
O314 In312 2.326 . S
O314 C322 1.252 . S
C315 O318 1.252 1_565 S
C315 O319 1.260 . S
C316 O323 1.240 . S
C316 O324 1.252 . S
C317 O320 1.252 . S
C317 O321 1.260 . S
O318 In312 2.266 1_545 S
O318 C315 1.252 1_545 S
O319 In312 2.326 . S
O319 C315 1.260 . S
O320 In312 2.266 . S
O320 C317 1.252 . S
O321 In312 2.326 . S
O321 C317 1.260 . S
C322 O313 1.240 1_565 S
C322 O314 1.252 . S
O323 In312 2.294 . S
O323 C316 1.240 . S
O324 In312 2.326 . S
O324 C316 1.252 . S
In325 O326 2.294 . S
In325 O327 2.326 . S
In325 O331 2.266 . S
In325 O332 2.326 . S
In325 O333 2.266 1_455 S
In325 O334 2.326 . S
In325 O336 2.294 1_455 S
In325 O337 2.326 . S
O326 In325 2.294 . S
O326 C335 1.240 . S
O327 In325 2.326 . S
O327 C335 1.252 . S
C328 O331 1.252 . S
C328 O332 1.260 . S
C329 O336 1.240 1_455 S
C329 O337 1.252 . S
C330 O333 1.252 1_455 S
C330 O334 1.260 . S
O331 In325 2.266 . S
O331 C328 1.252 . S
O332 In325 2.326 . S
O332 C328 1.260 . S
O333 In325 2.266 1_655 S
O333 C330 1.252 1_655 S
O334 In325 2.326 . S
O334 C330 1.260 . S
C335 O326 1.240 . S
C335 O327 1.252 . S
O336 In325 2.294 1_655 S
O336 C329 1.240 1_655 S
O337 In325 2.326 . S
O337 C329 1.252 . S
In338 O339 2.294 . S
In338 O340 2.326 . S
In338 O344 2.266 . S
In338 O345 2.326 . S
In338 O346 2.266 . S
In338 O347 2.326 . S
In338 O349 2.294 . S
In338 O350 2.326 . S
O339 In338 2.294 . S
O339 C348 1.240 . S
O340 In338 2.326 . S
O340 C348 1.252 . S
C341 O344 1.252 . S
C341 O345 1.260 . S
C342 O349 1.240 . S
C342 O350 1.252 . S
C343 O346 1.252 . S
C343 O347 1.260 . S
O344 In338 2.266 . S
O344 C341 1.252 . S
O345 In338 2.326 . S
O345 C341 1.260 . S
O346 In338 2.266 . S
O346 C343 1.252 . S
O347 In338 2.326 . S
O347 C343 1.260 . S
C348 O339 1.240 . S
C348 O340 1.252 . S
O349 In338 2.294 . S
O349 C342 1.240 . S
O350 In338 2.326 . S
O350 C342 1.252 . S
In351 O352 2.294 . S
In351 O353 2.326 . S
In351 O357 2.266 . S
In351 O358 2.326 . S
In351 O359 2.266 . S
In351 O360 2.326 . S
In351 O362 2.294 . S
In351 O363 2.326 . S
O352 In351 2.294 . S
O352 C361 1.240 . S
O353 In351 2.326 . S
O353 C361 1.252 . S
C354 O357 1.252 . S
C354 O358 1.260 . S
C355 O362 1.240 . S
C355 O363 1.252 . S
C356 O359 1.252 . S
C356 O360 1.260 . S
O357 In351 2.266 . S
O357 C354 1.252 . S
O358 In351 2.326 . S
O358 C354 1.260 . S
O359 In351 2.266 . S
O359 C356 1.252 . S
O360 In351 2.326 . S
O360 C356 1.260 . S
C361 O352 1.240 . S
C361 O353 1.252 . S
O362 In351 2.294 . S
O362 C355 1.240 . S
O363 In351 2.326 . S
O363 C355 1.252 . S
In364 O365 2.294 . S
In364 O366 2.326 . S
In364 O370 2.266 . S
In364 O371 2.326 . S
In364 O372 2.266 . S
In364 O373 2.326 . S
In364 O375 2.294 . S
In364 O376 2.326 . S
O365 In364 2.294 . S
O365 C374 1.240 . S
O366 In364 2.326 . S
O366 C374 1.252 . S
C367 O370 1.252 . S
C367 O371 1.260 . S
C368 O375 1.240 . S
C368 O376 1.252 . S
C369 O372 1.252 . S
C369 O373 1.260 . S
O370 In364 2.266 . S
O370 C367 1.252 . S
O371 In364 2.326 . S
O371 C367 1.260 . S
O372 In364 2.266 . S
O372 C369 1.252 . S
O373 In364 2.326 . S
O373 C369 1.260 . S
C374 O365 1.240 . S
C374 O366 1.252 . S
O375 In364 2.294 . S
O375 C368 1.240 . S
O376 In364 2.326 . S
O376 C368 1.252 . S
In377 O378 2.294 . S
In377 O379 2.326 . S
In377 O383 2.266 . S
In377 O384 2.326 . S
In377 O385 2.266 . S
In377 O386 2.326 . S
In377 O388 2.294 . S
In377 O389 2.326 . S
O378 In377 2.294 . S
O378 C387 1.240 . S
O379 In377 2.326 . S
O379 C387 1.252 . S
C380 O383 1.252 . S
C380 O384 1.260 . S
C381 O388 1.240 . S
C381 O389 1.252 . S
C382 O385 1.252 . S
C382 O386 1.260 . S
O383 In377 2.266 . S
O383 C380 1.252 . S
O384 In377 2.326 . S
O384 C380 1.260 . S
O385 In377 2.266 . S
O385 C382 1.252 . S
O386 In377 2.326 . S
O386 C382 1.260 . S
C387 O378 1.240 . S
C387 O379 1.252 . S
O388 In377 2.294 . S
O388 C381 1.240 . S
O389 In377 2.326 . S
O389 C381 1.252 . S
In390 O391 2.294 . S
In390 O392 2.326 . S
In390 O396 2.266 . S
In390 O397 2.326 . S
In390 O398 2.266 . S
In390 O399 2.326 . S
In390 O401 2.294 . S
In390 O402 2.326 . S
O391 In390 2.294 . S
O391 C400 1.240 . S
O392 In390 2.326 . S
O392 C400 1.252 . S
C393 O396 1.252 . S
C393 O397 1.260 . S
C394 O401 1.240 . S
C394 O402 1.252 . S
C395 O398 1.252 . S
C395 O399 1.260 . S
O396 In390 2.266 . S
O396 C393 1.252 . S
O397 In390 2.326 . S
O397 C393 1.260 . S
O398 In390 2.266 . S
O398 C395 1.252 . S
O399 In390 2.326 . S
O399 C395 1.260 . S
C400 O391 1.240 . S
C400 O392 1.252 . S
O401 In390 2.294 . S
O401 C394 1.240 . S
O402 In390 2.326 . S
O402 C394 1.252 . S
In403 O404 2.294 . S
In403 O405 2.326 . S
In403 O409 2.266 . S
In403 O410 2.326 . S
In403 O411 2.266 . S
In403 O412 2.326 . S
In403 O414 2.294 . S
In403 O415 2.326 . S
O404 In403 2.294 . S
O404 C413 1.240 . S
O405 In403 2.326 . S
O405 C413 1.252 . S
C406 O409 1.252 . S
C406 O410 1.260 . S
C407 O414 1.240 . S
C407 O415 1.252 . S
C408 O411 1.252 . S
C408 O412 1.260 . S
O409 In403 2.266 . S
O409 C406 1.252 . S
O410 In403 2.326 . S
O410 C406 1.260 . S
O411 In403 2.266 . S
O411 C408 1.252 . S
O412 In403 2.326 . S
O412 C408 1.260 . S
C413 O404 1.240 . S
C413 O405 1.252 . S
O414 In403 2.294 . S
O414 C407 1.240 . S
O415 In403 2.326 . S
O415 C407 1.252 . S
In416 O417 2.294 . S
In416 O418 2.326 . S
In416 O422 2.266 . S
In416 O423 2.326 . S
In416 O424 2.266 . S
In416 O425 2.326 . S
In416 O427 2.294 . S
In416 O428 2.326 . S
O417 In416 2.294 . S
O417 C426 1.240 . S
O418 In416 2.326 . S
O418 C426 1.252 . S
C419 O422 1.252 . S
C419 O423 1.260 . S
C420 O427 1.240 . S
C420 O428 1.252 . S
C421 O424 1.252 . S
C421 O425 1.260 . S
O422 In416 2.266 . S
O422 C419 1.252 . S
O423 In416 2.326 . S
O423 C419 1.260 . S
O424 In416 2.266 . S
O424 C421 1.252 . S
O425 In416 2.326 . S
O425 C421 1.260 . S
C426 O417 1.240 . S
C426 O418 1.252 . S
O427 In416 2.294 . S
O427 C420 1.240 . S
O428 In416 2.326 . S
O428 C420 1.252 . S
In429 O430 2.294 . S
In429 O431 2.326 . S
In429 O435 2.266 . S
In429 O436 2.326 . S
In429 O437 2.266 1_455 S
In429 O438 2.326 . S
In429 O440 2.294 1_455 S
In429 O441 2.326 . S
O430 In429 2.294 . S
O430 C439 1.240 . S
O431 In429 2.326 . S
O431 C439 1.252 . S
C432 O435 1.252 . S
C432 O436 1.260 . S
C433 O440 1.240 1_455 S
C433 O441 1.252 . S
C434 O437 1.252 1_455 S
C434 O438 1.260 . S
O435 In429 2.266 . S
O435 C432 1.252 . S
O436 In429 2.326 . S
O436 C432 1.260 . S
O437 In429 2.266 1_655 S
O437 C434 1.252 1_655 S
O438 In429 2.326 . S
O438 C434 1.260 . S
C439 O430 1.240 . S
C439 O431 1.252 . S
O440 In429 2.294 1_655 S
O440 C433 1.240 1_655 S
O441 In429 2.326 . S
O441 C433 1.252 . S
In442 O443 2.294 . S
In442 O444 2.326 . S
In442 O448 2.266 . S
In442 O449 2.326 . S
In442 O450 2.266 . S
In442 O451 2.326 . S
In442 O453 2.294 . S
In442 O454 2.326 . S
O443 In442 2.294 . S
O443 C452 1.240 . S
O444 In442 2.326 . S
O444 C452 1.252 . S
C445 O448 1.252 . S
C445 O449 1.260 . S
C446 O453 1.240 . S
C446 O454 1.252 . S
C447 O450 1.252 . S
C447 O451 1.260 . S
O448 In442 2.266 . S
O448 C445 1.252 . S
O449 In442 2.326 . S
O449 C445 1.260 . S
O450 In442 2.266 . S
O450 C447 1.252 . S
O451 In442 2.326 . S
O451 C447 1.260 . S
C452 O443 1.240 . S
C452 O444 1.252 . S
O453 In442 2.294 . S
O453 C446 1.240 . S
O454 In442 2.326 . S
O454 C446 1.252 . S
In455 O456 2.294 1_565 S
In455 O457 2.326 . S
In455 O461 2.266 1_565 S
In455 O462 2.326 . S
In455 O463 2.266 . S
In455 O464 2.326 . S
In455 O466 2.294 . S
In455 O467 2.326 . S
O456 In455 2.294 1_545 S
O456 C465 1.240 1_545 S
O457 In455 2.326 . S
O457 C465 1.252 . S
C458 O461 1.252 1_565 S
C458 O462 1.260 . S
C459 O466 1.240 . S
C459 O467 1.252 . S
C460 O463 1.252 . S
C460 O464 1.260 . S
O461 In455 2.266 1_545 S
O461 C458 1.252 1_545 S
O462 In455 2.326 . S
O462 C458 1.260 . S
O463 In455 2.266 . S
O463 C460 1.252 . S
O464 In455 2.326 . S
O464 C460 1.260 . S
C465 O456 1.240 1_565 S
C465 O457 1.252 . S
O466 In455 2.294 . S
O466 C459 1.240 . S
O467 In455 2.326 . S
O467 C459 1.252 . S
C10 C147 1.518 . S
C23 C121 1.518 . S
C140 C30 1.518 . S
C43 C101 1.518 . S
C108 C56 1.518 . S
C75 C82 1.518 . S
C303 C160 1.518 . S
C179 C283 1.518 . S
C192 C296 1.518 . S
C251 C199 1.518 . S
C218 C264 1.518 . S
C244 C231 1.518 . S
C316 C459 1.518 . S
C439 C335 1.518 . S
C446 C342 1.518 . S
C413 C355 1.518 . S
C426 C368 1.518 . S
C400 C381 1.518 . S
C3 C57 1.508 1_454 S
C68 C16 1.507 1_556 S
C31 C44 1.508 1_564 S
C83 C133 1.508 1_656 S
C94 C148 1.507 1_556 S
C109 C122 1.508 1_546 S
C211 C161 1.507 . S
C224 C172 1.507 . S
C185 C200 1.507 . S
C289 C237 1.508 . S
C304 C252 1.507 . S
C265 C276 1.507 . S
C369 C317 1.508 . S
C328 C382 1.507 . S
C343 C356 1.507 . S
C447 C393 1.507 . S
C406 C460 1.507 . S
C432 C419 1.507 . S
C380 C5 1.355 . S
C18 C354 1.355 . S
C29 C367 1.355 . S
C42 C174 1.355 . S
C187 C55 1.355 . S
C159 C70 1.355 . S
C81 C302 1.355 . S
C96 C278 1.355 . S
C107 C291 1.355 . S
C408 C120 1.355 . S
C421 C135 1.355 . S
C146 C395 1.355 . S
C330 C198 1.355 1_455 S
C213 C341 1.355 . S
C315 C226 1.355 1_565 S
C458 C239 1.355 1_565 S
C250 C434 1.355 1_655 S
C263 C445 1.355 . S
C4 C387 1.537 . S
C361 C17 1.537 . S
C36 C374 1.537 . S
C173 C49 1.537 . S
C62 C186 1.537 . S
C69 C166 1.537 . S
C309 C88 1.537 . S
C95 C277 1.537 . S
C114 C290 1.537 . S
C127 C407 1.537 . S
C420 C134 1.537 . S
C153 C394 1.537 . S
C329 C205 1.537 1_456 S
C212 C348 1.537 1_554 S
C225 C322 1.537 1_544 S
C465 C238 1.537 1_566 S
C433 C257 1.537 1_456 S
C270 C452 1.537 1_554 S
