# Generated by pormake.
# Topology uno, (4)-cn, num edge types: 1
# Building blocks:
#     Node 0, Type 0, BuildingBlock: NAWXER_clean_sbu_0, # of connection points: 4
#     Node 1, Type 0, BuildingBlock: NAWXER_clean_sbu_0, # of connection points: 4
#     Node 2, Type 0, BuildingBlock: NAWXER_clean_sbu_0, # of connection points: 4
#     Node 3, Type 0, BuildingBlock: NAWXER_clean_sbu_0, # of connection points: 4
#     Node 4, Type 0, BuildingBlock: NAWXER_clean_sbu_0, # of connection points: 4
#     Node 5, Type 0, BuildingBlock: NAWXER_clean_sbu_0, # of connection points: 4
#     Node 6, Type 0, BuildingBlock: NAWXER_clean_sbu_0, # of connection points: 4
#     Node 7, Type 0, BuildingBlock: NAWXER_clean_sbu_0, # of connection points: 4
#     Node 8, Type 0, BuildingBlock: NAWXER_clean_sbu_0, # of connection points: 4
#     Node 9, Type 0, BuildingBlock: NAWXER_clean_sbu_0, # of connection points: 4
#     Node 10, Type 0, BuildingBlock: NAWXER_clean_sbu_0, # of connection points: 4
#     Node 11, Type 0, BuildingBlock: NAWXER_clean_sbu_0, # of connection points: 4
#     Node 12, Type 0, BuildingBlock: NAWXER_clean_sbu_0, # of connection points: 4
#     Node 13, Type 0, BuildingBlock: NAWXER_clean_sbu_0, # of connection points: 4
#     Node 14, Type 0, BuildingBlock: NAWXER_clean_sbu_0, # of connection points: 4
#     Node 15, Type 0, BuildingBlock: NAWXER_clean_sbu_0, # of connection points: 4
#     Node 16, Type 0, BuildingBlock: NAWXER_clean_sbu_0, # of connection points: 4
#     Node 17, Type 0, BuildingBlock: NAWXER_clean_sbu_0, # of connection points: 4
#     Node 18, Type 0, BuildingBlock: NAWXER_clean_sbu_0, # of connection points: 4
#     Node 19, Type 0, BuildingBlock: NAWXER_clean_sbu_0, # of connection points: 4
#     Node 20, Type 0, BuildingBlock: NAWXER_clean_sbu_0, # of connection points: 4
#     Node 21, Type 0, BuildingBlock: NAWXER_clean_sbu_0, # of connection points: 4
#     Node 22, Type 0, BuildingBlock: NAWXER_clean_sbu_0, # of connection points: 4
#     Node 23, Type 0, BuildingBlock: NAWXER_clean_sbu_0, # of connection points: 4
#     Edge 24, Type (0, 0), BuildingBlock: ZUJKAS_clean_linker_0, # of connection points: 2
#     Edge 25, Type (0, 0), BuildingBlock: ZUJKAS_clean_linker_0, # of connection points: 2
#     Edge 26, Type (0, 0), BuildingBlock: ZUJKAS_clean_linker_0, # of connection points: 2
#     Edge 27, Type (0, 0), BuildingBlock: ZUJKAS_clean_linker_0, # of connection points: 2
#     Edge 28, Type (0, 0), BuildingBlock: ZUJKAS_clean_linker_0, # of connection points: 2
#     Edge 29, Type (0, 0), BuildingBlock: ZUJKAS_clean_linker_0, # of connection points: 2
#     Edge 30, Type (0, 0), BuildingBlock: ZUJKAS_clean_linker_0, # of connection points: 2
#     Edge 31, Type (0, 0), BuildingBlock: ZUJKAS_clean_linker_0, # of connection points: 2
#     Edge 32, Type (0, 0), BuildingBlock: ZUJKAS_clean_linker_0, # of connection points: 2
#     Edge 33, Type (0, 0), BuildingBlock: ZUJKAS_clean_linker_0, # of connection points: 2
#     Edge 34, Type (0, 0), BuildingBlock: ZUJKAS_clean_linker_0, # of connection points: 2
#     Edge 35, Type (0, 0), BuildingBlock: ZUJKAS_clean_linker_0, # of connection points: 2
#     Edge 36, Type (0, 0), BuildingBlock: ZUJKAS_clean_linker_0, # of connection points: 2
#     Edge 37, Type (0, 0), BuildingBlock: ZUJKAS_clean_linker_0, # of connection points: 2
#     Edge 38, Type (0, 0), BuildingBlock: ZUJKAS_clean_linker_0, # of connection points: 2
#     Edge 39, Type (0, 0), BuildingBlock: ZUJKAS_clean_linker_0, # of connection points: 2
#     Edge 40, Type (0, 0), BuildingBlock: ZUJKAS_clean_linker_0, # of connection points: 2
#     Edge 41, Type (0, 0), BuildingBlock: ZUJKAS_clean_linker_0, # of connection points: 2
#     Edge 42, Type (0, 0), BuildingBlock: ZUJKAS_clean_linker_0, # of connection points: 2
#     Edge 43, Type (0, 0), BuildingBlock: ZUJKAS_clean_linker_0, # of connection points: 2
#     Edge 44, Type (0, 0), BuildingBlock: ZUJKAS_clean_linker_0, # of connection points: 2
#     Edge 45, Type (0, 0), BuildingBlock: ZUJKAS_clean_linker_0, # of connection points: 2
#     Edge 46, Type (0, 0), BuildingBlock: ZUJKAS_clean_linker_0, # of connection points: 2
#     Edge 47, Type (0, 0), BuildingBlock: ZUJKAS_clean_linker_0, # of connection points: 2
#     Edge 48, Type (0, 0), BuildingBlock: ZUJKAS_clean_linker_0, # of connection points: 2
#     Edge 49, Type (0, 0), BuildingBlock: ZUJKAS_clean_linker_0, # of connection points: 2
#     Edge 50, Type (0, 0), BuildingBlock: ZUJKAS_clean_linker_0, # of connection points: 2
#     Edge 51, Type (0, 0), BuildingBlock: ZUJKAS_clean_linker_0, # of connection points: 2
#     Edge 52, Type (0, 0), BuildingBlock: ZUJKAS_clean_linker_0, # of connection points: 2
#     Edge 53, Type (0, 0), BuildingBlock: ZUJKAS_clean_linker_0, # of connection points: 2
#     Edge 54, Type (0, 0), BuildingBlock: ZUJKAS_clean_linker_0, # of connection points: 2
#     Edge 55, Type (0, 0), BuildingBlock: ZUJKAS_clean_linker_0, # of connection points: 2
#     Edge 56, Type (0, 0), BuildingBlock: ZUJKAS_clean_linker_0, # of connection points: 2
#     Edge 57, Type (0, 0), BuildingBlock: ZUJKAS_clean_linker_0, # of connection points: 2
#     Edge 58, Type (0, 0), BuildingBlock: ZUJKAS_clean_linker_0, # of connection points: 2
#     Edge 59, Type (0, 0), BuildingBlock: ZUJKAS_clean_linker_0, # of connection points: 2
#     Edge 60, Type (0, 0), BuildingBlock: ZUJKAS_clean_linker_0, # of connection points: 2
#     Edge 61, Type (0, 0), BuildingBlock: ZUJKAS_clean_linker_0, # of connection points: 2
#     Edge 62, Type (0, 0), BuildingBlock: ZUJKAS_clean_linker_0, # of connection points: 2
#     Edge 63, Type (0, 0), BuildingBlock: ZUJKAS_clean_linker_0, # of connection points: 2
#     Edge 64, Type (0, 0), BuildingBlock: ZUJKAS_clean_linker_0, # of connection points: 2
#     Edge 65, Type (0, 0), BuildingBlock: ZUJKAS_clean_linker_0, # of connection points: 2
#     Edge 66, Type (0, 0), BuildingBlock: ZUJKAS_clean_linker_0, # of connection points: 2
#     Edge 67, Type (0, 0), BuildingBlock: ZUJKAS_clean_linker_0, # of connection points: 2
#     Edge 68, Type (0, 0), BuildingBlock: ZUJKAS_clean_linker_0, # of connection points: 2
#     Edge 69, Type (0, 0), BuildingBlock: ZUJKAS_clean_linker_0, # of connection points: 2
#     Edge 70, Type (0, 0), BuildingBlock: ZUJKAS_clean_linker_0, # of connection points: 2
#     Edge 71, Type (0, 0), BuildingBlock: ZUJKAS_clean_linker_0, # of connection points: 2
# Relax obj value: 0.465
# Max RMSD: 0.255
# Mean RMSD: 0.237
data_MOF--net-uno--node1-NAWXER_clean_sbu_0--edge1-ZUJKAS_clean_linker_0
_symmetry_space_group_name_H-M    P1
_symmetry_Int_Tables_number       1
_symmetry_cell_setting            triclinic
loop_
_symmetry_equiv_pos_as_xyz
'x, y, z'
_cell_length_a     65.531602
_cell_length_b     65.562878
_cell_length_c     65.564723
_cell_angle_alpha  89.7576
_cell_angle_beta   89.748842
_cell_angle_gamma 89.752424
loop_
_atom_site_label
_atom_site_type_symbol
_atom_site_fract_x
_atom_site_fract_y
_atom_site_fract_z
_atom_type_partial_charge
C0 C 0.06964 0.28659 0.28838 0.0
C1 C 0.12418 0.32502 0.25692 0.0
O2 O 0.07348 0.28937 0.26961 0.0
Zn3 Zn 0.09496 0.30873 0.27255 0.0
O4 O 0.07853 0.29784 0.30164 0.0
Zn5 Zn 0.10175 0.32156 0.30077 0.0
O6 O 0.08898 0.3472 0.30818 0.0
O7 O 0.08064 0.33765 0.27725 0.0
O8 O 0.12261 0.32931 0.27597 0.0
O9 O 0.11092 0.31368 0.2487 0.0
O10 O 0.11658 0.29209 0.29163 0.0
O11 O 0.12097 0.31003 0.31978 0.0
C12 C 0.07979 0.35085 0.29158 0.0
C13 C 0.12498 0.29431 0.30915 0.0
C14 C 0.97654 0.80258 0.54331 0.0
C15 C 0.95326 0.87059 0.52331 0.0
O16 O 0.97543 0.80504 0.52393 0.0
Zn17 Zn 0.96475 0.82755 0.50282 0.0
O18 O 0.96929 0.81625 0.55502 0.0
Zn19 Zn 0.96146 0.83593 0.53429 0.0
O20 O 0.93403 0.82477 0.52095 0.0
O21 O 0.94125 0.81591 0.48934 0.0
O22 O 0.95481 0.86405 0.54157 0.0
O23 O 0.95573 0.85829 0.50838 0.0
O24 O 0.98985 0.83412 0.48771 0.0
O25 O 0.99022 0.8425 0.52033 0.0
C26 C 0.9283 0.81762 0.50373 0.0
C27 C 0.9991 0.84178 0.50292 0.0
C28 C 0.45303 0.71415 0.7876 0.0
C29 C 0.39736 0.67912 0.75495 0.0
O30 O 0.44979 0.71108 0.76883 0.0
Zn31 Zn 0.42669 0.69356 0.77154 0.0
O32 O 0.4426 0.70415 0.8009 0.0
Zn33 Zn 0.41784 0.68214 0.79975 0.0
O34 O 0.42813 0.65605 0.80877 0.0
O35 O 0.4383 0.6635 0.77765 0.0
O36 O 0.39761 0.67503 0.77416 0.0
O37 O 0.41179 0.68941 0.74714 0.0
O38 O 0.40483 0.71195 0.78898 0.0
O39 O 0.39884 0.69518 0.81772 0.0
C40 C 0.43746 0.65089 0.79262 0.0
C41 C 0.39564 0.71059 0.80631 0.0
C42 C 0.59025 0.19186 0.98035 0.0
C43 C 0.53353 0.149 0.99926 0.0
O44 O 0.58775 0.17856 0.9941 0.0
Zn45 Zn 0.55989 0.17195 0.98961 0.0
O46 O 0.57498 0.19685 0.96917 0.0
Zn47 Zn 0.54327 0.18711 0.96836 0.0
O48 O 0.52758 0.21057 0.97457 0.0
O49 O 0.54108 0.19684 0.00199 0.0
O50 O 0.52778 0.1615 0.98511 0.0
O51 O 0.55142 0.15031 0.00638 0.0
O52 O 0.55791 0.15729 0.95915 0.0
O53 O 0.53992 0.17925 0.94103 0.0
C54 C 0.52943 0.21035 0.99375 0.0
C55 C 0.54923 0.16234 0.94224 0.0
C56 C 0.01773 0.01556 0.38479 0.0
C57 C 0.02073 0.08295 0.35158 0.0
O58 O 0.0012 0.02595 0.38526 0.0
Zn59 Zn 0.98904 0.05449 0.37601 0.0
O60 O 0.03331 0.02253 0.37539 0.0
Zn61 Zn 0.02023 0.04818 0.36619 0.0
O62 O 0.01683 0.06156 0.39512 0.0
O63 O 0.98435 0.06556 0.40343 0.0
O64 O 0.0346 0.0693 0.35107 0.0
O65 O 0.00357 0.07899 0.36017 0.0
O66 O 0.96696 0.0456 0.3584 0.0
O67 O 0.99739 0.03789 0.34594 0.0
C68 C 0.00318 0.06702 0.40799 0.0
C69 C 0.97791 0.03749 0.34453 0.0
C70 C 0.22106 0.70901 0.57137 0.0
C71 C 0.1939 0.74133 0.63179 0.0
O72 O 0.21999 0.72772 0.57601 0.0
Zn73 Zn 0.20517 0.72498 0.60081 0.0
O74 O 0.21169 0.69583 0.58253 0.0
Zn75 Zn 0.19325 0.69705 0.61033 0.0
O76 O 0.16555 0.68991 0.60302 0.0
O77 O 0.17417 0.72043 0.59206 0.0
O78 O 0.18921 0.72232 0.63153 0.0
O79 O 0.20316 0.74913 0.61664 0.0
O80 O 0.22506 0.70611 0.61963 0.0
O81 O 0.20786 0.67824 0.62759 0.0
C82 C 0.16075 0.70641 0.59406 0.0
C83 C 0.22404 0.6888 0.62883 0.0
C84 C 0.50765 0.9214 0.81703 0.0
C85 C 0.50959 0.99608 0.81891 0.0
O86 O 0.52239 0.92819 0.82784 0.0
Zn87 Zn 0.5344 0.95721 0.83632 0.0
O88 O 0.49581 0.93395 0.80813 0.0
Zn89 Zn 0.5079 0.95913 0.81724 0.0
O90 O 0.5365 0.96121 0.80148 0.0
O91 O 0.56132 0.95863 0.82403 0.0
O92 O 0.49596 0.98567 0.80991 0.0
O93 O 0.52388 0.9871 0.82871 0.0
O94 O 0.53111 0.95867 0.86583 0.0
O95 O 0.5019 0.95999 0.84922 0.0
C96 C 0.55559 0.96142 0.8057 0.0
C97 C 0.51176 0.96035 0.86604 0.0
C98 C 0.34966 0.29371 0.08196 0.0
C99 C 0.29444 0.30902 0.12951 0.0
O100 O 0.3465 0.30974 0.09226 0.0
Zn101 Zn 0.32077 0.3021 0.10472 0.0
O102 O 0.33615 0.27965 0.08197 0.0
Zn103 Zn 0.30736 0.27453 0.09644 0.0
O104 O 0.28748 0.27346 0.07519 0.0
O105 O 0.29676 0.3049 0.08209 0.0
O106 O 0.29181 0.29208 0.12011 0.0
O107 O 0.30983 0.32003 0.12522 0.0
O108 O 0.32851 0.27583 0.12374 0.0
O109 O 0.31233 0.24955 0.11059 0.0
C110 C 0.28512 0.29249 0.07252 0.0
C111 C 0.32401 0.25677 0.12414 0.0
C112 C 0.30602 0.1267 0.29246 0.0
C113 C 0.28893 0.0831 0.3502 0.0
O114 O 0.31687 0.12277 0.30804 0.0
Zn115 Zn 0.29818 0.10359 0.32006 0.0
O116 O 0.28872 0.11783 0.2903 0.0
Zn117 Zn 0.27032 0.09579 0.30707 0.0
O118 O 0.24595 0.11106 0.31101 0.0
O119 O 0.27251 0.12391 0.32699 0.0
O120 O 0.27482 0.08298 0.33674 0.0
O121 O 0.30548 0.09233 0.34637 0.0
O122 O 0.29998 0.07935 0.29755 0.0
O123 O 0.26822 0.07348 0.28864 0.0
C124 C 0.2535 0.12478 0.32228 0.0
C125 C 0.28708 0.06966 0.28656 0.0
C126 C 0.12755 0.99458 0.5579 0.0
C127 C 0.1926 0.02054 0.53171 0.0
O128 O 0.14087 0.98093 0.55371 0.0
Zn129 Zn 0.17097 0.97792 0.54248 0.0
O130 O 0.13231 0.01339 0.55687 0.0
Zn131 Zn 0.16065 0.00898 0.54794 0.0
O132 O 0.15348 0.99653 0.51917 0.0
O133 O 0.16365 0.96441 0.51673 0.0
O134 O 0.17845 0.03122 0.53977 0.0
O135 O 0.1914 0.00103 0.53221 0.0
O136 O 0.18478 0.96387 0.56466 0.0
O137 O 0.17525 0.99499 0.57331 0.0
C138 C 0.15473 0.97997 0.50907 0.0
C139 C 0.18369 0.97793 0.57793 0.0
C140 C 0.2177 0.87716 0.79563 0.0
C141 C 0.23288 0.92522 0.84971 0.0
O142 O 0.20665 0.88175 0.81096 0.0
Zn143 Zn 0.22458 0.90231 0.82126 0.0
O144 O 0.23471 0.88645 0.79267 0.0
Zn145 Zn 0.25234 0.91019 0.80777 0.0
O146 O 0.27718 0.89596 0.81296 0.0
O147 O 0.25065 0.88313 0.82937 0.0
O148 O 0.24711 0.92484 0.83627 0.0
O149 O 0.21671 0.91518 0.84665 0.0
O150 O 0.22223 0.92455 0.79668 0.0
O151 O 0.25391 0.93135 0.78773 0.0
C152 C 0.26975 0.88256 0.82487 0.0
C153 C 0.23494 0.93402 0.7851 0.0
C154 C 0.39681 0.00049 0.06171 0.0
C155 C 0.33116 0.98317 0.03169 0.0
O156 O 0.38494 0.01576 0.05882 0.0
Zn157 Zn 0.3553 0.02246 0.04739 0.0
O158 O 0.39058 0.98248 0.05815 0.0
Zn159 Zn 0.36333 0.99075 0.04939 0.0
O160 O 0.3724 0.00624 0.02203 0.0
O161 O 0.364 0.03891 0.02399 0.0
O162 O 0.34421 0.97084 0.03911 0.0
O163 O 0.33363 0.0024 0.03402 0.0
O164 O 0.34167 0.0349 0.07045 0.0
O165 O 0.34993 0.00283 0.07661 0.0
C166 C 0.37232 0.02421 0.01435 0.0
C167 C 0.34237 0.01984 0.08269 0.0
C168 C 0.79384 0.25438 0.93235 0.0
C169 C 0.83103 0.28419 0.87621 0.0
O170 O 0.79595 0.27296 0.92745 0.0
Zn171 Zn 0.81561 0.26955 0.90615 0.0
O172 O 0.80583 0.24103 0.92439 0.0
Zn173 Zn 0.83021 0.2418 0.90171 0.0
O174 O 0.85615 0.23691 0.91481 0.0
O175 O 0.84509 0.26815 0.91988 0.0
O176 O 0.83669 0.26559 0.87902 0.0
O177 O 0.81885 0.29251 0.88881 0.0
O178 O 0.80102 0.24819 0.88517 0.0
O179 O 0.82085 0.22081 0.88387 0.0
C180 C 0.85913 0.25465 0.92176 0.0
C181 C 0.80486 0.23027 0.87816 0.0
C182 C 0.9529 0.50932 0.18494 0.0
C183 C 0.96461 0.58224 0.195 0.0
O184 O 0.96965 0.5161 0.17757 0.0
Zn185 Zn 0.98638 0.54375 0.17445 0.0
O186 O 0.94084 0.52115 0.19466 0.0
Zn187 Zn 0.95859 0.54504 0.19164 0.0
O188 O 0.95524 0.54781 0.1592 0.0
O189 O 0.98562 0.54475 0.14479 0.0
O190 O 0.95045 0.57126 0.20239 0.0
O191 O 0.97874 0.57382 0.18434 0.0
O192 O 0.01137 0.53617 0.18809 0.0
O193 O 0.98477 0.53521 0.20878 0.0
C194 C 0.96633 0.54637 0.14312 0.0
C195 C 0.00384 0.53207 0.20552 0.0
C196 C 0.72279 0.77572 0.44789 0.0
C197 C 0.68818 0.75245 0.38744 0.0
O198 O 0.72114 0.75784 0.44086 0.0
Zn199 Zn 0.70259 0.76371 0.41927 0.0
O200 O 0.71123 0.78995 0.44078 0.0
Zn201 Zn 0.68825 0.79199 0.41677 0.0
O202 O 0.66169 0.79581 0.42921 0.0
O203 O 0.67274 0.76428 0.43252 0.0
O204 O 0.68257 0.77071 0.39191 0.0
O205 O 0.69984 0.74275 0.3995 0.0
O206 O 0.71856 0.78704 0.40159 0.0
O207 O 0.69883 0.81453 0.40124 0.0
C208 C 0.65862 0.77762 0.43502 0.0
C209 C 0.71527 0.80558 0.39599 0.0
C210 C 0.88165 0.82956 0.27065 0.0
C211 C 0.93583 0.79203 0.23761 0.0
O212 O 0.89394 0.8164 0.27785 0.0
Zn213 Zn 0.91041 0.81366 0.25428 0.0
O214 O 0.88408 0.83603 0.25224 0.0
Zn215 Zn 0.90576 0.82958 0.22734 0.0
O216 O 0.88711 0.82166 0.20647 0.0
O217 O 0.88837 0.80073 0.23299 0.0
O218 O 0.92781 0.80471 0.22495 0.0
O219 O 0.93125 0.79335 0.25634 0.0
O220 O 0.92516 0.84269 0.25362 0.0
O221 O 0.91976 0.85511 0.22295 0.0
C222 C 0.88107 0.80553 0.21543 0.0
C223 C 0.9273 0.85713 0.24058 0.0
C224 C 0.64282 0.17752 0.74898 0.0
C225 C 0.58137 0.20141 0.71644 0.0
O226 O 0.62687 0.18536 0.75674 0.0
Zn227 Zn 0.61114 0.1863 0.73253 0.0
O228 O 0.64307 0.17294 0.72993 0.0
Zn229 Zn 0.62164 0.17549 0.70461 0.0
O230 O 0.6381 0.19098 0.68593 0.0
O231 O 0.62881 0.20764 0.71377 0.0
O232 O 0.59333 0.19319 0.70319 0.0
O233 O 0.58528 0.19936 0.73524 0.0
O234 O 0.60459 0.15488 0.72786 0.0
O235 O 0.61578 0.14751 0.69713 0.0
C236 C 0.63812 0.20723 0.69646 0.0
C237 C 0.60734 0.14185 0.71362 0.0
C238 C 0.47653 0.46311 0.6594 0.0
C239 C 0.5014 0.40038 0.68964 0.0
O240 O 0.46797 0.4458 0.66061 0.0
Zn241 Zn 0.48861 0.43336 0.67665 0.0
O242 O 0.49357 0.4661 0.66864 0.0
Zn243 Zn 0.51454 0.44704 0.68726 0.0
O244 O 0.53899 0.45045 0.67227 0.0
O245 O 0.51437 0.43581 0.65479 0.0
O246 O 0.51438 0.41463 0.69258 0.0
O247 O 0.48435 0.40484 0.68183 0.0
O248 O 0.48416 0.44999 0.70502 0.0
O249 O 0.515 0.45987 0.71326 0.0
C250 C 0.53251 0.44326 0.65559 0.0
C251 C 0.49609 0.45951 0.71716 0.0
C252 C 0.03837 0.34804 0.98298 0.0
C253 C 0.04275 0.39955 0.0363 0.0
O254 O 0.03784 0.34079 0.00114 0.0
Zn255 Zn 0.04013 0.35095 0.03181 0.0
O256 O 0.04253 0.3668 0.98015 0.0
Zn257 Zn 0.04468 0.37426 0.00876 0.0
O258 O 0.07229 0.36061 0.01938 0.0
O259 O 0.06417 0.33745 0.04248 0.0
O260 O 0.04539 0.40272 0.01729 0.0
O261 O 0.04158 0.38126 0.04307 0.0
O262 O 0.01232 0.34438 0.04142 0.0
O263 O 0.01415 0.36833 0.01755 0.0
C264 C 0.07772 0.34677 0.03216 0.0
C265 C 0.00361 0.3572 0.0296 0.0
C266 C 0.41068 0.65786 0.48081 0.0
C267 C 0.4676 0.61555 0.45966 0.0
O268 O 0.41414 0.64913 0.46395 0.0
Zn269 Zn 0.44096 0.63872 0.46991 0.0
O270 O 0.42475 0.65814 0.49433 0.0
Zn271 Zn 0.45527 0.64604 0.49666 0.0
O272 O 0.47278 0.66873 0.49866 0.0
O273 O 0.4623 0.66426 0.46723 0.0
O274 O 0.47131 0.62398 0.47696 0.0
O275 O 0.45143 0.62027 0.45013 0.0
O276 O 0.436 0.61766 0.49596 0.0
O277 O 0.45317 0.63143 0.5213 0.0
C278 C 0.47336 0.67395 0.4801 0.0
C279 C 0.44183 0.61734 0.51469 0.0
C280 C 0.62108 0.4817 0.4168 0.0
C281 C 0.68665 0.46995 0.45017 0.0
O282 O 0.62929 0.49767 0.42425 0.0
Zn283 Zn 0.65606 0.50675 0.43989 0.0
O284 O 0.63023 0.46455 0.41775 0.0
Zn285 Zn 0.65449 0.47494 0.43146 0.0
O286 O 0.64108 0.48273 0.45998 0.0
O287 O 0.64412 0.51569 0.46586 0.0
O288 O 0.67627 0.4568 0.44053 0.0
O289 O 0.68078 0.48859 0.45041 0.0
O290 O 0.66802 0.52589 0.42079 0.0
O291 O 0.66775 0.49446 0.40884 0.0
C292 C 0.63785 0.49815 0.47146 0.0
C293 C 0.67181 0.51344 0.40642 0.0
C294 C 0.79404 0.39869 0.70288 0.0
C295 C 0.76991 0.43966 0.64614 0.0
O296 O 0.80367 0.40393 0.68683 0.0
Zn297 Zn 0.78237 0.42096 0.67632 0.0
O298 O 0.77584 0.40547 0.70602 0.0
Zn299 Zn 0.75423 0.42548 0.69002 0.0
O300 O 0.73179 0.40754 0.68755 0.0
O301 O 0.75916 0.39752 0.67048 0.0
O302 O 0.75591 0.43779 0.65971 0.0
O303 O 0.78778 0.43348 0.65017 0.0
O304 O 0.78221 0.4444 0.69972 0.0
O305 O 0.75 0.4476 0.70861 0.0
C306 C 0.74057 0.39455 0.67616 0.0
C307 C 0.76845 0.45268 0.71102 0.0
C308 C 0.86862 0.49375 0.94813 0.0
C309 C 0.80795 0.53368 0.96576 0.0
O310 O 0.8523 0.48327 0.95 0.0
Zn311 Zn 0.82086 0.48728 0.95672 0.0
O312 O 0.86775 0.51314 0.949 0.0
Zn313 Zn 0.83837 0.515 0.95391 0.0
O314 O 0.83825 0.50095 0.98314 0.0
O315 O 0.82067 0.47223 0.9828 0.0
O316 O 0.82523 0.54077 0.96046 0.0
O317 O 0.80469 0.51445 0.96462 0.0
O318 O 0.80744 0.47713 0.93249 0.0
O319 O 0.82489 0.50513 0.92606 0.0
C320 C 0.83161 0.48507 0.99231 0.0
C321 C 0.81352 0.49056 0.91983 0.0
C322 C 0.7015 0.64653 0.20317 0.0
C323 C 0.71622 0.60425 0.14386 0.0
O324 O 0.69003 0.64347 0.18788 0.0
Zn325 Zn 0.70814 0.62441 0.1746 0.0
O326 O 0.71879 0.63727 0.20438 0.0
Zn327 Zn 0.73647 0.61562 0.18633 0.0
O328 O 0.76078 0.63066 0.18164 0.0
O329 O 0.73355 0.64472 0.1676 0.0
O330 O 0.7307 0.60361 0.15688 0.0
O331 O 0.69995 0.61385 0.14824 0.0
O332 O 0.70701 0.59962 0.19674 0.0
O333 O 0.73904 0.59265 0.20414 0.0
C334 C 0.75276 0.64509 0.17144 0.0
C335 C 0.72021 0.58928 0.20695 0.0
H336 H 0.29065 0.34647 0.14787 0.0
H337 H 0.26469 0.35698 0.17292 0.0
H338 H 0.23841 0.29685 0.17108 0.0
H339 H 0.26402 0.28625 0.14621 0.0
H340 H 0.2202 0.35487 0.1672 0.0
H341 H 0.24739 0.30899 0.23292 0.0
H342 H 0.26362 0.31556 0.21154 0.0
H343 H 0.24595 0.29475 0.20963 0.0
C344 C 0.27942 0.33546 0.15294 0.0
C345 C 0.2794 0.31552 0.14508 0.0
C346 C 0.26462 0.3415 0.16719 0.0
C347 C 0.24986 0.32759 0.17399 0.0
C348 C 0.24989 0.3077 0.16624 0.0
H349 H 0.13054 0.32109 0.21598 0.0
H350 H 0.16204 0.32737 0.19715 0.0
C351 C 0.26449 0.30172 0.15194 0.0
C352 C 0.2337 0.33373 0.18852 0.0
H353 H 0.21215 0.31933 0.2337 0.0
C354 C 0.21861 0.34748 0.18196 0.0
C355 C 0.23186 0.32431 0.20785 0.0
C356 C 0.24817 0.31022 0.21603 0.0
C357 C 0.20092 0.35086 0.19364 0.0
C358 C 0.19827 0.34003 0.21216 0.0
C359 C 0.2141 0.32751 0.21941 0.0
C360 C 0.17842 0.33941 0.22302 0.0
C361 C 0.18496 0.3655 0.18575 0.0
C362 C 0.17712 0.34412 0.24385 0.0
C363 C 0.15909 0.34043 0.25473 0.0
C364 C 0.14217 0.33172 0.24499 0.0
C365 C 0.14329 0.3278 0.22395 0.0
C366 C 0.16125 0.33156 0.2131 0.0
H367 H 0.19191 0.37742 0.17586 0.0
H368 H 0.1738 0.35699 0.17642 0.0
H369 H 0.17662 0.37303 0.19845 0.0
H370 H 0.19027 0.35002 0.25182 0.0
H371 H 0.15874 0.34359 0.27093 0.0
H372 H 0.93226 0.89146 0.49445 0.0
H373 H 0.9474 0.91891 0.47424 0.0
H374 H 0.99509 0.92514 0.51881 0.0
H375 H 0.97986 0.8978 0.53915 0.0
H376 H 0.98734 0.96153 0.49707 0.0
H377 H 0.99832 0.89616 0.44557 0.0
H378 H 0.97167 0.90188 0.44828 0.0
H379 H 0.98603 0.89349 0.47011 0.0
C380 C 0.94529 0.89951 0.50052 0.0
C381 C 0.955 0.89239 0.51824 0.0
C382 C 0.95415 0.91496 0.48879 0.0
C383 C 0.973 0.92326 0.49447 0.0
C384 C 0.98094 0.91846 0.51377 0.0
H385 H 0.04654 0.00374 0.41273 0.0
H386 H 0.04082 0.97947 0.441 0.0
C387 C 0.97195 0.90309 0.52564 0.0
C388 C 0.98556 0.93428 0.47907 0.0
H389 H 0.00444 0.92951 0.43066 0.0
C390 C 0.9914 0.95449 0.48266 0.0
C391 C 0.99129 0.92489 0.46045 0.0
C392 C 0.98668 0.90283 0.45599 0.0
C393 C 0.00123 0.96608 0.46741 0.0
C394 C 0.00558 0.9571 0.44824 0.0
C395 C 0.00105 0.93646 0.44529 0.0
C396 C 0.01135 0.96951 0.43005 0.0
C397 C 0.0054 0.98827 0.47134 0.0
C398 C 0.99743 0.971 0.41391 0.0
C399 C 0.00078 0.9846 0.39787 0.0
C400 C 0.01825 0.9969 0.39744 0.0
C401 C 0.03309 0.99425 0.41264 0.0
C402 C 0.02964 0.98065 0.42893 0.0
H403 H 0.99957 0.99333 0.48644 0.0
H404 H 0.02209 0.99103 0.4708 0.0
H405 H 0.99808 0.99768 0.45928 0.0
H406 H 0.98328 0.96249 0.41433 0.0
H407 H 0.98899 0.98651 0.38646 0.0
H408 H 0.26317 0.70245 0.62723 0.0
H409 H 0.29158 0.69265 0.64924 0.0
H410 H 0.25293 0.64977 0.68086 0.0
H411 H 0.22431 0.65933 0.65865 0.0
H412 H 0.27576 0.68115 0.70551 0.0
H413 H 0.32446 0.63668 0.65218 0.0
H414 H 0.3141 0.66005 0.64203 0.0
H415 H 0.29722 0.63959 0.64883 0.0
C416 C 0.26073 0.69077 0.63871 0.0
C417 C 0.24149 0.68168 0.64124 0.0
C418 C 0.27701 0.68512 0.65119 0.0
C419 C 0.27435 0.67038 0.66651 0.0
C420 C 0.25527 0.66106 0.66898 0.0
H421 H 0.36402 0.65619 0.76589 0.0
H422 H 0.33353 0.6497 0.74542 0.0
C423 C 0.23898 0.66652 0.65628 0.0
C424 C 0.29123 0.66608 0.68079 0.0
H425 H 0.34048 0.64914 0.68225 0.0
C426 C 0.2898 0.67378 0.70066 0.0
C427 C 0.30945 0.65653 0.67427 0.0
C428 C 0.31145 0.64756 0.65321 0.0
C429 C 0.30667 0.67341 0.71381 0.0
C430 C 0.32524 0.66457 0.707 0.0
C431 C 0.32625 0.65589 0.68746 0.0
C432 C 0.34435 0.66629 0.71891 0.0
C433 C 0.3048 0.68368 0.7343 0.0
C434 C 0.36093 0.67689 0.71048 0.0
C435 C 0.37842 0.68035 0.72197 0.0
C436 C 0.3797 0.67334 0.74223 0.0
C437 C 0.36343 0.66195 0.7504 0.0
C438 C 0.34595 0.65834 0.73878 0.0
H439 H 0.29089 0.69337 0.73539 0.0
H440 H 0.30391 0.67188 0.74644 0.0
H441 H 0.31832 0.69335 0.73732 0.0
H442 H 0.36008 0.68311 0.69516 0.0
H443 H 0.39067 0.68911 0.71515 0.0
H444 H 0.53207 0.16952 0.90515 0.0
H445 H 0.52315 0.14463 0.87933 0.0
H446 H 0.55351 0.09744 0.91394 0.0
H447 H 0.5619 0.12228 0.94046 0.0
H448 H 0.5429 0.11983 0.85446 0.0
H449 H 0.49703 0.07411 0.90895 0.0
H450 H 0.50722 0.09876 0.91539 0.0
H451 H 0.52314 0.07633 0.91669 0.0
C452 C 0.53707 0.15389 0.90727 0.0
C453 C 0.54747 0.14784 0.92507 0.0
C454 C 0.53193 0.13966 0.89242 0.0
C455 C 0.53714 0.11906 0.89495 0.0
C456 C 0.54878 0.11317 0.91198 0.0
H457 H 0.54118 0.02126 0.81282 0.0
H458 H 0.54477 0.05489 0.82774 0.0
C459 C 0.55379 0.12742 0.92701 0.0
C460 C 0.52972 0.1038 0.88006 0.0
H461 H 0.50342 0.05919 0.87647 0.0
C462 C 0.53413 0.10664 0.85925 0.0
C463 C 0.51764 0.08698 0.88617 0.0
C464 C 0.51077 0.08395 0.90798 0.0
C465 C 0.52762 0.09261 0.84453 0.0
C466 C 0.51688 0.07498 0.85086 0.0
C467 C 0.5117 0.07265 0.87155 0.0
C468 C 0.5131 0.05754 0.837 0.0
C469 C 0.53237 0.09686 0.82239 0.0
C470 C 0.4939 0.04796 0.8365 0.0
C471 C 0.49186 0.02851 0.82798 0.0
C472 C 0.50904 0.01844 0.82001 0.0
C473 C 0.52767 0.02887 0.81869 0.0
C474 C 0.52971 0.04818 0.82719 0.0
H475 H 0.53262 0.11354 0.8193 0.0
H476 H 0.54776 0.09075 0.81869 0.0
H477 H 0.52108 0.08968 0.81211 0.0
H478 H 0.48088 0.05487 0.84406 0.0
H479 H 0.47745 0.02059 0.8295 0.0
H480 H 0.21408 0.13269 0.31174 0.0
H481 H 0.19423 0.16331 0.31882 0.0
H482 H 0.2437 0.18718 0.35462 0.0
H483 H 0.26405 0.15663 0.34711 0.0
H484 H 0.18069 0.18172 0.35383 0.0
H485 H 0.2356 0.23161 0.31207 0.0
H486 H 0.23709 0.20417 0.31095 0.0
H487 H 0.24562 0.21738 0.33327 0.0
C488 C 0.22075 0.14433 0.32126 0.0
C489 C 0.24076 0.14233 0.32864 0.0
C490 C 0.20933 0.16183 0.32535 0.0
C491 C 0.21761 0.17767 0.33695 0.0
C492 C 0.23719 0.17532 0.34526 0.0
H493 H 0.15335 0.29688 0.33977 0.0
H494 H 0.1766 0.26973 0.35154 0.0
C495 C 0.24874 0.15781 0.34104 0.0
C496 C 0.2059 0.19692 0.33913 0.0
H497 H 0.20469 0.24634 0.32244 0.0
C498 C 0.18609 0.19596 0.34733 0.0
C499 C 0.213 0.21552 0.33067 0.0
C500 C 0.23392 0.21734 0.3211 0.0
C501 C 0.17279 0.21273 0.34621 0.0
C502 C 0.1795 0.23085 0.33667 0.0
C503 C 0.19972 0.23235 0.32979 0.0
C504 C 0.16498 0.24706 0.33078 0.0
C505 C 0.15132 0.21068 0.35432 0.0
C506 C 0.15103 0.24323 0.31515 0.0
C507 C 0.13806 0.25863 0.30824 0.0
C508 C 0.1387 0.27817 0.31693 0.0
C509 C 0.15251 0.28194 0.33283 0.0
C510 C 0.16575 0.26651 0.33957 0.0
H511 H 0.15009 0.19808 0.36564 0.0
H512 H 0.14613 0.22511 0.36153 0.0
H513 H 0.14089 0.20731 0.34149 0.0
H514 H 0.15042 0.22836 0.30803 0.0
H515 H 0.1275 0.25518 0.29607 0.0
H516 H 0.01074 0.86695 0.47158 0.0
H517 H 0.03368 0.89631 0.47554 0.0
H518 H 0.05229 0.87296 0.53425 0.0
H519 H 0.02937 0.84426 0.53045 0.0
H520 H 0.0277 0.9241 0.5053 0.0
H521 H 0.10556 0.89407 0.51304 0.0
H522 H 0.08534 0.87928 0.50183 0.0
H523 H 0.08892 0.87946 0.5291 0.0
C524 C 0.0204 0.86776 0.48489 0.0
C525 C 0.01814 0.85354 0.50081 0.0
C526 C 0.03339 0.88457 0.48722 0.0
C527 C 0.04477 0.88688 0.50521 0.0
C528 C 0.04403 0.87144 0.52007 0.0
H529 H 0.11044 0.96535 0.58154 0.0
H530 H 0.08596 0.94106 0.56794 0.0
C531 C 0.03091 0.85494 0.51788 0.0
C532 C 0.05497 0.90643 0.51027 0.0
H533 H 0.09794 0.92458 0.53282 0.0
C534 C 0.04306 0.92429 0.51127 0.0
C535 C 0.07529 0.90691 0.51735 0.0
C536 C 0.08954 0.88892 0.51503 0.0
C537 C 0.05018 0.94193 0.52111 0.0
C538 C 0.06996 0.94177 0.52973 0.0
C539 C 0.08245 0.92448 0.52706 0.0
C540 C 0.07857 0.95922 0.54131 0.0
C541 C 0.0361 0.9601 0.52292 0.0
C542 C 0.08103 0.97838 0.53202 0.0
C543 C 0.0947 0.99257 0.54012 0.0
C544 C 0.10628 0.98757 0.55744 0.0
C545 C 0.10153 0.9697 0.56831 0.0
C546 C 0.0878 0.95563 0.56031 0.0
H547 H 0.01984 0.95558 0.52165 0.0
H548 H 0.03823 0.96813 0.53762 0.0
H549 H 0.03942 0.97095 0.51031 0.0
H550 H 0.07405 0.98147 0.51745 0.0
H551 H 0.09835 0.00602 0.53119 0.0
H552 H 0.25754 0.84788 0.84474 0.0
H553 H 0.27777 0.81695 0.85051 0.0
H554 H 0.33081 0.84682 0.82544 0.0
H555 H 0.31085 0.87777 0.8198 0.0
H556 H 0.29501 0.79643 0.8183 0.0
H557 H 0.35471 0.81622 0.8741 0.0
H558 H 0.33164 0.83112 0.87108 0.0
H559 H 0.35287 0.83472 0.85394 0.0
C560 C 0.27364 0.84805 0.84096 0.0
C561 C 0.28256 0.86523 0.83166 0.0
C562 C 0.28517 0.83036 0.84427 0.0
C563 C 0.30582 0.82966 0.83858 0.0
C564 C 0.31501 0.84716 0.83034 0.0
H565 H 0.38172 0.74259 0.78359 0.0
H566 H 0.35846 0.76974 0.79424 0.0
C567 C 0.30351 0.8648 0.82696 0.0
C568 C 0.31704 0.81004 0.83836 0.0
H569 H 0.36246 0.78806 0.85146 0.0
C570 C 0.30954 0.79441 0.82593 0.0
C571 C 0.33592 0.80738 0.84841 0.0
C572 C 0.34416 0.82319 0.8628 0.0
C573 C 0.32106 0.77676 0.82223 0.0
C574 C 0.34059 0.77481 0.83105 0.0
C575 C 0.34754 0.78977 0.84455 0.0
C576 C 0.35463 0.75824 0.82498 0.0
C577 C 0.31257 0.76061 0.80834 0.0
C578 C 0.36033 0.743 0.83889 0.0
C579 C 0.37359 0.72735 0.83283 0.0
C580 C 0.38151 0.72694 0.81285 0.0
C581 C 0.37589 0.74244 0.79907 0.0
C582 C 0.36255 0.75792 0.80509 0.0
H583 H 0.29572 0.76185 0.80698 0.0
H584 H 0.31931 0.76248 0.79289 0.0
H585 H 0.31655 0.7451 0.81397 0.0
H586 H 0.35441 0.74312 0.85434 0.0
H587 H 0.37772 0.71568 0.84382 0.0
H588 H 0.42737 0.98875 0.03652 0.0
H589 H 0.45615 0.01086 0.02835 0.0
H590 H 0.44314 0.04699 0.08166 0.0
H591 H 0.41407 0.02516 0.08959 0.0
H592 H 0.4379 0.06829 0.04699 0.0
H593 H 0.51278 0.02875 0.04364 0.0
H594 H 0.49304 0.01589 0.0299 0.0
H595 H 0.49114 0.01827 0.05716 0.0
C596 C 0.4315 0.00056 0.04725 0.0
C597 C 0.41855 0.00528 0.0637 0.0
C598 C 0.44785 0.01339 0.0424 0.0
C599 C 0.45159 0.03082 0.05416 0.0
C600 C 0.44043 0.03373 0.07226 0.0
H601 H 0.53884 0.12626 0.03353 0.0
H602 H 0.51854 0.09763 0.0456 0.0
C603 C 0.424 0.02106 0.07698 0.0
C604 C 0.46379 0.04792 0.04567 0.0
H605 H 0.51058 0.06118 0.02693 0.0
C606 C 0.45387 0.06677 0.04279 0.0
C607 C 0.48449 0.04585 0.0399 0.0
C608 C 0.49606 0.02615 0.04296 0.0
C609 C 0.46412 0.08368 0.03464 0.0
C610 C 0.48477 0.0816 0.02869 0.0
C611 C 0.49468 0.0627 0.03137 0.0
C612 C 0.49674 0.09919 0.02097 0.0
C613 C 0.45286 0.10376 0.03298 0.0
C614 C 0.49116 0.10974 0.0031 0.0
C615 C 0.50268 0.1264 0.99621 0.0
C616 C 0.52011 0.13255 0.00695 0.0
C617 C 0.52554 0.12193 0.02484 0.0
C618 C 0.514 0.10547 0.03175 0.0
H619 H 0.43886 0.10399 0.04261 0.0
H620 H 0.46277 0.11663 0.03758 0.0
H621 H 0.44821 0.10627 0.01692 0.0
H622 H 0.47806 0.10494 0.99436 0.0
H623 H 0.49826 0.13412 0.98226 0.0
H624 H 0.98999 0.04478 0.44031 0.0
H625 H 0.0155 0.02855 0.46198 0.0
H626 H 0.05973 0.07334 0.44356 0.0
H627 H 0.03415 0.09001 0.4223 0.0
H628 H 0.06559 0.03298 0.4271 0.0
H629 H 0.05471 0.03098 0.51127 0.0
H630 H 0.03234 0.02693 0.49604 0.0
H631 H 0.0446 0.05135 0.49554 0.0
C632 C 0.00461 0.0522 0.44216 0.0
C633 C 0.01031 0.06828 0.42915 0.0
C634 C 0.01936 0.04256 0.45426 0.0
C635 C 0.03966 0.04923 0.45371 0.0
C636 C 0.0442 0.06774 0.44395 0.0
H637 H 0.15798 0.00329 0.4754 0.0
H638 H 0.12811 0.01674 0.45792 0.0
C639 C 0.02942 0.0775 0.43207 0.0
C640 C 0.05644 0.03481 0.45867 0.0
H641 H 0.07991 0.00934 0.49735 0.0
C642 C 0.06862 0.02763 0.44248 0.0
C643 C 0.06009 0.02757 0.4786 0.0
C644 C 0.04737 0.03465 0.49644 0.0
C645 C 0.08442 0.01348 0.44571 0.0
C646 C 0.08867 0.00685 0.46577 0.0
C647 C 0.07633 0.01389 0.48192 0.0
C648 C 0.10718 0.99468 0.47083 0.0
C649 C 0.0964 0.00578 0.4276 0.0
C650 C 0.10569 0.97691 0.4828 0.0
C651 C 0.12294 0.96908 0.49274 0.0
C652 C 0.14179 0.97906 0.4909 0.0
C653 C 0.14373 0.99505 0.47671 0.0
C654 C 0.12654 0.0029 0.46687 0.0
H655 H 0.08713 0.00638 0.41345 0.0
H656 H 0.10993 0.01563 0.4252 0.0
H657 H 0.10175 0.98986 0.43004 0.0
H658 H 0.09092 0.97018 0.48589 0.0
H659 H 0.12089 0.95706 0.50396 0.0
H660 H 0.19997 0.78217 0.63621 0.0
H661 H 0.19717 0.80212 0.66739 0.0
H662 H 0.17577 0.74907 0.70004 0.0
H663 H 0.17874 0.72879 0.66882 0.0
H664 H 0.16418 0.80986 0.69511 0.0
H665 H 0.22836 0.76629 0.73025 0.0
H666 H 0.22274 0.76484 0.70338 0.0
H667 H 0.2068 0.7519 0.72156 0.0
C668 C 0.19446 0.77474 0.64994 0.0
C669 C 0.18982 0.75383 0.65009 0.0
C670 C 0.19279 0.7862 0.66773 0.0
C671 C 0.18651 0.77699 0.68603 0.0
C672 C 0.18089 0.75636 0.68609 0.0
H673 H 0.18174 0.85575 0.79535 0.0
H674 H 0.17136 0.82964 0.7708 0.0
C675 C 0.18254 0.74484 0.66823 0.0
C676 C 0.18742 0.78885 0.70512 0.0
H677 H 0.21631 0.79497 0.74782 0.0
C678 C 0.17528 0.80645 0.70688 0.0
C679 C 0.20206 0.78434 0.72029 0.0
C680 C 0.21587 0.76591 0.71885 0.0
C681 C 0.17801 0.82017 0.723 0.0
C682 C 0.19316 0.81602 0.73773 0.0
C683 C 0.20464 0.79797 0.73649 0.0
C684 C 0.19915 0.83138 0.75297 0.0
C685 C 0.16556 0.83957 0.72355 0.0
C686 C 0.21827 0.84071 0.75115 0.0
C687 C 0.22423 0.85554 0.76504 0.0
C688 C 0.2112 0.86126 0.78114 0.0
C689 C 0.19209 0.85171 0.78309 0.0
C690 C 0.18611 0.83686 0.76907 0.0
H691 H 0.15604 0.84153 0.70969 0.0
H692 H 0.15532 0.83931 0.73707 0.0
H693 H 0.17572 0.85299 0.725 0.0
H694 H 0.22853 0.83665 0.73879 0.0
H695 H 0.23907 0.86252 0.76311 0.0
H696 H 0.36929 0.00342 0.97918 0.0
H697 H 0.39611 0.9998 0.95341 0.0
H698 H 0.43114 0.04659 0.98305 0.0
H699 H 0.40404 0.05038 0.00887 0.0
H700 H 0.41878 0.02778 0.92614 0.0
H701 H 0.46558 0.99267 0.988 0.0
H702 H 0.43856 0.9972 0.99115 0.0
H703 H 0.45601 0.01821 0.99143 0.0
C704 C 0.38229 0.01357 0.97963 0.0
C705 C 0.38452 0.02738 0.99575 0.0
C706 C 0.39767 0.0114 0.96502 0.0
C707 C 0.41571 0.02272 0.9665 0.0
C708 C 0.41736 0.03764 0.98172 0.0
H709 H 0.52547 0.98297 0.89823 0.0
H710 H 0.50403 0.00038 0.92368 0.0
C711 C 0.40177 0.04002 0.99626 0.0
C712 C 0.43333 0.01692 0.95348 0.0
H713 H 0.47715 0.98844 0.95438 0.0
C714 C 0.43174 0.0195 0.93232 0.0
C715 C 0.45031 0.00626 0.9616 0.0
C716 C 0.45283 0.00325 0.98428 0.0
C717 C 0.44623 0.01096 0.919 0.0
C718 C 0.46232 0.99891 0.92704 0.0
C719 C 0.46463 0.9974 0.94825 0.0
C720 C 0.47586 0.98665 0.91358 0.0
C721 C 0.44396 0.01467 0.89639 0.0
C722 C 0.46732 0.97228 0.90037 0.0
C723 C 0.47946 0.96237 0.88593 0.0
C724 C 0.50047 0.96637 0.88463 0.0
C725 C 0.50935 0.97944 0.89902 0.0
C726 C 0.49709 0.98955 0.9134 0.0
H727 H 0.43556 0.02911 0.89329 0.0
H728 H 0.45905 0.01538 0.88865 0.0
H729 H 0.4351 0.00202 0.88961 0.0
H730 H 0.45108 0.9693 0.90069 0.0
H731 H 0.47222 0.95231 0.8751 0.0
H732 H 0.34386 0.1442 0.28834 0.0
H733 H 0.35491 0.16853 0.26194 0.0
H734 H 0.29503 0.16671 0.23507 0.0
H735 H 0.2839 0.14249 0.26109 0.0
H736 H 0.35193 0.16225 0.21628 0.0
H737 H 0.30859 0.22889 0.24568 0.0
H738 H 0.31554 0.20736 0.26156 0.0
H739 H 0.29415 0.20566 0.24459 0.0
C740 C 0.33305 0.14904 0.27683 0.0
C741 C 0.31299 0.14145 0.27683 0.0
C742 C 0.3394 0.16288 0.26179 0.0
C743 C 0.32569 0.1695 0.24677 0.0
C744 C 0.30574 0.16192 0.24671 0.0
H745 H 0.31864 0.21574 0.12873 0.0
H746 H 0.32476 0.19534 0.15927 0.0
C747 C 0.29944 0.14802 0.26156 0.0
C748 C 0.33197 0.18406 0.23073 0.0
H749 H 0.31901 0.23033 0.21068 0.0
C750 C 0.34512 0.17733 0.2152 0.0
C751 C 0.32327 0.20377 0.22957 0.0
C752 C 0.30973 0.21199 0.24633 0.0
C753 C 0.34865 0.18934 0.19777 0.0
C754 C 0.33858 0.20837 0.19585 0.0
C755 C 0.32662 0.21567 0.21209 0.0
C756 C 0.33824 0.21995 0.17643 0.0
C757 C 0.36263 0.1813 0.18131 0.0
C758 C 0.34387 0.24057 0.17587 0.0
C759 C 0.34027 0.25235 0.15842 0.0
C760 C 0.33075 0.24373 0.14132 0.0
C761 C 0.32599 0.22285 0.14163 0.0
C762 C 0.32964 0.2111 0.15904 0.0
H763 H 0.37416 0.17059 0.1877 0.0
H764 H 0.35349 0.17281 0.16998 0.0
H765 H 0.37066 0.19389 0.17329 0.0
H766 H 0.35037 0.24772 0.18921 0.0
H767 H 0.34411 0.2684 0.15869 0.0
H768 H 0.77666 0.38323 0.73736 0.0
H769 H 0.79238 0.3612 0.76291 0.0
H770 H 0.84869 0.36098 0.72864 0.0
H771 H 0.83307 0.38325 0.7028 0.0
H772 H 0.81161 0.32125 0.75556 0.0
H773 H 0.86352 0.3796 0.78848 0.0
H774 H 0.84142 0.38678 0.77369 0.0
H775 H 0.86327 0.37586 0.76126 0.0
C776 C 0.79239 0.37854 0.73517 0.0
C777 C 0.80363 0.38504 0.71807 0.0
C778 C 0.80132 0.36591 0.74978 0.0
C779 C 0.82167 0.35961 0.74765 0.0
C780 C 0.83299 0.36587 0.73056 0.0
H781 H 0.85208 0.26954 0.84305 0.0
H782 H 0.85639 0.28655 0.80995 0.0
C783 C 0.82402 0.37851 0.71584 0.0
C784 C 0.83068 0.34653 0.76363 0.0
H785 H 0.85962 0.34893 0.80665 0.0
C786 C 0.82251 0.32701 0.76651 0.0
C787 C 0.84485 0.35427 0.77778 0.0
C788 C 0.85382 0.37529 0.77534 0.0
C789 C 0.82702 0.31551 0.78399 0.0
C790 C 0.84031 0.32372 0.79877 0.0
C791 C 0.84956 0.34268 0.79519 0.0
C792 C 0.84174 0.31462 0.81938 0.0
C793 C 0.81624 0.29544 0.78725 0.0
C794 C 0.8331 0.32521 0.83584 0.0
C795 C 0.83072 0.31564 0.8547 0.0
C796 C 0.83693 0.29528 0.85745 0.0
C797 C 0.84698 0.28519 0.84136 0.0
C798 C 0.84939 0.29483 0.82243 0.0
H799 H 0.80438 0.29264 0.77554 0.0
H800 H 0.82752 0.2828 0.78651 0.0
H801 H 0.80888 0.295 0.80253 0.0
H802 H 0.82714 0.34052 0.8338 0.0
H803 H 0.82313 0.32393 0.86684 0.0
H804 H 0.93017 0.5614 0.12961 0.0
H805 H 0.90781 0.54539 0.10466 0.0
H806 H 0.95521 0.50196 0.09001 0.0
H807 H 0.97792 0.51842 0.11452 0.0
H808 H 0.93316 0.51278 0.05639 0.0
H809 H 0.88056 0.49209 0.11911 0.0
H810 H 0.88407 0.51917 0.11764 0.0
H811 H 0.90539 0.50285 0.12366 0.0
C812 C 0.93607 0.5489 0.12053 0.0
C813 C 0.95582 0.54125 0.12394 0.0
C814 C 0.92316 0.53953 0.10654 0.0
C815 C 0.92955 0.522 0.09602 0.0
C816 C 0.94985 0.51532 0.09812 0.0
H817 H 0.85782 0.45524 0.00446 0.0
H818 H 0.88217 0.45901 0.03257 0.0
C819 C 0.96292 0.52491 0.11196 0.0
C820 C 0.91473 0.51037 0.08351 0.0
H821 H 0.867 0.48953 0.08513 0.0
C822 C 0.91884 0.50738 0.06271 0.0
C823 C 0.89616 0.50298 0.09185 0.0
C824 C 0.89137 0.50423 0.11434 0.0
C825 C 0.9043 0.49855 0.04977 0.0
C826 C 0.88523 0.49231 0.05792 0.0
C827 C 0.88157 0.49434 0.0789 0.0
C828 C 0.86803 0.48639 0.04451 0.0
C829 C 0.90905 0.49694 0.02729 0.0
C830 C 0.85106 0.49943 0.04305 0.0
C831 C 0.837 0.49705 0.02732 0.0
C832 C 0.83953 0.48146 0.01293 0.0
C833 C 0.85522 0.46705 0.01569 0.0
C834 C 0.86939 0.46947 0.03147 0.0
H835 H 0.92311 0.50536 0.02298 0.0
H836 H 0.91131 0.48066 0.0233 0.0
H837 H 0.89617 0.50294 0.01804 0.0
H838 H 0.84965 0.51254 0.05299 0.0
H839 H 0.82532 0.50862 0.02521 0.0
H840 H 0.69613 0.71378 0.37441 0.0
H841 H 0.69005 0.69969 0.34065 0.0
H842 H 0.66073 0.75575 0.32213 0.0
H843 H 0.66698 0.77019 0.35597 0.0
H844 H 0.65406 0.69428 0.31685 0.0
H845 H 0.70912 0.74898 0.28192 0.0
H846 H 0.70746 0.74513 0.30913 0.0
H847 H 0.68805 0.75947 0.29613 0.0
C848 C 0.68819 0.7231 0.36327 0.0
C849 C 0.68227 0.74321 0.3678 0.0
C850 C 0.68465 0.71497 0.344 0.0
C851 C 0.67517 0.72677 0.32886 0.0
C852 C 0.66831 0.74651 0.33357 0.0
H853 H 0.66425 0.66523 0.209 0.0
H854 H 0.65407 0.68719 0.23763 0.0
C855 C 0.67184 0.75469 0.35291 0.0
C856 C 0.67407 0.71869 0.30786 0.0
H857 H 0.69745 0.72241 0.26139 0.0
C858 C 0.66315 0.70064 0.30453 0.0
C859 C 0.68608 0.72704 0.29193 0.0
C860 C 0.69847 0.74615 0.29484 0.0
C861 C 0.6648 0.6901 0.286 0.0
C862 C 0.6776 0.69794 0.27046 0.0
C863 C 0.68758 0.71657 0.27336 0.0
C864 C 0.68341 0.68554 0.25257 0.0
C865 C 0.654 0.66998 0.28362 0.0
C866 C 0.70329 0.67769 0.25143 0.0
C867 C 0.70911 0.66522 0.23526 0.0
C868 C 0.69518 0.66041 0.21978 0.0
C869 C 0.67531 0.66864 0.22071 0.0
C870 C 0.66946 0.68111 0.23705 0.0
H871 H 0.64594 0.66524 0.2978 0.0
H872 H 0.64265 0.67122 0.27116 0.0
H873 H 0.66512 0.65788 0.27936 0.0
H874 H 0.71426 0.68095 0.26329 0.0
H875 H 0.72455 0.65925 0.235 0.0
H876 H 0.73938 0.68174 0.15627 0.0
H877 H 0.75899 0.71334 0.15352 0.0
H878 H 0.81321 0.6811 0.17259 0.0
H879 H 0.79392 0.64956 0.17509 0.0
H880 H 0.77619 0.73013 0.18675 0.0
H881 H 0.83607 0.71799 0.12863 0.0
H882 H 0.81348 0.70232 0.13012 0.0
H883 H 0.83517 0.69691 0.1461 0.0
C884 C 0.75561 0.68127 0.1593 0.0
C885 C 0.76507 0.66319 0.16608 0.0
C886 C 0.76678 0.69934 0.15771 0.0
C887 C 0.7876 0.69954 0.16264 0.0
C888 C 0.79728 0.68124 0.16824 0.0
H889 H 0.8619 0.7728 0.23241 0.0
H890 H 0.83717 0.75029 0.21651 0.0
C891 C 0.78616 0.66323 0.16987 0.0
C892 C 0.79854 0.71906 0.16519 0.0
H893 H 0.84459 0.74152 0.15615 0.0
C894 C 0.7909 0.73291 0.17963 0.0
C895 C 0.8176 0.72285 0.15575 0.0
C896 C 0.82593 0.7093 0.13912 0.0
C897 C 0.80259 0.74948 0.18613 0.0
C898 C 0.82247 0.75205 0.17816 0.0
C899 C 0.82943 0.73928 0.16247 0.0
C900 C 0.83701 0.76631 0.18759 0.0
C901 C 0.79391 0.76358 0.20212 0.0
C902 C 0.84537 0.78255 0.17642 0.0
C903 C 0.85956 0.79552 0.1855 0.0
C904 C 0.86578 0.79221 0.20577 0.0
C905 C 0.85742 0.77581 0.2168 0.0
C906 C 0.84319 0.76299 0.20778 0.0
H907 H 0.77696 0.76352 0.20201 0.0
H908 H 0.79899 0.75837 0.21741 0.0
H909 H 0.7993 0.77946 0.19976 0.0
H910 H 0.84088 0.7852 0.16075 0.0
H911 H 0.8658 0.80798 0.17658 0.0
H912 H 0.63356 0.24611 0.71021 0.0
H913 H 0.65164 0.27658 0.69869 0.0
H914 H 0.68487 0.24081 0.65454 0.0
H915 H 0.66662 0.21009 0.66583 0.0
H916 H 0.70841 0.26797 0.68387 0.0
H917 H 0.64643 0.30706 0.64121 0.0
H918 H 0.6392 0.29629 0.66546 0.0
H919 H 0.6471 0.27974 0.64513 0.0
C920 C 0.64463 0.24469 0.69798 0.0
C921 C 0.6487 0.22568 0.68896 0.0
C922 C 0.65484 0.26213 0.69134 0.0
C923 C 0.66939 0.2609 0.67566 0.0
C924 C 0.67354 0.24201 0.66655 0.0
H925 H 0.75453 0.36268 0.65275 0.0
H926 H 0.73809 0.32954 0.64792 0.0
C927 C 0.66312 0.22453 0.67302 0.0
C928 C 0.681 0.2793 0.66984 0.0
H929 H 0.67474 0.32747 0.65104 0.0
C930 C 0.70129 0.2809 0.67631 0.0
C931 C 0.67152 0.29601 0.66004 0.0
C932 C 0.6499 0.29475 0.65238 0.0
C933 C 0.71196 0.29934 0.67446 0.0
C934 C 0.70217 0.31641 0.66542 0.0
C935 C 0.68223 0.31439 0.65794 0.0
C936 C 0.71133 0.33704 0.6659 0.0
C937 C 0.73308 0.30074 0.68347 0.0
C938 C 0.70128 0.35256 0.67671 0.0
C939 C 0.71046 0.37152 0.67924 0.0
C940 C 0.72994 0.37537 0.67107 0.0
C941 C 0.73959 0.36014 0.65939 0.0
C942 C 0.73028 0.34115 0.65673 0.0
H943 H 0.73672 0.28744 0.69338 0.0
H944 H 0.74452 0.30122 0.67096 0.0
H945 H 0.73466 0.31486 0.6926 0.0
H946 H 0.68661 0.34977 0.68386 0.0
H947 H 0.70253 0.3829 0.68824 0.0
H948 H 0.43224 0.57801 0.50454 0.0
H949 H 0.43012 0.54873 0.528 0.0
H950 H 0.43855 0.58901 0.5791 0.0
H951 H 0.44062 0.61806 0.55597 0.0
H952 H 0.46313 0.53856 0.55289 0.0
H953 H 0.39392 0.55076 0.5999 0.0
H954 H 0.3976 0.56295 0.57539 0.0
H955 H 0.40917 0.57335 0.5979 0.0
C956 C 0.43303 0.58062 0.52082 0.0
C957 C 0.43672 0.60024 0.52845 0.0
C958 C 0.43186 0.56393 0.53417 0.0
C959 C 0.43397 0.56676 0.55529 0.0
C960 C 0.43648 0.58651 0.56292 0.0
H961 H 0.49376 0.49941 0.64825 0.0
H962 H 0.48143 0.52342 0.62241 0.0
C963 C 0.43784 0.60309 0.54965 0.0
C964 C 0.43657 0.54917 0.56924 0.0
H965 H 0.42066 0.53027 0.6152 0.0
C966 C 0.4536 0.53646 0.5663 0.0
C967 C 0.42409 0.54642 0.58668 0.0
C968 C 0.40505 0.55898 0.59007 0.0
C969 C 0.45916 0.52185 0.58094 0.0
C970 C 0.4475 0.52012 0.59905 0.0
C971 C 0.42976 0.53193 0.60144 0.0
C972 C 0.45395 0.50652 0.61587 0.0
C973 C 0.47774 0.50868 0.57712 0.0
C974 C 0.44213 0.48957 0.62127 0.0
C975 C 0.44909 0.47585 0.63607 0.0
C976 C 0.46792 0.47897 0.6458 0.0
C977 C 0.47922 0.49654 0.64103 0.0
C978 C 0.47228 0.51019 0.62617 0.0
H979 H 0.4818 0.50818 0.56066 0.0
H980 H 0.49092 0.51507 0.58548 0.0
H981 H 0.47522 0.49286 0.58267 0.0
H982 H 0.42786 0.48661 0.61356 0.0
H983 H 0.43997 0.46251 0.63946 0.0
H984 H 0.76977 0.24665 0.86297 0.0
H985 H 0.74607 0.23124 0.83905 0.0
H986 H 0.78388 0.17733 0.83604 0.0
H987 H 0.80776 0.19259 0.86024 0.0
H988 H 0.75497 0.217 0.79875 0.0
H989 H 0.72575 0.15588 0.85033 0.0
H990 H 0.73925 0.17781 0.85982 0.0
H991 H 0.75296 0.15781 0.84708 0.0
C992 C 0.77309 0.2315 0.85729 0.0
C993 C 0.79063 0.22082 0.86357 0.0
C994 C 0.75954 0.22274 0.84358 0.0
C995 C 0.76318 0.20312 0.83593 0.0
C996 C 0.78071 0.1924 0.842 0.0
H997 H 0.68124 0.16624 0.73646 0.0
H998 H 0.71276 0.16798 0.75637 0.0
C999 C 0.79434 0.20118 0.85575 0.0
C1000 C 0.74846 0.1942 0.82152 0.0
H1001 H 0.71026 0.15918 0.81823 0.0
C1002 C 0.74539 0.20414 0.8028 0.0
C1003 C 0.73601 0.17749 0.82701 0.0
C1004 C 0.73847 0.16662 0.84718 0.0
C1005 C 0.72954 0.19841 0.78976 0.0
C1006 C 0.71666 0.18209 0.79551 0.0
C1007 C 0.7203 0.17156 0.81384 0.0
C1008 C 0.69774 0.1777 0.78415 0.0
C1009 C 0.72593 0.2107 0.77057 0.0
C1010 C 0.67886 0.18163 0.79349 0.0
C1011 C 0.66089 0.18055 0.78226 0.0
C1012 C 0.66147 0.1755 0.76144 0.0
C1013 C 0.68031 0.17032 0.75243 0.0
C1014 C 0.69833 0.17138 0.76374 0.0
H1015 H 0.73522 0.22483 0.77009 0.0
H1016 H 0.73005 0.20134 0.75709 0.0
H1017 H 0.70958 0.215 0.76925 0.0
H1018 H 0.67809 0.18647 0.80926 0.0
H1019 H 0.64664 0.18447 0.78972 0.0
H1020 H 0.96795 0.47221 0.19528 0.0
H1021 H 0.97933 0.45038 0.16739 0.0
H1022 H 0.93808 0.48137 0.1266 0.0
H1023 H 0.92635 0.50286 0.15466 0.0
H1024 H 0.94967 0.44025 0.11408 0.0
H1025 H 0.01508 0.49028 0.13235 0.0
H1026 H 0.00719 0.47436 0.15327 0.0
H1027 H 0.99015 0.49364 0.14361 0.0
C1028 C 0.96006 0.4732 0.18082 0.0
C1029 C 0.94667 0.48953 0.17695 0.0
C1030 C 0.96693 0.46104 0.16472 0.0
C1031 C 0.96022 0.46501 0.14479 0.0
C1032 C 0.94373 0.47837 0.14182 0.0
H1033 H 0.01758 0.43164 0.02755 0.0
H1034 H 0.99715 0.4507 0.05259 0.0
C1035 C 0.93669 0.49036 0.15803 0.0
C1036 C 0.97308 0.45886 0.12719 0.0
H1037 H 0.02091 0.46498 0.10712 0.0
C1038 C 0.9652 0.44569 0.11245 0.0
C1039 C 0.99314 0.46657 0.1248 0.0
C1040 C 0.00186 0.48217 0.1392 0.0
C1041 C 0.97733 0.43903 0.09601 0.0
C1042 C 0.99775 0.44588 0.09425 0.0
C1043 C 0.00531 0.45967 0.10857 0.0
C1044 C 0.01206 0.43736 0.07886 0.0
C1045 C 0.96847 0.42419 0.081 0.0
C1046 C 0.02802 0.42461 0.08534 0.0
C1047 C 0.03975 0.41389 0.07113 0.0
C1048 C 0.03592 0.41591 0.05016 0.0
C1049 C 0.02114 0.43008 0.0436 0.0
C1050 C 0.00922 0.44069 0.05789 0.0
H1051 H 0.95345 0.41817 0.08609 0.0
H1052 H 0.96635 0.43203 0.06614 0.0
H1053 H 0.9791 0.41119 0.07865 0.0
H1054 H 0.03056 0.42196 0.10146 0.0
H1055 H 0.05087 0.40289 0.0766 0.0
H1056 H 0.75552 0.7963 0.39288 0.0
H1057 H 0.78101 0.81232 0.3709 0.0
H1058 H 0.73568 0.85458 0.34851 0.0
H1059 H 0.70992 0.83874 0.37087 0.0
H1060 H 0.76036 0.82909 0.31821 0.0
H1061 H 0.80699 0.8718 0.37379 0.0
H1062 H 0.79964 0.84672 0.38215 0.0
H1063 H 0.78037 0.86588 0.37808 0.0
C1064 C 0.75097 0.80912 0.38344 0.0
C1065 C 0.73073 0.81623 0.38351 0.0
C1066 C 0.76558 0.81834 0.37102 0.0
C1067 C 0.76021 0.83473 0.35831 0.0
C1068 C 0.74009 0.84207 0.35842 0.0
H1069 H 0.85057 0.85579 0.2599 0.0
H1070 H 0.81979 0.86375 0.27987 0.0
C1071 C 0.72545 0.83302 0.37115 0.0
C1072 C 0.77553 0.84263 0.34377 0.0
H1073 H 0.82387 0.86153 0.34278 0.0
C1074 C 0.77404 0.83677 0.32331 0.0
C1075 C 0.79323 0.85265 0.35061 0.0
C1076 C 0.79516 0.85981 0.37234 0.0
C1077 C 0.7907 0.83882 0.30992 0.0
C1078 C 0.80906 0.84738 0.31723 0.0
C1079 C 0.80981 0.85492 0.33723 0.0
C1080 C 0.8285 0.8452 0.30582 0.0
C1081 C 0.78909 0.83016 0.2887 0.0
C1082 C 0.84392 0.83289 0.31415 0.0
C1083 C 0.86148 0.8285 0.30296 0.0
C1084 C 0.86401 0.83628 0.28311 0.0
C1085 C 0.84898 0.84942 0.27509 0.0
C1086 C 0.83136 0.85391 0.28642 0.0
H1087 H 0.7747 0.82157 0.28646 0.0
H1088 H 0.78951 0.84278 0.27738 0.0
H1089 H 0.80215 0.8198 0.28548 0.0
H1090 H 0.84204 0.82601 0.3291 0.0
H1091 H 0.87278 0.81845 0.30969 0.0
H1092 H 0.57177 0.45658 0.65283 0.0
H1093 H 0.58993 0.46759 0.62221 0.0
H1094 H 0.53937 0.4484 0.58515 0.0
H1095 H 0.52078 0.4377 0.61587 0.0
H1096 H 0.60255 0.44773 0.58829 0.0
H1097 H 0.54626 0.50784 0.56797 0.0
H1098 H 0.54605 0.49495 0.59235 0.0
H1099 H 0.53536 0.48286 0.57029 0.0
C1100 C 0.56454 0.45447 0.63816 0.0
C1101 C 0.54474 0.44639 0.63681 0.0
C1102 C 0.57495 0.46085 0.62067 0.0
C1103 C 0.56579 0.45932 0.60147 0.0
C1104 C 0.54648 0.45023 0.5999 0.0
H1105 H 0.61991 0.4631 0.48402 0.0
H1106 H 0.60315 0.45596 0.51628 0.0
C1107 C 0.536 0.44386 0.61744 0.0
C1108 C 0.57655 0.46727 0.58318 0.0
H1109 H 0.5722 0.50071 0.54327 0.0
C1110 C 0.59596 0.45941 0.57854 0.0
C1111 C 0.56813 0.48284 0.57072 0.0
C1112 C 0.5479 0.49279 0.57565 0.0
C1113 C 0.60685 0.46614 0.56136 0.0
C1114 C 0.59797 0.4809 0.54831 0.0
C1115 C 0.5789 0.48934 0.5533 0.0
C1116 C 0.60748 0.48618 0.5285 0.0
C1117 C 0.62772 0.45723 0.55716 0.0
C1118 C 0.61496 0.50585 0.52441 0.0
C1119 C 0.62467 0.51011 0.50574 0.0
C1120 C 0.62688 0.49475 0.49098 0.0
C1121 C 0.61876 0.4753 0.49507 0.0
C1122 C 0.60916 0.47111 0.51356 0.0
H1123 H 0.63463 0.45065 0.57117 0.0
H1124 H 0.62634 0.44483 0.54579 0.0
H1125 H 0.63818 0.46897 0.55082 0.0
H1126 H 0.61362 0.51772 0.53578 0.0
H1127 H 0.63068 0.52525 0.50301 0.0
H1128 H 0.98551 0.38501 0.0532 0.0
H1129 H 0.95933 0.4076 0.03954 0.0
H1130 H 0.94745 0.36458 0.99155 0.0
H1131 H 0.97444 0.3424 0.00477 0.0
H1132 H 0.96043 0.39925 0.97641 0.0
H1133 H 0.90024 0.41814 0.03264 0.0
H1134 H 0.92515 0.42119 0.04332 0.0
H1135 H 0.91674 0.39623 0.03569 0.0
C1136 C 0.9762 0.37966 0.0407 0.0
C1137 C 0.98178 0.36186 0.03022 0.0
C1138 C 0.96134 0.39275 0.03272 0.0
C1139 C 0.9514 0.38793 0.01444 0.0
C1140 C 0.95493 0.36869 0.00564 0.0
H1141 H 0.87874 0.45776 0.93075 0.0
H1142 H 0.90217 0.43275 0.94549 0.0
C1143 C 0.97006 0.35576 0.01347 0.0
C1144 C 0.94096 0.40428 0.00256 0.0
H1145 H 0.90556 0.44256 0.00564 0.0
C1146 C 0.94822 0.4085 0.98275 0.0
C1147 C 0.92534 0.41672 0.01091 0.0
C1148 C 0.9163 0.4127 0.03174 0.0
C1149 C 0.94044 0.42481 0.97118 0.0
C1150 C 0.92493 0.43724 0.97957 0.0
C1151 C 0.91768 0.43314 0.99936 0.0
C1152 C 0.91479 0.45356 0.96757 0.0
C1153 C 0.94908 0.42884 0.95019 0.0
C1154 C 0.91489 0.47384 0.97439 0.0
C1155 C 0.90164 0.48828 0.96577 0.0
C1156 C 0.88796 0.48247 0.95043 0.0
C1157 C 0.88935 0.46269 0.94235 0.0
C1158 C 0.90264 0.44835 0.95086 0.0
H1159 H 0.96424 0.42148 0.94808 0.0
H1160 H 0.93857 0.42256 0.9386 0.0
H1161 H 0.95059 0.44548 0.94733 0.0
H1162 H 0.92427 0.47815 0.98721 0.0
H1163 H 0.90059 0.50327 0.9726 0.0
H1164 H 0.58773 0.46925 0.43733 0.0
H1165 H 0.55561 0.48813 0.43694 0.0
H1166 H 0.57484 0.51968 0.3823 0.0
H1167 H 0.60737 0.50136 0.3833 0.0
H1168 H 0.57052 0.54505 0.41275 0.0
H1169 H 0.50127 0.49745 0.41057 0.0
H1170 H 0.51907 0.48791 0.42901 0.0
H1171 H 0.52592 0.48804 0.40237 0.0
C1172 C 0.5845 0.47919 0.42448 0.0
C1173 C 0.59985 0.48375 0.41022 0.0
C1174 C 0.56612 0.49011 0.4243 0.0
C1175 C 0.56278 0.50545 0.40963 0.0
C1176 C 0.57706 0.50795 0.39378 0.0
H1177 H 0.4636 0.59464 0.42391 0.0
H1178 H 0.48607 0.5681 0.41026 0.0
C1179 C 0.59556 0.49729 0.39417 0.0
C1180 C 0.54741 0.5217 0.4136 0.0
H1181 H 0.49782 0.5302 0.42755 0.0
C1182 C 0.55453 0.54179 0.41556 0.0
C1183 C 0.52655 0.51757 0.41735 0.0
C1184 C 0.51773 0.49659 0.41451 0.0
C1185 C 0.54163 0.55766 0.42188 0.0
C1186 C 0.52111 0.5533 0.42685 0.0
C1187 C 0.51367 0.53343 0.42405 0.0
C1188 C 0.50735 0.56915 0.43533 0.0
C1189 C 0.55017 0.57895 0.42336 0.0
C1190 C 0.51182 0.57843 0.45404 0.0
C1191 C 0.49906 0.59368 0.46188 0.0
C1192 C 0.48153 0.59984 0.45118 0.0
C1193 C 0.47703 0.59035 0.43251 0.0
C1194 C 0.48979 0.57511 0.4247 0.0
H1195 H 0.56409 0.58078 0.4138 0.0
H1196 H 0.53872 0.59053 0.41858 0.0
H1197 H 0.5544 0.58203 0.43943 0.0
H1198 H 0.52515 0.57381 0.46264 0.0
H1199 H 0.50288 0.60053 0.47637 0.0
H1200 H 0.99648 0.11646 0.35626 0.0
H1201 H 0.0028 0.15115 0.34466 0.0
H1202 H 0.05928 0.13173 0.31669 0.0
H1203 H 0.05335 0.09681 0.32889 0.0
H1204 H 0.06435 0.1661 0.33777 0.0
H1205 H 0.99636 0.17534 0.28888 0.0
H1206 H 0.98956 0.1681 0.31441 0.0
H1207 H 0.00429 0.15087 0.2988 0.0
C1208 C 0.01018 0.11944 0.34747 0.0
C1209 C 0.02436 0.10377 0.3434 0.0
C1210 C 0.0137 0.13933 0.34071 0.0
C1211 C 0.03128 0.14403 0.3294 0.0
C1212 C 0.04551 0.12844 0.32527 0.0
H1213 H 0.05345 0.25698 0.26417 0.0
H1214 H 0.0431 0.22283 0.27465 0.0
C1215 C 0.04209 0.10848 0.33221 0.0
C1216 C 0.03519 0.1654 0.32279 0.0
H1217 H 0.01389 0.20598 0.29771 0.0
C1218 C 0.05337 0.17477 0.32889 0.0
C1219 C 0.02098 0.17668 0.311 0.0
C1220 C 0.00182 0.16716 0.30271 0.0
C1221 C 0.0576 0.19517 0.32384 0.0
C1222 C 0.04294 0.20674 0.31289 0.0
C1223 C 0.02493 0.19725 0.30646 0.0
C1224 C 0.04659 0.22834 0.30696 0.0
C1225 C 0.07797 0.20393 0.32986 0.0
C1226 C 0.05094 0.2432 0.32168 0.0
C1227 C 0.057 0.2628 0.31573 0.0
C1228 C 0.05857 0.26796 0.29493 0.0
C1229 C 0.05251 0.25355 0.28032 0.0
C1230 C 0.04663 0.23394 0.28628 0.0
H1231 H 0.08938 0.19176 0.33307 0.0
H1232 H 0.08415 0.21402 0.31769 0.0
H1233 H 0.07605 0.21308 0.34394 0.0
H1234 H 0.05038 0.23942 0.33776 0.0
H1235 H 0.06143 0.27354 0.32739 0.0
H1236 H 0.14707 0.73671 0.56901 0.0
H1237 H 0.11177 0.74716 0.56326 0.0
H1238 H 0.09067 0.69685 0.60018 0.0
H1239 H 0.1261 0.68596 0.60569 0.0
H1240 H 0.06609 0.70395 0.56621 0.0
H1241 H 0.07958 0.77542 0.60846 0.0
H1242 H 0.09734 0.77226 0.58781 0.0
H1243 H 0.09744 0.75439 0.60875 0.0
C1244 C 0.13494 0.72767 0.5757 0.0
C1245 C 0.1394 0.71064 0.588 0.0
C1246 C 0.11477 0.73375 0.5725 0.0
C1247 C 0.09864 0.72313 0.58178 0.0
C1248 C 0.10292 0.70538 0.59306 0.0
H1249 H 0.98517 0.79363 0.58338 0.0
H1250 H 0.01147 0.77011 0.59585 0.0
C1251 C 0.12316 0.69916 0.59614 0.0
C1252 C 0.07751 0.73121 0.58029 0.0
H1253 H 0.04976 0.77472 0.58744 0.0
C1254 C 0.06239 0.71932 0.57109 0.0
C1255 C 0.07249 0.75101 0.58726 0.0
C1256 C 0.08751 0.76392 0.59883 0.0
C1257 C 0.04275 0.72724 0.56746 0.0
C1258 C 0.03832 0.74773 0.57277 0.0
C1259 C 0.0531 0.75909 0.58315 0.0
C1260 C 0.01949 0.7585 0.56599 0.0
C1261 C 0.02705 0.71361 0.55784 0.0
C1262 C 0.01473 0.75935 0.54515 0.0
C1263 C 0.99957 0.77256 0.53804 0.0
C1264 C 0.98906 0.78556 0.55155 0.0
C1265 C 0.99297 0.78385 0.57256 0.0
C1266 C 0.00805 0.77044 0.5797 0.0
H1267 H 0.0296 0.69742 0.56226 0.0
H1268 H 0.01129 0.71807 0.56229 0.0
H1269 H 0.02847 0.71461 0.541 0.0
H1270 H 0.02361 0.75078 0.53415 0.0
H1271 H 0.99703 0.77346 0.52175 0.0
H1272 H 0.47901 0.90142 0.7943 0.0
H1273 H 0.47344 0.86462 0.79214 0.0
H1274 H 0.52308 0.85403 0.83388 0.0
H1275 H 0.529 0.89076 0.83587 0.0
H1276 H 0.52431 0.82789 0.80135 0.0
H1277 H 0.44693 0.82907 0.83566 0.0
H1278 H 0.44924 0.84576 0.81402 0.0
H1279 H 0.46382 0.8507 0.83665 0.0
C1280 C 0.48874 0.89128 0.80304 0.0
C1281 C 0.50438 0.89908 0.81535 0.0
C1282 C 0.48546 0.87024 0.80188 0.0
C1283 C 0.4976 0.85658 0.81315 0.0
C1284 C 0.51344 0.86429 0.82515 0.0
H1285 H 0.4578 0.73008 0.8259 0.0
H1286 H 0.47208 0.7634 0.83437 0.0
C1287 C 0.51678 0.88531 0.82628 0.0
C1288 C 0.49389 0.83426 0.81223 0.0
H1289 H 0.45699 0.79827 0.81907 0.0
C1290 C 0.50965 0.82137 0.8054 0.0
C1291 C 0.47492 0.82569 0.81794 0.0
C1292 C 0.45782 0.83848 0.82668 0.0
C1293 C 0.50667 0.80026 0.80333 0.0
C1294 C 0.4873 0.79187 0.80787 0.0
C1295 C 0.47182 0.80467 0.81547 0.0
C1296 C 0.48218 0.77023 0.80363 0.0
C1297 C 0.52431 0.78717 0.7963 0.0
C1298 C 0.48369 0.76267 0.78368 0.0
C1299 C 0.47569 0.74358 0.77883 0.0
C1300 C 0.46577 0.73172 0.79378 0.0
C1301 C 0.46539 0.73876 0.81402 0.0
C1302 C 0.47345 0.75787 0.81887 0.0
H1303 H 0.53918 0.79418 0.80026 0.0
H1304 H 0.52364 0.77167 0.80315 0.0
H1305 H 0.52376 0.78567 0.77946 0.0
H1306 H 0.48995 0.77203 0.77155 0.0
H1307 H 0.47621 0.7387 0.76308 0.0
H1308 H 0.38619 0.3118 0.09039 0.0
H1309 H 0.41997 0.30137 0.07817 0.0
H1310 H 0.39218 0.25666 0.03911 0.0
H1311 H 0.35849 0.26644 0.0519 0.0
H1312 H 0.4217 0.23995 0.06056 0.0
H1313 H 0.45082 0.31178 0.02649 0.0
H1314 H 0.44333 0.31423 0.05271 0.0
H1315 H 0.42445 0.30858 0.03374 0.0
C1316 C 0.38727 0.30005 0.07887 0.0
C1317 C 0.36967 0.28995 0.07208 0.0
C1318 C 0.40661 0.29412 0.07185 0.0
C1319 C 0.40868 0.27832 0.05757 0.0
C1320 C 0.39102 0.26885 0.05017 0.0
H1321 H 0.50462 0.2406 0.97975 0.0
H1322 H 0.47776 0.25828 0.99824 0.0
C1323 C 0.37174 0.27452 0.05741 0.0
C1324 C 0.42913 0.27058 0.05128 0.0
H1325 H 0.47419 0.28422 0.02878 0.0
C1326 C 0.4332 0.24965 0.05363 0.0
C1327 C 0.44415 0.28324 0.04229 0.0
C1328 C 0.44045 0.30566 0.03846 0.0
C1329 C 0.45148 0.24087 0.04661 0.0
C1330 C 0.46655 0.25351 0.03763 0.0
C1331 C 0.46276 0.27457 0.03589 0.0
C1332 C 0.48501 0.24484 0.02754 0.0
C1333 C 0.45393 0.21798 0.04791 0.0
C1334 C 0.49874 0.23199 0.03798 0.0
C1335 C 0.5141 0.2215 0.02729 0.0
C1336 C 0.51613 0.22396 0.00606 0.0
C1337 C 0.5034 0.23812 0.99605 0.0
C1338 C 0.48801 0.24835 0.00664 0.0
H1339 H 0.43918 0.21023 0.05098 0.0
H1340 H 0.46042 0.21179 0.03353 0.0
H1341 H 0.46447 0.2141 0.06054 0.0
H1342 H 0.4971 0.22949 0.05424 0.0
H1343 H 0.52375 0.21083 0.03548 0.0
H1344 H 0.26357 0.0511 0.25789 0.0
H1345 H 0.27475 0.03789 0.22509 0.0
H1346 H 0.33756 0.0467 0.24225 0.0
H1347 H 0.32642 0.06072 0.27501 0.0
H1348 H 0.33023 0.06433 0.20706 0.0
H1349 H 0.29886 0.98647 0.20353 0.0
H1350 H 0.27921 0.00452 0.20971 0.0
H1351 H 0.30012 0.00055 0.22708 0.0
C1352 C 0.2798 0.04974 0.25498 0.0
C1353 C 0.29409 0.05712 0.26909 0.0
C1354 C 0.28619 0.04203 0.23618 0.0
C1355 C 0.30702 0.04111 0.23118 0.0
C1356 C 0.32139 0.04723 0.24576 0.0
H1357 H 0.3488 0.99311 0.11407 0.0
H1358 H 0.34096 0.99793 0.15015 0.0
C1359 C 0.31501 0.05515 0.26454 0.0
C1360 C 0.3135 0.03622 0.20999 0.0
H1361 H 0.30647 0.00248 0.17112 0.0
C1362 C 0.32527 0.05064 0.19931 0.0
C1363 C 0.30723 0.0183 0.19985 0.0
C1364 C 0.29585 0.0015 0.21074 0.0
C1365 C 0.33038 0.04797 0.17869 0.0
C1366 C 0.32296 0.03071 0.16819 0.0
C1367 C 0.31181 0.01593 0.17903 0.0
C1368 C 0.3269 0.02758 0.14608 0.0
C1369 C 0.34385 0.06362 0.16845 0.0
C1370 C 0.32115 0.04242 0.13165 0.0
C1371 C 0.32581 0.03981 0.11096 0.0
C1372 C 0.33597 0.02212 0.10428 0.0
C1373 C 0.34095 0.00693 0.11867 0.0
C1374 C 0.3365 0.00965 0.13934 0.0
H1375 H 0.35315 0.07204 0.17974 0.0
H1376 H 0.3543 0.0564 0.15719 0.0
H1377 H 0.33416 0.07492 0.16033 0.0
H1378 H 0.31319 0.05612 0.13639 0.0
H1379 H 0.3216 0.05171 0.10026 0.0
H1380 H 0.22318 0.00121 0.51116 0.0
H1381 H 0.24503 0.01532 0.48479 0.0
H1382 H 0.22124 0.07553 0.497 0.0
H1383 H 0.19845 0.06125 0.52308 0.0
H1384 H 0.21811 0.06775 0.45863 0.0
H1385 H 0.29644 0.04638 0.48008 0.0
H1386 H 0.28071 0.02412 0.48061 0.0
H1387 H 0.27547 0.04482 0.49794 0.0
C1388 C 0.22287 0.01755 0.50866 0.0
C1389 C 0.20887 0.03007 0.51915 0.0
C1390 C 0.23562 0.02566 0.49363 0.0
C1391 C 0.23506 0.04656 0.48899 0.0
C1392 C 0.22202 0.05935 0.50034 0.0
H1393 H 0.30847 0.09226 0.38583 0.0
H1394 H 0.29678 0.08441 0.42052 0.0
C1395 C 0.20904 0.05119 0.5153 0.0
C1396 C 0.24573 0.05425 0.47043 0.0
H1397 H 0.29037 0.05049 0.44352 0.0
C1398 C 0.23404 0.06432 0.45555 0.0
C1399 C 0.26659 0.05009 0.46636 0.0
C1400 C 0.28053 0.04096 0.48224 0.0
C1401 C 0.24225 0.06929 0.4364 0.0
C1402 C 0.26254 0.06342 0.43168 0.0
C1403 C 0.27465 0.05448 0.44693 0.0
C1404 C 0.27116 0.06617 0.41087 0.0
C1405 C 0.229 0.08071 0.42138 0.0
C1406 C 0.26126 0.05768 0.39398 0.0
C1407 C 0.26777 0.06227 0.37419 0.0
C1408 C 0.28459 0.07512 0.37091 0.0
C1409 C 0.29547 0.0823 0.38786 0.0
C1410 C 0.28877 0.0779 0.4077 0.0
H1411 H 0.21692 0.08966 0.4293 0.0
H1412 H 0.23816 0.09128 0.41179 0.0
H1413 H 0.22134 0.06963 0.41126 0.0
H1414 H 0.24804 0.04803 0.39609 0.0
H1415 H 0.2592 0.05632 0.36146 0.0
H1416 H 0.25664 0.9598 0.76049 0.0
H1417 H 0.24763 0.97094 0.72606 0.0
H1418 H 0.18892 0.94204 0.73235 0.0
H1419 H 0.19759 0.93136 0.76696 0.0
H1420 H 0.24087 0.94525 0.69543 0.0
H1421 H 0.17285 0.99467 0.70515 0.0
H1422 H 0.18909 0.98761 0.72621 0.0
H1423 H 0.16985 0.9703 0.7173 0.0
C1424 C 0.24156 0.95636 0.75478 0.0
C1425 C 0.22783 0.94471 0.76648 0.0
C1426 C 0.23648 0.96264 0.73504 0.0
C1427 C 0.21758 0.95738 0.72659 0.0
C1428 C 0.20342 0.94666 0.73864 0.0
H1429 H 0.1932 0.94175 0.59701 0.0
H1430 H 0.20221 0.93675 0.63293 0.0
C1431 C 0.20842 0.94054 0.75847 0.0
C1432 C 0.21357 0.96127 0.70462 0.0
H1433 H 0.17919 0.9821 0.67149 0.0
C1434 C 0.22747 0.95349 0.6902 0.0
C1435 C 0.19616 0.9721 0.69778 0.0
C1436 C 0.18125 0.98182 0.71243 0.0
C1437 C 0.22432 0.95598 0.66917 0.0
C1438 C 0.2065 0.96609 0.66232 0.0
C1439 C 0.19275 0.97415 0.67673 0.0
C1440 C 0.20196 0.96893 0.6403 0.0
C1441 C 0.2403 0.94806 0.65454 0.0
C1442 C 0.19858 0.98861 0.63254 0.0
C1443 C 0.19318 0.99147 0.61215 0.0
C1444 C 0.1911 0.9747 0.59902 0.0
C1445 C 0.19489 0.95499 0.60667 0.0
C1446 C 0.20011 0.95212 0.62719 0.0
H1447 H 0.25535 0.94619 0.66208 0.0
H1448 H 0.23557 0.93289 0.64885 0.0
H1449 H 0.24215 0.95845 0.64125 0.0
H1450 H 0.19992 0.0018 0.64233 0.0
H1451 H 0.19042 0.00687 0.60675 0.0
H1452 H 0.21415 0.91711 0.8862 0.0
H1453 H 0.22585 0.92731 0.92001 0.0
H1454 H 0.27228 0.96488 0.89227 0.0
H1455 H 0.26111 0.95422 0.85849 0.0
H1456 H 0.28822 0.93877 0.91893 0.0
H1457 H 0.22203 0.97759 0.95502 0.0
H1458 H 0.21629 0.95266 0.94546 0.0
H1459 H 0.22336 0.97266 0.92798 0.0
C1460 C 0.22648 0.928 0.8873 0.0
C1461 C 0.23678 0.9348 0.86969 0.0
C1462 C 0.23312 0.93386 0.90667 0.0
C1463 C 0.24991 0.94693 0.90871 0.0
C1464 C 0.25933 0.95474 0.89107 0.0
H1465 H 0.30352 0.0063 0.01081 0.0
H1466 H 0.28178 0.99546 0.9829 0.0
C1467 C 0.2529 0.94868 0.87177 0.0
C1468 C 0.25921 0.95068 0.92896 0.0
H1469 H 0.25004 0.96955 0.97664 0.0
C1470 C 0.27985 0.94553 0.93154 0.0
C1471 C 0.24829 0.95948 0.94541 0.0
C1472 C 0.22632 0.9661 0.94333 0.0
C1473 C 0.29002 0.94926 0.9499 0.0
C1474 C 0.27907 0.95778 0.96648 0.0
C1475 C 0.25833 0.96272 0.96403 0.0
C1476 C 0.28948 0.96346 0.98568 0.0
C1477 C 0.31263 0.94482 0.951 0.0
C1478 C 0.30031 0.94893 0.99722 0.0
C1479 C 0.31303 0.95511 0.01312 0.0
C1480 C 0.31488 0.97591 0.01791 0.0
C1481 C 0.30262 0.99017 0.00745 0.0
C1482 C 0.29011 0.984 0.99147 0.0
H1483 H 0.31954 0.94293 0.93562 0.0
H1484 H 0.3208 0.95725 0.95897 0.0
H1485 H 0.31512 0.93044 0.95963 0.0
H1486 H 0.29963 0.93291 0.99333 0.0
H1487 H 0.32209 0.94372 0.021 0.0
H1488 H 0.1102 0.3645 0.01282 0.0
H1489 H 0.14637 0.3564 0.01671 0.0
H1490 H 0.13141 0.30963 0.06065 0.0
H1491 H 0.09508 0.31781 0.05708 0.0
H1492 H 0.16291 0.33467 0.07311 0.0
H1493 H 0.17697 0.30678 0.99447 0.0
H1494 H 0.16576 0.33179 0.99566 0.0
H1495 H 0.15162 0.31015 0.00483 0.0
C1496 C 0.11454 0.35243 0.02328 0.0
C1497 C 0.09969 0.34175 0.0346 0.0
C1498 C 0.13526 0.34774 0.02537 0.0
C1499 C 0.14158 0.33218 0.0387 0.0
C1500 C 0.12684 0.32162 0.05017 0.0
H1501 H 0.25686 0.27026 0.05168 0.0
H1502 H 0.22273 0.28139 0.04165 0.0
C1503 C 0.10609 0.32631 0.04811 0.0
C1504 C 0.1636 0.32735 0.04115 0.0
H1505 H 0.2061 0.31106 0.01543 0.0
C1506 C 0.17236 0.32952 0.0605 0.0
C1507 C 0.17586 0.32047 0.0247 0.0
C1508 C 0.16708 0.31696 0.00378 0.0
C1509 C 0.19305 0.32506 0.06387 0.0
C1510 C 0.20543 0.31861 0.04733 0.0
C1511 C 0.19666 0.31632 0.02799 0.0
C1512 C 0.22717 0.31286 0.05026 0.0
C1513 C 0.20134 0.32675 0.08525 0.0
C1514 C 0.24137 0.3271 0.05741 0.0
C1515 C 0.26095 0.32079 0.06317 0.0
C1516 C 0.26668 0.30012 0.06181 0.0
C1517 C 0.25295 0.28626 0.05304 0.0
C1518 C 0.23339 0.29259 0.04732 0.0
H1519 H 0.18894 0.32743 0.09684 0.0
H1520 H 0.21145 0.31361 0.08889 0.0
H1521 H 0.21045 0.34091 0.08649 0.0
H1522 H 0.237 0.34292 0.05937 0.0
H1523 H 0.27114 0.33189 0.06978 0.0
H1524 H 0.77987 0.21553 0.93916 0.0
H1525 H 0.74548 0.2059 0.95013 0.0
H1526 H 0.73069 0.26913 0.96067 0.0
H1527 H 0.76508 0.27887 0.95021 0.0
H1528 H 0.71345 0.24405 0.9894 0.0
H1529 H 0.69786 0.21575 0.91138 0.0
H1530 H 0.71916 0.20343 0.92348 0.0
H1531 H 0.72038 0.23019 0.91748 0.0
C1532 C 0.7695 0.22735 0.94433 0.0
C1533 C 0.77519 0.24801 0.94357 0.0
C1534 C 0.74974 0.22184 0.95035 0.0
C1535 C 0.73532 0.23686 0.9556 0.0
C1536 C 0.74148 0.2573 0.95644 0.0
H1537 H 0.60281 0.21936 0.95099 0.0
H1538 H 0.63757 0.23218 0.94534 0.0
C1539 C 0.76121 0.26283 0.95049 0.0
C1540 C 0.71357 0.23154 0.9591 0.0
H1541 H 0.67211 0.21009 0.93629 0.0
C1542 C 0.7044 0.23664 0.97779 0.0
C1543 C 0.70161 0.22237 0.94372 0.0
C1544 C 0.71015 0.21779 0.92281 0.0
C1545 C 0.68377 0.23231 0.98174 0.0
C1546 C 0.67209 0.22227 0.96672 0.0
C1547 C 0.6811 0.21766 0.94784 0.0
C1548 C 0.65081 0.21552 0.97064 0.0
C1549 C 0.67464 0.23877 0.00188 0.0
C1550 C 0.64674 0.20184 0.98662 0.0
C1551 C 0.62702 0.1946 0.9899 0.0
C1552 C 0.61084 0.20068 0.97714 0.0
C1553 C 0.61488 0.21445 0.96114 0.0
C1554 C 0.63473 0.22175 0.95788 0.0
H1555 H 0.68324 0.25162 0.00867 0.0
H1556 H 0.65843 0.24345 0.00015 0.0
H1557 H 0.67533 0.22576 0.01274 0.0
H1558 H 0.65894 0.19641 0.99635 0.0
H1559 H 0.62455 0.18392 0.00231 0.0
H1560 H 0.08002 0.38468 0.31612 0.0
H1561 H 0.06704 0.41884 0.30785 0.0
H1562 H 0.04514 0.39675 0.25013 0.0
H1563 H 0.05782 0.36268 0.25827 0.0
H1564 H 0.07898 0.44302 0.27465 0.0
H1565 H 0.99598 0.42807 0.27247 0.0
H1566 H 0.01385 0.41074 0.28438 0.0
H1567 H 0.01033 0.41044 0.25717 0.0
C1568 C 0.07211 0.38701 0.30183 0.0
C1569 C 0.06991 0.37091 0.28788 0.0
C1570 C 0.06479 0.40656 0.2971 0.0
C1571 C 0.05495 0.41029 0.27847 0.0
C1572 C 0.05235 0.39415 0.26475 0.0
H1573 H 0.04012 0.51204 0.19968 0.0
H1574 H 0.05419 0.48502 0.22118 0.0
C1575 C 0.05969 0.37466 0.26942 0.0
C1576 C 0.04842 0.43121 0.27265 0.0
H1577 H 0.00749 0.45818 0.25502 0.0
C1578 C 0.06329 0.44648 0.27066 0.0
C1579 C 0.02792 0.4358 0.26776 0.0
C1580 C 0.01106 0.42045 0.27075 0.0
C1581 C 0.05836 0.46588 0.26286 0.0
C1582 C 0.03811 0.46998 0.25662 0.0
C1583 C 0.02307 0.45504 0.25964 0.0
C1584 C 0.03224 0.48899 0.24564 0.0
C1585 C 0.07492 0.4817 0.26121 0.0
C1586 C 0.01547 0.50058 0.25236 0.0
C1587 C 0.00727 0.51594 0.23999 0.0
C1588 C 0.01564 0.51999 0.2206 0.0
C1589 C 0.03339 0.50945 0.21458 0.0
C1590 C 0.04151 0.49398 0.22692 0.0
H1591 H 0.0871 0.47894 0.27264 0.0
H1592 H 0.08204 0.48084 0.24585 0.0
H1593 H 0.06873 0.49734 0.26337 0.0
H1594 H 0.00807 0.49702 0.26675 0.0
H1595 H 0.99362 0.5238 0.24513 0.0
H1596 H 0.91071 0.79979 0.47033 0.0
H1597 H 0.87441 0.79328 0.46469 0.0
H1598 H 0.86019 0.81806 0.52392 0.0
H1599 H 0.89639 0.8241 0.52991 0.0
H1600 H 0.83853 0.78411 0.5169 0.0
H1601 H 0.83233 0.83609 0.45039 0.0
H1602 H 0.85142 0.81671 0.44689 0.0
H1603 H 0.8545 0.83548 0.4666 0.0
C1604 C 0.89987 0.80378 0.48219 0.0
C1605 C 0.90649 0.81258 0.50052 0.0
C1606 C 0.87909 0.8002 0.47888 0.0
C1607 C 0.8645 0.8056 0.4937 0.0
C1608 C 0.87112 0.81388 0.51221 0.0
H1609 H 0.73564 0.81341 0.46052 0.0
H1610 H 0.76885 0.82166 0.47524 0.0
C1611 C 0.89187 0.81733 0.51559 0.0
C1612 C 0.84233 0.80266 0.48996 0.0
H1613 H 0.80409 0.81409 0.45654 0.0
C1614 C 0.83096 0.79078 0.50377 0.0
C1615 C 0.8323 0.81176 0.47312 0.0
C1616 C 0.8432 0.8259 0.45852 0.0
C1617 C 0.81005 0.78718 0.50082 0.0
C1618 C 0.8003 0.79532 0.48334 0.0
C1619 C 0.81153 0.80774 0.4699 0.0
C1620 C 0.77889 0.79026 0.47791 0.0
C1621 C 0.7986 0.77483 0.51657 0.0
C1622 C 0.77317 0.76987 0.47511 0.0
C1623 C 0.75413 0.7651 0.46694 0.0
C1624 C 0.74046 0.78065 0.46106 0.0
C1625 C 0.74572 0.80104 0.46495 0.0
C1626 C 0.76478 0.80579 0.47325 0.0
H1627 H 0.80586 0.77598 0.53181 0.0
H1628 H 0.78245 0.77986 0.51788 0.0
H1629 H 0.79887 0.75853 0.51209 0.0
H1630 H 0.78387 0.7576 0.47814 0.0
H1631 H 0.75066 0.74923 0.46409 0.0
H1632 H 0.24477 0.73324 0.54719 0.0
H1633 H 0.27373 0.72284 0.52641 0.0
H1634 H 0.25962 0.65962 0.53802 0.0
H1635 H 0.23084 0.66999 0.55961 0.0
H1636 H 0.29766 0.66708 0.54711 0.0
H1637 H 0.28367 0.70024 0.471 0.0
H1638 H 0.28123 0.71946 0.4902 0.0
H1639 H 0.26379 0.69826 0.49004 0.0
C1640 C 0.24745 0.71709 0.54496 0.0
C1641 C 0.23554 0.70245 0.55522 0.0
C1642 C 0.26399 0.71115 0.53286 0.0
C1643 C 0.2688 0.69043 0.53042 0.0
C1644 C 0.25618 0.67572 0.53963 0.0
H1645 H 0.37558 0.65209 0.45919 0.0
H1646 H 0.34068 0.65959 0.47023 0.0
C1647 C 0.23968 0.68166 0.55191 0.0
C1648 C 0.28844 0.68443 0.52069 0.0
H1649 H 0.31913 0.69362 0.47943 0.0
C1650 C 0.30219 0.67262 0.53216 0.0
C1651 C 0.29437 0.69144 0.50109 0.0
C1652 C 0.27987 0.70286 0.48732 0.0
C1653 C 0.32193 0.66835 0.52498 0.0
C1654 C 0.32837 0.67666 0.50606 0.0
C1655 C 0.31435 0.68767 0.49414 0.0
C1656 C 0.34957 0.67394 0.49847 0.0
C1657 C 0.33564 0.65491 0.53775 0.0
C1658 C 0.36621 0.68028 0.51026 0.0
C1659 C 0.38618 0.67587 0.50409 0.0
C1660 C 0.3899 0.66534 0.48581 0.0
C1661 C 0.37326 0.6602 0.47337 0.0
C1662 C 0.35327 0.66444 0.47967 0.0
H1663 H 0.32667 0.64494 0.54817 0.0
H1664 H 0.34552 0.64511 0.52804 0.0
H1665 H 0.34558 0.66462 0.54729 0.0
H1666 H 0.36373 0.68819 0.52453 0.0
H1667 H 0.39866 0.68021 0.51392 0.0
H1668 H 0.99384 0.03037 0.30699 0.0
H1669 H 0.98413 0.00333 0.28352 0.0
H1670 H 0.93306 0.98816 0.32238 0.0
H1671 H 0.94243 0.01565 0.34567 0.0
H1672 H 0.98565 0.96453 0.29531 0.0
H1673 H 0.90806 0.98141 0.26663 0.0
H1674 H 0.92373 0.00053 0.27855 0.0
H1675 H 0.90951 0.9827 0.29392 0.0
C1676 C 0.98012 0.02172 0.31016 0.0
C1677 C 0.9689 0.02507 0.32817 0.0
C1678 C 0.97463 0.00623 0.29677 0.0
C1679 C 0.95788 0.99368 0.30115 0.0
C1680 C 0.94582 0.99787 0.31844 0.0
H1681 H 0.94388 0.86653 0.27748 0.0
H1682 H 0.95276 0.90027 0.29009 0.0
C1683 C 0.95118 0.01359 0.33177 0.0
C1684 C 0.95489 0.97466 0.28933 0.0
H1685 H 0.91949 0.94661 0.26382 0.0
C1686 C 0.97125 0.96077 0.28818 0.0
C1687 C 0.93619 0.96978 0.27988 0.0
C1688 C 0.91844 0.98449 0.27961 0.0
C1689 C 0.96922 0.94188 0.27847 0.0
C1690 C 0.95019 0.93652 0.27002 0.0
C1691 C 0.93404 0.95068 0.27047 0.0
C1692 C 0.94643 0.91591 0.26166 0.0
C1693 C 0.98747 0.9278 0.27743 0.0
C1694 C 0.93995 0.91347 0.24145 0.0
C1695 C 0.93482 0.89413 0.23416 0.0
C1696 C 0.93588 0.87694 0.24705 0.0
C1697 C 0.943 0.8794 0.26709 0.0
C1698 C 0.94814 0.89869 0.27433 0.0
H1699 H 0.002 0.93636 0.27877 0.0
H1700 H 0.98672 0.91676 0.29029 0.0
H1701 H 0.98773 0.91909 0.26295 0.0
H1702 H 0.93849 0.92658 0.23145 0.0
H1703 H 0.92928 0.8928 0.21869 0.0
H1704 H 0.55207 0.95978 0.76439 0.0
H1705 H 0.56635 0.98458 0.74044 0.0
H1706 H 0.60331 0.00939 0.78855 0.0
H1707 H 0.58956 0.98427 0.81234 0.0
H1708 H 0.55681 0.02296 0.7473 0.0
H1709 H 0.64065 0.01805 0.74064 0.0
H1710 H 0.62546 0.99712 0.75017 0.0
H1711 H 0.63285 0.01753 0.76687 0.0
C1712 C 0.56402 0.96985 0.76959 0.0
C1713 C 0.56958 0.97018 0.79028 0.0
C1714 C 0.5721 0.9841 0.7559 0.0
C1715 C 0.58582 0.99898 0.76267 0.0
C1716 C 0.59303 0.9979 0.78281 0.0
H1717 H 0.58579 0.12592 0.74549 0.0
H1718 H 0.58042 0.09005 0.75374 0.0
C1719 C 0.58513 0.98346 0.79646 0.0
C1720 C 0.5892 0.01773 0.7503 0.0
H1721 H 0.62568 0.05177 0.7353 0.0
C1722 C 0.57192 0.02897 0.74426 0.0
C1723 C 0.60885 0.02565 0.74618 0.0
C1724 C 0.62799 0.01382 0.75113 0.0
C1725 C 0.57372 0.04836 0.73537 0.0
C1726 C 0.5933 0.05694 0.73275 0.0
C1727 C 0.61065 0.04525 0.73756 0.0
C1728 C 0.59589 0.07863 0.72687 0.0
C1729 C 0.55459 0.05974 0.72937 0.0
C1730 C 0.60645 0.08412 0.70903 0.0
C1731 C 0.60952 0.10473 0.7042 0.0
C1732 C 0.60228 0.12013 0.71731 0.0
C1733 C 0.59149 0.11449 0.73501 0.0
C1734 C 0.58835 0.09397 0.73974 0.0
H1735 H 0.54178 0.04911 0.72644 0.0
H1736 H 0.54993 0.06996 0.74203 0.0
H1737 H 0.55716 0.06922 0.71553 0.0
H1738 H 0.61246 0.07248 0.69895 0.0
H1739 H 0.61803 0.10856 0.69053 0.0
H1740 H 0.54811 0.21409 0.7381 0.0
H1741 H 0.52847 0.24534 0.73234 0.0
H1742 H 0.56137 0.25561 0.67612 0.0
H1743 H 0.58051 0.22403 0.68145 0.0
H1744 H 0.54614 0.28112 0.73274 0.0
H1745 H 0.50559 0.27396 0.65941 0.0
H1746 H 0.51625 0.25218 0.67259 0.0
H1747 H 0.53219 0.26803 0.65671 0.0
C1748 C 0.55058 0.22261 0.72412 0.0
C1749 C 0.56585 0.21661 0.71023 0.0
C1750 C 0.53943 0.24053 0.72089 0.0
C1751 C 0.5434 0.25289 0.7038 0.0
C1752 C 0.55767 0.24618 0.6892 0.0
H1753 H 0.53865 0.38437 0.69988 0.0
H1754 H 0.54767 0.34838 0.70411 0.0
C1755 C 0.56864 0.22808 0.69228 0.0
C1756 C 0.53488 0.27393 0.70277 0.0
H1757 H 0.51117 0.3082 0.67138 0.0
C1758 C 0.53823 0.28693 0.71941 0.0
C1759 C 0.52444 0.28155 0.68548 0.0
C1760 C 0.51922 0.26812 0.66764 0.0
C1761 C 0.53197 0.30741 0.71902 0.0
C1762 C 0.52259 0.31533 0.70128 0.0
C1763 C 0.51863 0.3022 0.68488 0.0
C1764 C 0.51701 0.33723 0.69932 0.0
C1765 C 0.53537 0.3203 0.73771 0.0
C1766 C 0.49686 0.34296 0.69487 0.0
C1767 C 0.4917 0.36351 0.69224 0.0
C1768 C 0.50662 0.37878 0.69398 0.0
C1769 C 0.52676 0.37303 0.69867 0.0
C1770 C 0.53192 0.35244 0.70116 0.0
H1771 H 0.53665 0.31075 0.75169 0.0
H1772 H 0.54987 0.32883 0.7359 0.0
H1773 H 0.52278 0.33148 0.73991 0.0
H1774 H 0.48511 0.33149 0.69334 0.0
H1775 H 0.47605 0.3674 0.6886 0.0
H1776 H 0.89507 0.23348 0.91813 0.0
H1777 H 0.92947 0.24601 0.92529 0.0
H1778 H 0.904 0.30209 0.94841 0.0
H1779 H 0.86958 0.28984 0.94119 0.0
H1780 H 0.94551 0.28625 0.9081 0.0
H1781 H 0.94584 0.27972 0.99273 0.0
H1782 H 0.92916 0.26471 0.97692 0.0
H1783 H 0.92349 0.2911 0.98152 0.0
C1784 C 0.89674 0.24832 0.92511 0.0
C1785 C 0.87956 0.26066 0.92914 0.0
C1786 C 0.91641 0.2555 0.92903 0.0
C1787 C 0.9192 0.27496 0.93731 0.0
C1788 C 0.9021 0.28699 0.94207 0.0
H1789 H 0.0144 0.36132 0.95166 0.0
H1790 H 0.98752 0.34098 0.93602 0.0
C1791 C 0.88246 0.27993 0.93799 0.0
C1792 C 0.93997 0.28311 0.94036 0.0
H1793 H 0.97289 0.29814 0.97741 0.0
C1794 C 0.95165 0.28868 0.92322 0.0
C1795 C 0.94787 0.28616 0.9601 0.0
C1796 C 0.93607 0.28001 0.97893 0.0
C1797 C 0.9709 0.29781 0.92538 0.0
C1798 C 0.97853 0.30139 0.94515 0.0
C1799 C 0.96703 0.2953 0.96224 0.0
C1800 C 0.9979 0.31231 0.94885 0.0
C1801 C 0.98289 0.30368 0.9066 0.0
C1802 C 0.0133 0.30276 0.96024 0.0
C1803 C 0.02868 0.31434 0.96914 0.0
C1804 C 0.0288 0.33567 0.96691 0.0
C1805 C 0.01486 0.34489 0.95345 0.0
C1806 C 0.99939 0.33327 0.94458 0.0
H1807 H 0.97723 0.29576 0.8928 0.0
H1808 H 0.98142 0.32037 0.90404 0.0
H1809 H 0.99934 0.30008 0.90859 0.0
H1810 H 0.01244 0.28661 0.96369 0.0
H1811 H 0.03922 0.30685 0.97946 0.0
H1812 H 0.95503 0.76301 0.26061 0.0
H1813 H 0.96525 0.72901 0.24975 0.0
H1814 H 0.95167 0.74487 0.18735 0.0
H1815 H 0.94088 0.77895 0.1982 0.0
H1816 H 0.93175 0.71134 0.19907 0.0
H1817 H 0.01257 0.70251 0.22103 0.0
H1818 H 0.99739 0.71142 0.24201 0.0
H1819 H 0.00019 0.72713 0.21956 0.0
C1820 C 0.95477 0.75953 0.24447 0.0
C1821 C 0.94699 0.77371 0.23029 0.0
C1822 C 0.96076 0.74004 0.23826 0.0
C1823 C 0.95937 0.73435 0.21771 0.0
C1824 C 0.95292 0.74893 0.2033 0.0
H1825 H 0.99129 0.61023 0.17919 0.0
H1826 H 0.99052 0.64729 0.18326 0.0
C1827 C 0.94687 0.76846 0.20951 0.0
C1828 C 0.96195 0.7126 0.21187 0.0
H1829 H 0.99346 0.67128 0.21727 0.0
C1830 C 0.94539 0.70267 0.20276 0.0
C1831 C 0.97977 0.70125 0.21652 0.0
C1832 C 0.99855 0.7112 0.22512 0.0
C1833 C 0.94582 0.68162 0.19895 0.0
C1834 C 0.96312 0.67005 0.20483 0.0
C1835 C 0.98005 0.68009 0.2131 0.0
C1836 C 0.96378 0.6475 0.20272 0.0
C1837 C 0.92771 0.67199 0.18868 0.0
C1838 C 0.94923 0.63525 0.21263 0.0
C1839 C 0.94957 0.61405 0.21028 0.0
C1840 C 0.9646 0.60465 0.19812 0.0
C1841 C 0.97946 0.61694 0.18862 0.0
C1842 C 0.97906 0.63815 0.19093 0.0
H1843 H 0.91878 0.68341 0.17983 0.0
H1844 H 0.93257 0.65958 0.17824 0.0
H1845 H 0.91746 0.6654 0.20047 0.0
H1846 H 0.93759 0.64208 0.22221 0.0
H1847 H 0.938 0.60505 0.21794 0.0
H1848 H 0.48329 0.68658 0.44108 0.0
H1849 H 0.51161 0.70903 0.43117 0.0
H1850 H 0.52597 0.71827 0.4946 0.0
H1851 H 0.49755 0.69678 0.50455 0.0
H1852 H 0.53116 0.75264 0.47377 0.0
H1853 H 0.5696 0.68876 0.43317 0.0
H1854 H 0.54504 0.69571 0.42326 0.0
H1855 H 0.54703 0.68505 0.4485 0.0
C1856 C 0.49227 0.69372 0.45288 0.0
C1857 C 0.4883 0.68964 0.47359 0.0
C1858 C 0.50857 0.70639 0.4472 0.0
C1859 C 0.52126 0.71493 0.46214 0.0
C1860 C 0.51652 0.71179 0.48277 0.0
H1861 H 0.6487 0.74263 0.45534 0.0
H1862 H 0.61456 0.72938 0.4622 0.0
C1863 C 0.50023 0.69938 0.48843 0.0
C1864 C 0.54026 0.72608 0.45673 0.0
H1865 H 0.58705 0.71989 0.43445 0.0
C1866 C 0.54334 0.74556 0.46503 0.0
C1867 C 0.55628 0.71669 0.44561 0.0
C1868 C 0.55448 0.69534 0.43726 0.0
C1869 C 0.56213 0.75565 0.463 0.0
C1870 C 0.57811 0.74626 0.45183 0.0
C1871 C 0.57482 0.72706 0.44304 0.0
C1872 C 0.59867 0.75556 0.44963 0.0
C1873 C 0.56493 0.77582 0.47363 0.0
C1874 C 0.60117 0.77492 0.44074 0.0
C1875 C 0.62073 0.78271 0.43717 0.0
C1876 C 0.63815 0.77108 0.44203 0.0
C1877 C 0.6356 0.75196 0.45144 0.0
C1878 C 0.61608 0.74433 0.45527 0.0
H1879 H 0.55356 0.778 0.48606 0.0
H1880 H 0.58046 0.77706 0.48019 0.0
H1881 H 0.56283 0.78838 0.46243 0.0
H1882 H 0.58804 0.7837 0.43583 0.0
H1883 H 0.62217 0.79737 0.42964 0.0
H1884 H 0.67426 0.55289 0.39243 0.0
H1885 H 0.6821 0.56417 0.35759 0.0
H1886 H 0.69354 0.50185 0.33999 0.0
H1887 H 0.6854 0.49042 0.37453 0.0
H1888 H 0.71612 0.56023 0.33337 0.0
H1889 H 0.65083 0.51977 0.29875 0.0
H1890 H 0.6533 0.52314 0.32593 0.0
H1891 H 0.66736 0.50329 0.31315 0.0
C1892 C 0.67863 0.54161 0.38119 0.0
C1893 C 0.67902 0.52074 0.38623 0.0
C1894 C 0.68304 0.54807 0.36127 0.0
C1895 C 0.68789 0.53379 0.34607 0.0
C1896 C 0.68925 0.51307 0.35132 0.0
H1897 H 0.74359 0.56278 0.2292 0.0
H1898 H 0.73509 0.54782 0.26235 0.0
C1899 C 0.68475 0.5066 0.37114 0.0
C1900 C 0.6915 0.54051 0.32471 0.0
H1901 H 0.67523 0.53388 0.27572 0.0
C1902 C 0.70716 0.55451 0.32077 0.0
C1903 C 0.67955 0.53328 0.30832 0.0
C1904 C 0.66168 0.5192 0.31172 0.0
C1905 C 0.71147 0.56119 0.30085 0.0
C1906 C 0.70009 0.5533 0.28436 0.0
C1907 C 0.68415 0.53963 0.28834 0.0
C1908 C 0.70422 0.55962 0.26299 0.0
C1909 C 0.7279 0.57697 0.2977 0.0
C1910 C 0.68923 0.57002 0.25173 0.0
C1911 C 0.69394 0.57835 0.2326 0.0
C1912 C 0.71375 0.57644 0.22445 0.0
C1913 C 0.72824 0.56469 0.23512 0.0
C1914 C 0.72347 0.55627 0.25415 0.0
H1915 H 0.73136 0.58524 0.31203 0.0
H1916 H 0.74212 0.5693 0.29252 0.0
H1917 H 0.72337 0.58829 0.28589 0.0
H1918 H 0.67419 0.57259 0.25819 0.0
H1919 H 0.68242 0.58734 0.22483 0.0
H1920 H 0.69006 0.43422 0.47148 0.0
H1921 H 0.70976 0.42933 0.50281 0.0
H1922 H 0.73925 0.48723 0.49297 0.0
H1923 H 0.71919 0.49247 0.46201 0.0
H1924 H 0.75022 0.42957 0.51617 0.0
H1925 H 0.70683 0.49634 0.54546 0.0
H1926 H 0.70073 0.48412 0.52169 0.0
H1927 H 0.72176 0.5016 0.52304 0.0
C1928 C 0.70129 0.44554 0.47559 0.0
C1929 C 0.70294 0.46383 0.46446 0.0
C1930 C 0.71244 0.4428 0.49358 0.0
C1931 C 0.72548 0.45822 0.50052 0.0
C1932 C 0.72885 0.4754 0.48816 0.0
H1933 H 0.79584 0.44634 0.61386 0.0
H1934 H 0.78652 0.45223 0.5782 0.0
C1935 C 0.71753 0.47828 0.47038 0.0
C1936 C 0.73364 0.45742 0.52159 0.0
H1937 H 0.73124 0.48182 0.56749 0.0
C1938 C 0.7462 0.44103 0.52739 0.0
C1939 C 0.728 0.47221 0.53631 0.0
C1940 C 0.71344 0.48946 0.53143 0.0
C1941 C 0.75326 0.43901 0.54752 0.0
C1942 C 0.74796 0.45404 0.56211 0.0
C1943 C 0.73549 0.47046 0.55625 0.0
C1944 C 0.75396 0.45231 0.58388 0.0
C1945 C 0.76568 0.42039 0.55314 0.0
C1946 C 0.73882 0.45158 0.59908 0.0
C1947 C 0.74409 0.4486 0.6195 0.0
C1948 C 0.76465 0.44623 0.62515 0.0
C1949 C 0.77985 0.44797 0.61002 0.0
C1950 C 0.77455 0.45111 0.58959 0.0
H1951 H 0.76408 0.40805 0.5417 0.0
H1952 H 0.78204 0.42459 0.55386 0.0
H1953 H 0.76103 0.41434 0.5683 0.0
H1954 H 0.72283 0.45264 0.59506 0.0
H1955 H 0.73198 0.44733 0.63072 0.0
H1956 H 0.78988 0.46197 0.90065 0.0
H1957 H 0.78282 0.45932 0.86409 0.0
H1958 H 0.81863 0.51323 0.85268 0.0
H1959 H 0.82545 0.51622 0.88911 0.0
H1960 H 0.7829 0.51339 0.83094 0.0
H1961 H 0.82375 0.43976 0.82143 0.0
H1962 H 0.80408 0.43902 0.84055 0.0
H1963 H 0.82598 0.45502 0.84414 0.0
C1964 C 0.7962 0.4733 0.89037 0.0
C1965 C 0.80835 0.48922 0.89784 0.0
C1966 C 0.79226 0.47169 0.86946 0.0
C1967 C 0.80051 0.48587 0.85559 0.0
C1968 C 0.81219 0.50206 0.86306 0.0
H1969 H 0.8069 0.46039 0.72533 0.0
H1970 H 0.81579 0.4719 0.75959 0.0
C1971 C 0.81609 0.50371 0.88393 0.0
C1972 C 0.79714 0.48381 0.83328 0.0
H1973 H 0.80412 0.45134 0.79326 0.0
C1974 C 0.78762 0.49987 0.82266 0.0
C1975 C 0.80368 0.46635 0.8224 0.0
C1976 C 0.81512 0.44913 0.83264 0.0
C1977 C 0.78395 0.49869 0.80158 0.0
C1978 C 0.78966 0.48083 0.79089 0.0
C1979 C 0.79966 0.46502 0.80143 0.0
C1980 C 0.78461 0.47762 0.76903 0.0
C1981 C 0.77415 0.51665 0.79096 0.0
C1982 C 0.76419 0.4777 0.76266 0.0
C1983 C 0.75908 0.47131 0.74302 0.0
C1984 C 0.77426 0.46444 0.7294 0.0
C1985 C 0.79482 0.46564 0.73536 0.0
C1986 C 0.79992 0.47209 0.75501 0.0
H1987 H 0.77688 0.53107 0.79935 0.0
H1988 H 0.78 0.51841 0.77513 0.0
H1989 H 0.75742 0.51427 0.79029 0.0
H1990 H 0.75206 0.48152 0.77326 0.0
H1991 H 0.74308 0.47053 0.73902 0.0
H1992 H 0.6932 0.61009 0.10937 0.0
H1993 H 0.70172 0.59926 0.07454 0.0
H1994 H 0.75574 0.56899 0.09696 0.0
H1995 H 0.74734 0.5795 0.13158 0.0
H1996 H 0.7376 0.60941 0.05289 0.0
H1997 H 0.72987 0.52578 0.06065 0.0
H1998 H 0.71881 0.54336 0.07877 0.0
H1999 H 0.74536 0.53641 0.08041 0.0
C2000 C 0.70666 0.60077 0.10691 0.0
C2001 C 0.71956 0.59561 0.12327 0.0
C2002 C 0.71156 0.5947 0.087 0.0
C2003 C 0.72926 0.58317 0.0832 0.0
C2004 C 0.74182 0.57757 0.09958 0.0
H2005 H 0.81465 0.56835 0.98769 0.0
H2006 H 0.79166 0.583 0.01319 0.0
C2007 C 0.73702 0.58367 0.11938 0.0
C2008 C 0.73553 0.5779 0.06211 0.0
H2009 H 0.75127 0.53768 0.03322 0.0
C2010 C 0.74024 0.59371 0.04838 0.0
C2011 C 0.73866 0.55744 0.05614 0.0
C2012 C 0.73271 0.53977 0.0697 0.0
C2013 C 0.74917 0.58961 0.02928 0.0
C2014 C 0.75379 0.5692 0.02399 0.0
C2015 C 0.74793 0.55337 0.03727 0.0
C2016 C 0.76602 0.56373 0.00564 0.0
C2017 C 0.75378 0.6072 0.01512 0.0
C2018 C 0.7592 0.54836 0.99252 0.0
C2019 C 0.77243 0.53977 0.97815 0.0
C2020 C 0.79273 0.54646 0.97653 0.0
C2021 C 0.79903 0.56304 0.98841 0.0
C2022 C 0.78584 0.57147 0.003 0.0
H2023 H 0.7431 0.62014 0.01777 0.0
H2024 H 0.76946 0.61273 0.0181 0.0
H2025 H 0.7528 0.60257 0.99889 0.0
H2026 H 0.74398 0.54215 0.99422 0.0
H2027 H 0.76713 0.52703 0.96916 0.0
H2028 H 0.46191 0.63599 0.76222 0.0
H2029 H 0.47015 0.60029 0.75533 0.0
H2030 H 0.43768 0.58205 0.80973 0.0
H2031 H 0.42987 0.61781 0.81709 0.0
H2032 H 0.47202 0.55931 0.80428 0.0
H2033 H 0.42772 0.56204 0.73271 0.0
H2034 H 0.44746 0.58089 0.73294 0.0
H2035 H 0.42688 0.58233 0.75119 0.0
C2036 C 0.45676 0.62442 0.77289 0.0
C2037 C 0.44505 0.62974 0.79008 0.0
C2038 C 0.46133 0.604 0.76884 0.0
C2039 C 0.45399 0.58846 0.78169 0.0
C2040 C 0.44331 0.59378 0.79949 0.0
H2041 H 0.45595 0.46747 0.72662 0.0
H2042 H 0.44308 0.49598 0.74702 0.0
C2043 C 0.4389 0.61424 0.80368 0.0
C2044 C 0.45688 0.56672 0.77608 0.0
H2045 H 0.45012 0.53344 0.73689 0.0
C2046 C 0.46704 0.55356 0.78964 0.0
C2047 C 0.44978 0.55899 0.75729 0.0
C2048 C 0.43715 0.57174 0.74281 0.0
C2049 C 0.47133 0.53321 0.78438 0.0
C2050 C 0.46575 0.52601 0.76485 0.0
C2051 C 0.4546 0.53889 0.7518 0.0
C2052 C 0.47293 0.5061 0.75665 0.0
C2053 C 0.48184 0.51971 0.79981 0.0
C2054 C 0.4939 0.50174 0.75593 0.0
C2055 C 0.50125 0.48531 0.74456 0.0
C2056 C 0.48782 0.4731 0.73326 0.0
C2057 C 0.46671 0.47656 0.73513 0.0
C2058 C 0.45934 0.49293 0.74672 0.0
H2059 H 0.47767 0.52423 0.81561 0.0
H2060 H 0.47791 0.5034 0.79768 0.0
H2061 H 0.49861 0.52145 0.7982 0.0
H2062 H 0.50479 0.51185 0.76298 0.0
H2063 H 0.51761 0.48311 0.7435 0.0
loop_
_geom_bond_atom_site_label_1
_geom_bond_atom_site_label_2
_geom_bond_distance
_geom_bond_site_symmetry_2
_ccdc_geom_bond_type
C0 O2 1.247 . S
C0 O4 1.258 . S
C1 O8 1.247 . S
C1 O9 1.258 . S
O2 C0 1.247 . S
O2 Zn3 2.028 . S
Zn3 O2 2.028 . S
Zn3 O7 2.035 . S
Zn3 O9 2.035 . S
Zn3 O10 2.028 . S
O4 C0 1.258 . S
O4 Zn5 2.035 . S
Zn5 O4 2.035 . S
Zn5 O6 2.028 . S
Zn5 O8 2.028 . S
Zn5 O11 2.035 . S
O6 Zn5 2.028 . S
O6 C12 1.247 . S
O7 Zn3 2.035 . S
O7 C12 1.258 . S
O8 C1 1.247 . S
O8 Zn5 2.028 . S
O9 C1 1.258 . S
O9 Zn3 2.035 . S
O10 Zn3 2.028 . S
O10 C13 1.247 . S
O11 Zn5 2.035 . S
O11 C13 1.258 . S
C12 O6 1.247 . S
C12 O7 1.258 . S
C13 O10 1.247 . S
C13 O11 1.258 . S
C14 O16 1.247 . S
C14 O18 1.258 . S
C15 O22 1.247 . S
C15 O23 1.258 . S
O16 C14 1.247 . S
O16 Zn17 2.028 . S
Zn17 O16 2.028 . S
Zn17 O21 2.035 1_455 S
Zn17 O23 2.035 1_455 S
Zn17 O24 2.028 . S
O18 C14 1.258 . S
O18 Zn19 2.035 1_455 S
Zn19 O18 2.035 1_655 S
Zn19 O20 2.028 . S
Zn19 O22 2.028 . S
Zn19 O25 2.035 1_655 S
O20 Zn19 2.028 . S
O20 C26 1.247 . S
O21 Zn17 2.035 1_655 S
O21 C26 1.258 . S
O22 C15 1.247 . S
O22 Zn19 2.028 . S
O23 C15 1.258 . S
O23 Zn17 2.035 1_655 S
O24 Zn17 2.028 . S
O24 C27 1.247 . S
O25 Zn19 2.035 1_455 S
O25 C27 1.258 . S
C26 O20 1.247 . S
C26 O21 1.258 . S
C27 O24 1.247 . S
C27 O25 1.258 . S
C28 O30 1.247 . S
C28 O32 1.258 . S
C29 O36 1.247 . S
C29 O37 1.258 . S
O30 C28 1.247 . S
O30 Zn31 2.028 . S
Zn31 O30 2.028 . S
Zn31 O35 2.035 . S
Zn31 O37 2.035 . S
Zn31 O38 2.028 . S
O32 C28 1.258 . S
O32 Zn33 2.035 . S
Zn33 O32 2.035 . S
Zn33 O34 2.028 . S
Zn33 O36 2.028 . S
Zn33 O39 2.035 . S
O34 Zn33 2.028 . S
O34 C40 1.247 . S
O35 Zn31 2.035 . S
O35 C40 1.258 . S
O36 C29 1.247 . S
O36 Zn33 2.028 . S
O37 C29 1.258 . S
O37 Zn31 2.035 . S
O38 Zn31 2.028 . S
O38 C41 1.247 . S
O39 Zn33 2.035 . S
O39 C41 1.258 . S
C40 O34 1.247 . S
C40 O35 1.258 . S
C41 O38 1.247 . S
C41 O39 1.258 . S
C42 O44 1.247 1_556 S
C42 O46 1.258 . S
C43 O50 1.247 1_554 S
C43 O51 1.258 . S
O44 C42 1.247 1_554 S
O44 Zn45 2.028 . S
Zn45 O44 2.028 . S
Zn45 O49 2.035 . S
Zn45 O51 2.035 . S
Zn45 O52 2.028 1_554 S
O46 C42 1.258 . S
O46 Zn47 2.035 . S
Zn47 O46 2.035 . S
Zn47 O48 2.028 1_556 S
Zn47 O50 2.028 . S
Zn47 O53 2.035 . S
O48 Zn47 2.028 1_554 S
O48 C54 1.247 . S
O49 Zn45 2.035 . S
O49 C54 1.258 . S
O50 C43 1.247 1_556 S
O50 Zn47 2.028 . S
O51 C43 1.258 . S
O51 Zn45 2.035 . S
O52 Zn45 2.028 1_556 S
O52 C55 1.247 . S
O53 Zn47 2.035 . S
O53 C55 1.258 . S
C54 O48 1.247 . S
C54 O49 1.258 . S
C55 O52 1.247 . S
C55 O53 1.258 . S
C56 O58 1.247 . S
C56 O60 1.258 1_655 S
C57 O64 1.247 . S
C57 O65 1.258 1_455 S
O58 C56 1.247 . S
O58 Zn59 2.028 1_565 S
Zn59 O58 2.028 1_545 S
Zn59 O63 2.035 1_655 S
Zn59 O65 2.035 . S
Zn59 O66 2.028 1_545 S
O60 C56 1.258 1_455 S
O60 Zn61 2.035 . S
Zn61 O60 2.035 . S
Zn61 O62 2.009 1_565 S
Zn61 O64 2.028 1_565 S
Zn61 O67 2.035 1_455 S
O62 Zn61 2.009 1_545 S
O62 C68 1.280 . S
O63 Zn59 2.035 1_455 S
O63 C68 1.258 . S
O64 C57 1.247 . S
O64 Zn61 2.028 1_545 S
O65 C57 1.258 1_655 S
O65 Zn59 2.035 . S
O66 Zn59 2.028 1_565 S
O66 C69 1.247 . S
O67 Zn61 2.035 1_655 S
O67 C69 1.258 . S
C68 O62 1.280 . S
C68 O63 1.258 . S
C69 O66 1.247 . S
C69 O67 1.258 . S
C70 O72 1.247 . S
C70 O74 1.258 . S
C71 O78 1.247 . S
C71 O79 1.258 . S
O72 C70 1.247 . S
O72 Zn73 2.028 . S
Zn73 O72 2.028 . S
Zn73 O77 2.035 . S
Zn73 O79 2.035 . S
Zn73 O80 2.028 . S
O74 C70 1.258 . S
O74 Zn75 2.035 . S
Zn75 O74 2.035 . S
Zn75 O76 2.028 . S
Zn75 O78 2.028 . S
Zn75 O81 2.035 . S
O76 Zn75 2.028 . S
O76 C82 1.247 . S
O77 Zn73 2.035 . S
O77 C82 1.258 . S
O78 C71 1.247 . S
O78 Zn75 2.028 . S
O79 C71 1.258 . S
O79 Zn73 2.035 . S
O80 Zn73 2.028 . S
O80 C83 1.247 . S
O81 Zn75 2.035 . S
O81 C83 1.258 . S
C82 O76 1.247 . S
C82 O77 1.258 . S
C83 O80 1.247 . S
C83 O81 1.258 . S
C84 O86 1.247 . S
C84 O88 1.258 . S
C85 O92 1.247 . S
C85 O93 1.258 . S
O86 C84 1.247 . S
O86 Zn87 2.028 . S
Zn87 O86 2.028 . S
Zn87 O91 2.035 1_565 S
Zn87 O93 2.035 1_565 S
Zn87 O94 2.028 . S
O88 C84 1.258 . S
O88 Zn89 2.035 1_565 S
Zn89 O88 2.035 1_545 S
Zn89 O90 2.028 . S
Zn89 O92 2.028 . S
Zn89 O95 2.035 1_545 S
O90 Zn89 2.028 . S
O90 C96 1.247 . S
O91 Zn87 2.035 1_545 S
O91 C96 1.258 . S
O92 C85 1.247 . S
O92 Zn89 2.028 . S
O93 C85 1.258 . S
O93 Zn87 2.035 1_545 S
O94 Zn87 2.028 . S
O94 C97 1.247 . S
O95 Zn89 2.035 1_565 S
O95 C97 1.258 . S
C96 O90 1.247 . S
C96 O91 1.258 . S
C97 O94 1.247 . S
C97 O95 1.258 . S
C98 O100 1.247 . S
C98 O102 1.258 . S
C99 O106 1.247 . S
C99 O107 1.258 . S
O100 C98 1.247 . S
O100 Zn101 2.028 . S
Zn101 O100 2.028 . S
Zn101 O105 2.035 . S
Zn101 O107 2.035 . S
Zn101 O108 2.028 . S
O102 C98 1.258 . S
O102 Zn103 2.035 . S
Zn103 O102 2.035 . S
Zn103 O104 2.028 . S
Zn103 O106 2.028 . S
Zn103 O109 2.035 . S
O104 Zn103 2.028 . S
O104 C110 1.247 . S
O105 Zn101 2.035 . S
O105 C110 1.258 . S
O106 C99 1.247 . S
O106 Zn103 2.028 . S
O107 C99 1.258 . S
O107 Zn101 2.035 . S
O108 Zn101 2.028 . S
O108 C111 1.247 . S
O109 Zn103 2.035 . S
O109 C111 1.258 . S
C110 O104 1.247 . S
C110 O105 1.258 . S
C111 O108 1.247 . S
C111 O109 1.258 . S
C112 O114 1.247 . S
C112 O116 1.258 . S
C113 O120 1.247 . S
C113 O121 1.258 . S
O114 C112 1.247 . S
O114 Zn115 2.028 . S
Zn115 O114 2.028 . S
Zn115 O119 2.035 . S
Zn115 O121 2.035 . S
Zn115 O122 2.028 . S
O116 C112 1.258 . S
O116 Zn117 2.035 . S
Zn117 O116 2.035 . S
Zn117 O118 2.028 . S
Zn117 O120 2.028 . S
Zn117 O123 2.035 . S
O118 Zn117 2.028 . S
O118 C124 1.247 . S
O119 Zn115 2.035 . S
O119 C124 1.258 . S
O120 C113 1.247 . S
O120 Zn117 2.028 . S
O121 C113 1.258 . S
O121 Zn115 2.035 . S
O122 Zn115 2.028 . S
O122 C125 1.247 . S
O123 Zn117 2.035 . S
O123 C125 1.258 . S
C124 O118 1.247 . S
C124 O119 1.258 . S
C125 O122 1.247 . S
C125 O123 1.258 . S
C126 O128 1.247 . S
C126 O130 1.258 . S
C127 O134 1.247 . S
C127 O135 1.258 . S
O128 C126 1.247 . S
O128 Zn129 2.028 . S
Zn129 O128 2.028 . S
Zn129 O133 2.035 . S
Zn129 O135 2.035 1_565 S
Zn129 O136 2.028 . S
O130 C126 1.258 . S
O130 Zn131 2.035 1_565 S
Zn131 O130 2.035 1_545 S
Zn131 O132 2.028 . S
Zn131 O134 2.028 . S
Zn131 O137 2.035 . S
O132 Zn131 2.028 . S
O132 C138 1.247 . S
O133 Zn129 2.035 . S
O133 C138 1.258 1_565 S
O134 C127 1.247 . S
O134 Zn131 2.028 . S
O135 C127 1.258 . S
O135 Zn129 2.035 1_545 S
O136 Zn129 2.028 . S
O136 C139 1.247 . S
O137 Zn131 2.035 . S
O137 C139 1.258 1_545 S
C138 O132 1.247 . S
C138 O133 1.258 1_545 S
C139 O136 1.247 . S
C139 O137 1.258 1_565 S
C140 O142 1.247 . S
C140 O144 1.258 . S
C141 O148 1.247 . S
C141 O149 1.258 . S
O142 C140 1.247 . S
O142 Zn143 2.028 . S
Zn143 O142 2.028 . S
Zn143 O147 2.035 . S
Zn143 O149 2.035 . S
Zn143 O150 2.028 . S
O144 C140 1.258 . S
O144 Zn145 2.035 . S
Zn145 O144 2.035 . S
Zn145 O146 2.028 . S
Zn145 O148 2.028 . S
Zn145 O151 2.035 . S
O146 Zn145 2.028 . S
O146 C152 1.247 . S
O147 Zn143 2.035 . S
O147 C152 1.258 . S
O148 C141 1.247 . S
O148 Zn145 2.028 . S
O149 C141 1.258 . S
O149 Zn143 2.035 . S
O150 Zn143 2.028 . S
O150 C153 1.247 . S
O151 Zn145 2.035 . S
O151 C153 1.258 . S
C152 O146 1.247 . S
C152 O147 1.258 . S
C153 O150 1.247 . S
C153 O151 1.258 . S
C154 O156 1.280 . S
C154 O158 1.258 . S
C155 O162 1.247 . S
C155 O163 1.258 . S
O156 C154 1.280 . S
O156 Zn157 2.009 1_554 S
Zn157 O156 2.009 1_556 S
Zn157 O161 2.035 . S
Zn157 O163 2.035 1_545 S
Zn157 O164 2.028 1_556 S
O158 C154 1.258 . S
O158 Zn159 2.035 1_545 S
Zn159 O158 2.035 1_565 S
Zn159 O160 2.028 1_554 S
Zn159 O162 2.028 1_554 S
Zn159 O165 2.035 . S
O160 Zn159 2.028 1_556 S
O160 C166 1.247 . S
O161 Zn157 2.035 . S
O161 C166 1.258 1_545 S
O162 C155 1.247 . S
O162 Zn159 2.028 1_556 S
O163 C155 1.258 . S
O163 Zn157 2.035 1_565 S
O164 Zn157 2.028 1_554 S
O164 C167 1.247 . S
O165 Zn159 2.035 . S
O165 C167 1.258 1_565 S
C166 O160 1.247 . S
C166 O161 1.258 1_565 S
C167 O164 1.247 . S
C167 O165 1.258 1_545 S
C168 O170 1.247 . S
C168 O172 1.258 . S
C169 O176 1.247 . S
C169 O177 1.258 . S
O170 C168 1.247 . S
O170 Zn171 2.028 . S
Zn171 O170 2.028 . S
Zn171 O175 2.035 . S
Zn171 O177 2.035 . S
Zn171 O178 2.028 . S
O172 C168 1.258 . S
O172 Zn173 2.035 . S
Zn173 O172 2.035 . S
Zn173 O174 2.028 . S
Zn173 O176 2.028 . S
Zn173 O179 2.035 . S
O174 Zn173 2.028 . S
O174 C180 1.247 . S
O175 Zn171 2.035 . S
O175 C180 1.258 . S
O176 C169 1.247 . S
O176 Zn173 2.028 . S
O177 C169 1.258 . S
O177 Zn171 2.035 . S
O178 Zn171 2.028 . S
O178 C181 1.247 . S
O179 Zn173 2.035 . S
O179 C181 1.258 . S
C180 O174 1.247 . S
C180 O175 1.258 . S
C181 O178 1.247 . S
C181 O179 1.258 . S
C182 O184 1.247 . S
C182 O186 1.258 1_455 S
C183 O190 1.247 . S
C183 O191 1.258 1_655 S
O184 C182 1.247 . S
O184 Zn185 2.028 . S
Zn185 O184 2.028 . S
Zn185 O189 2.035 1_455 S
Zn185 O191 2.035 . S
Zn185 O192 2.028 . S
O186 C182 1.258 1_655 S
O186 Zn187 2.035 . S
Zn187 O186 2.035 . S
Zn187 O188 2.028 . S
Zn187 O190 2.028 . S
Zn187 O193 2.035 1_655 S
O188 Zn187 2.028 . S
O188 C194 1.247 . S
O189 Zn185 2.035 1_655 S
O189 C194 1.258 . S
O190 C183 1.247 . S
O190 Zn187 2.028 . S
O191 C183 1.258 1_455 S
O191 Zn185 2.035 . S
O192 Zn185 2.028 . S
O192 C195 1.247 . S
O193 Zn187 2.035 1_455 S
O193 C195 1.258 . S
C194 O188 1.247 . S
C194 O189 1.258 . S
C195 O192 1.247 . S
C195 O193 1.258 . S
C196 O198 1.247 . S
C196 O200 1.258 . S
C197 O204 1.247 . S
C197 O205 1.258 . S
O198 C196 1.247 . S
O198 Zn199 2.028 . S
Zn199 O198 2.028 . S
Zn199 O203 2.035 . S
Zn199 O205 2.035 . S
Zn199 O206 2.028 . S
O200 C196 1.258 . S
O200 Zn201 2.035 . S
Zn201 O200 2.035 . S
Zn201 O202 2.028 . S
Zn201 O204 2.028 . S
Zn201 O207 2.035 . S
O202 Zn201 2.028 . S
O202 C208 1.247 . S
O203 Zn199 2.035 . S
O203 C208 1.258 . S
O204 C197 1.247 . S
O204 Zn201 2.028 . S
O205 C197 1.258 . S
O205 Zn199 2.035 . S
O206 Zn199 2.028 . S
O206 C209 1.247 . S
O207 Zn201 2.035 . S
O207 C209 1.258 . S
C208 O202 1.247 . S
C208 O203 1.258 . S
C209 O206 1.247 . S
C209 O207 1.258 . S
C210 O212 1.247 . S
C210 O214 1.258 . S
C211 O218 1.247 . S
C211 O219 1.258 . S
O212 C210 1.247 . S
O212 Zn213 2.028 . S
Zn213 O212 2.028 . S
Zn213 O217 2.035 . S
Zn213 O219 2.035 . S
Zn213 O220 2.028 . S
O214 C210 1.258 . S
O214 Zn215 2.035 . S
Zn215 O214 2.035 . S
Zn215 O216 2.028 . S
Zn215 O218 2.028 . S
Zn215 O221 2.035 . S
O216 Zn215 2.028 . S
O216 C222 1.247 . S
O217 Zn213 2.035 . S
O217 C222 1.258 . S
O218 C211 1.247 . S
O218 Zn215 2.028 . S
O219 C211 1.258 . S
O219 Zn213 2.035 . S
O220 Zn213 2.028 . S
O220 C223 1.247 . S
O221 Zn215 2.035 . S
O221 C223 1.258 . S
C222 O216 1.247 . S
C222 O217 1.258 . S
C223 O220 1.247 . S
C223 O221 1.258 . S
C224 O226 1.247 . S
C224 O228 1.258 . S
C225 O232 1.247 . S
C225 O233 1.258 . S
O226 C224 1.247 . S
O226 Zn227 2.028 . S
Zn227 O226 2.028 . S
Zn227 O231 2.035 . S
Zn227 O233 2.035 . S
Zn227 O234 2.028 . S
O228 C224 1.258 . S
O228 Zn229 2.035 . S
Zn229 O228 2.035 . S
Zn229 O230 2.028 . S
Zn229 O232 2.028 . S
Zn229 O235 2.035 . S
O230 Zn229 2.028 . S
O230 C236 1.247 . S
O231 Zn227 2.035 . S
O231 C236 1.258 . S
O232 C225 1.247 . S
O232 Zn229 2.028 . S
O233 C225 1.258 . S
O233 Zn227 2.035 . S
O234 Zn227 2.028 . S
O234 C237 1.247 . S
O235 Zn229 2.035 . S
O235 C237 1.258 . S
C236 O230 1.247 . S
C236 O231 1.258 . S
C237 O234 1.247 . S
C237 O235 1.258 . S
C238 O240 1.247 . S
C238 O242 1.258 . S
C239 O246 1.247 . S
C239 O247 1.258 . S
O240 C238 1.247 . S
O240 Zn241 2.028 . S
Zn241 O240 2.028 . S
Zn241 O245 2.035 . S
Zn241 O247 2.035 . S
Zn241 O248 2.028 . S
O242 C238 1.258 . S
O242 Zn243 2.035 . S
Zn243 O242 2.035 . S
Zn243 O244 2.028 . S
Zn243 O246 2.028 . S
Zn243 O249 2.035 . S
O244 Zn243 2.028 . S
O244 C250 1.247 . S
O245 Zn241 2.035 . S
O245 C250 1.258 . S
O246 C239 1.247 . S
O246 Zn243 2.028 . S
O247 C239 1.258 . S
O247 Zn241 2.035 . S
O248 Zn241 2.028 . S
O248 C251 1.247 . S
O249 Zn243 2.035 . S
O249 C251 1.258 . S
C250 O244 1.247 . S
C250 O245 1.258 . S
C251 O248 1.247 . S
C251 O249 1.258 . S
C252 O254 1.247 . S
C252 O256 1.258 . S
C253 O260 1.247 . S
C253 O261 1.258 . S
O254 C252 1.247 . S
O254 Zn255 2.028 1_556 S
Zn255 O254 2.028 1_554 S
Zn255 O259 2.035 1_655 S
Zn255 O261 2.035 1_655 S
Zn255 O262 2.028 . S
O256 C252 1.258 . S
O256 Zn257 2.035 1_655 S
Zn257 O256 2.035 1_455 S
Zn257 O258 2.028 . S
Zn257 O260 2.028 1_556 S
Zn257 O263 2.035 1_455 S
O258 Zn257 2.028 . S
O258 C264 1.247 1_556 S
O259 Zn255 2.035 1_455 S
O259 C264 1.258 . S
O260 C253 1.247 . S
O260 Zn257 2.028 1_554 S
O261 C253 1.258 . S
O261 Zn255 2.035 1_455 S
O262 Zn255 2.028 . S
O262 C265 1.247 1_554 S
O263 Zn257 2.035 1_655 S
O263 C265 1.258 . S
C264 O258 1.247 1_554 S
C264 O259 1.258 . S
C265 O262 1.247 1_556 S
C265 O263 1.258 . S
C266 O268 1.247 . S
C266 O270 1.258 . S
C267 O274 1.247 . S
C267 O275 1.258 . S
O268 C266 1.247 . S
O268 Zn269 2.028 . S
Zn269 O268 2.028 . S
Zn269 O273 2.035 . S
Zn269 O275 2.035 . S
Zn269 O276 2.028 . S
O270 C266 1.258 . S
O270 Zn271 2.035 . S
Zn271 O270 2.035 . S
Zn271 O272 2.028 . S
Zn271 O274 2.028 . S
Zn271 O277 2.035 . S
O272 Zn271 2.028 . S
O272 C278 1.247 . S
O273 Zn269 2.035 . S
O273 C278 1.258 . S
O274 C267 1.247 . S
O274 Zn271 2.028 . S
O275 C267 1.258 . S
O275 Zn269 2.035 . S
O276 Zn269 2.028 . S
O276 C279 1.247 . S
O277 Zn271 2.035 . S
O277 C279 1.258 . S
C278 O272 1.247 . S
C278 O273 1.258 . S
C279 O276 1.247 . S
C279 O277 1.258 . S
C280 O282 1.247 . S
C280 O284 1.258 . S
C281 O288 1.247 . S
C281 O289 1.258 . S
O282 C280 1.247 . S
O282 Zn283 2.028 . S
Zn283 O282 2.028 . S
Zn283 O287 2.035 . S
Zn283 O289 2.035 . S
Zn283 O290 2.028 . S
O284 C280 1.258 . S
O284 Zn285 2.035 . S
Zn285 O284 2.035 . S
Zn285 O286 2.028 . S
Zn285 O288 2.028 . S
Zn285 O291 2.035 . S
O286 Zn285 2.028 . S
O286 C292 1.247 . S
O287 Zn283 2.035 . S
O287 C292 1.258 . S
O288 C281 1.247 . S
O288 Zn285 2.028 . S
O289 C281 1.258 . S
O289 Zn283 2.035 . S
O290 Zn283 2.028 . S
O290 C293 1.247 . S
O291 Zn285 2.035 . S
O291 C293 1.258 . S
C292 O286 1.247 . S
C292 O287 1.258 . S
C293 O290 1.247 . S
C293 O291 1.258 . S
C294 O296 1.247 . S
C294 O298 1.258 . S
C295 O302 1.247 . S
C295 O303 1.258 . S
O296 C294 1.247 . S
O296 Zn297 2.028 . S
Zn297 O296 2.028 . S
Zn297 O301 2.035 . S
Zn297 O303 2.035 . S
Zn297 O304 2.028 . S
O298 C294 1.258 . S
O298 Zn299 2.035 . S
Zn299 O298 2.035 . S
Zn299 O300 2.028 . S
Zn299 O302 2.028 . S
Zn299 O305 2.035 . S
O300 Zn299 2.028 . S
O300 C306 1.247 . S
O301 Zn297 2.035 . S
O301 C306 1.258 . S
O302 C295 1.247 . S
O302 Zn299 2.028 . S
O303 C295 1.258 . S
O303 Zn297 2.035 . S
O304 Zn297 2.028 . S
O304 C307 1.247 . S
O305 Zn299 2.035 . S
O305 C307 1.258 . S
C306 O300 1.247 . S
C306 O301 1.258 . S
C307 O304 1.247 . S
C307 O305 1.258 . S
C308 O310 1.247 . S
C308 O312 1.258 . S
C309 O316 1.247 . S
C309 O317 1.258 . S
O310 C308 1.247 . S
O310 Zn311 2.028 1_556 S
Zn311 O310 2.028 1_554 S
Zn311 O315 2.035 . S
Zn311 O317 2.035 . S
Zn311 O318 2.028 1_554 S
O312 C308 1.258 . S
O312 Zn313 2.035 . S
Zn313 O312 2.035 . S
Zn313 O314 2.028 1_556 S
Zn313 O316 2.028 1_556 S
Zn313 O319 2.035 . S
O314 Zn313 2.028 1_554 S
O314 C320 1.247 . S
O315 Zn311 2.035 . S
O315 C320 1.258 . S
O316 C309 1.247 . S
O316 Zn313 2.028 1_554 S
O317 C309 1.258 . S
O317 Zn311 2.035 . S
O318 Zn311 2.028 1_556 S
O318 C321 1.247 . S
O319 Zn313 2.035 . S
O319 C321 1.258 . S
C320 O314 1.247 . S
C320 O315 1.258 . S
C321 O318 1.247 . S
C321 O319 1.258 . S
C322 O324 1.247 . S
C322 O326 1.258 . S
C323 O330 1.247 . S
C323 O331 1.258 . S
O324 C322 1.247 . S
O324 Zn325 2.028 . S
Zn325 O324 2.028 . S
Zn325 O329 2.035 . S
Zn325 O331 2.035 . S
Zn325 O332 2.028 . S
O326 C322 1.258 . S
O326 Zn327 2.035 . S
Zn327 O326 2.035 . S
Zn327 O328 2.028 . S
Zn327 O330 2.028 . S
Zn327 O333 2.035 . S
O328 Zn327 2.028 . S
O328 C334 1.247 . S
O329 Zn325 2.035 . S
O329 C334 1.258 . S
O330 C323 1.247 . S
O330 Zn327 2.028 . S
O331 C323 1.258 . S
O331 Zn325 2.035 . S
O332 Zn325 2.028 . S
O332 C335 1.247 . S
O333 Zn327 2.035 . S
O333 C335 1.258 . S
C334 O328 1.247 . S
C334 O329 1.258 . S
C335 O332 1.247 . S
C335 O333 1.258 . S
H336 C344 0.929 . S
H337 C346 0.930 . S
H338 C348 0.930 . S
H339 C351 0.929 . S
H340 C354 0.930 . S
H341 C356 0.960 . S
H342 C356 0.960 . S
H343 C356 0.960 . S
C344 H336 0.929 . S
C344 C345 1.377 . S
C344 C346 1.384 . S
C345 C344 1.377 . S
C345 C351 1.390 . S
C346 H337 0.930 . S
C346 C344 1.384 . S
C346 C347 1.372 . S
C347 C346 1.372 . S
C347 C348 1.400 . S
C347 C352 1.490 . S
C348 H338 0.930 . S
C348 C347 1.400 . S
C348 C351 1.386 . S
H349 C365 0.930 . S
H350 C366 0.931 . S
C351 H339 0.929 . S
C351 C345 1.390 . S
C351 C348 1.386 . S
C352 C347 1.490 . S
C352 C354 1.395 . S
C352 C355 1.403 . S
H353 C359 0.930 . S
C354 H340 0.930 . S
C354 C352 1.395 . S
C354 C357 1.403 . S
C355 C352 1.403 . S
C355 C356 1.524 . S
C355 C359 1.400 . S
C356 H341 0.960 . S
C356 H342 0.960 . S
C356 H343 0.960 . S
C356 C355 1.524 . S
C357 C354 1.403 . S
C357 C358 1.392 . S
C357 C361 1.495 . S
C358 C357 1.392 . S
C358 C359 1.385 . S
C358 C360 1.478 . S
C359 H353 0.930 . S
C359 C355 1.400 . S
C359 C358 1.385 . S
C360 C358 1.478 . S
C360 C362 1.381 . S
C360 C366 1.383 . S
C361 C357 1.495 . S
C361 H367 0.959 . S
C361 H368 0.961 . S
C361 H369 0.960 . S
C362 C360 1.381 . S
C362 C363 1.394 . S
C362 H370 0.930 . S
C363 C362 1.394 . S
C363 C364 1.383 . S
C363 H371 0.929 . S
C364 C363 1.383 . S
C364 C365 1.377 . S
C365 H349 0.930 . S
C365 C364 1.377 . S
C365 C366 1.379 . S
C366 H350 0.931 . S
C366 C360 1.383 . S
C366 C365 1.379 . S
H367 C361 0.959 . S
H368 C361 0.961 . S
H369 C361 0.960 . S
H370 C362 0.930 . S
H371 C363 0.929 . S
H372 C380 0.929 . S
H373 C382 0.930 . S
H374 C384 0.905 1_455 S
H375 C387 0.924 1_455 S
H376 C390 0.930 . S
H377 C392 0.960 . S
H378 C392 0.960 . S
H379 C392 0.960 . S
C380 H372 0.929 . S
C380 C381 1.377 . S
C380 C382 1.384 . S
C381 C380 1.377 . S
C381 C387 1.390 . S
C382 H373 0.930 . S
C382 C380 1.384 . S
C382 C383 1.372 . S
C383 C382 1.372 . S
C383 C384 1.400 . S
C383 C388 1.490 . S
C384 H374 0.905 1_655 S
C384 C383 1.400 . S
C384 C387 1.386 . S
H385 C401 0.930 . S
H386 C402 0.931 . S
C387 H375 0.924 1_655 S
C387 C381 1.390 . S
C387 C384 1.386 . S
C388 C383 1.490 . S
C388 C390 1.395 . S
C388 C391 1.403 . S
H389 C395 0.930 . S
C390 H376 0.930 . S
C390 C388 1.395 . S
C390 C393 1.403 . S
C391 C388 1.403 . S
C391 C392 1.524 . S
C391 C395 1.400 . S
C392 H377 0.960 . S
C392 H378 0.960 . S
C392 H379 0.960 . S
C392 C391 1.524 . S
C393 C390 1.403 . S
C393 C394 1.392 . S
C393 C397 1.495 1_655 S
C394 C393 1.392 . S
C394 C395 1.385 . S
C394 C396 1.478 . S
C395 H389 0.930 . S
C395 C391 1.400 . S
C395 C394 1.385 . S
C396 C394 1.478 . S
C396 C398 1.381 . S
C396 C402 1.383 1_655 S
C397 C393 1.495 1_455 S
C397 H403 0.959 . S
C397 H404 0.961 . S
C397 H405 0.960 1_455 S
C398 C396 1.381 . S
C398 C399 1.394 . S
C398 H406 0.930 . S
C399 C398 1.394 . S
C399 C400 1.383 . S
C399 H407 0.929 . S
C400 C399 1.383 . S
C400 C401 1.377 1_655 S
C401 H385 0.930 . S
C401 C400 1.377 1_455 S
C401 C402 1.379 . S
C402 H386 0.931 . S
C402 C396 1.383 1_455 S
C402 C401 1.379 . S
H403 C397 0.959 . S
H404 C397 0.961 . S
H405 C397 0.960 1_655 S
H406 C398 0.930 . S
H407 C399 0.929 . S
H408 C416 0.929 . S
H409 C418 0.930 . S
H410 C420 0.930 . S
H411 C423 0.929 . S
H412 C426 0.930 . S
H413 C428 0.960 . S
H414 C428 0.960 . S
H415 C428 0.960 . S
C416 H408 0.929 . S
C416 C417 1.377 . S
C416 C418 1.384 . S
C417 C416 1.377 . S
C417 C423 1.390 . S
C418 H409 0.930 . S
C418 C416 1.384 . S
C418 C419 1.372 . S
C419 C418 1.372 . S
C419 C420 1.400 . S
C419 C424 1.490 . S
C420 H410 0.930 . S
C420 C419 1.400 . S
C420 C423 1.386 . S
H421 C437 0.930 . S
H422 C438 0.931 . S
C423 H411 0.929 . S
C423 C417 1.390 . S
C423 C420 1.386 . S
C424 C419 1.490 . S
C424 C426 1.395 . S
C424 C427 1.403 . S
H425 C431 0.930 . S
C426 H412 0.930 . S
C426 C424 1.395 . S
C426 C429 1.403 . S
C427 C424 1.403 . S
C427 C428 1.524 . S
C427 C431 1.400 . S
C428 H413 0.960 . S
C428 H414 0.960 . S
C428 H415 0.960 . S
C428 C427 1.524 . S
C429 C426 1.403 . S
C429 C430 1.392 . S
C429 C433 1.495 . S
C430 C429 1.392 . S
C430 C431 1.385 . S
C430 C432 1.478 . S
C431 H425 0.930 . S
C431 C427 1.400 . S
C431 C430 1.385 . S
C432 C430 1.478 . S
C432 C434 1.381 . S
C432 C438 1.383 . S
C433 C429 1.495 . S
C433 H439 0.959 . S
C433 H440 0.961 . S
C433 H441 0.960 . S
C434 C432 1.381 . S
C434 C435 1.394 . S
C434 H442 0.930 . S
C435 C434 1.394 . S
C435 C436 1.383 . S
C435 H443 0.929 . S
C436 C435 1.383 . S
C436 C437 1.377 . S
C437 H421 0.930 . S
C437 C436 1.377 . S
C437 C438 1.379 . S
C438 H422 0.931 . S
C438 C432 1.383 . S
C438 C437 1.379 . S
H439 C433 0.959 . S
H440 C433 0.961 . S
H441 C433 0.960 . S
H442 C434 0.930 . S
H443 C435 0.929 . S
H444 C452 0.929 . S
H445 C454 0.930 . S
H446 C456 0.930 . S
H447 C459 0.929 . S
H448 C462 0.930 . S
H449 C464 0.960 . S
H450 C464 0.960 . S
H451 C464 0.960 . S
C452 H444 0.929 . S
C452 C453 1.377 . S
C452 C454 1.384 . S
C453 C452 1.377 . S
C453 C459 1.390 . S
C454 H445 0.930 . S
C454 C452 1.384 . S
C454 C455 1.372 . S
C455 C454 1.372 . S
C455 C456 1.400 . S
C455 C460 1.490 . S
C456 H446 0.930 . S
C456 C455 1.400 . S
C456 C459 1.386 . S
H457 C473 0.930 . S
H458 C474 0.931 . S
C459 H447 0.929 . S
C459 C453 1.390 . S
C459 C456 1.386 . S
C460 C455 1.490 . S
C460 C462 1.395 . S
C460 C463 1.403 . S
H461 C467 0.930 . S
C462 H448 0.930 . S
C462 C460 1.395 . S
C462 C465 1.403 . S
C463 C460 1.403 . S
C463 C464 1.524 . S
C463 C467 1.400 . S
C464 H449 0.960 . S
C464 H450 0.960 . S
C464 H451 0.960 . S
C464 C463 1.524 . S
C465 C462 1.403 . S
C465 C466 1.392 . S
C465 C469 1.495 . S
C466 C465 1.392 . S
C466 C467 1.385 . S
C466 C468 1.478 . S
C467 H461 0.930 . S
C467 C463 1.400 . S
C467 C466 1.385 . S
C468 C466 1.478 . S
C468 C470 1.381 . S
C468 C474 1.383 . S
C469 C465 1.495 . S
C469 H475 0.959 . S
C469 H476 0.961 . S
C469 H477 0.960 . S
C470 C468 1.381 . S
C470 C471 1.394 . S
C470 H478 0.930 . S
C471 C470 1.394 . S
C471 C472 1.383 . S
C471 H479 0.929 . S
C472 C471 1.383 . S
C472 C473 1.377 . S
C473 H457 0.930 . S
C473 C472 1.377 . S
C473 C474 1.379 . S
C474 H458 0.931 . S
C474 C468 1.383 . S
C474 C473 1.379 . S
H475 C469 0.959 . S
H476 C469 0.961 . S
H477 C469 0.960 . S
H478 C470 0.930 . S
H479 C471 0.929 . S
H480 C488 0.929 . S
H481 C490 0.930 . S
H482 C492 0.930 . S
H483 C495 0.929 . S
H484 C498 0.930 . S
H485 C500 0.960 . S
H486 C500 0.960 . S
H487 C500 0.960 . S
C488 H480 0.929 . S
C488 C489 1.377 . S
C488 C490 1.384 . S
C489 C488 1.377 . S
C489 C495 1.390 . S
C490 H481 0.930 . S
C490 C488 1.384 . S
C490 C491 1.372 . S
C491 C490 1.372 . S
C491 C492 1.400 . S
C491 C496 1.490 . S
C492 H482 0.930 . S
C492 C491 1.400 . S
C492 C495 1.386 . S
H493 C509 0.930 . S
H494 C510 0.931 . S
C495 H483 0.929 . S
C495 C489 1.390 . S
C495 C492 1.386 . S
C496 C491 1.490 . S
C496 C498 1.395 . S
C496 C499 1.403 . S
H497 C503 0.930 . S
C498 H484 0.930 . S
C498 C496 1.395 . S
C498 C501 1.403 . S
C499 C496 1.403 . S
C499 C500 1.524 . S
C499 C503 1.400 . S
C500 H485 0.960 . S
C500 H486 0.960 . S
C500 H487 0.960 . S
C500 C499 1.524 . S
C501 C498 1.403 . S
C501 C502 1.392 . S
C501 C505 1.495 . S
C502 C501 1.392 . S
C502 C503 1.385 . S
C502 C504 1.478 . S
C503 H497 0.930 . S
C503 C499 1.400 . S
C503 C502 1.385 . S
C504 C502 1.478 . S
C504 C506 1.381 . S
C504 C510 1.383 . S
C505 C501 1.495 . S
C505 H511 0.959 . S
C505 H512 0.961 . S
C505 H513 0.960 . S
C506 C504 1.381 . S
C506 C507 1.394 . S
C506 H514 0.930 . S
C507 C506 1.394 . S
C507 C508 1.383 . S
C507 H515 0.929 . S
C508 C507 1.383 . S
C508 C509 1.377 . S
C509 H493 0.930 . S
C509 C508 1.377 . S
C509 C510 1.379 . S
C510 H494 0.931 . S
C510 C504 1.383 . S
C510 C509 1.379 . S
H511 C505 0.959 . S
H512 C505 0.961 . S
H513 C505 0.960 . S
H514 C506 0.930 . S
H515 C507 0.929 . S
H516 C524 0.929 . S
H517 C526 0.930 . S
H518 C528 0.930 . S
H519 C531 0.929 . S
H520 C534 0.930 . S
H521 C536 0.960 . S
H522 C536 0.960 . S
H523 C536 0.960 . S
C524 H516 0.929 . S
C524 C525 1.377 . S
C524 C526 1.384 . S
C525 C524 1.377 . S
C525 C531 1.390 . S
C526 H517 0.930 . S
C526 C524 1.384 . S
C526 C527 1.372 . S
C527 C526 1.372 . S
C527 C528 1.400 . S
C527 C532 1.490 . S
C528 H518 0.930 . S
C528 C527 1.400 . S
C528 C531 1.386 . S
H529 C545 0.930 . S
H530 C546 0.931 . S
C531 H519 0.929 . S
C531 C525 1.390 . S
C531 C528 1.386 . S
C532 C527 1.490 . S
C532 C534 1.395 . S
C532 C535 1.403 . S
H533 C539 0.930 . S
C534 H520 0.930 . S
C534 C532 1.395 . S
C534 C537 1.403 . S
C535 C532 1.403 . S
C535 C536 1.524 . S
C535 C539 1.400 . S
C536 H521 0.960 . S
C536 H522 0.960 . S
C536 H523 0.960 . S
C536 C535 1.524 . S
C537 C534 1.403 . S
C537 C538 1.392 . S
C537 C541 1.495 . S
C538 C537 1.392 . S
C538 C539 1.385 . S
C538 C540 1.478 . S
C539 H533 0.930 . S
C539 C535 1.400 . S
C539 C538 1.385 . S
C540 C538 1.478 . S
C540 C542 1.381 . S
C540 C546 1.383 . S
C541 C537 1.495 . S
C541 H547 0.959 . S
C541 H548 0.961 . S
C541 H549 0.960 . S
C542 C540 1.381 . S
C542 C543 1.394 . S
C542 H550 0.930 . S
C543 C542 1.394 . S
C543 C544 1.383 . S
C543 H551 0.929 . S
C544 C543 1.383 . S
C544 C545 1.377 . S
C545 H529 0.930 . S
C545 C544 1.377 . S
C545 C546 1.379 . S
C546 H530 0.931 . S
C546 C540 1.383 . S
C546 C545 1.379 . S
H547 C541 0.959 . S
H548 C541 0.961 . S
H549 C541 0.960 . S
H550 C542 0.930 . S
H551 C543 0.929 . S
H552 C560 0.929 . S
H553 C562 0.930 . S
H554 C564 0.930 . S
H555 C567 0.929 . S
H556 C570 0.930 . S
H557 C572 0.960 . S
H558 C572 0.960 . S
H559 C572 0.960 . S
C560 H552 0.929 . S
C560 C561 1.377 . S
C560 C562 1.384 . S
C561 C560 1.377 . S
C561 C567 1.390 . S
C562 H553 0.930 . S
C562 C560 1.384 . S
C562 C563 1.372 . S
C563 C562 1.372 . S
C563 C564 1.400 . S
C563 C568 1.490 . S
C564 H554 0.930 . S
C564 C563 1.400 . S
C564 C567 1.386 . S
H565 C581 0.930 . S
H566 C582 0.931 . S
C567 H555 0.929 . S
C567 C561 1.390 . S
C567 C564 1.386 . S
C568 C563 1.490 . S
C568 C570 1.395 . S
C568 C571 1.403 . S
H569 C575 0.930 . S
C570 H556 0.930 . S
C570 C568 1.395 . S
C570 C573 1.403 . S
C571 C568 1.403 . S
C571 C572 1.524 . S
C571 C575 1.400 . S
C572 H557 0.960 . S
C572 H558 0.960 . S
C572 H559 0.960 . S
C572 C571 1.524 . S
C573 C570 1.403 . S
C573 C574 1.392 . S
C573 C577 1.495 . S
C574 C573 1.392 . S
C574 C575 1.385 . S
C574 C576 1.478 . S
C575 H569 0.930 . S
C575 C571 1.400 . S
C575 C574 1.385 . S
C576 C574 1.478 . S
C576 C578 1.381 . S
C576 C582 1.383 . S
C577 C573 1.495 . S
C577 H583 0.959 . S
C577 H584 0.961 . S
C577 H585 0.960 . S
C578 C576 1.381 . S
C578 C579 1.394 . S
C578 H586 0.930 . S
C579 C578 1.394 . S
C579 C580 1.383 . S
C579 H587 0.929 . S
C580 C579 1.383 . S
C580 C581 1.377 . S
C581 H565 0.930 . S
C581 C580 1.377 . S
C581 C582 1.379 . S
C582 H566 0.931 . S
C582 C576 1.383 . S
C582 C581 1.379 . S
H583 C577 0.959 . S
H584 C577 0.961 . S
H585 C577 0.960 . S
H586 C578 0.930 . S
H587 C579 0.929 . S
H588 C596 0.929 1_556 S
H589 C598 0.930 1_556 S
H590 C600 0.930 . S
H591 C603 0.929 . S
H592 C606 0.930 . S
H593 C608 0.960 . S
H594 C608 0.960 1_556 S
H595 C608 0.960 . S
C596 H588 0.929 1_554 S
C596 C597 1.377 . S
C596 C598 1.384 . S
C597 C596 1.377 . S
C597 C603 1.390 . S
C598 H589 0.930 1_554 S
C598 C596 1.384 . S
C598 C599 1.372 . S
C599 C598 1.372 . S
C599 C600 1.400 . S
C599 C604 1.490 . S
C600 H590 0.930 . S
C600 C599 1.400 . S
C600 C603 1.386 . S
H601 C617 0.930 . S
H602 C618 0.931 . S
C603 H591 0.929 . S
C603 C597 1.390 . S
C603 C600 1.386 . S
C604 C599 1.490 . S
C604 C606 1.395 . S
C604 C607 1.403 . S
H605 C611 0.930 . S
C606 H592 0.930 . S
C606 C604 1.395 . S
C606 C609 1.403 . S
C607 C604 1.403 . S
C607 C608 1.524 . S
C607 C611 1.400 . S
C608 H593 0.960 . S
C608 H594 0.960 1_554 S
C608 H595 0.960 . S
C608 C607 1.524 . S
C609 C606 1.403 . S
C609 C610 1.392 . S
C609 C613 1.495 . S
C610 C609 1.392 . S
C610 C611 1.385 . S
C610 C612 1.478 . S
C611 H605 0.930 . S
C611 C607 1.400 . S
C611 C610 1.385 . S
C612 C610 1.478 . S
C612 C614 1.381 1_554 S
C612 C618 1.383 . S
C613 C609 1.495 . S
C613 H619 0.959 . S
C613 H620 0.961 . S
C613 H621 0.960 . S
C614 C612 1.381 1_556 S
C614 C615 1.394 . S
C614 H622 0.930 . S
C615 C614 1.394 . S
C615 C616 1.383 1_556 S
C615 H623 0.929 . S
C616 C615 1.383 1_554 S
C616 C617 1.377 . S
C617 H601 0.930 . S
C617 C616 1.377 . S
C617 C618 1.379 . S
C618 H602 0.931 . S
C618 C612 1.383 . S
C618 C617 1.379 . S
H619 C613 0.959 . S
H620 C613 0.961 . S
H621 C613 0.960 . S
H622 C614 0.930 . S
H623 C615 0.929 . S
H624 C632 0.929 1_565 S
H625 C634 0.930 1_565 S
H626 C636 0.930 . S
H627 C639 0.929 . S
H628 C642 0.930 . S
H629 C644 0.960 . S
H630 C644 0.960 . S
H631 C644 0.960 1_545 S
C632 H624 0.929 1_545 S
C632 C633 1.377 . S
C632 C634 1.384 . S
C633 C632 1.377 . S
C633 C639 1.390 . S
C634 H625 0.930 1_545 S
C634 C632 1.384 . S
C634 C635 1.372 . S
C635 C634 1.372 . S
C635 C636 1.400 . S
C635 C640 1.490 . S
C636 H626 0.930 . S
C636 C635 1.400 . S
C636 C639 1.386 . S
H637 C653 0.930 . S
H638 C654 0.931 . S
C639 H627 0.929 . S
C639 C633 1.390 . S
C639 C636 1.386 . S
C640 C635 1.490 . S
C640 C642 1.395 . S
C640 C643 1.403 . S
H641 C647 0.930 . S
C642 H628 0.930 . S
C642 C640 1.395 . S
C642 C645 1.403 . S
C643 C640 1.403 . S
C643 C644 1.524 1_545 S
C643 C647 1.400 . S
C644 H629 0.960 . S
C644 H630 0.960 . S
C644 H631 0.960 1_565 S
C644 C643 1.524 1_565 S
C645 C642 1.403 . S
C645 C646 1.392 . S
C645 C649 1.495 . S
C646 C645 1.392 . S
C646 C647 1.385 . S
C646 C648 1.478 . S
C647 H641 0.930 . S
C647 C643 1.400 . S
C647 C646 1.385 . S
C648 C646 1.478 . S
C648 C650 1.381 . S
C648 C654 1.383 . S
C649 C645 1.495 . S
C649 H655 0.959 . S
C649 H656 0.961 . S
C649 H657 0.960 . S
C650 C648 1.381 . S
C650 C651 1.394 1_545 S
C650 H658 0.930 1_545 S
C651 C650 1.394 1_565 S
C651 C652 1.383 1_565 S
C651 H659 0.929 . S
C652 C651 1.383 1_545 S
C652 C653 1.377 . S
C653 H637 0.930 . S
C653 C652 1.377 . S
C653 C654 1.379 . S
C654 H638 0.931 . S
C654 C648 1.383 . S
C654 C653 1.379 . S
H655 C649 0.959 . S
H656 C649 0.961 . S
H657 C649 0.960 . S
H658 C650 0.930 1_565 S
H659 C651 0.929 . S
H660 C668 0.929 . S
H661 C670 0.930 . S
H662 C672 0.930 . S
H663 C675 0.929 . S
H664 C678 0.930 . S
H665 C680 0.960 . S
H666 C680 0.960 . S
H667 C680 0.960 . S
C668 H660 0.929 . S
C668 C669 1.377 . S
C668 C670 1.384 . S
C669 C668 1.377 . S
C669 C675 1.390 . S
C670 H661 0.930 . S
C670 C668 1.384 . S
C670 C671 1.372 . S
C671 C670 1.372 . S
C671 C672 1.400 . S
C671 C676 1.490 . S
C672 H662 0.930 . S
C672 C671 1.400 . S
C672 C675 1.386 . S
H673 C689 0.930 . S
H674 C690 0.931 . S
C675 H663 0.929 . S
C675 C669 1.390 . S
C675 C672 1.386 . S
C676 C671 1.490 . S
C676 C678 1.395 . S
C676 C679 1.403 . S
H677 C683 0.930 . S
C678 H664 0.930 . S
C678 C676 1.395 . S
C678 C681 1.403 . S
C679 C676 1.403 . S
C679 C680 1.524 . S
C679 C683 1.400 . S
C680 H665 0.960 . S
C680 H666 0.960 . S
C680 H667 0.960 . S
C680 C679 1.524 . S
C681 C678 1.403 . S
C681 C682 1.392 . S
C681 C685 1.495 . S
C682 C681 1.392 . S
C682 C683 1.385 . S
C682 C684 1.478 . S
C683 H677 0.930 . S
C683 C679 1.400 . S
C683 C682 1.385 . S
C684 C682 1.478 . S
C684 C686 1.381 . S
C684 C690 1.383 . S
C685 C681 1.495 . S
C685 H691 0.959 . S
C685 H692 0.961 . S
C685 H693 0.960 . S
C686 C684 1.381 . S
C686 C687 1.394 . S
C686 H694 0.930 . S
C687 C686 1.394 . S
C687 C688 1.383 . S
C687 H695 0.929 . S
C688 C687 1.383 . S
C688 C689 1.377 . S
C689 H673 0.930 . S
C689 C688 1.377 . S
C689 C690 1.379 . S
C690 H674 0.931 . S
C690 C684 1.383 . S
C690 C689 1.379 . S
H691 C685 0.959 . S
H692 C685 0.961 . S
H693 C685 0.960 . S
H694 C686 0.930 . S
H695 C687 0.929 . S
H696 C704 0.929 . S
H697 C706 0.930 . S
H698 C708 0.930 . S
H699 C711 0.929 . S
H700 C714 0.930 . S
H701 C716 0.960 . S
H702 C716 0.960 . S
H703 C716 0.960 . S
C704 H696 0.929 . S
C704 C705 1.377 . S
C704 C706 1.384 . S
C705 C704 1.377 . S
C705 C711 1.390 1_565 S
C706 H697 0.930 . S
C706 C704 1.384 . S
C706 C707 1.372 . S
C707 C706 1.372 . S
C707 C708 1.400 1_565 S
C707 C712 1.490 . S
C708 H698 0.930 . S
C708 C707 1.400 1_545 S
C708 C711 1.386 . S
H709 C725 0.930 1_545 S
H710 C726 0.904 1_545 S
C711 H699 0.929 . S
C711 C705 1.390 1_545 S
C711 C708 1.386 . S
C712 C707 1.490 . S
C712 C714 1.395 . S
C712 C715 1.403 . S
H713 C719 0.930 . S
C714 H700 0.930 . S
C714 C712 1.395 . S
C714 C717 1.403 . S
C715 C712 1.403 . S
C715 C716 1.524 . S
C715 C719 1.400 . S
C716 H701 0.960 . S
C716 H702 0.960 . S
C716 H703 0.960 . S
C716 C715 1.524 . S
C717 C714 1.403 . S
C717 C718 1.392 . S
C717 C721 1.495 . S
C718 C717 1.392 . S
C718 C719 1.385 . S
C718 C720 1.478 . S
C719 H713 0.930 . S
C719 C715 1.400 . S
C719 C718 1.385 . S
C720 C718 1.478 . S
C720 C722 1.381 . S
C720 C726 1.408 . S
C721 C717 1.495 . S
C721 H727 0.959 . S
C721 H728 0.961 1_565 S
C721 H729 0.960 . S
C722 C720 1.381 . S
C722 C723 1.394 . S
C722 H730 0.930 . S
C723 C722 1.394 . S
C723 C724 1.383 . S
C723 H731 0.929 . S
C724 C723 1.383 . S
C724 C725 1.377 . S
C725 H709 0.930 1_565 S
C725 C724 1.377 . S
C725 C726 1.382 . S
C726 H710 0.904 1_565 S
C726 C720 1.408 . S
C726 C725 1.382 . S
H727 C721 0.959 . S
H728 C721 0.961 1_545 S
H729 C721 0.960 . S
H730 C722 0.930 . S
H731 C723 0.929 . S
H732 C740 0.929 . S
H733 C742 0.930 . S
H734 C744 0.930 . S
H735 C747 0.929 . S
H736 C750 0.930 . S
H737 C752 0.960 . S
H738 C752 0.960 . S
H739 C752 0.960 . S
C740 H732 0.929 . S
C740 C741 1.377 . S
C740 C742 1.384 . S
C741 C740 1.377 . S
C741 C747 1.390 . S
C742 H733 0.930 . S
C742 C740 1.384 . S
C742 C743 1.372 . S
C743 C742 1.372 . S
C743 C744 1.400 . S
C743 C748 1.490 . S
C744 H734 0.930 . S
C744 C743 1.400 . S
C744 C747 1.386 . S
H745 C761 0.930 . S
H746 C762 0.931 . S
C747 H735 0.929 . S
C747 C741 1.390 . S
C747 C744 1.386 . S
C748 C743 1.490 . S
C748 C750 1.395 . S
C748 C751 1.403 . S
H749 C755 0.930 . S
C750 H736 0.930 . S
C750 C748 1.395 . S
C750 C753 1.403 . S
C751 C748 1.403 . S
C751 C752 1.524 . S
C751 C755 1.400 . S
C752 H737 0.960 . S
C752 H738 0.960 . S
C752 H739 0.960 . S
C752 C751 1.524 . S
C753 C750 1.403 . S
C753 C754 1.392 . S
C753 C757 1.495 . S
C754 C753 1.392 . S
C754 C755 1.385 . S
C754 C756 1.478 . S
C755 H749 0.930 . S
C755 C751 1.400 . S
C755 C754 1.385 . S
C756 C754 1.478 . S
C756 C758 1.381 . S
C756 C762 1.383 . S
C757 C753 1.495 . S
C757 H763 0.959 . S
C757 H764 0.961 . S
C757 H765 0.960 . S
C758 C756 1.381 . S
C758 C759 1.394 . S
C758 H766 0.930 . S
C759 C758 1.394 . S
C759 C760 1.383 . S
C759 H767 0.929 . S
C760 C759 1.383 . S
C760 C761 1.377 . S
C761 H745 0.930 . S
C761 C760 1.377 . S
C761 C762 1.379 . S
C762 H746 0.931 . S
C762 C756 1.383 . S
C762 C761 1.379 . S
H763 C757 0.959 . S
H764 C757 0.961 . S
H765 C757 0.960 . S
H766 C758 0.930 . S
H767 C759 0.929 . S
H768 C776 0.929 . S
H769 C778 0.930 . S
H770 C780 0.930 . S
H771 C783 0.929 . S
H772 C786 0.930 . S
H773 C788 0.960 . S
H774 C788 0.960 . S
H775 C788 0.960 . S
C776 H768 0.929 . S
C776 C777 1.377 . S
C776 C778 1.384 . S
C777 C776 1.377 . S
C777 C783 1.390 . S
C778 H769 0.930 . S
C778 C776 1.384 . S
C778 C779 1.372 . S
C779 C778 1.372 . S
C779 C780 1.400 . S
C779 C784 1.490 . S
C780 H770 0.930 . S
C780 C779 1.400 . S
C780 C783 1.386 . S
H781 C797 0.930 . S
H782 C798 0.931 . S
C783 H771 0.929 . S
C783 C777 1.390 . S
C783 C780 1.386 . S
C784 C779 1.490 . S
C784 C786 1.395 . S
C784 C787 1.403 . S
H785 C791 0.930 . S
C786 H772 0.930 . S
C786 C784 1.395 . S
C786 C789 1.403 . S
C787 C784 1.403 . S
C787 C788 1.524 . S
C787 C791 1.400 . S
C788 H773 0.960 . S
C788 H774 0.960 . S
C788 H775 0.960 . S
C788 C787 1.524 . S
C789 C786 1.403 . S
C789 C790 1.392 . S
C789 C793 1.495 . S
C790 C789 1.392 . S
C790 C791 1.385 . S
C790 C792 1.478 . S
C791 H785 0.930 . S
C791 C787 1.400 . S
C791 C790 1.385 . S
C792 C790 1.478 . S
C792 C794 1.381 . S
C792 C798 1.383 . S
C793 C789 1.495 . S
C793 H799 0.959 . S
C793 H800 0.961 . S
C793 H801 0.960 . S
C794 C792 1.381 . S
C794 C795 1.394 . S
C794 H802 0.930 . S
C795 C794 1.394 . S
C795 C796 1.383 . S
C795 H803 0.929 . S
C796 C795 1.383 . S
C796 C797 1.377 . S
C797 H781 0.930 . S
C797 C796 1.377 . S
C797 C798 1.379 . S
C798 H782 0.931 . S
C798 C792 1.383 . S
C798 C797 1.379 . S
H799 C793 0.959 . S
H800 C793 0.961 . S
H801 C793 0.960 . S
H802 C794 0.930 . S
H803 C795 0.929 . S
H804 C812 0.929 . S
H805 C814 0.930 . S
H806 C816 0.930 . S
H807 C819 0.929 . S
H808 C822 0.930 . S
H809 C824 0.960 . S
H810 C824 0.960 . S
H811 C824 0.960 . S
C812 H804 0.929 . S
C812 C813 1.377 . S
C812 C814 1.384 . S
C813 C812 1.377 . S
C813 C819 1.390 . S
C814 H805 0.930 . S
C814 C812 1.384 . S
C814 C815 1.372 . S
C815 C814 1.372 . S
C815 C816 1.400 . S
C815 C820 1.490 . S
C816 H806 0.930 . S
C816 C815 1.400 . S
C816 C819 1.386 . S
H817 C833 0.930 . S
H818 C834 0.931 . S
C819 H807 0.929 . S
C819 C813 1.390 . S
C819 C816 1.386 . S
C820 C815 1.490 . S
C820 C822 1.395 . S
C820 C823 1.403 . S
H821 C827 0.930 . S
C822 H808 0.930 . S
C822 C820 1.395 . S
C822 C825 1.403 . S
C823 C820 1.403 . S
C823 C824 1.524 . S
C823 C827 1.400 . S
C824 H809 0.960 . S
C824 H810 0.960 . S
C824 H811 0.960 . S
C824 C823 1.524 . S
C825 C822 1.403 . S
C825 C826 1.392 . S
C825 C829 1.495 . S
C826 C825 1.392 . S
C826 C827 1.385 . S
C826 C828 1.478 . S
C827 H821 0.930 . S
C827 C823 1.400 . S
C827 C826 1.385 . S
C828 C826 1.478 . S
C828 C830 1.381 . S
C828 C834 1.383 . S
C829 C825 1.495 . S
C829 H835 0.959 . S
C829 H836 0.961 . S
C829 H837 0.960 . S
C830 C828 1.381 . S
C830 C831 1.394 . S
C830 H838 0.930 . S
C831 C830 1.394 . S
C831 C832 1.383 . S
C831 H839 0.929 . S
C832 C831 1.383 . S
C832 C833 1.377 . S
C833 H817 0.930 . S
C833 C832 1.377 . S
C833 C834 1.379 . S
C834 H818 0.931 . S
C834 C828 1.383 . S
C834 C833 1.379 . S
H835 C829 0.959 . S
H836 C829 0.961 . S
H837 C829 0.960 . S
H838 C830 0.930 . S
H839 C831 0.929 . S
H840 C848 0.929 . S
H841 C850 0.930 . S
H842 C852 0.930 . S
H843 C855 0.929 . S
H844 C858 0.930 . S
H845 C860 0.960 . S
H846 C860 0.960 . S
H847 C860 0.960 . S
C848 H840 0.929 . S
C848 C849 1.377 . S
C848 C850 1.384 . S
C849 C848 1.377 . S
C849 C855 1.390 . S
C850 H841 0.930 . S
C850 C848 1.384 . S
C850 C851 1.372 . S
C851 C850 1.372 . S
C851 C852 1.400 . S
C851 C856 1.490 . S
C852 H842 0.930 . S
C852 C851 1.400 . S
C852 C855 1.386 . S
H853 C869 0.930 . S
H854 C870 0.931 . S
C855 H843 0.929 . S
C855 C849 1.390 . S
C855 C852 1.386 . S
C856 C851 1.490 . S
C856 C858 1.395 . S
C856 C859 1.403 . S
H857 C863 0.930 . S
C858 H844 0.930 . S
C858 C856 1.395 . S
C858 C861 1.403 . S
C859 C856 1.403 . S
C859 C860 1.524 . S
C859 C863 1.400 . S
C860 H845 0.960 . S
C860 H846 0.960 . S
C860 H847 0.960 . S
C860 C859 1.524 . S
C861 C858 1.403 . S
C861 C862 1.392 . S
C861 C865 1.495 . S
C862 C861 1.392 . S
C862 C863 1.385 . S
C862 C864 1.478 . S
C863 H857 0.930 . S
C863 C859 1.400 . S
C863 C862 1.385 . S
C864 C862 1.478 . S
C864 C866 1.381 . S
C864 C870 1.383 . S
C865 C861 1.495 . S
C865 H871 0.959 . S
C865 H872 0.961 . S
C865 H873 0.960 . S
C866 C864 1.381 . S
C866 C867 1.394 . S
C866 H874 0.930 . S
C867 C866 1.394 . S
C867 C868 1.383 . S
C867 H875 0.929 . S
C868 C867 1.383 . S
C868 C869 1.377 . S
C869 H853 0.930 . S
C869 C868 1.377 . S
C869 C870 1.379 . S
C870 H854 0.931 . S
C870 C864 1.383 . S
C870 C869 1.379 . S
H871 C865 0.959 . S
H872 C865 0.961 . S
H873 C865 0.960 . S
H874 C866 0.930 . S
H875 C867 0.929 . S
H876 C884 0.929 . S
H877 C886 0.930 . S
H878 C888 0.930 . S
H879 C891 0.929 . S
H880 C894 0.930 . S
H881 C896 0.960 . S
H882 C896 0.960 . S
H883 C896 0.960 . S
C884 H876 0.929 . S
C884 C885 1.377 . S
C884 C886 1.384 . S
C885 C884 1.377 . S
C885 C891 1.390 . S
C886 H877 0.930 . S
C886 C884 1.384 . S
C886 C887 1.372 . S
C887 C886 1.372 . S
C887 C888 1.400 . S
C887 C892 1.490 . S
C888 H878 0.930 . S
C888 C887 1.400 . S
C888 C891 1.386 . S
H889 C905 0.930 . S
H890 C906 0.931 . S
C891 H879 0.929 . S
C891 C885 1.390 . S
C891 C888 1.386 . S
C892 C887 1.490 . S
C892 C894 1.395 . S
C892 C895 1.403 . S
H893 C899 0.930 . S
C894 H880 0.930 . S
C894 C892 1.395 . S
C894 C897 1.403 . S
C895 C892 1.403 . S
C895 C896 1.524 . S
C895 C899 1.400 . S
C896 H881 0.960 . S
C896 H882 0.960 . S
C896 H883 0.960 . S
C896 C895 1.524 . S
C897 C894 1.403 . S
C897 C898 1.392 . S
C897 C901 1.495 . S
C898 C897 1.392 . S
C898 C899 1.385 . S
C898 C900 1.478 . S
C899 H893 0.930 . S
C899 C895 1.400 . S
C899 C898 1.385 . S
C900 C898 1.478 . S
C900 C902 1.381 . S
C900 C906 1.383 . S
C901 C897 1.495 . S
C901 H907 0.959 . S
C901 H908 0.961 . S
C901 H909 0.960 . S
C902 C900 1.381 . S
C902 C903 1.394 . S
C902 H910 0.930 . S
C903 C902 1.394 . S
C903 C904 1.383 . S
C903 H911 0.929 . S
C904 C903 1.383 . S
C904 C905 1.377 . S
C905 H889 0.930 . S
C905 C904 1.377 . S
C905 C906 1.379 . S
C906 H890 0.931 . S
C906 C900 1.383 . S
C906 C905 1.379 . S
H907 C901 0.959 . S
H908 C901 0.961 . S
H909 C901 0.960 . S
H910 C902 0.930 . S
H911 C903 0.929 . S
H912 C920 0.929 . S
H913 C922 0.930 . S
H914 C924 0.930 . S
H915 C927 0.929 . S
H916 C930 0.930 . S
H917 C932 0.960 . S
H918 C932 0.960 . S
H919 C932 0.960 . S
C920 H912 0.929 . S
C920 C921 1.377 . S
C920 C922 1.384 . S
C921 C920 1.377 . S
C921 C927 1.390 . S
C922 H913 0.930 . S
C922 C920 1.384 . S
C922 C923 1.372 . S
C923 C922 1.372 . S
C923 C924 1.400 . S
C923 C928 1.490 . S
C924 H914 0.930 . S
C924 C923 1.400 . S
C924 C927 1.386 . S
H925 C941 0.930 . S
H926 C942 0.931 . S
C927 H915 0.929 . S
C927 C921 1.390 . S
C927 C924 1.386 . S
C928 C923 1.490 . S
C928 C930 1.395 . S
C928 C931 1.403 . S
H929 C935 0.930 . S
C930 H916 0.930 . S
C930 C928 1.395 . S
C930 C933 1.403 . S
C931 C928 1.403 . S
C931 C932 1.524 . S
C931 C935 1.400 . S
C932 H917 0.960 . S
C932 H918 0.960 . S
C932 H919 0.960 . S
C932 C931 1.524 . S
C933 C930 1.403 . S
C933 C934 1.392 . S
C933 C937 1.495 . S
C934 C933 1.392 . S
C934 C935 1.385 . S
C934 C936 1.478 . S
C935 H929 0.930 . S
C935 C931 1.400 . S
C935 C934 1.385 . S
C936 C934 1.478 . S
C936 C938 1.381 . S
C936 C942 1.383 . S
C937 C933 1.495 . S
C937 H943 0.959 . S
C937 H944 0.961 . S
C937 H945 0.960 . S
C938 C936 1.381 . S
C938 C939 1.394 . S
C938 H946 0.930 . S
C939 C938 1.394 . S
C939 C940 1.383 . S
C939 H947 0.929 . S
C940 C939 1.383 . S
C940 C941 1.377 . S
C941 H925 0.930 . S
C941 C940 1.377 . S
C941 C942 1.379 . S
C942 H926 0.931 . S
C942 C936 1.383 . S
C942 C941 1.379 . S
H943 C937 0.959 . S
H944 C937 0.961 . S
H945 C937 0.960 . S
H946 C938 0.930 . S
H947 C939 0.929 . S
H948 C956 0.929 . S
H949 C958 0.930 . S
H950 C960 0.930 . S
H951 C963 0.929 . S
H952 C966 0.930 . S
H953 C968 0.960 . S
H954 C968 0.960 . S
H955 C968 0.960 . S
C956 H948 0.929 . S
C956 C957 1.377 . S
C956 C958 1.384 . S
C957 C956 1.377 . S
C957 C963 1.390 . S
C958 H949 0.930 . S
C958 C956 1.384 . S
C958 C959 1.372 . S
C959 C958 1.372 . S
C959 C960 1.400 . S
C959 C964 1.490 . S
C960 H950 0.930 . S
C960 C959 1.400 . S
C960 C963 1.386 . S
H961 C977 0.930 . S
H962 C978 0.931 . S
C963 H951 0.929 . S
C963 C957 1.390 . S
C963 C960 1.386 . S
C964 C959 1.490 . S
C964 C966 1.395 . S
C964 C967 1.403 . S
H965 C971 0.930 . S
C966 H952 0.930 . S
C966 C964 1.395 . S
C966 C969 1.403 . S
C967 C964 1.403 . S
C967 C968 1.524 . S
C967 C971 1.400 . S
C968 H953 0.960 . S
C968 H954 0.960 . S
C968 H955 0.960 . S
C968 C967 1.524 . S
C969 C966 1.403 . S
C969 C970 1.392 . S
C969 C973 1.495 . S
C970 C969 1.392 . S
C970 C971 1.385 . S
C970 C972 1.478 . S
C971 H965 0.930 . S
C971 C967 1.400 . S
C971 C970 1.385 . S
C972 C970 1.478 . S
C972 C974 1.381 . S
C972 C978 1.383 . S
C973 C969 1.495 . S
C973 H979 0.959 . S
C973 H980 0.961 . S
C973 H981 0.960 . S
C974 C972 1.381 . S
C974 C975 1.394 . S
C974 H982 0.930 . S
C975 C974 1.394 . S
C975 C976 1.383 . S
C975 H983 0.929 . S
C976 C975 1.383 . S
C976 C977 1.377 . S
C977 H961 0.930 . S
C977 C976 1.377 . S
C977 C978 1.379 . S
C978 H962 0.931 . S
C978 C972 1.383 . S
C978 C977 1.379 . S
H979 C973 0.959 . S
H980 C973 0.961 . S
H981 C973 0.960 . S
H982 C974 0.930 . S
H983 C975 0.929 . S
H984 C992 0.929 . S
H985 C994 0.930 . S
H986 C996 0.930 . S
H987 C999 0.929 . S
H988 C1002 0.930 . S
H989 C1004 0.960 . S
H990 C1004 0.960 . S
H991 C1004 0.960 . S
C992 H984 0.929 . S
C992 C993 1.377 . S
C992 C994 1.384 . S
C993 C992 1.377 . S
C993 C999 1.390 . S
C994 H985 0.930 . S
C994 C992 1.384 . S
C994 C995 1.372 . S
C995 C994 1.372 . S
C995 C996 1.400 . S
C995 C1000 1.490 . S
C996 H986 0.930 . S
C996 C995 1.400 . S
C996 C999 1.386 . S
H997 C1013 0.930 . S
H998 C1014 0.931 . S
C999 H987 0.929 . S
C999 C993 1.390 . S
C999 C996 1.386 . S
C1000 C995 1.490 . S
C1000 C1002 1.395 . S
C1000 C1003 1.403 . S
H1001 C1007 0.930 . S
C1002 H988 0.930 . S
C1002 C1000 1.395 . S
C1002 C1005 1.403 . S
C1003 C1000 1.403 . S
C1003 C1004 1.524 . S
C1003 C1007 1.400 . S
C1004 H989 0.960 . S
C1004 H990 0.960 . S
C1004 H991 0.960 . S
C1004 C1003 1.524 . S
C1005 C1002 1.403 . S
C1005 C1006 1.392 . S
C1005 C1009 1.495 . S
C1006 C1005 1.392 . S
C1006 C1007 1.385 . S
C1006 C1008 1.478 . S
C1007 H1001 0.930 . S
C1007 C1003 1.400 . S
C1007 C1006 1.385 . S
C1008 C1006 1.478 . S
C1008 C1010 1.381 . S
C1008 C1014 1.383 . S
C1009 C1005 1.495 . S
C1009 H1015 0.959 . S
C1009 H1016 0.961 . S
C1009 H1017 0.960 . S
C1010 C1008 1.381 . S
C1010 C1011 1.394 . S
C1010 H1018 0.930 . S
C1011 C1010 1.394 . S
C1011 C1012 1.383 . S
C1011 H1019 0.929 . S
C1012 C1011 1.383 . S
C1012 C1013 1.377 . S
C1013 H997 0.930 . S
C1013 C1012 1.377 . S
C1013 C1014 1.379 . S
C1014 H998 0.931 . S
C1014 C1008 1.383 . S
C1014 C1013 1.379 . S
H1015 C1009 0.959 . S
H1016 C1009 0.961 . S
H1017 C1009 0.960 . S
H1018 C1010 0.930 . S
H1019 C1011 0.929 . S
H1020 C1028 0.929 . S
H1021 C1030 0.930 . S
H1022 C1032 0.930 . S
H1023 C1035 0.929 . S
H1024 C1038 0.930 . S
H1025 C1040 0.960 . S
H1026 C1040 0.960 . S
H1027 C1040 0.960 . S
C1028 H1020 0.929 . S
C1028 C1029 1.377 . S
C1028 C1030 1.384 . S
C1029 C1028 1.377 . S
C1029 C1035 1.390 . S
C1030 H1021 0.930 . S
C1030 C1028 1.384 . S
C1030 C1031 1.372 . S
C1031 C1030 1.372 . S
C1031 C1032 1.400 . S
C1031 C1036 1.490 . S
C1032 H1022 0.930 . S
C1032 C1031 1.400 . S
C1032 C1035 1.386 . S
H1033 C1049 0.930 . S
H1034 C1050 0.931 . S
C1035 H1023 0.929 . S
C1035 C1029 1.390 . S
C1035 C1032 1.386 . S
C1036 C1031 1.490 . S
C1036 C1038 1.395 1_455 S
C1036 C1039 1.403 . S
H1037 C1043 0.930 . S
C1038 H1024 0.930 . S
C1038 C1036 1.395 1_655 S
C1038 C1041 1.403 . S
C1039 C1036 1.403 . S
C1039 C1040 1.524 . S
C1039 C1043 1.400 . S
C1040 H1025 0.960 . S
C1040 H1026 0.960 . S
C1040 H1027 0.960 . S
C1040 C1039 1.524 . S
C1041 C1038 1.403 . S
C1041 C1042 1.392 1_655 S
C1041 C1045 1.495 . S
C1042 C1041 1.392 1_455 S
C1042 C1043 1.385 . S
C1042 C1044 1.478 . S
C1043 H1037 0.930 . S
C1043 C1039 1.400 . S
C1043 C1042 1.385 . S
C1044 C1042 1.478 . S
C1044 C1046 1.381 . S
C1044 C1050 1.383 . S
C1045 C1041 1.495 . S
C1045 H1051 0.959 . S
C1045 H1052 0.961 . S
C1045 H1053 0.960 . S
C1046 C1044 1.381 . S
C1046 C1047 1.394 . S
C1046 H1054 0.930 . S
C1047 C1046 1.394 . S
C1047 C1048 1.383 . S
C1047 H1055 0.929 . S
C1048 C1047 1.383 . S
C1048 C1049 1.377 . S
C1049 H1033 0.930 . S
C1049 C1048 1.377 . S
C1049 C1050 1.379 . S
C1050 H1034 0.931 . S
C1050 C1044 1.383 . S
C1050 C1049 1.379 . S
H1051 C1045 0.959 . S
H1052 C1045 0.961 . S
H1053 C1045 0.960 . S
H1054 C1046 0.930 . S
H1055 C1047 0.929 . S
H1056 C1064 0.929 . S
H1057 C1066 0.930 . S
H1058 C1068 0.930 . S
H1059 C1071 0.929 . S
H1060 C1074 0.930 . S
H1061 C1076 0.960 . S
H1062 C1076 0.960 . S
H1063 C1076 0.960 . S
C1064 H1056 0.929 . S
C1064 C1065 1.377 . S
C1064 C1066 1.384 . S
C1065 C1064 1.377 . S
C1065 C1071 1.390 . S
C1066 H1057 0.930 . S
C1066 C1064 1.384 . S
C1066 C1067 1.372 . S
C1067 C1066 1.372 . S
C1067 C1068 1.400 . S
C1067 C1072 1.490 . S
C1068 H1058 0.930 . S
C1068 C1067 1.400 . S
C1068 C1071 1.386 . S
H1069 C1085 0.930 . S
H1070 C1086 0.931 . S
C1071 H1059 0.929 . S
C1071 C1065 1.390 . S
C1071 C1068 1.386 . S
C1072 C1067 1.490 . S
C1072 C1074 1.395 . S
C1072 C1075 1.403 . S
H1073 C1079 0.930 . S
C1074 H1060 0.930 . S
C1074 C1072 1.395 . S
C1074 C1077 1.403 . S
C1075 C1072 1.403 . S
C1075 C1076 1.524 . S
C1075 C1079 1.400 . S
C1076 H1061 0.960 . S
C1076 H1062 0.960 . S
C1076 H1063 0.960 . S
C1076 C1075 1.524 . S
C1077 C1074 1.403 . S
C1077 C1078 1.392 . S
C1077 C1081 1.495 . S
C1078 C1077 1.392 . S
C1078 C1079 1.385 . S
C1078 C1080 1.478 . S
C1079 H1073 0.930 . S
C1079 C1075 1.400 . S
C1079 C1078 1.385 . S
C1080 C1078 1.478 . S
C1080 C1082 1.381 . S
C1080 C1086 1.383 . S
C1081 C1077 1.495 . S
C1081 H1087 0.959 . S
C1081 H1088 0.961 . S
C1081 H1089 0.960 . S
C1082 C1080 1.381 . S
C1082 C1083 1.394 . S
C1082 H1090 0.930 . S
C1083 C1082 1.394 . S
C1083 C1084 1.383 . S
C1083 H1091 0.929 . S
C1084 C1083 1.383 . S
C1084 C1085 1.377 . S
C1085 H1069 0.930 . S
C1085 C1084 1.377 . S
C1085 C1086 1.379 . S
C1086 H1070 0.931 . S
C1086 C1080 1.383 . S
C1086 C1085 1.379 . S
H1087 C1081 0.959 . S
H1088 C1081 0.961 . S
H1089 C1081 0.960 . S
H1090 C1082 0.930 . S
H1091 C1083 0.929 . S
H1092 C1100 0.929 . S
H1093 C1102 0.930 . S
H1094 C1104 0.930 . S
H1095 C1107 0.929 . S
H1096 C1110 0.930 . S
H1097 C1112 0.960 . S
H1098 C1112 0.960 . S
H1099 C1112 0.960 . S
C1100 H1092 0.929 . S
C1100 C1101 1.377 . S
C1100 C1102 1.384 . S
C1101 C1100 1.377 . S
C1101 C1107 1.390 . S
C1102 H1093 0.930 . S
C1102 C1100 1.384 . S
C1102 C1103 1.372 . S
C1103 C1102 1.372 . S
C1103 C1104 1.400 . S
C1103 C1108 1.490 . S
C1104 H1094 0.930 . S
C1104 C1103 1.400 . S
C1104 C1107 1.386 . S
H1105 C1121 0.930 . S
H1106 C1122 0.931 . S
C1107 H1095 0.929 . S
C1107 C1101 1.390 . S
C1107 C1104 1.386 . S
C1108 C1103 1.490 . S
C1108 C1110 1.395 . S
C1108 C1111 1.403 . S
H1109 C1115 0.930 . S
C1110 H1096 0.930 . S
C1110 C1108 1.395 . S
C1110 C1113 1.403 . S
C1111 C1108 1.403 . S
C1111 C1112 1.524 . S
C1111 C1115 1.400 . S
C1112 H1097 0.960 . S
C1112 H1098 0.960 . S
C1112 H1099 0.960 . S
C1112 C1111 1.524 . S
C1113 C1110 1.403 . S
C1113 C1114 1.392 . S
C1113 C1117 1.495 . S
C1114 C1113 1.392 . S
C1114 C1115 1.385 . S
C1114 C1116 1.478 . S
C1115 H1109 0.930 . S
C1115 C1111 1.400 . S
C1115 C1114 1.385 . S
C1116 C1114 1.478 . S
C1116 C1118 1.381 . S
C1116 C1122 1.383 . S
C1117 C1113 1.495 . S
C1117 H1123 0.959 . S
C1117 H1124 0.961 . S
C1117 H1125 0.960 . S
C1118 C1116 1.381 . S
C1118 C1119 1.394 . S
C1118 H1126 0.930 . S
C1119 C1118 1.394 . S
C1119 C1120 1.383 . S
C1119 H1127 0.929 . S
C1120 C1119 1.383 . S
C1120 C1121 1.377 . S
C1121 H1105 0.930 . S
C1121 C1120 1.377 . S
C1121 C1122 1.379 . S
C1122 H1106 0.931 . S
C1122 C1116 1.383 . S
C1122 C1121 1.379 . S
H1123 C1117 0.959 . S
H1124 C1117 0.961 . S
H1125 C1117 0.960 . S
H1126 C1118 0.930 . S
H1127 C1119 0.929 . S
H1128 C1136 0.929 . S
H1129 C1138 0.930 . S
H1130 C1140 0.930 . S
H1131 C1143 0.929 . S
H1132 C1146 0.930 . S
H1133 C1148 0.960 . S
H1134 C1148 0.960 . S
H1135 C1148 0.960 . S
C1136 H1128 0.929 . S
C1136 C1137 1.377 . S
C1136 C1138 1.384 . S
C1137 C1136 1.377 . S
C1137 C1143 1.390 . S
C1138 H1129 0.930 . S
C1138 C1136 1.384 . S
C1138 C1139 1.372 . S
C1139 C1138 1.372 . S
C1139 C1140 1.400 . S
C1139 C1144 1.490 . S
C1140 H1130 0.930 . S
C1140 C1139 1.400 . S
C1140 C1143 1.386 . S
H1141 C1157 0.930 . S
H1142 C1158 0.931 . S
C1143 H1131 0.929 . S
C1143 C1137 1.390 . S
C1143 C1140 1.386 . S
C1144 C1139 1.490 . S
C1144 C1146 1.395 . S
C1144 C1147 1.403 1_556 S
H1145 C1151 0.930 1_554 S
C1146 H1132 0.930 . S
C1146 C1144 1.395 . S
C1146 C1149 1.403 . S
C1147 C1144 1.403 1_554 S
C1147 C1148 1.524 . S
C1147 C1151 1.400 1_554 S
C1148 H1133 0.960 . S
C1148 H1134 0.960 . S
C1148 H1135 0.960 . S
C1148 C1147 1.524 . S
C1149 C1146 1.403 . S
C1149 C1150 1.392 . S
C1149 C1153 1.495 . S
C1150 C1149 1.392 . S
C1150 C1151 1.385 . S
C1150 C1152 1.478 . S
C1151 H1145 0.930 1_556 S
C1151 C1147 1.400 1_556 S
C1151 C1150 1.385 . S
C1152 C1150 1.478 . S
C1152 C1154 1.381 . S
C1152 C1158 1.383 . S
C1153 C1149 1.495 . S
C1153 H1159 0.959 . S
C1153 H1160 0.961 . S
C1153 H1161 0.960 . S
C1154 C1152 1.381 . S
C1154 C1155 1.394 . S
C1154 H1162 0.930 . S
C1155 C1154 1.394 . S
C1155 C1156 1.383 . S
C1155 H1163 0.929 . S
C1156 C1155 1.383 . S
C1156 C1157 1.377 . S
C1157 H1141 0.930 . S
C1157 C1156 1.377 . S
C1157 C1158 1.379 . S
C1158 H1142 0.931 . S
C1158 C1152 1.383 . S
C1158 C1157 1.379 . S
H1159 C1153 0.959 . S
H1160 C1153 0.961 . S
H1161 C1153 0.960 . S
H1162 C1154 0.930 . S
H1163 C1155 0.929 . S
H1164 C1172 0.929 . S
H1165 C1174 0.930 . S
H1166 C1176 0.930 . S
H1167 C1179 0.929 . S
H1168 C1182 0.930 . S
H1169 C1184 0.960 . S
H1170 C1184 0.960 . S
H1171 C1184 0.960 . S
C1172 H1164 0.929 . S
C1172 C1173 1.377 . S
C1172 C1174 1.384 . S
C1173 C1172 1.377 . S
C1173 C1179 1.390 . S
C1174 H1165 0.930 . S
C1174 C1172 1.384 . S
C1174 C1175 1.372 . S
C1175 C1174 1.372 . S
C1175 C1176 1.400 . S
C1175 C1180 1.490 . S
C1176 H1166 0.930 . S
C1176 C1175 1.400 . S
C1176 C1179 1.386 . S
H1177 C1193 0.930 . S
H1178 C1194 0.931 . S
C1179 H1167 0.929 . S
C1179 C1173 1.390 . S
C1179 C1176 1.386 . S
C1180 C1175 1.490 . S
C1180 C1182 1.395 . S
C1180 C1183 1.403 . S
H1181 C1187 0.930 . S
C1182 H1168 0.930 . S
C1182 C1180 1.395 . S
C1182 C1185 1.403 . S
C1183 C1180 1.403 . S
C1183 C1184 1.524 . S
C1183 C1187 1.400 . S
C1184 H1169 0.960 . S
C1184 H1170 0.960 . S
C1184 H1171 0.960 . S
C1184 C1183 1.524 . S
C1185 C1182 1.403 . S
C1185 C1186 1.392 . S
C1185 C1189 1.495 . S
C1186 C1185 1.392 . S
C1186 C1187 1.385 . S
C1186 C1188 1.478 . S
C1187 H1181 0.930 . S
C1187 C1183 1.400 . S
C1187 C1186 1.385 . S
C1188 C1186 1.478 . S
C1188 C1190 1.381 . S
C1188 C1194 1.383 . S
C1189 C1185 1.495 . S
C1189 H1195 0.959 . S
C1189 H1196 0.961 . S
C1189 H1197 0.960 . S
C1190 C1188 1.381 . S
C1190 C1191 1.394 . S
C1190 H1198 0.930 . S
C1191 C1190 1.394 . S
C1191 C1192 1.383 . S
C1191 H1199 0.929 . S
C1192 C1191 1.383 . S
C1192 C1193 1.377 . S
C1193 H1177 0.930 . S
C1193 C1192 1.377 . S
C1193 C1194 1.379 . S
C1194 H1178 0.931 . S
C1194 C1188 1.383 . S
C1194 C1193 1.379 . S
H1195 C1189 0.959 . S
H1196 C1189 0.961 . S
H1197 C1189 0.960 . S
H1198 C1190 0.930 . S
H1199 C1191 0.929 . S
H1200 C1208 0.929 1_655 S
H1201 C1210 0.930 . S
H1202 C1212 0.930 . S
H1203 C1215 0.929 . S
H1204 C1218 0.930 . S
H1205 C1220 0.960 . S
H1206 C1220 0.960 . S
H1207 C1220 0.960 . S
C1208 H1200 0.929 1_455 S
C1208 C1209 1.377 . S
C1208 C1210 1.384 . S
C1209 C1208 1.377 . S
C1209 C1215 1.390 . S
C1210 H1201 0.930 . S
C1210 C1208 1.384 . S
C1210 C1211 1.372 . S
C1211 C1210 1.372 . S
C1211 C1212 1.400 . S
C1211 C1216 1.490 . S
C1212 H1202 0.930 . S
C1212 C1211 1.400 . S
C1212 C1215 1.386 . S
H1213 C1229 0.930 . S
H1214 C1230 0.931 . S
C1215 H1203 0.929 . S
C1215 C1209 1.390 . S
C1215 C1212 1.386 . S
C1216 C1211 1.490 . S
C1216 C1218 1.395 . S
C1216 C1219 1.403 . S
H1217 C1223 0.930 . S
C1218 H1204 0.930 . S
C1218 C1216 1.395 . S
C1218 C1221 1.403 . S
C1219 C1216 1.403 . S
C1219 C1220 1.524 . S
C1219 C1223 1.400 . S
C1220 H1205 0.960 . S
C1220 H1206 0.960 . S
C1220 H1207 0.960 . S
C1220 C1219 1.524 . S
C1221 C1218 1.403 . S
C1221 C1222 1.392 . S
C1221 C1225 1.495 . S
C1222 C1221 1.392 . S
C1222 C1223 1.385 . S
C1222 C1224 1.478 . S
C1223 H1217 0.930 . S
C1223 C1219 1.400 . S
C1223 C1222 1.385 . S
C1224 C1222 1.478 . S
C1224 C1226 1.381 . S
C1224 C1230 1.383 . S
C1225 C1221 1.495 . S
C1225 H1231 0.959 . S
C1225 H1232 0.961 . S
C1225 H1233 0.960 . S
C1226 C1224 1.381 . S
C1226 C1227 1.394 . S
C1226 H1234 0.930 . S
C1227 C1226 1.394 . S
C1227 C1228 1.383 . S
C1227 H1235 0.929 . S
C1228 C1227 1.383 . S
C1228 C1229 1.377 . S
C1229 H1213 0.930 . S
C1229 C1228 1.377 . S
C1229 C1230 1.379 . S
C1230 H1214 0.931 . S
C1230 C1224 1.383 . S
C1230 C1229 1.379 . S
H1231 C1225 0.959 . S
H1232 C1225 0.961 . S
H1233 C1225 0.960 . S
H1234 C1226 0.930 . S
H1235 C1227 0.929 . S
H1236 C1244 0.929 . S
H1237 C1246 0.930 . S
H1238 C1248 0.930 . S
H1239 C1251 0.929 . S
H1240 C1254 0.930 . S
H1241 C1256 0.960 . S
H1242 C1256 0.960 . S
H1243 C1256 0.960 . S
C1244 H1236 0.929 . S
C1244 C1245 1.377 . S
C1244 C1246 1.384 . S
C1245 C1244 1.377 . S
C1245 C1251 1.390 . S
C1246 H1237 0.930 . S
C1246 C1244 1.384 . S
C1246 C1247 1.372 . S
C1247 C1246 1.372 . S
C1247 C1248 1.400 . S
C1247 C1252 1.490 . S
C1248 H1238 0.930 . S
C1248 C1247 1.400 . S
C1248 C1251 1.386 . S
H1249 C1265 0.930 . S
H1250 C1266 0.931 . S
C1251 H1239 0.929 . S
C1251 C1245 1.390 . S
C1251 C1248 1.386 . S
C1252 C1247 1.490 . S
C1252 C1254 1.395 . S
C1252 C1255 1.403 . S
H1253 C1259 0.930 . S
C1254 H1240 0.930 . S
C1254 C1252 1.395 . S
C1254 C1257 1.403 . S
C1255 C1252 1.403 . S
C1255 C1256 1.524 . S
C1255 C1259 1.400 . S
C1256 H1241 0.960 . S
C1256 H1242 0.960 . S
C1256 H1243 0.960 . S
C1256 C1255 1.524 . S
C1257 C1254 1.403 . S
C1257 C1258 1.392 . S
C1257 C1261 1.495 . S
C1258 C1257 1.392 . S
C1258 C1259 1.385 . S
C1258 C1260 1.478 . S
C1259 H1253 0.930 . S
C1259 C1255 1.400 . S
C1259 C1258 1.385 . S
C1260 C1258 1.478 . S
C1260 C1262 1.381 . S
C1260 C1266 1.383 . S
C1261 C1257 1.495 . S
C1261 H1267 0.959 . S
C1261 H1268 0.961 . S
C1261 H1269 0.960 . S
C1262 C1260 1.381 . S
C1262 C1263 1.394 . S
C1262 H1270 0.930 . S
C1263 C1262 1.394 . S
C1263 C1264 1.383 . S
C1263 H1271 0.929 . S
C1264 C1263 1.383 . S
C1264 C1265 1.377 . S
C1265 H1249 0.930 . S
C1265 C1264 1.377 . S
C1265 C1266 1.379 . S
C1266 H1250 0.931 . S
C1266 C1260 1.383 . S
C1266 C1265 1.379 . S
H1267 C1261 0.959 . S
H1268 C1261 0.961 . S
H1269 C1261 0.960 . S
H1270 C1262 0.930 . S
H1271 C1263 0.929 . S
H1272 C1280 0.929 . S
H1273 C1282 0.930 . S
H1274 C1284 0.930 . S
H1275 C1287 0.929 . S
H1276 C1290 0.930 . S
H1277 C1292 0.960 . S
H1278 C1292 0.960 . S
H1279 C1292 0.960 . S
C1280 H1272 0.929 . S
C1280 C1281 1.377 . S
C1280 C1282 1.384 . S
C1281 C1280 1.377 . S
C1281 C1287 1.390 . S
C1282 H1273 0.930 . S
C1282 C1280 1.384 . S
C1282 C1283 1.372 . S
C1283 C1282 1.372 . S
C1283 C1284 1.400 . S
C1283 C1288 1.490 . S
C1284 H1274 0.930 . S
C1284 C1283 1.400 . S
C1284 C1287 1.386 . S
H1285 C1301 0.930 . S
H1286 C1302 0.931 . S
C1287 H1275 0.929 . S
C1287 C1281 1.390 . S
C1287 C1284 1.386 . S
C1288 C1283 1.490 . S
C1288 C1290 1.395 . S
C1288 C1291 1.403 . S
H1289 C1295 0.930 . S
C1290 H1276 0.930 . S
C1290 C1288 1.395 . S
C1290 C1293 1.403 . S
C1291 C1288 1.403 . S
C1291 C1292 1.524 . S
C1291 C1295 1.400 . S
C1292 H1277 0.960 . S
C1292 H1278 0.960 . S
C1292 H1279 0.960 . S
C1292 C1291 1.524 . S
C1293 C1290 1.403 . S
C1293 C1294 1.392 . S
C1293 C1297 1.495 . S
C1294 C1293 1.392 . S
C1294 C1295 1.385 . S
C1294 C1296 1.478 . S
C1295 H1289 0.930 . S
C1295 C1291 1.400 . S
C1295 C1294 1.385 . S
C1296 C1294 1.478 . S
C1296 C1298 1.381 . S
C1296 C1302 1.383 . S
C1297 C1293 1.495 . S
C1297 H1303 0.959 . S
C1297 H1304 0.961 . S
C1297 H1305 0.960 . S
C1298 C1296 1.381 . S
C1298 C1299 1.394 . S
C1298 H1306 0.930 . S
C1299 C1298 1.394 . S
C1299 C1300 1.383 . S
C1299 H1307 0.929 . S
C1300 C1299 1.383 . S
C1300 C1301 1.377 . S
C1301 H1285 0.930 . S
C1301 C1300 1.377 . S
C1301 C1302 1.379 . S
C1302 H1286 0.931 . S
C1302 C1296 1.383 . S
C1302 C1301 1.379 . S
H1303 C1297 0.959 . S
H1304 C1297 0.961 . S
H1305 C1297 0.960 . S
H1306 C1298 0.930 . S
H1307 C1299 0.929 . S
H1308 C1316 0.929 . S
H1309 C1318 0.930 . S
H1310 C1320 0.930 . S
H1311 C1323 0.929 . S
H1312 C1326 0.930 . S
H1313 C1328 0.960 . S
H1314 C1328 0.960 . S
H1315 C1328 0.960 . S
C1316 H1308 0.929 . S
C1316 C1317 1.377 . S
C1316 C1318 1.384 . S
C1317 C1316 1.377 . S
C1317 C1323 1.390 . S
C1318 H1309 0.930 . S
C1318 C1316 1.384 . S
C1318 C1319 1.372 . S
C1319 C1318 1.372 . S
C1319 C1320 1.400 . S
C1319 C1324 1.490 . S
C1320 H1310 0.930 . S
C1320 C1319 1.400 . S
C1320 C1323 1.386 . S
H1321 C1337 0.930 . S
H1322 C1338 0.931 . S
C1323 H1311 0.929 . S
C1323 C1317 1.390 . S
C1323 C1320 1.386 . S
C1324 C1319 1.490 . S
C1324 C1326 1.395 . S
C1324 C1327 1.403 . S
H1325 C1331 0.930 . S
C1326 H1312 0.930 . S
C1326 C1324 1.395 . S
C1326 C1329 1.403 . S
C1327 C1324 1.403 . S
C1327 C1328 1.524 . S
C1327 C1331 1.400 . S
C1328 H1313 0.960 . S
C1328 H1314 0.960 . S
C1328 H1315 0.960 . S
C1328 C1327 1.524 . S
C1329 C1326 1.403 . S
C1329 C1330 1.392 . S
C1329 C1333 1.495 . S
C1330 C1329 1.392 . S
C1330 C1331 1.385 . S
C1330 C1332 1.478 . S
C1331 H1325 0.930 . S
C1331 C1327 1.400 . S
C1331 C1330 1.385 . S
C1332 C1330 1.478 . S
C1332 C1334 1.381 . S
C1332 C1338 1.383 . S
C1333 C1329 1.495 . S
C1333 H1339 0.959 . S
C1333 H1340 0.961 . S
C1333 H1341 0.960 . S
C1334 C1332 1.381 . S
C1334 C1335 1.394 . S
C1334 H1342 0.930 . S
C1335 C1334 1.394 . S
C1335 C1336 1.383 . S
C1335 H1343 0.929 . S
C1336 C1335 1.383 . S
C1336 C1337 1.377 . S
C1337 H1321 0.930 . S
C1337 C1336 1.377 . S
C1337 C1338 1.379 . S
C1338 H1322 0.931 . S
C1338 C1332 1.383 . S
C1338 C1337 1.379 . S
H1339 C1333 0.959 . S
H1340 C1333 0.961 . S
H1341 C1333 0.960 . S
H1342 C1334 0.930 . S
H1343 C1335 0.929 . S
H1344 C1352 0.929 . S
H1345 C1354 0.930 . S
H1346 C1356 0.930 . S
H1347 C1359 0.929 . S
H1348 C1362 0.930 . S
H1349 C1364 0.960 . S
H1350 C1364 0.960 . S
H1351 C1364 0.960 . S
C1352 H1344 0.929 . S
C1352 C1353 1.377 . S
C1352 C1354 1.384 . S
C1353 C1352 1.377 . S
C1353 C1359 1.390 . S
C1354 H1345 0.930 . S
C1354 C1352 1.384 . S
C1354 C1355 1.372 . S
C1355 C1354 1.372 . S
C1355 C1356 1.400 . S
C1355 C1360 1.490 . S
C1356 H1346 0.930 . S
C1356 C1355 1.400 . S
C1356 C1359 1.386 . S
H1357 C1373 0.930 . S
H1358 C1374 0.931 . S
C1359 H1347 0.929 . S
C1359 C1353 1.390 . S
C1359 C1356 1.386 . S
C1360 C1355 1.490 . S
C1360 C1362 1.395 . S
C1360 C1363 1.403 . S
H1361 C1367 0.930 . S
C1362 H1348 0.930 . S
C1362 C1360 1.395 . S
C1362 C1365 1.403 . S
C1363 C1360 1.403 . S
C1363 C1364 1.524 . S
C1363 C1367 1.400 . S
C1364 H1349 0.960 . S
C1364 H1350 0.960 . S
C1364 H1351 0.960 . S
C1364 C1363 1.524 . S
C1365 C1362 1.403 . S
C1365 C1366 1.392 . S
C1365 C1369 1.495 . S
C1366 C1365 1.392 . S
C1366 C1367 1.385 . S
C1366 C1368 1.478 . S
C1367 H1361 0.930 . S
C1367 C1363 1.400 . S
C1367 C1366 1.385 . S
C1368 C1366 1.478 . S
C1368 C1370 1.381 . S
C1368 C1374 1.383 . S
C1369 C1365 1.495 . S
C1369 H1375 0.959 . S
C1369 H1376 0.961 . S
C1369 H1377 0.960 . S
C1370 C1368 1.381 . S
C1370 C1371 1.394 . S
C1370 H1378 0.930 . S
C1371 C1370 1.394 . S
C1371 C1372 1.383 . S
C1371 H1379 0.929 . S
C1372 C1371 1.383 . S
C1372 C1373 1.377 . S
C1373 H1357 0.930 . S
C1373 C1372 1.377 . S
C1373 C1374 1.379 . S
C1374 H1358 0.931 . S
C1374 C1368 1.383 . S
C1374 C1373 1.379 . S
H1375 C1369 0.959 . S
H1376 C1369 0.961 . S
H1377 C1369 0.960 . S
H1378 C1370 0.930 . S
H1379 C1371 0.929 . S
H1380 C1388 0.929 . S
H1381 C1390 0.930 . S
H1382 C1392 0.930 . S
H1383 C1395 0.929 . S
H1384 C1398 0.930 . S
H1385 C1400 0.960 . S
H1386 C1400 0.960 . S
H1387 C1400 0.960 . S
C1388 H1380 0.929 . S
C1388 C1389 1.377 . S
C1388 C1390 1.384 . S
C1389 C1388 1.377 . S
C1389 C1395 1.390 . S
C1390 H1381 0.930 . S
C1390 C1388 1.384 . S
C1390 C1391 1.372 . S
C1391 C1390 1.372 . S
C1391 C1392 1.400 . S
C1391 C1396 1.490 . S
C1392 H1382 0.930 . S
C1392 C1391 1.400 . S
C1392 C1395 1.386 . S
H1393 C1409 0.930 . S
H1394 C1410 0.931 . S
C1395 H1383 0.929 . S
C1395 C1389 1.390 . S
C1395 C1392 1.386 . S
C1396 C1391 1.490 . S
C1396 C1398 1.395 . S
C1396 C1399 1.403 . S
H1397 C1403 0.930 . S
C1398 H1384 0.930 . S
C1398 C1396 1.395 . S
C1398 C1401 1.403 . S
C1399 C1396 1.403 . S
C1399 C1400 1.524 . S
C1399 C1403 1.400 . S
C1400 H1385 0.960 . S
C1400 H1386 0.960 . S
C1400 H1387 0.960 . S
C1400 C1399 1.524 . S
C1401 C1398 1.403 . S
C1401 C1402 1.392 . S
C1401 C1405 1.495 . S
C1402 C1401 1.392 . S
C1402 C1403 1.385 . S
C1402 C1404 1.478 . S
C1403 H1397 0.930 . S
C1403 C1399 1.400 . S
C1403 C1402 1.385 . S
C1404 C1402 1.478 . S
C1404 C1406 1.381 . S
C1404 C1410 1.383 . S
C1405 C1401 1.495 . S
C1405 H1411 0.959 . S
C1405 H1412 0.961 . S
C1405 H1413 0.960 . S
C1406 C1404 1.381 . S
C1406 C1407 1.394 . S
C1406 H1414 0.930 . S
C1407 C1406 1.394 . S
C1407 C1408 1.383 . S
C1407 H1415 0.929 . S
C1408 C1407 1.383 . S
C1408 C1409 1.377 . S
C1409 H1393 0.930 . S
C1409 C1408 1.377 . S
C1409 C1410 1.379 . S
C1410 H1394 0.931 . S
C1410 C1404 1.383 . S
C1410 C1409 1.379 . S
H1411 C1405 0.959 . S
H1412 C1405 0.961 . S
H1413 C1405 0.960 . S
H1414 C1406 0.930 . S
H1415 C1407 0.929 . S
H1416 C1424 0.929 . S
H1417 C1426 0.930 . S
H1418 C1428 0.930 . S
H1419 C1431 0.929 . S
H1420 C1434 0.930 . S
H1421 C1436 0.960 . S
H1422 C1436 0.960 . S
H1423 C1436 0.960 . S
C1424 H1416 0.929 . S
C1424 C1425 1.377 . S
C1424 C1426 1.384 . S
C1425 C1424 1.377 . S
C1425 C1431 1.390 . S
C1426 H1417 0.930 . S
C1426 C1424 1.384 . S
C1426 C1427 1.372 . S
C1427 C1426 1.372 . S
C1427 C1428 1.400 . S
C1427 C1432 1.490 . S
C1428 H1418 0.930 . S
C1428 C1427 1.400 . S
C1428 C1431 1.386 . S
H1429 C1445 0.930 . S
H1430 C1446 0.931 . S
C1431 H1419 0.929 . S
C1431 C1425 1.390 . S
C1431 C1428 1.386 . S
C1432 C1427 1.490 . S
C1432 C1434 1.395 . S
C1432 C1435 1.403 . S
H1433 C1439 0.930 . S
C1434 H1420 0.930 . S
C1434 C1432 1.395 . S
C1434 C1437 1.403 . S
C1435 C1432 1.403 . S
C1435 C1436 1.524 . S
C1435 C1439 1.400 . S
C1436 H1421 0.960 . S
C1436 H1422 0.960 . S
C1436 H1423 0.960 . S
C1436 C1435 1.524 . S
C1437 C1434 1.403 . S
C1437 C1438 1.392 . S
C1437 C1441 1.495 . S
C1438 C1437 1.392 . S
C1438 C1439 1.385 . S
C1438 C1440 1.478 . S
C1439 H1433 0.930 . S
C1439 C1435 1.400 . S
C1439 C1438 1.385 . S
C1440 C1438 1.478 . S
C1440 C1442 1.381 . S
C1440 C1446 1.383 . S
C1441 C1437 1.495 . S
C1441 H1447 0.959 . S
C1441 H1448 0.961 . S
C1441 H1449 0.960 . S
C1442 C1440 1.381 . S
C1442 C1443 1.394 . S
C1442 H1450 0.930 . S
C1443 C1442 1.394 . S
C1443 C1444 1.383 . S
C1443 H1451 0.929 1_565 S
C1444 C1443 1.383 . S
C1444 C1445 1.377 . S
C1445 H1429 0.930 . S
C1445 C1444 1.377 . S
C1445 C1446 1.379 . S
C1446 H1430 0.931 . S
C1446 C1440 1.383 . S
C1446 C1445 1.379 . S
H1447 C1441 0.959 . S
H1448 C1441 0.961 . S
H1449 C1441 0.960 . S
H1450 C1442 0.930 . S
H1451 C1443 0.929 1_545 S
H1452 C1460 0.929 . S
H1453 C1462 0.930 . S
H1454 C1464 0.930 . S
H1455 C1467 0.929 . S
H1456 C1470 0.930 . S
H1457 C1472 0.960 . S
H1458 C1472 0.960 . S
H1459 C1472 0.960 . S
C1460 H1452 0.929 . S
C1460 C1461 1.377 . S
C1460 C1462 1.384 . S
C1461 C1460 1.377 . S
C1461 C1467 1.390 . S
C1462 H1453 0.930 . S
C1462 C1460 1.384 . S
C1462 C1463 1.372 . S
C1463 C1462 1.372 . S
C1463 C1464 1.400 . S
C1463 C1468 1.490 . S
C1464 H1454 0.930 . S
C1464 C1463 1.400 . S
C1464 C1467 1.386 . S
H1465 C1481 0.930 . S
H1466 C1482 0.931 . S
C1467 H1455 0.929 . S
C1467 C1461 1.390 . S
C1467 C1464 1.386 . S
C1468 C1463 1.490 . S
C1468 C1470 1.395 . S
C1468 C1471 1.403 . S
H1469 C1475 0.930 . S
C1470 H1456 0.930 . S
C1470 C1468 1.395 . S
C1470 C1473 1.403 . S
C1471 C1468 1.403 . S
C1471 C1472 1.524 . S
C1471 C1475 1.400 . S
C1472 H1457 0.960 . S
C1472 H1458 0.960 . S
C1472 H1459 0.960 . S
C1472 C1471 1.524 . S
C1473 C1470 1.403 . S
C1473 C1474 1.392 . S
C1473 C1477 1.495 . S
C1474 C1473 1.392 . S
C1474 C1475 1.385 . S
C1474 C1476 1.478 . S
C1475 H1469 0.930 . S
C1475 C1471 1.400 . S
C1475 C1474 1.385 . S
C1476 C1474 1.478 . S
C1476 C1478 1.381 . S
C1476 C1482 1.383 . S
C1477 C1473 1.495 . S
C1477 H1483 0.959 . S
C1477 H1484 0.961 . S
C1477 H1485 0.960 . S
C1478 C1476 1.381 . S
C1478 C1479 1.394 . S
C1478 H1486 0.930 . S
C1479 C1478 1.394 . S
C1479 C1480 1.383 . S
C1479 H1487 0.929 . S
C1480 C1479 1.383 . S
C1480 C1481 1.377 . S
C1481 H1465 0.930 . S
C1481 C1480 1.377 . S
C1481 C1482 1.379 . S
C1482 H1466 0.931 . S
C1482 C1476 1.383 . S
C1482 C1481 1.379 . S
H1483 C1477 0.959 . S
H1484 C1477 0.961 . S
H1485 C1477 0.960 . S
H1486 C1478 0.930 . S
H1487 C1479 0.929 . S
H1488 C1496 0.929 . S
H1489 C1498 0.930 . S
H1490 C1500 0.930 . S
H1491 C1503 0.929 . S
H1492 C1506 0.930 . S
H1493 C1508 0.983 . S
H1494 C1508 0.960 . S
H1495 C1508 0.960 . S
C1496 H1488 0.929 . S
C1496 C1497 1.377 . S
C1496 C1498 1.384 . S
C1497 C1496 1.377 . S
C1497 C1503 1.390 . S
C1498 H1489 0.930 . S
C1498 C1496 1.384 . S
C1498 C1499 1.372 . S
C1499 C1498 1.372 . S
C1499 C1500 1.400 . S
C1499 C1504 1.490 . S
C1500 H1490 0.930 . S
C1500 C1499 1.400 . S
C1500 C1503 1.386 . S
H1501 C1517 0.930 . S
H1502 C1518 0.931 . S
C1503 H1491 0.929 . S
C1503 C1497 1.390 . S
C1503 C1500 1.386 . S
C1504 C1499 1.490 . S
C1504 C1506 1.395 . S
C1504 C1507 1.403 . S
H1505 C1511 0.930 . S
C1506 H1492 0.930 . S
C1506 C1504 1.395 . S
C1506 C1509 1.403 . S
C1507 C1504 1.403 . S
C1507 C1508 1.524 . S
C1507 C1511 1.400 . S
C1508 H1493 0.983 . S
C1508 H1494 0.960 . S
C1508 H1495 0.960 . S
C1508 C1507 1.524 . S
C1509 C1506 1.403 . S
C1509 C1510 1.392 . S
C1509 C1513 1.495 . S
C1510 C1509 1.392 . S
C1510 C1511 1.385 . S
C1510 C1512 1.478 . S
C1511 H1505 0.930 . S
C1511 C1507 1.400 . S
C1511 C1510 1.385 . S
C1512 C1510 1.478 . S
C1512 C1514 1.381 . S
C1512 C1518 1.383 . S
C1513 C1509 1.495 . S
C1513 H1519 0.959 . S
C1513 H1520 0.961 . S
C1513 H1521 0.960 . S
C1514 C1512 1.381 . S
C1514 C1515 1.394 . S
C1514 H1522 0.930 . S
C1515 C1514 1.394 . S
C1515 C1516 1.383 . S
C1515 H1523 0.929 . S
C1516 C1515 1.383 . S
C1516 C1517 1.377 . S
C1517 H1501 0.930 . S
C1517 C1516 1.377 . S
C1517 C1518 1.379 . S
C1518 H1502 0.931 . S
C1518 C1512 1.383 . S
C1518 C1517 1.379 . S
H1519 C1513 0.959 . S
H1520 C1513 0.961 . S
H1521 C1513 0.960 . S
H1522 C1514 0.930 . S
H1523 C1515 0.929 . S
H1524 C1532 0.929 . S
H1525 C1534 0.930 . S
H1526 C1536 0.930 . S
H1527 C1539 0.929 . S
H1528 C1542 0.930 . S
H1529 C1544 0.960 . S
H1530 C1544 0.960 . S
H1531 C1544 0.960 . S
C1532 H1524 0.929 . S
C1532 C1533 1.377 . S
C1532 C1534 1.384 . S
C1533 C1532 1.377 . S
C1533 C1539 1.390 . S
C1534 H1525 0.930 . S
C1534 C1532 1.384 . S
C1534 C1535 1.372 . S
C1535 C1534 1.372 . S
C1535 C1536 1.400 . S
C1535 C1540 1.490 . S
C1536 H1526 0.930 . S
C1536 C1535 1.400 . S
C1536 C1539 1.386 . S
H1537 C1553 0.930 . S
H1538 C1554 0.931 . S
C1539 H1527 0.929 . S
C1539 C1533 1.390 . S
C1539 C1536 1.386 . S
C1540 C1535 1.490 . S
C1540 C1542 1.395 . S
C1540 C1543 1.403 . S
H1541 C1547 0.930 . S
C1542 H1528 0.930 . S
C1542 C1540 1.395 . S
C1542 C1545 1.403 . S
C1543 C1540 1.403 . S
C1543 C1544 1.524 . S
C1543 C1547 1.400 . S
C1544 H1529 0.960 . S
C1544 H1530 0.960 . S
C1544 H1531 0.960 . S
C1544 C1543 1.524 . S
C1545 C1542 1.403 . S
C1545 C1546 1.392 . S
C1545 C1549 1.495 . S
C1546 C1545 1.392 . S
C1546 C1547 1.385 . S
C1546 C1548 1.478 . S
C1547 H1541 0.930 . S
C1547 C1543 1.400 . S
C1547 C1546 1.385 . S
C1548 C1546 1.478 . S
C1548 C1550 1.381 . S
C1548 C1554 1.383 . S
C1549 C1545 1.495 . S
C1549 H1555 0.959 . S
C1549 H1556 0.952 1_556 S
C1549 H1557 0.960 . S
C1550 C1548 1.381 . S
C1550 C1551 1.394 . S
C1550 H1558 0.930 . S
C1551 C1550 1.394 . S
C1551 C1552 1.383 . S
C1551 H1559 0.929 . S
C1552 C1551 1.383 . S
C1552 C1553 1.377 . S
C1553 H1537 0.930 . S
C1553 C1552 1.377 . S
C1553 C1554 1.379 . S
C1554 H1538 0.931 . S
C1554 C1548 1.383 . S
C1554 C1553 1.379 . S
H1555 C1549 0.959 . S
H1556 C1549 0.952 1_554 S
H1557 C1549 0.960 . S
H1558 C1550 0.930 . S
H1559 C1551 0.929 . S
H1560 C1568 0.929 . S
H1561 C1570 0.930 . S
H1562 C1572 0.930 . S
H1563 C1575 0.929 . S
H1564 C1578 0.930 . S
H1565 C1580 0.960 . S
H1566 C1580 0.960 . S
H1567 C1580 0.960 . S
C1568 H1560 0.929 . S
C1568 C1569 1.377 . S
C1568 C1570 1.384 . S
C1569 C1568 1.377 . S
C1569 C1575 1.390 . S
C1570 H1561 0.930 . S
C1570 C1568 1.384 . S
C1570 C1571 1.372 . S
C1571 C1570 1.372 . S
C1571 C1572 1.400 . S
C1571 C1576 1.490 . S
C1572 H1562 0.930 . S
C1572 C1571 1.400 . S
C1572 C1575 1.386 . S
H1573 C1589 0.930 . S
H1574 C1590 0.931 . S
C1575 H1563 0.929 . S
C1575 C1569 1.390 . S
C1575 C1572 1.386 . S
C1576 C1571 1.490 . S
C1576 C1578 1.395 . S
C1576 C1579 1.403 . S
H1577 C1583 0.930 . S
C1578 H1564 0.930 . S
C1578 C1576 1.395 . S
C1578 C1581 1.403 . S
C1579 C1576 1.403 . S
C1579 C1580 1.524 . S
C1579 C1583 1.400 . S
C1580 H1565 0.960 . S
C1580 H1566 0.960 . S
C1580 H1567 0.960 . S
C1580 C1579 1.524 . S
C1581 C1578 1.403 . S
C1581 C1582 1.392 . S
C1581 C1585 1.495 . S
C1582 C1581 1.392 . S
C1582 C1583 1.385 . S
C1582 C1584 1.478 . S
C1583 H1577 0.930 . S
C1583 C1579 1.400 . S
C1583 C1582 1.385 . S
C1584 C1582 1.478 . S
C1584 C1586 1.381 . S
C1584 C1590 1.383 . S
C1585 C1581 1.495 . S
C1585 H1591 0.959 . S
C1585 H1592 0.961 . S
C1585 H1593 0.960 . S
C1586 C1584 1.381 . S
C1586 C1587 1.394 . S
C1586 H1594 0.930 . S
C1587 C1586 1.394 . S
C1587 C1588 1.383 . S
C1587 H1595 0.929 . S
C1588 C1587 1.383 . S
C1588 C1589 1.377 . S
C1589 H1573 0.930 . S
C1589 C1588 1.377 . S
C1589 C1590 1.379 . S
C1590 H1574 0.931 . S
C1590 C1584 1.383 . S
C1590 C1589 1.379 . S
H1591 C1585 0.959 . S
H1592 C1585 0.961 . S
H1593 C1585 0.960 . S
H1594 C1586 0.930 . S
H1595 C1587 0.929 . S
H1596 C1604 0.929 . S
H1597 C1606 0.930 . S
H1598 C1608 0.930 . S
H1599 C1611 0.929 . S
H1600 C1614 0.930 . S
H1601 C1616 0.960 . S
H1602 C1616 0.960 . S
H1603 C1616 0.960 . S
C1604 H1596 0.929 . S
C1604 C1605 1.377 . S
C1604 C1606 1.384 . S
C1605 C1604 1.377 . S
C1605 C1611 1.390 . S
C1606 H1597 0.930 . S
C1606 C1604 1.384 . S
C1606 C1607 1.372 . S
C1607 C1606 1.372 . S
C1607 C1608 1.400 . S
C1607 C1612 1.490 . S
C1608 H1598 0.930 . S
C1608 C1607 1.400 . S
C1608 C1611 1.386 . S
H1609 C1625 0.930 . S
H1610 C1626 0.931 . S
C1611 H1599 0.929 . S
C1611 C1605 1.390 . S
C1611 C1608 1.386 . S
C1612 C1607 1.490 . S
C1612 C1614 1.395 . S
C1612 C1615 1.403 . S
H1613 C1619 0.930 . S
C1614 H1600 0.930 . S
C1614 C1612 1.395 . S
C1614 C1617 1.403 . S
C1615 C1612 1.403 . S
C1615 C1616 1.524 . S
C1615 C1619 1.400 . S
C1616 H1601 0.960 . S
C1616 H1602 0.960 . S
C1616 H1603 0.960 . S
C1616 C1615 1.524 . S
C1617 C1614 1.403 . S
C1617 C1618 1.392 . S
C1617 C1621 1.495 . S
C1618 C1617 1.392 . S
C1618 C1619 1.385 . S
C1618 C1620 1.478 . S
C1619 H1613 0.930 . S
C1619 C1615 1.400 . S
C1619 C1618 1.385 . S
C1620 C1618 1.478 . S
C1620 C1622 1.381 . S
C1620 C1626 1.383 . S
C1621 C1617 1.495 . S
C1621 H1627 0.959 . S
C1621 H1628 0.961 . S
C1621 H1629 0.960 . S
C1622 C1620 1.381 . S
C1622 C1623 1.394 . S
C1622 H1630 0.930 . S
C1623 C1622 1.394 . S
C1623 C1624 1.383 . S
C1623 H1631 0.929 . S
C1624 C1623 1.383 . S
C1624 C1625 1.377 . S
C1625 H1609 0.930 . S
C1625 C1624 1.377 . S
C1625 C1626 1.379 . S
C1626 H1610 0.931 . S
C1626 C1620 1.383 . S
C1626 C1625 1.379 . S
H1627 C1621 0.959 . S
H1628 C1621 0.961 . S
H1629 C1621 0.960 . S
H1630 C1622 0.930 . S
H1631 C1623 0.929 . S
H1632 C1640 0.929 . S
H1633 C1642 0.930 . S
H1634 C1644 0.930 . S
H1635 C1647 0.929 . S
H1636 C1650 0.930 . S
H1637 C1652 0.960 . S
H1638 C1652 0.960 . S
H1639 C1652 0.960 . S
C1640 H1632 0.929 . S
C1640 C1641 1.377 . S
C1640 C1642 1.384 . S
C1641 C1640 1.377 . S
C1641 C1647 1.390 . S
C1642 H1633 0.930 . S
C1642 C1640 1.384 . S
C1642 C1643 1.372 . S
C1643 C1642 1.372 . S
C1643 C1644 1.400 . S
C1643 C1648 1.490 . S
C1644 H1634 0.930 . S
C1644 C1643 1.400 . S
C1644 C1647 1.386 . S
H1645 C1661 0.930 . S
H1646 C1662 0.931 . S
C1647 H1635 0.929 . S
C1647 C1641 1.390 . S
C1647 C1644 1.386 . S
C1648 C1643 1.490 . S
C1648 C1650 1.395 . S
C1648 C1651 1.403 . S
H1649 C1655 0.930 . S
C1650 H1636 0.930 . S
C1650 C1648 1.395 . S
C1650 C1653 1.403 . S
C1651 C1648 1.403 . S
C1651 C1652 1.524 . S
C1651 C1655 1.400 . S
C1652 H1637 0.960 . S
C1652 H1638 0.960 . S
C1652 H1639 0.960 . S
C1652 C1651 1.524 . S
C1653 C1650 1.403 . S
C1653 C1654 1.392 . S
C1653 C1657 1.495 . S
C1654 C1653 1.392 . S
C1654 C1655 1.385 . S
C1654 C1656 1.478 . S
C1655 H1649 0.930 . S
C1655 C1651 1.400 . S
C1655 C1654 1.385 . S
C1656 C1654 1.478 . S
C1656 C1658 1.381 . S
C1656 C1662 1.383 . S
C1657 C1653 1.495 . S
C1657 H1663 0.959 . S
C1657 H1664 0.961 . S
C1657 H1665 0.960 . S
C1658 C1656 1.381 . S
C1658 C1659 1.394 . S
C1658 H1666 0.930 . S
C1659 C1658 1.394 . S
C1659 C1660 1.383 . S
C1659 H1667 0.929 . S
C1660 C1659 1.383 . S
C1660 C1661 1.377 . S
C1661 H1645 0.930 . S
C1661 C1660 1.377 . S
C1661 C1662 1.379 . S
C1662 H1646 0.931 . S
C1662 C1656 1.383 . S
C1662 C1661 1.379 . S
H1663 C1657 0.959 . S
H1664 C1657 0.961 . S
H1665 C1657 0.960 . S
H1666 C1658 0.930 . S
H1667 C1659 0.929 . S
H1668 C1676 0.929 . S
H1669 C1678 0.930 . S
H1670 C1680 0.930 . S
H1671 C1683 0.929 . S
H1672 C1686 0.930 . S
H1673 C1688 0.960 . S
H1674 C1688 0.960 . S
H1675 C1688 0.960 . S
C1676 H1668 0.929 . S
C1676 C1677 1.377 . S
C1676 C1678 1.384 . S
C1677 C1676 1.377 . S
C1677 C1683 1.390 . S
C1678 H1669 0.930 . S
C1678 C1676 1.384 . S
C1678 C1679 1.372 . S
C1679 C1678 1.372 . S
C1679 C1680 1.400 . S
C1679 C1684 1.490 . S
C1680 H1670 0.930 . S
C1680 C1679 1.400 . S
C1680 C1683 1.386 . S
H1681 C1697 0.930 . S
H1682 C1698 0.931 . S
C1683 H1671 0.929 . S
C1683 C1677 1.390 . S
C1683 C1680 1.386 . S
C1684 C1679 1.490 . S
C1684 C1686 1.395 . S
C1684 C1687 1.403 . S
H1685 C1691 0.930 . S
C1686 H1672 0.930 . S
C1686 C1684 1.395 . S
C1686 C1689 1.403 . S
C1687 C1684 1.403 . S
C1687 C1688 1.524 . S
C1687 C1691 1.400 . S
C1688 H1673 0.960 . S
C1688 H1674 0.960 . S
C1688 H1675 0.960 . S
C1688 C1687 1.524 . S
C1689 C1686 1.403 . S
C1689 C1690 1.392 . S
C1689 C1693 1.495 . S
C1690 C1689 1.392 . S
C1690 C1691 1.385 . S
C1690 C1692 1.478 . S
C1691 H1685 0.930 . S
C1691 C1687 1.400 . S
C1691 C1690 1.385 . S
C1692 C1690 1.478 . S
C1692 C1694 1.381 . S
C1692 C1698 1.383 . S
C1693 C1689 1.495 . S
C1693 H1699 0.959 . S
C1693 H1700 0.961 . S
C1693 H1701 0.960 . S
C1694 C1692 1.381 . S
C1694 C1695 1.394 . S
C1694 H1702 0.930 . S
C1695 C1694 1.394 . S
C1695 C1696 1.383 . S
C1695 H1703 0.929 . S
C1696 C1695 1.383 . S
C1696 C1697 1.377 . S
C1697 H1681 0.930 . S
C1697 C1696 1.377 . S
C1697 C1698 1.379 . S
C1698 H1682 0.931 . S
C1698 C1692 1.383 . S
C1698 C1697 1.379 . S
H1699 C1693 0.959 . S
H1700 C1693 0.961 . S
H1701 C1693 0.960 . S
H1702 C1694 0.930 . S
H1703 C1695 0.929 . S
H1704 C1712 0.929 . S
H1705 C1714 0.930 . S
H1706 C1716 0.930 . S
H1707 C1719 0.929 . S
H1708 C1722 0.930 . S
H1709 C1724 0.960 . S
H1710 C1724 0.960 . S
H1711 C1724 0.960 . S
C1712 H1704 0.929 . S
C1712 C1713 1.377 . S
C1712 C1714 1.384 . S
C1713 C1712 1.377 . S
C1713 C1719 1.390 . S
C1714 H1705 0.930 . S
C1714 C1712 1.384 . S
C1714 C1715 1.372 . S
C1715 C1714 1.372 . S
C1715 C1716 1.400 . S
C1715 C1720 1.490 . S
C1716 H1706 0.930 . S
C1716 C1715 1.400 . S
C1716 C1719 1.386 . S
H1717 C1733 0.930 . S
H1718 C1734 0.931 . S
C1719 H1707 0.929 . S
C1719 C1713 1.390 . S
C1719 C1716 1.386 . S
C1720 C1715 1.490 . S
C1720 C1722 1.395 . S
C1720 C1723 1.403 . S
H1721 C1727 0.930 . S
C1722 H1708 0.930 . S
C1722 C1720 1.395 . S
C1722 C1725 1.403 . S
C1723 C1720 1.403 . S
C1723 C1724 1.524 . S
C1723 C1727 1.400 . S
C1724 H1709 0.960 . S
C1724 H1710 0.960 . S
C1724 H1711 0.960 . S
C1724 C1723 1.524 . S
C1725 C1722 1.403 . S
C1725 C1726 1.392 . S
C1725 C1729 1.495 . S
C1726 C1725 1.392 . S
C1726 C1727 1.385 . S
C1726 C1728 1.478 . S
C1727 H1721 0.930 . S
C1727 C1723 1.400 . S
C1727 C1726 1.385 . S
C1728 C1726 1.478 . S
C1728 C1730 1.381 . S
C1728 C1734 1.383 . S
C1729 C1725 1.495 . S
C1729 H1735 0.959 . S
C1729 H1736 0.961 . S
C1729 H1737 0.960 . S
C1730 C1728 1.381 . S
C1730 C1731 1.394 . S
C1730 H1738 0.930 . S
C1731 C1730 1.394 . S
C1731 C1732 1.383 . S
C1731 H1739 0.929 . S
C1732 C1731 1.383 . S
C1732 C1733 1.377 . S
C1733 H1717 0.930 . S
C1733 C1732 1.377 . S
C1733 C1734 1.379 . S
C1734 H1718 0.931 . S
C1734 C1728 1.383 . S
C1734 C1733 1.379 . S
H1735 C1729 0.959 . S
H1736 C1729 0.961 . S
H1737 C1729 0.960 . S
H1738 C1730 0.930 . S
H1739 C1731 0.929 . S
H1740 C1748 0.929 . S
H1741 C1750 0.930 . S
H1742 C1752 0.930 . S
H1743 C1755 0.929 . S
H1744 C1758 0.930 . S
H1745 C1760 0.960 . S
H1746 C1760 0.960 . S
H1747 C1760 0.960 . S
C1748 H1740 0.929 . S
C1748 C1749 1.377 . S
C1748 C1750 1.384 . S
C1749 C1748 1.377 . S
C1749 C1755 1.390 . S
C1750 H1741 0.930 . S
C1750 C1748 1.384 . S
C1750 C1751 1.372 . S
C1751 C1750 1.372 . S
C1751 C1752 1.400 . S
C1751 C1756 1.490 . S
C1752 H1742 0.930 . S
C1752 C1751 1.400 . S
C1752 C1755 1.386 . S
H1753 C1769 0.930 . S
H1754 C1770 0.931 . S
C1755 H1743 0.929 . S
C1755 C1749 1.390 . S
C1755 C1752 1.386 . S
C1756 C1751 1.490 . S
C1756 C1758 1.395 . S
C1756 C1759 1.403 . S
H1757 C1763 0.930 . S
C1758 H1744 0.930 . S
C1758 C1756 1.395 . S
C1758 C1761 1.403 . S
C1759 C1756 1.403 . S
C1759 C1760 1.524 . S
C1759 C1763 1.400 . S
C1760 H1745 0.960 . S
C1760 H1746 0.960 . S
C1760 H1747 0.960 . S
C1760 C1759 1.524 . S
C1761 C1758 1.403 . S
C1761 C1762 1.392 . S
C1761 C1765 1.495 . S
C1762 C1761 1.392 . S
C1762 C1763 1.385 . S
C1762 C1764 1.478 . S
C1763 H1757 0.930 . S
C1763 C1759 1.400 . S
C1763 C1762 1.385 . S
C1764 C1762 1.478 . S
C1764 C1766 1.381 . S
C1764 C1770 1.383 . S
C1765 C1761 1.495 . S
C1765 H1771 0.959 . S
C1765 H1772 0.961 . S
C1765 H1773 0.960 . S
C1766 C1764 1.381 . S
C1766 C1767 1.394 . S
C1766 H1774 0.930 . S
C1767 C1766 1.394 . S
C1767 C1768 1.383 . S
C1767 H1775 0.929 . S
C1768 C1767 1.383 . S
C1768 C1769 1.377 . S
C1769 H1753 0.930 . S
C1769 C1768 1.377 . S
C1769 C1770 1.379 . S
C1770 H1754 0.931 . S
C1770 C1764 1.383 . S
C1770 C1769 1.379 . S
H1771 C1765 0.959 . S
H1772 C1765 0.961 . S
H1773 C1765 0.960 . S
H1774 C1766 0.930 . S
H1775 C1767 0.929 . S
H1776 C1784 0.929 . S
H1777 C1786 0.930 . S
H1778 C1788 0.930 . S
H1779 C1791 0.929 . S
H1780 C1794 0.930 . S
H1781 C1796 0.960 . S
H1782 C1796 0.960 . S
H1783 C1796 0.960 . S
C1784 H1776 0.929 . S
C1784 C1785 1.377 . S
C1784 C1786 1.384 . S
C1785 C1784 1.377 . S
C1785 C1791 1.390 . S
C1786 H1777 0.930 . S
C1786 C1784 1.384 . S
C1786 C1787 1.372 . S
C1787 C1786 1.372 . S
C1787 C1788 1.400 . S
C1787 C1792 1.490 . S
C1788 H1778 0.930 . S
C1788 C1787 1.400 . S
C1788 C1791 1.386 . S
H1789 C1805 0.930 . S
H1790 C1806 0.931 . S
C1791 H1779 0.929 . S
C1791 C1785 1.390 . S
C1791 C1788 1.386 . S
C1792 C1787 1.490 . S
C1792 C1794 1.395 . S
C1792 C1795 1.403 . S
H1793 C1799 0.930 . S
C1794 H1780 0.930 . S
C1794 C1792 1.395 . S
C1794 C1797 1.403 . S
C1795 C1792 1.403 . S
C1795 C1796 1.524 . S
C1795 C1799 1.400 . S
C1796 H1781 0.960 . S
C1796 H1782 0.960 . S
C1796 H1783 0.960 . S
C1796 C1795 1.524 . S
C1797 C1794 1.403 . S
C1797 C1798 1.392 . S
C1797 C1801 1.495 . S
C1798 C1797 1.392 . S
C1798 C1799 1.385 . S
C1798 C1800 1.478 . S
C1799 H1793 0.930 . S
C1799 C1795 1.400 . S
C1799 C1798 1.385 . S
C1800 C1798 1.478 . S
C1800 C1802 1.381 . S
C1800 C1806 1.383 . S
C1801 C1797 1.495 . S
C1801 H1807 0.959 . S
C1801 H1808 0.961 . S
C1801 H1809 0.960 . S
C1802 C1800 1.381 . S
C1802 C1803 1.394 . S
C1802 H1810 0.930 . S
C1803 C1802 1.394 . S
C1803 C1804 1.383 . S
C1803 H1811 0.929 . S
C1804 C1803 1.383 . S
C1804 C1805 1.377 . S
C1805 H1789 0.930 . S
C1805 C1804 1.377 . S
C1805 C1806 1.379 . S
C1806 H1790 0.931 . S
C1806 C1800 1.383 . S
C1806 C1805 1.379 . S
H1807 C1801 0.959 . S
H1808 C1801 0.961 . S
H1809 C1801 0.960 . S
H1810 C1802 0.930 . S
H1811 C1803 0.929 . S
H1812 C1820 0.929 . S
H1813 C1822 0.930 . S
H1814 C1824 0.930 . S
H1815 C1827 0.929 . S
H1816 C1830 0.930 . S
H1817 C1832 0.960 . S
H1818 C1832 0.960 . S
H1819 C1832 0.960 . S
C1820 H1812 0.929 . S
C1820 C1821 1.377 . S
C1820 C1822 1.384 . S
C1821 C1820 1.377 . S
C1821 C1827 1.390 . S
C1822 H1813 0.930 . S
C1822 C1820 1.384 . S
C1822 C1823 1.372 . S
C1823 C1822 1.372 . S
C1823 C1824 1.400 . S
C1823 C1828 1.490 . S
C1824 H1814 0.930 . S
C1824 C1823 1.400 . S
C1824 C1827 1.386 . S
H1825 C1841 0.930 1_455 S
H1826 C1842 0.931 . S
C1827 H1815 0.929 . S
C1827 C1821 1.390 . S
C1827 C1824 1.386 . S
C1828 C1823 1.490 . S
C1828 C1830 1.395 . S
C1828 C1831 1.403 . S
H1829 C1835 0.930 . S
C1830 H1816 0.930 . S
C1830 C1828 1.395 . S
C1830 C1833 1.403 . S
C1831 C1828 1.403 . S
C1831 C1832 1.524 . S
C1831 C1835 1.400 . S
C1832 H1817 0.960 . S
C1832 H1818 0.960 . S
C1832 H1819 0.960 . S
C1832 C1831 1.524 . S
C1833 C1830 1.403 . S
C1833 C1834 1.392 . S
C1833 C1837 1.495 . S
C1834 C1833 1.392 . S
C1834 C1835 1.385 . S
C1834 C1836 1.478 . S
C1835 H1829 0.930 . S
C1835 C1831 1.400 . S
C1835 C1834 1.385 . S
C1836 C1834 1.478 . S
C1836 C1838 1.381 . S
C1836 C1842 1.383 . S
C1837 C1833 1.495 . S
C1837 H1843 0.959 . S
C1837 H1844 0.961 . S
C1837 H1845 0.960 . S
C1838 C1836 1.381 . S
C1838 C1839 1.394 . S
C1838 H1846 0.930 . S
C1839 C1838 1.394 . S
C1839 C1840 1.383 . S
C1839 H1847 0.929 . S
C1840 C1839 1.383 . S
C1840 C1841 1.377 . S
C1841 H1825 0.930 1_655 S
C1841 C1840 1.377 . S
C1841 C1842 1.379 . S
C1842 H1826 0.931 . S
C1842 C1836 1.383 . S
C1842 C1841 1.379 . S
H1843 C1837 0.959 . S
H1844 C1837 0.961 . S
H1845 C1837 0.960 . S
H1846 C1838 0.930 . S
H1847 C1839 0.929 . S
H1848 C1856 0.929 . S
H1849 C1858 0.930 . S
H1850 C1860 0.930 . S
H1851 C1863 0.929 . S
H1852 C1866 0.930 . S
H1853 C1868 0.960 . S
H1854 C1868 0.960 . S
H1855 C1868 0.960 . S
C1856 H1848 0.929 . S
C1856 C1857 1.377 . S
C1856 C1858 1.384 . S
C1857 C1856 1.377 . S
C1857 C1863 1.390 . S
C1858 H1849 0.930 . S
C1858 C1856 1.384 . S
C1858 C1859 1.372 . S
C1859 C1858 1.372 . S
C1859 C1860 1.400 . S
C1859 C1864 1.490 . S
C1860 H1850 0.930 . S
C1860 C1859 1.400 . S
C1860 C1863 1.386 . S
H1861 C1877 0.930 . S
H1862 C1878 0.931 . S
C1863 H1851 0.929 . S
C1863 C1857 1.390 . S
C1863 C1860 1.386 . S
C1864 C1859 1.490 . S
C1864 C1866 1.395 . S
C1864 C1867 1.403 . S
H1865 C1871 0.930 . S
C1866 H1852 0.930 . S
C1866 C1864 1.395 . S
C1866 C1869 1.403 . S
C1867 C1864 1.403 . S
C1867 C1868 1.524 . S
C1867 C1871 1.400 . S
C1868 H1853 0.960 . S
C1868 H1854 0.960 . S
C1868 H1855 0.960 . S
C1868 C1867 1.524 . S
C1869 C1866 1.403 . S
C1869 C1870 1.392 . S
C1869 C1873 1.495 . S
C1870 C1869 1.392 . S
C1870 C1871 1.385 . S
C1870 C1872 1.478 . S
C1871 H1865 0.930 . S
C1871 C1867 1.400 . S
C1871 C1870 1.385 . S
C1872 C1870 1.478 . S
C1872 C1874 1.381 . S
C1872 C1878 1.383 . S
C1873 C1869 1.495 . S
C1873 H1879 0.959 . S
C1873 H1880 0.961 . S
C1873 H1881 0.960 . S
C1874 C1872 1.381 . S
C1874 C1875 1.394 . S
C1874 H1882 0.930 . S
C1875 C1874 1.394 . S
C1875 C1876 1.383 . S
C1875 H1883 0.929 . S
C1876 C1875 1.383 . S
C1876 C1877 1.377 . S
C1877 H1861 0.930 . S
C1877 C1876 1.377 . S
C1877 C1878 1.379 . S
C1878 H1862 0.931 . S
C1878 C1872 1.383 . S
C1878 C1877 1.379 . S
H1879 C1873 0.959 . S
H1880 C1873 0.961 . S
H1881 C1873 0.960 . S
H1882 C1874 0.930 . S
H1883 C1875 0.929 . S
H1884 C1892 0.929 . S
H1885 C1894 0.930 . S
H1886 C1896 0.930 . S
H1887 C1899 0.929 . S
H1888 C1902 0.930 . S
H1889 C1904 0.960 . S
H1890 C1904 0.960 . S
H1891 C1904 0.960 . S
C1892 H1884 0.929 . S
C1892 C1893 1.377 . S
C1892 C1894 1.384 . S
C1893 C1892 1.377 . S
C1893 C1899 1.390 . S
C1894 H1885 0.930 . S
C1894 C1892 1.384 . S
C1894 C1895 1.372 . S
C1895 C1894 1.372 . S
C1895 C1896 1.400 . S
C1895 C1900 1.490 . S
C1896 H1886 0.930 . S
C1896 C1895 1.400 . S
C1896 C1899 1.386 . S
H1897 C1913 0.930 . S
H1898 C1914 0.931 . S
C1899 H1887 0.929 . S
C1899 C1893 1.390 . S
C1899 C1896 1.386 . S
C1900 C1895 1.490 . S
C1900 C1902 1.395 . S
C1900 C1903 1.403 . S
H1901 C1907 0.930 . S
C1902 H1888 0.930 . S
C1902 C1900 1.395 . S
C1902 C1905 1.403 . S
C1903 C1900 1.403 . S
C1903 C1904 1.524 . S
C1903 C1907 1.400 . S
C1904 H1889 0.960 . S
C1904 H1890 0.960 . S
C1904 H1891 0.960 . S
C1904 C1903 1.524 . S
C1905 C1902 1.403 . S
C1905 C1906 1.392 . S
C1905 C1909 1.495 . S
C1906 C1905 1.392 . S
C1906 C1907 1.385 . S
C1906 C1908 1.478 . S
C1907 H1901 0.930 . S
C1907 C1903 1.400 . S
C1907 C1906 1.385 . S
C1908 C1906 1.478 . S
C1908 C1910 1.381 . S
C1908 C1914 1.383 . S
C1909 C1905 1.495 . S
C1909 H1915 0.959 . S
C1909 H1916 0.961 . S
C1909 H1917 0.960 . S
C1910 C1908 1.381 . S
C1910 C1911 1.394 . S
C1910 H1918 0.930 . S
C1911 C1910 1.394 . S
C1911 C1912 1.383 . S
C1911 H1919 0.929 . S
C1912 C1911 1.383 . S
C1912 C1913 1.377 . S
C1913 H1897 0.930 . S
C1913 C1912 1.377 . S
C1913 C1914 1.379 . S
C1914 H1898 0.931 . S
C1914 C1908 1.383 . S
C1914 C1913 1.379 . S
H1915 C1909 0.959 . S
H1916 C1909 0.961 . S
H1917 C1909 0.960 . S
H1918 C1910 0.930 . S
H1919 C1911 0.929 . S
H1920 C1928 0.929 . S
H1921 C1930 0.930 . S
H1922 C1932 0.930 . S
H1923 C1935 0.929 . S
H1924 C1938 0.930 . S
H1925 C1940 0.960 . S
H1926 C1940 0.960 . S
H1927 C1940 0.960 . S
C1928 H1920 0.929 . S
C1928 C1929 1.377 . S
C1928 C1930 1.384 . S
C1929 C1928 1.377 . S
C1929 C1935 1.390 . S
C1930 H1921 0.930 . S
C1930 C1928 1.384 . S
C1930 C1931 1.372 . S
C1931 C1930 1.372 . S
C1931 C1932 1.400 . S
C1931 C1936 1.490 . S
C1932 H1922 0.930 . S
C1932 C1931 1.400 . S
C1932 C1935 1.386 . S
H1933 C1949 0.930 . S
H1934 C1950 0.931 . S
C1935 H1923 0.929 . S
C1935 C1929 1.390 . S
C1935 C1932 1.386 . S
C1936 C1931 1.490 . S
C1936 C1938 1.395 . S
C1936 C1939 1.403 . S
H1937 C1943 0.930 . S
C1938 H1924 0.930 . S
C1938 C1936 1.395 . S
C1938 C1941 1.403 . S
C1939 C1936 1.403 . S
C1939 C1940 1.524 . S
C1939 C1943 1.400 . S
C1940 H1925 0.960 . S
C1940 H1926 0.960 . S
C1940 H1927 0.960 . S
C1940 C1939 1.524 . S
C1941 C1938 1.403 . S
C1941 C1942 1.392 . S
C1941 C1945 1.495 . S
C1942 C1941 1.392 . S
C1942 C1943 1.385 . S
C1942 C1944 1.478 . S
C1943 H1937 0.930 . S
C1943 C1939 1.400 . S
C1943 C1942 1.385 . S
C1944 C1942 1.478 . S
C1944 C1946 1.381 . S
C1944 C1950 1.383 . S
C1945 C1941 1.495 . S
C1945 H1951 0.959 . S
C1945 H1952 0.961 . S
C1945 H1953 0.960 . S
C1946 C1944 1.381 . S
C1946 C1947 1.394 . S
C1946 H1954 0.930 . S
C1947 C1946 1.394 . S
C1947 C1948 1.383 . S
C1947 H1955 0.929 . S
C1948 C1947 1.383 . S
C1948 C1949 1.377 . S
C1949 H1933 0.930 . S
C1949 C1948 1.377 . S
C1949 C1950 1.379 . S
C1950 H1934 0.931 . S
C1950 C1944 1.383 . S
C1950 C1949 1.379 . S
H1951 C1945 0.959 . S
H1952 C1945 0.961 . S
H1953 C1945 0.960 . S
H1954 C1946 0.930 . S
H1955 C1947 0.929 . S
H1956 C1964 0.929 . S
H1957 C1966 0.930 . S
H1958 C1968 0.930 . S
H1959 C1971 0.929 . S
H1960 C1974 0.930 . S
H1961 C1976 0.960 . S
H1962 C1976 0.960 . S
H1963 C1976 0.960 . S
C1964 H1956 0.929 . S
C1964 C1965 1.377 . S
C1964 C1966 1.384 . S
C1965 C1964 1.377 . S
C1965 C1971 1.390 . S
C1966 H1957 0.930 . S
C1966 C1964 1.384 . S
C1966 C1967 1.372 . S
C1967 C1966 1.372 . S
C1967 C1968 1.400 . S
C1967 C1972 1.490 . S
C1968 H1958 0.930 . S
C1968 C1967 1.400 . S
C1968 C1971 1.386 . S
H1969 C1985 0.930 . S
H1970 C1986 0.931 . S
C1971 H1959 0.929 . S
C1971 C1965 1.390 . S
C1971 C1968 1.386 . S
C1972 C1967 1.490 . S
C1972 C1974 1.395 . S
C1972 C1975 1.403 . S
H1973 C1979 0.930 . S
C1974 H1960 0.930 . S
C1974 C1972 1.395 . S
C1974 C1977 1.403 . S
C1975 C1972 1.403 . S
C1975 C1976 1.524 . S
C1975 C1979 1.400 . S
C1976 H1961 0.960 . S
C1976 H1962 0.960 . S
C1976 H1963 0.960 . S
C1976 C1975 1.524 . S
C1977 C1974 1.403 . S
C1977 C1978 1.392 . S
C1977 C1981 1.495 . S
C1978 C1977 1.392 . S
C1978 C1979 1.385 . S
C1978 C1980 1.478 . S
C1979 H1973 0.930 . S
C1979 C1975 1.400 . S
C1979 C1978 1.385 . S
C1980 C1978 1.478 . S
C1980 C1982 1.381 . S
C1980 C1986 1.383 . S
C1981 C1977 1.495 . S
C1981 H1987 0.959 . S
C1981 H1988 0.961 . S
C1981 H1989 0.960 . S
C1982 C1980 1.381 . S
C1982 C1983 1.394 . S
C1982 H1990 0.930 . S
C1983 C1982 1.394 . S
C1983 C1984 1.383 . S
C1983 H1991 0.929 . S
C1984 C1983 1.383 . S
C1984 C1985 1.377 . S
C1985 H1969 0.930 . S
C1985 C1984 1.377 . S
C1985 C1986 1.379 . S
C1986 H1970 0.931 . S
C1986 C1980 1.383 . S
C1986 C1985 1.379 . S
H1987 C1981 0.959 . S
H1988 C1981 0.961 . S
H1989 C1981 0.960 . S
H1990 C1982 0.930 . S
H1991 C1983 0.929 . S
H1992 C2000 0.929 . S
H1993 C2002 0.930 . S
H1994 C2004 0.930 . S
H1995 C2007 0.929 . S
H1996 C2010 0.930 . S
H1997 C2012 0.960 . S
H1998 C2012 0.960 . S
H1999 C2012 0.960 . S
C2000 H1992 0.929 . S
C2000 C2001 1.377 . S
C2000 C2002 1.384 . S
C2001 C2000 1.377 . S
C2001 C2007 1.390 . S
C2002 H1993 0.930 . S
C2002 C2000 1.384 . S
C2002 C2003 1.372 . S
C2003 C2002 1.372 . S
C2003 C2004 1.400 . S
C2003 C2008 1.490 . S
C2004 H1994 0.930 . S
C2004 C2003 1.400 . S
C2004 C2007 1.386 . S
H2005 C2021 0.930 . S
H2006 C2022 0.931 . S
C2007 H1995 0.929 . S
C2007 C2001 1.390 . S
C2007 C2004 1.386 . S
C2008 C2003 1.490 . S
C2008 C2010 1.395 . S
C2008 C2011 1.403 . S
H2009 C2015 0.930 . S
C2010 H1996 0.930 . S
C2010 C2008 1.395 . S
C2010 C2013 1.403 . S
C2011 C2008 1.403 . S
C2011 C2012 1.524 . S
C2011 C2015 1.400 . S
C2012 H1997 0.960 . S
C2012 H1998 0.960 . S
C2012 H1999 0.960 . S
C2012 C2011 1.524 . S
C2013 C2010 1.403 . S
C2013 C2014 1.392 . S
C2013 C2017 1.495 . S
C2014 C2013 1.392 . S
C2014 C2015 1.385 . S
C2014 C2016 1.478 . S
C2015 H2009 0.930 . S
C2015 C2011 1.400 . S
C2015 C2014 1.385 . S
C2016 C2014 1.478 . S
C2016 C2018 1.381 . S
C2016 C2022 1.383 . S
C2017 C2013 1.495 . S
C2017 H2023 0.959 . S
C2017 H2024 0.961 . S
C2017 H2025 0.960 . S
C2018 C2016 1.381 . S
C2018 C2019 1.394 . S
C2018 H2026 0.930 . S
C2019 C2018 1.394 . S
C2019 C2020 1.383 . S
C2019 H2027 0.929 . S
C2020 C2019 1.383 . S
C2020 C2021 1.377 . S
C2021 H2005 0.930 . S
C2021 C2020 1.377 . S
C2021 C2022 1.379 . S
C2022 H2006 0.931 . S
C2022 C2016 1.383 . S
C2022 C2021 1.379 . S
H2023 C2017 0.959 . S
H2024 C2017 0.961 . S
H2025 C2017 0.960 . S
H2026 C2018 0.930 . S
H2027 C2019 0.929 . S
H2028 C2036 0.929 . S
H2029 C2038 0.930 . S
H2030 C2040 0.930 . S
H2031 C2043 0.929 . S
H2032 C2046 0.930 . S
H2033 C2048 0.960 . S
H2034 C2048 0.960 . S
H2035 C2048 0.960 . S
C2036 H2028 0.929 . S
C2036 C2037 1.377 . S
C2036 C2038 1.384 . S
C2037 C2036 1.377 . S
C2037 C2043 1.390 . S
C2038 H2029 0.930 . S
C2038 C2036 1.384 . S
C2038 C2039 1.372 . S
C2039 C2038 1.372 . S
C2039 C2040 1.400 . S
C2039 C2044 1.490 . S
C2040 H2030 0.930 . S
C2040 C2039 1.400 . S
C2040 C2043 1.386 . S
H2041 C2057 0.930 . S
H2042 C2058 0.931 . S
C2043 H2031 0.929 . S
C2043 C2037 1.390 . S
C2043 C2040 1.386 . S
C2044 C2039 1.490 . S
C2044 C2046 1.395 . S
C2044 C2047 1.403 . S
H2045 C2051 0.930 . S
C2046 H2032 0.930 . S
C2046 C2044 1.395 . S
C2046 C2049 1.403 . S
C2047 C2044 1.403 . S
C2047 C2048 1.524 . S
C2047 C2051 1.400 . S
C2048 H2033 0.960 . S
C2048 H2034 0.960 . S
C2048 H2035 0.960 . S
C2048 C2047 1.524 . S
C2049 C2046 1.403 . S
C2049 C2050 1.392 . S
C2049 C2053 1.495 . S
C2050 C2049 1.392 . S
C2050 C2051 1.385 . S
C2050 C2052 1.478 . S
C2051 H2045 0.930 . S
C2051 C2047 1.400 . S
C2051 C2050 1.385 . S
C2052 C2050 1.478 . S
C2052 C2054 1.381 . S
C2052 C2058 1.383 . S
C2053 C2049 1.495 . S
C2053 H2059 0.959 . S
C2053 H2060 0.961 . S
C2053 H2061 0.960 . S
C2054 C2052 1.381 . S
C2054 C2055 1.394 . S
C2054 H2062 0.930 . S
C2055 C2054 1.394 . S
C2055 C2056 1.383 . S
C2055 H2063 0.929 . S
C2056 C2055 1.383 . S
C2056 C2057 1.377 . S
C2057 H2041 0.930 . S
C2057 C2056 1.377 . S
C2057 C2058 1.379 . S
C2058 H2042 0.931 . S
C2058 C2052 1.383 . S
C2058 C2057 1.379 . S
H2059 C2053 0.959 . S
H2060 C2053 0.961 . S
H2061 C2053 0.960 . S
H2062 C2054 0.930 . S
H2063 C2055 0.929 . S
C345 C99 1.184 . S
C364 C1 1.193 . S
C381 C15 0.598 . S
C400 C56 0.519 . S
C417 C83 1.050 . S
C436 C29 1.032 . S
C453 C55 0.872 . S
C472 C85 0.895 . S
C489 C124 1.148 . S
C508 C13 1.213 . S
C525 C27 0.881 . S
C544 C126 0.850 . S
C561 C152 1.171 . S
C580 C41 1.171 . S
C597 C154 0.556 . S
C616 C43 0.638 . S
C633 C68 0.555 . S
C652 C138 0.639 . S
C669 C71 0.926 . S
C688 C140 0.988 . S
C705 C166 0.592 . S
C724 C97 0.557 . S
C741 C112 1.191 . S
C760 C111 1.151 . S
C777 C294 1.208 . S
C796 C169 1.122 . S
C813 C194 0.884 . S
C832 C320 0.820 . S
C849 C197 1.024 . S
C868 C322 1.081 . S
C885 C334 0.945 . S
C904 C222 0.924 . S
C921 C236 1.048 . S
C940 C306 1.057 . S
C957 C279 0.729 . S
C976 C238 0.697 . S
C993 C181 0.959 . S
C1012 C224 0.946 . S
C1029 C182 0.588 . S
C1048 C253 0.505 . S
C1065 C209 1.199 . S
C1084 C210 1.185 . S
C1101 C250 0.712 . S
C1120 C292 0.775 . S
C1137 C265 0.576 . S
C1156 C308 0.642 . S
C1173 C280 0.714 . S
C1192 C267 0.772 . S
C1209 C57 2.635 . S
C1228 C0 2.570 . S
C1245 C82 1.276 . S
C1264 C14 1.263 . S
C1281 C84 2.821 . S
C1300 C28 2.768 . S
C1317 C98 2.171 . S
C1336 C54 2.136 . S
C1353 C125 2.560 . S
C1372 C167 2.637 . S
C1389 C127 2.128 . S
C1408 C113 2.170 . S
C1425 C153 2.061 . S
C1444 C139 2.133 . S
C1461 C141 1.080 . S
C1480 C155 1.047 . S
C1497 C264 2.631 . S
C1516 C110 2.546 . S
C1533 C168 2.053 . S
C1552 C42 2.112 . S
C1569 C12 2.171 . S
C1588 C195 2.136 . S
C1605 C26 2.819 . S
C1624 C196 2.751 . S
C1641 C70 2.064 . S
C1660 C266 2.102 . S
C1677 C69 1.072 . S
C1696 C223 1.100 . S
C1713 C96 1.251 . S
C1732 C237 1.282 . S
C1749 C225 2.074 . S
C1768 C239 2.128 . S
C1785 C180 1.088 . S
C1804 C252 1.099 . S
C1821 C211 2.050 . S
C1840 C183 2.099 . S
C1857 C278 2.408 . S
C1876 C208 2.450 . S
C1893 C293 2.117 . S
C1912 C335 2.046 . S
C1929 C281 2.409 . S
C1948 C295 2.437 . S
C1965 C321 2.820 . S
C1984 C307 2.756 . S
C2001 C323 1.277 . S
C2020 C309 1.271 . S
C2037 C40 2.448 . S
C2056 C251 2.399 . S
