# Generated by pormake.
# Topology ung, (4)-cn, num edge types: 1
# Building blocks:
#     Node 0, Type 0, BuildingBlock: NAWXER_clean_sbu_0, # of connection points: 4
#     Node 1, Type 0, BuildingBlock: NAWXER_clean_sbu_0, # of connection points: 4
#     Node 2, Type 0, BuildingBlock: NAWXER_clean_sbu_0, # of connection points: 4
#     Node 3, Type 0, BuildingBlock: NAWXER_clean_sbu_0, # of connection points: 4
#     Node 4, Type 0, BuildingBlock: NAWXER_clean_sbu_0, # of connection points: 4
#     Node 5, Type 0, BuildingBlock: NAWXER_clean_sbu_0, # of connection points: 4
#     Node 6, Type 0, BuildingBlock: NAWXER_clean_sbu_0, # of connection points: 4
#     Node 7, Type 0, BuildingBlock: NAWXER_clean_sbu_0, # of connection points: 4
#     Node 8, Type 0, BuildingBlock: NAWXER_clean_sbu_0, # of connection points: 4
#     Node 9, Type 0, BuildingBlock: NAWXER_clean_sbu_0, # of connection points: 4
#     Node 10, Type 0, BuildingBlock: NAWXER_clean_sbu_0, # of connection points: 4
#     Node 11, Type 0, BuildingBlock: NAWXER_clean_sbu_0, # of connection points: 4
#     Node 12, Type 0, BuildingBlock: NAWXER_clean_sbu_0, # of connection points: 4
#     Node 13, Type 0, BuildingBlock: NAWXER_clean_sbu_0, # of connection points: 4
#     Node 14, Type 0, BuildingBlock: NAWXER_clean_sbu_0, # of connection points: 4
#     Node 15, Type 0, BuildingBlock: NAWXER_clean_sbu_0, # of connection points: 4
#     Node 16, Type 0, BuildingBlock: NAWXER_clean_sbu_0, # of connection points: 4
#     Node 17, Type 0, BuildingBlock: NAWXER_clean_sbu_0, # of connection points: 4
#     Edge 18, Type (0, 0), BuildingBlock: OJICUG_clean_linker_0, # of connection points: 2
#     Edge 19, Type (0, 0), BuildingBlock: OJICUG_clean_linker_0, # of connection points: 2
#     Edge 20, Type (0, 0), BuildingBlock: OJICUG_clean_linker_0, # of connection points: 2
#     Edge 21, Type (0, 0), BuildingBlock: OJICUG_clean_linker_0, # of connection points: 2
#     Edge 22, Type (0, 0), BuildingBlock: OJICUG_clean_linker_0, # of connection points: 2
#     Edge 23, Type (0, 0), BuildingBlock: OJICUG_clean_linker_0, # of connection points: 2
#     Edge 24, Type (0, 0), BuildingBlock: OJICUG_clean_linker_0, # of connection points: 2
#     Edge 25, Type (0, 0), BuildingBlock: OJICUG_clean_linker_0, # of connection points: 2
#     Edge 26, Type (0, 0), BuildingBlock: OJICUG_clean_linker_0, # of connection points: 2
#     Edge 27, Type (0, 0), BuildingBlock: OJICUG_clean_linker_0, # of connection points: 2
#     Edge 28, Type (0, 0), BuildingBlock: OJICUG_clean_linker_0, # of connection points: 2
#     Edge 29, Type (0, 0), BuildingBlock: OJICUG_clean_linker_0, # of connection points: 2
#     Edge 30, Type (0, 0), BuildingBlock: OJICUG_clean_linker_0, # of connection points: 2
#     Edge 31, Type (0, 0), BuildingBlock: OJICUG_clean_linker_0, # of connection points: 2
#     Edge 32, Type (0, 0), BuildingBlock: OJICUG_clean_linker_0, # of connection points: 2
#     Edge 33, Type (0, 0), BuildingBlock: OJICUG_clean_linker_0, # of connection points: 2
#     Edge 34, Type (0, 0), BuildingBlock: OJICUG_clean_linker_0, # of connection points: 2
#     Edge 35, Type (0, 0), BuildingBlock: OJICUG_clean_linker_0, # of connection points: 2
#     Edge 36, Type (0, 0), BuildingBlock: OJICUG_clean_linker_0, # of connection points: 2
#     Edge 37, Type (0, 0), BuildingBlock: OJICUG_clean_linker_0, # of connection points: 2
#     Edge 38, Type (0, 0), BuildingBlock: OJICUG_clean_linker_0, # of connection points: 2
#     Edge 39, Type (0, 0), BuildingBlock: OJICUG_clean_linker_0, # of connection points: 2
#     Edge 40, Type (0, 0), BuildingBlock: OJICUG_clean_linker_0, # of connection points: 2
#     Edge 41, Type (0, 0), BuildingBlock: OJICUG_clean_linker_0, # of connection points: 2
#     Edge 42, Type (0, 0), BuildingBlock: OJICUG_clean_linker_0, # of connection points: 2
#     Edge 43, Type (0, 0), BuildingBlock: OJICUG_clean_linker_0, # of connection points: 2
#     Edge 44, Type (0, 0), BuildingBlock: OJICUG_clean_linker_0, # of connection points: 2
#     Edge 45, Type (0, 0), BuildingBlock: OJICUG_clean_linker_0, # of connection points: 2
#     Edge 46, Type (0, 0), BuildingBlock: OJICUG_clean_linker_0, # of connection points: 2
#     Edge 47, Type (0, 0), BuildingBlock: OJICUG_clean_linker_0, # of connection points: 2
#     Edge 48, Type (0, 0), BuildingBlock: OJICUG_clean_linker_0, # of connection points: 2
#     Edge 49, Type (0, 0), BuildingBlock: OJICUG_clean_linker_0, # of connection points: 2
#     Edge 50, Type (0, 0), BuildingBlock: OJICUG_clean_linker_0, # of connection points: 2
#     Edge 51, Type (0, 0), BuildingBlock: OJICUG_clean_linker_0, # of connection points: 2
#     Edge 52, Type (0, 0), BuildingBlock: OJICUG_clean_linker_0, # of connection points: 2
#     Edge 53, Type (0, 0), BuildingBlock: OJICUG_clean_linker_0, # of connection points: 2
# Relax obj value: 0.020
# Max RMSD: 0.247
# Mean RMSD: 0.247
data_MOF--net-ung--node1-NAWXER_clean_sbu_0--edge1-OJICUG_clean_linker_0
_symmetry_space_group_name_H-M    P1
_symmetry_Int_Tables_number       1
_symmetry_cell_setting            triclinic
loop_
_symmetry_equiv_pos_as_xyz
'x, y, z'
_cell_length_a     56.52891
_cell_length_b     56.532891
_cell_length_c     15.67142
_cell_angle_alpha  90.002345
_cell_angle_beta   90.00117
_cell_angle_gamma 119.97006
loop_
_atom_site_label
_atom_site_type_symbol
_atom_site_fract_x
_atom_site_fract_y
_atom_site_fract_z
_atom_type_partial_charge
C0 C 0.07954 0.61722 0.37898 0.0
C1 C 0.05203 0.66488 0.18034 0.0
O2 O 0.05684 0.6165 0.37187 0.0
Zn3 Zn 0.06647 0.64133 0.27777 0.0
O4 O 0.09931 0.63278 0.32922 0.0
Zn5 Zn 0.10563 0.66088 0.22602 0.0
O6 O 0.13428 0.6947 0.2693 0.0
O7 O 0.0947 0.68107 0.3331 0.0
O8 O 0.07741 0.6724 0.17058 0.0
O9 O 0.03783 0.64651 0.23441 0.0
O10 O 0.07278 0.61947 0.1748 0.0
O11 O 0.11524 0.64558 0.13205 0.0
C12 C 0.12007 0.69889 0.32334 0.0
C13 C 0.09255 0.62362 0.12508 0.0
C14 C 0.47001 0.50107 0.32375 0.0
C15 C 0.5451 0.54872 0.12496 0.0
O16 O 0.47413 0.51947 0.26982 0.0
Zn17 Zn 0.50792 0.52461 0.22611 0.0
O18 O 0.48783 0.49349 0.33313 0.0
Zn19 Zn 0.52752 0.50496 0.27754 0.0
O20 O 0.55242 0.52016 0.37148 0.0
O21 O 0.53608 0.54633 0.32906 0.0
O22 O 0.54927 0.5331 0.17457 0.0
O23 O 0.52315 0.54951 0.13215 0.0
O24 O 0.49643 0.48491 0.17047 0.0
O25 O 0.52238 0.47119 0.23387 0.0
C26 C 0.55169 0.54212 0.37866 0.0
C27 C 0.50399 0.46708 0.17989 0.0
C28 C 0.66791 0.04905 0.3241 0.0
C29 C 0.62039 0.07682 0.12574 0.0
O30 O 0.64951 0.0349 0.27003 0.0
Zn31 Zn 0.64443 0.06363 0.22683 0.0
O32 O 0.6755 0.07444 0.33394 0.0
Zn33 Zn 0.66409 0.10276 0.27868 0.0
O34 O 0.64889 0.11244 0.37275 0.0
O35 O 0.62265 0.07001 0.32989 0.0
O36 O 0.636 0.09657 0.17551 0.0
O37 O 0.61959 0.05409 0.13281 0.0
O38 O 0.68416 0.09178 0.17139 0.0
O39 O 0.69795 0.13135 0.23547 0.0
C40 C 0.62687 0.08978 0.37969 0.0
C41 C 0.70206 0.11713 0.18125 0.0
C42 C 0.05178 0.46635 0.67992 0.0
C43 C 0.07951 0.54141 0.87913 0.0
O44 O 0.07716 0.48415 0.6702 0.0
Zn45 Zn 0.10547 0.52378 0.72592 0.0
O46 O 0.03759 0.47051 0.73413 0.0
Zn47 Zn 0.06632 0.50423 0.77768 0.0
O48 O 0.07268 0.53245 0.67482 0.0
O49 O 0.11514 0.54872 0.6321 0.0
O50 O 0.0568 0.51946 0.87206 0.0
O51 O 0.09925 0.54557 0.82927 0.0
O52 O 0.13404 0.5184 0.76878 0.0
O53 O 0.09444 0.49245 0.83238 0.0
C54 C 0.09246 0.54804 0.62513 0.0
C55 C 0.11979 0.4999 0.82242 0.0
C56 C 0.6684 0.69931 0.82319 0.0
C57 C 0.62079 0.62416 0.62481 0.0
O58 O 0.67592 0.68146 0.83306 0.0
Zn59 Zn 0.66444 0.64174 0.77774 0.0
O60 O 0.65004 0.69516 0.76905 0.0
Zn61 Zn 0.64488 0.66135 0.72587 0.0
O62 O 0.62305 0.63326 0.82894 0.0
O63 O 0.64916 0.6169 0.87174 0.0
O64 O 0.62006 0.64614 0.63182 0.0
O65 O 0.63635 0.61996 0.67461 0.0
O66 O 0.69826 0.64688 0.73458 0.0
O67 O 0.68461 0.67281 0.67065 0.0
C68 C 0.62721 0.61767 0.87873 0.0
C69 C 0.70244 0.66526 0.68051 0.0
C70 C 0.54472 0.07697 0.62552 0.0
C71 C 0.46966 0.04926 0.82457 0.0
O72 O 0.5489 0.09673 0.67534 0.0
Zn73 Zn 0.52709 0.10297 0.77862 0.0
O74 O 0.52277 0.05427 0.63261 0.0
Zn75 Zn 0.50755 0.06381 0.7269 0.0
O76 O 0.49574 0.09189 0.67215 0.0
O77 O 0.52168 0.13152 0.73562 0.0
O78 O 0.47384 0.03508 0.77038 0.0
O79 O 0.48745 0.07464 0.83433 0.0
O80 O 0.55204 0.11264 0.87252 0.0
O81 O 0.53575 0.07018 0.82981 0.0
C82 C 0.50317 0.11723 0.68202 0.0
C83 C 0.55134 0.08995 0.87951 0.0
C84 C 0.74577 0.95065 0.71231 0.0
C85 C 0.71817 0.99834 0.51397 0.0
O86 O 0.72305 0.94988 0.70527 0.0
Zn87 Zn 0.73262 0.97474 0.61121 0.0
O88 O 0.76552 0.96625 0.66254 0.0
Zn89 Zn 0.77178 0.99435 0.55946 0.0
O90 O 0.8004 0.02815 0.60268 0.0
O91 O 0.76082 0.01448 0.66658 0.0
O92 O 0.74354 0.00587 0.50421 0.0
O93 O 0.70395 0.97992 0.56791 0.0
O94 O 0.73898 0.95296 0.50813 0.0
O95 O 0.78143 0.97916 0.46543 0.0
C96 C 0.78619 0.03232 0.65674 0.0
C97 C 0.75876 0.95717 0.45839 0.0
C98 C 0.13644 0.8337 0.65697 0.0
C99 C 0.21153 0.88136 0.45842 0.0
O100 O 0.14059 0.85207 0.60289 0.0
Zn101 Zn 0.17439 0.85723 0.55959 0.0
O102 O 0.1543 0.82618 0.66676 0.0
Zn103 Zn 0.19403 0.8377 0.61132 0.0
O104 O 0.21892 0.853 0.70532 0.0
O105 O 0.20253 0.87909 0.66258 0.0
O106 O 0.21577 0.8658 0.50816 0.0
O107 O 0.18954 0.88206 0.46553 0.0
O108 O 0.16291 0.8175 0.50428 0.0
O109 O 0.18888 0.80387 0.56802 0.0
C110 C 0.21815 0.87495 0.71232 0.0
C111 C 0.17047 0.79968 0.51402 0.0
C112 C 0.36891 0.44999 0.51271 0.0
C113 C 0.29274 0.42072 0.70814 0.0
O114 O 0.36434 0.4637 0.56755 0.0
Zn115 Zn 0.33014 0.43461 0.60844 0.0
O116 O 0.35126 0.4247 0.50116 0.0
Zn117 Zn 0.31177 0.39582 0.55416 0.0
O118 O 0.28714 0.38624 0.45945 0.0
O119 O 0.30225 0.42826 0.50472 0.0
O120 O 0.28913 0.40103 0.65867 0.0
O121 O 0.31429 0.44377 0.7008 0.0
O122 O 0.34082 0.40614 0.66662 0.0
O123 O 0.31856 0.36778 0.59318 0.0
C124 C 0.28721 0.40865 0.45373 0.0
C125 C 0.33495 0.38139 0.65269 0.0
C126 C 0.78671 0.83405 0.1568 0.0
C127 C 0.75903 0.88169 0.95852 0.0
O128 O 0.76132 0.82648 0.16658 0.0
Zn129 Zn 0.73305 0.83796 0.11132 0.0
O130 O 0.8009 0.85246 0.10283 0.0
Zn131 Zn 0.77221 0.85761 0.05957 0.0
O132 O 0.76582 0.87936 0.16269 0.0
O133 O 0.72337 0.85313 0.20538 0.0
O134 O 0.78177 0.88247 0.96556 0.0
O135 O 0.73929 0.86607 0.00826 0.0
O136 O 0.70445 0.80415 0.06803 0.0
O137 O 0.74404 0.81789 0.00413 0.0
C138 C 0.74604 0.87512 0.21244 0.0
C139 C 0.71868 0.80002 0.01392 0.0
C140 C 0.33435 0.03231 0.15749 0.0
C141 C 0.28712 0.95718 0.95845 0.0
O142 O 0.34199 0.01454 0.16728 0.0
Zn143 Zn 0.33075 0.97491 0.11159 0.0
O144 O 0.31603 0.02811 0.10315 0.0
Zn145 Zn 0.31108 0.99439 0.05972 0.0
O146 O 0.28929 0.96618 0.16265 0.0
O147 O 0.31555 0.94999 0.20542 0.0
O148 O 0.2863 0.9791 0.96548 0.0
O149 O 0.30273 0.95305 0.00831 0.0
O150 O 0.36465 0.98024 0.06864 0.0
O151 O 0.3509 0.00608 0.00472 0.0
C152 C 0.29353 0.95063 0.21237 0.0
C153 C 0.3688 0.99863 0.01466 0.0
C154 C 0.16985 0.44858 0.01013 0.0
C155 C 0.21749 0.42099 0.20826 0.0
O156 O 0.16213 0.42315 1.00051 0.0
Zn157 Zn 0.1735 0.39478 0.05607 0.0
O158 O 0.18835 0.46273 0.06391 0.0
Zn159 Zn 0.1933 0.43399 0.10727 0.0
O160 O 0.21483 0.42731 0.0041 0.0
O161 O 0.18852 0.38483 0.96188 0.0
O162 O 0.21824 0.44369 0.20093 0.0
O163 O 0.2018 0.40114 0.15889 0.0
O164 O 0.13966 0.36635 0.10013 0.0
O165 O 0.15361 0.40608 0.16325 0.0
C166 C 0.21054 0.40746 0.95455 0.0
C167 C 0.13566 0.38074 0.15398 0.0
C168 C 0.41158 0.28427 0.05023 0.0
C169 C 0.38447 0.33201 0.85088 0.0
O170 O 0.38918 0.28421 0.04444 0.0
Zn171 Zn 0.39879 0.30884 0.94965 0.0
O172 O 0.4312 0.2993 0.99928 0.0
Zn173 Zn 0.43762 0.32717 0.89554 0.0
O174 O 0.4667 0.36136 0.93645 0.0
O175 O 0.42767 0.34833 0.00259 0.0
O176 O 0.40922 0.33787 0.8371 0.0
O177 O 0.37078 0.31569 0.9104 0.0
O178 O 0.40401 0.28619 0.84521 0.0
O179 O 0.44679 0.3113 0.80332 0.0
C180 C 0.45297 0.36596 0.99112 0.0
C181 C 0.42373 0.28978 0.79586 0.0
C182 C 0.80267 0.16731 0.98973 0.0
C183 C 0.87779 0.21488 0.79092 0.0
O184 O 0.80681 0.18568 0.93569 0.0
Zn185 Zn 0.8406 0.1908 0.89215 0.0
O186 O 0.8205 0.15974 0.99937 0.0
Zn187 Zn 0.86019 0.1712 0.94383 0.0
O188 O 0.88508 0.18642 0.03774 0.0
O189 O 0.86877 0.2126 0.99513 0.0
O190 O 0.88197 0.19929 0.84068 0.0
O191 O 0.85584 0.21564 0.79801 0.0
O192 O 0.82905 0.15104 0.83689 0.0
O193 O 0.85501 0.13739 0.90064 0.0
C194 C 0.88436 0.2084 0.04481 0.0
C195 C 0.8366 0.1332 0.84668 0.0
C196 C 1.00159 0.71529 0.98993 0.0
C197 C 0.95393 0.7429 0.79153 0.0
O198 O 0.98319 0.70109 0.93589 0.0
Zn199 Zn 0.97803 0.72976 0.89263 0.0
O200 O 0.00912 0.74066 0.99973 0.0
Zn201 Zn 0.99763 0.76891 0.94443 0.0
O202 O 0.9824 0.77855 0.03845 0.0
O203 O 0.95623 0.7361 0.99571 0.0
O204 O 0.96952 0.76265 0.84132 0.0
O205 O 0.95318 0.72019 0.79855 0.0
O206 O 0.01777 0.75796 0.83734 0.0
O207 O 0.03144 0.79754 0.90125 0.0
C208 C 0.96043 0.75587 0.04547 0.0
C209 C 0.03562 0.78333 0.84719 0.0
C210 C 0.38377 0.13273 0.34997 0.0
C211 C 0.41046 0.2076 0.54937 0.0
O212 O 0.40911 0.1507 0.34068 0.0
Zn213 Zn 0.437 0.1904 0.39662 0.0
O214 O 0.36938 0.13672 0.40385 0.0
Zn215 Zn 0.39779 0.17058 0.44787 0.0
O216 O 0.40411 0.19887 0.34507 0.0
O217 O 0.44666 0.21533 0.30297 0.0
O218 O 0.38783 0.18558 0.54206 0.0
O219 O 0.43031 0.21191 0.4998 0.0
O220 O 0.46578 0.1855 0.43998 0.0
O221 O 0.42622 0.15928 0.50349 0.0
C222 C 0.42395 0.21456 0.29568 0.0
C223 C 0.45166 0.16703 0.49386 0.0
C224 C 1.00135 0.36562 0.48915 0.0
C225 C 0.95354 0.29043 0.29095 0.0
O226 O 0.00883 0.34773 0.49903 0.0
Zn227 Zn 0.99723 0.30796 0.44382 0.0
O228 O 0.98299 0.36148 0.43504 0.0
Zn229 Zn 0.97773 0.32761 0.39192 0.0
O230 O 0.95584 0.29953 0.49504 0.0
O231 O 0.98193 0.28313 0.53789 0.0
O232 O 0.95286 0.31243 0.29794 0.0
O233 O 0.96909 0.2862 0.34073 0.0
O234 O 0.03099 0.31297 0.40056 0.0
O235 O 0.01741 0.33892 0.3364 0.0
C236 C 0.95998 0.28392 0.54485 0.0
C237 C 0.03519 0.3313 0.34625 0.0
C238 C 0.83719 0.78362 0.34702 0.0
C239 C 0.88488 0.75604 0.54536 0.0
O240 O 0.82964 0.75824 0.33725 0.0
Zn241 Zn 0.84116 0.73 0.39256 0.0
O242 O 0.85559 0.79782 0.40103 0.0
Zn243 Zn 0.86076 0.76916 0.4443 0.0
O244 O 0.88254 0.76281 0.3412 0.0
O245 O 0.85636 0.72035 0.29851 0.0
O246 O 0.88564 0.77876 0.53832 0.0
O247 O 0.86928 0.73629 0.49561 0.0
O248 O 0.80736 0.70138 0.43586 0.0
O249 O 0.82105 0.74096 0.49973 0.0
C250 C 0.87834 0.74303 0.29146 0.0
C251 C 0.80321 0.7156 0.48996 0.0
C252 C 0.06122 0.55802 0.99637 0.0
C253 C 0.08295 0.56232 0.94268 0.0
H254 H 0.04713 0.57394 0.09564 0.0
C255 C 0.10782 0.58703 0.94921 0.0
H256 H 0.04176 0.53924 0.99295 0.0
C257 C 0.11088 0.60697 0.00802 0.0
C258 C 0.08914 0.60267 0.06168 0.0
H259 H 0.12496 0.59105 0.90873 0.0
H260 H 0.13033 0.62575 0.01143 0.0
C261 C 0.06427 0.57796 0.05518 0.0
C262 C 0.58161 0.60045 0.94887 0.0
C263 C 0.60629 0.60022 0.94223 0.0
H264 H 0.54293 0.58436 0.01132 0.0
C265 C 0.61059 0.58277 0.99587 0.0
H266 H 0.5776 0.61359 0.90843 0.0
C267 C 0.59067 0.56595 0.05477 0.0
C268 C 0.56599 0.56618 0.06143 0.0
H269 H 0.62935 0.58204 0.99235 0.0
H270 H 0.59469 0.55281 0.09521 0.0
C271 C 0.56169 0.58363 0.00779 0.0
C272 C 0.60313 0.10519 0.05555 0.0
C273 C 0.60293 0.08029 0.06219 0.0
H274 H 0.58699 0.12775 0.99313 0.0
C275 C 0.58551 0.05856 0.00851 0.0
H276 H 0.61626 0.12233 0.09602 0.0
C277 C 0.56866 0.06165 0.94961 0.0
C278 C 0.56885 0.08654 0.94298 0.0
H279 H 0.5848 0.03908 0.01201 0.0
H280 H 0.55554 0.0445 0.90916 0.0
C281 C 0.58628 0.10827 0.99663 0.0
C282 C 0.58119 0.06162 0.44953 0.0
C283 C 0.60595 0.08644 0.44309 0.0
H284 H 0.54245 0.03919 0.51166 0.0
C285 C 0.61032 0.10819 0.49679 0.0
H286 H 0.57713 0.04447 0.40903 0.0
C287 C 0.59039 0.10519 0.55557 0.0
C288 C 0.56563 0.08037 0.56202 0.0
H289 H 0.62914 0.12761 0.49343 0.0
H290 H 0.59445 0.12234 0.5961 0.0
C291 C 0.56127 0.05862 0.5083 0.0
C292 C 0.06119 0.58234 0.49621 0.0
C293 C 0.08294 0.59973 0.44255 0.0
H294 H 0.04706 0.55236 0.59554 0.0
C295 C 0.1078 0.59986 0.44918 0.0
H296 H 0.04173 0.58169 0.49271 0.0
C297 C 0.11083 0.58298 0.50806 0.0
C298 C 0.08908 0.56558 0.5617 0.0
H299 H 0.12495 0.61295 0.40872 0.0
H300 H 0.13028 0.58362 0.51155 0.0
C301 C 0.06422 0.56546 0.55509 0.0
C302 C 0.58589 0.60762 0.50767 0.0
C303 C 0.60331 0.60327 0.5613 0.0
H304 H 0.55592 0.59177 0.40835 0.0
C305 C 0.60346 0.57856 0.55468 0.0
H306 H 0.58522 0.62641 0.51118 0.0
C307 C 0.5866 0.55865 0.49578 0.0
C308 C 0.56919 0.563 0.44216 0.0
H309 H 0.61658 0.57451 0.59513 0.0
H310 H 0.58727 0.53986 0.49227 0.0
C311 C 0.56903 0.58772 0.44879 0.0
C312 C 0.72761 0.89162 0.32955 0.0
C313 C 0.74938 0.89601 0.27592 0.0
H314 H 0.71342 0.90745 0.42883 0.0
C315 C 0.7742 0.92076 0.28248 0.0
H316 H 0.70818 0.87281 0.32609 0.0
C317 C 0.77718 0.94066 0.3413 0.0
C318 C 0.75541 0.93628 0.39493 0.0
H319 H 0.79137 0.92483 0.24203 0.0
H320 H 0.79661 0.95947 0.34476 0.0
C321 C 0.73059 0.91153 0.38838 0.0
C322 C 0.25715 0.89879 0.38827 0.0
C323 C 0.2324 0.89887 0.39488 0.0
H324 H 0.29587 0.91508 0.32594 0.0
C325 C 0.22799 0.91624 0.34123 0.0
H326 H 0.26125 0.88571 0.42873 0.0
C327 C 0.24788 0.93314 0.28237 0.0
C328 C 0.27264 0.93307 0.27579 0.0
H329 H 0.20917 0.91686 0.34472 0.0
H330 H 0.24379 0.94623 0.24193 0.0
C331 C 0.27705 0.91569 0.32941 0.0
C332 C 0.25238 0.39014 0.33631 0.0
C333 C 0.26955 0.41188 0.39039 0.0
H334 H 0.22244 0.37589 0.23681 0.0
C335 C 0.26929 0.43655 0.38443 0.0
H336 H 0.25202 0.37082 0.33933 0.0
C337 C 0.25227 0.43943 0.32571 0.0
C338 C 0.2351 0.4177 0.27162 0.0
H339 H 0.2822 0.45368 0.42522 0.0
H340 H 0.25264 0.45875 0.32272 0.0
C341 C 0.23535 0.39302 0.27763 0.0
C342 C 0.2272 0.38896 0.8377 0.0
C343 C 0.23141 0.41077 0.891 0.0
H344 H 0.24324 0.37491 0.73845 0.0
C345 C 0.25602 0.43569 0.88404 0.0
H346 H 0.20849 0.36945 0.84153 0.0
C347 C 0.27592 0.43878 0.82518 0.0
C348 C 0.27174 0.41702 0.77176 0.0
H349 H 0.25998 0.45288 0.92418 0.0
H350 H 0.2946 0.45832 0.82151 0.0
C351 C 0.24715 0.39205 0.77873 0.0
C352 C 0.73064 0.89892 0.8884 0.0
C353 C 0.75555 0.89914 0.895 0.0
H354 H 0.70804 0.91502 0.82602 0.0
C355 C 0.77727 0.91658 0.84131 0.0
H356 H 0.71351 0.88578 0.92888 0.0
C357 C 0.77415 0.93341 0.78242 0.0
C358 C 0.74924 0.93319 0.77582 0.0
H359 H 0.79676 0.91731 0.84479 0.0
H360 H 0.79129 0.94654 0.74194 0.0
C361 C 0.72753 0.91575 0.8295 0.0
C362 C 0.26992 0.91157 0.88834 0.0
C363 C 0.26969 0.93625 0.89489 0.0
H364 H 0.25381 0.87286 0.82606 0.0
C365 C 0.25225 0.94053 0.84115 0.0
H366 H 0.28305 0.90757 0.92886 0.0
C367 C 0.23542 0.92059 0.78229 0.0
C368 C 0.23563 0.89589 0.77577 0.0
H369 H 0.25152 0.95929 0.84458 0.0
H370 H 0.22228 0.92458 0.7418 0.0
C371 C 0.25308 0.89162 0.82948 0.0
C372 C 0.39504 0.24421 0.72518 0.0
C373 C 0.42001 0.26878 0.73223 0.0
H374 H 0.37243 0.20557 0.66229 0.0
C375 C 0.44178 0.27296 0.67887 0.0
H376 H 0.37788 0.24031 0.76541 0.0
C377 C 0.43869 0.25306 0.61998 0.0
C378 C 0.41376 0.22846 0.61294 0.0
H379 H 0.46133 0.29162 0.68259 0.0
H380 H 0.45589 0.25701 0.57989 0.0
C381 C 0.39194 0.22426 0.66618 0.0
C382 C 0.92341 0.23216 0.72084 0.0
C383 C 0.8987 0.23235 0.7274 0.0
H384 H 0.96211 0.2483 0.65857 0.0
C385 C 0.8944 0.24979 0.67371 0.0
H386 H 0.92743 0.21903 0.76132 0.0
C387 C 0.91434 0.26664 0.61485 0.0
C388 C 0.93904 0.26645 0.60832 0.0
H389 H 0.87563 0.25049 0.67716 0.0
H390 H 0.91033 0.27977 0.57437 0.0
C391 C 0.94334 0.24901 0.662 0.0
C392 C 0.91904 0.72462 0.67432 0.0
C393 C 0.93646 0.74635 0.72801 0.0
H394 H 0.88907 0.71057 0.57495 0.0
C395 C 0.93664 0.77124 0.72144 0.0
H396 H 0.91834 0.70515 0.67778 0.0
C397 C 0.91979 0.77432 0.66255 0.0
C398 C 0.90237 0.7526 0.60886 0.0
H399 H 0.94976 0.78837 0.76192 0.0
H400 H 0.92049 0.7938 0.65909 0.0
C401 C 0.90219 0.72771 0.61544 0.0
C402 C 0.89488 0.72464 0.17434 0.0
C403 C 0.89923 0.7464 0.22798 0.0
H404 H 0.91074 0.71049 0.07505 0.0
C405 C 0.92397 0.77124 0.22141 0.0
H406 H 0.87608 0.7052 0.17781 0.0
C407 C 0.94388 0.77426 0.16257 0.0
C408 C 0.93953 0.75249 0.10893 0.0
H409 H 0.92802 0.7884 0.26186 0.0
H410 H 0.96268 0.7937 0.15911 0.0
C411 C 0.91479 0.72765 0.1155 0.0
C412 C 0.44237 0.24935 0.17828 0.0
C413 C 0.42064 0.23217 0.23235 0.0
H414 H 0.45662 0.27927 0.07879 0.0
C415 C 0.39595 0.23241 0.22634 0.0
H416 H 0.4617 0.24973 0.18127 0.0
C417 C 0.39307 0.24944 0.16767 0.0
C418 C 0.4148 0.26662 0.1136 0.0
H419 H 0.37883 0.21949 0.26715 0.0
H420 H 0.37375 0.24908 0.16464 0.0
C421 C 0.43948 0.26636 0.11958 0.0
C422 C 0.93616 0.24482 0.2208 0.0
C423 C 0.93603 0.26955 0.22744 0.0
H424 H 0.91993 0.20612 0.15841 0.0
C425 C 0.91863 0.27392 0.17381 0.0
H426 H 0.94926 0.24075 0.26124 0.0
C427 C 0.90175 0.25402 0.11492 0.0
C428 C 0.90188 0.22929 0.10829 0.0
H429 H 0.91798 0.29272 0.17732 0.0
H430 H 0.88865 0.25809 0.07448 0.0
C431 C 0.91928 0.22492 0.16192 0.0
C432 C 0.11745 0.73686 0.39667 0.0
C433 C 0.1327 0.72445 0.37317 0.0
H434 H 0.11778 0.77099 0.45792 0.0
C435 C 0.16042 0.73708 0.39556 0.0
H436 H 0.09608 0.7276 0.37955 0.0
C437 C 0.17262 0.76146 0.4418 0.0
C438 C 0.15753 0.77411 0.46422 0.0
H439 H 0.17261 0.72791 0.37821 0.0
H440 H 0.19397 0.77062 0.45911 0.0
C441 C 0.12989 0.76172 0.44077 0.0
C442 C 0.43194 0.50317 0.39735 0.0
C443 C 0.44447 0.48807 0.37363 0.0
H444 H 0.39837 0.50298 0.46159 0.0
C445 C 0.43195 0.46032 0.39564 0.0
H446 H 0.44121 0.52461 0.38114 0.0
C447 C 0.40704 0.44776 0.43939 0.0
C448 C 0.3947 0.46296 0.46404 0.0
H449 H 0.44113 0.44821 0.37746 0.0
H450 H 0.39766 0.42627 0.45517 0.0
C451 C 0.40749 0.49082 0.44334 0.0
C452 C 0.67784 0.99632 0.44192 0.0
C453 C 0.70557 0.01135 0.46436 0.0
H454 H 0.64433 0.99646 0.37852 0.0
C455 C 0.72084 0.03901 0.44118 0.0
H456 H 0.66564 0.97496 0.45903 0.0
C457 C 0.70843 0.05152 0.39732 0.0
C458 C 0.6808 0.03635 0.37379 0.0
H459 H 0.74221 0.05107 0.45838 0.0
H460 H 0.72057 0.07291 0.38039 0.0
C461 C 0.66568 0.0086 0.3959 0.0
C462 C 0.74051 0.15755 0.11016 0.0
C463 C 0.72759 0.12971 0.13126 0.0
H464 H 0.77424 0.19114 0.0474 0.0
C465 C 0.73967 0.1143 0.10625 0.0
H466 H 0.7316 0.16988 0.12868 0.0
C467 C 0.7645 0.12666 0.06193 0.0
C468 C 0.77717 0.15442 0.03977 0.0
H469 H 0.73019 0.09283 0.12232 0.0
H470 H 0.77351 0.11442 0.04356 0.0
C471 C 0.76485 0.16969 0.0637 0.0
C472 C 0.99946 0.67493 0.062 0.0
C473 C 0.01454 0.70266 0.03966 0.0
H474 H 0.9995 0.64138 0.12544 0.0
C475 C 0.04218 0.71789 0.06308 0.0
H476 H 0.97811 0.66275 0.0447 0.0
C477 C 0.05463 0.70545 0.10709 0.0
C478 C 0.03941 0.67781 0.13051 0.0
H479 H 0.05428 0.73927 0.04598 0.0
H480 H 0.076 0.71756 0.12421 0.0
C481 C 0.01168 0.66273 0.10815 0.0
C482 C 0.49376 0.40452 0.06063 0.0
C483 C 0.46592 0.39176 0.03969 0.0
H484 H 0.52752 0.43823 0.12297 0.0
C485 C 0.45072 0.40415 0.064 0.0
H486 H 0.50591 0.39537 0.04263 0.0
C487 C 0.46328 0.42907 0.1077 0.0
C488 C 0.49101 0.44155 0.12998 0.0
H489 H 0.42926 0.39479 0.04801 0.0
H490 H 0.45117 0.43828 0.12564 0.0
C491 C 0.50609 0.42898 0.10656 0.0
C492 C 0.99923 0.40385 0.56128 0.0
C493 C 0.0143 0.39117 0.53896 0.0
H494 H 0.99926 0.43742 0.62482 0.0
C495 C 0.04193 0.40352 0.5625 0.0
H496 H 0.97789 0.39471 0.5439 0.0
C497 C 0.05437 0.42838 0.6066 0.0
C498 C 0.03915 0.44082 0.63 0.0
H499 H 0.05402 0.39423 0.54542 0.0
H500 H 0.07573 0.43761 0.62382 0.0
C501 C 0.01143 0.42823 0.60753 0.0
C502 C 0.7404 0.70582 0.60731 0.0
C503 C 0.728 0.67819 0.63076 0.0
H504 H 0.77452 0.73961 0.54609 0.0
C505 C 0.74065 0.66309 0.60841 0.0
H506 H 0.73113 0.71794 0.62442 0.0
C507 C 0.76504 0.67527 0.56221 0.0
C508 C 0.77767 0.703 0.53981 0.0
H509 H 0.73148 0.64174 0.62574 0.0
H510 H 0.7742 0.66308 0.5449 0.0
C511 C 0.76527 0.71825 0.56325 0.0
C512 C 0.44952 0.12658 0.56664 0.0
C513 C 0.4645 0.15426 0.54347 0.0
H514 H 0.45034 0.09289 0.62688 0.0
C515 C 0.49225 0.16953 0.56552 0.0
H516 H 0.42815 0.11433 0.54972 0.0
C517 C 0.50473 0.15748 0.61101 0.0
C518 C 0.48992 0.12971 0.633 0.0
H519 H 0.50424 0.19091 0.5484 0.0
H520 H 0.52609 0.16981 0.62801 0.0
C521 C 0.46225 0.11429 0.61 0.0
C522 C 0.40673 0.03928 0.94166 0.0
C523 C 0.3944 0.01164 0.96506 0.0
H524 H 0.44084 0.07314 0.88061 0.0
C525 C 0.40713 0.99662 0.94283 0.0
H526 H 0.39739 0.05133 0.95869 0.0
C527 C 0.43155 0.00887 0.89678 0.0
C528 C 0.44412 0.0366 0.87442 0.0
H529 H 0.39802 0.97527 0.96011 0.0
H530 H 0.44078 0.99674 0.87953 0.0
C531 C 0.43163 0.05177 0.89776 0.0
C532 C 0.11695 0.45902 0.89441 0.0
C533 C 0.13232 0.4867 0.8714 0.0
H534 H 0.1171 0.42497 0.95455 0.0
C535 C 0.16009 0.50155 0.89328 0.0
H536 H 0.09554 0.44708 0.87761 0.0
C537 C 0.17222 0.48912 0.93862 0.0
C538 C 0.157 0.46137 0.96066 0.0
H539 H 0.17238 0.52292 0.87627 0.0
H540 H 0.19361 0.50114 0.95564 0.0
C541 C 0.12931 0.44634 0.93764 0.0
C542 C 0.6662 0.73748 0.89539 0.0
C543 C 0.68131 0.72485 0.87303 0.0
H544 H 0.66617 0.77102 0.95893 0.0
C545 C 0.70895 0.73725 0.89652 0.0
H546 H 0.64485 0.72831 0.87803 0.0
C547 C 0.72136 0.76211 0.94061 0.0
C548 C 0.70609 0.77449 0.96405 0.0
H549 H 0.72107 0.72799 0.87939 0.0
H550 H 0.74273 0.77137 0.9578 0.0
C551 C 0.67837 0.76186 0.94162 0.0
C552 C 0.82654 0.07057 0.72862 0.0
C553 C 0.7988 0.05789 0.70645 0.0
H554 H 0.86011 0.10418 0.79178 0.0
C555 C 0.78354 0.07029 0.72991 0.0
H556 H 0.83874 0.0614 0.71128 0.0
C557 C 0.79599 0.09519 0.77378 0.0
C558 C 0.82365 0.10763 0.79701 0.0
H559 H 0.76216 0.061 0.71292 0.0
H560 H 0.78387 0.10445 0.79094 0.0
C561 C 0.83875 0.09499 0.77462 0.0
C562 C 0.09848 0.79312 0.73013 0.0
C563 C 0.11089 0.82077 0.70676 0.0
H564 H 0.06432 0.75931 0.79116 0.0
C565 C 0.09824 0.83586 0.72911 0.0
H566 H 0.10775 0.78101 0.71301 0.0
C567 C 0.07383 0.82367 0.77519 0.0
C568 C 0.06118 0.79594 0.79748 0.0
H569 H 0.10742 0.85722 0.71184 0.0
H570 H 0.06466 0.83586 0.79248 0.0
C571 C 0.07359 0.78069 0.77408 0.0
C572 C 0.35059 0.37276 0.79225 0.0
C573 C 0.34786 0.36903 0.70355 0.0
H574 H 0.36379 0.36307 0.90898 0.0
C575 C 0.35758 0.35331 0.66337 0.0
H576 H 0.3432 0.38478 0.82444 0.0
C577 C 0.37015 0.34175 0.71113 0.0
C578 C 0.37222 0.34493 0.79997 0.0
H579 H 0.35583 0.35033 0.59486 0.0
H580 H 0.37772 0.32988 0.67902 0.0
C581 C 0.36224 0.36035 0.84036 0.0
C582 C 0.07318 0.3716 0.27203 0.0
C583 C 0.06067 0.344 0.29605 0.0
H584 H 0.10731 0.40514 0.20997 0.0
C585 C 0.07312 0.32872 0.27376 0.0
H586 H 0.06406 0.38385 0.28905 0.0
C587 C 0.09743 0.34067 0.22712 0.0
C588 C 0.11018 0.36836 0.20418 0.0
H589 H 0.06387 0.30739 0.29149 0.0
H590 H 0.10645 0.32834 0.20991 0.0
C591 C 0.09797 0.3838 0.22752 0.0
C592 C 0.79659 0.78101 0.27385 0.0
C593 C 0.82423 0.79625 0.29728 0.0
H594 H 0.76276 0.78135 0.21277 0.0
C595 C 0.8393 0.82398 0.27496 0.0
H596 H 0.78449 0.75964 0.29093 0.0
C597 C 0.82708 0.83619 0.22885 0.0
C598 C 0.79935 0.8211 0.2065 0.0
H599 H 0.86065 0.83616 0.29226 0.0
H600 H 0.83925 0.85754 0.21159 0.0
C601 C 0.78413 0.79346 0.22988 0.0
C602 C 0.37464 0.07028 0.23177 0.0
C603 C 0.34704 0.05778 0.20776 0.0
H604 H 0.40819 0.10441 0.29387 0.0
C605 C 0.33175 0.07022 0.2301 0.0
H606 H 0.38691 0.06117 0.21469 0.0
C607 C 0.3437 0.09451 0.2768 0.0
C608 C 0.37139 0.10726 0.29974 0.0
H609 H 0.31043 0.06096 0.21237 0.0
H610 H 0.33137 0.10352 0.29406 0.0
C611 C 0.38684 0.09506 0.27633 0.0
loop_
_geom_bond_atom_site_label_1
_geom_bond_atom_site_label_2
_geom_bond_distance
_geom_bond_site_symmetry_2
_ccdc_geom_bond_type
C0 O2 1.247 . S
C0 O4 1.258 . S
C1 O8 1.247 . S
C1 O9 1.258 . S
O2 C0 1.247 . S
O2 Zn3 2.028 . S
Zn3 O2 2.028 . S
Zn3 O7 2.035 . S
Zn3 O9 2.035 . S
Zn3 O10 2.028 . S
O4 C0 1.258 . S
O4 Zn5 2.035 . S
Zn5 O4 2.035 . S
Zn5 O6 2.028 . S
Zn5 O8 2.028 . S
Zn5 O11 2.035 . S
O6 Zn5 2.028 . S
O6 C12 1.247 . S
O7 Zn3 2.035 . S
O7 C12 1.258 . S
O8 C1 1.247 . S
O8 Zn5 2.028 . S
O9 C1 1.258 . S
O9 Zn3 2.035 . S
O10 Zn3 2.028 . S
O10 C13 1.247 . S
O11 Zn5 2.035 . S
O11 C13 1.258 . S
C12 O6 1.247 . S
C12 O7 1.258 . S
C13 O10 1.247 . S
C13 O11 1.258 . S
C14 O16 1.247 . S
C14 O18 1.258 . S
C15 O22 1.247 . S
C15 O23 1.258 . S
O16 C14 1.247 . S
O16 Zn17 2.028 . S
Zn17 O16 2.028 . S
Zn17 O21 2.035 . S
Zn17 O23 2.035 . S
Zn17 O24 2.028 . S
O18 C14 1.258 . S
O18 Zn19 2.035 . S
Zn19 O18 2.035 . S
Zn19 O20 2.028 . S
Zn19 O22 2.028 . S
Zn19 O25 2.035 . S
O20 Zn19 2.028 . S
O20 C26 1.247 . S
O21 Zn17 2.035 . S
O21 C26 1.258 . S
O22 C15 1.247 . S
O22 Zn19 2.028 . S
O23 C15 1.258 . S
O23 Zn17 2.035 . S
O24 Zn17 2.028 . S
O24 C27 1.247 . S
O25 Zn19 2.035 . S
O25 C27 1.258 . S
C26 O20 1.247 . S
C26 O21 1.258 . S
C27 O24 1.247 . S
C27 O25 1.258 . S
C28 O30 1.247 . S
C28 O32 1.258 . S
C29 O36 1.247 . S
C29 O37 1.258 . S
O30 C28 1.247 . S
O30 Zn31 2.028 . S
Zn31 O30 2.028 . S
Zn31 O35 2.035 . S
Zn31 O37 2.035 . S
Zn31 O38 2.028 . S
O32 C28 1.258 . S
O32 Zn33 2.035 . S
Zn33 O32 2.035 . S
Zn33 O34 2.028 . S
Zn33 O36 2.028 . S
Zn33 O39 2.035 . S
O34 Zn33 2.028 . S
O34 C40 1.247 . S
O35 Zn31 2.035 . S
O35 C40 1.258 . S
O36 C29 1.247 . S
O36 Zn33 2.028 . S
O37 C29 1.258 . S
O37 Zn31 2.035 . S
O38 Zn31 2.028 . S
O38 C41 1.247 . S
O39 Zn33 2.035 . S
O39 C41 1.258 . S
C40 O34 1.247 . S
C40 O35 1.258 . S
C41 O38 1.247 . S
C41 O39 1.258 . S
C42 O44 1.247 . S
C42 O46 1.258 . S
C43 O50 1.247 . S
C43 O51 1.258 . S
O44 C42 1.247 . S
O44 Zn45 2.028 . S
Zn45 O44 2.028 . S
Zn45 O49 2.035 . S
Zn45 O51 2.035 . S
Zn45 O52 2.028 . S
O46 C42 1.258 . S
O46 Zn47 2.035 . S
Zn47 O46 2.035 . S
Zn47 O48 2.028 . S
Zn47 O50 2.028 . S
Zn47 O53 2.035 . S
O48 Zn47 2.028 . S
O48 C54 1.247 . S
O49 Zn45 2.035 . S
O49 C54 1.258 . S
O50 C43 1.247 . S
O50 Zn47 2.028 . S
O51 C43 1.258 . S
O51 Zn45 2.035 . S
O52 Zn45 2.028 . S
O52 C55 1.247 . S
O53 Zn47 2.035 . S
O53 C55 1.258 . S
C54 O48 1.247 . S
C54 O49 1.258 . S
C55 O52 1.247 . S
C55 O53 1.258 . S
C56 O58 1.247 . S
C56 O60 1.258 . S
C57 O64 1.247 . S
C57 O65 1.258 . S
O58 C56 1.247 . S
O58 Zn59 2.028 . S
Zn59 O58 2.028 . S
Zn59 O63 2.035 . S
Zn59 O65 2.035 . S
Zn59 O66 2.028 . S
O60 C56 1.258 . S
O60 Zn61 2.035 . S
Zn61 O60 2.035 . S
Zn61 O62 2.028 . S
Zn61 O64 2.028 . S
Zn61 O67 2.035 . S
O62 Zn61 2.028 . S
O62 C68 1.247 . S
O63 Zn59 2.035 . S
O63 C68 1.258 . S
O64 C57 1.247 . S
O64 Zn61 2.028 . S
O65 C57 1.258 . S
O65 Zn59 2.035 . S
O66 Zn59 2.028 . S
O66 C69 1.247 . S
O67 Zn61 2.035 . S
O67 C69 1.258 . S
C68 O62 1.247 . S
C68 O63 1.258 . S
C69 O66 1.247 . S
C69 O67 1.258 . S
C70 O72 1.247 . S
C70 O74 1.258 . S
C71 O78 1.247 . S
C71 O79 1.258 . S
O72 C70 1.247 . S
O72 Zn73 2.028 . S
Zn73 O72 2.028 . S
Zn73 O77 2.035 . S
Zn73 O79 2.035 . S
Zn73 O80 2.028 . S
O74 C70 1.258 . S
O74 Zn75 2.035 . S
Zn75 O74 2.035 . S
Zn75 O76 2.028 . S
Zn75 O78 2.028 . S
Zn75 O81 2.035 . S
O76 Zn75 2.028 . S
O76 C82 1.247 . S
O77 Zn73 2.035 . S
O77 C82 1.258 . S
O78 C71 1.247 . S
O78 Zn75 2.028 . S
O79 C71 1.258 . S
O79 Zn73 2.035 . S
O80 Zn73 2.028 . S
O80 C83 1.247 . S
O81 Zn75 2.035 . S
O81 C83 1.258 . S
C82 O76 1.247 . S
C82 O77 1.258 . S
C83 O80 1.247 . S
C83 O81 1.258 . S
C84 O86 1.247 . S
C84 O88 1.258 . S
C85 O92 1.247 . S
C85 O93 1.258 1_545 S
O86 C84 1.247 . S
O86 Zn87 2.028 . S
Zn87 O86 2.028 . S
Zn87 O91 2.035 . S
Zn87 O93 2.035 . S
Zn87 O94 2.028 . S
O88 C84 1.258 . S
O88 Zn89 2.035 . S
Zn89 O88 2.035 . S
Zn89 O90 2.028 1_565 S
Zn89 O92 2.028 1_565 S
Zn89 O95 2.035 . S
O90 Zn89 2.028 1_545 S
O90 C96 1.247 . S
O91 Zn87 2.035 . S
O91 C96 1.258 1_565 S
O92 C85 1.247 . S
O92 Zn89 2.028 1_545 S
O93 C85 1.258 1_565 S
O93 Zn87 2.035 . S
O94 Zn87 2.028 . S
O94 C97 1.247 . S
O95 Zn89 2.035 . S
O95 C97 1.258 . S
C96 O90 1.247 . S
C96 O91 1.258 1_545 S
C97 O94 1.247 . S
C97 O95 1.258 . S
C98 O100 1.247 . S
C98 O102 1.258 . S
C99 O106 1.247 . S
C99 O107 1.258 . S
O100 C98 1.247 . S
O100 Zn101 2.028 . S
Zn101 O100 2.028 . S
Zn101 O105 2.035 . S
Zn101 O107 2.035 . S
Zn101 O108 2.028 . S
O102 C98 1.258 . S
O102 Zn103 2.035 . S
Zn103 O102 2.035 . S
Zn103 O104 2.028 . S
Zn103 O106 2.028 . S
Zn103 O109 2.035 . S
O104 Zn103 2.028 . S
O104 C110 1.247 . S
O105 Zn101 2.035 . S
O105 C110 1.258 . S
O106 C99 1.247 . S
O106 Zn103 2.028 . S
O107 C99 1.258 . S
O107 Zn101 2.035 . S
O108 Zn101 2.028 . S
O108 C111 1.247 . S
O109 Zn103 2.035 . S
O109 C111 1.258 . S
C110 O104 1.247 . S
C110 O105 1.258 . S
C111 O108 1.247 . S
C111 O109 1.258 . S
C112 O114 1.247 . S
C112 O116 1.258 . S
C113 O120 1.247 . S
C113 O121 1.258 . S
O114 C112 1.247 . S
O114 Zn115 2.028 . S
Zn115 O114 2.028 . S
Zn115 O119 2.035 . S
Zn115 O121 2.035 . S
Zn115 O122 2.028 . S
O116 C112 1.258 . S
O116 Zn117 2.035 . S
Zn117 O116 2.035 . S
Zn117 O118 2.028 . S
Zn117 O120 2.028 . S
Zn117 O123 2.035 . S
O118 Zn117 2.028 . S
O118 C124 1.247 . S
O119 Zn115 2.035 . S
O119 C124 1.258 . S
O120 C113 1.247 . S
O120 Zn117 2.028 . S
O121 C113 1.258 . S
O121 Zn115 2.035 . S
O122 Zn115 2.028 . S
O122 C125 1.247 . S
O123 Zn117 2.035 . S
O123 C125 1.258 . S
C124 O118 1.247 . S
C124 O119 1.258 . S
C125 O122 1.247 . S
C125 O123 1.258 . S
C126 O128 1.247 . S
C126 O130 1.258 . S
C127 O134 1.247 . S
C127 O135 1.258 1_556 S
O128 C126 1.247 . S
O128 Zn129 2.028 . S
Zn129 O128 2.028 . S
Zn129 O133 2.035 . S
Zn129 O135 2.035 . S
Zn129 O136 2.028 . S
O130 C126 1.258 . S
O130 Zn131 2.035 . S
Zn131 O130 2.035 . S
Zn131 O132 2.028 . S
Zn131 O134 2.028 1_554 S
Zn131 O137 2.035 1_554 S
O132 Zn131 2.028 . S
O132 C138 1.247 . S
O133 Zn129 2.035 . S
O133 C138 1.258 . S
O134 C127 1.247 . S
O134 Zn131 2.028 1_556 S
O135 C127 1.258 1_554 S
O135 Zn129 2.035 . S
O136 Zn129 2.028 . S
O136 C139 1.247 1_554 S
O137 Zn131 2.035 1_556 S
O137 C139 1.258 . S
C138 O132 1.247 . S
C138 O133 1.258 . S
C139 O136 1.247 1_556 S
C139 O137 1.258 . S
C140 O142 1.245 1_545 S
C140 O144 1.258 . S
C141 O148 1.247 . S
C141 O149 1.258 1_556 S
O142 C140 1.245 1_565 S
O142 Zn143 2.029 . S
Zn143 O142 2.029 . S
Zn143 O147 2.035 . S
Zn143 O149 2.035 . S
Zn143 O150 2.028 . S
O144 C140 1.258 . S
O144 Zn145 2.035 1_545 S
Zn145 O144 2.035 1_565 S
Zn145 O146 2.028 . S
Zn145 O148 2.028 1_554 S
Zn145 O151 2.035 1_564 S
O146 Zn145 2.028 . S
O146 C152 1.247 . S
O147 Zn143 2.035 . S
O147 C152 1.258 . S
O148 C141 1.247 . S
O148 Zn145 2.028 1_556 S
O149 C141 1.258 1_554 S
O149 Zn143 2.035 . S
O150 Zn143 2.028 . S
O150 C153 1.247 1_564 S
O151 Zn145 2.035 1_546 S
O151 C153 1.258 . S
C152 O146 1.247 . S
C152 O147 1.258 . S
C153 O150 1.247 1_546 S
C153 O151 1.258 . S
C154 O156 1.247 . S
C154 O158 1.258 1_556 S
C155 O162 1.247 . S
C155 O163 1.258 . S
O156 C154 1.247 . S
O156 Zn157 2.028 1_556 S
Zn157 O156 2.028 1_554 S
Zn157 O161 2.035 1_554 S
Zn157 O163 2.035 . S
Zn157 O164 2.028 . S
O158 C154 1.258 1_554 S
O158 Zn159 2.035 . S
Zn159 O158 2.035 . S
Zn159 O160 2.028 . S
Zn159 O162 2.028 . S
Zn159 O165 2.035 . S
O160 Zn159 2.028 . S
O160 C166 1.247 1_554 S
O161 Zn157 2.035 1_556 S
O161 C166 1.258 . S
O162 C155 1.247 . S
O162 Zn159 2.028 . S
O163 C155 1.258 . S
O163 Zn157 2.035 . S
O164 Zn157 2.028 . S
O164 C167 1.247 . S
O165 Zn159 2.035 . S
O165 C167 1.258 . S
C166 O160 1.247 1_556 S
C166 O161 1.258 . S
C167 O164 1.247 . S
C167 O165 1.258 . S
C168 O170 1.247 . S
C168 O172 1.258 1_554 S
C169 O176 1.247 . S
C169 O177 1.258 . S
O170 C168 1.247 . S
O170 Zn171 2.028 1_554 S
Zn171 O170 2.028 1_556 S
Zn171 O175 2.035 1_556 S
Zn171 O177 2.035 . S
Zn171 O178 2.028 . S
O172 C168 1.258 1_556 S
O172 Zn173 2.035 . S
Zn173 O172 2.035 . S
Zn173 O174 2.028 . S
Zn173 O176 2.028 . S
Zn173 O179 2.035 . S
O174 Zn173 2.028 . S
O174 C180 1.247 1_556 S
O175 Zn171 2.035 1_554 S
O175 C180 1.258 . S
O176 C169 1.247 . S
O176 Zn173 2.028 . S
O177 C169 1.258 . S
O177 Zn171 2.035 . S
O178 Zn171 2.028 . S
O178 C181 1.247 . S
O179 Zn173 2.035 . S
O179 C181 1.258 . S
C180 O174 1.247 1_554 S
C180 O175 1.258 . S
C181 O178 1.247 . S
C181 O179 1.258 . S
C182 O184 1.247 1_554 S
C182 O186 1.258 . S
C183 O190 1.247 . S
C183 O191 1.258 . S
O184 C182 1.247 1_556 S
O184 Zn185 2.028 . S
Zn185 O184 2.028 . S
Zn185 O189 2.035 . S
Zn185 O191 2.035 . S
Zn185 O192 2.028 . S
O186 C182 1.258 . S
O186 Zn187 2.035 1_554 S
Zn187 O186 2.035 1_556 S
Zn187 O188 2.028 1_556 S
Zn187 O190 2.028 . S
Zn187 O193 2.035 . S
O188 Zn187 2.028 1_554 S
O188 C194 1.247 . S
O189 Zn185 2.035 . S
O189 C194 1.258 1_556 S
O190 C183 1.247 . S
O190 Zn187 2.028 . S
O191 C183 1.258 . S
O191 Zn185 2.035 . S
O192 Zn185 2.028 . S
O192 C195 1.247 . S
O193 Zn187 2.035 . S
O193 C195 1.258 . S
C194 O188 1.247 . S
C194 O189 1.258 1_554 S
C195 O192 1.247 . S
C195 O193 1.258 . S
C196 O198 1.247 1_454 S
C196 O200 1.258 . S
C197 O204 1.247 . S
C197 O205 1.258 . S
O198 C196 1.247 1_656 S
O198 Zn199 2.028 . S
Zn199 O198 2.028 . S
Zn199 O203 2.035 . S
Zn199 O205 2.035 . S
Zn199 O206 2.028 . S
O200 C196 1.258 . S
O200 Zn201 2.035 1_454 S
Zn201 O200 2.035 1_656 S
Zn201 O202 2.028 1_556 S
Zn201 O204 2.028 . S
Zn201 O207 2.035 1_655 S
O202 Zn201 2.028 1_554 S
O202 C208 1.247 . S
O203 Zn199 2.035 . S
O203 C208 1.258 1_556 S
O204 C197 1.247 . S
O204 Zn201 2.028 . S
O205 C197 1.258 . S
O205 Zn199 2.035 . S
O206 Zn199 2.028 . S
O206 C209 1.247 1_655 S
O207 Zn201 2.035 1_455 S
O207 C209 1.258 . S
C208 O202 1.247 . S
C208 O203 1.258 1_554 S
C209 O206 1.247 1_455 S
C209 O207 1.258 . S
C210 O212 1.247 . S
C210 O214 1.258 . S
C211 O218 1.247 . S
C211 O219 1.258 . S
O212 C210 1.247 . S
O212 Zn213 2.028 . S
Zn213 O212 2.028 . S
Zn213 O217 2.035 . S
Zn213 O219 2.035 . S
Zn213 O220 2.028 . S
O214 C210 1.258 . S
O214 Zn215 2.035 . S
Zn215 O214 2.035 . S
Zn215 O216 2.028 . S
Zn215 O218 2.028 . S
Zn215 O221 2.035 . S
O216 Zn215 2.028 . S
O216 C222 1.247 . S
O217 Zn213 2.035 . S
O217 C222 1.258 . S
O218 C211 1.247 . S
O218 Zn215 2.028 . S
O219 C211 1.258 . S
O219 Zn213 2.035 . S
O220 Zn213 2.028 . S
O220 C223 1.247 . S
O221 Zn215 2.035 . S
O221 C223 1.258 . S
C222 O216 1.247 . S
C222 O217 1.258 . S
C223 O220 1.247 . S
C223 O221 1.258 . S
C224 O226 1.247 . S
C224 O228 1.258 1_455 S
C225 O232 1.247 . S
C225 O233 1.258 . S
O226 C224 1.247 . S
O226 Zn227 2.028 1_455 S
Zn227 O226 2.028 1_655 S
Zn227 O231 2.035 . S
Zn227 O233 2.035 . S
Zn227 O234 2.028 1_655 S
O228 C224 1.258 1_655 S
O228 Zn229 2.035 . S
Zn229 O228 2.035 . S
Zn229 O230 2.028 . S
Zn229 O232 2.028 . S
Zn229 O235 2.036 . S
O230 Zn229 2.028 . S
O230 C236 1.247 . S
O231 Zn227 2.035 . S
O231 C236 1.258 . S
O232 C225 1.247 . S
O232 Zn229 2.028 . S
O233 C225 1.258 . S
O233 Zn227 2.035 . S
O234 Zn227 2.028 1_455 S
O234 C237 1.247 . S
O235 Zn229 2.036 . S
O235 C237 1.257 1_655 S
C236 O230 1.247 . S
C236 O231 1.258 . S
C237 O234 1.247 . S
C237 O235 1.257 1_455 S
C238 O240 1.247 . S
C238 O242 1.258 . S
C239 O246 1.247 . S
C239 O247 1.258 . S
O240 C238 1.247 . S
O240 Zn241 2.028 . S
Zn241 O240 2.028 . S
Zn241 O245 2.035 . S
Zn241 O247 2.035 . S
Zn241 O248 2.028 . S
O242 C238 1.258 . S
O242 Zn243 2.035 . S
Zn243 O242 2.035 . S
Zn243 O244 2.028 . S
Zn243 O246 2.028 . S
Zn243 O249 2.035 . S
O244 Zn243 2.028 . S
O244 C250 1.247 . S
O245 Zn241 2.035 . S
O245 C250 1.258 . S
O246 C239 1.247 . S
O246 Zn243 2.028 . S
O247 C239 1.258 . S
O247 Zn241 2.035 . S
O248 Zn241 2.028 . S
O248 C251 1.247 . S
O249 Zn243 2.035 . S
O249 C251 1.258 . S
C250 O244 1.247 . S
C250 O245 1.258 . S
C251 O248 1.247 . S
C251 O249 1.258 . S
C252 C253 1.387 1_554 S
C252 H256 0.950 . S
C252 C261 1.390 . S
C253 C252 1.387 1_556 S
C253 C255 1.387 . S
H254 C261 0.950 . S
C255 C253 1.387 . S
C255 C257 1.390 . S
C255 H259 0.950 . S
H256 C252 0.950 . S
C257 C255 1.390 . S
C257 C258 1.387 1_556 S
C257 H260 0.950 . S
C258 C257 1.387 1_554 S
C258 C261 1.387 . S
H259 C255 0.950 . S
H260 C257 0.950 . S
C261 C252 1.390 . S
C261 H254 0.950 . S
C261 C258 1.387 . S
C262 C263 1.387 . S
C262 H266 0.950 . S
C262 C271 1.390 1_556 S
C263 C262 1.387 . S
C263 C265 1.387 . S
H264 C271 0.950 . S
C265 C263 1.387 . S
C265 C267 1.390 1_556 S
C265 H269 0.950 . S
H266 C262 0.950 . S
C267 C265 1.390 1_554 S
C267 C268 1.387 . S
C267 H270 0.950 . S
C268 C267 1.387 . S
C268 C271 1.387 . S
H269 C265 0.950 . S
H270 C267 0.950 . S
C271 C262 1.390 1_554 S
C271 H264 0.950 . S
C271 C268 1.387 . S
C272 C273 1.387 1_556 S
C272 H276 0.950 . S
C272 C281 1.390 . S
C273 C272 1.387 1_554 S
C273 C275 1.387 . S
H274 C281 0.950 . S
C275 C273 1.387 . S
C275 C277 1.390 . S
C275 H279 0.950 . S
H276 C272 0.950 . S
C277 C275 1.390 . S
C277 C278 1.387 1_554 S
C277 H280 0.950 . S
C278 C277 1.387 1_556 S
C278 C281 1.387 . S
H279 C275 0.950 . S
H280 C277 0.950 . S
C281 C272 1.390 . S
C281 H274 0.950 . S
C281 C278 1.387 . S
C282 C283 1.387 . S
C282 H286 0.950 . S
C282 C291 1.390 . S
C283 C282 1.387 . S
C283 C285 1.387 . S
H284 C291 0.950 . S
C285 C283 1.387 . S
C285 C287 1.390 . S
C285 H289 0.950 . S
H286 C282 0.950 . S
C287 C285 1.390 . S
C287 C288 1.387 . S
C287 H290 0.950 . S
C288 C287 1.387 . S
C288 C291 1.387 . S
H289 C285 0.950 . S
H290 C287 0.950 . S
C291 C282 1.390 . S
C291 H284 0.950 . S
C291 C288 1.387 . S
C292 C293 1.387 . S
C292 H296 0.950 . S
C292 C301 1.390 . S
C293 C292 1.387 . S
C293 C295 1.387 . S
H294 C301 0.950 . S
C295 C293 1.387 . S
C295 C297 1.390 . S
C295 H299 0.950 . S
H296 C292 0.950 . S
C297 C295 1.390 . S
C297 C298 1.387 . S
C297 H300 0.950 . S
C298 C297 1.387 . S
C298 C301 1.387 . S
H299 C295 0.950 . S
H300 C297 0.950 . S
C301 C292 1.390 . S
C301 H294 0.950 . S
C301 C298 1.387 . S
C302 C303 1.387 . S
C302 H306 0.950 . S
C302 C311 1.390 . S
C303 C302 1.387 . S
C303 C305 1.387 . S
H304 C311 0.950 . S
C305 C303 1.387 . S
C305 C307 1.390 . S
C305 H309 0.950 . S
H306 C302 0.950 . S
C307 C305 1.390 . S
C307 C308 1.387 . S
C307 H310 0.950 . S
C308 C307 1.387 . S
C308 C311 1.387 . S
H309 C305 0.950 . S
H310 C307 0.950 . S
C311 C302 1.390 . S
C311 H304 0.950 . S
C311 C308 1.387 . S
C312 C313 1.387 . S
C312 H316 0.950 . S
C312 C321 1.390 . S
C313 C312 1.387 . S
C313 C315 1.387 . S
H314 C321 0.950 . S
C315 C313 1.387 . S
C315 C317 1.390 . S
C315 H319 0.950 . S
H316 C312 0.950 . S
C317 C315 1.390 . S
C317 C318 1.387 . S
C317 H320 0.950 . S
C318 C317 1.387 . S
C318 C321 1.387 . S
H319 C315 0.950 . S
H320 C317 0.950 . S
C321 C312 1.390 . S
C321 H314 0.950 . S
C321 C318 1.387 . S
C322 C323 1.387 . S
C322 H326 0.950 . S
C322 C331 1.390 . S
C323 C322 1.387 . S
C323 C325 1.387 . S
H324 C331 0.950 . S
C325 C323 1.387 . S
C325 C327 1.390 . S
C325 H329 0.950 . S
H326 C322 0.950 . S
C327 C325 1.390 . S
C327 C328 1.387 . S
C327 H330 0.950 . S
C328 C327 1.387 . S
C328 C331 1.387 . S
H329 C325 0.950 . S
H330 C327 0.950 . S
C331 C322 1.390 . S
C331 H324 0.950 . S
C331 C328 1.387 . S
C332 C333 1.387 . S
C332 H336 0.950 . S
C332 C341 1.390 . S
C333 C332 1.387 . S
C333 C335 1.387 . S
H334 C341 0.950 . S
C335 C333 1.387 . S
C335 C337 1.390 . S
C335 H339 0.950 . S
H336 C332 0.950 . S
C337 C335 1.390 . S
C337 C338 1.387 . S
C337 H340 0.950 . S
C338 C337 1.387 . S
C338 C341 1.387 . S
H339 C335 0.950 . S
H340 C337 0.950 . S
C341 C332 1.390 . S
C341 H334 0.950 . S
C341 C338 1.387 . S
C342 C343 1.387 . S
C342 H346 0.950 . S
C342 C351 1.390 . S
C343 C342 1.387 . S
C343 C345 1.387 . S
H344 C351 0.950 . S
C345 C343 1.387 . S
C345 C347 1.390 . S
C345 H349 0.950 . S
H346 C342 0.950 . S
C347 C345 1.390 . S
C347 C348 1.387 . S
C347 H350 0.950 . S
C348 C347 1.387 . S
C348 C351 1.387 . S
H349 C345 0.950 . S
H350 C347 0.950 . S
C351 C342 1.390 . S
C351 H344 0.950 . S
C351 C348 1.387 . S
C352 C353 1.387 . S
C352 H356 0.950 . S
C352 C361 1.390 . S
C353 C352 1.387 . S
C353 C355 1.387 . S
H354 C361 0.950 . S
C355 C353 1.387 . S
C355 C357 1.390 . S
C355 H359 0.950 . S
H356 C352 0.950 . S
C357 C355 1.390 . S
C357 C358 1.387 . S
C357 H360 0.950 . S
C358 C357 1.387 . S
C358 C361 1.387 . S
H359 C355 0.950 . S
H360 C357 0.950 . S
C361 C352 1.390 . S
C361 H354 0.950 . S
C361 C358 1.387 . S
C362 C363 1.387 . S
C362 H366 0.950 . S
C362 C371 1.390 . S
C363 C362 1.387 . S
C363 C365 1.387 . S
H364 C371 0.950 . S
C365 C363 1.387 . S
C365 C367 1.390 . S
C365 H369 0.950 . S
H366 C362 0.950 . S
C367 C365 1.390 . S
C367 C368 1.387 . S
C367 H370 0.950 . S
C368 C367 1.387 . S
C368 C371 1.387 . S
H369 C365 0.950 . S
H370 C367 0.950 . S
C371 C362 1.390 . S
C371 H364 0.950 . S
C371 C368 1.387 . S
C372 C373 1.387 . S
C372 H376 0.950 . S
C372 C381 1.390 . S
C373 C372 1.387 . S
C373 C375 1.387 . S
H374 C381 0.950 . S
C375 C373 1.387 . S
C375 C377 1.390 . S
C375 H379 0.950 . S
H376 C372 0.950 . S
C377 C375 1.390 . S
C377 C378 1.387 . S
C377 H380 0.950 . S
C378 C377 1.387 . S
C378 C381 1.387 . S
H379 C375 0.950 . S
H380 C377 0.950 . S
C381 C372 1.390 . S
C381 H374 0.950 . S
C381 C378 1.387 . S
C382 C383 1.387 . S
C382 H386 0.950 . S
C382 C391 1.390 . S
C383 C382 1.387 . S
C383 C385 1.387 . S
H384 C391 0.950 . S
C385 C383 1.387 . S
C385 C387 1.390 . S
C385 H389 0.950 . S
H386 C382 0.950 . S
C387 C385 1.390 . S
C387 C388 1.387 . S
C387 H390 0.950 . S
C388 C387 1.387 . S
C388 C391 1.387 . S
H389 C385 0.950 . S
H390 C387 0.950 . S
C391 C382 1.390 . S
C391 H384 0.950 . S
C391 C388 1.387 . S
C392 C393 1.387 . S
C392 H396 0.950 . S
C392 C401 1.390 . S
C393 C392 1.387 . S
C393 C395 1.387 . S
H394 C401 0.950 . S
C395 C393 1.387 . S
C395 C397 1.390 . S
C395 H399 0.950 . S
H396 C392 0.950 . S
C397 C395 1.390 . S
C397 C398 1.387 . S
C397 H400 0.950 . S
C398 C397 1.387 . S
C398 C401 1.387 . S
H399 C395 0.950 . S
H400 C397 0.950 . S
C401 C392 1.390 . S
C401 H394 0.950 . S
C401 C398 1.387 . S
C402 C403 1.387 . S
C402 H406 0.950 . S
C402 C411 1.390 . S
C403 C402 1.387 . S
C403 C405 1.387 . S
H404 C411 0.950 . S
C405 C403 1.387 . S
C405 C407 1.390 . S
C405 H409 0.950 . S
H406 C402 0.950 . S
C407 C405 1.390 . S
C407 C408 1.387 . S
C407 H410 0.950 . S
C408 C407 1.387 . S
C408 C411 1.387 . S
H409 C405 0.950 . S
H410 C407 0.950 . S
C411 C402 1.390 . S
C411 H404 0.950 . S
C411 C408 1.387 . S
C412 C413 1.387 . S
C412 H416 0.950 . S
C412 C421 1.390 . S
C413 C412 1.387 . S
C413 C415 1.387 . S
H414 C421 0.950 . S
C415 C413 1.387 . S
C415 C417 1.390 . S
C415 H419 0.950 . S
H416 C412 0.950 . S
C417 C415 1.390 . S
C417 C418 1.387 . S
C417 H420 0.950 . S
C418 C417 1.387 . S
C418 C421 1.387 . S
H419 C415 0.950 . S
H420 C417 0.950 . S
C421 C412 1.390 . S
C421 H414 0.950 . S
C421 C418 1.387 . S
C422 C423 1.387 . S
C422 H426 0.950 . S
C422 C431 1.390 . S
C423 C422 1.387 . S
C423 C425 1.387 . S
H424 C431 0.950 . S
C425 C423 1.387 . S
C425 C427 1.390 . S
C425 H429 0.950 . S
H426 C422 0.950 . S
C427 C425 1.390 . S
C427 C428 1.387 . S
C427 H430 0.950 . S
C428 C427 1.387 . S
C428 C431 1.387 . S
H429 C425 0.950 . S
H430 C427 0.950 . S
C431 C422 1.390 . S
C431 H424 0.950 . S
C431 C428 1.387 . S
C432 C433 1.387 . S
C432 H436 0.950 . S
C432 C441 1.390 . S
C433 C432 1.387 . S
C433 C435 1.387 . S
H434 C441 0.950 . S
C435 C433 1.387 . S
C435 C437 1.390 . S
C435 H439 0.950 . S
H436 C432 0.950 . S
C437 C435 1.390 . S
C437 C438 1.387 . S
C437 H440 0.950 . S
C438 C437 1.387 . S
C438 C441 1.387 . S
H439 C435 0.950 . S
H440 C437 0.950 . S
C441 C432 1.390 . S
C441 H434 0.950 . S
C441 C438 1.387 . S
C442 C443 1.387 . S
C442 H446 0.950 . S
C442 C451 1.390 . S
C443 C442 1.387 . S
C443 C445 1.387 . S
H444 C451 0.950 . S
C445 C443 1.387 . S
C445 C447 1.390 . S
C445 H449 0.950 . S
H446 C442 0.950 . S
C447 C445 1.390 . S
C447 C448 1.387 . S
C447 H450 0.950 . S
C448 C447 1.387 . S
C448 C451 1.387 . S
H449 C445 0.950 . S
H450 C447 0.950 . S
C451 C442 1.390 . S
C451 H444 0.950 . S
C451 C448 1.387 . S
C452 C453 1.387 . S
C452 H456 0.950 . S
C452 C461 1.390 . S
C453 C452 1.387 . S
C453 C455 1.387 . S
H454 C461 0.950 . S
C455 C453 1.387 . S
C455 C457 1.390 . S
C455 H459 0.950 . S
H456 C452 0.950 . S
C457 C455 1.390 . S
C457 C458 1.387 . S
C457 H460 0.950 . S
C458 C457 1.387 . S
C458 C461 1.387 . S
H459 C455 0.950 . S
H460 C457 0.950 . S
C461 C452 1.390 . S
C461 H454 0.950 . S
C461 C458 1.387 . S
C462 C463 1.387 . S
C462 H466 0.950 . S
C462 C471 1.390 . S
C463 C462 1.387 . S
C463 C465 1.387 . S
H464 C471 0.950 . S
C465 C463 1.387 . S
C465 C467 1.390 . S
C465 H469 0.950 1_554 S
H466 C462 0.950 . S
C467 C465 1.390 . S
C467 C468 1.387 . S
C467 H470 0.950 1_554 S
C468 C467 1.387 . S
C468 C471 1.387 . S
H469 C465 0.950 1_556 S
H470 C467 0.950 1_556 S
C471 C462 1.390 . S
C471 H464 0.950 . S
C471 C468 1.387 . S
C472 C473 1.387 . S
C472 H476 0.950 1_554 S
C472 C481 1.390 . S
C473 C472 1.387 . S
C473 C475 1.387 . S
H474 C481 0.950 . S
C475 C473 1.387 . S
C475 C477 1.390 . S
C475 H479 0.950 . S
H476 C472 0.950 1_556 S
C477 C475 1.390 . S
C477 C478 1.387 . S
C477 H480 0.950 . S
C478 C477 1.387 . S
C478 C481 1.387 . S
H479 C475 0.950 . S
H480 C477 0.950 . S
C481 C472 1.390 . S
C481 H474 0.950 . S
C481 C478 1.387 . S
C482 C483 1.387 . S
C482 H486 0.950 . S
C482 C491 1.390 . S
C483 C482 1.387 . S
C483 C485 1.387 . S
H484 C491 0.950 . S
C485 C483 1.387 . S
C485 C487 1.390 . S
C485 H489 0.950 . S
H486 C482 0.950 . S
C487 C485 1.390 . S
C487 C488 1.387 . S
C487 H490 0.950 . S
C488 C487 1.387 . S
C488 C491 1.387 . S
H489 C485 0.950 . S
H490 C487 0.950 . S
C491 C482 1.390 . S
C491 H484 0.950 . S
C491 C488 1.387 . S
C492 C493 1.387 . S
C492 H496 0.950 1_455 S
C492 C501 1.390 . S
C493 C492 1.387 . S
C493 C495 1.387 . S
H494 C501 0.950 . S
C495 C493 1.387 . S
C495 C497 1.390 . S
C495 H499 0.950 . S
H496 C492 0.950 1_655 S
C497 C495 1.390 . S
C497 C498 1.387 . S
C497 H500 0.950 . S
C498 C497 1.387 . S
C498 C501 1.387 . S
H499 C495 0.950 . S
H500 C497 0.950 . S
C501 C492 1.390 . S
C501 H494 0.950 . S
C501 C498 1.387 . S
C502 C503 1.387 . S
C502 H506 0.950 . S
C502 C511 1.390 . S
C503 C502 1.387 . S
C503 C505 1.387 . S
H504 C511 0.950 . S
C505 C503 1.387 . S
C505 C507 1.390 . S
C505 H509 0.950 . S
H506 C502 0.950 . S
C507 C505 1.390 . S
C507 C508 1.387 . S
C507 H510 0.950 . S
C508 C507 1.387 . S
C508 C511 1.387 . S
H509 C505 0.950 . S
H510 C507 0.950 . S
C511 C502 1.390 . S
C511 H504 0.950 . S
C511 C508 1.387 . S
C512 C513 1.387 . S
C512 H516 0.950 . S
C512 C521 1.390 . S
C513 C512 1.387 . S
C513 C515 1.387 . S
H514 C521 0.950 . S
C515 C513 1.387 . S
C515 C517 1.390 . S
C515 H519 0.950 . S
H516 C512 0.950 . S
C517 C515 1.390 . S
C517 C518 1.387 . S
C517 H520 0.950 . S
C518 C517 1.387 . S
C518 C521 1.387 . S
H519 C515 0.950 . S
H520 C517 0.950 . S
C521 C512 1.390 . S
C521 H514 0.950 . S
C521 C518 1.387 . S
C522 C523 1.387 . S
C522 H526 0.950 1_556 S
C522 C531 1.390 . S
C523 C522 1.387 . S
C523 C525 1.387 . S
H524 C531 0.950 . S
C525 C523 1.387 . S
C525 C527 1.390 . S
C525 H529 0.963 . S
H526 C522 0.950 1_554 S
C527 C525 1.390 . S
C527 C528 1.387 . S
C527 H530 0.950 . S
C528 C527 1.387 . S
C528 C531 1.387 . S
H529 C525 0.963 . S
H530 C527 0.950 . S
C531 C522 1.390 . S
C531 H524 0.950 . S
C531 C528 1.387 . S
C532 C533 1.387 . S
C532 H536 0.950 . S
C532 C541 1.390 . S
C533 C532 1.387 . S
C533 C535 1.387 . S
H534 C541 0.950 . S
C535 C533 1.387 . S
C535 C537 1.390 . S
C535 H539 0.950 1_556 S
H536 C532 0.950 . S
C537 C535 1.390 . S
C537 C538 1.387 . S
C537 H540 0.950 1_556 S
C538 C537 1.387 . S
C538 C541 1.387 . S
H539 C535 0.950 1_554 S
H540 C537 0.950 1_554 S
C541 C532 1.390 . S
C541 H534 0.950 . S
C541 C538 1.387 . S
C542 C543 1.387 . S
C542 H546 0.950 . S
C542 C551 1.390 . S
C543 C542 1.387 . S
C543 C545 1.387 . S
H544 C551 0.950 . S
C545 C543 1.387 . S
C545 C547 1.390 . S
C545 H549 0.950 . S
H546 C542 0.950 . S
C547 C545 1.390 . S
C547 C548 1.387 . S
C547 H550 0.950 . S
C548 C547 1.387 . S
C548 C551 1.387 . S
H549 C545 0.950 . S
H550 C547 0.950 . S
C551 C542 1.390 . S
C551 H544 0.950 . S
C551 C548 1.387 . S
C552 C553 1.387 . S
C552 H556 0.950 . S
C552 C561 1.390 . S
C553 C552 1.387 . S
C553 C555 1.387 . S
H554 C561 0.950 . S
C555 C553 1.387 . S
C555 C557 1.390 . S
C555 H559 0.950 . S
H556 C552 0.950 . S
C557 C555 1.390 . S
C557 C558 1.387 . S
C557 H560 0.950 . S
C558 C557 1.387 . S
C558 C561 1.387 . S
H559 C555 0.950 . S
H560 C557 0.950 . S
C561 C552 1.390 . S
C561 H554 0.950 . S
C561 C558 1.387 . S
C562 C563 1.387 . S
C562 H566 0.950 . S
C562 C571 1.390 . S
C563 C562 1.387 . S
C563 C565 1.387 . S
H564 C571 0.950 . S
C565 C563 1.387 . S
C565 C567 1.390 . S
C565 H569 0.950 . S
H566 C562 0.950 . S
C567 C565 1.390 . S
C567 C568 1.387 . S
C567 H570 0.950 . S
C568 C567 1.387 . S
C568 C571 1.387 . S
H569 C565 0.950 . S
H570 C567 0.950 . S
C571 C562 1.390 . S
C571 H564 0.950 . S
C571 C568 1.387 . S
C572 C573 1.387 . S
C572 H576 0.950 . S
C572 C581 1.390 . S
C573 C572 1.387 . S
C573 C575 1.387 . S
H574 C581 0.950 . S
C575 C573 1.387 . S
C575 C577 1.390 . S
C575 H579 0.950 . S
H576 C572 0.950 . S
C577 C575 1.390 . S
C577 C578 1.387 . S
C577 H580 0.950 . S
C578 C577 1.387 . S
C578 C581 1.387 . S
H579 C575 0.950 . S
H580 C577 0.950 . S
C581 C572 1.390 . S
C581 H574 0.950 . S
C581 C578 1.387 . S
C582 C583 1.387 . S
C582 H586 0.950 . S
C582 C591 1.390 . S
C583 C582 1.387 . S
C583 C585 1.387 . S
H584 C591 0.950 . S
C585 C583 1.387 . S
C585 C587 1.390 . S
C585 H589 0.950 . S
H586 C582 0.950 . S
C587 C585 1.390 . S
C587 C588 1.387 . S
C587 H590 0.950 . S
C588 C587 1.387 . S
C588 C591 1.387 . S
H589 C585 0.950 . S
H590 C587 0.950 . S
C591 C582 1.390 . S
C591 H584 0.950 . S
C591 C588 1.387 . S
C592 C593 1.387 . S
C592 H596 0.950 . S
C592 C601 1.390 . S
C593 C592 1.387 . S
C593 C595 1.387 . S
H594 C601 0.950 . S
C595 C593 1.387 . S
C595 C597 1.390 . S
C595 H599 0.950 . S
H596 C592 0.950 . S
C597 C595 1.390 . S
C597 C598 1.387 . S
C597 H600 0.950 . S
C598 C597 1.387 . S
C598 C601 1.387 . S
H599 C595 0.950 . S
H600 C597 0.950 . S
C601 C592 1.390 . S
C601 H594 0.950 . S
C601 C598 1.387 . S
C602 C603 1.387 . S
C602 H606 0.950 . S
C602 C611 1.390 . S
C603 C602 1.387 . S
C603 C605 1.387 . S
H604 C611 0.950 . S
C605 C603 1.387 . S
C605 C607 1.390 . S
C605 H609 0.950 . S
H606 C602 0.950 . S
C607 C605 1.390 . S
C607 C608 1.387 . S
C607 H610 0.950 . S
C608 C607 1.387 . S
C608 C611 1.387 . S
H609 C605 0.950 . S
H610 C607 0.950 . S
C611 C602 1.390 . S
C611 H604 0.950 . S
C611 C608 1.387 . S
C253 C43 1.825 . S
C258 C13 1.829 . S
C263 C68 1.830 . S
C268 C15 1.830 . S
C273 C29 1.831 . S
C278 C83 1.828 . S
C283 C40 1.827 . S
C288 C70 1.831 . S
C293 C0 1.826 . S
C298 C54 1.830 . S
C303 C57 1.826 . S
C308 C26 1.826 . S
C313 C138 1.828 . S
C318 C97 1.828 . S
C323 C99 1.830 . S
C328 C152 1.830 . S
C333 C124 1.825 . S
C338 C155 1.825 . S
C343 C166 1.831 . S
C348 C113 1.831 . S
C353 C127 1.826 . S
C358 C84 1.826 . S
C363 C141 1.827 . S
C368 C110 1.827 . S
C373 C181 1.829 . S
C378 C211 1.825 . S
C383 C183 1.830 . S
C388 C236 1.830 . S
C393 C197 1.830 . S
C398 C239 1.826 . S
C403 C250 1.831 . S
C408 C208 1.828 . S
C413 C222 1.830 . S
C418 C168 1.827 . S
C423 C225 1.827 . S
C428 C194 1.827 . S
C433 C12 1.636 . S
C438 C111 1.638 . S
C443 C14 1.638 . S
C448 C112 1.637 . S
C453 C85 1.640 . S
C458 C28 1.639 . S
C463 C41 1.639 . S
C468 C182 1.638 . S
C473 C196 1.638 . S
C478 C1 1.641 . S
C483 C180 1.638 . S
C488 C27 1.640 . S
C493 C224 1.638 . S
C498 C42 1.638 . S
C503 C69 1.638 . S
C508 C251 1.638 . S
C513 C223 1.637 . S
C518 C82 1.640 . S
C523 C153 1.638 . S
C528 C71 1.637 . S
C533 C55 1.638 . S
C538 C154 1.639 . S
C543 C56 1.639 . S
C548 C139 1.637 . S
C553 C96 1.638 . S
C558 C195 1.640 . S
C563 C98 1.636 . S
C568 C209 1.639 . S
C573 C125 1.640 . S
C578 C169 1.639 . S
C583 C237 1.638 . S
C588 C167 1.637 . S
C593 C238 1.640 . S
C598 C126 1.641 . S
C603 C140 1.640 . S
C608 C210 1.640 . S
