# Generated by pormake.
# Topology umf, (4)-cn, num edge types: 1
# Building blocks:
#     Node 0, Type 0, BuildingBlock: GALJAG_clean_sbu_0, # of connection points: 4
#     Node 1, Type 0, BuildingBlock: GALJAG_clean_sbu_0, # of connection points: 4
#     Node 2, Type 0, BuildingBlock: GALJAG_clean_sbu_0, # of connection points: 4
#     Node 3, Type 0, BuildingBlock: GALJAG_clean_sbu_0, # of connection points: 4
#     Node 4, Type 0, BuildingBlock: GALJAG_clean_sbu_0, # of connection points: 4
#     Node 5, Type 0, BuildingBlock: GALJAG_clean_sbu_0, # of connection points: 4
#     Node 6, Type 0, BuildingBlock: GALJAG_clean_sbu_0, # of connection points: 4
#     Node 7, Type 0, BuildingBlock: GALJAG_clean_sbu_0, # of connection points: 4
#     Edge 8, Type (0, 0), BuildingBlock: UVAHIK_clean_linker_0, # of connection points: 2
#     Edge 9, Type (0, 0), BuildingBlock: UVAHIK_clean_linker_0, # of connection points: 2
#     Edge 10, Type (0, 0), BuildingBlock: UVAHIK_clean_linker_0, # of connection points: 2
#     Edge 11, Type (0, 0), BuildingBlock: UVAHIK_clean_linker_0, # of connection points: 2
#     Edge 12, Type (0, 0), BuildingBlock: UVAHIK_clean_linker_0, # of connection points: 2
#     Edge 13, Type (0, 0), BuildingBlock: UVAHIK_clean_linker_0, # of connection points: 2
#     Edge 14, Type (0, 0), BuildingBlock: UVAHIK_clean_linker_0, # of connection points: 2
#     Edge 15, Type (0, 0), BuildingBlock: UVAHIK_clean_linker_0, # of connection points: 2
#     Edge 16, Type (0, 0), BuildingBlock: UVAHIK_clean_linker_0, # of connection points: 2
#     Edge 17, Type (0, 0), BuildingBlock: UVAHIK_clean_linker_0, # of connection points: 2
#     Edge 18, Type (0, 0), BuildingBlock: UVAHIK_clean_linker_0, # of connection points: 2
#     Edge 19, Type (0, 0), BuildingBlock: UVAHIK_clean_linker_0, # of connection points: 2
#     Edge 20, Type (0, 0), BuildingBlock: UVAHIK_clean_linker_0, # of connection points: 2
#     Edge 21, Type (0, 0), BuildingBlock: UVAHIK_clean_linker_0, # of connection points: 2
#     Edge 22, Type (0, 0), BuildingBlock: UVAHIK_clean_linker_0, # of connection points: 2
#     Edge 23, Type (0, 0), BuildingBlock: UVAHIK_clean_linker_0, # of connection points: 2
# Relax obj value: 0.108
# Max RMSD: 0.235
# Mean RMSD: 0.235
data_MOF--net-umf--node1-GALJAG_clean_sbu_0--edge1-UVAHIK_clean_linker_0
_symmetry_space_group_name_H-M    P1
_symmetry_Int_Tables_number       1
_symmetry_cell_setting            triclinic
loop_
_symmetry_equiv_pos_as_xyz
'x, y, z'
_cell_length_a     36.67826
_cell_length_b     36.752979
_cell_length_c     68.198953
_cell_angle_alpha  89.834195
_cell_angle_beta   89.776994
_cell_angle_gamma 90.03155
loop_
_atom_site_label
_atom_site_type_symbol
_atom_site_fract_x
_atom_site_fract_y
_atom_site_fract_z
_atom_type_partial_charge
In0 In 0.07675 0.23969 0.14687 0.0
O1 O 0.09467 0.24101 0.11432 0.0
O2 O 0.04064 0.25668 0.1218 0.0
C3 C 0.13668 0.23382 0.16918 0.0
C4 C 0.05015 0.29944 0.16411 0.0
C5 C 0.0516 0.17158 0.14986 0.0
O6 O 0.10703 0.21793 0.17295 0.0
O7 O 0.13696 0.25265 0.15359 0.0
O8 O 0.03491 0.19826 0.15741 0.0
O9 O 0.08054 0.17951 0.14068 0.0
C10 C 0.06372 0.25151 0.1084 0.0
O11 O 0.03243 0.26992 0.16379 0.0
O12 O 0.08101 0.29845 0.15588 0.0
In13 In 0.72719 0.06736 0.64925 0.0
O14 O 0.73087 0.08466 0.61672 0.0
O15 O 0.73088 0.02825 0.62409 0.0
C16 C 0.72463 0.12395 0.6738 0.0
C17 C 0.65789 0.04873 0.65544 0.0
C18 C 0.79234 0.04321 0.66103 0.0
O19 O 0.73528 0.12797 0.65618 0.0
O20 O 0.71541 0.09206 0.67861 0.0
O21 O 0.76406 0.02357 0.66251 0.0
O22 O 0.78739 0.07441 0.65378 0.0
C23 C 0.7322 0.05201 0.61074 0.0
O24 O 0.68402 0.02939 0.66169 0.0
O25 O 0.66699 0.07667 0.64569 0.0
In26 In 0.92118 0.73097 0.14345 0.0
O27 O 0.90455 0.73203 0.11085 0.0
O28 O 0.961 0.73122 0.11855 0.0
C29 C 0.86893 0.72791 0.17074 0.0
C30 C 0.94011 0.66251 0.1507 0.0
C31 C 0.94207 0.79856 0.152 0.0
O32 O 0.86093 0.73408 0.15289 0.0
O33 O 0.90245 0.72393 0.17432 0.0
O34 O 0.96273 0.77151 0.15511 0.0
O35 O 0.91139 0.79121 0.14463 0.0
C36 C 0.93756 0.73191 0.10505 0.0
O37 O 0.96021 0.689 0.15573 0.0
O38 O 0.91138 0.67085 0.14147 0.0
In39 In 0.23196 0.91056 0.64267 0.0
O40 O 0.26224 0.95495 0.65936 0.0
O41 O 0.29094 0.90659 0.6516 0.0
C42 C 0.16381 0.9349 0.64768 0.0
C43 C 0.24189 0.9256 0.60419 0.0
C44 C 0.22821 0.84893 0.66394 0.0
O45 O 0.19098 0.95061 0.65533 0.0
O46 O 0.17129 0.90745 0.63729 0.0
O47 O 0.24766 0.8507 0.64858 0.0
O48 O 0.21058 0.87734 0.66793 0.0
C49 C 0.29187 0.93739 0.6597 0.0
O50 O 0.23109 0.89458 0.60988 0.0
O51 O 0.24824 0.94774 0.61779 0.0
In52 In 0.08468 0.7454 0.86697 0.0
O53 O 0.10001 0.74646 0.89978 0.0
O54 O 0.04432 0.75234 0.8915 0.0
C55 C 0.1422 0.73771 0.84309 0.0
C56 C 0.06189 0.67717 0.86209 0.0
C57 C 0.06459 0.81125 0.85401 0.0
O58 O 0.14623 0.74957 0.86042 0.0
O59 O 0.1099 0.73033 0.8382 0.0
O60 O 0.0447 0.78347 0.85153 0.0
O61 O 0.09416 0.80553 0.86292 0.0
C62 C 0.06711 0.75035 0.90525 0.0
O63 O 0.04359 0.704 0.85577 0.0
O64 O 0.09097 0.68509 0.87102 0.0
In65 In 0.23871 0.08441 0.37007 0.0
O66 O 0.23885 0.10124 0.40268 0.0
O67 O 0.22027 0.04837 0.39491 0.0
C68 C 0.25216 0.14237 0.3471 0.0
C69 C 0.30455 0.05389 0.36744 0.0
C70 C 0.17477 0.06658 0.35382 0.0
O71 O 0.23513 0.14576 0.36321 0.0
O72 O 0.26229 0.11049 0.34306 0.0
O73 O 0.20194 0.04536 0.35324 0.0
O74 O 0.18014 0.09642 0.36246 0.0
C75 C 0.227 0.0706 0.40844 0.0
O76 O 0.27666 0.03896 0.36006 0.0
O77 O 0.29882 0.08359 0.37622 0.0
In78 In 0.91959 0.23965 0.87097 0.0
O79 O 0.9028 0.24325 0.90362 0.0
O80 O 0.95692 0.22751 0.89633 0.0
C81 C 0.85904 0.24415 0.84902 0.0
C82 C 0.94586 0.30662 0.86497 0.0
C83 C 0.94334 0.176 0.85654 0.0
O84 O 0.85875 0.22828 0.86554 0.0
O85 O 0.88918 0.25788 0.84406 0.0
O86 O 0.96126 0.20517 0.85436 0.0
O87 O 0.91374 0.17921 0.86586 0.0
C88 C 0.93416 0.23435 0.90967 0.0
O89 O 0.96238 0.27861 0.85881 0.0
O90 O 0.91655 0.30057 0.87423 0.0
In91 In 0.74703 0.92312 0.37042 0.0
O92 O 0.75152 0.9049 0.40275 0.0
O93 O 0.75288 0.96149 0.39571 0.0
C94 C 0.74373 0.86886 0.34435 0.0
C95 C 0.67705 0.94168 0.3672 0.0
C96 C 0.81095 0.94894 0.35745 0.0
O97 O 0.75277 0.86276 0.36204 0.0
O98 O 0.73648 0.90162 0.34035 0.0
O99 O 0.7815 0.96641 0.35514 0.0
O100 O 0.80789 0.91892 0.36641 0.0
C101 C 0.7536 0.93742 0.40891 0.0
O102 O 0.70244 0.96242 0.36126 0.0
O103 O 0.68721 0.91206 0.37491 0.0
C104 C 0.05792 0.36372 0.17446 0.0
C105 C 0.03488 0.33372 0.17156 0.0
C106 C 0.0433 0.39804 0.17806 0.0
C107 C 0.96492 0.44942 0.16345 0.0
H108 H 0.00563 0.52463 0.1966 0.0
C109 C 0.92048 0.59825 0.1552 0.0
C110 C 0.94807 0.62464 0.15626 0.0
C111 C 0.92734 0.56244 0.16084 0.0
C112 C -0.00587 0.50396 0.18717 0.0
H113 H 0.97874 0.31529 0.17156 0.0
H114 H 0.95302 0.37573 0.17758 0.0
H115 H 0.02381 0.46127 0.20146 0.0
H116 H 0.00434 0.63459 0.16414 0.0
H117 H 0.01697 0.57156 0.17319 0.0
H118 H 0.93696 0.49181 0.14834 0.0
C119 C 0.98237 0.37256 0.17706 0.0
C120 C 0.00431 0.46773 0.19008 0.0
C121 C -0.00294 0.33806 0.17369 0.0
C122 C 0.98263 0.61469 0.16316 0.0
C123 C 0.98968 0.57867 0.16854 0.0
C124 C 0.95507 0.48558 0.1604 0.0
C125 C 0.00537 0.40301 0.17863 0.0
C126 C 0.9903 0.44026 0.17799 0.0
C127 C 0.96213 0.55209 0.16737 0.0
C128 C 0.9701 0.5134 0.17195 0.0
H129 H 0.08722 0.361 0.17302 0.0
H130 H 0.06165 0.42107 0.17907 0.0
H131 H 0.95422 0.42886 0.15367 0.0
H132 H 0.89338 0.60533 0.15022 0.0
H133 H 0.90529 0.54289 0.16009 0.0
C134 C 0.35594 0.92958 0.67063 0.0
C135 C 0.32613 0.95265 0.66722 0.0
C136 C 0.3902 0.94408 0.67468 0.0
C137 C 0.44348 0.02197 0.66101 0.0
H138 H 0.51487 0.98255 0.69707 0.0
C139 C 0.59293 0.06776 0.65761 0.0
C140 C 0.61947 0.04063 0.65998 0.0
C141 C 0.55649 0.06059 0.662 0.0
C142 C 0.49532 -0.00634 0.68682 0.0
H143 H 0.30799 0.00874 0.6665 0.0
H144 H 0.36837 0.03425 0.67324 0.0
H145 H 0.45107 0.96394 0.69986 0.0
H146 H 0.62903 0.98488 0.66894 0.0
H147 H 0.56503 0.97167 0.67581 0.0
H148 H 0.48752 0.04997 0.64715 0.0
C149 C 0.36507 0.00497 0.67285 0.0
C150 C 0.45881 0.98323 0.68854 0.0
C151 C 0.33061 0.99041 0.66907 0.0
C152 C 0.60903 0.00625 0.66698 0.0
C153 C 0.57241 -0.00114 0.6711 0.0
C154 C 0.47996 0.03204 0.65912 0.0
C155 C 0.39532 0.98192 0.67514 0.0
C156 C 0.43271 -0.00315 0.67544 0.0
C157 C 0.54566 0.02592 0.66856 0.0
C158 C 0.50646 0.01752 0.67177 0.0
H159 H 0.35312 0.90033 0.6694 0.0
H160 H 0.41311 0.92572 0.67623 0.0
H161 H 0.42401 0.03237 0.65048 0.0
H162 H 0.60035 0.09472 0.6525 0.0
H163 H 0.5368 0.08229 0.66025 0.0
C164 C 0.93523 0.3734 0.86346 0.0
C165 C 0.95915 0.34383 0.86139 0.0
C166 C 0.94763 0.40886 0.86052 0.0
C167 C 0.02754 0.46424 0.86558 0.0
H168 H 0.97659 0.534 0.83287 0.0
C169 C 0.0775 0.61162 0.85963 0.0
C170 C 0.05103 0.63912 0.85896 0.0
C171 C 0.0676 0.57528 0.85735 0.0
C172 C 0.99088 0.51501 0.84225 0.0
H173 H 0.01459 0.32787 0.85446 0.0
H174 H 0.03664 0.39036 0.84988 0.0
H175 H 0.95666 0.47058 0.83358 0.0
H176 H -0.00637 0.65061 0.85511 0.0
H177 H 0.97582 0.58686 0.85208 0.0
H178 H 0.0605 0.50846 0.87518 0.0
C179 C 0.00823 0.38586 0.85356 0.0
C180 C 0.97962 0.4787 0.84251 0.0
C181 C -0.00436 0.35026 0.85614 0.0
C182 C 0.01452 0.6298 0.85565 0.0
C183 C 0.00444 0.59329 0.85377 0.0
C184 C 0.03841 0.50059 0.8656 0.0
C185 C 0.98429 0.41539 0.85578 0.0
C186 C -0.00225 0.45312 0.85427 0.0
C187 C 0.03086 0.56553 0.85479 0.0
C188 C 0.0201 0.52654 0.85402 0.0
H189 H 0.90689 0.36915 0.8674 0.0
H190 H 0.92879 0.43126 0.86249 0.0
H191 H 0.04158 0.44504 0.87498 0.0
H192 H 0.10598 0.6182 0.86186 0.0
H193 H 0.08885 0.55485 0.85768 0.0
C194 C 0.37168 0.06218 0.36772 0.0
C195 C 0.34156 0.03906 0.3653 0.0
C196 C 0.40698 0.04883 0.36559 0.0
C197 C 0.46196 0.96966 0.37209 0.0
H198 H 0.5309 0.01835 0.33761 0.0
C199 C 0.61168 0.92347 0.36683 0.0
C200 C 0.63823 0.9508 0.36505 0.0
C201 C 0.57479 0.93185 0.36489 0.0
C202 C 0.51215 0.0047 0.34748 0.0
H203 H 0.32446 0.98392 0.35889 0.0
H204 H 0.38686 0.96013 0.35581 0.0
H205 H 0.46716 0.03723 0.33785 0.0
H206 H 0.64732 0.00827 0.35993 0.0
H207 H 0.58284 0.02338 0.35738 0.0
H208 H 0.50695 0.93849 0.38261 0.0
C209 C 0.38281 0.98867 0.35907 0.0
C210 C 0.47566 0.01532 0.34746 0.0
C211 C 0.34731 0.00224 0.3608 0.0
C212 C 0.62734 0.98668 0.36127 0.0
C213 C 0.59038 -0.00479 0.35965 0.0
C214 C 0.49861 0.95942 0.37238 0.0
C215 C 0.41283 0.012 0.36135 0.0
C216 C 0.45043 -0.00183 0.35992 0.0
C217 C 0.56362 0.96789 0.36145 0.0
C218 C 0.52426 0.97716 0.36025 0.0
H219 H 0.36798 0.09073 0.37111 0.0
H220 H 0.42979 0.06718 0.36759 0.0
H221 H 0.44294 0.95637 0.38198 0.0
H222 H 0.61942 0.89547 0.36956 0.0
H223 H 0.55507 0.91 0.366 0.0
C224 C 0.92289 0.24961 0.94515 0.0
C225 C 0.94503 0.23415 0.93055 0.0
C226 C 0.93552 0.25235 0.96448 0.0
C227 C 0.02176 0.25348 0.99276 0.0
H228 H 0.95871 0.23571 0.03748 0.0
C229 C 0.07538 0.24022 0.07254 0.0
C230 C 0.05345 0.25476 0.08751 0.0
C231 C 0.06285 0.2396 0.05314 0.0
C232 C 0.9766 0.24122 0.02515 0.0
H233 H -0.00291 0.20814 0.92487 0.0
H234 H 0.01864 0.21222 0.95842 0.0
H235 H 0.93433 0.2301 1.00443 0.0
H236 H 0.00211 0.28172 0.09377 0.0
H237 H 0.98073 0.28124 0.06009 0.0
H238 H 0.06408 0.26441 0.0135 0.0
C239 C 0.99197 0.22309 0.95498 0.0
C240 C 0.96258 0.23799 1.0062 0.0
C241 C 0.97944 0.22047 0.93575 0.0
C242 C 0.01954 0.27001 0.08259 0.0
C243 C 0.00712 0.26949 0.06329 0.0
C244 C 0.03579 0.25668 0.01172 0.0
C245 C 0.9705 0.23962 0.96953 0.0
C246 C 0.98502 0.24391 0.98976 0.0
C247 C 0.02821 0.25357 0.04838 0.0
C248 C 0.0134 0.25054 0.02815 0.0
H249 H 0.89632 0.26054 0.94154 0.0
H250 H 0.91834 0.26541 0.97532 0.0
H251 H 0.03968 0.25888 0.98043 0.0
H252 H 0.10155 0.22814 0.07592 0.0
H253 H 0.07973 0.22698 0.04202 0.0
C254 C 0.73489 0.0043 0.58488 0.0
C255 C 0.7353 0.0414 0.58986 0.0
C256 C 0.7382 -0.0067 0.5654 0.0
C257 C 0.72754 0.02564 0.51445 0.0
H258 H 0.78466 0.93978 0.50213 0.0
C259 C 0.75857 0.98459 0.43491 0.0
C260 C 0.75508 0.94767 0.42988 0.0
C261 C 0.75755 -0.00444 0.45445 0.0
C262 C 0.76831 0.96356 0.50536 0.0
H263 H 0.7395 0.09614 0.57824 0.0
H264 H 0.7457 0.07691 0.54399 0.0
H265 H 0.78076 0.96094 0.53596 0.0
H266 H 0.74867 0.89314 0.44153 0.0
H267 H 0.74681 0.91239 0.47595 0.0
H268 H 0.71516 0.02831 0.48385 0.0
C269 C 0.74239 0.05632 0.55524 0.0
C270 C 0.76607 0.97575 0.52475 0.0
C271 C 0.739 0.06737 0.57484 0.0
C272 C 0.75148 0.92176 0.44495 0.0
C273 C 0.7505 0.9328 0.46464 0.0
C274 C 0.72986 0.01351 0.49507 0.0
C275 C 0.74215 0.01909 0.55031 0.0
C276 C 0.74555 0.00689 0.52956 0.0
C277 C 0.753 0.96994 0.46956 0.0
C278 C 0.75027 0.98233 0.49028 0.0
H279 H 0.73189 0.98353 0.59608 0.0
H280 H 0.73716 0.96449 0.56217 0.0
H281 H 0.71099 0.04931 0.51764 0.0
H282 H 0.76166 0.00529 0.42368 0.0
H283 H 0.76031 0.02425 0.45772 0.0
C284 C 0.98638 0.73038 0.07961 0.0
C285 C 0.94905 0.73285 0.08421 0.0
C286 C -0.0016 0.73201 0.06021 0.0
C287 C 0.97268 0.76456 0.0112 0.0
H288 H 0.05077 0.70081 0.99407 0.0
C289 C 0.0177 0.75507 0.93029 0.0
C290 C 0.05499 0.75086 0.92599 0.0
C291 C 0.00504 0.75363 0.94958 0.0
C292 C 0.02933 0.71917 0.99868 0.0
H293 H 0.89498 0.73883 0.07197 0.0
H294 H 0.91609 0.74163 0.03777 0.0
H295 H 0.02671 0.6953 0.0273 0.0
H296 H 0.10838 0.74242 0.93865 0.0
H297 H 0.08629 0.74037 0.97262 0.0
H298 H 0.97543 0.78859 0.98261 0.0
C299 C 0.93602 0.73863 0.04934 0.0
C300 C 0.0154 0.71591 0.01772 0.0
C301 C 0.92389 0.73684 0.06888 0.0
C302 C 0.07951 0.74574 0.94151 0.0
C303 C 0.06678 0.74431 0.96093 0.0
C304 C 0.98667 0.76789 0.99216 0.0
C305 C 0.97347 0.73621 0.04482 0.0
C306 C 0.98698 0.73863 0.02424 0.0
C307 C 0.02931 0.74803 0.96517 0.0
C308 C 0.0152 0.74524 0.98565 0.0
H309 H 0.00658 0.72739 0.09105 0.0
H310 H 0.02743 0.73065 0.05732 0.0
H311 H 0.95121 0.78287 0.01584 0.0
H312 H -0.00201 0.75892 0.91867 0.0
H313 H 0.976 0.75602 0.95222 0.0
C314 C 0.20712 0.02633 0.43403 0.0
C315 C 0.22422 0.05944 0.42925 0.0
C316 C 0.20825 0.01262 0.4531 0.0
C317 C 0.26363 0.01676 0.49784 0.0
H318 H 0.18162 0.96573 0.52122 0.0
C319 C 0.26096 0.97036 0.57867 0.0
C320 C 0.24431 0.93701 0.58341 0.0
C321 C 0.25984 0.98401 0.55958 0.0
C322 C 0.20494 0.97942 0.51478 0.0
H323 H 0.25484 0.10485 0.44089 0.0
H324 H 0.25658 0.081 0.4745 0.0
H325 H 0.17478 -0.00513 0.48927 0.0
H326 H 0.21446 0.89114 0.5717 0.0
H327 H 0.21261 0.91498 0.53809 0.0
H328 H 0.29377 0.00136 0.52338 0.0
C329 C 0.24263 0.06546 0.46333 0.0
C330 C 0.20097 -0.00371 0.4965 0.0
C331 C 0.24134 0.07931 0.44416 0.0
C332 C 0.22758 0.91688 0.56846 0.0
C333 C 0.22625 0.93071 0.54929 0.0
C334 C 0.26759 -8e-05 0.51613 0.0
C335 C 0.2266 0.03162 0.46793 0.0
C336 C 0.23028 0.01516 0.4878 0.0
C337 C 0.24191 0.96472 0.54472 0.0
C338 C 0.23828 0.98106 0.52483 0.0
H339 H 0.19369 0.01033 0.42285 0.0
H340 H 0.19593 0.98636 0.45603 0.0
H341 H 0.28697 0.03042 0.4914 0.0
H342 H 0.2741 0.98653 0.58987 0.0
H343 H 0.27187 0.0104 0.55666 0.0
C344 C 0.17306 0.19995 0.19355 0.0
C345 C 0.16686 0.23243 0.18328 0.0
C346 C 0.19548 0.19954 0.20997 0.0
C347 C 0.21923 0.25663 0.25071 0.0
H348 H 0.27933 0.17363 0.26413 0.0
C349 C 0.22616 0.19363 0.32767 0.0
C350 C 0.256 0.17151 0.33239 0.0
C351 C 0.22557 0.21252 0.30979 0.0
C352 C 0.26344 0.19762 0.26069 0.0
H353 H 0.18 0.28977 0.18155 0.0
H354 H 0.21906 0.28929 0.21083 0.0
H355 H 0.26194 0.18356 0.23029 0.0
H356 H 0.31029 0.15509 0.32362 0.0
H357 H 0.31022 0.18951 0.29303 0.0
H358 H 0.2195 0.26983 0.28132 0.0
C359 C 0.20688 0.26408 0.20591 0.0
C360 C 0.25322 0.20306 0.24123 0.0
C361 C 0.18491 0.26429 0.18911 0.0
C362 C 0.28685 0.17183 0.32017 0.0
C363 C 0.28661 0.19126 0.30256 0.0
C364 C 0.22949 0.25119 0.27027 0.0
C365 C 0.21166 0.23179 0.21674 0.0
C366 C 0.22976 0.23168 0.23616 0.0
C367 C 0.25508 0.2099 0.29655 0.0
C368 C 0.25056 0.22076 0.27561 0.0
H369 H 0.15913 0.17514 0.18939 0.0
H370 H 0.19821 0.17434 0.21811 0.0
H371 H 0.201 0.27888 0.24723 0.0
H372 H 0.20192 0.19348 0.3368 0.0
H373 H 0.20073 0.22644 0.30568 0.0
C374 C 0.81036 0.2099 0.83171 0.0
C375 C 0.82876 0.24271 0.83497 0.0
C376 C 0.78908 0.20552 0.81489 0.0
C377 C 0.78223 0.24526 0.76475 0.0
H378 H 0.7106 0.16867 0.75929 0.0
C379 C 0.7587 0.17214 0.69154 0.0
C380 C 0.72636 0.15262 0.68873 0.0
C381 C 0.76408 0.1916 0.7089 0.0
C382 C 0.7299 0.19083 0.76041 0.0
H383 H 0.83681 0.29778 0.82455 0.0
H384 H 0.79751 0.29129 0.79607 0.0
H385 H 0.72916 0.18744 0.79167 0.0
H386 H 0.67301 0.1405 0.70068 0.0
H387 H 0.68102 0.1767 0.73022 0.0
H388 H 0.782 0.24956 0.73352 0.0
C389 C 0.80084 0.26814 0.80574 0.0
C390 C 0.74116 0.20114 0.77914 0.0
C391 C 0.82293 0.27212 0.82223 0.0
C392 C 0.69825 0.1554 0.70263 0.0
C393 C 0.70315 0.17569 0.7197 0.0
C394 C 0.77034 0.23555 0.74604 0.0
C395 C 0.78515 0.23421 0.80125 0.0
C396 C 0.76848 0.22757 0.7816 0.0
C397 C 0.73684 0.19252 0.72359 0.0
C398 C 0.74498 0.20726 0.74352 0.0
H399 H 0.81491 0.18668 0.84122 0.0
H400 H 0.77793 0.17881 0.81201 0.0
H401 H 0.80355 0.2655 0.76581 0.0
H402 H 0.78096 0.16983 0.68113 0.0
H403 H 0.79059 0.20371 0.71128 0.0
C404 C 0.76226 0.80783 0.33101 0.0
C405 C 0.7439 0.84106 0.32874 0.0
C406 C 0.76711 0.78472 0.31488 0.0
C407 C 0.73984 0.77018 0.26251 0.0
H408 H 0.84078 0.74125 0.25652 0.0
C409 C 0.81308 0.75152 0.18778 0.0
C410 C 0.84231 0.72698 0.18696 0.0
C411 C 0.79371 0.75622 0.20537 0.0
C412 C 0.81224 0.74832 0.25802 0.0
H413 H 0.71382 0.87488 0.30831 0.0
H414 H 0.72258 0.83521 0.28039 0.0
H415 H 0.81988 0.76505 0.28766 0.0
H416 H 0.87192 0.6855 0.20293 0.0
H417 H 0.83749 0.69267 0.23324 0.0
H418 H 0.73288 0.75489 0.23241 0.0
C419 C 0.73311 0.82657 0.29447 0.0
C420 C 0.80021 0.76194 0.27598 0.0
C421 C 0.72839 0.84956 0.31049 0.0
C422 C 0.84972 0.70495 0.2033 0.0
C423 C 0.83017 0.70923 0.22069 0.0
C424 C 0.75194 0.75659 0.24446 0.0
C425 C 0.75353 0.79443 0.29627 0.0
C426 C 0.76412 0.77395 0.27833 0.0
C427 C 0.80316 0.73615 0.22226 0.0
C428 C 0.78852 0.74625 0.24189 0.0
H429 H 0.77438 0.80055 0.34493 0.0
H430 H 0.78257 0.75989 0.31682 0.0
H431 H 0.7117 0.77872 0.2639 0.0
H432 H 0.80704 0.76894 0.17537 0.0
H433 H 0.77312 0.77728 0.20609 0.0
C434 C 0.26173 0.80333 0.68424 0.0
C435 C 0.22862 0.81834 0.67786 0.0
C436 C 0.26272 0.78194 0.7013 0.0
C437 C 0.25517 0.77139 0.74611 0.0
H438 H 0.17615 0.7067 0.76074 0.0
C439 C 0.19189 0.76561 0.82314 0.0
C440 C 0.17172 0.73477 0.82857 0.0
C441 C 0.21079 0.76623 0.80524 0.0
C442 C 0.19909 0.72396 0.75699 0.0
H443 H 0.17052 0.821 0.68321 0.0
H444 H 0.1719 0.78291 0.7124 0.0
H445 H 0.18559 0.7221 0.72653 0.0
H446 H 0.1584 0.67926 0.82098 0.0
H447 H 0.19308 0.67941 0.79042 0.0
H448 H 0.26782 0.77431 0.77674 0.0
C449 C 0.19715 0.78754 0.70448 0.0
C450 C 0.20423 0.73303 0.7373 0.0
C451 C 0.1963 0.80938 0.68777 0.0
C452 C 0.17383 0.70336 0.81701 0.0
C453 C 0.19333 0.70366 0.7994 0.0
C454 C 0.25007 0.76225 0.76589 0.0
C455 C 0.2305 0.77473 0.71189 0.0
C456 C 0.23128 0.75806 0.73174 0.0
C457 C 0.2101 0.73581 0.79268 0.0
C458 C 0.22101 0.73955 0.77166 0.0
H459 H 0.28708 0.81044 0.67697 0.0
H460 H 0.28877 0.77235 0.70667 0.0
H461 H 0.2762 0.79088 0.74227 0.0
H462 H 0.19014 0.7903 0.83174 0.0
H463 H 0.22318 0.79157 0.80057 0.0
C464 C 0.06325 0.10494 0.14812 0.0
C465 C 0.03923 0.13371 0.1522 0.0
C466 C 0.05202 0.06896 0.15058 0.0
C467 C 0.97231 0.0115 0.14934 0.0
H468 H 0.03147 0.94205 0.17798 0.0
C469 C 0.92615 0.86335 0.15775 0.0
C470 C 0.95295 0.83635 0.15594 0.0
C471 C 0.93601 0.89975 0.15985 0.0
C472 C 0.01483 0.96097 0.16974 0.0
H473 H 0.98471 0.14763 0.16198 0.0
H474 H 0.96469 0.08435 0.16579 0.0
H475 H 0.05006 0.00581 0.17638 0.0
H476 H 0.01101 0.82579 0.15536 0.0
H477 H 0.02847 0.88964 0.15822 0.0
H478 H 0.93796 0.96688 0.14184 0.0
C479 C 0.99228 0.08984 0.16087 0.0
C480 C 0.0254 -0.00254 0.16894 0.0
C481 C 0.00372 0.12591 0.15873 0.0
C482 C 0.98985 0.84617 0.15682 0.0
C483 C -0.00022 0.88275 0.15856 0.0
C484 C 0.96202 0.97498 0.14987 0.0
C485 C 0.01641 0.06111 0.15688 0.0
C486 C 0.0043 0.02294 0.15865 0.0
C487 C 0.97293 0.91006 0.15979 0.0
C488 C 0.98323 0.94918 0.16001 0.0
H489 H 0.09084 0.11022 0.14315 0.0
H490 H 0.07097 0.04723 0.14722 0.0
H491 H 0.95587 0.03062 0.1411 0.0
H492 H 0.89745 0.85638 0.15737 0.0
H493 H 0.91459 0.91985 0.16129 0.0
C494 C 0.09691 0.92334 0.64641 0.0
C495 C 0.12597 0.94636 0.65145 0.0
C496 C 0.06103 0.93346 0.65048 0.0
C497 C 0.0035 0.0126 0.65681 0.0
H498 H 0.93541 0.94542 0.68127 0.0
C499 C 0.85628 0.05595 0.67045 0.0
C500 C 0.82916 0.03045 0.66593 0.0
C501 C 0.89253 0.04518 0.67218 0.0
C502 C 0.95397 0.96438 0.67428 0.0
H503 H 0.14045 -0.00203 0.66462 0.0
H504 H 0.07741 0.01609 0.67133 0.0
H505 H -0.0009 0.92763 0.67684 0.0
H506 H 0.81802 0.97353 0.66052 0.0
H507 H 0.88173 0.95467 0.66274 0.0
H508 H 0.95859 0.04876 0.65333 0.0
C509 C 0.08255 0.99013 0.66437 0.0
C510 C 0.99042 0.95423 0.67182 0.0
C511 C 0.11852 0.97978 0.66054 0.0
C512 C 0.83853 -0.00637 0.66412 0.0
C513 C 0.87502 0.98289 0.66546 0.0
C514 C 0.96706 0.02258 0.65902 0.0
C515 C 0.05353 0.96698 0.65943 0.0
C516 C 0.01541 0.97821 0.66297 0.0
C517 C 0.90259 0.00877 0.66895 0.0
C518 C 0.94175 -0.00143 0.66771 0.0
H519 H 0.10189 0.89733 0.63947 0.0
H520 H 0.03908 0.91534 0.64633 0.0
H521 H 0.02215 0.03137 0.6497 0.0
H522 H 0.84958 0.08449 0.67216 0.0
H523 H 0.91282 0.06566 0.67548 0.0
C524 C 0.93309 0.11014 0.84994 0.0
C525 C 0.95667 0.14027 0.84986 0.0
C526 C 0.94623 0.07547 0.84558 0.0
C527 C 0.0288 0.02254 0.85011 0.0
H528 H 0.9771 0.95083 0.81919 0.0
C529 C 0.08019 0.8757 0.8465 0.0
C530 C 0.05376 0.8482 0.84795 0.0
C531 C 0.06999 0.91158 0.84274 0.0
C532 C 0.99173 0.97045 0.82799 0.0
H533 H 0.01212 0.15813 0.84442 0.0
H534 H 0.03532 0.09719 0.83705 0.0
H535 H 0.95598 0.0139 0.81958 0.0
H536 H -0.00391 0.83622 0.84596 0.0
H537 H 0.97793 0.89921 0.84013 0.0
H538 H 0.06338 0.97927 0.85941 0.0
C539 C 0.00665 0.10053 0.84047 0.0
C540 C 0.97974 0.00657 0.82811 0.0
C541 C 0.99338 0.13535 0.84461 0.0
C542 C 0.017 0.85695 0.84485 0.0
C543 C 0.00668 0.89304 0.8414 0.0
C544 C 0.04053 0.98645 0.85018 0.0
C545 C 0.98331 0.0702 0.84126 0.0
C546 C -0.00205 0.03284 0.83935 0.0
C547 C 0.03302 0.92094 0.84071 0.0
C548 C 0.02193 0.95981 0.8393 0.0
H549 H 0.9046 0.1132 0.85387 0.0
H550 H 0.92771 0.05255 0.84647 0.0
H551 H 0.04297 0.04208 0.85918 0.0
H552 H 0.10882 0.86958 0.84858 0.0
H553 H 0.09112 0.93211 0.84179 0.0
C554 C 0.85096 -0.00112 0.34458 0.0
C555 C 0.84665 0.96261 0.35068 0.0
C556 C 0.88552 0.01221 0.33962 0.0
C557 C 0.97942 0.98467 0.32648 0.0
H558 H 0.00766 0.07119 0.355 0.0
C559 C 0.12884 0.01996 0.34389 0.0
C560 C 0.13849 0.05658 0.34639 0.0
C561 C 0.09279 0.01049 0.33969 0.0
C562 C 0.0002 0.04752 0.3465 0.0
H563 H 0.87459 0.91138 0.35552 0.0
H564 H 0.93474 0.93458 0.34681 0.0
H565 H 0.9446 0.05122 0.35582 0.0
H566 H 0.11904 0.11219 0.34494 0.0
H567 H 0.05654 0.09585 0.33689 0.0
H568 H 0.0352 0.98061 0.3174 0.0
C569 C 0.91154 0.95271 0.34582 0.0
C570 C 0.96396 0.03604 0.34703 0.0
C571 C 0.87715 0.93953 0.35097 0.0
C572 C 0.11215 0.08368 0.34335 0.0
C573 C 0.0763 0.07428 0.33886 0.0
C574 C 0.01568 -0.00365 0.32578 0.0
C575 C 0.9162 0.98933 0.34044 0.0
C576 C 0.95339 0.00405 0.33742 0.0
C577 C 0.06586 0.03754 0.33766 0.0
C578 C 0.02669 0.02745 0.33618 0.0
H579 H 0.82786 0.01721 0.34417 0.0
H580 H 0.88838 0.04052 0.33543 0.0
H581 H 0.97185 0.96008 0.31877 0.0
H582 H 0.14867 -0.00145 0.3462 0.0
H583 H 0.08575 0.9819 0.33907 0.0
loop_
_geom_bond_atom_site_label_1
_geom_bond_atom_site_label_2
_geom_bond_distance
_geom_bond_site_symmetry_2
_ccdc_geom_bond_type
In0 O1 2.294 . S
In0 O2 2.326 . S
In0 O6 2.266 . S
In0 O7 2.326 . S
In0 O8 2.266 . S
In0 O9 2.326 . S
In0 O11 2.294 . S
In0 O12 2.326 . S
O1 In0 2.294 . S
O1 C10 1.240 . S
O2 In0 2.326 . S
O2 C10 1.252 . S
C3 O6 1.252 . S
C3 O7 1.260 . S
C4 O11 1.240 . S
C4 O12 1.252 . S
C5 O8 1.252 . S
C5 O9 1.260 . S
O6 In0 2.266 . S
O6 C3 1.252 . S
O7 In0 2.326 . S
O7 C3 1.260 . S
O8 In0 2.266 . S
O8 C5 1.252 . S
O9 In0 2.326 . S
O9 C5 1.260 . S
C10 O1 1.240 . S
C10 O2 1.252 . S
O11 In0 2.294 . S
O11 C4 1.240 . S
O12 In0 2.326 . S
O12 C4 1.252 . S
In13 O14 2.294 . S
In13 O15 2.326 . S
In13 O19 2.266 . S
In13 O20 2.326 . S
In13 O21 2.266 . S
In13 O22 2.326 . S
In13 O24 2.294 . S
In13 O25 2.326 . S
O14 In13 2.294 . S
O14 C23 1.240 . S
O15 In13 2.326 . S
O15 C23 1.252 . S
C16 O19 1.252 . S
C16 O20 1.260 . S
C17 O24 1.240 . S
C17 O25 1.252 . S
C18 O21 1.252 . S
C18 O22 1.260 . S
O19 In13 2.266 . S
O19 C16 1.252 . S
O20 In13 2.326 . S
O20 C16 1.260 . S
O21 In13 2.266 . S
O21 C18 1.252 . S
O22 In13 2.326 . S
O22 C18 1.260 . S
C23 O14 1.240 . S
C23 O15 1.252 . S
O24 In13 2.294 . S
O24 C17 1.240 . S
O25 In13 2.326 . S
O25 C17 1.252 . S
In26 O27 2.294 . S
In26 O28 2.326 . S
In26 O32 2.266 . S
In26 O33 2.326 . S
In26 O34 2.266 . S
In26 O35 2.326 . S
In26 O37 2.294 . S
In26 O38 2.326 . S
O27 In26 2.294 . S
O27 C36 1.240 . S
O28 In26 2.326 . S
O28 C36 1.252 . S
C29 O32 1.252 . S
C29 O33 1.260 . S
C30 O37 1.240 . S
C30 O38 1.252 . S
C31 O34 1.252 . S
C31 O35 1.260 . S
O32 In26 2.266 . S
O32 C29 1.252 . S
O33 In26 2.326 . S
O33 C29 1.260 . S
O34 In26 2.266 . S
O34 C31 1.252 . S
O35 In26 2.326 . S
O35 C31 1.260 . S
C36 O27 1.240 . S
C36 O28 1.252 . S
O37 In26 2.294 . S
O37 C30 1.240 . S
O38 In26 2.326 . S
O38 C30 1.252 . S
In39 O40 2.294 . S
In39 O41 2.326 . S
In39 O45 2.266 . S
In39 O46 2.326 . S
In39 O47 2.266 . S
In39 O48 2.326 . S
In39 O50 2.294 . S
In39 O51 2.326 . S
O40 In39 2.294 . S
O40 C49 1.240 . S
O41 In39 2.326 . S
O41 C49 1.252 . S
C42 O45 1.252 . S
C42 O46 1.260 . S
C43 O50 1.240 . S
C43 O51 1.252 . S
C44 O47 1.252 . S
C44 O48 1.260 . S
O45 In39 2.266 . S
O45 C42 1.252 . S
O46 In39 2.326 . S
O46 C42 1.260 . S
O47 In39 2.266 . S
O47 C44 1.252 . S
O48 In39 2.326 . S
O48 C44 1.260 . S
C49 O40 1.240 . S
C49 O41 1.252 . S
O50 In39 2.294 . S
O50 C43 1.240 . S
O51 In39 2.326 . S
O51 C43 1.252 . S
In52 O53 2.294 . S
In52 O54 2.326 . S
In52 O58 2.266 . S
In52 O59 2.326 . S
In52 O60 2.266 . S
In52 O61 2.326 . S
In52 O63 2.294 . S
In52 O64 2.326 . S
O53 In52 2.294 . S
O53 C62 1.240 . S
O54 In52 2.326 . S
O54 C62 1.252 . S
C55 O58 1.252 . S
C55 O59 1.260 . S
C56 O63 1.240 . S
C56 O64 1.252 . S
C57 O60 1.252 . S
C57 O61 1.260 . S
O58 In52 2.266 . S
O58 C55 1.252 . S
O59 In52 2.326 . S
O59 C55 1.260 . S
O60 In52 2.266 . S
O60 C57 1.252 . S
O61 In52 2.326 . S
O61 C57 1.260 . S
C62 O53 1.240 . S
C62 O54 1.252 . S
O63 In52 2.294 . S
O63 C56 1.240 . S
O64 In52 2.326 . S
O64 C56 1.252 . S
In65 O66 2.294 . S
In65 O67 2.326 . S
In65 O71 2.266 . S
In65 O72 2.326 . S
In65 O73 2.266 . S
In65 O74 2.326 . S
In65 O76 2.294 . S
In65 O77 2.326 . S
O66 In65 2.294 . S
O66 C75 1.240 . S
O67 In65 2.326 . S
O67 C75 1.252 . S
C68 O71 1.252 . S
C68 O72 1.260 . S
C69 O76 1.240 . S
C69 O77 1.252 . S
C70 O73 1.252 . S
C70 O74 1.260 . S
O71 In65 2.266 . S
O71 C68 1.252 . S
O72 In65 2.326 . S
O72 C68 1.260 . S
O73 In65 2.266 . S
O73 C70 1.252 . S
O74 In65 2.326 . S
O74 C70 1.260 . S
C75 O66 1.240 . S
C75 O67 1.252 . S
O76 In65 2.294 . S
O76 C69 1.240 . S
O77 In65 2.326 . S
O77 C69 1.252 . S
In78 O79 2.294 . S
In78 O80 2.326 . S
In78 O84 2.266 . S
In78 O85 2.326 . S
In78 O86 2.266 . S
In78 O87 2.326 . S
In78 O89 2.294 . S
In78 O90 2.326 . S
O79 In78 2.294 . S
O79 C88 1.240 . S
O80 In78 2.326 . S
O80 C88 1.252 . S
C81 O84 1.252 . S
C81 O85 1.260 . S
C82 O89 1.240 . S
C82 O90 1.252 . S
C83 O86 1.252 . S
C83 O87 1.260 . S
O84 In78 2.266 . S
O84 C81 1.252 . S
O85 In78 2.326 . S
O85 C81 1.260 . S
O86 In78 2.266 . S
O86 C83 1.252 . S
O87 In78 2.326 . S
O87 C83 1.260 . S
C88 O79 1.240 . S
C88 O80 1.252 . S
O89 In78 2.294 . S
O89 C82 1.240 . S
O90 In78 2.326 . S
O90 C82 1.252 . S
In91 O92 2.294 . S
In91 O93 2.326 . S
In91 O97 2.266 . S
In91 O98 2.326 . S
In91 O99 2.266 . S
In91 O100 2.326 . S
In91 O102 2.294 . S
In91 O103 2.326 . S
O92 In91 2.294 . S
O92 C101 1.240 . S
O93 In91 2.326 . S
O93 C101 1.252 . S
C94 O97 1.252 . S
C94 O98 1.260 . S
C95 O102 1.240 . S
C95 O103 1.252 . S
C96 O99 1.252 . S
C96 O100 1.260 . S
O97 In91 2.266 . S
O97 C94 1.252 . S
O98 In91 2.326 . S
O98 C94 1.260 . S
O99 In91 2.266 . S
O99 C96 1.252 . S
O100 In91 2.326 . S
O100 C96 1.260 . S
C101 O92 1.240 . S
C101 O93 1.252 . S
O102 In91 2.294 . S
O102 C95 1.240 . S
O103 In91 2.326 . S
O103 C95 1.252 . S
C104 C105 1.349 . S
C104 C106 1.327 . S
C104 H129 0.950 . S
C105 C104 1.349 . S
C105 C121 1.349 . S
C106 C104 1.327 . S
C106 C125 1.429 . S
C106 H130 0.950 . S
C107 C124 1.574 . S
C107 C126 1.368 1_655 S
C107 H131 0.949 . S
H108 C112 0.949 . S
C109 C110 1.349 . S
C109 C111 1.327 . S
C109 H132 0.950 . S
C110 C109 1.349 . S
C110 C122 1.349 . S
C111 C109 1.327 . S
C111 C127 1.429 . S
C111 H133 0.950 . S
C112 H108 0.949 . S
C112 C120 1.574 . S
C112 C128 1.368 1_455 S
H113 C121 0.950 . S
H114 C119 0.950 1_655 S
H115 C120 0.949 . S
H116 C122 0.950 . S
H117 C123 0.950 1_455 S
H118 C124 0.949 . S
C119 H114 0.950 1_455 S
C119 C121 1.327 . S
C119 C125 1.429 . S
C120 C112 1.574 . S
C120 H115 0.949 . S
C120 C126 1.368 . S
C121 C105 1.349 . S
C121 H113 0.950 . S
C121 C119 1.327 . S
C122 C110 1.349 . S
C122 H116 0.950 . S
C122 C123 1.327 . S
C123 H117 0.950 1_655 S
C123 C122 1.327 . S
C123 C127 1.429 . S
C124 C107 1.574 . S
C124 H118 0.949 . S
C124 C128 1.368 . S
C125 C106 1.429 . S
C125 C119 1.429 . S
C125 C126 1.523 . S
C126 C107 1.368 1_455 S
C126 C120 1.368 . S
C126 C125 1.523 . S
C127 C111 1.429 . S
C127 C123 1.429 . S
C127 C128 1.523 . S
C128 C112 1.368 1_655 S
C128 C124 1.368 . S
C128 C127 1.523 . S
H129 C104 0.950 . S
H130 C106 0.950 . S
H131 C107 0.949 . S
H132 C109 0.950 . S
H133 C111 0.950 . S
C134 C135 1.349 . S
C134 C136 1.327 . S
C134 H159 0.950 . S
C135 C134 1.349 . S
C135 C151 1.349 . S
C136 C134 1.327 . S
C136 C155 1.429 . S
C136 H160 0.950 . S
C137 C154 1.574 . S
C137 C156 1.368 1_545 S
C137 H161 0.949 . S
H138 C142 0.949 . S
C139 C140 1.349 . S
C139 C141 1.327 . S
C139 H162 0.950 . S
C140 C139 1.349 . S
C140 C152 1.349 . S
C141 C139 1.327 . S
C141 C157 1.429 . S
C141 H163 0.950 . S
C142 H138 0.949 . S
C142 C150 1.574 . S
C142 C158 1.368 1_565 S
H143 C151 0.950 . S
H144 C149 0.950 1_545 S
H145 C150 0.949 . S
H146 C152 0.950 . S
H147 C153 0.950 1_565 S
H148 C154 0.949 . S
C149 H144 0.950 1_565 S
C149 C151 1.327 . S
C149 C155 1.429 . S
C150 C142 1.574 . S
C150 H145 0.949 . S
C150 C156 1.368 . S
C151 C135 1.349 . S
C151 H143 0.950 . S
C151 C149 1.327 . S
C152 C140 1.349 . S
C152 H146 0.950 . S
C152 C153 1.327 . S
C153 H147 0.950 1_545 S
C153 C152 1.327 . S
C153 C157 1.429 . S
C154 C137 1.574 . S
C154 H148 0.949 . S
C154 C158 1.368 . S
C155 C136 1.429 . S
C155 C149 1.429 . S
C155 C156 1.523 . S
C156 C137 1.368 1_565 S
C156 C150 1.368 . S
C156 C155 1.523 . S
C157 C141 1.429 . S
C157 C153 1.429 . S
C157 C158 1.523 . S
C158 C142 1.368 1_545 S
C158 C154 1.368 . S
C158 C157 1.523 . S
H159 C134 0.950 . S
H160 C136 0.950 . S
H161 C137 0.949 . S
H162 C139 0.950 . S
H163 C141 0.950 . S
C164 C165 1.349 . S
C164 C166 1.327 . S
C164 H189 0.950 . S
C165 C164 1.349 . S
C165 C181 1.349 . S
C166 C164 1.327 . S
C166 C185 1.429 . S
C166 H190 0.950 . S
C167 C184 1.574 . S
C167 C186 1.368 1_455 S
C167 H191 0.949 . S
H168 C172 0.949 . S
C169 C170 1.349 . S
C169 C171 1.327 . S
C169 H192 0.950 . S
C170 C169 1.349 . S
C170 C182 1.349 . S
C171 C169 1.327 . S
C171 C187 1.429 . S
C171 H193 0.950 . S
C172 H168 0.949 . S
C172 C180 1.574 . S
C172 C188 1.368 1_655 S
H173 C181 0.950 . S
H174 C179 0.950 1_455 S
H175 C180 0.949 . S
H176 C182 0.950 . S
H177 C183 0.950 1_655 S
H178 C184 0.949 . S
C179 H174 0.950 1_655 S
C179 C181 1.327 . S
C179 C185 1.429 . S
C180 C172 1.574 . S
C180 H175 0.949 . S
C180 C186 1.368 . S
C181 C165 1.349 . S
C181 H173 0.950 . S
C181 C179 1.327 . S
C182 C170 1.349 . S
C182 H176 0.950 . S
C182 C183 1.327 . S
C183 H177 0.950 1_455 S
C183 C182 1.327 . S
C183 C187 1.429 . S
C184 C167 1.574 . S
C184 H178 0.949 . S
C184 C188 1.368 . S
C185 C166 1.429 . S
C185 C179 1.429 . S
C185 C186 1.523 . S
C186 C167 1.368 1_655 S
C186 C180 1.368 . S
C186 C185 1.523 . S
C187 C171 1.429 . S
C187 C183 1.429 . S
C187 C188 1.523 . S
C188 C172 1.368 1_455 S
C188 C184 1.368 . S
C188 C187 1.523 . S
H189 C164 0.950 . S
H190 C166 0.950 . S
H191 C167 0.949 . S
H192 C169 0.950 . S
H193 C171 0.950 . S
C194 C195 1.349 . S
C194 C196 1.327 . S
C194 H219 0.950 . S
C195 C194 1.349 . S
C195 C211 1.349 . S
C196 C194 1.327 . S
C196 C215 1.429 . S
C196 H220 0.950 . S
C197 C214 1.574 . S
C197 C216 1.368 1_565 S
C197 H221 0.949 . S
H198 C202 0.949 . S
C199 C200 1.349 . S
C199 C201 1.327 . S
C199 H222 0.950 . S
C200 C199 1.349 . S
C200 C212 1.349 . S
C201 C199 1.327 . S
C201 C217 1.429 . S
C201 H223 0.950 . S
C202 H198 0.949 . S
C202 C210 1.574 . S
C202 C218 1.368 1_545 S
H203 C211 0.950 . S
H204 C209 0.950 1_565 S
H205 C210 0.949 . S
H206 C212 0.950 . S
H207 C213 0.950 1_545 S
H208 C214 0.949 . S
C209 H204 0.950 1_545 S
C209 C211 1.327 . S
C209 C215 1.429 . S
C210 C202 1.574 . S
C210 H205 0.949 . S
C210 C216 1.368 . S
C211 C195 1.349 . S
C211 H203 0.950 . S
C211 C209 1.327 . S
C212 C200 1.349 . S
C212 H206 0.950 . S
C212 C213 1.327 . S
C213 H207 0.950 1_565 S
C213 C212 1.327 . S
C213 C217 1.429 . S
C214 C197 1.574 . S
C214 H208 0.949 . S
C214 C218 1.368 . S
C215 C196 1.429 . S
C215 C209 1.429 . S
C215 C216 1.523 . S
C216 C197 1.368 1_545 S
C216 C210 1.368 . S
C216 C215 1.523 . S
C217 C201 1.429 . S
C217 C213 1.429 . S
C217 C218 1.523 . S
C218 C202 1.368 1_565 S
C218 C214 1.368 . S
C218 C217 1.523 . S
H219 C194 0.950 . S
H220 C196 0.950 . S
H221 C197 0.949 . S
H222 C199 0.950 . S
H223 C201 0.950 . S
C224 C225 1.349 . S
C224 C226 1.327 . S
C224 H249 0.950 . S
C225 C224 1.349 . S
C225 C241 1.349 . S
C226 C224 1.327 . S
C226 C245 1.429 . S
C226 H250 0.950 . S
C227 C244 1.574 1_556 S
C227 C246 1.368 1_455 S
C227 H251 0.949 . S
H228 C232 0.949 . S
C229 C230 1.349 . S
C229 C231 1.327 . S
C229 H252 0.950 . S
C230 C229 1.349 . S
C230 C242 1.349 . S
C231 C229 1.327 . S
C231 C247 1.429 . S
C231 H253 0.950 . S
C232 H228 0.949 . S
C232 C240 1.574 1_554 S
C232 C248 1.368 1_655 S
H233 C241 0.950 . S
H234 C239 0.950 . S
H235 C240 0.949 . S
H236 C242 0.950 . S
H237 C243 0.950 . S
H238 C244 0.949 . S
C239 H234 0.950 . S
C239 C241 1.327 . S
C239 C245 1.429 . S
C240 C232 1.574 1_556 S
C240 H235 0.949 . S
C240 C246 1.368 . S
C241 C225 1.349 . S
C241 H233 0.950 . S
C241 C239 1.327 . S
C242 C230 1.349 . S
C242 H236 0.950 . S
C242 C243 1.327 . S
C243 H237 0.950 . S
C243 C242 1.327 . S
C243 C247 1.429 . S
C244 C227 1.574 1_554 S
C244 H238 0.949 . S
C244 C248 1.368 . S
C245 C226 1.429 . S
C245 C239 1.429 . S
C245 C246 1.523 . S
C246 C227 1.368 1_655 S
C246 C240 1.368 . S
C246 C245 1.523 . S
C247 C231 1.429 . S
C247 C243 1.429 . S
C247 C248 1.523 . S
C248 C232 1.368 1_455 S
C248 C244 1.368 . S
C248 C247 1.523 . S
H249 C224 0.950 . S
H250 C226 0.950 . S
H251 C227 0.949 . S
H252 C229 0.950 . S
H253 C231 0.950 . S
C254 C255 1.349 . S
C254 C256 1.327 . S
C254 H279 0.950 . S
C255 C254 1.349 . S
C255 C271 1.349 . S
C256 C254 1.327 . S
C256 C275 1.429 . S
C256 H280 0.950 1_545 S
C257 C274 1.574 . S
C257 C276 1.368 . S
C257 H281 0.949 . S
H258 C262 0.949 . S
C259 C260 1.349 . S
C259 C261 1.327 . S
C259 H282 0.950 . S
C260 C259 1.349 . S
C260 C272 1.349 . S
C261 C259 1.327 . S
C261 C277 1.429 . S
C261 H283 0.950 1_565 S
C262 H258 0.949 . S
C262 C270 1.574 . S
C262 C278 1.368 . S
H263 C271 0.950 . S
H264 C269 0.950 . S
H265 C270 0.949 . S
H266 C272 0.950 . S
H267 C273 0.950 . S
H268 C274 0.949 . S
C269 H264 0.950 . S
C269 C271 1.327 . S
C269 C275 1.429 . S
C270 C262 1.574 . S
C270 H265 0.949 . S
C270 C276 1.368 1_565 S
C271 C255 1.349 . S
C271 H263 0.950 . S
C271 C269 1.327 . S
C272 C260 1.349 . S
C272 H266 0.950 . S
C272 C273 1.327 . S
C273 H267 0.950 . S
C273 C272 1.327 . S
C273 C277 1.429 . S
C274 C257 1.574 . S
C274 H268 0.949 . S
C274 C278 1.368 1_545 S
C275 C256 1.429 . S
C275 C269 1.429 . S
C275 C276 1.523 . S
C276 C257 1.368 . S
C276 C270 1.368 1_545 S
C276 C275 1.523 . S
C277 C261 1.429 . S
C277 C273 1.429 . S
C277 C278 1.523 . S
C278 C262 1.368 . S
C278 C274 1.368 1_565 S
C278 C277 1.523 . S
H279 C254 0.950 . S
H280 C256 0.950 1_565 S
H281 C257 0.949 . S
H282 C259 0.950 . S
H283 C261 0.950 1_545 S
C284 C285 1.349 . S
C284 C286 1.327 . S
C284 H309 0.950 . S
C285 C284 1.349 . S
C285 C301 1.349 . S
C286 C284 1.327 . S
C286 C305 1.429 . S
C286 H310 0.950 . S
C287 C304 1.574 1_554 S
C287 C306 1.368 . S
C287 H311 0.949 . S
H288 C292 0.949 . S
C289 C290 1.349 . S
C289 C291 1.327 . S
C289 H312 0.950 . S
C290 C289 1.349 . S
C290 C302 1.349 . S
C291 C289 1.327 . S
C291 C307 1.429 . S
C291 H313 0.950 . S
C292 H288 0.949 . S
C292 C300 1.574 1_556 S
C292 C308 1.368 . S
H293 C301 0.950 . S
H294 C299 0.950 . S
H295 C300 0.949 . S
H296 C302 0.950 . S
H297 C303 0.950 . S
H298 C304 0.949 . S
C299 H294 0.950 . S
C299 C301 1.327 . S
C299 C305 1.429 . S
C300 C292 1.574 1_554 S
C300 H295 0.949 . S
C300 C306 1.368 1_455 S
C301 C285 1.349 . S
C301 H293 0.950 . S
C301 C299 1.327 . S
C302 C290 1.349 . S
C302 H296 0.950 . S
C302 C303 1.327 . S
C303 H297 0.950 . S
C303 C302 1.327 . S
C303 C307 1.429 . S
C304 C287 1.574 1_556 S
C304 H298 0.949 . S
C304 C308 1.368 1_655 S
C305 C286 1.429 . S
C305 C299 1.429 . S
C305 C306 1.523 . S
C306 C287 1.368 . S
C306 C300 1.368 1_655 S
C306 C305 1.523 . S
C307 C291 1.429 . S
C307 C303 1.429 . S
C307 C308 1.523 . S
C308 C292 1.368 . S
C308 C304 1.368 1_455 S
C308 C307 1.523 . S
H309 C284 0.950 . S
H310 C286 0.950 . S
H311 C287 0.949 . S
H312 C289 0.950 . S
H313 C291 0.950 . S
C314 C315 1.349 . S
C314 C316 1.327 . S
C314 H339 0.950 . S
C315 C314 1.349 . S
C315 C331 1.349 . S
C316 C314 1.327 . S
C316 C335 1.429 . S
C316 H340 0.950 . S
C317 C334 1.574 . S
C317 C336 1.368 1_565 S
C317 H341 0.949 . S
H318 C322 0.949 . S
C319 C320 1.349 . S
C319 C321 1.327 . S
C319 H342 0.950 . S
C320 C319 1.349 . S
C320 C332 1.349 . S
C321 C319 1.327 . S
C321 C337 1.429 . S
C321 H343 0.950 . S
C322 H318 0.949 . S
C322 C330 1.574 . S
C322 C338 1.368 1_545 S
H323 C331 0.950 . S
H324 C329 0.950 1_565 S
H325 C330 0.949 . S
H326 C332 0.950 . S
H327 C333 0.950 1_545 S
H328 C334 0.949 . S
C329 H324 0.950 1_545 S
C329 C331 1.327 . S
C329 C335 1.429 . S
C330 C322 1.574 . S
C330 H325 0.949 . S
C330 C336 1.368 . S
C331 C315 1.349 . S
C331 H323 0.950 . S
C331 C329 1.327 . S
C332 C320 1.349 . S
C332 H326 0.950 . S
C332 C333 1.327 . S
C333 H327 0.950 1_565 S
C333 C332 1.327 . S
C333 C337 1.429 . S
C334 C317 1.574 . S
C334 H328 0.949 . S
C334 C338 1.368 . S
C335 C316 1.429 . S
C335 C329 1.429 . S
C335 C336 1.523 . S
C336 C317 1.368 1_545 S
C336 C330 1.368 . S
C336 C335 1.523 . S
C337 C321 1.429 . S
C337 C333 1.429 . S
C337 C338 1.523 . S
C338 C322 1.368 1_565 S
C338 C334 1.368 . S
C338 C337 1.523 . S
H339 C314 0.950 . S
H340 C316 0.950 . S
H341 C317 0.949 . S
H342 C319 0.950 . S
H343 C321 0.950 . S
C344 C345 1.349 . S
C344 C346 1.327 . S
C344 H369 0.950 . S
C345 C344 1.349 . S
C345 C361 1.349 . S
C346 C344 1.327 . S
C346 C365 1.429 . S
C346 H370 0.950 . S
C347 C364 1.574 . S
C347 C366 1.368 . S
C347 H371 0.949 . S
H348 C352 0.949 . S
C349 C350 1.349 . S
C349 C351 1.327 . S
C349 H372 0.950 . S
C350 C349 1.349 . S
C350 C362 1.349 . S
C351 C349 1.327 . S
C351 C367 1.429 . S
C351 H373 0.950 . S
C352 H348 0.949 . S
C352 C360 1.574 . S
C352 C368 1.368 . S
H353 C361 0.950 . S
H354 C359 0.950 . S
H355 C360 0.949 . S
H356 C362 0.950 . S
H357 C363 0.950 . S
H358 C364 0.949 . S
C359 H354 0.950 . S
C359 C361 1.327 . S
C359 C365 1.429 . S
C360 C352 1.574 . S
C360 H355 0.949 . S
C360 C366 1.368 . S
C361 C345 1.349 . S
C361 H353 0.950 . S
C361 C359 1.327 . S
C362 C350 1.349 . S
C362 H356 0.950 . S
C362 C363 1.327 . S
C363 H357 0.950 . S
C363 C362 1.327 . S
C363 C367 1.429 . S
C364 C347 1.574 . S
C364 H358 0.949 . S
C364 C368 1.368 . S
C365 C346 1.429 . S
C365 C359 1.429 . S
C365 C366 1.523 . S
C366 C347 1.368 . S
C366 C360 1.368 . S
C366 C365 1.523 . S
C367 C351 1.429 . S
C367 C363 1.429 . S
C367 C368 1.523 . S
C368 C352 1.368 . S
C368 C364 1.368 . S
C368 C367 1.523 . S
H369 C344 0.950 . S
H370 C346 0.950 . S
H371 C347 0.949 . S
H372 C349 0.950 . S
H373 C351 0.950 . S
C374 C375 1.349 . S
C374 C376 1.327 . S
C374 H399 0.950 . S
C375 C374 1.349 . S
C375 C391 1.349 . S
C376 C374 1.327 . S
C376 C395 1.429 . S
C376 H400 0.950 . S
C377 C394 1.574 . S
C377 C396 1.368 . S
C377 H401 0.949 . S
H378 C382 0.949 . S
C379 C380 1.349 . S
C379 C381 1.327 . S
C379 H402 0.950 . S
C380 C379 1.349 . S
C380 C392 1.349 . S
C381 C379 1.327 . S
C381 C397 1.429 . S
C381 H403 0.950 . S
C382 H378 0.949 . S
C382 C390 1.574 . S
C382 C398 1.368 . S
H383 C391 0.950 . S
H384 C389 0.950 . S
H385 C390 0.949 . S
H386 C392 0.950 . S
H387 C393 0.950 . S
H388 C394 0.949 . S
C389 H384 0.950 . S
C389 C391 1.327 . S
C389 C395 1.429 . S
C390 C382 1.574 . S
C390 H385 0.949 . S
C390 C396 1.368 . S
C391 C375 1.349 . S
C391 H383 0.950 . S
C391 C389 1.327 . S
C392 C380 1.349 . S
C392 H386 0.950 . S
C392 C393 1.327 . S
C393 H387 0.950 . S
C393 C392 1.327 . S
C393 C397 1.429 . S
C394 C377 1.574 . S
C394 H388 0.949 . S
C394 C398 1.368 . S
C395 C376 1.429 . S
C395 C389 1.429 . S
C395 C396 1.523 . S
C396 C377 1.368 . S
C396 C390 1.368 . S
C396 C395 1.523 . S
C397 C381 1.429 . S
C397 C393 1.429 . S
C397 C398 1.523 . S
C398 C382 1.368 . S
C398 C394 1.368 . S
C398 C397 1.523 . S
H399 C374 0.950 . S
H400 C376 0.950 . S
H401 C377 0.949 . S
H402 C379 0.950 . S
H403 C381 0.950 . S
C404 C405 1.349 . S
C404 C406 1.327 . S
C404 H429 0.950 . S
C405 C404 1.349 . S
C405 C421 1.349 . S
C406 C404 1.327 . S
C406 C425 1.429 . S
C406 H430 0.950 . S
C407 C424 1.574 . S
C407 C426 1.368 . S
C407 H431 0.949 . S
H408 C412 0.949 . S
C409 C410 1.349 . S
C409 C411 1.327 . S
C409 H432 0.950 . S
C410 C409 1.349 . S
C410 C422 1.349 . S
C411 C409 1.327 . S
C411 C427 1.429 . S
C411 H433 0.950 . S
C412 H408 0.949 . S
C412 C420 1.574 . S
C412 C428 1.368 . S
H413 C421 0.950 . S
H414 C419 0.950 . S
H415 C420 0.949 . S
H416 C422 0.950 . S
H417 C423 0.950 . S
H418 C424 0.949 . S
C419 H414 0.950 . S
C419 C421 1.327 . S
C419 C425 1.429 . S
C420 C412 1.574 . S
C420 H415 0.949 . S
C420 C426 1.368 . S
C421 C405 1.349 . S
C421 H413 0.950 . S
C421 C419 1.327 . S
C422 C410 1.349 . S
C422 H416 0.950 . S
C422 C423 1.327 . S
C423 H417 0.950 . S
C423 C422 1.327 . S
C423 C427 1.429 . S
C424 C407 1.574 . S
C424 H418 0.949 . S
C424 C428 1.368 . S
C425 C406 1.429 . S
C425 C419 1.429 . S
C425 C426 1.523 . S
C426 C407 1.368 . S
C426 C420 1.368 . S
C426 C425 1.523 . S
C427 C411 1.429 . S
C427 C423 1.429 . S
C427 C428 1.523 . S
C428 C412 1.368 . S
C428 C424 1.368 . S
C428 C427 1.523 . S
H429 C404 0.950 . S
H430 C406 0.950 . S
H431 C407 0.949 . S
H432 C409 0.950 . S
H433 C411 0.950 . S
C434 C435 1.349 . S
C434 C436 1.327 . S
C434 H459 0.950 . S
C435 C434 1.349 . S
C435 C451 1.349 . S
C436 C434 1.327 . S
C436 C455 1.429 . S
C436 H460 0.950 . S
C437 C454 1.574 . S
C437 C456 1.368 . S
C437 H461 0.949 . S
H438 C442 0.949 . S
C439 C440 1.349 . S
C439 C441 1.327 . S
C439 H462 0.950 . S
C440 C439 1.349 . S
C440 C452 1.349 . S
C441 C439 1.327 . S
C441 C457 1.429 . S
C441 H463 0.950 . S
C442 H438 0.949 . S
C442 C450 1.574 . S
C442 C458 1.368 . S
H443 C451 0.950 . S
H444 C449 0.950 . S
H445 C450 0.949 . S
H446 C452 0.950 . S
H447 C453 0.950 . S
H448 C454 0.949 . S
C449 H444 0.950 . S
C449 C451 1.327 . S
C449 C455 1.429 . S
C450 C442 1.574 . S
C450 H445 0.949 . S
C450 C456 1.368 . S
C451 C435 1.349 . S
C451 H443 0.950 . S
C451 C449 1.327 . S
C452 C440 1.349 . S
C452 H446 0.950 . S
C452 C453 1.327 . S
C453 H447 0.950 . S
C453 C452 1.327 . S
C453 C457 1.429 . S
C454 C437 1.574 . S
C454 H448 0.949 . S
C454 C458 1.368 . S
C455 C436 1.429 . S
C455 C449 1.429 . S
C455 C456 1.523 . S
C456 C437 1.368 . S
C456 C450 1.368 . S
C456 C455 1.523 . S
C457 C441 1.429 . S
C457 C453 1.429 . S
C457 C458 1.523 . S
C458 C442 1.368 . S
C458 C454 1.368 . S
C458 C457 1.523 . S
H459 C434 0.950 . S
H460 C436 0.950 . S
H461 C437 0.949 . S
H462 C439 0.950 . S
H463 C441 0.950 . S
C464 C465 1.349 . S
C464 C466 1.327 . S
C464 H489 0.950 . S
C465 C464 1.349 . S
C465 C481 1.349 . S
C466 C464 1.327 . S
C466 C485 1.429 . S
C466 H490 0.950 . S
C467 C484 1.574 1_545 S
C467 C486 1.368 1_655 S
C467 H491 0.949 . S
H468 C472 0.949 . S
C469 C470 1.349 . S
C469 C471 1.327 . S
C469 H492 0.950 . S
C470 C469 1.349 . S
C470 C482 1.349 . S
C471 C469 1.327 . S
C471 C487 1.429 . S
C471 H493 0.950 . S
C472 H468 0.949 . S
C472 C480 1.574 1_565 S
C472 C488 1.368 1_455 S
H473 C481 0.950 1_655 S
H474 C479 0.950 . S
H475 C480 0.949 . S
H476 C482 0.950 1_455 S
H477 C483 0.950 . S
H478 C484 0.949 . S
C479 H474 0.950 . S
C479 C481 1.327 1_655 S
C479 C485 1.428 1_655 S
C480 C472 1.574 1_545 S
C480 H475 0.949 . S
C480 C486 1.368 . S
C481 C465 1.349 . S
C481 H473 0.950 1_455 S
C481 C479 1.327 1_455 S
C482 C470 1.349 . S
C482 H476 0.950 1_655 S
C482 C483 1.327 1_655 S
C483 H477 0.950 . S
C483 C482 1.327 1_455 S
C483 C487 1.428 1_455 S
C484 C467 1.574 1_565 S
C484 H478 0.949 . S
C484 C488 1.368 . S
C485 C466 1.429 . S
C485 C479 1.428 1_455 S
C485 C486 1.523 . S
C486 C467 1.368 1_455 S
C486 C480 1.368 . S
C486 C485 1.523 . S
C487 C471 1.429 . S
C487 C483 1.428 1_655 S
C487 C488 1.523 . S
C488 C472 1.368 1_655 S
C488 C484 1.368 . S
C488 C487 1.523 . S
H489 C464 0.950 . S
H490 C466 0.950 . S
H491 C467 0.949 . S
H492 C469 0.950 . S
H493 C471 0.950 . S
C494 C495 1.349 . S
C494 C496 1.327 . S
C494 H519 0.950 . S
C495 C494 1.349 . S
C495 C511 1.349 . S
C496 C494 1.327 . S
C496 C515 1.429 . S
C496 H520 0.950 . S
C497 C514 1.574 1_455 S
C497 C516 1.368 1_545 S
C497 H521 0.949 . S
H498 C502 0.949 . S
C499 C500 1.349 . S
C499 C501 1.327 . S
C499 H522 0.950 . S
C500 C499 1.349 . S
C500 C512 1.349 . S
C501 C499 1.327 . S
C501 C517 1.429 . S
C501 H523 0.950 . S
C502 H498 0.949 . S
C502 C510 1.574 1_655 S
C502 C518 1.368 1_565 S
H503 C511 0.950 1_545 S
H504 C509 0.950 . S
H505 C510 0.949 . S
H506 C512 0.950 1_565 S
H507 C513 0.950 . S
H508 C514 0.949 . S
C509 H504 0.950 . S
C509 C511 1.327 1_545 S
C509 C515 1.428 1_545 S
C510 C502 1.574 1_455 S
C510 H505 0.949 . S
C510 C516 1.368 . S
C511 C495 1.349 . S
C511 H503 0.950 1_565 S
C511 C509 1.327 1_565 S
C512 C500 1.349 . S
C512 H506 0.950 1_545 S
C512 C513 1.327 1_545 S
C513 H507 0.950 . S
C513 C512 1.327 1_565 S
C513 C517 1.428 1_565 S
C514 C497 1.574 1_655 S
C514 H508 0.949 . S
C514 C518 1.368 . S
C515 C496 1.429 . S
C515 C509 1.428 1_565 S
C515 C516 1.523 . S
C516 C497 1.368 1_565 S
C516 C510 1.368 . S
C516 C515 1.523 . S
C517 C501 1.429 . S
C517 C513 1.428 1_545 S
C517 C518 1.523 . S
C518 C502 1.368 1_545 S
C518 C514 1.368 . S
C518 C517 1.523 . S
H519 C494 0.950 . S
H520 C496 0.950 . S
H521 C497 0.949 . S
H522 C499 0.950 . S
H523 C501 0.950 . S
C524 C525 1.349 . S
C524 C526 1.327 . S
C524 H549 0.950 . S
C525 C524 1.349 . S
C525 C541 1.349 . S
C526 C524 1.327 . S
C526 C545 1.429 . S
C526 H550 0.950 . S
C527 C544 1.574 1_545 S
C527 C546 1.368 1_455 S
C527 H551 0.949 . S
H528 C532 0.949 . S
C529 C530 1.349 . S
C529 C531 1.327 . S
C529 H552 0.950 . S
C530 C529 1.349 . S
C530 C542 1.349 . S
C531 C529 1.327 . S
C531 C547 1.429 . S
C531 H553 0.950 . S
C532 H528 0.949 . S
C532 C540 1.574 1_565 S
C532 C548 1.368 1_655 S
H533 C541 0.950 1_455 S
H534 C539 0.950 . S
H535 C540 0.949 . S
H536 C542 0.950 1_655 S
H537 C543 0.950 . S
H538 C544 0.949 . S
C539 H534 0.950 . S
C539 C541 1.327 1_455 S
C539 C545 1.428 1_455 S
C540 C532 1.574 1_545 S
C540 H535 0.949 . S
C540 C546 1.368 . S
C541 C525 1.349 . S
C541 H533 0.950 1_655 S
C541 C539 1.327 1_655 S
C542 C530 1.349 . S
C542 H536 0.950 1_455 S
C542 C543 1.327 1_455 S
C543 H537 0.950 . S
C543 C542 1.327 1_655 S
C543 C547 1.428 1_655 S
C544 C527 1.574 1_565 S
C544 H538 0.949 . S
C544 C548 1.368 . S
C545 C526 1.429 . S
C545 C539 1.428 1_655 S
C545 C546 1.523 . S
C546 C527 1.368 1_655 S
C546 C540 1.368 . S
C546 C545 1.523 . S
C547 C531 1.429 . S
C547 C543 1.428 1_455 S
C547 C548 1.523 . S
C548 C532 1.368 1_455 S
C548 C544 1.368 . S
C548 C547 1.523 . S
H549 C524 0.950 . S
H550 C526 0.950 . S
H551 C527 0.949 . S
H552 C529 0.950 . S
H553 C531 0.950 . S
C554 C555 1.349 . S
C554 C556 1.327 1_565 S
C554 H579 0.950 1_565 S
C555 C554 1.349 . S
C555 C571 1.349 . S
C556 C554 1.327 1_545 S
C556 C575 1.428 1_545 S
C556 H580 0.950 . S
C557 C574 1.574 1_655 S
C557 C576 1.368 . S
C557 H581 0.949 . S
H558 C562 0.949 . S
C559 C560 1.349 . S
C559 C561 1.327 1_545 S
C559 H582 0.950 1_545 S
C560 C559 1.349 . S
C560 C572 1.349 . S
C561 C559 1.327 1_565 S
C561 C577 1.428 1_565 S
C561 H583 0.950 . S
C562 H558 0.949 . S
C562 C570 1.574 1_455 S
C562 C578 1.368 . S
H563 C571 0.950 . S
H564 C569 0.950 . S
H565 C570 0.949 . S
H566 C572 0.950 . S
H567 C573 0.950 . S
H568 C574 0.949 . S
C569 H564 0.950 . S
C569 C571 1.327 . S
C569 C575 1.429 . S
C570 C562 1.574 1_655 S
C570 H565 0.949 . S
C570 C576 1.368 1_545 S
C571 C555 1.349 . S
C571 H563 0.950 . S
C571 C569 1.327 . S
C572 C560 1.349 . S
C572 H566 0.950 . S
C572 C573 1.327 . S
C573 H567 0.950 . S
C573 C572 1.327 . S
C573 C577 1.429 . S
C574 C557 1.574 1_455 S
C574 H568 0.949 . S
C574 C578 1.368 1_565 S
C575 C556 1.428 1_565 S
C575 C569 1.429 . S
C575 C576 1.523 . S
C576 C557 1.368 . S
C576 C570 1.368 1_565 S
C576 C575 1.523 . S
C577 C561 1.428 1_545 S
C577 C573 1.429 . S
C577 C578 1.523 . S
C578 C562 1.368 . S
C578 C574 1.368 1_545 S
C578 C577 1.523 . S
H579 C554 0.950 1_545 S
H580 C556 0.950 . S
H581 C557 0.949 . S
H582 C559 0.950 1_565 S
H583 C561 0.950 . S
C105 C4 1.274 . S
C110 C30 1.274 . S
C135 C49 1.274 . S
C140 C17 1.274 . S
C165 C82 1.274 . S
C170 C56 1.274 . S
C195 C69 1.274 . S
C200 C95 1.274 . S
C225 C88 1.463 . S
C230 C10 1.463 . S
C255 C23 1.463 . S
C260 C101 1.463 . S
C285 C36 1.463 . S
C290 C62 1.463 . S
C315 C75 1.463 . S
C320 C43 1.463 . S
C345 C3 1.286 . S
C350 C68 1.286 . S
C375 C81 1.287 . S
C380 C16 1.287 . S
C405 C94 1.286 . S
C410 C29 1.286 . S
C435 C44 1.286 . S
C440 C55 1.286 . S
C465 C5 1.027 . S
C470 C31 1.027 . S
C495 C42 1.027 . S
C500 C18 1.027 . S
C525 C83 1.027 . S
C530 C57 1.027 . S
C555 C96 1.027 . S
C560 C70 1.027 . S
