# Generated by pormake.
# Topology wkb, (5)-cn, num edge types: 1
# Building blocks:
#     Node 0, Type 0, BuildingBlock: BEQFEK_clean_sbu_0, # of connection points: 5
#     Node 1, Type 0, BuildingBlock: BEQFEK_clean_sbu_0, # of connection points: 5
#     Node 2, Type 0, BuildingBlock: BEQFEK_clean_sbu_0, # of connection points: 5
#     Node 3, Type 0, BuildingBlock: BEQFEK_clean_sbu_0, # of connection points: 5
#     Node 4, Type 0, BuildingBlock: BEQFEK_clean_sbu_0, # of connection points: 5
#     Node 5, Type 0, BuildingBlock: BEQFEK_clean_sbu_0, # of connection points: 5
#     Node 6, Type 0, BuildingBlock: BEQFEK_clean_sbu_0, # of connection points: 5
#     Node 7, Type 0, BuildingBlock: BEQFEK_clean_sbu_0, # of connection points: 5
#     Node 8, Type 0, BuildingBlock: BEQFEK_clean_sbu_0, # of connection points: 5
#     Node 9, Type 0, BuildingBlock: BEQFEK_clean_sbu_0, # of connection points: 5
#     Node 10, Type 0, BuildingBlock: BEQFEK_clean_sbu_0, # of connection points: 5
#     Node 11, Type 0, BuildingBlock: BEQFEK_clean_sbu_0, # of connection points: 5
#     Edge 12, Type (0, 0), BuildingBlock: EYOCIG_clean_linker_4, # of connection points: 2
#     Edge 13, Type (0, 0), BuildingBlock: EYOCIG_clean_linker_4, # of connection points: 2
#     Edge 14, Type (0, 0), BuildingBlock: EYOCIG_clean_linker_4, # of connection points: 2
#     Edge 15, Type (0, 0), BuildingBlock: EYOCIG_clean_linker_4, # of connection points: 2
#     Edge 16, Type (0, 0), BuildingBlock: EYOCIG_clean_linker_4, # of connection points: 2
#     Edge 17, Type (0, 0), BuildingBlock: EYOCIG_clean_linker_4, # of connection points: 2
#     Edge 18, Type (0, 0), BuildingBlock: EYOCIG_clean_linker_4, # of connection points: 2
#     Edge 19, Type (0, 0), BuildingBlock: EYOCIG_clean_linker_4, # of connection points: 2
#     Edge 20, Type (0, 0), BuildingBlock: EYOCIG_clean_linker_4, # of connection points: 2
#     Edge 21, Type (0, 0), BuildingBlock: EYOCIG_clean_linker_4, # of connection points: 2
#     Edge 22, Type (0, 0), BuildingBlock: EYOCIG_clean_linker_4, # of connection points: 2
#     Edge 23, Type (0, 0), BuildingBlock: EYOCIG_clean_linker_4, # of connection points: 2
#     Edge 24, Type (0, 0), BuildingBlock: EYOCIG_clean_linker_4, # of connection points: 2
#     Edge 25, Type (0, 0), BuildingBlock: EYOCIG_clean_linker_4, # of connection points: 2
#     Edge 26, Type (0, 0), BuildingBlock: EYOCIG_clean_linker_4, # of connection points: 2
#     Edge 27, Type (0, 0), BuildingBlock: EYOCIG_clean_linker_4, # of connection points: 2
#     Edge 28, Type (0, 0), BuildingBlock: EYOCIG_clean_linker_4, # of connection points: 2
#     Edge 29, Type (0, 0), BuildingBlock: EYOCIG_clean_linker_4, # of connection points: 2
#     Edge 30, Type (0, 0), BuildingBlock: EYOCIG_clean_linker_4, # of connection points: 2
#     Edge 31, Type (0, 0), BuildingBlock: EYOCIG_clean_linker_4, # of connection points: 2
#     Edge 32, Type (0, 0), BuildingBlock: EYOCIG_clean_linker_4, # of connection points: 2
#     Edge 33, Type (0, 0), BuildingBlock: EYOCIG_clean_linker_4, # of connection points: 2
#     Edge 34, Type (0, 0), BuildingBlock: EYOCIG_clean_linker_4, # of connection points: 2
#     Edge 35, Type (0, 0), BuildingBlock: EYOCIG_clean_linker_4, # of connection points: 2
#     Edge 36, Type (0, 0), BuildingBlock: EYOCIG_clean_linker_4, # of connection points: 2
#     Edge 37, Type (0, 0), BuildingBlock: EYOCIG_clean_linker_4, # of connection points: 2
#     Edge 38, Type (0, 0), BuildingBlock: EYOCIG_clean_linker_4, # of connection points: 2
#     Edge 39, Type (0, 0), BuildingBlock: EYOCIG_clean_linker_4, # of connection points: 2
#     Edge 40, Type (0, 0), BuildingBlock: EYOCIG_clean_linker_4, # of connection points: 2
#     Edge 41, Type (0, 0), BuildingBlock: EYOCIG_clean_linker_4, # of connection points: 2
# Relax obj value: 0.137
# Max RMSD: 0.139
# Mean RMSD: 0.139
data_MOF--net-wkb--node1-BEQFEK_clean_sbu_0--edge1-EYOCIG_clean_linker_4
_symmetry_space_group_name_H-M    P1
_symmetry_Int_Tables_number       1
_symmetry_cell_setting            triclinic
loop_
_symmetry_equiv_pos_as_xyz
'x, y, z'
_cell_length_a     33.843447
_cell_length_b     33.837685
_cell_length_c     36.320424
_cell_angle_alpha  90.012393
_cell_angle_beta   89.992586
_cell_angle_gamma 119.96812
loop_
_atom_site_label
_atom_site_type_symbol
_atom_site_fract_x
_atom_site_fract_y
_atom_site_fract_z
_atom_type_partial_charge
Co0 Co 0.09992 0.40694 0.97362 0.0
Co1 Co 0.14734 0.40713 0.04809 0.0
C2 C 1.04931 0.34083 0.0359 0.0
O3 O 1.0502 0.3564 0.00367 0.0
O4 O 0.08467 0.35652 0.05612 0.0
C5 C 0.06021 0.36735 0.90376 0.0
O6 O 1.05058 0.3289 0.91997 0.0
C7 C 0.17779 0.38913 0.11897 0.0
C8 C 0.24655 0.45001 0.1234 0.0
C9 C 0.2154 0.41103 0.14169 0.0
N10 N 0.18627 0.41417 0.08821 0.0
N11 N 0.22747 0.4504 0.09101 0.0
C12 C 0.13362 0.3468 0.12711 0.0
H13 H 0.10655 0.35586 0.13081 0.0
H14 H 0.12385 0.32308 0.10337 0.0
H15 H 0.13598 0.32966 0.15239 0.0
C16 C 0.17783 0.39773 0.94437 0.0
N17 N 0.15391 0.40205 0.97236 0.0
N18 N 0.17192 0.39927 0.0037 0.0
C19 C 0.20655 0.39137 -0.00339 0.0
C20 C 0.21128 0.39021 0.95885 0.0
C21 C 0.16974 0.40137 0.90436 0.0
H22 H 0.15907 0.42711 0.90007 0.0
H23 H 0.14265 0.36769 0.89431 0.0
H24 H 0.20104 0.41119 0.88804 0.0
O25 O 0.11215 0.466 -0.00441 0.0
O26 O 0.14462 0.464 0.0482 0.0
H27 H 0.26003 0.4175 0.03641 0.0
H28 H 0.25144 0.36657 0.01364 0.0
C29 C 0.23384 0.38397 0.02535 0.0
H30 H 0.21137 0.36336 0.0483 0.0
H31 H 0.24208 0.47603 0.07114 0.0
O32 O 0.07916 0.40435 0.92194 0.0
C33 C 0.13001 0.48326 0.02657 0.0
Co34 Co 0.73136 0.08072 0.14022 0.0
Co35 Co 0.77849 0.12833 0.21465 0.0
C36 C 0.74691 1.03027 0.20264 0.0
O37 O 0.73225 1.03107 0.17039 0.0
O38 O 0.76652 0.06569 0.22281 0.0
C39 C 0.73142 0.04109 0.07031 0.0
O40 O 0.76037 1.03161 0.08648 0.0
C41 C 0.82694 0.15908 0.28549 0.0
C42 C 0.83472 0.22785 0.28973 0.0
C43 C 0.84263 0.19679 0.30811 0.0
N44 N 0.81033 0.16742 0.25471 0.0
N45 N 0.81523 0.20862 0.25739 0.0
C46 C 0.82519 0.11495 0.29375 0.0
H47 H 0.78911 0.08787 0.29749 0.0
H48 H 0.83914 0.10512 0.27005 0.0
H49 H 0.84472 0.11743 0.31904 0.0
C50 C 0.81837 0.15864 0.11094 0.0
N51 N 0.79016 0.13475 0.13892 0.0
N52 N 0.81092 0.15279 0.17026 0.0
C53 C 0.85342 0.1874 0.16317 0.0
C54 C 0.85932 0.19208 0.12541 0.0
C55 C 0.80665 0.15057 0.07093 0.0
H56 H 0.77023 0.1398 0.06664 0.0
H57 H 0.81338 0.12357 0.06083 0.0
H58 H 0.82803 0.18192 0.05463 0.0
O59 O 0.68448 0.09294 0.1621 0.0
O60 O 0.7189 0.12557 0.21468 0.0
H61 H 0.88081 0.24096 0.20293 0.0
H62 H 0.92309 0.23223 0.18021 0.0
C63 C 0.88811 0.2147 0.19191 0.0
H64 H 0.88621 0.19224 0.21489 0.0
H65 H 0.80417 0.22314 0.23746 0.0
O66 O 0.71323 0.05988 0.08853 0.0
C67 C 0.68504 0.11088 0.19304 0.0
Co68 Co 0.68877 0.7121 0.30683 0.0
Co69 Co 0.68812 0.75895 0.38137 0.0
C70 C 0.75445 0.72714 0.36936 0.0
O71 O 0.7391 0.71265 0.33705 0.0
O72 O 0.73862 0.74673 0.38956 0.0
C73 C 0.7287 0.71225 0.23704 0.0
O74 O 0.76708 0.74093 0.25337 0.0
C75 C 0.70553 0.80676 0.45251 0.0
C76 C 0.6448 0.81498 0.45665 0.0
C77 C 0.68351 0.82242 0.47518 0.0
N78 N 0.68082 0.79062 0.42156 0.0
N79 N 0.64468 0.79578 0.42419 0.0
C80 C 0.74765 0.80457 0.46088 0.0
H81 H 0.73841 0.76837 0.46429 0.0
H82 H 0.77168 0.81875 0.43735 0.0
H83 H 0.7645 0.82369 0.48637 0.0
C84 C 0.69825 0.7994 0.27778 0.0
N85 N 0.69374 0.77102 0.3057 0.0
N86 N 0.69634 0.79166 0.33709 0.0
C87 C 0.70432 0.83423 0.3301 0.0
C88 C 0.70572 0.84031 0.29235 0.0
C89 C 0.69481 0.78786 0.23774 0.0
H90 H 0.66908 0.7515 0.23331 0.0
H91 H 0.72853 0.79445 0.22778 0.0
H92 H 0.68508 0.80944 0.22143 0.0
O93 O 0.62953 0.66525 0.32847 0.0
O94 O 0.6312 0.69947 0.38114 0.0
H95 H 0.67796 0.86153 0.36979 0.0
H96 H 0.72915 0.90385 0.34735 0.0
C97 C 0.71156 0.8688 0.35893 0.0
H98 H 0.73191 0.8667 0.38199 0.0
H99 H 0.61928 0.78507 0.40414 0.0
O100 O 0.69163 0.69417 0.25512 0.0
C101 C 0.61205 0.66574 0.35937 0.0
Co102 Co 1.01499 0.66981 0.47358 0.0
Co103 Co 0.96738 0.66897 0.5481 0.0
C104 C 0.06536 0.73556 0.53616 0.0
O105 O 0.06458 0.72023 0.50385 0.0
O106 O 1.02995 0.71964 0.55634 0.0
C107 C 1.05451 0.70991 0.4038 0.0
O108 O 0.06378 0.74819 0.42012 0.0
C109 C 0.93667 0.68617 0.61917 0.0
C110 C 0.86795 0.62518 0.62328 0.0
C111 C 0.89901 0.66399 0.6418 0.0
N112 N 0.9283 0.66145 0.58824 0.0
N113 N 0.88713 0.62515 0.59084 0.0
C114 C 0.98079 0.72846 0.62756 0.0
H115 H 1.00791 0.71943 0.63106 0.0
H116 H 0.99055 0.75243 0.604 0.0
H117 H 0.97835 0.74529 0.65301 0.0
C118 C 0.93688 0.67879 0.4445 0.0
N119 N 0.96087 0.67448 0.47242 0.0
N120 N 0.9428 0.67705 0.5038 0.0
C121 C 0.90808 0.68482 0.49681 0.0
C122 C 0.90334 0.68611 0.45906 0.0
C123 C 0.94493 0.67525 0.40446 0.0
H124 H 0.95586 0.64972 0.40009 0.0
H125 H 0.9718 0.70902 0.39439 0.0
H126 H 0.91353 0.66519 0.38821 0.0
O127 O 1.00288 0.61063 0.49519 0.0
O128 O 0.97026 0.6122 0.54786 0.0
H129 H 0.85447 0.65832 0.53651 0.0
H130 H 0.86308 0.70942 0.51404 0.0
C131 C 0.88067 0.69195 0.52562 0.0
H132 H 0.90306 0.71239 0.54868 0.0
H133 H 0.87261 0.59972 0.5708 0.0
O134 O 1.03587 0.67284 0.42188 0.0
C135 C 0.98497 0.59313 0.5261 0.0
Co136 Co 0.38334 0.99568 0.64027 0.0
Co137 Co 0.33653 0.94833 0.71485 0.0
C138 C 0.36814 0.04636 0.70273 0.0
O139 O 0.38266 0.04545 0.67044 0.0
O140 O 0.34858 1.011 0.72296 0.0
C141 C 0.3831 1.03524 0.57037 0.0
O142 O 0.3543 0.04487 0.58661 0.0
C143 C 0.2888 0.91791 0.78602 0.0
C144 C 0.2807 0.849 0.79009 0.0
C145 C 0.27322 0.88024 0.80866 0.0
N146 N 0.30494 0.90938 0.75504 0.0
N147 N 0.29986 0.8681 0.75763 0.0
C148 C 0.29092 0.96219 0.79443 0.0
H149 H 0.32712 0.98917 0.79779 0.0
H150 H 0.27666 0.97201 0.77095 0.0
H151 H 0.27187 0.95992 0.81997 0.0
C152 C 0.29614 0.91775 0.61126 0.0
N153 N 0.32449 0.94169 0.63916 0.0
N154 N 0.30386 0.92373 0.67056 0.0
C155 C 0.26132 0.88912 0.66359 0.0
C156 C 0.25526 0.88435 0.62584 0.0
C157 C 0.30768 0.92576 0.57121 0.0
H158 H 0.34406 0.93643 0.5668 0.0
H159 H 0.30101 0.95282 0.56119 0.0
H160 H 0.28617 0.89441 0.55495 0.0
O161 O 0.43028 0.98344 0.66198 0.0
O162 O 0.39608 0.95103 0.71468 0.0
H163 H 0.23402 0.83554 0.70332 0.0
H164 H 0.19172 0.84445 0.68085 0.0
C165 C 0.22676 0.86188 0.69242 0.0
H166 H 0.22887 0.88436 0.71547 0.0
H167 H 0.31058 0.85343 0.73755 0.0
O168 O 0.40126 1.01637 0.58853 0.0
C169 C 0.42983 0.96559 0.69293 0.0
Co170 Co 0.42627 0.36458 0.80692 0.0
Co171 Co 0.42684 0.31765 0.88145 0.0
C172 C 0.36031 0.34918 0.86933 0.0
O173 O 0.37576 0.36377 0.83706 0.0
O174 O 0.37615 0.32963 0.88956 0.0
C175 C 0.38663 0.36467 0.73699 0.0
O176 O 0.34815 0.33592 0.75316 0.0
C177 C 0.40952 0.26968 0.95251 0.0
C178 C 0.47049 0.26187 0.95664 0.0
C179 C 0.43168 0.25415 0.97515 0.0
N180 N 0.43425 0.28601 0.92159 0.0
N181 N 0.47054 0.28109 0.92421 0.0
C182 C 0.36723 0.27155 0.96088 0.0
H183 H 0.37626 0.30769 0.9644 0.0
H184 H 0.34329 0.25738 0.93731 0.0
H185 H 0.35039 0.25228 -0.01369 0.0
C186 C 0.41707 0.27741 0.7778 0.0
N187 N 0.4215 0.30574 0.80574 0.0
N188 N 0.41888 0.28508 0.83711 0.0
C189 C 0.41099 0.24255 0.83009 0.0
C190 C 0.40966 0.23651 0.79234 0.0
C191 C 0.42046 0.28897 0.73777 0.0
H192 H 0.4462 0.32533 0.73335 0.0
H193 H 0.38674 0.28241 0.72785 0.0
H194 H 0.43015 0.26738 0.72142 0.0
O195 O 0.48535 0.41151 0.82871 0.0
O196 O 0.4836 0.37724 0.88136 0.0
H197 H 0.4373 0.21529 0.86985 0.0
H198 H 0.38625 0.17293 0.84728 0.0
C199 C 0.40372 0.20796 0.85889 0.0
H200 H 0.38325 0.20996 0.88191 0.0
H201 H 0.49598 0.29198 0.90418 0.0
O202 O 0.42359 0.38264 0.75521 0.0
C203 C 0.50274 0.41103 0.85966 0.0
Co204 Co 0.68875 0.99581 0.8162 0.0
Co205 Co 0.68817 0.94818 0.74174 0.0
C206 C 0.75456 0.04624 0.75367 0.0
O207 O 0.73915 0.04545 0.78595 0.0
O208 O 0.73876 1.01081 0.7335 0.0
C209 C 0.72854 1.03552 0.88606 0.0
O210 O 0.76694 0.04506 0.86983 0.0
C211 C 0.70557 0.91732 0.67079 0.0
C212 C 0.64462 0.84856 0.66672 0.0
C213 C 0.68346 0.87958 0.64821 0.0
N214 N 0.68079 0.90902 0.70167 0.0
N215 N 0.64451 0.86783 0.69909 0.0
C216 C 0.74786 0.96143 0.66241 0.0
H217 H 0.73882 0.98852 0.65875 0.0
H218 H 0.77176 0.97129 0.68602 0.0
H219 H 0.76478 0.95891 0.63704 0.0
C220 C 0.69805 0.91793 0.8454 0.0
N221 N 0.69361 0.94179 0.81744 0.0
N222 N 0.69628 0.92373 0.78609 0.0
C223 C 0.70425 0.88914 0.79314 0.0
C224 C 0.70556 0.88448 0.83089 0.0
C225 C 0.69452 0.92604 0.88543 0.0
H226 H 0.66884 0.93677 0.88979 0.0
H227 H 0.72824 0.95309 0.89545 0.0
H228 H 0.68468 0.89472 0.90174 0.0
O229 O 0.62959 0.98354 0.79445 0.0
O230 O 0.63134 0.95093 0.74184 0.0
H231 H 0.67802 0.83554 0.75341 0.0
H232 H 0.72911 0.84432 0.776 0.0
C233 C 0.71158 0.86181 0.76436 0.0
H234 H 0.73203 0.88426 0.74134 0.0
H235 H 0.61905 0.85334 0.71911 0.0
O236 O 0.69154 1.01667 0.86789 0.0
C237 C 0.61218 0.9656 0.76353 0.0
Co238 Co 0.73146 0.66982 -0.01704 0.0
Co239 Co 0.7784 0.66917 0.90848 0.0
C240 C 0.7469 0.73573 0.92049 0.0
O241 O 0.7323 0.72031 0.95276 0.0
O242 O 0.76647 0.71987 0.90029 0.0
C243 C 0.7317 0.70971 0.0528 0.0
O244 O 0.76061 0.74807 0.03655 0.0
C245 C 0.82634 0.68635 0.83743 0.0
C246 C 0.83434 0.62547 0.83346 0.0
C247 C 0.84195 0.6642 0.81487 0.0
N248 N 0.81006 0.66169 0.86839 0.0
N249 N 0.81509 0.62546 0.86587 0.0
C250 C 0.82432 0.72854 0.82897 0.0
H251 H 0.78816 0.71941 0.8255 0.0
H252 H 0.83852 0.75261 0.85247 0.0
H253 H 0.84349 0.74531 0.80348 0.0
C254 C 0.81854 0.6789 0.01213 0.0
N255 N 0.79026 0.67454 -0.01582 0.0
N256 N 0.81096 0.67719 0.95282 0.0
C257 C 0.85348 0.68508 0.95985 0.0
C258 C 0.85946 0.68636 -0.0024 0.0
C259 C 0.80692 0.67535 0.05216 0.0
H260 H 0.7705 0.64974 0.05651 0.0
H261 H 0.81367 0.7091 0.06222 0.0
H262 H 0.82833 0.66539 0.06844 0.0
O263 O 0.68452 0.61071 0.96122 0.0
O264 O 0.71881 0.61242 0.90859 0.0
H265 H 0.8809 0.65884 0.92016 0.0
H266 H 0.92313 0.71001 0.94269 0.0
C267 C 0.88811 0.69241 0.93107 0.0
H268 H 0.88604 0.7128 0.90802 0.0
H269 H 0.80427 0.60008 0.88594 0.0
O270 O 0.71347 0.67268 0.03465 0.0
C271 C 0.685 0.5933 0.93028 0.0
Co272 Co 0.09992 0.71233 0.14975 0.0
Co273 Co 0.14749 0.75899 0.0752 0.0
C274 C 1.04949 0.72762 0.08717 0.0
O275 O 1.05031 0.71312 0.11949 0.0
O276 O 0.08489 0.74709 0.06697 0.0
C277 C 0.06029 0.71281 0.21954 0.0
O278 O 1.05082 0.74168 0.20322 0.0
C279 C 0.17833 0.80714 0.00423 0.0
C280 C 0.24691 0.81448 1e-05 0.0
C281 C 0.21599 0.82256 -0.01841 0.0
N282 N 0.18658 0.79052 0.03506 0.0
N283 N 0.22766 0.79515 0.03239 0.0
C284 C 0.13435 0.80568 -0.00403 0.0
H285 H 0.10712 0.76965 -0.00776 0.0
H286 H 0.12465 0.81976 0.01967 0.0
H287 H 0.13695 0.82525 0.97067 0.0
C288 C 0.1779 0.79949 0.17878 0.0
N289 N 0.15398 0.77112 0.15087 0.0
N290 N 0.17204 0.79168 0.11948 0.0
C291 C 0.2067 0.83419 0.12644 0.0
C292 C 0.2114 0.84032 0.16418 0.0
C293 C 0.1698 0.78802 0.21883 0.0
H294 H 0.15901 0.75162 0.22328 0.0
H295 H 0.14279 0.79482 0.22878 0.0
H296 H 0.20113 0.80949 0.23511 0.0
O297 O 0.11207 0.66526 0.12814 0.0
O298 O 0.14463 0.69936 0.07546 0.0
H299 H 0.26017 0.86111 0.08661 0.0
H300 H 0.25178 0.90372 0.10916 0.0
C301 C 0.23407 0.86866 0.09759 0.0
H302 H 0.21162 0.86675 0.0746 0.0
H303 H 0.24208 0.78403 0.05235 0.0
O304 O 0.07908 0.69452 0.20146 0.0
C305 C 0.12996 0.66562 0.09723 0.0
Co306 Co 0.42602 0.08067 0.31629 0.0
Co307 Co 0.42676 0.12834 0.24181 0.0
C308 C 0.36022 1.03031 0.25375 0.0
O309 O 0.37559 1.03108 0.28604 0.0
O310 O 0.3761 0.06574 0.23358 0.0
C311 C 0.38607 0.04094 0.38611 0.0
O312 O 0.34771 1.03145 0.36983 0.0
C313 C 0.40954 0.15909 0.17075 0.0
C314 C 0.47042 0.22791 0.16676 0.0
C315 C 0.43168 0.19682 0.14817 0.0
N316 N 0.43422 0.16746 0.20171 0.0
N317 N 0.47045 0.20869 0.19916 0.0
C318 C 0.36735 0.11492 0.1623 0.0
H319 H 0.37646 0.08786 0.15882 0.0
H320 H 0.3433 0.10509 0.18582 0.0
H321 H 0.35056 0.11734 0.13682 0.0
C322 C 0.41692 0.15866 0.34549 0.0
N323 N 0.42129 0.13475 0.31752 0.0
N324 N 0.4187 0.15286 0.28617 0.0
C325 C 0.41087 0.18754 0.29323 0.0
C326 C 0.40956 0.1922 0.33099 0.0
C327 C 0.42038 0.1505 0.38551 0.0
H328 H 0.44601 0.1397 0.38988 0.0
H329 H 0.38663 0.12349 0.3955 0.0
H330 H 0.43025 0.18181 0.40185 0.0
O331 O 0.48517 0.09283 0.29458 0.0
O332 O 0.48353 0.12548 0.24197 0.0
H333 H 0.43728 0.24124 0.25361 0.0
H334 H 0.38614 0.23246 0.2761 0.0
C335 C 0.40368 0.21496 0.26447 0.0
H336 H 0.38329 0.19258 0.24139 0.0
H337 H 0.49584 0.22323 0.21923 0.0
O338 O 0.4231 0.05977 0.36799 0.0
C339 C 0.50263 0.11076 0.26367 0.0
Co340 Co 0.38367 0.4072 0.48285 0.0
Co341 Co 0.33631 0.40714 0.40839 0.0
C342 C 0.36837 0.34105 0.42063 0.0
O343 O 0.38303 0.35667 0.45285 0.0
O344 O 0.3486 0.35665 0.40041 0.0
C345 C 0.38401 0.36779 0.55275 0.0
O346 O 0.35534 0.32929 0.53656 0.0
C347 C 0.28817 0.38906 0.33736 0.0
C348 C 0.2795 0.44952 0.33306 0.0
C349 C 0.27224 0.41079 0.31465 0.0
N350 N 0.30431 0.41397 0.36823 0.0
N351 N 0.29888 0.44995 0.36551 0.0
C352 C 0.29065 0.34707 0.3291 0.0
H353 H 0.3269 0.35651 0.32568 0.0
H354 H 0.27661 0.3231 0.35267 0.0
H355 H 0.27156 0.33005 0.30363 0.0
C356 C 0.2965 0.3978 0.51212 0.0
N357 N 0.32472 0.40215 0.48412 0.0
N358 N 0.30387 0.39924 0.45279 0.0
C359 C 0.26132 0.39121 0.4599 0.0
C360 C 0.25547 0.3901 0.49767 0.0
C361 C 0.30828 0.40156 0.55212 0.0
H362 H 0.34464 0.42738 0.55638 0.0
H363 H 0.30184 0.36793 0.56222 0.0
H364 H 0.28675 0.41133 0.56844 0.0
O365 O 0.43031 0.46627 0.46084 0.0
O366 O 0.39574 0.46413 0.40824 0.0
H367 H 0.23355 0.41707 0.42021 0.0
H368 H 0.19156 0.36594 0.44291 0.0
C369 C 0.22653 0.3836 0.43119 0.0
H370 H 0.2286 0.36315 0.40818 0.0
H371 H 0.30953 0.47545 0.38547 0.0
O372 O 0.40191 0.40477 0.53455 0.0
C373 C 0.42961 0.48349 0.42986 0.0
Co374 Co 1.0147 0.36424 0.64957 0.0
Co375 Co 0.96753 0.31727 0.57498 0.0
C376 C 0.06552 0.34888 0.58734 0.0
O377 O 0.06454 0.36347 0.61959 0.0
O378 O 1.03021 0.3293 0.56705 0.0
C379 C 1.05413 0.36417 0.71954 0.0
O380 O 0.06375 0.33531 0.70337 0.0
C381 C 0.93747 0.26943 0.50383 0.0
C382 C 0.86854 0.26121 0.49948 0.0
C383 C 0.8999 0.25377 0.48107 0.0
N384 N 0.92875 0.28557 0.53473 0.0
N385 N 0.88747 0.28041 0.53198 0.0
C386 C 0.98181 0.27164 0.49559 0.0
H387 H 1.00876 0.30786 0.49226 0.0
H388 H 0.99157 0.25742 0.51914 0.0
H389 H 0.9797 0.25259 0.47009 0.0
C390 C 0.93669 0.27711 0.67859 0.0
N391 N 0.9607 0.3054 0.65068 0.0
N392 N 0.9428 0.2847 0.61929 0.0
C393 C 0.90817 0.24218 0.62628 0.0
C394 C 0.90331 0.23619 0.66403 0.0
C395 C 0.94464 0.28874 0.71863 0.0
H396 H 0.9553 0.32514 0.72297 0.0
H397 H 0.97167 0.28209 0.72874 0.0
H398 H 0.91327 0.26726 0.73487 0.0
O399 O 1.00255 0.41115 0.62765 0.0
O400 O 0.97023 0.37684 0.57496 0.0
H401 H 0.85469 0.21479 0.58646 0.0
H402 H 0.86353 0.17253 0.60908 0.0
C403 C 0.88099 0.20755 0.59746 0.0
H404 H 0.90352 0.20959 0.57448 0.0
H405 H 0.87268 0.29112 0.55196 0.0
O406 O 1.03529 0.38229 0.7013 0.0
C407 C 0.98478 0.41065 0.59666 0.0
C408 C 0.24209 0.39386 0.24646 0.0
C409 C 0.25601 0.39947 0.27757 0.0
C410 C 0.22888 0.39392 0.20976 0.0
C411 C 0.22049 0.39962 0.1787 0.0
C412 C 0.87334 0.2105 0.37615 0.0
C413 C 0.8592 0.20204 0.34511 0.0
C414 C 0.88664 0.22372 0.41284 0.0
C415 C 0.89496 0.23758 0.44397 0.0
C416 C 0.70014 0.85252 0.54339 0.0
C417 C 0.69463 0.83864 0.51228 0.0
C418 C 0.70012 0.86577 0.58009 0.0
C419 C 0.69458 0.87427 0.61117 0.0
C420 C 0.88536 0.68061 0.70998 0.0
C421 C 0.89377 0.67508 0.67888 0.0
C422 C 0.87215 0.68066 0.74668 0.0
C423 C 0.85823 0.67521 0.77778 0.0
C424 C 0.24312 0.86663 0.87688 0.0
C425 C 0.257 0.87508 0.84576 0.0
C426 C 0.22985 0.85326 0.91355 0.0
C427 C 0.22134 0.83913 0.94459 0.0
C428 C 0.41511 0.22387 0.04332 0.0
C429 C 0.42059 0.23782 0.01222 0.0
C430 C 0.41513 0.21059 0.08001 0.0
C431 C 0.42062 0.20211 0.1111 0.0
C432 C 0.13202 0.55679 0.05324 0.0
C433 C 0.13022 0.52345 0.03956 0.0
C434 C 0.13199 0.59399 0.07089 0.0
C435 C 0.13015 0.62556 0.08448 0.0
C436 C 0.57626 0.11282 0.23726 0.0
C437 C 0.54286 0.11098 0.25086 0.0
C438 C 0.61349 0.11287 0.21962 0.0
C439 C 0.64505 0.11107 0.20597 0.0
C440 C 0.53826 0.59427 0.38565 0.0
C441 C 0.57173 0.62579 0.37212 0.0
C442 C 0.501 0.55708 0.40323 0.0
C443 C 0.46949 0.5237 0.41686 0.0
C444 C 0.9829 0.51946 0.55244 0.0
C445 C 0.98476 0.55287 0.53886 0.0
C446 C 0.98283 0.48222 0.57007 0.0
C447 C 0.9846 0.45065 0.58373 0.0
C448 C 0.50138 0.96352 0.71938 0.0
C449 C 0.46983 0.96536 0.70576 0.0
C450 C 0.53858 0.96352 0.73703 0.0
C451 C 0.57196 0.96536 0.75066 0.0
C452 C 0.57628 0.48257 0.88614 0.0
C453 C 0.54293 0.45103 0.87251 0.0
C454 C 0.61347 0.51976 0.90379 0.0
C455 C 0.64501 0.55311 0.91742 0.0
C456 C 1.05711 0.36998 0.79218 0.0
C457 C 1.05563 0.36753 0.75902 0.0
C458 C 1.05711 0.37001 0.83111 0.0
C459 C 0.05864 0.36911 0.86428 0.0
C460 C 0.72582 0.03838 0.95872 0.0
C461 C 0.72676 1.03697 0.92555 0.0
C462 C 0.72576 0.03825 -0.00235 0.0
C463 C 0.72816 0.03966 0.03082 0.0
C464 C 0.72613 0.70701 0.12545 0.0
C465 C 0.72851 0.70797 0.09228 0.0
C466 C 0.72616 0.70688 0.16437 0.0
C467 C 0.72704 0.70916 0.19755 0.0
C468 C 0.05745 0.70743 0.33113 0.0
C469 C 1.056 0.70828 0.3643 0.0
C470 C 1.05735 0.70739 0.29221 0.0
C471 C 0.05879 0.70969 0.25904 0.0
C472 C 0.38866 1.03808 0.4977 0.0
C473 C 0.3863 1.03667 0.53087 0.0
C474 C 0.38864 1.03797 0.45877 0.0
C475 C 0.38776 0.03943 0.4256 0.0
C476 C 0.38966 0.37055 0.62541 0.0
C477 C 0.38729 0.36962 0.59224 0.0
C478 C 0.38954 0.37051 0.66434 0.0
C479 C 0.38849 0.36802 0.6975 0.0
C480 C 0.29896 0.36493 0.90062 0.0
C481 C 0.32684 0.35856 0.88508 0.0
C482 C 0.26839 0.3736 0.92094 0.0
C483 C 0.24263 0.38111 0.93862 0.0
C484 C 0.97221 0.27958 0.06715 0.0
C485 C 1.00646 0.30742 0.05162 0.0
C486 C 0.933 0.24908 0.08749 0.0
C487 C 0.89975 0.22337 0.10518 0.0
C488 C 0.72247 0.9141 0.2545 0.0
C489 C 0.7149 0.88083 0.2722 0.0
C490 C 0.73116 0.95326 0.23409 0.0
C491 C 0.73752 0.98746 0.21846 0.0
C492 C 0.8156 0.71123 0.40079 0.0
C493 C 0.78782 0.71766 0.38516 0.0
C494 C 0.84612 0.70259 0.4212 0.0
C495 C 0.8719 0.69514 0.4389 0.0
C496 C 0.18149 0.82728 0.58802 0.0
C497 C 0.21475 0.85299 0.60571 0.0
C498 C 0.14232 0.79679 0.56763 0.0
C499 C 0.10814 0.76897 0.552 0.0
C500 C 0.39286 0.16271 0.75447 0.0
C501 C 0.40045 0.196 0.77217 0.0
C502 C 0.38409 0.12349 0.73409 0.0
C503 C 0.37764 0.08923 0.7185 0.0
C504 C 0.73109 0.79699 0.88912 0.0
C505 C 0.73749 0.76915 0.9047 0.0
C506 C 0.72236 0.82748 0.86877 0.0
C507 C 0.71477 0.85318 0.85109 0.0
C508 C 0.93323 0.70309 0.03545 0.0
C509 C 0.89995 0.69553 0.01778 0.0
C510 C 0.97245 0.71182 0.05578 0.0
C511 C 1.00668 0.71823 0.07136 0.0
C512 C 0.2685 0.91413 0.20196 0.0
C513 C 0.24276 0.88084 0.1843 0.0
C514 C 0.29899 0.95332 0.22231 0.0
C515 C 0.32682 0.98753 0.23792 0.0
C516 C 0.38431 0.27983 0.38934 0.0
C517 C 0.37788 0.30765 0.40492 0.0
C518 C 0.39298 0.24932 0.36893 0.0
C519 C 0.40047 0.22358 0.35121 0.0
C520 C 0.14264 0.3647 0.55608 0.0
C521 C 0.1084 0.35832 0.57165 0.0
C522 C 0.1818 0.37338 0.53568 0.0
C523 C 0.21504 0.38094 0.51794 0.0
C524 C 0.84621 0.16245 0.70185 0.0
C525 C 0.87195 0.19571 0.68418 0.0
C526 C 0.81572 0.12326 0.72223 0.0
C527 C 0.78793 0.08905 0.73784 0.0
loop_
_geom_bond_atom_site_label_1
_geom_bond_atom_site_label_2
_geom_bond_distance
_geom_bond_site_symmetry_2
_ccdc_geom_bond_type
Co0 O3 1.970 . S
Co0 N17 1.989 . S
Co0 O25 1.967 . S
Co0 O32 1.920 1_554 S
Co1 O4 1.966 . S
Co1 N10 2.022 . S
Co1 N18 1.993 . S
Co1 O26 1.941 . S
C2 O3 1.258 . S
C2 O4 1.263 . S
O3 Co0 1.970 . S
O3 C2 1.258 . S
O4 Co1 1.966 . S
O4 C2 1.263 . S
C5 O6 1.235 . S
C5 O32 1.289 . S
O6 C5 1.235 . S
C7 C9 1.400 . S
C7 N10 1.351 . S
C7 C12 1.501 . S
C8 C9 1.387 . S
C8 N11 1.341 . S
C9 C7 1.400 . S
C9 C8 1.387 . S
N10 Co1 2.022 . S
N10 C7 1.351 . S
N10 N11 1.365 . S
N11 C8 1.341 . S
N11 N10 1.365 . S
N11 H31 0.862 . S
C12 C7 1.501 . S
C12 H13 0.961 . S
C12 H14 0.961 . S
C12 H15 0.960 . S
H13 C12 0.961 . S
H14 C12 0.961 . S
H15 C12 0.960 . S
C16 N17 1.342 1_556 S
C16 C20 1.401 . S
C16 C21 1.499 . S
N17 Co0 1.989 . S
N17 C16 1.342 1_554 S
N17 N18 1.388 . S
N18 Co1 1.993 . S
N18 N17 1.388 . S
N18 C19 1.346 . S
C19 N18 1.346 . S
C19 C20 1.396 1_554 S
C19 C29 1.510 . S
C20 C16 1.401 . S
C20 C19 1.396 1_556 S
C21 C16 1.499 . S
C21 H22 0.959 . S
C21 H23 0.960 . S
C21 H24 0.961 . S
H22 C21 0.959 . S
H23 C21 0.960 . S
H24 C21 0.961 . S
O25 Co0 1.967 . S
O25 C33 1.258 . S
O26 Co1 1.941 . S
O26 C33 1.266 . S
H27 C29 0.959 . S
H28 C29 0.961 . S
C29 C19 1.510 . S
C29 H27 0.959 . S
C29 H28 0.961 . S
C29 H30 0.960 . S
H30 C29 0.960 . S
H31 N11 0.862 . S
O32 Co0 1.920 1_556 S
O32 C5 1.289 . S
C33 O25 1.258 . S
C33 O26 1.266 . S
Co34 O37 1.970 . S
Co34 N51 1.989 . S
Co34 O59 1.967 . S
Co34 O66 1.920 . S
Co35 O38 1.966 . S
Co35 N44 2.022 . S
Co35 N52 1.993 . S
Co35 O60 1.941 . S
C36 O37 1.258 . S
C36 O38 1.263 . S
O37 Co34 1.970 . S
O37 C36 1.258 . S
O38 Co35 1.966 . S
O38 C36 1.263 . S
C39 O40 1.235 . S
C39 O66 1.289 . S
O40 C39 1.235 . S
C41 C43 1.400 . S
C41 N44 1.351 . S
C41 C46 1.501 . S
C42 C43 1.387 . S
C42 N45 1.341 . S
C43 C41 1.400 . S
C43 C42 1.387 . S
N44 Co35 2.022 . S
N44 C41 1.351 . S
N44 N45 1.365 . S
N45 C42 1.341 . S
N45 N44 1.365 . S
N45 H65 0.862 . S
C46 C41 1.501 . S
C46 H47 0.961 . S
C46 H48 0.961 . S
C46 H49 0.960 . S
H47 C46 0.961 . S
H48 C46 0.961 . S
H49 C46 0.960 . S
C50 N51 1.342 . S
C50 C54 1.401 . S
C50 C55 1.499 . S
N51 Co34 1.989 . S
N51 C50 1.342 . S
N51 N52 1.388 . S
N52 Co35 1.993 . S
N52 N51 1.388 . S
N52 C53 1.346 . S
C53 N52 1.346 . S
C53 C54 1.396 . S
C53 C63 1.510 . S
C54 C50 1.401 . S
C54 C53 1.396 . S
C55 C50 1.499 . S
C55 H56 0.959 . S
C55 H57 0.960 . S
C55 H58 0.961 . S
H56 C55 0.959 . S
H57 C55 0.960 . S
H58 C55 0.961 . S
O59 Co34 1.967 . S
O59 C67 1.258 . S
O60 Co35 1.941 . S
O60 C67 1.266 . S
H61 C63 0.959 . S
H62 C63 0.961 . S
C63 C53 1.510 . S
C63 H61 0.959 . S
C63 H62 0.961 . S
C63 H64 0.960 . S
H64 C63 0.960 . S
H65 N45 0.862 . S
O66 Co34 1.920 . S
O66 C39 1.289 . S
C67 O59 1.258 . S
C67 O60 1.266 . S
Co68 O71 1.970 . S
Co68 N85 1.989 . S
Co68 O93 1.967 . S
Co68 O100 1.920 . S
Co69 O72 1.966 . S
Co69 N78 2.022 . S
Co69 N86 1.993 . S
Co69 O94 1.941 . S
C70 O71 1.258 . S
C70 O72 1.263 . S
O71 Co68 1.970 . S
O71 C70 1.258 . S
O72 Co69 1.966 . S
O72 C70 1.263 . S
C73 O74 1.235 . S
C73 O100 1.289 . S
O74 C73 1.235 . S
C75 C77 1.400 . S
C75 N78 1.351 . S
C75 C80 1.501 . S
C76 C77 1.387 . S
C76 N79 1.341 . S
C77 C75 1.400 . S
C77 C76 1.387 . S
N78 Co69 2.022 . S
N78 C75 1.351 . S
N78 N79 1.365 . S
N79 C76 1.341 . S
N79 N78 1.365 . S
N79 H99 0.862 . S
C80 C75 1.501 . S
C80 H81 0.961 . S
C80 H82 0.961 . S
C80 H83 0.960 . S
H81 C80 0.961 . S
H82 C80 0.961 . S
H83 C80 0.960 . S
C84 N85 1.342 . S
C84 C88 1.401 . S
C84 C89 1.499 . S
N85 Co68 1.989 . S
N85 C84 1.342 . S
N85 N86 1.388 . S
N86 Co69 1.993 . S
N86 N85 1.388 . S
N86 C87 1.346 . S
C87 N86 1.346 . S
C87 C88 1.396 . S
C87 C97 1.510 . S
C88 C84 1.401 . S
C88 C87 1.396 . S
C89 C84 1.499 . S
C89 H90 0.959 . S
C89 H91 0.960 . S
C89 H92 0.961 . S
H90 C89 0.959 . S
H91 C89 0.960 . S
H92 C89 0.961 . S
O93 Co68 1.967 . S
O93 C101 1.258 . S
O94 Co69 1.941 . S
O94 C101 1.266 . S
H95 C97 0.959 . S
H96 C97 0.961 . S
C97 C87 1.510 . S
C97 H95 0.959 . S
C97 H96 0.961 . S
C97 H98 0.960 . S
H98 C97 0.960 . S
H99 N79 0.862 . S
O100 Co68 1.920 . S
O100 C73 1.289 . S
C101 O93 1.258 . S
C101 O94 1.266 . S
Co102 O105 1.970 . S
Co102 N119 1.989 . S
Co102 O127 1.967 . S
Co102 O134 1.920 . S
Co103 O106 1.966 . S
Co103 N112 2.022 . S
Co103 N120 1.993 . S
Co103 O128 1.941 . S
C104 O105 1.258 . S
C104 O106 1.263 . S
O105 Co102 1.970 . S
O105 C104 1.258 . S
O106 Co103 1.966 . S
O106 C104 1.263 . S
C107 O108 1.235 . S
C107 O134 1.289 . S
O108 C107 1.235 . S
C109 C111 1.400 . S
C109 N112 1.351 . S
C109 C114 1.501 . S
C110 C111 1.387 . S
C110 N113 1.341 . S
C111 C109 1.400 . S
C111 C110 1.387 . S
N112 Co103 2.022 . S
N112 C109 1.351 . S
N112 N113 1.365 . S
N113 C110 1.341 . S
N113 N112 1.365 . S
N113 H133 0.862 . S
C114 C109 1.501 . S
C114 H115 0.961 . S
C114 H116 0.961 . S
C114 H117 0.960 . S
H115 C114 0.961 . S
H116 C114 0.961 . S
H117 C114 0.960 . S
C118 N119 1.342 . S
C118 C122 1.401 . S
C118 C123 1.499 . S
N119 Co102 1.989 . S
N119 C118 1.342 . S
N119 N120 1.388 . S
N120 Co103 1.993 . S
N120 N119 1.388 . S
N120 C121 1.346 . S
C121 N120 1.346 . S
C121 C122 1.396 . S
C121 C131 1.510 . S
C122 C118 1.401 . S
C122 C121 1.396 . S
C123 C118 1.499 . S
C123 H124 0.959 . S
C123 H125 0.960 . S
C123 H126 0.961 . S
H124 C123 0.959 . S
H125 C123 0.960 . S
H126 C123 0.961 . S
O127 Co102 1.967 . S
O127 C135 1.258 . S
O128 Co103 1.941 . S
O128 C135 1.266 . S
H129 C131 0.959 . S
H130 C131 0.961 . S
C131 C121 1.510 . S
C131 H129 0.959 . S
C131 H130 0.961 . S
C131 H132 0.960 . S
H132 C131 0.960 . S
H133 N113 0.862 . S
O134 Co102 1.920 . S
O134 C107 1.289 . S
C135 O127 1.258 . S
C135 O128 1.266 . S
Co136 O139 1.970 . S
Co136 N153 1.989 . S
Co136 O161 1.967 . S
Co136 O168 1.920 . S
Co137 O140 1.966 . S
Co137 N146 2.022 . S
Co137 N154 1.993 . S
Co137 O162 1.941 . S
C138 O139 1.258 . S
C138 O140 1.263 . S
O139 Co136 1.970 . S
O139 C138 1.258 . S
O140 Co137 1.966 . S
O140 C138 1.263 . S
C141 O142 1.235 . S
C141 O168 1.289 . S
O142 C141 1.235 . S
C143 C145 1.400 . S
C143 N146 1.351 . S
C143 C148 1.501 . S
C144 C145 1.387 . S
C144 N147 1.341 . S
C145 C143 1.400 . S
C145 C144 1.387 . S
N146 Co137 2.022 . S
N146 C143 1.351 . S
N146 N147 1.365 . S
N147 C144 1.341 . S
N147 N146 1.365 . S
N147 H167 0.862 . S
C148 C143 1.501 . S
C148 H149 0.961 . S
C148 H150 0.961 . S
C148 H151 0.960 . S
H149 C148 0.961 . S
H150 C148 0.961 . S
H151 C148 0.960 . S
C152 N153 1.342 . S
C152 C156 1.401 . S
C152 C157 1.499 . S
N153 Co136 1.989 . S
N153 C152 1.342 . S
N153 N154 1.388 . S
N154 Co137 1.993 . S
N154 N153 1.388 . S
N154 C155 1.346 . S
C155 N154 1.346 . S
C155 C156 1.396 . S
C155 C165 1.510 . S
C156 C152 1.401 . S
C156 C155 1.396 . S
C157 C152 1.499 . S
C157 H158 0.959 . S
C157 H159 0.960 . S
C157 H160 0.961 . S
H158 C157 0.959 . S
H159 C157 0.960 . S
H160 C157 0.961 . S
O161 Co136 1.967 . S
O161 C169 1.258 . S
O162 Co137 1.941 . S
O162 C169 1.266 . S
H163 C165 0.959 . S
H164 C165 0.961 . S
C165 C155 1.510 . S
C165 H163 0.959 . S
C165 H164 0.961 . S
C165 H166 0.960 . S
H166 C165 0.960 . S
H167 N147 0.862 . S
O168 Co136 1.920 . S
O168 C141 1.289 . S
C169 O161 1.258 . S
C169 O162 1.266 . S
Co170 O173 1.970 . S
Co170 N187 1.989 . S
Co170 O195 1.967 . S
Co170 O202 1.920 . S
Co171 O174 1.966 . S
Co171 N180 2.022 . S
Co171 N188 1.993 . S
Co171 O196 1.941 . S
C172 O173 1.258 . S
C172 O174 1.263 . S
O173 Co170 1.970 . S
O173 C172 1.258 . S
O174 Co171 1.966 . S
O174 C172 1.263 . S
C175 O176 1.235 . S
C175 O202 1.289 . S
O176 C175 1.235 . S
C177 C179 1.400 1_556 S
C177 N180 1.351 . S
C177 C182 1.501 . S
C178 C179 1.387 . S
C178 N181 1.341 1_554 S
C179 C177 1.400 1_554 S
C179 C178 1.387 . S
N180 Co171 2.022 . S
N180 C177 1.351 . S
N180 N181 1.365 . S
N181 C178 1.341 1_556 S
N181 N180 1.365 . S
N181 H201 0.862 . S
C182 C177 1.501 . S
C182 H183 0.961 . S
C182 H184 0.961 . S
C182 H185 0.960 1_556 S
H183 C182 0.961 . S
H184 C182 0.961 . S
H185 C182 0.960 1_554 S
C186 N187 1.342 . S
C186 C190 1.401 . S
C186 C191 1.499 . S
N187 Co170 1.989 . S
N187 C186 1.342 . S
N187 N188 1.388 . S
N188 Co171 1.993 . S
N188 N187 1.388 . S
N188 C189 1.346 . S
C189 N188 1.346 . S
C189 C190 1.396 . S
C189 C199 1.510 . S
C190 C186 1.401 . S
C190 C189 1.396 . S
C191 C186 1.499 . S
C191 H192 0.959 . S
C191 H193 0.960 . S
C191 H194 0.961 . S
H192 C191 0.959 . S
H193 C191 0.960 . S
H194 C191 0.961 . S
O195 Co170 1.967 . S
O195 C203 1.258 . S
O196 Co171 1.941 . S
O196 C203 1.266 . S
H197 C199 0.959 . S
H198 C199 0.961 . S
C199 C189 1.510 . S
C199 H197 0.959 . S
C199 H198 0.961 . S
C199 H200 0.960 . S
H200 C199 0.960 . S
H201 N181 0.862 . S
O202 Co170 1.920 . S
O202 C175 1.289 . S
C203 O195 1.258 . S
C203 O196 1.266 . S
Co204 O207 1.970 . S
Co204 N221 1.989 . S
Co204 O229 1.967 . S
Co204 O236 1.920 . S
Co205 O208 1.966 . S
Co205 N214 2.022 . S
Co205 N222 1.993 . S
Co205 O230 1.941 . S
C206 O207 1.258 . S
C206 O208 1.263 . S
O207 Co204 1.970 . S
O207 C206 1.258 . S
O208 Co205 1.966 . S
O208 C206 1.263 . S
C209 O210 1.235 . S
C209 O236 1.289 . S
O210 C209 1.235 . S
C211 C213 1.400 . S
C211 N214 1.351 . S
C211 C216 1.501 . S
C212 C213 1.387 . S
C212 N215 1.341 . S
C213 C211 1.400 . S
C213 C212 1.387 . S
N214 Co205 2.022 . S
N214 C211 1.351 . S
N214 N215 1.365 . S
N215 C212 1.341 . S
N215 N214 1.365 . S
N215 H235 0.862 . S
C216 C211 1.501 . S
C216 H217 0.961 . S
C216 H218 0.961 . S
C216 H219 0.960 . S
H217 C216 0.961 . S
H218 C216 0.961 . S
H219 C216 0.960 . S
C220 N221 1.342 . S
C220 C224 1.401 . S
C220 C225 1.499 . S
N221 Co204 1.989 . S
N221 C220 1.342 . S
N221 N222 1.388 . S
N222 Co205 1.993 . S
N222 N221 1.388 . S
N222 C223 1.346 . S
C223 N222 1.346 . S
C223 C224 1.396 . S
C223 C233 1.510 . S
C224 C220 1.401 . S
C224 C223 1.396 . S
C225 C220 1.499 . S
C225 H226 0.959 . S
C225 H227 0.960 . S
C225 H228 0.961 . S
H226 C225 0.959 . S
H227 C225 0.960 . S
H228 C225 0.961 . S
O229 Co204 1.967 . S
O229 C237 1.258 . S
O230 Co205 1.941 . S
O230 C237 1.266 . S
H231 C233 0.959 . S
H232 C233 0.961 . S
C233 C223 1.510 . S
C233 H231 0.959 . S
C233 H232 0.961 . S
C233 H234 0.960 . S
H234 C233 0.960 . S
H235 N215 0.862 . S
O236 Co204 1.920 . S
O236 C209 1.289 . S
C237 O229 1.258 . S
C237 O230 1.266 . S
Co238 O241 1.970 . S
Co238 N255 1.989 . S
Co238 O263 1.967 . S
Co238 O270 1.920 1_556 S
Co239 O242 1.966 . S
Co239 N248 2.022 . S
Co239 N256 1.993 . S
Co239 O264 1.941 . S
C240 O241 1.258 . S
C240 O242 1.263 . S
O241 Co238 1.970 . S
O241 C240 1.258 . S
O242 Co239 1.966 . S
O242 C240 1.263 . S
C243 O244 1.235 . S
C243 O270 1.289 . S
O244 C243 1.235 . S
C245 C247 1.400 . S
C245 N248 1.351 . S
C245 C250 1.501 . S
C246 C247 1.387 . S
C246 N249 1.341 . S
C247 C245 1.400 . S
C247 C246 1.387 . S
N248 Co239 2.022 . S
N248 C245 1.351 . S
N248 N249 1.365 . S
N249 C246 1.341 . S
N249 N248 1.365 . S
N249 H269 0.862 . S
C250 C245 1.501 . S
C250 H251 0.961 . S
C250 H252 0.961 . S
C250 H253 0.960 . S
H251 C250 0.961 . S
H252 C250 0.961 . S
H253 C250 0.960 . S
C254 N255 1.342 1_554 S
C254 C258 1.401 . S
C254 C259 1.499 . S
N255 Co238 1.989 . S
N255 C254 1.342 1_556 S
N255 N256 1.388 . S
N256 Co239 1.993 . S
N256 N255 1.388 . S
N256 C257 1.346 . S
C257 N256 1.346 . S
C257 C258 1.396 1_556 S
C257 C267 1.510 . S
C258 C254 1.401 . S
C258 C257 1.396 1_554 S
C259 C254 1.499 . S
C259 H260 0.959 . S
C259 H261 0.960 . S
C259 H262 0.961 . S
H260 C259 0.959 . S
H261 C259 0.960 . S
H262 C259 0.961 . S
O263 Co238 1.967 . S
O263 C271 1.258 . S
O264 Co239 1.941 . S
O264 C271 1.266 . S
H265 C267 0.959 . S
H266 C267 0.961 . S
C267 C257 1.510 . S
C267 H265 0.959 . S
C267 H266 0.961 . S
C267 H268 0.960 . S
H268 C267 0.960 . S
H269 N249 0.862 . S
O270 Co238 1.920 1_554 S
O270 C243 1.289 . S
C271 O263 1.258 . S
C271 O264 1.266 . S
Co272 O275 1.970 . S
Co272 N289 1.989 . S
Co272 O297 1.967 . S
Co272 O304 1.920 . S
Co273 O276 1.966 . S
Co273 N282 2.022 . S
Co273 N290 1.993 . S
Co273 O298 1.941 . S
C274 O275 1.258 . S
C274 O276 1.263 . S
O275 Co272 1.970 . S
O275 C274 1.258 . S
O276 Co273 1.966 . S
O276 C274 1.263 . S
C277 O278 1.235 . S
C277 O304 1.289 . S
O278 C277 1.235 . S
C279 C281 1.400 1_554 S
C279 N282 1.351 . S
C279 C284 1.501 . S
C280 C281 1.387 . S
C280 N283 1.341 1_556 S
C281 C279 1.400 1_556 S
C281 C280 1.387 . S
N282 Co273 2.022 . S
N282 C279 1.351 . S
N282 N283 1.365 . S
N283 C280 1.341 1_554 S
N283 N282 1.365 . S
N283 H303 0.862 . S
C284 C279 1.501 . S
C284 H285 0.961 . S
C284 H286 0.961 . S
C284 H287 0.960 1_554 S
H285 C284 0.961 . S
H286 C284 0.961 . S
H287 C284 0.960 1_556 S
C288 N289 1.342 . S
C288 C292 1.401 . S
C288 C293 1.499 . S
N289 Co272 1.989 . S
N289 C288 1.342 . S
N289 N290 1.388 . S
N290 Co273 1.993 . S
N290 N289 1.388 . S
N290 C291 1.346 . S
C291 N290 1.346 . S
C291 C292 1.396 . S
C291 C301 1.510 . S
C292 C288 1.401 . S
C292 C291 1.396 . S
C293 C288 1.499 . S
C293 H294 0.959 . S
C293 H295 0.960 . S
C293 H296 0.961 . S
H294 C293 0.959 . S
H295 C293 0.960 . S
H296 C293 0.961 . S
O297 Co272 1.967 . S
O297 C305 1.258 . S
O298 Co273 1.941 . S
O298 C305 1.266 . S
H299 C301 0.959 . S
H300 C301 0.961 . S
C301 C291 1.510 . S
C301 H299 0.959 . S
C301 H300 0.961 . S
C301 H302 0.960 . S
H302 C301 0.960 . S
H303 N283 0.862 . S
O304 Co272 1.920 . S
O304 C277 1.289 . S
C305 O297 1.258 . S
C305 O298 1.266 . S
Co306 O309 1.970 . S
Co306 N323 1.989 . S
Co306 O331 1.967 . S
Co306 O338 1.920 . S
Co307 O310 1.966 . S
Co307 N316 2.022 . S
Co307 N324 1.993 . S
Co307 O332 1.941 . S
C308 O309 1.258 . S
C308 O310 1.263 . S
O309 Co306 1.970 . S
O309 C308 1.258 . S
O310 Co307 1.966 . S
O310 C308 1.263 . S
C311 O312 1.235 . S
C311 O338 1.289 . S
O312 C311 1.235 . S
C313 C315 1.400 . S
C313 N316 1.351 . S
C313 C318 1.501 . S
C314 C315 1.387 . S
C314 N317 1.341 . S
C315 C313 1.400 . S
C315 C314 1.387 . S
N316 Co307 2.022 . S
N316 C313 1.351 . S
N316 N317 1.365 . S
N317 C314 1.341 . S
N317 N316 1.365 . S
N317 H337 0.862 . S
C318 C313 1.501 . S
C318 H319 0.961 . S
C318 H320 0.961 . S
C318 H321 0.960 . S
H319 C318 0.961 . S
H320 C318 0.961 . S
H321 C318 0.960 . S
C322 N323 1.342 . S
C322 C326 1.401 . S
C322 C327 1.499 . S
N323 Co306 1.989 . S
N323 C322 1.342 . S
N323 N324 1.388 . S
N324 Co307 1.993 . S
N324 N323 1.388 . S
N324 C325 1.346 . S
C325 N324 1.346 . S
C325 C326 1.396 . S
C325 C335 1.510 . S
C326 C322 1.401 . S
C326 C325 1.396 . S
C327 C322 1.499 . S
C327 H328 0.959 . S
C327 H329 0.960 . S
C327 H330 0.961 . S
H328 C327 0.959 . S
H329 C327 0.960 . S
H330 C327 0.961 . S
O331 Co306 1.967 . S
O331 C339 1.258 . S
O332 Co307 1.941 . S
O332 C339 1.266 . S
H333 C335 0.959 . S
H334 C335 0.961 . S
C335 C325 1.510 . S
C335 H333 0.959 . S
C335 H334 0.961 . S
C335 H336 0.960 . S
H336 C335 0.960 . S
H337 N317 0.862 . S
O338 Co306 1.920 . S
O338 C311 1.289 . S
C339 O331 1.258 . S
C339 O332 1.266 . S
Co340 O343 1.970 . S
Co340 N357 1.989 . S
Co340 O365 1.967 . S
Co340 O372 1.920 . S
Co341 O344 1.966 . S
Co341 N350 2.022 . S
Co341 N358 1.993 . S
Co341 O366 1.941 . S
C342 O343 1.258 . S
C342 O344 1.263 . S
O343 Co340 1.970 . S
O343 C342 1.258 . S
O344 Co341 1.966 . S
O344 C342 1.263 . S
C345 O346 1.235 . S
C345 O372 1.289 . S
O346 C345 1.235 . S
C347 C349 1.400 . S
C347 N350 1.351 . S
C347 C352 1.501 . S
C348 C349 1.387 . S
C348 N351 1.341 . S
C349 C347 1.400 . S
C349 C348 1.387 . S
N350 Co341 2.022 . S
N350 C347 1.351 . S
N350 N351 1.365 . S
N351 C348 1.341 . S
N351 N350 1.365 . S
N351 H371 0.862 . S
C352 C347 1.501 . S
C352 H353 0.961 . S
C352 H354 0.961 . S
C352 H355 0.960 . S
H353 C352 0.961 . S
H354 C352 0.961 . S
H355 C352 0.960 . S
C356 N357 1.342 . S
C356 C360 1.401 . S
C356 C361 1.499 . S
N357 Co340 1.989 . S
N357 C356 1.342 . S
N357 N358 1.388 . S
N358 Co341 1.993 . S
N358 N357 1.388 . S
N358 C359 1.346 . S
C359 N358 1.346 . S
C359 C360 1.396 . S
C359 C369 1.510 . S
C360 C356 1.401 . S
C360 C359 1.396 . S
C361 C356 1.499 . S
C361 H362 0.959 . S
C361 H363 0.960 . S
C361 H364 0.961 . S
H362 C361 0.959 . S
H363 C361 0.960 . S
H364 C361 0.961 . S
O365 Co340 1.967 . S
O365 C373 1.258 . S
O366 Co341 1.941 . S
O366 C373 1.266 . S
H367 C369 0.959 . S
H368 C369 0.961 . S
C369 C359 1.510 . S
C369 H367 0.959 . S
C369 H368 0.961 . S
C369 H370 0.960 . S
H370 C369 0.960 . S
H371 N351 0.862 . S
O372 Co340 1.920 . S
O372 C345 1.289 . S
C373 O365 1.258 . S
C373 O366 1.266 . S
Co374 O377 1.970 . S
Co374 N391 1.989 . S
Co374 O399 1.967 . S
Co374 O406 1.920 . S
Co375 O378 1.966 . S
Co375 N384 2.022 . S
Co375 N392 1.993 . S
Co375 O400 1.941 . S
C376 O377 1.258 . S
C376 O378 1.263 . S
O377 Co374 1.970 . S
O377 C376 1.258 . S
O378 Co375 1.966 . S
O378 C376 1.263 . S
C379 O380 1.235 . S
C379 O406 1.289 . S
O380 C379 1.235 . S
C381 C383 1.400 . S
C381 N384 1.351 . S
C381 C386 1.501 . S
C382 C383 1.387 . S
C382 N385 1.341 . S
C383 C381 1.400 . S
C383 C382 1.387 . S
N384 Co375 2.022 . S
N384 C381 1.351 . S
N384 N385 1.365 . S
N385 C382 1.341 . S
N385 N384 1.365 . S
N385 H405 0.862 . S
C386 C381 1.501 . S
C386 H387 0.961 . S
C386 H388 0.961 . S
C386 H389 0.960 . S
H387 C386 0.961 . S
H388 C386 0.961 . S
H389 C386 0.960 . S
C390 N391 1.342 . S
C390 C394 1.401 . S
C390 C395 1.499 . S
N391 Co374 1.989 . S
N391 C390 1.342 . S
N391 N392 1.388 . S
N392 Co375 1.993 . S
N392 N391 1.388 . S
N392 C393 1.346 . S
C393 N392 1.346 . S
C393 C394 1.396 . S
C393 C403 1.510 . S
C394 C390 1.401 . S
C394 C393 1.396 . S
C395 C390 1.499 . S
C395 H396 0.959 . S
C395 H397 0.960 . S
C395 H398 0.961 . S
H396 C395 0.959 . S
H397 C395 0.960 . S
H398 C395 0.961 . S
O399 Co374 1.967 . S
O399 C407 1.258 . S
O400 Co375 1.941 . S
O400 C407 1.266 . S
H401 C403 0.959 . S
H402 C403 0.961 . S
C403 C393 1.510 . S
C403 H401 0.959 . S
C403 H402 0.961 . S
C403 H404 0.960 . S
H404 C403 0.960 . S
H405 N385 0.862 . S
O406 Co374 1.920 . S
O406 C379 1.289 . S
C407 O399 1.258 . S
C407 O400 1.266 . S
C408 C409 1.170 . S
C408 C410 1.380 . S
C409 C408 1.170 . S
C410 C408 1.380 . S
C410 C411 1.170 . S
C411 C410 1.170 . S
C412 C413 1.170 . S
C412 C414 1.380 . S
C413 C412 1.170 . S
C414 C412 1.380 . S
C414 C415 1.170 . S
C415 C414 1.170 . S
C416 C417 1.170 . S
C416 C418 1.380 . S
C417 C416 1.170 . S
C418 C416 1.380 . S
C418 C419 1.170 . S
C419 C418 1.170 . S
C420 C421 1.170 . S
C420 C422 1.380 . S
C421 C420 1.170 . S
C422 C420 1.380 . S
C422 C423 1.170 . S
C423 C422 1.170 . S
C424 C425 1.170 . S
C424 C426 1.380 . S
C425 C424 1.170 . S
C426 C424 1.380 . S
C426 C427 1.170 . S
C427 C426 1.170 . S
C428 C429 1.170 . S
C428 C430 1.380 . S
C429 C428 1.170 . S
C430 C428 1.380 . S
C430 C431 1.170 . S
C431 C430 1.170 . S
C432 C433 1.170 . S
C432 C434 1.380 . S
C433 C432 1.170 . S
C434 C432 1.380 . S
C434 C435 1.170 . S
C435 C434 1.170 . S
C436 C437 1.170 . S
C436 C438 1.380 . S
C437 C436 1.170 . S
C438 C436 1.380 . S
C438 C439 1.170 . S
C439 C438 1.170 . S
C440 C441 1.170 . S
C440 C442 1.380 . S
C441 C440 1.170 . S
C442 C440 1.380 . S
C442 C443 1.170 . S
C443 C442 1.170 . S
C444 C445 1.170 . S
C444 C446 1.380 . S
C445 C444 1.170 . S
C446 C444 1.380 . S
C446 C447 1.170 . S
C447 C446 1.170 . S
C448 C449 1.170 . S
C448 C450 1.380 . S
C449 C448 1.170 . S
C450 C448 1.380 . S
C450 C451 1.170 . S
C451 C450 1.170 . S
C452 C453 1.170 . S
C452 C454 1.380 . S
C453 C452 1.170 . S
C454 C452 1.380 . S
C454 C455 1.170 . S
C455 C454 1.170 . S
C456 C457 1.170 . S
C456 C458 1.380 . S
C457 C456 1.170 . S
C458 C456 1.380 . S
C458 C459 1.170 1_655 S
C459 C458 1.170 1_455 S
C460 C461 1.170 . S
C460 C462 1.380 1_566 S
C461 C460 1.170 . S
C462 C460 1.380 1_544 S
C462 C463 1.170 . S
C463 C462 1.170 . S
C464 C465 1.170 . S
C464 C466 1.380 . S
C465 C464 1.170 . S
C466 C464 1.380 . S
C466 C467 1.170 . S
C467 C466 1.170 . S
C468 C469 1.170 . S
C468 C470 1.379 1_655 S
C469 C468 1.170 . S
C470 C468 1.379 1_455 S
C470 C471 1.173 . S
C471 C470 1.173 . S
C472 C473 1.170 . S
C472 C474 1.382 . S
C473 C472 1.170 . S
C474 C472 1.382 . S
C474 C475 1.169 1_565 S
C475 C474 1.169 1_545 S
C476 C477 1.170 . S
C476 C478 1.380 . S
C477 C476 1.170 . S
C478 C476 1.380 . S
C478 C479 1.170 . S
C479 C478 1.170 . S
C480 C481 1.170 . S
C480 C482 1.380 . S
C481 C480 1.170 . S
C482 C480 1.380 . S
C482 C483 1.170 . S
C483 C482 1.170 . S
C484 C485 1.170 . S
C484 C486 1.380 . S
C485 C484 1.170 . S
C486 C484 1.380 . S
C486 C487 1.170 . S
C487 C486 1.170 . S
C488 C489 1.170 . S
C488 C490 1.380 . S
C489 C488 1.170 . S
C490 C488 1.380 . S
C490 C491 1.170 . S
C491 C490 1.170 . S
C492 C493 1.170 . S
C492 C494 1.380 . S
C493 C492 1.170 . S
C494 C492 1.380 . S
C494 C495 1.170 . S
C495 C494 1.170 . S
C496 C497 1.170 . S
C496 C498 1.380 . S
C497 C496 1.170 . S
C498 C496 1.380 . S
C498 C499 1.170 . S
C499 C498 1.170 . S
C500 C501 1.170 . S
C500 C502 1.380 . S
C501 C500 1.170 . S
C502 C500 1.380 . S
C502 C503 1.170 . S
C503 C502 1.170 . S
C504 C505 1.170 . S
C504 C506 1.380 . S
C505 C504 1.170 . S
C506 C504 1.380 . S
C506 C507 1.170 . S
C507 C506 1.170 . S
C508 C509 1.170 . S
C508 C510 1.380 . S
C509 C508 1.170 . S
C510 C508 1.380 . S
C510 C511 1.170 . S
C511 C510 1.170 . S
C512 C513 1.170 . S
C512 C514 1.380 . S
C513 C512 1.170 . S
C514 C512 1.380 . S
C514 C515 1.170 . S
C515 C514 1.170 . S
C516 C517 1.170 . S
C516 C518 1.380 . S
C517 C516 1.170 . S
C518 C516 1.380 . S
C518 C519 1.170 . S
C519 C518 1.170 . S
C520 C521 1.170 . S
C520 C522 1.380 . S
C521 C520 1.170 . S
C522 C520 1.380 . S
C522 C523 1.170 . S
C523 C522 1.170 . S
C524 C525 1.170 . S
C524 C526 1.380 . S
C525 C524 1.170 . S
C526 C524 1.380 . S
C526 C527 1.170 . S
C527 C526 1.170 . S
C409 C349 0.968 . S
C411 C9 0.958 . S
C413 C43 0.935 . S
C415 C383 0.954 . S
C417 C77 0.922 . S
C419 C213 0.906 . S
C421 C111 0.901 . S
C423 C247 0.900 . S
C425 C145 0.931 . S
C427 C281 0.913 . S
C429 C179 0.899 . S
C431 C315 0.903 . S
C433 C33 1.377 . S
C435 C305 1.409 . S
C437 C339 1.408 . S
C439 C67 1.389 . S
C441 C101 1.408 . S
C443 C373 1.390 . S
C445 C135 1.404 . S
C447 C407 1.395 . S
C449 C169 1.412 . S
C451 C237 1.380 . S
C453 C203 1.411 . S
C455 C271 1.381 . S
C457 C379 1.556 . S
C459 C5 1.580 . S
C461 C209 1.568 . S
C463 C39 1.559 . S
C465 C243 1.557 . S
C467 C73 1.571 . S
C469 C107 1.561 . S
C471 C277 1.565 . S
C473 C141 1.557 . S
C475 C311 1.572 . S
C477 C345 1.578 . S
C479 C175 1.578 . S
C481 C172 2.082 . S
C483 C20 2.070 . S
C485 C2 2.080 1_655 S
C487 C54 2.068 . S
C489 C88 2.057 . S
C491 C36 2.078 1_565 S
C493 C70 2.083 . S
C495 C122 2.064 . S
C497 C156 2.057 . S
C499 C104 2.078 1_455 S
C501 C190 2.065 . S
C503 C138 2.083 1_545 S
C505 C240 2.080 . S
C507 C224 2.056 . S
C509 C258 2.068 . S
C511 C274 2.080 1_655 S
C513 C292 2.058 . S
C515 C308 2.081 1_565 S
C517 C342 2.079 . S
C519 C326 2.064 . S
C521 C376 2.078 1_455 S
C523 C360 2.057 . S
C525 C394 2.068 . S
C527 C206 2.083 1_545 S
