# Generated by pormake.
# Topology irl, (4)-cn, num edge types: 1
# Building blocks:
#     Node 0, Type 0, BuildingBlock: QUQFOY_clean_sbu_1, # of connection points: 4
#     Node 1, Type 0, BuildingBlock: QUQFOY_clean_sbu_1, # of connection points: 4
#     Node 2, Type 0, BuildingBlock: QUQFOY_clean_sbu_1, # of connection points: 4
#     Node 3, Type 0, BuildingBlock: QUQFOY_clean_sbu_1, # of connection points: 4
#     Node 4, Type 0, BuildingBlock: QUQFOY_clean_sbu_1, # of connection points: 4
#     Node 5, Type 0, BuildingBlock: QUQFOY_clean_sbu_1, # of connection points: 4
#     Node 6, Type 0, BuildingBlock: QUQFOY_clean_sbu_1, # of connection points: 4
#     Node 7, Type 0, BuildingBlock: QUQFOY_clean_sbu_1, # of connection points: 4
#     Edge 8, Type (0, 0), BuildingBlock: KIFKEQ_clean_linker_1, # of connection points: 2
#     Edge 9, Type (0, 0), BuildingBlock: KIFKEQ_clean_linker_1, # of connection points: 2
#     Edge 10, Type (0, 0), BuildingBlock: KIFKEQ_clean_linker_1, # of connection points: 2
#     Edge 11, Type (0, 0), BuildingBlock: KIFKEQ_clean_linker_1, # of connection points: 2
#     Edge 12, Type (0, 0), BuildingBlock: KIFKEQ_clean_linker_1, # of connection points: 2
#     Edge 13, Type (0, 0), BuildingBlock: KIFKEQ_clean_linker_1, # of connection points: 2
#     Edge 14, Type (0, 0), BuildingBlock: KIFKEQ_clean_linker_1, # of connection points: 2
#     Edge 15, Type (0, 0), BuildingBlock: KIFKEQ_clean_linker_1, # of connection points: 2
#     Edge 16, Type (0, 0), BuildingBlock: KIFKEQ_clean_linker_1, # of connection points: 2
#     Edge 17, Type (0, 0), BuildingBlock: KIFKEQ_clean_linker_1, # of connection points: 2
#     Edge 18, Type (0, 0), BuildingBlock: KIFKEQ_clean_linker_1, # of connection points: 2
#     Edge 19, Type (0, 0), BuildingBlock: KIFKEQ_clean_linker_1, # of connection points: 2
#     Edge 20, Type (0, 0), BuildingBlock: KIFKEQ_clean_linker_1, # of connection points: 2
#     Edge 21, Type (0, 0), BuildingBlock: KIFKEQ_clean_linker_1, # of connection points: 2
#     Edge 22, Type (0, 0), BuildingBlock: KIFKEQ_clean_linker_1, # of connection points: 2
#     Edge 23, Type (0, 0), BuildingBlock: KIFKEQ_clean_linker_1, # of connection points: 2
# Relax obj value: 0.045
# Max RMSD: 0.084
# Mean RMSD: 0.084
data_MOF--net-irl--node1-QUQFOY_clean_sbu_1--edge1-KIFKEQ_clean_linker_1
_symmetry_space_group_name_H-M    P1
_symmetry_Int_Tables_number       1
_symmetry_cell_setting            triclinic
loop_
_symmetry_equiv_pos_as_xyz
'x, y, z'
_cell_length_a     36.712144
_cell_length_b     44.942962
_cell_length_c     29.232568
_cell_angle_alpha  90.016801
_cell_angle_beta   90.009367
_cell_angle_gamma 90.029768
loop_
_atom_site_label
_atom_site_type_symbol
_atom_site_fract_x
_atom_site_fract_y
_atom_site_fract_z
_atom_type_partial_charge
O0 O 0.08481 0.18506 0.0971 0.0
Cd1 Cd 0.10789 0.16812 0.03807 0.0
Cd2 Cd 0.04113 0.18093 1.00473 0.0
O3 O 0.032 0.19957 0.06838 0.0
O4 O 0.16211 0.17183 0.04537 0.0
O5 O 0.13032 0.19815 0.99552 0.0
C6 C 0.16122 0.19251 1.01474 0.0
C7 C 0.03258 0.20519 0.93505 0.0
C8 C 0.05388 0.19741 0.10199 0.0
C9 C 0.06216 0.11622 1.00772 0.0
O10 O 0.03731 0.13542 1.00124 0.0
O11 O 0.0939 0.12446 0.0202 0.0
O12 O 1.0052 0.19604 0.95893 0.0
O13 O 0.06475 0.20223 0.9523 0.0
O14 O 0.95723 0.83305 0.09423 0.0
Cd15 Cd 0.93552 0.84983 0.03449 0.0
Cd16 Cd 1.00174 0.83417 1.00425 0.0
O17 O 1.00733 0.81281 0.06672 0.0
O18 O 0.88154 0.84855 0.04526 0.0
O19 O 0.9091 0.82125 0.99283 0.0
C20 C 0.87962 0.82798 1.01452 0.0
C21 C 1.00575 0.81164 0.93263 0.0
C22 C 0.9859 0.81766 0.10012 0.0
C23 C 0.98536 0.89967 1.00771 0.0
O24 O 1.00959 0.87958 1.00422 0.0
O25 O 0.95237 0.89257 0.01613 0.0
O26 O 0.03463 0.81664 0.95669 0.0
O27 O 0.97452 0.81781 0.95063 0.0
O28 O 0.08583 0.83446 0.43472 0.0
Cd29 Cd 0.10622 0.84999 0.49624 0.0
Cd30 Cd 0.03938 0.83391 0.52209 0.0
O31 O 0.03657 0.81182 0.4601 0.0
O32 O 0.16044 0.8493 0.48701 0.0
O33 O 0.13215 0.82043 0.53674 0.0
C34 C 0.16196 0.82793 0.51642 0.0
C35 C 0.0351 0.81212 0.59417 0.0
C36 C 0.05822 0.81801 0.42747 0.0
C37 C 0.05514 0.89921 0.52105 0.0
O38 O 0.03067 0.87918 0.52005 0.0
O39 O 0.08867 0.89213 0.5172 0.0
O40 O 1.00637 0.81614 0.56937 0.0
O41 O 0.06631 0.81897 0.57674 0.0
O42 O 0.95419 0.18403 0.43739 0.0
Cd43 Cd 0.93258 0.16777 0.49796 0.0
Cd44 Cd 1.00005 0.18129 0.52703 0.0
O45 O 1.00649 0.20122 0.46405 0.0
O46 O 0.87814 0.17078 0.49192 0.0
O47 O 0.9103 0.19834 0.53977 0.0
C48 C 0.8792 0.19207 0.52156 0.0
C49 C 1.00827 0.20467 0.59748 0.0
C50 C 0.98416 0.1977 0.43119 0.0
C51 C 0.98038 0.11647 0.5245 0.0
O52 O 1.00547 0.13586 0.52724 0.0
O53 O 0.94756 0.12447 0.51711 0.0
O54 O 0.03584 0.19673 0.5729 0.0
O55 O 0.97608 0.20079 0.58072 0.0
O56 O 0.58531 0.68354 0.09343 0.0
Cd57 Cd 0.60699 0.66837 0.03236 0.0
Cd58 Cd 0.54032 0.68325 1.0053 0.0
O59 O 0.5351 0.70451 0.06763 0.0
O60 O 0.66092 0.67054 0.0426 0.0
O61 O 0.63219 0.69836 0.99183 0.0
C62 C 0.66202 0.69175 1.01289 0.0
C63 C 0.53287 0.70555 0.93397 0.0
C64 C 0.55681 0.69895 0.10047 0.0
C65 C 0.55848 0.61803 1.00662 0.0
O66 O 0.53368 0.63775 1.00628 0.0
O67 O 0.59171 0.62557 1.01187 0.0
O68 O 0.50507 0.69868 0.95892 0.0
O69 O 0.56496 0.70133 0.95088 0.0
O70 O 0.45477 0.33698 0.09596 0.0
Cd71 Cd 0.43373 0.35125 0.03401 0.0
Cd72 Cd 0.50057 0.33573 1.00721 0.0
O73 O 0.5045 0.31507 0.07021 0.0
O74 O 0.37914 0.34877 0.03921 0.0
O75 O 0.41163 0.31943 0.99438 0.0
C76 C 0.38037 0.32649 1.01135 0.0
C77 C 0.50835 0.31284 0.93626 0.0
C78 C 0.48304 0.32125 0.10308 0.0
C79 C 0.4831 0.40092 1.00693 0.0
O80 O 0.50781 0.38113 1.00752 0.0
O81 O 0.44979 0.39352 1.01181 0.0
O82 O 0.53606 0.31952 0.96151 0.0
O83 O 0.47624 0.3176 0.95267 0.0
O84 O 0.58591 0.33643 0.43796 0.0
Cd85 Cd 0.60693 0.35086 0.49984 0.0
Cd86 Cd 0.53997 0.33553 0.52661 0.0
O87 O 0.53597 0.31478 0.46367 0.0
O88 O 0.66152 0.34826 0.49474 0.0
O89 O 0.62889 0.31917 0.53979 0.0
C90 C 0.66019 0.32611 0.52281 0.0
C91 C 0.53205 0.31277 0.59762 0.0
C92 C 0.55752 0.3208 0.43082 0.0
C93 C 0.55768 0.40072 0.52637 0.0
O94 O 0.53294 0.38094 0.52605 0.0
O95 O 0.59098 0.39328 0.52153 0.0
O96 O 0.50438 0.31948 0.57234 0.0
O97 O 0.56419 0.31742 0.58123 0.0
O98 O 0.45597 0.68325 0.43562 0.0
Cd99 Cd 0.43427 0.66819 0.49675 0.0
Cd100 Cd 0.50101 0.68307 0.52375 0.0
O101 O 0.50621 0.70426 0.46137 0.0
O102 O 0.38032 0.67048 0.48664 0.0
O103 O 0.40929 0.69828 0.53729 0.0
C104 C 0.37939 0.69172 0.51633 0.0
C105 C 0.50859 0.70547 0.59501 0.0
C106 C 0.48449 0.69867 0.42855 0.0
C107 C 0.48269 0.61787 0.52276 0.0
O108 O 0.50755 0.63756 0.52293 0.0
O109 O 0.44948 0.62543 0.51749 0.0
O110 O 0.53635 0.69855 0.57003 0.0
O111 O 0.47647 0.70126 0.57816 0.0
H112 H 0.0523 0.92181 0.98465 0.0
H113 H 0.9437 0.94957 0.02234 0.0
H114 H 0.07162 0.97357 0.98154 0.0
H115 H 0.96331 1.00142 0.02027 0.0
H116 H 0.99991 0.09234 0.97224 0.0
H117 H 0.98181 0.04038 0.96938 0.0
H118 H 0.08425 0.01519 0.03092 0.0
H119 H 0.10281 0.0674 0.03282 0.0
C120 C 0.03247 0.93895 0.99228 0.0
C121 C 0.99637 0.93143 1.00376 0.0
C122 C 0.04369 0.96869 0.9908 0.0
C123 C 1.01915 0.99178 1.00082 0.0
C124 C 0.9829 0.98428 1.01175 0.0
C125 C 0.97164 0.9545 1.01312 0.0
C126 C 1.01878 0.07576 0.98492 0.0
C127 C 0.05284 0.08416 1.00293 0.0
C128 C 1.00822 0.0459 0.98357 0.0
C129 C 0.03133 0.0235 1.00034 0.0
C130 C 0.06582 0.03178 0.01732 0.0
C131 C 0.07648 0.06175 0.01853 0.0
H132 H 0.98885 0.92315 0.50104 0.0
H133 H 0.09599 0.94688 0.54971 0.0
H134 H 0.97052 0.97499 0.50379 0.0
H135 H 0.07714 0.99876 0.55528 0.0
H136 H 0.04746 0.09233 0.51166 0.0
H137 H 0.06489 0.04043 0.51254 0.0
H138 H 0.95425 0.01595 0.54694 0.0
H139 H 0.93643 0.06826 0.54326 0.0
C140 C 1.00838 0.93946 0.51304 0.0
C141 C 0.04398 0.93087 0.52496 0.0
C142 C 0.99774 0.96931 0.51499 0.0
C143 C 0.02219 0.99146 0.52974 0.0
C144 C 0.05763 0.98265 0.54271 0.0
C145 C 0.06849 0.95281 0.53986 0.0
C146 C 0.02679 0.07591 0.51959 0.0
C147 C 0.99049 0.08451 0.52739 0.0
C148 C 0.03691 0.04596 0.52048 0.0
C149 C 1.01119 0.0236 0.53006 0.0
C150 C 0.97486 0.0323 0.53861 0.0
C151 C 0.96457 0.06236 0.53685 0.0
H152 H 0.49162 0.59403 0.02261 0.0
H153 H 0.60097 0.57005 0.98285 0.0
H154 H 0.47366 0.54216 0.02045 0.0
H155 H 0.58256 0.51795 0.97795 0.0
H156 H 0.54995 0.42485 0.02336 0.0
H157 H 0.56802 0.47669 0.02117 0.0
H158 H 0.45954 0.5009 0.97701 0.0
H159 H 0.44099 0.44885 0.98195 0.0
C160 C 0.51176 0.57765 1.01266 0.0
C161 C 0.54781 0.58622 1.00301 0.0
C162 C 0.50134 0.54776 1.01104 0.0
C163 C 0.52647 0.52549 0.9989 0.0
C164 C 0.56246 0.53421 0.98835 0.0
C165 C 0.57307 0.56416 0.99083 0.0
C166 C 0.52993 0.44122 1.01301 0.0
C167 C 0.49395 0.43267 1.00295 0.0
C168 C 0.54042 0.4711 1.01138 0.0
C169 C 0.51541 0.49337 0.99884 0.0
C170 C 0.47952 0.48465 0.98776 0.0
C171 C 0.46884 0.45472 0.99024 0.0
H172 H 0.59993 0.44887 0.5502 0.0
H173 H 0.49079 0.42451 0.5099 0.0
H174 H 0.58148 0.50098 0.55409 0.0
H175 H 0.47281 0.47636 0.51105 0.0
H176 H 0.44014 0.57011 0.5475 0.0
H177 H 0.45846 0.51805 0.55335 0.0
H178 H 0.56728 0.54182 0.50982 0.0
H179 H 0.54941 0.59368 0.50672 0.0
C180 C 0.57206 0.45467 0.54194 0.0
C181 C 0.54688 0.4325 0.52984 0.0
C182 C 0.56143 0.48463 0.54381 0.0
C183 C 0.52552 0.49324 0.53272 0.0
C184 C 0.50044 0.47086 0.52082 0.0
C185 C 0.51088 0.44096 0.5198 0.0
C186 C 0.468 0.56413 0.53949 0.0
C187 C 0.49327 0.58607 0.52675 0.0
C188 C 0.47856 0.5342 0.54252 0.0
C189 C 0.5145 0.52537 0.53198 0.0
C190 C 0.53964 0.54751 0.51925 0.0
C191 C 0.52926 0.5774 0.51708 0.0
H192 H 0.09562 0.22113 0.16991 0.0
H193 H 0.98606 0.19317 0.13863 0.0
H194 H 0.07829 0.22963 0.24923 0.0
H195 H 0.96911 0.19904 0.21833 0.0
H196 H 0.93962 0.21665 0.36239 0.0
H197 H 0.95577 0.22497 0.2826 0.0
H198 H 0.06804 0.20364 0.31418 0.0
H199 H 0.05201 0.19791 0.3941 0.0
C200 C 0.06773 0.21694 0.18014 0.0
C201 C 0.04219 0.20644 0.14828 0.0
C202 C 0.05778 0.22143 0.22581 0.0
C203 C 0.02235 0.21451 0.2411 0.0
C204 C 0.99649 0.20515 0.20839 0.0
C205 C 1.0062 0.20157 0.16246 0.0
C206 C 0.96785 0.21444 0.35217 0.0
C207 C 0.99455 0.20659 0.38432 0.0
C208 C 0.97716 0.21886 0.30625 0.0
C209 C 1.01323 0.21452 0.29107 0.0
C210 C 0.04009 0.20776 0.324 0.0
C211 C 0.03091 0.20425 0.37009 0.0
H212 H 0.99744 0.78878 0.3958 0.0
H213 H 0.09985 0.8263 0.35116 0.0
H214 H 0.9803 0.78025 0.31612 0.0
H215 H 0.08241 0.81849 0.27199 0.0
H216 H 0.0502 0.79323 0.13042 0.0
H217 H 0.06862 0.78501 0.20978 0.0
H218 H 0.96221 0.81333 0.25545 0.0
H219 H 0.94364 0.82081 0.17668 0.0
C220 C 1.01652 0.79481 0.36911 0.0
C221 C 0.04982 0.80859 0.37993 0.0
C222 C 1.00661 0.79007 0.3234 0.0
C223 C 0.02979 0.79897 0.28754 0.0
C224 C 0.06398 0.81108 0.29858 0.0
C225 C 0.07387 0.8158 0.34415 0.0
C226 C 0.03052 0.79708 0.15738 0.0
C227 C 0.9956 0.80804 0.14715 0.0
C228 C 0.04115 0.79255 0.20289 0.0
C229 C 1.01704 0.7988 0.23912 0.0
C230 C 0.98143 0.808 0.22858 0.0
C231 C 0.97086 0.81254 0.18324 0.0
H232 H 0.08713 0.81606 0.66033 0.0
H233 H 0.97601 0.78813 0.63795 0.0
H234 H 0.07944 0.80939 0.74205 0.0
H235 H 0.96869 0.77977 0.71986 0.0
H236 H 0.95327 0.8149 0.86691 0.0
H237 H 0.96081 0.80856 0.78506 0.0
H238 H 0.07201 0.77998 0.80655 0.0
H239 H 0.06483 0.78804 0.88852 0.0
C240 C 0.0613 0.80768 0.6728 0.0
C241 C 0.03206 0.80294 0.64268 0.0
C242 C 0.0569 0.80363 0.71988 0.0
C243 C 0.02326 0.79428 0.73807 0.0
C244 C 0.99472 0.78771 0.70744 0.0
C245 C 0.99897 0.79225 0.66036 0.0
C246 C 0.97915 0.80679 0.85424 0.0
C247 C 1.00857 0.80231 0.88417 0.0
C248 C 0.98348 0.80295 0.80709 0.0
C249 C 1.01723 0.79406 0.78868 0.0
C250 C 0.04591 0.78761 0.81914 0.0
C251 C 0.04173 0.79196 0.86626 0.0
H252 H 0.0831 0.23078 0.87839 0.0
H253 H 0.97097 0.20188 0.88328 0.0
H254 H 0.07743 0.23951 0.79634 0.0
H255 H 0.96569 0.20914 0.80138 0.0
H256 H 0.06994 0.20173 0.64927 0.0
H257 H 0.07523 0.20936 0.73117 0.0
H258 H 0.96322 0.23897 0.73606 0.0
H259 H 0.95755 0.22984 0.65414 0.0
C260 C 0.0571 0.22665 0.86204 0.0
C261 C 0.02759 0.21539 0.88728 0.0
C262 C 0.0539 0.2314 0.81488 0.0
C263 C 0.02126 0.22461 0.79177 0.0
C264 C 0.99116 0.215 0.81772 0.0
C265 C 0.99423 0.21064 0.86489 0.0
C266 C 0.04662 0.21038 0.66766 0.0
C267 C 1.0132 0.21481 0.6453 0.0
C268 C 0.04969 0.21496 0.7148 0.0
C269 C 1.01952 0.22448 0.7407 0.0
C270 C 0.9868 0.23093 0.71758 0.0
C271 C 0.9836 0.22593 0.67049 0.0
H272 H 0.59881 0.69267 0.17688 0.0
H273 H 0.49395 0.72511 0.13196 0.0
H274 H 0.58081 0.69979 0.25599 0.0
H275 H 0.47617 0.73295 0.21159 0.0
H276 H 0.44258 0.6921 0.35208 0.0
H277 H 0.46054 0.6994 0.273 0.0
H278 H 0.5649 0.73317 0.31751 0.0
H279 H 0.54718 0.72516 0.39712 0.0
C280 C 0.57212 0.70189 0.18382 0.0
C281 C 0.54764 0.70792 0.14798 0.0
C282 C 0.56189 0.70623 0.22935 0.0
C283 C 0.52691 0.71673 0.2403 0.0
C284 C 0.50313 0.72438 0.20438 0.0
C285 C 0.5134 0.72005 0.1587 0.0
C286 C 0.4692 0.70149 0.34518 0.0
C287 C 0.49362 0.70765 0.38104 0.0
C288 C 0.4794 0.70592 0.29966 0.0
C289 C 0.5143 0.71666 0.28875 0.0
C290 C 0.53801 0.72442 0.3247 0.0
C291 C 0.52778 0.71999 0.37036 0.0
H292 H 0.59898 0.32777 0.354 0.0
H293 H 0.49457 0.29469 0.39962 0.0
H294 H 0.58041 0.32096 0.27494 0.0
H295 H 0.4762 0.28732 0.32011 0.0
H296 H 0.54567 0.29465 0.13418 0.0
H297 H 0.56397 0.28702 0.21365 0.0
H298 H 0.46028 0.32154 0.25902 0.0
H299 H 0.44177 0.32861 0.17999 0.0
C300 C 0.57228 0.31849 0.34722 0.0
C301 C 0.54811 0.31214 0.38325 0.0
C302 C 0.56172 0.31437 0.30175 0.0
C303 C 0.52668 0.3038 0.29108 0.0
C304 C 0.5032 0.29591 0.32714 0.0
C305 C 0.51381 0.29998 0.37274 0.0
C306 C 0.52653 0.30009 0.1611 0.0
C307 C 0.4924 0.31256 0.15065 0.0
C308 C 0.5371 0.29587 0.20667 0.0
C309 C 0.51374 0.30391 0.24278 0.0
C310 C 0.47887 0.31482 0.23217 0.0
C311 C 0.46834 0.31909 0.18672 0.0
H312 H 0.56993 0.31614 0.88442 0.0
H313 H 0.45735 0.28858 0.87907 0.0
H314 H 0.57506 0.30935 0.80234 0.0
H315 H 0.46284 0.28017 0.79697 0.0
H316 H 0.47049 0.31633 0.64947 0.0
H317 H 0.46531 0.30955 0.73155 0.0
H318 H 0.57733 0.27995 0.7369 0.0
H319 H 0.58288 0.28833 0.65481 0.0
C320 C 0.54653 0.30777 0.86585 0.0
C321 C 0.51313 0.30322 0.88818 0.0
C322 C 0.54949 0.30368 0.81858 0.0
C323 C 0.51924 0.29449 0.79249 0.0
C324 C 0.48649 0.28799 0.81554 0.0
C325 C 0.48339 0.29255 0.86275 0.0
C326 C 0.49383 0.30787 0.66804 0.0
C327 C 0.5272 0.30319 0.64571 0.0
C328 C 0.49084 0.30379 0.7153 0.0
C329 C 0.52103 0.29449 0.74139 0.0
C330 C 0.55373 0.28786 0.71834 0.0
C331 C 0.55687 0.29241 0.67113 0.0
H332 H 0.5839 0.72949 0.8764 0.0
H333 H 0.47131 0.70195 0.88216 0.0
H334 H 0.5782 0.73775 0.79426 0.0
H335 H 0.46599 0.70857 0.80012 0.0
H336 H 0.45768 0.72956 0.65258 0.0
H337 H 0.46343 0.73785 0.7347 0.0
H338 H 0.57552 0.70846 0.72883 0.0
H339 H 0.57016 0.70181 0.64678 0.0
C340 C 0.55783 0.72547 0.86017 0.0
C341 C 0.52814 0.71488 0.88574 0.0
C342 C 0.5546 0.72995 0.81294 0.0
C343 C 0.52178 0.72343 0.79003 0.0
C344 C 0.49161 0.71426 0.81625 0.0
C345 C 0.49469 0.71026 0.86351 0.0
C346 C 0.48374 0.7255 0.6688 0.0
C347 C 0.51338 0.71484 0.64323 0.0
C348 C 0.48699 0.73 0.71602 0.0
C349 C 0.51979 0.72343 0.73893 0.0
C350 C 0.54992 0.71419 0.7127 0.0
C351 C 0.54682 0.71018 0.66545 0.0
H352 H 0.37754 0.27101 0.9732 0.0
H353 H 0.30916 0.33983 0.03026 0.0
H354 H 0.32473 0.23806 0.96732 0.0
H355 H 0.25631 0.30694 0.02379 0.0
H356 H 0.16421 0.24653 0.97184 0.0
H357 H 0.21697 0.27947 0.96432 0.0
H358 H 0.28485 0.21314 0.02848 0.0
H359 H 0.23211 0.18035 0.0366 0.0
C360 C 0.35116 0.27931 0.98375 0.0
C361 C 0.34759 0.30804 1.00235 0.0
C362 C 0.32097 0.26035 0.98061 0.0
C363 C 0.28642 0.26987 0.99525 0.0
C364 C 0.28254 0.29905 1.01194 0.0
C365 C 0.31284 0.31785 0.01578 0.0
C366 C 0.19049 0.23879 0.98374 0.0
C367 C 0.19395 0.21083 1.00493 0.0
C368 C 0.22063 0.25775 0.97967 0.0
C369 C 0.255 0.24893 0.99593 0.0
C370 C 0.25877 0.22047 1.01532 0.0
C371 C 0.22853 0.20173 0.0201 0.0
H372 H 0.72066 0.69462 0.06974 0.0
H373 H 0.67858 0.73062 0.94331 0.0
H374 H 0.77212 0.72896 0.06585 0.0
H375 H 0.73104 0.76454 0.93898 0.0
H376 H 0.86166 0.79091 0.94323 0.0
H377 H 0.80874 0.75754 0.93813 0.0
H378 H 0.76936 0.79098 0.06722 0.0
H379 H 0.82133 0.8248 0.07193 0.0
C380 C 0.72272 0.70944 0.04065 0.0
C381 C 0.69547 0.70989 1.00684 0.0
C382 C 0.75208 0.72921 0.03863 0.0
C383 C 0.75532 0.74945 1.0023 0.0
C384 C 0.72908 0.74909 0.96732 0.0
C385 C 0.69916 0.72971 0.96984 0.0
C386 C 0.84134 0.79151 0.97008 0.0
C387 C 0.84569 0.81052 1.00798 0.0
C388 C 0.81114 0.77245 0.96711 0.0
C389 C 0.78527 0.77161 1.00248 0.0
C390 C 0.78909 0.79113 0.03966 0.0
C391 C 0.81875 0.8106 0.04216 0.0
H392 H 0.22106 0.82607 0.46015 0.0
H393 H 0.17908 0.78953 0.58627 0.0
H394 H 0.27307 0.79228 0.46437 0.0
H395 H 0.23203 0.75623 0.59094 0.0
H396 H 0.36288 0.7302 0.58644 0.0
H397 H 0.3105 0.76414 0.59123 0.0
H398 H 0.26955 0.72953 0.46363 0.0
H399 H 0.32092 0.69513 0.45928 0.0
C400 C 0.22329 0.8113 0.48929 0.0
C401 C 0.19588 0.81047 0.52285 0.0
C402 C 0.25297 0.79186 0.4915 0.0
C403 C 0.25634 0.77163 0.52783 0.0
C404 C 0.22999 0.7717 0.56264 0.0
C405 C 0.19977 0.79073 0.55991 0.0
C406 C 0.34236 0.72951 0.55984 0.0
C407 C 0.34603 0.70993 0.52252 0.0
C408 C 0.31248 0.7489 0.56262 0.0
C409 C 0.2863 0.74951 0.5276 0.0
C410 C 0.28954 0.72955 0.4909 0.0
C411 C 0.31885 0.70976 0.48862 0.0
H412 H 0.66286 0.27087 0.56183 0.0
H413 H 0.73143 0.33918 0.50359 0.0
H414 H 0.71559 0.23792 0.56828 0.0
H415 H 0.78417 0.3063 0.5106 0.0
H416 H 0.87626 0.24652 0.56319 0.0
H417 H 0.82351 0.27945 0.57019 0.0
H418 H 0.75546 0.21231 0.50814 0.0
H419 H 0.80819 0.1795 0.50059 0.0
C420 C 0.68927 0.27906 0.55113 0.0
C421 C 0.69291 0.30765 0.53206 0.0
C422 C 0.71941 0.2601 0.55459 0.0
C423 C 0.75398 0.26947 0.53979 0.0
C424 C 0.75793 0.29851 0.52259 0.0
C425 C 0.72769 0.31731 0.51844 0.0
C426 C 0.84995 0.2386 0.55165 0.0
C427 C 0.84645 0.21039 0.53121 0.0
C428 C 0.81981 0.25755 0.55542 0.0
C429 C 0.78539 0.24852 0.53957 0.0
C430 C 0.78158 0.21982 0.52097 0.0
C431 C 0.81181 0.20106 0.51651 0.0
loop_
_geom_bond_atom_site_label_1
_geom_bond_atom_site_label_2
_geom_bond_distance
_geom_bond_site_symmetry_2
_ccdc_geom_bond_type
O0 Cd1 2.223 . S
O0 C8 1.315 . S
Cd1 O0 2.223 . S
Cd1 O4 2.297 . S
Cd1 O5 2.439 . S
Cd1 O11 2.240 . S
Cd2 O3 2.240 . S
Cd2 O10 2.225 . S
Cd2 O12 2.297 1_454 S
Cd2 O13 2.439 1_554 S
O3 Cd2 2.240 . S
O3 C8 1.279 . S
O4 Cd1 2.297 . S
O4 C6 1.247 . S
O5 Cd1 2.439 . S
O5 C6 1.208 . S
C6 O4 1.247 . S
C6 O5 1.208 . S
C7 O12 1.247 1_455 S
C7 O13 1.208 . S
C8 O0 1.315 . S
C8 O3 1.279 . S
C9 O10 1.332 . S
C9 O11 1.279 . S
O10 Cd2 2.225 . S
O10 C9 1.332 . S
O11 Cd1 2.240 . S
O11 C9 1.279 . S
O12 Cd2 2.297 1_656 S
O12 C7 1.247 1_655 S
O13 Cd2 2.439 1_556 S
O13 C7 1.208 . S
O14 Cd15 2.223 . S
O14 C22 1.315 . S
Cd15 O14 2.223 . S
Cd15 O18 2.297 . S
Cd15 O19 2.439 . S
Cd15 O25 2.240 . S
Cd16 O17 2.240 . S
Cd16 O24 2.225 . S
Cd16 O26 2.297 1_654 S
Cd16 O27 2.439 1_554 S
O17 Cd16 2.240 . S
O17 C22 1.279 . S
O18 Cd15 2.297 . S
O18 C20 1.247 . S
O19 Cd15 2.439 . S
O19 C20 1.208 . S
C20 O18 1.247 . S
C20 O19 1.208 . S
C21 O26 1.247 1_655 S
C21 O27 1.208 . S
C22 O14 1.315 . S
C22 O17 1.279 . S
C23 O24 1.332 . S
C23 O25 1.279 . S
O24 Cd16 2.225 . S
O24 C23 1.332 . S
O25 Cd15 2.240 . S
O25 C23 1.279 . S
O26 Cd16 2.297 1_456 S
O26 C21 1.247 1_455 S
O27 Cd16 2.439 1_556 S
O27 C21 1.208 . S
O28 Cd29 2.223 . S
O28 C36 1.315 . S
Cd29 O28 2.223 . S
Cd29 O32 2.297 . S
Cd29 O33 2.439 . S
Cd29 O39 2.240 . S
Cd30 O31 2.240 . S
Cd30 O38 2.225 . S
Cd30 O40 2.297 1_455 S
Cd30 O41 2.439 . S
O31 Cd30 2.240 . S
O31 C36 1.279 . S
O32 Cd29 2.297 . S
O32 C34 1.247 . S
O33 Cd29 2.439 . S
O33 C34 1.208 . S
C34 O32 1.247 . S
C34 O33 1.208 . S
C35 O40 1.247 1_455 S
C35 O41 1.208 . S
C36 O28 1.315 . S
C36 O31 1.279 . S
C37 O38 1.332 . S
C37 O39 1.279 . S
O38 Cd30 2.225 . S
O38 C37 1.332 . S
O39 Cd29 2.240 . S
O39 C37 1.279 . S
O40 Cd30 2.297 1_655 S
O40 C35 1.247 1_655 S
O41 Cd30 2.439 . S
O41 C35 1.208 . S
O42 Cd43 2.223 . S
O42 C50 1.315 . S
Cd43 O42 2.223 . S
Cd43 O46 2.297 . S
Cd43 O47 2.439 . S
Cd43 O53 2.240 . S
Cd44 O45 2.240 . S
Cd44 O52 2.225 . S
Cd44 O54 2.297 1_655 S
Cd44 O55 2.439 . S
O45 Cd44 2.240 . S
O45 C50 1.279 . S
O46 Cd43 2.297 . S
O46 C48 1.247 . S
O47 Cd43 2.439 . S
O47 C48 1.208 . S
C48 O46 1.247 . S
C48 O47 1.208 . S
C49 O54 1.247 1_655 S
C49 O55 1.208 . S
C50 O42 1.315 . S
C50 O45 1.279 . S
C51 O52 1.332 . S
C51 O53 1.279 . S
O52 Cd44 2.225 . S
O52 C51 1.332 . S
O53 Cd43 2.240 . S
O53 C51 1.279 . S
O54 Cd44 2.297 1_455 S
O54 C49 1.247 1_455 S
O55 Cd44 2.439 . S
O55 C49 1.208 . S
O56 Cd57 2.223 . S
O56 C64 1.315 . S
Cd57 O56 2.223 . S
Cd57 O60 2.297 . S
Cd57 O61 2.439 . S
Cd57 O67 2.240 . S
Cd58 O59 2.240 . S
Cd58 O66 2.223 . S
Cd58 O68 2.297 1_554 S
Cd58 O69 2.439 1_554 S
O59 Cd58 2.240 . S
O59 C64 1.279 . S
O60 Cd57 2.297 . S
O60 C62 1.247 . S
O61 Cd57 2.439 . S
O61 C62 1.208 . S
C62 O60 1.247 . S
C62 O61 1.208 . S
C63 O68 1.247 . S
C63 O69 1.208 . S
C64 O56 1.315 . S
C64 O59 1.279 . S
C65 O66 1.315 . S
C65 O67 1.279 . S
O66 Cd58 2.223 . S
O66 C65 1.315 . S
O67 Cd57 2.240 . S
O67 C65 1.279 . S
O68 Cd58 2.297 1_556 S
O68 C63 1.247 . S
O69 Cd58 2.439 1_556 S
O69 C63 1.208 . S
O70 Cd71 2.223 . S
O70 C78 1.315 . S
Cd71 O70 2.223 . S
Cd71 O74 2.297 . S
Cd71 O75 2.439 . S
Cd71 O81 2.240 . S
Cd72 O73 2.240 . S
Cd72 O80 2.223 . S
Cd72 O82 2.297 1_554 S
Cd72 O83 2.439 1_554 S
O73 Cd72 2.240 . S
O73 C78 1.279 . S
O74 Cd71 2.297 . S
O74 C76 1.247 . S
O75 Cd71 2.439 . S
O75 C76 1.208 . S
C76 O74 1.247 . S
C76 O75 1.208 . S
C77 O82 1.247 . S
C77 O83 1.208 . S
C78 O70 1.315 . S
C78 O73 1.279 . S
C79 O80 1.315 . S
C79 O81 1.279 . S
O80 Cd72 2.223 . S
O80 C79 1.315 . S
O81 Cd71 2.240 . S
O81 C79 1.279 . S
O82 Cd72 2.297 1_556 S
O82 C77 1.247 . S
O83 Cd72 2.439 1_556 S
O83 C77 1.208 . S
O84 Cd85 2.223 . S
O84 C92 1.315 . S
Cd85 O84 2.223 . S
Cd85 O88 2.297 . S
Cd85 O89 2.439 . S
Cd85 O95 2.240 . S
Cd86 O87 2.240 . S
Cd86 O94 2.223 . S
Cd86 O96 2.297 . S
Cd86 O97 2.439 . S
O87 Cd86 2.240 . S
O87 C92 1.279 . S
O88 Cd85 2.297 . S
O88 C90 1.247 . S
O89 Cd85 2.439 . S
O89 C90 1.208 . S
C90 O88 1.247 . S
C90 O89 1.208 . S
C91 O96 1.247 . S
C91 O97 1.208 . S
C92 O84 1.315 . S
C92 O87 1.279 . S
C93 O94 1.315 . S
C93 O95 1.279 . S
O94 Cd86 2.223 . S
O94 C93 1.315 . S
O95 Cd85 2.240 . S
O95 C93 1.279 . S
O96 Cd86 2.297 . S
O96 C91 1.247 . S
O97 Cd86 2.439 . S
O97 C91 1.208 . S
O98 Cd99 2.223 . S
O98 C106 1.315 . S
Cd99 O98 2.223 . S
Cd99 O102 2.297 . S
Cd99 O103 2.439 . S
Cd99 O109 2.240 . S
Cd100 O101 2.240 . S
Cd100 O108 2.223 . S
Cd100 O110 2.297 . S
Cd100 O111 2.439 . S
O101 Cd100 2.240 . S
O101 C106 1.279 . S
O102 Cd99 2.297 . S
O102 C104 1.247 . S
O103 Cd99 2.439 . S
O103 C104 1.208 . S
C104 O102 1.247 . S
C104 O103 1.208 . S
C105 O110 1.247 . S
C105 O111 1.208 . S
C106 O98 1.315 . S
C106 O101 1.279 . S
C107 O108 1.315 . S
C107 O109 1.279 . S
O108 Cd100 2.223 . S
O108 C107 1.315 . S
O109 Cd99 2.240 . S
O109 C107 1.279 . S
O110 Cd100 2.297 . S
O110 C105 1.247 . S
O111 Cd100 2.439 . S
O111 C105 1.208 . S
H112 C120 0.950 . S
H113 C125 0.950 . S
H114 C122 0.940 1_455 S
H115 C124 0.950 . S
H116 C126 0.950 . S
H117 C128 0.940 1_655 S
H118 C130 0.950 . S
H119 C131 0.950 . S
C120 H112 0.950 . S
C120 C121 1.386 1_556 S
C120 C122 1.398 . S
C121 C120 1.386 1_554 S
C121 C125 1.393 . S
C122 H114 0.940 1_655 S
C122 C120 1.398 . S
C122 C123 1.404 1_556 S
C123 C122 1.404 1_554 S
C123 C124 1.398 . S
C123 C129 1.491 1_665 S
C124 H115 0.950 . S
C124 C123 1.398 . S
C124 C125 1.391 . S
C125 H113 0.950 . S
C125 C121 1.393 . S
C125 C124 1.391 . S
C126 H116 0.950 . S
C126 C127 1.386 . S
C126 C128 1.398 . S
C127 C126 1.386 . S
C127 C131 1.393 1_554 S
C128 H117 0.940 1_455 S
C128 C126 1.398 . S
C128 C129 1.404 . S
C129 C123 1.491 1_445 S
C129 C128 1.404 . S
C129 C130 1.398 1_554 S
C130 H118 0.950 . S
C130 C129 1.398 1_556 S
C130 C131 1.391 . S
C131 H119 0.950 . S
C131 C127 1.393 1_556 S
C131 C130 1.391 . S
H132 C140 0.950 . S
H133 C145 0.950 . S
H134 C142 0.950 . S
H135 C144 0.950 . S
H136 C146 0.950 . S
H137 C148 0.950 . S
H138 C150 0.950 . S
H139 C151 0.950 . S
C140 H132 0.950 . S
C140 C141 1.386 . S
C140 C142 1.391 1_455 S
C141 C140 1.386 . S
C141 C145 1.393 . S
C142 H134 0.950 . S
C142 C140 1.391 1_655 S
C142 C143 1.400 1_655 S
C143 C142 1.400 1_455 S
C143 C144 1.398 . S
C143 C149 1.491 1_465 S
C144 H135 0.950 . S
C144 C143 1.398 . S
C144 C145 1.391 . S
C145 H133 0.950 . S
C145 C141 1.393 . S
C145 C144 1.391 . S
C146 H136 0.950 . S
C146 C147 1.386 . S
C146 C148 1.391 1_655 S
C147 C146 1.386 . S
C147 C151 1.393 . S
C148 H137 0.950 . S
C148 C146 1.391 1_455 S
C148 C149 1.400 1_455 S
C149 C143 1.491 1_645 S
C149 C148 1.400 1_655 S
C149 C150 1.398 . S
C150 H138 0.950 . S
C150 C149 1.398 . S
C150 C151 1.391 . S
C151 H139 0.950 . S
C151 C147 1.393 . S
C151 C150 1.391 . S
H152 C160 0.950 . S
H153 C165 0.950 . S
H154 C162 0.950 . S
H155 C164 0.950 . S
H156 C166 0.950 . S
H157 C168 0.950 . S
H158 C170 0.950 . S
H159 C171 0.950 . S
C160 H152 0.950 . S
C160 C161 1.386 . S
C160 C162 1.391 . S
C161 C160 1.386 . S
C161 C165 1.393 . S
C162 H154 0.950 . S
C162 C160 1.391 . S
C162 C163 1.400 . S
C163 C162 1.400 . S
C163 C164 1.398 . S
C163 C169 1.491 . S
C164 H155 0.950 . S
C164 C163 1.398 . S
C164 C165 1.391 . S
C165 H153 0.950 . S
C165 C161 1.393 . S
C165 C164 1.391 . S
C166 H156 0.950 . S
C166 C167 1.386 . S
C166 C168 1.391 . S
C167 C166 1.386 . S
C167 C171 1.393 . S
C168 H157 0.950 . S
C168 C166 1.391 . S
C168 C169 1.400 . S
C169 C163 1.491 . S
C169 C168 1.400 . S
C169 C170 1.398 . S
C170 H158 0.950 . S
C170 C169 1.398 . S
C170 C171 1.391 . S
C171 H159 0.950 . S
C171 C167 1.393 . S
C171 C170 1.391 . S
H172 C180 0.950 . S
H173 C185 0.950 . S
H174 C182 0.950 . S
H175 C184 0.950 . S
H176 C186 0.950 . S
H177 C188 0.950 . S
H178 C190 0.950 . S
H179 C191 0.950 . S
C180 H172 0.950 . S
C180 C181 1.386 . S
C180 C182 1.391 . S
C181 C180 1.386 . S
C181 C185 1.393 . S
C182 H174 0.950 . S
C182 C180 1.391 . S
C182 C183 1.400 . S
C183 C182 1.400 . S
C183 C184 1.398 . S
C183 C189 1.491 . S
C184 H175 0.950 . S
C184 C183 1.398 . S
C184 C185 1.391 . S
C185 H173 0.950 . S
C185 C181 1.393 . S
C185 C184 1.391 . S
C186 H176 0.950 . S
C186 C187 1.386 . S
C186 C188 1.391 . S
C187 C186 1.386 . S
C187 C191 1.393 . S
C188 H177 0.950 . S
C188 C186 1.391 . S
C188 C189 1.400 . S
C189 C183 1.491 . S
C189 C188 1.400 . S
C189 C190 1.398 . S
C190 H178 0.950 . S
C190 C189 1.398 . S
C190 C191 1.391 . S
C191 H179 0.950 . S
C191 C187 1.393 . S
C191 C190 1.391 . S
H192 C200 0.950 . S
H193 C205 0.950 . S
H194 C202 0.950 . S
H195 C204 0.950 . S
H196 C206 0.950 . S
H197 C208 0.950 . S
H198 C210 0.950 . S
H199 C211 0.950 . S
C200 H192 0.950 . S
C200 C201 1.386 . S
C200 C202 1.391 . S
C201 C200 1.386 . S
C201 C205 1.393 1_455 S
C202 H194 0.950 . S
C202 C200 1.391 . S
C202 C203 1.400 . S
C203 C202 1.400 . S
C203 C204 1.398 1_455 S
C203 C209 1.491 1_455 S
C204 H195 0.950 . S
C204 C203 1.398 1_655 S
C204 C205 1.391 . S
C205 H193 0.950 . S
C205 C201 1.393 1_655 S
C205 C204 1.391 . S
C206 H196 0.950 . S
C206 C207 1.386 . S
C206 C208 1.391 . S
C207 C206 1.386 . S
C207 C211 1.393 1_655 S
C208 H197 0.950 . S
C208 C206 1.391 . S
C208 C209 1.400 . S
C209 C203 1.491 1_655 S
C209 C208 1.400 . S
C209 C210 1.398 1_655 S
C210 H198 0.950 . S
C210 C209 1.398 1_455 S
C210 C211 1.391 . S
C211 H199 0.950 . S
C211 C207 1.393 1_455 S
C211 C210 1.391 . S
H212 C220 0.950 . S
H213 C225 0.950 . S
H214 C222 0.950 . S
H215 C224 0.950 . S
H216 C226 0.950 . S
H217 C228 0.950 . S
H218 C230 0.950 . S
H219 C231 0.950 . S
C220 H212 0.950 . S
C220 C221 1.386 1_655 S
C220 C222 1.391 . S
C221 C220 1.386 1_455 S
C221 C225 1.393 . S
C222 H214 0.950 . S
C222 C220 1.391 . S
C222 C223 1.400 1_655 S
C223 C222 1.400 1_455 S
C223 C224 1.398 . S
C223 C229 1.491 1_455 S
C224 H215 0.950 . S
C224 C223 1.398 . S
C224 C225 1.391 . S
C225 H213 0.950 . S
C225 C221 1.393 . S
C225 C224 1.391 . S
C226 H216 0.950 . S
C226 C227 1.386 1_455 S
C226 C228 1.391 . S
C227 C226 1.386 1_655 S
C227 C231 1.393 . S
C228 H217 0.950 . S
C228 C226 1.391 . S
C228 C229 1.400 1_455 S
C229 C223 1.491 1_655 S
C229 C228 1.400 1_655 S
C229 C230 1.398 . S
C230 H218 0.950 . S
C230 C229 1.398 . S
C230 C231 1.391 . S
C231 H219 0.950 . S
C231 C227 1.393 . S
C231 C230 1.391 . S
H232 C240 0.950 . S
H233 C245 0.950 . S
H234 C242 0.950 . S
H235 C244 0.950 . S
H236 C246 0.950 . S
H237 C248 0.950 . S
H238 C250 0.950 . S
H239 C251 0.950 . S
C240 H232 0.950 . S
C240 C241 1.386 . S
C240 C242 1.391 . S
C241 C240 1.386 . S
C241 C245 1.393 . S
C242 H234 0.950 . S
C242 C240 1.391 . S
C242 C243 1.400 . S
C243 C242 1.400 . S
C243 C244 1.398 1_455 S
C243 C249 1.491 1_455 S
C244 H235 0.950 . S
C244 C243 1.398 1_655 S
C244 C245 1.391 1_655 S
C245 H233 0.950 . S
C245 C241 1.393 . S
C245 C244 1.391 1_455 S
C246 H236 0.950 . S
C246 C247 1.386 . S
C246 C248 1.391 . S
C247 C246 1.386 . S
C247 C251 1.393 . S
C248 H237 0.950 . S
C248 C246 1.391 . S
C248 C249 1.400 . S
C249 C243 1.491 1_655 S
C249 C248 1.400 . S
C249 C250 1.398 1_655 S
C250 H238 0.950 . S
C250 C249 1.398 1_455 S
C250 C251 1.391 1_455 S
C251 H239 0.950 . S
C251 C247 1.393 . S
C251 C250 1.391 1_655 S
H252 C260 0.950 . S
H253 C265 0.950 . S
H254 C262 0.950 . S
H255 C264 0.950 . S
H256 C266 0.950 . S
H257 C268 0.950 . S
H258 C270 0.950 . S
H259 C271 0.950 . S
C260 H252 0.950 . S
C260 C261 1.386 . S
C260 C262 1.391 . S
C261 C260 1.386 . S
C261 C265 1.393 . S
C262 H254 0.950 . S
C262 C260 1.391 . S
C262 C263 1.400 . S
C263 C262 1.400 . S
C263 C264 1.398 . S
C263 C269 1.491 1_455 S
C264 H255 0.950 . S
C264 C263 1.398 . S
C264 C265 1.391 . S
C265 H253 0.950 . S
C265 C261 1.393 . S
C265 C264 1.391 . S
C266 H256 0.950 . S
C266 C267 1.386 . S
C266 C268 1.391 . S
C267 C266 1.386 . S
C267 C271 1.393 . S
C268 H257 0.950 . S
C268 C266 1.391 . S
C268 C269 1.400 . S
C269 C263 1.491 1_655 S
C269 C268 1.400 . S
C269 C270 1.398 . S
C270 H258 0.950 . S
C270 C269 1.398 . S
C270 C271 1.391 . S
C271 H259 0.950 . S
C271 C267 1.393 . S
C271 C270 1.391 . S
H272 C280 0.950 . S
H273 C285 0.950 . S
H274 C282 0.950 . S
H275 C284 0.950 . S
H276 C286 0.950 . S
H277 C288 0.950 . S
H278 C290 0.950 . S
H279 C291 0.950 . S
C280 H272 0.950 . S
C280 C281 1.386 . S
C280 C282 1.391 . S
C281 C280 1.386 . S
C281 C285 1.393 . S
C282 H274 0.950 . S
C282 C280 1.391 . S
C282 C283 1.400 . S
C283 C282 1.400 . S
C283 C284 1.398 . S
C283 C289 1.491 . S
C284 H275 0.950 . S
C284 C283 1.398 . S
C284 C285 1.391 . S
C285 H273 0.950 . S
C285 C281 1.393 . S
C285 C284 1.391 . S
C286 H276 0.950 . S
C286 C287 1.386 . S
C286 C288 1.391 . S
C287 C286 1.386 . S
C287 C291 1.393 . S
C288 H277 0.950 . S
C288 C286 1.391 . S
C288 C289 1.400 . S
C289 C283 1.491 . S
C289 C288 1.400 . S
C289 C290 1.398 . S
C290 H278 0.950 . S
C290 C289 1.398 . S
C290 C291 1.391 . S
C291 H279 0.950 . S
C291 C287 1.393 . S
C291 C290 1.391 . S
H292 C300 0.950 . S
H293 C305 0.950 . S
H294 C302 0.950 . S
H295 C304 0.950 . S
H296 C306 0.950 . S
H297 C308 0.950 . S
H298 C310 0.950 . S
H299 C311 0.950 . S
C300 H292 0.950 . S
C300 C301 1.386 . S
C300 C302 1.391 . S
C301 C300 1.386 . S
C301 C305 1.393 . S
C302 H294 0.950 . S
C302 C300 1.391 . S
C302 C303 1.400 . S
C303 C302 1.400 . S
C303 C304 1.398 . S
C303 C309 1.491 . S
C304 H295 0.950 . S
C304 C303 1.398 . S
C304 C305 1.391 . S
C305 H293 0.950 . S
C305 C301 1.393 . S
C305 C304 1.391 . S
C306 H296 0.950 . S
C306 C307 1.386 . S
C306 C308 1.391 . S
C307 C306 1.386 . S
C307 C311 1.393 . S
C308 H297 0.950 . S
C308 C306 1.391 . S
C308 C309 1.400 . S
C309 C303 1.491 . S
C309 C308 1.400 . S
C309 C310 1.398 . S
C310 H298 0.950 . S
C310 C309 1.398 . S
C310 C311 1.391 . S
C311 H299 0.950 . S
C311 C307 1.393 . S
C311 C310 1.391 . S
H312 C320 0.950 . S
H313 C325 0.950 . S
H314 C322 0.950 . S
H315 C324 0.950 . S
H316 C326 0.950 . S
H317 C328 0.950 . S
H318 C330 0.950 . S
H319 C331 0.950 . S
C320 H312 0.950 . S
C320 C321 1.386 . S
C320 C322 1.391 . S
C321 C320 1.386 . S
C321 C325 1.393 . S
C322 H314 0.950 . S
C322 C320 1.391 . S
C322 C323 1.400 . S
C323 C322 1.400 . S
C323 C324 1.398 . S
C323 C329 1.491 . S
C324 H315 0.950 . S
C324 C323 1.398 . S
C324 C325 1.391 . S
C325 H313 0.950 . S
C325 C321 1.393 . S
C325 C324 1.391 . S
C326 H316 0.950 . S
C326 C327 1.386 . S
C326 C328 1.391 . S
C327 C326 1.386 . S
C327 C331 1.393 . S
C328 H317 0.950 . S
C328 C326 1.391 . S
C328 C329 1.400 . S
C329 C323 1.491 . S
C329 C328 1.400 . S
C329 C330 1.398 . S
C330 H318 0.950 . S
C330 C329 1.398 . S
C330 C331 1.391 . S
C331 H319 0.950 . S
C331 C327 1.393 . S
C331 C330 1.391 . S
H332 C340 0.950 . S
H333 C345 0.950 . S
H334 C342 0.950 . S
H335 C344 0.950 . S
H336 C346 0.950 . S
H337 C348 0.950 . S
H338 C350 0.950 . S
H339 C351 0.950 . S
C340 H332 0.950 . S
C340 C341 1.386 . S
C340 C342 1.391 . S
C341 C340 1.386 . S
C341 C345 1.393 . S
C342 H334 0.950 . S
C342 C340 1.391 . S
C342 C343 1.400 . S
C343 C342 1.400 . S
C343 C344 1.398 . S
C343 C349 1.491 . S
C344 H335 0.950 . S
C344 C343 1.398 . S
C344 C345 1.391 . S
C345 H333 0.950 . S
C345 C341 1.393 . S
C345 C344 1.391 . S
C346 H336 0.950 . S
C346 C347 1.386 . S
C346 C348 1.391 . S
C347 C346 1.386 . S
C347 C351 1.393 . S
C348 H337 0.950 . S
C348 C346 1.391 . S
C348 C349 1.400 . S
C349 C343 1.491 . S
C349 C348 1.400 . S
C349 C350 1.398 . S
C350 H338 0.950 . S
C350 C349 1.398 . S
C350 C351 1.391 . S
C351 H339 0.950 . S
C351 C347 1.393 . S
C351 C350 1.391 . S
H352 C360 0.950 . S
H353 C365 0.950 . S
H354 C362 0.950 . S
H355 C364 0.950 . S
H356 C366 0.950 . S
H357 C368 0.950 . S
H358 C370 0.950 . S
H359 C371 0.950 . S
C360 H352 0.950 . S
C360 C361 1.386 . S
C360 C362 1.391 . S
C361 C360 1.386 . S
C361 C365 1.393 . S
C362 H354 0.950 . S
C362 C360 1.391 . S
C362 C363 1.400 . S
C363 C362 1.400 . S
C363 C364 1.398 . S
C363 C369 1.491 . S
C364 H355 0.950 . S
C364 C363 1.398 . S
C364 C365 1.391 . S
C365 H353 0.950 . S
C365 C361 1.393 . S
C365 C364 1.391 . S
C366 H356 0.950 . S
C366 C367 1.386 . S
C366 C368 1.391 . S
C367 C366 1.386 . S
C367 C371 1.393 . S
C368 H357 0.950 . S
C368 C366 1.391 . S
C368 C369 1.400 . S
C369 C363 1.491 . S
C369 C368 1.400 . S
C369 C370 1.398 . S
C370 H358 0.950 . S
C370 C369 1.398 . S
C370 C371 1.391 . S
C371 H359 0.950 . S
C371 C367 1.393 . S
C371 C370 1.391 . S
H372 C380 0.950 . S
H373 C385 0.950 1_556 S
H374 C382 0.950 . S
H375 C384 0.950 1_556 S
H376 C386 0.950 1_556 S
H377 C388 0.950 1_556 S
H378 C390 0.950 . S
H379 C391 0.950 . S
C380 H372 0.950 . S
C380 C381 1.386 . S
C380 C382 1.391 . S
C381 C380 1.386 . S
C381 C385 1.393 . S
C382 H374 0.950 . S
C382 C380 1.391 . S
C382 C383 1.400 . S
C383 C382 1.400 . S
C383 C384 1.398 . S
C383 C389 1.491 . S
C384 H375 0.950 1_554 S
C384 C383 1.398 . S
C384 C385 1.391 . S
C385 H373 0.950 1_554 S
C385 C381 1.393 . S
C385 C384 1.391 . S
C386 H376 0.950 1_554 S
C386 C387 1.386 . S
C386 C388 1.391 . S
C387 C386 1.386 . S
C387 C391 1.393 . S
C388 H377 0.950 1_554 S
C388 C386 1.391 . S
C388 C389 1.400 . S
C389 C383 1.491 . S
C389 C388 1.400 . S
C389 C390 1.398 . S
C390 H378 0.950 . S
C390 C389 1.398 . S
C390 C391 1.391 . S
C391 H379 0.950 . S
C391 C387 1.393 . S
C391 C390 1.391 . S
H392 C400 0.950 . S
H393 C405 0.950 . S
H394 C402 0.950 . S
H395 C404 0.950 . S
H396 C406 0.950 . S
H397 C408 0.950 . S
H398 C410 0.950 . S
H399 C411 0.950 . S
C400 H392 0.950 . S
C400 C401 1.386 . S
C400 C402 1.391 . S
C401 C400 1.386 . S
C401 C405 1.393 . S
C402 H394 0.950 . S
C402 C400 1.391 . S
C402 C403 1.400 . S
C403 C402 1.400 . S
C403 C404 1.398 . S
C403 C409 1.491 . S
C404 H395 0.950 . S
C404 C403 1.398 . S
C404 C405 1.391 . S
C405 H393 0.950 . S
C405 C401 1.393 . S
C405 C404 1.391 . S
C406 H396 0.950 . S
C406 C407 1.386 . S
C406 C408 1.391 . S
C407 C406 1.386 . S
C407 C411 1.393 . S
C408 H397 0.950 . S
C408 C406 1.391 . S
C408 C409 1.400 . S
C409 C403 1.491 . S
C409 C408 1.400 . S
C409 C410 1.398 . S
C410 H398 0.950 . S
C410 C409 1.398 . S
C410 C411 1.391 . S
C411 H399 0.950 . S
C411 C407 1.393 . S
C411 C410 1.391 . S
H412 C420 0.950 . S
H413 C425 0.950 . S
H414 C422 0.950 . S
H415 C424 0.950 . S
H416 C426 0.950 . S
H417 C428 0.950 . S
H418 C430 0.950 . S
H419 C431 0.950 . S
C420 H412 0.950 . S
C420 C421 1.386 . S
C420 C422 1.391 . S
C421 C420 1.386 . S
C421 C425 1.393 . S
C422 H414 0.950 . S
C422 C420 1.391 . S
C422 C423 1.400 . S
C423 C422 1.400 . S
C423 C424 1.398 . S
C423 C429 1.491 . S
C424 H415 0.950 . S
C424 C423 1.398 . S
C424 C425 1.391 . S
C425 H413 0.950 . S
C425 C421 1.393 . S
C425 C424 1.391 . S
C426 H416 0.950 . S
C426 C427 1.386 . S
C426 C428 1.391 . S
C427 C426 1.386 . S
C427 C431 1.393 . S
C428 H417 0.950 . S
C428 C426 1.391 . S
C428 C429 1.400 . S
C429 C423 1.491 . S
C429 C428 1.400 . S
C429 C430 1.398 . S
C430 H418 0.950 . S
C430 C429 1.398 . S
C430 C431 1.391 . S
C431 H419 0.950 . S
C431 C427 1.393 . S
C431 C430 1.391 . S
C121 C23 1.490 . S
C127 C9 1.493 . S
C141 C37 1.474 . S
C147 C51 1.480 . S
C161 C65 1.480 . S
C167 C79 1.491 . S
C181 C93 1.485 . S
C187 C107 1.475 . S
C201 C8 1.305 . S
C207 C50 1.294 . S
C221 C36 1.300 . S
C227 C22 1.308 . S
C241 C35 1.440 . S
C247 C21 1.441 . S
C261 C7 1.448 . S
C267 C49 1.448 . S
C281 C64 1.310 . S
C287 C106 1.305 . S
C301 C92 1.289 . S
C307 C78 1.284 . S
C321 C77 1.448 . S
C327 C91 1.444 . S
C341 C63 1.441 . S
C347 C105 1.447 . S
C361 C76 1.514 . S
C367 C6 1.517 . S
C381 C62 1.511 . S
C387 C20 1.513 . S
C401 C34 1.511 . S
C407 C104 1.511 . S
C421 C90 1.518 . S
C427 C48 1.522 . S
