# Generated by pormake.
# Topology uog, (4)-cn, num edge types: 1
# Building blocks:
#     Node 0, Type 0, BuildingBlock: ICAMEG_clean_sbu_1, # of connection points: 4
#     Node 1, Type 0, BuildingBlock: ICAMEG_clean_sbu_1, # of connection points: 4
#     Node 2, Type 0, BuildingBlock: ICAMEG_clean_sbu_1, # of connection points: 4
#     Node 3, Type 0, BuildingBlock: ICAMEG_clean_sbu_1, # of connection points: 4
#     Node 4, Type 0, BuildingBlock: ICAMEG_clean_sbu_1, # of connection points: 4
#     Node 5, Type 0, BuildingBlock: ICAMEG_clean_sbu_1, # of connection points: 4
#     Edge 6, Type (0, 0), BuildingBlock: EYOCIG_clean_linker_4, # of connection points: 2
#     Edge 7, Type (0, 0), BuildingBlock: EYOCIG_clean_linker_4, # of connection points: 2
#     Edge 8, Type (0, 0), BuildingBlock: EYOCIG_clean_linker_4, # of connection points: 2
#     Edge 9, Type (0, 0), BuildingBlock: EYOCIG_clean_linker_4, # of connection points: 2
#     Edge 10, Type (0, 0), BuildingBlock: EYOCIG_clean_linker_4, # of connection points: 2
#     Edge 11, Type (0, 0), BuildingBlock: EYOCIG_clean_linker_4, # of connection points: 2
#     Edge 12, Type (0, 0), BuildingBlock: EYOCIG_clean_linker_4, # of connection points: 2
#     Edge 13, Type (0, 0), BuildingBlock: EYOCIG_clean_linker_4, # of connection points: 2
#     Edge 14, Type (0, 0), BuildingBlock: EYOCIG_clean_linker_4, # of connection points: 2
#     Edge 15, Type (0, 0), BuildingBlock: EYOCIG_clean_linker_4, # of connection points: 2
#     Edge 16, Type (0, 0), BuildingBlock: EYOCIG_clean_linker_4, # of connection points: 2
#     Edge 17, Type (0, 0), BuildingBlock: EYOCIG_clean_linker_4, # of connection points: 2
# Relax obj value: 0.058
# Max RMSD: 0.119
# Mean RMSD: 0.119
data_MOF--net-uog--node1-ICAMEG_clean_sbu_1--edge1-EYOCIG_clean_linker_4
_symmetry_space_group_name_H-M    P1
_symmetry_Int_Tables_number       1
_symmetry_cell_setting            triclinic
loop_
_symmetry_equiv_pos_as_xyz
'x, y, z'
_cell_length_a     23.764422
_cell_length_b     23.771043
_cell_length_c     36.460544
_cell_angle_alpha  90.029205
_cell_angle_beta   89.992302
_cell_angle_gamma 120.01057
loop_
_atom_site_label
_atom_site_type_symbol
_atom_site_fract_x
_atom_site_fract_y
_atom_site_fract_z
_atom_type_partial_charge
Co0 Co 0.68862 0.38749 0.16177 0.0
Co1 Co 0.53729 0.27193 0.19303 0.0
O2 O 0.6123 0.30039 0.16064 0.0
C3 C 0.64294 0.3674 0.0849 0.0
O4 O 0.58539 0.35172 0.09771 0.0
C5 C 0.57272 0.17024 0.20185 0.0
O6 O 0.63344 0.2157 0.20659 0.0
O7 O 0.59534 0.30026 0.23664 0.0
O8 O 0.68733 0.3885 0.21714 0.0
H9 H 0.41388 0.29084 0.29974 0.0
H10 H 0.69382 0.28226 0.12066 0.0
O11 O 0.69125 0.38591 0.10649 0.0
H12 H 0.87259 0.36166 0.21053 0.0
H13 H 0.90768 0.56483 0.11871 0.0
H14 H 0.72615 0.50728 0.20429 0.0
H15 H 0.80155 0.40952 0.20778 0.0
H16 H 0.81248 0.45403 0.11919 0.0
O17 O 0.52852 0.18422 0.19598 0.0
H18 H 0.50669 0.32854 0.25723 0.0
H19 H 0.40897 0.15023 0.19883 0.0
H20 H 0.82056 0.61845 0.20495 0.0
H21 H 0.76415 0.2334 0.12224 0.0
H22 H 0.91216 0.64783 0.1619 0.0
H23 H 0.85434 0.27318 0.1674 0.0
O24 O 0.63286 0.42794 0.15959 0.0
H25 H 0.45834 0.16282 0.07075 0.0
H26 H 0.42831 0.29062 0.16743 0.0
H27 H 0.35947 0.25926 0.11211 0.0
H28 H 0.37427 0.19488 0.06329 0.0
H29 H 0.52649 0.19565 0.12641 0.0
H30 H 0.31529 0.11052 0.24075 0.0
H31 H 0.31734 0.18108 0.29161 0.0
O32 O 0.54286 0.35842 0.19065 0.0
C33 C 0.65145 0.3494 0.24226 0.0
C34 C 0.41232 0.25975 0.27759 0.0
C35 C 0.35701 0.1585 0.24452 0.0
N36 N 0.46299 0.24188 0.22541 0.0
C37 C 0.46463 0.2809 0.25339 0.0
C38 C 0.41023 0.18124 0.2209 0.0
C39 C 0.35819 0.19813 0.27305 0.0
C40 C 0.73313 0.3 0.14028 0.0
N41 N 0.74374 0.3489 0.16396 0.0
C42 C 0.77269 0.27203 0.14111 0.0
C43 C 0.82324 0.29432 0.16649 0.0
C44 C 0.83348 0.34392 0.19071 0.0
C45 C 0.79293 0.37069 0.1891 0.0
C46 C 0.86812 0.55257 0.13764 0.0
C47 C 0.76606 0.51958 0.18567 0.0
C48 C 0.81406 0.48997 0.13798 0.0
N49 N 0.7641 0.47412 0.16194 0.0
C50 C 0.81928 0.58266 0.18609 0.0
C51 C 0.87062 0.59912 0.1619 0.0
C52 C 0.57868 0.41232 0.17466 0.0
C53 C 0.45128 0.19069 0.09189 0.0
C54 C 0.43513 0.26268 0.1463 0.0
C55 C 0.3959 0.24495 0.11506 0.0
C56 C 0.4042 0.20878 0.08769 0.0
N57 N 0.48122 0.24474 0.15022 0.0
C58 C 0.48952 0.20916 0.12354 0.0
Co59 Co 0.31231 0.68331 0.4951 0.0
Co60 Co 0.27644 0.532 0.52632 0.0
O61 O 0.32304 0.60698 0.49395 0.0
C62 C 0.28676 0.63772 0.41821 0.0
O63 O 0.24481 0.58018 0.43098 0.0
C64 C 0.41355 0.56726 0.53511 0.0
O65 O 0.42891 0.62798 0.53987 0.0
O66 O 0.30628 0.59003 0.56995 0.0
O67 O 0.30995 0.68196 0.55047 0.0
H68 H 0.13418 0.40872 0.63304 0.0
H69 H 0.42277 0.68849 0.45403 0.0
O70 O 0.31656 0.68599 0.43982 0.0
H71 H 0.52217 0.86713 0.54399 0.0
H72 H 0.35417 0.90238 0.45213 0.0
H73 H 0.23003 0.72084 0.5376 0.0
H74 H 0.40323 0.79615 0.54118 0.0
H75 H 0.36972 0.80718 0.45258 0.0
O76 O 0.35533 0.52312 0.52924 0.0
H77 H 0.18932 0.50149 0.59055 0.0
H78 H 0.26965 0.40364 0.53207 0.0
H79 H 0.21331 0.81525 0.53829 0.0
H80 H 0.542 0.75877 0.45567 0.0
H81 H 0.27562 0.90685 0.4953 0.0
H82 H 0.59242 0.84889 0.50088 0.0
O83 O 0.21605 0.62759 0.49287 0.0
H84 H 0.3063 0.45299 0.404 0.0
H85 H 0.14863 0.42314 0.50073 0.0
H86 H 0.111 0.35434 0.44539 0.0
H87 H 0.19009 0.36905 0.39654 0.0
H88 H 0.34179 0.52111 0.45967 0.0
H89 H 0.21565 0.30999 0.57396 0.0
H90 H 0.14726 0.31213 0.62486 0.0
O91 O 0.19555 0.53767 0.52397 0.0
C92 C 0.31322 0.64611 0.57558 0.0
C93 C 0.16366 0.40712 0.61088 0.0
C94 C 0.20945 0.35173 0.57776 0.0
N95 N 0.23215 0.45773 0.55869 0.0
C96 C 0.19483 0.45941 0.58669 0.0
C97 C 0.23995 0.40493 0.55414 0.0
C98 C 0.17107 0.35296 0.6063 0.0
C99 C 0.44435 0.72777 0.47367 0.0
N100 N 0.40604 0.73838 0.49734 0.0
C101 C 0.51189 0.7673 0.47454 0.0
C102 C 0.54016 0.81781 0.49994 0.0
C103 C 0.50079 0.82805 0.52416 0.0
C104 C 0.43346 0.78753 0.52251 0.0
C105 C 0.32683 0.86281 0.47103 0.0
C106 C 0.25767 0.76075 0.51901 0.0
C107 C 0.33534 0.80875 0.47136 0.0
N108 N 0.30118 0.75879 0.49529 0.0
C109 C 0.24785 0.81397 0.51944 0.0
C110 C 0.28277 0.86532 0.49528 0.0
C111 C 0.17748 0.57347 0.50796 0.0
C112 C 0.27141 0.44597 0.42514 0.0
C113 C 0.18336 0.42992 0.47958 0.0
C114 C 0.16177 0.39072 0.44833 0.0
C115 C 0.20618 0.39896 0.42095 0.0
N116 N 0.24743 0.47594 0.4835 0.0
C117 C 0.29127 0.4842 0.4568 0.0
Co118 Co 0.6398 0.30675 0.8284 0.0
Co119 Co 0.75523 0.27082 0.85964 0.0
O120 O 0.72687 0.31743 0.82727 0.0
C121 C 0.65984 0.28121 0.7515 0.0
O122 O 0.67539 0.23924 0.76427 0.0
C123 C 0.85719 0.40788 0.86845 0.0
O124 O 0.81183 0.42327 0.87321 0.0
O125 O 0.72708 0.3007 0.90326 0.0
O126 O 0.63878 0.30437 0.88377 0.0
H127 H 0.73617 0.1286 0.96636 0.0
H128 H 0.74515 0.41717 0.78738 0.0
O129 O 0.64138 0.31102 0.77312 0.0
H130 H 0.66596 0.51657 0.87735 0.0
H131 H 0.46261 0.34871 0.7854 0.0
H132 H 0.51994 0.22451 0.87085 0.0
H133 H 0.61793 0.39766 0.8745 0.0
H134 H 0.57338 0.36421 0.78587 0.0
O135 O 0.84306 0.34967 0.86258 0.0
H136 H 0.69858 0.18377 0.92386 0.0
H137 H 0.87679 0.26395 0.86541 0.0
H138 H 0.40881 0.20785 0.87152 0.0
H139 H 0.79417 0.53637 0.78906 0.0
H140 H 0.37955 0.2702 0.82854 0.0
H141 H 0.75449 0.58679 0.83427 0.0
O142 O 0.59922 0.21051 0.82614 0.0
H143 H 0.86406 0.30055 0.73734 0.0
H144 H 0.73617 0.14301 0.83405 0.0
H145 H 0.76727 0.10532 0.77871 0.0
H146 H 0.83169 0.18435 0.72987 0.0
H147 H 0.83149 0.3361 0.793 0.0
H148 H 0.9164 0.20992 0.90732 0.0
H149 H 0.84584 0.14159 0.9582 0.0
O150 O 0.66862 0.18999 0.85729 0.0
C151 C 0.67793 0.30764 0.90888 0.0
C152 C 0.76726 0.15806 0.9442 0.0
C153 C 0.86846 0.20376 0.9111 0.0
N154 N 0.78519 0.22653 0.89202 0.0
C155 C 0.74617 0.18924 0.92001 0.0
C156 C 0.84578 0.23427 0.88748 0.0
C157 C 0.82883 0.16542 0.93964 0.0
C158 C 0.72745 0.43874 0.80701 0.0
N159 N 0.67852 0.40046 0.83067 0.0
C160 C 0.75551 0.50627 0.80791 0.0
C161 C 0.73328 0.53454 0.83331 0.0
C162 C 0.68364 0.49519 0.85751 0.0
C163 C 0.65679 0.42787 0.85584 0.0
C164 C 0.47483 0.32136 0.8043 0.0
C165 C 0.50769 0.25217 0.85226 0.0
C166 C 0.53741 0.32983 0.80464 0.0
N167 N 0.55319 0.29566 0.82857 0.0
C168 C 0.44464 0.24238 0.85268 0.0
C169 C 0.42824 0.27732 0.82853 0.0
C170 C 0.61474 0.17194 0.84125 0.0
C171 C 0.83618 0.26569 0.75848 0.0
C172 C 0.76413 0.17771 0.81291 0.0
C173 C 0.78172 0.15609 0.78166 0.0
C174 C 0.8179 0.20047 0.75428 0.0
N175 N 0.78223 0.24177 0.81683 0.0
C176 C 0.81784 0.28558 0.79014 0.0
Co177 Co 0.34439 0.63459 0.16176 0.0
Co178 Co 0.49591 0.74974 0.19302 0.0
O179 O 0.42092 0.72155 0.16065 0.0
C180 C 0.38989 0.65455 0.08486 0.0
O181 O 0.44741 0.66999 0.09762 0.0
C182 C 0.46111 0.85187 0.20188 0.0
O183 O 0.40032 0.80661 0.20664 0.0
O184 O 0.4379 0.72169 0.23665 0.0
O185 O 0.34579 0.63355 0.21713 0.0
H186 H 0.619 0.73028 0.29969 0.0
H187 H 0.33958 0.74009 0.12078 0.0
O188 O 0.34166 0.6362 0.10648 0.0
H189 H 0.16104 0.66127 0.21075 0.0
H190 H 0.12495 0.45782 0.11873 0.0
H191 H 0.30651 0.51469 0.20417 0.0
H192 H 0.2317 0.61298 0.20787 0.0
H193 H 0.22042 0.56845 0.11923 0.0
O194 O 0.50512 0.83764 0.19599 0.0
H195 H 0.52619 0.69292 0.25721 0.0
H196 H 0.62454 0.87109 0.19883 0.0
H197 H 0.21183 0.40369 0.20481 0.0
H198 H 0.26962 0.78936 0.1225 0.0
H199 H 0.12021 0.37466 0.16183 0.0
H200 H 0.17956 0.74988 0.16771 0.0
O201 O 0.39987 0.59381 0.15948 0.0
H202 H 0.57513 0.85854 0.07076 0.0
H203 H 0.60448 0.73038 0.1674 0.0
H204 H 0.67325 0.76137 0.11207 0.0
H205 H 0.65878 0.82592 0.06326 0.0
H206 H 0.50704 0.82608 0.12642 0.0
H207 H 0.71823 0.91046 0.24072 0.0
H208 H 0.71587 0.8398 0.29156 0.0
O209 O 0.48991 0.66305 0.19063 0.0
C210 C 0.38174 0.67263 0.24225 0.0
C211 C 0.6207 0.76141 0.27756 0.0
C212 C 0.67637 0.86258 0.24449 0.0
N213 N 0.5702 0.77952 0.2254 0.0
C214 C 0.56839 0.74045 0.25337 0.0
C215 C 0.62315 0.84004 0.22088 0.0
C216 C 0.67502 0.8229 0.27301 0.0
C217 C 0.30032 0.72247 0.14042 0.0
N218 N 0.28956 0.6735 0.16405 0.0
C219 C 0.26097 0.75067 0.14134 0.0
C220 C 0.21049 0.72855 0.16674 0.0
C221 C 0.2001 0.67887 0.19092 0.0
C222 C 0.24043 0.65187 0.18922 0.0
C223 C 0.16452 0.46994 0.13763 0.0
C224 C 0.2666 0.50254 0.18559 0.0
C225 C 0.21874 0.53243 0.13798 0.0
N226 N 0.26871 0.54809 0.16191 0.0
C227 C 0.21322 0.43956 0.18599 0.0
C228 C 0.16187 0.42329 0.16184 0.0
C229 C 0.45396 0.60921 0.17458 0.0
C230 C 0.58204 0.83059 0.09189 0.0
C231 C 0.59781 0.7584 0.14628 0.0
C232 C 0.63699 0.77592 0.11503 0.0
C233 C 0.62889 0.81218 0.08767 0.0
N234 N 0.55195 0.77664 0.15022 0.0
C235 C 0.54383 0.81232 0.12354 0.0
Co236 Co 0.72083 0.3388 0.49508 0.0
Co237 Co 0.75705 0.49025 0.52633 0.0
O238 O 0.71031 0.41525 0.49395 0.0
C239 C 0.74648 0.38433 0.41821 0.0
O240 O 0.78853 0.44183 0.431 0.0
C241 C 0.62002 0.4553 0.53511 0.0
O242 O 0.60454 0.39454 0.53986 0.0
O243 O 0.7271 0.43227 0.56995 0.0
O244 O 0.72318 0.3402 0.55045 0.0
H245 H 0.89947 0.61346 0.63307 0.0
H246 H 0.61051 0.33387 0.454 0.0
O247 O 0.71659 0.33608 0.4398 0.0
H248 H 0.51075 0.15533 0.54391 0.0
H249 H 0.67846 0.11951 0.45206 0.0
H250 H 0.8029 0.30105 0.53758 0.0
H251 H 0.62973 0.2261 0.54113 0.0
H252 H 0.66318 0.21489 0.45252 0.0
O253 O 0.67827 0.49935 0.52926 0.0
H254 H 0.84414 0.52065 0.59058 0.0
H255 H 0.76416 0.61877 0.5321 0.0
H256 H 0.81933 0.20647 0.53826 0.0
H257 H 0.49125 0.2638 0.45561 0.0
H258 H 0.75687 0.11486 0.49524 0.0
H259 H 0.44065 0.17374 0.50079 0.0
O260 O 0.81711 0.39434 0.49287 0.0
H261 H 0.72742 0.56927 0.40402 0.0
H262 H 0.88497 0.59888 0.50077 0.0
H263 H 0.92273 0.66759 0.44543 0.0
H264 H 0.84369 0.653 0.39657 0.0
H265 H 0.6918 0.50124 0.45968 0.0
H266 H 0.81835 0.71246 0.57401 0.0
H267 H 0.88666 0.71021 0.62491 0.0
O268 O 0.83781 0.48436 0.52399 0.0
C269 C 0.72001 0.37614 0.57557 0.0
C270 C 0.87002 0.61511 0.61092 0.0
C271 C 0.82443 0.67065 0.5778 0.0
N272 N 0.80147 0.56454 0.55872 0.0
C273 C 0.83875 0.5628 0.58672 0.0
C274 C 0.79382 0.61742 0.55418 0.0
C275 C 0.86276 0.66935 0.60635 0.0
C276 C 0.58885 0.29461 0.47363 0.0
N277 N 0.62707 0.28391 0.4973 0.0
C278 C 0.52129 0.25521 0.47448 0.0
C279 C 0.49292 0.20473 0.49987 0.0
C280 C 0.53221 0.19439 0.52409 0.0
C281 C 0.59956 0.23478 0.52246 0.0
C282 C 0.70586 0.15908 0.47098 0.0
C283 C 0.77518 0.26114 0.51898 0.0
C284 C 0.69751 0.21324 0.47131 0.0
N285 N 0.73174 0.2632 0.49526 0.0
C286 C 0.78485 0.20782 0.5194 0.0
C287 C 0.74984 0.15647 0.49523 0.0
C288 C 0.85577 0.44845 0.50797 0.0
C289 C 0.76228 0.57624 0.42517 0.0
C290 C 0.85026 0.59216 0.47962 0.0
C291 C 0.87192 0.63131 0.44837 0.0
C292 C 0.82755 0.62313 0.42098 0.0
N293 N 0.78616 0.54625 0.48353 0.0
C294 C 0.74235 0.53806 0.45683 0.0
Co295 Co 0.39306 0.71544 0.82846 0.0
Co296 Co 0.27766 0.75146 0.85968 0.0
O297 O 0.30601 0.7048 0.8273 0.0
C298 C 0.37311 0.74101 0.75157 0.0
O299 O 0.35756 0.78298 0.76436 0.0
C300 C 0.17568 0.61441 0.86846 0.0
O301 O 0.22104 0.59902 0.87321 0.0
O302 O 0.3058 0.72162 0.90331 0.0
O303 O 0.39404 0.71783 0.88382 0.0
H304 H 0.29673 0.89384 0.96641 0.0
H305 H 0.28772 0.60505 0.78736 0.0
O306 O 0.39153 0.71118 0.77317 0.0
H307 H 0.36676 0.50558 0.87729 0.0
H308 H 0.57022 0.67337 0.78547 0.0
H309 H 0.5129 0.79764 0.87097 0.0
H310 H 0.41484 0.6245 0.87451 0.0
H311 H 0.45947 0.65793 0.78591 0.0
O312 O 0.18982 0.67263 0.8626 0.0
H313 H 0.33431 0.8386 0.92392 0.0
H314 H 0.15611 0.75836 0.86543 0.0
H315 H 0.62401 0.81424 0.87167 0.0
H316 H 0.23865 0.48584 0.78897 0.0
H317 H 0.65327 0.75186 0.82866 0.0
H318 H 0.27825 0.43539 0.83416 0.0
O319 O 0.43369 0.81168 0.82624 0.0
H320 H 0.16886 0.72158 0.73735 0.0
H321 H 0.29674 0.87924 0.8341 0.0
H322 H 0.26566 0.91687 0.77876 0.0
H323 H 0.20125 0.83777 0.7299 0.0
H324 H 0.20141 0.6861 0.79303 0.0
H325 H 0.11651 0.81246 0.90733 0.0
H326 H 0.18708 0.88086 0.95823 0.0
O327 O 0.36428 0.83228 0.85734 0.0
C328 C 0.35491 0.71462 0.90893 0.0
C329 C 0.26564 0.86436 0.94425 0.0
C330 C 0.16445 0.81862 0.91113 0.0
N331 N 0.2477 0.7958 0.89206 0.0
C332 C 0.28673 0.83313 0.92006 0.0
C333 C 0.18712 0.78806 0.88751 0.0
C334 C 0.20408 0.857 0.93967 0.0
C335 C 0.30538 0.58346 0.80699 0.0
N336 N 0.3543 0.62173 0.83067 0.0
C337 C 0.27729 0.51593 0.80785 0.0
C338 C 0.29948 0.48764 0.83324 0.0
C339 C 0.3491 0.52698 0.85746 0.0
C340 C 0.37599 0.5943 0.85583 0.0
C341 C 0.558 0.70074 0.80438 0.0
C342 C 0.52515 0.76997 0.85237 0.0
C343 C 0.49544 0.6923 0.8047 0.0
N344 N 0.47965 0.72649 0.82865 0.0
C345 C 0.58819 0.77973 0.85281 0.0
C346 C 0.60459 0.74477 0.82864 0.0
C347 C 0.41816 0.85029 0.84133 0.0
C348 C 0.19674 0.75647 0.75851 0.0
C349 C 0.26878 0.84452 0.81295 0.0
C350 C 0.25121 0.8661 0.78171 0.0
C351 C 0.21503 0.82169 0.75432 0.0
N352 N 0.25067 0.78046 0.81687 0.0
C353 C 0.21506 0.73661 0.79017 0.0
C354 C 0.53177 0.04518 0.20407 0.0
C355 C 0.55428 0.10311 0.20346 0.0
C356 C 0.50243 0.97703 0.20408 0.0
C357 C 0.47981 0.91908 0.20347 0.0
C358 C 0.49751 0.52611 0.5373 0.0
C359 C 0.46218 0.54873 0.5367 0.0
C360 C 0.5362 0.49664 0.5373 0.0
C361 C 0.57148 0.47396 0.5367 0.0
C362 C 0.98235 0.4918 0.87065 0.0
C363 C 0.92438 0.45648 0.87005 0.0
C364 C 0.05052 0.53051 0.87065 0.0
C365 C 0.10849 0.56583 0.87005 0.0
C366 C 0.05077 0.5257 0.50559 0.0
C367 C 0.10898 0.54948 0.50599 0.0
C368 C 0.98244 0.49605 0.50559 0.0
C369 C 0.92425 0.47233 0.50598 0.0
C370 C 0.49713 0.97695 0.83891 0.0
C371 C 0.4627 0.91877 0.83933 0.0
C372 C 0.53578 0.04527 0.83889 0.0
C373 C 0.57019 0.10346 0.83927 0.0
C374 C 0.50137 0.52999 0.17222 0.0
C375 C 0.47773 0.56453 0.17261 0.0
C376 C 0.53092 0.49124 0.17226 0.0
C377 C 0.55466 0.4568 0.17268 0.0
C378 C 0.66077 0.33392 0.97725 0.0
C379 C 0.6673 0.32199 0.9458 0.0
C380 C 0.65499 0.34755 0.0145 0.0
C381 C 0.64986 0.35672 0.04665 0.0
C382 C 0.33827 0.65555 0.3106 0.0
C383 C 0.35676 0.66207 0.27916 0.0
C384 C 0.31879 0.64978 0.34783 0.0
C385 C 0.30443 0.64465 0.37997 0.0
C386 C 0.67985 0.31324 0.68114 0.0
C387 C 0.6706 0.29888 0.71327 0.0
C388 C 0.69357 0.3327 0.64391 0.0
C389 C 0.70557 0.35118 0.61248 0.0
C390 C 0.372 0.68827 0.97728 0.0
C391 C 0.36548 0.70023 0.94584 0.0
C392 C 0.3778 0.67457 0.0145 0.0
C393 C 0.38295 0.66532 0.04663 0.0
C394 C 0.71444 0.3723 0.34783 0.0
C395 C 0.72881 0.37742 0.37997 0.0
C396 C 0.69497 0.36654 0.3106 0.0
C397 C 0.67647 0.36002 0.27916 0.0
C398 C 0.35321 0.70902 0.68118 0.0
C399 C 0.36241 0.72336 0.71333 0.0
C400 C 0.33954 0.68957 0.64394 0.0
C401 C 0.32759 0.67109 0.61249 0.0
loop_
_geom_bond_atom_site_label_1
_geom_bond_atom_site_label_2
_geom_bond_distance
_geom_bond_site_symmetry_2
_ccdc_geom_bond_type
Co0 O2 2.143 . S
Co0 O8 2.074 . S
Co0 O11 2.093 . S
Co0 O24 2.097 . S
Co0 N41 2.151 . S
Co0 N49 2.214 . S
Co1 O2 2.160 . S
Co1 O7 2.058 . S
Co1 O17 2.057 . S
Co1 O32 2.037 . S
Co1 N36 2.145 . S
Co1 N57 2.257 . S
O2 Co0 2.143 . S
O2 Co1 2.160 . S
C3 O4 1.278 . S
C3 O11 1.224 . S
O4 C3 1.278 . S
C5 O6 1.245 . S
C5 O17 1.232 . S
O6 C5 1.245 . S
O7 Co1 2.058 . S
O7 C33 1.269 . S
O8 Co0 2.074 . S
O8 C33 1.257 . S
H9 C34 0.930 . S
H10 C40 0.930 . S
O11 Co0 2.093 . S
O11 C3 1.224 . S
H12 C44 0.929 . S
H13 C46 0.930 . S
H14 C47 0.930 . S
H15 C45 0.929 . S
H16 C48 0.928 . S
O17 Co1 2.057 . S
O17 C5 1.232 . S
H18 C37 0.929 . S
H19 C38 0.929 . S
H20 C50 0.931 . S
H21 C42 0.929 . S
H22 C51 0.930 . S
H23 C43 0.931 . S
O24 Co0 2.097 . S
O24 C52 1.214 . S
H25 C53 0.929 . S
H26 C54 0.929 . S
H27 C55 0.930 . S
H28 C56 0.929 . S
H29 C58 0.930 . S
H30 C35 0.930 . S
H31 C39 0.930 . S
O32 Co1 2.037 . S
O32 C52 1.234 . S
C33 O7 1.269 . S
C33 O8 1.257 . S
C34 H9 0.930 . S
C34 C37 1.388 . S
C34 C39 1.418 . S
C35 H30 0.930 . S
C35 C38 1.404 . S
C35 C39 1.353 . S
N36 Co1 2.145 . S
N36 C37 1.397 . S
N36 C38 1.334 . S
C37 H18 0.929 . S
C37 C34 1.388 . S
C37 N36 1.397 . S
C38 H19 0.929 . S
C38 C35 1.404 . S
C38 N36 1.334 . S
C39 H31 0.930 . S
C39 C34 1.418 . S
C39 C35 1.353 . S
C40 H10 0.930 . S
C40 N41 1.330 . S
C40 C42 1.446 . S
N41 Co0 2.151 . S
N41 C40 1.330 . S
N41 C45 1.418 . S
C42 H21 0.929 . S
C42 C40 1.446 . S
C42 C43 1.332 . S
C43 H23 0.931 . S
C43 C42 1.332 . S
C43 C44 1.267 . S
C44 H12 0.929 . S
C44 C43 1.267 . S
C44 C45 1.251 . S
C45 H15 0.929 . S
C45 N41 1.418 . S
C45 C44 1.251 . S
C46 H13 0.930 . S
C46 C48 1.406 . S
C46 C51 1.261 . S
C47 H14 0.930 . S
C47 N49 1.325 . S
C47 C50 1.357 . S
C48 H16 0.928 . S
C48 C46 1.406 . S
C48 N49 1.261 . S
N49 Co0 2.214 . S
N49 C47 1.325 . S
N49 C48 1.261 . S
C50 H20 0.931 . S
C50 C47 1.357 . S
C50 C51 1.312 . S
C51 H22 0.930 . S
C51 C46 1.261 . S
C51 C50 1.312 . S
C52 O24 1.214 . S
C52 O32 1.234 . S
C53 H25 0.929 . S
C53 C56 1.391 . S
C53 C58 1.391 . S
C54 H26 0.929 . S
C54 C55 1.390 . S
C54 N57 1.391 . S
C55 H27 0.930 . S
C55 C54 1.390 . S
C55 C56 1.392 . S
C56 H28 0.929 . S
C56 C53 1.391 . S
C56 C55 1.392 . S
N57 Co1 2.257 . S
N57 C54 1.391 . S
N57 C58 1.388 . S
C58 H29 0.930 . S
C58 C53 1.391 . S
C58 N57 1.388 . S
Co59 O61 2.143 . S
Co59 O67 2.074 . S
Co59 O70 2.093 . S
Co59 O83 2.097 . S
Co59 N100 2.151 . S
Co59 N108 2.214 . S
Co60 O61 2.160 . S
Co60 O66 2.058 . S
Co60 O76 2.057 . S
Co60 O91 2.037 . S
Co60 N95 2.145 . S
Co60 N116 2.257 . S
O61 Co59 2.143 . S
O61 Co60 2.160 . S
C62 O63 1.278 . S
C62 O70 1.224 . S
O63 C62 1.278 . S
C64 O65 1.245 . S
C64 O76 1.232 . S
O65 C64 1.245 . S
O66 Co60 2.058 . S
O66 C92 1.269 . S
O67 Co59 2.074 . S
O67 C92 1.257 . S
H68 C93 0.930 . S
H69 C99 0.930 . S
O70 Co59 2.093 . S
O70 C62 1.224 . S
H71 C103 0.929 . S
H72 C105 0.930 . S
H73 C106 0.930 . S
H74 C104 0.929 . S
H75 C107 0.928 . S
O76 Co60 2.057 . S
O76 C64 1.232 . S
H77 C96 0.929 . S
H78 C97 0.929 . S
H79 C109 0.931 . S
H80 C101 0.929 . S
H81 C110 0.930 . S
H82 C102 0.931 . S
O83 Co59 2.097 . S
O83 C111 1.214 . S
H84 C112 0.929 . S
H85 C113 0.929 . S
H86 C114 0.930 . S
H87 C115 0.929 . S
H88 C117 0.930 . S
H89 C94 0.930 . S
H90 C98 0.930 . S
O91 Co60 2.037 . S
O91 C111 1.234 . S
C92 O66 1.269 . S
C92 O67 1.257 . S
C93 H68 0.930 . S
C93 C96 1.388 . S
C93 C98 1.418 . S
C94 H89 0.930 . S
C94 C97 1.404 . S
C94 C98 1.353 . S
N95 Co60 2.145 . S
N95 C96 1.397 . S
N95 C97 1.334 . S
C96 H77 0.929 . S
C96 C93 1.388 . S
C96 N95 1.397 . S
C97 H78 0.929 . S
C97 C94 1.404 . S
C97 N95 1.334 . S
C98 H90 0.930 . S
C98 C93 1.418 . S
C98 C94 1.353 . S
C99 H69 0.930 . S
C99 N100 1.330 . S
C99 C101 1.446 . S
N100 Co59 2.151 . S
N100 C99 1.330 . S
N100 C104 1.418 . S
C101 H80 0.929 . S
C101 C99 1.446 . S
C101 C102 1.332 . S
C102 H82 0.931 . S
C102 C101 1.332 . S
C102 C103 1.267 . S
C103 H71 0.929 . S
C103 C102 1.267 . S
C103 C104 1.251 . S
C104 H74 0.929 . S
C104 N100 1.418 . S
C104 C103 1.251 . S
C105 H72 0.930 . S
C105 C107 1.406 . S
C105 C110 1.261 . S
C106 H73 0.930 . S
C106 N108 1.325 . S
C106 C109 1.357 . S
C107 H75 0.928 . S
C107 C105 1.406 . S
C107 N108 1.261 . S
N108 Co59 2.214 . S
N108 C106 1.325 . S
N108 C107 1.261 . S
C109 H79 0.931 . S
C109 C106 1.357 . S
C109 C110 1.312 . S
C110 H81 0.930 . S
C110 C105 1.261 . S
C110 C109 1.312 . S
C111 O83 1.214 . S
C111 O91 1.234 . S
C112 H84 0.929 . S
C112 C115 1.391 . S
C112 C117 1.391 . S
C113 H85 0.929 . S
C113 C114 1.390 . S
C113 N116 1.391 . S
C114 H86 0.930 . S
C114 C113 1.390 . S
C114 C115 1.392 . S
C115 H87 0.929 . S
C115 C112 1.391 . S
C115 C114 1.392 . S
N116 Co60 2.257 . S
N116 C113 1.391 . S
N116 C117 1.388 . S
C117 H88 0.930 . S
C117 C112 1.391 . S
C117 N116 1.388 . S
Co118 O120 2.143 . S
Co118 O126 2.074 . S
Co118 O129 2.093 . S
Co118 O142 2.097 . S
Co118 N159 2.151 . S
Co118 N167 2.214 . S
Co119 O120 2.160 . S
Co119 O125 2.058 . S
Co119 O135 2.057 . S
Co119 O150 2.037 . S
Co119 N154 2.145 . S
Co119 N175 2.257 . S
O120 Co118 2.143 . S
O120 Co119 2.160 . S
C121 O122 1.278 . S
C121 O129 1.224 . S
O122 C121 1.278 . S
C123 O124 1.245 . S
C123 O135 1.232 . S
O124 C123 1.245 . S
O125 Co119 2.058 . S
O125 C151 1.269 . S
O126 Co118 2.074 . S
O126 C151 1.257 . S
H127 C152 0.930 . S
H128 C158 0.930 . S
O129 Co118 2.093 . S
O129 C121 1.224 . S
H130 C162 0.929 . S
H131 C164 0.930 . S
H132 C165 0.930 . S
H133 C163 0.929 . S
H134 C166 0.928 . S
O135 Co119 2.057 . S
O135 C123 1.232 . S
H136 C155 0.929 . S
H137 C156 0.929 . S
H138 C168 0.931 . S
H139 C160 0.929 . S
H140 C169 0.930 . S
H141 C161 0.931 . S
O142 Co118 2.097 . S
O142 C170 1.214 . S
H143 C171 0.929 . S
H144 C172 0.929 . S
H145 C173 0.930 . S
H146 C174 0.929 . S
H147 C176 0.930 . S
H148 C153 0.930 . S
H149 C157 0.930 . S
O150 Co119 2.037 . S
O150 C170 1.234 . S
C151 O125 1.269 . S
C151 O126 1.257 . S
C152 H127 0.930 . S
C152 C155 1.388 . S
C152 C157 1.418 . S
C153 H148 0.930 . S
C153 C156 1.404 . S
C153 C157 1.353 . S
N154 Co119 2.145 . S
N154 C155 1.397 . S
N154 C156 1.334 . S
C155 H136 0.929 . S
C155 C152 1.388 . S
C155 N154 1.397 . S
C156 H137 0.929 . S
C156 C153 1.404 . S
C156 N154 1.334 . S
C157 H149 0.930 . S
C157 C152 1.418 . S
C157 C153 1.353 . S
C158 H128 0.930 . S
C158 N159 1.330 . S
C158 C160 1.446 . S
N159 Co118 2.151 . S
N159 C158 1.330 . S
N159 C163 1.418 . S
C160 H139 0.929 . S
C160 C158 1.446 . S
C160 C161 1.332 . S
C161 H141 0.931 . S
C161 C160 1.332 . S
C161 C162 1.267 . S
C162 H130 0.929 . S
C162 C161 1.267 . S
C162 C163 1.251 . S
C163 H133 0.929 . S
C163 N159 1.418 . S
C163 C162 1.251 . S
C164 H131 0.930 . S
C164 C166 1.406 . S
C164 C169 1.261 . S
C165 H132 0.930 . S
C165 N167 1.325 . S
C165 C168 1.357 . S
C166 H134 0.928 . S
C166 C164 1.406 . S
C166 N167 1.261 . S
N167 Co118 2.214 . S
N167 C165 1.325 . S
N167 C166 1.261 . S
C168 H138 0.931 . S
C168 C165 1.357 . S
C168 C169 1.312 . S
C169 H140 0.930 . S
C169 C164 1.261 . S
C169 C168 1.312 . S
C170 O142 1.214 . S
C170 O150 1.234 . S
C171 H143 0.929 . S
C171 C174 1.391 . S
C171 C176 1.391 . S
C172 H144 0.929 . S
C172 C173 1.390 . S
C172 N175 1.391 . S
C173 H145 0.930 . S
C173 C172 1.390 . S
C173 C174 1.392 . S
C174 H146 0.929 . S
C174 C171 1.391 . S
C174 C173 1.392 . S
N175 Co119 2.257 . S
N175 C172 1.391 . S
N175 C176 1.388 . S
C176 H147 0.930 . S
C176 C171 1.391 . S
C176 N175 1.388 . S
Co177 O179 2.143 . S
Co177 O185 2.074 . S
Co177 O188 2.093 . S
Co177 O201 2.097 . S
Co177 N218 2.151 . S
Co177 N226 2.214 . S
Co178 O179 2.160 . S
Co178 O184 2.058 . S
Co178 O194 2.057 . S
Co178 O209 2.037 . S
Co178 N213 2.145 . S
Co178 N234 2.257 . S
O179 Co177 2.143 . S
O179 Co178 2.160 . S
C180 O181 1.278 . S
C180 O188 1.224 . S
O181 C180 1.278 . S
C182 O183 1.245 . S
C182 O194 1.232 . S
O183 C182 1.245 . S
O184 Co178 2.058 . S
O184 C210 1.269 . S
O185 Co177 2.074 . S
O185 C210 1.257 . S
H186 C211 0.930 . S
H187 C217 0.930 . S
O188 Co177 2.093 . S
O188 C180 1.224 . S
H189 C221 0.929 . S
H190 C223 0.930 . S
H191 C224 0.930 . S
H192 C222 0.929 . S
H193 C225 0.928 . S
O194 Co178 2.057 . S
O194 C182 1.232 . S
H195 C214 0.929 . S
H196 C215 0.929 . S
H197 C227 0.931 . S
H198 C219 0.929 . S
H199 C228 0.930 . S
H200 C220 0.931 . S
O201 Co177 2.097 . S
O201 C229 1.214 . S
H202 C230 0.929 . S
H203 C231 0.929 . S
H204 C232 0.930 . S
H205 C233 0.929 . S
H206 C235 0.930 . S
H207 C212 0.930 . S
H208 C216 0.930 . S
O209 Co178 2.037 . S
O209 C229 1.234 . S
C210 O184 1.269 . S
C210 O185 1.257 . S
C211 H186 0.930 . S
C211 C214 1.388 . S
C211 C216 1.418 . S
C212 H207 0.930 . S
C212 C215 1.404 . S
C212 C216 1.353 . S
N213 Co178 2.145 . S
N213 C214 1.397 . S
N213 C215 1.334 . S
C214 H195 0.929 . S
C214 C211 1.388 . S
C214 N213 1.397 . S
C215 H196 0.929 . S
C215 C212 1.404 . S
C215 N213 1.334 . S
C216 H208 0.930 . S
C216 C211 1.418 . S
C216 C212 1.353 . S
C217 H187 0.930 . S
C217 N218 1.330 . S
C217 C219 1.446 . S
N218 Co177 2.151 . S
N218 C217 1.330 . S
N218 C222 1.418 . S
C219 H198 0.929 . S
C219 C217 1.446 . S
C219 C220 1.332 . S
C220 H200 0.931 . S
C220 C219 1.332 . S
C220 C221 1.267 . S
C221 H189 0.929 . S
C221 C220 1.267 . S
C221 C222 1.251 . S
C222 H192 0.929 . S
C222 N218 1.418 . S
C222 C221 1.251 . S
C223 H190 0.930 . S
C223 C225 1.406 . S
C223 C228 1.261 . S
C224 H191 0.930 . S
C224 N226 1.325 . S
C224 C227 1.357 . S
C225 H193 0.928 . S
C225 C223 1.406 . S
C225 N226 1.261 . S
N226 Co177 2.214 . S
N226 C224 1.325 . S
N226 C225 1.261 . S
C227 H197 0.931 . S
C227 C224 1.357 . S
C227 C228 1.312 . S
C228 H199 0.930 . S
C228 C223 1.261 . S
C228 C227 1.312 . S
C229 O201 1.214 . S
C229 O209 1.234 . S
C230 H202 0.929 . S
C230 C233 1.391 . S
C230 C235 1.391 . S
C231 H203 0.929 . S
C231 C232 1.390 . S
C231 N234 1.391 . S
C232 H204 0.930 . S
C232 C231 1.390 . S
C232 C233 1.392 . S
C233 H205 0.929 . S
C233 C230 1.391 . S
C233 C232 1.392 . S
N234 Co178 2.257 . S
N234 C231 1.391 . S
N234 C235 1.388 . S
C235 H206 0.930 . S
C235 C230 1.391 . S
C235 N234 1.388 . S
Co236 O238 2.143 . S
Co236 O244 2.074 . S
Co236 O247 2.093 . S
Co236 O260 2.097 . S
Co236 N277 2.151 . S
Co236 N285 2.214 . S
Co237 O238 2.160 . S
Co237 O243 2.058 . S
Co237 O253 2.057 . S
Co237 O268 2.037 . S
Co237 N272 2.145 . S
Co237 N293 2.257 . S
O238 Co236 2.143 . S
O238 Co237 2.160 . S
C239 O240 1.278 . S
C239 O247 1.224 . S
O240 C239 1.278 . S
C241 O242 1.245 . S
C241 O253 1.232 . S
O242 C241 1.245 . S
O243 Co237 2.058 . S
O243 C269 1.269 . S
O244 Co236 2.074 . S
O244 C269 1.257 . S
H245 C270 0.930 . S
H246 C276 0.930 . S
O247 Co236 2.093 . S
O247 C239 1.224 . S
H248 C280 0.929 . S
H249 C282 0.930 . S
H250 C283 0.930 . S
H251 C281 0.929 . S
H252 C284 0.928 . S
O253 Co237 2.057 . S
O253 C241 1.232 . S
H254 C273 0.929 . S
H255 C274 0.929 . S
H256 C286 0.931 . S
H257 C278 0.929 . S
H258 C287 0.930 . S
H259 C279 0.931 . S
O260 Co236 2.097 . S
O260 C288 1.214 . S
H261 C289 0.929 . S
H262 C290 0.929 . S
H263 C291 0.930 . S
H264 C292 0.929 . S
H265 C294 0.930 . S
H266 C271 0.930 . S
H267 C275 0.930 . S
O268 Co237 2.037 . S
O268 C288 1.234 . S
C269 O243 1.269 . S
C269 O244 1.257 . S
C270 H245 0.930 . S
C270 C273 1.388 . S
C270 C275 1.418 . S
C271 H266 0.930 . S
C271 C274 1.404 . S
C271 C275 1.353 . S
N272 Co237 2.145 . S
N272 C273 1.397 . S
N272 C274 1.334 . S
C273 H254 0.929 . S
C273 C270 1.388 . S
C273 N272 1.397 . S
C274 H255 0.929 . S
C274 C271 1.404 . S
C274 N272 1.334 . S
C275 H267 0.930 . S
C275 C270 1.418 . S
C275 C271 1.353 . S
C276 H246 0.930 . S
C276 N277 1.330 . S
C276 C278 1.446 . S
N277 Co236 2.151 . S
N277 C276 1.330 . S
N277 C281 1.418 . S
C278 H257 0.929 . S
C278 C276 1.446 . S
C278 C279 1.332 . S
C279 H259 0.931 . S
C279 C278 1.332 . S
C279 C280 1.267 . S
C280 H248 0.929 . S
C280 C279 1.267 . S
C280 C281 1.251 . S
C281 H251 0.929 . S
C281 N277 1.418 . S
C281 C280 1.251 . S
C282 H249 0.930 . S
C282 C284 1.406 . S
C282 C287 1.261 . S
C283 H250 0.930 . S
C283 N285 1.325 . S
C283 C286 1.357 . S
C284 H252 0.928 . S
C284 C282 1.406 . S
C284 N285 1.261 . S
N285 Co236 2.214 . S
N285 C283 1.325 . S
N285 C284 1.261 . S
C286 H256 0.931 . S
C286 C283 1.357 . S
C286 C287 1.312 . S
C287 H258 0.930 . S
C287 C282 1.261 . S
C287 C286 1.312 . S
C288 O260 1.214 . S
C288 O268 1.234 . S
C289 H261 0.929 . S
C289 C292 1.391 . S
C289 C294 1.391 . S
C290 H262 0.929 . S
C290 C291 1.390 . S
C290 N293 1.391 . S
C291 H263 0.930 . S
C291 C290 1.390 . S
C291 C292 1.392 . S
C292 H264 0.929 . S
C292 C289 1.391 . S
C292 C291 1.392 . S
N293 Co237 2.257 . S
N293 C290 1.391 . S
N293 C294 1.388 . S
C294 H265 0.930 . S
C294 C289 1.391 . S
C294 N293 1.388 . S
Co295 O297 2.143 . S
Co295 O303 2.074 . S
Co295 O306 2.093 . S
Co295 O319 2.097 . S
Co295 N336 2.151 . S
Co295 N344 2.214 . S
Co296 O297 2.160 . S
Co296 O302 2.058 . S
Co296 O312 2.057 . S
Co296 O327 2.037 . S
Co296 N331 2.145 . S
Co296 N352 2.257 . S
O297 Co295 2.143 . S
O297 Co296 2.160 . S
C298 O299 1.278 . S
C298 O306 1.224 . S
O299 C298 1.278 . S
C300 O301 1.245 . S
C300 O312 1.232 . S
O301 C300 1.245 . S
O302 Co296 2.058 . S
O302 C328 1.269 . S
O303 Co295 2.074 . S
O303 C328 1.257 . S
H304 C329 0.930 . S
H305 C335 0.930 . S
O306 Co295 2.093 . S
O306 C298 1.224 . S
H307 C339 0.929 . S
H308 C341 0.930 . S
H309 C342 0.930 . S
H310 C340 0.929 . S
H311 C343 0.928 . S
O312 Co296 2.057 . S
O312 C300 1.232 . S
H313 C332 0.929 . S
H314 C333 0.929 . S
H315 C345 0.931 . S
H316 C337 0.929 . S
H317 C346 0.930 . S
H318 C338 0.931 . S
O319 Co295 2.097 . S
O319 C347 1.214 . S
H320 C348 0.929 . S
H321 C349 0.929 . S
H322 C350 0.930 . S
H323 C351 0.929 . S
H324 C353 0.930 . S
H325 C330 0.930 . S
H326 C334 0.930 . S
O327 Co296 2.037 . S
O327 C347 1.234 . S
C328 O302 1.269 . S
C328 O303 1.257 . S
C329 H304 0.930 . S
C329 C332 1.388 . S
C329 C334 1.418 . S
C330 H325 0.930 . S
C330 C333 1.404 . S
C330 C334 1.353 . S
N331 Co296 2.145 . S
N331 C332 1.397 . S
N331 C333 1.334 . S
C332 H313 0.929 . S
C332 C329 1.388 . S
C332 N331 1.397 . S
C333 H314 0.929 . S
C333 C330 1.404 . S
C333 N331 1.334 . S
C334 H326 0.930 . S
C334 C329 1.418 . S
C334 C330 1.353 . S
C335 H305 0.930 . S
C335 N336 1.330 . S
C335 C337 1.446 . S
N336 Co295 2.151 . S
N336 C335 1.330 . S
N336 C340 1.418 . S
C337 H316 0.929 . S
C337 C335 1.446 . S
C337 C338 1.332 . S
C338 H318 0.931 . S
C338 C337 1.332 . S
C338 C339 1.267 . S
C339 H307 0.929 . S
C339 C338 1.267 . S
C339 C340 1.251 . S
C340 H310 0.929 . S
C340 N336 1.418 . S
C340 C339 1.251 . S
C341 H308 0.930 . S
C341 C343 1.406 . S
C341 C346 1.261 . S
C342 H309 0.930 . S
C342 N344 1.325 . S
C342 C345 1.357 . S
C343 H311 0.928 . S
C343 C341 1.406 . S
C343 N344 1.261 . S
N344 Co295 2.214 . S
N344 C342 1.325 . S
N344 C343 1.261 . S
C345 H315 0.931 . S
C345 C342 1.357 . S
C345 C346 1.312 . S
C346 H317 0.930 . S
C346 C341 1.261 . S
C346 C345 1.312 . S
C347 O319 1.214 . S
C347 O327 1.234 . S
C348 H320 0.929 . S
C348 C351 1.391 . S
C348 C353 1.391 . S
C349 H321 0.929 . S
C349 C350 1.390 . S
C349 N352 1.391 . S
C350 H322 0.930 . S
C350 C349 1.390 . S
C350 C351 1.392 . S
C351 H323 0.929 . S
C351 C348 1.391 . S
C351 C350 1.392 . S
N352 Co296 2.257 . S
N352 C349 1.391 . S
N352 C353 1.388 . S
C353 H324 0.930 . S
C353 C348 1.391 . S
C353 N352 1.388 . S
C354 C355 1.170 . S
C354 C356 1.380 1_545 S
C355 C354 1.170 . S
C356 C354 1.380 1_565 S
C356 C357 1.170 . S
C357 C356 1.170 . S
C358 C359 1.170 . S
C358 C360 1.380 . S
C359 C358 1.170 . S
C360 C358 1.380 . S
C360 C361 1.170 . S
C361 C360 1.170 . S
C362 C363 1.170 . S
C362 C364 1.380 1_655 S
C363 C362 1.170 . S
C364 C362 1.380 1_455 S
C364 C365 1.170 . S
C365 C364 1.170 . S
C366 C367 1.170 . S
C366 C368 1.380 1_455 S
C367 C366 1.170 . S
C368 C366 1.380 1_655 S
C368 C369 1.170 . S
C369 C368 1.170 . S
C370 C371 1.170 . S
C370 C372 1.380 1_565 S
C371 C370 1.170 . S
C372 C370 1.380 1_545 S
C372 C373 1.170 . S
C373 C372 1.170 . S
C374 C375 1.170 . S
C374 C376 1.380 . S
C375 C374 1.170 . S
C376 C374 1.380 . S
C376 C377 1.170 . S
C377 C376 1.170 . S
C378 C379 1.170 . S
C378 C380 1.380 1_556 S
C379 C378 1.170 . S
C380 C378 1.380 1_554 S
C380 C381 1.170 . S
C381 C380 1.170 . S
C382 C383 1.170 . S
C382 C384 1.380 . S
C383 C382 1.170 . S
C384 C382 1.380 . S
C384 C385 1.170 . S
C385 C384 1.170 . S
C386 C387 1.170 . S
C386 C388 1.380 . S
C387 C386 1.170 . S
C388 C386 1.380 . S
C388 C389 1.170 . S
C389 C388 1.170 . S
C390 C391 1.170 . S
C390 C392 1.380 1_556 S
C391 C390 1.170 . S
C392 C390 1.380 1_554 S
C392 C393 1.170 . S
C393 C392 1.170 . S
C394 C395 1.170 . S
C394 C396 1.380 . S
C395 C394 1.170 . S
C396 C394 1.380 . S
C396 C397 1.170 . S
C397 C396 1.170 . S
C398 C399 1.170 . S
C398 C400 1.380 . S
C399 C398 1.170 . S
C400 C398 1.380 . S
C400 C401 1.170 . S
C401 C400 1.170 . S
C355 C5 1.239 . S
C357 C182 1.245 . S
C359 C64 1.239 . S
C361 C241 1.241 . S
C363 C123 1.239 . S
C365 C300 1.241 . S
C367 C111 1.802 . S
C369 C288 1.804 . S
C371 C347 1.802 . S
C373 C170 1.803 . S
C375 C229 1.807 . S
C377 C52 1.804 . S
C379 C151 1.437 . S
C381 C3 1.399 . S
C383 C210 1.419 . S
C385 C62 1.414 . S
C387 C121 1.428 . S
C389 C269 1.413 . S
C391 C328 1.415 . S
C393 C180 1.423 . S
C395 C239 1.412 . S
C397 C33 1.421 . S
C399 C298 1.406 . S
C401 C92 1.426 . S
