# Generated by pormake.
# Topology uki, (4)-cn, num edge types: 1
# Building blocks:
#     Node 0, Type 0, BuildingBlock: KUFVIS_clean_sbu_0, # of connection points: 4
#     Node 1, Type 0, BuildingBlock: KUFVIS_clean_sbu_0, # of connection points: 4
#     Node 2, Type 0, BuildingBlock: KUFVIS_clean_sbu_0, # of connection points: 4
#     Node 3, Type 0, BuildingBlock: KUFVIS_clean_sbu_0, # of connection points: 4
#     Node 4, Type 0, BuildingBlock: KUFVIS_clean_sbu_0, # of connection points: 4
#     Node 5, Type 0, BuildingBlock: KUFVIS_clean_sbu_0, # of connection points: 4
#     Node 6, Type 0, BuildingBlock: KUFVIS_clean_sbu_0, # of connection points: 4
#     Node 7, Type 0, BuildingBlock: KUFVIS_clean_sbu_0, # of connection points: 4
#     Node 8, Type 0, BuildingBlock: KUFVIS_clean_sbu_0, # of connection points: 4
#     Node 9, Type 0, BuildingBlock: KUFVIS_clean_sbu_0, # of connection points: 4
#     Node 10, Type 0, BuildingBlock: KUFVIS_clean_sbu_0, # of connection points: 4
#     Node 11, Type 0, BuildingBlock: KUFVIS_clean_sbu_0, # of connection points: 4
#     Node 12, Type 0, BuildingBlock: KUFVIS_clean_sbu_0, # of connection points: 4
#     Node 13, Type 0, BuildingBlock: KUFVIS_clean_sbu_0, # of connection points: 4
#     Node 14, Type 0, BuildingBlock: KUFVIS_clean_sbu_0, # of connection points: 4
#     Node 15, Type 0, BuildingBlock: KUFVIS_clean_sbu_0, # of connection points: 4
#     Edge 16, Type (0, 0), BuildingBlock: ZUJKAS_clean_linker_0, # of connection points: 2
#     Edge 17, Type (0, 0), BuildingBlock: ZUJKAS_clean_linker_0, # of connection points: 2
#     Edge 18, Type (0, 0), BuildingBlock: ZUJKAS_clean_linker_0, # of connection points: 2
#     Edge 19, Type (0, 0), BuildingBlock: ZUJKAS_clean_linker_0, # of connection points: 2
#     Edge 20, Type (0, 0), BuildingBlock: ZUJKAS_clean_linker_0, # of connection points: 2
#     Edge 21, Type (0, 0), BuildingBlock: ZUJKAS_clean_linker_0, # of connection points: 2
#     Edge 22, Type (0, 0), BuildingBlock: ZUJKAS_clean_linker_0, # of connection points: 2
#     Edge 23, Type (0, 0), BuildingBlock: ZUJKAS_clean_linker_0, # of connection points: 2
#     Edge 24, Type (0, 0), BuildingBlock: ZUJKAS_clean_linker_0, # of connection points: 2
#     Edge 25, Type (0, 0), BuildingBlock: ZUJKAS_clean_linker_0, # of connection points: 2
#     Edge 26, Type (0, 0), BuildingBlock: ZUJKAS_clean_linker_0, # of connection points: 2
#     Edge 27, Type (0, 0), BuildingBlock: ZUJKAS_clean_linker_0, # of connection points: 2
#     Edge 28, Type (0, 0), BuildingBlock: ZUJKAS_clean_linker_0, # of connection points: 2
#     Edge 29, Type (0, 0), BuildingBlock: ZUJKAS_clean_linker_0, # of connection points: 2
#     Edge 30, Type (0, 0), BuildingBlock: ZUJKAS_clean_linker_0, # of connection points: 2
#     Edge 31, Type (0, 0), BuildingBlock: ZUJKAS_clean_linker_0, # of connection points: 2
#     Edge 32, Type (0, 0), BuildingBlock: ZUJKAS_clean_linker_0, # of connection points: 2
#     Edge 33, Type (0, 0), BuildingBlock: ZUJKAS_clean_linker_0, # of connection points: 2
#     Edge 34, Type (0, 0), BuildingBlock: ZUJKAS_clean_linker_0, # of connection points: 2
#     Edge 35, Type (0, 0), BuildingBlock: ZUJKAS_clean_linker_0, # of connection points: 2
#     Edge 36, Type (0, 0), BuildingBlock: ZUJKAS_clean_linker_0, # of connection points: 2
#     Edge 37, Type (0, 0), BuildingBlock: ZUJKAS_clean_linker_0, # of connection points: 2
#     Edge 38, Type (0, 0), BuildingBlock: ZUJKAS_clean_linker_0, # of connection points: 2
#     Edge 39, Type (0, 0), BuildingBlock: ZUJKAS_clean_linker_0, # of connection points: 2
#     Edge 40, Type (0, 0), BuildingBlock: ZUJKAS_clean_linker_0, # of connection points: 2
#     Edge 41, Type (0, 0), BuildingBlock: ZUJKAS_clean_linker_0, # of connection points: 2
#     Edge 42, Type (0, 0), BuildingBlock: ZUJKAS_clean_linker_0, # of connection points: 2
#     Edge 43, Type (0, 0), BuildingBlock: ZUJKAS_clean_linker_0, # of connection points: 2
#     Edge 44, Type (0, 0), BuildingBlock: ZUJKAS_clean_linker_0, # of connection points: 2
#     Edge 45, Type (0, 0), BuildingBlock: ZUJKAS_clean_linker_0, # of connection points: 2
#     Edge 46, Type (0, 0), BuildingBlock: ZUJKAS_clean_linker_0, # of connection points: 2
#     Edge 47, Type (0, 0), BuildingBlock: ZUJKAS_clean_linker_0, # of connection points: 2
# Relax obj value: 0.139
# Max RMSD: 0.243
# Mean RMSD: 0.243
data_MOF--net-uki--node1-KUFVIS_clean_sbu_0--edge1-ZUJKAS_clean_linker_0
_symmetry_space_group_name_H-M    P1
_symmetry_Int_Tables_number       1
_symmetry_cell_setting            triclinic
loop_
_symmetry_equiv_pos_as_xyz
'x, y, z'
_cell_length_a     40.322296
_cell_length_b     40.310495
_cell_length_c     88.342309
_cell_angle_alpha  89.998624
_cell_angle_beta   89.953885
_cell_angle_gamma 89.932974
loop_
_atom_site_label
_atom_site_type_symbol
_atom_site_fract_x
_atom_site_fract_y
_atom_site_fract_z
_atom_type_partial_charge
Mn0 Mn 0.09481 0.20655 0.28818 0.0
Mn1 Mn 0.04014 0.17819 0.31399 0.0
C2 C 0.03903 0.21517 0.2844 0.0
C3 C 0.13134 0.24737 0.28023 0.0
C4 C 0.07378 0.13462 0.29056 0.0
O5 O 0.12344 0.19551 0.30638 0.0
O6 O 0.08426 0.18347 0.32368 0.0
C7 C 0.03758 0.23627 0.33445 0.0
N8 N 0.02177 0.21409 0.32536 0.0
C9 C 0.96864 0.23845 0.33093 0.0
C10 C 0.98432 0.26144 0.34044 0.0
C11 C 0.01895 0.2604 0.34217 0.0
C12 C 0.98849 0.21496 0.32355 0.0
H13 H 0.06419 0.23555 0.3358 0.0
C14 C 0.11448 0.1885 0.31985 0.0
O15 O 0.13471 0.2168 0.27584 0.0
O16 O 0.10726 0.25395 0.28952 0.0
N17 N -0.00377 0.172 0.3063 0.0
C18 C 0.98511 0.14902 0.29619 0.0
C19 C 0.95105 0.14695 0.29306 0.0
C20 C 0.92876 0.1683 0.30045 0.0
C21 C 0.94077 0.19181 0.31077 0.0
C22 C 0.97493 0.19244 0.31357 0.0
H23 H 0.00203 0.13231 0.29057 0.0
O24 O 0.05978 0.21768 0.27323 0.0
O25 O 0.05173 0.20911 0.29767 0.0
O26 O 0.08877 0.15751 0.28338 0.0
O27 O 0.05689 0.13954 0.3026 0.0
C28 C 0.92023 0.21482 0.31829 0.0
C29 C 0.93417 0.23822 0.32831 0.0
H30 H 0.97005 0.28015 0.34638 0.0
H31 H 0.03124 0.27815 0.34944 0.0
H32 H 0.94197 0.12882 0.28505 0.0
H33 H 0.90248 0.16643 0.29812 0.0
H34 H 0.89372 0.21501 0.3163 0.0
H35 H 0.91817 0.25607 0.33387 0.0
Mn36 Mn 0.21764 0.89438 0.71385 0.0
Mn37 Mn 0.19053 0.94724 0.68675 0.0
C38 C 0.22821 0.94998 0.71607 0.0
C39 C 0.25727 0.85767 0.72296 0.0
C40 C 0.14743 0.92323 0.71249 0.0
O41 O 0.20579 0.86343 0.69677 0.0
O42 O 0.18644 0.90031 0.67987 0.0
C43 C 0.24438 0.93279 0.66487 0.0
N44 N 0.22696 0.95508 0.67333 0.0
C45 C 0.26051 0.00024 0.66424 0.0
C46 C 0.27863 0.9778 0.65536 0.0
C47 C 0.27057 0.94392 0.6557 0.0
C48 C 0.23473 0.98768 0.67319 0.0
H49 H 0.23843 0.9067 0.66513 0.0
C50 C 0.19317 0.87064 0.68401 0.0
O51 O 0.22667 0.85617 0.72752 0.0
O52 O 0.26449 0.87987 0.71286 0.0
N53 N 0.1928 0.99375 0.69109 0.0
C54 C 0.1719 0.01245 0.69972 0.0
C55 C 0.17661 0.04691 0.70062 0.0
C56 C 0.20205 0.06196 0.69223 0.0
C57 C 0.22217 0.04247 0.68281 0.0
C58 C 0.21631 0.00822 0.68241 0.0
H59 H 0.15179 0.00119 0.70586 0.0
O60 O 0.23002 0.9306 0.72775 0.0
O61 O 0.22194 0.93608 0.70303 0.0
O62 O 0.16842 0.90332 0.71838 0.0
O63 O 0.15299 0.94097 0.70076 0.0
C64 C 0.24791 0.05566 0.67387 0.0
C65 C 0.26714 0.03454 0.66463 0.0
H66 H 0.29885 0.98629 0.64827 0.0
H67 H 0.28452 0.92642 0.64893 0.0
H68 H 0.16056 0.06183 0.70771 0.0
H69 H 0.20571 0.08853 0.693 0.0
H70 H 0.25317 0.082 0.67404 0.0
H71 H 0.28695 0.04496 0.65784 0.0
Mn72 Mn 0.8852 0.78349 0.28601 0.0
Mn73 Mn 0.94254 0.80641 0.31172 0.0
C74 C 0.93994 0.77086 0.28173 0.0
C75 C 0.84552 0.74571 0.27814 0.0
C76 C 0.91174 0.85344 0.2889 0.0
O77 O 0.85804 0.79604 0.30447 0.0
O78 O 0.89837 0.80378 0.3217 0.0
C79 C 0.94144 0.74715 0.33149 0.0
N80 N 0.95856 0.76856 0.32249 0.0
C81 C 0.00968 0.7393 0.32694 0.0
C82 C 0.99264 0.71707 0.33635 0.0
C83 C 0.95836 0.72098 0.3386 0.0
C84 C 0.99154 0.76499 0.32021 0.0
H85 H 0.91506 0.75 0.3332 0.0
C86 C 0.86776 0.8014 0.31797 0.0
O87 O 0.84423 0.77654 0.2739 0.0
O88 O 0.86932 0.73721 0.28722 0.0
N89 N 0.98659 0.80979 0.30375 0.0
C90 C -0.00088 0.83253 0.29385 0.0
C91 C 0.03293 0.83151 0.29007 0.0
C92 C 0.0536 0.80739 0.29661 0.0
C93 C 0.04029 0.78465 0.30697 0.0
C94 C 0.00644 0.78701 0.31039 0.0
H95 H 0.98344 0.85118 0.28878 0.0
O96 O 0.91873 0.7702 0.2707 0.0
O97 O 0.92819 0.77739 0.29514 0.0
O98 O 0.89498 0.83209 0.28154 0.0
O99 O 0.92828 0.84675 0.30086 0.0
C100 C 0.05914 0.75931 0.31381 0.0
C101 C 0.04384 0.73662 0.32376 0.0
H102 H 0.00557 0.69675 0.3418 0.0
H103 H 0.945 0.70383 0.34579 0.0
H104 H 0.04302 0.8492 0.28209 0.0
H105 H 0.0796 0.80647 0.29355 0.0
H106 H 0.08534 0.75677 0.31133 0.0
H107 H 0.05851 0.71699 0.3288 0.0
Mn108 Mn 0.77995 0.09971 0.71532 0.0
Mn109 Mn 0.80769 0.04588 0.68885 0.0
C110 C 0.77277 0.04391 0.71899 0.0
C111 C 0.7384 0.13498 0.72382 0.0
C112 C 0.85203 0.07828 0.71219 0.0
O113 O 0.78894 0.12898 0.69714 0.0
O114 O 0.80327 0.09077 0.67971 0.0
C115 C 0.74884 0.04605 0.66886 0.0
N116 N 0.77092 0.0291 0.6776 0.0
C117 C 0.74397 0.9772 0.67223 0.0
C118 C 0.72109 0.99405 0.66307 0.0
C119 C 0.72351 0.02863 0.6614 0.0
C120 C 0.76876 -0.00415 0.67931 0.0
H121 H 0.75051 0.07265 0.66762 0.0
C122 C 0.79699 0.12063 0.68373 0.0
O123 O 0.76903 0.13924 0.72797 0.0
O124 O 0.73231 0.1109 0.71451 0.0
N125 N 0.81324 0.00131 0.69589 0.0
C126 C 0.83671 0.9889 0.70546 0.0
C127 C 0.83729 0.95475 0.70858 0.0
C128 C 0.81404 0.93366 0.70172 0.0
C129 C 0.79062 0.94688 0.69165 0.0
C130 C 0.7914 0.98108 0.68888 0.0
H131 H 0.8547 0.00492 0.71075 0.0
O132 O 0.7705 0.06438 0.73027 0.0
O133 O 0.77768 0.05686 0.70565 0.0
O134 O 0.82963 0.09404 0.71944 0.0
O135 O 0.84664 0.06115 0.70028 0.0
C136 C 0.76616 0.92755 0.68447 0.0
C137 C 0.74281 0.94271 0.67479 0.0
H138 H 0.70142 0.98074 0.65735 0.0
H139 H 0.70584 0.04184 0.65442 0.0
H140 H 0.85555 0.94473 0.71631 0.0
H141 H 0.81433 0.90739 0.70429 0.0
H142 H 0.76484 0.90107 0.68645 0.0
H143 H 0.7239 0.92764 0.66947 0.0
Mn144 Mn 0.09703 0.28008 0.96237 0.0
Mn145 Mn 0.04407 0.30512 0.93505 0.0
C146 C 0.04114 0.27108 0.96542 0.0
C147 C 0.13353 0.24075 0.97184 0.0
C148 C 0.07349 0.35121 0.95857 0.0
O149 O 0.12735 0.2903 0.94464 0.0
O150 O 0.0896 0.30146 0.92664 0.0
C151 C 0.04741 0.24552 0.91554 0.0
N152 N 0.0292 0.26763 0.92373 0.0
C153 C 0.97827 0.24047 0.91689 0.0
C154 C -0.00355 0.21753 0.9083 0.0
C155 C 0.03118 0.22001 0.90766 0.0
C156 C -0.00419 0.26532 0.92451 0.0
H157 H 0.07411 0.24735 0.91504 0.0
C158 C 0.11953 0.29708 0.93102 0.0
O159 O 0.13571 0.27172 0.97576 0.0
O160 O 0.11078 0.23291 0.96209 0.0
N161 N -0.00119 0.30988 0.94121 0.0
C162 C 0.98502 0.33339 0.95036 0.0
C163 C 0.95046 0.33423 0.95228 0.0
C164 C 0.93042 0.31123 0.94463 0.0
C165 C 0.94513 0.28745 0.93519 0.0
C166 C 0.97968 0.288 0.9336 0.0
H167 H 0.00023 0.35137 0.95616 0.0
O168 O 0.06112 0.26956 0.97689 0.0
O169 O 0.05469 0.27591 0.95219 0.0
O170 O 0.08929 0.3294 0.96612 0.0
O171 O 0.05737 0.34499 0.94645 0.0
C172 C 0.92691 0.26299 0.92742 0.0
C173 C 0.94348 0.23942 0.91833 0.0
H174 H 0.98403 0.19779 0.90222 0.0
H175 H 0.0454 0.20231 0.90111 0.0
H176 H 0.93928 0.35265 0.9596 0.0
H177 H 0.90377 0.31201 0.94608 0.0
H178 H 0.90017 0.26187 0.92849 0.0
H179 H 0.92923 0.22051 0.91256 0.0
Mn180 Mn 0.28163 0.89474 0.0376 0.0
Mn181 Mn 0.30894 0.94751 0.06445 0.0
C182 C 0.27414 0.95084 0.03433 0.0
C183 C 0.24081 0.85933 0.02869 0.0
C184 C 0.3536 0.91486 0.04115 0.0
O185 O 0.2912 0.86482 0.05555 0.0
O186 O 0.30253 0.90283 0.07346 0.0
C187 C 0.24951 0.94933 0.08411 0.0
N188 N 0.27245 0.96551 0.07555 0.0
C189 C 0.2482 0.0185 0.08148 0.0
C190 C 0.22441 0.00243 0.09045 0.0
C191 C 0.22503 0.96769 0.09173 0.0
C192 C 0.272 -0.0011 0.07417 0.0
H193 H 0.24989 0.92262 0.08511 0.0
C194 C 0.2974 0.8729 0.06921 0.0
O195 O 0.27154 0.8559 0.02455 0.0
O196 O 0.23406 0.88274 0.03829 0.0
N197 N 0.31614 0.99188 0.05748 0.0
C198 C 0.34001 0.00345 0.0479 0.0
C199 C 0.34261 0.0377 0.04528 0.0
C200 C 0.32088 0.05969 0.05263 0.0
C201 C 0.29654 0.04723 0.06242 0.0
C202 C 0.29537 0.01289 0.06473 0.0
H203 H 0.357 0.98674 0.04232 0.0
O204 O 0.27189 0.93071 0.02293 0.0
O205 O 0.27906 0.93737 0.04755 0.0
O206 O 0.33103 0.90052 0.0335 0.0
O207 O 0.34811 0.93106 0.05333 0.0
C208 C 0.27318 0.06751 0.06987 0.0
C209 C 0.24895 0.05314 0.07935 0.0
H210 H 0.20544 0.01649 0.09631 0.0
H211 H 0.20667 0.9551 0.09858 0.0
H212 H 0.36142 0.04713 0.03767 0.0
H213 H 0.32312 0.08611 0.05067 0.0
H214 H 0.2734 0.09414 0.06825 0.0
H215 H 0.23087 0.06894 0.08487 0.0
Mn216 Mn 0.89265 0.70995 0.9625 0.0
Mn217 Mn 0.94857 0.68562 0.93631 0.0
C218 C 0.948 0.72044 0.96654 0.0
C219 C 0.85449 0.74883 0.97088 0.0
C220 C 0.91729 0.63926 0.95929 0.0
O221 O 0.86438 0.69849 0.94423 0.0
O222 O 0.90409 0.68926 0.92684 0.0
C223 C 0.94752 0.74516 0.91672 0.0
N224 N 0.96475 0.7231 0.92536 0.0
C225 C 0.01642 0.75019 0.9197 0.0
C226 C -0.00072 0.77308 0.91065 0.0
C227 C 0.96467 0.77061 0.9092 0.0
C228 C -0.002 0.72538 0.92692 0.0
H229 H 0.92092 0.74333 0.91559 0.0
C230 C 0.87367 0.69259 0.9307 0.0
O231 O 0.85256 0.71803 0.9751 0.0
O232 O 0.87797 0.75672 0.9615 0.0
N233 N 0.993 0.68101 0.94363 0.0
C234 C 0.00565 0.65772 0.95322 0.0
C235 C 0.03993 0.65689 0.95597 0.0
C236 C 0.06087 0.67973 0.9487 0.0
C237 C 0.04731 0.70341 0.93887 0.0
C238 C 0.01302 0.70281 0.93644 0.0
H239 H 0.98977 0.63985 0.9587 0.0
O240 O 0.92694 0.72179 0.97762 0.0
O241 O 0.93578 0.71482 0.95313 0.0
O242 O 0.90109 0.66096 0.96673 0.0
O243 O 0.934 0.64563 0.94734 0.0
C244 C 0.06645 0.72779 0.9315 0.0
C245 C 0.05099 0.75126 0.92198 0.0
H246 H 0.0124 0.79278 0.90486 0.0
H247 H 0.95124 0.78827 0.9023 0.0
H248 H 0.05021 0.63858 0.9636 0.0
H249 H 0.08732 0.6789 0.95077 0.0
H250 H 0.09302 0.72894 0.93322 0.0
H251 H 0.0659 0.77014 0.91653 0.0
Mn252 Mn 0.71036 0.10005 0.03643 0.0
Mn253 Mn 0.68831 0.04354 0.06273 0.0
C254 C 0.72191 0.04508 0.03222 0.0
C255 C 0.74826 0.13892 0.02784 0.0
C256 C 0.64031 0.07438 0.04035 0.0
O257 O 0.69918 0.12778 0.05489 0.0
O258 O 0.69212 0.08791 0.07243 0.0
C259 C 0.7488 0.04439 0.08167 0.0
N260 N 0.72664 0.02731 0.07306 0.0
C261 C 0.75565 0.97597 0.07733 0.0
C262 C 0.77865 0.99297 0.08635 0.0
C263 C 0.77524 0.02734 0.0885 0.0
C264 C 0.72972 0.99425 0.07088 0.0
H265 H 0.74634 0.07084 0.0833 0.0
C266 C 0.6946 0.11841 0.06851 0.0
O267 O 0.71725 0.14048 0.02391 0.0
O268 O 0.75686 0.11543 0.03708 0.0
N269 N 0.68386 -0.00067 0.05506 0.0
C270 C 0.66027 0.98681 0.04561 0.0
C271 C 0.66066 0.95289 0.04199 0.0
C272 C 0.68503 0.93211 0.04826 0.0
C273 C 0.70863 0.94541 0.0582 0.0
C274 C 0.70688 0.97938 0.06147 0.0
H275 H 0.64143 0.00257 0.04076 0.0
O276 O 0.72232 0.06613 0.02113 0.0
O277 O 0.71642 0.05712 0.04568 0.0
O278 O 0.6614 0.09072 0.03262 0.0
O279 O 0.64751 0.05807 0.05232 0.0
C280 C 0.73423 0.92643 0.06475 0.0
C281 C 0.75775 0.94171 0.07429 0.0
H282 H 0.79917 0.97993 0.09157 0.0
H283 H 0.79299 0.04066 0.09538 0.0
H284 H 0.64229 0.94281 0.03435 0.0
H285 H 0.68547 0.90603 0.04532 0.0
H286 H 0.7363 0.90015 0.06238 0.0
H287 H 0.77754 0.92692 0.07912 0.0
Mn288 Mn 0.60632 0.70097 0.78269 0.0
Mn289 Mn 0.55276 0.67053 0.80853 0.0
C290 C 0.55045 0.71094 0.77982 0.0
C291 C 0.64331 0.74174 0.77526 0.0
C292 C 0.58355 0.62942 0.78343 0.0
O293 O 0.63605 0.68703 0.80012 0.0
O294 O 0.59766 0.67378 0.81757 0.0
C295 C 0.55337 0.72627 0.83034 0.0
N296 N 0.53624 0.70544 0.82107 0.0
C297 C 0.48422 0.73006 0.82832 0.0
C298 C 0.50128 0.75164 0.83802 0.0
C299 C 0.53601 0.7498 0.83899 0.0
C300 C 0.50286 0.70715 0.81996 0.0
H301 H 0.58007 0.72493 0.83111 0.0
C302 C 0.62773 0.67875 0.81352 0.0
O303 O 0.64539 0.71179 0.76993 0.0
O304 O 0.62026 0.74772 0.78516 0.0
N305 N 0.50804 0.66609 0.80158 0.0
C306 C 0.49542 0.64428 0.7913 0.0
C307 C 0.46102 0.64302 0.78894 0.0
C308 C 0.43993 0.66391 0.79728 0.0
C309 C 0.45345 0.68613 0.80779 0.0
C310 C 0.48789 0.68602 0.80979 0.0
H311 H 0.51142 0.62787 0.78498 0.0
O312 O 0.57068 0.71475 0.76854 0.0
O313 O 0.56375 0.70314 0.79279 0.0
O314 O 0.59864 0.65286 0.77668 0.0
O315 O 0.56768 0.633 0.79585 0.0
C316 C 0.43412 0.70858 0.81627 0.0
C317 C 0.44951 0.73064 0.82647 0.0
H318 H 0.48798 0.76986 0.8447 0.0
H319 H 0.54936 0.76647 0.84641 0.0
H320 H 0.45076 0.62583 0.78078 0.0
H321 H 0.41339 0.66267 0.79553 0.0
H322 H 0.40744 0.70932 0.81491 0.0
H323 H 0.43443 0.74806 0.8328 0.0
Mn324 Mn 0.71328 0.40106 0.21208 0.0
Mn325 Mn 0.6898 0.45113 0.18336 0.0
C326 C 0.71796 0.45749 0.2148 0.0
C327 C 0.75314 0.3672 0.22299 0.0
C328 C 0.64169 0.42065 0.20574 0.0
O329 O 0.70763 0.36931 0.19449 0.0
O330 O 0.69677 0.40531 0.17574 0.0
C331 C 0.75281 0.44909 0.16618 0.0
N332 N 0.72878 0.46687 0.17338 0.0
C333 C 0.75617 0.51833 0.16762 0.0
C334 C 0.78113 0.5006 0.16006 0.0
C335 C 0.77949 0.46582 0.15939 0.0
C336 C 0.73036 0.50029 0.17429 0.0
H337 H 0.75166 0.42236 0.16564 0.0
C338 C 0.7022 0.37594 0.18063 0.0
O339 O 0.72186 0.36343 0.22608 0.0
O340 O 0.76107 0.39021 0.21338 0.0
N341 N 0.68204 0.49653 0.18861 0.0
C342 C 0.65531 0.50998 0.19582 0.0
C343 C 0.65287 0.54458 0.19728 0.0
C344 C 0.6775 0.56501 0.19102 0.0
C345 C 0.70427 0.55066 0.18326 0.0
C346 C 0.70535 0.51603 0.18215 0.0
H347 H 0.63603 0.49446 0.20047 0.0
O348 O 0.71929 0.43818 0.22652 0.0
O349 O 0.71626 0.44309 0.20161 0.0
O350 O 0.66313 0.40612 0.21403 0.0
O351 O 0.64877 0.43664 0.19364 0.0
C352 C 0.72977 0.56935 0.17646 0.0
C353 C 0.75584 0.55319 0.16876 0.0
H354 H 0.80167 0.51343 0.15476 0.0
H355 H 0.79871 0.45195 0.15362 0.0
H356 H 0.63197 0.55548 0.20315 0.0
H357 H 0.67542 0.59169 0.19212 0.0
H358 H 0.72956 0.59619 0.17707 0.0
H359 H 0.7754 0.56784 0.16367 0.0
Mn360 Mn 0.38552 0.29086 0.78282 0.0
Mn361 Mn 0.4429 0.31488 0.80835 0.0
C362 C 0.44059 0.28056 0.77811 0.0
C363 C 0.3472 0.25202 0.77474 0.0
C364 C 0.41075 0.36147 0.78573 0.0
O365 O 0.35823 0.3019 0.80144 0.0
O366 O 0.3988 0.31168 0.81831 0.0
C367 C 0.44198 0.255 0.82775 0.0
N368 N 0.45905 0.27671 0.81887 0.0
C369 C 0.50999 0.24673 0.82269 0.0
C370 C 0.49301 0.22418 0.83196 0.0
C371 C 0.45884 0.22831 0.83447 0.0
C372 C 0.49187 0.27285 0.8163 0.0
H373 H 0.41568 0.25798 0.82965 0.0
C374 C 0.3682 0.30798 0.81484 0.0
O375 O 0.34484 0.28288 0.77064 0.0
O376 O 0.37115 0.24408 0.78385 0.0
N377 N 0.48703 0.31889 0.80055 0.0
C378 C 0.49985 0.34299 0.79144 0.0
C379 C 0.53376 0.34243 0.78781 0.0
C380 C 0.55424 0.31741 0.79374 0.0
C381 C 0.5407 0.29345 0.80344 0.0
C382 C 0.50678 0.29542 0.80676 0.0
H383 H 0.48431 0.36238 0.78688 0.0
O384 O 0.41908 0.27926 0.76724 0.0
O385 O 0.42902 0.28604 0.79165 0.0
O386 O 0.39368 0.33983 0.77868 0.0
O387 O 0.42822 0.35518 0.79747 0.0
C388 C 0.55949 0.26757 0.80988 0.0
C389 C 0.54412 0.24414 0.81944 0.0
H390 H 0.50591 0.20352 0.83715 0.0
H391 H 0.44553 0.21093 0.84156 0.0
H392 H 0.54406 0.36117 0.7804 0.0
H393 H 0.58031 0.31687 0.7908 0.0
H394 H 0.58575 0.26534 0.80748 0.0
H395 H 0.55878 0.2242 0.82423 0.0
Mn396 Mn 0.27405 0.59306 0.21323 0.0
Mn397 Mn 0.29683 0.54033 0.18543 0.0
C398 C 0.26556 0.53717 0.21643 0.0
C399 C 0.23501 0.62973 0.22278 0.0
C400 C 0.34479 0.5697 0.20819 0.0
O401 O 0.2835 0.62339 0.19543 0.0
O402 O 0.29207 0.5858 0.17707 0.0
C403 C 0.23514 0.54341 0.16736 0.0
N404 N 0.258 0.5253 0.17515 0.0
C405 C 0.22935 0.47444 0.16961 0.0
C406 C 0.20559 0.4925 0.16145 0.0
C407 C 0.20844 0.52715 0.16037 0.0
C408 C 0.25523 0.49203 0.17645 0.0
H409 H 0.23726 0.57005 0.1665 0.0
C410 C 0.28862 0.61571 0.18165 0.0
O411 O 0.26601 0.63191 0.22667 0.0
O412 O 0.22699 0.60671 0.21321 0.0
N413 N 0.30245 0.49512 0.19151 0.0
C414 C 0.32791 0.48129 0.19948 0.0
C415 C 0.32894 0.44676 0.20149 0.0
C416 C 0.30424 0.42675 0.19503 0.0
C417 C 0.27876 0.44145 0.18655 0.0
C418 C 0.27903 0.47599 0.18493 0.0
H419 H 0.34724 0.49646 0.2043 0.0
O420 O 0.2642 0.55717 0.2279 0.0
O421 O 0.26954 0.55076 0.20316 0.0
O422 O 0.32356 0.58503 0.21631 0.0
O423 O 0.33772 0.55406 0.196 0.0
C424 C 0.25326 0.42317 0.17954 0.0
C425 C 0.2284 0.43968 0.1712 0.0
H426 H 0.18505 0.48003 0.15599 0.0
H427 H 0.19016 0.54128 0.15414 0.0
H428 H 0.34882 0.43558 0.20795 0.0
H429 H 0.30525 0.40011 0.19655 0.0
H430 H 0.25249 0.3964 0.18049 0.0
H431 H 0.20878 0.42537 0.16597 0.0
Mn432 Mn 0.60221 0.78423 0.46758 0.0
Mn433 Mn 0.54647 0.80761 0.44117 0.0
C434 C 0.54674 0.77696 0.47224 0.0
C435 C 0.63859 0.74408 0.47644 0.0
C436 C 0.57996 0.85549 0.46279 0.0
O437 O 0.63026 0.79202 0.44888 0.0
O438 O 0.59072 0.80195 0.43153 0.0
C439 C 0.54587 0.74569 0.42317 0.0
N440 N 0.52933 0.76889 0.43147 0.0
C441 C 0.47758 0.74013 0.42817 0.0
C442 C 0.49402 0.71604 0.4195 0.0
C443 C 0.52832 0.71882 0.41702 0.0
C444 C 0.49636 0.76637 0.434 0.0
H445 H 0.57227 0.74763 0.42131 0.0
C446 C 0.62104 0.79748 0.43532 0.0
O447 O 0.64271 0.77516 0.47989 0.0
O448 O 0.61399 0.73675 0.46762 0.0
N449 N 0.50233 0.81397 0.44865 0.0
C450 C 0.49015 0.83939 0.45719 0.0
C451 C 0.4562 0.84026 0.46074 0.0
C452 C 0.43507 0.81526 0.45533 0.0
C453 C 0.44801 0.78987 0.44622 0.0
C454 C 0.48199 0.79046 0.44294 0.0
H455 H 0.50621 0.85874 0.46136 0.0
O456 O 0.56794 0.77598 0.48326 0.0
O457 O 0.55883 0.7804 0.45866 0.0
O458 O 0.59613 0.83412 0.47048 0.0
O459 O 0.5623 0.84843 0.45119 0.0
C460 C 0.42856 0.76386 0.44036 0.0
C461 C 0.44336 0.73894 0.43139 0.0
H462 H 0.48059 0.69523 0.41477 0.0
H463 H 0.54122 0.70025 0.4104 0.0
H464 H 0.44638 0.86008 0.46769 0.0
H465 H 0.40897 0.81583 0.45822 0.0
H466 H 0.40224 0.76267 0.44276 0.0
H467 H 0.42819 0.71893 0.42704 0.0
Mn468 Mn 0.78505 0.39129 0.53556 0.0
Mn469 Mn 0.80839 0.44539 0.56277 0.0
C470 C 0.77848 0.4471 0.5316 0.0
C471 C 0.74561 0.35582 0.5255 0.0
C472 C 0.85636 0.41385 0.54067 0.0
O473 O 0.79132 0.36191 0.55393 0.0
O474 O 0.80412 0.40016 0.57155 0.0
C475 C 0.74667 0.4429 0.58089 0.0
N476 N 0.7694 0.46074 0.57291 0.0
C477 C 0.7392 0.51143 0.57715 0.0
C478 C 0.7156 0.49364 0.58551 0.0
C479 C 0.71933 0.45922 0.58737 0.0
C480 C 0.76593 0.49383 0.57097 0.0
H481 H 0.74932 0.41641 0.58225 0.0
C482 C 0.79829 0.37028 0.56745 0.0
O483 O 0.7769 0.35207 0.52242 0.0
O484 O 0.7375 0.37953 0.53472 0.0
N485 N 0.81368 0.49037 0.55624 0.0
C486 C 0.83903 0.50399 0.54813 0.0
C487 C 0.83911 0.53827 0.5453 0.0
C488 C 0.81343 0.55826 0.55102 0.0
C489 C 0.78823 0.54385 0.55976 0.0
C490 C 0.78963 0.50959 0.56232 0.0
H491 H 0.85888 0.4888 0.54372 0.0
O492 O 0.77791 0.42659 0.52031 0.0
O493 O 0.78109 0.43423 0.54509 0.0
O494 O 0.83513 0.39712 0.53317 0.0
O495 O 0.84922 0.43146 0.55227 0.0
C496 C 0.76165 0.5621 0.56594 0.0
C497 C 0.7371 0.54588 0.57458 0.0
H498 H 0.69444 0.50612 0.5905 0.0
H499 H 0.70113 0.4453 0.59374 0.0
H500 H 0.85881 0.54923 0.53865 0.0
H501 H 0.81338 0.58463 0.54867 0.0
H502 H 0.75978 0.58859 0.56406 0.0
H503 H 0.71668 0.56014 0.5792 0.0
Mn504 Mn 0.39633 0.21395 0.46243 0.0
Mn505 Mn 0.44745 0.18712 0.43467 0.0
C506 C 0.45223 0.22421 0.46428 0.0
C507 C 0.3597 0.25353 0.47167 0.0
C508 C 0.42098 0.1429 0.45964 0.0
O509 O 0.3648 0.20141 0.4455 0.0
O510 O 0.4012 0.18927 0.42704 0.0
C511 C 0.44135 0.24472 0.41407 0.0
N512 N 0.46065 0.22375 0.42235 0.0
C513 C 0.51044 0.25109 0.41403 0.0
C514 C 0.49111 0.27285 0.40532 0.0
C515 C 0.45641 0.2697 0.40539 0.0
C516 C 0.49403 0.2267 0.42246 0.0
H517 H 0.41467 0.24239 0.4141 0.0
C518 C 0.3716 0.19358 0.43188 0.0
O519 O 0.35853 0.22296 0.47629 0.0
O520 O 0.38157 0.26079 0.46141 0.0
N521 N 0.49328 0.18373 0.44006 0.0
C522 C 0.50829 0.16134 0.44939 0.0
C523 C 0.54299 0.16131 0.45068 0.0
C524 C 0.56192 0.18392 0.44222 0.0
C525 C 0.54597 0.2065 0.4326 0.0
C526 C 0.51134 0.20519 0.43167 0.0
H527 H 0.49392 0.14367 0.4558 0.0
O528 O 0.43315 0.22661 0.47605 0.0
O529 O 0.43774 0.21779 0.45141 0.0
O530 O 0.40546 0.16518 0.46705 0.0
O531 O 0.43585 0.14813 0.44708 0.0
C532 C 0.56306 0.23049 0.42402 0.0
C533 C 0.5453 0.25286 0.41479 0.0
H534 H 0.50264 0.29217 0.39863 0.0
H535 H 0.44132 0.28649 0.39875 0.0
H536 H 0.55514 0.14381 0.45814 0.0
H537 H 0.58869 0.18378 0.44321 0.0
H538 H 0.58984 0.23217 0.42456 0.0
H539 H 0.55868 0.27143 0.40838 0.0
Mn540 Mn 0.20826 0.59988 0.53666 0.0
Mn541 Mn 0.179 0.54631 0.56285 0.0
C542 C 0.21486 0.54385 0.53297 0.0
C543 C 0.25003 0.63477 0.52821 0.0
C544 C 0.1358 0.57943 0.53926 0.0
O545 O 0.19932 0.62931 0.55482 0.0
O546 O 0.18288 0.59128 0.57191 0.0
C547 C 0.23684 0.54665 0.58345 0.0
N548 N 0.21509 0.52962 0.5746 0.0
C549 C 0.24077 0.47756 0.58095 0.0
C550 C 0.26331 0.4945 0.59022 0.0
C551 C 0.26139 0.5292 0.59144 0.0
C552 C 0.21684 0.49627 0.57327 0.0
H553 H 0.23547 0.57333 0.58438 0.0
C554 C 0.18991 0.62106 0.56805 0.0
O555 O 0.21944 0.63926 0.52407 0.0
O556 O 0.25605 0.61058 0.53749 0.0
N557 N 0.17373 0.50165 0.55594 0.0
C558 C 0.15088 0.4892 0.5461 0.0
C559 C 0.14964 0.45487 0.5435 0.0
C560 C 0.17163 0.43368 0.55117 0.0
C561 C 0.19482 0.44704 0.56128 0.0
C562 C 0.19467 0.48141 0.56353 0.0
H563 H 0.13375 0.50534 0.54026 0.0
O564 O 0.21742 0.56438 0.52173 0.0
O565 O 0.20991 0.55684 0.54631 0.0
O566 O 0.15863 0.5953 0.53239 0.0
O567 O 0.14065 0.56153 0.55098 0.0
C568 C 0.21833 0.42763 0.56908 0.0
C569 C 0.24138 0.4429 0.57886 0.0
H570 H 0.28233 0.48114 0.59638 0.0
H571 H 0.27879 0.54247 0.59852 0.0
H572 H 0.13171 0.44474 0.53566 0.0
H573 H 0.17049 0.40719 0.54921 0.0
H574 H 0.21914 0.40099 0.56752 0.0
H575 H 0.25959 0.42776 0.58467 0.0
H576 H 0.18754 0.24109 0.2631 0.0
H577 H 0.22022 0.28586 0.25171 0.0
H578 H 0.15437 0.35816 0.27166 0.0
H579 H 0.12245 0.31384 0.28342 0.0
H580 H 0.20113 0.33045 0.23132 0.0
H581 H 0.24247 0.39671 0.2826 0.0
H582 H 0.22455 0.35576 0.28339 0.0
H583 H 0.1983 0.39195 0.28263 0.0
C584 C 0.18041 0.26658 0.26524 0.0
C585 C 0.15258 0.27401 0.27421 0.0
C586 C 0.19903 0.29209 0.25871 0.0
C587 C 0.19006 0.32535 0.26105 0.0
C588 C 0.16235 0.33273 0.27006 0.0
H589 H 0.21537 0.49812 0.20645 0.0
H590 H 0.20153 0.44265 0.21585 0.0
C591 C 0.14399 0.30734 0.27671 0.0
C592 C 0.20815 0.35244 0.25332 0.0
H593 H 0.24213 0.42854 0.25948 0.0
C594 C 0.21063 0.35169 0.23748 0.0
C595 C 0.22114 0.3798 0.26137 0.0
C596 C 0.22181 0.38093 0.27844 0.0
C597 C 0.2243 0.37836 0.22941 0.0
C598 C 0.23485 0.40688 0.23738 0.0
C599 C 0.23374 0.40688 0.25328 0.0
C600 C 0.24573 0.4377 0.22965 0.0
C601 C 0.2276 0.37551 0.21247 0.0
C602 C 0.27501 0.45353 0.23429 0.0
C603 C 0.28232 0.48547 0.22925 0.0
C604 C 0.26112 0.50164 0.21908 0.0
C605 C 0.23256 0.48548 0.2139 0.0
C606 C 0.22482 0.45374 0.21921 0.0
H607 H 0.22869 0.34917 0.2088 0.0
H608 H 0.20576 0.3871 0.20696 0.0
H609 H 0.25028 0.38828 0.2085 0.0
H610 H 0.29144 0.4418 0.24238 0.0
H611 H 0.30412 0.49794 0.2336 0.0
H612 H 0.51267 0.75369 0.79624 0.0
H613 H 0.45605 0.77196 0.79052 0.0
H614 H 0.45547 0.70884 0.75101 0.0
H615 H 0.51084 0.68881 0.75749 0.0
H616 H 0.43897 0.80595 0.76782 0.0
H617 H 0.36447 0.69175 0.76499 0.0
H618 H 0.40638 0.69154 0.77204 0.0
H619 H 0.39848 0.68838 0.75203 0.0
C620 C 0.49966 0.74265 0.78678 0.0
C621 C 0.51527 0.71885 0.77767 0.0
C622 C 0.46754 0.75335 0.78338 0.0
C623 C 0.45101 0.74123 0.7705 0.0
C624 C 0.46694 0.7176 0.76134 0.0
H625 H 0.32135 0.85201 0.71368 0.0
H626 H 0.36632 0.8224 0.7263 0.0
C627 C 0.49872 0.70643 0.76493 0.0
C628 C 0.41929 0.75645 0.76551 0.0
H629 H 0.3433 0.73881 0.75042 0.0
C630 C 0.41787 0.79118 0.76431 0.0
C631 C 0.39149 0.73739 0.76095 0.0
C632 C 0.39022 0.70022 0.76273 0.0
C633 C 0.39019 0.8072 0.75813 0.0
C634 C 0.36352 0.78796 0.75262 0.0
C635 C 0.36408 0.75343 0.75444 0.0
C636 C 0.33555 0.80336 0.74439 0.0
C637 C 0.38993 0.84462 0.75743 0.0
C638 C 0.30307 0.80105 0.75 0.0
C639 C 0.27716 0.8177 0.7427 0.0
C640 C 0.28346 0.83682 0.72971 0.0
C641 C 0.31577 0.83777 0.72376 0.0
C642 C 0.34153 0.82103 0.731 0.0
H643 H 0.40683 0.8556 0.766 0.0
H644 H 0.39857 0.85271 0.74609 0.0
H645 H 0.36458 0.85463 0.75928 0.0
H646 H 0.29797 0.78723 0.76026 0.0
H647 H 0.25248 0.81647 0.74752 0.0
H648 H 0.67509 0.49534 0.23049 0.0
H649 H 0.68319 0.55274 0.23867 0.0
H650 H 0.77642 0.55547 0.21458 0.0
H651 H 0.76699 0.49882 0.2056 0.0
H652 H 0.72747 0.57029 0.25682 0.0
H653 H 0.74726 0.64686 0.2059 0.0
H654 H 0.72843 0.60638 0.20512 0.0
H655 H 0.77294 0.61059 0.20512 0.0
C656 C 0.69664 0.50884 0.22651 0.0
C657 C 0.72001 0.49334 0.21713 0.0
C658 C 0.70133 0.54151 0.23121 0.0
C659 C 0.73021 0.55879 0.2271 0.0
C660 C 0.75336 0.54331 0.21747 0.0
H661 H 0.84849 0.67905 0.28224 0.0
H662 H 0.81429 0.63685 0.27035 0.0
C663 C 0.74817 0.51086 0.21243 0.0
C664 C 0.73851 0.59052 0.23474 0.0
H665 H 0.77369 0.66638 0.22889 0.0
C666 C 0.73683 0.59155 0.25063 0.0
C667 C 0.75017 0.61869 0.2268 0.0
C668 C 0.74947 0.62073 0.20978 0.0
C669 C 0.74838 0.61898 0.25877 0.0
C670 C 0.76323 0.64558 0.25086 0.0
C671 C 0.76289 0.64565 0.23498 0.0
C672 C 0.78214 0.67173 0.25882 0.0
C673 C 0.74506 0.61882 0.27579 0.0
C674 C 0.77595 0.70546 0.25603 0.0
C675 C 0.79596 0.72979 0.26265 0.0
C676 C 0.82242 0.72066 0.27213 0.0
C677 C 0.8281 0.68691 0.27511 0.0
C678 C 0.80837 0.66272 0.2684 0.0
H679 H 0.72289 0.60449 0.27939 0.0
H680 H 0.76713 0.60659 0.28081 0.0
H681 H 0.74309 0.64436 0.28042 0.0
H682 H 0.75598 0.71292 0.24857 0.0
H683 H 0.79109 0.75564 0.26012 0.0
H684 H 0.48104 0.3132 0.75893 0.0
H685 H 0.53701 0.29681 0.75104 0.0
H686 H 0.532 0.2117 0.78062 0.0
H687 H 0.47664 0.22916 0.78906 0.0
H688 H 0.59314 0.23842 0.78076 0.0
H689 H 0.54985 0.2228 0.72155 0.0
H690 H 0.54503 0.26426 0.72856 0.0
H691 H 0.52172 0.23091 0.73696 0.0
C692 C 0.49232 0.29135 0.7639 0.0
C693 C 0.47525 0.27276 0.77481 0.0
C694 C 0.52405 0.28186 0.75932 0.0
C695 C 0.5384 0.2527 0.76503 0.0
C696 C 0.5214 0.23432 0.7761 0.0
H697 H 0.67275 0.12152 0.72222 0.0
H698 H 0.62702 0.15329 0.73282 0.0
C699 C 0.48992 0.24424 0.78092 0.0
C700 C 0.5701 0.2401 0.75881 0.0
H701 H 0.60655 0.21358 0.72613 0.0
C702 C 0.5962 0.23307 0.76881 0.0
C703 C 0.57383 0.2329 0.74321 0.0
C704 C 0.54604 0.23778 0.73197 0.0
C705 C 0.62567 0.21817 0.76372 0.0
C706 C 0.62939 0.2111 0.74811 0.0
C707 C 0.60369 0.2192 0.73807 0.0
C708 C 0.658 0.19219 0.74206 0.0
C709 C 0.65178 0.20876 0.77517 0.0
C710 C 0.69074 0.20353 0.74367 0.0
C711 C 0.71718 0.18501 0.73776 0.0
C712 C 0.71108 0.15531 0.72992 0.0
C713 C 0.67826 0.14441 0.72813 0.0
C714 C 0.65206 0.16255 0.7342 0.0
H715 H 0.64183 0.2089 0.78691 0.0
H716 H 0.66202 0.18375 0.77274 0.0
H717 H 0.67241 0.22691 0.77463 0.0
H718 H 0.69585 0.22673 0.74938 0.0
H719 H 0.74226 0.19405 0.73922 0.0
H720 H 0.3003 0.99063 0.01295 0.0
H721 H 0.28116 0.04589 0.00573 0.0
H722 H 0.21136 0.04502 0.04284 0.0
H723 H 0.22886 0.98852 0.04925 0.0
H724 H 0.18122 0.06088 0.01887 0.0
H725 H 0.29408 0.13766 0.01979 0.0
H726 H 0.30068 0.10266 0.00766 0.0
H727 H 0.29333 0.09635 0.02758 0.0
C728 C 0.28142 0.0027 0.01974 0.0
C729 C 0.26682 0.98607 0.03198 0.0
C730 C 0.27075 0.03441 0.01574 0.0
C731 C 0.24541 0.05016 0.02398 0.0
C732 C 0.23126 0.03365 0.03643 0.0
H733 H 0.17279 0.24683 0.99689 0.0
H734 H 0.20079 0.20203 0.01063 0.0
C735 C 0.2415 0.0016 0.04023 0.0
C736 C 0.23059 0.08146 0.01827 0.0
H737 H 0.24962 0.15723 0.0033 0.0
C738 C 0.19621 0.08215 0.01576 0.0
C739 C 0.24991 0.10948 0.01428 0.0
C740 C 0.28649 0.1116 0.01763 0.0
C741 C 0.18088 0.10933 0.0088 0.0
C742 C 0.2006 0.13612 0.00376 0.0
C743 C 0.23468 0.1363 0.0069 0.0
C744 C 0.18623 0.16366 0.99486 0.0
C745 C 0.14368 0.10894 0.00687 0.0
C746 C 0.16992 0.15704 0.98117 0.0
C747 C 0.15375 0.18241 0.97339 0.0
C748 C 0.15408 0.21496 0.97904 0.0
C749 C 0.17208 0.22193 0.99229 0.0
C750 C 0.18802 0.19641 0.00016 0.0
H751 H 0.13161 0.09249 0.01533 0.0
H752 H 0.13302 0.13423 0.00799 0.0
H753 H 0.13754 0.0993 0.99545 0.0
H754 H 0.16908 0.13205 0.97667 0.0
H755 H 0.14039 0.17638 0.96312 0.0
H756 H 0.24469 0.8184 0.00408 0.0
H757 H 0.19858 0.79093 0.99111 0.0
H758 H 0.13093 0.82708 0.02519 0.0
H759 H 0.17659 0.85523 0.03797 0.0
H760 H 0.15289 0.74397 -0.00035 0.0
H761 H 0.09069 0.86292 0.98636 0.0
H762 H 0.13264 0.86086 0.99339 0.0
H763 H 0.0981 0.85794 0.00625 0.0
C764 C 0.22002 0.82022 0.00887 0.0
C765 C 0.21411 0.83928 0.02192 0.0
C766 C 0.19375 0.80457 0.00144 0.0
C767 C 0.16129 0.80772 0.00699 0.0
C768 C 0.15568 0.82516 0.02049 0.0
H769 H 0.98608 0.69498 0.98869 0.0
H770 H 0.04063 0.71428 0.99677 0.0
C771 C 0.18182 0.84104 0.02783 0.0
C772 C 0.13305 0.7935 0.99854 0.0
H773 H 0.05824 0.81394 0.98327 0.0
C774 C 0.13231 0.75923 0.99588 0.0
C775 C 0.10666 0.8136 0.99333 0.0
C776 C 0.10716 0.85091 0.99483 0.0
C777 C 0.10512 0.74424 0.98872 0.0
C778 C 0.07763 0.76408 0.98442 0.0
C779 C 0.07912 0.79857 0.98657 0.0
C780 C 0.04624 0.74982 0.97853 0.0
C781 C 0.10641 0.70736 0.98595 0.0
C782 C 0.03052 0.76403 0.96587 0.0
C783 C -0.00122 0.75379 0.96161 0.0
C784 C 0.98284 0.72834 0.96956 0.0
C785 C -0.00147 0.71392 0.9821 0.0
C786 C 0.02986 0.72468 0.9866 0.0
H787 H 0.13224 0.69907 0.98368 0.0
H788 H 0.09772 0.69419 0.99625 0.0
H789 H 0.09064 0.69992 0.97629 0.0
H790 H 0.04236 0.78381 0.95957 0.0
H791 H 0.98634 0.76636 0.95238 0.0
H792 H 0.82061 0.74666 0.99762 0.0
H793 H 0.79315 0.79317 0.01034 0.0
H794 H 0.81229 0.85536 0.97154 0.0
H795 H 0.84088 0.80945 0.95908 0.0
H796 H 0.83418 0.88298 0.99681 0.0
H797 H 0.70515 0.83946 0.00594 0.0
H798 H 0.73624 0.81209 0.01341 0.0
H799 H 0.73354 0.81862 0.99331 0.0
C800 C 0.81827 0.77008 0.99169 0.0
C801 C 0.83297 0.77461 0.97742 0.0
C802 C 0.80245 0.79658 0.99895 0.0
C803 C 0.8005 0.82768 0.99185 0.0
C804 C 0.81361 0.83159 0.97723 0.0
H805 H 0.69382 0.00488 0.0116 0.0
H806 H 0.71293 0.94978 0.00381 0.0
C807 C 0.82988 0.80536 0.97012 0.0
C808 C 0.78799 0.85714 8e-05 0.0
H809 H 0.72027 0.89011 0.01778 0.0
C810 C 0.80924 0.88454 0.00139 0.0
C811 C 0.75552 0.85902 0.00608 0.0
C812 C 0.73116 0.83085 0.00452 0.0
C813 C 0.79866 0.91419 0.00807 0.0
C814 C 0.76626 0.91607 0.01416 0.0
C815 C 0.74522 0.8884 0.01323 0.0
C816 C 0.75282 0.94755 0.02018 0.0
C817 C 0.82184 0.9436 0.0079 0.0
C818 C 0.76861 0.96427 0.03211 0.0
C819 C 0.75797 -0.00411 0.0364 0.0
C820 C 0.73068 0.01051 0.0292 0.0
C821 C 0.7145 0.99356 0.0175 0.0
C822 C 0.7253 0.96215 0.01311 0.0
H823 H 0.84232 0.94032 -0.00039 0.0
H824 H 0.80832 0.96679 0.00506 0.0
H825 H 0.83311 0.94659 0.01927 0.0
H826 H 0.78963 0.95324 0.03784 0.0
H827 H 0.77141 0.00917 0.04511 0.0
H828 H 0.74223 0.17818 0.00273 0.0
H829 H 0.78729 0.20628 0.98917 0.0
H830 H 0.85602 0.17689 0.02408 0.0
H831 H 0.8115 0.14826 0.03748 0.0
H832 H 0.83396 0.25575 0.99661 0.0
H833 H 0.89412 0.13458 0.98562 0.0
H834 H 0.85217 0.13808 0.99257 0.0
H835 H 0.88667 0.14165 0.00538 0.0
C836 C 0.76685 0.1782 0.00762 0.0
C837 C 0.77353 0.16065 0.02103 0.0
C838 C 0.79252 0.19419 -0.00014 0.0
C839 C 0.82503 0.19285 0.00546 0.0
C840 C 0.8312 0.17742 0.0194 0.0
H841 H 0.00221 0.29939 0.98652 0.0
H842 H 0.94637 0.28264 0.99391 0.0
C843 C 0.80572 0.16123 0.02707 0.0
C844 C 0.85301 0.20585 0.99645 0.0
H845 H 0.92739 0.18267 0.98156 0.0
C846 C 0.85426 0.23982 0.99311 0.0
C847 C 0.87896 0.18482 0.99156 0.0
C848 C 0.87781 0.1477 0.99381 0.0
C849 C 0.88178 0.25366 0.98569 0.0
C850 C 0.90896 0.23296 0.98182 0.0
C851 C 0.90677 0.1987 0.98453 0.0
C852 C 0.94095 0.24613 0.97606 0.0
C853 C 0.88126 0.29029 0.98226 0.0
C854 C 0.95713 0.2306 0.96385 0.0
C855 C 0.98955 0.23941 0.95999 0.0
C856 C 0.0058 0.2647 0.96791 0.0
C857 C 0.98961 0.28052 0.97996 0.0
C858 C 0.95754 0.27123 0.98406 0.0
H859 H 0.85565 0.29881 0.9797 0.0
H860 H 0.88986 0.30418 0.99236 0.0
H861 H 0.89746 0.29661 0.97256 0.0
H862 H 0.94511 0.21081 0.95763 0.0
H863 H 0.00225 0.22585 0.95112 0.0
H864 H 0.67853 0.74284 0.74889 0.0
H865 H 0.7062 0.79075 0.73752 0.0
H866 H 0.68358 0.84899 0.77721 0.0
H867 H 0.65481 0.80162 0.78835 0.0
H868 H 0.66339 0.87888 0.75217 0.0
H869 H 0.79337 0.83705 0.74422 0.0
H870 H 0.76331 0.80997 0.73578 0.0
H871 H 0.76427 0.81492 0.75601 0.0
C872 C 0.68007 0.76569 0.7553 0.0
C873 C 0.6644 0.76866 0.76945 0.0
C874 C 0.69606 0.79298 0.74883 0.0
C875 C 0.69718 0.82336 0.75657 0.0
C876 C 0.68295 0.82577 0.77104 0.0
H877 H 0.80142 0.00397 0.73962 0.0
H878 H 0.78368 0.94809 0.74692 0.0
C879 C 0.66655 0.79872 0.77739 0.0
C880 C 0.70999 0.85359 0.7491 0.0
H881 H 0.77827 0.88806 0.73253 0.0
C882 C 0.68854 0.8809 0.74791 0.0
C883 C 0.7428 0.8561 0.74353 0.0
C884 C 0.76739 0.82806 0.74506 0.0
C885 C 0.69912 0.91093 0.74163 0.0
C886 C 0.73176 0.91335 0.73586 0.0
C887 C 0.75313 0.88591 0.7368 0.0
C888 C 0.74488 0.94509 0.73005 0.0
C889 C 0.67559 0.94013 0.74181 0.0
C890 C 0.72935 0.96153 0.71795 0.0
C891 C 0.7392 0.99354 0.71394 0.0
C892 C 0.76546 0.00887 0.72159 0.0
C893 C 0.78155 0.99212 0.73339 0.0
C894 C 0.77153 0.96029 0.7375 0.0
H895 H 0.65482 0.93637 0.7499 0.0
H896 H 0.68873 0.96334 0.74492 0.0
H897 H 0.66476 0.94341 0.73037 0.0
H898 H 0.70899 0.95003 0.71194 0.0
H899 H 0.7258 0.00662 0.70515 0.0
H900 H 0.00284 0.26041 0.30002 0.0
H901 H 0.94717 0.28062 0.29385 0.0
H902 H 0.94452 0.21504 0.25521 0.0
H903 H -0.0011 0.19307 0.26218 0.0
H904 H 0.93224 0.31389 0.27066 0.0
H905 H 0.85235 0.20321 0.26895 0.0
H906 H 0.89353 0.20205 0.27684 0.0
H907 H 0.88735 0.19701 0.25677 0.0
C908 C 0.98951 0.24925 0.29068 0.0
C909 C 0.00425 0.22424 0.28195 0.0
C910 C 0.95795 0.26107 0.28702 0.0
C911 C 0.94117 0.24887 0.27424 0.0
C912 C 0.95618 0.22394 0.26547 0.0
H913 H 0.81838 0.3628 0.21546 0.0
H914 H 0.86205 0.33332 0.22906 0.0
C915 C 0.9874 0.21165 0.26933 0.0
C916 C 0.91034 0.26523 0.26889 0.0
H917 H 0.83411 0.25001 0.25358 0.0
C918 C 0.91057 0.29988 0.26722 0.0
C919 C 0.88179 0.24718 0.2645 0.0
C920 C 0.87863 0.21034 0.26702 0.0
C921 C 0.8838 0.31674 0.26069 0.0
C922 C 0.8565 0.29836 0.2552 0.0
C923 C 0.8554 0.26397 0.25753 0.0
C924 C 0.82951 0.31435 0.24653 0.0
C925 C 0.8852 0.3541 0.25967 0.0
C926 C 0.79647 0.31202 0.25141 0.0
C927 C 0.77131 0.3284 0.24349 0.0
C928 C 0.77892 0.3474 0.23061 0.0
C929 C 0.81185 0.34868 0.22546 0.0
C930 C 0.83686 0.33206 0.23327 0.0
H931 H 0.90159 0.36469 0.26854 0.0
H932 H 0.89551 0.36133 0.2485 0.0
H933 H 0.86015 0.36529 0.26085 0.0
H934 H 0.79028 0.29817 0.26154 0.0
H935 H 0.74612 0.32694 0.2477 0.0
H936 H 0.27475 0.98737 0.70173 0.0
H937 H 0.29021 0.0448 0.70783 0.0
H938 H 0.215 0.04717 0.74263 0.0
H939 H 0.19873 0.99053 0.73608 0.0
H940 H 0.21877 0.10615 0.72754 0.0
H941 H 0.34369 0.06257 0.74549 0.0
H942 H 0.33378 0.05471 0.72602 0.0
H943 H 0.31076 0.03425 0.74075 0.0
C944 C 0.26103 0.00068 0.71036 0.0
C945 C 0.23501 0.98527 0.71817 0.0
C946 C 0.27008 0.03319 0.71397 0.0
C947 C 0.25393 0.05007 0.72578 0.0
C948 C 0.22758 0.03469 0.7334 0.0
H949 H 0.33401 0.19144 0.78659 0.0
H950 H 0.30714 0.14493 0.7739 0.0
C951 C 0.2184 0.00241 0.72971 0.0
C952 C 0.26601 0.08251 0.73124 0.0
H953 H 0.33213 0.11916 0.74842 0.0
C954 C 0.24362 0.10918 0.73203 0.0
C955 C 0.29833 0.08611 0.73723 0.0
C956 C 0.32298 0.05786 0.73748 0.0
C957 C 0.25241 0.13915 0.73907 0.0
C958 C 0.28466 0.1426 0.74512 0.0
C959 C 0.30735 0.11632 0.74382 0.0
C960 C 0.29542 0.17242 0.75352 0.0
C961 C 0.22673 0.1662 0.74053 0.0
C962 C 0.29663 0.20362 0.74649 0.0
C963 C 0.31147 0.23046 0.75388 0.0
C964 C 0.32589 0.22614 0.76822 0.0
C965 C 0.32322 0.19535 0.7755 0.0
C966 C 0.30795 0.16878 0.76825 0.0
H967 H 0.2012 0.1566 0.73876 0.0
H968 H 0.22797 0.17813 0.75184 0.0
H969 H 0.23151 0.1855 0.73184 0.0
H970 H 0.28768 0.20683 0.73504 0.0
H971 H 0.3135 0.25393 0.74798 0.0
H972 H 0.98115 0.7957 0.26057 0.0
H973 H 0.03599 0.77456 0.25346 0.0
H974 H 0.02969 0.70111 0.28892 0.0
H975 H 0.97408 0.72136 0.29551 0.0
H976 H 0.09496 0.76739 0.26822 0.0
H977 H 0.04331 0.64472 0.25185 0.0
H978 H 0.01725 0.67967 0.25638 0.0
H979 H 0.03629 0.65586 0.27125 0.0
C980 C 0.99177 0.77526 0.2669 0.0
C981 C 0.97416 0.76064 0.27883 0.0
C982 C 0.02303 0.76332 0.2629 0.0
C983 C 0.0368 0.73616 0.27061 0.0
C984 C 0.01933 0.72183 0.28271 0.0
H985 H 0.23747 0.66324 0.24967 0.0
H986 H 0.19126 0.69143 0.26238 0.0
C987 C 0.98789 0.73363 0.28661 0.0
C988 C 0.06829 0.72162 0.26516 0.0
H989 H 0.10084 0.65169 0.24934 0.0
C990 C 0.0964 0.74205 0.26414 0.0
C991 C 0.06985 0.68866 0.25972 0.0
C992 C 0.04003 0.66601 0.25971 0.0
C993 C 0.12589 0.7306 0.25746 0.0
C994 C 0.12738 0.69764 0.25202 0.0
C995 C 0.09957 0.67698 0.25349 0.0
C996 C 0.15663 0.6842 0.24395 0.0
C997 C 0.15461 0.75426 0.25573 0.0
C998 C 0.15251 0.67088 0.2294 0.0
C999 C 0.17851 0.65427 0.2223 0.0
C1000 C 0.20928 0.65099 0.22955 0.0
C1001 C 0.21402 0.6657 0.2438 0.0
C1002 C 0.18771 0.68192 0.25104 0.0
H1003 H 0.14666 0.78052 0.25698 0.0
H1004 H 0.17329 0.74896 0.26462 0.0
H1005 H 0.16674 0.75122 0.24452 0.0
H1006 H 0.12876 0.67246 0.2237 0.0
H1007 H 0.17427 0.64332 0.21127 0.0
H1008 H 0.72711 0.48453 0.54154 0.0
H1009 H 0.71289 0.54088 0.53326 0.0
H1010 H 0.80242 0.54439 0.50646 0.0
H1011 H 0.81563 0.48745 0.51415 0.0
H1012 H 0.74146 0.60149 0.53462 0.0
H1013 H 0.73313 0.55937 0.47484 0.0
H1014 H 0.73822 0.53081 0.49033 0.0
H1015 H 0.77324 0.55362 0.48318 0.0
C1016 C 0.74388 0.4977 0.53408 0.0
C1017 C 0.77269 0.4823 0.52866 0.0
C1018 C 0.73582 0.52976 0.52935 0.0
C1019 C 0.75638 0.54663 0.51907 0.0
C1020 C 0.78587 0.53157 0.51413 0.0
H1021 H 0.69729 0.75019 0.49202 0.0
H1022 H 0.73113 0.70501 0.50257 0.0
C1023 C 0.79352 0.49928 0.5186 0.0
C1024 C 0.74546 0.57873 0.51265 0.0
H1025 H 0.72241 0.61558 0.47954 0.0
C1026 C 0.73747 0.60476 0.52257 0.0
C1027 C 0.74015 0.58273 0.49692 0.0
C1028 C 0.74632 0.55509 0.4857 0.0
C1029 C 0.72306 0.63426 0.51723 0.0
C1030 C 0.71744 0.63804 0.50152 0.0
C1031 C 0.72691 0.61261 0.49157 0.0
C1032 C 0.69798 0.66597 0.49523 0.0
C1033 C 0.71239 0.66029 0.52851 0.0
C1034 C 0.66872 0.65892 0.48729 0.0
C1035 C 0.64989 0.68439 0.48106 0.0
C1036 C 0.65972 0.71759 0.48272 0.0
C1037 C 0.68908 0.7248 0.49063 0.0
C1038 C 0.70827 0.69908 0.49675 0.0
H1039 H 0.71253 0.65067 0.5403 0.0
H1040 H 0.72971 0.68162 0.52794 0.0
H1041 H 0.68709 0.6695 0.52586 0.0
H1042 H 0.66028 0.63356 0.48599 0.0
H1043 H 0.62732 0.67799 0.4751 0.0
H1044 H 0.75234 0.31595 0.50061 0.0
H1045 H 0.70759 0.28943 0.48623 0.0
H1046 H 0.6364 0.32397 0.51914 0.0
H1047 H 0.68063 0.3511 0.5333 0.0
H1048 H 0.66019 0.24231 0.49309 0.0
H1049 H 0.60115 0.36263 0.47978 0.0
H1050 H 0.6424 0.3596 0.48758 0.0
H1051 H 0.60666 0.35727 0.49978 0.0
C1052 C 0.72717 0.31756 0.50484 0.0
C1053 C 0.71984 0.33593 0.51795 0.0
C1054 C 0.70168 0.30249 0.49661 0.0
C1055 C 0.66866 0.30557 0.50142 0.0
C1056 C 0.66164 0.32217 0.51501 0.0
H1057 H 0.49272 0.19783 0.4852 0.0
H1058 H 0.5489 0.2154 0.49146 0.0
C1059 C 0.68695 0.33746 0.52314 0.0
C1060 C 0.64119 0.2922 0.4922 0.0
H1061 H 0.56695 0.31437 0.47691 0.0
C1062 C 0.63999 0.25804 0.4893 0.0
C1063 C 0.61539 0.31292 0.48689 0.0
C1064 C 0.61661 0.35019 0.48851 0.0
C1065 C 0.61252 0.24371 0.48208 0.0
C1066 C 0.58526 0.26409 0.478 0.0
C1067 C 0.58757 0.29855 0.48009 0.0
C1068 C 0.55299 0.25038 0.4729 0.0
C1069 C 0.61312 0.20687 0.47913 0.0
C1070 C 0.53591 0.26485 0.46067 0.0
C1071 C 0.50327 0.2556 0.45746 0.0
C1072 C 0.4877 0.23093 0.46606 0.0
C1073 C 0.50478 0.21618 0.47813 0.0
C1074 C 0.53705 0.22592 0.48157 0.0
H1075 H 0.63868 0.19837 0.47644 0.0
H1076 H 0.60507 0.19357 0.48949 0.0
H1077 H 0.59657 0.19983 0.46967 0.0
H1078 H 0.54741 0.28415 0.45395 0.0
H1079 H 0.4899 0.26835 0.44856 0.0
H1080 H 0.18995 0.50483 0.51098 0.0
H1081 H 0.20971 0.44995 0.50345 0.0
H1082 H 0.27775 0.44959 0.54118 0.0
H1083 H 0.25958 0.50568 0.54796 0.0
H1084 H 0.30899 0.43479 0.51715 0.0
H1085 H 0.19621 0.3577 0.51701 0.0
H1086 H 0.19036 0.39277 0.50485 0.0
H1087 H 0.19648 0.39898 0.52484 0.0
C1088 C 0.20857 0.49257 0.51783 0.0
C1089 C 0.22246 0.50873 0.53037 0.0
C1090 C 0.21961 0.46108 0.51364 0.0
C1091 C 0.24463 0.4451 0.52197 0.0
C1092 C 0.2581 0.46115 0.53469 0.0
H1093 H 0.32016 0.24856 0.49673 0.0
H1094 H 0.29121 0.29377 0.50978 0.0
C1095 C 0.24748 0.49296 0.53869 0.0
C1096 C 0.25976 0.41398 0.5162 0.0
H1097 H 0.24173 0.33795 0.50123 0.0
C1098 C 0.29424 0.41343 0.51394 0.0
C1099 C 0.24071 0.3859 0.51204 0.0
C1100 C 0.20394 0.38377 0.51497 0.0
C1101 C 0.30999 0.38624 0.50717 0.0
C1102 C 0.29064 0.35923 0.50209 0.0
C1103 C 0.2564 0.35901 0.5049 0.0
C1104 C 0.30562 0.33138 0.49359 0.0
C1105 C 0.34725 0.38682 0.50548 0.0
C1106 C 0.32224 0.33742 0.47991 0.0
C1107 C 0.33892 0.31179 0.47251 0.0
C1108 C 0.33888 0.27957 0.47856 0.0
C1109 C 0.32069 0.27318 0.49183 0.0
C1110 C 0.30417 0.29894 0.4993 0.0
H1111 H 0.35893 0.40387 0.5138 0.0
H1112 H 0.35802 0.36167 0.50699 0.0
H1113 H 0.35372 0.39575 0.49397 0.0
H1114 H 0.3229 0.36215 0.47513 0.0
H1115 H 0.35242 0.3174 0.46222 0.0
H1116 H 0.50613 0.81202 0.49051 0.0
H1117 H 0.44995 0.7968 0.49856 0.0
H1118 H 0.45487 0.70901 0.47064 0.0
H1119 H 0.51042 0.7252 0.46206 0.0
H1120 H 0.39359 0.73613 0.47009 0.0
H1121 H 0.43788 0.72506 0.5294 0.0
H1122 H 0.44252 0.76584 0.52159 0.0
H1123 H 0.46576 0.73174 0.51376 0.0
C1124 C 0.49476 0.78986 0.48591 0.0
C1125 C 0.51188 0.77008 0.47546 0.0
C1126 C 0.46292 0.78106 0.49058 0.0
C1127 C 0.44852 0.75147 0.48542 0.0
C1128 C 0.46551 0.73198 0.47474 0.0
H1129 H 0.31589 0.62187 0.53006 0.0
H1130 H 0.36133 0.65356 0.51914 0.0
C1131 C 0.4971 0.74118 0.46983 0.0
C1132 C 0.41696 0.7394 0.49193 0.0
H1133 H 0.38138 0.71462 0.52508 0.0
C1134 C 0.39076 0.73154 0.48212 0.0
C1135 C 0.41357 0.73319 0.50763 0.0
C1136 C 0.4415 0.73908 0.5187 0.0
C1137 C 0.36157 0.71672 0.48752 0.0
C1138 C 0.35823 0.71056 0.50322 0.0
C1139 C 0.38398 0.71952 0.51307 0.0
C1140 C 0.32993 0.69184 0.50961 0.0
C1141 C 0.33536 0.70638 0.47629 0.0
C1142 C 0.2971 0.70295 0.50798 0.0
C1143 C 0.27089 0.68452 0.51406 0.0
C1144 C 0.27727 0.65511 0.52211 0.0
C1145 C 0.31018 0.64451 0.52398 0.0
C1146 C 0.3362 0.66259 0.51773 0.0
H1147 H 0.34509 0.70589 0.46452 0.0
H1148 H 0.32546 0.68142 0.47908 0.0
H1149 H 0.31452 0.72435 0.47669 0.0
H1150 H 0.29176 0.72588 0.50207 0.0
H1151 H 0.24573 0.69335 0.51254 0.0
H1152 H 0.30471 0.1942 0.43765 0.0
H1153 H 0.25955 0.18956 0.4193 0.0
H1154 H 0.33082 0.18146 0.38305 0.0
H1155 H 0.37603 0.18544 0.40123 0.0
H1156 H 0.24585 0.23102 0.39554 0.0
H1157 H 0.26991 0.10377 0.37444 0.0
H1158 H 0.28865 0.11971 0.3915 0.0
H1159 H 0.30564 0.13014 0.37327 0.0
C1160 C 0.31081 0.19115 0.42579 0.0
C1161 C 0.34404 0.19 0.42094 0.0
C1162 C 0.28496 0.18849 0.41533 0.0
C1163 C 0.29187 0.18456 0.39986 0.0
C1164 C 0.32495 0.18358 0.39498 0.0
H1165 H 0.18202 0.19075 0.31638 0.0
H1166 H 0.22413 0.18913 0.33628 0.0
C1167 C 0.35078 0.18607 0.40541 0.0
C1168 C 0.26458 0.18325 0.3887 0.0
H1169 H 0.23293 0.13711 0.35971 0.0
C1170 C 0.24277 0.21034 0.38781 0.0
C1171 C 0.2607 0.15621 0.37864 0.0
C1172 C 0.28226 0.12567 0.37958 0.0
C1173 C 0.21774 0.21156 0.37682 0.0
C1174 C 0.21436 0.18487 0.36658 0.0
C1175 C 0.23582 0.15758 0.36757 0.0
C1176 C 0.18883 0.18507 0.35462 0.0
C1177 C 0.19564 0.24174 0.37595 0.0
C1178 C 0.15517 0.18287 0.35842 0.0
C1179 C 0.13103 0.18369 0.34711 0.0
C1180 C 0.14018 0.18674 0.33179 0.0
C1181 C 0.17407 0.18852 0.32805 0.0
C1182 C 0.19818 0.18753 0.33938 0.0
H1183 H 0.2054 0.26269 0.38279 0.0
H1184 H 0.19285 0.25006 0.36404 0.0
H1185 H 0.17064 0.2353 0.3803 0.0
H1186 H 0.14758 0.18058 0.37014 0.0
H1187 H 0.1052 0.18225 0.35042 0.0
H1188 H 0.2284 0.67619 0.57094 0.0
H1189 H 0.22632 0.71771 0.59112 0.0
H1190 H 0.14249 0.6673 0.61098 0.0
H1191 H 0.14588 0.62465 0.59136 0.0
H1192 H 0.18336 0.76101 0.59932 0.0
H1193 H 0.1991 0.6741 0.64726 0.0
H1194 H 0.20382 0.66113 0.62787 0.0
H1195 H 0.16315 0.66421 0.63626 0.0
C1196 C 0.20962 0.67397 0.57966 0.0
C1197 C 0.18754 0.64708 0.57972 0.0
C1198 C 0.20842 0.69769 0.59118 0.0
C1199 C 0.18474 0.69525 0.60281 0.0
C1200 C 0.16177 0.66909 0.60249 0.0
H1201 H 0.14657 0.86632 0.66166 0.0
H1202 H 0.14179 0.82315 0.64228 0.0
C1203 C 0.16354 0.64489 0.59121 0.0
C1204 C 0.18397 0.72032 0.61513 0.0
H1205 H 0.1835 0.72931 0.65355 0.0
C1206 C 0.18359 0.75407 0.61118 0.0
C1207 C 0.18476 0.71133 0.63063 0.0
C1208 C 0.1881 0.67574 0.63576 0.0
C1209 C 0.18413 0.77904 0.62225 0.0
C1210 C 0.1834 0.77002 0.63774 0.0
C1211 C 0.18361 0.73627 0.64168 0.0
C1212 C 0.18433 0.79505 0.65008 0.0
C1213 C 0.18681 0.81468 0.61713 0.0
C1214 C 0.20851 0.79262 0.66146 0.0
C1215 C 0.21048 0.81655 0.67284 0.0
C1216 C 0.18864 0.84371 0.67291 0.0
C1217 C 0.16393 0.84579 0.66175 0.0
C1218 C 0.16142 0.82133 0.65059 0.0
H1219 H 0.19737 0.81653 0.60554 0.0
H1220 H 0.16171 0.82595 0.61686 0.0
H1221 H 0.20262 0.8294 0.62491 0.0
H1222 H 0.22641 0.77255 0.66138 0.0
H1223 H 0.22991 0.81443 0.68124 0.0
H1224 H 0.61167 0.80213 0.40468 0.0
H1225 H 0.65405 0.80371 0.38492 0.0
H1226 H 0.73065 0.79776 0.41885 0.0
H1227 H 0.68856 0.79563 0.43871 0.0
H1228 H 0.70477 0.84931 0.38058 0.0
H1229 H 0.75527 0.72278 0.38995 0.0
H1230 H 0.71631 0.73632 0.39792 0.0
H1231 H 0.7548 0.74827 0.40661 0.0
C1232 C 0.63751 0.80107 0.40798 0.0
C1233 C 0.64667 0.79859 0.42331 0.0
C1234 C 0.66168 0.802 0.39665 0.0
C1235 C 0.69542 0.80036 0.40042 0.0
C1236 C 0.7047 0.79833 0.41569 0.0
H1237 H 0.87782 0.80494 0.34859 0.0
H1238 H 0.83582 0.80661 0.36853 0.0
C1239 C 0.68058 0.79727 0.42703 0.0
C1240 C 0.7209 0.80131 0.38838 0.0
H1241 H 0.78512 0.75745 0.37305 0.0
C1242 C 0.72227 0.82919 0.37888 0.0
C1243 C 0.74364 0.77499 0.38621 0.0
C1244 C 0.74234 0.74375 0.39561 0.0
C1245 C 0.74616 0.83167 0.36738 0.0
C1246 C 0.76896 0.80542 0.36528 0.0
C1247 C 0.76763 0.77758 0.37478 0.0
C1248 C 0.79416 0.80607 0.35314 0.0
C1249 C 0.74723 0.86253 0.35773 0.0
C1250 C 0.78451 0.80512 0.3379 0.0
C1251 C 0.8084 0.80409 0.32646 0.0
C1252 C 0.8424 0.80393 0.33006 0.0
C1253 C 0.8519 0.80518 0.34538 0.0
C1254 C 0.82797 0.80608 0.35681 0.0
H1255 H 0.73319 0.88333 0.36296 0.0
H1256 H 0.77322 0.87059 0.35581 0.0
H1257 H 0.73598 0.85711 0.34654 0.0
H1258 H 0.75849 0.80456 0.33488 0.0
H1259 H 0.80016 0.80307 0.3148 0.0
H1260 H 0.75692 0.17467 0.6813 0.0
H1261 H 0.75667 0.21623 0.66114 0.0
H1262 H 0.84078 0.16804 0.64029 0.0
H1263 H 0.83958 0.12519 0.65989 0.0
H1264 H 0.79723 0.26061 0.65277 0.0
H1265 H 0.78326 0.1747 0.60444 0.0
H1266 H 0.77964 0.16095 0.62377 0.0
H1267 H 0.81988 0.1653 0.61506 0.0
C1268 C 0.77524 0.17294 0.67236 0.0
C1269 C 0.79808 0.14664 0.67203 0.0
C1270 C 0.7751 0.19667 0.66085 0.0
C1271 C 0.79821 0.1949 0.64895 0.0
C1272 C 0.82189 0.16929 0.64898 0.0
H1273 H 0.83947 0.36618 0.59175 0.0
H1274 H 0.84019 0.32334 0.61135 0.0
C1275 C 0.82142 0.14501 0.66026 0.0
C1276 C 0.79785 0.22028 0.63675 0.0
H1277 H 0.79884 0.23026 0.59839 0.0
C1278 C 0.79729 0.25393 0.64087 0.0
C1279 C 0.79728 0.21168 0.6212 0.0
C1280 C 0.79466 0.1762 0.61587 0.0
C1281 C 0.79642 0.27916 0.62994 0.0
C1282 C 0.79791 0.27058 0.61441 0.0
C1283 C 0.79818 0.23693 0.61028 0.0
C1284 C 0.7985 0.29598 0.60222 0.0
C1285 C 0.79285 0.31459 0.63525 0.0
C1286 C 0.77609 0.29395 0.59007 0.0
C1287 C 0.77652 0.31771 0.57857 0.0
C1288 C 0.79895 0.34428 0.57916 0.0
C1289 C 0.8216 0.34616 0.59118 0.0
C1290 C 0.8218 0.32187 0.60246 0.0
H1291 H 0.78079 0.31588 0.64655 0.0
H1292 H 0.81781 0.32589 0.63633 0.0
H1293 H 0.77799 0.32961 0.62719 0.0
H1294 H 0.75797 0.27415 0.58957 0.0
H1295 H 0.75874 0.31579 0.56942 0.0
H1296 H 0.18685 0.29659 0.93564 0.0
H1297 H 0.23053 0.30162 0.91653 0.0
H1298 H 0.15646 0.308 0.88146 0.0
H1299 H 0.1127 0.30356 0.90038 0.0
H1300 H 0.24352 0.26071 0.89221 0.0
H1301 H 0.2145 0.38798 0.87243 0.0
H1302 H 0.19774 0.37107 0.88974 0.0
H1303 H 0.17944 0.36064 0.8718 0.0
C1304 C 0.17982 0.29923 0.92387 0.0
C1305 C 0.14622 0.29992 0.91958 0.0
C1306 C 0.20482 0.30212 0.91298 0.0
C1307 C 0.19667 0.30583 0.89763 0.0
C1308 C 0.16325 0.30604 0.89329 0.0
H1309 H 0.30042 0.30624 0.8124 0.0
H1310 H 0.25978 0.30649 0.83297 0.0
C1311 C 0.13827 0.3033 0.90414 0.0
C1312 C 0.22307 0.3082 0.88605 0.0
H1313 H 0.25143 0.35628 0.85698 0.0
C1314 C 0.2455 0.28174 0.8846 0.0
C1315 C 0.22553 0.3357 0.87615 0.0
C1316 C 0.20323 0.36561 0.87768 0.0
C1317 C 0.26974 0.28159 0.87321 0.0
C1318 C 0.27172 0.30877 0.86315 0.0
C1319 C 0.24963 0.33543 0.8647 0.0
C1320 C 0.29637 0.30973 0.85079 0.0
C1321 C 0.29249 0.25201 0.87175 0.0
C1322 C 0.33027 0.31205 0.85406 0.0
C1323 C 0.35358 0.31201 0.84237 0.0
C1324 C 0.34334 0.30965 0.82717 0.0
C1325 C 0.30921 0.30796 0.82396 0.0
C1326 C 0.28593 0.30814 0.83568 0.0
H1327 H 0.28353 0.23045 0.87843 0.0
H1328 H 0.29492 0.24442 0.85971 0.0
H1329 H 0.31752 0.25878 0.87593 0.0
H1330 H 0.33871 0.31374 0.86568 0.0
H1331 H 0.37962 0.31338 0.84529 0.0
H1332 H 0.29192 0.60951 0.15085 0.0
H1333 H 0.29496 0.65372 0.13208 0.0
H1334 H 0.29296 0.72696 0.16764 0.0
H1335 H 0.28935 0.68289 0.1866 0.0
H1336 H 0.24976 0.74097 0.14426 0.0
H1337 H 0.37483 0.71113 0.12183 0.0
H1338 H 0.34681 0.67658 0.12153 0.0
H1339 H 0.35934 0.69408 0.13936 0.0
C1340 C 0.29231 0.63499 0.15474 0.0
C1341 C 0.29058 0.64261 0.17027 0.0
C1342 C 0.29424 0.66022 0.14397 0.0
C1343 C 0.29484 0.69355 0.1485 0.0
C1344 C 0.29278 0.70134 0.16394 0.0
H1345 H 0.30299 0.8804 0.09989 0.0
H1346 H 0.30258 0.83705 0.11918 0.0
C1347 C 0.29071 0.67611 0.17475 0.0
C1348 C 0.29644 0.72028 0.13706 0.0
H1349 H 0.34285 0.75005 0.10772 0.0
C1350 C 0.27022 0.74314 0.13634 0.0
C1351 C 0.32318 0.72296 0.12675 0.0
C1352 C 0.3528 0.70009 0.12746 0.0
C1353 C 0.26966 0.76823 0.12535 0.0
C1354 C 0.2962 0.77064 0.11495 0.0
C1355 C 0.32251 0.74794 0.1157 0.0
C1356 C 0.2971 0.79672 0.10323 0.0
C1357 C 0.2404 0.79157 0.12473 0.0
C1358 C 0.29486 0.78821 0.08789 0.0
C1359 C 0.29512 0.8129 0.07679 0.0
C1360 C 0.29793 0.84653 0.08088 0.0
C1361 C 0.30075 0.85481 0.09631 0.0
C1362 C 0.30036 0.83011 0.10737 0.0
H1363 H 0.21899 0.78211 0.13137 0.0
H1364 H 0.24773 0.81595 0.1295 0.0
H1365 H 0.23237 0.79559 0.11285 0.0
H1366 H 0.2925 0.76248 0.08451 0.0
H1367 H 0.29302 0.80561 0.06503 0.0
H1368 H 0.88342 0.69011 0.90009 0.0
H1369 H 0.84148 0.68636 0.88029 0.0
H1370 H 0.76444 0.68426 0.91417 0.0
H1371 H 0.80617 0.6887 0.93412 0.0
H1372 H 0.79522 0.63796 0.87488 0.0
H1373 H 0.73379 0.75863 0.88648 0.0
H1374 H 0.77343 0.74763 0.89452 0.0
H1375 H 0.73575 0.73169 0.90263 0.0
C1376 C 0.85757 0.6889 0.90338 0.0
C1377 C 0.84817 0.68988 0.91872 0.0
C1378 C 0.83364 0.68675 0.89202 0.0
C1379 C 0.79987 0.68554 0.89576 0.0
C1380 C 0.79036 0.68593 0.91104 0.0
H1381 H 0.61936 0.66867 0.84389 0.0
H1382 H 0.66186 0.66836 0.86352 0.0
C1383 C 0.81427 0.68831 0.92243 0.0
C1384 C 0.77471 0.68348 0.88361 0.0
H1385 H 0.7073 0.72311 0.86881 0.0
C1386 C 0.77606 0.65663 0.8735 0.0
C1387 C 0.74986 0.70798 0.88183 0.0
C1388 C 0.74821 0.73828 0.89184 0.0
C1389 C 0.75283 0.65332 0.86179 0.0
C1390 C 0.72786 0.67763 0.86013 0.0
C1391 C 0.72649 0.70448 0.8702 0.0
C1392 C 0.70271 0.67572 0.84802 0.0
C1393 C 0.75474 0.62363 0.85143 0.0
C1394 C 0.71177 0.67989 0.83281 0.0
C1395 C 0.68753 0.68018 0.82151 0.0
C1396 C 0.65382 0.67633 0.82526 0.0
C1397 C 0.64504 0.6716 0.84054 0.0
C1398 C 0.66926 0.67147 0.85181 0.0
H1399 H 0.77127 0.60397 0.85602 0.0
H1400 H 0.7297 0.61295 0.84957 0.0
H1401 H 0.76465 0.63151 0.84028 0.0
H1402 H 0.7375 0.68366 0.82973 0.0
H1403 H 0.69518 0.68396 0.80988 0.0
H1404 H 0.69272 0.10912 0.09922 0.0
H1405 H 0.69336 0.15159 0.11893 0.0
H1406 H 0.69408 0.22809 0.0848 0.0
H1407 H 0.69395 0.18591 0.06498 0.0
H1408 H 0.74199 0.23667 0.10696 0.0
H1409 H 0.61854 0.21295 0.13273 0.0
H1410 H 0.64482 0.17707 0.13143 0.0
H1411 H 0.63024 0.19676 0.11443 0.0
C1412 C 0.69268 0.13497 0.09587 0.0
C1413 C 0.69322 0.14406 0.08049 0.0
C1414 C 0.69289 0.1592 0.10717 0.0
C1415 C 0.69331 0.19293 0.10331 0.0
C1416 C 0.69362 0.20214 0.088 0.0
H1417 H 0.69817 0.38039 0.1498 0.0
H1418 H 0.69707 0.3351 0.13151 0.0
C1419 C 0.69352 0.17796 0.07669 0.0
C1420 C 0.69502 0.2187 0.11519 0.0
H1421 H 0.65352 0.25106 0.14548 0.0
C1422 C 0.72261 0.23989 0.11536 0.0
C1423 C 0.66977 0.22266 0.12616 0.0
C1424 C 0.63901 0.20137 0.12616 0.0
C1425 C 0.7257 0.26493 0.12627 0.0
C1426 C 0.70032 0.26907 0.13714 0.0
C1427 C 0.67293 0.24766 0.13711 0.0
C1428 C 0.70124 0.29629 0.14831 0.0
C1429 C 0.7562 0.28659 0.12616 0.0
C1430 C 0.70339 0.28933 0.16382 0.0
C1431 C 0.70398 0.31518 0.17437 0.0
C1432 C 0.70208 0.34841 0.16954 0.0
C1433 C 0.69971 0.35515 0.15395 0.0
C1434 C 0.69925 0.32932 0.14345 0.0
H1435 H 0.77677 0.27516 0.1196 0.0
H1436 H 0.75004 0.31077 0.12085 0.0
H1437 H 0.76494 0.29146 0.13787 0.0
H1438 H 0.70478 0.26391 0.16776 0.0
H1439 H 0.70571 0.30907 0.18628 0.0
H1440 H 0.91784 0.86785 0.25893 0.0
H1441 H 0.94528 0.91705 0.24845 0.0
H1442 H 0.94781 0.96095 0.29294 0.0
H1443 H 0.92098 0.91186 0.3035 0.0
H1444 H 0.93541 0.00589 0.26457 0.0
H1445 H 0.04685 0.92358 0.26482 0.0
H1446 H 0.00869 0.91014 0.25614 0.0
H1447 H 0.01123 0.91364 0.27633 0.0
C1448 C 0.92295 0.88863 0.26634 0.0
C1449 C 0.91754 0.88612 0.28204 0.0
C1450 C 0.93877 0.91655 0.26035 0.0
C1451 C 0.94873 0.94226 0.26998 0.0
C1452 C 0.94021 0.94123 0.28536 0.0
H1453 H 0.06726 0.07505 0.30455 0.0
H1454 H 0.04305 0.02535 0.29334 0.0
C1455 C 0.92489 0.91326 0.29138 0.0
C1456 C 0.97254 0.96763 0.26499 0.0
H1457 H 0.05601 0.98115 0.26562 0.0
C1458 C 0.96178 0.00059 0.26412 0.0
C1459 C 0.00684 0.9603 0.26456 0.0
C1460 C 0.01937 0.92505 0.2655 0.0
C1461 C 0.98462 0.02676 0.26424 0.0
C1462 C 0.01889 0.01946 0.26526 0.0
C1463 C 0.02971 0.98646 0.26472 0.0
C1464 C 0.04225 0.04499 0.27055 0.0
C1465 C 0.97193 0.062 0.26487 0.0
C1466 C 0.05166 0.07145 0.26121 0.0
C1467 C 0.06591 0.09979 0.26759 0.0
C1468 C 0.07033 0.10193 0.28336 0.0
C1469 C 0.06399 0.07401 0.29238 0.0
C1470 C 0.05021 0.04565 0.28599 0.0
H1471 H 0.94446 0.06333 0.26416 0.0
H1472 H 0.97995 0.07394 0.27559 0.0
H1473 H 0.98257 0.07651 0.25537 0.0
H1474 H 0.04565 0.07121 0.24926 0.0
H1475 H 0.07037 0.12109 0.2604 0.0
H1476 H 0.91254 0.08554 0.69927 0.0
H1477 H 0.96244 0.05574 0.70721 0.0
H1478 H 0.91291 0.02474 0.74812 0.0
H1479 H 0.86345 0.05595 0.74052 0.0
H1480 H 0.98121 0.03046 0.75207 0.0
H1481 H 0.95049 0.95579 0.70165 0.0
H1482 H 0.95667 -0.00158 0.69661 0.0
H1483 H 0.92304 0.98722 0.70904 0.0
C1484 C 0.913 0.07385 0.71032 0.0
C1485 C 0.88439 0.07299 0.71932 0.0
C1486 C 0.94126 0.05646 0.71475 0.0
C1487 C 0.9408 0.03711 0.72797 0.0
C1488 C 0.91358 0.03928 0.73781 0.0
H1489 H 0.09115 0.88564 0.71489 0.0
H1490 H 0.0371 0.90521 0.72427 0.0
C1491 C 0.8855 0.05738 0.73353 0.0
C1492 C 0.96663 0.01155 0.73027 0.0
H1493 H 0.00587 0.94945 0.7113 0.0
C1494 C 0.98644 0.01238 0.74329 0.0
C1495 C 0.97217 0.98665 0.71926 0.0
C1496 C 0.94917 0.98165 0.70596 0.0
C1497 C 0.01375 0.99095 0.74484 0.0
C1498 C 0.02203 0.96922 0.73278 0.0
C1499 C 0.00019 0.96638 0.72048 0.0
C1500 C 0.05522 0.95347 0.73132 0.0
C1501 C 0.03357 0.99226 0.7593 0.0
C1502 C 0.08366 0.97327 0.73282 0.0
C1503 C 0.11432 0.96174 0.72787 0.0
C1504 C 0.11703 0.93068 0.72088 0.0
C1505 C 0.0894 0.90973 0.72027 0.0
C1506 C 0.05863 0.921 0.72557 0.0
H1507 H 0.01689 -0.0039 0.76916 0.0
H1508 H 0.04813 0.96922 0.76114 0.0
H1509 H 0.05074 0.01374 0.75889 0.0
H1510 H 0.08194 -0.00136 0.73674 0.0
H1511 H 0.13562 0.97797 0.72868 0.0
H1512 H 0.06854 0.36649 0.98852 0.0
H1513 H 0.0432 0.4169 0.99895 0.0
H1514 H 0.04048 0.45985 0.95427 0.0
H1515 H 0.06525 0.40959 0.94375 0.0
H1516 H 0.05573 0.50485 0.98249 0.0
H1517 H 0.94127 0.42706 0.98314 0.0
H1518 H 0.97919 0.41209 0.99155 0.0
H1519 H 0.97608 0.41569 0.97138 0.0
C1520 C 0.06381 0.38725 0.98103 0.0
C1521 C 0.06857 0.38419 0.96531 0.0
C1522 C 0.04921 0.41587 0.987 0.0
C1523 C 0.03982 0.44172 0.97732 0.0
C1524 C 0.04767 0.44002 0.96188 0.0
H1525 H 0.92468 0.58103 0.94431 0.0
H1526 H 0.94908 0.5304 0.95462 0.0
C1527 C 0.06178 0.41136 0.95589 0.0
C1528 C 0.01716 0.4681 0.98239 0.0
H1529 H 0.93427 0.48495 0.98253 0.0
C1530 C 0.02921 0.5006 0.98316 0.0
C1531 C 0.98264 0.46214 0.98311 0.0
C1532 C 0.96876 0.42742 0.98226 0.0
C1533 C 0.00736 0.52766 0.98331 0.0
C1534 C 0.97282 0.52172 0.98261 0.0
C1535 C 0.96079 0.48919 0.98318 0.0
C1536 C 0.95017 0.54825 0.97772 0.0
C1537 C 0.02126 0.56239 0.98267 0.0
C1538 C 0.9411 0.57406 0.9875 0.0
C1539 C 0.9267 0.60289 0.98164 0.0
C1540 C 0.92184 0.60617 0.96594 0.0
C1541 C 0.92824 0.57905 0.95643 0.0
C1542 C 0.94214 0.55019 0.96231 0.0
H1543 H 0.04876 0.5627 0.98342 0.0
H1544 H 0.01375 0.57454 0.97191 0.0
H1545 H 0.01102 0.57737 0.99212 0.0
H1546 H 0.94726 0.57284 0.99942 0.0
H1547 H 0.92227 0.62362 0.98918 0.0
H1548 H 0.4123 0.92003 0.05597 0.0
H1549 H 0.46295 0.94431 0.0457 0.0
H1550 H 0.41991 0.94471 0.00103 0.0
H1551 H 0.36909 0.91995 0.01123 0.0
H1552 H 0.50853 0.93179 0.01814 0.0
H1553 H 0.42876 0.04513 0.01742 0.0
H1554 H 0.41718 0.00924 0.02841 0.0
H1555 H 0.41497 0.00778 0.00816 0.0
C1556 C 0.41415 0.92399 0.04387 0.0
C1557 C 0.38677 0.91843 0.03442 0.0
C1558 C 0.44305 0.93782 0.03801 0.0
C1559 C 0.4448 0.9466 0.02268 0.0
C1560 C 0.41884 0.93805 0.0129 0.0
H1561 H 0.62387 0.06848 0.01059 0.0
H1562 H 0.57371 0.04164 0.00079 0.0
C1563 C 0.38996 0.92376 0.01874 0.0
C1564 C 0.47103 0.96974 0.01793 0.0
H1565 H 0.48639 0.05296 0.01776 0.0
C1566 C 0.50379 0.95824 0.01742 0.0
C1567 C 0.46447 0.0042 0.01718 0.0
C1568 C 0.42951 0.0176 0.01783 0.0
C1569 C 0.53043 0.98055 0.0174 0.0
C1570 C 0.52384 0.015 0.01795 0.0
C1571 C 0.49112 0.02649 0.01721 0.0
C1572 C 0.54992 0.03829 0.02267 0.0
C1573 C 0.5654 0.96727 0.01824 0.0
C1574 C 0.55206 0.04664 0.03804 0.0
C1575 C 0.58058 0.06163 0.04367 0.0
C1576 C 0.60715 0.06881 0.03395 0.0
C1577 C 0.60355 0.06351 0.01829 0.0
C1578 C 0.57509 0.04802 0.01268 0.0
H1579 H 0.56628 0.93977 0.01751 0.0
H1580 H 0.58045 0.97774 0.00887 0.0
H1581 H 0.57708 0.97506 0.02906 0.0
H1582 H 0.53276 0.0392 0.04587 0.0
H1583 H 0.5828 0.06546 0.05577 0.0
H1584 H 0.4219 0.42073 0.79951 0.0
H1585 H 0.44695 0.46942 0.78769 0.0
H1586 H 0.43934 0.42289 0.74388 0.0
H1587 H 0.41341 0.37436 0.75559 0.0
H1588 H 0.50665 0.43714 0.75628 0.0
H1589 H 0.42307 0.54636 0.7568 0.0
H1590 H 0.42043 0.52122 0.77357 0.0
H1591 H 0.40798 0.50415 0.75565 0.0
C1592 C 0.42419 0.42153 0.78729 0.0
C1593 C 0.41582 0.39387 0.77846 0.0
C1594 C 0.4384 0.44933 0.78054 0.0
C1595 C 0.44483 0.44963 0.76493 0.0
C1596 C 0.43416 0.42315 0.75592 0.0
H1597 H 0.57064 0.62234 0.75353 0.0
H1598 H 0.54196 0.57507 0.74209 0.0
C1599 C 0.41926 0.39556 0.76263 0.0
C1600 C 0.46846 0.47418 0.75899 0.0
H1601 H 0.48185 0.55743 0.75945 0.0
C1602 C 0.50112 0.46349 0.75635 0.0
C1603 C 0.46105 0.50835 0.75902 0.0
C1604 C 0.42613 0.52078 0.76127 0.0
C1605 C 0.52722 0.48632 0.75556 0.0
C1606 C 0.5202 0.52036 0.75733 0.0
C1607 C 0.48713 0.53118 0.75812 0.0
C1608 C 0.54604 0.54404 0.76195 0.0
C1609 C 0.56232 0.47384 0.75411 0.0
C1610 C 0.5589 0.54151 0.77666 0.0
C1611 C 0.57464 0.56857 0.78331 0.0
C1612 C 0.57818 0.59826 0.77521 0.0
C1613 C 0.56862 0.59949 0.75992 0.0
C1614 C 0.55214 0.57262 0.75338 0.0
H1615 H 0.56315 0.44923 0.74846 0.0
H1616 H 0.57785 0.49162 0.74763 0.0
H1617 H 0.5732 0.47108 0.76558 0.0
H1618 H 0.55392 0.51978 0.78352 0.0
H1619 H 0.58162 0.5672 0.79513 0.0
H1620 H 0.62289 0.42537 0.2352 0.0
H1621 H 0.57008 0.44758 0.24448 0.0
H1622 H 0.53178 0.4478 0.19893 0.0
H1623 H 0.58467 0.4264 0.18952 0.0
H1624 H 0.54981 0.51308 0.22932 0.0
H1625 H 0.4537 0.41451 0.22856 0.0
H1626 H 0.49726 0.40588 0.23159 0.0
H1627 H 0.48215 0.41412 0.21285 0.0
C1628 C 0.60275 0.42889 0.22725 0.0
C1629 C 0.60777 0.42428 0.21163 0.0
C1630 C 0.57273 0.44169 0.23258 0.0
C1631 C 0.54723 0.44912 0.22237 0.0
C1632 C 0.55119 0.44179 0.20696 0.0
H1633 H 0.40264 0.56795 0.1925 0.0
H1634 H 0.45478 0.54368 0.20132 0.0
C1635 C 0.58134 0.42964 0.2016 0.0
C1636 C 0.51893 0.46975 0.22706 0.0
H1637 H 0.43457 0.47078 0.22623 0.0
C1638 C 0.52457 0.5038 0.22917 0.0
C1639 C 0.48625 0.45741 0.22684 0.0
C1640 C 0.47932 0.42091 0.22496 0.0
C1641 C 0.49807 0.52627 0.22965 0.0
C1642 C 0.46548 0.51417 0.22811 0.0
C1643 C 0.45975 0.47987 0.22742 0.0
C1644 C 0.43775 0.53634 0.22431 0.0
C1645 C 0.50499 0.56292 0.23072 0.0
C1646 C 0.41169 0.54136 0.23454 0.0
C1647 C 0.38215 0.5559 0.2296 0.0
C1648 C 0.37825 0.56463 0.21429 0.0
C1649 C 0.40522 0.5616 0.20436 0.0
C1650 C 0.4349 0.54777 0.20938 0.0
H1651 H 0.53034 0.56789 0.23509 0.0
H1652 H 0.50282 0.57416 0.21929 0.0
H1653 H 0.48656 0.57523 0.23821 0.0
H1654 H 0.41348 0.53227 0.24605 0.0
H1655 H 0.36146 0.5575 0.2374 0.0
H1656 H 0.42433 0.08249 0.44616 0.0
H1657 H 0.45021 0.03282 0.45679 0.0
H1658 H 0.46084 0.08215 0.49981 0.0
H1659 H 0.43406 0.13176 0.48934 0.0
H1660 H 0.52235 0.06047 0.48236 0.0
H1661 H 0.42934 0.96098 0.49126 0.0
H1662 H 0.42334 0.98536 0.47442 0.0
H1663 H 0.41928 0.00465 0.49266 0.0
C1664 C 0.43088 0.0822 0.45805 0.0
C1665 C 0.42717 0.11077 0.46696 0.0
C1666 C 0.4456 0.05389 0.46411 0.0
C1667 C 0.45725 0.05396 0.47907 0.0
C1668 C 0.4516 0.08164 0.4883 0.0
H1669 H 0.5731 0.87287 0.49229 0.0
H1670 H 0.54915 0.92496 0.50159 0.0
C1671 C 0.43618 0.10981 0.48233 0.0
C1672 C 0.48032 0.02761 0.48379 0.0
H1673 H 0.48531 0.94347 0.48594 0.0
C1674 C 0.51435 0.03494 0.48369 0.0
C1675 C 0.46969 0.99453 0.48554 0.0
C1676 C 0.43338 0.9858 0.48611 0.0
C1677 C 0.53807 0.00952 0.48377 0.0
C1678 C 0.52731 0.97627 0.48406 0.0
C1679 C 0.49343 0.96912 0.48571 0.0
C1680 C 0.54947 0.94884 0.47968 0.0
C1681 C 0.57431 0.01817 0.48246 0.0
C1682 C 0.55848 0.9457 0.46441 0.0
C1683 C 0.57158 0.91594 0.45904 0.0
C1684 C 0.57629 0.88914 0.46893 0.0
C1685 C 0.57018 0.8934 0.48448 0.0
C1686 C 0.55637 0.923 0.4898 0.0
H1687 H 0.57922 0.04393 0.48633 0.0
H1688 H 0.58974 0.0007 0.48918 0.0
H1689 H 0.58202 0.01619 0.47043 0.0
H1690 H 0.55285 0.9653 0.45641 0.0
H1691 H 0.57588 0.91311 0.447 0.0
H1692 H 0.91389 0.42511 0.55578 0.0
H1693 H 0.96317 0.45153 0.54518 0.0
H1694 H 0.92218 0.44287 0.5003 0.0
H1695 H 0.87282 0.41591 0.5108 0.0
H1696 H 0.01008 0.43703 0.51757 0.0
H1697 H 0.92528 0.54638 0.51448 0.0
H1698 H 0.91582 0.51184 0.52672 0.0
H1699 H 0.91294 0.507 0.50661 0.0
C1700 C 0.916 0.42753 0.5436 0.0
C1701 C 0.88954 0.41869 0.53412 0.0
C1702 C 0.94409 0.44264 0.53756 0.0
C1703 C 0.94591 0.44939 0.52202 0.0
C1704 C 0.92104 0.43776 0.51232 0.0
H1705 H 0.12309 0.57188 0.50925 0.0
H1706 H 0.07349 0.54517 0.49882 0.0
C1707 C 0.89303 0.42219 0.51835 0.0
C1708 C 0.97099 0.47323 0.51674 0.0
H1709 H 0.98257 0.55694 0.5148 0.0
C1710 C 0.0042 0.46315 0.51633 0.0
C1711 C 0.96288 0.50723 0.51529 0.0
C1712 C 0.92734 0.51904 0.51578 0.0
C1713 C 0.02982 0.48658 0.51578 0.0
C1714 C 0.02174 0.52077 0.51564 0.0
C1715 C 0.9885 0.53068 0.51476 0.0
C1716 C 0.04672 0.54558 0.52004 0.0
C1717 C 0.06531 0.4748 0.51692 0.0
C1718 C 0.04692 0.5565 0.53511 0.0
C1719 C 0.0751 0.57147 0.54108 0.0
C1720 C 0.10325 0.57607 0.53199 0.0
C1721 C 0.10152 0.56889 0.51644 0.0
C1722 C 0.07336 0.55343 0.51049 0.0
H1723 H 0.06724 0.44732 0.51733 0.0
H1724 H 0.07963 0.48381 0.50701 0.0
H1725 H 0.07703 0.48515 0.52726 0.0
H1726 H 0.02651 0.55058 0.54262 0.0
H1727 H 0.07594 0.57678 0.5531 0.0
loop_
_geom_bond_atom_site_label_1
_geom_bond_atom_site_label_2
_geom_bond_distance
_geom_bond_site_symmetry_2
_ccdc_geom_bond_type
Mn0 O5 2.095 . S
Mn0 O15 2.162 . S
Mn0 O16 2.297 . S
Mn0 O24 2.385 . S
Mn0 O25 2.209 . S
Mn0 O26 2.094 . S
Mn1 O6 2.121 . S
Mn1 N8 2.257 . S
Mn1 N17 2.249 1_455 S
Mn1 O25 2.215 . S
Mn1 O27 2.117 . S
C2 O24 1.234 . S
C2 O25 1.283 . S
C3 O15 1.281 . S
C3 O16 1.236 . S
C4 O26 1.240 . S
C4 O27 1.264 . S
O5 Mn0 2.095 . S
O5 C14 1.250 . S
O6 Mn1 2.121 . S
O6 C14 1.258 . S
C7 N8 1.326 . S
C7 C11 1.460 . S
C7 H13 0.929 . S
N8 Mn1 2.257 . S
N8 C7 1.326 . S
N8 C12 1.362 1_455 S
C9 C10 1.258 . S
C9 C12 1.431 . S
C9 C29 1.449 . S
C10 C9 1.258 . S
C10 C11 1.477 1_655 S
C10 H30 0.931 . S
C11 C7 1.460 . S
C11 C10 1.477 1_455 S
C11 H31 0.930 . S
C12 N8 1.362 1_655 S
C12 C9 1.431 . S
C12 C22 1.476 . S
H13 C7 0.929 . S
C14 O5 1.250 . S
C14 O6 1.258 . S
O15 Mn0 2.162 . S
O15 C3 1.281 . S
O16 Mn0 2.297 . S
O16 C3 1.236 . S
N17 Mn1 2.249 1_655 S
N17 C18 1.338 . S
N17 C22 1.343 . S
C18 N17 1.338 . S
C18 C19 1.457 . S
C18 H23 0.929 1_655 S
C19 C18 1.457 . S
C19 C20 1.291 . S
C19 H32 0.931 . S
C20 C19 1.291 . S
C20 C21 1.373 . S
C20 H33 0.929 . S
C21 C20 1.373 . S
C21 C22 1.396 . S
C21 C28 1.403 . S
C22 C12 1.476 . S
C22 N17 1.343 . S
C22 C21 1.396 . S
H23 C18 0.929 1_455 S
O24 Mn0 2.385 . S
O24 C2 1.234 . S
O25 Mn0 2.209 . S
O25 Mn1 2.215 . S
O25 C2 1.283 . S
O26 Mn0 2.094 . S
O26 C4 1.240 . S
O27 Mn1 2.117 . S
O27 C4 1.264 . S
C28 C21 1.403 . S
C28 C29 1.399 . S
C28 H34 0.929 . S
C29 C9 1.449 . S
C29 C28 1.399 . S
C29 H35 0.930 . S
H30 C10 0.931 . S
H31 C11 0.930 . S
H32 C19 0.931 . S
H33 C20 0.929 . S
H34 C28 0.929 . S
H35 C29 0.930 . S
Mn36 O41 2.095 . S
Mn36 O51 2.162 . S
Mn36 O52 2.297 . S
Mn36 O60 2.385 . S
Mn36 O61 2.209 . S
Mn36 O62 2.094 . S
Mn37 O42 2.121 . S
Mn37 N44 2.257 . S
Mn37 N53 2.249 1_565 S
Mn37 O61 2.215 . S
Mn37 O63 2.117 . S
C38 O60 1.234 . S
C38 O61 1.283 . S
C39 O51 1.281 . S
C39 O52 1.236 . S
C40 O62 1.240 . S
C40 O63 1.264 . S
O41 Mn36 2.095 . S
O41 C50 1.250 . S
O42 Mn37 2.121 . S
O42 C50 1.258 . S
C43 N44 1.326 . S
C43 C47 1.460 . S
C43 H49 0.929 . S
N44 Mn37 2.257 . S
N44 C43 1.326 . S
N44 C48 1.362 1_565 S
C45 C46 1.258 . S
C45 C48 1.431 . S
C45 C65 1.449 . S
C46 C45 1.258 . S
C46 C47 1.477 1_545 S
C46 H66 0.931 . S
C47 C43 1.460 . S
C47 C46 1.477 1_565 S
C47 H67 0.930 . S
C48 N44 1.362 1_545 S
C48 C45 1.431 . S
C48 C58 1.476 . S
H49 C43 0.929 . S
C50 O41 1.250 . S
C50 O42 1.258 . S
O51 Mn36 2.162 . S
O51 C39 1.281 . S
O52 Mn36 2.297 . S
O52 C39 1.236 . S
N53 Mn37 2.249 1_545 S
N53 C54 1.338 . S
N53 C58 1.343 . S
C54 N53 1.338 . S
C54 C55 1.457 . S
C54 H59 0.929 1_545 S
C55 C54 1.457 . S
C55 C56 1.291 . S
C55 H68 0.931 . S
C56 C55 1.291 . S
C56 C57 1.373 . S
C56 H69 0.929 . S
C57 C56 1.373 . S
C57 C58 1.396 . S
C57 C64 1.403 . S
C58 C48 1.476 . S
C58 N53 1.343 . S
C58 C57 1.396 . S
H59 C54 0.929 1_565 S
O60 Mn36 2.385 . S
O60 C38 1.234 . S
O61 Mn36 2.209 . S
O61 Mn37 2.215 . S
O61 C38 1.283 . S
O62 Mn36 2.094 . S
O62 C40 1.240 . S
O63 Mn37 2.117 . S
O63 C40 1.264 . S
C64 C57 1.403 . S
C64 C65 1.399 . S
C64 H70 0.929 . S
C65 C45 1.449 . S
C65 C64 1.399 . S
C65 H71 0.930 . S
H66 C46 0.931 . S
H67 C47 0.930 . S
H68 C55 0.931 . S
H69 C56 0.929 . S
H70 C64 0.929 . S
H71 C65 0.930 . S
Mn72 O77 2.095 . S
Mn72 O87 2.162 . S
Mn72 O88 2.297 . S
Mn72 O96 2.385 . S
Mn72 O97 2.209 . S
Mn72 O98 2.094 . S
Mn73 O78 2.121 . S
Mn73 N80 2.257 . S
Mn73 N89 2.282 1_655 S
Mn73 O97 2.215 . S
Mn73 O99 2.117 . S
C74 O96 1.234 . S
C74 O97 1.283 . S
C75 O87 1.281 . S
C75 O88 1.236 . S
C76 O98 1.240 . S
C76 O99 1.264 . S
O77 Mn72 2.095 . S
O77 C86 1.250 . S
O78 Mn73 2.121 . S
O78 C86 1.258 . S
C79 N80 1.326 . S
C79 C83 1.460 . S
C79 H85 0.929 . S
N80 Mn73 2.257 . S
N80 C79 1.326 . S
N80 C84 1.362 1_655 S
C81 C82 1.258 . S
C81 C84 1.431 . S
C81 C101 1.449 . S
C82 C81 1.258 . S
C82 C83 1.477 1_455 S
C82 H102 0.931 . S
C83 C79 1.460 . S
C83 C82 1.477 1_655 S
C83 H103 0.930 . S
C84 N80 1.362 1_455 S
C84 C81 1.431 . S
C84 C94 1.476 . S
H85 C79 0.929 . S
C86 O77 1.250 . S
C86 O78 1.258 . S
O87 Mn72 2.162 . S
O87 C75 1.281 . S
O88 Mn72 2.297 . S
O88 C75 1.236 . S
N89 Mn73 2.282 1_455 S
N89 C90 1.328 . S
N89 C94 1.318 . S
C90 N89 1.328 . S
C90 C91 1.457 . S
C90 H95 0.929 1_455 S
C91 C90 1.457 . S
C91 C92 1.291 . S
C91 H104 0.931 . S
C92 C91 1.291 . S
C92 C93 1.373 . S
C92 H105 0.929 . S
C93 C92 1.373 . S
C93 C94 1.396 . S
C93 C100 1.403 . S
C94 C84 1.476 . S
C94 N89 1.318 . S
C94 C93 1.396 . S
H95 C90 0.929 1_655 S
O96 Mn72 2.385 . S
O96 C74 1.234 . S
O97 Mn72 2.209 . S
O97 Mn73 2.215 . S
O97 C74 1.283 . S
O98 Mn72 2.094 . S
O98 C76 1.240 . S
O99 Mn73 2.117 . S
O99 C76 1.264 . S
C100 C93 1.403 . S
C100 C101 1.399 . S
C100 H106 0.929 . S
C101 C81 1.449 . S
C101 C100 1.399 . S
C101 H107 0.930 . S
H102 C82 0.931 . S
H103 C83 0.930 . S
H104 C91 0.931 . S
H105 C92 0.929 . S
H106 C100 0.929 . S
H107 C101 0.930 . S
Mn108 O113 2.095 . S
Mn108 O123 2.162 . S
Mn108 O124 2.297 . S
Mn108 O132 2.385 . S
Mn108 O133 2.209 . S
Mn108 O134 2.094 . S
Mn109 O114 2.121 . S
Mn109 N116 2.257 . S
Mn109 N125 2.282 1_545 S
Mn109 O133 2.215 . S
Mn109 O135 2.117 . S
C110 O132 1.234 . S
C110 O133 1.283 . S
C111 O123 1.281 . S
C111 O124 1.236 . S
C112 O134 1.240 . S
C112 O135 1.264 . S
O113 Mn108 2.095 . S
O113 C122 1.250 . S
O114 Mn109 2.121 . S
O114 C122 1.258 . S
C115 N116 1.326 . S
C115 C119 1.460 . S
C115 H121 0.929 . S
N116 Mn109 2.257 . S
N116 C115 1.326 . S
N116 C120 1.362 1_545 S
C117 C118 1.258 . S
C117 C120 1.431 . S
C117 C137 1.449 . S
C118 C117 1.258 . S
C118 C119 1.477 1_565 S
C118 H138 0.931 . S
C119 C115 1.460 . S
C119 C118 1.477 1_545 S
C119 H139 0.930 . S
C120 N116 1.362 1_565 S
C120 C117 1.431 . S
C120 C130 1.476 . S
H121 C115 0.929 . S
C122 O113 1.250 . S
C122 O114 1.258 . S
O123 Mn108 2.162 . S
O123 C111 1.281 . S
O124 Mn108 2.297 . S
O124 C111 1.236 . S
N125 Mn109 2.282 1_565 S
N125 C126 1.328 . S
N125 C130 1.318 . S
C126 N125 1.328 . S
C126 C127 1.457 . S
C126 H131 0.929 1_565 S
C127 C126 1.457 . S
C127 C128 1.291 . S
C127 H140 0.931 . S
C128 C127 1.291 . S
C128 C129 1.373 . S
C128 H141 0.929 . S
C129 C128 1.373 . S
C129 C130 1.396 . S
C129 C136 1.403 . S
C130 C120 1.476 . S
C130 N125 1.318 . S
C130 C129 1.396 . S
H131 C126 0.929 1_545 S
O132 Mn108 2.385 . S
O132 C110 1.234 . S
O133 Mn108 2.209 . S
O133 Mn109 2.215 . S
O133 C110 1.283 . S
O134 Mn108 2.094 . S
O134 C112 1.240 . S
O135 Mn109 2.117 . S
O135 C112 1.264 . S
C136 C129 1.403 . S
C136 C137 1.399 . S
C136 H142 0.929 . S
C137 C117 1.449 . S
C137 C136 1.399 . S
C137 H143 0.930 . S
H138 C118 0.931 . S
H139 C119 0.930 . S
H140 C127 0.931 . S
H141 C128 0.929 . S
H142 C136 0.929 . S
H143 C137 0.930 . S
Mn144 O149 2.095 . S
Mn144 O159 2.162 . S
Mn144 O160 2.297 . S
Mn144 O168 2.385 . S
Mn144 O169 2.209 . S
Mn144 O170 2.094 . S
Mn145 O150 2.121 . S
Mn145 N152 2.257 . S
Mn145 N161 2.282 1_455 S
Mn145 O169 2.215 . S
Mn145 O171 2.117 . S
C146 O168 1.234 . S
C146 O169 1.283 . S
C147 O159 1.281 . S
C147 O160 1.236 . S
C148 O170 1.240 . S
C148 O171 1.264 . S
O149 Mn144 2.095 . S
O149 C158 1.250 . S
O150 Mn145 2.121 . S
O150 C158 1.258 . S
C151 N152 1.326 . S
C151 C155 1.460 . S
C151 H157 0.929 . S
N152 Mn145 2.257 . S
N152 C151 1.326 . S
N152 C156 1.362 1_455 S
C153 C154 1.258 . S
C153 C156 1.431 . S
C153 C173 1.449 . S
C154 C153 1.258 . S
C154 C155 1.477 1_655 S
C154 H174 0.931 . S
C155 C151 1.460 . S
C155 C154 1.477 1_455 S
C155 H175 0.930 . S
C156 N152 1.362 1_655 S
C156 C153 1.431 . S
C156 C166 1.476 . S
H157 C151 0.929 . S
C158 O149 1.250 . S
C158 O150 1.258 . S
O159 Mn144 2.162 . S
O159 C147 1.281 . S
O160 Mn144 2.297 . S
O160 C147 1.236 . S
N161 Mn145 2.282 1_655 S
N161 C162 1.328 . S
N161 C166 1.318 . S
C162 N161 1.328 . S
C162 C163 1.457 . S
C162 H167 0.929 1_655 S
C163 C162 1.457 . S
C163 C164 1.291 . S
C163 H176 0.931 . S
C164 C163 1.291 . S
C164 C165 1.373 . S
C164 H177 0.929 . S
C165 C164 1.373 . S
C165 C166 1.396 . S
C165 C172 1.403 . S
C166 C156 1.476 . S
C166 N161 1.318 . S
C166 C165 1.396 . S
H167 C162 0.929 1_455 S
O168 Mn144 2.385 . S
O168 C146 1.234 . S
O169 Mn144 2.209 . S
O169 Mn145 2.215 . S
O169 C146 1.283 . S
O170 Mn144 2.094 . S
O170 C148 1.240 . S
O171 Mn145 2.117 . S
O171 C148 1.264 . S
C172 C165 1.403 . S
C172 C173 1.399 . S
C172 H178 0.929 . S
C173 C153 1.449 . S
C173 C172 1.399 . S
C173 H179 0.930 . S
H174 C154 0.931 . S
H175 C155 0.930 . S
H176 C163 0.931 . S
H177 C164 0.929 . S
H178 C172 0.929 . S
H179 C173 0.930 . S
Mn180 O185 2.095 . S
Mn180 O195 2.162 . S
Mn180 O196 2.297 . S
Mn180 O204 2.385 . S
Mn180 O205 2.209 . S
Mn180 O206 2.094 . S
Mn181 O186 2.121 . S
Mn181 N188 2.257 . S
Mn181 N197 2.282 1_565 S
Mn181 O205 2.215 . S
Mn181 O207 2.117 . S
C182 O204 1.234 . S
C182 O205 1.283 . S
C183 O195 1.281 . S
C183 O196 1.236 . S
C184 O206 1.240 . S
C184 O207 1.264 . S
O185 Mn180 2.095 . S
O185 C194 1.250 . S
O186 Mn181 2.121 . S
O186 C194 1.258 . S
C187 N188 1.326 . S
C187 C191 1.460 . S
C187 H193 0.929 . S
N188 Mn181 2.257 . S
N188 C187 1.326 . S
N188 C192 1.362 1_565 S
C189 C190 1.258 . S
C189 C192 1.431 . S
C189 C209 1.449 . S
C190 C189 1.258 . S
C190 C191 1.477 1_545 S
C190 H210 0.931 . S
C191 C187 1.460 . S
C191 C190 1.477 1_565 S
C191 H211 0.930 . S
C192 N188 1.362 1_545 S
C192 C189 1.431 . S
C192 C202 1.476 . S
H193 C187 0.929 . S
C194 O185 1.250 . S
C194 O186 1.258 . S
O195 Mn180 2.162 . S
O195 C183 1.281 . S
O196 Mn180 2.297 . S
O196 C183 1.236 . S
N197 Mn181 2.282 1_545 S
N197 C198 1.328 . S
N197 C202 1.318 . S
C198 N197 1.328 . S
C198 C199 1.457 . S
C198 H203 0.929 1_545 S
C199 C198 1.457 . S
C199 C200 1.291 . S
C199 H212 0.931 . S
C200 C199 1.291 . S
C200 C201 1.373 . S
C200 H213 0.929 . S
C201 C200 1.373 . S
C201 C202 1.396 . S
C201 C208 1.403 . S
C202 C192 1.476 . S
C202 N197 1.318 . S
C202 C201 1.396 . S
H203 C198 0.929 1_565 S
O204 Mn180 2.385 . S
O204 C182 1.234 . S
O205 Mn180 2.209 . S
O205 Mn181 2.215 . S
O205 C182 1.283 . S
O206 Mn180 2.094 . S
O206 C184 1.240 . S
O207 Mn181 2.117 . S
O207 C184 1.264 . S
C208 C201 1.403 . S
C208 C209 1.399 . S
C208 H214 0.929 . S
C209 C189 1.449 . S
C209 C208 1.399 . S
C209 H215 0.930 . S
H210 C190 0.931 . S
H211 C191 0.930 . S
H212 C199 0.931 . S
H213 C200 0.929 . S
H214 C208 0.929 . S
H215 C209 0.930 . S
Mn216 O221 2.095 . S
Mn216 O231 2.162 . S
Mn216 O232 2.297 . S
Mn216 O240 2.385 . S
Mn216 O241 2.209 . S
Mn216 O242 2.094 . S
Mn217 O222 2.121 . S
Mn217 N224 2.257 . S
Mn217 N233 2.249 1_655 S
Mn217 O241 2.215 . S
Mn217 O243 2.117 . S
C218 O240 1.234 . S
C218 O241 1.283 . S
C219 O231 1.281 . S
C219 O232 1.236 . S
C220 O242 1.240 . S
C220 O243 1.264 . S
O221 Mn216 2.095 . S
O221 C230 1.250 . S
O222 Mn217 2.121 . S
O222 C230 1.258 . S
C223 N224 1.326 . S
C223 C227 1.460 . S
C223 H229 0.929 . S
N224 Mn217 2.257 . S
N224 C223 1.326 . S
N224 C228 1.362 1_655 S
C225 C226 1.258 . S
C225 C228 1.431 . S
C225 C245 1.449 . S
C226 C225 1.258 . S
C226 C227 1.477 1_455 S
C226 H246 0.931 . S
C227 C223 1.460 . S
C227 C226 1.477 1_655 S
C227 H247 0.930 . S
C228 N224 1.362 1_455 S
C228 C225 1.431 . S
C228 C238 1.476 . S
H229 C223 0.929 . S
C230 O221 1.250 . S
C230 O222 1.258 . S
O231 Mn216 2.162 . S
O231 C219 1.281 . S
O232 Mn216 2.297 . S
O232 C219 1.236 . S
N233 Mn217 2.249 1_455 S
N233 C234 1.338 . S
N233 C238 1.343 . S
C234 N233 1.338 . S
C234 C235 1.457 . S
C234 H239 0.929 1_455 S
C235 C234 1.457 . S
C235 C236 1.291 . S
C235 H248 0.931 . S
C236 C235 1.291 . S
C236 C237 1.373 . S
C236 H249 0.929 . S
C237 C236 1.373 . S
C237 C238 1.396 . S
C237 C244 1.403 . S
C238 C228 1.476 . S
C238 N233 1.343 . S
C238 C237 1.396 . S
H239 C234 0.929 1_655 S
O240 Mn216 2.385 . S
O240 C218 1.234 . S
O241 Mn216 2.209 . S
O241 Mn217 2.215 . S
O241 C218 1.283 . S
O242 Mn216 2.094 . S
O242 C220 1.240 . S
O243 Mn217 2.117 . S
O243 C220 1.264 . S
C244 C237 1.403 . S
C244 C245 1.399 . S
C244 H250 0.929 . S
C245 C225 1.449 . S
C245 C244 1.399 . S
C245 H251 0.930 . S
H246 C226 0.931 . S
H247 C227 0.930 . S
H248 C235 0.931 . S
H249 C236 0.929 . S
H250 C244 0.929 . S
H251 C245 0.930 . S
Mn252 O257 2.095 . S
Mn252 O267 2.162 . S
Mn252 O268 2.297 . S
Mn252 O276 2.385 . S
Mn252 O277 2.209 . S
Mn252 O278 2.094 . S
Mn253 O258 2.121 . S
Mn253 N260 2.257 . S
Mn253 N269 2.249 1_545 S
Mn253 O277 2.215 . S
Mn253 O279 2.117 . S
C254 O276 1.234 . S
C254 O277 1.283 . S
C255 O267 1.281 . S
C255 O268 1.236 . S
C256 O278 1.240 . S
C256 O279 1.264 . S
O257 Mn252 2.095 . S
O257 C266 1.250 . S
O258 Mn253 2.121 . S
O258 C266 1.258 . S
C259 N260 1.326 . S
C259 C263 1.460 . S
C259 H265 0.929 . S
N260 Mn253 2.257 . S
N260 C259 1.326 . S
N260 C264 1.362 1_545 S
C261 C262 1.258 . S
C261 C264 1.431 . S
C261 C281 1.449 . S
C262 C261 1.258 . S
C262 C263 1.477 1_565 S
C262 H282 0.931 . S
C263 C259 1.460 . S
C263 C262 1.477 1_545 S
C263 H283 0.930 . S
C264 N260 1.362 1_565 S
C264 C261 1.431 . S
C264 C274 1.476 . S
H265 C259 0.929 . S
C266 O257 1.250 . S
C266 O258 1.258 . S
O267 Mn252 2.162 . S
O267 C255 1.281 . S
O268 Mn252 2.297 . S
O268 C255 1.236 . S
N269 Mn253 2.249 1_565 S
N269 C270 1.338 . S
N269 C274 1.343 . S
C270 N269 1.338 . S
C270 C271 1.457 . S
C270 H275 0.929 1_565 S
C271 C270 1.457 . S
C271 C272 1.291 . S
C271 H284 0.931 . S
C272 C271 1.291 . S
C272 C273 1.373 . S
C272 H285 0.929 . S
C273 C272 1.373 . S
C273 C274 1.396 . S
C273 C280 1.403 . S
C274 C264 1.476 . S
C274 N269 1.343 . S
C274 C273 1.396 . S
H275 C270 0.929 1_545 S
O276 Mn252 2.385 . S
O276 C254 1.234 . S
O277 Mn252 2.209 . S
O277 Mn253 2.215 . S
O277 C254 1.283 . S
O278 Mn252 2.094 . S
O278 C256 1.240 . S
O279 Mn253 2.117 . S
O279 C256 1.264 . S
C280 C273 1.403 . S
C280 C281 1.399 . S
C280 H286 0.929 . S
C281 C261 1.449 . S
C281 C280 1.399 . S
C281 H287 0.930 . S
H282 C262 0.931 . S
H283 C263 0.930 . S
H284 C271 0.931 . S
H285 C272 0.929 . S
H286 C280 0.929 . S
H287 C281 0.930 . S
Mn288 O293 2.095 . S
Mn288 O303 2.162 . S
Mn288 O304 2.297 . S
Mn288 O312 2.385 . S
Mn288 O313 2.209 . S
Mn288 O314 2.094 . S
Mn289 O294 2.121 . S
Mn289 N296 2.257 . S
Mn289 N305 2.282 . S
Mn289 O313 2.215 . S
Mn289 O315 2.117 . S
C290 O312 1.234 . S
C290 O313 1.283 . S
C291 O303 1.281 . S
C291 O304 1.236 . S
C292 O314 1.240 . S
C292 O315 1.264 . S
O293 Mn288 2.095 . S
O293 C302 1.250 . S
O294 Mn289 2.121 . S
O294 C302 1.258 . S
C295 N296 1.326 . S
C295 C299 1.460 . S
C295 H301 0.929 . S
N296 Mn289 2.257 . S
N296 C295 1.326 . S
N296 C300 1.362 . S
C297 C298 1.258 . S
C297 C300 1.431 . S
C297 C317 1.449 . S
C298 C297 1.258 . S
C298 C299 1.477 . S
C298 H318 0.931 . S
C299 C295 1.460 . S
C299 C298 1.477 . S
C299 H319 0.930 . S
C300 N296 1.362 . S
C300 C297 1.431 . S
C300 C310 1.476 . S
H301 C295 0.929 . S
C302 O293 1.250 . S
C302 O294 1.258 . S
O303 Mn288 2.162 . S
O303 C291 1.281 . S
O304 Mn288 2.297 . S
O304 C291 1.236 . S
N305 Mn289 2.282 . S
N305 C306 1.328 . S
N305 C310 1.318 . S
C306 N305 1.328 . S
C306 C307 1.457 . S
C306 H311 0.929 . S
C307 C306 1.457 . S
C307 C308 1.291 . S
C307 H320 0.931 . S
C308 C307 1.291 . S
C308 C309 1.373 . S
C308 H321 0.929 . S
C309 C308 1.373 . S
C309 C310 1.396 . S
C309 C316 1.403 . S
C310 C300 1.476 . S
C310 N305 1.318 . S
C310 C309 1.396 . S
H311 C306 0.929 . S
O312 Mn288 2.385 . S
O312 C290 1.234 . S
O313 Mn288 2.209 . S
O313 Mn289 2.215 . S
O313 C290 1.283 . S
O314 Mn288 2.094 . S
O314 C292 1.240 . S
O315 Mn289 2.117 . S
O315 C292 1.264 . S
C316 C309 1.403 . S
C316 C317 1.399 . S
C316 H322 0.929 . S
C317 C297 1.449 . S
C317 C316 1.399 . S
C317 H323 0.930 . S
H318 C298 0.931 . S
H319 C299 0.930 . S
H320 C307 0.931 . S
H321 C308 0.929 . S
H322 C316 0.929 . S
H323 C317 0.930 . S
Mn324 O329 2.095 . S
Mn324 O339 2.162 . S
Mn324 O340 2.297 . S
Mn324 O348 2.385 . S
Mn324 O349 2.209 . S
Mn324 O350 2.094 . S
Mn325 O330 2.121 . S
Mn325 N332 2.257 . S
Mn325 N341 2.282 . S
Mn325 O349 2.215 . S
Mn325 O351 2.117 . S
C326 O348 1.234 . S
C326 O349 1.283 . S
C327 O339 1.281 . S
C327 O340 1.236 . S
C328 O350 1.240 . S
C328 O351 1.264 . S
O329 Mn324 2.095 . S
O329 C338 1.250 . S
O330 Mn325 2.121 . S
O330 C338 1.258 . S
C331 N332 1.326 . S
C331 C335 1.460 . S
C331 H337 0.929 . S
N332 Mn325 2.257 . S
N332 C331 1.326 . S
N332 C336 1.362 . S
C333 C334 1.258 . S
C333 C336 1.431 . S
C333 C353 1.449 . S
C334 C333 1.258 . S
C334 C335 1.477 . S
C334 H354 0.931 . S
C335 C331 1.460 . S
C335 C334 1.477 . S
C335 H355 0.930 . S
C336 N332 1.362 . S
C336 C333 1.431 . S
C336 C346 1.476 . S
H337 C331 0.929 . S
C338 O329 1.250 . S
C338 O330 1.258 . S
O339 Mn324 2.162 . S
O339 C327 1.281 . S
O340 Mn324 2.297 . S
O340 C327 1.236 . S
N341 Mn325 2.282 . S
N341 C342 1.328 . S
N341 C346 1.318 . S
C342 N341 1.328 . S
C342 C343 1.457 . S
C342 H347 0.929 . S
C343 C342 1.457 . S
C343 C344 1.291 . S
C343 H356 0.931 . S
C344 C343 1.291 . S
C344 C345 1.373 . S
C344 H357 0.929 . S
C345 C344 1.373 . S
C345 C346 1.396 . S
C345 C352 1.403 . S
C346 C336 1.476 . S
C346 N341 1.318 . S
C346 C345 1.396 . S
H347 C342 0.929 . S
O348 Mn324 2.385 . S
O348 C326 1.234 . S
O349 Mn324 2.209 . S
O349 Mn325 2.215 . S
O349 C326 1.283 . S
O350 Mn324 2.094 . S
O350 C328 1.240 . S
O351 Mn325 2.117 . S
O351 C328 1.264 . S
C352 C345 1.403 . S
C352 C353 1.399 . S
C352 H358 0.929 . S
C353 C333 1.449 . S
C353 C352 1.399 . S
C353 H359 0.930 . S
H354 C334 0.931 . S
H355 C335 0.930 . S
H356 C343 0.931 . S
H357 C344 0.929 . S
H358 C352 0.929 . S
H359 C353 0.930 . S
Mn360 O365 2.095 . S
Mn360 O375 2.162 . S
Mn360 O376 2.297 . S
Mn360 O384 2.385 . S
Mn360 O385 2.209 . S
Mn360 O386 2.094 . S
Mn361 O366 2.121 . S
Mn361 N368 2.257 . S
Mn361 N377 2.282 . S
Mn361 O385 2.215 . S
Mn361 O387 2.117 . S
C362 O384 1.234 . S
C362 O385 1.283 . S
C363 O375 1.281 . S
C363 O376 1.236 . S
C364 O386 1.240 . S
C364 O387 1.264 . S
O365 Mn360 2.095 . S
O365 C374 1.250 . S
O366 Mn361 2.121 . S
O366 C374 1.258 . S
C367 N368 1.326 . S
C367 C371 1.460 . S
C367 H373 0.929 . S
N368 Mn361 2.257 . S
N368 C367 1.326 . S
N368 C372 1.362 . S
C369 C370 1.258 . S
C369 C372 1.431 . S
C369 C389 1.449 . S
C370 C369 1.258 . S
C370 C371 1.477 . S
C370 H390 0.931 . S
C371 C367 1.460 . S
C371 C370 1.477 . S
C371 H391 0.930 . S
C372 N368 1.362 . S
C372 C369 1.431 . S
C372 C382 1.476 . S
H373 C367 0.929 . S
C374 O365 1.250 . S
C374 O366 1.258 . S
O375 Mn360 2.162 . S
O375 C363 1.281 . S
O376 Mn360 2.297 . S
O376 C363 1.236 . S
N377 Mn361 2.282 . S
N377 C378 1.328 . S
N377 C382 1.318 . S
C378 N377 1.328 . S
C378 C379 1.457 . S
C378 H383 0.929 . S
C379 C378 1.457 . S
C379 C380 1.291 . S
C379 H392 0.931 . S
C380 C379 1.291 . S
C380 C381 1.373 . S
C380 H393 0.929 . S
C381 C380 1.373 . S
C381 C382 1.396 . S
C381 C388 1.403 . S
C382 C372 1.476 . S
C382 N377 1.318 . S
C382 C381 1.396 . S
H383 C378 0.929 . S
O384 Mn360 2.385 . S
O384 C362 1.234 . S
O385 Mn360 2.209 . S
O385 Mn361 2.215 . S
O385 C362 1.283 . S
O386 Mn360 2.094 . S
O386 C364 1.240 . S
O387 Mn361 2.117 . S
O387 C364 1.264 . S
C388 C381 1.403 . S
C388 C389 1.399 . S
C388 H394 0.929 . S
C389 C369 1.449 . S
C389 C388 1.399 . S
C389 H395 0.930 . S
H390 C370 0.931 . S
H391 C371 0.930 . S
H392 C379 0.931 . S
H393 C380 0.929 . S
H394 C388 0.929 . S
H395 C389 0.930 . S
Mn396 O401 2.095 . S
Mn396 O411 2.162 . S
Mn396 O412 2.297 . S
Mn396 O420 2.385 . S
Mn396 O421 2.209 . S
Mn396 O422 2.094 . S
Mn397 O402 2.121 . S
Mn397 N404 2.257 . S
Mn397 N413 2.282 . S
Mn397 O421 2.215 . S
Mn397 O423 2.117 . S
C398 O420 1.234 . S
C398 O421 1.283 . S
C399 O411 1.281 . S
C399 O412 1.236 . S
C400 O422 1.240 . S
C400 O423 1.264 . S
O401 Mn396 2.095 . S
O401 C410 1.250 . S
O402 Mn397 2.121 . S
O402 C410 1.258 . S
C403 N404 1.326 . S
C403 C407 1.460 . S
C403 H409 0.929 . S
N404 Mn397 2.257 . S
N404 C403 1.326 . S
N404 C408 1.362 . S
C405 C406 1.258 . S
C405 C408 1.431 . S
C405 C425 1.449 . S
C406 C405 1.258 . S
C406 C407 1.477 . S
C406 H426 0.931 . S
C407 C403 1.460 . S
C407 C406 1.477 . S
C407 H427 0.930 . S
C408 N404 1.362 . S
C408 C405 1.431 . S
C408 C418 1.476 . S
H409 C403 0.929 . S
C410 O401 1.250 . S
C410 O402 1.258 . S
O411 Mn396 2.162 . S
O411 C399 1.281 . S
O412 Mn396 2.297 . S
O412 C399 1.236 . S
N413 Mn397 2.282 . S
N413 C414 1.328 . S
N413 C418 1.318 . S
C414 N413 1.328 . S
C414 C415 1.457 . S
C414 H419 0.929 . S
C415 C414 1.457 . S
C415 C416 1.291 . S
C415 H428 0.931 . S
C416 C415 1.291 . S
C416 C417 1.373 . S
C416 H429 0.929 . S
C417 C416 1.373 . S
C417 C418 1.396 . S
C417 C424 1.403 . S
C418 C408 1.476 . S
C418 N413 1.318 . S
C418 C417 1.396 . S
H419 C414 0.929 . S
O420 Mn396 2.385 . S
O420 C398 1.234 . S
O421 Mn396 2.209 . S
O421 Mn397 2.215 . S
O421 C398 1.283 . S
O422 Mn396 2.094 . S
O422 C400 1.240 . S
O423 Mn397 2.117 . S
O423 C400 1.264 . S
C424 C417 1.403 . S
C424 C425 1.399 . S
C424 H430 0.929 . S
C425 C405 1.449 . S
C425 C424 1.399 . S
C425 H431 0.930 . S
H426 C406 0.931 . S
H427 C407 0.930 . S
H428 C415 0.931 . S
H429 C416 0.929 . S
H430 C424 0.929 . S
H431 C425 0.930 . S
Mn432 O437 2.095 . S
Mn432 O447 2.162 . S
Mn432 O448 2.297 . S
Mn432 O456 2.385 . S
Mn432 O457 2.209 . S
Mn432 O458 2.094 . S
Mn433 O438 2.121 . S
Mn433 N440 2.257 . S
Mn433 N449 2.282 . S
Mn433 O457 2.215 . S
Mn433 O459 2.117 . S
C434 O456 1.234 . S
C434 O457 1.283 . S
C435 O447 1.281 . S
C435 O448 1.236 . S
C436 O458 1.240 . S
C436 O459 1.264 . S
O437 Mn432 2.095 . S
O437 C446 1.250 . S
O438 Mn433 2.121 . S
O438 C446 1.258 . S
C439 N440 1.326 . S
C439 C443 1.460 . S
C439 H445 0.929 . S
N440 Mn433 2.257 . S
N440 C439 1.326 . S
N440 C444 1.362 . S
C441 C442 1.258 . S
C441 C444 1.431 . S
C441 C461 1.449 . S
C442 C441 1.258 . S
C442 C443 1.477 . S
C442 H462 0.931 . S
C443 C439 1.460 . S
C443 C442 1.477 . S
C443 H463 0.930 . S
C444 N440 1.362 . S
C444 C441 1.431 . S
C444 C454 1.476 . S
H445 C439 0.929 . S
C446 O437 1.250 . S
C446 O438 1.258 . S
O447 Mn432 2.162 . S
O447 C435 1.281 . S
O448 Mn432 2.297 . S
O448 C435 1.236 . S
N449 Mn433 2.282 . S
N449 C450 1.328 . S
N449 C454 1.318 . S
C450 N449 1.328 . S
C450 C451 1.457 . S
C450 H455 0.929 . S
C451 C450 1.457 . S
C451 C452 1.291 . S
C451 H464 0.931 . S
C452 C451 1.291 . S
C452 C453 1.373 . S
C452 H465 0.929 . S
C453 C452 1.373 . S
C453 C454 1.396 . S
C453 C460 1.403 . S
C454 C444 1.476 . S
C454 N449 1.318 . S
C454 C453 1.396 . S
H455 C450 0.929 . S
O456 Mn432 2.385 . S
O456 C434 1.234 . S
O457 Mn432 2.209 . S
O457 Mn433 2.215 . S
O457 C434 1.283 . S
O458 Mn432 2.094 . S
O458 C436 1.240 . S
O459 Mn433 2.117 . S
O459 C436 1.264 . S
C460 C453 1.403 . S
C460 C461 1.399 . S
C460 H466 0.929 . S
C461 C441 1.449 . S
C461 C460 1.399 . S
C461 H467 0.930 . S
H462 C442 0.931 . S
H463 C443 0.930 . S
H464 C451 0.931 . S
H465 C452 0.929 . S
H466 C460 0.929 . S
H467 C461 0.930 . S
Mn468 O473 2.095 . S
Mn468 O483 2.162 . S
Mn468 O484 2.297 . S
Mn468 O492 2.385 . S
Mn468 O493 2.209 . S
Mn468 O494 2.094 . S
Mn469 O474 2.121 . S
Mn469 N476 2.257 . S
Mn469 N485 2.282 . S
Mn469 O493 2.215 . S
Mn469 O495 2.117 . S
C470 O492 1.234 . S
C470 O493 1.283 . S
C471 O483 1.281 . S
C471 O484 1.236 . S
C472 O494 1.240 . S
C472 O495 1.264 . S
O473 Mn468 2.095 . S
O473 C482 1.250 . S
O474 Mn469 2.121 . S
O474 C482 1.258 . S
C475 N476 1.326 . S
C475 C479 1.460 . S
C475 H481 0.929 . S
N476 Mn469 2.257 . S
N476 C475 1.326 . S
N476 C480 1.362 . S
C477 C478 1.258 . S
C477 C480 1.431 . S
C477 C497 1.449 . S
C478 C477 1.258 . S
C478 C479 1.477 . S
C478 H498 0.931 . S
C479 C475 1.460 . S
C479 C478 1.477 . S
C479 H499 0.930 . S
C480 N476 1.362 . S
C480 C477 1.431 . S
C480 C490 1.476 . S
H481 C475 0.929 . S
C482 O473 1.250 . S
C482 O474 1.258 . S
O483 Mn468 2.162 . S
O483 C471 1.281 . S
O484 Mn468 2.297 . S
O484 C471 1.236 . S
N485 Mn469 2.282 . S
N485 C486 1.328 . S
N485 C490 1.318 . S
C486 N485 1.328 . S
C486 C487 1.457 . S
C486 H491 0.929 . S
C487 C486 1.457 . S
C487 C488 1.291 . S
C487 H500 0.931 . S
C488 C487 1.291 . S
C488 C489 1.373 . S
C488 H501 0.929 . S
C489 C488 1.373 . S
C489 C490 1.396 . S
C489 C496 1.403 . S
C490 C480 1.476 . S
C490 N485 1.318 . S
C490 C489 1.396 . S
H491 C486 0.929 . S
O492 Mn468 2.385 . S
O492 C470 1.234 . S
O493 Mn468 2.209 . S
O493 Mn469 2.215 . S
O493 C470 1.283 . S
O494 Mn468 2.094 . S
O494 C472 1.240 . S
O495 Mn469 2.117 . S
O495 C472 1.264 . S
C496 C489 1.403 . S
C496 C497 1.399 . S
C496 H502 0.929 . S
C497 C477 1.449 . S
C497 C496 1.399 . S
C497 H503 0.930 . S
H498 C478 0.931 . S
H499 C479 0.930 . S
H500 C487 0.931 . S
H501 C488 0.929 . S
H502 C496 0.929 . S
H503 C497 0.930 . S
Mn504 O509 2.095 . S
Mn504 O519 2.162 . S
Mn504 O520 2.297 . S
Mn504 O528 2.385 . S
Mn504 O529 2.209 . S
Mn504 O530 2.094 . S
Mn505 O510 2.121 . S
Mn505 N512 2.257 . S
Mn505 N521 2.282 . S
Mn505 O529 2.215 . S
Mn505 O531 2.117 . S
C506 O528 1.234 . S
C506 O529 1.283 . S
C507 O519 1.281 . S
C507 O520 1.236 . S
C508 O530 1.240 . S
C508 O531 1.264 . S
O509 Mn504 2.095 . S
O509 C518 1.250 . S
O510 Mn505 2.121 . S
O510 C518 1.258 . S
C511 N512 1.326 . S
C511 C515 1.460 . S
C511 H517 0.929 . S
N512 Mn505 2.257 . S
N512 C511 1.326 . S
N512 C516 1.362 . S
C513 C514 1.258 . S
C513 C516 1.431 . S
C513 C533 1.449 . S
C514 C513 1.258 . S
C514 C515 1.477 . S
C514 H534 0.931 . S
C515 C511 1.460 . S
C515 C514 1.477 . S
C515 H535 0.930 . S
C516 N512 1.362 . S
C516 C513 1.431 . S
C516 C526 1.476 . S
H517 C511 0.929 . S
C518 O509 1.250 . S
C518 O510 1.258 . S
O519 Mn504 2.162 . S
O519 C507 1.281 . S
O520 Mn504 2.297 . S
O520 C507 1.236 . S
N521 Mn505 2.282 . S
N521 C522 1.328 . S
N521 C526 1.318 . S
C522 N521 1.328 . S
C522 C523 1.457 . S
C522 H527 0.929 . S
C523 C522 1.457 . S
C523 C524 1.291 . S
C523 H536 0.931 . S
C524 C523 1.291 . S
C524 C525 1.373 . S
C524 H537 0.929 . S
C525 C524 1.373 . S
C525 C526 1.396 . S
C525 C532 1.403 . S
C526 C516 1.476 . S
C526 N521 1.318 . S
C526 C525 1.396 . S
H527 C522 0.929 . S
O528 Mn504 2.385 . S
O528 C506 1.234 . S
O529 Mn504 2.209 . S
O529 Mn505 2.215 . S
O529 C506 1.283 . S
O530 Mn504 2.094 . S
O530 C508 1.240 . S
O531 Mn505 2.117 . S
O531 C508 1.264 . S
C532 C525 1.403 . S
C532 C533 1.399 . S
C532 H538 0.929 . S
C533 C513 1.449 . S
C533 C532 1.399 . S
C533 H539 0.930 . S
H534 C514 0.931 . S
H535 C515 0.930 . S
H536 C523 0.931 . S
H537 C524 0.929 . S
H538 C532 0.929 . S
H539 C533 0.930 . S
Mn540 O545 2.095 . S
Mn540 O555 2.162 . S
Mn540 O556 2.297 . S
Mn540 O564 2.385 . S
Mn540 O565 2.209 . S
Mn540 O566 2.094 . S
Mn541 O546 2.121 . S
Mn541 N548 2.257 . S
Mn541 N557 2.282 . S
Mn541 O565 2.215 . S
Mn541 O567 2.117 . S
C542 O564 1.234 . S
C542 O565 1.283 . S
C543 O555 1.281 . S
C543 O556 1.236 . S
C544 O566 1.240 . S
C544 O567 1.264 . S
O545 Mn540 2.095 . S
O545 C554 1.250 . S
O546 Mn541 2.121 . S
O546 C554 1.258 . S
C547 N548 1.326 . S
C547 C551 1.460 . S
C547 H553 0.929 . S
N548 Mn541 2.257 . S
N548 C547 1.326 . S
N548 C552 1.362 . S
C549 C550 1.258 . S
C549 C552 1.431 . S
C549 C569 1.449 . S
C550 C549 1.258 . S
C550 C551 1.477 . S
C550 H570 0.931 . S
C551 C547 1.460 . S
C551 C550 1.477 . S
C551 H571 0.930 . S
C552 N548 1.362 . S
C552 C549 1.431 . S
C552 C562 1.476 . S
H553 C547 0.929 . S
C554 O545 1.250 . S
C554 O546 1.258 . S
O555 Mn540 2.162 . S
O555 C543 1.281 . S
O556 Mn540 2.297 . S
O556 C543 1.236 . S
N557 Mn541 2.282 . S
N557 C558 1.328 . S
N557 C562 1.318 . S
C558 N557 1.328 . S
C558 C559 1.457 . S
C558 H563 0.929 . S
C559 C558 1.457 . S
C559 C560 1.291 . S
C559 H572 0.931 . S
C560 C559 1.291 . S
C560 C561 1.373 . S
C560 H573 0.929 . S
C561 C560 1.373 . S
C561 C562 1.396 . S
C561 C568 1.403 . S
C562 C552 1.476 . S
C562 N557 1.318 . S
C562 C561 1.396 . S
H563 C558 0.929 . S
O564 Mn540 2.385 . S
O564 C542 1.234 . S
O565 Mn540 2.209 . S
O565 Mn541 2.215 . S
O565 C542 1.283 . S
O566 Mn540 2.094 . S
O566 C544 1.240 . S
O567 Mn541 2.117 . S
O567 C544 1.264 . S
C568 C561 1.403 . S
C568 C569 1.399 . S
C568 H574 0.929 . S
C569 C549 1.449 . S
C569 C568 1.399 . S
C569 H575 0.930 . S
H570 C550 0.931 . S
H571 C551 0.930 . S
H572 C559 0.931 . S
H573 C560 0.929 . S
H574 C568 0.929 . S
H575 C569 0.930 . S
H576 C584 0.929 . S
H577 C586 0.930 . S
H578 C588 0.930 . S
H579 C591 0.929 . S
H580 C594 0.930 . S
H581 C596 0.960 . S
H582 C596 0.960 . S
H583 C596 0.960 . S
C584 H576 0.929 . S
C584 C585 1.377 . S
C584 C586 1.384 . S
C585 C584 1.377 . S
C585 C591 1.390 . S
C586 H577 0.930 . S
C586 C584 1.384 . S
C586 C587 1.372 . S
C587 C586 1.372 . S
C587 C588 1.400 . S
C587 C592 1.490 . S
C588 H578 0.930 . S
C588 C587 1.400 . S
C588 C591 1.386 . S
H589 C605 0.930 . S
H590 C606 0.931 . S
C591 H579 0.929 . S
C591 C585 1.390 . S
C591 C588 1.386 . S
C592 C587 1.490 . S
C592 C594 1.395 . S
C592 C595 1.403 . S
H593 C599 0.930 . S
C594 H580 0.930 . S
C594 C592 1.395 . S
C594 C597 1.403 . S
C595 C592 1.403 . S
C595 C596 1.524 . S
C595 C599 1.400 . S
C596 H581 0.960 . S
C596 H582 0.960 . S
C596 H583 0.960 . S
C596 C595 1.524 . S
C597 C594 1.403 . S
C597 C598 1.392 . S
C597 C601 1.495 . S
C598 C597 1.392 . S
C598 C599 1.385 . S
C598 C600 1.478 . S
C599 H593 0.930 . S
C599 C595 1.400 . S
C599 C598 1.385 . S
C600 C598 1.478 . S
C600 C602 1.381 . S
C600 C606 1.383 . S
C601 C597 1.495 . S
C601 H607 0.959 . S
C601 H608 0.961 . S
C601 H609 0.960 . S
C602 C600 1.381 . S
C602 C603 1.394 . S
C602 H610 0.930 . S
C603 C602 1.394 . S
C603 C604 1.383 . S
C603 H611 0.929 . S
C604 C603 1.383 . S
C604 C605 1.377 . S
C605 H589 0.930 . S
C605 C604 1.377 . S
C605 C606 1.379 . S
C606 H590 0.931 . S
C606 C600 1.383 . S
C606 C605 1.379 . S
H607 C601 0.959 . S
H608 C601 0.961 . S
H609 C601 0.960 . S
H610 C602 0.930 . S
H611 C603 0.929 . S
H612 C620 0.929 . S
H613 C622 0.930 . S
H614 C624 0.930 . S
H615 C627 0.929 . S
H616 C630 0.930 . S
H617 C632 0.960 . S
H618 C632 0.960 . S
H619 C632 0.960 . S
C620 H612 0.929 . S
C620 C621 1.377 . S
C620 C622 1.384 . S
C621 C620 1.377 . S
C621 C627 1.390 . S
C622 H613 0.930 . S
C622 C620 1.384 . S
C622 C623 1.372 . S
C623 C622 1.372 . S
C623 C624 1.400 . S
C623 C628 1.490 . S
C624 H614 0.930 . S
C624 C623 1.400 . S
C624 C627 1.386 . S
H625 C641 0.930 . S
H626 C642 0.931 . S
C627 H615 0.929 . S
C627 C621 1.390 . S
C627 C624 1.386 . S
C628 C623 1.490 . S
C628 C630 1.395 . S
C628 C631 1.403 . S
H629 C635 0.930 . S
C630 H616 0.930 . S
C630 C628 1.395 . S
C630 C633 1.403 . S
C631 C628 1.403 . S
C631 C632 1.524 . S
C631 C635 1.400 . S
C632 H617 0.960 . S
C632 H618 0.960 . S
C632 H619 0.960 . S
C632 C631 1.524 . S
C633 C630 1.403 . S
C633 C634 1.392 . S
C633 C637 1.495 . S
C634 C633 1.392 . S
C634 C635 1.385 . S
C634 C636 1.478 . S
C635 H629 0.930 . S
C635 C631 1.400 . S
C635 C634 1.385 . S
C636 C634 1.478 . S
C636 C638 1.381 . S
C636 C642 1.383 . S
C637 C633 1.495 . S
C637 H643 0.959 . S
C637 H644 0.961 . S
C637 H645 0.960 . S
C638 C636 1.381 . S
C638 C639 1.394 . S
C638 H646 0.930 . S
C639 C638 1.394 . S
C639 C640 1.383 . S
C639 H647 0.929 . S
C640 C639 1.383 . S
C640 C641 1.377 . S
C641 H625 0.930 . S
C641 C640 1.377 . S
C641 C642 1.379 . S
C642 H626 0.931 . S
C642 C636 1.383 . S
C642 C641 1.379 . S
H643 C637 0.959 . S
H644 C637 0.961 . S
H645 C637 0.960 . S
H646 C638 0.930 . S
H647 C639 0.929 . S
H648 C656 0.929 . S
H649 C658 0.930 . S
H650 C660 0.930 . S
H651 C663 0.929 . S
H652 C666 0.930 . S
H653 C668 0.960 . S
H654 C668 0.960 . S
H655 C668 0.960 . S
C656 H648 0.929 . S
C656 C657 1.377 . S
C656 C658 1.384 . S
C657 C656 1.377 . S
C657 C663 1.390 . S
C658 H649 0.930 . S
C658 C656 1.384 . S
C658 C659 1.372 . S
C659 C658 1.372 . S
C659 C660 1.400 . S
C659 C664 1.490 . S
C660 H650 0.930 . S
C660 C659 1.400 . S
C660 C663 1.386 . S
H661 C677 0.930 . S
H662 C678 0.931 . S
C663 H651 0.929 . S
C663 C657 1.390 . S
C663 C660 1.386 . S
C664 C659 1.490 . S
C664 C666 1.395 . S
C664 C667 1.403 . S
H665 C671 0.930 . S
C666 H652 0.930 . S
C666 C664 1.395 . S
C666 C669 1.403 . S
C667 C664 1.403 . S
C667 C668 1.524 . S
C667 C671 1.400 . S
C668 H653 0.960 . S
C668 H654 0.960 . S
C668 H655 0.960 . S
C668 C667 1.524 . S
C669 C666 1.403 . S
C669 C670 1.392 . S
C669 C673 1.495 . S
C670 C669 1.392 . S
C670 C671 1.385 . S
C670 C672 1.478 . S
C671 H665 0.930 . S
C671 C667 1.400 . S
C671 C670 1.385 . S
C672 C670 1.478 . S
C672 C674 1.381 . S
C672 C678 1.383 . S
C673 C669 1.495 . S
C673 H679 0.959 . S
C673 H680 0.961 . S
C673 H681 0.960 . S
C674 C672 1.381 . S
C674 C675 1.394 . S
C674 H682 0.930 . S
C675 C674 1.394 . S
C675 C676 1.383 . S
C675 H683 0.929 . S
C676 C675 1.383 . S
C676 C677 1.377 . S
C677 H661 0.930 . S
C677 C676 1.377 . S
C677 C678 1.379 . S
C678 H662 0.931 . S
C678 C672 1.383 . S
C678 C677 1.379 . S
H679 C673 0.959 . S
H680 C673 0.961 . S
H681 C673 0.960 . S
H682 C674 0.930 . S
H683 C675 0.929 . S
H684 C692 0.929 . S
H685 C694 0.930 . S
H686 C696 0.930 . S
H687 C699 0.929 . S
H688 C702 0.930 . S
H689 C704 0.960 . S
H690 C704 0.960 . S
H691 C704 0.960 . S
C692 H684 0.929 . S
C692 C693 1.377 . S
C692 C694 1.384 . S
C693 C692 1.377 . S
C693 C699 1.390 . S
C694 H685 0.930 . S
C694 C692 1.384 . S
C694 C695 1.372 . S
C695 C694 1.372 . S
C695 C696 1.400 . S
C695 C700 1.490 . S
C696 H686 0.930 . S
C696 C695 1.400 . S
C696 C699 1.386 . S
H697 C713 0.930 . S
H698 C714 0.931 . S
C699 H687 0.929 . S
C699 C693 1.390 . S
C699 C696 1.386 . S
C700 C695 1.490 . S
C700 C702 1.395 . S
C700 C703 1.403 . S
H701 C707 0.930 . S
C702 H688 0.930 . S
C702 C700 1.395 . S
C702 C705 1.403 . S
C703 C700 1.403 . S
C703 C704 1.524 . S
C703 C707 1.400 . S
C704 H689 0.960 . S
C704 H690 0.960 . S
C704 H691 0.960 . S
C704 C703 1.524 . S
C705 C702 1.403 . S
C705 C706 1.392 . S
C705 C709 1.495 . S
C706 C705 1.392 . S
C706 C707 1.385 . S
C706 C708 1.478 . S
C707 H701 0.930 . S
C707 C703 1.400 . S
C707 C706 1.385 . S
C708 C706 1.478 . S
C708 C710 1.381 . S
C708 C714 1.383 . S
C709 C705 1.495 . S
C709 H715 0.959 . S
C709 H716 0.961 . S
C709 H717 0.960 . S
C710 C708 1.381 . S
C710 C711 1.394 . S
C710 H718 0.930 . S
C711 C710 1.394 . S
C711 C712 1.383 . S
C711 H719 0.929 . S
C712 C711 1.383 . S
C712 C713 1.377 . S
C713 H697 0.930 . S
C713 C712 1.377 . S
C713 C714 1.379 . S
C714 H698 0.931 . S
C714 C708 1.383 . S
C714 C713 1.379 . S
H715 C709 0.959 . S
H716 C709 0.961 . S
H717 C709 0.960 . S
H718 C710 0.930 . S
H719 C711 0.929 . S
H720 C728 0.929 . S
H721 C730 0.930 . S
H722 C732 0.930 . S
H723 C735 0.929 . S
H724 C738 0.930 . S
H725 C740 0.960 . S
H726 C740 0.960 . S
H727 C740 0.960 . S
C728 H720 0.929 . S
C728 C729 1.377 . S
C728 C730 1.384 1_565 S
C729 C728 1.377 . S
C729 C735 1.390 1_565 S
C730 H721 0.930 . S
C730 C728 1.384 1_545 S
C730 C731 1.372 . S
C731 C730 1.372 . S
C731 C732 1.400 . S
C731 C736 1.490 . S
C732 H722 0.930 . S
C732 C731 1.400 . S
C732 C735 1.386 . S
H733 C749 0.942 . S
H734 C750 0.931 . S
C735 H723 0.929 . S
C735 C729 1.390 1_545 S
C735 C732 1.386 . S
C736 C731 1.490 . S
C736 C738 1.395 . S
C736 C739 1.403 . S
H737 C743 0.930 . S
C738 H724 0.930 . S
C738 C736 1.395 . S
C738 C741 1.403 . S
C739 C736 1.403 . S
C739 C740 1.524 . S
C739 C743 1.400 . S
C740 H725 0.960 . S
C740 H726 0.960 . S
C740 H727 0.960 . S
C740 C739 1.524 . S
C741 C738 1.403 . S
C741 C742 1.392 . S
C741 C745 1.495 . S
C742 C741 1.392 . S
C742 C743 1.385 . S
C742 C744 1.478 1_554 S
C743 H737 0.930 . S
C743 C739 1.400 . S
C743 C742 1.385 . S
C744 C742 1.478 1_556 S
C744 C746 1.381 . S
C744 C750 1.383 1_556 S
C745 C741 1.495 . S
C745 H751 0.959 . S
C745 H752 0.961 . S
C745 H753 0.960 1_554 S
C746 C744 1.381 . S
C746 C747 1.394 . S
C746 H754 0.930 . S
C747 C746 1.394 . S
C747 C748 1.383 . S
C747 H755 0.929 . S
C748 C747 1.383 . S
C748 C749 1.357 1_556 S
C749 H733 0.942 . S
C749 C748 1.357 1_554 S
C749 C750 1.387 . S
C750 H734 0.931 . S
C750 C744 1.383 1_554 S
C750 C749 1.387 . S
H751 C745 0.959 . S
H752 C745 0.961 . S
H753 C745 0.960 1_556 S
H754 C746 0.930 . S
H755 C747 0.929 . S
H756 C764 0.929 . S
H757 C766 0.930 . S
H758 C768 0.930 . S
H759 C771 0.929 . S
H760 C774 0.930 . S
H761 C776 0.964 . S
H762 C776 0.978 . S
H763 C776 0.932 1_554 S
C764 H756 0.929 . S
C764 C765 1.377 1_556 S
C764 C766 1.384 . S
C765 C764 1.377 1_554 S
C765 C771 1.390 . S
C766 H757 0.930 . S
C766 C764 1.384 . S
C766 C767 1.372 1_556 S
C767 C766 1.372 1_554 S
C767 C768 1.400 . S
C767 C772 1.490 1_554 S
C768 H758 0.930 . S
C768 C767 1.400 . S
C768 C771 1.386 . S
H769 C785 0.930 . S
H770 C786 0.973 . S
C771 H759 0.929 . S
C771 C765 1.390 . S
C771 C768 1.386 . S
C772 C767 1.490 1_556 S
C772 C774 1.395 . S
C772 C775 1.403 . S
H773 C779 0.930 . S
C774 H760 0.930 . S
C774 C772 1.395 . S
C774 C777 1.403 . S
C775 C772 1.403 . S
C775 C776 1.531 . S
C775 C779 1.400 . S
C776 H761 0.964 . S
C776 H762 0.978 . S
C776 H763 0.932 1_556 S
C776 C775 1.531 . S
C777 C774 1.403 . S
C777 C778 1.392 . S
C777 C781 1.495 . S
C778 C777 1.392 . S
C778 C779 1.385 . S
C778 C780 1.478 . S
C779 H773 0.930 . S
C779 C775 1.400 . S
C779 C778 1.385 . S
C780 C778 1.478 . S
C780 C782 1.381 . S
C780 C786 1.383 . S
C781 C777 1.495 . S
C781 H787 0.959 . S
C781 H788 0.961 . S
C781 H789 0.960 . S
C782 C780 1.381 . S
C782 C783 1.394 . S
C782 H790 0.930 . S
C783 C782 1.394 . S
C783 C784 1.383 1_455 S
C783 H791 0.929 1_455 S
C784 C783 1.383 1_655 S
C784 C785 1.377 . S
C785 H769 0.930 . S
C785 C784 1.377 . S
C785 C786 1.379 1_655 S
C786 H770 0.973 . S
C786 C780 1.383 . S
C786 C785 1.379 1_455 S
H787 C781 0.959 . S
H788 C781 0.961 . S
H789 C781 0.960 . S
H790 C782 0.930 . S
H791 C783 0.929 1_655 S
H792 C800 0.970 . S
H793 C802 0.930 . S
H794 C804 0.930 . S
H795 C807 0.929 . S
H796 C810 0.930 . S
H797 C812 0.960 . S
H798 C812 0.960 . S
H799 C812 0.960 . S
C800 H792 0.970 . S
C800 C801 1.314 1_554 S
C800 C802 1.410 . S
C801 C800 1.314 1_556 S
C801 C807 1.390 . S
C802 H793 0.930 . S
C802 C800 1.410 . S
C802 C803 1.372 1_554 S
C803 C802 1.372 1_556 S
C803 C804 1.400 . S
C803 C808 1.490 1_556 S
C804 H794 0.930 . S
C804 C803 1.400 . S
C804 C807 1.386 . S
H805 C821 0.930 . S
H806 C822 0.931 . S
C807 H795 0.929 . S
C807 C801 1.390 . S
C807 C804 1.386 . S
C808 C803 1.490 1_554 S
C808 C810 1.395 . S
C808 C811 1.403 1_554 S
H809 C815 0.936 . S
C810 H796 0.930 . S
C810 C808 1.395 . S
C810 C813 1.403 . S
C811 C808 1.403 1_556 S
C811 C812 1.524 . S
C811 C815 1.400 1_556 S
C812 H797 0.960 . S
C812 H798 0.960 . S
C812 H799 0.960 . S
C812 C811 1.524 . S
C813 C810 1.403 . S
C813 C814 1.392 . S
C813 C817 1.495 . S
C814 C813 1.392 . S
C814 C815 1.385 . S
C814 C816 1.478 . S
C815 H809 0.936 . S
C815 C811 1.400 1_554 S
C815 C814 1.385 . S
C816 C814 1.478 . S
C816 C818 1.381 . S
C816 C822 1.383 . S
C817 C813 1.495 . S
C817 H823 0.959 . S
C817 H824 0.961 . S
C817 H825 0.960 . S
C818 C816 1.381 . S
C818 C819 1.394 . S
C818 H826 0.930 . S
C819 C818 1.394 . S
C819 C820 1.383 1_565 S
C819 H827 0.929 . S
C820 C819 1.383 1_545 S
C820 C821 1.377 . S
C821 H805 0.930 . S
C821 C820 1.377 . S
C821 C822 1.379 1_545 S
C822 H806 0.931 . S
C822 C816 1.383 . S
C822 C821 1.379 1_565 S
H823 C817 0.959 . S
H824 C817 0.961 . S
H825 C817 0.960 . S
H826 C818 0.930 . S
H827 C819 0.929 . S
H828 C836 0.926 1_556 S
H829 C838 0.930 . S
H830 C840 0.930 . S
H831 C843 0.929 . S
H832 C846 0.930 . S
H833 C848 0.960 . S
H834 C848 0.960 . S
H835 C848 0.960 . S
C836 H828 0.926 1_554 S
C836 C837 1.377 . S
C836 C838 1.384 1_554 S
C837 C836 1.377 . S
C837 C843 1.390 . S
C838 H829 0.930 . S
C838 C836 1.384 1_556 S
C838 C839 1.372 1_556 S
C839 C838 1.372 1_554 S
C839 C840 1.400 . S
C839 C844 1.490 1_554 S
C840 H830 0.930 . S
C840 C839 1.400 . S
C840 C843 1.386 . S
H841 C857 0.930 . S
H842 C858 0.931 . S
C843 H831 0.929 . S
C843 C837 1.390 . S
C843 C840 1.386 . S
C844 C839 1.490 1_556 S
C844 C846 1.395 . S
C844 C847 1.403 1_556 S
H845 C851 0.930 1_554 S
C846 H832 0.930 . S
C846 C844 1.395 . S
C846 C849 1.403 . S
C847 C844 1.403 1_554 S
C847 C848 1.524 . S
C847 C851 1.400 1_554 S
C848 H833 0.960 . S
C848 H834 0.960 . S
C848 H835 0.960 . S
C848 C847 1.524 . S
C849 C846 1.403 . S
C849 C850 1.392 . S
C849 C853 1.495 . S
C850 C849 1.392 . S
C850 C851 1.385 . S
C850 C852 1.478 . S
C851 H845 0.930 1_556 S
C851 C847 1.400 1_556 S
C851 C850 1.385 . S
C852 C850 1.478 . S
C852 C854 1.381 . S
C852 C858 1.383 . S
C853 C849 1.495 . S
C853 H859 0.959 . S
C853 H860 0.961 . S
C853 H861 0.960 . S
C854 C852 1.381 . S
C854 C855 1.394 1_655 S
C854 H862 0.930 . S
C855 C854 1.394 1_455 S
C855 C856 1.383 . S
C855 H863 0.929 . S
C856 C855 1.383 . S
C856 C857 1.377 . S
C857 H841 0.930 . S
C857 C856 1.377 . S
C857 C858 1.379 1_455 S
C858 H842 0.931 . S
C858 C852 1.383 . S
C858 C857 1.379 1_655 S
H859 C853 0.959 . S
H860 C853 0.961 . S
H861 C853 0.960 . S
H862 C854 0.930 . S
H863 C855 0.929 . S
H864 C872 0.929 . S
H865 C874 0.930 . S
H866 C876 0.930 . S
H867 C879 0.929 . S
H868 C882 0.930 . S
H869 C884 0.960 . S
H870 C884 0.960 . S
H871 C884 0.960 . S
C872 H864 0.929 . S
C872 C873 1.377 . S
C872 C874 1.384 . S
C873 C872 1.377 . S
C873 C879 1.390 . S
C874 H865 0.930 . S
C874 C872 1.384 . S
C874 C875 1.372 . S
C875 C874 1.372 . S
C875 C876 1.400 . S
C875 C880 1.490 . S
C876 H866 0.930 . S
C876 C875 1.400 . S
C876 C879 1.386 . S
H877 C893 0.930 . S
H878 C894 0.931 . S
C879 H867 0.929 . S
C879 C873 1.390 . S
C879 C876 1.386 . S
C880 C875 1.490 . S
C880 C882 1.395 . S
C880 C883 1.403 . S
H881 C887 0.930 . S
C882 H868 0.930 . S
C882 C880 1.395 . S
C882 C885 1.403 . S
C883 C880 1.403 . S
C883 C884 1.524 . S
C883 C887 1.400 . S
C884 H869 0.960 . S
C884 H870 0.960 . S
C884 H871 0.960 . S
C884 C883 1.524 . S
C885 C882 1.403 . S
C885 C886 1.392 . S
C885 C889 1.495 . S
C886 C885 1.392 . S
C886 C887 1.385 . S
C886 C888 1.478 . S
C887 H881 0.930 . S
C887 C883 1.400 . S
C887 C886 1.385 . S
C888 C886 1.478 . S
C888 C890 1.381 . S
C888 C894 1.383 . S
C889 C885 1.495 . S
C889 H895 0.959 . S
C889 H896 0.961 . S
C889 H897 0.960 . S
C890 C888 1.381 . S
C890 C891 1.394 . S
C890 H898 0.930 . S
C891 C890 1.394 . S
C891 C892 1.383 1_565 S
C891 H899 0.928 1_565 S
C892 C891 1.383 1_545 S
C892 C893 1.377 . S
C893 H877 0.930 . S
C893 C892 1.377 . S
C893 C894 1.379 1_545 S
C894 H878 0.931 . S
C894 C888 1.383 . S
C894 C893 1.379 1_565 S
H895 C889 0.959 . S
H896 C889 0.961 . S
H897 C889 0.960 . S
H898 C890 0.930 . S
H899 C891 0.928 1_545 S
H900 C908 0.929 . S
H901 C910 0.930 . S
H902 C912 0.930 . S
H903 C915 0.929 . S
H904 C918 0.930 . S
H905 C920 0.960 . S
H906 C920 0.960 . S
H907 C920 0.960 . S
C908 H900 0.929 . S
C908 C909 1.377 1_655 S
C908 C910 1.384 . S
C909 C908 1.377 1_455 S
C909 C915 1.390 . S
C910 H901 0.930 . S
C910 C908 1.384 . S
C910 C911 1.372 . S
C911 C910 1.372 . S
C911 C912 1.400 . S
C911 C916 1.490 . S
C912 H902 0.930 . S
C912 C911 1.400 . S
C912 C915 1.386 1_655 S
H913 C929 0.930 . S
H914 C930 0.931 . S
C915 H903 0.929 . S
C915 C909 1.390 . S
C915 C912 1.386 1_455 S
C916 C911 1.490 . S
C916 C918 1.395 . S
C916 C919 1.403 . S
H917 C923 0.930 . S
C918 H904 0.930 . S
C918 C916 1.395 . S
C918 C921 1.403 . S
C919 C916 1.403 . S
C919 C920 1.524 . S
C919 C923 1.400 . S
C920 H905 0.960 . S
C920 H906 0.960 . S
C920 H907 0.960 . S
C920 C919 1.524 . S
C921 C918 1.403 . S
C921 C922 1.392 . S
C921 C925 1.495 . S
C922 C921 1.392 . S
C922 C923 1.385 . S
C922 C924 1.478 . S
C923 H917 0.930 . S
C923 C919 1.400 . S
C923 C922 1.385 . S
C924 C922 1.478 . S
C924 C926 1.381 . S
C924 C930 1.383 . S
C925 C921 1.495 . S
C925 H931 0.959 . S
C925 H932 0.961 . S
C925 H933 0.960 . S
C926 C924 1.381 . S
C926 C927 1.394 . S
C926 H934 0.930 . S
C927 C926 1.394 . S
C927 C928 1.383 . S
C927 H935 0.929 . S
C928 C927 1.383 . S
C928 C929 1.377 . S
C929 H913 0.930 . S
C929 C928 1.377 . S
C929 C930 1.379 . S
C930 H914 0.931 . S
C930 C924 1.383 . S
C930 C929 1.379 . S
H931 C925 0.959 . S
H932 C925 0.961 . S
H933 C925 0.960 . S
H934 C926 0.930 . S
H935 C927 0.929 . S
H936 C944 0.929 1_565 S
H937 C946 0.930 . S
H938 C948 0.930 . S
H939 C951 0.929 . S
H940 C954 0.930 . S
H941 C956 0.960 . S
H942 C956 0.960 . S
H943 C956 0.960 . S
C944 H936 0.929 1_545 S
C944 C945 1.377 1_545 S
C944 C946 1.384 . S
C945 C944 1.377 1_565 S
C945 C951 1.390 . S
C946 H937 0.930 . S
C946 C944 1.384 . S
C946 C947 1.372 . S
C947 C946 1.372 . S
C947 C948 1.400 . S
C947 C952 1.490 . S
C948 H938 0.930 . S
C948 C947 1.400 . S
C948 C951 1.386 1_545 S
H949 C965 0.930 . S
H950 C966 0.931 . S
C951 H939 0.929 . S
C951 C945 1.390 . S
C951 C948 1.386 1_565 S
C952 C947 1.490 . S
C952 C954 1.395 . S
C952 C955 1.403 . S
H953 C959 0.930 . S
C954 H940 0.930 . S
C954 C952 1.395 . S
C954 C957 1.403 . S
C955 C952 1.403 . S
C955 C956 1.524 . S
C955 C959 1.400 . S
C956 H941 0.960 . S
C956 H942 0.960 . S
C956 H943 0.960 . S
C956 C955 1.524 . S
C957 C954 1.403 . S
C957 C958 1.392 . S
C957 C961 1.495 . S
C958 C957 1.392 . S
C958 C959 1.385 . S
C958 C960 1.478 . S
C959 H953 0.930 . S
C959 C955 1.400 . S
C959 C958 1.385 . S
C960 C958 1.478 . S
C960 C962 1.381 . S
C960 C966 1.383 . S
C961 C957 1.495 . S
C961 H967 0.959 . S
C961 H968 0.961 . S
C961 H969 0.960 . S
C962 C960 1.381 . S
C962 C963 1.394 . S
C962 H970 0.930 . S
C963 C962 1.394 . S
C963 C964 1.383 . S
C963 H971 0.929 . S
C964 C963 1.383 . S
C964 C965 1.377 . S
C965 H949 0.930 . S
C965 C964 1.377 . S
C965 C966 1.379 . S
C966 H950 0.931 . S
C966 C960 1.383 . S
C966 C965 1.379 . S
H967 C961 0.959 . S
H968 C961 0.961 . S
H969 C961 0.960 . S
H970 C962 0.930 . S
H971 C963 0.929 . S
H972 C980 0.929 . S
H973 C982 0.930 . S
H974 C984 0.930 . S
H975 C987 0.929 . S
H976 C990 0.930 . S
H977 C992 0.960 . S
H978 C992 0.960 . S
H979 C992 0.960 . S
C980 H972 0.929 . S
C980 C981 1.377 . S
C980 C982 1.384 1_655 S
C981 C980 1.377 . S
C981 C987 1.390 . S
C982 H973 0.930 . S
C982 C980 1.384 1_455 S
C982 C983 1.372 . S
C983 C982 1.372 . S
C983 C984 1.400 . S
C983 C988 1.490 . S
C984 H974 0.930 . S
C984 C983 1.400 . S
C984 C987 1.386 1_455 S
H985 C1001 0.930 . S
H986 C1002 0.931 . S
C987 H975 0.929 . S
C987 C981 1.390 . S
C987 C984 1.386 1_655 S
C988 C983 1.490 . S
C988 C990 1.395 . S
C988 C991 1.403 . S
H989 C995 0.930 . S
C990 H976 0.930 . S
C990 C988 1.395 . S
C990 C993 1.403 . S
C991 C988 1.403 . S
C991 C992 1.524 . S
C991 C995 1.400 . S
C992 H977 0.960 . S
C992 H978 0.960 . S
C992 H979 0.960 . S
C992 C991 1.524 . S
C993 C990 1.403 . S
C993 C994 1.392 . S
C993 C997 1.495 . S
C994 C993 1.392 . S
C994 C995 1.385 . S
C994 C996 1.478 . S
C995 H989 0.930 . S
C995 C991 1.400 . S
C995 C994 1.385 . S
C996 C994 1.478 . S
C996 C998 1.381 . S
C996 C1002 1.383 . S
C997 C993 1.495 . S
C997 H1003 0.959 . S
C997 H1004 0.961 . S
C997 H1005 0.960 . S
C998 C996 1.381 . S
C998 C999 1.394 . S
C998 H1006 0.930 . S
C999 C998 1.394 . S
C999 C1000 1.383 . S
C999 H1007 0.929 . S
C1000 C999 1.383 . S
C1000 C1001 1.377 . S
C1001 H985 0.930 . S
C1001 C1000 1.377 . S
C1001 C1002 1.379 . S
C1002 H986 0.931 . S
C1002 C996 1.383 . S
C1002 C1001 1.379 . S
H1003 C997 0.959 . S
H1004 C997 0.961 . S
H1005 C997 0.960 . S
H1006 C998 0.930 . S
H1007 C999 0.929 . S
H1008 C1016 0.929 . S
H1009 C1018 0.930 . S
H1010 C1020 0.930 . S
H1011 C1023 0.929 . S
H1012 C1026 0.930 . S
H1013 C1028 0.960 . S
H1014 C1028 0.960 . S
H1015 C1028 0.960 . S
C1016 H1008 0.929 . S
C1016 C1017 1.377 . S
C1016 C1018 1.384 . S
C1017 C1016 1.377 . S
C1017 C1023 1.390 . S
C1018 H1009 0.930 . S
C1018 C1016 1.384 . S
C1018 C1019 1.372 . S
C1019 C1018 1.372 . S
C1019 C1020 1.400 . S
C1019 C1024 1.490 . S
C1020 H1010 0.930 . S
C1020 C1019 1.400 . S
C1020 C1023 1.386 . S
H1021 C1037 0.930 . S
H1022 C1038 0.931 . S
C1023 H1011 0.929 . S
C1023 C1017 1.390 . S
C1023 C1020 1.386 . S
C1024 C1019 1.490 . S
C1024 C1026 1.395 . S
C1024 C1027 1.403 . S
H1025 C1031 0.930 . S
C1026 H1012 0.930 . S
C1026 C1024 1.395 . S
C1026 C1029 1.403 . S
C1027 C1024 1.403 . S
C1027 C1028 1.524 . S
C1027 C1031 1.400 . S
C1028 H1013 0.960 . S
C1028 H1014 0.960 . S
C1028 H1015 0.960 . S
C1028 C1027 1.524 . S
C1029 C1026 1.403 . S
C1029 C1030 1.392 . S
C1029 C1033 1.495 . S
C1030 C1029 1.392 . S
C1030 C1031 1.385 . S
C1030 C1032 1.478 . S
C1031 H1025 0.930 . S
C1031 C1027 1.400 . S
C1031 C1030 1.385 . S
C1032 C1030 1.478 . S
C1032 C1034 1.381 . S
C1032 C1038 1.383 . S
C1033 C1029 1.495 . S
C1033 H1039 0.959 . S
C1033 H1040 0.961 . S
C1033 H1041 0.960 . S
C1034 C1032 1.381 . S
C1034 C1035 1.394 . S
C1034 H1042 0.930 . S
C1035 C1034 1.394 . S
C1035 C1036 1.383 . S
C1035 H1043 0.929 . S
C1036 C1035 1.383 . S
C1036 C1037 1.377 . S
C1037 H1021 0.930 . S
C1037 C1036 1.377 . S
C1037 C1038 1.379 . S
C1038 H1022 0.931 . S
C1038 C1032 1.383 . S
C1038 C1037 1.379 . S
H1039 C1033 0.959 . S
H1040 C1033 0.961 . S
H1041 C1033 0.960 . S
H1042 C1034 0.930 . S
H1043 C1035 0.929 . S
H1044 C1052 0.929 . S
H1045 C1054 0.930 . S
H1046 C1056 0.930 . S
H1047 C1059 0.929 . S
H1048 C1062 0.930 . S
H1049 C1064 0.960 . S
H1050 C1064 0.960 . S
H1051 C1064 0.960 . S
C1052 H1044 0.929 . S
C1052 C1053 1.377 . S
C1052 C1054 1.384 . S
C1053 C1052 1.377 . S
C1053 C1059 1.390 . S
C1054 H1045 0.930 . S
C1054 C1052 1.384 . S
C1054 C1055 1.372 . S
C1055 C1054 1.372 . S
C1055 C1056 1.400 . S
C1055 C1060 1.490 . S
C1056 H1046 0.930 . S
C1056 C1055 1.400 . S
C1056 C1059 1.386 . S
H1057 C1073 0.930 . S
H1058 C1074 0.931 . S
C1059 H1047 0.929 . S
C1059 C1053 1.390 . S
C1059 C1056 1.386 . S
C1060 C1055 1.490 . S
C1060 C1062 1.395 . S
C1060 C1063 1.403 . S
H1061 C1067 0.930 . S
C1062 H1048 0.930 . S
C1062 C1060 1.395 . S
C1062 C1065 1.403 . S
C1063 C1060 1.403 . S
C1063 C1064 1.524 . S
C1063 C1067 1.400 . S
C1064 H1049 0.960 . S
C1064 H1050 0.960 . S
C1064 H1051 0.960 . S
C1064 C1063 1.524 . S
C1065 C1062 1.403 . S
C1065 C1066 1.392 . S
C1065 C1069 1.495 . S
C1066 C1065 1.392 . S
C1066 C1067 1.385 . S
C1066 C1068 1.478 . S
C1067 H1061 0.930 . S
C1067 C1063 1.400 . S
C1067 C1066 1.385 . S
C1068 C1066 1.478 . S
C1068 C1070 1.381 . S
C1068 C1074 1.383 . S
C1069 C1065 1.495 . S
C1069 H1075 0.959 . S
C1069 H1076 0.961 . S
C1069 H1077 0.960 . S
C1070 C1068 1.381 . S
C1070 C1071 1.394 . S
C1070 H1078 0.930 . S
C1071 C1070 1.394 . S
C1071 C1072 1.383 . S
C1071 H1079 0.929 . S
C1072 C1071 1.383 . S
C1072 C1073 1.377 . S
C1073 H1057 0.930 . S
C1073 C1072 1.377 . S
C1073 C1074 1.379 . S
C1074 H1058 0.931 . S
C1074 C1068 1.383 . S
C1074 C1073 1.379 . S
H1075 C1069 0.959 . S
H1076 C1069 0.961 . S
H1077 C1069 0.960 . S
H1078 C1070 0.930 . S
H1079 C1071 0.929 . S
H1080 C1088 0.929 . S
H1081 C1090 0.930 . S
H1082 C1092 0.930 . S
H1083 C1095 0.929 . S
H1084 C1098 0.930 . S
H1085 C1100 0.960 . S
H1086 C1100 0.960 . S
H1087 C1100 0.960 . S
C1088 H1080 0.929 . S
C1088 C1089 1.377 . S
C1088 C1090 1.384 . S
C1089 C1088 1.377 . S
C1089 C1095 1.390 . S
C1090 H1081 0.930 . S
C1090 C1088 1.384 . S
C1090 C1091 1.372 . S
C1091 C1090 1.372 . S
C1091 C1092 1.400 . S
C1091 C1096 1.490 . S
C1092 H1082 0.930 . S
C1092 C1091 1.400 . S
C1092 C1095 1.386 . S
H1093 C1109 0.930 . S
H1094 C1110 0.931 . S
C1095 H1083 0.929 . S
C1095 C1089 1.390 . S
C1095 C1092 1.386 . S
C1096 C1091 1.490 . S
C1096 C1098 1.395 . S
C1096 C1099 1.403 . S
H1097 C1103 0.930 . S
C1098 H1084 0.930 . S
C1098 C1096 1.395 . S
C1098 C1101 1.403 . S
C1099 C1096 1.403 . S
C1099 C1100 1.524 . S
C1099 C1103 1.400 . S
C1100 H1085 0.960 . S
C1100 H1086 0.960 . S
C1100 H1087 0.960 . S
C1100 C1099 1.524 . S
C1101 C1098 1.403 . S
C1101 C1102 1.392 . S
C1101 C1105 1.495 . S
C1102 C1101 1.392 . S
C1102 C1103 1.385 . S
C1102 C1104 1.478 . S
C1103 H1097 0.930 . S
C1103 C1099 1.400 . S
C1103 C1102 1.385 . S
C1104 C1102 1.478 . S
C1104 C1106 1.381 . S
C1104 C1110 1.383 . S
C1105 C1101 1.495 . S
C1105 H1111 0.959 . S
C1105 H1112 0.961 . S
C1105 H1113 0.960 . S
C1106 C1104 1.381 . S
C1106 C1107 1.394 . S
C1106 H1114 0.930 . S
C1107 C1106 1.394 . S
C1107 C1108 1.383 . S
C1107 H1115 0.929 . S
C1108 C1107 1.383 . S
C1108 C1109 1.377 . S
C1109 H1093 0.930 . S
C1109 C1108 1.377 . S
C1109 C1110 1.379 . S
C1110 H1094 0.931 . S
C1110 C1104 1.383 . S
C1110 C1109 1.379 . S
H1111 C1105 0.959 . S
H1112 C1105 0.961 . S
H1113 C1105 0.960 . S
H1114 C1106 0.930 . S
H1115 C1107 0.929 . S
H1116 C1124 0.929 . S
H1117 C1126 0.930 . S
H1118 C1128 0.930 . S
H1119 C1131 0.929 . S
H1120 C1134 0.930 . S
H1121 C1136 0.960 . S
H1122 C1136 0.960 . S
H1123 C1136 0.960 . S
C1124 H1116 0.929 . S
C1124 C1125 1.377 . S
C1124 C1126 1.384 . S
C1125 C1124 1.377 . S
C1125 C1131 1.390 . S
C1126 H1117 0.930 . S
C1126 C1124 1.384 . S
C1126 C1127 1.372 . S
C1127 C1126 1.372 . S
C1127 C1128 1.400 . S
C1127 C1132 1.490 . S
C1128 H1118 0.930 . S
C1128 C1127 1.400 . S
C1128 C1131 1.386 . S
H1129 C1145 0.930 . S
H1130 C1146 0.931 . S
C1131 H1119 0.929 . S
C1131 C1125 1.390 . S
C1131 C1128 1.386 . S
C1132 C1127 1.490 . S
C1132 C1134 1.395 . S
C1132 C1135 1.403 . S
H1133 C1139 0.930 . S
C1134 H1120 0.930 . S
C1134 C1132 1.395 . S
C1134 C1137 1.403 . S
C1135 C1132 1.403 . S
C1135 C1136 1.524 . S
C1135 C1139 1.400 . S
C1136 H1121 0.960 . S
C1136 H1122 0.960 . S
C1136 H1123 0.960 . S
C1136 C1135 1.524 . S
C1137 C1134 1.403 . S
C1137 C1138 1.392 . S
C1137 C1141 1.495 . S
C1138 C1137 1.392 . S
C1138 C1139 1.385 . S
C1138 C1140 1.478 . S
C1139 H1133 0.930 . S
C1139 C1135 1.400 . S
C1139 C1138 1.385 . S
C1140 C1138 1.478 . S
C1140 C1142 1.381 . S
C1140 C1146 1.383 . S
C1141 C1137 1.495 . S
C1141 H1147 0.959 . S
C1141 H1148 0.961 . S
C1141 H1149 0.960 . S
C1142 C1140 1.381 . S
C1142 C1143 1.394 . S
C1142 H1150 0.930 . S
C1143 C1142 1.394 . S
C1143 C1144 1.383 . S
C1143 H1151 0.929 . S
C1144 C1143 1.383 . S
C1144 C1145 1.377 . S
C1145 H1129 0.930 . S
C1145 C1144 1.377 . S
C1145 C1146 1.379 . S
C1146 H1130 0.931 . S
C1146 C1140 1.383 . S
C1146 C1145 1.379 . S
H1147 C1141 0.959 . S
H1148 C1141 0.961 . S
H1149 C1141 0.960 . S
H1150 C1142 0.930 . S
H1151 C1143 0.929 . S
H1152 C1160 0.929 . S
H1153 C1162 0.930 . S
H1154 C1164 0.930 . S
H1155 C1167 0.929 . S
H1156 C1170 0.930 . S
H1157 C1172 0.960 . S
H1158 C1172 0.960 . S
H1159 C1172 0.960 . S
C1160 H1152 0.929 . S
C1160 C1161 1.377 . S
C1160 C1162 1.384 . S
C1161 C1160 1.377 . S
C1161 C1167 1.390 . S
C1162 H1153 0.930 . S
C1162 C1160 1.384 . S
C1162 C1163 1.372 . S
C1163 C1162 1.372 . S
C1163 C1164 1.400 . S
C1163 C1168 1.490 . S
C1164 H1154 0.930 . S
C1164 C1163 1.400 . S
C1164 C1167 1.386 . S
H1165 C1181 0.930 . S
H1166 C1182 0.931 . S
C1167 H1155 0.929 . S
C1167 C1161 1.390 . S
C1167 C1164 1.386 . S
C1168 C1163 1.490 . S
C1168 C1170 1.395 . S
C1168 C1171 1.403 . S
H1169 C1175 0.930 . S
C1170 H1156 0.930 . S
C1170 C1168 1.395 . S
C1170 C1173 1.403 . S
C1171 C1168 1.403 . S
C1171 C1172 1.524 . S
C1171 C1175 1.400 . S
C1172 H1157 0.960 . S
C1172 H1158 0.960 . S
C1172 H1159 0.960 . S
C1172 C1171 1.524 . S
C1173 C1170 1.403 . S
C1173 C1174 1.392 . S
C1173 C1177 1.495 . S
C1174 C1173 1.392 . S
C1174 C1175 1.385 . S
C1174 C1176 1.478 . S
C1175 H1169 0.930 . S
C1175 C1171 1.400 . S
C1175 C1174 1.385 . S
C1176 C1174 1.478 . S
C1176 C1178 1.381 . S
C1176 C1182 1.383 . S
C1177 C1173 1.495 . S
C1177 H1183 0.959 . S
C1177 H1184 0.961 . S
C1177 H1185 0.960 . S
C1178 C1176 1.381 . S
C1178 C1179 1.394 . S
C1178 H1186 0.930 . S
C1179 C1178 1.394 . S
C1179 C1180 1.383 . S
C1179 H1187 0.929 . S
C1180 C1179 1.383 . S
C1180 C1181 1.377 . S
C1181 H1165 0.930 . S
C1181 C1180 1.377 . S
C1181 C1182 1.379 . S
C1182 H1166 0.931 . S
C1182 C1176 1.383 . S
C1182 C1181 1.379 . S
H1183 C1177 0.959 . S
H1184 C1177 0.961 . S
H1185 C1177 0.960 . S
H1186 C1178 0.930 . S
H1187 C1179 0.929 . S
H1188 C1196 0.929 . S
H1189 C1198 0.930 . S
H1190 C1200 0.930 . S
H1191 C1203 0.929 . S
H1192 C1206 0.930 . S
H1193 C1208 0.960 . S
H1194 C1208 0.960 . S
H1195 C1208 0.960 . S
C1196 H1188 0.929 . S
C1196 C1197 1.377 . S
C1196 C1198 1.384 . S
C1197 C1196 1.377 . S
C1197 C1203 1.390 . S
C1198 H1189 0.930 . S
C1198 C1196 1.384 . S
C1198 C1199 1.372 . S
C1199 C1198 1.372 . S
C1199 C1200 1.400 . S
C1199 C1204 1.490 . S
C1200 H1190 0.930 . S
C1200 C1199 1.400 . S
C1200 C1203 1.386 . S
H1201 C1217 0.930 . S
H1202 C1218 0.931 . S
C1203 H1191 0.929 . S
C1203 C1197 1.390 . S
C1203 C1200 1.386 . S
C1204 C1199 1.490 . S
C1204 C1206 1.395 . S
C1204 C1207 1.403 . S
H1205 C1211 0.930 . S
C1206 H1192 0.930 . S
C1206 C1204 1.395 . S
C1206 C1209 1.403 . S
C1207 C1204 1.403 . S
C1207 C1208 1.524 . S
C1207 C1211 1.400 . S
C1208 H1193 0.960 . S
C1208 H1194 0.960 . S
C1208 H1195 0.960 . S
C1208 C1207 1.524 . S
C1209 C1206 1.403 . S
C1209 C1210 1.392 . S
C1209 C1213 1.495 . S
C1210 C1209 1.392 . S
C1210 C1211 1.385 . S
C1210 C1212 1.478 . S
C1211 H1205 0.930 . S
C1211 C1207 1.400 . S
C1211 C1210 1.385 . S
C1212 C1210 1.478 . S
C1212 C1214 1.381 . S
C1212 C1218 1.383 . S
C1213 C1209 1.495 . S
C1213 H1219 0.959 . S
C1213 H1220 0.961 . S
C1213 H1221 0.960 . S
C1214 C1212 1.381 . S
C1214 C1215 1.394 . S
C1214 H1222 0.930 . S
C1215 C1214 1.394 . S
C1215 C1216 1.383 . S
C1215 H1223 0.929 . S
C1216 C1215 1.383 . S
C1216 C1217 1.377 . S
C1217 H1201 0.930 . S
C1217 C1216 1.377 . S
C1217 C1218 1.379 . S
C1218 H1202 0.931 . S
C1218 C1212 1.383 . S
C1218 C1217 1.379 . S
H1219 C1213 0.959 . S
H1220 C1213 0.961 . S
H1221 C1213 0.960 . S
H1222 C1214 0.930 . S
H1223 C1215 0.929 . S
H1224 C1232 0.929 . S
H1225 C1234 0.930 . S
H1226 C1236 0.930 . S
H1227 C1239 0.929 . S
H1228 C1242 0.930 . S
H1229 C1244 0.960 . S
H1230 C1244 0.960 . S
H1231 C1244 0.960 . S
C1232 H1224 0.929 . S
C1232 C1233 1.377 . S
C1232 C1234 1.384 . S
C1233 C1232 1.377 . S
C1233 C1239 1.390 . S
C1234 H1225 0.930 . S
C1234 C1232 1.384 . S
C1234 C1235 1.372 . S
C1235 C1234 1.372 . S
C1235 C1236 1.400 . S
C1235 C1240 1.490 . S
C1236 H1226 0.930 . S
C1236 C1235 1.400 . S
C1236 C1239 1.386 . S
H1237 C1253 0.930 . S
H1238 C1254 0.931 . S
C1239 H1227 0.929 . S
C1239 C1233 1.390 . S
C1239 C1236 1.386 . S
C1240 C1235 1.490 . S
C1240 C1242 1.395 . S
C1240 C1243 1.403 . S
H1241 C1247 0.930 . S
C1242 H1228 0.930 . S
C1242 C1240 1.395 . S
C1242 C1245 1.403 . S
C1243 C1240 1.403 . S
C1243 C1244 1.524 . S
C1243 C1247 1.400 . S
C1244 H1229 0.960 . S
C1244 H1230 0.960 . S
C1244 H1231 0.960 . S
C1244 C1243 1.524 . S
C1245 C1242 1.403 . S
C1245 C1246 1.392 . S
C1245 C1249 1.495 . S
C1246 C1245 1.392 . S
C1246 C1247 1.385 . S
C1246 C1248 1.478 . S
C1247 H1241 0.930 . S
C1247 C1243 1.400 . S
C1247 C1246 1.385 . S
C1248 C1246 1.478 . S
C1248 C1250 1.381 . S
C1248 C1254 1.383 . S
C1249 C1245 1.495 . S
C1249 H1255 0.959 . S
C1249 H1256 0.961 . S
C1249 H1257 0.960 . S
C1250 C1248 1.381 . S
C1250 C1251 1.394 . S
C1250 H1258 0.930 . S
C1251 C1250 1.394 . S
C1251 C1252 1.383 . S
C1251 H1259 0.929 . S
C1252 C1251 1.383 . S
C1252 C1253 1.377 . S
C1253 H1237 0.930 . S
C1253 C1252 1.377 . S
C1253 C1254 1.379 . S
C1254 H1238 0.931 . S
C1254 C1248 1.383 . S
C1254 C1253 1.379 . S
H1255 C1249 0.959 . S
H1256 C1249 0.961 . S
H1257 C1249 0.960 . S
H1258 C1250 0.930 . S
H1259 C1251 0.929 . S
H1260 C1268 0.929 . S
H1261 C1270 0.930 . S
H1262 C1272 0.930 . S
H1263 C1275 0.929 . S
H1264 C1278 0.930 . S
H1265 C1280 0.960 . S
H1266 C1280 0.960 . S
H1267 C1280 0.960 . S
C1268 H1260 0.929 . S
C1268 C1269 1.377 . S
C1268 C1270 1.384 . S
C1269 C1268 1.377 . S
C1269 C1275 1.390 . S
C1270 H1261 0.930 . S
C1270 C1268 1.384 . S
C1270 C1271 1.372 . S
C1271 C1270 1.372 . S
C1271 C1272 1.400 . S
C1271 C1276 1.490 . S
C1272 H1262 0.930 . S
C1272 C1271 1.400 . S
C1272 C1275 1.386 . S
H1273 C1289 0.930 . S
H1274 C1290 0.931 . S
C1275 H1263 0.929 . S
C1275 C1269 1.390 . S
C1275 C1272 1.386 . S
C1276 C1271 1.490 . S
C1276 C1278 1.395 . S
C1276 C1279 1.403 . S
H1277 C1283 0.930 . S
C1278 H1264 0.930 . S
C1278 C1276 1.395 . S
C1278 C1281 1.403 . S
C1279 C1276 1.403 . S
C1279 C1280 1.524 . S
C1279 C1283 1.400 . S
C1280 H1265 0.960 . S
C1280 H1266 0.960 . S
C1280 H1267 0.960 . S
C1280 C1279 1.524 . S
C1281 C1278 1.403 . S
C1281 C1282 1.392 . S
C1281 C1285 1.495 . S
C1282 C1281 1.392 . S
C1282 C1283 1.385 . S
C1282 C1284 1.478 . S
C1283 H1277 0.930 . S
C1283 C1279 1.400 . S
C1283 C1282 1.385 . S
C1284 C1282 1.478 . S
C1284 C1286 1.381 . S
C1284 C1290 1.383 . S
C1285 C1281 1.495 . S
C1285 H1291 0.959 . S
C1285 H1292 0.961 . S
C1285 H1293 0.960 . S
C1286 C1284 1.381 . S
C1286 C1287 1.394 . S
C1286 H1294 0.930 . S
C1287 C1286 1.394 . S
C1287 C1288 1.383 . S
C1287 H1295 0.929 . S
C1288 C1287 1.383 . S
C1288 C1289 1.377 . S
C1289 H1273 0.930 . S
C1289 C1288 1.377 . S
C1289 C1290 1.379 . S
C1290 H1274 0.931 . S
C1290 C1284 1.383 . S
C1290 C1289 1.379 . S
H1291 C1285 0.959 . S
H1292 C1285 0.961 . S
H1293 C1285 0.960 . S
H1294 C1286 0.930 . S
H1295 C1287 0.929 . S
H1296 C1304 0.929 . S
H1297 C1306 0.930 . S
H1298 C1308 0.930 . S
H1299 C1311 0.929 . S
H1300 C1314 0.930 . S
H1301 C1316 0.960 . S
H1302 C1316 0.960 . S
H1303 C1316 0.960 . S
C1304 H1296 0.929 . S
C1304 C1305 1.377 . S
C1304 C1306 1.384 . S
C1305 C1304 1.377 . S
C1305 C1311 1.390 . S
C1306 H1297 0.930 . S
C1306 C1304 1.384 . S
C1306 C1307 1.372 . S
C1307 C1306 1.372 . S
C1307 C1308 1.400 . S
C1307 C1312 1.490 . S
C1308 H1298 0.930 . S
C1308 C1307 1.400 . S
C1308 C1311 1.386 . S
H1309 C1325 0.930 . S
H1310 C1326 0.931 . S
C1311 H1299 0.929 . S
C1311 C1305 1.390 . S
C1311 C1308 1.386 . S
C1312 C1307 1.490 . S
C1312 C1314 1.395 . S
C1312 C1315 1.403 . S
H1313 C1319 0.930 . S
C1314 H1300 0.930 . S
C1314 C1312 1.395 . S
C1314 C1317 1.403 . S
C1315 C1312 1.403 . S
C1315 C1316 1.524 . S
C1315 C1319 1.400 . S
C1316 H1301 0.960 . S
C1316 H1302 0.960 . S
C1316 H1303 0.960 . S
C1316 C1315 1.524 . S
C1317 C1314 1.403 . S
C1317 C1318 1.392 . S
C1317 C1321 1.495 . S
C1318 C1317 1.392 . S
C1318 C1319 1.385 . S
C1318 C1320 1.478 . S
C1319 H1313 0.930 . S
C1319 C1315 1.400 . S
C1319 C1318 1.385 . S
C1320 C1318 1.478 . S
C1320 C1322 1.381 . S
C1320 C1326 1.383 . S
C1321 C1317 1.495 . S
C1321 H1327 0.959 . S
C1321 H1328 0.961 . S
C1321 H1329 0.960 . S
C1322 C1320 1.381 . S
C1322 C1323 1.394 . S
C1322 H1330 0.930 . S
C1323 C1322 1.394 . S
C1323 C1324 1.383 . S
C1323 H1331 0.929 . S
C1324 C1323 1.383 . S
C1324 C1325 1.377 . S
C1325 H1309 0.930 . S
C1325 C1324 1.377 . S
C1325 C1326 1.379 . S
C1326 H1310 0.931 . S
C1326 C1320 1.383 . S
C1326 C1325 1.379 . S
H1327 C1321 0.959 . S
H1328 C1321 0.961 . S
H1329 C1321 0.960 . S
H1330 C1322 0.930 . S
H1331 C1323 0.929 . S
H1332 C1340 0.929 . S
H1333 C1342 0.930 . S
H1334 C1344 0.930 . S
H1335 C1347 0.929 . S
H1336 C1350 0.930 . S
H1337 C1352 0.960 . S
H1338 C1352 0.960 . S
H1339 C1352 0.960 . S
C1340 H1332 0.929 . S
C1340 C1341 1.377 . S
C1340 C1342 1.384 . S
C1341 C1340 1.377 . S
C1341 C1347 1.390 . S
C1342 H1333 0.930 . S
C1342 C1340 1.384 . S
C1342 C1343 1.372 . S
C1343 C1342 1.372 . S
C1343 C1344 1.400 . S
C1343 C1348 1.490 . S
C1344 H1334 0.930 . S
C1344 C1343 1.400 . S
C1344 C1347 1.386 . S
H1345 C1361 0.930 . S
H1346 C1362 0.931 . S
C1347 H1335 0.929 . S
C1347 C1341 1.390 . S
C1347 C1344 1.386 . S
C1348 C1343 1.490 . S
C1348 C1350 1.395 . S
C1348 C1351 1.403 . S
H1349 C1355 0.930 . S
C1350 H1336 0.930 . S
C1350 C1348 1.395 . S
C1350 C1353 1.403 . S
C1351 C1348 1.403 . S
C1351 C1352 1.524 . S
C1351 C1355 1.400 . S
C1352 H1337 0.960 . S
C1352 H1338 0.960 . S
C1352 H1339 0.960 . S
C1352 C1351 1.524 . S
C1353 C1350 1.403 . S
C1353 C1354 1.392 . S
C1353 C1357 1.495 . S
C1354 C1353 1.392 . S
C1354 C1355 1.385 . S
C1354 C1356 1.478 . S
C1355 H1349 0.930 . S
C1355 C1351 1.400 . S
C1355 C1354 1.385 . S
C1356 C1354 1.478 . S
C1356 C1358 1.381 . S
C1356 C1362 1.383 . S
C1357 C1353 1.495 . S
C1357 H1363 0.959 . S
C1357 H1364 0.961 . S
C1357 H1365 0.960 . S
C1358 C1356 1.381 . S
C1358 C1359 1.394 . S
C1358 H1366 0.930 . S
C1359 C1358 1.394 . S
C1359 C1360 1.383 . S
C1359 H1367 0.929 . S
C1360 C1359 1.383 . S
C1360 C1361 1.377 . S
C1361 H1345 0.930 . S
C1361 C1360 1.377 . S
C1361 C1362 1.379 . S
C1362 H1346 0.931 . S
C1362 C1356 1.383 . S
C1362 C1361 1.379 . S
H1363 C1357 0.959 . S
H1364 C1357 0.961 . S
H1365 C1357 0.960 . S
H1366 C1358 0.930 . S
H1367 C1359 0.929 . S
H1368 C1376 0.929 . S
H1369 C1378 0.930 . S
H1370 C1380 0.930 . S
H1371 C1383 0.929 . S
H1372 C1386 0.930 . S
H1373 C1388 0.960 . S
H1374 C1388 0.960 . S
H1375 C1388 0.960 . S
C1376 H1368 0.929 . S
C1376 C1377 1.377 . S
C1376 C1378 1.384 . S
C1377 C1376 1.377 . S
C1377 C1383 1.390 . S
C1378 H1369 0.930 . S
C1378 C1376 1.384 . S
C1378 C1379 1.372 . S
C1379 C1378 1.372 . S
C1379 C1380 1.400 . S
C1379 C1384 1.490 . S
C1380 H1370 0.930 . S
C1380 C1379 1.400 . S
C1380 C1383 1.386 . S
H1381 C1397 0.930 . S
H1382 C1398 0.931 . S
C1383 H1371 0.929 . S
C1383 C1377 1.390 . S
C1383 C1380 1.386 . S
C1384 C1379 1.490 . S
C1384 C1386 1.395 . S
C1384 C1387 1.403 . S
H1385 C1391 0.930 . S
C1386 H1372 0.930 . S
C1386 C1384 1.395 . S
C1386 C1389 1.403 . S
C1387 C1384 1.403 . S
C1387 C1388 1.524 . S
C1387 C1391 1.400 . S
C1388 H1373 0.960 . S
C1388 H1374 0.960 . S
C1388 H1375 0.960 . S
C1388 C1387 1.524 . S
C1389 C1386 1.403 . S
C1389 C1390 1.392 . S
C1389 C1393 1.495 . S
C1390 C1389 1.392 . S
C1390 C1391 1.385 . S
C1390 C1392 1.478 . S
C1391 H1385 0.930 . S
C1391 C1387 1.400 . S
C1391 C1390 1.385 . S
C1392 C1390 1.478 . S
C1392 C1394 1.381 . S
C1392 C1398 1.383 . S
C1393 C1389 1.495 . S
C1393 H1399 0.959 . S
C1393 H1400 0.961 . S
C1393 H1401 0.960 . S
C1394 C1392 1.381 . S
C1394 C1395 1.394 . S
C1394 H1402 0.930 . S
C1395 C1394 1.394 . S
C1395 C1396 1.383 . S
C1395 H1403 0.929 . S
C1396 C1395 1.383 . S
C1396 C1397 1.377 . S
C1397 H1381 0.930 . S
C1397 C1396 1.377 . S
C1397 C1398 1.379 . S
C1398 H1382 0.931 . S
C1398 C1392 1.383 . S
C1398 C1397 1.379 . S
H1399 C1393 0.959 . S
H1400 C1393 0.961 . S
H1401 C1393 0.960 . S
H1402 C1394 0.930 . S
H1403 C1395 0.929 . S
H1404 C1412 0.929 . S
H1405 C1414 0.930 . S
H1406 C1416 0.930 . S
H1407 C1419 0.929 . S
H1408 C1422 0.930 . S
H1409 C1424 0.960 . S
H1410 C1424 0.960 . S
H1411 C1424 0.960 . S
C1412 H1404 0.929 . S
C1412 C1413 1.377 . S
C1412 C1414 1.384 . S
C1413 C1412 1.377 . S
C1413 C1419 1.390 . S
C1414 H1405 0.930 . S
C1414 C1412 1.384 . S
C1414 C1415 1.372 . S
C1415 C1414 1.372 . S
C1415 C1416 1.400 . S
C1415 C1420 1.490 . S
C1416 H1406 0.930 . S
C1416 C1415 1.400 . S
C1416 C1419 1.386 . S
H1417 C1433 0.930 . S
H1418 C1434 0.931 . S
C1419 H1407 0.929 . S
C1419 C1413 1.390 . S
C1419 C1416 1.386 . S
C1420 C1415 1.490 . S
C1420 C1422 1.395 . S
C1420 C1423 1.403 . S
H1421 C1427 0.930 . S
C1422 H1408 0.930 . S
C1422 C1420 1.395 . S
C1422 C1425 1.403 . S
C1423 C1420 1.403 . S
C1423 C1424 1.524 . S
C1423 C1427 1.400 . S
C1424 H1409 0.960 . S
C1424 H1410 0.960 . S
C1424 H1411 0.960 . S
C1424 C1423 1.524 . S
C1425 C1422 1.403 . S
C1425 C1426 1.392 . S
C1425 C1429 1.495 . S
C1426 C1425 1.392 . S
C1426 C1427 1.385 . S
C1426 C1428 1.478 . S
C1427 H1421 0.930 . S
C1427 C1423 1.400 . S
C1427 C1426 1.385 . S
C1428 C1426 1.478 . S
C1428 C1430 1.381 . S
C1428 C1434 1.383 . S
C1429 C1425 1.495 . S
C1429 H1435 0.959 . S
C1429 H1436 0.961 . S
C1429 H1437 0.960 . S
C1430 C1428 1.381 . S
C1430 C1431 1.394 . S
C1430 H1438 0.930 . S
C1431 C1430 1.394 . S
C1431 C1432 1.383 . S
C1431 H1439 0.929 . S
C1432 C1431 1.383 . S
C1432 C1433 1.377 . S
C1433 H1417 0.930 . S
C1433 C1432 1.377 . S
C1433 C1434 1.379 . S
C1434 H1418 0.931 . S
C1434 C1428 1.383 . S
C1434 C1433 1.379 . S
H1435 C1429 0.959 . S
H1436 C1429 0.961 . S
H1437 C1429 0.960 . S
H1438 C1430 0.930 . S
H1439 C1431 0.929 . S
H1440 C1448 0.929 . S
H1441 C1450 0.930 . S
H1442 C1452 0.930 . S
H1443 C1455 0.929 . S
H1444 C1458 0.930 . S
H1445 C1460 0.960 . S
H1446 C1460 0.960 . S
H1447 C1460 0.960 . S
C1448 H1440 0.929 . S
C1448 C1449 1.377 . S
C1448 C1450 1.384 . S
C1449 C1448 1.377 . S
C1449 C1455 1.390 . S
C1450 H1441 0.930 . S
C1450 C1448 1.384 . S
C1450 C1451 1.372 . S
C1451 C1450 1.372 . S
C1451 C1452 1.400 . S
C1451 C1456 1.490 . S
C1452 H1442 0.930 . S
C1452 C1451 1.400 . S
C1452 C1455 1.386 . S
H1453 C1469 0.930 . S
H1454 C1470 0.931 . S
C1455 H1443 0.929 . S
C1455 C1449 1.390 . S
C1455 C1452 1.386 . S
C1456 C1451 1.490 . S
C1456 C1458 1.395 . S
C1456 C1459 1.403 1_655 S
H1457 C1463 0.930 . S
C1458 H1444 0.930 . S
C1458 C1456 1.395 . S
C1458 C1461 1.403 1_565 S
C1459 C1456 1.403 1_455 S
C1459 C1460 1.524 . S
C1459 C1463 1.400 1_565 S
C1460 H1445 0.960 . S
C1460 H1446 0.960 . S
C1460 H1447 0.960 . S
C1460 C1459 1.524 . S
C1461 C1458 1.403 1_545 S
C1461 C1462 1.392 1_655 S
C1461 C1465 1.495 . S
C1462 C1461 1.392 1_455 S
C1462 C1463 1.385 . S
C1462 C1464 1.478 . S
C1463 H1457 0.930 . S
C1463 C1459 1.400 1_545 S
C1463 C1462 1.385 . S
C1464 C1462 1.478 . S
C1464 C1466 1.381 . S
C1464 C1470 1.383 . S
C1465 C1461 1.495 . S
C1465 H1471 0.959 . S
C1465 H1472 0.961 . S
C1465 H1473 0.960 . S
C1466 C1464 1.381 . S
C1466 C1467 1.394 . S
C1466 H1474 0.930 . S
C1467 C1466 1.394 . S
C1467 C1468 1.383 . S
C1467 H1475 0.929 . S
C1468 C1467 1.383 . S
C1468 C1469 1.377 . S
C1469 H1453 0.930 . S
C1469 C1468 1.377 . S
C1469 C1470 1.379 . S
C1470 H1454 0.931 . S
C1470 C1464 1.383 . S
C1470 C1469 1.379 . S
H1471 C1465 0.959 . S
H1472 C1465 0.961 . S
H1473 C1465 0.960 . S
H1474 C1466 0.930 . S
H1475 C1467 0.929 . S
H1476 C1484 0.929 . S
H1477 C1486 0.930 . S
H1478 C1488 0.930 . S
H1479 C1491 0.929 . S
H1480 C1494 0.930 . S
H1481 C1496 0.965 . S
H1482 C1496 0.953 1_545 S
H1483 C1496 0.963 . S
C1484 H1476 0.929 . S
C1484 C1485 1.377 . S
C1484 C1486 1.384 . S
C1485 C1484 1.377 . S
C1485 C1491 1.390 . S
C1486 H1477 0.930 . S
C1486 C1484 1.384 . S
C1486 C1487 1.372 . S
C1487 C1486 1.372 . S
C1487 C1488 1.400 . S
C1487 C1492 1.490 . S
C1488 H1478 0.930 . S
C1488 C1487 1.400 . S
C1488 C1491 1.386 . S
H1489 C1505 0.930 . S
H1490 C1506 0.931 . S
C1491 H1479 0.929 . S
C1491 C1485 1.390 . S
C1491 C1488 1.386 . S
C1492 C1487 1.490 . S
C1492 C1494 1.395 . S
C1492 C1495 1.403 . S
H1493 C1499 0.930 . S
C1494 H1480 0.930 . S
C1494 C1492 1.395 . S
C1494 C1497 1.403 1_655 S
C1495 C1492 1.403 . S
C1495 C1496 1.523 1_545 S
C1495 C1499 1.400 1_645 S
C1496 H1481 0.965 . S
C1496 H1482 0.953 1_565 S
C1496 H1483 0.963 . S
C1496 C1495 1.523 1_565 S
C1497 C1494 1.403 1_455 S
C1497 C1498 1.392 1_545 S
C1497 C1501 1.495 . S
C1498 C1497 1.392 1_565 S
C1498 C1499 1.385 . S
C1498 C1500 1.478 . S
C1499 H1493 0.930 . S
C1499 C1495 1.400 1_465 S
C1499 C1498 1.385 . S
C1500 C1498 1.478 . S
C1500 C1502 1.381 . S
C1500 C1506 1.383 . S
C1501 C1497 1.495 . S
C1501 H1507 0.959 . S
C1501 H1508 0.961 1_545 S
C1501 H1509 0.960 . S
C1502 C1500 1.381 . S
C1502 C1503 1.394 . S
C1502 H1510 0.946 . S
C1503 C1502 1.394 . S
C1503 C1504 1.383 . S
C1503 H1511 0.929 . S
C1504 C1503 1.383 . S
C1504 C1505 1.377 . S
C1505 H1489 0.930 . S
C1505 C1504 1.377 . S
C1505 C1506 1.379 . S
C1506 H1490 0.931 . S
C1506 C1500 1.383 . S
C1506 C1505 1.379 . S
H1507 C1501 0.959 . S
H1508 C1501 0.961 1_565 S
H1509 C1501 0.960 . S
H1510 C1502 0.946 . S
H1511 C1503 0.929 . S
H1512 C1520 0.929 . S
H1513 C1522 0.930 . S
H1514 C1524 0.930 . S
H1515 C1527 0.929 . S
H1516 C1530 0.930 . S
H1517 C1532 0.960 . S
H1518 C1532 0.960 . S
H1519 C1532 0.960 . S
C1520 H1512 0.929 . S
C1520 C1521 1.377 . S
C1520 C1522 1.384 . S
C1521 C1520 1.377 . S
C1521 C1527 1.390 . S
C1522 H1513 0.930 . S
C1522 C1520 1.384 . S
C1522 C1523 1.372 . S
C1523 C1522 1.372 . S
C1523 C1524 1.400 . S
C1523 C1528 1.490 . S
C1524 H1514 0.930 . S
C1524 C1523 1.400 . S
C1524 C1527 1.386 . S
H1525 C1541 0.930 . S
H1526 C1542 0.931 . S
C1527 H1515 0.929 . S
C1527 C1521 1.390 . S
C1527 C1524 1.386 . S
C1528 C1523 1.490 . S
C1528 C1530 1.395 . S
C1528 C1531 1.403 1_455 S
H1529 C1535 0.930 . S
C1530 H1516 0.930 . S
C1530 C1528 1.395 . S
C1530 C1533 1.403 . S
C1531 C1528 1.403 1_655 S
C1531 C1532 1.524 . S
C1531 C1535 1.400 . S
C1532 H1517 0.960 . S
C1532 H1518 0.960 . S
C1532 H1519 0.960 . S
C1532 C1531 1.524 . S
C1533 C1530 1.403 . S
C1533 C1534 1.392 1_455 S
C1533 C1537 1.495 . S
C1534 C1533 1.392 1_655 S
C1534 C1535 1.385 . S
C1534 C1536 1.478 . S
C1535 H1529 0.930 . S
C1535 C1531 1.400 . S
C1535 C1534 1.385 . S
C1536 C1534 1.478 . S
C1536 C1538 1.381 . S
C1536 C1542 1.383 . S
C1537 C1533 1.495 . S
C1537 H1543 0.959 . S
C1537 H1544 0.961 . S
C1537 H1545 1.001 . S
C1538 C1536 1.381 . S
C1538 C1539 1.394 . S
C1538 H1546 0.930 . S
C1539 C1538 1.394 . S
C1539 C1540 1.383 . S
C1539 H1547 0.929 . S
C1540 C1539 1.383 . S
C1540 C1541 1.377 . S
C1541 H1525 0.930 . S
C1541 C1540 1.377 . S
C1541 C1542 1.379 . S
C1542 H1526 0.931 . S
C1542 C1536 1.383 . S
C1542 C1541 1.379 . S
H1543 C1537 0.959 . S
H1544 C1537 0.961 . S
H1545 C1537 1.001 . S
H1546 C1538 0.930 . S
H1547 C1539 0.929 . S
H1548 C1556 0.929 . S
H1549 C1558 0.930 . S
H1550 C1560 0.930 . S
H1551 C1563 0.929 . S
H1552 C1566 0.930 . S
H1553 C1568 0.960 . S
H1554 C1568 0.960 . S
H1555 C1568 0.960 . S
C1556 H1548 0.929 . S
C1556 C1557 1.377 . S
C1556 C1558 1.384 . S
C1557 C1556 1.377 . S
C1557 C1563 1.390 . S
C1558 H1549 0.930 . S
C1558 C1556 1.384 . S
C1558 C1559 1.372 . S
C1559 C1558 1.372 . S
C1559 C1560 1.400 . S
C1559 C1564 1.490 . S
C1560 H1550 0.930 . S
C1560 C1559 1.400 . S
C1560 C1563 1.386 . S
H1561 C1577 0.930 . S
H1562 C1578 0.931 . S
C1563 H1551 0.929 . S
C1563 C1557 1.390 . S
C1563 C1560 1.386 . S
C1564 C1559 1.490 . S
C1564 C1566 1.395 . S
C1564 C1567 1.403 1_565 S
H1565 C1571 0.930 . S
C1566 H1552 0.930 . S
C1566 C1564 1.395 . S
C1566 C1569 1.403 . S
C1567 C1564 1.403 1_545 S
C1567 C1568 1.524 . S
C1567 C1571 1.400 . S
C1568 H1553 0.960 . S
C1568 H1554 0.960 . S
C1568 H1555 0.960 . S
C1568 C1567 1.524 . S
C1569 C1566 1.403 . S
C1569 C1570 1.392 1_565 S
C1569 C1573 1.495 . S
C1570 C1569 1.392 1_545 S
C1570 C1571 1.385 . S
C1570 C1572 1.478 . S
C1571 H1565 0.930 . S
C1571 C1567 1.400 . S
C1571 C1570 1.385 . S
C1572 C1570 1.478 . S
C1572 C1574 1.381 . S
C1572 C1578 1.383 . S
C1573 C1569 1.495 . S
C1573 H1579 0.959 . S
C1573 H1580 0.961 . S
C1573 H1581 0.960 . S
C1574 C1572 1.381 . S
C1574 C1575 1.394 . S
C1574 H1582 0.930 . S
C1575 C1574 1.394 . S
C1575 C1576 1.383 . S
C1575 H1583 0.929 . S
C1576 C1575 1.383 . S
C1576 C1577 1.377 . S
C1577 H1561 0.930 . S
C1577 C1576 1.377 . S
C1577 C1578 1.379 . S
C1578 H1562 0.931 . S
C1578 C1572 1.383 . S
C1578 C1577 1.379 . S
H1579 C1573 0.959 . S
H1580 C1573 0.961 . S
H1581 C1573 0.960 . S
H1582 C1574 0.930 . S
H1583 C1575 0.929 . S
H1584 C1592 0.929 . S
H1585 C1594 0.930 . S
H1586 C1596 0.930 . S
H1587 C1599 0.929 . S
H1588 C1602 0.930 . S
H1589 C1604 0.960 . S
H1590 C1604 0.960 . S
H1591 C1604 0.960 . S
C1592 H1584 0.929 . S
C1592 C1593 1.377 . S
C1592 C1594 1.384 . S
C1593 C1592 1.377 . S
C1593 C1599 1.390 . S
C1594 H1585 0.930 . S
C1594 C1592 1.384 . S
C1594 C1595 1.372 . S
C1595 C1594 1.372 . S
C1595 C1596 1.400 . S
C1595 C1600 1.490 . S
C1596 H1586 0.930 . S
C1596 C1595 1.400 . S
C1596 C1599 1.386 . S
H1597 C1613 0.930 . S
H1598 C1614 0.931 . S
C1599 H1587 0.929 . S
C1599 C1593 1.390 . S
C1599 C1596 1.386 . S
C1600 C1595 1.490 . S
C1600 C1602 1.395 . S
C1600 C1603 1.403 . S
H1601 C1607 0.930 . S
C1602 H1588 0.930 . S
C1602 C1600 1.395 . S
C1602 C1605 1.403 . S
C1603 C1600 1.403 . S
C1603 C1604 1.524 . S
C1603 C1607 1.400 . S
C1604 H1589 0.960 . S
C1604 H1590 0.960 . S
C1604 H1591 0.960 . S
C1604 C1603 1.524 . S
C1605 C1602 1.403 . S
C1605 C1606 1.392 . S
C1605 C1609 1.495 . S
C1606 C1605 1.392 . S
C1606 C1607 1.385 . S
C1606 C1608 1.478 . S
C1607 H1601 0.930 . S
C1607 C1603 1.400 . S
C1607 C1606 1.385 . S
C1608 C1606 1.478 . S
C1608 C1610 1.381 . S
C1608 C1614 1.383 . S
C1609 C1605 1.495 . S
C1609 H1615 0.959 . S
C1609 H1616 0.961 . S
C1609 H1617 0.960 . S
C1610 C1608 1.381 . S
C1610 C1611 1.394 . S
C1610 H1618 0.930 . S
C1611 C1610 1.394 . S
C1611 C1612 1.383 . S
C1611 H1619 0.929 . S
C1612 C1611 1.383 . S
C1612 C1613 1.377 . S
C1613 H1597 0.930 . S
C1613 C1612 1.377 . S
C1613 C1614 1.379 . S
C1614 H1598 0.931 . S
C1614 C1608 1.383 . S
C1614 C1613 1.379 . S
H1615 C1609 0.959 . S
H1616 C1609 0.961 . S
H1617 C1609 0.960 . S
H1618 C1610 0.930 . S
H1619 C1611 0.929 . S
H1620 C1628 0.929 . S
H1621 C1630 0.930 . S
H1622 C1632 0.930 . S
H1623 C1635 0.929 . S
H1624 C1638 0.930 . S
H1625 C1640 0.960 . S
H1626 C1640 0.960 . S
H1627 C1640 0.960 . S
C1628 H1620 0.929 . S
C1628 C1629 1.377 . S
C1628 C1630 1.384 . S
C1629 C1628 1.377 . S
C1629 C1635 1.390 . S
C1630 H1621 0.930 . S
C1630 C1628 1.384 . S
C1630 C1631 1.372 . S
C1631 C1630 1.372 . S
C1631 C1632 1.400 . S
C1631 C1636 1.490 . S
C1632 H1622 0.930 . S
C1632 C1631 1.400 . S
C1632 C1635 1.386 . S
H1633 C1649 0.930 . S
H1634 C1650 0.931 . S
C1635 H1623 0.929 . S
C1635 C1629 1.390 . S
C1635 C1632 1.386 . S
C1636 C1631 1.490 . S
C1636 C1638 1.395 . S
C1636 C1639 1.403 . S
H1637 C1643 0.930 . S
C1638 H1624 0.930 . S
C1638 C1636 1.395 . S
C1638 C1641 1.403 . S
C1639 C1636 1.403 . S
C1639 C1640 1.524 . S
C1639 C1643 1.400 . S
C1640 H1625 0.960 . S
C1640 H1626 0.960 . S
C1640 H1627 0.960 . S
C1640 C1639 1.524 . S
C1641 C1638 1.403 . S
C1641 C1642 1.392 . S
C1641 C1645 1.495 . S
C1642 C1641 1.392 . S
C1642 C1643 1.385 . S
C1642 C1644 1.478 . S
C1643 H1637 0.930 . S
C1643 C1639 1.400 . S
C1643 C1642 1.385 . S
C1644 C1642 1.478 . S
C1644 C1646 1.381 . S
C1644 C1650 1.383 . S
C1645 C1641 1.495 . S
C1645 H1651 0.959 . S
C1645 H1652 0.961 . S
C1645 H1653 0.960 . S
C1646 C1644 1.381 . S
C1646 C1647 1.394 . S
C1646 H1654 0.930 . S
C1647 C1646 1.394 . S
C1647 C1648 1.383 . S
C1647 H1655 0.929 . S
C1648 C1647 1.383 . S
C1648 C1649 1.377 . S
C1649 H1633 0.930 . S
C1649 C1648 1.377 . S
C1649 C1650 1.379 . S
C1650 H1634 0.931 . S
C1650 C1644 1.383 . S
C1650 C1649 1.379 . S
H1651 C1645 0.959 . S
H1652 C1645 0.961 . S
H1653 C1645 0.960 . S
H1654 C1646 0.930 . S
H1655 C1647 0.929 . S
H1656 C1664 0.929 . S
H1657 C1666 0.930 . S
H1658 C1668 0.930 . S
H1659 C1671 0.929 . S
H1660 C1674 0.930 . S
H1661 C1676 0.960 . S
H1662 C1676 0.960 1_545 S
H1663 C1676 0.958 1_545 S
C1664 H1656 0.929 . S
C1664 C1665 1.377 . S
C1664 C1666 1.384 . S
C1665 C1664 1.377 . S
C1665 C1671 1.390 . S
C1666 H1657 0.930 . S
C1666 C1664 1.384 . S
C1666 C1667 1.372 . S
C1667 C1666 1.372 . S
C1667 C1668 1.400 . S
C1667 C1672 1.490 . S
C1668 H1658 0.930 . S
C1668 C1667 1.400 . S
C1668 C1671 1.386 . S
H1669 C1685 0.930 . S
H1670 C1686 0.931 . S
C1671 H1659 0.929 . S
C1671 C1665 1.390 . S
C1671 C1668 1.386 . S
C1672 C1667 1.490 . S
C1672 C1674 1.395 . S
C1672 C1675 1.403 1_545 S
H1673 C1679 0.930 . S
C1674 H1660 0.930 . S
C1674 C1672 1.395 . S
C1674 C1677 1.403 . S
C1675 C1672 1.403 1_565 S
C1675 C1676 1.524 . S
C1675 C1679 1.400 . S
C1676 H1661 0.960 . S
C1676 H1662 0.960 1_565 S
C1676 H1663 0.958 1_565 S
C1676 C1675 1.524 . S
C1677 C1674 1.403 . S
C1677 C1678 1.392 1_545 S
C1677 C1681 1.495 . S
C1678 C1677 1.392 1_565 S
C1678 C1679 1.385 . S
C1678 C1680 1.478 . S
C1679 H1673 0.930 . S
C1679 C1675 1.400 . S
C1679 C1678 1.385 . S
C1680 C1678 1.478 . S
C1680 C1682 1.381 . S
C1680 C1686 1.383 . S
C1681 C1677 1.495 . S
C1681 H1687 0.959 . S
C1681 H1688 0.951 1_545 S
C1681 H1689 0.960 . S
C1682 C1680 1.381 . S
C1682 C1683 1.394 . S
C1682 H1690 0.930 . S
C1683 C1682 1.394 . S
C1683 C1684 1.383 . S
C1683 H1691 0.929 . S
C1684 C1683 1.383 . S
C1684 C1685 1.377 . S
C1685 H1669 0.930 . S
C1685 C1684 1.377 . S
C1685 C1686 1.379 . S
C1686 H1670 0.931 . S
C1686 C1680 1.383 . S
C1686 C1685 1.379 . S
H1687 C1681 0.959 . S
H1688 C1681 0.951 1_565 S
H1689 C1681 0.960 . S
H1690 C1682 0.930 . S
H1691 C1683 0.929 . S
H1692 C1700 0.929 . S
H1693 C1702 0.930 . S
H1694 C1704 0.930 . S
H1695 C1707 0.929 . S
H1696 C1710 0.929 1_655 S
H1697 C1712 0.960 . S
H1698 C1712 0.960 . S
H1699 C1712 0.960 . S
C1700 H1692 0.929 . S
C1700 C1701 1.377 . S
C1700 C1702 1.384 . S
C1701 C1700 1.377 . S
C1701 C1707 1.390 . S
C1702 H1693 0.930 . S
C1702 C1700 1.384 . S
C1702 C1703 1.372 . S
C1703 C1702 1.372 . S
C1703 C1704 1.400 . S
C1703 C1708 1.490 . S
C1704 H1694 0.930 . S
C1704 C1703 1.400 . S
C1704 C1707 1.386 . S
H1705 C1721 0.930 . S
H1706 C1722 0.931 . S
C1707 H1695 0.929 . S
C1707 C1701 1.390 . S
C1707 C1704 1.386 . S
C1708 C1703 1.490 . S
C1708 C1710 1.381 1_655 S
C1708 C1711 1.403 . S
H1709 C1715 0.930 . S
C1710 H1696 0.929 1_455 S
C1710 C1708 1.381 1_455 S
C1710 C1713 1.418 . S
C1711 C1708 1.403 . S
C1711 C1712 1.524 . S
C1711 C1715 1.400 1_655 S
C1712 H1697 0.960 . S
C1712 H1698 0.960 . S
C1712 H1699 0.960 . S
C1712 C1711 1.524 . S
C1713 C1710 1.418 . S
C1713 C1714 1.392 . S
C1713 C1717 1.495 . S
C1714 C1713 1.392 . S
C1714 C1715 1.385 . S
C1714 C1716 1.478 . S
C1715 H1709 0.930 . S
C1715 C1711 1.400 1_455 S
C1715 C1714 1.385 . S
C1716 C1714 1.478 . S
C1716 C1718 1.381 . S
C1716 C1722 1.383 . S
C1717 C1713 1.495 . S
C1717 H1723 0.959 . S
C1717 H1724 0.961 . S
C1717 H1725 0.960 . S
C1718 C1716 1.381 . S
C1718 C1719 1.394 . S
C1718 H1726 0.930 . S
C1719 C1718 1.394 . S
C1719 C1720 1.383 . S
C1719 H1727 0.929 . S
C1720 C1719 1.383 . S
C1720 C1721 1.377 . S
C1721 H1705 0.930 . S
C1721 C1720 1.377 . S
C1721 C1722 1.379 . S
C1722 H1706 0.931 . S
C1722 C1716 1.383 . S
C1722 C1721 1.379 . S
H1723 C1717 0.959 . S
H1724 C1717 0.961 . S
H1725 C1717 0.960 . S
H1726 C1718 0.930 . S
H1727 C1719 0.929 . S
C585 C3 0.956 . S
C604 C398 0.974 . S
C621 C290 0.946 . S
C640 C39 0.964 . S
C657 C326 0.954 . S
C676 C75 0.949 . S
C693 C362 0.942 . S
C712 C111 0.981 . S
C729 C182 0.942 . S
C748 C147 0.939 . S
C765 C183 0.957 . S
C784 C218 0.941 . S
C801 C219 0.961 . S
C820 C254 0.977 . S
C837 C255 0.952 . S
C856 C146 0.977 . S
C873 C291 0.961 . S
C892 C110 0.976 . S
C909 C2 0.946 . S
C928 C327 0.965 . S
C945 C38 0.956 . S
C964 C363 0.976 . S
C981 C74 0.942 . S
C1000 C399 0.979 . S
C1017 C470 0.943 . S
C1036 C435 0.953 . S
C1053 C471 0.957 . S
C1072 C506 0.946 . S
C1089 C542 0.945 . S
C1108 C507 0.929 . S
C1125 C434 0.943 . S
C1144 C543 0.977 . S
C1161 C518 1.563 . S
C1180 C14 1.555 . S
C1197 C554 1.567 . S
C1216 C50 1.558 . S
C1233 C446 1.566 . S
C1252 C86 1.549 . S
C1269 C122 1.567 . S
C1288 C482 1.559 . S
C1305 C158 1.563 . S
C1324 C374 1.554 . S
C1341 C410 1.566 . S
C1360 C194 1.563 . S
C1377 C230 1.569 . S
C1396 C302 1.566 . S
C1413 C266 1.565 . S
C1432 C338 1.568 . S
C1449 C76 1.120 . S
C1468 C4 1.101 . S
C1485 C112 1.126 . S
C1504 C40 1.128 . S
C1521 C148 1.118 . S
C1540 C220 1.108 . S
C1557 C184 1.117 . S
C1576 C256 1.086 . S
C1593 C364 1.119 . S
C1612 C292 1.158 . S
C1629 C328 1.132 . S
C1648 C400 1.160 . S
C1665 C508 1.122 . S
C1684 C436 1.159 . S
C1701 C472 1.121 . S
C1720 C544 1.105 . S
