# Generated by pormake.
# Topology cbo, (4)-cn, num edge types: 1
# Building blocks:
#     Node 0, Type 0, BuildingBlock: KUFVIS_clean_sbu_0, # of connection points: 4
#     Node 1, Type 0, BuildingBlock: KUFVIS_clean_sbu_0, # of connection points: 4
#     Node 2, Type 0, BuildingBlock: KUFVIS_clean_sbu_0, # of connection points: 4
#     Node 3, Type 0, BuildingBlock: KUFVIS_clean_sbu_0, # of connection points: 4
#     Node 4, Type 0, BuildingBlock: KUFVIS_clean_sbu_0, # of connection points: 4
#     Node 5, Type 0, BuildingBlock: KUFVIS_clean_sbu_0, # of connection points: 4
#     Node 6, Type 0, BuildingBlock: KUFVIS_clean_sbu_0, # of connection points: 4
#     Node 7, Type 0, BuildingBlock: KUFVIS_clean_sbu_0, # of connection points: 4
#     Node 8, Type 0, BuildingBlock: KUFVIS_clean_sbu_0, # of connection points: 4
#     Node 9, Type 0, BuildingBlock: KUFVIS_clean_sbu_0, # of connection points: 4
#     Node 10, Type 0, BuildingBlock: KUFVIS_clean_sbu_0, # of connection points: 4
#     Node 11, Type 0, BuildingBlock: KUFVIS_clean_sbu_0, # of connection points: 4
#     Node 12, Type 0, BuildingBlock: KUFVIS_clean_sbu_0, # of connection points: 4
#     Node 13, Type 0, BuildingBlock: KUFVIS_clean_sbu_0, # of connection points: 4
#     Node 14, Type 0, BuildingBlock: KUFVIS_clean_sbu_0, # of connection points: 4
#     Node 15, Type 0, BuildingBlock: KUFVIS_clean_sbu_0, # of connection points: 4
#     Node 16, Type 0, BuildingBlock: KUFVIS_clean_sbu_0, # of connection points: 4
#     Node 17, Type 0, BuildingBlock: KUFVIS_clean_sbu_0, # of connection points: 4
#     Node 18, Type 0, BuildingBlock: KUFVIS_clean_sbu_0, # of connection points: 4
#     Node 19, Type 0, BuildingBlock: KUFVIS_clean_sbu_0, # of connection points: 4
#     Node 20, Type 0, BuildingBlock: KUFVIS_clean_sbu_0, # of connection points: 4
#     Node 21, Type 0, BuildingBlock: KUFVIS_clean_sbu_0, # of connection points: 4
#     Node 22, Type 0, BuildingBlock: KUFVIS_clean_sbu_0, # of connection points: 4
#     Node 23, Type 0, BuildingBlock: KUFVIS_clean_sbu_0, # of connection points: 4
#     Edge 24, Type (0, 0), BuildingBlock: EZIPEK_clean_linker_0, # of connection points: 2
#     Edge 25, Type (0, 0), BuildingBlock: EZIPEK_clean_linker_0, # of connection points: 2
#     Edge 26, Type (0, 0), BuildingBlock: EZIPEK_clean_linker_0, # of connection points: 2
#     Edge 27, Type (0, 0), BuildingBlock: EZIPEK_clean_linker_0, # of connection points: 2
#     Edge 28, Type (0, 0), BuildingBlock: EZIPEK_clean_linker_0, # of connection points: 2
#     Edge 29, Type (0, 0), BuildingBlock: EZIPEK_clean_linker_0, # of connection points: 2
#     Edge 30, Type (0, 0), BuildingBlock: EZIPEK_clean_linker_0, # of connection points: 2
#     Edge 31, Type (0, 0), BuildingBlock: EZIPEK_clean_linker_0, # of connection points: 2
#     Edge 32, Type (0, 0), BuildingBlock: EZIPEK_clean_linker_0, # of connection points: 2
#     Edge 33, Type (0, 0), BuildingBlock: EZIPEK_clean_linker_0, # of connection points: 2
#     Edge 34, Type (0, 0), BuildingBlock: EZIPEK_clean_linker_0, # of connection points: 2
#     Edge 35, Type (0, 0), BuildingBlock: EZIPEK_clean_linker_0, # of connection points: 2
#     Edge 36, Type (0, 0), BuildingBlock: EZIPEK_clean_linker_0, # of connection points: 2
#     Edge 37, Type (0, 0), BuildingBlock: EZIPEK_clean_linker_0, # of connection points: 2
#     Edge 38, Type (0, 0), BuildingBlock: EZIPEK_clean_linker_0, # of connection points: 2
#     Edge 39, Type (0, 0), BuildingBlock: EZIPEK_clean_linker_0, # of connection points: 2
#     Edge 40, Type (0, 0), BuildingBlock: EZIPEK_clean_linker_0, # of connection points: 2
#     Edge 41, Type (0, 0), BuildingBlock: EZIPEK_clean_linker_0, # of connection points: 2
#     Edge 42, Type (0, 0), BuildingBlock: EZIPEK_clean_linker_0, # of connection points: 2
#     Edge 43, Type (0, 0), BuildingBlock: EZIPEK_clean_linker_0, # of connection points: 2
#     Edge 44, Type (0, 0), BuildingBlock: EZIPEK_clean_linker_0, # of connection points: 2
#     Edge 45, Type (0, 0), BuildingBlock: EZIPEK_clean_linker_0, # of connection points: 2
#     Edge 46, Type (0, 0), BuildingBlock: EZIPEK_clean_linker_0, # of connection points: 2
#     Edge 47, Type (0, 0), BuildingBlock: EZIPEK_clean_linker_0, # of connection points: 2
#     Edge 48, Type (0, 0), BuildingBlock: EZIPEK_clean_linker_0, # of connection points: 2
#     Edge 49, Type (0, 0), BuildingBlock: EZIPEK_clean_linker_0, # of connection points: 2
#     Edge 50, Type (0, 0), BuildingBlock: EZIPEK_clean_linker_0, # of connection points: 2
#     Edge 51, Type (0, 0), BuildingBlock: EZIPEK_clean_linker_0, # of connection points: 2
#     Edge 52, Type (0, 0), BuildingBlock: EZIPEK_clean_linker_0, # of connection points: 2
#     Edge 53, Type (0, 0), BuildingBlock: EZIPEK_clean_linker_0, # of connection points: 2
#     Edge 54, Type (0, 0), BuildingBlock: EZIPEK_clean_linker_0, # of connection points: 2
#     Edge 55, Type (0, 0), BuildingBlock: EZIPEK_clean_linker_0, # of connection points: 2
#     Edge 56, Type (0, 0), BuildingBlock: EZIPEK_clean_linker_0, # of connection points: 2
#     Edge 57, Type (0, 0), BuildingBlock: EZIPEK_clean_linker_0, # of connection points: 2
#     Edge 58, Type (0, 0), BuildingBlock: EZIPEK_clean_linker_0, # of connection points: 2
#     Edge 59, Type (0, 0), BuildingBlock: EZIPEK_clean_linker_0, # of connection points: 2
#     Edge 60, Type (0, 0), BuildingBlock: EZIPEK_clean_linker_0, # of connection points: 2
#     Edge 61, Type (0, 0), BuildingBlock: EZIPEK_clean_linker_0, # of connection points: 2
#     Edge 62, Type (0, 0), BuildingBlock: EZIPEK_clean_linker_0, # of connection points: 2
#     Edge 63, Type (0, 0), BuildingBlock: EZIPEK_clean_linker_0, # of connection points: 2
#     Edge 64, Type (0, 0), BuildingBlock: EZIPEK_clean_linker_0, # of connection points: 2
#     Edge 65, Type (0, 0), BuildingBlock: EZIPEK_clean_linker_0, # of connection points: 2
#     Edge 66, Type (0, 0), BuildingBlock: EZIPEK_clean_linker_0, # of connection points: 2
#     Edge 67, Type (0, 0), BuildingBlock: EZIPEK_clean_linker_0, # of connection points: 2
#     Edge 68, Type (0, 0), BuildingBlock: EZIPEK_clean_linker_0, # of connection points: 2
#     Edge 69, Type (0, 0), BuildingBlock: EZIPEK_clean_linker_0, # of connection points: 2
#     Edge 70, Type (0, 0), BuildingBlock: EZIPEK_clean_linker_0, # of connection points: 2
#     Edge 71, Type (0, 0), BuildingBlock: EZIPEK_clean_linker_0, # of connection points: 2
# Relax obj value: 0.204
# Max RMSD: 0.230
# Mean RMSD: 0.214
data_MOF--net-cbo--node1-KUFVIS_clean_sbu_0--edge1-EZIPEK_clean_linker_0
_symmetry_space_group_name_H-M    P1
_symmetry_Int_Tables_number       1
_symmetry_cell_setting            triclinic
loop_
_symmetry_equiv_pos_as_xyz
'x, y, z'
_cell_length_a     37.51963
_cell_length_b     37.091453
_cell_length_c     38.374831
_cell_angle_alpha  90.009347
_cell_angle_beta   90.063395
_cell_angle_gamma 90.032428
loop_
_atom_site_label
_atom_site_type_symbol
_atom_site_fract_x
_atom_site_fract_y
_atom_site_fract_z
_atom_type_partial_charge
Mn0 Mn 0.12667 0.17214 0.31955 0.0
Mn1 Mn 0.12276 0.08295 0.33299 0.0
C2 C 0.17337 0.1367 0.30104 0.0
C3 C 0.11447 0.22126 0.28346 0.0
C4 C 0.13461 0.13789 0.39134 0.0
O5 O 0.0743 0.16249 0.33108 0.0
O6 O 0.07289 0.10148 0.32991 0.0
C7 C 0.09164 0.05715 0.26666 0.0
N8 N 0.11904 0.05726 0.28994 0.0
C9 C 0.15223 0.01494 0.25524 0.0
C10 C 0.12443 0.01457 0.2308 0.0
C11 C 0.09399 0.03576 0.23656 0.0
C12 C 0.14828 0.03666 0.28485 0.0
H13 H 0.06822 0.07327 0.27105 0.0
C14 C 0.05768 0.13238 0.33257 0.0
O15 O 0.1187 0.22545 0.31685 0.0
O16 O 0.11446 0.18852 0.2718 0.0
N17 N 0.16965 0.06245 0.33605 0.0
C18 C 0.19586 0.06897 0.35982 0.0
C19 C 0.22818 0.05002 0.35771 0.0
C20 C 0.23376 0.02545 0.33045 0.0
C21 C 0.20704 0.02028 0.30539 0.0
C22 C 0.17499 0.0392 0.3094 0.0
H23 H 0.19281 0.08957 0.37937 0.0
O24 O 0.1778 0.17108 0.30537 0.0
O25 O 0.14158 0.12448 0.30782 0.0
O26 O 0.14031 0.16475 0.37119 0.0
O27 O 0.12621 0.1069 0.37929 0.0
C28 C 0.21138 0.99786 0.27607 0.0
C29 C 0.18398 0.99518 0.25101 0.0
H30 H 0.12627 0.9983 0.20742 0.0
H31 H 0.07241 0.03563 0.21783 0.0
H32 H 0.24912 0.05511 0.37649 0.0
H33 H 0.25903 0.0115 0.32845 0.0
H34 H 0.23592 0.98301 0.27223 0.0
H35 H 0.18784 0.97826 0.22832 0.0
Mn36 Mn 0.37804 0.8275 0.8084 0.0
Mn37 Mn 0.38804 0.91436 0.83242 0.0
C38 C 0.33144 0.86798 0.80058 0.0
C39 C 0.37999 0.7833 0.76484 0.0
C40 C 0.37542 0.85349 0.88421 0.0
O41 O 0.43184 0.83214 0.81101 0.0
O42 O 0.43645 0.89052 0.82718 0.0
C43 C 0.42261 0.94671 0.77042 0.0
N44 N 0.39343 0.94257 0.79089 0.0
C45 C 0.3592 0.98219 0.75405 0.0
C46 C 0.38825 0.98466 0.73125 0.0
C47 C 0.42035 0.96731 0.7398 0.0
C48 C 0.36302 0.96074 0.78386 0.0
H49 H 0.44749 0.93533 0.77817 0.0
C50 C 0.45031 0.85949 0.81997 0.0
O51 O 0.38042 0.77435 0.7976 0.0
O52 O 0.38024 0.81733 0.75776 0.0
N53 N 0.34371 0.93954 0.83744 0.0
C54 C 0.32289 0.94254 0.86629 0.0
C55 C 0.29119 0.96259 0.86469 0.0
C56 C 0.28208 0.98074 0.83382 0.0
C57 C 0.30567 0.98006 0.80552 0.0
C58 C 0.33675 0.95941 0.80875 0.0
H59 H 0.33101 0.93051 0.89052 0.0
O60 O 0.32555 0.83388 0.80464 0.0
O61 O 0.36467 0.87751 0.80395 0.0
O62 O 0.37453 0.82803 0.86179 0.0
O63 O 0.38016 0.88672 0.87627 0.0
C64 C 0.30037 0.00027 0.77488 0.0
C65 C 0.32711 0.00126 0.74908 0.0
H66 H 0.38667 0.00091 0.70785 0.0
H67 H 0.44344 0.97032 0.72318 0.0
H68 H 0.27408 0.96443 0.88731 0.0
H69 H 0.25773 0.99637 0.83268 0.0
H70 H 0.27636 0.01607 0.7714 0.0
H71 H 0.32325 0.01776 0.7261 0.0
Mn72 Mn 0.62101 0.31998 0.67968 0.0
Mn73 Mn 0.61751 0.40986 0.6664 0.0
C74 C 0.6691 0.35613 0.69498 0.0
C75 C 0.61335 0.27083 0.71669 0.0
C76 C 0.62956 0.35535 0.60799 0.0
O77 O 0.56785 0.32833 0.67245 0.0
O78 O 0.56871 0.38875 0.66599 0.0
C79 C 0.58108 0.42849 0.73244 0.0
N80 N 0.60973 0.43189 0.71089 0.0
C81 C 0.64004 0.46984 0.75232 0.0
C82 C 0.6108 0.46684 0.77485 0.0
C83 C 0.58121 0.44606 0.76486 0.0
C84 C 0.6384 0.45169 0.72035 0.0
H85 H 0.55838 0.41227 0.72511 0.0
C86 C 0.55218 0.35852 0.66789 0.0
O87 O 0.61497 0.26637 0.68313 0.0
O88 O 0.61347 0.3036 0.72816 0.0
N89 N 0.66274 0.43395 0.66735 0.0
C90 C 0.68722 0.43708 0.64143 0.0
C91 C 0.71867 0.45672 0.64723 0.0
C92 C 0.72393 0.4743 0.67923 0.0
C93 C 0.69713 0.47303 0.7046 0.0
C94 C 0.66644 0.45284 0.69728 0.0
H95 H 0.68223 0.42557 0.61629 0.0
O96 O 0.67337 0.32203 0.68929 0.0
O97 O 0.63688 0.36811 0.69054 0.0
O98 O 0.62904 0.32738 0.62742 0.0
O99 O 0.62648 0.38776 0.61957 0.0
C100 C 0.69943 0.49139 0.73666 0.0
C101 C 0.6709 0.48981 0.76051 0.0
H102 H 0.61086 0.48024 0.79993 0.0
H103 H 0.55861 0.44346 0.78217 0.0
H104 H 0.73857 0.45871 0.62693 0.0
H105 H 0.74818 0.48949 0.68365 0.0
H106 H 0.72295 0.50696 0.74317 0.0
H107 H 0.673 0.50398 0.78511 0.0
Mn108 Mn 0.88188 0.68112 0.18662 0.0
Mn109 Mn 0.88486 0.59158 0.17204 0.0
C110 C 0.83311 0.64483 0.19967 0.0
C111 C 0.88731 0.72942 0.22556 0.0
C112 C 0.87657 0.64668 0.11407 0.0
O113 O 0.93521 0.67224 0.18293 0.0
O114 O 0.9342 0.61185 0.17414 0.0
C115 C 0.91744 0.56896 0.23888 0.0
N116 N 0.88948 0.5682 0.21625 0.0
C117 C 0.85502 0.53152 0.25551 0.0
C118 C 0.88328 0.53238 0.27944 0.0
C119 C 0.91468 0.55108 0.27101 0.0
C120 C 0.85929 0.54997 0.22396 0.0
H121 H 0.94156 0.58319 0.23246 0.0
C122 C 0.95065 0.64202 0.17775 0.0
O123 O 0.88753 0.73491 0.1921 0.0
O124 O 0.88646 0.69632 0.23586 0.0
N125 N 0.83886 0.56931 0.16989 0.0
C126 C 0.81534 0.56875 0.14282 0.0
C127 C 0.78328 0.54948 0.14616 0.0
C128 C 0.77585 0.53088 0.17721 0.0
C129 C 0.80094 0.531 0.2043 0.0
C130 C 0.83268 0.55015 0.19921 0.0
H131 H 0.82088 0.5831 0.11895 0.0
O132 O 0.82905 0.67874 0.19296 0.0
O133 O 0.86541 0.63302 0.19622 0.0
O134 O 0.87713 0.67468 0.13356 0.0
O135 O 0.87869 0.61439 0.12572 0.0
C136 C 0.79587 0.5126 0.23603 0.0
C137 C 0.82283 0.51299 0.26169 0.0
H138 H 0.88124 0.51861 0.30425 0.0
H139 H 0.9367 0.55171 0.28924 0.0
H140 H 0.76421 0.54922 0.12499 0.0
H141 H 0.75093 0.51637 0.17984 0.0
H142 H 0.77142 0.49789 0.24089 0.0
H143 H 0.81869 0.49863 0.28593 0.0
Mn144 Mn 0.33006 0.1096 0.17308 0.0
Mn145 Mn 0.35698 0.11373 0.09003 0.0
C146 C 0.31997 0.16256 0.1415 0.0
C147 C 0.28608 0.09288 0.21349 0.0
C148 C 0.40699 0.11519 0.15268 0.0
O149 O 0.34025 0.05718 0.1595 0.0
O150 O 0.34345 0.06356 0.10125 0.0
C151 C 0.29207 0.09428 0.05038 0.0
N152 N 0.31864 0.1182 0.05761 0.0
C153 C 0.30302 0.15472 0.00819 0.0
C154 C 0.27481 0.1311 1.00077 0.0
C155 C 0.26917 0.10086 0.02212 0.0
C156 C 0.3238 0.14778 0.03774 0.0
H157 H 0.28839 0.07042 0.06611 0.0
C158 C 0.34207 0.0441 0.1287 0.0
O159 O 0.31936 0.09599 0.22218 0.0
O160 O 0.2787 0.09893 0.18096 0.0
N161 N 0.37055 0.16097 0.07559 0.0
C162 C 0.39959 0.1804 0.08575 0.0
C163 C 0.4111 0.20942 0.06531 0.0
C164 C 0.39303 0.21773 0.03435 0.0
C165 C 0.36225 0.19841 0.02515 0.0
C166 C 0.35184 0.16995 0.04676 0.0
H167 H 0.41481 0.17301 0.1085 0.0
O168 O 0.31931 0.16253 0.17532 0.0
O169 O 0.32669 0.13145 0.12748 0.0
O170 O 0.38342 0.11911 0.17617 0.0
O171 O 0.39949 0.10969 0.12062 0.0
C172 C 0.34254 0.20504 0.99451 0.0
C173 C 0.31233 0.18391 0.98658 0.0
H174 H 0.25777 0.13552 0.97838 0.0
H175 H 0.24775 0.08225 0.01633 0.0
H176 H 0.43468 0.22443 0.07265 0.0
H177 H 0.40366 0.23851 0.01757 0.0
H178 H 0.35053 0.22611 0.97665 0.0
H179 H 0.29721 0.18957 0.96315 0.0
Mn180 Mn 0.17667 0.87543 0.65778 0.0
Mn181 Mn 0.14964 0.88293 0.57516 0.0
C182 C 0.18715 0.82765 0.62044 0.0
C183 C 0.22135 0.88729 0.69934 0.0
C184 C 0.09942 0.87256 0.63653 0.0
O185 O 0.16506 0.92863 0.65123 0.0
O186 O 0.16221 0.93196 0.59244 0.0
C187 C 0.21252 0.90808 0.53537 0.0
N188 N 0.187 0.88272 0.54129 0.0
C189 C 0.20436 0.84965 0.49004 0.0
C190 C 0.2314 0.87496 0.48395 0.0
C191 C 0.2355 0.9043 0.50675 0.0
C192 C 0.18263 0.85458 0.5193 0.0
H193 H 0.21516 0.93105 0.55225 0.0
C194 C 0.1629 0.94649 0.62284 0.0
O195 O 0.18843 0.88176 0.70845 0.0
O196 O 0.22746 0.88789 0.66615 0.0
N197 N 0.13709 0.83675 0.5565 0.0
C198 C 0.11264 0.81245 0.56819 0.0
C199 C 0.10424 0.78235 0.54772 0.0
C200 C 0.12187 0.77701 0.51597 0.0
C201 C 0.14934 0.80046 0.50603 0.0
C202 C 0.15599 0.83041 0.52721 0.0
H203 H 0.09933 0.81614 0.59277 0.0
O204 O 0.18904 0.82356 0.65394 0.0
O205 O 0.18066 0.86042 0.60981 0.0
O206 O 0.12309 0.86285 0.65862 0.0
O207 O 0.10787 0.88411 0.60649 0.0
C208 C 0.17027 0.79542 0.47597 0.0
C209 C 0.198 0.81981 0.46816 0.0
H210 H 0.249 0.87227 0.46174 0.0
H211 H 0.25605 0.92419 0.50203 0.0
H212 H 0.08393 0.76357 0.55619 0.0
H213 H 0.11398 0.75482 0.49957 0.0
H214 H 0.1655 0.77275 0.45882 0.0
H215 H 0.21423 0.8154 0.44523 0.0
Mn216 Mn 0.82349 0.37574 0.831 0.0
Mn217 Mn 0.84648 0.37965 0.91605 0.0
C218 C 0.81264 0.32589 0.86657 0.0
C219 C 0.7815 0.38954 0.78738 0.0
C220 C 0.89985 0.36475 0.85833 0.0
O221 O 0.83264 0.42931 0.83798 0.0
O222 O 0.84722 0.42819 0.89452 0.0
C223 C 0.78219 0.42028 0.93746 0.0
N224 N 0.80422 0.39136 0.94145 0.0
C225 C 0.77045 0.37011 0.99053 0.0
C226 C 0.74751 0.39971 0.98707 0.0
C227 C 0.75327 0.42477 0.96023 0.0
C228 C 0.79832 0.3666 0.96649 0.0
H229 H 0.78657 0.43979 0.91704 0.0
C230 C 0.84183 0.44502 0.866 0.0
O231 O 0.81495 0.38454 0.78012 0.0
O232 O 0.77279 0.38532 0.81979 0.0
N233 N 0.84662 0.3359 0.94252 0.0
C234 C 0.87261 0.3104 0.94406 0.0
C235 C 0.87209 0.28455 0.97073 0.0
C236 C 0.8453 0.2858 0.99619 0.0
C237 C 0.81884 0.31219 0.99431 0.0
C238 C 0.82104 0.33751 0.96737 0.0
H239 H 0.89462 0.31106 0.92635 0.0
O240 O 0.81342 0.32308 0.83291 0.0
O241 O 0.81736 0.35852 0.87865 0.0
O242 O 0.8775 0.36663 0.83314 0.0
O243 O 0.89121 0.36747 0.89063 0.0
C244 C 0.79139 0.31535 0.01914 0.0
C245 C 0.76688 0.34405 0.01697 0.0
H246 H 0.72542 0.40347 0.00485 0.0
H247 H 0.73562 0.44764 0.95728 0.0
H248 H 0.89307 0.26461 0.97245 0.0
H249 H 0.84602 0.2674 0.018 0.0
H250 H 0.78896 0.29592 0.04008 0.0
H251 H 0.7457 0.34609 0.03603 0.0
Mn252 Mn 0.67789 0.62663 0.34166 0.0
Mn253 Mn 0.6476 0.61991 0.42404 0.0
C254 C 0.68668 0.6748 0.37996 0.0
C255 C 0.72332 0.61775 0.301 0.0
C256 C 0.59987 0.63303 0.36071 0.0
O257 O 0.66722 0.57293 0.34668 0.0
O258 O 0.65578 0.57123 0.40422 0.0
C259 C 0.71121 0.58778 0.45756 0.0
N260 N 0.68674 0.61485 0.45558 0.0
C261 C 0.71218 0.64464 0.50544 0.0
C262 C 0.73785 0.6173 0.50781 0.0
C263 C 0.73743 0.58881 0.48368 0.0
C264 C 0.68729 0.64268 0.47829 0.0
H265 H 0.71083 0.5657 0.43922 0.0
C266 C 0.66071 0.55577 0.37479 0.0
O267 O 0.69035 0.62174 0.29147 0.0
O268 O 0.72924 0.61637 0.33427 0.0
N269 N 0.63873 0.66465 0.4471 0.0
C270 C 0.60933 0.68588 0.44415 0.0
C271 C 0.60367 0.71382 0.46802 0.0
C272 C 0.62766 0.71886 0.49557 0.0
C273 C 0.65752 0.69639 0.49865 0.0
C274 C 0.66157 0.66879 0.47409 0.0
H275 H 0.58916 0.68005 0.42517 0.0
O276 O 0.68857 0.679 0.3465 0.0
O277 O 0.67995 0.64197 0.39018 0.0
O278 O 0.62465 0.63671 0.33836 0.0
O279 O 0.60531 0.62575 0.39292 0.0
C280 C 0.68221 0.69893 0.52625 0.0
C281 C 0.7099 0.67342 0.52929 0.0
H282 H 0.75783 0.61775 0.52821 0.0
H283 H 0.75709 0.56754 0.48539 0.0
H284 H 0.58001 0.73039 0.46611 0.0
H285 H 0.62167 0.7388 0.51518 0.0
H286 H 0.67983 0.72004 0.5456 0.0
H287 H 0.7287 0.67562 0.55063 0.0
Mn288 Mn 0.17449 0.31229 0.11279 0.0
Mn289 Mn 0.24745 0.34824 0.07542 0.0
C290 C 0.22509 0.276 0.10561 0.0
C291 C 0.14181 0.3042 0.16468 0.0
C292 C 0.18083 0.32502 0.0348 0.0
O293 O 0.16366 0.36632 0.11224 0.0
O294 O 0.2176 0.38612 0.09651 0.0
C295 C 0.28245 0.37582 0.13929 0.0
N296 N 0.28363 0.35533 0.10982 0.0
C297 C 0.34544 0.34136 0.11926 0.0
C298 C 0.34485 0.36199 0.14988 0.0
C299 C 0.31313 0.37912 0.16005 0.0
C300 C 0.31366 0.33793 0.10037 0.0
H301 H 0.25827 0.38946 0.14694 0.0
C302 C 0.18577 0.39175 0.10684 0.0
O303 O 0.12683 0.30201 0.13424 0.0
O304 O 0.1756 0.31144 0.16453 0.0
N305 N 0.28016 0.31588 0.05385 0.0
C306 C 0.27765 0.30212 0.02106 0.0
C307 C 0.30799 0.28843 0.00461 0.0
C308 C 0.34093 0.28967 0.02175 0.0
C309 C 0.34316 0.3036 0.05556 0.0
C310 C 0.31206 0.31769 0.07031 0.0
H311 H 0.25341 0.30429 0.00643 0.0
O312 O 0.19405 0.26218 0.11198 0.0
O313 O 0.22575 0.31108 0.10455 0.0
O314 O 0.16395 0.3107 0.06023 0.0
O315 O 0.21105 0.34091 0.03801 0.0
C316 C 0.37552 0.30667 0.074 0.0
C317 C 0.3765 0.32489 0.10624 0.0
H318 H 0.36867 0.36521 0.16556 0.0
H319 H 0.31248 0.39524 0.18355 0.0
H320 H 0.30631 0.2787 0.97807 0.0
H321 H 0.36461 0.2819 0.00778 0.0
H322 H 0.39994 0.29575 0.06331 0.0
H323 H 0.40153 0.3272 0.12015 0.0
Mn324 Mn 0.67601 0.17663 0.89295 0.0
Mn325 Mn 0.74032 0.13642 0.94024 0.0
C326 C 0.72745 0.20915 0.90696 0.0
C327 C 0.65271 0.19101 0.83825 0.0
C328 C 0.6721 0.16668 0.97202 0.0
O329 O 0.66223 0.12368 0.88916 0.0
O330 O 0.70755 0.09968 0.91978 0.0
C331 C 0.77686 0.09878 0.88227 0.0
N332 N 0.77791 0.12246 0.9094 0.0
C333 C 0.84052 0.13301 0.90057 0.0
C334 C 0.83998 0.10905 0.87232 0.0
C335 C 0.80797 0.09189 0.86311 0.0
C336 C 0.80847 0.13936 0.91825 0.0
H337 H 0.75253 0.08515 0.87536 0.0
C338 C 0.67914 0.09681 0.90151 0.0
O339 O 0.63301 0.19262 0.86607 0.0
O340 O 0.68464 0.17849 0.84214 0.0
N341 N 0.77476 0.16757 0.96129 0.0
C342 C 0.77157 0.1869 0.99129 0.0
C343 C 0.80188 0.203 0.00602 0.0
C344 C 0.83524 0.19863 0.98998 0.0
C345 C 0.83792 0.17883 0.95911 0.0
C346 C 0.80692 0.16279 0.94604 0.0
H347 H 0.74629 0.18909 0.00448 0.0
O348 O 0.69803 0.22498 0.89832 0.0
O349 O 0.72608 0.1739 0.90702 0.0
O350 O 0.65813 0.17822 0.94373 0.0
O351 O 0.70251 0.15103 0.97359 0.0
C352 C 0.87047 0.17302 0.94172 0.0
C353 C 0.87168 0.15047 0.91217 0.0
H354 H 0.86403 0.10338 0.85772 0.0
H355 H 0.80733 0.07316 0.84147 0.0
H356 H 0.79968 0.21796 0.03013 0.0
H357 H 0.85893 0.2096 0.00208 0.0
H358 H 0.8948 0.18544 0.9511 0.0
H359 H 0.89686 0.14611 0.89905 0.0
Mn360 Mn 0.82257 0.82593 0.40146 0.0
Mn361 Mn 0.75391 0.86441 0.4437 0.0
C362 C 0.77426 0.79038 0.41852 0.0
C363 C 0.84665 0.80864 0.34772 0.0
C364 C 0.82593 0.84878 0.47748 0.0
O365 O 0.8304 0.87921 0.39256 0.0
O366 O 0.77952 0.90177 0.41535 0.0
C367 C 0.70599 0.88657 0.38612 0.0
N368 N 0.71192 0.8669 0.41548 0.0
C369 C 0.65077 0.84722 0.41681 0.0
C370 C 0.64433 0.86646 0.386 0.0
C371 C 0.67209 0.88623 0.3706 0.0
C372 C 0.68534 0.84786 0.43058 0.0
H373 H 0.72689 0.90253 0.37487 0.0
C374 C 0.80929 0.90526 0.39909 0.0
O375 O 0.86679 0.81171 0.37519 0.0
O376 O 0.81364 0.81785 0.35131 0.0
N377 N 0.72763 0.83143 0.47193 0.0
C378 C 0.73803 0.81528 0.50218 0.0
C379 C 0.71283 0.79692 0.52239 0.0
C380 C 0.67721 0.79557 0.51142 0.0
C381 C 0.66731 0.8112 0.47958 0.0
C382 C 0.69357 0.82949 0.46072 0.0
H383 H 0.76515 0.81716 0.51139 0.0
O384 O 0.8051 0.77633 0.41184 0.0
O385 O 0.77276 0.82531 0.41529 0.0
O386 O 0.84084 0.8325 0.45198 0.0
O387 O 0.79468 0.86215 0.47552 0.0
C388 C 0.63223 0.81049 0.46642 0.0
C389 C 0.62409 0.82802 0.43478 0.0
H390 H 0.61808 0.86666 0.37423 0.0
H391 H 0.66723 0.90159 0.34709 0.0
H392 H 0.72062 0.7847 0.54684 0.0
H393 H 0.65767 0.78331 0.52826 0.0
H394 H 0.61125 0.79679 0.48052 0.0
H395 H 0.59706 0.82719 0.42487 0.0
Mn396 Mn 0.31785 0.6774 0.5921 0.0
Mn397 Mn 0.24793 0.63459 0.55661 0.0
C398 C 0.26782 0.71044 0.57657 0.0
C399 C 0.34431 0.69838 0.64351 0.0
C400 C 0.31693 0.65032 0.5173 0.0
O401 O 0.32814 0.62492 0.60273 0.0
O402 O 0.27639 0.59977 0.58471 0.0
C403 C 0.20532 0.61387 0.61839 0.0
N404 N 0.2082 0.63198 0.58766 0.0
C405 C 0.14619 0.64851 0.58923 0.0
C406 C 0.14278 0.63075 0.62131 0.0
C407 C 0.1725 0.61338 0.63597 0.0
C408 C 0.17974 0.64871 0.57332 0.0
H409 H 0.22785 0.59988 0.6293 0.0
C410 C 0.30726 0.59809 0.59903 0.0
O411 O 0.36314 0.6945 0.61528 0.0
O412 O 0.31156 0.6878 0.64217 0.0
N413 N 0.21856 0.66552 0.52908 0.0
C414 C 0.22676 0.68296 0.49893 0.0
C415 C 0.19958 0.69937 0.47957 0.0
C416 C 0.16439 0.69828 0.49183 0.0
C417 C 0.157 0.68261 0.5243 0.0
C418 C 0.18513 0.666 0.54202 0.0
H419 H 0.2538 0.68417 0.48966 0.0
O420 O 0.29865 0.7256 0.58038 0.0
O421 O 0.26735 0.67573 0.58175 0.0
O422 O 0.33215 0.66954 0.54072 0.0
O423 O 0.28661 0.63583 0.5221 0.0
C424 C 0.12282 0.68221 0.53949 0.0
C425 C 0.11753 0.66561 0.57217 0.0
H426 H 0.11742 0.62997 0.63474 0.0
H427 H 0.17002 0.59929 0.66054 0.0
H428 H 0.20565 0.71236 0.45503 0.0
H429 H 0.14335 0.70938 0.47588 0.0
H430 H 0.10044 0.69466 0.52636 0.0
H431 H 0.0912 0.66574 0.58373 0.0
Mn432 Mn 0.8807 0.83214 0.69485 0.0
Mn433 Mn 0.88768 0.92112 0.67812 0.0
C434 C 0.83546 0.87079 0.71104 0.0
C435 C 0.88738 0.78567 0.73555 0.0
C436 C 0.86685 0.86545 0.62266 0.0
O437 O 0.93336 0.83702 0.68362 0.0
O438 O 0.93459 0.89687 0.673 0.0
C439 C 0.9324 0.93787 0.73975 0.0
N440 N 0.9017 0.94284 0.72136 0.0
C441 C 0.87757 0.98063 0.76659 0.0
C442 C 0.90893 0.9759 0.78592 0.0
C443 C 0.93649 0.95448 0.7724 0.0
C444 C 0.87503 0.96338 0.73421 0.0
H445 H 0.95357 0.92116 0.72975 0.0
C446 C 0.94967 0.86605 0.67573 0.0
O447 O 0.88273 0.77852 0.70264 0.0
O448 O 0.89239 0.81913 0.74334 0.0
N449 N 0.84473 0.94867 0.68328 0.0
C450 C 0.81927 0.9558 0.65906 0.0
C451 C 0.7898 0.97723 0.66796 0.0
C452 C 0.78795 0.99296 0.70118 0.0
C453 C 0.81644 0.98851 0.72442 0.0
C454 C 0.84492 0.96662 0.71397 0.0
H455 H 0.82241 0.9466 0.63285 0.0
O456 O 0.82959 0.83667 0.70773 0.0
O457 O 0.86788 0.88135 0.70469 0.0
O458 O 0.86835 0.83786 0.64279 0.0
O459 O 0.87205 0.89813 0.63322 0.0
C460 C 0.81813 0.00565 0.75715 0.0
C461 C 0.84865 0.00163 0.77828 0.0
H462 H 0.91214 0.98858 0.81117 0.0
H463 H 0.96077 0.95061 0.78719 0.0
H464 H 0.76899 0.98224 0.64902 0.0
H465 H 0.7653 0.00962 0.70799 0.0
H466 H 0.79632 0.02237 0.76612 0.0
H467 H 0.84975 0.01508 0.80332 0.0
Mn468 Mn 0.62102 0.17912 0.18883 0.0
Mn469 Mn 0.63207 0.09198 0.16657 0.0
C470 C 0.67444 0.15048 0.2016 0.0
C471 C 0.60174 0.22161 0.23012 0.0
C472 C 0.63383 0.15415 0.11461 0.0
O473 O 0.57069 0.16192 0.178 0.0
O474 O 0.58022 0.10223 0.17253 0.0
C475 C 0.60646 0.05559 0.23049 0.0
N476 N 0.63295 0.06194 0.20702 0.0
C477 C 0.67213 0.02037 0.23619 0.0
C478 C 0.64526 0.01335 0.26064 0.0
C479 C 0.61234 0.03114 0.25783 0.0
C480 C 0.6648 0.04512 0.20959 0.0
H481 H 0.58108 0.06913 0.22839 0.0
C482 C 0.55943 0.12963 0.17413 0.0
O483 O 0.60476 0.22972 0.19733 0.0
O484 O 0.60883 0.18847 0.23829 0.0
N485 N 0.68103 0.07869 0.1609 0.0
C486 C 0.70434 0.08882 0.1355 0.0
C487 C 0.73895 0.07444 0.13535 0.0
C488 C 0.74907 0.04941 0.16096 0.0
C489 C 0.72438 0.03875 0.18635 0.0
C490 C 0.69029 0.05407 0.18524 0.0
H491 H 0.69672 0.10795 0.11566 0.0
O492 O 0.67262 0.18537 0.20061 0.0
O493 O 0.64482 0.13357 0.19506 0.0
O494 O 0.63151 0.17978 0.13666 0.0
O495 O 0.63252 0.12076 0.12295 0.0
C496 C 0.73227 0.01356 0.21272 0.0
C497 C 0.70611 0.00425 0.23753 0.0
H498 H 0.64972 0.99457 0.28181 0.0
H499 H 0.59151 0.02596 0.27667 0.0
H500 H 0.75779 0.08267 0.11555 0.0
H501 H 0.77582 0.03844 0.1608 0.0
H502 H 0.75841 0.00129 0.21426 0.0
H503 H 0.71259 0.98508 0.25787 0.0
Mn504 Mn 0.38356 0.67229 0.3023 0.0
Mn505 Mn 0.38384 0.58519 0.32757 0.0
C506 C 0.33475 0.63646 0.28967 0.0
C507 C 0.39935 0.71542 0.26069 0.0
C508 C 0.37272 0.64796 0.37726 0.0
O509 O 0.43519 0.66262 0.31365 0.0
O510 O 0.43469 0.60254 0.32358 0.0
C511 C 0.41518 0.54919 0.26576 0.0
N512 N 0.38721 0.55422 0.2877 0.0
C513 C 0.35166 0.51127 0.25579 0.0
C514 C 0.37992 0.50636 0.23243 0.0
C515 C 0.41191 0.52528 0.23757 0.0
C516 C 0.35654 0.53552 0.28339 0.0
H517 H 0.43979 0.56305 0.26999 0.0
C518 C 0.45085 0.63314 0.32104 0.0
O519 O 0.39384 0.72415 0.29301 0.0
O520 O 0.39567 0.68158 0.25301 0.0
N521 N 0.33663 0.56604 0.33254 0.0
C522 C 0.31234 0.5727 0.35814 0.0
C523 C 0.27916 0.55519 0.35735 0.0
C524 C 0.27138 0.53074 0.33046 0.0
C525 C 0.29712 0.52357 0.30494 0.0
C526 C 0.32986 0.5416 0.30728 0.0
H527 H 0.31804 0.59144 0.3789 0.0
O528 O 0.332 0.67132 0.28959 0.0
O529 O 0.36621 0.62378 0.2973 0.0
O530 O 0.37191 0.67302 0.35448 0.0
O531 O 0.3786 0.61486 0.37004 0.0
C532 C 0.29155 0.49927 0.27725 0.0
C533 C 0.3188 0.49313 0.25268 0.0
H534 H 0.37744 0.48797 0.21063 0.0
H535 H 0.43404 0.52136 0.21991 0.0
H536 H 0.25954 0.56072 0.37731 0.0
H537 H 0.24563 0.51754 0.32974 0.0
H538 H 0.26641 0.48515 0.27462 0.0
H539 H 0.31421 0.47439 0.23148 0.0
Mn540 Mn 0.12035 0.32416 0.81721 0.0
Mn541 Mn 0.11965 0.41012 0.84583 0.0
C542 C 0.16881 0.36109 0.80624 0.0
C543 C 0.10949 0.28383 0.77153 0.0
C544 C 0.13227 0.34541 0.89314 0.0
O545 O 0.06835 0.3323 0.82842 0.0
O546 O 0.06909 0.39194 0.84123 0.0
C547 C 0.08567 0.44929 0.78724 0.0
N548 N 0.11485 0.44252 0.80721 0.0
C549 C 0.14958 0.48576 0.77496 0.0
C550 C 0.12031 0.49181 0.75302 0.0
C551 C 0.08807 0.47379 0.75945 0.0
C552 C 0.14556 0.4609 0.80217 0.0
H553 H 0.06065 0.43672 0.79301 0.0
C554 C 0.05274 0.36175 0.83625 0.0
O555 O 0.11331 0.27252 0.80342 0.0
O556 O 0.10841 0.31835 0.76734 0.0
N557 N 0.16672 0.42978 0.85051 0.0
C558 C 0.19168 0.42274 0.87543 0.0
C559 C 0.22486 0.44023 0.87405 0.0
C560 C 0.23199 0.46489 0.84719 0.0
C561 C 0.20561 0.47236 0.82233 0.0
C562 C 0.1729 0.4544 0.82527 0.0
H563 H 0.18653 0.40363 0.89604 0.0
O564 O 0.17196 0.32639 0.80519 0.0
O565 O 0.13721 0.37309 0.81416 0.0
O566 O 0.13171 0.32107 0.86951 0.0
O567 O 0.12656 0.37882 0.88703 0.0
C568 C 0.21051 0.4969 0.79473 0.0
C569 C 0.18251 0.50359 0.77105 0.0
H570 H 0.12209 0.51074 0.73159 0.0
H571 H 0.06502 0.47902 0.74324 0.0
H572 H 0.245 0.43446 0.89347 0.0
H573 H 0.25775 0.47804 0.846 0.0
H574 H 0.23563 0.51092 0.79159 0.0
H575 H 0.1865 0.5227 0.75006 0.0
Mn576 Mn 0.67725 0.87854 0.83536 0.0
Mn577 Mn 0.64866 0.8745 0.9183 0.0
C578 C 0.69042 0.82763 0.86846 0.0
C579 C 0.72116 0.90008 0.79721 0.0
C580 C 0.60025 0.8643 0.8545 0.0
O581 O 0.66213 0.93009 0.84618 0.0
O582 O 0.65423 0.92605 0.90396 0.0
C583 C 0.71182 0.90604 0.95334 0.0
N584 N 0.68883 0.87793 0.94895 0.0
C585 C 0.72111 0.84187 0.9905 0.0
C586 C 0.74499 0.87048 0.99553 0.0
C587 C 0.74034 0.90268 0.97684 0.0
C588 C 0.69321 0.84677 0.96669 0.0
H589 H 0.70862 0.93077 0.93884 0.0
C590 C 0.65778 0.94459 0.87596 0.0
O591 O 0.68909 0.89268 0.78654 0.0
O592 O 0.72757 0.89393 0.82985 0.0
N593 N 0.64361 0.82644 0.93599 0.0
C594 C 0.61662 0.8026 0.93055 0.0
C595 C 0.61748 0.76875 0.9469 0.0
C596 C 0.64537 0.76035 0.96992 0.0
C597 C 0.67149 0.78633 0.97715 0.0
C598 C 0.66926 0.81952 0.95985 0.0
H599 H 0.59414 0.80986 0.91475 0.0
O600 O 0.69287 0.82676 0.83476 0.0
O601 O 0.6807 0.85849 0.88143 0.0
O602 O 0.62488 0.8643 0.83158 0.0
O603 O 0.60579 0.86946 0.88722 0.0
C604 C 0.6994 0.78076 1.00113 0.0
C605 C 0.72419 0.80852 0.00782 0.0
H606 H 0.76711 0.86794 0.01353 0.0
H607 H 0.75877 0.92483 0.98044 0.0
H608 H 0.59642 0.74941 0.94217 0.0
H609 H 0.64595 0.73425 0.98257 0.0
H610 H 0.70197 0.75528 0.01469 0.0
H611 H 0.7456 0.80389 0.02623 0.0
Mn612 Mn 0.8317 0.12452 0.33306 0.0
Mn613 Mn 0.84614 0.12368 0.41952 0.0
C614 C 0.81663 0.17446 0.366 0.0
C615 C 0.7935 0.11358 0.28569 0.0
C616 C 0.9058 0.12817 0.3657 0.0
O617 O 0.83714 0.07096 0.34489 0.0
O618 O 0.83831 0.07328 0.40388 0.0
C619 C 0.77662 0.09853 0.44646 0.0
N620 N 0.80234 0.12442 0.44484 0.0
C621 C 0.77048 0.16212 0.48518 0.0
C622 C 0.74371 0.13583 0.48737 0.0
C623 C 0.74676 0.10394 0.46786 0.0
C624 C 0.79977 0.15511 0.46364 0.0
H625 H 0.77882 0.07401 0.43145 0.0
C626 C 0.83692 0.05598 0.37498 0.0
O627 O 0.82784 0.11466 0.28175 0.0
O628 O 0.78199 0.11672 0.31735 0.0
N629 N 0.85304 0.17162 0.43701 0.0
C630 C 0.87914 0.19585 0.4292 0.0
C631 C 0.87936 0.22967 0.44565 0.0
C632 C 0.85228 0.2386 0.46934 0.0
C633 C 0.82508 0.21368 0.4762 0.0
C634 C 0.82659 0.18015 0.45947 0.0
H635 H 0.89899 0.1899 0.40978 0.0
O636 O 0.82205 0.17765 0.33274 0.0
O637 O 0.82145 0.14237 0.37865 0.0
O638 O 0.88552 0.13289 0.3393 0.0
O639 O 0.8933 0.12258 0.39612 0.0
C640 C 0.79605 0.22116 0.4983 0.0
C641 C 0.76883 0.19535 0.50289 0.0
H642 H 0.72049 0.14003 0.50361 0.0
H643 H 0.72611 0.08361 0.46924 0.0
H644 H 0.89996 0.24909 0.43954 0.0
H645 H 0.85221 0.26494 0.48153 0.0
H646 H 0.79415 0.24689 0.51154 0.0
H647 H 0.74643 0.2016 0.5196 0.0
Mn648 Mn 0.17498 0.61208 0.16596 0.0
Mn649 Mn 0.15088 0.61445 0.08161 0.0
C650 C 0.18851 0.66242 0.1329 0.0
C651 C 0.21751 0.59516 0.20802 0.0
C652 C 0.09847 0.61823 0.14215 0.0
O653 O 0.16445 0.55967 0.15366 0.0
O654 O 0.1617 0.56342 0.09471 0.0
C655 C 0.21373 0.59143 0.04059 0.0
N656 N 0.19045 0.61769 0.05021 0.0
C657 C 0.21652 0.65928 0.00928 0.0
C658 C 0.24193 0.63319 1.00043 0.0
C659 C 0.24031 0.59897 0.01593 0.0
C660 C 0.19077 0.65018 0.03422 0.0
H661 H 0.21132 0.56471 0.05085 0.0
C662 C 0.1632 0.54533 0.12337 0.0
O663 O 0.18422 0.59997 0.21601 0.0
O664 O 0.22561 0.59986 0.17552 0.0
N665 N 0.1407 0.66309 0.06761 0.0
C666 C 0.1139 0.68522 0.0784 0.0
C667 C 0.1109 0.72 0.06429 0.0
C668 C 0.13557 0.73185 0.03933 0.0
C669 C 0.16292 0.70869 0.02857 0.0
C670 C 0.16441 0.67418 0.04336 0.0
H671 H 0.09522 0.67673 0.09802 0.0
O672 O 0.18795 0.66449 0.16667 0.0
O673 O 0.18071 0.63111 0.11993 0.0
O674 O 0.12144 0.62377 0.16616 0.0
O675 O 0.10771 0.61191 0.11087 0.0
C676 C 0.18893 0.71863 0.00394 0.0
C677 C 0.21566 0.6939 0.99422 0.0
H678 H 0.26241 0.63893 0.98134 0.0
H679 H 0.25914 0.57827 0.00849 0.0
H680 H 0.08981 0.73778 0.07292 0.0
H681 H 0.13338 0.75883 0.02876 0.0
H682 H 0.18859 0.74521 0.99226 0.0
H683 H 0.23542 0.70178 0.97512 0.0
Mn684 Mn 0.32339 0.38442 0.67587 0.0
Mn685 Mn 0.3443 0.37693 0.59051 0.0
C686 C 0.30946 0.33201 0.64552 0.0
C687 C 0.28202 0.40215 0.71913 0.0
C688 C 0.39895 0.37241 0.64925 0.0
O689 O 0.33309 0.43636 0.66076 0.0
O690 O 0.33811 0.42874 0.60256 0.0
C691 C 0.27789 0.40397 0.55799 0.0
N692 N 0.30224 0.37711 0.56238 0.0
C693 C 0.27155 0.33906 0.52136 0.0
C694 C 0.24625 0.36638 0.51628 0.0
C695 C 0.24936 0.3989 0.53479 0.0
C696 C 0.29937 0.34562 0.54487 0.0
H697 H 0.28019 0.42904 0.57213 0.0
C698 C 0.33558 0.44876 0.62969 0.0
O699 O 0.31577 0.3986 0.72578 0.0
O700 O 0.27275 0.39615 0.68711 0.0
N701 N 0.34995 0.32799 0.57561 0.0
C702 C 0.3762 0.30409 0.58392 0.0
C703 C 0.37628 0.26979 0.56843 0.0
C704 C 0.34965 0.26055 0.54427 0.0
C705 C 0.32329 0.28581 0.53565 0.0
C706 C 0.32461 0.31961 0.55188 0.0
H707 H 0.39681 0.31101 0.6024 0.0
O708 O 0.31128 0.33175 0.67929 0.0
O709 O 0.31614 0.36274 0.63086 0.0
O710 O 0.37714 0.37371 0.67477 0.0
O711 O 0.38936 0.37533 0.61736 0.0
C712 C 0.29566 0.2787 0.51172 0.0
C713 C 0.26987 0.30535 0.50449 0.0
H714 H 0.22413 0.36253 0.49849 0.0
H715 H 0.22983 0.42003 0.53116 0.0
H716 H 0.39677 0.25048 0.57516 0.0
H717 H 0.34969 0.234 0.53253 0.0
H718 H 0.29389 0.25277 0.49885 0.0
H719 H 0.24859 0.29946 0.48627 0.0
Mn720 Mn 0.82261 0.6724 0.89937 0.0
Mn721 Mn 0.91142 0.66134 0.89371 0.0
C722 C 0.85242 0.68841 0.84848 0.0
C723 C 0.77565 0.7119 0.91434 0.0
C724 C 0.85811 0.5995 0.88606 0.0
O725 O 0.83713 0.6641 0.95001 0.0
O726 O 0.89672 0.66271 0.94384 0.0
C727 C 0.93171 0.73194 0.92387 0.0
N728 N 0.93273 0.70809 0.89688 0.0
C729 C 0.96528 0.75009 0.86123 0.0
C730 C 0.96472 0.77501 0.8887 0.0
C731 C 0.94783 0.76589 0.92014 0.0
C732 C 0.94866 0.71672 0.86643 0.0
H733 H 0.91837 0.72528 0.94794 0.0
C734 C 0.86856 0.66208 0.96276 0.0
O735 O 0.7705 0.67732 0.91169 0.0
O736 O 0.80804 0.72258 0.90964 0.0
N737 N 0.92964 0.66041 0.84714 0.0
C738 C 0.92971 0.63253 0.82401 0.0
C739 C 0.94684 0.63668 0.79173 0.0
C740 C 0.96399 0.66929 0.7837 0.0
C741 C 0.96448 0.69722 0.80832 0.0
C742 C 0.94755 0.69125 0.84031 0.0
H743 H 0.91669 0.60733 0.83007 0.0
O744 O 0.81833 0.68301 0.84832 0.0
O745 O 0.86768 0.68419 0.87856 0.0
O746 O 0.82973 0.61839 0.88957 0.0
O747 O 0.88972 0.61268 0.88824 0.0
C748 C 0.98133 0.73062 0.80249 0.0
C749 C 0.98154 0.75714 0.82885 0.0
H750 H 0.97708 0.80125 0.88591 0.0
H751 H 0.94711 0.78506 0.9414 0.0
H752 H 0.94664 0.61486 0.773 0.0
H753 H 0.97686 0.67253 0.75865 0.0
H754 H 0.99429 0.73617 0.77785 0.0
H755 H 0.9945 0.78275 0.82403 0.0
Mn756 Mn 0.32311 0.81419 0.09882 0.0
Mn757 Mn 0.41111 0.83371 0.09878 0.0
C758 C 0.35749 0.8 0.14683 0.0
C759 C 0.27704 0.77412 0.08541 0.0
C760 C 0.35276 0.88972 0.10786 0.0
O761 O 0.33385 0.82329 0.04784 0.0
O762 O 0.39395 0.82887 0.04915 0.0
C763 C 0.44357 0.76739 0.06962 0.0
N764 N 0.43924 0.79064 0.09667 0.0
C765 C 0.48072 0.75696 0.13189 0.0
C766 C 0.48453 0.73199 0.10474 0.0
C767 C 0.46604 0.73738 0.07337 0.0
C768 C 0.45773 0.78623 0.12666 0.0
H769 H 0.43054 0.77215 0.04528 0.0
C770 C 0.3639 0.82745 0.03282 0.0
O771 O 0.27117 0.80838 0.08926 0.0
O772 O 0.30986 0.7637 0.08875 0.0
N773 N 0.43003 0.83895 0.14497 0.0
C774 C 0.42459 0.86621 0.16821 0.0
C775 C 0.44203 0.86547 0.20059 0.0
C776 C 0.46516 0.83693 0.20867 0.0
C777 C 0.471 0.80962 0.18408 0.0
C778 C 0.45301 0.81191 0.15214 0.0
H779 H 0.40684 0.88826 0.16228 0.0
O780 O 0.32314 0.80273 0.1496 0.0
O781 O 0.37057 0.80583 0.11597 0.0
O782 O 0.32621 0.86827 0.10852 0.0
O783 O 0.38484 0.87952 0.10272 0.0
C784 C 0.49397 0.78024 0.19002 0.0
C785 C 0.49886 0.75394 0.16392 0.0
H786 H 0.50191 0.70886 0.10755 0.0
H787 H 0.46935 0.71865 0.05199 0.0
H788 H 0.43751 0.88676 0.21935 0.0
H789 H 0.47837 0.83631 0.23378 0.0
H790 H 0.50805 0.77763 0.21455 0.0
H791 H 0.51664 0.73149 0.16876 0.0
Mn792 Mn 0.1765 0.17624 0.60942 0.0
Mn793 Mn 0.08841 0.15895 0.60614 0.0
C794 C 0.14093 0.18977 0.6569 0.0
C795 C 0.22311 0.21667 0.59883 0.0
C796 C 0.14455 0.1011 0.61879 0.0
O797 O 0.16803 0.16836 0.55757 0.0
O798 O 0.10882 0.15812 0.5582 0.0
C799 C 0.06891 0.22672 0.57005 0.0
N800 N 0.06607 0.20464 0.59829 0.0
C801 C 0.03076 0.24852 0.62896 0.0
C802 C 0.03331 0.27168 0.6002 0.0
C803 C 0.05244 0.2607 0.57061 0.0
C804 C 0.04792 0.21507 0.62696 0.0
H805 H 0.0839 0.21865 0.54738 0.0
C806 C 0.13861 0.16158 0.54229 0.0
O807 O 0.22903 0.1823 0.60204 0.0
O808 O 0.19018 0.22673 0.60123 0.0
N809 N 0.06442 0.15963 0.65016 0.0
C810 C 0.05913 0.13182 0.67267 0.0
C811 C 0.03906 0.13739 0.70308 0.0
C812 C 0.02329 0.17113 0.70921 0.0
C813 C 0.02643 0.19838 0.68409 0.0
C814 C 0.04664 0.19104 0.65426 0.0
H815 H 0.06935 0.10545 0.66691 0.0
O816 O 0.17506 0.18594 0.66045 0.0
O817 O 0.12886 0.18526 0.62541 0.0
O818 O 0.17137 0.12229 0.61794 0.0
O819 O 0.11196 0.11153 0.61561 0.0
C820 C 0.00943 0.2321 0.68696 0.0
C821 C 0.01178 0.25726 0.65948 0.0
H822 H 0.02063 0.29791 0.60053 0.0
H823 H 0.05462 0.27845 0.54833 0.0
H824 H 0.03543 0.11563 0.72152 0.0
H825 H 0.00784 0.17539 0.73267 0.0
H826 H 0.99402 0.23873 0.70993 0.0
H827 H 0.99839 0.283 0.66185 0.0
Mn828 Mn 0.67525 0.32483 0.39167 0.0
Mn829 Mn 0.58697 0.34284 0.39065 0.0
C830 C 0.64162 0.30993 0.34312 0.0
C831 C 0.72156 0.28505 0.40602 0.0
C832 C 0.64458 0.4002 0.38321 0.0
O833 O 0.66363 0.33352 0.44253 0.0
O834 O 0.60345 0.33807 0.44066 0.0
C835 C 0.55458 0.27618 0.41922 0.0
N836 N 0.55948 0.29928 0.39216 0.0
C837 C 0.51968 0.26464 0.3559 0.0
C838 C 0.51555 0.23969 0.38301 0.0
C839 C 0.53285 0.24566 0.41493 0.0
C840 C 0.54191 0.29442 0.36171 0.0
H841 H 0.56647 0.28149 0.44402 0.0
C842 C 0.63337 0.33705 0.45731 0.0
O843 O 0.72722 0.31936 0.40215 0.0
O844 O 0.68894 0.27442 0.40169 0.0
N845 N 0.56881 0.34786 0.34415 0.0
C846 C 0.57427 0.37526 0.32107 0.0
C847 C 0.55761 0.37417 0.28829 0.0
C848 C 0.53533 0.34509 0.27963 0.0
C849 C 0.52954 0.31759 0.30402 0.0
C850 C 0.54666 0.32026 0.33638 0.0
H851 H 0.59142 0.39768 0.32743 0.0
O852 O 0.67594 0.31348 0.34075 0.0
O853 O 0.62815 0.31573 0.37383 0.0
O854 O 0.67147 0.37914 0.38253 0.0
O855 O 0.61258 0.38917 0.3873 0.0
C856 C 0.50747 0.28761 0.29746 0.0
C857 C 0.50251 0.26117 0.3234 0.0
H858 H 0.49873 0.21618 0.37978 0.0
H859 H 0.52914 0.22703 0.43632 0.0
H860 H 0.56212 0.39559 0.26967 0.0
H861 H 0.52276 0.3442 0.25422 0.0
H862 H 0.49411 0.28468 0.27258 0.0
H863 H 0.48539 0.23829 0.3181 0.0
C864 C 0.09376 0.27104 0.19987 0.0
C865 C 0.12359 0.29469 0.19838 0.0
C866 C 0.13988 0.27899 0.25823 0.0
C867 C 0.11305 0.25188 0.25837 0.0
N868 N 0.05723 0.23084 0.2352 0.0
N869 N 0.16015 0.33481 0.23223 0.0
C870 C 0.08758 0.25076 0.23095 0.0
C871 C 0.14157 0.30327 0.22975 0.0
N872 N 0.07156 0.26775 0.17187 0.0
N873 N 0.16568 0.28003 0.28337 0.0
H874 H 0.16009 0.35378 0.21214 0.0
H875 H 0.17153 0.34391 0.25542 0.0
H876 H 0.16669 0.26259 0.30454 0.0
H877 H 0.18801 0.29666 0.28163 0.0
H878 H 0.05324 0.24689 0.16891 0.0
H879 H 0.07052 0.28687 0.15206 0.0
H880 H 0.03613 0.23062 0.21759 0.0
H881 H 0.05177 0.2169 0.25822 0.0
C882 C 0.33784 0.76151 0.72004 0.0
C883 C 0.37122 0.7574 0.73667 0.0
C884 C 0.38789 0.71195 0.69293 0.0
C885 C 0.35621 0.71998 0.67407 0.0
N886 N 0.30652 0.76068 0.66543 0.0
N887 N 0.42989 0.73128 0.73769 0.0
C888 C 0.33279 0.74718 0.68641 0.0
C889 C 0.39688 0.73324 0.72282 0.0
N890 N 0.31044 0.77841 0.73678 0.0
N891 N 0.40858 0.68344 0.68314 0.0
H892 H 0.4366 0.74573 0.76009 0.0
H893 H 0.45101 0.71706 0.72671 0.0
H894 H 0.40265 0.66743 0.66157 0.0
H895 H 0.43004 0.67412 0.69782 0.0
H896 H 0.28459 0.77956 0.72687 0.0
H897 H 0.31249 0.78696 0.7625 0.0
H898 H 0.29051 0.78243 0.67244 0.0
H899 H 0.30356 0.75328 0.63946 0.0
C900 C 0.59547 0.22544 0.76235 0.0
C901 C 0.62207 0.24159 0.7414 0.0
C902 C 0.6673 0.22646 0.78433 0.0
C903 C 0.64162 0.2073 0.8044 0.0
N904 N 0.58255 0.18123 0.8072 0.0
N905 N 0.68431 0.24583 0.72673 0.0
C906 C 0.60596 0.20449 0.79185 0.0
C907 C 0.65834 0.23764 0.75031 0.0
N908 N 0.56039 0.23066 0.75447 0.0
N909 N 0.699 0.23732 0.79853 0.0
H910 H 0.67847 0.25314 0.70112 0.0
H911 H 0.71127 0.24101 0.73147 0.0
H912 H 0.70521 0.23468 0.82486 0.0
H913 H 0.71696 0.2538 0.78527 0.0
H914 H 0.53969 0.22285 0.77091 0.0
H915 H 0.5523 0.24455 0.73215 0.0
H916 H 0.55716 0.17621 0.7973 0.0
H917 H 0.5898 0.16415 0.82757 0.0
C918 C 0.84184 0.75761 0.26247 0.0
C919 C 0.8775 0.75777 0.25098 0.0
C920 C 0.89288 0.79748 0.29993 0.0
C921 C 0.8586 0.79108 0.31473 0.0
N922 N 0.80508 0.75413 0.3134 0.0
N923 N 0.93835 0.77583 0.25979 0.0
C924 C 0.83419 0.76825 0.29688 0.0
C925 C 0.90356 0.77722 0.26997 0.0
N926 N 0.81522 0.74675 0.24062 0.0
N927 N 0.91463 0.82346 0.31345 0.0
H928 H 0.94629 0.76245 0.23715 0.0
H929 H 0.95917 0.7863 0.27468 0.0
H930 H 0.90714 0.83986 0.33424 0.0
H931 H 0.93856 0.83109 0.30184 0.0
H932 H 0.78833 0.74811 0.24738 0.0
H933 H 0.82 0.74123 0.21441 0.0
H934 H 0.78833 0.73522 0.30167 0.0
H935 H 0.80051 0.757 0.34004 0.0
C936 C 0.2635 0.09758 0.27542 0.0
C937 C 0.25691 0.08943 0.23998 0.0
C938 C 0.19347 0.10217 0.24805 0.0
C939 C 0.20098 0.11598 0.28192 0.0
N940 N 0.24405 0.12951 0.32697 0.0
N941 N 0.21404 0.06565 0.19966 0.0
C942 C 0.23623 0.11416 0.29548 0.0
C943 C 0.22128 0.0859 0.22852 0.0
N944 N 0.29474 0.08706 0.29055 0.0
N945 N 0.16079 0.10742 0.2331 0.0
H946 H 0.23395 0.0513 0.18672 0.0
H947 H 0.18831 0.05922 0.19155 0.0
H948 H 0.13974 0.12031 0.24559 0.0
H949 H 0.15533 0.10162 0.20709 0.0
H950 H 0.29998 0.08975 0.31709 0.0
H951 H 0.31297 0.0706 0.27765 0.0
H952 H 0.27 0.13308 0.336 0.0
H953 H 0.22467 0.14033 0.34339 0.0
C954 C 0.27113 0.89387 0.78621 0.0
C955 C 0.3067 0.88641 0.77603 0.0
C956 C 0.28643 0.87863 0.71613 0.0
C957 C 0.25125 0.88963 0.72535 0.0
N958 N 0.21509 0.9203 0.76847 0.0
N959 N 0.34897 0.88583 0.72838 0.0
C960 C 0.24507 0.90137 0.76018 0.0
C961 C 0.31465 0.88443 0.73999 0.0
N962 N 0.26177 0.89241 0.8205 0.0
N963 N 0.29299 0.85911 0.68661 0.0
H964 H 0.37062 0.89036 0.7447 0.0
H965 H 0.35522 0.88678 0.70191 0.0
H966 H 0.27311 0.84821 0.67092 0.0
H967 H 0.31809 0.84862 0.68087 0.0
H968 H 0.2354 0.89433 0.82885 0.0
H969 H 0.2802 0.88691 0.84014 0.0
H970 H 0.21099 0.93129 0.79316 0.0
H971 H 0.19688 0.929 0.74976 0.0
C972 C 0.71761 0.40006 0.77104 0.0
C973 C 0.75326 0.39534 0.76013 0.0
C974 C 0.73195 0.37851 0.70187 0.0
C975 C 0.69678 0.3755 0.7154 0.0
N976 N 0.65706 0.37975 0.76519 0.0
N977 N 0.79268 0.39954 0.71093 0.0
C978 C 0.68963 0.38593 0.75041 0.0
C979 C 0.76016 0.39035 0.72413 0.0
N980 N 0.71048 0.4195 0.80043 0.0
N981 N 0.7385 0.36869 0.66815 0.0
H982 H 0.81183 0.41284 0.72585 0.0
H983 H 0.79896 0.39881 0.68454 0.0
H984 H 0.7182 0.36183 0.65078 0.0
H985 H 0.76394 0.36592 0.65772 0.0
H986 H 0.68473 0.42609 0.80833 0.0
H987 H 0.73044 0.43332 0.8139 0.0
H988 H 0.65224 0.38304 0.79174 0.0
H989 H 0.63552 0.36864 0.75193 0.0
C990 C 0.81565 0.63037 0.26082 0.0
C991 C 0.80766 0.62853 0.22469 0.0
C992 C 0.7474 0.60891 0.23981 0.0
C993 C 0.75317 0.61886 0.2752 0.0
N994 N 0.792 0.65194 0.3149 0.0
N995 N 0.76229 0.62373 0.18026 0.0
C996 C 0.78719 0.63275 0.28482 0.0
C997 C 0.77241 0.62006 0.21422 0.0
N998 N 0.84997 0.6319 0.27254 0.0
N999 N 0.71885 0.58822 0.23053 0.0
H1000 H 0.77982 0.63216 0.1608 0.0
H1001 H 0.73589 0.62081 0.17219 0.0
H1002 H 0.70182 0.57659 0.2488 0.0
H1003 H 0.71509 0.57887 0.20516 0.0
H1004 H 0.85626 0.63056 0.29901 0.0
H1005 H 0.87206 0.63035 0.25635 0.0
H1006 H 0.81604 0.66463 0.32096 0.0
H1007 H 0.77125 0.66044 0.33085 0.0
C1008 C 0.27234 0.18774 0.1014 0.0
C1009 C 0.30293 0.19324 0.12267 0.0
C1010 C 0.28501 0.2562 0.13028 0.0
C1011 C 0.25681 0.25162 0.10588 0.0
N1012 N 0.23074 0.2144 0.06108 0.0
N1013 N 0.34345 0.23593 0.14859 0.0
C1014 C 0.25367 0.21808 0.0884 0.0
C1015 C 0.3113 0.22879 0.13348 0.0
N1016 N 0.25781 0.15424 0.09732 0.0
N1017 N 0.28463 0.28405 0.15348 0.0
H1018 H 0.36311 0.2162 0.1512 0.0
H1019 H 0.35148 0.26203 0.15503 0.0
H1020 H 0.26401 0.30274 0.15476 0.0
H1021 H 0.30307 0.28629 0.17372 0.0
H1022 H 0.23355 0.14996 0.08468 0.0
H1023 H 0.26731 0.1313 0.1098 0.0
H1024 H 0.22977 0.19118 0.04575 0.0
H1025 H 0.21512 0.2357 0.05233 0.0
C1026 C 0.81094 0.25908 0.87729 0.0
C1027 C 0.7995 0.29426 0.88708 0.0
C1028 C 0.75628 0.2657 0.92552 0.0
C1029 C 0.76026 0.23225 0.90831 0.0
N1030 N 0.79019 0.19935 0.86243 0.0
N1031 N 0.75215 0.32906 0.91388 0.0
C1032 C 0.78793 0.22904 0.88324 0.0
C1033 C 0.77003 0.29731 0.90997 0.0
N1034 N 0.84284 0.25458 0.86088 0.0
N1035 N 0.73717 0.26744 0.95546 0.0
H1036 H 0.75844 0.35235 0.9001 0.0
H1037 H 0.72866 0.33099 0.92828 0.0
H1038 H 0.72909 0.24379 0.96758 0.0
H1039 H 0.73386 0.29122 0.96959 0.0
H1040 H 0.85341 0.22919 0.85547 0.0
H1041 H 0.85999 0.27616 0.85609 0.0
H1042 H 0.8078 0.19763 0.8415 0.0
H1043 H 0.77263 0.17774 0.86426 0.0
C1044 C 0.71402 0.76888 0.39578 0.0
C1045 C 0.74286 0.76559 0.41968 0.0
C1046 C 0.73046 0.70099 0.424 0.0
C1047 C 0.69989 0.70494 0.40238 0.0
N1048 N 0.65633 0.74578 0.37875 0.0
N1049 N 0.76956 0.73028 0.46549 0.0
C1050 C 0.68911 0.74023 0.39303 0.0
C1051 C 0.74726 0.73239 0.43749 0.0
N1052 N 0.71257 0.79644 0.37228 0.0
N1053 N 0.74654 0.6683 0.42811 0.0
H1054 H 0.7825 0.75298 0.47551 0.0
H1055 H 0.77202 0.70689 0.4804 0.0
H1056 H 0.73774 0.64499 0.41577 0.0
H1057 H 0.77077 0.66525 0.44112 0.0
H1058 H 0.69345 0.79759 0.35257 0.0
H1059 H 0.73232 0.81592 0.36987 0.0
H1060 H 0.64659 0.77151 0.37326 0.0
H1061 H 0.63805 0.72481 0.37593 0.0
C1062 C 0.22613 0.79951 0.57375 0.0
C1063 C 0.19773 0.79672 0.598 0.0
C1064 C 0.20968 0.73232 0.60338 0.0
C1065 C 0.23615 0.73466 0.57692 0.0
N1066 N 0.25919 0.76893 0.52855 0.0
N1067 N 0.15506 0.75759 0.62598 0.0
C1068 C 0.23972 0.76758 0.55849 0.0
C1069 C 0.18635 0.7619 0.60843 0.0
N1070 N 0.24364 0.83131 0.56874 0.0
N1071 N 0.2097 0.70501 0.62719 0.0
H1072 H 0.13807 0.77919 0.63122 0.0
H1073 H 0.14487 0.73219 0.63212 0.0
H1074 H 0.22914 0.68514 0.62822 0.0
H1075 H 0.19254 0.70455 0.64854 0.0
H1076 H 0.26653 0.83329 0.55346 0.0
H1077 H 0.23769 0.8547 0.58251 0.0
H1078 H 0.26121 0.79232 0.51358 0.0
H1079 H 0.27027 0.7458 0.51745 0.0
C1080 C 0.87345 0.69751 0.78656 0.0
C1081 C 0.86766 0.71131 0.82061 0.0
C1082 C 0.86766 0.77192 0.79672 0.0
C1083 C 0.88075 0.75904 0.76417 0.0
N1084 N 0.90265 0.70792 0.73122 0.0
N1085 N 0.86743 0.76346 0.85874 0.0
C1086 C 0.88565 0.72126 0.75985 0.0
C1087 C 0.86839 0.74903 0.82601 0.0
N1088 N 0.86672 0.66212 0.77944 0.0
N1089 N 0.85034 0.80425 0.79921 0.0
H1090 H 0.86702 0.74805 0.88136 0.0
H1091 H 0.87072 0.79101 0.86319 0.0
H1092 H 0.84218 0.81897 0.77752 0.0
H1093 H 0.83853 0.81321 0.82223 0.0
H1094 H 0.86733 0.65165 0.75423 0.0
H1095 H 0.85833 0.64394 0.79849 0.0
H1096 H 0.90854 0.68063 0.72828 0.0
H1097 H 0.91448 0.72436 0.71252 0.0
C1098 C 0.60657 0.28579 0.25266 0.0
C1099 C 0.59722 0.24926 0.25828 0.0
C1100 C 0.60747 0.25622 0.32085 0.0
C1101 C 0.62205 0.29112 0.31477 0.0
N1102 N 0.63658 0.33909 0.27473 0.0
N1103 N 0.57078 0.20766 0.29846 0.0
C1104 C 0.62156 0.30607 0.28063 0.0
C1105 C 0.59185 0.23708 0.29274 0.0
N1106 N 0.59877 0.30171 0.22152 0.0
N1107 N 0.61112 0.23988 0.3526 0.0
H1108 H 0.55723 0.19491 0.27815 0.0
H1109 H 0.56312 0.19907 0.32319 0.0
H1110 H 0.62332 0.25193 0.37399 0.0
H1111 H 0.60463 0.21296 0.35702 0.0
H1112 H 0.6025 0.32903 0.21653 0.0
H1113 H 0.58362 0.28872 0.20251 0.0
H1114 H 0.64115 0.34948 0.24994 0.0
H1115 H 0.646 0.35557 0.29476 0.0
C1116 C 0.39336 0.77897 0.23738 0.0
C1117 C 0.40358 0.74266 0.2323 0.0
C1118 C 0.39353 0.74811 0.16973 0.0
C1119 C 0.37785 0.78258 0.17527 0.0
N1120 N 0.36232 0.83109 0.21436 0.0
N1121 N 0.43214 0.70161 0.19296 0.0
C1122 C 0.378 0.79831 0.20909 0.0
C1123 C 0.4098 0.73015 0.19812 0.0
N1124 N 0.40066 0.79553 0.26833 0.0
N1125 N 0.39033 0.731 0.1383 0.0
H1126 H 0.44631 0.68997 0.21352 0.0
H1127 H 0.44011 0.69285 0.16838 0.0
H1128 H 0.37756 0.74214 0.11677 0.0
H1129 H 0.39784 0.70428 0.13438 0.0
H1130 H 0.39626 0.82282 0.27297 0.0
H1131 H 0.41595 0.78312 0.2876 0.0
H1132 H 0.35752 0.84192 0.23894 0.0
H1133 H 0.35273 0.84694 0.19398 0.0
C1134 C 0.11431 0.19813 0.7166 0.0
C1135 C 0.12258 0.21224 0.68324 0.0
C1136 C 0.12504 0.27239 0.7082 0.0
C1137 C 0.11163 0.25925 0.74063 0.0
N1138 N 0.08315 0.20945 0.77057 0.0
N1139 N 0.12491 0.26473 0.64589 0.0
C1140 C 0.10285 0.22204 0.74331 0.0
C1141 C 0.12321 0.25003 0.67845 0.0
N1142 N 0.11853 0.16229 0.72329 0.0
N1143 N 0.14371 0.304 0.70607 0.0
H1144 H 0.12438 0.24938 0.6232 0.0
H1145 H 0.12292 0.29245 0.64168 0.0
H1146 H 0.15297 0.3181 0.7277 0.0
H1147 H 0.15557 0.31283 0.68303 0.0
H1148 H 0.11589 0.1514 0.7482 0.0
H1149 H 0.12698 0.14414 0.70428 0.0
H1150 H 0.07458 0.18275 0.77213 0.0
H1151 H 0.0716 0.22646 0.78899 0.0
C1152 C 0.74544 0.90807 0.7364 0.0
C1153 C 0.75064 0.91004 0.77279 0.0
C1154 C 0.81474 0.90201 0.76521 0.0
C1155 C 0.80857 0.8924 0.72982 0.0
N1156 N 0.76807 0.88622 0.68131 0.0
N1157 N 0.79132 0.93062 0.81702 0.0
C1158 C 0.77401 0.89622 0.71506 0.0
C1159 C 0.78573 0.91405 0.78574 0.0
N1160 N 0.71392 0.9192 0.7223 0.0
N1161 N 0.84734 0.89656 0.78024 0.0
H1162 H 0.77056 0.94209 0.83119 0.0
H1163 H 0.81654 0.93728 0.82641 0.0
H1164 H 0.86965 0.88786 0.76654 0.0
H1165 H 0.85178 0.89849 0.80697 0.0
H1166 H 0.70935 0.92095 0.69558 0.0
H1167 H 0.69425 0.93148 0.73739 0.0
H1168 H 0.74279 0.88439 0.67022 0.0
H1169 H 0.78854 0.8776 0.66502 0.0
C1170 C 0.70242 0.11309 0.24897 0.0
C1171 C 0.70611 0.13322 0.21776 0.0
C1172 C 0.77135 0.13257 0.22508 0.0
C1173 C 0.7671 0.11222 0.25633 0.0
N1174 N 0.73046 0.07026 0.28759 0.0
N1175 N 0.74407 0.15559 0.17207 0.0
C1176 C 0.73314 0.09802 0.26449 0.0
C1177 C 0.74066 0.14075 0.20448 0.0
N1178 N 0.67024 0.11038 0.26542 0.0
N1179 N 0.80399 0.14559 0.21568 0.0
H1180 H 0.72214 0.16202 0.15657 0.0
H1181 H 0.76834 0.15827 0.15919 0.0
H1182 H 0.82778 0.13693 0.22666 0.0
H1183 H 0.80752 0.16547 0.19684 0.0
H1184 H 0.66735 0.09881 0.29 0.0
H1185 H 0.64703 0.12258 0.25635 0.0
H1186 H 0.70643 0.05789 0.29406 0.0
H1187 H 0.75315 0.05695 0.29649 0.0
C1188 C 0.31099 0.59777 0.24087 0.0
C1189 C 0.30559 0.61482 0.2737 0.0
C1190 C 0.24145 0.60143 0.26963 0.0
C1191 C 0.24646 0.59051 0.23466 0.0
N1192 N 0.28591 0.5597 0.19563 0.0
N1193 N 0.26557 0.63312 0.31955 0.0
C1194 C 0.28134 0.58265 0.22307 0.0
C1195 C 0.27079 0.61624 0.28836 0.0
N1196 N 0.34363 0.59875 0.22509 0.0
N1197 N 0.2095 0.59541 0.28556 0.0
H1198 H 0.28665 0.64225 0.33484 0.0
H1199 H 0.24052 0.6393 0.32953 0.0
H1200 H 0.18932 0.58045 0.27372 0.0
H1201 H 0.20489 0.60034 0.31188 0.0
H1202 H 0.34782 0.59055 0.19946 0.0
H1203 H 0.36619 0.61009 0.23645 0.0
H1204 H 0.31073 0.55017 0.18771 0.0
H1205 H 0.26436 0.54665 0.18385 0.0
C1206 C 0.26077 0.39629 0.78188 0.0
C1207 C 0.25409 0.4066 0.74694 0.0
C1208 C 0.18986 0.39932 0.75627 0.0
C1209 C 0.19691 0.38299 0.78911 0.0
N1210 N 0.23927 0.36482 0.83307 0.0
N1211 N 0.21231 0.43634 0.70939 0.0
C1212 C 0.23242 0.38166 0.80211 0.0
C1213 C 0.21854 0.41394 0.73684 0.0
N1214 N 0.29339 0.40269 0.79638 0.0
N1215 N 0.15649 0.3981 0.74194 0.0
H1216 H 0.23312 0.44928 0.69669 0.0
H1217 H 0.18712 0.44586 0.70262 0.0
H1218 H 0.13429 0.38761 0.75457 0.0
H1219 H 0.15119 0.4052 0.71619 0.0
H1220 H 0.29915 0.39823 0.82258 0.0
H1221 H 0.31294 0.41759 0.78358 0.0
H1222 H 0.26487 0.35875 0.84179 0.0
H1223 H 0.21912 0.35538 0.84938 0.0
C1224 C 0.71214 0.73321 0.90265 0.0
C1225 C 0.74656 0.73966 0.91651 0.0
C1226 C 0.73914 0.80462 0.90762 0.0
C1227 C 0.7068 0.79809 0.88932 0.0
N1228 N 0.66239 0.75623 0.8687 0.0
N1229 N 0.78291 0.7815 0.94828 0.0
C1230 C 0.69298 0.76238 0.88709 0.0
C1231 C 0.75671 0.77551 0.92427 0.0
N1232 N 0.69711 0.69991 0.90614 0.0
N1233 N 0.75483 0.83789 0.90677 0.0
H1234 H 0.79435 0.76035 0.96227 0.0
H1235 H 0.78984 0.80704 0.95734 0.0
H1236 H 0.74371 0.86012 0.89428 0.0
H1237 H 0.78042 0.84283 0.91618 0.0
H1238 H 0.67111 0.6938 0.89873 0.0
H1239 H 0.70897 0.67964 0.92093 0.0
H1240 H 0.65285 0.73066 0.86254 0.0
H1241 H 0.64738 0.77704 0.8579 0.0
C1242 C 0.23925 0.68271 0.09508 0.0
C1243 C 0.20673 0.69085 0.11251 0.0
C1244 C 0.21331 0.75453 0.09615 0.0
C1245 C 0.24789 0.74674 0.08353 0.0
N1246 N 0.28394 0.70309 0.054 0.0
N1247 N 0.16291 0.73458 0.13071 0.0
C1248 C 0.25758 0.71057 0.07742 0.0
C1249 C 0.19355 0.72678 0.11303 0.0
N1250 N 0.25437 0.64927 0.09772 0.0
N1251 N 0.19856 0.7875 0.08981 0.0
H1252 H 0.14685 0.71478 0.14193 0.0
H1253 H 0.15423 0.76073 0.13567 0.0
H1254 H 0.21082 0.80636 0.07365 0.0
H1255 H 0.1724 0.79417 0.09609 0.0
H1256 H 0.2799 0.64342 0.08871 0.0
H1257 H 0.24312 0.62799 0.11152 0.0
H1258 H 0.29058 0.67705 0.04621 0.0
H1259 H 0.29589 0.72338 0.03918 0.0
C1260 C 0.3054 0.26661 0.62799 0.0
C1261 C 0.2913 0.30219 0.62684 0.0
C1262 C 0.24115 0.28064 0.5918 0.0
C1263 C 0.25176 0.24472 0.59814 0.0
N1264 N 0.30159 0.20498 0.60665 0.0
N1265 N 0.24205 0.34188 0.61248 0.0
C1266 C 0.28625 0.23792 0.61169 0.0
C1267 C 0.25841 0.30906 0.60963 0.0
N1268 N 0.3365 0.26017 0.64549 0.0
N1269 N 0.21487 0.28742 0.56803 0.0
H1270 H 0.25251 0.36339 0.62658 0.0
H1271 H 0.21628 0.34677 0.60356 0.0
H1272 H 0.20403 0.26695 0.55259 0.0
H1273 H 0.20722 0.31327 0.56054 0.0
H1274 H 0.34611 0.23448 0.65097 0.0
H1275 H 0.35214 0.28074 0.65598 0.0
H1276 H 0.32763 0.19876 0.61379 0.0
H1277 H 0.29 0.1854 0.5908 0.0
C1278 C 0.74116 0.22144 0.41427 0.0
C1279 C 0.75086 0.25785 0.4095 0.0
C1280 C 0.80849 0.23877 0.38577 0.0
C1281 C 0.7958 0.20261 0.38454 0.0
N1282 N 0.74641 0.16098 0.39245 0.0
N1283 N 0.8 0.29941 0.40831 0.0
C1284 C 0.76141 0.19411 0.39795 0.0
C1285 C 0.7865 0.26621 0.40045 0.0
N1286 N 0.71293 0.21311 0.43521 0.0
N1287 N 0.84091 0.2471 0.37167 0.0
H1288 H 0.78578 0.31805 0.42312 0.0
H1289 H 0.82657 0.30656 0.40478 0.0
H1290 H 0.85848 0.22759 0.36232 0.0
H1291 H 0.84977 0.27338 0.36776 0.0
H1292 H 0.70585 0.18679 0.44165 0.0
H1293 H 0.69969 0.23281 0.44971 0.0
H1294 H 0.71994 0.15516 0.39841 0.0
H1295 H 0.75884 0.1402 0.37895 0.0
C1296 C 0.13782 0.18497 0.48087 0.0
C1297 C 0.13874 0.15549 0.5041 0.0
C1298 C 0.14095 0.11396 0.45452 0.0
C1299 C 0.13565 0.14338 0.43058 0.0
N1300 N 0.11484 0.20556 0.42593 0.0
N1301 N 0.13145 0.09165 0.51304 0.0
C1302 C 0.13033 0.17867 0.44503 0.0
C1303 C 0.13716 0.11998 0.49092 0.0
N1304 N 0.14295 0.21921 0.49301 0.0
N1305 N 0.15098 0.08037 0.44365 0.0
H1306 H 0.12892 0.09463 0.53991 0.0
H1307 H 0.12578 0.06564 0.5043 0.0
H1308 H 0.15972 0.06053 0.46091 0.0
H1309 H 0.15401 0.07229 0.41812 0.0
H1310 H 0.14593 0.2413 0.47645 0.0
H1311 H 0.14735 0.22498 0.51927 0.0
H1312 H 0.10823 0.23055 0.43656 0.0
H1313 H 0.10332 0.20164 0.40158 0.0
C1314 C 0.38569 0.80915 0.97345 0.0
C1315 C 0.36382 0.83159 0.99419 0.0
C1316 C 0.34177 0.85964 0.94064 0.0
C1317 C 0.37024 0.84411 0.92164 0.0
N1318 N 0.4226 0.80626 0.9222 0.0
N1319 N 0.32255 0.88183 0.99666 0.0
C1320 C 0.39321 0.81938 0.93866 0.0
C1321 C 0.34211 0.85789 0.9776 0.0
N1322 N 0.39674 0.77666 0.98589 0.0
N1323 N 0.31319 0.87373 0.92346 0.0
H1324 H 0.3225 0.88232 0.0238 0.0
H1325 H 0.30895 0.90332 0.98523 0.0
H1326 H 0.31073 0.87198 0.89642 0.0
H1327 H 0.29042 0.8829 0.93624 0.0
H1328 H 0.4111 0.75828 0.97087 0.0
H1329 H 0.3865 0.76621 0.00905 0.0
H1330 H 0.44147 0.79021 0.93476 0.0
H1331 H 0.42968 0.81464 0.89732 0.0
C1332 C 0.65541 0.36695 0.51261 0.0
C1333 C 0.63335 0.3409 0.49604 0.0
C1334 C 0.60714 0.32607 0.55261 0.0
C1335 C 0.63164 0.34948 0.56956 0.0
N1336 N 0.68839 0.37936 0.56528 0.0
N1337 N 0.60095 0.2855 0.50391 0.0
C1338 C 0.65845 0.36652 0.5495 0.0
C1339 C 0.61257 0.31754 0.51698 0.0
N1340 N 0.67316 0.39231 0.49357 0.0
N1341 N 0.57854 0.31221 0.57002 0.0
H1342 H 0.61021 0.27588 0.48005 0.0
H1343 H 0.58741 0.2665 0.51893 0.0
H1344 H 0.57265 0.31873 0.5958 0.0
H1345 H 0.55883 0.29716 0.5575 0.0
H1346 H 0.68729 0.41335 0.50521 0.0
H1347 H 0.67089 0.39443 0.46657 0.0
H1348 H 0.70986 0.39 0.55143 0.0
H1349 H 0.69365 0.37404 0.59146 0.0
C1350 C 0.8488 0.67364 0.0599 0.0
C1351 C 0.87534 0.65169 0.07552 0.0
C1352 C 0.89736 0.63532 0.01735 0.0
C1353 C 0.87265 0.6597 0.00169 0.0
N1354 N 0.83327 0.71047 0.01022 0.0
N1355 N 0.93074 0.61918 0.06893 0.0
C1356 C 0.85075 0.6813 0.02361 0.0
C1357 C 0.90132 0.63475 0.0542 0.0
N1358 N 0.82091 0.68617 0.07929 0.0
N1359 N 0.91622 0.61145 0.99755 0.0
H1360 H 0.93523 0.61832 0.0957 0.0
H1361 H 0.95257 0.61044 0.05443 0.0
H1362 H 0.91553 0.61087 0.97059 0.0
H1363 H 0.93058 0.59006 0.00818 0.0
H1364 H 0.79908 0.69932 0.0683 0.0
H1365 H 0.81775 0.6802 0.10565 0.0
H1366 H 0.81937 0.72884 0.02563 0.0
H1367 H 0.83654 0.71889 0.98452 0.0
C1368 C 0.46859 0.0898 0.14962 0.0
C1369 C 0.4453 0.11668 0.16245 0.0
C1370 C 0.49618 0.14553 0.19097 0.0
C1371 C 0.52009 0.12357 0.17147 0.0
N1372 N 0.5266 0.07855 0.12562 0.0
N1373 N 0.43855 0.17448 0.19104 0.0
C1374 C 0.50573 0.09654 0.14903 0.0
C1375 C 0.45943 0.1458 0.18208 0.0
N1376 N 0.45536 0.05736 0.13888 0.0
N1377 N 0.50802 0.16487 0.21897 0.0
H1378 H 0.41185 0.1767 0.18391 0.0
H1379 H 0.4489 0.19772 0.20252 0.0
H1380 H 0.53392 0.16264 0.22854 0.0
H1381 H 0.49092 0.17914 0.23533 0.0
H1382 H 0.47166 0.03585 0.1317 0.0
H1383 H 0.42852 0.05065 0.14171 0.0
H1384 H 0.51599 0.06113 0.10696 0.0
H1385 H 0.55348 0.08389 0.1217 0.0
C1386 C 0.01439 0.86633 0.69154 0.0
C1387 C 0.9876 0.86433 0.66575 0.0
C1388 C 0.03301 0.86567 0.62005 0.0
C1389 C 0.06038 0.87118 0.64592 0.0
N1390 N 0.07251 0.89 0.70539 0.0
N1391 N 0.97048 0.87018 0.60553 0.0
C1392 C 0.04987 0.87494 0.68153 0.0
C1393 C 0.99667 0.8663 0.63013 0.0
N1394 N 0.0059 0.86089 0.72574 0.0
N1395 N 0.04056 0.85896 0.58579 0.0
H1396 H 0.94339 0.8696 0.61135 0.0
H1397 H 0.97564 0.877 0.57967 0.0
H1398 H 0.02198 0.84749 0.56886 0.0
H1399 H 0.06459 0.86335 0.57344 0.0
H1400 H 0.0251 0.85863 0.74528 0.0
H1401 H 0.97998 0.85535 0.734 0.0
H1402 H 0.06492 0.89592 0.73087 0.0
H1403 H 0.09687 0.90153 0.69873 0.0
C1404 C 0.99712 0.33704 0.86449 0.0
C1405 C 0.0133 0.36057 0.84 0.0
C1406 C 0.95501 0.38673 0.82685 0.0
C1407 C 0.93844 0.36157 0.84961 0.0
N1408 N 0.94341 0.30399 0.87802 0.0
N1409 N 0.00465 0.39545 0.78779 0.0
C1410 C 0.95939 0.33412 0.8651 0.0
C1411 C 0.99144 0.38197 0.81818 0.0
N1412 N 0.01742 0.31787 0.8875 0.0
N1413 N 0.93669 0.41573 0.81421 0.0
H1414 H 0.02983 0.38821 0.77866 0.0
H1415 H 0.98893 0.40921 0.76974 0.0
H1416 H 0.91029 0.42124 0.82067 0.0
H1417 H 0.94905 0.43617 0.79998 0.0
H1418 H 0.00634 0.30289 0.90777 0.0
H1419 H 0.04516 0.31951 0.88826 0.0
H1420 H 0.95765 0.28191 0.88746 0.0
H1421 H 0.91627 0.29929 0.87445 0.0
C1422 C 0.51384 0.61112 0.31253 0.0
C1423 C 0.48974 0.63515 0.32887 0.0
C1424 C 0.54055 0.66414 0.35752 0.0
C1425 C 0.56258 0.63486 0.34802 0.0
N1426 N 0.56889 0.57784 0.3181 0.0
N1427 N 0.48083 0.683 0.37129 0.0
C1428 C 0.54884 0.6074 0.32607 0.0
C1429 C 0.50322 0.66136 0.3526 0.0
N1430 N 0.50451 0.59456 0.2822 0.0
N1431 N 0.55535 0.69549 0.36911 0.0
H1432 H 0.45318 0.68179 0.3695 0.0
H1433 H 0.4899 0.69988 0.39115 0.0
H1434 H 0.58285 0.69925 0.36969 0.0
H1435 H 0.54052 0.71877 0.37372 0.0
H1436 H 0.52192 0.57832 0.26803 0.0
H1437 H 0.48167 0.60228 0.26868 0.0
H1438 H 0.55855 0.55576 0.30464 0.0
H1439 H 0.59478 0.57416 0.32736 0.0
C1440 C 0.15212 0.44351 0.13719 0.0
C1441 C 0.17506 0.4304 0.11035 0.0
C1442 C 0.19425 0.49187 0.09897 0.0
C1443 C 0.16743 0.50565 0.12085 0.0
N1444 N 0.11602 0.49389 0.15694 0.0
N1445 N 0.20606 0.44589 0.05682 0.0
C1446 C 0.14473 0.48129 0.13885 0.0
C1447 C 0.19227 0.45577 0.08832 0.0
N1448 N 0.13895 0.42092 0.16213 0.0
N1449 N 0.2231 0.51227 0.0903 0.0
H1450 H 0.20179 0.42043 0.046 0.0
H1451 H 0.21742 0.46462 0.03983 0.0
H1452 H 0.22755 0.53763 0.10132 0.0
H1453 H 0.24434 0.50196 0.07586 0.0
H1454 H 0.125 0.43021 0.18382 0.0
H1455 H 0.14484 0.39358 0.16329 0.0
H1456 H 0.09689 0.4769 0.16781 0.0
H1457 H 0.10964 0.52122 0.15829 0.0
C1458 C 0.638 0.00271 0.90463 0.0
C1459 C 0.65892 0.98497 0.8789 0.0
C1460 C 0.68225 0.04418 0.86123 0.0
C1461 C 0.66783 0.05987 0.89164 0.0
N1462 N 0.63566 0.05237 0.94543 0.0
N1463 N 0.70806 0.99026 0.83779 0.0
C1464 C 0.64664 0.03869 0.91427 0.0
C1465 C 0.68265 0.00608 0.85808 0.0
N1466 N 0.60922 0.98584 0.91906 0.0
N1467 N 0.69653 0.06547 0.83578 0.0
H1468 H 0.71297 0.96278 0.83778 0.0
H1469 H 0.72767 0.00489 0.82473 0.0
H1470 H 0.69705 0.09355 0.83749 0.0
H1471 H 0.70462 0.05532 0.81171 0.0
H1472 H 0.59178 0.99879 0.93609 0.0
H1473 H 0.60025 0.96068 0.91063 0.0
H1474 H 0.62286 0.03685 0.9643 0.0
H1475 H 0.64242 0.07828 0.95349 0.0
C1476 C 0.85847 0.99538 0.39515 0.0
C1477 C 0.83267 0.01632 0.37721 0.0
C1478 C 0.79842 0.96168 0.36517 0.0
C1479 C 0.82025 0.9421 0.38845 0.0
N1480 N 0.87036 0.94097 0.42811 0.0
N1481 N 0.77378 0.02005 0.35202 0.0
C1482 C 0.85039 0.95898 0.40394 0.0
C1483 C 0.80153 -0.00033 0.36381 0.0
N1484 N 0.89083 0.01009 0.40328 0.0
N1485 N 0.77558 0.9439 0.34348 0.0
H1486 H 0.77396 0.04815 0.35289 0.0
H1487 H 0.74924 0.00895 0.34505 0.0
H1488 H 0.77515 0.91581 0.34198 0.0
H1489 H 0.76079 0.95693 0.32422 0.0
H1490 H 0.91193 0.99515 0.41341 0.0
H1491 H 0.89769 0.03652 0.39674 0.0
H1492 H 0.88997 0.95337 0.44315 0.0
H1493 H 0.86567 0.91422 0.43506 0.0
C1494 C 0.30396 0.50742 0.64149 0.0
C1495 C 0.3316 0.48837 0.6241 0.0
C1496 C 0.34511 0.5431 0.59052 0.0
C1497 C 0.31964 0.56228 0.61048 0.0
N1498 N 0.28324 0.56535 0.6619 0.0
N1499 N 0.38319 0.49078 0.58625 0.0
C1500 C 0.30202 0.54531 0.63841 0.0
C1501 C 0.35373 0.50705 0.59992 0.0
N1502 N 0.27727 0.48928 0.658 0.0
N1503 N 0.35983 0.55863 0.56161 0.0
H1504 H 0.39026 0.46434 0.59184 0.0
H1505 H 0.40227 0.50451 0.57167 0.0
H1506 H 0.35447 0.58509 0.55411 0.0
H1507 H 0.37521 0.54446 0.54366 0.0
H1508 H 0.25498 0.50221 0.66831 0.0
H1509 H 0.27481 0.46137 0.65672 0.0
H1510 H 0.27211 0.55432 0.68439 0.0
H1511 H 0.28237 0.59347 0.66073 0.0
C1512 C 0.86306 0.82568 0.52951 0.0
C1513 C 0.8441 0.85367 0.51197 0.0
C1514 C 0.83533 0.88357 0.56761 0.0
C1515 C 0.85859 0.85951 0.58474 0.0
N1516 N 0.90137 0.81089 0.57839 0.0
N1517 N 0.82527 0.9161 0.51455 0.0
C1518 C 0.87471 0.8315 0.56465 0.0
C1519 C 0.83519 0.88511 0.53106 0.0
N1520 N 0.86832 0.79298 0.51403 0.0
N1521 N 0.81011 0.90185 0.5858 0.0
H1522 H 0.82644 0.91892 0.48752 0.0
H1523 H 0.81986 0.93981 0.52823 0.0
H1524 H 0.80496 0.89554 0.61171 0.0
H1525 H 0.79113 0.91824 0.57377 0.0
H1526 H 0.87862 0.77088 0.52746 0.0
H1527 H 0.85964 0.78675 0.48901 0.0
H1528 H 0.91595 0.79262 0.56349 0.0
H1529 H 0.91134 0.81446 0.60348 0.0
C1530 C 0.66768 0.19575 0.03007 0.0
C1531 C 0.65294 0.17181 0.00556 0.0
C1532 C 0.61584 0.14628 0.05179 0.0
C1533 C 0.63811 0.1632 0.07707 0.0
N1534 N 0.68811 0.20299 0.08906 0.0
N1535 N 0.60844 0.12764 0.99146 0.0
C1536 C 0.66461 0.18806 0.066 0.0
C1537 C 0.62537 0.14815 0.01588 0.0
N1538 N 0.68271 0.22697 0.01877 0.0
N1539 N 0.58497 0.12992 0.06201 0.0
H1540 H 0.6126 0.13143 0.96484 0.0
H1541 H 0.59113 0.10662 0.99759 0.0
H1542 H 0.57615 0.13068 0.08775 0.0
H1543 H 0.56634 0.11928 0.04471 0.0
H1544 H 0.69244 0.24681 0.03552 0.0
H1545 H 0.67949 0.23482 0.99289 0.0
H1546 H 0.70973 0.2186 0.08105 0.0
H1547 H 0.68824 0.19716 0.11557 0.0
C1548 C 0.32509 0.6604 0.41988 0.0
C1549 C 0.36175 0.65579 0.41358 0.0
C1550 C 0.37096 0.6471 0.47659 0.0
C1551 C 0.33324 0.647 0.4816 0.0
N1552 N 0.27765 0.63269 0.4511 0.0
N1553 N 0.41981 0.63986 0.43554 0.0
C1554 C 0.31092 0.64769 0.45147 0.0
C1555 C 0.3849 0.6479 0.44191 0.0
N1556 N 0.30316 0.67502 0.3953 0.0
N1557 N 0.39344 0.64452 0.50447 0.0
H1558 H 0.43083 0.64115 0.41066 0.0
H1559 H 0.43718 0.6299 0.4544 0.0
H1560 H 0.38487 0.63766 0.52941 0.0
H1561 H 0.42072 0.64948 0.5028 0.0
H1562 H 0.27628 0.68018 0.40023 0.0
H1563 H 0.31256 0.6858 0.37201 0.0
H1564 H 0.26212 0.63169 0.42854 0.0
H1565 H 0.26802 0.61573 0.47047 0.0
C1566 C 0.17834 0.30396 0.97256 0.0
C1567 C 0.16384 0.32525 0.99968 0.0
C1568 C 0.12136 0.35068 0.95777 0.0
C1569 C 0.14111 0.3353 0.9298 0.0
N1570 N 0.19343 0.30173 0.91167 0.0
N1571 N 0.12245 0.37134 0.01771 0.0
C1572 C 0.17079 0.3128 0.93739 0.0
C1573 C 0.13538 0.34918 0.99225 0.0
N1574 N 0.19854 0.27458 0.98036 0.0
N1575 N 0.08872 0.36572 0.95162 0.0
H1576 H 0.13157 0.37061 0.04337 0.0
H1577 H 0.10453 0.39217 0.01271 0.0
H1578 H 0.07678 0.36569 0.92707 0.0
H1579 H 0.07188 0.37448 0.97147 0.0
H1580 H 0.20717 0.25616 0.96165 0.0
H1581 H 0.20327 0.2669 0.00597 0.0
H1582 H 0.21729 0.28835 0.91691 0.0
H1583 H 0.19075 0.30907 0.88565 0.0
C1584 C 0.54372 0.82791 0.84844 0.0
C1585 C 0.56293 0.8601 0.84193 0.0
C1586 C 0.51239 0.88144 0.80758 0.0
C1587 C 0.49003 0.85528 0.82303 0.0
N1588 N 0.48638 0.79985 0.85669 0.0
N1589 N 0.56458 0.91879 0.81452 0.0
C1590 C 0.50619 0.82719 0.84292 0.0
C1591 C 0.54701 0.88732 0.82122 0.0
N1592 N 0.56165 0.79724 0.85711 0.0
N1593 N 0.50207 0.89762 0.77742 0.0
H1594 H 0.59006 0.92428 0.82404 0.0
H1595 H 0.55244 0.94036 0.80173 0.0
H1596 H 0.47947 0.88871 0.76403 0.0
H1597 H 0.51842 0.91524 0.76354 0.0
H1598 H 0.54946 0.77207 0.8592 0.0
H1599 H 0.58938 0.79637 0.85774 0.0
H1600 H 0.4965 0.78199 0.87519 0.0
H1601 H 0.45974 0.79547 0.85076 0.0
C1602 C 0.97116 0.14033 0.38482 0.0
C1603 C 0.94567 0.12719 0.35982 0.0
C1604 C 0.99397 0.11972 0.31693 0.0
C1605 C 0.01905 0.13265 0.34134 0.0
N1606 N 0.03253 0.15708 0.39789 0.0
N1607 N 0.93766 0.08977 0.30866 0.0
C1608 C 0.00788 0.14335 0.37513 0.0
C1609 C 0.95844 0.11288 0.32765 0.0
N1610 N 0.96144 0.14756 0.41849 0.0
N1611 N 0.00368 0.11534 0.2829 0.0
H1612 H 0.91322 0.08004 0.31755 0.0
H1613 H 0.94686 0.07615 0.2867 0.0
H1614 H 0.02907 0.12188 0.27383 0.0
H1615 H 0.9855 0.10936 0.26317 0.0
H1616 H 0.97935 0.15244 0.43862 0.0
H1617 H 0.93597 0.1459 0.42848 0.0
H1618 H 0.02634 0.17146 0.42034 0.0
H1619 H 0.05985 0.15583 0.39351 0.0
C1620 C 0.03429 0.63485 0.12545 0.0
C1621 C 0.0593 0.62139 0.15052 0.0
C1622 C 0.01284 0.62609 0.19578 0.0
C1623 C 0.98948 0.64153 0.17105 0.0
N1624 N 0.98141 0.67065 0.11563 0.0
N1625 N 0.067 0.59222 0.20629 0.0
C1626 C 0.00146 0.6493 0.13706 0.0
C1627 C 0.0472 0.61401 0.18504 0.0
N1628 N 0.03937 0.63046 0.09039 0.0
N1629 N 0.00255 0.62458 0.22988 0.0
H1630 H 0.08991 0.57901 0.19778 0.0
H1631 H 0.05854 0.58334 0.23064 0.0
H1632 H 0.97814 0.63492 0.23825 0.0
H1633 H 0.01929 0.61681 0.25017 0.0
H1634 H 0.0204 0.63775 0.07185 0.0
H1635 H 0.05861 0.61395 0.0794 0.0
H1636 H 0.99087 0.68076 0.09204 0.0
H1637 H 0.95682 0.68128 0.12293 0.0
C1638 C 0.46195 0.3913 0.63788 0.0
C1639 C 0.43794 0.36876 0.65624 0.0
C1640 C 0.48912 0.34048 0.68543 0.0
C1641 C 0.51277 0.35946 0.66295 0.0
N1642 N 0.51933 0.39446 0.6101 0.0
N1643 N 0.42968 0.31595 0.69234 0.0
C1644 C 0.49847 0.38226 0.63678 0.0
C1645 C 0.45173 0.34156 0.67862 0.0
N1646 N 0.45027 0.42248 0.62293 0.0
N1647 N 0.50181 0.32285 0.71412 0.0
H1648 H 0.40244 0.31496 0.68711 0.0
H1649 H 0.43913 0.29363 0.70601 0.0
H1650 H 0.52863 0.32274 0.72118 0.0
H1651 H 0.48514 0.31154 0.73289 0.0
H1652 H 0.46741 0.44108 0.61134 0.0
H1653 H 0.4244 0.43181 0.62664 0.0
H1654 H 0.50901 0.409 0.58912 0.0
H1655 H 0.54571 0.38631 0.60668 0.0
C1656 C 0.82867 0.54693 0.85471 0.0
C1657 C 0.85448 0.55998 0.87886 0.0
C1658 C 0.87756 0.49851 0.88453 0.0
C1659 C 0.84753 0.48476 0.86647 0.0
N1660 N 0.79046 0.49689 0.83928 0.0
N1661 N 0.89778 0.54497 0.92335 0.0
C1662 C 0.82193 0.50919 0.85269 0.0
C1663 C 0.87755 0.53491 0.89547 0.0
N1664 N 0.81158 0.57012 0.83267 0.0
N1665 N 0.90639 0.47701 0.89096 0.0
H1666 H 0.89561 0.57028 0.93465 0.0
H1667 H 0.91278 0.52675 0.93795 0.0
H1668 H 0.90818 0.45056 0.88187 0.0
H1669 H 0.93002 0.4869 0.90164 0.0
H1670 H 0.79486 0.56129 0.8127 0.0
H1671 H 0.81736 0.59758 0.83153 0.0
H1672 H 0.76975 0.5141 0.83209 0.0
H1673 H 0.78348 0.46973 0.83859 0.0
C1674 C 0.36408 0.95298 0.08901 0.0
C1675 C 0.34673 0.92898 0.11215 0.0
C1676 C 0.32116 0.9808 0.14291 0.0
C1677 C 0.34366 0.00435 0.12366 0.0
N1678 N 0.39357 0.01017 0.08364 0.0
N1679 N 0.31366 0.92056 0.16571 0.0
C1680 C 0.3671 0.98974 0.09814 0.0
C1681 C 0.32652 0.94293 0.14041 0.0
N1682 N 0.37696 0.94098 0.05778 0.0
N1683 N 0.29367 0.99418 0.16229 0.0
H1684 H 0.31763 0.89278 0.16561 0.0
H1685 H 0.30201 0.9301 0.18857 0.0
H1686 H 0.28727 0.02149 0.16307 0.0
H1687 H 0.27472 0.97776 0.17422 0.0
H1688 H 0.38683 0.95835 0.03872 0.0
H1689 H 0.37399 0.91445 0.04927 0.0
H1690 H 0.4132 0.99926 0.06759 0.0
H1691 H 0.39869 0.03679 0.09057 0.0
C1692 C 0.1346 0.00335 0.64587 0.0
C1693 C 0.16082 0.98632 0.62495 0.0
C1694 C 0.17663 0.04458 0.59957 0.0
C1695 C 0.15204 0.06192 0.62226 0.0
N1696 N 0.12005 0.05815 0.67648 0.0
N1697 N 0.2153 0.99303 0.59248 0.0
C1698 C 0.13455 0.04144 0.64826 0.0
C1699 C 0.18444 0.00761 0.60488 0.0
N1700 N 0.10897 0.98365 0.66246 0.0
N1701 N 0.19177 0.06268 0.57234 0.0
H1702 H 0.22333 0.96699 0.5991 0.0
H1703 H 0.23481 0.00819 0.57987 0.0
H1704 H 0.18665 0.08964 0.56674 0.0
H1705 H 0.20695 0.04978 0.55332 0.0
H1706 H 0.08771 0.99563 0.67556 0.0
H1707 H 0.10683 0.95574 0.66019 0.0
H1708 H 0.10913 0.0441 0.69745 0.0
H1709 H 0.1237 0.08563 0.68085 0.0
C1710 C 0.6297 0.46318 0.4019 0.0
C1711 C 0.65011 0.43988 0.38042 0.0
C1712 C 0.68043 0.49292 0.35605 0.0
C1713 C 0.65623 0.51586 0.37397 0.0
N1714 N 0.59978 0.52047 0.40418 0.0
N1715 N 0.68867 0.43404 0.33013 0.0
C1716 C 0.62835 0.50029 0.39389 0.0
C1717 C 0.67377 0.45508 0.35542 0.0
N1718 N 0.61277 0.45048 0.43093 0.0
N1719 N 0.71045 0.50661 0.34093 0.0
H1720 H 0.68295 0.40671 0.3273 0.0
H1721 H 0.7035 0.4447 0.30961 0.0
H1722 H 0.71742 0.53377 0.34213 0.0
H1723 H 0.73032 0.49029 0.33038 0.0
H1724 H 0.59992 0.46746 0.44856 0.0
H1725 H 0.6154 0.42402 0.43975 0.0
H1726 H 0.57769 0.50921 0.41658 0.0
H1727 H 0.5961 0.54716 0.3964 0.0
loop_
_geom_bond_atom_site_label_1
_geom_bond_atom_site_label_2
_geom_bond_distance
_geom_bond_site_symmetry_2
_ccdc_geom_bond_type
Mn0 O5 2.095 . S
Mn0 O15 2.162 . S
Mn0 O16 2.297 . S
Mn0 O24 2.385 . S
Mn0 O25 2.209 . S
Mn0 O26 2.094 . S
Mn1 O6 2.121 . S
Mn1 N8 2.257 . S
Mn1 N17 2.282 . S
Mn1 O25 2.215 . S
Mn1 O27 2.117 . S
C2 O24 1.234 . S
C2 O25 1.283 . S
C3 O15 1.281 . S
C3 O16 1.236 . S
C4 O26 1.240 . S
C4 O27 1.264 . S
O5 Mn0 2.095 . S
O5 C14 1.250 . S
O6 Mn1 2.121 . S
O6 C14 1.258 . S
C7 N8 1.326 . S
C7 C11 1.460 . S
C7 H13 0.929 . S
N8 Mn1 2.257 . S
N8 C7 1.326 . S
N8 C12 1.362 . S
C9 C10 1.258 1_545 S
C9 C12 1.431 . S
C9 C29 1.449 1_545 S
C10 C9 1.258 1_565 S
C10 C11 1.477 1_565 S
C10 H30 0.931 . S
C11 C7 1.460 . S
C11 C10 1.477 1_545 S
C11 H31 0.930 . S
C12 N8 1.362 . S
C12 C9 1.431 . S
C12 C22 1.476 . S
H13 C7 0.929 . S
C14 O5 1.250 . S
C14 O6 1.258 . S
O15 Mn0 2.162 . S
O15 C3 1.281 . S
O16 Mn0 2.297 . S
O16 C3 1.236 . S
N17 Mn1 2.282 . S
N17 C18 1.328 . S
N17 C22 1.318 . S
C18 N17 1.328 . S
C18 C19 1.457 . S
C18 H23 0.929 . S
C19 C18 1.457 . S
C19 C20 1.291 . S
C19 H32 0.931 . S
C20 C19 1.291 . S
C20 C21 1.373 . S
C20 H33 0.929 . S
C21 C20 1.373 . S
C21 C22 1.396 . S
C21 C28 1.403 . S
C22 C12 1.476 . S
C22 N17 1.318 . S
C22 C21 1.396 . S
H23 C18 0.929 . S
O24 Mn0 2.385 . S
O24 C2 1.234 . S
O25 Mn0 2.209 . S
O25 Mn1 2.215 . S
O25 C2 1.283 . S
O26 Mn0 2.094 . S
O26 C4 1.240 . S
O27 Mn1 2.117 . S
O27 C4 1.264 . S
C28 C21 1.403 . S
C28 C29 1.399 1_545 S
C28 H34 0.929 1_545 S
C29 C9 1.449 1_565 S
C29 C28 1.399 1_565 S
C29 H35 0.930 . S
H30 C10 0.931 . S
H31 C11 0.930 . S
H32 C19 0.931 . S
H33 C20 0.929 . S
H34 C28 0.929 1_565 S
H35 C29 0.930 . S
Mn36 O41 2.095 . S
Mn36 O51 2.162 . S
Mn36 O52 2.297 . S
Mn36 O60 2.385 . S
Mn36 O61 2.209 . S
Mn36 O62 2.094 . S
Mn37 O42 2.121 . S
Mn37 N44 2.257 . S
Mn37 N53 2.282 . S
Mn37 O61 2.215 . S
Mn37 O63 2.117 . S
C38 O60 1.234 . S
C38 O61 1.283 . S
C39 O51 1.281 . S
C39 O52 1.236 . S
C40 O62 1.240 . S
C40 O63 1.264 . S
O41 Mn36 2.095 . S
O41 C50 1.250 . S
O42 Mn37 2.121 . S
O42 C50 1.258 . S
C43 N44 1.326 . S
C43 C47 1.460 . S
C43 H49 0.929 . S
N44 Mn37 2.257 . S
N44 C43 1.326 . S
N44 C48 1.362 . S
C45 C46 1.258 1_565 S
C45 C48 1.431 . S
C45 C65 1.449 1_565 S
C46 C45 1.258 1_545 S
C46 C47 1.477 1_545 S
C46 H66 0.931 . S
C47 C43 1.460 . S
C47 C46 1.477 1_565 S
C47 H67 0.930 . S
C48 N44 1.362 . S
C48 C45 1.431 . S
C48 C58 1.476 . S
H49 C43 0.929 . S
C50 O41 1.250 . S
C50 O42 1.258 . S
O51 Mn36 2.162 . S
O51 C39 1.281 . S
O52 Mn36 2.297 . S
O52 C39 1.236 . S
N53 Mn37 2.282 . S
N53 C54 1.328 . S
N53 C58 1.318 . S
C54 N53 1.328 . S
C54 C55 1.457 . S
C54 H59 0.929 . S
C55 C54 1.457 . S
C55 C56 1.291 . S
C55 H68 0.931 . S
C56 C55 1.291 . S
C56 C57 1.373 . S
C56 H69 0.929 . S
C57 C56 1.373 . S
C57 C58 1.396 . S
C57 C64 1.403 . S
C58 C48 1.476 . S
C58 N53 1.318 . S
C58 C57 1.396 . S
H59 C54 0.929 . S
O60 Mn36 2.385 . S
O60 C38 1.234 . S
O61 Mn36 2.209 . S
O61 Mn37 2.215 . S
O61 C38 1.283 . S
O62 Mn36 2.094 . S
O62 C40 1.240 . S
O63 Mn37 2.117 . S
O63 C40 1.264 . S
C64 C57 1.403 . S
C64 C65 1.399 1_565 S
C64 H70 0.929 1_565 S
C65 C45 1.449 1_545 S
C65 C64 1.399 1_545 S
C65 H71 0.930 . S
H66 C46 0.931 . S
H67 C47 0.930 . S
H68 C55 0.931 . S
H69 C56 0.929 . S
H70 C64 0.929 1_545 S
H71 C65 0.930 . S
Mn72 O77 2.095 . S
Mn72 O87 2.162 . S
Mn72 O88 2.297 . S
Mn72 O96 2.385 . S
Mn72 O97 2.209 . S
Mn72 O98 2.094 . S
Mn73 O78 2.121 . S
Mn73 N80 2.257 . S
Mn73 N89 2.282 . S
Mn73 O97 2.215 . S
Mn73 O99 2.117 . S
C74 O96 1.234 . S
C74 O97 1.283 . S
C75 O87 1.281 . S
C75 O88 1.236 . S
C76 O98 1.240 . S
C76 O99 1.264 . S
O77 Mn72 2.095 . S
O77 C86 1.250 . S
O78 Mn73 2.121 . S
O78 C86 1.258 . S
C79 N80 1.326 . S
C79 C83 1.460 . S
C79 H85 0.929 . S
N80 Mn73 2.257 . S
N80 C79 1.326 . S
N80 C84 1.362 . S
C81 C82 1.258 . S
C81 C84 1.431 . S
C81 C101 1.449 . S
C82 C81 1.258 . S
C82 C83 1.477 . S
C82 H102 0.931 . S
C83 C79 1.460 . S
C83 C82 1.477 . S
C83 H103 0.930 . S
C84 N80 1.362 . S
C84 C81 1.431 . S
C84 C94 1.476 . S
H85 C79 0.929 . S
C86 O77 1.250 . S
C86 O78 1.258 . S
O87 Mn72 2.162 . S
O87 C75 1.281 . S
O88 Mn72 2.297 . S
O88 C75 1.236 . S
N89 Mn73 2.282 . S
N89 C90 1.328 . S
N89 C94 1.318 . S
C90 N89 1.328 . S
C90 C91 1.457 . S
C90 H95 0.929 . S
C91 C90 1.457 . S
C91 C92 1.291 . S
C91 H104 0.931 . S
C92 C91 1.291 . S
C92 C93 1.373 . S
C92 H105 0.929 . S
C93 C92 1.373 . S
C93 C94 1.396 . S
C93 C100 1.403 . S
C94 C84 1.476 . S
C94 N89 1.318 . S
C94 C93 1.396 . S
H95 C90 0.929 . S
O96 Mn72 2.385 . S
O96 C74 1.234 . S
O97 Mn72 2.209 . S
O97 Mn73 2.215 . S
O97 C74 1.283 . S
O98 Mn72 2.094 . S
O98 C76 1.240 . S
O99 Mn73 2.117 . S
O99 C76 1.264 . S
C100 C93 1.403 . S
C100 C101 1.399 . S
C100 H106 0.929 . S
C101 C81 1.449 . S
C101 C100 1.399 . S
C101 H107 0.930 . S
H102 C82 0.931 . S
H103 C83 0.930 . S
H104 C91 0.931 . S
H105 C92 0.929 . S
H106 C100 0.929 . S
H107 C101 0.930 . S
Mn108 O113 2.095 . S
Mn108 O123 2.162 . S
Mn108 O124 2.297 . S
Mn108 O132 2.385 . S
Mn108 O133 2.209 . S
Mn108 O134 2.094 . S
Mn109 O114 2.121 . S
Mn109 N116 2.257 . S
Mn109 N125 2.282 . S
Mn109 O133 2.215 . S
Mn109 O135 2.117 . S
C110 O132 1.234 . S
C110 O133 1.283 . S
C111 O123 1.281 . S
C111 O124 1.236 . S
C112 O134 1.240 . S
C112 O135 1.264 . S
O113 Mn108 2.095 . S
O113 C122 1.250 . S
O114 Mn109 2.121 . S
O114 C122 1.258 . S
C115 N116 1.326 . S
C115 C119 1.460 . S
C115 H121 0.929 . S
N116 Mn109 2.257 . S
N116 C115 1.326 . S
N116 C120 1.362 . S
C117 C118 1.258 . S
C117 C120 1.431 . S
C117 C137 1.449 . S
C118 C117 1.258 . S
C118 C119 1.477 . S
C118 H138 0.931 . S
C119 C115 1.460 . S
C119 C118 1.477 . S
C119 H139 0.930 . S
C120 N116 1.362 . S
C120 C117 1.431 . S
C120 C130 1.476 . S
H121 C115 0.929 . S
C122 O113 1.250 . S
C122 O114 1.258 . S
O123 Mn108 2.162 . S
O123 C111 1.281 . S
O124 Mn108 2.297 . S
O124 C111 1.236 . S
N125 Mn109 2.282 . S
N125 C126 1.328 . S
N125 C130 1.318 . S
C126 N125 1.328 . S
C126 C127 1.457 . S
C126 H131 0.929 . S
C127 C126 1.457 . S
C127 C128 1.291 . S
C127 H140 0.931 . S
C128 C127 1.291 . S
C128 C129 1.373 . S
C128 H141 0.929 . S
C129 C128 1.373 . S
C129 C130 1.396 . S
C129 C136 1.403 . S
C130 C120 1.476 . S
C130 N125 1.318 . S
C130 C129 1.396 . S
H131 C126 0.929 . S
O132 Mn108 2.385 . S
O132 C110 1.234 . S
O133 Mn108 2.209 . S
O133 Mn109 2.215 . S
O133 C110 1.283 . S
O134 Mn108 2.094 . S
O134 C112 1.240 . S
O135 Mn109 2.117 . S
O135 C112 1.264 . S
C136 C129 1.403 . S
C136 C137 1.399 . S
C136 H142 0.929 . S
C137 C117 1.449 . S
C137 C136 1.399 . S
C137 H143 0.930 . S
H138 C118 0.931 . S
H139 C119 0.930 . S
H140 C127 0.931 . S
H141 C128 0.929 . S
H142 C136 0.929 . S
H143 C137 0.930 . S
Mn144 O149 2.095 . S
Mn144 O159 2.162 . S
Mn144 O160 2.297 . S
Mn144 O168 2.385 . S
Mn144 O169 2.209 . S
Mn144 O170 2.094 . S
Mn145 O150 2.121 . S
Mn145 N152 2.257 . S
Mn145 N161 2.282 . S
Mn145 O169 2.215 . S
Mn145 O171 2.117 . S
C146 O168 1.234 . S
C146 O169 1.283 . S
C147 O159 1.281 . S
C147 O160 1.236 . S
C148 O170 1.240 . S
C148 O171 1.264 . S
O149 Mn144 2.095 . S
O149 C158 1.250 . S
O150 Mn145 2.121 . S
O150 C158 1.258 . S
C151 N152 1.326 . S
C151 C155 1.460 . S
C151 H157 0.929 . S
N152 Mn145 2.257 . S
N152 C151 1.326 . S
N152 C156 1.362 . S
C153 C154 1.258 . S
C153 C156 1.431 . S
C153 C173 1.449 1_554 S
C154 C153 1.258 . S
C154 C155 1.477 . S
C154 H174 0.931 1_554 S
C155 C151 1.460 . S
C155 C154 1.477 . S
C155 H175 0.930 . S
C156 N152 1.362 . S
C156 C153 1.431 . S
C156 C166 1.476 . S
H157 C151 0.929 . S
C158 O149 1.250 . S
C158 O150 1.258 . S
O159 Mn144 2.162 . S
O159 C147 1.281 . S
O160 Mn144 2.297 . S
O160 C147 1.236 . S
N161 Mn145 2.282 . S
N161 C162 1.328 . S
N161 C166 1.318 . S
C162 N161 1.328 . S
C162 C163 1.457 . S
C162 H167 0.929 . S
C163 C162 1.457 . S
C163 C164 1.291 . S
C163 H176 0.931 . S
C164 C163 1.291 . S
C164 C165 1.373 . S
C164 H177 0.929 . S
C165 C164 1.373 . S
C165 C166 1.396 . S
C165 C172 1.403 . S
C166 C156 1.476 . S
C166 N161 1.318 . S
C166 C165 1.396 . S
H167 C162 0.929 . S
O168 Mn144 2.385 . S
O168 C146 1.234 . S
O169 Mn144 2.209 . S
O169 Mn145 2.215 . S
O169 C146 1.283 . S
O170 Mn144 2.094 . S
O170 C148 1.240 . S
O171 Mn145 2.117 . S
O171 C148 1.264 . S
C172 C165 1.403 . S
C172 C173 1.399 1_554 S
C172 H178 0.932 . S
C173 C153 1.449 1_556 S
C173 C172 1.399 1_556 S
C173 H179 0.930 . S
H174 C154 0.931 1_556 S
H175 C155 0.930 . S
H176 C163 0.931 . S
H177 C164 0.929 . S
H178 C172 0.932 . S
H179 C173 0.930 . S
Mn180 O185 2.095 . S
Mn180 O195 2.162 . S
Mn180 O196 2.297 . S
Mn180 O204 2.385 . S
Mn180 O205 2.209 . S
Mn180 O206 2.094 . S
Mn181 O186 2.121 . S
Mn181 N188 2.257 . S
Mn181 N197 2.282 . S
Mn181 O205 2.215 . S
Mn181 O207 2.117 . S
C182 O204 1.234 . S
C182 O205 1.283 . S
C183 O195 1.281 . S
C183 O196 1.236 . S
C184 O206 1.240 . S
C184 O207 1.264 . S
O185 Mn180 2.095 . S
O185 C194 1.250 . S
O186 Mn181 2.121 . S
O186 C194 1.258 . S
C187 N188 1.326 . S
C187 C191 1.460 . S
C187 H193 0.929 . S
N188 Mn181 2.257 . S
N188 C187 1.326 . S
N188 C192 1.362 . S
C189 C190 1.258 . S
C189 C192 1.431 . S
C189 C209 1.449 . S
C190 C189 1.258 . S
C190 C191 1.477 . S
C190 H210 0.931 . S
C191 C187 1.460 . S
C191 C190 1.477 . S
C191 H211 0.930 . S
C192 N188 1.362 . S
C192 C189 1.431 . S
C192 C202 1.476 . S
H193 C187 0.929 . S
C194 O185 1.250 . S
C194 O186 1.258 . S
O195 Mn180 2.162 . S
O195 C183 1.281 . S
O196 Mn180 2.297 . S
O196 C183 1.236 . S
N197 Mn181 2.282 . S
N197 C198 1.328 . S
N197 C202 1.318 . S
C198 N197 1.328 . S
C198 C199 1.457 . S
C198 H203 0.929 . S
C199 C198 1.457 . S
C199 C200 1.291 . S
C199 H212 0.931 . S
C200 C199 1.291 . S
C200 C201 1.373 . S
C200 H213 0.929 . S
C201 C200 1.373 . S
C201 C202 1.396 . S
C201 C208 1.403 . S
C202 C192 1.476 . S
C202 N197 1.318 . S
C202 C201 1.396 . S
H203 C198 0.929 . S
O204 Mn180 2.385 . S
O204 C182 1.234 . S
O205 Mn180 2.209 . S
O205 Mn181 2.215 . S
O205 C182 1.283 . S
O206 Mn180 2.094 . S
O206 C184 1.240 . S
O207 Mn181 2.117 . S
O207 C184 1.264 . S
C208 C201 1.403 . S
C208 C209 1.399 . S
C208 H214 0.929 . S
C209 C189 1.449 . S
C209 C208 1.399 . S
C209 H215 0.930 . S
H210 C190 0.931 . S
H211 C191 0.930 . S
H212 C199 0.931 . S
H213 C200 0.929 . S
H214 C208 0.929 . S
H215 C209 0.930 . S
Mn216 O221 2.095 . S
Mn216 O231 2.162 . S
Mn216 O232 2.297 . S
Mn216 O240 2.385 . S
Mn216 O241 2.209 . S
Mn216 O242 2.094 . S
Mn217 O222 2.121 . S
Mn217 N224 2.257 . S
Mn217 N233 2.282 . S
Mn217 O241 2.215 . S
Mn217 O243 2.117 . S
C218 O240 1.234 . S
C218 O241 1.283 . S
C219 O231 1.281 . S
C219 O232 1.236 . S
C220 O242 1.240 . S
C220 O243 1.264 . S
O221 Mn216 2.095 . S
O221 C230 1.250 . S
O222 Mn217 2.121 . S
O222 C230 1.258 . S
C223 N224 1.326 . S
C223 C227 1.460 . S
C223 H229 0.929 . S
N224 Mn217 2.257 . S
N224 C223 1.326 . S
N224 C228 1.362 . S
C225 C226 1.258 . S
C225 C228 1.431 . S
C225 C245 1.449 1_556 S
C226 C225 1.258 . S
C226 C227 1.477 . S
C226 H246 0.931 1_556 S
C227 C223 1.460 . S
C227 C226 1.477 . S
C227 H247 0.930 . S
C228 N224 1.362 . S
C228 C225 1.431 . S
C228 C238 1.476 . S
H229 C223 0.929 . S
C230 O221 1.250 . S
C230 O222 1.258 . S
O231 Mn216 2.162 . S
O231 C219 1.281 . S
O232 Mn216 2.297 . S
O232 C219 1.236 . S
N233 Mn217 2.282 . S
N233 C234 1.328 . S
N233 C238 1.318 . S
C234 N233 1.328 . S
C234 C235 1.457 . S
C234 H239 0.929 . S
C235 C234 1.457 . S
C235 C236 1.291 . S
C235 H248 0.931 . S
C236 C235 1.291 . S
C236 C237 1.373 . S
C236 H249 0.929 . S
C237 C236 1.373 . S
C237 C238 1.396 . S
C237 C244 1.403 . S
C238 C228 1.476 . S
C238 N233 1.318 . S
C238 C237 1.396 . S
H239 C234 0.929 . S
O240 Mn216 2.385 . S
O240 C218 1.234 . S
O241 Mn216 2.209 . S
O241 Mn217 2.215 . S
O241 C218 1.283 . S
O242 Mn216 2.094 . S
O242 C220 1.240 . S
O243 Mn217 2.117 . S
O243 C220 1.264 . S
C244 C237 1.403 . S
C244 C245 1.399 1_556 S
C244 H250 0.932 . S
C245 C225 1.449 1_554 S
C245 C244 1.399 1_554 S
C245 H251 0.930 . S
H246 C226 0.931 1_554 S
H247 C227 0.930 . S
H248 C235 0.931 . S
H249 C236 0.929 . S
H250 C244 0.932 . S
H251 C245 0.930 . S
Mn252 O257 2.095 . S
Mn252 O267 2.162 . S
Mn252 O268 2.297 . S
Mn252 O276 2.385 . S
Mn252 O277 2.209 . S
Mn252 O278 2.094 . S
Mn253 O258 2.121 . S
Mn253 N260 2.257 . S
Mn253 N269 2.282 . S
Mn253 O277 2.215 . S
Mn253 O279 2.117 . S
C254 O276 1.234 . S
C254 O277 1.283 . S
C255 O267 1.281 . S
C255 O268 1.236 . S
C256 O278 1.240 . S
C256 O279 1.264 . S
O257 Mn252 2.095 . S
O257 C266 1.250 . S
O258 Mn253 2.121 . S
O258 C266 1.258 . S
C259 N260 1.326 . S
C259 C263 1.460 . S
C259 H265 0.929 . S
N260 Mn253 2.257 . S
N260 C259 1.326 . S
N260 C264 1.362 . S
C261 C262 1.258 . S
C261 C264 1.431 . S
C261 C281 1.449 . S
C262 C261 1.258 . S
C262 C263 1.477 . S
C262 H282 0.931 . S
C263 C259 1.460 . S
C263 C262 1.477 . S
C263 H283 0.930 . S
C264 N260 1.362 . S
C264 C261 1.431 . S
C264 C274 1.476 . S
H265 C259 0.929 . S
C266 O257 1.250 . S
C266 O258 1.258 . S
O267 Mn252 2.162 . S
O267 C255 1.281 . S
O268 Mn252 2.297 . S
O268 C255 1.236 . S
N269 Mn253 2.282 . S
N269 C270 1.328 . S
N269 C274 1.318 . S
C270 N269 1.328 . S
C270 C271 1.457 . S
C270 H275 0.929 . S
C271 C270 1.457 . S
C271 C272 1.291 . S
C271 H284 0.931 . S
C272 C271 1.291 . S
C272 C273 1.373 . S
C272 H285 0.929 . S
C273 C272 1.373 . S
C273 C274 1.396 . S
C273 C280 1.403 . S
C274 C264 1.476 . S
C274 N269 1.318 . S
C274 C273 1.396 . S
H275 C270 0.929 . S
O276 Mn252 2.385 . S
O276 C254 1.234 . S
O277 Mn252 2.209 . S
O277 Mn253 2.215 . S
O277 C254 1.283 . S
O278 Mn252 2.094 . S
O278 C256 1.240 . S
O279 Mn253 2.117 . S
O279 C256 1.264 . S
C280 C273 1.403 . S
C280 C281 1.399 . S
C280 H286 0.929 . S
C281 C261 1.449 . S
C281 C280 1.399 . S
C281 H287 0.930 . S
H282 C262 0.931 . S
H283 C263 0.930 . S
H284 C271 0.931 . S
H285 C272 0.929 . S
H286 C280 0.929 . S
H287 C281 0.930 . S
Mn288 O293 2.095 . S
Mn288 O303 2.162 . S
Mn288 O304 2.297 . S
Mn288 O312 2.385 . S
Mn288 O313 2.209 . S
Mn288 O314 2.094 . S
Mn289 O294 2.121 . S
Mn289 N296 2.257 . S
Mn289 N305 2.282 . S
Mn289 O313 2.215 . S
Mn289 O315 2.117 . S
C290 O312 1.234 . S
C290 O313 1.283 . S
C291 O303 1.281 . S
C291 O304 1.236 . S
C292 O314 1.240 . S
C292 O315 1.264 . S
O293 Mn288 2.095 . S
O293 C302 1.250 . S
O294 Mn289 2.121 . S
O294 C302 1.258 . S
C295 N296 1.326 . S
C295 C299 1.460 . S
C295 H301 0.929 . S
N296 Mn289 2.257 . S
N296 C295 1.326 . S
N296 C300 1.362 . S
C297 C298 1.258 . S
C297 C300 1.431 . S
C297 C317 1.449 . S
C298 C297 1.258 . S
C298 C299 1.477 . S
C298 H318 0.931 . S
C299 C295 1.460 . S
C299 C298 1.477 . S
C299 H319 0.930 . S
C300 N296 1.362 . S
C300 C297 1.431 . S
C300 C310 1.476 . S
H301 C295 0.929 . S
C302 O293 1.250 . S
C302 O294 1.258 . S
O303 Mn288 2.162 . S
O303 C291 1.281 . S
O304 Mn288 2.297 . S
O304 C291 1.236 . S
N305 Mn289 2.282 . S
N305 C306 1.328 . S
N305 C310 1.318 . S
C306 N305 1.328 . S
C306 C307 1.457 . S
C306 H311 0.929 . S
C307 C306 1.457 . S
C307 C308 1.291 . S
C307 H320 0.943 . S
C308 C307 1.291 . S
C308 C309 1.373 . S
C308 H321 0.929 . S
C309 C308 1.373 . S
C309 C310 1.396 . S
C309 C316 1.403 . S
C310 C300 1.476 . S
C310 N305 1.318 . S
C310 C309 1.396 . S
H311 C306 0.929 . S
O312 Mn288 2.385 . S
O312 C290 1.234 . S
O313 Mn288 2.209 . S
O313 Mn289 2.215 . S
O313 C290 1.283 . S
O314 Mn288 2.094 . S
O314 C292 1.240 . S
O315 Mn289 2.117 . S
O315 C292 1.264 . S
C316 C309 1.403 . S
C316 C317 1.399 . S
C316 H322 0.929 . S
C317 C297 1.449 . S
C317 C316 1.399 . S
C317 H323 0.930 . S
H318 C298 0.931 . S
H319 C299 0.930 . S
H320 C307 0.943 . S
H321 C308 0.929 . S
H322 C316 0.929 . S
H323 C317 0.930 . S
Mn324 O329 2.095 . S
Mn324 O339 2.162 . S
Mn324 O340 2.297 . S
Mn324 O348 2.385 . S
Mn324 O349 2.209 . S
Mn324 O350 2.094 . S
Mn325 O330 2.121 . S
Mn325 N332 2.257 . S
Mn325 N341 2.282 . S
Mn325 O349 2.215 . S
Mn325 O351 2.117 . S
C326 O348 1.234 . S
C326 O349 1.283 . S
C327 O339 1.281 . S
C327 O340 1.236 . S
C328 O350 1.240 . S
C328 O351 1.264 . S
O329 Mn324 2.095 . S
O329 C338 1.250 . S
O330 Mn325 2.121 . S
O330 C338 1.258 . S
C331 N332 1.326 . S
C331 C335 1.460 . S
C331 H337 0.929 . S
N332 Mn325 2.257 . S
N332 C331 1.326 . S
N332 C336 1.362 . S
C333 C334 1.258 . S
C333 C336 1.431 . S
C333 C353 1.449 . S
C334 C333 1.258 . S
C334 C335 1.477 . S
C334 H354 0.931 . S
C335 C331 1.460 . S
C335 C334 1.477 . S
C335 H355 0.930 . S
C336 N332 1.362 . S
C336 C333 1.431 . S
C336 C346 1.476 . S
H337 C331 0.929 . S
C338 O329 1.250 . S
C338 O330 1.258 . S
O339 Mn324 2.162 . S
O339 C327 1.281 . S
O340 Mn324 2.297 . S
O340 C327 1.236 . S
N341 Mn325 2.282 . S
N341 C342 1.328 . S
N341 C346 1.318 . S
C342 N341 1.328 . S
C342 C343 1.457 . S
C342 H347 0.929 . S
C343 C342 1.457 . S
C343 C344 1.291 . S
C343 H356 0.943 . S
C344 C343 1.291 . S
C344 C345 1.373 . S
C344 H357 0.929 . S
C345 C344 1.373 . S
C345 C346 1.396 . S
C345 C352 1.403 . S
C346 C336 1.476 . S
C346 N341 1.318 . S
C346 C345 1.396 . S
H347 C342 0.929 . S
O348 Mn324 2.385 . S
O348 C326 1.234 . S
O349 Mn324 2.209 . S
O349 Mn325 2.215 . S
O349 C326 1.283 . S
O350 Mn324 2.094 . S
O350 C328 1.240 . S
O351 Mn325 2.117 . S
O351 C328 1.264 . S
C352 C345 1.403 . S
C352 C353 1.399 . S
C352 H358 0.929 . S
C353 C333 1.449 . S
C353 C352 1.399 . S
C353 H359 0.930 . S
H354 C334 0.931 . S
H355 C335 0.930 . S
H356 C343 0.943 . S
H357 C344 0.929 . S
H358 C352 0.929 . S
H359 C353 0.930 . S
Mn360 O365 2.095 . S
Mn360 O375 2.162 . S
Mn360 O376 2.297 . S
Mn360 O384 2.385 . S
Mn360 O385 2.209 . S
Mn360 O386 2.094 . S
Mn361 O366 2.121 . S
Mn361 N368 2.257 . S
Mn361 N377 2.282 . S
Mn361 O385 2.215 . S
Mn361 O387 2.117 . S
C362 O384 1.234 . S
C362 O385 1.283 . S
C363 O375 1.281 . S
C363 O376 1.236 . S
C364 O386 1.240 . S
C364 O387 1.264 . S
O365 Mn360 2.095 . S
O365 C374 1.250 . S
O366 Mn361 2.121 . S
O366 C374 1.258 . S
C367 N368 1.326 . S
C367 C371 1.460 . S
C367 H373 0.929 . S
N368 Mn361 2.257 . S
N368 C367 1.326 . S
N368 C372 1.362 . S
C369 C370 1.258 . S
C369 C372 1.431 . S
C369 C389 1.449 . S
C370 C369 1.258 . S
C370 C371 1.477 . S
C370 H390 0.931 . S
C371 C367 1.460 . S
C371 C370 1.477 . S
C371 H391 0.930 . S
C372 N368 1.362 . S
C372 C369 1.431 . S
C372 C382 1.476 . S
H373 C367 0.929 . S
C374 O365 1.250 . S
C374 O366 1.258 . S
O375 Mn360 2.162 . S
O375 C363 1.281 . S
O376 Mn360 2.297 . S
O376 C363 1.236 . S
N377 Mn361 2.282 . S
N377 C378 1.328 . S
N377 C382 1.318 . S
C378 N377 1.328 . S
C378 C379 1.457 . S
C378 H383 0.929 . S
C379 C378 1.457 . S
C379 C380 1.291 . S
C379 H392 0.931 . S
C380 C379 1.291 . S
C380 C381 1.373 . S
C380 H393 0.929 . S
C381 C380 1.373 . S
C381 C382 1.396 . S
C381 C388 1.403 . S
C382 C372 1.476 . S
C382 N377 1.318 . S
C382 C381 1.396 . S
H383 C378 0.929 . S
O384 Mn360 2.385 . S
O384 C362 1.234 . S
O385 Mn360 2.209 . S
O385 Mn361 2.215 . S
O385 C362 1.283 . S
O386 Mn360 2.094 . S
O386 C364 1.240 . S
O387 Mn361 2.117 . S
O387 C364 1.264 . S
C388 C381 1.403 . S
C388 C389 1.399 . S
C388 H394 0.929 . S
C389 C369 1.449 . S
C389 C388 1.399 . S
C389 H395 0.930 . S
H390 C370 0.931 . S
H391 C371 0.930 . S
H392 C379 0.931 . S
H393 C380 0.929 . S
H394 C388 0.929 . S
H395 C389 0.930 . S
Mn396 O401 2.095 . S
Mn396 O411 2.162 . S
Mn396 O412 2.297 . S
Mn396 O420 2.385 . S
Mn396 O421 2.209 . S
Mn396 O422 2.094 . S
Mn397 O402 2.121 . S
Mn397 N404 2.257 . S
Mn397 N413 2.282 . S
Mn397 O421 2.215 . S
Mn397 O423 2.117 . S
C398 O420 1.234 . S
C398 O421 1.283 . S
C399 O411 1.281 . S
C399 O412 1.236 . S
C400 O422 1.240 . S
C400 O423 1.264 . S
O401 Mn396 2.095 . S
O401 C410 1.250 . S
O402 Mn397 2.121 . S
O402 C410 1.258 . S
C403 N404 1.326 . S
C403 C407 1.460 . S
C403 H409 0.929 . S
N404 Mn397 2.257 . S
N404 C403 1.326 . S
N404 C408 1.362 . S
C405 C406 1.258 . S
C405 C408 1.431 . S
C405 C425 1.449 . S
C406 C405 1.258 . S
C406 C407 1.477 . S
C406 H426 0.931 . S
C407 C403 1.460 . S
C407 C406 1.477 . S
C407 H427 0.930 . S
C408 N404 1.362 . S
C408 C405 1.431 . S
C408 C418 1.476 . S
H409 C403 0.929 . S
C410 O401 1.250 . S
C410 O402 1.258 . S
O411 Mn396 2.162 . S
O411 C399 1.281 . S
O412 Mn396 2.297 . S
O412 C399 1.236 . S
N413 Mn397 2.282 . S
N413 C414 1.328 . S
N413 C418 1.318 . S
C414 N413 1.328 . S
C414 C415 1.457 . S
C414 H419 0.929 . S
C415 C414 1.457 . S
C415 C416 1.291 . S
C415 H428 0.931 . S
C416 C415 1.291 . S
C416 C417 1.373 . S
C416 H429 0.929 . S
C417 C416 1.373 . S
C417 C418 1.396 . S
C417 C424 1.403 . S
C418 C408 1.476 . S
C418 N413 1.318 . S
C418 C417 1.396 . S
H419 C414 0.929 . S
O420 Mn396 2.385 . S
O420 C398 1.234 . S
O421 Mn396 2.209 . S
O421 Mn397 2.215 . S
O421 C398 1.283 . S
O422 Mn396 2.094 . S
O422 C400 1.240 . S
O423 Mn397 2.117 . S
O423 C400 1.264 . S
C424 C417 1.403 . S
C424 C425 1.399 . S
C424 H430 0.929 . S
C425 C405 1.449 . S
C425 C424 1.399 . S
C425 H431 0.930 . S
H426 C406 0.931 . S
H427 C407 0.930 . S
H428 C415 0.931 . S
H429 C416 0.929 . S
H430 C424 0.929 . S
H431 C425 0.930 . S
Mn432 O437 2.095 . S
Mn432 O447 2.162 . S
Mn432 O448 2.297 . S
Mn432 O456 2.385 . S
Mn432 O457 2.209 . S
Mn432 O458 2.094 . S
Mn433 O438 2.121 . S
Mn433 N440 2.257 . S
Mn433 N449 2.282 . S
Mn433 O457 2.215 . S
Mn433 O459 2.117 . S
C434 O456 1.234 . S
C434 O457 1.283 . S
C435 O447 1.281 . S
C435 O448 1.236 . S
C436 O458 1.240 . S
C436 O459 1.264 . S
O437 Mn432 2.095 . S
O437 C446 1.250 . S
O438 Mn433 2.121 . S
O438 C446 1.258 . S
C439 N440 1.326 . S
C439 C443 1.460 . S
C439 H445 0.929 . S
N440 Mn433 2.257 . S
N440 C439 1.326 . S
N440 C444 1.362 . S
C441 C442 1.258 1_565 S
C441 C444 1.431 . S
C441 C461 1.449 1_565 S
C442 C441 1.258 1_545 S
C442 C443 1.477 1_545 S
C442 H462 0.931 . S
C443 C439 1.460 . S
C443 C442 1.477 1_565 S
C443 H463 0.930 . S
C444 N440 1.362 . S
C444 C441 1.431 . S
C444 C454 1.476 . S
H445 C439 0.929 . S
C446 O437 1.250 . S
C446 O438 1.258 . S
O447 Mn432 2.162 . S
O447 C435 1.281 . S
O448 Mn432 2.297 . S
O448 C435 1.236 . S
N449 Mn433 2.282 . S
N449 C450 1.328 . S
N449 C454 1.318 . S
C450 N449 1.328 . S
C450 C451 1.457 . S
C450 H455 0.929 . S
C451 C450 1.457 . S
C451 C452 1.291 . S
C451 H464 0.931 . S
C452 C451 1.291 . S
C452 C453 1.373 . S
C452 H465 0.929 . S
C453 C452 1.373 . S
C453 C454 1.396 . S
C453 C460 1.403 . S
C454 C444 1.476 . S
C454 N449 1.318 . S
C454 C453 1.396 . S
H455 C450 0.929 . S
O456 Mn432 2.385 . S
O456 C434 1.234 . S
O457 Mn432 2.209 . S
O457 Mn433 2.215 . S
O457 C434 1.283 . S
O458 Mn432 2.094 . S
O458 C436 1.240 . S
O459 Mn433 2.117 . S
O459 C436 1.264 . S
C460 C453 1.403 . S
C460 C461 1.399 1_565 S
C460 H466 0.929 1_565 S
C461 C441 1.449 1_545 S
C461 C460 1.399 1_545 S
C461 H467 0.930 . S
H462 C442 0.931 . S
H463 C443 0.930 . S
H464 C451 0.931 . S
H465 C452 0.929 . S
H466 C460 0.929 1_545 S
H467 C461 0.930 . S
Mn468 O473 2.095 . S
Mn468 O483 2.162 . S
Mn468 O484 2.297 . S
Mn468 O492 2.385 . S
Mn468 O493 2.209 . S
Mn468 O494 2.094 . S
Mn469 O474 2.121 . S
Mn469 N476 2.257 . S
Mn469 N485 2.282 . S
Mn469 O493 2.215 . S
Mn469 O495 2.117 . S
C470 O492 1.234 . S
C470 O493 1.283 . S
C471 O483 1.281 . S
C471 O484 1.236 . S
C472 O494 1.240 . S
C472 O495 1.264 . S
O473 Mn468 2.095 . S
O473 C482 1.250 . S
O474 Mn469 2.121 . S
O474 C482 1.258 . S
C475 N476 1.326 . S
C475 C479 1.460 . S
C475 H481 0.929 . S
N476 Mn469 2.257 . S
N476 C475 1.326 . S
N476 C480 1.362 . S
C477 C478 1.258 1_545 S
C477 C480 1.431 . S
C477 C497 1.449 1_545 S
C478 C477 1.258 1_565 S
C478 C479 1.477 1_565 S
C478 H498 0.931 . S
C479 C475 1.460 . S
C479 C478 1.477 1_545 S
C479 H499 0.930 . S
C480 N476 1.362 . S
C480 C477 1.431 . S
C480 C490 1.476 . S
H481 C475 0.929 . S
C482 O473 1.250 . S
C482 O474 1.258 . S
O483 Mn468 2.162 . S
O483 C471 1.281 . S
O484 Mn468 2.297 . S
O484 C471 1.236 . S
N485 Mn469 2.282 . S
N485 C486 1.328 . S
N485 C490 1.318 . S
C486 N485 1.328 . S
C486 C487 1.457 . S
C486 H491 0.929 . S
C487 C486 1.457 . S
C487 C488 1.291 . S
C487 H500 0.931 . S
C488 C487 1.291 . S
C488 C489 1.373 . S
C488 H501 0.929 . S
C489 C488 1.373 . S
C489 C490 1.396 . S
C489 C496 1.403 . S
C490 C480 1.476 . S
C490 N485 1.318 . S
C490 C489 1.396 . S
H491 C486 0.929 . S
O492 Mn468 2.385 . S
O492 C470 1.234 . S
O493 Mn468 2.209 . S
O493 Mn469 2.215 . S
O493 C470 1.283 . S
O494 Mn468 2.094 . S
O494 C472 1.240 . S
O495 Mn469 2.117 . S
O495 C472 1.264 . S
C496 C489 1.403 . S
C496 C497 1.399 1_545 S
C496 H502 0.929 1_545 S
C497 C477 1.449 1_565 S
C497 C496 1.399 1_565 S
C497 H503 0.930 . S
H498 C478 0.931 . S
H499 C479 0.930 . S
H500 C487 0.931 . S
H501 C488 0.929 . S
H502 C496 0.929 1_565 S
H503 C497 0.930 . S
Mn504 O509 2.095 . S
Mn504 O519 2.162 . S
Mn504 O520 2.297 . S
Mn504 O528 2.385 . S
Mn504 O529 2.209 . S
Mn504 O530 2.094 . S
Mn505 O510 2.121 . S
Mn505 N512 2.257 . S
Mn505 N521 2.282 . S
Mn505 O529 2.215 . S
Mn505 O531 2.117 . S
C506 O528 1.234 . S
C506 O529 1.283 . S
C507 O519 1.281 . S
C507 O520 1.236 . S
C508 O530 1.240 . S
C508 O531 1.264 . S
O509 Mn504 2.095 . S
O509 C518 1.250 . S
O510 Mn505 2.121 . S
O510 C518 1.258 . S
C511 N512 1.326 . S
C511 C515 1.460 . S
C511 H517 0.929 . S
N512 Mn505 2.257 . S
N512 C511 1.326 . S
N512 C516 1.362 . S
C513 C514 1.258 . S
C513 C516 1.431 . S
C513 C533 1.449 . S
C514 C513 1.258 . S
C514 C515 1.477 . S
C514 H534 0.931 . S
C515 C511 1.460 . S
C515 C514 1.477 . S
C515 H535 0.930 . S
C516 N512 1.362 . S
C516 C513 1.431 . S
C516 C526 1.476 . S
H517 C511 0.929 . S
C518 O509 1.250 . S
C518 O510 1.258 . S
O519 Mn504 2.162 . S
O519 C507 1.281 . S
O520 Mn504 2.297 . S
O520 C507 1.236 . S
N521 Mn505 2.282 . S
N521 C522 1.328 . S
N521 C526 1.318 . S
C522 N521 1.328 . S
C522 C523 1.457 . S
C522 H527 0.929 . S
C523 C522 1.457 . S
C523 C524 1.291 . S
C523 H536 0.931 . S
C524 C523 1.291 . S
C524 C525 1.373 . S
C524 H537 0.929 . S
C525 C524 1.373 . S
C525 C526 1.396 . S
C525 C532 1.403 . S
C526 C516 1.476 . S
C526 N521 1.318 . S
C526 C525 1.396 . S
H527 C522 0.929 . S
O528 Mn504 2.385 . S
O528 C506 1.234 . S
O529 Mn504 2.209 . S
O529 Mn505 2.215 . S
O529 C506 1.283 . S
O530 Mn504 2.094 . S
O530 C508 1.240 . S
O531 Mn505 2.117 . S
O531 C508 1.264 . S
C532 C525 1.403 . S
C532 C533 1.399 . S
C532 H538 0.929 . S
C533 C513 1.449 . S
C533 C532 1.399 . S
C533 H539 0.930 . S
H534 C514 0.931 . S
H535 C515 0.930 . S
H536 C523 0.931 . S
H537 C524 0.929 . S
H538 C532 0.929 . S
H539 C533 0.930 . S
Mn540 O545 2.095 . S
Mn540 O555 2.162 . S
Mn540 O556 2.297 . S
Mn540 O564 2.385 . S
Mn540 O565 2.209 . S
Mn540 O566 2.094 . S
Mn541 O546 2.121 . S
Mn541 N548 2.257 . S
Mn541 N557 2.282 . S
Mn541 O565 2.215 . S
Mn541 O567 2.117 . S
C542 O564 1.234 . S
C542 O565 1.283 . S
C543 O555 1.281 . S
C543 O556 1.236 . S
C544 O566 1.240 . S
C544 O567 1.264 . S
O545 Mn540 2.095 . S
O545 C554 1.250 . S
O546 Mn541 2.121 . S
O546 C554 1.258 . S
C547 N548 1.326 . S
C547 C551 1.460 . S
C547 H553 0.929 . S
N548 Mn541 2.257 . S
N548 C547 1.326 . S
N548 C552 1.362 . S
C549 C550 1.258 . S
C549 C552 1.431 . S
C549 C569 1.449 . S
C550 C549 1.258 . S
C550 C551 1.477 . S
C550 H570 0.931 . S
C551 C547 1.460 . S
C551 C550 1.477 . S
C551 H571 0.930 . S
C552 N548 1.362 . S
C552 C549 1.431 . S
C552 C562 1.476 . S
H553 C547 0.929 . S
C554 O545 1.250 . S
C554 O546 1.258 . S
O555 Mn540 2.162 . S
O555 C543 1.281 . S
O556 Mn540 2.297 . S
O556 C543 1.236 . S
N557 Mn541 2.282 . S
N557 C558 1.328 . S
N557 C562 1.318 . S
C558 N557 1.328 . S
C558 C559 1.457 . S
C558 H563 0.929 . S
C559 C558 1.457 . S
C559 C560 1.291 . S
C559 H572 0.931 . S
C560 C559 1.291 . S
C560 C561 1.373 . S
C560 H573 0.929 . S
C561 C560 1.373 . S
C561 C562 1.396 . S
C561 C568 1.403 . S
C562 C552 1.476 . S
C562 N557 1.318 . S
C562 C561 1.396 . S
H563 C558 0.929 . S
O564 Mn540 2.385 . S
O564 C542 1.234 . S
O565 Mn540 2.209 . S
O565 Mn541 2.215 . S
O565 C542 1.283 . S
O566 Mn540 2.094 . S
O566 C544 1.240 . S
O567 Mn541 2.117 . S
O567 C544 1.264 . S
C568 C561 1.403 . S
C568 C569 1.399 . S
C568 H574 0.929 . S
C569 C549 1.449 . S
C569 C568 1.399 . S
C569 H575 0.930 . S
H570 C550 0.931 . S
H571 C551 0.930 . S
H572 C559 0.931 . S
H573 C560 0.929 . S
H574 C568 0.929 . S
H575 C569 0.930 . S
Mn576 O581 2.095 . S
Mn576 O591 2.162 . S
Mn576 O592 2.297 . S
Mn576 O600 2.385 . S
Mn576 O601 2.209 . S
Mn576 O602 2.094 . S
Mn577 O582 2.121 . S
Mn577 N584 2.257 . S
Mn577 N593 2.282 . S
Mn577 O601 2.215 . S
Mn577 O603 2.117 . S
C578 O600 1.234 . S
C578 O601 1.283 . S
C579 O591 1.281 . S
C579 O592 1.236 . S
C580 O602 1.240 . S
C580 O603 1.264 . S
O581 Mn576 2.095 . S
O581 C590 1.250 . S
O582 Mn577 2.121 . S
O582 C590 1.258 . S
C583 N584 1.326 . S
C583 C587 1.460 . S
C583 H589 0.929 . S
N584 Mn577 2.257 . S
N584 C583 1.326 . S
N584 C588 1.362 . S
C585 C586 1.252 1_556 S
C585 C588 1.431 . S
C585 C605 1.449 1_556 S
C586 C585 1.252 1_554 S
C586 C587 1.469 1_554 S
C586 H606 0.944 . S
C587 C583 1.460 . S
C587 C586 1.469 1_556 S
C587 H607 0.930 . S
C588 N584 1.362 . S
C588 C585 1.431 . S
C588 C598 1.476 . S
H589 C583 0.929 . S
C590 O581 1.250 . S
C590 O582 1.258 . S
O591 Mn576 2.162 . S
O591 C579 1.281 . S
O592 Mn576 2.297 . S
O592 C579 1.236 . S
N593 Mn577 2.282 . S
N593 C594 1.328 . S
N593 C598 1.318 . S
C594 N593 1.328 . S
C594 C595 1.457 . S
C594 H599 0.929 . S
C595 C594 1.457 . S
C595 C596 1.291 . S
C595 H608 0.931 . S
C596 C595 1.291 . S
C596 C597 1.373 . S
C596 H609 0.929 . S
C597 C596 1.373 . S
C597 C598 1.396 . S
C597 C604 1.403 . S
C598 C588 1.476 . S
C598 N593 1.318 . S
C598 C597 1.396 . S
H599 C594 0.929 . S
O600 Mn576 2.385 . S
O600 C578 1.234 . S
O601 Mn576 2.209 . S
O601 Mn577 2.215 . S
O601 C578 1.283 . S
O602 Mn576 2.094 . S
O602 C580 1.240 . S
O603 Mn577 2.117 . S
O603 C580 1.264 . S
C604 C597 1.403 . S
C604 C605 1.399 1_556 S
C604 H610 0.929 1_556 S
C605 C585 1.449 1_554 S
C605 C604 1.399 1_554 S
C605 H611 0.930 . S
H606 C586 0.944 . S
H607 C587 0.930 . S
H608 C595 0.931 . S
H609 C596 0.929 . S
H610 C604 0.929 1_554 S
H611 C605 0.930 . S
Mn612 O617 2.095 . S
Mn612 O627 2.162 . S
Mn612 O628 2.297 . S
Mn612 O636 2.385 . S
Mn612 O637 2.209 . S
Mn612 O638 2.094 . S
Mn613 O618 2.121 . S
Mn613 N620 2.257 . S
Mn613 N629 2.282 . S
Mn613 O637 2.215 . S
Mn613 O639 2.117 . S
C614 O636 1.234 . S
C614 O637 1.283 . S
C615 O627 1.281 . S
C615 O628 1.236 . S
C616 O638 1.240 . S
C616 O639 1.264 . S
O617 Mn612 2.095 . S
O617 C626 1.250 . S
O618 Mn613 2.121 . S
O618 C626 1.258 . S
C619 N620 1.326 . S
C619 C623 1.460 . S
C619 H625 0.929 . S
N620 Mn613 2.257 . S
N620 C619 1.326 . S
N620 C624 1.362 . S
C621 C622 1.258 . S
C621 C624 1.431 . S
C621 C641 1.449 . S
C622 C621 1.258 . S
C622 C623 1.477 . S
C622 H642 0.931 . S
C623 C619 1.460 . S
C623 C622 1.477 . S
C623 H643 0.930 . S
C624 N620 1.362 . S
C624 C621 1.431 . S
C624 C634 1.476 . S
H625 C619 0.929 . S
C626 O617 1.250 . S
C626 O618 1.258 . S
O627 Mn612 2.162 . S
O627 C615 1.281 . S
O628 Mn612 2.297 . S
O628 C615 1.236 . S
N629 Mn613 2.282 . S
N629 C630 1.328 . S
N629 C634 1.318 . S
C630 N629 1.328 . S
C630 C631 1.457 . S
C630 H635 0.929 . S
C631 C630 1.457 . S
C631 C632 1.291 . S
C631 H644 0.931 . S
C632 C631 1.291 . S
C632 C633 1.373 . S
C632 H645 0.929 . S
C633 C632 1.373 . S
C633 C634 1.396 . S
C633 C640 1.403 . S
C634 C624 1.476 . S
C634 N629 1.318 . S
C634 C633 1.396 . S
H635 C630 0.929 . S
O636 Mn612 2.385 . S
O636 C614 1.234 . S
O637 Mn612 2.209 . S
O637 Mn613 2.215 . S
O637 C614 1.283 . S
O638 Mn612 2.094 . S
O638 C616 1.240 . S
O639 Mn613 2.117 . S
O639 C616 1.264 . S
C640 C633 1.403 . S
C640 C641 1.399 . S
C640 H646 0.929 . S
C641 C621 1.449 . S
C641 C640 1.399 . S
C641 H647 0.930 . S
H642 C622 0.931 . S
H643 C623 0.930 . S
H644 C631 0.931 . S
H645 C632 0.929 . S
H646 C640 0.929 . S
H647 C641 0.930 . S
Mn648 O653 2.095 . S
Mn648 O663 2.162 . S
Mn648 O664 2.297 . S
Mn648 O672 2.385 . S
Mn648 O673 2.209 . S
Mn648 O674 2.094 . S
Mn649 O654 2.121 . S
Mn649 N656 2.257 . S
Mn649 N665 2.282 . S
Mn649 O673 2.215 . S
Mn649 O675 2.117 . S
C650 O672 1.234 . S
C650 O673 1.283 . S
C651 O663 1.281 . S
C651 O664 1.236 . S
C652 O674 1.240 . S
C652 O675 1.264 . S
O653 Mn648 2.095 . S
O653 C662 1.250 . S
O654 Mn649 2.121 . S
O654 C662 1.258 . S
C655 N656 1.326 . S
C655 C659 1.460 . S
C655 H661 0.929 . S
N656 Mn649 2.257 . S
N656 C655 1.326 . S
N656 C660 1.362 . S
C657 C658 1.252 1_554 S
C657 C660 1.431 . S
C657 C677 1.449 1_554 S
C658 C657 1.252 1_556 S
C658 C659 1.469 1_556 S
C658 H678 0.944 . S
C659 C655 1.460 . S
C659 C658 1.469 1_554 S
C659 H679 0.930 . S
C660 N656 1.362 . S
C660 C657 1.431 . S
C660 C670 1.476 . S
H661 C655 0.929 . S
C662 O653 1.250 . S
C662 O654 1.258 . S
O663 Mn648 2.162 . S
O663 C651 1.281 . S
O664 Mn648 2.297 . S
O664 C651 1.236 . S
N665 Mn649 2.282 . S
N665 C666 1.328 . S
N665 C670 1.318 . S
C666 N665 1.328 . S
C666 C667 1.457 . S
C666 H671 0.929 . S
C667 C666 1.457 . S
C667 C668 1.291 . S
C667 H680 0.931 . S
C668 C667 1.291 . S
C668 C669 1.373 . S
C668 H681 0.929 . S
C669 C668 1.373 . S
C669 C670 1.396 . S
C669 C676 1.403 . S
C670 C660 1.476 . S
C670 N665 1.318 . S
C670 C669 1.396 . S
H671 C666 0.929 . S
O672 Mn648 2.385 . S
O672 C650 1.234 . S
O673 Mn648 2.209 . S
O673 Mn649 2.215 . S
O673 C650 1.283 . S
O674 Mn648 2.094 . S
O674 C652 1.240 . S
O675 Mn649 2.117 . S
O675 C652 1.264 . S
C676 C669 1.403 . S
C676 C677 1.399 1_554 S
C676 H682 0.929 1_554 S
C677 C657 1.449 1_556 S
C677 C676 1.399 1_556 S
C677 H683 0.930 . S
H678 C658 0.944 . S
H679 C659 0.930 . S
H680 C667 0.931 . S
H681 C668 0.929 . S
H682 C676 0.929 1_556 S
H683 C677 0.930 . S
Mn684 O689 2.095 . S
Mn684 O699 2.162 . S
Mn684 O700 2.297 . S
Mn684 O708 2.385 . S
Mn684 O709 2.209 . S
Mn684 O710 2.094 . S
Mn685 O690 2.121 . S
Mn685 N692 2.257 . S
Mn685 N701 2.282 . S
Mn685 O709 2.215 . S
Mn685 O711 2.117 . S
C686 O708 1.234 . S
C686 O709 1.283 . S
C687 O699 1.281 . S
C687 O700 1.236 . S
C688 O710 1.240 . S
C688 O711 1.264 . S
O689 Mn684 2.095 . S
O689 C698 1.250 . S
O690 Mn685 2.121 . S
O690 C698 1.258 . S
C691 N692 1.326 . S
C691 C695 1.460 . S
C691 H697 0.929 . S
N692 Mn685 2.257 . S
N692 C691 1.326 . S
N692 C696 1.362 . S
C693 C694 1.258 . S
C693 C696 1.431 . S
C693 C713 1.449 . S
C694 C693 1.258 . S
C694 C695 1.477 . S
C694 H714 0.931 . S
C695 C691 1.460 . S
C695 C694 1.477 . S
C695 H715 0.930 . S
C696 N692 1.362 . S
C696 C693 1.431 . S
C696 C706 1.476 . S
H697 C691 0.929 . S
C698 O689 1.250 . S
C698 O690 1.258 . S
O699 Mn684 2.162 . S
O699 C687 1.281 . S
O700 Mn684 2.297 . S
O700 C687 1.236 . S
N701 Mn685 2.282 . S
N701 C702 1.328 . S
N701 C706 1.318 . S
C702 N701 1.328 . S
C702 C703 1.457 . S
C702 H707 0.929 . S
C703 C702 1.457 . S
C703 C704 1.291 . S
C703 H716 0.931 . S
C704 C703 1.291 . S
C704 C705 1.373 . S
C704 H717 0.929 . S
C705 C704 1.373 . S
C705 C706 1.396 . S
C705 C712 1.403 . S
C706 C696 1.476 . S
C706 N701 1.318 . S
C706 C705 1.396 . S
H707 C702 0.929 . S
O708 Mn684 2.385 . S
O708 C686 1.234 . S
O709 Mn684 2.209 . S
O709 Mn685 2.215 . S
O709 C686 1.283 . S
O710 Mn684 2.094 . S
O710 C688 1.240 . S
O711 Mn685 2.117 . S
O711 C688 1.264 . S
C712 C705 1.403 . S
C712 C713 1.399 . S
C712 H718 0.929 . S
C713 C693 1.449 . S
C713 C712 1.399 . S
C713 H719 0.930 . S
H714 C694 0.931 . S
H715 C695 0.930 . S
H716 C703 0.931 . S
H717 C704 0.929 . S
H718 C712 0.929 . S
H719 C713 0.930 . S
Mn720 O725 2.095 . S
Mn720 O735 2.162 . S
Mn720 O736 2.297 . S
Mn720 O744 2.385 . S
Mn720 O745 2.209 . S
Mn720 O746 2.094 . S
Mn721 O726 2.121 . S
Mn721 N728 2.257 . S
Mn721 N737 2.282 . S
Mn721 O745 2.215 . S
Mn721 O747 2.117 . S
C722 O744 1.234 . S
C722 O745 1.283 . S
C723 O735 1.281 . S
C723 O736 1.236 . S
C724 O746 1.240 . S
C724 O747 1.264 . S
O725 Mn720 2.095 . S
O725 C734 1.250 . S
O726 Mn721 2.121 . S
O726 C734 1.258 . S
C727 N728 1.326 . S
C727 C731 1.460 . S
C727 H733 0.929 . S
N728 Mn721 2.257 . S
N728 C727 1.326 . S
N728 C732 1.362 . S
C729 C730 1.261 . S
C729 C732 1.431 . S
C729 C749 1.449 1_655 S
C730 C729 1.261 . S
C730 C731 1.482 . S
C730 H750 0.923 1_655 S
C731 C727 1.460 . S
C731 C730 1.482 . S
C731 H751 0.930 . S
C732 N728 1.362 . S
C732 C729 1.431 . S
C732 C742 1.476 . S
H733 C727 0.929 . S
C734 O725 1.250 . S
C734 O726 1.258 . S
O735 Mn720 2.162 . S
O735 C723 1.281 . S
O736 Mn720 2.297 . S
O736 C723 1.236 . S
N737 Mn721 2.282 . S
N737 C738 1.328 . S
N737 C742 1.318 . S
C738 N737 1.328 . S
C738 C739 1.457 . S
C738 H743 0.929 . S
C739 C738 1.457 . S
C739 C740 1.291 . S
C739 H752 0.931 . S
C740 C739 1.291 . S
C740 C741 1.373 . S
C740 H753 0.929 . S
C741 C740 1.373 . S
C741 C742 1.396 . S
C741 C748 1.403 . S
C742 C732 1.476 . S
C742 N737 1.318 . S
C742 C741 1.396 . S
H743 C738 0.929 . S
O744 Mn720 2.385 . S
O744 C722 1.234 . S
O745 Mn720 2.209 . S
O745 Mn721 2.215 . S
O745 C722 1.283 . S
O746 Mn720 2.094 . S
O746 C724 1.240 . S
O747 Mn721 2.117 . S
O747 C724 1.264 . S
C748 C741 1.403 . S
C748 C749 1.399 1_655 S
C748 H754 0.929 1_655 S
C749 C729 1.449 1_455 S
C749 C748 1.399 1_455 S
C749 H755 0.930 . S
H750 C730 0.923 1_455 S
H751 C731 0.930 . S
H752 C739 0.931 . S
H753 C740 0.929 . S
H754 C748 0.929 1_455 S
H755 C749 0.930 . S
Mn756 O761 2.095 . S
Mn756 O771 2.162 . S
Mn756 O772 2.297 . S
Mn756 O780 2.385 . S
Mn756 O781 2.209 . S
Mn756 O782 2.094 . S
Mn757 O762 2.121 . S
Mn757 N764 2.257 . S
Mn757 N773 2.282 . S
Mn757 O781 2.215 . S
Mn757 O783 2.117 . S
C758 O780 1.234 . S
C758 O781 1.283 . S
C759 O771 1.281 . S
C759 O772 1.236 . S
C760 O782 1.240 . S
C760 O783 1.264 . S
O761 Mn756 2.095 . S
O761 C770 1.250 . S
O762 Mn757 2.121 . S
O762 C770 1.258 . S
C763 N764 1.326 . S
C763 C767 1.460 . S
C763 H769 0.929 . S
N764 Mn757 2.257 . S
N764 C763 1.326 . S
N764 C768 1.362 . S
C765 C766 1.258 . S
C765 C768 1.431 . S
C765 C785 1.449 . S
C766 C765 1.258 . S
C766 C767 1.477 . S
C766 H786 0.931 . S
C767 C763 1.460 . S
C767 C766 1.477 . S
C767 H787 0.930 . S
C768 N764 1.362 . S
C768 C765 1.431 . S
C768 C778 1.476 . S
H769 C763 0.929 . S
C770 O761 1.250 . S
C770 O762 1.258 . S
O771 Mn756 2.162 . S
O771 C759 1.281 . S
O772 Mn756 2.297 . S
O772 C759 1.236 . S
N773 Mn757 2.282 . S
N773 C774 1.328 . S
N773 C778 1.318 . S
C774 N773 1.328 . S
C774 C775 1.457 . S
C774 H779 0.929 . S
C775 C774 1.457 . S
C775 C776 1.291 . S
C775 H788 0.931 . S
C776 C775 1.291 . S
C776 C777 1.373 . S
C776 H789 0.929 . S
C777 C776 1.373 . S
C777 C778 1.396 . S
C777 C784 1.403 . S
C778 C768 1.476 . S
C778 N773 1.318 . S
C778 C777 1.396 . S
H779 C774 0.929 . S
O780 Mn756 2.385 . S
O780 C758 1.234 . S
O781 Mn756 2.209 . S
O781 Mn757 2.215 . S
O781 C758 1.283 . S
O782 Mn756 2.094 . S
O782 C760 1.240 . S
O783 Mn757 2.117 . S
O783 C760 1.264 . S
C784 C777 1.403 . S
C784 C785 1.399 . S
C784 H790 0.929 . S
C785 C765 1.449 . S
C785 C784 1.399 . S
C785 H791 0.930 . S
H786 C766 0.931 . S
H787 C767 0.930 . S
H788 C775 0.931 . S
H789 C776 0.929 . S
H790 C784 0.929 . S
H791 C785 0.930 . S
Mn792 O797 2.095 . S
Mn792 O807 2.162 . S
Mn792 O808 2.297 . S
Mn792 O816 2.385 . S
Mn792 O817 2.209 . S
Mn792 O818 2.094 . S
Mn793 O798 2.121 . S
Mn793 N800 2.257 . S
Mn793 N809 2.282 . S
Mn793 O817 2.215 . S
Mn793 O819 2.117 . S
C794 O816 1.234 . S
C794 O817 1.283 . S
C795 O807 1.281 . S
C795 O808 1.236 . S
C796 O818 1.240 . S
C796 O819 1.264 . S
O797 Mn792 2.095 . S
O797 C806 1.250 . S
O798 Mn793 2.121 . S
O798 C806 1.258 . S
C799 N800 1.326 . S
C799 C803 1.460 . S
C799 H805 0.929 . S
N800 Mn793 2.257 . S
N800 C799 1.326 . S
N800 C804 1.362 . S
C801 C802 1.261 . S
C801 C804 1.431 . S
C801 C821 1.449 1_455 S
C802 C801 1.261 . S
C802 C803 1.482 . S
C802 H822 0.923 1_455 S
C803 C799 1.460 . S
C803 C802 1.482 . S
C803 H823 0.930 . S
C804 N800 1.362 . S
C804 C801 1.431 . S
C804 C814 1.476 . S
H805 C799 0.929 . S
C806 O797 1.250 . S
C806 O798 1.258 . S
O807 Mn792 2.162 . S
O807 C795 1.281 . S
O808 Mn792 2.297 . S
O808 C795 1.236 . S
N809 Mn793 2.282 . S
N809 C810 1.328 . S
N809 C814 1.318 . S
C810 N809 1.328 . S
C810 C811 1.457 . S
C810 H815 0.929 . S
C811 C810 1.457 . S
C811 C812 1.291 . S
C811 H824 0.931 . S
C812 C811 1.291 . S
C812 C813 1.373 . S
C812 H825 0.929 . S
C813 C812 1.373 . S
C813 C814 1.396 . S
C813 C820 1.403 . S
C814 C804 1.476 . S
C814 N809 1.318 . S
C814 C813 1.396 . S
H815 C810 0.929 . S
O816 Mn792 2.385 . S
O816 C794 1.234 . S
O817 Mn792 2.209 . S
O817 Mn793 2.215 . S
O817 C794 1.283 . S
O818 Mn792 2.094 . S
O818 C796 1.240 . S
O819 Mn793 2.117 . S
O819 C796 1.264 . S
C820 C813 1.403 . S
C820 C821 1.399 1_455 S
C820 H826 0.929 1_455 S
C821 C801 1.449 1_655 S
C821 C820 1.399 1_655 S
C821 H827 0.930 . S
H822 C802 0.923 1_655 S
H823 C803 0.930 . S
H824 C811 0.931 . S
H825 C812 0.929 . S
H826 C820 0.929 1_655 S
H827 C821 0.930 . S
Mn828 O833 2.095 . S
Mn828 O843 2.162 . S
Mn828 O844 2.297 . S
Mn828 O852 2.385 . S
Mn828 O853 2.209 . S
Mn828 O854 2.094 . S
Mn829 O834 2.121 . S
Mn829 N836 2.257 . S
Mn829 N845 2.282 . S
Mn829 O853 2.215 . S
Mn829 O855 2.117 . S
C830 O852 1.234 . S
C830 O853 1.283 . S
C831 O843 1.281 . S
C831 O844 1.236 . S
C832 O854 1.240 . S
C832 O855 1.264 . S
O833 Mn828 2.095 . S
O833 C842 1.250 . S
O834 Mn829 2.121 . S
O834 C842 1.258 . S
C835 N836 1.326 . S
C835 C839 1.460 . S
C835 H841 0.929 . S
N836 Mn829 2.257 . S
N836 C835 1.326 . S
N836 C840 1.362 . S
C837 C838 1.258 . S
C837 C840 1.431 . S
C837 C857 1.449 . S
C838 C837 1.258 . S
C838 C839 1.477 . S
C838 H858 0.931 . S
C839 C835 1.460 . S
C839 C838 1.477 . S
C839 H859 0.930 . S
C840 N836 1.362 . S
C840 C837 1.431 . S
C840 C850 1.476 . S
H841 C835 0.929 . S
C842 O833 1.250 . S
C842 O834 1.258 . S
O843 Mn828 2.162 . S
O843 C831 1.281 . S
O844 Mn828 2.297 . S
O844 C831 1.236 . S
N845 Mn829 2.282 . S
N845 C846 1.328 . S
N845 C850 1.318 . S
C846 N845 1.328 . S
C846 C847 1.457 . S
C846 H851 0.929 . S
C847 C846 1.457 . S
C847 C848 1.291 . S
C847 H860 0.931 . S
C848 C847 1.291 . S
C848 C849 1.373 . S
C848 H861 0.929 . S
C849 C848 1.373 . S
C849 C850 1.396 . S
C849 C856 1.403 . S
C850 C840 1.476 . S
C850 N845 1.318 . S
C850 C849 1.396 . S
H851 C846 0.929 . S
O852 Mn828 2.385 . S
O852 C830 1.234 . S
O853 Mn828 2.209 . S
O853 Mn829 2.215 . S
O853 C830 1.283 . S
O854 Mn828 2.094 . S
O854 C832 1.240 . S
O855 Mn829 2.117 . S
O855 C832 1.264 . S
C856 C849 1.403 . S
C856 C857 1.399 . S
C856 H862 0.929 . S
C857 C837 1.449 . S
C857 C856 1.399 . S
C857 H863 0.930 . S
H858 C838 0.931 . S
H859 C839 0.930 . S
H860 C847 0.931 . S
H861 C848 0.929 . S
H862 C856 0.929 . S
H863 C857 0.930 . S
C864 C865 1.363 . S
C864 C870 1.379 . S
C864 N872 1.356 . S
C865 C864 1.363 . S
C865 C871 1.363 . S
C866 C867 1.363 . S
C866 C871 1.379 . S
C866 N873 1.356 . S
C867 C866 1.363 . S
C867 C870 1.363 . S
N868 C870 1.356 . S
N868 H880 0.984 . S
N868 H881 0.985 . S
N869 C871 1.356 . S
N869 H874 0.984 . S
N869 H875 0.985 . S
C870 C864 1.379 . S
C870 C867 1.363 . S
C870 N868 1.356 . S
C871 C865 1.363 . S
C871 C866 1.379 . S
C871 N869 1.356 . S
N872 C864 1.356 . S
N872 H878 0.984 . S
N872 H879 0.984 . S
N873 C866 1.356 . S
N873 H876 0.984 . S
N873 H877 0.985 . S
H874 N869 0.984 . S
H875 N869 0.985 . S
H876 N873 0.984 . S
H877 N873 0.985 . S
H878 N872 0.984 . S
H879 N872 0.984 . S
H880 N868 0.984 . S
H881 N868 0.985 . S
C882 C883 1.363 . S
C882 C888 1.379 . S
C882 N890 1.356 . S
C883 C882 1.363 . S
C883 C889 1.363 . S
C884 C885 1.363 . S
C884 C889 1.379 . S
C884 N891 1.356 . S
C885 C884 1.363 . S
C885 C888 1.363 . S
N886 C888 1.356 . S
N886 H898 0.984 . S
N886 H899 0.985 . S
N887 C889 1.356 . S
N887 H892 0.984 . S
N887 H893 0.985 . S
C888 C882 1.379 . S
C888 C885 1.363 . S
C888 N886 1.356 . S
C889 C883 1.363 . S
C889 C884 1.379 . S
C889 N887 1.356 . S
N890 C882 1.356 . S
N890 H896 0.984 . S
N890 H897 0.984 . S
N891 C884 1.356 . S
N891 H894 0.984 . S
N891 H895 0.985 . S
H892 N887 0.984 . S
H893 N887 0.985 . S
H894 N891 0.984 . S
H895 N891 0.985 . S
H896 N890 0.984 . S
H897 N890 0.984 . S
H898 N886 0.984 . S
H899 N886 0.985 . S
C900 C901 1.363 . S
C900 C906 1.379 . S
C900 N908 1.356 . S
C901 C900 1.363 . S
C901 C907 1.363 . S
C902 C903 1.363 . S
C902 C907 1.379 . S
C902 N909 1.356 . S
C903 C902 1.363 . S
C903 C906 1.363 . S
N904 C906 1.356 . S
N904 H916 0.984 . S
N904 H917 0.985 . S
N905 C907 1.356 . S
N905 H910 0.984 . S
N905 H911 0.985 . S
C906 C900 1.379 . S
C906 C903 1.363 . S
C906 N904 1.356 . S
C907 C901 1.363 . S
C907 C902 1.379 . S
C907 N905 1.356 . S
N908 C900 1.356 . S
N908 H914 0.984 . S
N908 H915 0.984 . S
N909 C902 1.356 . S
N909 H912 0.984 . S
N909 H913 0.985 . S
H910 N905 0.984 . S
H911 N905 0.985 . S
H912 N909 0.984 . S
H913 N909 0.985 . S
H914 N908 0.984 . S
H915 N908 0.984 . S
H916 N904 0.984 . S
H917 N904 0.985 . S
C918 C919 1.363 . S
C918 C924 1.379 . S
C918 N926 1.356 . S
C919 C918 1.363 . S
C919 C925 1.363 . S
C920 C921 1.363 . S
C920 C925 1.379 . S
C920 N927 1.356 . S
C921 C920 1.363 . S
C921 C924 1.363 . S
N922 C924 1.356 . S
N922 H934 0.984 . S
N922 H935 0.985 . S
N923 C925 1.356 . S
N923 H928 0.984 . S
N923 H929 0.985 . S
C924 C918 1.379 . S
C924 C921 1.363 . S
C924 N922 1.356 . S
C925 C919 1.363 . S
C925 C920 1.379 . S
C925 N923 1.356 . S
N926 C918 1.356 . S
N926 H932 0.984 . S
N926 H933 0.984 . S
N927 C920 1.356 . S
N927 H930 0.984 . S
N927 H931 0.985 . S
H928 N923 0.984 . S
H929 N923 0.985 . S
H930 N927 0.984 . S
H931 N927 0.985 . S
H932 N926 0.984 . S
H933 N926 0.984 . S
H934 N922 0.984 . S
H935 N922 0.985 . S
C936 C937 1.363 . S
C936 C942 1.379 . S
C936 N944 1.356 . S
C937 C936 1.363 . S
C937 C943 1.363 . S
C938 C939 1.363 . S
C938 C943 1.379 . S
C938 N945 1.356 . S
C939 C938 1.363 . S
C939 C942 1.363 . S
N940 C942 1.356 . S
N940 H952 0.984 . S
N940 H953 0.985 . S
N941 C943 1.356 . S
N941 H946 0.984 . S
N941 H947 0.985 . S
C942 C936 1.379 . S
C942 C939 1.363 . S
C942 N940 1.356 . S
C943 C937 1.363 . S
C943 C938 1.379 . S
C943 N941 1.356 . S
N944 C936 1.356 . S
N944 H950 0.984 . S
N944 H951 0.984 . S
N945 C938 1.356 . S
N945 H948 0.984 . S
N945 H949 0.985 . S
H946 N941 0.984 . S
H947 N941 0.985 . S
H948 N945 0.984 . S
H949 N945 0.985 . S
H950 N944 0.984 . S
H951 N944 0.984 . S
H952 N940 0.984 . S
H953 N940 0.985 . S
C954 C955 1.363 . S
C954 C960 1.379 . S
C954 N962 1.356 . S
C955 C954 1.363 . S
C955 C961 1.363 . S
C956 C957 1.363 . S
C956 C961 1.379 . S
C956 N963 1.356 . S
C957 C956 1.363 . S
C957 C960 1.363 . S
N958 C960 1.356 . S
N958 H970 0.984 . S
N958 H971 0.985 . S
N959 C961 1.356 . S
N959 H964 0.984 . S
N959 H965 0.985 . S
C960 C954 1.379 . S
C960 C957 1.363 . S
C960 N958 1.356 . S
C961 C955 1.363 . S
C961 C956 1.379 . S
C961 N959 1.356 . S
N962 C954 1.356 . S
N962 H968 0.984 . S
N962 H969 0.984 . S
N963 C956 1.356 . S
N963 H966 0.984 . S
N963 H967 0.985 . S
H964 N959 0.984 . S
H965 N959 0.985 . S
H966 N963 0.984 . S
H967 N963 0.985 . S
H968 N962 0.984 . S
H969 N962 0.984 . S
H970 N958 0.984 . S
H971 N958 0.985 . S
C972 C973 1.363 . S
C972 C978 1.379 . S
C972 N980 1.356 . S
C973 C972 1.363 . S
C973 C979 1.363 . S
C974 C975 1.363 . S
C974 C979 1.379 . S
C974 N981 1.356 . S
C975 C974 1.363 . S
C975 C978 1.363 . S
N976 C978 1.356 . S
N976 H988 0.984 . S
N976 H989 0.985 . S
N977 C979 1.356 . S
N977 H982 0.984 . S
N977 H983 0.985 . S
C978 C972 1.379 . S
C978 C975 1.363 . S
C978 N976 1.356 . S
C979 C973 1.363 . S
C979 C974 1.379 . S
C979 N977 1.356 . S
N980 C972 1.356 . S
N980 H986 0.984 . S
N980 H987 0.984 . S
N981 C974 1.356 . S
N981 H984 0.984 . S
N981 H985 0.985 . S
H982 N977 0.984 . S
H983 N977 0.985 . S
H984 N981 0.984 . S
H985 N981 0.985 . S
H986 N980 0.984 . S
H987 N980 0.984 . S
H988 N976 0.984 . S
H989 N976 0.985 . S
C990 C991 1.363 . S
C990 C996 1.379 . S
C990 N998 1.356 . S
C991 C990 1.363 . S
C991 C997 1.363 . S
C992 C993 1.363 . S
C992 C997 1.379 . S
C992 N999 1.356 . S
C993 C992 1.363 . S
C993 C996 1.363 . S
N994 C996 1.356 . S
N994 H1006 0.984 . S
N994 H1007 0.985 . S
N995 C997 1.356 . S
N995 H1000 0.984 . S
N995 H1001 0.985 . S
C996 C990 1.379 . S
C996 C993 1.363 . S
C996 N994 1.356 . S
C997 C991 1.363 . S
C997 C992 1.379 . S
C997 N995 1.356 . S
N998 C990 1.356 . S
N998 H1004 0.984 . S
N998 H1005 0.984 . S
N999 C992 1.356 . S
N999 H1002 0.984 . S
N999 H1003 0.985 . S
H1000 N995 0.984 . S
H1001 N995 0.985 . S
H1002 N999 0.984 . S
H1003 N999 0.985 . S
H1004 N998 0.984 . S
H1005 N998 0.984 . S
H1006 N994 0.984 . S
H1007 N994 0.985 . S
C1008 C1009 1.363 . S
C1008 C1014 1.379 . S
C1008 N1016 1.356 . S
C1009 C1008 1.363 . S
C1009 C1015 1.363 . S
C1010 C1011 1.363 . S
C1010 C1015 1.379 . S
C1010 N1017 1.356 . S
C1011 C1010 1.363 . S
C1011 C1014 1.363 . S
N1012 C1014 1.356 . S
N1012 H1024 0.984 . S
N1012 H1025 0.985 . S
N1013 C1015 1.356 . S
N1013 H1018 0.984 . S
N1013 H1019 0.985 . S
C1014 C1008 1.379 . S
C1014 C1011 1.363 . S
C1014 N1012 1.356 . S
C1015 C1009 1.363 . S
C1015 C1010 1.379 . S
C1015 N1013 1.356 . S
N1016 C1008 1.356 . S
N1016 H1022 0.984 . S
N1016 H1023 0.984 . S
N1017 C1010 1.356 . S
N1017 H1020 0.984 . S
N1017 H1021 0.985 . S
H1018 N1013 0.984 . S
H1019 N1013 0.985 . S
H1020 N1017 0.984 . S
H1021 N1017 0.985 . S
H1022 N1016 0.984 . S
H1023 N1016 0.984 . S
H1024 N1012 0.984 . S
H1025 N1012 0.985 . S
C1026 C1027 1.363 . S
C1026 C1032 1.379 . S
C1026 N1034 1.356 . S
C1027 C1026 1.363 . S
C1027 C1033 1.363 . S
C1028 C1029 1.363 . S
C1028 C1033 1.379 . S
C1028 N1035 1.356 . S
C1029 C1028 1.363 . S
C1029 C1032 1.363 . S
N1030 C1032 1.356 . S
N1030 H1042 0.984 . S
N1030 H1043 0.985 . S
N1031 C1033 1.356 . S
N1031 H1036 0.984 . S
N1031 H1037 0.985 . S
C1032 C1026 1.379 . S
C1032 C1029 1.363 . S
C1032 N1030 1.356 . S
C1033 C1027 1.363 . S
C1033 C1028 1.379 . S
C1033 N1031 1.356 . S
N1034 C1026 1.356 . S
N1034 H1040 0.984 . S
N1034 H1041 0.984 . S
N1035 C1028 1.356 . S
N1035 H1038 0.984 . S
N1035 H1039 0.985 . S
H1036 N1031 0.984 . S
H1037 N1031 0.985 . S
H1038 N1035 0.984 . S
H1039 N1035 0.985 . S
H1040 N1034 0.984 . S
H1041 N1034 0.984 . S
H1042 N1030 0.984 . S
H1043 N1030 0.985 . S
C1044 C1045 1.363 . S
C1044 C1050 1.379 . S
C1044 N1052 1.356 . S
C1045 C1044 1.363 . S
C1045 C1051 1.363 . S
C1046 C1047 1.363 . S
C1046 C1051 1.379 . S
C1046 N1053 1.356 . S
C1047 C1046 1.363 . S
C1047 C1050 1.363 . S
N1048 C1050 1.356 . S
N1048 H1060 0.984 . S
N1048 H1061 0.985 . S
N1049 C1051 1.356 . S
N1049 H1054 0.984 . S
N1049 H1055 0.985 . S
C1050 C1044 1.379 . S
C1050 C1047 1.363 . S
C1050 N1048 1.356 . S
C1051 C1045 1.363 . S
C1051 C1046 1.379 . S
C1051 N1049 1.356 . S
N1052 C1044 1.356 . S
N1052 H1058 0.984 . S
N1052 H1059 0.984 . S
N1053 C1046 1.356 . S
N1053 H1056 0.984 . S
N1053 H1057 0.985 . S
H1054 N1049 0.984 . S
H1055 N1049 0.985 . S
H1056 N1053 0.984 . S
H1057 N1053 0.985 . S
H1058 N1052 0.984 . S
H1059 N1052 0.984 . S
H1060 N1048 0.984 . S
H1061 N1048 0.985 . S
C1062 C1063 1.363 . S
C1062 C1068 1.379 . S
C1062 N1070 1.356 . S
C1063 C1062 1.363 . S
C1063 C1069 1.363 . S
C1064 C1065 1.363 . S
C1064 C1069 1.379 . S
C1064 N1071 1.356 . S
C1065 C1064 1.363 . S
C1065 C1068 1.363 . S
N1066 C1068 1.356 . S
N1066 H1078 0.984 . S
N1066 H1079 0.985 . S
N1067 C1069 1.356 . S
N1067 H1072 0.984 . S
N1067 H1073 0.985 . S
C1068 C1062 1.379 . S
C1068 C1065 1.363 . S
C1068 N1066 1.356 . S
C1069 C1063 1.363 . S
C1069 C1064 1.379 . S
C1069 N1067 1.356 . S
N1070 C1062 1.356 . S
N1070 H1076 0.984 . S
N1070 H1077 0.984 . S
N1071 C1064 1.356 . S
N1071 H1074 0.984 . S
N1071 H1075 0.985 . S
H1072 N1067 0.984 . S
H1073 N1067 0.985 . S
H1074 N1071 0.984 . S
H1075 N1071 0.985 . S
H1076 N1070 0.984 . S
H1077 N1070 0.984 . S
H1078 N1066 0.984 . S
H1079 N1066 0.985 . S
C1080 C1081 1.363 . S
C1080 C1086 1.379 . S
C1080 N1088 1.356 . S
C1081 C1080 1.363 . S
C1081 C1087 1.363 . S
C1082 C1083 1.363 . S
C1082 C1087 1.379 . S
C1082 N1089 1.356 . S
C1083 C1082 1.363 . S
C1083 C1086 1.363 . S
N1084 C1086 1.356 . S
N1084 H1096 0.984 . S
N1084 H1097 0.985 . S
N1085 C1087 1.356 . S
N1085 H1090 0.984 . S
N1085 H1091 0.985 . S
C1086 C1080 1.379 . S
C1086 C1083 1.363 . S
C1086 N1084 1.356 . S
C1087 C1081 1.363 . S
C1087 C1082 1.379 . S
C1087 N1085 1.356 . S
N1088 C1080 1.356 . S
N1088 H1094 0.984 . S
N1088 H1095 0.984 . S
N1089 C1082 1.356 . S
N1089 H1092 0.984 . S
N1089 H1093 0.985 . S
H1090 N1085 0.984 . S
H1091 N1085 0.985 . S
H1092 N1089 0.984 . S
H1093 N1089 0.985 . S
H1094 N1088 0.984 . S
H1095 N1088 0.984 . S
H1096 N1084 0.984 . S
H1097 N1084 0.985 . S
C1098 C1099 1.363 . S
C1098 C1104 1.379 . S
C1098 N1106 1.356 . S
C1099 C1098 1.363 . S
C1099 C1105 1.363 . S
C1100 C1101 1.363 . S
C1100 C1105 1.379 . S
C1100 N1107 1.356 . S
C1101 C1100 1.363 . S
C1101 C1104 1.363 . S
N1102 C1104 1.356 . S
N1102 H1114 0.984 . S
N1102 H1115 0.985 . S
N1103 C1105 1.356 . S
N1103 H1108 0.984 . S
N1103 H1109 0.985 . S
C1104 C1098 1.379 . S
C1104 C1101 1.363 . S
C1104 N1102 1.356 . S
C1105 C1099 1.363 . S
C1105 C1100 1.379 . S
C1105 N1103 1.356 . S
N1106 C1098 1.356 . S
N1106 H1112 0.984 . S
N1106 H1113 0.984 . S
N1107 C1100 1.356 . S
N1107 H1110 0.984 . S
N1107 H1111 0.985 . S
H1108 N1103 0.984 . S
H1109 N1103 0.985 . S
H1110 N1107 0.984 . S
H1111 N1107 0.985 . S
H1112 N1106 0.984 . S
H1113 N1106 0.984 . S
H1114 N1102 0.984 . S
H1115 N1102 0.985 . S
C1116 C1117 1.363 . S
C1116 C1122 1.379 . S
C1116 N1124 1.356 . S
C1117 C1116 1.363 . S
C1117 C1123 1.363 . S
C1118 C1119 1.363 . S
C1118 C1123 1.379 . S
C1118 N1125 1.356 . S
C1119 C1118 1.363 . S
C1119 C1122 1.363 . S
N1120 C1122 1.356 . S
N1120 H1132 0.984 . S
N1120 H1133 0.985 . S
N1121 C1123 1.356 . S
N1121 H1126 0.984 . S
N1121 H1127 0.985 . S
C1122 C1116 1.379 . S
C1122 C1119 1.363 . S
C1122 N1120 1.356 . S
C1123 C1117 1.363 . S
C1123 C1118 1.379 . S
C1123 N1121 1.356 . S
N1124 C1116 1.356 . S
N1124 H1130 0.984 . S
N1124 H1131 0.984 . S
N1125 C1118 1.356 . S
N1125 H1128 0.984 . S
N1125 H1129 0.985 . S
H1126 N1121 0.984 . S
H1127 N1121 0.985 . S
H1128 N1125 0.984 . S
H1129 N1125 0.985 . S
H1130 N1124 0.984 . S
H1131 N1124 0.984 . S
H1132 N1120 0.984 . S
H1133 N1120 0.985 . S
C1134 C1135 1.363 . S
C1134 C1140 1.379 . S
C1134 N1142 1.356 . S
C1135 C1134 1.363 . S
C1135 C1141 1.363 . S
C1136 C1137 1.363 . S
C1136 C1141 1.379 . S
C1136 N1143 1.356 . S
C1137 C1136 1.363 . S
C1137 C1140 1.363 . S
N1138 C1140 1.356 . S
N1138 H1150 0.984 . S
N1138 H1151 0.985 . S
N1139 C1141 1.356 . S
N1139 H1144 0.984 . S
N1139 H1145 0.985 . S
C1140 C1134 1.379 . S
C1140 C1137 1.363 . S
C1140 N1138 1.356 . S
C1141 C1135 1.363 . S
C1141 C1136 1.379 . S
C1141 N1139 1.356 . S
N1142 C1134 1.356 . S
N1142 H1148 0.984 . S
N1142 H1149 0.984 . S
N1143 C1136 1.356 . S
N1143 H1146 0.984 . S
N1143 H1147 0.985 . S
H1144 N1139 0.984 . S
H1145 N1139 0.985 . S
H1146 N1143 0.984 . S
H1147 N1143 0.985 . S
H1148 N1142 0.984 . S
H1149 N1142 0.984 . S
H1150 N1138 0.984 . S
H1151 N1138 0.985 . S
C1152 C1153 1.363 . S
C1152 C1158 1.379 . S
C1152 N1160 1.356 . S
C1153 C1152 1.363 . S
C1153 C1159 1.363 . S
C1154 C1155 1.363 . S
C1154 C1159 1.379 . S
C1154 N1161 1.356 . S
C1155 C1154 1.363 . S
C1155 C1158 1.363 . S
N1156 C1158 1.356 . S
N1156 H1168 0.984 . S
N1156 H1169 0.985 . S
N1157 C1159 1.356 . S
N1157 H1162 0.984 . S
N1157 H1163 0.985 . S
C1158 C1152 1.379 . S
C1158 C1155 1.363 . S
C1158 N1156 1.356 . S
C1159 C1153 1.363 . S
C1159 C1154 1.379 . S
C1159 N1157 1.356 . S
N1160 C1152 1.356 . S
N1160 H1166 0.984 . S
N1160 H1167 0.984 . S
N1161 C1154 1.356 . S
N1161 H1164 0.984 . S
N1161 H1165 0.985 . S
H1162 N1157 0.984 . S
H1163 N1157 0.985 . S
H1164 N1161 0.984 . S
H1165 N1161 0.985 . S
H1166 N1160 0.984 . S
H1167 N1160 0.984 . S
H1168 N1156 0.984 . S
H1169 N1156 0.985 . S
C1170 C1171 1.363 . S
C1170 C1176 1.379 . S
C1170 N1178 1.356 . S
C1171 C1170 1.363 . S
C1171 C1177 1.363 . S
C1172 C1173 1.363 . S
C1172 C1177 1.379 . S
C1172 N1179 1.356 . S
C1173 C1172 1.363 . S
C1173 C1176 1.363 . S
N1174 C1176 1.356 . S
N1174 H1186 0.984 . S
N1174 H1187 0.985 . S
N1175 C1177 1.356 . S
N1175 H1180 0.984 . S
N1175 H1181 0.985 . S
C1176 C1170 1.379 . S
C1176 C1173 1.363 . S
C1176 N1174 1.356 . S
C1177 C1171 1.363 . S
C1177 C1172 1.379 . S
C1177 N1175 1.356 . S
N1178 C1170 1.356 . S
N1178 H1184 0.984 . S
N1178 H1185 0.984 . S
N1179 C1172 1.356 . S
N1179 H1182 0.984 . S
N1179 H1183 0.985 . S
H1180 N1175 0.984 . S
H1181 N1175 0.985 . S
H1182 N1179 0.984 . S
H1183 N1179 0.985 . S
H1184 N1178 0.984 . S
H1185 N1178 0.984 . S
H1186 N1174 0.984 . S
H1187 N1174 0.985 . S
C1188 C1189 1.363 . S
C1188 C1194 1.379 . S
C1188 N1196 1.356 . S
C1189 C1188 1.363 . S
C1189 C1195 1.363 . S
C1190 C1191 1.363 . S
C1190 C1195 1.379 . S
C1190 N1197 1.356 . S
C1191 C1190 1.363 . S
C1191 C1194 1.363 . S
N1192 C1194 1.356 . S
N1192 H1204 0.984 . S
N1192 H1205 0.985 . S
N1193 C1195 1.356 . S
N1193 H1198 0.984 . S
N1193 H1199 0.985 . S
C1194 C1188 1.379 . S
C1194 C1191 1.363 . S
C1194 N1192 1.356 . S
C1195 C1189 1.363 . S
C1195 C1190 1.379 . S
C1195 N1193 1.356 . S
N1196 C1188 1.356 . S
N1196 H1202 0.984 . S
N1196 H1203 0.984 . S
N1197 C1190 1.356 . S
N1197 H1200 0.984 . S
N1197 H1201 0.985 . S
H1198 N1193 0.984 . S
H1199 N1193 0.985 . S
H1200 N1197 0.984 . S
H1201 N1197 0.985 . S
H1202 N1196 0.984 . S
H1203 N1196 0.984 . S
H1204 N1192 0.984 . S
H1205 N1192 0.985 . S
C1206 C1207 1.363 . S
C1206 C1212 1.379 . S
C1206 N1214 1.356 . S
C1207 C1206 1.363 . S
C1207 C1213 1.363 . S
C1208 C1209 1.363 . S
C1208 C1213 1.379 . S
C1208 N1215 1.356 . S
C1209 C1208 1.363 . S
C1209 C1212 1.363 . S
N1210 C1212 1.356 . S
N1210 H1222 0.984 . S
N1210 H1223 0.985 . S
N1211 C1213 1.356 . S
N1211 H1216 0.984 . S
N1211 H1217 0.985 . S
C1212 C1206 1.379 . S
C1212 C1209 1.363 . S
C1212 N1210 1.356 . S
C1213 C1207 1.363 . S
C1213 C1208 1.379 . S
C1213 N1211 1.356 . S
N1214 C1206 1.356 . S
N1214 H1220 0.984 . S
N1214 H1221 0.984 . S
N1215 C1208 1.356 . S
N1215 H1218 0.984 . S
N1215 H1219 0.985 . S
H1216 N1211 0.984 . S
H1217 N1211 0.985 . S
H1218 N1215 0.984 . S
H1219 N1215 0.985 . S
H1220 N1214 0.984 . S
H1221 N1214 0.984 . S
H1222 N1210 0.984 . S
H1223 N1210 0.985 . S
C1224 C1225 1.363 . S
C1224 C1230 1.379 . S
C1224 N1232 1.356 . S
C1225 C1224 1.363 . S
C1225 C1231 1.363 . S
C1226 C1227 1.363 . S
C1226 C1231 1.379 . S
C1226 N1233 1.356 . S
C1227 C1226 1.363 . S
C1227 C1230 1.363 . S
N1228 C1230 1.356 . S
N1228 H1240 0.984 . S
N1228 H1241 0.985 . S
N1229 C1231 1.356 . S
N1229 H1234 0.984 . S
N1229 H1235 0.985 . S
C1230 C1224 1.379 . S
C1230 C1227 1.363 . S
C1230 N1228 1.356 . S
C1231 C1225 1.363 . S
C1231 C1226 1.379 . S
C1231 N1229 1.356 . S
N1232 C1224 1.356 . S
N1232 H1238 0.984 . S
N1232 H1239 0.984 . S
N1233 C1226 1.356 . S
N1233 H1236 0.984 . S
N1233 H1237 0.985 . S
H1234 N1229 0.984 . S
H1235 N1229 0.985 . S
H1236 N1233 0.984 . S
H1237 N1233 0.985 . S
H1238 N1232 0.984 . S
H1239 N1232 0.984 . S
H1240 N1228 0.984 . S
H1241 N1228 0.985 . S
C1242 C1243 1.363 . S
C1242 C1248 1.379 . S
C1242 N1250 1.356 . S
C1243 C1242 1.363 . S
C1243 C1249 1.363 . S
C1244 C1245 1.363 . S
C1244 C1249 1.379 . S
C1244 N1251 1.356 . S
C1245 C1244 1.363 . S
C1245 C1248 1.363 . S
N1246 C1248 1.356 . S
N1246 H1258 0.984 . S
N1246 H1259 0.985 . S
N1247 C1249 1.356 . S
N1247 H1252 0.984 . S
N1247 H1253 0.985 . S
C1248 C1242 1.379 . S
C1248 C1245 1.363 . S
C1248 N1246 1.356 . S
C1249 C1243 1.363 . S
C1249 C1244 1.379 . S
C1249 N1247 1.356 . S
N1250 C1242 1.356 . S
N1250 H1256 0.984 . S
N1250 H1257 0.984 . S
N1251 C1244 1.356 . S
N1251 H1254 0.984 . S
N1251 H1255 0.985 . S
H1252 N1247 0.984 . S
H1253 N1247 0.985 . S
H1254 N1251 0.984 . S
H1255 N1251 0.985 . S
H1256 N1250 0.984 . S
H1257 N1250 0.984 . S
H1258 N1246 0.984 . S
H1259 N1246 0.985 . S
C1260 C1261 1.363 . S
C1260 C1266 1.379 . S
C1260 N1268 1.356 . S
C1261 C1260 1.363 . S
C1261 C1267 1.363 . S
C1262 C1263 1.363 . S
C1262 C1267 1.379 . S
C1262 N1269 1.356 . S
C1263 C1262 1.363 . S
C1263 C1266 1.363 . S
N1264 C1266 1.356 . S
N1264 H1276 0.984 . S
N1264 H1277 0.985 . S
N1265 C1267 1.356 . S
N1265 H1270 0.984 . S
N1265 H1271 0.985 . S
C1266 C1260 1.379 . S
C1266 C1263 1.363 . S
C1266 N1264 1.356 . S
C1267 C1261 1.363 . S
C1267 C1262 1.379 . S
C1267 N1265 1.356 . S
N1268 C1260 1.356 . S
N1268 H1274 0.984 . S
N1268 H1275 0.984 . S
N1269 C1262 1.356 . S
N1269 H1272 0.984 . S
N1269 H1273 0.985 . S
H1270 N1265 0.984 . S
H1271 N1265 0.985 . S
H1272 N1269 0.984 . S
H1273 N1269 0.985 . S
H1274 N1268 0.984 . S
H1275 N1268 0.984 . S
H1276 N1264 0.984 . S
H1277 N1264 0.985 . S
C1278 C1279 1.363 . S
C1278 C1284 1.379 . S
C1278 N1286 1.356 . S
C1279 C1278 1.363 . S
C1279 C1285 1.363 . S
C1280 C1281 1.363 . S
C1280 C1285 1.379 . S
C1280 N1287 1.356 . S
C1281 C1280 1.363 . S
C1281 C1284 1.363 . S
N1282 C1284 1.356 . S
N1282 H1294 0.984 . S
N1282 H1295 0.985 . S
N1283 C1285 1.356 . S
N1283 H1288 0.984 . S
N1283 H1289 0.985 . S
C1284 C1278 1.379 . S
C1284 C1281 1.363 . S
C1284 N1282 1.356 . S
C1285 C1279 1.363 . S
C1285 C1280 1.379 . S
C1285 N1283 1.356 . S
N1286 C1278 1.356 . S
N1286 H1292 0.984 . S
N1286 H1293 0.984 . S
N1287 C1280 1.356 . S
N1287 H1290 0.984 . S
N1287 H1291 0.985 . S
H1288 N1283 0.984 . S
H1289 N1283 0.985 . S
H1290 N1287 0.984 . S
H1291 N1287 0.985 . S
H1292 N1286 0.984 . S
H1293 N1286 0.984 . S
H1294 N1282 0.984 . S
H1295 N1282 0.985 . S
C1296 C1297 1.363 . S
C1296 C1302 1.379 . S
C1296 N1304 1.356 . S
C1297 C1296 1.363 . S
C1297 C1303 1.363 . S
C1298 C1299 1.363 . S
C1298 C1303 1.379 . S
C1298 N1305 1.356 . S
C1299 C1298 1.363 . S
C1299 C1302 1.363 . S
N1300 C1302 1.356 . S
N1300 H1312 0.984 . S
N1300 H1313 0.985 . S
N1301 C1303 1.356 . S
N1301 H1306 0.984 . S
N1301 H1307 0.985 . S
C1302 C1296 1.379 . S
C1302 C1299 1.363 . S
C1302 N1300 1.356 . S
C1303 C1297 1.363 . S
C1303 C1298 1.379 . S
C1303 N1301 1.356 . S
N1304 C1296 1.356 . S
N1304 H1310 0.984 . S
N1304 H1311 0.984 . S
N1305 C1298 1.356 . S
N1305 H1308 0.984 . S
N1305 H1309 0.985 . S
H1306 N1301 0.984 . S
H1307 N1301 0.985 . S
H1308 N1305 0.984 . S
H1309 N1305 0.985 . S
H1310 N1304 0.984 . S
H1311 N1304 0.984 . S
H1312 N1300 0.984 . S
H1313 N1300 0.985 . S
C1314 C1315 1.363 . S
C1314 C1320 1.379 1_554 S
C1314 N1322 1.356 . S
C1315 C1314 1.363 . S
C1315 C1321 1.363 1_554 S
C1316 C1317 1.363 . S
C1316 C1321 1.379 . S
C1316 N1323 1.356 . S
C1317 C1316 1.363 . S
C1317 C1320 1.363 . S
N1318 C1320 1.356 . S
N1318 H1330 0.984 . S
N1318 H1331 0.985 . S
N1319 C1321 1.356 1_554 S
N1319 H1324 0.984 . S
N1319 H1325 0.985 1_554 S
C1320 C1314 1.379 1_556 S
C1320 C1317 1.363 . S
C1320 N1318 1.356 . S
C1321 C1315 1.363 1_556 S
C1321 C1316 1.379 . S
C1321 N1319 1.356 1_556 S
N1322 C1314 1.356 . S
N1322 H1328 0.984 . S
N1322 H1329 0.984 . S
N1323 C1316 1.356 . S
N1323 H1326 0.984 . S
N1323 H1327 0.985 . S
H1324 N1319 0.984 . S
H1325 N1319 0.985 1_556 S
H1326 N1323 0.984 . S
H1327 N1323 0.985 . S
H1328 N1322 0.984 . S
H1329 N1322 0.984 . S
H1330 N1318 0.984 . S
H1331 N1318 0.985 . S
C1332 C1333 1.363 . S
C1332 C1338 1.379 . S
C1332 N1340 1.356 . S
C1333 C1332 1.363 . S
C1333 C1339 1.363 . S
C1334 C1335 1.363 . S
C1334 C1339 1.379 . S
C1334 N1341 1.356 . S
C1335 C1334 1.363 . S
C1335 C1338 1.363 . S
N1336 C1338 1.356 . S
N1336 H1348 0.984 . S
N1336 H1349 0.985 . S
N1337 C1339 1.356 . S
N1337 H1342 0.984 . S
N1337 H1343 0.985 . S
C1338 C1332 1.379 . S
C1338 C1335 1.363 . S
C1338 N1336 1.356 . S
C1339 C1333 1.363 . S
C1339 C1334 1.379 . S
C1339 N1337 1.356 . S
N1340 C1332 1.356 . S
N1340 H1346 0.984 . S
N1340 H1347 0.984 . S
N1341 C1334 1.356 . S
N1341 H1344 0.984 . S
N1341 H1345 0.985 . S
H1342 N1337 0.984 . S
H1343 N1337 0.985 . S
H1344 N1341 0.984 . S
H1345 N1341 0.985 . S
H1346 N1340 0.984 . S
H1347 N1340 0.984 . S
H1348 N1336 0.984 . S
H1349 N1336 0.985 . S
C1350 C1351 1.363 . S
C1350 C1356 1.379 . S
C1350 N1358 1.356 . S
C1351 C1350 1.363 . S
C1351 C1357 1.363 . S
C1352 C1353 1.363 . S
C1352 C1357 1.379 1_556 S
C1352 N1359 1.356 . S
C1353 C1352 1.363 . S
C1353 C1356 1.363 1_556 S
N1354 C1356 1.356 1_556 S
N1354 H1366 0.984 . S
N1354 H1367 0.985 . S
N1355 C1357 1.356 . S
N1355 H1360 0.984 . S
N1355 H1361 0.985 . S
C1356 C1350 1.379 . S
C1356 C1353 1.363 1_554 S
C1356 N1354 1.356 1_554 S
C1357 C1351 1.363 . S
C1357 C1352 1.379 1_554 S
C1357 N1355 1.356 . S
N1358 C1350 1.356 . S
N1358 H1364 0.984 . S
N1358 H1365 0.984 . S
N1359 C1352 1.356 . S
N1359 H1362 0.984 . S
N1359 H1363 0.985 . S
H1360 N1355 0.984 . S
H1361 N1355 0.985 . S
H1362 N1359 0.984 . S
H1363 N1359 0.985 . S
H1364 N1358 0.984 . S
H1365 N1358 0.984 . S
H1366 N1354 0.984 . S
H1367 N1354 0.985 . S
C1368 C1369 1.363 . S
C1368 C1374 1.379 . S
C1368 N1376 1.356 . S
C1369 C1368 1.363 . S
C1369 C1375 1.363 . S
C1370 C1371 1.363 . S
C1370 C1375 1.379 . S
C1370 N1377 1.356 . S
C1371 C1370 1.363 . S
C1371 C1374 1.363 . S
N1372 C1374 1.356 . S
N1372 H1384 0.984 . S
N1372 H1385 0.985 . S
N1373 C1375 1.356 . S
N1373 H1378 0.984 . S
N1373 H1379 0.985 . S
C1374 C1368 1.379 . S
C1374 C1371 1.363 . S
C1374 N1372 1.356 . S
C1375 C1369 1.363 . S
C1375 C1370 1.379 . S
C1375 N1373 1.356 . S
N1376 C1368 1.356 . S
N1376 H1382 0.984 . S
N1376 H1383 0.984 . S
N1377 C1370 1.356 . S
N1377 H1380 0.984 . S
N1377 H1381 0.985 . S
H1378 N1373 0.984 . S
H1379 N1373 0.985 . S
H1380 N1377 0.984 . S
H1381 N1377 0.985 . S
H1382 N1376 0.984 . S
H1383 N1376 0.984 . S
H1384 N1372 0.984 . S
H1385 N1372 0.985 . S
C1386 C1387 1.363 . S
C1386 C1392 1.379 1_655 S
C1386 N1394 1.356 . S
C1387 C1386 1.363 . S
C1387 C1393 1.363 1_655 S
C1388 C1389 1.363 . S
C1388 C1393 1.379 . S
C1388 N1395 1.356 . S
C1389 C1388 1.363 . S
C1389 C1392 1.363 . S
N1390 C1392 1.356 . S
N1390 H1402 0.984 . S
N1390 H1403 0.985 . S
N1391 C1393 1.356 1_655 S
N1391 H1396 0.984 . S
N1391 H1397 0.985 . S
C1392 C1386 1.379 1_455 S
C1392 C1389 1.363 . S
C1392 N1390 1.356 . S
C1393 C1387 1.363 1_455 S
C1393 C1388 1.379 . S
C1393 N1391 1.356 1_455 S
N1394 C1386 1.356 . S
N1394 H1400 0.984 . S
N1394 H1401 0.984 . S
N1395 C1388 1.356 . S
N1395 H1398 0.984 . S
N1395 H1399 0.985 . S
H1396 N1391 0.984 . S
H1397 N1391 0.985 . S
H1398 N1395 0.984 . S
H1399 N1395 0.985 . S
H1400 N1394 0.984 . S
H1401 N1394 0.984 . S
H1402 N1390 0.984 . S
H1403 N1390 0.985 . S
C1404 C1405 1.363 1_655 S
C1404 C1410 1.379 . S
C1404 N1412 1.356 1_655 S
C1405 C1404 1.363 1_455 S
C1405 C1411 1.363 . S
C1406 C1407 1.363 . S
C1406 C1411 1.379 1_655 S
C1406 N1413 1.356 . S
C1407 C1406 1.363 . S
C1407 C1410 1.363 . S
N1408 C1410 1.356 . S
N1408 H1420 0.984 . S
N1408 H1421 0.985 . S
N1409 C1411 1.356 . S
N1409 H1414 0.984 . S
N1409 H1415 0.985 . S
C1410 C1404 1.379 . S
C1410 C1407 1.363 . S
C1410 N1408 1.356 . S
C1411 C1405 1.363 . S
C1411 C1406 1.379 1_455 S
C1411 N1409 1.356 . S
N1412 C1404 1.356 1_455 S
N1412 H1418 0.984 1_455 S
N1412 H1419 0.984 . S
N1413 C1406 1.356 . S
N1413 H1416 0.984 . S
N1413 H1417 0.985 . S
H1414 N1409 0.984 . S
H1415 N1409 0.985 . S
H1416 N1413 0.984 . S
H1417 N1413 0.985 . S
H1418 N1412 0.984 1_655 S
H1419 N1412 0.984 . S
H1420 N1408 0.984 . S
H1421 N1408 0.985 . S
C1422 C1423 1.363 . S
C1422 C1428 1.379 . S
C1422 N1430 1.356 . S
C1423 C1422 1.363 . S
C1423 C1429 1.363 . S
C1424 C1425 1.363 . S
C1424 C1429 1.379 . S
C1424 N1431 1.356 . S
C1425 C1424 1.363 . S
C1425 C1428 1.363 . S
N1426 C1428 1.356 . S
N1426 H1438 0.984 . S
N1426 H1439 0.985 . S
N1427 C1429 1.356 . S
N1427 H1432 0.984 . S
N1427 H1433 0.985 . S
C1428 C1422 1.379 . S
C1428 C1425 1.363 . S
C1428 N1426 1.356 . S
C1429 C1423 1.363 . S
C1429 C1424 1.379 . S
C1429 N1427 1.356 . S
N1430 C1422 1.356 . S
N1430 H1436 0.984 . S
N1430 H1437 0.984 . S
N1431 C1424 1.356 . S
N1431 H1434 0.984 . S
N1431 H1435 0.985 . S
H1432 N1427 0.984 . S
H1433 N1427 0.985 . S
H1434 N1431 0.984 . S
H1435 N1431 0.985 . S
H1436 N1430 0.984 . S
H1437 N1430 0.984 . S
H1438 N1426 0.984 . S
H1439 N1426 0.985 . S
C1440 C1441 1.363 . S
C1440 C1446 1.379 . S
C1440 N1448 1.356 . S
C1441 C1440 1.363 . S
C1441 C1447 1.363 . S
C1442 C1443 1.363 . S
C1442 C1447 1.379 . S
C1442 N1449 1.356 . S
C1443 C1442 1.363 . S
C1443 C1446 1.363 . S
N1444 C1446 1.356 . S
N1444 H1456 0.984 . S
N1444 H1457 0.985 . S
N1445 C1447 1.356 . S
N1445 H1450 0.984 . S
N1445 H1451 0.985 . S
C1446 C1440 1.379 . S
C1446 C1443 1.363 . S
C1446 N1444 1.356 . S
C1447 C1441 1.363 . S
C1447 C1442 1.379 . S
C1447 N1445 1.356 . S
N1448 C1440 1.356 . S
N1448 H1454 0.984 . S
N1448 H1455 0.984 . S
N1449 C1442 1.356 . S
N1449 H1452 0.984 . S
N1449 H1453 0.985 . S
H1450 N1445 0.984 . S
H1451 N1445 0.985 . S
H1452 N1449 0.984 . S
H1453 N1449 0.985 . S
H1454 N1448 0.984 . S
H1455 N1448 0.984 . S
H1456 N1444 0.984 . S
H1457 N1444 0.985 . S
C1458 C1459 1.363 1_545 S
C1458 C1464 1.379 . S
C1458 N1466 1.356 1_545 S
C1459 C1458 1.363 1_565 S
C1459 C1465 1.363 1_565 S
C1460 C1461 1.363 . S
C1460 C1465 1.379 . S
C1460 N1467 1.356 . S
C1461 C1460 1.363 . S
C1461 C1464 1.363 . S
N1462 C1464 1.356 . S
N1462 H1474 0.984 . S
N1462 H1475 0.985 . S
N1463 C1465 1.356 1_565 S
N1463 H1468 0.984 . S
N1463 H1469 0.985 . S
C1464 C1458 1.379 . S
C1464 C1461 1.363 . S
C1464 N1462 1.356 . S
C1465 C1459 1.363 1_545 S
C1465 C1460 1.379 . S
C1465 N1463 1.356 1_545 S
N1466 C1458 1.356 1_565 S
N1466 H1472 0.984 . S
N1466 H1473 0.984 . S
N1467 C1460 1.356 . S
N1467 H1470 0.984 . S
N1467 H1471 0.985 . S
H1468 N1463 0.984 . S
H1469 N1463 0.985 . S
H1470 N1467 0.984 . S
H1471 N1467 0.985 . S
H1472 N1466 0.984 . S
H1473 N1466 0.984 . S
H1474 N1462 0.984 . S
H1475 N1462 0.985 . S
C1476 C1477 1.363 1_565 S
C1476 C1482 1.379 . S
C1476 N1484 1.356 1_565 S
C1477 C1476 1.363 1_545 S
C1477 C1483 1.363 1_545 S
C1478 C1479 1.363 . S
C1478 C1483 1.379 . S
C1478 N1485 1.356 . S
C1479 C1478 1.363 . S
C1479 C1482 1.363 . S
N1480 C1482 1.356 . S
N1480 H1492 0.984 . S
N1480 H1493 0.985 . S
N1481 C1483 1.356 1_545 S
N1481 H1486 0.984 . S
N1481 H1487 0.977 1_545 S
C1482 C1476 1.379 . S
C1482 C1479 1.363 . S
C1482 N1480 1.356 . S
C1483 C1477 1.363 1_565 S
C1483 C1478 1.379 . S
C1483 N1481 1.356 1_565 S
N1484 C1476 1.356 1_545 S
N1484 H1490 0.984 . S
N1484 H1491 0.984 . S
N1485 C1478 1.356 . S
N1485 H1488 0.984 . S
N1485 H1489 0.985 . S
H1486 N1481 0.984 . S
H1487 N1481 0.977 1_565 S
H1488 N1485 0.984 . S
H1489 N1485 0.985 . S
H1490 N1484 0.984 . S
H1491 N1484 0.984 . S
H1492 N1480 0.984 . S
H1493 N1480 0.985 . S
C1494 C1495 1.363 . S
C1494 C1500 1.379 . S
C1494 N1502 1.356 . S
C1495 C1494 1.363 . S
C1495 C1501 1.363 . S
C1496 C1497 1.363 . S
C1496 C1501 1.379 . S
C1496 N1503 1.356 . S
C1497 C1496 1.363 . S
C1497 C1500 1.363 . S
N1498 C1500 1.356 . S
N1498 H1510 0.984 . S
N1498 H1511 0.985 . S
N1499 C1501 1.356 . S
N1499 H1504 0.984 . S
N1499 H1505 0.985 . S
C1500 C1494 1.379 . S
C1500 C1497 1.363 . S
C1500 N1498 1.356 . S
C1501 C1495 1.363 . S
C1501 C1496 1.379 . S
C1501 N1499 1.356 . S
N1502 C1494 1.356 . S
N1502 H1508 0.984 . S
N1502 H1509 0.984 . S
N1503 C1496 1.356 . S
N1503 H1506 0.984 . S
N1503 H1507 0.985 . S
H1504 N1499 0.984 . S
H1505 N1499 0.985 . S
H1506 N1503 0.984 . S
H1507 N1503 0.985 . S
H1508 N1502 0.984 . S
H1509 N1502 0.984 . S
H1510 N1498 0.984 . S
H1511 N1498 0.985 . S
C1512 C1513 1.363 . S
C1512 C1518 1.379 . S
C1512 N1520 1.356 . S
C1513 C1512 1.363 . S
C1513 C1519 1.363 . S
C1514 C1515 1.363 . S
C1514 C1519 1.379 . S
C1514 N1521 1.356 . S
C1515 C1514 1.363 . S
C1515 C1518 1.363 . S
N1516 C1518 1.356 . S
N1516 H1528 0.984 . S
N1516 H1529 0.985 . S
N1517 C1519 1.356 . S
N1517 H1522 0.984 . S
N1517 H1523 0.985 . S
C1518 C1512 1.379 . S
C1518 C1515 1.363 . S
C1518 N1516 1.356 . S
C1519 C1513 1.363 . S
C1519 C1514 1.379 . S
C1519 N1517 1.356 . S
N1520 C1512 1.356 . S
N1520 H1526 0.984 . S
N1520 H1527 0.984 . S
N1521 C1514 1.356 . S
N1521 H1524 0.984 . S
N1521 H1525 0.985 . S
H1522 N1517 0.984 . S
H1523 N1517 0.985 . S
H1524 N1521 0.984 . S
H1525 N1521 0.985 . S
H1526 N1520 0.984 . S
H1527 N1520 0.984 . S
H1528 N1516 0.984 . S
H1529 N1516 0.985 . S
C1530 C1531 1.363 1_554 S
C1530 C1536 1.379 . S
C1530 N1538 1.356 1_554 S
C1531 C1530 1.363 1_556 S
C1531 C1537 1.363 1_556 S
C1532 C1533 1.363 . S
C1532 C1537 1.379 . S
C1532 N1539 1.356 . S
C1533 C1532 1.363 . S
C1533 C1536 1.363 . S
N1534 C1536 1.356 . S
N1534 H1546 0.984 . S
N1534 H1547 0.985 . S
N1535 C1537 1.356 1_556 S
N1535 H1540 0.984 . S
N1535 H1541 0.985 . S
C1536 C1530 1.379 . S
C1536 C1533 1.363 . S
C1536 N1534 1.356 . S
C1537 C1531 1.363 1_554 S
C1537 C1532 1.379 . S
C1537 N1535 1.356 1_554 S
N1538 C1530 1.356 1_556 S
N1538 H1544 0.984 . S
N1538 H1545 0.984 . S
N1539 C1532 1.356 . S
N1539 H1542 0.984 . S
N1539 H1543 0.985 . S
H1540 N1535 0.984 . S
H1541 N1535 0.985 . S
H1542 N1539 0.984 . S
H1543 N1539 0.985 . S
H1544 N1538 0.984 . S
H1545 N1538 0.984 . S
H1546 N1534 0.984 . S
H1547 N1534 0.985 . S
C1548 C1549 1.363 . S
C1548 C1554 1.379 . S
C1548 N1556 1.356 . S
C1549 C1548 1.363 . S
C1549 C1555 1.363 . S
C1550 C1551 1.363 . S
C1550 C1555 1.379 . S
C1550 N1557 1.356 . S
C1551 C1550 1.363 . S
C1551 C1554 1.363 . S
N1552 C1554 1.356 . S
N1552 H1564 0.984 . S
N1552 H1565 0.985 . S
N1553 C1555 1.356 . S
N1553 H1558 0.984 . S
N1553 H1559 0.985 . S
C1554 C1548 1.379 . S
C1554 C1551 1.363 . S
C1554 N1552 1.356 . S
C1555 C1549 1.363 . S
C1555 C1550 1.379 . S
C1555 N1553 1.356 . S
N1556 C1548 1.356 . S
N1556 H1562 0.984 . S
N1556 H1563 0.984 . S
N1557 C1550 1.356 . S
N1557 H1560 0.984 . S
N1557 H1561 0.985 . S
H1558 N1553 0.984 . S
H1559 N1553 0.985 . S
H1560 N1557 0.984 . S
H1561 N1557 0.985 . S
H1562 N1556 0.984 . S
H1563 N1556 0.984 . S
H1564 N1552 0.984 . S
H1565 N1552 0.985 . S
C1566 C1567 1.363 1_556 S
C1566 C1572 1.379 . S
C1566 N1574 1.356 1_556 S
C1567 C1566 1.363 1_554 S
C1567 C1573 1.363 1_554 S
C1568 C1569 1.363 . S
C1568 C1573 1.379 . S
C1568 N1575 1.356 . S
C1569 C1568 1.363 . S
C1569 C1572 1.363 . S
N1570 C1572 1.356 . S
N1570 H1582 0.984 . S
N1570 H1583 0.985 . S
N1571 C1573 1.356 1_554 S
N1571 H1576 0.984 . S
N1571 H1577 0.985 . S
C1572 C1566 1.379 . S
C1572 C1569 1.363 . S
C1572 N1570 1.356 . S
C1573 C1567 1.363 1_556 S
C1573 C1568 1.379 . S
C1573 N1571 1.356 1_556 S
N1574 C1566 1.356 1_554 S
N1574 H1580 0.984 . S
N1574 H1581 0.984 . S
N1575 C1568 1.356 . S
N1575 H1578 0.984 . S
N1575 H1579 0.985 . S
H1576 N1571 0.984 . S
H1577 N1571 0.985 . S
H1578 N1575 0.984 . S
H1579 N1575 0.985 . S
H1580 N1574 0.984 . S
H1581 N1574 0.984 . S
H1582 N1570 0.984 . S
H1583 N1570 0.985 . S
C1584 C1585 1.363 . S
C1584 C1590 1.379 . S
C1584 N1592 1.356 . S
C1585 C1584 1.363 . S
C1585 C1591 1.363 . S
C1586 C1587 1.363 . S
C1586 C1591 1.379 . S
C1586 N1593 1.356 . S
C1587 C1586 1.363 . S
C1587 C1590 1.363 . S
N1588 C1590 1.356 . S
N1588 H1600 0.984 . S
N1588 H1601 0.985 . S
N1589 C1591 1.356 . S
N1589 H1594 0.984 . S
N1589 H1595 0.985 . S
C1590 C1584 1.379 . S
C1590 C1587 1.363 . S
C1590 N1588 1.356 . S
C1591 C1585 1.363 . S
C1591 C1586 1.379 . S
C1591 N1589 1.356 . S
N1592 C1584 1.356 . S
N1592 H1598 0.984 . S
N1592 H1599 0.984 . S
N1593 C1586 1.356 . S
N1593 H1596 0.984 . S
N1593 H1597 0.985 . S
H1594 N1589 0.984 . S
H1595 N1589 0.985 . S
H1596 N1593 0.984 . S
H1597 N1593 0.985 . S
H1598 N1592 0.984 . S
H1599 N1592 0.984 . S
H1600 N1588 0.984 . S
H1601 N1588 0.985 . S
C1602 C1603 1.363 . S
C1602 C1608 1.379 . S
C1602 N1610 1.356 . S
C1603 C1602 1.363 . S
C1603 C1609 1.363 . S
C1604 C1605 1.363 . S
C1604 C1609 1.379 1_455 S
C1604 N1611 1.356 . S
C1605 C1604 1.363 . S
C1605 C1608 1.363 1_455 S
N1606 C1608 1.356 1_455 S
N1606 H1618 0.984 1_455 S
N1606 H1619 0.985 . S
N1607 C1609 1.356 . S
N1607 H1612 0.984 . S
N1607 H1613 0.985 . S
C1608 C1602 1.379 . S
C1608 C1605 1.363 1_655 S
C1608 N1606 1.356 1_655 S
C1609 C1603 1.363 . S
C1609 C1604 1.379 1_655 S
C1609 N1607 1.356 . S
N1610 C1602 1.356 . S
N1610 H1616 0.984 . S
N1610 H1617 0.984 . S
N1611 C1604 1.356 . S
N1611 H1614 0.984 . S
N1611 H1615 0.985 . S
H1612 N1607 0.984 . S
H1613 N1607 0.985 . S
H1614 N1611 0.984 . S
H1615 N1611 0.985 . S
H1616 N1610 0.984 . S
H1617 N1610 0.984 . S
H1618 N1606 0.984 1_655 S
H1619 N1606 0.985 . S
C1620 C1621 1.363 . S
C1620 C1626 1.379 . S
C1620 N1628 1.356 . S
C1621 C1620 1.363 . S
C1621 C1627 1.363 . S
C1622 C1623 1.363 . S
C1622 C1627 1.379 1_655 S
C1622 N1629 1.356 . S
C1623 C1622 1.363 . S
C1623 C1626 1.363 1_655 S
N1624 C1626 1.356 1_655 S
N1624 H1636 0.984 1_655 S
N1624 H1637 0.985 . S
N1625 C1627 1.356 . S
N1625 H1630 0.984 . S
N1625 H1631 0.985 . S
C1626 C1620 1.379 . S
C1626 C1623 1.363 1_455 S
C1626 N1624 1.356 1_455 S
C1627 C1621 1.363 . S
C1627 C1622 1.379 1_455 S
C1627 N1625 1.356 . S
N1628 C1620 1.356 . S
N1628 H1634 0.984 . S
N1628 H1635 0.984 . S
N1629 C1622 1.356 . S
N1629 H1632 0.984 . S
N1629 H1633 0.985 . S
H1630 N1625 0.984 . S
H1631 N1625 0.985 . S
H1632 N1629 0.984 . S
H1633 N1629 0.985 . S
H1634 N1628 0.984 . S
H1635 N1628 0.984 . S
H1636 N1624 0.984 1_455 S
H1637 N1624 0.985 . S
C1638 C1639 1.363 . S
C1638 C1644 1.379 . S
C1638 N1646 1.356 . S
C1639 C1638 1.363 . S
C1639 C1645 1.363 . S
C1640 C1641 1.363 . S
C1640 C1645 1.379 . S
C1640 N1647 1.356 . S
C1641 C1640 1.363 . S
C1641 C1644 1.363 . S
N1642 C1644 1.356 . S
N1642 H1654 0.984 . S
N1642 H1655 0.985 . S
N1643 C1645 1.356 . S
N1643 H1648 0.984 . S
N1643 H1649 0.985 . S
C1644 C1638 1.379 . S
C1644 C1641 1.363 . S
C1644 N1642 1.356 . S
C1645 C1639 1.363 . S
C1645 C1640 1.379 . S
C1645 N1643 1.356 . S
N1646 C1638 1.356 . S
N1646 H1652 0.984 . S
N1646 H1653 0.984 . S
N1647 C1640 1.356 . S
N1647 H1650 0.984 . S
N1647 H1651 0.985 . S
H1648 N1643 0.984 . S
H1649 N1643 0.985 . S
H1650 N1647 0.984 . S
H1651 N1647 0.985 . S
H1652 N1646 0.984 . S
H1653 N1646 0.984 . S
H1654 N1642 0.984 . S
H1655 N1642 0.985 . S
C1656 C1657 1.363 . S
C1656 C1662 1.379 . S
C1656 N1664 1.356 . S
C1657 C1656 1.363 . S
C1657 C1663 1.363 . S
C1658 C1659 1.363 . S
C1658 C1663 1.379 . S
C1658 N1665 1.356 . S
C1659 C1658 1.363 . S
C1659 C1662 1.363 . S
N1660 C1662 1.356 . S
N1660 H1672 0.984 . S
N1660 H1673 0.985 . S
N1661 C1663 1.356 . S
N1661 H1666 0.984 . S
N1661 H1667 0.985 . S
C1662 C1656 1.379 . S
C1662 C1659 1.363 . S
C1662 N1660 1.356 . S
C1663 C1657 1.363 . S
C1663 C1658 1.379 . S
C1663 N1661 1.356 . S
N1664 C1656 1.356 . S
N1664 H1670 0.984 . S
N1664 H1671 0.984 . S
N1665 C1658 1.356 . S
N1665 H1668 0.984 . S
N1665 H1669 0.985 . S
H1666 N1661 0.984 . S
H1667 N1661 0.985 . S
H1668 N1665 0.984 . S
H1669 N1665 0.985 . S
H1670 N1664 0.984 . S
H1671 N1664 0.984 . S
H1672 N1660 0.984 . S
H1673 N1660 0.985 . S
C1674 C1675 1.363 . S
C1674 C1680 1.379 1_565 S
C1674 N1682 1.356 . S
C1675 C1674 1.363 . S
C1675 C1681 1.363 . S
C1676 C1677 1.363 1_565 S
C1676 C1681 1.379 . S
C1676 N1683 1.356 1_565 S
C1677 C1676 1.363 1_545 S
C1677 C1680 1.363 . S
N1678 C1680 1.356 . S
N1678 H1690 0.984 . S
N1678 H1691 0.985 . S
N1679 C1681 1.356 . S
N1679 H1684 0.984 . S
N1679 H1685 0.985 . S
C1680 C1674 1.379 1_545 S
C1680 C1677 1.363 . S
C1680 N1678 1.356 . S
C1681 C1675 1.363 . S
C1681 C1676 1.379 . S
C1681 N1679 1.356 . S
N1682 C1674 1.356 . S
N1682 H1688 0.984 . S
N1682 H1689 0.984 . S
N1683 C1676 1.356 1_545 S
N1683 H1686 0.984 . S
N1683 H1687 0.985 . S
H1684 N1679 0.984 . S
H1685 N1679 0.985 . S
H1686 N1683 0.984 . S
H1687 N1683 0.985 . S
H1688 N1682 0.984 . S
H1689 N1682 0.984 . S
H1690 N1678 0.984 . S
H1691 N1678 0.985 . S
C1692 C1693 1.363 1_545 S
C1692 C1698 1.379 . S
C1692 N1700 1.356 1_545 S
C1693 C1692 1.363 1_565 S
C1693 C1699 1.363 . S
C1694 C1695 1.363 . S
C1694 C1699 1.379 1_545 S
C1694 N1701 1.356 . S
C1695 C1694 1.363 . S
C1695 C1698 1.363 . S
N1696 C1698 1.356 . S
N1696 H1708 0.984 . S
N1696 H1709 0.985 . S
N1697 C1699 1.356 . S
N1697 H1702 0.984 . S
N1697 H1703 0.985 . S
C1698 C1692 1.379 . S
C1698 C1695 1.363 . S
C1698 N1696 1.356 . S
C1699 C1693 1.363 . S
C1699 C1694 1.379 1_565 S
C1699 N1697 1.356 . S
N1700 C1692 1.356 1_565 S
N1700 H1706 0.984 1_565 S
N1700 H1707 0.984 . S
N1701 C1694 1.356 . S
N1701 H1704 0.984 . S
N1701 H1705 0.985 . S
H1702 N1697 0.984 . S
H1703 N1697 0.985 . S
H1704 N1701 0.984 . S
H1705 N1701 0.985 . S
H1706 N1700 0.984 1_545 S
H1707 N1700 0.984 . S
H1708 N1696 0.984 . S
H1709 N1696 0.985 . S
C1710 C1711 1.363 . S
C1710 C1716 1.379 . S
C1710 N1718 1.356 . S
C1711 C1710 1.363 . S
C1711 C1717 1.363 . S
C1712 C1713 1.363 . S
C1712 C1717 1.379 . S
C1712 N1719 1.356 . S
C1713 C1712 1.363 . S
C1713 C1716 1.363 . S
N1714 C1716 1.356 . S
N1714 H1726 0.984 . S
N1714 H1727 0.985 . S
N1715 C1717 1.356 . S
N1715 H1720 0.984 . S
N1715 H1721 0.985 . S
C1716 C1710 1.379 . S
C1716 C1713 1.363 . S
C1716 N1714 1.356 . S
C1717 C1711 1.363 . S
C1717 C1712 1.379 . S
C1717 N1715 1.356 . S
N1718 C1710 1.356 . S
N1718 H1724 0.984 . S
N1718 H1725 0.984 . S
N1719 C1712 1.356 . S
N1719 H1722 0.984 . S
N1719 H1723 0.985 . S
H1720 N1715 0.984 . S
H1721 N1715 0.985 . S
H1722 N1719 0.984 . S
H1723 N1719 0.985 . S
H1724 N1718 0.984 . S
H1725 N1718 0.984 . S
H1726 N1714 0.984 . S
H1727 N1714 0.985 . S
C865 C291 1.185 . S
C867 C3 1.165 . S
C883 C39 1.165 . S
C885 C399 1.185 . S
C901 C75 1.165 . S
C903 C327 1.185 . S
C919 C111 1.165 . S
C921 C363 1.185 . S
C937 C147 1.208 . S
C939 C2 1.168 . S
C955 C38 1.168 . S
C957 C183 1.208 . S
C973 C219 1.208 . S
C975 C74 1.168 . S
C991 C110 1.168 . S
C993 C255 1.208 . S
C1009 C146 1.257 . S
C1011 C290 1.219 . S
C1027 C218 1.257 . S
C1029 C326 1.219 . S
C1045 C362 1.219 . S
C1047 C254 1.257 . S
C1063 C182 1.257 . S
C1065 C398 1.219 . S
C1081 C722 1.185 . S
C1083 C435 1.202 . S
C1099 C471 1.202 . S
C1101 C830 1.185 . S
C1117 C507 1.202 . S
C1119 C758 1.185 . S
C1135 C794 1.185 . S
C1137 C543 1.202 . S
C1153 C579 1.219 . S
C1155 C434 1.202 . S
C1171 C470 1.202 . S
C1173 C615 1.219 . S
C1189 C506 1.202 . S
C1191 C651 1.219 . S
C1207 C687 1.219 . S
C1209 C542 1.202 . S
C1225 C723 1.211 . S
C1227 C578 1.191 . S
C1243 C650 1.191 . S
C1245 C759 1.211 . S
C1261 C686 1.191 . S
C1263 C795 1.211 . S
C1279 C831 1.211 . S
C1281 C614 1.191 . S
C1297 C806 1.381 . S
C1299 C4 1.386 . S
C1315 C770 1.381 . S
C1317 C40 1.386 . S
C1333 C842 1.381 . S
C1335 C76 1.386 . S
C1351 C112 1.386 . S
C1353 C734 1.381 . S
C1369 C148 1.404 . S
C1371 C482 1.394 . S
C1387 C446 1.394 . S
C1389 C184 1.404 . S
C1405 C554 1.394 . S
C1407 C220 1.404 . S
C1423 C518 1.394 . S
C1425 C256 1.404 . S
C1441 C302 1.400 . S
C1443 C662 1.389 . S
C1459 C590 1.389 . S
C1461 C338 1.400 . S
C1477 C626 1.389 . S
C1479 C374 1.400 . S
C1495 C698 1.389 . S
C1497 C410 1.400 . S
C1513 C364 1.452 . S
C1515 C436 1.432 . S
C1531 C328 1.452 . S
C1533 C472 1.432 . S
C1549 C508 1.432 . S
C1551 C400 1.452 . S
C1567 C292 1.452 . S
C1569 C544 1.432 . S
C1585 C580 1.410 . S
C1587 C50 1.411 . S
C1603 C616 1.410 . S
C1605 C14 1.411 . S
C1621 C652 1.410 . S
C1623 C122 1.411 . S
C1639 C688 1.410 . S
C1641 C86 1.411 . S
C1657 C724 1.409 . S
C1659 C230 1.405 . S
C1675 C760 1.409 . S
C1677 C158 1.405 . S
C1693 C194 1.405 . S
C1695 C796 1.409 . S
C1711 C832 1.409 . S
C1713 C266 1.405 . S
