# Generated by pormake.
# Topology smc, (6)-cn, num edge types: 1
# Building blocks:
#     Node 0, Type 0, BuildingBlock: NUHQIS_clean_sbu_0, # of connection points: 6
#     Node 1, Type 0, BuildingBlock: NUHQIS_clean_sbu_0, # of connection points: 6
#     Node 2, Type 0, BuildingBlock: NUHQIS_clean_sbu_0, # of connection points: 6
#     Node 3, Type 0, BuildingBlock: NUHQIS_clean_sbu_0, # of connection points: 6
#     Node 4, Type 0, BuildingBlock: NUHQIS_clean_sbu_0, # of connection points: 6
#     Node 5, Type 0, BuildingBlock: NUHQIS_clean_sbu_0, # of connection points: 6
#     Node 6, Type 0, BuildingBlock: NUHQIS_clean_sbu_0, # of connection points: 6
#     Node 7, Type 0, BuildingBlock: NUHQIS_clean_sbu_0, # of connection points: 6
#     Node 8, Type 0, BuildingBlock: NUHQIS_clean_sbu_0, # of connection points: 6
#     Edge 9, Type (0, 0), BuildingBlock: CIFDUS_clean_linker_0, # of connection points: 2
#     Edge 10, Type (0, 0), BuildingBlock: CIFDUS_clean_linker_0, # of connection points: 2
#     Edge 11, Type (0, 0), BuildingBlock: CIFDUS_clean_linker_0, # of connection points: 2
#     Edge 12, Type (0, 0), BuildingBlock: CIFDUS_clean_linker_0, # of connection points: 2
#     Edge 13, Type (0, 0), BuildingBlock: CIFDUS_clean_linker_0, # of connection points: 2
#     Edge 14, Type (0, 0), BuildingBlock: CIFDUS_clean_linker_0, # of connection points: 2
#     Edge 15, Type (0, 0), BuildingBlock: CIFDUS_clean_linker_0, # of connection points: 2
#     Edge 16, Type (0, 0), BuildingBlock: CIFDUS_clean_linker_0, # of connection points: 2
#     Edge 17, Type (0, 0), BuildingBlock: CIFDUS_clean_linker_0, # of connection points: 2
#     Edge 18, Type (0, 0), BuildingBlock: CIFDUS_clean_linker_0, # of connection points: 2
#     Edge 19, Type (0, 0), BuildingBlock: CIFDUS_clean_linker_0, # of connection points: 2
#     Edge 20, Type (0, 0), BuildingBlock: CIFDUS_clean_linker_0, # of connection points: 2
#     Edge 21, Type (0, 0), BuildingBlock: CIFDUS_clean_linker_0, # of connection points: 2
#     Edge 22, Type (0, 0), BuildingBlock: CIFDUS_clean_linker_0, # of connection points: 2
#     Edge 23, Type (0, 0), BuildingBlock: CIFDUS_clean_linker_0, # of connection points: 2
#     Edge 24, Type (0, 0), BuildingBlock: CIFDUS_clean_linker_0, # of connection points: 2
#     Edge 25, Type (0, 0), BuildingBlock: CIFDUS_clean_linker_0, # of connection points: 2
#     Edge 26, Type (0, 0), BuildingBlock: CIFDUS_clean_linker_0, # of connection points: 2
#     Edge 27, Type (0, 0), BuildingBlock: CIFDUS_clean_linker_0, # of connection points: 2
#     Edge 28, Type (0, 0), BuildingBlock: CIFDUS_clean_linker_0, # of connection points: 2
#     Edge 29, Type (0, 0), BuildingBlock: CIFDUS_clean_linker_0, # of connection points: 2
#     Edge 30, Type (0, 0), BuildingBlock: CIFDUS_clean_linker_0, # of connection points: 2
#     Edge 31, Type (0, 0), BuildingBlock: CIFDUS_clean_linker_0, # of connection points: 2
#     Edge 32, Type (0, 0), BuildingBlock: CIFDUS_clean_linker_0, # of connection points: 2
#     Edge 33, Type (0, 0), BuildingBlock: CIFDUS_clean_linker_0, # of connection points: 2
#     Edge 34, Type (0, 0), BuildingBlock: CIFDUS_clean_linker_0, # of connection points: 2
#     Edge 35, Type (0, 0), BuildingBlock: CIFDUS_clean_linker_0, # of connection points: 2
# Relax obj value: 0.362
# Max RMSD: 0.389
# Mean RMSD: 0.334
data_MOF--net-smc--node1-NUHQIS_clean_sbu_0--edge1-CIFDUS_clean_linker_0
_symmetry_space_group_name_H-M    P1
_symmetry_Int_Tables_number       1
_symmetry_cell_setting            triclinic
loop_
_symmetry_equiv_pos_as_xyz
'x, y, z'
_cell_length_a     39.341136
_cell_length_b     28.970632
_cell_length_c     35.381676
_cell_angle_alpha  91.499881
_cell_angle_beta   90.720274
_cell_angle_gamma 119.33253
loop_
_atom_site_label
_atom_site_type_symbol
_atom_site_fract_x
_atom_site_fract_y
_atom_site_fract_z
_atom_type_partial_charge
Tb0 Tb 0.06561 0.49362 0.01814 0.0
Eu1 Eu 0.08704 0.4035 0.999 0.0
C2 C 0.11112 0.46248 0.07937 0.0
C3 C 0.14819 0.52864 0.98907 0.0
C4 C 1.00983 0.56038 0.0457 0.0
C5 C 0.97542 0.60274 0.07284 0.0
C6 C 1.01018 0.60518 0.06184 0.0
C7 C 0.97443 0.51288 0.04073 0.0
C8 C 0.93959 0.51033 0.05178 0.0
C9 C 0.93972 0.55525 0.06804 0.0
C10 C 1.04671 0.56279 0.0361 0.0
O11 O 1.02627 0.44791 0.96824 0.0
O12 O 0.06428 0.41609 0.94364 0.0
O13 O 1.02164 0.36123 1.00593 0.0
O14 O 1.02194 0.4244 0.04562 0.0
C15 C 1.03432 0.42403 0.94 0.0
O16 O 0.11035 0.36658 0.96091 0.0
O17 O 0.08721 0.33088 0.01428 0.0
O18 O 0.09537 0.41581 0.06227 0.0
O19 O 0.10936 0.50184 0.06285 0.0
O20 O 0.11687 0.53297 0.98409 0.0
O21 O 0.14461 0.48333 1.00029 0.0
C22 C 1.00371 0.37674 0.02988 0.0
O23 O 1.05928 0.54099 0.06012 0.0
O24 O 1.04963 0.5496 1.0013 0.0
C25 C 0.14911 0.34491 0.99737 0.0
C26 C 0.22618 0.42569 0.99689 0.0
C27 C 0.21146 0.38645 0.96764 0.0
C28 C 0.17296 0.34559 0.9681 0.0
C29 C 0.16653 0.37682 0.0303 0.0
C30 C 0.20488 0.41786 0.02978 0.0
C31 C 0.10995 0.33472 0.98656 0.0
H32 H 0.97647 0.63837 0.08448 0.0
H33 H 1.03735 0.64205 0.06599 0.0
H34 H 0.97381 0.47781 0.02847 0.0
H35 H 0.91264 0.4732 0.04776 0.0
H36 H 0.22823 0.39055 0.94266 0.0
H37 H 0.1603 0.32071 0.94276 0.0
H38 H 0.14903 0.37623 0.05387 0.0
H39 H 0.21595 0.4468 0.05316 0.0
Tb40 Tb 0.58808 0.61869 0.97338 0.0
Eu41 Eu 0.65999 0.66228 0.01866 0.0
C42 C 0.67186 0.66291 0.92917 0.0
C43 C 0.60809 0.52612 0.9972 0.0
C44 C 0.49367 0.60221 0.94908 0.0
C45 C 0.43029 0.59253 0.93579 0.0
C46 C 0.45985 0.58141 0.92638 0.0
C47 C 0.49951 0.63844 0.97896 0.0
C48 C 0.47025 0.65028 0.98809 0.0
C49 C 0.4343 0.62466 0.96816 0.0
C50 C 0.5215 0.58324 0.94371 0.0
O51 O 0.58402 0.641 0.03516 0.0
O52 O 0.61616 0.60276 0.05474 0.0
O53 O 0.64084 0.7327 0.01932 0.0
O54 O 0.59499 0.6991 0.97257 0.0
C55 C 0.59493 0.62313 0.06442 0.0
O56 O 0.68784 0.6984 0.07363 0.0
O57 O 0.7219 0.69147 0.0285 0.0
O58 O 0.68936 0.67794 0.96234 0.0
O59 O 0.63282 0.63775 0.92741 0.0
O60 O 0.58524 0.5396 0.97815 0.0
O61 O 0.63985 0.56722 0.01469 0.0
C62 C 0.61451 0.73834 0.99737 0.0
O63 O 0.55332 0.61571 0.92693 0.0
O64 O 0.52853 0.56361 0.97373 0.0
C65 C 0.73875 0.68089 0.08958 0.0
C66 C 0.78157 0.63543 0.11913 0.0
C67 C 0.79802 0.69085 0.11883 0.0
C68 C 0.77674 0.7134 0.10395 0.0
C69 C 0.72075 0.62592 0.0936 0.0
C70 C 0.74207 0.60328 0.10833 0.0
C71 C 0.72129 0.70311 0.06424 0.0
H72 H 0.40295 0.5715 0.91982 0.0
H73 H 0.45518 0.55378 0.90303 0.0
H74 H 0.52559 0.65491 0.99685 0.0
H75 H 0.47444 0.67564 0.01277 0.0
H76 H 0.82846 0.71666 0.12666 0.0
H77 H 0.79101 0.75591 0.10088 0.0
H78 H 0.69132 0.6003 0.08262 0.0
H79 H 0.7286 0.56051 0.1086 0.0
Tb80 Tb 0.58184 0.11757 0.0329 0.0
Eu81 Eu 0.49957 1.05047 1.0045 0.0
C82 C 0.50959 0.0601 0.09064 0.0
C83 C 0.5551 0.99078 0.01723 0.0
C84 C 0.69324 0.20363 0.05141 0.0
C85 C 0.75493 0.25785 0.08569 0.0
C86 C 0.7143 0.22664 0.08541 0.0
C87 C 0.71336 0.21518 0.01732 0.0
C88 C 0.754 0.24612 0.01761 0.0
C89 C 0.77533 0.26623 0.05194 0.0
C90 C 0.65275 0.15968 0.05313 0.0
O91 O 0.57533 0.13763 0.97191 0.0
O92 O 0.53286 0.05518 0.95398 0.0
O93 O 0.51693 0.14773 1.00612 0.0
O94 O 0.58041 0.19136 0.02761 0.0
C95 C 0.55431 0.10332 0.94405 0.0
O96 O 0.45339 1.00778 0.96076 0.0
O97 O 0.43759 1.01376 0.01795 0.0
O98 O 0.49518 1.02403 0.06373 0.0
O99 O 0.54239 0.10434 0.08323 0.0
O100 O 0.57917 1.03785 0.03322 0.0
O101 O 0.52162 0.98563 1.00264 0.0
C102 C 0.55021 0.19532 0.01576 0.0
O103 O 0.62709 0.1658 0.07257 0.0
O104 O 0.63751 0.12958 0.02263 0.0
C105 C 0.39449 0.93374 0.98197 0.0
C106 C 0.33125 0.82668 0.97757 0.0
C107 C 0.33869 0.86127 0.94755 0.0
C108 C 0.36967 0.91373 0.94974 0.0
C109 C 0.38818 0.89891 0.0116 0.0
C110 C 0.35709 0.84606 0.00935 0.0
C111 C 0.42509 0.99129 0.98448 0.0
H112 H 0.77051 0.27264 0.11261 0.0
H113 H 0.69957 0.21774 0.1121 0.0
H114 H 0.69801 0.19793 0.9906 0.0
H115 H 0.76888 0.25277 0.99109 0.0
H116 H 0.32006 0.848 0.9223 0.0
H117 H 0.37371 0.9392 0.92635 0.0
H118 H 0.40676 0.9128 0.03688 0.0
H119 H 0.35239 0.82107 0.03316 0.0
Tb120 Tb 0.6925 0.81379 0.35401 0.0
Eu121 Eu 0.76147 0.76912 0.33473 0.0
C122 C 0.75133 0.80675 0.41824 0.0
C123 C 0.77645 0.88885 0.33032 0.0
C124 C 0.60869 0.85951 0.36021 0.0
C125 C 0.54514 0.84582 0.38284 0.0
C126 C 0.57654 0.83465 0.38403 0.0
C127 C 0.60826 0.89738 0.33583 0.0
C128 C 0.57688 0.90893 0.33485 0.0
C129 C 0.54399 0.88261 0.3578 0.0
C130 C 0.63989 0.8421 0.35814 0.0
O131 O 0.68061 0.7737 0.2951 0.0
O132 O 0.72859 0.75094 0.2791 0.0
O133 O 0.69401 0.69731 0.33762 0.0
O134 O 0.67185 0.73833 0.37862 0.0
C135 C 0.69633 0.75308 0.27094 0.0
O136 O 0.80266 0.73593 0.32153 0.0
O137 O 0.8257 0.8174 0.34116 0.0
O138 O 0.75277 0.76971 0.39727 0.0
O139 O 0.73295 0.83273 0.40587 0.0
O140 O 0.74868 0.88379 0.35257 0.0
O141 O 0.77437 0.84797 0.31136 0.0
C142 C 0.66429 0.69684 0.3575 0.0
O143 O 0.64325 0.81048 0.38182 0.0
O144 O 0.66786 0.86017 0.33384 0.0
C145 C 0.87966 0.79608 0.32749 0.0
C146 C 0.96547 0.82611 0.32441 0.0
C147 C 0.93352 0.77281 0.31979 0.0
C148 C 0.89264 0.7585 0.32117 0.0
C149 C 0.91138 0.84935 0.33181 0.0
C150 C 0.95231 0.86375 0.33016 0.0
C151 C 0.83477 0.7815 0.32992 0.0
H152 H 0.52128 0.82479 0.40165 0.0
H153 H 0.57499 0.8051 0.40311 0.0
H154 H 0.63192 0.91741 0.31663 0.0
H155 H 0.57778 0.93719 0.31491 0.0
H156 H 0.93979 0.74085 0.31455 0.0
H157 H 0.87095 0.71708 0.31735 0.0
H158 H 0.90461 0.88097 0.33667 0.0
H159 H 0.97385 0.90519 0.33413 0.0
Tb160 Tb 0.27573 0.89801 0.3134 0.0
Eu161 Eu 0.3089 1.01274 0.32089 0.0
C162 C 0.29037 0.95038 0.39683 0.0
C163 C 0.21153 0.93454 0.31726 0.0
C164 C 0.25228 0.78607 0.25218 0.0
C165 C 0.30112 0.77061 0.22251 0.0
C166 C 0.29153 0.79914 0.24864 0.0
C167 C 0.22503 0.75354 0.22423 0.0
C168 C 0.23517 0.72579 0.19818 0.0
C169 C 0.27061 0.72532 0.20397 0.0
C170 C 0.23993 0.80796 0.28335 0.0
O171 O 0.31371 0.9293 0.26197 0.0
O172 O 0.34216 1.01854 0.26843 0.0
O173 O 0.36203 0.99642 0.33185 0.0
O174 O 0.33184 0.90586 0.32835 0.0
C175 C 0.33957 0.97709 0.2505 0.0
O176 O 0.3142 0.08706 0.30247 0.0
O177 O 0.34151 0.08488 0.35572 0.0
O178 O 0.28992 0.98924 0.37976 0.0
O179 O 0.287 0.90923 0.37625 0.0
O180 O 0.22156 0.90041 0.32985 0.0
O181 O 0.24131 0.97904 0.30489 0.0
C182 C 0.36393 0.95142 0.3334 0.0
O183 O 0.25936 0.8176 0.31569 0.0
O184 O 0.23386 0.84657 0.27355 0.0
C185 C 0.30466 0.12735 0.35577 0.0
C186 C 0.25296 0.15526 0.38927 0.0
C187 C 0.28994 0.19474 0.37799 0.0
C188 C 0.31571 0.18077 0.36126 0.0
C189 C 0.26856 0.08811 0.36852 0.0
C190 C 0.24289 0.10191 0.38519 0.0
C191 C 0.32897 0.11071 0.33535 0.0
H192 H 0.33036 0.77594 0.22387 0.0
H193 H 0.31404 0.82818 0.26773 0.0
H194 H 0.19541 0.74685 0.22414 0.0
H195 H 0.21205 0.69644 0.17981 0.0
H196 H 0.29807 0.23627 0.38015 0.0
H197 H 0.34345 0.21135 0.35149 0.0
H198 H 0.25952 1.04657 0.36434 0.0
H199 H 0.21463 0.07089 0.39354 0.0
Tb200 Tb 0.22123 0.46201 0.37272 0.0
Eu201 Eu 0.12366 0.3878 0.34316 0.0
C202 C 0.14388 0.42221 0.43164 0.0
C203 C 0.17305 0.34206 0.38102 0.0
C204 C 0.33891 0.52416 0.37945 0.0
C205 C 0.40064 0.53016 0.40447 0.0
C206 C 0.36 0.51316 0.40716 0.0
C207 C 0.3612 0.55248 0.3482 0.0
C208 C 0.40208 0.5691 0.34526 0.0
C209 C 0.42338 0.55942 0.3738 0.0
C210 C 0.29648 0.51291 0.38676 0.0
O211 O 0.21374 0.46844 0.30945 0.0
O212 O 0.16515 0.38551 0.30177 0.0
O213 O 0.14835 0.47375 0.32934 0.0
O214 O 0.19288 0.5094 0.37818 0.0
C215 C 0.18846 0.42971 0.28608 0.0
O216 O 0.08205 0.32069 0.30781 0.0
O217 O 0.06434 0.37403 0.33395 0.0
O218 O 0.11904 0.40713 0.40284 0.0
O219 O 0.18306 0.44187 0.42667 0.0
O220 O 0.20256 0.37911 0.36331 0.0
O221 O 0.13846 0.33833 0.3804 0.0
C222 C 0.176 0.51564 0.348 0.0
O223 O 0.27137 0.47053 0.40381 0.0
O224 O 0.27795 0.52716 0.36303 0.0
C225 C 1.01607 0.28466 0.32135 0.0
C226 C 0.94777 0.18868 0.33261 0.0
C227 C 0.956 0.21024 0.2966 0.0
C228 C 0.9899 0.25789 0.29105 0.0
C229 C 1.00753 0.26436 0.35767 0.0
C230 C 0.97337 0.21667 0.36332 0.0
C231 C 1.05355 0.33067 0.31344 0.0
H232 H 0.41453 0.52073 0.42729 0.0
H233 H 0.34522 0.49253 0.43208 0.0
H234 H 0.34728 0.56328 0.32623 0.0
H235 H 0.4174 0.59167 0.3212 0.0
H236 H 0.93651 0.18975 0.27258 0.0
H237 H 0.99627 0.27309 0.26283 0.0
H238 H 1.02777 0.2845 0.38128 0.0
H239 H 0.96775 0.20067 0.39131 0.0
Tb240 Tb 0.40132 0.14631 0.68715 0.0
Eu241 Eu 0.41608 1.04964 0.67493 0.0
C242 C 0.43783 0.11036 0.75325 0.0
C243 C 0.4827 0.17282 0.66147 0.0
C244 C 0.3516 0.22596 0.70542 0.0
C245 C 0.32259 0.27983 0.72411 0.0
C246 C 0.35557 0.27447 0.71839 0.0
C247 C 0.31421 0.18251 0.69847 0.0
C248 C 0.28113 0.18787 0.70405 0.0
C249 C 0.28497 0.23667 0.7169 0.0
C250 C 0.38671 0.22119 0.69999 0.0
O251 O 0.36832 0.10393 0.63277 0.0
O252 O 0.3996 0.0576 0.61618 0.0
O253 O 0.34938 1.01408 0.67519 0.0
O254 O 0.35198 0.08091 0.71241 0.0
C255 C 0.37526 0.07443 0.60761 0.0
O256 O 0.44563 1.01021 0.64935 0.0
O257 O 0.40528 0.97263 0.69416 0.0
O258 O 0.41586 0.06397 0.737 0.0
O259 O 0.44274 0.15227 0.73467 0.0
O260 O 0.4534 0.18073 0.65468 0.0
O261 O 0.4763 0.12756 0.67594 0.0
C262 C 0.33196 1.03315 0.69716 0.0
O263 O 0.39454 0.19688 0.72618 0.0
O264 O 0.39105 0.20585 0.66637 0.0
C265 C 0.46684 0.97795 0.69841 0.0
C266 C 0.54343 1.03864 0.72574 0.0
C267 C 0.53526 1.00549 0.69332 0.0
C268 C 0.49691 0.975 0.67967 0.0
C269 C 0.47458 1.00303 0.73463 0.0
C270 C 0.51294 1.03409 0.748 0.0
C271 C 0.43444 0.97503 0.67547 0.0
H272 H 0.32658 0.3181 0.7335 0.0
H273 H 0.38425 0.30833 0.72398 0.0
H274 H 0.31065 0.14456 0.68875 0.0
H275 H 0.25257 0.15376 0.6986 0.0
H276 H 0.55873 1.00881 0.67584 0.0
H277 H 0.49163 0.95589 0.65181 0.0
H278 H 0.45181 1.00515 0.75008 0.0
H279 H 0.51884 0.05949 0.77306 0.0
Tb280 Tb 0.90332 0.28518 0.65249 0.0
Eu281 Eu 0.97872 0.33406 0.69431 0.0
C282 C 0.9864 0.32995 0.60542 0.0
C283 C 0.92786 0.1968 0.67578 0.0
C284 C 0.80419 0.25571 0.63159 0.0
C285 C 0.7373 0.23467 0.6206 0.0
C286 C 0.77063 0.234 0.60823 0.0
C287 C 0.80555 0.28278 0.66556 0.0
C288 C 0.77236 0.2835 0.67791 0.0
C289 C 0.73735 0.25663 0.65658 0.0
C290 C 0.83598 0.24494 0.62322 0.0
O291 O 0.9019 0.31 0.71409 0.0
O292 O 0.9371 0.27556 0.73256 0.0
O293 O 0.95911 0.40409 0.69382 0.0
O294 O 0.90386 0.36212 0.65749 0.0
C295 C 0.91509 0.29436 0.74291 0.0
O296 O 1.00941 0.35736 0.74961 0.0
O297 O 1.04206 0.37924 0.69847 0.0
O298 O 1.00514 0.34199 0.63779 0.0
O299 O 0.94736 0.30763 0.60502 0.0
O300 O 0.90054 0.20626 0.66179 0.0
O301 O 0.96159 0.24068 0.68734 0.0
C302 C 0.9283 0.40566 0.67693 0.0
O303 O 0.86651 0.28334 0.60819 0.0
O304 O 0.84546 0.224 0.65084 0.0
C305 C 0.06933 0.3567 0.7485 0.0
C306 C 0.12399 0.32173 0.75975 0.0
C307 C 0.13439 0.37503 0.76745 0.0
C308 C 0.10728 0.39237 0.76172 0.0
C309 C 1.05813 0.30294 0.7429 0.0
C310 C 0.08522 0.28557 0.74852 0.0
C311 C 1.04376 0.37682 0.73504 0.0
H312 H 0.71049 0.21316 0.60382 0.0
H313 H 0.76929 0.21323 0.58186 0.0
H314 H 0.83135 0.29985 0.68393 0.0
H315 H 0.773 0.30053 0.70572 0.0
H316 H 0.16408 0.40397 0.7758 0.0
H317 H 0.11651 0.43411 0.76578 0.0
H318 H 1.02897 0.27487 0.73247 0.0
H319 H 0.07616 0.24416 0.74286 0.0
Tb320 Tb 0.89876 0.78966 0.6921 0.0
Eu321 Eu 0.81292 0.71773 0.67774 0.0
C322 C 0.83255 0.75783 0.75752 0.0
C323 C 0.87454 0.66476 0.68521 0.0
C324 C 1.01585 0.86513 0.69645 0.0
C325 C 0.07882 0.88958 0.72723 0.0
C326 C 1.03846 0.87143 0.72929 0.0
C327 C 1.03491 0.87958 0.66184 0.0
C328 C 0.07509 0.89803 0.65979 0.0
C329 C 0.09769 0.90211 0.69224 0.0
C330 C 0.97229 0.83704 0.69679 0.0
O331 O 0.87954 0.80696 0.63462 0.0
O332 O 0.83168 0.7255 0.61867 0.0
O333 O 0.82739 0.81324 0.67513 0.0
O334 O 0.89109 0.86015 0.69675 0.0
C335 C 0.85304 0.77389 0.60881 0.0
O336 O 0.75704 0.66873 0.64575 0.0
O337 O 0.75994 0.66386 0.70638 0.0
O338 O 0.81348 0.76214 0.72931 0.0
O339 O 0.86643 0.75949 0.74873 0.0
O340 O 0.90139 0.71461 0.68115 0.0
O341 O 0.83824 0.6573 0.68916 0.0
C342 C 0.85976 0.86187 0.68503 0.0
O343 O 0.9512 0.83531 0.72572 0.0
O344 O 0.95181 0.81431 0.66586 0.0
C345 C 0.71262 0.58407 0.67413 0.0
C346 C 0.66153 0.47097 0.67483 0.0
C347 C 0.68331 0.49547 0.64264 0.0
C348 C 0.70849 0.55111 0.6423 0.0
C349 C 0.69051 0.55962 0.70589 0.0
C350 C 0.66562 0.5045 0.70628 0.0
C351 C 0.73854 0.64359 0.67562 0.0
H352 H 0.09488 0.89178 0.75291 0.0
H353 H 1.02465 0.86001 0.75633 0.0
H354 H 1.01853 0.87542 0.63593 0.0
H355 H 0.08834 0.90858 0.63246 0.0
H356 H 0.68138 0.47162 0.61779 0.0
H357 H 0.72475 0.56819 0.61717 0.0
H358 H 0.69232 0.58344 0.73077 0.0
H359 H 0.64898 0.48833 0.73136 0.0
H360 H 0.37024 0.6203 0.93419 0.0
H361 H 0.41738 0.61337 0.04331 0.0
H362 H 0.35232 0.55566 0.06508 0.0
H363 H 0.28646 0.4855 0.04614 0.0
H364 H 0.24086 0.48381 0.93429 0.0
H365 H 0.30066 0.56425 0.92006 0.0
C366 C 0.36605 0.60752 0.96314 0.0
C367 C 0.39859 0.61839 0.98617 0.0
C368 C 0.3289 0.57007 0.97429 0.0
C369 C 0.39294 0.60438 0.02434 0.0
C370 C 0.35564 0.57023 0.03669 0.0
C371 C 0.28943 0.50339 0.01896 0.0
C372 C 0.26044 0.47758 0.99061 0.0
C373 C 0.3241 0.54901 0.01072 0.0
C374 C 0.26393 0.5017 0.95582 0.0
C375 C 0.29778 0.54806 0.94786 0.0
H376 H 0.53037 0.88854 0.97379 0.0
H377 H 0.61235 0.98699 0.06194 0.0
H378 H 0.63776 0.92535 0.06548 0.0
H379 H 0.63915 0.8402 0.04409 0.0
H380 H 0.55859 0.74498 0.95368 0.0
H381 H 0.53261 0.80528 0.9517 0.0
C382 C 0.55363 0.89718 0.99421 0.0
C383 C 0.5681 0.94534 0.01788 0.0
C384 C 0.56963 0.86028 0.99599 0.0
C385 C 0.59913 0.9523 0.04303 0.0
C386 C 0.61427 0.91604 0.04516 0.0
C387 C 0.61605 0.83194 0.02358 0.0
C388 C 0.60203 0.78447 0.99901 0.0
C389 C 0.60025 0.86927 0.0218 0.0
C390 C 0.57149 0.77861 0.97352 0.0
C391 C 0.55594 0.81423 0.97215 0.0
H392 H 0.32098 0.7287 1.00009 0.0
H393 H 0.25839 0.80256 0.9531 0.0
H394 H 0.19851 0.71791 0.95028 0.0
H395 H 0.16258 0.62363 0.96232 0.0
H396 H 0.22216 0.54643 0.01007 0.0
H397 H 0.28399 0.63065 0.01079 0.0
C398 C 0.29424 0.72628 0.98926 0.0
C399 C 0.29483 0.77277 0.97649 0.0
C400 C 0.25911 0.67649 0.98761 0.0
C401 C 0.25955 0.76806 0.96247 0.0
C402 C 0.22497 0.71939 0.96101 0.0
C403 C 0.18902 0.62471 0.9727 0.0
C404 C 0.18725 0.57802 0.98604 0.0
C405 C 0.22429 0.67342 0.97352 0.0
C406 C 0.22229 0.58115 0.99928 0.0
C407 C 0.25774 0.62966 0.99998 0.0
H408 H 0.52773 0.26221 0.96659 0.0
H409 H 0.59609 0.27583 0.06665 0.0
H410 H 0.62093 0.37086 0.07042 0.0
H411 H 0.62655 0.4571 0.04634 0.0
H412 H 0.55705 0.44451 0.94758 0.0
H413 H 0.53172 0.34893 0.94357 0.0
C414 C 0.54738 0.28491 0.98997 0.0
C415 C 0.55837 0.25651 0.01677 0.0
C416 C 0.56289 0.34347 0.99241 0.0
C417 C 0.5854 0.29199 0.04526 0.0
C418 C 0.60037 0.34837 0.04755 0.0
C419 C 0.60608 0.43438 0.02349 0.0
C420 C 0.59523 0.46308 0.99698 0.0
C421 C 0.59002 0.37589 0.0213 0.0
C422 C 0.56755 0.42791 0.96881 0.0
C423 C 0.55239 0.37129 0.96639 0.0
H424 H 0.82079 0.23457 0.01456 0.0
H425 H 0.82703 0.35601 0.09224 0.0
H426 H 0.89815 0.39745 0.0953 0.0
H427 H 0.95831 0.40111 0.07408 0.0
H428 H 0.9526 0.28179 0.99443 0.0
H429 H 0.88134 0.23712 0.99442 0.0
C430 C 0.83775 0.27045 0.03183 0.0
C431 C 0.81863 0.29245 0.05289 0.0
C432 C 0.87862 0.29412 0.03337 0.0
C433 C 0.84099 0.33823 0.07584 0.0
C434 C 0.88164 0.36195 0.07756 0.0
C435 C 0.9416 0.36503 0.05693 0.0
C436 C 0.96092 0.34495 0.0342 0.0
C437 C 0.90074 0.34037 0.05632 0.0
C438 C 0.9386 0.29804 0.01234 0.0
C439 C 0.89782 0.27271 0.01207 0.0
H440 H 0.92609 0.60059 0.13024 0.0
H441 H 0.87022 0.50687 0.02833 0.0
H442 H 0.81255 0.51532 0.03984 0.0
H443 H 0.78273 0.56087 0.07287 0.0
H444 H 0.84005 0.66016 0.17211 0.0
H445 H 0.89253 0.63807 0.16763 0.0
C446 C 0.90119 0.58178 0.11067 0.0
C447 C 0.90275 0.55389 0.07815 0.0
C448 C 0.86855 0.58815 0.11683 0.0
C449 C 0.86984 0.52849 0.05362 0.0
C450 C 0.83692 0.53362 0.06002 0.0
C451 C 0.80599 0.57626 0.09432 0.0
C452 C 0.80763 0.61225 0.12271 0.0
C453 C 0.83654 0.56485 0.09078 0.0
C454 C 0.83835 0.63262 0.14987 0.0
C455 C 0.86839 0.6202 0.14719 0.0
H456 H 1.0387 0.92431 0.31049 0.0
H457 H 0.99942 0.76223 0.33886 0.0
H458 H 0.06635 0.77927 0.33901 0.0
H459 H 0.13913 0.83939 0.33177 0.0
H460 H 0.17974 1.00117 0.30277 0.0
H461 H 0.11229 0.98491 0.30268 0.0
C462 C 1.04412 0.8921 0.31683 0.0
C463 C 1.01076 0.84071 0.32426 0.0
C464 C 0.08473 0.90232 0.31691 0.0
C465 C 1.02167 0.80166 0.33213 0.0
C466 C 0.06114 0.81166 0.33253 0.0
C467 C 0.1338 0.87166 0.32531 0.0
C468 C 0.1671 0.92238 0.3172 0.0
C469 C 0.09341 0.86171 0.32495 0.0
C470 C 0.15681 0.96185 0.30905 0.0
C471 C 0.11729 0.95233 0.30904 0.0
H472 H 0.13675 0.23641 0.36843 0.0
H473 H 0.2257 0.36474 0.43712 0.0
H474 H 0.25304 0.30887 0.45577 0.0
H475 H 0.26167 0.23344 0.43826 0.0
H476 H 0.17793 0.1099 0.36239 0.0
H477 H 0.13757 0.15223 0.36195 0.0
C478 C 0.16107 0.25099 0.38869 0.0
C479 C 0.17985 0.30414 0.40109 0.0
C480 C 0.17787 0.21961 0.39746 0.0
C481 C 0.21139 0.32366 0.42711 0.0
C482 C 0.22705 0.29192 0.43758 0.0
C483 C 0.23397 0.21515 0.42261 0.0
C484 C 0.22327 0.16987 0.39957 0.0
C485 C 0.2122 0.24125 0.42073 0.0
C486 C 0.18692 0.14527 0.3801 0.0
C487 C 0.16402 0.16975 0.37949 0.0
H488 H 0.92636 0.10021 0.28911 0.0
H489 H 0.89319 0.15874 0.38721 0.0
H490 H 0.83646 0.07102 0.39453 0.0
H491 H 0.79668 0.97812 0.37294 0.0
H492 H 0.83108 0.91922 0.27568 0.0
H493 H 0.88694 1.00713 0.26787 0.0
C494 C 0.90647 0.0938 0.31188 0.0
C495 C 0.91361 0.13577 0.33741 0.0
C496 C 0.87423 1.04344 0.31596 0.0
C497 C 0.88823 0.12685 0.36731 0.0
C498 C 0.85579 0.07687 0.37138 0.0
C499 C 0.81618 0.98457 0.34981 0.0
C500 C 0.80949 0.94231 0.32469 0.0
C501 C 0.84851 1.03494 0.34582 0.0
C502 C 0.83544 0.95113 0.2953 0.0
C503 C 0.86742 1.00134 0.29083 0.0
H504 H 0.30728 0.70134 0.26155 0.0
H505 H 0.22385 0.62605 0.16905 0.0
H506 H 0.17974 0.55897 0.211 0.0
H507 H 0.1613 0.52989 0.27527 0.0
H508 H 0.24588 0.60332 0.36755 0.0
H509 H 0.29245 0.66596 0.32426 0.0
C510 C 0.28005 0.66937 0.24983 0.0
C511 C 0.26627 0.67272 0.21346 0.0
C512 C 0.25446 0.63202 0.27454 0.0
C513 C 0.23364 0.627 0.19796 0.0
C514 C 0.20798 0.58897 0.22211 0.0
C515 C 0.1899 0.55938 0.28612 0.0
C516 C 0.20006 0.56142 0.32467 0.0
C517 C 0.21723 0.59313 0.26088 0.0
C518 C 0.2371 0.60085 0.3381 0.0
C519 C 0.26409 0.6359 0.31323 0.0
H520 H 0.47773 0.57133 0.31503 0.0
H521 H 0.47462 0.60295 0.43449 0.0
H522 H 0.54488 0.64027 0.44005 0.0
H523 H 0.60916 0.6687 0.41228 0.0
H524 H 0.61631 0.63938 0.29361 0.0
H525 H 0.54454 0.59663 0.28711 0.0
C526 C 0.49219 0.5862 0.34242 0.0
C527 C 0.46885 0.58295 0.37446 0.0
C528 C 0.53431 0.60802 0.34585 0.0
C529 C 0.4899 0.60309 0.40922 0.0
C530 C 0.53084 0.62503 0.41252 0.0
C531 C 0.59533 0.65176 0.38491 0.0
C532 C 0.61976 0.65687 0.35375 0.0
C533 C 0.55358 0.62789 0.38126 0.0
C534 C 0.59971 0.63525 0.3187 0.0
C535 C 0.55808 0.61133 0.31487 0.0
H536 H 0.37417 0.86545 0.34767 0.0
H537 H 0.44157 1.03315 0.33086 0.0
H538 H 0.50201 1.02772 0.33592 0.0
H539 H 0.53682 0.97433 0.34462 0.0
H540 H 0.46688 0.80675 0.36218 0.0
H541 H 0.40788 0.81366 0.35746 0.0
C542 C 0.40196 0.90127 0.34527 0.0
C543 C 0.40232 0.94995 0.33895 0.0
C544 C 0.43696 0.89784 0.34838 0.0
C545 C 0.43943 0.99515 0.336 0.0
C546 C 0.47434 0.9919 0.33876 0.0
C547 C 0.50876 0.93914 0.34741 0.0
C548 C 0.50754 0.88982 0.35431 0.0
C549 C 0.47372 0.94334 0.34482 0.0
C550 C 0.47003 0.84547 0.35776 0.0
C551 C 0.43572 0.84929 0.35478 0.0
H552 H 0.71811 0.20651 0.72162 0.0
H553 H 0.67267 0.2614 0.6324 0.0
H554 H 0.60612 0.20384 0.65313 0.0
H555 H 0.56186 0.12433 0.68684 0.0
H556 H 0.60788 0.06114 0.76938 0.0
H557 H 0.67371 0.13606 0.76166 0.0
C558 C 0.69374 0.20746 0.70771 0.0
C559 C 0.69995 0.23774 0.67551 0.0
C560 C 0.65585 0.17181 0.71811 0.0
C561 C 0.66828 0.23818 0.65722 0.0
C562 C 0.63037 0.20496 0.66883 0.0
C563 C 0.58637 0.12803 0.70374 0.0
C564 C 0.58087 0.08774 0.72825 0.0
C565 C 0.62388 0.16941 0.69769 0.0
C566 C 0.61208 0.092 0.75027 0.0
C567 C 0.64947 0.13454 0.7457 0.0
H568 H 0.96952 0.525 0.69432 0.0
H569 H 0.85516 0.39455 0.66591 0.0
H570 H 0.82836 0.45411 0.66674 0.0
H571 H 0.83432 0.54613 0.67406 0.0
H572 H 0.94879 0.67822 0.69886 0.0
H573 H 0.97569 0.61814 0.70062 0.0
C574 C 0.93858 0.50857 0.6885 0.0
C575 C 0.91543 0.45149 0.68036 0.0
C576 C 0.92205 0.54525 0.68814 0.0
C577 C 0.87535 0.43582 0.6726 0.0
C578 C 0.8593 0.471 0.67297 0.0
C579 C 0.86524 0.56274 0.68014 0.0
C580 C 0.88836 0.61999 0.6866 0.0
C581 C 0.88188 0.52639 0.68052 0.0
C582 C 0.92866 0.63642 0.69371 0.0
C583 C 0.94468 0.60103 0.69476 0.0
H584 H 0.61482 0.39884 0.61761 0.0
H585 H 0.64697 0.40662 0.7356 0.0
H586 H 0.59897 0.31336 0.74095 0.0
H587 H 0.5423 0.23057 0.71402 0.0
H588 H 0.50997 0.22352 0.59647 0.0
H589 H 0.56364 0.31343 0.58903 0.0
C590 C 0.61198 0.38018 0.64441 0.0
C591 C 0.63451 0.4113 0.6763 0.0
C592 C 0.58399 0.32563 0.64745 0.0
C593 C 0.62966 0.38516 0.71064 0.0
C594 C 0.60221 0.3312 0.71375 0.0
C595 C 0.54799 0.24795 0.68645 0.0
C596 C 0.52237 0.21932 0.6556 0.0
C597 C 0.57847 0.30108 0.68261 0.0
C598 C 0.52956 0.24377 0.62049 0.0
C599 C 0.56006 0.29574 0.61633 0.0
H600 H 0.92522 0.96656 0.70299 0.0
H601 H 0.80775 0.89852 0.65767 0.0
H602 H 0.81723 0.98859 0.6509 0.0
H603 H 0.85919 0.09136 0.65718 0.0
H604 H 0.97653 0.15744 0.70275 0.0
H605 H 0.9665 0.06758 0.70942 0.0
C606 C 0.90102 0.97027 0.69164 0.0
C607 C 0.86493 0.92119 0.6813 0.0
C608 C 0.90693 1.02448 0.68753 0.0
C609 C 0.83566 0.93178 0.66653 0.0
C610 C 0.84136 0.9849 0.66249 0.0
C611 C 0.8831 0.08708 0.66862 0.0
C612 C 0.91955 0.13582 0.67914 0.0
C613 C 0.8769 1.03246 0.67274 0.0
C614 C 0.94842 0.12453 0.6939 0.0
C615 C 0.94248 0.07156 0.69787 0.0
H616 H 0.15874 0.9623 0.74256 0.0
H617 H 0.13331 0.87752 0.63463 0.0
H618 H 0.20238 0.90649 0.62744 0.0
H619 H 0.27148 0.95992 0.65039 0.0
H620 H 0.29572 1.04358 0.75861 0.0
H621 H 0.22636 1.01006 0.76725 0.0
C622 C 0.16804 0.94938 0.71766 0.0
C623 C 0.14028 0.91813 0.68905 0.0
C624 C 0.20808 0.96588 0.71372 0.0
C625 C 0.15364 0.9026 0.65687 0.0
C626 C 0.19334 0.9188 0.65281 0.0
C627 C 0.26148 0.96977 0.6762 0.0
C628 C 0.28908 1.00417 0.70384 0.0
C629 C 0.22104 0.95096 0.68086 0.0
C630 C 0.27538 1.01723 0.73679 0.0
C631 C 0.23555 0.99823 0.74177 0.0
H632 H 0.27069 0.28834 0.77474 0.0
H633 H 0.22092 0.20003 0.66961 0.0
H634 H 0.16543 0.2154 0.67513 0.0
H635 H 0.13335 0.25888 0.70745 0.0
H636 H 0.1833 0.34849 0.81208 0.0
H637 H 0.23672 0.32823 0.80885 0.0
C638 C 0.24771 0.27251 0.75302 0.0
C639 C 0.25007 0.24326 0.72172 0.0
C640 C 0.21606 0.28199 0.75616 0.0
C641 C 0.21969 0.22224 0.69416 0.0
C642 C 0.18805 0.2313 0.69717 0.0
C643 C 0.15548 0.27314 0.72997 0.0
C644 C 0.15431 0.30519 0.75997 0.0
C645 C 0.18618 0.26164 0.7278 0.0
C646 C 0.1837 0.32416 0.7885 0.0
C647 C 0.2142 0.31251 0.7867 0.0
H648 H 0.22462 0.4779 0.21749 0.0
H649 H 0.11423 0.40584 0.27257 0.0
H650 H 0.08145 0.41068 0.21608 0.0
H651 H 0.08179 0.43114 0.14919 0.0
H652 H 0.19042 0.50658 0.09178 0.0
H653 H 0.22545 0.50494 0.14953 0.0
C654 C 0.1935 0.46364 0.21721 0.0
C655 C 0.17216 0.44066 0.25016 0.0
C656 C 0.17404 0.46679 0.18347 0.0
C657 C 0.13171 0.4226 0.24827 0.0
C658 C 0.11266 0.42565 0.21564 0.0
C659 C 0.11326 0.44825 0.14949 0.0
C660 C 0.13334 0.46996 0.11617 0.0
C661 C 0.13321 0.44707 0.18288 0.0
C662 C 0.17413 0.49073 0.11713 0.0
C663 C 0.19418 0.48919 0.1502 0.0
H664 H 0.65004 0.77201 0.21712 0.0
H665 H 0.69238 0.66361 0.24216 0.0
H666 H 0.66153 0.61236 0.18443 0.0
H667 H 0.62541 0.5986 0.12506 0.0
H668 H 0.58609 0.70776 0.09383 0.0
H669 H 0.61147 0.75648 0.15507 0.0
C670 C 0.6523 0.73702 0.21007 0.0
C671 C 0.67433 0.72264 0.23472 0.0
C672 C 0.63457 0.70708 0.17539 0.0
C673 C 0.67655 0.67688 0.22426 0.0
C674 C 0.65856 0.64695 0.19101 0.0
C675 C 0.62165 0.63259 0.13157 0.0
C676 C 0.60313 0.64853 0.10423 0.0
C677 C 0.63785 0.66174 0.16614 0.0
C678 C 0.59939 0.69338 0.11394 0.0
C679 C 0.61447 0.72182 0.14907 0.0
H680 H 0.44282 0.96974 0.11199 0.0
H681 H 0.51632 0.13347 0.1473 0.0
H682 H 0.47091 0.12303 0.19774 0.0
H683 H 0.40864 0.06782 0.23171 0.0
H684 H 0.33682 0.90335 0.1972 0.0
H685 H 0.38254 0.91393 0.14735 0.0
C686 C 0.44946 1.00336 0.13086 0.0
C687 C 0.48403 0.05269 0.12516 0.0
C688 C 0.42278 0.99697 0.16018 0.0
C689 C 0.49089 0.09501 0.15046 0.0
C690 C 0.46446 0.089 0.17942 0.0
C691 C 0.40264 1.03412 0.21322 0.0
C692 C 0.36808 0.98463 0.21864 0.0
C693 C 0.42998 1.04031 0.18449 0.0
C694 C 0.36224 0.94191 0.19424 0.0
C695 C 0.38875 0.94801 0.1655 0.0
H696 H 0.49055 1.04044 0.89987 0.0
H697 H 0.58747 0.19959 0.90471 0.0
H698 H 0.5611 0.21862 0.8468 0.0
H699 H 0.5084 0.18763 0.79329 0.0
H700 H 0.40836 1.03115 0.80111 0.0
H701 H 0.43736 1.01499 0.85569 0.0
C702 C 0.50625 0.0799 0.88911 0.0
C703 C 0.5415 0.11816 0.90746 0.0
C704 C 0.48971 0.09138 0.85756 0.0
C705 C 0.5606 0.16868 0.89162 0.0
C706 C 0.54519 0.17967 0.85842 0.0
C707 C 0.49259 0.15052 0.80742 0.0
C708 C 0.4559 0.11039 0.79169 0.0
C709 C 0.50933 0.14122 0.84095 0.0
C710 C 0.43655 0.06278 0.81118 0.0
C711 C 0.45324 0.05311 0.84279 0.0
H712 H 0.99476 0.45425 0.88638 0.0
H713 H 1.00851 0.3222 0.92033 0.0
H714 H 0.96864 0.26906 0.86628 0.0
H715 H 0.93482 0.26089 0.80602 0.0
H716 H 0.9217 0.39118 0.76762 0.0
H717 H 0.9549 0.44271 0.82606 0.0
C718 C 0.9885 0.41362 0.88224 0.0
C719 C 1.0053 0.3928 0.90793 0.0
C720 C 0.9654 0.38247 0.84987 0.0
C721 C 0.9967 0.33994 0.90136 0.0
C722 C 0.97366 0.30917 0.87025 0.0
C723 C 0.93818 0.30009 0.81071 0.0
C724 C 0.92503 0.32134 0.78203 0.0
C725 C 0.95848 0.33011 0.84387 0.0
C726 C 0.93055 0.37279 0.78898 0.0
C727 C 0.95021 0.40274 0.82244 0.0
H728 H 0.75377 0.7197 0.76702 0.0
H729 H 0.85698 0.7551 0.8333 0.0
H730 H 0.81746 0.72963 0.89063 0.0
H731 H 0.75262 0.6983 0.9229 0.0
H732 H 0.65021 0.659 0.8538 0.0
H733 H 0.69012 0.68436 0.79753 0.0
C734 C 0.76826 0.72194 0.79378 0.0
C735 C 0.80947 0.74024 0.79466 0.0
C736 C 0.74493 0.70618 0.82676 0.0
C737 C 0.82607 0.7417 0.83058 0.0
C738 C 0.8031 0.72701 0.8637 0.0
C739 C 0.73872 0.69495 0.89557 0.0
C740 C 0.69738 0.67633 0.89365 0.0
C741 C 0.76236 0.70932 0.86237 0.0
C742 C 0.68111 0.67261 0.85722 0.0
C743 C 0.70428 0.68746 0.82468 0.0
H744 H 0.73033 0.78475 0.49391 0.0
H745 H 0.83004 0.85555 0.42314 0.0
H746 H 0.87204 0.85596 0.47488 0.0
H747 H 0.87992 0.82656 0.53933 0.0
H748 H 0.77994 0.75914 0.61026 0.0
H749 H 0.74006 0.7676 0.56084 0.0
C750 C 0.76149 0.80241 0.4902 0.0
C751 C 0.77669 0.82164 0.45428 0.0
C752 C 0.78598 0.80214 0.52054 0.0
C753 C 0.81723 0.84194 0.45036 0.0
C754 C 0.84144 0.84152 0.48007 0.0
C755 C 0.84974 0.81504 0.54445 0.0
C756 C 0.83348 0.79181 0.5793 0.0
C757 C 0.82618 0.82042 0.51524 0.0
C758 C 0.7938 0.77676 0.58422 0.0
C759 C 0.7706 0.78154 0.55565 0.0
H760 H 0.28783 1.02427 0.44545 0.0
H761 H 0.31803 0.89973 0.44326 0.0
H762 H 0.34568 0.92661 0.50784 0.0
H763 H 0.36565 0.98937 0.56327 0.0
H764 H 0.335 0.11344 0.56599 0.0
H765 H 0.30343 0.08295 0.50298 0.0
C766 C 0.29986 1.00219 0.45915 0.0
C767 C 0.30047 0.95942 0.43886 0.0
C768 C 0.31627 1.01847 0.49638 0.0
C769 C 0.31645 0.93202 0.45771 0.0
C770 C 0.33272 0.94791 0.49471 0.0
C771 C 0.35206 1.01 0.5503 0.0
C772 C 0.35347 0.05462 0.56977 0.0
C773 C 0.33356 0.99176 0.51403 0.0
C774 C 0.33482 0.07952 0.55217 0.0
C775 C 0.31672 0.06195 0.51594 0.0
H776 H 0.0677 0.3745 0.59878 0.0
H777 H 0.96264 0.31867 0.52984 0.0
H778 H 1.00188 0.34352 0.47309 0.0
H779 H 0.06481 0.38078 0.44236 0.0
H780 H 0.17155 0.43573 0.50858 0.0
H781 H 0.13286 0.41205 0.56651 0.0
C782 C 1.05306 0.36746 0.57139 0.0
C783 C 1.01118 0.34402 0.56954 0.0
C784 C 0.07636 0.38217 0.53809 0.0
C785 C 0.99397 0.33598 0.53313 0.0
C786 C 1.01674 0.35051 0.50037 0.0
C787 C 0.08056 0.38825 0.46916 0.0
C788 C 0.12238 0.41112 0.46976 0.0
C789 C 1.05788 0.37372 0.5024 0.0
C790 C 0.14023 0.41909 0.50597 0.0
C791 C 0.11772 0.40512 0.5394 0.0
loop_
_geom_bond_atom_site_label_1
_geom_bond_atom_site_label_2
_geom_bond_distance
_geom_bond_site_symmetry_2
_ccdc_geom_bond_type
Tb0 C10 2.825 . S
Tb0 O11 2.347 1_554 S
Tb0 O14 2.366 . S
Tb0 O19 2.418 . S
Tb0 O20 2.384 1_655 S
Tb0 O23 2.479 . S
Tb0 O24 2.471 1_554 S
Eu1 O12 2.392 1_554 S
Eu1 O13 2.388 1_455 S
Eu1 O16 2.467 1_554 S
Eu1 O17 2.483 . S
Eu1 O18 2.369 . S
Eu1 O21 2.362 1_554 S
Eu1 C31 2.825 . S
C2 O18 1.259 . S
C2 O19 1.265 1_455 S
C3 O20 1.255 . S
C3 O21 1.265 1_554 S
C4 C6 1.380 . S
C4 C7 1.374 1_554 S
C4 C10 1.507 . S
C5 C6 1.384 . S
C5 C9 1.387 . S
C5 H32 0.930 . S
C6 C4 1.380 . S
C6 C5 1.384 . S
C6 H33 0.931 . S
C7 C4 1.374 1_556 S
C7 C8 1.390 . S
C7 H34 0.930 . S
C8 C7 1.390 . S
C8 C9 1.391 1_556 S
C8 H35 0.930 . S
C9 C5 1.387 . S
C9 C8 1.391 1_554 S
C10 Tb0 2.825 . S
C10 C4 1.507 . S
C10 O23 1.238 . S
C10 O24 1.247 1_554 S
O11 Tb0 2.347 1_556 S
O11 C15 1.259 . S
O12 Eu1 2.392 1_556 S
O12 C15 1.265 1_455 S
O13 Eu1 2.388 1_655 S
O13 C22 1.255 . S
O14 Tb0 2.366 . S
O14 C22 1.265 . S
C15 O11 1.259 . S
C15 O12 1.265 1_655 S
O16 Eu1 2.467 1_556 S
O16 C31 1.238 1_556 S
O17 Eu1 2.483 . S
O17 C31 1.247 . S
O18 Eu1 2.369 . S
O18 C2 1.259 . S
O19 Tb0 2.418 . S
O19 C2 1.265 1_655 S
O20 Tb0 2.384 1_455 S
O20 C3 1.255 . S
O21 Eu1 2.362 1_556 S
O21 C3 1.265 1_556 S
C22 O13 1.255 . S
C22 O14 1.265 . S
O23 Tb0 2.479 . S
O23 C10 1.238 . S
O24 Tb0 2.471 1_556 S
O24 C10 1.247 1_556 S
C25 C28 1.380 1_554 S
C25 C29 1.374 . S
C25 C31 1.507 . S
C26 C27 1.387 1_554 S
C26 C30 1.391 . S
C27 C26 1.387 1_556 S
C27 C28 1.384 . S
C27 H36 0.930 . S
C28 C25 1.380 1_556 S
C28 C27 1.384 . S
C28 H37 0.931 . S
C29 C25 1.374 . S
C29 C30 1.390 . S
C29 H38 0.930 . S
C30 C26 1.391 . S
C30 C29 1.390 . S
C30 H39 0.930 . S
C31 Eu1 2.825 . S
C31 O16 1.238 1_554 S
C31 O17 1.247 . S
C31 C25 1.507 . S
H32 C5 0.930 . S
H33 C6 0.931 . S
H34 C7 0.930 . S
H35 C8 0.930 . S
H36 C27 0.930 . S
H37 C28 0.931 . S
H38 C29 0.930 . S
H39 C30 0.930 . S
Tb40 C50 2.825 . S
Tb40 O51 2.347 1_556 S
Tb40 O54 2.366 . S
Tb40 O59 2.418 . S
Tb40 O60 2.384 . S
Tb40 O63 2.479 . S
Tb40 O64 2.471 1_556 S
Eu41 O52 2.418 . S
Eu41 O53 2.384 . S
Eu41 O56 2.479 . S
Eu41 O57 2.471 1_554 S
Eu41 O58 2.347 1_554 S
Eu41 O61 2.366 . S
Eu41 C71 2.825 . S
C42 O58 1.259 . S
C42 O59 1.265 . S
C43 O60 1.255 1_554 S
C43 O61 1.265 . S
C44 C46 1.380 . S
C44 C47 1.374 1_556 S
C44 C50 1.507 . S
C45 C46 1.384 . S
C45 C49 1.387 . S
C45 H72 0.930 . S
C46 C44 1.380 . S
C46 C45 1.384 . S
C46 H73 0.931 . S
C47 C44 1.374 1_554 S
C47 C48 1.390 . S
C47 H74 0.930 . S
C48 C47 1.390 . S
C48 C49 1.391 1_554 S
C48 H75 0.930 . S
C49 C45 1.387 . S
C49 C48 1.391 1_556 S
C50 Tb40 2.825 . S
C50 C44 1.507 . S
C50 O63 1.238 . S
C50 O64 1.247 1_556 S
O51 Tb40 2.347 1_554 S
O51 C55 1.259 . S
O52 Eu41 2.418 . S
O52 C55 1.265 . S
O53 Eu41 2.384 . S
O53 C62 1.255 1_554 S
O54 Tb40 2.366 . S
O54 C62 1.265 . S
C55 O51 1.259 . S
C55 O52 1.265 . S
O56 Eu41 2.479 . S
O56 C71 1.238 . S
O57 Eu41 2.471 1_556 S
O57 C71 1.247 1_556 S
O58 Eu41 2.347 1_556 S
O58 C42 1.259 . S
O59 Tb40 2.418 . S
O59 C42 1.265 . S
O60 Tb40 2.384 . S
O60 C43 1.255 1_556 S
O61 Eu41 2.366 . S
O61 C43 1.265 . S
C62 O53 1.255 1_556 S
C62 O54 1.265 . S
O63 Tb40 2.479 . S
O63 C50 1.238 . S
O64 Tb40 2.471 1_554 S
O64 C50 1.247 1_554 S
C65 C68 1.380 . S
C65 C69 1.374 1_554 S
C65 C71 1.507 . S
C66 C67 1.387 . S
C66 C70 1.391 1_554 S
C67 C66 1.387 . S
C67 C68 1.384 . S
C67 H76 0.930 . S
C68 C65 1.380 . S
C68 C67 1.384 . S
C68 H77 0.931 . S
C69 C65 1.374 1_556 S
C69 C70 1.390 . S
C69 H78 0.930 . S
C70 C66 1.391 1_556 S
C70 C69 1.390 . S
C70 H79 0.930 . S
C71 Eu41 2.825 . S
C71 O56 1.238 . S
C71 O57 1.247 1_554 S
C71 C65 1.507 . S
H72 C45 0.930 . S
H73 C46 0.931 . S
H74 C47 0.930 . S
H75 C48 0.930 . S
H76 C67 0.930 . S
H77 C68 0.931 . S
H78 C69 0.930 . S
H79 C70 0.930 . S
Tb80 C90 2.825 . S
Tb80 O91 2.347 1_554 S
Tb80 O94 2.366 . S
Tb80 O99 2.418 . S
Tb80 O100 2.384 1_545 S
Tb80 O103 2.479 . S
Tb80 O104 2.471 1_554 S
Eu81 O92 2.418 . S
Eu81 O93 2.384 1_566 S
Eu81 O96 2.479 . S
Eu81 O97 2.471 1_556 S
Eu81 O98 2.347 1_556 S
Eu81 O101 2.366 . S
Eu81 C111 2.825 . S
C82 O98 1.259 . S
C82 O99 1.265 1_565 S
C83 O100 1.255 . S
C83 O101 1.265 1_554 S
C84 C86 1.380 . S
C84 C87 1.374 1_554 S
C84 C90 1.507 . S
C85 C86 1.384 . S
C85 C89 1.387 . S
C85 H112 0.930 . S
C86 C84 1.380 . S
C86 C85 1.384 . S
C86 H113 0.931 . S
C87 C84 1.374 1_556 S
C87 C88 1.390 . S
C87 H114 0.930 . S
C88 C87 1.390 . S
C88 C89 1.391 1_556 S
C88 H115 0.930 . S
C89 C85 1.387 . S
C89 C88 1.391 1_554 S
C90 Tb80 2.825 . S
C90 C84 1.507 . S
C90 O103 1.238 . S
C90 O104 1.247 1_554 S
O91 Tb80 2.347 1_556 S
O91 C95 1.259 . S
O92 Eu81 2.418 . S
O92 C95 1.265 1_565 S
O93 Eu81 2.384 1_544 S
O93 C102 1.255 . S
O94 Tb80 2.366 . S
O94 C102 1.265 . S
C95 O91 1.259 . S
C95 O92 1.265 1_545 S
O96 Eu81 2.479 . S
O96 C111 1.238 . S
O97 Eu81 2.471 1_554 S
O97 C111 1.247 1_554 S
O98 Eu81 2.347 1_554 S
O98 C82 1.259 . S
O99 Tb80 2.418 . S
O99 C82 1.265 1_545 S
O100 Tb80 2.384 1_565 S
O100 C83 1.255 . S
O101 Eu81 2.366 . S
O101 C83 1.265 1_556 S
C102 O93 1.255 . S
C102 O94 1.265 . S
O103 Tb80 2.479 . S
O103 C90 1.238 . S
O104 Tb80 2.471 1_556 S
O104 C90 1.247 1_556 S
C105 C108 1.380 . S
C105 C109 1.374 1_556 S
C105 C111 1.507 . S
C106 C107 1.409 . S
C106 C110 1.372 1_556 S
C107 C106 1.409 . S
C107 C108 1.384 . S
C107 H116 0.930 . S
C108 C105 1.380 . S
C108 C107 1.384 . S
C108 H117 0.931 . S
C109 C105 1.374 1_554 S
C109 C110 1.390 . S
C109 H118 0.930 . S
C110 C106 1.372 1_554 S
C110 C109 1.390 . S
C110 H119 0.930 . S
C111 Eu81 2.825 . S
C111 O96 1.238 . S
C111 O97 1.247 1_556 S
C111 C105 1.507 . S
H112 C85 0.930 . S
H113 C86 0.931 . S
H114 C87 0.930 . S
H115 C88 0.930 . S
H116 C107 0.930 . S
H117 C108 0.931 . S
H118 C109 0.930 . S
H119 C110 0.930 . S
Tb120 C130 2.825 . S
Tb120 O131 2.347 . S
Tb120 O134 2.366 . S
Tb120 O139 2.418 . S
Tb120 O140 2.384 . S
Tb120 O143 2.479 . S
Tb120 O144 2.471 . S
Eu121 O132 2.418 . S
Eu121 O133 2.384 . S
Eu121 O136 2.479 . S
Eu121 O137 2.471 . S
Eu121 O138 2.347 . S
Eu121 O141 2.366 . S
Eu121 C151 2.825 . S
C122 O138 1.259 . S
C122 O139 1.265 . S
C123 O140 1.255 . S
C123 O141 1.265 . S
C124 C126 1.380 . S
C124 C127 1.374 . S
C124 C130 1.507 . S
C125 C126 1.384 . S
C125 C129 1.387 . S
C125 H152 0.930 . S
C126 C124 1.380 . S
C126 C125 1.384 . S
C126 H153 0.931 . S
C127 C124 1.374 . S
C127 C128 1.390 . S
C127 H154 0.930 . S
C128 C127 1.390 . S
C128 C129 1.391 . S
C128 H155 0.930 . S
C129 C125 1.387 . S
C129 C128 1.391 . S
C130 Tb120 2.825 . S
C130 C124 1.507 . S
C130 O143 1.238 . S
C130 O144 1.247 . S
O131 Tb120 2.347 . S
O131 C135 1.259 . S
O132 Eu121 2.418 . S
O132 C135 1.265 . S
O133 Eu121 2.384 . S
O133 C142 1.255 . S
O134 Tb120 2.366 . S
O134 C142 1.265 . S
C135 O131 1.259 . S
C135 O132 1.265 . S
O136 Eu121 2.479 . S
O136 C151 1.238 . S
O137 Eu121 2.471 . S
O137 C151 1.247 . S
O138 Eu121 2.347 . S
O138 C122 1.259 . S
O139 Tb120 2.418 . S
O139 C122 1.265 . S
O140 Tb120 2.384 . S
O140 C123 1.255 . S
O141 Eu121 2.366 . S
O141 C123 1.265 . S
C142 O133 1.255 . S
C142 O134 1.265 . S
O143 Tb120 2.479 . S
O143 C130 1.238 . S
O144 Tb120 2.471 . S
O144 C130 1.247 . S
C145 C148 1.380 . S
C145 C149 1.374 . S
C145 C151 1.507 . S
C146 C147 1.387 . S
C146 C150 1.391 . S
C147 C146 1.387 . S
C147 C148 1.384 . S
C147 H156 0.930 . S
C148 C145 1.380 . S
C148 C147 1.384 . S
C148 H157 0.931 . S
C149 C145 1.374 . S
C149 C150 1.390 . S
C149 H158 0.930 . S
C150 C146 1.391 . S
C150 C149 1.390 . S
C150 H159 0.930 . S
C151 Eu121 2.825 . S
C151 O136 1.238 . S
C151 O137 1.247 . S
C151 C145 1.507 . S
H152 C125 0.930 . S
H153 C126 0.931 . S
H154 C127 0.930 . S
H155 C128 0.930 . S
H156 C147 0.930 . S
H157 C148 0.931 . S
H158 C149 0.930 . S
H159 C150 0.930 . S
Tb160 C170 2.825 . S
Tb160 O171 2.347 . S
Tb160 O174 2.366 . S
Tb160 O179 2.418 . S
Tb160 O180 2.384 . S
Tb160 O183 2.479 . S
Tb160 O184 2.471 . S
Eu161 O172 2.418 . S
Eu161 O173 2.384 . S
Eu161 O176 2.479 1_565 S
Eu161 O177 2.471 1_565 S
Eu161 O178 2.347 . S
Eu161 O181 2.366 . S
Eu161 C191 2.825 1_565 S
C162 O178 1.259 . S
C162 O179 1.265 . S
C163 O180 1.255 . S
C163 O181 1.265 . S
C164 C166 1.380 . S
C164 C167 1.374 . S
C164 C170 1.507 . S
C165 C166 1.384 . S
C165 C169 1.387 . S
C165 H192 0.930 . S
C166 C164 1.380 . S
C166 C165 1.384 . S
C166 H193 0.931 . S
C167 C164 1.374 . S
C167 C168 1.390 . S
C167 H194 0.930 . S
C168 C167 1.390 . S
C168 C169 1.391 . S
C168 H195 0.930 . S
C169 C165 1.387 . S
C169 C168 1.391 . S
C170 Tb160 2.825 . S
C170 C164 1.507 . S
C170 O183 1.238 . S
C170 O184 1.247 . S
O171 Tb160 2.347 . S
O171 C175 1.259 . S
O172 Eu161 2.418 . S
O172 C175 1.265 . S
O173 Eu161 2.384 . S
O173 C182 1.255 . S
O174 Tb160 2.366 . S
O174 C182 1.265 . S
C175 O171 1.259 . S
C175 O172 1.265 . S
O176 Eu161 2.479 1_545 S
O176 C191 1.238 . S
O177 Eu161 2.471 1_545 S
O177 C191 1.247 . S
O178 Eu161 2.347 . S
O178 C162 1.259 . S
O179 Tb160 2.418 . S
O179 C162 1.265 . S
O180 Tb160 2.384 . S
O180 C163 1.255 . S
O181 Eu161 2.366 . S
O181 C163 1.265 . S
C182 O173 1.255 . S
C182 O174 1.265 . S
O183 Tb160 2.479 . S
O183 C170 1.238 . S
O184 Tb160 2.471 . S
O184 C170 1.247 . S
C185 C188 1.380 . S
C185 C189 1.374 . S
C185 C191 1.507 . S
C186 C187 1.387 . S
C186 C190 1.391 . S
C187 C186 1.387 . S
C187 C188 1.384 . S
C187 H196 0.930 . S
C188 C185 1.380 . S
C188 C187 1.384 . S
C188 H197 0.931 . S
C189 C185 1.374 . S
C189 C190 1.390 . S
C189 H198 0.930 . S
C190 C186 1.391 . S
C190 C189 1.390 . S
C190 H199 0.930 . S
C191 Eu161 2.825 1_545 S
C191 O176 1.238 . S
C191 O177 1.247 . S
C191 C185 1.507 . S
H192 C165 0.930 . S
H193 C166 0.931 . S
H194 C167 0.930 . S
H195 C168 0.930 . S
H196 C187 0.930 . S
H197 C188 0.931 . S
H198 C189 0.930 . S
H199 C190 0.930 . S
Tb200 C210 2.825 . S
Tb200 O211 2.347 . S
Tb200 O214 2.366 . S
Tb200 O219 2.418 . S
Tb200 O220 2.384 . S
Tb200 O223 2.479 . S
Tb200 O224 2.471 . S
Eu201 O212 2.418 . S
Eu201 O213 2.384 . S
Eu201 O216 2.479 . S
Eu201 O217 2.471 . S
Eu201 O218 2.347 . S
Eu201 O221 2.366 . S
Eu201 C231 2.825 . S
C202 O218 1.259 . S
C202 O219 1.265 . S
C203 O220 1.255 . S
C203 O221 1.265 . S
C204 C206 1.380 . S
C204 C207 1.374 . S
C204 C210 1.507 . S
C205 C206 1.384 . S
C205 C209 1.387 . S
C205 H232 0.930 . S
C206 C204 1.380 . S
C206 C205 1.384 . S
C206 H233 0.931 . S
C207 C204 1.374 . S
C207 C208 1.390 . S
C207 H234 0.930 . S
C208 C207 1.390 . S
C208 C209 1.391 . S
C208 H235 0.930 . S
C209 C205 1.387 . S
C209 C208 1.391 . S
C210 Tb200 2.825 . S
C210 C204 1.507 . S
C210 O223 1.238 . S
C210 O224 1.247 . S
O211 Tb200 2.347 . S
O211 C215 1.259 . S
O212 Eu201 2.418 . S
O212 C215 1.265 . S
O213 Eu201 2.384 . S
O213 C222 1.255 . S
O214 Tb200 2.366 . S
O214 C222 1.265 . S
C215 O211 1.259 . S
C215 O212 1.265 . S
O216 Eu201 2.479 . S
O216 C231 1.238 . S
O217 Eu201 2.471 . S
O217 C231 1.247 . S
O218 Eu201 2.347 . S
O218 C202 1.259 . S
O219 Tb200 2.418 . S
O219 C202 1.265 . S
O220 Tb200 2.384 . S
O220 C203 1.255 . S
O221 Eu201 2.366 . S
O221 C203 1.265 . S
C222 O213 1.255 . S
C222 O214 1.265 . S
O223 Tb200 2.479 . S
O223 C210 1.238 . S
O224 Tb200 2.471 . S
O224 C210 1.247 . S
C225 C228 1.380 . S
C225 C229 1.374 . S
C225 C231 1.507 1_655 S
C226 C227 1.387 . S
C226 C230 1.391 . S
C227 C226 1.387 . S
C227 C228 1.384 . S
C227 H236 0.930 . S
C228 C225 1.380 . S
C228 C227 1.384 . S
C228 H237 0.931 . S
C229 C225 1.374 . S
C229 C230 1.390 . S
C229 H238 0.930 . S
C230 C226 1.391 . S
C230 C229 1.390 . S
C230 H239 0.930 . S
C231 Eu201 2.825 . S
C231 O216 1.238 . S
C231 O217 1.247 . S
C231 C225 1.507 1_455 S
H232 C205 0.930 . S
H233 C206 0.931 . S
H234 C207 0.930 . S
H235 C208 0.930 . S
H236 C227 0.930 . S
H237 C228 0.931 . S
H238 C229 0.930 . S
H239 C230 0.930 . S
Tb240 C250 2.825 . S
Tb240 O251 2.347 . S
Tb240 O254 2.366 . S
Tb240 O259 2.418 . S
Tb240 O260 2.384 . S
Tb240 O263 2.479 . S
Tb240 O264 2.471 . S
Eu241 O252 2.418 . S
Eu241 O253 2.384 . S
Eu241 O256 2.479 . S
Eu241 O257 2.471 . S
Eu241 O258 2.347 . S
Eu241 O261 2.366 . S
Eu241 C271 2.825 . S
C242 O258 1.259 . S
C242 O259 1.265 . S
C243 O260 1.255 . S
C243 O261 1.265 . S
C244 C246 1.380 . S
C244 C247 1.374 . S
C244 C250 1.507 . S
C245 C246 1.384 . S
C245 C249 1.387 . S
C245 H272 0.930 . S
C246 C244 1.380 . S
C246 C245 1.384 . S
C246 H273 0.931 . S
C247 C244 1.374 . S
C247 C248 1.390 . S
C247 H274 0.930 . S
C248 C247 1.390 . S
C248 C249 1.391 . S
C248 H275 0.930 . S
C249 C245 1.387 . S
C249 C248 1.391 . S
C250 Tb240 2.825 . S
C250 C244 1.507 . S
C250 O263 1.238 . S
C250 O264 1.247 . S
O251 Tb240 2.347 . S
O251 C255 1.259 . S
O252 Eu241 2.418 . S
O252 C255 1.265 . S
O253 Eu241 2.384 . S
O253 C262 1.255 . S
O254 Tb240 2.366 . S
O254 C262 1.265 . S
C255 O251 1.259 . S
C255 O252 1.265 . S
O256 Eu241 2.479 . S
O256 C271 1.238 . S
O257 Eu241 2.471 . S
O257 C271 1.247 . S
O258 Eu241 2.347 . S
O258 C242 1.259 . S
O259 Tb240 2.418 . S
O259 C242 1.265 . S
O260 Tb240 2.384 . S
O260 C243 1.255 . S
O261 Eu241 2.366 . S
O261 C243 1.265 . S
C262 O253 1.255 . S
C262 O254 1.265 . S
O263 Tb240 2.479 . S
O263 C250 1.238 . S
O264 Tb240 2.471 . S
O264 C250 1.247 . S
C265 C268 1.380 . S
C265 C269 1.374 . S
C265 C271 1.507 . S
C266 C267 1.387 . S
C266 C270 1.391 . S
C267 C266 1.387 . S
C267 C268 1.384 . S
C267 H276 0.930 . S
C268 C265 1.380 . S
C268 C267 1.384 . S
C268 H277 0.931 . S
C269 C265 1.374 . S
C269 C270 1.390 . S
C269 H278 0.930 . S
C270 C266 1.391 . S
C270 C269 1.390 . S
C270 H279 0.930 . S
C271 Eu241 2.825 . S
C271 O256 1.238 . S
C271 O257 1.247 . S
C271 C265 1.507 . S
H272 C245 0.930 . S
H273 C246 0.931 . S
H274 C247 0.930 . S
H275 C248 0.930 . S
H276 C267 0.930 . S
H277 C268 0.931 . S
H278 C269 0.930 . S
H279 C270 0.930 . S
Tb280 C290 2.825 . S
Tb280 O291 2.347 . S
Tb280 O294 2.366 . S
Tb280 O299 2.418 . S
Tb280 O300 2.384 . S
Tb280 O303 2.479 . S
Tb280 O304 2.471 . S
Eu281 O292 2.418 . S
Eu281 O293 2.384 . S
Eu281 O296 2.479 1_655 S
Eu281 O297 2.471 . S
Eu281 O298 2.347 . S
Eu281 O301 2.366 . S
Eu281 C311 2.825 1_655 S
C282 O298 1.259 . S
C282 O299 1.265 . S
C283 O300 1.255 . S
C283 O301 1.265 . S
C284 C286 1.380 . S
C284 C287 1.374 . S
C284 C290 1.507 . S
C285 C286 1.384 . S
C285 C289 1.387 . S
C285 H312 0.930 . S
C286 C284 1.380 . S
C286 C285 1.384 . S
C286 H313 0.931 . S
C287 C284 1.374 . S
C287 C288 1.390 . S
C287 H314 0.930 . S
C288 C287 1.390 . S
C288 C289 1.391 . S
C288 H315 0.930 . S
C289 C285 1.387 . S
C289 C288 1.391 . S
C290 Tb280 2.825 . S
C290 C284 1.507 . S
C290 O303 1.238 . S
C290 O304 1.247 . S
O291 Tb280 2.347 . S
O291 C295 1.259 . S
O292 Eu281 2.418 . S
O292 C295 1.265 . S
O293 Eu281 2.384 . S
O293 C302 1.255 . S
O294 Tb280 2.366 . S
O294 C302 1.265 . S
C295 O291 1.259 . S
C295 O292 1.265 . S
O296 Eu281 2.479 1_455 S
O296 C311 1.238 . S
O297 Eu281 2.471 . S
O297 C311 1.247 1_655 S
O298 Eu281 2.347 . S
O298 C282 1.259 . S
O299 Tb280 2.418 . S
O299 C282 1.265 . S
O300 Tb280 2.384 . S
O300 C283 1.255 . S
O301 Eu281 2.366 . S
O301 C283 1.265 . S
C302 O293 1.255 . S
C302 O294 1.265 . S
O303 Tb280 2.479 . S
O303 C290 1.238 . S
O304 Tb280 2.471 . S
O304 C290 1.247 . S
C305 C308 1.380 . S
C305 C309 1.374 . S
C305 C311 1.507 . S
C306 C307 1.387 . S
C306 C310 1.391 . S
C307 C306 1.387 . S
C307 C308 1.384 . S
C307 H316 0.930 . S
C308 C305 1.380 . S
C308 C307 1.384 . S
C308 H317 0.931 . S
C309 C305 1.374 . S
C309 C310 1.390 . S
C309 H318 0.930 . S
C310 C306 1.391 . S
C310 C309 1.390 . S
C310 H319 0.930 . S
C311 Eu281 2.825 1_455 S
C311 O296 1.238 . S
C311 O297 1.247 1_455 S
C311 C305 1.507 . S
H312 C285 0.930 . S
H313 C286 0.931 . S
H314 C287 0.930 . S
H315 C288 0.930 . S
H316 C307 0.930 . S
H317 C308 0.931 . S
H318 C309 0.930 . S
H319 C310 0.930 . S
Tb320 C330 2.825 . S
Tb320 O331 2.347 . S
Tb320 O334 2.366 . S
Tb320 O339 2.418 . S
Tb320 O340 2.384 . S
Tb320 O343 2.479 . S
Tb320 O344 2.471 . S
Eu321 O332 2.418 . S
Eu321 O333 2.384 . S
Eu321 O336 2.479 . S
Eu321 O337 2.471 . S
Eu321 O338 2.347 . S
Eu321 O341 2.366 . S
Eu321 C351 2.825 . S
C322 O338 1.259 . S
C322 O339 1.265 . S
C323 O340 1.255 . S
C323 O341 1.265 . S
C324 C326 1.380 . S
C324 C327 1.374 . S
C324 C330 1.507 . S
C325 C326 1.384 1_455 S
C325 C329 1.387 . S
C325 H352 0.930 . S
C326 C324 1.380 . S
C326 C325 1.384 1_655 S
C326 H353 0.931 . S
C327 C324 1.374 . S
C327 C328 1.390 . S
C327 H354 0.930 . S
C328 C327 1.390 . S
C328 C329 1.391 1_655 S
C328 H355 0.930 . S
C329 C325 1.387 . S
C329 C328 1.391 1_455 S
C330 Tb320 2.825 . S
C330 C324 1.507 . S
C330 O343 1.238 . S
C330 O344 1.247 . S
O331 Tb320 2.347 . S
O331 C335 1.259 . S
O332 Eu321 2.418 . S
O332 C335 1.265 . S
O333 Eu321 2.384 . S
O333 C342 1.255 . S
O334 Tb320 2.366 . S
O334 C342 1.265 . S
C335 O331 1.259 . S
C335 O332 1.265 . S
O336 Eu321 2.479 . S
O336 C351 1.238 . S
O337 Eu321 2.471 . S
O337 C351 1.247 . S
O338 Eu321 2.347 . S
O338 C322 1.259 . S
O339 Tb320 2.418 . S
O339 C322 1.265 . S
O340 Tb320 2.384 . S
O340 C323 1.255 . S
O341 Eu321 2.366 . S
O341 C323 1.265 . S
C342 O333 1.255 . S
C342 O334 1.265 . S
O343 Tb320 2.479 . S
O343 C330 1.238 . S
O344 Tb320 2.471 . S
O344 C330 1.247 . S
C345 C348 1.380 . S
C345 C349 1.374 . S
C345 C351 1.507 . S
C346 C347 1.387 . S
C346 C350 1.391 . S
C347 C346 1.387 . S
C347 C348 1.384 . S
C347 H356 0.930 . S
C348 C345 1.380 . S
C348 C347 1.384 . S
C348 H357 0.931 . S
C349 C345 1.374 . S
C349 C350 1.390 . S
C349 H358 0.930 . S
C350 C346 1.391 . S
C350 C349 1.390 . S
C350 H359 0.930 . S
C351 Eu321 2.825 . S
C351 O336 1.238 . S
C351 O337 1.247 . S
C351 C345 1.507 . S
H352 C325 0.930 . S
H353 C326 0.931 . S
H354 C327 0.930 . S
H355 C328 0.930 . S
H356 C347 0.930 . S
H357 C348 0.931 . S
H358 C349 0.930 . S
H359 C350 0.930 . S
H360 C366 0.930 . S
H361 C369 0.930 . S
H362 C370 0.930 . S
H363 C371 0.930 . S
H364 C374 0.930 . S
H365 C375 0.930 . S
C366 H360 0.930 . S
C366 C367 1.355 . S
C366 C368 1.415 . S
C367 C366 1.355 . S
C367 C369 1.419 1_556 S
C368 C366 1.415 . S
C368 C373 1.425 1_556 S
C368 C375 1.409 . S
C369 H361 0.930 . S
C369 C367 1.419 1_554 S
C369 C370 1.362 . S
C370 H362 0.930 . S
C370 C369 1.362 . S
C370 C373 1.409 . S
C371 H363 0.930 . S
C371 C372 1.359 . S
C371 C373 1.415 . S
C372 C371 1.359 . S
C372 C374 1.412 1_554 S
C373 C368 1.425 1_554 S
C373 C370 1.409 . S
C373 C371 1.415 . S
C374 H364 0.930 . S
C374 C372 1.412 1_556 S
C374 C375 1.362 . S
C375 H365 0.930 . S
C375 C368 1.409 . S
C375 C374 1.362 . S
H376 C382 0.930 . S
H377 C385 0.930 . S
H378 C386 0.930 . S
H379 C387 0.930 . S
H380 C390 0.930 . S
H381 C391 0.930 . S
C382 H376 0.930 . S
C382 C383 1.355 1_554 S
C382 C384 1.415 . S
C383 C382 1.355 1_556 S
C383 C385 1.419 . S
C384 C382 1.415 . S
C384 C389 1.425 1_554 S
C384 C391 1.409 . S
C385 H377 0.930 . S
C385 C383 1.419 . S
C385 C386 1.362 . S
C386 H378 0.930 . S
C386 C385 1.362 . S
C386 C389 1.409 . S
C387 H379 0.930 . S
C387 C388 1.355 . S
C387 C389 1.415 . S
C388 C387 1.355 . S
C388 C390 1.419 1_556 S
C389 C384 1.425 1_556 S
C389 C386 1.409 . S
C389 C387 1.415 . S
C390 H380 0.930 . S
C390 C388 1.419 1_554 S
C390 C391 1.362 . S
C391 H381 0.930 . S
C391 C384 1.409 . S
C391 C390 1.362 . S
H392 C398 0.930 . S
H393 C401 0.930 . S
H394 C402 0.930 . S
H395 C403 0.930 . S
H396 C406 0.930 . S
H397 C407 0.930 . S
C398 H392 0.930 . S
C398 C399 1.355 1_554 S
C398 C400 1.415 . S
C399 C398 1.355 1_556 S
C399 C401 1.419 . S
C400 C398 1.415 . S
C400 C405 1.425 1_554 S
C400 C407 1.409 . S
C401 H393 0.930 . S
C401 C399 1.419 . S
C401 C402 1.362 . S
C402 H394 0.930 . S
C402 C401 1.362 . S
C402 C405 1.409 . S
C403 H395 0.930 . S
C403 C404 1.355 1_556 S
C403 C405 1.415 . S
C404 C403 1.355 1_554 S
C404 C406 1.419 . S
C405 C400 1.425 1_556 S
C405 C402 1.409 . S
C405 C403 1.415 . S
C406 H396 0.930 . S
C406 C404 1.419 . S
C406 C407 1.362 . S
C407 H397 0.930 . S
C407 C400 1.409 . S
C407 C406 1.362 . S
H408 C414 0.930 1_556 S
H409 C417 0.930 . S
H410 C418 0.930 . S
H411 C419 0.930 . S
H412 C422 0.930 . S
H413 C423 0.930 . S
C414 H408 0.930 1_554 S
C414 C415 1.355 . S
C414 C416 1.415 . S
C415 C414 1.355 . S
C415 C417 1.419 . S
C416 C414 1.415 . S
C416 C421 1.425 . S
C416 C423 1.409 1_554 S
C417 H409 0.930 . S
C417 C415 1.419 . S
C417 C418 1.362 . S
C418 H410 0.930 . S
C418 C417 1.362 . S
C418 C421 1.409 . S
C419 H411 0.930 . S
C419 C420 1.355 . S
C419 C421 1.415 . S
C420 C419 1.355 . S
C420 C422 1.419 1_554 S
C421 C416 1.425 . S
C421 C418 1.409 . S
C421 C419 1.415 . S
C422 H412 0.930 . S
C422 C420 1.419 1_556 S
C422 C423 1.362 . S
C423 H413 0.930 . S
C423 C416 1.409 1_556 S
C423 C422 1.362 . S
H424 C430 0.930 . S
H425 C433 0.930 . S
H426 C434 0.930 . S
H427 C435 0.930 . S
H428 C438 0.930 . S
H429 C439 0.930 1_556 S
C430 H424 0.930 . S
C430 C431 1.355 . S
C430 C432 1.415 . S
C431 C430 1.355 . S
C431 C433 1.419 . S
C432 C430 1.415 . S
C432 C437 1.425 . S
C432 C439 1.409 . S
C433 H425 0.930 . S
C433 C431 1.419 . S
C433 C434 1.362 . S
C434 H426 0.930 . S
C434 C433 1.362 . S
C434 C437 1.409 . S
C435 H427 0.930 . S
C435 C436 1.355 . S
C435 C437 1.415 . S
C436 C435 1.355 . S
C436 C438 1.419 . S
C437 C432 1.425 . S
C437 C434 1.409 . S
C437 C435 1.415 . S
C438 H428 0.930 . S
C438 C436 1.419 . S
C438 C439 1.362 . S
C439 H429 0.930 1_554 S
C439 C432 1.409 . S
C439 C438 1.362 . S
H440 C446 0.930 . S
H441 C449 0.930 . S
H442 C450 0.930 . S
H443 C451 0.930 . S
H444 C454 0.930 . S
H445 C455 0.930 . S
C446 H440 0.930 . S
C446 C447 1.355 . S
C446 C448 1.415 . S
C447 C446 1.355 . S
C447 C449 1.419 1_554 S
C448 C446 1.415 . S
C448 C453 1.425 1_554 S
C448 C455 1.409 . S
C449 H441 0.930 . S
C449 C447 1.419 1_556 S
C449 C450 1.362 . S
C450 H442 0.930 . S
C450 C449 1.362 . S
C450 C453 1.409 . S
C451 H443 0.930 . S
C451 C452 1.355 1_556 S
C451 C453 1.415 . S
C452 C451 1.355 1_554 S
C452 C454 1.419 . S
C453 C448 1.425 1_556 S
C453 C450 1.409 . S
C453 C451 1.415 . S
C454 H444 0.930 . S
C454 C452 1.419 . S
C454 C455 1.362 . S
C455 H445 0.930 . S
C455 C448 1.409 . S
C455 C454 1.362 . S
H456 C462 0.930 . S
H457 C465 0.930 . S
H458 C466 0.930 . S
H459 C467 0.930 . S
H460 C470 0.930 . S
H461 C471 0.930 . S
C462 H456 0.930 . S
C462 C463 1.355 . S
C462 C464 1.415 1_655 S
C463 C462 1.355 . S
C463 C465 1.419 . S
C464 C462 1.415 1_455 S
C464 C469 1.425 . S
C464 C471 1.409 . S
C465 H457 0.930 . S
C465 C463 1.419 . S
C465 C466 1.362 . S
C466 H458 0.930 . S
C466 C465 1.362 . S
C466 C469 1.409 1_655 S
C467 H459 0.930 . S
C467 C468 1.355 . S
C467 C469 1.415 . S
C468 C467 1.355 . S
C468 C470 1.419 . S
C469 C464 1.425 . S
C469 C466 1.409 1_455 S
C469 C467 1.415 . S
C470 H460 0.930 . S
C470 C468 1.419 . S
C470 C471 1.362 . S
C471 H461 0.930 . S
C471 C464 1.409 . S
C471 C470 1.362 . S
H472 C478 0.930 . S
H473 C481 0.930 . S
H474 C482 0.930 . S
H475 C483 0.930 . S
H476 C486 0.930 . S
H477 C487 0.930 . S
C478 H472 0.930 . S
C478 C479 1.355 . S
C478 C480 1.415 . S
C479 C478 1.355 . S
C479 C481 1.419 . S
C480 C478 1.415 . S
C480 C485 1.425 . S
C480 C487 1.409 . S
C481 H473 0.930 . S
C481 C479 1.419 . S
C481 C482 1.362 . S
C482 H474 0.930 . S
C482 C481 1.362 . S
C482 C485 1.409 . S
C483 H475 0.930 . S
C483 C484 1.355 . S
C483 C485 1.415 . S
C484 C483 1.355 . S
C484 C486 1.419 . S
C485 C480 1.425 . S
C485 C482 1.409 . S
C485 C483 1.415 . S
C486 H476 0.930 . S
C486 C484 1.419 . S
C486 C487 1.362 . S
C487 H477 0.930 . S
C487 C480 1.409 . S
C487 C486 1.362 . S
H488 C494 0.930 1_565 S
H489 C497 0.930 . S
H490 C498 0.930 . S
H491 C499 0.930 . S
H492 C502 0.930 . S
H493 C503 0.930 . S
C494 H488 0.930 1_545 S
C494 C495 1.355 . S
C494 C496 1.415 1_545 S
C495 C494 1.355 . S
C495 C497 1.419 . S
C496 C494 1.415 1_565 S
C496 C501 1.425 . S
C496 C503 1.409 . S
C497 H489 0.930 . S
C497 C495 1.419 . S
C497 C498 1.362 . S
C498 H490 0.930 . S
C498 C497 1.362 . S
C498 C501 1.409 1_545 S
C499 H491 0.930 . S
C499 C500 1.355 . S
C499 C501 1.415 . S
C500 C499 1.355 . S
C500 C502 1.419 . S
C501 C496 1.425 . S
C501 C498 1.409 1_565 S
C501 C499 1.415 . S
C502 H492 0.930 . S
C502 C500 1.419 . S
C502 C503 1.362 . S
C503 H493 0.930 . S
C503 C496 1.409 . S
C503 C502 1.362 . S
H504 C510 0.930 . S
H505 C513 0.930 . S
H506 C514 0.930 . S
H507 C515 0.930 . S
H508 C518 0.930 . S
H509 C519 0.930 . S
C510 H504 0.930 . S
C510 C511 1.355 . S
C510 C512 1.415 . S
C511 C510 1.355 . S
C511 C513 1.419 . S
C512 C510 1.415 . S
C512 C517 1.425 . S
C512 C519 1.409 . S
C513 H505 0.930 . S
C513 C511 1.419 . S
C513 C514 1.362 . S
C514 H506 0.930 . S
C514 C513 1.362 . S
C514 C517 1.409 . S
C515 H507 0.930 . S
C515 C516 1.355 . S
C515 C517 1.415 . S
C516 C515 1.355 . S
C516 C518 1.419 . S
C517 C512 1.425 . S
C517 C514 1.409 . S
C517 C515 1.415 . S
C518 H508 0.930 . S
C518 C516 1.419 . S
C518 C519 1.362 . S
C519 H509 0.930 . S
C519 C512 1.409 . S
C519 C518 1.362 . S
H520 C526 0.930 . S
H521 C529 0.930 . S
H522 C530 0.930 . S
H523 C531 0.930 . S
H524 C534 0.930 . S
H525 C535 0.930 . S
C526 H520 0.930 . S
C526 C527 1.355 . S
C526 C528 1.415 . S
C527 C526 1.355 . S
C527 C529 1.419 . S
C528 C526 1.415 . S
C528 C533 1.425 . S
C528 C535 1.409 . S
C529 H521 0.930 . S
C529 C527 1.419 . S
C529 C530 1.362 . S
C530 H522 0.930 . S
C530 C529 1.362 . S
C530 C533 1.409 . S
C531 H523 0.930 . S
C531 C532 1.355 . S
C531 C533 1.415 . S
C532 C531 1.355 . S
C532 C534 1.419 . S
C533 C528 1.425 . S
C533 C530 1.409 . S
C533 C531 1.415 . S
C534 H524 0.930 . S
C534 C532 1.419 . S
C534 C535 1.362 . S
C535 H525 0.930 . S
C535 C528 1.409 . S
C535 C534 1.362 . S
H536 C542 0.930 . S
H537 C545 0.930 . S
H538 C546 0.930 . S
H539 C547 0.930 . S
H540 C550 0.930 . S
H541 C551 0.930 . S
C542 H536 0.930 . S
C542 C543 1.355 . S
C542 C544 1.415 . S
C543 C542 1.355 . S
C543 C545 1.419 . S
C544 C542 1.415 . S
C544 C549 1.425 . S
C544 C551 1.409 . S
C545 H537 0.930 . S
C545 C543 1.419 . S
C545 C546 1.362 . S
C546 H538 0.930 . S
C546 C545 1.362 . S
C546 C549 1.409 . S
C547 H539 0.930 . S
C547 C548 1.355 . S
C547 C549 1.415 . S
C548 C547 1.355 . S
C548 C550 1.419 . S
C549 C544 1.425 . S
C549 C546 1.409 . S
C549 C547 1.415 . S
C550 H540 0.930 . S
C550 C548 1.419 . S
C550 C551 1.362 . S
C551 H541 0.930 . S
C551 C544 1.409 . S
C551 C550 1.362 . S
H552 C558 0.930 . S
H553 C561 0.930 . S
H554 C562 0.930 . S
H555 C563 0.930 . S
H556 C566 0.930 . S
H557 C567 0.930 . S
C558 H552 0.930 . S
C558 C559 1.355 . S
C558 C560 1.415 . S
C559 C558 1.355 . S
C559 C561 1.419 . S
C560 C558 1.415 . S
C560 C565 1.425 . S
C560 C567 1.409 . S
C561 H553 0.930 . S
C561 C559 1.419 . S
C561 C562 1.362 . S
C562 H554 0.930 . S
C562 C561 1.362 . S
C562 C565 1.409 . S
C563 H555 0.930 . S
C563 C564 1.355 . S
C563 C565 1.415 . S
C564 C563 1.355 . S
C564 C566 1.419 . S
C565 C560 1.425 . S
C565 C562 1.409 . S
C565 C563 1.415 . S
C566 H556 0.930 . S
C566 C564 1.419 . S
C566 C567 1.362 . S
C567 H557 0.930 . S
C567 C560 1.409 . S
C567 C566 1.362 . S
H568 C574 0.930 . S
H569 C577 0.930 . S
H570 C578 0.930 . S
H571 C579 0.930 . S
H572 C582 0.930 . S
H573 C583 0.930 . S
C574 H568 0.930 . S
C574 C575 1.355 . S
C574 C576 1.415 . S
C575 C574 1.355 . S
C575 C577 1.419 . S
C576 C574 1.415 . S
C576 C581 1.425 . S
C576 C583 1.409 . S
C577 H569 0.930 . S
C577 C575 1.419 . S
C577 C578 1.362 . S
C578 H570 0.930 . S
C578 C577 1.362 . S
C578 C581 1.409 . S
C579 H571 0.930 . S
C579 C580 1.355 . S
C579 C581 1.415 . S
C580 C579 1.355 . S
C580 C582 1.419 . S
C581 C576 1.425 . S
C581 C578 1.409 . S
C581 C579 1.415 . S
C582 H572 0.930 . S
C582 C580 1.419 . S
C582 C583 1.362 . S
C583 H573 0.930 . S
C583 C576 1.409 . S
C583 C582 1.362 . S
H584 C590 0.930 . S
H585 C593 0.930 . S
H586 C594 0.930 . S
H587 C595 0.930 . S
H588 C598 0.930 . S
H589 C599 0.930 . S
C590 H584 0.930 . S
C590 C591 1.355 . S
C590 C592 1.415 . S
C591 C590 1.355 . S
C591 C593 1.419 . S
C592 C590 1.415 . S
C592 C597 1.425 . S
C592 C599 1.409 . S
C593 H585 0.930 . S
C593 C591 1.419 . S
C593 C594 1.362 . S
C594 H586 0.930 . S
C594 C593 1.362 . S
C594 C597 1.409 . S
C595 H587 0.930 . S
C595 C596 1.355 . S
C595 C597 1.415 . S
C596 C595 1.355 . S
C596 C598 1.419 . S
C597 C592 1.425 . S
C597 C594 1.409 . S
C597 C595 1.415 . S
C598 H588 0.930 . S
C598 C596 1.419 . S
C598 C599 1.362 . S
C599 H589 0.930 . S
C599 C592 1.409 . S
C599 C598 1.362 . S
H600 C606 0.930 . S
H601 C609 0.930 . S
H602 C610 0.930 . S
H603 C611 0.930 . S
H604 C614 0.930 . S
H605 C615 0.936 . S
C606 H600 0.930 . S
C606 C607 1.355 . S
C606 C608 1.415 . S
C607 C606 1.355 . S
C607 C609 1.419 . S
C608 C606 1.415 . S
C608 C613 1.425 . S
C608 C615 1.413 . S
C609 H601 0.930 . S
C609 C607 1.419 . S
C609 C610 1.362 . S
C610 H602 0.930 . S
C610 C609 1.362 . S
C610 C613 1.409 . S
C611 H603 0.930 . S
C611 C612 1.355 . S
C611 C613 1.415 1_545 S
C612 C611 1.355 . S
C612 C614 1.419 . S
C613 C608 1.425 . S
C613 C610 1.409 . S
C613 C611 1.415 1_565 S
C614 H604 0.930 . S
C614 C612 1.419 . S
C614 C615 1.352 1_545 S
C615 H605 0.936 . S
C615 C608 1.413 . S
C615 C614 1.352 1_565 S
H616 C622 0.930 . S
H617 C625 0.930 . S
H618 C626 0.930 . S
H619 C627 0.930 . S
H620 C630 0.930 . S
H621 C631 0.930 . S
C622 H616 0.930 . S
C622 C623 1.355 1_545 S
C622 C624 1.415 . S
C623 C622 1.355 1_565 S
C623 C625 1.419 . S
C624 C622 1.415 . S
C624 C629 1.425 1_545 S
C624 C631 1.409 . S
C625 H617 0.930 . S
C625 C623 1.419 . S
C625 C626 1.362 . S
C626 H618 0.930 . S
C626 C625 1.362 . S
C626 C629 1.409 . S
C627 H619 0.930 . S
C627 C628 1.355 1_565 S
C627 C629 1.415 . S
C628 C627 1.355 1_545 S
C628 C630 1.419 . S
C629 C624 1.425 1_565 S
C629 C626 1.409 . S
C629 C627 1.415 . S
C630 H620 0.930 . S
C630 C628 1.419 . S
C630 C631 1.362 . S
C631 H621 0.930 . S
C631 C624 1.409 . S
C631 C630 1.362 . S
H632 C638 0.930 . S
H633 C641 0.930 . S
H634 C642 0.930 . S
H635 C643 0.930 . S
H636 C646 0.930 . S
H637 C647 0.930 . S
C638 H632 0.930 . S
C638 C639 1.355 . S
C638 C640 1.415 . S
C639 C638 1.355 . S
C639 C641 1.419 . S
C640 C638 1.415 . S
C640 C645 1.425 . S
C640 C647 1.409 . S
C641 H633 0.930 . S
C641 C639 1.419 . S
C641 C642 1.362 . S
C642 H634 0.930 . S
C642 C641 1.362 . S
C642 C645 1.409 . S
C643 H635 0.930 . S
C643 C644 1.355 . S
C643 C645 1.415 . S
C644 C643 1.355 . S
C644 C646 1.419 . S
C645 C640 1.425 . S
C645 C642 1.409 . S
C645 C643 1.415 . S
C646 H636 0.930 . S
C646 C644 1.419 . S
C646 C647 1.362 . S
C647 H637 0.930 . S
C647 C640 1.409 . S
C647 C646 1.362 . S
H648 C654 0.930 . S
H649 C657 0.930 . S
H650 C658 0.930 . S
H651 C659 0.930 . S
H652 C662 0.930 . S
H653 C663 0.930 . S
C654 H648 0.930 . S
C654 C655 1.355 . S
C654 C656 1.415 . S
C655 C654 1.355 . S
C655 C657 1.419 . S
C656 C654 1.415 . S
C656 C661 1.425 . S
C656 C663 1.409 . S
C657 H649 0.930 . S
C657 C655 1.419 . S
C657 C658 1.362 . S
C658 H650 0.930 . S
C658 C657 1.362 . S
C658 C661 1.409 . S
C659 H651 0.930 . S
C659 C660 1.355 . S
C659 C661 1.415 . S
C660 C659 1.355 . S
C660 C662 1.419 . S
C661 C656 1.425 . S
C661 C658 1.409 . S
C661 C659 1.415 . S
C662 H652 0.930 . S
C662 C660 1.419 . S
C662 C663 1.362 . S
C663 H653 0.930 . S
C663 C656 1.409 . S
C663 C662 1.362 . S
H664 C670 0.930 . S
H665 C673 0.930 . S
H666 C674 0.930 . S
H667 C675 0.930 . S
H668 C678 0.930 . S
H669 C679 0.930 . S
C670 H664 0.930 . S
C670 C671 1.355 . S
C670 C672 1.415 . S
C671 C670 1.355 . S
C671 C673 1.419 . S
C672 C670 1.415 . S
C672 C677 1.425 . S
C672 C679 1.409 . S
C673 H665 0.930 . S
C673 C671 1.419 . S
C673 C674 1.362 . S
C674 H666 0.930 . S
C674 C673 1.362 . S
C674 C677 1.409 . S
C675 H667 0.930 . S
C675 C676 1.355 . S
C675 C677 1.415 . S
C676 C675 1.355 . S
C676 C678 1.419 . S
C677 C672 1.425 . S
C677 C674 1.409 . S
C677 C675 1.415 . S
C678 H668 0.930 . S
C678 C676 1.419 . S
C678 C679 1.362 . S
C679 H669 0.930 . S
C679 C672 1.409 . S
C679 C678 1.362 . S
H680 C686 0.930 . S
H681 C689 0.950 . S
H682 C690 0.930 1_545 S
H683 C691 0.930 . S
H684 C694 0.930 . S
H685 C695 0.930 . S
C686 H680 0.930 . S
C686 C687 1.355 . S
C686 C688 1.415 . S
C687 C686 1.355 . S
C687 C689 1.391 1_565 S
C688 C686 1.415 . S
C688 C693 1.425 . S
C688 C695 1.409 . S
C689 H681 0.950 . S
C689 C687 1.391 1_545 S
C689 C690 1.370 1_545 S
C690 H682 0.930 1_565 S
C690 C689 1.370 1_565 S
C690 C693 1.409 . S
C691 H683 0.930 . S
C691 C692 1.355 . S
C691 C693 1.415 . S
C692 C691 1.355 . S
C692 C694 1.419 . S
C693 C688 1.425 . S
C693 C690 1.409 . S
C693 C691 1.415 . S
C694 H684 0.930 . S
C694 C692 1.419 . S
C694 C695 1.362 . S
C695 H685 0.930 . S
C695 C688 1.409 . S
C695 C694 1.362 . S
H696 C702 0.930 . S
H697 C705 0.930 . S
H698 C706 0.930 . S
H699 C707 0.930 . S
H700 C710 0.930 . S
H701 C711 0.930 . S
C702 H696 0.930 . S
C702 C703 1.355 . S
C702 C704 1.415 . S
C703 C702 1.355 . S
C703 C705 1.419 . S
C704 C702 1.415 . S
C704 C709 1.425 . S
C704 C711 1.409 . S
C705 H697 0.930 . S
C705 C703 1.419 . S
C705 C706 1.362 . S
C706 H698 0.930 . S
C706 C705 1.362 . S
C706 C709 1.409 . S
C707 H699 0.930 . S
C707 C708 1.355 . S
C707 C709 1.415 . S
C708 C707 1.355 . S
C708 C710 1.419 . S
C709 C704 1.425 . S
C709 C706 1.409 . S
C709 C707 1.415 . S
C710 H700 0.930 . S
C710 C708 1.419 . S
C710 C711 1.362 . S
C711 H701 0.930 . S
C711 C704 1.409 . S
C711 C710 1.362 . S
H712 C718 0.930 . S
H713 C721 0.930 . S
H714 C722 0.930 . S
H715 C723 0.930 . S
H716 C726 0.930 . S
H717 C727 0.930 . S
C718 H712 0.930 . S
C718 C719 1.355 . S
C718 C720 1.415 . S
C719 C718 1.355 . S
C719 C721 1.419 . S
C720 C718 1.415 . S
C720 C725 1.425 . S
C720 C727 1.409 . S
C721 H713 0.930 . S
C721 C719 1.419 . S
C721 C722 1.362 . S
C722 H714 0.930 . S
C722 C721 1.362 . S
C722 C725 1.409 . S
C723 H715 0.930 . S
C723 C724 1.355 . S
C723 C725 1.415 . S
C724 C723 1.355 . S
C724 C726 1.419 . S
C725 C720 1.425 . S
C725 C722 1.409 . S
C725 C723 1.415 . S
C726 H716 0.930 . S
C726 C724 1.419 . S
C726 C727 1.362 . S
C727 H717 0.930 . S
C727 C720 1.409 . S
C727 C726 1.362 . S
H728 C734 0.930 . S
H729 C737 0.930 . S
H730 C738 0.930 . S
H731 C739 0.930 . S
H732 C742 0.930 . S
H733 C743 0.930 . S
C734 H728 0.930 . S
C734 C735 1.355 . S
C734 C736 1.415 . S
C735 C734 1.355 . S
C735 C737 1.419 . S
C736 C734 1.415 . S
C736 C741 1.425 . S
C736 C743 1.409 . S
C737 H729 0.930 . S
C737 C735 1.419 . S
C737 C738 1.362 . S
C738 H730 0.930 . S
C738 C737 1.362 . S
C738 C741 1.409 . S
C739 H731 0.930 . S
C739 C740 1.355 . S
C739 C741 1.415 . S
C740 C739 1.355 . S
C740 C742 1.419 . S
C741 C736 1.425 . S
C741 C738 1.409 . S
C741 C739 1.415 . S
C742 H732 0.930 . S
C742 C740 1.419 . S
C742 C743 1.362 . S
C743 H733 0.930 . S
C743 C736 1.409 . S
C743 C742 1.362 . S
H744 C750 0.930 . S
H745 C753 0.930 . S
H746 C754 0.930 . S
H747 C755 0.930 . S
H748 C758 0.930 . S
H749 C759 0.930 . S
C750 H744 0.930 . S
C750 C751 1.355 . S
C750 C752 1.415 . S
C751 C750 1.355 . S
C751 C753 1.419 . S
C752 C750 1.415 . S
C752 C757 1.425 . S
C752 C759 1.409 . S
C753 H745 0.930 . S
C753 C751 1.419 . S
C753 C754 1.362 . S
C754 H746 0.930 . S
C754 C753 1.362 . S
C754 C757 1.409 . S
C755 H747 0.930 . S
C755 C756 1.355 . S
C755 C757 1.415 . S
C756 C755 1.355 . S
C756 C758 1.419 . S
C757 C752 1.425 . S
C757 C754 1.409 . S
C757 C755 1.415 . S
C758 H748 0.930 . S
C758 C756 1.419 . S
C758 C759 1.362 . S
C759 H749 0.930 . S
C759 C752 1.409 . S
C759 C758 1.362 . S
H760 C766 0.930 . S
H761 C769 0.930 . S
H762 C770 0.930 . S
H763 C771 0.930 . S
H764 C774 0.930 . S
H765 C775 0.930 1_565 S
C766 H760 0.930 . S
C766 C767 1.355 . S
C766 C768 1.415 . S
C767 C766 1.355 . S
C767 C769 1.419 . S
C768 C766 1.415 . S
C768 C773 1.425 1_565 S
C768 C775 1.409 1_565 S
C769 H761 0.930 . S
C769 C767 1.419 . S
C769 C770 1.362 1_565 S
C770 H762 0.930 . S
C770 C769 1.362 1_545 S
C770 C773 1.409 . S
C771 H763 0.930 . S
C771 C772 1.355 . S
C771 C773 1.415 . S
C772 C771 1.355 . S
C772 C774 1.419 . S
C773 C768 1.425 1_545 S
C773 C770 1.409 . S
C773 C771 1.415 . S
C774 H764 0.930 . S
C774 C772 1.419 . S
C774 C775 1.362 . S
C775 H765 0.930 1_545 S
C775 C768 1.409 1_545 S
C775 C774 1.362 . S
H776 C782 0.930 . S
H777 C785 0.930 . S
H778 C786 0.930 . S
H779 C787 0.930 . S
H780 C790 0.930 . S
H781 C791 0.930 . S
C782 H776 0.930 . S
C782 C783 1.355 . S
C782 C784 1.415 1_655 S
C783 C782 1.355 . S
C783 C785 1.419 . S
C784 C782 1.415 1_455 S
C784 C789 1.425 . S
C784 C791 1.409 . S
C785 H777 0.930 . S
C785 C783 1.419 . S
C785 C786 1.362 . S
C786 H778 0.930 . S
C786 C785 1.362 . S
C786 C789 1.409 1_655 S
C787 H779 0.930 . S
C787 C788 1.355 . S
C787 C789 1.415 . S
C788 C787 1.355 . S
C788 C790 1.419 . S
C789 C784 1.425 . S
C789 C786 1.409 1_455 S
C789 C787 1.415 . S
C790 H780 0.930 . S
C790 C788 1.419 . S
C790 C791 1.362 . S
C791 H781 0.930 . S
C791 C784 1.409 . S
C791 C790 1.362 . S
C367 C49 0.838 . S
C372 C26 0.870 . S
C383 C83 3.400 1_556 S
C388 C62 3.471 . S
C399 C106 1.101 . S
C404 C3 1.112 . S
C415 C102 3.144 . S
C420 C43 3.104 . S
C431 C89 2.313 . S
C436 C22 2.440 . S
C447 C9 0.718 . S
C452 C66 0.490 . S
C463 C146 2.983 . S
C468 C163 2.941 . S
C479 C203 0.864 . S
C484 C186 0.964 . S
C495 C226 0.933 . S
C500 C123 0.964 . S
C511 C169 0.630 . S
C516 C222 0.615 . S
C527 C209 2.333 . S
C532 C142 2.461 . S
C543 C182 2.481 . S
C548 C129 2.461 . S
C559 C289 0.823 . S
C564 C266 0.848 . S
C575 C302 3.492 . S
C580 C323 3.424 . S
C591 C346 1.117 . S
C596 C243 1.096 . S
C607 C342 3.080 . S
C612 C283 3.059 . S
C623 C329 2.265 . S
C628 C262 2.415 . S
C639 C249 0.669 . S
C644 C306 0.432 . S
C655 C215 2.246 . S
C660 C2 2.639 . S
C671 C135 1.970 . S
C676 C55 1.874 . S
C687 C82 3.098 . S
C692 C175 2.798 . S
C703 C95 2.258 . S
C708 C242 2.640 . S
C719 C15 1.825 . S
C724 C295 1.766 . S
C735 C322 3.062 . S
C740 C42 3.071 . S
C751 C122 2.722 . S
C756 C335 2.317 . S
C767 C162 2.048 . S
C772 C255 1.830 . S
C783 C282 2.975 . S
C788 C202 2.967 . S
