# Generated by pormake.
# Topology wna, (6)-cn, num edge types: 1
# Building blocks:
#     Node 0, Type 0, BuildingBlock: GEDQOX_clean_sbu_0, # of connection points: 6
#     Node 1, Type 0, BuildingBlock: GEDQOX_clean_sbu_0, # of connection points: 6
#     Node 2, Type 0, BuildingBlock: GEDQOX_clean_sbu_0, # of connection points: 6
#     Node 3, Type 0, BuildingBlock: GEDQOX_clean_sbu_0, # of connection points: 6
#     Node 4, Type 0, BuildingBlock: GEDQOX_clean_sbu_0, # of connection points: 6
#     Node 5, Type 0, BuildingBlock: GEDQOX_clean_sbu_0, # of connection points: 6
#     Node 6, Type 0, BuildingBlock: GEDQOX_clean_sbu_0, # of connection points: 6
#     Node 7, Type 0, BuildingBlock: GEDQOX_clean_sbu_0, # of connection points: 6
#     Node 8, Type 0, BuildingBlock: GEDQOX_clean_sbu_0, # of connection points: 6
#     Node 9, Type 0, BuildingBlock: GEDQOX_clean_sbu_0, # of connection points: 6
#     Node 10, Type 0, BuildingBlock: GEDQOX_clean_sbu_0, # of connection points: 6
#     Node 11, Type 0, BuildingBlock: GEDQOX_clean_sbu_0, # of connection points: 6
#     Node 12, Type 0, BuildingBlock: GEDQOX_clean_sbu_0, # of connection points: 6
#     Node 13, Type 0, BuildingBlock: GEDQOX_clean_sbu_0, # of connection points: 6
#     Node 14, Type 0, BuildingBlock: GEDQOX_clean_sbu_0, # of connection points: 6
#     Node 15, Type 0, BuildingBlock: GEDQOX_clean_sbu_0, # of connection points: 6
#     Node 16, Type 0, BuildingBlock: GEDQOX_clean_sbu_0, # of connection points: 6
#     Node 17, Type 0, BuildingBlock: GEDQOX_clean_sbu_0, # of connection points: 6
#     Node 18, Type 0, BuildingBlock: GEDQOX_clean_sbu_0, # of connection points: 6
#     Node 19, Type 0, BuildingBlock: GEDQOX_clean_sbu_0, # of connection points: 6
#     Node 20, Type 0, BuildingBlock: GEDQOX_clean_sbu_0, # of connection points: 6
#     Node 21, Type 0, BuildingBlock: GEDQOX_clean_sbu_0, # of connection points: 6
#     Node 22, Type 0, BuildingBlock: GEDQOX_clean_sbu_0, # of connection points: 6
#     Node 23, Type 0, BuildingBlock: GEDQOX_clean_sbu_0, # of connection points: 6
#     Node 24, Type 0, BuildingBlock: GEDQOX_clean_sbu_0, # of connection points: 6
#     Node 25, Type 0, BuildingBlock: GEDQOX_clean_sbu_0, # of connection points: 6
#     Node 26, Type 0, BuildingBlock: GEDQOX_clean_sbu_0, # of connection points: 6
#     Node 27, Type 0, BuildingBlock: GEDQOX_clean_sbu_0, # of connection points: 6
#     Node 28, Type 0, BuildingBlock: GEDQOX_clean_sbu_0, # of connection points: 6
#     Node 29, Type 0, BuildingBlock: GEDQOX_clean_sbu_0, # of connection points: 6
#     Node 30, Type 0, BuildingBlock: GEDQOX_clean_sbu_0, # of connection points: 6
#     Node 31, Type 0, BuildingBlock: GEDQOX_clean_sbu_0, # of connection points: 6
#     Node 32, Type 0, BuildingBlock: GEDQOX_clean_sbu_0, # of connection points: 6
#     Node 33, Type 0, BuildingBlock: GEDQOX_clean_sbu_0, # of connection points: 6
#     Node 34, Type 0, BuildingBlock: GEDQOX_clean_sbu_0, # of connection points: 6
#     Node 35, Type 0, BuildingBlock: GEDQOX_clean_sbu_0, # of connection points: 6
#     Edge 36, Type (0, 0), BuildingBlock: XIVTED_clean_linker_0, # of connection points: 2
#     Edge 37, Type (0, 0), BuildingBlock: XIVTED_clean_linker_0, # of connection points: 2
#     Edge 38, Type (0, 0), BuildingBlock: XIVTED_clean_linker_0, # of connection points: 2
#     Edge 39, Type (0, 0), BuildingBlock: XIVTED_clean_linker_0, # of connection points: 2
#     Edge 40, Type (0, 0), BuildingBlock: XIVTED_clean_linker_0, # of connection points: 2
#     Edge 41, Type (0, 0), BuildingBlock: XIVTED_clean_linker_0, # of connection points: 2
#     Edge 42, Type (0, 0), BuildingBlock: XIVTED_clean_linker_0, # of connection points: 2
#     Edge 43, Type (0, 0), BuildingBlock: XIVTED_clean_linker_0, # of connection points: 2
#     Edge 44, Type (0, 0), BuildingBlock: XIVTED_clean_linker_0, # of connection points: 2
#     Edge 45, Type (0, 0), BuildingBlock: XIVTED_clean_linker_0, # of connection points: 2
#     Edge 46, Type (0, 0), BuildingBlock: XIVTED_clean_linker_0, # of connection points: 2
#     Edge 47, Type (0, 0), BuildingBlock: XIVTED_clean_linker_0, # of connection points: 2
#     Edge 48, Type (0, 0), BuildingBlock: XIVTED_clean_linker_0, # of connection points: 2
#     Edge 49, Type (0, 0), BuildingBlock: XIVTED_clean_linker_0, # of connection points: 2
#     Edge 50, Type (0, 0), BuildingBlock: XIVTED_clean_linker_0, # of connection points: 2
#     Edge 51, Type (0, 0), BuildingBlock: XIVTED_clean_linker_0, # of connection points: 2
#     Edge 52, Type (0, 0), BuildingBlock: XIVTED_clean_linker_0, # of connection points: 2
#     Edge 53, Type (0, 0), BuildingBlock: XIVTED_clean_linker_0, # of connection points: 2
#     Edge 54, Type (0, 0), BuildingBlock: XIVTED_clean_linker_0, # of connection points: 2
#     Edge 55, Type (0, 0), BuildingBlock: XIVTED_clean_linker_0, # of connection points: 2
#     Edge 56, Type (0, 0), BuildingBlock: XIVTED_clean_linker_0, # of connection points: 2
#     Edge 57, Type (0, 0), BuildingBlock: XIVTED_clean_linker_0, # of connection points: 2
#     Edge 58, Type (0, 0), BuildingBlock: XIVTED_clean_linker_0, # of connection points: 2
#     Edge 59, Type (0, 0), BuildingBlock: XIVTED_clean_linker_0, # of connection points: 2
#     Edge 60, Type (0, 0), BuildingBlock: XIVTED_clean_linker_0, # of connection points: 2
#     Edge 61, Type (0, 0), BuildingBlock: XIVTED_clean_linker_0, # of connection points: 2
#     Edge 62, Type (0, 0), BuildingBlock: XIVTED_clean_linker_0, # of connection points: 2
#     Edge 63, Type (0, 0), BuildingBlock: XIVTED_clean_linker_0, # of connection points: 2
#     Edge 64, Type (0, 0), BuildingBlock: XIVTED_clean_linker_0, # of connection points: 2
#     Edge 65, Type (0, 0), BuildingBlock: XIVTED_clean_linker_0, # of connection points: 2
#     Edge 66, Type (0, 0), BuildingBlock: XIVTED_clean_linker_0, # of connection points: 2
#     Edge 67, Type (0, 0), BuildingBlock: XIVTED_clean_linker_0, # of connection points: 2
#     Edge 68, Type (0, 0), BuildingBlock: XIVTED_clean_linker_0, # of connection points: 2
#     Edge 69, Type (0, 0), BuildingBlock: XIVTED_clean_linker_0, # of connection points: 2
#     Edge 70, Type (0, 0), BuildingBlock: XIVTED_clean_linker_0, # of connection points: 2
#     Edge 71, Type (0, 0), BuildingBlock: XIVTED_clean_linker_0, # of connection points: 2
#     Edge 72, Type (0, 0), BuildingBlock: XIVTED_clean_linker_0, # of connection points: 2
#     Edge 73, Type (0, 0), BuildingBlock: XIVTED_clean_linker_0, # of connection points: 2
#     Edge 74, Type (0, 0), BuildingBlock: XIVTED_clean_linker_0, # of connection points: 2
#     Edge 75, Type (0, 0), BuildingBlock: XIVTED_clean_linker_0, # of connection points: 2
#     Edge 76, Type (0, 0), BuildingBlock: XIVTED_clean_linker_0, # of connection points: 2
#     Edge 77, Type (0, 0), BuildingBlock: XIVTED_clean_linker_0, # of connection points: 2
#     Edge 78, Type (0, 0), BuildingBlock: XIVTED_clean_linker_0, # of connection points: 2
#     Edge 79, Type (0, 0), BuildingBlock: XIVTED_clean_linker_0, # of connection points: 2
#     Edge 80, Type (0, 0), BuildingBlock: XIVTED_clean_linker_0, # of connection points: 2
#     Edge 81, Type (0, 0), BuildingBlock: XIVTED_clean_linker_0, # of connection points: 2
#     Edge 82, Type (0, 0), BuildingBlock: XIVTED_clean_linker_0, # of connection points: 2
#     Edge 83, Type (0, 0), BuildingBlock: XIVTED_clean_linker_0, # of connection points: 2
#     Edge 84, Type (0, 0), BuildingBlock: XIVTED_clean_linker_0, # of connection points: 2
#     Edge 85, Type (0, 0), BuildingBlock: XIVTED_clean_linker_0, # of connection points: 2
#     Edge 86, Type (0, 0), BuildingBlock: XIVTED_clean_linker_0, # of connection points: 2
#     Edge 87, Type (0, 0), BuildingBlock: XIVTED_clean_linker_0, # of connection points: 2
#     Edge 88, Type (0, 0), BuildingBlock: XIVTED_clean_linker_0, # of connection points: 2
#     Edge 89, Type (0, 0), BuildingBlock: XIVTED_clean_linker_0, # of connection points: 2
#     Edge 90, Type (0, 0), BuildingBlock: XIVTED_clean_linker_0, # of connection points: 2
#     Edge 91, Type (0, 0), BuildingBlock: XIVTED_clean_linker_0, # of connection points: 2
#     Edge 92, Type (0, 0), BuildingBlock: XIVTED_clean_linker_0, # of connection points: 2
#     Edge 93, Type (0, 0), BuildingBlock: XIVTED_clean_linker_0, # of connection points: 2
#     Edge 94, Type (0, 0), BuildingBlock: XIVTED_clean_linker_0, # of connection points: 2
#     Edge 95, Type (0, 0), BuildingBlock: XIVTED_clean_linker_0, # of connection points: 2
#     Edge 96, Type (0, 0), BuildingBlock: XIVTED_clean_linker_0, # of connection points: 2
#     Edge 97, Type (0, 0), BuildingBlock: XIVTED_clean_linker_0, # of connection points: 2
#     Edge 98, Type (0, 0), BuildingBlock: XIVTED_clean_linker_0, # of connection points: 2
#     Edge 99, Type (0, 0), BuildingBlock: XIVTED_clean_linker_0, # of connection points: 2
#     Edge 100, Type (0, 0), BuildingBlock: XIVTED_clean_linker_0, # of connection points: 2
#     Edge 101, Type (0, 0), BuildingBlock: XIVTED_clean_linker_0, # of connection points: 2
#     Edge 102, Type (0, 0), BuildingBlock: XIVTED_clean_linker_0, # of connection points: 2
#     Edge 103, Type (0, 0), BuildingBlock: XIVTED_clean_linker_0, # of connection points: 2
#     Edge 104, Type (0, 0), BuildingBlock: XIVTED_clean_linker_0, # of connection points: 2
#     Edge 105, Type (0, 0), BuildingBlock: XIVTED_clean_linker_0, # of connection points: 2
#     Edge 106, Type (0, 0), BuildingBlock: XIVTED_clean_linker_0, # of connection points: 2
#     Edge 107, Type (0, 0), BuildingBlock: XIVTED_clean_linker_0, # of connection points: 2
#     Edge 108, Type (0, 0), BuildingBlock: XIVTED_clean_linker_0, # of connection points: 2
#     Edge 109, Type (0, 0), BuildingBlock: XIVTED_clean_linker_0, # of connection points: 2
#     Edge 110, Type (0, 0), BuildingBlock: XIVTED_clean_linker_0, # of connection points: 2
#     Edge 111, Type (0, 0), BuildingBlock: XIVTED_clean_linker_0, # of connection points: 2
#     Edge 112, Type (0, 0), BuildingBlock: XIVTED_clean_linker_0, # of connection points: 2
#     Edge 113, Type (0, 0), BuildingBlock: XIVTED_clean_linker_0, # of connection points: 2
#     Edge 114, Type (0, 0), BuildingBlock: XIVTED_clean_linker_0, # of connection points: 2
#     Edge 115, Type (0, 0), BuildingBlock: XIVTED_clean_linker_0, # of connection points: 2
#     Edge 116, Type (0, 0), BuildingBlock: XIVTED_clean_linker_0, # of connection points: 2
#     Edge 117, Type (0, 0), BuildingBlock: XIVTED_clean_linker_0, # of connection points: 2
#     Edge 118, Type (0, 0), BuildingBlock: XIVTED_clean_linker_0, # of connection points: 2
#     Edge 119, Type (0, 0), BuildingBlock: XIVTED_clean_linker_0, # of connection points: 2
#     Edge 120, Type (0, 0), BuildingBlock: XIVTED_clean_linker_0, # of connection points: 2
#     Edge 121, Type (0, 0), BuildingBlock: XIVTED_clean_linker_0, # of connection points: 2
#     Edge 122, Type (0, 0), BuildingBlock: XIVTED_clean_linker_0, # of connection points: 2
#     Edge 123, Type (0, 0), BuildingBlock: XIVTED_clean_linker_0, # of connection points: 2
#     Edge 124, Type (0, 0), BuildingBlock: XIVTED_clean_linker_0, # of connection points: 2
#     Edge 125, Type (0, 0), BuildingBlock: XIVTED_clean_linker_0, # of connection points: 2
#     Edge 126, Type (0, 0), BuildingBlock: XIVTED_clean_linker_0, # of connection points: 2
#     Edge 127, Type (0, 0), BuildingBlock: XIVTED_clean_linker_0, # of connection points: 2
#     Edge 128, Type (0, 0), BuildingBlock: XIVTED_clean_linker_0, # of connection points: 2
#     Edge 129, Type (0, 0), BuildingBlock: XIVTED_clean_linker_0, # of connection points: 2
#     Edge 130, Type (0, 0), BuildingBlock: XIVTED_clean_linker_0, # of connection points: 2
#     Edge 131, Type (0, 0), BuildingBlock: XIVTED_clean_linker_0, # of connection points: 2
#     Edge 132, Type (0, 0), BuildingBlock: XIVTED_clean_linker_0, # of connection points: 2
#     Edge 133, Type (0, 0), BuildingBlock: XIVTED_clean_linker_0, # of connection points: 2
#     Edge 134, Type (0, 0), BuildingBlock: XIVTED_clean_linker_0, # of connection points: 2
#     Edge 135, Type (0, 0), BuildingBlock: XIVTED_clean_linker_0, # of connection points: 2
#     Edge 136, Type (0, 0), BuildingBlock: XIVTED_clean_linker_0, # of connection points: 2
#     Edge 137, Type (0, 0), BuildingBlock: XIVTED_clean_linker_0, # of connection points: 2
#     Edge 138, Type (0, 0), BuildingBlock: XIVTED_clean_linker_0, # of connection points: 2
#     Edge 139, Type (0, 0), BuildingBlock: XIVTED_clean_linker_0, # of connection points: 2
#     Edge 140, Type (0, 0), BuildingBlock: XIVTED_clean_linker_0, # of connection points: 2
#     Edge 141, Type (0, 0), BuildingBlock: XIVTED_clean_linker_0, # of connection points: 2
#     Edge 142, Type (0, 0), BuildingBlock: XIVTED_clean_linker_0, # of connection points: 2
#     Edge 143, Type (0, 0), BuildingBlock: XIVTED_clean_linker_0, # of connection points: 2
# Relax obj value: 0.271
# Max RMSD: 0.239
# Mean RMSD: 0.210
data_MOF--net-wna--node1-GEDQOX_clean_sbu_0--edge1-XIVTED_clean_linker_0
_symmetry_space_group_name_H-M    P1
_symmetry_Int_Tables_number       1
_symmetry_cell_setting            triclinic
loop_
_symmetry_equiv_pos_as_xyz
'x, y, z'
_cell_length_a     45.412374
_cell_length_b     45.596891
_cell_length_c     113.95064
_cell_angle_alpha  90.040303
_cell_angle_beta   90.015506
_cell_angle_gamma 120.13376
loop_
_atom_site_label
_atom_site_type_symbol
_atom_site_fract_x
_atom_site_fract_y
_atom_site_fract_z
_atom_type_partial_charge
Nd0 Nd 0.15594 0.3375 0.18903 0.0
Nd1 Nd 0.12314 0.26824 0.17674 0.0
C2 C 0.18373 0.40163 0.19558 0.0
C3 C 0.21944 0.4293 0.19661 0.0
C4 C 0.23503 0.45218 0.18731 0.0
C5 C 0.2705 0.47128 0.1866 0.0
C6 C 0.29075 0.46749 0.19513 0.0
C7 C 0.27495 0.44858 0.20528 0.0
C8 C 0.2396 0.42977 0.20604 0.0
C9 C 0.18529 0.2986 0.1936 0.0
C10 C 0.1811 0.32983 0.16228 0.0
C11 C 0.09478 0.20281 0.17247 0.0
C12 C 0.06451 0.17441 0.1778 0.0
C13 C 0.05745 0.14097 0.17642 0.0
C14 C 1.02805 0.11422 0.18142 0.0
C15 C 1.00547 0.1207 0.18787 0.0
C16 C 1.01337 0.15441 0.18951 0.0
C17 C 1.04254 0.18097 0.1845 0.0
C18 C 0.09709 0.30926 0.17096 0.0
C19 C 0.09551 0.27708 0.20253 0.0
O20 O 0.17273 0.39118 0.18491 0.0
O21 O 0.17405 0.37647 0.20296 0.0
O22 O 0.18088 0.31603 0.20168 0.0
O23 O 0.17524 0.30278 0.18388 0.0
O24 O 0.17758 0.34972 0.17 0.0
O25 O 0.16691 0.29679 0.16397 0.0
O26 O 0.12079 0.219 0.17955 0.0
O27 O 0.08896 0.22322 0.16609 0.0
O28 O 0.10024 0.28956 0.16345 0.0
O29 O 0.10491 0.30429 0.18104 0.0
O30 O 0.10209 0.25747 0.19578 0.0
O31 O 0.10802 0.30932 0.19999 0.0
H32 H 0.22 0.45316 0.18009 0.0
H33 H 0.28195 0.48659 0.17885 0.0
H34 H 0.28954 0.44514 0.2121 0.0
H35 H 0.22834 0.41322 0.21353 0.0
H36 H 0.07432 0.13555 0.17134 0.0
H37 H 1.02245 0.08846 0.17992 0.0
H38 H 0.99675 0.16025 0.19457 0.0
H39 H 1.04769 0.20668 0.18573 0.0
Nd40 Nd 0.75452 0.84509 0.18962 0.0
Nd41 Nd 0.82389 0.89147 0.1782 0.0
C42 C 0.69061 0.80265 0.19545 0.0
C43 C 0.66152 0.80854 0.19648 0.0
C44 C 0.64043 0.80329 0.18675 0.0
C45 C 0.62184 0.82005 0.18604 0.0
C46 C 0.62449 0.84256 0.19498 0.0
C47 C 0.64087 0.84299 0.20551 0.0
C48 C 0.65906 0.82593 0.20628 0.0
C49 C 0.78645 0.91239 0.19614 0.0
C50 C 0.75945 0.88086 0.16368 0.0
C51 C 0.88804 0.93719 0.17407 0.0
C52 C 0.9205 0.94129 0.17824 0.0
C53 C 0.94684 0.94982 0.17019 0.0
C54 C 0.97518 0.94732 0.17336 0.0
C55 C 0.97755 0.93615 0.18464 0.0
C56 C 0.95226 0.92993 0.19296 0.0
C57 C 0.92386 0.93239 0.18977 0.0
C58 C 0.79039 0.82509 0.17076 0.0
C59 C 0.81818 0.8508 0.20285 0.0
O60 O 0.70242 0.80443 0.18483 0.0
O61 O 0.71501 0.81837 0.20315 0.0
O62 O 0.77092 0.88777 0.20354 0.0
O63 O 0.78421 0.90089 0.18602 0.0
O64 O 0.74119 0.85509 0.17087 0.0
O65 O 0.79173 0.90304 0.16585 0.0
O66 O 0.86931 0.94156 0.18183 0.0
O67 O 0.87034 0.9108 0.16733 0.0
O68 O 0.8082 0.8505 0.16379 0.0
O69 O 0.79311 0.83548 0.18112 0.0
O70 O 0.83611 0.87906 0.19677 0.0
O71 O 0.78665 0.82863 0.19986 0.0
H72 H 0.6409 0.78904 0.17921 0.0
H73 H 0.60825 0.81806 0.17799 0.0
H74 H 0.6432 0.8596 0.21269 0.0
H75 H 0.67411 0.82952 0.21409 0.0
H76 H 0.9447 0.95675 0.16127 0.0
H77 H 0.99463 0.95283 0.16683 0.0
H78 H 0.95338 0.92119 0.2017 0.0
H79 H 0.90382 0.92571 0.19614 0.0
Nd80 Nd 0.24308 0.9263 0.18898 0.0
Nd81 Nd 0.21241 0.96375 0.17589 0.0
C82 C 0.27478 0.89494 0.19682 0.0
C83 C 0.26307 0.85902 0.19936 0.0
C84 C 0.27151 0.84021 0.19172 0.0
C85 C 0.25335 0.8048 0.19212 0.0
C86 C 0.22636 0.78781 0.20012 0.0
C87 C 0.22122 0.80684 0.20874 0.0
C88 C 0.23944 0.8421 0.20838 0.0
C89 C 0.17447 0.90123 0.19227 0.0
C90 C 0.21512 0.90511 0.16156 0.0
C91 C 0.17824 0.99409 0.16989 0.0
C92 C 0.17727 1.02389 0.1743 0.0
C93 C 0.17898 0.04793 0.16628 0.0
C94 C 0.18259 0.0785 0.17026 0.0
C95 C 0.18454 0.08556 0.18235 0.0
C96 C 0.18134 0.06082 0.1904 0.0
C97 C 0.17788 1.03024 0.1864 0.0
C98 C 0.27971 0.98541 0.17137 0.0
C99 C 0.24583 0.98864 0.20219 0.0
O100 O 0.27469 0.90254 0.18575 0.0
O101 O 0.26297 0.9097 0.20366 0.0
O102 O 0.19454 0.90336 0.20072 0.0
O103 O 0.19054 0.91104 0.18285 0.0
O104 O 0.23673 0.90662 0.16973 0.0
O105 O 0.19734 0.92058 0.16294 0.0
O106 O 0.16568 0.96746 0.17675 0.0
O107 O 0.20682 1.00062 0.16488 0.0
O108 O 0.25868 0.98435 0.16341 0.0
O109 O 0.2653 0.97787 0.18119 0.0
O110 O 0.22127 0.98464 0.19496 0.0
O111 O 0.26407 0.97418 0.19998 0.0
H112 H 0.29023 0.85274 0.18486 0.0
H113 H 0.25857 0.79081 0.18556 0.0
H114 H 0.20075 0.79479 0.21506 0.0
H115 H 0.23281 0.85584 0.2146 0.0
H116 H 0.17856 0.04349 0.15692 0.0
H117 H 0.18439 0.0969 0.16386 0.0
H118 H 0.18284 0.06565 0.19975 0.0
H119 H 0.1767 1.01206 0.19276 0.0
Nd120 Nd 0.2944 0.15249 0.33633 0.0
Nd121 Nd 0.29207 0.1524 0.35751 0.0
C122 C 0.28422 0.14974 0.31332 0.0
C123 C 0.28352 0.13396 0.30206 0.0
C124 C 0.28269 0.15032 0.29178 0.0
C125 C 0.27946 0.13514 0.28088 0.0
C126 C 0.27705 0.10327 0.28006 0.0
C127 C 0.27873 0.08722 0.29039 0.0
C128 C 0.28183 0.10246 0.30135 0.0
C129 C 0.33821 0.12507 0.34322 0.0
C130 C 0.23083 0.08131 0.3474 0.0
C131 C 0.31278 0.15706 0.37956 0.0
C132 C 0.32706 0.17842 0.39015 0.0
C133 C 0.3608 0.18931 0.39346 0.0
C134 C 0.37289 0.20371 0.4045 0.0
C135 C 0.35139 0.2073 0.41253 0.0
C136 C 0.31823 0.19823 0.40895 0.0
C137 C 0.30615 0.18387 0.39789 0.0
C138 C 0.2355 0.15892 0.35167 0.0
C139 C 0.33643 0.2324 0.34665 0.0
O140 O 0.26049 0.13154 0.32089 0.0
O141 O 0.31371 0.16928 0.3182 0.0
O142 O 0.34535 0.14937 0.33579 0.0
O143 O 0.30927 0.11817 0.34763 0.0
O144 O 0.24244 0.09981 0.33774 0.0
O145 O 0.24863 0.09511 0.35705 0.0
O146 O 0.33272 0.16302 0.37051 0.0
O147 O 0.28141 0.14722 0.37659 0.0
O148 O 0.23733 0.14118 0.36022 0.0
O149 O 0.26454 0.17431 0.34628 0.0
O150 O 0.32853 0.21373 0.35637 0.0
O151 O 0.32476 0.21386 0.33697 0.0
H152 H 0.28398 0.17469 0.2922 0.0
H153 H 0.27883 0.14837 0.27307 0.0
H154 H 0.27675 0.06256 0.29003 0.0
H155 H 0.28233 0.08948 0.30924 0.0
H156 H 0.37738 0.18505 0.38775 0.0
H157 H 0.39842 0.21002 0.40701 0.0
H158 H 0.30118 0.20107 0.41488 0.0
H159 H 0.27996 0.17566 0.39563 0.0
Nd160 Nd 0.93687 0.15788 0.33749 0.0
Nd161 Nd 0.93732 0.15518 0.35878 0.0
C162 C 0.9411 0.15231 0.31443 0.0
C163 C 0.95933 0.16933 0.30356 0.0
C164 C 0.98309 0.16152 0.29878 0.0
C165 C 0.99733 0.17378 0.28777 0.0
C166 C 0.98797 0.19395 0.28124 0.0
C167 C 0.96493 0.20259 0.28615 0.0
C168 C 0.95064 0.19029 0.29719 0.0
C169 C 0.96406 0.22877 0.34454 0.0
C170 C 1.00853 0.16571 0.34837 0.0
C171 C 0.9339 0.17063 0.38105 0.0
C172 C 0.91414 0.16494 0.39202 0.0
C173 C 0.90125 0.18636 0.39487 0.0
C174 C 0.8885 0.18574 0.40611 0.0
C175 C 0.88855 0.16385 0.41479 0.0
C176 C 0.8999 0.14126 0.41175 0.0
C177 C 0.91263 0.14186 0.40051 0.0
C178 C 0.93047 0.09238 0.3524 0.0
C179 C 0.85687 0.11964 0.34789 0.0
O180 O 0.9572 0.14423 0.32207 0.0
O181 O 0.92137 0.16191 0.31934 0.0
O182 O 0.93955 0.21145 0.33714 0.0
O183 O 0.97123 0.20695 0.34891 0.0
O184 O 0.98987 0.15918 0.33875 0.0
O185 O 0.99481 0.16921 0.35812 0.0
O186 O 0.92826 0.18529 0.37216 0.0
O187 O 0.94207 0.14819 0.37782 0.0
O188 O 0.94862 0.11168 0.36098 0.0
O189 O 0.91488 0.10614 0.3473 0.0
O190 O 0.87575 0.13047 0.3576 0.0
O191 O 0.87531 0.12652 0.33817 0.0
H192 H 0.99001 0.14512 0.30342 0.0
H193 H 1.01543 0.16712 0.2843 0.0
H194 H 0.95697 0.21783 0.28129 0.0
H195 H 0.93205 0.19639 0.30056 0.0
H196 H 0.90253 0.20484 0.38861 0.0
H197 H 0.88037 0.20379 0.40815 0.0
H198 H 0.89987 0.12373 0.41816 0.0
H199 H 0.92264 0.12522 0.39865 0.0
Nd200 Nd 0.93175 0.79614 0.3369 0.0
Nd201 Nd 0.93395 0.79855 0.35815 0.0
C202 C 0.9374 0.80631 0.31385 0.0
C203 C 0.92033 0.80823 0.30309 0.0
C204 C 0.91494 0.8356 0.30108 0.0
C205 C 0.90311 0.83946 0.2902 0.0
C206 C 0.89642 0.81604 0.28112 0.0
C207 C 0.90075 0.78809 0.28327 0.0
C208 C 0.91274 0.78433 0.29413 0.0
C209 C 0.86051 0.75198 0.34376 0.0
C210 C 0.92367 0.85936 0.3481 0.0
C211 C 0.91811 0.77913 0.38032 0.0
C212 C 0.9244 0.76551 0.39124 0.0
C213 C 0.90189 0.73174 0.39449 0.0
C214 C 0.90313 0.72025 0.40575 0.0
C215 C 0.92679 0.74236 0.41406 0.0
C216 C 0.9505 0.77565 0.41061 0.0
C217 C 0.94928 0.78713 0.39933 0.0
C218 C 0.99725 0.85473 0.35207 0.0
C219 C 0.96942 0.75394 0.34733 0.0
O220 O 0.94672 0.83044 0.32159 0.0
O221 O 0.92664 0.77668 0.31863 0.0
O222 O 0.87809 0.74497 0.33646 0.0
O223 O 0.88228 0.781 0.34818 0.0
O224 O 0.93034 0.84769 0.3384 0.0
O225 O 0.91996 0.84172 0.35773 0.0
O226 O 0.904 0.75875 0.37139 0.0
O227 O 0.94005 0.81007 0.37718 0.0
O228 O 0.97772 0.85323 0.36061 0.0
O229 O 0.9835 0.82559 0.34684 0.0
O230 O 0.95841 0.76177 0.35702 0.0
O231 O 0.96291 0.76582 0.33761 0.0
H232 H 0.92068 0.85457 0.3078 0.0
H233 H 0.89956 0.861 0.28884 0.0
H234 H 0.89613 0.7698 0.27642 0.0
H235 H 0.91713 0.76328 0.29539 0.0
H236 H 0.88209 0.71461 0.38853 0.0
H237 H 0.88421 0.69459 0.40813 0.0
H238 H 0.96935 0.79319 0.41675 0.0
H239 H 0.96688 0.81339 0.39716 0.0
Nd240 Nd 0.96824 0.81198 0.84419 0.0
Nd241 Nd 0.93693 0.7416 0.83281 0.0
C242 C 0.99477 0.87752 0.84767 0.0
C243 C 1.02634 0.90485 0.84261 0.0
C244 C 1.03584 0.939 0.84402 0.0
C245 C 0.06702 0.96448 0.83954 0.0
C246 C 0.08893 0.95593 0.83362 0.0
C247 C 0.07854 0.9216 0.83189 0.0
C248 C 1.04763 0.89635 0.83637 0.0
C249 C 1.00098 0.77636 0.84882 0.0
C250 C 0.99199 0.80217 0.81774 0.0
C251 C 0.91179 0.6774 0.82675 0.0
C252 C 0.87667 0.64838 0.8261 0.0
C253 C 0.8624 0.62639 0.83571 0.0
C254 C 0.82709 0.6061 0.83668 0.0
C255 C 0.80567 0.60794 0.82814 0.0
C256 C 0.82032 0.62581 0.81771 0.0
C257 C 0.85552 0.64571 0.81667 0.0
C258 C 0.9024 0.77618 0.8292 0.0
C259 C 0.91694 0.75011 0.8602 0.0
O260 O 0.97026 0.86051 0.84011 0.0
O261 O 0.99904 0.85781 0.85497 0.0
O262 O 0.99805 0.79581 0.85648 0.0
O263 O 0.98918 0.77873 0.83915 0.0
O264 O 0.98558 0.82168 0.82463 0.0
O265 O 0.98182 0.77063 0.82069 0.0
O266 O 0.92349 0.68894 0.83728 0.0
O267 O 0.91944 0.70182 0.81921 0.0
O268 O 0.90661 0.75899 0.82098 0.0
O269 O 0.91539 0.7739 0.83855 0.0
O270 O 0.92077 0.73062 0.8524 0.0
O271 O 0.92792 0.78252 0.85808 0.0
H272 H 1.01957 0.94593 0.84878 0.0
H273 H 0.07454 0.99077 0.84106 0.0
H274 H 0.09464 0.91424 0.82724 0.0
H275 H 1.04068 0.87008 0.83517 0.0
H276 H 0.87825 0.62702 0.84293 0.0
H277 H 0.81659 0.59151 0.84463 0.0
H278 H 0.80485 0.62769 0.81085 0.0
H279 H 0.86581 0.66146 0.80894 0.0
Nd280 Nd 0.28831 0.18141 0.84252 0.0
Nd281 Nd 0.35907 0.21901 0.83098 0.0
C282 C 0.22262 0.14206 0.8467 0.0
C283 C 0.1924 0.14209 0.84221 0.0
C284 C 0.16036 0.12053 0.84709 0.0
C285 C 0.13237 0.12361 0.8438 0.0
C286 C 0.13613 0.14823 0.83555 0.0
C287 C 0.16796 0.16855 0.83025 0.0
C288 C 0.19591 0.16566 0.83362 0.0
C289 C 0.32814 0.24859 0.84849 0.0
C290 C 0.29916 0.21856 0.81671 0.0
C291 C 0.42371 0.25474 0.82466 0.0
C292 C 0.44958 0.24461 0.82279 0.0
C293 C 0.47212 0.24839 0.83188 0.0
C294 C 0.4882 0.2291 0.83184 0.0
C295 C 0.48161 0.20561 0.82278 0.0
C296 C 0.46358 0.20615 0.81283 0.0
C297 C 0.4478 0.22561 0.81282 0.0
C298 C 0.32038 0.15054 0.82621 0.0
C299 C 0.34968 0.1882 0.85807 0.0
O300 O 0.23926 0.13441 0.83907 0.0
O301 O 0.24269 0.16819 0.85322 0.0
O302 O 0.30707 0.22561 0.85572 0.0
O303 O 0.32471 0.23599 0.83844 0.0
O304 O 0.27881 0.19245 0.82341 0.0
O305 O 0.33143 0.23832 0.81951 0.0
O306 O 0.41346 0.25329 0.8355 0.0
O307 O 0.3984 0.24244 0.8172 0.0
O308 O 0.33844 0.17279 0.81833 0.0
O309 O 0.32401 0.16478 0.8359 0.0
O310 O 0.36996 0.2116 0.8504 0.0
O311 O 0.31689 0.16804 0.85592 0.0
H312 H 0.15726 0.1022 0.85373 0.0
H313 H 0.10801 0.10745 0.84796 0.0
H314 H 0.17173 0.18802 0.82399 0.0
H315 H 0.22055 0.18283 0.82987 0.0
H316 H 0.47483 0.26373 0.83951 0.0
H317 H 0.50299 0.23013 0.83945 0.0
H318 H 0.45821 0.18871 0.80562 0.0
H319 H 0.43149 0.22299 0.80548 0.0
Nd320 Nd 0.90344 0.12778 0.84172 0.0
Nd321 Nd 0.87743 0.17213 0.83021 0.0
C322 C 0.93599 0.09506 0.84672 0.0
C323 C 0.93339 0.06345 0.8426 0.0
C324 C 0.94758 0.04789 0.84927 0.0
C325 C 0.94212 1.016 0.84605 0.0
C326 C 0.92251 0.99937 0.83608 0.0
C327 C 0.90942 1.01564 0.82916 0.0
C328 C 0.91458 0.04737 0.83247 0.0
C329 C 0.83498 0.10361 0.84368 0.0
C330 C 0.88143 0.11848 0.81331 0.0
C331 C 0.84663 0.20719 0.82644 0.0
C332 C 0.83937 0.22685 0.83505 0.0
C333 C 0.82738 0.21335 0.84629 0.0
C334 C 0.83508 0.23499 0.8559 0.0
C335 C 0.8551 0.27016 0.85435 0.0
C336 C 0.86129 0.2834 0.84289 0.0
C337 C 0.8535 0.26177 0.83327 0.0
C338 C 0.94616 0.19575 0.8291 0.0
C339 C 0.89603 0.17846 0.85861 0.0
O340 O 0.94715 0.11975 0.83905 0.0
O341 O 0.9098 0.09142 0.85272 0.0
O342 O 0.85278 0.09993 0.85186 0.0
O343 O 0.85303 0.11715 0.83476 0.0
O344 O 0.89831 0.11374 0.82192 0.0
O345 O 0.86732 0.13747 0.81463 0.0
O346 O 0.83005 0.17425 0.82778 0.0
O347 O 0.87908 0.21928 0.82438 0.0
O348 O 0.92901 0.19707 0.82016 0.0
O349 O 0.92706 0.18286 0.83778 0.0
O350 O 0.87563 0.17906 0.8504 0.0
O351 O 0.91604 0.16589 0.85645 0.0
H352 H 0.96206 0.05997 0.85714 0.0
H353 H 0.95267 1.00401 0.85147 0.0
H354 H 0.89395 1.00318 0.82151 0.0
H355 H 0.903 0.05886 0.82734 0.0
H356 H 0.81588 0.18642 0.84793 0.0
H357 H 0.82933 0.22432 0.86465 0.0
H358 H 0.87652 0.31047 0.84142 0.0
H359 H 0.86264 0.27269 0.82466 0.0
Nd360 Nd 0.81345 0.92059 0.66566 0.0
Nd361 Nd 0.81095 0.92268 0.687 0.0
C362 C 0.81035 0.93195 0.64291 0.0
C363 C 0.80709 0.91985 0.63075 0.0
C364 C 0.78682 0.88547 0.62779 0.0
C365 C 0.78044 0.87561 0.61599 0.0
C366 C 0.79409 0.89999 0.60696 0.0
C367 C 0.81561 0.9342 0.61004 0.0
C368 C 0.82203 0.94396 0.6218 0.0
C369 C 0.86325 0.90423 0.67303 0.0
C370 C 0.76878 0.84183 0.67549 0.0
C371 C 0.8068 0.91465 0.71015 0.0
C372 C 0.81318 0.93608 0.72049 0.0
C373 C 0.82356 0.97053 0.71926 0.0
C374 C 0.83175 0.99125 0.72916 0.0
C375 C 0.82986 0.97782 0.74043 0.0
C376 C 0.81903 0.94315 0.74159 0.0
C377 C 0.81076 0.92245 0.73168 0.0
C378 C 0.7762 0.95847 0.67964 0.0
C379 C 0.87378 0.99339 0.67722 0.0
O380 O 0.78379 0.91662 0.6497 0.0
O381 O 0.8388 0.9415 0.64845 0.0
O382 O 0.84021 0.88815 0.66502 0.0
O383 O 0.85781 0.92663 0.67763 0.0
O384 O 0.77587 0.86009 0.66575 0.0
O385 O 0.78125 0.86078 0.68514 0.0
O386 O 0.83362 0.92125 0.70403 0.0
O387 O 0.78106 0.90912 0.70356 0.0
O388 O 0.79994 0.96787 0.68748 0.0
O389 O 0.77264 0.93046 0.67517 0.0
O390 O 0.86236 0.97518 0.68691 0.0
O391 O 0.85629 0.97879 0.66753 0.0
H392 H 0.7751 0.86643 0.63459 0.0
H393 H 0.76419 0.84898 0.61394 0.0
H394 H 0.82619 0.95379 0.60339 0.0
H395 H 0.83758 0.97066 0.62392 0.0
H396 H 0.82589 0.98147 0.71063 0.0
H397 H 0.84035 1.01792 0.72798 0.0
H398 H 0.81688 0.932 0.75016 0.0
H399 H 0.80289 0.8959 0.73275 0.0
Nd400 Nd 0.16757 0.92062 0.66479 0.0
Nd401 Nd 0.16925 0.91906 0.68597 0.0
C402 C 0.16866 0.90526 0.6424 0.0
C403 C 0.18481 0.91241 0.63075 0.0
C404 C 0.21831 0.91932 0.62903 0.0
C405 C 0.23093 0.92173 0.61762 0.0
C406 C 0.21017 0.91705 0.60776 0.0
C407 C 0.1771 0.91137 0.60963 0.0
C408 C 0.16466 0.90915 0.62097 0.0
C409 C 0.17524 0.98405 0.67094 0.0
C410 C 0.24866 0.95651 0.67521 0.0
C411 C 0.16702 0.92674 0.70897 0.0
C412 C 0.14987 0.91112 0.71999 0.0
C413 C 0.16529 0.92749 0.73051 0.0
C414 C 0.14827 0.91543 0.74114 0.0
C415 C 0.1155 0.88673 0.7414 0.0
C416 C 0.10046 0.86976 0.73083 0.0
C417 C 0.11753 0.88197 0.72017 0.0
C418 C 0.14199 0.84773 0.67924 0.0
C419 C 0.09695 0.91005 0.67548 0.0
O420 O 0.18053 0.89476 0.65087 0.0
O421 O 0.15652 0.92416 0.64605 0.0
O422 O 0.1566 0.96439 0.66253 0.0
O423 O 0.19093 0.9704 0.67599 0.0
O424 O 0.22929 0.94509 0.6656 0.0
O425 O 0.23067 0.95029 0.68499 0.0
O426 O 0.14975 0.93339 0.70138 0.0
O427 O 0.18573 0.91588 0.7041 0.0
O428 O 0.16676 0.86553 0.68649 0.0
O429 O 0.13437 0.86923 0.6749 0.0
O430 O 0.11707 0.91946 0.6848 0.0
O431 O 0.10939 0.90378 0.66595 0.0
H432 H 0.23437 0.92201 0.63645 0.0
H433 H 0.25668 0.92659 0.61652 0.0
H434 H 0.16007 0.90697 0.60234 0.0
H435 H 0.13863 0.90351 0.62211 0.0
H436 H 0.19026 0.9501 0.73048 0.0
H437 H 0.1607 0.92866 0.74915 0.0
H438 H 0.07514 0.84769 0.73078 0.0
H439 H 0.10525 0.86921 0.71207 0.0
Nd440 Nd 0.16959 0.27617 0.66545 0.0
Nd441 Nd 0.17382 0.28058 0.68649 0.0
C442 C 0.18478 0.29529 0.64325 0.0
C443 C 0.17764 0.30534 0.63173 0.0
C444 C 0.18346 0.33822 0.62968 0.0
C445 C 0.18312 0.34914 0.61821 0.0
C446 C 0.17727 0.32752 0.60856 0.0
C447 C 0.16962 0.29406 0.61075 0.0
C448 C 0.16983 0.28317 0.62218 0.0
C449 C 0.10688 0.22029 0.67193 0.0
C450 C 0.13482 0.32157 0.67596 0.0
C451 C 0.16712 0.27073 0.70957 0.0
C452 C 0.1832 0.26814 0.72036 0.0
C453 C 0.21421 0.2684 0.72022 0.0
C454 C 0.22757 0.2636 0.73065 0.0
C455 C 0.20991 0.25825 0.74132 0.0
C456 C 0.17918 0.25867 0.74138 0.0
C457 C 0.16599 0.26358 0.73099 0.0
C458 C 0.2447 0.32362 0.67934 0.0
C459 C 0.18128 0.21653 0.67548 0.0
O460 O 0.19533 0.31672 0.65204 0.0
O461 O 0.16625 0.26376 0.64653 0.0
O462 O 0.12591 0.22158 0.66325 0.0
O463 O 0.12091 0.24949 0.67717 0.0
O464 O 0.13997 0.30817 0.66634 0.0
O465 O 0.14723 0.31533 0.68561 0.0
O466 O 0.15806 0.2465 0.70192 0.0
O467 O 0.17957 0.30046 0.70471 0.0
O468 O 0.22796 0.33091 0.6869 0.0
O469 O 0.22239 0.2947 0.67496 0.0
O470 O 0.17655 0.22953 0.68525 0.0
O471 O 0.18295 0.23277 0.66571 0.0
H472 H 0.18969 0.35597 0.63686 0.0
H473 H 0.18857 0.3749 0.61688 0.0
H474 H 0.1655 0.27678 0.60359 0.0
H475 H 0.16574 0.25784 0.62347 0.0
H476 H 0.2277 0.27174 0.71204 0.0
H477 H 0.2512 0.2632 0.73033 0.0
H478 H 0.16527 0.2552 0.74947 0.0
H479 H 0.142 0.26332 0.73123 0.0
Nd480 Nd 0.83453 0.6676 0.5227 0.0
Nd481 Nd 0.80027 0.59788 0.51051 0.0
C482 C 0.86322 0.73195 0.5291 0.0
C483 C 0.8987 0.76011 0.52998 0.0
C484 C 0.91302 0.78396 0.52087 0.0
C485 C 0.9483 0.80507 0.52016 0.0
C486 C 0.9697 0.80243 0.5285 0.0
C487 C 0.95488 0.78179 0.53841 0.0
C488 C 0.91973 0.76093 0.53916 0.0
C489 C 0.86152 0.62669 0.52766 0.0
C490 C 0.85892 0.65874 0.49594 0.0
C491 C 0.77014 0.5321 0.50667 0.0
C492 C 0.73939 0.50482 0.51221 0.0
C493 C 0.73128 0.47092 0.51139 0.0
C494 C 0.70131 0.4453 0.51652 0.0
C495 C 0.67924 0.4534 0.52256 0.0
C496 C 0.68832 0.48759 0.52371 0.0
C497 C 0.718 0.51299 0.51855 0.0
C498 C 0.77589 0.64009 0.50447 0.0
C499 C 0.77277 0.60863 0.53612 0.0
O500 O 0.85185 0.72131 0.51849 0.0
O501 O 0.85411 0.70694 0.53652 0.0
O502 O 0.85726 0.64458 0.53561 0.0
O503 O 0.85233 0.63149 0.51786 0.0
O504 O 0.85647 0.67901 0.50377 0.0
O505 O 0.84384 0.62557 0.49754 0.0
O506 O 0.7964 0.54806 0.51365 0.0
O507 O 0.7652 0.55273 0.50007 0.0
O508 O 0.77821 0.61962 0.49708 0.0
O509 O 0.78346 0.63514 0.51459 0.0
O510 O 0.7786 0.58824 0.5295 0.0
O511 O 0.7862 0.64089 0.53346 0.0
H512 H 0.89722 0.78457 0.51386 0.0
H513 H 0.95888 0.82147 0.5126 0.0
H514 H 0.97034 0.779 0.54505 0.0
H515 H 0.90942 0.74352 0.54648 0.0
H516 H 0.74773 0.46425 0.50663 0.0
H517 H 0.69485 0.41914 0.51541 0.0
H518 H 0.6722 0.49472 0.52846 0.0
H519 H 0.72395 0.53907 0.51935 0.0
Nd520 Nd 0.43508 0.18495 0.51813 0.0
Nd521 Nd 0.50545 0.2398 0.50899 0.0
C522 C 0.37154 0.13499 0.52009 0.0
C523 C 0.34014 0.13228 0.51519 0.0
C524 C 0.33584 0.13242 0.50296 0.0
C525 C 0.31594 0.14501 0.49829 0.0
C526 C 0.30049 0.15774 0.50581 0.0
C527 C 0.2994 0.15119 0.51791 0.0
C528 C 0.31908 0.13839 0.52257 0.0
C529 C 0.45953 0.24949 0.52676 0.0
C530 C 0.44209 0.22654 0.49323 0.0
C531 C 0.56887 0.28998 0.50731 0.0
C532 C 0.60063 0.29415 0.51236 0.0
C533 C 0.60268 0.28781 0.52433 0.0
C534 C 0.62899 0.28301 0.52842 0.0
C535 C 0.65339 0.28426 0.52058 0.0
C536 C 0.65304 0.29367 0.50886 0.0
C537 C 0.62691 0.29868 0.50479 0.0
C538 C 0.481 0.17576 0.50006 0.0
C539 C 0.49771 0.19601 0.53344 0.0
O540 O 0.39304 0.13467 0.51253 0.0
O541 O 0.38677 0.1585 0.52812 0.0
O542 O 0.44438 0.22257 0.53328 0.0
O543 O 0.46061 0.24135 0.51631 0.0
O544 O 0.42446 0.19887 0.49967 0.0
O545 O 0.4733 0.25016 0.49613 0.0
O546 O 0.54689 0.29038 0.51465 0.0
O547 O 0.55451 0.2659 0.49945 0.0
O548 O 0.49745 0.20301 0.49376 0.0
O549 O 0.47975 0.1835 0.51055 0.0
O550 O 0.51546 0.2248 0.52754 0.0
O551 O 0.46709 0.1726 0.53003 0.0
H552 H 0.35081 0.12666 0.49699 0.0
H553 H 0.31611 0.14864 0.48889 0.0
H554 H 0.2873 0.16019 0.52396 0.0
H555 H 0.32121 0.13758 0.53202 0.0
H556 H 0.58283 0.28436 0.53039 0.0
H557 H 0.62872 0.27579 0.5375 0.0
H558 H 0.67191 0.29523 0.50268 0.0
H559 H 0.62591 0.30368 0.49555 0.0
Nd560 Nd 0.89676 0.25759 0.52276 0.0
Nd561 Nd 0.85167 0.282 0.51105 0.0
C562 C 0.93927 0.2364 0.52861 0.0
C563 C 0.935 0.20207 0.52884 0.0
C564 C 0.94319 0.18928 0.51891 0.0
C565 C 0.92929 0.15435 0.51753 0.0
C566 C 0.90676 0.13178 0.52599 0.0
C567 C 0.90309 0.14507 0.53668 0.0
C568 C 0.91727 0.17992 0.53812 0.0
C569 C 0.82874 0.2232 0.5289 0.0
C570 C 0.86288 0.22861 0.4964 0.0
C571 C 0.8069 0.30141 0.50674 0.0
C572 C 0.80283 0.32942 0.51122 0.0
C573 C 0.79861 0.35031 0.50322 0.0
C574 C 0.80228 0.38115 0.50689 0.0
C575 C 0.81025 0.39161 0.51865 0.0
C576 C 0.81162 0.36937 0.52686 0.0
C577 C 0.80804 0.3385 0.52316 0.0
C578 C 0.91868 0.31468 0.50424 0.0
C579 C 0.89174 0.31553 0.53612 0.0
O580 O 0.93899 0.24849 0.51821 0.0
O581 O 0.92127 0.24218 0.53626 0.0
O582 O 0.85313 0.23111 0.53637 0.0
O583 O 0.84096 0.23258 0.51884 0.0
O584 O 0.8875 0.23492 0.504 0.0
O585 O 0.84109 0.23938 0.4982 0.0
O586 O 0.80131 0.27725 0.51414 0.0
O587 O 0.83405 0.31071 0.50031 0.0
O588 O 0.89383 0.30784 0.49705 0.0
O589 O 0.90747 0.30631 0.51448 0.0
O590 O 0.86403 0.30647 0.52974 0.0
O591 O 0.91341 0.30555 0.53323 0.0
H592 H 0.95779 0.20592 0.51177 0.0
H593 H 0.93372 0.14497 0.50937 0.0
H594 H 0.88625 0.12871 0.54349 0.0
H595 H 0.91142 0.18906 0.54606 0.0
H596 H 0.79448 0.3437 0.49399 0.0
H597 H 0.80054 0.39762 0.50043 0.0
H598 H 0.81774 0.37682 0.53596 0.0
H599 H 0.81125 0.3227 0.52953 0.0
Nd600 Nd 0.95938 0.49228 0.66864 0.0
Nd601 Nd 0.95598 0.49111 0.68973 0.0
C602 C 0.95031 0.48995 0.64556 0.0
C603 C 0.94612 0.47189 0.63451 0.0
C604 C 0.94552 0.44087 0.63406 0.0
C605 C 0.93895 0.42331 0.62341 0.0
C606 C 0.93259 0.43645 0.61315 0.0
C607 C 0.93364 0.46773 0.6137 0.0
C608 C 0.94039 0.48527 0.62428 0.0
C609 C 1.00258 0.46466 0.67607 0.0
C610 C 0.89547 0.42027 0.67931 0.0
C611 C 0.97396 0.49231 0.71193 0.0
C612 C 0.98583 0.50659 0.72379 0.0
C613 C 1.02071 0.52435 0.72653 0.0
C614 C 1.03148 0.5306 0.73824 0.0
C615 C 1.00759 0.51893 0.74745 0.0
C616 C 0.97279 0.50321 0.74465 0.0
C617 C 0.96205 0.49707 0.73296 0.0
C618 C 0.89989 0.49819 0.68365 0.0
C619 C 1.00092 0.57181 0.67918 0.0
O620 O 0.92559 0.47559 0.65311 0.0
O621 O 0.98025 0.50526 0.65049 0.0
O622 O 1.01165 0.49118 0.6695 0.0
O623 O 0.97249 0.45652 0.67959 0.0
O624 O 0.90767 0.43884 0.66968 0.0
O625 O 0.91268 0.43405 0.68904 0.0
O626 O 0.99547 0.50098 0.7032 0.0
O627 O 0.94318 0.48379 0.70865 0.0
O628 O 0.90114 0.4799 0.69211 0.0
O629 O 0.92926 0.51388 0.67851 0.0
O630 O 0.99281 0.55279 0.68885 0.0
O631 O 0.9895 0.55351 0.66944 0.0
H632 H 0.94961 0.4301 0.64195 0.0
H633 H 0.93812 0.39915 0.62325 0.0
H634 H 0.9294 0.47875 0.60591 0.0
H635 H 0.94065 0.50917 0.62452 0.0
H636 H 1.03968 0.53186 0.71968 0.0
H637 H 0.05852 0.54336 0.74008 0.0
H638 H 0.95363 0.49355 0.75148 0.0
H639 H 0.93497 0.48291 0.73115 0.0
Nd640 Nd 0.60062 0.49521 0.66879 0.0
Nd641 Nd 0.60165 0.49283 0.69 0.0
C642 C 0.60248 0.48759 0.64577 0.0
C643 C 0.61878 0.50278 0.6346 0.0
C644 C 0.65097 0.53207 0.63408 0.0
C645 C 0.66689 0.5441 0.62322 0.0
C646 C 0.65084 0.52678 0.6128 0.0
C647 C 0.61824 0.49793 0.61343 0.0
C648 C 0.60237 0.48607 0.62424 0.0
C649 C 0.62798 0.56626 0.67572 0.0
C650 C 0.67273 0.50383 0.67943 0.0
C651 C 0.59928 0.50804 0.71234 0.0
C652 C 0.58129 0.50094 0.72372 0.0
C653 C 0.56802 0.52132 0.72748 0.0
C654 C 0.55747 0.51988 0.73909 0.0
C655 C 0.56024 0.49821 0.74724 0.0
C656 C 0.5718 0.47651 0.74332 0.0
C657 C 0.58225 0.47787 0.73169 0.0
C658 C 0.59452 0.42986 0.6837 0.0
C659 C 0.52092 0.45725 0.67944 0.0
O660 O 0.62019 0.48123 0.65328 0.0
O661 O 0.58378 0.49834 0.65072 0.0
O662 O 0.60348 0.5489 0.66833 0.0
O663 O 0.63521 0.54452 0.6801 0.0
O664 O 0.65377 0.49673 0.66986 0.0
O665 O 0.65924 0.5077 0.68915 0.0
O666 O 0.58997 0.52045 0.70369 0.0
O667 O 0.61024 0.48801 0.70882 0.0
O668 O 0.61287 0.44929 0.69221 0.0
O669 O 0.57884 0.44355 0.67864 0.0
O670 O 0.54001 0.46791 0.68911 0.0
O671 O 0.53914 0.46423 0.66968 0.0
H672 H 0.66399 0.54514 0.64205 0.0
H673 H 0.69211 0.5663 0.62299 0.0
H674 H 0.60504 0.48441 0.60554 0.0
H675 H 0.57747 0.46339 0.62453 0.0
H676 H 0.56747 0.53972 0.72161 0.0
H677 H 0.54905 0.53722 0.74184 0.0
H678 H 0.5738 0.45921 0.74933 0.0
H679 H 0.59259 0.46198 0.72912 0.0
Nd680 Nd 0.59645 0.1339 0.66849 0.0
Nd681 Nd 0.59937 0.1371 0.68977 0.0
C682 C 0.6061 0.14583 0.64562 0.0
C683 C 0.59366 0.15123 0.63445 0.0
C684 C 0.55972 0.14286 0.63284 0.0
C685 C 0.54923 0.14889 0.62199 0.0
C686 C 0.57265 0.16353 0.6127 0.0
C687 C 0.60659 0.17186 0.61446 0.0
C688 C 0.61695 0.16575 0.62524 0.0
C689 C 0.52517 0.09061 0.67526 0.0
C690 C 0.5881 0.19718 0.67967 0.0
C691 C 0.58325 0.11685 0.71185 0.0
C692 C 0.58972 0.104 0.72292 0.0
C693 C 0.61265 0.12653 0.73131 0.0
C694 C 0.61355 0.11533 0.74267 0.0
C695 C 0.59147 0.0814 0.7459 0.0
C696 C 0.56988 0.05852 0.73731 0.0
C697 C 0.56894 0.06973 0.72597 0.0
C698 C 0.66227 0.19305 0.68345 0.0
C699 C 0.63435 0.09193 0.679 0.0
O700 O 0.61564 0.16958 0.65349 0.0
O701 O 0.59079 0.11545 0.65011 0.0
O702 O 0.54215 0.08373 0.66765 0.0
O703 O 0.54734 0.11925 0.67986 0.0
O704 O 0.59323 0.18455 0.66989 0.0
O705 O 0.58609 0.18066 0.68943 0.0
O706 O 0.57057 0.09637 0.70285 0.0
O707 O 0.60402 0.14824 0.70881 0.0
O708 O 0.64299 0.1919 0.69204 0.0
O709 O 0.64842 0.16369 0.67835 0.0
O710 O 0.62737 0.10355 0.68871 0.0
O711 O 0.62381 0.09995 0.66927 0.0
H712 H 0.54152 0.13182 0.63994 0.0
H713 H 0.52296 0.14244 0.62091 0.0
H714 H 0.62508 0.18262 0.60744 0.0
H715 H 0.64327 0.17233 0.62637 0.0
H716 H 0.62883 0.15318 0.7293 0.0
H717 H 0.63082 0.13351 0.74903 0.0
H718 H 0.55222 1.03231 0.73951 0.0
H719 H 0.55062 0.05184 0.71977 0.0
Nd720 Nd 0.64915 0.12375 0.17995 0.0
Nd721 Nd 0.60737 0.05726 0.16606 0.0
C722 C 0.68281 0.18731 0.18712 0.0
C723 C 0.71326 0.21814 0.18302 0.0
C724 C 0.73618 0.24097 0.19125 0.0
C725 C 0.76697 0.26852 0.18756 0.0
C726 C 0.77539 0.27365 0.17557 0.0
C727 C 0.75183 0.25134 0.1673 0.0
C728 C 0.72103 0.22372 0.171 0.0
C729 C 0.66783 0.07551 0.18277 0.0
C730 C 0.67038 0.11735 0.1529 0.0
C731 C 0.57362 0.99484 0.15761 0.0
C732 C 0.53707 0.97013 0.15601 0.0
C733 C 0.51869 0.94641 0.16483 0.0
C734 C 0.48319 0.93004 0.16497 0.0
C735 C 0.46568 0.93748 0.15637 0.0
C736 C 0.48392 0.95719 0.14664 0.0
C737 C 0.51931 0.97324 0.14644 0.0
C738 C 0.58474 0.10304 0.16467 0.0
C739 C 0.58848 0.06244 0.19387 0.0
O740 O 0.65582 0.17526 0.18038 0.0
O741 O 0.68827 0.16375 0.19132 0.0
O742 O 0.66853 0.09489 0.19126 0.0
O743 O 0.65999 0.08395 0.17331 0.0
O744 O 0.66849 0.13759 0.1608 0.0
O745 O 0.65416 0.08427 0.15443 0.0
O746 O 0.58457 1.00174 0.16846 0.0
O747 O 0.58601 1.02204 0.15106 0.0
O748 O 0.58353 0.0847 0.15579 0.0
O749 O 0.59544 0.09537 0.17356 0.0
O750 O 0.58832 0.04245 0.18534 0.0
O751 O 0.60579 0.09582 0.19291 0.0
H752 H 0.73061 0.23705 0.20055 0.0
H753 H 0.78438 0.28567 0.19413 0.0
H754 H 0.75767 0.25456 0.15801 0.0
H755 H 0.70368 0.20631 0.16451 0.0
H756 H 0.53174 0.94259 0.17212 0.0
H757 H 0.46971 0.914 0.17238 0.0
H758 H 0.47143 0.96335 0.13978 0.0
H759 H 0.53272 0.99048 0.13929 0.0
Nd760 Nd 0.95706 0.5241 0.1794 0.0
Nd761 Nd 1.02651 0.55894 0.16705 0.0
C762 C 0.89205 0.48585 0.18471 0.0
C763 C 0.8609 0.48449 0.18055 0.0
C764 C 0.82972 0.46245 0.18587 0.0
C765 C 0.80048 0.46328 0.18265 0.0
C766 C 0.8021 0.4862 0.17405 0.0
C767 C 0.8332 0.50729 0.1684 0.0
C768 C 0.86244 0.50654 0.17168 0.0
C769 C 0.99868 0.59166 0.18444 0.0
C770 C 0.96556 0.55809 0.15326 0.0
C771 C 0.09045 0.59353 0.15989 0.0
C772 C 0.11593 0.58303 0.15778 0.0
C773 C 0.13991 0.58805 0.16649 0.0
C774 C 0.1561 0.56888 0.16637 0.0
C775 C 0.14814 0.54417 0.15763 0.0
C776 C 0.12847 0.54334 0.14797 0.0
C777 C 0.11263 0.56273 0.14802 0.0
C778 C 0.98682 0.49007 0.16351 0.0
C779 C 1.0192 0.53029 0.19431 0.0
O780 O 0.90759 0.47679 0.17709 0.0
O781 O 0.91291 0.51327 0.19055 0.0
O782 O 0.97839 0.56971 0.1921 0.0
O783 O 0.99387 0.57792 0.17454 0.0
O784 O 0.94552 0.53278 0.16029 0.0
O785 O 0.99813 0.57759 0.15567 0.0
O786 O 0.08145 0.59307 0.17084 0.0
O787 O 0.06435 0.58077 0.15276 0.0
O788 O 1.00443 0.51071 0.15516 0.0
O789 O 0.99144 0.50574 0.17293 0.0
O790 O 1.03917 0.55322 0.18646 0.0
O791 O 0.9862 0.5106 0.19245 0.0
H792 H 0.82816 0.44524 0.19272 0.0
H793 H 0.77672 0.44648 0.18705 0.0
H794 H 0.83528 0.52542 0.16185 0.0
H795 H 0.88643 0.52393 0.16754 0.0
H796 H 0.14379 0.60442 0.17393 0.0
H797 H 0.17221 0.57106 0.17372 0.0
H798 H 0.12196 0.52498 0.14099 0.0
H799 H 0.09516 0.5591 0.14095 0.0
Nd800 Nd 0.54413 0.43758 0.17901 0.0
Nd801 Nd 0.52454 0.4833 0.16496 0.0
C802 C 0.57101 0.40151 0.18663 0.0
C803 C 0.57076 0.37058 0.18299 0.0
C804 C 0.58373 0.35571 0.19057 0.0
C805 C 0.582 0.32526 0.18751 0.0
C806 C 0.56729 0.30922 0.17679 0.0
C807 C 0.55507 0.32468 0.16906 0.0
C808 C 0.55662 0.35509 0.17218 0.0
C809 C 0.4779 0.42277 0.18111 0.0
C810 C 0.51871 0.4194 0.1516 0.0
C811 C 0.50114 0.52124 0.15611 0.0
C812 C 0.51658 0.55818 0.1544 0.0
C813 C 0.51415 0.5784 0.16322 0.0
C814 C 0.53624 0.61341 0.1632 0.0
C815 C 0.56116 0.62861 0.15441 0.0
C816 C 0.56019 0.60896 0.14476 0.0
C817 C 0.53795 0.57404 0.14473 0.0
C818 C 0.59234 0.50172 0.1645 0.0
C819 C 0.54562 0.49897 0.19311 0.0
O820 O 0.58711 0.42775 0.1797 0.0
O821 O 0.54194 0.39731 0.19042 0.0
O822 O 0.49492 0.41954 0.18969 0.0
O823 O 0.49508 0.43056 0.17183 0.0
O824 O 0.5393 0.41919 0.15977 0.0
O825 O 0.50339 0.43721 0.15298 0.0
O826 O 0.4957 0.51044 0.16698 0.0
O827 O 0.51388 0.50643 0.14973 0.0
O828 O 0.57686 0.50449 0.15538 0.0
O829 O 0.57276 0.49147 0.1731 0.0
O830 O 0.52726 0.50091 0.18437 0.0
O831 O 0.56038 0.48039 0.19223 0.0
H832 H 0.59478 0.36743 0.19893 0.0
H833 H 0.59208 0.31415 0.19356 0.0
H834 H 0.54343 0.31277 0.16079 0.0
H835 H 0.54628 0.3662 0.16626 0.0
H836 H 0.49713 0.56696 0.1706 0.0
H837 H 0.53573 0.62815 0.17058 0.0
H838 H 0.57885 0.61982 0.13779 0.0
H839 H 0.53969 0.55925 0.1376 0.0
Nd840 Nd 0.48614 0.25251 0.99768 0.0
Nd841 Nd 0.48315 0.25198 0.01907 0.0
C842 C 0.46875 0.25093 0.97534 0.0
C843 C 0.45916 0.23594 0.96348 0.0
C844 C 0.43015 0.20422 0.96134 0.0
C845 C 0.41978 0.19316 0.94978 0.0
C846 C 0.43807 0.21372 0.94015 0.0
C847 C 0.46761 0.24501 0.94243 0.0
C848 C 0.47799 0.25588 0.95392 0.0
C849 C 0.54228 0.24544 1.00395 0.0
C850 C 0.44159 0.17225 1.00841 0.0
C851 C 0.49216 0.25457 0.04214 0.0
C852 C 0.49106 0.27049 0.05317 0.0
C853 C 0.48868 0.25358 0.06368 0.0
C854 C 0.49013 0.26888 0.07443 0.0
C855 C 0.49401 0.30144 0.07484 0.0
C856 C 0.49547 0.318 0.06424 0.0
C857 C 0.49407 0.30263 0.05346 0.0
C858 C 0.43914 0.27897 0.01211 0.0
C859 C 0.54698 0.32335 1.00824 0.0
O860 O 0.44657 0.23915 0.9839 0.0
O861 O 0.50002 0.26287 0.97885 0.0
O862 O 0.54083 0.26299 0.99528 0.0
O863 O 0.51306 0.23028 1.00919 0.0
O864 O 0.44955 0.19108 0.99871 0.0
O865 O 0.45312 0.19063 0.01815 0.0
O866 O 0.51612 0.27328 0.03471 0.0
O867 O 0.46328 0.23408 0.03706 0.0
O868 O 0.43208 0.25469 0.01953 0.0
O869 O 0.46816 0.28604 1.0077 0.0
O870 O 0.53549 0.3045 0.01783 0.0
O871 O 0.52901 0.30991 0.9986 0.0
H872 H 0.4151 0.18837 0.96857 0.0
H873 H 0.39717 0.16871 0.94839 0.0
H874 H 0.48206 0.26197 0.93534 0.0
H875 H 0.5002 0.28065 0.95534 0.0
H876 H 0.48627 0.2287 0.06359 0.0
H877 H 0.48833 0.25524 0.08242 0.0
H878 H 0.49866 0.34319 0.06429 0.0
H879 H 0.49598 0.31601 0.04539 0.0
Nd880 Nd 0.84117 0.25028 0.99894 0.0
Nd881 Nd 0.84083 0.24774 0.02009 0.0
C882 C 0.84486 0.23446 0.97678 0.0
C883 C 0.86295 0.24088 0.96544 0.0
C884 C 0.87767 0.22136 0.96218 0.0
C885 C 0.88795 0.22158 0.95059 0.0
C886 C 0.88339 0.24108 0.942 0.0
C887 C 0.8706 0.26217 0.94543 0.0
C888 C 0.86045 0.26205 0.95701 0.0
C889 C 0.84814 0.31341 1.00491 0.0
C890 C 0.92131 0.28617 1.00997 0.0
C891 C 0.83545 0.25307 0.04309 0.0
C892 C 0.8162 0.23548 0.05374 0.0
C893 C 0.79405 0.24507 0.05876 0.0
C894 C 0.77837 0.23162 0.0695 0.0
C895 C 0.7847 0.20846 0.07551 0.0
C896 C 0.80623 0.1982 0.07036 0.0
C897 C 0.82193 0.21166 0.05958 0.0
C898 C 0.8141 0.17683 0.01316 0.0
C899 C 0.76955 0.23967 1.00876 0.0
O900 O 0.85399 0.22257 0.98564 0.0
O901 O 0.83354 0.25446 0.97998 0.0
O902 O 0.83061 0.2941 0.99625 0.0
O903 O 0.86318 0.2996 1.01034 0.0
O904 O 0.90277 0.27549 1.00019 0.0
O905 O 0.90247 0.27907 0.01961 0.0
O906 O 0.81992 0.26144 0.03532 0.0
O907 O 0.85545 0.24355 0.03835 0.0
O908 O 0.83851 0.1943 0.02057 0.0
O909 O 0.80687 0.19853 1.00873 0.0
O910 O 0.78783 0.2465 0.01849 0.0
O911 O 0.78368 0.23588 0.99919 0.0
H912 H 0.87948 0.20441 0.96842 0.0
H913 H 0.89744 0.20482 0.94822 0.0
H914 H 0.86722 0.27783 0.93904 0.0
H915 H 0.849 0.27724 0.9592 0.0
H916 H 0.78942 0.26362 0.0545 0.0
H917 H 0.76149 0.23961 0.07314 0.0
H918 H 0.81185 0.18063 0.07483 0.0
H919 H 0.83917 0.20405 0.056 0.0
Nd920 Nd 0.84377 0.60677 0.99843 0.0
Nd921 Nd 0.84645 0.60942 0.0197 0.0
C922 C 0.85969 0.6262 0.97625 0.0
C923 C 0.85393 0.63968 0.9652 0.0
C924 C 0.87651 0.67345 0.96197 0.0
C925 C 0.8759 0.68479 0.95062 0.0
C926 C 0.85285 0.66252 0.9422 0.0
C927 C 0.82907 0.62922 0.94562 0.0
C928 C 0.82965 0.61789 0.95698 0.0
C929 C 0.78048 0.55066 1.00455 0.0
C930 C 0.80858 0.65153 1.00944 0.0
C931 C 0.84129 0.5992 0.04274 0.0
C932 C 0.85875 0.59709 0.05338 0.0
C933 C 0.85225 0.5653 0.05744 0.0
C934 C 0.86514 0.56238 0.06822 0.0
C935 C 0.88465 0.59117 0.07522 0.0
C936 C 0.89192 0.62311 0.07102 0.0
C937 C 0.87897 0.62603 0.06023 0.0
C938 C 0.91755 0.6532 0.0126 0.0
C939 C 0.85413 0.54602 1.00852 0.0
O940 O 0.87361 0.64665 0.98518 0.0
O941 O 0.83769 0.59527 0.97939 0.0
O942 O 0.79977 0.55223 0.99591 0.0
O943 O 0.79443 0.57969 1.00988 0.0
O944 O 0.81925 0.64352 0.9997 0.0
O945 O 0.81542 0.63982 0.01913 0.0
O946 O 0.83171 0.57505 0.035 0.0
O947 O 0.85188 0.62881 0.03794 0.0
O948 O 0.90032 0.6605 0.01996 0.0
O949 O 0.8955 0.6241 1.0083 0.0
O950 O 0.8477 0.55784 0.01823 0.0
O951 O 0.85765 0.5635 0.99886 0.0
H952 H 0.89588 0.69072 0.96803 0.0
H953 H 0.89485 0.71048 0.94827 0.0
H954 H 0.81066 0.61155 0.9394 0.0
H955 H 0.81204 0.59162 0.95914 0.0
H956 H 0.83644 0.54245 0.05244 0.0
H957 H 0.85952 0.53749 0.07113 0.0
H958 H 0.9066 0.64572 0.07626 0.0
H959 H 0.884 0.65082 0.05742 0.0
Nd960 Nd 0.49159 0.99593 0.85371 0.0
Nd961 Nd 0.45928 0.92853 0.84031 0.0
C962 C 0.52114 0.05925 0.8612 0.0
C963 C 0.55751 0.08566 0.86181 0.0
C964 C 0.57339 0.10701 0.85215 0.0
C965 C 0.6088 0.12409 0.85108 0.0
C966 C 0.62878 0.11994 0.85963 0.0
C967 C 0.6131 0.10255 0.87003 0.0
C968 C 0.57778 0.08573 0.87114 0.0
C969 C 0.51932 0.95547 0.85798 0.0
C970 C 0.5186 0.99224 0.82696 0.0
C971 C 0.43318 0.86463 0.8338 0.0
C972 C 0.40262 0.83267 0.83691 0.0
C973 C 0.39916 0.8018 0.83324 0.0
C974 C 0.36944 0.77134 0.83579 0.0
C975 C 0.34271 0.77137 0.84204 0.0
C976 C 0.34673 0.80249 0.84591 0.0
C977 C 0.37648 0.83288 0.84338 0.0
C978 C 0.43425 0.97085 0.83513 0.0
C979 C 0.42898 0.9341 0.86606 0.0
O980 O 0.50825 0.05009 0.85066 0.0
O981 O 0.51158 1.03326 0.8682 0.0
O982 O 0.51397 0.97187 0.86619 0.0
O983 O 0.51079 0.96126 0.8482 0.0
O984 O 0.51451 1.01099 0.83498 0.0
O985 O 0.50444 0.95905 0.82817 0.0
O986 O 0.45617 0.87863 0.84206 0.0
O987 O 0.42777 0.88647 0.82816 0.0
O988 O 0.43806 0.95229 0.82731 0.0
O989 O 0.44113 0.96437 0.84512 0.0
O990 O 0.43523 0.91477 0.85899 0.0
O991 O 0.44259 0.96683 0.86407 0.0
H992 H 0.55845 0.10828 0.84496 0.0
H993 H 0.62027 0.13827 0.84313 0.0
H994 H 0.62759 0.09894 0.87685 0.0
H995 H 0.56636 0.07027 0.87886 0.0
H996 H 0.41929 0.80127 0.82831 0.0
H997 H 0.36741 0.74779 0.83287 0.0
H998 H 0.32654 0.80351 0.85061 0.0
H999 H 0.37886 0.85659 0.84631 0.0
Nd1000 Nd 0.06056 0.49932 0.85952 0.0
Nd1001 Nd 0.12077 0.49313 0.84906 0.0
C1002 C 0.99967 0.48509 0.86705 0.0
C1003 C 0.97674 0.49876 0.86547 0.0
C1004 C 0.96262 0.49837 0.85447 0.0
C1005 C 0.94868 0.51907 0.85245 0.0
C1006 C 0.94956 0.54102 0.86132 0.0
C1007 C 0.95929 0.5376 0.87272 0.0
C1008 C 0.97256 0.51642 0.87479 0.0
C1009 C 0.11815 0.56012 0.85552 0.0
C1010 C 0.06574 0.49716 0.83094 0.0
C1011 C 0.17413 0.49627 0.83879 0.0
C1012 C 0.20256 0.49156 0.84252 0.0
C1013 C 0.22309 0.5094 0.85217 0.0
C1014 C 0.25124 0.50632 0.85514 0.0
C1015 C 0.25927 0.4851 0.84861 0.0
C1016 C 0.23767 0.46605 0.8393 0.0
C1017 C 0.20971 0.46942 0.83625 0.0
C1018 C 0.07117 0.43729 0.86073 0.0
C1019 C 0.12207 0.50832 0.87631 0.0
O1020 O 1.00424 0.46994 0.85806 0.0
O1021 O 1.028 0.50497 0.87264 0.0
O1022 O 0.09637 0.55593 0.86369 0.0
O1023 O 0.1071 0.53414 0.84915 0.0
O1024 O 1.05075 0.50295 0.83991 0.0
O1025 O 0.09126 0.4912 0.83236 0.0
O1026 O 0.1739 0.52291 0.84302 0.0
O1027 O 0.14387 0.46901 0.83845 0.0
O1028 O 0.10301 0.44576 0.86119 0.0
O1029 O 0.06716 0.4565 0.85394 0.0
O1030 O 0.14151 0.51694 0.8669 0.0
O1031 O 0.08864 0.49414 0.8755 0.0
H1032 H 0.96458 0.48415 0.84719 0.0
H1033 H 0.94013 0.52018 0.84368 0.0
H1034 H 0.9602 0.55382 0.87982 0.0
H1035 H 0.98248 0.51634 0.88343 0.0
H1036 H 0.21796 0.5264 0.85727 0.0
H1037 H 0.26745 0.52169 0.86226 0.0
H1038 H 0.2427 0.44897 0.83422 0.0
H1039 H 0.19398 0.45513 0.82887 0.0
Nd1040 Nd 0.5697 0.57413 0.85855 0.0
Nd1041 Nd 0.54118 0.61482 0.8461 0.0
C1042 C 0.60262 0.54341 0.86584 0.0
C1043 C 0.59197 0.50757 0.868 0.0
C1044 C 0.60144 0.49006 0.86013 0.0
C1045 C 0.584 0.45464 0.86011 0.0
C1046 C 0.55666 0.43638 0.86787 0.0
C1047 C 0.55076 0.45411 0.8768 0.0
C1048 C 0.56829 0.48937 0.87687 0.0
C1049 C 0.5 0.54576 0.85958 0.0
C1050 C 0.54875 0.56112 0.83041 0.0
C1051 C 0.50747 0.64589 0.84055 0.0
C1052 C 0.50949 0.6769 0.8451 0.0
C1053 C 0.48249 0.683 0.84341 0.0
C1054 C 0.48496 0.71303 0.84756 0.0
C1055 C 0.51459 0.73734 0.85337 0.0
C1056 C 0.54118 0.73063 0.85532 0.0
C1057 C 0.53855 0.70053 0.85128 0.0
C1058 C 0.60982 0.63926 0.84366 0.0
C1059 C 0.56745 0.63227 0.87349 0.0
O1060 O 0.60238 0.55179 0.85486 0.0
O1061 O 0.58998 0.55689 0.87291 0.0
O1062 O 0.51743 0.54304 0.86809 0.0
O1063 O 0.51884 0.5603 0.851 0.0
O1064 O 0.56959 0.56172 0.83871 0.0
O1065 O 0.5294 0.57478 0.83211 0.0
O1066 O 0.4957 0.62046 0.84792 0.0
O1067 O 0.53433 0.65025 0.83478 0.0
O1068 O 0.59115 0.64109 0.83537 0.0
O1069 O 0.59246 0.62784 0.85281 0.0
O1070 O 0.54582 0.6315 0.86556 0.0
O1071 O 0.58519 0.6171 0.87161 0.0
H1072 H 0.6203 0.50362 0.8534 0.0
H1073 H 0.58987 0.44167 0.85334 0.0
H1074 H 0.53008 0.4411 0.88298 0.0
H1075 H 0.56097 0.50211 0.88328 0.0
H1076 H 0.45978 0.66481 0.83875 0.0
H1077 H 0.46424 0.71777 0.84587 0.0
H1078 H 0.56412 0.74883 0.85987 0.0
H1079 H 0.55942 0.69591 0.85283 0.0
Nd1080 Nd 0.63194 0.82156 1.00303 0.0
Nd1081 Nd 0.62865 0.82078 0.02432 0.0
C1082 C 0.62216 0.81861 0.98 0.0
C1083 C 0.61994 0.7999 0.96928 0.0
C1084 C 0.61329 0.76639 0.96968 0.0
C1085 C 0.6081 0.74817 0.95926 0.0
C1086 C 0.60937 0.76325 0.94835 0.0
C1087 C 0.61692 0.79714 0.94805 0.0
C1088 C 0.62214 0.81528 0.95844 0.0
C1089 C 0.67567 0.79419 1.00997 0.0
C1090 C 0.56829 0.74979 0.01373 0.0
C1091 C 0.64551 0.82214 0.04668 0.0
C1092 C 0.6542 0.83708 0.05854 0.0
C1093 C 0.68085 0.87022 0.06068 0.0
C1094 C 0.6904 0.88168 0.07226 0.0
C1095 C 0.67363 0.86009 0.08185 0.0
C1096 C 0.64637 0.82729 0.07955 0.0
C1097 C 0.63679 0.81603 0.06806 0.0
C1098 C 0.57265 0.82794 0.018 0.0
C1099 C 0.67356 0.9012 0.01368 0.0
O1100 O 0.59781 0.803 0.98763 0.0
O1101 O 0.65198 0.83657 0.98487 0.0
O1102 O 0.68287 0.81855 1.00257 0.0
O1103 O 0.64668 0.7872 0.01439 0.0
O1104 O 0.5802 0.76851 1.00413 0.0
O1105 O 0.58572 0.7634 0.02344 0.0
O1106 O 0.66798 0.8347 0.03823 0.0
O1107 O 0.61428 0.80959 0.04306 0.0
O1108 O 0.57388 0.81002 0.02658 0.0
O1109 O 0.60207 0.84338 0.0129 0.0
O1110 O 0.66512 0.88229 0.02338 0.0
O1111 O 0.66249 0.88288 1.00392 0.0
H1112 H 0.61136 0.75414 0.97801 0.0
H1113 H 0.60212 0.72203 0.95976 0.0
H1114 H 0.61864 0.80961 0.93979 0.0
H1115 H 0.62723 0.84116 0.95802 0.0
H1116 H 0.69468 0.88694 0.05346 0.0
H1117 H 0.71123 0.90724 0.07368 0.0
H1118 H 0.63325 0.80959 0.08661 0.0
H1119 H 0.61639 0.79023 0.0666 0.0
Nd1120 Nd 0.27396 0.82554 1.00216 0.0
Nd1121 Nd 0.27474 0.82355 0.02347 0.0
C1122 C 0.27782 0.8193 0.9791 0.0
C1123 C 0.29552 0.83554 0.96803 0.0
C1124 C 0.32439 0.83403 0.96448 0.0
C1125 C 0.33813 0.84485 0.95329 0.0
C1126 C 0.32327 0.85731 0.94538 0.0
C1127 C 0.29503 0.85975 0.94906 0.0
C1128 C 0.28121 0.84884 0.96024 0.0
C1129 C 0.30095 0.89663 1.00901 0.0
C1130 C 0.34586 0.8342 0.01301 0.0
C1131 C 0.27332 0.83939 0.04579 0.0
C1132 C 0.25803 0.83354 0.05758 0.0
C1133 C 0.2259 0.82998 0.05962 0.0
C1134 C 0.2146 0.82913 0.07114 0.0
C1135 C 0.23535 0.8321 0.08081 0.0
C1136 C 0.26696 0.83447 0.07864 0.0
C1137 C 0.27806 0.83511 0.06719 0.0
C1138 C 0.26761 0.76037 0.01742 0.0
C1139 C 0.19408 0.78758 0.01276 0.0
O1140 O 0.29402 0.81148 0.98678 0.0
O1141 O 0.25828 0.82921 0.98396 0.0
O1142 O 0.27648 0.87907 1.00162 0.0
O1143 O 0.30825 0.87501 0.01345 0.0
O1144 O 0.3269 0.8267 1.00343 0.0
O1145 O 0.3324 0.83859 0.02265 0.0
O1146 O 0.26145 0.84964 0.03724 0.0
O1147 O 0.2853 0.82024 0.04228 0.0
O1148 O 0.28561 0.77993 0.02595 0.0
O1149 O 0.25213 0.77401 0.01218 0.0
O1150 O 0.2131 0.79863 0.02245 0.0
O1151 O 0.21239 0.79422 1.00302 0.0
H1152 H 0.33584 0.82358 0.97021 0.0
H1153 H 0.3602 0.8431 0.95078 0.0
H1154 H 0.28278 0.86892 0.94313 0.0
H1155 H 0.2586 0.84976 0.96264 0.0
H1156 H 0.20995 0.82874 0.05234 0.0
H1157 H 0.18989 0.82678 0.07246 0.0
H1158 H 0.28403 0.83748 0.08577 0.0
H1159 H 0.30312 0.83826 0.06583 0.0
Nd1160 Nd 0.2691 0.46411 1.00329 0.0
Nd1161 Nd 0.27148 0.46697 0.02435 0.0
C1162 C 0.2748 0.47577 0.9804 0.0
C1163 C 0.25707 0.4815 0.97068 0.0
C1164 C 0.27493 0.5113 0.96409 0.0
C1165 C 0.25931 0.5176 0.9547 0.0
C1166 C 0.22556 0.494 0.95162 0.0
C1167 C 0.20744 0.46435 0.95836 0.0
C1168 C 0.22306 0.45816 0.96785 0.0
C1169 C 0.19783 0.42028 1.0101 0.0
C1170 C 0.26066 0.52733 0.01412 0.0
C1171 C 0.25564 0.44812 0.04656 0.0
C1172 C 0.26121 0.43552 0.05783 0.0
C1173 C 0.23886 0.40186 0.06123 0.0
C1174 C 0.2388 0.39145 0.07277 0.0
C1175 C 0.26093 0.41456 0.0812 0.0
C1176 C 0.28464 0.44772 0.07763 0.0
C1177 C 0.28474 0.45812 0.06607 0.0
C1178 C 0.33484 0.52298 0.01827 0.0
C1179 C 0.3065 0.42178 0.01338 0.0
O1180 O 0.28783 0.49959 0.9883 0.0
O1181 O 0.2612 0.44542 0.9849 0.0
O1182 O 0.2154 0.41302 1.00287 0.0
O1183 O 0.21963 0.44935 0.0145 0.0
O1184 O 0.26678 0.51507 1.00449 0.0
O1185 O 0.25763 0.51035 0.02387 0.0
O1186 O 0.24222 0.42721 0.03772 0.0
O1187 O 0.27726 0.47905 0.04332 0.0
O1188 O 0.31521 0.52171 0.02673 0.0
O1189 O 0.32109 0.49371 0.01312 0.0
O1190 O 0.29625 0.43029 0.02312 0.0
O1191 O 0.29931 0.43306 1.00368 0.0
H1192 H 0.30113 0.52972 0.9662 0.0
H1193 H 0.27376 0.54096 0.94982 0.0
H1194 H 0.1815 0.44554 0.95613 0.0
H1195 H 0.20867 0.43506 0.97287 0.0
H1196 H 0.22007 0.384 0.05514 0.0
H1197 H 0.21993 0.36584 0.07523 0.0
H1198 H 0.30234 0.466 0.08387 0.0
H1199 H 0.30215 0.48432 0.06378 0.0
Nd1200 Nd 0.33121 0.44564 0.51189 0.0
Nd1201 Nd 0.26906 0.38697 0.49963 0.0
C1202 C 0.37789 0.50109 0.52255 0.0
C1203 C 0.4092 0.53142 0.51875 0.0
C1204 C 0.42132 0.53384 0.50726 0.0
C1205 C 0.4514 0.56263 0.5037 0.0
C1206 C 0.46987 0.5894 0.51161 0.0
C1207 C 0.45734 0.58687 0.5231 0.0
C1208 C 0.42727 0.55809 0.52663 0.0
C1209 C 0.32915 0.38448 0.5109 0.0
C1210 C 0.34003 0.43409 0.48506 0.0
C1211 C 0.22551 0.33275 0.48761 0.0
C1212 C 0.18816 0.31159 0.48707 0.0
C1213 C 0.16941 0.29179 0.49669 0.0
C1214 C 0.13437 0.27899 0.49723 0.0
C1215 C 0.11774 0.28625 0.48825 0.0
C1216 C 0.13586 0.30234 0.478 0.0
C1217 C 0.1708 0.31475 0.4774 0.0
C1218 C 0.26734 0.44574 0.50107 0.0
C1219 C 0.25983 0.39925 0.52695 0.0
O1220 O 0.34949 0.49779 0.51841 0.0
O1221 O 0.37859 0.47277 0.52231 0.0
O1222 O 0.357 0.4131 0.5091 0.0
O1223 O 0.30508 0.38937 0.51323 0.0
O1224 O 0.34875 0.4579 0.49305 0.0
O1225 O 0.314 0.40314 0.4867 0.0
O1226 O 0.2405 0.33119 0.49722 0.0
O1227 O 0.23796 0.3638 0.48377 0.0
O1228 O 0.24031 0.41589 0.50188 0.0
O1229 O 0.29346 0.44379 0.49873 0.0
O1230 O 0.24733 0.3769 0.51828 0.0
O1231 O 0.2893 0.42797 0.52603 0.0
H1232 H 0.40761 0.51335 0.50107 0.0
H1233 H 0.46047 0.56367 0.49484 0.0
H1234 H 0.47063 0.6073 0.52935 0.0
H1235 H 0.41812 0.55665 0.53551 0.0
H1236 H 0.18197 0.28818 0.50417 0.0
H1237 H 0.1208 0.26577 0.50509 0.0
H1238 H 0.12388 0.30829 0.4709 0.0
H1239 H 0.18468 0.32931 0.46977 0.0
Nd1240 Nd 0.64028 0.85891 0.51032 0.0
Nd1241 Nd 0.70822 0.88778 0.49699 0.0
C1242 C 0.57626 0.82379 0.51713 0.0
C1243 C 0.54496 0.82308 0.51358 0.0
C1244 C 0.54542 0.84349 0.50429 0.0
C1245 C 0.51626 0.84503 0.50155 0.0
C1246 C 0.48636 0.8264 0.50814 0.0
C1247 C 0.48577 0.80509 0.51719 0.0
C1248 C 0.5149 0.80347 0.51988 0.0
C1249 C 0.68346 0.9275 0.5124 0.0
C1250 C 0.64572 0.88374 0.48285 0.0
C1251 C 0.77138 0.92051 0.48895 0.0
C1252 C 0.79827 0.91147 0.48789 0.0
C1253 C 0.82085 0.91753 0.49722 0.0
C1254 C 0.83848 0.89981 0.49786 0.0
C1255 C 0.83321 0.8754 0.48929 0.0
C1256 C 0.81521 0.87388 0.47904 0.0
C1257 C 0.79805 0.89194 0.47832 0.0
C1258 C 0.66719 0.81817 0.4966 0.0
C1259 C 0.70418 0.86858 0.52521 0.0
O1260 O 0.58951 0.81258 0.50936 0.0
O1261 O 0.59892 0.85181 0.52227 0.0
O1262 O 0.66372 0.90885 0.52084 0.0
O1263 O 0.67729 0.91019 0.50321 0.0
O1264 O 0.62594 0.86205 0.49097 0.0
O1265 O 0.67886 0.90231 0.48441 0.0
O1266 O 0.7632 0.92451 0.49961 0.0
O1267 O 0.74461 0.90326 0.48228 0.0
O1268 O 0.68486 0.83515 0.48757 0.0
O1269 O 0.67304 0.83747 0.50513 0.0
O1270 O 0.72341 0.88851 0.51656 0.0
O1271 O 0.67088 0.84904 0.52398 0.0
H1272 H 0.56859 0.859 0.4994 0.0
H1273 H 0.51756 0.86189 0.49462 0.0
H1274 H 0.46292 0.79013 0.52231 0.0
H1275 H 0.5142 0.78756 0.52706 0.0
H1276 H 0.82259 0.93357 0.50452 0.0
H1277 H 0.85341 0.90268 0.50564 0.0
H1278 H 0.81086 0.85583 0.47213 0.0
H1279 H 0.7819 0.8878 0.47078 0.0
Nd1280 Nd 0.23027 0.78398 0.51381 0.0
Nd1281 Nd 0.21143 0.82935 0.4991 0.0
C1282 C 0.25707 0.74903 0.52258 0.0
C1283 C 0.2606 0.71954 0.51971 0.0
C1284 C 0.26809 0.71379 0.50827 0.0
C1285 C 0.27059 0.68507 0.50579 0.0
C1286 C 0.26522 0.66156 0.51469 0.0
C1287 C 0.25801 0.66763 0.52614 0.0
C1288 C 0.25582 0.69642 0.52862 0.0
C1289 C 0.1651 0.77176 0.51634 0.0
C1290 C 0.20245 0.76262 0.48676 0.0
C1291 C 0.18965 0.86799 0.48973 0.0
C1292 C 0.20614 0.90511 0.48829 0.0
C1293 C 0.21084 0.92606 0.49799 0.0
C1294 C 0.2353 0.96042 0.49758 0.0
C1295 C 0.25551 0.9742 0.48752 0.0
C1296 C 0.2473 0.95439 0.4773 0.0
C1297 C 0.22261 0.92007 0.47767 0.0
C1298 C 0.27859 0.8457 0.49835 0.0
C1299 C 0.23313 0.84745 0.5271 0.0
O1300 O 0.27423 0.77625 0.51615 0.0
O1301 O 0.22631 0.74267 0.52513 0.0
O1302 O 0.18246 0.76903 0.52491 0.0
O1303 O 0.18128 0.77778 0.50686 0.0
O1304 O 0.22337 0.76261 0.49486 0.0
O1305 O 0.18826 0.78156 0.48795 0.0
O1306 O 0.18222 0.85625 0.50047 0.0
O1307 O 0.20315 0.85342 0.48361 0.0
O1308 O 0.26276 0.84769 0.4892 0.0
O1309 O 0.25962 0.83704 0.50712 0.0
O1310 O 0.21587 0.84987 0.51811 0.0
O1311 O 0.24654 0.8276 0.52671 0.0
H1312 H 0.27168 0.73126 0.50123 0.0
H1313 H 0.27589 0.68081 0.49688 0.0
H1314 H 0.25413 0.65011 0.53318 0.0
H1315 H 0.25012 0.70052 0.5375 0.0
H1316 H 0.19785 0.91552 0.50622 0.0
H1317 H 0.24053 0.97548 0.50549 0.0
H1318 H 0.26225 0.96437 0.46938 0.0
H1319 H 0.21883 0.90463 0.46997 0.0
Nd1320 Nd 0.1497 0.58495 0.33367 0.0
Nd1321 Nd 0.14622 0.58421 0.35498 0.0
C1322 C 0.13308 0.58386 0.3113 0.0
C1323 C 0.12499 0.56942 0.29937 0.0
C1324 C 0.09735 0.53703 0.29695 0.0
C1325 C 0.08824 0.52637 0.28529 0.0
C1326 C 0.10643 0.54805 0.27588 0.0
C1327 C 0.13474 0.57998 0.27844 0.0
C1328 C 0.14388 0.59044 0.29002 0.0
C1329 C 0.20568 0.57772 0.33991 0.0
C1330 C 0.10486 0.50453 0.34428 0.0
C1331 C 0.15531 0.58698 0.37808 0.0
C1332 C 0.15606 0.60383 0.38913 0.0
C1333 C 0.16168 0.63701 0.3894 0.0
C1334 C 0.16535 0.65332 0.40017 0.0
C1335 C 0.16362 0.63671 0.41078 0.0
C1336 C 0.15717 0.60319 0.41041 0.0
C1337 C 0.15342 0.58694 0.39967 0.0
C1338 C 0.10248 0.6114 0.34777 0.0
C1339 C 0.21012 0.65572 0.34429 0.0
O1340 O 0.11046 0.57068 0.31969 0.0
O1341 O 0.1643 0.59688 0.315 0.0
O1342 O 0.20424 0.59529 0.33125 0.0
O1343 O 0.17649 0.56262 0.34518 0.0
O1344 O 0.11315 0.52346 0.33459 0.0
O1345 O 0.11606 0.52285 0.35404 0.0
O1346 O 0.17957 0.60428 0.37057 0.0
O1347 O 0.12591 0.56788 0.37307 0.0
O1348 O 0.0951 0.58701 0.35518 0.0
O1349 O 0.13169 0.61853 0.34355 0.0
O1350 O 0.19834 0.63689 0.35387 0.0
O1351 O 0.19249 0.6423 0.33461 0.0
H1352 H 0.08235 0.52034 0.30402 0.0
H1353 H 0.06658 0.50143 0.28366 0.0
H1354 H 0.14901 0.59772 0.27152 0.0
H1355 H 0.16507 0.6157 0.29168 0.0
H1356 H 0.16395 0.65047 0.38131 0.0
H1357 H 0.17051 0.67924 0.40017 0.0
H1358 H 0.15513 0.58952 0.41842 0.0
H1359 H 0.14912 0.56131 0.3996 0.0
Nd1360 Nd 0.50374 0.58195 0.3328 0.0
Nd1361 Nd 0.50388 0.57801 0.35378 0.0
C1362 C 0.50634 0.5674 0.31039 0.0
C1363 C 0.52314 0.57358 0.2988 0.0
C1364 C 0.53576 0.5527 0.29498 0.0
C1365 C 0.54486 0.55301 0.28324 0.0
C1366 C 0.54131 0.57405 0.27502 0.0
C1367 C 0.53041 0.59627 0.27898 0.0
C1368 C 0.52137 0.596 0.29074 0.0
C1369 C 0.51049 0.64468 0.33926 0.0
C1370 C 0.5841 0.61763 0.34359 0.0
C1371 C 0.49938 0.57886 0.37698 0.0
C1372 C 0.48379 0.55637 0.38715 0.0
C1373 C 0.4483 0.5372 0.38859 0.0
C1374 C 0.43442 0.51885 0.39892 0.0
C1375 C 0.45577 0.51939 0.40797 0.0
C1376 C 0.4912 0.53742 0.40625 0.0
C1377 C 0.50504 0.55583 0.39597 0.0
C1378 C 0.47747 0.50769 0.34622 0.0
C1379 C 0.43285 0.57158 0.34324 0.0
O1380 O 0.51586 0.55498 0.31898 0.0
O1381 O 0.49558 0.58754 0.31398 0.0
O1382 O 0.49309 0.62578 0.33051 0.0
O1383 O 0.5255 0.63068 0.34459 0.0
O1384 O 0.56538 0.60682 0.33384 0.0
O1385 O 0.5654 0.61049 0.35325 0.0
O1386 O 0.47951 0.58337 0.36986 0.0
O1387 O 0.52345 0.57678 0.37151 0.0
O1388 O 0.50248 0.52501 0.35342 0.0
O1389 O 0.4698 0.52944 0.34219 0.0
O1390 O 0.45205 0.5792 0.35276 0.0
O1391 O 0.44607 0.56685 0.3336 0.0
H1392 H 0.53688 0.53474 0.30092 0.0
H1393 H 0.55277 0.53528 0.28049 0.0
H1394 H 0.52784 0.61313 0.27292 0.0
H1395 H 0.51146 0.61223 0.29335 0.0
H1396 H 0.43127 0.53712 0.38192 0.0
H1397 H 0.40703 0.50548 0.40002 0.0
H1398 H 0.50831 0.5379 0.41297 0.0
H1399 H 0.53249 0.57039 0.39504 0.0
Nd1400 Nd 0.50699 0.93797 0.33322 0.0
Nd1401 Nd 0.50928 0.94096 0.35451 0.0
C1402 C 0.52268 0.95584 0.31093 0.0
C1403 C 0.51598 0.96633 0.29941 0.0
C1404 C 0.53718 0.99968 0.29549 0.0
C1405 C 0.53624 1.00828 0.28377 0.0
C1406 C 0.51425 0.98362 0.27569 0.0
C1407 C 0.49173 0.95069 0.27977 0.0
C1408 C 0.49259 0.94211 0.2915 0.0
C1409 C 0.44353 0.88215 0.33938 0.0
C1410 C 0.47161 0.98291 0.34382 0.0
C1411 C 0.50274 0.93096 0.37756 0.0
C1412 C 0.5197 0.92853 0.38814 0.0
C1413 C 0.50586 0.92869 0.39909 0.0
C1414 C 0.51961 0.92363 0.40932 0.0
C1415 C 0.54749 0.9183 0.40875 0.0
C1416 C 0.56181 0.91889 0.39772 0.0
C1417 C 0.54794 0.92391 0.38747 0.0
C1418 C 0.58048 0.98481 0.34752 0.0
C1419 C 0.51743 0.87759 0.34355 0.0
O1420 O 0.53461 0.97761 0.31959 0.0
O1421 O 0.50275 0.92475 0.3144 0.0
O1422 O 0.46285 0.8835 0.3308 0.0
O1423 O 0.45747 0.91129 0.3446 0.0
O1424 O 0.48233 0.97462 0.33416 0.0
O1425 O 0.47839 0.9715 0.3536 0.0
O1426 O 0.4936 0.90678 0.36986 0.0
O1427 O 0.51473 0.96072 0.37274 0.0
O1428 O 0.56314 0.99204 0.35486 0.0
O1429 O 0.55856 0.95568 0.34323 0.0
O1430 O 0.51067 0.88937 0.3532 0.0
O1431 O 0.5213 0.89512 0.33389 0.0
H1432 H 0.55584 1.01875 0.30131 0.0
H1433 H 0.55421 1.03379 0.28091 0.0
H1434 H 0.47418 0.93123 0.27381 0.0
H1435 H 0.47605 0.91609 0.29421 0.0
H1436 H 0.48401 0.93219 0.39973 0.0
H1437 H 0.5084 0.9239 0.41768 0.0
H1438 H 0.58314 0.91462 0.397 0.0
H1439 H 0.55878 0.92353 0.37904 0.0
H1440 H 0.16545 0.25117 0.21113 0.0
H1441 H 0.23182 0.14717 0.17385 0.0
H1442 H 0.22498 0.28628 0.17946 0.0
H1443 H 0.15328 0.10062 0.20014 0.0
H1444 H 0.23979 0.2024 0.1792 0.0
H1445 H 0.1711 0.20014 0.2106 0.0
C1446 C 0.18066 0.24861 0.20432 0.0
C1447 C 0.1949 0.27269 0.19533 0.0
C1448 C 0.22093 0.18019 0.18387 0.0
C1449 C 0.20109 0.21493 0.19458 0.0
C1450 C 0.21625 0.14864 0.18077 0.0
C1451 C 0.19133 0.11926 0.18638 0.0
C1452 C 0.20039 0.1825 0.19261 0.0
C1453 C 0.17258 0.1227 0.19554 0.0
C1454 C 0.18357 0.21945 0.20394 0.0
C1455 C 0.2137 0.26814 0.18654 0.0
N1456 N 0.17715 0.15379 0.19827 0.0
N1457 N 0.21608 0.23972 0.18634 0.0
H1458 H 0.99268 0.06142 0.19865 0.0
H1459 H 0.79754 0.97039 0.18617 0.0
H1460 H 0.94316 0.11563 0.1866 0.0
H1461 H 0.83779 0.93106 0.21207 0.0
H1462 H 0.85052 1.02479 0.18687 0.0
H1463 H 0.93677 1.01337 0.20394 0.0
C1464 C 0.97012 0.06333 0.19723 0.0
C1465 C 0.97254 0.09248 0.19213 0.0
C1466 C 0.84755 1.00463 0.19265 0.0
C1467 C 0.90887 0.03797 0.1982 0.0
C1468 C 0.81726 0.97374 0.1923 0.0
C1469 C 0.81345 0.94664 0.19915 0.0
C1470 C 0.8746 1.00796 0.1996 0.0
C1471 C 0.83982 0.95172 0.20678 0.0
C1472 C 0.93834 0.03611 0.20036 0.0
C1473 C 0.94255 0.0938 0.19059 0.0
N1474 N 0.86979 0.98168 0.2066 0.0
N1475 N 0.91197 0.06678 0.19347 0.0
H1476 H 0.12343 0.87138 0.17677 0.0
H1477 H 1.01739 0.95082 0.20447 0.0
H1478 H 0.14943 0.92303 0.21011 0.0
H1479 H 0.99766 0.90095 0.17082 0.0
H1480 H 0.06156 0.93577 0.20816 0.0
H1481 H 0.07192 0.87515 0.17616 0.0
C1482 C 0.11771 0.88284 0.18411 0.0
C1483 C 0.14038 0.89681 0.19351 0.0
C1484 C 1.04742 0.92806 0.2 0.0
C1485 C 0.08217 0.9025 0.19272 0.0
C1486 C 1.02232 0.93666 0.19789 0.0
C1487 C 1.00434 0.92764 0.18724 0.0
C1488 C 0.05419 0.91008 0.19142 0.0
C1489 C 1.01151 0.90919 0.17903 0.0
C1490 C 0.08847 0.88527 0.18373 0.0
C1491 C 0.13218 0.91166 0.20278 0.0
N1492 N 1.03588 0.90115 0.18128 0.0
N1493 N 0.10385 0.91465 0.20207 0.0
H1494 H 0.18884 0.14971 0.36874 0.0
H1495 H 1.04983 0.16841 0.32945 0.0
H1496 H 0.20866 0.17909 0.33244 0.0
H1497 H 1.04851 0.16602 0.36719 0.0
H1498 H 0.10484 0.16943 0.32975 0.0
H1499 H 0.13663 0.15276 0.36775 0.0
C1500 C 0.1826 0.15714 0.3605 0.0
C1501 C 0.2045 0.16451 0.35072 0.0
C1502 C 0.09269 0.1688 0.33799 0.0
C1503 C 0.14195 0.16727 0.34943 0.0
C1504 C 0.06089 0.16818 0.33785 0.0
C1505 C 1.04356 0.16728 0.34832 0.0
C1506 C 0.10799 0.16794 0.34871 0.0
C1507 C 0.06017 0.1669 0.35882 0.0
C1508 C 0.15225 0.1588 0.35996 0.0
C1509 C 0.1936 0.1736 0.34035 0.0
N1510 N 0.09065 0.16698 0.35871 0.0
N1511 N 0.16342 0.17441 0.33998 0.0
H1512 H 0.92454 0.89782 0.36732 0.0
H1513 H 0.90779 0.04619 0.33297 0.0
H1514 H 0.92017 0.89915 0.32962 0.0
H1515 H 0.94225 0.05458 0.36864 0.0
H1516 H 0.90541 0.99058 0.33149 0.0
H1517 H 0.92438 0.95167 0.36792 0.0
C1518 C 0.9233 0.90908 0.3591 0.0
C1519 C 0.92233 0.89283 0.3484 0.0
C1520 C 0.91329 1.00447 0.33968 0.0
C1521 C 0.92179 0.95641 0.34905 0.0
C1522 C 0.91441 0.03645 0.34056 0.0
C1523 C 0.92502 0.05602 0.35101 0.0
C1524 C 0.92228 0.99088 0.34935 0.0
C1525 C 0.93373 0.0412 0.36037 0.0
C1526 C 0.92331 0.94032 0.35947 0.0
C1527 C 0.92096 0.90995 0.33815 0.0
N1528 N 0.93197 1.01022 0.35934 0.0
N1529 N 0.92056 0.94014 0.33874 0.0
H1530 H 1.03533 0.90191 0.3689 0.0
H1531 H 0.19129 0.03955 0.3287 0.0
H1532 H 1.04356 0.88084 0.33262 0.0
H1533 H 0.19214 0.04197 0.36644 0.0
H1534 H 0.13731 0.98457 0.32932 0.0
H1535 H 0.0906 0.95408 0.36759 0.0
C1536 C 1.04872 0.90786 0.3606 0.0
C1537 C 1.03384 0.88565 0.35093 0.0
C1538 C 0.14926 0.99697 0.33749 0.0
C1539 C 0.09908 0.9481 0.34924 0.0
C1540 C 0.18042 1.02875 0.33716 0.0
C1541 C 0.19737 0.04636 0.34754 0.0
C1542 C 0.13365 0.982 0.34831 0.0
C1543 C 0.18094 1.03008 0.35813 0.0
C1544 C 0.08073 0.93818 0.35987 0.0
C1545 C 1.05343 0.89617 0.34046 0.0
N1546 N 0.15054 0.99962 0.35821 0.0
N1547 N 0.08441 0.92632 0.33989 0.0
H1548 H 0.86863 0.79262 0.84464 0.0
H1549 H 0.92641 0.97209 0.81501 0.0
H1550 H 0.91662 0.81976 0.81067 0.0
H1551 H 0.89758 0.94654 0.85125 0.0
H1552 H 0.91254 0.91326 0.8114 0.0
H1553 H 0.86629 0.84477 0.84494 0.0
C1554 C 0.87784 0.8093 0.83709 0.0
C1555 C 0.89285 0.80217 0.82763 0.0
C1556 C 0.90907 0.92059 0.8201 0.0
C1557 C 0.89163 0.86253 0.82809 0.0
C1558 C 0.91697 0.95402 0.82216 0.0
C1559 C 0.91361 0.96413 0.83349 0.0
C1560 C 0.8973 0.89727 0.82941 0.0
C1561 C 0.90119 0.93991 0.84246 0.0
C1562 C 0.87682 0.83921 0.8373 0.0
C1563 C 0.90462 0.82447 0.81807 0.0
N1564 N 0.89359 0.90768 0.84023 0.0
N1565 N 0.90437 0.85419 0.81863 0.0
H1566 H 0.30111 0.09308 0.83822 0.0
H1567 H 0.10887 1.01667 0.82251 0.0
H1568 H 0.27126 0.1341 0.80955 0.0
H1569 H 0.148 0.95539 0.83687 0.0
H1570 H 0.16749 0.06107 0.81795 0.0
H1571 H 0.24483 0.04218 0.83787 0.0
C1572 C 0.28289 0.09075 0.83161 0.0
C1573 C 0.29066 0.11732 0.82382 0.0
C1574 C 0.16304 0.03759 0.8219 0.0
C1575 C 0.22593 0.06022 0.8237 0.0
C1576 C 0.12974 1.01248 0.82461 0.0
C1577 C 0.12363 0.98237 0.83008 0.0
C1578 C 0.19025 1.03266 0.82489 0.0
C1579 C 0.15151 0.97807 0.83255 0.0
C1580 C 0.25077 0.06189 0.83145 0.0
C1581 C 0.26617 0.1137 0.81556 0.0
N1582 N 0.1836 1.00308 0.83006 0.0
N1583 N 0.23444 0.08586 0.81588 0.0
H1584 H 0.98931 0.21012 0.84708 0.0
H1585 H 0.1134 0.15976 0.81459 0.0
H1586 H 0.97736 0.18431 0.81031 0.0
H1587 H 0.09642 0.15461 0.85198 0.0
H1588 H 0.07022 0.17677 0.81198 0.0
H1589 H 1.03744 0.2007 0.84801 0.0
C1590 C 0.99741 0.20316 0.83913 0.0
C1591 C 0.97946 0.19787 0.82862 0.0
C1592 C 0.07594 0.17172 0.82072 0.0
C1593 C 1.03394 0.18611 0.82966 0.0
C1594 C 0.10045 0.16202 0.82222 0.0
C1595 C 0.10825 0.15553 0.83352 0.0
C1596 C 0.05974 0.17551 0.83062 0.0
C1597 C 0.09082 0.15881 0.84311 0.0
C1598 C 1.02464 0.19744 0.83968 0.0
C1599 C 0.99083 0.18883 0.81855 0.0
N1600 N 0.06758 0.16873 0.84144 0.0
N1601 N 1.01728 0.18279 0.81934 0.0
H1602 H 0.88712 0.8704 0.65892 0.0
H1603 H 0.06785 0.93255 0.69243 0.0
H1604 H 0.91897 0.93809 0.68853 0.0
H1605 H 1.04464 0.88417 0.65858 0.0
H1606 H 1.01286 0.93132 0.69206 0.0
H1607 H 0.94196 0.87158 0.65954 0.0
C1608 C 0.9054 0.88547 0.66563 0.0
C1609 C 0.89738 0.90412 0.67369 0.0
C1610 C 1.01959 0.92085 0.68469 0.0
C1611 C 0.96205 0.90542 0.67451 0.0
C1612 C 1.05132 0.92142 0.68491 0.0
C1613 C 0.06189 0.90838 0.67554 0.0
C1614 C 0.99698 0.90669 0.67508 0.0
C1615 C 1.03843 0.8946 0.66608 0.0
C1616 C 0.93714 0.88619 0.66595 0.0
C1617 C 0.92317 0.92313 0.68209 0.0
N1618 N 1.00766 0.894 0.66615 0.0
N1619 N 0.95367 0.92312 0.68229 0.0
H1620 H 0.1775 0.17668 0.65637 0.0
H1621 H 0.19991 1.03099 0.69014 0.0
H1622 H 0.1879 0.17829 0.69393 0.0
H1623 H 0.16114 1.02086 0.65501 0.0
H1624 H 0.20216 0.08652 0.69172 0.0
H1625 H 0.17785 0.12301 0.65572 0.0
C1626 C 0.1801 0.1661 0.66454 0.0
C1627 C 0.18271 0.18313 0.67522 0.0
C1628 C 0.19335 0.07226 0.68363 0.0
C1629 C 0.18345 0.11969 0.6745 0.0
C1630 C 0.19229 0.04033 0.68268 0.0
C1631 C 0.18053 1.02032 0.67236 0.0
C1632 C 0.18309 0.08531 0.67414 0.0
C1633 C 0.17059 1.03461 0.66318 0.0
C1634 C 0.1802 0.13494 0.66415 0.0
C1635 C 0.1858 0.16686 0.68542 0.0
N1636 N 0.17228 0.06553 0.66426 0.0
N1637 N 0.18625 0.13668 0.68479 0.0
H1638 H 0.91325 0.03572 0.69582 0.0
H1639 H 0.06814 0.17317 0.65519 0.0
H1640 H 0.91204 1.03261 0.65808 0.0
H1641 H 0.06122 0.19419 0.69158 0.0
H1642 H 1.01296 0.12101 0.65666 0.0
H1643 H 0.96711 0.09079 0.69508 0.0
C1644 C 0.924 0.0464 0.68734 0.0
C1645 C 0.90699 1.02855 0.677 0.0
C1646 C 1.0231 0.13689 0.66437 0.0
C1647 C 0.97058 0.09303 0.67609 0.0
C1648 C 0.05507 0.16721 0.66355 0.0
C1649 C 0.0703 0.18941 0.6732 0.0
C1650 C 1.00511 0.12695 0.67507 0.0
C1651 C 1.05108 0.17888 0.68375 0.0
C1652 C 0.9551 0.07823 0.68693 0.0
C1653 C 0.92328 0.04468 0.66636 0.0
N1654 N 1.02011 0.14873 0.6844 0.0
N1655 N 0.95361 0.07521 0.66622 0.0
H1656 H 0.79117 0.41535 0.53779 0.0
H1657 H 0.89754 0.60632 0.51492 0.0
H1658 H 0.85534 0.44849 0.50709 0.0
H1659 H 0.82985 0.57793 0.54458 0.0
H1660 H 0.88991 0.54957 0.51453 0.0
H1661 H 0.81048 0.47504 0.54252 0.0
C1662 C 0.80936 0.43519 0.53209 0.0
C1663 C 0.8212 0.42706 0.52191 0.0
C1664 C 0.87712 0.55571 0.52129 0.0
C1665 C 0.84372 0.4949 0.52734 0.0
C1666 C 0.88184 0.58824 0.52159 0.0
C1667 C 0.86444 0.59661 0.52982 0.0
C1668 C 0.8541 0.53104 0.52911 0.0
C1669 C 0.844 0.57235 0.53819 0.0
C1670 C 0.8204 0.46914 0.5348 0.0
C1671 C 0.8449 0.45358 0.51485 0.0
N1672 N 0.83881 0.54025 0.53749 0.0
N1673 N 0.85524 0.48619 0.51768 0.0
H1674 H 0.47131 0.30937 0.51822 0.0
H1675 H 0.66325 0.39381 0.53388 0.0
H1676 H 0.50619 0.26544 0.54432 0.0
H1677 H 0.61834 0.45128 0.52073 0.0
H1678 H 0.60613 0.34749 0.53891 0.0
H1679 H 0.52388 0.3635 0.52058 0.0
C1680 C 0.48964 0.3116 0.52476 0.0
C1681 C 0.48465 0.28318 0.53108 0.0
C1682 C 0.60894 0.37056 0.53514 0.0
C1683 C 0.5455 0.3443 0.53341 0.0
C1684 C 0.64145 0.39682 0.53217 0.0
C1685 C 0.64555 0.42636 0.5268 0.0
C1686 C 0.58041 0.37371 0.53253 0.0
C1687 C 0.61648 0.42911 0.52492 0.0
C1688 C 0.51976 0.34238 0.52606 0.0
C1689 C 0.50923 0.28699 0.53934 0.0
N1690 N 0.58516 0.40295 0.52762 0.0
N1691 N 0.53919 0.31686 0.54004 0.0
H1692 H 0.69528 0.30091 0.53993 0.0
H1693 H 0.76918 0.18462 0.5178 0.0
H1694 H 0.66151 0.2366 0.50931 0.0
H1695 H 0.81472 0.25625 0.54613 0.0
H1696 H 0.72052 0.19343 0.51813 0.0
H1697 H 0.73227 0.2777 0.54508 0.0
C1698 C 0.69561 0.28185 0.53435 0.0
C1699 C 0.67594 0.27109 0.52407 0.0
C1700 C 0.74072 0.20675 0.52447 0.0
C1701 C 0.71713 0.24396 0.53 0.0
C1702 C 0.76826 0.20136 0.52437 0.0
C1703 C 0.79582 0.21985 0.5319 0.0
C1704 C 0.74129 0.23158 0.53194 0.0
C1705 C 0.79375 0.24148 0.5402 0.0
C1706 C 0.71651 0.26853 0.5373 0.0
C1707 C 0.67692 0.24617 0.51716 0.0
N1708 N 0.76725 0.24744 0.53982 0.0
N1709 N 0.69721 0.23357 0.52023 0.0
H1710 H 0.85303 0.48933 0.70057 0.0
H1711 H 0.71413 0.50605 0.66059 0.0
H1712 H 0.87353 0.51805 0.66423 0.0
H1713 H 0.71273 0.50516 0.69834 0.0
H1714 H 0.76934 0.50745 0.66109 0.0
H1715 H 0.80074 0.49214 0.69932 0.0
C1716 C 0.84693 0.49659 0.69227 0.0
C1717 C 0.86902 0.50386 0.68256 0.0
C1718 C 0.75711 0.50707 0.66928 0.0
C1719 C 0.80641 0.50628 0.68095 0.0
C1720 C 0.7252 0.50623 0.66902 0.0
C1721 C 0.70782 0.50563 0.67944 0.0
C1722 C 0.77241 0.50673 0.68007 0.0
C1723 C 0.72444 0.50579 0.69 0.0
C1724 C 0.81653 0.4981 0.69157 0.0
C1725 C 0.85831 0.51269 0.67209 0.0
N1726 N 0.75499 0.50607 0.69001 0.0
N1727 N 0.82807 0.51334 0.67157 0.0
H1728 H 0.59096 0.23678 0.69878 0.0
H1729 H 0.57058 0.383 0.66446 0.0
H1730 H 0.58227 0.23557 0.66116 0.0
H1731 H 0.60751 0.39278 0.69984 0.0
H1732 H 0.56817 0.32738 0.66303 0.0
H1733 H 0.59064 0.2905 0.69931 0.0
C1734 C 0.58873 0.24745 0.69057 0.0
C1735 C 0.58659 0.23053 0.67991 0.0
C1736 C 0.57661 0.34158 0.67115 0.0
C1737 C 0.5859 0.294 0.68048 0.0
C1738 C 0.57775 0.37357 0.672 0.0
C1739 C 0.58906 0.39351 0.68235 0.0
C1740 C 0.58632 0.32841 0.68075 0.0
C1741 C 0.59844 0.37909 0.69165 0.0
C1742 C 0.58865 0.27863 0.69089 0.0
C1743 C 0.58398 0.24692 0.66966 0.0
N1744 N 0.59669 0.34812 0.69065 0.0
N1745 N 0.58355 0.2771 0.67022 0.0
H1746 H 0.85691 0.38241 0.69841 0.0
H1747 H 0.70826 0.21682 0.66396 0.0
H1748 H 0.8558 0.37697 0.6607 0.0
H1749 H 0.70035 0.24255 0.6997 0.0
H1750 H 0.76402 0.27036 0.66246 0.0
H1751 H 0.80306 0.32811 0.69894 0.0
C1752 C 0.84569 0.3699 0.69018 0.0
C1753 C 0.86198 0.38533 0.67949 0.0
C1754 C 0.7502 0.2642 0.67067 0.0
C1755 C 0.79839 0.32088 0.68006 0.0
C1756 C 0.71816 0.23318 0.67157 0.0
C1757 C 0.69871 0.22406 0.68204 0.0
C1758 C 0.76391 0.28675 0.68035 0.0
C1759 C 0.71366 0.24755 0.69142 0.0
C1760 C 0.81444 0.3385 0.6905 0.0
C1761 C 0.84493 0.36683 0.66922 0.0
N1762 N 0.74468 0.27694 0.69037 0.0
N1763 N 0.81469 0.33605 0.66977 0.0
H1764 H 0.58314 0.1422 0.14651 0.0
H1765 H 0.54499 0.25474 0.19123 0.0
H1766 H 0.56436 0.1233 0.18359 0.0
H1767 H 0.5809 0.28768 0.15597 0.0
H1768 H 0.5428 0.20131 0.18722 0.0
H1769 H 0.57346 0.19065 0.14845 0.0
C1770 C 0.5764 0.14791 0.15498 0.0
C1771 C 0.57474 0.12908 0.16492 0.0
C1772 C 0.55109 0.22009 0.18031 0.0
C1773 C 0.56376 0.1838 0.16722 0.0
C1774 C 0.55249 0.25069 0.18263 0.0
C1775 C 0.56375 0.27588 0.17399 0.0
C1776 C 0.56122 0.21454 0.16927 0.0
C1777 C 0.57223 0.26891 0.16288 0.0
C1778 C 0.57109 0.17555 0.1561 0.0
C1779 C 0.56619 0.13744 0.17573 0.0
N1780 N 0.57116 0.23894 0.16086 0.0
N1781 N 0.56116 0.16419 0.17659 0.0
H1782 H 0.94072 0.45815 0.14572 0.0
H1783 H 0.83701 0.29249 0.18541 0.0
H1784 H 0.97392 0.44131 0.17919 0.0
H1785 H 0.7907 0.31785 0.15709 0.0
H1786 H 0.89199 0.34101 0.18028 0.0
H1787 H 0.89036 0.40074 0.1468 0.0
C1788 C 0.93789 0.44191 0.15308 0.0
C1789 C 0.96121 0.4541 0.16239 0.0
C1790 C 0.86988 0.33592 0.17513 0.0
C1791 C 0.90426 0.38934 0.16374 0.0
C1792 C 0.83844 0.30834 0.17811 0.0
C1793 C 0.80915 0.30158 0.17183 0.0
C1794 C 0.87217 0.35712 0.16582 0.0
C1795 C 0.81267 0.32234 0.1622 0.0
C1796 C 0.90911 0.40944 0.15376 0.0
C1797 C 0.95634 0.43265 0.17186 0.0
N1798 N 0.84362 0.3495 0.15956 0.0
N1799 N 0.92833 0.4014 0.17233 0.0
H1800 H 0.77689 0.49276 0.15282 0.0
H1801 H 0.63041 0.51336 0.18383 0.0
H1802 H 0.75999 0.48977 0.19018 0.0
H1803 H 0.63165 0.49947 0.14643 0.0
H1804 H 0.68316 0.5125 0.18566 0.0
H1805 H 0.72807 0.50125 0.1497 0.0
C1806 C 0.7629 0.49387 0.16034 0.0
C1807 C 0.77221 0.49019 0.17177 0.0
C1808 C 0.67218 0.5098 0.17701 0.0
C1809 C 0.71698 0.50021 0.16828 0.0
C1810 C 0.6421 0.51045 0.17596 0.0
C1811 C 0.62666 0.50619 0.16498 0.0
C1812 C 0.68696 0.50458 0.16701 0.0
C1813 C 0.64295 0.50284 0.15505 0.0
C1814 C 0.73512 0.49867 0.15855 0.0
C1815 C 0.75332 0.4918 0.18121 0.0
N1816 N 0.67224 0.50173 0.1563 0.0
N1817 N 0.72671 0.49671 0.17925 0.0
H1818 H 0.73182 0.23976 0.98943 0.0
H1819 H 0.56603 0.22371 0.02352 0.0
H1820 H 0.72607 0.23655 0.02714 0.0
H1821 H 0.59188 0.25667 0.98773 0.0
H1822 H 0.61954 0.22153 0.0251 0.0
H1823 H 0.67749 0.23934 0.9887 0.0
C1824 C 0.71924 0.23873 0.99762 0.0
C1825 C 0.73457 0.23816 1.00837 0.0
C1826 C 0.61342 0.22904 0.01686 0.0
C1827 C 0.67014 0.23733 1.00756 0.0
C1828 C 0.58242 0.23004 0.01592 0.0
C1829 C 0.57334 0.24017 1.00541 0.0
C1830 C 0.63601 0.23768 1.00719 0.0
C1831 C 0.59686 0.24853 0.99604 0.0
C1832 C 0.68783 0.23859 0.99718 0.0
C1833 C 0.716 0.23703 0.01858 0.0
N1834 N 0.62625 0.24691 0.99713 0.0
N1835 N 0.68523 0.23648 0.01792 0.0
H1836 H 0.87002 0.35967 0.0243 0.0
H1837 H 0.85344 0.50736 0.98938 0.0
H1838 H 0.83674 0.35097 0.98846 0.0
H1839 H 0.85767 0.5066 0.02709 0.0
H1840 H 0.85376 0.45357 0.98893 0.0
H1841 H 0.87222 0.41521 0.02558 0.0
C1842 C 0.86361 0.36933 0.01663 0.0
C1843 C 0.85339 0.34971 1.0062 0.0
C1844 C 0.85476 0.46504 0.99735 0.0
C1845 C 0.85591 0.41474 1.00763 0.0
C1846 C 0.85468 0.49624 0.99762 0.0
C1847 C 0.85557 0.51262 1.00829 0.0
C1848 C 0.85628 0.44914 1.00782 0.0
C1849 C 0.85694 0.49569 0.01858 0.0
C1850 C 0.86463 0.40127 0.0174 0.0
C1851 C 0.84495 0.36441 0.99673 0.0
N1852 N 0.85743 0.46554 0.01808 0.0
N1853 N 0.84658 0.39535 0.99765 0.0
H1854 H 0.58499 0.36208 0.98913 0.0
H1855 H 0.73463 0.52593 0.02407 0.0
H1856 H 0.58733 0.36579 0.02686 0.0
H1857 H 0.74215 0.50198 0.98806 0.0
H1858 H 0.67886 0.47238 0.0254 0.0
H1859 H 0.63896 0.41638 0.98868 0.0
C1860 C 0.59651 0.37419 0.99738 0.0
C1861 C 0.58052 0.35829 1.00805 0.0
C1862 C 0.69259 0.47893 0.01717 0.0
C1863 C 0.64421 0.42272 1.00758 0.0
C1864 C 0.72465 0.50996 0.01637 0.0
C1865 C 0.74401 0.51959 1.00587 0.0
C1866 C 0.67874 0.45686 1.00737 0.0
C1867 C 0.72892 0.49657 0.99637 0.0
C1868 C 0.62781 0.40559 0.99711 0.0
C1869 C 0.59794 0.3763 0.01835 0.0
N1870 N 0.69787 0.46715 0.99733 0.0
N1871 N 0.62819 0.40708 0.01785 0.0
H1872 H 0.55659 0.93862 0.84415 0.0
H1873 H 0.46981 0.75071 0.86506 0.0
H1874 H 0.49504 0.90802 0.87545 0.0
H1875 H 0.56889 0.79957 0.84874 0.0
H1876 H 0.47588 0.80672 0.86849 0.0
H1877 H 0.55969 0.88667 0.8451 0.0
C1878 C 0.54433 0.92115 0.85136 0.0
C1879 C 0.52584 0.92746 0.8598 0.0
C1880 C 0.49647 0.80508 0.86434 0.0
C1881 C 0.52822 0.86774 0.86072 0.0
C1882 C 0.49293 0.77326 0.86231 0.0
C1883 C 0.51885 0.77066 0.85657 0.0
C1884 C 0.52577 0.83425 0.86035 0.0
C1885 C 0.54841 0.80054 0.85324 0.0
C1886 C 0.54607 0.8916 0.8519 0.0
C1887 C 0.50995 0.90405 0.8689 0.0
N1888 N 0.55085 0.8311 0.85502 0.0
N1889 N 0.51092 0.8747 0.869 0.0
H1890 H 0.14932 0.61529 0.86992 0.0
H1891 H 0.30856 0.71749 0.82708 0.0
H1892 H 0.16165 0.57561 0.83707 0.0
H1893 H 0.30272 0.7521 0.86183 0.0
H1894 H 0.25435 0.66576 0.83048 0.0
H1895 H 0.2047 0.6665 0.8669 0.0
C1896 C 0.16371 0.61745 0.86206 0.0
C1897 C 0.15106 0.59131 0.85373 0.0
C1898 C 0.26496 0.68461 0.83738 0.0
C1899 C 0.21425 0.64956 0.85022 0.0
C1900 C 0.29608 0.71409 0.83548 0.0
C1901 C 0.3103 0.73925 0.84418 0.0
C1902 C 0.24777 0.68022 0.84805 0.0
C1903 C 0.29253 0.73365 0.8548 0.0
C1904 C 0.19532 0.64657 0.86036 0.0
C1905 C 0.17065 0.59519 0.84373 0.0
N1906 N 0.26216 0.70478 0.85642 0.0
N1907 N 0.20127 0.62381 0.84224 0.0
H1908 H 0.45297 0.5237 0.87757 0.0
H1909 H 0.30218 0.48265 0.83235 0.0
H1910 H 0.46253 0.5319 0.83988 0.0
H1911 H 0.2909 0.48899 0.86976 0.0
H1912 H 0.35821 0.49 0.83561 0.0
H1913 H 0.39126 0.50182 0.87548 0.0
C1914 C 0.44201 0.52052 0.86889 0.0
C1915 C 0.46274 0.52987 0.85889 0.0
C1916 C 0.34346 0.48955 0.84315 0.0
C1917 C 0.39294 0.50491 0.85643 0.0
C1918 C 0.31115 0.48495 0.84129 0.0
C1919 C 0.29172 0.48542 0.85078 0.0
C1920 C 0.35684 0.49505 0.85457 0.0
C1921 C 0.30526 0.48915 0.86215 0.0
C1922 C 0.40697 0.50816 0.8677 0.0
C1923 C 0.44753 0.52537 0.84784 0.0
N1924 N 0.33718 0.49419 0.86373 0.0
N1925 N 0.41368 0.51334 0.84692 0.0
H1926 H 0.52598 0.82015 0.03484 0.0
H1927 H 0.38707 0.83526 0.99429 0.0
H1928 H 0.54629 0.84695 0.99836 0.0
H1929 H 0.38593 0.83643 0.03204 0.0
H1930 H 0.44219 0.8365 0.99496 0.0
H1931 H 0.47377 0.8231 0.03341 0.0
C1932 C 0.51986 0.82702 0.02647 0.0
C1933 C 0.54187 0.83372 0.01678 0.0
C1934 C 0.43005 0.83661 1.00312 0.0
C1935 C 0.47935 0.83628 0.01495 0.0
C1936 C 0.39819 0.83586 1.00276 0.0
C1937 C 0.3809 0.83589 0.01313 0.0
C1938 C 0.4454 0.8368 0.01396 0.0
C1939 C 0.39757 0.83656 0.02374 0.0
C1940 C 0.48951 0.82861 0.02567 0.0
C1941 C 0.53114 0.84205 1.00621 0.0
N1942 N 0.42808 0.83673 0.02385 0.0
N1943 N 0.50095 0.84278 1.00558 0.0
H1944 H 0.27653 0.72297 0.0345 0.0
H1945 H 0.25736 0.56545 0.99521 0.0
H1946 H 0.24721 0.71329 0.99817 0.0
H1947 H 0.2607 0.56709 0.03295 0.0
H1948 H 0.25629 0.6192 0.99551 0.0
H1949 H 0.2734 0.66788 0.03352 0.0
C1950 C 0.26908 0.70931 0.02626 0.0
C1951 C 0.26175 0.72377 0.01647 0.0
C1952 C 0.25713 0.60785 1.00375 0.0
C1953 C 0.25891 0.65863 0.01518 0.0
C1954 C 0.25778 0.5768 1.00361 0.0
C1955 C 0.25897 0.5606 0.01408 0.0
C1956 C 0.25825 0.62412 0.01446 0.0
C1957 C 0.25958 0.57768 0.02458 0.0
C1958 C 0.26737 0.67738 0.02572 0.0
C1959 C 0.25265 0.70379 1.00609 0.0
N1960 N 0.25946 0.60794 0.02446 0.0
N1961 N 0.2518 0.67288 1.00572 0.0
H1962 H 0.37298 0.57012 0.0351 0.0
H1963 H 0.52893 0.70809 0.99493 0.0
H1964 H 0.38114 0.54909 0.99881 0.0
H1965 H 0.52951 0.71023 0.03268 0.0
H1966 H 0.47498 0.65302 0.9955 0.0
H1967 H 0.4282 0.62233 0.03377 0.0
C1968 C 0.38635 0.57609 0.0268 0.0
C1969 C 0.37147 0.55387 0.01712 0.0
C1970 C 0.48687 0.66538 1.00368 0.0
C1971 C 0.43666 0.61639 0.01542 0.0
C1972 C 0.51802 0.69721 1.00338 0.0
C1973 C 0.53488 0.71477 0.01378 0.0
C1974 C 0.47121 0.65032 0.01449 0.0
C1975 C 0.51839 0.69839 0.02436 0.0
C1976 C 0.41833 0.60644 0.02605 0.0
C1977 C 0.39103 0.56441 1.00664 0.0
N1978 N 0.48803 0.6679 0.0244 0.0
N1979 N 0.42198 0.5946 1.00607 0.0
H1980 H 0.21463 0.45299 0.50848 0.0
H1981 H 0.3128 0.65479 0.50198 0.0
H1982 H 0.31923 0.51071 0.49715 0.0
H1983 H 0.21945 0.59711 0.52142 0.0
H1984 H 0.31372 0.60224 0.49817 0.0
H1985 H 0.21404 0.5057 0.51134 0.0
C1986 C 0.23747 0.47683 0.50657 0.0
C1987 C 0.26703 0.47761 0.50259 0.0
C1988 C 0.29309 0.60117 0.50328 0.0
C1989 C 0.26658 0.53804 0.50583 0.0
C1990 C 0.29245 0.63104 0.50539 0.0
C1991 C 0.2661 0.63022 0.51207 0.0
C1992 C 0.26695 0.57033 0.50776 0.0
C1993 C 0.24046 0.59889 0.51636 0.0
C1994 C 0.23716 0.50692 0.50823 0.0
C1995 C 0.29595 0.50914 0.50026 0.0
N1996 N 0.24149 0.57021 0.51411 0.0
N1997 N 0.29501 0.53822 0.50189 0.0
H1998 H 0.65407 0.7796 0.51584 0.0
H1999 H 0.48461 0.62428 0.49071 0.0
H2000 H 0.62629 0.77389 0.47938 0.0
H2001 H 0.52875 0.62398 0.52423 0.0
H2002 H 0.53676 0.67715 0.48572 0.0
H2003 H 0.60934 0.72107 0.51849 0.0
C2004 C 0.63871 0.7657 0.50833 0.0
C2005 C 0.64368 0.78144 0.49739 0.0
C2006 C 0.5351 0.66526 0.4941 0.0
C2007 C 0.59172 0.71444 0.5004 0.0
C2008 C 0.50539 0.63508 0.49696 0.0
C2009 C 0.50209 0.61995 0.50799 0.0
C2010 C 0.56156 0.68041 0.50236 0.0
C2011 C 0.52977 0.63515 0.51575 0.0
C2012 C 0.61313 0.73224 0.50984 0.0
C2013 C 0.62322 0.76241 0.48794 0.0
N2014 N 0.55813 0.66462 0.51283 0.0
N2015 N 0.59762 0.7299 0.4897 0.0
H2016 H 0.44864 0.83528 0.52475 0.0
H2017 H 0.31584 0.84118 0.48007 0.0
H2018 H 0.45741 0.82915 0.48723 0.0
H2019 H 0.31747 0.85661 0.51746 0.0
H2020 H 0.3687 0.83882 0.48191 0.0
H2021 H 0.40055 0.84386 0.52179 0.0
C2022 C 0.44019 0.83544 0.51587 0.0
C2023 C 0.45677 0.83111 0.50623 0.0
C2024 C 0.3576 0.84308 0.48967 0.0
C2025 C 0.40182 0.84149 0.50272 0.0
C2026 C 0.32766 0.84461 0.4886 0.0
C2027 C 0.31235 0.8488 0.49865 0.0
C2028 C 0.37197 0.84583 0.50084 0.0
C2029 C 0.32835 0.85298 0.50952 0.0
C2030 C 0.41289 0.84068 0.51416 0.0
C2031 C 0.44527 0.83242 0.4949 0.0
N2032 N 0.3571 0.85115 0.51033 0.0
N2033 N 0.4183 0.83732 0.49344 0.0
H2034 H 0.23074 0.55722 0.35946 0.0
H2035 H 0.3936 0.57029 0.32419 0.0
H2036 H 0.25375 0.58721 0.3233 0.0
H2037 H 0.391 0.57005 0.36194 0.0
H2038 H 0.33925 0.56986 0.32384 0.0
H2039 H 0.28429 0.555 0.36072 0.0
C2040 C 0.24648 0.56285 0.35172 0.0
C2041 C 0.23661 0.57217 0.3412 0.0
C2042 C 0.35029 0.56978 0.33225 0.0
C2043 C 0.29933 0.56968 0.3426 0.0
C2044 C 0.38172 0.56993 0.33247 0.0
C2045 C 0.39794 0.57021 0.34311 0.0
C2046 C 0.33347 0.56934 0.34276 0.0
C2047 C 0.38022 0.56989 0.35345 0.0
C2048 C 0.27752 0.56185 0.35247 0.0
C2049 C 0.25936 0.5797 0.33163 0.0
N2050 N 0.34941 0.56931 0.35301 0.0
N2051 N 0.28878 0.57811 0.33255 0.0
H2052 H 0.53218 0.69029 0.35885 0.0
H2053 H 0.51717 0.83941 0.32437 0.0
H2054 H 0.4996 0.68291 0.32297 0.0
H2055 H 0.52031 0.83761 0.36209 0.0
H2056 H 0.51729 0.78557 0.3238 0.0
H2057 H 0.53462 0.74591 0.36034 0.0
C2058 C 0.52597 0.70025 0.35121 0.0
C2059 C 0.51587 0.68098 0.3407 0.0
C2060 C 0.51809 0.7968 0.33225 0.0
C2061 C 0.51867 0.7461 0.34238 0.0
C2062 C 0.51813 0.82804 0.3326 0.0
C2063 C 0.51877 0.84415 0.3433 0.0
C2064 C 0.51923 0.78057 0.34268 0.0
C2065 C 0.51978 0.8269 0.35356 0.0
C2066 C 0.52713 0.73224 0.3521 0.0
C2067 C 0.5077 0.69606 0.33129 0.0
N2068 N 0.52015 0.79669 0.35299 0.0
N2069 N 0.50946 0.72703 0.33233 0.0
H2070 H 0.25005 0.69712 0.36305 0.0
H2071 H 0.40485 0.83525 0.32256 0.0
H2072 H 0.24837 0.69537 0.3253 0.0
H2073 H 0.39787 0.85597 0.35898 0.0
H2074 H 0.34963 0.7831 0.324 0.0
H2075 H 0.30405 0.75214 0.3624 0.0
C2076 C 0.26074 0.70808 0.35459 0.0
C2077 C 0.24357 0.69066 0.34421 0.0
C2078 C 0.35976 0.79891 0.33172 0.0
C2079 C 0.30725 0.75501 0.34341 0.0
C2080 C 0.39174 0.82922 0.33092 0.0
C2081 C 0.40694 0.85132 0.3406 0.0
C2082 C 0.34177 0.7889 0.34242 0.0
C2083 C 0.38771 0.84072 0.35115 0.0
C2084 C 0.2919 0.73987 0.35424 0.0
C2085 C 0.25975 0.70711 0.33361 0.0
N2086 N 0.35675 0.81057 0.35177 0.0
N2087 N 0.29013 0.73756 0.33351 0.0
H2088 H 0.34611 0.48947 0.20995 0.0
H2089 H 0.43985 0.43046 0.16443 0.0
H2090 H 0.31524 0.46199 0.17385 0.0
H2091 H 0.45765 0.4376 0.2018 0.0
H2092 H 0.40083 0.45206 0.16714 0.0
H2093 H 0.39565 0.48306 0.20625 0.0
C2094 C 0.3501 0.48288 0.20119 0.0
C2095 C 0.32589 0.47543 0.19229 0.0
C2096 C 0.41317 0.44882 0.17476 0.0
C2097 C 0.38231 0.46802 0.18805 0.0
C2098 C 0.43514 0.4362 0.17323 0.0
C2099 C 0.45146 0.4318 0.18293 0.0
C2100 C 0.40752 0.45712 0.18608 0.0
C2101 C 0.44502 0.44009 0.19412 0.0
C2102 C 0.37828 0.47909 0.19911 0.0
C2103 C 0.33295 0.46794 0.18104 0.0
N2104 N 0.42347 0.45238 0.1954 0.0
N2105 N 0.36018 0.46385 0.1793 0.0
H2106 H 0.66825 1.03311 0.16629 0.0
H2107 H 0.60159 0.875 0.20981 0.0
H2108 H 0.64999 0.03871 0.20315 0.0
H2109 H 0.63565 0.87664 0.17427 0.0
H2110 H 0.60962 0.93168 0.20674 0.0
H2111 H 0.64912 0.97301 0.16855 0.0
C2112 C 0.66068 1.02169 0.17491 0.0
C2113 C 0.66108 0.04082 0.18458 0.0
C2114 C 0.61475 0.91926 0.19958 0.0
C2115 C 0.63848 0.97198 0.18721 0.0
C2116 C 0.61004 0.88686 0.2013 0.0
C2117 C 0.61854 0.8711 0.19238 0.0
C2118 C 0.62786 0.93584 0.18886 0.0
C2119 C 0.6286 0.88744 0.18145 0.0
C2120 C 0.64945 0.98734 0.17618 0.0
C2121 C 0.65056 1.02484 0.19552 0.0
N2122 N 0.63344 0.91905 0.18007 0.0
N2123 N 0.63959 0.9912 0.19655 0.0
H2124 H 0.20164 0.75754 0.17891 0.0
H2125 H 1.02961 0.6081 0.20602 0.0
H2126 H 0.1876 0.73764 0.21616 0.0
H2127 H 1.04395 0.63951 0.16976 0.0
H2128 H 0.08911 0.65095 0.20998 0.0
H2129 H 0.14731 0.70701 0.17534 0.0
C2130 C 0.1877 0.74205 0.18636 0.0
C2131 C 0.19907 0.75236 0.1979 0.0
C2132 C 0.07911 0.64854 0.20118 0.0
C2133 C 0.13571 0.69502 0.19383 0.0
C2134 C 1.0451 0.62449 0.19896 0.0
C2135 C 1.03195 0.62063 0.18757 0.0
C2136 C 0.09982 0.66866 0.19193 0.0
C2137 C 1.05315 0.6419 0.17868 0.0
C2138 C 0.15622 0.7134 0.1843 0.0
C2139 C 0.1794 0.73116 0.20714 0.0
N2140 N 0.08606 0.66493 0.18104 0.0
N2141 N 0.1483 0.70378 0.20493 0.0
H2142 H 0.37669 0.28086 0.36443 0.0
H2143 H 0.42455 0.46028 0.33054 0.0
H2144 H 0.34587 0.28129 0.32883 0.0
H2145 H 0.47835 0.45795 0.36119 0.0
H2146 H 0.39244 0.39723 0.33044 0.0
H2147 H 0.40889 0.34372 0.36417 0.0
C2148 C 0.37627 0.29361 0.35648 0.0
C2149 C 0.35747 0.2734 0.34663 0.0
C2150 C 0.41117 0.41019 0.33727 0.0
C2151 C 0.39587 0.34956 0.34634 0.0
C2152 C 0.42993 0.44709 0.33735 0.0
C2153 C 0.45542 0.46675 0.34589 0.0
C2154 C 0.41634 0.39059 0.34593 0.0
C2155 C 0.45971 0.44572 0.35429 0.0
C2156 C 0.39517 0.33042 0.35635 0.0
C2157 C 0.35932 0.29394 0.33678 0.0
N2158 N 0.44087 0.4102 0.35412 0.0
N2159 N 0.37731 0.32953 0.33695 0.0
H2160 H 0.62785 0.98006 0.33166 0.0
H2161 H 0.80844 0.11101 0.36575 0.0
H2162 H 0.63062 1.03489 0.36269 0.0
H2163 H 0.80757 0.08043 0.33005 0.0
H2164 H 0.74533 0.08022 0.36552 0.0
H2165 H 0.69116 1.01114 0.33156 0.0
C2166 C 0.64119 0.99836 0.33856 0.0
C2167 C 0.62157 1.00378 0.3472 0.0
C2168 C 0.75858 0.07996 0.35767 0.0
C2169 C 0.69804 0.04104 0.34724 0.0
C2170 C 0.79554 0.09796 0.35778 0.0
C2171 C 0.8157 0.09959 0.34789 0.0
C2172 C 0.73923 0.06168 0.34764 0.0
C2173 C 0.79496 0.08105 0.33802 0.0
C2174 C 0.67823 1.01658 0.33847 0.0
C2175 C 0.64281 1.0288 0.3557 0.0
N2176 N 0.75923 0.06337 0.33821 0.0
N2177 N 0.67846 0.04556 0.35553 0.0
H2178 H 0.97708 0.71386 0.36523 0.0
H2179 H 0.10803 0.66349 0.33181 0.0
H2180 H 1.009 0.74372 0.32963 0.0
H2181 H 1.0521 0.61178 0.36273 0.0
H2182 H 0.07741 0.6959 0.3315 0.0
H2183 H 1.00741 0.68135 0.36518 0.0
C2184 C 0.99033 0.714 0.35731 0.0
C2185 C 0.98919 0.73266 0.3474 0.0
C2186 C 0.07161 0.67757 0.33843 0.0
C2187 C 1.02659 0.69381 0.34737 0.0
C2188 C 0.08957 0.65862 0.33864 0.0
C2189 C 0.08372 0.63361 0.34732 0.0
C2190 C 1.04697 0.6731 0.3471 0.0
C2191 C 0.05853 0.63001 0.35573 0.0
C2192 C 1.00806 0.69491 0.35731 0.0
C2193 C 1.00797 0.73042 0.33762 0.0
N2194 N 1.04202 0.64901 0.35543 0.0
N2195 N 1.02538 0.71223 0.33792 0.0
H2196 H 0.65229 0.6373 0.85979 0.0
H2197 H 0.74909 0.58336 0.81372 0.0
H2198 H 0.63148 0.62777 0.82261 0.0
H2199 H 0.782 0.61435 0.84946 0.0
H2200 H 0.69868 0.58814 0.81762 0.0
H2201 H 0.69459 0.62012 0.85667 0.0
C2202 C 0.65713 0.63213 0.85093 0.0
C2203 C 0.63888 0.63441 0.84142 0.0
C2204 C 0.71675 0.5933 0.82463 0.0
C2205 C 0.68655 0.61397 0.83779 0.0
C2206 C 0.74544 0.59043 0.82244 0.0
C2207 C 0.7704 0.59926 0.83117 0.0
C2208 C 0.71295 0.60475 0.83565 0.0
C2209 C 0.76373 0.60729 0.8424 0.0
C2210 C 0.68098 0.62198 0.84917 0.0
C2211 C 0.64557 0.62691 0.83014 0.0
N2212 N 0.73595 0.61036 0.84425 0.0
N2213 N 0.66892 0.61691 0.82863 0.0
H2214 H 0.49876 0.17035 0.80705 0.0
H2215 H 0.42259 1.01026 0.84982 0.0
H2216 H 0.47077 0.17091 0.84325 0.0
H2217 H 0.45802 1.00799 0.81489 0.0
H2218 H 0.44045 0.06987 0.84718 0.0
H2219 H 0.48754 0.1123 0.80971 0.0
C2220 C 0.491 0.15863 0.81561 0.0
C2221 C 0.48529 0.1755 0.82489 0.0
C2222 C 0.44417 0.0564 0.84003 0.0
C2223 C 0.472 0.10918 0.82791 0.0
C2224 C 0.43357 1.02228 0.8415 0.0
C2225 C 0.43869 1.00432 0.83254 0.0
C2226 C 0.46007 0.07274 0.82952 0.0
C2227 C 0.45329 1.02099 0.82196 0.0
C2228 C 0.48444 0.12546 0.8171 0.0
C2229 C 0.47576 0.15924 0.83583 0.0
N2230 N 0.4637 0.05447 0.82075 0.0
N2231 N 0.46896 0.12689 0.83697 0.0
H2232 H 0.8707 0.3337 0.86179 0.0
H2233 H 1.0299 0.44698 0.87549 0.0
H2234 H 0.8959 0.2554 0.86714 0.0
H2235 H 1.04821 0.36941 0.86195 0.0
H2236 H 0.97339 0.4039 0.88165 0.0
H2237 H 0.92483 0.37447 0.87064 0.0
C2238 C 0.88684 0.32477 0.86542 0.0
C2239 C 0.87885 0.29117 0.86373 0.0
C2240 C 0.98985 0.39614 0.87751 0.0
C2241 C 0.94121 0.33756 0.87367 0.0
C2242 C 1.02235 0.42078 0.87407 0.0
C2243 C 1.04338 0.41174 0.86795 0.0
C2244 C 0.97798 0.36232 0.8744 0.0
C2245 C 1.03251 0.37734 0.86655 0.0
C2246 C 0.91788 0.34804 0.87052 0.0
C2247 C 0.9008 0.28089 0.86846 0.0
N2248 N 1.00004 0.35376 0.86948 0.0
N2249 N 0.9315 0.3042 0.87286 0.0
H2250 H 0.68023 0.61361 0.69162 0.0
H2251 H 0.72832 0.79331 0.65781 0.0
H2252 H 0.62769 0.61622 0.66067 0.0
H2253 H 0.75961 0.79284 0.69333 0.0
H2254 H 0.69624 0.73049 0.65803 0.0
H2255 H 0.71228 0.67667 0.69181 0.0
C2256 C 0.67511 0.62686 0.68476 0.0
C2257 C 0.64999 0.60724 0.67611 0.0
C2258 C 0.71002 0.74374 0.66585 0.0
C2259 C 0.68901 0.68348 0.67618 0.0
C2260 C 0.72886 0.78056 0.66574 0.0
C2261 C 0.74777 0.80078 0.67558 0.0
C2262 C 0.70944 0.72456 0.67582 0.0
C2263 C 0.74607 0.78021 0.6854 0.0
C2264 C 0.69384 0.66378 0.6849 0.0
C2265 C 0.64603 0.62838 0.66765 0.0
N2266 N 0.72811 0.74459 0.6852 0.0
N2267 N 0.66482 0.66391 0.66788 0.0
H2268 H 0.47794 0.09475 0.69142 0.0
H2269 H 0.29688 0.96506 0.6572 0.0
H2270 H 0.47482 0.04153 0.65992 0.0
H2271 H 0.29823 0.99562 0.69294 0.0
H2272 H 0.36002 0.99575 0.65736 0.0
H2273 H 0.41463 0.06386 0.69154 0.0
C2274 C 0.46453 0.07685 0.68443 0.0
C2275 C 0.48406 0.07183 0.67564 0.0
C2276 C 0.34687 0.99601 0.66524 0.0
C2277 C 0.40756 1.03477 0.67564 0.0
C2278 C 0.30989 0.97808 0.66517 0.0
C2279 C 0.28984 0.97649 0.67509 0.0
C2280 C 0.36635 1.01422 0.67527 0.0
C2281 C 0.31073 0.99498 0.68495 0.0
C2282 C 0.42748 0.05874 0.68453 0.0
C2283 C 0.46272 0.04731 0.66701 0.0
N2284 N 0.34646 1.01255 0.68472 0.0
N2285 N 0.42706 1.03062 0.66722 0.0
H2286 H 0.07247 0.48515 0.67966 0.0
H2287 H 0.0791 0.31477 0.66198 0.0
H2288 H 0.97854 0.39284 0.67319 0.0
H2289 H 0.1428 0.37804 0.68992 0.0
H2290 H 1.04767 0.34628 0.66236 0.0
H2291 H 0.10257 0.4524 0.68001 0.0
C2292 C 0.05766 0.45801 0.67829 0.0
C2293 C 1.02174 0.44288 0.67655 0.0
C2294 C 0.06854 0.35363 0.66844 0.0
C2295 C 0.05832 0.4033 0.67644 0.0
C2296 C 0.08707 0.33531 0.66821 0.0
C2297 C 0.11473 0.34251 0.67595 0.0
C2298 C 0.07748 0.38145 0.67618 0.0
C2299 C 0.12219 0.37028 0.6837 0.0
C2300 C 0.07536 0.43893 0.6785 0.0
C2301 C 1.00571 0.40689 0.67476 0.0
N2302 N 0.10462 0.38831 0.68346 0.0
N2303 N 1.02366 0.3892 0.67458 0.0
H2304 H 0.99709 0.80303 0.50708 0.0
H2305 H 0.14663 0.78893 0.5369 0.0
H2306 H 1.02479 0.8273 0.54355 0.0
H2307 H 0.12569 0.77772 0.49972 0.0
H2308 H 0.10603 0.8089 0.53927 0.0
H2309 H 1.0499 0.80348 0.50368 0.0
C2310 C 1.01471 0.8096 0.51433 0.0
C2311 C 1.00587 0.8142 0.52572 0.0
C2312 C 0.11039 0.80218 0.53059 0.0
C2313 C 0.06598 0.81315 0.52194 0.0
C2314 C 0.13315 0.79032 0.52927 0.0
C2315 C 0.1389 0.78112 0.51813 0.0
C2316 C 0.09312 0.80449 0.52072 0.0
C2317 C 0.12152 0.78415 0.50848 0.0
C2318 C 1.0448 0.80933 0.5124 0.0
C2319 C 1.02997 0.82242 0.53471 0.0
N2320 N 0.09924 0.79538 0.51001 0.0
N2321 N 0.05857 0.82077 0.5327 0.0
H2322 H 0.24883 0.1701 0.5116 0.0
H2323 H 0.36997 0.36694 0.4985 0.0
H2324 H 0.34187 0.21055 0.49162 0.0
H2325 H 0.27477 0.32492 0.51723 0.0
H2326 H 0.35699 0.30909 0.49371 0.0
H2327 H 0.25284 0.22553 0.51068 0.0
C2328 C 0.26952 0.19033 0.50672 0.0
C2329 C 0.2953 0.18578 0.50186 0.0
C2330 C 0.33886 0.31259 0.4988 0.0
C2331 C 0.30068 0.24944 0.50104 0.0
C2332 C 0.34648 0.34552 0.50163 0.0
C2333 C 0.32351 0.35049 0.50832 0.0
C2334 C 0.30819 0.28471 0.50277 0.0
C2335 C 0.29318 0.32207 0.51205 0.0
C2336 C 0.272 0.22207 0.50627 0.0
C2337 C 0.32138 0.21279 0.49552 0.0
N2338 N 0.28647 0.29042 0.50927 0.0
N2339 N 0.32383 0.24368 0.49552 0.0
H2340 H 0.71748 0.94952 0.53324 0.0
H2341 H 0.87642 0.10809 0.50464 0.0
H2342 H 0.72647 0.97138 0.49616 0.0
H2343 H 0.87769 0.07457 0.54002 0.0
H2344 H 0.82398 0.05563 0.50097 0.0
H2345 H 0.77668 0.99457 0.53591 0.0
C2346 C 0.73178 0.96425 0.52571 0.0
C2347 C 0.71712 0.95723 0.51449 0.0
C2348 C 0.83597 0.05943 0.50949 0.0
C2349 C 0.78475 1.00805 0.51741 0.0
C2350 C 0.8664 0.08935 0.51157 0.0
C2351 C 0.88138 0.0963 0.52277 0.0
C2352 C 0.82004 0.03645 0.51871 0.0
C2353 C 0.86655 0.07083 0.53136 0.0
C2354 C 0.76568 0.98954 0.52719 0.0
C2355 C 0.73686 0.97638 0.50497 0.0
N2356 N 0.83626 0.04232 0.52923 0.0
N2357 N 0.76967 1.00103 0.50665 0.0
H2358 H 0.14319 0.79935 0.6947 0.0
H2359 H 1.01001 0.6196 0.66121 0.0
H2360 H 0.08943 0.79846 0.66358 0.0
H2361 H 1.04112 0.62176 0.69693 0.0
H2362 H 1.04117 0.68244 0.66109 0.0
H2363 H 0.11079 0.73664 0.69487 0.0
C2364 C 0.12471 0.78651 0.6878 0.0
C2365 C 0.12018 0.80666 0.67914 0.0
C2366 C 1.04148 0.66956 0.66903 0.0
C2367 C 0.08119 0.73037 0.67917 0.0
C2368 C 1.0233 0.63273 0.66912 0.0
C2369 C 1.02169 0.61292 0.67911 0.0
C2370 C 0.06002 0.68924 0.67896 0.0
C2371 C 1.04047 0.63398 0.68888 0.0
C2372 C 0.10575 0.74973 0.68793 0.0
C2373 C 0.0949 0.78595 0.6706 0.0
N2374 N 0.05834 0.6696 0.68849 0.0
N2375 N 0.0773 0.75028 0.67082 0.0
H2376 H 0.29173 0.31912 0.66319 0.0
H2377 H 0.47269 0.44815 0.69745 0.0
H2378 H 0.29506 0.37267 0.69462 0.0
H2379 H 0.47151 0.41876 0.66157 0.0
H2380 H 0.40957 0.41751 0.69727 0.0
H2381 H 0.35505 0.34991 0.66304 0.0
C2382 C 0.30519 0.33707 0.67016 0.0
C2383 C 0.28575 0.34224 0.67894 0.0
C2384 C 0.42276 0.41749 0.68936 0.0
C2385 C 0.36218 0.37913 0.67891 0.0
C2386 C 0.45971 0.43539 0.68945 0.0
C2387 C 0.47978 0.43729 0.6795 0.0
C2388 C 0.40335 0.39961 0.67929 0.0
C2389 C 0.45897 0.41914 0.66959 0.0
C2390 C 0.34224 0.35512 0.67004 0.0
C2391 C 0.30712 0.3668 0.68754 0.0
N2392 N 0.42325 0.40156 0.6698 0.0
N2393 N 0.34275 0.38341 0.68733 0.0
H2394 H 0.72561 0.95404 0.6626 0.0
H2395 H 0.6716 0.08076 0.69707 0.0
H2396 H 0.77161 1.0047 0.69497 0.0
H2397 H 0.64499 0.05354 0.66094 0.0
H2398 H 0.70324 0.04961 0.69691 0.0
H2399 H 0.69284 0.98446 0.6622 0.0
C2400 C 0.72903 0.97112 0.66974 0.0
C2401 C 0.75253 0.97559 0.67889 0.0
C2402 C 0.69052 0.05011 0.68894 0.0
C2403 C 0.7129 1.0122 0.67851 0.0
C2404 C 0.67192 0.06831 0.68902 0.0
C2405 C 0.65443 0.07098 0.67901 0.0
C2406 C 0.69237 1.03273 0.67881 0.0
C2407 C 0.65731 0.05325 0.66903 0.0
C2408 C 0.70995 0.98903 0.66947 0.0
C2409 C 0.75451 0.99927 0.68763 0.0
N2410 N 0.67508 0.0354 0.66924 0.0
N2411 N 0.73553 1.01573 0.68724 0.0
H2412 H 0.32577 0.98728 0.18674 0.0
H2413 H 0.41289 0.92187 0.14089 0.0
H2414 H 0.2956 0.96725 0.15038 0.0
H2415 H 0.44084 0.94336 0.17746 0.0
H2416 H 0.36534 0.93168 0.14443 0.0
H2417 H 0.36581 0.96741 0.18351 0.0
C2418 C 0.32808 0.97921 0.17801 0.0
C2419 C 0.30771 0.97915 0.16879 0.0
C2420 C 0.38161 0.93364 0.15169 0.0
C2421 C 0.35294 0.9557 0.16503 0.0
C2422 C 0.40864 0.92789 0.1497 0.0
C2423 C 0.43137 0.9324 0.15883 0.0
C2424 C 0.37741 0.94392 0.16288 0.0
C2425 C 0.42416 0.93949 0.17011 0.0
C2426 C 0.35064 0.96749 0.17619 0.0
C2427 C 0.3113 0.96811 0.15768 0.0
N2428 N 0.39817 0.94554 0.17176 0.0
N2429 N 0.33351 0.95669 0.1561 0.0
H2430 H 0.14249 0.5131 0.17865 0.0
H2431 H 0.12089 0.34355 0.15021 0.0
H2432 H 0.16148 0.50605 0.14187 0.0
H2433 H 0.08697 0.35135 0.18482 0.0
H2434 H 0.14103 0.40394 0.14706 0.0
H2435 H 0.13211 0.4562 0.18155 0.0
C2436 C 0.14553 0.5001 0.1712 0.0
C2437 C 0.15232 0.51441 0.15992 0.0
C2438 C 0.12882 0.39228 0.15528 0.0
C2439 C 0.13865 0.4481 0.16315 0.0
C2440 C 0.11688 0.35779 0.15701 0.0
C2441 C 0.10215 0.34262 0.16778 0.0
C2442 C 0.12588 0.41141 0.16439 0.0
C2443 C 0.0981 0.36218 0.17639 0.0
C2444 C 0.13887 0.46715 0.17285 0.0
C2445 C 0.15542 0.49572 0.15066 0.0
N2446 N 0.1101 0.39562 0.17454 0.0
N2447 N 0.14795 0.46322 0.15243 0.0
H2448 H 0.59882 0.6799 0.13858 0.0
H2449 H 0.75429 0.76834 0.18351 0.0
H2450 H 0.59521 0.65207 0.175 0.0
H2451 H 0.75614 0.81239 0.14983 0.0
H2452 H 0.697 0.72224 0.17937 0.0
H2453 H 0.65661 0.7277 0.14177 0.0
C2454 C 0.60988 0.68417 0.14727 0.0
C2455 C 0.59214 0.66185 0.15652 0.0
C2456 C 0.70993 0.74177 0.17281 0.0
C2457 C 0.65809 0.71577 0.16014 0.0
C2458 C 0.74278 0.76781 0.17512 0.0
C2459 C 0.75978 0.794 0.167 0.0
C2460 C 0.69389 0.74196 0.1623 0.0
C2461 C 0.74383 0.79238 0.15627 0.0
C2462 C 0.64285 0.71131 0.14906 0.0
C2463 C 0.60758 0.66871 0.16763 0.0
N2464 N 0.71148 0.76684 0.15425 0.0
N2465 N 0.63973 0.69479 0.16907 0.0
H2466 H 0.35295 0.94437 0.02489 0.0
H2467 H 0.40185 0.12362 0.99054 0.0
H2468 H 0.3008 0.94624 0.99372 0.0
H2469 H 0.43172 0.12334 0.02628 0.0
H2470 H 0.36975 0.06074 0.99082 0.0
H2471 H 0.38492 1.00742 0.02492 0.0
C2472 C 0.3479 0.95745 0.01795 0.0
C2473 C 0.32291 0.93762 1.00929 0.0
C2474 C 0.38324 0.07407 0.99867 0.0
C2475 C 0.36186 1.01388 1.00917 0.0
C2476 C 0.40209 0.11091 0.99853 0.0
C2477 C 0.42061 0.13119 1.00841 0.0
C2478 C 0.38228 0.05495 1.00873 0.0
C2479 C 0.41851 0.11067 0.0183 0.0
C2480 C 0.3666 0.99436 0.01799 0.0
C2481 C 0.31904 0.95857 1.00072 0.0
N2482 N 0.40057 0.07506 0.01814 0.0
N2483 N 0.3378 0.99411 1.00086 0.0
H2484 H 0.14902 0.37093 0.99463 0.0
H2485 H 0.96918 0.32462 0.02811 0.0
H2486 H 0.14891 0.42371 0.02583 0.0
H2487 H 0.97126 0.29591 0.99236 0.0
H2488 H 1.03231 0.35621 0.02829 0.0
H2489 H 0.08608 0.34076 0.99448 0.0
C2490 C 0.13629 0.37655 1.00156 0.0
C2491 C 0.15669 0.40114 1.01023 0.0
C2492 C 1.01933 0.34308 0.02034 0.0
C2493 C 0.08022 0.36407 1.01022 0.0
C2494 C 0.98235 0.32449 0.02021 0.0
C2495 C 0.96249 0.30641 1.01019 0.0
C2496 C 1.039 0.34422 1.01042 0.0
C2497 C 0.98357 0.3087 1.00043 0.0
C2498 C 0.0994 0.35884 1.00143 0.0
C2499 C 0.13616 0.40577 0.0188 0.0
N2500 N 1.01929 0.32638 1.00086 0.0
N2501 N 0.10036 0.38779 0.01859 0.0
H2502 H 0.80019 0.6914 0.99162 0.0
H2503 H 0.67073 0.74224 0.02589 0.0
H2504 H 0.76975 0.66197 0.02735 0.0
H2505 H 0.72535 0.79359 0.99472 0.0
H2506 H 0.70133 0.7098 0.02596 0.0
H2507 H 0.76988 0.72394 0.99189 0.0
C2508 C 0.78727 0.69135 0.99961 0.0
C2509 C 0.78881 0.67281 1.00949 0.0
C2510 C 0.70684 0.72805 0.01903 0.0
C2511 C 0.75145 0.71169 1.00979 0.0
C2512 C 0.6889 0.74702 0.01896 0.0
C2513 C 0.69439 0.77195 1.01029 0.0
C2514 C 0.7311 0.73242 1.01022 0.0
C2515 C 0.7192 0.77544 1.00173 0.0
C2516 C 0.76955 0.71046 0.99975 0.0
C2517 C 0.77045 0.67517 0.01938 0.0
N2518 N 0.7357 0.75642 1.0019 0.0
N2519 N 0.75304 0.69337 0.01921 0.0
H2520 H 0.7889 0.09941 0.82772 0.0
H2521 H 0.68471 0.14335 0.87421 0.0
H2522 H 0.8117 0.1123 0.86474 0.0
H2523 H 0.65181 0.11095 0.83859 0.0
H2524 H 0.7363 0.14066 0.87027 0.0
H2525 H 0.74179 0.1098 0.83113 0.0
C2526 C 0.78357 0.10396 0.8366 0.0
C2527 C 0.80389 0.10487 0.84597 0.0
C2528 C 0.7179 0.13457 0.8633 0.0
C2529 C 0.75067 0.11737 0.84994 0.0
C2530 C 0.68855 0.13623 0.86552 0.0
C2531 C 0.66361 0.127 0.85677 0.0
C2532 C 0.72229 0.12365 0.85226 0.0
C2533 C 0.67028 0.11858 0.84561 0.0
C2534 C 0.75692 0.11015 0.83854 0.0
C2535 C 0.79628 0.11108 0.8573 0.0
N2536 N 0.69877 0.11675 0.84372 0.0
N2537 N 0.7703 0.1173 0.85898 0.0
H2538 H 0.97973 0.74143 0.8695 0.0
H2539 H 0.97409 0.57879 0.84139 0.0
H2540 H 1.0161 0.7383 0.83481 0.0
H2541 H 0.92531 0.57564 0.87433 0.0
H2542 H 0.98749 0.63665 0.83867 0.0
H2543 H 0.96183 0.6814 0.87203 0.0
C2544 C 0.98496 0.72836 0.86259 0.0
C2545 C 0.99945 0.74458 0.85194 0.0
C2546 C 0.97353 0.62328 0.84645 0.0
C2547 C 0.97835 0.67625 0.85462 0.0
C2548 C 0.96521 0.5898 0.84793 0.0
C2549 C 0.94886 0.57221 0.85822 0.0
C2550 C 0.96586 0.63959 0.85535 0.0
C2551 C 0.9387 0.58847 0.86641 0.0
C2552 C 0.97417 0.69402 0.86394 0.0
C2553 C 1.00509 0.72654 0.84316 0.0
N2554 N 0.94788 0.62152 0.86489 0.0
N2555 N 0.99432 0.69323 0.84466 0.0
H2556 H 0.35699 0.26041 0.87038 0.0
H2557 H 0.53372 0.40939 0.84612 0.0
H2558 H 0.37501 0.29895 0.83495 0.0
H2559 H 0.51624 0.38389 0.88296 0.0
H2560 H 0.47881 0.36077 0.84164 0.0
H2561 H 0.41669 0.30062 0.87513 0.0
C2562 C 0.37333 0.27789 0.86369 0.0
C2563 C 0.36119 0.27668 0.85228 0.0
C2564 C 0.48709 0.36551 0.85071 0.0
C2565 C 0.42927 0.32169 0.85753 0.0
C2566 C 0.51891 0.39303 0.85328 0.0
C2567 C 0.52946 0.40137 0.865 0.0
C2568 C 0.46544 0.34631 0.85989 0.0
C2569 C 0.50869 0.37903 0.87383 0.0
C2570 C 0.40744 0.30041 0.86636 0.0
C2571 C 0.38343 0.29929 0.84387 0.0
N2572 N 0.47726 0.35286 0.87112 0.0
N2573 N 0.41644 0.32078 0.84665 0.0
H2574 H 0.71262 0.94981 0.03165 0.0
H2575 H 0.76246 0.1291 0.99715 0.0
H2576 H 0.68406 0.95012 0.99575 0.0
H2577 H 0.81386 0.1272 0.02852 0.0
H2578 H 0.73052 0.06604 0.99711 0.0
H2579 H 0.74468 1.01269 0.03139 0.0
C2580 C 0.71267 0.96253 0.02363 0.0
C2581 C 0.69453 0.94225 0.0137 0.0
C2582 C 0.74867 0.07909 1.00408 0.0
C2583 C 0.7328 1.0185 0.0134 0.0
C2584 C 0.76734 0.11601 1.00413 0.0
C2585 C 0.79212 0.13583 0.01286 0.0
C2586 C 0.7532 0.05958 0.01296 0.0
C2587 C 0.79579 0.11487 0.02147 0.0
C2588 C 0.73149 0.99937 0.0235 0.0
C2589 C 0.69697 0.96279 1.00376 0.0
N2590 N 0.77704 0.07933 0.02132 0.0
N2591 N 0.71487 0.9984 1.00394 0.0
H2592 H 0.9648 0.64827 0.99671 0.0
H2593 H 0.14576 0.77922 0.03065 0.0
H2594 H 0.96789 0.7033 0.02771 0.0
H2595 H 0.14458 0.74819 0.99499 0.0
H2596 H 0.08264 0.74854 0.03047 0.0
H2597 H 1.02811 0.67922 0.99657 0.0
C2598 C 0.97821 0.66659 1.00359 0.0
C2599 C 0.95866 0.6721 0.01224 0.0
C2600 C 0.09582 0.74816 0.02261 0.0
C2601 C 1.03517 0.70921 0.01223 0.0
C2602 C 0.1328 0.76609 0.0227 0.0
C2603 C 0.15289 0.76757 0.01281 0.0
C2604 C 0.07638 0.72979 0.01261 0.0
C2605 C 0.13205 0.74894 1.00296 0.0
C2606 C 1.01526 0.68474 1.00348 0.0
C2607 C 0.98 0.69713 0.02073 0.0
N2608 N 0.09631 0.73133 1.00318 0.0
N2609 N 1.01566 0.71383 0.02053 0.0
H2610 H 0.31561 0.38228 0.0312 0.0
H2611 H 0.44362 0.33083 0.99625 0.0
H2612 H 0.3445 0.41092 0.99532 0.0
H2613 H 0.39005 0.27974 0.02759 0.0
H2614 H 0.41305 0.3633 0.99637 0.0
H2615 H 0.34587 0.34968 0.03077 0.0
C2616 C 0.32818 0.38214 0.02315 0.0
C2617 C 0.32623 0.40048 0.01328 0.0
C2618 C 0.40778 0.3451 1.0033 0.0
C2619 C 0.36352 0.36156 0.01277 0.0
C2620 C 0.4257 0.32612 1.00325 0.0
C2621 C 0.42048 0.30126 0.01192 0.0
C2622 C 0.38383 0.34081 0.01223 0.0
C2623 C 0.39597 0.29784 0.02058 0.0
C2624 C 0.34586 0.36301 0.02292 0.0
C2625 C 0.34415 0.39788 1.0033 0.0
N2626 N 0.37949 0.31688 0.02053 0.0
N2627 N 0.36154 0.37968 1.00337 0.0
H2628 H 0.06389 0.268 0.47303 0.0
H2629 H 0.9751 0.33586 0.51734 0.0
H2630 H 0.09698 0.30133 0.50858 0.0
H2631 H 0.9324 0.29371 0.48345 0.0
H2632 H 1.02204 0.32594 0.51343 0.0
H2633 H 1.01548 0.27684 0.47622 0.0
C2634 C 0.06069 0.27662 0.48154 0.0
C2635 C 0.08459 0.28399 0.49053 0.0
C2636 C 1.00265 0.31911 0.50676 0.0
C2637 C 1.0299 0.29462 0.49415 0.0
C2638 C 0.97612 0.32517 0.50895 0.0
C2639 C 0.95012 0.31567 0.50069 0.0
C2640 C 1.00307 0.30325 0.49625 0.0
C2641 C 0.95228 0.30167 0.48999 0.0
C2642 C 1.0332 0.28178 0.48333 0.0
C2643 C 0.07908 0.29483 0.50142 0.0
N2644 N 0.97826 0.29554 0.4881 0.0
N2645 N 1.05254 0.3001 0.50287 0.0
H2646 H 0.825 0.8453 0.5107 0.0
H2647 H 0.80199 0.67373 0.48377 0.0
H2648 H 0.85008 0.8375 0.47466 0.0
H2649 H 0.76656 0.6835 0.51787 0.0
H2650 H 0.82472 0.73448 0.48046 0.0
H2651 H 0.81366 0.78837 0.5142 0.0
C2652 C 0.82921 0.83216 0.50356 0.0
C2653 C 0.83777 0.8462 0.49224 0.0
C2654 C 0.81164 0.7232 0.48861 0.0
C2655 C 0.82292 0.7798 0.49614 0.0
C2656 C 0.7982 0.68851 0.49041 0.0
C2657 C 0.7823 0.67378 0.50109 0.0
C2658 C 0.80891 0.74296 0.49753 0.0
C2659 C 0.77856 0.694 0.50951 0.0
C2660 C 0.82198 0.79917 0.50554 0.0
C2661 C 0.84246 0.82735 0.48342 0.0
N2662 N 0.79194 0.72762 0.50757 0.0
N2663 N 0.83425 0.79475 0.48549 0.0
H2664 H 0.287 1.02686 0.47165 0.0
H2665 H 0.45814 0.11421 0.50965 0.0
H2666 H 0.30099 0.99171 0.50523 0.0
H2667 H 0.44285 0.16444 0.48021 0.0
H2668 H 0.40394 0.06344 0.50531 0.0
H2669 H 0.34613 0.07412 0.47266 0.0
C2670 C 0.30236 1.02931 0.47927 0.0
C2671 C 0.28895 1.00562 0.48844 0.0
C2672 C 0.41259 0.08533 0.49966 0.0
C2673 C 0.35636 0.05853 0.48947 0.0
C2674 C 0.4437 0.11407 0.50205 0.0
C2675 C 0.45461 0.14331 0.49531 0.0
C2676 C 0.39202 0.08618 0.49061 0.0
C2677 C 0.43511 0.14218 0.48559 0.0
C2678 C 0.33603 0.05605 0.4798 0.0
C2679 C 0.30991 1.00976 0.49808 0.0
N2680 N 0.40422 0.11417 0.48364 0.0
N2681 N 0.34252 0.03555 0.4983 0.0
H2682 H 0.06558 0.45602 0.32631 0.0
H2683 H 1.01594 0.27635 0.36053 0.0
H2684 H 0.09455 0.45544 0.36214 0.0
H2685 H 0.96427 0.27862 0.32929 0.0
H2686 H 1.04794 0.33942 0.36064 0.0
H2687 H 1.03349 0.39314 0.32651 0.0
C2688 C 0.06562 0.44325 0.33431 0.0
C2689 C 0.08389 0.46346 0.34423 0.0
C2690 C 1.02972 0.32645 0.35368 0.0
C2691 C 1.04557 0.38718 0.34447 0.0
C2692 C 1.01101 0.28952 0.35359 0.0
C2693 C 0.98613 0.26979 0.34488 0.0
C2694 C 1.02513 0.34608 0.34486 0.0
C2695 C 0.98241 0.29086 0.33632 0.0
C2696 C 1.04678 0.4064 0.33441 0.0
C2697 C 0.08155 0.44283 0.35413 0.0
N2698 N 1.00119 0.3264 0.33651 0.0
N2699 N 0.06363 0.40722 0.35393 0.0
H2700 H 0.8118 0.7026 0.32829 0.0
H2701 H 0.6319 0.65612 0.3617 0.0
H2702 H 0.81155 0.75535 0.35948 0.0
H2703 H 0.63406 0.62749 0.32594 0.0
H2704 H 0.69501 0.68776 0.36189 0.0
H2705 H 0.74887 0.67239 0.32811 0.0
C2706 C 0.79904 0.70821 0.3352 0.0
C2707 C 0.81939 0.73281 0.34388 0.0
C2708 C 0.68206 0.67465 0.35394 0.0
C2709 C 0.74294 0.69569 0.34384 0.0
C2710 C 0.64509 0.65603 0.3538 0.0
C2711 C 0.62527 0.63796 0.34377 0.0
C2712 C 0.70174 0.67582 0.34402 0.0
C2713 C 0.64635 0.64028 0.33402 0.0
C2714 C 0.76216 0.69047 0.33506 0.0
C2715 C 0.79883 0.7374 0.35244 0.0
N2716 N 0.68207 0.65799 0.33445 0.0
N2717 N 0.76304 0.7194 0.35222 0.0
H2718 H 0.33337 0.07368 0.35935 0.0
H2719 H 0.46328 1.02222 0.32577 0.0
H2720 H 0.38808 0.12424 0.3281 0.0
H2721 H 0.43263 0.9938 0.36155 0.0
H2722 H 0.4329 0.05469 0.32577 0.0
H2723 H 0.36409 0.04138 0.35968 0.0
C2724 C 0.35158 0.07831 0.35245 0.0
C2725 C 0.35705 0.10296 0.34367 0.0
C2726 C 0.43254 0.04145 0.33369 0.0
C2727 C 0.39392 0.0636 0.34392 0.0
C2728 C 0.4503 1.02239 0.33372 0.0
C2729 C 0.4518 1.00415 0.34369 0.0
C2730 C 0.41434 0.04293 0.34367 0.0
C2731 C 0.43336 1.00677 0.35351 0.0
C2732 C 0.3696 0.05942 0.35268 0.0
C2733 C 0.38194 0.10629 0.33518 0.0
N2734 N 0.4159 1.02491 0.35319 0.0
N2735 N 0.39852 0.08734 0.3355 0.0
H2736 H 0.263 0.45265 0.10014 0.0
H2737 H 0.19766 0.29823 0.14525 0.0
H2738 H 0.24865 0.35439 0.09107 0.0
H2739 H 0.2066 0.39461 0.1539 0.0
H2740 H 0.22297 0.32078 0.12613 0.0
H2741 H 0.24959 0.43436 0.12052 0.0
C2742 C 0.25764 0.42742 0.10246 0.0
C2743 C 0.25682 0.40497 0.09383 0.0
C2744 C 0.21967 0.33711 0.13223 0.0
C2745 C 0.24077 0.38364 0.11719 0.0
C2746 C 0.20521 0.32426 0.14318 0.0
C2747 C 0.19974 0.34446 0.15119 0.0
C2748 C 0.22865 0.37042 0.1292 0.0
C2749 C 0.21027 0.37806 0.14801 0.0
C2750 C 0.2497 0.41689 0.1141 0.0
C2751 C 0.24911 0.37239 0.09737 0.0
N2752 N 0.22396 0.38989 0.13723 0.0
N2753 N 0.24118 0.36264 0.10875 0.0
H2754 H 0.73947 0.89908 0.08979 0.0
H2755 H 0.69316 0.84278 0.15614 0.0
H2756 H 0.63557 0.84412 0.10215 0.0
H2757 H 0.79187 0.92389 0.14535 0.0
H2758 H 0.67117 0.84282 0.13652 0.0
H2759 H 0.75904 0.90918 0.1101 0.0
C2760 C 0.72067 0.88962 0.09674 0.0
C2761 C 0.68574 0.87033 0.09416 0.0
C2762 C 0.69752 0.8609 0.13851 0.0
C2763 C 0.70819 0.8811 0.11754 0.0
C2764 C 0.71011 0.86088 0.14971 0.0
C2765 C 0.74448 0.88325 0.1524 0.0
C2766 C 0.71957 0.88309 0.12989 0.0
C2767 C 0.76522 0.90612 0.14369 0.0
C2768 C 0.73193 0.89522 0.10837 0.0
C2769 C 0.66277 0.85836 0.10364 0.0
N2770 N 0.75256 0.90516 0.13281 0.0
N2771 N 0.6744 0.86353 0.11488 0.0
H2772 H 0.17578 0.89978 0.1426 0.0
H2773 H 0.24753 0.80791 0.10136 0.0
H2774 H 0.24823 0.87132 0.15457 0.0
H2775 H 0.20161 0.86464 0.08835 0.0
H2776 H 0.23877 0.82101 0.12142 0.0
H2777 H 0.17566 0.87663 0.12331 0.0
C2778 C 0.19144 0.88835 0.14124 0.0
C2779 C 0.21226 0.88775 0.15025 0.0
C2780 C 0.23038 0.8303 0.11416 0.0
C2781 C 0.21217 0.86115 0.12806 0.0
C2782 C 0.23546 0.82297 0.10268 0.0
C2783 C 0.22574 0.83555 0.09306 0.0
C2784 C 0.21512 0.85007 0.11608 0.0
C2785 C 0.20934 0.85411 0.09541 0.0
C2786 C 0.19139 0.87521 0.13018 0.0
C2787 C 0.23186 0.87246 0.1479 0.0
N2788 N 0.20476 0.86096 0.10665 0.0
N2789 N 0.23146 0.8599 0.13701 0.0
H2790 H 0.47126 0.27632 0.47637 0.0
H2791 H 0.31391 0.17887 0.43235 0.0
H2792 H 0.37884 0.18323 0.48452 0.0
H2793 H 0.41383 0.25621 0.42103 0.0
H2794 H 0.334 0.18861 0.45259 0.0
H2795 H 0.44741 0.27684 0.45712 0.0
C2796 C 0.44578 0.25626 0.47421 0.0
C2797 C 0.427 0.22963 0.4821 0.0
C2798 C 0.35147 0.20372 0.4457 0.0
C2799 C 0.39965 0.23015 0.46012 0.0
C2800 C 0.33992 0.19842 0.43413 0.0
C2801 C 0.36227 0.21661 0.42494 0.0
C2802 C 0.38566 0.22739 0.44815 0.0
C2803 C 0.39587 0.24124 0.42782 0.0
C2804 C 0.43225 0.25656 0.4632 0.0
C2805 C 0.39419 0.2043 0.47878 0.0
N2806 N 0.40663 0.24575 0.43917 0.0
N2807 N 0.38163 0.20513 0.46805 0.0
H2808 H 0.83709 0.17383 0.42293 0.0
H2809 H 0.90388 0.20378 0.4893 0.0
H2810 H 0.92018 0.16117 0.43494 0.0
H2811 H 0.82006 0.21578 0.47763 0.0
H2812 H 0.90648 0.1828 0.46985 0.0
H2813 H 0.82708 0.18437 0.44319 0.0
C2814 C 0.85312 0.17307 0.42982 0.0
C2815 C 0.87964 0.16674 0.42717 0.0
C2816 C 0.88729 0.1897 0.47156 0.0
C2817 C 0.86824 0.17874 0.45045 0.0
C2818 C 0.88571 0.20163 0.4827 0.0
C2819 C 0.86181 0.21178 0.48512 0.0
C2820 C 0.86494 0.18802 0.46271 0.0
C2821 C 0.83898 0.20836 0.47618 0.0
C2822 C 0.84729 0.17897 0.44141 0.0
C2823 C 0.89922 0.16558 0.43653 0.0
N2824 N 0.8413 0.19706 0.46536 0.0
N2825 N 0.8933 0.17179 0.4477 0.0
H2826 H 0.91433 0.68081 0.42272 0.0
H2827 H 0.88858 0.72477 0.48854 0.0
H2828 H 0.93304 0.77921 0.43387 0.0
H2829 H 0.86892 0.62589 0.47752 0.0
H2830 H 0.91114 0.74676 0.46907 0.0
H2831 H 0.90356 0.66183 0.44315 0.0
C2832 C 0.91643 0.69851 0.42946 0.0
C2833 C 0.92441 0.73161 0.42653 0.0
C2834 C 0.90224 0.72033 0.47094 0.0
C2835 C 0.9121 0.71004 0.44996 0.0
C2836 C 0.88942 0.70774 0.48209 0.0
C2837 C 0.8766 0.67332 0.48468 0.0
C2838 C 0.90218 0.69838 0.46226 0.0
C2839 C 0.87834 0.65254 0.47592 0.0
C2840 C 0.91038 0.68769 0.44114 0.0
C2841 C 0.92728 0.75357 0.43569 0.0
N2842 N 0.89059 0.66533 0.46509 0.0
N2843 N 0.92082 0.74231 0.44695 0.0
H2844 H 0.90494 0.78179 0.87852 0.0
H2845 H 0.84787 0.62566 0.92252 0.0
H2846 H 0.89445 0.68571 0.86839 0.0
H2847 H 0.86529 0.72388 0.93332 0.0
H2848 H 0.85832 0.64517 0.90221 0.0
H2849 H 0.88444 0.75908 0.89812 0.0
C2850 C 0.89805 0.75581 0.88037 0.0
C2851 C 0.90161 0.73571 0.87178 0.0
C2852 C 0.8596 0.6624 0.909 0.0
C2853 C 0.87821 0.70958 0.89428 0.0
C2854 C 0.85333 0.65117 0.92062 0.0
C2855 C 0.85578 0.67318 0.92969 0.0
C2856 C 0.86844 0.69593 0.90639 0.0
C2857 C 0.86358 0.70617 0.92665 0.0
C2858 C 0.88638 0.74288 0.89159 0.0
C2859 C 0.8922 0.7022 0.87471 0.0
N2860 N 0.86979 0.71658 0.91528 0.0
N2861 N 0.88114 0.69028 0.88572 0.0
H2862 H 0.31425 0.14975 0.87703 0.0
H2863 H 0.47563 0.22557 0.91987 0.0
H2864 H 0.41599 0.22308 0.86586 0.0
H2865 H 0.37183 0.18 0.93212 0.0
H2866 H 0.45483 0.21596 0.89966 0.0
H2867 H 0.33592 0.15157 0.89679 0.0
C2868 C 0.34124 0.16594 0.87867 0.0
C2869 C 0.36329 0.18639 0.86973 0.0
C2870 C 0.43664 0.20788 0.90679 0.0
C2871 C 0.38824 0.18855 0.89243 0.0
C2872 C 0.44847 0.21346 0.91836 0.0
C2873 C 0.42556 0.20405 0.92782 0.0
C2874 C 0.40158 0.19237 0.90459 0.0
C2875 C 0.39057 0.18753 0.92521 0.0
C2876 C 0.35354 0.16705 0.88999 0.0
C2877 C 0.398 0.20691 0.87245 0.0
N2878 N 0.37971 0.1824 0.91386 0.0
N2879 N 0.40938 0.20753 0.88356 0.0
H2880 H 0.8437 0.18099 0.86932 0.0
H2881 H 0.9359 0.2367 0.93173 0.0
H2882 H 0.9464 0.20231 0.87519 0.0
H2883 H 0.84201 0.23449 0.92356 0.0
H2884 H 0.94044 0.22393 0.91114 0.0
H2885 H 0.8425 0.20014 0.88927 0.0
C2886 C 0.86614 0.19012 0.87477 0.0
C2887 C 0.89537 0.19064 0.87055 0.0
C2888 C 0.91902 0.22656 0.91384 0.0
C2889 C 0.89398 0.21175 0.8935 0.0
C2890 C 0.91638 0.23375 0.9256 0.0
C2891 C 0.88856 0.23669 0.92938 0.0
C2892 C 0.89342 0.22184 0.90585 0.0
C2893 C 0.86412 0.23287 0.92102 0.0
C2894 C 0.86542 0.2009 0.88618 0.0
C2895 C 0.92341 0.2017 0.8781 0.0
N2896 N 0.86699 0.22539 0.90969 0.0
N2897 N 0.92201 0.21177 0.88922 0.0
H2898 H 0.67352 0.82678 0.54391 0.0
H2899 H 0.833 0.92566 0.58697 0.0
H2900 H 0.76994 0.91082 0.53272 0.0
H2901 H 0.73126 0.85317 0.5984 0.0
H2902 H 0.81312 0.91499 0.56661 0.0
H2903 H 0.69727 0.83046 0.56337 0.0
C2904 C 0.69981 0.84589 0.5455 0.0
C2905 C 0.71968 0.86871 0.53666 0.0
C2906 C 0.79526 0.90121 0.57359 0.0
C2907 C 0.74707 0.87312 0.55905 0.0
C2908 C 0.80655 0.90735 0.58522 0.0
C2909 C 0.78374 0.89054 0.59448 0.0
C2910 C 0.76093 0.878 0.57116 0.0
C2911 C 0.74993 0.86655 0.59162 0.0
C2912 C 0.71336 0.84798 0.55665 0.0
C2913 C 0.75367 0.89274 0.53927 0.0
N2914 N 0.73955 0.86122 0.58024 0.0
N2915 N 0.76624 0.89448 0.55026 0.0
H2916 H 0.20218 0.88405 0.53312 0.0
H2917 H 0.24875 0.88929 0.6007 0.0
H2918 H 0.2704 0.85187 0.54653 0.0
H2919 H 0.19678 0.93949 0.58705 0.0
H2920 H 0.26013 0.87905 0.58069 0.0
H2921 H 0.20237 0.90766 0.55247 0.0
C2922 C 0.21757 0.88236 0.54006 0.0
C2923 C 0.23606 0.86566 0.53821 0.0
C2924 C 0.24654 0.89264 0.58206 0.0
C2925 C 0.23612 0.89231 0.56038 0.0
C2926 C 0.24026 0.89878 0.59353 0.0
C2927 C 0.22142 0.915 0.59564 0.0
C2928 C 0.23362 0.90243 0.57257 0.0
C2929 C 0.21069 0.92616 0.58589 0.0
C2930 C 0.21762 0.8958 0.55112 0.0
C2931 C 0.25546 0.86418 0.54755 0.0
N2932 N 0.21656 0.91929 0.57479 0.0
N2933 N 0.25471 0.87699 0.55823 0.0
H2934 H 0.27576 0.44054 0.54614 0.0
H2935 H 0.14202 0.29449 0.5885 0.0
H2936 H 0.20346 0.33972 0.53403 0.0
H2937 H 0.22565 0.39009 0.60046 0.0
H2938 H 0.1576 0.31356 0.56821 0.0
H2939 H 0.25076 0.42535 0.56565 0.0
C2940 C 0.25443 0.41524 0.54754 0.0
C2941 C 0.24204 0.39123 0.53842 0.0
C2942 C 0.17225 0.33047 0.57529 0.0
C2943 C 0.21326 0.37362 0.56089 0.0
C2944 C 0.16346 0.31958 0.5869 0.0
C2945 C 0.18274 0.34052 0.59628 0.0
C2946 C 0.20049 0.36258 0.57302 0.0
C2947 C 0.20978 0.37307 0.5936 0.0
C2948 C 0.24016 0.40658 0.55872 0.0
C2949 C 0.21404 0.35899 0.5408 0.0
N2950 N 0.21798 0.38292 0.58225 0.0
N2951 N 0.20079 0.35102 0.55183 0.0
H2952 H 0.05757 0.50724 0.75549 0.0
H2953 H 1.01759 0.51316 0.82366 0.0
H2954 H 0.98192 0.53098 0.76771 0.0
H2955 H 0.0917 0.48851 0.81043 0.0
H2956 H 1.00446 0.52087 0.80342 0.0
H2957 H 0.07178 0.50293 0.77575 0.0
C2958 C 1.04428 0.51213 0.76242 0.0
C2959 C 1.01852 0.5196 0.75983 0.0
C2960 C 1.02355 0.51373 0.80498 0.0
C2961 C 1.03417 0.51376 0.78321 0.0
C2962 C 1.03099 0.5092 0.81653 0.0
C2963 C 0.05581 0.50014 0.81879 0.0
C2964 C 1.04107 0.5092 0.79563 0.0
C2965 C 0.07238 0.49548 0.80917 0.0
C2966 C 1.05218 0.50927 0.77403 0.0
C2967 C 1.00171 0.52482 0.76927 0.0
N2968 N 0.06474 0.5001 0.79806 0.0
N2969 N 1.00974 0.52169 0.78053 0.0
H2970 H 0.50897 0.50471 0.75743 0.0
H2971 H 0.59127 0.53965 0.82173 0.0
H2972 H 0.59797 0.49795 0.76598 0.0
H2973 H 0.50348 0.54801 0.81261 0.0
H2974 H 0.59103 0.51889 0.80187 0.0
H2975 H 0.50341 0.51521 0.77811 0.0
C2976 C 0.52722 0.50522 0.76367 0.0
C2977 C 0.55408 0.50063 0.75993 0.0
C2978 C 0.57167 0.52502 0.80426 0.0
C2979 C 0.54793 0.5127 0.78367 0.0
C2980 C 0.57174 0.53679 0.81561 0.0
C2981 C 0.5475 0.54582 0.81882 0.0
C2982 C 0.54717 0.52225 0.79609 0.0
C2983 C 0.52286 0.54167 0.81051 0.0
C2984 C 0.524 0.51113 0.77549 0.0
C2985 C 0.57668 0.50105 0.76845 0.0
N2986 N 0.52346 0.53039 0.79953 0.0
N2987 N 0.57328 0.5073 0.7799 0.0
H2988 H 0.5831 1.02142 0.75465 0.0
H2989 H 0.54532 0.05839 0.81996 0.0
H2990 H 0.59231 0.1163 0.76563 0.0
H2991 H 0.53349 0.96256 0.80874 0.0
H2992 H 0.56927 0.0823 0.80076 0.0
H2993 H 0.57128 1.00165 0.77497 0.0
C2994 C 0.58288 0.0382 0.76134 0.0
C2995 C 0.58849 0.07051 0.75838 0.0
C2996 C 0.56176 0.05614 0.80254 0.0
C2997 C 0.57498 0.04802 0.78171 0.0
C2998 C 0.54817 0.04247 0.81353 0.0
C2999 C 0.53711 1.00829 0.81596 0.0
C3000 C 0.56426 0.0355 0.79389 0.0
C3001 C 0.54143 0.98895 0.80725 0.0
C3002 C 0.57623 1.02693 0.77295 0.0
C3003 C 0.58843 0.09132 0.76748 0.0
N3004 N 0.55438 1.00274 0.79659 0.0
N3005 N 0.58146 0.07961 0.77869 0.0
H3006 H 0.57121 0.09379 0.21062 0.0
H3007 H 0.51314 0.94423 0.25729 0.0
H3008 H 0.56391 0.99788 0.20248 0.0
H3009 H 0.52276 0.04136 0.265 0.0
H3010 H 0.52467 0.96036 0.23664 0.0
H3011 H 0.54681 0.07206 0.22986 0.0
C3012 C 0.56422 0.068 0.21285 0.0
C3013 C 0.56994 0.04773 0.20496 0.0
C3014 C 0.5239 0.978 0.24282 0.0
C3015 C 0.54209 1.02268 0.22712 0.0
C3016 C 0.51706 0.96873 0.25462 0.0
C3017 C 0.51717 0.99157 0.26294 0.0
C3018 C 0.53097 1.01039 0.23929 0.0
C3019 C 0.52295 1.02314 0.25895 0.0
C3020 C 0.55024 0.05559 0.22386 0.0
C3021 C 0.55998 1.01439 0.20829 0.0
N3022 N 0.52983 1.03168 0.24744 0.0
N3023 N 0.54687 1.00301 0.21919 0.0
H3024 H 0.1452 0.5631 0.25576 0.0
H3025 H 0.98481 0.48838 0.21264 0.0
H3026 H 1.04073 0.51272 0.26757 0.0
H3027 H 0.08552 0.56626 0.20215 0.0
H3028 H 1.00674 0.48785 0.2321 0.0
H3029 H 0.12513 0.55531 0.23546 0.0
C3030 C 0.11805 0.55024 0.25413 0.0
C3031 C 0.09468 0.539 0.26348 0.0
C3032 C 1.0241 0.50488 0.22552 0.0
C3033 C 0.07163 0.52948 0.2402 0.0
C3034 C 1.01165 0.50518 0.21436 0.0
C3035 C 1.03331 0.5276 0.20573 0.0
C3036 C 0.05854 0.52701 0.22809 0.0
C3037 C 0.06786 0.54864 0.20853 0.0
C3038 C 0.10667 0.54573 0.24252 0.0
C3039 C 0.05979 0.52165 0.26073 0.0
N3040 N 0.0794 0.54793 0.2195 0.0
N3041 N 1.04938 0.51763 0.24936 0.0
H3042 H 0.59279 0.51349 0.21027 0.0
H3043 H 0.50232 0.57401 0.25658 0.0
H3044 H 0.50678 0.52521 0.20153 0.0
H3045 H 0.59067 0.56533 0.26434 0.0
H3046 H 0.5067 0.56181 0.23597 0.0
H3047 H 0.59533 0.5376 0.22956 0.0
C3048 C 0.57453 0.52137 0.21238 0.0
C3049 C 0.54934 0.51705 0.20429 0.0
C3050 C 0.52533 0.56292 0.24216 0.0
C3051 C 0.55197 0.54458 0.22651 0.0
C3052 C 0.52303 0.57014 0.25393 0.0
C3053 C 0.54607 0.57052 0.26226 0.0
C3054 C 0.55081 0.55591 0.23866 0.0
C3055 C 0.572 0.56476 0.2583 0.0
C3056 C 0.57604 0.53521 0.22342 0.0
C3057 C 0.52663 0.52809 0.20749 0.0
N3058 N 0.5735 0.55747 0.24682 0.0
N3059 N 0.52825 0.54102 0.21841 0.0
H3060 H 0.9963 0.15684 0.264 0.0
H3061 H 0.07738 0.31039 0.21828 0.0
H3062 H 1.00985 0.25594 0.27099 0.0
H3063 H 0.06806 0.21283 0.21157 0.0
H3064 H 1.04869 0.28929 0.23701 0.0
H3065 H 1.01935 0.17564 0.24433 0.0
C3066 C 1.0043 0.18263 0.26142 0.0
C3067 C 1.0014 0.20496 0.2692 0.0
C3068 C 1.05274 0.27241 0.23143 0.0
C3069 C 1.02738 0.22648 0.24662 0.0
C3070 C 0.06908 0.28442 0.2207 0.0
C3071 C 0.07538 0.26342 0.21337 0.0
C3072 C 1.04263 0.23915 0.2349 0.0
C3073 C 0.06389 0.22996 0.21697 0.0
C3074 C 1.01723 0.19326 0.25015 0.0
C3075 C 1.01142 0.23782 0.26527 0.0
N3076 N 1.04824 0.21891 0.22752 0.0
N3077 N 1.02409 0.24762 0.25427 0.0
H3078 H 0.92256 0.87529 0.26869 0.0
H3079 H 0.79316 0.79162 0.21508 0.0
H3080 H 0.84733 0.76889 0.26659 0.0
H3081 H 0.87541 0.89556 0.2151 0.0
H3082 H 0.81346 0.78277 0.23379 0.0
H3083 H 0.90583 0.88344 0.2491 0.0
C3084 C 0.90236 0.85368 0.26413 0.0
C3085 C 0.88618 0.82137 0.2693 0.0
C3086 C 0.82727 0.80746 0.22968 0.0
C3087 C 0.8672 0.83045 0.24684 0.0
C3088 C 0.8157 0.81254 0.21897 0.0
C3089 C 0.83257 0.84443 0.21352 0.0
C3090 C 0.85578 0.83452 0.23506 0.0
C3091 C 0.86171 0.87053 0.21896 0.0
C3092 C 0.89304 0.8583 0.25291 0.0
C3093 C 0.86063 0.79417 0.26291 0.0
N3094 N 0.87224 0.86508 0.2295 0.0
N3095 N 0.85185 0.79935 0.25204 0.0
H3096 H 0.23475 0.09931 0.26226 0.0
H3097 H 0.29422 1.00134 0.21876 0.0
H3098 H 0.30849 0.06984 0.2714 0.0
H3099 H 0.21221 1.02022 0.21078 0.0
H3100 H 0.30224 1.02981 0.23754 0.0
H3101 H 0.22828 0.07345 0.24294 0.0
C3102 C 0.2497 0.08751 0.26018 0.0
C3103 C 0.2723 0.08682 0.26844 0.0
C3104 C 0.28255 1.02785 0.23168 0.0
C3105 C 0.26487 0.05703 0.24637 0.0
C3106 C 0.27799 1.01167 0.22091 0.0
C3107 C 0.2524 1.00828 0.21316 0.0
C3108 C 0.26142 0.04085 0.23477 0.0
C3109 C 0.23224 1.02224 0.21646 0.0
C3110 C 0.24586 0.07263 0.24917 0.0
C3111 C 0.29058 0.0707 0.26534 0.0
N3112 N 0.23712 0.03785 0.22704 0.0
N3113 N 0.28653 0.05653 0.25454 0.0
H3114 H 1.00349 0.76656 0.80101 0.0
H3115 H 0.1106 0.92521 0.7589 0.0
H3116 H 1.02317 0.86738 0.80915 0.0
H3117 H 0.07833 0.82167 0.74952 0.0
H3118 H 0.08098 0.90545 0.77767 0.0
H3119 H 1.03326 0.78734 0.7825 0.0
C3120 C 1.01418 0.79317 0.79892 0.0
C3121 C 1.01081 0.81529 0.80665 0.0
C3122 C 0.08034 0.88707 0.77149 0.0
C3123 C 1.04499 0.83927 0.78535 0.0
C3124 C 0.09737 0.89832 0.76082 0.0
C3125 C 0.09701 0.87501 0.75267 0.0
C3126 C 0.06296 0.85228 0.77406 0.0
C3127 C 0.07903 0.84045 0.75551 0.0
C3128 C 1.03111 0.80499 0.78831 0.0
C3129 C 1.02512 0.84945 0.80343 0.0
N3130 N 0.06284 0.83016 0.76599 0.0
N3131 N 1.04167 0.86045 0.793 0.0
H3132 H 0.17385 0.21102 0.7582 0.0
H3133 H 0.33403 0.26912 0.80072 0.0
H3134 H 0.27557 0.29045 0.74962 0.0
H3135 H 0.23434 0.1834 0.80775 0.0
H3136 H 0.31257 0.27868 0.78235 0.0
H3137 H 0.19514 0.20176 0.77668 0.0
C3138 C 0.20068 0.22662 0.76023 0.0
C3139 C 0.22295 0.2517 0.75238 0.0
C3140 C 0.29536 0.25782 0.78792 0.0
C3141 C 0.24755 0.24106 0.77352 0.0
C3142 C 0.30756 0.25238 0.79844 0.0
C3143 C 0.28593 0.22544 0.80583 0.0
C3144 C 0.26124 0.23622 0.78472 0.0
C3145 C 0.25191 0.20456 0.80237 0.0
C3146 C 0.21284 0.22119 0.77076 0.0
C3147 C 0.25756 0.2707 0.75537 0.0
N3148 N 0.24063 0.2104 0.79207 0.0
N3149 N 0.26877 0.26508 0.76573 0.0
H3150 H 0.84611 0.11943 0.79398 0.0
H3151 H 0.8677 0.9789 0.75931 0.0
H3152 H 0.90566 0.0764 0.80691 0.0
H3153 H 0.81419 1.0272 0.74544 0.0
H3154 H 0.88244 1.01482 0.77673 0.0
H3155 H 0.83537 0.08684 0.77595 0.0
C3156 C 0.85706 0.10323 0.79303 0.0
C3157 C 0.87655 0.10042 0.80206 0.0
C3158 C 0.86756 1.01765 0.76987 0.0
C3159 C 0.86417 0.06285 0.7814 0.0
C3160 C 0.85894 0.99699 0.75996 0.0
C3161 C 0.83952 0.99994 0.75094 0.0
C3162 C 0.85658 0.04137 0.7708 0.0
C3163 C 0.82941 1.02425 0.75214 0.0
C3164 C 0.85088 0.08459 0.78272 0.0
C3165 C 0.89017 0.07911 0.80027 0.0
N3166 N 0.83793 0.04392 0.76191 0.0
N3167 N 0.88356 0.061 0.79017 0.0
H3168 H 0.65443 0.4878 0.59525 0.0
H3169 H 0.75887 0.64462 0.55208 0.0
H3170 H 0.68652 0.59155 0.60424 0.0
H3171 H 0.74021 0.54368 0.54483 0.0
H3172 H 0.72841 0.62445 0.57055 0.0
H3173 H 0.68213 0.50682 0.57617 0.0
C3174 C 0.66719 0.51459 0.59317 0.0
C3175 C 0.66811 0.53817 0.60132 0.0
C3176 C 0.73088 0.60666 0.56492 0.0
C3177 C 0.69998 0.56008 0.57954 0.0
C3178 C 0.74818 0.61812 0.55433 0.0
C3179 C 0.75221 0.59581 0.5469 0.0
C3180 C 0.71736 0.5726 0.56813 0.0
C3181 C 0.73776 0.56176 0.5503 0.0
C3182 C 0.68312 0.52543 0.58231 0.0
C3183 C 0.68545 0.57259 0.59826 0.0
N3184 N 0.72101 0.55119 0.5607 0.0
N3185 N 0.70062 0.5825 0.5876 0.0
H3186 H 0.6063 0.21922 0.59851 0.0
H3187 H 0.46984 0.13848 0.54669 0.0
H3188 H 0.51474 0.12133 0.60041 0.0
H3189 H 0.55532 0.24075 0.54565 0.0
H3190 H 0.48827 0.1309 0.5659 0.0
H3191 H 0.58983 0.22697 0.57883 0.0
C3192 C 0.58272 0.19935 0.59478 0.0
C3193 C 0.56188 0.16951 0.6011 0.0
C3194 C 0.50313 0.15498 0.56147 0.0
C3195 C 0.5429 0.17826 0.5786 0.0
C3196 C 0.4927 0.15933 0.55045 0.0
C3197 C 0.51103 0.19039 0.54453 0.0
C3198 C 0.53216 0.18183 0.56666 0.0
C3199 C 0.54048 0.21636 0.54986 0.0
C3200 C 0.57331 0.20385 0.58357 0.0
C3201 C 0.5314 0.14484 0.59591 0.0
N3202 N 0.55008 0.21155 0.56067 0.0
N3203 N 0.52291 0.14972 0.58495 0.0
H3204 H 0.88337 0.4259 0.59705 0.0
H3205 H 0.94645 0.33801 0.55066 0.0
H3206 H 0.96477 0.40511 0.6035 0.0
H3207 H 0.85225 0.33869 0.54646 0.0
H3208 H 0.95568 0.36706 0.56931 0.0
H3209 H 0.87332 0.39774 0.57796 0.0
C3210 C 0.89914 0.41542 0.59443 0.0
C3211 C 0.92505 0.41793 0.60185 0.0
C3212 C 0.933 0.36096 0.56433 0.0
C3213 C 0.91367 0.38577 0.58005 0.0
C3214 C 0.92772 0.34446 0.55361 0.0
C3215 C 0.89843 0.33579 0.54695 0.0
C3216 C 0.90893 0.3691 0.56848 0.0
C3217 C 0.8752 0.34493 0.55128 0.0
C3218 C 0.89328 0.39925 0.58357 0.0
C3219 C 0.94438 0.40351 0.5981 0.0
N3220 N 0.88093 0.36109 0.56181 0.0
N3221 N 0.93841 0.38822 0.58745 0.0
H3222 H 0.77822 0.24444 0.09358 0.0
H3223 H 0.68413 0.08361 0.13593 0.0
H3224 H 0.75712 0.14392 0.08426 0.0
H3225 H 0.70164 0.1831 0.14499 0.0
H3226 H 0.71365 0.10616 0.11742 0.0
H3227 H 0.75253 0.22315 0.11279 0.0
C3228 C 0.76801 0.21783 0.09555 0.0
C3229 C 0.76961 0.19586 0.08727 0.0
C3230 C 0.71121 0.12313 0.12347 0.0
C3231 C 0.74059 0.17144 0.10931 0.0
C3232 C 0.69436 0.11029 0.13407 0.0
C3233 C 0.69032 0.1315 0.14204 0.0
C3234 C 0.72409 0.15746 0.12077 0.0
C3235 C 0.70423 0.16585 0.13914 0.0
C3236 C 0.75356 0.20576 0.10655 0.0
C3237 C 0.75666 0.16181 0.0904 0.0
N3238 N 0.72038 0.17774 0.12871 0.0
N3239 N 0.7426 0.15063 0.10116 0.0
H3240 H 0.90071 0.52145 0.14439 0.0
H3241 H 0.9468 0.63183 0.08551 0.0
H3242 H 0.9992 0.60894 0.13733 0.0
H3243 H 0.84908 0.54267 0.09182 0.0
H3244 H 0.96541 0.62544 0.10497 0.0
H3245 H 0.88012 0.5305 0.12566 0.0
C3246 C 0.91793 0.54268 0.13895 0.0
C3247 C 0.95178 0.56437 0.14241 0.0
C3248 C 0.93987 0.60727 0.10211 0.0
C3249 C 0.92846 0.57475 0.12097 0.0
C3250 C 0.92921 0.611 0.09101 0.0
C3251 C 0.89641 0.58766 0.087 0.0
C3252 C 0.91756 0.58004 0.10928 0.0
C3253 C 0.87479 0.56094 0.09447 0.0
C3254 C 0.90619 0.54778 0.12825 0.0
C3255 C 0.97295 0.59147 0.13501 0.0
N3256 N 0.88575 0.55784 0.10524 0.0
N3257 N 0.96098 0.59579 0.12463 0.0
H3258 H 0.47682 0.41287 0.13334 0.0
H3259 H 0.53122 0.30271 0.09391 0.0
H3260 H 0.54805 0.38217 0.14473 0.0
H3261 H 0.46456 0.33838 0.08189 0.0
H3262 H 0.53591 0.32967 0.11286 0.0
H3263 H 0.4701 0.38356 0.11479 0.0
C3264 C 0.49094 0.39981 0.13198 0.0
C3265 C 0.51306 0.4 0.14063 0.0
C3266 C 0.52023 0.33159 0.10609 0.0
C3267 C 0.50555 0.36647 0.11932 0.0
C3268 C 0.51739 0.31606 0.09528 0.0
C3269 C 0.49734 0.31818 0.08631 0.0
C3270 C 0.50286 0.34939 0.10798 0.0
C3271 C 0.48052 0.33635 0.08852 0.0
C3272 C 0.48712 0.38312 0.12135 0.0
C3273 C 0.53065 0.38262 0.13834 0.0
N3274 N 0.48361 0.3512 0.09914 0.0
N3275 N 0.52657 0.36661 0.12789 0.0
H3276 H 0.40243 0.96359 0.88004 0.0
H3277 H 0.34382 0.82372 0.93051 0.0
H3278 H 0.40861 0.87254 0.87655 0.0
H3279 H 0.33261 0.91213 0.93253 0.0
H3280 H 0.36593 0.8399 0.91055 0.0
H3281 H 0.37416 0.94334 0.89887 0.0
C3282 C 0.39757 0.93914 0.88319 0.0
C3283 C 0.40813 0.91982 0.87674 0.0
C3284 C 0.35852 0.85569 0.91535 0.0
C3285 C 0.37595 0.89658 0.89844 0.0
C3286 C 0.34617 0.84663 0.92677 0.0
C3287 C 0.33655 0.86674 0.93323 0.0
C3288 C 0.36143 0.88515 0.91034 0.0
C3289 C 0.33949 0.89576 0.92786 0.0
C3290 C 0.38142 0.9276 0.89397 0.0
C3291 C 0.40091 0.88825 0.88124 0.0
N3292 N 0.3518 0.90416 0.91676 0.0
N3293 N 0.38553 0.87774 0.89188 0.0
H3294 H 0.16007 0.48132 0.94873 0.0
H3295 H 0.1898 0.5376 0.88136 0.0
H3296 H 0.25571 0.51951 0.93045 0.0
H3297 H 0.09047 0.48674 0.89763 0.0
H3298 H 0.21533 0.53809 0.90018 0.0
H3299 H 0.13489 0.48902 0.93083 0.0
C3300 C 0.17576 0.49133 0.94097 0.0
C3301 C 0.21003 0.49973 0.94108 0.0
C3302 C 0.18796 0.52698 0.89966 0.0
C3303 C 0.18158 0.50894 0.92068 0.0
C3304 C 0.17334 0.52673 0.88891 0.0
C3305 C 0.1379 0.51175 0.88789 0.0
C3306 C 0.16701 0.51206 0.90948 0.0
C3307 C 0.11791 0.49836 0.89801 0.0
C3308 C 0.16144 0.4959 0.93079 0.0
C3309 C 0.22933 0.51311 0.93084 0.0
N3310 N 0.13274 0.49858 0.90838 0.0
N3311 N 0.2148 0.51718 0.92105 0.0
H3312 H 0.6066 0.63522 0.89209 0.0
H3313 H 0.57094 0.76223 0.92966 0.0
H3314 H 0.54143 0.67282 0.88009 0.0
H3315 H 0.63139 0.71957 0.94191 0.0
H3316 H 0.56024 0.73045 0.91136 0.0
H3317 H 0.61622 0.66662 0.91028 0.0
C3318 C 0.59429 0.65012 0.89326 0.0
C3319 C 0.57316 0.6514 0.88453 0.0
C3320 C 0.57581 0.72801 0.91806 0.0
C3321 C 0.58413 0.68751 0.90544 0.0
C3322 C 0.5821 0.74629 0.92847 0.0
C3323 C 0.60223 0.74364 0.9373 0.0
C3324 C 0.58981 0.70699 0.91644 0.0
C3325 C 0.61551 0.72214 0.93539 0.0
C3326 C 0.59978 0.66803 0.90369 0.0
C3327 C 0.55786 0.67107 0.8866 0.0
N3328 N 0.60914 0.70473 0.92515 0.0
N3329 N 0.5637 0.68843 0.89685 0.0
H3330 H 0.32349 0.39705 0.46464 0.0
H3331 H 0.48041 0.54517 0.42971 0.0
H3332 H 0.40022 0.49121 0.48011 0.0
H3333 H 0.39809 0.45814 0.41254 0.0
H3334 H 0.45485 0.52139 0.44862 0.0
H3335 H 0.35378 0.41494 0.44587 0.0
C3336 C 0.34684 0.4213 0.46413 0.0
C3337 C 0.35919 0.44281 0.47393 0.0
C3338 C 0.44242 0.50731 0.44074 0.0
C3339 C 0.39381 0.46333 0.45255 0.0
C3340 C 0.45719 0.52076 0.42992 0.0
C3341 C 0.44138 0.50363 0.4195 0.0
C3342 C 0.41147 0.4765 0.44121 0.0
C3343 C 0.41092 0.4724 0.42034 0.0
C3344 C 0.36403 0.43152 0.45341 0.0
C3345 C 0.38954 0.47393 0.47277 0.0
N3346 N 0.39684 0.45987 0.43102 0.0
N3347 N 0.4057 0.48328 0.46228 0.0
H3348 H 0.51201 0.87807 0.42739 0.0
H3349 H 0.67966 0.92418 0.46424 0.0
H3350 H 0.61433 0.94382 0.4149 0.0
H3351 H 0.57816 0.85377 0.4765 0.0
H3352 H 0.65567 0.93175 0.44621 0.0
H3353 H 0.53526 0.86902 0.44549 0.0
C3354 C 0.53938 0.89071 0.42848 0.0
C3355 C 0.56128 0.91187 0.41963 0.0
C3356 C 0.63857 0.91462 0.45283 0.0
C3357 C 0.58803 0.90138 0.44029 0.0
C3358 C 0.65226 0.9103 0.46316 0.0
C3359 C 0.63089 0.88833 0.47194 0.0
C3360 C 0.60317 0.89694 0.45119 0.0
C3361 C 0.5956 0.87099 0.46999 0.0
C3362 C 0.55262 0.88537 0.43878 0.0
C3363 C 0.5965 0.92709 0.42143 0.0
N3364 N 0.58281 0.87571 0.45982 0.0
N3365 N 0.60876 0.92163 0.43156 0.0
H3366 H 0.15937 0.75594 0.46895 0.0
H3367 H 0.20086 0.63591 0.42959 0.0
H3368 H 0.22844 0.72208 0.47997 0.0
H3369 H 0.13901 0.67769 0.41804 0.0
H3370 H 0.20918 0.66468 0.44845 0.0
H3371 H 0.14938 0.72461 0.45074 0.0
C3372 C 0.17238 0.74178 0.46758 0.0
C3373 C 0.1949 0.74176 0.47603 0.0
C3374 C 0.19378 0.66753 0.44179 0.0
C3375 C 0.18357 0.70577 0.45502 0.0
C3376 C 0.18886 0.65098 0.43104 0.0
C3377 C 0.16912 0.65433 0.42222 0.0
C3378 C 0.17876 0.68751 0.44377 0.0
C3379 C 0.15468 0.67465 0.42453 0.0
C3380 C 0.16667 0.72391 0.45713 0.0
C3381 C 0.21088 0.72283 0.47371 0.0
N3382 N 0.15973 0.69039 0.43508 0.0
N3383 N 0.20497 0.70564 0.4634 0.0
loop_
_geom_bond_atom_site_label_1
_geom_bond_atom_site_label_2
_geom_bond_distance
_geom_bond_site_symmetry_2
_ccdc_geom_bond_type
Nd0 C2 2.836 . S
Nd0 O20 2.500 . S
Nd0 O21 2.492 . S
Nd0 O22 2.487 . S
Nd0 O23 2.682 . S
Nd0 O24 2.410 . S
Nd0 O29 2.414 . S
Nd0 O31 2.424 . S
Nd1 C11 2.836 . S
Nd1 O23 2.414 . S
Nd1 O25 2.424 . S
Nd1 O26 2.500 . S
Nd1 O27 2.492 . S
Nd1 O28 2.487 . S
Nd1 O29 2.682 . S
Nd1 O30 2.410 . S
C2 Nd0 2.836 . S
C2 C3 1.498 . S
C2 O20 1.258 . S
C2 O21 1.239 . S
C3 C2 1.498 . S
C3 C4 1.366 . S
C3 C8 1.407 . S
C4 C3 1.366 . S
C4 C5 1.392 . S
C4 H32 0.930 . S
C5 C4 1.392 . S
C5 C6 1.398 . S
C5 H33 0.929 . S
C6 C5 1.398 . S
C6 C7 1.352 . S
C7 C6 1.352 . S
C7 C8 1.384 . S
C7 H34 0.930 . S
C8 C3 1.407 . S
C8 C7 1.384 . S
C8 H35 0.929 . S
C9 O22 1.241 . S
C9 O23 1.273 . S
C10 O24 1.251 . S
C10 O25 1.268 . S
C11 Nd1 2.836 . S
C11 C12 1.498 . S
C11 O26 1.258 . S
C11 O27 1.239 . S
C12 C11 1.498 . S
C12 C13 1.366 . S
C12 C17 1.407 1_455 S
C13 C12 1.366 . S
C13 C14 1.392 1_455 S
C13 H36 0.930 . S
C14 C13 1.392 1_655 S
C14 C15 1.398 . S
C14 H37 0.929 . S
C15 C14 1.398 . S
C15 C16 1.352 . S
C16 C15 1.352 . S
C16 C17 1.384 . S
C16 H38 0.930 . S
C17 C12 1.407 1_655 S
C17 C16 1.384 . S
C17 H39 0.929 . S
C18 O28 1.241 . S
C18 O29 1.273 . S
C19 O30 1.251 . S
C19 O31 1.268 . S
O20 Nd0 2.500 . S
O20 C2 1.258 . S
O21 Nd0 2.492 . S
O21 C2 1.239 . S
O22 Nd0 2.487 . S
O22 C9 1.241 . S
O23 Nd0 2.682 . S
O23 Nd1 2.414 . S
O23 C9 1.273 . S
O24 Nd0 2.410 . S
O24 C10 1.251 . S
O25 Nd1 2.424 . S
O25 C10 1.268 . S
O26 Nd1 2.500 . S
O26 C11 1.258 . S
O27 Nd1 2.492 . S
O27 C11 1.239 . S
O28 Nd1 2.487 . S
O28 C18 1.241 . S
O29 Nd0 2.414 . S
O29 Nd1 2.682 . S
O29 C18 1.273 . S
O30 Nd1 2.410 . S
O30 C19 1.251 . S
O31 Nd0 2.424 . S
O31 C19 1.268 . S
H32 C4 0.930 . S
H33 C5 0.929 . S
H34 C7 0.930 . S
H35 C8 0.929 . S
H36 C13 0.930 . S
H37 C14 0.929 . S
H38 C16 0.930 . S
H39 C17 0.929 . S
Nd40 C42 2.836 . S
Nd40 O60 2.500 . S
Nd40 O61 2.492 . S
Nd40 O62 2.487 . S
Nd40 O63 2.682 . S
Nd40 O64 2.410 . S
Nd40 O69 2.414 . S
Nd40 O71 2.424 . S
Nd41 C51 2.836 . S
Nd41 O63 2.414 . S
Nd41 O65 2.424 . S
Nd41 O66 2.500 . S
Nd41 O67 2.492 . S
Nd41 O68 2.487 . S
Nd41 O69 2.682 . S
Nd41 O70 2.410 . S
C42 Nd40 2.836 . S
C42 C43 1.498 . S
C42 O60 1.258 . S
C42 O61 1.239 . S
C43 C42 1.498 . S
C43 C44 1.366 . S
C43 C48 1.407 . S
C44 C43 1.366 . S
C44 C45 1.392 . S
C44 H72 0.930 . S
C45 C44 1.392 . S
C45 C46 1.398 . S
C45 H73 0.929 . S
C46 C45 1.398 . S
C46 C47 1.352 . S
C47 C46 1.352 . S
C47 C48 1.384 . S
C47 H74 0.930 . S
C48 C43 1.407 . S
C48 C47 1.384 . S
C48 H75 0.929 . S
C49 O62 1.241 . S
C49 O63 1.273 . S
C50 O64 1.251 . S
C50 O65 1.268 . S
C51 Nd41 2.836 . S
C51 C52 1.498 . S
C51 O66 1.258 . S
C51 O67 1.239 . S
C52 C51 1.498 . S
C52 C53 1.366 . S
C52 C57 1.407 . S
C53 C52 1.366 . S
C53 C54 1.392 . S
C53 H76 0.930 . S
C54 C53 1.392 . S
C54 C55 1.398 . S
C54 H77 0.929 . S
C55 C54 1.398 . S
C55 C56 1.352 . S
C56 C55 1.352 . S
C56 C57 1.384 . S
C56 H78 0.930 . S
C57 C52 1.407 . S
C57 C56 1.384 . S
C57 H79 0.929 . S
C58 O68 1.241 . S
C58 O69 1.273 . S
C59 O70 1.251 . S
C59 O71 1.268 . S
O60 Nd40 2.500 . S
O60 C42 1.258 . S
O61 Nd40 2.492 . S
O61 C42 1.239 . S
O62 Nd40 2.487 . S
O62 C49 1.241 . S
O63 Nd40 2.682 . S
O63 Nd41 2.414 . S
O63 C49 1.273 . S
O64 Nd40 2.410 . S
O64 C50 1.251 . S
O65 Nd41 2.424 . S
O65 C50 1.268 . S
O66 Nd41 2.500 . S
O66 C51 1.258 . S
O67 Nd41 2.492 . S
O67 C51 1.239 . S
O68 Nd41 2.487 . S
O68 C58 1.241 . S
O69 Nd40 2.414 . S
O69 Nd41 2.682 . S
O69 C58 1.273 . S
O70 Nd41 2.410 . S
O70 C59 1.251 . S
O71 Nd40 2.424 . S
O71 C59 1.268 . S
H72 C44 0.930 . S
H73 C45 0.929 . S
H74 C47 0.930 . S
H75 C48 0.929 . S
H76 C53 0.930 . S
H77 C54 0.929 . S
H78 C56 0.930 . S
H79 C57 0.929 . S
Nd80 C82 2.836 . S
Nd80 O100 2.500 . S
Nd80 O101 2.492 . S
Nd80 O102 2.487 . S
Nd80 O103 2.682 . S
Nd80 O104 2.410 . S
Nd80 O109 2.414 . S
Nd80 O111 2.424 . S
Nd81 C91 2.836 . S
Nd81 O103 2.414 . S
Nd81 O105 2.424 . S
Nd81 O106 2.500 . S
Nd81 O107 2.492 . S
Nd81 O108 2.487 . S
Nd81 O109 2.682 . S
Nd81 O110 2.410 . S
C82 Nd80 2.836 . S
C82 C83 1.498 . S
C82 O100 1.258 . S
C82 O101 1.239 . S
C83 C82 1.498 . S
C83 C84 1.366 . S
C83 C88 1.407 . S
C84 C83 1.366 . S
C84 C85 1.392 . S
C84 H112 0.930 . S
C85 C84 1.392 . S
C85 C86 1.398 . S
C85 H113 0.929 . S
C86 C85 1.398 . S
C86 C87 1.352 . S
C87 C86 1.352 . S
C87 C88 1.384 . S
C87 H114 0.930 . S
C88 C83 1.407 . S
C88 C87 1.384 . S
C88 H115 0.929 . S
C89 O102 1.241 . S
C89 O103 1.273 . S
C90 O104 1.251 . S
C90 O105 1.268 . S
C91 Nd81 2.836 . S
C91 C92 1.498 . S
C91 O106 1.258 . S
C91 O107 1.239 . S
C92 C91 1.498 . S
C92 C93 1.366 . S
C92 C97 1.407 1_565 S
C93 C92 1.366 . S
C93 C94 1.392 1_565 S
C93 H116 0.930 . S
C94 C93 1.392 1_545 S
C94 C95 1.398 . S
C94 H117 0.929 . S
C95 C94 1.398 . S
C95 C96 1.352 . S
C96 C95 1.352 . S
C96 C97 1.384 . S
C96 H118 0.930 . S
C97 C92 1.407 1_545 S
C97 C96 1.384 . S
C97 H119 0.929 . S
C98 O108 1.241 . S
C98 O109 1.273 . S
C99 O110 1.251 . S
C99 O111 1.268 . S
O100 Nd80 2.500 . S
O100 C82 1.258 . S
O101 Nd80 2.492 . S
O101 C82 1.239 . S
O102 Nd80 2.487 . S
O102 C89 1.241 . S
O103 Nd80 2.682 . S
O103 Nd81 2.414 . S
O103 C89 1.273 . S
O104 Nd80 2.410 . S
O104 C90 1.251 . S
O105 Nd81 2.424 . S
O105 C90 1.268 . S
O106 Nd81 2.500 . S
O106 C91 1.258 . S
O107 Nd81 2.492 . S
O107 C91 1.239 . S
O108 Nd81 2.487 . S
O108 C98 1.241 . S
O109 Nd80 2.414 . S
O109 Nd81 2.682 . S
O109 C98 1.273 . S
O110 Nd81 2.410 . S
O110 C99 1.251 . S
O111 Nd80 2.424 . S
O111 C99 1.268 . S
H112 C84 0.930 . S
H113 C85 0.929 . S
H114 C87 0.930 . S
H115 C88 0.929 . S
H116 C93 0.930 . S
H117 C94 0.929 . S
H118 C96 0.930 . S
H119 C97 0.929 . S
Nd120 C122 2.836 . S
Nd120 O140 2.500 . S
Nd120 O141 2.492 . S
Nd120 O142 2.487 . S
Nd120 O143 2.682 . S
Nd120 O144 2.410 . S
Nd120 O149 2.414 . S
Nd120 O151 2.424 . S
Nd121 C131 2.836 . S
Nd121 O143 2.414 . S
Nd121 O145 2.424 . S
Nd121 O146 2.500 . S
Nd121 O147 2.492 . S
Nd121 O148 2.487 . S
Nd121 O149 2.682 . S
Nd121 O150 2.410 . S
C122 Nd120 2.836 . S
C122 C123 1.498 . S
C122 O140 1.258 . S
C122 O141 1.239 . S
C123 C122 1.498 . S
C123 C124 1.366 . S
C123 C128 1.407 . S
C124 C123 1.366 . S
C124 C125 1.392 . S
C124 H152 0.930 . S
C125 C124 1.392 . S
C125 C126 1.398 . S
C125 H153 0.929 . S
C126 C125 1.398 . S
C126 C127 1.352 . S
C127 C126 1.352 . S
C127 C128 1.384 . S
C127 H154 0.930 . S
C128 C123 1.407 . S
C128 C127 1.384 . S
C128 H155 0.929 . S
C129 O142 1.241 . S
C129 O143 1.273 . S
C130 O144 1.251 . S
C130 O145 1.268 . S
C131 Nd121 2.836 . S
C131 C132 1.498 . S
C131 O146 1.258 . S
C131 O147 1.239 . S
C132 C131 1.498 . S
C132 C133 1.366 . S
C132 C137 1.407 . S
C133 C132 1.366 . S
C133 C134 1.392 . S
C133 H156 0.930 . S
C134 C133 1.392 . S
C134 C135 1.398 . S
C134 H157 0.929 . S
C135 C134 1.398 . S
C135 C136 1.352 . S
C136 C135 1.352 . S
C136 C137 1.384 . S
C136 H158 0.930 . S
C137 C132 1.407 . S
C137 C136 1.384 . S
C137 H159 0.929 . S
C138 O148 1.241 . S
C138 O149 1.273 . S
C139 O150 1.251 . S
C139 O151 1.268 . S
O140 Nd120 2.500 . S
O140 C122 1.258 . S
O141 Nd120 2.492 . S
O141 C122 1.239 . S
O142 Nd120 2.487 . S
O142 C129 1.241 . S
O143 Nd120 2.682 . S
O143 Nd121 2.414 . S
O143 C129 1.273 . S
O144 Nd120 2.410 . S
O144 C130 1.251 . S
O145 Nd121 2.424 . S
O145 C130 1.268 . S
O146 Nd121 2.500 . S
O146 C131 1.258 . S
O147 Nd121 2.492 . S
O147 C131 1.239 . S
O148 Nd121 2.487 . S
O148 C138 1.241 . S
O149 Nd120 2.414 . S
O149 Nd121 2.682 . S
O149 C138 1.273 . S
O150 Nd121 2.410 . S
O150 C139 1.251 . S
O151 Nd120 2.424 . S
O151 C139 1.268 . S
H152 C124 0.930 . S
H153 C125 0.929 . S
H154 C127 0.930 . S
H155 C128 0.929 . S
H156 C133 0.930 . S
H157 C134 0.929 . S
H158 C136 0.930 . S
H159 C137 0.929 . S
Nd160 C162 2.836 . S
Nd160 O180 2.500 . S
Nd160 O181 2.492 . S
Nd160 O182 2.487 . S
Nd160 O183 2.682 . S
Nd160 O184 2.410 . S
Nd160 O189 2.414 . S
Nd160 O191 2.424 . S
Nd161 C171 2.836 . S
Nd161 O183 2.414 . S
Nd161 O185 2.424 . S
Nd161 O186 2.500 . S
Nd161 O187 2.492 . S
Nd161 O188 2.487 . S
Nd161 O189 2.682 . S
Nd161 O190 2.410 . S
C162 Nd160 2.836 . S
C162 C163 1.498 . S
C162 O180 1.258 . S
C162 O181 1.239 . S
C163 C162 1.498 . S
C163 C164 1.366 . S
C163 C168 1.407 . S
C164 C163 1.366 . S
C164 C165 1.392 . S
C164 H192 0.930 . S
C165 C164 1.392 . S
C165 C166 1.398 . S
C165 H193 0.929 . S
C166 C165 1.398 . S
C166 C167 1.352 . S
C167 C166 1.352 . S
C167 C168 1.384 . S
C167 H194 0.930 . S
C168 C163 1.407 . S
C168 C167 1.384 . S
C168 H195 0.929 . S
C169 O182 1.241 . S
C169 O183 1.273 . S
C170 O184 1.251 . S
C170 O185 1.268 . S
C171 Nd161 2.836 . S
C171 C172 1.498 . S
C171 O186 1.258 . S
C171 O187 1.239 . S
C172 C171 1.498 . S
C172 C173 1.366 . S
C172 C177 1.407 . S
C173 C172 1.366 . S
C173 C174 1.392 . S
C173 H196 0.930 . S
C174 C173 1.392 . S
C174 C175 1.398 . S
C174 H197 0.929 . S
C175 C174 1.398 . S
C175 C176 1.352 . S
C176 C175 1.352 . S
C176 C177 1.384 . S
C176 H198 0.930 . S
C177 C172 1.407 . S
C177 C176 1.384 . S
C177 H199 0.929 . S
C178 O188 1.241 . S
C178 O189 1.273 . S
C179 O190 1.251 . S
C179 O191 1.268 . S
O180 Nd160 2.500 . S
O180 C162 1.258 . S
O181 Nd160 2.492 . S
O181 C162 1.239 . S
O182 Nd160 2.487 . S
O182 C169 1.241 . S
O183 Nd160 2.682 . S
O183 Nd161 2.414 . S
O183 C169 1.273 . S
O184 Nd160 2.410 . S
O184 C170 1.251 . S
O185 Nd161 2.424 . S
O185 C170 1.268 . S
O186 Nd161 2.500 . S
O186 C171 1.258 . S
O187 Nd161 2.492 . S
O187 C171 1.239 . S
O188 Nd161 2.487 . S
O188 C178 1.241 . S
O189 Nd160 2.414 . S
O189 Nd161 2.682 . S
O189 C178 1.273 . S
O190 Nd161 2.410 . S
O190 C179 1.251 . S
O191 Nd160 2.424 . S
O191 C179 1.268 . S
H192 C164 0.930 . S
H193 C165 0.929 . S
H194 C167 0.930 . S
H195 C168 0.929 . S
H196 C173 0.930 . S
H197 C174 0.929 . S
H198 C176 0.930 . S
H199 C177 0.929 . S
Nd200 C202 2.836 . S
Nd200 O220 2.500 . S
Nd200 O221 2.492 . S
Nd200 O222 2.487 . S
Nd200 O223 2.682 . S
Nd200 O224 2.410 . S
Nd200 O229 2.414 . S
Nd200 O231 2.424 . S
Nd201 C211 2.836 . S
Nd201 O223 2.414 . S
Nd201 O225 2.424 . S
Nd201 O226 2.500 . S
Nd201 O227 2.492 . S
Nd201 O228 2.487 . S
Nd201 O229 2.682 . S
Nd201 O230 2.410 . S
C202 Nd200 2.836 . S
C202 C203 1.498 . S
C202 O220 1.258 . S
C202 O221 1.239 . S
C203 C202 1.498 . S
C203 C204 1.366 . S
C203 C208 1.407 . S
C204 C203 1.366 . S
C204 C205 1.392 . S
C204 H232 0.930 . S
C205 C204 1.392 . S
C205 C206 1.398 . S
C205 H233 0.929 . S
C206 C205 1.398 . S
C206 C207 1.352 . S
C207 C206 1.352 . S
C207 C208 1.384 . S
C207 H234 0.930 . S
C208 C203 1.407 . S
C208 C207 1.384 . S
C208 H235 0.929 . S
C209 O222 1.241 . S
C209 O223 1.273 . S
C210 O224 1.251 . S
C210 O225 1.268 . S
C211 Nd201 2.836 . S
C211 C212 1.498 . S
C211 O226 1.258 . S
C211 O227 1.239 . S
C212 C211 1.498 . S
C212 C213 1.366 . S
C212 C217 1.407 . S
C213 C212 1.366 . S
C213 C214 1.392 . S
C213 H236 0.930 . S
C214 C213 1.392 . S
C214 C215 1.398 . S
C214 H237 0.929 . S
C215 C214 1.398 . S
C215 C216 1.352 . S
C216 C215 1.352 . S
C216 C217 1.384 . S
C216 H238 0.930 . S
C217 C212 1.407 . S
C217 C216 1.384 . S
C217 H239 0.929 . S
C218 O228 1.241 . S
C218 O229 1.273 . S
C219 O230 1.251 . S
C219 O231 1.268 . S
O220 Nd200 2.500 . S
O220 C202 1.258 . S
O221 Nd200 2.492 . S
O221 C202 1.239 . S
O222 Nd200 2.487 . S
O222 C209 1.241 . S
O223 Nd200 2.682 . S
O223 Nd201 2.414 . S
O223 C209 1.273 . S
O224 Nd200 2.410 . S
O224 C210 1.251 . S
O225 Nd201 2.424 . S
O225 C210 1.268 . S
O226 Nd201 2.500 . S
O226 C211 1.258 . S
O227 Nd201 2.492 . S
O227 C211 1.239 . S
O228 Nd201 2.487 . S
O228 C218 1.241 . S
O229 Nd200 2.414 . S
O229 Nd201 2.682 . S
O229 C218 1.273 . S
O230 Nd201 2.410 . S
O230 C219 1.251 . S
O231 Nd200 2.424 . S
O231 C219 1.268 . S
H232 C204 0.930 . S
H233 C205 0.929 . S
H234 C207 0.930 . S
H235 C208 0.929 . S
H236 C213 0.930 . S
H237 C214 0.929 . S
H238 C216 0.930 . S
H239 C217 0.929 . S
Nd240 C242 2.836 . S
Nd240 O260 2.500 . S
Nd240 O261 2.492 . S
Nd240 O262 2.487 . S
Nd240 O263 2.682 . S
Nd240 O264 2.410 . S
Nd240 O269 2.414 . S
Nd240 O271 2.424 . S
Nd241 C251 2.836 . S
Nd241 O263 2.414 . S
Nd241 O265 2.424 . S
Nd241 O266 2.500 . S
Nd241 O267 2.492 . S
Nd241 O268 2.487 . S
Nd241 O269 2.682 . S
Nd241 O270 2.410 . S
C242 Nd240 2.836 . S
C242 C243 1.498 . S
C242 O260 1.258 . S
C242 O261 1.239 . S
C243 C242 1.498 . S
C243 C244 1.366 . S
C243 C248 1.407 1_655 S
C244 C243 1.366 . S
C244 C245 1.392 1_655 S
C244 H272 0.930 . S
C245 C244 1.392 1_455 S
C245 C246 1.398 . S
C245 H273 0.929 . S
C246 C245 1.398 . S
C246 C247 1.352 . S
C247 C246 1.352 . S
C247 C248 1.384 . S
C247 H274 0.930 . S
C248 C243 1.407 1_455 S
C248 C247 1.384 . S
C248 H275 0.929 . S
C249 O262 1.241 . S
C249 O263 1.273 . S
C250 O264 1.251 . S
C250 O265 1.268 . S
C251 Nd241 2.836 . S
C251 C252 1.498 . S
C251 O266 1.258 . S
C251 O267 1.239 . S
C252 C251 1.498 . S
C252 C253 1.366 . S
C252 C257 1.407 . S
C253 C252 1.366 . S
C253 C254 1.392 . S
C253 H276 0.930 . S
C254 C253 1.392 . S
C254 C255 1.398 . S
C254 H277 0.929 . S
C255 C254 1.398 . S
C255 C256 1.352 . S
C256 C255 1.352 . S
C256 C257 1.384 . S
C256 H278 0.930 . S
C257 C252 1.407 . S
C257 C256 1.384 . S
C257 H279 0.929 . S
C258 O268 1.241 . S
C258 O269 1.273 . S
C259 O270 1.251 . S
C259 O271 1.268 . S
O260 Nd240 2.500 . S
O260 C242 1.258 . S
O261 Nd240 2.492 . S
O261 C242 1.239 . S
O262 Nd240 2.487 . S
O262 C249 1.241 . S
O263 Nd240 2.682 . S
O263 Nd241 2.414 . S
O263 C249 1.273 . S
O264 Nd240 2.410 . S
O264 C250 1.251 . S
O265 Nd241 2.424 . S
O265 C250 1.268 . S
O266 Nd241 2.500 . S
O266 C251 1.258 . S
O267 Nd241 2.492 . S
O267 C251 1.239 . S
O268 Nd241 2.487 . S
O268 C258 1.241 . S
O269 Nd240 2.414 . S
O269 Nd241 2.682 . S
O269 C258 1.273 . S
O270 Nd241 2.410 . S
O270 C259 1.251 . S
O271 Nd240 2.424 . S
O271 C259 1.268 . S
H272 C244 0.930 . S
H273 C245 0.929 . S
H274 C247 0.930 . S
H275 C248 0.929 . S
H276 C253 0.930 . S
H277 C254 0.929 . S
H278 C256 0.930 . S
H279 C257 0.929 . S
Nd280 C282 2.836 . S
Nd280 O300 2.500 . S
Nd280 O301 2.492 . S
Nd280 O302 2.487 . S
Nd280 O303 2.682 . S
Nd280 O304 2.410 . S
Nd280 O309 2.414 . S
Nd280 O311 2.424 . S
Nd281 C291 2.836 . S
Nd281 O303 2.414 . S
Nd281 O305 2.424 . S
Nd281 O306 2.500 . S
Nd281 O307 2.492 . S
Nd281 O308 2.487 . S
Nd281 O309 2.682 . S
Nd281 O310 2.410 . S
C282 Nd280 2.836 . S
C282 C283 1.498 . S
C282 O300 1.258 . S
C282 O301 1.239 . S
C283 C282 1.498 . S
C283 C284 1.366 . S
C283 C288 1.407 . S
C284 C283 1.366 . S
C284 C285 1.392 . S
C284 H312 0.930 . S
C285 C284 1.392 . S
C285 C286 1.398 . S
C285 H313 0.929 . S
C286 C285 1.398 . S
C286 C287 1.352 . S
C287 C286 1.352 . S
C287 C288 1.384 . S
C287 H314 0.930 . S
C288 C283 1.407 . S
C288 C287 1.384 . S
C288 H315 0.929 . S
C289 O302 1.241 . S
C289 O303 1.273 . S
C290 O304 1.251 . S
C290 O305 1.268 . S
C291 Nd281 2.836 . S
C291 C292 1.498 . S
C291 O306 1.258 . S
C291 O307 1.239 . S
C292 C291 1.498 . S
C292 C293 1.366 . S
C292 C297 1.407 . S
C293 C292 1.366 . S
C293 C294 1.392 . S
C293 H316 0.930 . S
C294 C293 1.392 . S
C294 C295 1.398 . S
C294 H317 0.929 . S
C295 C294 1.398 . S
C295 C296 1.352 . S
C296 C295 1.352 . S
C296 C297 1.384 . S
C296 H318 0.930 . S
C297 C292 1.407 . S
C297 C296 1.384 . S
C297 H319 0.929 . S
C298 O308 1.241 . S
C298 O309 1.273 . S
C299 O310 1.251 . S
C299 O311 1.268 . S
O300 Nd280 2.500 . S
O300 C282 1.258 . S
O301 Nd280 2.492 . S
O301 C282 1.239 . S
O302 Nd280 2.487 . S
O302 C289 1.241 . S
O303 Nd280 2.682 . S
O303 Nd281 2.414 . S
O303 C289 1.273 . S
O304 Nd280 2.410 . S
O304 C290 1.251 . S
O305 Nd281 2.424 . S
O305 C290 1.268 . S
O306 Nd281 2.500 . S
O306 C291 1.258 . S
O307 Nd281 2.492 . S
O307 C291 1.239 . S
O308 Nd281 2.487 . S
O308 C298 1.241 . S
O309 Nd280 2.414 . S
O309 Nd281 2.682 . S
O309 C298 1.273 . S
O310 Nd281 2.410 . S
O310 C299 1.251 . S
O311 Nd280 2.424 . S
O311 C299 1.268 . S
H312 C284 0.930 . S
H313 C285 0.929 . S
H314 C287 0.930 . S
H315 C288 0.929 . S
H316 C293 0.930 . S
H317 C294 0.929 . S
H318 C296 0.930 . S
H319 C297 0.929 . S
Nd320 C322 2.836 . S
Nd320 O340 2.500 . S
Nd320 O341 2.492 . S
Nd320 O342 2.487 . S
Nd320 O343 2.682 . S
Nd320 O344 2.410 . S
Nd320 O349 2.414 . S
Nd320 O351 2.424 . S
Nd321 C331 2.836 . S
Nd321 O343 2.414 . S
Nd321 O345 2.424 . S
Nd321 O346 2.500 . S
Nd321 O347 2.492 . S
Nd321 O348 2.487 . S
Nd321 O349 2.682 . S
Nd321 O350 2.410 . S
C322 Nd320 2.836 . S
C322 C323 1.498 . S
C322 O340 1.258 . S
C322 O341 1.239 . S
C323 C322 1.498 . S
C323 C324 1.366 . S
C323 C328 1.407 1_545 S
C324 C323 1.366 . S
C324 C325 1.392 1_545 S
C324 H352 0.930 . S
C325 C324 1.392 1_565 S
C325 C326 1.398 . S
C325 H353 0.929 . S
C326 C325 1.398 . S
C326 C327 1.352 . S
C327 C326 1.352 . S
C327 C328 1.384 . S
C327 H354 0.930 . S
C328 C323 1.407 1_565 S
C328 C327 1.384 . S
C328 H355 0.929 . S
C329 O342 1.241 . S
C329 O343 1.273 . S
C330 O344 1.251 . S
C330 O345 1.268 . S
C331 Nd321 2.836 . S
C331 C332 1.498 . S
C331 O346 1.258 . S
C331 O347 1.239 . S
C332 C331 1.498 . S
C332 C333 1.366 . S
C332 C337 1.407 . S
C333 C332 1.366 . S
C333 C334 1.392 . S
C333 H356 0.930 . S
C334 C333 1.392 . S
C334 C335 1.398 . S
C334 H357 0.929 . S
C335 C334 1.398 . S
C335 C336 1.352 . S
C336 C335 1.352 . S
C336 C337 1.384 . S
C336 H358 0.930 . S
C337 C332 1.407 . S
C337 C336 1.384 . S
C337 H359 0.929 . S
C338 O348 1.241 . S
C338 O349 1.273 . S
C339 O350 1.251 . S
C339 O351 1.268 . S
O340 Nd320 2.500 . S
O340 C322 1.258 . S
O341 Nd320 2.492 . S
O341 C322 1.239 . S
O342 Nd320 2.487 . S
O342 C329 1.241 . S
O343 Nd320 2.682 . S
O343 Nd321 2.414 . S
O343 C329 1.273 . S
O344 Nd320 2.410 . S
O344 C330 1.251 . S
O345 Nd321 2.424 . S
O345 C330 1.268 . S
O346 Nd321 2.500 . S
O346 C331 1.258 . S
O347 Nd321 2.492 . S
O347 C331 1.239 . S
O348 Nd321 2.487 . S
O348 C338 1.241 . S
O349 Nd320 2.414 . S
O349 Nd321 2.682 . S
O349 C338 1.273 . S
O350 Nd321 2.410 . S
O350 C339 1.251 . S
O351 Nd320 2.424 . S
O351 C339 1.268 . S
H352 C324 0.930 . S
H353 C325 0.929 . S
H354 C327 0.930 . S
H355 C328 0.929 . S
H356 C333 0.930 . S
H357 C334 0.929 . S
H358 C336 0.930 . S
H359 C337 0.929 . S
Nd360 C362 2.836 . S
Nd360 O380 2.500 . S
Nd360 O381 2.492 . S
Nd360 O382 2.487 . S
Nd360 O383 2.682 . S
Nd360 O384 2.410 . S
Nd360 O389 2.414 . S
Nd360 O391 2.424 . S
Nd361 C371 2.836 . S
Nd361 O383 2.414 . S
Nd361 O385 2.424 . S
Nd361 O386 2.500 . S
Nd361 O387 2.492 . S
Nd361 O388 2.487 . S
Nd361 O389 2.682 . S
Nd361 O390 2.410 . S
C362 Nd360 2.836 . S
C362 C363 1.498 . S
C362 O380 1.258 . S
C362 O381 1.239 . S
C363 C362 1.498 . S
C363 C364 1.366 . S
C363 C368 1.407 . S
C364 C363 1.366 . S
C364 C365 1.392 . S
C364 H392 0.930 . S
C365 C364 1.392 . S
C365 C366 1.398 . S
C365 H393 0.929 . S
C366 C365 1.398 . S
C366 C367 1.352 . S
C367 C366 1.352 . S
C367 C368 1.384 . S
C367 H394 0.930 . S
C368 C363 1.407 . S
C368 C367 1.384 . S
C368 H395 0.929 . S
C369 O382 1.241 . S
C369 O383 1.273 . S
C370 O384 1.251 . S
C370 O385 1.268 . S
C371 Nd361 2.836 . S
C371 C372 1.498 . S
C371 O386 1.258 . S
C371 O387 1.239 . S
C372 C371 1.498 . S
C372 C373 1.366 . S
C372 C377 1.407 . S
C373 C372 1.366 . S
C373 C374 1.392 . S
C373 H396 0.930 . S
C374 C373 1.392 . S
C374 C375 1.398 . S
C374 H397 0.929 . S
C375 C374 1.398 . S
C375 C376 1.352 . S
C376 C375 1.352 . S
C376 C377 1.384 . S
C376 H398 0.930 . S
C377 C372 1.407 . S
C377 C376 1.384 . S
C377 H399 0.929 . S
C378 O388 1.241 . S
C378 O389 1.273 . S
C379 O390 1.251 . S
C379 O391 1.268 . S
O380 Nd360 2.500 . S
O380 C362 1.258 . S
O381 Nd360 2.492 . S
O381 C362 1.239 . S
O382 Nd360 2.487 . S
O382 C369 1.241 . S
O383 Nd360 2.682 . S
O383 Nd361 2.414 . S
O383 C369 1.273 . S
O384 Nd360 2.410 . S
O384 C370 1.251 . S
O385 Nd361 2.424 . S
O385 C370 1.268 . S
O386 Nd361 2.500 . S
O386 C371 1.258 . S
O387 Nd361 2.492 . S
O387 C371 1.239 . S
O388 Nd361 2.487 . S
O388 C378 1.241 . S
O389 Nd360 2.414 . S
O389 Nd361 2.682 . S
O389 C378 1.273 . S
O390 Nd361 2.410 . S
O390 C379 1.251 . S
O391 Nd360 2.424 . S
O391 C379 1.268 . S
H392 C364 0.930 . S
H393 C365 0.929 . S
H394 C367 0.930 . S
H395 C368 0.929 . S
H396 C373 0.930 . S
H397 C374 0.929 . S
H398 C376 0.930 . S
H399 C377 0.929 . S
Nd400 C402 2.836 . S
Nd400 O420 2.500 . S
Nd400 O421 2.492 . S
Nd400 O422 2.487 . S
Nd400 O423 2.682 . S
Nd400 O424 2.410 . S
Nd400 O429 2.414 . S
Nd400 O431 2.424 . S
Nd401 C411 2.836 . S
Nd401 O423 2.414 . S
Nd401 O425 2.424 . S
Nd401 O426 2.500 . S
Nd401 O427 2.492 . S
Nd401 O428 2.487 . S
Nd401 O429 2.682 . S
Nd401 O430 2.410 . S
C402 Nd400 2.836 . S
C402 C403 1.498 . S
C402 O420 1.258 . S
C402 O421 1.239 . S
C403 C402 1.498 . S
C403 C404 1.366 . S
C403 C408 1.407 . S
C404 C403 1.366 . S
C404 C405 1.392 . S
C404 H432 0.930 . S
C405 C404 1.392 . S
C405 C406 1.398 . S
C405 H433 0.929 . S
C406 C405 1.398 . S
C406 C407 1.352 . S
C407 C406 1.352 . S
C407 C408 1.384 . S
C407 H434 0.930 . S
C408 C403 1.407 . S
C408 C407 1.384 . S
C408 H435 0.929 . S
C409 O422 1.241 . S
C409 O423 1.273 . S
C410 O424 1.251 . S
C410 O425 1.268 . S
C411 Nd401 2.836 . S
C411 C412 1.498 . S
C411 O426 1.258 . S
C411 O427 1.239 . S
C412 C411 1.498 . S
C412 C413 1.366 . S
C412 C417 1.407 . S
C413 C412 1.366 . S
C413 C414 1.392 . S
C413 H436 0.930 . S
C414 C413 1.392 . S
C414 C415 1.398 . S
C414 H437 0.929 . S
C415 C414 1.398 . S
C415 C416 1.352 . S
C416 C415 1.352 . S
C416 C417 1.384 . S
C416 H438 0.930 . S
C417 C412 1.407 . S
C417 C416 1.384 . S
C417 H439 0.929 . S
C418 O428 1.241 . S
C418 O429 1.273 . S
C419 O430 1.251 . S
C419 O431 1.268 . S
O420 Nd400 2.500 . S
O420 C402 1.258 . S
O421 Nd400 2.492 . S
O421 C402 1.239 . S
O422 Nd400 2.487 . S
O422 C409 1.241 . S
O423 Nd400 2.682 . S
O423 Nd401 2.414 . S
O423 C409 1.273 . S
O424 Nd400 2.410 . S
O424 C410 1.251 . S
O425 Nd401 2.424 . S
O425 C410 1.268 . S
O426 Nd401 2.500 . S
O426 C411 1.258 . S
O427 Nd401 2.492 . S
O427 C411 1.239 . S
O428 Nd401 2.487 . S
O428 C418 1.241 . S
O429 Nd400 2.414 . S
O429 Nd401 2.682 . S
O429 C418 1.273 . S
O430 Nd401 2.410 . S
O430 C419 1.251 . S
O431 Nd400 2.424 . S
O431 C419 1.268 . S
H432 C404 0.930 . S
H433 C405 0.929 . S
H434 C407 0.930 . S
H435 C408 0.929 . S
H436 C413 0.930 . S
H437 C414 0.929 . S
H438 C416 0.930 . S
H439 C417 0.929 . S
Nd440 C442 2.836 . S
Nd440 O460 2.500 . S
Nd440 O461 2.492 . S
Nd440 O462 2.487 . S
Nd440 O463 2.682 . S
Nd440 O464 2.410 . S
Nd440 O469 2.414 . S
Nd440 O471 2.424 . S
Nd441 C451 2.836 . S
Nd441 O463 2.414 . S
Nd441 O465 2.424 . S
Nd441 O466 2.500 . S
Nd441 O467 2.492 . S
Nd441 O468 2.487 . S
Nd441 O469 2.682 . S
Nd441 O470 2.410 . S
C442 Nd440 2.836 . S
C442 C443 1.498 . S
C442 O460 1.258 . S
C442 O461 1.239 . S
C443 C442 1.498 . S
C443 C444 1.366 . S
C443 C448 1.407 . S
C444 C443 1.366 . S
C444 C445 1.392 . S
C444 H472 0.930 . S
C445 C444 1.392 . S
C445 C446 1.398 . S
C445 H473 0.929 . S
C446 C445 1.398 . S
C446 C447 1.352 . S
C447 C446 1.352 . S
C447 C448 1.384 . S
C447 H474 0.930 . S
C448 C443 1.407 . S
C448 C447 1.384 . S
C448 H475 0.929 . S
C449 O462 1.241 . S
C449 O463 1.273 . S
C450 O464 1.251 . S
C450 O465 1.268 . S
C451 Nd441 2.836 . S
C451 C452 1.498 . S
C451 O466 1.258 . S
C451 O467 1.239 . S
C452 C451 1.498 . S
C452 C453 1.366 . S
C452 C457 1.407 . S
C453 C452 1.366 . S
C453 C454 1.392 . S
C453 H476 0.930 . S
C454 C453 1.392 . S
C454 C455 1.398 . S
C454 H477 0.929 . S
C455 C454 1.398 . S
C455 C456 1.352 . S
C456 C455 1.352 . S
C456 C457 1.384 . S
C456 H478 0.930 . S
C457 C452 1.407 . S
C457 C456 1.384 . S
C457 H479 0.929 . S
C458 O468 1.241 . S
C458 O469 1.273 . S
C459 O470 1.251 . S
C459 O471 1.268 . S
O460 Nd440 2.500 . S
O460 C442 1.258 . S
O461 Nd440 2.492 . S
O461 C442 1.239 . S
O462 Nd440 2.487 . S
O462 C449 1.241 . S
O463 Nd440 2.682 . S
O463 Nd441 2.414 . S
O463 C449 1.273 . S
O464 Nd440 2.410 . S
O464 C450 1.251 . S
O465 Nd441 2.424 . S
O465 C450 1.268 . S
O466 Nd441 2.500 . S
O466 C451 1.258 . S
O467 Nd441 2.492 . S
O467 C451 1.239 . S
O468 Nd441 2.487 . S
O468 C458 1.241 . S
O469 Nd440 2.414 . S
O469 Nd441 2.682 . S
O469 C458 1.273 . S
O470 Nd441 2.410 . S
O470 C459 1.251 . S
O471 Nd440 2.424 . S
O471 C459 1.268 . S
H472 C444 0.930 . S
H473 C445 0.929 . S
H474 C447 0.930 . S
H475 C448 0.929 . S
H476 C453 0.930 . S
H477 C454 0.929 . S
H478 C456 0.930 . S
H479 C457 0.929 . S
Nd480 C482 2.836 . S
Nd480 O500 2.500 . S
Nd480 O501 2.492 . S
Nd480 O502 2.487 . S
Nd480 O503 2.682 . S
Nd480 O504 2.410 . S
Nd480 O509 2.414 . S
Nd480 O511 2.424 . S
Nd481 C491 2.836 . S
Nd481 O503 2.414 . S
Nd481 O505 2.424 . S
Nd481 O506 2.500 . S
Nd481 O507 2.492 . S
Nd481 O508 2.487 . S
Nd481 O509 2.682 . S
Nd481 O510 2.410 . S
C482 Nd480 2.836 . S
C482 C483 1.498 . S
C482 O500 1.258 . S
C482 O501 1.239 . S
C483 C482 1.498 . S
C483 C484 1.366 . S
C483 C488 1.407 . S
C484 C483 1.366 . S
C484 C485 1.392 . S
C484 H512 0.930 . S
C485 C484 1.392 . S
C485 C486 1.398 . S
C485 H513 0.929 . S
C486 C485 1.398 . S
C486 C487 1.352 . S
C487 C486 1.352 . S
C487 C488 1.384 . S
C487 H514 0.930 1_655 S
C488 C483 1.407 . S
C488 C487 1.384 . S
C488 H515 0.929 . S
C489 O502 1.241 . S
C489 O503 1.273 . S
C490 O504 1.251 . S
C490 O505 1.268 . S
C491 Nd481 2.836 . S
C491 C492 1.498 . S
C491 O506 1.258 . S
C491 O507 1.239 . S
C492 C491 1.498 . S
C492 C493 1.366 . S
C492 C497 1.407 . S
C493 C492 1.366 . S
C493 C494 1.392 . S
C493 H516 0.930 . S
C494 C493 1.392 . S
C494 C495 1.398 . S
C494 H517 0.929 . S
C495 C494 1.398 . S
C495 C496 1.352 . S
C496 C495 1.352 . S
C496 C497 1.384 . S
C496 H518 0.930 . S
C497 C492 1.407 . S
C497 C496 1.384 . S
C497 H519 0.929 . S
C498 O508 1.241 . S
C498 O509 1.273 . S
C499 O510 1.251 . S
C499 O511 1.268 . S
O500 Nd480 2.500 . S
O500 C482 1.258 . S
O501 Nd480 2.492 . S
O501 C482 1.239 . S
O502 Nd480 2.487 . S
O502 C489 1.241 . S
O503 Nd480 2.682 . S
O503 Nd481 2.414 . S
O503 C489 1.273 . S
O504 Nd480 2.410 . S
O504 C490 1.251 . S
O505 Nd481 2.424 . S
O505 C490 1.268 . S
O506 Nd481 2.500 . S
O506 C491 1.258 . S
O507 Nd481 2.492 . S
O507 C491 1.239 . S
O508 Nd481 2.487 . S
O508 C498 1.241 . S
O509 Nd480 2.414 . S
O509 Nd481 2.682 . S
O509 C498 1.273 . S
O510 Nd481 2.410 . S
O510 C499 1.251 . S
O511 Nd480 2.424 . S
O511 C499 1.268 . S
H512 C484 0.930 . S
H513 C485 0.929 . S
H514 C487 0.930 1_455 S
H515 C488 0.929 . S
H516 C493 0.930 . S
H517 C494 0.929 . S
H518 C496 0.930 . S
H519 C497 0.929 . S
Nd520 C522 2.836 . S
Nd520 O540 2.500 . S
Nd520 O541 2.492 . S
Nd520 O542 2.487 . S
Nd520 O543 2.682 . S
Nd520 O544 2.410 . S
Nd520 O549 2.414 . S
Nd520 O551 2.424 . S
Nd521 C531 2.836 . S
Nd521 O543 2.414 . S
Nd521 O545 2.424 . S
Nd521 O546 2.500 . S
Nd521 O547 2.492 . S
Nd521 O548 2.487 . S
Nd521 O549 2.682 . S
Nd521 O550 2.410 . S
C522 Nd520 2.836 . S
C522 C523 1.498 . S
C522 O540 1.258 . S
C522 O541 1.239 . S
C523 C522 1.498 . S
C523 C524 1.366 . S
C523 C528 1.407 . S
C524 C523 1.366 . S
C524 C525 1.392 . S
C524 H552 0.930 . S
C525 C524 1.392 . S
C525 C526 1.398 . S
C525 H553 0.929 . S
C526 C525 1.398 . S
C526 C527 1.352 . S
C527 C526 1.352 . S
C527 C528 1.384 . S
C527 H554 0.930 . S
C528 C523 1.407 . S
C528 C527 1.384 . S
C528 H555 0.929 . S
C529 O542 1.241 . S
C529 O543 1.273 . S
C530 O544 1.251 . S
C530 O545 1.268 . S
C531 Nd521 2.836 . S
C531 C532 1.498 . S
C531 O546 1.258 . S
C531 O547 1.239 . S
C532 C531 1.498 . S
C532 C533 1.366 . S
C532 C537 1.407 . S
C533 C532 1.366 . S
C533 C534 1.392 . S
C533 H556 0.930 . S
C534 C533 1.392 . S
C534 C535 1.398 . S
C534 H557 0.929 . S
C535 C534 1.398 . S
C535 C536 1.352 . S
C536 C535 1.352 . S
C536 C537 1.384 . S
C536 H558 0.930 . S
C537 C532 1.407 . S
C537 C536 1.384 . S
C537 H559 0.929 . S
C538 O548 1.241 . S
C538 O549 1.273 . S
C539 O550 1.251 . S
C539 O551 1.268 . S
O540 Nd520 2.500 . S
O540 C522 1.258 . S
O541 Nd520 2.492 . S
O541 C522 1.239 . S
O542 Nd520 2.487 . S
O542 C529 1.241 . S
O543 Nd520 2.682 . S
O543 Nd521 2.414 . S
O543 C529 1.273 . S
O544 Nd520 2.410 . S
O544 C530 1.251 . S
O545 Nd521 2.424 . S
O545 C530 1.268 . S
O546 Nd521 2.500 . S
O546 C531 1.258 . S
O547 Nd521 2.492 . S
O547 C531 1.239 . S
O548 Nd521 2.487 . S
O548 C538 1.241 . S
O549 Nd520 2.414 . S
O549 Nd521 2.682 . S
O549 C538 1.273 . S
O550 Nd521 2.410 . S
O550 C539 1.251 . S
O551 Nd520 2.424 . S
O551 C539 1.268 . S
H552 C524 0.930 . S
H553 C525 0.929 . S
H554 C527 0.930 . S
H555 C528 0.929 . S
H556 C533 0.930 . S
H557 C534 0.929 . S
H558 C536 0.930 . S
H559 C537 0.929 . S
Nd560 C562 2.836 . S
Nd560 O580 2.500 . S
Nd560 O581 2.492 . S
Nd560 O582 2.487 . S
Nd560 O583 2.682 . S
Nd560 O584 2.410 . S
Nd560 O589 2.414 . S
Nd560 O591 2.424 . S
Nd561 C571 2.836 . S
Nd561 O583 2.414 . S
Nd561 O585 2.424 . S
Nd561 O586 2.500 . S
Nd561 O587 2.492 . S
Nd561 O588 2.487 . S
Nd561 O589 2.682 . S
Nd561 O590 2.410 . S
C562 Nd560 2.836 . S
C562 C563 1.498 . S
C562 O580 1.258 . S
C562 O581 1.239 . S
C563 C562 1.498 . S
C563 C564 1.366 . S
C563 C568 1.407 . S
C564 C563 1.366 . S
C564 C565 1.392 . S
C564 H592 0.930 . S
C565 C564 1.392 . S
C565 C566 1.398 . S
C565 H593 0.929 . S
C566 C565 1.398 . S
C566 C567 1.352 . S
C567 C566 1.352 . S
C567 C568 1.384 . S
C567 H594 0.930 1_545 S
C568 C563 1.407 . S
C568 C567 1.384 . S
C568 H595 0.929 . S
C569 O582 1.241 . S
C569 O583 1.273 . S
C570 O584 1.251 . S
C570 O585 1.268 . S
C571 Nd561 2.836 . S
C571 C572 1.498 . S
C571 O586 1.258 . S
C571 O587 1.239 . S
C572 C571 1.498 . S
C572 C573 1.366 . S
C572 C577 1.407 . S
C573 C572 1.366 . S
C573 C574 1.392 . S
C573 H596 0.930 . S
C574 C573 1.392 . S
C574 C575 1.398 . S
C574 H597 0.929 . S
C575 C574 1.398 . S
C575 C576 1.352 . S
C576 C575 1.352 . S
C576 C577 1.384 . S
C576 H598 0.930 . S
C577 C572 1.407 . S
C577 C576 1.384 . S
C577 H599 0.929 . S
C578 O588 1.241 . S
C578 O589 1.273 . S
C579 O590 1.251 . S
C579 O591 1.268 . S
O580 Nd560 2.500 . S
O580 C562 1.258 . S
O581 Nd560 2.492 . S
O581 C562 1.239 . S
O582 Nd560 2.487 . S
O582 C569 1.241 . S
O583 Nd560 2.682 . S
O583 Nd561 2.414 . S
O583 C569 1.273 . S
O584 Nd560 2.410 . S
O584 C570 1.251 . S
O585 Nd561 2.424 . S
O585 C570 1.268 . S
O586 Nd561 2.500 . S
O586 C571 1.258 . S
O587 Nd561 2.492 . S
O587 C571 1.239 . S
O588 Nd561 2.487 . S
O588 C578 1.241 . S
O589 Nd560 2.414 . S
O589 Nd561 2.682 . S
O589 C578 1.273 . S
O590 Nd561 2.410 . S
O590 C579 1.251 . S
O591 Nd560 2.424 . S
O591 C579 1.268 . S
H592 C564 0.930 . S
H593 C565 0.929 . S
H594 C567 0.930 1_565 S
H595 C568 0.929 . S
H596 C573 0.930 . S
H597 C574 0.929 . S
H598 C576 0.930 . S
H599 C577 0.929 . S
Nd600 C602 2.836 . S
Nd600 O620 2.500 . S
Nd600 O621 2.492 . S
Nd600 O622 2.487 . S
Nd600 O623 2.682 . S
Nd600 O624 2.410 . S
Nd600 O629 2.414 . S
Nd600 O631 2.424 . S
Nd601 C611 2.836 . S
Nd601 O623 2.414 . S
Nd601 O625 2.424 . S
Nd601 O626 2.500 . S
Nd601 O627 2.492 . S
Nd601 O628 2.487 . S
Nd601 O629 2.682 . S
Nd601 O630 2.410 . S
C602 Nd600 2.836 . S
C602 C603 1.498 . S
C602 O620 1.258 . S
C602 O621 1.239 . S
C603 C602 1.498 . S
C603 C604 1.366 . S
C603 C608 1.407 . S
C604 C603 1.366 . S
C604 C605 1.392 . S
C604 H632 0.930 . S
C605 C604 1.392 . S
C605 C606 1.398 . S
C605 H633 0.929 . S
C606 C605 1.398 . S
C606 C607 1.352 . S
C607 C606 1.352 . S
C607 C608 1.384 . S
C607 H634 0.930 . S
C608 C603 1.407 . S
C608 C607 1.384 . S
C608 H635 0.929 . S
C609 O622 1.241 . S
C609 O623 1.273 . S
C610 O624 1.251 . S
C610 O625 1.268 . S
C611 Nd601 2.836 . S
C611 C612 1.498 . S
C611 O626 1.258 . S
C611 O627 1.239 . S
C612 C611 1.498 . S
C612 C613 1.366 . S
C612 C617 1.407 . S
C613 C612 1.366 . S
C613 C614 1.392 . S
C613 H636 0.930 . S
C614 C613 1.392 . S
C614 C615 1.398 . S
C614 H637 0.929 1_655 S
C615 C614 1.398 . S
C615 C616 1.352 . S
C616 C615 1.352 . S
C616 C617 1.384 . S
C616 H638 0.930 . S
C617 C612 1.407 . S
C617 C616 1.384 . S
C617 H639 0.929 . S
C618 O628 1.241 . S
C618 O629 1.273 . S
C619 O630 1.251 . S
C619 O631 1.268 . S
O620 Nd600 2.500 . S
O620 C602 1.258 . S
O621 Nd600 2.492 . S
O621 C602 1.239 . S
O622 Nd600 2.487 . S
O622 C609 1.241 . S
O623 Nd600 2.682 . S
O623 Nd601 2.414 . S
O623 C609 1.273 . S
O624 Nd600 2.410 . S
O624 C610 1.251 . S
O625 Nd601 2.424 . S
O625 C610 1.268 . S
O626 Nd601 2.500 . S
O626 C611 1.258 . S
O627 Nd601 2.492 . S
O627 C611 1.239 . S
O628 Nd601 2.487 . S
O628 C618 1.241 . S
O629 Nd600 2.414 . S
O629 Nd601 2.682 . S
O629 C618 1.273 . S
O630 Nd601 2.410 . S
O630 C619 1.251 . S
O631 Nd600 2.424 . S
O631 C619 1.268 . S
H632 C604 0.930 . S
H633 C605 0.929 . S
H634 C607 0.930 . S
H635 C608 0.929 . S
H636 C613 0.930 . S
H637 C614 0.929 1_455 S
H638 C616 0.930 . S
H639 C617 0.929 . S
Nd640 C642 2.836 . S
Nd640 O660 2.500 . S
Nd640 O661 2.492 . S
Nd640 O662 2.487 . S
Nd640 O663 2.682 . S
Nd640 O664 2.410 . S
Nd640 O669 2.414 . S
Nd640 O671 2.424 . S
Nd641 C651 2.836 . S
Nd641 O663 2.414 . S
Nd641 O665 2.424 . S
Nd641 O666 2.500 . S
Nd641 O667 2.492 . S
Nd641 O668 2.487 . S
Nd641 O669 2.682 . S
Nd641 O670 2.410 . S
C642 Nd640 2.836 . S
C642 C643 1.498 . S
C642 O660 1.258 . S
C642 O661 1.239 . S
C643 C642 1.498 . S
C643 C644 1.366 . S
C643 C648 1.407 . S
C644 C643 1.366 . S
C644 C645 1.392 . S
C644 H672 0.930 . S
C645 C644 1.392 . S
C645 C646 1.398 . S
C645 H673 0.929 . S
C646 C645 1.398 . S
C646 C647 1.352 . S
C647 C646 1.352 . S
C647 C648 1.384 . S
C647 H674 0.930 . S
C648 C643 1.407 . S
C648 C647 1.384 . S
C648 H675 0.929 . S
C649 O662 1.241 . S
C649 O663 1.273 . S
C650 O664 1.251 . S
C650 O665 1.268 . S
C651 Nd641 2.836 . S
C651 C652 1.498 . S
C651 O666 1.258 . S
C651 O667 1.239 . S
C652 C651 1.498 . S
C652 C653 1.366 . S
C652 C657 1.407 . S
C653 C652 1.366 . S
C653 C654 1.392 . S
C653 H676 0.930 . S
C654 C653 1.392 . S
C654 C655 1.398 . S
C654 H677 0.929 . S
C655 C654 1.398 . S
C655 C656 1.352 . S
C656 C655 1.352 . S
C656 C657 1.384 . S
C656 H678 0.930 . S
C657 C652 1.407 . S
C657 C656 1.384 . S
C657 H679 0.929 . S
C658 O668 1.241 . S
C658 O669 1.273 . S
C659 O670 1.251 . S
C659 O671 1.268 . S
O660 Nd640 2.500 . S
O660 C642 1.258 . S
O661 Nd640 2.492 . S
O661 C642 1.239 . S
O662 Nd640 2.487 . S
O662 C649 1.241 . S
O663 Nd640 2.682 . S
O663 Nd641 2.414 . S
O663 C649 1.273 . S
O664 Nd640 2.410 . S
O664 C650 1.251 . S
O665 Nd641 2.424 . S
O665 C650 1.268 . S
O666 Nd641 2.500 . S
O666 C651 1.258 . S
O667 Nd641 2.492 . S
O667 C651 1.239 . S
O668 Nd641 2.487 . S
O668 C658 1.241 . S
O669 Nd640 2.414 . S
O669 Nd641 2.682 . S
O669 C658 1.273 . S
O670 Nd641 2.410 . S
O670 C659 1.251 . S
O671 Nd640 2.424 . S
O671 C659 1.268 . S
H672 C644 0.930 . S
H673 C645 0.929 . S
H674 C647 0.930 . S
H675 C648 0.929 . S
H676 C653 0.930 . S
H677 C654 0.929 . S
H678 C656 0.930 . S
H679 C657 0.929 . S
Nd680 C682 2.836 . S
Nd680 O700 2.500 . S
Nd680 O701 2.492 . S
Nd680 O702 2.487 . S
Nd680 O703 2.682 . S
Nd680 O704 2.410 . S
Nd680 O709 2.414 . S
Nd680 O711 2.424 . S
Nd681 C691 2.836 . S
Nd681 O703 2.414 . S
Nd681 O705 2.424 . S
Nd681 O706 2.500 . S
Nd681 O707 2.492 . S
Nd681 O708 2.487 . S
Nd681 O709 2.682 . S
Nd681 O710 2.410 . S
C682 Nd680 2.836 . S
C682 C683 1.498 . S
C682 O700 1.258 . S
C682 O701 1.239 . S
C683 C682 1.498 . S
C683 C684 1.366 . S
C683 C688 1.407 . S
C684 C683 1.366 . S
C684 C685 1.392 . S
C684 H712 0.930 . S
C685 C684 1.392 . S
C685 C686 1.398 . S
C685 H713 0.929 . S
C686 C685 1.398 . S
C686 C687 1.352 . S
C687 C686 1.352 . S
C687 C688 1.384 . S
C687 H714 0.930 . S
C688 C683 1.407 . S
C688 C687 1.384 . S
C688 H715 0.929 . S
C689 O702 1.241 . S
C689 O703 1.273 . S
C690 O704 1.251 . S
C690 O705 1.268 . S
C691 Nd681 2.836 . S
C691 C692 1.498 . S
C691 O706 1.258 . S
C691 O707 1.239 . S
C692 C691 1.498 . S
C692 C693 1.366 . S
C692 C697 1.407 . S
C693 C692 1.366 . S
C693 C694 1.392 . S
C693 H716 0.930 . S
C694 C693 1.392 . S
C694 C695 1.398 . S
C694 H717 0.929 1_545 S
C695 C694 1.398 . S
C695 C696 1.352 . S
C696 C695 1.352 . S
C696 C697 1.384 . S
C696 H718 0.930 . S
C697 C692 1.407 . S
C697 C696 1.384 . S
C697 H719 0.929 . S
C698 O708 1.241 . S
C698 O709 1.273 . S
C699 O710 1.251 . S
C699 O711 1.268 . S
O700 Nd680 2.500 . S
O700 C682 1.258 . S
O701 Nd680 2.492 . S
O701 C682 1.239 . S
O702 Nd680 2.487 . S
O702 C689 1.241 . S
O703 Nd680 2.682 . S
O703 Nd681 2.414 . S
O703 C689 1.273 . S
O704 Nd680 2.410 . S
O704 C690 1.251 . S
O705 Nd681 2.424 . S
O705 C690 1.268 . S
O706 Nd681 2.500 . S
O706 C691 1.258 . S
O707 Nd681 2.492 . S
O707 C691 1.239 . S
O708 Nd681 2.487 . S
O708 C698 1.241 . S
O709 Nd680 2.414 . S
O709 Nd681 2.682 . S
O709 C698 1.273 . S
O710 Nd681 2.410 . S
O710 C699 1.251 . S
O711 Nd680 2.424 . S
O711 C699 1.268 . S
H712 C684 0.930 . S
H713 C685 0.929 . S
H714 C687 0.930 . S
H715 C688 0.929 . S
H716 C693 0.930 . S
H717 C694 0.929 1_565 S
H718 C696 0.930 . S
H719 C697 0.929 . S
Nd720 C722 2.836 . S
Nd720 O740 2.500 . S
Nd720 O741 2.492 . S
Nd720 O742 2.487 . S
Nd720 O743 2.682 . S
Nd720 O744 2.410 . S
Nd720 O749 2.414 . S
Nd720 O751 2.424 . S
Nd721 C731 2.836 1_545 S
Nd721 O743 2.414 . S
Nd721 O745 2.424 . S
Nd721 O746 2.500 1_545 S
Nd721 O747 2.492 . S
Nd721 O748 2.487 . S
Nd721 O749 2.682 . S
Nd721 O750 2.410 . S
C722 Nd720 2.836 . S
C722 C723 1.498 . S
C722 O740 1.258 . S
C722 O741 1.239 . S
C723 C722 1.498 . S
C723 C724 1.366 . S
C723 C728 1.407 . S
C724 C723 1.366 . S
C724 C725 1.392 . S
C724 H752 0.930 . S
C725 C724 1.392 . S
C725 C726 1.398 . S
C725 H753 0.929 . S
C726 C725 1.398 . S
C726 C727 1.352 . S
C727 C726 1.352 . S
C727 C728 1.384 . S
C727 H754 0.930 . S
C728 C723 1.407 . S
C728 C727 1.384 . S
C728 H755 0.929 . S
C729 O742 1.241 . S
C729 O743 1.273 . S
C730 O744 1.251 . S
C730 O745 1.268 . S
C731 Nd721 2.836 1_565 S
C731 C732 1.498 . S
C731 O746 1.258 . S
C731 O747 1.239 1_565 S
C732 C731 1.498 . S
C732 C733 1.366 . S
C732 C737 1.407 . S
C733 C732 1.366 . S
C733 C734 1.392 . S
C733 H756 0.930 . S
C734 C733 1.392 . S
C734 C735 1.398 . S
C734 H757 0.929 . S
C735 C734 1.398 . S
C735 C736 1.352 . S
C736 C735 1.352 . S
C736 C737 1.384 . S
C736 H758 0.930 . S
C737 C732 1.407 . S
C737 C736 1.384 . S
C737 H759 0.929 . S
C738 O748 1.241 . S
C738 O749 1.273 . S
C739 O750 1.251 . S
C739 O751 1.268 . S
O740 Nd720 2.500 . S
O740 C722 1.258 . S
O741 Nd720 2.492 . S
O741 C722 1.239 . S
O742 Nd720 2.487 . S
O742 C729 1.241 . S
O743 Nd720 2.682 . S
O743 Nd721 2.414 . S
O743 C729 1.273 . S
O744 Nd720 2.410 . S
O744 C730 1.251 . S
O745 Nd721 2.424 . S
O745 C730 1.268 . S
O746 Nd721 2.500 1_565 S
O746 C731 1.258 . S
O747 Nd721 2.492 . S
O747 C731 1.239 1_545 S
O748 Nd721 2.487 . S
O748 C738 1.241 . S
O749 Nd720 2.414 . S
O749 Nd721 2.682 . S
O749 C738 1.273 . S
O750 Nd721 2.410 . S
O750 C739 1.251 . S
O751 Nd720 2.424 . S
O751 C739 1.268 . S
H752 C724 0.930 . S
H753 C725 0.929 . S
H754 C727 0.930 . S
H755 C728 0.929 . S
H756 C733 0.930 . S
H757 C734 0.929 . S
H758 C736 0.930 . S
H759 C737 0.929 . S
Nd760 C762 2.836 . S
Nd760 O780 2.500 . S
Nd760 O781 2.492 . S
Nd760 O782 2.487 . S
Nd760 O783 2.682 . S
Nd760 O784 2.410 . S
Nd760 O789 2.414 . S
Nd760 O791 2.424 . S
Nd761 C771 2.836 1_655 S
Nd761 O783 2.414 . S
Nd761 O785 2.424 . S
Nd761 O786 2.500 1_655 S
Nd761 O787 2.492 . S
Nd761 O788 2.487 . S
Nd761 O789 2.682 . S
Nd761 O790 2.410 . S
C762 Nd760 2.836 . S
C762 C763 1.498 . S
C762 O780 1.258 . S
C762 O781 1.239 . S
C763 C762 1.498 . S
C763 C764 1.366 . S
C763 C768 1.407 . S
C764 C763 1.366 . S
C764 C765 1.392 . S
C764 H792 0.930 . S
C765 C764 1.392 . S
C765 C766 1.398 . S
C765 H793 0.929 . S
C766 C765 1.398 . S
C766 C767 1.352 . S
C767 C766 1.352 . S
C767 C768 1.384 . S
C767 H794 0.930 . S
C768 C763 1.407 . S
C768 C767 1.384 . S
C768 H795 0.929 . S
C769 O782 1.241 . S
C769 O783 1.273 . S
C770 O784 1.251 . S
C770 O785 1.268 . S
C771 Nd761 2.836 1_455 S
C771 C772 1.498 . S
C771 O786 1.258 . S
C771 O787 1.239 1_455 S
C772 C771 1.498 . S
C772 C773 1.366 . S
C772 C777 1.407 . S
C773 C772 1.366 . S
C773 C774 1.392 . S
C773 H796 0.930 . S
C774 C773 1.392 . S
C774 C775 1.398 . S
C774 H797 0.929 . S
C775 C774 1.398 . S
C775 C776 1.352 . S
C776 C775 1.352 . S
C776 C777 1.384 . S
C776 H798 0.930 . S
C777 C772 1.407 . S
C777 C776 1.384 . S
C777 H799 0.929 . S
C778 O788 1.241 . S
C778 O789 1.273 . S
C779 O790 1.251 . S
C779 O791 1.268 . S
O780 Nd760 2.500 . S
O780 C762 1.258 . S
O781 Nd760 2.492 . S
O781 C762 1.239 . S
O782 Nd760 2.487 . S
O782 C769 1.241 . S
O783 Nd760 2.682 . S
O783 Nd761 2.414 . S
O783 C769 1.273 . S
O784 Nd760 2.410 . S
O784 C770 1.251 . S
O785 Nd761 2.424 . S
O785 C770 1.268 . S
O786 Nd761 2.500 1_455 S
O786 C771 1.258 . S
O787 Nd761 2.492 . S
O787 C771 1.239 1_655 S
O788 Nd761 2.487 . S
O788 C778 1.241 . S
O789 Nd760 2.414 . S
O789 Nd761 2.682 . S
O789 C778 1.273 . S
O790 Nd761 2.410 . S
O790 C779 1.251 . S
O791 Nd760 2.424 . S
O791 C779 1.268 . S
H792 C764 0.930 . S
H793 C765 0.929 . S
H794 C767 0.930 . S
H795 C768 0.929 . S
H796 C773 0.930 . S
H797 C774 0.929 . S
H798 C776 0.930 . S
H799 C777 0.929 . S
Nd800 C802 2.836 . S
Nd800 O820 2.500 . S
Nd800 O821 2.492 . S
Nd800 O822 2.487 . S
Nd800 O823 2.682 . S
Nd800 O824 2.410 . S
Nd800 O829 2.414 . S
Nd800 O831 2.424 . S
Nd801 C811 2.836 . S
Nd801 O823 2.414 . S
Nd801 O825 2.424 . S
Nd801 O826 2.500 . S
Nd801 O827 2.492 . S
Nd801 O828 2.487 . S
Nd801 O829 2.682 . S
Nd801 O830 2.410 . S
C802 Nd800 2.836 . S
C802 C803 1.498 . S
C802 O820 1.258 . S
C802 O821 1.239 . S
C803 C802 1.498 . S
C803 C804 1.366 . S
C803 C808 1.407 . S
C804 C803 1.366 . S
C804 C805 1.392 . S
C804 H832 0.930 . S
C805 C804 1.392 . S
C805 C806 1.398 . S
C805 H833 0.929 . S
C806 C805 1.398 . S
C806 C807 1.352 . S
C807 C806 1.352 . S
C807 C808 1.384 . S
C807 H834 0.930 . S
C808 C803 1.407 . S
C808 C807 1.384 . S
C808 H835 0.929 . S
C809 O822 1.241 . S
C809 O823 1.273 . S
C810 O824 1.251 . S
C810 O825 1.268 . S
C811 Nd801 2.836 . S
C811 C812 1.498 . S
C811 O826 1.258 . S
C811 O827 1.239 . S
C812 C811 1.498 . S
C812 C813 1.366 . S
C812 C817 1.407 . S
C813 C812 1.366 . S
C813 C814 1.392 . S
C813 H836 0.930 . S
C814 C813 1.392 . S
C814 C815 1.398 . S
C814 H837 0.929 . S
C815 C814 1.398 . S
C815 C816 1.352 . S
C816 C815 1.352 . S
C816 C817 1.384 . S
C816 H838 0.930 . S
C817 C812 1.407 . S
C817 C816 1.384 . S
C817 H839 0.929 . S
C818 O828 1.241 . S
C818 O829 1.273 . S
C819 O830 1.251 . S
C819 O831 1.268 . S
O820 Nd800 2.500 . S
O820 C802 1.258 . S
O821 Nd800 2.492 . S
O821 C802 1.239 . S
O822 Nd800 2.487 . S
O822 C809 1.241 . S
O823 Nd800 2.682 . S
O823 Nd801 2.414 . S
O823 C809 1.273 . S
O824 Nd800 2.410 . S
O824 C810 1.251 . S
O825 Nd801 2.424 . S
O825 C810 1.268 . S
O826 Nd801 2.500 . S
O826 C811 1.258 . S
O827 Nd801 2.492 . S
O827 C811 1.239 . S
O828 Nd801 2.487 . S
O828 C818 1.241 . S
O829 Nd800 2.414 . S
O829 Nd801 2.682 . S
O829 C818 1.273 . S
O830 Nd801 2.410 . S
O830 C819 1.251 . S
O831 Nd800 2.424 . S
O831 C819 1.268 . S
H832 C804 0.930 . S
H833 C805 0.929 . S
H834 C807 0.930 . S
H835 C808 0.929 . S
H836 C813 0.930 . S
H837 C814 0.929 . S
H838 C816 0.930 . S
H839 C817 0.929 . S
Nd840 C842 2.836 . S
Nd840 O860 2.500 . S
Nd840 O861 2.492 . S
Nd840 O862 2.487 . S
Nd840 O863 2.682 1_556 S
Nd840 O864 2.410 . S
Nd840 O869 2.414 . S
Nd840 O871 2.424 . S
Nd841 C851 2.836 . S
Nd841 O863 2.414 . S
Nd841 O865 2.424 . S
Nd841 O866 2.500 . S
Nd841 O867 2.492 . S
Nd841 O868 2.487 . S
Nd841 O869 2.682 1_554 S
Nd841 O870 2.410 . S
C842 Nd840 2.836 . S
C842 C843 1.498 . S
C842 O860 1.258 . S
C842 O861 1.239 . S
C843 C842 1.498 . S
C843 C844 1.366 . S
C843 C848 1.407 . S
C844 C843 1.366 . S
C844 C845 1.392 . S
C844 H872 0.930 . S
C845 C844 1.392 . S
C845 C846 1.398 . S
C845 H873 0.929 . S
C846 C845 1.398 . S
C846 C847 1.352 . S
C847 C846 1.352 . S
C847 C848 1.384 . S
C847 H874 0.930 . S
C848 C843 1.407 . S
C848 C847 1.384 . S
C848 H875 0.929 . S
C849 O862 1.241 . S
C849 O863 1.273 1_556 S
C850 O864 1.251 . S
C850 O865 1.268 1_556 S
C851 Nd841 2.836 . S
C851 C852 1.498 . S
C851 O866 1.258 . S
C851 O867 1.239 . S
C852 C851 1.498 . S
C852 C853 1.366 . S
C852 C857 1.407 . S
C853 C852 1.366 . S
C853 C854 1.392 . S
C853 H876 0.930 . S
C854 C853 1.392 . S
C854 C855 1.398 . S
C854 H877 0.929 . S
C855 C854 1.398 . S
C855 C856 1.352 . S
C856 C855 1.352 . S
C856 C857 1.384 . S
C856 H878 0.930 . S
C857 C852 1.407 . S
C857 C856 1.384 . S
C857 H879 0.929 . S
C858 O868 1.241 . S
C858 O869 1.273 1_554 S
C859 O870 1.251 . S
C859 O871 1.268 1_554 S
O860 Nd840 2.500 . S
O860 C842 1.258 . S
O861 Nd840 2.492 . S
O861 C842 1.239 . S
O862 Nd840 2.487 . S
O862 C849 1.241 . S
O863 Nd840 2.682 1_554 S
O863 Nd841 2.414 . S
O863 C849 1.273 1_554 S
O864 Nd840 2.410 . S
O864 C850 1.251 . S
O865 Nd841 2.424 . S
O865 C850 1.268 1_554 S
O866 Nd841 2.500 . S
O866 C851 1.258 . S
O867 Nd841 2.492 . S
O867 C851 1.239 . S
O868 Nd841 2.487 . S
O868 C858 1.241 . S
O869 Nd840 2.414 . S
O869 Nd841 2.682 1_556 S
O869 C858 1.273 1_556 S
O870 Nd841 2.410 . S
O870 C859 1.251 . S
O871 Nd840 2.424 . S
O871 C859 1.268 1_556 S
H872 C844 0.930 . S
H873 C845 0.929 . S
H874 C847 0.930 . S
H875 C848 0.929 . S
H876 C853 0.930 . S
H877 C854 0.929 . S
H878 C856 0.930 . S
H879 C857 0.929 . S
Nd880 C882 2.836 . S
Nd880 O900 2.500 . S
Nd880 O901 2.492 . S
Nd880 O902 2.487 . S
Nd880 O903 2.682 1_556 S
Nd880 O904 2.410 . S
Nd880 O909 2.414 . S
Nd880 O911 2.424 . S
Nd881 C891 2.836 . S
Nd881 O903 2.414 . S
Nd881 O905 2.424 . S
Nd881 O906 2.500 . S
Nd881 O907 2.492 . S
Nd881 O908 2.487 . S
Nd881 O909 2.682 1_554 S
Nd881 O910 2.410 . S
C882 Nd880 2.836 . S
C882 C883 1.498 . S
C882 O900 1.258 . S
C882 O901 1.239 . S
C883 C882 1.498 . S
C883 C884 1.366 . S
C883 C888 1.407 . S
C884 C883 1.366 . S
C884 C885 1.392 . S
C884 H912 0.930 . S
C885 C884 1.392 . S
C885 C886 1.398 . S
C885 H913 0.929 . S
C886 C885 1.398 . S
C886 C887 1.352 . S
C887 C886 1.352 . S
C887 C888 1.384 . S
C887 H914 0.930 . S
C888 C883 1.407 . S
C888 C887 1.384 . S
C888 H915 0.929 . S
C889 O902 1.241 . S
C889 O903 1.273 1_556 S
C890 O904 1.251 . S
C890 O905 1.268 1_556 S
C891 Nd881 2.836 . S
C891 C892 1.498 . S
C891 O906 1.258 . S
C891 O907 1.239 . S
C892 C891 1.498 . S
C892 C893 1.366 . S
C892 C897 1.407 . S
C893 C892 1.366 . S
C893 C894 1.392 . S
C893 H916 0.930 . S
C894 C893 1.392 . S
C894 C895 1.398 . S
C894 H917 0.929 . S
C895 C894 1.398 . S
C895 C896 1.352 . S
C896 C895 1.352 . S
C896 C897 1.384 . S
C896 H918 0.930 . S
C897 C892 1.407 . S
C897 C896 1.384 . S
C897 H919 0.929 . S
C898 O908 1.241 . S
C898 O909 1.273 1_554 S
C899 O910 1.251 . S
C899 O911 1.268 1_554 S
O900 Nd880 2.500 . S
O900 C882 1.258 . S
O901 Nd880 2.492 . S
O901 C882 1.239 . S
O902 Nd880 2.487 . S
O902 C889 1.241 . S
O903 Nd880 2.682 1_554 S
O903 Nd881 2.414 . S
O903 C889 1.273 1_554 S
O904 Nd880 2.410 . S
O904 C890 1.251 . S
O905 Nd881 2.424 . S
O905 C890 1.268 1_554 S
O906 Nd881 2.500 . S
O906 C891 1.258 . S
O907 Nd881 2.492 . S
O907 C891 1.239 . S
O908 Nd881 2.487 . S
O908 C898 1.241 . S
O909 Nd880 2.414 . S
O909 Nd881 2.682 1_556 S
O909 C898 1.273 1_556 S
O910 Nd881 2.410 . S
O910 C899 1.251 . S
O911 Nd880 2.424 . S
O911 C899 1.268 1_556 S
H912 C884 0.930 . S
H913 C885 0.929 . S
H914 C887 0.930 . S
H915 C888 0.929 . S
H916 C893 0.930 . S
H917 C894 0.929 . S
H918 C896 0.930 . S
H919 C897 0.929 . S
Nd920 C922 2.836 . S
Nd920 O940 2.500 . S
Nd920 O941 2.492 . S
Nd920 O942 2.487 . S
Nd920 O943 2.682 1_556 S
Nd920 O944 2.410 . S
Nd920 O949 2.414 . S
Nd920 O951 2.424 . S
Nd921 C931 2.836 . S
Nd921 O943 2.414 . S
Nd921 O945 2.424 . S
Nd921 O946 2.500 . S
Nd921 O947 2.492 . S
Nd921 O948 2.487 . S
Nd921 O949 2.682 1_554 S
Nd921 O950 2.410 . S
C922 Nd920 2.836 . S
C922 C923 1.498 . S
C922 O940 1.258 . S
C922 O941 1.239 . S
C923 C922 1.498 . S
C923 C924 1.366 . S
C923 C928 1.407 . S
C924 C923 1.366 . S
C924 C925 1.392 . S
C924 H952 0.930 . S
C925 C924 1.392 . S
C925 C926 1.398 . S
C925 H953 0.929 . S
C926 C925 1.398 . S
C926 C927 1.352 . S
C927 C926 1.352 . S
C927 C928 1.384 . S
C927 H954 0.930 . S
C928 C923 1.407 . S
C928 C927 1.384 . S
C928 H955 0.929 . S
C929 O942 1.241 . S
C929 O943 1.273 1_556 S
C930 O944 1.251 . S
C930 O945 1.268 1_556 S
C931 Nd921 2.836 . S
C931 C932 1.498 . S
C931 O946 1.258 . S
C931 O947 1.239 . S
C932 C931 1.498 . S
C932 C933 1.366 . S
C932 C937 1.407 . S
C933 C932 1.366 . S
C933 C934 1.392 . S
C933 H956 0.930 . S
C934 C933 1.392 . S
C934 C935 1.398 . S
C934 H957 0.929 . S
C935 C934 1.398 . S
C935 C936 1.352 . S
C936 C935 1.352 . S
C936 C937 1.384 . S
C936 H958 0.930 . S
C937 C932 1.407 . S
C937 C936 1.384 . S
C937 H959 0.929 . S
C938 O948 1.241 . S
C938 O949 1.273 1_554 S
C939 O950 1.251 . S
C939 O951 1.268 1_554 S
O940 Nd920 2.500 . S
O940 C922 1.258 . S
O941 Nd920 2.492 . S
O941 C922 1.239 . S
O942 Nd920 2.487 . S
O942 C929 1.241 . S
O943 Nd920 2.682 1_554 S
O943 Nd921 2.414 . S
O943 C929 1.273 1_554 S
O944 Nd920 2.410 . S
O944 C930 1.251 . S
O945 Nd921 2.424 . S
O945 C930 1.268 1_554 S
O946 Nd921 2.500 . S
O946 C931 1.258 . S
O947 Nd921 2.492 . S
O947 C931 1.239 . S
O948 Nd921 2.487 . S
O948 C938 1.241 . S
O949 Nd920 2.414 . S
O949 Nd921 2.682 1_556 S
O949 C938 1.273 1_556 S
O950 Nd921 2.410 . S
O950 C939 1.251 . S
O951 Nd920 2.424 . S
O951 C939 1.268 1_556 S
H952 C924 0.930 . S
H953 C925 0.929 . S
H954 C927 0.930 . S
H955 C928 0.929 . S
H956 C933 0.930 . S
H957 C934 0.929 . S
H958 C936 0.930 . S
H959 C937 0.929 . S
Nd960 C962 2.836 1_565 S
Nd960 O980 2.500 1_565 S
Nd960 O981 2.492 . S
Nd960 O982 2.487 . S
Nd960 O983 2.682 . S
Nd960 O984 2.410 . S
Nd960 O989 2.414 . S
Nd960 O991 2.424 . S
Nd961 C971 2.836 . S
Nd961 O983 2.414 . S
Nd961 O985 2.424 . S
Nd961 O986 2.500 . S
Nd961 O987 2.492 . S
Nd961 O988 2.487 . S
Nd961 O989 2.682 . S
Nd961 O990 2.410 . S
C962 Nd960 2.836 1_545 S
C962 C963 1.498 . S
C962 O980 1.258 . S
C962 O981 1.239 1_545 S
C963 C962 1.498 . S
C963 C964 1.366 . S
C963 C968 1.407 . S
C964 C963 1.366 . S
C964 C965 1.392 . S
C964 H992 0.930 . S
C965 C964 1.392 . S
C965 C966 1.398 . S
C965 H993 0.929 . S
C966 C965 1.398 . S
C966 C967 1.352 . S
C967 C966 1.352 . S
C967 C968 1.384 . S
C967 H994 0.930 . S
C968 C963 1.407 . S
C968 C967 1.384 . S
C968 H995 0.929 . S
C969 O982 1.241 . S
C969 O983 1.273 . S
C970 O984 1.251 . S
C970 O985 1.268 . S
C971 Nd961 2.836 . S
C971 C972 1.498 . S
C971 O986 1.258 . S
C971 O987 1.239 . S
C972 C971 1.498 . S
C972 C973 1.366 . S
C972 C977 1.407 . S
C973 C972 1.366 . S
C973 C974 1.392 . S
C973 H996 0.930 . S
C974 C973 1.392 . S
C974 C975 1.398 . S
C974 H997 0.929 . S
C975 C974 1.398 . S
C975 C976 1.352 . S
C976 C975 1.352 . S
C976 C977 1.384 . S
C976 H998 0.930 . S
C977 C972 1.407 . S
C977 C976 1.384 . S
C977 H999 0.929 . S
C978 O988 1.241 . S
C978 O989 1.273 . S
C979 O990 1.251 . S
C979 O991 1.268 . S
O980 Nd960 2.500 1_545 S
O980 C962 1.258 . S
O981 Nd960 2.492 . S
O981 C962 1.239 1_565 S
O982 Nd960 2.487 . S
O982 C969 1.241 . S
O983 Nd960 2.682 . S
O983 Nd961 2.414 . S
O983 C969 1.273 . S
O984 Nd960 2.410 . S
O984 C970 1.251 . S
O985 Nd961 2.424 . S
O985 C970 1.268 . S
O986 Nd961 2.500 . S
O986 C971 1.258 . S
O987 Nd961 2.492 . S
O987 C971 1.239 . S
O988 Nd961 2.487 . S
O988 C978 1.241 . S
O989 Nd960 2.414 . S
O989 Nd961 2.682 . S
O989 C978 1.273 . S
O990 Nd961 2.410 . S
O990 C979 1.251 . S
O991 Nd960 2.424 . S
O991 C979 1.268 . S
H992 C964 0.930 . S
H993 C965 0.929 . S
H994 C967 0.930 . S
H995 C968 0.929 . S
H996 C973 0.930 . S
H997 C974 0.929 . S
H998 C976 0.930 . S
H999 C977 0.929 . S
Nd1000 C1002 2.836 1_455 S
Nd1000 O1020 2.500 1_455 S
Nd1000 O1021 2.492 . S
Nd1000 O1022 2.487 . S
Nd1000 O1023 2.682 . S
Nd1000 O1024 2.410 . S
Nd1000 O1029 2.414 . S
Nd1000 O1031 2.424 . S
Nd1001 C1011 2.836 . S
Nd1001 O1023 2.414 . S
Nd1001 O1025 2.424 . S
Nd1001 O1026 2.500 . S
Nd1001 O1027 2.492 . S
Nd1001 O1028 2.487 . S
Nd1001 O1029 2.682 . S
Nd1001 O1030 2.410 . S
C1002 Nd1000 2.836 1_655 S
C1002 C1003 1.498 . S
C1002 O1020 1.258 . S
C1002 O1021 1.239 1_655 S
C1003 C1002 1.498 . S
C1003 C1004 1.366 . S
C1003 C1008 1.407 . S
C1004 C1003 1.366 . S
C1004 C1005 1.392 . S
C1004 H1032 0.930 . S
C1005 C1004 1.392 . S
C1005 C1006 1.398 . S
C1005 H1033 0.929 . S
C1006 C1005 1.398 . S
C1006 C1007 1.352 . S
C1007 C1006 1.352 . S
C1007 C1008 1.384 . S
C1007 H1034 0.930 . S
C1008 C1003 1.407 . S
C1008 C1007 1.384 . S
C1008 H1035 0.929 . S
C1009 O1022 1.241 . S
C1009 O1023 1.273 . S
C1010 O1024 1.251 . S
C1010 O1025 1.268 . S
C1011 Nd1001 2.836 . S
C1011 C1012 1.498 . S
C1011 O1026 1.258 . S
C1011 O1027 1.239 . S
C1012 C1011 1.498 . S
C1012 C1013 1.366 . S
C1012 C1017 1.407 . S
C1013 C1012 1.366 . S
C1013 C1014 1.392 . S
C1013 H1036 0.930 . S
C1014 C1013 1.392 . S
C1014 C1015 1.398 . S
C1014 H1037 0.929 . S
C1015 C1014 1.398 . S
C1015 C1016 1.352 . S
C1016 C1015 1.352 . S
C1016 C1017 1.384 . S
C1016 H1038 0.930 . S
C1017 C1012 1.407 . S
C1017 C1016 1.384 . S
C1017 H1039 0.929 . S
C1018 O1028 1.241 . S
C1018 O1029 1.273 . S
C1019 O1030 1.251 . S
C1019 O1031 1.268 . S
O1020 Nd1000 2.500 1_655 S
O1020 C1002 1.258 . S
O1021 Nd1000 2.492 . S
O1021 C1002 1.239 1_455 S
O1022 Nd1000 2.487 . S
O1022 C1009 1.241 . S
O1023 Nd1000 2.682 . S
O1023 Nd1001 2.414 . S
O1023 C1009 1.273 . S
O1024 Nd1000 2.410 . S
O1024 C1010 1.251 . S
O1025 Nd1001 2.424 . S
O1025 C1010 1.268 . S
O1026 Nd1001 2.500 . S
O1026 C1011 1.258 . S
O1027 Nd1001 2.492 . S
O1027 C1011 1.239 . S
O1028 Nd1001 2.487 . S
O1028 C1018 1.241 . S
O1029 Nd1000 2.414 . S
O1029 Nd1001 2.682 . S
O1029 C1018 1.273 . S
O1030 Nd1001 2.410 . S
O1030 C1019 1.251 . S
O1031 Nd1000 2.424 . S
O1031 C1019 1.268 . S
H1032 C1004 0.930 . S
H1033 C1005 0.929 . S
H1034 C1007 0.930 . S
H1035 C1008 0.929 . S
H1036 C1013 0.930 . S
H1037 C1014 0.929 . S
H1038 C1016 0.930 . S
H1039 C1017 0.929 . S
Nd1040 C1042 2.836 . S
Nd1040 O1060 2.500 . S
Nd1040 O1061 2.492 . S
Nd1040 O1062 2.487 . S
Nd1040 O1063 2.682 . S
Nd1040 O1064 2.410 . S
Nd1040 O1069 2.414 . S
Nd1040 O1071 2.424 . S
Nd1041 C1051 2.836 . S
Nd1041 O1063 2.414 . S
Nd1041 O1065 2.424 . S
Nd1041 O1066 2.500 . S
Nd1041 O1067 2.492 . S
Nd1041 O1068 2.487 . S
Nd1041 O1069 2.682 . S
Nd1041 O1070 2.410 . S
C1042 Nd1040 2.836 . S
C1042 C1043 1.498 . S
C1042 O1060 1.258 . S
C1042 O1061 1.239 . S
C1043 C1042 1.498 . S
C1043 C1044 1.366 . S
C1043 C1048 1.407 . S
C1044 C1043 1.366 . S
C1044 C1045 1.392 . S
C1044 H1072 0.930 . S
C1045 C1044 1.392 . S
C1045 C1046 1.398 . S
C1045 H1073 0.929 . S
C1046 C1045 1.398 . S
C1046 C1047 1.352 . S
C1047 C1046 1.352 . S
C1047 C1048 1.384 . S
C1047 H1074 0.930 . S
C1048 C1043 1.407 . S
C1048 C1047 1.384 . S
C1048 H1075 0.929 . S
C1049 O1062 1.241 . S
C1049 O1063 1.273 . S
C1050 O1064 1.251 . S
C1050 O1065 1.268 . S
C1051 Nd1041 2.836 . S
C1051 C1052 1.498 . S
C1051 O1066 1.258 . S
C1051 O1067 1.239 . S
C1052 C1051 1.498 . S
C1052 C1053 1.366 . S
C1052 C1057 1.407 . S
C1053 C1052 1.366 . S
C1053 C1054 1.392 . S
C1053 H1076 0.930 . S
C1054 C1053 1.392 . S
C1054 C1055 1.398 . S
C1054 H1077 0.929 . S
C1055 C1054 1.398 . S
C1055 C1056 1.352 . S
C1056 C1055 1.352 . S
C1056 C1057 1.384 . S
C1056 H1078 0.930 . S
C1057 C1052 1.407 . S
C1057 C1056 1.384 . S
C1057 H1079 0.929 . S
C1058 O1068 1.241 . S
C1058 O1069 1.273 . S
C1059 O1070 1.251 . S
C1059 O1071 1.268 . S
O1060 Nd1040 2.500 . S
O1060 C1042 1.258 . S
O1061 Nd1040 2.492 . S
O1061 C1042 1.239 . S
O1062 Nd1040 2.487 . S
O1062 C1049 1.241 . S
O1063 Nd1040 2.682 . S
O1063 Nd1041 2.414 . S
O1063 C1049 1.273 . S
O1064 Nd1040 2.410 . S
O1064 C1050 1.251 . S
O1065 Nd1041 2.424 . S
O1065 C1050 1.268 . S
O1066 Nd1041 2.500 . S
O1066 C1051 1.258 . S
O1067 Nd1041 2.492 . S
O1067 C1051 1.239 . S
O1068 Nd1041 2.487 . S
O1068 C1058 1.241 . S
O1069 Nd1040 2.414 . S
O1069 Nd1041 2.682 . S
O1069 C1058 1.273 . S
O1070 Nd1041 2.410 . S
O1070 C1059 1.251 . S
O1071 Nd1040 2.424 . S
O1071 C1059 1.268 . S
H1072 C1044 0.930 . S
H1073 C1045 0.929 . S
H1074 C1047 0.930 . S
H1075 C1048 0.929 . S
H1076 C1053 0.930 . S
H1077 C1054 0.929 . S
H1078 C1056 0.930 . S
H1079 C1057 0.929 . S
Nd1080 C1082 2.836 . S
Nd1080 O1100 2.500 . S
Nd1080 O1101 2.492 . S
Nd1080 O1102 2.487 . S
Nd1080 O1103 2.682 1_556 S
Nd1080 O1104 2.410 . S
Nd1080 O1109 2.414 . S
Nd1080 O1111 2.424 . S
Nd1081 C1091 2.836 . S
Nd1081 O1103 2.414 . S
Nd1081 O1105 2.424 . S
Nd1081 O1106 2.500 . S
Nd1081 O1107 2.492 . S
Nd1081 O1108 2.487 . S
Nd1081 O1109 2.682 1_554 S
Nd1081 O1110 2.410 . S
C1082 Nd1080 2.836 . S
C1082 C1083 1.498 . S
C1082 O1100 1.258 . S
C1082 O1101 1.239 . S
C1083 C1082 1.498 . S
C1083 C1084 1.366 . S
C1083 C1088 1.407 . S
C1084 C1083 1.366 . S
C1084 C1085 1.392 . S
C1084 H1112 0.930 . S
C1085 C1084 1.392 . S
C1085 C1086 1.398 . S
C1085 H1113 0.929 . S
C1086 C1085 1.398 . S
C1086 C1087 1.352 . S
C1087 C1086 1.352 . S
C1087 C1088 1.384 . S
C1087 H1114 0.930 . S
C1088 C1083 1.407 . S
C1088 C1087 1.384 . S
C1088 H1115 0.929 . S
C1089 O1102 1.241 . S
C1089 O1103 1.273 1_556 S
C1090 O1104 1.251 . S
C1090 O1105 1.268 1_556 S
C1091 Nd1081 2.836 . S
C1091 C1092 1.498 . S
C1091 O1106 1.258 . S
C1091 O1107 1.239 . S
C1092 C1091 1.498 . S
C1092 C1093 1.366 . S
C1092 C1097 1.407 . S
C1093 C1092 1.366 . S
C1093 C1094 1.392 . S
C1093 H1116 0.930 . S
C1094 C1093 1.392 . S
C1094 C1095 1.398 . S
C1094 H1117 0.929 . S
C1095 C1094 1.398 . S
C1095 C1096 1.352 . S
C1096 C1095 1.352 . S
C1096 C1097 1.384 . S
C1096 H1118 0.930 . S
C1097 C1092 1.407 . S
C1097 C1096 1.384 . S
C1097 H1119 0.929 . S
C1098 O1108 1.241 . S
C1098 O1109 1.273 1_554 S
C1099 O1110 1.251 . S
C1099 O1111 1.268 1_554 S
O1100 Nd1080 2.500 . S
O1100 C1082 1.258 . S
O1101 Nd1080 2.492 . S
O1101 C1082 1.239 . S
O1102 Nd1080 2.487 . S
O1102 C1089 1.241 . S
O1103 Nd1080 2.682 1_554 S
O1103 Nd1081 2.414 . S
O1103 C1089 1.273 1_554 S
O1104 Nd1080 2.410 . S
O1104 C1090 1.251 . S
O1105 Nd1081 2.424 . S
O1105 C1090 1.268 1_554 S
O1106 Nd1081 2.500 . S
O1106 C1091 1.258 . S
O1107 Nd1081 2.492 . S
O1107 C1091 1.239 . S
O1108 Nd1081 2.487 . S
O1108 C1098 1.241 . S
O1109 Nd1080 2.414 . S
O1109 Nd1081 2.682 1_556 S
O1109 C1098 1.273 1_556 S
O1110 Nd1081 2.410 . S
O1110 C1099 1.251 . S
O1111 Nd1080 2.424 . S
O1111 C1099 1.268 1_556 S
H1112 C1084 0.930 . S
H1113 C1085 0.929 . S
H1114 C1087 0.930 . S
H1115 C1088 0.929 . S
H1116 C1093 0.930 . S
H1117 C1094 0.929 . S
H1118 C1096 0.930 . S
H1119 C1097 0.929 . S
Nd1120 C1122 2.836 . S
Nd1120 O1140 2.500 . S
Nd1120 O1141 2.492 . S
Nd1120 O1142 2.487 . S
Nd1120 O1143 2.682 1_556 S
Nd1120 O1144 2.410 . S
Nd1120 O1149 2.414 . S
Nd1120 O1151 2.424 . S
Nd1121 C1131 2.836 . S
Nd1121 O1143 2.414 . S
Nd1121 O1145 2.424 . S
Nd1121 O1146 2.500 . S
Nd1121 O1147 2.492 . S
Nd1121 O1148 2.487 . S
Nd1121 O1149 2.682 1_554 S
Nd1121 O1150 2.410 . S
C1122 Nd1120 2.836 . S
C1122 C1123 1.498 . S
C1122 O1140 1.258 . S
C1122 O1141 1.239 . S
C1123 C1122 1.498 . S
C1123 C1124 1.366 . S
C1123 C1128 1.407 . S
C1124 C1123 1.366 . S
C1124 C1125 1.392 . S
C1124 H1152 0.930 . S
C1125 C1124 1.392 . S
C1125 C1126 1.398 . S
C1125 H1153 0.929 . S
C1126 C1125 1.398 . S
C1126 C1127 1.352 . S
C1127 C1126 1.352 . S
C1127 C1128 1.384 . S
C1127 H1154 0.930 . S
C1128 C1123 1.407 . S
C1128 C1127 1.384 . S
C1128 H1155 0.929 . S
C1129 O1142 1.241 . S
C1129 O1143 1.273 1_556 S
C1130 O1144 1.251 . S
C1130 O1145 1.268 1_556 S
C1131 Nd1121 2.836 . S
C1131 C1132 1.498 . S
C1131 O1146 1.258 . S
C1131 O1147 1.239 . S
C1132 C1131 1.498 . S
C1132 C1133 1.366 . S
C1132 C1137 1.407 . S
C1133 C1132 1.366 . S
C1133 C1134 1.392 . S
C1133 H1156 0.930 . S
C1134 C1133 1.392 . S
C1134 C1135 1.398 . S
C1134 H1157 0.929 . S
C1135 C1134 1.398 . S
C1135 C1136 1.352 . S
C1136 C1135 1.352 . S
C1136 C1137 1.384 . S
C1136 H1158 0.930 . S
C1137 C1132 1.407 . S
C1137 C1136 1.384 . S
C1137 H1159 0.929 . S
C1138 O1148 1.241 . S
C1138 O1149 1.273 1_554 S
C1139 O1150 1.251 . S
C1139 O1151 1.268 1_554 S
O1140 Nd1120 2.500 . S
O1140 C1122 1.258 . S
O1141 Nd1120 2.492 . S
O1141 C1122 1.239 . S
O1142 Nd1120 2.487 . S
O1142 C1129 1.241 . S
O1143 Nd1120 2.682 1_554 S
O1143 Nd1121 2.414 . S
O1143 C1129 1.273 1_554 S
O1144 Nd1120 2.410 . S
O1144 C1130 1.251 . S
O1145 Nd1121 2.424 . S
O1145 C1130 1.268 1_554 S
O1146 Nd1121 2.500 . S
O1146 C1131 1.258 . S
O1147 Nd1121 2.492 . S
O1147 C1131 1.239 . S
O1148 Nd1121 2.487 . S
O1148 C1138 1.241 . S
O1149 Nd1120 2.414 . S
O1149 Nd1121 2.682 1_556 S
O1149 C1138 1.273 1_556 S
O1150 Nd1121 2.410 . S
O1150 C1139 1.251 . S
O1151 Nd1120 2.424 . S
O1151 C1139 1.268 1_556 S
H1152 C1124 0.930 . S
H1153 C1125 0.929 . S
H1154 C1127 0.930 . S
H1155 C1128 0.929 . S
H1156 C1133 0.930 . S
H1157 C1134 0.929 . S
H1158 C1136 0.930 . S
H1159 C1137 0.929 . S
Nd1160 C1162 2.836 . S
Nd1160 O1180 2.500 . S
Nd1160 O1181 2.492 . S
Nd1160 O1182 2.487 . S
Nd1160 O1183 2.682 1_556 S
Nd1160 O1184 2.410 . S
Nd1160 O1189 2.414 . S
Nd1160 O1191 2.424 . S
Nd1161 C1171 2.836 . S
Nd1161 O1183 2.414 . S
Nd1161 O1185 2.424 . S
Nd1161 O1186 2.500 . S
Nd1161 O1187 2.492 . S
Nd1161 O1188 2.487 . S
Nd1161 O1189 2.682 1_554 S
Nd1161 O1190 2.410 . S
C1162 Nd1160 2.836 . S
C1162 C1163 1.498 . S
C1162 O1180 1.258 . S
C1162 O1181 1.239 . S
C1163 C1162 1.498 . S
C1163 C1164 1.366 . S
C1163 C1168 1.407 . S
C1164 C1163 1.366 . S
C1164 C1165 1.392 . S
C1164 H1192 0.930 . S
C1165 C1164 1.392 . S
C1165 C1166 1.398 . S
C1165 H1193 0.929 . S
C1166 C1165 1.398 . S
C1166 C1167 1.352 . S
C1167 C1166 1.352 . S
C1167 C1168 1.384 . S
C1167 H1194 0.930 . S
C1168 C1163 1.407 . S
C1168 C1167 1.384 . S
C1168 H1195 0.929 . S
C1169 O1182 1.241 . S
C1169 O1183 1.273 1_556 S
C1170 O1184 1.251 . S
C1170 O1185 1.268 1_556 S
C1171 Nd1161 2.836 . S
C1171 C1172 1.498 . S
C1171 O1186 1.258 . S
C1171 O1187 1.239 . S
C1172 C1171 1.498 . S
C1172 C1173 1.366 . S
C1172 C1177 1.407 . S
C1173 C1172 1.366 . S
C1173 C1174 1.392 . S
C1173 H1196 0.930 . S
C1174 C1173 1.392 . S
C1174 C1175 1.398 . S
C1174 H1197 0.929 . S
C1175 C1174 1.398 . S
C1175 C1176 1.352 . S
C1176 C1175 1.352 . S
C1176 C1177 1.384 . S
C1176 H1198 0.930 . S
C1177 C1172 1.407 . S
C1177 C1176 1.384 . S
C1177 H1199 0.929 . S
C1178 O1188 1.241 . S
C1178 O1189 1.273 1_554 S
C1179 O1190 1.251 . S
C1179 O1191 1.268 1_554 S
O1180 Nd1160 2.500 . S
O1180 C1162 1.258 . S
O1181 Nd1160 2.492 . S
O1181 C1162 1.239 . S
O1182 Nd1160 2.487 . S
O1182 C1169 1.241 . S
O1183 Nd1160 2.682 1_554 S
O1183 Nd1161 2.414 . S
O1183 C1169 1.273 1_554 S
O1184 Nd1160 2.410 . S
O1184 C1170 1.251 . S
O1185 Nd1161 2.424 . S
O1185 C1170 1.268 1_554 S
O1186 Nd1161 2.500 . S
O1186 C1171 1.258 . S
O1187 Nd1161 2.492 . S
O1187 C1171 1.239 . S
O1188 Nd1161 2.487 . S
O1188 C1178 1.241 . S
O1189 Nd1160 2.414 . S
O1189 Nd1161 2.682 1_556 S
O1189 C1178 1.273 1_556 S
O1190 Nd1161 2.410 . S
O1190 C1179 1.251 . S
O1191 Nd1160 2.424 . S
O1191 C1179 1.268 1_556 S
H1192 C1164 0.930 . S
H1193 C1165 0.929 . S
H1194 C1167 0.930 . S
H1195 C1168 0.929 . S
H1196 C1173 0.930 . S
H1197 C1174 0.929 . S
H1198 C1176 0.930 . S
H1199 C1177 0.929 . S
Nd1200 C1202 2.836 . S
Nd1200 O1220 2.500 . S
Nd1200 O1221 2.492 . S
Nd1200 O1222 2.487 . S
Nd1200 O1223 2.682 . S
Nd1200 O1224 2.410 . S
Nd1200 O1229 2.414 . S
Nd1200 O1231 2.424 . S
Nd1201 C1211 2.836 . S
Nd1201 O1223 2.414 . S
Nd1201 O1225 2.424 . S
Nd1201 O1226 2.500 . S
Nd1201 O1227 2.492 . S
Nd1201 O1228 2.487 . S
Nd1201 O1229 2.682 . S
Nd1201 O1230 2.410 . S
C1202 Nd1200 2.836 . S
C1202 C1203 1.498 . S
C1202 O1220 1.258 . S
C1202 O1221 1.239 . S
C1203 C1202 1.498 . S
C1203 C1204 1.366 . S
C1203 C1208 1.407 . S
C1204 C1203 1.366 . S
C1204 C1205 1.392 . S
C1204 H1232 0.930 . S
C1205 C1204 1.392 . S
C1205 C1206 1.398 . S
C1205 H1233 0.929 . S
C1206 C1205 1.398 . S
C1206 C1207 1.352 . S
C1207 C1206 1.352 . S
C1207 C1208 1.384 . S
C1207 H1234 0.930 . S
C1208 C1203 1.407 . S
C1208 C1207 1.384 . S
C1208 H1235 0.929 . S
C1209 O1222 1.241 . S
C1209 O1223 1.273 . S
C1210 O1224 1.251 . S
C1210 O1225 1.268 . S
C1211 Nd1201 2.836 . S
C1211 C1212 1.498 . S
C1211 O1226 1.258 . S
C1211 O1227 1.239 . S
C1212 C1211 1.498 . S
C1212 C1213 1.366 . S
C1212 C1217 1.407 . S
C1213 C1212 1.366 . S
C1213 C1214 1.392 . S
C1213 H1236 0.930 . S
C1214 C1213 1.392 . S
C1214 C1215 1.398 . S
C1214 H1237 0.929 . S
C1215 C1214 1.398 . S
C1215 C1216 1.352 . S
C1216 C1215 1.352 . S
C1216 C1217 1.384 . S
C1216 H1238 0.930 1_455 S
C1217 C1212 1.407 . S
C1217 C1216 1.384 . S
C1217 H1239 0.929 . S
C1218 O1228 1.241 . S
C1218 O1229 1.273 . S
C1219 O1230 1.251 . S
C1219 O1231 1.268 . S
O1220 Nd1200 2.500 . S
O1220 C1202 1.258 . S
O1221 Nd1200 2.492 . S
O1221 C1202 1.239 . S
O1222 Nd1200 2.487 . S
O1222 C1209 1.241 . S
O1223 Nd1200 2.682 . S
O1223 Nd1201 2.414 . S
O1223 C1209 1.273 . S
O1224 Nd1200 2.410 . S
O1224 C1210 1.251 . S
O1225 Nd1201 2.424 . S
O1225 C1210 1.268 . S
O1226 Nd1201 2.500 . S
O1226 C1211 1.258 . S
O1227 Nd1201 2.492 . S
O1227 C1211 1.239 . S
O1228 Nd1201 2.487 . S
O1228 C1218 1.241 . S
O1229 Nd1200 2.414 . S
O1229 Nd1201 2.682 . S
O1229 C1218 1.273 . S
O1230 Nd1201 2.410 . S
O1230 C1219 1.251 . S
O1231 Nd1200 2.424 . S
O1231 C1219 1.268 . S
H1232 C1204 0.930 . S
H1233 C1205 0.929 . S
H1234 C1207 0.930 . S
H1235 C1208 0.929 . S
H1236 C1213 0.930 . S
H1237 C1214 0.929 . S
H1238 C1216 0.930 1_655 S
H1239 C1217 0.929 . S
Nd1240 C1242 2.836 . S
Nd1240 O1260 2.500 . S
Nd1240 O1261 2.492 . S
Nd1240 O1262 2.487 . S
Nd1240 O1263 2.682 . S
Nd1240 O1264 2.410 . S
Nd1240 O1269 2.414 . S
Nd1240 O1271 2.424 . S
Nd1241 C1251 2.836 . S
Nd1241 O1263 2.414 . S
Nd1241 O1265 2.424 . S
Nd1241 O1266 2.500 . S
Nd1241 O1267 2.492 . S
Nd1241 O1268 2.487 . S
Nd1241 O1269 2.682 . S
Nd1241 O1270 2.410 . S
C1242 Nd1240 2.836 . S
C1242 C1243 1.498 . S
C1242 O1260 1.258 . S
C1242 O1261 1.239 . S
C1243 C1242 1.498 . S
C1243 C1244 1.366 . S
C1243 C1248 1.407 . S
C1244 C1243 1.366 . S
C1244 C1245 1.392 . S
C1244 H1272 0.930 . S
C1245 C1244 1.392 . S
C1245 C1246 1.398 . S
C1245 H1273 0.929 . S
C1246 C1245 1.398 . S
C1246 C1247 1.352 . S
C1247 C1246 1.352 . S
C1247 C1248 1.384 . S
C1247 H1274 0.930 . S
C1248 C1243 1.407 . S
C1248 C1247 1.384 . S
C1248 H1275 0.929 . S
C1249 O1262 1.241 . S
C1249 O1263 1.273 . S
C1250 O1264 1.251 . S
C1250 O1265 1.268 . S
C1251 Nd1241 2.836 . S
C1251 C1252 1.498 . S
C1251 O1266 1.258 . S
C1251 O1267 1.239 . S
C1252 C1251 1.498 . S
C1252 C1253 1.366 . S
C1252 C1257 1.407 . S
C1253 C1252 1.366 . S
C1253 C1254 1.392 . S
C1253 H1276 0.930 . S
C1254 C1253 1.392 . S
C1254 C1255 1.398 . S
C1254 H1277 0.929 . S
C1255 C1254 1.398 . S
C1255 C1256 1.352 . S
C1256 C1255 1.352 . S
C1256 C1257 1.384 . S
C1256 H1278 0.930 . S
C1257 C1252 1.407 . S
C1257 C1256 1.384 . S
C1257 H1279 0.929 . S
C1258 O1268 1.241 . S
C1258 O1269 1.273 . S
C1259 O1270 1.251 . S
C1259 O1271 1.268 . S
O1260 Nd1240 2.500 . S
O1260 C1242 1.258 . S
O1261 Nd1240 2.492 . S
O1261 C1242 1.239 . S
O1262 Nd1240 2.487 . S
O1262 C1249 1.241 . S
O1263 Nd1240 2.682 . S
O1263 Nd1241 2.414 . S
O1263 C1249 1.273 . S
O1264 Nd1240 2.410 . S
O1264 C1250 1.251 . S
O1265 Nd1241 2.424 . S
O1265 C1250 1.268 . S
O1266 Nd1241 2.500 . S
O1266 C1251 1.258 . S
O1267 Nd1241 2.492 . S
O1267 C1251 1.239 . S
O1268 Nd1241 2.487 . S
O1268 C1258 1.241 . S
O1269 Nd1240 2.414 . S
O1269 Nd1241 2.682 . S
O1269 C1258 1.273 . S
O1270 Nd1241 2.410 . S
O1270 C1259 1.251 . S
O1271 Nd1240 2.424 . S
O1271 C1259 1.268 . S
H1272 C1244 0.930 . S
H1273 C1245 0.929 . S
H1274 C1247 0.930 . S
H1275 C1248 0.929 . S
H1276 C1253 0.930 . S
H1277 C1254 0.929 . S
H1278 C1256 0.930 . S
H1279 C1257 0.929 . S
Nd1280 C1282 2.836 . S
Nd1280 O1300 2.500 . S
Nd1280 O1301 2.492 . S
Nd1280 O1302 2.487 . S
Nd1280 O1303 2.682 . S
Nd1280 O1304 2.410 . S
Nd1280 O1309 2.414 . S
Nd1280 O1311 2.424 . S
Nd1281 C1291 2.836 . S
Nd1281 O1303 2.414 . S
Nd1281 O1305 2.424 . S
Nd1281 O1306 2.500 . S
Nd1281 O1307 2.492 . S
Nd1281 O1308 2.487 . S
Nd1281 O1309 2.682 . S
Nd1281 O1310 2.410 . S
C1282 Nd1280 2.836 . S
C1282 C1283 1.498 . S
C1282 O1300 1.258 . S
C1282 O1301 1.239 . S
C1283 C1282 1.498 . S
C1283 C1284 1.366 . S
C1283 C1288 1.407 . S
C1284 C1283 1.366 . S
C1284 C1285 1.392 . S
C1284 H1312 0.930 . S
C1285 C1284 1.392 . S
C1285 C1286 1.398 . S
C1285 H1313 0.929 . S
C1286 C1285 1.398 . S
C1286 C1287 1.352 . S
C1287 C1286 1.352 . S
C1287 C1288 1.384 . S
C1287 H1314 0.930 . S
C1288 C1283 1.407 . S
C1288 C1287 1.384 . S
C1288 H1315 0.929 . S
C1289 O1302 1.241 . S
C1289 O1303 1.273 . S
C1290 O1304 1.251 . S
C1290 O1305 1.268 . S
C1291 Nd1281 2.836 . S
C1291 C1292 1.498 . S
C1291 O1306 1.258 . S
C1291 O1307 1.239 . S
C1292 C1291 1.498 . S
C1292 C1293 1.366 . S
C1292 C1297 1.407 . S
C1293 C1292 1.366 . S
C1293 C1294 1.392 . S
C1293 H1316 0.930 . S
C1294 C1293 1.392 . S
C1294 C1295 1.398 . S
C1294 H1317 0.929 . S
C1295 C1294 1.398 . S
C1295 C1296 1.352 . S
C1296 C1295 1.352 . S
C1296 C1297 1.384 . S
C1296 H1318 0.930 1_565 S
C1297 C1292 1.407 . S
C1297 C1296 1.384 . S
C1297 H1319 0.929 . S
C1298 O1308 1.241 . S
C1298 O1309 1.273 . S
C1299 O1310 1.251 . S
C1299 O1311 1.268 . S
O1300 Nd1280 2.500 . S
O1300 C1282 1.258 . S
O1301 Nd1280 2.492 . S
O1301 C1282 1.239 . S
O1302 Nd1280 2.487 . S
O1302 C1289 1.241 . S
O1303 Nd1280 2.682 . S
O1303 Nd1281 2.414 . S
O1303 C1289 1.273 . S
O1304 Nd1280 2.410 . S
O1304 C1290 1.251 . S
O1305 Nd1281 2.424 . S
O1305 C1290 1.268 . S
O1306 Nd1281 2.500 . S
O1306 C1291 1.258 . S
O1307 Nd1281 2.492 . S
O1307 C1291 1.239 . S
O1308 Nd1281 2.487 . S
O1308 C1298 1.241 . S
O1309 Nd1280 2.414 . S
O1309 Nd1281 2.682 . S
O1309 C1298 1.273 . S
O1310 Nd1281 2.410 . S
O1310 C1299 1.251 . S
O1311 Nd1280 2.424 . S
O1311 C1299 1.268 . S
H1312 C1284 0.930 . S
H1313 C1285 0.929 . S
H1314 C1287 0.930 . S
H1315 C1288 0.929 . S
H1316 C1293 0.930 . S
H1317 C1294 0.929 . S
H1318 C1296 0.930 1_545 S
H1319 C1297 0.929 . S
Nd1320 C1322 2.836 . S
Nd1320 O1340 2.500 . S
Nd1320 O1341 2.492 . S
Nd1320 O1342 2.487 . S
Nd1320 O1343 2.682 . S
Nd1320 O1344 2.410 . S
Nd1320 O1349 2.414 . S
Nd1320 O1351 2.424 . S
Nd1321 C1331 2.836 . S
Nd1321 O1343 2.414 . S
Nd1321 O1345 2.424 . S
Nd1321 O1346 2.500 . S
Nd1321 O1347 2.492 . S
Nd1321 O1348 2.487 . S
Nd1321 O1349 2.682 . S
Nd1321 O1350 2.410 . S
C1322 Nd1320 2.836 . S
C1322 C1323 1.498 . S
C1322 O1340 1.258 . S
C1322 O1341 1.239 . S
C1323 C1322 1.498 . S
C1323 C1324 1.366 . S
C1323 C1328 1.407 . S
C1324 C1323 1.366 . S
C1324 C1325 1.392 . S
C1324 H1352 0.930 . S
C1325 C1324 1.392 . S
C1325 C1326 1.398 . S
C1325 H1353 0.929 1_455 S
C1326 C1325 1.398 . S
C1326 C1327 1.352 . S
C1327 C1326 1.352 . S
C1327 C1328 1.384 . S
C1327 H1354 0.930 . S
C1328 C1323 1.407 . S
C1328 C1327 1.384 . S
C1328 H1355 0.929 . S
C1329 O1342 1.241 . S
C1329 O1343 1.273 . S
C1330 O1344 1.251 . S
C1330 O1345 1.268 . S
C1331 Nd1321 2.836 . S
C1331 C1332 1.498 . S
C1331 O1346 1.258 . S
C1331 O1347 1.239 . S
C1332 C1331 1.498 . S
C1332 C1333 1.366 . S
C1332 C1337 1.407 . S
C1333 C1332 1.366 . S
C1333 C1334 1.392 . S
C1333 H1356 0.930 . S
C1334 C1333 1.392 . S
C1334 C1335 1.398 . S
C1334 H1357 0.929 . S
C1335 C1334 1.398 . S
C1335 C1336 1.352 . S
C1336 C1335 1.352 . S
C1336 C1337 1.384 . S
C1336 H1358 0.930 . S
C1337 C1332 1.407 . S
C1337 C1336 1.384 . S
C1337 H1359 0.929 . S
C1338 O1348 1.241 . S
C1338 O1349 1.273 . S
C1339 O1350 1.251 . S
C1339 O1351 1.268 . S
O1340 Nd1320 2.500 . S
O1340 C1322 1.258 . S
O1341 Nd1320 2.492 . S
O1341 C1322 1.239 . S
O1342 Nd1320 2.487 . S
O1342 C1329 1.241 . S
O1343 Nd1320 2.682 . S
O1343 Nd1321 2.414 . S
O1343 C1329 1.273 . S
O1344 Nd1320 2.410 . S
O1344 C1330 1.251 . S
O1345 Nd1321 2.424 . S
O1345 C1330 1.268 . S
O1346 Nd1321 2.500 . S
O1346 C1331 1.258 . S
O1347 Nd1321 2.492 . S
O1347 C1331 1.239 . S
O1348 Nd1321 2.487 . S
O1348 C1338 1.241 . S
O1349 Nd1320 2.414 . S
O1349 Nd1321 2.682 . S
O1349 C1338 1.273 . S
O1350 Nd1321 2.410 . S
O1350 C1339 1.251 . S
O1351 Nd1320 2.424 . S
O1351 C1339 1.268 . S
H1352 C1324 0.930 . S
H1353 C1325 0.929 1_655 S
H1354 C1327 0.930 . S
H1355 C1328 0.929 . S
H1356 C1333 0.930 . S
H1357 C1334 0.929 . S
H1358 C1336 0.930 . S
H1359 C1337 0.929 . S
Nd1360 C1362 2.836 . S
Nd1360 O1380 2.500 . S
Nd1360 O1381 2.492 . S
Nd1360 O1382 2.487 . S
Nd1360 O1383 2.682 . S
Nd1360 O1384 2.410 . S
Nd1360 O1389 2.414 . S
Nd1360 O1391 2.424 . S
Nd1361 C1371 2.836 . S
Nd1361 O1383 2.414 . S
Nd1361 O1385 2.424 . S
Nd1361 O1386 2.500 . S
Nd1361 O1387 2.492 . S
Nd1361 O1388 2.487 . S
Nd1361 O1389 2.682 . S
Nd1361 O1390 2.410 . S
C1362 Nd1360 2.836 . S
C1362 C1363 1.498 . S
C1362 O1380 1.258 . S
C1362 O1381 1.239 . S
C1363 C1362 1.498 . S
C1363 C1364 1.366 . S
C1363 C1368 1.407 . S
C1364 C1363 1.366 . S
C1364 C1365 1.392 . S
C1364 H1392 0.930 . S
C1365 C1364 1.392 . S
C1365 C1366 1.398 . S
C1365 H1393 0.929 . S
C1366 C1365 1.398 . S
C1366 C1367 1.352 . S
C1367 C1366 1.352 . S
C1367 C1368 1.384 . S
C1367 H1394 0.930 . S
C1368 C1363 1.407 . S
C1368 C1367 1.384 . S
C1368 H1395 0.929 . S
C1369 O1382 1.241 . S
C1369 O1383 1.273 . S
C1370 O1384 1.251 . S
C1370 O1385 1.268 . S
C1371 Nd1361 2.836 . S
C1371 C1372 1.498 . S
C1371 O1386 1.258 . S
C1371 O1387 1.239 . S
C1372 C1371 1.498 . S
C1372 C1373 1.366 . S
C1372 C1377 1.407 . S
C1373 C1372 1.366 . S
C1373 C1374 1.392 . S
C1373 H1396 0.930 . S
C1374 C1373 1.392 . S
C1374 C1375 1.398 . S
C1374 H1397 0.929 . S
C1375 C1374 1.398 . S
C1375 C1376 1.352 . S
C1376 C1375 1.352 . S
C1376 C1377 1.384 . S
C1376 H1398 0.930 . S
C1377 C1372 1.407 . S
C1377 C1376 1.384 . S
C1377 H1399 0.929 . S
C1378 O1388 1.241 . S
C1378 O1389 1.273 . S
C1379 O1390 1.251 . S
C1379 O1391 1.268 . S
O1380 Nd1360 2.500 . S
O1380 C1362 1.258 . S
O1381 Nd1360 2.492 . S
O1381 C1362 1.239 . S
O1382 Nd1360 2.487 . S
O1382 C1369 1.241 . S
O1383 Nd1360 2.682 . S
O1383 Nd1361 2.414 . S
O1383 C1369 1.273 . S
O1384 Nd1360 2.410 . S
O1384 C1370 1.251 . S
O1385 Nd1361 2.424 . S
O1385 C1370 1.268 . S
O1386 Nd1361 2.500 . S
O1386 C1371 1.258 . S
O1387 Nd1361 2.492 . S
O1387 C1371 1.239 . S
O1388 Nd1361 2.487 . S
O1388 C1378 1.241 . S
O1389 Nd1360 2.414 . S
O1389 Nd1361 2.682 . S
O1389 C1378 1.273 . S
O1390 Nd1361 2.410 . S
O1390 C1379 1.251 . S
O1391 Nd1360 2.424 . S
O1391 C1379 1.268 . S
H1392 C1364 0.930 . S
H1393 C1365 0.929 . S
H1394 C1367 0.930 . S
H1395 C1368 0.929 . S
H1396 C1373 0.930 . S
H1397 C1374 0.929 . S
H1398 C1376 0.930 . S
H1399 C1377 0.929 . S
Nd1400 C1402 2.836 . S
Nd1400 O1420 2.500 . S
Nd1400 O1421 2.492 . S
Nd1400 O1422 2.487 . S
Nd1400 O1423 2.682 . S
Nd1400 O1424 2.410 . S
Nd1400 O1429 2.414 . S
Nd1400 O1431 2.424 . S
Nd1401 C1411 2.836 . S
Nd1401 O1423 2.414 . S
Nd1401 O1425 2.424 . S
Nd1401 O1426 2.500 . S
Nd1401 O1427 2.492 . S
Nd1401 O1428 2.487 . S
Nd1401 O1429 2.682 . S
Nd1401 O1430 2.410 . S
C1402 Nd1400 2.836 . S
C1402 C1403 1.498 . S
C1402 O1420 1.258 . S
C1402 O1421 1.239 . S
C1403 C1402 1.498 . S
C1403 C1404 1.366 . S
C1403 C1408 1.407 . S
C1404 C1403 1.366 . S
C1404 C1405 1.392 . S
C1404 H1432 0.930 . S
C1405 C1404 1.392 . S
C1405 C1406 1.398 . S
C1405 H1433 0.929 1_565 S
C1406 C1405 1.398 . S
C1406 C1407 1.352 . S
C1407 C1406 1.352 . S
C1407 C1408 1.384 . S
C1407 H1434 0.930 . S
C1408 C1403 1.407 . S
C1408 C1407 1.384 . S
C1408 H1435 0.929 . S
C1409 O1422 1.241 . S
C1409 O1423 1.273 . S
C1410 O1424 1.251 . S
C1410 O1425 1.268 . S
C1411 Nd1401 2.836 . S
C1411 C1412 1.498 . S
C1411 O1426 1.258 . S
C1411 O1427 1.239 . S
C1412 C1411 1.498 . S
C1412 C1413 1.366 . S
C1412 C1417 1.407 . S
C1413 C1412 1.366 . S
C1413 C1414 1.392 . S
C1413 H1436 0.930 . S
C1414 C1413 1.392 . S
C1414 C1415 1.398 . S
C1414 H1437 0.929 . S
C1415 C1414 1.398 . S
C1415 C1416 1.352 . S
C1416 C1415 1.352 . S
C1416 C1417 1.384 . S
C1416 H1438 0.930 . S
C1417 C1412 1.407 . S
C1417 C1416 1.384 . S
C1417 H1439 0.929 . S
C1418 O1428 1.241 . S
C1418 O1429 1.273 . S
C1419 O1430 1.251 . S
C1419 O1431 1.268 . S
O1420 Nd1400 2.500 . S
O1420 C1402 1.258 . S
O1421 Nd1400 2.492 . S
O1421 C1402 1.239 . S
O1422 Nd1400 2.487 . S
O1422 C1409 1.241 . S
O1423 Nd1400 2.682 . S
O1423 Nd1401 2.414 . S
O1423 C1409 1.273 . S
O1424 Nd1400 2.410 . S
O1424 C1410 1.251 . S
O1425 Nd1401 2.424 . S
O1425 C1410 1.268 . S
O1426 Nd1401 2.500 . S
O1426 C1411 1.258 . S
O1427 Nd1401 2.492 . S
O1427 C1411 1.239 . S
O1428 Nd1401 2.487 . S
O1428 C1418 1.241 . S
O1429 Nd1400 2.414 . S
O1429 Nd1401 2.682 . S
O1429 C1418 1.273 . S
O1430 Nd1401 2.410 . S
O1430 C1419 1.251 . S
O1431 Nd1400 2.424 . S
O1431 C1419 1.268 . S
H1432 C1404 0.930 . S
H1433 C1405 0.929 1_545 S
H1434 C1407 0.930 . S
H1435 C1408 0.929 . S
H1436 C1413 0.930 . S
H1437 C1414 0.929 . S
H1438 C1416 0.930 . S
H1439 C1417 0.929 . S
H1440 C1446 0.930 . S
H1441 C1450 0.930 . S
H1442 C1455 0.929 . S
H1443 C1453 0.929 . S
H1444 C1448 0.929 . S
H1445 C1454 0.929 . S
C1446 H1440 0.930 . S
C1446 C1447 1.367 . S
C1446 C1454 1.378 . S
C1447 C1446 1.367 . S
C1447 C1455 1.433 . S
C1448 H1444 0.929 . S
C1448 C1450 1.378 . S
C1448 C1452 1.350 . S
C1449 C1452 1.463 . S
C1449 C1454 1.350 . S
C1449 N1457 1.427 . S
C1450 H1441 0.930 . S
C1450 C1448 1.378 . S
C1450 C1451 1.367 . S
C1451 C1450 1.367 . S
C1451 C1453 1.433 . S
C1452 C1448 1.350 . S
C1452 C1449 1.463 . S
C1452 N1456 1.427 . S
C1453 H1443 0.929 . S
C1453 C1451 1.433 . S
C1453 N1456 1.384 . S
C1454 H1445 0.929 . S
C1454 C1446 1.378 . S
C1454 C1449 1.350 . S
C1455 H1442 0.929 . S
C1455 C1447 1.433 . S
C1455 N1457 1.384 . S
N1456 C1452 1.427 . S
N1456 C1453 1.384 . S
N1457 C1449 1.427 . S
N1457 C1455 1.384 . S
H1458 C1464 0.930 . S
H1459 C1468 0.930 . S
H1460 C1473 0.929 . S
H1461 C1471 0.929 . S
H1462 C1466 0.929 . S
H1463 C1472 0.929 . S
C1464 H1458 0.930 . S
C1464 C1465 1.367 . S
C1464 C1472 1.378 . S
C1465 C1464 1.367 . S
C1465 C1473 1.433 . S
C1466 H1462 0.929 . S
C1466 C1468 1.378 1_545 S
C1466 C1470 1.350 . S
C1467 C1470 1.463 . S
C1467 C1472 1.350 . S
C1467 N1475 1.427 . S
C1468 H1459 0.930 . S
C1468 C1466 1.378 1_565 S
C1468 C1469 1.367 . S
C1469 C1468 1.367 . S
C1469 C1471 1.433 . S
C1470 C1466 1.350 . S
C1470 C1467 1.463 . S
C1470 N1474 1.427 1_545 S
C1471 H1461 0.929 . S
C1471 C1469 1.433 . S
C1471 N1474 1.384 . S
C1472 H1463 0.929 . S
C1472 C1464 1.378 . S
C1472 C1467 1.350 . S
C1473 H1460 0.929 . S
C1473 C1465 1.433 . S
C1473 N1475 1.384 . S
N1474 C1470 1.427 1_565 S
N1474 C1471 1.384 . S
N1475 C1467 1.427 . S
N1475 C1473 1.384 . S
H1476 C1482 0.930 . S
H1477 C1486 0.930 . S
H1478 C1491 0.929 . S
H1479 C1489 0.929 . S
H1480 C1484 0.929 . S
H1481 C1490 0.929 . S
C1482 H1476 0.930 . S
C1482 C1483 1.367 . S
C1482 C1490 1.378 . S
C1483 C1482 1.367 . S
C1483 C1491 1.433 . S
C1484 H1480 0.929 . S
C1484 C1486 1.378 . S
C1484 C1488 1.350 . S
C1485 C1488 1.463 . S
C1485 C1490 1.350 1_655 S
C1485 N1493 1.427 . S
C1486 H1477 0.930 . S
C1486 C1484 1.378 . S
C1486 C1487 1.367 . S
C1487 C1486 1.367 . S
C1487 C1489 1.433 . S
C1488 C1484 1.350 . S
C1488 C1485 1.463 . S
C1488 N1492 1.427 . S
C1489 H1479 0.929 . S
C1489 C1487 1.433 . S
C1489 N1492 1.384 . S
C1490 H1481 0.929 . S
C1490 C1482 1.378 . S
C1490 C1485 1.350 1_455 S
C1491 H1478 0.929 . S
C1491 C1483 1.433 . S
C1491 N1493 1.384 1_455 S
N1492 C1488 1.427 . S
N1492 C1489 1.384 . S
N1493 C1485 1.427 . S
N1493 C1491 1.384 1_655 S
H1494 C1500 0.930 . S
H1495 C1504 0.930 . S
H1496 C1509 0.929 . S
H1497 C1507 0.929 1_655 S
H1498 C1502 0.929 . S
H1499 C1508 0.929 . S
C1500 H1494 0.930 . S
C1500 C1501 1.367 . S
C1500 C1508 1.378 . S
C1501 C1500 1.367 . S
C1501 C1509 1.433 . S
C1502 H1498 0.929 . S
C1502 C1504 1.378 . S
C1502 C1506 1.350 . S
C1503 C1506 1.463 . S
C1503 C1508 1.350 . S
C1503 N1511 1.427 . S
C1504 H1495 0.930 . S
C1504 C1502 1.378 . S
C1504 C1505 1.367 1_455 S
C1505 C1504 1.367 1_655 S
C1505 C1507 1.433 1_655 S
C1506 C1502 1.350 . S
C1506 C1503 1.463 . S
C1506 N1510 1.427 . S
C1507 H1497 0.929 1_455 S
C1507 C1505 1.433 1_455 S
C1507 N1510 1.384 . S
C1508 H1499 0.929 . S
C1508 C1500 1.378 . S
C1508 C1503 1.350 . S
C1509 H1496 0.929 . S
C1509 C1501 1.433 . S
C1509 N1511 1.384 . S
N1510 C1506 1.427 . S
N1510 C1507 1.384 . S
N1511 C1503 1.427 . S
N1511 C1509 1.384 . S
H1512 C1518 0.930 . S
H1513 C1522 0.930 . S
H1514 C1527 0.929 . S
H1515 C1525 0.929 . S
H1516 C1520 0.929 . S
H1517 C1526 0.929 . S
C1518 H1512 0.930 . S
C1518 C1519 1.367 . S
C1518 C1526 1.378 . S
C1519 C1518 1.367 . S
C1519 C1527 1.433 . S
C1520 H1516 0.929 . S
C1520 C1522 1.378 . S
C1520 C1524 1.350 . S
C1521 C1524 1.463 . S
C1521 C1526 1.350 . S
C1521 N1529 1.427 . S
C1522 H1513 0.930 . S
C1522 C1520 1.378 . S
C1522 C1523 1.367 1_565 S
C1523 C1522 1.367 1_545 S
C1523 C1525 1.433 . S
C1524 C1520 1.350 . S
C1524 C1521 1.463 . S
C1524 N1528 1.427 . S
C1525 H1515 0.929 . S
C1525 C1523 1.433 . S
C1525 N1528 1.384 1_545 S
C1526 H1517 0.929 . S
C1526 C1518 1.378 . S
C1526 C1521 1.350 . S
C1527 H1514 0.929 . S
C1527 C1519 1.433 . S
C1527 N1529 1.384 . S
N1528 C1524 1.427 . S
N1528 C1525 1.384 1_565 S
N1529 C1521 1.427 . S
N1529 C1527 1.384 . S
H1530 C1536 0.930 . S
H1531 C1540 0.930 . S
H1532 C1545 0.929 . S
H1533 C1543 0.929 . S
H1534 C1538 0.929 . S
H1535 C1544 0.929 . S
C1536 H1530 0.930 . S
C1536 C1537 1.367 . S
C1536 C1544 1.378 1_655 S
C1537 C1536 1.367 . S
C1537 C1545 1.433 1_655 S
C1538 H1534 0.929 . S
C1538 C1540 1.378 . S
C1538 C1542 1.350 . S
C1539 C1542 1.463 . S
C1539 C1544 1.350 . S
C1539 N1547 1.427 . S
C1540 H1531 0.930 . S
C1540 C1538 1.378 . S
C1540 C1541 1.367 1_565 S
C1541 C1540 1.367 1_545 S
C1541 C1543 1.433 . S
C1542 C1538 1.350 . S
C1542 C1539 1.463 . S
C1542 N1546 1.427 . S
C1543 H1533 0.929 . S
C1543 C1541 1.433 . S
C1543 N1546 1.384 1_545 S
C1544 H1535 0.929 . S
C1544 C1536 1.378 1_455 S
C1544 C1539 1.350 . S
C1545 H1532 0.929 . S
C1545 C1537 1.433 1_455 S
C1545 N1547 1.384 . S
N1546 C1542 1.427 . S
N1546 C1543 1.384 1_565 S
N1547 C1539 1.427 . S
N1547 C1545 1.384 . S
H1548 C1554 0.930 . S
H1549 C1558 0.930 . S
H1550 C1563 0.929 . S
H1551 C1561 0.929 . S
H1552 C1556 0.929 . S
H1553 C1562 0.929 . S
C1554 H1548 0.930 . S
C1554 C1555 1.367 . S
C1554 C1562 1.378 . S
C1555 C1554 1.367 . S
C1555 C1563 1.433 . S
C1556 H1552 0.929 . S
C1556 C1558 1.378 . S
C1556 C1560 1.350 . S
C1557 C1560 1.463 . S
C1557 C1562 1.350 . S
C1557 N1565 1.427 . S
C1558 H1549 0.930 . S
C1558 C1556 1.378 . S
C1558 C1559 1.367 . S
C1559 C1558 1.367 . S
C1559 C1561 1.433 . S
C1560 C1556 1.350 . S
C1560 C1557 1.463 . S
C1560 N1564 1.427 . S
C1561 H1551 0.929 . S
C1561 C1559 1.433 . S
C1561 N1564 1.384 . S
C1562 H1553 0.929 . S
C1562 C1554 1.378 . S
C1562 C1557 1.350 . S
C1563 H1550 0.929 . S
C1563 C1555 1.433 . S
C1563 N1565 1.384 . S
N1564 C1560 1.427 . S
N1564 C1561 1.384 . S
N1565 C1557 1.427 . S
N1565 C1563 1.384 . S
H1566 C1572 0.930 . S
H1567 C1576 0.930 . S
H1568 C1581 0.929 . S
H1569 C1579 0.929 . S
H1570 C1574 0.929 . S
H1571 C1580 0.929 1_565 S
C1572 H1566 0.930 . S
C1572 C1573 1.367 . S
C1572 C1580 1.378 . S
C1573 C1572 1.367 . S
C1573 C1581 1.433 . S
C1574 H1570 0.929 . S
C1574 C1576 1.378 . S
C1574 C1578 1.350 . S
C1575 C1578 1.463 . S
C1575 C1580 1.350 1_565 S
C1575 N1583 1.427 1_565 S
C1576 H1567 0.930 . S
C1576 C1574 1.378 . S
C1576 C1577 1.367 . S
C1577 C1576 1.367 . S
C1577 C1579 1.433 . S
C1578 C1574 1.350 . S
C1578 C1575 1.463 . S
C1578 N1582 1.427 . S
C1579 H1569 0.929 . S
C1579 C1577 1.433 . S
C1579 N1582 1.384 . S
C1580 H1571 0.929 1_545 S
C1580 C1572 1.378 . S
C1580 C1575 1.350 1_545 S
C1581 H1568 0.929 . S
C1581 C1573 1.433 . S
C1581 N1583 1.384 . S
N1582 C1578 1.427 . S
N1582 C1579 1.384 . S
N1583 C1575 1.427 1_545 S
N1583 C1581 1.384 . S
H1584 C1590 0.930 . S
H1585 C1594 0.930 . S
H1586 C1599 0.929 . S
H1587 C1597 0.929 . S
H1588 C1592 0.929 . S
H1589 C1598 0.929 1_455 S
C1590 H1584 0.930 . S
C1590 C1591 1.367 . S
C1590 C1598 1.378 . S
C1591 C1590 1.367 . S
C1591 C1599 1.433 . S
C1592 H1588 0.929 . S
C1592 C1594 1.378 . S
C1592 C1596 1.350 . S
C1593 C1596 1.463 . S
C1593 C1598 1.350 1_455 S
C1593 N1601 1.427 1_455 S
C1594 H1585 0.930 . S
C1594 C1592 1.378 . S
C1594 C1595 1.367 . S
C1595 C1594 1.367 . S
C1595 C1597 1.433 . S
C1596 C1592 1.350 . S
C1596 C1593 1.463 . S
C1596 N1600 1.427 . S
C1597 H1587 0.929 . S
C1597 C1595 1.433 . S
C1597 N1600 1.384 . S
C1598 H1589 0.929 1_655 S
C1598 C1590 1.378 . S
C1598 C1593 1.350 1_655 S
C1599 H1586 0.929 . S
C1599 C1591 1.433 . S
C1599 N1601 1.384 . S
N1600 C1596 1.427 . S
N1600 C1597 1.384 . S
N1601 C1593 1.427 1_655 S
N1601 C1599 1.384 . S
H1602 C1608 0.930 . S
H1603 C1612 0.930 . S
H1604 C1617 0.929 . S
H1605 C1615 0.929 . S
H1606 C1610 0.929 . S
H1607 C1616 0.929 . S
C1608 H1602 0.930 . S
C1608 C1609 1.367 . S
C1608 C1616 1.378 . S
C1609 C1608 1.367 . S
C1609 C1617 1.433 . S
C1610 H1606 0.929 . S
C1610 C1612 1.378 1_655 S
C1610 C1614 1.350 . S
C1611 C1614 1.463 . S
C1611 C1616 1.350 . S
C1611 N1619 1.427 . S
C1612 H1603 0.930 . S
C1612 C1610 1.378 1_455 S
C1612 C1613 1.367 . S
C1613 C1612 1.367 . S
C1613 C1615 1.433 1_455 S
C1614 C1610 1.350 . S
C1614 C1611 1.463 . S
C1614 N1618 1.427 . S
C1615 H1605 0.929 . S
C1615 C1613 1.433 1_655 S
C1615 N1618 1.384 . S
C1616 H1607 0.929 . S
C1616 C1608 1.378 . S
C1616 C1611 1.350 . S
C1617 H1604 0.929 . S
C1617 C1609 1.433 . S
C1617 N1619 1.384 . S
N1618 C1614 1.427 . S
N1618 C1615 1.384 . S
N1619 C1611 1.427 . S
N1619 C1617 1.384 . S
H1620 C1626 0.930 . S
H1621 C1630 0.930 . S
H1622 C1635 0.929 . S
H1623 C1633 0.929 1_565 S
H1624 C1628 0.929 . S
H1625 C1634 0.929 . S
C1626 H1620 0.930 . S
C1626 C1627 1.367 . S
C1626 C1634 1.378 . S
C1627 C1626 1.367 . S
C1627 C1635 1.433 . S
C1628 H1624 0.929 . S
C1628 C1630 1.378 . S
C1628 C1632 1.350 . S
C1629 C1632 1.463 . S
C1629 C1634 1.350 . S
C1629 N1637 1.427 . S
C1630 H1621 0.930 . S
C1630 C1628 1.378 . S
C1630 C1631 1.367 1_545 S
C1631 C1630 1.367 1_565 S
C1631 C1633 1.433 1_565 S
C1632 C1628 1.350 . S
C1632 C1629 1.463 . S
C1632 N1636 1.427 . S
C1633 H1623 0.929 1_545 S
C1633 C1631 1.433 1_545 S
C1633 N1636 1.384 . S
C1634 H1625 0.929 . S
C1634 C1626 1.378 . S
C1634 C1629 1.350 . S
C1635 H1622 0.929 . S
C1635 C1627 1.433 . S
C1635 N1637 1.384 . S
N1636 C1632 1.427 . S
N1636 C1633 1.384 . S
N1637 C1629 1.427 . S
N1637 C1635 1.384 . S
H1638 C1644 0.930 1_565 S
H1639 C1648 0.930 . S
H1640 C1653 0.936 . S
H1641 C1651 0.929 1_455 S
H1642 C1646 0.929 . S
H1643 C1652 0.929 . S
C1644 H1638 0.930 1_545 S
C1644 C1645 1.367 1_545 S
C1644 C1652 1.378 . S
C1645 C1644 1.367 1_565 S
C1645 C1653 1.433 1_565 S
C1646 H1642 0.929 . S
C1646 C1648 1.378 . S
C1646 C1650 1.350 . S
C1647 C1650 1.463 . S
C1647 C1652 1.350 . S
C1647 N1655 1.427 . S
C1648 H1639 0.930 . S
C1648 C1646 1.378 . S
C1648 C1649 1.367 1_655 S
C1649 C1648 1.367 1_455 S
C1649 C1651 1.433 1_455 S
C1650 C1646 1.350 . S
C1650 C1647 1.463 . S
C1650 N1654 1.427 . S
C1651 H1641 0.929 1_655 S
C1651 C1649 1.433 1_655 S
C1651 N1654 1.384 . S
C1652 H1643 0.929 . S
C1652 C1644 1.378 . S
C1652 C1647 1.350 . S
C1653 H1640 0.936 . S
C1653 C1645 1.433 1_545 S
C1653 N1655 1.384 . S
N1654 C1650 1.427 . S
N1654 C1651 1.384 . S
N1655 C1647 1.427 . S
N1655 C1653 1.384 . S
H1656 C1662 0.930 . S
H1657 C1666 0.930 . S
H1658 C1671 0.929 . S
H1659 C1669 0.929 . S
H1660 C1664 0.929 . S
H1661 C1670 0.929 . S
C1662 H1656 0.930 . S
C1662 C1663 1.367 . S
C1662 C1670 1.378 . S
C1663 C1662 1.367 . S
C1663 C1671 1.433 . S
C1664 H1660 0.929 . S
C1664 C1666 1.378 . S
C1664 C1668 1.350 . S
C1665 C1668 1.463 . S
C1665 C1670 1.350 . S
C1665 N1673 1.427 . S
C1666 H1657 0.930 . S
C1666 C1664 1.378 . S
C1666 C1667 1.367 . S
C1667 C1666 1.367 . S
C1667 C1669 1.433 . S
C1668 C1664 1.350 . S
C1668 C1665 1.463 . S
C1668 N1672 1.427 . S
C1669 H1659 0.929 . S
C1669 C1667 1.433 . S
C1669 N1672 1.384 . S
C1670 H1661 0.929 . S
C1670 C1662 1.378 . S
C1670 C1665 1.350 . S
C1671 H1658 0.929 . S
C1671 C1663 1.433 . S
C1671 N1673 1.384 . S
N1672 C1668 1.427 . S
N1672 C1669 1.384 . S
N1673 C1665 1.427 . S
N1673 C1671 1.384 . S
H1674 C1680 0.930 . S
H1675 C1684 0.930 . S
H1676 C1689 0.929 . S
H1677 C1687 0.929 . S
H1678 C1682 0.929 . S
H1679 C1688 0.929 . S
C1680 H1674 0.930 . S
C1680 C1681 1.367 . S
C1680 C1688 1.378 . S
C1681 C1680 1.367 . S
C1681 C1689 1.433 . S
C1682 H1678 0.929 . S
C1682 C1684 1.378 . S
C1682 C1686 1.350 . S
C1683 C1686 1.463 . S
C1683 C1688 1.350 . S
C1683 N1691 1.427 . S
C1684 H1675 0.930 . S
C1684 C1682 1.378 . S
C1684 C1685 1.367 . S
C1685 C1684 1.367 . S
C1685 C1687 1.433 . S
C1686 C1682 1.350 . S
C1686 C1683 1.463 . S
C1686 N1690 1.427 . S
C1687 H1677 0.929 . S
C1687 C1685 1.433 . S
C1687 N1690 1.384 . S
C1688 H1679 0.929 . S
C1688 C1680 1.378 . S
C1688 C1683 1.350 . S
C1689 H1676 0.929 . S
C1689 C1681 1.433 . S
C1689 N1691 1.384 . S
N1690 C1686 1.427 . S
N1690 C1687 1.384 . S
N1691 C1683 1.427 . S
N1691 C1689 1.384 . S
H1692 C1698 0.930 . S
H1693 C1702 0.930 . S
H1694 C1707 0.929 . S
H1695 C1705 0.929 . S
H1696 C1700 0.929 . S
H1697 C1706 0.929 . S
C1698 H1692 0.930 . S
C1698 C1699 1.367 . S
C1698 C1706 1.378 . S
C1699 C1698 1.367 . S
C1699 C1707 1.433 . S
C1700 H1696 0.929 . S
C1700 C1702 1.378 . S
C1700 C1704 1.350 . S
C1701 C1704 1.463 . S
C1701 C1706 1.350 . S
C1701 N1709 1.427 . S
C1702 H1693 0.930 . S
C1702 C1700 1.378 . S
C1702 C1703 1.367 . S
C1703 C1702 1.367 . S
C1703 C1705 1.433 . S
C1704 C1700 1.350 . S
C1704 C1701 1.463 . S
C1704 N1708 1.427 . S
C1705 H1695 0.929 . S
C1705 C1703 1.433 . S
C1705 N1708 1.384 . S
C1706 H1697 0.929 . S
C1706 C1698 1.378 . S
C1706 C1701 1.350 . S
C1707 H1694 0.929 . S
C1707 C1699 1.433 . S
C1707 N1709 1.384 . S
N1708 C1704 1.427 . S
N1708 C1705 1.384 . S
N1709 C1701 1.427 . S
N1709 C1707 1.384 . S
H1710 C1716 0.930 . S
H1711 C1720 0.930 . S
H1712 C1725 0.929 . S
H1713 C1723 0.929 . S
H1714 C1718 0.929 . S
H1715 C1724 0.929 . S
C1716 H1710 0.930 . S
C1716 C1717 1.367 . S
C1716 C1724 1.378 . S
C1717 C1716 1.367 . S
C1717 C1725 1.433 . S
C1718 H1714 0.929 . S
C1718 C1720 1.378 . S
C1718 C1722 1.350 . S
C1719 C1722 1.463 . S
C1719 C1724 1.350 . S
C1719 N1727 1.427 . S
C1720 H1711 0.930 . S
C1720 C1718 1.378 . S
C1720 C1721 1.367 . S
C1721 C1720 1.367 . S
C1721 C1723 1.433 . S
C1722 C1718 1.350 . S
C1722 C1719 1.463 . S
C1722 N1726 1.427 . S
C1723 H1713 0.929 . S
C1723 C1721 1.433 . S
C1723 N1726 1.384 . S
C1724 H1715 0.929 . S
C1724 C1716 1.378 . S
C1724 C1719 1.350 . S
C1725 H1712 0.929 . S
C1725 C1717 1.433 . S
C1725 N1727 1.384 . S
N1726 C1722 1.427 . S
N1726 C1723 1.384 . S
N1727 C1719 1.427 . S
N1727 C1725 1.384 . S
H1728 C1734 0.930 . S
H1729 C1738 0.930 . S
H1730 C1743 0.929 . S
H1731 C1741 0.929 . S
H1732 C1736 0.929 . S
H1733 C1742 0.929 . S
C1734 H1728 0.930 . S
C1734 C1735 1.367 . S
C1734 C1742 1.378 . S
C1735 C1734 1.367 . S
C1735 C1743 1.433 . S
C1736 H1732 0.929 . S
C1736 C1738 1.378 . S
C1736 C1740 1.350 . S
C1737 C1740 1.463 . S
C1737 C1742 1.350 . S
C1737 N1745 1.427 . S
C1738 H1729 0.930 . S
C1738 C1736 1.378 . S
C1738 C1739 1.367 . S
C1739 C1738 1.367 . S
C1739 C1741 1.433 . S
C1740 C1736 1.350 . S
C1740 C1737 1.463 . S
C1740 N1744 1.427 . S
C1741 H1731 0.929 . S
C1741 C1739 1.433 . S
C1741 N1744 1.384 . S
C1742 H1733 0.929 . S
C1742 C1734 1.378 . S
C1742 C1737 1.350 . S
C1743 H1730 0.929 . S
C1743 C1735 1.433 . S
C1743 N1745 1.384 . S
N1744 C1740 1.427 . S
N1744 C1741 1.384 . S
N1745 C1737 1.427 . S
N1745 C1743 1.384 . S
H1746 C1752 0.930 . S
H1747 C1756 0.930 . S
H1748 C1761 0.929 . S
H1749 C1759 0.929 . S
H1750 C1754 0.929 . S
H1751 C1760 0.929 . S
C1752 H1746 0.930 . S
C1752 C1753 1.367 . S
C1752 C1760 1.378 . S
C1753 C1752 1.367 . S
C1753 C1761 1.433 . S
C1754 H1750 0.929 . S
C1754 C1756 1.378 . S
C1754 C1758 1.350 . S
C1755 C1758 1.463 . S
C1755 C1760 1.350 . S
C1755 N1763 1.427 . S
C1756 H1747 0.930 . S
C1756 C1754 1.378 . S
C1756 C1757 1.367 . S
C1757 C1756 1.367 . S
C1757 C1759 1.433 . S
C1758 C1754 1.350 . S
C1758 C1755 1.463 . S
C1758 N1762 1.427 . S
C1759 H1749 0.929 . S
C1759 C1757 1.433 . S
C1759 N1762 1.384 . S
C1760 H1751 0.929 . S
C1760 C1752 1.378 . S
C1760 C1755 1.350 . S
C1761 H1748 0.929 . S
C1761 C1753 1.433 . S
C1761 N1763 1.384 . S
N1762 C1758 1.427 . S
N1762 C1759 1.384 . S
N1763 C1755 1.427 . S
N1763 C1761 1.384 . S
H1764 C1770 0.930 . S
H1765 C1774 0.930 . S
H1766 C1779 0.929 . S
H1767 C1777 0.929 . S
H1768 C1772 0.929 . S
H1769 C1778 0.929 . S
C1770 H1764 0.930 . S
C1770 C1771 1.367 . S
C1770 C1778 1.378 . S
C1771 C1770 1.367 . S
C1771 C1779 1.433 . S
C1772 H1768 0.929 . S
C1772 C1774 1.378 . S
C1772 C1776 1.350 . S
C1773 C1776 1.463 . S
C1773 C1778 1.350 . S
C1773 N1781 1.427 . S
C1774 H1765 0.930 . S
C1774 C1772 1.378 . S
C1774 C1775 1.367 . S
C1775 C1774 1.367 . S
C1775 C1777 1.433 . S
C1776 C1772 1.350 . S
C1776 C1773 1.463 . S
C1776 N1780 1.427 . S
C1777 H1767 0.929 . S
C1777 C1775 1.433 . S
C1777 N1780 1.384 . S
C1778 H1769 0.929 . S
C1778 C1770 1.378 . S
C1778 C1773 1.350 . S
C1779 H1766 0.929 . S
C1779 C1771 1.433 . S
C1779 N1781 1.384 . S
N1780 C1776 1.427 . S
N1780 C1777 1.384 . S
N1781 C1773 1.427 . S
N1781 C1779 1.384 . S
H1782 C1788 0.930 . S
H1783 C1792 0.930 . S
H1784 C1797 0.929 . S
H1785 C1795 0.929 . S
H1786 C1790 0.929 . S
H1787 C1796 0.929 . S
C1788 H1782 0.930 . S
C1788 C1789 1.367 . S
C1788 C1796 1.378 . S
C1789 C1788 1.367 . S
C1789 C1797 1.433 . S
C1790 H1786 0.929 . S
C1790 C1792 1.378 . S
C1790 C1794 1.350 . S
C1791 C1794 1.463 . S
C1791 C1796 1.350 . S
C1791 N1799 1.427 . S
C1792 H1783 0.930 . S
C1792 C1790 1.378 . S
C1792 C1793 1.367 . S
C1793 C1792 1.367 . S
C1793 C1795 1.433 . S
C1794 C1790 1.350 . S
C1794 C1791 1.463 . S
C1794 N1798 1.427 . S
C1795 H1785 0.929 . S
C1795 C1793 1.433 . S
C1795 N1798 1.384 . S
C1796 H1787 0.929 . S
C1796 C1788 1.378 . S
C1796 C1791 1.350 . S
C1797 H1784 0.929 . S
C1797 C1789 1.433 . S
C1797 N1799 1.384 . S
N1798 C1794 1.427 . S
N1798 C1795 1.384 . S
N1799 C1791 1.427 . S
N1799 C1797 1.384 . S
H1800 C1806 0.930 . S
H1801 C1810 0.930 . S
H1802 C1815 0.929 . S
H1803 C1813 0.929 . S
H1804 C1808 0.929 . S
H1805 C1814 0.929 . S
C1806 H1800 0.930 . S
C1806 C1807 1.367 . S
C1806 C1814 1.378 . S
C1807 C1806 1.367 . S
C1807 C1815 1.433 . S
C1808 H1804 0.929 . S
C1808 C1810 1.378 . S
C1808 C1812 1.350 . S
C1809 C1812 1.463 . S
C1809 C1814 1.350 . S
C1809 N1817 1.427 . S
C1810 H1801 0.930 . S
C1810 C1808 1.378 . S
C1810 C1811 1.367 . S
C1811 C1810 1.367 . S
C1811 C1813 1.433 . S
C1812 C1808 1.350 . S
C1812 C1809 1.463 . S
C1812 N1816 1.427 . S
C1813 H1803 0.929 . S
C1813 C1811 1.433 . S
C1813 N1816 1.384 . S
C1814 H1805 0.929 . S
C1814 C1806 1.378 . S
C1814 C1809 1.350 . S
C1815 H1802 0.929 . S
C1815 C1807 1.433 . S
C1815 N1817 1.384 . S
N1816 C1812 1.427 . S
N1816 C1813 1.384 . S
N1817 C1809 1.427 . S
N1817 C1815 1.384 . S
H1818 C1824 0.930 . S
H1819 C1828 0.930 . S
H1820 C1833 0.929 . S
H1821 C1831 0.929 . S
H1822 C1826 0.929 . S
H1823 C1832 0.929 . S
C1824 H1818 0.930 . S
C1824 C1825 1.367 1_556 S
C1824 C1832 1.378 . S
C1825 C1824 1.367 1_554 S
C1825 C1833 1.433 . S
C1826 H1822 0.929 . S
C1826 C1828 1.378 . S
C1826 C1830 1.350 . S
C1827 C1830 1.463 . S
C1827 C1832 1.350 1_554 S
C1827 N1835 1.427 . S
C1828 H1819 0.930 . S
C1828 C1826 1.378 . S
C1828 C1829 1.367 . S
C1829 C1828 1.367 . S
C1829 C1831 1.433 1_554 S
C1830 C1826 1.350 . S
C1830 C1827 1.463 . S
C1830 N1834 1.427 1_554 S
C1831 H1821 0.929 . S
C1831 C1829 1.433 1_556 S
C1831 N1834 1.384 . S
C1832 H1823 0.929 . S
C1832 C1824 1.378 . S
C1832 C1827 1.350 1_556 S
C1833 H1820 0.929 . S
C1833 C1825 1.433 . S
C1833 N1835 1.384 . S
N1834 C1830 1.427 1_556 S
N1834 C1831 1.384 . S
N1835 C1827 1.427 . S
N1835 C1833 1.384 . S
H1836 C1842 0.930 . S
H1837 C1846 0.930 . S
H1838 C1851 0.929 . S
H1839 C1849 0.929 . S
H1840 C1844 0.929 . S
H1841 C1850 0.929 . S
C1842 H1836 0.930 . S
C1842 C1843 1.367 . S
C1842 C1850 1.378 . S
C1843 C1842 1.367 . S
C1843 C1851 1.433 1_554 S
C1844 H1840 0.929 . S
C1844 C1846 1.378 . S
C1844 C1848 1.350 1_556 S
C1845 C1848 1.463 . S
C1845 C1850 1.350 . S
C1845 N1853 1.427 1_554 S
C1846 H1837 0.930 . S
C1846 C1844 1.378 . S
C1846 C1847 1.367 1_556 S
C1847 C1846 1.367 1_554 S
C1847 C1849 1.433 . S
C1848 C1844 1.350 1_554 S
C1848 C1845 1.463 . S
C1848 N1852 1.427 . S
C1849 H1839 0.929 . S
C1849 C1847 1.433 . S
C1849 N1852 1.384 . S
C1850 H1841 0.929 . S
C1850 C1842 1.378 . S
C1850 C1845 1.350 . S
C1851 H1838 0.929 . S
C1851 C1843 1.433 1_556 S
C1851 N1853 1.384 . S
N1852 C1848 1.427 . S
N1852 C1849 1.384 . S
N1853 C1845 1.427 1_556 S
N1853 C1851 1.384 . S
H1854 C1860 0.930 . S
H1855 C1864 0.930 . S
H1856 C1869 0.929 . S
H1857 C1867 0.928 . S
H1858 C1862 0.929 . S
H1859 C1868 0.929 . S
C1860 H1854 0.930 . S
C1860 C1861 1.367 . S
C1860 C1868 1.378 . S
C1861 C1860 1.367 . S
C1861 C1869 1.433 . S
C1862 H1858 0.929 . S
C1862 C1864 1.378 . S
C1862 C1866 1.350 . S
C1863 C1866 1.463 . S
C1863 C1868 1.350 . S
C1863 N1871 1.427 . S
C1864 H1855 0.930 . S
C1864 C1862 1.378 . S
C1864 C1865 1.374 . S
C1865 C1864 1.374 . S
C1865 C1867 1.433 . S
C1866 C1862 1.350 . S
C1866 C1863 1.463 . S
C1866 N1870 1.427 . S
C1867 H1857 0.928 . S
C1867 C1865 1.433 . S
C1867 N1870 1.389 . S
C1868 H1859 0.929 . S
C1868 C1860 1.378 . S
C1868 C1863 1.350 . S
C1869 H1856 0.929 . S
C1869 C1861 1.433 . S
C1869 N1871 1.384 . S
N1870 C1866 1.427 . S
N1870 C1867 1.389 . S
N1871 C1863 1.427 . S
N1871 C1869 1.384 . S
H1872 C1878 0.930 . S
H1873 C1882 0.930 . S
H1874 C1887 0.929 . S
H1875 C1885 0.929 . S
H1876 C1880 0.929 . S
H1877 C1886 0.929 . S
C1878 H1872 0.930 . S
C1878 C1879 1.367 . S
C1878 C1886 1.378 . S
C1879 C1878 1.367 . S
C1879 C1887 1.433 . S
C1880 H1876 0.929 . S
C1880 C1882 1.378 . S
C1880 C1884 1.350 . S
C1881 C1884 1.463 . S
C1881 C1886 1.350 . S
C1881 N1889 1.427 . S
C1882 H1873 0.930 . S
C1882 C1880 1.378 . S
C1882 C1883 1.367 . S
C1883 C1882 1.367 . S
C1883 C1885 1.433 . S
C1884 C1880 1.350 . S
C1884 C1881 1.463 . S
C1884 N1888 1.427 . S
C1885 H1875 0.929 . S
C1885 C1883 1.433 . S
C1885 N1888 1.384 . S
C1886 H1877 0.929 . S
C1886 C1878 1.378 . S
C1886 C1881 1.350 . S
C1887 H1874 0.929 . S
C1887 C1879 1.433 . S
C1887 N1889 1.384 . S
N1888 C1884 1.427 . S
N1888 C1885 1.384 . S
N1889 C1881 1.427 . S
N1889 C1887 1.384 . S
H1890 C1896 0.930 . S
H1891 C1900 0.930 . S
H1892 C1905 0.929 . S
H1893 C1903 0.929 . S
H1894 C1898 0.929 . S
H1895 C1904 0.929 . S
C1896 H1890 0.930 . S
C1896 C1897 1.367 . S
C1896 C1904 1.378 . S
C1897 C1896 1.367 . S
C1897 C1905 1.433 . S
C1898 H1894 0.929 . S
C1898 C1900 1.378 . S
C1898 C1902 1.350 . S
C1899 C1902 1.463 . S
C1899 C1904 1.350 . S
C1899 N1907 1.427 . S
C1900 H1891 0.930 . S
C1900 C1898 1.378 . S
C1900 C1901 1.367 . S
C1901 C1900 1.367 . S
C1901 C1903 1.433 . S
C1902 C1898 1.350 . S
C1902 C1899 1.463 . S
C1902 N1906 1.427 . S
C1903 H1893 0.929 . S
C1903 C1901 1.433 . S
C1903 N1906 1.384 . S
C1904 H1895 0.929 . S
C1904 C1896 1.378 . S
C1904 C1899 1.350 . S
C1905 H1892 0.929 . S
C1905 C1897 1.433 . S
C1905 N1907 1.384 . S
N1906 C1902 1.427 . S
N1906 C1903 1.384 . S
N1907 C1899 1.427 . S
N1907 C1905 1.384 . S
H1908 C1914 0.930 . S
H1909 C1918 0.930 . S
H1910 C1923 0.929 . S
H1911 C1921 0.929 . S
H1912 C1916 0.929 . S
H1913 C1922 0.929 . S
C1914 H1908 0.930 . S
C1914 C1915 1.367 . S
C1914 C1922 1.378 . S
C1915 C1914 1.367 . S
C1915 C1923 1.433 . S
C1916 H1912 0.929 . S
C1916 C1918 1.378 . S
C1916 C1920 1.350 . S
C1917 C1920 1.463 . S
C1917 C1922 1.350 . S
C1917 N1925 1.427 . S
C1918 H1909 0.930 . S
C1918 C1916 1.378 . S
C1918 C1919 1.367 . S
C1919 C1918 1.367 . S
C1919 C1921 1.433 . S
C1920 C1916 1.350 . S
C1920 C1917 1.463 . S
C1920 N1924 1.427 . S
C1921 H1911 0.929 . S
C1921 C1919 1.433 . S
C1921 N1924 1.384 . S
C1922 H1913 0.929 . S
C1922 C1914 1.378 . S
C1922 C1917 1.350 . S
C1923 H1910 0.929 . S
C1923 C1915 1.433 . S
C1923 N1925 1.384 . S
N1924 C1920 1.427 . S
N1924 C1921 1.384 . S
N1925 C1917 1.427 . S
N1925 C1923 1.384 . S
H1926 C1932 0.930 . S
H1927 C1936 0.930 . S
H1928 C1941 0.929 . S
H1929 C1939 0.929 . S
H1930 C1934 0.929 . S
H1931 C1940 0.929 . S
C1932 H1926 0.930 . S
C1932 C1933 1.311 1_554 S
C1932 C1940 1.378 . S
C1933 C1932 1.311 1_556 S
C1933 C1941 1.493 . S
C1934 H1930 0.929 . S
C1934 C1936 1.378 . S
C1934 C1938 1.350 . S
C1935 C1938 1.463 . S
C1935 C1940 1.350 1_556 S
C1935 N1943 1.427 . S
C1936 H1927 0.930 . S
C1936 C1934 1.378 . S
C1936 C1937 1.367 . S
C1937 C1936 1.367 . S
C1937 C1939 1.433 1_556 S
C1938 C1934 1.350 . S
C1938 C1935 1.463 . S
C1938 N1942 1.427 1_556 S
C1939 H1929 0.929 . S
C1939 C1937 1.433 1_554 S
C1939 N1942 1.384 . S
C1940 H1931 0.929 . S
C1940 C1932 1.378 . S
C1940 C1935 1.350 1_554 S
C1941 H1928 0.929 . S
C1941 C1933 1.493 . S
C1941 N1943 1.384 . S
N1942 C1938 1.427 1_554 S
N1942 C1939 1.384 . S
N1943 C1935 1.427 . S
N1943 C1941 1.384 . S
H1944 C1950 0.930 . S
H1945 C1954 0.930 . S
H1946 C1959 0.929 . S
H1947 C1957 0.929 . S
H1948 C1952 0.929 . S
H1949 C1958 0.929 . S
C1950 H1944 0.930 . S
C1950 C1951 1.311 1_554 S
C1950 C1958 1.378 . S
C1951 C1950 1.311 1_556 S
C1951 C1959 1.493 . S
C1952 H1948 0.929 . S
C1952 C1954 1.378 . S
C1952 C1956 1.350 . S
C1953 C1956 1.463 . S
C1953 C1958 1.350 1_556 S
C1953 N1961 1.427 . S
C1954 H1945 0.930 . S
C1954 C1952 1.378 . S
C1954 C1955 1.367 . S
C1955 C1954 1.367 . S
C1955 C1957 1.433 1_556 S
C1956 C1952 1.350 . S
C1956 C1953 1.463 . S
C1956 N1960 1.427 1_556 S
C1957 H1947 0.929 . S
C1957 C1955 1.433 1_554 S
C1957 N1960 1.384 . S
C1958 H1949 0.929 . S
C1958 C1950 1.378 . S
C1958 C1953 1.350 1_554 S
C1959 H1946 0.929 . S
C1959 C1951 1.493 . S
C1959 N1961 1.384 . S
N1960 C1956 1.427 1_554 S
N1960 C1957 1.384 . S
N1961 C1953 1.427 . S
N1961 C1959 1.384 . S
H1962 C1968 0.930 . S
H1963 C1972 0.930 . S
H1964 C1977 0.929 . S
H1965 C1975 0.929 . S
H1966 C1970 0.929 . S
H1967 C1976 0.929 . S
C1968 H1962 0.930 . S
C1968 C1969 1.339 1_554 S
C1968 C1976 1.378 . S
C1969 C1968 1.339 1_556 S
C1969 C1977 1.469 . S
C1970 H1966 0.929 . S
C1970 C1972 1.378 . S
C1970 C1974 1.350 . S
C1971 C1974 1.463 . S
C1971 C1976 1.350 1_556 S
C1971 N1979 1.427 . S
C1972 H1963 0.930 . S
C1972 C1970 1.378 . S
C1972 C1973 1.367 . S
C1973 C1972 1.367 . S
C1973 C1975 1.433 1_556 S
C1974 C1970 1.350 . S
C1974 C1971 1.463 . S
C1974 N1978 1.427 1_556 S
C1975 H1965 0.929 . S
C1975 C1973 1.433 1_554 S
C1975 N1978 1.384 . S
C1976 H1967 0.929 . S
C1976 C1968 1.378 . S
C1976 C1971 1.350 1_554 S
C1977 H1964 0.929 . S
C1977 C1969 1.469 . S
C1977 N1979 1.384 . S
N1978 C1974 1.427 1_554 S
N1978 C1975 1.384 . S
N1979 C1971 1.427 . S
N1979 C1977 1.384 . S
H1980 C1986 0.930 . S
H1981 C1990 0.930 . S
H1982 C1995 0.929 . S
H1983 C1993 0.929 . S
H1984 C1988 0.929 . S
H1985 C1994 0.929 . S
C1986 H1980 0.930 . S
C1986 C1987 1.367 . S
C1986 C1994 1.378 . S
C1987 C1986 1.367 . S
C1987 C1995 1.433 . S
C1988 H1984 0.929 . S
C1988 C1990 1.378 . S
C1988 C1992 1.350 . S
C1989 C1992 1.463 . S
C1989 C1994 1.350 . S
C1989 N1997 1.427 . S
C1990 H1981 0.930 . S
C1990 C1988 1.378 . S
C1990 C1991 1.367 . S
C1991 C1990 1.367 . S
C1991 C1993 1.433 . S
C1992 C1988 1.350 . S
C1992 C1989 1.463 . S
C1992 N1996 1.427 . S
C1993 H1983 0.929 . S
C1993 C1991 1.433 . S
C1993 N1996 1.384 . S
C1994 H1985 0.929 . S
C1994 C1986 1.378 . S
C1994 C1989 1.350 . S
C1995 H1982 0.929 . S
C1995 C1987 1.433 . S
C1995 N1997 1.384 . S
N1996 C1992 1.427 . S
N1996 C1993 1.384 . S
N1997 C1989 1.427 . S
N1997 C1995 1.384 . S
H1998 C2004 0.930 . S
H1999 C2008 0.930 . S
H2000 C2013 0.929 . S
H2001 C2011 0.929 . S
H2002 C2006 0.929 . S
H2003 C2012 0.929 . S
C2004 H1998 0.930 . S
C2004 C2005 1.367 . S
C2004 C2012 1.378 . S
C2005 C2004 1.367 . S
C2005 C2013 1.433 . S
C2006 H2002 0.929 . S
C2006 C2008 1.378 . S
C2006 C2010 1.350 . S
C2007 C2010 1.463 . S
C2007 C2012 1.350 . S
C2007 N2015 1.427 . S
C2008 H1999 0.930 . S
C2008 C2006 1.378 . S
C2008 C2009 1.367 . S
C2009 C2008 1.367 . S
C2009 C2011 1.433 . S
C2010 C2006 1.350 . S
C2010 C2007 1.463 . S
C2010 N2014 1.427 . S
C2011 H2001 0.929 . S
C2011 C2009 1.433 . S
C2011 N2014 1.384 . S
C2012 H2003 0.929 . S
C2012 C2004 1.378 . S
C2012 C2007 1.350 . S
C2013 H2000 0.929 . S
C2013 C2005 1.433 . S
C2013 N2015 1.384 . S
N2014 C2010 1.427 . S
N2014 C2011 1.384 . S
N2015 C2007 1.427 . S
N2015 C2013 1.384 . S
H2016 C2022 0.930 . S
H2017 C2026 0.930 . S
H2018 C2031 0.929 . S
H2019 C2029 0.929 . S
H2020 C2024 0.929 . S
H2021 C2030 0.929 . S
C2022 H2016 0.930 . S
C2022 C2023 1.367 . S
C2022 C2030 1.378 . S
C2023 C2022 1.367 . S
C2023 C2031 1.433 . S
C2024 H2020 0.929 . S
C2024 C2026 1.378 . S
C2024 C2028 1.350 . S
C2025 C2028 1.463 . S
C2025 C2030 1.350 . S
C2025 N2033 1.427 . S
C2026 H2017 0.930 . S
C2026 C2024 1.378 . S
C2026 C2027 1.367 . S
C2027 C2026 1.367 . S
C2027 C2029 1.433 . S
C2028 C2024 1.350 . S
C2028 C2025 1.463 . S
C2028 N2032 1.427 . S
C2029 H2019 0.929 . S
C2029 C2027 1.433 . S
C2029 N2032 1.384 . S
C2030 H2021 0.929 . S
C2030 C2022 1.378 . S
C2030 C2025 1.350 . S
C2031 H2018 0.929 . S
C2031 C2023 1.433 . S
C2031 N2033 1.384 . S
N2032 C2028 1.427 . S
N2032 C2029 1.384 . S
N2033 C2025 1.427 . S
N2033 C2031 1.384 . S
H2034 C2040 0.930 . S
H2035 C2044 0.930 . S
H2036 C2049 0.929 . S
H2037 C2047 0.929 . S
H2038 C2042 0.929 . S
H2039 C2048 0.929 . S
C2040 H2034 0.930 . S
C2040 C2041 1.367 . S
C2040 C2048 1.378 . S
C2041 C2040 1.367 . S
C2041 C2049 1.433 . S
C2042 H2038 0.929 . S
C2042 C2044 1.378 . S
C2042 C2046 1.350 . S
C2043 C2046 1.463 . S
C2043 C2048 1.350 . S
C2043 N2051 1.427 . S
C2044 H2035 0.930 . S
C2044 C2042 1.378 . S
C2044 C2045 1.367 . S
C2045 C2044 1.367 . S
C2045 C2047 1.433 . S
C2046 C2042 1.350 . S
C2046 C2043 1.463 . S
C2046 N2050 1.427 . S
C2047 H2037 0.929 . S
C2047 C2045 1.433 . S
C2047 N2050 1.384 . S
C2048 H2039 0.929 . S
C2048 C2040 1.378 . S
C2048 C2043 1.350 . S
C2049 H2036 0.929 . S
C2049 C2041 1.433 . S
C2049 N2051 1.384 . S
N2050 C2046 1.427 . S
N2050 C2047 1.384 . S
N2051 C2043 1.427 . S
N2051 C2049 1.384 . S
H2052 C2058 0.930 . S
H2053 C2062 0.930 . S
H2054 C2067 0.929 . S
H2055 C2065 0.929 . S
H2056 C2060 0.929 . S
H2057 C2066 0.929 . S
C2058 H2052 0.930 . S
C2058 C2059 1.367 . S
C2058 C2066 1.378 . S
C2059 C2058 1.367 . S
C2059 C2067 1.433 . S
C2060 H2056 0.929 . S
C2060 C2062 1.378 . S
C2060 C2064 1.350 . S
C2061 C2064 1.463 . S
C2061 C2066 1.350 . S
C2061 N2069 1.427 . S
C2062 H2053 0.930 . S
C2062 C2060 1.378 . S
C2062 C2063 1.367 . S
C2063 C2062 1.367 . S
C2063 C2065 1.433 . S
C2064 C2060 1.350 . S
C2064 C2061 1.463 . S
C2064 N2068 1.427 . S
C2065 H2055 0.929 . S
C2065 C2063 1.433 . S
C2065 N2068 1.384 . S
C2066 H2057 0.929 . S
C2066 C2058 1.378 . S
C2066 C2061 1.350 . S
C2067 H2054 0.929 . S
C2067 C2059 1.433 . S
C2067 N2069 1.384 . S
N2068 C2064 1.427 . S
N2068 C2065 1.384 . S
N2069 C2061 1.427 . S
N2069 C2067 1.384 . S
H2070 C2076 0.930 . S
H2071 C2080 0.930 . S
H2072 C2085 0.929 . S
H2073 C2083 0.929 . S
H2074 C2078 0.929 . S
H2075 C2084 0.929 . S
C2076 H2070 0.930 . S
C2076 C2077 1.367 . S
C2076 C2084 1.378 . S
C2077 C2076 1.367 . S
C2077 C2085 1.433 . S
C2078 H2074 0.929 . S
C2078 C2080 1.378 . S
C2078 C2082 1.350 . S
C2079 C2082 1.463 . S
C2079 C2084 1.350 . S
C2079 N2087 1.427 . S
C2080 H2071 0.930 . S
C2080 C2078 1.378 . S
C2080 C2081 1.367 . S
C2081 C2080 1.367 . S
C2081 C2083 1.433 . S
C2082 C2078 1.350 . S
C2082 C2079 1.463 . S
C2082 N2086 1.427 . S
C2083 H2073 0.929 . S
C2083 C2081 1.433 . S
C2083 N2086 1.384 . S
C2084 H2075 0.929 . S
C2084 C2076 1.378 . S
C2084 C2079 1.350 . S
C2085 H2072 0.929 . S
C2085 C2077 1.433 . S
C2085 N2087 1.384 . S
N2086 C2082 1.427 . S
N2086 C2083 1.384 . S
N2087 C2079 1.427 . S
N2087 C2085 1.384 . S
H2088 C2094 0.930 . S
H2089 C2098 0.930 . S
H2090 C2103 0.929 . S
H2091 C2101 0.929 . S
H2092 C2096 0.929 . S
H2093 C2102 0.929 . S
C2094 H2088 0.930 . S
C2094 C2095 1.367 . S
C2094 C2102 1.378 . S
C2095 C2094 1.367 . S
C2095 C2103 1.433 . S
C2096 H2092 0.929 . S
C2096 C2098 1.378 . S
C2096 C2100 1.350 . S
C2097 C2100 1.463 . S
C2097 C2102 1.350 . S
C2097 N2105 1.427 . S
C2098 H2089 0.930 . S
C2098 C2096 1.378 . S
C2098 C2099 1.367 . S
C2099 C2098 1.367 . S
C2099 C2101 1.433 . S
C2100 C2096 1.350 . S
C2100 C2097 1.463 . S
C2100 N2104 1.427 . S
C2101 H2091 0.929 . S
C2101 C2099 1.433 . S
C2101 N2104 1.384 . S
C2102 H2093 0.929 . S
C2102 C2094 1.378 . S
C2102 C2097 1.350 . S
C2103 H2090 0.929 . S
C2103 C2095 1.433 . S
C2103 N2105 1.384 . S
N2104 C2100 1.427 . S
N2104 C2101 1.384 . S
N2105 C2097 1.427 . S
N2105 C2103 1.384 . S
H2106 C2112 0.930 1_545 S
H2107 C2116 0.930 . S
H2108 C2121 0.929 . S
H2109 C2119 0.929 . S
H2110 C2114 0.929 . S
H2111 C2120 0.929 . S
C2112 H2106 0.930 1_565 S
C2112 C2113 1.367 1_565 S
C2112 C2120 1.378 . S
C2113 C2112 1.367 1_545 S
C2113 C2121 1.433 . S
C2114 H2110 0.929 . S
C2114 C2116 1.378 . S
C2114 C2118 1.350 . S
C2115 C2118 1.463 . S
C2115 C2120 1.350 . S
C2115 N2123 1.427 . S
C2116 H2107 0.930 . S
C2116 C2114 1.378 . S
C2116 C2117 1.367 . S
C2117 C2116 1.367 . S
C2117 C2119 1.433 . S
C2118 C2114 1.350 . S
C2118 C2115 1.463 . S
C2118 N2122 1.427 . S
C2119 H2109 0.929 . S
C2119 C2117 1.433 . S
C2119 N2122 1.384 . S
C2120 H2111 0.929 . S
C2120 C2112 1.378 . S
C2120 C2115 1.350 . S
C2121 H2108 0.929 . S
C2121 C2113 1.433 . S
C2121 N2123 1.384 1_545 S
N2122 C2118 1.427 . S
N2122 C2119 1.384 . S
N2123 C2115 1.427 . S
N2123 C2121 1.384 1_565 S
H2124 C2130 0.930 . S
H2125 C2134 0.930 . S
H2126 C2139 0.929 . S
H2127 C2137 0.929 . S
H2128 C2132 0.929 . S
H2129 C2138 0.929 . S
C2130 H2124 0.930 . S
C2130 C2131 1.367 . S
C2130 C2138 1.378 . S
C2131 C2130 1.367 . S
C2131 C2139 1.433 . S
C2132 H2128 0.929 . S
C2132 C2134 1.378 1_455 S
C2132 C2136 1.350 . S
C2133 C2136 1.463 . S
C2133 C2138 1.350 . S
C2133 N2141 1.427 . S
C2134 H2125 0.930 . S
C2134 C2132 1.378 1_655 S
C2134 C2135 1.367 . S
C2135 C2134 1.367 . S
C2135 C2137 1.433 1_655 S
C2136 C2132 1.350 . S
C2136 C2133 1.463 . S
C2136 N2140 1.427 . S
C2137 H2127 0.929 . S
C2137 C2135 1.433 1_455 S
C2137 N2140 1.384 . S
C2138 H2129 0.929 . S
C2138 C2130 1.378 . S
C2138 C2133 1.350 . S
C2139 H2126 0.929 . S
C2139 C2131 1.433 . S
C2139 N2141 1.384 . S
N2140 C2136 1.427 . S
N2140 C2137 1.384 . S
N2141 C2133 1.427 . S
N2141 C2139 1.384 . S
H2142 C2148 0.930 . S
H2143 C2152 0.930 . S
H2144 C2157 0.929 . S
H2145 C2155 0.929 . S
H2146 C2150 0.929 . S
H2147 C2156 0.929 . S
C2148 H2142 0.930 . S
C2148 C2149 1.367 . S
C2148 C2156 1.378 . S
C2149 C2148 1.367 . S
C2149 C2157 1.433 . S
C2150 H2146 0.929 . S
C2150 C2152 1.378 . S
C2150 C2154 1.350 . S
C2151 C2154 1.463 . S
C2151 C2156 1.350 . S
C2151 N2159 1.427 . S
C2152 H2143 0.930 . S
C2152 C2150 1.378 . S
C2152 C2153 1.367 . S
C2153 C2152 1.367 . S
C2153 C2155 1.433 . S
C2154 C2150 1.350 . S
C2154 C2151 1.463 . S
C2154 N2158 1.427 . S
C2155 H2145 0.929 . S
C2155 C2153 1.433 . S
C2155 N2158 1.384 . S
C2156 H2147 0.929 . S
C2156 C2148 1.378 . S
C2156 C2151 1.350 . S
C2157 H2144 0.929 . S
C2157 C2149 1.433 . S
C2157 N2159 1.384 . S
N2158 C2154 1.427 . S
N2158 C2155 1.384 . S
N2159 C2151 1.427 . S
N2159 C2157 1.384 . S
H2160 C2166 0.930 . S
H2161 C2170 0.930 . S
H2162 C2175 0.929 . S
H2163 C2173 0.929 . S
H2164 C2168 0.929 . S
H2165 C2174 0.929 . S
C2166 H2160 0.930 . S
C2166 C2167 1.367 1_545 S
C2166 C2174 1.378 . S
C2167 C2166 1.367 1_565 S
C2167 C2175 1.433 . S
C2168 H2164 0.929 . S
C2168 C2170 1.378 . S
C2168 C2172 1.350 . S
C2169 C2172 1.463 . S
C2169 C2174 1.350 . S
C2169 N2177 1.425 1_545 S
C2170 H2161 0.930 . S
C2170 C2168 1.378 . S
C2170 C2171 1.367 . S
C2171 C2170 1.367 . S
C2171 C2173 1.433 . S
C2172 C2168 1.350 . S
C2172 C2169 1.463 . S
C2172 N2176 1.427 . S
C2173 H2163 0.929 . S
C2173 C2171 1.433 . S
C2173 N2176 1.384 . S
C2174 H2165 0.929 . S
C2174 C2166 1.378 . S
C2174 C2169 1.350 . S
C2175 H2162 0.929 . S
C2175 C2167 1.433 . S
C2175 N2177 1.384 . S
N2176 C2172 1.427 . S
N2176 C2173 1.384 . S
N2177 C2169 1.425 1_565 S
N2177 C2175 1.384 . S
H2178 C2184 0.930 . S
H2179 C2188 0.930 . S
H2180 C2193 0.929 . S
H2181 C2191 0.929 . S
H2182 C2186 0.929 . S
H2183 C2192 0.929 . S
C2184 H2178 0.930 . S
C2184 C2185 1.367 . S
C2184 C2192 1.378 . S
C2185 C2184 1.367 . S
C2185 C2193 1.433 . S
C2186 H2182 0.929 . S
C2186 C2188 1.378 . S
C2186 C2190 1.350 1_455 S
C2187 C2190 1.463 . S
C2187 C2192 1.350 . S
C2187 N2195 1.427 . S
C2188 H2179 0.930 . S
C2188 C2186 1.378 . S
C2188 C2189 1.367 . S
C2189 C2188 1.367 . S
C2189 C2191 1.433 1_455 S
C2190 C2186 1.350 1_655 S
C2190 C2187 1.463 . S
C2190 N2194 1.427 . S
C2191 H2181 0.929 . S
C2191 C2189 1.433 1_655 S
C2191 N2194 1.384 . S
C2192 H2183 0.929 . S
C2192 C2184 1.378 . S
C2192 C2187 1.350 . S
C2193 H2180 0.929 . S
C2193 C2185 1.433 . S
C2193 N2195 1.384 . S
N2194 C2190 1.427 . S
N2194 C2191 1.384 . S
N2195 C2187 1.427 . S
N2195 C2193 1.384 . S
H2196 C2202 0.930 . S
H2197 C2206 0.930 . S
H2198 C2211 0.929 . S
H2199 C2209 0.929 . S
H2200 C2204 0.929 . S
H2201 C2210 0.929 . S
C2202 H2196 0.930 . S
C2202 C2203 1.367 . S
C2202 C2210 1.378 . S
C2203 C2202 1.367 . S
C2203 C2211 1.433 . S
C2204 H2200 0.929 . S
C2204 C2206 1.378 . S
C2204 C2208 1.350 . S
C2205 C2208 1.463 . S
C2205 C2210 1.350 . S
C2205 N2213 1.427 . S
C2206 H2197 0.930 . S
C2206 C2204 1.378 . S
C2206 C2207 1.367 . S
C2207 C2206 1.367 . S
C2207 C2209 1.433 . S
C2208 C2204 1.350 . S
C2208 C2205 1.463 . S
C2208 N2212 1.427 . S
C2209 H2199 0.929 . S
C2209 C2207 1.433 . S
C2209 N2212 1.384 . S
C2210 H2201 0.929 . S
C2210 C2202 1.378 . S
C2210 C2205 1.350 . S
C2211 H2198 0.929 . S
C2211 C2203 1.433 . S
C2211 N2213 1.384 . S
N2212 C2208 1.427 . S
N2212 C2209 1.384 . S
N2213 C2205 1.427 . S
N2213 C2211 1.384 . S
H2214 C2220 0.930 . S
H2215 C2224 0.930 . S
H2216 C2229 0.929 . S
H2217 C2227 0.929 . S
H2218 C2222 0.929 . S
H2219 C2228 0.929 . S
C2220 H2214 0.930 . S
C2220 C2221 1.367 . S
C2220 C2228 1.378 . S
C2221 C2220 1.367 . S
C2221 C2229 1.433 . S
C2222 H2218 0.929 . S
C2222 C2224 1.378 . S
C2222 C2226 1.350 . S
C2223 C2226 1.463 . S
C2223 C2228 1.350 . S
C2223 N2231 1.427 . S
C2224 H2215 0.930 . S
C2224 C2222 1.378 . S
C2224 C2225 1.367 1_545 S
C2225 C2224 1.367 1_565 S
C2225 C2227 1.433 . S
C2226 C2222 1.350 . S
C2226 C2223 1.463 . S
C2226 N2230 1.397 1_545 S
C2227 H2217 0.929 . S
C2227 C2225 1.433 . S
C2227 N2230 1.415 . S
C2228 H2219 0.929 . S
C2228 C2220 1.378 . S
C2228 C2223 1.350 . S
C2229 H2216 0.929 . S
C2229 C2221 1.433 . S
C2229 N2231 1.384 . S
N2230 C2226 1.397 1_565 S
N2230 C2227 1.415 . S
N2231 C2223 1.427 . S
N2231 C2229 1.384 . S
H2232 C2238 0.930 . S
H2233 C2242 0.930 . S
H2234 C2247 0.929 . S
H2235 C2245 0.929 . S
H2236 C2240 0.929 . S
H2237 C2246 0.929 . S
C2238 H2232 0.930 . S
C2238 C2239 1.367 . S
C2238 C2246 1.378 . S
C2239 C2238 1.367 . S
C2239 C2247 1.433 . S
C2240 H2236 0.929 . S
C2240 C2242 1.378 . S
C2240 C2244 1.350 . S
C2241 C2244 1.463 . S
C2241 C2246 1.350 . S
C2241 N2249 1.427 . S
C2242 H2233 0.930 . S
C2242 C2240 1.378 . S
C2242 C2243 1.367 1_655 S
C2243 C2242 1.367 1_455 S
C2243 C2245 1.433 . S
C2244 C2240 1.350 . S
C2244 C2241 1.463 . S
C2244 N2248 1.427 1_655 S
C2245 H2235 0.929 . S
C2245 C2243 1.433 . S
C2245 N2248 1.384 . S
C2246 H2237 0.929 . S
C2246 C2238 1.378 . S
C2246 C2241 1.350 . S
C2247 H2234 0.929 . S
C2247 C2239 1.433 . S
C2247 N2249 1.384 . S
N2248 C2244 1.427 1_455 S
N2248 C2245 1.384 . S
N2249 C2241 1.427 . S
N2249 C2247 1.384 . S
H2250 C2256 0.930 . S
H2251 C2260 0.930 . S
H2252 C2265 0.929 . S
H2253 C2263 0.929 . S
H2254 C2258 0.929 . S
H2255 C2264 0.929 . S
C2256 H2250 0.930 . S
C2256 C2257 1.367 . S
C2256 C2264 1.378 . S
C2257 C2256 1.367 . S
C2257 C2265 1.433 . S
C2258 H2254 0.929 . S
C2258 C2260 1.378 . S
C2258 C2262 1.350 . S
C2259 C2262 1.463 . S
C2259 C2264 1.350 . S
C2259 N2267 1.427 . S
C2260 H2251 0.930 . S
C2260 C2258 1.378 . S
C2260 C2261 1.367 . S
C2261 C2260 1.367 . S
C2261 C2263 1.433 . S
C2262 C2258 1.350 . S
C2262 C2259 1.463 . S
C2262 N2266 1.427 . S
C2263 H2253 0.929 . S
C2263 C2261 1.433 . S
C2263 N2266 1.384 . S
C2264 H2255 0.929 . S
C2264 C2256 1.378 . S
C2264 C2259 1.350 . S
C2265 H2252 0.929 . S
C2265 C2257 1.433 . S
C2265 N2267 1.384 . S
N2266 C2262 1.427 . S
N2266 C2263 1.384 . S
N2267 C2259 1.427 . S
N2267 C2265 1.384 . S
H2268 C2274 0.930 . S
H2269 C2278 0.930 . S
H2270 C2283 0.929 . S
H2271 C2281 0.929 . S
H2272 C2276 0.929 . S
H2273 C2282 0.929 . S
C2274 H2268 0.930 . S
C2274 C2275 1.367 . S
C2274 C2282 1.378 . S
C2275 C2274 1.367 . S
C2275 C2283 1.433 1_545 S
C2276 H2272 0.929 . S
C2276 C2278 1.378 . S
C2276 C2280 1.350 . S
C2277 C2280 1.463 . S
C2277 C2282 1.350 1_565 S
C2277 N2285 1.427 . S
C2278 H2269 0.930 . S
C2278 C2276 1.378 . S
C2278 C2279 1.367 . S
C2279 C2278 1.367 . S
C2279 C2281 1.433 . S
C2280 C2276 1.350 . S
C2280 C2277 1.463 . S
C2280 N2284 1.427 . S
C2281 H2271 0.929 . S
C2281 C2279 1.433 . S
C2281 N2284 1.384 . S
C2282 H2273 0.929 . S
C2282 C2274 1.378 . S
C2282 C2277 1.350 1_545 S
C2283 H2270 0.929 . S
C2283 C2275 1.433 1_565 S
C2283 N2285 1.384 . S
N2284 C2280 1.427 . S
N2284 C2281 1.384 . S
N2285 C2277 1.427 . S
N2285 C2283 1.384 . S
H2286 C2292 0.930 . S
H2287 C2296 0.930 . S
H2288 C2301 0.929 . S
H2289 C2299 0.929 . S
H2290 C2294 0.929 1_655 S
H2291 C2300 0.929 . S
C2292 H2286 0.930 . S
C2292 C2293 1.367 1_455 S
C2292 C2300 1.378 . S
C2293 C2292 1.367 1_655 S
C2293 C2301 1.433 . S
C2294 H2290 0.929 1_455 S
C2294 C2296 1.378 . S
C2294 C2298 1.350 . S
C2295 C2298 1.463 . S
C2295 C2300 1.350 . S
C2295 N2303 1.427 1_455 S
C2296 H2287 0.930 . S
C2296 C2294 1.378 . S
C2296 C2297 1.367 . S
C2297 C2296 1.367 . S
C2297 C2299 1.433 . S
C2298 C2294 1.350 . S
C2298 C2295 1.463 . S
C2298 N2302 1.427 . S
C2299 H2289 0.929 . S
C2299 C2297 1.433 . S
C2299 N2302 1.384 . S
C2300 H2291 0.929 . S
C2300 C2292 1.378 . S
C2300 C2295 1.350 . S
C2301 H2288 0.929 . S
C2301 C2293 1.433 . S
C2301 N2303 1.384 . S
N2302 C2298 1.427 . S
N2302 C2299 1.384 . S
N2303 C2295 1.427 1_655 S
N2303 C2301 1.384 . S
H2304 C2310 0.930 1_655 S
H2305 C2314 0.930 . S
H2306 C2319 0.929 . S
H2307 C2317 0.929 . S
H2308 C2312 0.929 . S
H2309 C2318 0.929 . S
C2310 H2304 0.930 1_455 S
C2310 C2311 1.367 . S
C2310 C2318 1.378 . S
C2311 C2310 1.367 . S
C2311 C2319 1.433 . S
C2312 H2308 0.929 . S
C2312 C2314 1.378 . S
C2312 C2316 1.350 . S
C2313 C2316 1.463 . S
C2313 C2318 1.350 . S
C2313 N2321 1.427 . S
C2314 H2305 0.930 . S
C2314 C2312 1.378 . S
C2314 C2315 1.367 . S
C2315 C2314 1.367 . S
C2315 C2317 1.433 . S
C2316 C2312 1.350 . S
C2316 C2313 1.463 . S
C2316 N2320 1.427 . S
C2317 H2307 0.929 . S
C2317 C2315 1.433 . S
C2317 N2320 1.384 . S
C2318 H2309 0.929 . S
C2318 C2310 1.378 . S
C2318 C2313 1.350 . S
C2319 H2306 0.929 . S
C2319 C2311 1.433 . S
C2319 N2321 1.384 . S
N2320 C2316 1.427 . S
N2320 C2317 1.384 . S
N2321 C2313 1.427 . S
N2321 C2319 1.384 . S
H2322 C2328 0.930 . S
H2323 C2332 0.930 . S
H2324 C2337 0.929 . S
H2325 C2335 0.929 . S
H2326 C2330 0.929 . S
H2327 C2336 0.929 . S
C2328 H2322 0.930 . S
C2328 C2329 1.367 . S
C2328 C2336 1.378 . S
C2329 C2328 1.367 . S
C2329 C2337 1.433 . S
C2330 H2326 0.929 . S
C2330 C2332 1.378 . S
C2330 C2334 1.350 . S
C2331 C2334 1.463 . S
C2331 C2336 1.350 . S
C2331 N2339 1.427 . S
C2332 H2323 0.930 . S
C2332 C2330 1.378 . S
C2332 C2333 1.367 . S
C2333 C2332 1.367 . S
C2333 C2335 1.433 . S
C2334 C2330 1.350 . S
C2334 C2331 1.463 . S
C2334 N2338 1.427 . S
C2335 H2325 0.929 . S
C2335 C2333 1.433 . S
C2335 N2338 1.384 . S
C2336 H2327 0.929 . S
C2336 C2328 1.378 . S
C2336 C2331 1.350 . S
C2337 H2324 0.929 . S
C2337 C2329 1.433 . S
C2337 N2339 1.384 . S
N2338 C2334 1.427 . S
N2338 C2335 1.384 . S
N2339 C2331 1.427 . S
N2339 C2337 1.384 . S
H2340 C2346 0.930 . S
H2341 C2350 0.930 1_545 S
H2342 C2355 0.929 . S
H2343 C2353 0.929 . S
H2344 C2348 0.929 . S
H2345 C2354 0.929 . S
C2346 H2340 0.930 . S
C2346 C2347 1.367 . S
C2346 C2354 1.378 . S
C2347 C2346 1.367 . S
C2347 C2355 1.433 . S
C2348 H2344 0.929 . S
C2348 C2350 1.378 . S
C2348 C2352 1.350 . S
C2349 C2352 1.463 . S
C2349 C2354 1.350 . S
C2349 N2357 1.427 . S
C2350 H2341 0.930 1_565 S
C2350 C2348 1.378 . S
C2350 C2351 1.367 . S
C2351 C2350 1.367 . S
C2351 C2353 1.433 . S
C2352 C2348 1.350 . S
C2352 C2349 1.463 . S
C2352 N2356 1.427 . S
C2353 H2343 0.929 . S
C2353 C2351 1.433 . S
C2353 N2356 1.384 . S
C2354 H2345 0.929 . S
C2354 C2346 1.378 . S
C2354 C2349 1.350 . S
C2355 H2342 0.929 . S
C2355 C2347 1.433 . S
C2355 N2357 1.384 . S
N2356 C2352 1.427 . S
N2356 C2353 1.384 . S
N2357 C2349 1.427 . S
N2357 C2355 1.384 . S
H2358 C2364 0.930 . S
H2359 C2368 0.930 . S
H2360 C2373 0.929 . S
H2361 C2371 0.929 . S
H2362 C2366 0.929 . S
H2363 C2372 0.929 . S
C2364 H2358 0.930 . S
C2364 C2365 1.367 . S
C2364 C2372 1.378 . S
C2365 C2364 1.367 . S
C2365 C2373 1.433 . S
C2366 H2362 0.929 . S
C2366 C2368 1.378 . S
C2366 C2370 1.350 . S
C2367 C2370 1.463 . S
C2367 C2372 1.350 . S
C2367 N2375 1.427 . S
C2368 H2359 0.930 . S
C2368 C2366 1.378 . S
C2368 C2369 1.367 1_455 S
C2369 C2368 1.367 1_655 S
C2369 C2371 1.433 . S
C2370 C2366 1.350 . S
C2370 C2367 1.463 . S
C2370 N2374 1.427 1_455 S
C2371 H2361 0.929 . S
C2371 C2369 1.433 . S
C2371 N2374 1.384 . S
C2372 H2363 0.929 . S
C2372 C2364 1.378 . S
C2372 C2367 1.350 . S
C2373 H2360 0.929 . S
C2373 C2365 1.433 . S
C2373 N2375 1.384 . S
N2374 C2370 1.427 1_655 S
N2374 C2371 1.384 . S
N2375 C2367 1.427 . S
N2375 C2373 1.384 . S
H2376 C2382 0.930 . S
H2377 C2386 0.930 . S
H2378 C2391 0.929 . S
H2379 C2389 0.929 . S
H2380 C2384 0.929 . S
H2381 C2390 0.929 . S
C2382 H2376 0.930 . S
C2382 C2383 1.367 . S
C2382 C2390 1.378 . S
C2383 C2382 1.367 . S
C2383 C2391 1.433 . S
C2384 H2380 0.929 . S
C2384 C2386 1.378 . S
C2384 C2388 1.350 . S
C2385 C2388 1.463 . S
C2385 C2390 1.350 . S
C2385 N2393 1.427 . S
C2386 H2377 0.930 . S
C2386 C2384 1.378 . S
C2386 C2387 1.367 . S
C2387 C2386 1.367 . S
C2387 C2389 1.433 . S
C2388 C2384 1.350 . S
C2388 C2385 1.463 . S
C2388 N2392 1.427 . S
C2389 H2379 0.929 . S
C2389 C2387 1.433 . S
C2389 N2392 1.384 . S
C2390 H2381 0.929 . S
C2390 C2382 1.378 . S
C2390 C2385 1.350 . S
C2391 H2378 0.929 . S
C2391 C2383 1.433 . S
C2391 N2393 1.384 . S
N2392 C2388 1.427 . S
N2392 C2389 1.384 . S
N2393 C2385 1.427 . S
N2393 C2391 1.384 . S
H2394 C2400 0.930 . S
H2395 C2404 0.930 . S
H2396 C2409 0.929 . S
H2397 C2407 0.929 . S
H2398 C2402 0.929 . S
H2399 C2408 0.929 . S
C2400 H2394 0.930 . S
C2400 C2401 1.367 . S
C2400 C2408 1.378 . S
C2401 C2400 1.367 . S
C2401 C2409 1.433 . S
C2402 H2398 0.929 . S
C2402 C2404 1.378 1_565 S
C2402 C2406 1.350 . S
C2403 C2406 1.463 . S
C2403 C2408 1.350 . S
C2403 N2411 1.427 . S
C2404 H2395 0.930 . S
C2404 C2402 1.378 1_545 S
C2404 C2405 1.367 . S
C2405 C2404 1.367 . S
C2405 C2407 1.433 1_545 S
C2406 C2402 1.350 . S
C2406 C2403 1.463 . S
C2406 N2410 1.427 . S
C2407 H2397 0.929 . S
C2407 C2405 1.433 1_565 S
C2407 N2410 1.384 . S
C2408 H2399 0.929 . S
C2408 C2400 1.378 . S
C2408 C2403 1.350 . S
C2409 H2396 0.929 . S
C2409 C2401 1.433 . S
C2409 N2411 1.384 . S
N2410 C2406 1.427 . S
N2410 C2407 1.384 . S
N2411 C2403 1.427 . S
N2411 C2409 1.384 . S
H2412 C2418 0.930 . S
H2413 C2422 0.930 . S
H2414 C2427 0.929 . S
H2415 C2425 0.929 . S
H2416 C2420 0.929 . S
H2417 C2426 0.929 . S
C2418 H2412 0.930 . S
C2418 C2419 1.367 . S
C2418 C2426 1.378 . S
C2419 C2418 1.367 . S
C2419 C2427 1.433 . S
C2420 H2416 0.929 . S
C2420 C2422 1.378 . S
C2420 C2424 1.350 . S
C2421 C2424 1.463 . S
C2421 C2426 1.350 . S
C2421 N2429 1.427 . S
C2422 H2413 0.930 . S
C2422 C2420 1.378 . S
C2422 C2423 1.367 . S
C2423 C2422 1.367 . S
C2423 C2425 1.433 . S
C2424 C2420 1.350 . S
C2424 C2421 1.463 . S
C2424 N2428 1.427 . S
C2425 H2415 0.929 . S
C2425 C2423 1.433 . S
C2425 N2428 1.384 . S
C2426 H2417 0.929 . S
C2426 C2418 1.378 . S
C2426 C2421 1.350 . S
C2427 H2414 0.929 . S
C2427 C2419 1.433 . S
C2427 N2429 1.384 . S
N2428 C2424 1.427 . S
N2428 C2425 1.384 . S
N2429 C2421 1.427 . S
N2429 C2427 1.384 . S
H2430 C2436 0.930 . S
H2431 C2440 0.930 . S
H2432 C2445 0.929 . S
H2433 C2443 0.929 . S
H2434 C2438 0.929 . S
H2435 C2444 0.929 . S
C2436 H2430 0.930 . S
C2436 C2437 1.367 . S
C2436 C2444 1.378 . S
C2437 C2436 1.367 . S
C2437 C2445 1.433 . S
C2438 H2434 0.929 . S
C2438 C2440 1.378 . S
C2438 C2442 1.350 . S
C2439 C2442 1.463 . S
C2439 C2444 1.350 . S
C2439 N2447 1.427 . S
C2440 H2431 0.930 . S
C2440 C2438 1.378 . S
C2440 C2441 1.367 . S
C2441 C2440 1.367 . S
C2441 C2443 1.433 . S
C2442 C2438 1.350 . S
C2442 C2439 1.463 . S
C2442 N2446 1.427 . S
C2443 H2433 0.929 . S
C2443 C2441 1.433 . S
C2443 N2446 1.384 . S
C2444 H2435 0.929 . S
C2444 C2436 1.378 . S
C2444 C2439 1.350 . S
C2445 H2432 0.929 . S
C2445 C2437 1.433 . S
C2445 N2447 1.384 . S
N2446 C2442 1.427 . S
N2446 C2443 1.384 . S
N2447 C2439 1.427 . S
N2447 C2445 1.384 . S
H2448 C2454 0.930 . S
H2449 C2458 0.930 . S
H2450 C2463 0.929 . S
H2451 C2461 0.929 . S
H2452 C2456 0.929 . S
H2453 C2462 0.929 . S
C2454 H2448 0.930 . S
C2454 C2455 1.367 . S
C2454 C2462 1.378 . S
C2455 C2454 1.367 . S
C2455 C2463 1.433 . S
C2456 H2452 0.929 . S
C2456 C2458 1.378 . S
C2456 C2460 1.350 . S
C2457 C2460 1.463 . S
C2457 C2462 1.350 . S
C2457 N2465 1.427 . S
C2458 H2449 0.930 . S
C2458 C2456 1.378 . S
C2458 C2459 1.367 . S
C2459 C2458 1.367 . S
C2459 C2461 1.433 . S
C2460 C2456 1.350 . S
C2460 C2457 1.463 . S
C2460 N2464 1.427 . S
C2461 H2451 0.929 . S
C2461 C2459 1.433 . S
C2461 N2464 1.384 . S
C2462 H2453 0.929 . S
C2462 C2454 1.378 . S
C2462 C2457 1.350 . S
C2463 H2450 0.929 . S
C2463 C2455 1.433 . S
C2463 N2465 1.384 . S
N2464 C2460 1.427 . S
N2464 C2461 1.384 . S
N2465 C2457 1.427 . S
N2465 C2463 1.384 . S
H2466 C2472 0.930 . S
H2467 C2476 0.930 . S
H2468 C2481 0.929 . S
H2469 C2479 0.929 . S
H2470 C2474 0.929 . S
H2471 C2480 0.929 . S
C2472 H2466 0.930 . S
C2472 C2473 1.376 . S
C2472 C2480 1.378 . S
C2473 C2472 1.376 . S
C2473 C2481 1.423 1_554 S
C2474 H2470 0.929 . S
C2474 C2476 1.378 . S
C2474 C2478 1.350 . S
C2475 C2478 1.463 1_565 S
C2475 C2480 1.350 1_556 S
C2475 N2483 1.427 . S
C2476 H2467 0.930 . S
C2476 C2474 1.378 . S
C2476 C2477 1.367 . S
C2477 C2476 1.367 . S
C2477 C2479 1.433 1_556 S
C2478 C2474 1.350 . S
C2478 C2475 1.463 1_545 S
C2478 N2482 1.427 1_556 S
C2479 H2469 0.929 . S
C2479 C2477 1.433 1_554 S
C2479 N2482 1.384 . S
C2480 H2471 0.929 . S
C2480 C2472 1.378 . S
C2480 C2475 1.350 1_554 S
C2481 H2468 0.929 . S
C2481 C2473 1.423 1_556 S
C2481 N2483 1.384 . S
N2482 C2478 1.427 1_554 S
N2482 C2479 1.384 . S
N2483 C2475 1.427 . S
N2483 C2481 1.384 . S
H2484 C2490 0.930 . S
H2485 C2494 0.930 . S
H2486 C2499 0.939 . S
H2487 C2497 0.929 . S
H2488 C2492 0.937 . S
H2489 C2498 0.929 . S
C2490 H2484 0.930 . S
C2490 C2491 1.366 1_556 S
C2490 C2498 1.378 . S
C2491 C2490 1.366 1_554 S
C2491 C2499 1.432 . S
C2492 H2488 0.937 . S
C2492 C2494 1.378 . S
C2492 C2496 1.350 . S
C2493 C2496 1.463 1_455 S
C2493 C2498 1.350 . S
C2493 N2501 1.426 . S
C2494 H2485 0.930 . S
C2494 C2492 1.378 . S
C2494 C2495 1.367 . S
C2495 C2494 1.367 . S
C2495 C2497 1.433 . S
C2496 C2492 1.350 . S
C2496 C2493 1.463 1_655 S
C2496 N2500 1.427 . S
C2497 H2487 0.929 . S
C2497 C2495 1.433 . S
C2497 N2500 1.384 . S
C2498 H2489 0.929 . S
C2498 C2490 1.378 . S
C2498 C2493 1.350 . S
C2499 H2486 0.939 . S
C2499 C2491 1.432 . S
C2499 N2501 1.381 1_554 S
N2500 C2496 1.427 . S
N2500 C2497 1.384 . S
N2501 C2493 1.426 . S
N2501 C2499 1.381 1_556 S
H2502 C2508 0.930 . S
H2503 C2512 0.930 . S
H2504 C2517 0.929 . S
H2505 C2515 0.929 . S
H2506 C2510 0.929 . S
H2507 C2516 0.929 . S
C2508 H2502 0.930 . S
C2508 C2509 1.367 . S
C2508 C2516 1.378 . S
C2509 C2508 1.367 . S
C2509 C2517 1.433 1_556 S
C2510 H2506 0.929 . S
C2510 C2512 1.378 . S
C2510 C2514 1.275 1_554 S
C2511 C2514 1.475 . S
C2511 C2516 1.350 . S
C2511 N2519 1.427 1_556 S
C2512 H2503 0.930 . S
C2512 C2510 1.378 . S
C2512 C2513 1.396 . S
C2513 C2512 1.396 . S
C2513 C2515 1.402 1_554 S
C2514 C2510 1.275 1_556 S
C2514 C2511 1.475 . S
C2514 N2518 1.500 . S
C2515 H2505 0.929 . S
C2515 C2513 1.402 1_556 S
C2515 N2518 1.384 . S
C2516 H2507 0.929 . S
C2516 C2508 1.378 . S
C2516 C2511 1.350 . S
C2517 H2504 0.929 . S
C2517 C2509 1.433 1_554 S
C2517 N2519 1.384 . S
N2518 C2514 1.500 . S
N2518 C2515 1.384 . S
N2519 C2511 1.427 1_554 S
N2519 C2517 1.384 . S
H2520 C2526 0.930 . S
H2521 C2530 0.930 . S
H2522 C2535 0.929 . S
H2523 C2533 0.929 . S
H2524 C2528 0.929 . S
H2525 C2534 0.929 . S
C2526 H2520 0.930 . S
C2526 C2527 1.367 . S
C2526 C2534 1.378 . S
C2527 C2526 1.367 . S
C2527 C2535 1.433 . S
C2528 H2524 0.929 . S
C2528 C2530 1.378 . S
C2528 C2532 1.350 . S
C2529 C2532 1.463 . S
C2529 C2534 1.350 . S
C2529 N2537 1.427 . S
C2530 H2521 0.930 . S
C2530 C2528 1.378 . S
C2530 C2531 1.367 . S
C2531 C2530 1.367 . S
C2531 C2533 1.433 . S
C2532 C2528 1.350 . S
C2532 C2529 1.463 . S
C2532 N2536 1.427 . S
C2533 H2523 0.929 . S
C2533 C2531 1.433 . S
C2533 N2536 1.384 . S
C2534 H2525 0.929 . S
C2534 C2526 1.378 . S
C2534 C2529 1.350 . S
C2535 H2522 0.929 . S
C2535 C2527 1.433 . S
C2535 N2537 1.384 . S
N2536 C2532 1.427 . S
N2536 C2533 1.384 . S
N2537 C2529 1.427 . S
N2537 C2535 1.384 . S
H2538 C2544 0.930 . S
H2539 C2548 0.930 . S
H2540 C2553 0.929 . S
H2541 C2551 0.929 . S
H2542 C2546 0.929 . S
H2543 C2552 0.929 . S
C2544 H2538 0.930 . S
C2544 C2545 1.367 . S
C2544 C2552 1.378 . S
C2545 C2544 1.367 . S
C2545 C2553 1.433 . S
C2546 H2542 0.929 . S
C2546 C2548 1.378 . S
C2546 C2550 1.350 . S
C2547 C2550 1.463 . S
C2547 C2552 1.350 . S
C2547 N2555 1.427 . S
C2548 H2539 0.930 . S
C2548 C2546 1.378 . S
C2548 C2549 1.367 . S
C2549 C2548 1.367 . S
C2549 C2551 1.433 . S
C2550 C2546 1.350 . S
C2550 C2547 1.463 . S
C2550 N2554 1.427 . S
C2551 H2541 0.929 . S
C2551 C2549 1.433 . S
C2551 N2554 1.384 . S
C2552 H2543 0.929 . S
C2552 C2544 1.378 . S
C2552 C2547 1.350 . S
C2553 H2540 0.929 . S
C2553 C2545 1.433 . S
C2553 N2555 1.384 . S
N2554 C2550 1.427 . S
N2554 C2551 1.384 . S
N2555 C2547 1.427 . S
N2555 C2553 1.384 . S
H2556 C2562 0.930 . S
H2557 C2566 0.930 . S
H2558 C2571 0.929 . S
H2559 C2569 0.929 . S
H2560 C2564 0.929 . S
H2561 C2570 0.929 . S
C2562 H2556 0.930 . S
C2562 C2563 1.367 . S
C2562 C2570 1.378 . S
C2563 C2562 1.367 . S
C2563 C2571 1.433 . S
C2564 H2560 0.929 . S
C2564 C2566 1.378 . S
C2564 C2568 1.350 . S
C2565 C2568 1.463 . S
C2565 C2570 1.350 . S
C2565 N2573 1.427 . S
C2566 H2557 0.930 . S
C2566 C2564 1.378 . S
C2566 C2567 1.367 . S
C2567 C2566 1.367 . S
C2567 C2569 1.433 . S
C2568 C2564 1.350 . S
C2568 C2565 1.463 . S
C2568 N2572 1.427 . S
C2569 H2559 0.929 . S
C2569 C2567 1.433 . S
C2569 N2572 1.384 . S
C2570 H2561 0.929 . S
C2570 C2562 1.378 . S
C2570 C2565 1.350 . S
C2571 H2558 0.929 . S
C2571 C2563 1.433 . S
C2571 N2573 1.384 . S
N2572 C2568 1.427 . S
N2572 C2569 1.384 . S
N2573 C2565 1.427 . S
N2573 C2571 1.384 . S
H2574 C2580 0.930 . S
H2575 C2584 0.930 . S
H2576 C2589 0.929 . S
H2577 C2587 0.929 . S
H2578 C2582 0.929 . S
H2579 C2588 0.929 . S
C2580 H2574 0.930 . S
C2580 C2581 1.367 . S
C2580 C2588 1.378 . S
C2581 C2580 1.367 . S
C2581 C2589 1.433 1_554 S
C2582 H2578 0.929 . S
C2582 C2584 1.378 . S
C2582 C2586 1.281 1_556 S
C2583 C2586 1.475 1_565 S
C2583 C2588 1.350 . S
C2583 N2591 1.427 1_554 S
C2584 H2575 0.930 . S
C2584 C2582 1.378 . S
C2584 C2585 1.390 . S
C2585 C2584 1.390 . S
C2585 C2587 1.408 1_556 S
C2586 C2582 1.281 1_554 S
C2586 C2583 1.475 1_545 S
C2586 N2590 1.495 . S
C2587 H2577 0.929 . S
C2587 C2585 1.408 1_554 S
C2587 N2590 1.384 . S
C2588 H2579 0.929 . S
C2588 C2580 1.378 . S
C2588 C2583 1.350 . S
C2589 H2576 0.929 . S
C2589 C2581 1.433 1_556 S
C2589 N2591 1.384 . S
N2590 C2586 1.495 . S
N2590 C2587 1.384 . S
N2591 C2583 1.427 1_556 S
N2591 C2589 1.384 . S
H2592 C2598 0.947 . S
H2593 C2602 0.930 . S
H2594 C2607 0.929 . S
H2595 C2605 0.929 . S
H2596 C2600 0.929 . S
H2597 C2606 0.927 . S
C2598 H2592 0.947 . S
C2598 C2599 1.364 . S
C2598 C2606 1.375 . S
C2599 C2598 1.364 . S
C2599 C2607 1.432 1_556 S
C2600 H2596 0.929 . S
C2600 C2602 1.378 . S
C2600 C2604 1.350 . S
C2601 C2604 1.463 1_655 S
C2601 C2606 1.348 1_554 S
C2601 N2609 1.427 . S
C2602 H2593 0.930 . S
C2602 C2600 1.378 . S
C2602 C2603 1.367 . S
C2603 C2602 1.367 . S
C2603 C2605 1.433 . S
C2604 C2600 1.350 . S
C2604 C2601 1.463 1_455 S
C2604 N2608 1.427 . S
C2605 H2595 0.929 . S
C2605 C2603 1.433 . S
C2605 N2608 1.384 . S
C2606 H2597 0.927 . S
C2606 C2598 1.375 . S
C2606 C2601 1.348 1_556 S
C2607 H2594 0.929 . S
C2607 C2599 1.432 1_554 S
C2607 N2609 1.384 . S
N2608 C2604 1.427 . S
N2608 C2605 1.384 . S
N2609 C2601 1.427 . S
N2609 C2607 1.384 . S
H2610 C2616 0.930 . S
H2611 C2620 0.930 . S
H2612 C2625 0.929 . S
H2613 C2623 0.929 . S
H2614 C2618 0.929 . S
H2615 C2624 0.929 . S
C2616 H2610 0.930 . S
C2616 C2617 1.367 . S
C2616 C2624 1.378 . S
C2617 C2616 1.367 . S
C2617 C2625 1.433 1_554 S
C2618 H2614 0.929 . S
C2618 C2620 1.378 . S
C2618 C2622 1.283 1_556 S
C2619 C2622 1.475 . S
C2619 C2624 1.350 . S
C2619 N2627 1.427 1_554 S
C2620 H2611 0.930 . S
C2620 C2618 1.378 . S
C2620 C2621 1.388 . S
C2621 C2620 1.388 . S
C2621 C2623 1.410 1_556 S
C2622 C2618 1.283 1_554 S
C2622 C2619 1.475 . S
C2622 N2626 1.493 . S
C2623 H2613 0.929 . S
C2623 C2621 1.410 1_554 S
C2623 N2626 1.384 . S
C2624 H2615 0.929 . S
C2624 C2616 1.378 . S
C2624 C2619 1.350 . S
C2625 H2612 0.929 . S
C2625 C2617 1.433 1_556 S
C2625 N2627 1.384 . S
N2626 C2622 1.493 . S
N2626 C2623 1.384 . S
N2627 C2619 1.427 1_556 S
N2627 C2625 1.384 . S
H2628 C2634 0.930 . S
H2629 C2638 0.930 . S
H2630 C2643 0.929 1_455 S
H2631 C2641 0.929 . S
H2632 C2636 0.929 . S
H2633 C2642 0.929 . S
C2634 H2628 0.930 . S
C2634 C2635 1.367 . S
C2634 C2642 1.378 . S
C2635 C2634 1.367 . S
C2635 C2643 1.433 . S
C2636 H2632 0.929 . S
C2636 C2638 1.378 . S
C2636 C2640 1.350 . S
C2637 C2640 1.463 . S
C2637 C2642 1.350 . S
C2637 N2645 1.427 . S
C2638 H2629 0.930 . S
C2638 C2636 1.378 . S
C2638 C2639 1.367 . S
C2639 C2638 1.367 . S
C2639 C2641 1.433 . S
C2640 C2636 1.350 . S
C2640 C2637 1.463 . S
C2640 N2644 1.427 . S
C2641 H2631 0.929 . S
C2641 C2639 1.433 . S
C2641 N2644 1.384 . S
C2642 H2633 0.929 . S
C2642 C2634 1.378 . S
C2642 C2637 1.350 . S
C2643 H2630 0.929 1_655 S
C2643 C2635 1.433 . S
C2643 N2645 1.384 . S
N2644 C2640 1.427 . S
N2644 C2641 1.384 . S
N2645 C2637 1.427 . S
N2645 C2643 1.384 . S
H2646 C2652 0.930 . S
H2647 C2656 0.930 . S
H2648 C2661 0.929 . S
H2649 C2659 0.929 . S
H2650 C2654 0.929 . S
H2651 C2660 0.929 . S
C2652 H2646 0.930 . S
C2652 C2653 1.367 . S
C2652 C2660 1.378 . S
C2653 C2652 1.367 . S
C2653 C2661 1.433 . S
C2654 H2650 0.929 . S
C2654 C2656 1.378 . S
C2654 C2658 1.350 . S
C2655 C2658 1.463 . S
C2655 C2660 1.350 . S
C2655 N2663 1.427 . S
C2656 H2647 0.930 . S
C2656 C2654 1.378 . S
C2656 C2657 1.367 . S
C2657 C2656 1.367 . S
C2657 C2659 1.433 . S
C2658 C2654 1.350 . S
C2658 C2655 1.463 . S
C2658 N2662 1.427 . S
C2659 H2649 0.929 . S
C2659 C2657 1.433 . S
C2659 N2662 1.384 . S
C2660 H2651 0.929 . S
C2660 C2652 1.378 . S
C2660 C2655 1.350 . S
C2661 H2648 0.929 . S
C2661 C2653 1.433 . S
C2661 N2663 1.384 . S
N2662 C2658 1.427 . S
N2662 C2659 1.384 . S
N2663 C2655 1.427 . S
N2663 C2661 1.384 . S
H2664 C2670 0.930 . S
H2665 C2674 0.930 . S
H2666 C2679 0.900 1_565 S
H2667 C2677 0.929 . S
H2668 C2672 0.929 . S
H2669 C2678 0.929 . S
C2670 H2664 0.930 . S
C2670 C2671 1.367 . S
C2670 C2678 1.378 . S
C2671 C2670 1.367 . S
C2671 C2679 1.444 . S
C2672 H2668 0.929 . S
C2672 C2674 1.378 . S
C2672 C2676 1.350 . S
C2673 C2676 1.463 . S
C2673 C2678 1.350 . S
C2673 N2681 1.427 . S
C2674 H2665 0.930 . S
C2674 C2672 1.378 . S
C2674 C2675 1.367 . S
C2675 C2674 1.367 . S
C2675 C2677 1.433 . S
C2676 C2672 1.350 . S
C2676 C2673 1.463 . S
C2676 N2680 1.427 . S
C2677 H2667 0.929 . S
C2677 C2675 1.433 . S
C2677 N2680 1.384 . S
C2678 H2669 0.929 . S
C2678 C2670 1.378 . S
C2678 C2673 1.350 . S
C2679 H2666 0.900 1_545 S
C2679 C2671 1.444 . S
C2679 N2681 1.403 . S
N2680 C2676 1.427 . S
N2680 C2677 1.384 . S
N2681 C2673 1.427 . S
N2681 C2679 1.403 . S
H2682 C2688 0.930 . S
H2683 C2692 0.930 . S
H2684 C2697 0.929 . S
H2685 C2695 0.929 . S
H2686 C2690 0.929 . S
H2687 C2696 0.929 . S
C2688 H2682 0.930 . S
C2688 C2689 1.367 . S
C2688 C2696 1.378 1_455 S
C2689 C2688 1.367 . S
C2689 C2697 1.433 1_455 S
C2690 H2686 0.929 . S
C2690 C2692 1.378 . S
C2690 C2694 1.350 . S
C2691 C2694 1.463 . S
C2691 C2696 1.350 . S
C2691 N2699 1.427 . S
C2692 H2683 0.930 . S
C2692 C2690 1.378 . S
C2692 C2693 1.367 . S
C2693 C2692 1.367 . S
C2693 C2695 1.433 . S
C2694 C2690 1.350 . S
C2694 C2691 1.463 . S
C2694 N2698 1.427 . S
C2695 H2685 0.929 . S
C2695 C2693 1.433 . S
C2695 N2698 1.384 . S
C2696 H2687 0.929 . S
C2696 C2688 1.378 1_655 S
C2696 C2691 1.350 . S
C2697 H2684 0.929 . S
C2697 C2689 1.433 1_655 S
C2697 N2699 1.384 . S
N2698 C2694 1.427 . S
N2698 C2695 1.384 . S
N2699 C2691 1.427 . S
N2699 C2697 1.384 . S
H2700 C2706 0.930 . S
H2701 C2710 0.930 . S
H2702 C2715 0.929 . S
H2703 C2713 0.929 . S
H2704 C2708 0.929 . S
H2705 C2714 0.929 . S
C2706 H2700 0.930 . S
C2706 C2707 1.367 . S
C2706 C2714 1.378 . S
C2707 C2706 1.367 . S
C2707 C2715 1.433 . S
C2708 H2704 0.929 . S
C2708 C2710 1.378 . S
C2708 C2712 1.350 . S
C2709 C2712 1.463 . S
C2709 C2714 1.350 . S
C2709 N2717 1.427 . S
C2710 H2701 0.930 . S
C2710 C2708 1.378 . S
C2710 C2711 1.367 . S
C2711 C2710 1.367 . S
C2711 C2713 1.433 . S
C2712 C2708 1.350 . S
C2712 C2709 1.463 . S
C2712 N2716 1.427 . S
C2713 H2703 0.929 . S
C2713 C2711 1.433 . S
C2713 N2716 1.384 . S
C2714 H2705 0.929 . S
C2714 C2706 1.378 . S
C2714 C2709 1.350 . S
C2715 H2702 0.929 . S
C2715 C2707 1.433 . S
C2715 N2717 1.384 . S
N2716 C2712 1.427 . S
N2716 C2713 1.384 . S
N2717 C2709 1.427 . S
N2717 C2715 1.384 . S
H2718 C2724 0.930 . S
H2719 C2728 0.930 . S
H2720 C2733 0.929 . S
H2721 C2731 0.929 . S
H2722 C2726 0.929 . S
H2723 C2732 0.929 . S
C2724 H2718 0.930 . S
C2724 C2725 1.367 . S
C2724 C2732 1.378 . S
C2725 C2724 1.367 . S
C2725 C2733 1.433 . S
C2726 H2722 0.929 . S
C2726 C2728 1.378 . S
C2726 C2730 1.350 . S
C2727 C2730 1.463 . S
C2727 C2732 1.350 . S
C2727 N2735 1.427 . S
C2728 H2719 0.930 . S
C2728 C2726 1.378 . S
C2728 C2729 1.367 1_545 S
C2729 C2728 1.367 1_565 S
C2729 C2731 1.433 . S
C2730 C2726 1.350 . S
C2730 C2727 1.463 . S
C2730 N2734 1.427 1_545 S
C2731 H2721 0.929 . S
C2731 C2729 1.433 . S
C2731 N2734 1.384 . S
C2732 H2723 0.929 . S
C2732 C2724 1.378 . S
C2732 C2727 1.350 . S
C2733 H2720 0.929 . S
C2733 C2725 1.433 . S
C2733 N2735 1.384 . S
N2734 C2730 1.427 1_565 S
N2734 C2731 1.384 . S
N2735 C2727 1.427 . S
N2735 C2733 1.384 . S
H2736 C2742 0.930 . S
H2737 C2746 0.930 . S
H2738 C2751 0.929 . S
H2739 C2749 0.929 . S
H2740 C2744 0.929 . S
H2741 C2750 0.929 . S
C2742 H2736 0.930 . S
C2742 C2743 1.367 . S
C2742 C2750 1.378 . S
C2743 C2742 1.367 . S
C2743 C2751 1.433 . S
C2744 H2740 0.929 . S
C2744 C2746 1.378 . S
C2744 C2748 1.350 . S
C2745 C2748 1.463 . S
C2745 C2750 1.350 . S
C2745 N2753 1.427 . S
C2746 H2737 0.930 . S
C2746 C2744 1.378 . S
C2746 C2747 1.367 . S
C2747 C2746 1.367 . S
C2747 C2749 1.433 . S
C2748 C2744 1.350 . S
C2748 C2745 1.463 . S
C2748 N2752 1.427 . S
C2749 H2739 0.929 . S
C2749 C2747 1.433 . S
C2749 N2752 1.384 . S
C2750 H2741 0.929 . S
C2750 C2742 1.378 . S
C2750 C2745 1.350 . S
C2751 H2738 0.929 . S
C2751 C2743 1.433 . S
C2751 N2753 1.384 . S
N2752 C2748 1.427 . S
N2752 C2749 1.384 . S
N2753 C2745 1.427 . S
N2753 C2751 1.384 . S
H2754 C2760 0.930 . S
H2755 C2764 0.930 . S
H2756 C2769 0.929 . S
H2757 C2767 0.929 . S
H2758 C2762 0.929 . S
H2759 C2768 0.929 . S
C2760 H2754 0.930 . S
C2760 C2761 1.367 . S
C2760 C2768 1.378 . S
C2761 C2760 1.367 . S
C2761 C2769 1.433 . S
C2762 H2758 0.929 . S
C2762 C2764 1.378 . S
C2762 C2766 1.350 . S
C2763 C2766 1.463 . S
C2763 C2768 1.350 . S
C2763 N2771 1.427 . S
C2764 H2755 0.930 . S
C2764 C2762 1.378 . S
C2764 C2765 1.367 . S
C2765 C2764 1.367 . S
C2765 C2767 1.433 . S
C2766 C2762 1.350 . S
C2766 C2763 1.463 . S
C2766 N2770 1.427 . S
C2767 H2757 0.929 . S
C2767 C2765 1.433 . S
C2767 N2770 1.384 . S
C2768 H2759 0.929 . S
C2768 C2760 1.378 . S
C2768 C2763 1.350 . S
C2769 H2756 0.929 . S
C2769 C2761 1.433 . S
C2769 N2771 1.384 . S
N2770 C2766 1.427 . S
N2770 C2767 1.384 . S
N2771 C2763 1.427 . S
N2771 C2769 1.384 . S
H2772 C2778 0.930 . S
H2773 C2782 0.930 . S
H2774 C2787 0.929 . S
H2775 C2785 0.929 . S
H2776 C2780 0.929 . S
H2777 C2786 0.929 . S
C2778 H2772 0.930 . S
C2778 C2779 1.367 . S
C2778 C2786 1.378 . S
C2779 C2778 1.367 . S
C2779 C2787 1.433 . S
C2780 H2776 0.929 . S
C2780 C2782 1.378 . S
C2780 C2784 1.350 . S
C2781 C2784 1.463 . S
C2781 C2786 1.350 . S
C2781 N2789 1.427 . S
C2782 H2773 0.930 . S
C2782 C2780 1.378 . S
C2782 C2783 1.367 . S
C2783 C2782 1.367 . S
C2783 C2785 1.433 . S
C2784 C2780 1.350 . S
C2784 C2781 1.463 . S
C2784 N2788 1.427 . S
C2785 H2775 0.929 . S
C2785 C2783 1.433 . S
C2785 N2788 1.384 . S
C2786 H2777 0.929 . S
C2786 C2778 1.378 . S
C2786 C2781 1.350 . S
C2787 H2774 0.929 . S
C2787 C2779 1.433 . S
C2787 N2789 1.384 . S
N2788 C2784 1.427 . S
N2788 C2785 1.384 . S
N2789 C2781 1.427 . S
N2789 C2787 1.384 . S
H2790 C2796 0.930 . S
H2791 C2800 0.930 . S
H2792 C2805 0.929 . S
H2793 C2803 0.929 . S
H2794 C2798 0.929 . S
H2795 C2804 0.929 . S
C2796 H2790 0.930 . S
C2796 C2797 1.367 . S
C2796 C2804 1.378 . S
C2797 C2796 1.367 . S
C2797 C2805 1.433 . S
C2798 H2794 0.929 . S
C2798 C2800 1.378 . S
C2798 C2802 1.350 . S
C2799 C2802 1.463 . S
C2799 C2804 1.350 . S
C2799 N2807 1.427 . S
C2800 H2791 0.930 . S
C2800 C2798 1.378 . S
C2800 C2801 1.367 . S
C2801 C2800 1.367 . S
C2801 C2803 1.433 . S
C2802 C2798 1.350 . S
C2802 C2799 1.463 . S
C2802 N2806 1.427 . S
C2803 H2793 0.929 . S
C2803 C2801 1.433 . S
C2803 N2806 1.384 . S
C2804 H2795 0.929 . S
C2804 C2796 1.378 . S
C2804 C2799 1.350 . S
C2805 H2792 0.929 . S
C2805 C2797 1.433 . S
C2805 N2807 1.384 . S
N2806 C2802 1.427 . S
N2806 C2803 1.384 . S
N2807 C2799 1.427 . S
N2807 C2805 1.384 . S
H2808 C2814 0.930 . S
H2809 C2818 0.930 . S
H2810 C2823 0.929 . S
H2811 C2821 0.929 . S
H2812 C2816 0.929 . S
H2813 C2822 0.929 . S
C2814 H2808 0.930 . S
C2814 C2815 1.367 . S
C2814 C2822 1.378 . S
C2815 C2814 1.367 . S
C2815 C2823 1.433 . S
C2816 H2812 0.929 . S
C2816 C2818 1.378 . S
C2816 C2820 1.350 . S
C2817 C2820 1.463 . S
C2817 C2822 1.350 . S
C2817 N2825 1.427 . S
C2818 H2809 0.930 . S
C2818 C2816 1.378 . S
C2818 C2819 1.367 . S
C2819 C2818 1.367 . S
C2819 C2821 1.433 . S
C2820 C2816 1.350 . S
C2820 C2817 1.463 . S
C2820 N2824 1.427 . S
C2821 H2811 0.929 . S
C2821 C2819 1.433 . S
C2821 N2824 1.384 . S
C2822 H2813 0.929 . S
C2822 C2814 1.378 . S
C2822 C2817 1.350 . S
C2823 H2810 0.929 . S
C2823 C2815 1.433 . S
C2823 N2825 1.384 . S
N2824 C2820 1.427 . S
N2824 C2821 1.384 . S
N2825 C2817 1.427 . S
N2825 C2823 1.384 . S
H2826 C2832 0.930 . S
H2827 C2836 0.930 . S
H2828 C2841 0.929 . S
H2829 C2839 0.929 . S
H2830 C2834 0.929 . S
H2831 C2840 0.929 . S
C2832 H2826 0.930 . S
C2832 C2833 1.367 . S
C2832 C2840 1.378 . S
C2833 C2832 1.367 . S
C2833 C2841 1.433 . S
C2834 H2830 0.929 . S
C2834 C2836 1.378 . S
C2834 C2838 1.350 . S
C2835 C2838 1.463 . S
C2835 C2840 1.350 . S
C2835 N2843 1.427 . S
C2836 H2827 0.930 . S
C2836 C2834 1.378 . S
C2836 C2837 1.367 . S
C2837 C2836 1.367 . S
C2837 C2839 1.433 . S
C2838 C2834 1.350 . S
C2838 C2835 1.463 . S
C2838 N2842 1.427 . S
C2839 H2829 0.929 . S
C2839 C2837 1.433 . S
C2839 N2842 1.384 . S
C2840 H2831 0.929 . S
C2840 C2832 1.378 . S
C2840 C2835 1.350 . S
C2841 H2828 0.929 . S
C2841 C2833 1.433 . S
C2841 N2843 1.384 . S
N2842 C2838 1.427 . S
N2842 C2839 1.384 . S
N2843 C2835 1.427 . S
N2843 C2841 1.384 . S
H2844 C2850 0.930 . S
H2845 C2854 0.930 . S
H2846 C2859 0.929 . S
H2847 C2857 0.929 . S
H2848 C2852 0.929 . S
H2849 C2858 0.929 . S
C2850 H2844 0.930 . S
C2850 C2851 1.367 . S
C2850 C2858 1.378 . S
C2851 C2850 1.367 . S
C2851 C2859 1.433 . S
C2852 H2848 0.929 . S
C2852 C2854 1.378 . S
C2852 C2856 1.350 . S
C2853 C2856 1.463 . S
C2853 C2858 1.350 . S
C2853 N2861 1.427 . S
C2854 H2845 0.930 . S
C2854 C2852 1.378 . S
C2854 C2855 1.367 . S
C2855 C2854 1.367 . S
C2855 C2857 1.433 . S
C2856 C2852 1.350 . S
C2856 C2853 1.463 . S
C2856 N2860 1.427 . S
C2857 H2847 0.929 . S
C2857 C2855 1.433 . S
C2857 N2860 1.384 . S
C2858 H2849 0.929 . S
C2858 C2850 1.378 . S
C2858 C2853 1.350 . S
C2859 H2846 0.929 . S
C2859 C2851 1.433 . S
C2859 N2861 1.384 . S
N2860 C2856 1.427 . S
N2860 C2857 1.384 . S
N2861 C2853 1.427 . S
N2861 C2859 1.384 . S
H2862 C2868 0.930 . S
H2863 C2872 0.930 . S
H2864 C2877 0.929 . S
H2865 C2875 0.929 . S
H2866 C2870 0.929 . S
H2867 C2876 0.929 . S
C2868 H2862 0.930 . S
C2868 C2869 1.367 . S
C2868 C2876 1.378 . S
C2869 C2868 1.367 . S
C2869 C2877 1.433 . S
C2870 H2866 0.929 . S
C2870 C2872 1.378 . S
C2870 C2874 1.350 . S
C2871 C2874 1.463 . S
C2871 C2876 1.350 . S
C2871 N2879 1.427 . S
C2872 H2863 0.930 . S
C2872 C2870 1.378 . S
C2872 C2873 1.367 . S
C2873 C2872 1.367 . S
C2873 C2875 1.433 . S
C2874 C2870 1.350 . S
C2874 C2871 1.463 . S
C2874 N2878 1.427 . S
C2875 H2865 0.929 . S
C2875 C2873 1.433 . S
C2875 N2878 1.384 . S
C2876 H2867 0.929 . S
C2876 C2868 1.378 . S
C2876 C2871 1.350 . S
C2877 H2864 0.929 . S
C2877 C2869 1.433 . S
C2877 N2879 1.384 . S
N2878 C2874 1.427 . S
N2878 C2875 1.384 . S
N2879 C2871 1.427 . S
N2879 C2877 1.384 . S
H2880 C2886 0.930 . S
H2881 C2890 0.930 . S
H2882 C2895 0.929 . S
H2883 C2893 0.929 . S
H2884 C2888 0.929 . S
H2885 C2894 0.929 . S
C2886 H2880 0.930 . S
C2886 C2887 1.367 . S
C2886 C2894 1.378 . S
C2887 C2886 1.367 . S
C2887 C2895 1.433 . S
C2888 H2884 0.929 . S
C2888 C2890 1.378 . S
C2888 C2892 1.350 . S
C2889 C2892 1.463 . S
C2889 C2894 1.350 . S
C2889 N2897 1.427 . S
C2890 H2881 0.930 . S
C2890 C2888 1.378 . S
C2890 C2891 1.367 . S
C2891 C2890 1.367 . S
C2891 C2893 1.433 . S
C2892 C2888 1.350 . S
C2892 C2889 1.463 . S
C2892 N2896 1.427 . S
C2893 H2883 0.929 . S
C2893 C2891 1.433 . S
C2893 N2896 1.384 . S
C2894 H2885 0.929 . S
C2894 C2886 1.378 . S
C2894 C2889 1.350 . S
C2895 H2882 0.929 . S
C2895 C2887 1.433 . S
C2895 N2897 1.384 . S
N2896 C2892 1.427 . S
N2896 C2893 1.384 . S
N2897 C2889 1.427 . S
N2897 C2895 1.384 . S
H2898 C2904 0.930 . S
H2899 C2908 0.930 . S
H2900 C2913 0.929 . S
H2901 C2911 0.929 . S
H2902 C2906 0.929 . S
H2903 C2912 0.929 . S
C2904 H2898 0.930 . S
C2904 C2905 1.367 . S
C2904 C2912 1.378 . S
C2905 C2904 1.367 . S
C2905 C2913 1.433 . S
C2906 H2902 0.929 . S
C2906 C2908 1.378 . S
C2906 C2910 1.350 . S
C2907 C2910 1.463 . S
C2907 C2912 1.350 . S
C2907 N2915 1.427 . S
C2908 H2899 0.930 . S
C2908 C2906 1.378 . S
C2908 C2909 1.367 . S
C2909 C2908 1.367 . S
C2909 C2911 1.433 . S
C2910 C2906 1.350 . S
C2910 C2907 1.463 . S
C2910 N2914 1.427 . S
C2911 H2901 0.929 . S
C2911 C2909 1.433 . S
C2911 N2914 1.384 . S
C2912 H2903 0.929 . S
C2912 C2904 1.378 . S
C2912 C2907 1.350 . S
C2913 H2900 0.929 . S
C2913 C2905 1.433 . S
C2913 N2915 1.384 . S
N2914 C2910 1.427 . S
N2914 C2911 1.384 . S
N2915 C2907 1.427 . S
N2915 C2913 1.384 . S
H2916 C2922 0.930 . S
H2917 C2926 0.930 . S
H2918 C2931 0.929 . S
H2919 C2929 0.929 . S
H2920 C2924 0.929 . S
H2921 C2930 0.929 . S
C2922 H2916 0.930 . S
C2922 C2923 1.367 . S
C2922 C2930 1.378 . S
C2923 C2922 1.367 . S
C2923 C2931 1.433 . S
C2924 H2920 0.929 . S
C2924 C2926 1.378 . S
C2924 C2928 1.350 . S
C2925 C2928 1.463 . S
C2925 C2930 1.350 . S
C2925 N2933 1.427 . S
C2926 H2917 0.930 . S
C2926 C2924 1.378 . S
C2926 C2927 1.367 . S
C2927 C2926 1.367 . S
C2927 C2929 1.433 . S
C2928 C2924 1.350 . S
C2928 C2925 1.463 . S
C2928 N2932 1.427 . S
C2929 H2919 0.929 . S
C2929 C2927 1.433 . S
C2929 N2932 1.384 . S
C2930 H2921 0.929 . S
C2930 C2922 1.378 . S
C2930 C2925 1.350 . S
C2931 H2918 0.929 . S
C2931 C2923 1.433 . S
C2931 N2933 1.384 . S
N2932 C2928 1.427 . S
N2932 C2929 1.384 . S
N2933 C2925 1.427 . S
N2933 C2931 1.384 . S
H2934 C2940 0.930 . S
H2935 C2944 0.930 . S
H2936 C2949 0.929 . S
H2937 C2947 0.929 . S
H2938 C2942 0.929 . S
H2939 C2948 0.929 . S
C2940 H2934 0.930 . S
C2940 C2941 1.367 . S
C2940 C2948 1.378 . S
C2941 C2940 1.367 . S
C2941 C2949 1.433 . S
C2942 H2938 0.929 . S
C2942 C2944 1.378 . S
C2942 C2946 1.350 . S
C2943 C2946 1.463 . S
C2943 C2948 1.350 . S
C2943 N2951 1.427 . S
C2944 H2935 0.930 . S
C2944 C2942 1.378 . S
C2944 C2945 1.367 . S
C2945 C2944 1.367 . S
C2945 C2947 1.433 . S
C2946 C2942 1.350 . S
C2946 C2943 1.463 . S
C2946 N2950 1.427 . S
C2947 H2937 0.929 . S
C2947 C2945 1.433 . S
C2947 N2950 1.384 . S
C2948 H2939 0.929 . S
C2948 C2940 1.378 . S
C2948 C2943 1.350 . S
C2949 H2936 0.929 . S
C2949 C2941 1.433 . S
C2949 N2951 1.384 . S
N2950 C2946 1.427 . S
N2950 C2947 1.384 . S
N2951 C2943 1.427 . S
N2951 C2949 1.384 . S
H2952 C2958 0.930 . S
H2953 C2962 0.930 . S
H2954 C2967 0.929 . S
H2955 C2965 0.929 . S
H2956 C2960 0.929 . S
H2957 C2966 0.914 . S
C2958 H2952 0.930 . S
C2958 C2959 1.367 . S
C2958 C2966 1.390 . S
C2959 C2958 1.367 . S
C2959 C2967 1.433 1_655 S
C2960 H2956 0.929 . S
C2960 C2962 1.378 . S
C2960 C2964 1.350 . S
C2961 C2964 1.463 . S
C2961 C2966 1.355 1_455 S
C2961 N2969 1.427 . S
C2962 H2953 0.930 . S
C2962 C2960 1.378 . S
C2962 C2963 1.367 . S
C2963 C2962 1.367 . S
C2963 C2965 1.433 . S
C2964 C2960 1.350 . S
C2964 C2961 1.463 . S
C2964 N2968 1.427 . S
C2965 H2955 0.929 . S
C2965 C2963 1.433 . S
C2965 N2968 1.384 . S
C2966 H2957 0.914 . S
C2966 C2958 1.390 . S
C2966 C2961 1.355 1_655 S
C2967 H2954 0.929 . S
C2967 C2959 1.433 1_455 S
C2967 N2969 1.384 . S
N2968 C2964 1.427 . S
N2968 C2965 1.384 . S
N2969 C2961 1.427 . S
N2969 C2967 1.384 . S
H2970 C2976 0.930 . S
H2971 C2980 0.930 . S
H2972 C2985 0.929 . S
H2973 C2983 0.929 . S
H2974 C2978 0.929 . S
H2975 C2984 0.929 . S
C2976 H2970 0.930 . S
C2976 C2977 1.367 . S
C2976 C2984 1.378 . S
C2977 C2976 1.367 . S
C2977 C2985 1.433 . S
C2978 H2974 0.929 . S
C2978 C2980 1.378 . S
C2978 C2982 1.350 . S
C2979 C2982 1.463 . S
C2979 C2984 1.350 . S
C2979 N2987 1.427 . S
C2980 H2971 0.930 . S
C2980 C2978 1.378 . S
C2980 C2981 1.367 . S
C2981 C2980 1.367 . S
C2981 C2983 1.433 . S
C2982 C2978 1.350 . S
C2982 C2979 1.463 . S
C2982 N2986 1.427 . S
C2983 H2973 0.929 . S
C2983 C2981 1.433 . S
C2983 N2986 1.384 . S
C2984 H2975 0.929 . S
C2984 C2976 1.378 . S
C2984 C2979 1.350 . S
C2985 H2972 0.929 . S
C2985 C2977 1.433 . S
C2985 N2987 1.384 . S
N2986 C2982 1.427 . S
N2986 C2983 1.384 . S
N2987 C2979 1.427 . S
N2987 C2985 1.384 . S
H2988 C2994 0.930 . S
H2989 C2998 0.930 . S
H2990 C3003 0.929 . S
H2991 C3001 0.929 . S
H2992 C2996 0.929 . S
H2993 C3002 0.929 . S
C2994 H2988 0.930 . S
C2994 C2995 1.367 . S
C2994 C3002 1.378 . S
C2995 C2994 1.367 . S
C2995 C3003 1.433 1_545 S
C2996 H2992 0.929 . S
C2996 C2998 1.378 . S
C2996 C3000 1.350 . S
C2997 C3000 1.463 . S
C2997 C3002 1.350 1_565 S
C2997 N3005 1.427 . S
C2998 H2989 0.930 . S
C2998 C2996 1.378 . S
C2998 C2999 1.367 . S
C2999 C2998 1.367 . S
C2999 C3001 1.433 . S
C3000 C2996 1.350 . S
C3000 C2997 1.463 . S
C3000 N3004 1.427 . S
C3001 H2991 0.929 . S
C3001 C2999 1.433 . S
C3001 N3004 1.384 . S
C3002 H2993 0.929 . S
C3002 C2994 1.378 . S
C3002 C2997 1.350 1_545 S
C3003 H2990 0.929 . S
C3003 C2995 1.433 1_565 S
C3003 N3005 1.384 . S
N3004 C3000 1.427 . S
N3004 C3001 1.384 . S
N3005 C2997 1.427 . S
N3005 C3003 1.384 . S
H3006 C3012 0.930 . S
H3007 C3016 0.930 . S
H3008 C3021 0.929 1_565 S
H3009 C3019 0.929 . S
H3010 C3014 0.929 . S
H3011 C3020 0.929 . S
C3012 H3006 0.930 . S
C3012 C3013 1.367 . S
C3012 C3020 1.378 . S
C3013 C3012 1.367 . S
C3013 C3021 1.433 . S
C3014 H3010 0.929 . S
C3014 C3016 1.378 . S
C3014 C3018 1.350 1_565 S
C3015 C3018 1.463 . S
C3015 C3020 1.350 . S
C3015 N3023 1.427 1_545 S
C3016 H3007 0.930 . S
C3016 C3014 1.378 . S
C3016 C3017 1.367 . S
C3017 C3016 1.367 . S
C3017 C3019 1.433 1_565 S
C3018 C3014 1.350 1_545 S
C3018 C3015 1.463 . S
C3018 N3022 1.427 . S
C3019 H3009 0.929 . S
C3019 C3017 1.433 1_545 S
C3019 N3022 1.384 . S
C3020 H3011 0.929 . S
C3020 C3012 1.378 . S
C3020 C3015 1.350 . S
C3021 H3008 0.929 1_545 S
C3021 C3013 1.433 . S
C3021 N3023 1.384 1_545 S
N3022 C3018 1.427 . S
N3022 C3019 1.384 . S
N3023 C3015 1.427 1_565 S
N3023 C3021 1.384 1_565 S
H3024 C3030 0.930 . S
H3025 C3034 0.930 . S
H3026 C3039 0.929 . S
H3027 C3037 0.929 . S
H3028 C3032 0.929 . S
H3029 C3038 0.929 . S
C3030 H3024 0.930 . S
C3030 C3031 1.367 1_655 S
C3030 C3038 1.378 . S
C3031 C3030 1.367 1_455 S
C3031 C3039 1.433 . S
C3032 H3028 0.929 . S
C3032 C3034 1.378 . S
C3032 C3036 1.350 . S
C3033 C3036 1.463 . S
C3033 C3038 1.350 . S
C3033 N3041 1.427 1_655 S
C3034 H3025 0.930 . S
C3034 C3032 1.378 . S
C3034 C3035 1.367 . S
C3035 C3034 1.367 . S
C3035 C3037 1.433 . S
C3036 C3032 1.350 . S
C3036 C3033 1.463 . S
C3036 N3040 1.427 . S
C3037 H3027 0.929 . S
C3037 C3035 1.433 . S
C3037 N3040 1.384 . S
C3038 H3029 0.929 . S
C3038 C3030 1.378 . S
C3038 C3033 1.350 . S
C3039 H3026 0.929 . S
C3039 C3031 1.433 . S
C3039 N3041 1.384 . S
N3040 C3036 1.427 . S
N3040 C3037 1.384 . S
N3041 C3033 1.427 1_455 S
N3041 C3039 1.384 . S
H3042 C3048 0.930 . S
H3043 C3052 0.930 . S
H3044 C3057 0.929 . S
H3045 C3055 0.929 . S
H3046 C3050 0.929 . S
H3047 C3056 0.929 . S
C3048 H3042 0.930 . S
C3048 C3049 1.367 . S
C3048 C3056 1.378 . S
C3049 C3048 1.367 . S
C3049 C3057 1.433 . S
C3050 H3046 0.929 . S
C3050 C3052 1.378 . S
C3050 C3054 1.350 . S
C3051 C3054 1.463 . S
C3051 C3056 1.350 . S
C3051 N3059 1.427 . S
C3052 H3043 0.930 . S
C3052 C3050 1.378 . S
C3052 C3053 1.367 . S
C3053 C3052 1.367 . S
C3053 C3055 1.433 . S
C3054 C3050 1.350 . S
C3054 C3051 1.463 . S
C3054 N3058 1.427 . S
C3055 H3045 0.929 . S
C3055 C3053 1.433 . S
C3055 N3058 1.384 . S
C3056 H3047 0.929 . S
C3056 C3048 1.378 . S
C3056 C3051 1.350 . S
C3057 H3044 0.929 . S
C3057 C3049 1.433 . S
C3057 N3059 1.384 . S
N3058 C3054 1.427 . S
N3058 C3055 1.384 . S
N3059 C3051 1.427 . S
N3059 C3057 1.384 . S
H3060 C3066 0.930 . S
H3061 C3070 0.930 . S
H3062 C3075 0.929 . S
H3063 C3073 0.929 . S
H3064 C3068 0.929 . S
H3065 C3074 0.929 . S
C3066 H3060 0.930 . S
C3066 C3067 1.367 1_455 S
C3066 C3074 1.378 . S
C3067 C3066 1.367 1_655 S
C3067 C3075 1.433 . S
C3068 H3064 0.929 . S
C3068 C3070 1.378 . S
C3068 C3072 1.350 . S
C3069 C3072 1.463 . S
C3069 C3074 1.350 . S
C3069 N3077 1.427 . S
C3070 H3061 0.930 . S
C3070 C3068 1.378 . S
C3070 C3071 1.367 . S
C3071 C3070 1.367 . S
C3071 C3073 1.433 . S
C3072 C3068 1.350 . S
C3072 C3069 1.463 . S
C3072 N3076 1.427 . S
C3073 H3063 0.929 . S
C3073 C3071 1.433 . S
C3073 N3076 1.384 . S
C3074 H3065 0.929 . S
C3074 C3066 1.378 . S
C3074 C3069 1.350 . S
C3075 H3062 0.929 . S
C3075 C3067 1.433 . S
C3075 N3077 1.384 1_655 S
N3076 C3072 1.427 . S
N3076 C3073 1.384 . S
N3077 C3069 1.427 . S
N3077 C3075 1.384 1_455 S
H3078 C3084 0.930 . S
H3079 C3088 0.930 . S
H3080 C3093 0.929 . S
H3081 C3091 0.929 . S
H3082 C3086 0.929 . S
H3083 C3092 0.929 . S
C3084 H3078 0.930 . S
C3084 C3085 1.367 . S
C3084 C3092 1.378 . S
C3085 C3084 1.367 . S
C3085 C3093 1.433 . S
C3086 H3082 0.929 . S
C3086 C3088 1.378 . S
C3086 C3090 1.350 . S
C3087 C3090 1.463 . S
C3087 C3092 1.350 . S
C3087 N3095 1.427 . S
C3088 H3079 0.930 . S
C3088 C3086 1.378 . S
C3088 C3089 1.367 . S
C3089 C3088 1.367 . S
C3089 C3091 1.433 . S
C3090 C3086 1.350 . S
C3090 C3087 1.463 . S
C3090 N3094 1.427 . S
C3091 H3081 0.929 . S
C3091 C3089 1.433 . S
C3091 N3094 1.384 . S
C3092 H3083 0.929 . S
C3092 C3084 1.378 . S
C3092 C3087 1.350 . S
C3093 H3080 0.929 . S
C3093 C3085 1.433 . S
C3093 N3095 1.384 . S
N3094 C3090 1.427 . S
N3094 C3091 1.384 . S
N3095 C3087 1.427 . S
N3095 C3093 1.384 . S
H3096 C3102 0.930 . S
H3097 C3106 0.930 . S
H3098 C3111 0.929 . S
H3099 C3109 0.929 . S
H3100 C3104 0.929 . S
H3101 C3110 0.929 . S
C3102 H3096 0.930 . S
C3102 C3103 1.367 1_565 S
C3102 C3110 1.378 . S
C3103 C3102 1.367 1_545 S
C3103 C3111 1.433 . S
C3104 H3100 0.929 . S
C3104 C3106 1.378 . S
C3104 C3108 1.350 . S
C3105 C3108 1.463 . S
C3105 C3110 1.350 . S
C3105 N3113 1.442 . S
C3106 H3097 0.930 . S
C3106 C3104 1.378 . S
C3106 C3107 1.367 . S
C3107 C3106 1.367 . S
C3107 C3109 1.433 . S
C3108 C3104 1.350 . S
C3108 C3105 1.463 . S
C3108 N3112 1.427 . S
C3109 H3099 0.929 . S
C3109 C3107 1.433 . S
C3109 N3112 1.384 . S
C3110 H3101 0.929 . S
C3110 C3102 1.378 . S
C3110 C3105 1.350 . S
C3111 H3098 0.929 . S
C3111 C3103 1.433 . S
C3111 N3113 1.365 1_545 S
N3112 C3108 1.427 . S
N3112 C3109 1.384 . S
N3113 C3105 1.442 . S
N3113 C3111 1.365 1_565 S
H3114 C3120 0.930 . S
H3115 C3124 0.930 . S
H3116 C3129 0.929 . S
H3117 C3127 0.929 . S
H3118 C3122 0.929 . S
H3119 C3128 0.929 . S
C3120 H3114 0.930 . S
C3120 C3121 1.367 . S
C3120 C3128 1.378 . S
C3121 C3120 1.367 . S
C3121 C3129 1.433 . S
C3122 H3118 0.929 . S
C3122 C3124 1.378 . S
C3122 C3126 1.350 . S
C3123 C3126 1.463 . S
C3123 C3128 1.350 . S
C3123 N3131 1.427 . S
C3124 H3115 0.930 . S
C3124 C3122 1.378 . S
C3124 C3125 1.367 1_655 S
C3125 C3124 1.367 1_455 S
C3125 C3127 1.433 . S
C3126 C3122 1.350 . S
C3126 C3123 1.463 . S
C3126 N3130 1.427 . S
C3127 H3117 0.929 . S
C3127 C3125 1.433 . S
C3127 N3130 1.384 1_455 S
C3128 H3119 0.929 . S
C3128 C3120 1.378 . S
C3128 C3123 1.350 . S
C3129 H3116 0.929 . S
C3129 C3121 1.433 . S
C3129 N3131 1.384 . S
N3130 C3126 1.427 . S
N3130 C3127 1.384 1_655 S
N3131 C3123 1.427 . S
N3131 C3129 1.384 . S
H3132 C3138 0.930 . S
H3133 C3142 0.930 . S
H3134 C3147 0.929 . S
H3135 C3145 0.929 . S
H3136 C3140 0.929 . S
H3137 C3146 0.929 . S
C3138 H3132 0.930 . S
C3138 C3139 1.367 . S
C3138 C3146 1.378 . S
C3139 C3138 1.367 . S
C3139 C3147 1.433 . S
C3140 H3136 0.929 . S
C3140 C3142 1.378 . S
C3140 C3144 1.350 . S
C3141 C3144 1.463 . S
C3141 C3146 1.350 . S
C3141 N3149 1.427 . S
C3142 H3133 0.930 . S
C3142 C3140 1.378 . S
C3142 C3143 1.367 . S
C3143 C3142 1.367 . S
C3143 C3145 1.433 . S
C3144 C3140 1.350 . S
C3144 C3141 1.463 . S
C3144 N3148 1.427 . S
C3145 H3135 0.929 . S
C3145 C3143 1.433 . S
C3145 N3148 1.384 . S
C3146 H3137 0.929 . S
C3146 C3138 1.378 . S
C3146 C3141 1.350 . S
C3147 H3134 0.929 . S
C3147 C3139 1.433 . S
C3147 N3149 1.384 . S
N3148 C3144 1.427 . S
N3148 C3145 1.384 . S
N3149 C3141 1.427 . S
N3149 C3147 1.384 . S
H3150 C3156 0.930 . S
H3151 C3160 0.930 . S
H3152 C3165 0.929 . S
H3153 C3163 0.929 . S
H3154 C3158 0.928 . S
H3155 C3164 0.929 . S
C3156 H3150 0.930 . S
C3156 C3157 1.367 . S
C3156 C3164 1.378 . S
C3157 C3156 1.367 . S
C3157 C3165 1.433 . S
C3158 H3154 0.928 . S
C3158 C3160 1.408 . S
C3158 C3162 1.321 1_565 S
C3159 C3162 1.463 . S
C3159 C3164 1.350 . S
C3159 N3167 1.427 . S
C3160 H3151 0.930 . S
C3160 C3158 1.408 . S
C3160 C3161 1.367 . S
C3161 C3160 1.367 . S
C3161 C3163 1.433 1_565 S
C3162 C3158 1.321 1_545 S
C3162 C3159 1.463 . S
C3162 N3166 1.427 . S
C3163 H3153 0.929 . S
C3163 C3161 1.433 1_545 S
C3163 N3166 1.384 . S
C3164 H3155 0.929 . S
C3164 C3156 1.378 . S
C3164 C3159 1.350 . S
C3165 H3152 0.929 . S
C3165 C3157 1.433 . S
C3165 N3167 1.384 . S
N3166 C3162 1.427 . S
N3166 C3163 1.384 . S
N3167 C3159 1.427 . S
N3167 C3165 1.384 . S
H3168 C3174 0.930 . S
H3169 C3178 0.930 . S
H3170 C3183 0.929 . S
H3171 C3181 0.929 . S
H3172 C3176 0.929 . S
H3173 C3182 0.929 . S
C3174 H3168 0.930 . S
C3174 C3175 1.367 . S
C3174 C3182 1.378 . S
C3175 C3174 1.367 . S
C3175 C3183 1.433 . S
C3176 H3172 0.929 . S
C3176 C3178 1.378 . S
C3176 C3180 1.350 . S
C3177 C3180 1.463 . S
C3177 C3182 1.350 . S
C3177 N3185 1.427 . S
C3178 H3169 0.930 . S
C3178 C3176 1.378 . S
C3178 C3179 1.367 . S
C3179 C3178 1.367 . S
C3179 C3181 1.433 . S
C3180 C3176 1.350 . S
C3180 C3177 1.463 . S
C3180 N3184 1.427 . S
C3181 H3171 0.929 . S
C3181 C3179 1.433 . S
C3181 N3184 1.384 . S
C3182 H3173 0.929 . S
C3182 C3174 1.378 . S
C3182 C3177 1.350 . S
C3183 H3170 0.929 . S
C3183 C3175 1.433 . S
C3183 N3185 1.384 . S
N3184 C3180 1.427 . S
N3184 C3181 1.384 . S
N3185 C3177 1.427 . S
N3185 C3183 1.384 . S
H3186 C3192 0.930 . S
H3187 C3196 0.930 . S
H3188 C3201 0.929 . S
H3189 C3199 0.929 . S
H3190 C3194 0.929 . S
H3191 C3200 0.929 . S
C3192 H3186 0.930 . S
C3192 C3193 1.367 . S
C3192 C3200 1.378 . S
C3193 C3192 1.367 . S
C3193 C3201 1.433 . S
C3194 H3190 0.929 . S
C3194 C3196 1.378 . S
C3194 C3198 1.350 . S
C3195 C3198 1.463 . S
C3195 C3200 1.350 . S
C3195 N3203 1.427 . S
C3196 H3187 0.930 . S
C3196 C3194 1.378 . S
C3196 C3197 1.367 . S
C3197 C3196 1.367 . S
C3197 C3199 1.433 . S
C3198 C3194 1.350 . S
C3198 C3195 1.463 . S
C3198 N3202 1.427 . S
C3199 H3189 0.929 . S
C3199 C3197 1.433 . S
C3199 N3202 1.384 . S
C3200 H3191 0.929 . S
C3200 C3192 1.378 . S
C3200 C3195 1.350 . S
C3201 H3188 0.929 . S
C3201 C3193 1.433 . S
C3201 N3203 1.384 . S
N3202 C3198 1.427 . S
N3202 C3199 1.384 . S
N3203 C3195 1.427 . S
N3203 C3201 1.384 . S
H3204 C3210 0.930 . S
H3205 C3214 0.930 . S
H3206 C3219 0.929 . S
H3207 C3217 0.929 . S
H3208 C3212 0.929 . S
H3209 C3218 0.929 . S
C3210 H3204 0.930 . S
C3210 C3211 1.367 . S
C3210 C3218 1.378 . S
C3211 C3210 1.367 . S
C3211 C3219 1.433 . S
C3212 H3208 0.929 . S
C3212 C3214 1.378 . S
C3212 C3216 1.350 . S
C3213 C3216 1.463 . S
C3213 C3218 1.350 . S
C3213 N3221 1.427 . S
C3214 H3205 0.930 . S
C3214 C3212 1.378 . S
C3214 C3215 1.367 . S
C3215 C3214 1.367 . S
C3215 C3217 1.433 . S
C3216 C3212 1.350 . S
C3216 C3213 1.463 . S
C3216 N3220 1.427 . S
C3217 H3207 0.929 . S
C3217 C3215 1.433 . S
C3217 N3220 1.384 . S
C3218 H3209 0.929 . S
C3218 C3210 1.378 . S
C3218 C3213 1.350 . S
C3219 H3206 0.929 . S
C3219 C3211 1.433 . S
C3219 N3221 1.384 . S
N3220 C3216 1.427 . S
N3220 C3217 1.384 . S
N3221 C3213 1.427 . S
N3221 C3219 1.384 . S
H3222 C3228 0.930 . S
H3223 C3232 0.930 . S
H3224 C3237 0.929 . S
H3225 C3235 0.929 . S
H3226 C3230 0.929 . S
H3227 C3236 0.929 . S
C3228 H3222 0.930 . S
C3228 C3229 1.367 . S
C3228 C3236 1.378 . S
C3229 C3228 1.367 . S
C3229 C3237 1.433 . S
C3230 H3226 0.929 . S
C3230 C3232 1.378 . S
C3230 C3234 1.350 . S
C3231 C3234 1.463 . S
C3231 C3236 1.350 . S
C3231 N3239 1.427 . S
C3232 H3223 0.930 . S
C3232 C3230 1.378 . S
C3232 C3233 1.367 . S
C3233 C3232 1.367 . S
C3233 C3235 1.433 . S
C3234 C3230 1.350 . S
C3234 C3231 1.463 . S
C3234 N3238 1.427 . S
C3235 H3225 0.929 . S
C3235 C3233 1.433 . S
C3235 N3238 1.384 . S
C3236 H3227 0.929 . S
C3236 C3228 1.378 . S
C3236 C3231 1.350 . S
C3237 H3224 0.929 . S
C3237 C3229 1.433 . S
C3237 N3239 1.384 . S
N3238 C3234 1.427 . S
N3238 C3235 1.384 . S
N3239 C3231 1.427 . S
N3239 C3237 1.384 . S
H3240 C3246 0.930 . S
H3241 C3250 0.930 . S
H3242 C3255 0.929 . S
H3243 C3253 0.929 . S
H3244 C3248 0.929 . S
H3245 C3254 0.929 . S
C3246 H3240 0.930 . S
C3246 C3247 1.367 . S
C3246 C3254 1.378 . S
C3247 C3246 1.367 . S
C3247 C3255 1.433 . S
C3248 H3244 0.929 . S
C3248 C3250 1.378 . S
C3248 C3252 1.350 . S
C3249 C3252 1.463 . S
C3249 C3254 1.350 . S
C3249 N3257 1.427 . S
C3250 H3241 0.930 . S
C3250 C3248 1.378 . S
C3250 C3251 1.367 . S
C3251 C3250 1.367 . S
C3251 C3253 1.433 . S
C3252 C3248 1.350 . S
C3252 C3249 1.463 . S
C3252 N3256 1.427 . S
C3253 H3243 0.929 . S
C3253 C3251 1.433 . S
C3253 N3256 1.384 . S
C3254 H3245 0.929 . S
C3254 C3246 1.378 . S
C3254 C3249 1.350 . S
C3255 H3242 0.929 . S
C3255 C3247 1.433 . S
C3255 N3257 1.384 . S
N3256 C3252 1.427 . S
N3256 C3253 1.384 . S
N3257 C3249 1.427 . S
N3257 C3255 1.384 . S
H3258 C3264 0.930 . S
H3259 C3268 0.930 . S
H3260 C3273 0.929 . S
H3261 C3271 0.929 . S
H3262 C3266 0.929 . S
H3263 C3272 0.929 . S
C3264 H3258 0.930 . S
C3264 C3265 1.367 . S
C3264 C3272 1.378 . S
C3265 C3264 1.367 . S
C3265 C3273 1.433 . S
C3266 H3262 0.929 . S
C3266 C3268 1.378 . S
C3266 C3270 1.350 . S
C3267 C3270 1.463 . S
C3267 C3272 1.350 . S
C3267 N3275 1.427 . S
C3268 H3259 0.930 . S
C3268 C3266 1.378 . S
C3268 C3269 1.367 . S
C3269 C3268 1.367 . S
C3269 C3271 1.433 . S
C3270 C3266 1.350 . S
C3270 C3267 1.463 . S
C3270 N3274 1.427 . S
C3271 H3261 0.929 . S
C3271 C3269 1.433 . S
C3271 N3274 1.384 . S
C3272 H3263 0.929 . S
C3272 C3264 1.378 . S
C3272 C3267 1.350 . S
C3273 H3260 0.929 . S
C3273 C3265 1.433 . S
C3273 N3275 1.384 . S
N3274 C3270 1.427 . S
N3274 C3271 1.384 . S
N3275 C3267 1.427 . S
N3275 C3273 1.384 . S
H3276 C3282 0.930 . S
H3277 C3286 0.930 . S
H3278 C3291 0.929 . S
H3279 C3289 0.929 . S
H3280 C3284 0.929 . S
H3281 C3290 0.929 . S
C3282 H3276 0.930 . S
C3282 C3283 1.367 . S
C3282 C3290 1.378 . S
C3283 C3282 1.367 . S
C3283 C3291 1.433 . S
C3284 H3280 0.929 . S
C3284 C3286 1.378 . S
C3284 C3288 1.350 . S
C3285 C3288 1.463 . S
C3285 C3290 1.350 . S
C3285 N3293 1.427 . S
C3286 H3277 0.930 . S
C3286 C3284 1.378 . S
C3286 C3287 1.367 . S
C3287 C3286 1.367 . S
C3287 C3289 1.433 . S
C3288 C3284 1.350 . S
C3288 C3285 1.463 . S
C3288 N3292 1.427 . S
C3289 H3279 0.929 . S
C3289 C3287 1.433 . S
C3289 N3292 1.384 . S
C3290 H3281 0.929 . S
C3290 C3282 1.378 . S
C3290 C3285 1.350 . S
C3291 H3278 0.929 . S
C3291 C3283 1.433 . S
C3291 N3293 1.384 . S
N3292 C3288 1.427 . S
N3292 C3289 1.384 . S
N3293 C3285 1.427 . S
N3293 C3291 1.384 . S
H3294 C3300 0.930 . S
H3295 C3304 0.930 . S
H3296 C3309 0.929 . S
H3297 C3307 0.929 . S
H3298 C3302 0.929 . S
H3299 C3308 0.929 . S
C3300 H3294 0.930 . S
C3300 C3301 1.367 . S
C3300 C3308 1.378 . S
C3301 C3300 1.367 . S
C3301 C3309 1.433 . S
C3302 H3298 0.929 . S
C3302 C3304 1.378 . S
C3302 C3306 1.350 . S
C3303 C3306 1.463 . S
C3303 C3308 1.350 . S
C3303 N3311 1.427 . S
C3304 H3295 0.930 . S
C3304 C3302 1.378 . S
C3304 C3305 1.367 . S
C3305 C3304 1.367 . S
C3305 C3307 1.433 . S
C3306 C3302 1.350 . S
C3306 C3303 1.463 . S
C3306 N3310 1.427 . S
C3307 H3297 0.929 . S
C3307 C3305 1.433 . S
C3307 N3310 1.384 . S
C3308 H3299 0.929 . S
C3308 C3300 1.378 . S
C3308 C3303 1.350 . S
C3309 H3296 0.929 . S
C3309 C3301 1.433 . S
C3309 N3311 1.384 . S
N3310 C3306 1.427 . S
N3310 C3307 1.384 . S
N3311 C3303 1.427 . S
N3311 C3309 1.384 . S
H3312 C3318 0.930 . S
H3313 C3322 0.930 . S
H3314 C3327 0.929 . S
H3315 C3325 0.929 . S
H3316 C3320 0.929 . S
H3317 C3326 0.929 . S
C3318 H3312 0.930 . S
C3318 C3319 1.367 . S
C3318 C3326 1.378 . S
C3319 C3318 1.367 . S
C3319 C3327 1.433 . S
C3320 H3316 0.929 . S
C3320 C3322 1.378 . S
C3320 C3324 1.350 . S
C3321 C3324 1.463 . S
C3321 C3326 1.350 . S
C3321 N3329 1.427 . S
C3322 H3313 0.930 . S
C3322 C3320 1.378 . S
C3322 C3323 1.367 . S
C3323 C3322 1.367 . S
C3323 C3325 1.433 . S
C3324 C3320 1.350 . S
C3324 C3321 1.463 . S
C3324 N3328 1.427 . S
C3325 H3315 0.929 . S
C3325 C3323 1.433 . S
C3325 N3328 1.384 . S
C3326 H3317 0.929 . S
C3326 C3318 1.378 . S
C3326 C3321 1.350 . S
C3327 H3314 0.929 . S
C3327 C3319 1.433 . S
C3327 N3329 1.384 . S
N3328 C3324 1.427 . S
N3328 C3325 1.384 . S
N3329 C3321 1.427 . S
N3329 C3327 1.384 . S
H3330 C3336 0.930 . S
H3331 C3340 0.930 . S
H3332 C3345 0.929 . S
H3333 C3343 0.929 . S
H3334 C3338 0.929 . S
H3335 C3344 0.929 . S
C3336 H3330 0.930 . S
C3336 C3337 1.367 . S
C3336 C3344 1.378 . S
C3337 C3336 1.367 . S
C3337 C3345 1.433 . S
C3338 H3334 0.929 . S
C3338 C3340 1.378 . S
C3338 C3342 1.350 . S
C3339 C3342 1.463 . S
C3339 C3344 1.350 . S
C3339 N3347 1.427 . S
C3340 H3331 0.930 . S
C3340 C3338 1.378 . S
C3340 C3341 1.367 . S
C3341 C3340 1.367 . S
C3341 C3343 1.433 . S
C3342 C3338 1.350 . S
C3342 C3339 1.463 . S
C3342 N3346 1.427 . S
C3343 H3333 0.929 . S
C3343 C3341 1.433 . S
C3343 N3346 1.384 . S
C3344 H3335 0.929 . S
C3344 C3336 1.378 . S
C3344 C3339 1.350 . S
C3345 H3332 0.929 . S
C3345 C3337 1.433 . S
C3345 N3347 1.384 . S
N3346 C3342 1.427 . S
N3346 C3343 1.384 . S
N3347 C3339 1.427 . S
N3347 C3345 1.384 . S
H3348 C3354 0.930 . S
H3349 C3358 0.930 . S
H3350 C3363 0.929 . S
H3351 C3361 0.929 . S
H3352 C3356 0.929 . S
H3353 C3362 0.929 . S
C3354 H3348 0.930 . S
C3354 C3355 1.367 . S
C3354 C3362 1.378 . S
C3355 C3354 1.367 . S
C3355 C3363 1.433 . S
C3356 H3352 0.929 . S
C3356 C3358 1.378 . S
C3356 C3360 1.350 . S
C3357 C3360 1.463 . S
C3357 C3362 1.350 . S
C3357 N3365 1.427 . S
C3358 H3349 0.930 . S
C3358 C3356 1.378 . S
C3358 C3359 1.367 . S
C3359 C3358 1.367 . S
C3359 C3361 1.433 . S
C3360 C3356 1.350 . S
C3360 C3357 1.463 . S
C3360 N3364 1.427 . S
C3361 H3351 0.929 . S
C3361 C3359 1.433 . S
C3361 N3364 1.384 . S
C3362 H3353 0.929 . S
C3362 C3354 1.378 . S
C3362 C3357 1.350 . S
C3363 H3350 0.929 . S
C3363 C3355 1.433 . S
C3363 N3365 1.384 . S
N3364 C3360 1.427 . S
N3364 C3361 1.384 . S
N3365 C3357 1.427 . S
N3365 C3363 1.384 . S
H3366 C3372 0.930 . S
H3367 C3376 0.930 . S
H3368 C3381 0.929 . S
H3369 C3379 0.929 . S
H3370 C3374 0.929 . S
H3371 C3380 0.929 . S
C3372 H3366 0.930 . S
C3372 C3373 1.367 . S
C3372 C3380 1.378 . S
C3373 C3372 1.367 . S
C3373 C3381 1.433 . S
C3374 H3370 0.929 . S
C3374 C3376 1.378 . S
C3374 C3378 1.350 . S
C3375 C3378 1.463 . S
C3375 C3380 1.350 . S
C3375 N3383 1.427 . S
C3376 H3367 0.930 . S
C3376 C3374 1.378 . S
C3376 C3377 1.367 . S
C3377 C3376 1.367 . S
C3377 C3379 1.433 . S
C3378 C3374 1.350 . S
C3378 C3375 1.463 . S
C3378 N3382 1.427 . S
C3379 H3369 0.929 . S
C3379 C3377 1.433 . S
C3379 N3382 1.384 . S
C3380 H3371 0.929 . S
C3380 C3372 1.378 . S
C3380 C3375 1.350 . S
C3381 H3368 0.929 . S
C3381 C3373 1.433 . S
C3381 N3383 1.384 . S
N3382 C3378 1.427 . S
N3382 C3379 1.384 . S
N3383 C3375 1.427 . S
N3383 C3381 1.384 . S
C1447 C9 1.070 . S
C1451 C95 1.054 . S
C1465 C15 1.070 . S
C1469 C49 1.081 . S
C1483 C89 1.086 . S
C1487 C55 1.071 . S
C1501 C138 2.575 . S
C1505 C170 2.645 . S
C1519 C210 2.643 . S
C1523 C178 2.582 . S
C1537 C218 2.577 . S
C1541 C130 2.643 . S
C1555 C258 1.086 . S
C1559 C326 1.073 . S
C1573 C298 1.084 . S
C1577 C246 1.072 . S
C1591 C338 1.085 . S
C1595 C286 1.073 . S
C1609 C369 2.582 . S
C1613 C419 2.643 . S
C1627 C459 2.641 . S
C1631 C409 2.584 . S
C1645 C379 2.645 . S
C1649 C449 2.576 . S
C1663 C575 1.072 . S
C1667 C489 1.086 . S
C1681 C529 1.084 . S
C1685 C495 1.072 . S
C1699 C535 1.056 . S
C1703 C569 1.071 . S
C1717 C618 2.576 . S
C1721 C650 2.645 . S
C1735 C690 2.641 . S
C1739 C658 2.584 . S
C1753 C610 2.641 . S
C1757 C698 2.584 . S
C1771 C738 1.070 . S
C1775 C806 1.052 . S
C1789 C778 1.071 . S
C1793 C726 1.052 . S
C1807 C766 1.071 . S
C1811 C818 1.086 . S
C1825 C899 2.641 . S
C1829 C849 2.584 1_554 S
C1843 C889 2.583 1_554 S
C1847 C939 2.642 . S
C1861 C859 2.643 . S
C1865 C929 2.567 1_554 S
C1879 C969 1.078 . S
C1883 C1055 1.066 . S
C1897 C1009 1.070 . S
C1901 C975 1.052 . S
C1915 C1049 1.071 . S
C1919 C1015 1.052 . S
C1933 C1098 2.566 1_556 S
C1937 C1130 2.645 . S
C1951 C1138 2.566 1_556 S
C1955 C1170 2.645 . S
C1969 C1178 2.564 1_556 S
C1973 C1090 2.644 . S
C1987 C1218 1.070 . S
C1991 C1286 1.052 . S
C2005 C1258 1.072 . S
C2009 C1206 1.058 . S
C2023 C1246 1.065 . S
C2027 C1298 1.083 . S
C2041 C1329 2.583 . S
C2045 C1379 2.643 . S
C2059 C1369 2.584 . S
C2063 C1419 2.641 . S
C2077 C1339 2.643 . S
C2081 C1409 2.580 . S
C2095 C6 0.504 . S
C2099 C809 0.477 . S
C2113 C729 0.510 . S
C2117 C46 0.486 . S
C2131 C86 0.471 . S
C2135 C769 0.472 . S
C2149 C139 3.098 . S
C2153 C1378 3.066 . S
C2167 C1418 3.068 . S
C2171 C179 3.095 . S
C2185 C219 3.099 . S
C2189 C1338 3.065 . S
C2203 C1058 0.498 . S
C2207 C255 0.497 . S
C2221 C295 0.472 . S
C2225 C978 0.518 . S
C2239 C335 0.463 . S
C2243 C1018 0.519 . S
C2257 C649 3.065 . S
C2261 C370 3.098 . S
C2275 C689 3.063 . S
C2279 C410 3.099 . S
C2293 C609 3.066 . S
C2297 C450 3.092 . S
C2311 C486 0.476 1_455 S
C2315 C1289 0.469 . S
C2329 C526 0.502 . S
C2333 C1209 0.469 . S
C2347 C1249 0.473 . S
C2351 C566 0.471 1_565 S
C2365 C418 3.061 . S
C2369 C619 3.097 . S
C2383 C458 3.067 . S
C2387 C659 3.092 . S
C2401 C378 3.068 . S
C2405 C699 3.095 . S
C2419 C98 0.504 . S
C2423 C735 0.492 . S
C2437 C775 0.455 . S
C2441 C18 0.490 . S
C2455 C815 0.485 . S
C2459 C58 0.511 . S
C2473 C1129 3.063 1_554 S
C2477 C850 3.099 . S
C2491 C1169 3.065 1_554 S
C2495 C890 3.092 . S
C2509 C930 3.096 . S
C2513 C1089 3.065 1_554 S
C2527 C329 0.488 . S
C2531 C966 0.502 . S
C2545 C249 0.479 . S
C2549 C1006 0.463 . S
C2563 C289 0.490 . S
C2567 C1046 0.455 . S
C2581 C1099 3.098 . S
C2585 C898 3.064 1_556 S
C2599 C938 3.062 1_556 S
C2603 C1139 3.098 . S
C2617 C1179 3.098 . S
C2621 C858 3.063 1_556 S
C2635 C1215 0.482 1_655 S
C2639 C578 0.513 . S
C2653 C1255 0.472 . S
C2657 C498 0.472 . S
C2671 C1295 0.495 1_545 S
C2675 C538 0.501 . S
C2689 C1330 3.096 . S
C2693 C169 3.068 . S
C2707 C209 3.060 . S
C2711 C1370 3.094 . S
C2725 C129 3.063 . S
C2729 C1410 3.099 . S
C2743 C1175 2.642 . S
C2747 C10 2.712 . S
C2761 C1095 2.643 . S
C2765 C50 2.714 . S
C2779 C90 2.713 . S
C2783 C1135 2.650 . S
C2797 C530 2.712 . S
C2801 C135 2.642 . S
C2815 C175 2.649 . S
C2819 C570 2.715 . S
C2833 C215 2.650 . S
C2837 C490 2.715 . S
C2851 C259 2.711 . S
C2855 C926 2.643 . S
C2869 C299 2.712 . S
C2873 C846 2.650 . S
C2887 C339 2.716 . S
C2891 C886 2.647 . S
C2905 C1259 2.711 . S
C2909 C366 2.647 . S
C2923 C1299 2.713 . S
C2927 C406 2.642 . S
C2941 C1219 2.713 . S
C2945 C446 2.650 . S
C2959 C615 2.642 . S
C2963 C1010 2.713 . S
C2977 C655 2.646 . S
C2981 C1050 2.715 . S
C2995 C695 2.642 . S
C2999 C970 2.712 . S
C3013 C739 2.711 . S
C3017 C1406 2.642 . S
C3031 C1326 2.651 . S
C3035 C779 2.714 . S
C3049 C819 2.710 . S
C3053 C1366 2.644 . S
C3067 C166 1.317 . S
C3071 C19 1.345 . S
C3085 C206 1.318 . S
C3089 C59 1.348 . S
C3103 C126 1.312 . S
C3107 C99 1.343 . S
C3121 C250 1.343 . S
C3125 C415 1.314 . S
C3139 C455 1.307 . S
C3143 C290 1.351 . S
C3157 C330 1.351 . S
C3161 C375 1.308 . S
C3175 C646 1.312 . S
C3179 C499 1.350 . S
C3193 C686 1.313 . S
C3197 C539 1.351 . S
C3211 C606 1.307 . S
C3215 C579 1.350 . S
C3229 C895 1.318 . S
C3233 C730 1.347 . S
C3247 C770 1.348 . S
C3251 C935 1.302 . S
C3265 C810 1.343 . S
C3269 C855 1.314 . S
C3283 C979 1.346 . S
C3287 C1126 1.317 . S
C3301 C1166 1.301 . S
C3305 C1019 1.344 . S
C3319 C1059 1.351 . S
C3323 C1086 1.311 . S
C3337 C1210 1.350 . S
C3341 C1375 1.305 . S
C3355 C1415 1.313 . S
C3359 C1250 1.343 . S
C3373 C1290 1.350 . S
C3377 C1335 1.308 . S
