# Generated by pormake.
# Topology vmh, (6)-cn, num edge types: 1
# Building blocks:
#     Node 0, Type 0, BuildingBlock: IZENUY_clean_sbu_0, # of connection points: 6
#     Node 1, Type 0, BuildingBlock: IZENUY_clean_sbu_0, # of connection points: 6
#     Node 2, Type 0, BuildingBlock: IZENUY_clean_sbu_0, # of connection points: 6
#     Node 3, Type 0, BuildingBlock: IZENUY_clean_sbu_0, # of connection points: 6
#     Node 4, Type 0, BuildingBlock: IZENUY_clean_sbu_0, # of connection points: 6
#     Node 5, Type 0, BuildingBlock: IZENUY_clean_sbu_0, # of connection points: 6
#     Node 6, Type 0, BuildingBlock: IZENUY_clean_sbu_0, # of connection points: 6
#     Node 7, Type 0, BuildingBlock: IZENUY_clean_sbu_0, # of connection points: 6
#     Edge 8, Type (0, 0), BuildingBlock: TEMPAE_clean_linker_10, # of connection points: 2
#     Edge 9, Type (0, 0), BuildingBlock: TEMPAE_clean_linker_10, # of connection points: 2
#     Edge 10, Type (0, 0), BuildingBlock: TEMPAE_clean_linker_10, # of connection points: 2
#     Edge 11, Type (0, 0), BuildingBlock: TEMPAE_clean_linker_10, # of connection points: 2
#     Edge 12, Type (0, 0), BuildingBlock: TEMPAE_clean_linker_10, # of connection points: 2
#     Edge 13, Type (0, 0), BuildingBlock: TEMPAE_clean_linker_10, # of connection points: 2
#     Edge 14, Type (0, 0), BuildingBlock: TEMPAE_clean_linker_10, # of connection points: 2
#     Edge 15, Type (0, 0), BuildingBlock: TEMPAE_clean_linker_10, # of connection points: 2
#     Edge 16, Type (0, 0), BuildingBlock: TEMPAE_clean_linker_10, # of connection points: 2
#     Edge 17, Type (0, 0), BuildingBlock: TEMPAE_clean_linker_10, # of connection points: 2
#     Edge 18, Type (0, 0), BuildingBlock: TEMPAE_clean_linker_10, # of connection points: 2
#     Edge 19, Type (0, 0), BuildingBlock: TEMPAE_clean_linker_10, # of connection points: 2
#     Edge 20, Type (0, 0), BuildingBlock: TEMPAE_clean_linker_10, # of connection points: 2
#     Edge 21, Type (0, 0), BuildingBlock: TEMPAE_clean_linker_10, # of connection points: 2
#     Edge 22, Type (0, 0), BuildingBlock: TEMPAE_clean_linker_10, # of connection points: 2
#     Edge 23, Type (0, 0), BuildingBlock: TEMPAE_clean_linker_10, # of connection points: 2
#     Edge 24, Type (0, 0), BuildingBlock: TEMPAE_clean_linker_10, # of connection points: 2
#     Edge 25, Type (0, 0), BuildingBlock: TEMPAE_clean_linker_10, # of connection points: 2
#     Edge 26, Type (0, 0), BuildingBlock: TEMPAE_clean_linker_10, # of connection points: 2
#     Edge 27, Type (0, 0), BuildingBlock: TEMPAE_clean_linker_10, # of connection points: 2
#     Edge 28, Type (0, 0), BuildingBlock: TEMPAE_clean_linker_10, # of connection points: 2
#     Edge 29, Type (0, 0), BuildingBlock: TEMPAE_clean_linker_10, # of connection points: 2
#     Edge 30, Type (0, 0), BuildingBlock: TEMPAE_clean_linker_10, # of connection points: 2
#     Edge 31, Type (0, 0), BuildingBlock: TEMPAE_clean_linker_10, # of connection points: 2
# Relax obj value: 0.247
# Max RMSD: 0.263
# Mean RMSD: 0.263
data_MOF--net-vmh--node1-IZENUY_clean_sbu_0--edge1-TEMPAE_clean_linker_10
_symmetry_space_group_name_H-M    P1
_symmetry_Int_Tables_number       1
_symmetry_cell_setting            triclinic
loop_
_symmetry_equiv_pos_as_xyz
'x, y, z'
_cell_length_a     28.499372
_cell_length_b     43.84365
_cell_length_c     29.219432
_cell_angle_alpha  89.981019
_cell_angle_beta   104.40588
_cell_angle_gamma 90.059241
loop_
_atom_site_label
_atom_site_type_symbol
_atom_site_fract_x
_atom_site_fract_y
_atom_site_fract_z
_atom_type_partial_charge
Fe0 Fe 0.25775 0.09917 0.10105 0.0
Fe1 Fe 0.26073 0.03972 0.04437 0.0
O2 O 0.28071 0.07771 0.05974 0.0
Fe3 Fe 0.32504 0.09395 0.03365 0.0
O4 O 0.36813 0.09667 0.0904 0.0
O5 O 0.31819 0.11647 0.12962 0.0
O6 O 0.27429 0.07014 0.14587 0.0
C7 C 0.26443 0.04217 0.14268 0.0
C8 C 0.26962 0.14641 0.04298 0.0
O9 O 0.25158 0.02927 0.10275 0.0
C10 C 0.26838 0.06598 0.95674 0.0
O11 O 0.19421 0.08336 0.08051 0.0
O12 O 0.19862 0.05158 0.02314 0.0
O13 O 0.30718 0.13338 0.03761 0.0
O14 O 0.23977 0.13183 0.06044 0.0
C15 C 0.35538 0.03275 0.04537 0.0
O16 O 0.26554 0.04338 0.98314 0.0
O17 O 0.28439 0.09145 0.97466 0.0
C18 C 0.17379 0.06585 0.0461 0.0
O19 O 0.32192 0.02424 0.06368 0.0
O20 O 0.35312 0.05815 0.025 0.0
C21 C 0.36098 0.10924 0.12692 0.0
Fe22 Fe 0.77844 0.09737 0.40839 0.0
Fe23 Fe 0.75107 0.04187 0.46033 0.0
O24 O 0.74447 0.08091 0.44542 0.0
Fe25 Fe 0.70191 0.10329 0.46539 0.0
O26 O 0.68509 0.12701 0.41179 0.0
O27 O 0.72188 0.10505 0.36332 0.0
O28 O 0.78251 0.0621 0.37559 0.0
C29 C 0.75531 0.03885 0.36851 0.0
C30 C 0.77028 0.14638 0.4721 0.0
O31 O 0.73279 0.0306 0.39851 0.0
C32 C 0.74318 0.0652 0.54453 0.0
O33 O 0.83697 0.08814 0.45071 0.0
O34 O 0.81504 0.04071 0.46067 0.0
O35 O 0.74852 0.1294 0.49476 0.0
O36 O 0.7794 0.13662 0.43408 0.0
C37 C 0.65035 0.05104 0.44607 0.0
O38 O 0.7694 0.05058 0.52305 0.0
O39 O 0.71042 0.08311 0.52223 0.0
C40 C 0.84792 0.06056 0.46333 0.0
O41 O 0.68838 0.03595 0.463 0.0
O42 O 0.65254 0.07888 0.43702 0.0
C43 C 0.68516 0.11872 0.37034 0.0
Fe44 Fe 0.74141 0.97971 0.95923 0.0
Fe45 Fe 0.76752 0.92074 0.91123 0.0
O46 O 0.73768 0.93943 0.95008 0.0
Fe47 Fe 0.70104 0.91807 0.98018 0.0
O48 O 0.66276 0.94942 0.9875 0.0
O49 O 0.67528 0.98406 0.93905 0.0
O50 O 0.74433 0.9907 0.89969 0.0
C51 C 0.74268 0.97582 0.86251 0.0
C52 C 0.75001 0.95402 0.05115 0.0
O53 O 0.74689 0.94737 0.86329 0.0
C54 C 0.76829 0.87245 0.97251 0.0
O55 O 0.80666 0.97909 0.97864 0.0
O56 O 0.82601 0.94233 0.93411 0.0
O57 O 0.74251 0.92661 0.03704 0.0
O58 O 0.74084 0.97607 0.02182 0.0
C59 C 0.66771 0.90049 0.887 0.0
O60 O 0.79271 0.88985 0.95295 0.0
O61 O 0.72877 0.88124 0.97882 0.0
C62 C 0.83779 0.96523 0.96221 0.0
O63 O 0.71139 0.89875 0.88244 0.0
O64 O 0.65842 0.90957 0.92489 0.0
C65 C 0.64661 0.96979 0.95788 0.0
Fe66 Fe 0.25135 0.92379 0.60542 0.0
Fe67 Fe 0.32284 0.91935 0.54257 0.0
O68 O 0.28029 0.94052 0.56444 0.0
Fe69 Fe 0.26824 0.97888 0.54682 0.0
O70 O 0.29017 0.99226 0.60736 0.0
O71 O 0.24646 0.95968 0.63653 0.0
O72 O 0.31031 0.91838 0.64793 0.0
C73 C 0.34691 0.90536 0.63941 0.0
C74 C 0.17601 0.9565 0.54958 0.0
O75 O 0.34633 0.8976 0.59751 0.0
C76 C 0.27104 0.95351 0.46228 0.0
O77 O 0.25219 0.88416 0.58196 0.0
O78 O 0.27842 0.89058 0.51815 0.0
O79 O 0.20583 0.97809 0.55158 0.0
O80 O 0.19043 0.93007 0.56552 0.0
C81 C 0.3683 0.97387 0.55297 0.0
O82 O 0.30713 0.93761 0.48373 0.0
O83 O 0.24591 0.96785 0.48527 0.0
C84 C 0.25895 0.87392 0.54324 0.0
O85 O 0.37052 0.94652 0.5658 0.0
O86 O 0.32795 0.98673 0.53771 0.0
C87 C 0.2716 0.98382 0.64024 0.0
Fe88 Fe 0.75422 0.60003 0.10162 0.0
Fe89 Fe 0.75518 0.54039 0.04526 0.0
O90 O 0.77737 0.57773 0.06142 0.0
Fe91 Fe 0.82446 0.59234 0.03809 0.0
O92 O 0.86462 0.59373 0.09609 0.0
O93 O 0.81461 0.61731 0.13092 0.0
O94 O 0.76962 0.57106 0.14674 0.0
C95 C 0.75833 0.54328 0.14331 0.0
C96 C 0.76911 0.64564 0.04216 0.0
O97 O 0.74287 0.53093 0.10307 0.0
C98 C 0.76959 0.56587 0.95932 0.0
O99 O 0.6904 0.58453 0.08053 0.0
O100 O 0.69482 0.5544 0.02146 0.0
O101 O 0.80796 0.63231 0.04082 0.0
O102 O 0.73821 0.63217 0.0598 0.0
C103 C 0.85082 0.53105 0.05352 0.0
O104 O 0.7636 0.54323 0.98457 0.0
O105 O 0.78679 0.59073 0.97826 0.0
C106 C 0.66983 0.56786 0.04507 0.0
O107 O 0.81448 0.52327 0.06782 0.0
O108 O 0.85095 0.55557 0.03124 0.0
C109 C 0.85695 0.60739 0.13137 0.0
Fe110 Fe 0.27006 0.59906 0.4141 0.0
Fe111 Fe 0.2722 0.54081 0.4746 0.0
O112 O 0.25032 0.57816 0.45795 0.0
Fe113 Fe 0.20717 0.59435 0.48501 0.0
O114 O 0.16254 0.59506 0.42946 0.0
O115 O 0.20885 0.6163 0.38803 0.0
O116 O 0.25093 0.56928 0.37092 0.0
C117 C 0.26179 0.54146 0.37477 0.0
C118 C 0.26084 0.64674 0.47181 0.0
O119 O 0.27872 0.52956 0.41515 0.0
C120 C 0.26662 0.56892 0.56202 0.0
O121 O 0.33375 0.58336 0.43151 0.0
O122 O 0.33369 0.55407 0.49285 0.0
O123 O 0.22346 0.63383 0.47805 0.0
O124 O 0.28993 0.63207 0.45351 0.0
C125 C 0.17903 0.5328 0.4774 0.0
O126 O 0.26988 0.54555 0.53706 0.0
O127 O 0.24967 0.59371 0.54259 0.0
C128 C 0.35634 0.56723 0.46674 0.0
O129 O 0.21161 0.52431 0.45805 0.0
O130 O 0.18124 0.55846 0.49699 0.0
C131 C 0.16696 0.60811 0.39232 0.0
Fe132 Fe 0.23895 0.47883 0.9631 0.0
Fe133 Fe 0.26884 0.42443 0.91038 0.0
O134 O 0.23584 0.43939 0.94929 0.0
Fe135 Fe 0.19794 0.41504 0.97245 0.0
O136 O 0.14575 0.43752 0.94661 0.0
O137 O 0.17656 0.48202 0.97042 0.0
O138 O 0.21663 0.48955 0.90099 0.0
C139 C 0.23745 0.48147 0.86939 0.0
C140 C 0.24062 0.45456 0.05 0.0
O141 O 0.26737 0.45965 0.87642 0.0
C142 C 0.26929 0.37458 0.97515 0.0
O143 O 0.30195 0.48265 0.95978 0.0
O144 O 0.32781 0.43607 0.95079 0.0
O145 O 0.20904 0.43502 0.03011 0.0
O146 O 0.26187 0.47094 0.02571 0.0
C147 C 0.17666 0.39972 0.87645 0.0
O148 O 0.27484 0.38515 0.9362 0.0
O149 O 0.24771 0.39033 0.99943 0.0
C150 C 0.33668 0.46398 0.96335 0.0
O151 O 0.21166 0.41445 0.86753 0.0
O152 O 0.17933 0.39134 0.91861 0.0
C153 C 0.14036 0.46444 0.95822 0.0
Fe154 Fe 0.75277 0.42228 0.60494 0.0
Fe155 Fe 0.82295 0.41263 0.54229 0.0
O156 O 0.78623 0.43724 0.5664 0.0
Fe157 Fe 0.78423 0.47678 0.55386 0.0
O158 O 0.80677 0.48658 0.61631 0.0
O159 O 0.75424 0.45735 0.63914 0.0
O160 O 0.80974 0.41209 0.64767 0.0
C161 C 0.84455 0.39739 0.63833 0.0
C162 C 0.68616 0.46197 0.55093 0.0
O163 O 0.84124 0.38878 0.5961 0.0
C164 C 0.78141 0.45327 0.46612 0.0
O165 O 0.74656 0.38313 0.57923 0.0
O166 O 0.77199 0.38863 0.51524 0.0
O167 O 0.72108 0.48079 0.55677 0.0
O168 O 0.69439 0.43412 0.56401 0.0
C169 C 0.88257 0.46162 0.55932 0.0
O170 O 0.81208 0.43303 0.48507 0.0
O171 O 0.76138 0.46987 0.49108 0.0
C172 C 0.75076 0.37284 0.53977 0.0
O173 O 0.87624 0.43418 0.56764 0.0
O174 O 0.84687 0.4796 0.5474 0.0
C175 C 0.78562 0.47835 0.64755 0.0
C176 C 0.2716 0.08238 0.87453 0.0
C177 C 0.26447 0.0596 0.90591 0.0
C178 C 0.2732 0.07504 0.82794 0.0
C179 C 0.26864 0.0442 0.8129 0.0
C180 C 0.26122 0.02126 0.84437 0.0
C181 C 0.25819 0.02929 0.88985 0.0
C182 C 0.28095 0.10005 0.79515 0.0
C183 C 0.25776 0.98795 0.83048 0.0
C184 C 0.22827 0.01438 0.68807 0.0
C185 C 0.27215 1.00441 0.68003 0.0
C186 C 0.22718 0.0303 0.72941 0.0
C187 C 0.27091 0.03529 0.76428 0.0
C188 C 0.31566 0.02675 0.75486 0.0
C189 C 0.3157 0.01162 0.71246 0.0
C190 C 0.17887 0.03991 0.73711 0.0
C191 C 0.3635 0.03086 0.79065 0.0
H192 H 0.27665 0.10582 0.88652 0.0
H193 H 0.2527 0.01135 0.91351 0.0
H194 H 0.31581 0.09632 0.78554 0.0
H195 H 0.25179 0.09941 0.76192 0.0
H196 H 0.28157 0.12302 0.8113 0.0
H197 H 0.25471 0.97277 0.86006 0.0
H198 H 0.22569 0.98417 0.80054 0.0
H199 H 0.2903 0.98115 0.81854 0.0
H200 H 0.19462 0.00893 0.66253 0.0
H201 H 0.3496 1.0037 0.70616 0.0
H202 H 0.18111 0.06332 0.75193 0.0
H203 H 0.16862 0.02434 0.76297 0.0
H204 H 0.14971 0.03925 0.70383 0.0
H205 H 0.36204 0.04795 0.8182 0.0
H206 H 0.392 0.03776 0.77279 0.0
H207 H 0.37463 0.00861 0.80805 0.0
C208 C 0.72367 0.97597 0.77416 0.0
C209 C 0.73856 0.99195 0.81695 0.0
C210 C 0.72301 0.98997 0.73081 0.0
C211 C 0.73857 0.02061 0.7301 0.0
C212 C 0.7527 0.03712 0.77303 0.0
C213 C 0.75215 0.02267 0.81594 0.0
C214 C 0.70661 0.97171 0.68581 0.0
C215 C 0.76973 0.06976 0.77377 0.0
C216 C 0.78454 0.04194 0.62264 0.0
C217 C 0.74426 0.05683 0.59405 0.0
C218 C 0.78384 0.03114 0.66779 0.0
C219 C 0.74154 0.03483 0.68447 0.0
C220 C 0.70117 0.05047 0.6562 0.0
C221 C 0.70317 0.06149 0.61156 0.0
C222 C 0.82785 0.01487 0.69702 0.0
C223 C 0.65503 0.05438 0.67215 0.0
H224 H 0.71291 0.95228 0.77452 0.0
H225 H 0.76397 0.03514 0.84883 0.0
H226 H 0.67736 0.98398 0.66032 0.0
H227 H 0.73719 0.96892 0.66896 0.0
H228 H 0.69305 0.94872 0.69219 0.0
H229 H 0.77773 0.07982 0.80978 0.0
H230 H 0.80301 0.0709 0.7606 0.0
H231 H 0.74185 0.08392 0.74982 0.0
H232 H 0.81643 0.03831 0.60942 0.0
H233 H 0.67161 0.07266 0.58954 0.0
H234 H 0.8189 0.99057 0.70134 0.0
H235 H 0.83894 0.02504 0.73286 0.0
H236 H 0.85905 0.01588 0.68061 0.0
H237 H 0.66299 0.06461 0.70797 0.0
H238 H 0.63829 0.03173 0.67434 0.0
H239 H 0.62821 0.06896 0.64764 0.0
C240 C 0.80021 0.01141 0.31863 0.0
C241 C 0.75586 0.01909 0.32804 0.0
C242 C 0.80188 0.99548 0.27751 0.0
C243 C 0.75808 0.98816 0.2442 0.0
C244 C 0.7131 0.99473 0.25463 0.0
C245 C 0.71257 0.00979 0.29696 0.0
C246 C 0.85056 0.98828 0.26841 0.0
C247 C 0.6656 0.98802 0.21956 0.0
C248 C 0.76119 0.99239 0.11573 0.0
C249 C 0.7578 0.96159 0.10202 0.0
C250 C 0.76141 1.0011 0.16179 0.0
C251 C 0.75941 0.97848 0.19575 0.0
C252 C 0.7584 0.94724 0.18306 0.0
C253 C 0.75726 0.93912 0.13613 0.0
C254 C 0.76234 0.03471 0.17367 0.0
C255 C 0.75746 0.92252 0.21874 0.0
H256 H 0.83369 0.01846 0.34305 0.0
H257 H 0.67834 0.01594 0.30437 0.0
H258 H 0.85085 0.96484 0.25418 0.0
H259 H 0.85786 1.0043 0.2416 0.0
H260 H 0.88041 0.99039 0.30098 0.0
H261 H 0.63411 0.99127 0.23509 0.0
H262 H 0.66131 1.0035 0.18872 0.0
H263 H 0.66509 0.96431 0.20625 0.0
H264 H 0.7621 0.01001 0.08994 0.0
H265 H 0.75475 0.91529 0.12598 0.0
H266 H 0.79471 0.04004 0.20255 0.0
H267 H 0.72994 0.04072 0.18639 0.0
H268 H 0.76303 0.04942 0.14288 0.0
H269 H 0.78749 0.92589 0.25077 0.0
H270 H 0.76061 0.89937 0.20435 0.0
H271 H 0.72308 0.92378 0.22997 0.0
C272 C 0.28736 0.0383 0.2308 0.0
C273 C 0.26506 0.02517 0.18693 0.0
C274 C 0.28631 0.02393 0.27341 0.0
C275 C 0.26222 0.99559 0.27253 0.0
C276 C 0.24018 0.98189 0.22845 0.0
C277 C 0.24199 0.99679 0.18613 0.0
C278 C 0.31063 0.03934 0.31945 0.0
C279 C 0.2139 0.95182 0.22601 0.0
C280 C 0.29956 0.95109 0.38764 0.0
C281 C 0.26447 0.9603 0.4111 0.0
C282 C 0.29801 0.96121 0.34162 0.0
C283 C 0.26014 0.98077 0.31807 0.0
C284 C 0.22303 0.98866 0.34041 0.0
C285 C 0.22571 0.97844 0.38664 0.0
C286 C 0.33829 0.95224 0.31914 0.0
C287 C 0.18176 0.00923 0.31645 0.0
H288 H 0.30558 0.06011 0.23197 0.0
H289 H 0.22444 0.98653 0.15248 0.0
H290 H 0.28338 0.04462 0.33959 0.0
H291 H 0.33766 0.02379 0.34151 0.0
H292 H 0.32922 0.06084 0.31407 0.0
H293 H 0.19986 0.94373 0.1891 0.0
H294 H 0.23845 0.93419 0.24621 0.0
H295 H 0.18303 0.95411 0.24259 0.0
H296 H 0.32965 0.93704 0.40601 0.0
H297 H 0.19818 0.98554 0.40417 0.0
H298 H 0.35831 0.97288 0.31273 0.0
H299 H 0.32299 0.94139 0.28433 0.0
H300 H 0.3644 0.93621 0.34152 0.0
H301 H 0.19573 0.03262 0.3137 0.0
H302 H 0.15308 0.01042 0.33612 0.0
H303 H 0.16529 1.00116 0.28001 0.0
C304 C 0.79523 0.47789 0.73407 0.0
C305 C 0.7926 0.4948 0.69283 0.0
C306 C 0.7945 0.49225 0.77672 0.0
C307 C 0.78935 0.52434 0.77793 0.0
C308 C 0.78815 0.54168 0.73663 0.0
C309 C 0.79038 0.52668 0.69454 0.0
C310 C 0.79731 0.47282 0.82001 0.0
C311 C 0.78194 0.57585 0.73629 0.0
C312 C 0.73216 0.54985 0.87618 0.0
C313 C 0.77271 0.55967 0.91062 0.0
C314 C 0.73665 0.54021 0.83154 0.0
C315 C 0.78311 0.53919 0.82202 0.0
C316 C 0.82408 0.54945 0.85677 0.0
C317 C 0.81823 0.56 0.9004 0.0
C318 C 0.69194 0.52994 0.79525 0.0
C319 C 0.87442 0.54759 0.84898 0.0
H320 H 0.79684 0.4532 0.73268 0.0
H321 H 0.78761 0.53971 0.66244 0.0
H322 H 0.8228 0.48296 0.85125 0.0
H323 H 0.76113 0.4718 0.82769 0.0
H324 H 0.80916 0.44915 0.81524 0.0
H325 H 0.78482 0.58622 0.7024 0.0
H326 H 0.74588 0.58148 0.74203 0.0
H327 H 0.80956 0.58638 0.76558 0.0
H328 H 0.69713 0.5493 0.88446 0.0
H329 H 0.84975 0.56696 0.92761 0.0
H330 H 0.69318 0.50488 0.79047 0.0
H331 H 0.69059 0.54067 0.76054 0.0
H332 H 0.65814 0.53566 0.8058 0.0
H333 H 0.88337 0.52348 0.84327 0.0
H334 H 0.90243 0.55675 0.87939 0.0
H335 H 0.87612 0.56044 0.81674 0.0
C336 C 0.30186 0.54598 0.64154 0.0
C337 C 0.26615 0.56382 0.61196 0.0
C338 C 0.29698 0.5365 0.68615 0.0
C339 C 0.25432 0.54388 0.70053 0.0
C340 C 0.21851 0.56234 0.67095 0.0
C341 C 0.22542 0.57266 0.62754 0.0
C342 C 0.33627 0.51714 0.71672 0.0
C343 C 0.17152 0.5696 0.68366 0.0
C344 C 0.22179 0.48449 0.7824 0.0
C345 C 0.23316 0.49954 0.82598 0.0
C346 C 0.22642 0.49907 0.74105 0.0
C347 C 0.24474 0.5293 0.74356 0.0
C348 C 0.25572 0.54481 0.78759 0.0
C349 C 0.24913 0.52984 0.82827 0.0
C350 C 0.21401 0.48089 0.69569 0.0
C351 C 0.27777 0.57631 0.79244 0.0
H352 H 0.33305 0.53882 0.62928 0.0
H353 H 0.19715 0.58585 0.60419 0.0
H354 H 0.34432 0.52489 0.75404 0.0
H355 H 0.32372 0.49313 0.71566 0.0
H356 H 0.37022 0.51779 0.70455 0.0
H357 H 0.14519 0.58124 0.65444 0.0
H358 H 0.15458 0.54838 0.69276 0.0
H359 H 0.17867 0.58456 0.71521 0.0
H360 H 0.21073 0.46077 0.78084 0.0
H361 H 0.2595 0.5411 0.86234 0.0
H362 H 0.24261 0.46353 0.69689 0.0
H363 H 0.21081 0.49498 0.66359 0.0
H364 H 0.17941 0.46839 0.69249 0.0
H365 H 0.31404 0.57529 0.7849 0.0
H366 H 0.28188 0.58589 0.82842 0.0
H367 H 0.25533 0.59211 0.76636 0.0
C368 C 0.22808 0.53515 0.28767 0.0
C369 C 0.25732 0.52374 0.33025 0.0
C370 C 0.22583 0.52081 0.24422 0.0
C371 C 0.25364 0.49425 0.24274 0.0
C372 C 0.2821 0.48196 0.28569 0.0
C373 C 0.28351 0.49679 0.32897 0.0
C374 C 0.19461 0.53469 0.19962 0.0
C375 C 0.31211 0.45364 0.28575 0.0
C376 C 0.2162 0.44962 0.127 0.0
C377 C 0.24768 0.46158 0.10133 0.0
C378 C 0.21913 0.4589 0.17385 0.0
C379 C 0.25446 0.48063 0.19583 0.0
C380 C 0.28772 0.49169 0.17085 0.0
C381 C 0.2839 0.4821 0.12409 0.0
C382 C 0.18287 0.44651 0.19896 0.0
C383 C 0.32602 0.51483 0.19272 0.0
H384 H 0.20718 0.55575 0.28814 0.0
H385 H 0.30626 0.4878 0.36154 0.0
H386 H 0.21774 0.5423 0.17634 0.0
H387 H 0.16899 0.51743 0.17977 0.0
H388 H 0.17344 0.55456 0.20698 0.0
H389 H 0.32953 0.44569 0.32211 0.0
H390 H 0.28922 0.43498 0.26637 0.0
H391 H 0.34084 0.45831 0.2671 0.0
H392 H 0.18801 0.43379 0.10996 0.0
H393 H 0.30868 0.49139 0.1049 0.0
H394 H 0.15722 0.46484 0.2026 0.0
H395 H 0.20143 0.43882 0.2351 0.0
H396 H 0.16172 0.42714 0.17958 0.0
H397 H 0.30844 0.53672 0.19774 0.0
H398 H 0.35177 0.51913 0.17046 0.0
H399 H 0.34676 0.507 0.22807 0.0
C400 C 0.78944 0.53754 0.23076 0.0
C401 C 0.76151 0.52584 0.18779 0.0
C402 C 0.79186 0.5227 0.27384 0.0
C403 C 0.76543 0.49541 0.27449 0.0
C404 C 0.73793 0.48303 0.23121 0.0
C405 C 0.73646 0.49831 0.18832 0.0
C406 C 0.82207 0.53667 0.31889 0.0
C407 C 0.70923 0.45401 0.23036 0.0
C408 C 0.80532 0.44973 0.3888 0.0
C409 C 0.7736 0.46066 0.41492 0.0
C410 C 0.8017 0.45968 0.34218 0.0
C411 C 0.76531 0.48092 0.32091 0.0
C412 C 0.73168 0.49077 0.34624 0.0
C413 C 0.73629 0.48063 0.39282 0.0
C414 C 0.83843 0.44864 0.31661 0.0
C415 C 0.69214 0.51325 0.32501 0.0
H416 H 0.80952 0.55857 0.23083 0.0
H417 H 0.71481 0.48907 0.15539 0.0
H418 H 0.79837 0.54327 0.34215 0.0
H419 H 0.8485 0.51976 0.33846 0.0
H420 H 0.84224 0.5572 0.31215 0.0
H421 H 0.69178 0.44645 0.1938 0.0
H422 H 0.73311 0.4355 0.2488 0.0
H423 H 0.68065 0.45755 0.24959 0.0
H424 H 0.8343 0.43434 0.40541 0.0
H425 H 0.71126 0.48904 0.41239 0.0
H426 H 0.8629 0.46772 0.31309 0.0
H427 H 0.82012 0.44094 0.28041 0.0
H428 H 0.86079 0.42962 0.33558 0.0
H429 H 0.7085 0.53574 0.32082 0.0
H430 H 0.66608 0.51633 0.34729 0.0
H431 H 0.67194 0.50561 0.28936 0.0
C432 C 0.43305 1.00492 0.06131 0.0
C433 C 0.38753 0.01069 0.0314 0.0
C434 C 0.47139 0.99525 0.04258 0.0
C435 C 0.46394 0.99258 0.99285 0.0
C436 C 0.41701 0.99621 0.96304 0.0
C437 C 0.37915 1.00465 0.98293 0.0
C438 C 0.52062 0.99012 0.07565 0.0
C439 C 0.40759 0.99446 0.90991 0.0
C440 C 0.5802 1.00732 0.95569 0.0
C441 C 0.59527 0.97743 0.95116 0.0
C442 C 0.53518 0.01281 0.96573 0.0
C443 C 0.50585 0.98775 0.9722 0.0
C444 C 0.5191 0.95781 0.96298 0.0
C445 C 0.56339 0.95311 0.95188 0.0
C446 C 0.52068 0.04521 0.97289 0.0
C447 C 0.48917 0.93045 0.96956 0.0
H448 H 0.4396 0.01025 0.09861 0.0
H449 H 0.34399 0.00981 0.95985 0.0
H450 H 0.53659 0.96851 0.06677 0.0
H451 H 0.54536 0.00893 0.07165 0.0
H452 H 0.5189 0.98922 0.1132 0.0
H453 H 0.36826 0.99297 0.89259 0.0
H454 H 0.42222 0.0153 0.89689 0.0
H455 H 0.42613 0.97462 0.89877 0.0
H456 H 0.60492 0.02606 0.95519 0.0
H457 H 0.57508 0.92993 0.94788 0.0
H458 H 0.5246 0.04941 0.0111 0.0
H459 H 0.48212 0.04906 0.95448 0.0
H460 H 0.54343 0.06203 0.95975 0.0
H461 H 0.49305 0.92672 0.0079 0.0
H462 H 0.50083 0.90938 0.95438 0.0
H463 H 0.45018 0.93425 0.95305 0.0
C464 C 0.40156 0.99155 0.4883 0.0
C465 C 0.40886 0.9857 0.53663 0.0
C466 C 0.44001 1.00001 0.46962 0.0
C467 C 0.48618 1.00413 0.50059 0.0
C468 C 0.49378 0.99853 0.54969 0.0
C469 C 0.45484 0.9886 0.56713 0.0
C470 C 0.43086 1.00475 0.4169 0.0
C471 C 0.54264 1.0035 0.58365 0.0
C472 C 0.59778 1.00724 0.45362 0.0
C473 C 0.6042 0.03879 0.45111 0.0
C474 C 0.55834 0.99546 0.4683 0.0
C475 C 0.52582 0.01588 0.48176 0.0
C476 C 0.53092 0.04769 0.47722 0.0
C477 C 0.56977 0.05879 0.46116 0.0
C478 C 0.55213 0.96133 0.4706 0.0
C479 C 0.49681 0.07003 0.49158 0.0
H480 H 0.36585 0.98864 0.46479 0.0
H481 H 0.46 0.98357 0.6044 0.0
H482 H 0.42758 0.0295 0.40889 0.0
H483 H 0.46116 0.99574 0.4033 0.0
H484 H 0.39689 0.99342 0.39751 0.0
H485 H 0.5423 0.99809 0.62072 0.0
H486 H 0.57037 0.98909 0.57348 0.0
H487 H 0.55399 0.02761 0.58194 0.0
H488 H 0.62438 0.99186 0.44553 0.0
H489 H 0.57485 0.08325 0.45953 0.0
H490 H 0.51499 0.9547 0.45094 0.0
H491 H 0.5567 0.95414 0.50785 0.0
H492 H 0.57868 0.94871 0.45567 0.0
H493 H 0.45915 0.06591 0.47075 0.0
H494 H 0.50642 0.09412 0.4864 0.0
H495 H 0.49741 0.06665 0.52938 0.0
C496 C 0.93195 0.50922 0.08212 0.0
C497 C 0.88709 0.50879 0.04917 0.0
C498 C 0.97346 0.49869 0.06964 0.0
C499 C 0.96939 0.48826 0.02295 0.0
C500 C 0.92333 0.48537 0.99102 0.0
C501 C 0.88251 0.49565 1.00471 0.0
C502 C 0.02196 0.50122 0.10502 0.0
C503 C 0.91746 0.47444 0.94089 0.0
C504 C 0.07727 0.50081 0.97109 0.0
C505 C 0.09555 0.47119 0.97243 0.0
C506 C 0.03566 0.5067 0.98715 0.0
C507 C 0.01337 0.48253 0.00627 0.0
C508 C 0.0323 0.45275 0.00839 0.0
C509 C 0.07279 0.44737 0.9909 0.0
C510 C 0.01535 0.53865 0.98344 0.0
C511 C 1.00994 0.42662 0.02932 0.0
H512 H 0.93523 0.52008 0.1161 0.0
H513 H 0.84771 0.49626 0.97898 0.0
H514 H 0.04385 0.48035 0.10465 0.0
H515 H 0.04244 0.52073 0.09542 0.0
H516 H 0.01799 0.50494 0.14147 0.0
H517 H 0.92785 0.4931 0.91967 0.0
H518 H 0.94127 0.45468 0.93938 0.0
H519 H 0.87945 0.46778 0.92427 0.0
H520 H 0.09515 0.51915 0.95713 0.0
H521 H 0.08752 0.42447 0.99303 0.0
H522 H 0.01502 0.54725 0.01906 0.0
H523 H 0.97729 0.5385 0.96192 0.0
H524 H 0.03659 0.55474 0.9671 0.0
H525 H 1.00886 0.43218 0.06609 0.0
H526 H 0.0302 0.40495 0.02966 0.0
H527 H 0.972 0.423 0.00879 0.0
C528 C 0.14376 0.50972 0.53696 0.0
C529 C 0.14522 0.51112 0.48944 0.0
C530 C 0.1026 0.4992 0.54959 0.0
C531 C 0.06299 0.48863 0.51384 0.0
C532 C 0.06638 0.48689 0.4663 0.0
C533 C 0.10765 0.49863 0.45442 0.0
C534 C 0.10008 0.50182 0.60053 0.0
C535 C 0.02507 0.47486 0.42767 0.0
C536 C 0.96638 0.44744 0.55729 0.0
C537 C 0.93051 0.47006 0.5527 0.0
C538 C 1.00908 0.45289 0.54343 0.0
C539 C 0.01687 0.48196 0.52608 0.0
C540 C 0.98201 0.50538 0.5233 0.0
C541 C 0.93887 0.49905 0.53628 0.0
C542 C 0.04525 0.42734 0.54628 0.0
C543 C 0.99035 0.53709 0.50667 0.0
H544 H 0.17328 0.51944 0.56386 0.0
H545 H 0.10888 0.50016 0.41769 0.0
H546 H 0.06742 0.51484 0.60298 0.0
H547 H 0.0973 0.47882 0.61542 0.0
H548 H 0.13229 0.51347 0.6228 0.0
H549 H 0.03622 0.47068 0.39438 0.0
H550 H 0.01079 0.45331 0.43891 0.0
H551 H 0.99503 0.49165 0.42031 0.0
H552 H 0.96044 0.42491 0.5701 0.0
H553 H 0.91139 0.51657 0.53271 0.0
H554 H 0.08032 0.43364 0.57071 0.0
H555 H 0.05219 0.42346 0.51101 0.0
H556 H 0.03259 0.40561 0.55874 0.0
H557 H 0.02427 0.5467 0.52936 0.0
H558 H 0.96001 0.55282 0.50741 0.0
H559 H 0.99483 0.53617 0.47006 0.0
C560 C 0.09503 0.05275 0.98846 0.0
C561 C 0.1212 0.05687 0.0357 0.0
C562 C 0.04968 0.03769 0.97652 0.0
C563 C 0.02976 0.02534 0.01248 0.0
C564 C 0.05566 0.02983 0.06039 0.0
C565 C 0.10065 0.04564 0.07138 0.0
C566 C 0.02348 0.0345 0.92507 0.0
C567 C 0.03667 0.01691 0.10013 0.0
C568 C 0.89254 0.0108 0.98443 0.0
C569 C 0.88793 0.97933 0.97395 0.0
C570 C 0.93784 0.0257 0.99676 0.0
C571 C 0.98102 0.00903 0.99983 0.0
C572 C 0.977 0.9772 0.98935 0.0
C573 C 0.93069 0.96284 0.97604 0.0
C574 C 0.9393 0.05962 0.00606 0.0
C575 C 0.0218 0.95823 0.99266 0.0
H576 H 0.11087 0.06069 0.96049 0.0
H577 H 0.12109 0.04764 0.10788 0.0
H578 H 0.01979 0.01003 0.91522 0.0
H579 H 0.98636 0.04402 0.91889 0.0
H580 H 0.04265 0.04633 0.90137 0.0
H581 H 0.06086 0.02205 0.1354 0.0
H582 H 1.00018 0.02628 0.09865 0.0
H583 H 0.03277 0.9918 0.09613 0.0
H584 H 0.86015 0.0242 0.98242 0.0
H585 H 0.92809 0.93864 0.96828 0.0
H586 H 0.95722 0.07147 0.98141 0.0
H587 H 0.961 0.06442 0.04245 0.0
H588 H 0.90259 0.0695 1.00183 0.0
H589 H 0.04181 0.96676 0.96717 0.0
H590 H 0.01317 0.93374 0.98527 0.0
H591 H 0.04638 0.96039 0.02851 0.0
C592 C 0.90332 0.01873 0.45324 0.0
C593 C 0.89812 0.0479 0.4716 0.0
C594 C 0.94722 1.00264 0.46535 0.0
C595 C 0.98803 0.0158 0.4968 0.0
C596 C 0.98384 0.04573 0.5144 0.0
C597 C 0.93892 0.06148 0.5016 0.0
C598 C 0.94951 0.97114 0.44503 0.0
C599 C 0.02661 0.06082 0.54755 0.0
C600 C 0.09081 0.962 0.55983 0.0
C601 C 0.12416 0.96538 0.53208 0.0
C602 C 0.04636 0.9782 0.54887 0.0
C603 C 0.03515 0.9984 0.50949 0.0
C604 C 0.06813 1.00088 0.48058 0.0
C605 C 0.11184 0.98445 0.49218 0.0
C606 C 0.01205 0.97448 0.58031 0.0
C607 C 0.05803 0.02171 0.43806 0.0
H608 H 0.87219 1.00794 0.42984 0.0
H609 H 0.93529 0.08374 0.51643 0.0
H610 H 0.97814 0.97029 0.42537 0.0
H611 H 0.95921 0.95418 0.47404 0.0
H612 H 0.91461 0.9642 0.42072 0.0
H613 H 0.01807 0.08424 0.55749 0.0
H614 H 0.03849 0.04697 0.58017 0.0
H615 H 0.05754 0.06199 0.53087 0.0
H616 H 0.10056 0.9481 0.59145 0.0
H617 H 0.1378 0.9876 0.47099 0.0
H618 H 0.97585 0.96727 0.55902 0.0
H619 H 1.00735 0.99669 0.5968 0.0
H620 H 0.02519 0.95743 0.60874 0.0
H621 H 0.02327 0.01534 0.41314 0.0
H622 H 0.08715 0.02088 0.4189 0.0
H623 H 0.05435 0.04556 0.44933 0.0
C624 C 0.43019 0.46077 0.98703 0.0
C625 C 0.38705 0.4778 0.9775 0.0
C626 C 0.47634 0.47534 1.00055 0.0
C627 C 0.47984 0.50775 1.00435 0.0
C628 C 0.43645 0.52484 0.99484 0.0
C629 C 0.39135 0.50988 0.9819 0.0
C630 C 0.52149 0.45606 0.01057 0.0
C631 C 0.43748 0.55927 0.9975 0.0
C632 C 0.59631 0.54949 0.07189 0.0
C633 C 0.6178 0.55774 0.03527 0.0
C634 C 0.55208 0.53289 0.06263 0.0
C635 C 0.52824 0.52431 0.01557 0.0
C636 C 0.54917 0.53348 0.9785 0.0
C637 C 0.59335 0.54976 0.98876 0.0
C638 C 0.53149 0.52376 0.10344 0.0
C639 C 0.52524 0.52567 0.92773 0.0
H640 H 0.42797 0.43615 0.98411 0.0
H641 H 0.35899 0.52383 0.97468 0.0
H642 H 0.54311 0.46158 0.98489 0.0
H643 H 0.5444 0.4613 0.04633 0.0
H644 H 0.51315 0.43127 0.00839 0.0
H645 H 0.40061 0.56934 0.99025 0.0
H646 H 0.45819 0.5668 0.03303 0.0
H647 H 0.45621 0.5686 0.97148 0.0
H648 H 0.61532 0.5546 0.10804 0.0
H649 H 0.60977 0.55551 0.96014 0.0
H650 H 0.52855 0.49855 0.1047 0.0
H651 H 0.4944 0.53311 0.0984 0.0
H652 H 0.55414 0.53191 0.1379 0.0
H653 H 0.52144 0.50058 0.92356 0.0
H654 H 0.54603 0.53431 0.90289 0.0
H655 H 0.48825 0.53551 0.91758 0.0
C656 C 0.59293 0.45993 0.53331 0.0
C657 C 0.63604 0.47544 0.53301 0.0
C658 C 0.54712 0.47473 0.51911 0.0
C659 C 0.54406 0.50587 0.50456 0.0
C660 C 0.58733 0.5212 0.5031 0.0
C661 C 0.63206 0.50593 0.51678 0.0
C662 C 0.50199 0.45721 0.52055 0.0
C663 C 0.58674 0.5543 0.48853 0.0
C664 C 0.42385 0.54323 0.43722 0.0
C665 C 0.40802 0.55743 0.4738 0.0
C666 C 0.46748 0.52613 0.44658 0.0
C667 C 0.49657 0.52329 0.49362 0.0
C668 C 0.48145 0.53859 0.53028 0.0
C669 C 0.43746 0.55501 0.52005 0.0
C670 C 0.48149 0.51011 0.40628 0.0
C671 C 0.51129 0.5371 0.58076 0.0
H672 H 0.59496 0.43649 0.5454 0.0
H673 H 0.66448 0.51847 0.51547 0.0
H674 H 0.48556 0.46713 0.54785 0.0
H675 H 0.4748 0.45916 0.48612 0.0
H676 H 0.50954 0.43268 0.52871 0.0
H677 H 0.62324 0.56278 0.48764 0.0
H678 H 0.56194 0.55754 0.45305 0.0
H679 H 0.57288 0.56858 0.51366 0.0
H680 H 0.40065 0.5439 0.40167 0.0
H681 H 0.42506 0.56521 0.54876 0.0
H682 H 0.48309 0.48514 0.41269 0.0
H683 H 0.51814 0.51747 0.40415 0.0
H684 H 0.45552 0.51466 0.37175 0.0
H685 H 0.5146 0.51307 0.59305 0.0
H686 H 0.49524 0.55071 0.6051 0.0
H687 H 0.54847 0.54565 0.58305 0.0
C688 C 0.41152 0.10359 0.21054 0.0
C689 C 0.40476 0.11657 0.16548 0.0
C690 C 0.45693 0.10518 0.24403 0.0
C691 C 0.4964 0.12075 0.23271 0.0
C692 C 0.48879 0.13508 0.18792 0.0
C693 C 0.44359 0.13234 0.15475 0.0
C694 C 0.46328 0.08891 0.29069 0.0
C695 C 0.52889 0.15266 0.17441 0.0
C696 C 0.60444 0.14361 0.3346 0.0
C697 C 0.63932 0.12147 0.33197 0.0
C698 C 0.55846 0.14404 0.30216 0.0
C699 C 0.54598 0.1212 0.26678 0.0
C700 C 0.58121 0.09886 0.26382 0.0
C701 C 0.62742 0.0995 0.2959 0.0
C702 C 0.52299 0.16883 0.30609 0.0
C703 C 0.56962 0.07363 0.2276 0.0
H704 H 0.38212 0.09071 0.21865 0.0
H705 H 0.4388 0.14211 0.11979 0.0
H706 H 0.4907 0.07059 0.29359 0.0
H707 H 0.47697 0.10496 0.32036 0.0
H708 H 0.42894 0.07859 0.29483 0.0
H709 H 0.51603 0.16482 0.14023 0.0
H710 H 0.54473 0.16957 0.20223 0.0
H711 H 0.55832 0.13683 0.17144 0.0
H712 H 0.61298 0.16055 0.36246 0.0
H713 H 0.65354 0.08188 0.29405 0.0
H714 H 0.4906 0.15866 0.31475 0.0
H715 H 0.51046 0.18077 0.27172 0.0
H716 H 0.53897 0.18589 0.33369 0.0
H717 H 0.53771 0.06054 0.23209 0.0
H718 H 0.60042 0.05762 0.23042 0.0
H719 H 0.56001 0.08343 0.19148 0.0
C720 C 0.5846 0.87875 0.85546 0.0
C721 C 0.62494 0.894 0.84686 0.0
C722 C 0.53961 0.87819 0.82166 0.0
C723 C 0.53382 0.89422 0.77844 0.0
C724 C 0.57482 0.9091 0.76907 0.0
C725 C 0.6199 0.90847 0.80307 0.0
C726 C 0.49776 0.86131 0.83309 0.0
C727 C 0.57046 0.92717 0.72424 0.0
C728 C 0.42558 0.87777 0.67331 0.0
C729 C 0.39237 0.90062 0.67762 0.0
C730 C 0.47099 0.87503 0.70624 0.0
C731 C 0.48466 0.8962 0.74393 0.0
C732 C 0.4511 0.91923 0.74866 0.0
C733 C 0.40533 0.92091 0.71593 0.0
C734 C 0.50453 0.8495 0.70046 0.0
C735 C 0.46404 0.9427 0.78759 0.0
H736 H 0.5879 0.86794 0.88951 0.0
H737 H 0.65036 0.92107 0.79668 0.0
H738 H 0.47044 0.87789 0.83888 0.0
H739 H 0.4797 0.84648 0.80308 0.0
H740 H 0.50946 0.84701 0.8653 0.0
H741 H 0.60575 0.93683 0.72158 0.0
H742 H 0.55593 0.91256 0.69293 0.0
H743 H 0.54446 0.94618 0.7229 0.0
H744 H 0.41611 0.862 0.64388 0.0
H745 H 0.38043 0.93898 0.71923 0.0
H746 H 0.51514 0.83599 0.73356 0.0
H747 H 0.5382 0.85907 0.69369 0.0
H748 H 0.4877 0.83394 0.67092 0.0
H749 H 0.47199 0.93134 0.82259 0.0
H750 H 0.43456 0.95956 0.78593 0.0
H751 H 0.49732 0.95511 0.7852 0.0
C752 C 0.93356 0.58726 0.18268 0.0
C753 C 0.89948 0.61102 0.1727 0.0
C754 C 0.97686 0.58991 0.21803 0.0
C755 C 0.98735 0.6173 0.24423 0.0
C756 C 0.95298 0.64146 0.23468 0.0
C757 C 0.90916 0.63795 0.19929 0.0
C758 C 0.01135 0.56316 0.22738 0.0
C759 C 0.96291 0.67115 0.26138 0.0
C760 C 0.07629 0.60694 0.36414 0.0
C761 C 0.12127 0.61419 0.35493 0.0
C762 C 0.03255 0.60927 0.3292 0.0
C763 C 0.03295 0.61941 0.28334 0.0
C764 C 0.07782 0.62808 0.2741 0.0
C765 C 0.12143 0.62528 0.30988 0.0
C766 C 0.9861 0.59924 0.34086 0.0
C767 C 0.07997 0.63919 0.22582 0.0
H768 H 0.92623 0.56629 0.1625 0.0
H769 H 0.88337 0.65654 0.1914 0.0
H770 H 0.04699 0.57 0.22179 0.0
H771 H 0.01746 0.55573 0.26471 0.0
H772 H 0.9976 0.54337 0.20415 0.0
H773 H 0.93336 0.688 0.24916 0.0
H774 H 0.96743 0.66703 0.29969 0.0
H775 H 0.99734 0.68114 0.25704 0.0
H776 H 0.07511 0.59849 0.3987 0.0
H777 H 0.15567 0.63097 0.30215 0.0
H778 H 0.9721 0.57841 0.3204 0.0
H779 H 0.95795 0.61713 0.33062 0.0
H780 H 0.99124 0.59415 0.37904 0.0
H781 H 0.07217 0.61997 0.20036 0.0
H782 H 0.11607 0.64876 0.22578 0.0
H783 H 0.05198 0.6569 0.21303 0.0
C784 C 0.9285 0.37424 0.66741 0.0
C785 C 0.89168 0.39338 0.67536 0.0
C786 C 0.97493 0.37306 0.69932 0.0
C787 C 0.9859 0.39193 0.74014 0.0
C788 C 0.94869 0.41103 0.74863 0.0
C789 C 0.90232 0.41133 0.7166 0.0
C790 C 0.01263 0.35188 0.68883 0.0
C791 C 0.95827 0.432 0.79091 0.0
C792 C 0.09392 0.37506 0.84632 0.0
C793 C 0.13005 0.39502 0.8389 0.0
C794 C 0.04776 0.37318 0.81405 0.0
C795 C 0.0363 0.39218 0.77339 0.0
C796 C 0.07288 0.41204 0.7653 0.0
C797 C 0.11903 0.41302 0.7977 0.0
C798 C 0.01082 0.35115 0.82402 0.0
C799 C 0.06277 0.43313 0.72313 0.0
H800 H 0.92126 0.36038 0.63572 0.0
H801 H 0.87484 0.42663 0.72308 0.0
H802 H 0.04291 0.36539 0.68159 0.0
H803 H 0.02797 0.33727 0.71998 0.0
H804 H 0.99764 0.33699 0.65788 0.0
H805 H 0.92562 0.44521 0.79305 0.0
H806 H 0.9708 0.41866 0.82395 0.0
H807 H 0.98763 0.44826 0.7891 0.0
H808 H 0.10147 0.36108 0.8779 0.0
H809 H 0.14594 0.42889 0.79162 0.0
H810 H 0.99656 0.33642 0.79277 0.0
H811 H 0.9797 0.36396 0.83084 0.0
H812 H 0.02613 0.3364 0.85505 0.0
H813 H 0.0507 0.41984 0.68999 0.0
H814 H 0.09504 0.44684 0.72117 0.0
H815 H 0.0329 0.44894 0.72497 0.0
C816 C 0.22317 0.19648 0.02259 0.0
C817 C 0.26689 0.18022 0.03492 0.0
C818 C 0.22274 0.22815 0.01239 0.0
C819 C 0.26703 0.24402 0.01537 0.0
C820 C 0.31108 0.22773 0.02898 0.0
C821 C 0.31043 0.19634 0.03827 0.0
C822 C 0.17489 0.24458 0.99775 0.0
C823 C 0.35928 0.24345 0.03367 0.0
C824 C 0.27243 0.31954 0.9503 0.0
C825 C 0.27474 0.34121 0.98622 0.0
C826 C 0.26883 0.28801 0.95899 0.0
C827 C 0.26808 0.27763 1.00485 0.0
C828 C 0.27171 0.29936 0.04147 0.0
C829 C 0.2747 0.3307 0.03171 0.0
C830 C 0.26505 0.26578 0.91881 0.0
C831 C 0.27217 0.28953 0.09111 0.0
H832 H 0.1894 0.18438 0.01978 0.0
H833 H 0.34468 0.18431 0.04847 0.0
H834 H 0.17403 0.26366 0.02245 0.0
H835 H 0.17058 0.25465 0.96209 0.0
H836 H 0.14369 0.22922 0.99704 0.0
H837 H 0.39042 0.22767 0.04556 0.0
H838 H 0.36099 0.25342 0.99923 0.0
H839 H 0.3633 0.26249 0.05936 0.0
H840 H 0.27148 0.32728 0.91485 0.0
H841 H 0.27616 0.34714 0.05973 0.0
H842 H 0.2315 0.252 0.91414 0.0
H843 H 0.29606 0.24972 0.92716 0.0
H844 H 0.26461 0.27741 0.88492 0.0
H845 H 0.2387 0.27657 0.09101 0.0
H846 H 0.27485 0.30919 0.11561 0.0
H847 H 0.30326 0.27407 0.10497 0.0
C848 C 0.72609 0.19196 0.49047 0.0
C849 C 0.76844 0.1798 0.4812 0.0
C850 C 0.7214 0.22325 0.49866 0.0
C851 C 0.76055 0.24321 0.49906 0.0
C852 C 0.80363 0.23113 0.48986 0.0
C853 C 0.80675 0.19964 0.48017 0.0
C854 C 0.67421 0.23496 0.50659 0.0
C855 C 0.84667 0.25142 0.49099 0.0
C856 C 0.73574 0.32891 0.48271 0.0
C857 C 0.74644 0.33948 0.52953 0.0
C858 C 0.73951 0.29773 0.4723 0.0
C859 C 0.75609 0.27654 0.50951 0.0
C860 C 0.76664 0.28709 0.55689 0.0
C861 C 0.76105 0.31826 0.56631 0.0
C862 C 0.72616 0.28751 0.42138 0.0
C863 C 0.78531 0.26559 0.5977 0.0
H864 H 0.69584 0.17692 0.49042 0.0
H865 H 0.83945 0.19045 0.47291 0.0
H866 H 0.68039 0.24496 0.54245 0.0
H867 H 0.65963 0.25335 0.48088 0.0
H868 H 0.64642 0.21673 0.50292 0.0
H869 H 0.87787 0.23855 0.48433 0.0
H870 H 0.83652 0.26964 0.46401 0.0
H871 H 0.85824 0.26278 0.52594 0.0
H872 H 0.72501 0.3452 0.45409 0.0
H873 H 0.77066 0.32627 0.60255 0.0
H874 H 0.69846 0.26917 0.41635 0.0
H875 H 0.7584 0.27786 0.41183 0.0
H876 H 0.71175 0.30649 0.3967 0.0
H877 H 0.75828 0.2474 0.59784 0.0
H878 H 0.79333 0.27745 0.63238 0.0
H879 H 0.81885 0.25428 0.59361 0.0
C880 C 0.80801 0.8266 0.018 0.0
C881 C 0.77721 0.83908 0.97733 0.0
C882 C 0.80642 0.7951 0.02823 0.0
C883 C 0.77262 0.77572 0.99753 0.0
C884 C 0.74232 0.78828 0.95588 0.0
C885 C 0.74499 0.81964 0.94643 0.0
C886 C 0.83984 0.78272 0.0727 0.0
C887 C 0.70573 0.76882 0.92203 0.0
C888 C 0.79536 0.68983 1.00016 0.0
C889 C 0.76503 0.67859 0.02777 0.0
C890 C 0.79809 0.72107 0.99031 0.0
C891 C 0.76959 0.7422 0.00809 0.0
C892 C 0.73775 0.7311 0.03488 0.0
C893 C 0.73581 0.69947 0.04441 0.0
C894 C 0.83225 0.73151 0.96133 0.0
C895 C 0.70632 0.75274 0.05417 0.0
H896 H 0.83176 0.84166 0.04282 0.0
H897 H 0.72002 0.82938 0.9157 0.0
H898 H 0.8182 0.77379 0.09652 0.0
H899 H 0.86122 0.7634 0.06401 0.0
H900 H 0.86524 0.80034 0.09196 0.0
H901 H 0.68541 0.78191 0.89081 0.0
H902 H 0.7241 0.74938 0.90952 0.0
H903 H 0.67944 0.75912 0.94043 0.0
H904 H 0.81797 0.67407 0.98667 0.0
H905 H 0.71255 0.69125 0.06599 0.0
H906 H 0.85915 0.74774 0.98216 0.0
H907 H 0.81185 0.74379 0.92936 0.0
H908 H 0.85201 0.71224 0.95004 0.0
H909 H 0.72943 0.76925 0.07855 0.0
H910 H 0.68282 0.74066 0.07348 0.0
H911 H 0.68303 0.76608 0.02492 0.0
C912 C 0.30772 0.69652 0.49306 0.0
C913 C 0.26381 0.68051 0.47949 0.0
C914 C 0.30835 0.72806 0.50406 0.0
C915 C 0.2641 0.74396 0.50077 0.0
C916 C 0.21988 0.72793 0.48579 0.0
C917 C 0.22033 0.6967 0.47558 0.0
C918 C 0.35632 0.74428 0.51999 0.0
C919 C 0.17175 0.74374 0.48081 0.0
C920 C 0.25746 0.81859 0.56735 0.0
C921 C 0.25532 0.84058 0.53194 0.0
C922 C 0.2616 0.78721 0.55809 0.0
C923 C 0.26319 0.77738 0.51218 0.0
C924 C 0.26005 0.79945 0.47614 0.0
C925 C 0.25634 0.8306 0.48644 0.0
C926 C 0.26471 0.76453 0.59758 0.0
C927 C 0.26059 0.79018 0.42651 0.0
H928 H 0.34143 0.6843 0.4964 0.0
H929 H 0.186 0.68481 0.46446 0.0
H930 H 0.35773 0.76383 0.49627 0.0
H931 H 0.36025 0.75365 0.55602 0.0
H932 H 0.38745 0.72895 0.52042 0.0
H933 H 0.14051 0.72813 0.46802 0.0
H934 H 0.16956 0.75328 0.51538 0.0
H935 H 0.16835 0.76309 0.45573 0.0
H936 H 0.25755 0.82596 0.60278 0.0
H937 H 0.25489 0.8473 0.45876 0.0
H938 H 0.29811 0.75066 0.60223 0.0
H939 H 0.2335 0.7486 0.58848 0.0
H940 H 0.2649 0.77578 0.63169 0.0
H941 H 0.2939 0.77699 0.42696 0.0
H942 H 0.25902 0.81013 0.40271 0.0
H943 H 0.22925 0.7751 0.41153 0.0
loop_
_geom_bond_atom_site_label_1
_geom_bond_atom_site_label_2
_geom_bond_distance
_geom_bond_site_symmetry_2
_ccdc_geom_bond_type
Fe0 O2 1.918 . S
Fe0 O5 1.997 . S
Fe0 O6 2.002 . S
Fe0 O11 1.976 . S
Fe0 O14 1.996 . S
Fe1 O2 1.918 . S
Fe1 O9 1.997 . S
Fe1 O12 1.996 . S
Fe1 O16 1.976 1_554 S
Fe1 O19 2.002 . S
O2 Fe0 1.918 . S
O2 Fe1 1.918 . S
O2 Fe3 1.918 . S
Fe3 O2 1.918 . S
Fe3 O4 2.002 . S
Fe3 O13 1.976 . S
Fe3 O17 1.996 1_554 S
Fe3 O20 1.997 . S
O4 Fe3 2.002 . S
O4 C21 1.295 . S
O5 Fe0 1.997 . S
O5 C21 1.235 . S
O6 Fe0 2.002 . S
O6 C7 1.295 . S
C7 O6 1.295 . S
C7 O9 1.235 . S
C8 O13 1.287 . S
C8 O14 1.255 . S
O9 Fe1 1.997 . S
O9 C7 1.235 . S
C10 O16 1.287 . S
C10 O17 1.255 . S
O11 Fe0 1.976 . S
O11 C18 1.287 . S
O12 Fe1 1.996 . S
O12 C18 1.255 . S
O13 Fe3 1.976 . S
O13 C8 1.287 . S
O14 Fe0 1.996 . S
O14 C8 1.255 . S
C15 O19 1.295 . S
C15 O20 1.235 . S
O16 Fe1 1.976 1_556 S
O16 C10 1.287 . S
O17 Fe3 1.996 1_556 S
O17 C10 1.255 . S
C18 O11 1.287 . S
C18 O12 1.255 . S
O19 Fe1 2.002 . S
O19 C15 1.295 . S
O20 Fe3 1.997 . S
O20 C15 1.235 . S
C21 O4 1.295 . S
C21 O5 1.235 . S
Fe22 O24 1.918 . S
Fe22 O27 1.997 . S
Fe22 O28 2.002 . S
Fe22 O33 1.976 . S
Fe22 O36 1.996 . S
Fe23 O24 1.918 . S
Fe23 O31 1.997 . S
Fe23 O34 1.996 . S
Fe23 O38 1.976 . S
Fe23 O41 2.002 . S
O24 Fe22 1.918 . S
O24 Fe23 1.918 . S
O24 Fe25 1.918 . S
Fe25 O24 1.918 . S
Fe25 O26 2.002 . S
Fe25 O35 1.976 . S
Fe25 O39 1.996 . S
Fe25 O42 1.997 . S
O26 Fe25 2.002 . S
O26 C43 1.295 . S
O27 Fe22 1.997 . S
O27 C43 1.235 . S
O28 Fe22 2.002 . S
O28 C29 1.295 . S
C29 O28 1.295 . S
C29 O31 1.235 . S
C30 O35 1.287 . S
C30 O36 1.255 . S
O31 Fe23 1.997 . S
O31 C29 1.235 . S
C32 O38 1.287 . S
C32 O39 1.255 . S
O33 Fe22 1.976 . S
O33 C40 1.287 . S
O34 Fe23 1.996 . S
O34 C40 1.255 . S
O35 Fe25 1.976 . S
O35 C30 1.287 . S
O36 Fe22 1.996 . S
O36 C30 1.255 . S
C37 O41 1.295 . S
C37 O42 1.235 . S
O38 Fe23 1.976 . S
O38 C32 1.287 . S
O39 Fe25 1.996 . S
O39 C32 1.255 . S
C40 O33 1.287 . S
C40 O34 1.255 . S
O41 Fe23 2.002 . S
O41 C37 1.295 . S
O42 Fe25 1.997 . S
O42 C37 1.235 . S
C43 O26 1.295 . S
C43 O27 1.235 . S
Fe44 O46 1.918 . S
Fe44 O49 1.997 . S
Fe44 O50 2.002 . S
Fe44 O55 1.976 . S
Fe44 O58 1.996 1_556 S
Fe45 O46 1.918 . S
Fe45 O53 1.997 . S
Fe45 O56 1.996 . S
Fe45 O60 1.976 . S
Fe45 O63 2.002 . S
O46 Fe44 1.918 . S
O46 Fe45 1.918 . S
O46 Fe47 1.918 . S
Fe47 O46 1.918 . S
Fe47 O48 2.002 . S
Fe47 O57 1.976 1_556 S
Fe47 O61 1.996 . S
Fe47 O64 1.997 . S
O48 Fe47 2.002 . S
O48 C65 1.295 . S
O49 Fe44 1.997 . S
O49 C65 1.235 . S
O50 Fe44 2.002 . S
O50 C51 1.295 . S
C51 O50 1.295 . S
C51 O53 1.235 . S
C52 O57 1.287 . S
C52 O58 1.255 . S
O53 Fe45 1.997 . S
O53 C51 1.235 . S
C54 O60 1.287 . S
C54 O61 1.255 . S
O55 Fe44 1.976 . S
O55 C62 1.287 . S
O56 Fe45 1.996 . S
O56 C62 1.255 . S
O57 Fe47 1.976 1_554 S
O57 C52 1.287 . S
O58 Fe44 1.996 1_554 S
O58 C52 1.255 . S
C59 O63 1.295 . S
C59 O64 1.235 . S
O60 Fe45 1.976 . S
O60 C54 1.287 . S
O61 Fe47 1.996 . S
O61 C54 1.255 . S
C62 O55 1.287 . S
C62 O56 1.255 . S
O63 Fe45 2.002 . S
O63 C59 1.295 . S
O64 Fe47 1.997 . S
O64 C59 1.235 . S
C65 O48 1.295 . S
C65 O49 1.235 . S
Fe66 O68 1.918 . S
Fe66 O71 1.997 . S
Fe66 O72 2.002 . S
Fe66 O77 1.976 . S
Fe66 O80 1.996 . S
Fe67 O68 1.918 . S
Fe67 O75 1.997 . S
Fe67 O78 1.996 . S
Fe67 O82 1.976 . S
Fe67 O85 2.002 . S
O68 Fe66 1.918 . S
O68 Fe67 1.918 . S
O68 Fe69 1.918 . S
Fe69 O68 1.918 . S
Fe69 O70 2.002 . S
Fe69 O79 1.976 . S
Fe69 O83 1.996 . S
Fe69 O86 1.997 . S
O70 Fe69 2.002 . S
O70 C87 1.295 . S
O71 Fe66 1.997 . S
O71 C87 1.235 . S
O72 Fe66 2.002 . S
O72 C73 1.295 . S
C73 O72 1.295 . S
C73 O75 1.235 . S
C74 O79 1.287 . S
C74 O80 1.255 . S
O75 Fe67 1.997 . S
O75 C73 1.235 . S
C76 O82 1.287 . S
C76 O83 1.255 . S
O77 Fe66 1.976 . S
O77 C84 1.287 . S
O78 Fe67 1.996 . S
O78 C84 1.255 . S
O79 Fe69 1.976 . S
O79 C74 1.287 . S
O80 Fe66 1.996 . S
O80 C74 1.255 . S
C81 O85 1.295 . S
C81 O86 1.235 . S
O82 Fe67 1.976 . S
O82 C76 1.287 . S
O83 Fe69 1.996 . S
O83 C76 1.255 . S
C84 O77 1.287 . S
C84 O78 1.255 . S
O85 Fe67 2.002 . S
O85 C81 1.295 . S
O86 Fe69 1.997 . S
O86 C81 1.235 . S
C87 O70 1.295 . S
C87 O71 1.235 . S
Fe88 O90 1.918 . S
Fe88 O93 1.997 . S
Fe88 O94 2.002 . S
Fe88 O99 1.976 . S
Fe88 O102 1.996 . S
Fe89 O90 1.918 . S
Fe89 O97 1.997 . S
Fe89 O100 1.996 . S
Fe89 O104 1.976 1_554 S
Fe89 O107 2.002 . S
O90 Fe88 1.918 . S
O90 Fe89 1.918 . S
O90 Fe91 1.918 . S
Fe91 O90 1.918 . S
Fe91 O92 2.002 . S
Fe91 O101 1.976 . S
Fe91 O105 1.996 1_554 S
Fe91 O108 1.997 . S
O92 Fe91 2.002 . S
O92 C109 1.295 . S
O93 Fe88 1.997 . S
O93 C109 1.235 . S
O94 Fe88 2.002 . S
O94 C95 1.295 . S
C95 O94 1.295 . S
C95 O97 1.235 . S
C96 O101 1.287 . S
C96 O102 1.255 . S
O97 Fe89 1.997 . S
O97 C95 1.235 . S
C98 O104 1.287 . S
C98 O105 1.255 . S
O99 Fe88 1.976 . S
O99 C106 1.287 . S
O100 Fe89 1.996 . S
O100 C106 1.255 . S
O101 Fe91 1.976 . S
O101 C96 1.287 . S
O102 Fe88 1.996 . S
O102 C96 1.255 . S
C103 O107 1.295 . S
C103 O108 1.235 . S
O104 Fe89 1.976 1_556 S
O104 C98 1.287 . S
O105 Fe91 1.996 1_556 S
O105 C98 1.255 . S
C106 O99 1.287 . S
C106 O100 1.255 . S
O107 Fe89 2.002 . S
O107 C103 1.295 . S
O108 Fe91 1.997 . S
O108 C103 1.235 . S
C109 O92 1.295 . S
C109 O93 1.235 . S
Fe110 O112 1.918 . S
Fe110 O115 1.997 . S
Fe110 O116 2.002 . S
Fe110 O121 1.976 . S
Fe110 O124 1.996 . S
Fe111 O112 1.918 . S
Fe111 O119 1.997 . S
Fe111 O122 1.996 . S
Fe111 O126 1.976 . S
Fe111 O129 2.002 . S
O112 Fe110 1.918 . S
O112 Fe111 1.918 . S
O112 Fe113 1.918 . S
Fe113 O112 1.918 . S
Fe113 O114 2.002 . S
Fe113 O123 1.976 . S
Fe113 O127 1.996 . S
Fe113 O130 1.997 . S
O114 Fe113 2.002 . S
O114 C131 1.295 . S
O115 Fe110 1.997 . S
O115 C131 1.235 . S
O116 Fe110 2.002 . S
O116 C117 1.295 . S
C117 O116 1.295 . S
C117 O119 1.235 . S
C118 O123 1.287 . S
C118 O124 1.255 . S
O119 Fe111 1.997 . S
O119 C117 1.235 . S
C120 O126 1.287 . S
C120 O127 1.255 . S
O121 Fe110 1.976 . S
O121 C128 1.287 . S
O122 Fe111 1.996 . S
O122 C128 1.255 . S
O123 Fe113 1.976 . S
O123 C118 1.287 . S
O124 Fe110 1.996 . S
O124 C118 1.255 . S
C125 O129 1.295 . S
C125 O130 1.235 . S
O126 Fe111 1.976 . S
O126 C120 1.287 . S
O127 Fe113 1.996 . S
O127 C120 1.255 . S
C128 O121 1.287 . S
C128 O122 1.255 . S
O129 Fe111 2.002 . S
O129 C125 1.295 . S
O130 Fe113 1.997 . S
O130 C125 1.235 . S
C131 O114 1.295 . S
C131 O115 1.235 . S
Fe132 O134 1.918 . S
Fe132 O137 1.997 . S
Fe132 O138 2.002 . S
Fe132 O143 1.976 . S
Fe132 O146 1.996 1_556 S
Fe133 O134 1.918 . S
Fe133 O141 1.997 . S
Fe133 O144 1.996 . S
Fe133 O148 1.976 . S
Fe133 O151 2.002 . S
O134 Fe132 1.918 . S
O134 Fe133 1.918 . S
O134 Fe135 1.918 . S
Fe135 O134 1.918 . S
Fe135 O136 2.002 . S
Fe135 O145 1.976 1_556 S
Fe135 O149 1.996 . S
Fe135 O152 1.997 . S
O136 Fe135 2.002 . S
O136 C153 1.295 . S
O137 Fe132 1.997 . S
O137 C153 1.235 . S
O138 Fe132 2.002 . S
O138 C139 1.295 . S
C139 O138 1.295 . S
C139 O141 1.235 . S
C140 O145 1.287 . S
C140 O146 1.255 . S
O141 Fe133 1.997 . S
O141 C139 1.235 . S
C142 O148 1.287 . S
C142 O149 1.255 . S
O143 Fe132 1.976 . S
O143 C150 1.287 . S
O144 Fe133 1.996 . S
O144 C150 1.255 . S
O145 Fe135 1.976 1_554 S
O145 C140 1.287 . S
O146 Fe132 1.996 1_554 S
O146 C140 1.255 . S
C147 O151 1.295 . S
C147 O152 1.235 . S
O148 Fe133 1.976 . S
O148 C142 1.287 . S
O149 Fe135 1.996 . S
O149 C142 1.255 . S
C150 O143 1.287 . S
C150 O144 1.255 . S
O151 Fe133 2.002 . S
O151 C147 1.295 . S
O152 Fe135 1.997 . S
O152 C147 1.235 . S
C153 O136 1.295 . S
C153 O137 1.235 . S
Fe154 O156 1.918 . S
Fe154 O159 1.997 . S
Fe154 O160 2.002 . S
Fe154 O165 1.976 . S
Fe154 O168 1.996 . S
Fe155 O156 1.918 . S
Fe155 O163 1.997 . S
Fe155 O166 1.996 . S
Fe155 O170 1.976 . S
Fe155 O173 2.002 . S
O156 Fe154 1.918 . S
O156 Fe155 1.918 . S
O156 Fe157 1.918 . S
Fe157 O156 1.918 . S
Fe157 O158 2.002 . S
Fe157 O167 1.976 . S
Fe157 O171 1.996 . S
Fe157 O174 1.997 . S
O158 Fe157 2.002 . S
O158 C175 1.295 . S
O159 Fe154 1.997 . S
O159 C175 1.235 . S
O160 Fe154 2.002 . S
O160 C161 1.295 . S
C161 O160 1.295 . S
C161 O163 1.235 . S
C162 O167 1.287 . S
C162 O168 1.255 . S
O163 Fe155 1.997 . S
O163 C161 1.235 . S
C164 O170 1.287 . S
C164 O171 1.255 . S
O165 Fe154 1.976 . S
O165 C172 1.287 . S
O166 Fe155 1.996 . S
O166 C172 1.255 . S
O167 Fe157 1.976 . S
O167 C162 1.287 . S
O168 Fe154 1.996 . S
O168 C162 1.255 . S
C169 O173 1.295 . S
C169 O174 1.235 . S
O170 Fe155 1.976 . S
O170 C164 1.287 . S
O171 Fe157 1.996 . S
O171 C164 1.255 . S
C172 O165 1.287 . S
C172 O166 1.255 . S
O173 Fe155 2.002 . S
O173 C169 1.295 . S
O174 Fe157 1.997 . S
O174 C169 1.235 . S
C175 O158 1.295 . S
C175 O159 1.235 . S
C176 C177 1.391 . S
C176 C178 1.394 . S
C176 H192 0.931 . S
C177 C176 1.391 . S
C177 C181 1.376 . S
C178 C176 1.394 . S
C178 C179 1.369 . S
C178 C182 1.531 . S
C179 C178 1.369 . S
C179 C180 1.410 . S
C179 C187 1.503 . S
C180 C179 1.410 . S
C180 C181 1.392 . S
C180 C183 1.511 1_545 S
C181 C177 1.376 . S
C181 C180 1.392 . S
C181 H193 0.929 . S
C182 C178 1.531 . S
C182 H194 0.960 . S
C182 H195 0.962 . S
C182 H196 0.960 . S
C183 C180 1.511 1_565 S
C183 H197 0.961 . S
C183 H198 0.961 . S
C183 H199 0.961 . S
C184 C185 1.370 . S
C184 C186 1.375 . S
C184 H200 0.931 . S
C185 C184 1.370 . S
C185 C189 1.408 1_565 S
C186 C184 1.375 . S
C186 C187 1.355 1_565 S
C186 C190 1.528 . S
C187 C179 1.503 . S
C187 C186 1.355 1_545 S
C187 C188 1.403 . S
C188 C187 1.403 . S
C188 C189 1.404 . S
C188 C191 1.539 . S
C189 C185 1.408 1_545 S
C189 C188 1.404 . S
C189 H201 0.930 . S
C190 C186 1.528 . S
C190 H202 0.956 1_565 S
C190 H203 0.961 . S
C190 H204 0.961 . S
C191 C188 1.539 . S
C191 H205 0.958 . S
C191 H206 0.961 . S
C191 H207 0.960 . S
H192 C176 0.931 . S
H193 C181 0.929 . S
H194 C182 0.960 . S
H195 C182 0.962 . S
H196 C182 0.960 . S
H197 C183 0.961 . S
H198 C183 0.961 . S
H199 C183 0.961 . S
H200 C184 0.931 . S
H201 C189 0.930 . S
H202 C190 0.956 1_545 S
H203 C190 0.961 . S
H204 C190 0.961 . S
H205 C191 0.958 . S
H206 C191 0.961 . S
H207 C191 0.960 . S
C208 C209 1.391 . S
C208 C210 1.394 . S
C208 H224 0.931 . S
C209 C208 1.391 . S
C209 C213 1.374 . S
C210 C208 1.394 . S
C210 C211 1.369 1_565 S
C210 C214 1.531 . S
C211 C210 1.369 1_545 S
C211 C212 1.410 . S
C211 C219 1.503 . S
C212 C211 1.410 . S
C212 C213 1.394 1_545 S
C212 C215 1.511 . S
C213 C209 1.374 . S
C213 C212 1.394 1_565 S
C213 H225 0.929 1_565 S
C214 C210 1.531 . S
C214 H226 0.960 . S
C214 H227 0.962 1_565 S
C214 H228 0.960 . S
C215 C212 1.511 . S
C215 H229 0.961 . S
C215 H230 0.961 . S
C215 H231 0.961 . S
C216 C217 1.370 . S
C216 C218 1.363 . S
C216 H232 0.931 . S
C217 C216 1.370 . S
C217 C221 1.408 . S
C218 C216 1.363 . S
C218 C219 1.370 . S
C218 C222 1.524 . S
C219 C211 1.503 . S
C219 C218 1.370 . S
C219 C220 1.403 . S
C220 C219 1.403 . S
C220 C221 1.404 . S
C220 C223 1.539 1_545 S
C221 C217 1.408 . S
C221 C220 1.404 . S
C221 H233 0.930 . S
C222 C218 1.524 . S
C222 H234 0.956 . S
C222 H235 0.961 . S
C222 H236 0.961 . S
C223 C220 1.539 1_565 S
C223 H237 0.958 . S
C223 H238 0.961 . S
C223 H239 0.960 . S
H224 C208 0.931 . S
H225 C213 0.929 1_545 S
H226 C214 0.960 . S
H227 C214 0.962 1_545 S
H228 C214 0.960 . S
H229 C215 0.961 . S
H230 C215 0.961 . S
H231 C215 0.961 . S
H232 C216 0.931 . S
H233 C221 0.930 . S
H234 C222 0.956 . S
H235 C222 0.961 . S
H236 C222 0.961 . S
H237 C223 0.958 . S
H238 C223 0.961 . S
H239 C223 0.960 . S
C240 C241 1.391 . S
C240 C242 1.394 1_545 S
C240 H256 0.931 . S
C241 C240 1.391 . S
C241 C245 1.376 1_545 S
C242 C240 1.394 1_565 S
C242 C243 1.369 . S
C242 C246 1.531 . S
C243 C242 1.369 . S
C243 C244 1.410 . S
C243 C251 1.503 . S
C244 C243 1.410 . S
C244 C245 1.393 . S
C244 C247 1.511 . S
C245 C241 1.376 1_565 S
C245 C244 1.393 . S
C245 H257 0.929 1_565 S
C246 C242 1.531 . S
C246 H258 0.960 . S
C246 H259 0.962 1_565 S
C246 H260 0.960 . S
C247 C244 1.511 . S
C247 H261 0.961 . S
C247 H262 0.961 . S
C247 H263 0.961 . S
C248 C249 1.370 . S
C248 C250 1.363 . S
C248 H264 0.931 . S
C249 C248 1.370 . S
C249 C253 1.408 . S
C250 C248 1.363 . S
C250 C251 1.370 . S
C250 C254 1.524 1_565 S
C251 C243 1.503 . S
C251 C250 1.370 . S
C251 C252 1.403 . S
C252 C251 1.403 . S
C252 C253 1.404 . S
C252 C255 1.539 . S
C253 C249 1.408 . S
C253 C252 1.404 . S
C253 H265 0.930 . S
C254 C250 1.524 1_545 S
C254 H266 0.956 . S
C254 H267 0.961 . S
C254 H268 0.961 . S
C255 C252 1.539 . S
C255 H269 0.958 . S
C255 H270 0.961 . S
C255 H271 0.960 . S
H256 C240 0.931 . S
H257 C245 0.929 1_545 S
H258 C246 0.960 . S
H259 C246 0.962 1_545 S
H260 C246 0.960 . S
H261 C247 0.961 . S
H262 C247 0.961 . S
H263 C247 0.961 . S
H264 C248 0.931 . S
H265 C253 0.930 . S
H266 C254 0.956 . S
H267 C254 0.961 . S
H268 C254 0.961 . S
H269 C255 0.958 . S
H270 C255 0.961 . S
H271 C255 0.960 . S
C272 C273 1.391 . S
C272 C274 1.394 . S
C272 H288 0.931 . S
C273 C272 1.391 . S
C273 C277 1.376 1_545 S
C274 C272 1.394 . S
C274 C275 1.369 1_545 S
C274 C278 1.531 . S
C275 C274 1.369 1_565 S
C275 C276 1.410 . S
C275 C283 1.503 . S
C276 C275 1.410 . S
C276 C277 1.392 . S
C276 C279 1.511 . S
C277 C273 1.376 1_565 S
C277 C276 1.392 . S
C277 H289 0.929 . S
C278 C274 1.531 . S
C278 H290 0.960 . S
C278 H291 0.962 . S
C278 H292 0.960 . S
C279 C276 1.511 . S
C279 H293 0.961 . S
C279 H294 0.961 . S
C279 H295 0.961 . S
C280 C281 1.370 . S
C280 C282 1.363 . S
C280 H296 0.931 . S
C281 C280 1.370 . S
C281 C285 1.408 . S
C282 C280 1.363 . S
C282 C283 1.370 . S
C282 C286 1.524 . S
C283 C275 1.503 . S
C283 C282 1.370 . S
C283 C284 1.403 . S
C284 C283 1.403 . S
C284 C285 1.404 . S
C284 C287 1.539 . S
C285 C281 1.408 . S
C285 C284 1.404 . S
C285 H297 0.930 . S
C286 C282 1.524 . S
C286 H298 0.956 . S
C286 H299 0.961 . S
C286 H300 0.961 . S
C287 C284 1.539 . S
C287 H301 0.958 1_565 S
C287 H302 0.961 . S
C287 H303 0.960 . S
H288 C272 0.931 . S
H289 C277 0.929 . S
H290 C278 0.960 . S
H291 C278 0.962 . S
H292 C278 0.960 . S
H293 C279 0.961 . S
H294 C279 0.961 . S
H295 C279 0.961 . S
H296 C280 0.931 . S
H297 C285 0.930 . S
H298 C286 0.956 . S
H299 C286 0.961 . S
H300 C286 0.961 . S
H301 C287 0.958 1_545 S
H302 C287 0.961 . S
H303 C287 0.960 . S
C304 C305 1.391 . S
C304 C306 1.394 . S
C304 H320 0.931 . S
C305 C304 1.391 . S
C305 C309 1.376 . S
C306 C304 1.394 . S
C306 C307 1.369 . S
C306 C310 1.531 . S
C307 C306 1.369 . S
C307 C308 1.410 . S
C307 C315 1.503 . S
C308 C307 1.410 . S
C308 C309 1.392 . S
C308 C311 1.511 . S
C309 C305 1.376 . S
C309 C308 1.392 . S
C309 H321 0.929 . S
C310 C306 1.531 . S
C310 H322 0.960 . S
C310 H323 0.962 . S
C310 H324 0.960 . S
C311 C308 1.511 . S
C311 H325 0.961 . S
C311 H326 0.961 . S
C311 H327 0.961 . S
C312 C313 1.370 . S
C312 C314 1.363 . S
C312 H328 0.931 . S
C313 C312 1.370 . S
C313 C317 1.408 . S
C314 C312 1.363 . S
C314 C315 1.370 . S
C314 C318 1.524 . S
C315 C307 1.503 . S
C315 C314 1.370 . S
C315 C316 1.403 . S
C316 C315 1.403 . S
C316 C317 1.404 . S
C316 C319 1.539 . S
C317 C313 1.408 . S
C317 C316 1.404 . S
C317 H329 0.930 . S
C318 C314 1.524 . S
C318 H330 0.956 . S
C318 H331 0.961 . S
C318 H332 0.961 . S
C319 C316 1.539 . S
C319 H333 0.958 . S
C319 H334 0.961 . S
C319 H335 0.960 . S
H320 C304 0.931 . S
H321 C309 0.929 . S
H322 C310 0.960 . S
H323 C310 0.962 . S
H324 C310 0.960 . S
H325 C311 0.961 . S
H326 C311 0.961 . S
H327 C311 0.961 . S
H328 C312 0.931 . S
H329 C317 0.930 . S
H330 C318 0.956 . S
H331 C318 0.961 . S
H332 C318 0.961 . S
H333 C319 0.958 . S
H334 C319 0.961 . S
H335 C319 0.960 . S
C336 C337 1.391 . S
C336 C338 1.394 . S
C336 H352 0.931 . S
C337 C336 1.391 . S
C337 C341 1.376 . S
C338 C336 1.394 . S
C338 C339 1.369 . S
C338 C342 1.531 . S
C339 C338 1.369 . S
C339 C340 1.410 . S
C339 C347 1.503 . S
C340 C339 1.410 . S
C340 C341 1.392 . S
C340 C343 1.511 . S
C341 C337 1.376 . S
C341 C340 1.392 . S
C341 H353 0.929 . S
C342 C338 1.531 . S
C342 H354 0.960 . S
C342 H355 0.962 . S
C342 H356 0.960 . S
C343 C340 1.511 . S
C343 H357 0.961 . S
C343 H358 0.961 . S
C343 H359 0.961 . S
C344 C345 1.370 . S
C344 C346 1.363 . S
C344 H360 0.931 . S
C345 C344 1.370 . S
C345 C349 1.408 . S
C346 C344 1.363 . S
C346 C347 1.370 . S
C346 C350 1.524 . S
C347 C339 1.503 . S
C347 C346 1.370 . S
C347 C348 1.403 . S
C348 C347 1.403 . S
C348 C349 1.404 . S
C348 C351 1.539 . S
C349 C345 1.408 . S
C349 C348 1.404 . S
C349 H361 0.930 . S
C350 C346 1.524 . S
C350 H362 0.956 . S
C350 H363 0.961 . S
C350 H364 0.961 . S
C351 C348 1.539 . S
C351 H365 0.958 . S
C351 H366 0.961 . S
C351 H367 0.960 . S
H352 C336 0.931 . S
H353 C341 0.929 . S
H354 C342 0.960 . S
H355 C342 0.962 . S
H356 C342 0.960 . S
H357 C343 0.961 . S
H358 C343 0.961 . S
H359 C343 0.961 . S
H360 C344 0.931 . S
H361 C349 0.930 . S
H362 C350 0.956 . S
H363 C350 0.961 . S
H364 C350 0.961 . S
H365 C351 0.958 . S
H366 C351 0.961 . S
H367 C351 0.960 . S
C368 C369 1.391 . S
C368 C370 1.394 . S
C368 H384 0.931 . S
C369 C368 1.391 . S
C369 C373 1.376 . S
C370 C368 1.394 . S
C370 C371 1.369 . S
C370 C374 1.531 . S
C371 C370 1.369 . S
C371 C372 1.410 . S
C371 C379 1.503 . S
C372 C371 1.410 . S
C372 C373 1.392 . S
C372 C375 1.511 . S
C373 C369 1.376 . S
C373 C372 1.392 . S
C373 H385 0.929 . S
C374 C370 1.531 . S
C374 H386 0.960 . S
C374 H387 0.962 . S
C374 H388 0.960 . S
C375 C372 1.511 . S
C375 H389 0.961 . S
C375 H390 0.961 . S
C375 H391 0.961 . S
C376 C377 1.370 . S
C376 C378 1.363 . S
C376 H392 0.931 . S
C377 C376 1.370 . S
C377 C381 1.408 . S
C378 C376 1.363 . S
C378 C379 1.370 . S
C378 C382 1.524 . S
C379 C371 1.503 . S
C379 C378 1.370 . S
C379 C380 1.403 . S
C380 C379 1.403 . S
C380 C381 1.404 . S
C380 C383 1.539 . S
C381 C377 1.408 . S
C381 C380 1.404 . S
C381 H393 0.930 . S
C382 C378 1.524 . S
C382 H394 0.956 . S
C382 H395 0.961 . S
C382 H396 0.961 . S
C383 C380 1.539 . S
C383 H397 0.958 . S
C383 H398 0.961 . S
C383 H399 0.960 . S
H384 C368 0.931 . S
H385 C373 0.929 . S
H386 C374 0.960 . S
H387 C374 0.962 . S
H388 C374 0.960 . S
H389 C375 0.961 . S
H390 C375 0.961 . S
H391 C375 0.961 . S
H392 C376 0.931 . S
H393 C381 0.930 . S
H394 C382 0.956 . S
H395 C382 0.961 . S
H396 C382 0.961 . S
H397 C383 0.958 . S
H398 C383 0.961 . S
H399 C383 0.960 . S
C400 C401 1.391 . S
C400 C402 1.394 . S
C400 H416 0.931 . S
C401 C400 1.391 . S
C401 C405 1.376 . S
C402 C400 1.394 . S
C402 C403 1.369 . S
C402 C406 1.531 . S
C403 C402 1.369 . S
C403 C404 1.410 . S
C403 C411 1.503 . S
C404 C403 1.410 . S
C404 C405 1.392 . S
C404 C407 1.511 . S
C405 C401 1.376 . S
C405 C404 1.392 . S
C405 H417 0.929 . S
C406 C402 1.531 . S
C406 H418 0.960 . S
C406 H419 0.962 . S
C406 H420 0.960 . S
C407 C404 1.511 . S
C407 H421 0.961 . S
C407 H422 0.961 . S
C407 H423 0.961 . S
C408 C409 1.370 . S
C408 C410 1.363 . S
C408 H424 0.931 . S
C409 C408 1.370 . S
C409 C413 1.408 . S
C410 C408 1.363 . S
C410 C411 1.370 . S
C410 C414 1.524 . S
C411 C403 1.503 . S
C411 C410 1.370 . S
C411 C412 1.403 . S
C412 C411 1.403 . S
C412 C413 1.404 . S
C412 C415 1.539 . S
C413 C409 1.408 . S
C413 C412 1.404 . S
C413 H425 0.930 . S
C414 C410 1.524 . S
C414 H426 0.956 . S
C414 H427 0.961 . S
C414 H428 0.961 . S
C415 C412 1.539 . S
C415 H429 0.958 . S
C415 H430 0.961 . S
C415 H431 0.960 . S
H416 C400 0.931 . S
H417 C405 0.929 . S
H418 C406 0.960 . S
H419 C406 0.962 . S
H420 C406 0.960 . S
H421 C407 0.961 . S
H422 C407 0.961 . S
H423 C407 0.961 . S
H424 C408 0.931 . S
H425 C413 0.930 . S
H426 C414 0.956 . S
H427 C414 0.961 . S
H428 C414 0.961 . S
H429 C415 0.958 . S
H430 C415 0.961 . S
H431 C415 0.960 . S
C432 C433 1.391 1_565 S
C432 C434 1.394 . S
C432 H448 0.931 . S
C433 C432 1.391 1_545 S
C433 C437 1.376 1_554 S
C434 C432 1.394 . S
C434 C435 1.369 . S
C434 C438 1.531 . S
C435 C434 1.369 . S
C435 C436 1.410 1_564 S
C435 C443 1.503 1_554 S
C436 C435 1.410 1_546 S
C436 C437 1.392 . S
C436 C439 1.511 . S
C437 C433 1.376 1_556 S
C437 C436 1.392 . S
C437 H449 0.929 . S
C438 C434 1.531 . S
C438 H450 0.960 . S
C438 H451 0.962 . S
C438 H452 0.960 . S
C439 C436 1.511 . S
C439 H453 0.961 . S
C439 H454 0.961 . S
C439 H455 0.961 . S
C440 C441 1.370 1_545 S
C440 C442 1.363 1_556 S
C440 H456 0.931 1_556 S
C441 C440 1.370 1_565 S
C441 C445 1.408 . S
C442 C440 1.363 1_554 S
C442 C443 1.370 1_544 S
C442 C446 1.524 . S
C443 C435 1.503 1_556 S
C443 C442 1.370 1_566 S
C443 C444 1.403 . S
C444 C443 1.403 . S
C444 C445 1.404 . S
C444 C447 1.539 . S
C445 C441 1.408 . S
C445 C444 1.404 . S
C445 H457 0.930 . S
C446 C442 1.524 . S
C446 H458 0.956 . S
C446 H459 0.961 . S
C446 H460 0.961 . S
C447 C444 1.539 . S
C447 H461 0.958 . S
C447 H462 0.961 . S
C447 H463 0.960 . S
H448 C432 0.931 . S
H449 C437 0.929 . S
H450 C438 0.960 . S
H451 C438 0.962 . S
H452 C438 0.960 . S
H453 C439 0.961 . S
H454 C439 0.961 . S
H455 C439 0.961 . S
H456 C440 0.931 1_554 S
H457 C445 0.930 . S
H458 C446 0.956 . S
H459 C446 0.961 . S
H460 C446 0.961 . S
H461 C447 0.958 . S
H462 C447 0.961 . S
H463 C447 0.960 . S
C464 C465 1.391 1_545 S
C464 C466 1.394 . S
C464 H480 0.931 . S
C465 C464 1.391 1_565 S
C465 C469 1.376 . S
C466 C464 1.394 . S
C466 C467 1.369 . S
C466 C470 1.531 . S
C467 C466 1.369 . S
C467 C468 1.410 1_545 S
C467 C475 1.503 . S
C468 C467 1.410 1_565 S
C468 C469 1.392 . S
C468 C471 1.511 . S
C469 C465 1.376 . S
C469 C468 1.392 . S
C469 H481 0.929 . S
C470 C466 1.531 . S
C470 H482 0.960 . S
C470 H483 0.962 . S
C470 H484 0.960 . S
C471 C468 1.511 . S
C471 H485 0.961 . S
C471 H486 0.961 . S
C471 H487 0.961 . S
C472 C473 1.370 1_565 S
C472 C474 1.363 . S
C472 H488 0.931 . S
C473 C472 1.370 1_545 S
C473 C477 1.408 . S
C474 C472 1.363 . S
C474 C475 1.370 1_565 S
C474 C478 1.524 . S
C475 C467 1.503 . S
C475 C474 1.370 1_545 S
C475 C476 1.403 . S
C476 C475 1.403 . S
C476 C477 1.404 . S
C476 C479 1.539 . S
C477 C473 1.408 . S
C477 C476 1.404 . S
C477 H489 0.930 . S
C478 C474 1.524 . S
C478 H490 0.956 . S
C478 H491 0.961 . S
C478 H492 0.961 . S
C479 C476 1.539 . S
C479 H493 0.958 . S
C479 H494 0.961 . S
C479 H495 0.960 . S
H480 C464 0.931 . S
H481 C469 0.929 . S
H482 C470 0.960 . S
H483 C470 0.962 . S
H484 C470 0.960 . S
H485 C471 0.961 . S
H486 C471 0.961 . S
H487 C471 0.961 . S
H488 C472 0.931 . S
H489 C477 0.930 . S
H490 C478 0.956 . S
H491 C478 0.961 . S
H492 C478 0.961 . S
H493 C479 0.958 . S
H494 C479 0.961 . S
H495 C479 0.960 . S
C496 C497 1.391 . S
C496 C498 1.394 . S
C496 H512 0.931 . S
C497 C496 1.391 . S
C497 C501 1.376 1_554 S
C498 C496 1.394 . S
C498 C499 1.369 . S
C498 C502 1.531 1_655 S
C499 C498 1.369 . S
C499 C500 1.410 1_554 S
C499 C507 1.503 1_654 S
C500 C499 1.410 1_556 S
C500 C501 1.392 . S
C500 C503 1.511 . S
C501 C497 1.376 1_556 S
C501 C500 1.392 . S
C501 H513 0.929 . S
C502 C498 1.531 1_455 S
C502 H514 0.960 . S
C502 H515 0.962 . S
C502 H516 0.960 . S
C503 C500 1.511 . S
C503 H517 0.961 . S
C503 H518 0.961 . S
C503 H519 0.961 . S
C504 C505 1.370 . S
C504 C506 1.363 . S
C504 H520 0.931 . S
C505 C504 1.370 . S
C505 C509 1.408 . S
C506 C504 1.363 . S
C506 C507 1.370 . S
C506 C510 1.524 . S
C507 C499 1.503 1_456 S
C507 C506 1.370 . S
C507 C508 1.403 . S
C508 C507 1.403 . S
C508 C509 1.404 . S
C508 C511 1.539 1_556 S
C509 C505 1.408 . S
C509 C508 1.404 . S
C509 H521 0.930 . S
C510 C506 1.524 . S
C510 H522 0.956 1_556 S
C510 H523 0.961 1_455 S
C510 H524 0.961 . S
C511 C508 1.539 1_554 S
C511 H525 0.958 . S
C511 H526 0.961 1_554 S
C511 H527 0.960 1_454 S
H512 C496 0.931 . S
H513 C501 0.929 . S
H514 C502 0.960 . S
H515 C502 0.962 . S
H516 C502 0.960 . S
H517 C503 0.961 . S
H518 C503 0.961 . S
H519 C503 0.961 . S
H520 C504 0.931 . S
H521 C509 0.930 . S
H522 C510 0.956 1_554 S
H523 C510 0.961 1_655 S
H524 C510 0.961 . S
H525 C511 0.958 . S
H526 C511 0.961 1_556 S
H527 C511 0.960 1_656 S
C528 C529 1.391 . S
C528 C530 1.394 . S
C528 H544 0.931 . S
C529 C528 1.391 . S
C529 C533 1.376 . S
C530 C528 1.394 . S
C530 C531 1.369 . S
C530 C534 1.531 . S
C531 C530 1.369 . S
C531 C532 1.410 . S
C531 C539 1.503 1_455 S
C532 C531 1.410 . S
C532 C533 1.392 . S
C532 C535 1.511 1_455 S
C533 C529 1.376 . S
C533 C532 1.392 . S
C533 H545 0.929 . S
C534 C530 1.531 . S
C534 H546 0.960 . S
C534 H547 0.962 . S
C534 H548 0.960 . S
C535 C532 1.511 1_655 S
C535 H549 0.961 . S
C535 H550 0.961 . S
C535 H551 0.961 . S
C536 C537 1.370 . S
C536 C538 1.363 . S
C536 H552 0.931 . S
C537 C536 1.370 . S
C537 C541 1.408 . S
C538 C536 1.363 . S
C538 C539 1.370 . S
C538 C542 1.524 . S
C539 C531 1.503 1_655 S
C539 C538 1.370 . S
C539 C540 1.403 . S
C540 C539 1.403 . S
C540 C541 1.404 . S
C540 C543 1.539 . S
C541 C537 1.408 . S
C541 C540 1.404 . S
C541 H553 0.930 . S
C542 C538 1.524 . S
C542 H554 0.956 1_655 S
C542 H555 0.961 . S
C542 H556 0.961 . S
C543 C540 1.539 . S
C543 H557 0.958 . S
C543 H558 0.961 . S
C543 H559 0.960 . S
H544 C528 0.931 . S
H545 C533 0.929 . S
H546 C534 0.960 . S
H547 C534 0.962 . S
H548 C534 0.960 . S
H549 C535 0.961 . S
H550 C535 0.961 . S
H551 C535 0.961 . S
H552 C536 0.931 . S
H553 C541 0.930 . S
H554 C542 0.956 1_455 S
H555 C542 0.961 . S
H556 C542 0.961 . S
H557 C543 0.958 . S
H558 C543 0.961 . S
H559 C543 0.960 . S
C560 C561 1.391 1_556 S
C560 C562 1.394 . S
C560 H576 0.931 . S
C561 C560 1.391 1_554 S
C561 C565 1.376 . S
C562 C560 1.394 . S
C562 C563 1.369 1_556 S
C562 C566 1.525 1_545 S
C563 C562 1.369 1_554 S
C563 C564 1.410 . S
C563 C571 1.503 1_444 S
C564 C563 1.410 . S
C564 C565 1.392 . S
C564 C567 1.511 . S
C565 C561 1.376 . S
C565 C564 1.392 . S
C565 H577 0.929 . S
C566 C562 1.525 1_565 S
C566 H578 0.976 . S
C566 H579 0.950 1_565 S
C566 H580 0.963 . S
C567 C564 1.511 . S
C567 H581 0.961 . S
C567 H582 0.961 1_455 S
C567 H583 0.961 1_545 S
C568 C569 1.370 . S
C568 C570 1.363 1_565 S
C568 H584 0.931 . S
C569 C568 1.370 . S
C569 C573 1.408 . S
C570 C568 1.363 1_545 S
C570 C571 1.370 1_545 S
C570 C574 1.524 . S
C571 C563 1.503 1_666 S
C571 C570 1.370 1_565 S
C571 C572 1.403 . S
C572 C571 1.403 . S
C572 C573 1.404 . S
C572 C575 1.539 1_656 S
C573 C569 1.408 . S
C573 C572 1.404 . S
C573 H585 0.930 . S
C574 C570 1.524 . S
C574 H586 0.956 . S
C574 H587 0.961 1_556 S
C574 H588 0.961 . S
C575 C572 1.539 1_454 S
C575 H589 0.958 1_554 S
C575 H590 0.961 . S
C575 H591 0.960 . S
H576 C560 0.931 . S
H577 C565 0.929 . S
H578 C566 0.976 . S
H579 C566 0.950 1_545 S
H580 C566 0.963 . S
H581 C567 0.961 . S
H582 C567 0.961 1_655 S
H583 C567 0.961 1_565 S
H584 C568 0.931 . S
H585 C573 0.930 . S
H586 C574 0.956 . S
H587 C574 0.961 1_554 S
H588 C574 0.961 . S
H589 C575 0.958 1_556 S
H590 C575 0.961 . S
H591 C575 0.960 . S
C592 C593 1.391 . S
C592 C594 1.394 1_545 S
C592 H608 0.931 . S
C593 C592 1.391 . S
C593 C597 1.376 . S
C594 C592 1.394 1_565 S
C594 C595 1.369 1_565 S
C594 C598 1.531 . S
C595 C594 1.369 1_545 S
C595 C596 1.410 . S
C595 C603 1.503 1_645 S
C596 C595 1.410 . S
C596 C597 1.392 . S
C596 C599 1.511 1_655 S
C597 C593 1.376 . S
C597 C596 1.392 . S
C597 H609 0.929 . S
C598 C594 1.531 . S
C598 H610 0.960 . S
C598 H611 0.962 . S
C598 H612 0.960 . S
C599 C596 1.511 1_455 S
C599 H613 0.961 . S
C599 H614 0.961 . S
C599 H615 0.961 . S
C600 C601 1.370 . S
C600 C602 1.363 . S
C600 H616 0.931 . S
C601 C600 1.370 . S
C601 C605 1.408 . S
C602 C600 1.363 . S
C602 C603 1.370 . S
C602 C606 1.524 . S
C603 C595 1.503 1_465 S
C603 C602 1.370 . S
C603 C604 1.403 . S
C604 C603 1.403 . S
C604 C605 1.404 . S
C604 C607 1.539 1_565 S
C605 C601 1.408 . S
C605 C604 1.404 . S
C605 H617 0.930 . S
C606 C602 1.524 . S
C606 H618 0.956 1_455 S
C606 H619 0.961 1_455 S
C606 H620 0.961 . S
C607 C604 1.539 1_545 S
C607 H621 0.965 . S
C607 H622 0.961 . S
C607 H623 0.960 . S
H608 C592 0.931 . S
H609 C597 0.929 . S
H610 C598 0.960 . S
H611 C598 0.962 . S
H612 C598 0.960 . S
H613 C599 0.961 . S
H614 C599 0.961 . S
H615 C599 0.961 . S
H616 C600 0.931 . S
H617 C605 0.930 . S
H618 C606 0.956 1_655 S
H619 C606 0.961 1_655 S
H620 C606 0.961 . S
H621 C607 0.965 . S
H622 C607 0.961 . S
H623 C607 0.960 . S
C624 C625 1.391 . S
C624 C626 1.394 . S
C624 H640 0.931 . S
C625 C624 1.391 . S
C625 C629 1.376 . S
C626 C624 1.394 . S
C626 C627 1.369 . S
C626 C630 1.531 1_556 S
C627 C626 1.369 . S
C627 C628 1.410 . S
C627 C635 1.503 . S
C628 C627 1.410 . S
C628 C629 1.392 . S
C628 C631 1.511 . S
C629 C625 1.376 . S
C629 C628 1.392 . S
C629 H641 0.929 . S
C630 C626 1.531 1_554 S
C630 H642 0.960 1_554 S
C630 H643 0.962 . S
C630 H644 0.960 . S
C631 C628 1.511 . S
C631 H645 0.961 . S
C631 H646 0.961 . S
C631 H647 0.961 . S
C632 C633 1.370 . S
C632 C634 1.363 . S
C632 H648 0.931 . S
C633 C632 1.370 . S
C633 C637 1.408 1_554 S
C634 C632 1.363 . S
C634 C635 1.370 1_554 S
C634 C638 1.524 . S
C635 C627 1.503 . S
C635 C634 1.370 1_556 S
C635 C636 1.403 . S
C636 C635 1.403 . S
C636 C637 1.404 . S
C636 C639 1.539 . S
C637 C633 1.408 1_556 S
C637 C636 1.404 . S
C637 H649 0.930 . S
C638 C634 1.524 . S
C638 H650 0.956 . S
C638 H651 0.961 . S
C638 H652 0.961 . S
C639 C636 1.539 . S
C639 H653 0.958 . S
C639 H654 0.961 . S
C639 H655 0.960 . S
H640 C624 0.931 . S
H641 C629 0.929 . S
H642 C630 0.960 1_556 S
H643 C630 0.962 . S
H644 C630 0.960 . S
H645 C631 0.961 . S
H646 C631 0.961 . S
H647 C631 0.961 . S
H648 C632 0.931 . S
H649 C637 0.930 . S
H650 C638 0.956 . S
H651 C638 0.961 . S
H652 C638 0.961 . S
H653 C639 0.958 . S
H654 C639 0.961 . S
H655 C639 0.960 . S
C656 C657 1.391 . S
C656 C658 1.394 . S
C656 H672 0.931 . S
C657 C656 1.391 . S
C657 C661 1.376 . S
C658 C656 1.394 . S
C658 C659 1.369 . S
C658 C662 1.531 . S
C659 C658 1.369 . S
C659 C660 1.410 . S
C659 C667 1.503 . S
C660 C659 1.410 . S
C660 C661 1.392 . S
C660 C663 1.511 . S
C661 C657 1.376 . S
C661 C660 1.392 . S
C661 H673 0.929 . S
C662 C658 1.531 . S
C662 H674 0.960 . S
C662 H675 0.962 . S
C662 H676 0.960 . S
C663 C660 1.511 . S
C663 H677 0.961 . S
C663 H678 0.961 . S
C663 H679 0.961 . S
C664 C665 1.370 . S
C664 C666 1.363 . S
C664 H680 0.931 . S
C665 C664 1.370 . S
C665 C669 1.408 . S
C666 C664 1.363 . S
C666 C667 1.370 . S
C666 C670 1.524 . S
C667 C659 1.503 . S
C667 C666 1.370 . S
C667 C668 1.403 . S
C668 C667 1.403 . S
C668 C669 1.404 . S
C668 C671 1.539 . S
C669 C665 1.408 . S
C669 C668 1.404 . S
C669 H681 0.930 . S
C670 C666 1.524 . S
C670 H682 0.956 . S
C670 H683 0.961 . S
C670 H684 0.961 . S
C671 C668 1.539 . S
C671 H685 0.958 . S
C671 H686 0.961 . S
C671 H687 0.960 . S
H672 C656 0.931 . S
H673 C661 0.929 . S
H674 C662 0.960 . S
H675 C662 0.962 . S
H676 C662 0.960 . S
H677 C663 0.961 . S
H678 C663 0.961 . S
H679 C663 0.961 . S
H680 C664 0.931 . S
H681 C669 0.930 . S
H682 C670 0.956 . S
H683 C670 0.961 . S
H684 C670 0.961 . S
H685 C671 0.958 . S
H686 C671 0.961 . S
H687 C671 0.960 . S
C688 C689 1.391 . S
C688 C690 1.394 . S
C688 H704 0.931 . S
C689 C688 1.391 . S
C689 C693 1.376 . S
C690 C688 1.394 . S
C690 C691 1.369 . S
C690 C694 1.531 . S
C691 C690 1.369 . S
C691 C692 1.410 . S
C691 C699 1.503 . S
C692 C691 1.410 . S
C692 C693 1.392 . S
C692 C695 1.511 . S
C693 C689 1.376 . S
C693 C692 1.392 . S
C693 H705 0.929 . S
C694 C690 1.531 . S
C694 H706 0.960 . S
C694 H707 0.962 . S
C694 H708 0.960 . S
C695 C692 1.511 . S
C695 H709 0.961 . S
C695 H710 0.961 . S
C695 H711 0.961 . S
C696 C697 1.370 . S
C696 C698 1.363 . S
C696 H712 0.931 . S
C697 C696 1.370 . S
C697 C701 1.408 . S
C698 C696 1.363 . S
C698 C699 1.370 . S
C698 C702 1.524 . S
C699 C691 1.503 . S
C699 C698 1.370 . S
C699 C700 1.403 . S
C700 C699 1.403 . S
C700 C701 1.404 . S
C700 C703 1.539 . S
C701 C697 1.408 . S
C701 C700 1.404 . S
C701 H713 0.930 . S
C702 C698 1.524 . S
C702 H714 0.956 . S
C702 H715 0.961 . S
C702 H716 0.961 . S
C703 C700 1.539 . S
C703 H717 0.958 . S
C703 H718 0.961 . S
C703 H719 0.960 . S
H704 C688 0.931 . S
H705 C693 0.929 . S
H706 C694 0.960 . S
H707 C694 0.962 . S
H708 C694 0.960 . S
H709 C695 0.961 . S
H710 C695 0.961 . S
H711 C695 0.961 . S
H712 C696 0.931 . S
H713 C701 0.930 . S
H714 C702 0.956 . S
H715 C702 0.961 . S
H716 C702 0.961 . S
H717 C703 0.958 . S
H718 C703 0.961 . S
H719 C703 0.960 . S
C720 C721 1.391 . S
C720 C722 1.394 . S
C720 H736 0.931 . S
C721 C720 1.391 . S
C721 C725 1.376 . S
C722 C720 1.394 . S
C722 C723 1.369 . S
C722 C726 1.531 . S
C723 C722 1.369 . S
C723 C724 1.410 . S
C723 C731 1.503 . S
C724 C723 1.410 . S
C724 C725 1.392 . S
C724 C727 1.511 . S
C725 C721 1.376 . S
C725 C724 1.392 . S
C725 H737 0.929 . S
C726 C722 1.531 . S
C726 H738 0.960 . S
C726 H739 0.962 . S
C726 H740 0.960 . S
C727 C724 1.511 . S
C727 H741 0.961 . S
C727 H742 0.961 . S
C727 H743 0.961 . S
C728 C729 1.370 . S
C728 C730 1.363 . S
C728 H744 0.931 . S
C729 C728 1.370 . S
C729 C733 1.408 . S
C730 C728 1.363 . S
C730 C731 1.370 . S
C730 C734 1.524 . S
C731 C723 1.503 . S
C731 C730 1.370 . S
C731 C732 1.403 . S
C732 C731 1.403 . S
C732 C733 1.404 . S
C732 C735 1.539 . S
C733 C729 1.408 . S
C733 C732 1.404 . S
C733 H745 0.930 . S
C734 C730 1.524 . S
C734 H746 0.956 . S
C734 H747 0.961 . S
C734 H748 0.961 . S
C735 C732 1.539 . S
C735 H749 0.958 . S
C735 H750 0.961 . S
C735 H751 0.960 . S
H736 C720 0.931 . S
H737 C725 0.929 . S
H738 C726 0.960 . S
H739 C726 0.962 . S
H740 C726 0.960 . S
H741 C727 0.961 . S
H742 C727 0.961 . S
H743 C727 0.961 . S
H744 C728 0.931 . S
H745 C733 0.930 . S
H746 C734 0.956 . S
H747 C734 0.961 . S
H748 C734 0.961 . S
H749 C735 0.958 . S
H750 C735 0.961 . S
H751 C735 0.960 . S
C752 C753 1.391 . S
C752 C754 1.394 . S
C752 H768 0.931 . S
C753 C752 1.391 . S
C753 C757 1.376 . S
C754 C752 1.394 . S
C754 C755 1.369 . S
C754 C758 1.531 1_655 S
C755 C754 1.369 . S
C755 C756 1.410 . S
C755 C763 1.503 1_655 S
C756 C755 1.410 . S
C756 C757 1.392 . S
C756 C759 1.511 . S
C757 C753 1.376 . S
C757 C756 1.392 . S
C757 H769 0.929 . S
C758 C754 1.531 1_455 S
C758 H770 0.960 . S
C758 H771 0.962 1_455 S
C758 H772 0.960 . S
C759 C756 1.511 . S
C759 H773 0.961 . S
C759 H774 0.961 . S
C759 H775 0.961 . S
C760 C761 1.370 . S
C760 C762 1.363 . S
C760 H776 0.931 . S
C761 C760 1.370 . S
C761 C765 1.408 . S
C762 C760 1.363 . S
C762 C763 1.370 . S
C762 C766 1.524 1_455 S
C763 C755 1.503 1_455 S
C763 C762 1.370 . S
C763 C764 1.403 . S
C764 C763 1.403 . S
C764 C765 1.404 . S
C764 C767 1.539 . S
C765 C761 1.408 . S
C765 C764 1.404 . S
C765 H777 0.930 . S
C766 C762 1.524 1_655 S
C766 H778 0.956 . S
C766 H779 0.961 . S
C766 H780 0.961 . S
C767 C764 1.539 . S
C767 H781 0.958 . S
C767 H782 0.961 . S
C767 H783 0.960 . S
H768 C752 0.931 . S
H769 C757 0.929 . S
H770 C758 0.960 . S
H771 C758 0.962 1_655 S
H772 C758 0.960 . S
H773 C759 0.961 . S
H774 C759 0.961 . S
H775 C759 0.961 . S
H776 C760 0.931 . S
H777 C765 0.930 . S
H778 C766 0.956 . S
H779 C766 0.961 . S
H780 C766 0.961 . S
H781 C767 0.958 . S
H782 C767 0.961 . S
H783 C767 0.960 . S
C784 C785 1.391 . S
C784 C786 1.394 . S
C784 H800 0.931 . S
C785 C784 1.391 . S
C785 C789 1.376 . S
C786 C784 1.394 . S
C786 C787 1.369 . S
C786 C790 1.531 . S
C787 C786 1.369 . S
C787 C788 1.410 . S
C787 C795 1.503 1_655 S
C788 C787 1.410 . S
C788 C789 1.392 . S
C788 C791 1.522 . S
C789 C785 1.376 . S
C789 C788 1.392 . S
C789 H801 0.929 . S
C790 C786 1.531 . S
C790 H802 0.960 1_655 S
C790 H803 0.962 . S
C790 H804 0.960 . S
C791 C788 1.522 . S
C791 H805 0.973 . S
C791 H806 0.956 1_655 S
C791 H807 0.942 1_655 S
C792 C793 1.370 . S
C792 C794 1.363 . S
C792 H808 0.931 . S
C793 C792 1.370 . S
C793 C797 1.408 . S
C794 C792 1.363 . S
C794 C795 1.370 . S
C794 C798 1.524 1_455 S
C795 C787 1.503 1_455 S
C795 C794 1.370 . S
C795 C796 1.403 . S
C796 C795 1.403 . S
C796 C797 1.404 . S
C796 C799 1.539 . S
C797 C793 1.408 . S
C797 C796 1.404 . S
C797 H809 0.930 . S
C798 C794 1.524 1_655 S
C798 H810 0.956 . S
C798 H811 0.961 . S
C798 H812 0.961 . S
C799 C796 1.539 . S
C799 H813 0.958 . S
C799 H814 0.961 . S
C799 H815 0.960 . S
H800 C784 0.931 . S
H801 C789 0.929 . S
H802 C790 0.960 1_455 S
H803 C790 0.962 . S
H804 C790 0.960 . S
H805 C791 0.973 . S
H806 C791 0.956 1_455 S
H807 C791 0.942 1_455 S
H808 C792 0.931 . S
H809 C797 0.930 . S
H810 C798 0.956 . S
H811 C798 0.961 . S
H812 C798 0.961 . S
H813 C799 0.958 . S
H814 C799 0.961 . S
H815 C799 0.960 . S
C816 C817 1.391 . S
C816 C818 1.394 . S
C816 H832 0.931 . S
C817 C816 1.391 . S
C817 C821 1.376 1_554 S
C818 C816 1.394 . S
C818 C819 1.369 . S
C818 C822 1.531 . S
C819 C818 1.369 . S
C819 C820 1.410 1_554 S
C819 C827 1.503 . S
C820 C819 1.410 1_556 S
C820 C821 1.392 . S
C820 C823 1.511 . S
C821 C817 1.376 1_556 S
C821 C820 1.392 . S
C821 H833 0.929 . S
C822 C818 1.531 . S
C822 H834 0.960 . S
C822 H835 0.962 . S
C822 H836 0.960 . S
C823 C820 1.511 . S
C823 H837 0.961 . S
C823 H838 0.961 . S
C823 H839 0.961 . S
C824 C825 1.370 . S
C824 C826 1.363 . S
C824 H840 0.931 . S
C825 C824 1.370 . S
C825 C829 1.408 1_556 S
C826 C824 1.363 . S
C826 C827 1.370 1_556 S
C826 C830 1.524 . S
C827 C819 1.503 . S
C827 C826 1.370 1_554 S
C827 C828 1.403 . S
C828 C827 1.403 . S
C828 C829 1.404 . S
C828 C831 1.539 . S
C829 C825 1.408 1_554 S
C829 C828 1.404 . S
C829 H841 0.930 . S
C830 C826 1.524 . S
C830 H842 0.956 . S
C830 H843 0.961 . S
C830 H844 0.961 . S
C831 C828 1.539 . S
C831 H845 0.958 . S
C831 H846 0.961 . S
C831 H847 0.960 . S
H832 C816 0.931 . S
H833 C821 0.929 . S
H834 C822 0.960 . S
H835 C822 0.962 . S
H836 C822 0.960 . S
H837 C823 0.961 . S
H838 C823 0.961 . S
H839 C823 0.961 . S
H840 C824 0.931 . S
H841 C829 0.930 . S
H842 C830 0.956 . S
H843 C830 0.961 . S
H844 C830 0.961 . S
H845 C831 0.958 . S
H846 C831 0.961 . S
H847 C831 0.960 . S
C848 C849 1.391 . S
C848 C850 1.394 . S
C848 H864 0.931 . S
C849 C848 1.391 . S
C849 C853 1.376 . S
C850 C848 1.394 . S
C850 C851 1.369 . S
C850 C854 1.531 . S
C851 C850 1.369 . S
C851 C852 1.410 . S
C851 C859 1.503 . S
C852 C851 1.410 . S
C852 C853 1.392 . S
C852 C855 1.511 . S
C853 C849 1.376 . S
C853 C852 1.392 . S
C853 H865 0.929 . S
C854 C850 1.531 . S
C854 H866 0.960 . S
C854 H867 0.962 . S
C854 H868 0.960 . S
C855 C852 1.511 . S
C855 H869 0.961 . S
C855 H870 0.961 . S
C855 H871 0.961 . S
C856 C857 1.370 . S
C856 C858 1.363 . S
C856 H872 0.931 . S
C857 C856 1.370 . S
C857 C861 1.408 . S
C858 C856 1.363 . S
C858 C859 1.370 . S
C858 C862 1.524 . S
C859 C851 1.503 . S
C859 C858 1.370 . S
C859 C860 1.403 . S
C860 C859 1.403 . S
C860 C861 1.404 . S
C860 C863 1.539 . S
C861 C857 1.408 . S
C861 C860 1.404 . S
C861 H873 0.930 . S
C862 C858 1.524 . S
C862 H874 0.956 . S
C862 H875 0.961 . S
C862 H876 0.961 . S
C863 C860 1.539 . S
C863 H877 0.958 . S
C863 H878 0.961 . S
C863 H879 0.960 . S
H864 C848 0.931 . S
H865 C853 0.929 . S
H866 C854 0.960 . S
H867 C854 0.962 . S
H868 C854 0.960 . S
H869 C855 0.961 . S
H870 C855 0.961 . S
H871 C855 0.961 . S
H872 C856 0.931 . S
H873 C861 0.930 . S
H874 C862 0.956 . S
H875 C862 0.961 . S
H876 C862 0.961 . S
H877 C863 0.958 . S
H878 C863 0.961 . S
H879 C863 0.960 . S
C880 C881 1.391 1_554 S
C880 C882 1.394 . S
C880 H896 0.931 . S
C881 C880 1.391 1_556 S
C881 C885 1.376 . S
C882 C880 1.394 . S
C882 C883 1.369 . S
C882 C886 1.531 . S
C883 C882 1.369 . S
C883 C884 1.410 1_554 S
C883 C891 1.503 . S
C884 C883 1.410 1_556 S
C884 C885 1.392 . S
C884 C887 1.511 . S
C885 C881 1.376 . S
C885 C884 1.392 . S
C885 H897 0.929 . S
C886 C882 1.531 . S
C886 H898 0.960 . S
C886 H899 0.962 . S
C886 H900 0.960 . S
C887 C884 1.511 . S
C887 H901 0.961 . S
C887 H902 0.961 . S
C887 H903 0.961 1_556 S
C888 C889 1.370 1_556 S
C888 C890 1.363 . S
C888 H904 0.931 . S
C889 C888 1.370 1_554 S
C889 C893 1.408 . S
C890 C888 1.363 . S
C890 C891 1.370 1_556 S
C890 C894 1.524 . S
C891 C883 1.503 . S
C891 C890 1.370 1_554 S
C891 C892 1.403 . S
C892 C891 1.403 . S
C892 C893 1.404 . S
C892 C895 1.539 . S
C893 C889 1.408 . S
C893 C892 1.404 . S
C893 H905 0.930 . S
C894 C890 1.524 . S
C894 H906 0.956 . S
C894 H907 0.961 . S
C894 H908 0.961 . S
C895 C892 1.539 . S
C895 H909 0.958 . S
C895 H910 0.961 . S
C895 H911 0.960 . S
H896 C880 0.931 . S
H897 C885 0.929 . S
H898 C886 0.960 . S
H899 C886 0.962 . S
H900 C886 0.960 . S
H901 C887 0.961 . S
H902 C887 0.961 . S
H903 C887 0.961 1_554 S
H904 C888 0.931 . S
H905 C893 0.930 . S
H906 C894 0.956 . S
H907 C894 0.961 . S
H908 C894 0.961 . S
H909 C895 0.958 . S
H910 C895 0.961 . S
H911 C895 0.960 . S
C912 C913 1.391 . S
C912 C914 1.394 . S
C912 H928 0.931 . S
C913 C912 1.391 . S
C913 C917 1.376 . S
C914 C912 1.394 . S
C914 C915 1.369 . S
C914 C918 1.531 . S
C915 C914 1.369 . S
C915 C916 1.410 . S
C915 C923 1.503 . S
C916 C915 1.410 . S
C916 C917 1.392 . S
C916 C919 1.511 . S
C917 C913 1.376 . S
C917 C916 1.392 . S
C917 H929 0.929 . S
C918 C914 1.531 . S
C918 H930 0.960 . S
C918 H931 0.962 . S
C918 H932 0.960 . S
C919 C916 1.511 . S
C919 H933 0.961 . S
C919 H934 0.961 . S
C919 H935 0.961 . S
C920 C921 1.370 . S
C920 C922 1.363 . S
C920 H936 0.931 . S
C921 C920 1.370 . S
C921 C925 1.408 . S
C922 C920 1.363 . S
C922 C923 1.370 . S
C922 C926 1.524 . S
C923 C915 1.503 . S
C923 C922 1.370 . S
C923 C924 1.403 . S
C924 C923 1.403 . S
C924 C925 1.404 . S
C924 C927 1.539 . S
C925 C921 1.408 . S
C925 C924 1.404 . S
C925 H937 0.930 . S
C926 C922 1.524 . S
C926 H938 0.956 . S
C926 H939 0.961 . S
C926 H940 0.961 . S
C927 C924 1.539 . S
C927 H941 0.958 . S
C927 H942 0.961 . S
C927 H943 0.960 . S
H928 C912 0.931 . S
H929 C917 0.929 . S
H930 C918 0.960 . S
H931 C918 0.962 . S
H932 C918 0.960 . S
H933 C919 0.961 . S
H934 C919 0.961 . S
H935 C919 0.961 . S
H936 C920 0.931 . S
H937 C925 0.930 . S
H938 C926 0.956 . S
H939 C926 0.961 . S
H940 C926 0.961 . S
H941 C927 0.958 . S
H942 C927 0.961 . S
H943 C927 0.960 . S
C177 C10 1.364 . S
C185 C87 1.396 . S
C209 C51 1.380 . S
C217 C32 1.366 . S
C241 C29 1.387 . S
C249 C52 1.371 . S
C273 C7 1.358 . S
C281 C76 1.369 . S
C305 C175 1.389 . S
C313 C98 1.366 . S
C337 C120 1.386 . S
C345 C139 1.397 . S
C369 C117 1.354 . S
C377 C140 1.357 . S
C401 C95 1.360 . S
C409 C164 1.370 . S
C433 C15 0.850 . S
C441 C65 0.830 . S
C465 C81 0.892 . S
C473 C37 0.813 . S
C497 C103 0.879 . S
C505 C153 0.816 . S
C529 C125 0.786 . S
C537 C169 0.855 . S
C561 C18 1.985 . S
C569 C62 2.030 . S
C593 C40 2.014 . S
C601 C74 2.018 . S
C625 C150 2.020 . S
C633 C106 2.010 . S
C657 C162 2.029 . S
C665 C128 2.005 . S
C689 C21 1.481 . S
C697 C43 1.495 . S
C721 C59 1.488 . S
C729 C73 1.489 . S
C753 C109 1.497 . S
C761 C131 1.502 . S
C785 C161 1.491 . S
C793 C147 1.491 . S
C817 C8 1.401 . S
C825 C142 1.428 . S
C849 C30 1.433 . S
C857 C172 1.414 . S
C881 C54 1.420 . S
C889 C96 1.420 . S
C913 C118 1.409 . S
C921 C84 1.423 . S
