# Generated by pormake.
# Topology zff, (5)-cn, num edge types: 1
# Building blocks:
#     Node 0, Type 0, BuildingBlock: XOMCOT_clean_sbu_1, # of connection points: 5
#     Node 1, Type 0, BuildingBlock: XOMCOT_clean_sbu_1, # of connection points: 5
#     Node 2, Type 0, BuildingBlock: XOMCOT_clean_sbu_1, # of connection points: 5
#     Node 3, Type 0, BuildingBlock: XOMCOT_clean_sbu_1, # of connection points: 5
#     Node 4, Type 0, BuildingBlock: XOMCOT_clean_sbu_1, # of connection points: 5
#     Node 5, Type 0, BuildingBlock: XOMCOT_clean_sbu_1, # of connection points: 5
#     Node 6, Type 0, BuildingBlock: XOMCOT_clean_sbu_1, # of connection points: 5
#     Node 7, Type 0, BuildingBlock: XOMCOT_clean_sbu_1, # of connection points: 5
#     Node 8, Type 0, BuildingBlock: XOMCOT_clean_sbu_1, # of connection points: 5
#     Node 9, Type 0, BuildingBlock: XOMCOT_clean_sbu_1, # of connection points: 5
#     Node 10, Type 0, BuildingBlock: XOMCOT_clean_sbu_1, # of connection points: 5
#     Node 11, Type 0, BuildingBlock: XOMCOT_clean_sbu_1, # of connection points: 5
#     Node 12, Type 0, BuildingBlock: XOMCOT_clean_sbu_1, # of connection points: 5
#     Node 13, Type 0, BuildingBlock: XOMCOT_clean_sbu_1, # of connection points: 5
#     Node 14, Type 0, BuildingBlock: XOMCOT_clean_sbu_1, # of connection points: 5
#     Node 15, Type 0, BuildingBlock: XOMCOT_clean_sbu_1, # of connection points: 5
#     Edge 16, Type (0, 0), BuildingBlock: KIFKEQ_clean_linker_1, # of connection points: 2
#     Edge 17, Type (0, 0), BuildingBlock: KIFKEQ_clean_linker_1, # of connection points: 2
#     Edge 18, Type (0, 0), BuildingBlock: KIFKEQ_clean_linker_1, # of connection points: 2
#     Edge 19, Type (0, 0), BuildingBlock: KIFKEQ_clean_linker_1, # of connection points: 2
#     Edge 20, Type (0, 0), BuildingBlock: KIFKEQ_clean_linker_1, # of connection points: 2
#     Edge 21, Type (0, 0), BuildingBlock: KIFKEQ_clean_linker_1, # of connection points: 2
#     Edge 22, Type (0, 0), BuildingBlock: KIFKEQ_clean_linker_1, # of connection points: 2
#     Edge 23, Type (0, 0), BuildingBlock: KIFKEQ_clean_linker_1, # of connection points: 2
#     Edge 24, Type (0, 0), BuildingBlock: KIFKEQ_clean_linker_1, # of connection points: 2
#     Edge 25, Type (0, 0), BuildingBlock: KIFKEQ_clean_linker_1, # of connection points: 2
#     Edge 26, Type (0, 0), BuildingBlock: KIFKEQ_clean_linker_1, # of connection points: 2
#     Edge 27, Type (0, 0), BuildingBlock: KIFKEQ_clean_linker_1, # of connection points: 2
#     Edge 28, Type (0, 0), BuildingBlock: KIFKEQ_clean_linker_1, # of connection points: 2
#     Edge 29, Type (0, 0), BuildingBlock: KIFKEQ_clean_linker_1, # of connection points: 2
#     Edge 30, Type (0, 0), BuildingBlock: KIFKEQ_clean_linker_1, # of connection points: 2
#     Edge 31, Type (0, 0), BuildingBlock: KIFKEQ_clean_linker_1, # of connection points: 2
#     Edge 32, Type (0, 0), BuildingBlock: KIFKEQ_clean_linker_1, # of connection points: 2
#     Edge 33, Type (0, 0), BuildingBlock: KIFKEQ_clean_linker_1, # of connection points: 2
#     Edge 34, Type (0, 0), BuildingBlock: KIFKEQ_clean_linker_1, # of connection points: 2
#     Edge 35, Type (0, 0), BuildingBlock: KIFKEQ_clean_linker_1, # of connection points: 2
#     Edge 36, Type (0, 0), BuildingBlock: KIFKEQ_clean_linker_1, # of connection points: 2
#     Edge 37, Type (0, 0), BuildingBlock: KIFKEQ_clean_linker_1, # of connection points: 2
#     Edge 38, Type (0, 0), BuildingBlock: KIFKEQ_clean_linker_1, # of connection points: 2
#     Edge 39, Type (0, 0), BuildingBlock: KIFKEQ_clean_linker_1, # of connection points: 2
#     Edge 40, Type (0, 0), BuildingBlock: KIFKEQ_clean_linker_1, # of connection points: 2
#     Edge 41, Type (0, 0), BuildingBlock: KIFKEQ_clean_linker_1, # of connection points: 2
#     Edge 42, Type (0, 0), BuildingBlock: KIFKEQ_clean_linker_1, # of connection points: 2
#     Edge 43, Type (0, 0), BuildingBlock: KIFKEQ_clean_linker_1, # of connection points: 2
#     Edge 44, Type (0, 0), BuildingBlock: KIFKEQ_clean_linker_1, # of connection points: 2
#     Edge 45, Type (0, 0), BuildingBlock: KIFKEQ_clean_linker_1, # of connection points: 2
#     Edge 46, Type (0, 0), BuildingBlock: KIFKEQ_clean_linker_1, # of connection points: 2
#     Edge 47, Type (0, 0), BuildingBlock: KIFKEQ_clean_linker_1, # of connection points: 2
#     Edge 48, Type (0, 0), BuildingBlock: KIFKEQ_clean_linker_1, # of connection points: 2
#     Edge 49, Type (0, 0), BuildingBlock: KIFKEQ_clean_linker_1, # of connection points: 2
#     Edge 50, Type (0, 0), BuildingBlock: KIFKEQ_clean_linker_1, # of connection points: 2
#     Edge 51, Type (0, 0), BuildingBlock: KIFKEQ_clean_linker_1, # of connection points: 2
#     Edge 52, Type (0, 0), BuildingBlock: KIFKEQ_clean_linker_1, # of connection points: 2
#     Edge 53, Type (0, 0), BuildingBlock: KIFKEQ_clean_linker_1, # of connection points: 2
#     Edge 54, Type (0, 0), BuildingBlock: KIFKEQ_clean_linker_1, # of connection points: 2
#     Edge 55, Type (0, 0), BuildingBlock: KIFKEQ_clean_linker_1, # of connection points: 2
# Relax obj value: 0.157
# Max RMSD: 0.194
# Mean RMSD: 0.194
data_MOF--net-zff--node1-XOMCOT_clean_sbu_1--edge1-KIFKEQ_clean_linker_1
_symmetry_space_group_name_H-M    P1
_symmetry_Int_Tables_number       1
_symmetry_cell_setting            triclinic
loop_
_symmetry_equiv_pos_as_xyz
'x, y, z'
_cell_length_a     38.281084
_cell_length_b     38.473825
_cell_length_c     65.481584
_cell_angle_alpha  90.554633
_cell_angle_beta   90.302501
_cell_angle_gamma 89.953464
loop_
_atom_site_label
_atom_site_type_symbol
_atom_site_fract_x
_atom_site_fract_y
_atom_site_fract_z
_atom_type_partial_charge
C0 C 0.93937 0.31691 0.44344 0.0
C1 C 0.93803 0.31749 0.46437 0.0
N2 N 0.97028 0.31117 0.4718 0.0
N3 N 0.97227 0.31014 0.43737 0.0
C4 C 0.99067 0.30663 0.45505 0.0
H5 H 0.91775 0.32193 0.43319 0.0
Co6 Co 0.98408 0.31159 0.40943 0.0
C7 C 0.04122 0.26347 0.40292 0.0
O8 O 0.02435 0.25247 0.38665 0.0
N9 N -0.00439 0.31495 0.38047 0.0
C10 C -0.00334 0.30873 0.3465 0.0
C11 C 0.98204 0.29732 0.36427 0.0
C12 C 0.01878 0.3371 0.37166 0.0
N13 N 0.01969 0.33412 0.35096 0.0
O14 O 0.00516 0.35459 0.4144 0.0
H15 H 0.96363 0.27622 0.36491 0.0
H16 H 0.03446 0.35549 0.38026 0.0
O17 O 0.0279 0.28673 0.41458 0.0
C18 C 0.98036 0.3755 0.41034 0.0
O19 O 0.95151 0.36314 0.40206 0.0
N20 N 0.95864 0.27099 0.40552 0.0
C21 C 0.90484 0.22277 0.40863 0.0
C22 C 0.93763 0.21631 0.41758 0.0
C23 C 0.96418 0.24098 0.41602 0.0
C24 C 0.92698 0.27756 0.39679 0.0
C25 C 0.9002 0.25335 0.3975 0.0
H26 H 0.98782 0.23731 0.42479 0.0
H27 H 0.92205 0.30251 0.38989 0.0
H28 H 0.01858 0.30219 0.45565 0.0
H29 H 0.91499 0.32242 0.47347 0.0
H30 H 0.99104 0.29828 0.33145 0.0
H31 H 0.94206 0.19367 0.42694 0.0
H32 H 0.87556 0.25942 0.39017 0.0
C33 C 0.69589 0.94329 0.43052 0.0
C34 C 0.6916 0.93613 0.45092 0.0
N35 N 0.67309 0.96209 0.4596 0.0
N36 N 0.68086 0.97414 0.42617 0.0
C37 C 0.66569 0.98396 0.44404 0.0
H38 H 0.71015 0.92731 0.41977 0.0
Co39 Co 0.68138 -0.00188 0.40057 0.0
C40 C 0.71521 0.05029 0.42983 0.0
O41 O 0.71845 0.02902 0.44525 0.0
N42 N 0.68113 0.0219 0.3751 0.0
C43 C 0.69939 0.05581 0.34997 0.0
C44 C 0.70812 0.04099 0.3683 0.0
C45 C 0.65606 0.02568 0.36042 0.0
N46 N 0.66658 0.04626 0.34481 0.0
O47 O 0.63623 0.01396 0.40572 0.0
H48 H 0.73263 0.04444 0.37636 0.0
H49 H 0.63059 0.01364 0.36118 0.0
O50 O 0.70157 0.03983 0.413 0.0
C51 C 0.61704 0.98803 0.40121 0.0
O52 O 0.6319 0.95964 0.394 0.0
N53 N 0.72519 0.97942 0.39454 0.0
C54 C 0.77952 0.93205 0.39023 0.0
C55 C 0.78284 0.96078 0.40349 0.0
C56 C 0.75535 0.98432 0.40537 0.0
C57 C 0.72299 0.95395 0.38001 0.0
C58 C 0.75002 0.93005 0.37747 0.0
H59 H 0.75758 0.00428 0.41684 0.0
H60 H 0.6989 0.95045 0.37153 0.0
H61 H 0.65133 0.00803 0.44585 0.0
H62 H 0.70298 0.91434 0.4589 0.0
H63 H 0.71588 0.07317 0.34141 0.0
H64 H 0.80499 0.96345 0.41372 0.0
H65 H 0.74672 0.90883 0.36665 0.0
C66 C 0.03922 0.70343 0.44686 0.0
C67 C 0.04471 0.70296 0.46761 0.0
N68 N 0.01521 0.69229 0.47681 0.0
N69 N 0.00609 0.69373 0.44256 0.0
C70 C -0.00744 0.68602 0.46115 0.0
H71 H 0.05871 0.70976 0.43563 0.0
Co72 Co 0.98673 0.68703 0.41562 0.0
C73 C 0.9342 0.73695 0.43469 0.0
O74 O 0.95005 0.74111 0.45235 0.0
N75 N 0.96747 0.67979 0.38885 0.0
C76 C 0.94412 0.69249 0.35856 0.0
C77 C 0.95763 0.7059 0.37643 0.0
C78 C 0.95902 0.65046 0.37807 0.0
N79 N 0.94487 0.65754 0.35946 0.0
O80 O 0.96303 0.64766 0.42497 0.0
H81 H 0.95963 0.73325 0.38024 0.0
H82 H 0.96312 0.62443 0.38372 0.0
O83 O 0.94706 0.71687 0.42107 0.0
C84 C 0.98758 0.6254 0.42584 0.0
O85 O 0.01875 0.63422 0.41929 0.0
N86 N 0.01324 0.72413 0.40607 0.0
C87 C 0.06773 0.76932 0.39776 0.0
C88 C 0.03893 0.78062 0.40918 0.0
C89 C 0.01185 0.75755 0.41323 0.0
C90 C 0.03972 0.71353 0.39366 0.0
C91 C 0.06727 0.73582 0.38921 0.0
H92 H 0.99156 0.76598 0.4234 0.0
H93 H 0.04072 0.68679 0.38844 0.0
H94 H 0.96627 0.67637 0.46305 0.0
H95 H 0.06907 0.70945 0.47514 0.0
H96 H 0.93359 0.70746 0.34604 0.0
H97 H 0.03826 0.80648 0.41587 0.0
H98 H 0.08915 0.72605 0.38044 0.0
C99 C 0.30128 0.04551 0.41485 0.0
C100 C 0.30103 0.04948 0.43574 0.0
N101 N 0.29653 0.01803 0.44429 0.0
N102 N 0.29694 0.01172 0.40995 0.0
C103 C 0.29431 -0.00449 0.42821 0.0
H104 H 0.30439 0.06605 0.40385 0.0
Co105 Co 0.29536 -0.00499 0.38269 0.0
C106 C 0.27916 0.92168 0.38751 0.0
O107 O 0.307 0.91301 0.37697 0.0
N108 N 0.29418 0.97793 0.35499 0.0
C109 C 0.27403 0.95578 0.32564 0.0
C110 C 0.26505 0.97037 0.34414 0.0
C111 C 0.32066 0.96742 0.34252 0.0
N112 N 0.30915 0.95353 0.32455 0.0
O113 O 0.33944 0.97565 0.38661 0.0
H114 H 0.23866 0.97414 0.34954 0.0
H115 H 0.34789 0.96834 0.34687 0.0
O116 O 0.27255 0.95353 0.39123 0.0
C117 C 0.36051 0.00033 0.38307 0.0
O118 O 0.34805 0.02957 0.37576 0.0
N119 N 0.25294 0.01772 0.37937 0.0
C120 C 0.20471 0.07088 0.38486 0.0
C121 C 0.20076 0.0392 0.39504 0.0
C122 C 0.2253 0.01282 0.39211 0.0
C123 C 0.25539 0.04692 0.36792 0.0
C124 C 0.23132 0.07383 0.37032 0.0
H125 H 0.2241 -0.00969 0.40178 0.0
H126 H 0.27797 0.05071 0.35833 0.0
H127 H 0.29037 0.9678 0.42966 0.0
H128 H 0.30443 0.07379 0.44394 0.0
H129 H 0.25575 0.94703 0.31404 0.0
H130 H 0.18079 0.03589 0.40652 0.0
H131 H 0.23489 0.09756 0.36182 0.0
C132 C 0.94134 0.68099 0.65819 0.0
C133 C 0.93761 0.68089 0.63732 0.0
N134 N 0.96949 0.68354 0.62877 0.0
N135 N 0.97544 0.68358 0.66312 0.0
C136 C -0.00795 0.68498 0.64487 0.0
H137 H 0.92042 0.67918 0.66916 0.0
Co138 Co -0.00808 0.6844 0.69044 0.0
C139 C 0.06555 0.70098 0.68588 0.0
O140 O 0.07417 0.67311 0.6962 0.0
N141 N 0.00861 0.68499 0.71809 0.0
C142 C 0.03085 0.70465 0.74749 0.0
C143 C 0.01662 0.71385 0.72901 0.0
C144 C 0.01844 0.65843 0.73049 0.0
N145 N 0.03244 0.66968 0.7485 0.0
O146 O 0.01204 0.6407 0.68619 0.0
H147 H 0.01344 0.74016 0.72365 0.0
H148 H 0.01689 0.63134 0.72604 0.0
O149 O 0.03357 0.70759 0.68218 0.0
C150 C 0.98706 0.61914 0.68733 0.0
O151 O 0.9558 0.63036 0.69235 0.0
N152 N 0.96883 0.72637 0.69427 0.0
C153 C 0.91727 0.77688 0.6915 0.0
C154 C 0.94864 0.7804 0.68075 0.0
C155 C 0.97421 0.7547 0.68229 0.0
C156 C 0.93969 0.72376 0.70595 0.0
C157 C 0.91356 0.74892 0.70491 0.0
H158 H -0.00333 0.75613 0.67245 0.0
H159 H 0.93541 0.70055 0.71479 0.0
H160 H 0.02008 0.68735 0.64348 0.0
H161 H 0.91307 0.67848 0.62918 0.0
H162 H 0.03982 0.7227 0.75914 0.0
H163 H 0.95257 0.8018 0.67038 0.0
H164 H 0.8896 0.74504 0.7133 0.0
C165 C 0.29578 0.94153 0.62512 0.0
C166 C 0.29324 0.93817 0.60425 0.0
N167 N 0.29232 0.97015 0.59599 0.0
N168 N 0.29626 0.97551 0.63033 0.0
C169 C 0.29429 -0.00763 0.61222 0.0
H170 H 0.29799 0.92043 0.63585 0.0
Co171 Co 0.30241 -0.00715 0.65745 0.0
C172 C 0.2713 0.06187 0.65281 0.0
O173 O 0.3016 0.0773 0.65549 0.0
N174 N 0.30836 0.0108 0.68472 0.0
C175 C 0.29341 0.03114 0.71545 0.0
C176 C 0.28125 0.01872 0.69703 0.0
C177 C 0.33705 0.01926 0.69616 0.0
N178 N 0.32858 0.03155 0.71509 0.0
O179 O 0.34039 0.0195 0.64849 0.0
H180 H 0.25403 0.01591 0.69282 0.0
H181 H 0.36359 0.01629 0.6908 0.0
O182 O 0.26943 0.0289 0.65231 0.0
C183 C 0.36432 -0.0031 0.64619 0.0
O184 O 0.35803 0.96464 0.65155 0.0
N185 N 0.26698 0.96365 0.66616 0.0
C186 C 0.22261 0.90857 0.67451 0.0
C187 C 0.21155 0.93576 0.66188 0.0
C188 C 0.23429 0.96307 0.65776 0.0
C189 C 0.2777 0.93825 0.67909 0.0
C190 C 0.25579 0.91052 0.68361 0.0
H191 H 0.22651 0.98229 0.64672 0.0
H192 H 0.30405 0.93869 0.68513 0.0
H193 H 0.29474 0.02039 0.61102 0.0
H194 H 0.2933 0.91386 0.59581 0.0
H195 H 0.27738 0.04 0.72804 0.0
H196 H 0.18642 0.93489 0.65421 0.0
H197 H 0.2652 0.89021 0.69358 0.0
C198 C 0.04252 0.29926 0.65449 0.0
C199 C 0.0481 0.30032 0.63375 0.0
N200 N 0.01691 0.30115 0.62401 0.0
N201 N 0.00795 0.29948 0.65813 0.0
C202 C -0.00699 0.30078 0.6393 0.0
H203 H 0.06246 0.29817 0.66623 0.0
Co204 Co 0.98735 0.29746 0.6844 0.0
C205 C 0.91395 0.2885 0.67379 0.0
O206 O 0.90559 0.31661 0.68423 0.0
N207 N 0.966 0.29558 0.71073 0.0
C208 C 0.93414 0.27556 0.73645 0.0
C209 C 0.95039 0.26712 0.7184 0.0
C210 C 0.95888 0.3211 0.72466 0.0
N211 N 0.93919 0.30961 0.74043 0.0
O212 O 0.97205 0.3431 0.68129 0.0
H213 H 0.94965 0.24194 0.71093 0.0
H214 H 0.96642 0.34797 0.72281 0.0
O215 O 0.9457 0.27902 0.67257 0.0
C216 C -0.00165 0.36226 0.68504 0.0
O217 O 0.02762 0.3478 0.69123 0.0
N218 N 0.00576 0.25324 0.68751 0.0
C219 C 0.05486 0.20026 0.68535 0.0
C220 C 0.02667 0.20115 0.67154 0.0
C221 C 0.00215 0.22787 0.67296 0.0
C222 C 0.03085 0.25098 0.70222 0.0
C223 C 0.05535 0.22424 0.70166 0.0
H224 H 0.98285 0.2303 0.66097 0.0
H225 H 0.03372 0.27168 0.7134 0.0
H226 H 0.96506 0.30098 0.63692 0.0
H227 H 0.07346 0.30066 0.62657 0.0
H228 H 0.91911 0.25796 0.74574 0.0
H229 H 0.02522 0.18349 0.6586 0.0
H230 H 0.07599 0.22398 0.71303 0.0
C231 C 0.66702 0.04447 0.63935 0.0
C232 C 0.66425 0.04528 0.61845 0.0
N233 N 0.66882 0.01281 0.61102 0.0
N234 N 0.67368 0.01173 0.64535 0.0
C235 C 0.67465 -0.00713 0.6277 0.0
H236 H 0.66332 0.06631 0.64963 0.0
Co237 Co 0.67402 -0.0005 0.67313 0.0
C238 C 0.72533 0.94526 0.67838 0.0
O239 O 0.73647 0.96275 0.69442 0.0
N240 N 0.67244 0.98701 0.70182 0.0
C241 C 0.67902 0.98435 0.73574 0.0
C242 C 0.68809 0.00184 0.71836 0.0
C243 C 0.65372 0.96045 0.70996 0.0
N244 N 0.65723 0.95837 0.73051 0.0
O245 O 0.63165 0.97674 0.66859 0.0
H246 H 0.70591 0.02347 0.7182 0.0
H247 H 0.63807 0.94251 0.70098 0.0
O248 O 0.70067 0.9572 0.66723 0.0
C249 C 0.60937 -0.0004 0.6739 0.0
O250 O 0.62024 0.02772 0.68355 0.0
N251 N 0.71387 0.02666 0.67663 0.0
C252 C 0.75883 0.08289 0.67254 0.0
C253 C 0.76726 0.05049 0.66385 0.0
C254 C 0.74401 0.02273 0.66576 0.0
C255 C 0.70569 0.0579 0.68532 0.0
C256 C 0.72812 0.08607 0.6839 0.0
H257 H 0.74884 -0.00066 0.65699 0.0
H258 H 0.68052 0.06153 0.69244 0.0
H259 H 0.67795 0.96494 0.62717 0.0
H260 H 0.65889 0.06812 0.60944 0.0
H261 H 0.68757 -0.00944 0.75113 0.0
H262 H 0.79027 0.04732 0.65446 0.0
H263 H 0.72064 0.1106 0.69087 0.0
C264 C 0.44501 0.78355 0.92001 0.0
C265 C 0.44024 0.78539 0.94085 0.0
N266 N 0.47172 0.78917 0.94994 0.0
N267 N 0.47936 0.78614 0.91589 0.0
C268 C 0.49494 0.78965 0.93442 0.0
H269 H 0.42477 0.78022 0.90857 0.0
Co270 Co 0.49982 0.78526 0.88971 0.0
C271 C 0.57357 0.77927 0.9004 0.0
O272 O 0.58089 0.80766 0.89029 0.0
N273 N 0.52111 0.78471 0.86353 0.0
C274 C 0.55462 0.76782 0.83756 0.0
C275 C 0.53854 0.75755 0.85524 0.0
C276 C 0.52678 0.81118 0.85037 0.0
N277 N 0.54743 0.80167 0.83452 0.0
O278 O 0.51307 0.83149 0.89363 0.0
H279 H 0.54079 0.73219 0.86212 0.0
H280 H 0.51768 0.83747 0.85292 0.0
O281 O 0.54226 0.76839 0.90128 0.0
C282 C 0.48587 0.84962 0.89043 0.0
O283 O 0.45725 0.83408 0.88395 0.0
N284 N 0.48334 0.74036 0.88584 0.0
C285 C 0.43451 0.68734 0.88791 0.0
C286 C 0.46284 0.68851 0.90164 0.0
C287 C 0.4873 0.71523 0.90023 0.0
C288 C 0.45845 0.73747 0.87103 0.0
C289 C 0.43412 0.71064 0.87153 0.0
H290 H 0.50656 0.7181 0.91224 0.0
H291 H 0.45532 0.75794 0.85996 0.0
H292 H 0.52281 0.79289 0.93649 0.0
H293 H 0.4155 0.78341 0.94867 0.0
H294 H 0.5711 0.75175 0.82797 0.0
H295 H 0.46431 0.67128 0.91458 0.0
H296 H 0.41347 0.71004 0.86017 0.0
C297 C 0.18426 0.43488 0.94429 0.0
C298 C 0.18608 0.43107 0.96512 0.0
N299 N 0.18923 0.4628 0.9739 0.0
N300 N 0.18641 0.46887 0.93969 0.0
C301 C 0.18927 0.48529 0.95804 0.0
H302 H 0.18084 0.41418 0.93316 0.0
Co303 Co 0.18237 0.48737 0.91304 0.0
C304 C 0.21472 0.55545 0.91958 0.0
O305 O 0.18501 0.57162 0.9163 0.0
N306 N 0.17857 0.50667 0.88627 0.0
C307 C 0.19576 0.52938 0.85683 0.0
C308 C 0.20637 0.51278 0.87423 0.0
C309 C 0.15108 0.52012 0.87563 0.0
N310 N 0.16095 0.53441 0.85763 0.0
O311 O 0.14419 0.51429 0.92196 0.0
H312 H 0.23312 0.50648 0.8781 0.0
H313 H 0.12461 0.52076 0.88133 0.0
O314 O 0.21574 0.52245 0.91974 0.0
C315 C 0.12041 0.49124 0.92216 0.0
O316 O 0.12724 0.46007 0.91478 0.0
N317 N 0.21775 0.45766 0.90443 0.0
C318 C 0.26079 0.40088 0.89692 0.0
C319 C 0.27172 0.4278 0.91007 0.0
C320 C 0.24965 0.45596 0.91375 0.0
C321 C 0.20735 0.43265 0.89087 0.0
C322 C 0.22862 0.40406 0.88676 0.0
H323 H 0.25706 0.47481 0.92531 0.0
H324 H 0.18155 0.43397 0.8841 0.0
H325 H 0.191 0.51324 0.95968 0.0
H326 H 0.18411 0.40672 0.97315 0.0
H327 H 0.21271 0.53749 0.84459 0.0
H328 H 0.29601 0.426 0.91855 0.0
H329 H 0.21935 0.38396 0.87639 0.0
C330 C 0.53459 0.17256 0.925 0.0
C331 C 0.53825 0.17352 0.94586 0.0
N332 N 0.50626 0.17383 0.95438 0.0
N333 N 0.50041 0.1723 0.91998 0.0
C334 C 0.48366 0.17286 0.93826 0.0
H335 H 0.55568 0.17194 0.91408 0.0
Co336 Co 0.48472 0.17113 0.89232 0.0
C337 C 0.4108 0.18731 0.89553 0.0
O338 O 0.40302 0.15887 0.88521 0.0
N339 N 0.46904 0.16979 0.86439 0.0
C340 C 0.44777 0.18749 0.83446 0.0
C341 C 0.45942 0.19784 0.85347 0.0
C342 C 0.46261 0.14247 0.85148 0.0
N343 N 0.44962 0.15256 0.83307 0.0
O344 O 0.46496 0.12746 0.89673 0.0
H345 H 0.45983 0.22431 0.85918 0.0
H346 H 0.46695 0.11564 0.85556 0.0
O347 O 0.44249 0.19426 0.89987 0.0
C348 C 0.49017 0.10603 0.89671 0.0
O349 O 0.52183 0.11717 0.89272 0.0
N350 N 0.50732 0.2132 0.88823 0.0
C351 C 0.55814 0.26446 0.89119 0.0
C352 C 0.52602 0.26861 0.90114 0.0
C353 C 0.50089 0.24245 0.89958 0.0
C354 C 0.53707 0.21008 0.87709 0.0
C355 C 0.56292 0.23552 0.87832 0.0
H356 H 0.47794 0.24434 0.90903 0.0
H357 H 0.54204 0.18632 0.86862 0.0
H358 H 0.45551 0.17291 0.9397 0.0
H359 H 0.56283 0.17335 0.95409 0.0
H360 H 0.43743 0.20448 0.82282 0.0
H361 H 0.52147 0.29041 0.91138 0.0
H362 H 0.5872 0.23161 0.87019 0.0
C363 C 0.81882 0.5273 0.94784 0.0
C364 C 0.81763 0.53008 0.96873 0.0
N365 N 0.80623 0.49974 0.97635 0.0
N366 N 0.808 0.49544 0.94192 0.0
C367 C 0.80081 0.47894 0.9597 0.0
H368 H 0.82732 0.54731 0.93751 0.0
Co369 Co 0.8071 0.48301 0.91388 0.0
C370 C 0.74844 0.4359 0.90864 0.0
O371 O 0.73786 0.4554 0.89353 0.0
N372 N 0.80781 0.47049 0.88469 0.0
C373 C 0.79857 0.46911 0.85087 0.0
C374 C 0.78918 0.48433 0.86907 0.0
C375 C 0.82867 0.44668 0.87503 0.0
N376 N 0.82361 0.44548 0.85451 0.0
O377 O 0.84657 0.45519 0.91841 0.0
H378 H 0.76906 0.50382 0.87047 0.0
H379 H 0.84721 0.43017 0.88283 0.0
O380 O 0.77561 0.44404 0.91906 0.0
C381 C 0.87053 0.47631 0.91342 0.0
O382 O 0.86187 0.50651 0.90565 0.0
N383 N 0.77095 0.51493 0.91035 0.0
C384 C 0.73008 0.57475 0.91094 0.0
C385 C 0.71926 0.54487 0.92128 0.0
C386 C 0.74046 0.51529 0.92111 0.0
C387 C 0.78222 0.54415 0.90083 0.0
C388 C 0.76191 0.57406 0.90054 0.0
H389 H 0.73333 0.49355 0.93053 0.0
H390 H 0.80773 0.54451 0.89384 0.0
H391 H 0.79163 0.45239 0.96042 0.0
H392 H 0.82537 0.55264 0.97766 0.0
H393 H 0.788 0.47538 0.83599 0.0
H394 H 0.69514 0.54466 0.92986 0.0
H395 H 0.77183 0.59694 0.89301 0.0
C396 C 0.44231 0.16254 0.13764 0.0
C397 C 0.4366 0.16244 0.11687 0.0
N398 N 0.4673 0.1677 0.10733 0.0
N399 N 0.47647 0.16795 0.14149 0.0
C400 C 0.49113 0.17076 0.12272 0.0
H401 H 0.42277 0.1588 0.14928 0.0
Co402 Co 0.49616 0.16949 0.16815 0.0
C403 C 0.5671 0.19413 0.16033 0.0
O404 O 0.58082 0.16475 0.16656 0.0
N405 N 0.51668 0.17083 0.19515 0.0
C406 C 0.54326 0.1924 0.2229 0.0
C407 C 0.52695 0.20033 0.20478 0.0
C408 C 0.52707 0.14514 0.20807 0.0
N409 N 0.54353 0.15762 0.22505 0.0
O410 O 0.51846 0.12735 0.16235 0.0
H411 H 0.52365 0.22619 0.19876 0.0
H412 H 0.52399 0.11772 0.20481 0.0
O413 O 0.53413 0.19717 0.15879 0.0
C414 C 0.49447 0.10637 0.16758 0.0
O415 O 0.46703 0.11871 0.17727 0.0
N416 N 0.47038 0.2093 0.17369 0.0
C417 C 0.41641 0.25747 0.17638 0.0
C418 C 0.44301 0.26132 0.16189 0.0
C419 C 0.46987 0.23696 0.16082 0.0
C420 C 0.44586 0.20597 0.18851 0.0
C421 C 0.41889 0.2301 0.19035 0.0
H422 H 0.48841 0.2387 0.14848 0.0
H423 H 0.4461 0.18335 0.1982 0.0
H424 H 0.51872 0.17524 0.12044 0.0
H425 H 0.41165 0.15818 0.10943 0.0
H426 H 0.5544 0.21096 0.23361 0.0
H427 H 0.44196 0.28155 0.15053 0.0
H428 H 0.3994 0.22645 0.20205 0.0
C429 C 0.80154 0.43037 0.15849 0.0
C430 C 0.80079 0.42553 0.13764 0.0
N431 N 0.80009 0.45688 0.1286 0.0
N432 N 0.80117 0.46465 0.16286 0.0
C433 C 0.80056 0.48022 0.14432 0.0
H434 H 0.80215 0.41011 0.16983 0.0
Co435 Co 0.80134 0.48295 0.1899 0.0
C436 C 0.78675 0.55639 0.18402 0.0
O437 O 0.81557 0.56459 0.19393 0.0
N438 N 0.80199 0.50168 0.21727 0.0
C439 C 0.78412 0.52692 0.24622 0.0
C440 C 0.77378 0.51297 0.22771 0.0
C441 C 0.82934 0.5095 0.22991 0.0
N442 N 0.81919 0.52493 0.24768 0.0
O443 O 0.84593 0.50062 0.18524 0.0
H444 H 0.74724 0.51219 0.22197 0.0
H445 H 0.85633 0.50455 0.2261 0.0
O446 O 0.77919 0.52461 0.18074 0.0
C447 C 0.86649 0.47529 0.18845 0.0
O448 O 0.85349 0.44614 0.19547 0.0
N449 N 0.75821 0.46206 0.19418 0.0
C450 C 0.70743 0.41045 0.19154 0.0
C451 C 0.70586 0.43974 0.17887 0.0
C452 C 0.73133 0.46549 0.18059 0.0
C453 C 0.75852 0.43566 0.20785 0.0
C454 C 0.7329 0.40993 0.2071 0.0
H455 H 0.7317 0.48581 0.16933 0.0
H456 H 0.78037 0.43293 0.21826 0.0
H457 H 0.79996 0.50812 0.14242 0.0
H458 H 0.80122 0.40065 0.12979 0.0
H459 H 0.7671 0.53895 0.25738 0.0
H460 H 0.68718 0.4415 0.16648 0.0
H461 H 0.73458 0.38868 0.21776 0.0
C462 C 0.54643 0.78128 0.13094 0.0
C463 C 0.55054 0.78215 0.11009 0.0
N464 N 0.52 0.79178 0.10155 0.0
N465 N 0.5132 0.78973 0.13576 0.0
C466 C 0.49806 0.79687 0.11746 0.0
H467 H 0.56672 0.77518 0.14187 0.0
Co468 Co 0.49461 0.79526 0.16269 0.0
C469 C 0.44209 0.74512 0.14349 0.0
O470 O 0.45788 0.73964 0.12602 0.0
N471 N 0.47549 0.80106 0.18951 0.0
C472 C 0.4511 0.78589 0.21893 0.0
C473 C 0.46823 0.77414 0.20188 0.0
C474 C 0.46207 0.82919 0.19961 0.0
N475 N 0.44676 0.82053 0.21758 0.0
O476 O 0.4702 0.83474 0.15382 0.0
H477 H 0.47375 0.74717 0.19841 0.0
H478 H 0.46192 0.8552 0.19348 0.0
O479 O 0.45537 0.76548 0.15688 0.0
C480 C 0.49463 0.85712 0.15323 0.0
O481 O 0.52581 0.84839 0.16002 0.0
N482 N 0.52206 0.7582 0.17165 0.0
C483 C 0.57725 0.71338 0.17994 0.0
C484 C 0.54849 0.70202 0.16831 0.0
C485 C 0.5211 0.72492 0.16426 0.0
C486 C 0.54866 0.76896 0.18407 0.0
C487 C 0.5765 0.74691 0.1885 0.0
H488 H 0.50078 0.71647 0.15399 0.0
H489 H 0.54927 0.79557 0.18954 0.0
H490 H 0.47136 0.80576 0.11587 0.0
H491 H 0.57416 0.77572 0.10187 0.0
H492 H 0.44188 0.76979 0.23125 0.0
H493 H 0.5482 0.67649 0.16119 0.0
H494 H 0.59794 0.75654 0.1978 0.0
C495 C 0.19124 0.54008 0.15558 0.0
C496 C 0.19197 0.54402 0.13473 0.0
N497 N 0.19179 0.51225 0.1258 0.0
N498 N 0.19067 0.50598 0.16001 0.0
C499 C 0.19083 0.48962 0.14157 0.0
H500 H 0.19101 0.5608 0.16686 0.0
Co501 Co 0.18911 0.48818 0.18677 0.0
C502 C 0.20587 0.41493 0.17629 0.0
O503 O 0.17402 0.40325 0.17898 0.0
N504 N 0.18745 0.46977 0.21361 0.0
C505 C 0.20378 0.4419 0.24171 0.0
C506 C 0.21478 0.45538 0.22349 0.0
C507 C 0.16003 0.46476 0.22633 0.0
N508 N 0.16917 0.44764 0.24363 0.0
O509 O 0.14499 0.46968 0.18096 0.0
H510 H 0.24102 0.45377 0.21753 0.0
H511 H 0.13372 0.47296 0.22278 0.0
O512 O 0.21255 0.44712 0.17821 0.0
C513 C 0.12425 0.49521 0.1833 0.0
O514 O 0.13703 0.52505 0.18984 0.0
N515 N 0.23157 0.50944 0.19241 0.0
C516 C 0.28564 0.55735 0.19396 0.0
C517 C 0.28761 0.52816 0.181 0.0
C518 C 0.26016 0.50454 0.18037 0.0
C519 C 0.23034 0.53602 0.20625 0.0
C520 C 0.25736 0.56023 0.20743 0.0
H521 H 0.26047 0.48442 0.16876 0.0
H522 H 0.20709 0.53992 0.21532 0.0
H523 H 0.19049 0.46165 0.13979 0.0
H524 H 0.192 0.56857 0.12683 0.0
H525 H 0.22012 0.42776 0.25229 0.0
H526 H 0.3085 0.52521 0.17004 0.0
H527 H 0.25502 0.58219 0.2178 0.0
H528 H 0.92604 0.58963 0.42855 0.0
H529 H 0.0372 0.58151 0.4393 0.0
H530 H 0.92078 0.52656 0.43176 0.0
H531 H 0.03237 0.51908 0.44159 0.0
H532 H 0.01705 0.40451 0.44204 0.0
H533 H 0.01271 0.46467 0.45439 0.0
H534 H 0.94019 0.48734 0.40536 0.0
H535 H 0.94374 0.42763 0.39364 0.0
C536 C 0.94909 0.57446 0.43214 0.0
C537 C 0.98215 0.58994 0.43293 0.0
C538 C 0.94618 0.53848 0.43388 0.0
C539 C 0.97635 0.51789 0.43626 0.0
C540 C 0.00865 0.5341 0.43966 0.0
C541 C 0.01149 0.56989 0.43805 0.0
C542 C 0.00043 0.42262 0.43394 0.0
C543 C 0.98107 0.41188 0.41679 0.0
C544 C -0.00242 0.45678 0.44112 0.0
C545 C 0.97565 0.48055 0.43105 0.0
C546 C 0.95641 0.46947 0.41389 0.0
C547 C 0.95898 0.43545 0.40691 0.0
H548 H 0.57674 0.04359 0.41244 0.0
H549 H 0.57181 0.93503 0.39479 0.0
H550 H 0.51294 0.04621 0.41219 0.0
H551 H 0.50864 0.93793 0.39406 0.0
H552 H 0.39326 0.94883 0.40425 0.0
H553 H 0.45505 0.94643 0.41372 0.0
H554 H 0.47246 0.0438 0.38296 0.0
H555 H 0.41107 0.04658 0.37392 0.0
C556 C 0.56205 0.0203 0.40873 0.0
C557 C 0.57905 0.98932 0.40328 0.0
C558 C 0.52569 0.02179 0.40856 0.0
C559 C 0.50606 -0.00767 0.40294 0.0
C560 C 0.52314 0.96092 0.39864 0.0
C561 C 0.55934 0.95941 0.39883 0.0
C562 C 0.41039 0.96965 0.39955 0.0
C563 C 0.3976 -0.00226 0.38825 0.0
C564 C 0.44557 0.96837 0.40504 0.0
C565 C 0.4683 -0.00489 0.39921 0.0
C566 C 0.45533 0.02326 0.38805 0.0
C567 C 0.42027 0.02459 0.38264 0.0
H568 H 0.0524 0.40387 0.67544 0.0
H569 H 0.94156 0.40432 0.68746 0.0
H570 H 0.05156 0.46671 0.67165 0.0
H571 H 0.94083 0.46741 0.68482 0.0
H572 H 0.94186 0.57757 0.66735 0.0
H573 H 0.94602 0.51489 0.66267 0.0
H574 H 0.04653 0.5158 0.69332 0.0
H575 H 0.043 0.57894 0.6968 0.0
C576 C 0.02789 0.4176 0.67735 0.0
C577 C -0.00294 0.39967 0.68189 0.0
C578 C 0.02742 0.45349 0.67525 0.0
C579 C -0.00378 0.47204 0.67805 0.0
C580 C 0.9652 0.45382 0.68219 0.0
C581 C 0.96557 0.4178 0.68387 0.0
C582 C 0.96502 0.56422 0.67277 0.0
C583 C -0.00801 0.58249 0.68261 0.0
C584 C 0.96733 0.52845 0.67021 0.0
C585 C -0.00373 0.51034 0.67795 0.0
C586 C 0.02404 0.52904 0.68699 0.0
C587 C 0.02204 0.56505 0.6891 0.0
H588 H 0.55299 0.02717 0.69199 0.0
H589 H 0.58699 0.97405 0.6372 0.0
H590 H 0.49544 0.03516 0.67716 0.0
H591 H 0.52926 0.98303 0.62182 0.0
H592 H 0.40929 0.95471 0.62666 0.0
H593 H 0.47219 0.96018 0.62761 0.0
H594 H 0.46203 0.06499 0.65138 0.0
H595 H 0.39846 0.05872 0.65121 0.0
C596 C 0.54791 0.01711 0.67674 0.0
C597 C 0.57386 -0.00059 0.66584 0.0
C598 C 0.51527 0.02241 0.66803 0.0
C599 C 0.50808 0.01048 0.6481 0.0
C600 C 0.53415 -0.00741 0.63718 0.0
C601 C 0.56686 0.98693 0.64605 0.0
C602 C 0.42053 0.97934 0.63146 0.0
C603 C 0.39951 0.00582 0.63966 0.0
C604 C 0.45661 0.98262 0.63181 0.0
C605 C 0.47195 0.01253 0.64031 0.0
C606 C 0.45067 0.04121 0.64536 0.0
C607 C 0.4144 0.0378 0.64513 0.0
H608 H 0.54112 0.89383 0.8913 0.0
H609 H 0.4293 0.88879 0.89944 0.0
H610 H 0.53923 0.95654 0.89651 0.0
H611 H 0.42746 0.95121 0.90566 0.0
H612 H 0.43583 0.0656 0.88438 0.0
H613 H 0.43328 0.00229 0.88595 0.0
H614 H 0.52982 0.00161 0.92069 0.0
H615 H 0.5331 0.06457 0.91802 0.0
C616 C 0.51628 0.90618 0.89454 0.0
C617 C 0.48535 0.88686 0.89474 0.0
C618 C 0.51515 0.94197 0.89771 0.0
C619 C 0.48312 0.95878 0.90152 0.0
C620 C 0.45238 0.93907 0.90242 0.0
C621 C 0.45346 0.90341 0.89889 0.0
C622 C 0.45601 0.05173 0.89264 0.0
C623 C 0.48488 0.06936 0.90081 0.0
C624 C 0.45458 0.01561 0.89363 0.0
C625 C 0.48171 -0.00302 0.90317 0.0
C626 C 0.5091 0.01519 0.91275 0.0
C627 C 0.51088 0.05111 0.91134 0.0
H628 H 0.9003 0.46059 0.94989 0.0
H629 H 0.92239 0.48195 0.8867 0.0
H630 H 0.96199 0.47121 0.95868 0.0
H631 H 0.98346 0.49224 0.89525 0.0
H632 H 0.07678 0.54466 0.91323 0.0
H633 H 0.01307 0.54094 0.91553 0.0
H634 H 0.02266 0.44651 0.95031 0.0
H635 H 0.08605 0.4506 0.94821 0.0
C636 C 0.91872 0.46615 0.93785 0.0
C637 C 0.90723 0.4702 0.91765 0.0
C638 C 0.95361 0.4729 0.94289 0.0
C639 C 0.97685 0.48391 0.92773 0.0
C640 C 0.96565 0.48515 0.90732 0.0
C641 C 0.93106 0.47847 0.90234 0.0
C642 C 0.06516 0.52429 0.92226 0.0
C643 C 0.0857 0.49761 0.93026 0.0
C644 C 0.02889 0.52187 0.9234 0.0
C645 C 0.0133 0.49282 0.93256 0.0
C646 C 0.03412 0.46896 0.94307 0.0
C647 C 0.07027 0.4713 0.94184 0.0
H648 H 0.54402 0.89913 0.13805 0.0
H649 H 0.43365 0.89407 0.15111 0.0
H650 H 0.54036 0.9616 0.13505 0.0
H651 H 0.42954 0.95717 0.1473 0.0
H652 H 0.45929 0.05469 0.1854 0.0
H653 H 0.45306 -0.00469 0.1736 0.0
H654 H 0.52039 0.0168 0.12238 0.0
H655 H 0.52723 0.07685 0.13469 0.0
C656 C 0.51869 0.91143 0.13964 0.0
C657 C 0.48935 0.8923 0.14564 0.0
C658 C 0.5165 0.94721 0.13761 0.0
C659 C 0.48488 0.96429 0.14155 0.0
C660 C 0.45445 0.94453 0.14472 0.0
C661 C 0.4567 0.90855 0.14684 0.0
C662 C 0.4728 0.04674 0.17162 0.0
C663 C 0.49411 0.06999 0.16107 0.0
C664 C 0.46866 0.01291 0.16461 0.0
C665 C 0.4856 0.0016 0.14679 0.0
C666 C 0.50692 0.02495 0.13612 0.0
C667 C 0.51125 0.059 0.14327 0.0
H668 H 0.91628 0.42845 0.19855 0.0
H669 H 0.90083 0.52701 0.16859 0.0
H670 H 0.97859 0.43243 0.19274 0.0
H671 H 0.96353 0.53052 0.1622 0.0
H672 H 0.07575 0.54588 0.18742 0.0
H673 H 0.01301 0.5403 0.18461 0.0
H674 H 0.0246 0.43214 0.16733 0.0
H675 H 0.08802 0.43748 0.17077 0.0
C676 C 0.9262 0.4508 0.19049 0.0
C677 C 0.9039 0.47769 0.18425 0.0
C678 C 0.96185 0.45284 0.18694 0.0
C679 C 0.97583 0.48171 0.17696 0.0
C680 C 0.95337 0.50813 0.17011 0.0
C681 C 0.91762 0.50619 0.1738 0.0
C682 C 0.06503 0.52093 0.18285 0.0
C683 C 0.08664 0.49192 0.17964 0.0
C684 C 0.02905 0.51788 0.18099 0.0
C685 C 0.01398 0.48579 0.17578 0.0
C686 C 0.03566 0.4571 0.1716 0.0
C687 C 0.07182 0.46013 0.17355 0.0
H688 H 0.00876 0.33904 0.30988 0.0
H689 H 0.07756 0.37438 0.35831 0.0
H690 H 0.04432 0.36817 0.28508 0.0
H691 H 0.11219 0.40573 0.33336 0.0
H692 H 0.18923 0.42346 0.28105 0.0
H693 H 0.15284 0.39825 0.30707 0.0
H694 H 0.06104 0.42065 0.27087 0.0
H695 H 0.09768 0.44389 0.24412 0.0
C696 C 0.03143 0.35303 0.3154 0.0
C697 C 0.04025 0.35361 0.33634 0.0
C698 C 0.05169 0.37046 0.30102 0.0
C699 C 0.08138 0.3896 0.30698 0.0
C700 C 0.08989 0.39091 0.32799 0.0
C701 C 0.06969 0.37314 0.34243 0.0
C702 C 0.16136 0.42284 0.27837 0.0
C703 C 0.14683 0.43543 0.26002 0.0
C704 C 0.14025 0.40871 0.29363 0.0
C705 C 0.10374 0.40697 0.29124 0.0
C706 C 0.08905 0.4207 0.27322 0.0
C707 C 0.11021 0.43456 0.25785 0.0
H708 H 0.52397 0.09567 0.24166 0.0
H709 H 0.60171 0.1765 0.24601 0.0
H710 H 0.55211 0.06546 0.27043 0.0
H711 H 0.62939 0.14684 0.27444 0.0
H712 H 0.69388 0.06881 0.30905 0.0
H713 H 0.66318 0.0931 0.28003 0.0
H714 H 0.56451 0.07304 0.30911 0.0
H715 H 0.59555 0.04903 0.33876 0.0
C716 C 0.5471 0.1069 0.24865 0.0
C717 C 0.56043 0.13864 0.24149 0.0
C718 C 0.56306 0.08976 0.26525 0.0
C719 C 0.59316 0.1036 0.27482 0.0
C720 C 0.60652 0.13512 0.26743 0.0
C721 C 0.5904 0.15237 0.25116 0.0
C722 C 0.66567 0.06968 0.30953 0.0
C723 C 0.64746 0.05744 0.32669 0.0
C724 C 0.64796 0.0836 0.29271 0.0
C725 C 0.61129 0.08561 0.29223 0.0
C726 C 0.59277 0.07191 0.30889 0.0
C727 C 0.61062 0.0581 0.32594 0.0
H728 H 0.8859 0.54966 0.24556 0.0
H729 H 0.8014 0.5327 0.28761 0.0
H730 H 0.9198 0.57764 0.2729 0.0
H731 H 0.83484 0.56119 0.31478 0.0
H732 H 0.91319 0.59458 0.36436 0.0
H733 H 0.88559 0.55851 0.33764 0.0
H734 H 0.91835 0.63183 0.29209 0.0
H735 H 0.94608 0.66718 0.31858 0.0
C736 C 0.87464 0.5515 0.26065 0.0
C737 C 0.84067 0.53903 0.26421 0.0
C738 C 0.89399 0.56789 0.27636 0.0
C739 C 0.88013 0.57202 0.29618 0.0
C740 C 0.84665 0.55839 0.29987 0.0
C741 C 0.82723 0.54231 0.28415 0.0
C742 C 0.91495 0.60262 0.3486 0.0
C743 C 0.9317 0.63398 0.34371 0.0
C744 C 0.89882 0.58213 0.33325 0.0
C745 C 0.89946 0.59218 0.31256 0.0
C746 C 0.91743 0.62288 0.3077 0.0
C747 C 0.93313 0.64344 0.32299 0.0
H748 H 0.39252 0.80031 0.24103 0.0
H749 H 0.45539 0.88971 0.22662 0.0
H750 H 0.36116 0.83395 0.26638 0.0
H751 H 0.42274 0.92433 0.25198 0.0
H752 H 0.37885 0.9613 0.31608 0.0
H753 H 0.4125 0.93138 0.28944 0.0
H754 H 0.31887 0.87898 0.26896 0.0
H755 H 0.28587 0.90739 0.29569 0.0
C756 C 0.39978 0.82726 0.24326 0.0
C757 C 0.42691 0.84204 0.23178 0.0
C758 C 0.38134 0.84682 0.25774 0.0
C759 C 0.3891 0.8821 0.26133 0.0
C760 C 0.41612 0.89719 0.2498 0.0
C761 C 0.43464 0.87746 0.2351 0.0
C762 C 0.36544 0.94328 0.30598 0.0
C763 C 0.32937 0.93694 0.30833 0.0
C764 C 0.38474 0.92636 0.2905 0.0
C765 C 0.36862 0.90243 0.277 0.0
C766 C 0.33251 0.89671 0.27916 0.0
C767 C 0.31332 0.91351 0.29451 0.0
H768 H 0.09138 0.52719 0.84838 0.0
H769 H 0.18348 0.58568 0.83286 0.0
H770 H 0.05806 0.55894 0.82222 0.0
H771 H 0.1511 0.61605 0.80673 0.0
H772 H 0.07979 0.69223 0.77684 0.0
H773 H 0.10722 0.65955 0.80383 0.0
H774 H 0.05173 0.56732 0.78438 0.0
H775 H 0.02277 0.60079 0.7574 0.0
C776 C 0.10452 0.54676 0.83948 0.0
C777 C 0.1403 0.55356 0.84277 0.0
C778 C 0.08553 0.56474 0.82432 0.0
C779 C 0.10174 0.59028 0.81228 0.0
C780 C 0.1374 0.59702 0.81576 0.0
C781 C 0.15623 0.57913 0.83071 0.0
C782 C 0.07276 0.66517 0.7783 0.0
C783 C 0.04869 0.64947 0.76471 0.0
C784 C 0.08901 0.64615 0.79379 0.0
C785 C 0.08211 0.61054 0.79633 0.0
C786 C 0.05764 0.59472 0.78302 0.0
C787 C 0.04127 0.61388 0.76737 0.0
H788 H 0.44707 0.1709 0.79309 0.0
H789 H 0.42477 0.08594 0.83348 0.0
H790 H 0.42162 0.13852 0.76459 0.0
H791 H 0.40005 0.05288 0.80472 0.0
H792 H 0.31598 0.02705 0.75564 0.0
H793 H 0.34875 0.05341 0.78364 0.0
H794 H 0.42555 0.09021 0.74093 0.0
H795 H 0.39186 0.06422 0.71264 0.0
C796 C 0.43694 0.14516 0.79592 0.0
C797 C 0.43772 0.13139 0.81581 0.0
C798 C 0.42263 0.1263 0.77941 0.0
C799 C 0.40841 0.09294 0.78214 0.0
C800 C 0.41022 0.07864 0.80193 0.0
C801 C 0.42477 0.0975 0.81847 0.0
C802 C 0.33992 0.04065 0.75215 0.0
C803 C 0.35094 0.04375 0.73173 0.0
C804 C 0.35904 0.05555 0.76834 0.0
C805 C 0.38995 0.07428 0.76477 0.0
C806 C 0.40169 0.07643 0.74438 0.0
C807 C 0.38257 0.06121 0.72811 0.0
H808 H 0.89186 0.42493 0.85377 0.0
H809 H 0.795 0.41845 0.82007 0.0
H810 H 0.92148 0.39245 0.82626 0.0
H811 H 0.82422 0.38646 0.79279 0.0
H812 H 0.87727 0.29728 0.75884 0.0
H813 H 0.85108 0.32895 0.78719 0.0
H814 H 0.93876 0.39935 0.78858 0.0
H815 H 0.9654 0.36707 0.75998 0.0
C816 C 0.87685 0.4163 0.84062 0.0
C817 C 0.84102 0.4243 0.83916 0.0
C818 C 0.89387 0.39805 0.82474 0.0
C819 C 0.87531 0.3868 0.80722 0.0
C820 C 0.83939 0.39439 0.80604 0.0
C821 C 0.82261 0.41295 0.82167 0.0
C822 C 0.89125 0.31931 0.76521 0.0
C823 C 0.92364 0.32942 0.75708 0.0
C824 C 0.87601 0.33772 0.78144 0.0
C825 C 0.8927 0.3668 0.79026 0.0
C826 C 0.92526 0.37692 0.78229 0.0
C827 C 0.9404 0.35864 0.76577 0.0
H828 H 0.51778 0.85828 0.81677 0.0
H829 H 0.61093 0.79508 0.81682 0.0
H830 H 0.54356 0.8954 0.79049 0.0
H831 H 0.63645 0.8318 0.79073 0.0
H832 H 0.6859 0.93131 0.76462 0.0
H833 H 0.65818 0.8932 0.7893 0.0
H834 H 0.56387 0.89243 0.7529 0.0
H835 H 0.59192 0.93079 0.72803 0.0
C836 C 0.54369 0.85231 0.81119 0.0
C837 C 0.56219 0.8236 0.81889 0.0
C838 C 0.55834 0.87337 0.79602 0.0
C839 C 0.59209 0.86658 0.78849 0.0
C840 C 0.6105 0.83791 0.79624 0.0
C841 C 0.59572 0.81665 0.81112 0.0
C842 C 0.65927 0.92299 0.76185 0.0
C843 C 0.64113 0.93411 0.74435 0.0
C844 C 0.64342 0.90097 0.77594 0.0
C845 C 0.60875 0.88976 0.77313 0.0
C846 C 0.59052 0.90078 0.7556 0.0
C847 C 0.60666 0.92244 0.74126 0.0
H848 H 0.05027 0.21633 0.43295 0.0
H849 H 0.10218 0.26687 0.38312 0.0
H850 H 0.09462 0.17031 0.43251 0.0
H851 H 0.14654 0.22139 0.38266 0.0
H852 H 0.22764 0.13758 0.39006 0.0
H853 H 0.19386 0.18854 0.40023 0.0
H854 H 0.10141 0.1249 0.4048 0.0
H855 H 0.13503 0.07391 0.39432 0.0
C856 C 0.0722 0.21845 0.42265 0.0
C857 C 0.07334 0.24511 0.40823 0.0
C858 C 0.09721 0.19195 0.42217 0.0
C859 C 0.12369 0.19206 0.40735 0.0
C860 C 0.12661 0.2207 0.39433 0.0
C861 C 0.1014 0.24686 0.39465 0.0
C862 C 0.20001 0.13447 0.39302 0.0
C863 C 0.18385 0.10176 0.391 0.0
C864 C 0.18082 0.16361 0.39908 0.0
C865 C 0.14511 0.16065 0.40343 0.0
C866 C 0.12909 0.12784 0.40193 0.0
C867 C 0.14826 0.09869 0.39576 0.0
H868 H 0.83642 0.24126 0.41452 0.0
H869 H 0.90493 0.15173 0.41173 0.0
H870 H 0.78694 0.20318 0.42087 0.0
H871 H 0.85541 0.11414 0.41934 0.0
H872 H 0.76592 0.06865 0.45716 0.0
H873 H 0.81048 0.11301 0.45272 0.0
H874 H 0.75885 0.14767 0.39784 0.0
H875 H 0.71428 0.10268 0.40189 0.0
C876 C 0.84099 0.21352 0.41503 0.0
C877 C 0.87474 0.19952 0.41237 0.0
C878 C 0.81266 0.1919 0.41889 0.0
C879 C 0.8177 0.15606 0.42066 0.0
C880 C 0.85122 0.14192 0.41822 0.0
C881 C 0.87948 0.16343 0.41394 0.0
C882 C 0.7635 0.08613 0.44437 0.0
C883 C 0.73687 0.08188 0.42968 0.0
C884 C 0.78913 0.11132 0.44181 0.0
C885 C 0.78808 0.13309 0.42482 0.0
C886 C 0.76003 0.13089 0.41102 0.0
C887 C 0.73463 0.10525 0.41336 0.0
H888 H 0.89191 0.734 0.40099 0.0
H889 H 0.91772 0.79837 0.45344 0.0
H890 H 0.85525 0.78065 0.38754 0.0
H891 H 0.8813 0.8448 0.43987 0.0
H892 H 0.85036 0.93269 0.39733 0.0
H893 H 0.88652 0.88357 0.40773 0.0
H894 H 0.79932 0.81416 0.39827 0.0
H895 H 0.76272 0.86304 0.38864 0.0
C896 C 0.8894 0.75788 0.40976 0.0
C897 C 0.90777 0.76256 0.42825 0.0
C898 C 0.86854 0.78453 0.40203 0.0
C899 C 0.86609 0.81639 0.41252 0.0
C900 C 0.88338 0.82063 0.43133 0.0
C901 C 0.90385 0.79388 0.4392 0.0
C902 C 0.83894 0.90695 0.39731 0.0
C903 C 0.80353 0.90196 0.3923 0.0
C904 C 0.85962 0.8789 0.40327 0.0
C905 C 0.84544 0.8453 0.40404 0.0
C906 C 0.81083 0.83985 0.39773 0.0
C907 C 0.78999 0.86791 0.39204 0.0
H908 H 0.09952 0.80343 0.42919 0.0
H909 H 0.10874 0.78225 0.36456 0.0
H910 H 0.15352 0.83668 0.42853 0.0
H911 H 0.16268 0.81618 0.36375 0.0
H912 H 0.27315 0.85561 0.37198 0.0
H913 H 0.2233 0.81653 0.37542 0.0
H914 H 0.17341 0.8911 0.41556 0.0
H915 H 0.22345 0.92933 0.41273 0.0
C916 C 0.11286 0.80638 0.41477 0.0
C917 C 0.09972 0.79072 0.39685 0.0
C918 C 0.14387 0.82529 0.4144 0.0
C919 C 0.16235 0.82912 0.39609 0.0
C920 C 0.14932 0.81325 0.37817 0.0
C921 C 0.11834 0.7941 0.37857 0.0
C922 C 0.25184 0.86327 0.38187 0.0
C923 C 0.25203 0.89568 0.39192 0.0
C924 C 0.22313 0.84109 0.38364 0.0
C925 C 0.19423 0.85092 0.39555 0.0
C926 C 0.19531 0.88261 0.40636 0.0
C927 C 0.22392 0.90467 0.40462 0.0
H928 H 0.24412 0.84091 0.67345 0.0
H929 H 0.15199 0.90495 0.6801 0.0
H930 H 0.20804 0.78882 0.67486 0.0
H931 H 0.11591 0.85281 0.68143 0.0
H932 H 0.05847 0.75653 0.66078 0.0
H933 H 0.09775 0.80589 0.65785 0.0
H934 H 0.17087 0.75641 0.69882 0.0
H935 H 0.13162 0.70673 0.70166 0.0
C936 C 0.21622 0.84386 0.67554 0.0
C937 C 0.20086 0.87704 0.67672 0.0
C938 C 0.19559 0.81402 0.67625 0.0
C939 C 0.15918 0.81677 0.67808 0.0
C940 C 0.14387 0.84992 0.6796 0.0
C941 C 0.1645 0.87975 0.67891 0.0
C942 C 0.08306 0.75602 0.66904 0.0
C943 C 0.09177 0.72797 0.68167 0.0
C944 C 0.10544 0.78437 0.66744 0.0
C945 C 0.13705 0.78526 0.6784 0.0
C946 C 0.14668 0.7564 0.69017 0.0
C947 C 0.12422 0.72795 0.69178 0.0
H948 H 0.20731 0.03695 0.66282 0.0
H949 H 0.26139 0.13179 0.6478 0.0
H950 H 0.15498 0.06962 0.67032 0.0
H951 H 0.208 0.16476 0.6544 0.0
H952 H 0.1236 0.2167 0.69159 0.0
H953 H 0.17461 0.18307 0.68248 0.0
H954 H 0.10816 0.102 0.65772 0.0
H955 H 0.05683 0.13442 0.66852 0.0
C956 C 0.20778 0.06477 0.66058 0.0
C957 C 0.23855 0.08182 0.6547 0.0
C958 C 0.17758 0.08357 0.66486 0.0
C959 C 0.17717 0.11989 0.66309 0.0
C960 C 0.20759 0.13686 0.65637 0.0
C961 C 0.23809 0.11801 0.6524 0.0
C962 C 0.11967 0.19126 0.68476 0.0
C963 C 0.08588 0.17817 0.68103 0.0
C964 C 0.14911 0.17229 0.67905 0.0
C965 C 0.14564 0.13997 0.66911 0.0
C966 C 0.11189 0.12669 0.66549 0.0
C967 C 0.08238 0.14544 0.67152 0.0
H968 H 0.73594 0.14773 0.66265 0.0
H969 H 0.83003 0.08823 0.67314 0.0
H970 H 0.77076 0.20012 0.65829 0.0
H971 H 0.86489 0.14065 0.66861 0.0
H972 H 0.92133 0.23409 0.64736 0.0
H973 H 0.88177 0.18496 0.64316 0.0
H974 H 0.80644 0.23647 0.68195 0.0
H975 H 0.84594 0.28574 0.68611 0.0
C976 C 0.76408 0.14588 0.66407 0.0
C977 C 0.78031 0.11402 0.66859 0.0
C978 C 0.78395 0.17582 0.66146 0.0
C979 C 0.82044 0.17445 0.66316 0.0
C980 C 0.83678 0.14236 0.66694 0.0
C981 C 0.81688 0.11239 0.66961 0.0
C982 C 0.89604 0.23522 0.65468 0.0
C983 C 0.88694 0.26341 0.66739 0.0
C984 C 0.8735 0.20705 0.65232 0.0
C985 C 0.84141 0.20665 0.66255 0.0
C986 C 0.83104 0.23613 0.67385 0.0
C987 C 0.85364 0.26436 0.67623 0.0
H988 H 0.87221 0.80621 0.71889 0.0
H989 H 0.8939 0.79875 0.65432 0.0
H990 H 0.82083 0.84142 0.71161 0.0
H991 H 0.84226 0.83384 0.64698 0.0
H992 H 0.77681 0.93824 0.6506 0.0
H993 H 0.82223 0.89361 0.65159 0.0
H994 H 0.76295 0.83759 0.69662 0.0
H995 H 0.71832 0.88298 0.69599 0.0
C996 C 0.86587 0.812 0.70314 0.0
C997 C 0.88719 0.79996 0.68721 0.0
C998 C 0.83627 0.83189 0.69892 0.0
C999 C 0.82719 0.84002 0.67867 0.0
C1000 C 0.84864 0.82814 0.66273 0.0
C1001 C 0.87833 0.80829 0.66696 0.0
C1002 C 0.7729 0.91551 0.65996 0.0
C1003 C 0.74415 0.91353 0.67303 0.0
C1004 C 0.79895 0.89007 0.66065 0.0
C1005 C 0.7965 0.86247 0.67452 0.0
C1006 C 0.76592 0.85896 0.68613 0.0
C1007 C 0.7401 0.88451 0.68552 0.0
H1008 H 0.64216 0.77916 0.88894 0.0
H1009 H 0.56793 0.72601 0.92709 0.0
H1010 H 0.68429 0.73242 0.89444 0.0
H1011 H 0.60948 0.67907 0.9321 0.0
H1012 H 0.69839 0.60449 0.94413 0.0
H1013 H 0.66559 0.659 0.94537 0.0
H1014 H 0.68321 0.67281 0.88082 0.0
H1015 H 0.7159 0.6186 0.87961 0.0
C1016 C 0.63515 0.75794 0.89887 0.0
C1017 C 0.60158 0.75583 0.90727 0.0
C1018 C 0.65912 0.73106 0.90186 0.0
C1019 C 0.64989 0.7018 0.91336 0.0
C1020 C 0.6174 0.70125 0.92318 0.0
C1021 C 0.59348 0.72804 0.92017 0.0
C1022 C 0.695 0.61913 0.93021 0.0
C1023 C 0.70948 0.60725 0.91174 0.0
C1024 C 0.67649 0.6504 0.93095 0.0
C1025 C 0.67213 0.67032 0.91324 0.0
C1026 C 0.68684 0.65849 0.89483 0.0
C1027 C 0.70531 0.6273 0.8941 0.0
H1028 H 0.4313 0.62247 0.90532 0.0
H1029 H 0.36609 0.70495 0.88177 0.0
H1030 H 0.37931 0.59175 0.9164 0.0
H1031 H 0.31449 0.67296 0.89114 0.0
H1032 H 0.22617 0.62521 0.92507 0.0
H1033 H 0.28052 0.65666 0.91914 0.0
H1034 H 0.33192 0.55974 0.90386 0.0
H1035 H 0.27861 0.52861 0.91069 0.0
C1036 C 0.40597 0.63389 0.90227 0.0
C1037 C 0.4031 0.66614 0.89249 0.0
C1038 C 0.37608 0.61612 0.90847 0.0
C1039 C 0.34259 0.62994 0.90478 0.0
C1040 C 0.33977 0.66181 0.89464 0.0
C1041 C 0.36956 0.67979 0.88876 0.0
C1042 C 0.24932 0.61071 0.9208 0.0
C1043 C 0.24808 0.57448 0.91842 0.0
C1044 C 0.28039 0.62868 0.9172 0.0
C1045 C 0.31061 0.61079 0.91079 0.0
C1046 C 0.30948 0.57442 0.90908 0.0
C1047 C 0.2787 0.5565 0.91298 0.0
H1048 H 0.34707 0.19323 0.87679 0.0
H1049 H 0.41549 0.24403 0.92048 0.0
H1050 H 0.30914 0.24431 0.87687 0.0
H1051 H 0.37754 0.29479 0.92064 0.0
H1052 H 0.33161 0.39366 0.89395 0.0
H1053 H 0.36533 0.3399 0.895 0.0
H1054 H 0.26975 0.28062 0.8982 0.0
H1055 H 0.236 0.33436 0.89725 0.0
C1056 C 0.3536 0.21496 0.88673 0.0
C1057 C 0.38449 0.21487 0.89841 0.0
C1058 C 0.33193 0.24422 0.88674 0.0
C1059 C 0.34083 0.27376 0.89843 0.0
C1060 C 0.37056 0.27273 0.91106 0.0
C1061 C 0.39215 0.24358 0.91106 0.0
C1062 C 0.31783 0.36915 0.89485 0.0
C1063 C 0.2812 0.36825 0.89552 0.0
C1064 C 0.33709 0.3384 0.89554 0.0
C1065 C 0.32012 0.30613 0.89693 0.0
C1066 C 0.28349 0.30511 0.89701 0.0
C1067 C 0.2642 0.33589 0.89636 0.0
H1068 H 0.75661 0.37044 0.89461 0.0
H1069 H 0.6904 0.43562 0.93173 0.0
H1070 H 0.71082 0.32638 0.89277 0.0
H1071 H 0.64462 0.3913 0.93051 0.0
H1072 H 0.55751 0.33546 0.89404 0.0
H1073 H 0.60615 0.37371 0.90296 0.0
H1074 H 0.67386 0.28441 0.90912 0.0
H1075 H 0.62533 0.24632 0.89991 0.0
C1076 C 0.7328 0.37443 0.90321 0.0
C1077 C 0.727 0.40584 0.91361 0.0
C1078 C 0.70646 0.34938 0.90208 0.0
C1079 C 0.67384 0.35557 0.91125 0.0
C1080 C 0.66921 0.38604 0.92298 0.0
C1081 C 0.69553 0.41111 0.92401 0.0
C1082 C 0.58278 0.32408 0.89735 0.0
C1083 C 0.58773 0.28799 0.89601 0.0
C1084 C 0.61059 0.34591 0.90265 0.0
C1085 C 0.64389 0.33208 0.90688 0.0
C1086 C 0.64869 0.29592 0.90573 0.0
C1087 C 0.62093 0.27413 0.90034 0.0
H1088 H 0.54318 0.2599 0.16611 0.0
H1089 H 0.63821 0.20131 0.15703 0.0
H1090 H 0.57652 0.31144 0.17341 0.0
H1091 H 0.67224 0.2542 0.16276 0.0
H1092 H 0.72455 0.34176 0.19732 0.0
H1093 H 0.69106 0.2908 0.18832 0.0
H1094 H 0.6099 0.35621 0.16312 0.0
H1095 H 0.64135 0.40727 0.17453 0.0
C1096 C 0.57132 0.25824 0.165 0.0
C1097 C 0.58805 0.22637 0.16102 0.0
C1098 C 0.59063 0.28813 0.16913 0.0
C1099 C 0.62733 0.28736 0.16883 0.0
C1100 C 0.64408 0.25578 0.16371 0.0
C1101 C 0.62463 0.22548 0.16013 0.0
C1102 C 0.69905 0.34552 0.19049 0.0
C1103 C 0.68574 0.37908 0.18692 0.0
C1104 C 0.68014 0.31598 0.18475 0.0
C1105 C 0.64772 0.31899 0.17473 0.0
C1106 C 0.63446 0.35253 0.17107 0.0
C1107 C 0.65289 0.38208 0.17736 0.0
H1108 H 0.58173 0.64321 0.18603 0.0
H1109 H 0.64498 0.73457 0.17649 0.0
H1110 H 0.63423 0.60722 0.18548 0.0
H1111 H 0.6974 0.69861 0.17605 0.0
H1112 H 0.78367 0.62267 0.19945 0.0
H1113 H 0.73352 0.66188 0.19856 0.0
H1114 H 0.6778 0.58865 0.16005 0.0
H1115 H 0.72763 0.5494 0.16105 0.0
C1116 C 0.60682 0.65559 0.18384 0.0
C1117 C 0.6092 0.69172 0.18135 0.0
C1118 C 0.63685 0.63501 0.18345 0.0
C1119 C 0.66988 0.65011 0.18053 0.0
C1120 C 0.67235 0.6863 0.17849 0.0
C1121 C 0.64232 0.70688 0.17885 0.0
C1122 C 0.76097 0.61525 0.19048 0.0
C1123 C 0.75943 0.58277 0.18053 0.0
C1124 C 0.73224 0.63768 0.19001 0.0
C1125 C 0.70153 0.628 0.17956 0.0
C1126 C 0.7008 0.5964 0.16866 0.0
C1127 C 0.72945 0.57404 0.16912 0.0
H1128 H 0.35591 0.55524 0.18624 0.0
H1129 H 0.26928 0.62643 0.19369 0.0
H1130 H 0.39194 0.60287 0.17388 0.0
H1131 H 0.30572 0.67396 0.18195 0.0
H1132 H 0.39948 0.75218 0.1765 0.0
H1133 H 0.36191 0.70766 0.19108 0.0
H1134 H 0.38638 0.6386 0.14079 0.0
H1135 H 0.4239 0.68294 0.12612 0.0
C1136 C 0.34474 0.58108 0.18556 0.0
C1137 C 0.30966 0.58695 0.1908 0.0
C1138 C 0.3653 0.60824 0.17844 0.0
C1139 C 0.35128 0.64181 0.17668 0.0
C1140 C 0.31705 0.64825 0.1832 0.0
C1141 C 0.29634 0.62103 0.19011 0.0
C1142 C 0.39639 0.72769 0.16838 0.0
C1143 C 0.41477 0.72094 0.15022 0.0
C1144 C 0.37498 0.70227 0.17676 0.0
C1145 C 0.3719 0.66963 0.16721 0.0
C1146 C 0.38896 0.66342 0.14861 0.0
C1147 C 0.41006 0.68894 0.1401 0.0
H1148 H 0.27289 0.42882 0.18664 0.0
H1149 H 0.20652 0.3467 0.16319 0.0
H1150 H 0.32237 0.39033 0.18614 0.0
H1151 H 0.25728 0.30781 0.16173 0.0
H1152 H 0.34832 0.23955 0.18387 0.0
H1153 H 0.29702 0.2767 0.18289 0.0
H1154 H 0.36155 0.36291 0.16434 0.0
H1155 H 0.41311 0.32673 0.16715 0.0
C1156 C 0.26897 0.40263 0.18091 0.0
C1157 C 0.23578 0.39091 0.17472 0.0
C1158 C 0.29758 0.38048 0.18055 0.0
C1159 C 0.29406 0.34604 0.17363 0.0
C1160 C 0.26085 0.33416 0.16731 0.0
C1161 C 0.23184 0.35639 0.168 0.0
C1162 C 0.35172 0.26664 0.18004 0.0
C1163 C 0.38506 0.28021 0.17588 0.0
C1164 C 0.32211 0.28777 0.17905 0.0
C1165 C 0.32507 0.32284 0.17358 0.0
C1166 C 0.3583 0.33617 0.16898 0.0
C1167 C 0.38793 0.31526 0.17034 0.0
H1168 H 0.94312 0.3514 0.50183 0.0
H1169 H 0.01905 0.27077 0.49061 0.0
H1170 H 0.9551 0.34883 0.53823 0.0
H1171 H 0.03067 0.26728 0.52741 0.0
H1172 H 0.06447 0.29056 0.59339 0.0
H1173 H 0.05489 0.294 0.55689 0.0
H1174 H 0.94555 0.31504 0.56718 0.0
H1175 H 0.95536 0.31347 0.60376 0.0
C1176 C 0.96229 0.33287 0.50719 0.0
C1177 C 0.97988 0.31106 0.49325 0.0
C1178 C 0.96907 0.33122 0.52819 0.0
C1179 C -0.0065 0.30743 0.53608 0.0
C1180 C 0.01184 0.28616 0.52205 0.0
C1181 C 0.00523 0.28808 0.5009 0.0
C1182 C 0.03835 0.29631 0.58808 0.0
C1183 C 0.01083 0.30205 0.602 0.0
C1184 C 0.03278 0.29784 0.56689 0.0
C1185 C -0.00055 0.30497 0.55879 0.0
C1186 C 0.97181 0.31015 0.57266 0.0
C1187 C 0.9774 0.30884 0.59386 0.0
H1188 H 0.6286 0.04241 0.58179 0.0
H1189 H 0.70266 0.95965 0.59165 0.0
H1190 H 0.62702 0.02872 0.54552 0.0
H1191 H 0.70152 0.94598 0.555 0.0
H1192 H 0.67098 0.91355 0.48959 0.0
H1193 H 0.66812 0.92373 0.5264 0.0
H1194 H 0.66237 0.03429 0.51609 0.0
H1195 H 0.665 0.02409 0.47946 0.0
C1196 C 0.64479 0.02135 0.57619 0.0
C1197 C 0.66616 0.00246 0.5897 0.0
C1198 C 0.64393 0.0135 0.55528 0.0
C1199 C 0.66451 0.98652 0.54707 0.0
C1200 C 0.68509 0.9668 0.56068 0.0
C1201 C 0.68582 0.97462 0.58173 0.0
C1202 C 0.66901 0.94004 0.49516 0.0
C1203 C 0.66817 0.96794 0.48136 0.0
C1204 C 0.66752 0.94591 0.51634 0.0
C1205 C 0.6651 0.97987 0.52442 0.0
C1206 C 0.66363 0.0077 0.51058 0.0
C1207 C 0.66508 0.00184 0.48942 0.0
H1208 H 0.92417 0.69818 0.59771 0.0
H1209 H 0.03198 0.67155 0.60978 0.0
H1210 H 0.93573 0.6982 0.56138 0.0
H1211 H 0.04359 0.6722 0.57313 0.0
H1212 H 0.05687 0.71637 0.508 0.0
H1213 H 0.04666 0.71287 0.54437 0.0
H1214 H 0.94974 0.65888 0.53283 0.0
H1215 H 0.95993 0.66187 0.49623 0.0
C1216 C 0.95033 0.69194 0.59275 0.0
C1217 C 0.97701 0.68452 0.60702 0.0
C1218 C 0.95694 0.69198 0.57173 0.0
C1219 C 0.99052 0.68494 0.56419 0.0
C1220 C 0.01741 0.67797 0.57836 0.0
C1221 C 0.01074 0.67766 0.59947 0.0
C1222 C 0.03352 0.70326 0.51296 0.0
C1223 C 0.00933 0.68938 0.4987 0.0
C1224 C 0.02771 0.70127 0.53404 0.0
C1225 C -0.00262 0.68562 0.54166 0.0
C1226 C 0.97323 0.67153 0.52754 0.0
C1227 C 0.97914 0.67327 0.50641 0.0
H1228 H 0.26761 0.92894 0.56516 0.0
H1229 H 0.31449 0.02916 0.57714 0.0
H1230 H 0.26839 0.94023 0.52872 0.0
H1231 H 0.31518 0.04054 0.5405 0.0
H1232 H 0.27946 0.06316 0.47497 0.0
H1233 H 0.27809 0.0521 0.5114 0.0
H1234 H 0.30749 0.94532 0.50009 0.0
H1235 H 0.309 0.95644 0.46345 0.0
C1236 C 0.27836 0.95335 0.56008 0.0
C1237 C 0.29124 0.97799 0.57431 0.0
C1238 C 0.27884 0.95981 0.53905 0.0
C1239 C 0.29208 -0.00879 0.53147 0.0
C1240 C 0.30443 0.01617 0.54569 0.0
C1241 C 0.30402 0.00966 0.56679 0.0
C1242 C 0.286 0.03734 0.48013 0.0
C1243 C 0.29462 0.0108 0.46602 0.0
C1244 C 0.28522 0.031 0.50118 0.0
C1245 C 0.29285 -0.00215 0.50889 0.0
C1246 C 0.30105 0.97112 0.4948 0.0
C1247 C 0.30192 0.9775 0.47369 0.0
H1248 H 0.42872 0.81381 0.97961 0.0
H1249 H 0.53091 0.76947 0.96982 0.0
H1250 H 0.44006 0.81646 1.01624 0.0
H1251 H 0.54216 0.7715 1.00647 0.0
H1252 H 0.56528 0.80767 0.0713 0.0
H1253 H 0.55363 0.80866 1.03473 0.0
H1254 H 0.44587 0.78176 0.04583 0.0
H1255 H 0.45757 0.78144 0.0825 0.0
C1256 C 0.45354 0.80437 0.98528 0.0
C1257 C 0.47887 0.79141 0.97167 0.0
C1258 C 0.46006 0.80581 1.00636 0.0
C1259 C 0.49205 0.79415 1.01452 0.0
C1260 C 0.51744 0.78132 1.00086 0.0
C1261 C 0.51099 0.78009 0.97975 0.0
C1262 C 0.5391 0.80193 0.06595 0.0
C1263 C 0.51241 0.79436 0.07992 0.0
C1264 C 0.5324 0.80237 0.0449 0.0
C1265 C 0.49882 0.79502 1.03712 0.0
C1266 C 0.47196 0.78802 0.05114 0.0
C1267 C 0.47864 0.78781 0.07224 0.0
H1268 H 0.21404 0.55455 0.09539 0.0
H1269 H 0.17084 0.45274 0.10624 0.0
H1270 H 0.21346 0.54295 0.05886 0.0
H1271 H 0.17053 0.44106 0.06954 0.0
H1272 H 0.209 0.4192 1.00436 0.0
H1273 H 0.20951 0.43088 0.04089 0.0
H1274 H 0.17383 0.53556 1.03001 0.0
H1275 H 0.17304 0.52382 0.99332 0.0
C1276 C 0.20409 0.52976 0.09007 0.0
C1277 C 0.19227 0.50471 0.10401 0.0
C1278 C 0.20378 0.52311 0.06899 0.0
C1279 C 0.19181 0.49112 0.06111 0.0
C1280 C 0.18032 0.46587 0.07501 0.0
C1281 C 0.18052 0.47258 0.09614 0.0
C1282 C 0.20092 0.44466 1.00965 0.0
C1283 C 0.19076 0.47045 0.99566 0.0
C1284 C 0.20121 0.45135 1.03072 0.0
C1285 C 0.19155 0.48412 1.03854 0.0
C1286 C 0.18182 0.51011 1.02459 0.0
C1287 C 0.1814 0.50338 1.00346 0.0
H1288 H 0.52807 0.15744 0.08637 0.0
H1289 H 0.41892 0.18198 0.07781 0.0
H1290 H 0.5365 0.15916 0.04949 0.0
H1291 H 0.42734 0.18363 0.04108 0.0
H1292 H 0.44822 0.1502 0.97408 0.0
H1293 H 0.43853 0.14864 1.01101 0.0
H1294 H 0.53834 0.19817 1.02121 0.0
H1295 H 0.54789 0.19971 0.98463 0.0
C1296 C 0.50588 0.16347 0.07674 0.0
C1297 C 0.47276 0.16941 0.08536 0.0
C1298 C 0.51071 0.16446 0.05546 0.0
C1299 C 0.48259 0.17147 0.04208 0.0
C1300 C 0.44954 0.17752 0.05072 0.0
C1301 C 0.44473 0.17659 0.07195 0.0
C1302 C 0.46793 0.16103 0.98419 0.0
C1303 C 0.49903 0.17469 0.97618 0.0
C1304 C 0.46242 0.16013 1.00545 0.0
C1305 C 0.48783 0.17291 1.01932 0.0
C1306 C 0.5185 0.18725 1.01121 0.0
C1307 C 0.52396 0.18817 0.99007 0.0
H1308 H 0.78938 0.5454 1.00648 0.0
H1309 H 0.81336 0.43733 0.99546 0.0
H1310 H 0.78689 0.535 0.04297 0.0
H1311 H 0.8113 0.42674 1.03229 0.0
H1312 H 0.77542 0.41379 0.0986 0.0
H1313 H 0.77542 0.42324 0.06194 0.0
H1314 H 0.82286 0.52388 0.07173 0.0
H1315 H 0.82253 0.51445 0.10853 0.0
C1316 C 0.79434 0.51934 1.01186 0.0
C1317 C 0.80195 0.49229 0.99791 0.0
C1318 C 0.79304 0.51338 1.03292 0.0
C1319 C 0.79937 0.4801 0.04087 0.0
C1320 C 0.80602 0.45272 1.02687 0.0
C1321 C 0.80719 0.45872 1.00568 0.0
C1322 C 0.7861 0.43789 0.09301 0.0
C1323 C 0.79914 0.46328 0.10674 0.0
C1324 C 0.78615 0.4433 0.07184 0.0
C1325 C 0.79923 0.4743 0.0636 0.0
C1326 C 0.81204 0.49983 0.07735 0.0
C1327 C 0.8119 0.49445 0.09857 0.0
loop_
_geom_bond_atom_site_label_1
_geom_bond_atom_site_label_2
_geom_bond_distance
_geom_bond_site_symmetry_2
_ccdc_geom_bond_type
C0 C1 1.351 . S
C0 N3 1.368 1_655 S
C0 H5 0.931 . S
C1 C0 1.351 . S
C1 N2 1.373 1_655 S
C1 H29 0.930 . S
N2 C1 1.373 1_455 S
N2 C4 1.340 . S
N3 C0 1.368 1_455 S
N3 C4 1.321 . S
N3 Co6 2.135 . S
C4 N2 1.340 . S
C4 N3 1.321 . S
C4 H28 0.930 . S
H5 C0 0.931 . S
Co6 N3 2.135 . S
Co6 N9 2.121 . S
Co6 O14 2.055 . S
Co6 O17 2.039 . S
Co6 N20 2.140 1_455 S
C7 O8 1.227 . S
C7 O17 1.265 . S
O8 C7 1.227 . S
N9 Co6 2.121 . S
N9 C11 1.375 . S
N9 C12 1.313 . S
C10 C11 1.338 . S
C10 N13 1.377 . S
C10 H30 0.930 . S
C11 N9 1.375 . S
C11 C10 1.338 . S
C11 H15 0.931 . S
C12 N9 1.313 . S
C12 N13 1.344 . S
C12 H16 0.930 . S
N13 C10 1.377 . S
N13 C12 1.344 . S
O14 Co6 2.055 . S
O14 C18 1.253 . S
H15 C11 0.931 . S
H16 C12 0.930 . S
O17 Co6 2.039 . S
O17 C7 1.265 . S
C18 O14 1.253 . S
C18 O19 1.227 1_455 S
O19 C18 1.227 1_655 S
N20 Co6 2.140 1_655 S
N20 C23 1.346 . S
N20 C24 1.345 . S
C21 C22 1.387 . S
C21 C25 1.391 . S
C22 C21 1.387 . S
C22 C23 1.369 . S
C22 H31 0.929 . S
C23 N20 1.346 . S
C23 C22 1.369 . S
C23 H26 0.928 . S
C24 N20 1.345 . S
C24 C25 1.371 . S
C24 H27 0.931 . S
C25 C21 1.391 . S
C25 C24 1.371 . S
C25 H32 0.930 . S
H26 C23 0.928 . S
H27 C24 0.931 . S
H28 C4 0.930 . S
H29 C1 0.930 . S
H30 C10 0.930 . S
H31 C22 0.929 . S
H32 C25 0.930 . S
C33 C34 1.351 . S
C33 N36 1.368 1_565 S
C33 H38 0.931 . S
C34 C33 1.351 . S
C34 N35 1.373 1_565 S
C34 H62 0.930 . S
N35 C34 1.373 1_545 S
N35 C37 1.340 . S
N36 C33 1.368 1_545 S
N36 C37 1.321 . S
N36 Co39 2.135 . S
C37 N35 1.340 . S
C37 N36 1.321 . S
C37 H61 0.930 . S
H38 C33 0.931 . S
Co39 N36 2.135 . S
Co39 N42 2.121 . S
Co39 O47 2.055 . S
Co39 O50 2.039 . S
Co39 N53 2.140 1_545 S
C40 O41 1.227 . S
C40 O50 1.265 . S
O41 C40 1.227 . S
N42 Co39 2.121 . S
N42 C44 1.375 . S
N42 C45 1.313 . S
C43 C44 1.338 . S
C43 N46 1.377 . S
C43 H63 0.930 . S
C44 N42 1.375 . S
C44 C43 1.338 . S
C44 H48 0.931 . S
C45 N42 1.313 . S
C45 N46 1.344 . S
C45 H49 0.930 . S
N46 C43 1.377 . S
N46 C45 1.344 . S
O47 Co39 2.055 . S
O47 C51 1.253 . S
H48 C44 0.931 . S
H49 C45 0.930 . S
O50 Co39 2.039 . S
O50 C40 1.265 . S
C51 O47 1.253 . S
C51 O52 1.227 1_545 S
O52 C51 1.227 1_565 S
N53 Co39 2.140 1_565 S
N53 C56 1.346 . S
N53 C57 1.345 . S
C54 C55 1.387 . S
C54 C58 1.391 . S
C55 C54 1.387 . S
C55 C56 1.369 . S
C55 H64 0.929 . S
C56 N53 1.346 . S
C56 C55 1.369 . S
C56 H59 0.928 . S
C57 N53 1.345 . S
C57 C58 1.371 . S
C57 H60 0.931 . S
C58 C54 1.391 . S
C58 C57 1.371 . S
C58 H65 0.930 . S
H59 C56 0.928 . S
H60 C57 0.931 . S
H61 C37 0.930 . S
H62 C34 0.930 . S
H63 C43 0.930 . S
H64 C55 0.929 . S
H65 C58 0.930 . S
C66 C67 1.351 . S
C66 N69 1.368 1_455 S
C66 H71 0.931 . S
C67 C66 1.351 . S
C67 N68 1.373 1_455 S
C67 H95 0.930 . S
N68 C67 1.373 1_655 S
N68 C70 1.340 . S
N69 C66 1.368 1_655 S
N69 C70 1.321 . S
N69 Co72 2.135 . S
C70 N68 1.340 . S
C70 N69 1.321 . S
C70 H94 0.930 . S
H71 C66 0.931 . S
Co72 N69 2.135 . S
Co72 N75 2.121 . S
Co72 O80 2.055 . S
Co72 O83 2.039 . S
Co72 N86 2.140 1_655 S
C73 O74 1.227 . S
C73 O83 1.265 . S
O74 C73 1.227 . S
N75 Co72 2.121 . S
N75 C77 1.375 . S
N75 C78 1.313 . S
C76 C77 1.338 . S
C76 N79 1.377 . S
C76 H96 0.930 . S
C77 N75 1.375 . S
C77 C76 1.338 . S
C77 H81 0.931 . S
C78 N75 1.313 . S
C78 N79 1.344 . S
C78 H82 0.930 . S
N79 C76 1.377 . S
N79 C78 1.344 . S
O80 Co72 2.055 . S
O80 C84 1.253 . S
H81 C77 0.931 . S
H82 C78 0.930 . S
O83 Co72 2.039 . S
O83 C73 1.265 . S
C84 O80 1.253 . S
C84 O85 1.227 1_655 S
O85 C84 1.227 1_455 S
N86 Co72 2.140 1_455 S
N86 C89 1.346 . S
N86 C90 1.345 . S
C87 C88 1.387 . S
C87 C91 1.391 . S
C88 C87 1.387 . S
C88 C89 1.369 . S
C88 H97 0.929 . S
C89 N86 1.346 . S
C89 C88 1.369 . S
C89 H92 0.928 . S
C90 N86 1.345 . S
C90 C91 1.371 . S
C90 H93 0.931 . S
C91 C87 1.391 . S
C91 C90 1.371 . S
C91 H98 0.930 . S
H92 C89 0.928 . S
H93 C90 0.931 . S
H94 C70 0.930 . S
H95 C67 0.930 . S
H96 C76 0.930 . S
H97 C88 0.929 . S
H98 C91 0.930 . S
C99 C100 1.351 . S
C99 N102 1.368 1_545 S
C99 H104 0.931 . S
C100 C99 1.351 . S
C100 N101 1.373 1_545 S
C100 H128 0.930 . S
N101 C100 1.373 1_565 S
N101 C103 1.340 . S
N102 C99 1.368 1_565 S
N102 C103 1.321 . S
N102 Co105 2.135 . S
C103 N101 1.340 . S
C103 N102 1.321 . S
C103 H127 0.930 . S
H104 C99 0.931 . S
Co105 N102 2.135 . S
Co105 N108 2.121 . S
Co105 O113 2.055 . S
Co105 O116 2.039 . S
Co105 N119 2.140 1_565 S
C106 O107 1.227 . S
C106 O116 1.265 . S
O107 C106 1.227 . S
N108 Co105 2.121 . S
N108 C110 1.375 . S
N108 C111 1.313 . S
C109 C110 1.338 . S
C109 N112 1.377 . S
C109 H129 0.930 . S
C110 N108 1.375 . S
C110 C109 1.338 . S
C110 H114 0.931 . S
C111 N108 1.313 . S
C111 N112 1.344 . S
C111 H115 0.930 . S
N112 C109 1.377 . S
N112 C111 1.344 . S
O113 Co105 2.055 . S
O113 C117 1.253 . S
H114 C110 0.931 . S
H115 C111 0.930 . S
O116 Co105 2.039 . S
O116 C106 1.265 . S
C117 O113 1.253 . S
C117 O118 1.227 1_565 S
O118 C117 1.227 1_545 S
N119 Co105 2.140 1_545 S
N119 C122 1.346 . S
N119 C123 1.345 . S
C120 C121 1.387 . S
C120 C124 1.391 . S
C121 C120 1.387 . S
C121 C122 1.369 . S
C121 H130 0.929 . S
C122 N119 1.346 . S
C122 C121 1.369 . S
C122 H125 0.928 . S
C123 N119 1.345 . S
C123 C124 1.371 . S
C123 H126 0.931 . S
C124 C120 1.391 . S
C124 C123 1.371 . S
C124 H131 0.930 . S
H125 C122 0.928 . S
H126 C123 0.931 . S
H127 C103 0.930 . S
H128 C100 0.930 . S
H129 C109 0.930 . S
H130 C121 0.929 . S
H131 C124 0.930 . S
C132 C133 1.351 . S
C132 N135 1.368 1_655 S
C132 H137 0.931 . S
C133 C132 1.351 . S
C133 N134 1.373 1_655 S
C133 H161 0.930 . S
N134 C133 1.373 1_455 S
N134 C136 1.340 . S
N135 C132 1.368 1_455 S
N135 C136 1.321 . S
N135 Co138 2.135 . S
C136 N134 1.340 . S
C136 N135 1.321 . S
C136 H160 0.930 . S
H137 C132 0.931 . S
Co138 N135 2.135 . S
Co138 N141 2.121 . S
Co138 O146 2.055 . S
Co138 O149 2.039 . S
Co138 N152 2.140 1_455 S
C139 O140 1.227 . S
C139 O149 1.265 . S
O140 C139 1.227 . S
N141 Co138 2.121 . S
N141 C143 1.375 . S
N141 C144 1.313 . S
C142 C143 1.338 . S
C142 N145 1.377 . S
C142 H162 0.930 . S
C143 N141 1.375 . S
C143 C142 1.338 . S
C143 H147 0.931 . S
C144 N141 1.313 . S
C144 N145 1.344 . S
C144 H148 0.930 . S
N145 C142 1.377 . S
N145 C144 1.344 . S
O146 Co138 2.055 . S
O146 C150 1.253 . S
H147 C143 0.931 . S
H148 C144 0.930 . S
O149 Co138 2.039 . S
O149 C139 1.265 . S
C150 O146 1.253 . S
C150 O151 1.227 1_455 S
O151 C150 1.227 1_655 S
N152 Co138 2.140 1_655 S
N152 C155 1.346 . S
N152 C156 1.345 . S
C153 C154 1.387 . S
C153 C157 1.391 . S
C154 C153 1.387 . S
C154 C155 1.369 . S
C154 H163 0.929 . S
C155 N152 1.346 . S
C155 C154 1.369 . S
C155 H158 0.928 . S
C156 N152 1.345 . S
C156 C157 1.371 . S
C156 H159 0.931 . S
C157 C153 1.391 . S
C157 C156 1.371 . S
C157 H164 0.930 . S
H158 C155 0.928 . S
H159 C156 0.931 . S
H160 C136 0.930 . S
H161 C133 0.930 . S
H162 C142 0.930 . S
H163 C154 0.929 . S
H164 C157 0.930 . S
C165 C166 1.351 . S
C165 N168 1.368 1_565 S
C165 H170 0.931 . S
C166 C165 1.351 . S
C166 N167 1.373 1_565 S
C166 H194 0.930 . S
N167 C166 1.373 1_545 S
N167 C169 1.340 . S
N168 C165 1.368 1_545 S
N168 C169 1.321 . S
N168 Co171 2.135 . S
C169 N167 1.340 . S
C169 N168 1.321 . S
C169 H193 0.930 . S
H170 C165 0.931 . S
Co171 N168 2.135 . S
Co171 N174 2.121 . S
Co171 O179 2.055 . S
Co171 O182 2.039 . S
Co171 N185 2.140 1_545 S
C172 O173 1.227 . S
C172 O182 1.265 . S
O173 C172 1.227 . S
N174 Co171 2.121 . S
N174 C176 1.375 . S
N174 C177 1.313 . S
C175 C176 1.338 . S
C175 N178 1.377 . S
C175 H195 0.930 . S
C176 N174 1.375 . S
C176 C175 1.338 . S
C176 H180 0.931 . S
C177 N174 1.313 . S
C177 N178 1.344 . S
C177 H181 0.930 . S
N178 C175 1.377 . S
N178 C177 1.344 . S
O179 Co171 2.055 . S
O179 C183 1.253 . S
H180 C176 0.931 . S
H181 C177 0.930 . S
O182 Co171 2.039 . S
O182 C172 1.265 . S
C183 O179 1.253 . S
C183 O184 1.227 1_545 S
O184 C183 1.227 1_565 S
N185 Co171 2.140 1_565 S
N185 C188 1.346 . S
N185 C189 1.345 . S
C186 C187 1.387 . S
C186 C190 1.391 . S
C187 C186 1.387 . S
C187 C188 1.369 . S
C187 H196 0.929 . S
C188 N185 1.346 . S
C188 C187 1.369 . S
C188 H191 0.928 . S
C189 N185 1.345 . S
C189 C190 1.371 . S
C189 H192 0.931 . S
C190 C186 1.391 . S
C190 C189 1.371 . S
C190 H197 0.930 . S
H191 C188 0.928 . S
H192 C189 0.931 . S
H193 C169 0.930 . S
H194 C166 0.930 . S
H195 C175 0.930 . S
H196 C187 0.929 . S
H197 C190 0.930 . S
C198 C199 1.351 . S
C198 N201 1.368 1_455 S
C198 H203 0.931 . S
C199 C198 1.351 . S
C199 N200 1.373 1_455 S
C199 H227 0.930 . S
N200 C199 1.373 1_655 S
N200 C202 1.340 . S
N201 C198 1.368 1_655 S
N201 C202 1.321 . S
N201 Co204 2.135 . S
C202 N200 1.340 . S
C202 N201 1.321 . S
C202 H226 0.930 . S
H203 C198 0.931 . S
Co204 N201 2.135 . S
Co204 N207 2.121 . S
Co204 O212 2.055 . S
Co204 O215 2.039 . S
Co204 N218 2.140 1_655 S
C205 O206 1.227 . S
C205 O215 1.265 . S
O206 C205 1.227 . S
N207 Co204 2.121 . S
N207 C209 1.375 . S
N207 C210 1.313 . S
C208 C209 1.338 . S
C208 N211 1.377 . S
C208 H228 0.930 . S
C209 N207 1.375 . S
C209 C208 1.338 . S
C209 H213 0.931 . S
C210 N207 1.313 . S
C210 N211 1.344 . S
C210 H214 0.930 . S
N211 C208 1.377 . S
N211 C210 1.344 . S
O212 Co204 2.055 . S
O212 C216 1.253 . S
H213 C209 0.931 . S
H214 C210 0.930 . S
O215 Co204 2.039 . S
O215 C205 1.265 . S
C216 O212 1.253 . S
C216 O217 1.227 1_655 S
O217 C216 1.227 1_455 S
N218 Co204 2.140 1_455 S
N218 C221 1.346 . S
N218 C222 1.345 . S
C219 C220 1.387 . S
C219 C223 1.391 . S
C220 C219 1.387 . S
C220 C221 1.369 . S
C220 H229 0.929 . S
C221 N218 1.346 . S
C221 C220 1.369 . S
C221 H224 0.928 . S
C222 N218 1.345 . S
C222 C223 1.371 . S
C222 H225 0.931 . S
C223 C219 1.391 . S
C223 C222 1.371 . S
C223 H230 0.930 . S
H224 C221 0.928 . S
H225 C222 0.931 . S
H226 C202 0.930 . S
H227 C199 0.930 . S
H228 C208 0.930 . S
H229 C220 0.929 . S
H230 C223 0.930 . S
C231 C232 1.351 . S
C231 N234 1.368 1_545 S
C231 H236 0.931 . S
C232 C231 1.351 . S
C232 N233 1.373 1_545 S
C232 H260 0.930 . S
N233 C232 1.373 1_565 S
N233 C235 1.340 . S
N234 C231 1.368 1_565 S
N234 C235 1.321 . S
N234 Co237 2.135 . S
C235 N233 1.340 . S
C235 N234 1.321 . S
C235 H259 0.930 . S
H236 C231 0.931 . S
Co237 N234 2.135 . S
Co237 N240 2.121 . S
Co237 O245 2.055 . S
Co237 O248 2.039 . S
Co237 N251 2.140 1_565 S
C238 O239 1.227 . S
C238 O248 1.265 . S
O239 C238 1.227 . S
N240 Co237 2.121 . S
N240 C242 1.375 . S
N240 C243 1.313 . S
C241 C242 1.338 . S
C241 N244 1.377 . S
C241 H261 0.930 . S
C242 N240 1.375 . S
C242 C241 1.338 . S
C242 H246 0.931 . S
C243 N240 1.313 . S
C243 N244 1.344 . S
C243 H247 0.930 . S
N244 C241 1.377 . S
N244 C243 1.344 . S
O245 Co237 2.055 . S
O245 C249 1.253 . S
H246 C242 0.931 . S
H247 C243 0.930 . S
O248 Co237 2.039 . S
O248 C238 1.265 . S
C249 O245 1.253 . S
C249 O250 1.227 1_565 S
O250 C249 1.227 1_545 S
N251 Co237 2.140 1_545 S
N251 C254 1.346 . S
N251 C255 1.345 . S
C252 C253 1.387 . S
C252 C256 1.391 . S
C253 C252 1.387 . S
C253 C254 1.369 . S
C253 H262 0.929 . S
C254 N251 1.346 . S
C254 C253 1.369 . S
C254 H257 0.928 . S
C255 N251 1.345 . S
C255 C256 1.371 . S
C255 H258 0.931 . S
C256 C252 1.391 . S
C256 C255 1.371 . S
C256 H263 0.930 . S
H257 C254 0.928 . S
H258 C255 0.931 . S
H259 C235 0.930 . S
H260 C232 0.930 . S
H261 C241 0.930 . S
H262 C253 0.929 . S
H263 C256 0.930 . S
C264 C265 1.351 . S
C264 N267 1.368 . S
C264 H269 0.931 . S
C265 C264 1.351 . S
C265 N266 1.373 . S
C265 H293 0.930 . S
N266 C265 1.373 . S
N266 C268 1.340 . S
N267 C264 1.368 . S
N267 C268 1.321 . S
N267 Co270 2.135 . S
C268 N266 1.340 . S
C268 N267 1.321 . S
C268 H292 0.930 . S
H269 C264 0.931 . S
Co270 N267 2.135 . S
Co270 N273 2.121 . S
Co270 O278 2.055 . S
Co270 O281 2.039 . S
Co270 N284 2.140 . S
C271 O272 1.227 . S
C271 O281 1.265 . S
O272 C271 1.227 . S
N273 Co270 2.121 . S
N273 C275 1.375 . S
N273 C276 1.313 . S
C274 C275 1.338 . S
C274 N277 1.377 . S
C274 H294 0.930 . S
C275 N273 1.375 . S
C275 C274 1.338 . S
C275 H279 0.931 . S
C276 N273 1.313 . S
C276 N277 1.344 . S
C276 H280 0.930 . S
N277 C274 1.377 . S
N277 C276 1.344 . S
O278 Co270 2.055 . S
O278 C282 1.253 . S
H279 C275 0.931 . S
H280 C276 0.930 . S
O281 Co270 2.039 . S
O281 C271 1.265 . S
C282 O278 1.253 . S
C282 O283 1.227 . S
O283 C282 1.227 . S
N284 Co270 2.140 . S
N284 C287 1.346 . S
N284 C288 1.345 . S
C285 C286 1.387 . S
C285 C289 1.391 . S
C286 C285 1.387 . S
C286 C287 1.369 . S
C286 H295 0.929 . S
C287 N284 1.346 . S
C287 C286 1.369 . S
C287 H290 0.928 . S
C288 N284 1.345 . S
C288 C289 1.371 . S
C288 H291 0.931 . S
C289 C285 1.391 . S
C289 C288 1.371 . S
C289 H296 0.930 . S
H290 C287 0.928 . S
H291 C288 0.931 . S
H292 C268 0.930 . S
H293 C265 0.930 . S
H294 C274 0.930 . S
H295 C286 0.929 . S
H296 C289 0.930 . S
C297 C298 1.351 . S
C297 N300 1.368 . S
C297 H302 0.931 . S
C298 C297 1.351 . S
C298 N299 1.373 . S
C298 H326 0.930 . S
N299 C298 1.373 . S
N299 C301 1.340 . S
N300 C297 1.368 . S
N300 C301 1.321 . S
N300 Co303 2.135 . S
C301 N299 1.340 . S
C301 N300 1.321 . S
C301 H325 0.930 . S
H302 C297 0.931 . S
Co303 N300 2.135 . S
Co303 N306 2.121 . S
Co303 O311 2.055 . S
Co303 O314 2.039 . S
Co303 N317 2.140 . S
C304 O305 1.227 . S
C304 O314 1.265 . S
O305 C304 1.227 . S
N306 Co303 2.121 . S
N306 C308 1.375 . S
N306 C309 1.313 . S
C307 C308 1.338 . S
C307 N310 1.377 . S
C307 H327 0.930 . S
C308 N306 1.375 . S
C308 C307 1.338 . S
C308 H312 0.931 . S
C309 N306 1.313 . S
C309 N310 1.344 . S
C309 H313 0.930 . S
N310 C307 1.377 . S
N310 C309 1.344 . S
O311 Co303 2.055 . S
O311 C315 1.253 . S
H312 C308 0.931 . S
H313 C309 0.930 . S
O314 Co303 2.039 . S
O314 C304 1.265 . S
C315 O311 1.253 . S
C315 O316 1.227 . S
O316 C315 1.227 . S
N317 Co303 2.140 . S
N317 C320 1.346 . S
N317 C321 1.345 . S
C318 C319 1.387 . S
C318 C322 1.391 . S
C319 C318 1.387 . S
C319 C320 1.369 . S
C319 H328 0.929 . S
C320 N317 1.346 . S
C320 C319 1.369 . S
C320 H323 0.928 . S
C321 N317 1.345 . S
C321 C322 1.371 . S
C321 H324 0.931 . S
C322 C318 1.391 . S
C322 C321 1.371 . S
C322 H329 0.930 . S
H323 C320 0.928 . S
H324 C321 0.931 . S
H325 C301 0.930 . S
H326 C298 0.930 . S
H327 C307 0.930 . S
H328 C319 0.929 . S
H329 C322 0.930 . S
C330 C331 1.351 . S
C330 N333 1.368 . S
C330 H335 0.931 . S
C331 C330 1.351 . S
C331 N332 1.373 . S
C331 H359 0.930 . S
N332 C331 1.373 . S
N332 C334 1.340 . S
N333 C330 1.368 . S
N333 C334 1.321 . S
N333 Co336 2.135 . S
C334 N332 1.340 . S
C334 N333 1.321 . S
C334 H358 0.930 . S
H335 C330 0.931 . S
Co336 N333 2.135 . S
Co336 N339 2.121 . S
Co336 O344 2.055 . S
Co336 O347 2.039 . S
Co336 N350 2.140 . S
C337 O338 1.227 . S
C337 O347 1.265 . S
O338 C337 1.227 . S
N339 Co336 2.121 . S
N339 C341 1.375 . S
N339 C342 1.313 . S
C340 C341 1.338 . S
C340 N343 1.377 . S
C340 H360 0.930 . S
C341 N339 1.375 . S
C341 C340 1.338 . S
C341 H345 0.931 . S
C342 N339 1.313 . S
C342 N343 1.344 . S
C342 H346 0.930 . S
N343 C340 1.377 . S
N343 C342 1.344 . S
O344 Co336 2.055 . S
O344 C348 1.253 . S
H345 C341 0.931 . S
H346 C342 0.930 . S
O347 Co336 2.039 . S
O347 C337 1.265 . S
C348 O344 1.253 . S
C348 O349 1.227 . S
O349 C348 1.227 . S
N350 Co336 2.140 . S
N350 C353 1.346 . S
N350 C354 1.345 . S
C351 C352 1.387 . S
C351 C355 1.391 . S
C352 C351 1.387 . S
C352 C353 1.369 . S
C352 H361 0.929 . S
C353 N350 1.346 . S
C353 C352 1.369 . S
C353 H356 0.928 . S
C354 N350 1.345 . S
C354 C355 1.371 . S
C354 H357 0.931 . S
C355 C351 1.391 . S
C355 C354 1.371 . S
C355 H362 0.930 . S
H356 C353 0.928 . S
H357 C354 0.931 . S
H358 C334 0.930 . S
H359 C331 0.930 . S
H360 C340 0.930 . S
H361 C352 0.929 . S
H362 C355 0.930 . S
C363 C364 1.351 . S
C363 N366 1.368 . S
C363 H368 0.931 . S
C364 C363 1.351 . S
C364 N365 1.373 . S
C364 H392 0.930 . S
N365 C364 1.373 . S
N365 C367 1.340 . S
N366 C363 1.368 . S
N366 C367 1.321 . S
N366 Co369 2.135 . S
C367 N365 1.340 . S
C367 N366 1.321 . S
C367 H391 0.930 . S
H368 C363 0.931 . S
Co369 N366 2.135 . S
Co369 N372 2.121 . S
Co369 O377 2.055 . S
Co369 O380 2.039 . S
Co369 N383 2.140 . S
C370 O371 1.227 . S
C370 O380 1.265 . S
O371 C370 1.227 . S
N372 Co369 2.121 . S
N372 C374 1.375 . S
N372 C375 1.313 . S
C373 C374 1.338 . S
C373 N376 1.377 . S
C373 H393 0.930 . S
C374 N372 1.375 . S
C374 C373 1.338 . S
C374 H378 0.931 . S
C375 N372 1.313 . S
C375 N376 1.344 . S
C375 H379 0.930 . S
N376 C373 1.377 . S
N376 C375 1.344 . S
O377 Co369 2.055 . S
O377 C381 1.253 . S
H378 C374 0.931 . S
H379 C375 0.930 . S
O380 Co369 2.039 . S
O380 C370 1.265 . S
C381 O377 1.253 . S
C381 O382 1.227 . S
O382 C381 1.227 . S
N383 Co369 2.140 . S
N383 C386 1.346 . S
N383 C387 1.345 . S
C384 C385 1.387 . S
C384 C388 1.391 . S
C385 C384 1.387 . S
C385 C386 1.369 . S
C385 H394 0.929 . S
C386 N383 1.346 . S
C386 C385 1.369 . S
C386 H389 0.928 . S
C387 N383 1.345 . S
C387 C388 1.371 . S
C387 H390 0.931 . S
C388 C384 1.391 . S
C388 C387 1.371 . S
C388 H395 0.930 . S
H389 C386 0.928 . S
H390 C387 0.931 . S
H391 C367 0.930 . S
H392 C364 0.930 . S
H393 C373 0.930 . S
H394 C385 0.929 . S
H395 C388 0.930 . S
C396 C397 1.351 . S
C396 N399 1.368 . S
C396 H401 0.931 . S
C397 C396 1.351 . S
C397 N398 1.373 . S
C397 H425 0.930 . S
N398 C397 1.373 . S
N398 C400 1.340 . S
N399 C396 1.368 . S
N399 C400 1.321 . S
N399 Co402 2.135 . S
C400 N398 1.340 . S
C400 N399 1.321 . S
C400 H424 0.930 . S
H401 C396 0.931 . S
Co402 N399 2.135 . S
Co402 N405 2.121 . S
Co402 O410 2.055 . S
Co402 O413 2.039 . S
Co402 N416 2.140 . S
C403 O404 1.227 . S
C403 O413 1.265 . S
O404 C403 1.227 . S
N405 Co402 2.121 . S
N405 C407 1.375 . S
N405 C408 1.313 . S
C406 C407 1.338 . S
C406 N409 1.377 . S
C406 H426 0.930 . S
C407 N405 1.375 . S
C407 C406 1.338 . S
C407 H411 0.931 . S
C408 N405 1.313 . S
C408 N409 1.344 . S
C408 H412 0.930 . S
N409 C406 1.377 . S
N409 C408 1.344 . S
O410 Co402 2.055 . S
O410 C414 1.253 . S
H411 C407 0.931 . S
H412 C408 0.930 . S
O413 Co402 2.039 . S
O413 C403 1.265 . S
C414 O410 1.253 . S
C414 O415 1.227 . S
O415 C414 1.227 . S
N416 Co402 2.140 . S
N416 C419 1.346 . S
N416 C420 1.345 . S
C417 C418 1.387 . S
C417 C421 1.391 . S
C418 C417 1.387 . S
C418 C419 1.369 . S
C418 H427 0.929 . S
C419 N416 1.346 . S
C419 C418 1.369 . S
C419 H422 0.928 . S
C420 N416 1.345 . S
C420 C421 1.371 . S
C420 H423 0.931 . S
C421 C417 1.391 . S
C421 C420 1.371 . S
C421 H428 0.930 . S
H422 C419 0.928 . S
H423 C420 0.931 . S
H424 C400 0.930 . S
H425 C397 0.930 . S
H426 C406 0.930 . S
H427 C418 0.929 . S
H428 C421 0.930 . S
C429 C430 1.351 . S
C429 N432 1.368 . S
C429 H434 0.931 . S
C430 C429 1.351 . S
C430 N431 1.373 . S
C430 H458 0.930 . S
N431 C430 1.373 . S
N431 C433 1.340 . S
N432 C429 1.368 . S
N432 C433 1.321 . S
N432 Co435 2.135 . S
C433 N431 1.340 . S
C433 N432 1.321 . S
C433 H457 0.930 . S
H434 C429 0.931 . S
Co435 N432 2.135 . S
Co435 N438 2.121 . S
Co435 O443 2.055 . S
Co435 O446 2.039 . S
Co435 N449 2.140 . S
C436 O437 1.227 . S
C436 O446 1.265 . S
O437 C436 1.227 . S
N438 Co435 2.121 . S
N438 C440 1.375 . S
N438 C441 1.313 . S
C439 C440 1.338 . S
C439 N442 1.377 . S
C439 H459 0.930 . S
C440 N438 1.375 . S
C440 C439 1.338 . S
C440 H444 0.931 . S
C441 N438 1.313 . S
C441 N442 1.344 . S
C441 H445 0.930 . S
N442 C439 1.377 . S
N442 C441 1.344 . S
O443 Co435 2.055 . S
O443 C447 1.253 . S
H444 C440 0.931 . S
H445 C441 0.930 . S
O446 Co435 2.039 . S
O446 C436 1.265 . S
C447 O443 1.253 . S
C447 O448 1.227 . S
O448 C447 1.227 . S
N449 Co435 2.140 . S
N449 C452 1.346 . S
N449 C453 1.345 . S
C450 C451 1.387 . S
C450 C454 1.391 . S
C451 C450 1.387 . S
C451 C452 1.369 . S
C451 H460 0.929 . S
C452 N449 1.346 . S
C452 C451 1.369 . S
C452 H455 0.928 . S
C453 N449 1.345 . S
C453 C454 1.371 . S
C453 H456 0.931 . S
C454 C450 1.391 . S
C454 C453 1.371 . S
C454 H461 0.930 . S
H455 C452 0.928 . S
H456 C453 0.931 . S
H457 C433 0.930 . S
H458 C430 0.930 . S
H459 C439 0.930 . S
H460 C451 0.929 . S
H461 C454 0.930 . S
C462 C463 1.351 . S
C462 N465 1.368 . S
C462 H467 0.931 . S
C463 C462 1.351 . S
C463 N464 1.373 . S
C463 H491 0.930 . S
N464 C463 1.373 . S
N464 C466 1.340 . S
N465 C462 1.368 . S
N465 C466 1.321 . S
N465 Co468 2.135 . S
C466 N464 1.340 . S
C466 N465 1.321 . S
C466 H490 0.930 . S
H467 C462 0.931 . S
Co468 N465 2.135 . S
Co468 N471 2.121 . S
Co468 O476 2.055 . S
Co468 O479 2.039 . S
Co468 N482 2.140 . S
C469 O470 1.227 . S
C469 O479 1.265 . S
O470 C469 1.227 . S
N471 Co468 2.121 . S
N471 C473 1.375 . S
N471 C474 1.313 . S
C472 C473 1.338 . S
C472 N475 1.377 . S
C472 H492 0.930 . S
C473 N471 1.375 . S
C473 C472 1.338 . S
C473 H477 0.931 . S
C474 N471 1.313 . S
C474 N475 1.344 . S
C474 H478 0.930 . S
N475 C472 1.377 . S
N475 C474 1.344 . S
O476 Co468 2.055 . S
O476 C480 1.253 . S
H477 C473 0.931 . S
H478 C474 0.930 . S
O479 Co468 2.039 . S
O479 C469 1.265 . S
C480 O476 1.253 . S
C480 O481 1.227 . S
O481 C480 1.227 . S
N482 Co468 2.140 . S
N482 C485 1.346 . S
N482 C486 1.345 . S
C483 C484 1.387 . S
C483 C487 1.391 . S
C484 C483 1.387 . S
C484 C485 1.369 . S
C484 H493 0.929 . S
C485 N482 1.346 . S
C485 C484 1.369 . S
C485 H488 0.928 . S
C486 N482 1.345 . S
C486 C487 1.371 . S
C486 H489 0.931 . S
C487 C483 1.391 . S
C487 C486 1.371 . S
C487 H494 0.930 . S
H488 C485 0.928 . S
H489 C486 0.931 . S
H490 C466 0.930 . S
H491 C463 0.930 . S
H492 C472 0.930 . S
H493 C484 0.929 . S
H494 C487 0.930 . S
C495 C496 1.351 . S
C495 N498 1.368 . S
C495 H500 0.931 . S
C496 C495 1.351 . S
C496 N497 1.373 . S
C496 H524 0.930 . S
N497 C496 1.373 . S
N497 C499 1.340 . S
N498 C495 1.368 . S
N498 C499 1.321 . S
N498 Co501 2.135 . S
C499 N497 1.340 . S
C499 N498 1.321 . S
C499 H523 0.930 . S
H500 C495 0.931 . S
Co501 N498 2.135 . S
Co501 N504 2.121 . S
Co501 O509 2.055 . S
Co501 O512 2.039 . S
Co501 N515 2.140 . S
C502 O503 1.227 . S
C502 O512 1.265 . S
O503 C502 1.227 . S
N504 Co501 2.121 . S
N504 C506 1.375 . S
N504 C507 1.313 . S
C505 C506 1.338 . S
C505 N508 1.377 . S
C505 H525 0.930 . S
C506 N504 1.375 . S
C506 C505 1.338 . S
C506 H510 0.931 . S
C507 N504 1.313 . S
C507 N508 1.344 . S
C507 H511 0.930 . S
N508 C505 1.377 . S
N508 C507 1.344 . S
O509 Co501 2.055 . S
O509 C513 1.253 . S
H510 C506 0.931 . S
H511 C507 0.930 . S
O512 Co501 2.039 . S
O512 C502 1.265 . S
C513 O509 1.253 . S
C513 O514 1.227 . S
O514 C513 1.227 . S
N515 Co501 2.140 . S
N515 C518 1.346 . S
N515 C519 1.345 . S
C516 C517 1.387 . S
C516 C520 1.391 . S
C517 C516 1.387 . S
C517 C518 1.369 . S
C517 H526 0.929 . S
C518 N515 1.346 . S
C518 C517 1.369 . S
C518 H521 0.928 . S
C519 N515 1.345 . S
C519 C520 1.371 . S
C519 H522 0.931 . S
C520 C516 1.391 . S
C520 C519 1.371 . S
C520 H527 0.930 . S
H521 C518 0.928 . S
H522 C519 0.931 . S
H523 C499 0.930 . S
H524 C496 0.930 . S
H525 C505 0.930 . S
H526 C517 0.929 . S
H527 C520 0.930 . S
H528 C536 0.950 . S
H529 C541 0.950 . S
H530 C538 0.950 . S
H531 C540 0.950 . S
H532 C542 0.950 . S
H533 C544 0.950 . S
H534 C546 0.950 . S
H535 C547 0.950 . S
C536 H528 0.950 . S
C536 C537 1.386 1_455 S
C536 C538 1.391 . S
C537 C536 1.386 1_655 S
C537 C541 1.393 . S
C538 H530 0.950 . S
C538 C536 1.391 . S
C538 C539 1.400 1_455 S
C539 C538 1.400 1_655 S
C539 C540 1.398 . S
C539 C545 1.491 1_655 S
C540 H531 0.950 . S
C540 C539 1.398 . S
C540 C541 1.391 . S
C541 H529 0.950 . S
C541 C537 1.393 . S
C541 C540 1.391 . S
C542 H532 0.950 . S
C542 C543 1.386 1_655 S
C542 C544 1.391 . S
C543 C542 1.386 1_455 S
C543 C547 1.393 . S
C544 H533 0.950 . S
C544 C542 1.391 . S
C544 C545 1.400 1_655 S
C545 C539 1.491 1_455 S
C545 C544 1.400 1_455 S
C545 C546 1.398 . S
C546 H534 0.950 . S
C546 C545 1.398 . S
C546 C547 1.391 . S
C547 H535 0.950 . S
C547 C543 1.393 . S
C547 C546 1.391 . S
H548 C556 0.950 . S
H549 C561 0.950 . S
H550 C558 0.950 . S
H551 C560 0.950 . S
H552 C562 0.950 . S
H553 C564 0.950 . S
H554 C566 0.950 . S
H555 C567 0.950 . S
C556 H548 0.950 . S
C556 C557 1.386 . S
C556 C558 1.391 . S
C557 C556 1.386 . S
C557 C561 1.393 1_545 S
C558 H550 0.950 . S
C558 C556 1.391 . S
C558 C559 1.400 . S
C559 C558 1.400 . S
C559 C560 1.398 1_545 S
C559 C565 1.491 1_545 S
C560 H551 0.950 . S
C560 C559 1.398 1_565 S
C560 C561 1.391 . S
C561 H549 0.950 . S
C561 C557 1.393 1_565 S
C561 C560 1.391 . S
C562 H552 0.950 . S
C562 C563 1.386 . S
C562 C564 1.391 . S
C563 C562 1.386 . S
C563 C567 1.393 1_565 S
C564 H553 0.950 . S
C564 C562 1.391 . S
C564 C565 1.400 . S
C565 C559 1.491 1_565 S
C565 C564 1.400 . S
C565 C566 1.398 1_565 S
C566 H554 0.950 . S
C566 C565 1.398 1_545 S
C566 C567 1.391 . S
C567 H555 0.950 . S
C567 C563 1.393 1_545 S
C567 C566 1.391 . S
H568 C576 0.950 . S
H569 C581 0.950 . S
H570 C578 0.950 . S
H571 C580 0.950 . S
H572 C582 0.950 . S
H573 C584 0.950 . S
H574 C586 0.950 . S
H575 C587 0.950 . S
C576 H568 0.950 . S
C576 C577 1.386 1_455 S
C576 C578 1.391 . S
C577 C576 1.386 1_655 S
C577 C581 1.393 . S
C578 H570 0.950 . S
C578 C576 1.391 . S
C578 C579 1.400 1_455 S
C579 C578 1.400 1_655 S
C579 C580 1.398 . S
C579 C585 1.491 1_655 S
C580 H571 0.950 . S
C580 C579 1.398 . S
C580 C581 1.391 . S
C581 H569 0.950 . S
C581 C577 1.393 . S
C581 C580 1.391 . S
C582 H572 0.950 . S
C582 C583 1.386 1_655 S
C582 C584 1.391 . S
C583 C582 1.386 1_455 S
C583 C587 1.393 . S
C584 H573 0.950 . S
C584 C582 1.391 . S
C584 C585 1.400 1_655 S
C585 C579 1.491 1_455 S
C585 C584 1.400 1_455 S
C585 C586 1.398 . S
C586 H574 0.950 . S
C586 C585 1.398 . S
C586 C587 1.391 . S
C587 H575 0.950 . S
C587 C583 1.393 . S
C587 C586 1.391 . S
H588 C596 0.950 . S
H589 C601 0.950 . S
H590 C598 0.950 . S
H591 C600 0.950 . S
H592 C602 0.950 . S
H593 C604 0.950 . S
H594 C606 0.950 . S
H595 C607 0.950 . S
C596 H588 0.950 . S
C596 C597 1.386 . S
C596 C598 1.391 . S
C597 C596 1.386 . S
C597 C601 1.393 1_565 S
C598 H590 0.950 . S
C598 C596 1.391 . S
C598 C599 1.400 . S
C599 C598 1.400 . S
C599 C600 1.398 1_565 S
C599 C605 1.491 1_565 S
C600 H591 0.950 . S
C600 C599 1.398 1_545 S
C600 C601 1.391 . S
C601 H589 0.950 . S
C601 C597 1.393 1_545 S
C601 C600 1.391 . S
C602 H592 0.950 . S
C602 C603 1.386 . S
C602 C604 1.391 . S
C603 C602 1.386 . S
C603 C607 1.393 1_545 S
C604 H593 0.950 . S
C604 C602 1.391 . S
C604 C605 1.400 . S
C605 C599 1.491 1_545 S
C605 C604 1.400 . S
C605 C606 1.398 1_545 S
C606 H594 0.950 . S
C606 C605 1.398 1_565 S
C606 C607 1.391 . S
C607 H595 0.950 . S
C607 C603 1.393 1_565 S
C607 C606 1.391 . S
H608 C616 0.950 . S
H609 C621 0.950 . S
H610 C618 0.950 . S
H611 C620 0.950 . S
H612 C622 0.950 . S
H613 C624 0.950 . S
H614 C626 0.950 . S
H615 C627 0.950 . S
C616 H608 0.950 . S
C616 C617 1.386 . S
C616 C618 1.391 . S
C617 C616 1.386 . S
C617 C621 1.393 . S
C618 H610 0.950 . S
C618 C616 1.391 . S
C618 C619 1.400 . S
C619 C618 1.400 . S
C619 C620 1.398 . S
C619 C625 1.491 1_565 S
C620 H611 0.950 . S
C620 C619 1.398 . S
C620 C621 1.391 . S
C621 H609 0.950 . S
C621 C617 1.393 . S
C621 C620 1.391 . S
C622 H612 0.950 . S
C622 C623 1.386 . S
C622 C624 1.391 . S
C623 C622 1.386 . S
C623 C627 1.393 . S
C624 H613 0.950 . S
C624 C622 1.391 . S
C624 C625 1.400 . S
C625 C619 1.491 1_545 S
C625 C624 1.400 . S
C625 C626 1.398 . S
C626 H614 0.950 . S
C626 C625 1.398 . S
C626 C627 1.391 . S
C627 H615 0.950 . S
C627 C623 1.393 . S
C627 C626 1.391 . S
H628 C636 0.950 . S
H629 C641 0.950 . S
H630 C638 0.950 . S
H631 C640 0.950 . S
H632 C642 0.950 . S
H633 C644 0.950 . S
H634 C646 0.950 . S
H635 C647 0.950 . S
C636 H628 0.950 . S
C636 C637 1.386 . S
C636 C638 1.391 . S
C637 C636 1.386 . S
C637 C641 1.393 . S
C638 H630 0.950 . S
C638 C636 1.391 . S
C638 C639 1.400 . S
C639 C638 1.400 . S
C639 C640 1.398 . S
C639 C645 1.491 1_655 S
C640 H631 0.950 . S
C640 C639 1.398 . S
C640 C641 1.391 . S
C641 H629 0.950 . S
C641 C637 1.393 . S
C641 C640 1.391 . S
C642 H632 0.950 . S
C642 C643 1.386 . S
C642 C644 1.391 . S
C643 C642 1.386 . S
C643 C647 1.393 . S
C644 H633 0.950 . S
C644 C642 1.391 . S
C644 C645 1.400 . S
C645 C639 1.491 1_455 S
C645 C644 1.400 . S
C645 C646 1.398 . S
C646 H634 0.950 . S
C646 C645 1.398 . S
C646 C647 1.391 . S
C647 H635 0.950 . S
C647 C643 1.393 . S
C647 C646 1.391 . S
H648 C656 0.950 . S
H649 C661 0.950 . S
H650 C658 0.950 . S
H651 C660 0.950 . S
H652 C662 0.950 . S
H653 C664 0.950 . S
H654 C666 0.950 . S
H655 C667 0.950 . S
C656 H648 0.950 . S
C656 C657 1.386 . S
C656 C658 1.391 . S
C657 C656 1.386 . S
C657 C661 1.393 . S
C658 H650 0.950 . S
C658 C656 1.391 . S
C658 C659 1.400 . S
C659 C658 1.400 . S
C659 C660 1.398 . S
C659 C665 1.491 1_565 S
C660 H651 0.950 . S
C660 C659 1.398 . S
C660 C661 1.391 . S
C661 H649 0.950 . S
C661 C657 1.393 . S
C661 C660 1.391 . S
C662 H652 0.950 . S
C662 C663 1.386 . S
C662 C664 1.391 . S
C663 C662 1.386 . S
C663 C667 1.393 . S
C664 H653 0.950 . S
C664 C662 1.391 . S
C664 C665 1.400 . S
C665 C659 1.491 1_545 S
C665 C664 1.400 . S
C665 C666 1.398 . S
C666 H654 0.950 . S
C666 C665 1.398 . S
C666 C667 1.391 . S
C667 H655 0.950 . S
C667 C663 1.393 . S
C667 C666 1.391 . S
H668 C676 0.950 . S
H669 C681 0.950 . S
H670 C678 0.950 . S
H671 C680 0.950 . S
H672 C682 0.950 . S
H673 C684 0.950 . S
H674 C686 0.950 . S
H675 C687 0.950 . S
C676 H668 0.950 . S
C676 C677 1.386 . S
C676 C678 1.391 . S
C677 C676 1.386 . S
C677 C681 1.393 . S
C678 H670 0.950 . S
C678 C676 1.391 . S
C678 C679 1.400 . S
C679 C678 1.400 . S
C679 C680 1.398 . S
C679 C685 1.491 1_655 S
C680 H671 0.950 . S
C680 C679 1.398 . S
C680 C681 1.391 . S
C681 H669 0.950 . S
C681 C677 1.393 . S
C681 C680 1.391 . S
C682 H672 0.950 . S
C682 C683 1.386 . S
C682 C684 1.391 . S
C683 C682 1.386 . S
C683 C687 1.393 . S
C684 H673 0.950 . S
C684 C682 1.391 . S
C684 C685 1.400 . S
C685 C679 1.491 1_455 S
C685 C684 1.400 . S
C685 C686 1.398 . S
C686 H674 0.950 . S
C686 C685 1.398 . S
C686 C687 1.391 . S
C687 H675 0.950 . S
C687 C683 1.393 . S
C687 C686 1.391 . S
H688 C696 0.950 . S
H689 C701 0.950 . S
H690 C698 0.950 . S
H691 C700 0.950 . S
H692 C702 0.950 . S
H693 C704 0.950 . S
H694 C706 0.950 . S
H695 C707 0.950 . S
C696 H688 0.950 . S
C696 C697 1.386 . S
C696 C698 1.391 . S
C697 C696 1.386 . S
C697 C701 1.393 . S
C698 H690 0.950 . S
C698 C696 1.391 . S
C698 C699 1.400 . S
C699 C698 1.400 . S
C699 C700 1.398 . S
C699 C705 1.491 . S
C700 H691 0.950 . S
C700 C699 1.398 . S
C700 C701 1.391 . S
C701 H689 0.950 . S
C701 C697 1.393 . S
C701 C700 1.391 . S
C702 H692 0.950 . S
C702 C703 1.386 . S
C702 C704 1.391 . S
C703 C702 1.386 . S
C703 C707 1.393 . S
C704 H693 0.950 . S
C704 C702 1.391 . S
C704 C705 1.400 . S
C705 C699 1.491 . S
C705 C704 1.400 . S
C705 C706 1.398 . S
C706 H694 0.950 . S
C706 C705 1.398 . S
C706 C707 1.391 . S
C707 H695 0.950 . S
C707 C703 1.393 . S
C707 C706 1.391 . S
H708 C716 0.950 . S
H709 C721 0.950 . S
H710 C718 0.950 . S
H711 C720 0.950 . S
H712 C722 0.950 . S
H713 C724 0.950 . S
H714 C726 0.950 . S
H715 C727 0.950 . S
C716 H708 0.950 . S
C716 C717 1.386 . S
C716 C718 1.391 . S
C717 C716 1.386 . S
C717 C721 1.393 . S
C718 H710 0.950 . S
C718 C716 1.391 . S
C718 C719 1.400 . S
C719 C718 1.400 . S
C719 C720 1.398 . S
C719 C725 1.491 . S
C720 H711 0.950 . S
C720 C719 1.398 . S
C720 C721 1.391 . S
C721 H709 0.950 . S
C721 C717 1.393 . S
C721 C720 1.391 . S
C722 H712 0.950 . S
C722 C723 1.386 . S
C722 C724 1.391 . S
C723 C722 1.386 . S
C723 C727 1.393 . S
C724 H713 0.950 . S
C724 C722 1.391 . S
C724 C725 1.400 . S
C725 C719 1.491 . S
C725 C724 1.400 . S
C725 C726 1.398 . S
C726 H714 0.950 . S
C726 C725 1.398 . S
C726 C727 1.391 . S
C727 H715 0.950 . S
C727 C723 1.393 . S
C727 C726 1.391 . S
H728 C736 0.950 . S
H729 C741 0.950 . S
H730 C738 0.950 . S
H731 C740 0.950 . S
H732 C742 0.950 . S
H733 C744 0.950 . S
H734 C746 0.950 . S
H735 C747 0.950 . S
C736 H728 0.950 . S
C736 C737 1.386 . S
C736 C738 1.391 . S
C737 C736 1.386 . S
C737 C741 1.393 . S
C738 H730 0.950 . S
C738 C736 1.391 . S
C738 C739 1.400 . S
C739 C738 1.400 . S
C739 C740 1.398 . S
C739 C745 1.491 . S
C740 H731 0.950 . S
C740 C739 1.398 . S
C740 C741 1.391 . S
C741 H729 0.950 . S
C741 C737 1.393 . S
C741 C740 1.391 . S
C742 H732 0.950 . S
C742 C743 1.386 . S
C742 C744 1.391 . S
C743 C742 1.386 . S
C743 C747 1.393 . S
C744 H733 0.950 . S
C744 C742 1.391 . S
C744 C745 1.400 . S
C745 C739 1.491 . S
C745 C744 1.400 . S
C745 C746 1.398 . S
C746 H734 0.950 . S
C746 C745 1.398 . S
C746 C747 1.391 . S
C747 H735 0.950 . S
C747 C743 1.393 . S
C747 C746 1.391 . S
H748 C756 0.950 . S
H749 C761 0.950 . S
H750 C758 0.950 . S
H751 C760 0.950 . S
H752 C762 0.950 . S
H753 C764 0.950 . S
H754 C766 0.950 . S
H755 C767 0.950 . S
C756 H748 0.950 . S
C756 C757 1.386 . S
C756 C758 1.391 . S
C757 C756 1.386 . S
C757 C761 1.393 . S
C758 H750 0.950 . S
C758 C756 1.391 . S
C758 C759 1.400 . S
C759 C758 1.400 . S
C759 C760 1.398 . S
C759 C765 1.491 . S
C760 H751 0.950 . S
C760 C759 1.398 . S
C760 C761 1.391 . S
C761 H749 0.950 . S
C761 C757 1.393 . S
C761 C760 1.391 . S
C762 H752 0.950 . S
C762 C763 1.386 . S
C762 C764 1.391 . S
C763 C762 1.386 . S
C763 C767 1.393 . S
C764 H753 0.950 . S
C764 C762 1.391 . S
C764 C765 1.400 . S
C765 C759 1.491 . S
C765 C764 1.400 . S
C765 C766 1.398 . S
C766 H754 0.950 . S
C766 C765 1.398 . S
C766 C767 1.391 . S
C767 H755 0.950 . S
C767 C763 1.393 . S
C767 C766 1.391 . S
H768 C776 0.950 . S
H769 C781 0.950 . S
H770 C778 0.950 . S
H771 C780 0.950 . S
H772 C782 0.950 . S
H773 C784 0.950 . S
H774 C786 0.950 . S
H775 C787 0.950 . S
C776 H768 0.950 . S
C776 C777 1.386 . S
C776 C778 1.391 . S
C777 C776 1.386 . S
C777 C781 1.393 . S
C778 H770 0.950 . S
C778 C776 1.391 . S
C778 C779 1.400 . S
C779 C778 1.400 . S
C779 C780 1.398 . S
C779 C785 1.491 . S
C780 H771 0.950 . S
C780 C779 1.398 . S
C780 C781 1.391 . S
C781 H769 0.950 . S
C781 C777 1.393 . S
C781 C780 1.391 . S
C782 H772 0.950 . S
C782 C783 1.386 . S
C782 C784 1.391 . S
C783 C782 1.386 . S
C783 C787 1.393 . S
C784 H773 0.950 . S
C784 C782 1.391 . S
C784 C785 1.400 . S
C785 C779 1.491 . S
C785 C784 1.400 . S
C785 C786 1.398 . S
C786 H774 0.950 . S
C786 C785 1.398 . S
C786 C787 1.391 . S
C787 H775 0.950 . S
C787 C783 1.393 . S
C787 C786 1.391 . S
H788 C796 0.950 . S
H789 C801 0.950 . S
H790 C798 0.950 . S
H791 C800 0.950 . S
H792 C802 0.950 . S
H793 C804 0.950 . S
H794 C806 0.950 . S
H795 C807 0.950 . S
C796 H788 0.950 . S
C796 C797 1.386 . S
C796 C798 1.391 . S
C797 C796 1.386 . S
C797 C801 1.393 . S
C798 H790 0.950 . S
C798 C796 1.391 . S
C798 C799 1.400 . S
C799 C798 1.400 . S
C799 C800 1.398 . S
C799 C805 1.491 . S
C800 H791 0.950 . S
C800 C799 1.398 . S
C800 C801 1.391 . S
C801 H789 0.950 . S
C801 C797 1.393 . S
C801 C800 1.391 . S
C802 H792 0.950 . S
C802 C803 1.386 . S
C802 C804 1.391 . S
C803 C802 1.386 . S
C803 C807 1.393 . S
C804 H793 0.950 . S
C804 C802 1.391 . S
C804 C805 1.400 . S
C805 C799 1.491 . S
C805 C804 1.400 . S
C805 C806 1.398 . S
C806 H794 0.950 . S
C806 C805 1.398 . S
C806 C807 1.391 . S
C807 H795 0.950 . S
C807 C803 1.393 . S
C807 C806 1.391 . S
H808 C816 0.950 . S
H809 C821 0.950 . S
H810 C818 0.950 . S
H811 C820 0.950 . S
H812 C822 0.950 . S
H813 C824 0.950 . S
H814 C826 0.950 . S
H815 C827 0.950 . S
C816 H808 0.950 . S
C816 C817 1.386 . S
C816 C818 1.391 . S
C817 C816 1.386 . S
C817 C821 1.393 . S
C818 H810 0.950 . S
C818 C816 1.391 . S
C818 C819 1.400 . S
C819 C818 1.400 . S
C819 C820 1.398 . S
C819 C825 1.491 . S
C820 H811 0.950 . S
C820 C819 1.398 . S
C820 C821 1.391 . S
C821 H809 0.950 . S
C821 C817 1.393 . S
C821 C820 1.391 . S
C822 H812 0.950 . S
C822 C823 1.386 . S
C822 C824 1.391 . S
C823 C822 1.386 . S
C823 C827 1.393 . S
C824 H813 0.950 . S
C824 C822 1.391 . S
C824 C825 1.400 . S
C825 C819 1.491 . S
C825 C824 1.400 . S
C825 C826 1.398 . S
C826 H814 0.950 . S
C826 C825 1.398 . S
C826 C827 1.391 . S
C827 H815 0.950 . S
C827 C823 1.393 . S
C827 C826 1.391 . S
H828 C836 0.950 . S
H829 C841 0.950 . S
H830 C838 0.950 . S
H831 C840 0.950 . S
H832 C842 0.950 . S
H833 C844 0.950 . S
H834 C846 0.950 . S
H835 C847 0.950 . S
C836 H828 0.950 . S
C836 C837 1.386 . S
C836 C838 1.391 . S
C837 C836 1.386 . S
C837 C841 1.393 . S
C838 H830 0.950 . S
C838 C836 1.391 . S
C838 C839 1.400 . S
C839 C838 1.400 . S
C839 C840 1.398 . S
C839 C845 1.491 . S
C840 H831 0.950 . S
C840 C839 1.398 . S
C840 C841 1.391 . S
C841 H829 0.950 . S
C841 C837 1.393 . S
C841 C840 1.391 . S
C842 H832 0.950 . S
C842 C843 1.386 . S
C842 C844 1.391 . S
C843 C842 1.386 . S
C843 C847 1.393 . S
C844 H833 0.950 . S
C844 C842 1.391 . S
C844 C845 1.400 . S
C845 C839 1.491 . S
C845 C844 1.400 . S
C845 C846 1.398 . S
C846 H834 0.950 . S
C846 C845 1.398 . S
C846 C847 1.391 . S
C847 H835 0.950 . S
C847 C843 1.393 . S
C847 C846 1.391 . S
H848 C856 0.950 . S
H849 C861 0.950 . S
H850 C858 0.950 . S
H851 C860 0.950 . S
H852 C862 0.950 . S
H853 C864 0.950 . S
H854 C866 0.950 . S
H855 C867 0.950 . S
C856 H848 0.950 . S
C856 C857 1.386 . S
C856 C858 1.391 . S
C857 C856 1.386 . S
C857 C861 1.393 . S
C858 H850 0.950 . S
C858 C856 1.391 . S
C858 C859 1.400 . S
C859 C858 1.400 . S
C859 C860 1.398 . S
C859 C865 1.491 . S
C860 H851 0.950 . S
C860 C859 1.398 . S
C860 C861 1.391 . S
C861 H849 0.950 . S
C861 C857 1.393 . S
C861 C860 1.391 . S
C862 H852 0.950 . S
C862 C863 1.386 . S
C862 C864 1.391 . S
C863 C862 1.386 . S
C863 C867 1.393 . S
C864 H853 0.950 . S
C864 C862 1.391 . S
C864 C865 1.400 . S
C865 C859 1.491 . S
C865 C864 1.400 . S
C865 C866 1.398 . S
C866 H854 0.950 . S
C866 C865 1.398 . S
C866 C867 1.391 . S
C867 H855 0.950 . S
C867 C863 1.393 . S
C867 C866 1.391 . S
H868 C876 0.950 . S
H869 C881 0.950 . S
H870 C878 0.950 . S
H871 C880 0.950 . S
H872 C882 0.950 . S
H873 C884 0.950 . S
H874 C886 0.950 . S
H875 C887 0.950 . S
C876 H868 0.950 . S
C876 C877 1.386 . S
C876 C878 1.391 . S
C877 C876 1.386 . S
C877 C881 1.393 . S
C878 H870 0.950 . S
C878 C876 1.391 . S
C878 C879 1.400 . S
C879 C878 1.400 . S
C879 C880 1.398 . S
C879 C885 1.491 . S
C880 H871 0.950 . S
C880 C879 1.398 . S
C880 C881 1.391 . S
C881 H869 0.950 . S
C881 C877 1.393 . S
C881 C880 1.391 . S
C882 H872 0.950 . S
C882 C883 1.386 . S
C882 C884 1.391 . S
C883 C882 1.386 . S
C883 C887 1.393 . S
C884 H873 0.950 . S
C884 C882 1.391 . S
C884 C885 1.400 . S
C885 C879 1.491 . S
C885 C884 1.400 . S
C885 C886 1.398 . S
C886 H874 0.950 . S
C886 C885 1.398 . S
C886 C887 1.391 . S
C887 H875 0.950 . S
C887 C883 1.393 . S
C887 C886 1.391 . S
H888 C896 0.950 . S
H889 C901 0.950 . S
H890 C898 0.950 . S
H891 C900 0.950 . S
H892 C902 0.950 . S
H893 C904 0.950 . S
H894 C906 0.950 . S
H895 C907 0.950 . S
C896 H888 0.950 . S
C896 C897 1.386 . S
C896 C898 1.391 . S
C897 C896 1.386 . S
C897 C901 1.393 . S
C898 H890 0.950 . S
C898 C896 1.391 . S
C898 C899 1.400 . S
C899 C898 1.400 . S
C899 C900 1.398 . S
C899 C905 1.491 . S
C900 H891 0.950 . S
C900 C899 1.398 . S
C900 C901 1.391 . S
C901 H889 0.950 . S
C901 C897 1.393 . S
C901 C900 1.391 . S
C902 H892 0.950 . S
C902 C903 1.386 . S
C902 C904 1.391 . S
C903 C902 1.386 . S
C903 C907 1.393 . S
C904 H893 0.950 . S
C904 C902 1.391 . S
C904 C905 1.400 . S
C905 C899 1.491 . S
C905 C904 1.400 . S
C905 C906 1.398 . S
C906 H894 0.950 . S
C906 C905 1.398 . S
C906 C907 1.391 . S
C907 H895 0.950 . S
C907 C903 1.393 . S
C907 C906 1.391 . S
H908 C916 0.950 . S
H909 C921 0.950 . S
H910 C918 0.950 . S
H911 C920 0.950 . S
H912 C922 0.950 . S
H913 C924 0.950 . S
H914 C926 0.950 . S
H915 C927 0.950 . S
C916 H908 0.950 . S
C916 C917 1.386 . S
C916 C918 1.391 . S
C917 C916 1.386 . S
C917 C921 1.393 . S
C918 H910 0.950 . S
C918 C916 1.391 . S
C918 C919 1.400 . S
C919 C918 1.400 . S
C919 C920 1.398 . S
C919 C925 1.491 . S
C920 H911 0.950 . S
C920 C919 1.398 . S
C920 C921 1.391 . S
C921 H909 0.950 . S
C921 C917 1.393 . S
C921 C920 1.391 . S
C922 H912 0.950 . S
C922 C923 1.386 . S
C922 C924 1.391 . S
C923 C922 1.386 . S
C923 C927 1.393 . S
C924 H913 0.950 . S
C924 C922 1.391 . S
C924 C925 1.400 . S
C925 C919 1.491 . S
C925 C924 1.400 . S
C925 C926 1.398 . S
C926 H914 0.950 . S
C926 C925 1.398 . S
C926 C927 1.391 . S
C927 H915 0.950 . S
C927 C923 1.393 . S
C927 C926 1.391 . S
H928 C936 0.950 . S
H929 C941 0.950 . S
H930 C938 0.950 . S
H931 C940 0.950 . S
H932 C942 0.950 . S
H933 C944 0.950 . S
H934 C946 0.950 . S
H935 C947 0.950 . S
C936 H928 0.950 . S
C936 C937 1.386 . S
C936 C938 1.391 . S
C937 C936 1.386 . S
C937 C941 1.393 . S
C938 H930 0.950 . S
C938 C936 1.391 . S
C938 C939 1.400 . S
C939 C938 1.400 . S
C939 C940 1.398 . S
C939 C945 1.491 . S
C940 H931 0.950 . S
C940 C939 1.398 . S
C940 C941 1.391 . S
C941 H929 0.950 . S
C941 C937 1.393 . S
C941 C940 1.391 . S
C942 H932 0.950 . S
C942 C943 1.386 . S
C942 C944 1.391 . S
C943 C942 1.386 . S
C943 C947 1.393 . S
C944 H933 0.950 . S
C944 C942 1.391 . S
C944 C945 1.400 . S
C945 C939 1.491 . S
C945 C944 1.400 . S
C945 C946 1.398 . S
C946 H934 0.950 . S
C946 C945 1.398 . S
C946 C947 1.391 . S
C947 H935 0.950 . S
C947 C943 1.393 . S
C947 C946 1.391 . S
H948 C956 0.950 . S
H949 C961 0.950 . S
H950 C958 0.950 . S
H951 C960 0.950 . S
H952 C962 0.950 . S
H953 C964 0.950 . S
H954 C966 0.950 . S
H955 C967 0.950 . S
C956 H948 0.950 . S
C956 C957 1.386 . S
C956 C958 1.391 . S
C957 C956 1.386 . S
C957 C961 1.393 . S
C958 H950 0.950 . S
C958 C956 1.391 . S
C958 C959 1.400 . S
C959 C958 1.400 . S
C959 C960 1.398 . S
C959 C965 1.491 . S
C960 H951 0.950 . S
C960 C959 1.398 . S
C960 C961 1.391 . S
C961 H949 0.950 . S
C961 C957 1.393 . S
C961 C960 1.391 . S
C962 H952 0.950 . S
C962 C963 1.386 . S
C962 C964 1.391 . S
C963 C962 1.386 . S
C963 C967 1.393 . S
C964 H953 0.950 . S
C964 C962 1.391 . S
C964 C965 1.400 . S
C965 C959 1.491 . S
C965 C964 1.400 . S
C965 C966 1.398 . S
C966 H954 0.950 . S
C966 C965 1.398 . S
C966 C967 1.391 . S
C967 H955 0.950 . S
C967 C963 1.393 . S
C967 C966 1.391 . S
H968 C976 0.950 . S
H969 C981 0.950 . S
H970 C978 0.950 . S
H971 C980 0.950 . S
H972 C982 0.950 . S
H973 C984 0.950 . S
H974 C986 0.950 . S
H975 C987 0.950 . S
C976 H968 0.950 . S
C976 C977 1.386 . S
C976 C978 1.391 . S
C977 C976 1.386 . S
C977 C981 1.393 . S
C978 H970 0.950 . S
C978 C976 1.391 . S
C978 C979 1.400 . S
C979 C978 1.400 . S
C979 C980 1.398 . S
C979 C985 1.491 . S
C980 H971 0.950 . S
C980 C979 1.398 . S
C980 C981 1.391 . S
C981 H969 0.950 . S
C981 C977 1.393 . S
C981 C980 1.391 . S
C982 H972 0.950 . S
C982 C983 1.386 . S
C982 C984 1.391 . S
C983 C982 1.386 . S
C983 C987 1.393 . S
C984 H973 0.950 . S
C984 C982 1.391 . S
C984 C985 1.400 . S
C985 C979 1.491 . S
C985 C984 1.400 . S
C985 C986 1.398 . S
C986 H974 0.950 . S
C986 C985 1.398 . S
C986 C987 1.391 . S
C987 H975 0.950 . S
C987 C983 1.393 . S
C987 C986 1.391 . S
H988 C996 0.950 . S
H989 C1001 0.950 . S
H990 C998 0.950 . S
H991 C1000 0.950 . S
H992 C1002 0.950 . S
H993 C1004 0.950 . S
H994 C1006 0.950 . S
H995 C1007 0.950 . S
C996 H988 0.950 . S
C996 C997 1.386 . S
C996 C998 1.391 . S
C997 C996 1.386 . S
C997 C1001 1.393 . S
C998 H990 0.950 . S
C998 C996 1.391 . S
C998 C999 1.400 . S
C999 C998 1.400 . S
C999 C1000 1.398 . S
C999 C1005 1.491 . S
C1000 H991 0.950 . S
C1000 C999 1.398 . S
C1000 C1001 1.391 . S
C1001 H989 0.950 . S
C1001 C997 1.393 . S
C1001 C1000 1.391 . S
C1002 H992 0.950 . S
C1002 C1003 1.386 . S
C1002 C1004 1.391 . S
C1003 C1002 1.386 . S
C1003 C1007 1.393 . S
C1004 H993 0.950 . S
C1004 C1002 1.391 . S
C1004 C1005 1.400 . S
C1005 C999 1.491 . S
C1005 C1004 1.400 . S
C1005 C1006 1.398 . S
C1006 H994 0.950 . S
C1006 C1005 1.398 . S
C1006 C1007 1.391 . S
C1007 H995 0.950 . S
C1007 C1003 1.393 . S
C1007 C1006 1.391 . S
H1008 C1016 0.950 . S
H1009 C1021 0.950 . S
H1010 C1018 0.950 . S
H1011 C1020 0.950 . S
H1012 C1022 0.950 . S
H1013 C1024 0.950 . S
H1014 C1026 0.950 . S
H1015 C1027 0.950 . S
C1016 H1008 0.950 . S
C1016 C1017 1.386 . S
C1016 C1018 1.391 . S
C1017 C1016 1.386 . S
C1017 C1021 1.393 . S
C1018 H1010 0.950 . S
C1018 C1016 1.391 . S
C1018 C1019 1.400 . S
C1019 C1018 1.400 . S
C1019 C1020 1.398 . S
C1019 C1025 1.491 . S
C1020 H1011 0.950 . S
C1020 C1019 1.398 . S
C1020 C1021 1.391 . S
C1021 H1009 0.950 . S
C1021 C1017 1.393 . S
C1021 C1020 1.391 . S
C1022 H1012 0.950 . S
C1022 C1023 1.386 . S
C1022 C1024 1.391 . S
C1023 C1022 1.386 . S
C1023 C1027 1.393 . S
C1024 H1013 0.950 . S
C1024 C1022 1.391 . S
C1024 C1025 1.400 . S
C1025 C1019 1.491 . S
C1025 C1024 1.400 . S
C1025 C1026 1.398 . S
C1026 H1014 0.950 . S
C1026 C1025 1.398 . S
C1026 C1027 1.391 . S
C1027 H1015 0.950 . S
C1027 C1023 1.393 . S
C1027 C1026 1.391 . S
H1028 C1036 0.950 . S
H1029 C1041 0.950 . S
H1030 C1038 0.950 . S
H1031 C1040 0.950 . S
H1032 C1042 0.950 . S
H1033 C1044 0.950 . S
H1034 C1046 0.950 . S
H1035 C1047 0.950 . S
C1036 H1028 0.950 . S
C1036 C1037 1.386 . S
C1036 C1038 1.391 . S
C1037 C1036 1.386 . S
C1037 C1041 1.393 . S
C1038 H1030 0.950 . S
C1038 C1036 1.391 . S
C1038 C1039 1.400 . S
C1039 C1038 1.400 . S
C1039 C1040 1.398 . S
C1039 C1045 1.491 . S
C1040 H1031 0.950 . S
C1040 C1039 1.398 . S
C1040 C1041 1.391 . S
C1041 H1029 0.950 . S
C1041 C1037 1.393 . S
C1041 C1040 1.391 . S
C1042 H1032 0.950 . S
C1042 C1043 1.386 . S
C1042 C1044 1.391 . S
C1043 C1042 1.386 . S
C1043 C1047 1.393 . S
C1044 H1033 0.950 . S
C1044 C1042 1.391 . S
C1044 C1045 1.400 . S
C1045 C1039 1.491 . S
C1045 C1044 1.400 . S
C1045 C1046 1.398 . S
C1046 H1034 0.950 . S
C1046 C1045 1.398 . S
C1046 C1047 1.391 . S
C1047 H1035 0.950 . S
C1047 C1043 1.393 . S
C1047 C1046 1.391 . S
H1048 C1056 0.950 . S
H1049 C1061 0.950 . S
H1050 C1058 0.950 . S
H1051 C1060 0.950 . S
H1052 C1062 0.950 . S
H1053 C1064 0.950 . S
H1054 C1066 0.950 . S
H1055 C1067 0.950 . S
C1056 H1048 0.950 . S
C1056 C1057 1.386 . S
C1056 C1058 1.391 . S
C1057 C1056 1.386 . S
C1057 C1061 1.393 . S
C1058 H1050 0.950 . S
C1058 C1056 1.391 . S
C1058 C1059 1.400 . S
C1059 C1058 1.400 . S
C1059 C1060 1.398 . S
C1059 C1065 1.491 . S
C1060 H1051 0.950 . S
C1060 C1059 1.398 . S
C1060 C1061 1.391 . S
C1061 H1049 0.950 . S
C1061 C1057 1.393 . S
C1061 C1060 1.391 . S
C1062 H1052 0.950 . S
C1062 C1063 1.386 . S
C1062 C1064 1.391 . S
C1063 C1062 1.386 . S
C1063 C1067 1.393 . S
C1064 H1053 0.950 . S
C1064 C1062 1.391 . S
C1064 C1065 1.400 . S
C1065 C1059 1.491 . S
C1065 C1064 1.400 . S
C1065 C1066 1.398 . S
C1066 H1054 0.950 . S
C1066 C1065 1.398 . S
C1066 C1067 1.391 . S
C1067 H1055 0.950 . S
C1067 C1063 1.393 . S
C1067 C1066 1.391 . S
H1068 C1076 0.950 . S
H1069 C1081 0.950 . S
H1070 C1078 0.950 . S
H1071 C1080 0.950 . S
H1072 C1082 0.950 . S
H1073 C1084 0.950 . S
H1074 C1086 0.950 . S
H1075 C1087 0.950 . S
C1076 H1068 0.950 . S
C1076 C1077 1.386 . S
C1076 C1078 1.391 . S
C1077 C1076 1.386 . S
C1077 C1081 1.393 . S
C1078 H1070 0.950 . S
C1078 C1076 1.391 . S
C1078 C1079 1.400 . S
C1079 C1078 1.400 . S
C1079 C1080 1.398 . S
C1079 C1085 1.491 . S
C1080 H1071 0.950 . S
C1080 C1079 1.398 . S
C1080 C1081 1.391 . S
C1081 H1069 0.950 . S
C1081 C1077 1.393 . S
C1081 C1080 1.391 . S
C1082 H1072 0.950 . S
C1082 C1083 1.386 . S
C1082 C1084 1.391 . S
C1083 C1082 1.386 . S
C1083 C1087 1.393 . S
C1084 H1073 0.950 . S
C1084 C1082 1.391 . S
C1084 C1085 1.400 . S
C1085 C1079 1.491 . S
C1085 C1084 1.400 . S
C1085 C1086 1.398 . S
C1086 H1074 0.950 . S
C1086 C1085 1.398 . S
C1086 C1087 1.391 . S
C1087 H1075 0.950 . S
C1087 C1083 1.393 . S
C1087 C1086 1.391 . S
H1088 C1096 0.950 . S
H1089 C1101 0.950 . S
H1090 C1098 0.950 . S
H1091 C1100 0.950 . S
H1092 C1102 0.950 . S
H1093 C1104 0.950 . S
H1094 C1106 0.950 . S
H1095 C1107 0.950 . S
C1096 H1088 0.950 . S
C1096 C1097 1.386 . S
C1096 C1098 1.391 . S
C1097 C1096 1.386 . S
C1097 C1101 1.393 . S
C1098 H1090 0.950 . S
C1098 C1096 1.391 . S
C1098 C1099 1.400 . S
C1099 C1098 1.400 . S
C1099 C1100 1.398 . S
C1099 C1105 1.491 . S
C1100 H1091 0.950 . S
C1100 C1099 1.398 . S
C1100 C1101 1.391 . S
C1101 H1089 0.950 . S
C1101 C1097 1.393 . S
C1101 C1100 1.391 . S
C1102 H1092 0.950 . S
C1102 C1103 1.386 . S
C1102 C1104 1.391 . S
C1103 C1102 1.386 . S
C1103 C1107 1.393 . S
C1104 H1093 0.950 . S
C1104 C1102 1.391 . S
C1104 C1105 1.400 . S
C1105 C1099 1.491 . S
C1105 C1104 1.400 . S
C1105 C1106 1.398 . S
C1106 H1094 0.950 . S
C1106 C1105 1.398 . S
C1106 C1107 1.391 . S
C1107 H1095 0.950 . S
C1107 C1103 1.393 . S
C1107 C1106 1.391 . S
H1108 C1116 0.950 . S
H1109 C1121 0.950 . S
H1110 C1118 0.950 . S
H1111 C1120 0.950 . S
H1112 C1122 0.950 . S
H1113 C1124 0.950 . S
H1114 C1126 0.950 . S
H1115 C1127 0.950 . S
C1116 H1108 0.950 . S
C1116 C1117 1.386 . S
C1116 C1118 1.391 . S
C1117 C1116 1.386 . S
C1117 C1121 1.393 . S
C1118 H1110 0.950 . S
C1118 C1116 1.391 . S
C1118 C1119 1.400 . S
C1119 C1118 1.400 . S
C1119 C1120 1.398 . S
C1119 C1125 1.491 . S
C1120 H1111 0.950 . S
C1120 C1119 1.398 . S
C1120 C1121 1.391 . S
C1121 H1109 0.950 . S
C1121 C1117 1.393 . S
C1121 C1120 1.391 . S
C1122 H1112 0.950 . S
C1122 C1123 1.386 . S
C1122 C1124 1.391 . S
C1123 C1122 1.386 . S
C1123 C1127 1.393 . S
C1124 H1113 0.950 . S
C1124 C1122 1.391 . S
C1124 C1125 1.400 . S
C1125 C1119 1.491 . S
C1125 C1124 1.400 . S
C1125 C1126 1.398 . S
C1126 H1114 0.950 . S
C1126 C1125 1.398 . S
C1126 C1127 1.391 . S
C1127 H1115 0.950 . S
C1127 C1123 1.393 . S
C1127 C1126 1.391 . S
H1128 C1136 0.950 . S
H1129 C1141 0.950 . S
H1130 C1138 0.950 . S
H1131 C1140 0.950 . S
H1132 C1142 0.950 . S
H1133 C1144 0.950 . S
H1134 C1146 0.950 . S
H1135 C1147 0.950 . S
C1136 H1128 0.950 . S
C1136 C1137 1.386 . S
C1136 C1138 1.391 . S
C1137 C1136 1.386 . S
C1137 C1141 1.393 . S
C1138 H1130 0.950 . S
C1138 C1136 1.391 . S
C1138 C1139 1.400 . S
C1139 C1138 1.400 . S
C1139 C1140 1.398 . S
C1139 C1145 1.491 . S
C1140 H1131 0.950 . S
C1140 C1139 1.398 . S
C1140 C1141 1.391 . S
C1141 H1129 0.950 . S
C1141 C1137 1.393 . S
C1141 C1140 1.391 . S
C1142 H1132 0.950 . S
C1142 C1143 1.386 . S
C1142 C1144 1.391 . S
C1143 C1142 1.386 . S
C1143 C1147 1.393 . S
C1144 H1133 0.950 . S
C1144 C1142 1.391 . S
C1144 C1145 1.400 . S
C1145 C1139 1.491 . S
C1145 C1144 1.400 . S
C1145 C1146 1.398 . S
C1146 H1134 0.950 . S
C1146 C1145 1.398 . S
C1146 C1147 1.391 . S
C1147 H1135 0.950 . S
C1147 C1143 1.393 . S
C1147 C1146 1.391 . S
H1148 C1156 0.950 . S
H1149 C1161 0.950 . S
H1150 C1158 0.950 . S
H1151 C1160 0.950 . S
H1152 C1162 0.950 . S
H1153 C1164 0.950 . S
H1154 C1166 0.950 . S
H1155 C1167 0.950 . S
C1156 H1148 0.950 . S
C1156 C1157 1.386 . S
C1156 C1158 1.391 . S
C1157 C1156 1.386 . S
C1157 C1161 1.393 . S
C1158 H1150 0.950 . S
C1158 C1156 1.391 . S
C1158 C1159 1.400 . S
C1159 C1158 1.400 . S
C1159 C1160 1.398 . S
C1159 C1165 1.491 . S
C1160 H1151 0.950 . S
C1160 C1159 1.398 . S
C1160 C1161 1.391 . S
C1161 H1149 0.950 . S
C1161 C1157 1.393 . S
C1161 C1160 1.391 . S
C1162 H1152 0.950 . S
C1162 C1163 1.386 . S
C1162 C1164 1.391 . S
C1163 C1162 1.386 . S
C1163 C1167 1.393 . S
C1164 H1153 0.950 . S
C1164 C1162 1.391 . S
C1164 C1165 1.400 . S
C1165 C1159 1.491 . S
C1165 C1164 1.400 . S
C1165 C1166 1.398 . S
C1166 H1154 0.950 . S
C1166 C1165 1.398 . S
C1166 C1167 1.391 . S
C1167 H1155 0.950 . S
C1167 C1163 1.393 . S
C1167 C1166 1.391 . S
H1168 C1176 0.950 . S
H1169 C1181 0.950 . S
H1170 C1178 0.950 . S
H1171 C1180 0.950 . S
H1172 C1182 0.950 . S
H1173 C1184 0.950 . S
H1174 C1186 0.950 . S
H1175 C1187 0.950 . S
C1176 H1168 0.950 . S
C1176 C1177 1.386 1_655 S
C1176 C1178 1.391 . S
C1177 C1176 1.386 1_455 S
C1177 C1181 1.393 . S
C1178 H1170 0.950 . S
C1178 C1176 1.391 . S
C1178 C1179 1.400 1_655 S
C1179 C1178 1.400 1_455 S
C1179 C1180 1.398 . S
C1179 C1185 1.491 1_455 S
C1180 H1171 0.950 . S
C1180 C1179 1.398 . S
C1180 C1181 1.391 . S
C1181 H1169 0.950 . S
C1181 C1177 1.393 . S
C1181 C1180 1.391 . S
C1182 H1172 0.950 . S
C1182 C1183 1.386 1_455 S
C1182 C1184 1.391 . S
C1183 C1182 1.386 1_655 S
C1183 C1187 1.393 . S
C1184 H1173 0.950 . S
C1184 C1182 1.391 . S
C1184 C1185 1.400 1_455 S
C1185 C1179 1.491 1_655 S
C1185 C1184 1.400 1_655 S
C1185 C1186 1.398 . S
C1186 H1174 0.950 . S
C1186 C1185 1.398 . S
C1186 C1187 1.391 . S
C1187 H1175 0.950 . S
C1187 C1183 1.393 . S
C1187 C1186 1.391 . S
H1188 C1196 0.950 . S
H1189 C1201 0.950 . S
H1190 C1198 0.950 . S
H1191 C1200 0.950 . S
H1192 C1202 0.950 . S
H1193 C1204 0.950 . S
H1194 C1206 0.950 . S
H1195 C1207 0.950 . S
C1196 H1188 0.950 . S
C1196 C1197 1.386 1_545 S
C1196 C1198 1.391 . S
C1197 C1196 1.386 1_565 S
C1197 C1201 1.393 . S
C1198 H1190 0.950 . S
C1198 C1196 1.391 . S
C1198 C1199 1.400 1_545 S
C1199 C1198 1.400 1_565 S
C1199 C1200 1.398 . S
C1199 C1205 1.491 1_565 S
C1200 H1191 0.950 . S
C1200 C1199 1.398 . S
C1200 C1201 1.391 . S
C1201 H1189 0.950 . S
C1201 C1197 1.393 . S
C1201 C1200 1.391 . S
C1202 H1192 0.950 . S
C1202 C1203 1.386 1_565 S
C1202 C1204 1.391 . S
C1203 C1202 1.386 1_545 S
C1203 C1207 1.393 . S
C1204 H1193 0.950 . S
C1204 C1202 1.391 . S
C1204 C1205 1.400 1_565 S
C1205 C1199 1.491 1_545 S
C1205 C1204 1.400 1_545 S
C1205 C1206 1.398 . S
C1206 H1194 0.950 . S
C1206 C1205 1.398 . S
C1206 C1207 1.391 . S
C1207 H1195 0.950 . S
C1207 C1203 1.393 . S
C1207 C1206 1.391 . S
H1208 C1216 0.950 . S
H1209 C1221 0.950 . S
H1210 C1218 0.950 . S
H1211 C1220 0.950 . S
H1212 C1222 0.950 . S
H1213 C1224 0.950 . S
H1214 C1226 0.950 . S
H1215 C1227 0.950 . S
C1216 H1208 0.950 . S
C1216 C1217 1.386 1_655 S
C1216 C1218 1.391 . S
C1217 C1216 1.386 1_455 S
C1217 C1221 1.393 . S
C1218 H1210 0.950 . S
C1218 C1216 1.391 . S
C1218 C1219 1.400 1_655 S
C1219 C1218 1.400 1_455 S
C1219 C1220 1.398 . S
C1219 C1225 1.491 1_455 S
C1220 H1211 0.950 . S
C1220 C1219 1.398 . S
C1220 C1221 1.391 . S
C1221 H1209 0.950 . S
C1221 C1217 1.393 . S
C1221 C1220 1.391 . S
C1222 H1212 0.950 . S
C1222 C1223 1.386 1_455 S
C1222 C1224 1.391 . S
C1223 C1222 1.386 1_655 S
C1223 C1227 1.393 . S
C1224 H1213 0.950 . S
C1224 C1222 1.391 . S
C1224 C1225 1.400 1_455 S
C1225 C1219 1.491 1_655 S
C1225 C1224 1.400 1_655 S
C1225 C1226 1.398 . S
C1226 H1214 0.950 . S
C1226 C1225 1.398 . S
C1226 C1227 1.391 . S
C1227 H1215 0.950 . S
C1227 C1223 1.393 . S
C1227 C1226 1.391 . S
H1228 C1236 0.950 . S
H1229 C1241 0.950 . S
H1230 C1238 0.950 . S
H1231 C1240 0.950 . S
H1232 C1242 0.950 . S
H1233 C1244 0.950 . S
H1234 C1246 0.950 . S
H1235 C1247 0.950 . S
C1236 H1228 0.950 . S
C1236 C1237 1.386 1_565 S
C1236 C1238 1.391 . S
C1237 C1236 1.386 1_545 S
C1237 C1241 1.393 . S
C1238 H1230 0.950 . S
C1238 C1236 1.391 . S
C1238 C1239 1.400 1_565 S
C1239 C1238 1.400 1_545 S
C1239 C1240 1.398 . S
C1239 C1245 1.491 1_545 S
C1240 H1231 0.950 . S
C1240 C1239 1.398 . S
C1240 C1241 1.391 . S
C1241 H1229 0.950 . S
C1241 C1237 1.393 . S
C1241 C1240 1.391 . S
C1242 H1232 0.950 . S
C1242 C1243 1.386 1_545 S
C1242 C1244 1.391 . S
C1243 C1242 1.386 1_565 S
C1243 C1247 1.393 . S
C1244 H1233 0.950 . S
C1244 C1242 1.391 . S
C1244 C1245 1.400 1_545 S
C1245 C1239 1.491 1_565 S
C1245 C1244 1.400 1_565 S
C1245 C1246 1.398 . S
C1246 H1234 0.950 . S
C1246 C1245 1.398 . S
C1246 C1247 1.391 . S
C1247 H1235 0.950 . S
C1247 C1243 1.393 . S
C1247 C1246 1.391 . S
H1248 C1256 0.950 . S
H1249 C1261 0.950 . S
H1250 C1258 0.950 . S
H1251 C1260 0.950 . S
H1252 C1262 0.950 . S
H1253 C1264 0.950 . S
H1254 C1266 0.950 . S
H1255 C1267 0.950 . S
C1256 H1248 0.950 . S
C1256 C1257 1.386 . S
C1256 C1258 1.391 . S
C1257 C1256 1.386 . S
C1257 C1261 1.393 . S
C1258 H1250 0.950 . S
C1258 C1256 1.391 . S
C1258 C1259 1.400 . S
C1259 C1258 1.400 . S
C1259 C1260 1.398 . S
C1259 C1265 1.491 1_556 S
C1260 H1251 0.950 . S
C1260 C1259 1.398 . S
C1260 C1261 1.391 . S
C1261 H1249 0.950 . S
C1261 C1257 1.393 . S
C1261 C1260 1.391 . S
C1262 H1252 0.950 . S
C1262 C1263 1.386 . S
C1262 C1264 1.391 . S
C1263 C1262 1.386 . S
C1263 C1267 1.393 . S
C1264 H1253 0.950 . S
C1264 C1262 1.391 . S
C1264 C1265 1.400 . S
C1265 C1259 1.491 1_554 S
C1265 C1264 1.400 . S
C1265 C1266 1.398 . S
C1266 H1254 0.950 . S
C1266 C1265 1.398 . S
C1266 C1267 1.391 . S
C1267 H1255 0.950 . S
C1267 C1263 1.393 . S
C1267 C1266 1.391 . S
H1268 C1276 0.950 . S
H1269 C1281 0.950 . S
H1270 C1278 0.950 . S
H1271 C1280 0.950 . S
H1272 C1282 0.950 . S
H1273 C1284 0.950 . S
H1274 C1286 0.950 . S
H1275 C1287 0.950 . S
C1276 H1268 0.950 . S
C1276 C1277 1.386 . S
C1276 C1278 1.391 . S
C1277 C1276 1.386 . S
C1277 C1281 1.393 . S
C1278 H1270 0.950 . S
C1278 C1276 1.391 . S
C1278 C1279 1.400 . S
C1279 C1278 1.400 . S
C1279 C1280 1.398 . S
C1279 C1285 1.491 1_554 S
C1280 H1271 0.950 . S
C1280 C1279 1.398 . S
C1280 C1281 1.391 . S
C1281 H1269 0.950 . S
C1281 C1277 1.393 . S
C1281 C1280 1.391 . S
C1282 H1272 0.950 . S
C1282 C1283 1.386 . S
C1282 C1284 1.391 . S
C1283 C1282 1.386 . S
C1283 C1287 1.393 . S
C1284 H1273 0.950 . S
C1284 C1282 1.391 . S
C1284 C1285 1.400 . S
C1285 C1279 1.491 1_556 S
C1285 C1284 1.400 . S
C1285 C1286 1.398 . S
C1286 H1274 0.950 . S
C1286 C1285 1.398 . S
C1286 C1287 1.391 . S
C1287 H1275 0.950 . S
C1287 C1283 1.393 . S
C1287 C1286 1.391 . S
H1288 C1296 0.950 . S
H1289 C1301 0.950 . S
H1290 C1298 0.950 . S
H1291 C1300 0.950 . S
H1292 C1302 0.950 . S
H1293 C1304 0.950 . S
H1294 C1306 0.950 . S
H1295 C1307 0.950 . S
C1296 H1288 0.950 . S
C1296 C1297 1.386 . S
C1296 C1298 1.391 . S
C1297 C1296 1.386 . S
C1297 C1301 1.393 . S
C1298 H1290 0.950 . S
C1298 C1296 1.391 . S
C1298 C1299 1.400 . S
C1299 C1298 1.400 . S
C1299 C1300 1.398 . S
C1299 C1305 1.491 1_554 S
C1300 H1291 0.950 . S
C1300 C1299 1.398 . S
C1300 C1301 1.391 . S
C1301 H1289 0.950 . S
C1301 C1297 1.393 . S
C1301 C1300 1.391 . S
C1302 H1292 0.950 . S
C1302 C1303 1.386 . S
C1302 C1304 1.391 . S
C1303 C1302 1.386 . S
C1303 C1307 1.393 . S
C1304 H1293 0.950 . S
C1304 C1302 1.391 . S
C1304 C1305 1.400 . S
C1305 C1299 1.491 1_556 S
C1305 C1304 1.400 . S
C1305 C1306 1.398 . S
C1306 H1294 0.950 . S
C1306 C1305 1.398 . S
C1306 C1307 1.391 . S
C1307 H1295 0.950 . S
C1307 C1303 1.393 . S
C1307 C1306 1.391 . S
H1308 C1316 0.950 . S
H1309 C1321 0.950 . S
H1310 C1318 0.950 . S
H1311 C1320 0.950 . S
H1312 C1322 0.950 . S
H1313 C1324 0.950 . S
H1314 C1326 0.950 . S
H1315 C1327 0.950 . S
C1316 H1308 0.950 . S
C1316 C1317 1.386 . S
C1316 C1318 1.391 . S
C1317 C1316 1.386 . S
C1317 C1321 1.393 . S
C1318 H1310 0.950 . S
C1318 C1316 1.391 . S
C1318 C1319 1.400 . S
C1319 C1318 1.400 . S
C1319 C1320 1.398 . S
C1319 C1325 1.491 1_556 S
C1320 H1311 0.950 . S
C1320 C1319 1.398 . S
C1320 C1321 1.391 . S
C1321 H1309 0.950 . S
C1321 C1317 1.393 . S
C1321 C1320 1.391 . S
C1322 H1312 0.950 . S
C1322 C1323 1.386 . S
C1322 C1324 1.391 . S
C1323 C1322 1.386 . S
C1323 C1327 1.393 . S
C1324 H1313 0.950 . S
C1324 C1322 1.391 . S
C1324 C1325 1.400 . S
C1325 C1319 1.491 1_554 S
C1325 C1324 1.400 . S
C1325 C1326 1.398 . S
C1326 H1314 0.950 . S
C1326 C1325 1.398 . S
C1326 C1327 1.391 . S
C1327 H1315 0.950 . S
C1327 C1323 1.393 . S
C1327 C1326 1.391 . S
C537 C84 0.432 . S
C543 C18 0.428 . S
C557 C51 0.430 . S
C563 C117 0.438 . S
C577 C216 0.445 . S
C583 C150 0.436 . S
C597 C249 0.428 . S
C603 C183 0.434 . S
C617 C282 0.434 . S
C623 C348 0.443 . S
C637 C381 0.452 . S
C643 C315 0.445 . S
C657 C480 0.444 . S
C663 C414 0.451 . S
C677 C447 0.428 . S
C683 C513 0.434 . S
C697 N13 1.767 . S
C703 N508 1.750 . S
C717 N409 1.753 . S
C723 N46 1.748 . S
C737 N442 1.753 . S
C743 N79 1.768 . S
C757 N475 1.762 . S
C763 N112 1.765 . S
C777 N310 1.747 . S
C783 N145 1.756 . S
C797 N343 1.763 . S
C803 N178 1.746 . S
C817 N376 1.750 . S
C823 N211 1.751 . S
C837 N277 1.751 . S
C843 N244 1.750 . S
C857 C7 1.359 . S
C863 C120 1.357 . S
C877 C21 1.372 . S
C883 C40 1.366 . S
C897 C73 1.361 . S
C903 C54 1.373 . S
C917 C87 1.372 . S
C923 C106 1.357 . S
C937 C186 1.367 . S
C943 C139 1.371 . S
C957 C172 1.364 . S
C963 C219 1.355 . S
C977 C252 1.367 . S
C983 C205 1.371 . S
C997 C153 1.359 . S
C1003 C238 1.373 . S
C1017 C271 1.373 . S
C1023 C384 1.364 . S
C1037 C285 1.355 . S
C1043 C304 1.364 . S
C1057 C337 1.371 . S
C1063 C318 1.367 . S
C1077 C370 1.367 . S
C1083 C351 1.372 . S
C1097 C403 1.370 . S
C1103 C450 1.355 . S
C1117 C483 1.360 . S
C1123 C436 1.357 . S
C1137 C516 1.357 . S
C1143 C469 1.359 . S
C1157 C502 1.369 . S
C1163 C417 1.355 . S
C1177 N2 1.579 . S
C1183 N200 1.561 . S
C1197 N233 1.583 . S
C1203 N35 1.567 . S
C1217 N134 1.585 . S
C1223 N68 1.561 . S
C1237 N167 1.585 . S
C1243 N101 1.561 . S
C1257 N266 1.582 . S
C1263 N464 1.569 . S
C1277 N497 1.585 . S
C1283 N299 1.559 . S
C1297 N398 1.561 . S
C1303 N332 1.578 . S
C1317 N365 1.585 . S
C1323 N431 1.563 . S
