# Generated by pormake.
# Topology umw, (4)-cn, num edge types: 1
# Building blocks:
#     Node 0, Type 0, BuildingBlock: NAHDIM_clean_sbu_0, # of connection points: 4
#     Node 1, Type 0, BuildingBlock: NAHDIM_clean_sbu_0, # of connection points: 4
#     Node 2, Type 0, BuildingBlock: NAHDIM_clean_sbu_0, # of connection points: 4
#     Node 3, Type 0, BuildingBlock: NAHDIM_clean_sbu_0, # of connection points: 4
#     Node 4, Type 0, BuildingBlock: NAHDIM_clean_sbu_0, # of connection points: 4
#     Node 5, Type 0, BuildingBlock: NAHDIM_clean_sbu_0, # of connection points: 4
#     Node 6, Type 0, BuildingBlock: NAHDIM_clean_sbu_0, # of connection points: 4
#     Node 7, Type 0, BuildingBlock: NAHDIM_clean_sbu_0, # of connection points: 4
#     Edge 8, Type (0, 0), BuildingBlock: UVAHIK_clean_linker_0, # of connection points: 2
#     Edge 9, Type (0, 0), BuildingBlock: UVAHIK_clean_linker_0, # of connection points: 2
#     Edge 10, Type (0, 0), BuildingBlock: UVAHIK_clean_linker_0, # of connection points: 2
#     Edge 11, Type (0, 0), BuildingBlock: UVAHIK_clean_linker_0, # of connection points: 2
#     Edge 12, Type (0, 0), BuildingBlock: UVAHIK_clean_linker_0, # of connection points: 2
#     Edge 13, Type (0, 0), BuildingBlock: UVAHIK_clean_linker_0, # of connection points: 2
#     Edge 14, Type (0, 0), BuildingBlock: UVAHIK_clean_linker_0, # of connection points: 2
#     Edge 15, Type (0, 0), BuildingBlock: UVAHIK_clean_linker_0, # of connection points: 2
#     Edge 16, Type (0, 0), BuildingBlock: UVAHIK_clean_linker_0, # of connection points: 2
#     Edge 17, Type (0, 0), BuildingBlock: UVAHIK_clean_linker_0, # of connection points: 2
#     Edge 18, Type (0, 0), BuildingBlock: UVAHIK_clean_linker_0, # of connection points: 2
#     Edge 19, Type (0, 0), BuildingBlock: UVAHIK_clean_linker_0, # of connection points: 2
#     Edge 20, Type (0, 0), BuildingBlock: UVAHIK_clean_linker_0, # of connection points: 2
#     Edge 21, Type (0, 0), BuildingBlock: UVAHIK_clean_linker_0, # of connection points: 2
#     Edge 22, Type (0, 0), BuildingBlock: UVAHIK_clean_linker_0, # of connection points: 2
#     Edge 23, Type (0, 0), BuildingBlock: UVAHIK_clean_linker_0, # of connection points: 2
# Relax obj value: 0.146
# Max RMSD: 0.106
# Mean RMSD: 0.106
data_MOF--net-umw--node1-NAHDIM_clean_sbu_0--edge1-UVAHIK_clean_linker_0
_symmetry_space_group_name_H-M    P1
_symmetry_Int_Tables_number       1
_symmetry_cell_setting            triclinic
loop_
_symmetry_equiv_pos_as_xyz
'x, y, z'
_cell_length_a     56.543488
_cell_length_b     56.530049
_cell_length_c     30.431469
_cell_angle_alpha  90.002276
_cell_angle_beta   89.995773
_cell_angle_gamma 89.950025
loop_
_atom_site_label
_atom_site_type_symbol
_atom_site_fract_x
_atom_site_fract_y
_atom_site_fract_z
_atom_type_partial_charge
C0 C 0.36569 0.20882 0.28467 0.0
O1 O 0.38827 0.21421 0.28357 0.0
O2 O 0.4028 0.1677 0.21283 0.0
Zn3 Zn 0.38399 0.16256 0.26855 0.0
O4 O 0.40521 0.16306 0.32136 0.0
C5 C 0.36627 0.11662 0.23744 0.0
O6 O 0.37375 0.12309 0.19838 0.0
O7 O 0.35942 0.18763 0.2772 0.0
C8 C 0.42403 0.15082 0.32305 0.0
O9 O 0.43034 0.13811 0.28886 0.0
C10 C 0.42234 0.17883 0.21358 0.0
O11 O 0.42995 0.18777 0.25081 0.0
O12 O 0.3685 0.1307 0.26966 0.0
C13 C 0.78034 0.37101 0.54631 0.0
O14 O 0.77826 0.39379 0.55391 0.0
O15 O 0.82052 0.40267 0.45519 0.0
Zn16 Zn 0.82516 0.38574 0.51273 0.0
O17 O 0.82691 0.4096 0.5614 0.0
C18 C 0.86923 0.36428 0.48081 0.0
O19 O 0.86278 0.37194 0.44185 0.0
O20 O 0.7987 0.36338 0.5268 0.0
C21 C 0.83484 0.40293 0.59844 0.0
O22 O 0.8418 0.3809 0.60331 0.0
C23 C 0.80723 0.42078 0.45344 0.0
O24 O 0.79593 0.42753 0.48902 0.0
O25 O 0.85584 0.36788 0.51362 0.0
C26 C 0.61693 0.78352 0.80863 0.0
O27 O 0.59429 0.78175 0.81773 0.0
O28 O 0.58469 0.81789 0.71103 0.0
Zn29 Zn 0.60102 0.82602 0.76791 0.0
O30 O 0.57758 0.82988 0.81692 0.0
C31 C 0.6229 0.86832 0.72903 0.0
O32 O 0.61808 0.85884 0.69065 0.0
O33 O 0.62413 0.8009 0.78578 0.0
C34 C 0.55714 0.83896 0.81296 0.0
O35 O 0.54976 0.84602 0.77419 0.0
C36 C 0.56658 0.80458 0.7103 0.0
O37 O 0.55881 0.79532 0.74716 0.0
O38 O 0.61768 0.85717 0.76392 0.0
C39 C 0.21089 0.61691 0.04102 0.0
O40 O 0.21441 0.59397 0.04346 0.0
O41 O 0.17169 0.58197 0.96117 0.0
Zn42 Zn 0.16513 0.60142 0.01543 0.0
O43 O 0.16208 0.58054 0.06831 0.0
C44 C 0.12338 0.62295 0.97474 0.0
O45 O 0.13311 0.61706 0.93709 0.0
O46 O 0.19102 0.62453 0.02765 0.0
C47 C 0.14457 0.56665 0.07225 0.0
O48 O 0.12885 0.56551 0.04052 0.0
C49 C 0.17903 0.56076 0.96398 0.0
O50 O 0.18319 0.55162 0.00289 0.0
O51 O 0.13422 0.6185 0.01032 0.0
C52 C 0.36661 0.78069 0.25503 0.0
O53 O 0.3891 0.77557 0.2602 0.0
O54 O 0.40407 0.8203 0.32312 0.0
Zn55 Zn 0.38419 0.82708 0.26935 0.0
O56 O 0.40406 0.82818 0.21486 0.0
C57 C 0.36343 0.87035 0.30735 0.0
O58 O 0.36722 0.86077 0.34605 0.0
O59 O 0.35985 0.80198 0.25963 0.0
C60 C 0.42137 0.84232 0.21089 0.0
O61 O 0.42731 0.85591 0.24412 0.0
C62 C 0.42447 0.81095 0.31995 0.0
O63 O 0.43264 0.80514 0.28103 0.0
O64 O 0.36879 0.85892 0.27285 0.0
C65 C 0.20101 0.36781 0.48914 0.0
O66 O 0.20513 0.39067 0.49004 0.0
O67 O 0.16164 0.40119 0.56983 0.0
Zn68 Zn 0.15526 0.38385 0.51308 0.0
O69 O 0.15405 0.40643 0.4624 0.0
C70 C 0.11348 0.35897 0.54741 0.0
O71 O 0.12398 0.35967 0.5859 0.0
O72 O 0.18065 0.36028 0.49981 0.0
C73 C 0.13808 0.42215 0.45941 0.0
O74 O 0.12241 0.42426 0.49105 0.0
C75 C 0.17086 0.4217 0.56947 0.0
O76 O 0.17662 0.43137 0.53172 0.0
O77 O 0.12377 0.36773 0.5141 0.0
C78 C 0.62523 0.20679 0.76104 0.0
O79 O 0.60362 0.21331 0.77132 0.0
O80 O 0.58725 0.16549 0.82607 0.0
Zn81 Zn 0.60542 0.16028 0.76959 0.0
O82 O 0.5837 0.1614 0.71751 0.0
C83 C 0.62378 0.11422 0.79938 0.0
O84 O 0.61792 0.12091 0.83927 0.0
O85 O 0.63032 0.18491 0.76022 0.0
C86 C 0.56473 0.14942 0.71604 0.0
O87 O 0.55851 0.13658 0.75012 0.0
C88 C 0.56781 0.17684 0.826 0.0
O89 O 0.55993 0.1859 0.78905 0.0
O90 O 0.62037 0.12818 0.76733 0.0
C91 C 0.78587 0.63048 0.01688 0.0
O92 O 0.77894 0.61248 0.04088 0.0
O93 O 0.82689 0.58861 0.07077 0.0
Zn94 Zn 0.83117 0.60578 0.01318 0.0
O95 O 0.82829 0.58248 0.96389 0.0
C96 C 0.87713 0.62529 0.03945 0.0
O97 O 0.86977 0.62252 0.08008 0.0
O98 O 0.80713 0.63135 0.00348 0.0
C99 C 0.84149 0.56428 0.96369 0.0
O100 O 0.85635 0.56097 0.99631 0.0
C101 C 0.81262 0.57125 0.07263 0.0
O102 O 0.80039 0.56558 0.03747 0.0
O103 O 0.86362 0.61964 0.00785 0.0
C104 C 0.46273 0.14554 0.36139 0.0
C105 C 0.43853 0.15088 0.36326 0.0
C106 C 0.47643 0.14575 0.3996 0.0
C107 C 0.47539 0.16626 0.51637 0.0
H108 H 0.52784 0.12241 0.52751 0.0
C109 C 0.52573 0.14476 0.67837 0.0
C110 C 0.55002 0.1498 0.67611 0.0
C111 C 0.51187 0.14522 0.64035 0.0
C112 C 0.51324 0.13474 0.52463 0.0
H113 H 0.40947 0.16014 0.4064 0.0
H114 H 0.43294 0.15931 0.47327 0.0
H115 H 0.50386 0.12209 0.46091 0.0
H116 H 0.57897 0.15893 0.63254 0.0
H117 H 0.55479 0.1589 0.56583 0.0
H118 H 0.48444 0.17807 0.58123 0.0
C119 C 0.44173 0.15588 0.44232 0.0
C120 C 0.4996 0.13476 0.4864 0.0
C121 C 0.42818 0.15619 0.40399 0.0
C122 C 0.56026 0.15508 0.63521 0.0
C123 C 0.54652 0.15498 0.59711 0.0
C124 C 0.48873 0.16585 0.55498 0.0
C125 C 0.46608 0.15078 0.44067 0.0
C126 C 0.48055 0.15062 0.4816 0.0
C127 C 0.52224 0.15014 0.59948 0.0
C128 C 0.50781 0.15019 0.55921 0.0
H129 H 0.47118 0.14159 0.33028 0.0
H130 H 0.49519 0.14224 0.39672 0.0
H131 H 0.46124 0.17909 0.51369 0.0
H132 H 0.5174 0.14073 0.70955 0.0
H133 H 0.49314 0.1414 0.64271 0.0
C134 C 0.8472 0.41308 0.67504 0.0
C135 C 0.83581 0.41957 0.6358 0.0
C136 C 0.84791 0.42869 0.71057 0.0
C137 C 0.81697 0.47945 0.75851 0.0
H138 H 0.87565 0.48947 0.82176 0.0
C139 C 0.82687 0.55246 0.8893 0.0
C140 C 0.84038 0.54731 0.92685 0.0
C141 C 0.82622 0.53669 0.85404 0.0
C142 C 0.85904 0.48663 0.80486 0.0
H143 H 0.81624 0.44749 0.603 0.0
H144 H 0.81743 0.47471 0.66522 0.0
H145 H 0.87479 0.46227 0.75959 0.0
H146 H 0.86351 0.5214 0.95718 0.0
H147 H 0.86198 0.49362 0.89603 0.0
H148 H 0.80109 0.50352 0.80397 0.0
C149 C 0.82571 0.45751 0.66846 0.0
C150 C 0.85859 0.4711 0.76918 0.0
C151 C 0.82516 0.44198 0.63279 0.0
C152 C 0.85304 0.52594 0.92859 0.0
C153 C 0.85228 0.51009 0.89342 0.0
C154 C 0.81737 0.49485 0.79437 0.0
C155 C 0.83709 0.45101 0.70769 0.0
C156 C 0.83756 0.46742 0.7456 0.0
C157 C 0.83894 0.51532 0.85564 0.0
C158 C 0.83843 0.49868 0.8179 0.0
H159 H 0.85557 0.39594 0.67838 0.0
H160 H 0.85662 0.42315 0.74056 0.0
H161 H 0.80044 0.47668 0.74128 0.0
H162 H 0.817 0.56884 0.88685 0.0
H163 H 0.81606 0.54145 0.82519 0.0
C164 C 0.4576 0.85229 0.16764 0.0
C165 C 0.43441 0.84353 0.16902 0.0
C166 C 0.46997 0.85308 0.12791 0.0
C167 C 0.46889 0.82841 0.01434 0.0
H168 H 0.51511 0.87776 0.99321 0.0
C169 C 0.51727 0.84263 0.84806 0.0
C170 C 0.54199 0.84154 0.85207 0.0
C171 C 0.50306 0.84418 0.88558 0.0
C172 C 0.50219 0.86394 -0.00122 0.0
H173 H 0.40567 0.82936 0.12996 0.0
H174 H 0.42672 0.83172 0.06048 0.0
H175 H 0.49197 0.87827 0.06088 0.0
H176 H 0.57131 0.8419 0.89805 0.0
H177 H 0.54646 0.8453 0.96342 0.0
H178 H 0.4789 0.81454 0.95145 0.0
C179 C 0.43582 0.83718 0.09009 0.0
C180 C 0.48907 0.86406 0.03766 0.0
C181 C 0.42365 0.83595 0.12992 0.0
C182 C 0.55228 0.84259 0.89404 0.0
C183 C 0.53813 0.84467 0.93137 0.0
C184 C 0.48169 0.82859 0.97511 0.0
C185 C 0.45922 0.84556 0.08856 0.0
C186 C 0.47246 0.8461 0.04626 0.0
C187 C 0.51343 0.84525 0.92746 0.0
C188 C 0.49863 0.84617 0.96733 0.0
H189 H 0.46636 0.85811 0.19739 0.0
H190 H 0.4881 0.85921 0.12831 0.0
H191 H 0.45664 0.81403 0.02 0.0
H192 H 0.50891 0.84178 0.81608 0.0
H193 H 0.48401 0.84462 0.88195 0.0
C194 C 0.12154 0.45697 0.41868 0.0
C195 C 0.13699 0.43751 0.42019 0.0
C196 C 0.1205 0.47128 0.38125 0.0
C197 C 0.13282 0.47094 0.26285 0.0
H198 H 0.13644 0.53917 0.27456 0.0
C199 C 0.12448 0.53447 0.11473 0.0
C200 C 0.1419 0.55214 0.1123 0.0
C201 C 0.1221 0.52075 0.15266 0.0
C202 C 0.1354 0.52014 0.27086 0.0
H203 H 0.1634 0.41772 0.38366 0.0
H204 H 0.16145 0.4426 0.31844 0.0
H205 H 0.13562 0.51441 0.34045 0.0
H206 H 0.1703 0.56946 0.14787 0.0
H207 H 0.16606 0.54556 0.21402 0.0
H208 H 0.13299 0.47662 0.1933 0.0
C209 C 0.15009 0.44673 0.34607 0.0
C210 C 0.13473 0.50601 0.30849 0.0
C211 C 0.15131 0.43259 0.38356 0.0
C212 C 0.15673 0.55596 0.14867 0.0
C213 C 0.1542 0.5424 0.18669 0.0
C214 C 0.13326 0.48507 0.22524 0.0
C215 C 0.13469 0.4662 0.34453 0.0
C216 C 0.13378 0.48127 0.30481 0.0
C217 C 0.13693 0.52461 0.189 0.0
C218 C 0.13488 0.50978 0.22889 0.0
H219 H 0.11029 0.46121 0.4464 0.0
H220 H 0.10839 0.48614 0.38079 0.0
H221 H 0.13187 0.45191 0.25913 0.0
H222 H 0.11277 0.53113 0.08726 0.0
H223 H 0.10855 0.50723 0.15372 0.0
C224 C 0.32466 0.2195 0.30814 0.0
C225 C 0.34813 0.22637 0.29992 0.0
C226 C 0.30873 0.2353 0.32725 0.0
C227 C 0.29741 0.29824 0.34938 0.0
H228 H 0.26106 0.27413 0.44777 0.0
C229 C 0.24146 0.35959 0.45942 0.0
C230 C 0.21893 0.35134 0.47144 0.0
C231 C 0.25773 0.34443 0.43937 0.0
C232 C 0.27087 0.28108 0.42007 0.0
H233 H 0.37298 0.25554 0.30341 0.0
H234 H 0.34504 0.28318 0.33665 0.0
H235 H 0.28773 0.24781 0.40819 0.0
H236 H 0.19597 0.32061 0.47266 0.0
H237 H 0.22416 0.29432 0.43716 0.0
H238 H 0.28037 0.33146 0.36091 0.0
C239 C 0.33903 0.26555 0.32833 0.0
C240 C 0.28613 0.266 0.39739 0.0
C241 C 0.35504 0.24969 0.30944 0.0
C242 C 0.21322 0.3275 0.46396 0.0
C243 C 0.22943 0.31239 0.44374 0.0
C244 C 0.28202 0.31332 0.37191 0.0
C245 C 0.31587 0.25833 0.33827 0.0
C246 C 0.29951 0.27441 0.36178 0.0
C247 C 0.25178 0.32074 0.43078 0.0
C248 C 0.26856 0.30489 0.40748 0.0
H249 H 0.31874 0.20169 0.30102 0.0
H250 H 0.29086 0.2294 0.33392 0.0
H251 H 0.30737 0.30513 0.32181 0.0
H252 H 0.24644 0.37785 0.46493 0.0
H253 H 0.27495 0.35131 0.43048 0.0
C254 C 0.76728 0.32979 0.56369 0.0
C255 C 0.76298 0.35427 0.56492 0.0
C256 C 0.75206 0.31411 0.585 0.0
C257 C 0.7077 0.31214 0.67395 0.0
H258 H 0.69295 0.25084 0.62383 0.0
C259 C 0.63678 0.24857 0.74413 0.0
C260 C 0.64248 0.22436 0.74484 0.0
C261 C 0.652 0.26483 0.72426 0.0
C262 C 0.69713 0.26781 0.63843 0.0
H263 H 0.73886 0.38142 0.58805 0.0
H264 H 0.71201 0.354 0.62441 0.0
H265 H 0.71744 0.27848 0.58261 0.0
H266 H 0.66911 0.19838 0.727 0.0
H267 H 0.69561 0.22679 0.69243 0.0
H268 H 0.68708 0.30144 0.72959 0.0
C269 C 0.72745 0.34697 0.60784 0.0
C270 C 0.71114 0.28364 0.61483 0.0
C271 C 0.74274 0.36267 0.58669 0.0
C272 C 0.66413 0.21689 0.72683 0.0
C273 C 0.67925 0.23311 0.70676 0.0
C274 C 0.69355 0.29633 0.69745 0.0
C275 C 0.73213 0.32255 0.6078 0.0
C276 C 0.71667 0.30596 0.63237 0.0
C277 C 0.67312 0.25716 0.70453 0.0
C278 C 0.68823 0.27397 0.67999 0.0
H279 H 0.78278 0.32275 0.54735 0.0
H280 H 0.75633 0.29543 0.58472 0.0
H281 H 0.71195 0.32903 0.68874 0.0
H282 H 0.62026 0.25489 0.75781 0.0
H283 H 0.64681 0.28326 0.72288 0.0
C284 C 0.77602 0.66687 0.97398 0.0
C285 C 0.76858 0.64814 0.001 0.0
C286 C 0.75952 0.6821 0.95495 0.0
C287 C 0.69764 0.70261 0.96122 0.0
H288 H 0.70695 0.71662 0.83761 0.0
C289 C 0.62624 0.74872 0.85639 0.0
C290 C 0.63404 0.76679 0.82819 0.0
C291 C 0.64251 0.73398 0.87745 0.0
C292 C 0.70423 0.71307 0.87222 0.0
H293 H 0.73805 0.6313 0.03075 0.0
H294 H 0.7092 0.65787 -0.00276 0.0
H295 H 0.73578 0.69235 0.87644 0.0
H296 H 0.665 0.78326 0.79924 0.0
H297 H 0.69336 0.7576 0.83613 0.0
H298 H 0.66604 0.72335 0.9569 0.0
C299 C 0.72782 0.66082 0.99098 0.0
C300 C 0.72075 0.69921 0.89449 0.0
C301 C 0.74435 0.64556 0.01006 0.0
C302 C 0.65841 0.76947 0.8207 0.0
C303 C 0.67467 0.75471 0.84171 0.0
C304 C 0.68109 0.7165 0.93892 0.0
C305 C 0.73522 0.67894 0.96251 0.0
C306 C 0.71768 0.69388 0.93925 0.0
C307 C 0.6669 0.73697 0.87066 0.0
C308 C 0.68424 0.7219 0.89419 0.0
H309 H 0.79458 0.66948 0.96662 0.0
H310 H 0.76579 0.69619 0.93385 0.0
H311 H 0.69493 0.69899 0.9958 0.0
H312 H 0.60758 0.74615 0.86278 0.0
H313 H 0.63598 0.72023 0.89905 0.0
C314 C 0.22337 0.65779 0.06193 0.0
C315 C 0.22866 0.63357 0.05851 0.0
C316 C 0.23914 0.67324 0.08235 0.0
C317 C 0.28815 0.6737 0.16227 0.0
H318 H 0.29648 0.73794 0.1204 0.0
C319 C 0.35753 0.73914 0.2322 0.0
C320 C 0.35004 0.76264 0.23819 0.0
C321 C 0.34275 0.72271 0.2117 0.0
C322 C 0.29414 0.72011 0.13269 0.0
H323 H 0.25508 0.60672 0.07228 0.0
H324 H 0.28287 0.63383 0.10715 0.0
H325 H 0.27177 0.71062 0.07891 0.0
H326 H 0.32082 0.78708 0.22903 0.0
H327 H 0.29508 0.75837 0.19331 0.0
H328 H 0.31077 0.68327 0.21589 0.0
C329 C 0.26627 0.64077 0.09489 0.0
C330 C 0.28 0.70446 0.10893 0.0
C331 C 0.25043 0.62527 0.07461 0.0
C332 C 0.32716 0.76914 0.22476 0.0
C333 C 0.31247 0.75277 0.20402 0.0
C334 C 0.30243 0.68934 0.1859 0.0
C335 C 0.26064 0.66487 0.09958 0.0
C336 C 0.27668 0.68113 0.12362 0.0
C337 C 0.32028 0.72952 0.19657 0.0
C338 C 0.30538 0.71275 0.17152 0.0
H339 H 0.20672 0.66476 0.04999 0.0
H340 H 0.23411 0.69163 0.08586 0.0
H341 H 0.28566 0.65596 0.17487 0.0
H342 H 0.37504 0.73357 0.24227 0.0
H343 H 0.34923 0.70491 0.20624 0.0
C344 C 0.3532 0.90556 0.26154 0.0
C345 C 0.35535 0.89516 0.30332 0.0
C346 C 0.34817 0.92959 0.25724 0.0
C347 C 0.35514 0.98511 0.3181 0.0
H348 H 0.32101 0.01119 0.21866 0.0
C349 C 0.35126 0.0852 0.28808 0.0
C350 C 0.35769 0.09227 0.2454 0.0
C351 C 0.34577 0.06163 0.29701 0.0
C352 C 0.33057 0.00414 0.24658 0.0
H353 H 0.35255 0.90161 0.37338 0.0
H354 H 0.34337 0.94366 0.36584 0.0
H355 H 0.31995 0.96862 0.23238 0.0
H356 H 0.36214 0.08034 0.17816 0.0
H357 H 0.35263 0.03907 0.19387 0.0
H358 H 0.36612 0.02051 0.33182 0.0
C359 C 0.34606 0.93323 0.33641 0.0
C360 C 0.33001 0.97978 0.25445 0.0
C361 C 0.3512 0.90913 0.34073 0.0
C362 C 0.35734 0.07546 0.2114 0.0
C363 C 0.35176 0.05184 0.22035 0.0
C364 C 0.35557 0.00944 0.3104 0.0
C365 C 0.34503 0.94385 0.2946 0.0
C366 C 0.34276 0.96992 0.28971 0.0
C367 C 0.34649 0.0446 0.26347 0.0
C368 C 0.34372 0.01915 0.27403 0.0
H369 H 0.35622 0.89533 0.23197 0.0
H370 H 0.34784 0.93716 0.22455 0.0
H371 H 0.36548 0.97814 0.34511 0.0
H372 H 0.35114 0.09773 0.31501 0.0
H373 H 0.34145 0.05662 0.33042 0.0
C374 C 0.89968 0.34608 0.5299 0.0
C375 C 0.89299 0.35402 0.48789 0.0
C376 C 0.92296 0.33924 0.5383 0.0
C377 C 0.98044 0.32451 0.48607 0.0
H378 H 0.00662 0.35561 0.5887 0.0
C379 C 0.07816 0.34965 0.50136 0.0
C380 C 0.08901 0.35007 0.54292 0.0
C381 C 0.05434 0.34377 0.49712 0.0
C382 C -0.00041 0.3463 0.56049 0.0
H383 H 0.90518 0.35964 0.42112 0.0
H384 H 0.94592 0.34797 0.43594 0.0
H385 H 0.96423 0.3566 0.57612 0.0
H386 H 0.08367 0.34331 0.61236 0.0
H387 H 0.04193 0.33285 0.60488 0.0
H388 H 0.01601 0.3149 0.46976 0.0
C389 C 0.9331 0.34685 0.4623 0.0
C390 C 0.97524 0.34689 0.55322 0.0
C391 C 0.90978 0.35369 0.45386 0.0
C392 C 0.07578 0.34333 0.57993 0.0
C393 C 0.05186 0.33743 0.57567 0.0
C394 C 0.00483 0.32385 0.49343 0.0
C395 C 0.94008 0.34019 0.50492 0.0
C396 C 0.96545 0.33654 0.51535 0.0
C397 C 0.04075 0.33812 0.5343 0.0
C398 C 0.01474 0.33532 0.53009 0.0
H399 H 0.88711 0.34586 0.55677 0.0
H400 H 0.92771 0.33382 0.57128 0.0
H401 H 0.97336 0.31606 0.45696 0.0
H402 H 0.08785 0.35463 0.47209 0.0
H403 H 0.04632 0.3448 0.46485 0.0
C404 C 0.6353 0.90317 0.77387 0.0
C405 C 0.63174 0.89288 0.73234 0.0
C406 C 0.64078 0.92712 0.77772 0.0
C407 C 0.63221 0.98266 0.71783 0.0
H408 H 0.66933 0.00861 0.81356 0.0
C409 C 0.63704 0.08268 0.7473 0.0
C410 C 0.632 0.08981 0.7906 0.0
C411 C 0.64222 0.0591 0.73787 0.0
C412 C 0.65892 0.00159 0.78668 0.0
H413 H 0.63263 0.89936 0.66212 0.0
H414 H 0.64259 0.94124 0.66883 0.0
H415 H 0.66993 0.96603 0.79968 0.0
H416 H 0.62971 0.07797 0.85825 0.0
H417 H 0.63866 0.03665 0.84166 0.0
H418 H 0.62082 0.01808 0.70537 0.0
C419 C 0.64064 0.93081 0.69846 0.0
C420 C 0.65924 0.97723 0.77872 0.0
C421 C 0.63506 0.9068 0.6946 0.0
C422 C 0.63343 0.07304 0.82456 0.0
C423 C 0.63869 0.0494 0.81509 0.0
C424 C 0.63201 0.00698 0.72561 0.0
C425 C 0.64297 0.94138 0.74013 0.0
C426 C 0.64544 0.96742 0.74482 0.0
C427 C 0.64256 0.04211 0.77149 0.0
C428 C 0.64497 0.01664 0.76068 0.0
H429 H 0.63298 0.89295 0.80367 0.0
H430 H 0.64215 0.93466 0.81034 0.0
H431 H 0.62104 0.97573 0.69195 0.0
H432 H 0.63631 0.09518 0.72036 0.0
H433 H 0.64547 0.05405 0.70405 0.0
C434 C 0.91803 0.63623 0.0641 0.0
C435 C 0.9016 0.633 0.03001 0.0
C436 C 0.9417 0.64122 0.05451 0.0
C437 C 0.98499 0.6312 0.96721 0.0
H438 H 0.02493 0.67213 0.03741 0.0
C439 C 0.08522 0.63423 0.9382 0.0
C440 C 0.09885 0.63199 0.97657 0.0
C441 C 0.06117 0.63985 0.94086 0.0
C442 C 0.014 0.66062 0.01752 0.0
H443 H 0.89683 0.6338 0.95921 0.0
H444 H 0.93798 0.6426 0.94266 0.0
H445 H 0.98225 0.67169 0.05011 0.0
H446 H 0.09825 0.6353 0.04766 0.0
H447 H 0.05645 0.64463 0.0523 0.0
H448 H 0.01662 0.61937 0.93579 0.0
C449 C 0.93268 0.6409 0.97673 0.0
C450 C 0.98959 0.66037 0.02483 0.0
C451 C 0.90908 0.63593 0.98627 0.0
C452 C 0.08825 0.63676 0.01742 0.0
C453 C 0.06426 0.64232 0.02008 0.0
C454 C 0.00935 0.63138 0.96003 0.0
C455 C 0.94936 0.64307 0.01066 0.0
C456 C 0.97489 0.64533 0.00027 0.0
C457 C 0.05029 0.64334 0.98195 0.0
C458 C 0.02421 0.64572 0.98568 0.0
H459 H 0.91282 0.63415 0.09813 0.0
H460 H 0.95418 0.6426 0.08138 0.0
H461 H 0.9742 0.61915 0.94815 0.0
H462 H 0.0929 0.63085 0.90619 0.0
H463 H 0.05096 0.64088 0.91082 0.0
C464 C 0.56371 0.17526 0.9079 0.0
C465 C 0.55346 0.17868 0.86638 0.0
C466 C 0.54987 0.1766 0.9459 0.0
C467 C 0.49066 0.19672 0.98616 0.0
H468 H 0.50531 0.15514 0.08381 0.0
C469 C 0.42728 0.17708 0.13184 0.0
C470 C 0.43716 0.18037 0.17375 0.0
C471 C 0.44157 0.17801 0.09437 0.0
C472 C 0.50113 0.16691 0.05681 0.0
H473 H 0.52068 0.18589 0.83192 0.0
H474 H 0.49639 0.18717 0.89769 0.0
H475 H 0.53007 0.15431 0.01827 0.0
H476 H 0.46971 0.18706 0.20941 0.0
H477 H 0.49472 0.18803 0.14392 0.0
H478 H 0.46107 0.20849 0.02452 0.0
C479 C 0.51522 0.18431 0.9014 0.0
C480 C 0.51539 0.1666 0.01933 0.0
C481 C 0.52913 0.18342 0.86354 0.0
C482 C 0.46157 0.18458 0.17752 0.0
C483 C 0.47591 0.18502 0.14017 0.0
C484 C 0.47615 0.19667 0.02333 0.0
C485 C 0.52537 0.18093 0.94316 0.0
C486 C 0.51038 0.18153 0.98345 0.0
C487 C 0.46603 0.18174 0.09833 0.0
C488 C 0.48131 0.18181 0.05896 0.0
H489 H 0.58247 0.17174 0.91106 0.0
H490 H 0.55846 0.17437 0.97741 0.0
H491 H 0.48647 0.20883 0.95974 0.0
H492 H 0.40851 0.17384 0.12799 0.0
H493 H 0.43361 0.17533 0.06238 0.0
C494 C 0.82583 0.56064 0.14877 0.0
C495 C 0.81058 0.55684 0.11299 0.0
C496 C 0.82464 0.54612 0.18588 0.0
C497 C 0.78562 0.50477 0.24515 0.0
H498 H 0.8443 0.48105 0.29438 0.0
C499 C 0.79069 0.45482 0.41072 0.0
C500 C 0.80587 0.43515 0.4129 0.0
C501 C 0.79044 0.4693 0.37353 0.0
C502 C 0.82776 0.4874 0.28081 0.0
H503 H 0.78181 0.53514 0.08848 0.0
H504 H 0.77976 0.50987 0.15321 0.0
H505 H 0.84542 0.50759 0.23119 0.0
H506 H 0.83232 0.41494 0.37733 0.0
H507 H 0.83181 0.44023 0.31236 0.0
H508 H 0.76797 0.48438 0.29455 0.0
C509 C 0.79255 0.52412 0.15266 0.0
C510 C 0.82841 0.50282 0.24498 0.0
C511 C 0.79382 0.53854 0.11548 0.0
C512 C 0.82045 0.42999 0.37673 0.0
C513 C 0.82029 0.44455 0.33963 0.0
C514 C 0.78498 0.48945 0.28117 0.0
C515 C 0.80809 0.52761 0.18808 0.0
C516 C 0.80736 0.51164 0.22672 0.0
C517 C 0.80545 0.46449 0.33782 0.0
C518 C 0.80604 0.48056 0.2993 0.0
H519 H 0.83893 0.5746 0.14789 0.0
H520 H 0.83666 0.5494 0.21292 0.0
H521 H 0.76911 0.51141 0.23196 0.0
H522 H 0.77923 0.45928 0.43801 0.0
H523 H 0.77896 0.48465 0.37324 0.0
C524 C 0.56378 0.80593 0.62833 0.0
C525 C 0.55313 0.80146 0.66914 0.0
C526 C 0.55059 0.80444 0.5896 0.0
C527 C 0.4927 0.78344 0.54458 0.0
H528 H 0.50646 0.82947 0.45361 0.0
C529 C 0.42921 0.8077 0.40158 0.0
C530 C 0.4393 0.80755 0.35938 0.0
C531 C 0.44345 0.805 0.4388 0.0
C532 C 0.50256 0.81641 0.47864 0.0
H533 H 0.52041 0.7917 0.70152 0.0
H534 H 0.49716 0.79008 0.6344 0.0
H535 H 0.53072 0.82837 0.51963 0.0
H536 H 0.47217 0.80444 0.32303 0.0
H537 H 0.49707 0.80034 0.38822 0.0
H538 H 0.46378 0.77235 0.50387 0.0
C539 C 0.51585 0.79401 0.63184 0.0
C540 C 0.51655 0.81562 0.51641 0.0
C541 C 0.52915 0.79507 0.67047 0.0
C542 C 0.46388 0.80456 0.35511 0.0
C543 C 0.47814 0.80231 0.39233 0.0
C544 C 0.47845 0.78454 0.5071 0.0
C545 C 0.52632 0.79891 0.59087 0.0
C546 C 0.51182 0.79914 0.54997 0.0
C547 C 0.46805 0.80256 0.43447 0.0
C548 C 0.48328 0.80103 0.47385 0.0
H549 H 0.5823 0.81068 0.62631 0.0
H550 H 0.55946 0.80777 0.55868 0.0
H551 H 0.48874 0.77021 0.56921 0.0
H552 H 0.41031 0.8099 0.40584 0.0
H553 H 0.43531 0.80539 0.47103 0.0
C554 C 0.18075 0.55636 0.88212 0.0
C555 C 0.1814 0.54602 0.92411 0.0
C556 C 0.1819 0.54224 0.84449 0.0
C557 C 0.16771 0.48311 0.80548 0.0
H558 H 0.20888 0.4983 0.70761 0.0
C559 C 0.17228 0.42363 0.6517 0.0
C560 C 0.17425 0.43498 0.61081 0.0
C561 C 0.17497 0.43642 0.69069 0.0
C562 C 0.19706 0.49396 0.73439 0.0
H563 H 0.18402 0.51281 0.95956 0.0
H564 H 0.18565 0.48817 0.89373 0.0
H565 H 0.21014 0.52243 0.77406 0.0
H566 H 0.18055 0.46863 0.57869 0.0
H567 H 0.18445 0.49106 0.64641 0.0
H568 H 0.15394 0.45523 0.76565 0.0
C569 C 0.18432 0.50719 0.89006 0.0
C570 C 0.19788 0.50773 0.77249 0.0
C571 C 0.18351 0.52132 0.92769 0.0
C572 C 0.17909 0.45933 0.60969 0.0
C573 C 0.18149 0.47218 0.64861 0.0
C574 C 0.16665 0.46952 0.76721 0.0
C575 C 0.18339 0.51751 0.84813 0.0
C576 C 0.18316 0.50248 0.8083 0.0
C577 C 0.1794 0.46092 0.68965 0.0
C578 C 0.18123 0.47483 0.73106 0.0
H579 H 0.17917 0.57535 0.87832 0.0
H580 H 0.18098 0.55061 0.81251 0.0
H581 H 0.15596 0.47887 0.83247 0.0
H582 H 0.16873 0.40483 0.65362 0.0
H583 H 0.17366 0.42706 0.72163 0.0
loop_
_geom_bond_atom_site_label_1
_geom_bond_atom_site_label_2
_geom_bond_distance
_geom_bond_site_symmetry_2
_ccdc_geom_bond_type
C0 O1 1.160 . S
C0 O7 1.185 . S
O1 C0 1.160 . S
O2 Zn3 1.899 . S
O2 C10 1.284 . S
Zn3 O2 1.899 . S
Zn3 O4 2.032 . S
Zn3 O7 2.086 . S
Zn3 O12 1.977 . S
O4 Zn3 2.032 . S
O4 C8 1.278 . S
C5 O6 1.203 . S
C5 O12 1.267 . S
O6 C5 1.203 . S
O7 C0 1.185 . S
O7 Zn3 2.086 . S
C8 O4 1.278 . S
C8 O9 1.211 . S
O9 C8 1.211 . S
C10 O2 1.284 . S
C10 O11 1.273 . S
O11 C10 1.273 . S
O12 Zn3 1.977 . S
O12 C5 1.267 . S
C13 O14 1.160 . S
C13 O20 1.185 . S
O14 C13 1.160 . S
O15 Zn16 1.899 . S
O15 C23 1.284 . S
Zn16 O15 1.899 . S
Zn16 O17 2.032 . S
Zn16 O20 2.086 . S
Zn16 O25 1.977 . S
O17 Zn16 2.032 . S
O17 C21 1.278 . S
C18 O19 1.203 . S
C18 O25 1.267 . S
O19 C18 1.203 . S
O20 C13 1.185 . S
O20 Zn16 2.086 . S
C21 O17 1.278 . S
C21 O22 1.211 . S
O22 C21 1.211 . S
C23 O15 1.284 . S
C23 O24 1.273 . S
O24 C23 1.273 . S
O25 Zn16 1.977 . S
O25 C18 1.267 . S
C26 O27 1.160 . S
C26 O33 1.185 . S
O27 C26 1.160 . S
O28 Zn29 1.899 . S
O28 C36 1.284 . S
Zn29 O28 1.899 . S
Zn29 O30 2.032 . S
Zn29 O33 2.086 . S
Zn29 O38 1.977 . S
O30 Zn29 2.032 . S
O30 C34 1.278 . S
C31 O32 1.203 . S
C31 O38 1.267 . S
O32 C31 1.203 . S
O33 C26 1.185 . S
O33 Zn29 2.086 . S
C34 O30 1.278 . S
C34 O35 1.211 . S
O35 C34 1.211 . S
C36 O28 1.284 . S
C36 O37 1.273 . S
O37 C36 1.273 . S
O38 Zn29 1.977 . S
O38 C31 1.267 . S
C39 O40 1.160 . S
C39 O46 1.185 . S
O40 C39 1.160 . S
O41 Zn42 1.899 1_556 S
O41 C49 1.284 . S
Zn42 O41 1.899 1_554 S
Zn42 O43 2.032 . S
Zn42 O46 2.086 . S
Zn42 O51 1.977 . S
O43 Zn42 2.032 . S
O43 C47 1.278 . S
C44 O45 1.205 . S
C44 O51 1.267 . S
O45 C44 1.205 . S
O46 C39 1.185 . S
O46 Zn42 2.086 . S
C47 O43 1.278 . S
C47 O48 1.211 . S
O48 C47 1.211 . S
C49 O41 1.284 . S
C49 O50 1.273 . S
O50 C49 1.273 . S
O51 Zn42 1.977 . S
O51 C44 1.267 . S
C52 O53 1.160 . S
C52 O59 1.185 . S
O53 C52 1.160 . S
O54 Zn55 1.899 . S
O54 C62 1.284 . S
Zn55 O54 1.899 . S
Zn55 O56 2.032 . S
Zn55 O59 2.086 . S
Zn55 O64 1.977 . S
O56 Zn55 2.032 . S
O56 C60 1.278 . S
C57 O58 1.203 . S
C57 O64 1.267 . S
O58 C57 1.203 . S
O59 C52 1.185 . S
O59 Zn55 2.086 . S
C60 O56 1.278 . S
C60 O61 1.211 . S
O61 C60 1.211 . S
C62 O54 1.284 . S
C62 O63 1.273 . S
O63 C62 1.273 . S
O64 Zn55 1.977 . S
O64 C57 1.267 . S
C65 O66 1.160 . S
C65 O72 1.185 . S
O66 C65 1.160 . S
O67 Zn68 1.899 . S
O67 C75 1.284 . S
Zn68 O67 1.899 . S
Zn68 O69 2.032 . S
Zn68 O72 2.086 . S
Zn68 O77 1.977 . S
O69 Zn68 2.032 . S
O69 C73 1.278 . S
C70 O71 1.203 . S
C70 O77 1.267 . S
O71 C70 1.203 . S
O72 C65 1.185 . S
O72 Zn68 2.086 . S
C73 O69 1.278 . S
C73 O74 1.211 . S
O74 C73 1.211 . S
C75 O67 1.284 . S
C75 O76 1.273 . S
O76 C75 1.273 . S
O77 Zn68 1.977 . S
O77 C70 1.267 . S
C78 O79 1.160 . S
C78 O85 1.185 . S
O79 C78 1.160 . S
O80 Zn81 1.899 . S
O80 C88 1.284 . S
Zn81 O80 1.899 . S
Zn81 O82 2.032 . S
Zn81 O85 2.086 . S
Zn81 O90 1.977 . S
O82 Zn81 2.032 . S
O82 C86 1.278 . S
C83 O84 1.203 . S
C83 O90 1.267 . S
O84 C83 1.203 . S
O85 C78 1.185 . S
O85 Zn81 2.086 . S
C86 O82 1.278 . S
C86 O87 1.211 . S
O87 C86 1.211 . S
C88 O80 1.284 . S
C88 O89 1.273 . S
O89 C88 1.273 . S
O90 Zn81 1.977 . S
O90 C83 1.267 . S
C91 O92 1.160 . S
C91 O98 1.185 1_554 S
O92 C91 1.160 . S
O93 Zn94 1.899 . S
O93 C101 1.284 . S
Zn94 O93 1.899 . S
Zn94 O95 2.032 1_554 S
Zn94 O98 2.086 1_554 S
Zn94 O103 1.977 . S
O95 Zn94 2.032 1_556 S
O95 C99 1.278 . S
C96 O97 1.203 . S
C96 O103 1.267 . S
O97 C96 1.203 . S
O98 C91 1.185 1_556 S
O98 Zn94 2.086 1_556 S
C99 O95 1.278 . S
C99 O100 1.211 . S
O100 C99 1.211 . S
C101 O93 1.284 . S
C101 O102 1.273 . S
O102 C101 1.273 . S
O103 Zn94 1.977 . S
O103 C96 1.267 . S
C104 C105 1.349 . S
C104 C106 1.327 . S
C104 H129 0.950 . S
C105 C104 1.349 . S
C105 C121 1.349 . S
C106 C104 1.327 . S
C106 C125 1.429 . S
C106 H130 0.950 . S
C107 C124 1.574 . S
C107 C126 1.368 . S
C107 H131 0.949 . S
H108 C112 0.949 . S
C109 C110 1.349 . S
C109 C111 1.327 . S
C109 H132 0.950 . S
C110 C109 1.349 . S
C110 C122 1.349 . S
C111 C109 1.327 . S
C111 C127 1.429 . S
C111 H133 0.950 . S
C112 H108 0.949 . S
C112 C120 1.574 . S
C112 C128 1.368 . S
H113 C121 0.950 . S
H114 C119 0.950 . S
H115 C120 0.949 . S
H116 C122 0.950 . S
H117 C123 0.950 . S
H118 C124 0.949 . S
C119 H114 0.950 . S
C119 C121 1.327 . S
C119 C125 1.429 . S
C120 C112 1.574 . S
C120 H115 0.949 . S
C120 C126 1.368 . S
C121 C105 1.349 . S
C121 H113 0.950 . S
C121 C119 1.327 . S
C122 C110 1.349 . S
C122 H116 0.950 . S
C122 C123 1.327 . S
C123 H117 0.950 . S
C123 C122 1.327 . S
C123 C127 1.429 . S
C124 C107 1.574 . S
C124 H118 0.949 . S
C124 C128 1.368 . S
C125 C106 1.429 . S
C125 C119 1.429 . S
C125 C126 1.523 . S
C126 C107 1.368 . S
C126 C120 1.368 . S
C126 C125 1.523 . S
C127 C111 1.429 . S
C127 C123 1.429 . S
C127 C128 1.523 . S
C128 C112 1.368 . S
C128 C124 1.368 . S
C128 C127 1.523 . S
H129 C104 0.950 . S
H130 C106 0.950 . S
H131 C107 0.949 . S
H132 C109 0.950 . S
H133 C111 0.950 . S
C134 C135 1.349 . S
C134 C136 1.327 . S
C134 H159 0.950 . S
C135 C134 1.349 . S
C135 C151 1.349 . S
C136 C134 1.327 . S
C136 C155 1.429 . S
C136 H160 0.950 . S
C137 C154 1.574 . S
C137 C156 1.368 . S
C137 H161 0.949 . S
H138 C142 0.949 . S
C139 C140 1.349 . S
C139 C141 1.327 . S
C139 H162 0.950 . S
C140 C139 1.349 . S
C140 C152 1.349 . S
C141 C139 1.327 . S
C141 C157 1.429 . S
C141 H163 0.950 . S
C142 H138 0.949 . S
C142 C150 1.574 . S
C142 C158 1.368 . S
H143 C151 0.950 . S
H144 C149 0.950 . S
H145 C150 0.949 . S
H146 C152 0.950 . S
H147 C153 0.950 . S
H148 C154 0.949 . S
C149 H144 0.950 . S
C149 C151 1.327 . S
C149 C155 1.429 . S
C150 C142 1.574 . S
C150 H145 0.949 . S
C150 C156 1.368 . S
C151 C135 1.349 . S
C151 H143 0.950 . S
C151 C149 1.327 . S
C152 C140 1.349 . S
C152 H146 0.950 . S
C152 C153 1.327 . S
C153 H147 0.950 . S
C153 C152 1.327 . S
C153 C157 1.429 . S
C154 C137 1.574 . S
C154 H148 0.949 . S
C154 C158 1.368 . S
C155 C136 1.429 . S
C155 C149 1.429 . S
C155 C156 1.523 . S
C156 C137 1.368 . S
C156 C150 1.368 . S
C156 C155 1.523 . S
C157 C141 1.429 . S
C157 C153 1.429 . S
C157 C158 1.523 . S
C158 C142 1.368 . S
C158 C154 1.368 . S
C158 C157 1.523 . S
H159 C134 0.950 . S
H160 C136 0.950 . S
H161 C137 0.949 . S
H162 C139 0.950 . S
H163 C141 0.950 . S
C164 C165 1.349 . S
C164 C166 1.327 . S
C164 H189 0.950 . S
C165 C164 1.349 . S
C165 C181 1.349 . S
C166 C164 1.327 . S
C166 C185 1.429 . S
C166 H190 0.950 . S
C167 C184 1.574 1_554 S
C167 C186 1.368 . S
C167 H191 0.949 . S
H168 C172 0.949 . S
C169 C170 1.349 . S
C169 C171 1.327 . S
C169 H192 0.950 . S
C170 C169 1.349 . S
C170 C182 1.349 . S
C171 C169 1.327 . S
C171 C187 1.429 . S
C171 H193 0.950 . S
C172 H168 0.949 . S
C172 C180 1.574 . S
C172 C188 1.368 1_554 S
H173 C181 0.950 . S
H174 C179 0.950 . S
H175 C180 0.949 . S
H176 C182 0.950 . S
H177 C183 0.950 . S
H178 C184 0.949 . S
C179 H174 0.950 . S
C179 C181 1.327 . S
C179 C185 1.429 . S
C180 C172 1.574 . S
C180 H175 0.949 . S
C180 C186 1.368 . S
C181 C165 1.349 . S
C181 H173 0.950 . S
C181 C179 1.327 . S
C182 C170 1.349 . S
C182 H176 0.950 . S
C182 C183 1.327 . S
C183 H177 0.950 . S
C183 C182 1.327 . S
C183 C187 1.429 . S
C184 C167 1.574 1_556 S
C184 H178 0.949 . S
C184 C188 1.368 . S
C185 C166 1.429 . S
C185 C179 1.429 . S
C185 C186 1.523 . S
C186 C167 1.368 . S
C186 C180 1.368 . S
C186 C185 1.523 . S
C187 C171 1.429 . S
C187 C183 1.429 . S
C187 C188 1.523 . S
C188 C172 1.368 1_556 S
C188 C184 1.368 . S
C188 C187 1.523 . S
H189 C164 0.950 . S
H190 C166 0.950 . S
H191 C167 0.949 . S
H192 C169 0.950 . S
H193 C171 0.950 . S
C194 C195 1.349 . S
C194 C196 1.327 . S
C194 H219 0.950 . S
C195 C194 1.349 . S
C195 C211 1.349 . S
C196 C194 1.327 . S
C196 C215 1.429 . S
C196 H220 0.950 . S
C197 C214 1.574 . S
C197 C216 1.368 . S
C197 H221 0.949 . S
H198 C202 0.949 . S
C199 C200 1.349 . S
C199 C201 1.327 . S
C199 H222 0.950 . S
C200 C199 1.349 . S
C200 C212 1.349 . S
C201 C199 1.327 . S
C201 C217 1.429 . S
C201 H223 0.950 . S
C202 H198 0.949 . S
C202 C210 1.574 . S
C202 C218 1.368 . S
H203 C211 0.950 . S
H204 C209 0.950 . S
H205 C210 0.949 . S
H206 C212 0.950 . S
H207 C213 0.950 . S
H208 C214 0.949 . S
C209 H204 0.950 . S
C209 C211 1.327 . S
C209 C215 1.429 . S
C210 C202 1.574 . S
C210 H205 0.949 . S
C210 C216 1.368 . S
C211 C195 1.349 . S
C211 H203 0.950 . S
C211 C209 1.327 . S
C212 C200 1.349 . S
C212 H206 0.950 . S
C212 C213 1.327 . S
C213 H207 0.950 . S
C213 C212 1.327 . S
C213 C217 1.429 . S
C214 C197 1.574 . S
C214 H208 0.949 . S
C214 C218 1.368 . S
C215 C196 1.429 . S
C215 C209 1.429 . S
C215 C216 1.523 . S
C216 C197 1.368 . S
C216 C210 1.368 . S
C216 C215 1.523 . S
C217 C201 1.429 . S
C217 C213 1.429 . S
C217 C218 1.523 . S
C218 C202 1.368 . S
C218 C214 1.368 . S
C218 C217 1.523 . S
H219 C194 0.950 . S
H220 C196 0.950 . S
H221 C197 0.949 . S
H222 C199 0.950 . S
H223 C201 0.950 . S
C224 C225 1.349 . S
C224 C226 1.327 . S
C224 H249 0.950 . S
C225 C224 1.349 . S
C225 C241 1.349 . S
C226 C224 1.327 . S
C226 C245 1.429 . S
C226 H250 0.950 . S
C227 C244 1.574 . S
C227 C246 1.368 . S
C227 H251 0.949 . S
H228 C232 0.949 . S
C229 C230 1.349 . S
C229 C231 1.327 . S
C229 H252 0.950 . S
C230 C229 1.349 . S
C230 C242 1.349 . S
C231 C229 1.327 . S
C231 C247 1.429 . S
C231 H253 0.950 . S
C232 H228 0.949 . S
C232 C240 1.574 . S
C232 C248 1.368 . S
H233 C241 0.950 . S
H234 C239 0.950 . S
H235 C240 0.949 . S
H236 C242 0.950 . S
H237 C243 0.950 . S
H238 C244 0.949 . S
C239 H234 0.950 . S
C239 C241 1.327 . S
C239 C245 1.429 . S
C240 C232 1.574 . S
C240 H235 0.949 . S
C240 C246 1.368 . S
C241 C225 1.349 . S
C241 H233 0.950 . S
C241 C239 1.327 . S
C242 C230 1.349 . S
C242 H236 0.950 . S
C242 C243 1.327 . S
C243 H237 0.950 . S
C243 C242 1.327 . S
C243 C247 1.429 . S
C244 C227 1.574 . S
C244 H238 0.949 . S
C244 C248 1.368 . S
C245 C226 1.429 . S
C245 C239 1.429 . S
C245 C246 1.523 . S
C246 C227 1.368 . S
C246 C240 1.368 . S
C246 C245 1.523 . S
C247 C231 1.429 . S
C247 C243 1.429 . S
C247 C248 1.523 . S
C248 C232 1.368 . S
C248 C244 1.368 . S
C248 C247 1.523 . S
H249 C224 0.950 . S
H250 C226 0.950 . S
H251 C227 0.949 . S
H252 C229 0.950 . S
H253 C231 0.950 . S
C254 C255 1.349 . S
C254 C256 1.327 . S
C254 H279 0.950 . S
C255 C254 1.349 . S
C255 C271 1.349 . S
C256 C254 1.327 . S
C256 C275 1.429 . S
C256 H280 0.950 . S
C257 C274 1.574 . S
C257 C276 1.368 . S
C257 H281 0.949 . S
H258 C262 0.949 . S
C259 C260 1.349 . S
C259 C261 1.327 . S
C259 H282 0.950 . S
C260 C259 1.349 . S
C260 C272 1.349 . S
C261 C259 1.327 . S
C261 C277 1.429 . S
C261 H283 0.950 . S
C262 H258 0.949 . S
C262 C270 1.574 . S
C262 C278 1.368 . S
H263 C271 0.950 . S
H264 C269 0.950 . S
H265 C270 0.949 . S
H266 C272 0.950 . S
H267 C273 0.950 . S
H268 C274 0.949 . S
C269 H264 0.950 . S
C269 C271 1.327 . S
C269 C275 1.429 . S
C270 C262 1.574 . S
C270 H265 0.949 . S
C270 C276 1.368 . S
C271 C255 1.349 . S
C271 H263 0.950 . S
C271 C269 1.327 . S
C272 C260 1.349 . S
C272 H266 0.950 . S
C272 C273 1.327 . S
C273 H267 0.950 . S
C273 C272 1.327 . S
C273 C277 1.429 . S
C274 C257 1.574 . S
C274 H268 0.949 . S
C274 C278 1.368 . S
C275 C256 1.429 . S
C275 C269 1.429 . S
C275 C276 1.523 . S
C276 C257 1.368 . S
C276 C270 1.368 . S
C276 C275 1.523 . S
C277 C261 1.429 . S
C277 C273 1.429 . S
C277 C278 1.523 . S
C278 C262 1.368 . S
C278 C274 1.368 . S
C278 C277 1.523 . S
H279 C254 0.950 . S
H280 C256 0.950 . S
H281 C257 0.949 . S
H282 C259 0.950 . S
H283 C261 0.950 . S
C284 C285 1.349 . S
C284 C286 1.327 . S
C284 H309 0.950 . S
C285 C284 1.349 . S
C285 C301 1.349 1_556 S
C286 C284 1.327 . S
C286 C305 1.429 . S
C286 H310 0.950 . S
C287 C304 1.574 . S
C287 C306 1.368 . S
C287 H311 0.949 . S
H288 C292 0.949 . S
C289 C290 1.349 . S
C289 C291 1.327 . S
C289 H312 0.950 . S
C290 C289 1.349 . S
C290 C302 1.349 . S
C291 C289 1.327 . S
C291 C307 1.429 . S
C291 H313 0.950 . S
C292 H288 0.949 . S
C292 C300 1.574 . S
C292 C308 1.368 . S
H293 C301 0.950 . S
H294 C299 0.950 1_554 S
H295 C300 0.949 . S
H296 C302 0.950 . S
H297 C303 0.950 . S
H298 C304 0.949 . S
C299 H294 0.950 1_556 S
C299 C301 1.327 1_556 S
C299 C305 1.429 . S
C300 C292 1.574 . S
C300 H295 0.949 . S
C300 C306 1.368 . S
C301 C285 1.349 1_554 S
C301 H293 0.950 . S
C301 C299 1.327 1_554 S
C302 C290 1.349 . S
C302 H296 0.950 . S
C302 C303 1.327 . S
C303 H297 0.950 . S
C303 C302 1.327 . S
C303 C307 1.429 . S
C304 C287 1.574 . S
C304 H298 0.949 . S
C304 C308 1.368 . S
C305 C286 1.429 . S
C305 C299 1.429 . S
C305 C306 1.523 . S
C306 C287 1.368 . S
C306 C300 1.368 . S
C306 C305 1.523 . S
C307 C291 1.429 . S
C307 C303 1.429 . S
C307 C308 1.523 . S
C308 C292 1.368 . S
C308 C304 1.368 . S
C308 C307 1.523 . S
H309 C284 0.950 . S
H310 C286 0.950 . S
H311 C287 0.949 . S
H312 C289 0.950 . S
H313 C291 0.950 . S
C314 C315 1.349 . S
C314 C316 1.327 . S
C314 H339 0.950 . S
C315 C314 1.349 . S
C315 C331 1.349 . S
C316 C314 1.327 . S
C316 C335 1.429 . S
C316 H340 0.950 . S
C317 C334 1.574 . S
C317 C336 1.368 . S
C317 H341 0.949 . S
H318 C322 0.949 . S
C319 C320 1.349 . S
C319 C321 1.327 . S
C319 H342 0.950 . S
C320 C319 1.349 . S
C320 C332 1.349 . S
C321 C319 1.327 . S
C321 C337 1.429 . S
C321 H343 0.950 . S
C322 H318 0.949 . S
C322 C330 1.574 . S
C322 C338 1.368 . S
H323 C331 0.950 . S
H324 C329 0.950 . S
H325 C330 0.949 . S
H326 C332 0.950 . S
H327 C333 0.950 . S
H328 C334 0.949 . S
C329 H324 0.950 . S
C329 C331 1.327 . S
C329 C335 1.429 . S
C330 C322 1.574 . S
C330 H325 0.949 . S
C330 C336 1.368 . S
C331 C315 1.349 . S
C331 H323 0.950 . S
C331 C329 1.327 . S
C332 C320 1.349 . S
C332 H326 0.950 . S
C332 C333 1.327 . S
C333 H327 0.950 . S
C333 C332 1.327 . S
C333 C337 1.429 . S
C334 C317 1.574 . S
C334 H328 0.949 . S
C334 C338 1.368 . S
C335 C316 1.429 . S
C335 C329 1.429 . S
C335 C336 1.523 . S
C336 C317 1.368 . S
C336 C330 1.368 . S
C336 C335 1.523 . S
C337 C321 1.429 . S
C337 C333 1.429 . S
C337 C338 1.523 . S
C338 C322 1.368 . S
C338 C334 1.368 . S
C338 C337 1.523 . S
H339 C314 0.950 . S
H340 C316 0.950 . S
H341 C317 0.949 . S
H342 C319 0.950 . S
H343 C321 0.950 . S
C344 C345 1.349 . S
C344 C346 1.327 . S
C344 H369 0.950 . S
C345 C344 1.349 . S
C345 C361 1.349 . S
C346 C344 1.327 . S
C346 C365 1.429 . S
C346 H370 0.950 . S
C347 C364 1.574 1_565 S
C347 C366 1.368 . S
C347 H371 0.949 . S
H348 C352 0.949 . S
C349 C350 1.349 . S
C349 C351 1.327 . S
C349 H372 0.950 . S
C350 C349 1.349 . S
C350 C362 1.349 . S
C351 C349 1.327 . S
C351 C367 1.429 . S
C351 H373 0.950 . S
C352 H348 0.949 . S
C352 C360 1.574 1_545 S
C352 C368 1.368 . S
H353 C361 0.950 . S
H354 C359 0.950 . S
H355 C360 0.949 . S
H356 C362 0.950 . S
H357 C363 0.950 . S
H358 C364 0.949 . S
C359 H354 0.950 . S
C359 C361 1.327 . S
C359 C365 1.429 . S
C360 C352 1.574 1_565 S
C360 H355 0.949 . S
C360 C366 1.368 . S
C361 C345 1.349 . S
C361 H353 0.950 . S
C361 C359 1.327 . S
C362 C350 1.349 . S
C362 H356 0.950 . S
C362 C363 1.327 . S
C363 H357 0.950 . S
C363 C362 1.327 . S
C363 C367 1.429 . S
C364 C347 1.574 1_545 S
C364 H358 0.949 . S
C364 C368 1.368 . S
C365 C346 1.429 . S
C365 C359 1.429 . S
C365 C366 1.523 . S
C366 C347 1.368 . S
C366 C360 1.368 . S
C366 C365 1.523 . S
C367 C351 1.429 . S
C367 C363 1.429 . S
C367 C368 1.523 . S
C368 C352 1.368 . S
C368 C364 1.368 . S
C368 C367 1.523 . S
H369 C344 0.950 . S
H370 C346 0.950 . S
H371 C347 0.949 . S
H372 C349 0.950 . S
H373 C351 0.950 . S
C374 C375 1.349 . S
C374 C376 1.327 . S
C374 H399 0.950 . S
C375 C374 1.349 . S
C375 C391 1.349 . S
C376 C374 1.327 . S
C376 C395 1.429 . S
C376 H400 0.950 . S
C377 C394 1.574 1_655 S
C377 C396 1.368 . S
C377 H401 0.949 . S
H378 C382 0.949 . S
C379 C380 1.349 . S
C379 C381 1.327 . S
C379 H402 0.950 . S
C380 C379 1.349 . S
C380 C392 1.349 . S
C381 C379 1.327 . S
C381 C397 1.429 . S
C381 H403 0.950 . S
C382 H378 0.949 . S
C382 C390 1.574 1_455 S
C382 C398 1.368 . S
H383 C391 0.950 . S
H384 C389 0.950 . S
H385 C390 0.949 . S
H386 C392 0.950 . S
H387 C393 0.950 . S
H388 C394 0.949 . S
C389 H384 0.950 . S
C389 C391 1.327 . S
C389 C395 1.429 . S
C390 C382 1.574 1_655 S
C390 H385 0.949 . S
C390 C396 1.368 . S
C391 C375 1.349 . S
C391 H383 0.950 . S
C391 C389 1.327 . S
C392 C380 1.349 . S
C392 H386 0.950 . S
C392 C393 1.327 . S
C393 H387 0.950 . S
C393 C392 1.327 . S
C393 C397 1.429 . S
C394 C377 1.574 1_455 S
C394 H388 0.949 . S
C394 C398 1.368 . S
C395 C376 1.429 . S
C395 C389 1.429 . S
C395 C396 1.523 . S
C396 C377 1.368 . S
C396 C390 1.368 . S
C396 C395 1.523 . S
C397 C381 1.429 . S
C397 C393 1.429 . S
C397 C398 1.523 . S
C398 C382 1.368 . S
C398 C394 1.368 . S
C398 C397 1.523 . S
H399 C374 0.950 . S
H400 C376 0.950 . S
H401 C377 0.949 . S
H402 C379 0.950 . S
H403 C381 0.950 . S
C404 C405 1.349 . S
C404 C406 1.327 . S
C404 H429 0.950 . S
C405 C404 1.349 . S
C405 C421 1.349 . S
C406 C404 1.327 . S
C406 C425 1.429 . S
C406 H430 0.950 . S
C407 C424 1.574 1_565 S
C407 C426 1.368 . S
C407 H431 0.949 . S
H408 C412 0.949 . S
C409 C410 1.349 . S
C409 C411 1.327 . S
C409 H432 0.950 . S
C410 C409 1.349 . S
C410 C422 1.349 . S
C411 C409 1.327 . S
C411 C427 1.429 . S
C411 H433 0.950 . S
C412 H408 0.949 . S
C412 C420 1.574 1_545 S
C412 C428 1.368 . S
H413 C421 0.950 . S
H414 C419 0.950 . S
H415 C420 0.949 . S
H416 C422 0.950 . S
H417 C423 0.950 . S
H418 C424 0.949 . S
C419 H414 0.950 . S
C419 C421 1.327 . S
C419 C425 1.429 . S
C420 C412 1.574 1_565 S
C420 H415 0.949 . S
C420 C426 1.368 . S
C421 C405 1.349 . S
C421 H413 0.950 . S
C421 C419 1.327 . S
C422 C410 1.349 . S
C422 H416 0.950 . S
C422 C423 1.327 . S
C423 H417 0.950 . S
C423 C422 1.327 . S
C423 C427 1.429 . S
C424 C407 1.574 1_545 S
C424 H418 0.949 . S
C424 C428 1.368 . S
C425 C406 1.429 . S
C425 C419 1.429 . S
C425 C426 1.523 . S
C426 C407 1.368 . S
C426 C420 1.368 . S
C426 C425 1.523 . S
C427 C411 1.429 . S
C427 C423 1.429 . S
C427 C428 1.523 . S
C428 C412 1.368 . S
C428 C424 1.368 . S
C428 C427 1.523 . S
H429 C404 0.950 . S
H430 C406 0.950 . S
H431 C407 0.949 . S
H432 C409 0.950 . S
H433 C411 0.950 . S
C434 C435 1.349 . S
C434 C436 1.327 . S
C434 H459 0.950 . S
C435 C434 1.349 . S
C435 C451 1.349 1_554 S
C436 C434 1.327 . S
C436 C455 1.429 . S
C436 H460 0.950 . S
C437 C454 1.574 1_655 S
C437 C456 1.368 1_556 S
C437 H461 0.949 . S
H438 C442 0.949 . S
C439 C440 1.349 . S
C439 C441 1.327 . S
C439 H462 0.950 1_554 S
C440 C439 1.349 . S
C440 C452 1.349 . S
C441 C439 1.327 . S
C441 C457 1.429 . S
C441 H463 0.950 1_554 S
C442 H438 0.949 . S
C442 C450 1.574 1_455 S
C442 C458 1.368 . S
H443 C451 0.950 . S
H444 C449 0.950 . S
H445 C450 0.949 . S
H446 C452 0.950 . S
H447 C453 0.950 . S
H448 C454 0.949 . S
C449 H444 0.950 . S
C449 C451 1.327 . S
C449 C455 1.429 1_556 S
C450 C442 1.574 1_655 S
C450 H445 0.949 . S
C450 C456 1.368 . S
C451 C435 1.349 1_556 S
C451 H443 0.950 . S
C451 C449 1.327 . S
C452 C440 1.349 . S
C452 H446 0.950 . S
C452 C453 1.327 . S
C453 H447 0.950 . S
C453 C452 1.327 . S
C453 C457 1.429 . S
C454 C437 1.574 1_455 S
C454 H448 0.949 . S
C454 C458 1.368 1_556 S
C455 C436 1.429 . S
C455 C449 1.429 1_554 S
C455 C456 1.523 . S
C456 C437 1.368 1_554 S
C456 C450 1.368 . S
C456 C455 1.523 . S
C457 C441 1.429 . S
C457 C453 1.429 . S
C457 C458 1.523 . S
C458 C442 1.368 . S
C458 C454 1.368 1_554 S
C458 C457 1.523 . S
H459 C434 0.950 . S
H460 C436 0.950 . S
H461 C437 0.949 . S
H462 C439 0.950 1_556 S
H463 C441 0.950 1_556 S
C464 C465 1.349 . S
C464 C466 1.327 . S
C464 H489 0.950 . S
C465 C464 1.349 . S
C465 C481 1.349 . S
C466 C464 1.327 . S
C466 C485 1.429 . S
C466 H490 0.950 . S
C467 C484 1.574 1_556 S
C467 C486 1.368 . S
C467 H491 0.949 . S
H468 C472 0.949 . S
C469 C470 1.349 . S
C469 C471 1.327 . S
C469 H492 0.950 . S
C470 C469 1.349 . S
C470 C482 1.349 . S
C471 C469 1.327 . S
C471 C487 1.429 . S
C471 H493 0.950 . S
C472 H468 0.949 . S
C472 C480 1.574 . S
C472 C488 1.368 . S
H473 C481 0.950 . S
H474 C479 0.950 . S
H475 C480 0.949 . S
H476 C482 0.950 . S
H477 C483 0.950 . S
H478 C484 0.949 . S
C479 H474 0.950 . S
C479 C481 1.327 . S
C479 C485 1.429 . S
C480 C472 1.574 . S
C480 H475 0.949 . S
C480 C486 1.368 1_554 S
C481 C465 1.349 . S
C481 H473 0.950 . S
C481 C479 1.327 . S
C482 C470 1.349 . S
C482 H476 0.950 . S
C482 C483 1.327 . S
C483 H477 0.950 . S
C483 C482 1.327 . S
C483 C487 1.429 . S
C484 C467 1.574 1_554 S
C484 H478 0.949 . S
C484 C488 1.368 . S
C485 C466 1.429 . S
C485 C479 1.429 . S
C485 C486 1.523 . S
C486 C467 1.368 . S
C486 C480 1.368 1_556 S
C486 C485 1.523 . S
C487 C471 1.429 . S
C487 C483 1.429 . S
C487 C488 1.523 . S
C488 C472 1.368 . S
C488 C484 1.368 . S
C488 C487 1.523 . S
H489 C464 0.950 . S
H490 C466 0.950 . S
H491 C467 0.949 . S
H492 C469 0.950 . S
H493 C471 0.950 . S
C494 C495 1.349 . S
C494 C496 1.327 . S
C494 H519 0.950 . S
C495 C494 1.349 . S
C495 C511 1.349 . S
C496 C494 1.327 . S
C496 C515 1.429 . S
C496 H520 0.950 . S
C497 C514 1.574 . S
C497 C516 1.368 . S
C497 H521 0.949 . S
H498 C502 0.949 . S
C499 C500 1.349 . S
C499 C501 1.327 . S
C499 H522 0.950 . S
C500 C499 1.349 . S
C500 C512 1.349 . S
C501 C499 1.327 . S
C501 C517 1.429 . S
C501 H523 0.950 . S
C502 H498 0.949 . S
C502 C510 1.574 . S
C502 C518 1.368 . S
H503 C511 0.950 . S
H504 C509 0.950 . S
H505 C510 0.949 . S
H506 C512 0.950 . S
H507 C513 0.950 . S
H508 C514 0.949 . S
C509 H504 0.950 . S
C509 C511 1.327 . S
C509 C515 1.429 . S
C510 C502 1.574 . S
C510 H505 0.949 . S
C510 C516 1.368 . S
C511 C495 1.349 . S
C511 H503 0.950 . S
C511 C509 1.327 . S
C512 C500 1.349 . S
C512 H506 0.950 . S
C512 C513 1.327 . S
C513 H507 0.950 . S
C513 C512 1.327 . S
C513 C517 1.429 . S
C514 C497 1.574 . S
C514 H508 0.949 . S
C514 C518 1.368 . S
C515 C496 1.429 . S
C515 C509 1.429 . S
C515 C516 1.523 . S
C516 C497 1.368 . S
C516 C510 1.368 . S
C516 C515 1.523 . S
C517 C501 1.429 . S
C517 C513 1.429 . S
C517 C518 1.523 . S
C518 C502 1.368 . S
C518 C514 1.368 . S
C518 C517 1.523 . S
H519 C494 0.950 . S
H520 C496 0.950 . S
H521 C497 0.949 . S
H522 C499 0.950 . S
H523 C501 0.950 . S
C524 C525 1.349 . S
C524 C526 1.327 . S
C524 H549 0.950 . S
C525 C524 1.349 . S
C525 C541 1.349 . S
C526 C524 1.327 . S
C526 C545 1.429 . S
C526 H550 0.950 . S
C527 C544 1.574 . S
C527 C546 1.368 . S
C527 H551 0.949 . S
H528 C532 0.949 . S
C529 C530 1.349 . S
C529 C531 1.327 . S
C529 H552 0.950 . S
C530 C529 1.349 . S
C530 C542 1.349 . S
C531 C529 1.327 . S
C531 C547 1.429 . S
C531 H553 0.950 . S
C532 H528 0.949 . S
C532 C540 1.574 . S
C532 C548 1.368 . S
H533 C541 0.950 . S
H534 C539 0.950 . S
H535 C540 0.949 . S
H536 C542 0.950 . S
H537 C543 0.950 . S
H538 C544 0.949 . S
C539 H534 0.950 . S
C539 C541 1.327 . S
C539 C545 1.429 . S
C540 C532 1.574 . S
C540 H535 0.949 . S
C540 C546 1.368 . S
C541 C525 1.349 . S
C541 H533 0.950 . S
C541 C539 1.327 . S
C542 C530 1.349 . S
C542 H536 0.950 . S
C542 C543 1.327 . S
C543 H537 0.950 . S
C543 C542 1.327 . S
C543 C547 1.429 . S
C544 C527 1.574 . S
C544 H538 0.949 . S
C544 C548 1.368 . S
C545 C526 1.429 . S
C545 C539 1.429 . S
C545 C546 1.523 . S
C546 C527 1.368 . S
C546 C540 1.368 . S
C546 C545 1.523 . S
C547 C531 1.429 . S
C547 C543 1.429 . S
C547 C548 1.523 . S
C548 C532 1.368 . S
C548 C544 1.368 . S
C548 C547 1.523 . S
H549 C524 0.950 . S
H550 C526 0.950 . S
H551 C527 0.949 . S
H552 C529 0.950 . S
H553 C531 0.950 . S
C554 C555 1.349 . S
C554 C556 1.327 . S
C554 H579 0.950 . S
C555 C554 1.349 . S
C555 C571 1.349 . S
C556 C554 1.327 . S
C556 C575 1.429 . S
C556 H580 0.950 . S
C557 C574 1.574 . S
C557 C576 1.368 . S
C557 H581 0.949 . S
H558 C562 0.949 . S
C559 C560 1.349 . S
C559 C561 1.327 . S
C559 H582 0.950 . S
C560 C559 1.349 . S
C560 C572 1.349 . S
C561 C559 1.327 . S
C561 C577 1.429 . S
C561 H583 0.950 . S
C562 H558 0.949 . S
C562 C570 1.574 . S
C562 C578 1.368 . S
H563 C571 0.950 . S
H564 C569 0.950 . S
H565 C570 0.949 . S
H566 C572 0.950 . S
H567 C573 0.950 . S
H568 C574 0.949 . S
C569 H564 0.950 . S
C569 C571 1.327 . S
C569 C575 1.429 . S
C570 C562 1.574 . S
C570 H565 0.949 . S
C570 C576 1.368 . S
C571 C555 1.349 . S
C571 H563 0.950 . S
C571 C569 1.327 . S
C572 C560 1.349 . S
C572 H566 0.950 . S
C572 C573 1.327 . S
C573 H567 0.950 . S
C573 C572 1.327 . S
C573 C577 1.429 . S
C574 C557 1.574 . S
C574 H568 0.949 . S
C574 C578 1.368 . S
C575 C556 1.429 . S
C575 C569 1.429 . S
C575 C576 1.523 . S
C576 C557 1.368 . S
C576 C570 1.368 . S
C576 C575 1.523 . S
C577 C561 1.429 . S
C577 C573 1.429 . S
C577 C578 1.523 . S
C578 C562 1.368 . S
C578 C574 1.368 . S
C578 C577 1.523 . S
H579 C554 0.950 . S
H580 C556 0.950 . S
H581 C557 0.949 . S
H582 C559 0.950 . S
H583 C561 0.950 . S
C105 C8 0.881 . S
C110 C86 0.881 . S
C135 C21 0.882 . S
C140 C99 0.882 . S
C165 C60 0.882 . S
C170 C34 0.882 . S
C195 C73 0.881 . S
C200 C47 0.881 . S
C225 C0 1.201 . S
C230 C65 1.201 . S
C255 C13 1.201 . S
C260 C78 1.201 . S
C285 C91 1.201 1_556 S
C290 C26 1.201 . S
C315 C39 1.201 . S
C320 C52 1.201 . S
C345 C57 1.285 . S
C350 C5 1.285 . S
C375 C18 1.285 . S
C380 C70 1.285 . S
C405 C31 1.285 . S
C410 C83 1.285 . S
C435 C96 1.285 . S
C440 C44 1.285 . S
C465 C88 1.493 . S
C470 C10 1.493 . S
C495 C101 1.493 . S
C500 C23 1.493 . S
C525 C36 1.493 . S
C530 C62 1.493 . S
C555 C49 1.493 . S
C560 C75 1.493 . S
