# Generated by pormake.
# Topology ukd, (4)-cn, num edge types: 1
# Building blocks:
#     Node 0, Type 0, BuildingBlock: AZAVOO_clean_sbu_0, # of connection points: 4
#     Node 1, Type 0, BuildingBlock: AZAVOO_clean_sbu_0, # of connection points: 4
#     Node 2, Type 0, BuildingBlock: AZAVOO_clean_sbu_0, # of connection points: 4
#     Node 3, Type 0, BuildingBlock: AZAVOO_clean_sbu_0, # of connection points: 4
#     Node 4, Type 0, BuildingBlock: AZAVOO_clean_sbu_0, # of connection points: 4
#     Node 5, Type 0, BuildingBlock: AZAVOO_clean_sbu_0, # of connection points: 4
#     Node 6, Type 0, BuildingBlock: AZAVOO_clean_sbu_0, # of connection points: 4
#     Node 7, Type 0, BuildingBlock: AZAVOO_clean_sbu_0, # of connection points: 4
#     Node 8, Type 0, BuildingBlock: AZAVOO_clean_sbu_0, # of connection points: 4
#     Node 9, Type 0, BuildingBlock: AZAVOO_clean_sbu_0, # of connection points: 4
#     Node 10, Type 0, BuildingBlock: AZAVOO_clean_sbu_0, # of connection points: 4
#     Node 11, Type 0, BuildingBlock: AZAVOO_clean_sbu_0, # of connection points: 4
#     Node 12, Type 0, BuildingBlock: AZAVOO_clean_sbu_0, # of connection points: 4
#     Node 13, Type 0, BuildingBlock: AZAVOO_clean_sbu_0, # of connection points: 4
#     Node 14, Type 0, BuildingBlock: AZAVOO_clean_sbu_0, # of connection points: 4
#     Node 15, Type 0, BuildingBlock: AZAVOO_clean_sbu_0, # of connection points: 4
#     Node 16, Type 0, BuildingBlock: AZAVOO_clean_sbu_0, # of connection points: 4
#     Node 17, Type 0, BuildingBlock: AZAVOO_clean_sbu_0, # of connection points: 4
#     Node 18, Type 0, BuildingBlock: AZAVOO_clean_sbu_0, # of connection points: 4
#     Node 19, Type 0, BuildingBlock: AZAVOO_clean_sbu_0, # of connection points: 4
#     Node 20, Type 0, BuildingBlock: AZAVOO_clean_sbu_0, # of connection points: 4
#     Node 21, Type 0, BuildingBlock: AZAVOO_clean_sbu_0, # of connection points: 4
#     Node 22, Type 0, BuildingBlock: AZAVOO_clean_sbu_0, # of connection points: 4
#     Node 23, Type 0, BuildingBlock: AZAVOO_clean_sbu_0, # of connection points: 4
#     Node 24, Type 0, BuildingBlock: AZAVOO_clean_sbu_0, # of connection points: 4
#     Node 25, Type 0, BuildingBlock: AZAVOO_clean_sbu_0, # of connection points: 4
#     Node 26, Type 0, BuildingBlock: AZAVOO_clean_sbu_0, # of connection points: 4
#     Node 27, Type 0, BuildingBlock: AZAVOO_clean_sbu_0, # of connection points: 4
#     Node 28, Type 0, BuildingBlock: AZAVOO_clean_sbu_0, # of connection points: 4
#     Node 29, Type 0, BuildingBlock: AZAVOO_clean_sbu_0, # of connection points: 4
#     Node 30, Type 0, BuildingBlock: AZAVOO_clean_sbu_0, # of connection points: 4
#     Node 31, Type 0, BuildingBlock: AZAVOO_clean_sbu_0, # of connection points: 4
#     Edge 32, Type (0, 0), BuildingBlock: CIFDUS_clean_linker_0, # of connection points: 2
#     Edge 33, Type (0, 0), BuildingBlock: CIFDUS_clean_linker_0, # of connection points: 2
#     Edge 34, Type (0, 0), BuildingBlock: CIFDUS_clean_linker_0, # of connection points: 2
#     Edge 35, Type (0, 0), BuildingBlock: CIFDUS_clean_linker_0, # of connection points: 2
#     Edge 36, Type (0, 0), BuildingBlock: CIFDUS_clean_linker_0, # of connection points: 2
#     Edge 37, Type (0, 0), BuildingBlock: CIFDUS_clean_linker_0, # of connection points: 2
#     Edge 38, Type (0, 0), BuildingBlock: CIFDUS_clean_linker_0, # of connection points: 2
#     Edge 39, Type (0, 0), BuildingBlock: CIFDUS_clean_linker_0, # of connection points: 2
#     Edge 40, Type (0, 0), BuildingBlock: CIFDUS_clean_linker_0, # of connection points: 2
#     Edge 41, Type (0, 0), BuildingBlock: CIFDUS_clean_linker_0, # of connection points: 2
#     Edge 42, Type (0, 0), BuildingBlock: CIFDUS_clean_linker_0, # of connection points: 2
#     Edge 43, Type (0, 0), BuildingBlock: CIFDUS_clean_linker_0, # of connection points: 2
#     Edge 44, Type (0, 0), BuildingBlock: CIFDUS_clean_linker_0, # of connection points: 2
#     Edge 45, Type (0, 0), BuildingBlock: CIFDUS_clean_linker_0, # of connection points: 2
#     Edge 46, Type (0, 0), BuildingBlock: CIFDUS_clean_linker_0, # of connection points: 2
#     Edge 47, Type (0, 0), BuildingBlock: CIFDUS_clean_linker_0, # of connection points: 2
#     Edge 48, Type (0, 0), BuildingBlock: CIFDUS_clean_linker_0, # of connection points: 2
#     Edge 49, Type (0, 0), BuildingBlock: CIFDUS_clean_linker_0, # of connection points: 2
#     Edge 50, Type (0, 0), BuildingBlock: CIFDUS_clean_linker_0, # of connection points: 2
#     Edge 51, Type (0, 0), BuildingBlock: CIFDUS_clean_linker_0, # of connection points: 2
#     Edge 52, Type (0, 0), BuildingBlock: CIFDUS_clean_linker_0, # of connection points: 2
#     Edge 53, Type (0, 0), BuildingBlock: CIFDUS_clean_linker_0, # of connection points: 2
#     Edge 54, Type (0, 0), BuildingBlock: CIFDUS_clean_linker_0, # of connection points: 2
#     Edge 55, Type (0, 0), BuildingBlock: CIFDUS_clean_linker_0, # of connection points: 2
#     Edge 56, Type (0, 0), BuildingBlock: CIFDUS_clean_linker_0, # of connection points: 2
#     Edge 57, Type (0, 0), BuildingBlock: CIFDUS_clean_linker_0, # of connection points: 2
#     Edge 58, Type (0, 0), BuildingBlock: CIFDUS_clean_linker_0, # of connection points: 2
#     Edge 59, Type (0, 0), BuildingBlock: CIFDUS_clean_linker_0, # of connection points: 2
#     Edge 60, Type (0, 0), BuildingBlock: CIFDUS_clean_linker_0, # of connection points: 2
#     Edge 61, Type (0, 0), BuildingBlock: CIFDUS_clean_linker_0, # of connection points: 2
#     Edge 62, Type (0, 0), BuildingBlock: CIFDUS_clean_linker_0, # of connection points: 2
#     Edge 63, Type (0, 0), BuildingBlock: CIFDUS_clean_linker_0, # of connection points: 2
#     Edge 64, Type (0, 0), BuildingBlock: CIFDUS_clean_linker_0, # of connection points: 2
#     Edge 65, Type (0, 0), BuildingBlock: CIFDUS_clean_linker_0, # of connection points: 2
#     Edge 66, Type (0, 0), BuildingBlock: CIFDUS_clean_linker_0, # of connection points: 2
#     Edge 67, Type (0, 0), BuildingBlock: CIFDUS_clean_linker_0, # of connection points: 2
#     Edge 68, Type (0, 0), BuildingBlock: CIFDUS_clean_linker_0, # of connection points: 2
#     Edge 69, Type (0, 0), BuildingBlock: CIFDUS_clean_linker_0, # of connection points: 2
#     Edge 70, Type (0, 0), BuildingBlock: CIFDUS_clean_linker_0, # of connection points: 2
#     Edge 71, Type (0, 0), BuildingBlock: CIFDUS_clean_linker_0, # of connection points: 2
#     Edge 72, Type (0, 0), BuildingBlock: CIFDUS_clean_linker_0, # of connection points: 2
#     Edge 73, Type (0, 0), BuildingBlock: CIFDUS_clean_linker_0, # of connection points: 2
#     Edge 74, Type (0, 0), BuildingBlock: CIFDUS_clean_linker_0, # of connection points: 2
#     Edge 75, Type (0, 0), BuildingBlock: CIFDUS_clean_linker_0, # of connection points: 2
#     Edge 76, Type (0, 0), BuildingBlock: CIFDUS_clean_linker_0, # of connection points: 2
#     Edge 77, Type (0, 0), BuildingBlock: CIFDUS_clean_linker_0, # of connection points: 2
#     Edge 78, Type (0, 0), BuildingBlock: CIFDUS_clean_linker_0, # of connection points: 2
#     Edge 79, Type (0, 0), BuildingBlock: CIFDUS_clean_linker_0, # of connection points: 2
#     Edge 80, Type (0, 0), BuildingBlock: CIFDUS_clean_linker_0, # of connection points: 2
#     Edge 81, Type (0, 0), BuildingBlock: CIFDUS_clean_linker_0, # of connection points: 2
#     Edge 82, Type (0, 0), BuildingBlock: CIFDUS_clean_linker_0, # of connection points: 2
#     Edge 83, Type (0, 0), BuildingBlock: CIFDUS_clean_linker_0, # of connection points: 2
#     Edge 84, Type (0, 0), BuildingBlock: CIFDUS_clean_linker_0, # of connection points: 2
#     Edge 85, Type (0, 0), BuildingBlock: CIFDUS_clean_linker_0, # of connection points: 2
#     Edge 86, Type (0, 0), BuildingBlock: CIFDUS_clean_linker_0, # of connection points: 2
#     Edge 87, Type (0, 0), BuildingBlock: CIFDUS_clean_linker_0, # of connection points: 2
#     Edge 88, Type (0, 0), BuildingBlock: CIFDUS_clean_linker_0, # of connection points: 2
#     Edge 89, Type (0, 0), BuildingBlock: CIFDUS_clean_linker_0, # of connection points: 2
#     Edge 90, Type (0, 0), BuildingBlock: CIFDUS_clean_linker_0, # of connection points: 2
#     Edge 91, Type (0, 0), BuildingBlock: CIFDUS_clean_linker_0, # of connection points: 2
#     Edge 92, Type (0, 0), BuildingBlock: CIFDUS_clean_linker_0, # of connection points: 2
#     Edge 93, Type (0, 0), BuildingBlock: CIFDUS_clean_linker_0, # of connection points: 2
#     Edge 94, Type (0, 0), BuildingBlock: CIFDUS_clean_linker_0, # of connection points: 2
#     Edge 95, Type (0, 0), BuildingBlock: CIFDUS_clean_linker_0, # of connection points: 2
# Relax obj value: 0.165
# Max RMSD: 0.198
# Mean RMSD: 0.198
data_MOF--net-ukd--node1-AZAVOO_clean_sbu_0--edge1-CIFDUS_clean_linker_0
_symmetry_space_group_name_H-M    P1
_symmetry_Int_Tables_number       1
_symmetry_cell_setting            triclinic
loop_
_symmetry_equiv_pos_as_xyz
'x, y, z'
_cell_length_a     36.230327
_cell_length_b     36.233249
_cell_length_c     70.19247
_cell_angle_alpha  89.909716
_cell_angle_beta   90.07602
_cell_angle_gamma 90.088818
loop_
_atom_site_label
_atom_site_type_symbol
_atom_site_fract_x
_atom_site_fract_y
_atom_site_fract_z
_atom_type_partial_charge
Mg0 Mg 0.25127 0.26653 0.34346 0.0
O1 O 0.20839 0.22143 0.34753 0.0
O2 O 0.15412 0.2382 0.33522 0.0
Mg3 Mg 0.16245 0.29731 0.32391 0.0
C4 C 0.17465 0.21475 0.34371 0.0
C5 C 0.32995 0.23377 0.35082 0.0
O6 O 0.3387 0.26749 0.34558 0.0
O7 O 0.25507 0.25307 0.31169 0.0
O8 O 0.20137 0.27552 0.30097 0.0
O9 O 0.23319 0.29253 0.37104 0.0
O10 O 0.21043 0.30651 0.34268 0.0
C11 C 0.23267 0.26036 0.29808 0.0
C12 C 0.21009 0.31127 0.36079 0.0
O13 O 0.29608 0.22461 0.3513 0.0
Mg14 Mg 0.98864 1.00022 0.5923 0.0
O15 O 0.02251 0.94681 0.5939 0.0
O16 O 0.98421 0.8991 0.58916 0.0
Mg17 Mg 0.92767 0.92202 0.58106 0.0
C18 C 0.01613 0.91217 0.59295 0.0
C19 C 0.05644 0.04445 0.60877 0.0
O20 O 0.04158 0.03263 0.62471 0.0
O21 O 0.98964 0.99668 0.55986 0.0
O22 O 0.95265 0.94838 0.55428 0.0
O23 O 0.97303 0.99075 0.62286 0.0
O24 O 0.94066 0.97082 0.59821 0.0
C25 C 0.9738 0.97422 0.54841 0.0
C26 C 0.94612 0.97093 0.6163 0.0
O27 O 0.0418 0.03507 0.593 0.0
Mg28 Mg 0.26475 0.73672 0.84593 0.0
O29 O 0.31474 0.77526 0.84485 0.0
O30 O 0.36466 0.74369 0.83584 0.0
Mg31 Mg 0.34573 0.68437 0.83 0.0
C32 C 0.34914 0.77368 0.84099 0.0
C33 C 0.21962 0.80359 0.86393 0.0
O34 O 0.23678 0.79329 0.87955 0.0
O35 O 0.26142 0.73861 0.81353 0.0
O36 O 0.31094 0.70573 0.805 0.0
O37 O 0.28054 0.71996 0.87576 0.0
O38 O 0.29903 0.69161 0.84956 0.0
C39 C 0.28222 0.72449 0.80079 0.0
C40 C 0.30027 0.6946 0.86775 0.0
O41 O 0.22595 0.78644 0.84847 0.0
Mg42 Mg 0.51164 0.00426 0.09367 0.0
O43 O 0.47244 0.0523 0.0986 0.0
O44 O 0.49835 0.10538 0.08934 0.0
Mg45 Mg 0.55665 0.09081 0.07903 0.0
C46 C 0.47127 0.08717 0.09621 0.0
C47 C 0.46474 0.94269 0.11296 0.0
O48 O 0.49406 0.9436 0.12399 0.0
O49 O 0.5009 0.00767 0.0615 0.0
O50 O 0.53118 0.05962 0.05405 0.0
O51 O 0.53626 0.0145 0.12263 0.0
O52 O 0.55664 0.03951 0.09584 0.0
C53 C 0.51211 0.03143 0.04928 0.0
C54 C 0.55869 0.03679 0.11403 0.0
O55 O 0.46338 0.96424 0.09864 0.0
Mg56 Mg 0.24615 0.74657 0.14255 0.0
O57 O 0.19879 0.78776 0.14642 0.0
O58 O 0.14947 0.75789 0.15782 0.0
Mg59 Mg 0.16625 0.69765 0.16257 0.0
C60 C 0.16523 0.78739 0.15201 0.0
C61 C 0.2844 0.81611 0.12371 0.0
O62 O 0.25572 0.81345 0.11232 0.0
O63 O 0.25596 0.7478 0.17464 0.0
O64 O 0.20676 0.71702 0.18558 0.0
O65 O 0.22345 0.73219 0.1137 0.0
O66 O 0.20859 0.70367 0.1405 0.0
C67 C 0.23699 0.73441 0.18836 0.0
C68 C 0.20341 0.70798 0.12253 0.0
O69 O 0.28743 0.7936 0.13755 0.0
Mg70 Mg 0.50604 0.99896 0.39482 0.0
O71 O 0.46727 0.94897 0.39629 0.0
O72 O 0.49802 0.90054 0.40804 0.0
Mg73 Mg 0.5567 0.9201 0.41483 0.0
C74 C 0.46863 0.91512 0.40138 0.0
C75 C 0.4645 0.0697 0.38285 0.0
O76 O 0.49927 0.07943 0.38097 0.0
O77 O 0.50035 0.00628 0.42704 0.0
O78 O 0.53272 0.95789 0.43765 0.0
O79 O 0.52512 0.97923 0.36616 0.0
O80 O 0.55117 0.96408 0.39357 0.0
C81 C 0.51347 0.98678 0.44066 0.0
C82 C 0.5492 0.95985 0.37544 0.0
O83 O 0.45716 0.03725 0.38869 0.0
Mg84 Mg 0.26735 0.25359 0.64847 0.0
O85 O 0.3151 0.21268 0.64983 0.0
O86 O 0.36652 0.24128 0.6594 0.0
Mg87 Mg 0.35096 0.30163 0.66496 0.0
C88 C 0.34942 0.2123 0.65397 0.0
C89 C 0.21582 0.19252 0.62955 0.0
O90 O 0.22927 0.20672 0.61378 0.0
O91 O 0.26306 0.25225 0.68102 0.0
O92 O 0.31429 0.28266 0.68955 0.0
O93 O 0.28551 0.26962 0.61875 0.0
O94 O 0.30416 0.29683 0.6452 0.0
C95 C 0.28451 0.26562 0.69377 0.0
C96 C 0.30629 0.2939 0.62704 0.0
O97 O 0.22635 0.20547 0.64551 0.0
Mg98 Mg 0.99476 0.9959 0.9017 0.0
O99 O 0.02482 0.05166 0.89958 0.0
O100 O 0.98352 0.09656 0.90452 0.0
Mg101 Mg 0.92918 0.06958 0.91351 0.0
C102 C 0.01609 0.08577 0.90044 0.0
C103 C 0.06115 0.95168 0.88453 0.0
O104 O 0.04147 0.95764 0.8691 0.0
O105 O 0.99729 0.99953 0.9341 0.0
O106 O 0.95725 0.04504 0.93997 0.0
O107 O 0.97655 0.00384 0.87138 0.0
O108 O 0.94432 0.02132 0.89653 0.0
C109 C 0.98037 0.02081 0.94567 0.0
C110 C 0.94833 0.02094 0.87837 0.0
O111 O 0.04999 0.96489 0.9003 0.0
Mg112 Mg 0.75734 0.74236 0.65159 0.0
O113 O 0.7979 0.78997 0.64801 0.0
O114 O 0.85421 0.7727 0.65734 0.0
Mg115 Mg 0.84948 0.71218 0.66683 0.0
C116 C 0.83201 0.7969 0.65075 0.0
C117 C 0.6775 0.77614 0.65295 0.0
O118 O 0.67191 0.74609 0.66305 0.0
O119 O 0.75719 0.75099 0.68396 0.0
O120 O 0.81319 0.72977 0.6918 0.0
O121 O 0.77289 0.72194 0.62242 0.0
O122 O 0.79979 0.70445 0.64925 0.0
C123 C 0.78185 0.74312 0.6964 0.0
C124 C 0.79825 0.703 0.631 0.0
O125 O 0.70971 0.7827 0.64662 0.0
Mg126 Mg 0.02015 0.99818 0.39597 0.0
O127 O 0.97481 0.04081 0.39157 0.0
O128 O 0.99507 0.09679 0.39998 0.0
Mg129 Mg 0.05519 0.08981 0.40964 0.0
C130 C 0.96983 0.07539 0.3937 0.0
C131 C 0.97956 0.92171 0.40081 0.0
O132 O 0.00681 0.91699 0.41294 0.0
O133 O 0.01114 1.00041 0.42843 0.0
O134 O 0.03535 0.05584 0.43491 0.0
O135 O 0.04105 0.01197 0.36649 0.0
O136 O 0.06002 0.03892 0.39296 0.0
C137 C 0.02032 0.02569 0.44028 0.0
C138 C 0.06078 0.03717 0.37472 0.0
O139 O 0.97724 0.95214 0.39183 0.0
Mg140 Mg 0.74851 0.24959 0.14107 0.0
O141 O 0.69816 0.21177 0.14404 0.0
O142 O 0.65098 0.24377 0.15608 0.0
Mg143 Mg 0.67225 0.30212 0.16221 0.0
C144 C 0.66466 0.21386 0.1496 0.0
C145 C 0.81233 0.20488 0.12341 0.0
O146 O 0.81688 0.23779 0.11586 0.0
O147 O 0.7586 0.24469 0.17314 0.0
O148 O 0.71151 0.27788 0.18446 0.0
O149 O 0.72664 0.26853 0.11263 0.0
O150 O 0.71437 0.2954 0.14013 0.0
C151 C 0.74039 0.25833 0.18704 0.0
C152 C 0.70875 0.29337 0.12211 0.0
O153 O 0.78549 0.1998 0.13478 0.0
Mg154 Mg 0.48326 0.99099 0.89796 0.0
O155 O 0.51722 0.93775 0.89884 0.0
O156 O 0.48003 0.89022 0.9056 0.0
Mg157 Mg 0.42249 0.91378 0.91122 0.0
C158 C 0.51183 0.90328 0.90155 0.0
C159 C 0.55354 0.03185 0.88118 0.0
O160 O 0.5413 0.01665 0.86541 0.0
O161 O 0.48277 0.99178 0.93048 0.0
O162 O 0.44542 0.94427 0.93724 0.0
O163 O 0.46821 0.97776 0.86763 0.0
O164 O 0.43556 0.96094 0.89281 0.0
C165 C 0.46615 0.97095 0.94247 0.0
C166 C 0.44068 0.9596 0.87475 0.0
O167 O 0.5364 0.02575 0.8967 0.0
Mg168 Mg 0.76833 0.23724 0.84259 0.0
O169 O 0.81829 0.19874 0.84215 0.0
O170 O 0.86873 0.23085 0.83434 0.0
Mg171 Mg 0.85065 0.2905 0.82885 0.0
C172 C 0.85294 0.20061 0.83897 0.0
C173 C 0.71501 0.17752 0.86024 0.0
O174 O 0.72395 0.19582 0.87572 0.0
O175 O 0.76733 0.23734 0.80998 0.0
O176 O 0.8174 0.27111 0.80305 0.0
O177 O 0.78265 0.25287 0.87285 0.0
O178 O 0.80232 0.28226 0.84718 0.0
C179 C 0.78903 0.25265 0.79792 0.0
C180 C 0.80274 0.27864 0.86535 0.0
O181 O 0.72917 0.18728 0.84441 0.0
Mg182 Mg 0.48573 0.99025 0.59827 0.0
O183 O 0.52582 0.03836 0.6005 0.0
O184 O 0.50077 0.09034 0.58935 0.0
Mg185 Mg 0.44238 0.07435 0.57948 0.0
C186 C 0.52771 0.07276 0.59677 0.0
C187 C 0.5297 0.92489 0.61685 0.0
O188 O 0.49755 0.92034 0.62517 0.0
O189 O 0.4963 0.98755 0.56624 0.0
O190 O 0.46781 0.03869 0.55608 0.0
O191 O 0.46248 0.00643 0.62666 0.0
O192 O 0.44145 0.02644 0.59886 0.0
C193 C 0.48619 0.00931 0.55285 0.0
C194 C 0.44024 0.02747 0.61713 0.0
O195 O 0.53353 0.95093 0.60483 0.0
Mg196 Mg 0.75208 0.73646 0.35384 0.0
O197 O 0.70789 0.78098 0.35654 0.0
O198 O 0.65342 0.75913 0.34661 0.0
Mg199 Mg 0.66255 0.69877 0.33825 0.0
C200 C 0.67352 0.78514 0.35318 0.0
C201 C 0.821 0.7784 0.37088 0.0
O202 O 0.82121 0.74902 0.38187 0.0
O203 O 0.75198 0.74402 0.32148 0.0
O204 O 0.69785 0.71869 0.31328 0.0
O205 O 0.73788 0.71595 0.38323 0.0
O206 O 0.71165 0.69628 0.35662 0.0
C207 C 0.72828 0.73438 0.3089 0.0
C208 C 0.71304 0.69597 0.37488 0.0
O209 O 0.79657 0.781 0.35791 0.0
Mg210 Mg 0.0264 0.00171 0.09757 0.0
O211 O 0.99081 0.94963 0.101 0.0
O212 O 0.02631 0.90038 0.09523 0.0
Mg213 Mg 0.08253 0.92109 0.08492 0.0
C214 C 0.99557 0.91475 0.10007 0.0
C215 C 0.97774 0.0707 0.09352 0.0
O216 O 0.00806 0.0798 0.08438 0.0
O217 O 0.01999 0.99765 0.06524 0.0
O218 O 0.05514 0.94837 0.05909 0.0
O219 O 0.04731 0.99298 0.12743 0.0
O220 O 0.0743 0.97136 0.10151 0.0
C221 C 0.03407 0.97454 0.05356 0.0
C222 C 0.07288 0.97306 0.11973 0.0
O223 O 0.97533 0.03848 0.10062 0.0
Mg224 Mg 0.72847 0.7586 0.84767 0.0
O225 O 0.67985 0.71776 0.84757 0.0
O226 O 0.62879 0.7477 0.83858 0.0
Mg227 Mg 0.64445 0.80776 0.8326 0.0
C228 C 0.6453 0.71828 0.84384 0.0
C229 C 0.80049 0.71208 0.84234 0.0
O230 O 0.80644 0.73923 0.83029 0.0
O231 O 0.72993 0.75619 0.81504 0.0
O232 O 0.67899 0.78789 0.80738 0.0
O233 O 0.71415 0.77557 0.87755 0.0
O234 O 0.69226 0.80211 0.85147 0.0
C235 C 0.70791 0.77001 0.80267 0.0
C236 C 0.69247 0.79954 0.86969 0.0
O237 O 0.77007 0.71117 0.85135 0.0
Mg238 Mg 0.50328 0.51479 0.10202 0.0
O239 O 0.54337 0.46647 0.10348 0.0
O240 O 0.51643 0.4148 0.09306 0.0
Mg241 Mg 0.45719 0.43079 0.08476 0.0
C242 C 0.54432 0.43203 0.09977 0.0
C243 C 0.55456 0.5773 0.11997 0.0
O244 O 0.52809 0.57851 0.13272 0.0
O245 O 0.51016 0.51706 0.06965 0.0
O246 O 0.48005 0.46612 0.0605 0.0
O247 O 0.48252 0.49855 0.13117 0.0
O248 O 0.45899 0.47868 0.104 0.0
C249 C 0.49828 0.49538 0.05665 0.0
C250 C 0.45939 0.47742 0.12226 0.0
O251 O 0.55202 0.5545 0.10625 0.0
Mg252 Mg 0.75178 0.2319 0.34428 0.0
O253 O 0.7942 0.27815 0.34788 0.0
O254 O 0.8489 0.25911 0.33699 0.0
Mg255 Mg 0.84112 0.19967 0.32644 0.0
C256 C 0.82841 0.28365 0.34458 0.0
C257 C 0.70433 0.29812 0.36143 0.0
O258 O 0.73293 0.30208 0.37277 0.0
O259 O 0.74968 0.24243 0.31235 0.0
O260 O 0.8038 0.22034 0.30224 0.0
O261 O 0.76861 0.21047 0.37299 0.0
O262 O 0.79348 0.19315 0.34564 0.0
C263 C 0.77243 0.23514 0.29899 0.0
C264 C 0.79349 0.19181 0.36393 0.0
O265 O 0.70445 0.27252 0.34906 0.0
Mg266 Mg 0.0104 0.49392 0.60004 0.0
O267 O 0.9672 0.53913 0.60275 0.0
O268 O 0.98878 0.59244 0.59121 0.0
Mg269 Mg 0.04764 0.58064 0.5808 0.0
C270 C 0.96329 0.57335 0.59901 0.0
C271 C 0.97273 0.41669 0.60568 0.0
O272 O 0.00583 0.40653 0.60016 0.0
O273 O 0.99946 0.49008 0.568 0.0
O274 O 0.02457 0.54275 0.55752 0.0
O275 O 0.03281 0.5116 0.62832 0.0
O276 O 0.05211 0.53368 0.60068 0.0
C277 C 0.00815 0.5121 0.55446 0.0
C278 C 0.05293 0.535 0.61898 0.0
O279 O 0.96562 0.45095 0.6069 0.0
Mg280 Mg 0.72965 0.24829 0.64652 0.0
O281 O 0.68163 0.28921 0.64815 0.0
O282 O 0.63057 0.25944 0.6573 0.0
Mg283 Mg 0.64622 0.199 0.66235 0.0
C284 C 0.64729 0.28893 0.65226 0.0
C285 C 0.80237 0.28784 0.63584 0.0
O286 O 0.80944 0.25311 0.63192 0.0
O287 O 0.73405 0.24887 0.67919 0.0
O288 O 0.68302 0.21729 0.6869 0.0
O289 O 0.71166 0.23281 0.6167 0.0
O290 O 0.69313 0.20498 0.64302 0.0
C291 C 0.71247 0.23442 0.69159 0.0
C292 C 0.69109 0.2082 0.62487 0.0
O293 O 0.77092 0.29596 0.64271 0.0
Mg294 Mg 0.99807 0.50334 0.89725 0.0
O295 O 0.95818 0.45486 0.8946 0.0
O296 O 0.98617 0.40208 0.90246 0.0
Mg297 Mg 0.04537 0.41733 0.91092 0.0
C298 C 0.95777 0.41993 0.8969 0.0
C299 C 0.94877 0.56363 0.87856 0.0
O300 O 0.97662 0.56168 0.86663 0.0
O301 O 0.99223 0.50132 0.92986 0.0
O302 O 0.02252 0.44893 0.93632 0.0
O303 O 0.0176 0.49106 0.86751 0.0
O304 O 0.04259 0.46782 0.89362 0.0
C305 C 0.00449 0.4773 0.94169 0.0
C306 C 0.04107 0.46882 0.87536 0.0
O307 O 0.94918 0.54325 0.89336 0.0
Mg308 Mg 0.77153 0.7809 0.15918 0.0
O309 O 0.80775 0.73067 0.15304 0.0
O310 O 0.86569 0.74252 0.16226 0.0
Mg311 Mg 0.86738 0.80227 0.17286 0.0
C312 C 0.84133 0.72093 0.15525 0.0
C313 C 0.71533 0.72366 0.14163 0.0
O314 O 0.74083 0.7231 0.12835 0.0
O315 O 0.77461 0.76864 0.19105 0.0
O316 O 0.83226 0.78545 0.19853 0.0
O317 O 0.78405 0.80433 0.13015 0.0
O318 O 0.81763 0.81425 0.15597 0.0
C319 C 0.80034 0.77361 0.20327 0.0
C320 C 0.81337 0.81822 0.13791 0.0
O321 O 0.71957 0.74495 0.15588 0.0
Mg322 Mg 0.49639 0.51083 0.39648 0.0
O323 O 0.53127 0.56327 0.3988 0.0
O324 O 0.49626 0.60993 0.40904 0.0
Mg325 Mg 0.43935 0.58536 0.41582 0.0
C326 C 0.52712 0.59712 0.4033 0.0
C327 C 0.54786 0.44881 0.38118 0.0
O328 O 0.51676 0.44012 0.37263 0.0
O329 O 0.50095 0.50334 0.42853 0.0
O330 O 0.46561 0.5495 0.43913 0.0
O331 O 0.47689 0.52964 0.3676 0.0
O332 O 0.44845 0.54163 0.39477 0.0
C333 C 0.48656 0.52174 0.44213 0.0
C334 C 0.45047 0.54601 0.37667 0.0
O335 O 0.54879 0.47718 0.39179 0.0
Mg336 Mg 0.25501 0.25407 0.14003 0.0
O337 O 0.29735 0.3009 0.14034 0.0
O338 O 0.35031 0.2807 0.15291 0.0
Mg339 Mg 0.34183 0.21965 0.16055 0.0
C340 C 0.33073 0.30627 0.1455 0.0
C341 C 0.20953 0.31649 0.11905 0.0
O342 O 0.23812 0.31499 0.10757 0.0
O343 O 0.24704 0.25988 0.17226 0.0
O344 O 0.29997 0.23617 0.18323 0.0
O345 O 0.27747 0.23551 0.11161 0.0
O346 O 0.29704 0.21553 0.13959 0.0
C347 C 0.26809 0.25011 0.18602 0.0
C348 C 0.30026 0.21549 0.1214 0.0
O349 O 0.20868 0.29542 0.13357 0.0
Mg350 Mg 0.50522 0.49901 0.89828 0.0
O351 O 0.47177 0.55245 0.89947 0.0
O352 O 0.50765 0.59916 0.90892 0.0
Mg353 Mg 0.56435 0.57429 0.9157 0.0
C354 C 0.47652 0.58655 0.90337 0.0
C355 C 0.44913 0.44104 0.88151 0.0
O356 O 0.47754 0.43508 0.87032 0.0
O357 O 0.50132 0.4945 0.93066 0.0
O358 O 0.5381 0.54086 0.93983 0.0
O359 O 0.52431 0.51547 0.86896 0.0
O360 O 0.5538 0.52902 0.89566 0.0
C361 C 0.51663 0.51388 0.94369 0.0
C362 C 0.55111 0.53239 0.87752 0.0
O363 O 0.45167 0.46583 0.89429 0.0
Mg364 Mg 0.23542 0.77341 0.65205 0.0
O365 O 0.19744 0.72392 0.64596 0.0
O366 O 0.14045 0.73856 0.65567 0.0
Mg367 Mg 0.14094 0.79867 0.66569 0.0
C368 C 0.16348 0.71576 0.64856 0.0
C369 C 0.29144 0.71466 0.63578 0.0
O370 O 0.26637 0.7127 0.62228 0.0
O371 O 0.23185 0.7618 0.68384 0.0
O372 O 0.17542 0.7815 0.69166 0.0
O373 O 0.22438 0.79652 0.62288 0.0
O374 O 0.19078 0.80795 0.6485 0.0
C375 C 0.20687 0.76822 0.69621 0.0
C376 C 0.19546 0.81144 0.63045 0.0
O377 O 0.2866 0.7369 0.64954 0.0
Mg378 Mg 0.99255 0.49584 0.39621 0.0
O379 O 0.03439 0.44849 0.39718 0.0
O380 O 0.00684 0.39826 0.40915 0.0
Mg381 Mg 0.94708 0.41372 0.41604 0.0
C382 C 0.03512 0.41462 0.40229 0.0
C383 C 0.02705 0.56812 0.38276 0.0
O384 O 0.99139 0.57242 0.38016 0.0
O385 O 0.99814 0.50298 0.42849 0.0
O386 O 0.96842 0.45292 0.43916 0.0
O387 O 0.97443 0.47625 0.36744 0.0
O388 O 0.94963 0.45785 0.39462 0.0
C389 C 0.98604 0.48293 0.44215 0.0
C390 C 0.95168 0.45479 0.3764 0.0
O391 O 0.0384 0.53793 0.38993 0.0
Mg392 Mg 0.25779 0.75659 0.34608 0.0
O393 O 0.30978 0.72098 0.34554 0.0
O394 O 0.35673 0.75273 0.33297 0.0
Mg395 Mg 0.33371 0.80927 0.3244 0.0
C396 C 0.34351 0.72337 0.34041 0.0
C397 C 0.18789 0.70961 0.35386 0.0
O398 O 0.17388 0.74161 0.34883 0.0
O399 O 0.25057 0.7465 0.31412 0.0
O400 O 0.29715 0.78027 0.30247 0.0
O401 O 0.27644 0.781 0.37396 0.0
O402 O 0.28965 0.80421 0.34563 0.0
C403 C 0.26935 0.75902 0.3001 0.0
C404 C 0.29355 0.80545 0.36379 0.0
O405 O 0.2228 0.70596 0.35397 0.0
Mg406 Mg 0.98174 0.50604 0.09444 0.0
O407 O 0.02544 0.55083 0.09756 0.0
O408 O 0.00191 0.60618 0.09057 0.0
Mg409 Mg 0.94121 0.59625 0.08267 0.0
C410 C 0.02877 0.58569 0.09573 0.0
C411 C 0.02714 0.44051 0.11088 0.0
O412 O 0.99938 0.44226 0.12287 0.0
O413 O 0.98614 0.50978 0.06191 0.0
O414 O 0.95969 0.56453 0.05628 0.0
O415 O 0.96481 0.51754 0.12459 0.0
O416 O 0.94046 0.54466 0.09929 0.0
C417 C 0.97515 0.535 0.05043 0.0
C418 C 0.9429 0.54221 0.11751 0.0
O419 O 0.02777 0.46272 0.09682 0.0
Mg420 Mg 0.23029 0.23792 0.84357 0.0
O421 O 0.19116 0.28689 0.84762 0.0
O422 O 0.13476 0.27067 0.8376 0.0
Mg423 Mg 0.13675 0.20983 0.82887 0.0
C424 C 0.15728 0.2944 0.84441 0.0
C425 C 0.28364 0.29998 0.85989 0.0
O426 O 0.25688 0.30304 0.8724 0.0
O427 O 0.22875 0.24652 0.81136 0.0
O428 O 0.17281 0.22538 0.80332 0.0
O429 O 0.21726 0.21654 0.87297 0.0
O430 O 0.18578 0.20263 0.84695 0.0
C431 C 0.20435 0.23854 0.79883 0.0
C432 C 0.18927 0.20027 0.86512 0.0
O433 O 0.28075 0.27607 0.84669 0.0
Mg434 Mg 0.51059 0.51257 0.59948 0.0
O435 O 0.4708 0.46423 0.60165 0.0
O436 O 0.49626 0.41228 0.59086 0.0
Mg437 Mg 0.55481 0.42875 0.58137 0.0
C438 C 0.46913 0.42978 0.59808 0.0
C439 C 0.45781 0.5739 0.61765 0.0
O440 O 0.4835 0.57597 0.63083 0.0
O441 O 0.50156 0.51488 0.56751 0.0
O442 O 0.53024 0.464 0.55734 0.0
O443 O 0.53284 0.49687 0.62826 0.0
O444 O 0.55503 0.47674 0.60079 0.0
C445 C 0.51194 0.49348 0.55412 0.0
C446 C 0.55557 0.47588 0.61906 0.0
O447 O 0.46172 0.55134 0.60395 0.0
H448 H 0.09077 0.43126 0.37811 0.0
H449 H 0.0555 0.34908 0.41877 0.0
H450 H 0.10938 0.31123 0.41115 0.0
H451 H 0.1642 0.29937 0.39094 0.0
H452 H 0.19496 0.3796 0.34841 0.0
H453 H 0.1456 0.42056 0.35889 0.0
C454 C 0.09507 0.40531 0.38551 0.0
C455 C 0.06914 0.39302 0.39896 0.0
C456 C 0.12539 0.38329 0.38067 0.0
C457 C 0.07498 0.3591 0.40826 0.0
C458 C 0.10579 0.33744 0.40392 0.0
C459 C 0.16033 0.32613 0.38429 0.0
C460 C 0.1831 0.33678 0.36908 0.0
C461 C 0.13086 0.34895 0.38989 0.0
C462 C 0.17763 0.37107 0.36021 0.0
C463 C 0.14941 0.39441 0.36614 0.0
H464 H 0.87673 0.94664 0.61168 0.0
H465 H 0.97344 0.93234 0.6467 0.0
H466 H 0.94578 0.87745 0.6614 0.0
H467 H 0.89646 0.83013 0.66174 0.0
H468 H 0.7996 0.8461 0.62673 0.0
H469 H 0.82491 0.90378 0.61465 0.0
C470 C 0.89139 0.93189 0.62283 0.0
C471 C 0.92698 0.94328 0.6281 0.0
C472 C 0.8755 0.90039 0.63101 0.0
C473 C 0.94579 0.92419 0.64257 0.0
C474 C 0.93015 0.89261 0.6508 0.0
C475 C 0.88081 0.8464 0.65158 0.0
C476 C 0.84641 0.8335 0.64497 0.0
C477 C 0.89542 0.87987 0.64473 0.0
C478 C 0.8262 0.85521 0.63203 0.0
C479 C 0.84065 0.88823 0.62506 0.0
H480 H 0.40577 0.56901 0.89433 0.0
H481 H 0.47668 0.66217 0.90606 0.0
H482 H 0.42617 0.70445 0.89859 0.0
H483 H 0.36342 0.71489 0.88558 0.0
H484 H 0.29477 0.62131 0.87219 0.0
H485 H 0.34253 0.57921 0.88373 0.0
C486 C 0.41022 0.59855 0.89543 0.0
C487 C 0.44517 0.61231 0.90055 0.0
C488 C 0.38129 0.62265 0.89088 0.0
C489 C 0.45016 0.65073 0.90205 0.0
C490 C 0.42127 0.67497 0.89777 0.0
C491 C 0.35873 0.68531 0.88579 0.0
C492 C 0.32565 0.67095 0.87846 0.0
C493 C 0.38692 0.66126 0.8918 0.0
C494 C 0.31996 0.63269 0.87812 0.0
C495 C 0.34733 0.6087 0.88454 0.0
H496 H 0.54 0.09459 0.13625 0.0
H497 H 0.63273 0.03544 0.11323 0.0
H498 H 0.67479 0.08395 0.12407 0.0
H499 H 0.68402 0.14599 0.13663 0.0
H500 H 0.59087 0.20772 0.15784 0.0
H501 H 0.55017 0.15546 0.1513 0.0
C502 C 0.56957 0.09201 0.13421 0.0
C503 C 0.58364 0.0615 0.12434 0.0
C504 C 0.59333 0.12074 0.13981 0.0
C505 C 0.62168 0.05861 0.12111 0.0
C506 C 0.64559 0.08643 0.12714 0.0
C507 C 0.6549 0.148 0.14003 0.0
C508 C 0.64055 0.18099 0.1475 0.0
C509 C 0.63157 0.11813 0.13596 0.0
C510 C 0.60271 0.18282 0.15194 0.0
C511 C 0.57936 0.15292 0.1482 0.0
H512 H 0.17844 0.64048 0.13123 0.0
H513 H 0.15942 0.73207 0.09325 0.0
H514 H 0.10335 0.70195 0.08114 0.0
H515 H 0.05778 0.65093 0.08303 0.0
H516 H 0.07971 0.55856 0.1203 0.0
H517 H 0.1367 0.5876 0.131 0.0
C518 C 0.16218 0.65365 0.12015 0.0
C519 C 0.17269 0.68842 0.1132 0.0
C520 C 0.13043 0.63614 0.11326 0.0
C521 C 0.15181 0.70514 0.09872 0.0
C522 C 0.11968 0.68806 0.09192 0.0
C523 C 0.07518 0.63717 0.09342 0.0
C524 C 0.06437 0.60282 0.10099 0.0
C525 C 0.10837 0.65381 0.09934 0.0
C526 C 0.0874 0.585 0.11424 0.0
C527 C 0.11996 0.6016 0.12042 0.0
H528 H 0.61567 0.93534 0.38631 0.0
H529 H 0.52968 0.917 0.34489 0.0
H530 H 0.56122 0.86108 0.33385 0.0
H531 H 0.61112 0.81511 0.33784 0.0
H532 H 0.69766 0.83567 0.37886 0.0
H533 H 0.66798 0.89313 0.38822 0.0
C534 C 0.6041 0.91932 0.37469 0.0
C535 C 0.57041 0.92994 0.36648 0.0
C536 C 0.62228 0.88748 0.36851 0.0
C537 C 0.55577 0.90934 0.35133 0.0
C538 C 0.57362 0.87726 0.34515 0.0
C539 C 0.62349 0.83229 0.34877 0.0
C540 C 0.65631 0.82095 0.3578 0.0
C541 C 0.6065 0.86565 0.35394 0.0
C542 C 0.6724 0.84373 0.37171 0.0
C543 C 0.65543 0.87657 0.37711 0.0
H544 H 0.32632 0.36279 0.63532 0.0
H545 H 0.34902 0.27398 0.59636 0.0
H546 H 0.40176 0.30867 0.58337 0.0
H547 H 0.44387 0.36292 0.585 0.0
H548 H 0.41806 0.45165 0.62382 0.0
H549 H 0.36405 0.4183 0.63496 0.0
C550 C 0.34258 0.35123 0.62381 0.0
C551 C 0.33415 0.31595 0.61684 0.0
C552 C 0.37247 0.37119 0.61654 0.0
C553 C 0.35501 0.30128 0.60183 0.0
C554 C 0.38528 0.32097 0.59455 0.0
C555 C 0.42629 0.37494 0.59583 0.0
C556 C 0.43526 0.40961 0.60368 0.0
C557 C 0.39472 0.3557 0.6021 0.0
C558 C 0.41192 0.42506 0.61752 0.0
C559 C 0.38099 0.40599 0.62395 0.0
H560 H 0.97168 0.07791 0.85671 0.0
H561 H 0.87416 0.02106 0.87604 0.0
H562 H 0.83523 0.07059 0.8635 0.0
H563 H 0.8297 0.13298 0.85073 0.0
H564 H 0.92758 0.1927 0.83375 0.0
H565 H 0.96562 0.13924 0.84165 0.0
C566 C 0.94183 0.07596 0.85752 0.0
C567 C 0.92551 0.0458 0.86686 0.0
C568 C 0.91983 0.10539 0.85111 0.0
C569 C 0.88701 0.0439 0.86857 0.0
C570 C 0.86487 0.07232 0.86158 0.0
C571 C 0.85929 0.13427 0.84851 0.0
C572 C 0.8757 0.16704 0.84183 0.0
C573 C 0.88107 0.10373 0.8534 0.0
C574 C 0.91415 0.16798 0.839 0.0
C575 C 0.93598 0.13738 0.8435 0.0
H576 H 0.93122 0.63595 0.58473 0.0
H577 H 0.91905 0.55206 0.62807 0.0
H578 H 0.86588 0.58418 0.64107 0.0
H579 H 0.82528 0.6377 0.6415 0.0
H580 H 0.83367 0.72055 0.59764 0.0
H581 H 0.88572 0.68714 0.58329 0.0
C582 C 0.91671 0.62467 0.59693 0.0
C583 C 0.92927 0.59185 0.60552 0.0
C584 C 0.8856 0.64306 0.60423 0.0
C585 C 0.90995 0.57722 0.62117 0.0
C586 C 0.8796 0.59562 0.62867 0.0
C587 C 0.83832 0.64821 0.62867 0.0
C588 C 0.82614 0.6815 0.62067 0.0
C589 C 0.86758 0.62875 0.6205 0.0
C590 C 0.84272 0.6948 0.60395 0.0
C591 C 0.87252 0.67584 0.59586 0.0
H592 H 0.11528 0.17705 0.32919 0.0
H593 H 0.19904 0.17261 0.37298 0.0
H594 H 0.17265 0.11567 0.38531 0.0
H595 H 0.124 0.06929 0.38503 0.0
H596 H 0.04082 0.07078 0.34113 0.0
H597 H 0.06907 0.12635 0.3272 0.0
C598 C 0.12772 0.16348 0.34138 0.0
C599 C 0.15886 0.17927 0.35027 0.0
C600 C 0.11267 0.1302 0.3483 0.0
C601 C 0.17508 0.16112 0.36588 0.0
C602 C 0.16 0.12854 0.37297 0.0
C603 C 0.11237 0.08151 0.37224 0.0
C604 C 0.08042 0.06627 0.36412 0.0
C605 C 0.12863 0.11314 0.36446 0.0
C606 C 0.06565 0.08201 0.3475 0.0
C607 C 0.08159 0.11392 0.33968 0.0
H608 H 0.5683 0.36664 0.08472 0.0
H609 H 0.59689 0.45135 0.12541 0.0
H610 H 0.65133 0.4167 0.13495 0.0
H611 H 0.68896 0.36115 0.13313 0.0
H612 H 0.66325 0.27679 0.09198 0.0
H613 H 0.60978 0.31267 0.081 0.0
C614 C 0.58657 0.3775 0.09562 0.0
C615 C 0.57833 0.41138 0.10446 0.0
C616 C 0.61832 0.35759 0.10091 0.0
C617 C 0.60253 0.42539 0.11836 0.0
C618 C 0.63367 0.40557 0.12387 0.0
C619 C 0.67184 0.3508 0.12162 0.0
C620 C 0.67971 0.31639 0.11344 0.0
C621 C 0.64154 0.37151 0.11542 0.0
C622 C 0.6577 0.30336 0.09841 0.0
C623 C 0.62704 0.32374 0.09225 0.0
H624 H 0.46635 0.89938 0.85649 0.0
H625 H 0.36707 0.9589 0.87011 0.0
H626 H 0.32939 0.90713 0.85903 0.0
H627 H 0.32503 0.84273 0.84927 0.0
H628 H 0.4243 0.7809 0.8377 0.0
H629 H 0.46167 0.83567 0.84414 0.0
C630 C 0.43647 0.90129 0.85634 0.0
C631 C 0.41925 0.9329 0.86366 0.0
C632 C 0.41508 0.87074 0.85076 0.0
C633 C 0.38063 0.93491 0.86416 0.0
C634 C 0.35918 0.90523 0.85803 0.0
C635 C 0.35482 0.84119 0.84797 0.0
C636 C 0.37178 0.80754 0.84322 0.0
C637 C 0.37614 0.87258 0.85193 0.0
C638 C 0.41045 0.80633 0.84145 0.0
C639 C 0.43189 0.83766 0.84512 0.0
H640 H 0.93657 0.35092 0.90846 0.0
H641 H 0.90281 0.4432 0.87352 0.0
H642 H 0.84978 0.40833 0.86218 0.0
H643 H 0.81614 0.35018 0.85992 0.0
H644 H 0.84729 0.25782 0.89509 0.0
H645 H 0.89797 0.29429 0.9089 0.0
C646 C 0.91741 0.36342 0.89848 0.0
C647 C 0.92393 0.39944 0.89166 0.0
C648 C 0.88658 0.34327 0.8921 0.0
C649 C 0.89856 0.41553 0.87897 0.0
C650 C 0.86823 0.39559 0.87242 0.0
C651 C 0.83368 0.3383 0.87087 0.0
C652 C 0.82838 0.30153 0.87648 0.0
C653 C 0.86243 0.35929 0.87859 0.0
C654 C 0.85089 0.28628 0.89072 0.0
C655 C 0.87998 0.307 0.89844 0.0
H656 H 0.32543 0.14973 0.63683 0.0
H657 H 0.42033 0.19661 0.66519 0.0
H658 H 0.45576 0.1407 0.65854 0.0
H659 H 0.46132 0.08059 0.64205 0.0
H660 H 0.36761 0.03726 0.61152 0.0
H661 H 0.3299 0.08932 0.62191 0.0
C662 C 0.35373 0.14768 0.64178 0.0
C663 C 0.37021 0.17747 0.6514 0.0
C664 C 0.37412 0.11592 0.63755 0.0
C665 C 0.407 0.17421 0.65763 0.0
C666 C 0.42729 0.14222 0.65386 0.0
C667 C 0.43237 0.08227 0.63817 0.0
C668 C 0.41686 0.05515 0.62634 0.0
C669 C 0.41135 0.11316 0.64351 0.0
C670 C 0.37976 0.05783 0.62082 0.0
C671 C 0.35834 0.08763 0.62664 0.0
H672 H 0.64406 0.71922 0.38204 0.0
H673 H 0.71801 0.62758 0.38998 0.0
H674 H 0.6666 0.58883 0.40082 0.0
H675 H 0.5998 0.57955 0.40462 0.0
H676 H 0.52564 0.67143 0.39682 0.0
H677 H 0.57789 0.71181 0.38949 0.0
C678 C 0.64886 0.69106 0.38669 0.0
C679 C 0.68448 0.67611 0.38551 0.0
C680 C 0.61912 0.66898 0.39262 0.0
C681 C 0.69072 0.63956 0.39115 0.0
C682 C 0.66133 0.6174 0.39714 0.0
C683 C 0.59513 0.6085 0.40148 0.0
C684 C 0.5589 0.62239 0.40099 0.0
C685 C 0.62527 0.63154 0.39738 0.0
C686 C 0.55327 0.66007 0.39723 0.0
C687 C 0.58311 0.68314 0.39299 0.0
H688 H 0.18982 0.85574 0.14218 0.0
H689 H 0.09142 0.79684 0.15911 0.0
H690 H 0.0545 0.8522 0.15376 0.0
H691 H 0.04917 0.91514 0.14054 0.0
H692 H 0.147 0.97181 0.12154 0.0
H693 H 0.18532 0.91996 0.13187 0.0
C694 C 0.16037 0.85502 0.14493 0.0
C695 C 0.14344 0.82195 0.1508 0.0
C696 C 0.13922 0.88677 0.14159 0.0
C697 C 0.10524 0.82179 0.15445 0.0
C698 C 0.08404 0.85347 0.1514 0.0
C699 C 0.07901 0.91652 0.13939 0.0
C700 C 0.09557 0.94728 0.13074 0.0
C701 C 0.1006 0.88586 0.14454 0.0
C702 C 0.13401 0.94851 0.12856 0.0
C703 C 0.15579 0.91875 0.13424 0.0
H704 H 0.62523 0.77742 0.88125 0.0
H705 H 0.69954 0.87023 0.88086 0.0
H706 H 0.65024 0.91068 0.89232 0.0
H707 H 0.58469 0.92058 0.89899 0.0
H708 H 0.50943 0.82803 0.89828 0.0
H709 H 0.56035 0.78643 0.89087 0.0
C710 C 0.63068 0.80628 0.88429 0.0
C711 C 0.66578 0.82099 0.88066 0.0
C712 C 0.60193 0.82942 0.89034 0.0
C713 C 0.6727 0.85848 0.88399 0.0
C714 C 0.64448 0.88157 0.89034 0.0
C715 C 0.57941 0.89126 0.89739 0.0
C716 C 0.54319 0.87757 0.89898 0.0
C717 C 0.60874 0.86753 0.89301 0.0
C718 C 0.537 0.83941 0.89708 0.0
C719 C 0.5661 0.81556 0.8928 0.0
H720 H 0.39165 0.45545 0.11223 0.0
H721 H 0.4775 0.43558 0.15349 0.0
H722 H 0.44405 0.38107 0.16524 0.0
H723 H 0.39301 0.33602 0.16144 0.0
H724 H 0.30685 0.35822 0.1204 0.0
H725 H 0.33772 0.41504 0.11097 0.0
C726 C 0.4027 0.43949 0.12403 0.0
C727 C 0.43695 0.44917 0.13195 0.0
C728 C 0.38344 0.40846 0.13058 0.0
C729 C 0.45099 0.42865 0.14729 0.0
C730 C 0.43204 0.39736 0.15386 0.0
C731 C 0.38087 0.35348 0.15056 0.0
C732 C 0.34791 0.34256 0.14147 0.0
C733 C 0.39868 0.38648 0.14526 0.0
C734 C 0.33222 0.36579 0.1276 0.0
C735 C 0.34989 0.39831 0.12214 0.0
H736 H 0.93411 0.13546 0.40807 0.0
H737 H 0.92618 0.05063 0.36514 0.0
H738 H 0.86978 0.07841 0.35279 0.0
H739 H 0.82482 0.12856 0.35296 0.0
H740 H 0.82938 0.21174 0.39669 0.0
H741 H 0.88481 0.18269 0.41019 0.0
C742 C 0.91984 0.12306 0.39608 0.0
C743 C 0.9344 0.09129 0.3874 0.0
C744 C 0.88691 0.1388 0.38925 0.0
C745 C 0.91546 0.07508 0.37206 0.0
C746 C 0.88328 0.09097 0.36496 0.0
C747 C 0.83777 0.14004 0.36558 0.0
C748 C 0.82345 0.17221 0.3738 0.0
C749 C 0.86908 0.12304 0.37328 0.0
C750 C 0.84 0.18679 0.39024 0.0
C751 C 0.87176 0.17035 0.39784 0.0
H752 H 0.10677 0.67601 0.66347 0.0
H753 H 0.18956 0.67402 0.61936 0.0
H754 H 0.16346 0.61679 0.60678 0.0
H755 H 0.11469 0.56959 0.6071 0.0
H756 H 0.03397 0.56922 0.65217 0.0
H757 H 0.06182 0.62497 0.66575 0.0
C758 C 0.1192 0.66286 0.65118 0.0
C759 C 0.14976 0.67938 0.64221 0.0
C760 C 0.1044 0.62964 0.64422 0.0
C761 C 0.16602 0.66181 0.6265 0.0
C762 C 0.15103 0.62918 0.61926 0.0
C763 C 0.10349 0.58155 0.62002 0.0
C764 C 0.07225 0.56563 0.62858 0.0
C765 C 0.1199 0.6132 0.62782 0.0
C766 C 0.05813 0.581 0.6454 0.0
C767 C 0.0739 0.61296 0.65308 0.0
H768 H 0.55263 0.13965 0.58357 0.0
H769 H 0.57971 0.05041 0.62204 0.0
H770 H 0.63429 0.08347 0.63268 0.0
H771 H 0.67203 0.13894 0.63282 0.0
H772 H 0.6477 0.2285 0.59441 0.0
H773 H 0.59466 0.19387 0.58168 0.0
C774 C 0.57059 0.12746 0.59422 0.0
C775 C 0.56181 0.09275 0.60213 0.0
C776 C 0.60244 0.14655 0.60022 0.0
C777 C 0.58567 0.07706 0.61572 0.0
C778 C 0.61693 0.09594 0.62185 0.0
C779 C 0.65538 0.15066 0.62146 0.0
C780 C 0.66339 0.18613 0.61459 0.0
C781 C 0.62524 0.13082 0.61441 0.0
C782 C 0.64202 0.20104 0.59979 0.0
C783 C 0.61158 0.18139 0.59268 0.0
H784 H 0.0966 0.32989 0.83053 0.0
H785 H 0.18629 0.34133 0.87068 0.0
H786 H 0.15973 0.39863 0.8825 0.0
H787 H 0.10817 0.44211 0.88356 0.0
H788 H 0.0191 0.43261 0.8431 0.0
H789 H 0.04852 0.37816 0.82901 0.0
C790 C 0.11046 0.34514 0.84175 0.0
C791 C 0.14309 0.33109 0.84991 0.0
C792 C 0.09517 0.37832 0.8484 0.0
C793 C 0.16111 0.35144 0.8642 0.0
C794 C 0.14589 0.38417 0.87101 0.0
C795 C 0.09558 0.42845 0.87142 0.0
C796 C 0.06153 0.44099 0.86441 0.0
C797 C 0.11256 0.39737 0.86351 0.0
C798 C 0.04548 0.42344 0.84862 0.0
C799 C 0.06212 0.39218 0.84071 0.0
H800 H 0.92188 0.92517 0.09502 0.0
H801 H 0.00148 0.84932 0.11863 0.0
H802 H 0.95166 0.81111 0.13139 0.0
H803 H 0.8857 0.80174 0.13776 0.0
H804 H 0.80554 0.87527 0.11304 0.0
H805 H 0.85523 0.9117 0.0984 0.0
C806 C 0.92819 0.9001 0.10283 0.0
C807 C 0.9652 0.89019 0.10606 0.0
C808 C 0.89938 0.87794 0.10987 0.0
C809 C 0.97316 0.85741 0.11594 0.0
C810 C 0.94473 0.83565 0.1233 0.0
C811 C 0.87923 0.82558 0.12903 0.0
C812 C 0.84233 0.83629 0.12661 0.0
C813 C 0.90781 0.846 0.12063 0.0
C814 C 0.83392 0.86665 0.11499 0.0
C815 C 0.86229 0.88755 0.10677 0.0
H816 H 0.46794 0.60324 0.35321 0.0
H817 H 0.37696 0.54828 0.38081 0.0
H818 H 0.33505 0.59733 0.37079 0.0
H819 H 0.32546 0.65803 0.35685 0.0
H820 H 0.41673 0.71605 0.33092 0.0
H821 H 0.45735 0.66378 0.33764 0.0
C822 C 0.43875 0.60174 0.35654 0.0
C823 C 0.42523 0.57219 0.36746 0.0
C824 C 0.41507 0.63086 0.35136 0.0
C825 C 0.38767 0.57076 0.37223 0.0
C826 C 0.36382 0.59886 0.36663 0.0
C827 C 0.35416 0.6593 0.35252 0.0
C828 C 0.36799 0.69113 0.34352 0.0
C829 C 0.37741 0.62947 0.35663 0.0
C830 C 0.40531 0.69203 0.33799 0.0
C831 C 0.42859 0.6621 0.34179 0.0
H832 H 0.44073 0.14926 0.08069 0.0
H833 H 0.42662 0.06879 0.12552 0.0
H834 H 0.37186 0.10104 0.13673 0.0
H835 H 0.32917 0.15265 0.1345 0.0
H836 H 0.33956 0.23189 0.08897 0.0
H837 H 0.3944 0.19935 0.07708 0.0
C838 C 0.42558 0.13893 0.09291 0.0
C839 C 0.4378 0.10691 0.10239 0.0
C840 C 0.39349 0.1572 0.09905 0.0
C841 C 0.4177 0.09336 0.118 0.0
C842 C 0.38644 0.11178 0.12444 0.0
C843 C 0.34334 0.16269 0.12189 0.0
C844 C 0.33071 0.19466 0.11267 0.0
C845 C 0.37425 0.14375 0.11515 0.0
C846 C 0.34885 0.20719 0.09623 0.0
C847 C 0.38026 0.18874 0.08954 0.0
H848 H 0.52935 0.58952 0.85525 0.0
H849 H 0.62503 0.53738 0.87982 0.0
H850 H 0.66368 0.5894 0.87005 0.0
H851 H 0.66888 0.65221 0.85768 0.0
H852 H 0.57235 0.70691 0.83518 0.0
H853 H 0.53547 0.65161 0.84098 0.0
C854 C 0.55886 0.58923 0.85789 0.0
C855 C 0.57464 0.55964 0.8679 0.0
C856 C 0.58058 0.62002 0.85298 0.0
C857 C 0.6126 0.55983 0.87187 0.0
C858 C 0.63458 0.58965 0.86644 0.0
C859 C 0.63987 0.65203 0.85386 0.0
C860 C 0.62346 0.68388 0.84616 0.0
C861 C 0.61866 0.62037 0.85751 0.0
C862 C 0.58575 0.68294 0.84128 0.0
C863 C 0.56458 0.65126 0.84455 0.0
H864 H 0.12314 0.79565 0.62947 0.0
H865 H 0.20505 0.8689 0.60601 0.0
H866 H 0.15633 0.90637 0.59124 0.0
H867 H 0.09002 0.92107 0.58772 0.0
H868 H 0.00871 0.84548 0.61012 0.0
H869 H 0.05758 0.80586 0.62253 0.0
C870 C 0.13019 0.81957 0.62091 0.0
C871 C 0.16725 0.82999 0.61891 0.0
C872 C 0.10219 0.84056 0.61242 0.0
C873 C 0.17649 0.86055 0.60761 0.0
C874 C 0.14869 0.88202 0.59931 0.0
C875 C 0.08312 0.89569 0.59513 0.0
C876 C 0.04591 0.88635 0.59819 0.0
C877 C 0.11139 0.87277 0.60203 0.0
C878 C 0.03719 0.85319 0.60757 0.0
C879 C 0.06508 0.83061 0.61475 0.0
H880 H 0.88687 0.42501 0.38703 0.0
H881 H 0.97123 0.418 0.34395 0.0
H882 H 0.93998 0.36455 0.32979 0.0
H883 H 0.89018 0.31779 0.3309 0.0
H884 H 0.80466 0.3276 0.37334 0.0
H885 H 0.83467 0.38215 0.38642 0.0
C886 C 0.89825 0.4119 0.37445 0.0
C887 C 0.93137 0.42506 0.36661 0.0
C888 C 0.87996 0.38168 0.36632 0.0
C889 C 0.94566 0.40828 0.35018 0.0
C890 C 0.92791 0.37767 0.34216 0.0
C891 C 0.87805 0.33206 0.34292 0.0
C892 C 0.84534 0.31852 0.3512 0.0
C893 C 0.89529 0.3638 0.35029 0.0
C894 C 0.82968 0.33751 0.36664 0.0
C895 C 0.84692 0.36863 0.37421 0.0
H896 H 0.34496 0.79314 0.3914 0.0
H897 H 0.3017 0.87656 0.35369 0.0
H898 H 0.35038 0.91926 0.36337 0.0
H899 H 0.40801 0.93095 0.38025 0.0
H900 H 0.45499 0.84627 0.41611 0.0
H901 H 0.40226 0.80604 0.40951 0.0
C902 C 0.34591 0.82096 0.38568 0.0
C903 C 0.31982 0.83198 0.37201 0.0
C904 C 0.37492 0.8449 0.39076 0.0
C905 C 0.32157 0.86769 0.3643 0.0
C906 C 0.34943 0.89202 0.36976 0.0
C907 C 0.4066 0.90387 0.38682 0.0
C908 C 0.43553 0.89165 0.39859 0.0
C909 C 0.37673 0.88063 0.38262 0.0
C910 C 0.43324 0.85632 0.40688 0.0
C911 C 0.40306 0.83329 0.40313 0.0
H912 H 0.87803 0.57524 0.11079 0.0
H913 H 0.96914 0.57337 0.1503 0.0
H914 H 0.94466 0.62826 0.16632 0.0
H915 H 0.90016 0.67992 0.16698 0.0
H916 H 0.80808 0.67962 0.12786 0.0
H917 H 0.82998 0.62222 0.11384 0.0
C918 C 0.89215 0.58656 0.12312 0.0
C919 C 0.92535 0.57067 0.12934 0.0
C920 C 0.87793 0.61785 0.13216 0.0
C921 C 0.94338 0.58517 0.14538 0.0
C922 C 0.92955 0.61667 0.1544 0.0
C923 C 0.88478 0.66708 0.15549 0.0
C924 C 0.85284 0.68426 0.1483 0.0
C925 C 0.89733 0.63378 0.14759 0.0
C926 C 0.83279 0.66704 0.13363 0.0
C927 C 0.84534 0.63426 0.12556 0.0
H928 H 0.11555 0.20863 0.86339 0.0
H929 H 0.20113 0.14688 0.89164 0.0
H930 H 0.15461 0.10603 0.90591 0.0
H931 H 0.08978 0.08478 0.9078 0.0
H932 H 0.00433 0.14894 0.88066 0.0
H933 H 0.05053 0.19206 0.86843 0.0
C934 C 0.12386 0.18643 0.87284 0.0
C935 C 0.16147 0.18025 0.87634 0.0
C936 C 0.09704 0.16342 0.88101 0.0
C937 C 0.17217 0.15202 0.88886 0.0
C938 C 0.14564 0.12857 0.89686 0.0
C939 C 0.08138 0.10845 0.89937 0.0
C940 C 0.04386 0.1136 0.89497 0.0
C941 C 0.10805 0.13347 0.89264 0.0
C942 C 0.03309 0.14455 0.88426 0.0
C943 C 0.05947 0.1691 0.8772 0.0
H944 H 0.53301 0.41891 0.64114 0.0
H945 H 0.6293 0.47017 0.61672 0.0
H946 H 0.66735 0.41781 0.62658 0.0
H947 H 0.67173 0.355 0.6389 0.0
H948 H 0.5746 0.301 0.66122 0.0
H949 H 0.53839 0.35673 0.65548 0.0
C950 C 0.56252 0.41888 0.63856 0.0
C951 C 0.57871 0.44832 0.62859 0.0
C952 C 0.58386 0.38792 0.64353 0.0
C953 C 0.61663 0.44782 0.62466 0.0
C954 C 0.63824 0.41782 0.63014 0.0
C955 C 0.64274 0.35542 0.64272 0.0
C956 C 0.62593 0.32364 0.65032 0.0
C957 C 0.62194 0.38727 0.63907 0.0
C958 C 0.58827 0.32491 0.6552 0.0
C959 C 0.5675 0.35681 0.65194 0.0
H960 H 0.30443 0.22889 0.21806 0.0
H961 H 0.20322 0.28 0.19892 0.0
H962 H 0.18289 0.28603 0.23195 0.0
H963 H 0.19439 0.27787 0.26602 0.0
H964 H 0.29597 0.22746 0.28513 0.0
H965 H 0.31545 0.21977 0.25208 0.0
C966 C 0.27788 0.24141 0.22103 0.0
C967 C 0.25545 0.25412 0.20597 0.0
C968 C 0.26639 0.24477 0.23999 0.0
C969 C 0.2211 0.27007 0.21019 0.0
C970 C 0.20944 0.27348 0.22907 0.0
C971 C 0.22074 0.26497 0.26304 0.0
C972 C 0.24371 0.25331 0.27811 0.0
C973 C 0.23193 0.26101 0.24405 0.0
C974 C 0.27774 0.23672 0.27386 0.0
C975 C 0.28894 0.2324 0.25496 0.0
H976 H 0.00969 0.02951 0.52987 0.0
H977 H 0.9511 0.92739 0.52013 0.0
H978 H 0.9603 0.93388 0.48588 0.0
H979 H 0.98482 0.96885 0.45851 0.0
H980 H 0.04262 0.07137 0.46881 0.0
H981 H 0.03378 0.06424 0.50284 0.0
C982 C 0.99898 0.00859 0.52029 0.0
C983 C 0.97976 0.97807 0.52763 0.0
C984 C 0.00414 0.01253 0.5006 0.0
C985 C 0.96596 0.9513 0.51492 0.0
C986 C 0.97121 0.95494 0.49529 0.0
C987 C 0.99548 0.9896 0.4682 0.0
C988 C 0.0143 0.02056 0.46099 0.0
C989 C 0.99022 0.9855 0.48795 0.0
C990 C 0.02789 0.04723 0.47382 0.0
C991 C 0.02293 0.04322 0.49338 0.0
H992 H 0.26862 0.73732 0.71148 0.0
H993 H 0.16293 0.78351 0.72687 0.0
H994 H 0.17691 0.77419 0.7605 0.0
H995 H 0.21943 0.75379 0.78561 0.0
H996 H 0.32483 0.70716 0.77005 0.0
H997 H 0.31052 0.71593 0.73646 0.0
C998 C 0.24856 0.7453 0.72215 0.0
C999 C 0.21484 0.76118 0.71659 0.0
C1000 C 0.25671 0.73991 0.74149 0.0
C1001 C 0.18915 0.7712 0.73069 0.0
C1002 C 0.19711 0.76596 0.74996 0.0
C1003 C 0.2393 0.74558 0.77489 0.0
C1004 C 0.27316 0.72992 0.78041 0.0
C1005 C 0.23089 0.75052 0.75553 0.0
C1006 C 0.29849 0.71925 0.76627 0.0
C1007 C 0.29038 0.72426 0.74702 0.0
H1008 H 0.47592 0.97394 0.03229 0.0
H1009 H 0.53099 0.07712 0.01994 0.0
H1010 H 0.5216 0.0676 0.98604 0.0
H1011 H 0.49917 0.02961 0.9597 0.0
H1012 H 0.44367 0.92664 0.9718 0.0
H1013 H 0.45189 0.93662 0.00585 0.0
C1014 C 0.48571 0.99444 0.0222 0.0
C1015 C 0.50427 0.02606 0.02875 0.0
C1016 C 0.48032 0.98885 0.00259 0.0
C1017 C 0.5167 0.05237 0.0154 0.0
C1018 C 0.51141 0.04699 0.99594 0.0
C1019 C 0.48888 0.00932 0.96976 0.0
C1020 C 0.47097 0.97742 0.96314 0.0
C1021 C 0.49353 0.01522 0.98936 0.0
C1022 C 0.45758 0.95153 0.97644 0.0
C1023 C 0.46227 0.95716 0.99596 0.0
H1024 H 0.30563 0.77769 0.26771 0.0
H1025 H 0.20978 0.71839 0.28793 0.0
H1026 H 0.19218 0.70453 0.25507 0.0
H1027 H 0.20308 0.71093 0.22077 0.0
H1028 H 0.29872 0.77092 0.20077 0.0
H1029 H 0.31736 0.78271 0.23361 0.0
C1030 C 0.28086 0.76167 0.26502 0.0
C1031 C 0.25894 0.74929 0.28032 0.0
C1032 C 0.27087 0.75396 0.24617 0.0
C1033 C 0.22712 0.72835 0.27646 0.0
C1034 C 0.21703 0.72045 0.25767 0.0
C1035 C 0.22811 0.72648 0.22353 0.0
C1036 C 0.24938 0.74013 0.20826 0.0
C1037 C 0.23857 0.73336 0.24244 0.0
C1038 C 0.28176 0.76013 0.2122 0.0
C1039 C 0.29243 0.76693 0.23098 0.0
H1040 H 0.53519 0.95008 0.47247 0.0
H1041 H 0.47468 0.04642 0.45398 0.0
H1042 H 0.46158 0.06198 0.48715 0.0
H1043 H 0.46655 0.04771 0.52114 0.0
H1044 H 0.52657 0.95095 0.53949 0.0
H1045 H 0.54066 0.93614 0.50638 0.0
C1046 C 0.51918 0.97458 0.47561 0.0
C1047 C 0.50592 0.99703 0.46069 0.0
C1048 C 0.51163 0.98325 0.49464 0.0
C1049 C 0.48522 0.02862 0.46514 0.0
C1050 C 0.4777 0.03753 0.4841 0.0
C1051 C 0.4828 0.02338 0.51797 0.0
C1052 C 0.49543 1.00044 0.53284 0.0
C1053 C 0.49067 0.01495 0.49893 0.0
C1054 C 0.51642 0.96906 0.52837 0.0
C1055 C 0.5245 0.96057 0.50944 0.0
H1056 H 0.26905 0.26191 0.7832 0.0
H1057 H 0.15934 0.22496 0.76831 0.0
H1058 H 0.17449 0.2294 0.73458 0.0
H1059 H 0.21908 0.24314 0.7092 0.0
H1060 H 0.3286 0.28036 0.72432 0.0
H1061 H 0.31321 0.27624 0.75796 0.0
C1062 C 0.24835 0.25497 0.77261 0.0
C1063 C 0.21315 0.24308 0.77836 0.0
C1064 C 0.25722 0.25743 0.7532 0.0
C1065 C 0.18672 0.23419 0.76436 0.0
C1066 C 0.19535 0.23663 0.74502 0.0
C1067 C 0.23962 0.25021 0.71985 0.0
C1068 C 0.27491 0.262 0.71417 0.0
C1069 C 0.23058 0.24802 0.73927 0.0
C1070 C 0.30113 0.27128 0.72821 0.0
C1071 C 0.2924 0.26895 0.7475 0.0
H1072 H 0.02112 0.96855 0.96399 0.0
H1073 H 0.95461 0.06538 0.97409 0.0
H1074 H 0.96492 0.0595 0.00826 0.0
H1075 H 0.99285 0.02699 0.03538 0.0
H1076 H 0.05901 0.92993 0.02508 0.0
H1077 H 0.04861 0.9359 0.991 0.0
C1078 C 0.00893 0.98844 0.97363 0.0
C1079 C 0.98717 0.01733 0.96641 0.0
C1080 C 0.01479 0.98488 0.99331 0.0
C1081 C 0.97147 0.04276 0.9792 0.0
C1082 C 0.97733 0.03947 -0.00122 0.0
C1083 C 0.00494 0.00709 0.0257 0.0
C1084 C 0.0267 0.97813 0.03287 0.0
C1085 C 0.99891 0.01061 0.00601 0.0
C1086 C 0.04213 0.9526 0.02005 0.0
C1087 C 0.03626 0.95595 0.00049 0.0
H1088 H 0.71732 0.76512 0.71292 0.0
H1089 H 0.82875 0.73137 0.72626 0.0
H1090 H 0.81556 0.73575 0.76013 0.0
H1091 H 0.77244 0.74858 0.78615 0.0
H1092 H 0.66127 0.78303 0.77289 0.0
H1093 H 0.67441 0.77873 0.73896 0.0
C1094 C 0.73879 0.7589 0.72321 0.0
C1095 C 0.7739 0.74788 0.71695 0.0
C1096 C 0.73109 0.76136 0.74278 0.0
C1097 C 0.80136 0.73989 0.73058 0.0
C1098 C 0.79389 0.74229 0.75002 0.0
C1099 C 0.75104 0.75497 0.77585 0.0
C1100 C 0.71596 0.76605 0.78211 0.0
C1101 C 0.75881 0.7528 0.75629 0.0
C1102 C 0.68862 0.77451 0.76851 0.0
C1103 C 0.69606 0.77209 0.74906 0.0
H1104 H 0.70544 0.27931 0.21937 0.0
H1105 H 0.80213 0.22142 0.19947 0.0
H1106 H 0.82086 0.20986 0.23242 0.0
H1107 H 0.80931 0.21567 0.26675 0.0
H1108 H 0.71193 0.27293 0.2863 0.0
H1109 H 0.69405 0.28531 0.25341 0.0
C1110 C 0.7307 0.2642 0.22215 0.0
C1111 C 0.75234 0.25128 0.20691 0.0
C1112 C 0.74118 0.25754 0.24104 0.0
C1113 C 0.7849 0.23168 0.21089 0.0
C1114 C 0.79565 0.22507 0.22973 0.0
C1115 C 0.78423 0.23099 0.26386 0.0
C1116 C 0.76201 0.24334 0.27903 0.0
C1117 C 0.77393 0.23782 0.24491 0.0
C1118 C 0.72953 0.263 0.27495 0.0
C1119 C 0.71926 0.27012 0.25614 0.0
H1120 H 0.72611 0.22765 0.78108 0.0
H1121 H 0.83358 0.27303 0.76833 0.0
H1122 H 0.81937 0.27219 0.73441 0.0
H1123 H 0.77624 0.25898 0.70823 0.0
H1124 H 0.66867 0.21399 0.72131 0.0
H1125 H 0.6832 0.21453 0.75508 0.0
C1126 C 0.74653 0.23716 0.7709 0.0
C1127 C 0.7808 0.25035 0.7773 0.0
C1128 C 0.73814 0.23692 0.75139 0.0
C1129 C 0.80686 0.26278 0.76385 0.0
C1130 C 0.79879 0.26237 0.74441 0.0
C1131 C 0.75593 0.24946 0.71846 0.0
C1132 C 0.72148 0.23645 0.71214 0.0
C1133 C 0.76443 0.24968 0.738 0.0
C1134 C 0.69553 0.22407 0.72567 0.0
C1135 C 0.70376 0.22431 0.74505 0.0
H1136 H 0.79326 0.75588 0.29269 0.0
H1137 H 0.68053 0.7271 0.27905 0.0
H1138 H 0.693 0.73592 0.2453 0.0
H1139 H 0.73566 0.75178 0.21957 0.0
H1140 H 0.84853 0.78024 0.23308 0.0
H1141 H 0.83614 0.77136 0.26686 0.0
C1142 C 0.77137 0.75168 0.28235 0.0
C1143 C 0.73605 0.74086 0.28846 0.0
C1144 C 0.77872 0.75657 0.26288 0.0
C1145 C 0.70807 0.73534 0.27481 0.0
C1146 C 0.71513 0.74037 0.25546 0.0
C1147 C 0.75762 0.75593 0.22987 0.0
C1148 C 0.79293 0.7667 0.22371 0.0
C1149 C 0.75036 0.75089 0.24932 0.0
C1150 C 0.82102 0.77196 0.23734 0.0
C1151 C 0.81398 0.76695 0.25671 0.0
H1152 H 0.47327 0.45788 0.02573 0.0
H1153 H 0.53913 0.55239 0.04184 0.0
H1154 H 0.55044 0.56618 0.00828 0.0
H1155 H 0.54168 0.55143 0.97459 0.0
H1156 H 0.47551 0.45712 0.95851 0.0
H1157 H 0.46428 0.4433 0.99207 0.0
C1158 C 0.49017 0.48152 0.02198 0.0
C1159 C 0.50537 0.50404 0.03635 0.0
C1160 C 0.49649 0.48933 0.00271 0.0
C1161 C 0.52707 0.53459 0.03112 0.0
C1162 C 0.53356 0.54249 0.01193 0.0
C1163 C 0.5248 0.52779 0.97836 0.0
C1164 C 0.50952 0.50531 0.96399 0.0
C1165 C 0.51841 0.52003 -0.00237 0.0
C1166 C 0.48763 0.4749 0.96923 0.0
C1167 C 0.48121 0.46696 0.98842 0.0
H1168 H 0.96569 0.44606 0.47424 0.0
H1169 H 0.02109 0.54515 0.4552 0.0
H1170 H 0.03199 0.56302 0.48828 0.0
H1171 H 0.02644 0.55021 0.5224 0.0
H1172 H 0.97158 0.4508 0.5414 0.0
H1173 H 0.95973 0.43348 0.50834 0.0
C1174 C 0.98013 0.47164 0.47725 0.0
C1175 C 0.99258 0.4942 0.46217 0.0
C1176 C 0.98638 0.4817 0.49626 0.0
C1177 C 0.01123 0.5272 0.46646 0.0
C1178 C 0.01747 0.53746 0.48538 0.0
C1179 C 0.01178 0.52476 0.51939 0.0
C1180 C 0.99995 0.50184 0.53445 0.0
C1181 C 0.00523 0.51487 0.50037 0.0
C1182 C 0.98104 0.46898 0.53015 0.0
C1183 C 0.97427 0.45903 0.51124 0.0
H1184 H 0.99672 0.47314 0.03143 0.0
H1185 H 0.96247 0.58598 0.02249 0.0
H1186 H 0.96714 0.57792 0.98817 0.0
H1187 H 0.9813 0.53902 0.9605 0.0
H1188 H 0.01562 0.42623 0.96961 0.0
H1189 H 0.01029 0.4342 0.00387 0.0
C1190 C 0.99041 0.49602 0.022 0.0
C1191 C 0.97931 0.53005 0.0296 0.0
C1192 C 0.99296 0.49124 0.0022 0.0
C1193 C 0.97106 0.55936 0.01709 0.0
C1194 C 0.97366 0.55483 -0.00259 0.0
C1195 C 0.98736 0.51613 0.96997 0.0
C1196 C 0.99892 0.48219 0.96243 0.0
C1197 C 0.98452 0.52087 0.98978 0.0
C1198 C 0.00683 0.45283 0.97496 0.0
C1199 C 0.00384 0.45728 0.99462 0.0
H1200 H 0.46309 0.55611 0.47424 0.0
H1201 H 0.52761 0.46323 0.45492 0.0
H1202 H 0.54056 0.44612 0.4879 0.0
H1203 H 0.53404 0.45785 0.52206 0.0
H1204 H 0.46997 0.55113 0.54127 0.0
H1205 H 0.45634 0.56766 0.50831 0.0
C1206 C 0.47996 0.53205 0.47717 0.0
C1207 C 0.49434 0.511 0.46207 0.0
C1208 C 0.48739 0.52244 0.49612 0.0
C1209 C 0.51618 0.47997 0.46623 0.0
C1210 C 0.5236 0.47015 0.48509 0.0
C1211 C 0.517 0.48177 0.51909 0.0
C1212 C 0.50309 0.50321 0.53416 0.0
C1213 C 0.5094 0.49123 0.50013 0.0
C1214 C 0.48113 0.53415 0.52998 0.0
C1215 C 0.4733 0.54363 0.51113 0.0
H1216 H 0.32148 0.16279 0.36343 0.0
H1217 H 0.40443 0.24473 0.35043 0.0
H1218 H 0.45295 0.20145 0.3593 0.0
H1219 H 0.47208 0.14047 0.37062 0.0
H1220 H 0.38968 0.05817 0.38378 0.0
H1221 H 0.3408 0.1015 0.37502 0.0
C1222 C 0.35016 0.17119 0.36252 0.0
C1223 C 0.35919 0.20704 0.35622 0.0
C1224 C 0.37809 0.14611 0.3677 0.0
C1225 C 0.39657 0.21739 0.3552 0.0
C1226 C 0.42441 0.19263 0.36028 0.0
C1227 C 0.44345 0.13193 0.3716 0.0
C1228 C 0.43465 0.09604 0.37785 0.0
C1229 C 0.41551 0.15695 0.36654 0.0
C1230 C 0.39731 0.0856 0.37903 0.0
C1231 C 0.36932 0.11037 0.374 0.0
H1232 H 0.0916 0.07151 0.64008 0.0
H1233 H 0.09288 0.07592 0.57863 0.0
H1234 H 0.14296 0.12114 0.57962 0.0
H1235 H 0.18495 0.16111 0.59796 0.0
H1236 H 0.18291 0.15697 0.65943 0.0
H1237 H 0.13469 0.10996 0.65835 0.0
C1238 C 0.10291 0.08217 0.62688 0.0
C1239 C 0.0883 0.07033 0.60931 0.0
C1240 C 0.13155 0.10837 0.62754 0.0
C1241 C 0.10346 0.08451 0.59236 0.0
C1242 C 0.13211 0.11045 0.59292 0.0
C1243 C 0.1741 0.14984 0.61113 0.0
C1244 C 0.18754 0.16278 0.62876 0.0
C1245 C 0.14614 0.12285 0.61043 0.0
C1246 C 0.1731 0.14771 0.64566 0.0
C1247 C 0.14546 0.12078 0.64507 0.0
H1248 H 0.19592 0.84263 0.89485 0.0
H1249 H 0.17974 0.83144 0.83417 0.0
H1250 H 0.13079 0.87749 0.83512 0.0
H1251 H 0.09057 0.91876 0.85327 0.0
H1252 H 0.10581 0.92971 0.914 0.0
H1253 H 0.15722 0.88617 0.91287 0.0
C1254 C 0.18187 0.8504 0.8818 0.0
C1255 C 0.19145 0.83332 0.86448 0.0
C1256 C 0.15345 0.87683 0.88245 0.0
C1257 C 0.17292 0.84392 0.84772 0.0
C1258 C 0.14485 0.87028 0.84824 0.0
C1259 C 0.10523 0.91186 0.86627 0.0
C1260 C 0.09411 0.92741 0.88371 0.0
C1261 C 0.13457 0.88658 0.86555 0.0
C1262 C 0.11364 0.91815 0.90037 0.0
C1263 C 0.14304 0.89316 0.89975 0.0
H1264 H 0.34931 0.82518 0.1428 0.0
H1265 H 0.28636 0.86833 0.09552 0.0
H1266 H 0.33631 0.91126 0.088 0.0
H1267 H 0.39854 0.93589 0.09447 0.0
H1268 H 0.4612 0.89223 0.14175 0.0
H1269 H 0.4108 0.85028 0.14954 0.0
C1270 C 0.34638 0.84407 0.13089 0.0
C1271 C 0.31406 0.8434 0.11974 0.0
C1272 C 0.37531 0.86857 0.12656 0.0
C1273 C 0.31089 0.86813 0.10436 0.0
C1274 C 0.3395 0.89271 0.10001 0.0
C1275 C 0.40119 0.91719 0.10647 0.0
C1276 C 0.43376 0.91724 0.11745 0.0
C1277 C 0.37197 0.89302 0.11093 0.0
C1278 C 0.43657 0.89285 0.133 0.0
C1279 C 0.4077 0.8688 0.1375 0.0
H1280 H 0.6783 0.83685 0.62989 0.0
H1281 H 0.6064 0.77165 0.66563 0.0
H1282 H 0.55459 0.81175 0.65763 0.0
H1283 H 0.52944 0.86503 0.64035 0.0
H1284 H 0.60102 0.9299 0.60428 0.0
H1285 H 0.65306 0.89018 0.61254 0.0
C1286 C 0.65133 0.83145 0.63599 0.0
C1287 C 0.64635 0.80124 0.64838 0.0
C1288 C 0.62151 0.85452 0.63123 0.0
C1289 C 0.61112 0.79465 0.65607 0.0
C1290 C 0.58141 0.81758 0.65149 0.0
C1291 C 0.55641 0.87053 0.63427 0.0
C1292 C 0.56122 0.90046 0.6217 0.0
C1293 C 0.58625 0.84753 0.63905 0.0
C1294 C 0.59642 0.90705 0.61396 0.0
C1295 C 0.62626 0.88436 0.6187 0.0
H1296 H 0.9228 0.92041 0.37511 0.0
H1297 H 0.97525 0.85512 0.41893 0.0
H1298 H 0.93126 0.80524 0.41344 0.0
H1299 H 0.87783 0.77998 0.39632 0.0
H1300 H 0.82547 0.8448 0.35231 0.0
H1301 H 0.86949 0.89482 0.35775 0.0
C1302 C 0.9246 0.8953 0.38349 0.0
C1303 C 0.95236 0.89166 0.39744 0.0
C1304 C 0.89923 0.86652 0.38021 0.0
C1305 C 0.95425 0.8588 0.4081 0.0
C1306 C 0.92907 0.83018 0.40497 0.0
C1307 C 0.87601 0.80501 0.38788 0.0
C1308 C 0.84828 0.80852 0.37392 0.0
C1309 C 0.90145 0.83371 0.39107 0.0
C1310 C 0.8465 0.84122 0.36313 0.0
C1311 C 0.87167 0.86992 0.36625 0.0
H1312 H 0.87248 0.20856 0.10049 0.0
H1313 H 0.81179 0.13346 0.13657 0.0
H1314 H 0.85673 0.08478 0.12999 0.0
H1315 H 0.91447 0.0641 0.11465 0.0
H1316 H 0.9748 0.14025 0.07892 0.0
H1317 H 0.92873 0.18774 0.08469 0.0
C1318 C 0.86892 0.18153 0.1069 0.0
C1319 C 0.8388 0.1748 0.11906 0.0
C1320 C 0.89489 0.15377 0.10313 0.0
C1321 C 0.83473 0.13951 0.12718 0.0
C1322 C 0.86044 0.11162 0.12343 0.0
C1323 C 0.91741 0.091 0.10803 0.0
C1324 C 0.9482 0.09851 0.09639 0.0
C1325 C 0.8908 0.1185 0.11151 0.0
C1326 C 0.95153 0.1336 0.08797 0.0
C1327 C 0.92517 0.16089 0.09127 0.0
H1328 H 0.59388 0.05304 0.85023 0.0
H1329 H 0.58485 0.06919 0.91097 0.0
H1330 H 0.63475 0.11449 0.90991 0.0
H1331 H 0.6793 0.15134 0.89162 0.0
H1332 H 0.68804 0.13574 0.83083 0.0
H1333 H 0.64005 0.08836 0.83209 0.0
C1334 C 0.60292 0.06628 0.86327 0.0
C1335 C 0.5854 0.05774 0.88065 0.0
C1336 C 0.63155 0.09255 0.86255 0.0
C1337 C 0.59766 0.07521 0.89739 0.0
C1338 C 0.62622 0.1012 0.89679 0.0
C1339 C 0.67088 0.1375 0.87863 0.0
C1340 C 0.68724 0.14732 0.86114 0.0
C1341 C 0.6431 0.11038 0.87943 0.0
C1342 C 0.67595 0.12889 0.84449 0.0
C1343 C 0.64843 0.10177 0.84519 0.0
H1344 H 0.80452 0.66175 0.87145 0.0
H1345 H 0.86319 0.70086 0.82185 0.0
H1346 H 0.91367 0.65842 0.82864 0.0
H1347 H 0.94198 0.61131 0.84887 0.0
H1348 H 0.88465 0.57245 0.8989 0.0
H1349 H 0.83301 0.61372 0.89175 0.0
C1350 C 0.82823 0.66079 0.86206 0.0
C1351 C 0.82996 0.68454 0.84614 0.0
C1352 C 0.85757 0.63652 0.86618 0.0
C1353 C 0.86107 0.68304 0.83421 0.0
C1354 C 0.89003 0.65877 0.83809 0.0
C1355 C 0.91823 0.61177 0.85825 0.0
C1356 C 0.91734 0.58878 0.87444 0.0
C1357 C 0.88872 0.63561 0.85409 0.0
C1358 C 0.88621 0.58988 0.88638 0.0
C1359 C 0.8566 0.61345 0.88227 0.0
H1360 H 0.70046 0.67272 0.11417 0.0
H1361 H 0.6565 0.71907 0.166 0.0
H1362 H 0.60308 0.67805 0.16389 0.0
H1363 H 0.56885 0.62878 0.1474 0.0
H1364 H 0.61324 0.58237 0.09566 0.0
H1365 H 0.66637 0.62361 0.09773 0.0
C1366 C 0.67919 0.67397 0.125 0.0
C1367 C 0.68257 0.69907 0.14021 0.0
C1368 C 0.64856 0.65019 0.12375 0.0
C1369 C 0.65469 0.7001 0.15413 0.0
C1370 C 0.62409 0.67661 0.15294 0.0
C1371 C 0.59012 0.62765 0.13656 0.0
C1372 C 0.58692 0.60242 0.1214 0.0
C1373 C 0.62074 0.65149 0.13783 0.0
C1374 C 0.61487 0.60143 0.10751 0.0
C1375 C 0.64532 0.62505 0.10866 0.0
H1376 H 0.69795 0.36002 0.38323 0.0
H1377 H 0.63839 0.29279 0.34277 0.0
H1378 H 0.58522 0.33368 0.34511 0.0
H1379 H 0.55523 0.38806 0.35882 0.0
H1380 H 0.6147 0.45586 0.39904 0.0
H1381 H 0.66825 0.4153 0.39652 0.0
C1382 C 0.67333 0.35427 0.37494 0.0
C1383 C 0.6722 0.32325 0.3629 0.0
C1384 C 0.6428 0.37804 0.37627 0.0
C1385 C 0.6401 0.31641 0.35217 0.0
C1386 C 0.60961 0.33979 0.35349 0.0
C1387 C 0.5799 0.39406 0.36702 0.0
C1388 C 0.58083 0.42495 0.37913 0.0
C1389 C 0.61062 0.37063 0.36551 0.0
C1390 C 0.61316 0.4323 0.38959 0.0
C1391 C 0.64381 0.40906 0.38819 0.0
H1392 H 0.90311 0.42767 0.61977 0.0
H1393 H 0.97888 0.34196 0.60276 0.0
H1394 H 0.93326 0.29502 0.61082 0.0
H1395 H 0.87194 0.27799 0.62244 0.0
H1396 H 0.79569 0.36295 0.63971 0.0
H1397 H 0.84144 0.41035 0.63187 0.0
C1398 C 0.90964 0.39873 0.61781 0.0
C1399 C 0.94447 0.38848 0.61061 0.0
C1400 C 0.8832 0.37166 0.62255 0.0
C1401 C 0.95239 0.35078 0.60824 0.0
C1402 C 0.92629 0.32383 0.61286 0.0
C1403 C 0.86524 0.30685 0.62454 0.0
C1404 C 0.83032 0.3168 0.63165 0.0
C1405 C 0.89162 0.33393 0.61999 0.0
C1406 C 0.82232 0.35442 0.63429 0.0
C1407 C 0.84847 0.38158 0.62977 0.0
H1408 H 0.09128 0.43293 0.09071 0.0
H1409 H 0.03224 0.38904 0.13913 0.0
H1410 H 0.08317 0.34719 0.14593 0.0
H1411 H 0.14479 0.3233 0.13849 0.0
H1412 H 0.20414 0.36689 0.09013 0.0
H1413 H 0.15292 0.40846 0.08305 0.0
C1414 C 0.08947 0.41411 0.1027 0.0
C1415 C 0.05787 0.41424 0.11437 0.0
C1416 C 0.11904 0.39006 0.10663 0.0
C1417 C 0.05615 0.38966 0.12988 0.0
C1418 C 0.08533 0.36567 0.13383 0.0
C1419 C 0.1466 0.3419 0.1264 0.0
C1420 C 0.17839 0.34192 0.1149 0.0
C1421 C 0.11698 0.36572 0.12236 0.0
C1422 C 0.18007 0.36621 0.09926 0.0
C1423 C 0.15074 0.39003 0.09518 0.0
H1424 H 0.43519 0.38663 0.8557 0.0
H1425 H 0.3863 0.44447 0.90308 0.0
H1426 H 0.33094 0.40624 0.90049 0.0
H1427 H 0.29664 0.3558 0.88508 0.0
H1428 H 0.34554 0.29819 0.83762 0.0
H1429 H 0.40053 0.33693 0.83998 0.0
C1430 C 0.41243 0.39098 0.86546 0.0
C1431 C 0.41506 0.41841 0.8796 0.0
C1432 C 0.38062 0.36885 0.86391 0.0
C1433 C 0.38515 0.42359 0.89207 0.0
C1434 C 0.35344 0.40169 0.89061 0.0
C1435 C 0.31929 0.35167 0.87523 0.0
C1436 C 0.31688 0.32395 0.86123 0.0
C1437 C 0.35092 0.37413 0.87664 0.0
C1438 C 0.34655 0.31922 0.84856 0.0
C1439 C 0.37807 0.34138 0.8499 0.0
H1440 H 0.44043 0.62537 0.64455 0.0
H1441 H 0.40027 0.57601 0.59252 0.0
H1442 H 0.34564 0.6151 0.59353 0.0
H1443 H 0.30909 0.6633 0.60906 0.0
H1444 H 0.34888 0.71276 0.66111 0.0
H1445 H 0.40368 0.67368 0.66015 0.0
C1446 C 0.41974 0.62314 0.63343 0.0
C1447 C 0.42458 0.59773 0.61849 0.0
C1448 C 0.38824 0.64576 0.63407 0.0
C1449 C 0.39739 0.59527 0.60421 0.0
C1450 C 0.36606 0.61765 0.60475 0.0
C1451 C 0.32973 0.6656 0.6202 0.0
C1452 C 0.3248 0.69101 0.63511 0.0
C1453 C 0.3612 0.643 0.61959 0.0
C1454 C 0.3519 0.69349 0.64944 0.0
C1455 C 0.38329 0.67112 0.64892 0.0
H1456 H 0.10285 0.56691 0.38269 0.0
H1457 H 0.00946 0.63651 0.36967 0.0
H1458 H 0.05075 0.68572 0.35953 0.0
H1459 H 0.11302 0.70938 0.35426 0.0
H1460 H 0.20716 0.64069 0.36686 0.0
H1461 H 0.16599 0.5909 0.37716 0.0
C1462 C 0.09157 0.59288 0.37768 0.0
C1463 C 0.05301 0.59788 0.37699 0.0
C1464 C 0.1156 0.62129 0.37173 0.0
C1465 C 0.03893 0.63173 0.37037 0.0
C1466 C 0.06255 0.66 0.36454 0.0
C1467 C 0.12465 0.68354 0.35923 0.0
C1468 C 0.16318 0.67889 0.35977 0.0
C1469 C 0.10088 0.65509 0.36513 0.0
C1470 C 0.17761 0.64509 0.36626 0.0
C1471 C 0.15407 0.61659 0.37219 0.0
loop_
_geom_bond_atom_site_label_1
_geom_bond_atom_site_label_2
_geom_bond_distance
_geom_bond_site_symmetry_2
_ccdc_geom_bond_type
Mg0 O1 2.028 . S
Mg0 O7 1.986 . S
Mg0 O9 2.114 . S
Mg0 O10 2.251 . S
Mg0 O13 2.010 . S
O1 Mg0 2.028 . S
O1 C4 1.250 . S
O2 Mg3 2.028 . S
O2 C4 1.248 . S
Mg3 O2 2.028 . S
Mg3 O8 2.032 . S
Mg3 O10 2.079 . S
C4 O1 1.250 . S
C4 O2 1.248 . S
C5 O6 1.264 . S
C5 O13 1.249 . S
O6 C5 1.264 . S
O7 Mg0 1.986 . S
O7 C11 1.246 . S
O8 Mg3 2.032 . S
O8 C11 1.259 . S
O9 Mg0 2.114 . S
O9 C12 1.252 . S
O10 Mg0 2.251 . S
O10 Mg3 2.079 . S
O10 C12 1.273 . S
C11 O7 1.246 . S
C11 O8 1.259 . S
C12 O9 1.252 . S
C12 O10 1.273 . S
O13 Mg0 2.010 . S
O13 C5 1.249 . S
Mg14 O15 2.028 . S
Mg14 O21 1.986 . S
Mg14 O23 2.114 1_455 S
Mg14 O24 2.251 1_455 S
Mg14 O27 2.010 1_565 S
O15 Mg14 2.028 . S
O15 C18 1.250 . S
O16 Mg17 2.028 1_455 S
O16 C18 1.248 . S
Mg17 O16 2.028 1_655 S
Mg17 O22 2.032 1_655 S
Mg17 O24 2.079 . S
C18 O15 1.250 . S
C18 O16 1.248 . S
C19 O20 1.264 . S
C19 O27 1.249 . S
O20 C19 1.264 . S
O21 Mg14 1.986 . S
O21 C25 1.246 . S
O22 Mg17 2.032 1_455 S
O22 C25 1.259 . S
O23 Mg14 2.114 1_655 S
O23 C26 1.252 . S
O24 Mg14 2.251 1_655 S
O24 Mg17 2.079 . S
O24 C26 1.273 . S
C25 O21 1.246 . S
C25 O22 1.259 . S
C26 O23 1.252 . S
C26 O24 1.273 . S
O27 Mg14 2.010 1_545 S
O27 C19 1.249 . S
Mg28 O29 2.028 . S
Mg28 O35 1.986 . S
Mg28 O37 2.114 . S
Mg28 O38 2.251 . S
Mg28 O41 2.010 . S
O29 Mg28 2.028 . S
O29 C32 1.250 . S
O30 Mg31 2.028 . S
O30 C32 1.248 . S
Mg31 O30 2.028 . S
Mg31 O36 2.032 . S
Mg31 O38 2.079 . S
C32 O29 1.250 . S
C32 O30 1.248 . S
C33 O34 1.264 . S
C33 O41 1.249 . S
O34 C33 1.264 . S
O35 Mg28 1.986 . S
O35 C39 1.246 . S
O36 Mg31 2.032 . S
O36 C39 1.259 . S
O37 Mg28 2.114 . S
O37 C40 1.252 . S
O38 Mg28 2.251 . S
O38 Mg31 2.079 . S
O38 C40 1.273 . S
C39 O35 1.246 . S
C39 O36 1.259 . S
C40 O37 1.252 . S
C40 O38 1.273 . S
O41 Mg28 2.010 . S
O41 C33 1.249 . S
Mg42 O43 2.028 . S
Mg42 O49 1.986 . S
Mg42 O51 2.114 . S
Mg42 O52 2.251 . S
Mg42 O55 2.010 1_545 S
O43 Mg42 2.028 . S
O43 C46 1.250 . S
O44 Mg45 2.028 . S
O44 C46 1.248 . S
Mg45 O44 2.028 . S
Mg45 O50 2.032 . S
Mg45 O52 2.079 . S
C46 O43 1.250 . S
C46 O44 1.248 . S
C47 O48 1.264 . S
C47 O55 1.249 . S
O48 C47 1.264 . S
O49 Mg42 1.986 . S
O49 C53 1.246 . S
O50 Mg45 2.032 . S
O50 C53 1.259 . S
O51 Mg42 2.114 . S
O51 C54 1.252 . S
O52 Mg42 2.251 . S
O52 Mg45 2.079 . S
O52 C54 1.273 . S
C53 O49 1.246 . S
C53 O50 1.259 . S
C54 O51 1.252 . S
C54 O52 1.273 . S
O55 Mg42 2.010 1_565 S
O55 C47 1.249 . S
Mg56 O57 2.028 . S
Mg56 O63 1.986 . S
Mg56 O65 2.114 . S
Mg56 O66 2.251 . S
Mg56 O69 2.010 . S
O57 Mg56 2.028 . S
O57 C60 1.250 . S
O58 Mg59 2.028 . S
O58 C60 1.248 . S
Mg59 O58 2.028 . S
Mg59 O64 2.032 . S
Mg59 O66 2.079 . S
C60 O57 1.250 . S
C60 O58 1.248 . S
C61 O62 1.264 . S
C61 O69 1.249 . S
O62 C61 1.264 . S
O63 Mg56 1.986 . S
O63 C67 1.246 . S
O64 Mg59 2.032 . S
O64 C67 1.259 . S
O65 Mg56 2.114 . S
O65 C68 1.252 . S
O66 Mg56 2.251 . S
O66 Mg59 2.079 . S
O66 C68 1.273 . S
C67 O63 1.246 . S
C67 O64 1.259 . S
C68 O65 1.252 . S
C68 O66 1.273 . S
O69 Mg56 2.010 . S
O69 C61 1.249 . S
Mg70 O71 2.028 . S
Mg70 O77 1.986 . S
Mg70 O79 2.114 . S
Mg70 O80 2.251 . S
Mg70 O83 2.010 1_565 S
O71 Mg70 2.028 . S
O71 C74 1.250 . S
O72 Mg73 2.028 . S
O72 C74 1.248 . S
Mg73 O72 2.028 . S
Mg73 O78 2.032 . S
Mg73 O80 2.079 . S
C74 O71 1.250 . S
C74 O72 1.248 . S
C75 O76 1.264 . S
C75 O83 1.249 . S
O76 C75 1.264 . S
O77 Mg70 1.986 . S
O77 C81 1.246 . S
O78 Mg73 2.032 . S
O78 C81 1.259 . S
O79 Mg70 2.114 . S
O79 C82 1.252 . S
O80 Mg70 2.251 . S
O80 Mg73 2.079 . S
O80 C82 1.273 . S
C81 O77 1.246 . S
C81 O78 1.259 . S
C82 O79 1.252 . S
C82 O80 1.273 . S
O83 Mg70 2.010 1_545 S
O83 C75 1.249 . S
Mg84 O85 2.028 . S
Mg84 O91 1.986 . S
Mg84 O93 2.114 . S
Mg84 O94 2.251 . S
Mg84 O97 2.010 . S
O85 Mg84 2.028 . S
O85 C88 1.250 . S
O86 Mg87 2.028 . S
O86 C88 1.248 . S
Mg87 O86 2.028 . S
Mg87 O92 2.032 . S
Mg87 O94 2.079 . S
C88 O85 1.250 . S
C88 O86 1.248 . S
C89 O90 1.264 . S
C89 O97 1.249 . S
O90 C89 1.264 . S
O91 Mg84 1.986 . S
O91 C95 1.246 . S
O92 Mg87 2.032 . S
O92 C95 1.259 . S
O93 Mg84 2.114 . S
O93 C96 1.252 . S
O94 Mg84 2.251 . S
O94 Mg87 2.079 . S
O94 C96 1.273 . S
C95 O91 1.246 . S
C95 O92 1.259 . S
C96 O93 1.252 . S
C96 O94 1.273 . S
O97 Mg84 2.010 . S
O97 C89 1.249 . S
Mg98 O99 2.028 . S
Mg98 O105 1.986 . S
Mg98 O107 2.114 1_455 S
Mg98 O108 2.251 1_455 S
Mg98 O111 2.010 1_545 S
O99 Mg98 2.028 . S
O99 C102 1.250 . S
O100 Mg101 2.028 1_455 S
O100 C102 1.248 . S
Mg101 O100 2.028 1_655 S
Mg101 O106 2.032 1_655 S
Mg101 O108 2.079 . S
C102 O99 1.250 . S
C102 O100 1.248 . S
C103 O104 1.264 . S
C103 O111 1.249 . S
O104 C103 1.264 . S
O105 Mg98 1.986 . S
O105 C109 1.246 . S
O106 Mg101 2.032 1_455 S
O106 C109 1.259 . S
O107 Mg98 2.114 1_655 S
O107 C110 1.252 . S
O108 Mg98 2.251 1_655 S
O108 Mg101 2.079 . S
O108 C110 1.273 . S
C109 O105 1.246 . S
C109 O106 1.259 . S
C110 O107 1.252 . S
C110 O108 1.273 . S
O111 Mg98 2.010 1_565 S
O111 C103 1.249 . S
Mg112 O113 2.028 . S
Mg112 O119 1.986 . S
Mg112 O121 2.114 . S
Mg112 O122 2.251 . S
Mg112 O125 2.010 . S
O113 Mg112 2.028 . S
O113 C116 1.250 . S
O114 Mg115 2.028 . S
O114 C116 1.248 . S
Mg115 O114 2.028 . S
Mg115 O120 2.032 . S
Mg115 O122 2.079 . S
C116 O113 1.250 . S
C116 O114 1.248 . S
C117 O118 1.264 . S
C117 O125 1.249 . S
O118 C117 1.264 . S
O119 Mg112 1.986 . S
O119 C123 1.246 . S
O120 Mg115 2.032 . S
O120 C123 1.259 . S
O121 Mg112 2.114 . S
O121 C124 1.252 . S
O122 Mg112 2.251 . S
O122 Mg115 2.079 . S
O122 C124 1.273 . S
C123 O119 1.246 . S
C123 O120 1.259 . S
C124 O121 1.252 . S
C124 O122 1.273 . S
O125 Mg112 2.010 . S
O125 C117 1.249 . S
Mg126 O127 2.028 . S
Mg126 O133 1.986 . S
Mg126 O135 2.114 1_655 S
Mg126 O136 2.251 1_655 S
Mg126 O139 2.010 1_545 S
O127 Mg126 2.028 . S
O127 C130 1.250 . S
O128 Mg129 2.028 1_655 S
O128 C130 1.248 . S
Mg129 O128 2.028 1_455 S
Mg129 O134 2.032 1_455 S
Mg129 O136 2.079 . S
C130 O127 1.250 . S
C130 O128 1.248 . S
C131 O132 1.264 . S
C131 O139 1.249 . S
O132 C131 1.264 . S
O133 Mg126 1.986 . S
O133 C137 1.246 . S
O134 Mg129 2.032 1_655 S
O134 C137 1.259 . S
O135 Mg126 2.114 1_455 S
O135 C138 1.252 . S
O136 Mg126 2.251 1_455 S
O136 Mg129 2.079 . S
O136 C138 1.273 . S
C137 O133 1.246 . S
C137 O134 1.259 . S
C138 O135 1.252 . S
C138 O136 1.273 . S
O139 Mg126 2.010 1_565 S
O139 C131 1.249 . S
Mg140 O141 2.028 . S
Mg140 O147 1.986 . S
Mg140 O149 2.114 . S
Mg140 O150 2.251 . S
Mg140 O153 2.010 . S
O141 Mg140 2.028 . S
O141 C144 1.250 . S
O142 Mg143 2.028 . S
O142 C144 1.248 . S
Mg143 O142 2.028 . S
Mg143 O148 2.032 . S
Mg143 O150 2.079 . S
C144 O141 1.250 . S
C144 O142 1.248 . S
C145 O146 1.264 . S
C145 O153 1.249 . S
O146 C145 1.264 . S
O147 Mg140 1.986 . S
O147 C151 1.246 . S
O148 Mg143 2.032 . S
O148 C151 1.259 . S
O149 Mg140 2.114 . S
O149 C152 1.252 . S
O150 Mg140 2.251 . S
O150 Mg143 2.079 . S
O150 C152 1.273 . S
C151 O147 1.246 . S
C151 O148 1.259 . S
C152 O149 1.252 . S
C152 O150 1.273 . S
O153 Mg140 2.010 . S
O153 C145 1.249 . S
Mg154 O155 2.028 . S
Mg154 O161 1.986 . S
Mg154 O163 2.114 . S
Mg154 O164 2.251 . S
Mg154 O167 2.010 1_565 S
O155 Mg154 2.028 . S
O155 C158 1.250 . S
O156 Mg157 2.028 . S
O156 C158 1.248 . S
Mg157 O156 2.028 . S
Mg157 O162 2.032 . S
Mg157 O164 2.079 . S
C158 O155 1.250 . S
C158 O156 1.248 . S
C159 O160 1.264 . S
C159 O167 1.249 . S
O160 C159 1.264 . S
O161 Mg154 1.986 . S
O161 C165 1.246 . S
O162 Mg157 2.032 . S
O162 C165 1.259 . S
O163 Mg154 2.114 . S
O163 C166 1.252 . S
O164 Mg154 2.251 . S
O164 Mg157 2.079 . S
O164 C166 1.273 . S
C165 O161 1.246 . S
C165 O162 1.259 . S
C166 O163 1.252 . S
C166 O164 1.273 . S
O167 Mg154 2.010 1_545 S
O167 C159 1.249 . S
Mg168 O169 2.028 . S
Mg168 O175 1.986 . S
Mg168 O177 2.114 . S
Mg168 O178 2.251 . S
Mg168 O181 2.010 . S
O169 Mg168 2.028 . S
O169 C172 1.250 . S
O170 Mg171 2.028 . S
O170 C172 1.248 . S
Mg171 O170 2.028 . S
Mg171 O176 2.032 . S
Mg171 O178 2.079 . S
C172 O169 1.250 . S
C172 O170 1.248 . S
C173 O174 1.264 . S
C173 O181 1.249 . S
O174 C173 1.264 . S
O175 Mg168 1.986 . S
O175 C179 1.246 . S
O176 Mg171 2.032 . S
O176 C179 1.259 . S
O177 Mg168 2.114 . S
O177 C180 1.252 . S
O178 Mg168 2.251 . S
O178 Mg171 2.079 . S
O178 C180 1.273 . S
C179 O175 1.246 . S
C179 O176 1.259 . S
C180 O177 1.252 . S
C180 O178 1.273 . S
O181 Mg168 2.010 . S
O181 C173 1.249 . S
Mg182 O183 2.028 . S
Mg182 O189 1.986 . S
Mg182 O191 2.114 . S
Mg182 O192 2.251 . S
Mg182 O195 2.010 1_545 S
O183 Mg182 2.028 . S
O183 C186 1.250 . S
O184 Mg185 2.028 . S
O184 C186 1.248 . S
Mg185 O184 2.028 . S
Mg185 O190 2.032 . S
Mg185 O192 2.079 . S
C186 O183 1.250 . S
C186 O184 1.248 . S
C187 O188 1.264 . S
C187 O195 1.249 . S
O188 C187 1.264 . S
O189 Mg182 1.986 . S
O189 C193 1.246 . S
O190 Mg185 2.032 . S
O190 C193 1.259 . S
O191 Mg182 2.114 . S
O191 C194 1.252 . S
O192 Mg182 2.251 . S
O192 Mg185 2.079 . S
O192 C194 1.273 . S
C193 O189 1.246 . S
C193 O190 1.259 . S
C194 O191 1.252 . S
C194 O192 1.273 . S
O195 Mg182 2.010 1_565 S
O195 C187 1.249 . S
Mg196 O197 2.028 . S
Mg196 O203 1.986 . S
Mg196 O205 2.114 . S
Mg196 O206 2.251 . S
Mg196 O209 2.010 . S
O197 Mg196 2.028 . S
O197 C200 1.250 . S
O198 Mg199 2.028 . S
O198 C200 1.248 . S
Mg199 O198 2.028 . S
Mg199 O204 2.032 . S
Mg199 O206 2.079 . S
C200 O197 1.250 . S
C200 O198 1.248 . S
C201 O202 1.264 . S
C201 O209 1.249 . S
O202 C201 1.264 . S
O203 Mg196 1.986 . S
O203 C207 1.246 . S
O204 Mg199 2.032 . S
O204 C207 1.259 . S
O205 Mg196 2.114 . S
O205 C208 1.252 . S
O206 Mg196 2.251 . S
O206 Mg199 2.079 . S
O206 C208 1.273 . S
C207 O203 1.246 . S
C207 O204 1.259 . S
C208 O205 1.252 . S
C208 O206 1.273 . S
O209 Mg196 2.010 . S
O209 C201 1.249 . S
Mg210 O211 2.028 . S
Mg210 O217 1.986 . S
Mg210 O219 2.114 1_655 S
Mg210 O220 2.251 1_655 S
Mg210 O223 2.010 1_565 S
O211 Mg210 2.028 . S
O211 C214 1.250 . S
O212 Mg213 2.028 1_655 S
O212 C214 1.248 . S
Mg213 O212 2.028 1_455 S
Mg213 O218 2.032 1_455 S
Mg213 O220 2.079 . S
C214 O211 1.250 . S
C214 O212 1.248 . S
C215 O216 1.264 . S
C215 O223 1.249 . S
O216 C215 1.264 . S
O217 Mg210 1.986 . S
O217 C221 1.246 . S
O218 Mg213 2.032 1_655 S
O218 C221 1.259 . S
O219 Mg210 2.114 1_455 S
O219 C222 1.252 . S
O220 Mg210 2.251 1_455 S
O220 Mg213 2.079 . S
O220 C222 1.273 . S
C221 O217 1.246 . S
C221 O218 1.259 . S
C222 O219 1.252 . S
C222 O220 1.273 . S
O223 Mg210 2.010 1_545 S
O223 C215 1.249 . S
Mg224 O225 2.028 . S
Mg224 O231 1.986 . S
Mg224 O233 2.114 . S
Mg224 O234 2.251 . S
Mg224 O237 2.010 . S
O225 Mg224 2.028 . S
O225 C228 1.250 . S
O226 Mg227 2.028 . S
O226 C228 1.248 . S
Mg227 O226 2.028 . S
Mg227 O232 2.032 . S
Mg227 O234 2.079 . S
C228 O225 1.250 . S
C228 O226 1.248 . S
C229 O230 1.264 . S
C229 O237 1.249 . S
O230 C229 1.264 . S
O231 Mg224 1.986 . S
O231 C235 1.246 . S
O232 Mg227 2.032 . S
O232 C235 1.259 . S
O233 Mg224 2.114 . S
O233 C236 1.252 . S
O234 Mg224 2.251 . S
O234 Mg227 2.079 . S
O234 C236 1.273 . S
C235 O231 1.246 . S
C235 O232 1.259 . S
C236 O233 1.252 . S
C236 O234 1.273 . S
O237 Mg224 2.010 . S
O237 C229 1.249 . S
Mg238 O239 2.028 . S
Mg238 O245 1.986 . S
Mg238 O247 2.114 . S
Mg238 O248 2.251 . S
Mg238 O251 2.010 . S
O239 Mg238 2.028 . S
O239 C242 1.250 . S
O240 Mg241 2.028 . S
O240 C242 1.248 . S
Mg241 O240 2.028 . S
Mg241 O246 2.032 . S
Mg241 O248 2.079 . S
C242 O239 1.250 . S
C242 O240 1.248 . S
C243 O244 1.264 . S
C243 O251 1.249 . S
O244 C243 1.264 . S
O245 Mg238 1.986 . S
O245 C249 1.246 . S
O246 Mg241 2.032 . S
O246 C249 1.259 . S
O247 Mg238 2.114 . S
O247 C250 1.252 . S
O248 Mg238 2.251 . S
O248 Mg241 2.079 . S
O248 C250 1.273 . S
C249 O245 1.246 . S
C249 O246 1.259 . S
C250 O247 1.252 . S
C250 O248 1.273 . S
O251 Mg238 2.010 . S
O251 C243 1.249 . S
Mg252 O253 2.028 . S
Mg252 O259 1.986 . S
Mg252 O261 2.114 . S
Mg252 O262 2.251 . S
Mg252 O265 2.010 . S
O253 Mg252 2.028 . S
O253 C256 1.250 . S
O254 Mg255 2.028 . S
O254 C256 1.248 . S
Mg255 O254 2.028 . S
Mg255 O260 2.032 . S
Mg255 O262 2.079 . S
C256 O253 1.250 . S
C256 O254 1.248 . S
C257 O258 1.264 . S
C257 O265 1.249 . S
O258 C257 1.264 . S
O259 Mg252 1.986 . S
O259 C263 1.246 . S
O260 Mg255 2.032 . S
O260 C263 1.259 . S
O261 Mg252 2.114 . S
O261 C264 1.252 . S
O262 Mg252 2.251 . S
O262 Mg255 2.079 . S
O262 C264 1.273 . S
C263 O259 1.246 . S
C263 O260 1.259 . S
C264 O261 1.252 . S
C264 O262 1.273 . S
O265 Mg252 2.010 . S
O265 C257 1.249 . S
Mg266 O267 2.028 . S
Mg266 O273 1.986 . S
Mg266 O275 2.114 1_655 S
Mg266 O276 2.251 1_655 S
Mg266 O279 2.010 . S
O267 Mg266 2.028 . S
O267 C270 1.250 . S
O268 Mg269 2.028 1_655 S
O268 C270 1.248 . S
Mg269 O268 2.028 1_455 S
Mg269 O274 2.032 1_455 S
Mg269 O276 2.079 . S
C270 O267 1.250 . S
C270 O268 1.248 . S
C271 O272 1.264 . S
C271 O279 1.249 . S
O272 C271 1.264 . S
O273 Mg266 1.986 . S
O273 C277 1.246 . S
O274 Mg269 2.032 1_655 S
O274 C277 1.259 . S
O275 Mg266 2.114 1_455 S
O275 C278 1.252 . S
O276 Mg266 2.251 1_455 S
O276 Mg269 2.079 . S
O276 C278 1.273 . S
C277 O273 1.246 . S
C277 O274 1.259 . S
C278 O275 1.252 . S
C278 O276 1.273 . S
O279 Mg266 2.010 . S
O279 C271 1.249 . S
Mg280 O281 2.028 . S
Mg280 O287 1.986 . S
Mg280 O289 2.114 . S
Mg280 O290 2.251 . S
Mg280 O293 2.010 . S
O281 Mg280 2.028 . S
O281 C284 1.250 . S
O282 Mg283 2.028 . S
O282 C284 1.248 . S
Mg283 O282 2.028 . S
Mg283 O288 2.032 . S
Mg283 O290 2.079 . S
C284 O281 1.250 . S
C284 O282 1.248 . S
C285 O286 1.264 . S
C285 O293 1.249 . S
O286 C285 1.264 . S
O287 Mg280 1.986 . S
O287 C291 1.246 . S
O288 Mg283 2.032 . S
O288 C291 1.259 . S
O289 Mg280 2.114 . S
O289 C292 1.252 . S
O290 Mg280 2.251 . S
O290 Mg283 2.079 . S
O290 C292 1.273 . S
C291 O287 1.246 . S
C291 O288 1.259 . S
C292 O289 1.252 . S
C292 O290 1.273 . S
O293 Mg280 2.010 . S
O293 C285 1.249 . S
Mg294 O295 2.028 . S
Mg294 O301 1.986 . S
Mg294 O303 2.114 1_655 S
Mg294 O304 2.251 1_655 S
Mg294 O307 2.010 . S
O295 Mg294 2.028 . S
O295 C298 1.250 . S
O296 Mg297 2.028 1_655 S
O296 C298 1.248 . S
Mg297 O296 2.028 1_455 S
Mg297 O302 2.032 1_455 S
Mg297 O304 2.079 . S
C298 O295 1.250 . S
C298 O296 1.248 . S
C299 O300 1.264 . S
C299 O307 1.249 . S
O300 C299 1.264 . S
O301 Mg294 1.986 . S
O301 C305 1.246 . S
O302 Mg297 2.032 1_655 S
O302 C305 1.259 . S
O303 Mg294 2.114 1_455 S
O303 C306 1.252 . S
O304 Mg294 2.251 1_455 S
O304 Mg297 2.079 . S
O304 C306 1.273 . S
C305 O301 1.246 . S
C305 O302 1.259 . S
C306 O303 1.252 . S
C306 O304 1.273 . S
O307 Mg294 2.010 . S
O307 C299 1.249 . S
Mg308 O309 2.028 . S
Mg308 O315 1.986 . S
Mg308 O317 2.114 . S
Mg308 O318 2.251 . S
Mg308 O321 2.010 . S
O309 Mg308 2.028 . S
O309 C312 1.250 . S
O310 Mg311 2.028 . S
O310 C312 1.248 . S
Mg311 O310 2.028 . S
Mg311 O316 2.032 . S
Mg311 O318 2.079 . S
C312 O309 1.250 . S
C312 O310 1.248 . S
C313 O314 1.264 . S
C313 O321 1.249 . S
O314 C313 1.264 . S
O315 Mg308 1.986 . S
O315 C319 1.246 . S
O316 Mg311 2.032 . S
O316 C319 1.259 . S
O317 Mg308 2.114 . S
O317 C320 1.252 . S
O318 Mg308 2.251 . S
O318 Mg311 2.079 . S
O318 C320 1.273 . S
C319 O315 1.246 . S
C319 O316 1.259 . S
C320 O317 1.252 . S
C320 O318 1.273 . S
O321 Mg308 2.010 . S
O321 C313 1.249 . S
Mg322 O323 2.028 . S
Mg322 O329 1.986 . S
Mg322 O331 2.114 . S
Mg322 O332 2.251 . S
Mg322 O335 2.010 . S
O323 Mg322 2.028 . S
O323 C326 1.250 . S
O324 Mg325 2.028 . S
O324 C326 1.248 . S
Mg325 O324 2.028 . S
Mg325 O330 2.032 . S
Mg325 O332 2.079 . S
C326 O323 1.250 . S
C326 O324 1.248 . S
C327 O328 1.264 . S
C327 O335 1.249 . S
O328 C327 1.264 . S
O329 Mg322 1.986 . S
O329 C333 1.246 . S
O330 Mg325 2.032 . S
O330 C333 1.259 . S
O331 Mg322 2.114 . S
O331 C334 1.252 . S
O332 Mg322 2.251 . S
O332 Mg325 2.079 . S
O332 C334 1.273 . S
C333 O329 1.246 . S
C333 O330 1.259 . S
C334 O331 1.252 . S
C334 O332 1.273 . S
O335 Mg322 2.010 . S
O335 C327 1.249 . S
Mg336 O337 2.028 . S
Mg336 O343 1.986 . S
Mg336 O345 2.114 . S
Mg336 O346 2.251 . S
Mg336 O349 2.010 . S
O337 Mg336 2.028 . S
O337 C340 1.250 . S
O338 Mg339 2.028 . S
O338 C340 1.248 . S
Mg339 O338 2.028 . S
Mg339 O344 2.032 . S
Mg339 O346 2.079 . S
C340 O337 1.250 . S
C340 O338 1.248 . S
C341 O342 1.264 . S
C341 O349 1.249 . S
O342 C341 1.264 . S
O343 Mg336 1.986 . S
O343 C347 1.246 . S
O344 Mg339 2.032 . S
O344 C347 1.259 . S
O345 Mg336 2.114 . S
O345 C348 1.252 . S
O346 Mg336 2.251 . S
O346 Mg339 2.079 . S
O346 C348 1.273 . S
C347 O343 1.246 . S
C347 O344 1.259 . S
C348 O345 1.252 . S
C348 O346 1.273 . S
O349 Mg336 2.010 . S
O349 C341 1.249 . S
Mg350 O351 2.028 . S
Mg350 O357 1.986 . S
Mg350 O359 2.114 . S
Mg350 O360 2.251 . S
Mg350 O363 2.010 . S
O351 Mg350 2.028 . S
O351 C354 1.250 . S
O352 Mg353 2.028 . S
O352 C354 1.248 . S
Mg353 O352 2.028 . S
Mg353 O358 2.032 . S
Mg353 O360 2.079 . S
C354 O351 1.250 . S
C354 O352 1.248 . S
C355 O356 1.264 . S
C355 O363 1.249 . S
O356 C355 1.264 . S
O357 Mg350 1.986 . S
O357 C361 1.246 . S
O358 Mg353 2.032 . S
O358 C361 1.259 . S
O359 Mg350 2.114 . S
O359 C362 1.252 . S
O360 Mg350 2.251 . S
O360 Mg353 2.079 . S
O360 C362 1.273 . S
C361 O357 1.246 . S
C361 O358 1.259 . S
C362 O359 1.252 . S
C362 O360 1.273 . S
O363 Mg350 2.010 . S
O363 C355 1.249 . S
Mg364 O365 2.028 . S
Mg364 O371 1.986 . S
Mg364 O373 2.114 . S
Mg364 O374 2.251 . S
Mg364 O377 2.010 . S
O365 Mg364 2.028 . S
O365 C368 1.250 . S
O366 Mg367 2.028 . S
O366 C368 1.248 . S
Mg367 O366 2.028 . S
Mg367 O372 2.032 . S
Mg367 O374 2.079 . S
C368 O365 1.250 . S
C368 O366 1.248 . S
C369 O370 1.264 . S
C369 O377 1.249 . S
O370 C369 1.264 . S
O371 Mg364 1.986 . S
O371 C375 1.246 . S
O372 Mg367 2.032 . S
O372 C375 1.259 . S
O373 Mg364 2.114 . S
O373 C376 1.252 . S
O374 Mg364 2.251 . S
O374 Mg367 2.079 . S
O374 C376 1.273 . S
C375 O371 1.246 . S
C375 O372 1.259 . S
C376 O373 1.252 . S
C376 O374 1.273 . S
O377 Mg364 2.010 . S
O377 C369 1.249 . S
Mg378 O379 2.028 . S
Mg378 O385 1.986 . S
Mg378 O387 2.114 1_455 S
Mg378 O388 2.251 1_455 S
Mg378 O391 2.010 . S
O379 Mg378 2.028 . S
O379 C382 1.250 . S
O380 Mg381 2.028 1_455 S
O380 C382 1.248 . S
Mg381 O380 2.028 1_655 S
Mg381 O386 2.032 1_655 S
Mg381 O388 2.079 . S
C382 O379 1.250 . S
C382 O380 1.248 . S
C383 O384 1.264 . S
C383 O391 1.249 . S
O384 C383 1.264 . S
O385 Mg378 1.986 . S
O385 C389 1.246 . S
O386 Mg381 2.032 1_455 S
O386 C389 1.259 . S
O387 Mg378 2.114 1_655 S
O387 C390 1.252 . S
O388 Mg378 2.251 1_655 S
O388 Mg381 2.079 . S
O388 C390 1.273 . S
C389 O385 1.246 . S
C389 O386 1.259 . S
C390 O387 1.252 . S
C390 O388 1.273 . S
O391 Mg378 2.010 . S
O391 C383 1.249 . S
Mg392 O393 2.028 . S
Mg392 O399 1.986 . S
Mg392 O401 2.114 . S
Mg392 O402 2.251 . S
Mg392 O405 2.010 . S
O393 Mg392 2.028 . S
O393 C396 1.250 . S
O394 Mg395 2.028 . S
O394 C396 1.248 . S
Mg395 O394 2.028 . S
Mg395 O400 2.032 . S
Mg395 O402 2.079 . S
C396 O393 1.250 . S
C396 O394 1.248 . S
C397 O398 1.264 . S
C397 O405 1.249 . S
O398 C397 1.264 . S
O399 Mg392 1.986 . S
O399 C403 1.246 . S
O400 Mg395 2.032 . S
O400 C403 1.259 . S
O401 Mg392 2.114 . S
O401 C404 1.252 . S
O402 Mg392 2.251 . S
O402 Mg395 2.079 . S
O402 C404 1.273 . S
C403 O399 1.246 . S
C403 O400 1.259 . S
C404 O401 1.252 . S
C404 O402 1.273 . S
O405 Mg392 2.010 . S
O405 C397 1.249 . S
Mg406 O407 2.028 . S
Mg406 O413 1.986 . S
Mg406 O415 2.114 1_455 S
Mg406 O416 2.251 1_455 S
Mg406 O419 2.010 . S
O407 Mg406 2.028 . S
O407 C410 1.250 . S
O408 Mg409 2.028 1_455 S
O408 C410 1.248 . S
Mg409 O408 2.028 1_655 S
Mg409 O414 2.032 1_655 S
Mg409 O416 2.079 . S
C410 O407 1.250 . S
C410 O408 1.248 . S
C411 O412 1.264 . S
C411 O419 1.249 . S
O412 C411 1.264 . S
O413 Mg406 1.986 . S
O413 C417 1.246 . S
O414 Mg409 2.032 1_455 S
O414 C417 1.259 . S
O415 Mg406 2.114 1_655 S
O415 C418 1.252 . S
O416 Mg406 2.251 1_655 S
O416 Mg409 2.079 . S
O416 C418 1.273 . S
C417 O413 1.246 . S
C417 O414 1.259 . S
C418 O415 1.252 . S
C418 O416 1.273 . S
O419 Mg406 2.010 . S
O419 C411 1.249 . S
Mg420 O421 2.028 . S
Mg420 O427 1.986 . S
Mg420 O429 2.114 . S
Mg420 O430 2.251 . S
Mg420 O433 2.010 . S
O421 Mg420 2.028 . S
O421 C424 1.250 . S
O422 Mg423 2.028 . S
O422 C424 1.248 . S
Mg423 O422 2.028 . S
Mg423 O428 2.032 . S
Mg423 O430 2.079 . S
C424 O421 1.250 . S
C424 O422 1.248 . S
C425 O426 1.264 . S
C425 O433 1.249 . S
O426 C425 1.264 . S
O427 Mg420 1.986 . S
O427 C431 1.246 . S
O428 Mg423 2.032 . S
O428 C431 1.259 . S
O429 Mg420 2.114 . S
O429 C432 1.252 . S
O430 Mg420 2.251 . S
O430 Mg423 2.079 . S
O430 C432 1.273 . S
C431 O427 1.246 . S
C431 O428 1.259 . S
C432 O429 1.252 . S
C432 O430 1.273 . S
O433 Mg420 2.010 . S
O433 C425 1.249 . S
Mg434 O435 2.028 . S
Mg434 O441 1.986 . S
Mg434 O443 2.114 . S
Mg434 O444 2.251 . S
Mg434 O447 2.010 . S
O435 Mg434 2.028 . S
O435 C438 1.250 . S
O436 Mg437 2.028 . S
O436 C438 1.248 . S
Mg437 O436 2.028 . S
Mg437 O442 2.032 . S
Mg437 O444 2.079 . S
C438 O435 1.250 . S
C438 O436 1.248 . S
C439 O440 1.264 . S
C439 O447 1.249 . S
O440 C439 1.264 . S
O441 Mg434 1.986 . S
O441 C445 1.246 . S
O442 Mg437 2.032 . S
O442 C445 1.259 . S
O443 Mg434 2.114 . S
O443 C446 1.252 . S
O444 Mg434 2.251 . S
O444 Mg437 2.079 . S
O444 C446 1.273 . S
C445 O441 1.246 . S
C445 O442 1.259 . S
C446 O443 1.252 . S
C446 O444 1.273 . S
O447 Mg434 2.010 . S
O447 C439 1.249 . S
H448 C454 0.930 . S
H449 C457 0.930 . S
H450 C458 0.930 . S
H451 C459 0.930 . S
H452 C462 0.930 . S
H453 C463 0.930 . S
C454 H448 0.930 . S
C454 C455 1.355 . S
C454 C456 1.415 . S
C455 C454 1.355 . S
C455 C457 1.419 . S
C456 C454 1.415 . S
C456 C461 1.425 . S
C456 C463 1.409 . S
C457 H449 0.930 . S
C457 C455 1.419 . S
C457 C458 1.362 . S
C458 H450 0.930 . S
C458 C457 1.362 . S
C458 C461 1.409 . S
C459 H451 0.930 . S
C459 C460 1.355 . S
C459 C461 1.415 . S
C460 C459 1.355 . S
C460 C462 1.419 . S
C461 C456 1.425 . S
C461 C458 1.409 . S
C461 C459 1.415 . S
C462 H452 0.930 . S
C462 C460 1.419 . S
C462 C463 1.362 . S
C463 H453 0.930 . S
C463 C456 1.409 . S
C463 C462 1.362 . S
H464 C470 0.930 . S
H465 C473 0.930 . S
H466 C474 0.930 . S
H467 C475 0.930 . S
H468 C478 0.930 . S
H469 C479 0.930 . S
C470 H464 0.930 . S
C470 C471 1.355 . S
C470 C472 1.415 . S
C471 C470 1.355 . S
C471 C473 1.419 . S
C472 C470 1.415 . S
C472 C477 1.425 . S
C472 C479 1.409 . S
C473 H465 0.930 . S
C473 C471 1.419 . S
C473 C474 1.362 . S
C474 H466 0.930 . S
C474 C473 1.362 . S
C474 C477 1.409 . S
C475 H467 0.930 . S
C475 C476 1.355 . S
C475 C477 1.415 . S
C476 C475 1.355 . S
C476 C478 1.419 . S
C477 C472 1.425 . S
C477 C474 1.409 . S
C477 C475 1.415 . S
C478 H468 0.930 . S
C478 C476 1.419 . S
C478 C479 1.362 . S
C479 H469 0.930 . S
C479 C472 1.409 . S
C479 C478 1.362 . S
H480 C486 0.930 . S
H481 C489 0.930 . S
H482 C490 0.930 . S
H483 C491 0.930 . S
H484 C494 0.930 . S
H485 C495 0.930 . S
C486 H480 0.930 . S
C486 C487 1.355 . S
C486 C488 1.415 . S
C487 C486 1.355 . S
C487 C489 1.419 . S
C488 C486 1.415 . S
C488 C493 1.425 . S
C488 C495 1.409 . S
C489 H481 0.930 . S
C489 C487 1.419 . S
C489 C490 1.362 . S
C490 H482 0.930 . S
C490 C489 1.362 . S
C490 C493 1.409 . S
C491 H483 0.930 . S
C491 C492 1.355 . S
C491 C493 1.415 . S
C492 C491 1.355 . S
C492 C494 1.419 . S
C493 C488 1.425 . S
C493 C490 1.409 . S
C493 C491 1.415 . S
C494 H484 0.930 . S
C494 C492 1.419 . S
C494 C495 1.362 . S
C495 H485 0.930 . S
C495 C488 1.409 . S
C495 C494 1.362 . S
H496 C502 0.930 . S
H497 C505 0.930 . S
H498 C506 0.930 . S
H499 C507 0.930 . S
H500 C510 0.930 . S
H501 C511 0.930 . S
C502 H496 0.930 . S
C502 C503 1.355 . S
C502 C504 1.415 . S
C503 C502 1.355 . S
C503 C505 1.419 . S
C504 C502 1.415 . S
C504 C509 1.425 . S
C504 C511 1.409 . S
C505 H497 0.930 . S
C505 C503 1.419 . S
C505 C506 1.362 . S
C506 H498 0.930 . S
C506 C505 1.362 . S
C506 C509 1.409 . S
C507 H499 0.930 . S
C507 C508 1.355 . S
C507 C509 1.415 . S
C508 C507 1.355 . S
C508 C510 1.419 . S
C509 C504 1.425 . S
C509 C506 1.409 . S
C509 C507 1.415 . S
C510 H500 0.930 . S
C510 C508 1.419 . S
C510 C511 1.362 . S
C511 H501 0.930 . S
C511 C504 1.409 . S
C511 C510 1.362 . S
H512 C518 0.930 . S
H513 C521 0.930 . S
H514 C522 0.930 . S
H515 C523 0.930 . S
H516 C526 0.930 . S
H517 C527 0.930 . S
C518 H512 0.930 . S
C518 C519 1.355 . S
C518 C520 1.415 . S
C519 C518 1.355 . S
C519 C521 1.419 . S
C520 C518 1.415 . S
C520 C525 1.425 . S
C520 C527 1.409 . S
C521 H513 0.930 . S
C521 C519 1.419 . S
C521 C522 1.362 . S
C522 H514 0.930 . S
C522 C521 1.362 . S
C522 C525 1.409 . S
C523 H515 0.930 . S
C523 C524 1.355 . S
C523 C525 1.415 . S
C524 C523 1.355 . S
C524 C526 1.419 . S
C525 C520 1.425 . S
C525 C522 1.409 . S
C525 C523 1.415 . S
C526 H516 0.930 . S
C526 C524 1.419 . S
C526 C527 1.362 . S
C527 H517 0.930 . S
C527 C520 1.409 . S
C527 C526 1.362 . S
H528 C534 0.930 . S
H529 C537 0.930 . S
H530 C538 0.930 . S
H531 C539 0.930 . S
H532 C542 0.930 . S
H533 C543 0.930 . S
C534 H528 0.930 . S
C534 C535 1.355 . S
C534 C536 1.415 . S
C535 C534 1.355 . S
C535 C537 1.419 . S
C536 C534 1.415 . S
C536 C541 1.425 . S
C536 C543 1.409 . S
C537 H529 0.930 . S
C537 C535 1.419 . S
C537 C538 1.362 . S
C538 H530 0.930 . S
C538 C537 1.362 . S
C538 C541 1.409 . S
C539 H531 0.930 . S
C539 C540 1.355 . S
C539 C541 1.415 . S
C540 C539 1.355 . S
C540 C542 1.419 . S
C541 C536 1.425 . S
C541 C538 1.409 . S
C541 C539 1.415 . S
C542 H532 0.930 . S
C542 C540 1.419 . S
C542 C543 1.362 . S
C543 H533 0.930 . S
C543 C536 1.409 . S
C543 C542 1.362 . S
H544 C550 0.930 . S
H545 C553 0.930 . S
H546 C554 0.930 . S
H547 C555 0.930 . S
H548 C558 0.930 . S
H549 C559 0.930 . S
C550 H544 0.930 . S
C550 C551 1.355 . S
C550 C552 1.415 . S
C551 C550 1.355 . S
C551 C553 1.419 . S
C552 C550 1.415 . S
C552 C557 1.425 . S
C552 C559 1.409 . S
C553 H545 0.930 . S
C553 C551 1.419 . S
C553 C554 1.362 . S
C554 H546 0.930 . S
C554 C553 1.362 . S
C554 C557 1.409 . S
C555 H547 0.930 . S
C555 C556 1.355 . S
C555 C557 1.415 . S
C556 C555 1.355 . S
C556 C558 1.419 . S
C557 C552 1.425 . S
C557 C554 1.409 . S
C557 C555 1.415 . S
C558 H548 0.930 . S
C558 C556 1.419 . S
C558 C559 1.362 . S
C559 H549 0.930 . S
C559 C552 1.409 . S
C559 C558 1.362 . S
H560 C566 0.930 . S
H561 C569 0.930 . S
H562 C570 0.930 . S
H563 C571 0.930 . S
H564 C574 0.930 . S
H565 C575 0.930 . S
C566 H560 0.930 . S
C566 C567 1.355 . S
C566 C568 1.415 . S
C567 C566 1.355 . S
C567 C569 1.419 . S
C568 C566 1.415 . S
C568 C573 1.425 . S
C568 C575 1.409 . S
C569 H561 0.930 . S
C569 C567 1.419 . S
C569 C570 1.362 . S
C570 H562 0.930 . S
C570 C569 1.362 . S
C570 C573 1.409 . S
C571 H563 0.930 . S
C571 C572 1.355 . S
C571 C573 1.415 . S
C572 C571 1.355 . S
C572 C574 1.419 . S
C573 C568 1.425 . S
C573 C570 1.409 . S
C573 C571 1.415 . S
C574 H564 0.930 . S
C574 C572 1.419 . S
C574 C575 1.362 . S
C575 H565 0.930 . S
C575 C568 1.409 . S
C575 C574 1.362 . S
H576 C582 0.930 . S
H577 C585 0.930 . S
H578 C586 0.930 . S
H579 C587 0.930 . S
H580 C590 0.930 . S
H581 C591 0.930 . S
C582 H576 0.930 . S
C582 C583 1.355 . S
C582 C584 1.415 . S
C583 C582 1.355 . S
C583 C585 1.419 . S
C584 C582 1.415 . S
C584 C589 1.425 . S
C584 C591 1.409 . S
C585 H577 0.930 . S
C585 C583 1.419 . S
C585 C586 1.362 . S
C586 H578 0.930 . S
C586 C585 1.362 . S
C586 C589 1.409 . S
C587 H579 0.930 . S
C587 C588 1.355 . S
C587 C589 1.415 . S
C588 C587 1.355 . S
C588 C590 1.419 . S
C589 C584 1.425 . S
C589 C586 1.409 . S
C589 C587 1.415 . S
C590 H580 0.930 . S
C590 C588 1.419 . S
C590 C591 1.362 . S
C591 H581 0.930 . S
C591 C584 1.409 . S
C591 C590 1.362 . S
H592 C598 0.930 . S
H593 C601 0.930 . S
H594 C602 0.930 . S
H595 C603 0.930 . S
H596 C606 0.930 . S
H597 C607 0.930 . S
C598 H592 0.930 . S
C598 C599 1.355 . S
C598 C600 1.415 . S
C599 C598 1.355 . S
C599 C601 1.419 . S
C600 C598 1.415 . S
C600 C605 1.425 . S
C600 C607 1.409 . S
C601 H593 0.930 . S
C601 C599 1.419 . S
C601 C602 1.362 . S
C602 H594 0.930 . S
C602 C601 1.362 . S
C602 C605 1.409 . S
C603 H595 0.930 . S
C603 C604 1.355 . S
C603 C605 1.415 . S
C604 C603 1.355 . S
C604 C606 1.419 . S
C605 C600 1.425 . S
C605 C602 1.409 . S
C605 C603 1.415 . S
C606 H596 0.930 . S
C606 C604 1.419 . S
C606 C607 1.362 . S
C607 H597 0.930 . S
C607 C600 1.409 . S
C607 C606 1.362 . S
H608 C614 0.930 . S
H609 C617 0.930 . S
H610 C618 0.930 . S
H611 C619 0.930 . S
H612 C622 0.930 . S
H613 C623 0.930 . S
C614 H608 0.930 . S
C614 C615 1.355 . S
C614 C616 1.415 . S
C615 C614 1.355 . S
C615 C617 1.419 . S
C616 C614 1.415 . S
C616 C621 1.425 . S
C616 C623 1.409 . S
C617 H609 0.930 . S
C617 C615 1.419 . S
C617 C618 1.362 . S
C618 H610 0.930 . S
C618 C617 1.362 . S
C618 C621 1.409 . S
C619 H611 0.930 . S
C619 C620 1.355 . S
C619 C621 1.415 . S
C620 C619 1.355 . S
C620 C622 1.419 . S
C621 C616 1.425 . S
C621 C618 1.409 . S
C621 C619 1.415 . S
C622 H612 0.930 . S
C622 C620 1.419 . S
C622 C623 1.362 . S
C623 H613 0.930 . S
C623 C616 1.409 . S
C623 C622 1.362 . S
H624 C630 0.930 . S
H625 C633 0.930 . S
H626 C634 0.930 . S
H627 C635 0.930 . S
H628 C638 0.930 . S
H629 C639 0.930 . S
C630 H624 0.930 . S
C630 C631 1.355 . S
C630 C632 1.415 . S
C631 C630 1.355 . S
C631 C633 1.419 . S
C632 C630 1.415 . S
C632 C637 1.425 . S
C632 C639 1.409 . S
C633 H625 0.930 . S
C633 C631 1.419 . S
C633 C634 1.362 . S
C634 H626 0.930 . S
C634 C633 1.362 . S
C634 C637 1.409 . S
C635 H627 0.930 . S
C635 C636 1.355 . S
C635 C637 1.415 . S
C636 C635 1.355 . S
C636 C638 1.419 . S
C637 C632 1.425 . S
C637 C634 1.409 . S
C637 C635 1.415 . S
C638 H628 0.930 . S
C638 C636 1.419 . S
C638 C639 1.362 . S
C639 H629 0.930 . S
C639 C632 1.409 . S
C639 C638 1.362 . S
H640 C646 0.930 . S
H641 C649 0.930 . S
H642 C650 0.930 . S
H643 C651 0.930 . S
H644 C654 0.930 . S
H645 C655 0.930 . S
C646 H640 0.930 . S
C646 C647 1.355 . S
C646 C648 1.415 . S
C647 C646 1.355 . S
C647 C649 1.419 . S
C648 C646 1.415 . S
C648 C653 1.425 . S
C648 C655 1.409 . S
C649 H641 0.930 . S
C649 C647 1.419 . S
C649 C650 1.362 . S
C650 H642 0.930 . S
C650 C649 1.362 . S
C650 C653 1.409 . S
C651 H643 0.930 . S
C651 C652 1.355 . S
C651 C653 1.415 . S
C652 C651 1.355 . S
C652 C654 1.419 . S
C653 C648 1.425 . S
C653 C650 1.409 . S
C653 C651 1.415 . S
C654 H644 0.930 . S
C654 C652 1.419 . S
C654 C655 1.362 . S
C655 H645 0.930 . S
C655 C648 1.409 . S
C655 C654 1.362 . S
H656 C662 0.930 . S
H657 C665 0.930 . S
H658 C666 0.930 . S
H659 C667 0.930 . S
H660 C670 0.930 . S
H661 C671 0.930 . S
C662 H656 0.930 . S
C662 C663 1.355 . S
C662 C664 1.415 . S
C663 C662 1.355 . S
C663 C665 1.419 . S
C664 C662 1.415 . S
C664 C669 1.425 . S
C664 C671 1.409 . S
C665 H657 0.930 . S
C665 C663 1.419 . S
C665 C666 1.362 . S
C666 H658 0.930 . S
C666 C665 1.362 . S
C666 C669 1.409 . S
C667 H659 0.930 . S
C667 C668 1.355 . S
C667 C669 1.415 . S
C668 C667 1.355 . S
C668 C670 1.419 . S
C669 C664 1.425 . S
C669 C666 1.409 . S
C669 C667 1.415 . S
C670 H660 0.930 . S
C670 C668 1.419 . S
C670 C671 1.362 . S
C671 H661 0.930 . S
C671 C664 1.409 . S
C671 C670 1.362 . S
H672 C678 0.930 . S
H673 C681 0.930 . S
H674 C682 0.930 . S
H675 C683 0.930 . S
H676 C686 0.930 . S
H677 C687 0.930 . S
C678 H672 0.930 . S
C678 C679 1.355 . S
C678 C680 1.415 . S
C679 C678 1.355 . S
C679 C681 1.419 . S
C680 C678 1.415 . S
C680 C685 1.425 . S
C680 C687 1.409 . S
C681 H673 0.930 . S
C681 C679 1.419 . S
C681 C682 1.362 . S
C682 H674 0.930 . S
C682 C681 1.362 . S
C682 C685 1.409 . S
C683 H675 0.930 . S
C683 C684 1.355 . S
C683 C685 1.415 . S
C684 C683 1.355 . S
C684 C686 1.419 . S
C685 C680 1.425 . S
C685 C682 1.409 . S
C685 C683 1.415 . S
C686 H676 0.930 . S
C686 C684 1.419 . S
C686 C687 1.362 . S
C687 H677 0.930 . S
C687 C680 1.409 . S
C687 C686 1.362 . S
H688 C694 0.930 . S
H689 C697 0.930 . S
H690 C698 0.930 . S
H691 C699 0.930 . S
H692 C702 0.930 . S
H693 C703 0.930 . S
C694 H688 0.930 . S
C694 C695 1.355 . S
C694 C696 1.415 . S
C695 C694 1.355 . S
C695 C697 1.419 . S
C696 C694 1.415 . S
C696 C701 1.425 . S
C696 C703 1.409 . S
C697 H689 0.930 . S
C697 C695 1.419 . S
C697 C698 1.362 . S
C698 H690 0.930 . S
C698 C697 1.362 . S
C698 C701 1.409 . S
C699 H691 0.930 . S
C699 C700 1.355 . S
C699 C701 1.415 . S
C700 C699 1.355 . S
C700 C702 1.419 . S
C701 C696 1.425 . S
C701 C698 1.409 . S
C701 C699 1.415 . S
C702 H692 0.930 . S
C702 C700 1.419 . S
C702 C703 1.362 . S
C703 H693 0.930 . S
C703 C696 1.409 . S
C703 C702 1.362 . S
H704 C710 0.930 . S
H705 C713 0.930 . S
H706 C714 0.930 . S
H707 C715 0.930 . S
H708 C718 0.930 . S
H709 C719 0.930 . S
C710 H704 0.930 . S
C710 C711 1.355 . S
C710 C712 1.415 . S
C711 C710 1.355 . S
C711 C713 1.419 . S
C712 C710 1.415 . S
C712 C717 1.425 . S
C712 C719 1.409 . S
C713 H705 0.930 . S
C713 C711 1.419 . S
C713 C714 1.362 . S
C714 H706 0.930 . S
C714 C713 1.362 . S
C714 C717 1.409 . S
C715 H707 0.930 . S
C715 C716 1.355 . S
C715 C717 1.415 . S
C716 C715 1.355 . S
C716 C718 1.419 . S
C717 C712 1.425 . S
C717 C714 1.409 . S
C717 C715 1.415 . S
C718 H708 0.930 . S
C718 C716 1.419 . S
C718 C719 1.362 . S
C719 H709 0.930 . S
C719 C712 1.409 . S
C719 C718 1.362 . S
H720 C726 0.930 . S
H721 C729 0.930 . S
H722 C730 0.930 . S
H723 C731 0.930 . S
H724 C734 0.930 . S
H725 C735 0.930 . S
C726 H720 0.930 . S
C726 C727 1.355 . S
C726 C728 1.415 . S
C727 C726 1.355 . S
C727 C729 1.419 . S
C728 C726 1.415 . S
C728 C733 1.425 . S
C728 C735 1.409 . S
C729 H721 0.930 . S
C729 C727 1.419 . S
C729 C730 1.362 . S
C730 H722 0.930 . S
C730 C729 1.362 . S
C730 C733 1.409 . S
C731 H723 0.930 . S
C731 C732 1.355 . S
C731 C733 1.415 . S
C732 C731 1.355 . S
C732 C734 1.419 . S
C733 C728 1.425 . S
C733 C730 1.409 . S
C733 C731 1.415 . S
C734 H724 0.930 . S
C734 C732 1.419 . S
C734 C735 1.362 . S
C735 H725 0.930 . S
C735 C728 1.409 . S
C735 C734 1.362 . S
H736 C742 0.930 . S
H737 C745 0.930 . S
H738 C746 0.930 . S
H739 C747 0.930 . S
H740 C750 0.930 . S
H741 C751 0.930 . S
C742 H736 0.930 . S
C742 C743 1.355 . S
C742 C744 1.415 . S
C743 C742 1.355 . S
C743 C745 1.419 . S
C744 C742 1.415 . S
C744 C749 1.425 . S
C744 C751 1.409 . S
C745 H737 0.930 . S
C745 C743 1.419 . S
C745 C746 1.362 . S
C746 H738 0.930 . S
C746 C745 1.362 . S
C746 C749 1.409 . S
C747 H739 0.930 . S
C747 C748 1.355 . S
C747 C749 1.415 . S
C748 C747 1.355 . S
C748 C750 1.419 . S
C749 C744 1.425 . S
C749 C746 1.409 . S
C749 C747 1.415 . S
C750 H740 0.930 . S
C750 C748 1.419 . S
C750 C751 1.362 . S
C751 H741 0.930 . S
C751 C744 1.409 . S
C751 C750 1.362 . S
H752 C758 0.930 . S
H753 C761 0.930 . S
H754 C762 0.930 . S
H755 C763 0.930 . S
H756 C766 0.930 . S
H757 C767 0.930 . S
C758 H752 0.930 . S
C758 C759 1.355 . S
C758 C760 1.415 . S
C759 C758 1.355 . S
C759 C761 1.419 . S
C760 C758 1.415 . S
C760 C765 1.425 . S
C760 C767 1.409 . S
C761 H753 0.930 . S
C761 C759 1.419 . S
C761 C762 1.362 . S
C762 H754 0.930 . S
C762 C761 1.362 . S
C762 C765 1.409 . S
C763 H755 0.930 . S
C763 C764 1.355 . S
C763 C765 1.415 . S
C764 C763 1.355 . S
C764 C766 1.419 . S
C765 C760 1.425 . S
C765 C762 1.409 . S
C765 C763 1.415 . S
C766 H756 0.930 . S
C766 C764 1.419 . S
C766 C767 1.362 . S
C767 H757 0.930 . S
C767 C760 1.409 . S
C767 C766 1.362 . S
H768 C774 0.930 . S
H769 C777 0.930 . S
H770 C778 0.930 . S
H771 C779 0.930 . S
H772 C782 0.930 . S
H773 C783 0.930 . S
C774 H768 0.930 . S
C774 C775 1.355 . S
C774 C776 1.415 . S
C775 C774 1.355 . S
C775 C777 1.419 . S
C776 C774 1.415 . S
C776 C781 1.425 . S
C776 C783 1.409 . S
C777 H769 0.930 . S
C777 C775 1.419 . S
C777 C778 1.362 . S
C778 H770 0.930 . S
C778 C777 1.362 . S
C778 C781 1.409 . S
C779 H771 0.930 . S
C779 C780 1.355 . S
C779 C781 1.415 . S
C780 C779 1.355 . S
C780 C782 1.419 . S
C781 C776 1.425 . S
C781 C778 1.409 . S
C781 C779 1.415 . S
C782 H772 0.930 . S
C782 C780 1.419 . S
C782 C783 1.362 . S
C783 H773 0.930 . S
C783 C776 1.409 . S
C783 C782 1.362 . S
H784 C790 0.930 . S
H785 C793 0.930 . S
H786 C794 0.930 . S
H787 C795 0.930 . S
H788 C798 0.930 . S
H789 C799 0.930 . S
C790 H784 0.930 . S
C790 C791 1.355 . S
C790 C792 1.415 . S
C791 C790 1.355 . S
C791 C793 1.419 . S
C792 C790 1.415 . S
C792 C797 1.425 . S
C792 C799 1.409 . S
C793 H785 0.930 . S
C793 C791 1.419 . S
C793 C794 1.362 . S
C794 H786 0.930 . S
C794 C793 1.362 . S
C794 C797 1.409 . S
C795 H787 0.930 . S
C795 C796 1.355 . S
C795 C797 1.415 . S
C796 C795 1.355 . S
C796 C798 1.419 . S
C797 C792 1.425 . S
C797 C794 1.409 . S
C797 C795 1.415 . S
C798 H788 0.930 . S
C798 C796 1.419 . S
C798 C799 1.362 . S
C799 H789 0.930 . S
C799 C792 1.409 . S
C799 C798 1.362 . S
H800 C806 0.930 . S
H801 C809 0.930 . S
H802 C810 0.930 . S
H803 C811 0.930 . S
H804 C814 0.930 . S
H805 C815 0.930 . S
C806 H800 0.930 . S
C806 C807 1.355 . S
C806 C808 1.415 . S
C807 C806 1.355 . S
C807 C809 1.419 . S
C808 C806 1.415 . S
C808 C813 1.425 . S
C808 C815 1.409 . S
C809 H801 0.930 . S
C809 C807 1.419 . S
C809 C810 1.362 . S
C810 H802 0.930 . S
C810 C809 1.362 . S
C810 C813 1.409 . S
C811 H803 0.930 . S
C811 C812 1.355 . S
C811 C813 1.415 . S
C812 C811 1.355 . S
C812 C814 1.419 . S
C813 C808 1.425 . S
C813 C810 1.409 . S
C813 C811 1.415 . S
C814 H804 0.930 . S
C814 C812 1.419 . S
C814 C815 1.362 . S
C815 H805 0.930 . S
C815 C808 1.409 . S
C815 C814 1.362 . S
H816 C822 0.930 . S
H817 C825 0.930 . S
H818 C826 0.930 . S
H819 C827 0.930 . S
H820 C830 0.930 . S
H821 C831 0.930 . S
C822 H816 0.930 . S
C822 C823 1.355 . S
C822 C824 1.415 . S
C823 C822 1.355 . S
C823 C825 1.419 . S
C824 C822 1.415 . S
C824 C829 1.425 . S
C824 C831 1.409 . S
C825 H817 0.930 . S
C825 C823 1.419 . S
C825 C826 1.362 . S
C826 H818 0.930 . S
C826 C825 1.362 . S
C826 C829 1.409 . S
C827 H819 0.930 . S
C827 C828 1.355 . S
C827 C829 1.415 . S
C828 C827 1.355 . S
C828 C830 1.419 . S
C829 C824 1.425 . S
C829 C826 1.409 . S
C829 C827 1.415 . S
C830 H820 0.930 . S
C830 C828 1.419 . S
C830 C831 1.362 . S
C831 H821 0.930 . S
C831 C824 1.409 . S
C831 C830 1.362 . S
H832 C838 0.930 . S
H833 C841 0.930 . S
H834 C842 0.930 . S
H835 C843 0.930 . S
H836 C846 0.930 . S
H837 C847 0.930 . S
C838 H832 0.930 . S
C838 C839 1.355 . S
C838 C840 1.415 . S
C839 C838 1.355 . S
C839 C841 1.419 . S
C840 C838 1.415 . S
C840 C845 1.425 . S
C840 C847 1.409 . S
C841 H833 0.930 . S
C841 C839 1.419 . S
C841 C842 1.362 . S
C842 H834 0.930 . S
C842 C841 1.362 . S
C842 C845 1.409 . S
C843 H835 0.930 . S
C843 C844 1.355 . S
C843 C845 1.415 . S
C844 C843 1.355 . S
C844 C846 1.419 . S
C845 C840 1.425 . S
C845 C842 1.409 . S
C845 C843 1.415 . S
C846 H836 0.930 . S
C846 C844 1.419 . S
C846 C847 1.362 . S
C847 H837 0.930 . S
C847 C840 1.409 . S
C847 C846 1.362 . S
H848 C854 0.930 . S
H849 C857 0.930 . S
H850 C858 0.930 . S
H851 C859 0.930 . S
H852 C862 0.930 . S
H853 C863 0.930 . S
C854 H848 0.930 . S
C854 C855 1.355 . S
C854 C856 1.415 . S
C855 C854 1.355 . S
C855 C857 1.419 . S
C856 C854 1.415 . S
C856 C861 1.425 . S
C856 C863 1.409 . S
C857 H849 0.930 . S
C857 C855 1.419 . S
C857 C858 1.362 . S
C858 H850 0.930 . S
C858 C857 1.362 . S
C858 C861 1.409 . S
C859 H851 0.930 . S
C859 C860 1.355 . S
C859 C861 1.415 . S
C860 C859 1.355 . S
C860 C862 1.419 . S
C861 C856 1.425 . S
C861 C858 1.409 . S
C861 C859 1.415 . S
C862 H852 0.930 . S
C862 C860 1.419 . S
C862 C863 1.362 . S
C863 H853 0.930 . S
C863 C856 1.409 . S
C863 C862 1.362 . S
H864 C870 0.930 . S
H865 C873 0.930 . S
H866 C874 0.930 . S
H867 C875 0.930 . S
H868 C878 0.930 . S
H869 C879 0.930 . S
C870 H864 0.930 . S
C870 C871 1.355 . S
C870 C872 1.415 . S
C871 C870 1.355 . S
C871 C873 1.419 . S
C872 C870 1.415 . S
C872 C877 1.425 . S
C872 C879 1.409 . S
C873 H865 0.930 . S
C873 C871 1.419 . S
C873 C874 1.362 . S
C874 H866 0.930 . S
C874 C873 1.362 . S
C874 C877 1.409 . S
C875 H867 0.930 . S
C875 C876 1.355 . S
C875 C877 1.415 . S
C876 C875 1.355 . S
C876 C878 1.419 . S
C877 C872 1.425 . S
C877 C874 1.409 . S
C877 C875 1.415 . S
C878 H868 0.930 . S
C878 C876 1.419 . S
C878 C879 1.362 . S
C879 H869 0.930 . S
C879 C872 1.409 . S
C879 C878 1.362 . S
H880 C886 0.930 . S
H881 C889 0.930 . S
H882 C890 0.930 . S
H883 C891 0.930 . S
H884 C894 0.930 . S
H885 C895 0.930 . S
C886 H880 0.930 . S
C886 C887 1.355 . S
C886 C888 1.415 . S
C887 C886 1.355 . S
C887 C889 1.419 . S
C888 C886 1.415 . S
C888 C893 1.425 . S
C888 C895 1.409 . S
C889 H881 0.930 . S
C889 C887 1.419 . S
C889 C890 1.362 . S
C890 H882 0.930 . S
C890 C889 1.362 . S
C890 C893 1.409 . S
C891 H883 0.930 . S
C891 C892 1.355 . S
C891 C893 1.415 . S
C892 C891 1.355 . S
C892 C894 1.419 . S
C893 C888 1.425 . S
C893 C890 1.409 . S
C893 C891 1.415 . S
C894 H884 0.930 . S
C894 C892 1.419 . S
C894 C895 1.362 . S
C895 H885 0.930 . S
C895 C888 1.409 . S
C895 C894 1.362 . S
H896 C902 0.930 . S
H897 C905 0.930 . S
H898 C906 0.930 . S
H899 C907 0.930 . S
H900 C910 0.930 . S
H901 C911 0.930 . S
C902 H896 0.930 . S
C902 C903 1.355 . S
C902 C904 1.415 . S
C903 C902 1.355 . S
C903 C905 1.419 . S
C904 C902 1.415 . S
C904 C909 1.425 . S
C904 C911 1.409 . S
C905 H897 0.930 . S
C905 C903 1.419 . S
C905 C906 1.362 . S
C906 H898 0.930 . S
C906 C905 1.362 . S
C906 C909 1.409 . S
C907 H899 0.930 . S
C907 C908 1.355 . S
C907 C909 1.415 . S
C908 C907 1.355 . S
C908 C910 1.419 . S
C909 C904 1.425 . S
C909 C906 1.409 . S
C909 C907 1.415 . S
C910 H900 0.930 . S
C910 C908 1.419 . S
C910 C911 1.362 . S
C911 H901 0.930 . S
C911 C904 1.409 . S
C911 C910 1.362 . S
H912 C918 0.930 . S
H913 C921 0.930 . S
H914 C922 0.930 . S
H915 C923 0.930 . S
H916 C926 0.930 . S
H917 C927 0.930 . S
C918 H912 0.930 . S
C918 C919 1.355 . S
C918 C920 1.415 . S
C919 C918 1.355 . S
C919 C921 1.419 . S
C920 C918 1.415 . S
C920 C925 1.425 . S
C920 C927 1.409 . S
C921 H913 0.930 . S
C921 C919 1.419 . S
C921 C922 1.362 . S
C922 H914 0.930 . S
C922 C921 1.362 . S
C922 C925 1.409 . S
C923 H915 0.930 . S
C923 C924 1.355 . S
C923 C925 1.415 . S
C924 C923 1.355 . S
C924 C926 1.419 . S
C925 C920 1.425 . S
C925 C922 1.409 . S
C925 C923 1.415 . S
C926 H916 0.930 . S
C926 C924 1.419 . S
C926 C927 1.362 . S
C927 H917 0.930 . S
C927 C920 1.409 . S
C927 C926 1.362 . S
H928 C934 0.930 . S
H929 C937 0.930 . S
H930 C938 0.930 . S
H931 C939 0.930 . S
H932 C942 0.930 . S
H933 C943 0.930 . S
C934 H928 0.930 . S
C934 C935 1.355 . S
C934 C936 1.415 . S
C935 C934 1.355 . S
C935 C937 1.419 . S
C936 C934 1.415 . S
C936 C941 1.425 . S
C936 C943 1.409 . S
C937 H929 0.930 . S
C937 C935 1.419 . S
C937 C938 1.362 . S
C938 H930 0.930 . S
C938 C937 1.362 . S
C938 C941 1.409 . S
C939 H931 0.930 . S
C939 C940 1.355 . S
C939 C941 1.415 . S
C940 C939 1.355 . S
C940 C942 1.419 . S
C941 C936 1.425 . S
C941 C938 1.409 . S
C941 C939 1.415 . S
C942 H932 0.930 . S
C942 C940 1.419 . S
C942 C943 1.362 . S
C943 H933 0.930 . S
C943 C936 1.409 . S
C943 C942 1.362 . S
H944 C950 0.930 . S
H945 C953 0.930 . S
H946 C954 0.930 . S
H947 C955 0.930 . S
H948 C958 0.930 . S
H949 C959 0.930 . S
C950 H944 0.930 . S
C950 C951 1.355 . S
C950 C952 1.415 . S
C951 C950 1.355 . S
C951 C953 1.419 . S
C952 C950 1.415 . S
C952 C957 1.425 . S
C952 C959 1.409 . S
C953 H945 0.930 . S
C953 C951 1.419 . S
C953 C954 1.362 . S
C954 H946 0.930 . S
C954 C953 1.362 . S
C954 C957 1.409 . S
C955 H947 0.930 . S
C955 C956 1.355 . S
C955 C957 1.415 . S
C956 C955 1.355 . S
C956 C958 1.419 . S
C957 C952 1.425 . S
C957 C954 1.409 . S
C957 C955 1.415 . S
C958 H948 0.930 . S
C958 C956 1.419 . S
C958 C959 1.362 . S
C959 H949 0.930 . S
C959 C952 1.409 . S
C959 C958 1.362 . S
H960 C966 0.930 . S
H961 C969 0.930 . S
H962 C970 0.930 . S
H963 C971 0.930 . S
H964 C974 0.930 . S
H965 C975 0.930 . S
C966 H960 0.930 . S
C966 C967 1.355 . S
C966 C968 1.415 . S
C967 C966 1.355 . S
C967 C969 1.419 . S
C968 C966 1.415 . S
C968 C973 1.425 . S
C968 C975 1.409 . S
C969 H961 0.930 . S
C969 C967 1.419 . S
C969 C970 1.362 . S
C970 H962 0.930 . S
C970 C969 1.362 . S
C970 C973 1.409 . S
C971 H963 0.930 . S
C971 C972 1.355 . S
C971 C973 1.415 . S
C972 C971 1.355 . S
C972 C974 1.419 . S
C973 C968 1.425 . S
C973 C970 1.409 . S
C973 C971 1.415 . S
C974 H964 0.930 . S
C974 C972 1.419 . S
C974 C975 1.362 . S
C975 H965 0.930 . S
C975 C968 1.409 . S
C975 C974 1.362 . S
H976 C982 0.930 . S
H977 C985 0.930 . S
H978 C986 0.930 . S
H979 C987 0.930 . S
H980 C990 0.930 . S
H981 C991 0.930 . S
C982 H976 0.930 . S
C982 C983 1.355 . S
C982 C984 1.413 1_565 S
C983 C982 1.355 . S
C983 C985 1.419 1_455 S
C984 C982 1.413 1_545 S
C984 C989 1.425 1_445 S
C984 C991 1.411 . S
C985 H977 0.930 . S
C985 C983 1.419 1_655 S
C985 C986 1.362 . S
C986 H978 0.930 . S
C986 C985 1.362 . S
C986 C989 1.411 . S
C987 H979 0.930 . S
C987 C988 1.355 . S
C987 C989 1.413 1_545 S
C988 C987 1.355 . S
C988 C990 1.419 1_655 S
C989 C984 1.425 1_665 S
C989 C986 1.411 . S
C989 C987 1.413 1_565 S
C990 H980 0.930 . S
C990 C988 1.419 1_455 S
C990 C991 1.362 . S
C991 H981 0.930 . S
C991 C984 1.411 . S
C991 C990 1.362 . S
H992 C998 0.930 . S
H993 C1001 0.930 . S
H994 C1002 0.930 . S
H995 C1003 0.930 . S
H996 C1006 0.930 . S
H997 C1007 0.930 . S
C998 H992 0.930 . S
C998 C999 1.355 . S
C998 C1000 1.415 . S
C999 C998 1.355 . S
C999 C1001 1.419 . S
C1000 C998 1.415 . S
C1000 C1005 1.425 . S
C1000 C1007 1.409 . S
C1001 H993 0.930 . S
C1001 C999 1.419 . S
C1001 C1002 1.362 . S
C1002 H994 0.930 . S
C1002 C1001 1.362 . S
C1002 C1005 1.409 . S
C1003 H995 0.930 . S
C1003 C1004 1.355 . S
C1003 C1005 1.415 . S
C1004 C1003 1.355 . S
C1004 C1006 1.419 . S
C1005 C1000 1.425 . S
C1005 C1002 1.409 . S
C1005 C1003 1.415 . S
C1006 H996 0.930 . S
C1006 C1004 1.419 . S
C1006 C1007 1.362 . S
C1007 H997 0.930 . S
C1007 C1000 1.409 . S
C1007 C1006 1.362 . S
H1008 C1014 0.930 . S
H1009 C1017 0.930 . S
H1010 C1018 0.930 1_556 S
H1011 C1019 0.930 . S
H1012 C1022 0.930 . S
H1013 C1023 0.930 1_554 S
C1014 H1008 0.930 . S
C1014 C1015 1.355 1_565 S
C1014 C1016 1.415 . S
C1015 C1014 1.355 1_545 S
C1015 C1017 1.419 . S
C1016 C1014 1.415 . S
C1016 C1021 1.425 1_564 S
C1016 C1023 1.409 1_554 S
C1017 H1009 0.930 . S
C1017 C1015 1.419 . S
C1017 C1018 1.362 . S
C1018 H1010 0.930 1_554 S
C1018 C1017 1.362 . S
C1018 C1021 1.409 1_554 S
C1019 H1011 0.930 . S
C1019 C1020 1.355 1_545 S
C1019 C1021 1.415 . S
C1020 C1019 1.355 1_565 S
C1020 C1022 1.419 . S
C1021 C1016 1.425 1_546 S
C1021 C1018 1.409 1_556 S
C1021 C1019 1.415 . S
C1022 H1012 0.930 . S
C1022 C1020 1.419 . S
C1022 C1023 1.362 . S
C1023 H1013 0.930 1_556 S
C1023 C1016 1.409 1_556 S
C1023 C1022 1.362 . S
H1024 C1030 0.930 . S
H1025 C1033 0.930 . S
H1026 C1034 0.930 . S
H1027 C1035 0.930 . S
H1028 C1038 0.930 . S
H1029 C1039 0.930 . S
C1030 H1024 0.930 . S
C1030 C1031 1.355 . S
C1030 C1032 1.415 . S
C1031 C1030 1.355 . S
C1031 C1033 1.419 . S
C1032 C1030 1.415 . S
C1032 C1037 1.425 . S
C1032 C1039 1.409 . S
C1033 H1025 0.930 . S
C1033 C1031 1.419 . S
C1033 C1034 1.362 . S
C1034 H1026 0.930 . S
C1034 C1033 1.362 . S
C1034 C1037 1.409 . S
C1035 H1027 0.930 . S
C1035 C1036 1.355 . S
C1035 C1037 1.415 . S
C1036 C1035 1.355 . S
C1036 C1038 1.419 . S
C1037 C1032 1.425 . S
C1037 C1034 1.409 . S
C1037 C1035 1.415 . S
C1038 H1028 0.930 . S
C1038 C1036 1.419 . S
C1038 C1039 1.362 . S
C1039 H1029 0.930 . S
C1039 C1032 1.409 . S
C1039 C1038 1.362 . S
H1040 C1046 0.930 . S
H1041 C1049 0.930 . S
H1042 C1050 0.930 . S
H1043 C1051 0.930 . S
H1044 C1054 0.930 . S
H1045 C1055 0.930 . S
C1046 H1040 0.930 . S
C1046 C1047 1.355 . S
C1046 C1048 1.415 . S
C1047 C1046 1.355 . S
C1047 C1049 1.419 1_565 S
C1048 C1046 1.415 . S
C1048 C1053 1.425 1_565 S
C1048 C1055 1.409 . S
C1049 H1041 0.930 . S
C1049 C1047 1.419 1_545 S
C1049 C1050 1.362 . S
C1050 H1042 0.930 . S
C1050 C1049 1.362 . S
C1050 C1053 1.409 . S
C1051 H1043 0.930 . S
C1051 C1052 1.355 . S
C1051 C1053 1.415 . S
C1052 C1051 1.355 . S
C1052 C1054 1.419 1_545 S
C1053 C1048 1.425 1_545 S
C1053 C1050 1.409 . S
C1053 C1051 1.415 . S
C1054 H1044 0.930 . S
C1054 C1052 1.419 1_565 S
C1054 C1055 1.362 . S
C1055 H1045 0.930 . S
C1055 C1048 1.409 . S
C1055 C1054 1.362 . S
H1056 C1062 0.930 . S
H1057 C1065 0.930 . S
H1058 C1066 0.930 . S
H1059 C1067 0.930 . S
H1060 C1070 0.930 . S
H1061 C1071 0.930 . S
C1062 H1056 0.930 . S
C1062 C1063 1.355 . S
C1062 C1064 1.415 . S
C1063 C1062 1.355 . S
C1063 C1065 1.419 . S
C1064 C1062 1.415 . S
C1064 C1069 1.425 . S
C1064 C1071 1.409 . S
C1065 H1057 0.930 . S
C1065 C1063 1.419 . S
C1065 C1066 1.362 . S
C1066 H1058 0.930 . S
C1066 C1065 1.362 . S
C1066 C1069 1.409 . S
C1067 H1059 0.930 . S
C1067 C1068 1.355 . S
C1067 C1069 1.415 . S
C1068 C1067 1.355 . S
C1068 C1070 1.419 . S
C1069 C1064 1.425 . S
C1069 C1066 1.409 . S
C1069 C1067 1.415 . S
C1070 H1060 0.930 . S
C1070 C1068 1.419 . S
C1070 C1071 1.362 . S
C1071 H1061 0.930 . S
C1071 C1064 1.409 . S
C1071 C1070 1.362 . S
H1072 C1078 0.930 . S
H1073 C1081 0.930 . S
H1074 C1082 0.930 . S
H1075 C1083 0.930 . S
H1076 C1086 0.930 . S
H1077 C1087 0.930 . S
C1078 H1072 0.930 . S
C1078 C1079 1.355 1_565 S
C1078 C1080 1.415 . S
C1079 C1078 1.355 1_545 S
C1079 C1081 1.419 1_455 S
C1080 C1078 1.415 . S
C1080 C1085 1.425 1_466 S
C1080 C1087 1.409 1_556 S
C1081 H1073 0.930 . S
C1081 C1079 1.419 1_655 S
C1081 C1082 1.362 . S
C1082 H1074 0.930 . S
C1082 C1081 1.362 . S
C1082 C1085 1.409 1_556 S
C1083 H1075 0.930 . S
C1083 C1084 1.355 1_545 S
C1083 C1085 1.415 . S
C1084 C1083 1.355 1_565 S
C1084 C1086 1.419 1_655 S
C1085 C1080 1.425 1_644 S
C1085 C1082 1.409 1_554 S
C1085 C1083 1.415 . S
C1086 H1076 0.930 . S
C1086 C1084 1.419 1_455 S
C1086 C1087 1.362 . S
C1087 H1077 0.930 . S
C1087 C1080 1.409 1_554 S
C1087 C1086 1.362 . S
H1088 C1094 0.930 . S
H1089 C1097 0.930 . S
H1090 C1098 0.930 . S
H1091 C1099 0.930 . S
H1092 C1102 0.930 . S
H1093 C1103 0.930 . S
C1094 H1088 0.930 . S
C1094 C1095 1.355 . S
C1094 C1096 1.415 . S
C1095 C1094 1.355 . S
C1095 C1097 1.419 . S
C1096 C1094 1.415 . S
C1096 C1101 1.425 . S
C1096 C1103 1.409 . S
C1097 H1089 0.930 . S
C1097 C1095 1.419 . S
C1097 C1098 1.362 . S
C1098 H1090 0.930 . S
C1098 C1097 1.362 . S
C1098 C1101 1.409 . S
C1099 H1091 0.930 . S
C1099 C1100 1.355 . S
C1099 C1101 1.415 . S
C1100 C1099 1.355 . S
C1100 C1102 1.419 . S
C1101 C1096 1.425 . S
C1101 C1098 1.409 . S
C1101 C1099 1.415 . S
C1102 H1092 0.930 . S
C1102 C1100 1.419 . S
C1102 C1103 1.362 . S
C1103 H1093 0.930 . S
C1103 C1096 1.409 . S
C1103 C1102 1.362 . S
H1104 C1110 0.930 . S
H1105 C1113 0.930 . S
H1106 C1114 0.930 . S
H1107 C1115 0.930 . S
H1108 C1118 0.930 . S
H1109 C1119 0.930 . S
C1110 H1104 0.930 . S
C1110 C1111 1.355 . S
C1110 C1112 1.415 . S
C1111 C1110 1.355 . S
C1111 C1113 1.419 . S
C1112 C1110 1.415 . S
C1112 C1117 1.425 . S
C1112 C1119 1.409 . S
C1113 H1105 0.930 . S
C1113 C1111 1.419 . S
C1113 C1114 1.362 . S
C1114 H1106 0.930 . S
C1114 C1113 1.362 . S
C1114 C1117 1.409 . S
C1115 H1107 0.930 . S
C1115 C1116 1.355 . S
C1115 C1117 1.415 . S
C1116 C1115 1.355 . S
C1116 C1118 1.419 . S
C1117 C1112 1.425 . S
C1117 C1114 1.409 . S
C1117 C1115 1.415 . S
C1118 H1108 0.930 . S
C1118 C1116 1.419 . S
C1118 C1119 1.362 . S
C1119 H1109 0.930 . S
C1119 C1112 1.409 . S
C1119 C1118 1.362 . S
H1120 C1126 0.930 . S
H1121 C1129 0.930 . S
H1122 C1130 0.930 . S
H1123 C1131 0.930 . S
H1124 C1134 0.930 . S
H1125 C1135 0.930 . S
C1126 H1120 0.930 . S
C1126 C1127 1.355 . S
C1126 C1128 1.415 . S
C1127 C1126 1.355 . S
C1127 C1129 1.419 . S
C1128 C1126 1.415 . S
C1128 C1133 1.425 . S
C1128 C1135 1.409 . S
C1129 H1121 0.930 . S
C1129 C1127 1.419 . S
C1129 C1130 1.362 . S
C1130 H1122 0.930 . S
C1130 C1129 1.362 . S
C1130 C1133 1.409 . S
C1131 H1123 0.930 . S
C1131 C1132 1.355 . S
C1131 C1133 1.415 . S
C1132 C1131 1.355 . S
C1132 C1134 1.419 . S
C1133 C1128 1.425 . S
C1133 C1130 1.409 . S
C1133 C1131 1.415 . S
C1134 H1124 0.930 . S
C1134 C1132 1.419 . S
C1134 C1135 1.362 . S
C1135 H1125 0.930 . S
C1135 C1128 1.409 . S
C1135 C1134 1.362 . S
H1136 C1142 0.930 . S
H1137 C1145 0.930 . S
H1138 C1146 0.930 . S
H1139 C1147 0.930 . S
H1140 C1150 0.930 . S
H1141 C1151 0.930 . S
C1142 H1136 0.930 . S
C1142 C1143 1.355 . S
C1142 C1144 1.415 . S
C1143 C1142 1.355 . S
C1143 C1145 1.419 . S
C1144 C1142 1.415 . S
C1144 C1149 1.425 . S
C1144 C1151 1.409 . S
C1145 H1137 0.930 . S
C1145 C1143 1.419 . S
C1145 C1146 1.362 . S
C1146 H1138 0.930 . S
C1146 C1145 1.362 . S
C1146 C1149 1.409 . S
C1147 H1139 0.930 . S
C1147 C1148 1.355 . S
C1147 C1149 1.415 . S
C1148 C1147 1.355 . S
C1148 C1150 1.419 . S
C1149 C1144 1.425 . S
C1149 C1146 1.409 . S
C1149 C1147 1.415 . S
C1150 H1140 0.930 . S
C1150 C1148 1.419 . S
C1150 C1151 1.362 . S
C1151 H1141 0.930 . S
C1151 C1144 1.409 . S
C1151 C1150 1.362 . S
H1152 C1158 0.930 . S
H1153 C1161 0.930 . S
H1154 C1162 0.930 . S
H1155 C1163 0.930 . S
H1156 C1166 0.930 . S
H1157 C1167 0.930 . S
C1158 H1152 0.930 . S
C1158 C1159 1.355 . S
C1158 C1160 1.442 . S
C1159 C1158 1.355 . S
C1159 C1161 1.419 . S
C1160 C1158 1.442 . S
C1160 C1165 1.423 1_554 S
C1160 C1167 1.383 1_554 S
C1161 H1153 0.930 . S
C1161 C1159 1.419 . S
C1161 C1162 1.362 . S
C1162 H1154 0.930 . S
C1162 C1161 1.362 . S
C1162 C1165 1.383 1_554 S
C1163 H1155 0.930 . S
C1163 C1164 1.355 . S
C1163 C1165 1.442 . S
C1164 C1163 1.355 . S
C1164 C1166 1.419 . S
C1165 C1160 1.423 1_556 S
C1165 C1162 1.383 1_556 S
C1165 C1163 1.442 . S
C1166 H1156 0.930 . S
C1166 C1164 1.419 . S
C1166 C1167 1.362 . S
C1167 H1157 0.930 . S
C1167 C1160 1.383 1_556 S
C1167 C1166 1.362 . S
H1168 C1174 0.930 . S
H1169 C1177 0.930 . S
H1170 C1178 0.930 . S
H1171 C1179 0.930 . S
H1172 C1182 0.930 . S
H1173 C1183 0.930 . S
C1174 H1168 0.930 . S
C1174 C1175 1.355 . S
C1174 C1176 1.415 . S
C1175 C1174 1.355 . S
C1175 C1177 1.419 1_455 S
C1176 C1174 1.415 . S
C1176 C1181 1.425 1_455 S
C1176 C1183 1.409 . S
C1177 H1169 0.930 . S
C1177 C1175 1.419 1_655 S
C1177 C1178 1.362 . S
C1178 H1170 0.930 . S
C1178 C1177 1.362 . S
C1178 C1181 1.409 . S
C1179 H1171 0.930 . S
C1179 C1180 1.355 . S
C1179 C1181 1.415 . S
C1180 C1179 1.355 . S
C1180 C1182 1.419 1_655 S
C1181 C1176 1.425 1_655 S
C1181 C1178 1.409 . S
C1181 C1179 1.415 . S
C1182 H1172 0.930 . S
C1182 C1180 1.419 1_455 S
C1182 C1183 1.362 . S
C1183 H1173 0.930 . S
C1183 C1176 1.409 . S
C1183 C1182 1.362 . S
H1184 C1190 0.930 . S
H1185 C1193 0.930 . S
H1186 C1194 0.930 . S
H1187 C1195 0.930 . S
H1188 C1198 0.930 . S
H1189 C1199 0.930 . S
C1190 H1184 0.930 . S
C1190 C1191 1.355 . S
C1190 C1192 1.415 . S
C1191 C1190 1.355 . S
C1191 C1193 1.419 1_455 S
C1192 C1190 1.415 . S
C1192 C1197 1.425 1_454 S
C1192 C1199 1.409 1_554 S
C1193 H1185 0.930 . S
C1193 C1191 1.419 1_655 S
C1193 C1194 1.362 . S
C1194 H1186 0.930 . S
C1194 C1193 1.362 . S
C1194 C1197 1.409 1_554 S
C1195 H1187 0.930 . S
C1195 C1196 1.355 . S
C1195 C1197 1.415 . S
C1196 C1195 1.355 . S
C1196 C1198 1.419 1_655 S
C1197 C1192 1.425 1_656 S
C1197 C1194 1.409 1_556 S
C1197 C1195 1.415 . S
C1198 H1188 0.930 . S
C1198 C1196 1.419 1_455 S
C1198 C1199 1.362 . S
C1199 H1189 0.930 . S
C1199 C1192 1.409 1_556 S
C1199 C1198 1.362 . S
H1200 C1206 0.930 . S
H1201 C1209 0.930 . S
H1202 C1210 0.930 . S
H1203 C1211 0.930 . S
H1204 C1214 0.930 . S
H1205 C1215 0.930 . S
C1206 H1200 0.930 . S
C1206 C1207 1.355 . S
C1206 C1208 1.415 . S
C1207 C1206 1.355 . S
C1207 C1209 1.419 . S
C1208 C1206 1.415 . S
C1208 C1213 1.425 . S
C1208 C1215 1.409 . S
C1209 H1201 0.930 . S
C1209 C1207 1.419 . S
C1209 C1210 1.362 . S
C1210 H1202 0.930 . S
C1210 C1209 1.362 . S
C1210 C1213 1.409 . S
C1211 H1203 0.930 . S
C1211 C1212 1.355 . S
C1211 C1213 1.415 . S
C1212 C1211 1.355 . S
C1212 C1214 1.419 . S
C1213 C1208 1.425 . S
C1213 C1210 1.409 . S
C1213 C1211 1.415 . S
C1214 H1204 0.930 . S
C1214 C1212 1.419 . S
C1214 C1215 1.362 . S
C1215 H1205 0.930 . S
C1215 C1208 1.409 . S
C1215 C1214 1.362 . S
H1216 C1222 0.930 . S
H1217 C1225 0.930 . S
H1218 C1226 0.930 . S
H1219 C1227 0.930 . S
H1220 C1230 0.930 . S
H1221 C1231 0.930 . S
C1222 H1216 0.930 . S
C1222 C1223 1.355 . S
C1222 C1224 1.415 . S
C1223 C1222 1.355 . S
C1223 C1225 1.419 . S
C1224 C1222 1.415 . S
C1224 C1229 1.425 . S
C1224 C1231 1.409 . S
C1225 H1217 0.930 . S
C1225 C1223 1.419 . S
C1225 C1226 1.362 . S
C1226 H1218 0.930 . S
C1226 C1225 1.362 . S
C1226 C1229 1.409 . S
C1227 H1219 0.930 . S
C1227 C1228 1.355 . S
C1227 C1229 1.415 . S
C1228 C1227 1.355 . S
C1228 C1230 1.419 . S
C1229 C1224 1.425 . S
C1229 C1226 1.409 . S
C1229 C1227 1.415 . S
C1230 H1220 0.930 . S
C1230 C1228 1.419 . S
C1230 C1231 1.362 . S
C1231 H1221 0.930 . S
C1231 C1224 1.409 . S
C1231 C1230 1.362 . S
H1232 C1238 0.930 . S
H1233 C1241 0.930 . S
H1234 C1242 0.930 . S
H1235 C1243 0.930 . S
H1236 C1246 0.930 . S
H1237 C1247 0.930 . S
C1238 H1232 0.930 . S
C1238 C1239 1.355 . S
C1238 C1240 1.415 . S
C1239 C1238 1.355 . S
C1239 C1241 1.419 . S
C1240 C1238 1.415 . S
C1240 C1245 1.425 . S
C1240 C1247 1.409 . S
C1241 H1233 0.930 . S
C1241 C1239 1.419 . S
C1241 C1242 1.362 . S
C1242 H1234 0.930 . S
C1242 C1241 1.362 . S
C1242 C1245 1.409 . S
C1243 H1235 0.930 . S
C1243 C1244 1.355 . S
C1243 C1245 1.415 . S
C1244 C1243 1.355 . S
C1244 C1246 1.419 . S
C1245 C1240 1.425 . S
C1245 C1242 1.409 . S
C1245 C1243 1.415 . S
C1246 H1236 0.930 . S
C1246 C1244 1.419 . S
C1246 C1247 1.362 . S
C1247 H1237 0.930 . S
C1247 C1240 1.409 . S
C1247 C1246 1.362 . S
H1248 C1254 0.930 . S
H1249 C1257 0.930 . S
H1250 C1258 0.930 . S
H1251 C1259 0.930 . S
H1252 C1262 0.930 . S
H1253 C1263 0.930 . S
C1254 H1248 0.930 . S
C1254 C1255 1.355 . S
C1254 C1256 1.415 . S
C1255 C1254 1.355 . S
C1255 C1257 1.419 . S
C1256 C1254 1.415 . S
C1256 C1261 1.425 . S
C1256 C1263 1.409 . S
C1257 H1249 0.930 . S
C1257 C1255 1.419 . S
C1257 C1258 1.362 . S
C1258 H1250 0.930 . S
C1258 C1257 1.362 . S
C1258 C1261 1.409 . S
C1259 H1251 0.930 . S
C1259 C1260 1.355 . S
C1259 C1261 1.415 . S
C1260 C1259 1.355 . S
C1260 C1262 1.419 . S
C1261 C1256 1.425 . S
C1261 C1258 1.409 . S
C1261 C1259 1.415 . S
C1262 H1252 0.930 . S
C1262 C1260 1.419 . S
C1262 C1263 1.362 . S
C1263 H1253 0.930 . S
C1263 C1256 1.409 . S
C1263 C1262 1.362 . S
H1264 C1270 0.930 . S
H1265 C1273 0.930 . S
H1266 C1274 0.930 . S
H1267 C1275 0.930 . S
H1268 C1278 0.930 . S
H1269 C1279 0.930 . S
C1270 H1264 0.930 . S
C1270 C1271 1.355 . S
C1270 C1272 1.415 . S
C1271 C1270 1.355 . S
C1271 C1273 1.419 . S
C1272 C1270 1.415 . S
C1272 C1277 1.425 . S
C1272 C1279 1.409 . S
C1273 H1265 0.930 . S
C1273 C1271 1.419 . S
C1273 C1274 1.362 . S
C1274 H1266 0.930 . S
C1274 C1273 1.362 . S
C1274 C1277 1.409 . S
C1275 H1267 0.930 . S
C1275 C1276 1.355 . S
C1275 C1277 1.415 . S
C1276 C1275 1.355 . S
C1276 C1278 1.419 . S
C1277 C1272 1.425 . S
C1277 C1274 1.409 . S
C1277 C1275 1.415 . S
C1278 H1268 0.930 . S
C1278 C1276 1.419 . S
C1278 C1279 1.362 . S
C1279 H1269 0.930 . S
C1279 C1272 1.409 . S
C1279 C1278 1.362 . S
H1280 C1286 0.930 . S
H1281 C1289 0.930 . S
H1282 C1290 0.930 . S
H1283 C1291 0.930 . S
H1284 C1294 0.930 . S
H1285 C1295 0.930 . S
C1286 H1280 0.930 . S
C1286 C1287 1.355 . S
C1286 C1288 1.415 . S
C1287 C1286 1.355 . S
C1287 C1289 1.419 . S
C1288 C1286 1.415 . S
C1288 C1293 1.425 . S
C1288 C1295 1.409 . S
C1289 H1281 0.930 . S
C1289 C1287 1.419 . S
C1289 C1290 1.362 . S
C1290 H1282 0.930 . S
C1290 C1289 1.362 . S
C1290 C1293 1.409 . S
C1291 H1283 0.930 . S
C1291 C1292 1.355 . S
C1291 C1293 1.415 . S
C1292 C1291 1.355 . S
C1292 C1294 1.419 . S
C1293 C1288 1.425 . S
C1293 C1290 1.409 . S
C1293 C1291 1.415 . S
C1294 H1284 0.930 . S
C1294 C1292 1.419 . S
C1294 C1295 1.362 . S
C1295 H1285 0.930 . S
C1295 C1288 1.409 . S
C1295 C1294 1.362 . S
H1296 C1302 0.930 . S
H1297 C1305 0.930 . S
H1298 C1306 0.930 . S
H1299 C1307 0.930 . S
H1300 C1310 0.930 . S
H1301 C1311 0.930 . S
C1302 H1296 0.930 . S
C1302 C1303 1.355 . S
C1302 C1304 1.415 . S
C1303 C1302 1.355 . S
C1303 C1305 1.419 . S
C1304 C1302 1.415 . S
C1304 C1309 1.425 . S
C1304 C1311 1.409 . S
C1305 H1297 0.930 . S
C1305 C1303 1.419 . S
C1305 C1306 1.362 . S
C1306 H1298 0.930 . S
C1306 C1305 1.362 . S
C1306 C1309 1.409 . S
C1307 H1299 0.930 . S
C1307 C1308 1.355 . S
C1307 C1309 1.415 . S
C1308 C1307 1.355 . S
C1308 C1310 1.419 . S
C1309 C1304 1.425 . S
C1309 C1306 1.409 . S
C1309 C1307 1.415 . S
C1310 H1300 0.930 . S
C1310 C1308 1.419 . S
C1310 C1311 1.362 . S
C1311 H1301 0.930 . S
C1311 C1304 1.409 . S
C1311 C1310 1.362 . S
H1312 C1318 0.930 . S
H1313 C1321 0.930 . S
H1314 C1322 0.930 . S
H1315 C1323 0.930 . S
H1316 C1326 0.930 . S
H1317 C1327 0.930 . S
C1318 H1312 0.930 . S
C1318 C1319 1.355 . S
C1318 C1320 1.415 . S
C1319 C1318 1.355 . S
C1319 C1321 1.419 . S
C1320 C1318 1.415 . S
C1320 C1325 1.425 . S
C1320 C1327 1.409 . S
C1321 H1313 0.930 . S
C1321 C1319 1.419 . S
C1321 C1322 1.362 . S
C1322 H1314 0.930 . S
C1322 C1321 1.362 . S
C1322 C1325 1.409 . S
C1323 H1315 0.930 . S
C1323 C1324 1.355 . S
C1323 C1325 1.415 . S
C1324 C1323 1.355 . S
C1324 C1326 1.419 . S
C1325 C1320 1.425 . S
C1325 C1322 1.409 . S
C1325 C1323 1.415 . S
C1326 H1316 0.930 . S
C1326 C1324 1.419 . S
C1326 C1327 1.362 . S
C1327 H1317 0.930 . S
C1327 C1320 1.409 . S
C1327 C1326 1.362 . S
H1328 C1334 0.930 . S
H1329 C1337 0.930 . S
H1330 C1338 0.930 . S
H1331 C1339 0.930 . S
H1332 C1342 0.930 . S
H1333 C1343 0.930 . S
C1334 H1328 0.930 . S
C1334 C1335 1.355 . S
C1334 C1336 1.415 . S
C1335 C1334 1.355 . S
C1335 C1337 1.419 . S
C1336 C1334 1.415 . S
C1336 C1341 1.425 . S
C1336 C1343 1.409 . S
C1337 H1329 0.930 . S
C1337 C1335 1.419 . S
C1337 C1338 1.362 . S
C1338 H1330 0.930 . S
C1338 C1337 1.362 . S
C1338 C1341 1.409 . S
C1339 H1331 0.930 . S
C1339 C1340 1.355 . S
C1339 C1341 1.415 . S
C1340 C1339 1.355 . S
C1340 C1342 1.419 . S
C1341 C1336 1.425 . S
C1341 C1338 1.409 . S
C1341 C1339 1.415 . S
C1342 H1332 0.930 . S
C1342 C1340 1.419 . S
C1342 C1343 1.362 . S
C1343 H1333 0.930 . S
C1343 C1336 1.409 . S
C1343 C1342 1.362 . S
H1344 C1350 0.930 . S
H1345 C1353 0.930 . S
H1346 C1354 0.930 . S
H1347 C1355 0.930 . S
H1348 C1358 0.930 . S
H1349 C1359 0.930 . S
C1350 H1344 0.930 . S
C1350 C1351 1.355 . S
C1350 C1352 1.415 . S
C1351 C1350 1.355 . S
C1351 C1353 1.419 . S
C1352 C1350 1.415 . S
C1352 C1357 1.425 . S
C1352 C1359 1.409 . S
C1353 H1345 0.930 . S
C1353 C1351 1.419 . S
C1353 C1354 1.362 . S
C1354 H1346 0.930 . S
C1354 C1353 1.362 . S
C1354 C1357 1.409 . S
C1355 H1347 0.930 . S
C1355 C1356 1.355 . S
C1355 C1357 1.415 . S
C1356 C1355 1.355 . S
C1356 C1358 1.419 . S
C1357 C1352 1.425 . S
C1357 C1354 1.409 . S
C1357 C1355 1.415 . S
C1358 H1348 0.930 . S
C1358 C1356 1.419 . S
C1358 C1359 1.362 . S
C1359 H1349 0.930 . S
C1359 C1352 1.409 . S
C1359 C1358 1.362 . S
H1360 C1366 0.930 . S
H1361 C1369 0.930 . S
H1362 C1370 0.930 . S
H1363 C1371 0.930 . S
H1364 C1374 0.930 . S
H1365 C1375 0.930 . S
C1366 H1360 0.930 . S
C1366 C1367 1.355 . S
C1366 C1368 1.415 . S
C1367 C1366 1.355 . S
C1367 C1369 1.419 . S
C1368 C1366 1.415 . S
C1368 C1373 1.425 . S
C1368 C1375 1.409 . S
C1369 H1361 0.930 . S
C1369 C1367 1.419 . S
C1369 C1370 1.362 . S
C1370 H1362 0.930 . S
C1370 C1369 1.362 . S
C1370 C1373 1.409 . S
C1371 H1363 0.930 . S
C1371 C1372 1.355 . S
C1371 C1373 1.415 . S
C1372 C1371 1.355 . S
C1372 C1374 1.419 . S
C1373 C1368 1.425 . S
C1373 C1370 1.409 . S
C1373 C1371 1.415 . S
C1374 H1364 0.930 . S
C1374 C1372 1.419 . S
C1374 C1375 1.362 . S
C1375 H1365 0.930 . S
C1375 C1368 1.409 . S
C1375 C1374 1.362 . S
H1376 C1382 0.930 . S
H1377 C1385 0.930 . S
H1378 C1386 0.930 . S
H1379 C1387 0.930 . S
H1380 C1390 0.930 . S
H1381 C1391 0.930 . S
C1382 H1376 0.930 . S
C1382 C1383 1.355 . S
C1382 C1384 1.415 . S
C1383 C1382 1.355 . S
C1383 C1385 1.419 . S
C1384 C1382 1.415 . S
C1384 C1389 1.425 . S
C1384 C1391 1.409 . S
C1385 H1377 0.930 . S
C1385 C1383 1.419 . S
C1385 C1386 1.362 . S
C1386 H1378 0.930 . S
C1386 C1385 1.362 . S
C1386 C1389 1.409 . S
C1387 H1379 0.930 . S
C1387 C1388 1.355 . S
C1387 C1389 1.415 . S
C1388 C1387 1.355 . S
C1388 C1390 1.419 . S
C1389 C1384 1.425 . S
C1389 C1386 1.409 . S
C1389 C1387 1.415 . S
C1390 H1380 0.930 . S
C1390 C1388 1.419 . S
C1390 C1391 1.362 . S
C1391 H1381 0.930 . S
C1391 C1384 1.409 . S
C1391 C1390 1.362 . S
H1392 C1398 0.930 . S
H1393 C1401 0.930 . S
H1394 C1402 0.930 . S
H1395 C1403 0.930 . S
H1396 C1406 0.930 . S
H1397 C1407 0.930 . S
C1398 H1392 0.930 . S
C1398 C1399 1.355 . S
C1398 C1400 1.415 . S
C1399 C1398 1.355 . S
C1399 C1401 1.419 . S
C1400 C1398 1.415 . S
C1400 C1405 1.425 . S
C1400 C1407 1.409 . S
C1401 H1393 0.930 . S
C1401 C1399 1.419 . S
C1401 C1402 1.362 . S
C1402 H1394 0.930 . S
C1402 C1401 1.362 . S
C1402 C1405 1.409 . S
C1403 H1395 0.930 . S
C1403 C1404 1.355 . S
C1403 C1405 1.415 . S
C1404 C1403 1.355 . S
C1404 C1406 1.419 . S
C1405 C1400 1.425 . S
C1405 C1402 1.409 . S
C1405 C1403 1.415 . S
C1406 H1396 0.930 . S
C1406 C1404 1.419 . S
C1406 C1407 1.362 . S
C1407 H1397 0.930 . S
C1407 C1400 1.409 . S
C1407 C1406 1.362 . S
H1408 C1414 0.930 . S
H1409 C1417 0.930 . S
H1410 C1418 0.930 . S
H1411 C1419 0.930 . S
H1412 C1422 0.930 . S
H1413 C1423 0.930 . S
C1414 H1408 0.930 . S
C1414 C1415 1.355 . S
C1414 C1416 1.415 . S
C1415 C1414 1.355 . S
C1415 C1417 1.419 . S
C1416 C1414 1.415 . S
C1416 C1421 1.425 . S
C1416 C1423 1.409 . S
C1417 H1409 0.930 . S
C1417 C1415 1.419 . S
C1417 C1418 1.362 . S
C1418 H1410 0.930 . S
C1418 C1417 1.362 . S
C1418 C1421 1.409 . S
C1419 H1411 0.930 . S
C1419 C1420 1.355 . S
C1419 C1421 1.415 . S
C1420 C1419 1.355 . S
C1420 C1422 1.419 . S
C1421 C1416 1.425 . S
C1421 C1418 1.409 . S
C1421 C1419 1.415 . S
C1422 H1412 0.930 . S
C1422 C1420 1.419 . S
C1422 C1423 1.362 . S
C1423 H1413 0.930 . S
C1423 C1416 1.409 . S
C1423 C1422 1.362 . S
H1424 C1430 0.930 . S
H1425 C1433 0.930 . S
H1426 C1434 0.930 . S
H1427 C1435 0.930 . S
H1428 C1438 0.930 . S
H1429 C1439 0.930 . S
C1430 H1424 0.930 . S
C1430 C1431 1.355 . S
C1430 C1432 1.415 . S
C1431 C1430 1.355 . S
C1431 C1433 1.419 . S
C1432 C1430 1.415 . S
C1432 C1437 1.425 . S
C1432 C1439 1.409 . S
C1433 H1425 0.930 . S
C1433 C1431 1.419 . S
C1433 C1434 1.362 . S
C1434 H1426 0.930 . S
C1434 C1433 1.362 . S
C1434 C1437 1.409 . S
C1435 H1427 0.930 . S
C1435 C1436 1.355 . S
C1435 C1437 1.415 . S
C1436 C1435 1.355 . S
C1436 C1438 1.419 . S
C1437 C1432 1.425 . S
C1437 C1434 1.409 . S
C1437 C1435 1.415 . S
C1438 H1428 0.930 . S
C1438 C1436 1.419 . S
C1438 C1439 1.362 . S
C1439 H1429 0.930 . S
C1439 C1432 1.409 . S
C1439 C1438 1.362 . S
H1440 C1446 0.930 . S
H1441 C1449 0.930 . S
H1442 C1450 0.930 . S
H1443 C1451 0.930 . S
H1444 C1454 0.930 . S
H1445 C1455 0.930 . S
C1446 H1440 0.930 . S
C1446 C1447 1.355 . S
C1446 C1448 1.415 . S
C1447 C1446 1.355 . S
C1447 C1449 1.419 . S
C1448 C1446 1.415 . S
C1448 C1453 1.425 . S
C1448 C1455 1.409 . S
C1449 H1441 0.930 . S
C1449 C1447 1.419 . S
C1449 C1450 1.362 . S
C1450 H1442 0.930 . S
C1450 C1449 1.362 . S
C1450 C1453 1.409 . S
C1451 H1443 0.930 . S
C1451 C1452 1.355 . S
C1451 C1453 1.415 . S
C1452 C1451 1.355 . S
C1452 C1454 1.419 . S
C1453 C1448 1.425 . S
C1453 C1450 1.409 . S
C1453 C1451 1.415 . S
C1454 H1444 0.930 . S
C1454 C1452 1.419 . S
C1454 C1455 1.362 . S
C1455 H1445 0.930 . S
C1455 C1448 1.409 . S
C1455 C1454 1.362 . S
H1456 C1462 0.930 . S
H1457 C1465 0.930 . S
H1458 C1466 0.930 . S
H1459 C1467 0.930 . S
H1460 C1470 0.930 . S
H1461 C1471 0.930 . S
C1462 H1456 0.930 . S
C1462 C1463 1.355 . S
C1462 C1464 1.415 . S
C1463 C1462 1.355 . S
C1463 C1465 1.419 . S
C1464 C1462 1.415 . S
C1464 C1469 1.425 . S
C1464 C1471 1.409 . S
C1465 H1457 0.930 . S
C1465 C1463 1.419 . S
C1465 C1466 1.362 . S
C1466 H1458 0.930 . S
C1466 C1465 1.362 . S
C1466 C1469 1.409 . S
C1467 H1459 0.930 . S
C1467 C1468 1.355 . S
C1467 C1469 1.415 . S
C1468 C1467 1.355 . S
C1468 C1470 1.419 . S
C1469 C1464 1.425 . S
C1469 C1466 1.409 . S
C1469 C1467 1.415 . S
C1470 H1460 0.930 . S
C1470 C1468 1.419 . S
C1470 C1471 1.362 . S
C1471 H1461 0.930 . S
C1471 C1464 1.409 . S
C1471 C1470 1.362 . S
C455 C382 1.409 . S
C460 C12 1.433 . S
C471 C26 1.434 . S
C476 C116 1.421 . S
C487 C354 1.408 . S
C492 C40 1.442 . S
C503 C54 1.421 . S
C508 C144 1.415 . S
C519 C68 1.385 . S
C524 C410 1.450 . S
C535 C82 1.417 . S
C540 C200 1.434 . S
C551 C96 1.422 . S
C556 C438 1.431 . S
C567 C110 1.406 . S
C572 C172 1.424 . S
C583 C270 1.448 . S
C588 C124 1.383 . S
C599 C4 1.426 . S
C604 C138 1.428 . S
C615 C242 1.448 . S
C620 C152 1.393 . S
C631 C166 1.441 . S
C636 C32 1.407 . S
C647 C298 1.436 . S
C652 C180 1.415 . S
C663 C88 1.413 . S
C668 C194 1.423 . S
C679 C208 1.440 . S
C684 C326 1.414 . S
C695 C60 1.408 . S
C700 C222 1.435 . S
C711 C236 1.442 . S
C716 C158 1.410 . S
C727 C250 1.438 . S
C732 C340 1.417 . S
C743 C130 1.440 . S
C748 C264 1.408 . S
C759 C368 1.444 . S
C764 C278 1.385 . S
C775 C186 1.446 . S
C780 C292 1.383 . S
C791 C424 1.445 . S
C796 C306 1.384 . S
C807 C214 1.407 . S
C812 C320 1.440 . S
C823 C334 1.436 . S
C828 C396 1.407 . S
C839 C46 1.448 . S
C844 C348 1.382 . S
C855 C362 1.442 . S
C860 C228 1.409 . S
C871 C376 1.439 . S
C876 C18 1.415 . S
C887 C390 1.390 . S
C892 C256 1.449 . S
C903 C404 1.438 . S
C908 C74 1.407 . S
C919 C418 1.410 . S
C924 C312 1.439 . S
C935 C432 1.438 . S
C940 C102 1.417 . S
C951 C446 1.436 . S
C956 C284 1.418 . S
C967 C347 1.497 . S
C972 C11 1.497 . S
C983 C25 1.479 . S
C988 C137 1.479 . S
C999 C375 1.470 . S
C1004 C39 1.470 . S
C1015 C53 1.486 . S
C1020 C165 1.486 . S
C1031 C403 1.511 . S
C1036 C67 1.511 . S
C1047 C81 1.507 . S
C1052 C193 1.507 . S
C1063 C431 1.468 . S
C1068 C95 1.468 . S
C1079 C109 1.468 . S
C1084 C221 1.468 . S
C1095 C123 1.468 . S
C1100 C235 1.468 . S
C1111 C151 1.495 . S
C1116 C263 1.495 . S
C1127 C179 1.498 . S
C1132 C291 1.498 . S
C1143 C207 1.470 . S
C1148 C319 1.470 . S
C1159 C249 1.491 . S
C1164 C361 1.491 . S
C1175 C389 1.487 . S
C1180 C277 1.487 . S
C1191 C417 1.467 . S
C1196 C305 1.467 . S
C1207 C333 1.499 . S
C1212 C445 1.499 . S
C1223 C5 0.912 . S
C1228 C75 1.067 . S
C1239 C19 0.944 . S
C1244 C89 0.965 . S
C1255 C33 0.940 . S
C1260 C103 0.969 . S
C1271 C61 1.067 . S
C1276 C47 0.915 . S
C1287 C117 0.897 . S
C1292 C187 1.042 . S
C1303 C131 0.897 . S
C1308 C201 1.039 . S
C1319 C145 1.068 . S
C1324 C215 0.919 . S
C1335 C159 0.907 . S
C1340 C173 1.014 . S
C1351 C229 0.904 . S
C1356 C299 1.063 . S
C1367 C313 0.957 . S
C1372 C243 0.951 . S
C1383 C257 0.911 . S
C1388 C327 1.007 . S
C1399 C271 0.919 . S
C1404 C285 1.068 . S
C1415 C411 0.951 . S
C1420 C341 1.062 . S
C1431 C355 1.031 . S
C1436 C425 0.900 . S
C1447 C439 1.060 . S
C1452 C369 0.901 . S
C1463 C383 0.912 . S
C1468 C397 1.067 . S
