# Generated by pormake.
# Topology ukg, (4)-cn, num edge types: 1
# Building blocks:
#     Node 0, Type 0, BuildingBlock: QUQFOY_clean_sbu_1, # of connection points: 4
#     Node 1, Type 0, BuildingBlock: QUQFOY_clean_sbu_1, # of connection points: 4
#     Node 2, Type 0, BuildingBlock: QUQFOY_clean_sbu_1, # of connection points: 4
#     Node 3, Type 0, BuildingBlock: QUQFOY_clean_sbu_1, # of connection points: 4
#     Node 4, Type 0, BuildingBlock: QUQFOY_clean_sbu_1, # of connection points: 4
#     Node 5, Type 0, BuildingBlock: QUQFOY_clean_sbu_1, # of connection points: 4
#     Node 6, Type 0, BuildingBlock: QUQFOY_clean_sbu_1, # of connection points: 4
#     Node 7, Type 0, BuildingBlock: QUQFOY_clean_sbu_1, # of connection points: 4
#     Edge 8, Type (0, 0), BuildingBlock: KIFKEQ_clean_linker_1, # of connection points: 2
#     Edge 9, Type (0, 0), BuildingBlock: KIFKEQ_clean_linker_1, # of connection points: 2
#     Edge 10, Type (0, 0), BuildingBlock: KIFKEQ_clean_linker_1, # of connection points: 2
#     Edge 11, Type (0, 0), BuildingBlock: KIFKEQ_clean_linker_1, # of connection points: 2
#     Edge 12, Type (0, 0), BuildingBlock: KIFKEQ_clean_linker_1, # of connection points: 2
#     Edge 13, Type (0, 0), BuildingBlock: KIFKEQ_clean_linker_1, # of connection points: 2
#     Edge 14, Type (0, 0), BuildingBlock: KIFKEQ_clean_linker_1, # of connection points: 2
#     Edge 15, Type (0, 0), BuildingBlock: KIFKEQ_clean_linker_1, # of connection points: 2
#     Edge 16, Type (0, 0), BuildingBlock: KIFKEQ_clean_linker_1, # of connection points: 2
#     Edge 17, Type (0, 0), BuildingBlock: KIFKEQ_clean_linker_1, # of connection points: 2
#     Edge 18, Type (0, 0), BuildingBlock: KIFKEQ_clean_linker_1, # of connection points: 2
#     Edge 19, Type (0, 0), BuildingBlock: KIFKEQ_clean_linker_1, # of connection points: 2
#     Edge 20, Type (0, 0), BuildingBlock: KIFKEQ_clean_linker_1, # of connection points: 2
#     Edge 21, Type (0, 0), BuildingBlock: KIFKEQ_clean_linker_1, # of connection points: 2
#     Edge 22, Type (0, 0), BuildingBlock: KIFKEQ_clean_linker_1, # of connection points: 2
#     Edge 23, Type (0, 0), BuildingBlock: KIFKEQ_clean_linker_1, # of connection points: 2
# Relax obj value: 0.023
# Max RMSD: 0.118
# Mean RMSD: 0.118
data_MOF--net-ukg--node1-QUQFOY_clean_sbu_1--edge1-KIFKEQ_clean_linker_1
_symmetry_space_group_name_H-M    P1
_symmetry_Int_Tables_number       1
_symmetry_cell_setting            triclinic
loop_
_symmetry_equiv_pos_as_xyz
'x, y, z'
_cell_length_a     32.616943
_cell_length_b     32.656798
_cell_length_c     38.267323
_cell_angle_alpha  89.927719
_cell_angle_beta   90.05196
_cell_angle_gamma 89.990398
loop_
_atom_site_label
_atom_site_type_symbol
_atom_site_fract_x
_atom_site_fract_y
_atom_site_fract_z
_atom_type_partial_charge
O0 O 0.9636 0.64437 0.19483 0.0
Cd1 Cd 0.99322 0.66602 0.1511 0.0
Cd2 Cd 0.04963 0.68226 0.19969 0.0
O3 O 0.01638 0.64196 0.23086 0.0
O4 O 0.96829 0.63748 0.1099 0.0
O5 O 0.03273 0.62851 0.12627 0.0
C6 C 1.00284 0.61884 0.10564 0.0
C7 C 0.12073 0.68847 0.1975 0.0
C8 C 0.97874 0.63494 0.22439 0.0
C9 C 1.00159 0.75282 0.16891 0.0
O10 O 0.02359 0.73897 0.19362 0.0
O11 O 0.98826 0.72897 0.1452 0.0
O12 O 0.10075 0.69546 0.22591 0.0
O13 O 0.10077 0.67389 0.17111 0.0
O14 O 0.37712 0.46323 0.69297 0.0
Cd15 Cd 0.34503 0.4845 0.6503 0.0
Cd16 Cd 0.32824 0.54542 0.69755 0.0
O17 O 0.37117 0.51597 0.72868 0.0
O18 O 0.37172 0.45641 0.6098 0.0
O19 O 0.37456 0.52339 0.61793 0.0
C20 C 0.38607 0.49157 0.6004 0.0
C21 C 0.32112 0.6163 0.69355 0.0
C22 C 0.38542 0.48064 0.72181 0.0
C23 C 0.25826 0.49121 0.67298 0.0
O24 O 0.27212 0.51794 0.69394 0.0
O25 O 0.2818 0.47411 0.65081 0.0
O26 O 0.31495 0.59719 0.72253 0.0
O27 O 0.33478 0.59558 0.66728 0.0
O28 O 0.55337 0.86971 0.1911 0.0
Cd29 Cd 0.52404 0.84586 0.14808 0.0
Cd30 Cd 0.46543 0.83648 0.19535 0.0
O31 O 0.49858 0.87943 0.22383 0.0
O32 O 0.54733 0.8725 0.10529 0.0
O33 O 0.48365 0.88247 0.12344 0.0
C34 C 0.51271 0.89128 0.10169 0.0
C35 C 0.39424 0.8309 0.1931 0.0
C36 C 0.53692 0.88368 0.21874 0.0
C37 C 0.51166 0.76152 0.17057 0.0
O38 O 0.49009 0.77872 0.19394 0.0
O39 O 0.52639 0.78242 0.14545 0.0
O40 O 0.41392 0.8267 0.22208 0.0
O41 O 0.41456 0.84253 0.16587 0.0
O42 O 0.14797 0.05267 0.68836 0.0
Cd43 Cd 0.17166 0.02548 0.64435 0.0
Cd44 Cd 0.1857 0.96644 0.69166 0.0
O45 O 0.14499 0.99875 0.72299 0.0
O46 O 0.14371 0.05316 0.60412 0.0
O47 O 0.1364 0.98722 0.61584 0.0
C48 C 0.12631 0.01863 0.59708 0.0
C49 C 0.19047 0.89523 0.68965 0.0
C50 C 0.13785 0.03649 0.71731 0.0
C51 C 0.25783 0.01578 0.66434 0.0
O52 O 0.243 0.99196 0.68735 0.0
O53 O 0.23484 0.03114 0.64082 0.0
O54 O 0.19754 0.91516 0.71803 0.0
O55 O 0.17716 0.91542 0.66289 0.0
O56 O 0.04503 0.37781 0.83531 0.0
Cd57 Cd 0.02645 0.34623 0.87911 0.0
Cd58 Cd 0.96657 0.32196 0.83189 0.0
O59 O 0.99466 0.36355 0.79864 0.0
O60 O 0.05595 0.37481 0.91802 0.0
O61 O 0.98849 0.37487 0.91297 0.0
C62 C 0.02091 0.38773 0.92903 0.0
C63 C 0.89583 0.31209 0.83486 0.0
C64 C 0.02824 0.38165 0.8055 0.0
C65 C 0.02559 0.25775 0.85933 0.0
O66 O 0.99701 0.26783 0.83851 0.0
O67 O 0.04154 0.28409 0.87979 0.0
O68 O 0.91606 0.30448 0.80673 0.0
O69 O 0.91526 0.32838 0.86078 0.0
O70 O 0.63122 0.54898 0.33373 0.0
Cd71 Cd 0.66148 0.52669 0.37699 0.0
Cd72 Cd 0.68702 0.47003 0.32633 0.0
O73 O 0.64525 0.5008 0.29498 0.0
O74 O 0.63228 0.55127 0.41798 0.0
O75 O 0.63084 0.48508 0.40599 0.0
C76 C 0.61822 0.51527 0.425 0.0
C77 C 0.69976 0.39992 0.32082 0.0
C78 C 0.62727 0.53398 0.30326 0.0
C79 C 0.75049 0.52642 0.35961 0.0
O80 O 0.74065 0.49991 0.33693 0.0
O81 O 0.72371 0.54106 0.38033 0.0
O82 O 0.70834 0.42531 0.29614 0.0
O83 O 0.68061 0.41386 0.34784 0.0
O84 O 0.45756 0.14477 0.83517 0.0
Cd85 Cd 0.48389 0.16927 0.87932 0.0
Cd86 Cd 0.54574 0.17754 0.8347 0.0
O87 O 0.51395 0.1353 0.80452 0.0
O88 O 0.45678 0.14225 0.9202 0.0
O89 O 0.52252 0.13426 0.90756 0.0
C90 C 0.49139 0.12462 0.92682 0.0
C91 C 0.61703 0.18091 0.83849 0.0
C92 C 0.47544 0.13095 0.80815 0.0
C93 C 0.49827 0.25334 0.85699 0.0
O94 O 0.52195 0.2358 0.83532 0.0
O95 O 0.48102 0.23273 0.8811 0.0
O96 O 0.59825 0.18627 0.80924 0.0
O97 O 0.59561 0.16998 0.86529 0.0
O98 O 0.87212 0.96057 0.33095 0.0
Cd99 Cd 0.84845 0.98938 0.37427 0.0
Cd100 Cd 0.83408 0.04754 0.32537 0.0
O101 O 0.87565 0.01417 0.29585 0.0
O102 O 0.876 0.96512 0.41627 0.0
O103 O 0.88474 0.02947 0.39968 0.0
C104 C 0.89415 0.99986 0.4207 0.0
C105 C 0.82735 0.11857 0.32084 0.0
C106 C 0.88293 0.97659 0.30209 0.0
C107 C 0.76218 0.99896 0.35485 0.0
O108 O 0.77694 0.02195 0.33124 0.0
O109 O 0.7853 0.98421 0.37852 0.0
O110 O 0.81955 0.09476 0.29492 0.0
O111 O 0.84261 0.10233 0.34876 0.0
H112 H 0.95239 0.41705 0.96239 0.0
H113 H 0.08407 0.4298 0.95911 0.0
H114 H 0.94865 0.47188 1.00553 0.0
H115 H 0.08036 0.48561 1.00091 0.0
H116 H 0.94995 0.59959 0.05266 0.0
H117 H 0.9546 0.54322 1.0113 0.0
H118 H 0.06868 0.50503 0.05885 0.0
H119 H 0.06472 0.56257 0.09921 0.0
C120 C 0.98056 0.43148 0.97094 0.0
C121 C 0.01851 0.41887 0.95731 0.0
C122 C 0.97844 0.46331 0.99546 0.0
C123 C 0.01418 0.48372 1.00673 0.0
C124 C 0.05217 0.47048 0.99344 0.0
C125 C 0.0543 0.43842 0.96924 0.0
C126 C 0.9762 0.57934 0.0541 0.0
C127 C 1.00704 0.58575 0.0792 0.0
C128 C 0.97868 0.54662 0.03056 0.0
C129 C 0.01186 0.51903 0.03168 0.0
C130 C 0.0429 0.52576 0.05669 0.0
C131 C 0.04062 0.55879 0.08 0.0
H132 H 0.41477 0.56054 0.56739 0.0
H133 H 0.42974 0.42928 0.57094 0.0
H134 H 0.47036 0.56531 0.52499 0.0
H135 H 0.48656 0.434 0.53017 0.0
H136 H 0.56563 0.45067 0.43318 0.0
H137 H 0.50803 0.44516 0.47335 0.0
H138 H 0.54116 0.56163 0.51904 0.0
H139 H 0.59734 0.56788 0.47756 0.0
C140 C 0.4299 0.53268 0.55907 0.0
C141 C 0.41762 0.49454 0.57247 0.0
C142 C 0.46221 0.53539 0.53501 0.0
C143 C 0.4836 0.50008 0.52412 0.0
C144 C 0.47072 0.46189 0.53727 0.0
C145 C 0.43806 0.45916 0.56088 0.0
C146 C 0.56079 0.47491 0.45203 0.0
C147 C 0.58613 0.50969 0.45214 0.0
C148 C 0.52769 0.47176 0.47524 0.0
C149 C 0.51937 0.50306 0.49959 0.0
C150 C 0.54566 0.5373 0.50025 0.0
C151 C 0.57832 0.54071 0.47668 0.0
H152 H 0.56168 0.9073 0.04529 0.0
H153 H 0.45285 0.94987 0.09801 0.0
H154 H 0.55609 0.96348 1.00365 0.0
H155 H 0.44822 0.00729 0.05755 0.0
H156 H 0.42871 0.0856 0.96043 0.0
H157 H 0.43283 0.02859 1.00116 0.0
H158 H 0.56519 0.03379 0.99659 0.0
H159 H 0.56078 0.08962 0.95437 0.0
C160 C 0.53653 0.92872 0.048 0.0
C161 C 0.50762 0.92394 0.07492 0.0
C162 C 0.53354 0.96134 0.0243 0.0
C163 C 0.50188 0.99052 0.02715 0.0
C164 C 0.47271 0.98533 0.05397 0.0
C165 C 0.47539 0.95236 0.07735 0.0
C166 C 0.45873 0.07476 0.96829 0.0
C167 C 0.49442 0.09225 0.95409 0.0
C168 C 0.46114 0.04202 0.99187 0.0
C169 C 0.49937 0.0261 1.00237 0.0
C170 C 0.53512 0.04437 0.98871 0.0
C171 C 0.53267 0.07679 0.96471 0.0
H172 H 0.95226 0.06008 0.42573 0.0
H173 H 0.9102 0.94963 0.47627 0.0
H174 H 0.00934 0.06414 0.46665 0.0
H175 H 0.96598 0.9546 0.51837 0.0
H176 H 0.09186 0.94972 0.56841 0.0
H177 H 0.03633 0.94593 0.52582 0.0
H178 H 0.02999 0.07818 0.52343 0.0
H179 H 0.08671 0.08171 0.56453 0.0
C180 C 0.95479 0.03704 0.446 0.0
C181 C 0.92664 1.00454 0.44769 0.0
C182 C 0.98756 0.03939 0.46965 0.0
C183 C 0.99277 0.00959 0.496 0.0
C184 C 0.96383 0.97765 0.49809 0.0
C185 C 0.93145 0.975 0.47413 0.0
C186 C 0.07882 0.97795 0.55849 0.0
C187 C 0.0939 0.01599 0.5698 0.0
C188 C 0.04658 0.97584 0.53427 0.0
C189 C 0.02811 0.01175 0.52108 0.0
C190 C 0.04359 0.04978 0.53233 0.0
C191 C 0.07616 0.05185 0.55613 0.0
H192 H 0.17833 0.69461 0.24876 0.0
H193 H 0.15845 0.71736 0.139 0.0
H194 H 0.24384 0.73 0.24568 0.0
H195 H 0.22254 0.75539 0.13612 0.0
H196 H 0.357 0.79616 0.13676 0.0
H197 H 0.2929 0.75803 0.13632 0.0
H198 H 0.27056 0.79481 0.24325 0.0
H199 H 0.3361 0.83033 0.24411 0.0
C200 C 0.18826 0.70694 0.22386 0.0
C201 C 0.16344 0.70304 0.19411 0.0
C202 C 0.22553 0.72796 0.22215 0.0
C203 C 0.23842 0.74674 0.19083 0.0
C204 C 0.21415 0.74128 0.16069 0.0
C205 C 0.17731 0.71932 0.16226 0.0
C206 C 0.33791 0.79669 0.15991 0.0
C207 C 0.35149 0.81622 0.19047 0.0
C208 C 0.30105 0.77467 0.15975 0.0
C209 C 0.27648 0.7724 0.18998 0.0
C210 C 0.28909 0.79438 0.21981 0.0
C211 C 0.32638 0.81547 0.22019 0.0
H212 H 0.31949 0.67502 0.74378 0.0
H213 H 0.2901 0.65345 0.63545 0.0
H214 H 0.28665 0.74176 0.7407 0.0
H215 H 0.25454 0.71902 0.63268 0.0
H216 H 0.2207 0.85567 0.63259 0.0
H217 H 0.25548 0.78964 0.6317 0.0
H218 H 0.22265 0.7708 0.7401 0.0
H219 H 0.19061 0.83802 0.74129 0.0
C220 C 0.30617 0.68481 0.7192 0.0
C221 C 0.3075 0.6592 0.68984 0.0
C222 C 0.28663 0.72283 0.7175 0.0
C223 C 0.26678 0.73574 0.68666 0.0
C224 C 0.26957 0.71057 0.65686 0.0
C225 C 0.29007 0.6729 0.65836 0.0
C226 C 0.22034 0.83695 0.65598 0.0
C227 C 0.20304 0.85192 0.68702 0.0
C228 C 0.2404 0.79902 0.65556 0.0
C229 C 0.24286 0.77485 0.68604 0.0
C230 C 0.22294 0.78895 0.71641 0.0
C231 C 0.20385 0.82724 0.71702 0.0
H232 H 0.65475 0.21508 0.89486 0.0
H233 H 0.6763 0.17624 0.78878 0.0
H234 H 0.72099 0.24955 0.89563 0.0
H235 H 0.74371 0.20799 0.79005 0.0
H236 H 0.83902 0.30525 0.78326 0.0
H237 H 0.77252 0.27192 0.78643 0.0
H238 H 0.79176 0.24874 0.89662 0.0
H239 H 0.85712 0.28479 0.89356 0.0
C240 C 0.67438 0.21272 0.87212 0.0
C241 C 0.66044 0.19308 0.84174 0.0
C242 C 0.71243 0.23259 0.87247 0.0
C243 C 0.73773 0.23253 0.84263 0.0
C244 C 0.72469 0.21022 0.81313 0.0
C245 C 0.68629 0.1913 0.81252 0.0
C246 C 0.82854 0.29373 0.80827 0.0
C247 C 0.85308 0.29774 0.83817 0.0
C248 C 0.79066 0.27392 0.81006 0.0
C249 C 0.77682 0.25648 0.84163 0.0
C250 C 0.80095 0.26187 0.87186 0.0
C251 C 0.83848 0.28264 0.87019 0.0
H252 H 0.69447 0.34003 0.37104 0.0
H253 H 0.74246 0.36432 0.26787 0.0
H254 H 0.7279 0.273 0.37074 0.0
H255 H 0.77662 0.29828 0.26798 0.0
H256 H 0.79537 0.15972 0.26527 0.0
H257 H 0.7631 0.22668 0.26513 0.0
H258 H 0.79627 0.24292 0.37359 0.0
H259 H 0.82778 0.17496 0.37398 0.0
C260 C 0.7118 0.33094 0.3482 0.0
C261 C 0.71563 0.35746 0.31943 0.0
C262 C 0.73142 0.29278 0.3482 0.0
C263 C 0.75527 0.28036 0.31945 0.0
C264 C 0.75823 0.3066 0.29043 0.0
C265 C 0.7386 0.34457 0.29039 0.0
C266 C 0.79634 0.17773 0.28901 0.0
C267 C 0.81415 0.16194 0.31967 0.0
C268 C 0.77782 0.21625 0.28891 0.0
C269 C 0.77673 0.24012 0.31943 0.0
C270 C 0.79589 0.225 0.3498 0.0
C271 C 0.81445 0.1863 0.34991 0.0
H272 H 0.82096 0.48533 0.34619 0.0
H273 H 0.77331 0.60651 0.36529 0.0
H274 H 0.88355 0.51488 0.32199 0.0
H275 H 0.83588 0.63617 0.34053 0.0
H276 H 0.89734 0.64933 0.22893 0.0
H277 H 0.84969 0.62685 0.27365 0.0
H278 H 0.9479 0.56494 0.32786 0.0
H279 H 0.99663 0.58861 0.28295 0.0
C280 C 0.82467 0.5183 0.34656 0.0
C281 C 0.79222 0.54369 0.35733 0.0
C282 C 0.86054 0.53519 0.33275 0.0
C283 C 0.86425 0.57775 0.32894 0.0
C284 C 0.8336 0.6032 0.34303 0.0
C285 C 0.79795 0.58627 0.35744 0.0
C286 C 0.90903 0.63106 0.25039 0.0
C287 C 0.95072 0.62033 0.25218 0.0
C288 C 0.88175 0.6187 0.27631 0.0
C289 C 0.89519 0.59466 0.30448 0.0
C290 C 0.93689 0.58382 0.30653 0.0
C291 C 0.96463 0.59714 0.28083 0.0
H292 H 0.37926 0.48343 0.79331 0.0
H293 H 0.44476 0.42473 0.70915 0.0
H294 H 0.41135 0.43614 0.83528 0.0
H295 H 0.47682 0.37829 0.75061 0.0
H296 H 0.54689 0.31082 0.82728 0.0
H297 H 0.52496 0.37527 0.80125 0.0
H298 H 0.40383 0.35807 0.8442 0.0
H299 H 0.42607 0.29345 0.87082 0.0
C300 C 0.40128 0.46118 0.78395 0.0
C301 C 0.40953 0.45764 0.748 0.0
C302 C 0.41937 0.43401 0.80788 0.0
C303 C 0.44666 0.4036 0.79626 0.0
C304 C 0.45638 0.4017 0.76051 0.0
C305 C 0.43785 0.42818 0.73669 0.0
C306 C 0.51591 0.32139 0.8321 0.0
C307 C 0.48796 0.29681 0.85057 0.0
C308 C 0.50335 0.35824 0.8171 0.0
C309 C 0.46247 0.37124 0.82004 0.0
C310 C 0.43556 0.34883 0.84153 0.0
C311 C 0.44827 0.31184 0.85679 0.0
H312 H 0.5185 0.94161 0.26874 0.0
H313 H 0.61593 0.86371 0.23114 0.0
H314 H 0.56555 0.97017 0.31291 0.0
H315 H 0.66186 0.89106 0.27534 0.0
H316 H 0.73079 0.92343 0.36962 0.0
H317 H 0.66828 0.89441 0.34426 0.0
H318 H 0.63546 0.01314 0.30334 0.0
H319 H 0.69812 0.04202 0.32811 0.0
C320 C 0.54969 0.93035 0.27016 0.0
C321 C 0.56373 0.90086 0.24625 0.0
C322 C 0.57644 0.9465 0.29542 0.0
C323 C 0.61709 0.93233 0.29779 0.0
C324 C 0.63051 0.90201 0.27452 0.0
C325 C 0.60431 0.88677 0.2489 0.0
C326 C 0.70937 0.94365 0.35652 0.0
C327 C 0.71946 0.98484 0.35048 0.0
C328 C 0.67376 0.92701 0.34184 0.0
C329 C 0.64739 0.95151 0.32154 0.0
C330 C 0.65516 0.99365 0.31896 0.0
C331 C 0.69108 0.01011 0.33307 0.0
H332 H 0.10624 0.23594 0.86329 0.0
H333 H 0.98538 0.18743 0.84338 0.0
H334 H 0.13656 0.17505 0.83641 0.0
H335 H 0.01565 0.1265 0.81699 0.0
H336 H 0.0915 0.016 0.77516 0.0
H337 H 0.06688 0.06278 0.82109 0.0
H338 H 0.12682 0.16371 0.76918 0.0
H339 H 0.15026 0.11799 0.72346 0.0
C340 C 0.08623 0.21146 0.8547 0.0
C341 C 0.04351 0.21654 0.85503 0.0
C342 C 0.10354 0.17676 0.8391 0.0
C343 C 0.07837 0.14641 0.82423 0.0
C344 C 0.03575 0.14933 0.82832 0.0
C345 C 0.01846 0.18426 0.84335 0.0
C346 C 0.09935 0.04818 0.77373 0.0
C347 C 0.12234 0.0634 0.74548 0.0
C348 C 0.0855 0.0748 0.80002 0.0
C349 C 0.09557 0.11669 0.79893 0.0
C350 C 0.11928 0.13147 0.77108 0.0
C351 C 0.13218 0.10529 0.7446 0.0
H352 H 0.03161 0.36515 0.73533 0.0
H353 H 0.07731 0.44764 0.81433 0.0
H354 H 0.0801 0.39437 0.69293 0.0
H355 H 0.12491 0.47692 0.77234 0.0
H356 H 0.19483 0.53919 0.69258 0.0
H357 H 0.1296 0.5166 0.7167 0.0
H358 H 0.15929 0.39165 0.69007 0.0
H359 H 0.22477 0.41453 0.66529 0.0
C360 C 0.05112 0.39031 0.7433 0.0
C361 C 0.05076 0.40421 0.77808 0.0
C362 C 0.07904 0.40674 0.71916 0.0
C363 C 0.10627 0.43793 0.72928 0.0
C364 C 0.10401 0.4533 0.76354 0.0
C365 C 0.07684 0.43644 0.78768 0.0
C366 C 0.18689 0.50703 0.69085 0.0
C367 C 0.2151 0.4785 0.67757 0.0
C368 C 0.14958 0.49411 0.70477 0.0
C369 C 0.13974 0.4523 0.70596 0.0
C370 C 0.16604 0.42411 0.68945 0.0
C371 C 0.20352 0.43716 0.67525 0.0
H372 H 0.56557 0.58756 0.31559 0.0
H373 H 0.63638 0.53426 0.23188 0.0
H374 H 0.53324 0.63401 0.27443 0.0
H375 H 0.60372 0.58137 0.19018 0.0
H376 H 0.46384 0.70251 0.19871 0.0
H377 H 0.48685 0.63784 0.22369 0.0
H378 H 0.60799 0.65866 0.18182 0.0
H379 H 0.58449 0.72326 0.15602 0.0
C380 C 0.57368 0.58529 0.2882 0.0
C381 C 0.60359 0.55738 0.277 0.0
C382 C 0.55492 0.61175 0.2645 0.0
C383 C 0.56584 0.61131 0.22897 0.0
C384 C 0.59477 0.58242 0.21741 0.0
C385 C 0.61321 0.55534 0.2412 0.0
C386 C 0.49502 0.69259 0.19383 0.0
C387 C 0.52258 0.71809 0.17589 0.0
C388 C 0.50824 0.65567 0.20827 0.0
C389 C 0.54945 0.64367 0.20546 0.0
C390 C 0.57602 0.66708 0.18441 0.0
C391 C 0.5626 0.70406 0.1696 0.0
H392 H 0.39652 0.14954 0.79381 0.0
H393 H 0.49712 0.07471 0.75769 0.0
H394 H 0.35313 0.12262 0.74765 0.0
H395 H 0.45262 0.04659 0.71146 0.0
H396 H 0.32197 0.97282 0.69105 0.0
H397 H 0.38334 1.00201 0.71779 0.0
H398 H 0.34967 0.12133 0.67864 0.0
H399 H 0.28845 0.09203 0.65137 0.0
C400 C 0.40938 0.12724 0.77597 0.0
C401 C 0.45011 0.11388 0.7796 0.0
C402 C 0.38465 0.11227 0.74922 0.0
C403 C 0.3997 0.08297 0.72573 0.0
C404 C 0.44049 0.0695 0.7291 0.0
C405 C 0.46578 0.08538 0.75554 0.0
C406 C 0.32862 1.00497 0.68688 0.0
C407 C 0.30027 0.03029 0.66948 0.0
C408 C 0.36381 0.02162 0.70211 0.0
C409 C 0.37084 0.06395 0.70064 0.0
C410 C 0.34473 0.08858 0.68023 0.0
C411 C 0.30985 0.07178 0.66445 0.0
H412 H 0.92528 0.78173 0.15365 0.0
H413 H 0.04354 0.81862 0.19333 0.0
H414 H 0.8948 0.844 0.178 0.0
H415 H 0.01323 0.88115 0.21694 0.0
H416 H 0.93708 0.99657 0.24956 0.0
H417 H 0.96608 0.94983 0.20545 0.0
H418 H 0.89453 0.85062 0.24825 0.0
H419 H 0.86688 0.89631 0.29249 0.0
C420 C 0.94509 0.80408 0.16601 0.0
C421 C 0.98664 0.79528 0.17194 0.0
C422 C 0.92763 0.83955 0.18008 0.0
C423 C 0.95169 0.86703 0.19957 0.0
C424 C 0.99411 0.86055 0.20187 0.0
C425 C 0.01139 0.82475 0.18843 0.0
C426 C 0.92757 0.96479 0.2493 0.0
C427 C 0.90018 0.94989 0.27467 0.0
C428 C 0.94393 0.93825 0.22408 0.0
C429 C 0.93196 0.8969 0.22323 0.0
C430 C 0.90369 0.88252 0.24795 0.0
C431 C 0.88831 0.90857 0.27356 0.0
loop_
_geom_bond_atom_site_label_1
_geom_bond_atom_site_label_2
_geom_bond_distance
_geom_bond_site_symmetry_2
_ccdc_geom_bond_type
O0 Cd1 2.223 . S
O0 C8 1.315 . S
Cd1 O0 2.223 . S
Cd1 O4 2.297 . S
Cd1 O5 2.439 1_655 S
Cd1 O11 2.240 1_655 S
Cd2 O3 2.248 . S
Cd2 O10 2.223 . S
Cd2 O12 2.297 . S
Cd2 O13 2.439 . S
O3 Cd2 2.248 . S
O3 C8 1.268 1_455 S
O4 Cd1 2.297 . S
O4 C6 1.247 1_655 S
O5 Cd1 2.439 1_455 S
O5 C6 1.208 . S
C6 O4 1.247 1_455 S
C6 O5 1.208 . S
C7 O12 1.247 . S
C7 O13 1.208 . S
C8 O0 1.315 . S
C8 O3 1.268 1_655 S
C9 O10 1.315 1_655 S
C9 O11 1.279 1_655 S
O10 Cd2 2.223 . S
O10 C9 1.315 1_455 S
O11 Cd1 2.240 1_455 S
O11 C9 1.279 1_455 S
O12 Cd2 2.297 . S
O12 C7 1.247 . S
O13 Cd2 2.439 . S
O13 C7 1.208 . S
O14 Cd15 2.223 . S
O14 C22 1.315 . S
Cd15 O14 2.223 . S
Cd15 O18 2.297 . S
Cd15 O19 2.439 . S
Cd15 O25 2.240 . S
Cd16 O17 2.240 . S
Cd16 O24 2.223 . S
Cd16 O26 2.297 . S
Cd16 O27 2.439 . S
O17 Cd16 2.240 . S
O17 C22 1.279 . S
O18 Cd15 2.297 . S
O18 C20 1.247 . S
O19 Cd15 2.439 . S
O19 C20 1.208 . S
C20 O18 1.247 . S
C20 O19 1.208 . S
C21 O26 1.247 . S
C21 O27 1.208 . S
C22 O14 1.315 . S
C22 O17 1.279 . S
C23 O24 1.315 . S
C23 O25 1.279 . S
O24 Cd16 2.223 . S
O24 C23 1.315 . S
O25 Cd15 2.240 . S
O25 C23 1.279 . S
O26 Cd16 2.297 . S
O26 C21 1.247 . S
O27 Cd16 2.439 . S
O27 C21 1.208 . S
O28 Cd29 2.223 . S
O28 C36 1.315 . S
Cd29 O28 2.223 . S
Cd29 O32 2.297 . S
Cd29 O33 2.439 . S
Cd29 O39 2.240 . S
Cd30 O31 2.240 . S
Cd30 O38 2.223 . S
Cd30 O40 2.297 . S
Cd30 O41 2.439 . S
O31 Cd30 2.240 . S
O31 C36 1.279 . S
O32 Cd29 2.297 . S
O32 C34 1.247 . S
O33 Cd29 2.439 . S
O33 C34 1.208 . S
C34 O32 1.247 . S
C34 O33 1.208 . S
C35 O40 1.247 . S
C35 O41 1.208 . S
C36 O28 1.315 . S
C36 O31 1.279 . S
C37 O38 1.315 . S
C37 O39 1.279 . S
O38 Cd30 2.223 . S
O38 C37 1.315 . S
O39 Cd29 2.240 . S
O39 C37 1.279 . S
O40 Cd30 2.297 . S
O40 C35 1.247 . S
O41 Cd30 2.439 . S
O41 C35 1.208 . S
O42 Cd43 2.223 . S
O42 C50 1.315 . S
Cd43 O42 2.223 . S
Cd43 O46 2.297 . S
Cd43 O47 2.439 1_545 S
Cd43 O53 2.240 1_545 S
Cd44 O45 2.248 . S
Cd44 O52 2.223 . S
Cd44 O54 2.297 . S
Cd44 O55 2.439 . S
O45 Cd44 2.248 . S
O45 C50 1.268 1_565 S
O46 Cd43 2.297 . S
O46 C48 1.247 1_545 S
O47 Cd43 2.439 1_565 S
O47 C48 1.208 . S
C48 O46 1.247 1_565 S
C48 O47 1.208 . S
C49 O54 1.247 . S
C49 O55 1.208 . S
C50 O42 1.315 . S
C50 O45 1.268 1_545 S
C51 O52 1.315 1_545 S
C51 O53 1.279 1_545 S
O52 Cd44 2.223 . S
O52 C51 1.315 1_565 S
O53 Cd43 2.240 1_565 S
O53 C51 1.279 1_565 S
O54 Cd44 2.297 . S
O54 C49 1.247 . S
O55 Cd44 2.439 . S
O55 C49 1.208 . S
O56 Cd57 2.223 . S
O56 C64 1.315 . S
Cd57 O56 2.223 . S
Cd57 O60 2.297 . S
Cd57 O61 2.439 1_455 S
Cd57 O67 2.240 1_455 S
Cd58 O59 2.248 . S
Cd58 O66 2.223 . S
Cd58 O68 2.297 . S
Cd58 O69 2.439 . S
O59 Cd58 2.248 . S
O59 C64 1.268 1_655 S
O60 Cd57 2.297 . S
O60 C62 1.247 1_455 S
O61 Cd57 2.439 1_655 S
O61 C62 1.208 . S
C62 O60 1.247 1_655 S
C62 O61 1.208 . S
C63 O68 1.247 . S
C63 O69 1.208 . S
C64 O56 1.315 . S
C64 O59 1.268 1_455 S
C65 O66 1.315 1_455 S
C65 O67 1.279 1_455 S
O66 Cd58 2.223 . S
O66 C65 1.315 1_655 S
O67 Cd57 2.240 1_655 S
O67 C65 1.279 1_655 S
O68 Cd58 2.297 . S
O68 C63 1.247 . S
O69 Cd58 2.439 . S
O69 C63 1.208 . S
O70 Cd71 2.223 . S
O70 C78 1.315 . S
Cd71 O70 2.223 . S
Cd71 O74 2.297 . S
Cd71 O75 2.439 . S
Cd71 O81 2.240 . S
Cd72 O73 2.240 . S
Cd72 O80 2.223 . S
Cd72 O82 2.297 . S
Cd72 O83 2.439 . S
O73 Cd72 2.240 . S
O73 C78 1.279 . S
O74 Cd71 2.297 . S
O74 C76 1.247 . S
O75 Cd71 2.439 . S
O75 C76 1.208 . S
C76 O74 1.247 . S
C76 O75 1.208 . S
C77 O82 1.247 . S
C77 O83 1.208 . S
C78 O70 1.315 . S
C78 O73 1.279 . S
C79 O80 1.315 . S
C79 O81 1.279 . S
O80 Cd72 2.223 . S
O80 C79 1.315 . S
O81 Cd71 2.240 . S
O81 C79 1.279 . S
O82 Cd72 2.297 . S
O82 C77 1.247 . S
O83 Cd72 2.439 . S
O83 C77 1.208 . S
O84 Cd85 2.223 . S
O84 C92 1.315 . S
Cd85 O84 2.223 . S
Cd85 O88 2.297 . S
Cd85 O89 2.439 . S
Cd85 O95 2.240 . S
Cd86 O87 2.240 . S
Cd86 O94 2.223 . S
Cd86 O96 2.297 . S
Cd86 O97 2.439 . S
O87 Cd86 2.240 . S
O87 C92 1.279 . S
O88 Cd85 2.297 . S
O88 C90 1.247 . S
O89 Cd85 2.439 . S
O89 C90 1.208 . S
C90 O88 1.247 . S
C90 O89 1.208 . S
C91 O96 1.247 . S
C91 O97 1.208 . S
C92 O84 1.315 . S
C92 O87 1.279 . S
C93 O94 1.315 . S
C93 O95 1.279 . S
O94 Cd86 2.223 . S
O94 C93 1.315 . S
O95 Cd85 2.240 . S
O95 C93 1.279 . S
O96 Cd86 2.297 . S
O96 C91 1.247 . S
O97 Cd86 2.439 . S
O97 C91 1.208 . S
O98 Cd99 2.223 . S
O98 C106 1.315 . S
Cd99 O98 2.223 . S
Cd99 O102 2.297 . S
Cd99 O103 2.439 1_565 S
Cd99 O109 2.240 1_565 S
Cd100 O101 2.248 . S
Cd100 O108 2.223 . S
Cd100 O110 2.297 . S
Cd100 O111 2.439 . S
O101 Cd100 2.248 . S
O101 C106 1.268 1_545 S
O102 Cd99 2.297 . S
O102 C104 1.247 1_565 S
O103 Cd99 2.439 1_545 S
O103 C104 1.208 . S
C104 O102 1.247 1_545 S
C104 O103 1.208 . S
C105 O110 1.247 . S
C105 O111 1.208 . S
C106 O98 1.315 . S
C106 O101 1.268 1_565 S
C107 O108 1.315 1_565 S
C107 O109 1.279 1_565 S
O108 Cd100 2.223 . S
O108 C107 1.315 1_545 S
O109 Cd99 2.240 1_545 S
O109 C107 1.279 1_545 S
O110 Cd100 2.297 . S
O110 C105 1.247 . S
O111 Cd100 2.439 . S
O111 C105 1.208 . S
H112 C120 0.950 . S
H113 C125 0.950 . S
H114 C122 0.950 1_554 S
H115 C124 0.950 . S
H116 C126 0.950 . S
H117 C128 0.950 1_556 S
H118 C130 0.950 . S
H119 C131 0.950 . S
C120 H112 0.950 . S
C120 C121 1.386 . S
C120 C122 1.391 . S
C121 C120 1.386 . S
C121 C125 1.393 1_655 S
C122 H114 0.950 1_556 S
C122 C120 1.391 . S
C122 C123 1.403 . S
C123 C122 1.403 . S
C123 C124 1.396 1_655 S
C123 C129 1.490 1_656 S
C124 H115 0.950 . S
C124 C123 1.396 1_455 S
C124 C125 1.391 . S
C125 H113 0.950 . S
C125 C121 1.393 1_455 S
C125 C124 1.391 . S
C126 H116 0.950 . S
C126 C127 1.386 . S
C126 C128 1.391 . S
C127 C126 1.386 . S
C127 C131 1.393 1_455 S
C128 H117 0.950 1_554 S
C128 C126 1.391 . S
C128 C129 1.403 . S
C129 C123 1.490 1_454 S
C129 C128 1.403 . S
C129 C130 1.396 1_455 S
C130 H118 0.950 . S
C130 C129 1.396 1_655 S
C130 C131 1.391 . S
C131 H119 0.950 . S
C131 C127 1.393 1_655 S
C131 C130 1.391 . S
H132 C140 0.950 . S
H133 C145 0.950 . S
H134 C142 0.950 . S
H135 C144 0.950 . S
H136 C146 0.950 . S
H137 C148 0.950 . S
H138 C150 0.950 . S
H139 C151 0.950 . S
C140 H132 0.950 . S
C140 C141 1.386 . S
C140 C142 1.391 . S
C141 C140 1.386 . S
C141 C145 1.393 . S
C142 H134 0.950 . S
C142 C140 1.391 . S
C142 C143 1.400 . S
C143 C142 1.400 . S
C143 C144 1.398 . S
C143 C149 1.491 . S
C144 H135 0.950 . S
C144 C143 1.398 . S
C144 C145 1.391 . S
C145 H133 0.950 . S
C145 C141 1.393 . S
C145 C144 1.391 . S
C146 H136 0.950 . S
C146 C147 1.386 . S
C146 C148 1.391 . S
C147 C146 1.386 . S
C147 C151 1.393 . S
C148 H137 0.950 . S
C148 C146 1.391 . S
C148 C149 1.400 . S
C149 C143 1.491 . S
C149 C148 1.400 . S
C149 C150 1.398 . S
C150 H138 0.950 . S
C150 C149 1.398 . S
C150 C151 1.391 . S
C151 H139 0.950 . S
C151 C147 1.393 . S
C151 C150 1.391 . S
H152 C160 0.950 . S
H153 C165 0.950 . S
H154 C162 0.950 1_545 S
H155 C164 0.950 1_556 S
H156 C166 0.950 . S
H157 C168 0.950 1_565 S
H158 C170 0.950 1_554 S
H159 C171 0.950 . S
C160 H152 0.950 . S
C160 C161 1.386 . S
C160 C162 1.391 . S
C161 C160 1.386 . S
C161 C165 1.393 . S
C162 H154 0.950 1_565 S
C162 C160 1.391 . S
C162 C163 1.400 . S
C163 C162 1.400 . S
C163 C164 1.398 . S
C163 C169 1.491 1_564 S
C164 H155 0.950 1_554 S
C164 C163 1.398 . S
C164 C165 1.391 . S
C165 H153 0.950 . S
C165 C161 1.393 . S
C165 C164 1.391 . S
C166 H156 0.950 . S
C166 C167 1.386 . S
C166 C168 1.391 . S
C167 C166 1.386 . S
C167 C171 1.393 . S
C168 H157 0.950 1_545 S
C168 C166 1.391 . S
C168 C169 1.400 . S
C169 C163 1.491 1_546 S
C169 C168 1.400 . S
C169 C170 1.398 . S
C170 H158 0.950 1_556 S
C170 C169 1.398 . S
C170 C171 1.391 . S
C171 H159 0.950 . S
C171 C167 1.393 . S
C171 C170 1.391 . S
H172 C180 0.950 . S
H173 C185 0.950 . S
H174 C182 0.950 . S
H175 C184 0.950 . S
H176 C186 0.950 . S
H177 C188 0.950 . S
H178 C190 0.950 . S
H179 C191 0.950 . S
C180 H172 0.950 . S
C180 C181 1.386 . S
C180 C182 1.391 . S
C181 C180 1.386 . S
C181 C185 1.393 1_545 S
C182 H174 0.950 . S
C182 C180 1.391 . S
C182 C183 1.425 . S
C183 C182 1.425 . S
C183 C184 1.375 1_545 S
C183 C189 1.489 1_645 S
C184 H175 0.950 . S
C184 C183 1.375 1_565 S
C184 C185 1.391 . S
C185 H173 0.950 . S
C185 C181 1.393 1_565 S
C185 C184 1.391 . S
C186 H176 0.950 . S
C186 C187 1.386 . S
C186 C188 1.391 . S
C187 C186 1.386 . S
C187 C191 1.393 1_565 S
C188 H177 0.950 . S
C188 C186 1.391 . S
C188 C189 1.425 . S
C189 C183 1.489 1_465 S
C189 C188 1.425 . S
C189 C190 1.375 1_565 S
C190 H178 0.950 . S
C190 C189 1.375 1_545 S
C190 C191 1.391 . S
C191 H179 0.950 . S
C191 C187 1.393 1_545 S
C191 C190 1.391 . S
H192 C200 0.950 . S
H193 C205 0.950 . S
H194 C202 0.950 . S
H195 C204 0.950 . S
H196 C206 0.950 . S
H197 C208 0.950 . S
H198 C210 0.950 . S
H199 C211 0.950 . S
C200 H192 0.950 . S
C200 C201 1.386 . S
C200 C202 1.391 . S
C201 C200 1.386 . S
C201 C205 1.393 . S
C202 H194 0.950 . S
C202 C200 1.391 . S
C202 C203 1.400 . S
C203 C202 1.400 . S
C203 C204 1.398 . S
C203 C209 1.491 . S
C204 H195 0.950 . S
C204 C203 1.398 . S
C204 C205 1.391 . S
C205 H193 0.950 . S
C205 C201 1.393 . S
C205 C204 1.391 . S
C206 H196 0.950 . S
C206 C207 1.386 . S
C206 C208 1.391 . S
C207 C206 1.386 . S
C207 C211 1.393 . S
C208 H197 0.950 . S
C208 C206 1.391 . S
C208 C209 1.400 . S
C209 C203 1.491 . S
C209 C208 1.400 . S
C209 C210 1.398 . S
C210 H198 0.950 . S
C210 C209 1.398 . S
C210 C211 1.391 . S
C211 H199 0.950 . S
C211 C207 1.393 . S
C211 C210 1.391 . S
H212 C220 0.950 . S
H213 C225 0.950 . S
H214 C222 0.950 . S
H215 C224 0.950 . S
H216 C226 0.950 . S
H217 C228 0.950 . S
H218 C230 0.950 . S
H219 C231 0.950 . S
C220 H212 0.950 . S
C220 C221 1.386 . S
C220 C222 1.391 . S
C221 C220 1.386 . S
C221 C225 1.393 . S
C222 H214 0.950 . S
C222 C220 1.391 . S
C222 C223 1.400 . S
C223 C222 1.400 . S
C223 C224 1.398 . S
C223 C229 1.491 . S
C224 H215 0.950 . S
C224 C223 1.398 . S
C224 C225 1.391 . S
C225 H213 0.950 . S
C225 C221 1.393 . S
C225 C224 1.391 . S
C226 H216 0.950 . S
C226 C227 1.386 . S
C226 C228 1.391 . S
C227 C226 1.386 . S
C227 C231 1.393 . S
C228 H217 0.950 . S
C228 C226 1.391 . S
C228 C229 1.400 . S
C229 C223 1.491 . S
C229 C228 1.400 . S
C229 C230 1.398 . S
C230 H218 0.950 . S
C230 C229 1.398 . S
C230 C231 1.391 . S
C231 H219 0.950 . S
C231 C227 1.393 . S
C231 C230 1.391 . S
H232 C240 0.950 . S
H233 C245 0.950 . S
H234 C242 0.950 . S
H235 C244 0.950 . S
H236 C246 0.950 . S
H237 C248 0.950 . S
H238 C250 0.950 . S
H239 C251 0.950 . S
C240 H232 0.950 . S
C240 C241 1.386 . S
C240 C242 1.391 . S
C241 C240 1.386 . S
C241 C245 1.393 . S
C242 H234 0.950 . S
C242 C240 1.391 . S
C242 C243 1.400 . S
C243 C242 1.400 . S
C243 C244 1.398 . S
C243 C249 1.491 . S
C244 H235 0.950 . S
C244 C243 1.398 . S
C244 C245 1.391 . S
C245 H233 0.950 . S
C245 C241 1.393 . S
C245 C244 1.391 . S
C246 H236 0.950 . S
C246 C247 1.386 . S
C246 C248 1.391 . S
C247 C246 1.386 . S
C247 C251 1.393 . S
C248 H237 0.950 . S
C248 C246 1.391 . S
C248 C249 1.400 . S
C249 C243 1.491 . S
C249 C248 1.400 . S
C249 C250 1.398 . S
C250 H238 0.950 . S
C250 C249 1.398 . S
C250 C251 1.391 . S
C251 H239 0.950 . S
C251 C247 1.393 . S
C251 C250 1.391 . S
H252 C260 0.950 . S
H253 C265 0.950 . S
H254 C262 0.950 . S
H255 C264 0.950 . S
H256 C266 0.950 . S
H257 C268 0.950 . S
H258 C270 0.950 . S
H259 C271 0.950 . S
C260 H252 0.950 . S
C260 C261 1.386 . S
C260 C262 1.391 . S
C261 C260 1.386 . S
C261 C265 1.393 . S
C262 H254 0.950 . S
C262 C260 1.391 . S
C262 C263 1.400 . S
C263 C262 1.400 . S
C263 C264 1.398 . S
C263 C269 1.491 . S
C264 H255 0.950 . S
C264 C263 1.398 . S
C264 C265 1.391 . S
C265 H253 0.950 . S
C265 C261 1.393 . S
C265 C264 1.391 . S
C266 H256 0.950 . S
C266 C267 1.386 . S
C266 C268 1.391 . S
C267 C266 1.386 . S
C267 C271 1.393 . S
C268 H257 0.950 . S
C268 C266 1.391 . S
C268 C269 1.400 . S
C269 C263 1.491 . S
C269 C268 1.400 . S
C269 C270 1.398 . S
C270 H258 0.950 . S
C270 C269 1.398 . S
C270 C271 1.391 . S
C271 H259 0.950 . S
C271 C267 1.393 . S
C271 C270 1.391 . S
H272 C280 0.950 . S
H273 C285 0.950 . S
H274 C282 0.950 . S
H275 C284 0.950 . S
H276 C286 0.950 . S
H277 C288 0.950 . S
H278 C290 0.950 . S
H279 C291 0.950 . S
C280 H272 0.950 . S
C280 C281 1.386 . S
C280 C282 1.391 . S
C281 C280 1.386 . S
C281 C285 1.393 . S
C282 H274 0.950 . S
C282 C280 1.391 . S
C282 C283 1.400 . S
C283 C282 1.400 . S
C283 C284 1.398 . S
C283 C289 1.491 . S
C284 H275 0.950 . S
C284 C283 1.398 . S
C284 C285 1.391 . S
C285 H273 0.950 . S
C285 C281 1.393 . S
C285 C284 1.391 . S
C286 H276 0.950 . S
C286 C287 1.386 . S
C286 C288 1.391 . S
C287 C286 1.386 . S
C287 C291 1.393 . S
C288 H277 0.950 . S
C288 C286 1.391 . S
C288 C289 1.400 . S
C289 C283 1.491 . S
C289 C288 1.400 . S
C289 C290 1.398 . S
C290 H278 0.950 . S
C290 C289 1.398 . S
C290 C291 1.391 . S
C291 H279 0.950 . S
C291 C287 1.393 . S
C291 C290 1.391 . S
H292 C300 0.950 . S
H293 C305 0.950 . S
H294 C302 0.950 . S
H295 C304 0.950 . S
H296 C306 0.950 . S
H297 C308 0.950 . S
H298 C310 0.950 . S
H299 C311 0.950 . S
C300 H292 0.950 . S
C300 C301 1.386 . S
C300 C302 1.391 . S
C301 C300 1.386 . S
C301 C305 1.393 . S
C302 H294 0.950 . S
C302 C300 1.391 . S
C302 C303 1.400 . S
C303 C302 1.400 . S
C303 C304 1.398 . S
C303 C309 1.491 . S
C304 H295 0.950 . S
C304 C303 1.398 . S
C304 C305 1.391 . S
C305 H293 0.950 . S
C305 C301 1.393 . S
C305 C304 1.391 . S
C306 H296 0.950 . S
C306 C307 1.386 . S
C306 C308 1.391 . S
C307 C306 1.386 . S
C307 C311 1.393 . S
C308 H297 0.950 . S
C308 C306 1.391 . S
C308 C309 1.400 . S
C309 C303 1.491 . S
C309 C308 1.400 . S
C309 C310 1.398 . S
C310 H298 0.950 . S
C310 C309 1.398 . S
C310 C311 1.391 . S
C311 H299 0.950 . S
C311 C307 1.393 . S
C311 C310 1.391 . S
H312 C320 0.950 . S
H313 C325 0.950 . S
H314 C322 0.950 . S
H315 C324 0.950 . S
H316 C326 0.950 . S
H317 C328 0.950 . S
H318 C330 0.950 . S
H319 C331 0.950 . S
C320 H312 0.950 . S
C320 C321 1.386 . S
C320 C322 1.391 . S
C321 C320 1.386 . S
C321 C325 1.393 . S
C322 H314 0.950 . S
C322 C320 1.391 . S
C322 C323 1.400 . S
C323 C322 1.400 . S
C323 C324 1.398 . S
C323 C329 1.491 . S
C324 H315 0.950 . S
C324 C323 1.398 . S
C324 C325 1.391 . S
C325 H313 0.950 . S
C325 C321 1.393 . S
C325 C324 1.391 . S
C326 H316 0.950 . S
C326 C327 1.386 . S
C326 C328 1.391 . S
C327 C326 1.386 . S
C327 C331 1.393 . S
C328 H317 0.950 . S
C328 C326 1.391 . S
C328 C329 1.400 . S
C329 C323 1.491 . S
C329 C328 1.400 . S
C329 C330 1.398 . S
C330 H318 0.950 . S
C330 C329 1.398 . S
C330 C331 1.391 . S
C331 H319 0.950 . S
C331 C327 1.393 . S
C331 C330 1.391 . S
H332 C340 0.950 . S
H333 C345 0.950 . S
H334 C342 0.950 . S
H335 C344 0.950 1_655 S
H336 C346 0.950 . S
H337 C348 0.950 . S
H338 C350 0.950 . S
H339 C351 0.950 . S
C340 H332 0.950 . S
C340 C341 1.386 . S
C340 C342 1.391 . S
C341 C340 1.386 . S
C341 C345 1.393 1_455 S
C342 H334 0.950 . S
C342 C340 1.391 . S
C342 C343 1.400 . S
C343 C342 1.400 . S
C343 C344 1.398 . S
C343 C349 1.491 . S
C344 H335 0.950 1_455 S
C344 C343 1.398 . S
C344 C345 1.391 1_455 S
C345 H333 0.950 . S
C345 C341 1.393 1_655 S
C345 C344 1.391 1_655 S
C346 H336 0.950 . S
C346 C347 1.386 . S
C346 C348 1.391 . S
C347 C346 1.386 . S
C347 C351 1.393 . S
C348 H337 0.950 . S
C348 C346 1.391 . S
C348 C349 1.400 . S
C349 C343 1.491 . S
C349 C348 1.400 . S
C349 C350 1.398 . S
C350 H338 0.950 . S
C350 C349 1.398 . S
C350 C351 1.391 . S
C351 H339 0.950 . S
C351 C347 1.393 . S
C351 C350 1.391 . S
H352 C360 0.950 . S
H353 C365 0.950 . S
H354 C362 0.950 . S
H355 C364 0.950 . S
H356 C366 0.950 . S
H357 C368 0.950 . S
H358 C370 0.950 . S
H359 C371 0.950 . S
C360 H352 0.950 . S
C360 C361 1.386 . S
C360 C362 1.391 . S
C361 C360 1.386 . S
C361 C365 1.393 . S
C362 H354 0.950 . S
C362 C360 1.391 . S
C362 C363 1.400 . S
C363 C362 1.400 . S
C363 C364 1.398 . S
C363 C369 1.491 . S
C364 H355 0.950 . S
C364 C363 1.398 . S
C364 C365 1.391 . S
C365 H353 0.950 . S
C365 C361 1.393 . S
C365 C364 1.391 . S
C366 H356 0.950 . S
C366 C367 1.386 . S
C366 C368 1.391 . S
C367 C366 1.386 . S
C367 C371 1.393 . S
C368 H357 0.950 . S
C368 C366 1.391 . S
C368 C369 1.400 . S
C369 C363 1.491 . S
C369 C368 1.400 . S
C369 C370 1.398 . S
C370 H358 0.950 . S
C370 C369 1.398 . S
C370 C371 1.391 . S
C371 H359 0.950 . S
C371 C367 1.393 . S
C371 C370 1.391 . S
H372 C380 0.950 . S
H373 C385 0.950 . S
H374 C382 0.950 . S
H375 C384 0.950 . S
H376 C386 0.950 . S
H377 C388 0.950 . S
H378 C390 0.950 . S
H379 C391 0.950 . S
C380 H372 0.950 . S
C380 C381 1.386 . S
C380 C382 1.391 . S
C381 C380 1.386 . S
C381 C385 1.393 . S
C382 H374 0.950 . S
C382 C380 1.391 . S
C382 C383 1.400 . S
C383 C382 1.400 . S
C383 C384 1.398 . S
C383 C389 1.491 . S
C384 H375 0.950 . S
C384 C383 1.398 . S
C384 C385 1.391 . S
C385 H373 0.950 . S
C385 C381 1.393 . S
C385 C384 1.391 . S
C386 H376 0.950 . S
C386 C387 1.386 . S
C386 C388 1.391 . S
C387 C386 1.386 . S
C387 C391 1.393 . S
C388 H377 0.950 . S
C388 C386 1.391 . S
C388 C389 1.400 . S
C389 C383 1.491 . S
C389 C388 1.400 . S
C389 C390 1.398 . S
C390 H378 0.950 . S
C390 C389 1.398 . S
C390 C391 1.391 . S
C391 H379 0.950 . S
C391 C387 1.393 . S
C391 C390 1.391 . S
H392 C400 0.950 . S
H393 C405 0.950 . S
H394 C402 0.950 . S
H395 C404 0.950 . S
H396 C406 0.950 1_565 S
H397 C408 0.950 . S
H398 C410 0.950 . S
H399 C411 0.950 . S
C400 H392 0.950 . S
C400 C401 1.386 . S
C400 C402 1.391 . S
C401 C400 1.386 . S
C401 C405 1.393 . S
C402 H394 0.950 . S
C402 C400 1.391 . S
C402 C403 1.400 . S
C403 C402 1.400 . S
C403 C404 1.398 . S
C403 C409 1.491 . S
C404 H395 0.950 . S
C404 C403 1.398 . S
C404 C405 1.391 . S
C405 H393 0.950 . S
C405 C401 1.393 . S
C405 C404 1.391 . S
C406 H396 0.950 1_545 S
C406 C407 1.386 . S
C406 C408 1.391 . S
C407 C406 1.386 . S
C407 C411 1.393 . S
C408 H397 0.950 . S
C408 C406 1.391 . S
C408 C409 1.400 . S
C409 C403 1.491 . S
C409 C408 1.400 . S
C409 C410 1.398 . S
C410 H398 0.950 . S
C410 C409 1.398 . S
C410 C411 1.391 . S
C411 H399 0.950 . S
C411 C407 1.393 . S
C411 C410 1.391 . S
H412 C420 0.950 . S
H413 C425 0.956 . S
H414 C422 0.950 . S
H415 C424 0.950 1_455 S
H416 C426 0.950 . S
H417 C428 0.950 . S
H418 C430 0.950 . S
H419 C431 0.950 . S
C420 H412 0.950 . S
C420 C421 1.386 . S
C420 C422 1.391 . S
C421 C420 1.386 . S
C421 C425 1.389 1_655 S
C422 H414 0.950 . S
C422 C420 1.391 . S
C422 C423 1.400 . S
C423 C422 1.400 . S
C423 C424 1.398 . S
C423 C429 1.491 . S
C424 H415 0.950 1_655 S
C424 C423 1.398 . S
C424 C425 1.388 1_655 S
C425 H413 0.956 . S
C425 C421 1.389 1_455 S
C425 C424 1.388 1_455 S
C426 H416 0.950 . S
C426 C427 1.386 . S
C426 C428 1.391 . S
C427 C426 1.386 . S
C427 C431 1.393 . S
C428 H417 0.950 . S
C428 C426 1.391 . S
C428 C429 1.400 . S
C429 C423 1.491 . S
C429 C428 1.400 . S
C429 C430 1.398 . S
C430 H418 0.950 . S
C430 C429 1.398 . S
C430 C431 1.391 . S
C431 H419 0.950 . S
C431 C427 1.393 . S
C431 C430 1.391 . S
C121 C62 1.491 . S
C127 C6 1.491 . S
C141 C20 1.505 . S
C147 C76 1.505 . S
C161 C34 1.491 . S
C167 C90 1.491 . S
C181 C104 1.494 . S
C187 C48 1.494 . S
C201 C7 1.335 . S
C207 C35 1.322 . S
C221 C21 1.332 . S
C227 C49 1.332 . S
C241 C91 1.334 . S
C247 C63 1.329 . S
C261 C77 1.335 . S
C267 C105 1.322 . S
C281 C79 1.345 . S
C287 C8 1.324 . S
C301 C22 1.312 . S
C307 C93 1.366 . S
C321 C36 1.335 . S
C327 C107 1.358 . S
C341 C65 1.360 . S
C347 C50 1.306 . S
C361 C64 1.335 . S
C367 C23 1.347 . S
C381 C78 1.319 . S
C387 C37 1.347 . S
C401 C92 1.335 . S
C407 C51 1.358 . S
C421 C9 1.346 . S
C427 C106 1.333 . S
