# Generated by pormake.
# Topology dia, (4)-cn, num edge types: 1
# Building blocks:
#     Node 0, Type 0, BuildingBlock: UXUYUI_clean_sbu_0, # of connection points: 4
#     Node 1, Type 0, BuildingBlock: UXUYUI_clean_sbu_0, # of connection points: 4
#     Node 2, Type 0, BuildingBlock: UXUYUI_clean_sbu_0, # of connection points: 4
#     Node 3, Type 0, BuildingBlock: UXUYUI_clean_sbu_0, # of connection points: 4
#     Node 4, Type 0, BuildingBlock: UXUYUI_clean_sbu_0, # of connection points: 4
#     Node 5, Type 0, BuildingBlock: UXUYUI_clean_sbu_0, # of connection points: 4
#     Node 6, Type 0, BuildingBlock: UXUYUI_clean_sbu_0, # of connection points: 4
#     Node 7, Type 0, BuildingBlock: UXUYUI_clean_sbu_0, # of connection points: 4
#     Edge 8, Type (0, 0), BuildingBlock: XIVTED_clean_linker_0, # of connection points: 2
#     Edge 9, Type (0, 0), BuildingBlock: XIVTED_clean_linker_0, # of connection points: 2
#     Edge 10, Type (0, 0), BuildingBlock: XIVTED_clean_linker_0, # of connection points: 2
#     Edge 11, Type (0, 0), BuildingBlock: XIVTED_clean_linker_0, # of connection points: 2
#     Edge 12, Type (0, 0), BuildingBlock: XIVTED_clean_linker_0, # of connection points: 2
#     Edge 13, Type (0, 0), BuildingBlock: XIVTED_clean_linker_0, # of connection points: 2
#     Edge 14, Type (0, 0), BuildingBlock: XIVTED_clean_linker_0, # of connection points: 2
#     Edge 15, Type (0, 0), BuildingBlock: XIVTED_clean_linker_0, # of connection points: 2
#     Edge 16, Type (0, 0), BuildingBlock: XIVTED_clean_linker_0, # of connection points: 2
#     Edge 17, Type (0, 0), BuildingBlock: XIVTED_clean_linker_0, # of connection points: 2
#     Edge 18, Type (0, 0), BuildingBlock: XIVTED_clean_linker_0, # of connection points: 2
#     Edge 19, Type (0, 0), BuildingBlock: XIVTED_clean_linker_0, # of connection points: 2
#     Edge 20, Type (0, 0), BuildingBlock: XIVTED_clean_linker_0, # of connection points: 2
#     Edge 21, Type (0, 0), BuildingBlock: XIVTED_clean_linker_0, # of connection points: 2
#     Edge 22, Type (0, 0), BuildingBlock: XIVTED_clean_linker_0, # of connection points: 2
#     Edge 23, Type (0, 0), BuildingBlock: XIVTED_clean_linker_0, # of connection points: 2
# Relax obj value: 0.000
# Max RMSD: 0.003
# Mean RMSD: 0.003
data_MOF--net-dia--node1-UXUYUI_clean_sbu_0--edge1-XIVTED_clean_linker_0
_symmetry_space_group_name_H-M    P1
_symmetry_Int_Tables_number       1
_symmetry_cell_setting            triclinic
loop_
_symmetry_equiv_pos_as_xyz
'x, y, z'
_cell_length_a     51.892234
_cell_length_b     51.905187
_cell_length_c     51.887383
_cell_angle_alpha  89.975443
_cell_angle_beta   90.070958
_cell_angle_gamma 90.000727
loop_
_atom_site_label
_atom_site_type_symbol
_atom_site_fract_x
_atom_site_fract_y
_atom_site_fract_z
_atom_type_partial_charge
Li0 Li 0.11802 0.14656 0.64955 0.0
Li1 Li 0.15071 0.11245 0.64773 0.0
Li2 Li 0.14959 0.1472 0.61568 0.0
Li3 Li 0.11676 0.1133 0.61597 0.0
C4 C 0.17716 0.16491 0.65348 0.0
N5 N 0.22106 0.19489 0.65063 0.0
C6 C 0.20148 0.15355 0.65574 0.0
C7 C 0.17516 0.19153 0.64985 0.0
C8 C 0.22344 0.16905 0.65426 0.0
C9 C 0.19759 0.20635 0.64841 0.0
C10 C 0.11204 0.09249 0.6739 0.0
C11 C 0.1174 0.04997 0.69191 0.0
N12 N 0.11239 0.05957 0.71577 0.0
C13 C 0.10689 0.10193 0.69859 0.0
C14 C 0.11724 0.06629 0.67049 0.0
C15 C 0.10716 0.08498 0.71951 0.0
C16 C 0.07178 0.16099 0.67441 0.0
N17 N 0.09717 0.16696 0.67195 0.0
C18 C 0.09232 0.203 0.70017 0.0
C19 C 0.10768 0.1873 0.68466 0.0
C20 C 0.0659 0.1976 0.70277 0.0
C21 C 0.05571 0.17614 0.68976 0.0
H22 H 0.06398 0.1446 0.66416 0.0
H23 H 0.12799 0.19139 0.68268 0.0
C24 C 0.18704 0.07238 0.65684 0.0
N25 N 0.1726 0.09104 0.66819 0.0
C26 C 0.2027 0.05635 0.67179 0.0
C27 C 0.18855 0.07923 0.70979 0.0
C28 C 0.17341 0.09499 0.69408 0.0
C29 C 0.20341 0.05955 0.69867 0.0
H30 H 0.18642 0.06993 0.63618 0.0
H31 H 0.16214 0.11034 0.70252 0.0
C32 C 0.09067 0.16629 0.61203 0.0
N33 N 0.04706 0.19674 0.61473 0.0
C34 C 0.06641 0.15568 0.60708 0.0
C35 C 0.09275 0.19242 0.61828 0.0
C36 C 0.0446 0.1714 0.60852 0.0
C37 C 0.07047 0.20747 0.6196 0.0
C38 C 0.15481 0.09379 0.58931 0.0
C39 C 0.15834 0.10392 0.56461 0.0
C40 C 0.15045 0.06738 0.59239 0.0
C41 C 0.15738 0.08744 0.54334 0.0
C42 C 0.14956 0.05156 0.57064 0.0
N43 N 0.15301 0.06183 0.54678 0.0
C44 C 0.19492 0.16017 0.58853 0.0
C45 C 0.16165 0.19131 0.58534 0.0
C46 C 0.21113 0.17527 0.57325 0.0
N47 N 0.17071 0.1684 0.59424 0.0
C48 C 0.17732 0.20718 0.57029 0.0
C49 C 0.20238 0.19917 0.56403 0.0
H50 H 0.20163 0.14187 0.59593 0.0
H51 H 0.1423 0.19731 0.58997 0.0
C52 C 0.08199 0.07245 0.60494 0.0
N53 N 0.09491 0.09274 0.59463 0.0
C54 C 0.06649 0.0569 0.58936 0.0
C55 C 0.07761 0.08364 0.55289 0.0
C56 C 0.09278 0.09875 0.56921 0.0
C57 C 0.06425 0.06233 0.56291 0.0
H58 H 0.08375 0.06827 0.62525 0.0
H59 H 0.10297 0.11526 0.56161 0.0
O60 O 0.15545 0.14997 0.65415 0.0
O61 O 0.11227 0.10886 0.65322 0.0
O62 O 0.11222 0.15111 0.61119 0.0
O63 O 0.15515 0.10968 0.61034 0.0
H64 H 0.20342 0.13297 0.65834 0.0
H65 H 0.15652 0.20059 0.64759 0.0
H66 H 0.24239 0.16051 0.65588 0.0
H67 H 0.19633 0.22693 0.64537 0.0
H68 H 0.12159 0.02969 0.68957 0.0
H69 H 0.103 0.12217 0.70164 0.0
H70 H 0.12153 0.05869 0.65157 0.0
H71 H 0.10331 0.09203 0.73873 0.0
H72 H 0.10108 0.21908 0.71019 0.0
H73 H 0.03543 0.17138 0.69102 0.0
H74 H 0.21381 0.04137 0.66246 0.0
H75 H 0.18888 0.08262 0.73038 0.0
H76 H 0.06436 0.13549 0.60242 0.0
H77 H 0.11129 0.20086 0.6227 0.0
H78 H 0.0257 0.16342 0.60482 0.0
H79 H 0.07178 0.22764 0.62466 0.0
H80 H 0.16145 0.12433 0.56182 0.0
H81 H 0.14741 0.05926 0.61134 0.0
H82 H 0.15996 0.09503 0.5241 0.0
H83 H 0.14602 0.03112 0.57273 0.0
H84 H 0.2304 0.16851 0.569 0.0
H85 H 0.16977 0.22535 0.56331 0.0
H86 H 0.05668 0.04057 0.59787 0.0
H87 H 0.07611 0.08878 0.53271 0.0
Li88 Li 0.86753 0.39956 0.86153 0.0
Li89 Li 0.89979 0.39801 0.89639 0.0
Li90 Li 0.89895 0.36341 0.86217 0.0
Li91 Li 0.86642 0.36577 0.89629 0.0
C92 C 0.91714 0.41303 0.83819 0.0
N93 N 0.94043 0.43723 0.79683 0.0
C94 C 0.92948 0.43674 0.84153 0.0
C95 C 0.91699 0.40148 0.81384 0.0
C96 C 0.94104 0.44872 0.82037 0.0
C97 C 0.92878 0.41405 0.79318 0.0
C98 C 0.86006 0.42436 0.91531 0.0
C99 C 0.86376 0.44325 0.95761 0.0
N100 N 0.8576 0.46665 0.94753 0.0
C101 C 0.85362 0.44856 0.90538 0.0
C102 C 0.86501 0.42161 0.94165 0.0
C103 C 0.85252 0.46971 0.92198 0.0
C104 C 0.82086 0.41642 0.8403 0.0
N105 N 0.84662 0.4212 0.84024 0.0
C106 C 0.84087 0.4558 0.81033 0.0
C107 C 0.85679 0.44058 0.82582 0.0
C108 C 0.81419 0.45128 0.80995 0.0
C109 C 0.80419 0.43135 0.82529 0.0
H110 H 0.8133 0.40093 0.85201 0.0
H111 H 0.87718 0.44442 0.82638 0.0
C112 C 0.93774 0.4076 0.93466 0.0
N113 N 0.92172 0.41898 0.91732 0.0
C114 C 0.9537 0.42261 0.95034 0.0
C115 C 0.93649 0.46076 0.92991 0.0
C116 C 0.92093 0.44502 0.91461 0.0
C117 C 0.95321 0.4496 0.9481 0.0
H118 H 0.93823 0.38684 0.93624 0.0
H119 H 0.90808 0.45361 0.90064 0.0
C120 C 0.85099 0.351 0.83668 0.0
N121 N 0.83087 0.3293 0.79236 0.0
C122 C 0.83718 0.32791 0.83795 0.0
C123 C 0.85419 0.36324 0.8129 0.0
C124 C 0.82728 0.31718 0.81532 0.0
C125 C 0.84397 0.35193 0.79071 0.0
C126 C 0.905 0.34024 0.91717 0.0
C127 C 0.91012 0.31525 0.90858 0.0
C128 C 0.9001 0.34463 0.94328 0.0
C129 C 0.90993 0.29495 0.92628 0.0
C130 C 0.90004 0.32381 0.96036 0.0
N131 N 0.9049 0.29961 0.95157 0.0
C132 C 0.9448 0.34768 0.83799 0.0
C133 C 0.90984 0.31904 0.8315 0.0
C134 C 0.96091 0.33212 0.82309 0.0
N135 N 0.91972 0.34107 0.84167 0.0
C136 C 0.92525 0.30291 0.81647 0.0
C137 C 0.95117 0.3094 0.81201 0.0
H138 H 0.95226 0.36511 0.84665 0.0
H139 H 0.89005 0.31385 0.83517 0.0
C140 C 0.83019 0.35567 0.9362 0.0
N141 N 0.84448 0.34486 0.91712 0.0
C142 C 0.81464 0.34028 0.9519 0.0
C143 C 0.8286 0.30297 0.92783 0.0
C144 C 0.84386 0.31907 0.91263 0.0
C145 C 0.81373 0.31352 0.94784 0.0
H146 H 0.83084 0.37626 0.93922 0.0
H147 H 0.85549 0.31096 0.89739 0.0
O148 O 0.90576 0.40106 0.85876 0.0
O149 O 0.86151 0.40349 0.8993 0.0
O150 O 0.86076 0.36175 0.85871 0.0
O151 O 0.9046 0.36028 0.90006 0.0
H152 H 0.93007 0.44588 0.86021 0.0
H153 H 0.90816 0.38288 0.81092 0.0
H154 H 0.95052 0.46713 0.82268 0.0
H155 H 0.92876 0.40531 0.77425 0.0
H156 H 0.86773 0.44144 0.978 0.0
H157 H 0.8497 0.45103 0.88505 0.0
H158 H 0.87006 0.40304 0.94964 0.0
H159 H 0.84768 0.48858 0.91455 0.0
H160 H 0.8493 0.47122 0.79908 0.0
H161 H 0.78376 0.42712 0.82542 0.0
H162 H 0.96655 0.41313 0.96379 0.0
H163 H 0.93517 0.48146 0.92771 0.0
H164 H 0.8342 0.3183 0.85619 0.0
H165 H 0.86416 0.38143 0.81157 0.0
H166 H 0.8167 0.29923 0.81602 0.0
H167 H 0.84636 0.3612 0.7722 0.0
H168 H 0.91398 0.31153 0.88844 0.0
H169 H 0.89611 0.36386 0.95023 0.0
H170 H 0.91372 0.27548 0.91988 0.0
H171 H 0.89607 0.32689 0.98059 0.0
H172 H 0.98087 0.33767 0.8206 0.0
H173 H 0.91684 0.2857 0.80821 0.0
H174 H 0.80323 0.3493 0.96685 0.0
H175 H 0.82879 0.28242 0.92421 0.0
Li176 Li 0.62138 0.14768 0.14947 0.0
Li177 Li 0.65395 0.11311 0.14855 0.0
Li178 Li 0.65358 0.14737 0.11403 0.0
Li179 Li 0.62119 0.11282 0.11534 0.0
C180 C 0.6692 0.172 0.16417 0.0
N181 N 0.68874 0.21481 0.18909 0.0
C182 C 0.68245 0.16925 0.18748 0.0
C183 C 0.66616 0.19649 0.15339 0.0
C184 C 0.6921 0.19114 0.19983 0.0
C185 C 0.67612 0.2179 0.16631 0.0
C186 C 0.61341 0.09337 0.17348 0.0
C187 C 0.61527 0.05046 0.19121 0.0
N188 N 0.60943 0.06012 0.21486 0.0
C189 C 0.60723 0.10286 0.1979 0.0
C190 C 0.61726 0.06695 0.17002 0.0
C191 C 0.60537 0.08574 0.2186 0.0
C192 C 0.57479 0.17097 0.16391 0.0
N193 N 0.60002 0.16882 0.1707 0.0
C194 C 0.59347 0.19645 0.20697 0.0
C195 C 0.60948 0.18092 0.19194 0.0
C196 C 0.56738 0.19914 0.20036 0.0
C197 C 0.55801 0.18604 0.1786 0.0
H198 H 0.56774 0.16097 0.14703 0.0
H199 H 0.62934 0.17837 0.19747 0.0
C200 C 0.69197 0.07527 0.15896 0.0
N201 N 0.67546 0.09231 0.17 0.0
C202 C 0.70756 0.05954 0.17429 0.0
C203 C 0.68901 0.0793 0.21211 0.0
C204 C 0.67396 0.0948 0.19603 0.0
C205 C 0.70613 0.0613 0.20131 0.0
H206 H 0.69314 0.07396 0.13821 0.0
H207 H 0.66093 0.10874 0.20434 0.0
C208 C 0.60589 0.17078 0.09793 0.0
N209 N 0.58615 0.21183 0.07028 0.0
C210 C 0.59561 0.16689 0.07332 0.0
C211 C 0.60567 0.19547 0.10866 0.0
C212 C 0.58587 0.18791 0.05959 0.0
C213 C 0.59573 0.21599 0.09434 0.0
C214 C 0.66197 0.09192 0.09152 0.0
C215 C 0.66999 0.09975 0.06703 0.0
C216 C 0.65652 0.06596 0.09611 0.0
C217 C 0.67206 0.08145 0.04739 0.0
C218 C 0.65879 0.04826 0.07596 0.0
N219 N 0.66643 0.05632 0.05222 0.0
C220 C 0.6979 0.17616 0.1009 0.0
C221 C 0.66583 0.17533 0.06839 0.0
C222 C 0.71352 0.19198 0.08572 0.0
N223 N 0.67439 0.16851 0.09221 0.0
C224 C 0.68082 0.19107 0.05254 0.0
C225 C 0.70498 0.19976 0.0612 0.0
H226 H 0.70455 0.16997 0.11966 0.0
H227 H 0.64745 0.1684 0.06158 0.0
C228 C 0.58146 0.0766 0.1059 0.0
N229 N 0.59949 0.09172 0.09437 0.0
C230 C 0.56549 0.06078 0.09105 0.0
C231 C 0.58698 0.0763 0.05277 0.0
C232 C 0.60225 0.0921 0.06831 0.0
C233 C 0.56831 0.06038 0.06414 0.0
H234 H 0.57948 0.07683 0.12663 0.0
H235 H 0.61635 0.10467 0.05957 0.0
O236 O 0.65955 0.15074 0.15192 0.0
O237 O 0.61562 0.10988 0.15306 0.0
O238 O 0.61538 0.15035 0.11167 0.0
O239 O 0.65955 0.10961 0.1109 0.0
H240 H 0.68517 0.15043 0.19601 0.0
H241 H 0.65653 0.19893 0.1351 0.0
H242 H 0.70228 0.1893 0.21795 0.0
H243 H 0.67388 0.23697 0.15818 0.0
H244 H 0.61837 0.02999 0.18886 0.0
H245 H 0.60412 0.12325 0.2009 0.0
H246 H 0.62187 0.05929 0.15121 0.0
H247 H 0.60075 0.09282 0.23765 0.0
H248 H 0.60132 0.20589 0.22386 0.0
H249 H 0.53801 0.1877 0.17282 0.0
H250 H 0.72082 0.04639 0.16502 0.0
H251 H 0.68694 0.08122 0.23278 0.0
H252 H 0.59532 0.14788 0.06483 0.0
H253 H 0.61282 0.19877 0.12793 0.0
H254 H 0.57805 0.1852 0.04045 0.0
H255 H 0.59552 0.23521 0.10239 0.0
H256 H 0.67443 0.11974 0.06319 0.0
H257 H 0.65042 0.05958 0.11497 0.0
H258 H 0.67811 0.08725 0.02831 0.0
H259 H 0.65445 0.02814 0.07919 0.0
H260 H 0.73221 0.19777 0.09299 0.0
H261 H 0.6734 0.19663 0.03383 0.0
H262 H 0.55135 0.04871 0.10053 0.0
H263 H 0.58949 0.07681 0.03206 0.0
Li264 Li 0.90226 0.89567 0.39947 0.0
Li265 Li 0.86865 0.8936 0.36426 0.0
Li266 Li 0.86982 0.86169 0.39835 0.0
Li267 Li 0.90133 0.86075 0.36517 0.0
C268 C 0.843 0.90126 0.41643 0.0
N269 N 0.79906 0.90228 0.44639 0.0
C270 C 0.81886 0.89731 0.40515 0.0
C271 C 0.84482 0.90582 0.44292 0.0
C272 C 0.79686 0.89787 0.42064 0.0
C273 C 0.82237 0.90624 0.45774 0.0
C274 C 0.90891 0.91952 0.34534 0.0
C275 C 0.90506 0.93917 0.30336 0.0
N276 N 0.91195 0.96225 0.31367 0.0
C277 C 0.91612 0.94341 0.35548 0.0
C278 C 0.9035 0.91734 0.31902 0.0
C279 C 0.9175 0.96479 0.33917 0.0
C280 C 0.94876 0.91304 0.42178 0.0
N281 N 0.92303 0.91762 0.42009 0.0
C282 C 0.92675 0.95388 0.4482 0.0
C283 C 0.91188 0.93766 0.4327 0.0
C284 C 0.95338 0.94951 0.45061 0.0
C285 C 0.96439 0.92883 0.43702 0.0
H286 H 0.95707 0.89698 0.41144 0.0
H287 H 0.89144 0.94111 0.4306 0.0
C288 C 0.83007 0.90391 0.32672 0.0
N289 N 0.84691 0.91492 0.3435 0.0
C290 C 0.81431 0.91927 0.3112 0.0
C291 C 0.83306 0.95703 0.33093 0.0
C292 C 0.84826 0.94092 0.34625 0.0
C293 C 0.81582 0.94627 0.31297 0.0
H294 H 0.82871 0.88318 0.32551 0.0
H295 H 0.86134 0.94918 0.36021 0.0
C296 C 0.91025 0.8415 0.42337 0.0
N297 N 0.91491 0.80841 0.46487 0.0
C298 C 0.90288 0.8157 0.42102 0.0
C299 C 0.92012 0.85043 0.4468 0.0
C300 C 0.90532 0.79929 0.44224 0.0
C301 C 0.92231 0.83341 0.46756 0.0
C302 C 0.8639 0.8372 0.34286 0.0
C303 C 0.86167 0.81128 0.34989 0.0
C304 C 0.86744 0.84368 0.31695 0.0
C305 C 0.86305 0.79229 0.33086 0.0
C306 C 0.86879 0.82412 0.29851 0.0
N307 N 0.86658 0.79905 0.30579 0.0
C308 C 0.82801 0.82852 0.41025 0.0
C309 C 0.85139 0.84253 0.44685 0.0
C310 C 0.81164 0.81385 0.42577 0.0
N311 N 0.84777 0.84204 0.42088 0.0
C312 C 0.83548 0.82817 0.4631 0.0
C313 C 0.81539 0.81335 0.4526 0.0
H314 H 0.82486 0.82918 0.38967 0.0
H315 H 0.86656 0.85422 0.45502 0.0
C316 C 0.93702 0.85144 0.32479 0.0
N317 N 0.92352 0.83995 0.34407 0.0
C318 C 0.95288 0.83685 0.30867 0.0
C319 C 0.94093 0.79883 0.33268 0.0
C320 C 0.92547 0.81419 0.34842 0.0
C321 C 0.95493 0.81009 0.31241 0.0
H322 H 0.93555 0.87199 0.32194 0.0
H323 H 0.91473 0.80543 0.36389 0.0
O324 O 0.86478 0.90006 0.40169 0.0
O325 O 0.90715 0.89843 0.36109 0.0
O326 O 0.90801 0.85792 0.40285 0.0
O327 O 0.86307 0.8561 0.36126 0.0
H328 H 0.81716 0.89352 0.38471 0.0
H329 H 0.8634 0.90859 0.452 0.0
H330 H 0.77806 0.89471 0.4122 0.0
H331 H 0.82348 0.90959 0.47828 0.0
H332 H 0.90074 0.93778 0.283 0.0
H333 H 0.92045 0.94551 0.37575 0.0
H334 H 0.89792 0.89904 0.31081 0.0
H335 H 0.92293 0.98341 0.34679 0.0
H336 H 0.91753 0.96985 0.45795 0.0
H337 H 0.98477 0.92461 0.4385 0.0
H338 H 0.80086 0.91003 0.29818 0.0
H339 H 0.83511 0.97769 0.33294 0.0
H340 H 0.89476 0.80854 0.40324 0.0
H341 H 0.92585 0.87033 0.44903 0.0
H342 H 0.89946 0.77935 0.44075 0.0
H343 H 0.92984 0.84008 0.48582 0.0
H344 H 0.85935 0.80579 0.36985 0.0
H345 H 0.86937 0.86357 0.31114 0.0
H346 H 0.86149 0.77217 0.33606 0.0
H347 H 0.87166 0.82888 0.27842 0.0
H348 H 0.79644 0.80274 0.41676 0.0
H349 H 0.83872 0.82895 0.48371 0.0
H350 H 0.96366 0.84652 0.29366 0.0
H351 H 0.94157 0.77827 0.33615 0.0
Li352 Li 0.11924 0.64758 0.14651 0.0
Li353 Li 0.15165 0.61297 0.14636 0.0
Li354 Li 0.15136 0.64769 0.11189 0.0
Li355 Li 0.11903 0.61296 0.11194 0.0
C356 C 0.16265 0.66977 0.16717 0.0
N357 N 0.17263 0.70819 0.20267 0.0
C358 C 0.17198 0.66351 0.19167 0.0
C359 C 0.15883 0.6956 0.1606 0.0
C360 C 0.1768 0.6832 0.20939 0.0
C361 C 0.16387 0.71473 0.17884 0.0
C362 C 0.10805 0.59053 0.16695 0.0
C363 C 0.10483 0.54535 0.17737 0.0
N364 N 0.09728 0.5516 0.20166 0.0
C365 C 0.09992 0.5965 0.19191 0.0
C366 C 0.11024 0.56475 0.15951 0.0
C367 C 0.09469 0.57655 0.20922 0.0
C368 C 0.07774 0.68125 0.15764 0.0
N369 N 0.0982 0.6687 0.16814 0.0
C370 C 0.08847 0.68594 0.20974 0.0
C371 C 0.10362 0.67057 0.19371 0.0
C372 C 0.06723 0.6993 0.19947 0.0
C373 C 0.06195 0.69674 0.17299 0.0
H374 H 0.0735 0.67906 0.13736 0.0
H375 H 0.11962 0.65996 0.20175 0.0
C376 C 0.19307 0.57898 0.15697 0.0
N377 N 0.17286 0.59168 0.16772 0.0
C378 C 0.20882 0.56318 0.17206 0.0
C379 C 0.18302 0.5742 0.20917 0.0
C380 C 0.16779 0.58978 0.19336 0.0
C381 C 0.20385 0.56056 0.19856 0.0
H382 H 0.19704 0.58117 0.13664 0.0
H383 H 0.15211 0.60066 0.20164 0.0
C384 C 0.10788 0.66933 0.09078 0.0
N385 N 0.09769 0.70686 0.05435 0.0
C386 C 0.09975 0.66239 0.06604 0.0
C387 C 0.11036 0.69538 0.09711 0.0
C388 C 0.09482 0.68164 0.04786 0.0
C389 C 0.10526 0.71406 0.0784 0.0
C390 C 0.16295 0.59075 0.09136 0.0
C391 C 0.17212 0.59685 0.06678 0.0
C392 C 0.15995 0.56494 0.0984 0.0
C393 C 0.17762 0.57699 0.04946 0.0
C394 C 0.16565 0.54564 0.08054 0.0
N395 N 0.17425 0.55201 0.05663 0.0
C396 C 0.19238 0.68207 0.10134 0.0
C397 C 0.16755 0.67071 0.06475 0.0
C398 C 0.20814 0.69788 0.08629 0.0
N399 N 0.17241 0.66906 0.09045 0.0
C400 C 0.18277 0.68634 0.04898 0.0
C401 C 0.20341 0.70024 0.05971 0.0
H402 H 0.19624 0.68001 0.1217 0.0
H403 H 0.15198 0.65973 0.05639 0.0
C404 C 0.0768 0.58008 0.10147 0.0
N405 N 0.09773 0.5916 0.09074 0.0
C406 C 0.06084 0.56425 0.08663 0.0
C407 C 0.08798 0.57276 0.04981 0.0
C408 C 0.10337 0.58844 0.06535 0.0
C409 C 0.06637 0.56035 0.0604 0.0
H410 H 0.07238 0.58332 0.12156 0.0
H411 H 0.1197 0.59829 0.05706 0.0
O412 O 0.15756 0.65071 0.14967 0.0
O413 O 0.11341 0.60984 0.14979 0.0
O414 O 0.113 0.65072 0.10876 0.0
O415 O 0.1573 0.60997 0.1085 0.0
H416 H 0.17535 0.64368 0.19701 0.0
H417 H 0.15219 0.70082 0.14158 0.0
H418 H 0.18385 0.67861 0.22847 0.0
H419 H 0.16087 0.73479 0.17403 0.0
H420 H 0.10655 0.52532 0.17188 0.0
H421 H 0.09782 0.61631 0.19793 0.0
H422 H 0.11583 0.55976 0.14011 0.0
H423 H 0.08858 0.58091 0.22866 0.0
H424 H 0.0935 0.68745 0.22994 0.0
H425 H 0.04553 0.70622 0.16427 0.0
H426 H 0.22456 0.55293 0.16299 0.0
H427 H 0.17878 0.57324 0.22958 0.0
H428 H 0.09744 0.64237 0.06087 0.0
H429 H 0.11601 0.70113 0.1163 0.0
H430 H 0.08871 0.67652 0.02859 0.0
H431 H 0.10723 0.73428 0.08302 0.0
H432 H 0.17486 0.61668 0.06108 0.0
H433 H 0.1535 0.55985 0.1175 0.0
H434 H 0.18456 0.58145 0.03032 0.0
H435 H 0.16331 0.52559 0.08573 0.0
H436 H 0.22412 0.70779 0.09535 0.0
H437 H 0.17823 0.68765 0.02865 0.0
H438 H 0.04412 0.55551 0.09553 0.0
H439 H 0.09313 0.57023 0.02975 0.0
Li440 Li 0.36677 0.39573 0.3637 0.0
Li441 Li 0.39957 0.39437 0.39766 0.0
Li442 Li 0.39906 0.36034 0.36304 0.0
Li443 Li 0.36695 0.36115 0.39813 0.0
C444 C 0.4132 0.41019 0.33801 0.0
N445 N 0.43023 0.4343 0.29368 0.0
C446 C 0.42495 0.43439 0.33941 0.0
C447 C 0.41052 0.39808 0.31411 0.0
C448 C 0.4333 0.44632 0.31677 0.0
C449 C 0.41915 0.41062 0.29192 0.0
C450 C 0.3601 0.41826 0.41932 0.0
C451 C 0.3641 0.43334 0.46309 0.0
N452 N 0.3585 0.45766 0.45505 0.0
C453 C 0.35418 0.44334 0.41151 0.0
C454 C 0.3649 0.41314 0.44533 0.0
C455 C 0.35352 0.46301 0.42987 0.0
C456 C 0.32164 0.40899 0.33627 0.0
N457 N 0.34552 0.41746 0.34294 0.0
C458 C 0.33875 0.45685 0.31999 0.0
C459 C 0.35412 0.44103 0.33544 0.0
C460 C 0.31417 0.44841 0.31232 0.0
C461 C 0.30563 0.42414 0.3208 0.0
H462 H 0.31507 0.39035 0.34287 0.0
H463 H 0.3728 0.44773 0.3417 0.0
C464 C 0.43708 0.4047 0.43619 0.0
N465 N 0.42127 0.41568 0.41841 0.0
C466 C 0.45279 0.42007 0.45176 0.0
C467 C 0.43576 0.45776 0.43033 0.0
C468 C 0.42049 0.44165 0.41509 0.0
C469 C 0.4522 0.44701 0.44899 0.0
H470 H 0.4375 0.384 0.43831 0.0
H471 H 0.40793 0.44987 0.40064 0.0
C472 C 0.35012 0.34432 0.34067 0.0
N473 N 0.32832 0.31669 0.30066 0.0
C474 C 0.33862 0.32042 0.34538 0.0
C475 C 0.35021 0.3543 0.31564 0.0
C476 C 0.3278 0.30671 0.32489 0.0
C477 C 0.33917 0.34001 0.29567 0.0
C478 C 0.40842 0.33625 0.41706 0.0
C479 C 0.41623 0.31237 0.40737 0.0
C480 C 0.40391 0.33909 0.44346 0.0
C481 C 0.41908 0.2916 0.42428 0.0
C482 C 0.40694 0.31785 0.45972 0.0
N483 N 0.41439 0.29474 0.44987 0.0
C484 C 0.44543 0.34559 0.33949 0.0
C485 C 0.41051 0.31807 0.32929 0.0
C486 C 0.46206 0.3309 0.32424 0.0
N487 N 0.42017 0.33905 0.34164 0.0
C488 C 0.42634 0.30302 0.31362 0.0
C489 C 0.45257 0.30928 0.31091 0.0
H490 H 0.45268 0.36223 0.34975 0.0
H491 H 0.39056 0.31284 0.33161 0.0
C492 C 0.32764 0.35111 0.43461 0.0
N493 N 0.34559 0.33984 0.41926 0.0
C494 C 0.31184 0.33605 0.45039 0.0
C495 C 0.33332 0.29805 0.43428 0.0
C496 C 0.34845 0.31382 0.41861 0.0
C497 C 0.31462 0.30908 0.45049 0.0
H498 H 0.32545 0.37182 0.43449 0.0
H499 H 0.36255 0.30526 0.40594 0.0
O500 O 0.40492 0.39827 0.36004 0.0
O501 O 0.36129 0.39883 0.40157 0.0
O502 O 0.36085 0.35794 0.36055 0.0
O503 O 0.40536 0.35676 0.40077 0.0
H504 H 0.42746 0.44393 0.35776 0.0
H505 H 0.40214 0.37911 0.31269 0.0
H506 H 0.44225 0.46513 0.31756 0.0
H507 H 0.41714 0.40148 0.27329 0.0
H508 H 0.36796 0.4297 0.48326 0.0
H509 H 0.35033 0.4476 0.39147 0.0
H510 H 0.36937 0.39381 0.4517 0.0
H511 H 0.34912 0.48255 0.42408 0.0
H512 H 0.34591 0.47564 0.31444 0.0
H513 H 0.28692 0.41674 0.31526 0.0
H514 H 0.46501 0.41097 0.46604 0.0
H515 H 0.43494 0.47838 0.42727 0.0
H516 H 0.33816 0.31247 0.36462 0.0
H517 H 0.35841 0.37301 0.31167 0.0
H518 H 0.31898 0.28813 0.32825 0.0
H519 H 0.33914 0.34752 0.27621 0.0
H520 H 0.41989 0.30985 0.38702 0.0
H521 H 0.39795 0.35745 0.45128 0.0
H522 H 0.42499 0.27298 0.41704 0.0
H523 H 0.40335 0.31973 0.48016 0.0
H524 H 0.48218 0.33629 0.32324 0.0
H525 H 0.41795 0.2868 0.30354 0.0
H526 H 0.29739 0.34548 0.46207 0.0
H527 H 0.33651 0.27744 0.43385 0.0
Li528 Li 0.3697 0.8991 0.86508 0.0
Li529 Li 0.40099 0.90087 0.89876 0.0
Li530 Li 0.40257 0.86561 0.86449 0.0
Li531 Li 0.36854 0.86752 0.8994 0.0
C532 C 0.4103 0.92153 0.84214 0.0
N533 N 0.41518 0.95805 0.8037 0.0
C534 C 0.40201 0.94679 0.84633 0.0
C535 C 0.42118 0.91485 0.81843 0.0
C536 C 0.40458 0.96497 0.82663 0.0
C537 C 0.42348 0.9336 0.79924 0.0
C538 C 0.36182 0.92357 0.92077 0.0
C539 C 0.36553 0.93623 0.96537 0.0
N540 N 0.36071 0.96108 0.95859 0.0
C541 C 0.35687 0.94926 0.91426 0.0
C542 C 0.36613 0.91701 0.94655 0.0
C543 C 0.35637 0.96792 0.93366 0.0
C544 C 0.32709 0.93083 0.85224 0.0
N545 N 0.34777 0.91839 0.84211 0.0
C546 C 0.33672 0.93314 0.79981 0.0
C547 C 0.35246 0.91883 0.81632 0.0
C548 C 0.31576 0.94703 0.80986 0.0
C549 C 0.31092 0.94551 0.83648 0.0
H550 H 0.32309 0.92934 0.87261 0.0
H551 H 0.36836 0.90794 0.80849 0.0
C552 C 0.43981 0.90985 0.9361 0.0
N553 N 0.42292 0.92186 0.92001 0.0
C554 C 0.45585 0.92424 0.95227 0.0
C555 C 0.43693 0.96313 0.93505 0.0
C556 C 0.42158 0.94801 0.91892 0.0
C557 C 0.45432 0.95124 0.95202 0.0
H558 H 0.44085 0.88907 0.93638 0.0
H559 H 0.40852 0.95724 0.90566 0.0
C560 C 0.34493 0.85909 0.84532 0.0
N561 N 0.30392 0.85736 0.81141 0.0
C562 C 0.31977 0.86215 0.85439 0.0
C563 C 0.34926 0.85498 0.81906 0.0
C564 C 0.29929 0.86127 0.83692 0.0
C565 C 0.32825 0.85421 0.80222 0.0
C566 C 0.40909 0.84263 0.91936 0.0
C567 C 0.41509 0.81822 0.90973 0.0
C568 C 0.40516 0.84589 0.9458 0.0
C569 C 0.41666 0.79736 0.9267 0.0
C570 C 0.40686 0.82456 0.96214 0.0
N571 N 0.4125 0.80093 0.95232 0.0
C572 C 0.44878 0.85044 0.84008 0.0
C573 C 0.41354 0.82204 0.83389 0.0
C574 C 0.46459 0.83486 0.82485 0.0
N575 N 0.42376 0.84387 0.84412 0.0
C576 C 0.42867 0.80582 0.81867 0.0
C577 C 0.45456 0.81221 0.81388 0.0
H578 H 0.4564 0.86786 0.84862 0.0
H579 H 0.3936 0.81723 0.83759 0.0
C580 C 0.33015 0.85705 0.93701 0.0
N581 N 0.34688 0.84612 0.92011 0.0
C582 C 0.31439 0.84163 0.95243 0.0
C583 C 0.33278 0.80396 0.93225 0.0
C584 C 0.34811 0.82013 0.91714 0.0
C585 C 0.31568 0.81466 0.95032 0.0
H586 H 0.32883 0.87776 0.93838 0.0
H587 H 0.36107 0.81193 0.90306 0.0
O588 O 0.40786 0.9034 0.86112 0.0
O589 O 0.36261 0.90499 0.90204 0.0
O590 O 0.36525 0.86059 0.86202 0.0
O591 O 0.40708 0.86321 0.90297 0.0
H592 H 0.39311 0.95217 0.86434 0.0
H593 H 0.42759 0.89536 0.8148 0.0
H594 H 0.39803 0.98454 0.82954 0.0
H595 H 0.43178 0.92869 0.78077 0.0
H596 H 0.36894 0.9314 0.98537 0.0
H597 H 0.35394 0.95489 0.89442 0.0
H598 H 0.37001 0.8973 0.95197 0.0
H599 H 0.35272 0.98787 0.92885 0.0
H600 H 0.34082 0.93308 0.77936 0.0
H601 H 0.29506 0.95586 0.84519 0.0
H602 H 0.46902 0.91435 0.96512 0.0
H603 H 0.43546 0.98392 0.934 0.0
H604 H 0.31616 0.86546 0.87467 0.0
H605 H 0.36865 0.8528 0.81173 0.0
H606 H 0.27971 0.86376 0.84362 0.0
H607 H 0.3313 0.85121 0.78182 0.0
H608 H 0.4183 0.81532 0.88936 0.0
H609 H 0.4008 0.86467 0.95364 0.0
H610 H 0.42113 0.77833 0.91948 0.0
H611 H 0.40371 0.82679 0.98262 0.0
H612 H 0.4845 0.84035 0.82193 0.0
H613 H 0.42008 0.78869 0.81042 0.0
H614 H 0.30105 0.85079 0.96559 0.0
H615 H 0.33456 0.7833 0.92998 0.0
Li616 Li 0.61471 0.64857 0.64557 0.0
Li617 Li 0.64697 0.61397 0.64706 0.0
Li618 Li 0.64776 0.64889 0.613 0.0
Li619 Li 0.61516 0.6145 0.6112 0.0
C620 C 0.65366 0.66812 0.67142 0.0
N621 N 0.65405 0.70104 0.71323 0.0
C622 C 0.65811 0.65849 0.69618 0.0
C623 C 0.64966 0.69451 0.66787 0.0
C624 C 0.65819 0.67545 0.71709 0.0
C625 C 0.64983 0.71083 0.68927 0.0
C626 C 0.59897 0.5887 0.65928 0.0
C627 C 0.59292 0.54264 0.6578 0.0
N628 N 0.57906 0.54385 0.67999 0.0
C629 C 0.58442 0.58952 0.68192 0.0
C630 C 0.60307 0.5651 0.647 0.0
C631 C 0.57462 0.56662 0.69215 0.0
C632 C 0.57999 0.68947 0.65658 0.0
N633 N 0.59327 0.66944 0.66699 0.0
C634 C 0.57726 0.67952 0.70899 0.0
C635 C 0.59208 0.66415 0.69263 0.0
C636 C 0.56353 0.70056 0.69886 0.0
C637 C 0.56499 0.7054 0.67224 0.0
H638 H 0.58104 0.69312 0.63612 0.0
H639 H 0.60294 0.64817 0.70043 0.0
C640 C 0.6933 0.5907 0.66255 0.0
N641 N 0.66793 0.59277 0.66867 0.0
C642 C 0.70973 0.57544 0.67747 0.0
C643 C 0.67366 0.56485 0.70489 0.0
C644 C 0.65799 0.58047 0.68955 0.0
C645 C 0.69996 0.56211 0.69896 0.0
H646 H 0.70077 0.60096 0.64601 0.0
H647 H 0.63793 0.5828 0.69443 0.0
C648 C 0.60787 0.66909 0.58762 0.0
N649 N 0.6051 0.70279 0.54648 0.0
C650 C 0.6002 0.66024 0.56336 0.0
C651 C 0.61389 0.69513 0.59102 0.0
C652 C 0.59896 0.67758 0.54279 0.0
C653 C 0.61246 0.71184 0.56996 0.0
C654 C 0.66401 0.5911 0.59608 0.0
C655 C 0.67479 0.59515 0.57173 0.0
C656 C 0.66494 0.56651 0.60706 0.0
C657 C 0.68573 0.57442 0.55852 0.0
C658 C 0.67608 0.54629 0.59326 0.0
N659 N 0.68613 0.55061 0.56946 0.0
C660 C 0.68659 0.68631 0.60415 0.0
C661 C 0.66815 0.6688 0.56622 0.0
C662 C 0.70245 0.70242 0.58952 0.0
N663 N 0.66977 0.67006 0.59235 0.0
C664 C 0.68352 0.68465 0.55086 0.0
C665 C 0.70094 0.70181 0.56248 0.0
H666 H 0.68763 0.68685 0.62495 0.0
H667 H 0.65477 0.65559 0.55727 0.0
C668 C 0.56954 0.58888 0.59683 0.0
N669 N 0.59418 0.59355 0.58929 0.0
C670 C 0.55341 0.57334 0.58188 0.0
C671 C 0.58814 0.5681 0.55136 0.0
C672 C 0.60356 0.58379 0.56688 0.0
C673 C 0.56272 0.56258 0.55885 0.0
H674 H 0.56247 0.5971 0.61463 0.0
H675 H 0.62292 0.58833 0.56087 0.0
O676 O 0.65298 0.65174 0.6508 0.0
O677 O 0.60875 0.61098 0.64909 0.0
O678 O 0.60945 0.65234 0.60792 0.0
O679 O 0.65336 0.61129 0.60933 0.0
H680 H 0.66123 0.63811 0.69927 0.0
H681 H 0.64619 0.70226 0.64883 0.0
H682 H 0.66146 0.66825 0.73638 0.0
H683 H 0.64657 0.73127 0.68684 0.0
H684 H 0.59598 0.52426 0.64847 0.0
H685 H 0.58078 0.60761 0.69156 0.0
H686 H 0.61362 0.56415 0.62912 0.0
H687 H 0.56345 0.56697 0.70974 0.0
H688 H 0.57693 0.67525 0.72942 0.0
H689 H 0.55443 0.72117 0.66355 0.0
H690 H 0.72992 0.57439 0.67238 0.0
H691 H 0.66511 0.55481 0.72105 0.0
H692 H 0.59538 0.64019 0.56041 0.0
H693 H 0.61993 0.70228 0.60964 0.0
H694 H 0.59317 0.67098 0.52388 0.0
H695 H 0.61726 0.73199 0.57226 0.0
H696 H 0.67458 0.61405 0.56302 0.0
H697 H 0.65746 0.56306 0.62616 0.0
H698 H 0.69395 0.57728 0.53958 0.0
H699 H 0.67686 0.52717 0.60154 0.0
H700 H 0.71546 0.71549 0.59929 0.0
H701 H 0.68197 0.68325 0.53009 0.0
H702 H 0.53401 0.56947 0.5885 0.0
H703 H 0.59595 0.56065 0.5335 0.0
H704 H 0.2952 0.26077 0.44015 0.0
H705 H 0.21119 0.25098 0.56841 0.0
H706 H 0.29602 0.31953 0.49911 0.0
H707 H 0.23174 0.18471 0.5227 0.0
H708 H 0.2386 0.27786 0.54091 0.0
H709 H 0.26862 0.2339 0.46805 0.0
C710 C 0.29002 0.26803 0.459 0.0
C711 C 0.29807 0.29256 0.46721 0.0
C712 C 0.23716 0.25742 0.53696 0.0
C713 C 0.267 0.26192 0.49907 0.0
C714 C 0.22143 0.24213 0.55253 0.0
C715 C 0.21921 0.2156 0.5478 0.0
C716 C 0.25048 0.24618 0.51628 0.0
C717 C 0.23309 0.20505 0.52714 0.0
C718 C 0.27468 0.25267 0.47487 0.0
C719 C 0.29004 0.301 0.49168 0.0
N720 N 0.24801 0.22039 0.51204 0.0
N721 N 0.27491 0.28576 0.50668 0.0
H722 H 0.74031 0.53144 0.68333 0.0
H723 H 0.7678 0.47272 0.82313 0.0
H724 H 0.6987 0.55474 0.75151 0.0
H725 H 0.82132 0.46642 0.75988 0.0
H726 H 0.73982 0.49948 0.79612 0.0
H727 H 0.76813 0.50462 0.71018 0.0
C728 C 0.73707 0.53111 0.70394 0.0
C729 C 0.71704 0.54552 0.71508 0.0
C730 C 0.7577 0.49227 0.78817 0.0
C731 C 0.74864 0.51431 0.74592 0.0
C732 C 0.77359 0.47687 0.80351 0.0
C733 C 0.79693 0.46736 0.79374 0.0
C734 C 0.76505 0.49799 0.76275 0.0
C735 C 0.80362 0.47357 0.76826 0.0
C736 C 0.75292 0.51564 0.71924 0.0
C737 C 0.71356 0.54373 0.7419 0.0
N738 N 0.78772 0.48841 0.75362 0.0
N739 N 0.72914 0.5284 0.75636 0.0
H740 H 0.58308 0.02851 0.02486 0.0
H741 H 0.43993 0.99166 0.98256 0.0
H742 H 0.51598 0.05418 0.06656 0.0
H743 H 0.5062 0.94664 0.96055 0.0
H744 H 0.46765 0.01792 0.01037 0.0
H745 H 0.55534 1.00141 0.99789 0.0
C746 C 0.56249 0.02847 0.02827 0.0
C747 C 0.55178 0.04359 0.04794 0.0
C748 C 0.4761 1.00224 0.99952 0.0
C749 C 0.51998 0.01277 0.01716 0.0
C750 C 0.46034 0.98737 0.98356 0.0
C751 C 0.47082 0.96698 0.96925 0.0
C752 C 0.5026 0.99695 1.00088 0.0
C753 C 0.49733 0.96207 0.97142 0.0
C754 C 0.54671 0.01291 0.013 0.0
C755 C 0.52502 0.04265 0.05172 0.0
N756 N 0.51236 0.97706 0.9868 0.0
N757 N 0.51 0.02764 0.03635 0.0
H758 H 0.96301 0.8151 0.26023 0.0
H759 H 0.05235 0.69005 0.24946 0.0
H760 H 0.98484 0.76836 0.32559 0.0
H761 H 0.04393 0.74556 0.18799 0.0
H762 H 0.02547 0.7171 0.27688 0.0
H763 H 0.99043 0.78853 0.23276 0.0
C764 C 0.97367 0.79939 0.26889 0.0
C765 C 0.97155 0.79406 0.29537 0.0
C766 C 0.02953 0.72339 0.2574 0.0
C767 C 1.0027 0.76322 0.26381 0.0
C768 C 0.04503 0.708 0.24173 0.0
C769 C 0.05059 0.71551 0.21631 0.0
C770 C 0.01929 0.74644 0.24763 0.0
C771 C 0.03996 0.73876 0.2073 0.0
C772 C 0.98923 0.78412 0.25313 0.0
C773 C 0.98549 0.77304 0.30528 0.0
N774 N 0.02483 0.75336 0.22292 0.0
N775 N 1.00041 0.75841 0.28951 0.0
H776 H 0.33036 0.97625 0.76815 0.0
H777 H 0.19058 0.03657 0.74441 0.0
H778 H 0.26332 0.95479 0.8125 0.0
H779 H 0.25309 0.04377 0.69015 0.0
H780 H 0.21771 0.00884 0.77127 0.0
H781 H 0.30301 1.00292 0.74069 0.0
C782 C 0.30988 0.97693 0.77204 0.0
C783 C 0.29921 0.96314 0.79276 0.0
C784 C 0.22547 0.01643 0.75346 0.0
C785 C 0.2678 0.99417 0.76156 0.0
C786 C 0.21006 0.03239 0.73821 0.0
C787 C 0.21961 0.04251 0.71502 0.0
C788 C 0.25074 0.01074 0.74562 0.0
C789 C 0.24488 0.03619 0.70775 0.0
C790 C 0.29428 0.99232 0.7564 0.0
C791 C 0.27255 0.96533 0.79707 0.0
N792 N 0.25961 0.02081 0.72305 0.0
N793 N 0.25781 0.98058 0.78167 0.0
H794 H 0.97935 0.49349 0.93435 0.0
H795 H 0.04303 0.51464 0.07347 0.0
H796 H 0.96568 0.44323 0.99923 0.0
H797 H 0.05134 0.56802 0.01019 0.0
H798 H 0.01541 0.48773 0.04642 0.0
H799 H 1.00657 0.52046 0.96163 0.0
C800 C 0.98192 0.48818 0.95438 0.0
C801 C 0.97009 0.46604 0.96448 0.0
C802 C 0.02328 0.50533 0.03845 0.0
C803 C 1.00161 0.49676 0.99583 0.0
C804 C 0.03896 0.5208 0.05394 0.0
C805 C 0.04959 0.54369 0.04414 0.0
C806 C 0.01816 0.51273 0.01291 0.0
C807 C 0.04393 0.5504 0.01851 0.0
C808 C 0.99761 0.50354 0.96993 0.0
C809 C 0.97461 0.45992 0.99049 0.0
N810 N 0.02863 0.53501 1.00382 0.0
N811 N 0.98998 0.47519 1.00524 0.0
H812 H 0.49339 0.32517 0.2809 0.0
H813 H 0.51921 0.18725 0.2182 0.0
H814 H 0.45132 0.25681 0.30299 0.0
H815 H 0.57612 0.24782 0.21863 0.0
H816 H 0.49112 0.21413 0.24496 0.0
H817 H 0.5214 0.29855 0.25411 0.0
C818 C 0.49008 0.30459 0.28033 0.0
C819 C 0.46984 0.29333 0.29438 0.0
C820 C 0.50977 0.22152 0.23921 0.0
C821 C 0.5016 0.26281 0.26312 0.0
C822 C 0.52571 0.20627 0.22382 0.0
C823 C 0.55002 0.21534 0.21624 0.0
C824 C 0.51804 0.24615 0.24676 0.0
C825 C 0.55761 0.24003 0.22426 0.0
C826 C 0.50603 0.28943 0.26487 0.0
C827 C 0.46628 0.26654 0.29224 0.0
N828 N 0.54163 0.25464 0.23898 0.0
N829 N 0.48192 0.25225 0.27687 0.0
H830 H 0.82919 0.785 0.49514 0.0
H831 H 0.68749 0.72871 0.51898 0.0
H832 H 0.76317 0.8052 0.44862 0.0
H833 H 0.75199 0.71388 0.56943 0.0
H834 H 0.7151 0.75613 0.49249 0.0
H835 H 0.80134 0.75861 0.52235 0.0
C836 C 0.80881 0.78407 0.49073 0.0
C837 C 0.79856 0.7974 0.46949 0.0
C838 C 0.72322 0.74692 0.50938 0.0
C839 C 0.76655 0.76683 0.50046 0.0
C840 C 0.7075 0.73113 0.52444 0.0
C841 C 0.71744 0.7189 0.54645 0.0
C842 C 0.74917 0.75048 0.51627 0.0
C843 C 0.74342 0.72311 0.55279 0.0
C844 C 0.79293 0.76885 0.50621 0.0
C845 C 0.77204 0.79501 0.46452 0.0
N846 N 0.75839 0.73846 0.53774 0.0
N847 N 0.75699 0.78002 0.47985 0.0
H848 H 0.25643 0.55463 0.19679 0.0
H849 H 0.2618 0.45573 0.31528 0.0
H850 H 0.1891 0.52859 0.23807 0.0
H851 H 0.32858 0.4786 0.27131 0.0
H852 H 0.23492 0.4826 0.28748 0.0
H853 H 0.2832 0.5272 0.22413 0.0
C854 C 0.24723 0.54303 0.21149 0.0
C855 C 0.22042 0.54394 0.21507 0.0
C856 C 0.25545 0.48174 0.28391 0.0
C857 C 0.25108 0.51265 0.24673 0.0
C858 C 0.27082 0.46627 0.2997 0.0
C859 C 0.29755 0.46484 0.29566 0.0
C860 C 0.26683 0.49595 0.26387 0.0
C861 C 0.30815 0.47934 0.2754 0.0
C862 C 0.26257 0.52746 0.22721 0.0
C863 C 0.20969 0.52879 0.23478 0.0
N864 N 0.29277 0.49425 0.26029 0.0
N865 N 0.22504 0.51378 0.24983 0.0
H866 H 0.78416 0.2722 0.93316 0.0
H867 H 0.73418 0.24134 0.07595 0.0
H868 H 0.80607 0.3164 1.00014 0.0
H869 H 0.71274 0.19698 0.00892 0.0
H870 H 0.7607 0.26897 0.04857 0.0
H871 H 0.75795 0.24444 0.96064 0.0
C872 C 0.78357 0.27601 0.95367 0.0
C873 C 0.79741 0.29668 0.96433 0.0
C874 C 0.75019 0.2532 0.03984 0.0
C875 C 0.76716 0.26504 0.99594 0.0
C876 C 0.73515 0.2373 0.0555 0.0
C877 C 0.72118 0.21675 0.04476 0.0
C878 C 0.75135 0.24854 0.0132 0.0
C879 C 0.72288 0.21276 0.01803 0.0
C880 C 0.76847 0.26021 0.96934 0.0
C881 C 0.79551 0.3009 0.991 0.0
N882 N 0.73769 0.22847 1.00321 0.0
N883 N 0.78072 0.28521 0.00588 0.0
H884 H 0.8015 0.93841 0.26251 0.0
H885 H 0.72924 0.07344 0.24753 0.0
H886 H 0.79293 0.99259 0.32509 0.0
H887 H 0.7203 0.0108 0.19347 0.0
H888 H 0.75547 0.04548 0.27482 0.0
H889 H 0.77462 0.96606 0.23556 0.0
C890 C 0.79385 0.956 0.27071 0.0
C891 C 0.79953 0.96305 0.29625 0.0
C892 C 0.74772 0.03787 0.25699 0.0
C893 C 0.76907 0.99512 0.26515 0.0
C894 C 0.7326 0.05379 0.24142 0.0
C895 C 0.72239 0.04454 0.21808 0.0
C896 C 0.75294 0.01252 0.24915 0.0
C897 C 0.728 0.01899 0.21103 0.0
C898 C 0.77861 0.97186 0.25521 0.0
C899 C 0.78947 0.98645 0.30547 0.0
N900 N 0.74291 1.00393 0.22646 0.0
N901 N 0.7748 1.00164 0.28993 0.0
H902 H 0.94168 0.96892 0.49832 0.0
H903 H 0.07493 0.04543 0.51397 0.0
H904 H 1.00186 0.96844 0.44099 0.0
H905 H 0.01665 0.04172 0.57312 0.0
H906 H 0.04797 0.01832 0.48641 0.0
H907 H 0.96839 0.99664 0.52543 0.0
C908 C 0.96046 0.97476 0.49135 0.0
C909 C 0.96951 0.96634 0.4673 0.0
C910 C 0.04108 0.02343 0.50542 0.0
C911 C 1.00035 0.99795 0.4984 0.0
C912 C 0.0564 0.03904 0.52111 0.0
C913 C 0.04805 0.04589 0.54592 0.0
C914 C 0.01715 0.01463 0.51452 0.0
C915 C 0.02402 0.03669 0.55428 0.0
C916 C 0.97578 0.99048 0.50692 0.0
C917 C 0.9942 0.97421 0.45949 0.0
N918 N 0.00942 0.0216 0.53861 0.0
N919 N 0.00872 0.9896 0.47497 0.0
H920 H 0.95263 0.25648 0.81052 0.0
H921 H 0.06615 0.25033 0.70619 0.0
H922 H 0.98808 0.32381 0.77692 0.0
H923 H 0.02728 0.18308 0.73587 0.0
H924 H 0.03847 0.2775 0.73282 0.0
H925 H 0.9802 0.22927 0.78385 0.0
C926 C 0.96609 0.26558 0.79744 0.0
C927 C 0.96796 0.29254 0.79599 0.0
C928 C 0.03598 0.2568 0.73351 0.0
C929 C 0.99989 0.26139 0.76557 0.0
C930 C 0.05189 0.24125 0.71842 0.0
C931 C 0.04909 0.21434 0.71881 0.0
C932 C 0.01712 0.24542 0.74923 0.0
C933 C 0.02996 0.20372 0.73473 0.0
C934 C 0.98194 0.25 0.7823 0.0
C935 C 0.98615 0.30316 0.77898 0.0
N936 N 0.01476 0.21927 0.74932 0.0
N937 N 1.00137 0.28757 0.76446 0.0
H938 H 0.55928 0.75323 0.69789 0.0
H939 H 0.45699 0.7594 0.81329 0.0
H940 H 0.53194 0.68616 0.73874 0.0
H941 H 0.48937 0.82677 0.77687 0.0
H942 H 0.48351 0.7322 0.78549 0.0
H943 H 0.533 0.78042 0.72592 0.0
C944 C 0.54765 0.7442 0.71268 0.0
C945 C 0.5478 0.71734 0.71592 0.0
C946 C 0.48486 0.75293 0.7836 0.0
C947 C 0.51777 0.74842 0.74825 0.0
C948 C 0.4696 0.76848 0.79937 0.0
C949 C 0.47091 0.79543 0.7974 0.0
C950 C 0.5015 0.76437 0.76558 0.0
C951 C 0.48792 0.8061 0.77927 0.0
C952 C 0.53276 0.75976 0.72879 0.0
C953 C 0.53265 0.70677 0.7357 0.0
N954 N 0.50247 0.79056 0.76402 0.0
N955 N 0.51821 0.72232 0.75104 0.0
H956 H 0.2204 0.6911 0.01038 0.0
H957 H 0.30264 0.82132 1.00119 0.0
H958 H 0.2244 0.74743 0.07147 0.0
H959 H 0.29111 0.76959 0.93705 0.0
H960 H 0.27524 0.79377 0.02768 0.0
H961 H 0.24743 0.71886 0.98372 0.0
C962 C 0.2268 0.70937 0.01817 0.0
C963 C 0.22 0.71691 0.04326 0.0
C964 C 0.2787 0.78845 0.0078 0.0
C965 C 0.25137 0.74868 0.01285 0.0
C966 C 0.29425 0.80426 0.99259 0.0
C967 C 0.29921 0.79786 0.96676 0.0
C968 C 0.26802 0.76595 0.99721 0.0
C969 C 0.28815 0.77518 0.95692 0.0
C970 C 0.24238 0.72516 1.00295 0.0
C971 C 0.22937 0.74061 0.0524 0.0
N972 N 0.27309 0.76008 0.97214 0.0
N973 N 0.24454 0.75562 0.03722 0.0
H974 H 0.50252 0.43934 0.46335 0.0
H975 H 0.51146 0.5687 0.54717 0.0
H976 H 0.43953 0.49292 0.47194 0.0
H977 H 0.57596 0.51795 0.53384 0.0
H978 H 0.48442 0.54052 0.52081 0.0
H979 H 0.52931 0.46719 0.49028 0.0
C980 C 0.49427 0.45689 0.47102 0.0
C981 C 0.46871 0.46378 0.46536 0.0
C982 C 0.5045 0.53555 0.52363 0.0
C983 C 0.49938 0.49592 0.49608 0.0
C984 C 0.51992 0.55156 0.53881 0.0
C985 C 0.54605 0.5457 0.54275 0.0
C986 C 0.51521 0.51341 0.51235 0.0
C987 C 0.55601 0.52341 0.53109 0.0
C988 C 0.50963 0.47288 0.48627 0.0
C989 C 0.4592 0.48698 0.47553 0.0
N990 N 0.54058 0.50807 0.51648 0.0
N991 N 0.47451 0.50217 0.49042 0.0
loop_
_geom_bond_atom_site_label_1
_geom_bond_atom_site_label_2
_geom_bond_distance
_geom_bond_site_symmetry_2
_ccdc_geom_bond_type
Li0 N17 1.990 . S
Li0 O60 1.956 . S
Li0 O61 1.970 . S
Li0 O62 1.961 . S
Li1 N25 1.990 . S
Li1 O60 1.970 . S
Li1 O61 1.956 . S
Li1 O63 1.961 . S
Li2 N47 1.990 . S
Li2 O60 1.961 . S
Li2 O62 1.956 . S
Li2 O63 1.970 . S
Li3 N53 1.990 . S
Li3 O61 1.961 . S
Li3 O62 1.970 . S
Li3 O63 1.956 . S
C4 C6 1.348 . S
C4 C7 1.356 . S
C4 O60 1.325 . S
N5 C8 1.314 . S
N5 C9 1.279 . S
C6 C4 1.348 . S
C6 C8 1.353 . S
C6 H64 0.929 . S
C7 C4 1.356 . S
C7 C9 1.358 . S
C7 H65 0.930 . S
C8 N5 1.314 . S
C8 C6 1.353 . S
C8 H66 0.930 . S
C9 N5 1.279 . S
C9 C7 1.358 . S
C9 H67 0.930 . S
C10 C13 1.348 . S
C10 C14 1.356 . S
C10 O61 1.325 . S
C11 N12 1.279 . S
C11 C14 1.358 . S
C11 H68 0.930 . S
N12 C11 1.279 . S
N12 C15 1.314 . S
C13 C10 1.348 . S
C13 C15 1.353 . S
C13 H69 0.929 . S
C14 C10 1.356 . S
C14 C11 1.358 . S
C14 H70 0.930 . S
C15 N12 1.314 . S
C15 C13 1.353 . S
C15 H71 0.930 . S
C16 N17 1.314 . S
C16 C21 1.353 . S
C16 H22 0.930 . S
N17 Li0 1.990 . S
N17 C16 1.314 . S
N17 C19 1.279 . S
C18 C19 1.358 . S
C18 C20 1.356 . S
C18 H72 0.930 . S
C19 N17 1.279 . S
C19 C18 1.358 . S
C19 H23 0.930 . S
C20 C18 1.356 . S
C20 C21 1.348 . S
C21 C16 1.353 . S
C21 C20 1.348 . S
C21 H73 0.929 . S
H22 C16 0.930 . S
H23 C19 0.930 . S
C24 N25 1.314 . S
C24 C26 1.353 . S
C24 H30 0.930 . S
N25 Li1 1.990 . S
N25 C24 1.314 . S
N25 C28 1.279 . S
C26 C24 1.353 . S
C26 C29 1.348 . S
C26 H74 0.929 . S
C27 C28 1.358 . S
C27 C29 1.356 . S
C27 H75 0.930 . S
C28 N25 1.279 . S
C28 C27 1.358 . S
C28 H31 0.930 . S
C29 C26 1.348 . S
C29 C27 1.356 . S
H30 C24 0.930 . S
H31 C28 0.930 . S
C32 C34 1.348 . S
C32 C35 1.356 . S
C32 O62 1.325 . S
N33 C36 1.314 . S
N33 C37 1.279 . S
C34 C32 1.348 . S
C34 C36 1.353 . S
C34 H76 0.929 . S
C35 C32 1.356 . S
C35 C37 1.358 . S
C35 H77 0.930 . S
C36 N33 1.314 . S
C36 C34 1.353 . S
C36 H78 0.930 . S
C37 N33 1.279 . S
C37 C35 1.358 . S
C37 H79 0.930 . S
C38 C39 1.348 . S
C38 C40 1.356 . S
C38 O63 1.325 . S
C39 C38 1.348 . S
C39 C41 1.353 . S
C39 H80 0.929 . S
C40 C38 1.356 . S
C40 C42 1.358 . S
C40 H81 0.930 . S
C41 C39 1.353 . S
C41 N43 1.314 . S
C41 H82 0.930 . S
C42 C40 1.358 . S
C42 N43 1.279 . S
C42 H83 0.930 . S
N43 C41 1.314 . S
N43 C42 1.279 . S
C44 C46 1.353 . S
C44 N47 1.314 . S
C44 H50 0.930 . S
C45 N47 1.279 . S
C45 C48 1.358 . S
C45 H51 0.930 . S
C46 C44 1.353 . S
C46 C49 1.348 . S
C46 H84 0.929 . S
N47 Li2 1.990 . S
N47 C44 1.314 . S
N47 C45 1.279 . S
C48 C45 1.358 . S
C48 C49 1.356 . S
C48 H85 0.930 . S
C49 C46 1.348 . S
C49 C48 1.356 . S
H50 C44 0.930 . S
H51 C45 0.930 . S
C52 N53 1.314 . S
C52 C54 1.353 . S
C52 H58 0.930 . S
N53 Li3 1.990 . S
N53 C52 1.314 . S
N53 C56 1.279 . S
C54 C52 1.353 . S
C54 C57 1.348 . S
C54 H86 0.929 . S
C55 C56 1.358 . S
C55 C57 1.356 . S
C55 H87 0.930 . S
C56 N53 1.279 . S
C56 C55 1.358 . S
C56 H59 0.930 . S
C57 C54 1.348 . S
C57 C55 1.356 . S
H58 C52 0.930 . S
H59 C56 0.930 . S
O60 Li0 1.956 . S
O60 Li1 1.970 . S
O60 Li2 1.961 . S
O60 C4 1.325 . S
O61 Li0 1.970 . S
O61 Li1 1.956 . S
O61 Li3 1.961 . S
O61 C10 1.325 . S
O62 Li0 1.961 . S
O62 Li2 1.956 . S
O62 Li3 1.970 . S
O62 C32 1.325 . S
O63 Li1 1.961 . S
O63 Li2 1.970 . S
O63 Li3 1.956 . S
O63 C38 1.325 . S
H64 C6 0.929 . S
H65 C7 0.930 . S
H66 C8 0.930 . S
H67 C9 0.930 . S
H68 C11 0.930 . S
H69 C13 0.929 . S
H70 C14 0.930 . S
H71 C15 0.930 . S
H72 C18 0.930 . S
H73 C21 0.929 . S
H74 C26 0.929 . S
H75 C27 0.930 . S
H76 C34 0.929 . S
H77 C35 0.930 . S
H78 C36 0.930 . S
H79 C37 0.930 . S
H80 C39 0.929 . S
H81 C40 0.930 . S
H82 C41 0.930 . S
H83 C42 0.930 . S
H84 C46 0.929 . S
H85 C48 0.930 . S
H86 C54 0.929 . S
H87 C55 0.930 . S
Li88 N105 1.990 . S
Li88 O148 1.956 . S
Li88 O149 1.970 . S
Li88 O150 1.961 . S
Li89 N113 1.990 . S
Li89 O148 1.970 . S
Li89 O149 1.956 . S
Li89 O151 1.961 . S
Li90 N135 1.990 . S
Li90 O148 1.961 . S
Li90 O150 1.956 . S
Li90 O151 1.970 . S
Li91 N141 1.990 . S
Li91 O149 1.961 . S
Li91 O150 1.970 . S
Li91 O151 1.956 . S
C92 C94 1.348 . S
C92 C95 1.356 . S
C92 O148 1.325 . S
N93 C96 1.314 . S
N93 C97 1.279 . S
C94 C92 1.348 . S
C94 C96 1.353 . S
C94 H152 0.929 . S
C95 C92 1.356 . S
C95 C97 1.358 . S
C95 H153 0.930 . S
C96 N93 1.314 . S
C96 C94 1.353 . S
C96 H154 0.930 . S
C97 N93 1.279 . S
C97 C95 1.358 . S
C97 H155 0.930 . S
C98 C101 1.348 . S
C98 C102 1.356 . S
C98 O149 1.325 . S
C99 N100 1.279 . S
C99 C102 1.358 . S
C99 H156 0.930 . S
N100 C99 1.279 . S
N100 C103 1.314 . S
C101 C98 1.348 . S
C101 C103 1.353 . S
C101 H157 0.929 . S
C102 C98 1.356 . S
C102 C99 1.358 . S
C102 H158 0.930 . S
C103 N100 1.314 . S
C103 C101 1.353 . S
C103 H159 0.930 . S
C104 N105 1.314 . S
C104 C109 1.353 . S
C104 H110 0.930 . S
N105 Li88 1.990 . S
N105 C104 1.314 . S
N105 C107 1.279 . S
C106 C107 1.358 . S
C106 C108 1.356 . S
C106 H160 0.930 . S
C107 N105 1.279 . S
C107 C106 1.358 . S
C107 H111 0.930 . S
C108 C106 1.356 . S
C108 C109 1.348 . S
C109 C104 1.353 . S
C109 C108 1.348 . S
C109 H161 0.929 . S
H110 C104 0.930 . S
H111 C107 0.930 . S
C112 N113 1.314 . S
C112 C114 1.353 . S
C112 H118 0.930 . S
N113 Li89 1.990 . S
N113 C112 1.314 . S
N113 C116 1.279 . S
C114 C112 1.353 . S
C114 C117 1.348 . S
C114 H162 0.929 . S
C115 C116 1.358 . S
C115 C117 1.356 . S
C115 H163 0.930 . S
C116 N113 1.279 . S
C116 C115 1.358 . S
C116 H119 0.930 . S
C117 C114 1.348 . S
C117 C115 1.356 . S
H118 C112 0.930 . S
H119 C116 0.930 . S
C120 C122 1.348 . S
C120 C123 1.356 . S
C120 O150 1.325 . S
N121 C124 1.314 . S
N121 C125 1.279 . S
C122 C120 1.348 . S
C122 C124 1.353 . S
C122 H164 0.929 . S
C123 C120 1.356 . S
C123 C125 1.358 . S
C123 H165 0.930 . S
C124 N121 1.314 . S
C124 C122 1.353 . S
C124 H166 0.930 . S
C125 N121 1.279 . S
C125 C123 1.358 . S
C125 H167 0.930 . S
C126 C127 1.348 . S
C126 C128 1.356 . S
C126 O151 1.325 . S
C127 C126 1.348 . S
C127 C129 1.353 . S
C127 H168 0.929 . S
C128 C126 1.356 . S
C128 C130 1.358 . S
C128 H169 0.930 . S
C129 C127 1.353 . S
C129 N131 1.314 . S
C129 H170 0.930 . S
C130 C128 1.358 . S
C130 N131 1.279 . S
C130 H171 0.930 . S
N131 C129 1.314 . S
N131 C130 1.279 . S
C132 C134 1.353 . S
C132 N135 1.314 . S
C132 H138 0.930 . S
C133 N135 1.279 . S
C133 C136 1.358 . S
C133 H139 0.930 . S
C134 C132 1.353 . S
C134 C137 1.348 . S
C134 H172 0.929 . S
N135 Li90 1.990 . S
N135 C132 1.314 . S
N135 C133 1.279 . S
C136 C133 1.358 . S
C136 C137 1.356 . S
C136 H173 0.930 . S
C137 C134 1.348 . S
C137 C136 1.356 . S
H138 C132 0.930 . S
H139 C133 0.930 . S
C140 N141 1.314 . S
C140 C142 1.353 . S
C140 H146 0.930 . S
N141 Li91 1.990 . S
N141 C140 1.314 . S
N141 C144 1.279 . S
C142 C140 1.353 . S
C142 C145 1.348 . S
C142 H174 0.929 . S
C143 C144 1.358 . S
C143 C145 1.356 . S
C143 H175 0.930 . S
C144 N141 1.279 . S
C144 C143 1.358 . S
C144 H147 0.930 . S
C145 C142 1.348 . S
C145 C143 1.356 . S
H146 C140 0.930 . S
H147 C144 0.930 . S
O148 Li88 1.956 . S
O148 Li89 1.970 . S
O148 Li90 1.961 . S
O148 C92 1.325 . S
O149 Li88 1.970 . S
O149 Li89 1.956 . S
O149 Li91 1.961 . S
O149 C98 1.325 . S
O150 Li88 1.961 . S
O150 Li90 1.956 . S
O150 Li91 1.970 . S
O150 C120 1.325 . S
O151 Li89 1.961 . S
O151 Li90 1.970 . S
O151 Li91 1.956 . S
O151 C126 1.325 . S
H152 C94 0.929 . S
H153 C95 0.930 . S
H154 C96 0.930 . S
H155 C97 0.930 . S
H156 C99 0.930 . S
H157 C101 0.929 . S
H158 C102 0.930 . S
H159 C103 0.930 . S
H160 C106 0.930 . S
H161 C109 0.929 . S
H162 C114 0.929 . S
H163 C115 0.930 . S
H164 C122 0.929 . S
H165 C123 0.930 . S
H166 C124 0.930 . S
H167 C125 0.930 . S
H168 C127 0.929 . S
H169 C128 0.930 . S
H170 C129 0.930 . S
H171 C130 0.930 . S
H172 C134 0.929 . S
H173 C136 0.930 . S
H174 C142 0.929 . S
H175 C143 0.930 . S
Li176 N193 1.990 . S
Li176 O236 1.956 . S
Li176 O237 1.970 . S
Li176 O238 1.961 . S
Li177 N201 1.990 . S
Li177 O236 1.970 . S
Li177 O237 1.956 . S
Li177 O239 1.961 . S
Li178 N223 1.990 . S
Li178 O236 1.961 . S
Li178 O238 1.956 . S
Li178 O239 1.970 . S
Li179 N229 1.990 . S
Li179 O237 1.961 . S
Li179 O238 1.970 . S
Li179 O239 1.956 . S
C180 C182 1.348 . S
C180 C183 1.356 . S
C180 O236 1.325 . S
N181 C184 1.314 . S
N181 C185 1.279 . S
C182 C180 1.348 . S
C182 C184 1.353 . S
C182 H240 0.929 . S
C183 C180 1.356 . S
C183 C185 1.358 . S
C183 H241 0.930 . S
C184 N181 1.314 . S
C184 C182 1.353 . S
C184 H242 0.930 . S
C185 N181 1.279 . S
C185 C183 1.358 . S
C185 H243 0.930 . S
C186 C189 1.348 . S
C186 C190 1.356 . S
C186 O237 1.325 . S
C187 N188 1.279 . S
C187 C190 1.358 . S
C187 H244 0.930 . S
N188 C187 1.279 . S
N188 C191 1.314 . S
C189 C186 1.348 . S
C189 C191 1.353 . S
C189 H245 0.929 . S
C190 C186 1.356 . S
C190 C187 1.358 . S
C190 H246 0.930 . S
C191 N188 1.314 . S
C191 C189 1.353 . S
C191 H247 0.930 . S
C192 N193 1.314 . S
C192 C197 1.353 . S
C192 H198 0.930 . S
N193 Li176 1.990 . S
N193 C192 1.314 . S
N193 C195 1.279 . S
C194 C195 1.358 . S
C194 C196 1.356 . S
C194 H248 0.930 . S
C195 N193 1.279 . S
C195 C194 1.358 . S
C195 H199 0.930 . S
C196 C194 1.356 . S
C196 C197 1.348 . S
C197 C192 1.353 . S
C197 C196 1.348 . S
C197 H249 0.929 . S
H198 C192 0.930 . S
H199 C195 0.930 . S
C200 N201 1.314 . S
C200 C202 1.353 . S
C200 H206 0.930 . S
N201 Li177 1.990 . S
N201 C200 1.314 . S
N201 C204 1.279 . S
C202 C200 1.353 . S
C202 C205 1.348 . S
C202 H250 0.929 . S
C203 C204 1.358 . S
C203 C205 1.356 . S
C203 H251 0.930 . S
C204 N201 1.279 . S
C204 C203 1.358 . S
C204 H207 0.930 . S
C205 C202 1.348 . S
C205 C203 1.356 . S
H206 C200 0.930 . S
H207 C204 0.930 . S
C208 C210 1.348 . S
C208 C211 1.356 . S
C208 O238 1.325 . S
N209 C212 1.314 . S
N209 C213 1.279 . S
C210 C208 1.348 . S
C210 C212 1.353 . S
C210 H252 0.929 . S
C211 C208 1.356 . S
C211 C213 1.358 . S
C211 H253 0.930 . S
C212 N209 1.314 . S
C212 C210 1.353 . S
C212 H254 0.930 . S
C213 N209 1.279 . S
C213 C211 1.358 . S
C213 H255 0.930 . S
C214 C215 1.348 . S
C214 C216 1.356 . S
C214 O239 1.325 . S
C215 C214 1.348 . S
C215 C217 1.353 . S
C215 H256 0.929 . S
C216 C214 1.356 . S
C216 C218 1.358 . S
C216 H257 0.930 . S
C217 C215 1.353 . S
C217 N219 1.314 . S
C217 H258 0.930 . S
C218 C216 1.358 . S
C218 N219 1.279 . S
C218 H259 0.930 . S
N219 C217 1.314 . S
N219 C218 1.279 . S
C220 C222 1.353 . S
C220 N223 1.314 . S
C220 H226 0.930 . S
C221 N223 1.279 . S
C221 C224 1.358 . S
C221 H227 0.930 . S
C222 C220 1.353 . S
C222 C225 1.348 . S
C222 H260 0.929 . S
N223 Li178 1.990 . S
N223 C220 1.314 . S
N223 C221 1.279 . S
C224 C221 1.358 . S
C224 C225 1.356 . S
C224 H261 0.930 . S
C225 C222 1.348 . S
C225 C224 1.356 . S
H226 C220 0.930 . S
H227 C221 0.930 . S
C228 N229 1.314 . S
C228 C230 1.353 . S
C228 H234 0.930 . S
N229 Li179 1.990 . S
N229 C228 1.314 . S
N229 C232 1.279 . S
C230 C228 1.353 . S
C230 C233 1.348 . S
C230 H262 0.929 . S
C231 C232 1.358 . S
C231 C233 1.356 . S
C231 H263 0.930 . S
C232 N229 1.279 . S
C232 C231 1.358 . S
C232 H235 0.930 . S
C233 C230 1.348 . S
C233 C231 1.356 . S
H234 C228 0.930 . S
H235 C232 0.930 . S
O236 Li176 1.956 . S
O236 Li177 1.970 . S
O236 Li178 1.961 . S
O236 C180 1.325 . S
O237 Li176 1.970 . S
O237 Li177 1.956 . S
O237 Li179 1.961 . S
O237 C186 1.325 . S
O238 Li176 1.961 . S
O238 Li178 1.956 . S
O238 Li179 1.970 . S
O238 C208 1.325 . S
O239 Li177 1.961 . S
O239 Li178 1.970 . S
O239 Li179 1.956 . S
O239 C214 1.325 . S
H240 C182 0.929 . S
H241 C183 0.930 . S
H242 C184 0.930 . S
H243 C185 0.930 . S
H244 C187 0.930 . S
H245 C189 0.929 . S
H246 C190 0.930 . S
H247 C191 0.930 . S
H248 C194 0.930 . S
H249 C197 0.929 . S
H250 C202 0.929 . S
H251 C203 0.930 . S
H252 C210 0.929 . S
H253 C211 0.930 . S
H254 C212 0.930 . S
H255 C213 0.930 . S
H256 C215 0.929 . S
H257 C216 0.930 . S
H258 C217 0.930 . S
H259 C218 0.930 . S
H260 C222 0.929 . S
H261 C224 0.930 . S
H262 C230 0.929 . S
H263 C231 0.930 . S
Li264 N281 1.990 . S
Li264 O324 1.956 . S
Li264 O325 1.970 . S
Li264 O326 1.961 . S
Li265 N289 1.990 . S
Li265 O324 1.970 . S
Li265 O325 1.956 . S
Li265 O327 1.961 . S
Li266 N311 1.990 . S
Li266 O324 1.961 . S
Li266 O326 1.956 . S
Li266 O327 1.970 . S
Li267 N317 1.990 . S
Li267 O325 1.961 . S
Li267 O326 1.970 . S
Li267 O327 1.956 . S
C268 C270 1.348 . S
C268 C271 1.356 . S
C268 O324 1.325 . S
N269 C272 1.314 . S
N269 C273 1.279 . S
C270 C268 1.348 . S
C270 C272 1.353 . S
C270 H328 0.929 . S
C271 C268 1.356 . S
C271 C273 1.358 . S
C271 H329 0.930 . S
C272 N269 1.314 . S
C272 C270 1.353 . S
C272 H330 0.930 . S
C273 N269 1.279 . S
C273 C271 1.358 . S
C273 H331 0.930 . S
C274 C277 1.348 . S
C274 C278 1.356 . S
C274 O325 1.325 . S
C275 N276 1.279 . S
C275 C278 1.358 . S
C275 H332 0.930 . S
N276 C275 1.279 . S
N276 C279 1.314 . S
C277 C274 1.348 . S
C277 C279 1.353 . S
C277 H333 0.929 . S
C278 C274 1.356 . S
C278 C275 1.358 . S
C278 H334 0.930 . S
C279 N276 1.314 . S
C279 C277 1.353 . S
C279 H335 0.930 . S
C280 N281 1.314 . S
C280 C285 1.353 . S
C280 H286 0.930 . S
N281 Li264 1.990 . S
N281 C280 1.314 . S
N281 C283 1.279 . S
C282 C283 1.358 . S
C282 C284 1.356 . S
C282 H336 0.930 . S
C283 N281 1.279 . S
C283 C282 1.358 . S
C283 H287 0.930 . S
C284 C282 1.356 . S
C284 C285 1.348 . S
C285 C280 1.353 . S
C285 C284 1.348 . S
C285 H337 0.929 . S
H286 C280 0.930 . S
H287 C283 0.930 . S
C288 N289 1.314 . S
C288 C290 1.353 . S
C288 H294 0.930 . S
N289 Li265 1.990 . S
N289 C288 1.314 . S
N289 C292 1.279 . S
C290 C288 1.353 . S
C290 C293 1.348 . S
C290 H338 0.929 . S
C291 C292 1.358 . S
C291 C293 1.356 . S
C291 H339 0.930 . S
C292 N289 1.279 . S
C292 C291 1.358 . S
C292 H295 0.930 . S
C293 C290 1.348 . S
C293 C291 1.356 . S
H294 C288 0.930 . S
H295 C292 0.930 . S
C296 C298 1.348 . S
C296 C299 1.356 . S
C296 O326 1.325 . S
N297 C300 1.314 . S
N297 C301 1.279 . S
C298 C296 1.348 . S
C298 C300 1.353 . S
C298 H340 0.929 . S
C299 C296 1.356 . S
C299 C301 1.358 . S
C299 H341 0.930 . S
C300 N297 1.314 . S
C300 C298 1.353 . S
C300 H342 0.930 . S
C301 N297 1.279 . S
C301 C299 1.358 . S
C301 H343 0.930 . S
C302 C303 1.348 . S
C302 C304 1.356 . S
C302 O327 1.325 . S
C303 C302 1.348 . S
C303 C305 1.353 . S
C303 H344 0.929 . S
C304 C302 1.356 . S
C304 C306 1.358 . S
C304 H345 0.930 . S
C305 C303 1.353 . S
C305 N307 1.314 . S
C305 H346 0.930 . S
C306 C304 1.358 . S
C306 N307 1.279 . S
C306 H347 0.930 . S
N307 C305 1.314 . S
N307 C306 1.279 . S
C308 C310 1.353 . S
C308 N311 1.314 . S
C308 H314 0.930 . S
C309 N311 1.279 . S
C309 C312 1.358 . S
C309 H315 0.930 . S
C310 C308 1.353 . S
C310 C313 1.348 . S
C310 H348 0.929 . S
N311 Li266 1.990 . S
N311 C308 1.314 . S
N311 C309 1.279 . S
C312 C309 1.358 . S
C312 C313 1.356 . S
C312 H349 0.930 . S
C313 C310 1.348 . S
C313 C312 1.356 . S
H314 C308 0.930 . S
H315 C309 0.930 . S
C316 N317 1.314 . S
C316 C318 1.353 . S
C316 H322 0.930 . S
N317 Li267 1.990 . S
N317 C316 1.314 . S
N317 C320 1.279 . S
C318 C316 1.353 . S
C318 C321 1.348 . S
C318 H350 0.929 . S
C319 C320 1.358 . S
C319 C321 1.356 . S
C319 H351 0.930 . S
C320 N317 1.279 . S
C320 C319 1.358 . S
C320 H323 0.930 . S
C321 C318 1.348 . S
C321 C319 1.356 . S
H322 C316 0.930 . S
H323 C320 0.930 . S
O324 Li264 1.956 . S
O324 Li265 1.970 . S
O324 Li266 1.961 . S
O324 C268 1.325 . S
O325 Li264 1.970 . S
O325 Li265 1.956 . S
O325 Li267 1.961 . S
O325 C274 1.325 . S
O326 Li264 1.961 . S
O326 Li266 1.956 . S
O326 Li267 1.970 . S
O326 C296 1.325 . S
O327 Li265 1.961 . S
O327 Li266 1.970 . S
O327 Li267 1.956 . S
O327 C302 1.325 . S
H328 C270 0.929 . S
H329 C271 0.930 . S
H330 C272 0.930 . S
H331 C273 0.930 . S
H332 C275 0.930 . S
H333 C277 0.929 . S
H334 C278 0.930 . S
H335 C279 0.930 . S
H336 C282 0.930 . S
H337 C285 0.929 . S
H338 C290 0.929 . S
H339 C291 0.930 . S
H340 C298 0.929 . S
H341 C299 0.930 . S
H342 C300 0.930 . S
H343 C301 0.930 . S
H344 C303 0.929 . S
H345 C304 0.930 . S
H346 C305 0.930 . S
H347 C306 0.930 . S
H348 C310 0.929 . S
H349 C312 0.930 . S
H350 C318 0.929 . S
H351 C319 0.930 . S
Li352 N369 1.990 . S
Li352 O412 1.956 . S
Li352 O413 1.970 . S
Li352 O414 1.961 . S
Li353 N377 1.990 . S
Li353 O412 1.970 . S
Li353 O413 1.956 . S
Li353 O415 1.961 . S
Li354 N399 1.990 . S
Li354 O412 1.961 . S
Li354 O414 1.956 . S
Li354 O415 1.970 . S
Li355 N405 1.990 . S
Li355 O413 1.961 . S
Li355 O414 1.970 . S
Li355 O415 1.956 . S
C356 C358 1.348 . S
C356 C359 1.356 . S
C356 O412 1.325 . S
N357 C360 1.314 . S
N357 C361 1.279 . S
C358 C356 1.348 . S
C358 C360 1.353 . S
C358 H416 0.929 . S
C359 C356 1.356 . S
C359 C361 1.358 . S
C359 H417 0.930 . S
C360 N357 1.314 . S
C360 C358 1.353 . S
C360 H418 0.930 . S
C361 N357 1.279 . S
C361 C359 1.358 . S
C361 H419 0.930 . S
C362 C365 1.348 . S
C362 C366 1.356 . S
C362 O413 1.325 . S
C363 N364 1.279 . S
C363 C366 1.358 . S
C363 H420 0.930 . S
N364 C363 1.279 . S
N364 C367 1.314 . S
C365 C362 1.348 . S
C365 C367 1.353 . S
C365 H421 0.929 . S
C366 C362 1.356 . S
C366 C363 1.358 . S
C366 H422 0.930 . S
C367 N364 1.314 . S
C367 C365 1.353 . S
C367 H423 0.930 . S
C368 N369 1.314 . S
C368 C373 1.353 . S
C368 H374 0.930 . S
N369 Li352 1.990 . S
N369 C368 1.314 . S
N369 C371 1.279 . S
C370 C371 1.358 . S
C370 C372 1.356 . S
C370 H424 0.930 . S
C371 N369 1.279 . S
C371 C370 1.358 . S
C371 H375 0.930 . S
C372 C370 1.356 . S
C372 C373 1.348 . S
C373 C368 1.353 . S
C373 C372 1.348 . S
C373 H425 0.929 . S
H374 C368 0.930 . S
H375 C371 0.930 . S
C376 N377 1.314 . S
C376 C378 1.353 . S
C376 H382 0.930 . S
N377 Li353 1.990 . S
N377 C376 1.314 . S
N377 C380 1.279 . S
C378 C376 1.353 . S
C378 C381 1.348 . S
C378 H426 0.929 . S
C379 C380 1.358 . S
C379 C381 1.356 . S
C379 H427 0.930 . S
C380 N377 1.279 . S
C380 C379 1.358 . S
C380 H383 0.930 . S
C381 C378 1.348 . S
C381 C379 1.356 . S
H382 C376 0.930 . S
H383 C380 0.930 . S
C384 C386 1.348 . S
C384 C387 1.356 . S
C384 O414 1.325 . S
N385 C388 1.314 . S
N385 C389 1.279 . S
C386 C384 1.348 . S
C386 C388 1.353 . S
C386 H428 0.929 . S
C387 C384 1.356 . S
C387 C389 1.358 . S
C387 H429 0.930 . S
C388 N385 1.314 . S
C388 C386 1.353 . S
C388 H430 0.930 . S
C389 N385 1.279 . S
C389 C387 1.358 . S
C389 H431 0.930 . S
C390 C391 1.348 . S
C390 C392 1.356 . S
C390 O415 1.325 . S
C391 C390 1.348 . S
C391 C393 1.353 . S
C391 H432 0.929 . S
C392 C390 1.356 . S
C392 C394 1.358 . S
C392 H433 0.930 . S
C393 C391 1.353 . S
C393 N395 1.314 . S
C393 H434 0.930 . S
C394 C392 1.358 . S
C394 N395 1.279 . S
C394 H435 0.930 . S
N395 C393 1.314 . S
N395 C394 1.279 . S
C396 C398 1.353 . S
C396 N399 1.314 . S
C396 H402 0.930 . S
C397 N399 1.279 . S
C397 C400 1.358 . S
C397 H403 0.930 . S
C398 C396 1.353 . S
C398 C401 1.348 . S
C398 H436 0.929 . S
N399 Li354 1.990 . S
N399 C396 1.314 . S
N399 C397 1.279 . S
C400 C397 1.358 . S
C400 C401 1.356 . S
C400 H437 0.930 . S
C401 C398 1.348 . S
C401 C400 1.356 . S
H402 C396 0.930 . S
H403 C397 0.930 . S
C404 N405 1.314 . S
C404 C406 1.353 . S
C404 H410 0.930 . S
N405 Li355 1.990 . S
N405 C404 1.314 . S
N405 C408 1.279 . S
C406 C404 1.353 . S
C406 C409 1.348 . S
C406 H438 0.929 . S
C407 C408 1.358 . S
C407 C409 1.356 . S
C407 H439 0.930 . S
C408 N405 1.279 . S
C408 C407 1.358 . S
C408 H411 0.930 . S
C409 C406 1.348 . S
C409 C407 1.356 . S
H410 C404 0.930 . S
H411 C408 0.930 . S
O412 Li352 1.956 . S
O412 Li353 1.970 . S
O412 Li354 1.961 . S
O412 C356 1.325 . S
O413 Li352 1.970 . S
O413 Li353 1.956 . S
O413 Li355 1.961 . S
O413 C362 1.325 . S
O414 Li352 1.961 . S
O414 Li354 1.956 . S
O414 Li355 1.970 . S
O414 C384 1.325 . S
O415 Li353 1.961 . S
O415 Li354 1.970 . S
O415 Li355 1.956 . S
O415 C390 1.325 . S
H416 C358 0.929 . S
H417 C359 0.930 . S
H418 C360 0.930 . S
H419 C361 0.930 . S
H420 C363 0.930 . S
H421 C365 0.929 . S
H422 C366 0.930 . S
H423 C367 0.930 . S
H424 C370 0.930 . S
H425 C373 0.929 . S
H426 C378 0.929 . S
H427 C379 0.930 . S
H428 C386 0.929 . S
H429 C387 0.930 . S
H430 C388 0.930 . S
H431 C389 0.930 . S
H432 C391 0.929 . S
H433 C392 0.930 . S
H434 C393 0.930 . S
H435 C394 0.930 . S
H436 C398 0.929 . S
H437 C400 0.930 . S
H438 C406 0.929 . S
H439 C407 0.930 . S
Li440 N457 1.990 . S
Li440 O500 1.956 . S
Li440 O501 1.970 . S
Li440 O502 1.961 . S
Li441 N465 1.990 . S
Li441 O500 1.970 . S
Li441 O501 1.956 . S
Li441 O503 1.961 . S
Li442 N487 1.990 . S
Li442 O500 1.961 . S
Li442 O502 1.956 . S
Li442 O503 1.970 . S
Li443 N493 1.990 . S
Li443 O501 1.961 . S
Li443 O502 1.970 . S
Li443 O503 1.956 . S
C444 C446 1.348 . S
C444 C447 1.356 . S
C444 O500 1.325 . S
N445 C448 1.314 . S
N445 C449 1.279 . S
C446 C444 1.348 . S
C446 C448 1.353 . S
C446 H504 0.929 . S
C447 C444 1.356 . S
C447 C449 1.358 . S
C447 H505 0.930 . S
C448 N445 1.314 . S
C448 C446 1.353 . S
C448 H506 0.930 . S
C449 N445 1.279 . S
C449 C447 1.358 . S
C449 H507 0.930 . S
C450 C453 1.348 . S
C450 C454 1.356 . S
C450 O501 1.325 . S
C451 N452 1.279 . S
C451 C454 1.358 . S
C451 H508 0.930 . S
N452 C451 1.279 . S
N452 C455 1.314 . S
C453 C450 1.348 . S
C453 C455 1.353 . S
C453 H509 0.929 . S
C454 C450 1.356 . S
C454 C451 1.358 . S
C454 H510 0.930 . S
C455 N452 1.314 . S
C455 C453 1.353 . S
C455 H511 0.930 . S
C456 N457 1.314 . S
C456 C461 1.353 . S
C456 H462 0.930 . S
N457 Li440 1.990 . S
N457 C456 1.314 . S
N457 C459 1.279 . S
C458 C459 1.358 . S
C458 C460 1.356 . S
C458 H512 0.930 . S
C459 N457 1.279 . S
C459 C458 1.358 . S
C459 H463 0.930 . S
C460 C458 1.356 . S
C460 C461 1.348 . S
C461 C456 1.353 . S
C461 C460 1.348 . S
C461 H513 0.929 . S
H462 C456 0.930 . S
H463 C459 0.930 . S
C464 N465 1.314 . S
C464 C466 1.353 . S
C464 H470 0.930 . S
N465 Li441 1.990 . S
N465 C464 1.314 . S
N465 C468 1.279 . S
C466 C464 1.353 . S
C466 C469 1.348 . S
C466 H514 0.929 . S
C467 C468 1.358 . S
C467 C469 1.356 . S
C467 H515 0.930 . S
C468 N465 1.279 . S
C468 C467 1.358 . S
C468 H471 0.930 . S
C469 C466 1.348 . S
C469 C467 1.356 . S
H470 C464 0.930 . S
H471 C468 0.930 . S
C472 C474 1.348 . S
C472 C475 1.356 . S
C472 O502 1.325 . S
N473 C476 1.314 . S
N473 C477 1.279 . S
C474 C472 1.348 . S
C474 C476 1.353 . S
C474 H516 0.929 . S
C475 C472 1.356 . S
C475 C477 1.358 . S
C475 H517 0.930 . S
C476 N473 1.314 . S
C476 C474 1.353 . S
C476 H518 0.930 . S
C477 N473 1.279 . S
C477 C475 1.358 . S
C477 H519 0.930 . S
C478 C479 1.348 . S
C478 C480 1.356 . S
C478 O503 1.325 . S
C479 C478 1.348 . S
C479 C481 1.353 . S
C479 H520 0.929 . S
C480 C478 1.356 . S
C480 C482 1.358 . S
C480 H521 0.930 . S
C481 C479 1.353 . S
C481 N483 1.314 . S
C481 H522 0.930 . S
C482 C480 1.358 . S
C482 N483 1.279 . S
C482 H523 0.930 . S
N483 C481 1.314 . S
N483 C482 1.279 . S
C484 C486 1.353 . S
C484 N487 1.314 . S
C484 H490 0.930 . S
C485 N487 1.279 . S
C485 C488 1.358 . S
C485 H491 0.930 . S
C486 C484 1.353 . S
C486 C489 1.348 . S
C486 H524 0.929 . S
N487 Li442 1.990 . S
N487 C484 1.314 . S
N487 C485 1.279 . S
C488 C485 1.358 . S
C488 C489 1.356 . S
C488 H525 0.930 . S
C489 C486 1.348 . S
C489 C488 1.356 . S
H490 C484 0.930 . S
H491 C485 0.930 . S
C492 N493 1.314 . S
C492 C494 1.353 . S
C492 H498 0.930 . S
N493 Li443 1.990 . S
N493 C492 1.314 . S
N493 C496 1.279 . S
C494 C492 1.353 . S
C494 C497 1.348 . S
C494 H526 0.929 . S
C495 C496 1.358 . S
C495 C497 1.356 . S
C495 H527 0.930 . S
C496 N493 1.279 . S
C496 C495 1.358 . S
C496 H499 0.930 . S
C497 C494 1.348 . S
C497 C495 1.356 . S
H498 C492 0.930 . S
H499 C496 0.930 . S
O500 Li440 1.956 . S
O500 Li441 1.970 . S
O500 Li442 1.961 . S
O500 C444 1.325 . S
O501 Li440 1.970 . S
O501 Li441 1.956 . S
O501 Li443 1.961 . S
O501 C450 1.325 . S
O502 Li440 1.961 . S
O502 Li442 1.956 . S
O502 Li443 1.970 . S
O502 C472 1.325 . S
O503 Li441 1.961 . S
O503 Li442 1.970 . S
O503 Li443 1.956 . S
O503 C478 1.325 . S
H504 C446 0.929 . S
H505 C447 0.930 . S
H506 C448 0.930 . S
H507 C449 0.930 . S
H508 C451 0.930 . S
H509 C453 0.929 . S
H510 C454 0.930 . S
H511 C455 0.930 . S
H512 C458 0.930 . S
H513 C461 0.929 . S
H514 C466 0.929 . S
H515 C467 0.930 . S
H516 C474 0.929 . S
H517 C475 0.930 . S
H518 C476 0.930 . S
H519 C477 0.930 . S
H520 C479 0.929 . S
H521 C480 0.930 . S
H522 C481 0.930 . S
H523 C482 0.930 . S
H524 C486 0.929 . S
H525 C488 0.930 . S
H526 C494 0.929 . S
H527 C495 0.930 . S
Li528 N545 1.990 . S
Li528 O588 1.956 . S
Li528 O589 1.970 . S
Li528 O590 1.961 . S
Li529 N553 1.990 . S
Li529 O588 1.970 . S
Li529 O589 1.956 . S
Li529 O591 1.961 . S
Li530 N575 1.990 . S
Li530 O588 1.961 . S
Li530 O590 1.956 . S
Li530 O591 1.970 . S
Li531 N581 1.990 . S
Li531 O589 1.961 . S
Li531 O590 1.970 . S
Li531 O591 1.956 . S
C532 C534 1.348 . S
C532 C535 1.356 . S
C532 O588 1.325 . S
N533 C536 1.314 . S
N533 C537 1.279 . S
C534 C532 1.348 . S
C534 C536 1.353 . S
C534 H592 0.929 . S
C535 C532 1.356 . S
C535 C537 1.358 . S
C535 H593 0.930 . S
C536 N533 1.314 . S
C536 C534 1.353 . S
C536 H594 0.930 . S
C537 N533 1.279 . S
C537 C535 1.358 . S
C537 H595 0.930 . S
C538 C541 1.348 . S
C538 C542 1.356 . S
C538 O589 1.325 . S
C539 N540 1.279 . S
C539 C542 1.358 . S
C539 H596 0.930 . S
N540 C539 1.279 . S
N540 C543 1.314 . S
C541 C538 1.348 . S
C541 C543 1.353 . S
C541 H597 0.929 . S
C542 C538 1.356 . S
C542 C539 1.358 . S
C542 H598 0.930 . S
C543 N540 1.314 . S
C543 C541 1.353 . S
C543 H599 0.930 . S
C544 N545 1.314 . S
C544 C549 1.353 . S
C544 H550 0.930 . S
N545 Li528 1.990 . S
N545 C544 1.314 . S
N545 C547 1.279 . S
C546 C547 1.358 . S
C546 C548 1.356 . S
C546 H600 0.930 . S
C547 N545 1.279 . S
C547 C546 1.358 . S
C547 H551 0.930 . S
C548 C546 1.356 . S
C548 C549 1.348 . S
C549 C544 1.353 . S
C549 C548 1.348 . S
C549 H601 0.929 . S
H550 C544 0.930 . S
H551 C547 0.930 . S
C552 N553 1.314 . S
C552 C554 1.353 . S
C552 H558 0.930 . S
N553 Li529 1.990 . S
N553 C552 1.314 . S
N553 C556 1.279 . S
C554 C552 1.353 . S
C554 C557 1.348 . S
C554 H602 0.929 . S
C555 C556 1.358 . S
C555 C557 1.356 . S
C555 H603 0.930 . S
C556 N553 1.279 . S
C556 C555 1.358 . S
C556 H559 0.930 . S
C557 C554 1.348 . S
C557 C555 1.356 . S
H558 C552 0.930 . S
H559 C556 0.930 . S
C560 C562 1.348 . S
C560 C563 1.356 . S
C560 O590 1.325 . S
N561 C564 1.314 . S
N561 C565 1.279 . S
C562 C560 1.348 . S
C562 C564 1.353 . S
C562 H604 0.929 . S
C563 C560 1.356 . S
C563 C565 1.358 . S
C563 H605 0.930 . S
C564 N561 1.314 . S
C564 C562 1.353 . S
C564 H606 0.930 . S
C565 N561 1.279 . S
C565 C563 1.358 . S
C565 H607 0.930 . S
C566 C567 1.348 . S
C566 C568 1.356 . S
C566 O591 1.325 . S
C567 C566 1.348 . S
C567 C569 1.353 . S
C567 H608 0.929 . S
C568 C566 1.356 . S
C568 C570 1.358 . S
C568 H609 0.930 . S
C569 C567 1.353 . S
C569 N571 1.314 . S
C569 H610 0.930 . S
C570 C568 1.358 . S
C570 N571 1.279 . S
C570 H611 0.930 . S
N571 C569 1.314 . S
N571 C570 1.279 . S
C572 C574 1.353 . S
C572 N575 1.314 . S
C572 H578 0.930 . S
C573 N575 1.279 . S
C573 C576 1.358 . S
C573 H579 0.930 . S
C574 C572 1.353 . S
C574 C577 1.348 . S
C574 H612 0.929 . S
N575 Li530 1.990 . S
N575 C572 1.314 . S
N575 C573 1.279 . S
C576 C573 1.358 . S
C576 C577 1.356 . S
C576 H613 0.930 . S
C577 C574 1.348 . S
C577 C576 1.356 . S
H578 C572 0.930 . S
H579 C573 0.930 . S
C580 N581 1.314 . S
C580 C582 1.353 . S
C580 H586 0.930 . S
N581 Li531 1.990 . S
N581 C580 1.314 . S
N581 C584 1.279 . S
C582 C580 1.353 . S
C582 C585 1.348 . S
C582 H614 0.929 . S
C583 C584 1.358 . S
C583 C585 1.356 . S
C583 H615 0.930 . S
C584 N581 1.279 . S
C584 C583 1.358 . S
C584 H587 0.930 . S
C585 C582 1.348 . S
C585 C583 1.356 . S
H586 C580 0.930 . S
H587 C584 0.930 . S
O588 Li528 1.956 . S
O588 Li529 1.970 . S
O588 Li530 1.961 . S
O588 C532 1.325 . S
O589 Li528 1.970 . S
O589 Li529 1.956 . S
O589 Li531 1.961 . S
O589 C538 1.325 . S
O590 Li528 1.961 . S
O590 Li530 1.956 . S
O590 Li531 1.970 . S
O590 C560 1.325 . S
O591 Li529 1.961 . S
O591 Li530 1.970 . S
O591 Li531 1.956 . S
O591 C566 1.325 . S
H592 C534 0.929 . S
H593 C535 0.930 . S
H594 C536 0.930 . S
H595 C537 0.930 . S
H596 C539 0.930 . S
H597 C541 0.929 . S
H598 C542 0.930 . S
H599 C543 0.930 . S
H600 C546 0.930 . S
H601 C549 0.929 . S
H602 C554 0.929 . S
H603 C555 0.930 . S
H604 C562 0.929 . S
H605 C563 0.930 . S
H606 C564 0.930 . S
H607 C565 0.930 . S
H608 C567 0.929 . S
H609 C568 0.930 . S
H610 C569 0.930 . S
H611 C570 0.930 . S
H612 C574 0.929 . S
H613 C576 0.930 . S
H614 C582 0.929 . S
H615 C583 0.930 . S
Li616 N633 1.990 . S
Li616 O676 1.956 . S
Li616 O677 1.970 . S
Li616 O678 1.961 . S
Li617 N641 1.990 . S
Li617 O676 1.970 . S
Li617 O677 1.956 . S
Li617 O679 1.961 . S
Li618 N663 1.990 . S
Li618 O676 1.961 . S
Li618 O678 1.956 . S
Li618 O679 1.970 . S
Li619 N669 1.990 . S
Li619 O677 1.961 . S
Li619 O678 1.970 . S
Li619 O679 1.956 . S
C620 C622 1.348 . S
C620 C623 1.356 . S
C620 O676 1.325 . S
N621 C624 1.314 . S
N621 C625 1.279 . S
C622 C620 1.348 . S
C622 C624 1.353 . S
C622 H680 0.929 . S
C623 C620 1.356 . S
C623 C625 1.358 . S
C623 H681 0.930 . S
C624 N621 1.314 . S
C624 C622 1.353 . S
C624 H682 0.930 . S
C625 N621 1.279 . S
C625 C623 1.358 . S
C625 H683 0.930 . S
C626 C629 1.348 . S
C626 C630 1.356 . S
C626 O677 1.325 . S
C627 N628 1.279 . S
C627 C630 1.358 . S
C627 H684 0.930 . S
N628 C627 1.279 . S
N628 C631 1.314 . S
C629 C626 1.348 . S
C629 C631 1.353 . S
C629 H685 0.929 . S
C630 C626 1.356 . S
C630 C627 1.358 . S
C630 H686 0.930 . S
C631 N628 1.314 . S
C631 C629 1.353 . S
C631 H687 0.930 . S
C632 N633 1.314 . S
C632 C637 1.353 . S
C632 H638 0.930 . S
N633 Li616 1.990 . S
N633 C632 1.314 . S
N633 C635 1.279 . S
C634 C635 1.358 . S
C634 C636 1.356 . S
C634 H688 0.930 . S
C635 N633 1.279 . S
C635 C634 1.358 . S
C635 H639 0.930 . S
C636 C634 1.356 . S
C636 C637 1.348 . S
C637 C632 1.353 . S
C637 C636 1.348 . S
C637 H689 0.929 . S
H638 C632 0.930 . S
H639 C635 0.930 . S
C640 N641 1.314 . S
C640 C642 1.353 . S
C640 H646 0.930 . S
N641 Li617 1.990 . S
N641 C640 1.314 . S
N641 C644 1.279 . S
C642 C640 1.353 . S
C642 C645 1.348 . S
C642 H690 0.929 . S
C643 C644 1.358 . S
C643 C645 1.356 . S
C643 H691 0.930 . S
C644 N641 1.279 . S
C644 C643 1.358 . S
C644 H647 0.930 . S
C645 C642 1.348 . S
C645 C643 1.356 . S
H646 C640 0.930 . S
H647 C644 0.930 . S
C648 C650 1.348 . S
C648 C651 1.356 . S
C648 O678 1.325 . S
N649 C652 1.314 . S
N649 C653 1.279 . S
C650 C648 1.348 . S
C650 C652 1.353 . S
C650 H692 0.929 . S
C651 C648 1.356 . S
C651 C653 1.358 . S
C651 H693 0.930 . S
C652 N649 1.314 . S
C652 C650 1.353 . S
C652 H694 0.930 . S
C653 N649 1.279 . S
C653 C651 1.358 . S
C653 H695 0.930 . S
C654 C655 1.348 . S
C654 C656 1.356 . S
C654 O679 1.325 . S
C655 C654 1.348 . S
C655 C657 1.353 . S
C655 H696 0.929 . S
C656 C654 1.356 . S
C656 C658 1.358 . S
C656 H697 0.930 . S
C657 C655 1.353 . S
C657 N659 1.314 . S
C657 H698 0.930 . S
C658 C656 1.358 . S
C658 N659 1.279 . S
C658 H699 0.930 . S
N659 C657 1.314 . S
N659 C658 1.279 . S
C660 C662 1.353 . S
C660 N663 1.314 . S
C660 H666 0.930 . S
C661 N663 1.279 . S
C661 C664 1.358 . S
C661 H667 0.930 . S
C662 C660 1.353 . S
C662 C665 1.348 . S
C662 H700 0.929 . S
N663 Li618 1.990 . S
N663 C660 1.314 . S
N663 C661 1.279 . S
C664 C661 1.358 . S
C664 C665 1.356 . S
C664 H701 0.930 . S
C665 C662 1.348 . S
C665 C664 1.356 . S
H666 C660 0.930 . S
H667 C661 0.930 . S
C668 N669 1.314 . S
C668 C670 1.353 . S
C668 H674 0.930 . S
N669 Li619 1.990 . S
N669 C668 1.314 . S
N669 C672 1.279 . S
C670 C668 1.353 . S
C670 C673 1.348 . S
C670 H702 0.929 . S
C671 C672 1.358 . S
C671 C673 1.356 . S
C671 H703 0.930 . S
C672 N669 1.279 . S
C672 C671 1.358 . S
C672 H675 0.930 . S
C673 C670 1.348 . S
C673 C671 1.356 . S
H674 C668 0.930 . S
H675 C672 0.930 . S
O676 Li616 1.956 . S
O676 Li617 1.970 . S
O676 Li618 1.961 . S
O676 C620 1.325 . S
O677 Li616 1.970 . S
O677 Li617 1.956 . S
O677 Li619 1.961 . S
O677 C626 1.325 . S
O678 Li616 1.961 . S
O678 Li618 1.956 . S
O678 Li619 1.970 . S
O678 C648 1.325 . S
O679 Li617 1.961 . S
O679 Li618 1.970 . S
O679 Li619 1.956 . S
O679 C654 1.325 . S
H680 C622 0.929 . S
H681 C623 0.930 . S
H682 C624 0.930 . S
H683 C625 0.930 . S
H684 C627 0.930 . S
H685 C629 0.929 . S
H686 C630 0.930 . S
H687 C631 0.930 . S
H688 C634 0.930 . S
H689 C637 0.929 . S
H690 C642 0.929 . S
H691 C643 0.930 . S
H692 C650 0.929 . S
H693 C651 0.930 . S
H694 C652 0.930 . S
H695 C653 0.930 . S
H696 C655 0.929 . S
H697 C656 0.930 . S
H698 C657 0.930 . S
H699 C658 0.930 . S
H700 C662 0.929 . S
H701 C664 0.930 . S
H702 C670 0.929 . S
H703 C671 0.930 . S
H704 C710 0.930 . S
H705 C714 0.930 . S
H706 C719 0.929 . S
H707 C717 0.929 . S
H708 C712 0.929 . S
H709 C718 0.929 . S
C710 H704 0.930 . S
C710 C711 1.367 . S
C710 C718 1.378 . S
C711 C710 1.367 . S
C711 C719 1.433 . S
C712 H708 0.929 . S
C712 C714 1.378 . S
C712 C716 1.350 . S
C713 C716 1.463 . S
C713 C718 1.350 . S
C713 N721 1.427 . S
C714 H705 0.930 . S
C714 C712 1.378 . S
C714 C715 1.367 . S
C715 C714 1.367 . S
C715 C717 1.433 . S
C716 C712 1.350 . S
C716 C713 1.463 . S
C716 N720 1.427 . S
C717 H707 0.929 . S
C717 C715 1.433 . S
C717 N720 1.384 . S
C718 H709 0.929 . S
C718 C710 1.378 . S
C718 C713 1.350 . S
C719 H706 0.929 . S
C719 C711 1.433 . S
C719 N721 1.384 . S
N720 C716 1.427 . S
N720 C717 1.384 . S
N721 C713 1.427 . S
N721 C719 1.384 . S
H722 C728 0.930 . S
H723 C732 0.930 . S
H724 C737 0.929 . S
H725 C735 0.929 . S
H726 C730 0.929 . S
H727 C736 0.929 . S
C728 H722 0.930 . S
C728 C729 1.367 . S
C728 C736 1.378 . S
C729 C728 1.367 . S
C729 C737 1.433 . S
C730 H726 0.929 . S
C730 C732 1.378 . S
C730 C734 1.350 . S
C731 C734 1.463 . S
C731 C736 1.350 . S
C731 N739 1.427 . S
C732 H723 0.930 . S
C732 C730 1.378 . S
C732 C733 1.367 . S
C733 C732 1.367 . S
C733 C735 1.433 . S
C734 C730 1.350 . S
C734 C731 1.463 . S
C734 N738 1.427 . S
C735 H725 0.929 . S
C735 C733 1.433 . S
C735 N738 1.384 . S
C736 H727 0.929 . S
C736 C728 1.378 . S
C736 C731 1.350 . S
C737 H724 0.929 . S
C737 C729 1.433 . S
C737 N739 1.384 . S
N738 C734 1.427 . S
N738 C735 1.384 . S
N739 C731 1.427 . S
N739 C737 1.384 . S
H740 C746 0.930 . S
H741 C750 0.930 . S
H742 C755 0.929 . S
H743 C753 0.929 . S
H744 C748 0.929 1_544 S
H745 C754 0.929 1_566 S
C746 H740 0.930 . S
C746 C747 1.367 . S
C746 C754 1.378 . S
C747 C746 1.367 . S
C747 C755 1.433 . S
C748 H744 0.929 1_566 S
C748 C750 1.378 . S
C748 C752 1.350 . S
C749 C752 1.463 1_544 S
C749 C754 1.350 . S
C749 N757 1.427 . S
C750 H741 0.930 . S
C750 C748 1.378 . S
C750 C751 1.367 . S
C751 C750 1.367 . S
C751 C753 1.433 . S
C752 C748 1.350 . S
C752 C749 1.463 1_566 S
C752 N756 1.427 . S
C753 H743 0.929 . S
C753 C751 1.433 . S
C753 N756 1.384 . S
C754 H745 0.929 1_544 S
C754 C746 1.378 . S
C754 C749 1.350 . S
C755 H742 0.929 . S
C755 C747 1.433 . S
C755 N757 1.384 . S
N756 C752 1.427 . S
N756 C753 1.384 . S
N757 C749 1.427 . S
N757 C755 1.384 . S
H758 C764 0.930 . S
H759 C768 0.930 . S
H760 C773 0.929 . S
H761 C771 0.929 . S
H762 C766 0.929 . S
H763 C772 0.929 . S
C764 H758 0.930 . S
C764 C765 1.367 . S
C764 C772 1.378 . S
C765 C764 1.367 . S
C765 C773 1.433 . S
C766 H762 0.929 . S
C766 C768 1.378 . S
C766 C770 1.350 . S
C767 C770 1.463 1_655 S
C767 C772 1.350 . S
C767 N775 1.427 . S
C768 H759 0.930 . S
C768 C766 1.378 . S
C768 C769 1.367 . S
C769 C768 1.367 . S
C769 C771 1.433 . S
C770 C766 1.350 . S
C770 C767 1.463 1_455 S
C770 N774 1.427 . S
C771 H761 0.929 . S
C771 C769 1.433 . S
C771 N774 1.384 . S
C772 H763 0.929 . S
C772 C764 1.378 . S
C772 C767 1.350 . S
C773 H760 0.929 . S
C773 C765 1.433 . S
C773 N775 1.384 . S
N774 C770 1.427 . S
N774 C771 1.384 . S
N775 C767 1.427 . S
N775 C773 1.384 . S
H776 C782 0.930 . S
H777 C786 0.930 . S
H778 C791 0.929 . S
H779 C789 0.929 . S
H780 C784 0.929 . S
H781 C790 0.929 . S
C782 H776 0.930 . S
C782 C783 1.367 . S
C782 C790 1.378 1_565 S
C783 C782 1.367 . S
C783 C791 1.433 . S
C784 H780 0.929 . S
C784 C786 1.378 1_565 S
C784 C788 1.350 1_565 S
C785 C788 1.463 1_565 S
C785 C790 1.350 1_565 S
C785 N793 1.427 . S
C786 H777 0.930 . S
C786 C784 1.378 1_545 S
C786 C787 1.367 . S
C787 C786 1.367 . S
C787 C789 1.433 . S
C788 C784 1.350 1_545 S
C788 C785 1.463 1_545 S
C788 N792 1.427 . S
C789 H779 0.929 . S
C789 C787 1.433 . S
C789 N792 1.384 . S
C790 H781 0.929 . S
C790 C782 1.378 1_545 S
C790 C785 1.350 1_545 S
C791 H778 0.929 . S
C791 C783 1.433 . S
C791 N793 1.384 . S
N792 C788 1.427 . S
N792 C789 1.384 . S
N793 C785 1.427 . S
N793 C791 1.384 . S
H794 C800 0.930 . S
H795 C804 0.930 . S
H796 C809 0.929 . S
H797 C807 0.929 . S
H798 C802 0.929 . S
H799 C808 0.929 . S
C800 H794 0.930 . S
C800 C801 1.367 . S
C800 C808 1.378 . S
C801 C800 1.367 . S
C801 C809 1.433 . S
C802 H798 0.929 . S
C802 C804 1.378 . S
C802 C806 1.350 . S
C803 C806 1.463 1_656 S
C803 C808 1.350 . S
C803 N811 1.427 1_556 S
C804 H795 0.930 . S
C804 C802 1.378 . S
C804 C805 1.367 . S
C805 C804 1.367 . S
C805 C807 1.433 . S
C806 C802 1.350 . S
C806 C803 1.463 1_454 S
C806 N810 1.427 1_554 S
C807 H797 0.929 . S
C807 C805 1.433 . S
C807 N810 1.384 1_554 S
C808 H799 0.929 . S
C808 C800 1.378 . S
C808 C803 1.350 . S
C809 H796 0.929 . S
C809 C801 1.433 . S
C809 N811 1.384 1_556 S
N810 C806 1.427 1_556 S
N810 C807 1.384 1_556 S
N811 C803 1.427 1_554 S
N811 C809 1.384 1_554 S
H812 C818 0.930 . S
H813 C822 0.930 . S
H814 C827 0.929 . S
H815 C825 0.929 . S
H816 C820 0.929 . S
H817 C826 0.929 . S
C818 H812 0.930 . S
C818 C819 1.367 . S
C818 C826 1.378 . S
C819 C818 1.367 . S
C819 C827 1.433 . S
C820 H816 0.929 . S
C820 C822 1.378 . S
C820 C824 1.350 . S
C821 C824 1.463 . S
C821 C826 1.350 . S
C821 N829 1.427 . S
C822 H813 0.930 . S
C822 C820 1.378 . S
C822 C823 1.367 . S
C823 C822 1.367 . S
C823 C825 1.433 . S
C824 C820 1.350 . S
C824 C821 1.463 . S
C824 N828 1.427 . S
C825 H815 0.929 . S
C825 C823 1.433 . S
C825 N828 1.384 . S
C826 H817 0.929 . S
C826 C818 1.378 . S
C826 C821 1.350 . S
C827 H814 0.929 . S
C827 C819 1.433 . S
C827 N829 1.384 . S
N828 C824 1.427 . S
N828 C825 1.384 . S
N829 C821 1.427 . S
N829 C827 1.384 . S
H830 C836 0.930 . S
H831 C840 0.930 . S
H832 C845 0.929 . S
H833 C843 0.929 . S
H834 C838 0.929 . S
H835 C844 0.929 . S
C836 H830 0.930 . S
C836 C837 1.367 . S
C836 C844 1.378 . S
C837 C836 1.367 . S
C837 C845 1.433 . S
C838 H834 0.929 . S
C838 C840 1.378 . S
C838 C842 1.350 . S
C839 C842 1.463 . S
C839 C844 1.350 . S
C839 N847 1.427 . S
C840 H831 0.930 . S
C840 C838 1.378 . S
C840 C841 1.367 . S
C841 C840 1.367 . S
C841 C843 1.433 . S
C842 C838 1.350 . S
C842 C839 1.463 . S
C842 N846 1.427 . S
C843 H833 0.929 . S
C843 C841 1.433 . S
C843 N846 1.384 . S
C844 H835 0.929 . S
C844 C836 1.378 . S
C844 C839 1.350 . S
C845 H832 0.929 . S
C845 C837 1.433 . S
C845 N847 1.384 . S
N846 C842 1.427 . S
N846 C843 1.384 . S
N847 C839 1.427 . S
N847 C845 1.384 . S
H848 C854 0.930 . S
H849 C858 0.930 . S
H850 C863 0.929 . S
H851 C861 0.929 . S
H852 C856 0.929 . S
H853 C862 0.929 . S
C854 H848 0.930 . S
C854 C855 1.367 . S
C854 C862 1.378 . S
C855 C854 1.367 . S
C855 C863 1.433 . S
C856 H852 0.929 . S
C856 C858 1.378 . S
C856 C860 1.350 . S
C857 C860 1.463 . S
C857 C862 1.350 . S
C857 N865 1.427 . S
C858 H849 0.930 . S
C858 C856 1.378 . S
C858 C859 1.367 . S
C859 C858 1.367 . S
C859 C861 1.433 . S
C860 C856 1.350 . S
C860 C857 1.463 . S
C860 N864 1.427 . S
C861 H851 0.929 . S
C861 C859 1.433 . S
C861 N864 1.384 . S
C862 H853 0.929 . S
C862 C854 1.378 . S
C862 C857 1.350 . S
C863 H850 0.929 . S
C863 C855 1.433 . S
C863 N865 1.384 . S
N864 C860 1.427 . S
N864 C861 1.384 . S
N865 C857 1.427 . S
N865 C863 1.384 . S
H866 C872 0.930 . S
H867 C876 0.930 . S
H868 C881 0.929 . S
H869 C879 0.929 . S
H870 C874 0.929 . S
H871 C880 0.929 . S
C872 H866 0.930 . S
C872 C873 1.367 . S
C872 C880 1.378 . S
C873 C872 1.367 . S
C873 C881 1.433 . S
C874 H870 0.929 . S
C874 C876 1.378 . S
C874 C878 1.350 . S
C875 C878 1.463 1_556 S
C875 C880 1.350 . S
C875 N883 1.427 . S
C876 H867 0.930 . S
C876 C874 1.378 . S
C876 C877 1.367 . S
C877 C876 1.367 . S
C877 C879 1.433 . S
C878 C874 1.350 . S
C878 C875 1.463 1_554 S
C878 N882 1.436 . S
C879 H869 0.929 . S
C879 C877 1.433 . S
C879 N882 1.402 . S
C880 H871 0.929 . S
C880 C872 1.378 . S
C880 C875 1.350 . S
C881 H868 0.929 . S
C881 C873 1.433 . S
C881 N883 1.384 . S
N882 C878 1.436 . S
N882 C879 1.402 . S
N883 C875 1.427 . S
N883 C881 1.384 . S
H884 C890 0.930 . S
H885 C894 0.930 . S
H886 C899 0.929 . S
H887 C897 0.929 . S
H888 C892 0.929 . S
H889 C898 0.929 . S
C890 H884 0.930 . S
C890 C891 1.367 . S
C890 C898 1.378 . S
C891 C890 1.367 . S
C891 C899 1.433 . S
C892 H888 0.929 . S
C892 C894 1.378 . S
C892 C896 1.350 . S
C893 C896 1.463 1_565 S
C893 C898 1.350 . S
C893 N901 1.425 1_565 S
C894 H885 0.930 . S
C894 C892 1.378 . S
C894 C895 1.367 . S
C895 C894 1.367 . S
C895 C897 1.433 . S
C896 C892 1.350 . S
C896 C893 1.463 1_545 S
C896 N900 1.432 . S
C897 H887 0.929 . S
C897 C895 1.433 . S
C897 N900 1.392 . S
C898 H889 0.929 . S
C898 C890 1.378 . S
C898 C893 1.350 . S
C899 H886 0.929 . S
C899 C891 1.433 . S
C899 N901 1.379 1_565 S
N900 C896 1.432 . S
N900 C897 1.392 . S
N901 C893 1.425 1_545 S
N901 C899 1.379 1_545 S
H902 C908 0.930 . S
H903 C912 0.930 . S
H904 C917 0.929 . S
H905 C915 0.929 . S
H906 C910 0.929 1_565 S
H907 C916 0.929 1_545 S
C908 H902 0.930 . S
C908 C909 1.367 . S
C908 C916 1.378 . S
C909 C908 1.367 . S
C909 C917 1.433 . S
C910 H906 0.929 1_545 S
C910 C912 1.378 . S
C910 C914 1.350 . S
C911 C914 1.463 1_665 S
C911 C916 1.350 . S
C911 N919 1.427 1_655 S
C912 H903 0.930 . S
C912 C910 1.378 . S
C912 C913 1.367 . S
C913 C912 1.367 . S
C913 C915 1.433 . S
C914 C910 1.350 . S
C914 C911 1.463 1_445 S
C914 N918 1.427 1_455 S
C915 H905 0.929 . S
C915 C913 1.433 . S
C915 N918 1.384 1_455 S
C916 H907 0.929 1_565 S
C916 C908 1.378 . S
C916 C911 1.350 . S
C917 H904 0.929 . S
C917 C909 1.433 . S
C917 N919 1.384 1_655 S
N918 C914 1.427 1_655 S
N918 C915 1.384 1_655 S
N919 C911 1.427 1_455 S
N919 C917 1.384 1_455 S
H920 C926 0.930 . S
H921 C930 0.930 . S
H922 C935 0.929 . S
H923 C933 0.929 . S
H924 C928 0.929 . S
H925 C934 0.929 . S
C926 H920 0.930 . S
C926 C927 1.367 . S
C926 C934 1.378 . S
C927 C926 1.367 . S
C927 C935 1.433 . S
C928 H924 0.929 . S
C928 C930 1.378 . S
C928 C932 1.350 . S
C929 C932 1.463 1_655 S
C929 C934 1.350 . S
C929 N937 1.427 . S
C930 H921 0.930 . S
C930 C928 1.378 . S
C930 C931 1.367 . S
C931 C930 1.367 . S
C931 C933 1.433 . S
C932 C928 1.350 . S
C932 C929 1.463 1_455 S
C932 N936 1.427 . S
C933 H923 0.929 . S
C933 C931 1.433 . S
C933 N936 1.384 . S
C934 H925 0.929 . S
C934 C926 1.378 . S
C934 C929 1.350 . S
C935 H922 0.929 . S
C935 C927 1.433 . S
C935 N937 1.384 . S
N936 C932 1.427 . S
N936 C933 1.384 . S
N937 C929 1.427 . S
N937 C935 1.384 . S
H938 C944 0.930 . S
H939 C948 0.930 . S
H940 C953 0.929 . S
H941 C951 0.929 . S
H942 C946 0.929 . S
H943 C952 0.929 . S
C944 H938 0.930 . S
C944 C945 1.367 . S
C944 C952 1.378 . S
C945 C944 1.367 . S
C945 C953 1.433 . S
C946 H942 0.929 . S
C946 C948 1.378 . S
C946 C950 1.350 . S
C947 C950 1.463 . S
C947 C952 1.350 . S
C947 N955 1.427 . S
C948 H939 0.930 . S
C948 C946 1.378 . S
C948 C949 1.367 . S
C949 C948 1.367 . S
C949 C951 1.433 . S
C950 C946 1.350 . S
C950 C947 1.463 . S
C950 N954 1.427 . S
C951 H941 0.929 . S
C951 C949 1.433 . S
C951 N954 1.384 . S
C952 H943 0.929 . S
C952 C944 1.378 . S
C952 C947 1.350 . S
C953 H940 0.929 . S
C953 C945 1.433 . S
C953 N955 1.384 . S
N954 C950 1.427 . S
N954 C951 1.384 . S
N955 C947 1.427 . S
N955 C953 1.384 . S
H956 C962 0.930 . S
H957 C966 0.930 . S
H958 C971 0.929 . S
H959 C969 0.929 . S
H960 C964 0.929 . S
H961 C970 0.929 . S
C962 H956 0.930 . S
C962 C963 1.367 . S
C962 C970 1.378 1_554 S
C963 C962 1.367 . S
C963 C971 1.433 . S
C964 H960 0.929 . S
C964 C966 1.378 1_554 S
C964 C968 1.350 1_554 S
C965 C968 1.463 1_554 S
C965 C970 1.350 1_554 S
C965 N973 1.427 . S
C966 H957 0.930 . S
C966 C964 1.378 1_556 S
C966 C967 1.367 . S
C967 C966 1.367 . S
C967 C969 1.433 . S
C968 C964 1.350 1_556 S
C968 C965 1.463 1_556 S
C968 N972 1.427 . S
C969 H959 0.929 . S
C969 C967 1.433 . S
C969 N972 1.384 . S
C970 H961 0.929 . S
C970 C962 1.378 1_556 S
C970 C965 1.350 1_556 S
C971 H958 0.929 . S
C971 C963 1.433 . S
C971 N973 1.384 . S
N972 C968 1.427 . S
N972 C969 1.384 . S
N973 C965 1.427 . S
N973 C971 1.384 . S
H974 C980 0.930 . S
H975 C984 0.930 . S
H976 C989 0.929 . S
H977 C987 0.929 . S
H978 C982 0.929 . S
H979 C988 0.929 . S
C980 H974 0.930 . S
C980 C981 1.367 . S
C980 C988 1.378 . S
C981 C980 1.367 . S
C981 C989 1.433 . S
C982 H978 0.929 . S
C982 C984 1.378 . S
C982 C986 1.350 . S
C983 C986 1.463 . S
C983 C988 1.350 . S
C983 N991 1.427 . S
C984 H975 0.930 . S
C984 C982 1.378 . S
C984 C985 1.367 . S
C985 C984 1.367 . S
C985 C987 1.433 . S
C986 C982 1.350 . S
C986 C983 1.463 . S
C986 N990 1.427 . S
C987 H977 0.929 . S
C987 C985 1.433 . S
C987 N990 1.384 . S
C988 H979 0.929 . S
C988 C980 1.378 . S
C988 C983 1.350 . S
C989 H976 0.929 . S
C989 C981 1.433 . S
C989 N991 1.384 . S
N990 C986 1.427 . S
N990 C987 1.384 . S
N991 C983 1.427 . S
N991 C989 1.384 . S
C711 C497 1.499 . S
C715 C49 1.499 . S
C729 C645 1.500 . S
C733 C108 1.500 . S
C747 C233 1.499 . S
C751 C557 1.499 . S
C765 C321 1.499 . S
C769 C372 1.500 . S
C783 C548 1.500 . S
C787 C29 1.499 . S
C801 C117 1.500 . S
C805 C409 1.499 . S
C819 C489 1.499 . S
C823 C196 1.500 . S
C837 C313 1.500 . S
C841 C665 1.499 . S
C855 C381 1.500 . S
C859 C460 1.500 . S
C873 C145 1.500 . S
C877 C225 1.499 . S
C891 C293 1.499 . S
C895 C205 1.500 . S
C909 C284 1.499 . S
C913 C57 1.499 . S
C927 C137 1.500 . S
C931 C20 1.499 . S
C945 C636 1.499 . S
C949 C577 1.500 . S
C963 C401 1.500 . S
C967 C585 1.499 . S
C981 C469 1.500 . S
C985 C673 1.500 . S
