# Generated by pormake.
# Topology wkc, (5)-cn, num edge types: 1
# Building blocks:
#     Node 0, Type 0, BuildingBlock: BEQFEK_clean_sbu_0, # of connection points: 5
#     Node 1, Type 0, BuildingBlock: BEQFEK_clean_sbu_0, # of connection points: 5
#     Node 2, Type 0, BuildingBlock: BEQFEK_clean_sbu_0, # of connection points: 5
#     Node 3, Type 0, BuildingBlock: BEQFEK_clean_sbu_0, # of connection points: 5
#     Node 4, Type 0, BuildingBlock: BEQFEK_clean_sbu_0, # of connection points: 5
#     Node 5, Type 0, BuildingBlock: BEQFEK_clean_sbu_0, # of connection points: 5
#     Node 6, Type 0, BuildingBlock: BEQFEK_clean_sbu_0, # of connection points: 5
#     Node 7, Type 0, BuildingBlock: BEQFEK_clean_sbu_0, # of connection points: 5
#     Node 8, Type 0, BuildingBlock: BEQFEK_clean_sbu_0, # of connection points: 5
#     Node 9, Type 0, BuildingBlock: BEQFEK_clean_sbu_0, # of connection points: 5
#     Node 10, Type 0, BuildingBlock: BEQFEK_clean_sbu_0, # of connection points: 5
#     Node 11, Type 0, BuildingBlock: BEQFEK_clean_sbu_0, # of connection points: 5
#     Edge 12, Type (0, 0), BuildingBlock: AJUNOK_clean_linker_0, # of connection points: 2
#     Edge 13, Type (0, 0), BuildingBlock: AJUNOK_clean_linker_0, # of connection points: 2
#     Edge 14, Type (0, 0), BuildingBlock: AJUNOK_clean_linker_0, # of connection points: 2
#     Edge 15, Type (0, 0), BuildingBlock: AJUNOK_clean_linker_0, # of connection points: 2
#     Edge 16, Type (0, 0), BuildingBlock: AJUNOK_clean_linker_0, # of connection points: 2
#     Edge 17, Type (0, 0), BuildingBlock: AJUNOK_clean_linker_0, # of connection points: 2
#     Edge 18, Type (0, 0), BuildingBlock: AJUNOK_clean_linker_0, # of connection points: 2
#     Edge 19, Type (0, 0), BuildingBlock: AJUNOK_clean_linker_0, # of connection points: 2
#     Edge 20, Type (0, 0), BuildingBlock: AJUNOK_clean_linker_0, # of connection points: 2
#     Edge 21, Type (0, 0), BuildingBlock: AJUNOK_clean_linker_0, # of connection points: 2
#     Edge 22, Type (0, 0), BuildingBlock: AJUNOK_clean_linker_0, # of connection points: 2
#     Edge 23, Type (0, 0), BuildingBlock: AJUNOK_clean_linker_0, # of connection points: 2
#     Edge 24, Type (0, 0), BuildingBlock: AJUNOK_clean_linker_0, # of connection points: 2
#     Edge 25, Type (0, 0), BuildingBlock: AJUNOK_clean_linker_0, # of connection points: 2
#     Edge 26, Type (0, 0), BuildingBlock: AJUNOK_clean_linker_0, # of connection points: 2
#     Edge 27, Type (0, 0), BuildingBlock: AJUNOK_clean_linker_0, # of connection points: 2
#     Edge 28, Type (0, 0), BuildingBlock: AJUNOK_clean_linker_0, # of connection points: 2
#     Edge 29, Type (0, 0), BuildingBlock: AJUNOK_clean_linker_0, # of connection points: 2
#     Edge 30, Type (0, 0), BuildingBlock: AJUNOK_clean_linker_0, # of connection points: 2
#     Edge 31, Type (0, 0), BuildingBlock: AJUNOK_clean_linker_0, # of connection points: 2
#     Edge 32, Type (0, 0), BuildingBlock: AJUNOK_clean_linker_0, # of connection points: 2
#     Edge 33, Type (0, 0), BuildingBlock: AJUNOK_clean_linker_0, # of connection points: 2
#     Edge 34, Type (0, 0), BuildingBlock: AJUNOK_clean_linker_0, # of connection points: 2
#     Edge 35, Type (0, 0), BuildingBlock: AJUNOK_clean_linker_0, # of connection points: 2
#     Edge 36, Type (0, 0), BuildingBlock: AJUNOK_clean_linker_0, # of connection points: 2
#     Edge 37, Type (0, 0), BuildingBlock: AJUNOK_clean_linker_0, # of connection points: 2
#     Edge 38, Type (0, 0), BuildingBlock: AJUNOK_clean_linker_0, # of connection points: 2
#     Edge 39, Type (0, 0), BuildingBlock: AJUNOK_clean_linker_0, # of connection points: 2
#     Edge 40, Type (0, 0), BuildingBlock: AJUNOK_clean_linker_0, # of connection points: 2
#     Edge 41, Type (0, 0), BuildingBlock: AJUNOK_clean_linker_0, # of connection points: 2
# Relax obj value: 0.264
# Max RMSD: 0.181
# Mean RMSD: 0.181
data_MOF--net-wkc--node1-BEQFEK_clean_sbu_0--edge1-AJUNOK_clean_linker_0
_symmetry_space_group_name_H-M    P1
_symmetry_Int_Tables_number       1
_symmetry_cell_setting            triclinic
loop_
_symmetry_equiv_pos_as_xyz
'x, y, z'
_cell_length_a     31.66797
_cell_length_b     31.675586
_cell_length_c     32.702673
_cell_angle_alpha  89.970066
_cell_angle_beta   90.043314
_cell_angle_gamma 120.0087
loop_
_atom_site_label
_atom_site_type_symbol
_atom_site_fract_x
_atom_site_fract_y
_atom_site_fract_z
_atom_type_partial_charge
Co0 Co 0.26963 0.3382 0.01015 0.0
Co1 Co 0.26921 0.42619 0.0536 0.0
C2 C 0.17653 0.34056 0.02909 0.0
O3 O 0.19869 0.31876 0.01636 0.0
O4 O 0.19972 0.38395 0.04239 0.0
C5 C 0.26741 0.28603 0.93579 0.0
O6 O 0.25978 0.31804 0.91659 0.0
C7 C 0.25668 0.51045 0.06697 0.0
C8 C 0.31494 0.553 0.1119 0.0
C9 C 0.27928 0.55415 0.0882 0.0
N10 N 0.279 0.48527 0.07677 0.0
N11 N 0.31316 0.51042 0.10419 0.0
C12 C 0.21395 0.49202 0.03856 0.0
H13 H 0.22444 0.48519 0.00796 0.0
H14 H 0.2 0.51781 0.03601 0.0
H15 H 0.18414 0.45675 0.0502 0.0
C16 C 0.35089 0.4219 0.96428 0.0
N17 N 0.31208 0.40302 0.98988 0.0
N18 N 0.3092 0.43924 0.00673 0.0
C19 C 0.34452 0.48182 0.99119 0.0
C20 C 0.37262 0.4724 0.96432 0.0
C21 C 0.37142 0.39329 0.94486 0.0
H22 H 0.3618 0.36009 0.96295 0.0
H23 H 0.35636 0.3826 0.91355 0.0
H24 H 0.4117 0.4157 0.94225 0.0
O25 O 0.29221 0.33395 0.06568 0.0
O26 O 0.28799 0.39436 0.09637 0.0
H27 H 0.36676 0.54102 0.03315 0.0
H28 H 0.37643 0.55934 0.98015 0.0
C29 C 0.35147 0.53084 1.00187 0.0
H30 H 0.31585 0.52938 1.001 0.0
H31 H 0.33631 0.49921 0.11663 0.0
O32 O 0.27267 0.28855 0.97449 0.0
C33 C 0.29616 0.35889 0.09754 0.0
Co34 Co 0.92987 0.26562 0.16769 0.0
Co35 Co 0.84336 0.2679 0.21276 0.0
C36 C 0.83499 0.17371 0.19056 0.0
O37 O 0.87825 0.19479 0.17608 0.0
O38 O 0.8159 0.19794 0.20392 0.0
C39 C 0.98322 0.26465 0.09394 0.0
O40 O 0.9446 0.25682 0.07292 0.0
C41 C 0.74719 0.25725 0.22942 0.0
C42 C 0.76687 0.31662 0.27408 0.0
C43 C 0.72803 0.28062 0.25228 0.0
N44 N 0.79533 0.27915 0.23689 0.0
N45 N 0.80669 0.31407 0.26406 0.0
C46 C 0.72051 0.2144 0.20149 0.0
H47 H 0.7296 0.18591 0.20962 0.0
H48 H 0.7326 0.22576 0.16954 0.0
H49 H 0.68043 0.19849 0.20362 0.0
C50 C 0.92688 0.34605 0.121 0.0
N51 N 0.90705 0.30762 0.14701 0.0
N52 N 0.8686 0.30562 0.16445 0.0
C53 C 0.86151 0.34098 0.14876 0.0
C54 C 0.8984 0.36817 0.12106 0.0
C55 C 0.97645 0.36672 0.10228 0.0
H56 H 1.00001 0.35801 0.1214 0.0
H57 H 0.97297 0.35087 0.07141 0.0
H58 H 0.99396 0.40688 0.09884 0.0
O59 O 0.95812 0.29012 0.22221 0.0
O60 O 0.89572 0.28888 0.25431 0.0
H61 H 0.82888 0.36714 0.19156 0.0
H62 H 0.81636 0.37361 0.13878 0.0
C63 C 0.82097 0.34972 0.16097 0.0
H64 H 0.78634 0.31461 0.16245 0.0
H65 H 0.84193 0.33703 0.27495 0.0
O66 O 0.98341 0.26888 0.13267 0.0
C67 C 0.93926 0.29672 0.25423 0.0
Co68 Co 0.66549 0.93021 0.33561 0.0
Co69 Co 0.57803 0.84021 0.37868 0.0
C70 C 0.66606 0.8364 0.35766 0.0
O71 O 0.68704 0.88024 0.34446 0.0
O72 O 0.62212 0.81494 0.3697 0.0
C73 C 0.71755 0.98327 0.26129 0.0
O74 O 0.68595 0.94414 0.24128 0.0
C75 C 0.49465 0.74268 0.39301 0.0
C76 C 0.45106 0.75883 0.43639 0.0
C77 C 0.45069 0.72165 0.41387 0.0
N78 N 0.5192 0.79048 0.40188 0.0
N79 N 0.49345 0.79973 0.42845 0.0
C80 C 0.51374 0.71814 0.36564 0.0
H81 H 0.54944 0.72494 0.37747 0.0
H82 H 0.52002 0.73421 0.33455 0.0
H83 H 0.48852 0.6782 0.36412 0.0
C84 C 0.58082 0.9246 0.28879 0.0
N85 N 0.60054 0.9054 0.31433 0.0
N86 N 0.56494 0.86535 0.33062 0.0
C87 C 0.52209 0.85651 0.31444 0.0
C88 C 0.53044 0.89396 0.28781 0.0
C89 C 0.60808 0.97516 0.27167 0.0
H90 H 0.6402 0.99867 0.29096 0.0
H91 H 0.62059 0.97377 0.24032 0.0
H92 H 0.58412 0.99137 0.26969 0.0
O93 O 0.66727 0.95719 0.39052 0.0
O94 O 0.60772 0.89168 0.42103 0.0
H95 H 0.4619 0.8189 0.35537 0.0
H96 H 0.44538 0.80792 0.30202 0.0
C97 C 0.47362 0.81344 0.32485 0.0
H98 H 0.47671 0.78022 0.32551 0.0
H99 H 0.50408 0.83432 0.44003 0.0
O100 O 0.71506 0.9843 0.30015 0.0
C101 C 0.64201 0.93588 0.42217 0.0
Co102 Co 0.74085 0.66902 0.50567 0.0
Co103 Co 0.74338 0.58222 0.55035 0.0
C104 C 0.83528 0.66969 0.52762 0.0
O105 O 0.81239 0.69051 0.51412 0.0
O106 O 0.81287 0.6261 0.54066 0.0
C107 C 0.74176 0.72269 0.43132 0.0
O108 O 0.75237 0.69336 0.41111 0.0
C109 C 0.75395 0.49644 0.56558 0.0
C110 C 0.69693 0.45788 0.61233 0.0
C111 C 0.73071 0.45377 0.58833 0.0
N112 N 0.73419 0.52404 0.57538 0.0
N113 N 0.70107 0.50137 0.6041 0.0
C114 C 0.79005 0.50846 0.53176 0.0
H115 H 0.78899 0.53509 0.51032 0.0
H116 H 0.78273 0.475 0.51499 0.0
H117 H 0.82722 0.52519 0.54505 0.0
C118 C 0.66239 0.58383 0.45913 0.0
N119 N 0.7009 0.60372 0.48508 0.0
N120 N 0.70465 0.56819 0.50247 0.0
C121 C 0.67014 0.52512 0.48702 0.0
C122 C 0.64168 0.53342 0.45963 0.0
C123 C 0.64098 0.61141 0.43919 0.0
H124 H 0.64835 0.6436 0.45783 0.0
H125 H 0.65759 0.62383 0.40854 0.0
H126 H 0.60102 0.58782 0.43502 0.0
O127 O 0.71544 0.67187 0.56033 0.0
O128 O 0.72163 0.6129 0.59156 0.0
H129 H 0.65032 0.46787 0.53071 0.0
H130 H 0.63753 0.44702 0.4784 0.0
C131 C 0.66367 0.47654 0.49879 0.0
H132 H 0.69907 0.47776 0.4966 0.0
H133 H 0.67948 0.51446 0.61654 0.0
O134 O 0.73589 0.71806 0.46994 0.0
C135 C 0.71143 0.64698 0.59223 0.0
Co136 Co 0.07547 0.74099 0.67258 0.0
Co137 Co 0.1584 0.73392 0.72023 0.0
C138 C 0.16972 0.8306 0.70057 0.0
O139 O 0.12803 0.81135 0.68304 0.0
O140 O 0.18634 0.80428 0.71447 0.0
C141 C 0.02644 0.7467 0.59735 0.0
O142 O 0.06713 0.75798 0.57808 0.0
C143 C 0.25329 0.74186 0.73654 0.0
C144 C 0.23246 0.6791 0.77767 0.0
C145 C 0.27151 0.71576 0.75659 0.0
N146 N 0.2053 0.72062 0.74438 0.0
N147 N 0.19329 0.68375 0.76966 0.0
C148 C 0.28066 0.78657 0.71075 0.0
H149 H 0.27775 0.81672 0.725 0.0
H150 H 0.26374 0.7802 0.68 0.0
H151 H 0.31983 0.79787 0.70809 0.0
C152 C 0.08102 0.6636 0.62298 0.0
N153 N 0.09867 0.69947 0.65146 0.0
N154 N 0.13594 0.70001 0.66988 0.0
C155 C 0.14463 0.66657 0.65235 0.0
C156 C 0.10997 0.64203 0.62238 0.0
C157 C 0.033 0.64458 0.60182 0.0
H158 H 0.00798 0.65176 0.62036 0.0
H159 H 0.03899 0.66289 0.57181 0.0
H160 H 0.01585 0.60479 0.59618 0.0
O161 O 0.04448 0.71455 0.72632 0.0
O162 O 0.10393 0.71123 0.75971 0.0
H163 H 0.17692 0.63901 0.69427 0.0
H164 H 0.19077 0.63519 0.64133 0.0
C165 C 0.18517 0.65771 0.66424 0.0
H166 H 0.21938 0.69298 0.66656 0.0
H167 H 0.15791 0.66056 0.78013 0.0
O168 O 0.02374 0.73953 0.63585 0.0
C169 C 0.06106 0.70523 0.75852 0.0
Co170 Co 0.34408 0.08027 0.84229 0.0
Co171 Co 0.42586 0.16209 0.89728 0.0
C172 C 0.34026 0.16934 0.86655 0.0
O173 O 0.3203 0.12804 0.84853 0.0
O174 O 0.38104 0.18638 0.88478 0.0
C175 C 0.26847 0.01993 0.77961 0.0
O176 O 0.25309 0.0515 0.78031 0.0
C177 C 0.51219 0.25717 0.91051 0.0
C178 C 0.54194 0.24495 0.96757 0.0
C179 C 0.55156 0.27881 0.93694 0.0
N180 N 0.48108 0.21227 0.92452 0.0
N181 N 0.49847 0.20555 0.95914 0.0
C182 C 0.50682 0.27644 0.87024 0.0
H183 H 0.47758 0.24694 0.8517 0.0
H184 H 0.54184 0.29323 0.85323 0.0
H185 H 0.49724 0.3052 0.87571 0.0
C186 C 0.43248 0.10022 0.79428 0.0
N187 N 0.41092 0.11016 0.8255 0.0
N188 N 0.44499 0.14153 0.85018 0.0
C189 C 0.48904 0.1511 0.83639 0.0
C190 C 0.48274 0.12596 0.80007 0.0
C191 C 0.40533 0.06602 0.76003 0.0
H192 H 0.37451 0.07093 0.7503 0.0
H193 H 0.42951 0.07215 0.73345 0.0
H194 H 0.39036 0.02801 0.77093 0.0
O195 O 0.33599 0.04881 0.8973 0.0
O196 O 0.39274 0.10794 0.93555 0.0
H197 H 0.56187 0.16607 0.8513 0.0
H198 H 0.55221 0.21717 0.85549 0.0
C199 C 0.53532 0.1774 0.86061 0.0
H200 H 0.52753 0.16977 0.89364 0.0
H201 H 0.48189 0.17316 0.97588 0.0
O202 O 0.30368 0.02653 0.80272 0.0
C203 C 0.35737 0.06465 0.93166 0.0
Co204 Co 0.66815 0.73046 0.82913 0.0
Co205 Co 0.57869 0.72344 0.78078 0.0
C206 C 0.66306 0.81992 0.80172 0.0
O207 O 0.68611 0.80082 0.81832 0.0
O208 O 0.62016 0.79371 0.78782 0.0
C209 C 0.72245 0.73679 0.90488 0.0
O210 O 0.69213 0.74688 0.92405 0.0
C211 C 0.49345 0.73318 0.76338 0.0
C212 C 0.45194 0.67265 0.72017 0.0
C213 C 0.45024 0.70955 0.74149 0.0
N214 N 0.51912 0.71078 0.75591 0.0
N215 N 0.4945 0.67507 0.72957 0.0
C216 C 0.51148 0.77744 0.78978 0.0
H217 H 0.52699 0.77231 0.81854 0.0
H218 H 0.48275 0.7866 0.79662 0.0
H219 H 0.54122 0.80865 0.77319 0.0
C220 C 0.58434 0.65219 0.87781 0.0
N221 N 0.60296 0.68838 0.84959 0.0
N222 N 0.56641 0.68866 0.83059 0.0
C223 C 0.52397 0.65466 0.84732 0.0
C224 C 0.53372 0.62999 0.87746 0.0
C225 C 0.61331 0.63383 0.89994 0.0
H226 H 0.64621 0.64161 0.88216 0.0
H227 H 0.62454 0.65215 0.93003 0.0
H228 H 0.59099 0.59399 0.90548 0.0
O229 O 0.67366 0.70442 0.77559 0.0
O230 O 0.61166 0.70192 0.74154 0.0
H231 H 0.446 0.62206 0.85668 0.0
H232 H 0.47512 0.68044 0.83215 0.0
C233 C 0.47468 0.64539 0.83443 0.0
H234 H 0.46539 0.62728 0.80413 0.0
H235 H 0.50611 0.65149 0.71896 0.0
O236 O 0.71838 0.72969 0.86636 0.0
C237 C 0.64842 0.69576 0.74307 0.0
Co238 Co 0.93805 0.66952 0.99618 0.0
Co239 Co 0.85136 0.58238 0.94934 0.0
C240 C 0.84298 0.66716 0.97376 0.0
O241 O 0.88639 0.68894 0.98796 0.0
O242 O 0.82362 0.62417 0.95964 0.0
C243 C 0.98677 0.72152 0.07219 0.0
O244 O 0.94698 0.68946 0.09117 0.0
C245 C 0.75591 0.49672 0.93263 0.0
C246 C 0.77489 0.45878 0.88573 0.0
C247 C 0.73676 0.45442 0.90956 0.0
N248 N 0.80344 0.52435 0.92343 0.0
N249 N 0.81427 0.50206 0.89464 0.0
C250 C 0.73109 0.50822 0.96615 0.0
H251 H 0.75831 0.53568 0.98738 0.0
H252 H 0.70589 0.4747 0.98333 0.0
H253 H 0.70931 0.52329 0.95249 0.0
C254 C 0.93244 0.5839 0.04187 0.0
N255 N 0.91407 0.60376 0.01559 0.0
N256 N 0.87588 0.56809 0.9971 0.0
C257 C 0.8678 0.52497 0.01201 0.0
C258 C 0.90368 0.5334 0.04035 0.0
C259 C 0.98035 0.61177 0.06342 0.0
H260 H 0.0051 0.64544 0.04631 0.0
H261 H 0.97416 0.62173 0.09444 0.0
H262 H 0.99787 0.58914 0.06697 0.0
O263 O 0.96785 0.67506 0.94147 0.0
O264 O 0.90432 0.61547 0.90898 0.0
H265 H 0.83323 0.46883 0.96698 0.0
H266 H 0.82363 0.44645 0.01885 0.0
C267 C 0.82697 0.47625 0.99885 0.0
H268 H 0.79218 0.4764 1.00026 0.0
H269 H 0.84912 0.51534 0.88248 0.0
O270 O 0.98984 0.71891 0.0335 0.0
C271 C 0.94809 0.6507 0.90905 0.0
Co272 Co 0.26788 0.93465 0.16809 0.0
Co273 Co 0.26673 0.8495 0.11713 0.0
C274 C 0.17422 0.84217 0.14507 0.0
O275 O 0.19587 0.88477 0.16099 0.0
O276 O 0.19783 0.82374 0.1291 0.0
C277 C 0.2477 0.9953 0.22708 0.0
O278 O 0.20087 0.96704 0.22009 0.0
C279 C 0.25315 0.7533 0.09743 0.0
C280 C 0.30922 0.77195 0.04978 0.0
C281 C 0.27478 0.73358 0.07304 0.0
N282 N 0.27477 0.80129 0.08963 0.0
N283 N 0.3075 0.81203 0.06051 0.0
C284 C 0.21261 0.72742 0.12764 0.0
H285 H 0.18441 0.73779 0.1225 0.0
H286 H 0.22696 0.73883 0.15909 0.0
H287 H 0.19527 0.68725 0.12483 0.0
C288 C 0.34472 0.9239 0.21256 0.0
N289 N 0.30793 0.9079 0.18508 0.0
N290 N 0.30666 0.87187 0.16407 0.0
C291 C 0.34193 0.86341 0.17778 0.0
C292 C 0.36783 0.89657 0.20849 0.0
C293 C 0.36081 0.96801 0.23875 0.0
H294 H 0.33089 0.96153 0.26004 0.0
H295 H 0.39405 0.97683 0.25656 0.0
H296 H 0.36827 0.99955 0.21908 0.0
O297 O 0.29092 0.96553 0.11317 0.0
O298 O 0.28641 0.90327 0.07815 0.0
H299 H 0.36531 0.83412 0.12964 0.0
H300 H 0.37805 0.82054 0.18031 0.0
C301 C 0.35132 0.82474 0.16136 0.0
H302 H 0.31686 0.78938 0.16096 0.0
H303 H 0.32997 0.8471 0.04909 0.0
O304 O 0.27821 0.98708 0.20845 0.0
C305 C 0.29481 0.9469 0.07975 0.0
Co306 Co 0.33839 0.27466 0.33663 0.0
Co307 Co 0.42276 0.27537 0.28419 0.0
C308 C 0.33637 0.18165 0.30917 0.0
O309 O 0.31603 0.20278 0.32709 0.0
O310 O 0.37861 0.20612 0.29357 0.0
C311 C 0.25156 0.25186 0.38862 0.0
O312 O 0.22837 0.20966 0.36973 0.0
C313 C 0.50406 0.26011 0.26428 0.0
C314 C 0.54515 0.31839 0.21912 0.0
C315 C 0.54662 0.282 0.24147 0.0
N316 N 0.47929 0.28345 0.2567 0.0
N317 N 0.50348 0.31757 0.22901 0.0
C318 C 0.48661 0.21756 0.29268 0.0
H319 H 0.48017 0.22789 0.3235 0.0
H320 H 0.51259 0.20379 0.29457 0.0
H321 H 0.45127 0.18773 0.28127 0.0
C322 C 0.42685 0.35084 0.38122 0.0
N323 N 0.40556 0.31434 0.35355 0.0
N324 N 0.44015 0.31261 0.33264 0.0
C325 C 0.48406 0.34668 0.3471 0.0
C326 C 0.47725 0.3724 0.37816 0.0
C327 C 0.39984 0.36883 0.4064 0.0
H328 H 0.36909 0.36677 0.38856 0.0
H329 H 0.38538 0.34524 0.43379 0.0
H330 H 0.42396 0.407 0.41654 0.0
O331 O 0.33068 0.29997 0.28282 0.0
O332 O 0.38935 0.29791 0.24695 0.0
H333 H 0.53844 0.37145 0.30031 0.0
H334 H 0.56263 0.37907 0.35155 0.0
C335 C 0.53189 0.35495 0.33121 0.0
H336 H 0.53073 0.31961 0.32915 0.0
H337 H 0.49253 0.34159 0.21814 0.0
O338 O 0.29559 0.28192 0.37876 0.0
C339 C 0.35403 0.30624 0.24943 0.0
Co340 Co 0.06019 0.34044 0.49424 0.0
Co341 Co 0.14807 0.42228 0.44387 0.0
C342 C 0.15037 0.33453 0.47117 0.0
O343 O 0.10753 0.31516 0.48647 0.0
O344 O 0.1711 0.37718 0.45613 0.0
C345 C 0.99898 0.25845 0.55132 0.0
O346 O 0.02376 0.23764 0.53922 0.0
C347 C 0.24587 0.50055 0.42302 0.0
C348 C 0.23013 0.54128 0.37636 0.0
C349 C 0.26764 0.54196 0.39874 0.0
N350 N 0.19767 0.47715 0.41594 0.0
N351 N 0.18855 0.50108 0.38742 0.0
C352 C 0.27001 0.48256 0.45203 0.0
H353 H 0.26102 0.44534 0.44276 0.0
H354 H 0.25539 0.48008 0.48331 0.0
H355 H 0.31023 0.50611 0.45207 0.0
C356 C 0.07508 0.43056 0.53752 0.0
N357 N 0.08971 0.40799 0.51071 0.0
N358 N 0.12758 0.44162 0.49052 0.0
C359 C 0.13884 0.48613 0.50448 0.0
C360 C 0.10547 0.48067 0.53436 0.0
C361 C 0.02979 0.40507 0.56249 0.0
H362 H 0.03753 0.38872 0.58941 0.0
H363 H 0.01766 0.43048 0.57335 0.0
H364 H 1.00031 0.37584 0.54403 0.0
O365 O 0.02905 0.33327 0.43957 0.0
O366 O 0.09353 0.38949 0.40555 0.0
H367 H 0.17318 0.54051 0.45813 0.0
H368 H 0.18777 0.5641 0.50964 0.0
C369 C 0.18088 0.53307 0.48957 0.0
H370 H 0.21422 0.53009 0.48889 0.0
H371 H 0.15372 0.49092 0.37664 0.0
O372 O 0.00861 0.29927 0.53581 0.0
C373 C 0.04916 0.35569 0.40643 0.0
Co374 Co 0.72197 0.0669 0.66089 0.0
Co375 Co 0.72138 0.14791 0.60466 0.0
C376 C 0.81458 0.15391 0.63295 0.0
O377 O 0.79405 0.11341 0.65225 0.0
O378 O 0.78988 0.17023 0.61536 0.0
C379 C 0.74083 0.00293 0.71585 0.0
O380 O 0.78553 0.02533 0.70142 0.0
C381 C 0.73758 0.24539 0.58953 0.0
C382 C 0.69556 0.23546 0.53288 0.0
C383 C 0.72365 0.26964 0.56223 0.0
N384 N 0.71868 0.19911 0.57685 0.0
N385 N 0.69435 0.19356 0.54256 0.0
C386 C 0.76361 0.26395 0.62941 0.0
H387 H 0.75665 0.23321 0.64992 0.0
H388 H 0.75205 0.28793 0.64449 0.0
H389 H 0.80337 0.28571 0.62363 0.0
C390 C 0.65741 0.09251 0.71016 0.0
N391 N 0.6869 0.09938 0.67794 0.0
N392 N 0.68439 0.13048 0.65277 0.0
C393 C 0.65222 0.14285 0.66718 0.0
C394 C 0.63456 0.11987 0.70444 0.0
C395 C 0.65045 0.05974 0.74539 0.0
H396 H 0.68543 0.06152 0.75296 0.0
H397 H 0.63676 0.06998 0.77269 0.0
H398 H 0.62329 0.02188 0.73657 0.0
O399 O 0.69592 0.03351 0.6065 0.0
O400 O 0.69737 0.09231 0.56827 0.0
H401 H 0.59677 0.16177 0.65365 0.0
H402 H 0.65869 0.21 0.64661 0.0
C403 C 0.63348 0.1703 0.64304 0.0
H404 H 0.63125 0.16084 0.6102 0.0
H405 H 0.67536 0.1607 0.52667 0.0
O406 O 0.71048 0.01501 0.70257 0.0
C407 C 0.68916 0.04895 0.57234 0.0
C408 C 0.32737 0.24063 0.86133 0.0
C409 C 0.31174 0.19325 0.87565 0.0
C410 C 0.30977 0.26935 0.87892 0.0
C411 C 0.27767 0.25221 0.91249 0.0
H412 H 0.35519 0.25644 0.83789 0.0
H413 H 0.32407 0.30635 0.86809 0.0
S414 S 0.22447 0.1299 0.95997 0.0
N415 N 0.26017 0.12941 0.92338 0.0
N416 N 0.22888 0.18407 0.95769 0.0
C417 C 0.26039 0.20424 0.92592 0.0
C418 C 0.27705 0.17457 0.90718 0.0
C419 C 0.09162 0.32606 0.02217 0.0
C420 C 0.12405 0.3124 0.03865 0.0
C421 C 0.04447 0.30754 0.03839 0.0
C422 C 0.02912 0.27646 0.0727 0.0
H423 H 0.1035 0.35272 0.99777 0.0
H424 H 0.02113 0.32016 0.02568 0.0
S425 S 0.10034 0.22952 0.12651 0.0
N426 N 0.137 0.26448 0.08982 0.0
N427 N 0.04947 0.23155 0.12148 0.0
C428 C 0.06081 0.2616 0.08863 0.0
C429 C 0.10805 0.27916 0.07131 0.0
C430 C 0.76253 0.08968 0.18742 0.0
C431 C 0.81014 0.12148 0.20137 0.0
C432 C 0.73382 0.04342 0.20522 0.0
C433 C 0.75106 0.0284 0.23875 0.0
H434 H 0.74671 0.10146 0.16377 0.0
H435 H 0.69685 0.0206 0.19433 0.0
S436 S 0.87354 0.09792 0.28602 0.0
N437 N 0.87399 0.13392 0.24924 0.0
N438 N 0.81932 0.04816 0.28397 0.0
C439 C 0.79903 0.05936 0.25217 0.0
C440 C 0.82875 0.10564 0.23316 0.0
C441 C 0.70576 0.74271 0.37105 0.0
C442 C 0.73013 0.75644 0.409 0.0
C443 C 0.68776 0.77067 0.35244 0.0
C444 C 0.69534 0.81424 0.37035 0.0
H445 H 0.69785 0.7086 0.3569 0.0
H446 H 0.66603 0.75709 0.3249 0.0
S447 S 0.75944 0.86786 0.46792 0.0
N448 N 0.76233 0.81748 0.46283 0.0
N449 N 0.73023 0.8707 0.42709 0.0
C450 C 0.72192 0.82966 0.40701 0.0
C451 C 0.73895 0.80064 0.42651 0.0
C452 C 0.94652 0.74429 0.592 0.0
C453 C 0.98154 0.73506 0.57422 0.0
C454 C 0.90051 0.72697 0.574 0.0
C455 C 0.88745 0.69887 0.53806 0.0
H456 H 0.95409 0.76354 0.62086 0.0
H457 H 0.87376 0.7327 0.58988 0.0
S458 S 0.96609 0.66603 0.47836 0.0
N459 N 1.00087 0.69871 0.51688 0.0
N460 N 0.91323 0.6638 0.48457 0.0
C461 C 0.92249 0.6908 0.51914 0.0
C462 C 0.96993 0.70966 0.53678 0.0
C463 C 0.24512 0.90407 0.72577 0.0
C464 C 0.1967 0.88335 0.71173 0.0
C465 C 0.26832 0.94889 0.74619 0.0
C466 C 0.24451 0.97563 0.75323 0.0
H467 H 0.26476 0.88444 0.72274 0.0
H468 H 0.30483 0.96183 0.7577 0.0
S469 S 0.11981 0.94118 0.71799 0.0
N470 N 0.12724 0.89554 0.70296 0.0
N471 N 0.17125 0.98043 0.74078 0.0
C472 C 0.19742 0.95735 0.73665 0.0
C473 C 0.1735 0.9112 0.71597 0.0
C474 C 0.83289 0.72446 0.92911 0.0
C475 C 0.8181 0.69473 0.96413 0.0
C476 C 0.80258 0.73984 0.91113 0.0
C477 C 0.75689 0.72698 0.92809 0.0
H478 H 0.86655 0.73292 0.91377 0.0
H479 H 0.81422 0.76044 0.88289 0.0
S480 S 0.70304 0.65236 0.02139 0.0
N481 N 0.75579 0.65417 0.01586 0.0
N482 N 0.69991 0.68543 0.98368 0.0
C483 C 0.74317 0.69992 0.9647 0.0
C484 C 0.77346 0.68306 0.98227 0.0
C485 C 0.09045 0.76981 0.1491 0.0
C486 C 0.12175 0.81756 0.13517 0.0
C487 C 0.04498 0.73996 0.13035 0.0
C488 C 0.03035 0.7562 0.09593 0.0
H489 H 0.10233 0.75459 0.17316 0.0
H490 H 0.02275 0.70283 0.14107 0.0
S491 S 0.09847 0.87871 0.04858 0.0
N492 N 0.13382 0.88051 0.08651 0.0
N493 N 0.04959 0.82381 0.05013 0.0
C494 C 0.06055 0.80441 0.08272 0.0
C495 C 0.10597 0.83523 0.10264 0.0
C496 C 0.33505 0.10466 0.29098 0.0
C497 C 0.30877 0.1288 0.29893 0.0
C498 C 0.31424 0.06061 0.26937 0.0
C499 C 0.26591 0.03821 0.25499 0.0
H500 H 0.37308 0.12134 0.29957 0.0
H501 H 0.33705 0.04505 0.2626 0.0
S502 S 0.17906 0.08297 0.27243 0.0
N503 N 0.23018 0.1246 0.29415 0.0
N504 N 0.19052 0.04111 0.25417 0.0
C505 C 0.23778 0.05977 0.26569 0.0
C506 C 0.25926 0.10509 0.2876 0.0
C507 C 0.14841 0.26231 0.43878 0.0
C508 C 0.17368 0.30512 0.46219 0.0
C509 C 0.17365 0.24342 0.41697 0.0
C510 C 0.22503 0.26676 0.41776 0.0
H511 H 0.1094 0.24575 0.43438 0.0
H512 H 0.15288 0.21222 0.39729 0.0
S513 S 0.30665 0.37399 0.48167 0.0
N514 N 0.25168 0.36599 0.48977 0.0
N515 N 0.29893 0.33028 0.4498 0.0
C516 C 0.24992 0.30677 0.44436 0.0
C517 C 0.2243 0.32596 0.46632 0.0
C518 C 0.88935 0.15567 0.60618 0.0
C519 C 0.86743 0.18024 0.62427 0.0
C520 C 0.93357 0.18147 0.58454 0.0
C521 C 0.95708 0.2326 0.58007 0.0
H522 H 0.87032 0.11618 0.6058 0.0
H523 H 0.94765 0.16087 0.56905 0.0
S524 S 0.91861 0.31389 0.62887 0.0
N525 N 0.8756 0.25837 0.64147 0.0
N526 N 0.95817 0.30667 0.60131 0.0
C527 C 0.93742 0.25746 0.60131 0.0
C528 C 0.89279 0.23132 0.62333 0.0
C529 C 0.73426 0.89364 0.77128 0.0
C530 C 0.68844 0.87233 0.79055 0.0
C531 C 0.75213 0.93725 0.74885 0.0
C532 C 0.72469 0.96099 0.74467 0.0
H533 H 0.75479 0.87468 0.77089 0.0
H534 H 0.78642 0.95084 0.7328 0.0
S535 S 0.6069 0.92463 0.79635 0.0
N536 N 0.61966 0.88189 0.80935 0.0
N537 N 0.65242 0.96292 0.76698 0.0
C538 C 0.6807 0.94192 0.76672 0.0
C539 C 0.66285 0.8979 0.78972 0.0
C540 C 0.26867 0.66446 0.11443 0.0
C541 C 0.2704 0.68505 0.07588 0.0
C542 C 0.26997 0.6211 0.11801 0.0
C543 C 0.27313 0.59695 0.08321 0.0
H544 H 0.26843 0.68295 0.14219 0.0
H545 H 0.26951 0.60689 0.14825 0.0
S546 S 0.28257 0.63775 0.97558 0.0
N547 N 0.27709 0.67892 0.00238 0.0
N548 N 0.28114 0.59816 0.0092 0.0
C549 C 0.27541 0.61731 0.04452 0.0
C550 C 0.27379 0.66129 0.04087 0.0
C551 C 0.65651 0.27147 0.21246 0.0
C552 C 0.67886 0.27487 0.25047 0.0
C553 C 0.61267 0.27214 0.20993 0.0
C554 C 0.58971 0.276 0.24529 0.0
H555 H 0.67403 0.27048 0.18434 0.0
H556 H 0.59717 0.2707 0.18006 0.0
S557 S 0.63476 0.28834 0.35186 0.0
N558 N 0.67536 0.28307 0.32403 0.0
N559 N 0.59361 0.28548 0.31924 0.0
C560 C 0.61166 0.27938 0.28344 0.0
C561 C 0.65617 0.27863 0.28601 0.0
C562 C 0.38251 0.64633 0.44371 0.0
C563 C 0.40779 0.67275 0.40888 0.0
C564 C 0.3381 0.6027 0.44014 0.0
C565 C 0.31752 0.58404 0.40157 0.0
H566 H 0.39648 0.66025 0.47397 0.0
H567 H 0.3187 0.58483 0.46787 0.0
S568 S 0.36803 0.64088 0.30105 0.0
N569 N 0.40813 0.67846 0.33468 0.0
N570 N 0.32515 0.59563 0.32798 0.0
C571 C 0.34259 0.60998 0.3665 0.0
C572 C 0.38774 0.6545 0.37012 0.0
C573 C 0.68655 0.3651 0.57379 0.0
C574 C 0.73102 0.40797 0.58132 0.0
C575 C 0.6849 0.32078 0.56674 0.0
C576 C 0.72756 0.31765 0.56765 0.0
H577 H 0.65273 0.36588 0.57299 0.0
H578 H 0.64981 0.28852 0.56135 0.0
S579 S 0.85323 0.41939 0.58557 0.0
N580 N 0.81876 0.4448 0.58908 0.0
N581 N 0.81569 0.36114 0.57557 0.0
C582 C 0.77235 0.36022 0.5749 0.0
C583 C 0.77409 0.40556 0.58177 0.0
C584 C 0.34492 0.7184 0.7867 0.0
C585 C 0.3194 0.71914 0.75184 0.0
C586 C 0.38821 0.71687 0.78312 0.0
C587 C 0.40727 0.71588 0.74452 0.0
H588 H 0.33084 0.71814 0.81695 0.0
H589 H 0.40588 0.71467 0.81076 0.0
S590 S 0.35223 0.7133 0.64393 0.0
N591 N 0.31468 0.71579 0.67756 0.0
N592 N 0.39658 0.7138 0.67091 0.0
C593 C 0.38186 0.7161 0.70947 0.0
C594 C 0.33783 0.71768 0.71309 0.0
C595 C 0.64577 0.41063 0.91522 0.0
C596 C 0.68955 0.40943 0.91547 0.0
C597 C 0.60087 0.36805 0.92186 0.0
C598 C 0.5987 0.32338 0.92975 0.0
H599 H 0.64625 0.44458 0.90963 0.0
H600 H 0.56778 0.37018 0.92144 0.0
S601 S 0.70296 0.30115 0.93356 0.0
N602 N 0.72795 0.36 0.92385 0.0
N603 N 0.64373 0.28025 0.93685 0.0
C604 C 0.64221 0.32182 0.93009 0.0
C605 C 0.68765 0.36482 0.92272 0.0
C606 C 0.35185 0.31026 0.17336 0.0
C607 C 0.33884 0.32085 0.21162 0.0
C608 C 0.33762 0.32241 0.13677 0.0
C609 C 0.31044 0.34638 0.13684 0.0
H610 H 0.37278 0.29178 0.1715 0.0
H611 H 0.34847 0.31332 0.10819 0.0
S612 S 0.26686 0.38245 0.22862 0.0
N613 N 0.29683 0.35652 0.24728 0.0
N614 N 0.27056 0.38008 0.17839 0.0
C615 C 0.29731 0.35751 0.17481 0.0
C616 C 0.31129 0.3445 0.2122 0.0
C617 C 0.97041 0.31655 0.36738 0.0
C618 C 0.02165 0.34139 0.36741 0.0
C619 C 0.94407 0.30288 0.3306 0.0
C620 C 0.968 0.31281 0.29252 0.0
H621 H 0.95045 0.3079 0.39592 0.0
H622 H 0.90462 0.28373 0.33209 0.0
S623 S 0.10178 0.37671 0.27575 0.0
N624 N 0.09542 0.37529 0.32588 0.0
N625 N 0.04588 0.34928 0.2571 0.0
C626 C 0.01921 0.3375 0.29212 0.0
C627 C 0.04603 0.35189 0.32945 0.0
C628 C 0.67407 0.01397 0.46031 0.0
C629 C 0.6527 0.96306 0.46112 0.0
C630 C 0.68477 0.04086 0.49647 0.0
C631 C 0.67528 0.01812 0.53513 0.0
H632 H 0.68232 0.03332 0.43145 0.0
H633 H 0.70141 0.08008 0.49391 0.0
S634 S 0.6203 0.88543 0.55402 0.0
N635 N 0.62247 0.89053 0.5037 0.0
N636 N 0.64339 0.94144 0.57192 0.0
C637 C 0.65411 0.96715 0.53646 0.0
C638 C 0.64254 0.93955 0.49944 0.0
C639 C 0.6664 0.68046 0.63055 0.0
C640 C 0.69505 0.65801 0.63111 0.0
C641 C 0.6506 0.69141 0.66692 0.0
C642 C 0.66358 0.68116 0.70533 0.0
H643 H 0.65579 0.68942 0.60176 0.0
H644 H 0.62884 0.709 0.66485 0.0
S645 S 0.73809 0.62245 0.72364 0.0
N646 N 0.73551 0.62544 0.67338 0.0
N647 N 0.70638 0.64676 0.74172 0.0
C648 C 0.69217 0.65864 0.70638 0.0
C649 C 0.70771 0.64684 0.6693 0.0
C650 C 0.05421 0.69944 0.8347 0.0
C651 C 0.03117 0.68963 0.79622 0.0
C652 C 0.02718 0.68713 0.87104 0.0
C653 C 0.976 0.66369 0.8703 0.0
H654 H 0.0936 0.71762 0.83687 0.0
H655 H 0.04655 0.69569 0.8999 0.0
S656 S 0.89789 0.62907 0.77748 0.0
N657 N 0.9541 0.6548 0.75959 0.0
N658 N 0.90316 0.63095 0.82776 0.0
C659 C 0.95241 0.65312 0.832 0.0
C660 C 0.98001 0.66631 0.79502 0.0
C661 C 0.33692 0.02711 0.04343 0.0
C662 C 0.30917 0.97604 0.04161 0.0
C663 C 0.3524 0.05518 0.00768 0.0
C664 C 0.34014 0.03339 0.96863 0.0
H665 H 0.34751 0.04558 0.07268 0.0
H666 H 0.37399 0.09444 0.01081 0.0
S667 S 0.2661 0.90088 0.94716 0.0
N668 N 0.26876 0.90462 0.99753 0.0
N669 N 0.29751 0.95755 0.93042 0.0
C670 C 0.3116 0.98236 0.96636 0.0
C671 C 0.29628 0.95367 0.0028 0.0
C672 C 0.4206 0.50831 0.90032 0.0
C673 C 0.41781 0.50873 0.94314 0.0
C674 C 0.45971 0.54654 0.87931 0.0
C675 C 0.49728 0.58643 0.90044 0.0
H676 H 0.39129 0.47945 0.88287 0.0
H677 H 0.45965 0.5458 0.84619 0.0
S678 S 0.51019 0.60106 0.0129 0.0
N679 N 0.45869 0.54915 0.00619 0.0
N680 N 0.53141 0.62164 0.96662 0.0
C681 C 0.49648 0.58557 0.94332 0.0
C682 C 0.45683 0.54658 0.96471 0.0
C683 C 0.90964 0.49213 0.10356 0.0
C684 C 0.91149 0.49598 0.06076 0.0
C685 C 0.90787 0.45174 0.12305 0.0
C686 C 0.9078 0.41387 0.10037 0.0
H687 H 0.90709 0.51923 0.12193 0.0
H688 H 0.90478 0.44925 0.15606 0.0
S689 S 0.91875 0.41023 0.98783 0.0
N690 N 0.91887 0.46166 0.99655 0.0
N691 N 0.91407 0.38512 0.03311 0.0
C692 C 0.91292 0.41903 0.05777 0.0
C693 C 0.91506 0.46024 0.03797 0.0
C694 C 0.45325 0.89788 0.29056 0.0
C695 C 0.49282 0.90191 0.2677 0.0
C696 C 0.41384 0.89856 0.27146 0.0
C697 C 0.41285 0.90363 0.22888 0.0
H698 H 0.45201 0.89263 0.32336 0.0
H699 H 0.38309 0.89308 0.2899 0.0
S700 S 0.50998 0.9215 0.15585 0.0
N701 N 0.53009 0.91481 0.20063 0.0
N702 N 0.45697 0.91791 0.16491 0.0
C703 C 0.4536 0.91092 0.20604 0.0
C704 C 0.49345 0.90975 0.22542 0.0
C705 C 0.55223 0.45536 0.37724 0.0
C706 C 0.51557 0.4162 0.39972 0.0
C707 C 0.5919 0.49458 0.3969 0.0
C708 C 0.59605 0.49603 0.43968 0.0
H709 H 0.55094 0.45498 0.34414 0.0
H710 H 0.62046 0.5229 0.37848 0.0
S711 S 0.50672 0.40606 0.51263 0.0
N712 N 0.48421 0.38335 0.46712 0.0
N713 N 0.55747 0.45809 0.50409 0.0
C714 C 0.55798 0.45887 0.46255 0.0
C715 C 0.518 0.41869 0.44256 0.0
C716 C 0.10115 0.52046 0.59898 0.0
C717 C 0.10133 0.5196 0.55606 0.0
C718 C 0.10161 0.55915 0.62021 0.0
C719 C 0.10264 0.59851 0.59926 0.0
H720 H 0.10216 0.49178 0.61625 0.0
H721 H 0.10255 0.55895 0.65332 0.0
S722 S 0.09757 0.61055 0.48694 0.0
N723 N 0.09723 0.55864 0.49334 0.0
N724 N 0.10011 0.63238 0.53331 0.0
C725 C 0.10031 0.59683 0.55641 0.0
C726 C 0.09937 0.55719 0.53478 0.0
C727 C 0.55493 0.07857 0.7423 0.0
C728 C 0.59697 0.12175 0.7302 0.0
C729 C 0.51772 0.08004 0.76453 0.0
C730 C 0.52128 0.12473 0.77518 0.0
H731 H 0.55041 0.04344 0.73401 0.0
H732 H 0.48621 0.046 0.77374 0.0
S733 S 0.62411 0.24795 0.75102 0.0
N734 N 0.64061 0.21029 0.73154 0.0
N735 N 0.56982 0.21305 0.77149 0.0
C736 C 0.5631 0.16806 0.76319 0.0
C737 C 0.60114 0.16656 0.74112 0.0
loop_
_geom_bond_atom_site_label_1
_geom_bond_atom_site_label_2
_geom_bond_distance
_geom_bond_site_symmetry_2
_ccdc_geom_bond_type
Co0 O3 1.970 . S
Co0 N17 1.989 1_554 S
Co0 O25 1.967 . S
Co0 O32 1.920 1_554 S
Co1 O4 1.966 . S
Co1 N10 2.022 . S
Co1 N18 1.993 1_554 S
Co1 O26 1.941 . S
C2 O3 1.258 . S
C2 O4 1.263 . S
O3 Co0 1.970 . S
O3 C2 1.258 . S
O4 Co1 1.966 . S
O4 C2 1.263 . S
C5 O6 1.235 . S
C5 O32 1.289 . S
O6 C5 1.235 . S
C7 C9 1.400 . S
C7 N10 1.351 . S
C7 C12 1.501 . S
C8 C9 1.387 . S
C8 N11 1.341 . S
C9 C7 1.400 . S
C9 C8 1.387 . S
N10 Co1 2.022 . S
N10 C7 1.351 . S
N10 N11 1.365 . S
N11 C8 1.341 . S
N11 N10 1.365 . S
N11 H31 0.862 . S
C12 C7 1.501 . S
C12 H13 0.961 . S
C12 H14 0.961 . S
C12 H15 0.960 . S
H13 C12 0.961 . S
H14 C12 0.961 . S
H15 C12 0.960 . S
C16 N17 1.342 . S
C16 C20 1.401 . S
C16 C21 1.499 . S
N17 Co0 1.989 1_556 S
N17 C16 1.342 . S
N17 N18 1.388 . S
N18 Co1 1.993 1_556 S
N18 N17 1.388 . S
N18 C19 1.346 . S
C19 N18 1.346 . S
C19 C20 1.396 . S
C19 C29 1.510 . S
C20 C16 1.401 . S
C20 C19 1.396 . S
C21 C16 1.499 . S
C21 H22 0.959 . S
C21 H23 0.960 . S
C21 H24 0.961 . S
H22 C21 0.959 . S
H23 C21 0.960 . S
H24 C21 0.961 . S
O25 Co0 1.967 . S
O25 C33 1.258 . S
O26 Co1 1.941 . S
O26 C33 1.266 . S
H27 C29 0.959 . S
H28 C29 0.961 . S
C29 C19 1.510 . S
C29 H27 0.959 . S
C29 H28 0.961 . S
C29 H30 0.960 1_556 S
H30 C29 0.960 1_554 S
H31 N11 0.862 . S
O32 Co0 1.920 1_556 S
O32 C5 1.289 . S
C33 O25 1.258 . S
C33 O26 1.266 . S
Co34 O37 1.970 . S
Co34 N51 1.989 . S
Co34 O59 1.967 . S
Co34 O66 1.920 . S
Co35 O38 1.966 . S
Co35 N44 2.022 . S
Co35 N52 1.993 . S
Co35 O60 1.941 . S
C36 O37 1.258 . S
C36 O38 1.263 . S
O37 Co34 1.970 . S
O37 C36 1.258 . S
O38 Co35 1.966 . S
O38 C36 1.263 . S
C39 O40 1.235 . S
C39 O66 1.289 . S
O40 C39 1.235 . S
C41 C43 1.400 . S
C41 N44 1.351 . S
C41 C46 1.501 . S
C42 C43 1.387 . S
C42 N45 1.341 . S
C43 C41 1.400 . S
C43 C42 1.387 . S
N44 Co35 2.022 . S
N44 C41 1.351 . S
N44 N45 1.365 . S
N45 C42 1.341 . S
N45 N44 1.365 . S
N45 H65 0.862 . S
C46 C41 1.501 . S
C46 H47 0.961 . S
C46 H48 0.961 . S
C46 H49 0.960 . S
H47 C46 0.961 . S
H48 C46 0.961 . S
H49 C46 0.960 . S
C50 N51 1.342 . S
C50 C54 1.401 . S
C50 C55 1.499 . S
N51 Co34 1.989 . S
N51 C50 1.342 . S
N51 N52 1.388 . S
N52 Co35 1.993 . S
N52 N51 1.388 . S
N52 C53 1.346 . S
C53 N52 1.346 . S
C53 C54 1.396 . S
C53 C63 1.510 . S
C54 C50 1.401 . S
C54 C53 1.396 . S
C55 C50 1.499 . S
C55 H56 0.959 . S
C55 H57 0.960 . S
C55 H58 0.961 . S
H56 C55 0.959 . S
H57 C55 0.960 . S
H58 C55 0.961 . S
O59 Co34 1.967 . S
O59 C67 1.258 . S
O60 Co35 1.941 . S
O60 C67 1.266 . S
H61 C63 0.959 . S
H62 C63 0.961 . S
C63 C53 1.510 . S
C63 H61 0.959 . S
C63 H62 0.961 . S
C63 H64 0.960 . S
H64 C63 0.960 . S
H65 N45 0.862 . S
O66 Co34 1.920 . S
O66 C39 1.289 . S
C67 O59 1.258 . S
C67 O60 1.266 . S
Co68 O71 1.970 . S
Co68 N85 1.989 . S
Co68 O93 1.967 . S
Co68 O100 1.920 . S
Co69 O72 1.966 . S
Co69 N78 2.022 . S
Co69 N86 1.993 . S
Co69 O94 1.941 . S
C70 O71 1.258 . S
C70 O72 1.263 . S
O71 Co68 1.970 . S
O71 C70 1.258 . S
O72 Co69 1.966 . S
O72 C70 1.263 . S
C73 O74 1.235 . S
C73 O100 1.289 . S
O74 C73 1.235 . S
C75 C77 1.400 . S
C75 N78 1.351 . S
C75 C80 1.501 . S
C76 C77 1.387 . S
C76 N79 1.341 . S
C77 C75 1.400 . S
C77 C76 1.387 . S
N78 Co69 2.022 . S
N78 C75 1.351 . S
N78 N79 1.365 . S
N79 C76 1.341 . S
N79 N78 1.365 . S
N79 H99 0.862 . S
C80 C75 1.501 . S
C80 H81 0.961 . S
C80 H82 0.961 . S
C80 H83 0.960 . S
H81 C80 0.961 . S
H82 C80 0.961 . S
H83 C80 0.960 . S
C84 N85 1.342 . S
C84 C88 1.401 . S
C84 C89 1.499 . S
N85 Co68 1.989 . S
N85 C84 1.342 . S
N85 N86 1.388 . S
N86 Co69 1.993 . S
N86 N85 1.388 . S
N86 C87 1.346 . S
C87 N86 1.346 . S
C87 C88 1.396 . S
C87 C97 1.510 . S
C88 C84 1.401 . S
C88 C87 1.396 . S
C89 C84 1.499 . S
C89 H90 0.959 . S
C89 H91 0.960 . S
C89 H92 0.961 . S
H90 C89 0.959 . S
H91 C89 0.960 . S
H92 C89 0.961 . S
O93 Co68 1.967 . S
O93 C101 1.258 . S
O94 Co69 1.941 . S
O94 C101 1.266 . S
H95 C97 0.959 . S
H96 C97 0.961 . S
C97 C87 1.510 . S
C97 H95 0.959 . S
C97 H96 0.961 . S
C97 H98 0.960 . S
H98 C97 0.960 . S
H99 N79 0.862 . S
O100 Co68 1.920 . S
O100 C73 1.289 . S
C101 O93 1.258 . S
C101 O94 1.266 . S
Co102 O105 1.970 . S
Co102 N119 1.989 . S
Co102 O127 1.967 . S
Co102 O134 1.920 . S
Co103 O106 1.966 . S
Co103 N112 2.022 . S
Co103 N120 1.993 . S
Co103 O128 1.941 . S
C104 O105 1.258 . S
C104 O106 1.263 . S
O105 Co102 1.970 . S
O105 C104 1.258 . S
O106 Co103 1.966 . S
O106 C104 1.263 . S
C107 O108 1.235 . S
C107 O134 1.289 . S
O108 C107 1.235 . S
C109 C111 1.400 . S
C109 N112 1.351 . S
C109 C114 1.501 . S
C110 C111 1.387 . S
C110 N113 1.341 . S
C111 C109 1.400 . S
C111 C110 1.387 . S
N112 Co103 2.022 . S
N112 C109 1.351 . S
N112 N113 1.365 . S
N113 C110 1.341 . S
N113 N112 1.365 . S
N113 H133 0.862 . S
C114 C109 1.501 . S
C114 H115 0.961 . S
C114 H116 0.961 . S
C114 H117 0.960 . S
H115 C114 0.961 . S
H116 C114 0.961 . S
H117 C114 0.960 . S
C118 N119 1.342 . S
C118 C122 1.401 . S
C118 C123 1.499 . S
N119 Co102 1.989 . S
N119 C118 1.342 . S
N119 N120 1.388 . S
N120 Co103 1.993 . S
N120 N119 1.388 . S
N120 C121 1.346 . S
C121 N120 1.346 . S
C121 C122 1.396 . S
C121 C131 1.510 . S
C122 C118 1.401 . S
C122 C121 1.396 . S
C123 C118 1.499 . S
C123 H124 0.959 . S
C123 H125 0.960 . S
C123 H126 0.961 . S
H124 C123 0.959 . S
H125 C123 0.960 . S
H126 C123 0.961 . S
O127 Co102 1.967 . S
O127 C135 1.258 . S
O128 Co103 1.941 . S
O128 C135 1.266 . S
H129 C131 0.959 . S
H130 C131 0.961 . S
C131 C121 1.510 . S
C131 H129 0.959 . S
C131 H130 0.961 . S
C131 H132 0.960 . S
H132 C131 0.960 . S
H133 N113 0.862 . S
O134 Co102 1.920 . S
O134 C107 1.289 . S
C135 O127 1.258 . S
C135 O128 1.266 . S
Co136 O139 1.970 . S
Co136 N153 1.989 . S
Co136 O161 1.967 . S
Co136 O168 1.920 . S
Co137 O140 1.966 . S
Co137 N146 2.022 . S
Co137 N154 1.993 . S
Co137 O162 1.941 . S
C138 O139 1.258 . S
C138 O140 1.263 . S
O139 Co136 1.970 . S
O139 C138 1.258 . S
O140 Co137 1.966 . S
O140 C138 1.263 . S
C141 O142 1.235 . S
C141 O168 1.289 . S
O142 C141 1.235 . S
C143 C145 1.400 . S
C143 N146 1.351 . S
C143 C148 1.501 . S
C144 C145 1.387 . S
C144 N147 1.341 . S
C145 C143 1.400 . S
C145 C144 1.387 . S
N146 Co137 2.022 . S
N146 C143 1.351 . S
N146 N147 1.365 . S
N147 C144 1.341 . S
N147 N146 1.365 . S
N147 H167 0.862 . S
C148 C143 1.501 . S
C148 H149 0.961 . S
C148 H150 0.961 . S
C148 H151 0.960 . S
H149 C148 0.961 . S
H150 C148 0.961 . S
H151 C148 0.960 . S
C152 N153 1.342 . S
C152 C156 1.401 . S
C152 C157 1.499 . S
N153 Co136 1.989 . S
N153 C152 1.342 . S
N153 N154 1.388 . S
N154 Co137 1.993 . S
N154 N153 1.388 . S
N154 C155 1.346 . S
C155 N154 1.346 . S
C155 C156 1.396 . S
C155 C165 1.510 . S
C156 C152 1.401 . S
C156 C155 1.396 . S
C157 C152 1.499 . S
C157 H158 0.959 . S
C157 H159 0.960 . S
C157 H160 0.961 . S
H158 C157 0.959 . S
H159 C157 0.960 . S
H160 C157 0.961 . S
O161 Co136 1.967 . S
O161 C169 1.258 . S
O162 Co137 1.941 . S
O162 C169 1.266 . S
H163 C165 0.959 . S
H164 C165 0.961 . S
C165 C155 1.510 . S
C165 H163 0.959 . S
C165 H164 0.961 . S
C165 H166 0.960 . S
H166 C165 0.960 . S
H167 N147 0.862 . S
O168 Co136 1.920 . S
O168 C141 1.289 . S
C169 O161 1.258 . S
C169 O162 1.266 . S
Co170 O173 1.970 . S
Co170 N187 1.989 . S
Co170 O195 1.967 . S
Co170 O202 1.920 . S
Co171 O174 1.966 . S
Co171 N180 2.022 . S
Co171 N188 1.993 . S
Co171 O196 1.941 . S
C172 O173 1.258 . S
C172 O174 1.263 . S
O173 Co170 1.970 . S
O173 C172 1.258 . S
O174 Co171 1.966 . S
O174 C172 1.263 . S
C175 O176 1.235 . S
C175 O202 1.289 . S
O176 C175 1.235 . S
C177 C179 1.400 . S
C177 N180 1.351 . S
C177 C182 1.501 . S
C178 C179 1.387 . S
C178 N181 1.341 . S
C179 C177 1.400 . S
C179 C178 1.387 . S
N180 Co171 2.022 . S
N180 C177 1.351 . S
N180 N181 1.365 . S
N181 C178 1.341 . S
N181 N180 1.365 . S
N181 H201 0.862 . S
C182 C177 1.501 . S
C182 H183 0.961 . S
C182 H184 0.961 . S
C182 H185 0.960 . S
H183 C182 0.961 . S
H184 C182 0.961 . S
H185 C182 0.960 . S
C186 N187 1.342 . S
C186 C190 1.401 . S
C186 C191 1.499 . S
N187 Co170 1.989 . S
N187 C186 1.342 . S
N187 N188 1.388 . S
N188 Co171 1.993 . S
N188 N187 1.388 . S
N188 C189 1.346 . S
C189 N188 1.346 . S
C189 C190 1.396 . S
C189 C199 1.510 . S
C190 C186 1.401 . S
C190 C189 1.396 . S
C191 C186 1.499 . S
C191 H192 0.959 . S
C191 H193 0.960 . S
C191 H194 0.961 . S
H192 C191 0.959 . S
H193 C191 0.960 . S
H194 C191 0.961 . S
O195 Co170 1.967 . S
O195 C203 1.258 . S
O196 Co171 1.941 . S
O196 C203 1.266 . S
H197 C199 0.959 . S
H198 C199 0.961 . S
C199 C189 1.510 . S
C199 H197 0.959 . S
C199 H198 0.961 . S
C199 H200 0.960 . S
H200 C199 0.960 . S
H201 N181 0.862 . S
O202 Co170 1.920 . S
O202 C175 1.289 . S
C203 O195 1.258 . S
C203 O196 1.266 . S
Co204 O207 1.970 . S
Co204 N221 1.989 . S
Co204 O229 1.967 . S
Co204 O236 1.920 . S
Co205 O208 1.966 . S
Co205 N214 2.022 . S
Co205 N222 1.993 . S
Co205 O230 1.941 . S
C206 O207 1.258 . S
C206 O208 1.263 . S
O207 Co204 1.970 . S
O207 C206 1.258 . S
O208 Co205 1.966 . S
O208 C206 1.263 . S
C209 O210 1.235 . S
C209 O236 1.289 . S
O210 C209 1.235 . S
C211 C213 1.400 . S
C211 N214 1.351 . S
C211 C216 1.501 . S
C212 C213 1.387 . S
C212 N215 1.341 . S
C213 C211 1.400 . S
C213 C212 1.387 . S
N214 Co205 2.022 . S
N214 C211 1.351 . S
N214 N215 1.365 . S
N215 C212 1.341 . S
N215 N214 1.365 . S
N215 H235 0.862 . S
C216 C211 1.501 . S
C216 H217 0.961 . S
C216 H218 0.961 . S
C216 H219 0.960 . S
H217 C216 0.961 . S
H218 C216 0.961 . S
H219 C216 0.960 . S
C220 N221 1.342 . S
C220 C224 1.401 . S
C220 C225 1.499 . S
N221 Co204 1.989 . S
N221 C220 1.342 . S
N221 N222 1.388 . S
N222 Co205 1.993 . S
N222 N221 1.388 . S
N222 C223 1.346 . S
C223 N222 1.346 . S
C223 C224 1.396 . S
C223 C233 1.510 . S
C224 C220 1.401 . S
C224 C223 1.396 . S
C225 C220 1.499 . S
C225 H226 0.959 . S
C225 H227 0.960 . S
C225 H228 0.961 . S
H226 C225 0.959 . S
H227 C225 0.960 . S
H228 C225 0.961 . S
O229 Co204 1.967 . S
O229 C237 1.258 . S
O230 Co205 1.941 . S
O230 C237 1.266 . S
H231 C233 0.959 . S
H232 C233 0.961 . S
C233 C223 1.510 . S
C233 H231 0.959 . S
C233 H232 0.961 . S
C233 H234 0.960 . S
H234 C233 0.960 . S
H235 N215 0.862 . S
O236 Co204 1.920 . S
O236 C209 1.289 . S
C237 O229 1.258 . S
C237 O230 1.266 . S
Co238 O241 1.970 . S
Co238 N255 1.989 1_556 S
Co238 O263 1.967 . S
Co238 O270 1.920 1_556 S
Co239 O242 1.966 . S
Co239 N248 2.022 . S
Co239 N256 1.993 . S
Co239 O264 1.941 . S
C240 O241 1.258 . S
C240 O242 1.263 . S
O241 Co238 1.970 . S
O241 C240 1.258 . S
O242 Co239 1.966 . S
O242 C240 1.263 . S
C243 O244 1.235 . S
C243 O270 1.289 . S
O244 C243 1.235 . S
C245 C247 1.400 . S
C245 N248 1.351 . S
C245 C250 1.501 . S
C246 C247 1.387 . S
C246 N249 1.341 . S
C247 C245 1.400 . S
C247 C246 1.387 . S
N248 Co239 2.022 . S
N248 C245 1.351 . S
N248 N249 1.365 . S
N249 C246 1.341 . S
N249 N248 1.365 . S
N249 H269 0.862 . S
C250 C245 1.501 . S
C250 H251 0.961 . S
C250 H252 0.961 . S
C250 H253 0.960 . S
H251 C250 0.961 . S
H252 C250 0.961 . S
H253 C250 0.960 . S
C254 N255 1.342 . S
C254 C258 1.401 . S
C254 C259 1.499 . S
N255 Co238 1.989 1_554 S
N255 C254 1.342 . S
N255 N256 1.388 1_554 S
N256 Co239 1.993 . S
N256 N255 1.388 1_556 S
N256 C257 1.346 1_556 S
C257 N256 1.346 1_554 S
C257 C258 1.396 . S
C257 C267 1.510 . S
C258 C254 1.401 . S
C258 C257 1.396 . S
C259 C254 1.499 . S
C259 H260 0.959 . S
C259 H261 0.960 . S
C259 H262 0.961 . S
H260 C259 0.959 . S
H261 C259 0.960 . S
H262 C259 0.961 . S
O263 Co238 1.967 . S
O263 C271 1.258 . S
O264 Co239 1.941 . S
O264 C271 1.266 . S
H265 C267 0.960 1_556 S
H266 C267 0.961 . S
C267 C257 1.510 . S
C267 H265 0.960 1_554 S
C267 H266 0.961 . S
C267 H268 0.960 1_554 S
H268 C267 0.960 1_556 S
H269 N249 0.862 . S
O270 Co238 1.920 1_554 S
O270 C243 1.289 . S
C271 O263 1.258 . S
C271 O264 1.266 . S
Co272 O275 1.970 . S
Co272 N289 1.989 . S
Co272 O297 1.967 . S
Co272 O304 1.920 . S
Co273 O276 1.966 . S
Co273 N282 2.022 . S
Co273 N290 1.993 . S
Co273 O298 1.941 . S
C274 O275 1.258 . S
C274 O276 1.263 . S
O275 Co272 1.970 . S
O275 C274 1.258 . S
O276 Co273 1.966 . S
O276 C274 1.263 . S
C277 O278 1.235 . S
C277 O304 1.289 . S
O278 C277 1.235 . S
C279 C281 1.400 . S
C279 N282 1.351 . S
C279 C284 1.501 . S
C280 C281 1.387 . S
C280 N283 1.341 . S
C281 C279 1.400 . S
C281 C280 1.387 . S
N282 Co273 2.022 . S
N282 C279 1.351 . S
N282 N283 1.365 . S
N283 C280 1.341 . S
N283 N282 1.365 . S
N283 H303 0.862 . S
C284 C279 1.501 . S
C284 H285 0.961 . S
C284 H286 0.961 . S
C284 H287 0.960 . S
H285 C284 0.961 . S
H286 C284 0.961 . S
H287 C284 0.960 . S
C288 N289 1.342 . S
C288 C292 1.401 . S
C288 C293 1.499 . S
N289 Co272 1.989 . S
N289 C288 1.342 . S
N289 N290 1.388 . S
N290 Co273 1.993 . S
N290 N289 1.388 . S
N290 C291 1.346 . S
C291 N290 1.346 . S
C291 C292 1.396 . S
C291 C301 1.510 . S
C292 C288 1.401 . S
C292 C291 1.396 . S
C293 C288 1.499 . S
C293 H294 0.959 . S
C293 H295 0.960 . S
C293 H296 0.961 . S
H294 C293 0.959 . S
H295 C293 0.960 . S
H296 C293 0.961 . S
O297 Co272 1.967 . S
O297 C305 1.258 . S
O298 Co273 1.941 . S
O298 C305 1.266 . S
H299 C301 0.959 . S
H300 C301 0.961 . S
C301 C291 1.510 . S
C301 H299 0.959 . S
C301 H300 0.961 . S
C301 H302 0.960 . S
H302 C301 0.960 . S
H303 N283 0.862 . S
O304 Co272 1.920 . S
O304 C277 1.289 . S
C305 O297 1.258 . S
C305 O298 1.266 . S
Co306 O309 1.970 . S
Co306 N323 1.989 . S
Co306 O331 1.967 . S
Co306 O338 1.920 . S
Co307 O310 1.966 . S
Co307 N316 2.022 . S
Co307 N324 1.993 . S
Co307 O332 1.941 . S
C308 O309 1.258 . S
C308 O310 1.263 . S
O309 Co306 1.970 . S
O309 C308 1.258 . S
O310 Co307 1.966 . S
O310 C308 1.263 . S
C311 O312 1.235 . S
C311 O338 1.289 . S
O312 C311 1.235 . S
C313 C315 1.400 . S
C313 N316 1.351 . S
C313 C318 1.501 . S
C314 C315 1.387 . S
C314 N317 1.341 . S
C315 C313 1.400 . S
C315 C314 1.387 . S
N316 Co307 2.022 . S
N316 C313 1.351 . S
N316 N317 1.365 . S
N317 C314 1.341 . S
N317 N316 1.365 . S
N317 H337 0.862 . S
C318 C313 1.501 . S
C318 H319 0.961 . S
C318 H320 0.961 . S
C318 H321 0.960 . S
H319 C318 0.961 . S
H320 C318 0.961 . S
H321 C318 0.960 . S
C322 N323 1.342 . S
C322 C326 1.401 . S
C322 C327 1.499 . S
N323 Co306 1.989 . S
N323 C322 1.342 . S
N323 N324 1.388 . S
N324 Co307 1.993 . S
N324 N323 1.388 . S
N324 C325 1.346 . S
C325 N324 1.346 . S
C325 C326 1.396 . S
C325 C335 1.510 . S
C326 C322 1.401 . S
C326 C325 1.396 . S
C327 C322 1.499 . S
C327 H328 0.959 . S
C327 H329 0.960 . S
C327 H330 0.961 . S
H328 C327 0.959 . S
H329 C327 0.960 . S
H330 C327 0.961 . S
O331 Co306 1.967 . S
O331 C339 1.258 . S
O332 Co307 1.941 . S
O332 C339 1.266 . S
H333 C335 0.959 . S
H334 C335 0.961 . S
C335 C325 1.510 . S
C335 H333 0.959 . S
C335 H334 0.961 . S
C335 H336 0.960 . S
H336 C335 0.960 . S
H337 N317 0.862 . S
O338 Co306 1.920 . S
O338 C311 1.289 . S
C339 O331 1.258 . S
C339 O332 1.266 . S
Co340 O343 1.970 . S
Co340 N357 1.989 . S
Co340 O365 1.967 . S
Co340 O372 1.920 . S
Co341 O344 1.966 . S
Co341 N350 2.022 . S
Co341 N358 1.993 . S
Co341 O366 1.941 . S
C342 O343 1.258 . S
C342 O344 1.263 . S
O343 Co340 1.970 . S
O343 C342 1.258 . S
O344 Co341 1.966 . S
O344 C342 1.263 . S
C345 O346 1.235 . S
C345 O372 1.289 . S
O346 C345 1.235 . S
C347 C349 1.400 . S
C347 N350 1.351 . S
C347 C352 1.501 . S
C348 C349 1.387 . S
C348 N351 1.341 . S
C349 C347 1.400 . S
C349 C348 1.387 . S
N350 Co341 2.022 . S
N350 C347 1.351 . S
N350 N351 1.365 . S
N351 C348 1.341 . S
N351 N350 1.365 . S
N351 H371 0.862 . S
C352 C347 1.501 . S
C352 H353 0.961 . S
C352 H354 0.961 . S
C352 H355 0.960 . S
H353 C352 0.961 . S
H354 C352 0.961 . S
H355 C352 0.960 . S
C356 N357 1.342 . S
C356 C360 1.401 . S
C356 C361 1.499 . S
N357 Co340 1.989 . S
N357 C356 1.342 . S
N357 N358 1.388 . S
N358 Co341 1.993 . S
N358 N357 1.388 . S
N358 C359 1.346 . S
C359 N358 1.346 . S
C359 C360 1.396 . S
C359 C369 1.510 . S
C360 C356 1.401 . S
C360 C359 1.396 . S
C361 C356 1.499 . S
C361 H362 0.959 . S
C361 H363 0.960 . S
C361 H364 0.961 . S
H362 C361 0.959 . S
H363 C361 0.960 . S
H364 C361 0.961 . S
O365 Co340 1.967 . S
O365 C373 1.258 . S
O366 Co341 1.941 . S
O366 C373 1.266 . S
H367 C369 0.959 . S
H368 C369 0.961 . S
C369 C359 1.510 . S
C369 H367 0.959 . S
C369 H368 0.961 . S
C369 H370 0.960 . S
H370 C369 0.960 . S
H371 N351 0.862 . S
O372 Co340 1.920 . S
O372 C345 1.289 . S
C373 O365 1.258 . S
C373 O366 1.266 . S
Co374 O377 1.970 . S
Co374 N391 1.989 . S
Co374 O399 1.967 . S
Co374 O406 1.920 . S
Co375 O378 1.966 . S
Co375 N384 2.022 . S
Co375 N392 1.993 . S
Co375 O400 1.941 . S
C376 O377 1.258 . S
C376 O378 1.263 . S
O377 Co374 1.970 . S
O377 C376 1.258 . S
O378 Co375 1.966 . S
O378 C376 1.263 . S
C379 O380 1.235 . S
C379 O406 1.289 . S
O380 C379 1.235 . S
C381 C383 1.400 . S
C381 N384 1.351 . S
C381 C386 1.501 . S
C382 C383 1.387 . S
C382 N385 1.341 . S
C383 C381 1.400 . S
C383 C382 1.387 . S
N384 Co375 2.022 . S
N384 C381 1.351 . S
N384 N385 1.365 . S
N385 C382 1.341 . S
N385 N384 1.365 . S
N385 H405 0.862 . S
C386 C381 1.501 . S
C386 H387 0.961 . S
C386 H388 0.961 . S
C386 H389 0.960 . S
H387 C386 0.961 . S
H388 C386 0.961 . S
H389 C386 0.960 . S
C390 N391 1.342 . S
C390 C394 1.401 . S
C390 C395 1.499 . S
N391 Co374 1.989 . S
N391 C390 1.342 . S
N391 N392 1.388 . S
N392 Co375 1.993 . S
N392 N391 1.388 . S
N392 C393 1.346 . S
C393 N392 1.346 . S
C393 C394 1.396 . S
C393 C403 1.510 . S
C394 C390 1.401 . S
C394 C393 1.396 . S
C395 C390 1.499 . S
C395 H396 0.959 . S
C395 H397 0.960 . S
C395 H398 0.961 . S
H396 C395 0.959 . S
H397 C395 0.960 . S
H398 C395 0.961 . S
O399 Co374 1.967 . S
O399 C407 1.258 . S
O400 Co375 1.941 . S
O400 C407 1.266 . S
H401 C403 0.959 . S
H402 C403 0.961 . S
C403 C393 1.510 . S
C403 H401 0.959 . S
C403 H402 0.961 . S
C403 H404 0.960 . S
H404 C403 0.960 . S
H405 N385 0.862 . S
O406 Co374 1.920 . S
O406 C379 1.289 . S
C407 O399 1.258 . S
C407 O400 1.266 . S
C408 C409 1.369 . S
C408 C410 1.419 . S
C408 H412 0.930 . S
C409 C408 1.369 . S
C409 C418 1.429 . S
C410 C408 1.419 . S
C410 C411 1.363 . S
C410 H413 0.929 . S
C411 C410 1.363 . S
C411 C417 1.428 . S
H412 C408 0.930 . S
H413 C410 0.929 . S
S414 N415 1.613 . S
S414 N416 1.610 . S
N415 S414 1.613 . S
N415 C418 1.350 . S
N416 S414 1.610 . S
N416 C417 1.351 . S
C417 C411 1.428 . S
C417 N416 1.351 . S
C417 C418 1.434 . S
C418 C409 1.429 . S
C418 N415 1.350 . S
C418 C417 1.434 . S
C419 C420 1.369 . S
C419 C421 1.419 . S
C419 H423 0.923 1_554 S
C420 C419 1.369 . S
C420 C429 1.429 . S
C421 C419 1.419 . S
C421 C422 1.363 . S
C421 H424 0.929 . S
C422 C421 1.363 . S
C422 C428 1.428 . S
H423 C419 0.923 1_556 S
H424 C421 0.929 . S
S425 N426 1.613 . S
S425 N427 1.610 . S
N426 S425 1.613 . S
N426 C429 1.350 . S
N427 S425 1.610 . S
N427 C428 1.351 . S
C428 C422 1.428 . S
C428 N427 1.351 . S
C428 C429 1.434 . S
C429 C420 1.429 . S
C429 N426 1.350 . S
C429 C428 1.434 . S
C430 C431 1.369 . S
C430 C432 1.419 . S
C430 H434 0.930 . S
C431 C430 1.369 . S
C431 C440 1.429 . S
C432 C430 1.419 . S
C432 C433 1.363 . S
C432 H435 0.929 . S
C433 C432 1.363 . S
C433 C439 1.428 . S
H434 C430 0.930 . S
H435 C432 0.929 . S
S436 N437 1.613 . S
S436 N438 1.610 . S
N437 S436 1.613 . S
N437 C440 1.350 . S
N438 S436 1.610 . S
N438 C439 1.351 . S
C439 C433 1.428 . S
C439 N438 1.351 . S
C439 C440 1.434 . S
C440 C431 1.429 . S
C440 N437 1.350 . S
C440 C439 1.434 . S
C441 C442 1.369 . S
C441 C443 1.419 . S
C441 H445 0.930 . S
C442 C441 1.369 . S
C442 C451 1.429 . S
C443 C441 1.419 . S
C443 C444 1.363 . S
C443 H446 0.929 . S
C444 C443 1.363 . S
C444 C450 1.428 . S
H445 C441 0.930 . S
H446 C443 0.929 . S
S447 N448 1.613 . S
S447 N449 1.610 . S
N448 S447 1.613 . S
N448 C451 1.350 . S
N449 S447 1.610 . S
N449 C450 1.351 . S
C450 C444 1.428 . S
C450 N449 1.351 . S
C450 C451 1.434 . S
C451 C442 1.429 . S
C451 N448 1.350 . S
C451 C450 1.434 . S
C452 C453 1.369 . S
C452 C454 1.419 . S
C452 H456 0.930 . S
C453 C452 1.369 . S
C453 C462 1.429 . S
C454 C452 1.419 . S
C454 C455 1.363 . S
C454 H457 0.929 . S
C455 C454 1.363 . S
C455 C461 1.428 . S
H456 C452 0.930 . S
H457 C454 0.929 . S
S458 N459 1.613 1_655 S
S458 N460 1.610 . S
N459 S458 1.613 1_455 S
N459 C462 1.350 1_455 S
N460 S458 1.610 . S
N460 C461 1.351 . S
C461 C455 1.428 . S
C461 N460 1.351 . S
C461 C462 1.434 . S
C462 C453 1.429 . S
C462 N459 1.350 1_655 S
C462 C461 1.434 . S
C463 C464 1.369 . S
C463 C465 1.419 . S
C463 H467 0.930 . S
C464 C463 1.369 . S
C464 C473 1.429 . S
C465 C463 1.419 . S
C465 C466 1.363 . S
C465 H468 0.929 . S
C466 C465 1.363 . S
C466 C472 1.428 . S
H467 C463 0.930 . S
H468 C465 0.929 . S
S469 N470 1.613 . S
S469 N471 1.610 . S
N470 S469 1.613 . S
N470 C473 1.350 . S
N471 S469 1.610 . S
N471 C472 1.351 . S
C472 C466 1.428 . S
C472 N471 1.351 . S
C472 C473 1.434 . S
C473 C464 1.429 . S
C473 N470 1.350 . S
C473 C472 1.434 . S
C474 C475 1.369 . S
C474 C476 1.419 . S
C474 H478 0.930 . S
C475 C474 1.369 . S
C475 C484 1.429 . S
C476 C474 1.419 . S
C476 C477 1.363 . S
C476 H479 0.929 . S
C477 C476 1.363 . S
C477 C483 1.428 . S
H478 C474 0.930 . S
H479 C476 0.929 . S
S480 N481 1.613 1_554 S
S480 N482 1.605 1_554 S
N481 S480 1.613 1_556 S
N481 C484 1.350 . S
N482 S480 1.605 1_556 S
N482 C483 1.351 . S
C483 C477 1.428 . S
C483 N482 1.351 . S
C483 C484 1.434 . S
C484 C475 1.429 . S
C484 N481 1.350 . S
C484 C483 1.434 . S
C485 C486 1.369 . S
C485 C487 1.419 . S
C485 H489 0.930 . S
C486 C485 1.369 . S
C486 C495 1.429 . S
C487 C485 1.419 . S
C487 C488 1.363 . S
C487 H490 0.929 . S
C488 C487 1.363 . S
C488 C494 1.428 . S
H489 C485 0.930 . S
H490 C487 0.929 . S
S491 N492 1.613 . S
S491 N493 1.610 . S
N492 S491 1.613 . S
N492 C495 1.350 . S
N493 S491 1.610 . S
N493 C494 1.351 . S
C494 C488 1.428 . S
C494 N493 1.351 . S
C494 C495 1.434 . S
C495 C486 1.429 . S
C495 N492 1.350 . S
C495 C494 1.434 . S
C496 C497 1.369 . S
C496 C498 1.419 . S
C496 H500 0.930 . S
C497 C496 1.369 . S
C497 C506 1.429 . S
C498 C496 1.419 . S
C498 C499 1.363 . S
C498 H501 0.929 . S
C499 C498 1.363 . S
C499 C505 1.428 . S
H500 C496 0.930 . S
H501 C498 0.929 . S
S502 N503 1.613 . S
S502 N504 1.610 . S
N503 S502 1.613 . S
N503 C506 1.350 . S
N504 S502 1.610 . S
N504 C505 1.351 . S
C505 C499 1.428 . S
C505 N504 1.351 . S
C505 C506 1.434 . S
C506 C497 1.429 . S
C506 N503 1.350 . S
C506 C505 1.434 . S
C507 C508 1.369 . S
C507 C509 1.419 . S
C507 H511 0.930 . S
C508 C507 1.369 . S
C508 C517 1.429 . S
C509 C507 1.419 . S
C509 C510 1.363 . S
C509 H512 0.929 . S
C510 C509 1.363 . S
C510 C516 1.428 . S
H511 C507 0.930 . S
H512 C509 0.929 . S
S513 N514 1.613 . S
S513 N515 1.610 . S
N514 S513 1.613 . S
N514 C517 1.350 . S
N515 S513 1.610 . S
N515 C516 1.351 . S
C516 C510 1.428 . S
C516 N515 1.351 . S
C516 C517 1.434 . S
C517 C508 1.429 . S
C517 N514 1.350 . S
C517 C516 1.434 . S
C518 C519 1.369 . S
C518 C520 1.419 . S
C518 H522 0.930 . S
C519 C518 1.369 . S
C519 C528 1.429 . S
C520 C518 1.419 . S
C520 C521 1.363 . S
C520 H523 0.929 . S
C521 C520 1.363 . S
C521 C527 1.428 . S
H522 C518 0.930 . S
H523 C520 0.929 . S
S524 N525 1.613 . S
S524 N526 1.610 . S
N525 S524 1.613 . S
N525 C528 1.350 . S
N526 S524 1.610 . S
N526 C527 1.351 . S
C527 C521 1.428 . S
C527 N526 1.351 . S
C527 C528 1.434 . S
C528 C519 1.429 . S
C528 N525 1.350 . S
C528 C527 1.434 . S
C529 C530 1.369 . S
C529 C531 1.419 . S
C529 H533 0.930 . S
C530 C529 1.369 . S
C530 C539 1.429 . S
C531 C529 1.419 . S
C531 C532 1.363 . S
C531 H534 0.929 . S
C532 C531 1.363 . S
C532 C538 1.428 . S
H533 C529 0.930 . S
H534 C531 0.929 . S
S535 N536 1.613 . S
S535 N537 1.610 . S
N536 S535 1.613 . S
N536 C539 1.350 . S
N537 S535 1.610 . S
N537 C538 1.351 . S
C538 C532 1.428 . S
C538 N537 1.351 . S
C538 C539 1.434 . S
C539 C530 1.429 . S
C539 N536 1.350 . S
C539 C538 1.434 . S
C540 C541 1.369 . S
C540 C542 1.419 . S
C540 H544 0.930 . S
C541 C540 1.369 . S
C541 C550 1.429 . S
C542 C540 1.419 . S
C542 C543 1.363 . S
C542 H545 0.929 . S
C543 C542 1.363 . S
C543 C549 1.428 . S
H544 C540 0.930 . S
H545 C542 0.929 . S
S546 N547 1.613 . S
S546 N548 1.610 . S
N547 S546 1.613 . S
N547 C550 1.350 . S
N548 S546 1.610 . S
N548 C549 1.351 . S
C549 C543 1.428 . S
C549 N548 1.351 . S
C549 C550 1.434 . S
C550 C541 1.429 . S
C550 N547 1.350 . S
C550 C549 1.434 . S
C551 C552 1.369 . S
C551 C553 1.419 . S
C551 H555 0.930 . S
C552 C551 1.369 . S
C552 C561 1.429 . S
C553 C551 1.419 . S
C553 C554 1.363 . S
C553 H556 0.929 . S
C554 C553 1.363 . S
C554 C560 1.428 . S
H555 C551 0.930 . S
H556 C553 0.929 . S
S557 N558 1.613 . S
S557 N559 1.610 . S
N558 S557 1.613 . S
N558 C561 1.350 . S
N559 S557 1.610 . S
N559 C560 1.351 . S
C560 C554 1.428 . S
C560 N559 1.351 . S
C560 C561 1.434 . S
C561 C552 1.429 . S
C561 N558 1.350 . S
C561 C560 1.434 . S
C562 C563 1.369 . S
C562 C564 1.419 . S
C562 H566 0.930 . S
C563 C562 1.369 . S
C563 C572 1.429 . S
C564 C562 1.419 . S
C564 C565 1.363 . S
C564 H567 0.929 . S
C565 C564 1.363 . S
C565 C571 1.428 . S
H566 C562 0.930 . S
H567 C564 0.929 . S
S568 N569 1.613 . S
S568 N570 1.610 . S
N569 S568 1.613 . S
N569 C572 1.350 . S
N570 S568 1.610 . S
N570 C571 1.351 . S
C571 C565 1.428 . S
C571 N570 1.351 . S
C571 C572 1.434 . S
C572 C563 1.429 . S
C572 N569 1.350 . S
C572 C571 1.434 . S
C573 C574 1.369 . S
C573 C575 1.419 . S
C573 H577 0.930 . S
C574 C573 1.369 . S
C574 C583 1.429 . S
C575 C573 1.419 . S
C575 C576 1.363 . S
C575 H578 0.929 . S
C576 C575 1.363 . S
C576 C582 1.428 . S
H577 C573 0.930 . S
H578 C575 0.929 . S
S579 N580 1.613 . S
S579 N581 1.610 . S
N580 S579 1.613 . S
N580 C583 1.350 . S
N581 S579 1.610 . S
N581 C582 1.351 . S
C582 C576 1.428 . S
C582 N581 1.351 . S
C582 C583 1.434 . S
C583 C574 1.429 . S
C583 N580 1.350 . S
C583 C582 1.434 . S
C584 C585 1.369 . S
C584 C586 1.419 . S
C584 H588 0.930 . S
C585 C584 1.369 . S
C585 C594 1.429 . S
C586 C584 1.419 . S
C586 C587 1.363 . S
C586 H589 0.929 . S
C587 C586 1.363 . S
C587 C593 1.428 . S
H588 C584 0.930 . S
H589 C586 0.929 . S
S590 N591 1.613 . S
S590 N592 1.610 . S
N591 S590 1.613 . S
N591 C594 1.350 . S
N592 S590 1.610 . S
N592 C593 1.351 . S
C593 C587 1.428 . S
C593 N592 1.351 . S
C593 C594 1.434 . S
C594 C585 1.429 . S
C594 N591 1.350 . S
C594 C593 1.434 . S
C595 C596 1.369 . S
C595 C597 1.419 . S
C595 H599 0.930 . S
C596 C595 1.369 . S
C596 C605 1.429 . S
C597 C595 1.419 . S
C597 C598 1.363 . S
C597 H600 0.929 . S
C598 C597 1.363 . S
C598 C604 1.428 . S
H599 C595 0.930 . S
H600 C597 0.929 . S
S601 N602 1.613 . S
S601 N603 1.610 . S
N602 S601 1.613 . S
N602 C605 1.350 . S
N603 S601 1.610 . S
N603 C604 1.351 . S
C604 C598 1.428 . S
C604 N603 1.351 . S
C604 C605 1.434 . S
C605 C596 1.429 . S
C605 N602 1.350 . S
C605 C604 1.434 . S
C606 C607 1.369 . S
C606 C608 1.419 . S
C606 H610 0.930 . S
C607 C606 1.369 . S
C607 C616 1.429 . S
C608 C606 1.419 . S
C608 C609 1.363 . S
C608 H611 0.929 . S
C609 C608 1.363 . S
C609 C615 1.428 . S
H610 C606 0.930 . S
H611 C608 0.929 . S
S612 N613 1.613 . S
S612 N614 1.610 . S
N613 S612 1.613 . S
N613 C616 1.350 . S
N614 S612 1.610 . S
N614 C615 1.351 . S
C615 C609 1.428 . S
C615 N614 1.351 . S
C615 C616 1.434 . S
C616 C607 1.429 . S
C616 N613 1.350 . S
C616 C615 1.434 . S
C617 C618 1.369 1_655 S
C617 C619 1.419 . S
C617 H621 0.930 . S
C618 C617 1.369 1_455 S
C618 C627 1.429 . S
C619 C617 1.419 . S
C619 C620 1.363 . S
C619 H622 0.929 . S
C620 C619 1.363 . S
C620 C626 1.428 1_655 S
H621 C617 0.930 . S
H622 C619 0.929 . S
S623 N624 1.613 . S
S623 N625 1.610 . S
N624 S623 1.613 . S
N624 C627 1.350 . S
N625 S623 1.610 . S
N625 C626 1.351 . S
C626 C620 1.428 1_455 S
C626 N625 1.351 . S
C626 C627 1.434 . S
C627 C618 1.429 . S
C627 N624 1.350 . S
C627 C626 1.434 . S
C628 C629 1.369 1_545 S
C628 C630 1.419 . S
C628 H632 0.930 . S
C629 C628 1.369 1_565 S
C629 C638 1.429 . S
C630 C628 1.419 . S
C630 C631 1.363 . S
C630 H633 0.929 . S
C631 C630 1.363 . S
C631 C637 1.428 1_545 S
H632 C628 0.930 . S
H633 C630 0.929 . S
S634 N635 1.613 . S
S634 N636 1.610 . S
N635 S634 1.613 . S
N635 C638 1.350 . S
N636 S634 1.610 . S
N636 C637 1.351 . S
C637 C631 1.428 1_565 S
C637 N636 1.351 . S
C637 C638 1.434 . S
C638 C629 1.429 . S
C638 N635 1.350 . S
C638 C637 1.434 . S
C639 C640 1.369 . S
C639 C641 1.419 . S
C639 H643 0.930 . S
C640 C639 1.369 . S
C640 C649 1.429 . S
C641 C639 1.419 . S
C641 C642 1.363 . S
C641 H644 0.929 . S
C642 C641 1.363 . S
C642 C648 1.428 . S
H643 C639 0.930 . S
H644 C641 0.929 . S
S645 N646 1.613 . S
S645 N647 1.610 . S
N646 S645 1.613 . S
N646 C649 1.350 . S
N647 S645 1.610 . S
N647 C648 1.351 . S
C648 C642 1.428 . S
C648 N647 1.351 . S
C648 C649 1.434 . S
C649 C640 1.429 . S
C649 N646 1.350 . S
C649 C648 1.434 . S
C650 C651 1.369 . S
C650 C652 1.419 . S
C650 H654 0.930 . S
C651 C650 1.369 . S
C651 C660 1.429 1_455 S
C652 C650 1.419 . S
C652 C653 1.363 1_455 S
C652 H655 0.929 . S
C653 C652 1.363 1_655 S
C653 C659 1.428 . S
H654 C650 0.930 . S
H655 C652 0.929 . S
S656 N657 1.613 . S
S656 N658 1.610 . S
N657 S656 1.613 . S
N657 C660 1.350 . S
N658 S656 1.610 . S
N658 C659 1.351 . S
C659 C653 1.428 . S
C659 N658 1.351 . S
C659 C660 1.434 . S
C660 C651 1.429 1_655 S
C660 N657 1.350 . S
C660 C659 1.434 . S
C661 C662 1.369 1_545 S
C661 C663 1.419 1_554 S
C661 H665 0.930 . S
C662 C661 1.369 1_565 S
C662 C671 1.429 1_554 S
C663 C661 1.419 1_556 S
C663 C664 1.363 . S
C663 H666 0.929 . S
C664 C663 1.363 . S
C664 C670 1.428 1_545 S
H665 C661 0.930 . S
H666 C663 0.929 . S
S667 N668 1.613 . S
S667 N669 1.610 . S
N668 S667 1.613 . S
N668 C671 1.350 . S
N669 S667 1.610 . S
N669 C670 1.351 . S
C670 C664 1.428 1_565 S
C670 N669 1.351 . S
C670 C671 1.434 . S
C671 C662 1.429 1_556 S
C671 N668 1.350 . S
C671 C670 1.434 . S
C672 C673 1.369 . S
C672 C674 1.419 . S
C672 H676 0.930 . S
C673 C672 1.369 . S
C673 C682 1.429 . S
C674 C672 1.419 . S
C674 C675 1.363 . S
C674 H677 0.929 . S
C675 C674 1.363 . S
C675 C681 1.428 . S
H676 C672 0.930 . S
H677 C674 0.929 . S
S678 N679 1.613 . S
S678 N680 1.610 . S
N679 S678 1.613 . S
N679 C682 1.350 . S
N680 S678 1.610 . S
N680 C681 1.351 . S
C681 C675 1.428 . S
C681 N680 1.351 . S
C681 C682 1.434 . S
C682 C673 1.429 . S
C682 N679 1.350 . S
C682 C681 1.434 . S
C683 C684 1.369 . S
C683 C685 1.419 . S
C683 H687 0.930 . S
C684 C683 1.369 . S
C684 C693 1.429 . S
C685 C683 1.419 . S
C685 C686 1.363 . S
C685 H688 0.929 . S
C686 C685 1.363 . S
C686 C692 1.428 . S
H687 C683 0.930 . S
H688 C685 0.929 . S
S689 N690 1.613 1_455 S
S689 N691 1.610 1_455 S
N690 S689 1.613 1_655 S
N690 C693 1.350 . S
N691 S689 1.610 1_655 S
N691 C692 1.351 . S
C692 C686 1.428 . S
C692 N691 1.351 . S
C692 C693 1.434 . S
C693 C684 1.429 . S
C693 N690 1.350 . S
C693 C692 1.434 . S
C694 C695 1.369 . S
C694 C696 1.419 . S
C694 H698 0.930 . S
C695 C694 1.369 . S
C695 C704 1.429 . S
C696 C694 1.419 . S
C696 C697 1.363 . S
C696 H699 0.929 . S
C697 C696 1.363 . S
C697 C703 1.428 . S
H698 C694 0.930 . S
H699 C696 0.929 . S
S700 N701 1.613 . S
S700 N702 1.610 . S
N701 S700 1.613 . S
N701 C704 1.350 . S
N702 S700 1.610 . S
N702 C703 1.351 . S
C703 C697 1.428 . S
C703 N702 1.351 . S
C703 C704 1.434 . S
C704 C695 1.429 . S
C704 N701 1.350 . S
C704 C703 1.434 . S
C705 C706 1.369 . S
C705 C707 1.419 . S
C705 H709 0.930 . S
C706 C705 1.369 . S
C706 C715 1.429 . S
C707 C705 1.419 . S
C707 C708 1.363 . S
C707 H710 0.929 . S
C708 C707 1.363 . S
C708 C714 1.428 . S
H709 C705 0.930 . S
H710 C707 0.929 . S
S711 N712 1.613 . S
S711 N713 1.610 . S
N712 S711 1.613 . S
N712 C715 1.350 . S
N713 S711 1.610 . S
N713 C714 1.351 . S
C714 C708 1.428 . S
C714 N713 1.351 . S
C714 C715 1.434 . S
C715 C706 1.429 . S
C715 N712 1.350 . S
C715 C714 1.434 . S
C716 C717 1.369 . S
C716 C718 1.419 . S
C716 H720 0.930 . S
C717 C716 1.369 . S
C717 C726 1.429 . S
C718 C716 1.419 . S
C718 C719 1.363 . S
C718 H721 0.929 . S
C719 C718 1.363 . S
C719 C725 1.428 . S
H720 C716 0.930 . S
H721 C718 0.929 . S
S722 N723 1.613 . S
S722 N724 1.610 . S
N723 S722 1.613 . S
N723 C726 1.350 . S
N724 S722 1.610 . S
N724 C725 1.351 . S
C725 C719 1.428 . S
C725 N724 1.351 . S
C725 C726 1.434 . S
C726 C717 1.429 . S
C726 N723 1.350 . S
C726 C725 1.434 . S
C727 C728 1.369 . S
C727 C729 1.419 . S
C727 H731 0.930 . S
C728 C727 1.369 . S
C728 C737 1.429 . S
C729 C727 1.419 . S
C729 C730 1.363 . S
C729 H732 0.929 . S
C730 C729 1.363 . S
C730 C736 1.428 . S
H731 C727 0.930 . S
H732 C729 0.929 . S
S733 N734 1.613 . S
S733 N735 1.610 . S
N734 S733 1.613 . S
N734 C737 1.350 . S
N735 S733 1.610 . S
N735 C736 1.351 . S
C736 C730 1.428 . S
C736 N735 1.351 . S
C736 C737 1.434 . S
C737 C728 1.429 . S
C737 N734 1.350 . S
C737 C736 1.434 . S
C409 C172 1.424 . S
C411 C5 1.422 . S
C420 C2 1.424 . S
C422 C39 1.422 1_455 S
C431 C36 1.425 . S
C433 C73 1.422 1_545 S
C442 C107 1.419 . S
C444 C70 1.425 . S
C453 C141 1.419 1_655 S
C455 C104 1.429 . S
C464 C138 1.430 . S
C466 C175 1.420 1_565 S
C475 C240 1.428 . S
C477 C209 1.417 . S
C486 C274 1.427 . S
C488 C243 1.422 1_455 S
C497 C308 1.429 . S
C499 C277 1.421 1_545 S
C508 C342 1.426 . S
C510 C311 1.417 . S
C519 C376 1.425 . S
C521 C345 1.418 1_655 S
C530 C206 1.425 . S
C532 C379 1.418 1_565 S
C541 C281 1.265 . S
C543 C9 1.269 . S
C552 C43 1.267 . S
C554 C315 1.271 . S
C563 C77 1.265 . S
C565 C349 1.266 . S
C574 C111 1.272 . S
C576 C383 1.273 . S
C585 C145 1.271 . S
C587 C213 1.267 . S
C596 C247 1.264 . S
C598 C179 1.267 . S
C607 C339 1.525 . S
C609 C33 1.524 . S
C618 C373 1.524 . S
C620 C67 1.525 . S
C629 C101 1.523 . S
C631 C407 1.525 . S
C640 C135 1.523 . S
C642 C237 1.525 . S
C651 C169 1.525 . S
C653 C271 1.524 . S
C662 C305 1.523 . S
C664 C203 1.525 . S
C673 C20 1.676 . S
C675 C224 1.677 . S
C684 C258 1.676 . S
C686 C54 1.679 . S
C695 C88 1.680 . S
C697 C292 1.676 . S
C706 C326 1.679 . S
C708 C122 1.677 . S
C717 C360 1.675 . S
C719 C156 1.679 . S
C728 C394 1.678 . S
C730 C190 1.676 . S
