# Generated by pormake.
# Topology mdf, (4)-cn, num edge types: 1
# Building blocks:
#     Node 0, Type 0, BuildingBlock: QUQFOY_clean_sbu_3, # of connection points: 4
#     Node 1, Type 0, BuildingBlock: QUQFOY_clean_sbu_3, # of connection points: 4
#     Node 2, Type 0, BuildingBlock: QUQFOY_clean_sbu_3, # of connection points: 4
#     Node 3, Type 0, BuildingBlock: QUQFOY_clean_sbu_3, # of connection points: 4
#     Node 4, Type 0, BuildingBlock: QUQFOY_clean_sbu_3, # of connection points: 4
#     Node 5, Type 0, BuildingBlock: QUQFOY_clean_sbu_3, # of connection points: 4
#     Node 6, Type 0, BuildingBlock: QUQFOY_clean_sbu_3, # of connection points: 4
#     Node 7, Type 0, BuildingBlock: QUQFOY_clean_sbu_3, # of connection points: 4
#     Edge 8, Type (0, 0), BuildingBlock: UVAHIK_clean_linker_0, # of connection points: 2
#     Edge 9, Type (0, 0), BuildingBlock: UVAHIK_clean_linker_0, # of connection points: 2
#     Edge 10, Type (0, 0), BuildingBlock: UVAHIK_clean_linker_0, # of connection points: 2
#     Edge 11, Type (0, 0), BuildingBlock: UVAHIK_clean_linker_0, # of connection points: 2
#     Edge 12, Type (0, 0), BuildingBlock: UVAHIK_clean_linker_0, # of connection points: 2
#     Edge 13, Type (0, 0), BuildingBlock: UVAHIK_clean_linker_0, # of connection points: 2
#     Edge 14, Type (0, 0), BuildingBlock: UVAHIK_clean_linker_0, # of connection points: 2
#     Edge 15, Type (0, 0), BuildingBlock: UVAHIK_clean_linker_0, # of connection points: 2
#     Edge 16, Type (0, 0), BuildingBlock: UVAHIK_clean_linker_0, # of connection points: 2
#     Edge 17, Type (0, 0), BuildingBlock: UVAHIK_clean_linker_0, # of connection points: 2
#     Edge 18, Type (0, 0), BuildingBlock: UVAHIK_clean_linker_0, # of connection points: 2
#     Edge 19, Type (0, 0), BuildingBlock: UVAHIK_clean_linker_0, # of connection points: 2
#     Edge 20, Type (0, 0), BuildingBlock: UVAHIK_clean_linker_0, # of connection points: 2
#     Edge 21, Type (0, 0), BuildingBlock: UVAHIK_clean_linker_0, # of connection points: 2
#     Edge 22, Type (0, 0), BuildingBlock: UVAHIK_clean_linker_0, # of connection points: 2
#     Edge 23, Type (0, 0), BuildingBlock: UVAHIK_clean_linker_0, # of connection points: 2
# Relax obj value: 0.015
# Max RMSD: 0.038
# Mean RMSD: 0.038
data_MOF--net-mdf--node1-QUQFOY_clean_sbu_3--edge1-UVAHIK_clean_linker_0
_symmetry_space_group_name_H-M    P1
_symmetry_Int_Tables_number       1
_symmetry_cell_setting            triclinic
loop_
_symmetry_equiv_pos_as_xyz
'x, y, z'
_cell_length_a     50.022056
_cell_length_b     50.051703
_cell_length_c     15.363571
_cell_angle_alpha  89.960494
_cell_angle_beta   89.95549
_cell_angle_gamma 91.511909
loop_
_atom_site_label
_atom_site_type_symbol
_atom_site_fract_x
_atom_site_fract_y
_atom_site_fract_z
_atom_type_partial_charge
C0 C 0.27504 0.53262 0.20517 0.0
O1 O 0.26181 0.51417 0.16645 0.0
Cd2 Cd 0.22919 0.48663 0.24071 0.0
O3 O 0.26983 0.53869 0.28376 0.0
Cd4 Cd 0.23916 0.52835 0.40504 0.0
C5 C 0.26951 0.46891 0.41548 0.0
O6 O 0.20141 0.51675 0.31499 0.0
O7 O 0.1967 0.50661 0.45045 0.0
O8 O 0.23386 0.57609 0.40937 0.0
C9 C 0.18665 0.50707 0.3747 0.0
O10 O 0.25668 0.46333 0.34586 0.0
C11 C 0.23601 0.57855 0.49124 0.0
O12 O 0.268 0.49187 0.45101 0.0
O13 O 0.24089 0.55748 0.53427 0.0
C14 C 0.45995 0.71313 0.78752 0.0
O15 O 0.47827 0.72523 0.83043 0.0
Cd16 Cd 0.50728 0.75812 0.76298 0.0
O17 O 0.45487 0.71982 0.70943 0.0
Cd18 Cd 0.46734 0.75227 0.59582 0.0
C19 C 0.52588 0.72043 0.58394 0.0
O20 O 0.47901 0.78878 0.69228 0.0
O21 O 0.49074 0.79436 0.55825 0.0
O22 O 0.41995 0.75968 0.58711 0.0
C23 C 0.48951 0.80383 0.63467 0.0
O24 O 0.53131 0.73198 0.65595 0.0
C25 C 0.41826 0.75824 0.50487 0.0
O26 O 0.50321 0.72311 0.54739 0.0
O27 O 0.43954 0.75282 0.46367 0.0
C28 C 0.22627 0.9437 0.69231 0.0
O29 O 0.23677 0.96165 0.64386 0.0
Cd30 Cd 0.26128 -0.00155 0.70613 0.0
O31 O 0.23026 0.94397 0.77412 0.0
Cd32 Cd 0.25549 0.96763 0.88916 0.0
C33 C 0.21516 0.0198 0.85818 0.0
O34 O 0.29369 0.97886 0.79931 0.0
O35 O 0.29282 -0.00126 0.92377 0.0
O36 O 0.26827 0.92313 0.92626 0.0
C37 C 0.30529 0.99423 0.85355 0.0
O38 O 0.22742 0.02291 0.786 0.0
C39 C 0.26301 0.92439 0.00682 0.0
O40 O 0.22078 0.0007 0.90942 0.0
O41 O 0.25366 0.94621 0.03457 0.0
C42 C 0.04152 0.76136 0.28334 0.0
O43 O 0.02275 0.7495 0.32495 0.0
Cd44 Cd 0.98724 0.72708 0.24866 0.0
O45 O 0.04277 0.75984 0.20069 0.0
Cd46 Cd 0.02195 0.7386 0.07203 0.0
C47 C 0.96913 0.77781 0.10663 0.0
O48 O 0.00916 0.69855 0.14835 0.0
O49 O 0.99165 0.70216 0.02097 0.0
O50 O 0.06744 0.72752 0.04209 0.0
C51 C 0.99471 0.68824 0.08913 0.0
O52 O 0.96483 0.76348 0.17409 0.0
C53 C 0.06776 0.73445 0.96274 0.0
O54 O 0.98906 0.77372 0.05702 0.0
O55 O 0.04636 0.744 0.93234 0.0
C56 C 0.76671 0.03976 0.70266 0.0
O57 O 0.75322 0.02301 0.65755 0.0
Cd58 Cd 0.72654 0.98944 0.72921 0.0
O59 O 0.76329 0.04163 0.78455 0.0
Cd60 Cd 0.73426 0.02539 0.90432 0.0
C61 C 0.7715 0.97064 0.89086 0.0
O62 O 0.69624 0.01377 0.81597 0.0
O63 O 0.69451 -0.00185 0.94667 0.0
O64 O 0.7239 0.0717 0.92227 0.0
C65 C 0.68317 0.00086 0.87343 0.0
O66 O 0.7595 0.9666 0.81868 0.0
C67 C 0.72849 0.07297 0.00333 0.0
O68 O 0.76644 0.99091 0.93772 0.0
O69 O 0.73664 0.05185 0.0399 0.0
C70 C 0.95856 0.22087 0.30678 0.0
O71 O 0.97622 0.23341 0.35112 0.0
Cd72 Cd 0.00941 0.26027 0.27869 0.0
O73 O 0.95582 0.22521 0.22563 0.0
Cd74 Cd 0.97158 0.25512 0.10736 0.0
C75 C 0.02582 0.21696 0.10944 0.0
O76 O 0.98422 0.29187 0.20014 0.0
O77 O -0.00151 0.29542 0.06819 0.0
O78 O 0.92477 0.26456 0.09775 0.0
C79 C -0.00354 0.30577 0.14321 0.0
O80 O 0.03076 0.22816 0.18239 0.0
C81 C 0.92286 0.26276 0.01569 0.0
O82 O 0.00511 0.22274 0.06561 0.0
O83 O 0.94386 0.25645 0.9744 0.0
C84 C 0.72607 0.4455 0.20684 0.0
O85 O 0.73982 0.46161 0.16 0.0
Cd86 Cd 0.7647 0.49768 0.2255 0.0
O87 O 0.72784 0.44598 0.28946 0.0
Cd88 Cd 0.75351 0.46693 0.40886 0.0
C89 C 0.71643 0.52069 0.36965 0.0
O90 O 0.79347 0.47737 0.32755 0.0
O91 O 0.7903 0.49796 0.45006 0.0
O92 O 0.7644 0.42181 0.4438 0.0
C93 C 0.80399 0.49325 0.3825 0.0
O94 O 0.73064 0.52338 0.30106 0.0
C95 C 0.75893 0.42289 0.52429 0.0
O96 O 0.71963 0.50104 0.42125 0.0
O97 O 0.75 0.44482 0.55273 0.0
C98 C 0.53793 0.26482 0.79521 0.0
O99 O 0.5218 0.24941 0.83622 0.0
Cd100 Cd 0.48882 0.22467 0.75522 0.0
O101 O 0.53917 0.26443 0.71248 0.0
Cd102 Cd 0.52266 0.24009 0.58343 0.0
C103 C 0.46713 0.27473 0.61529 0.0
O104 O 0.51343 0.19822 0.65589 0.0
O105 O 0.49499 0.20215 0.52997 0.0
O106 O 0.56978 0.23492 0.56228 0.0
C107 C 0.4997 0.18756 0.59545 0.0
O108 O 0.46357 0.25933 0.6807 0.0
C109 C 0.57012 0.23913 0.48093 0.0
O110 O 0.48781 0.2729 0.5673 0.0
O111 O 0.54797 0.24482 0.44546 0.0
C112 C 0.42792 0.6743 0.7758 0.0
C113 C 0.44399 0.69125 0.82795 0.0
C114 C 0.41196 0.6542 0.81343 0.0
C115 C 0.36687 0.62697 0.91141 0.0
H116 H 0.38907 0.58703 0.11409 0.0
C117 C 0.29983 0.54494 0.06857 0.0
C118 C 0.29659 0.54753 0.15901 0.0
C119 C 0.31964 0.55992 0.02509 0.0
C120 C 0.38266 0.59808 0.05751 0.0
H121 H 0.45635 0.70014 0.96029 0.0
H122 H 0.42783 0.66546 0.02648 0.0
H123 H 0.42079 0.61798 0.04326 0.0
H124 H 0.31208 0.56722 0.27513 0.0
H125 H 0.34658 0.59327 0.1991 0.0
H126 H 0.32873 0.60715 0.92596 0.0
C127 C 0.42798 0.66737 0.95626 0.0
C128 C 0.40074 0.61585 0.01721 0.0
C129 C 0.44419 0.68735 0.91845 0.0
C130 C 0.31396 0.56486 0.20533 0.0
C131 C 0.33387 0.57963 0.162 0.0
C132 C 0.3489 0.60907 0.95127 0.0
C133 C 0.41147 0.65077 0.90416 0.0
C134 C 0.39293 0.63073 0.94433 0.0
C135 C 0.3367 0.57752 0.07143 0.0
C136 C 0.35652 0.59473 0.02529 0.0
H137 H 0.4276 0.67656 0.70568 0.0
H138 H 0.3999 0.64141 0.77133 0.0
H139 H 0.36005 0.63845 0.85635 0.0
H140 H 0.2868 0.53169 0.03114 0.0
H141 H 0.32157 0.55784 0.9552 0.0
C142 C 0.39206 0.76594 0.36845 0.0
C143 C 0.3934 0.76557 0.45976 0.0
C144 C 0.37028 0.77725 0.32647 0.0
C145 C 0.325 0.83108 0.36189 0.0
H146 H 0.29172 0.80647 0.1478 0.0
C147 C 0.2633 0.90258 0.15441 0.0
C148 C 0.26904 0.90178 0.06497 0.0
C149 C 0.27143 0.88197 0.20933 0.0
C150 C 0.30088 0.81369 0.20742 0.0
H151 H 0.37206 0.77493 0.57859 0.0
H152 H 0.33432 0.79491 0.50512 0.0
H153 H 0.31962 0.77629 0.23082 0.0
H154 H 0.28676 0.87824 0.96242 0.0
H155 H 0.30162 0.84316 0.05749 0.0
H156 H 0.30801 0.86894 0.33632 0.0
C157 C 0.35014 0.7866 0.46619 0.0
C158 C 0.31674 0.79634 0.25501 0.0
C159 C 0.37175 0.7751 0.5081 0.0
C160 C 0.28205 0.87953 0.0311 0.0
C161 C 0.29035 0.85916 0.08577 0.0
C162 C 0.30949 0.84854 0.31377 0.0
C163 C 0.34961 0.78855 0.37511 0.0
C164 C 0.3295 0.80512 0.3315 0.0
C165 C 0.28563 0.8603 0.17587 0.0
C166 C 0.29791 0.84034 0.23448 0.0
H167 H 0.40838 0.75867 0.32946 0.0
H168 H 0.37044 0.77863 0.2561 0.0
H169 H 0.33482 0.83848 0.42025 0.0
H170 H 0.25308 0.91937 0.18224 0.0
H171 H 0.26706 0.88331 0.27821 0.0
C172 C 0.06342 0.77655 0.42197 0.0
C173 C 0.06234 0.77691 0.33059 0.0
C174 C 0.08303 0.7916 0.46602 0.0
C175 C 0.14793 0.82771 0.43357 0.0
H176 H 0.12556 0.86882 0.63343 0.0
C177 C 0.20689 0.91958 0.56339 0.0
C178 C 0.2094 0.92212 0.65409 0.0
C179 C 0.19061 0.89934 0.52777 0.0
C180 C 0.13219 0.85717 0.57845 0.0
H181 H 0.08108 0.79313 0.21373 0.0
H182 H 0.11474 0.81977 0.29045 0.0
H183 H 0.09397 0.83755 0.56478 0.0
H184 H 0.19713 0.90518 0.77857 0.0
H185 H 0.16862 0.86998 0.71606 0.0
H186 H 0.18593 0.84804 0.44594 0.0
C187 C 0.10085 0.80748 0.32816 0.0
C188 C 0.11414 0.83922 0.53927 0.0
C189 C 0.08139 0.79236 0.28419 0.0
C190 C 0.19555 0.90384 0.70839 0.0
C191 C 0.17916 0.88373 0.67276 0.0
C192 C 0.16592 0.84579 0.47247 0.0
C193 C 0.10182 0.80736 0.41951 0.0
C194 C 0.12169 0.8246 0.46563 0.0
C195 C 0.17645 0.88139 0.58219 0.0
C196 C 0.15808 0.86093 0.54452 0.0
H197 H 0.04915 0.76467 0.45954 0.0
H198 H 0.08348 0.79087 0.53647 0.0
H199 H 0.15448 0.81635 0.37787 0.0
H200 H 0.21736 0.9333 0.51984 0.0
H201 H 0.18863 0.89812 0.45767 0.0
C202 C 0.11356 0.71693 0.94493 0.0
C203 C 0.09158 0.72974 0.90835 0.0
C204 C 0.13487 0.70927 0.89303 0.0
C205 C 0.14825 0.6909 0.66624 0.0
H206 H 0.21912 0.67935 0.75926 0.0
C207 C 0.22173 0.6259 0.4837 0.0
C208 C 0.22985 0.6041 0.53415 0.0
C209 C 0.21081 0.64822 0.52323 0.0
C210 C 0.19949 0.68266 0.73221 0.0
H211 H 0.07557 0.74628 0.78952 0.0
H212 H 0.11326 0.73343 0.6985 0.0
H213 H 0.1884 0.70781 0.83803 0.0
H214 H 0.23506 0.58962 0.66591 0.0
H215 H 0.21605 0.62874 0.73511 0.0
H216 H 0.15918 0.66536 0.56138 0.0
C217 C 0.11366 0.72869 0.76726 0.0
C218 C 0.18182 0.69884 0.77735 0.0
C219 C 0.09211 0.73618 0.81937 0.0
C220 C 0.22887 0.60603 0.6253 0.0
C221 C 0.2181 0.62849 0.66492 0.0
C222 C 0.16603 0.67507 0.62061 0.0
C223 C 0.13495 0.71444 0.80309 0.0
C224 C 0.15558 0.70226 0.74674 0.0
C225 C 0.208 0.6493 0.61403 0.0
C226 C 0.19146 0.67002 0.65467 0.0
H227 H 0.11387 0.71174 0.01338 0.0
H228 H 0.15056 0.69799 0.9231 0.0
H229 H 0.12819 0.69272 0.64092 0.0
H230 H 0.22244 0.62517 0.41327 0.0
H231 H 0.20347 0.66412 0.48259 0.0
C232 C 0.81104 0.0631 0.70215 0.0
C233 C 0.78666 0.05741 0.66047 0.0
C234 C 0.83007 0.08007 0.66317 0.0
C235 C 0.84696 0.11359 0.45197 0.0
H236 H 0.89433 0.15547 0.60106 0.0
C237 C 0.93262 0.17792 0.30674 0.0
C238 C 0.94031 0.20159 0.34955 0.0
C239 C 0.9146 0.15989 0.34578 0.0
C240 C 0.88102 0.14434 0.55811 0.0
H241 H 0.76255 0.06503 0.54676 0.0
H242 H 0.79487 0.0962 0.48094 0.0
H243 H 0.86052 0.12645 0.66569 0.0
H244 H 0.9352 0.22547 0.4654 0.0
H245 H 0.90232 0.19502 0.53149 0.0
H246 H 0.86597 0.13313 0.34447 0.0
C247 C 0.80007 0.08672 0.5417 0.0
C248 C 0.86188 0.12712 0.59542 0.0
C249 C 0.7814 0.06902 0.57952 0.0
C250 C 0.92971 0.20711 0.4318 0.0
C251 C 0.911 0.1895 0.46974 0.0
C252 C 0.86555 0.13143 0.41468 0.0
C253 C 0.82473 0.09244 0.58292 0.0
C254 C 0.84474 0.11128 0.54292 0.0
C255 C 0.90318 0.1656 0.42727 0.0
C256 C 0.88305 0.14688 0.46718 0.0
H257 H 0.81558 0.05406 0.76435 0.0
H258 H 0.84902 0.08325 0.696 0.0
H259 H 0.83452 0.1015 0.40899 0.0
H260 H 0.9408 0.17322 0.2434 0.0
H261 H 0.90977 0.14144 0.3119 0.0
C262 C 0.89614 0.27018 0.87989 0.0
C263 C 0.89793 0.27016 0.97113 0.0
C264 C 0.8739 0.28091 0.83863 0.0
C265 C 0.82711 0.3335 0.87401 0.0
H266 H 0.79184 0.30587 0.66713 0.0
C267 C 0.76031 0.4013 0.67204 0.0
C268 C 0.76498 0.40018 0.582 0.0
C269 C 0.76949 0.38111 0.72675 0.0
C270 C 0.80156 0.31394 0.72469 0.0
H271 H 0.87704 0.27972 0.09068 0.0
H272 H 0.83857 0.29868 0.01852 0.0
H273 H 0.82222 0.27759 0.74798 0.0
H274 H 0.78151 0.37628 0.47816 0.0
H275 H 0.79821 0.34197 0.57267 0.0
H276 H 0.80818 0.37036 0.84839 0.0
C277 C 0.85436 0.29054 0.97905 0.0
C278 C 0.81885 0.29767 0.77101 0.0
C279 C 0.8764 0.27964 0.0202 0.0
C280 C 0.77766 0.37784 0.54734 0.0
C281 C 0.78704 0.35791 0.60179 0.0
C282 C 0.81019 0.3499 0.82707 0.0
C283 C 0.85324 0.29195 0.88797 0.0
C284 C 0.83224 0.30754 0.84496 0.0
C285 C 0.78375 0.35959 0.69247 0.0
C286 C 0.79776 0.34061 0.75036 0.0
H287 H 0.91236 0.26295 0.84037 0.0
H288 H 0.87359 0.28191 0.7682 0.0
H289 H 0.83739 0.34172 0.9304 0.0
H290 H 0.75036 0.41815 0.70054 0.0
H291 H 0.7661 0.3828 0.79612 0.0
C292 C 0.68391 0.41819 0.20829 0.0
C293 C 0.70769 0.42595 0.16584 0.0
C294 C 0.66616 0.39988 0.1696 0.0
C295 C 0.65015 0.36839 0.95604 0.0
H296 H 0.60499 0.32253 0.10071 0.0
C297 C 0.56295 0.30805 0.80743 0.0
C298 C 0.55616 0.28298 0.84281 0.0
C299 C 0.58137 0.32493 0.84935 0.0
C300 C 0.61769 0.33484 0.05903 0.0
H301 H 0.73216 0.42029 0.05138 0.0
H302 H 0.70199 0.38707 0.98566 0.0
H303 H 0.63873 0.35125 0.16805 0.0
H304 H 0.56306 0.2556 0.94908 0.0
H305 H 0.5965 0.28438 0.0203 0.0
H306 H 0.63044 0.3507 0.84673 0.0
C307 C 0.69632 0.39588 0.04705 0.0
C308 C 0.63679 0.35177 0.0979 0.0
C309 C 0.71374 0.41479 0.08478 0.0
C310 C 0.56788 0.27503 0.92117 0.0
C311 C 0.58693 0.29161 0.962 0.0
C312 C 0.63157 0.35097 0.91709 0.0
C313 C 0.67216 0.38836 0.08861 0.0
C314 C 0.65297 0.36911 0.04702 0.0
C315 C 0.59405 0.31674 0.92626 0.0
C316 C 0.61473 0.33431 0.96806 0.0
H317 H 0.67874 0.42675 0.27064 0.0
H318 H 0.64752 0.3952 0.20277 0.0
H319 H 0.66192 0.38161 0.91444 0.0
H320 H 0.55389 0.31468 0.74739 0.0
H321 H 0.5856 0.34441 0.82115 0.0
C322 C 0.72933 0.10007 0.14093 0.0
C323 C 0.72242 0.0974 0.05278 0.0
C324 C 0.72073 0.12199 0.18901 0.0
C325 C 0.68555 0.18731 0.1683 0.0
H326 H 0.65821 0.16734 0.39588 0.0
C327 C 0.59386 0.23213 0.33908 0.0
C328 C 0.59466 0.23444 0.43017 0.0
C329 C 0.61573 0.22209 0.29385 0.0
C330 C 0.66615 0.17347 0.33313 0.0
H331 H 0.7022 0.11619 0.94482 0.0
H332 H 0.68631 0.15343 0.02864 0.0
H333 H 0.68571 0.13653 0.31677 0.0
H334 H 0.6199 0.23072 0.54423 0.0
H335 H 0.65781 0.21315 0.46536 0.0
H336 H 0.66407 0.22362 0.18334 0.0
C337 C 0.69893 0.13924 0.06089 0.0
C338 C 0.6821 0.1558 0.28768 0.0
C339 C 0.70786 0.11763 0.01274 0.0
C340 C 0.6185 0.22878 0.47414 0.0
C341 C 0.64023 0.2187 0.42913 0.0
C342 C 0.66917 0.20484 0.21338 0.0
C343 C 0.70466 0.14142 0.15022 0.0
C344 C 0.69148 0.16215 0.20367 0.0
C345 C 0.63864 0.21419 0.33917 0.0
C346 C 0.6589 0.19781 0.29549 0.0
H347 H 0.74081 0.08493 0.17326 0.0
H348 H 0.72608 0.12329 0.25717 0.0
H349 H 0.6929 0.19319 0.10462 0.0
H350 H 0.5758 0.23643 0.30342 0.0
H351 H 0.61397 0.21873 0.22442 0.0
C352 C 0.28746 0.42285 0.41528 0.0
C353 C 0.28802 0.44885 0.44997 0.0
C354 C 0.30679 0.40464 0.4386 0.0
C355 C 0.36034 0.3786 0.44675 0.0
H356 H 0.38505 0.36806 0.68304 0.0
C357 C 0.45036 0.31289 0.526 0.0
C358 C 0.44723 0.29544 0.59721 0.0
C359 C 0.43167 0.33264 0.51041 0.0
C360 C 0.37827 0.37074 0.61673 0.0
H361 H 0.3087 0.47567 0.53975 0.0
H362 H 0.34269 0.44366 0.58056 0.0
H363 H 0.35002 0.40009 0.65438 0.0
H364 H 0.42196 0.28516 0.70798 0.0
H365 H 0.38939 0.31934 0.68014 0.0
H366 H 0.3881 0.34896 0.40907 0.0
C367 C 0.32715 0.43748 0.53526 0.0
C368 C 0.35841 0.38924 0.6003 0.0
C369 C 0.3077 0.4558 0.51187 0.0
C370 C 0.42504 0.29824 0.65249 0.0
C371 C 0.40644 0.318 0.63702 0.0
C372 C 0.38022 0.36022 0.46308 0.0
C373 C 0.32724 0.41193 0.49713 0.0
C374 C 0.34901 0.39312 0.51521 0.0
C375 C 0.40952 0.33541 0.56581 0.0
C376 C 0.38926 0.3559 0.54832 0.0
H377 H 0.2724 0.41667 0.36827 0.0
H378 H 0.30594 0.3849 0.40972 0.0
H379 H 0.35382 0.38144 0.38024 0.0
H380 H 0.46726 0.31138 0.48234 0.0
H381 H 0.43472 0.34593 0.45539 0.0
C382 C 0.64738 0.98846 0.76701 0.0
C383 C 0.65784 0.98667 0.8516 0.0
C384 C 0.62492 0.97314 0.74303 0.0
C385 C 0.56793 0.93236 0.82557 0.0
H386 H 0.57855 0.89154 0.61448 0.0
C387 C 0.50793 0.83576 0.74542 0.0
C388 C 0.50305 0.82934 0.65781 0.0
C389 C 0.52306 0.8586 0.76722 0.0
C390 C 0.57489 0.90316 0.6725 0.0
H391 H 0.65219 0.96856 0.97879 0.0
H392 H 0.61288 0.94157 0.93653 0.0
H393 H 0.61164 0.92533 0.65711 0.0
H394 H 0.50865 0.84254 0.52448 0.0
H395 H 0.53448 0.88284 0.5625 0.0
H396 H 0.53125 0.90988 0.8414 0.0
C397 C 0.62205 0.95493 0.88901 0.0
C398 C 0.59394 0.92249 0.69706 0.0
C399 C 0.64463 0.97024 0.91301 0.0
C400 C 0.51241 0.84685 0.59254 0.0
C401 C 0.5273 0.86985 0.61436 0.0
C402 C 0.54869 0.91311 0.80059 0.0
C403 C 0.6124 0.95578 0.80319 0.0
C404 C 0.59086 0.93701 0.77441 0.0
C405 C 0.53339 0.87562 0.70184 0.0
C406 C 0.55219 0.89799 0.72443 0.0
H407 H 0.65697 0.00115 0.71841 0.0
H408 H 0.61766 0.97443 0.67678 0.0
H409 H 0.56498 0.94348 0.88512 0.0
H410 H 0.50095 0.82261 0.79716 0.0
H411 H 0.52762 0.86223 0.83515 0.0
C412 C 0.06085 0.18343 0.13765 0.0
C413 C 0.0439 0.19607 0.07833 0.0
C414 C 0.07762 0.16328 0.1101 0.0
C415 C 0.11407 0.13912 0.92412 0.0
H416 H 0.11547 0.0722 0.05128 0.0
C417 C 0.18193 0.05394 0.81636 0.0
C418 C 0.19396 0.03859 0.88139 0.0
C419 C 0.16217 0.07202 0.83748 0.0
C420 C 0.11565 0.09088 0.01572 0.0
H421 H 0.03144 0.1976 0.94331 0.0
H422 H 0.06151 0.16263 0.89455 0.0
H423 H 0.08374 0.10609 0.09286 0.0
H424 H 0.19472 0.03018 0.01971 0.0
H425 H 0.16099 0.0625 0.05737 0.0
H426 H 0.14665 0.12467 0.84933 0.0
C427 C 0.06146 0.16831 0.96258 0.0
C428 C 0.09732 0.11019 0.03923 0.0
C429 C 0.04426 0.18822 0.99049 0.0
C430 C 0.18571 0.04163 0.9681 0.0
C431 C 0.16622 0.06006 0.9895 0.0
C432 C 0.1327 0.12 0.90141 0.0
C433 C 0.07815 0.15557 0.02239 0.0
C434 C 0.09647 0.13453 0.99395 0.0
C435 C 0.15421 0.07556 0.92445 0.0
C436 C 0.13385 0.09565 0.9472 0.0
H437 H 0.06097 0.18888 0.20588 0.0
H438 H 0.09047 0.15394 0.1573 0.0
H439 H 0.114 0.15788 0.88888 0.0
H440 H 0.18762 0.05183 0.74871 0.0
H441 H 0.15303 0.08308 0.78529 0.0
C442 C 0.95517 0.65812 0.05896 0.0
C443 C 0.9787 0.6637 0.10608 0.0
C444 C 0.9382 0.63684 0.0836 0.0
C445 C 0.93331 0.57432 0.20736 0.0
H446 H 0.86068 0.59535 0.25566 0.0
C447 C 0.84416 0.50196 0.28964 0.0
C448 C 0.82791 0.50954 0.35958 0.0
C449 C 0.86484 0.51894 0.26042 0.0
C450 C 0.88093 0.58927 0.2427 0.0
H451 H 0.00388 0.65055 0.21182 0.0
H452 H 0.97439 0.61307 0.25374 0.0
H453 H 0.89249 0.62769 0.19206 0.0
H454 H 0.8212 0.5402 0.4563 0.0
H455 H 0.85716 0.57012 0.40403 0.0
H456 H 0.92156 0.53579 0.25788 0.0
C457 C 0.96901 0.62525 0.19845 0.0
C458 C 0.89898 0.60762 0.20544 0.0
C459 C 0.98576 0.64675 0.17476 0.0
C460 C 0.8334 0.53387 0.4022 0.0
C461 C 0.85383 0.55102 0.37212 0.0
C462 C 0.91508 0.55579 0.24342 0.0
C463 C 0.94475 0.62059 0.15463 0.0
C464 C 0.92535 0.60036 0.18802 0.0
C465 C 0.86934 0.54391 0.29994 0.0
C466 C 0.88884 0.56325 0.26218 0.0
H467 H 0.94928 0.67088 0.00573 0.0
H468 H 0.91963 0.63345 0.04856 0.0
H469 H 0.95359 0.56834 0.19449 0.0
H470 H 0.8404 0.48324 0.2559 0.0
H471 H 0.87652 0.5131 0.20449 0.0
C472 C 0.34545 0.00052 0.75876 0.0
C473 C 0.33041 0.00861 0.83086 0.0
C474 C 0.36815 0.01526 0.73281 0.0
C475 C 0.41548 0.06966 0.80355 0.0
H476 H 0.42329 0.08138 0.5552 0.0
C477 C 0.49458 0.14423 0.67422 0.0
C478 C 0.48585 0.16157 0.60891 0.0
C479 C 0.47964 0.1212 0.69516 0.0
C480 C 0.42136 0.07839 0.62476 0.0
H481 H 0.32762 0.03797 0.93384 0.0
H482 H 0.36663 0.06426 0.88703 0.0
H483 H 0.38921 0.04995 0.60832 0.0
H484 H 0.4554 0.16789 0.51133 0.0
H485 H 0.42872 0.12829 0.54985 0.0
H486 H 0.44629 0.09945 0.82041 0.0
C487 C 0.36139 0.04619 0.85155 0.0
C488 C 0.40205 0.06004 0.65528 0.0
C489 C 0.33889 0.03124 0.87814 0.0
C490 C 0.46261 0.15483 0.56192 0.0
C491 C 0.44741 0.132 0.58377 0.0
C492 C 0.43455 0.08824 0.77311 0.0
C493 C 0.37608 0.03859 0.7778 0.0
C494 C 0.39851 0.05586 0.74516 0.0
C495 C 0.4554 0.11527 0.65218 0.0
C496 C 0.43738 0.09322 0.68339 0.0
H497 H 0.33951 0.98295 0.72166 0.0
H498 H 0.37928 0.00854 0.67682 0.0
H499 H 0.41365 0.06658 0.87309 0.0
H500 H 0.51266 0.14882 0.71067 0.0
H501 H 0.48674 0.10843 0.74665 0.0
C502 C 0.80075 0.95034 0.00487 0.0
C503 C 0.79248 0.95204 0.91765 0.0
C504 C 0.82071 0.93268 0.02887 0.0
C505 C 0.87855 0.89817 0.94481 0.0
H506 H 0.86424 0.84567 0.12557 0.0
C507 C 0.94799 0.80941 0.00189 0.0
C508 C 0.95061 0.79955 0.08692 0.0
C509 C 0.92952 0.82916 0.9835 0.0
C510 C 0.86889 0.86049 0.0761 0.0
H511 H 0.79898 0.93693 0.7871 0.0
H512 H 0.83412 0.90665 0.82894 0.0
H513 H 0.83087 0.87872 0.09192 0.0
H514 H 0.93676 0.80336 0.22001 0.0
H515 H 0.90555 0.83846 0.18899 0.0
H516 H 0.91673 0.88056 0.9298 0.0
C517 C 0.82502 0.91878 0.87864 0.0
C518 C 0.84965 0.87934 0.05671 0.0
C519 C 0.80477 0.93598 0.85494 0.0
C520 C 0.93494 0.81031 0.15353 0.0
C521 C 0.91687 0.83035 0.13554 0.0
C522 C 0.898 0.87963 0.96516 0.0
C523 C 0.83311 0.9169 0.96575 0.0
C524 C 0.85419 0.89812 0.99024 0.0
C525 C 0.91361 0.83983 0.05008 0.0
C526 C 0.89333 0.86032 0.03046 0.0
H527 H 0.79163 0.96245 0.05458 0.0
H528 H 0.8267 0.93158 0.0965 0.0
H529 H 0.88258 0.91265 0.8937 0.0
H530 H 0.9597 0.80139 0.94914 0.0
H531 H 0.92733 0.83558 0.91665 0.0
C532 C 0.00912 0.34057 0.25267 0.0
C533 C 0.01019 0.33118 0.16659 0.0
C534 C 0.02369 0.36345 0.27726 0.0
C535 C 0.05989 0.42339 0.19512 0.0
H536 H 0.10379 0.414 0.40028 0.0
C537 C 0.15406 0.48795 0.26727 0.0
C538 C 0.1613 0.49276 0.35428 0.0
C539 C 0.1317 0.47187 0.24751 0.0
C540 C 0.09127 0.41728 0.344 0.0
H541 H 0.02637 0.33902 0.03782 0.0
H542 H 0.05205 0.37906 0.08111 0.0
H543 H 0.07164 0.37914 0.35879 0.0
H544 H 0.1499 0.48602 0.48884 0.0
H545 H 0.11042 0.45839 0.45438 0.0
H546 H 0.07986 0.46145 0.17974 0.0
C547 C 0.0398 0.36873 0.12932 0.0
C548 C 0.07289 0.39722 0.32007 0.0
C549 C 0.02526 0.34574 0.1047 0.0
C550 C 0.14495 0.48238 0.42117 0.0
C551 C 0.12243 0.46646 0.4014 0.0
C552 C 0.07819 0.4436 0.21944 0.0
C553 C 0.03956 0.37747 0.21625 0.0
C554 C 0.05732 0.39988 0.24472 0.0
C555 C 0.11596 0.46044 0.31437 0.0
C556 C 0.09441 0.44056 0.29339 0.0
H557 H -0.00251 0.32991 0.30173 0.0
H558 H 0.02288 0.36994 0.34444 0.0
H559 H 0.0479 0.42604 0.13723 0.0
H560 H 0.16627 0.49572 0.21427 0.0
H561 H 0.12751 0.46741 0.17984 0.0
C562 C 0.57177 0.70206 0.58127 0.0
C563 C 0.54566 0.70197 0.54752 0.0
C564 C 0.58968 0.68263 0.55617 0.0
C565 C 0.60333 0.63097 0.39191 0.0
H566 H 0.64474 0.60081 0.57964 0.0
C567 C 0.69241 0.56239 0.33162 0.0
C568 C 0.69576 0.5406 0.38813 0.0
C569 C 0.67302 0.58127 0.34835 0.0
C570 C 0.63315 0.60879 0.52658 0.0
H571 H 0.51828 0.6821 0.45764 0.0
H572 H 0.54967 0.64789 0.41404 0.0
H573 H 0.61311 0.6356 0.61113 0.0
H574 H 0.68105 0.52147 0.50619 0.0
H575 H 0.64704 0.5544 0.53511 0.0
H576 H 0.6232 0.6038 0.30757 0.0
C577 C 0.55625 0.66315 0.45977 0.0
C578 C 0.61527 0.62901 0.54442 0.0
C579 C 0.53827 0.68272 0.48477 0.0
C580 C 0.67911 0.53807 0.46157 0.0
C581 C 0.65968 0.55699 0.4783 0.0
C582 C 0.62127 0.61072 0.37401 0.0
C583 C 0.58193 0.66253 0.49693 0.0
C584 C 0.60034 0.64053 0.47724 0.0
C585 C 0.65647 0.57885 0.42198 0.0
C586 C 0.63652 0.59953 0.44111 0.0
H587 H 0.57827 0.7168 0.62888 0.0
H588 H 0.60953 0.68314 0.58429 0.0
H589 H 0.59218 0.63948 0.33873 0.0
H590 H 0.70489 0.56503 0.27445 0.0
H591 H 0.67136 0.59807 0.30439 0.0
loop_
_geom_bond_atom_site_label_1
_geom_bond_atom_site_label_2
_geom_bond_distance
_geom_bond_site_symmetry_2
_ccdc_geom_bond_type
C0 O1 1.306 . S
C0 O3 1.160 . S
O1 C0 1.306 . S
O1 Cd2 2.228 . S
Cd2 O1 2.228 . S
Cd2 O6 2.273 . S
Cd2 O10 2.277 . S
O3 C0 1.160 . S
O3 Cd4 2.203 . S
Cd4 O3 2.203 . S
Cd4 O6 2.411 . S
Cd4 O7 2.333 . S
Cd4 O8 2.352 . S
Cd4 O12 2.277 . S
Cd4 O13 2.356 . S
C5 O10 1.209 . S
C5 O12 1.226 . S
O6 Cd2 2.273 . S
O6 Cd4 2.411 . S
O6 C9 1.320 . S
O7 Cd4 2.333 . S
O7 C9 1.214 . S
O8 Cd4 2.352 . S
O8 C11 1.258 . S
C9 O6 1.320 . S
C9 O7 1.214 . S
O10 Cd2 2.277 . S
O10 C5 1.209 . S
C11 O8 1.258 . S
C11 O13 1.282 . S
O12 Cd4 2.277 . S
O12 C5 1.226 . S
O13 Cd4 2.356 . S
O13 C11 1.282 . S
C14 O15 1.306 . S
C14 O17 1.160 . S
O15 C14 1.306 . S
O15 Cd16 2.228 . S
Cd16 O15 2.228 . S
Cd16 O20 2.273 . S
Cd16 O24 2.277 . S
O17 C14 1.160 . S
O17 Cd18 2.203 . S
Cd18 O17 2.203 . S
Cd18 O20 2.411 . S
Cd18 O21 2.333 . S
Cd18 O22 2.352 . S
Cd18 O26 2.277 . S
Cd18 O27 2.356 . S
C19 O24 1.209 . S
C19 O26 1.226 . S
O20 Cd16 2.273 . S
O20 Cd18 2.411 . S
O20 C23 1.320 . S
O21 Cd18 2.333 . S
O21 C23 1.214 . S
O22 Cd18 2.352 . S
O22 C25 1.258 . S
C23 O20 1.320 . S
C23 O21 1.214 . S
O24 Cd16 2.277 . S
O24 C19 1.209 . S
C25 O22 1.258 . S
C25 O27 1.282 . S
O26 Cd18 2.277 . S
O26 C19 1.226 . S
O27 Cd18 2.356 . S
O27 C25 1.282 . S
C28 O29 1.306 . S
C28 O31 1.160 . S
O29 C28 1.306 . S
O29 Cd30 2.228 1_565 S
Cd30 O29 2.228 1_545 S
Cd30 O34 2.273 1_545 S
Cd30 O38 2.277 . S
O31 C28 1.160 . S
O31 Cd32 2.203 . S
Cd32 O31 2.203 . S
Cd32 O34 2.411 . S
Cd32 O35 2.333 1_565 S
Cd32 O36 2.352 . S
Cd32 O40 2.277 . S
Cd32 O41 2.356 1_556 S
C33 O38 1.209 . S
C33 O40 1.226 1_545 S
O34 Cd30 2.273 1_565 S
O34 Cd32 2.411 . S
O34 C37 1.320 1_565 S
O35 Cd32 2.333 1_545 S
O35 C37 1.214 . S
O36 Cd32 2.352 . S
O36 C39 1.258 . S
C37 O34 1.320 1_545 S
C37 O35 1.214 . S
O38 Cd30 2.277 . S
O38 C33 1.209 . S
C39 O36 1.258 . S
C39 O41 1.282 1_556 S
O40 Cd32 2.277 . S
O40 C33 1.226 1_565 S
O41 Cd32 2.356 1_554 S
O41 C39 1.282 1_554 S
C42 O43 1.306 . S
C42 O45 1.160 . S
O43 C42 1.306 . S
O43 Cd44 2.228 1_455 S
Cd44 O43 2.228 1_655 S
Cd44 O48 2.273 1_655 S
Cd44 O52 2.277 . S
O45 C42 1.160 . S
O45 Cd46 2.203 . S
Cd46 O45 2.203 . S
Cd46 O48 2.411 . S
Cd46 O49 2.333 1_455 S
Cd46 O50 2.352 . S
Cd46 O54 2.277 . S
Cd46 O55 2.356 1_554 S
C47 O52 1.209 . S
C47 O54 1.226 1_655 S
O48 Cd44 2.273 1_455 S
O48 Cd46 2.411 . S
O48 C51 1.320 1_455 S
O49 Cd46 2.333 1_655 S
O49 C51 1.214 . S
O50 Cd46 2.352 . S
O50 C53 1.258 . S
C51 O48 1.320 1_655 S
C51 O49 1.214 . S
O52 Cd44 2.277 . S
O52 C47 1.209 . S
C53 O50 1.258 . S
C53 O55 1.282 1_554 S
O54 Cd46 2.277 . S
O54 C47 1.226 1_455 S
O55 Cd46 2.356 1_556 S
O55 C53 1.282 1_556 S
C56 O57 1.306 . S
C56 O59 1.160 . S
O57 C56 1.306 . S
O57 Cd58 2.228 1_545 S
Cd58 O57 2.228 1_565 S
Cd58 O62 2.273 1_565 S
Cd58 O66 2.277 . S
O59 C56 1.160 . S
O59 Cd60 2.203 . S
Cd60 O59 2.203 . S
Cd60 O62 2.411 . S
Cd60 O63 2.333 1_545 S
Cd60 O64 2.352 . S
Cd60 O68 2.277 . S
Cd60 O69 2.356 1_556 S
C61 O66 1.209 . S
C61 O68 1.226 1_565 S
O62 Cd58 2.273 1_545 S
O62 Cd60 2.411 . S
O62 C65 1.320 1_545 S
O63 Cd60 2.333 1_565 S
O63 C65 1.214 . S
O64 Cd60 2.352 . S
O64 C67 1.258 . S
C65 O62 1.320 1_565 S
C65 O63 1.214 . S
O66 Cd58 2.277 . S
O66 C61 1.209 . S
C67 O64 1.258 . S
C67 O69 1.282 1_556 S
O68 Cd60 2.277 . S
O68 C61 1.226 1_545 S
O69 Cd60 2.356 1_554 S
O69 C67 1.282 1_554 S
C70 O71 1.306 . S
C70 O73 1.160 . S
O71 C70 1.306 . S
O71 Cd72 2.228 1_655 S
Cd72 O71 2.228 1_455 S
Cd72 O76 2.273 1_455 S
Cd72 O80 2.277 . S
O73 C70 1.160 . S
O73 Cd74 2.203 . S
Cd74 O73 2.203 . S
Cd74 O76 2.411 . S
Cd74 O77 2.333 1_655 S
Cd74 O78 2.352 . S
Cd74 O82 2.277 . S
Cd74 O83 2.356 1_554 S
C75 O80 1.209 . S
C75 O82 1.226 1_455 S
O76 Cd72 2.273 1_655 S
O76 Cd74 2.411 . S
O76 C79 1.320 1_655 S
O77 Cd74 2.333 1_455 S
O77 C79 1.214 . S
O78 Cd74 2.352 . S
O78 C81 1.258 . S
C79 O76 1.320 1_455 S
C79 O77 1.214 . S
O80 Cd72 2.277 . S
O80 C75 1.209 . S
C81 O78 1.258 . S
C81 O83 1.282 1_554 S
O82 Cd74 2.277 . S
O82 C75 1.226 1_655 S
O83 Cd74 2.356 1_556 S
O83 C81 1.282 1_556 S
C84 O85 1.306 . S
C84 O87 1.160 . S
O85 C84 1.306 . S
O85 Cd86 2.228 . S
Cd86 O85 2.228 . S
Cd86 O90 2.273 . S
Cd86 O94 2.277 . S
O87 C84 1.160 . S
O87 Cd88 2.203 . S
Cd88 O87 2.203 . S
Cd88 O90 2.411 . S
Cd88 O91 2.333 . S
Cd88 O92 2.352 . S
Cd88 O96 2.277 . S
Cd88 O97 2.356 . S
C89 O94 1.209 . S
C89 O96 1.226 . S
O90 Cd86 2.273 . S
O90 Cd88 2.411 . S
O90 C93 1.320 . S
O91 Cd88 2.333 . S
O91 C93 1.214 . S
O92 Cd88 2.352 . S
O92 C95 1.258 . S
C93 O90 1.320 . S
C93 O91 1.214 . S
O94 Cd86 2.277 . S
O94 C89 1.209 . S
C95 O92 1.258 . S
C95 O97 1.282 . S
O96 Cd88 2.277 . S
O96 C89 1.226 . S
O97 Cd88 2.356 . S
O97 C95 1.282 . S
C98 O99 1.306 . S
C98 O101 1.160 . S
O99 C98 1.306 . S
O99 Cd100 2.228 . S
Cd100 O99 2.228 . S
Cd100 O104 2.273 . S
Cd100 O108 2.277 . S
O101 C98 1.160 . S
O101 Cd102 2.203 . S
Cd102 O101 2.203 . S
Cd102 O104 2.411 . S
Cd102 O105 2.333 . S
Cd102 O106 2.352 . S
Cd102 O110 2.277 . S
Cd102 O111 2.356 . S
C103 O108 1.209 . S
C103 O110 1.226 . S
O104 Cd100 2.273 . S
O104 Cd102 2.411 . S
O104 C107 1.320 . S
O105 Cd102 2.333 . S
O105 C107 1.214 . S
O106 Cd102 2.352 . S
O106 C109 1.258 . S
C107 O104 1.320 . S
C107 O105 1.214 . S
O108 Cd100 2.277 . S
O108 C103 1.209 . S
C109 O106 1.258 . S
C109 O111 1.282 . S
O110 Cd102 2.277 . S
O110 C103 1.226 . S
O111 Cd102 2.356 . S
O111 C109 1.282 . S
C112 C113 1.349 . S
C112 C114 1.327 . S
C112 H137 0.950 . S
C113 C112 1.349 . S
C113 C129 1.349 . S
C114 C112 1.327 . S
C114 C133 1.429 . S
C114 H138 0.950 . S
C115 C132 1.574 1_556 S
C115 C134 1.368 . S
C115 H139 0.949 . S
H116 C120 0.949 . S
C117 C118 1.349 . S
C117 C119 1.327 . S
C117 H140 0.950 . S
C118 C117 1.349 . S
C118 C130 1.349 . S
C119 C117 1.327 . S
C119 C135 1.429 . S
C119 H141 0.950 . S
C120 H116 0.949 . S
C120 C128 1.574 1_554 S
C120 C136 1.368 . S
H121 C129 0.950 . S
H122 C127 0.950 . S
H123 C128 0.949 . S
H124 C130 0.950 . S
H125 C131 0.950 . S
H126 C132 0.949 . S
C127 H122 0.950 . S
C127 C129 1.327 . S
C127 C133 1.429 . S
C128 C120 1.574 1_556 S
C128 H123 0.949 . S
C128 C134 1.368 . S
C129 C113 1.349 . S
C129 H121 0.950 . S
C129 C127 1.327 . S
C130 C118 1.349 . S
C130 H124 0.950 . S
C130 C131 1.327 . S
C131 H125 0.950 . S
C131 C130 1.327 . S
C131 C135 1.429 . S
C132 C115 1.574 1_554 S
C132 H126 0.949 . S
C132 C136 1.368 . S
C133 C114 1.429 . S
C133 C127 1.429 . S
C133 C134 1.523 . S
C134 C115 1.368 . S
C134 C128 1.368 . S
C134 C133 1.523 . S
C135 C119 1.429 . S
C135 C131 1.429 . S
C135 C136 1.523 . S
C136 C120 1.368 . S
C136 C132 1.368 . S
C136 C135 1.523 . S
H137 C112 0.950 . S
H138 C114 0.950 . S
H139 C115 0.949 . S
H140 C117 0.950 . S
H141 C119 0.950 . S
C142 C143 1.349 . S
C142 C144 1.327 . S
C142 H167 0.950 . S
C143 C142 1.349 . S
C143 C159 1.349 . S
C144 C142 1.327 . S
C144 C163 1.429 . S
C144 H168 0.950 . S
C145 C162 1.574 . S
C145 C164 1.368 . S
C145 H169 0.949 . S
H146 C150 0.949 . S
C147 C148 1.349 . S
C147 C149 1.327 . S
C147 H170 0.950 . S
C148 C147 1.349 . S
C148 C160 1.349 . S
C149 C147 1.327 . S
C149 C165 1.429 . S
C149 H171 0.950 . S
C150 H146 0.949 . S
C150 C158 1.574 . S
C150 C166 1.368 . S
H151 C159 0.950 . S
H152 C157 0.950 . S
H153 C158 0.949 . S
H154 C160 0.950 1_556 S
H155 C161 0.950 . S
H156 C162 0.949 . S
C157 H152 0.950 . S
C157 C159 1.327 . S
C157 C163 1.429 . S
C158 C150 1.574 . S
C158 H153 0.949 . S
C158 C164 1.368 . S
C159 C143 1.349 . S
C159 H151 0.950 . S
C159 C157 1.327 . S
C160 C148 1.349 . S
C160 H154 0.950 1_554 S
C160 C161 1.327 . S
C161 H155 0.950 . S
C161 C160 1.327 . S
C161 C165 1.429 . S
C162 C145 1.574 . S
C162 H156 0.949 . S
C162 C166 1.368 . S
C163 C144 1.429 . S
C163 C157 1.429 . S
C163 C164 1.523 . S
C164 C145 1.368 . S
C164 C158 1.368 . S
C164 C163 1.523 . S
C165 C149 1.429 . S
C165 C161 1.429 . S
C165 C166 1.523 . S
C166 C150 1.368 . S
C166 C162 1.368 . S
C166 C165 1.523 . S
H167 C142 0.950 . S
H168 C144 0.950 . S
H169 C145 0.949 . S
H170 C147 0.950 . S
H171 C149 0.950 . S
C172 C173 1.349 . S
C172 C174 1.327 . S
C172 H197 0.950 . S
C173 C172 1.349 . S
C173 C189 1.349 . S
C174 C172 1.327 . S
C174 C193 1.429 . S
C174 H198 0.950 . S
C175 C192 1.574 . S
C175 C194 1.368 . S
C175 H199 0.949 . S
H176 C180 0.949 . S
C177 C178 1.349 . S
C177 C179 1.327 . S
C177 H200 0.950 . S
C178 C177 1.349 . S
C178 C190 1.349 . S
C179 C177 1.327 . S
C179 C195 1.429 . S
C179 H201 0.950 . S
C180 H176 0.949 . S
C180 C188 1.574 . S
C180 C196 1.368 . S
H181 C189 0.950 . S
H182 C187 0.950 . S
H183 C188 0.949 . S
H184 C190 0.950 . S
H185 C191 0.950 . S
H186 C192 0.949 . S
C187 H182 0.950 . S
C187 C189 1.327 . S
C187 C193 1.429 . S
C188 C180 1.574 . S
C188 H183 0.949 . S
C188 C194 1.368 . S
C189 C173 1.349 . S
C189 H181 0.950 . S
C189 C187 1.327 . S
C190 C178 1.349 . S
C190 H184 0.950 . S
C190 C191 1.327 . S
C191 H185 0.950 . S
C191 C190 1.327 . S
C191 C195 1.429 . S
C192 C175 1.574 . S
C192 H186 0.949 . S
C192 C196 1.368 . S
C193 C174 1.429 . S
C193 C187 1.429 . S
C193 C194 1.523 . S
C194 C175 1.368 . S
C194 C188 1.368 . S
C194 C193 1.523 . S
C195 C179 1.429 . S
C195 C191 1.429 . S
C195 C196 1.523 . S
C196 C180 1.368 . S
C196 C192 1.368 . S
C196 C195 1.523 . S
H197 C172 0.950 . S
H198 C174 0.950 . S
H199 C175 0.949 . S
H200 C177 0.950 . S
H201 C179 0.950 . S
C202 C203 1.349 . S
C202 C204 1.327 . S
C202 H227 0.950 1_556 S
C203 C202 1.349 . S
C203 C219 1.349 . S
C204 C202 1.327 . S
C204 C223 1.429 . S
C204 H228 0.950 . S
C205 C222 1.574 . S
C205 C224 1.368 . S
C205 H229 0.949 . S
H206 C210 0.949 . S
C207 C208 1.349 . S
C207 C209 1.327 . S
C207 H230 0.950 . S
C208 C207 1.349 . S
C208 C220 1.349 . S
C209 C207 1.327 . S
C209 C225 1.429 . S
C209 H231 0.950 . S
C210 H206 0.949 . S
C210 C218 1.574 . S
C210 C226 1.368 . S
H211 C219 0.950 . S
H212 C217 0.950 . S
H213 C218 0.949 . S
H214 C220 0.950 . S
H215 C221 0.950 . S
H216 C222 0.949 . S
C217 H212 0.950 . S
C217 C219 1.327 . S
C217 C223 1.429 . S
C218 C210 1.574 . S
C218 H213 0.949 . S
C218 C224 1.368 . S
C219 C203 1.349 . S
C219 H211 0.950 . S
C219 C217 1.327 . S
C220 C208 1.349 . S
C220 H214 0.950 . S
C220 C221 1.327 . S
C221 H215 0.950 . S
C221 C220 1.327 . S
C221 C225 1.429 . S
C222 C205 1.574 . S
C222 H216 0.949 . S
C222 C226 1.368 . S
C223 C204 1.429 . S
C223 C217 1.429 . S
C223 C224 1.523 . S
C224 C205 1.368 . S
C224 C218 1.368 . S
C224 C223 1.523 . S
C225 C209 1.429 . S
C225 C221 1.429 . S
C225 C226 1.523 . S
C226 C210 1.368 . S
C226 C222 1.368 . S
C226 C225 1.523 . S
H227 C202 0.950 1_554 S
H228 C204 0.950 . S
H229 C205 0.949 . S
H230 C207 0.950 . S
H231 C209 0.950 . S
C232 C233 1.349 . S
C232 C234 1.327 . S
C232 H257 0.950 . S
C233 C232 1.349 . S
C233 C249 1.349 . S
C234 C232 1.327 . S
C234 C253 1.429 . S
C234 H258 0.950 . S
C235 C252 1.574 . S
C235 C254 1.368 . S
C235 H259 0.949 . S
H236 C240 0.949 . S
C237 C238 1.349 . S
C237 C239 1.327 . S
C237 H260 0.950 . S
C238 C237 1.349 . S
C238 C250 1.349 . S
C239 C237 1.327 . S
C239 C255 1.429 . S
C239 H261 0.950 . S
C240 H236 0.949 . S
C240 C248 1.574 . S
C240 C256 1.368 . S
H241 C249 0.950 . S
H242 C247 0.950 . S
H243 C248 0.949 . S
H244 C250 0.950 . S
H245 C251 0.950 . S
H246 C252 0.949 . S
C247 H242 0.950 . S
C247 C249 1.327 . S
C247 C253 1.429 . S
C248 C240 1.574 . S
C248 H243 0.949 . S
C248 C254 1.368 . S
C249 C233 1.349 . S
C249 H241 0.950 . S
C249 C247 1.327 . S
C250 C238 1.349 . S
C250 H244 0.950 . S
C250 C251 1.327 . S
C251 H245 0.950 . S
C251 C250 1.327 . S
C251 C255 1.429 . S
C252 C235 1.574 . S
C252 H246 0.949 . S
C252 C256 1.368 . S
C253 C234 1.429 . S
C253 C247 1.429 . S
C253 C254 1.523 . S
C254 C235 1.368 . S
C254 C248 1.368 . S
C254 C253 1.523 . S
C255 C239 1.429 . S
C255 C251 1.429 . S
C255 C256 1.523 . S
C256 C240 1.368 . S
C256 C252 1.368 . S
C256 C255 1.523 . S
H257 C232 0.950 . S
H258 C234 0.950 . S
H259 C235 0.949 . S
H260 C237 0.950 . S
H261 C239 0.950 . S
C262 C263 1.349 . S
C262 C264 1.327 . S
C262 H287 0.950 . S
C263 C262 1.349 . S
C263 C279 1.349 . S
C264 C262 1.327 . S
C264 C283 1.429 . S
C264 H288 0.950 . S
C265 C282 1.574 . S
C265 C284 1.368 . S
C265 H289 0.949 . S
H266 C270 0.949 . S
C267 C268 1.349 . S
C267 C269 1.327 . S
C267 H290 0.950 . S
C268 C267 1.349 . S
C268 C280 1.349 . S
C269 C267 1.327 . S
C269 C285 1.429 . S
C269 H291 0.950 . S
C270 H266 0.949 . S
C270 C278 1.574 . S
C270 C286 1.368 . S
H271 C279 0.950 . S
H272 C277 0.950 . S
H273 C278 0.949 . S
H274 C280 0.950 . S
H275 C281 0.950 . S
H276 C282 0.949 . S
C277 H272 0.950 . S
C277 C279 1.327 . S
C277 C283 1.429 . S
C278 C270 1.574 . S
C278 H273 0.949 . S
C278 C284 1.368 . S
C279 C263 1.349 . S
C279 H271 0.950 . S
C279 C277 1.327 . S
C280 C268 1.349 . S
C280 H274 0.950 . S
C280 C281 1.327 . S
C281 H275 0.950 . S
C281 C280 1.327 . S
C281 C285 1.429 . S
C282 C265 1.574 . S
C282 H276 0.949 . S
C282 C286 1.368 . S
C283 C264 1.429 . S
C283 C277 1.429 . S
C283 C284 1.523 . S
C284 C265 1.368 . S
C284 C278 1.368 . S
C284 C283 1.523 . S
C285 C269 1.429 . S
C285 C281 1.429 . S
C285 C286 1.523 . S
C286 C270 1.368 . S
C286 C282 1.368 . S
C286 C285 1.523 . S
H287 C262 0.950 . S
H288 C264 0.950 . S
H289 C265 0.949 . S
H290 C267 0.950 . S
H291 C269 0.950 . S
C292 C293 1.349 . S
C292 C294 1.327 . S
C292 H317 0.950 . S
C293 C292 1.349 . S
C293 C309 1.349 . S
C294 C292 1.327 . S
C294 C313 1.429 . S
C294 H318 0.950 . S
C295 C312 1.574 . S
C295 C314 1.368 1_556 S
C295 H319 0.949 . S
H296 C300 0.949 . S
C297 C298 1.349 . S
C297 C299 1.327 . S
C297 H320 0.950 . S
C298 C297 1.349 . S
C298 C310 1.349 . S
C299 C297 1.327 . S
C299 C315 1.429 . S
C299 H321 0.950 . S
C300 H296 0.949 . S
C300 C308 1.574 . S
C300 C316 1.368 1_554 S
H301 C309 0.950 . S
H302 C307 0.950 . S
H303 C308 0.949 . S
H304 C310 0.950 . S
H305 C311 0.950 . S
H306 C312 0.949 . S
C307 H302 0.950 . S
C307 C309 1.327 . S
C307 C313 1.429 . S
C308 C300 1.574 . S
C308 H303 0.949 . S
C308 C314 1.368 . S
C309 C293 1.349 . S
C309 H301 0.950 . S
C309 C307 1.327 . S
C310 C298 1.349 . S
C310 H304 0.950 . S
C310 C311 1.327 . S
C311 H305 0.950 . S
C311 C310 1.327 . S
C311 C315 1.429 . S
C312 C295 1.574 . S
C312 H306 0.949 . S
C312 C316 1.368 . S
C313 C294 1.429 . S
C313 C307 1.429 . S
C313 C314 1.523 . S
C314 C295 1.368 1_554 S
C314 C308 1.368 . S
C314 C313 1.523 . S
C315 C299 1.429 . S
C315 C311 1.429 . S
C315 C316 1.523 . S
C316 C300 1.368 1_556 S
C316 C312 1.368 . S
C316 C315 1.523 . S
H317 C292 0.950 . S
H318 C294 0.950 . S
H319 C295 0.949 . S
H320 C297 0.950 . S
H321 C299 0.950 . S
C322 C323 1.349 . S
C322 C324 1.327 . S
C322 H347 0.950 . S
C323 C322 1.349 . S
C323 C339 1.349 . S
C324 C322 1.327 . S
C324 C343 1.429 . S
C324 H348 0.950 . S
C325 C342 1.574 . S
C325 C344 1.368 . S
C325 H349 0.949 . S
H326 C330 0.949 . S
C327 C328 1.349 . S
C327 C329 1.327 . S
C327 H350 0.950 . S
C328 C327 1.349 . S
C328 C340 1.349 . S
C329 C327 1.327 . S
C329 C345 1.429 . S
C329 H351 0.950 . S
C330 H326 0.949 . S
C330 C338 1.574 . S
C330 C346 1.368 . S
H331 C339 0.950 1_556 S
H332 C337 0.950 . S
H333 C338 0.949 . S
H334 C340 0.950 . S
H335 C341 0.950 . S
H336 C342 0.949 . S
C337 H332 0.950 . S
C337 C339 1.327 . S
C337 C343 1.429 . S
C338 C330 1.574 . S
C338 H333 0.949 . S
C338 C344 1.368 . S
C339 C323 1.349 . S
C339 H331 0.950 1_554 S
C339 C337 1.327 . S
C340 C328 1.349 . S
C340 H334 0.950 . S
C340 C341 1.327 . S
C341 H335 0.950 . S
C341 C340 1.327 . S
C341 C345 1.429 . S
C342 C325 1.574 . S
C342 H336 0.949 . S
C342 C346 1.368 . S
C343 C324 1.429 . S
C343 C337 1.429 . S
C343 C344 1.523 . S
C344 C325 1.368 . S
C344 C338 1.368 . S
C344 C343 1.523 . S
C345 C329 1.429 . S
C345 C341 1.429 . S
C345 C346 1.523 . S
C346 C330 1.368 . S
C346 C342 1.368 . S
C346 C345 1.523 . S
H347 C322 0.950 . S
H348 C324 0.950 . S
H349 C325 0.949 . S
H350 C327 0.950 . S
H351 C329 0.950 . S
C352 C353 1.349 . S
C352 C354 1.327 . S
C352 H377 0.950 . S
C353 C352 1.349 . S
C353 C369 1.349 . S
C354 C352 1.327 . S
C354 C373 1.429 . S
C354 H378 0.950 . S
C355 C372 1.574 . S
C355 C374 1.368 . S
C355 H379 0.949 . S
H356 C360 0.949 . S
C357 C358 1.349 . S
C357 C359 1.327 . S
C357 H380 0.950 . S
C358 C357 1.349 . S
C358 C370 1.349 . S
C359 C357 1.327 . S
C359 C375 1.429 . S
C359 H381 0.950 . S
C360 H356 0.949 . S
C360 C368 1.574 . S
C360 C376 1.368 . S
H361 C369 0.950 . S
H362 C367 0.950 . S
H363 C368 0.949 . S
H364 C370 0.950 . S
H365 C371 0.950 . S
H366 C372 0.949 . S
C367 H362 0.950 . S
C367 C369 1.327 . S
C367 C373 1.429 . S
C368 C360 1.574 . S
C368 H363 0.949 . S
C368 C374 1.368 . S
C369 C353 1.349 . S
C369 H361 0.950 . S
C369 C367 1.327 . S
C370 C358 1.349 . S
C370 H364 0.950 . S
C370 C371 1.327 . S
C371 H365 0.950 . S
C371 C370 1.327 . S
C371 C375 1.429 . S
C372 C355 1.574 . S
C372 H366 0.949 . S
C372 C376 1.368 . S
C373 C354 1.429 . S
C373 C367 1.429 . S
C373 C374 1.523 . S
C374 C355 1.368 . S
C374 C368 1.368 . S
C374 C373 1.523 . S
C375 C359 1.429 . S
C375 C371 1.429 . S
C375 C376 1.523 . S
C376 C360 1.368 . S
C376 C372 1.368 . S
C376 C375 1.523 . S
H377 C352 0.950 . S
H378 C354 0.950 . S
H379 C355 0.949 . S
H380 C357 0.950 . S
H381 C359 0.950 . S
C382 C383 1.349 . S
C382 C384 1.327 . S
C382 H407 0.950 . S
C383 C382 1.349 . S
C383 C399 1.349 . S
C384 C382 1.327 . S
C384 C403 1.429 . S
C384 H408 0.950 . S
C385 C402 1.574 . S
C385 C404 1.368 . S
C385 H409 0.949 . S
H386 C390 0.949 . S
C387 C388 1.349 . S
C387 C389 1.327 . S
C387 H410 0.950 . S
C388 C387 1.349 . S
C388 C400 1.349 . S
C389 C387 1.327 . S
C389 C405 1.429 . S
C389 H411 0.950 . S
C390 H386 0.949 . S
C390 C398 1.574 . S
C390 C406 1.368 . S
H391 C399 0.950 . S
H392 C397 0.950 . S
H393 C398 0.949 . S
H394 C400 0.950 . S
H395 C401 0.950 . S
H396 C402 0.949 . S
C397 H392 0.950 . S
C397 C399 1.327 . S
C397 C403 1.429 . S
C398 C390 1.574 . S
C398 H393 0.949 . S
C398 C404 1.368 . S
C399 C383 1.349 . S
C399 H391 0.950 . S
C399 C397 1.327 . S
C400 C388 1.349 . S
C400 H394 0.950 . S
C400 C401 1.327 . S
C401 H395 0.950 . S
C401 C400 1.327 . S
C401 C405 1.429 . S
C402 C385 1.574 . S
C402 H396 0.949 . S
C402 C406 1.368 . S
C403 C384 1.429 . S
C403 C397 1.429 . S
C403 C404 1.523 . S
C404 C385 1.368 . S
C404 C398 1.368 . S
C404 C403 1.523 . S
C405 C389 1.429 . S
C405 C401 1.429 . S
C405 C406 1.523 . S
C406 C390 1.368 . S
C406 C402 1.368 . S
C406 C405 1.523 . S
H407 C382 0.950 . S
H408 C384 0.950 . S
H409 C385 0.949 . S
H410 C387 0.950 . S
H411 C389 0.950 . S
C412 C413 1.349 . S
C412 C414 1.327 . S
C412 H437 0.950 . S
C413 C412 1.349 . S
C413 C429 1.349 . S
C414 C412 1.327 . S
C414 C433 1.429 . S
C414 H438 0.950 . S
C415 C432 1.574 . S
C415 C434 1.368 1_556 S
C415 H439 0.949 . S
H416 C420 0.949 . S
C417 C418 1.349 . S
C417 C419 1.327 . S
C417 H440 0.950 . S
C418 C417 1.349 . S
C418 C430 1.349 . S
C419 C417 1.327 . S
C419 C435 1.429 . S
C419 H441 0.950 . S
C420 H416 0.949 . S
C420 C428 1.574 . S
C420 C436 1.368 1_554 S
H421 C429 0.950 1_556 S
H422 C427 0.950 . S
H423 C428 0.949 . S
H424 C430 0.950 1_554 S
H425 C431 0.950 . S
H426 C432 0.949 . S
C427 H422 0.950 . S
C427 C429 1.327 1_556 S
C427 C433 1.429 1_556 S
C428 C420 1.574 . S
C428 H423 0.949 . S
C428 C434 1.368 . S
C429 C413 1.349 . S
C429 H421 0.950 1_554 S
C429 C427 1.327 1_554 S
C430 C418 1.349 . S
C430 H424 0.950 1_556 S
C430 C431 1.327 1_556 S
C431 H425 0.950 . S
C431 C430 1.327 1_554 S
C431 C435 1.429 1_554 S
C432 C415 1.574 . S
C432 H426 0.949 . S
C432 C436 1.368 . S
C433 C414 1.429 . S
C433 C427 1.429 1_554 S
C433 C434 1.523 . S
C434 C415 1.368 1_554 S
C434 C428 1.368 . S
C434 C433 1.523 . S
C435 C419 1.429 . S
C435 C431 1.429 1_556 S
C435 C436 1.523 . S
C436 C420 1.368 1_556 S
C436 C432 1.368 . S
C436 C435 1.523 . S
H437 C412 0.950 . S
H438 C414 0.950 . S
H439 C415 0.949 . S
H440 C417 0.950 . S
H441 C419 0.950 . S
C442 C443 1.349 . S
C442 C444 1.327 . S
C442 H467 0.950 . S
C443 C442 1.349 . S
C443 C459 1.349 . S
C444 C442 1.327 . S
C444 C463 1.429 . S
C444 H468 0.950 . S
C445 C462 1.574 . S
C445 C464 1.368 . S
C445 H469 0.949 . S
H446 C450 0.949 . S
C447 C448 1.349 . S
C447 C449 1.327 . S
C447 H470 0.950 . S
C448 C447 1.349 . S
C448 C460 1.349 . S
C449 C447 1.327 . S
C449 C465 1.429 . S
C449 H471 0.950 . S
C450 H446 0.949 . S
C450 C458 1.574 . S
C450 C466 1.368 . S
H451 C459 0.950 . S
H452 C457 0.950 . S
H453 C458 0.949 . S
H454 C460 0.950 . S
H455 C461 0.950 . S
H456 C462 0.949 . S
C457 H452 0.950 . S
C457 C459 1.327 . S
C457 C463 1.429 . S
C458 C450 1.574 . S
C458 H453 0.949 . S
C458 C464 1.368 . S
C459 C443 1.349 . S
C459 H451 0.950 . S
C459 C457 1.327 . S
C460 C448 1.349 . S
C460 H454 0.950 . S
C460 C461 1.327 . S
C461 H455 0.950 . S
C461 C460 1.327 . S
C461 C465 1.429 . S
C462 C445 1.574 . S
C462 H456 0.949 . S
C462 C466 1.368 . S
C463 C444 1.429 . S
C463 C457 1.429 . S
C463 C464 1.523 . S
C464 C445 1.368 . S
C464 C458 1.368 . S
C464 C463 1.523 . S
C465 C449 1.429 . S
C465 C461 1.429 . S
C465 C466 1.523 . S
C466 C450 1.368 . S
C466 C462 1.368 . S
C466 C465 1.523 . S
H467 C442 0.950 . S
H468 C444 0.950 . S
H469 C445 0.949 . S
H470 C447 0.950 . S
H471 C449 0.950 . S
C472 C473 1.349 . S
C472 C474 1.327 . S
C472 H497 0.950 . S
C473 C472 1.349 . S
C473 C489 1.349 . S
C474 C472 1.327 . S
C474 C493 1.429 . S
C474 H498 0.950 . S
C475 C492 1.574 . S
C475 C494 1.368 . S
C475 H499 0.949 . S
H476 C480 0.949 . S
C477 C478 1.349 . S
C477 C479 1.327 . S
C477 H500 0.950 . S
C478 C477 1.349 . S
C478 C490 1.349 . S
C479 C477 1.327 . S
C479 C495 1.429 . S
C479 H501 0.950 . S
C480 H476 0.949 . S
C480 C488 1.574 . S
C480 C496 1.368 . S
H481 C489 0.950 . S
H482 C487 0.950 . S
H483 C488 0.949 . S
H484 C490 0.950 . S
H485 C491 0.950 . S
H486 C492 0.949 . S
C487 H482 0.950 . S
C487 C489 1.327 . S
C487 C493 1.429 . S
C488 C480 1.574 . S
C488 H483 0.949 . S
C488 C494 1.368 . S
C489 C473 1.349 . S
C489 H481 0.950 . S
C489 C487 1.327 . S
C490 C478 1.349 . S
C490 H484 0.950 . S
C490 C491 1.327 . S
C491 H485 0.950 . S
C491 C490 1.327 . S
C491 C495 1.429 . S
C492 C475 1.574 . S
C492 H486 0.949 . S
C492 C496 1.368 . S
C493 C474 1.429 . S
C493 C487 1.429 . S
C493 C494 1.523 . S
C494 C475 1.368 . S
C494 C488 1.368 . S
C494 C493 1.523 . S
C495 C479 1.429 . S
C495 C491 1.429 . S
C495 C496 1.523 . S
C496 C480 1.368 . S
C496 C492 1.368 . S
C496 C495 1.523 . S
H497 C472 0.950 . S
H498 C474 0.950 . S
H499 C475 0.949 . S
H500 C477 0.950 . S
H501 C479 0.950 . S
C502 C503 1.349 1_554 S
C502 C504 1.327 . S
C502 H527 0.950 . S
C503 C502 1.349 1_556 S
C503 C519 1.349 . S
C504 C502 1.327 . S
C504 C523 1.429 1_554 S
C504 H528 0.950 . S
C505 C522 1.574 . S
C505 C524 1.368 . S
C505 H529 0.949 . S
H506 C510 0.949 . S
C507 C508 1.349 1_556 S
C507 C509 1.327 . S
C507 H530 0.950 . S
C508 C507 1.349 1_554 S
C508 C520 1.349 . S
C509 C507 1.327 . S
C509 C525 1.429 1_556 S
C509 H531 0.950 . S
C510 H506 0.949 . S
C510 C518 1.574 . S
C510 C526 1.368 . S
H511 C519 0.950 . S
H512 C517 0.950 . S
H513 C518 0.949 . S
H514 C520 0.950 . S
H515 C521 0.950 . S
H516 C522 0.949 . S
C517 H512 0.950 . S
C517 C519 1.327 . S
C517 C523 1.429 . S
C518 C510 1.574 . S
C518 H513 0.949 . S
C518 C524 1.368 1_554 S
C519 C503 1.349 . S
C519 H511 0.950 . S
C519 C517 1.327 . S
C520 C508 1.349 . S
C520 H514 0.950 . S
C520 C521 1.327 . S
C521 H515 0.950 . S
C521 C520 1.327 . S
C521 C525 1.429 . S
C522 C505 1.574 . S
C522 H516 0.949 . S
C522 C526 1.368 1_556 S
C523 C504 1.429 1_556 S
C523 C517 1.429 . S
C523 C524 1.523 . S
C524 C505 1.368 . S
C524 C518 1.368 1_556 S
C524 C523 1.523 . S
C525 C509 1.429 1_554 S
C525 C521 1.429 . S
C525 C526 1.523 . S
C526 C510 1.368 . S
C526 C522 1.368 1_554 S
C526 C525 1.523 . S
H527 C502 0.950 . S
H528 C504 0.950 . S
H529 C505 0.949 . S
H530 C507 0.950 . S
H531 C509 0.950 . S
C532 C533 1.349 . S
C532 C534 1.327 . S
C532 H557 0.950 . S
C533 C532 1.349 . S
C533 C549 1.349 . S
C534 C532 1.327 . S
C534 C553 1.429 . S
C534 H558 0.950 . S
C535 C552 1.574 . S
C535 C554 1.368 . S
C535 H559 0.949 . S
H536 C540 0.949 . S
C537 C538 1.349 . S
C537 C539 1.327 . S
C537 H560 0.950 . S
C538 C537 1.349 . S
C538 C550 1.349 . S
C539 C537 1.327 . S
C539 C555 1.429 . S
C539 H561 0.950 . S
C540 H536 0.949 . S
C540 C548 1.574 . S
C540 C556 1.368 . S
H541 C549 0.950 . S
H542 C547 0.950 . S
H543 C548 0.949 . S
H544 C550 0.950 . S
H545 C551 0.950 . S
H546 C552 0.949 . S
C547 H542 0.950 . S
C547 C549 1.327 . S
C547 C553 1.429 . S
C548 C540 1.574 . S
C548 H543 0.949 . S
C548 C554 1.368 . S
C549 C533 1.349 . S
C549 H541 0.950 . S
C549 C547 1.327 . S
C550 C538 1.349 . S
C550 H544 0.950 . S
C550 C551 1.327 . S
C551 H545 0.950 . S
C551 C550 1.327 . S
C551 C555 1.429 . S
C552 C535 1.574 . S
C552 H546 0.949 . S
C552 C556 1.368 . S
C553 C534 1.429 . S
C553 C547 1.429 . S
C553 C554 1.523 . S
C554 C535 1.368 . S
C554 C548 1.368 . S
C554 C553 1.523 . S
C555 C539 1.429 . S
C555 C551 1.429 . S
C555 C556 1.523 . S
C556 C540 1.368 . S
C556 C552 1.368 . S
C556 C555 1.523 . S
H557 C532 0.950 . S
H558 C534 0.950 . S
H559 C535 0.949 . S
H560 C537 0.950 . S
H561 C539 0.950 . S
C562 C563 1.349 . S
C562 C564 1.327 . S
C562 H587 0.950 . S
C563 C562 1.349 . S
C563 C579 1.349 . S
C564 C562 1.327 . S
C564 C583 1.429 . S
C564 H588 0.950 . S
C565 C582 1.574 . S
C565 C584 1.368 . S
C565 H589 0.949 . S
H566 C570 0.949 . S
C567 C568 1.349 . S
C567 C569 1.327 . S
C567 H590 0.950 . S
C568 C567 1.349 . S
C568 C580 1.349 . S
C569 C567 1.327 . S
C569 C585 1.429 . S
C569 H591 0.950 . S
C570 H566 0.949 . S
C570 C578 1.574 . S
C570 C586 1.368 . S
H571 C579 0.950 . S
H572 C577 0.950 . S
H573 C578 0.949 . S
H574 C580 0.950 . S
H575 C581 0.950 . S
H576 C582 0.949 . S
C577 H572 0.950 . S
C577 C579 1.327 . S
C577 C583 1.429 . S
C578 C570 1.574 . S
C578 H573 0.949 . S
C578 C584 1.368 . S
C579 C563 1.349 . S
C579 H571 0.950 . S
C579 C577 1.327 . S
C580 C568 1.349 . S
C580 H574 0.950 . S
C580 C581 1.327 . S
C581 H575 0.950 . S
C581 C580 1.327 . S
C581 C585 1.429 . S
C582 C565 1.574 . S
C582 H576 0.949 . S
C582 C586 1.368 . S
C583 C564 1.429 . S
C583 C577 1.429 . S
C583 C584 1.523 . S
C584 C565 1.368 . S
C584 C578 1.368 . S
C584 C583 1.523 . S
C585 C569 1.429 . S
C585 C581 1.429 . S
C585 C586 1.523 . S
C586 C570 1.368 . S
C586 C582 1.368 . S
C586 C585 1.523 . S
H587 C562 0.950 . S
H588 C564 0.950 . S
H589 C565 0.949 . S
H590 C567 0.950 . S
H591 C569 0.950 . S
C113 C14 1.423 . S
C118 C0 1.423 . S
C143 C25 1.413 . S
C148 C39 1.413 1_554 S
C173 C42 1.423 . S
C178 C28 1.423 . S
C203 C53 1.413 1_556 S
C208 C11 1.413 . S
C233 C56 1.423 . S
C238 C70 1.423 . S
C263 C81 1.413 1_556 S
C268 C95 1.413 . S
C293 C84 1.423 . S
C298 C98 1.423 . S
C323 C67 1.413 1_554 S
C328 C109 1.413 . S
C353 C5 1.437 . S
C358 C103 1.437 . S
C383 C65 1.451 . S
C388 C23 1.451 . S
C413 C75 1.437 . S
C418 C33 1.437 . S
C443 C51 1.451 . S
C448 C93 1.451 . S
C473 C37 1.451 . S
C478 C107 1.451 . S
C503 C61 1.437 . S
C508 C47 1.437 . S
C533 C79 1.451 . S
C538 C9 1.451 . S
C563 C19 1.437 . S
C568 C89 1.437 . S
