# Generated by pormake.
# Topology umy, (4)-cn, num edge types: 1
# Building blocks:
#     Node 0, Type 0, BuildingBlock: GALJAG_clean_sbu_0, # of connection points: 4
#     Node 1, Type 0, BuildingBlock: GALJAG_clean_sbu_0, # of connection points: 4
#     Node 2, Type 0, BuildingBlock: GALJAG_clean_sbu_0, # of connection points: 4
#     Node 3, Type 0, BuildingBlock: GALJAG_clean_sbu_0, # of connection points: 4
#     Node 4, Type 0, BuildingBlock: GALJAG_clean_sbu_0, # of connection points: 4
#     Node 5, Type 0, BuildingBlock: GALJAG_clean_sbu_0, # of connection points: 4
#     Node 6, Type 0, BuildingBlock: GALJAG_clean_sbu_0, # of connection points: 4
#     Node 7, Type 0, BuildingBlock: GALJAG_clean_sbu_0, # of connection points: 4
#     Node 8, Type 0, BuildingBlock: GALJAG_clean_sbu_0, # of connection points: 4
#     Node 9, Type 0, BuildingBlock: GALJAG_clean_sbu_0, # of connection points: 4
#     Node 10, Type 0, BuildingBlock: GALJAG_clean_sbu_0, # of connection points: 4
#     Node 11, Type 0, BuildingBlock: GALJAG_clean_sbu_0, # of connection points: 4
#     Edge 12, Type (0, 0), BuildingBlock: XUDNAN_clean_linker_2, # of connection points: 2
#     Edge 13, Type (0, 0), BuildingBlock: XUDNAN_clean_linker_2, # of connection points: 2
#     Edge 14, Type (0, 0), BuildingBlock: XUDNAN_clean_linker_2, # of connection points: 2
#     Edge 15, Type (0, 0), BuildingBlock: XUDNAN_clean_linker_2, # of connection points: 2
#     Edge 16, Type (0, 0), BuildingBlock: XUDNAN_clean_linker_2, # of connection points: 2
#     Edge 17, Type (0, 0), BuildingBlock: XUDNAN_clean_linker_2, # of connection points: 2
#     Edge 18, Type (0, 0), BuildingBlock: XUDNAN_clean_linker_2, # of connection points: 2
#     Edge 19, Type (0, 0), BuildingBlock: XUDNAN_clean_linker_2, # of connection points: 2
#     Edge 20, Type (0, 0), BuildingBlock: XUDNAN_clean_linker_2, # of connection points: 2
#     Edge 21, Type (0, 0), BuildingBlock: XUDNAN_clean_linker_2, # of connection points: 2
#     Edge 22, Type (0, 0), BuildingBlock: XUDNAN_clean_linker_2, # of connection points: 2
#     Edge 23, Type (0, 0), BuildingBlock: XUDNAN_clean_linker_2, # of connection points: 2
#     Edge 24, Type (0, 0), BuildingBlock: XUDNAN_clean_linker_2, # of connection points: 2
#     Edge 25, Type (0, 0), BuildingBlock: XUDNAN_clean_linker_2, # of connection points: 2
#     Edge 26, Type (0, 0), BuildingBlock: XUDNAN_clean_linker_2, # of connection points: 2
#     Edge 27, Type (0, 0), BuildingBlock: XUDNAN_clean_linker_2, # of connection points: 2
#     Edge 28, Type (0, 0), BuildingBlock: XUDNAN_clean_linker_2, # of connection points: 2
#     Edge 29, Type (0, 0), BuildingBlock: XUDNAN_clean_linker_2, # of connection points: 2
#     Edge 30, Type (0, 0), BuildingBlock: XUDNAN_clean_linker_2, # of connection points: 2
#     Edge 31, Type (0, 0), BuildingBlock: XUDNAN_clean_linker_2, # of connection points: 2
#     Edge 32, Type (0, 0), BuildingBlock: XUDNAN_clean_linker_2, # of connection points: 2
#     Edge 33, Type (0, 0), BuildingBlock: XUDNAN_clean_linker_2, # of connection points: 2
#     Edge 34, Type (0, 0), BuildingBlock: XUDNAN_clean_linker_2, # of connection points: 2
#     Edge 35, Type (0, 0), BuildingBlock: XUDNAN_clean_linker_2, # of connection points: 2
# Relax obj value: 0.077
# Max RMSD: 0.075
# Mean RMSD: 0.075
data_MOF--net-umy--node1-GALJAG_clean_sbu_0--edge1-XUDNAN_clean_linker_2
_symmetry_space_group_name_H-M    P1
_symmetry_Int_Tables_number       1
_symmetry_cell_setting            triclinic
loop_
_symmetry_equiv_pos_as_xyz
'x, y, z'
_cell_length_a     35.165959
_cell_length_b     35.139643
_cell_length_c     59.877127
_cell_angle_alpha  90.075015
_cell_angle_beta   89.907596
_cell_angle_gamma 120.07069
loop_
_atom_site_label
_atom_site_type_symbol
_atom_site_fract_x
_atom_site_fract_y
_atom_site_fract_z
_atom_type_partial_charge
In0 In 0.06574 0.34041 0.14281 0.0
O1 O 0.0541 0.28779 0.11645 0.0
O2 O 0.11634 0.34608 0.11745 0.0
C3 C 0.9925 0.29668 0.16786 0.0
C4 C 0.05157 0.39931 0.12121 0.0
C5 C 0.12318 0.36179 0.1769 0.0
O6 O 0.00848 0.27674 0.15728 0.0
O7 O 0.01301 0.33786 0.16541 0.0
O8 O 0.11836 0.39015 0.16638 0.0
O9 O 0.10006 0.32298 0.16981 0.0
C10 C 0.09202 0.30972 0.10806 0.0
O11 O 0.08736 0.40998 0.13096 0.0
O12 O 0.02319 0.35893 0.12214 0.0
In13 In 0.71145 0.0707 0.3119 0.0
O14 O 0.65476 0.08195 0.30398 0.0
O15 O 0.65271 0.02541 0.28984 0.0
C16 C 0.74013 0.11742 0.35001 0.0
C17 C 0.76739 0.12292 0.2798 0.0
C18 C 0.70482 0.99753 0.33 0.0
O19 O 0.70193 0.10404 0.34254 0.0
O20 O 0.76382 0.10801 0.33804 0.0
O21 O 0.73408 0.02033 0.31575 0.0
O22 O 0.67801 0.01057 0.33415 0.0
C23 C 0.63465 0.04853 0.29167 0.0
O24 O 0.75875 0.08367 0.28233 0.0
O25 O 0.74838 0.13516 0.29344 0.0
In26 In 0.65911 0.72903 0.47825 0.0
O27 O 0.59138 0.67253 0.46834 0.0
O28 O 0.64727 0.6761 0.45263 0.0
C29 C 0.62544 0.7445 0.51551 0.0
C30 C 0.67954 0.78756 0.4448 0.0
C31 C 0.72682 0.72855 0.49926 0.0
O32 O 0.61763 0.70667 0.50987 0.0
O33 O 0.64882 0.77458 0.50182 0.0
O34 O 0.72949 0.76313 0.49148 0.0
O35 O 0.69064 0.69403 0.4957 0.0
C36 C 0.60599 0.65624 0.45429 0.0
O37 O 0.70364 0.77192 0.4502 0.0
O38 O 0.64549 0.77451 0.45667 0.0
In39 In 0.93557 0.65629 0.64478 0.0
O40 O 0.92593 0.58807 0.63759 0.0
O41 O 0.96339 0.63966 0.61451 0.0
C42 C 0.88197 0.63212 0.68079 0.0
C43 C 0.90103 0.68501 0.61326 0.0
C44 C 0.01345 0.70762 0.66529 0.0
O45 O 0.88587 0.60438 0.66907 0.0
O46 O 0.90398 0.67117 0.67397 0.0
O47 O 0.98787 0.72147 0.66 0.0
O48 O 0.00039 0.66837 0.65974 0.0
C49 C 0.9475 0.59962 0.61953 0.0
O50 O 0.94038 0.70735 0.61968 0.0
O51 O 0.87885 0.64854 0.62304 0.0
In52 In 0.28323 0.92274 0.81451 0.0
O53 O 0.22616 0.90513 0.78969 0.0
O54 O 0.26809 0.87909 0.78416 0.0
C55 C 0.2764 0.99194 0.8292 0.0
C56 C 0.36714 0.94819 0.80324 0.0
C57 C 0.25813 0.86926 0.85034 0.0
O58 O 0.25597 0.95441 0.83807 0.0
O59 O 0.2987 0.99414 0.81219 0.0
O60 O 0.2913 0.90747 0.85068 0.0
O61 O 0.23823 0.85776 0.83189 0.0
C62 C 0.23537 0.88134 0.77764 0.0
O63 O 0.34149 0.9113 0.81184 0.0
O64 O 0.35128 0.97321 0.80135 0.0
In65 In 0.33122 0.27244 0.97141 0.0
O66 O 0.39731 0.3359 0.96749 0.0
O67 O 0.3429 0.32878 0.94852 0.0
C68 C 0.36761 0.2531 0.00645 0.0
C69 C 0.31524 0.21912 0.93559 0.0
C70 C 0.25903 0.26989 0.98897 0.0
O71 O 0.35051 0.27696 0.00803 0.0
O72 O 0.36799 0.23992 0.98691 0.0
O73 O 0.25797 0.23611 0.98099 0.0
O74 O 0.29548 0.30477 0.98688 0.0
C75 C 0.38324 0.35222 0.95312 0.0
O76 O 0.29176 0.20599 0.95299 0.0
O77 O 0.34621 0.25831 0.93648 0.0
In78 In 0.65933 0.93058 0.69455 0.0
O79 O 0.70524 0.93874 0.72365 0.0
O80 O 0.64768 0.87651 0.71889 0.0
C81 C 0.7271 0.99664 0.67247 0.0
C82 C 0.60309 0.95042 0.71543 0.0
C83 C 0.629 0.87373 0.65972 0.0
O84 O 0.73178 0.96925 0.68408 0.0
O85 O 0.68884 0.99125 0.67259 0.0
O86 O 0.62627 0.90813 0.66031 0.0
O87 O 0.64605 0.86747 0.67678 0.0
C88 C 0.6816 0.89965 0.73042 0.0
O89 O 0.59087 0.91347 0.70664 0.0
O90 O 0.64335 0.97787 0.7131 0.0
In91 In 0.7128 0.64768 0.86052 0.0
O92 O 0.76201 0.68392 0.88868 0.0
O93 O 0.74239 0.61684 0.88257 0.0
C94 C 0.70749 0.71718 0.84522 0.0
C95 C 0.63168 0.59476 0.87732 0.0
C96 C 0.7455 0.62691 0.82448 0.0
O97 O 0.73846 0.72183 0.85769 0.0
O98 O 0.67858 0.67781 0.84152 0.0
O99 O 0.71326 0.59817 0.83546 0.0
O100 O 0.76161 0.66538 0.83201 0.0
C101 C 0.76508 0.65086 0.89418 0.0
O102 O 0.64095 0.59431 0.85699 0.0
O103 O 0.66305 0.62237 0.88918 0.0
In104 In 0.06233 0.72199 0.02833 0.0
O105 O 0.0558 0.76925 0.05261 0.0
O106 O 0.11485 0.76682 0.053 0.0
C107 C 0.986 0.70086 0.00753 0.0
C108 C 0.05096 0.65148 0.05154 0.0
C109 C 0.11391 0.74155 0.99165 0.0
O110 O 0.01711 0.74016 0.00884 0.0
O111 O 0.99319 0.67329 0.01719 0.0
O112 O 0.08903 0.70274 0.99826 0.0
O113 O 0.11355 0.77073 0.00377 0.0
C114 C 0.09331 0.78332 0.06115 0.0
O115 O 0.08569 0.67559 0.04065 0.0
O116 O 0.02268 0.66354 0.05107 0.0
In117 In 0.34606 0.07932 0.18813 0.0
O118 O 0.41328 0.09155 0.19838 0.0
O119 O 0.35812 0.02956 0.20691 0.0
C120 C 0.37491 0.12786 0.15024 0.0
C121 C 0.33921 0.1212 0.22455 0.0
C122 C 0.27482 0.00978 0.17013 0.0
O123 O 0.38645 0.10069 0.15599 0.0
O124 O 0.34972 0.13166 0.16393 0.0
O125 O 0.27297 0.0416 0.17886 0.0
O126 O 0.3119 0.01247 0.17137 0.0
C127 C 0.39925 0.05478 0.20776 0.0
O128 O 0.30682 0.0862 0.21729 0.0
O129 O 0.37368 0.13544 0.21304 0.0
In130 In 0.28574 0.34885 0.35903 0.0
O131 O 0.23981 0.31206 0.38865 0.0
O132 O 0.2495 0.37477 0.3796 0.0
C133 C 0.2989 0.28248 0.3457 0.0
C134 C 0.3644 0.41094 0.37456 0.0
C135 C 0.2574 0.36868 0.3212 0.0
O136 O 0.26141 0.27887 0.34584 0.0
O137 O 0.32885 0.3181 0.3537 0.0
O138 O 0.2903 0.39715 0.33189 0.0
O139 O 0.23845 0.33102 0.32989 0.0
C140 C 0.23175 0.3426 0.39281 0.0
O141 O 0.35551 0.40594 0.35393 0.0
O142 O 0.33399 0.38415 0.38724 0.0
In143 In 0.94137 0.27749 0.52746 0.0
O144 O 0.94914 0.34512 0.522 0.0
O145 O 0.94514 0.32349 0.55554 0.0
C146 C 0.88625 0.24567 0.49212 0.0
C147 C 0.9094 0.21745 0.5608 0.0
C148 C 0.0213 0.2989 0.51077 0.0
O149 O 0.8818 0.26812 0.50725 0.0
O150 O 0.91786 0.23897 0.49501 0.0
O151 O 0.9897 0.25985 0.51124 0.0
O152 O 0.01325 0.32653 0.51981 0.0
C153 C 0.94898 0.35344 0.5425 0.0
O154 O 0.95007 0.24075 0.55699 0.0
O155 O 0.88537 0.22429 0.54777 0.0
H156 H 0.11145 0.62873 0.06497 0.0
H157 H 0.97157 0.58229 0.06329 0.0
H158 H 0.95651 0.51209 0.08031 0.0
H159 H 0.10558 0.52626 0.05264 0.0
H160 H 0.14876 0.53472 0.0717 0.0
H161 H 0.14873 0.58126 0.05916 0.0
H162 H 0.15116 0.61361 0.0984 0.0
H163 H 0.15147 0.5673 0.11106 0.0
H164 H 0.1099 0.58059 0.11877 0.0
H165 H 0.95641 0.44578 0.09561 0.0
H166 H 0.97164 0.39029 0.11204 0.0
H167 H 0.11169 0.48153 0.10625 0.0
C168 C 0.07771 0.60377 0.06825 0.0
C169 C 0.04262 0.61071 0.06277 0.0
C170 C 0.99889 0.57757 0.06746 0.0
C171 C 0.99001 0.53757 0.07701 0.0
C172 C 0.02528 0.53156 0.08207 0.0
C173 C 0.06829 0.56393 0.07819 0.0
C174 C 0.10017 0.54954 0.08586 0.0
C175 C 0.12741 0.54784 0.06616 0.0
C176 C 0.12992 0.57954 0.10464 0.0
C177 C 0.06833 0.50389 0.09448 0.0
C178 C 0.02528 0.49399 0.09188 0.0
C179 C 0.98998 0.45325 0.09793 0.0
C180 C 0.99892 0.42193 0.10714 0.0
C181 C 0.04278 0.43183 0.11049 0.0
C182 C 0.07785 0.47331 0.10403 0.0
H183 H 0.61104 0.10754 0.27839 0.0
H184 H 0.56895 0.96861 0.27678 0.0
H185 H 0.50227 0.95396 0.25565 0.0
H186 H 0.50472 0.09797 0.28372 0.0
H187 H 0.51815 0.14369 0.26541 0.0
H188 H 0.56074 0.14228 0.28142 0.0
H189 H 0.60444 0.15085 0.24504 0.0
H190 H 0.56198 0.15223 0.22892 0.0
H191 H 0.5783 0.11232 0.22251 0.0
H192 H 0.43878 0.95515 0.23564 0.0
H193 H 0.38795 0.97283 0.21543 0.0
H194 H 0.47649 0.11162 0.22761 0.0
C195 C 0.58753 0.07396 0.27378 0.0
C196 C 0.59458 0.03905 0.27941 0.0
C197 C 0.5638 0.9957 0.27267 0.0
C198 C 0.52591 0.98713 0.26075 0.0
C199 C 0.51996 0.02244 0.25539 0.0
C200 C 0.5503 0.06506 0.26147 0.0
C201 C 0.53781 0.0976 0.25268 0.0
C202 C 0.52987 0.1218 0.27196 0.0
C203 C 0.5727 0.13016 0.23632 0.0
C204 C 0.4955 0.06671 0.24079 0.0
C205 C 0.48529 0.0234 0.24277 0.0
C206 C 0.44671 0.98898 0.2338 0.0
C207 C 0.41807 0.99925 0.22241 0.0
C208 C 0.42877 0.04353 0.21978 0.0
C209 C 0.46796 0.07751 0.22907 0.0
H210 H 0.51977 0.59474 0.46164 0.0
H211 H 0.62691 0.63295 0.41466 0.0
H212 H 0.57723 0.5728 0.38935 0.0
H213 H 0.47092 0.47619 0.4529 0.0
H214 H 0.41552 0.46584 0.45591 0.0
H215 H 0.45988 0.51128 0.47045 0.0
H216 H 0.43827 0.56469 0.45229 0.0
H217 H 0.394 0.51948 0.43763 0.0
H218 H 0.43489 0.56634 0.42229 0.0
H219 H 0.51408 0.51272 0.36777 0.0
H220 H 0.44369 0.45229 0.35314 0.0
H221 H 0.37957 0.44982 0.41549 0.0
C222 C 0.53279 0.59017 0.4461 0.0
C223 C 0.57704 0.61846 0.44001 0.0
C224 C 0.59308 0.61145 0.41963 0.0
C225 C 0.56512 0.57749 0.40514 0.0
C226 C 0.52147 0.55043 0.41151 0.0
C227 C 0.50557 0.55592 0.43166 0.0
C228 C 0.45742 0.52218 0.4346 0.0
C229 C 0.45055 0.49209 0.45465 0.0
C230 C 0.42952 0.54452 0.43683 0.0
C231 C 0.44849 0.49742 0.41276 0.0
C232 C 0.48576 0.51441 0.39958 0.0
C233 C 0.48487 0.49866 0.37808 0.0
C234 C 0.44482 0.46452 0.36989 0.0
C235 C 0.40657 0.4462 0.38332 0.0
C236 C 0.4086 0.46273 0.40505 0.0
H237 H 0.92663 0.51477 0.6289 0.0
H238 H 0.98019 0.61462 0.57716 0.0
H239 H 0.98706 0.56267 0.55203 0.0
H240 H 0.99675 0.46873 0.61717 0.0
H241 H 0.95433 0.41301 0.62288 0.0
H242 H 0.95378 0.45812 0.6369 0.0
H243 H 0.87471 0.43072 0.62258 0.0
H244 H 0.87506 0.38559 0.60848 0.0
H245 H 0.86368 0.42275 0.59304 0.0
H246 H 0.98494 0.49918 0.53193 0.0
H247 H 0.97798 0.42925 0.51886 0.0
H248 H 0.92902 0.37144 0.58408 0.0
C249 C 0.93994 0.52569 0.6123 0.0
C250 C 0.95282 0.56867 0.60494 0.0
C251 C 0.97021 0.58185 0.58315 0.0
C252 C 0.97417 0.55257 0.56874 0.0
C253 C 0.96097 0.51037 0.57644 0.0
C254 C 0.94456 0.497 0.59776 0.0
C255 C 0.93304 0.44986 0.6019 0.0
C256 C 0.96117 0.4473 0.62083 0.0
C257 C 0.88369 0.42051 0.60678 0.0
C258 C 0.94523 0.43878 0.57952 0.0
C259 C 0.96102 0.47409 0.56504 0.0
C260 C 0.97298 0.4714 0.54316 0.0
C261 C 0.96881 0.43156 0.53588 0.0
C262 C 0.95325 0.39515 0.5505 0.0
C263 C 0.94147 0.39895 0.57262 0.0
H264 H 0.52555 0.89095 0.73481 0.0
H265 H 0.61412 0.03095 0.72631 0.0
H266 H 0.56501 0.04637 0.74954 0.0
H267 H 0.42466 0.8923 0.73337 0.0
H268 H 0.39864 0.85068 0.75458 0.0
H269 H 0.44059 0.85129 0.73707 0.0
H270 H 0.48471 0.85411 0.77231 0.0
H271 H 0.44305 0.85395 0.78992 0.0
H272 H 0.4994 0.89734 0.79252 0.0
H273 H 0.50376 0.04587 0.77213 0.0
H274 H 0.43655 0.02949 0.79322 0.0
H275 H 0.39186 0.8901 0.78923 0.0
C276 C 0.53444 0.92484 0.73772 0.0
C277 C 0.5733 0.95982 0.72863 0.0
C278 C 0.58431 0.00374 0.73309 0.0
C279 C 0.55671 0.01277 0.74628 0.0
C280 C 0.51871 0.97748 0.75515 0.0
C281 C 0.50778 0.93441 0.75118 0.0
C282 C 0.46554 0.90241 0.76291 0.0
C283 C 0.43028 0.87242 0.74597 0.0
C284 C 0.47369 0.87537 0.78046 0.0
C285 C 0.45396 0.93414 0.77382 0.0
C286 C 0.48489 0.97731 0.76909 0.0
C287 C 0.47968 0.01224 0.77622 0.0
C288 C 0.44154 0.00268 0.78819 0.0
C289 C 0.40956 0.95865 0.79315 0.0
C290 C 0.41633 0.92414 0.78616 0.0
H291 H 0.4682 0.41469 0.96324 0.0
H292 H 0.36456 0.38092 0.9147 0.0
H293 H 0.41569 0.44366 0.89129 0.0
H294 H 0.52016 0.5362 0.9563 0.0
H295 H 0.57474 0.54462 0.95985 0.0
H296 H 0.52884 0.49955 0.97381 0.0
H297 H 0.54912 0.44504 0.9557 0.0
H298 H 0.59482 0.4898 0.9416 0.0
H299 H 0.55372 0.44403 0.92573 0.0
H300 H 0.48029 0.5027 0.87073 0.0
H301 H 0.55274 0.55915 0.8561 0.0
H302 H 0.61329 0.55879 0.91904 0.0
C303 C 0.45609 0.42111 0.94791 0.0
C304 C 0.41246 0.393 0.94077 0.0
C305 C 0.3978 0.40222 0.92056 0.0
C306 C 0.4266 0.43774 0.90713 0.0
C307 C 0.46971 0.46425 0.91437 0.0
C308 C 0.48424 0.45694 0.93448 0.0
C309 C 0.53263 0.48945 0.93797 0.0
C310 C 0.53948 0.51922 0.95818 0.0
C311 C 0.55911 0.46565 0.94038 0.0
C312 C 0.54336 0.51506 0.91631 0.0
C313 C 0.50659 0.49995 0.90292 0.0
C314 C 0.5091 0.5156 0.88126 0.0
C315 C 0.5503 0.54745 0.87306 0.0
C316 C 0.58818 0.56367 0.88662 0.0
C317 C 0.58452 0.54769 0.90859 0.0
H318 H 0.16699 0.35819 0.08417 0.0
H319 H 0.05108 0.22851 0.08774 0.0
H320 H 0.07814 0.2049 0.05527 0.0
H321 H 0.17525 0.36443 0.02357 0.0
H322 H 0.23446 0.39322 0.02392 0.0
H323 H 0.20475 0.39989 0.04669 0.0
H324 H 0.24479 0.37587 0.07479 0.0
H325 H 0.27478 0.36944 0.05215 0.0
H326 H 0.24286 0.32407 0.07075 0.0
H327 H 0.12146 0.19473 0.02377 0.0
H328 H 0.17663 0.199 0.99652 0.0
H329 H 0.2616 0.33649 0.01332 0.0
C330 C 0.14711 0.32485 0.07808 0.0
C331 C 0.10701 0.29508 0.08848 0.0
C332 C 0.08193 0.25181 0.07997 0.0
C333 C 0.09699 0.23819 0.06153 0.0
C334 C 0.13687 0.26846 0.05169 0.0
C335 C 0.16139 0.31096 0.05966 0.0
C336 C 0.20364 0.33699 0.04669 0.0
C337 C 0.20455 0.37593 0.0345 0.0
C338 C 0.24387 0.35247 0.06201 0.0
C339 C 0.19967 0.30231 0.0304 0.0
C340 C 0.16094 0.26299 0.03341 0.0
C341 C 0.15158 0.22555 0.02107 0.0
C342 C 0.18301 0.22828 0.00561 0.0
C343 C 0.22314 0.26818 0.00263 0.0
C344 C 0.23093 0.30571 0.01491 0.0
H345 H 0.8215 0.11026 0.25083 0.0
H346 H 0.78012 0.20353 0.26941 0.0
H347 H 0.82981 0.25543 0.24118 0.0
H348 H 0.93459 0.18988 0.24259 0.0
H349 H 0.94215 0.16254 0.21895 0.0
H350 H 0.9013 0.13102 0.23973 0.0
H351 H 0.8415 0.09846 0.209 0.0
H352 H 0.8822 0.12999 0.18812 0.0
H353 H 0.83385 0.13501 0.19088 0.0
H354 H 0.88547 0.29866 0.21269 0.0
H355 H 0.946 0.33201 0.18546 0.0
H356 H 0.95284 0.21203 0.18444 0.0
C357 C 0.8227 0.14145 0.24877 0.0
C358 C 0.79687 0.15282 0.26229 0.0
C359 C 0.79959 0.19409 0.25927 0.0
C360 C 0.82762 0.22379 0.24322 0.0
C361 C 0.8528 0.21183 0.23026 0.0
C362 C 0.8508 0.17177 0.23278 0.0
C363 C 0.88299 0.16826 0.21716 0.0
C364 C 0.91729 0.1626 0.2304 0.0
C365 C 0.85867 0.13069 0.20029 0.0
C366 C 0.90364 0.21281 0.20577 0.0
C367 C 0.8854 0.23716 0.21355 0.0
C368 C 0.89985 0.27987 0.20631 0.0
C369 C 0.93429 0.29853 0.19086 0.0
C370 C 0.95395 0.27455 0.18277 0.0
C371 C 0.93803 0.2309 0.19014 0.0
H372 H 0.63462 0.82837 0.43097 0.0
H373 H 0.74721 0.81396 0.41508 0.0
H374 H 0.76327 0.86239 0.38231 0.0
H375 H 0.60089 0.83 0.37407 0.0
H376 H 0.58539 0.87082 0.3797 0.0
H377 H 0.58191 0.8339 0.4015 0.0
H378 H 0.63181 0.90033 0.42684 0.0
H379 H 0.6351 0.93737 0.40521 0.0
H380 H 0.68469 0.94206 0.41659 0.0
H381 H 0.76791 0.91378 0.35165 0.0
H382 H 0.76301 0.96737 0.32679 0.0
H383 H 0.6475 0.94792 0.3629 0.0
C384 C 0.66259 0.83533 0.42057 0.0
C385 C 0.68965 0.81739 0.42554 0.0
C386 C 0.72607 0.82742 0.41158 0.0
C387 C 0.73535 0.85472 0.39288 0.0
C388 C 0.70789 0.87172 0.38837 0.0
C389 C 0.67239 0.8626 0.40189 0.0
C390 C 0.64893 0.88621 0.39383 0.0
C391 C 0.60147 0.85326 0.38686 0.0
C392 C 0.65024 0.9184 0.41168 0.0
C393 C 0.67698 0.91035 0.37381 0.0
C394 C 0.71064 0.90134 0.37081 0.0
C395 C 0.74153 0.92091 0.35375 0.0
C396 C 0.73842 0.95117 0.33968 0.0
C397 C 0.70477 0.96161 0.34284 0.0
C398 C 0.67336 0.94031 0.35992 0.0
H399 H 0.72087 0.6619 0.52522 0.0
H400 H 0.81045 0.79686 0.50561 0.0
H401 H 0.86605 0.79981 0.53191 0.0
H402 H 0.74598 0.6771 0.58259 0.0
H403 H 0.7415 0.6242 0.58674 0.0
H404 H 0.71034 0.6313 0.56498 0.0
H405 H 0.74445 0.6029 0.5356 0.0
H406 H 0.77543 0.59529 0.55731 0.0
H407 H 0.80338 0.6288 0.53336 0.0
H408 H 0.91045 0.78892 0.56161 0.0
H409 H 0.9405 0.76492 0.59233 0.0
H410 H 0.82064 0.63792 0.59322 0.0
C411 C 0.75249 0.69181 0.52615 0.0
C412 C 0.76158 0.72906 0.51327 0.0
C413 C 0.80299 0.76788 0.51526 0.0
C414 C 0.83471 0.76985 0.53014 0.0
C415 C 0.82437 0.73279 0.54294 0.0
C416 C 0.7843 0.69446 0.54105 0.0
C417 C 0.78049 0.66 0.55748 0.0
C418 C 0.74232 0.64743 0.57392 0.0
C419 C 0.77567 0.61935 0.5452 0.0
C420 C 0.82451 0.68506 0.56908 0.0
C421 C 0.84949 0.72687 0.56035 0.0
C422 C 0.89125 0.75621 0.56852 0.0
C423 C 0.90798 0.74233 0.58598 0.0
C424 C 0.88283 0.69966 0.59518 0.0
C425 C 0.84056 0.67081 0.58658 0.0
H426 H 0.03297 0.77764 0.69253 0.0
H427 H 0.08401 0.69567 0.66811 0.0
H428 H 0.14925 0.73576 0.69226 0.0
H429 H 0.13921 0.88013 0.69944 0.0
H430 H 0.12234 0.89478 0.72494 0.0
H431 H 0.08217 0.86321 0.70387 0.0
H432 H 0.03703 0.80281 0.7331 0.0
H433 H 0.07707 0.83404 0.75422 0.0
H434 H 0.06313 0.77814 0.74853 0.0
H435 H 0.20618 0.78118 0.72018 0.0
H436 H 0.25058 0.82715 0.75155 0.0
H437 H 0.16156 0.87816 0.75956 0.0
C438 C 0.05842 0.76889 0.69193 0.0
C439 C 0.05393 0.73402 0.67829 0.0
C440 C 0.08713 0.72251 0.67836 0.0
C441 C 0.12427 0.74515 0.69195 0.0
C442 C 0.12744 0.77891 0.70549 0.0
C443 C 0.09541 0.79071 0.70569 0.0
C444 C 0.10519 0.82575 0.72316 0.0
C445 C 0.11268 0.86851 0.71219 0.0
C446 C 0.06842 0.80918 0.7408 0.0
C447 C 0.1474 0.83133 0.73296 0.0
C448 C 0.15983 0.80436 0.72227 0.0
C449 C 0.19696 0.80263 0.72861 0.0
C450 C 0.22193 0.82888 0.74648 0.0
C451 C 0.20952 0.85625 0.758 0.0
C452 C 0.17193 0.85772 0.751 0.0
H453 H 0.23937 0.9961 0.86874 0.0
H454 H 0.32032 0.07654 0.81383 0.0
H455 H 0.33331 0.14336 0.83399 0.0
H456 H 0.19185 0.06693 0.88397 0.0
H457 H 0.19335 0.05697 0.91339 0.0
H458 H 0.18546 0.01531 0.89335 0.0
H459 H 0.25235 0.01305 0.90982 0.0
H460 H 0.26078 0.05495 0.92973 0.0
H461 H 0.30481 0.06307 0.9113 0.0
H462 H 0.34504 0.20116 0.86175 0.0
H463 H 0.35236 0.24657 0.89463 0.0
H464 H 0.2632 0.12913 0.93175 0.0
C465 C 0.25881 0.02771 0.86068 0.0
C466 C 0.27861 0.03116 0.83963 0.0
C467 C 0.30456 0.07313 0.82985 0.0
C468 C 0.31213 0.11125 0.84118 0.0
C469 C 0.29322 0.10679 0.8622 0.0
C470 C 0.26668 0.06609 0.87178 0.0
C471 C 0.25292 0.07057 0.89522 0.0
C472 C 0.20292 0.0513 0.89655 0.0
C473 C 0.26867 0.04915 0.91253 0.0
C474 C 0.27715 0.12019 0.89762 0.0
C475 C 0.29983 0.14037 0.87828 0.0
C476 C 0.32684 0.18578 0.87684 0.0
C477 C 0.33092 0.21127 0.89566 0.0
C478 C 0.30814 0.19138 0.91569 0.0
C479 C 0.2805 0.14525 0.91656 0.0
H480 H 0.64614 0.7124 0.81595 0.0
H481 H 0.77045 0.80475 0.84665 0.0
H482 H 0.77559 0.8638 0.82207 0.0
H483 H 0.67627 0.74872 0.76171 0.0
H484 H 0.62359 0.7409 0.75337 0.0
H485 H 0.62681 0.70773 0.77531 0.0
H486 H 0.58547 0.73245 0.80223 0.0
H487 H 0.58157 0.76531 0.78025 0.0
H488 H 0.60603 0.79029 0.80663 0.0
H489 H 0.77018 0.91077 0.79127 0.0
H490 H 0.75332 0.94181 0.75808 0.0
H491 H 0.63325 0.81738 0.74784 0.0
C492 C 0.67394 0.74528 0.81793 0.0
C493 C 0.70777 0.75411 0.8333 0.0
C494 C 0.74395 0.79741 0.83511 0.0
C495 C 0.74719 0.83109 0.82119 0.0
C496 C 0.71384 0.82088 0.80568 0.0
C497 C 0.6777 0.77905 0.80417 0.0
C498 C 0.64774 0.77555 0.78523 0.0
C499 C 0.64338 0.7412 0.76789 0.0
C500 C 0.60253 0.76531 0.79412 0.0
C501 C 0.6731 0.82165 0.77592 0.0
C502 C 0.71097 0.84753 0.78799 0.0
C503 C 0.74036 0.89091 0.78187 0.0
C504 C 0.73063 0.9082 0.76297 0.0
C505 C 0.69201 0.882 0.75042 0.0
C506 C 0.66298 0.83829 0.75713 0.0
H507 H 0.83563 0.72198 0.91383 0.0
H508 H 0.75491 0.57986 0.91718 0.0
H509 H 0.79921 0.57863 0.94876 0.0
H510 H 0.93691 0.72527 0.924 0.0
H511 H 0.96053 0.77504 0.94034 0.0
H512 H 0.92017 0.76542 0.91929 0.0
H513 H 0.87225 0.77563 0.94894 0.0
H514 H 0.91244 0.7851 0.97012 0.0
H515 H 0.85608 0.74238 0.97386 0.0
H516 H 0.85271 0.59189 0.97881 0.0
H517 H 0.91629 0.61808 0.00393 0.0
H518 H 0.96533 0.7517 0.98065 0.0
C519 C 0.82708 0.69073 0.92143 0.0
C520 C 0.79173 0.651 0.91321 0.0
C521 C 0.7819 0.61063 0.92324 0.0
C522 C 0.80668 0.60963 0.94126 0.0
C523 C 0.84144 0.64926 0.94892 0.0
C524 C 0.85201 0.68906 0.93926 0.0
C525 C 0.89306 0.72642 0.94976 0.0
C526 C 0.92984 0.74937 0.93231 0.0
C527 C 0.88283 0.75932 0.96136 0.0
C528 C 0.90408 0.70124 0.96664 0.0
C529 C 0.87341 0.65687 0.96603 0.0
C530 C 0.87687 0.62656 0.97953 0.0
C531 C 0.91313 0.64181 0.99375 0.0
C532 C 0.94572 0.68692 0.99427 0.0
C533 C 0.94073 0.7171 0.98075 0.0
H534 H 0.27565 0.94338 0.14704 0.0
H535 H 0.19183 0.99707 0.16383 0.0
H536 H 0.13378 0.94209 0.13911 0.0
H537 H 0.24924 0.92691 0.09032 0.0
H538 H 0.25101 0.87665 0.08816 0.0
H539 H 0.28374 0.91703 0.10885 0.0
H540 H 0.24784 0.85849 0.14008 0.0
H541 H 0.21522 0.81776 0.11944 0.0
H542 H 0.18883 0.82788 0.14268 0.0
H543 H 0.08692 0.88385 0.11027 0.0
H544 H 0.05547 0.82739 0.08045 0.0
H545 H 0.17153 0.81401 0.08265 0.0
C546 C 0.24477 0.94309 0.14588 0.0
C547 C 0.23808 0.97428 0.15746 0.0
C548 C 0.19748 0.97323 0.15522 0.0
C549 C 0.16438 0.94217 0.14121 0.0
C550 C 0.17248 0.91245 0.12963 0.0
C551 C 0.21165 0.9126 0.13196 0.0
C552 C 0.21345 0.87901 0.11685 0.0
C553 C 0.25161 0.90124 0.10006 0.0
C554 C 0.2165 0.84369 0.13059 0.0
C555 C 0.16944 0.86031 0.10535 0.0
C556 C 0.14603 0.87968 0.113 0.0
C557 C 0.10487 0.86828 0.1043 0.0
C558 C 0.08731 0.83628 0.08735 0.0
C559 C 0.11106 0.81637 0.07925 0.0
C560 C 0.15252 0.82857 0.08851 0.0
H561 H 0.26926 0.12264 0.24465 0.0
H562 H 0.40835 0.16847 0.25189 0.0
H563 H 0.40984 0.20591 0.28699 0.0
H564 H 0.27697 0.22226 0.26209 0.0
H565 H 0.22491 0.19709 0.27645 0.0
H566 H 0.23322 0.16897 0.2535 0.0
H567 H 0.21144 0.10146 0.27894 0.0
H568 H 0.20346 0.12966 0.30206 0.0
H569 H 0.24051 0.1085 0.30477 0.0
H570 H 0.39824 0.24228 0.31958 0.0
H571 H 0.3761 0.28209 0.34561 0.0
H572 H 0.24501 0.21584 0.31715 0.0
C573 C 0.29974 0.13998 0.25389 0.0
C574 C 0.33864 0.14247 0.24572 0.0
C575 C 0.37822 0.16625 0.25789 0.0
C576 C 0.37932 0.18729 0.27794 0.0
C577 C 0.34061 0.18461 0.28553 0.0
C578 C 0.30162 0.16202 0.27381 0.0
C579 C 0.26599 0.16831 0.28451 0.0
C580 C 0.24932 0.19048 0.26817 0.0
C581 C 0.22811 0.12436 0.29308 0.0
C582 C 0.29138 0.19865 0.30374 0.0
C583 C 0.33412 0.20685 0.30422 0.0
C584 C 0.36474 0.2358 0.31955 0.0
C585 C 0.35183 0.2582 0.33431 0.0
C586 C 0.30879 0.25182 0.33353 0.0
C587 C 0.27788 0.22071 0.31844 0.0
H588 H 0.16515 0.27222 0.41536 0.0
H589 H 0.24253 0.4147 0.4147 0.0
H590 H 0.20235 0.41793 0.44774 0.0
H591 H 0.06434 0.2676 0.42856 0.0
H592 H 0.04376 0.21949 0.446 0.0
H593 H 0.08175 0.22794 0.4238 0.0
H594 H 0.13395 0.22183 0.45221 0.0
H595 H 0.09619 0.21371 0.47455 0.0
H596 H 0.15253 0.25752 0.47626 0.0
H597 H 0.15272 0.40661 0.47961 0.0
H598 H 0.09093 0.38181 0.50601 0.0
H599 H 0.04232 0.24668 0.48541 0.0
C600 C 0.17386 0.30396 0.42241 0.0
C601 C 0.20707 0.34322 0.41263 0.0
C602 C 0.21711 0.38425 0.42195 0.0
C603 C 0.19473 0.38643 0.44081 0.0
C604 C 0.16203 0.34726 0.45005 0.0
C605 C 0.15111 0.30677 0.44105 0.0
C606 C 0.11185 0.27003 0.45306 0.0
C607 C 0.07314 0.2448 0.43689 0.0
C608 C 0.1244 0.23894 0.46472 0.0
C609 C 0.10216 0.29633 0.46994 0.0
C610 C 0.13208 0.34074 0.46814 0.0
C611 C 0.12919 0.3719 0.4813 0.0
C612 C 0.09402 0.35747 0.49629 0.0
C613 C 0.06193 0.31233 0.49783 0.0
C614 C 0.06666 0.28134 0.4848 0.0
H615 H 0.82405 0.17227 0.57443 0.0
H616 H 0.95294 0.19037 0.5889 0.0
H617 H 0.92091 0.13639 0.61978 0.0
H618 H 0.7882 0.16311 0.63131 0.0
H619 H 0.73217 0.12223 0.62509 0.0
H620 H 0.76544 0.16185 0.60418 0.0
H621 H 0.75017 0.09865 0.57669 0.0
H622 H 0.71675 0.05887 0.59749 0.0
H623 H 0.76233 0.05664 0.5851 0.0
H624 H 0.87334 0.07833 0.64858 0.0
H625 H 0.81505 0.02307 0.67317 0.0
H626 H 0.71889 0.04629 0.64008 0.0
C627 C 0.84561 0.16489 0.58406 0.0
C628 C 0.89094 0.18534 0.57926 0.0
C629 C 0.91807 0.17498 0.59232 0.0
C630 C 0.90017 0.14441 0.60987 0.0
C631 C 0.85523 0.12483 0.61416 0.0
C632 C 0.82841 0.13486 0.60164 0.0
C633 C 0.78128 0.10966 0.60959 0.0
C634 C 0.76589 0.14109 0.61805 0.0
C635 C 0.75086 0.07915 0.59112 0.0
C636 C 0.78558 0.08371 0.62853 0.0
C637 C 0.82837 0.09263 0.63091 0.0
C638 C 0.8398 0.07136 0.64695 0.0
C639 C 0.80655 0.04008 0.66083 0.0
C640 C 0.76261 0.03075 0.65864 0.0
C641 C 0.75229 0.05312 0.64235 0.0
H642 H 0.19893 0.30857 0.29194 0.0
H643 H 0.28445 0.44885 0.30163 0.0
H644 H 0.26119 0.46285 0.26496 0.0
H645 H 0.21942 0.30793 0.23312 0.0
H646 H 0.16378 0.26602 0.2269 0.0
H647 H 0.18692 0.26745 0.25391 0.0
H648 H 0.12244 0.27076 0.27305 0.0
H649 H 0.09899 0.2691 0.24611 0.0
H650 H 0.11069 0.31334 0.26521 0.0
H651 H 0.22631 0.46097 0.22758 0.0
H652 H 0.18375 0.44344 0.19242 0.0
H653 H 0.12414 0.30423 0.20707 0.0
C654 C 0.21265 0.34228 0.28641 0.0
C655 C 0.24325 0.3777 0.29963 0.0
C656 C 0.26085 0.42129 0.29173 0.0
C657 C 0.24788 0.42951 0.27095 0.0
C658 C 0.21771 0.39372 0.25827 0.0
C659 C 0.20051 0.35098 0.26569 0.0
C660 C 0.16893 0.31822 0.24892 0.0
C661 C 0.18579 0.28814 0.2402 0.0
C662 C 0.12252 0.29129 0.25892 0.0
C663 C 0.17058 0.34917 0.23094 0.0
C664 C 0.19882 0.3926 0.23661 0.0
C665 C 0.2044 0.42708 0.22289 0.0
C666 C 0.18015 0.41683 0.20299 0.0
C667 C 0.151 0.37251 0.19698 0.0
C668 C 0.14663 0.3384 0.21108 0.0
H669 H 0.89723 0.20579 0.45568 0.0
H670 H 0.81117 0.24883 0.4837 0.0
H671 H 0.76414 0.22147 0.45001 0.0
H672 H 0.8921 0.23566 0.39906 0.0
H673 H 0.89312 0.18886 0.38741 0.0
H674 H 0.91925 0.21129 0.41382 0.0
H675 H 0.87258 0.13486 0.43235 0.0
H676 H 0.84641 0.11215 0.40598 0.0
H677 H 0.81353 0.1069 0.43016 0.0
H678 H 0.72582 0.18755 0.41326 0.0
H679 H 0.70057 0.15161 0.37635 0.0
H680 H 0.81391 0.13381 0.3726 0.0
C681 C 0.86843 0.20939 0.45478 0.0
C682 C 0.85766 0.22924 0.47229 0.0
C683 C 0.81989 0.23362 0.47044 0.0
C684 C 0.79305 0.21821 0.45139 0.0
C685 C 0.80471 0.19883 0.43438 0.0
C686 C 0.84161 0.19456 0.43592 0.0
C687 C 0.84734 0.17291 0.41536 0.0
C688 C 0.89051 0.20405 0.4032 0.0
C689 C 0.84479 0.12911 0.42133 0.0
C690 C 0.80783 0.16554 0.40197 0.0
C691 C 0.78345 0.18046 0.41321 0.0
C692 C 0.74482 0.176 0.40427 0.0
C693 C 0.73074 0.15558 0.38334 0.0
C694 C 0.75548 0.14029 0.37161 0.0
C695 C 0.79457 0.14562 0.38107 0.0
H696 H 0.63474 0.89746 0.61596 0.0
H697 H 0.59756 0.78545 0.65925 0.0
H698 H 0.58298 0.73786 0.62614 0.0
H699 H 0.55903 0.83838 0.56881 0.0
H700 H 0.59982 0.87088 0.54815 0.0
H701 H 0.60007 0.89446 0.57494 0.0
H702 H 0.68093 0.91439 0.58096 0.0
H703 H 0.68093 0.89089 0.55426 0.0
H704 H 0.69513 0.87178 0.57908 0.0
H705 H 0.57775 0.70389 0.58876 0.0
H706 H 0.58898 0.68705 0.55014 0.0
H707 H 0.6349 0.82238 0.53111 0.0
C708 C 0.62228 0.86264 0.61837 0.0
C709 C 0.61636 0.84473 0.64004 0.0
C710 C 0.60174 0.79949 0.64271 0.0
C711 C 0.59322 0.77227 0.62403 0.0
C712 C 0.60009 0.79101 0.60284 0.0
C713 C 0.61466 0.83525 0.59989 0.0
C714 C 0.62466 0.84824 0.57553 0.0
C715 C 0.59406 0.86391 0.56632 0.0
C716 C 0.67329 0.88339 0.57228 0.0
C717 C 0.61439 0.80464 0.56531 0.0
C718 C 0.59929 0.77187 0.58128 0.0
C719 C 0.58919 0.72917 0.57607 0.0
C720 C 0.59563 0.71992 0.55407 0.0
C721 C 0.61272 0.75338 0.53762 0.0
C722 C 0.62145 0.79607 0.54329 0.0
H723 H 0.88043 0.68914 0.71099 0.0
H724 H 0.82547 0.54991 0.69775 0.0
H725 H 0.78423 0.53249 0.73347 0.0
H726 H 0.89592 0.68394 0.76949 0.0
H727 H 0.88213 0.72551 0.77642 0.0
H728 H 0.90581 0.72643 0.74961 0.0
H729 H 0.83972 0.72541 0.72985 0.0
H730 H 0.81596 0.72474 0.75661 0.0
H731 H 0.78467 0.68243 0.73638 0.0
H732 H 0.74854 0.53116 0.77094 0.0
H733 H 0.72275 0.54606 0.80672 0.0
H734 H 0.80425 0.68623 0.79507 0.0
C735 C 0.85949 0.65492 0.71548 0.0
C736 C 0.85587 0.62082 0.70158 0.0
C737 C 0.82852 0.57651 0.70818 0.0
C738 C 0.80505 0.56635 0.72841 0.0
C739 C 0.80965 0.60092 0.74183 0.0
C740 C 0.83632 0.64431 0.73559 0.0
C741 C 0.83652 0.67559 0.75299 0.0
C742 C 0.88285 0.70456 0.7627 0.0
C743 C 0.81811 0.70368 0.74338 0.0
C744 C 0.8057 0.64312 0.77006 0.0
C745 C 0.79029 0.60018 0.76337 0.0
C746 C 0.76058 0.56467 0.77637 0.0
C747 C 0.74615 0.57341 0.79664 0.0
C748 C 0.76175 0.61725 0.8037 0.0
C749 C 0.79206 0.65235 0.79023 0.0
H750 H 0.26307 0.89698 0.89328 0.0
H751 H 0.21265 0.77981 0.85231 0.0
H752 H 0.17713 0.73361 0.88554 0.0
H753 H 0.27911 0.85056 0.94579 0.0
H754 H 0.2599 0.87982 0.96286 0.0
H755 H 0.28736 0.90311 0.93677 0.0
H756 H 0.22063 0.9096 0.9237 0.0
H757 H 0.19291 0.8862 0.94965 0.0
H758 H 0.16672 0.86128 0.92355 0.0
H759 H 0.14273 0.70075 0.92237 0.0
H760 H 0.1072 0.68353 0.95945 0.0
H761 H 0.17577 0.82253 0.97588 0.0
C762 C 0.24567 0.86153 0.89151 0.0
C763 C 0.24118 0.84169 0.87044 0.0
C764 C 0.21676 0.79539 0.86845 0.0
C765 C 0.19666 0.76898 0.88721 0.0
C766 C 0.20089 0.78953 0.90773 0.0
C767 C 0.22456 0.83478 0.90997 0.0
C768 C 0.2197 0.84885 0.93324 0.0
C769 C 0.26417 0.87194 0.94538 0.0
C770 C 0.19874 0.8782 0.93247 0.0
C771 C 0.18892 0.80451 0.94358 0.0
C772 C 0.17921 0.7707 0.92873 0.0
C773 C 0.15035 0.72691 0.93421 0.0
C774 C 0.13034 0.71745 0.9553 0.0
C775 C 0.13878 0.7517 0.9705 0.0
C776 C 0.16889 0.79569 0.96462 0.0
H777 H 0.35365 0.18773 0.13408 0.0
H778 H 0.42148 0.11723 0.11666 0.0
H779 H 0.43372 0.14768 0.07847 0.0
H780 H 0.29695 0.16974 0.08432 0.0
H781 H 0.30136 0.22306 0.08301 0.0
H782 H 0.30262 0.20005 0.10961 0.0
H783 H 0.37738 0.26934 0.11864 0.0
H784 H 0.37627 0.2927 0.09203 0.0
H785 H 0.42265 0.2867 0.09944 0.0
H786 H 0.43027 0.17834 0.04096 0.0
H787 H 0.41396 0.20938 0.00763 0.0
H788 H 0.35091 0.26183 0.05001 0.0
C789 C 0.37194 0.1795 0.12237 0.0
C790 C 0.38674 0.15025 0.12834 0.0
C791 C 0.41006 0.1398 0.11248 0.0
C792 C 0.41719 0.15695 0.09075 0.0
C793 C 0.40128 0.18492 0.08523 0.0
C794 C 0.37958 0.19655 0.10067 0.0
C795 C 0.36347 0.22506 0.09019 0.0
C796 C 0.31313 0.20315 0.09188 0.0
C797 C 0.38632 0.27119 0.1007 0.0
C798 C 0.37821 0.22646 0.06628 0.0
C799 C 0.4002 0.20336 0.06374 0.0
C800 C 0.41387 0.19726 0.04282 0.0
C801 C 0.40442 0.2149 0.02399 0.0
C802 C 0.38168 0.2384 0.02629 0.0
C803 C 0.36913 0.24476 0.04778 0.0
loop_
_geom_bond_atom_site_label_1
_geom_bond_atom_site_label_2
_geom_bond_distance
_geom_bond_site_symmetry_2
_ccdc_geom_bond_type
In0 O1 2.294 . S
In0 O2 2.326 . S
In0 O6 2.266 . S
In0 O7 2.326 . S
In0 O8 2.266 . S
In0 O9 2.326 . S
In0 O11 2.294 . S
In0 O12 2.326 . S
O1 In0 2.294 . S
O1 C10 1.240 . S
O2 In0 2.326 . S
O2 C10 1.252 . S
C3 O6 1.252 1_655 S
C3 O7 1.260 1_655 S
C4 O11 1.240 . S
C4 O12 1.252 . S
C5 O8 1.252 . S
C5 O9 1.260 . S
O6 In0 2.266 . S
O6 C3 1.252 1_455 S
O7 In0 2.326 . S
O7 C3 1.260 1_455 S
O8 In0 2.266 . S
O8 C5 1.252 . S
O9 In0 2.326 . S
O9 C5 1.260 . S
C10 O1 1.240 . S
C10 O2 1.252 . S
O11 In0 2.294 . S
O11 C4 1.240 . S
O12 In0 2.326 . S
O12 C4 1.252 . S
In13 O14 2.294 . S
In13 O15 2.326 . S
In13 O19 2.266 . S
In13 O20 2.326 . S
In13 O21 2.266 . S
In13 O22 2.326 . S
In13 O24 2.294 . S
In13 O25 2.326 . S
O14 In13 2.294 . S
O14 C23 1.240 . S
O15 In13 2.326 . S
O15 C23 1.252 . S
C16 O19 1.252 . S
C16 O20 1.260 . S
C17 O24 1.240 . S
C17 O25 1.252 . S
C18 O21 1.252 1_565 S
C18 O22 1.260 1_565 S
O19 In13 2.266 . S
O19 C16 1.252 . S
O20 In13 2.326 . S
O20 C16 1.260 . S
O21 In13 2.266 . S
O21 C18 1.252 1_545 S
O22 In13 2.326 . S
O22 C18 1.260 1_545 S
C23 O14 1.240 . S
C23 O15 1.252 . S
O24 In13 2.294 . S
O24 C17 1.240 . S
O25 In13 2.326 . S
O25 C17 1.252 . S
In26 O27 2.294 . S
In26 O28 2.326 . S
In26 O32 2.266 . S
In26 O33 2.326 . S
In26 O34 2.266 . S
In26 O35 2.326 . S
In26 O37 2.294 . S
In26 O38 2.326 . S
O27 In26 2.294 . S
O27 C36 1.240 . S
O28 In26 2.326 . S
O28 C36 1.252 . S
C29 O32 1.252 . S
C29 O33 1.260 . S
C30 O37 1.240 . S
C30 O38 1.252 . S
C31 O34 1.252 . S
C31 O35 1.260 . S
O32 In26 2.266 . S
O32 C29 1.252 . S
O33 In26 2.326 . S
O33 C29 1.260 . S
O34 In26 2.266 . S
O34 C31 1.252 . S
O35 In26 2.326 . S
O35 C31 1.260 . S
C36 O27 1.240 . S
C36 O28 1.252 . S
O37 In26 2.294 . S
O37 C30 1.240 . S
O38 In26 2.326 . S
O38 C30 1.252 . S
In39 O40 2.294 . S
In39 O41 2.326 . S
In39 O45 2.266 . S
In39 O46 2.326 . S
In39 O47 2.266 . S
In39 O48 2.326 . S
In39 O50 2.294 . S
In39 O51 2.326 . S
O40 In39 2.294 . S
O40 C49 1.240 . S
O41 In39 2.326 . S
O41 C49 1.252 . S
C42 O45 1.252 . S
C42 O46 1.260 . S
C43 O50 1.240 . S
C43 O51 1.252 . S
C44 O47 1.252 1_455 S
C44 O48 1.260 1_455 S
O45 In39 2.266 . S
O45 C42 1.252 . S
O46 In39 2.326 . S
O46 C42 1.260 . S
O47 In39 2.266 . S
O47 C44 1.252 1_655 S
O48 In39 2.326 . S
O48 C44 1.260 1_655 S
C49 O40 1.240 . S
C49 O41 1.252 . S
O50 In39 2.294 . S
O50 C43 1.240 . S
O51 In39 2.326 . S
O51 C43 1.252 . S
In52 O53 2.294 . S
In52 O54 2.326 . S
In52 O58 2.266 . S
In52 O59 2.326 . S
In52 O60 2.266 . S
In52 O61 2.326 . S
In52 O63 2.294 . S
In52 O64 2.326 . S
O53 In52 2.294 . S
O53 C62 1.240 . S
O54 In52 2.326 . S
O54 C62 1.252 . S
C55 O58 1.252 1_545 S
C55 O59 1.260 1_545 S
C56 O63 1.240 . S
C56 O64 1.252 . S
C57 O60 1.252 . S
C57 O61 1.260 . S
O58 In52 2.266 . S
O58 C55 1.252 1_565 S
O59 In52 2.326 . S
O59 C55 1.260 1_565 S
O60 In52 2.266 . S
O60 C57 1.252 . S
O61 In52 2.326 . S
O61 C57 1.260 . S
C62 O53 1.240 . S
C62 O54 1.252 . S
O63 In52 2.294 . S
O63 C56 1.240 . S
O64 In52 2.326 . S
O64 C56 1.252 . S
In65 O66 2.294 . S
In65 O67 2.326 . S
In65 O71 2.266 1_556 S
In65 O72 2.326 1_556 S
In65 O73 2.266 . S
In65 O74 2.326 1_556 S
In65 O76 2.294 . S
In65 O77 2.326 . S
O66 In65 2.294 . S
O66 C75 1.240 . S
O67 In65 2.326 . S
O67 C75 1.252 . S
C68 O71 1.252 . S
C68 O72 1.260 . S
C69 O76 1.240 . S
C69 O77 1.252 . S
C70 O73 1.219 1_554 S
C70 O74 1.271 . S
O71 In65 2.266 1_554 S
O71 C68 1.252 . S
O72 In65 2.326 1_554 S
O72 C68 1.260 . S
O73 In65 2.266 . S
O73 C70 1.219 1_556 S
O74 In65 2.326 1_554 S
O74 C70 1.271 . S
C75 O66 1.240 . S
C75 O67 1.252 . S
O76 In65 2.294 . S
O76 C69 1.240 . S
O77 In65 2.326 . S
O77 C69 1.252 . S
In78 O79 2.294 . S
In78 O80 2.326 . S
In78 O84 2.266 . S
In78 O85 2.326 . S
In78 O86 2.266 . S
In78 O87 2.326 . S
In78 O89 2.294 . S
In78 O90 2.326 . S
O79 In78 2.294 . S
O79 C88 1.240 . S
O80 In78 2.326 . S
O80 C88 1.252 . S
C81 O84 1.252 1_545 S
C81 O85 1.260 1_545 S
C82 O89 1.240 . S
C82 O90 1.252 . S
C83 O86 1.252 . S
C83 O87 1.260 . S
O84 In78 2.266 . S
O84 C81 1.252 1_565 S
O85 In78 2.326 . S
O85 C81 1.260 1_565 S
O86 In78 2.266 . S
O86 C83 1.252 . S
O87 In78 2.326 . S
O87 C83 1.260 . S
C88 O79 1.240 . S
C88 O80 1.252 . S
O89 In78 2.294 . S
O89 C82 1.240 . S
O90 In78 2.326 . S
O90 C82 1.252 . S
In91 O92 2.294 . S
In91 O93 2.326 . S
In91 O97 2.266 . S
In91 O98 2.326 . S
In91 O99 2.266 . S
In91 O100 2.326 . S
In91 O102 2.294 . S
In91 O103 2.326 . S
O92 In91 2.294 . S
O92 C101 1.240 . S
O93 In91 2.326 . S
O93 C101 1.252 . S
C94 O97 1.252 . S
C94 O98 1.260 . S
C95 O102 1.240 . S
C95 O103 1.252 . S
C96 O99 1.252 . S
C96 O100 1.260 . S
O97 In91 2.266 . S
O97 C94 1.252 . S
O98 In91 2.326 . S
O98 C94 1.260 . S
O99 In91 2.266 . S
O99 C96 1.252 . S
O100 In91 2.326 . S
O100 C96 1.260 . S
C101 O92 1.240 . S
C101 O93 1.252 . S
O102 In91 2.294 . S
O102 C95 1.240 . S
O103 In91 2.326 . S
O103 C95 1.252 . S
In104 O105 2.294 . S
In104 O106 2.326 . S
In104 O110 2.266 . S
In104 O111 2.326 1_554 S
In104 O112 2.266 1_554 S
In104 O113 2.326 1_554 S
In104 O115 2.294 . S
In104 O116 2.326 . S
O105 In104 2.294 . S
O105 C114 1.240 . S
O106 In104 2.326 . S
O106 C114 1.252 . S
C107 O110 1.219 1_656 S
C107 O111 1.271 1_655 S
C108 O115 1.240 . S
C108 O116 1.252 . S
C109 O112 1.252 . S
C109 O113 1.260 . S
O110 In104 2.266 . S
O110 C107 1.219 1_454 S
O111 In104 2.326 1_556 S
O111 C107 1.271 1_455 S
O112 In104 2.266 1_556 S
O112 C109 1.252 . S
O113 In104 2.326 1_556 S
O113 C109 1.260 . S
C114 O105 1.240 . S
C114 O106 1.252 . S
O115 In104 2.294 . S
O115 C108 1.240 . S
O116 In104 2.326 . S
O116 C108 1.252 . S
In117 O118 2.294 . S
In117 O119 2.326 . S
In117 O123 2.266 . S
In117 O124 2.326 . S
In117 O125 2.266 . S
In117 O126 2.326 . S
In117 O128 2.294 . S
In117 O129 2.326 . S
O118 In117 2.294 . S
O118 C127 1.240 . S
O119 In117 2.326 . S
O119 C127 1.252 . S
C120 O123 1.252 . S
C120 O124 1.260 . S
C121 O128 1.240 . S
C121 O129 1.252 . S
C122 O125 1.252 1_565 S
C122 O126 1.260 1_565 S
O123 In117 2.266 . S
O123 C120 1.252 . S
O124 In117 2.326 . S
O124 C120 1.260 . S
O125 In117 2.266 . S
O125 C122 1.252 1_545 S
O126 In117 2.326 . S
O126 C122 1.260 1_545 S
C127 O118 1.240 . S
C127 O119 1.252 . S
O128 In117 2.294 . S
O128 C121 1.240 . S
O129 In117 2.326 . S
O129 C121 1.252 . S
In130 O131 2.294 . S
In130 O132 2.326 . S
In130 O136 2.266 . S
In130 O137 2.326 . S
In130 O138 2.266 . S
In130 O139 2.326 . S
In130 O141 2.294 . S
In130 O142 2.326 . S
O131 In130 2.294 . S
O131 C140 1.240 . S
O132 In130 2.326 . S
O132 C140 1.252 . S
C133 O136 1.252 . S
C133 O137 1.260 . S
C134 O141 1.240 . S
C134 O142 1.252 . S
C135 O138 1.252 . S
C135 O139 1.260 . S
O136 In130 2.266 . S
O136 C133 1.252 . S
O137 In130 2.326 . S
O137 C133 1.260 . S
O138 In130 2.266 . S
O138 C135 1.252 . S
O139 In130 2.326 . S
O139 C135 1.260 . S
C140 O131 1.240 . S
C140 O132 1.252 . S
O141 In130 2.294 . S
O141 C134 1.240 . S
O142 In130 2.326 . S
O142 C134 1.252 . S
In143 O144 2.294 . S
In143 O145 2.326 . S
In143 O149 2.266 . S
In143 O150 2.326 . S
In143 O151 2.266 . S
In143 O152 2.326 . S
In143 O154 2.294 . S
In143 O155 2.326 . S
O144 In143 2.294 . S
O144 C153 1.240 . S
O145 In143 2.326 . S
O145 C153 1.252 . S
C146 O149 1.252 . S
C146 O150 1.260 . S
C147 O154 1.240 . S
C147 O155 1.252 . S
C148 O151 1.252 1_455 S
C148 O152 1.260 1_455 S
O149 In143 2.266 . S
O149 C146 1.252 . S
O150 In143 2.326 . S
O150 C146 1.260 . S
O151 In143 2.266 . S
O151 C148 1.252 1_655 S
O152 In143 2.326 . S
O152 C148 1.260 1_655 S
C153 O144 1.240 . S
C153 O145 1.252 . S
O154 In143 2.294 . S
O154 C147 1.240 . S
O155 In143 2.326 . S
O155 C147 1.252 . S
H156 C168 0.930 . S
H157 C170 0.930 1_655 S
H158 C171 0.930 . S
H159 C175 0.959 . S
H160 C175 0.959 . S
H161 C175 0.961 . S
H162 C176 0.960 . S
H163 C176 0.961 . S
H164 C176 0.959 . S
H165 C179 0.929 . S
H166 C180 0.931 1_655 S
H167 C182 0.930 . S
C168 H156 0.930 . S
C168 C169 1.399 . S
C168 C173 1.399 . S
C169 C168 1.399 . S
C169 C170 1.376 . S
C170 H157 0.930 1_455 S
C170 C169 1.376 . S
C170 C171 1.388 1_455 S
C171 H158 0.930 . S
C171 C170 1.388 1_655 S
C171 C172 1.390 1_655 S
C172 C171 1.390 1_455 S
C172 C173 1.394 . S
C172 C178 1.465 . S
C173 C168 1.399 . S
C173 C172 1.394 . S
C173 C174 1.516 . S
C174 C173 1.516 . S
C174 C175 1.502 . S
C174 C176 1.561 . S
C174 C177 1.526 . S
C175 H159 0.959 . S
C175 H160 0.959 . S
C175 H161 0.961 . S
C175 C174 1.502 . S
C176 H162 0.960 . S
C176 H163 0.961 . S
C176 H164 0.959 . S
C176 C174 1.561 . S
C177 C174 1.526 . S
C177 C178 1.396 . S
C177 C182 1.390 . S
C178 C172 1.465 . S
C178 C177 1.396 . S
C178 C179 1.399 1_455 S
C179 H165 0.929 . S
C179 C178 1.399 1_655 S
C179 C180 1.385 1_655 S
C180 H166 0.931 1_455 S
C180 C179 1.385 1_455 S
C180 C181 1.389 . S
C181 C180 1.389 . S
C181 C182 1.387 . S
C182 H167 0.930 . S
C182 C177 1.390 . S
C182 C181 1.387 . S
H183 C195 0.930 . S
H184 C197 0.929 . S
H185 C198 0.930 1_565 S
H186 C202 0.959 . S
H187 C202 0.959 . S
H188 C202 0.961 . S
H189 C203 0.960 . S
H190 C203 0.961 . S
H191 C203 0.959 . S
H192 C206 0.929 1_565 S
H193 C207 0.931 1_565 S
H194 C209 0.930 . S
C195 H183 0.930 . S
C195 C196 1.399 . S
C195 C200 1.399 . S
C196 C195 1.399 . S
C196 C197 1.376 . S
C197 H184 0.929 . S
C197 C196 1.376 . S
C197 C198 1.388 . S
C198 H185 0.930 1_545 S
C198 C197 1.388 . S
C198 C199 1.390 . S
C199 C198 1.390 . S
C199 C200 1.394 . S
C199 C205 1.465 . S
C200 C195 1.399 . S
C200 C199 1.394 . S
C200 C201 1.516 . S
C201 C200 1.516 . S
C201 C202 1.502 . S
C201 C203 1.561 . S
C201 C204 1.526 . S
C202 H186 0.959 . S
C202 H187 0.959 . S
C202 H188 0.961 . S
C202 C201 1.502 . S
C203 H189 0.960 . S
C203 H190 0.961 . S
C203 H191 0.959 . S
C203 C201 1.561 . S
C204 C201 1.526 . S
C204 C205 1.396 . S
C204 C209 1.390 . S
C205 C199 1.465 . S
C205 C204 1.396 . S
C205 C206 1.399 . S
C206 H192 0.929 1_545 S
C206 C205 1.399 . S
C206 C207 1.385 . S
C207 H193 0.931 1_545 S
C207 C206 1.385 . S
C207 C208 1.389 . S
C208 C207 1.389 . S
C208 C209 1.387 . S
C209 H194 0.930 . S
C209 C204 1.390 . S
C209 C208 1.387 . S
H210 C222 0.930 . S
H211 C224 0.930 . S
H212 C225 0.930 . S
H213 C229 0.959 . S
H214 C229 0.959 . S
H215 C229 0.961 . S
H216 C230 0.960 . S
H217 C230 0.961 . S
H218 C230 0.959 . S
H219 C233 0.929 . S
H220 C234 0.931 . S
H221 C236 0.930 . S
C222 H210 0.930 . S
C222 C223 1.399 . S
C222 C227 1.399 . S
C223 C222 1.399 . S
C223 C224 1.376 . S
C224 H211 0.930 . S
C224 C223 1.376 . S
C224 C225 1.388 . S
C225 H212 0.930 . S
C225 C224 1.388 . S
C225 C226 1.390 . S
C226 C225 1.390 . S
C226 C227 1.394 . S
C226 C232 1.465 . S
C227 C222 1.399 . S
C227 C226 1.394 . S
C227 C228 1.516 . S
C228 C227 1.516 . S
C228 C229 1.502 . S
C228 C230 1.561 . S
C228 C231 1.526 . S
C229 H213 0.959 . S
C229 H214 0.959 . S
C229 H215 0.961 . S
C229 C228 1.502 . S
C230 H216 0.960 . S
C230 H217 0.961 . S
C230 H218 0.959 . S
C230 C228 1.561 . S
C231 C228 1.526 . S
C231 C232 1.396 . S
C231 C236 1.390 . S
C232 C226 1.465 . S
C232 C231 1.396 . S
C232 C233 1.399 . S
C233 H219 0.929 . S
C233 C232 1.399 . S
C233 C234 1.385 . S
C234 H220 0.931 . S
C234 C233 1.385 . S
C234 C235 1.389 . S
C235 C234 1.389 . S
C235 C236 1.387 . S
C236 H221 0.930 . S
C236 C231 1.390 . S
C236 C235 1.387 . S
H237 C249 0.930 . S
H238 C251 0.930 . S
H239 C252 0.930 . S
H240 C256 0.959 . S
H241 C256 0.959 . S
H242 C256 0.961 . S
H243 C257 0.960 . S
H244 C257 0.961 . S
H245 C257 0.959 . S
H246 C260 0.929 . S
H247 C261 0.931 . S
H248 C263 0.930 . S
C249 H237 0.930 . S
C249 C250 1.399 . S
C249 C254 1.399 . S
C250 C249 1.399 . S
C250 C251 1.376 . S
C251 H238 0.930 . S
C251 C250 1.376 . S
C251 C252 1.388 . S
C252 H239 0.930 . S
C252 C251 1.388 . S
C252 C253 1.390 . S
C253 C252 1.390 . S
C253 C254 1.394 . S
C253 C259 1.465 . S
C254 C249 1.399 . S
C254 C253 1.394 . S
C254 C255 1.516 . S
C255 C254 1.516 . S
C255 C256 1.502 . S
C255 C257 1.561 . S
C255 C258 1.526 . S
C256 H240 0.959 . S
C256 H241 0.959 . S
C256 H242 0.961 . S
C256 C255 1.502 . S
C257 H243 0.960 . S
C257 H244 0.961 . S
C257 H245 0.959 . S
C257 C255 1.561 . S
C258 C255 1.526 . S
C258 C259 1.396 . S
C258 C263 1.390 . S
C259 C253 1.465 . S
C259 C258 1.396 . S
C259 C260 1.399 . S
C260 H246 0.929 . S
C260 C259 1.399 . S
C260 C261 1.385 . S
C261 H247 0.931 . S
C261 C260 1.385 . S
C261 C262 1.389 . S
C262 C261 1.389 . S
C262 C263 1.387 . S
C263 H248 0.930 . S
C263 C258 1.390 . S
C263 C262 1.387 . S
H264 C276 0.930 . S
H265 C278 0.930 1_545 S
H266 C279 0.930 . S
H267 C283 0.959 . S
H268 C283 0.959 . S
H269 C283 0.961 . S
H270 C284 0.960 . S
H271 C284 0.961 . S
H272 C284 0.959 . S
H273 C287 0.929 . S
H274 C288 0.931 1_545 S
H275 C290 0.930 . S
C276 H264 0.930 . S
C276 C277 1.399 . S
C276 C281 1.399 . S
C277 C276 1.399 . S
C277 C278 1.376 . S
C278 H265 0.930 1_565 S
C278 C277 1.376 . S
C278 C279 1.388 1_565 S
C279 H266 0.930 . S
C279 C278 1.388 1_545 S
C279 C280 1.390 1_545 S
C280 C279 1.390 1_565 S
C280 C281 1.394 . S
C280 C286 1.465 . S
C281 C276 1.399 . S
C281 C280 1.394 . S
C281 C282 1.516 . S
C282 C281 1.516 . S
C282 C283 1.502 . S
C282 C284 1.561 . S
C282 C285 1.526 . S
C283 H267 0.959 . S
C283 H268 0.959 . S
C283 H269 0.961 . S
C283 C282 1.502 . S
C284 H270 0.960 . S
C284 H271 0.961 . S
C284 H272 0.959 . S
C284 C282 1.561 . S
C285 C282 1.526 . S
C285 C286 1.396 . S
C285 C290 1.390 . S
C286 C280 1.465 . S
C286 C285 1.396 . S
C286 C287 1.399 1_565 S
C287 H273 0.929 . S
C287 C286 1.399 1_545 S
C287 C288 1.385 1_545 S
C288 H274 0.931 1_565 S
C288 C287 1.385 1_565 S
C288 C289 1.389 . S
C289 C288 1.389 . S
C289 C290 1.387 . S
C290 H275 0.930 . S
C290 C285 1.390 . S
C290 C289 1.387 . S
H291 C303 0.930 . S
H292 C305 0.930 . S
H293 C306 0.930 . S
H294 C310 0.959 . S
H295 C310 0.959 . S
H296 C310 0.961 . S
H297 C311 0.960 . S
H298 C311 0.961 . S
H299 C311 0.959 . S
H300 C314 0.929 . S
H301 C315 0.931 . S
H302 C317 0.930 . S
C303 H291 0.930 . S
C303 C304 1.399 . S
C303 C308 1.399 . S
C304 C303 1.399 . S
C304 C305 1.376 . S
C305 H292 0.930 . S
C305 C304 1.376 . S
C305 C306 1.388 . S
C306 H293 0.930 . S
C306 C305 1.388 . S
C306 C307 1.390 . S
C307 C306 1.390 . S
C307 C308 1.394 . S
C307 C313 1.465 . S
C308 C303 1.399 . S
C308 C307 1.394 . S
C308 C309 1.516 . S
C309 C308 1.516 . S
C309 C310 1.502 . S
C309 C311 1.561 . S
C309 C312 1.526 . S
C310 H294 0.959 . S
C310 H295 0.959 . S
C310 H296 0.961 . S
C310 C309 1.502 . S
C311 H297 0.960 . S
C311 H298 0.961 . S
C311 H299 0.959 . S
C311 C309 1.561 . S
C312 C309 1.526 . S
C312 C313 1.396 . S
C312 C317 1.390 . S
C313 C307 1.465 . S
C313 C312 1.396 . S
C313 C314 1.399 . S
C314 H300 0.929 . S
C314 C313 1.399 . S
C314 C315 1.385 . S
C315 H301 0.931 . S
C315 C314 1.385 . S
C315 C316 1.389 . S
C316 C315 1.389 . S
C316 C317 1.387 . S
C317 H302 0.930 . S
C317 C312 1.390 . S
C317 C316 1.387 . S
H318 C330 0.930 . S
H319 C332 0.930 . S
H320 C333 0.930 . S
H321 C337 0.959 . S
H322 C337 0.959 . S
H323 C337 0.961 . S
H324 C338 0.960 . S
H325 C338 0.961 . S
H326 C338 0.959 . S
H327 C341 0.929 . S
H328 C342 0.931 . S
H329 C344 0.930 . S
C330 H318 0.930 . S
C330 C331 1.399 . S
C330 C335 1.399 . S
C331 C330 1.399 . S
C331 C332 1.376 . S
C332 H319 0.930 . S
C332 C331 1.376 . S
C332 C333 1.388 . S
C333 H320 0.930 . S
C333 C332 1.388 . S
C333 C334 1.390 . S
C334 C333 1.390 . S
C334 C335 1.394 . S
C334 C340 1.465 . S
C335 C330 1.399 . S
C335 C334 1.394 . S
C335 C336 1.516 . S
C336 C335 1.516 . S
C336 C337 1.502 . S
C336 C338 1.561 . S
C336 C339 1.526 . S
C337 H321 0.959 . S
C337 H322 0.959 . S
C337 H323 0.961 . S
C337 C336 1.502 . S
C338 H324 0.960 . S
C338 H325 0.961 . S
C338 H326 0.959 . S
C338 C336 1.561 . S
C339 C336 1.526 . S
C339 C340 1.396 . S
C339 C344 1.390 . S
C340 C334 1.465 . S
C340 C339 1.396 . S
C340 C341 1.399 . S
C341 H327 0.929 . S
C341 C340 1.399 . S
C341 C342 1.385 . S
C342 H328 0.931 . S
C342 C341 1.385 . S
C342 C343 1.389 . S
C343 C342 1.389 . S
C343 C344 1.387 . S
C344 H329 0.930 . S
C344 C339 1.390 . S
C344 C343 1.387 . S
H345 C357 0.930 . S
H346 C359 0.930 . S
H347 C360 0.930 . S
H348 C364 0.959 . S
H349 C364 0.959 . S
H350 C364 0.961 . S
H351 C365 0.960 . S
H352 C365 0.961 . S
H353 C365 0.959 . S
H354 C368 0.929 . S
H355 C369 0.931 . S
H356 C371 0.930 . S
C357 H345 0.930 . S
C357 C358 1.399 . S
C357 C362 1.399 . S
C358 C357 1.399 . S
C358 C359 1.376 . S
C359 H346 0.930 . S
C359 C358 1.376 . S
C359 C360 1.388 . S
C360 H347 0.930 . S
C360 C359 1.388 . S
C360 C361 1.390 . S
C361 C360 1.390 . S
C361 C362 1.394 . S
C361 C367 1.465 . S
C362 C357 1.399 . S
C362 C361 1.394 . S
C362 C363 1.516 . S
C363 C362 1.516 . S
C363 C364 1.502 . S
C363 C365 1.561 . S
C363 C366 1.526 . S
C364 H348 0.959 . S
C364 H349 0.959 . S
C364 H350 0.961 . S
C364 C363 1.502 . S
C365 H351 0.960 . S
C365 H352 0.961 . S
C365 H353 0.959 . S
C365 C363 1.561 . S
C366 C363 1.526 . S
C366 C367 1.396 . S
C366 C371 1.390 . S
C367 C361 1.465 . S
C367 C366 1.396 . S
C367 C368 1.399 . S
C368 H354 0.929 . S
C368 C367 1.399 . S
C368 C369 1.385 . S
C369 H355 0.931 . S
C369 C368 1.385 . S
C369 C370 1.389 . S
C370 C369 1.389 . S
C370 C371 1.387 . S
C371 H356 0.930 . S
C371 C366 1.390 . S
C371 C370 1.387 . S
H372 C384 0.930 . S
H373 C386 0.930 . S
H374 C387 0.930 . S
H375 C391 0.959 . S
H376 C391 0.959 . S
H377 C391 0.961 . S
H378 C392 0.960 . S
H379 C392 0.961 . S
H380 C392 0.959 . S
H381 C395 0.929 . S
H382 C396 0.931 1_545 S
H383 C398 0.930 . S
C384 H372 0.930 . S
C384 C385 1.399 . S
C384 C389 1.399 . S
C385 C384 1.399 . S
C385 C386 1.376 . S
C386 H373 0.930 . S
C386 C385 1.376 . S
C386 C387 1.388 . S
C387 H374 0.930 . S
C387 C386 1.388 . S
C387 C388 1.390 . S
C388 C387 1.390 . S
C388 C389 1.394 . S
C388 C394 1.465 . S
C389 C384 1.399 . S
C389 C388 1.394 . S
C389 C390 1.516 . S
C390 C389 1.516 . S
C390 C391 1.502 . S
C390 C392 1.561 . S
C390 C393 1.526 . S
C391 H375 0.959 . S
C391 H376 0.959 . S
C391 H377 0.961 . S
C391 C390 1.502 . S
C392 H378 0.960 . S
C392 H379 0.961 . S
C392 H380 0.959 . S
C392 C390 1.561 . S
C393 C390 1.526 . S
C393 C394 1.396 . S
C393 C398 1.390 . S
C394 C388 1.465 . S
C394 C393 1.396 . S
C394 C395 1.399 . S
C395 H381 0.929 . S
C395 C394 1.399 . S
C395 C396 1.385 . S
C396 H382 0.931 1_565 S
C396 C395 1.385 . S
C396 C397 1.389 . S
C397 C396 1.389 . S
C397 C398 1.387 . S
C398 H383 0.930 . S
C398 C393 1.390 . S
C398 C397 1.387 . S
H399 C411 0.930 . S
H400 C413 0.930 . S
H401 C414 0.930 . S
H402 C418 0.959 . S
H403 C418 0.959 . S
H404 C418 0.961 . S
H405 C419 0.960 . S
H406 C419 0.961 . S
H407 C419 0.959 . S
H408 C422 0.929 . S
H409 C423 0.931 . S
H410 C425 0.930 . S
C411 H399 0.930 . S
C411 C412 1.399 . S
C411 C416 1.399 . S
C412 C411 1.399 . S
C412 C413 1.376 . S
C413 H400 0.930 . S
C413 C412 1.376 . S
C413 C414 1.388 . S
C414 H401 0.930 . S
C414 C413 1.388 . S
C414 C415 1.390 . S
C415 C414 1.390 . S
C415 C416 1.394 . S
C415 C421 1.465 . S
C416 C411 1.399 . S
C416 C415 1.394 . S
C416 C417 1.516 . S
C417 C416 1.516 . S
C417 C418 1.502 . S
C417 C419 1.561 . S
C417 C420 1.526 . S
C418 H402 0.959 . S
C418 H403 0.959 . S
C418 H404 0.961 . S
C418 C417 1.502 . S
C419 H405 0.960 . S
C419 H406 0.961 . S
C419 H407 0.959 . S
C419 C417 1.561 . S
C420 C417 1.526 . S
C420 C421 1.396 . S
C420 C425 1.390 . S
C421 C415 1.465 . S
C421 C420 1.396 . S
C421 C422 1.399 . S
C422 H408 0.929 . S
C422 C421 1.399 . S
C422 C423 1.385 . S
C423 H409 0.931 . S
C423 C422 1.385 . S
C423 C424 1.389 . S
C424 C423 1.389 . S
C424 C425 1.387 . S
C425 H410 0.930 . S
C425 C420 1.390 . S
C425 C424 1.387 . S
H426 C438 0.930 . S
H427 C440 0.930 . S
H428 C441 0.930 . S
H429 C445 0.959 . S
H430 C445 0.959 . S
H431 C445 0.961 . S
H432 C446 0.960 . S
H433 C446 0.961 . S
H434 C446 0.959 . S
H435 C449 0.929 . S
H436 C450 0.931 . S
H437 C452 0.930 . S
C438 H426 0.930 . S
C438 C439 1.399 . S
C438 C443 1.399 . S
C439 C438 1.399 . S
C439 C440 1.376 . S
C440 H427 0.930 . S
C440 C439 1.376 . S
C440 C441 1.388 . S
C441 H428 0.930 . S
C441 C440 1.388 . S
C441 C442 1.390 . S
C442 C441 1.390 . S
C442 C443 1.394 . S
C442 C448 1.465 . S
C443 C438 1.399 . S
C443 C442 1.394 . S
C443 C444 1.516 . S
C444 C443 1.516 . S
C444 C445 1.502 . S
C444 C446 1.561 . S
C444 C447 1.526 . S
C445 H429 0.959 . S
C445 H430 0.959 . S
C445 H431 0.961 . S
C445 C444 1.502 . S
C446 H432 0.960 . S
C446 H433 0.961 . S
C446 H434 0.959 . S
C446 C444 1.561 . S
C447 C444 1.526 . S
C447 C448 1.396 . S
C447 C452 1.390 . S
C448 C442 1.465 . S
C448 C447 1.396 . S
C448 C449 1.399 . S
C449 H435 0.929 . S
C449 C448 1.399 . S
C449 C450 1.385 . S
C450 H436 0.931 . S
C450 C449 1.385 . S
C450 C451 1.389 . S
C451 C450 1.389 . S
C451 C452 1.387 . S
C452 H437 0.930 . S
C452 C447 1.390 . S
C452 C451 1.387 . S
H453 C465 0.930 . S
H454 C467 0.930 . S
H455 C468 0.930 . S
H456 C472 0.959 . S
H457 C472 0.959 . S
H458 C472 0.961 . S
H459 C473 0.960 . S
H460 C473 0.961 . S
H461 C473 0.959 . S
H462 C476 0.929 . S
H463 C477 0.931 . S
H464 C479 0.930 . S
C465 H453 0.930 . S
C465 C466 1.399 . S
C465 C470 1.399 . S
C466 C465 1.399 . S
C466 C467 1.376 . S
C467 H454 0.930 . S
C467 C466 1.376 . S
C467 C468 1.388 . S
C468 H455 0.930 . S
C468 C467 1.388 . S
C468 C469 1.390 . S
C469 C468 1.390 . S
C469 C470 1.394 . S
C469 C475 1.465 . S
C470 C465 1.399 . S
C470 C469 1.394 . S
C470 C471 1.516 . S
C471 C470 1.516 . S
C471 C472 1.502 . S
C471 C473 1.561 . S
C471 C474 1.526 . S
C472 H456 0.959 . S
C472 H457 0.959 . S
C472 H458 0.961 . S
C472 C471 1.502 . S
C473 H459 0.960 . S
C473 H460 0.961 . S
C473 H461 0.959 . S
C473 C471 1.561 . S
C474 C471 1.526 . S
C474 C475 1.396 . S
C474 C479 1.390 . S
C475 C469 1.465 . S
C475 C474 1.396 . S
C475 C476 1.399 . S
C476 H462 0.929 . S
C476 C475 1.399 . S
C476 C477 1.385 . S
C477 H463 0.931 . S
C477 C476 1.385 . S
C477 C478 1.389 . S
C478 C477 1.389 . S
C478 C479 1.387 . S
C479 H464 0.930 . S
C479 C474 1.390 . S
C479 C478 1.387 . S
H480 C492 0.930 . S
H481 C494 0.930 . S
H482 C495 0.930 . S
H483 C499 0.959 . S
H484 C499 0.959 . S
H485 C499 0.961 . S
H486 C500 0.960 . S
H487 C500 0.961 . S
H488 C500 0.959 . S
H489 C503 0.929 . S
H490 C504 0.931 . S
H491 C506 0.930 . S
C492 H480 0.930 . S
C492 C493 1.399 . S
C492 C497 1.399 . S
C493 C492 1.399 . S
C493 C494 1.376 . S
C494 H481 0.930 . S
C494 C493 1.376 . S
C494 C495 1.388 . S
C495 H482 0.930 . S
C495 C494 1.388 . S
C495 C496 1.390 . S
C496 C495 1.390 . S
C496 C497 1.394 . S
C496 C502 1.465 . S
C497 C492 1.399 . S
C497 C496 1.394 . S
C497 C498 1.516 . S
C498 C497 1.516 . S
C498 C499 1.502 . S
C498 C500 1.561 . S
C498 C501 1.526 . S
C499 H483 0.959 . S
C499 H484 0.959 . S
C499 H485 0.961 . S
C499 C498 1.502 . S
C500 H486 0.960 . S
C500 H487 0.961 . S
C500 H488 0.959 . S
C500 C498 1.561 . S
C501 C498 1.526 . S
C501 C502 1.396 . S
C501 C506 1.390 . S
C502 C496 1.465 . S
C502 C501 1.396 . S
C502 C503 1.399 . S
C503 H489 0.929 . S
C503 C502 1.399 . S
C503 C504 1.385 . S
C504 H490 0.931 . S
C504 C503 1.385 . S
C504 C505 1.389 . S
C505 C504 1.389 . S
C505 C506 1.387 . S
C506 H491 0.930 . S
C506 C501 1.390 . S
C506 C505 1.387 . S
H507 C519 0.930 . S
H508 C521 0.930 . S
H509 C522 0.930 . S
H510 C526 0.959 . S
H511 C526 0.959 . S
H512 C526 0.961 . S
H513 C527 0.960 . S
H514 C527 0.961 . S
H515 C527 0.959 . S
H516 C530 0.929 . S
H517 C531 0.931 1_554 S
H518 C533 0.930 . S
C519 H507 0.930 . S
C519 C520 1.399 . S
C519 C524 1.399 . S
C520 C519 1.399 . S
C520 C521 1.376 . S
C521 H508 0.930 . S
C521 C520 1.376 . S
C521 C522 1.388 . S
C522 H509 0.930 . S
C522 C521 1.388 . S
C522 C523 1.390 . S
C523 C522 1.390 . S
C523 C524 1.394 . S
C523 C529 1.465 . S
C524 C519 1.399 . S
C524 C523 1.394 . S
C524 C525 1.516 . S
C525 C524 1.516 . S
C525 C526 1.502 . S
C525 C527 1.561 . S
C525 C528 1.526 . S
C526 H510 0.959 . S
C526 H511 0.959 . S
C526 H512 0.961 . S
C526 C525 1.502 . S
C527 H513 0.960 . S
C527 H514 0.961 . S
C527 H515 0.959 . S
C527 C525 1.561 . S
C528 C525 1.526 . S
C528 C529 1.396 . S
C528 C533 1.390 . S
C529 C523 1.465 . S
C529 C528 1.396 . S
C529 C530 1.399 . S
C530 H516 0.929 . S
C530 C529 1.399 . S
C530 C531 1.385 . S
C531 H517 0.931 1_556 S
C531 C530 1.385 . S
C531 C532 1.389 . S
C532 C531 1.389 . S
C532 C533 1.387 . S
C533 H518 0.930 . S
C533 C528 1.390 . S
C533 C532 1.387 . S
H534 C546 0.930 . S
H535 C548 0.930 . S
H536 C549 0.930 . S
H537 C553 0.959 . S
H538 C553 0.959 . S
H539 C553 0.961 . S
H540 C554 0.960 . S
H541 C554 0.961 . S
H542 C554 0.959 . S
H543 C557 0.929 . S
H544 C558 0.931 . S
H545 C560 0.930 . S
C546 H534 0.930 . S
C546 C547 1.399 . S
C546 C551 1.399 . S
C547 C546 1.399 . S
C547 C548 1.376 . S
C548 H535 0.930 . S
C548 C547 1.376 . S
C548 C549 1.388 . S
C549 H536 0.930 . S
C549 C548 1.388 . S
C549 C550 1.390 . S
C550 C549 1.390 . S
C550 C551 1.394 . S
C550 C556 1.465 . S
C551 C546 1.399 . S
C551 C550 1.394 . S
C551 C552 1.516 . S
C552 C551 1.516 . S
C552 C553 1.502 . S
C552 C554 1.561 . S
C552 C555 1.526 . S
C553 H537 0.959 . S
C553 H538 0.959 . S
C553 H539 0.961 . S
C553 C552 1.502 . S
C554 H540 0.960 . S
C554 H541 0.961 . S
C554 H542 0.959 . S
C554 C552 1.561 . S
C555 C552 1.526 . S
C555 C556 1.396 . S
C555 C560 1.390 . S
C556 C550 1.465 . S
C556 C555 1.396 . S
C556 C557 1.399 . S
C557 H543 0.929 . S
C557 C556 1.399 . S
C557 C558 1.385 . S
C558 H544 0.931 . S
C558 C557 1.385 . S
C558 C559 1.389 . S
C559 C558 1.389 . S
C559 C560 1.387 . S
C560 H545 0.930 . S
C560 C555 1.390 . S
C560 C559 1.387 . S
H561 C573 0.930 . S
H562 C575 0.930 . S
H563 C576 0.930 . S
H564 C580 0.959 . S
H565 C580 0.959 . S
H566 C580 0.961 . S
H567 C581 0.960 . S
H568 C581 0.961 . S
H569 C581 0.959 . S
H570 C584 0.929 . S
H571 C585 0.931 . S
H572 C587 0.930 . S
C573 H561 0.930 . S
C573 C574 1.399 . S
C573 C578 1.399 . S
C574 C573 1.399 . S
C574 C575 1.376 . S
C575 H562 0.930 . S
C575 C574 1.376 . S
C575 C576 1.388 . S
C576 H563 0.930 . S
C576 C575 1.388 . S
C576 C577 1.390 . S
C577 C576 1.390 . S
C577 C578 1.394 . S
C577 C583 1.465 . S
C578 C573 1.399 . S
C578 C577 1.394 . S
C578 C579 1.516 . S
C579 C578 1.516 . S
C579 C580 1.502 . S
C579 C581 1.561 . S
C579 C582 1.526 . S
C580 H564 0.959 . S
C580 H565 0.959 . S
C580 H566 0.961 . S
C580 C579 1.502 . S
C581 H567 0.960 . S
C581 H568 0.961 . S
C581 H569 0.959 . S
C581 C579 1.561 . S
C582 C579 1.526 . S
C582 C583 1.396 . S
C582 C587 1.390 . S
C583 C577 1.465 . S
C583 C582 1.396 . S
C583 C584 1.399 . S
C584 H570 0.929 . S
C584 C583 1.399 . S
C584 C585 1.385 . S
C585 H571 0.931 . S
C585 C584 1.385 . S
C585 C586 1.389 . S
C586 C585 1.389 . S
C586 C587 1.387 . S
C587 H572 0.930 . S
C587 C582 1.390 . S
C587 C586 1.387 . S
H588 C600 0.930 . S
H589 C602 0.930 . S
H590 C603 0.930 . S
H591 C607 0.959 . S
H592 C607 0.959 . S
H593 C607 0.961 . S
H594 C608 0.960 . S
H595 C608 0.961 . S
H596 C608 0.959 . S
H597 C611 0.929 . S
H598 C612 0.931 . S
H599 C614 0.930 . S
C600 H588 0.930 . S
C600 C601 1.399 . S
C600 C605 1.399 . S
C601 C600 1.399 . S
C601 C602 1.376 . S
C602 H589 0.930 . S
C602 C601 1.376 . S
C602 C603 1.388 . S
C603 H590 0.930 . S
C603 C602 1.388 . S
C603 C604 1.390 . S
C604 C603 1.390 . S
C604 C605 1.394 . S
C604 C610 1.465 . S
C605 C600 1.399 . S
C605 C604 1.394 . S
C605 C606 1.516 . S
C606 C605 1.516 . S
C606 C607 1.502 . S
C606 C608 1.561 . S
C606 C609 1.526 . S
C607 H591 0.959 . S
C607 H592 0.959 . S
C607 H593 0.961 . S
C607 C606 1.502 . S
C608 H594 0.960 . S
C608 H595 0.961 . S
C608 H596 0.959 . S
C608 C606 1.561 . S
C609 C606 1.526 . S
C609 C610 1.396 . S
C609 C614 1.390 . S
C610 C604 1.465 . S
C610 C609 1.396 . S
C610 C611 1.399 . S
C611 H597 0.929 . S
C611 C610 1.399 . S
C611 C612 1.385 . S
C612 H598 0.931 . S
C612 C611 1.385 . S
C612 C613 1.389 . S
C613 C612 1.389 . S
C613 C614 1.387 . S
C614 H599 0.930 . S
C614 C609 1.390 . S
C614 C613 1.387 . S
H615 C627 0.930 . S
H616 C629 0.930 . S
H617 C630 0.930 . S
H618 C634 0.959 . S
H619 C634 0.959 . S
H620 C634 0.961 . S
H621 C635 0.960 . S
H622 C635 0.961 . S
H623 C635 0.959 . S
H624 C638 0.929 . S
H625 C639 0.931 . S
H626 C641 0.930 . S
C627 H615 0.930 . S
C627 C628 1.399 . S
C627 C632 1.399 . S
C628 C627 1.399 . S
C628 C629 1.376 . S
C629 H616 0.930 . S
C629 C628 1.376 . S
C629 C630 1.388 . S
C630 H617 0.930 . S
C630 C629 1.388 . S
C630 C631 1.390 . S
C631 C630 1.390 . S
C631 C632 1.394 . S
C631 C637 1.465 . S
C632 C627 1.399 . S
C632 C631 1.394 . S
C632 C633 1.516 . S
C633 C632 1.516 . S
C633 C634 1.502 . S
C633 C635 1.561 . S
C633 C636 1.526 . S
C634 H618 0.959 . S
C634 H619 0.959 . S
C634 H620 0.961 . S
C634 C633 1.502 . S
C635 H621 0.960 . S
C635 H622 0.961 . S
C635 H623 0.959 . S
C635 C633 1.561 . S
C636 C633 1.526 . S
C636 C637 1.396 . S
C636 C641 1.390 . S
C637 C631 1.465 . S
C637 C636 1.396 . S
C637 C638 1.399 . S
C638 H624 0.929 . S
C638 C637 1.399 . S
C638 C639 1.385 . S
C639 H625 0.931 . S
C639 C638 1.385 . S
C639 C640 1.389 . S
C640 C639 1.389 . S
C640 C641 1.387 . S
C641 H626 0.930 . S
C641 C636 1.390 . S
C641 C640 1.387 . S
H642 C654 0.930 . S
H643 C656 0.930 . S
H644 C657 0.930 . S
H645 C661 0.959 . S
H646 C661 0.959 . S
H647 C661 0.961 . S
H648 C662 0.960 . S
H649 C662 0.961 . S
H650 C662 0.959 . S
H651 C665 0.929 . S
H652 C666 0.931 . S
H653 C668 0.930 . S
C654 H642 0.930 . S
C654 C655 1.399 . S
C654 C659 1.399 . S
C655 C654 1.399 . S
C655 C656 1.376 . S
C656 H643 0.930 . S
C656 C655 1.376 . S
C656 C657 1.388 . S
C657 H644 0.930 . S
C657 C656 1.388 . S
C657 C658 1.390 . S
C658 C657 1.390 . S
C658 C659 1.394 . S
C658 C664 1.465 . S
C659 C654 1.399 . S
C659 C658 1.394 . S
C659 C660 1.516 . S
C660 C659 1.516 . S
C660 C661 1.502 . S
C660 C662 1.561 . S
C660 C663 1.526 . S
C661 H645 0.959 . S
C661 H646 0.959 . S
C661 H647 0.961 . S
C661 C660 1.502 . S
C662 H648 0.960 . S
C662 H649 0.961 . S
C662 H650 0.959 . S
C662 C660 1.561 . S
C663 C660 1.526 . S
C663 C664 1.396 . S
C663 C668 1.390 . S
C664 C658 1.465 . S
C664 C663 1.396 . S
C664 C665 1.399 . S
C665 H651 0.929 . S
C665 C664 1.399 . S
C665 C666 1.385 . S
C666 H652 0.931 . S
C666 C665 1.385 . S
C666 C667 1.389 . S
C667 C666 1.389 . S
C667 C668 1.387 . S
C668 H653 0.930 . S
C668 C663 1.390 . S
C668 C667 1.387 . S
H669 C681 0.930 . S
H670 C683 0.930 . S
H671 C684 0.930 . S
H672 C688 0.959 . S
H673 C688 0.959 . S
H674 C688 0.961 . S
H675 C689 0.960 . S
H676 C689 0.961 . S
H677 C689 0.959 . S
H678 C692 0.929 . S
H679 C693 0.931 . S
H680 C695 0.930 . S
C681 H669 0.930 . S
C681 C682 1.399 . S
C681 C686 1.399 . S
C682 C681 1.399 . S
C682 C683 1.376 . S
C683 H670 0.930 . S
C683 C682 1.376 . S
C683 C684 1.388 . S
C684 H671 0.930 . S
C684 C683 1.388 . S
C684 C685 1.390 . S
C685 C684 1.390 . S
C685 C686 1.394 . S
C685 C691 1.465 . S
C686 C681 1.399 . S
C686 C685 1.394 . S
C686 C687 1.516 . S
C687 C686 1.516 . S
C687 C688 1.502 . S
C687 C689 1.561 . S
C687 C690 1.526 . S
C688 H672 0.959 . S
C688 H673 0.959 . S
C688 H674 0.961 . S
C688 C687 1.502 . S
C689 H675 0.960 . S
C689 H676 0.961 . S
C689 H677 0.959 . S
C689 C687 1.561 . S
C690 C687 1.526 . S
C690 C691 1.396 . S
C690 C695 1.390 . S
C691 C685 1.465 . S
C691 C690 1.396 . S
C691 C692 1.399 . S
C692 H678 0.929 . S
C692 C691 1.399 . S
C692 C693 1.385 . S
C693 H679 0.931 . S
C693 C692 1.385 . S
C693 C694 1.389 . S
C694 C693 1.389 . S
C694 C695 1.387 . S
C695 H680 0.930 . S
C695 C690 1.390 . S
C695 C694 1.387 . S
H696 C708 0.930 . S
H697 C710 0.930 . S
H698 C711 0.930 . S
H699 C715 0.959 . S
H700 C715 0.959 . S
H701 C715 0.961 . S
H702 C716 0.960 . S
H703 C716 0.961 . S
H704 C716 0.959 . S
H705 C719 0.929 . S
H706 C720 0.931 . S
H707 C722 0.930 . S
C708 H696 0.930 . S
C708 C709 1.399 . S
C708 C713 1.399 . S
C709 C708 1.399 . S
C709 C710 1.376 . S
C710 H697 0.930 . S
C710 C709 1.376 . S
C710 C711 1.388 . S
C711 H698 0.930 . S
C711 C710 1.388 . S
C711 C712 1.390 . S
C712 C711 1.390 . S
C712 C713 1.394 . S
C712 C718 1.465 . S
C713 C708 1.399 . S
C713 C712 1.394 . S
C713 C714 1.516 . S
C714 C713 1.516 . S
C714 C715 1.502 . S
C714 C716 1.561 . S
C714 C717 1.526 . S
C715 H699 0.959 . S
C715 H700 0.959 . S
C715 H701 0.961 . S
C715 C714 1.502 . S
C716 H702 0.960 . S
C716 H703 0.961 . S
C716 H704 0.959 . S
C716 C714 1.561 . S
C717 C714 1.526 . S
C717 C718 1.396 . S
C717 C722 1.390 . S
C718 C712 1.465 . S
C718 C717 1.396 . S
C718 C719 1.399 . S
C719 H705 0.929 . S
C719 C718 1.399 . S
C719 C720 1.385 . S
C720 H706 0.931 . S
C720 C719 1.385 . S
C720 C721 1.389 . S
C721 C720 1.389 . S
C721 C722 1.387 . S
C722 H707 0.930 . S
C722 C717 1.390 . S
C722 C721 1.387 . S
H723 C735 0.930 . S
H724 C737 0.930 . S
H725 C738 0.930 . S
H726 C742 0.959 . S
H727 C742 0.959 . S
H728 C742 0.961 . S
H729 C743 0.960 . S
H730 C743 0.961 . S
H731 C743 0.959 . S
H732 C746 0.929 . S
H733 C747 0.931 . S
H734 C749 0.930 . S
C735 H723 0.930 . S
C735 C736 1.399 . S
C735 C740 1.399 . S
C736 C735 1.399 . S
C736 C737 1.376 . S
C737 H724 0.930 . S
C737 C736 1.376 . S
C737 C738 1.388 . S
C738 H725 0.930 . S
C738 C737 1.388 . S
C738 C739 1.390 . S
C739 C738 1.390 . S
C739 C740 1.394 . S
C739 C745 1.465 . S
C740 C735 1.399 . S
C740 C739 1.394 . S
C740 C741 1.516 . S
C741 C740 1.516 . S
C741 C742 1.502 . S
C741 C743 1.561 . S
C741 C744 1.526 . S
C742 H726 0.959 . S
C742 H727 0.959 . S
C742 H728 0.961 . S
C742 C741 1.502 . S
C743 H729 0.960 . S
C743 H730 0.961 . S
C743 H731 0.959 . S
C743 C741 1.561 . S
C744 C741 1.526 . S
C744 C745 1.396 . S
C744 C749 1.390 . S
C745 C739 1.465 . S
C745 C744 1.396 . S
C745 C746 1.399 . S
C746 H732 0.929 . S
C746 C745 1.399 . S
C746 C747 1.385 . S
C747 H733 0.931 . S
C747 C746 1.385 . S
C747 C748 1.389 . S
C748 C747 1.389 . S
C748 C749 1.387 . S
C749 H734 0.930 . S
C749 C744 1.390 . S
C749 C748 1.387 . S
H750 C762 0.930 . S
H751 C764 0.930 . S
H752 C765 0.930 . S
H753 C769 0.959 . S
H754 C769 0.959 . S
H755 C769 0.961 . S
H756 C770 0.960 . S
H757 C770 0.961 . S
H758 C770 0.959 . S
H759 C773 0.929 . S
H760 C774 0.931 . S
H761 C776 0.930 . S
C762 H750 0.930 . S
C762 C763 1.399 . S
C762 C767 1.399 . S
C763 C762 1.399 . S
C763 C764 1.376 . S
C764 H751 0.930 . S
C764 C763 1.376 . S
C764 C765 1.388 . S
C765 H752 0.930 . S
C765 C764 1.388 . S
C765 C766 1.390 . S
C766 C765 1.390 . S
C766 C767 1.394 . S
C766 C772 1.465 . S
C767 C762 1.399 . S
C767 C766 1.394 . S
C767 C768 1.516 . S
C768 C767 1.516 . S
C768 C769 1.502 . S
C768 C770 1.561 . S
C768 C771 1.526 . S
C769 H753 0.959 . S
C769 H754 0.959 . S
C769 H755 0.961 . S
C769 C768 1.502 . S
C770 H756 0.960 . S
C770 H757 0.961 . S
C770 H758 0.959 . S
C770 C768 1.561 . S
C771 C768 1.526 . S
C771 C772 1.396 . S
C771 C776 1.390 . S
C772 C766 1.465 . S
C772 C771 1.396 . S
C772 C773 1.399 . S
C773 H759 0.929 . S
C773 C772 1.399 . S
C773 C774 1.385 . S
C774 H760 0.931 . S
C774 C773 1.385 . S
C774 C775 1.389 . S
C775 C774 1.389 . S
C775 C776 1.387 . S
C776 H761 0.930 . S
C776 C771 1.390 . S
C776 C775 1.387 . S
H777 C789 0.930 . S
H778 C791 0.930 . S
H779 C792 0.930 . S
H780 C796 0.959 . S
H781 C796 0.959 . S
H782 C796 0.961 . S
H783 C797 0.960 . S
H784 C797 0.961 . S
H785 C797 0.959 . S
H786 C800 0.929 . S
H787 C801 0.931 . S
H788 C803 0.930 . S
C789 H777 0.930 . S
C789 C790 1.399 . S
C789 C794 1.399 . S
C790 C789 1.399 . S
C790 C791 1.376 . S
C791 H778 0.930 . S
C791 C790 1.376 . S
C791 C792 1.388 . S
C792 H779 0.930 . S
C792 C791 1.388 . S
C792 C793 1.390 . S
C793 C792 1.390 . S
C793 C794 1.394 . S
C793 C799 1.465 . S
C794 C789 1.399 . S
C794 C793 1.394 . S
C794 C795 1.516 . S
C795 C794 1.516 . S
C795 C796 1.502 . S
C795 C797 1.561 . S
C795 C798 1.526 . S
C796 H780 0.959 . S
C796 H781 0.959 . S
C796 H782 0.961 . S
C796 C795 1.502 . S
C797 H783 0.960 . S
C797 H784 0.961 . S
C797 H785 0.959 . S
C797 C795 1.561 . S
C798 C795 1.526 . S
C798 C799 1.396 . S
C798 C803 1.390 . S
C799 C793 1.465 . S
C799 C798 1.396 . S
C799 C800 1.399 . S
C800 H786 0.929 . S
C800 C799 1.399 . S
C800 C801 1.385 . S
C801 H787 0.931 . S
C801 C800 1.385 . S
C801 C802 1.389 . S
C802 C801 1.389 . S
C802 C803 1.387 . S
C803 H788 0.930 . S
C803 C798 1.390 . S
C803 C802 1.387 . S
C169 C108 1.344 . S
C181 C4 1.343 . S
C196 C23 1.342 . S
C208 C127 1.336 . S
C223 C36 1.325 . S
C235 C134 1.320 . S
C250 C49 1.336 . S
C262 C153 1.328 . S
C277 C82 1.344 . S
C289 C56 1.343 . S
C304 C75 1.327 . S
C316 C95 1.321 . S
C331 C10 1.534 . S
C343 C70 1.528 . S
C358 C17 1.526 . S
C370 C3 1.506 . S
C385 C30 1.530 . S
C397 C18 1.497 . S
C412 C31 1.521 . S
C424 C43 1.544 . S
C439 C44 1.502 . S
C451 C62 1.527 . S
C466 C55 1.526 . S
C478 C69 1.528 . S
C493 C94 1.498 . S
C505 C88 1.535 . S
C520 C101 1.537 . S
C532 C107 1.566 . S
C547 C122 1.535 . S
C559 C114 1.544 . S
C574 C121 1.528 . S
C586 C133 1.526 . S
C601 C140 1.535 . S
C613 C148 1.539 . S
C628 C147 1.543 . S
C640 C81 1.537 . S
C655 C135 1.299 . S
C667 C5 1.295 . S
C682 C146 1.297 . S
C694 C16 1.300 . S
C709 C83 1.295 . S
C721 C29 1.289 . S
C736 C42 1.298 . S
C748 C96 1.300 . S
C763 C57 1.292 . S
C775 C109 1.287 . S
C790 C120 1.291 . S
C802 C68 1.297 . S
