# Generated by pormake.
# Topology wna, (6)-cn, num edge types: 1
# Building blocks:
#     Node 0, Type 0, BuildingBlock: BETDEL_clean_sbu_0, # of connection points: 6
#     Node 1, Type 0, BuildingBlock: BETDEL_clean_sbu_0, # of connection points: 6
#     Node 2, Type 0, BuildingBlock: BETDEL_clean_sbu_0, # of connection points: 6
#     Node 3, Type 0, BuildingBlock: BETDEL_clean_sbu_0, # of connection points: 6
#     Node 4, Type 0, BuildingBlock: BETDEL_clean_sbu_0, # of connection points: 6
#     Node 5, Type 0, BuildingBlock: BETDEL_clean_sbu_0, # of connection points: 6
#     Node 6, Type 0, BuildingBlock: BETDEL_clean_sbu_0, # of connection points: 6
#     Node 7, Type 0, BuildingBlock: BETDEL_clean_sbu_0, # of connection points: 6
#     Node 8, Type 0, BuildingBlock: BETDEL_clean_sbu_0, # of connection points: 6
#     Node 9, Type 0, BuildingBlock: BETDEL_clean_sbu_0, # of connection points: 6
#     Node 10, Type 0, BuildingBlock: BETDEL_clean_sbu_0, # of connection points: 6
#     Node 11, Type 0, BuildingBlock: BETDEL_clean_sbu_0, # of connection points: 6
#     Node 12, Type 0, BuildingBlock: BETDEL_clean_sbu_0, # of connection points: 6
#     Node 13, Type 0, BuildingBlock: BETDEL_clean_sbu_0, # of connection points: 6
#     Node 14, Type 0, BuildingBlock: BETDEL_clean_sbu_0, # of connection points: 6
#     Node 15, Type 0, BuildingBlock: BETDEL_clean_sbu_0, # of connection points: 6
#     Node 16, Type 0, BuildingBlock: BETDEL_clean_sbu_0, # of connection points: 6
#     Node 17, Type 0, BuildingBlock: BETDEL_clean_sbu_0, # of connection points: 6
#     Node 18, Type 0, BuildingBlock: BETDEL_clean_sbu_0, # of connection points: 6
#     Node 19, Type 0, BuildingBlock: BETDEL_clean_sbu_0, # of connection points: 6
#     Node 20, Type 0, BuildingBlock: BETDEL_clean_sbu_0, # of connection points: 6
#     Node 21, Type 0, BuildingBlock: BETDEL_clean_sbu_0, # of connection points: 6
#     Node 22, Type 0, BuildingBlock: BETDEL_clean_sbu_0, # of connection points: 6
#     Node 23, Type 0, BuildingBlock: BETDEL_clean_sbu_0, # of connection points: 6
#     Node 24, Type 0, BuildingBlock: BETDEL_clean_sbu_0, # of connection points: 6
#     Node 25, Type 0, BuildingBlock: BETDEL_clean_sbu_0, # of connection points: 6
#     Node 26, Type 0, BuildingBlock: BETDEL_clean_sbu_0, # of connection points: 6
#     Node 27, Type 0, BuildingBlock: BETDEL_clean_sbu_0, # of connection points: 6
#     Node 28, Type 0, BuildingBlock: BETDEL_clean_sbu_0, # of connection points: 6
#     Node 29, Type 0, BuildingBlock: BETDEL_clean_sbu_0, # of connection points: 6
#     Node 30, Type 0, BuildingBlock: BETDEL_clean_sbu_0, # of connection points: 6
#     Node 31, Type 0, BuildingBlock: BETDEL_clean_sbu_0, # of connection points: 6
#     Node 32, Type 0, BuildingBlock: BETDEL_clean_sbu_0, # of connection points: 6
#     Node 33, Type 0, BuildingBlock: BETDEL_clean_sbu_0, # of connection points: 6
#     Node 34, Type 0, BuildingBlock: BETDEL_clean_sbu_0, # of connection points: 6
#     Node 35, Type 0, BuildingBlock: BETDEL_clean_sbu_0, # of connection points: 6
#     Edge 36, Type (0, 0), BuildingBlock: OJICUG_clean_linker_0, # of connection points: 2
#     Edge 37, Type (0, 0), BuildingBlock: OJICUG_clean_linker_0, # of connection points: 2
#     Edge 38, Type (0, 0), BuildingBlock: OJICUG_clean_linker_0, # of connection points: 2
#     Edge 39, Type (0, 0), BuildingBlock: OJICUG_clean_linker_0, # of connection points: 2
#     Edge 40, Type (0, 0), BuildingBlock: OJICUG_clean_linker_0, # of connection points: 2
#     Edge 41, Type (0, 0), BuildingBlock: OJICUG_clean_linker_0, # of connection points: 2
#     Edge 42, Type (0, 0), BuildingBlock: OJICUG_clean_linker_0, # of connection points: 2
#     Edge 43, Type (0, 0), BuildingBlock: OJICUG_clean_linker_0, # of connection points: 2
#     Edge 44, Type (0, 0), BuildingBlock: OJICUG_clean_linker_0, # of connection points: 2
#     Edge 45, Type (0, 0), BuildingBlock: OJICUG_clean_linker_0, # of connection points: 2
#     Edge 46, Type (0, 0), BuildingBlock: OJICUG_clean_linker_0, # of connection points: 2
#     Edge 47, Type (0, 0), BuildingBlock: OJICUG_clean_linker_0, # of connection points: 2
#     Edge 48, Type (0, 0), BuildingBlock: OJICUG_clean_linker_0, # of connection points: 2
#     Edge 49, Type (0, 0), BuildingBlock: OJICUG_clean_linker_0, # of connection points: 2
#     Edge 50, Type (0, 0), BuildingBlock: OJICUG_clean_linker_0, # of connection points: 2
#     Edge 51, Type (0, 0), BuildingBlock: OJICUG_clean_linker_0, # of connection points: 2
#     Edge 52, Type (0, 0), BuildingBlock: OJICUG_clean_linker_0, # of connection points: 2
#     Edge 53, Type (0, 0), BuildingBlock: OJICUG_clean_linker_0, # of connection points: 2
#     Edge 54, Type (0, 0), BuildingBlock: OJICUG_clean_linker_0, # of connection points: 2
#     Edge 55, Type (0, 0), BuildingBlock: OJICUG_clean_linker_0, # of connection points: 2
#     Edge 56, Type (0, 0), BuildingBlock: OJICUG_clean_linker_0, # of connection points: 2
#     Edge 57, Type (0, 0), BuildingBlock: OJICUG_clean_linker_0, # of connection points: 2
#     Edge 58, Type (0, 0), BuildingBlock: OJICUG_clean_linker_0, # of connection points: 2
#     Edge 59, Type (0, 0), BuildingBlock: OJICUG_clean_linker_0, # of connection points: 2
#     Edge 60, Type (0, 0), BuildingBlock: OJICUG_clean_linker_0, # of connection points: 2
#     Edge 61, Type (0, 0), BuildingBlock: OJICUG_clean_linker_0, # of connection points: 2
#     Edge 62, Type (0, 0), BuildingBlock: OJICUG_clean_linker_0, # of connection points: 2
#     Edge 63, Type (0, 0), BuildingBlock: OJICUG_clean_linker_0, # of connection points: 2
#     Edge 64, Type (0, 0), BuildingBlock: OJICUG_clean_linker_0, # of connection points: 2
#     Edge 65, Type (0, 0), BuildingBlock: OJICUG_clean_linker_0, # of connection points: 2
#     Edge 66, Type (0, 0), BuildingBlock: OJICUG_clean_linker_0, # of connection points: 2
#     Edge 67, Type (0, 0), BuildingBlock: OJICUG_clean_linker_0, # of connection points: 2
#     Edge 68, Type (0, 0), BuildingBlock: OJICUG_clean_linker_0, # of connection points: 2
#     Edge 69, Type (0, 0), BuildingBlock: OJICUG_clean_linker_0, # of connection points: 2
#     Edge 70, Type (0, 0), BuildingBlock: OJICUG_clean_linker_0, # of connection points: 2
#     Edge 71, Type (0, 0), BuildingBlock: OJICUG_clean_linker_0, # of connection points: 2
#     Edge 72, Type (0, 0), BuildingBlock: OJICUG_clean_linker_0, # of connection points: 2
#     Edge 73, Type (0, 0), BuildingBlock: OJICUG_clean_linker_0, # of connection points: 2
#     Edge 74, Type (0, 0), BuildingBlock: OJICUG_clean_linker_0, # of connection points: 2
#     Edge 75, Type (0, 0), BuildingBlock: OJICUG_clean_linker_0, # of connection points: 2
#     Edge 76, Type (0, 0), BuildingBlock: OJICUG_clean_linker_0, # of connection points: 2
#     Edge 77, Type (0, 0), BuildingBlock: OJICUG_clean_linker_0, # of connection points: 2
#     Edge 78, Type (0, 0), BuildingBlock: OJICUG_clean_linker_0, # of connection points: 2
#     Edge 79, Type (0, 0), BuildingBlock: OJICUG_clean_linker_0, # of connection points: 2
#     Edge 80, Type (0, 0), BuildingBlock: OJICUG_clean_linker_0, # of connection points: 2
#     Edge 81, Type (0, 0), BuildingBlock: OJICUG_clean_linker_0, # of connection points: 2
#     Edge 82, Type (0, 0), BuildingBlock: OJICUG_clean_linker_0, # of connection points: 2
#     Edge 83, Type (0, 0), BuildingBlock: OJICUG_clean_linker_0, # of connection points: 2
#     Edge 84, Type (0, 0), BuildingBlock: OJICUG_clean_linker_0, # of connection points: 2
#     Edge 85, Type (0, 0), BuildingBlock: OJICUG_clean_linker_0, # of connection points: 2
#     Edge 86, Type (0, 0), BuildingBlock: OJICUG_clean_linker_0, # of connection points: 2
#     Edge 87, Type (0, 0), BuildingBlock: OJICUG_clean_linker_0, # of connection points: 2
#     Edge 88, Type (0, 0), BuildingBlock: OJICUG_clean_linker_0, # of connection points: 2
#     Edge 89, Type (0, 0), BuildingBlock: OJICUG_clean_linker_0, # of connection points: 2
#     Edge 90, Type (0, 0), BuildingBlock: OJICUG_clean_linker_0, # of connection points: 2
#     Edge 91, Type (0, 0), BuildingBlock: OJICUG_clean_linker_0, # of connection points: 2
#     Edge 92, Type (0, 0), BuildingBlock: OJICUG_clean_linker_0, # of connection points: 2
#     Edge 93, Type (0, 0), BuildingBlock: OJICUG_clean_linker_0, # of connection points: 2
#     Edge 94, Type (0, 0), BuildingBlock: OJICUG_clean_linker_0, # of connection points: 2
#     Edge 95, Type (0, 0), BuildingBlock: OJICUG_clean_linker_0, # of connection points: 2
#     Edge 96, Type (0, 0), BuildingBlock: OJICUG_clean_linker_0, # of connection points: 2
#     Edge 97, Type (0, 0), BuildingBlock: OJICUG_clean_linker_0, # of connection points: 2
#     Edge 98, Type (0, 0), BuildingBlock: OJICUG_clean_linker_0, # of connection points: 2
#     Edge 99, Type (0, 0), BuildingBlock: OJICUG_clean_linker_0, # of connection points: 2
#     Edge 100, Type (0, 0), BuildingBlock: OJICUG_clean_linker_0, # of connection points: 2
#     Edge 101, Type (0, 0), BuildingBlock: OJICUG_clean_linker_0, # of connection points: 2
#     Edge 102, Type (0, 0), BuildingBlock: OJICUG_clean_linker_0, # of connection points: 2
#     Edge 103, Type (0, 0), BuildingBlock: OJICUG_clean_linker_0, # of connection points: 2
#     Edge 104, Type (0, 0), BuildingBlock: OJICUG_clean_linker_0, # of connection points: 2
#     Edge 105, Type (0, 0), BuildingBlock: OJICUG_clean_linker_0, # of connection points: 2
#     Edge 106, Type (0, 0), BuildingBlock: OJICUG_clean_linker_0, # of connection points: 2
#     Edge 107, Type (0, 0), BuildingBlock: OJICUG_clean_linker_0, # of connection points: 2
#     Edge 108, Type (0, 0), BuildingBlock: OJICUG_clean_linker_0, # of connection points: 2
#     Edge 109, Type (0, 0), BuildingBlock: OJICUG_clean_linker_0, # of connection points: 2
#     Edge 110, Type (0, 0), BuildingBlock: OJICUG_clean_linker_0, # of connection points: 2
#     Edge 111, Type (0, 0), BuildingBlock: OJICUG_clean_linker_0, # of connection points: 2
#     Edge 112, Type (0, 0), BuildingBlock: OJICUG_clean_linker_0, # of connection points: 2
#     Edge 113, Type (0, 0), BuildingBlock: OJICUG_clean_linker_0, # of connection points: 2
#     Edge 114, Type (0, 0), BuildingBlock: OJICUG_clean_linker_0, # of connection points: 2
#     Edge 115, Type (0, 0), BuildingBlock: OJICUG_clean_linker_0, # of connection points: 2
#     Edge 116, Type (0, 0), BuildingBlock: OJICUG_clean_linker_0, # of connection points: 2
#     Edge 117, Type (0, 0), BuildingBlock: OJICUG_clean_linker_0, # of connection points: 2
#     Edge 118, Type (0, 0), BuildingBlock: OJICUG_clean_linker_0, # of connection points: 2
#     Edge 119, Type (0, 0), BuildingBlock: OJICUG_clean_linker_0, # of connection points: 2
#     Edge 120, Type (0, 0), BuildingBlock: OJICUG_clean_linker_0, # of connection points: 2
#     Edge 121, Type (0, 0), BuildingBlock: OJICUG_clean_linker_0, # of connection points: 2
#     Edge 122, Type (0, 0), BuildingBlock: OJICUG_clean_linker_0, # of connection points: 2
#     Edge 123, Type (0, 0), BuildingBlock: OJICUG_clean_linker_0, # of connection points: 2
#     Edge 124, Type (0, 0), BuildingBlock: OJICUG_clean_linker_0, # of connection points: 2
#     Edge 125, Type (0, 0), BuildingBlock: OJICUG_clean_linker_0, # of connection points: 2
#     Edge 126, Type (0, 0), BuildingBlock: OJICUG_clean_linker_0, # of connection points: 2
#     Edge 127, Type (0, 0), BuildingBlock: OJICUG_clean_linker_0, # of connection points: 2
#     Edge 128, Type (0, 0), BuildingBlock: OJICUG_clean_linker_0, # of connection points: 2
#     Edge 129, Type (0, 0), BuildingBlock: OJICUG_clean_linker_0, # of connection points: 2
#     Edge 130, Type (0, 0), BuildingBlock: OJICUG_clean_linker_0, # of connection points: 2
#     Edge 131, Type (0, 0), BuildingBlock: OJICUG_clean_linker_0, # of connection points: 2
#     Edge 132, Type (0, 0), BuildingBlock: OJICUG_clean_linker_0, # of connection points: 2
#     Edge 133, Type (0, 0), BuildingBlock: OJICUG_clean_linker_0, # of connection points: 2
#     Edge 134, Type (0, 0), BuildingBlock: OJICUG_clean_linker_0, # of connection points: 2
#     Edge 135, Type (0, 0), BuildingBlock: OJICUG_clean_linker_0, # of connection points: 2
#     Edge 136, Type (0, 0), BuildingBlock: OJICUG_clean_linker_0, # of connection points: 2
#     Edge 137, Type (0, 0), BuildingBlock: OJICUG_clean_linker_0, # of connection points: 2
#     Edge 138, Type (0, 0), BuildingBlock: OJICUG_clean_linker_0, # of connection points: 2
#     Edge 139, Type (0, 0), BuildingBlock: OJICUG_clean_linker_0, # of connection points: 2
#     Edge 140, Type (0, 0), BuildingBlock: OJICUG_clean_linker_0, # of connection points: 2
#     Edge 141, Type (0, 0), BuildingBlock: OJICUG_clean_linker_0, # of connection points: 2
#     Edge 142, Type (0, 0), BuildingBlock: OJICUG_clean_linker_0, # of connection points: 2
#     Edge 143, Type (0, 0), BuildingBlock: OJICUG_clean_linker_0, # of connection points: 2
# Relax obj value: 0.158
# Max RMSD: 0.205
# Mean RMSD: 0.197
data_MOF--net-wna--node1-BETDEL_clean_sbu_0--edge1-OJICUG_clean_linker_0
_symmetry_space_group_name_H-M    P1
_symmetry_Int_Tables_number       1
_symmetry_cell_setting            triclinic
loop_
_symmetry_equiv_pos_as_xyz
'x, y, z'
_cell_length_a     28.908695
_cell_length_b     28.953855
_cell_length_c     80.439827
_cell_angle_alpha  90.066533
_cell_angle_beta   89.968873
_cell_angle_gamma 119.95588
loop_
_atom_site_label
_atom_site_type_symbol
_atom_site_fract_x
_atom_site_fract_y
_atom_site_fract_z
_atom_type_partial_charge
Dy0 Dy 0.08689 0.2548 0.16149 0.0
C1 C 0.04141 0.20433 0.23037 0.0
C2 C 0.082 0.28841 0.13016 0.0
Dy3 Dy 0.07888 0.23823 0.1989 0.0
O4 O 0.07288 0.24091 0.13392 0.0
O5 O 0.09333 0.3173 0.14354 0.0
O6 O 0.1476 0.22939 0.15839 0.0
O7 O 0.09153 0.19694 0.17785 0.0
C8 C 0.13295 0.1994 0.17156 0.0
C9 C 0.0709 0.32183 0.18777 0.0
O10 O 0.16731 0.28084 0.19628 0.0
O11 O 0.16548 0.32038 0.17142 0.0
O12 O 0.01686 0.21441 0.21873 0.0
O13 O 0.08788 0.21352 0.22498 0.0
O14 O 0.09548 0.32256 0.2013 0.0
O15 O 0.05041 0.27627 0.18128 0.0
O16 O 1.0047 0.18286 0.16268 0.0
O17 O 0.0077 0.1628 0.19047 0.0
C18 C 0.19208 0.31581 0.18422 0.0
C19 C 0.98393 0.15122 0.17579 0.0
Dy20 Dy 0.75352 0.83011 0.16182 0.0
C21 C 0.80513 0.84565 0.23014 0.0
C22 C 0.71308 0.7943 0.13066 0.0
Dy23 Dy 0.76803 0.84342 0.19855 0.0
O24 O 0.76231 0.82881 0.13404 0.0
O25 O 0.68565 0.77889 0.14435 0.0
O26 O 0.8282 0.90414 0.15547 0.0
O27 O 0.78935 0.90121 0.17796 0.0
C28 C 0.83101 0.92849 0.1693 0.0
C29 C 0.68807 0.74816 0.18845 0.0
O30 O 0.72136 0.88559 0.19583 0.0
O31 O 0.69267 0.85411 0.16906 0.0
O32 O 0.80852 0.81943 0.21764 0.0
O33 O 0.7813 0.87169 0.22547 0.0
O34 O 0.68602 0.77268 0.20163 0.0
O35 O 0.73362 0.77379 0.18192 0.0
O36 O 0.81616 0.80709 0.16582 0.0
O37 O 0.84642 0.85625 0.18991 0.0
C38 C 0.69063 0.87905 0.18273 0.0
C39 C 0.85327 0.83094 0.1774 0.0
Dy40 Dy 0.17508 0.92689 0.16232 0.0
C41 C 0.16215 0.96152 0.23068 0.0
C42 C 0.21183 0.92457 0.13113 0.0
Dy43 Dy 0.16328 0.92715 0.19896 0.0
O44 O 0.17572 0.93715 0.13459 0.0
O45 O 0.22809 0.91316 0.14475 0.0
O46 O 0.0997 0.92574 0.15632 0.0
O47 O 0.10449 0.89013 0.17862 0.0
C48 C 0.07605 0.90354 0.17017 0.0
C49 C 0.2591 0.94461 0.18829 0.0
O50 O 0.12148 0.83863 0.19627 0.0
O51 O 0.15169 0.84181 0.16931 0.0
O52 O 0.18732 0.99137 0.21813 0.0
O53 O 0.13663 0.91171 0.22599 0.0
O54 O 0.23512 0.91701 0.20137 0.0
O55 O 0.23247 0.96397 0.18214 0.0
O56 O 0.19769 0.01233 0.16699 0.0
O57 O 0.14693 0.99058 0.19069 0.0
C58 C 0.12736 0.81461 0.18303 0.0
C59 C 0.17265 0.02421 0.17857 0.0
Dy60 Dy 0.25276 0.08077 0.36597 0.0
C61 C 0.20326 0.04443 0.29764 0.0
C62 C 0.29201 0.0837 0.39715 0.0
Dy63 Dy 0.23931 0.07857 0.32934 0.0
O64 O 0.24392 0.07316 0.39375 0.0
O65 O 0.31917 0.09306 0.38347 0.0
O66 O 0.17759 0.07968 0.37205 0.0
O67 O 0.21688 0.11551 0.3496 0.0
C68 C 0.17499 0.10111 0.35819 0.0
C69 C 0.31837 0.06211 0.33993 0.0
O70 O 0.28476 0.16733 0.33193 0.0
O71 O 0.31349 0.16565 0.35874 0.0
O72 O 0.2293 0.09428 0.30225 0.0
O73 O 0.19704 0.01437 0.31028 0.0
O74 O 0.32134 0.08885 0.32672 0.0
O75 O 0.27262 0.04297 0.34624 0.0
O76 O 0.1899 0.99529 0.3621 0.0
O77 O 0.16049 0.01327 0.3377 0.0
C78 C 0.31523 0.19213 0.345 0.0
C79 C 0.15318 0.98165 0.35037 0.0
Dy80 Dy 0.91967 0.17174 0.36535 0.0
C81 C 0.95559 0.15438 0.29685 0.0
C82 C 0.90551 0.19788 0.39689 0.0
Dy83 Dy 0.92598 0.16181 0.32875 0.0
O84 O 0.87506 0.15299 0.38946 0.0
O85 O 0.94422 0.22926 0.38705 0.0
O86 O 0.92318 0.09875 0.37104 0.0
O87 O 0.88703 0.10205 0.3486 0.0
C88 C 0.90177 0.07485 0.35713 0.0
C89 C 0.94156 0.25729 0.33896 0.0
O90 O 0.83741 0.11637 0.33168 0.0
O91 O 0.84156 0.16141 0.35576 0.0
O92 O 0.90817 0.1445 0.30127 0.0
O93 O 0.9857 0.16674 0.30987 0.0
O94 O 0.91833 0.23462 0.32518 0.0
O95 O 0.95921 0.23028 0.34586 0.0
O96 O 1.00349 0.18656 0.36398 0.0
O97 O 0.9944 0.15311 0.33732 0.0
C98 C 0.81358 0.12966 0.34329 0.0
C99 C 0.02118 0.17014 0.35136 0.0
Dy100 Dy 0.83227 0.75303 0.36555 0.0
C101 C 0.84824 0.80505 0.29701 0.0
C102 C 0.79588 0.71366 0.39679 0.0
Dy103 Dy 0.84533 0.76785 0.32862 0.0
O104 O 0.83336 0.76167 0.39338 0.0
O105 O 0.77797 0.68671 0.38308 0.0
O106 O 0.90752 0.82703 0.37179 0.0
O107 O 0.90283 0.78806 0.34921 0.0
C108 C 0.93104 0.82953 0.35781 0.0
C109 C 0.74956 0.68901 0.33878 0.0
O110 O 0.88744 0.72117 0.33143 0.0
O111 O 0.855 0.69145 0.35805 0.0
O112 O 0.87222 0.77907 0.3016 0.0
O113 O 0.82384 0.8107 0.30964 0.0
O114 O 0.77358 0.68666 0.32551 0.0
O115 O 0.77601 0.73433 0.34539 0.0
O116 O 0.81043 0.81648 0.36165 0.0
O117 O 0.85891 0.84627 0.33739 0.0
C118 C 0.88034 0.68989 0.3444 0.0
C119 C 0.83412 0.85335 0.35001 0.0
Dy120 Dy 0.93098 0.76958 0.82867 0.0
C121 C 0.93325 0.7114 0.89752 0.0
C122 C 0.96564 0.80753 0.79731 0.0
Dy123 Dy 0.92855 0.7515 0.86729 0.0
O124 O 0.91595 0.78558 0.80217 0.0
O125 O 0.9953 0.80859 0.80953 0.0
O126 O 0.92058 0.68792 0.8255 0.0
O127 O 0.96341 0.73395 0.84594 0.0
C128 C 0.94482 0.68896 0.83914 0.0
C129 C 0.88948 0.81628 0.86096 0.0
O130 O 0.01153 0.82034 0.86355 0.0
O131 O 0.99548 0.84766 0.83813 0.0
O132 O 0.95241 0.76161 0.8942 0.0
O133 O 0.9122 0.68295 0.8842 0.0
O134 O 0.89289 0.80092 0.87587 0.0
O135 O 0.9068 0.79564 0.85065 0.0
O136 O 0.84293 0.72657 0.83284 0.0
O137 O 0.8463 0.68984 0.85837 0.0
C138 C 0.02532 0.85616 0.85148 0.0
C139 C 0.81918 0.69338 0.84549 0.0
Dy140 Dy 0.24447 0.16236 0.82969 0.0
C141 C 0.30116 0.21848 0.89841 0.0
C142 C 0.20815 0.16089 0.79823 0.0
Dy143 Dy 0.26029 0.17498 0.86813 0.0
O144 O 0.20695 0.18917 0.81053 0.0
O145 O 0.22953 0.13263 0.80304 0.0
O146 O 0.3268 0.23317 0.82715 0.0
O147 O 0.27953 0.22937 0.84734 0.0
C148 C 0.32508 0.25578 0.84085 0.0
C149 C 0.19469 0.07185 0.86151 0.0
O150 O 0.19018 0.1874 0.86482 0.0
O151 O 0.16588 0.1488 0.8386 0.0
O152 O 0.25064 0.18963 0.895 0.0
O153 O 0.32942 0.22447 0.88515 0.0
O154 O 0.21026 0.09028 0.87644 0.0
O155 O 0.2161 0.10961 0.85113 0.0
O156 O 0.28683 0.11662 0.83344 0.0
O157 O 0.32204 0.15434 0.85931 0.0
C158 C 0.15572 0.16728 0.85231 0.0
C159 C 0.31934 0.12493 0.84619 0.0
Dy160 Dy 0.84691 0.07657 0.82952 0.0
C161 C 0.79804 0.08041 0.89722 0.0
C162 C 0.85055 0.04368 0.79779 0.0
Dy163 Dy 0.83438 0.07776 0.86602 0.0
O164 O 0.87316 0.09337 0.8025 0.0
O165 O 0.82703 0.01308 0.81036 0.0
O166 O 0.77486 0.08621 0.82659 0.0
O167 O 0.77728 0.04028 0.84618 0.0
C168 C 0.75071 0.0592 0.83973 0.0
C169 C 0.93274 0.09829 0.85842 0.0
O170 O 0.81025 0.99201 0.86172 0.0
O171 O 0.86033 0.01121 0.8379 0.0
O172 O 0.835 0.06907 0.89377 0.0
O173 O 0.78075 0.09059 0.88359 0.0
O174 O 0.90818 0.0761 0.87216 0.0
O175 O 0.90565 0.11328 0.84992 0.0
O176 O 0.88978 0.16523 0.83226 0.0
O177 O 0.85802 0.16262 0.85894 0.0
C178 C 0.83445 0.97871 0.85025 0.0
C179 C 0.88324 0.18955 0.84531 0.0
Dy180 Dy 0.77213 0.92937 0.69899 0.0
C181 C 0.72019 0.92727 0.63114 0.0
C182 C 0.8083 0.96293 0.73067 0.0
Dy183 Dy 0.75903 0.92931 0.66231 0.0
O184 O 0.81189 0.99301 0.71831 0.0
O185 O 0.78467 0.9133 0.72581 0.0
O186 O 0.69013 0.91889 0.70178 0.0
O187 O 0.73899 0.9657 0.68234 0.0
C188 C 0.69326 0.9462 0.68869 0.0
C189 C 0.83617 0.90794 0.66989 0.0
O190 O 0.82114 0.01469 0.66699 0.0
O191 O 0.85123 0.99412 0.69073 0.0
O192 O 0.76856 0.93879 0.63457 0.0
O193 O 0.69264 0.91673 0.64477 0.0
O194 O 0.83419 0.93034 0.65616 0.0
O195 O 0.79406 0.89324 0.67836 0.0
O196 O 0.7255 0.84096 0.69609 0.0
O197 O 0.69782 0.84428 0.66924 0.0
C198 C 0.85834 0.02717 0.67851 0.0
C199 C 0.69536 0.81708 0.68289 0.0
Dy200 Dy 0.08307 0.8453 0.69899 0.0
C201 C 0.08476 0.7875 0.63032 0.0
C202 C 0.04781 0.84773 0.73039 0.0
Dy203 Dy 0.08643 0.83098 0.66061 0.0
O204 O 0.0186 0.81861 0.71818 0.0
O205 O 0.09738 0.87633 0.72552 0.0
O206 O 0.09511 0.77502 0.70203 0.0
O207 O 0.05163 0.7774 0.68164 0.0
C208 C 0.07098 0.75157 0.68839 0.0
C209 C 0.12283 0.93435 0.6667 0.0
O210 O 1.00343 0.8174 0.66384 0.0
O211 O 0.01762 0.85755 0.68981 0.0
O212 O 0.10779 0.78264 0.64357 0.0
O213 O 0.06168 0.81502 0.63376 0.0
O214 O 0.12004 0.91513 0.65189 0.0
O215 O 0.10698 0.89716 0.67728 0.0
O216 O 0.17115 0.89117 0.69524 0.0
O217 O 0.1687 0.85211 0.66962 0.0
C218 C 0.98887 0.8379 0.67619 0.0
C219 C 0.19535 0.88218 0.68263 0.0
Dy220 Dy 0.16851 0.24014 0.70021 0.0
C221 C 0.2138 0.30274 0.63151 0.0
C222 C 0.1673 0.20289 0.7315 0.0
Dy223 Dy 0.17875 0.25816 0.66207 0.0
O224 O 0.13916 0.22456 0.72686 0.0
O225 O 0.19541 0.20186 0.71911 0.0
O226 O 0.23868 0.32322 0.70315 0.0
O227 O 0.23489 0.27845 0.68241 0.0
C228 C 0.26096 0.32343 0.68916 0.0
C229 C 0.07652 0.18901 0.66857 0.0
O230 O 0.1859 0.18455 0.66331 0.0
O231 O 0.15728 0.16271 0.69071 0.0
O232 O 0.17785 0.30544 0.64037 0.0
O233 O 0.23212 0.27612 0.63947 0.0
O234 O 0.09517 0.20363 0.65363 0.0
O235 O 0.11411 0.2105 0.67904 0.0
O236 O 0.11962 0.27921 0.69706 0.0
O237 O 0.16541 0.32242 0.67315 0.0
C238 C 0.17066 0.15131 0.67617 0.0
C239 C 0.13088 0.3151 0.68522 0.0
Dy240 Dy 0.74986 0.58696 0.49367 0.0
C241 C 0.71105 0.53264 0.56367 0.0
C242 C 0.74874 0.62926 0.46342 0.0
Dy243 Dy 0.74694 0.56891 0.53221 0.0
O244 O 0.77134 0.65688 0.47676 0.0
O245 O 0.72568 0.57865 0.46676 0.0
O246 O 0.7829 0.53572 0.48489 0.0
O247 O 0.77015 0.54124 0.51025 0.0
C248 C 0.78626 0.51993 0.49972 0.0
C249 C 0.73568 0.6511 0.52158 0.0
O250 O 0.83487 0.60996 0.52834 0.0
O251 O 0.83265 0.64689 0.50274 0.0
O252 O 0.76023 0.55093 0.55871 0.0
O253 O 0.68257 0.53421 0.5515 0.0
O254 O 0.76027 0.65185 0.53512 0.0
O255 O 0.71586 0.60577 0.51494 0.0
O256 O 0.66617 0.51921 0.49735 0.0
O257 O 0.68154 0.49148 0.52281 0.0
C258 C 0.85922 0.64275 0.51568 0.0
C259 C 0.65179 0.48342 0.50946 0.0
Dy260 Dy 0.41747 0.16402 0.49383 0.0
C261 C 0.47256 0.1817 0.56358 0.0
C262 C 0.37582 0.11971 0.46367 0.0
Dy263 Dy 0.43478 0.17893 0.53227 0.0
O264 O 0.42643 0.14814 0.46701 0.0
O265 O 0.34788 0.1144 0.47695 0.0
O266 O 0.46698 0.2484 0.48511 0.0
O267 O 0.46189 0.23022 0.51047 0.0
C268 C 0.4828 0.26756 0.49996 0.0
C269 C 0.35406 0.08478 0.5216 0.0
O270 O 0.39198 0.22407 0.52836 0.0
O271 O 0.35577 0.18461 0.50274 0.0
O272 O 0.47348 0.15317 0.55132 0.0
O273 O 0.45066 0.20953 0.55882 0.0
O274 O 0.35275 0.10798 0.53522 0.0
O275 O 0.39937 0.11107 0.51497 0.0
O276 O 0.48783 0.15193 0.49722 0.0
O277 O 0.51306 0.19246 0.52316 0.0
C278 C 0.35889 0.21477 0.51571 0.0
C279 C 0.52267 0.17289 0.50961 0.0
Dy280 Dy 0.84093 0.25439 0.49564 0.0
C281 C 0.83187 0.29707 0.56383 0.0
C282 C 0.86595 0.23945 0.46403 0.0
Dy283 Dy 0.83263 0.26168 0.53222 0.0
O284 O 0.82069 0.21021 0.47143 0.0
O285 O 0.89831 0.27738 0.47394 0.0
O286 O 0.76947 0.26045 0.48994 0.0
O287 O 0.7715 0.22365 0.51246 0.0
C288 C 0.74505 0.2392 0.5038 0.0
C289 C 0.92665 0.27399 0.52145 0.0
O290 O 0.78747 0.17308 0.53023 0.0
O291 O 0.82775 0.17517 0.50523 0.0
O292 O 0.80735 0.2471 0.55935 0.0
O293 O 0.85584 0.32669 0.55111 0.0
O294 O 0.90372 0.25013 0.53514 0.0
O295 O 0.90027 0.29286 0.51488 0.0
O296 O 0.85869 0.33918 0.4975 0.0
O297 O 0.82089 0.3279 0.52351 0.0
C298 C 0.79786 0.14832 0.51819 0.0
C299 C 0.84046 0.35612 0.50985 0.0
Dy300 Dy 0.92249 0.41493 0.6991 0.0
C301 C 0.87414 0.38017 0.63077 0.0
C302 C 0.96063 0.41678 0.73042 0.0
Dy303 Dy 0.90973 0.41406 0.66251 0.0
O304 O 0.91247 0.40567 0.72685 0.0
O305 O 0.98841 0.42713 0.71684 0.0
O306 O 0.8476 0.41444 0.70518 0.0
O307 O 0.88764 0.45101 0.68288 0.0
C308 C 0.84574 0.43688 0.69144 0.0
C309 C 0.98833 0.39676 0.67307 0.0
O310 O 0.956 0.50258 0.66517 0.0
O311 O 0.98396 0.49983 0.69202 0.0
O312 O 0.8686 0.35008 0.64334 0.0
O313 O 0.89931 0.42997 0.63546 0.0
O314 O 0.99172 0.42412 0.65997 0.0
O315 O 0.94246 0.37754 0.6793 0.0
O316 O 0.85998 0.32954 0.69452 0.0
O317 O 0.8302 0.34987 0.6707 0.0
C318 C 0.9863 0.52679 0.67831 0.0
C319 C 0.82283 0.31697 0.68298 0.0
Dy320 Dy 0.5922 0.50855 0.69933 0.0
C321 C 0.63 0.49249 0.63089 0.0
C322 C 0.57701 0.53364 0.73092 0.0
Dy323 Dy 0.59794 0.49785 0.66268 0.0
O324 O 0.54733 0.48873 0.72341 0.0
O325 O 0.61554 0.5657 0.72113 0.0
O326 O 0.59943 0.43797 0.70528 0.0
O327 O 0.56141 0.4383 0.68285 0.0
C328 C 0.57799 0.41283 0.69154 0.0
C329 C 0.61001 0.5922 0.67276 0.0
O330 O 0.50935 0.45158 0.66546 0.0
O331 O 0.51264 0.49489 0.6899 0.0
O332 O 0.66096 0.51356 0.64359 0.0
O333 O 0.58053 0.47324 0.63552 0.0
O334 O 0.58662 0.5686 0.65909 0.0
O335 O 0.6293 0.56659 0.67963 0.0
O336 O 0.67692 0.52586 0.6976 0.0
O337 O 0.66662 0.48981 0.67128 0.0
C338 C 0.48508 0.46337 0.67732 0.0
C339 C 0.69435 0.50876 0.68508 0.0
Dy340 Dy 0.50323 0.08311 0.69961 0.0
C341 C 0.51445 0.13967 0.63014 0.0
C342 C 0.46872 0.03978 0.73037 0.0
Dy343 Dy 0.51314 0.10177 0.66133 0.0
O344 O 0.50807 0.04128 0.72222 0.0
O345 O 0.44669 0.06137 0.72157 0.0
O346 O 0.58721 0.13735 0.7078 0.0
O347 O 0.56747 0.13075 0.68249 0.0
C348 C 0.60543 0.15227 0.69285 0.0
C349 C 0.42078 0.01875 0.67241 0.0
O350 O 0.56114 0.06178 0.66445 0.0
O351 O 0.5153 0.0184 0.68836 0.0
O352 O 0.54287 0.11825 0.63472 0.0
O353 O 0.486 0.14006 0.64252 0.0
O354 O 0.4428 0.01905 0.65835 0.0
O355 O 0.44719 0.06364 0.67921 0.0
O356 O 0.49871 0.15816 0.6988 0.0
O357 O 0.52359 0.17856 0.67098 0.0
C358 C 0.54956 0.02562 0.67622 0.0
C359 C 0.51231 0.19056 0.68575 0.0
Dy360 Dy 0.59607 0.10178 0.16134 0.0
C361 C 0.57933 0.03763 0.22983 0.0
C362 C 0.63234 0.13963 0.13013 0.0
Dy363 Dy 0.58853 0.08294 0.19942 0.0
O364 O 0.5825 0.11796 0.13475 0.0
O365 O 0.66138 0.14035 0.14249 0.0
O366 O 0.58285 0.01875 0.15811 0.0
O367 O 0.62407 0.06287 0.17892 0.0
C368 C 0.60494 0.01805 0.17204 0.0
C369 C 0.55538 0.15215 0.19322 0.0
O370 O 0.66945 0.15651 0.19818 0.0
O371 O 0.66235 0.17898 0.17089 0.0
O372 O 0.5404 0.03398 0.2209 0.0
O373 O 0.62436 0.06561 0.22201 0.0
O374 O 0.55946 0.13729 0.20811 0.0
O375 O 0.57147 0.13087 0.18267 0.0
O376 O 0.50817 0.06285 0.16452 0.0
O377 O 0.51062 0.01917 0.18833 0.0
C378 C 0.68735 0.19001 0.18538 0.0
C379 C 0.4835 0.02676 0.1763 0.0
Dy380 Dy 0.90601 0.49539 0.16234 0.0
C381 C 0.96338 0.55533 0.23094 0.0
C382 C 0.86794 0.49155 0.13097 0.0
Dy383 Dy 0.92381 0.51022 0.20067 0.0
O384 O 0.86735 0.5207 0.1431 0.0
O385 O 0.88969 0.46376 0.13591 0.0
O386 O 0.98804 0.56614 0.15918 0.0
O387 O 0.9421 0.56354 0.17959 0.0
C388 C 0.98723 0.58964 0.17279 0.0
C389 C 0.85723 0.40672 0.19473 0.0
O390 O 0.85368 0.52268 0.19739 0.0
O391 O 0.82796 0.48244 0.17144 0.0
O392 O 0.91317 0.52488 0.22744 0.0
O393 O 0.99225 0.56186 0.21777 0.0
O394 O 0.87383 0.42609 0.20951 0.0
O395 O 0.87837 0.44379 0.1841 0.0
O396 O 0.94854 0.44994 0.16618 0.0
O397 O 0.98499 0.48868 0.19187 0.0
C398 C 0.81861 0.50186 0.18507 0.0
C399 C 0.98163 0.45875 0.1788 0.0
Dy400 Dy 0.51098 0.41091 0.16241 0.0
C401 C 0.46022 0.41411 0.23027 0.0
C402 C 0.51398 0.37631 0.13091 0.0
Dy403 Dy 0.49749 0.41171 0.19917 0.0
O404 O 0.48689 0.34669 0.14329 0.0
O405 O 0.54027 0.42606 0.13565 0.0
O406 O 0.43989 0.42196 0.15939 0.0
O407 O 0.44138 0.37552 0.17904 0.0
C408 C 0.41552 0.39522 0.17256 0.0
C409 C 0.59583 0.43216 0.19165 0.0
O410 O 0.47378 0.32612 0.19465 0.0
O411 O 0.52453 0.34598 0.17093 0.0
O412 O 0.49706 0.40247 0.22693 0.0
O413 O 0.44355 0.42469 0.21658 0.0
O414 O 0.57146 0.41041 0.20545 0.0
O415 O 0.56857 0.44685 0.18312 0.0
O416 O 0.55351 0.49935 0.16518 0.0
O417 O 0.52224 0.4968 0.19198 0.0
C418 C 0.49834 0.31323 0.18319 0.0
C419 C 0.54736 0.52362 0.1783 0.0
Dy420 Dy 0.4393 0.25998 0.03248 0.0
C421 C 0.3848 0.25624 0.96491 0.0
C422 C 0.47686 0.29347 0.06408 0.0
Dy423 Dy 0.42429 0.25868 0.99599 0.0
O424 O 0.44917 0.24367 0.05951 0.0
O425 O 0.48408 0.32382 0.05143 0.0
O426 O 0.35781 0.25045 0.03578 0.0
O427 O 0.40545 0.29616 0.01603 0.0
C428 C 0.36019 0.27728 0.02265 0.0
C429 C 0.50223 0.23805 1.00323 0.0
O430 O 0.48578 0.34447 1.00027 0.0
O431 O 0.51772 0.32526 0.02383 0.0
O432 O 0.43337 0.2683 0.96828 0.0
O433 O 0.35731 0.24519 0.97857 0.0
O434 O 0.49943 0.26004 0.98952 0.0
O435 O 0.46046 0.22322 1.01188 0.0
O436 O 0.39341 0.17134 0.02974 0.0
O437 O 0.36316 0.17397 1.00324 0.0
C438 C 0.52374 0.3578 1.01156 0.0
C439 C 0.36195 0.14705 0.01682 0.0
Dy440 Dy 0.75063 0.17686 0.03222 0.0
C441 C 0.75237 0.11883 0.96372 0.0
C442 C 0.71561 0.18006 0.0635 0.0
Dy443 Dy 0.75451 0.1629 0.99387 0.0
O444 O 0.68607 0.15163 0.05125 0.0
O445 O 0.76538 0.2075 0.05875 0.0
O446 O 0.76178 0.10599 0.03522 0.0
O447 O 0.71886 0.10916 0.01481 0.0
C448 C 0.73764 0.08283 0.02156 0.0
C449 C 0.79149 0.26617 1.00009 0.0
O450 O 0.67175 0.15021 0.99695 0.0
O451 O 0.68553 0.18965 0.02302 0.0
O452 O 0.77497 0.11358 0.97701 0.0
O453 O 0.73012 0.14721 0.96703 0.0
O454 O 0.7889 0.2473 0.98524 0.0
O455 O 0.77511 0.22873 1.01057 0.0
O456 O 0.83869 0.22311 0.02858 0.0
O457 O 0.83689 0.18435 1.00296 0.0
C458 C 0.65706 0.17048 1.00933 0.0
C459 C 0.86326 0.21453 0.016 0.0
Dy460 Dy 0.82867 0.56767 0.0327 0.0
C461 C 0.88945 0.62674 0.96391 0.0
C462 C 0.82528 0.52969 0.06402 0.0
Dy463 Dy 0.84424 0.58624 0.99407 0.0
O464 O 0.79731 0.55134 0.05915 0.0
O465 O 0.85419 0.52893 0.05183 0.0
O466 O 0.89954 0.64958 0.03591 0.0
O467 O 0.89663 0.60388 0.0154 0.0
C468 C 0.92279 0.64884 0.02223 0.0
C469 C 0.74059 0.52077 1.00043 0.0
O470 O 0.85865 0.5175 0.99771 0.0
O471 O 0.81562 0.48993 0.02319 0.0
O472 O 0.85849 0.57647 0.96718 0.0
O473 O 0.89644 0.65507 0.97724 0.0
O474 O 0.75919 0.53635 0.98552 0.0
O475 O 0.77861 0.54157 1.01071 0.0
O476 O 0.78279 0.60972 0.0287 0.0
O477 O 0.82238 0.64696 1.00314 0.0
C478 C 0.83695 0.48165 1.00979 0.0
C479 C 0.79168 0.64287 0.01611 0.0
Dy480 Dy 0.42039 0.921 0.82857 0.0
C481 C 0.37792 0.8639 0.89796 0.0
C482 C 0.43037 0.96805 0.79837 0.0
Dy483 Dy 0.4139 0.9016 0.86669 0.0
O484 O 0.46919 0.97333 0.80771 0.0
O485 O 0.38492 0.93742 0.80568 0.0
O486 O 0.44819 0.86597 0.81953 0.0
O487 O 0.43721 0.87223 0.84506 0.0
C488 C 0.45234 0.85055 0.83433 0.0
C489 C 0.40532 0.98575 0.8562 0.0
O490 O 0.50163 0.94009 0.86329 0.0
O491 O 0.49886 0.98401 0.83957 0.0
O492 O 0.42763 0.88505 0.89324 0.0
O493 O 0.34886 0.86351 0.88566 0.0
O494 O 0.42784 0.98494 0.87002 0.0
O495 O 0.38575 0.94087 0.84935 0.0
O496 O 0.33878 0.84848 0.83009 0.0
O497 O 0.34715 0.82489 0.85713 0.0
C498 C 0.52612 0.97621 0.85151 0.0
C499 C 0.32132 0.81461 0.84281 0.0
Dy500 Dy 0.08478 0.49491 0.82751 0.0
C501 C 0.14011 0.51207 0.89725 0.0
C502 C 0.04292 0.45153 0.79722 0.0
Dy503 Dy 0.10228 0.50914 0.86586 0.0
O504 O 0.01502 0.44668 0.81048 0.0
O505 O 0.09353 0.4789 0.80067 0.0
O506 O 0.13545 0.57884 0.81871 0.0
O507 O 0.13049 0.56108 0.84414 0.0
C508 C 0.15182 0.59813 0.8335 0.0
C509 C 0.02078 0.41519 0.85514 0.0
O510 O 0.06135 0.55616 0.86213 0.0
O511 O 0.02449 0.51744 0.83651 0.0
O512 O 0.14095 0.48342 0.88501 0.0
O513 O 0.11821 0.53983 0.89243 0.0
O514 O 0.01979 0.43857 0.86876 0.0
O515 O 0.06613 0.44132 0.8485 0.0
O516 O 0.15466 0.4819 0.83073 0.0
O517 O 0.1801 0.52151 0.85679 0.0
C518 C 0.02848 0.54787 0.84951 0.0
C519 C 0.18948 0.50215 0.84316 0.0
Dy520 Dy 0.50859 0.58558 0.8298 0.0
C521 C 0.49564 0.62711 0.89792 0.0
C522 C 0.53519 0.57174 0.79825 0.0
Dy523 Dy 0.49861 0.59234 0.86639 0.0
O524 O 0.56674 0.60983 0.80825 0.0
O525 O 0.48992 0.54167 0.80554 0.0
O526 O 0.43676 0.59069 0.82377 0.0
O527 O 0.43854 0.55412 0.84635 0.0
C528 C 0.41202 0.56927 0.83757 0.0
C529 C 0.59346 0.60576 0.85606 0.0
O530 O 0.45418 0.5039 0.8643 0.0
O531 O 0.49571 0.50654 0.83949 0.0
O532 O 0.47217 0.57719 0.89341 0.0
O533 O 0.51984 0.65702 0.88526 0.0
O534 O 0.57015 0.58182 0.86971 0.0
O535 O 0.56698 0.62423 0.8493 0.0
O536 O 0.52526 0.67001 0.83169 0.0
O537 O 0.48639 0.65801 0.85756 0.0
C538 C 0.46536 0.47946 0.85236 0.0
C539 C 0.5063 0.68646 0.84397 0.0
Dy540 Dy 0.58671 0.74609 0.03304 0.0
C541 C 0.53462 0.70987 0.96484 0.0
C542 C 0.62768 0.75111 0.06413 0.0
Dy543 Dy 0.57154 0.74426 0.99645 0.0
O544 O 0.57803 0.73467 0.06077 0.0
O545 O 0.65525 0.76463 0.05045 0.0
O546 O 0.51214 0.74566 0.03964 0.0
O547 O 0.55031 0.78103 0.01703 0.0
C548 C 0.50887 0.76677 0.0258 0.0
C549 C 0.6515 0.72837 1.00642 0.0
O550 O 0.61764 0.83287 0.99893 0.0
O551 O 0.64738 0.83072 0.02557 0.0
O552 O 0.53004 0.67999 0.97738 0.0
O553 O 0.55938 0.75969 0.96952 0.0
O554 O 0.65354 0.75507 0.99329 0.0
O555 O 0.60608 0.70889 1.013 0.0
O556 O 0.52513 0.66018 0.02881 0.0
O557 O 0.49319 0.67931 1.00521 0.0
C558 C 0.64883 0.85734 1.01189 0.0
C559 C 0.48718 0.64683 0.0175 0.0
Dy560 Dy 0.25589 0.84122 0.03449 0.0
C561 C 0.29539 0.82431 0.96475 0.0
C562 C 0.25739 0.88505 0.06466 0.0
Dy563 Dy 0.26049 0.82752 0.99609 0.0
O564 O 0.27954 0.85654 0.0614 0.0
O565 O 0.23525 0.89058 0.0513 0.0
O566 O 0.2214 0.7567 0.04304 0.0
O567 O 0.23566 0.7755 0.01773 0.0
C568 C 0.21912 0.73795 0.02819 0.0
C569 C 0.27328 0.92151 1.00686 0.0
O570 O 0.17238 0.78116 0.99963 0.0
O571 O 0.17371 0.81981 0.02523 0.0
O572 O 0.32501 0.85264 0.97701 0.0
O573 O 0.24566 0.79697 0.96954 0.0
O574 O 0.24942 0.89855 0.99314 0.0
O575 O 0.29191 0.89498 1.01357 0.0
O576 O 0.33871 0.85394 0.03154 0.0
O577 O 0.32552 0.8148 1.00542 0.0
C578 C 0.14758 0.78966 1.01216 0.0
C579 C 0.35367 0.83379 0.01918 0.0
Dy580 Dy 0.16616 0.41738 0.03396 0.0
C581 C 0.18481 0.47438 0.9641 0.0
C582 C 0.1204 0.37326 0.06377 0.0
Dy583 Dy 0.18227 0.43653 0.99542 0.0
O584 O 0.14837 0.42409 0.06076 0.0
O585 O 0.11646 0.34642 0.05034 0.0
O586 O 0.25079 0.46744 0.04279 0.0
O587 O 0.23233 0.46262 0.01749 0.0
C588 C 0.26993 0.48326 0.02793 0.0
C589 C 0.08809 0.355 1.00583 0.0
O590 O 0.22871 0.39499 0.99936 0.0
O591 O 0.18828 0.35707 0.02473 0.0
O592 O 0.21286 0.4527 0.96886 0.0
O593 O 0.1564 0.47536 0.97641 0.0
O594 O 0.11158 0.35431 0.9922 0.0
O595 O 0.11413 0.40003 1.0126 0.0
O596 O 0.15185 0.48629 0.03048 0.0
O597 O 0.19515 0.51414 1.00504 0.0
C598 C 0.21952 0.36158 1.01189 0.0
C599 C 0.17371 0.52231 0.01844 0.0
Dy600 Dy 0.2633 0.43692 0.49465 0.0
C601 C 0.24752 0.37226 0.56334 0.0
C602 C 0.29823 0.47543 0.46343 0.0
Dy603 Dy 0.25634 0.41726 0.5329 0.0
O604 O 0.24867 0.45418 0.46831 0.0
O605 O 0.32772 0.4754 0.47554 0.0
O606 O 0.25123 0.35446 0.49114 0.0
O607 O 0.29178 0.39824 0.5121 0.0
C608 C 0.27315 0.35367 0.50509 0.0
C609 C 0.22283 0.48635 0.52671 0.0
O610 O 0.33721 0.49073 0.53158 0.0
O611 O 0.32967 0.5138 0.50438 0.0
O612 O 0.2087 0.36996 0.55468 0.0
O613 O 0.29224 0.39869 0.55523 0.0
O614 O 0.22696 0.47153 0.5416 0.0
O615 O 0.23894 0.46496 0.51622 0.0
O616 O 0.17538 0.396 0.49808 0.0
O617 O 0.17912 0.35256 0.52181 0.0
C618 C 0.35491 0.52444 0.51882 0.0
C619 C 0.15146 0.3595 0.50982 0.0
Dy620 Dy 0.57646 0.83041 0.49629 0.0
C621 C 0.63558 0.8873 0.5647 0.0
C622 C 0.53964 0.82816 0.46483 0.0
Dy623 Dy 0.59332 0.84327 0.53457 0.0
O624 O 0.53811 0.85632 0.47711 0.0
O625 O 0.56161 0.8005 0.46967 0.0
O626 O 0.65909 0.90091 0.49359 0.0
O627 O 0.61243 0.89773 0.51383 0.0
C628 C 0.65785 0.92391 0.50726 0.0
C629 C 0.52593 0.74031 0.52838 0.0
O630 O 0.52372 0.8567 0.53147 0.0
O631 O 0.49853 0.81821 0.50527 0.0
O632 O 0.66329 0.89209 0.55141 0.0
O633 O 0.58491 0.85933 0.56141 0.0
O634 O 0.54235 0.75927 0.54322 0.0
O635 O 0.54749 0.77748 0.51778 0.0
O636 O 0.61722 0.78316 0.49983 0.0
O637 O 0.65365 0.82077 0.52558 0.0
C638 C 0.48902 0.83703 0.51901 0.0
C639 C 0.64993 0.79096 0.51245 0.0
Dy640 Dy 0.18174 0.74728 0.49581 0.0
C641 C 0.13116 0.75059 0.56359 0.0
C642 C 0.18737 0.71495 0.46415 0.0
Dy643 Dy 0.16771 0.7482 0.53234 0.0
O644 O 0.20605 0.76442 0.46864 0.0
O645 O 0.1669 0.68431 0.47691 0.0
O646 O 0.10921 0.75566 0.49242 0.0
O647 O 0.11152 0.71048 0.51225 0.0
C648 C 0.08486 0.72894 0.50557 0.0
C649 C 0.26649 0.76933 0.52505 0.0
O650 O 0.14416 0.66259 0.52798 0.0
O651 O 0.19507 0.68218 0.50431 0.0
O652 O 0.16846 0.73975 0.56011 0.0
O653 O 0.11355 0.76033 0.54995 0.0
O654 O 0.24163 0.74702 0.53873 0.0
O655 O 0.23945 0.78413 0.51644 0.0
O656 O 0.22467 0.83571 0.49869 0.0
O657 O 0.19063 0.83271 0.52504 0.0
C658 C 0.16878 0.64955 0.51658 0.0
C659 C 0.21677 0.85978 0.51153 0.0
Dy660 Dy 0.10214 0.59356 0.36633 0.0
C661 C 0.0453 0.59748 0.29762 0.0
C662 C 0.1401 0.63046 0.39752 0.0
Dy663 Dy 0.08472 0.59171 0.32786 0.0
O664 O 0.13781 0.65847 0.38535 0.0
O665 O 0.1212 0.58106 0.39276 0.0
O666 O 0.01964 0.5818 0.36923 0.0
O667 O 0.06653 0.62598 0.3491 0.0
C668 C 0.02115 0.60674 0.3557 0.0
C669 C 0.15018 0.55347 0.33374 0.0
O670 O 0.154 0.6743 0.33182 0.0
O671 O 0.18075 0.65697 0.35712 0.0
O672 O 0.09554 0.61723 0.30114 0.0
O673 O 0.01637 0.57519 0.31077 0.0
O674 O 0.13441 0.5572 0.31893 0.0
O675 O 0.12937 0.56984 0.34437 0.0
O676 O 0.05952 0.50584 0.36239 0.0
O677 O 0.02365 0.50902 0.33665 0.0
C678 C 0.18973 0.68727 0.34391 0.0
C679 C 0.02698 0.48206 0.34961 0.0
Dy680 Dy 0.41187 0.51131 0.36505 0.0
C681 C 0.41237 0.45161 0.29667 0.0
C682 C 0.37818 0.51539 0.39645 0.0
Dy683 Dy 0.41407 0.49595 0.32676 0.0
O684 O 0.34809 0.4866 0.38433 0.0
O685 O 0.42772 0.54268 0.39148 0.0
O686 O 0.42439 0.44124 0.36817 0.0
O687 O 0.38016 0.44284 0.34791 0.0
C688 C 0.39985 0.4173 0.35464 0.0
C689 C 0.44981 0.59928 0.33257 0.0
O690 O 0.33041 0.48044 0.33049 0.0
O691 O 0.34622 0.52337 0.35597 0.0
O692 O 0.38934 0.4793 0.29994 0.0
O693 O 0.43537 0.44707 0.30998 0.0
O694 O 0.44625 0.57972 0.31777 0.0
O695 O 0.43451 0.56237 0.34321 0.0
O696 O 0.49953 0.55873 0.36109 0.0
O697 O 0.49731 0.51928 0.33557 0.0
C698 C 0.31626 0.5019 0.34268 0.0
C699 C 0.52392 0.55016 0.34847 0.0
Dy700 Dy 0.49838 0.90505 0.36668 0.0
C701 C 0.54446 0.96841 0.298 0.0
C702 C 0.49739 0.86801 0.39799 0.0
Dy703 Dy 0.50924 0.92372 0.32853 0.0
O704 O 0.46866 0.88896 0.39329 0.0
O705 O 0.52589 0.86747 0.38565 0.0
O706 O 0.56811 0.98843 0.36974 0.0
O707 O 0.5648 0.94396 0.34898 0.0
C708 C 0.59049 0.98891 0.35575 0.0
C709 C 0.40731 0.85314 0.33476 0.0
O710 O 0.51706 0.85052 0.32971 0.0
O711 O 0.48801 0.82809 0.35707 0.0
O712 O 0.50754 0.97 0.30667 0.0
O713 O 0.56368 0.94291 0.30616 0.0
O714 O 0.42623 0.86843 0.31989 0.0
O715 O 0.44448 0.87502 0.34537 0.0
O716 O 0.44917 0.94373 0.36349 0.0
O717 O 0.49505 0.98737 0.33962 0.0
C718 C 0.5017 0.81707 0.34252 0.0
C719 C 0.46044 0.97975 0.35169 0.0
C720 C 0.12732 0.1236 0.18779 0.0
C721 C 0.14878 0.15888 0.17441 0.0
H722 H 0.11868 0.0541 0.19971 0.0
C723 C 0.18223 0.1525 0.16303 0.0
H724 H 0.10173 0.12781 0.19678 0.0
C725 C 0.19165 0.10969 0.16454 0.0
C726 C 0.16819 0.07294 0.17756 0.0
H727 H 0.19954 0.17942 0.1526 0.0
H728 H 0.21601 0.10461 0.15529 0.0
C729 C 0.13709 0.08127 0.1894 0.0
C730 C 0.9087 0.06718 0.18752 0.0
C731 C 0.93831 0.0968 0.17362 0.0
H732 H 0.85092 0.9903 0.19704 0.0
C733 C 0.92945 0.07125 0.15819 0.0
H734 H 0.91485 0.08593 0.19961 0.0
C735 C 0.89406 0.0166 0.15686 0.0
C736 C 0.86601 0.98659 0.17087 0.0
H737 H 0.95202 0.09276 0.14731 0.0
H738 H 0.88945 0.9977 0.14487 0.0
C739 C 0.87242 0.01253 0.18612 0.0
C740 C 0.99354 0.86372 0.18763 0.0
C741 C 0.01771 0.87849 0.17196 0.0
H742 H 0.92135 0.83635 0.20161 0.0
C743 C 0.98576 0.87037 0.15785 0.0
H744 H 0.01733 0.86931 0.19865 0.0
C745 C 0.93083 0.85 0.15944 0.0
C746 C 0.9072 0.8386 0.17522 0.0
H747 H 1.00338 0.88087 0.14557 0.0
H748 H 0.90761 0.84659 0.14847 0.0
C749 C 0.93875 0.84456 0.18927 0.0
C750 C 0.13206 0.14165 0.34108 0.0
C751 C 0.13986 0.12419 0.35651 0.0
H752 H 0.08814 0.17058 0.32738 0.0
C753 C 0.1129 0.12798 0.37056 0.0
H754 H 0.15262 0.13942 0.33011 0.0
C755 C 0.07726 0.14706 0.36913 0.0
C756 C 0.06706 0.16166 0.35355 0.0
H757 H 0.11857 0.11528 0.38268 0.0
H758 H 0.05548 0.14743 0.38004 0.0
C759 C 0.09548 0.15972 0.33958 0.0
C760 C 0.84684 0.93818 0.33803 0.0
C761 C 0.84141 0.90704 0.35212 0.0
H762 H 0.86972 0.01612 0.32861 0.0
C763 C 0.85228 0.93071 0.36789 0.0
H764 H 0.83897 0.92072 0.32571 0.0
C765 C 0.87139 0.98533 0.36945 0.0
C766 C 0.87872 0.01687 0.35532 0.0
H767 H 0.84923 0.90779 0.37889 0.0
H768 H 0.88133 0.003 0.38174 0.0
C769 C 0.86471 0.99263 0.33965 0.0
C770 C 0.01307 0.87377 0.34016 0.0
C771 C 0.9892 0.86361 0.35589 0.0
H772 H 0.08482 0.91957 0.3261 0.0
C773 C 0.02126 0.88742 0.36998 0.0
H774 H 0.98917 0.8556 0.32916 0.0
C775 C 0.07599 0.92257 0.36832 0.0
C776 C 0.09931 0.93542 0.35251 0.0
H777 H 1.00388 0.87976 0.38231 0.0
H778 H 0.09928 0.94219 0.37931 0.0
C779 C 0.06767 0.90998 0.33846 0.0
C780 C 0.87452 0.87508 0.8416 0.0
C781 C 0.86859 0.85227 0.85734 0.0
H782 H 0.86745 0.93282 0.82694 0.0
C783 C 0.84525 0.86664 0.87021 0.0
H784 H 0.89209 0.86437 0.83147 0.0
C785 C 0.83075 0.90542 0.86766 0.0
C786 C 0.8398 0.93085 0.85221 0.0
H787 H 0.83979 0.84915 0.88246 0.0
H788 H 0.81508 0.91734 0.87802 0.0
C789 C 0.86038 0.91421 0.83906 0.0
C790 C 0.14087 0.97805 0.87095 0.0
C791 C 0.15614 0.0155 0.85801 0.0
H792 H 0.08805 0.89821 0.87904 0.0
C793 C 0.13154 0.99907 0.84246 0.0
H794 H 0.15953 0.98969 0.88307 0.0
C795 C 0.09032 0.94652 0.84015 0.0
C796 C 0.07327 0.90953 0.85336 0.0
H797 H 0.14273 0.02721 0.8323 0.0
H798 H 0.07086 0.93536 0.82814 0.0
C799 C 0.09998 0.92555 0.86864 0.0
C800 C 0.01626 0.1371 0.8414 0.0
C801 C 0.99092 0.1213 0.85688 0.0
H802 H 0.08918 0.1645 0.82783 0.0
C803 C 0.02152 0.12644 0.87109 0.0
H804 H 0.99352 0.13375 0.83031 0.0
C805 C 0.07623 0.14531 0.86979 0.0
C806 C 0.10109 0.15822 0.85419 0.0
H807 H 1.00304 0.11504 0.88324 0.0
H808 H 0.09835 0.14693 0.88085 0.0
C809 C 0.07087 0.15484 0.84003 0.0
C810 C 0.89639 0.87923 0.65725 0.0
C811 C 0.87073 0.8843 0.67144 0.0
H812 H 0.9527 0.85854 0.64757 0.0
C813 C 0.87943 0.86776 0.68689 0.0
H814 H 0.88989 0.89117 0.64512 0.0
C815 C 0.91586 0.84953 0.68829 0.0
C816 C 0.94308 0.84643 0.67418 0.0
H817 H 0.85982 0.87099 0.69795 0.0
H818 H 0.92406 0.83947 0.70049 0.0
C819 C 0.93181 0.85989 0.65858 0.0
C820 C 0.14723 0.06159 0.68772 0.0
C821 C 0.16374 0.09728 0.67416 0.0
H822 H 0.12142 0.98182 0.69607 0.0
C823 C 0.17016 0.07953 0.65856 0.0
H824 H 0.1421 0.07393 0.69997 0.0
C825 C 0.15831 0.02687 0.65642 0.0
C826 C 0.1399 0.99082 0.66981 0.0
H827 H 0.18286 0.10578 0.64788 0.0
H828 H 0.1624 0.01406 0.64412 0.0
C829 C 0.13542 0.00881 0.68556 0.0
C830 C 0.94857 0.09066 0.69003 0.0
C831 C 0.91185 0.07463 0.67675 0.0
H832 H 0.02994 0.13987 0.69791 0.0
C833 C 0.92901 0.10015 0.66135 0.0
H834 H 0.93638 0.0719 0.70211 0.0
C835 C 0.98249 0.13852 0.65899 0.0
C836 C 0.01967 0.15241 0.672 0.0
H837 H 0.90183 0.08866 0.6509 0.0
H838 H 0.99502 0.15626 0.64678 0.0
C839 C 1.00209 0.12943 0.68768 0.0
C840 C 0.83987 0.42679 0.49208 0.0
C841 C 0.83422 0.4035 0.50776 0.0
H842 H 0.8289 0.48196 0.47736 0.0
C843 C 0.81696 0.42237 0.52124 0.0
H844 H 0.853 0.41327 0.48147 0.0
C845 C 0.80297 0.46169 0.51888 0.0
C846 C 0.80595 0.48272 0.50301 0.0
H847 H 0.81252 0.40553 0.53355 0.0
H848 H 0.78819 0.47427 0.52931 0.0
C849 C 0.82575 0.46593 0.48973 0.0
C850 C 0.5448 0.34134 0.51886 0.0
C851 C 0.52104 0.32411 0.50323 0.0
H852 H 0.60466 0.40575 0.53314 0.0
C853 C 0.53681 0.36092 0.49009 0.0
H854 H 0.53316 0.31373 0.52918 0.0
C855 C 0.57755 0.41357 0.49228 0.0
C856 C 0.60353 0.43031 0.50766 0.0
H857 H 0.51874 0.34863 0.47791 0.0
H858 H 0.59007 0.4404 0.48174 0.0
C859 C 0.5858 0.39401 0.52105 0.0
C860 C 0.60206 0.19382 0.49225 0.0
C861 C 0.57707 0.18136 0.50781 0.0
H862 H 0.67527 0.22313 0.47889 0.0
C863 C 0.60701 0.18471 0.52204 0.0
H864 H 0.58013 0.19223 0.48114 0.0
C865 C 0.66152 0.20193 0.52077 0.0
C866 C 0.68702 0.21723 0.50531 0.0
H867 H 0.58855 0.17539 0.53423 0.0
H868 H 0.68403 0.20518 0.53191 0.0
C869 C 0.65668 0.21216 0.49104 0.0
C870 C 0.80464 0.47986 0.67465 0.0
C871 C 0.81167 0.46121 0.68996 0.0
H872 H 0.7618 0.5104 0.66114 0.0
C873 C 0.78492 0.46501 0.70407 0.0
H874 H 0.8251 0.47769 0.66364 0.0
C875 C 0.75003 0.48505 0.70278 0.0
C876 C 0.74039 0.5006 0.68728 0.0
H877 H 0.79005 0.45145 0.71611 0.0
H878 H 0.72813 0.48516 0.7137 0.0
C879 C 0.7688 0.49888 0.67328 0.0
C880 C 0.54076 0.27197 0.70297 0.0
C881 C 0.522 0.24528 0.6878 0.0
H882 H 0.57443 0.34627 0.71587 0.0
C883 C 0.51937 0.27359 0.67393 0.0
H884 H 0.5439 0.25139 0.71378 0.0
C885 C 0.53653 0.328 0.67513 0.0
C886 C 0.5575 0.35508 0.69012 0.0
H887 H 0.50513 0.25389 0.66204 0.0
H888 H 0.53479 0.34912 0.66425 0.0
C889 C 0.55884 0.32646 0.70408 0.0
C890 C 0.75279 0.24261 0.69993 0.0
C891 C 0.7694 0.26925 0.68468 0.0
H892 H 0.68751 0.18474 0.71435 0.0
C893 C 0.73238 0.25357 0.67149 0.0
H894 H 0.78019 0.25372 0.71031 0.0
C895 C 0.67912 0.21391 0.67379 0.0
C896 C 0.66209 0.18968 0.68935 0.0
H897 H 0.74411 0.27316 0.65951 0.0
H898 H 0.65101 0.20374 0.66365 0.0
C899 C 0.69959 0.20336 0.70225 0.0
C900 C 0.51244 0.20308 0.20297 0.0
C901 C 0.53487 0.18854 0.18987 0.0
H902 H 0.48209 0.25334 0.21108 0.0
C903 C 0.53901 0.21048 0.17408 0.0
H904 H 0.5082 0.18611 0.21525 0.0
C905 C 0.52391 0.24894 0.1717 0.0
C906 C 0.50418 0.26573 0.18506 0.0
H907 H 0.55569 0.19946 0.16378 0.0
H908 H 0.52954 0.26693 0.15952 0.0
C909 C 0.49699 0.24119 0.20057 0.0
C910 C 0.79994 0.31425 0.20507 0.0
C911 C 0.81773 0.35024 0.19166 0.0
H912 H 0.74524 0.23545 0.21366 0.0
C913 C 0.7952 0.33221 0.17593 0.0
H914 H 0.81687 0.3271 0.21737 0.0
C915 C 0.75403 0.27952 0.1738 0.0
C916 C 0.73468 0.2439 0.18738 0.0
H917 H 0.80827 0.35914 0.16541 0.0
H918 H 0.73655 0.26718 0.16155 0.0
C919 C 0.75892 0.26165 0.20296 0.0
C920 C 0.73361 0.48945 0.17303 0.0
C921 C 0.76413 0.49293 0.18712 0.0
H922 H 0.65601 0.46794 0.16346 0.0
C923 C 0.73958 0.47979 0.20275 0.0
H924 H 0.75171 0.49925 0.1608 0.0
C925 C 0.68484 0.46055 0.20416 0.0
C926 C 0.65396 0.45529 0.19001 0.0
H927 H 0.76198 0.48143 0.21375 0.0
H928 H 0.66656 0.44897 0.21633 0.0
C929 C 0.67899 0.47135 0.1745 0.0
C930 C 0.58366 0.18136 0.02149 0.0
C931 C 0.61112 0.17883 1.00736 0.0
H932 H 0.52683 0.20164 0.03122 0.0
C933 C 0.59961 0.19226 0.99179 0.0
H934 H 0.59201 0.1713 0.03367 0.0
C935 C 0.56359 0.21089 0.99051 0.0
C936 C 0.53758 0.21528 1.00471 0.0
H937 H 0.62066 0.19131 0.98076 0.0
H938 H 0.55685 0.22277 0.9784 0.0
C939 C 0.54667 0.19889 0.02014 0.0
C940 C 0.83033 0.35959 0.99034 0.0
C941 C 0.80902 0.32253 1.00341 0.0
H942 H 0.85649 0.43913 0.9821 0.0
C943 C 0.80159 0.33933 0.01901 0.0
H944 H 0.83677 0.34764 0.97819 0.0
C945 C 0.81281 0.39185 0.02124 0.0
C946 C 0.83185 0.42844 1.00793 0.0
H947 H 0.78536 0.31151 0.02927 0.0
H948 H 0.80511 0.40327 0.03331 0.0
C949 C 0.8418 0.41208 0.99258 0.0
C950 C 0.61416 0.42277 0.02257 0.0
C951 C 0.57673 0.40579 1.00948 0.0
H952 H 0.69576 0.473 0.03 0.0
C953 C 0.59274 0.431 0.99399 0.0
H954 H 0.60287 0.40432 0.03472 0.0
C955 C 0.64592 0.46992 0.99133 0.0
C956 C 0.68384 0.48461 1.00413 0.0
H957 H 0.56496 0.4188 0.98369 0.0
H958 H 0.6577 0.48725 0.97905 0.0
C959 C 0.6673 0.46201 0.01992 0.0
C960 C 0.46923 0.79205 0.85327 0.0
C961 C 0.47104 0.81249 0.83739 0.0
H962 H 0.48003 0.73653 0.86785 0.0
C963 C 0.48968 0.79513 0.82395 0.0
H964 H 0.45545 0.80516 0.86382 0.0
C965 C 0.50404 0.75613 0.82618 0.0
C966 C 0.49974 0.73358 0.8419 0.0
H967 H 0.49198 0.81076 0.81156 0.0
H968 H 0.51634 0.74218 0.81547 0.0
C969 C 0.48342 0.75285 0.85551 0.0
C970 C 0.2134 0.67268 0.85232 0.0
C971 C 0.19102 0.65462 0.83658 0.0
H972 H 0.2719 0.73779 0.86669 0.0
C973 C 0.20863 0.69059 0.82317 0.0
H974 H 0.20038 0.64576 0.86284 0.0
C975 C 0.2495 0.74323 0.82527 0.0
C976 C 0.27374 0.76096 0.84085 0.0
H977 H 0.19173 0.6777 0.81087 0.0
H978 H 0.26318 0.76941 0.81457 0.0
C979 C 0.25442 0.72541 0.85444 0.0
C980 C 0.32797 0.53039 0.85433 0.0
C981 C 0.3539 0.54695 0.83897 0.0
H982 H 0.25461 0.50258 0.86766 0.0
C983 C 0.32388 0.54274 0.82468 0.0
H984 H 0.35021 0.53294 0.86546 0.0
C985 C 0.26918 0.52406 0.82582 0.0
C986 C 0.24377 0.51038 0.84131 0.0
H987 H 0.34281 0.55471 0.81261 0.0
H988 H 0.24751 0.52326 0.81474 0.0
C989 C 0.27338 0.5128 0.85553 0.0
C990 C 0.46412 0.80512 1.00866 0.0
C991 C 0.47333 0.78929 0.02417 0.0
H992 H 0.41868 0.83221 0.99495 0.0
C993 C 0.44728 0.79402 0.03831 0.0
H994 H 0.48397 0.8021 0.99762 0.0
C995 C 0.41116 0.8125 0.03689 0.0
C996 C 0.39958 0.82543 0.02126 0.0
H997 H 0.4541 0.78256 0.05048 0.0
H998 H 0.39013 0.81375 0.04788 0.0
C999 C 0.42705 0.82252 1.00718 0.0
C1000 C 0.20922 0.66478 1.00927 0.0
C1001 C 0.2017 0.68156 0.02485 0.0
H1002 H 0.20575 0.60086 0.99497 0.0
C1003 C 0.18035 0.64445 0.03791 0.0
H1004 H 0.22548 0.69262 0.99901 0.0
C1005 C 0.16888 0.59194 0.03567 0.0
C1006 C 0.17888 0.57558 0.02033 0.0
H1007 H 0.17384 0.65635 0.05007 0.0
H1008 H 0.15414 0.56485 0.04614 0.0
C1009 C 0.198 0.61225 1.00703 0.0
C1010 C 0.34407 0.54217 1.0087 0.0
C1011 C 0.32685 0.51971 0.02447 0.0
H1012 H 0.40907 0.59977 0.99407 0.0
C1013 C 0.36422 0.53468 0.03746 0.0
H1014 H 0.31607 0.53097 0.99848 0.0
C1015 C 0.41751 0.5737 0.03498 0.0
C1016 C 0.43417 0.59873 0.01948 0.0
H1017 H 0.35193 0.51746 0.04973 0.0
H1018 H 0.44483 0.58613 0.0454 0.0
C1019 C 0.39729 0.58148 1.00623 0.0
C1020 C 0.18069 0.5381 0.53636 0.0
C1021 C 0.20304 0.52329 0.52331 0.0
H1022 H 0.15117 0.5891 0.54442 0.0
C1023 C 0.20802 0.54567 0.50755 0.0
H1024 H 0.17586 0.52084 0.54863 0.0
C1025 C 0.19379 0.58476 0.50515 0.0
C1026 C 0.17408 0.60173 0.51846 0.0
H1027 H 0.22471 0.5345 0.49729 0.0
H1028 H 0.20003 0.60302 0.493 0.0
C1029 C 0.16609 0.57683 0.53395 0.0
C1030 C 0.46331 0.66647 0.50951 0.0
C1031 C 0.4861 0.68404 0.52524 0.0
H1032 H 0.40412 0.60195 0.4951 0.0
C1033 C 0.46828 0.64781 0.53858 0.0
H1034 H 0.47642 0.69361 0.49904 0.0
C1035 C 0.42697 0.5954 0.53642 0.0
C1036 C 0.40245 0.57812 0.52085 0.0
H1037 H 0.48544 0.6603 0.55086 0.0
H1038 H 0.4133 0.56901 0.54706 0.0
C1039 C 0.42182 0.61396 0.50733 0.0
C1040 C 0.40482 0.82631 0.50683 0.0
C1041 C 0.43473 0.82877 0.52096 0.0
H1042 H 0.32775 0.80605 0.49707 0.0
C1043 C 0.40967 0.81527 0.53652 0.0
H1044 H 0.42331 0.83642 0.49465 0.0
C1045 C 0.35499 0.79662 0.53778 0.0
C1046 C 0.32467 0.79229 0.52358 0.0
H1047 H 0.43157 0.81615 0.54755 0.0
H1048 H 0.33629 0.78467 0.54989 0.0
C1049 C 0.35026 0.80877 0.50816 0.0
C1050 C 0.20282 0.51279 0.32356 0.0
C1051 C 0.18754 0.53389 0.33686 0.0
H1052 H 0.25505 0.48537 0.31497 0.0
C1053 C 0.21078 0.53898 0.35249 0.0
H1054 H 0.18507 0.50803 0.31137 0.0
C1055 C 0.25093 0.52595 0.35455 0.0
C1056 C 0.26834 0.50748 0.341 0.0
H1057 H 0.19943 0.55489 0.36293 0.0
H1058 H 0.26951 0.53206 0.36666 0.0
C1059 C 0.24274 0.49955 0.32562 0.0
C1060 C 0.48581 0.69188 0.32231 0.0
C1061 C 0.4679 0.65591 0.33572 0.0
H1062 H 0.5111 0.77108 0.31391 0.0
C1063 C 0.46533 0.67424 0.3516 0.0
H1064 H 0.4885 0.67879 0.30991 0.0
C1065 C 0.47839 0.72731 0.35391 0.0
C1066 C 0.4943 0.76295 0.34035 0.0
H1067 H 0.45186 0.64731 0.36213 0.0
H1068 H 0.47464 0.73993 0.36627 0.0
C1069 C 0.49896 0.74487 0.3246 0.0
C1070 C 0.26108 0.76 0.32683 0.0
C1071 C 0.24364 0.73428 0.34218 0.0
H1072 H 0.32684 0.81776 0.31256 0.0
C1073 C 0.27984 0.75101 0.35563 0.0
H1074 H 0.23435 0.74817 0.31625 0.0
C1075 C 0.33301 0.79103 0.35352 0.0
C1076 C 0.35077 0.81466 0.33793 0.0
H1077 H 0.26751 0.73223 0.36771 0.0
H1078 H 0.36046 0.80221 0.3639 0.0
C1079 C 0.31417 0.79966 0.32471 0.0
C1080 C 0.28026 0.3279 0.19356 0.0
C1081 C 0.25117 0.3436 0.18328 0.0
H1082 H 0.35521 0.33178 0.19818 0.0
C1083 C 0.27827 0.38065 0.17053 0.0
H1084 H 0.2607 0.29932 0.20347 0.0
C1085 C 0.33233 0.39906 0.16751 0.0
C1086 C 0.36039 0.38069 0.17711 0.0
H1087 H 0.25724 0.39379 0.16241 0.0
H1088 H 0.35159 0.42614 0.15723 0.0
C1089 C 0.33435 0.34619 0.19048 0.0
C1090 C 0.60574 0.93395 0.16579 0.0
C1091 C 0.61977 0.97754 0.17638 0.0
H1092 H 0.61646 0.86801 0.15964 0.0
C1093 C 0.65157 0.9842 0.19038 0.0
H1094 H 0.58087 0.92754 0.15499 0.0
C1095 C 0.67178 0.94983 0.19314 0.0
C1096 C 0.66079 0.90836 0.18188 0.0
H1097 H 0.66272 0.01731 0.19882 0.0
H1098 H 0.69833 0.95763 0.20359 0.0
C1099 C 0.62612 0.8998 0.16849 0.0
C1100 C 0.10541 0.72901 0.16879 0.0
C1101 C 0.09741 0.75549 0.18217 0.0
H1102 H 0.07718 0.65569 0.15549 0.0
C1103 C 0.05591 0.72546 0.1935 0.0
H1104 H 0.1371 0.75079 0.15988 0.0
C1105 C 0.02113 0.67091 0.19086 0.0
C1106 C 0.02749 0.64529 0.17694 0.0
H1107 H 0.04848 0.74454 0.20393 0.0
H1108 H 0.98815 0.64928 0.19937 0.0
C1109 C 0.07098 0.67448 0.16625 0.0
C1110 C 0.33203 0.28081 0.33436 0.0
C1111 C 0.3442 0.25127 0.34565 0.0
H1112 H 0.34001 0.35673 0.32837 0.0
C1113 C 0.37942 0.2783 0.35883 0.0
H1114 H 0.30497 0.2613 0.32408 0.0
C1115 C 0.39953 0.33288 0.36123 0.0
C1116 C 0.38455 0.3616 0.35059 0.0
H1117 H 0.38993 0.25692 0.3677 0.0
H1118 H 0.42507 0.3521 0.37184 0.0
C1119 C 0.35187 0.33545 0.33684 0.0
C1120 C 0.67464 0.07496 0.36098 0.0
C1121 C 0.64512 0.02993 0.35092 0.0
H1122 H 0.75105 0.14262 0.36628 0.0
C1123 C 0.66971 0.02236 0.33694 0.0
H1124 H 0.65654 0.08204 0.37175 0.0
C1125 C 0.72384 0.0572 0.33371 0.0
C1126 C 0.75448 0.1002 0.34446 0.0
H1127 H 0.64778 0.98813 0.32891 0.0
H1128 H 0.74221 0.04864 0.32332 0.0
C1129 C 0.7288 0.10976 0.35779 0.0
C1130 C 0.90085 0.625 0.35838 0.0
C1131 C 0.91023 0.66066 0.34526 0.0
H1132 H 0.92841 0.57962 0.37185 0.0
C1133 C 0.95321 0.67351 0.33441 0.0
H1134 H 0.86795 0.61397 0.36691 0.0
C1135 C 0.9882 0.65414 0.33735 0.0
C1136 C 0.98057 0.62125 0.35111 0.0
H1137 H 0.96168 0.70094 0.32419 0.0
H1138 H 0.0224 0.66667 0.32927 0.0
C1139 C 0.93557 0.60538 0.36124 0.0
C1140 C 0.67511 0.65667 0.83846 0.0
C1141 C 0.64952 0.62256 0.85195 0.0
H1142 H 0.74871 0.70527 0.82564 0.0
C1143 C 0.67894 0.60721 0.86214 0.0
H1144 H 0.65334 0.66901 0.83037 0.0
C1145 C 0.7336 0.62797 0.85947 0.0
C1146 C 0.76 0.66438 0.8465 0.0
H1147 H 0.66014 0.58061 0.87255 0.0
H1148 H 0.75547 0.61687 0.86796 0.0
C1149 C 0.72978 0.67729 0.83573 0.0
C1150 C 0.3369 0.05331 0.83576 0.0
C1151 C 0.34866 0.09507 0.84698 0.0
H1152 H 0.34579 0.98589 0.82987 0.0
C1153 C 0.38415 0.1039 0.86016 0.0
H1154 H 0.30978 0.04533 0.82546 0.0
C1155 C 0.40473 0.06983 0.86265 0.0
C1156 C 0.39013 0.02611 0.85207 0.0
H1157 H 0.39444 0.13589 0.86898 0.0
H1158 H 0.4303 0.07645 0.87329 0.0
C1159 C 0.35738 0.0191 0.8383 0.0
C1160 C 0.9543 0.27886 0.83476 0.0
C1161 C 0.9127 0.2487 0.84604 0.0
H1162 H 0.02139 0.35544 0.82881 0.0
C1163 C 0.9038 0.2752 0.85923 0.0
H1164 H 0.96236 0.25978 0.82446 0.0
C1165 C 0.93749 0.32991 0.86166 0.0
C1166 C 0.9811 0.3593 0.85103 0.0
H1167 H 0.87196 0.25334 0.86809 0.0
H1168 H 0.93065 0.34872 0.87229 0.0
C1169 C 0.9883 0.33363 0.83727 0.0
C1170 C 0.65763 0.67353 0.69067 0.0
C1171 C 0.62568 0.64796 0.67675 0.0
H1172 H 0.70394 0.74703 0.70375 0.0
C1173 C 0.61152 0.67713 0.66603 0.0
H1174 H 0.66896 0.65192 0.69917 0.0
C1175 C 0.6317 0.73166 0.66858 0.0
C1176 C 0.66611 0.75805 0.68198 0.0
H1177 H 0.58653 0.65831 0.65528 0.0
H1178 H 0.6219 0.75349 0.65967 0.0
C1179 C 0.67747 0.72802 0.69331 0.0
C1180 C 0.3395 0.98779 0.69023 0.0
C1181 C 0.36513 0.97919 0.67673 0.0
H1182 H 0.26563 0.9634 0.70286 0.0
C1183 C 0.33577 0.93462 0.66649 0.0
H1184 H 0.36127 0.02177 0.69837 0.0
C1185 C 0.28105 0.9012 0.66902 0.0
C1186 C 0.25452 0.91157 0.68189 0.0
H1187 H 0.35463 0.92676 0.65607 0.0
H1188 H 0.25922 0.86847 0.66045 0.0
C1189 C 0.2847 0.95423 0.69282 0.0
C1190 C 0.07481 0.39903 0.66821 0.0
C1191 C 0.02796 0.3808 0.67762 0.0
H1192 H 0.14454 0.39332 0.66337 0.0
C1193 C 0.01835 0.34538 0.69082 0.0
H1194 H 0.0835 0.42672 0.65806 0.0
C1195 C 0.05359 0.3264 0.69397 0.0
C1196 C 0.09906 0.34239 0.68395 0.0
H1197 H 0.98273 0.331 0.69836 0.0
H1198 H 0.04385 0.2974 0.70379 0.0
C1199 C 0.10992 0.37999 0.67132 0.0
C1200 C 0.9479 0.65689 0.52547 0.0
C1201 C 0.91835 0.67094 0.51478 0.0
H1202 H 0.02396 0.66419 0.5309 0.0
C1203 C 0.94534 0.70792 0.50201 0.0
H1204 H 0.92844 0.62845 0.53542 0.0
C1205 C 0.99994 0.72826 0.49946 0.0
C1206 C 0.02871 0.71189 0.50955 0.0
H1207 H 0.92399 0.7199 0.49361 0.0
H1208 H 0.01922 0.75546 0.48921 0.0
C1209 C 1.00257 0.67711 0.52285 0.0
C1210 C 0.29402 0.23531 0.50158 0.0
C1211 C 0.32947 0.24446 0.51479 0.0
H1212 H 0.24804 0.26255 0.48826 0.0
C1213 C 0.34123 0.28648 0.52591 0.0
H1214 H 0.28373 0.20312 0.49284 0.0
C1215 C 0.32084 0.32067 0.52321 0.0
C1216 C 0.2882 0.31337 0.50939 0.0
H1217 H 0.36831 0.2947 0.53623 0.0
H1218 H 0.3325 0.35412 0.53153 0.0
C1219 C 0.27355 0.26939 0.49892 0.0
C1220 C 0.74342 0.00809 0.50175 0.0
C1221 C 0.69817 0.97918 0.5118 0.0
H1222 H 0.81103 0.08404 0.49605 0.0
C1223 C 0.69009 0.00484 0.52539 0.0
H1224 H 0.75098 0.98923 0.49128 0.0
C1225 C 0.72478 0.05931 0.52822 0.0
C1226 C 0.76809 0.08915 0.51746 0.0
H1227 H 0.65575 0.98338 0.53343 0.0
H1228 H 0.71594 0.07849 0.53831 0.0
C1229 C 0.77795 0.06247 0.50453 0.0
C1230 C 0.02373 0.67032 0.67035 0.0
C1231 C 0.05585 0.69604 0.68422 0.0
H1232 H 0.97722 0.59656 0.65738 0.0
C1233 C 0.07039 0.66703 0.69489 0.0
H1234 H 0.01225 0.69187 0.66185 0.0
C1235 C 0.05028 0.6125 0.69239 0.0
C1236 C 0.01553 0.58588 0.67908 0.0
H1237 H 0.09553 0.68594 0.70561 0.0
H1238 H 0.06035 0.59083 0.70128 0.0
C1239 C 1.00391 0.61576 0.66776 0.0
C1240 C 0.34552 0.40893 0.69456 0.0
C1241 C 0.31605 0.36393 0.68449 0.0
H1242 H 0.42191 0.47632 0.70004 0.0
C1243 C 0.34104 0.356 0.67067 0.0
H1244 H 0.32715 0.41631 0.70521 0.0
C1245 C 0.39543 0.39053 0.66763 0.0
C1246 C 0.42589 0.43362 0.67838 0.0
H1247 H 0.31918 0.32179 0.66262 0.0
H1248 H 0.41408 0.38178 0.65736 0.0
C1249 C 0.39985 0.4434 0.69155 0.0
C1250 C 0.6061 0.94247 0.69336 0.0
C1251 C 0.65306 0.9611 0.68399 0.0
H1252 H 0.53592 0.94746 0.69807 0.0
C1253 C 0.66234 0.99607 0.6707 0.0
H1254 H 0.59767 0.91505 0.70358 0.0
C1255 C 0.62673 0.01445 0.66744 0.0
C1256 C 0.58126 0.99831 0.67745 0.0
H1257 H 0.69805 0.01069 0.66319 0.0
H1258 H 0.63628 0.04326 0.65757 0.0
C1259 C 0.5706 0.96091 0.69014 0.0
C1260 C 0.34328 0.94235 0.19314 0.0
C1261 C 0.31474 0.96072 0.18376 0.0
H1262 H 0.41872 0.94808 0.198 0.0
C1263 C 0.3407 0.99642 0.17064 0.0
H1264 H 0.32418 0.91444 0.20324 0.0
C1265 C 0.39498 0.01554 0.16753 0.0
C1266 C 0.42438 0.99941 0.17752 0.0
H1267 H 0.31952 0.0109 0.16312 0.0
H1268 H 0.41434 0.04474 0.15777 0.0
C1269 C 0.39749 0.96154 0.19008 0.0
C1270 C 0.99869 0.38693 0.16826 0.0
C1271 C 0.01123 0.42914 0.17939 0.0
H1272 H 0.00778 0.31975 0.1622 0.0
C1273 C 0.04815 0.43893 0.19219 0.0
H1274 H 0.97044 0.37819 0.15825 0.0
C1275 C 0.06966 0.40551 0.19438 0.0
C1276 C 0.05446 0.36143 0.18389 0.0
H1277 H 0.05903 0.47126 0.20092 0.0
H1278 H 0.09649 0.41295 0.20472 0.0
C1279 C 0.01998 0.35331 0.17053 0.0
C1280 C 0.56915 0.60941 0.19229 0.0
C1281 C 0.57772 0.58262 0.17912 0.0
H1282 H 0.59715 0.68296 0.20543 0.0
C1283 C 0.62008 0.61215 0.16802 0.0
H1284 H 0.53677 0.58797 0.20101 0.0
C1285 C 0.65509 0.66657 0.17069 0.0
C1286 C 0.64808 0.69249 0.18439 0.0
H1287 H 0.62794 0.59277 0.15777 0.0
H1288 H 0.68865 0.68789 0.16235 0.0
C1289 C 0.60383 0.66383 0.19485 0.0
C1290 C 0.27527 0.00681 1.0005 0.0
C1291 C 0.28957 0.97734 1.01105 0.0
H1292 H 0.28636 0.08343 0.99416 0.0
C1293 C 0.32263 0.00289 0.02477 0.0
H1294 H 0.24944 0.98807 0.98991 0.0
C1295 C 0.34357 0.05767 0.02731 0.0
C1296 C 0.33208 0.08792 0.0161 0.0
H1297 H 0.33397 0.98101 0.03317 0.0
H1298 H 0.3709 0.07669 0.03756 0.0
C1299 C 0.29642 0.06151 1.00296 0.0
C1300 C 0.00649 0.32256 0.0236 0.0
C1301 C 0.03263 0.31477 1.01009 0.0
H1302 H 0.93233 0.29642 0.03625 0.0
C1303 C 1.00408 0.27002 0.99985 0.0
H1304 H 0.02771 0.35657 0.03177 0.0
C1305 C 0.94954 0.23556 1.00237 0.0
C1306 C 0.92242 0.24502 0.01526 0.0
H1307 H 0.02338 0.26276 0.98943 0.0
H1308 H 0.92829 0.20271 0.9938 0.0
C1309 C 0.95187 0.28793 0.02619 0.0
C1310 C 0.7176 0.65735 0.02616 0.0
C1311 C 0.76078 0.67113 0.01529 0.0
H1312 H 0.64898 0.66463 0.03184 0.0
C1313 C 0.77025 0.70779 1.00247 0.0
H1314 H 0.70902 0.6292 0.03616 0.0
C1315 C 0.73582 0.728 1.00003 0.0
C1316 C 0.69102 0.71179 1.0103 0.0
H1317 H 0.80322 0.71954 0.99392 0.0
H1318 H 0.74327 0.75488 0.98973 0.0
C1319 C 0.68298 0.67741 0.02365 0.0
C1320 C 0.66616 0.06047 0.8345 0.0
C1321 C 0.69497 0.043 0.84413 0.0
H1322 H 0.59043 0.05378 0.82942 0.0
C1323 C 0.66922 0.00797 0.85742 0.0
H1324 H 0.68512 0.08784 0.82427 0.0
C1325 C 0.61489 0.98859 0.86046 0.0
C1326 C 0.58522 0.00379 0.85025 0.0
H1327 H 0.69062 0.99419 0.86512 0.0
H1328 H 0.59573 0.95994 0.87038 0.0
C1329 C 0.61187 0.04104 0.83751 0.0
C1330 C 0.99436 0.65684 0.85689 0.0
C1331 C 0.96018 0.64884 0.84344 0.0
H1332 H 0.04234 0.63067 0.86954 0.0
C1333 C 0.94365 0.60381 0.83329 0.0
H1334 H 0.00744 0.69109 0.86498 0.0
C1335 C 0.96354 0.56922 0.83586 0.0
C1336 C 1.00025 0.57879 0.8487 0.0
H1337 H 0.91691 0.59637 0.82292 0.0
H1338 H 0.95162 0.53612 0.82736 0.0
C1339 C 0.01415 0.62206 0.85952 0.0
C1340 C 0.35708 0.33615 0.85919 0.0
C1341 C 0.36546 0.31074 0.8456 0.0
H1342 H 0.38283 0.40953 0.87223 0.0
C1343 C 0.41117 0.33962 0.83573 0.0
H1344 H 0.32239 0.31467 0.86709 0.0
C1345 C 0.44584 0.39386 0.83865 0.0
C1346 C 0.43564 0.42036 0.85155 0.0
H1347 H 0.41895 0.3209 0.82527 0.0
H1348 H 0.47924 0.41549 0.83029 0.0
C1349 C 0.39192 0.39047 0.86217 0.0
C1350 C 0.71462 0.94297 0.0256 0.0
C1351 C 0.67884 0.91643 1.0125 0.0
H1352 H 0.76171 0.01654 0.03857 0.0
C1353 C 0.66731 0.94654 1.00125 0.0
H1354 H 0.7247 0.92113 0.03442 0.0
C1355 C 0.6883 1.00134 1.00372 0.0
C1356 C 0.72142 0.02701 0.01742 0.0
H1357 H 0.63989 0.92741 0.99102 0.0
H1358 H 0.67691 0.02314 0.99531 0.0
C1359 C 0.73581 0.99768 0.02799 0.0
C1360 C 1.00455 0.6812 1.00452 0.0
C1361 C 0.97822 0.68911 0.01794 0.0
H1362 H 0.07888 0.70734 0.99196 0.0
C1363 C 0.00658 0.73409 0.02812 0.0
H1364 H 0.98349 0.647 0.9964 0.0
C1365 C 0.0611 0.76865 0.02562 0.0
C1366 C 0.08842 0.75907 1.01282 0.0
H1367 H 0.98714 0.74146 0.03848 0.0
H1368 H 0.08219 0.80167 0.03415 0.0
C1369 C 0.05917 0.71593 1.00195 0.0
C1370 C 0.29454 0.34789 1.00233 0.0
C1371 C 0.25061 0.33356 1.0129 0.0
H1372 H 0.36388 0.34135 0.99717 0.0
C1373 C 0.24058 0.29673 0.02572 0.0
H1374 H 0.30357 0.37621 0.99235 0.0
C1375 C 0.2752 0.27691 0.02846 0.0
C1376 C 0.32068 0.29363 0.0185 0.0
H1377 H 0.20702 0.28456 0.03405 0.0
H1378 H 0.26728 0.24988 0.03876 0.0
C1379 C 0.32931 0.32817 1.00513 0.0
C1380 C 0.06207 0.34454 0.50057 0.0
C1381 C 0.09232 0.33071 0.51099 0.0
H1382 H 0.98588 0.33751 0.49574 0.0
C1383 C 0.06613 0.2939 0.52389 0.0
H1384 H 0.08084 0.3728 0.49053 0.0
C1385 C 0.01169 0.27376 0.52685 0.0
C1386 C 0.98232 0.29006 0.51702 0.0
H1387 H 0.08806 0.28221 0.53215 0.0
H1388 H 0.99308 0.24692 0.53723 0.0
C1389 C 0.00763 0.32446 0.50357 0.0
C1390 C 0.66515 0.71784 0.50193 0.0
C1391 C 0.67859 0.76043 0.513 0.0
H1392 H 0.67283 0.6497 0.49595 0.0
C1393 C 0.7155 0.76977 0.52576 0.0
H1394 H 0.63688 0.70946 0.49195 0.0
C1395 C 0.73605 0.73559 0.52799 0.0
C1396 C 0.71997 0.69116 0.51759 0.0
H1397 H 0.72709 0.80237 0.53444 0.0
H1398 H 0.76291 0.74278 0.53831 0.0
C1399 C 0.68558 0.68346 0.50423 0.0
C1400 C 0.28793 0.94895 0.50109 0.0
C1401 C 0.24599 0.91881 0.51226 0.0
H1402 H 0.35534 0.02542 0.49531 0.0
C1403 C 0.23662 0.94522 0.52537 0.0
H1404 H 0.29629 0.92992 0.49085 0.0
C1405 C 0.27034 0.99985 0.52786 0.0
C1406 C 0.31435 0.02915 0.51738 0.0
H1407 H 0.20448 0.92335 0.53413 0.0
H1408 H 0.26323 0.01864 0.53845 0.0
C1409 C 0.32193 0.00363 0.50366 0.0
C1410 C 0.96234 0.39648 0.33559 0.0
C1411 C 0.9985 0.42305 0.3486 0.0
H1412 H 0.91574 0.3231 0.32247 0.0
C1413 C 0.0118 0.39324 0.35942 0.0
H1414 H 0.95096 0.41803 0.32708 0.0
C1415 C 0.99181 0.33876 0.35668 0.0
C1416 C 0.958 0.31308 0.34313 0.0
H1417 H 0.03962 0.41238 0.36956 0.0
H1418 H 1.00437 0.31726 0.3648 0.0
C1419 C 0.94223 0.34206 0.33292 0.0
C1420 C 0.6649 0.60501 0.33254 0.0
C1421 C 0.69346 0.64997 0.34272 0.0
H1422 H 0.58906 0.53779 0.32647 0.0
C1423 C 0.66706 0.65861 0.35597 0.0
H1424 H 0.6844 0.5971 0.32232 0.0
C1425 C 0.61233 0.62434 0.35844 0.0
C1426 C 0.58301 0.58098 0.34765 0.0
H1427 H 0.68828 0.69279 0.36407 0.0
H1428 H 0.59266 0.63329 0.36836 0.0
C1429 C 0.61024 0.57095 0.33494 0.0
C1430 C 0.40462 0.06414 0.33492 0.0
C1431 C 0.35797 0.04609 0.34442 0.0
H1432 H 0.47406 0.05809 0.32991 0.0
C1433 C 0.34846 0.01066 0.3576 0.0
H1434 H 0.41325 0.09185 0.32477 0.0
C1435 C 0.38355 0.99144 0.36065 0.0
C1436 C 0.42878 0.00721 0.35053 0.0
H1437 H 0.31298 0.99641 0.36521 0.0
H1438 H 0.37388 0.96243 0.37045 0.0
C1439 C 0.43959 0.04488 0.33792 0.0
C1440 C 0.11162 0.38325 0.09425 0.0
C1441 C 0.10341 0.35002 0.08052 0.0
H1442 H 0.1107 0.38952 0.12079 0.0
C1443 C 0.08357 0.29536 0.08316 0.0
H1444 H 0.12684 0.42554 0.09257 0.0
C1445 C 0.07466 0.27479 0.09933 0.0
C1446 C 0.08516 0.30852 0.11309 0.0
H1447 H 0.07694 0.26887 0.07278 0.0
H1448 H 0.06117 0.23285 0.10107 0.0
C1449 C 0.10243 0.36265 0.1104 0.0
C1450 C 0.6153 0.73926 0.09488 0.0
C1451 C 0.64969 0.75791 0.08108 0.0
H1452 H 0.60851 0.73562 0.12147 0.0
C1453 C 0.70508 0.78566 0.08372 0.0
H1454 H 0.57239 0.71764 0.09319 0.0
C1455 C 0.72568 0.79632 0.09989 0.0
C1456 C 0.69125 0.77895 0.11369 0.0
H1457 H 0.73245 0.80049 0.0733 0.0
H1458 H 0.76856 0.81906 0.10158 0.0
C1459 C 0.63591 0.74946 0.11105 0.0
C1460 C 0.26264 0.89936 0.11146 0.0
C1461 C 0.22829 0.91981 0.11414 0.0
H1462 H 0.29912 0.87261 0.09356 0.0
C1463 C 0.2073 0.93303 0.10037 0.0
H1464 H 0.27946 0.88899 0.12186 0.0
C1465 C 0.21876 0.92398 0.0842 0.0
C1466 C 0.25122 0.90135 0.08153 0.0
H1467 H 0.18086 0.94907 0.1021 0.0
H1468 H 0.20072 0.93299 0.07383 0.0
C1469 C 0.27393 0.89009 0.09528 0.0
C1470 C 0.38772 0.11497 0.43305 0.0
C1471 C 0.35364 0.10401 0.44676 0.0
H1472 H 0.39475 0.11677 0.40646 0.0
C1473 C 0.29875 0.08265 0.44403 0.0
H1474 H 0.43025 0.13151 0.43482 0.0
C1475 C 0.27861 0.07468 0.42785 0.0
C1476 C 0.31295 0.08763 0.41412 0.0
H1477 H 0.27161 0.07392 0.45438 0.0
H1478 H 0.2363 0.05963 0.42609 0.0
C1479 C 0.36749 0.10668 0.41684 0.0
C1480 C 0.84954 0.17384 0.4223 0.0
C1481 C 0.89655 0.21003 0.414 0.0
H1482 H 0.80324 0.15511 0.44453 0.0
C1483 C 0.93418 0.25652 0.42229 0.0
H1484 H 0.81982 0.13769 0.41622 0.0
C1485 C 0.92483 0.26635 0.4387 0.0
C1486 C 0.87753 0.23002 0.4469 0.0
H1487 H 0.97081 0.28497 0.41615 0.0
H1488 H 0.9543 0.30233 0.4449 0.0
C1489 C 0.84004 0.18383 0.43852 0.0
C1490 C 0.80127 0.72662 0.42758 0.0
C1491 C 0.77932 0.69256 0.41381 0.0
H1492 H 0.80812 0.73333 0.45413 0.0
C1493 C 0.74373 0.63813 0.41653 0.0
H1494 H 0.82868 0.76882 0.42585 0.0
C1495 C 0.73207 0.61779 0.43274 0.0
C1496 C 0.75555 0.6516 0.44649 0.0
H1497 H 0.72616 0.61103 0.40613 0.0
H1498 H 0.70586 0.57537 0.43448 0.0
C1499 C 0.78939 0.70636 0.44377 0.0
C1500 C 0.90234 0.6345 0.91708 0.0
C1501 C 0.92882 0.68977 0.91443 0.0
H1502 H 0.86955 0.57118 0.93494 0.0
C1503 C 0.94684 0.72422 0.92822 0.0
H1504 H 0.8881 0.60706 0.90668 0.0
C1505 C 0.93614 0.70373 0.9444 0.0
C1506 C 0.90734 0.64846 0.94704 0.0
H1507 H 0.96743 0.76705 0.92653 0.0
H1508 H 0.94872 0.73116 0.9548 0.0
C1509 C 0.89174 0.61401 0.93326 0.0
C1510 C 0.28871 0.22246 0.92902 0.0
C1511 C 0.32306 0.23448 0.91532 0.0
H1512 H 0.28151 0.22029 0.9556 0.0
C1513 C 0.37813 0.25748 0.91806 0.0
H1514 H 0.24603 0.20468 0.92723 0.0
C1515 C 0.39828 0.26603 0.93425 0.0
C1516 C 0.36373 0.25198 0.94796 0.0
H1517 H 0.40546 0.2671 0.90772 0.0
H1518 H 0.44078 0.28234 0.93602 0.0
C1519 C 0.30893 0.23128 0.94523 0.0
C1520 C 0.80306 0.07207 0.92792 0.0
C1521 C 0.78149 0.08484 0.91421 0.0
H1522 H 0.81003 0.07217 0.95444 0.0
C1523 C 0.74645 0.10442 0.91695 0.0
H1524 H 0.83001 0.05667 0.92614 0.0
C1525 C 0.73511 0.11338 0.93315 0.0
C1526 C 0.75842 0.10263 0.94684 0.0
H1527 H 0.72917 0.11439 0.90658 0.0
H1528 H 0.70941 0.13027 0.93494 0.0
C1529 C 0.79151 0.08077 0.94411 0.0
C1530 C 0.71295 0.92576 0.58424 0.0
C1531 C 0.65797 0.90383 0.58155 0.0
H1532 H 0.77572 0.95036 0.60216 0.0
C1533 C 0.62402 0.89349 0.59526 0.0
H1534 H 0.73998 0.93407 0.57389 0.0
C1535 C 0.64447 0.90291 0.61145 0.0
C1536 C 0.69912 0.92257 0.61415 0.0
H1537 H 0.58143 0.87659 0.59351 0.0
H1538 H 0.6173 0.89322 0.62184 0.0
C1539 C 0.73334 0.93494 0.60041 0.0
C1540 C 0.13668 0.74254 0.59432 0.0
C1541 C 0.1146 0.75485 0.58063 0.0
H1542 H 0.14387 0.74256 0.62083 0.0
C1543 C 0.07898 0.7737 0.58345 0.0
H1544 H 0.16411 0.72773 0.59249 0.0
C1545 C 0.06748 0.78228 0.5997 0.0
C1546 C 0.0912 0.77187 0.61337 0.0
H1547 H 0.06131 0.78334 0.57312 0.0
H1548 H 0.04127 0.79854 0.60154 0.0
C1549 C 0.12499 0.75085 0.61054 0.0
C1550 C 0.19507 0.34529 0.58924 0.0
C1551 C 0.24099 0.35395 0.5807 0.0
H1552 H 0.15155 0.32355 0.61196 0.0
C1553 C 0.27925 0.34601 0.589 0.0
H1554 H 0.16504 0.3514 0.5832 0.0
C1555 C 0.27088 0.32877 0.60564 0.0
C1556 C 0.22498 0.32091 0.61413 0.0
H1557 H 0.31503 0.35255 0.58262 0.0
H1558 H 0.30029 0.32221 0.61188 0.0
C1559 C 0.18747 0.3296 0.60578 0.0
C1560 C 0.94649 0.40796 0.76114 0.0
C1561 C 0.98107 0.42049 0.74748 0.0
H1562 H 0.93896 0.40727 0.78766 0.0
C1563 C 0.03544 0.43896 0.75035 0.0
H1564 H 0.90432 0.39342 0.75928 0.0
C1565 C 0.05526 0.44694 0.76661 0.0
C1566 C 0.02098 0.43633 0.78025 0.0
H1567 H 0.06289 0.44874 0.74003 0.0
H1568 H 0.09767 0.46292 0.76848 0.0
C1569 C 0.96625 0.41569 0.77738 0.0
C1570 C 0.60436 0.59154 0.75651 0.0
C1571 C 0.56751 0.54498 0.74809 0.0
H1572 H 0.62335 0.63655 0.77928 0.0
C1573 C 0.52074 0.50784 0.7563 0.0
H1574 H 0.64079 0.62073 0.75044 0.0
C1575 C 0.51073 0.51693 0.77257 0.0
C1576 C 0.54743 0.56318 0.78109 0.0
H1577 H 0.4916 0.4716 0.75012 0.0
H1578 H 0.47412 0.48748 0.7785 0.0
C1579 C 0.59449 0.60049 0.77297 0.0
C1580 C 0.40767 0.00799 0.75538 0.0
C1581 C 0.45673 0.02188 0.74777 0.0
H1582 H 0.35996 0.97875 0.77762 0.0
C1583 C 0.49631 0.01899 0.75701 0.0
H1584 H 0.37659 0.01002 0.74846 0.0
C1585 C 0.48746 0.00273 0.7735 0.0
C1586 C 0.43833 0.98771 0.78113 0.0
H1587 H 0.53463 0.02976 0.75152 0.0
H1588 H 0.51905 1.00095 0.7802 0.0
C1589 C 0.39821 0.99023 0.77197 0.0
C1590 C 0.61129 0.01298 0.25574 0.0
C1591 C 0.5724 0.01923 0.24717 0.0
H1592 H 0.63263 0.99062 0.27884 0.0
C1593 C 0.52552 0.00895 0.25545 0.0
H1594 H 0.64781 0.0208 0.24957 0.0
C1595 C 0.51765 0.99338 0.272 0.0
C1596 C 0.55584 0.98643 0.28062 0.0
H1597 H 0.49499 0.01375 0.2492 0.0
H1598 H 0.48101 0.98608 0.27798 0.0
C1599 C 0.60268 0.99585 0.27239 0.0
C1600 C 0.05942 0.61222 0.26702 0.0
C1601 C 0.02431 0.59365 0.28065 0.0
H1602 H 0.06752 0.61479 0.24048 0.0
C1603 C 0.96908 0.56713 0.27776 0.0
H1604 H 0.10224 0.63287 0.26891 0.0
C1605 C 0.94927 0.55697 0.26151 0.0
C1606 C 0.98438 0.57299 0.24788 0.0
H1607 H 0.94117 0.55251 0.28805 0.0
H1608 H 0.90646 0.5347 0.25963 0.0
C1609 C 0.03961 0.60188 0.25076 0.0
C1610 C 0.4644 0.40555 0.26101 0.0
C1611 C 0.44316 0.41836 0.24722 0.0
H1612 H 0.4706 0.40537 0.28756 0.0
C1613 C 0.40791 0.43776 0.24985 0.0
H1614 H 0.4915 0.39028 0.25933 0.0
C1615 C 0.396 0.44644 0.26603 0.0
C1616 C 0.41897 0.43563 0.2798 0.0
H1617 H 0.39087 0.44777 0.23943 0.0
H1618 H 0.37014 0.46318 0.26772 0.0
C1619 C 0.45232 0.414 0.27716 0.0
C1620 C 0.02877 0.17344 0.27655 0.0
C1621 C 0.9756 0.16034 0.27961 0.0
H1622 H 0.09153 0.19738 0.25848 0.0
C1623 C 0.94365 0.15822 0.2662 0.0
H1624 H 0.05437 0.17546 0.28669 0.0
C1625 C 0.96507 0.17127 0.25017 0.0
C1626 C 0.01876 0.1863 0.24718 0.0
H1627 H 0.90266 0.14841 0.26818 0.0
H1628 H 0.93977 0.17067 0.24015 0.0
C1629 C 0.05013 0.18608 0.26045 0.0
C1630 C 0.86031 0.80349 0.26614 0.0
C1631 C 0.84334 0.82093 0.27989 0.0
H1632 H 0.86151 0.79793 0.23959 0.0
C1633 C 0.81745 0.85055 0.27714 0.0
H1634 H 0.88026 0.78059 0.26786 0.0
C1635 C 0.80685 0.86073 0.26096 0.0
C1636 C 0.82164 0.84116 0.24723 0.0
H1637 H 0.80401 0.86467 0.28753 0.0
H1638 H 0.78546 0.88222 0.25924 0.0
C1639 C 0.84941 0.81336 0.24997 0.0
C1640 C 0.15814 0.96837 0.27769 0.0
C1641 C 0.18755 0.02378 0.2805 0.0
H1642 H 0.12646 0.90499 0.25969 0.0
C1643 C 0.20472 0.0583 0.26681 0.0
H1644 H 0.14424 0.94076 0.28803 0.0
C1645 C 0.19467 0.03772 0.25062 0.0
C1646 C 0.16703 0.98227 0.24781 0.0
H1647 H 0.22742 0.10107 0.26861 0.0
H1648 H 0.20981 0.06533 0.24028 0.0
C1649 C 0.14784 0.94779 0.26149 0.0
C1650 C 0.0415 0.85312 0.77733 0.0
C1651 C 0.98605 0.82396 0.78019 0.0
H1652 H 0.10473 0.88443 0.75928 0.0
C1653 C 0.95128 0.80705 0.76654 0.0
H1654 H 0.06927 0.86681 0.78766 0.0
C1655 C 0.97167 0.81664 0.75032 0.0
C1656 C 0.02716 0.84394 0.74747 0.0
H1657 H 0.90846 0.78447 0.76838 0.0
H1658 H 0.94393 0.80139 0.74 0.0
C1659 C 0.06188 0.86335 0.76111 0.0
C1660 C 0.15253 0.20184 0.76221 0.0
C1661 C 0.17156 0.18626 0.74852 0.0
H1662 H 0.14946 0.2059 0.78875 0.0
C1663 C 0.19868 0.15788 0.75128 0.0
H1664 H 0.13157 0.22374 0.76043 0.0
C1665 C 0.20845 0.1471 0.76747 0.0
C1666 C 0.19187 0.16518 0.78116 0.0
H1667 H 0.21361 0.14519 0.74092 0.0
H1668 H 0.23084 0.12665 0.76926 0.0
C1669 C 0.16292 0.1917 0.77838 0.0
C1670 C 0.82074 0.9684 0.77761 0.0
C1671 C 0.84592 0.02368 0.78059 0.0
H1672 H 0.78941 0.90559 0.75942 0.0
C1673 C 0.86243 0.05862 0.76702 0.0
H1674 H 0.80769 0.94048 0.78787 0.0
C1675 C 0.85173 0.03855 0.75078 0.0
C1676 C 0.8246 0.98321 0.7478 0.0
H1677 H 0.88185 0.10131 0.76895 0.0
H1678 H 0.86346 0.06645 0.74054 0.0
C1679 C 0.81029 0.94833 0.76135 0.0
C1680 C 0.70459 0.51753 0.61061 0.0
C1681 C 0.64968 0.49651 0.61364 0.0
H1682 H 0.76725 0.54495 0.59239 0.0
C1683 C 0.61496 0.48361 0.60006 0.0
H1684 H 0.73234 0.5278 0.62086 0.0
C1685 C 0.63505 0.49379 0.58381 0.0
C1686 C 0.69019 0.51667 0.5808 0.0
H1687 H 0.57255 0.46746 0.60201 0.0
H1688 H 0.60743 0.48495 0.5736 0.0
C1689 C 0.72465 0.52731 0.59433 0.0
C1690 C 0.48269 0.18468 0.6105 0.0
C1691 C 0.51017 0.15661 0.61317 0.0
H1692 H 0.44994 0.21562 0.59264 0.0
C1693 C 0.52941 0.14148 0.59943 0.0
H1694 H 0.4676 0.19703 0.62091 0.0
C1695 C 0.51879 0.15167 0.58329 0.0
C1696 C 0.48939 0.17778 0.58061 0.0
H1697 H 0.55065 0.11983 0.60113 0.0
H1698 H 0.53235 0.13775 0.57288 0.0
C1699 C 0.47269 0.19551 0.59435 0.0
C1700 C 0.82945 0.30416 0.61083 0.0
C1701 C 0.85829 0.35958 0.61363 0.0
H1702 H 0.79793 0.24076 0.59286 0.0
C1703 C 0.8746 0.39409 0.59994 0.0
H1704 H 0.81618 0.27654 0.62117 0.0
C1705 C 0.86427 0.37348 0.58374 0.0
C1706 C 0.83718 0.31803 0.58094 0.0
H1707 H 0.89686 0.43688 0.60173 0.0
H1708 H 0.87874 0.40104 0.57338 0.0
C1709 C 0.81886 0.28357 0.59464 0.0
C1710 C 0.72953 0.19469 0.09422 0.0
C1711 C 0.69495 0.1765 0.08053 0.0
H1712 H 0.73641 0.197 0.12077 0.0
C1713 C 0.63947 0.15041 0.08326 0.0
H1714 H 0.77238 0.21483 0.09245 0.0
C1715 C 0.61882 0.14066 0.09943 0.0
C1716 C 0.65335 0.15624 0.11312 0.0
H1717 H 0.61188 0.13616 0.07289 0.0
H1718 H 0.57594 0.11898 0.10118 0.0
C1719 C 0.70887 0.18433 0.11039 0.0
C1720 C 0.86659 0.47533 0.10031 0.0
C1721 C 0.85078 0.49456 0.11389 0.0
H1722 H 0.87074 0.47159 0.07378 0.0
C1723 C 0.82183 0.52101 0.11097 0.0
H1724 H 0.88893 0.45487 0.10221 0.0
C1725 C 0.81086 0.53009 0.09473 0.0
C1726 C 0.82929 0.51349 0.08114 0.0
H1727 H 0.80894 0.53607 0.12124 0.0
H1728 H 0.79009 0.55212 0.09282 0.0
C1729 C 0.85624 0.48504 0.08407 0.0
C1730 C 0.48202 0.30001 0.11108 0.0
C1731 C 0.51047 0.35544 0.11389 0.0
H1732 H 0.44953 0.23669 0.09309 0.0
C1733 C 0.53179 0.38986 0.10025 0.0
H1734 H 0.46531 0.27246 0.12139 0.0
C1735 C 0.52259 0.36926 0.08407 0.0
C1736 C 0.49218 0.31391 0.08123 0.0
H1737 H 0.55387 0.43265 0.10205 0.0
H1738 H 0.53796 0.39685 0.07373 0.0
C1739 C 0.47307 0.27941 0.0949 0.0
C1740 C 0.30163 0.81974 0.91783 0.0
C1741 C 0.35712 0.84758 0.91502 0.0
H1742 H 0.23834 0.78962 0.93584 0.0
C1743 C 0.39179 0.86322 0.92868 0.0
H1744 H 0.27396 0.80704 0.90749 0.0
C1745 C 0.37134 0.85373 0.94488 0.0
C1746 C 0.31589 0.82782 0.94769 0.0
H1747 H 0.43465 0.88474 0.92687 0.0
H1748 H 0.39905 0.86802 0.95522 0.0
C1749 C 0.28117 0.80961 0.93403 0.0
C1750 C 0.19802 0.47348 0.93331 0.0
C1751 C 0.18009 0.49026 0.94699 0.0
H1752 H 0.19911 0.46727 0.90678 0.0
C1753 C 0.15296 0.51861 0.94416 0.0
H1754 H 0.21888 0.4515 0.93512 0.0
C1755 C 0.14206 0.52814 0.92796 0.0
C1756 C 0.15748 0.50885 0.9143 0.0
H1757 H 0.1388 0.53217 0.95451 0.0
H1758 H 0.11968 0.5486 0.92615 0.0
C1759 C 0.1865 0.48239 0.91711 0.0
C1760 C 0.52576 0.70325 0.91782 0.0
C1761 C 0.49974 0.64785 0.915 0.0
H1762 H 0.55679 0.76657 0.93583 0.0
C1763 C 0.48143 0.6133 0.92868 0.0
H1764 H 0.54017 0.73088 0.90748 0.0
C1765 C 0.49113 0.63381 0.94487 0.0
C1766 C 0.51906 0.68923 0.9477 0.0
H1767 H 0.46128 0.57052 0.92689 0.0
H1768 H 0.47803 0.60617 0.95521 0.0
C1769 C 0.53521 0.72378 0.93402 0.0
C1770 C 0.37378 0.52004 0.44336 0.0
C1771 C 0.31841 0.49217 0.44635 0.0
H1772 H 0.43639 0.55021 0.42512 0.0
C1773 C 0.28321 0.47676 0.43283 0.0
H1774 H 0.40183 0.53258 0.4536 0.0
C1775 C 0.30305 0.48636 0.41657 0.0
C1776 C 0.35838 0.51217 0.41357 0.0
H1777 H 0.24043 0.45523 0.4348 0.0
H1778 H 0.27496 0.47216 0.40633 0.0
C1779 C 0.39363 0.5303 0.42709 0.0
C1780 C 0.48278 0.86739 0.42871 0.0
C1781 C 0.50199 0.85185 0.41506 0.0
H1782 H 0.47993 0.872 0.45524 0.0
C1783 C 0.52972 0.82412 0.41789 0.0
H1784 H 0.46137 0.88882 0.42688 0.0
C1785 C 0.53986 0.81392 0.4341 0.0
C1786 C 0.52308 0.83195 0.44775 0.0
H1787 H 0.54483 0.81149 0.40755 0.0
H1788 H 0.5627 0.79394 0.43593 0.0
C1789 C 0.49355 0.85785 0.44491 0.0
C1790 C 0.16134 0.63972 0.44417 0.0
C1791 C 0.18228 0.69466 0.44697 0.0
H1792 H 0.13192 0.57612 0.42627 0.0
C1793 C 0.1933 0.72852 0.4333 0.0
H1794 H 0.15252 0.61264 0.45452 0.0
C1795 C 0.18117 0.7075 0.41718 0.0
C1796 C 0.15811 0.65229 0.41443 0.0
H1797 H 0.20932 0.77091 0.43509 0.0
H1798 H 0.18852 0.73442 0.40689 0.0
C1799 C 0.14954 0.61873 0.42803 0.0
loop_
_geom_bond_atom_site_label_1
_geom_bond_atom_site_label_2
_geom_bond_distance
_geom_bond_site_symmetry_2
_ccdc_geom_bond_type
Dy0 O4 2.398 . S
Dy0 O5 2.491 . S
Dy0 O6 2.403 . S
Dy0 O7 2.664 . S
Dy0 O11 2.326 . S
Dy0 O15 2.310 . S
Dy0 O16 2.351 . S
C1 O12 1.185 . S
C1 O13 1.355 . S
C2 O4 1.185 . S
C2 O5 1.355 . S
Dy3 O7 2.310 . S
Dy3 O10 2.351 . S
Dy3 O12 2.398 . S
Dy3 O13 2.491 . S
Dy3 O14 2.403 . S
Dy3 O15 2.664 . S
Dy3 O17 2.326 . S
O4 Dy0 2.398 . S
O4 C2 1.185 . S
O5 Dy0 2.491 . S
O5 C2 1.355 . S
O6 Dy0 2.403 . S
O6 C8 1.254 . S
O7 Dy0 2.664 . S
O7 Dy3 2.310 . S
O7 C8 1.268 . S
C8 O6 1.254 . S
C8 O7 1.268 . S
C9 O14 1.254 . S
C9 O15 1.268 . S
O10 Dy3 2.351 . S
O10 C18 1.249 . S
O11 Dy0 2.326 . S
O11 C18 1.267 . S
O12 C1 1.185 . S
O12 Dy3 2.398 . S
O13 C1 1.355 . S
O13 Dy3 2.491 . S
O14 Dy3 2.403 . S
O14 C9 1.254 . S
O15 Dy0 2.310 . S
O15 Dy3 2.664 . S
O15 C9 1.268 . S
O16 Dy0 2.351 . S
O16 C19 1.249 . S
O17 Dy3 2.326 . S
O17 C19 1.267 . S
C18 O10 1.249 . S
C18 O11 1.267 . S
C19 O16 1.249 . S
C19 O17 1.267 . S
Dy20 O24 2.398 . S
Dy20 O25 2.491 . S
Dy20 O26 2.403 . S
Dy20 O27 2.664 . S
Dy20 O31 2.326 . S
Dy20 O35 2.310 . S
Dy20 O36 2.351 . S
C21 O32 1.185 . S
C21 O33 1.355 . S
C22 O24 1.185 . S
C22 O25 1.355 . S
Dy23 O27 2.310 . S
Dy23 O30 2.351 . S
Dy23 O32 2.398 . S
Dy23 O33 2.491 . S
Dy23 O34 2.403 . S
Dy23 O35 2.664 . S
Dy23 O37 2.326 . S
O24 Dy20 2.398 . S
O24 C22 1.185 . S
O25 Dy20 2.491 . S
O25 C22 1.355 . S
O26 Dy20 2.403 . S
O26 C28 1.254 . S
O27 Dy20 2.664 . S
O27 Dy23 2.310 . S
O27 C28 1.268 . S
C28 O26 1.254 . S
C28 O27 1.268 . S
C29 O34 1.254 . S
C29 O35 1.268 . S
O30 Dy23 2.351 . S
O30 C38 1.249 . S
O31 Dy20 2.326 . S
O31 C38 1.267 . S
O32 C21 1.185 . S
O32 Dy23 2.398 . S
O33 C21 1.355 . S
O33 Dy23 2.491 . S
O34 Dy23 2.403 . S
O34 C29 1.254 . S
O35 Dy20 2.310 . S
O35 Dy23 2.664 . S
O35 C29 1.268 . S
O36 Dy20 2.351 . S
O36 C39 1.249 . S
O37 Dy23 2.326 . S
O37 C39 1.267 . S
C38 O30 1.249 . S
C38 O31 1.267 . S
C39 O36 1.249 . S
C39 O37 1.267 . S
Dy40 O44 2.398 . S
Dy40 O45 2.491 . S
Dy40 O46 2.403 . S
Dy40 O47 2.664 . S
Dy40 O51 2.326 . S
Dy40 O55 2.310 . S
Dy40 O56 2.351 . S
C41 O52 1.185 . S
C41 O53 1.355 . S
C42 O44 1.185 . S
C42 O45 1.355 . S
Dy43 O47 2.310 . S
Dy43 O50 2.351 . S
Dy43 O52 2.398 . S
Dy43 O53 2.491 . S
Dy43 O54 2.403 . S
Dy43 O55 2.664 . S
Dy43 O57 2.326 . S
O44 Dy40 2.398 . S
O44 C42 1.185 . S
O45 Dy40 2.491 . S
O45 C42 1.355 . S
O46 Dy40 2.403 . S
O46 C48 1.254 . S
O47 Dy40 2.664 . S
O47 Dy43 2.310 . S
O47 C48 1.268 . S
C48 O46 1.254 . S
C48 O47 1.268 . S
C49 O54 1.254 . S
C49 O55 1.268 . S
O50 Dy43 2.351 . S
O50 C58 1.249 . S
O51 Dy40 2.326 . S
O51 C58 1.267 . S
O52 C41 1.185 . S
O52 Dy43 2.398 . S
O53 C41 1.355 . S
O53 Dy43 2.491 . S
O54 Dy43 2.403 . S
O54 C49 1.254 . S
O55 Dy40 2.310 . S
O55 Dy43 2.664 . S
O55 C49 1.268 . S
O56 Dy40 2.351 . S
O56 C59 1.249 . S
O57 Dy43 2.326 . S
O57 C59 1.267 . S
C58 O50 1.249 . S
C58 O51 1.267 . S
C59 O56 1.249 . S
C59 O57 1.267 . S
Dy60 O64 2.398 . S
Dy60 O65 2.491 . S
Dy60 O66 2.403 . S
Dy60 O67 2.664 . S
Dy60 O71 2.326 . S
Dy60 O75 2.310 . S
Dy60 O76 2.351 . S
C61 O72 1.185 . S
C61 O73 1.355 . S
C62 O64 1.185 . S
C62 O65 1.355 . S
Dy63 O67 2.310 . S
Dy63 O70 2.351 . S
Dy63 O72 2.398 . S
Dy63 O73 2.491 . S
Dy63 O74 2.403 . S
Dy63 O75 2.664 . S
Dy63 O77 2.326 . S
O64 Dy60 2.398 . S
O64 C62 1.185 . S
O65 Dy60 2.491 . S
O65 C62 1.355 . S
O66 Dy60 2.403 . S
O66 C68 1.254 . S
O67 Dy60 2.664 . S
O67 Dy63 2.310 . S
O67 C68 1.268 . S
C68 O66 1.254 . S
C68 O67 1.268 . S
C69 O74 1.254 . S
C69 O75 1.268 . S
O70 Dy63 2.351 . S
O70 C78 1.249 . S
O71 Dy60 2.326 . S
O71 C78 1.267 . S
O72 C61 1.185 . S
O72 Dy63 2.398 . S
O73 C61 1.355 . S
O73 Dy63 2.491 . S
O74 Dy63 2.403 . S
O74 C69 1.254 . S
O75 Dy60 2.310 . S
O75 Dy63 2.664 . S
O75 C69 1.268 . S
O76 Dy60 2.351 . S
O76 C79 1.249 . S
O77 Dy63 2.326 . S
O77 C79 1.267 . S
C78 O70 1.249 . S
C78 O71 1.267 . S
C79 O76 1.249 . S
C79 O77 1.267 . S
Dy80 O84 2.398 . S
Dy80 O85 2.491 . S
Dy80 O86 2.403 . S
Dy80 O87 2.664 . S
Dy80 O91 2.326 . S
Dy80 O95 2.310 . S
Dy80 O96 2.351 . S
C81 O92 1.185 . S
C81 O93 1.355 . S
C82 O84 1.185 . S
C82 O85 1.355 . S
Dy83 O87 2.310 . S
Dy83 O90 2.351 . S
Dy83 O92 2.398 . S
Dy83 O93 2.491 . S
Dy83 O94 2.403 . S
Dy83 O95 2.664 . S
Dy83 O97 2.326 . S
O84 Dy80 2.398 . S
O84 C82 1.185 . S
O85 Dy80 2.491 . S
O85 C82 1.355 . S
O86 Dy80 2.403 . S
O86 C88 1.254 . S
O87 Dy80 2.664 . S
O87 Dy83 2.310 . S
O87 C88 1.268 . S
C88 O86 1.254 . S
C88 O87 1.268 . S
C89 O94 1.254 . S
C89 O95 1.268 . S
O90 Dy83 2.351 . S
O90 C98 1.249 . S
O91 Dy80 2.326 . S
O91 C98 1.267 . S
O92 C81 1.185 . S
O92 Dy83 2.398 . S
O93 C81 1.355 . S
O93 Dy83 2.491 . S
O94 Dy83 2.403 . S
O94 C89 1.254 . S
O95 Dy80 2.310 . S
O95 Dy83 2.664 . S
O95 C89 1.268 . S
O96 Dy80 2.351 . S
O96 C99 1.249 . S
O97 Dy83 2.326 . S
O97 C99 1.267 . S
C98 O90 1.249 . S
C98 O91 1.267 . S
C99 O96 1.249 . S
C99 O97 1.267 . S
Dy100 O104 2.398 . S
Dy100 O105 2.491 . S
Dy100 O106 2.403 . S
Dy100 O107 2.664 . S
Dy100 O111 2.326 . S
Dy100 O115 2.310 . S
Dy100 O116 2.351 . S
C101 O112 1.185 . S
C101 O113 1.355 . S
C102 O104 1.185 . S
C102 O105 1.355 . S
Dy103 O107 2.310 . S
Dy103 O110 2.351 . S
Dy103 O112 2.398 . S
Dy103 O113 2.491 . S
Dy103 O114 2.403 . S
Dy103 O115 2.664 . S
Dy103 O117 2.326 . S
O104 Dy100 2.398 . S
O104 C102 1.185 . S
O105 Dy100 2.491 . S
O105 C102 1.355 . S
O106 Dy100 2.403 . S
O106 C108 1.254 . S
O107 Dy100 2.664 . S
O107 Dy103 2.310 . S
O107 C108 1.268 . S
C108 O106 1.254 . S
C108 O107 1.268 . S
C109 O114 1.254 . S
C109 O115 1.268 . S
O110 Dy103 2.351 . S
O110 C118 1.249 . S
O111 Dy100 2.326 . S
O111 C118 1.267 . S
O112 C101 1.185 . S
O112 Dy103 2.398 . S
O113 C101 1.355 . S
O113 Dy103 2.491 . S
O114 Dy103 2.403 . S
O114 C109 1.254 . S
O115 Dy100 2.310 . S
O115 Dy103 2.664 . S
O115 C109 1.268 . S
O116 Dy100 2.351 . S
O116 C119 1.249 . S
O117 Dy103 2.326 . S
O117 C119 1.267 . S
C118 O110 1.249 . S
C118 O111 1.267 . S
C119 O116 1.249 . S
C119 O117 1.267 . S
Dy120 O124 2.398 . S
Dy120 O125 2.491 . S
Dy120 O126 2.403 . S
Dy120 O127 2.664 . S
Dy120 O131 2.326 . S
Dy120 O135 2.310 . S
Dy120 O136 2.351 . S
C121 O132 1.185 . S
C121 O133 1.355 . S
C122 O124 1.185 . S
C122 O125 1.355 . S
Dy123 O127 2.310 . S
Dy123 O130 2.351 . S
Dy123 O132 2.398 . S
Dy123 O133 2.491 . S
Dy123 O134 2.403 . S
Dy123 O135 2.664 . S
Dy123 O137 2.326 . S
O124 Dy120 2.398 . S
O124 C122 1.185 . S
O125 Dy120 2.491 . S
O125 C122 1.355 . S
O126 Dy120 2.403 . S
O126 C128 1.254 . S
O127 Dy120 2.664 . S
O127 Dy123 2.310 . S
O127 C128 1.268 . S
C128 O126 1.254 . S
C128 O127 1.268 . S
C129 O134 1.254 . S
C129 O135 1.268 . S
O130 Dy123 2.351 . S
O130 C138 1.249 . S
O131 Dy120 2.326 . S
O131 C138 1.267 . S
O132 C121 1.185 . S
O132 Dy123 2.398 . S
O133 C121 1.355 . S
O133 Dy123 2.491 . S
O134 Dy123 2.403 . S
O134 C129 1.254 . S
O135 Dy120 2.310 . S
O135 Dy123 2.664 . S
O135 C129 1.268 . S
O136 Dy120 2.351 . S
O136 C139 1.249 . S
O137 Dy123 2.326 . S
O137 C139 1.267 . S
C138 O130 1.249 . S
C138 O131 1.267 . S
C139 O136 1.249 . S
C139 O137 1.267 . S
Dy140 O144 2.398 . S
Dy140 O145 2.491 . S
Dy140 O146 2.403 . S
Dy140 O147 2.664 . S
Dy140 O151 2.326 . S
Dy140 O155 2.310 . S
Dy140 O156 2.351 . S
C141 O152 1.185 . S
C141 O153 1.355 . S
C142 O144 1.185 . S
C142 O145 1.355 . S
Dy143 O147 2.310 . S
Dy143 O150 2.351 . S
Dy143 O152 2.398 . S
Dy143 O153 2.491 . S
Dy143 O154 2.403 . S
Dy143 O155 2.664 . S
Dy143 O157 2.326 . S
O144 Dy140 2.398 . S
O144 C142 1.185 . S
O145 Dy140 2.491 . S
O145 C142 1.355 . S
O146 Dy140 2.403 . S
O146 C148 1.254 . S
O147 Dy140 2.664 . S
O147 Dy143 2.310 . S
O147 C148 1.268 . S
C148 O146 1.254 . S
C148 O147 1.268 . S
C149 O154 1.254 . S
C149 O155 1.268 . S
O150 Dy143 2.351 . S
O150 C158 1.249 . S
O151 Dy140 2.326 . S
O151 C158 1.267 . S
O152 C141 1.185 . S
O152 Dy143 2.398 . S
O153 C141 1.355 . S
O153 Dy143 2.491 . S
O154 Dy143 2.403 . S
O154 C149 1.254 . S
O155 Dy140 2.310 . S
O155 Dy143 2.664 . S
O155 C149 1.268 . S
O156 Dy140 2.351 . S
O156 C159 1.249 . S
O157 Dy143 2.326 . S
O157 C159 1.267 . S
C158 O150 1.249 . S
C158 O151 1.267 . S
C159 O156 1.249 . S
C159 O157 1.267 . S
Dy160 O164 2.398 . S
Dy160 O165 2.491 . S
Dy160 O166 2.403 . S
Dy160 O167 2.664 . S
Dy160 O171 2.326 . S
Dy160 O175 2.310 . S
Dy160 O176 2.351 . S
C161 O172 1.185 . S
C161 O173 1.355 . S
C162 O164 1.185 . S
C162 O165 1.355 . S
Dy163 O167 2.310 . S
Dy163 O170 2.351 . S
Dy163 O172 2.398 . S
Dy163 O173 2.491 . S
Dy163 O174 2.403 . S
Dy163 O175 2.664 . S
Dy163 O177 2.326 . S
O164 Dy160 2.398 . S
O164 C162 1.185 . S
O165 Dy160 2.491 . S
O165 C162 1.355 . S
O166 Dy160 2.403 . S
O166 C168 1.254 . S
O167 Dy160 2.664 . S
O167 Dy163 2.310 . S
O167 C168 1.268 . S
C168 O166 1.254 . S
C168 O167 1.268 . S
C169 O174 1.254 . S
C169 O175 1.268 . S
O170 Dy163 2.351 . S
O170 C178 1.249 . S
O171 Dy160 2.326 . S
O171 C178 1.267 . S
O172 C161 1.185 . S
O172 Dy163 2.398 . S
O173 C161 1.355 . S
O173 Dy163 2.491 . S
O174 Dy163 2.403 . S
O174 C169 1.254 . S
O175 Dy160 2.310 . S
O175 Dy163 2.664 . S
O175 C169 1.268 . S
O176 Dy160 2.351 . S
O176 C179 1.249 . S
O177 Dy163 2.326 . S
O177 C179 1.267 . S
C178 O170 1.249 . S
C178 O171 1.267 . S
C179 O176 1.249 . S
C179 O177 1.267 . S
Dy180 O184 2.398 . S
Dy180 O185 2.491 . S
Dy180 O186 2.403 . S
Dy180 O187 2.664 . S
Dy180 O191 2.326 . S
Dy180 O195 2.310 . S
Dy180 O196 2.351 . S
C181 O192 1.185 . S
C181 O193 1.355 . S
C182 O184 1.185 . S
C182 O185 1.355 . S
Dy183 O187 2.310 . S
Dy183 O190 2.351 . S
Dy183 O192 2.398 . S
Dy183 O193 2.491 . S
Dy183 O194 2.403 . S
Dy183 O195 2.664 . S
Dy183 O197 2.326 . S
O184 Dy180 2.398 . S
O184 C182 1.185 . S
O185 Dy180 2.491 . S
O185 C182 1.355 . S
O186 Dy180 2.403 . S
O186 C188 1.254 . S
O187 Dy180 2.664 . S
O187 Dy183 2.310 . S
O187 C188 1.268 . S
C188 O186 1.254 . S
C188 O187 1.268 . S
C189 O194 1.254 . S
C189 O195 1.268 . S
O190 Dy183 2.351 . S
O190 C198 1.249 . S
O191 Dy180 2.326 . S
O191 C198 1.267 . S
O192 C181 1.185 . S
O192 Dy183 2.398 . S
O193 C181 1.355 . S
O193 Dy183 2.491 . S
O194 Dy183 2.403 . S
O194 C189 1.254 . S
O195 Dy180 2.310 . S
O195 Dy183 2.664 . S
O195 C189 1.268 . S
O196 Dy180 2.351 . S
O196 C199 1.249 . S
O197 Dy183 2.326 . S
O197 C199 1.267 . S
C198 O190 1.249 . S
C198 O191 1.267 . S
C199 O196 1.249 . S
C199 O197 1.267 . S
Dy200 O204 2.398 . S
Dy200 O205 2.491 . S
Dy200 O206 2.403 . S
Dy200 O207 2.664 . S
Dy200 O211 2.326 . S
Dy200 O215 2.310 . S
Dy200 O216 2.351 . S
C201 O212 1.185 . S
C201 O213 1.355 . S
C202 O204 1.185 . S
C202 O205 1.355 . S
Dy203 O207 2.310 . S
Dy203 O210 2.351 . S
Dy203 O212 2.398 . S
Dy203 O213 2.491 . S
Dy203 O214 2.403 . S
Dy203 O215 2.664 . S
Dy203 O217 2.326 . S
O204 Dy200 2.398 . S
O204 C202 1.185 . S
O205 Dy200 2.491 . S
O205 C202 1.355 . S
O206 Dy200 2.403 . S
O206 C208 1.254 . S
O207 Dy200 2.664 . S
O207 Dy203 2.310 . S
O207 C208 1.268 . S
C208 O206 1.254 . S
C208 O207 1.268 . S
C209 O214 1.254 . S
C209 O215 1.268 . S
O210 Dy203 2.351 . S
O210 C218 1.249 . S
O211 Dy200 2.326 . S
O211 C218 1.267 . S
O212 C201 1.185 . S
O212 Dy203 2.398 . S
O213 C201 1.355 . S
O213 Dy203 2.491 . S
O214 Dy203 2.403 . S
O214 C209 1.254 . S
O215 Dy200 2.310 . S
O215 Dy203 2.664 . S
O215 C209 1.268 . S
O216 Dy200 2.351 . S
O216 C219 1.249 . S
O217 Dy203 2.326 . S
O217 C219 1.267 . S
C218 O210 1.249 . S
C218 O211 1.267 . S
C219 O216 1.249 . S
C219 O217 1.267 . S
Dy220 O224 2.398 . S
Dy220 O225 2.491 . S
Dy220 O226 2.403 . S
Dy220 O227 2.664 . S
Dy220 O231 2.326 . S
Dy220 O235 2.310 . S
Dy220 O236 2.351 . S
C221 O232 1.185 . S
C221 O233 1.355 . S
C222 O224 1.185 . S
C222 O225 1.355 . S
Dy223 O227 2.310 . S
Dy223 O230 2.351 . S
Dy223 O232 2.398 . S
Dy223 O233 2.491 . S
Dy223 O234 2.403 . S
Dy223 O235 2.664 . S
Dy223 O237 2.326 . S
O224 Dy220 2.398 . S
O224 C222 1.185 . S
O225 Dy220 2.491 . S
O225 C222 1.355 . S
O226 Dy220 2.403 . S
O226 C228 1.254 . S
O227 Dy220 2.664 . S
O227 Dy223 2.310 . S
O227 C228 1.268 . S
C228 O226 1.254 . S
C228 O227 1.268 . S
C229 O234 1.254 . S
C229 O235 1.268 . S
O230 Dy223 2.351 . S
O230 C238 1.249 . S
O231 Dy220 2.326 . S
O231 C238 1.267 . S
O232 C221 1.185 . S
O232 Dy223 2.398 . S
O233 C221 1.355 . S
O233 Dy223 2.491 . S
O234 Dy223 2.403 . S
O234 C229 1.254 . S
O235 Dy220 2.310 . S
O235 Dy223 2.664 . S
O235 C229 1.268 . S
O236 Dy220 2.351 . S
O236 C239 1.249 . S
O237 Dy223 2.326 . S
O237 C239 1.267 . S
C238 O230 1.249 . S
C238 O231 1.267 . S
C239 O236 1.249 . S
C239 O237 1.267 . S
Dy240 O244 2.398 . S
Dy240 O245 2.491 . S
Dy240 O246 2.403 . S
Dy240 O247 2.664 . S
Dy240 O251 2.326 . S
Dy240 O255 2.310 . S
Dy240 O256 2.351 . S
C241 O252 1.185 . S
C241 O253 1.355 . S
C242 O244 1.185 . S
C242 O245 1.355 . S
Dy243 O247 2.310 . S
Dy243 O250 2.351 . S
Dy243 O252 2.398 . S
Dy243 O253 2.491 . S
Dy243 O254 2.403 . S
Dy243 O255 2.664 . S
Dy243 O257 2.326 . S
O244 Dy240 2.398 . S
O244 C242 1.185 . S
O245 Dy240 2.491 . S
O245 C242 1.355 . S
O246 Dy240 2.403 . S
O246 C248 1.254 . S
O247 Dy240 2.664 . S
O247 Dy243 2.310 . S
O247 C248 1.268 . S
C248 O246 1.254 . S
C248 O247 1.268 . S
C249 O254 1.254 . S
C249 O255 1.268 . S
O250 Dy243 2.351 . S
O250 C258 1.249 . S
O251 Dy240 2.326 . S
O251 C258 1.267 . S
O252 C241 1.185 . S
O252 Dy243 2.398 . S
O253 C241 1.355 . S
O253 Dy243 2.491 . S
O254 Dy243 2.403 . S
O254 C249 1.254 . S
O255 Dy240 2.310 . S
O255 Dy243 2.664 . S
O255 C249 1.268 . S
O256 Dy240 2.351 . S
O256 C259 1.249 . S
O257 Dy243 2.326 . S
O257 C259 1.267 . S
C258 O250 1.249 . S
C258 O251 1.267 . S
C259 O256 1.249 . S
C259 O257 1.267 . S
Dy260 O264 2.398 . S
Dy260 O265 2.491 . S
Dy260 O266 2.403 . S
Dy260 O267 2.664 . S
Dy260 O271 2.326 . S
Dy260 O275 2.310 . S
Dy260 O276 2.351 . S
C261 O272 1.185 . S
C261 O273 1.355 . S
C262 O264 1.185 . S
C262 O265 1.355 . S
Dy263 O267 2.310 . S
Dy263 O270 2.351 . S
Dy263 O272 2.398 . S
Dy263 O273 2.491 . S
Dy263 O274 2.403 . S
Dy263 O275 2.664 . S
Dy263 O277 2.326 . S
O264 Dy260 2.398 . S
O264 C262 1.185 . S
O265 Dy260 2.491 . S
O265 C262 1.355 . S
O266 Dy260 2.403 . S
O266 C268 1.254 . S
O267 Dy260 2.664 . S
O267 Dy263 2.310 . S
O267 C268 1.268 . S
C268 O266 1.254 . S
C268 O267 1.268 . S
C269 O274 1.254 . S
C269 O275 1.268 . S
O270 Dy263 2.351 . S
O270 C278 1.249 . S
O271 Dy260 2.326 . S
O271 C278 1.267 . S
O272 C261 1.185 . S
O272 Dy263 2.398 . S
O273 C261 1.355 . S
O273 Dy263 2.491 . S
O274 Dy263 2.403 . S
O274 C269 1.254 . S
O275 Dy260 2.310 . S
O275 Dy263 2.664 . S
O275 C269 1.268 . S
O276 Dy260 2.351 . S
O276 C279 1.249 . S
O277 Dy263 2.326 . S
O277 C279 1.267 . S
C278 O270 1.249 . S
C278 O271 1.267 . S
C279 O276 1.249 . S
C279 O277 1.267 . S
Dy280 O284 2.398 . S
Dy280 O285 2.491 . S
Dy280 O286 2.403 . S
Dy280 O287 2.664 . S
Dy280 O291 2.326 . S
Dy280 O295 2.310 . S
Dy280 O296 2.351 . S
C281 O292 1.185 . S
C281 O293 1.355 . S
C282 O284 1.185 . S
C282 O285 1.355 . S
Dy283 O287 2.310 . S
Dy283 O290 2.351 . S
Dy283 O292 2.398 . S
Dy283 O293 2.491 . S
Dy283 O294 2.403 . S
Dy283 O295 2.664 . S
Dy283 O297 2.326 . S
O284 Dy280 2.398 . S
O284 C282 1.185 . S
O285 Dy280 2.491 . S
O285 C282 1.355 . S
O286 Dy280 2.403 . S
O286 C288 1.254 . S
O287 Dy280 2.664 . S
O287 Dy283 2.310 . S
O287 C288 1.268 . S
C288 O286 1.254 . S
C288 O287 1.268 . S
C289 O294 1.254 . S
C289 O295 1.268 . S
O290 Dy283 2.351 . S
O290 C298 1.249 . S
O291 Dy280 2.326 . S
O291 C298 1.267 . S
O292 C281 1.185 . S
O292 Dy283 2.398 . S
O293 C281 1.355 . S
O293 Dy283 2.491 . S
O294 Dy283 2.403 . S
O294 C289 1.254 . S
O295 Dy280 2.310 . S
O295 Dy283 2.664 . S
O295 C289 1.268 . S
O296 Dy280 2.351 . S
O296 C299 1.249 . S
O297 Dy283 2.326 . S
O297 C299 1.267 . S
C298 O290 1.249 . S
C298 O291 1.267 . S
C299 O296 1.249 . S
C299 O297 1.267 . S
Dy300 O304 2.398 . S
Dy300 O305 2.491 . S
Dy300 O306 2.403 . S
Dy300 O307 2.664 . S
Dy300 O311 2.326 . S
Dy300 O315 2.310 . S
Dy300 O316 2.351 . S
C301 O312 1.185 . S
C301 O313 1.355 . S
C302 O304 1.185 . S
C302 O305 1.355 . S
Dy303 O307 2.310 . S
Dy303 O310 2.351 . S
Dy303 O312 2.398 . S
Dy303 O313 2.491 . S
Dy303 O314 2.403 . S
Dy303 O315 2.664 . S
Dy303 O317 2.326 . S
O304 Dy300 2.398 . S
O304 C302 1.185 . S
O305 Dy300 2.491 . S
O305 C302 1.355 . S
O306 Dy300 2.403 . S
O306 C308 1.254 . S
O307 Dy300 2.664 . S
O307 Dy303 2.310 . S
O307 C308 1.268 . S
C308 O306 1.254 . S
C308 O307 1.268 . S
C309 O314 1.254 . S
C309 O315 1.268 . S
O310 Dy303 2.351 . S
O310 C318 1.249 . S
O311 Dy300 2.326 . S
O311 C318 1.267 . S
O312 C301 1.185 . S
O312 Dy303 2.398 . S
O313 C301 1.355 . S
O313 Dy303 2.491 . S
O314 Dy303 2.403 . S
O314 C309 1.254 . S
O315 Dy300 2.310 . S
O315 Dy303 2.664 . S
O315 C309 1.268 . S
O316 Dy300 2.351 . S
O316 C319 1.249 . S
O317 Dy303 2.326 . S
O317 C319 1.267 . S
C318 O310 1.249 . S
C318 O311 1.267 . S
C319 O316 1.249 . S
C319 O317 1.267 . S
Dy320 O324 2.398 . S
Dy320 O325 2.491 . S
Dy320 O326 2.403 . S
Dy320 O327 2.664 . S
Dy320 O331 2.326 . S
Dy320 O335 2.310 . S
Dy320 O336 2.351 . S
C321 O332 1.185 . S
C321 O333 1.355 . S
C322 O324 1.185 . S
C322 O325 1.355 . S
Dy323 O327 2.310 . S
Dy323 O330 2.351 . S
Dy323 O332 2.398 . S
Dy323 O333 2.491 . S
Dy323 O334 2.403 . S
Dy323 O335 2.664 . S
Dy323 O337 2.326 . S
O324 Dy320 2.398 . S
O324 C322 1.185 . S
O325 Dy320 2.491 . S
O325 C322 1.355 . S
O326 Dy320 2.403 . S
O326 C328 1.254 . S
O327 Dy320 2.664 . S
O327 Dy323 2.310 . S
O327 C328 1.268 . S
C328 O326 1.254 . S
C328 O327 1.268 . S
C329 O334 1.254 . S
C329 O335 1.268 . S
O330 Dy323 2.351 . S
O330 C338 1.249 . S
O331 Dy320 2.326 . S
O331 C338 1.267 . S
O332 C321 1.185 . S
O332 Dy323 2.398 . S
O333 C321 1.355 . S
O333 Dy323 2.491 . S
O334 Dy323 2.403 . S
O334 C329 1.254 . S
O335 Dy320 2.310 . S
O335 Dy323 2.664 . S
O335 C329 1.268 . S
O336 Dy320 2.351 . S
O336 C339 1.249 . S
O337 Dy323 2.326 . S
O337 C339 1.267 . S
C338 O330 1.249 . S
C338 O331 1.267 . S
C339 O336 1.249 . S
C339 O337 1.267 . S
Dy340 O344 2.398 . S
Dy340 O345 2.491 . S
Dy340 O346 2.403 . S
Dy340 O347 2.664 . S
Dy340 O351 2.326 . S
Dy340 O355 2.310 . S
Dy340 O356 2.351 . S
C341 O352 1.185 . S
C341 O353 1.355 . S
C342 O344 1.185 . S
C342 O345 1.355 . S
Dy343 O347 2.310 . S
Dy343 O350 2.351 . S
Dy343 O352 2.398 . S
Dy343 O353 2.491 . S
Dy343 O354 2.403 . S
Dy343 O355 2.664 . S
Dy343 O357 2.326 . S
O344 Dy340 2.398 . S
O344 C342 1.185 . S
O345 Dy340 2.491 . S
O345 C342 1.355 . S
O346 Dy340 2.403 . S
O346 C348 1.254 . S
O347 Dy340 2.664 . S
O347 Dy343 2.310 . S
O347 C348 1.268 . S
C348 O346 1.254 . S
C348 O347 1.268 . S
C349 O354 1.254 . S
C349 O355 1.268 . S
O350 Dy343 2.351 . S
O350 C358 1.249 . S
O351 Dy340 2.326 . S
O351 C358 1.267 . S
O352 C341 1.185 . S
O352 Dy343 2.398 . S
O353 C341 1.355 . S
O353 Dy343 2.491 . S
O354 Dy343 2.403 . S
O354 C349 1.254 . S
O355 Dy340 2.310 . S
O355 Dy343 2.664 . S
O355 C349 1.268 . S
O356 Dy340 2.351 . S
O356 C359 1.249 . S
O357 Dy343 2.326 . S
O357 C359 1.267 . S
C358 O350 1.249 . S
C358 O351 1.267 . S
C359 O356 1.249 . S
C359 O357 1.267 . S
Dy360 O364 2.398 . S
Dy360 O365 2.491 . S
Dy360 O366 2.403 . S
Dy360 O367 2.664 . S
Dy360 O371 2.326 . S
Dy360 O375 2.310 . S
Dy360 O376 2.351 . S
C361 O372 1.185 . S
C361 O373 1.355 . S
C362 O364 1.185 . S
C362 O365 1.355 . S
Dy363 O367 2.310 . S
Dy363 O370 2.351 . S
Dy363 O372 2.398 . S
Dy363 O373 2.491 . S
Dy363 O374 2.403 . S
Dy363 O375 2.664 . S
Dy363 O377 2.326 . S
O364 Dy360 2.398 . S
O364 C362 1.185 . S
O365 Dy360 2.491 . S
O365 C362 1.355 . S
O366 Dy360 2.403 . S
O366 C368 1.254 . S
O367 Dy360 2.664 . S
O367 Dy363 2.310 . S
O367 C368 1.268 . S
C368 O366 1.254 . S
C368 O367 1.268 . S
C369 O374 1.254 . S
C369 O375 1.268 . S
O370 Dy363 2.351 . S
O370 C378 1.249 . S
O371 Dy360 2.326 . S
O371 C378 1.267 . S
O372 C361 1.185 . S
O372 Dy363 2.398 . S
O373 C361 1.355 . S
O373 Dy363 2.491 . S
O374 Dy363 2.403 . S
O374 C369 1.254 . S
O375 Dy360 2.310 . S
O375 Dy363 2.664 . S
O375 C369 1.268 . S
O376 Dy360 2.351 . S
O376 C379 1.249 . S
O377 Dy363 2.326 . S
O377 C379 1.267 . S
C378 O370 1.249 . S
C378 O371 1.267 . S
C379 O376 1.249 . S
C379 O377 1.267 . S
Dy380 O384 2.398 . S
Dy380 O385 2.491 . S
Dy380 O386 2.403 . S
Dy380 O387 2.664 . S
Dy380 O391 2.326 . S
Dy380 O395 2.310 . S
Dy380 O396 2.351 . S
C381 O392 1.185 . S
C381 O393 1.355 . S
C382 O384 1.185 . S
C382 O385 1.355 . S
Dy383 O387 2.310 . S
Dy383 O390 2.351 . S
Dy383 O392 2.398 . S
Dy383 O393 2.491 . S
Dy383 O394 2.403 . S
Dy383 O395 2.664 . S
Dy383 O397 2.326 . S
O384 Dy380 2.398 . S
O384 C382 1.185 . S
O385 Dy380 2.491 . S
O385 C382 1.355 . S
O386 Dy380 2.403 . S
O386 C388 1.254 . S
O387 Dy380 2.664 . S
O387 Dy383 2.310 . S
O387 C388 1.268 . S
C388 O386 1.254 . S
C388 O387 1.268 . S
C389 O394 1.254 . S
C389 O395 1.268 . S
O390 Dy383 2.351 . S
O390 C398 1.249 . S
O391 Dy380 2.326 . S
O391 C398 1.267 . S
O392 C381 1.185 . S
O392 Dy383 2.398 . S
O393 C381 1.355 . S
O393 Dy383 2.491 . S
O394 Dy383 2.403 . S
O394 C389 1.254 . S
O395 Dy380 2.310 . S
O395 Dy383 2.664 . S
O395 C389 1.268 . S
O396 Dy380 2.351 . S
O396 C399 1.249 . S
O397 Dy383 2.326 . S
O397 C399 1.267 . S
C398 O390 1.249 . S
C398 O391 1.267 . S
C399 O396 1.249 . S
C399 O397 1.267 . S
Dy400 O404 2.398 . S
Dy400 O405 2.491 . S
Dy400 O406 2.403 . S
Dy400 O407 2.664 . S
Dy400 O411 2.326 . S
Dy400 O415 2.310 . S
Dy400 O416 2.351 . S
C401 O412 1.185 . S
C401 O413 1.355 . S
C402 O404 1.185 . S
C402 O405 1.355 . S
Dy403 O407 2.310 . S
Dy403 O410 2.351 . S
Dy403 O412 2.398 . S
Dy403 O413 2.491 . S
Dy403 O414 2.403 . S
Dy403 O415 2.664 . S
Dy403 O417 2.326 . S
O404 Dy400 2.398 . S
O404 C402 1.185 . S
O405 Dy400 2.491 . S
O405 C402 1.355 . S
O406 Dy400 2.403 . S
O406 C408 1.254 . S
O407 Dy400 2.664 . S
O407 Dy403 2.310 . S
O407 C408 1.268 . S
C408 O406 1.254 . S
C408 O407 1.268 . S
C409 O414 1.254 . S
C409 O415 1.268 . S
O410 Dy403 2.351 . S
O410 C418 1.249 . S
O411 Dy400 2.326 . S
O411 C418 1.267 . S
O412 C401 1.185 . S
O412 Dy403 2.398 . S
O413 C401 1.355 . S
O413 Dy403 2.491 . S
O414 Dy403 2.403 . S
O414 C409 1.254 . S
O415 Dy400 2.310 . S
O415 Dy403 2.664 . S
O415 C409 1.268 . S
O416 Dy400 2.351 . S
O416 C419 1.249 . S
O417 Dy403 2.326 . S
O417 C419 1.267 . S
C418 O410 1.249 . S
C418 O411 1.267 . S
C419 O416 1.249 . S
C419 O417 1.267 . S
Dy420 O424 2.398 . S
Dy420 O425 2.491 . S
Dy420 O426 2.403 . S
Dy420 O427 2.664 1_554 S
Dy420 O431 2.326 . S
Dy420 O435 2.310 . S
Dy420 O436 2.351 . S
C421 O432 1.185 . S
C421 O433 1.355 . S
C422 O424 1.185 . S
C422 O425 1.355 . S
Dy423 O427 2.310 . S
Dy423 O430 2.351 . S
Dy423 O432 2.398 . S
Dy423 O433 2.491 . S
Dy423 O434 2.403 . S
Dy423 O435 2.664 1_556 S
Dy423 O437 2.326 . S
O424 Dy420 2.398 . S
O424 C422 1.185 . S
O425 Dy420 2.491 . S
O425 C422 1.355 . S
O426 Dy420 2.403 . S
O426 C428 1.254 . S
O427 Dy420 2.664 1_556 S
O427 Dy423 2.310 . S
O427 C428 1.268 1_556 S
C428 O426 1.254 . S
C428 O427 1.268 1_554 S
C429 O434 1.254 . S
C429 O435 1.268 1_556 S
O430 Dy423 2.351 . S
O430 C438 1.249 1_556 S
O431 Dy420 2.326 . S
O431 C438 1.267 . S
O432 C421 1.185 . S
O432 Dy423 2.398 . S
O433 C421 1.355 . S
O433 Dy423 2.491 . S
O434 Dy423 2.403 . S
O434 C429 1.254 . S
O435 Dy420 2.310 . S
O435 Dy423 2.664 1_554 S
O435 C429 1.268 1_554 S
O436 Dy420 2.351 . S
O436 C439 1.249 1_554 S
O437 Dy423 2.326 . S
O437 C439 1.267 . S
C438 O430 1.249 1_554 S
C438 O431 1.267 . S
C439 O436 1.249 1_556 S
C439 O437 1.267 . S
Dy440 O444 2.398 . S
Dy440 O445 2.491 . S
Dy440 O446 2.403 . S
Dy440 O447 2.664 1_554 S
Dy440 O451 2.326 . S
Dy440 O455 2.310 . S
Dy440 O456 2.351 . S
C441 O452 1.185 . S
C441 O453 1.355 . S
C442 O444 1.185 . S
C442 O445 1.355 . S
Dy443 O447 2.310 . S
Dy443 O450 2.351 . S
Dy443 O452 2.398 . S
Dy443 O453 2.491 . S
Dy443 O454 2.403 . S
Dy443 O455 2.664 1_556 S
Dy443 O457 2.326 . S
O444 Dy440 2.398 . S
O444 C442 1.185 . S
O445 Dy440 2.491 . S
O445 C442 1.355 . S
O446 Dy440 2.403 . S
O446 C448 1.254 . S
O447 Dy440 2.664 1_556 S
O447 Dy443 2.310 . S
O447 C448 1.268 1_556 S
C448 O446 1.254 . S
C448 O447 1.268 1_554 S
C449 O454 1.254 . S
C449 O455 1.268 1_556 S
O450 Dy443 2.351 . S
O450 C458 1.249 1_556 S
O451 Dy440 2.326 . S
O451 C458 1.267 . S
O452 C441 1.185 . S
O452 Dy443 2.398 . S
O453 C441 1.355 . S
O453 Dy443 2.491 . S
O454 Dy443 2.403 . S
O454 C449 1.254 . S
O455 Dy440 2.310 . S
O455 Dy443 2.664 1_554 S
O455 C449 1.268 1_554 S
O456 Dy440 2.351 . S
O456 C459 1.249 1_554 S
O457 Dy443 2.326 . S
O457 C459 1.267 . S
C458 O450 1.249 1_554 S
C458 O451 1.267 . S
C459 O456 1.249 1_556 S
C459 O457 1.267 . S
Dy460 O464 2.398 . S
Dy460 O465 2.491 . S
Dy460 O466 2.403 . S
Dy460 O467 2.664 1_554 S
Dy460 O471 2.326 . S
Dy460 O475 2.310 . S
Dy460 O476 2.351 . S
C461 O472 1.185 . S
C461 O473 1.355 . S
C462 O464 1.185 . S
C462 O465 1.355 . S
Dy463 O467 2.310 . S
Dy463 O470 2.351 . S
Dy463 O472 2.398 . S
Dy463 O473 2.491 . S
Dy463 O474 2.403 . S
Dy463 O475 2.664 1_556 S
Dy463 O477 2.326 . S
O464 Dy460 2.398 . S
O464 C462 1.185 . S
O465 Dy460 2.491 . S
O465 C462 1.355 . S
O466 Dy460 2.403 . S
O466 C468 1.254 . S
O467 Dy460 2.664 1_556 S
O467 Dy463 2.310 . S
O467 C468 1.268 1_556 S
C468 O466 1.254 . S
C468 O467 1.268 1_554 S
C469 O474 1.254 . S
C469 O475 1.268 1_556 S
O470 Dy463 2.351 . S
O470 C478 1.249 1_556 S
O471 Dy460 2.326 . S
O471 C478 1.267 . S
O472 C461 1.185 . S
O472 Dy463 2.398 . S
O473 C461 1.355 . S
O473 Dy463 2.491 . S
O474 Dy463 2.403 . S
O474 C469 1.254 . S
O475 Dy460 2.310 . S
O475 Dy463 2.664 1_554 S
O475 C469 1.268 1_554 S
O476 Dy460 2.351 . S
O476 C479 1.249 1_554 S
O477 Dy463 2.326 . S
O477 C479 1.267 . S
C478 O470 1.249 1_554 S
C478 O471 1.267 . S
C479 O476 1.249 1_556 S
C479 O477 1.267 . S
Dy480 O484 2.398 . S
Dy480 O485 2.491 . S
Dy480 O486 2.403 . S
Dy480 O487 2.664 . S
Dy480 O491 2.326 . S
Dy480 O495 2.310 . S
Dy480 O496 2.351 . S
C481 O492 1.185 . S
C481 O493 1.355 . S
C482 O484 1.185 . S
C482 O485 1.355 . S
Dy483 O487 2.310 . S
Dy483 O490 2.351 . S
Dy483 O492 2.398 . S
Dy483 O493 2.491 . S
Dy483 O494 2.403 . S
Dy483 O495 2.664 . S
Dy483 O497 2.326 . S
O484 Dy480 2.398 . S
O484 C482 1.185 . S
O485 Dy480 2.491 . S
O485 C482 1.355 . S
O486 Dy480 2.403 . S
O486 C488 1.254 . S
O487 Dy480 2.664 . S
O487 Dy483 2.310 . S
O487 C488 1.268 . S
C488 O486 1.254 . S
C488 O487 1.268 . S
C489 O494 1.254 . S
C489 O495 1.268 . S
O490 Dy483 2.351 . S
O490 C498 1.249 . S
O491 Dy480 2.326 . S
O491 C498 1.267 . S
O492 C481 1.185 . S
O492 Dy483 2.398 . S
O493 C481 1.355 . S
O493 Dy483 2.491 . S
O494 Dy483 2.403 . S
O494 C489 1.254 . S
O495 Dy480 2.310 . S
O495 Dy483 2.664 . S
O495 C489 1.268 . S
O496 Dy480 2.351 . S
O496 C499 1.249 . S
O497 Dy483 2.326 . S
O497 C499 1.267 . S
C498 O490 1.249 . S
C498 O491 1.267 . S
C499 O496 1.249 . S
C499 O497 1.267 . S
Dy500 O504 2.398 . S
Dy500 O505 2.491 . S
Dy500 O506 2.403 . S
Dy500 O507 2.664 . S
Dy500 O511 2.326 . S
Dy500 O515 2.310 . S
Dy500 O516 2.351 . S
C501 O512 1.185 . S
C501 O513 1.355 . S
C502 O504 1.185 . S
C502 O505 1.355 . S
Dy503 O507 2.310 . S
Dy503 O510 2.351 . S
Dy503 O512 2.398 . S
Dy503 O513 2.491 . S
Dy503 O514 2.403 . S
Dy503 O515 2.664 . S
Dy503 O517 2.326 . S
O504 Dy500 2.398 . S
O504 C502 1.185 . S
O505 Dy500 2.491 . S
O505 C502 1.355 . S
O506 Dy500 2.403 . S
O506 C508 1.254 . S
O507 Dy500 2.664 . S
O507 Dy503 2.310 . S
O507 C508 1.268 . S
C508 O506 1.254 . S
C508 O507 1.268 . S
C509 O514 1.254 . S
C509 O515 1.268 . S
O510 Dy503 2.351 . S
O510 C518 1.249 . S
O511 Dy500 2.326 . S
O511 C518 1.267 . S
O512 C501 1.185 . S
O512 Dy503 2.398 . S
O513 C501 1.355 . S
O513 Dy503 2.491 . S
O514 Dy503 2.403 . S
O514 C509 1.254 . S
O515 Dy500 2.310 . S
O515 Dy503 2.664 . S
O515 C509 1.268 . S
O516 Dy500 2.351 . S
O516 C519 1.249 . S
O517 Dy503 2.326 . S
O517 C519 1.267 . S
C518 O510 1.249 . S
C518 O511 1.267 . S
C519 O516 1.249 . S
C519 O517 1.267 . S
Dy520 O524 2.398 . S
Dy520 O525 2.491 . S
Dy520 O526 2.403 . S
Dy520 O527 2.664 . S
Dy520 O531 2.326 . S
Dy520 O535 2.310 . S
Dy520 O536 2.351 . S
C521 O532 1.185 . S
C521 O533 1.355 . S
C522 O524 1.185 . S
C522 O525 1.355 . S
Dy523 O527 2.310 . S
Dy523 O530 2.351 . S
Dy523 O532 2.398 . S
Dy523 O533 2.491 . S
Dy523 O534 2.403 . S
Dy523 O535 2.664 . S
Dy523 O537 2.326 . S
O524 Dy520 2.398 . S
O524 C522 1.185 . S
O525 Dy520 2.491 . S
O525 C522 1.355 . S
O526 Dy520 2.403 . S
O526 C528 1.254 . S
O527 Dy520 2.664 . S
O527 Dy523 2.310 . S
O527 C528 1.268 . S
C528 O526 1.254 . S
C528 O527 1.268 . S
C529 O534 1.254 . S
C529 O535 1.268 . S
O530 Dy523 2.351 . S
O530 C538 1.249 . S
O531 Dy520 2.326 . S
O531 C538 1.267 . S
O532 C521 1.185 . S
O532 Dy523 2.398 . S
O533 C521 1.355 . S
O533 Dy523 2.491 . S
O534 Dy523 2.403 . S
O534 C529 1.254 . S
O535 Dy520 2.310 . S
O535 Dy523 2.664 . S
O535 C529 1.268 . S
O536 Dy520 2.351 . S
O536 C539 1.249 . S
O537 Dy523 2.326 . S
O537 C539 1.267 . S
C538 O530 1.249 . S
C538 O531 1.267 . S
C539 O536 1.249 . S
C539 O537 1.267 . S
Dy540 O544 2.398 . S
Dy540 O545 2.491 . S
Dy540 O546 2.403 . S
Dy540 O547 2.664 1_554 S
Dy540 O551 2.326 . S
Dy540 O555 2.310 . S
Dy540 O556 2.351 . S
C541 O552 1.185 . S
C541 O553 1.355 . S
C542 O544 1.185 . S
C542 O545 1.355 . S
Dy543 O547 2.310 . S
Dy543 O550 2.351 . S
Dy543 O552 2.398 . S
Dy543 O553 2.491 . S
Dy543 O554 2.403 . S
Dy543 O555 2.664 1_556 S
Dy543 O557 2.326 . S
O544 Dy540 2.398 . S
O544 C542 1.185 . S
O545 Dy540 2.491 . S
O545 C542 1.355 . S
O546 Dy540 2.403 . S
O546 C548 1.254 . S
O547 Dy540 2.664 1_556 S
O547 Dy543 2.310 . S
O547 C548 1.268 1_556 S
C548 O546 1.254 . S
C548 O547 1.268 1_554 S
C549 O554 1.254 . S
C549 O555 1.268 1_556 S
O550 Dy543 2.351 . S
O550 C558 1.249 1_556 S
O551 Dy540 2.326 . S
O551 C558 1.267 . S
O552 C541 1.185 . S
O552 Dy543 2.398 . S
O553 C541 1.355 . S
O553 Dy543 2.491 . S
O554 Dy543 2.403 . S
O554 C549 1.254 . S
O555 Dy540 2.310 . S
O555 Dy543 2.664 1_554 S
O555 C549 1.268 1_554 S
O556 Dy540 2.351 . S
O556 C559 1.249 1_554 S
O557 Dy543 2.326 . S
O557 C559 1.267 . S
C558 O550 1.249 1_554 S
C558 O551 1.267 . S
C559 O556 1.249 1_556 S
C559 O557 1.267 . S
Dy560 O564 2.398 . S
Dy560 O565 2.491 . S
Dy560 O566 2.403 . S
Dy560 O567 2.664 1_554 S
Dy560 O571 2.326 . S
Dy560 O575 2.310 . S
Dy560 O576 2.351 . S
C561 O572 1.185 . S
C561 O573 1.355 . S
C562 O564 1.185 . S
C562 O565 1.355 . S
Dy563 O567 2.310 . S
Dy563 O570 2.351 . S
Dy563 O572 2.398 . S
Dy563 O573 2.491 . S
Dy563 O574 2.403 . S
Dy563 O575 2.664 1_556 S
Dy563 O577 2.326 . S
O564 Dy560 2.398 . S
O564 C562 1.185 . S
O565 Dy560 2.491 . S
O565 C562 1.355 . S
O566 Dy560 2.403 . S
O566 C568 1.254 . S
O567 Dy560 2.664 1_556 S
O567 Dy563 2.310 . S
O567 C568 1.268 1_556 S
C568 O566 1.254 . S
C568 O567 1.268 1_554 S
C569 O574 1.254 . S
C569 O575 1.268 1_556 S
O570 Dy563 2.351 . S
O570 C578 1.249 1_556 S
O571 Dy560 2.326 . S
O571 C578 1.267 . S
O572 C561 1.185 . S
O572 Dy563 2.398 . S
O573 C561 1.355 . S
O573 Dy563 2.491 . S
O574 Dy563 2.403 . S
O574 C569 1.254 . S
O575 Dy560 2.310 . S
O575 Dy563 2.664 1_554 S
O575 C569 1.268 1_554 S
O576 Dy560 2.351 . S
O576 C579 1.249 1_554 S
O577 Dy563 2.326 . S
O577 C579 1.267 . S
C578 O570 1.249 1_554 S
C578 O571 1.267 . S
C579 O576 1.249 1_556 S
C579 O577 1.267 . S
Dy580 O584 2.398 . S
Dy580 O585 2.491 . S
Dy580 O586 2.403 . S
Dy580 O587 2.664 1_554 S
Dy580 O591 2.326 . S
Dy580 O595 2.310 . S
Dy580 O596 2.351 . S
C581 O592 1.185 . S
C581 O593 1.355 . S
C582 O584 1.185 . S
C582 O585 1.355 . S
Dy583 O587 2.310 . S
Dy583 O590 2.351 . S
Dy583 O592 2.398 . S
Dy583 O593 2.491 . S
Dy583 O594 2.403 . S
Dy583 O595 2.664 1_556 S
Dy583 O597 2.326 . S
O584 Dy580 2.398 . S
O584 C582 1.185 . S
O585 Dy580 2.491 . S
O585 C582 1.355 . S
O586 Dy580 2.403 . S
O586 C588 1.254 . S
O587 Dy580 2.664 1_556 S
O587 Dy583 2.310 . S
O587 C588 1.268 1_556 S
C588 O586 1.254 . S
C588 O587 1.268 1_554 S
C589 O594 1.254 . S
C589 O595 1.268 1_556 S
O590 Dy583 2.351 . S
O590 C598 1.249 1_556 S
O591 Dy580 2.326 . S
O591 C598 1.267 . S
O592 C581 1.185 . S
O592 Dy583 2.398 . S
O593 C581 1.355 . S
O593 Dy583 2.491 . S
O594 Dy583 2.403 . S
O594 C589 1.254 . S
O595 Dy580 2.310 . S
O595 Dy583 2.664 1_554 S
O595 C589 1.268 1_554 S
O596 Dy580 2.351 . S
O596 C599 1.249 1_554 S
O597 Dy583 2.326 . S
O597 C599 1.267 . S
C598 O590 1.249 1_554 S
C598 O591 1.267 . S
C599 O596 1.249 1_556 S
C599 O597 1.267 . S
Dy600 O604 2.398 . S
Dy600 O605 2.491 . S
Dy600 O606 2.403 . S
Dy600 O607 2.664 . S
Dy600 O611 2.326 . S
Dy600 O615 2.310 . S
Dy600 O616 2.351 . S
C601 O612 1.185 . S
C601 O613 1.355 . S
C602 O604 1.185 . S
C602 O605 1.355 . S
Dy603 O607 2.310 . S
Dy603 O610 2.351 . S
Dy603 O612 2.398 . S
Dy603 O613 2.491 . S
Dy603 O614 2.403 . S
Dy603 O615 2.664 . S
Dy603 O617 2.326 . S
O604 Dy600 2.398 . S
O604 C602 1.185 . S
O605 Dy600 2.491 . S
O605 C602 1.355 . S
O606 Dy600 2.403 . S
O606 C608 1.254 . S
O607 Dy600 2.664 . S
O607 Dy603 2.310 . S
O607 C608 1.268 . S
C608 O606 1.254 . S
C608 O607 1.268 . S
C609 O614 1.254 . S
C609 O615 1.268 . S
O610 Dy603 2.351 . S
O610 C618 1.249 . S
O611 Dy600 2.326 . S
O611 C618 1.267 . S
O612 C601 1.185 . S
O612 Dy603 2.398 . S
O613 C601 1.355 . S
O613 Dy603 2.491 . S
O614 Dy603 2.403 . S
O614 C609 1.254 . S
O615 Dy600 2.310 . S
O615 Dy603 2.664 . S
O615 C609 1.268 . S
O616 Dy600 2.351 . S
O616 C619 1.249 . S
O617 Dy603 2.326 . S
O617 C619 1.267 . S
C618 O610 1.249 . S
C618 O611 1.267 . S
C619 O616 1.249 . S
C619 O617 1.267 . S
Dy620 O624 2.398 . S
Dy620 O625 2.491 . S
Dy620 O626 2.403 . S
Dy620 O627 2.664 . S
Dy620 O631 2.326 . S
Dy620 O635 2.310 . S
Dy620 O636 2.351 . S
C621 O632 1.185 . S
C621 O633 1.355 . S
C622 O624 1.185 . S
C622 O625 1.355 . S
Dy623 O627 2.310 . S
Dy623 O630 2.351 . S
Dy623 O632 2.398 . S
Dy623 O633 2.491 . S
Dy623 O634 2.403 . S
Dy623 O635 2.664 . S
Dy623 O637 2.326 . S
O624 Dy620 2.398 . S
O624 C622 1.185 . S
O625 Dy620 2.491 . S
O625 C622 1.355 . S
O626 Dy620 2.403 . S
O626 C628 1.254 . S
O627 Dy620 2.664 . S
O627 Dy623 2.310 . S
O627 C628 1.268 . S
C628 O626 1.254 . S
C628 O627 1.268 . S
C629 O634 1.254 . S
C629 O635 1.268 . S
O630 Dy623 2.351 . S
O630 C638 1.249 . S
O631 Dy620 2.326 . S
O631 C638 1.267 . S
O632 C621 1.185 . S
O632 Dy623 2.398 . S
O633 C621 1.355 . S
O633 Dy623 2.491 . S
O634 Dy623 2.403 . S
O634 C629 1.254 . S
O635 Dy620 2.310 . S
O635 Dy623 2.664 . S
O635 C629 1.268 . S
O636 Dy620 2.351 . S
O636 C639 1.249 . S
O637 Dy623 2.326 . S
O637 C639 1.267 . S
C638 O630 1.249 . S
C638 O631 1.267 . S
C639 O636 1.249 . S
C639 O637 1.267 . S
Dy640 O644 2.398 . S
Dy640 O645 2.491 . S
Dy640 O646 2.403 . S
Dy640 O647 2.664 . S
Dy640 O651 2.326 . S
Dy640 O655 2.310 . S
Dy640 O656 2.351 . S
C641 O652 1.185 . S
C641 O653 1.355 . S
C642 O644 1.185 . S
C642 O645 1.355 . S
Dy643 O647 2.310 . S
Dy643 O650 2.351 . S
Dy643 O652 2.398 . S
Dy643 O653 2.491 . S
Dy643 O654 2.403 . S
Dy643 O655 2.664 . S
Dy643 O657 2.326 . S
O644 Dy640 2.398 . S
O644 C642 1.185 . S
O645 Dy640 2.491 . S
O645 C642 1.355 . S
O646 Dy640 2.403 . S
O646 C648 1.254 . S
O647 Dy640 2.664 . S
O647 Dy643 2.310 . S
O647 C648 1.268 . S
C648 O646 1.254 . S
C648 O647 1.268 . S
C649 O654 1.254 . S
C649 O655 1.268 . S
O650 Dy643 2.351 . S
O650 C658 1.249 . S
O651 Dy640 2.326 . S
O651 C658 1.267 . S
O652 C641 1.185 . S
O652 Dy643 2.398 . S
O653 C641 1.355 . S
O653 Dy643 2.491 . S
O654 Dy643 2.403 . S
O654 C649 1.254 . S
O655 Dy640 2.310 . S
O655 Dy643 2.664 . S
O655 C649 1.268 . S
O656 Dy640 2.351 . S
O656 C659 1.249 . S
O657 Dy643 2.326 . S
O657 C659 1.267 . S
C658 O650 1.249 . S
C658 O651 1.267 . S
C659 O656 1.249 . S
C659 O657 1.267 . S
Dy660 O664 2.398 . S
Dy660 O665 2.491 . S
Dy660 O666 2.403 . S
Dy660 O667 2.664 . S
Dy660 O671 2.326 . S
Dy660 O675 2.310 . S
Dy660 O676 2.351 . S
C661 O672 1.185 . S
C661 O673 1.355 . S
C662 O664 1.185 . S
C662 O665 1.355 . S
Dy663 O667 2.310 . S
Dy663 O670 2.351 . S
Dy663 O672 2.398 . S
Dy663 O673 2.491 . S
Dy663 O674 2.403 . S
Dy663 O675 2.664 . S
Dy663 O677 2.326 . S
O664 Dy660 2.398 . S
O664 C662 1.185 . S
O665 Dy660 2.491 . S
O665 C662 1.355 . S
O666 Dy660 2.403 . S
O666 C668 1.254 . S
O667 Dy660 2.664 . S
O667 Dy663 2.310 . S
O667 C668 1.268 . S
C668 O666 1.254 . S
C668 O667 1.268 . S
C669 O674 1.254 . S
C669 O675 1.268 . S
O670 Dy663 2.351 . S
O670 C678 1.249 . S
O671 Dy660 2.326 . S
O671 C678 1.267 . S
O672 C661 1.185 . S
O672 Dy663 2.398 . S
O673 C661 1.355 . S
O673 Dy663 2.491 . S
O674 Dy663 2.403 . S
O674 C669 1.254 . S
O675 Dy660 2.310 . S
O675 Dy663 2.664 . S
O675 C669 1.268 . S
O676 Dy660 2.351 . S
O676 C679 1.249 . S
O677 Dy663 2.326 . S
O677 C679 1.267 . S
C678 O670 1.249 . S
C678 O671 1.267 . S
C679 O676 1.249 . S
C679 O677 1.267 . S
Dy680 O684 2.398 . S
Dy680 O685 2.491 . S
Dy680 O686 2.403 . S
Dy680 O687 2.664 . S
Dy680 O691 2.326 . S
Dy680 O695 2.310 . S
Dy680 O696 2.351 . S
C681 O692 1.185 . S
C681 O693 1.355 . S
C682 O684 1.185 . S
C682 O685 1.355 . S
Dy683 O687 2.310 . S
Dy683 O690 2.351 . S
Dy683 O692 2.398 . S
Dy683 O693 2.491 . S
Dy683 O694 2.403 . S
Dy683 O695 2.664 . S
Dy683 O697 2.326 . S
O684 Dy680 2.398 . S
O684 C682 1.185 . S
O685 Dy680 2.491 . S
O685 C682 1.355 . S
O686 Dy680 2.403 . S
O686 C688 1.254 . S
O687 Dy680 2.664 . S
O687 Dy683 2.310 . S
O687 C688 1.268 . S
C688 O686 1.254 . S
C688 O687 1.268 . S
C689 O694 1.254 . S
C689 O695 1.268 . S
O690 Dy683 2.351 . S
O690 C698 1.249 . S
O691 Dy680 2.326 . S
O691 C698 1.267 . S
O692 C681 1.185 . S
O692 Dy683 2.398 . S
O693 C681 1.355 . S
O693 Dy683 2.491 . S
O694 Dy683 2.403 . S
O694 C689 1.254 . S
O695 Dy680 2.310 . S
O695 Dy683 2.664 . S
O695 C689 1.268 . S
O696 Dy680 2.351 . S
O696 C699 1.249 . S
O697 Dy683 2.326 . S
O697 C699 1.267 . S
C698 O690 1.249 . S
C698 O691 1.267 . S
C699 O696 1.249 . S
C699 O697 1.267 . S
Dy700 O704 2.398 . S
Dy700 O705 2.491 . S
Dy700 O706 2.403 . S
Dy700 O707 2.664 . S
Dy700 O711 2.326 . S
Dy700 O715 2.310 . S
Dy700 O716 2.351 . S
C701 O712 1.185 . S
C701 O713 1.355 . S
C702 O704 1.185 . S
C702 O705 1.355 . S
Dy703 O707 2.310 . S
Dy703 O710 2.351 . S
Dy703 O712 2.398 . S
Dy703 O713 2.491 . S
Dy703 O714 2.403 . S
Dy703 O715 2.664 . S
Dy703 O717 2.326 . S
O704 Dy700 2.398 . S
O704 C702 1.185 . S
O705 Dy700 2.491 . S
O705 C702 1.355 . S
O706 Dy700 2.403 . S
O706 C708 1.254 . S
O707 Dy700 2.664 . S
O707 Dy703 2.310 . S
O707 C708 1.268 . S
C708 O706 1.254 . S
C708 O707 1.268 . S
C709 O714 1.254 . S
C709 O715 1.268 . S
O710 Dy703 2.351 . S
O710 C718 1.249 . S
O711 Dy700 2.326 . S
O711 C718 1.267 . S
O712 C701 1.185 . S
O712 Dy703 2.398 . S
O713 C701 1.355 . S
O713 Dy703 2.491 . S
O714 Dy703 2.403 . S
O714 C709 1.254 . S
O715 Dy700 2.310 . S
O715 Dy703 2.664 . S
O715 C709 1.268 . S
O716 Dy700 2.351 . S
O716 C719 1.249 . S
O717 Dy703 2.326 . S
O717 C719 1.267 . S
C718 O710 1.249 . S
C718 O711 1.267 . S
C719 O716 1.249 . S
C719 O717 1.267 . S
C720 C721 1.387 . S
C720 H724 0.950 . S
C720 C729 1.390 . S
C721 C720 1.387 . S
C721 C723 1.387 . S
H722 C729 0.950 . S
C723 C721 1.387 . S
C723 C725 1.390 . S
C723 H727 0.950 . S
H724 C720 0.950 . S
C725 C723 1.390 . S
C725 C726 1.387 . S
C725 H728 0.950 . S
C726 C725 1.387 . S
C726 C729 1.387 . S
H727 C723 0.950 . S
H728 C725 0.950 . S
C729 C720 1.390 . S
C729 H722 0.950 . S
C729 C726 1.387 . S
C730 C731 1.387 . S
C730 H734 0.950 . S
C730 C739 1.390 . S
C731 C730 1.387 . S
C731 C733 1.387 . S
H732 C739 0.950 . S
C733 C731 1.387 . S
C733 C735 1.390 . S
C733 H737 0.950 . S
H734 C730 0.950 . S
C735 C733 1.390 . S
C735 C736 1.387 . S
C735 H738 0.950 . S
C736 C735 1.387 . S
C736 C739 1.387 . S
H737 C733 0.950 . S
H738 C735 0.950 . S
C739 C730 1.390 . S
C739 H732 0.950 . S
C739 C736 1.387 . S
C740 C741 1.387 . S
C740 H744 0.946 1_655 S
C740 C749 1.390 . S
C741 C740 1.387 . S
C741 C743 1.387 . S
H742 C749 0.950 . S
C743 C741 1.387 . S
C743 C745 1.390 . S
C743 H747 0.950 . S
H744 C740 0.946 1_455 S
C745 C743 1.390 . S
C745 C746 1.387 . S
C745 H748 0.950 . S
C746 C745 1.387 . S
C746 C749 1.387 . S
H747 C743 0.950 . S
H748 C745 0.950 . S
C749 C740 1.390 . S
C749 H742 0.950 . S
C749 C746 1.387 . S
C750 C751 1.387 . S
C750 H754 0.950 . S
C750 C759 1.390 . S
C751 C750 1.387 . S
C751 C753 1.387 . S
H752 C759 0.950 . S
C753 C751 1.387 . S
C753 C755 1.390 . S
C753 H757 0.950 . S
H754 C750 0.950 . S
C755 C753 1.390 . S
C755 C756 1.387 . S
C755 H758 0.950 . S
C756 C755 1.387 . S
C756 C759 1.387 . S
H757 C753 0.950 . S
H758 C755 0.950 . S
C759 C750 1.390 . S
C759 H752 0.950 . S
C759 C756 1.387 . S
C760 C761 1.387 . S
C760 H764 0.950 . S
C760 C769 1.390 . S
C761 C760 1.387 . S
C761 C763 1.387 . S
H762 C769 0.950 . S
C763 C761 1.387 . S
C763 C765 1.390 . S
C763 H767 0.950 . S
H764 C760 0.950 . S
C765 C763 1.390 . S
C765 C766 1.387 . S
C765 H768 0.950 . S
C766 C765 1.387 . S
C766 C769 1.387 . S
H767 C763 0.950 . S
H768 C765 0.950 . S
C769 C760 1.390 . S
C769 H762 0.950 . S
C769 C766 1.387 . S
C770 C771 1.387 . S
C770 H774 0.950 . S
C770 C779 1.390 . S
C771 C770 1.387 . S
C771 C773 1.387 . S
H772 C779 0.950 . S
C773 C771 1.387 . S
C773 C775 1.390 . S
C773 H777 0.950 . S
H774 C770 0.950 . S
C775 C773 1.390 . S
C775 C776 1.387 . S
C775 H778 0.950 . S
C776 C775 1.387 . S
C776 C779 1.387 . S
H777 C773 0.950 . S
H778 C775 0.950 . S
C779 C770 1.390 . S
C779 H772 0.950 . S
C779 C776 1.387 . S
C780 C781 1.387 . S
C780 H784 0.950 . S
C780 C789 1.390 . S
C781 C780 1.387 . S
C781 C783 1.387 . S
H782 C789 0.950 . S
C783 C781 1.387 . S
C783 C785 1.390 . S
C783 H787 0.950 . S
H784 C780 0.950 . S
C785 C783 1.390 . S
C785 C786 1.387 . S
C785 H788 0.950 . S
C786 C785 1.387 . S
C786 C789 1.387 . S
H787 C783 0.950 . S
H788 C785 0.950 . S
C789 C780 1.390 . S
C789 H782 0.950 . S
C789 C786 1.387 . S
C790 C791 1.387 . S
C790 H794 0.950 . S
C790 C799 1.390 . S
C791 C790 1.387 . S
C791 C793 1.387 . S
H792 C799 0.950 . S
C793 C791 1.387 . S
C793 C795 1.390 . S
C793 H797 0.950 . S
H794 C790 0.950 . S
C795 C793 1.390 . S
C795 C796 1.387 . S
C795 H798 0.950 . S
C796 C795 1.387 . S
C796 C799 1.387 . S
H797 C793 0.950 . S
H798 C795 0.950 . S
C799 C790 1.390 . S
C799 H792 0.950 . S
C799 C796 1.387 . S
C800 C801 1.387 . S
C800 H804 0.950 . S
C800 C809 1.390 . S
C801 C800 1.387 . S
C801 C803 1.387 . S
H802 C809 0.950 . S
C803 C801 1.387 . S
C803 C805 1.390 . S
C803 H807 0.950 1_455 S
H804 C800 0.950 . S
C805 C803 1.390 . S
C805 C806 1.387 . S
C805 H808 0.950 . S
C806 C805 1.387 . S
C806 C809 1.387 . S
H807 C803 0.950 1_655 S
H808 C805 0.950 . S
C809 C800 1.390 . S
C809 H802 0.950 . S
C809 C806 1.387 . S
C810 C811 1.387 . S
C810 H814 0.950 . S
C810 C819 1.390 . S
C811 C810 1.387 . S
C811 C813 1.387 . S
H812 C819 0.950 . S
C813 C811 1.387 . S
C813 C815 1.390 . S
C813 H817 0.950 . S
H814 C810 0.950 . S
C815 C813 1.390 . S
C815 C816 1.387 . S
C815 H818 0.950 . S
C816 C815 1.387 . S
C816 C819 1.387 . S
H817 C813 0.950 . S
H818 C815 0.950 . S
C819 C810 1.390 . S
C819 H812 0.950 . S
C819 C816 1.387 . S
C820 C821 1.387 . S
C820 H824 0.950 . S
C820 C829 1.390 . S
C821 C820 1.387 . S
C821 C823 1.387 . S
H822 C829 0.950 . S
C823 C821 1.387 . S
C823 C825 1.390 . S
C823 H827 0.950 . S
H824 C820 0.950 . S
C825 C823 1.390 . S
C825 C826 1.387 . S
C825 H828 0.950 . S
C826 C825 1.387 . S
C826 C829 1.387 . S
H827 C823 0.950 . S
H828 C825 0.950 . S
C829 C820 1.390 . S
C829 H822 0.950 . S
C829 C826 1.387 . S
C830 C831 1.387 . S
C830 H834 0.950 . S
C830 C839 1.390 . S
C831 C830 1.387 . S
C831 C833 1.387 . S
H832 C839 0.950 . S
C833 C831 1.387 . S
C833 C835 1.390 . S
C833 H837 0.950 . S
H834 C830 0.950 . S
C835 C833 1.390 . S
C835 C836 1.387 . S
C835 H838 0.950 . S
C836 C835 1.387 . S
C836 C839 1.387 . S
H837 C833 0.950 . S
H838 C835 0.950 . S
C839 C830 1.390 . S
C839 H832 0.950 . S
C839 C836 1.387 . S
C840 C841 1.387 . S
C840 H844 0.950 . S
C840 C849 1.390 . S
C841 C840 1.387 . S
C841 C843 1.387 . S
H842 C849 0.950 . S
C843 C841 1.387 . S
C843 C845 1.390 . S
C843 H847 0.950 . S
H844 C840 0.950 . S
C845 C843 1.390 . S
C845 C846 1.387 . S
C845 H848 0.950 . S
C846 C845 1.387 . S
C846 C849 1.387 . S
H847 C843 0.950 . S
H848 C845 0.950 . S
C849 C840 1.390 . S
C849 H842 0.950 . S
C849 C846 1.387 . S
C850 C851 1.387 . S
C850 H854 0.950 . S
C850 C859 1.390 . S
C851 C850 1.387 . S
C851 C853 1.387 . S
H852 C859 0.950 . S
C853 C851 1.387 . S
C853 C855 1.390 . S
C853 H857 0.950 . S
H854 C850 0.950 . S
C855 C853 1.390 . S
C855 C856 1.387 . S
C855 H858 0.950 . S
C856 C855 1.387 . S
C856 C859 1.387 . S
H857 C853 0.950 . S
H858 C855 0.950 . S
C859 C850 1.390 . S
C859 H852 0.950 . S
C859 C856 1.387 . S
C860 C861 1.387 . S
C860 H864 0.950 . S
C860 C869 1.390 . S
C861 C860 1.387 . S
C861 C863 1.387 . S
H862 C869 0.950 . S
C863 C861 1.387 . S
C863 C865 1.390 . S
C863 H867 0.950 . S
H864 C860 0.950 . S
C865 C863 1.390 . S
C865 C866 1.387 . S
C865 H868 0.950 . S
C866 C865 1.387 . S
C866 C869 1.387 . S
H867 C863 0.950 . S
H868 C865 0.950 . S
C869 C860 1.390 . S
C869 H862 0.950 . S
C869 C866 1.387 . S
C870 C871 1.387 . S
C870 H874 0.950 . S
C870 C879 1.390 . S
C871 C870 1.387 . S
C871 C873 1.387 . S
H872 C879 0.950 . S
C873 C871 1.387 . S
C873 C875 1.390 . S
C873 H877 0.950 . S
H874 C870 0.950 . S
C875 C873 1.390 . S
C875 C876 1.387 . S
C875 H878 0.950 . S
C876 C875 1.387 . S
C876 C879 1.387 . S
H877 C873 0.950 . S
H878 C875 0.950 . S
C879 C870 1.390 . S
C879 H872 0.950 . S
C879 C876 1.387 . S
C880 C881 1.387 . S
C880 H884 0.950 . S
C880 C889 1.390 . S
C881 C880 1.387 . S
C881 C883 1.387 . S
H882 C889 0.950 . S
C883 C881 1.387 . S
C883 C885 1.390 . S
C883 H887 0.950 . S
H884 C880 0.950 . S
C885 C883 1.390 . S
C885 C886 1.387 . S
C885 H888 0.950 . S
C886 C885 1.387 . S
C886 C889 1.387 . S
H887 C883 0.950 . S
H888 C885 0.950 . S
C889 C880 1.390 . S
C889 H882 0.950 . S
C889 C886 1.387 . S
C890 C891 1.387 . S
C890 H894 0.950 . S
C890 C899 1.390 . S
C891 C890 1.387 . S
C891 C893 1.387 . S
H892 C899 0.950 . S
C893 C891 1.387 . S
C893 C895 1.390 . S
C893 H897 0.950 . S
H894 C890 0.950 . S
C895 C893 1.390 . S
C895 C896 1.387 . S
C895 H898 0.950 . S
C896 C895 1.387 . S
C896 C899 1.387 . S
H897 C893 0.950 . S
H898 C895 0.950 . S
C899 C890 1.390 . S
C899 H892 0.950 . S
C899 C896 1.387 . S
C900 C901 1.387 . S
C900 H904 0.950 . S
C900 C909 1.390 . S
C901 C900 1.387 . S
C901 C903 1.387 . S
H902 C909 0.950 . S
C903 C901 1.387 . S
C903 C905 1.390 . S
C903 H907 0.950 . S
H904 C900 0.950 . S
C905 C903 1.390 . S
C905 C906 1.387 . S
C905 H908 0.950 . S
C906 C905 1.387 . S
C906 C909 1.387 . S
H907 C903 0.950 . S
H908 C905 0.950 . S
C909 C900 1.390 . S
C909 H902 0.950 . S
C909 C906 1.387 . S
C910 C911 1.387 . S
C910 H914 0.950 . S
C910 C919 1.390 . S
C911 C910 1.387 . S
C911 C913 1.387 . S
H912 C919 0.950 . S
C913 C911 1.387 . S
C913 C915 1.390 . S
C913 H917 0.950 . S
H914 C910 0.950 . S
C915 C913 1.390 . S
C915 C916 1.387 . S
C915 H918 0.950 . S
C916 C915 1.387 . S
C916 C919 1.387 . S
H917 C913 0.950 . S
H918 C915 0.950 . S
C919 C910 1.390 . S
C919 H912 0.950 . S
C919 C916 1.387 . S
C920 C921 1.387 . S
C920 H924 0.950 . S
C920 C929 1.390 . S
C921 C920 1.387 . S
C921 C923 1.387 . S
H922 C929 0.950 . S
C923 C921 1.387 . S
C923 C925 1.390 . S
C923 H927 0.950 . S
H924 C920 0.950 . S
C925 C923 1.390 . S
C925 C926 1.387 . S
C925 H928 0.950 . S
C926 C925 1.387 . S
C926 C929 1.387 . S
H927 C923 0.950 . S
H928 C925 0.950 . S
C929 C920 1.390 . S
C929 H922 0.950 . S
C929 C926 1.387 . S
C930 C931 1.387 . S
C930 H934 0.950 . S
C930 C939 1.390 . S
C931 C930 1.387 . S
C931 C933 1.387 1_554 S
H932 C939 0.950 . S
C933 C931 1.387 1_556 S
C933 C935 1.390 . S
C933 H937 0.950 . S
H934 C930 0.950 . S
C935 C933 1.390 . S
C935 C936 1.387 1_556 S
C935 H938 0.950 . S
C936 C935 1.387 1_554 S
C936 C939 1.387 . S
H937 C933 0.950 . S
H938 C935 0.950 . S
C939 C930 1.390 . S
C939 H932 0.950 . S
C939 C936 1.387 . S
C940 C941 1.387 1_556 S
C940 H944 0.950 . S
C940 C949 1.390 . S
C941 C940 1.387 1_554 S
C941 C943 1.387 . S
H942 C949 0.950 . S
C943 C941 1.387 . S
C943 C945 1.390 . S
C943 H947 0.950 . S
H944 C940 0.950 . S
C945 C943 1.390 . S
C945 C946 1.387 . S
C945 H948 0.950 . S
C946 C945 1.387 . S
C946 C949 1.387 1_554 S
H947 C943 0.950 . S
H948 C945 0.950 . S
C949 C940 1.390 . S
C949 H942 0.950 . S
C949 C946 1.387 1_556 S
C950 C951 1.387 . S
C950 H954 0.950 . S
C950 C959 1.390 . S
C951 C950 1.387 . S
C951 C953 1.387 1_554 S
H952 C959 0.950 . S
C953 C951 1.387 1_556 S
C953 C955 1.390 . S
C953 H957 0.950 . S
H954 C950 0.950 . S
C955 C953 1.390 . S
C955 C956 1.387 1_556 S
C955 H958 0.950 . S
C956 C955 1.387 1_554 S
C956 C959 1.387 . S
H957 C953 0.950 . S
H958 C955 0.950 . S
C959 C950 1.390 . S
C959 H952 0.950 . S
C959 C956 1.387 . S
C960 C961 1.387 . S
C960 H964 0.950 . S
C960 C969 1.390 . S
C961 C960 1.387 . S
C961 C963 1.387 . S
H962 C969 0.950 . S
C963 C961 1.387 . S
C963 C965 1.390 . S
C963 H967 0.950 . S
H964 C960 0.950 . S
C965 C963 1.390 . S
C965 C966 1.387 . S
C965 H968 0.950 . S
C966 C965 1.387 . S
C966 C969 1.387 . S
H967 C963 0.950 . S
H968 C965 0.950 . S
C969 C960 1.390 . S
C969 H962 0.950 . S
C969 C966 1.387 . S
C970 C971 1.387 . S
C970 H974 0.950 . S
C970 C979 1.390 . S
C971 C970 1.387 . S
C971 C973 1.387 . S
H972 C979 0.950 . S
C973 C971 1.387 . S
C973 C975 1.390 . S
C973 H977 0.950 . S
H974 C970 0.950 . S
C975 C973 1.390 . S
C975 C976 1.387 . S
C975 H978 0.950 . S
C976 C975 1.387 . S
C976 C979 1.387 . S
H977 C973 0.950 . S
H978 C975 0.950 . S
C979 C970 1.390 . S
C979 H972 0.950 . S
C979 C976 1.387 . S
C980 C981 1.387 . S
C980 H984 0.950 . S
C980 C989 1.390 . S
C981 C980 1.387 . S
C981 C983 1.387 . S
H982 C989 0.950 . S
C983 C981 1.387 . S
C983 C985 1.390 . S
C983 H987 0.950 . S
H984 C980 0.950 . S
C985 C983 1.390 . S
C985 C986 1.387 . S
C985 H988 0.950 . S
C986 C985 1.387 . S
C986 C989 1.387 . S
H987 C983 0.950 . S
H988 C985 0.950 . S
C989 C980 1.390 . S
C989 H982 0.950 . S
C989 C986 1.387 . S
C990 C991 1.410 . S
C990 H994 0.950 . S
C990 C999 1.390 . S
C991 C990 1.410 . S
C991 C993 1.374 1_556 S
H992 C999 0.950 . S
C993 C991 1.374 1_554 S
C993 C995 1.390 . S
C993 H997 0.950 . S
H994 C990 0.950 . S
C995 C993 1.390 . S
C995 C996 1.387 1_554 S
C995 H998 0.950 . S
C996 C995 1.387 1_556 S
C996 C999 1.387 . S
H997 C993 0.950 . S
H998 C995 0.950 . S
C999 C990 1.390 . S
C999 H992 0.950 . S
C999 C996 1.387 . S
C1000 C1001 1.387 . S
C1000 H1004 0.950 . S
C1000 C1009 1.390 . S
C1001 C1000 1.387 . S
C1001 C1003 1.387 1_556 S
H1002 C1009 0.950 . S
C1003 C1001 1.387 1_554 S
C1003 C1005 1.390 . S
C1003 H1007 0.950 . S
H1004 C1000 0.950 . S
C1005 C1003 1.390 . S
C1005 C1006 1.387 1_554 S
C1005 H1008 0.950 . S
C1006 C1005 1.387 1_556 S
C1006 C1009 1.387 . S
H1007 C1003 0.950 . S
H1008 C1005 0.950 . S
C1009 C1000 1.390 . S
C1009 H1002 0.950 . S
C1009 C1006 1.387 . S
C1010 C1011 1.387 . S
C1010 H1014 0.950 . S
C1010 C1019 1.390 . S
C1011 C1010 1.387 . S
C1011 C1013 1.387 1_556 S
H1012 C1019 0.950 . S
C1013 C1011 1.387 1_554 S
C1013 C1015 1.390 . S
C1013 H1017 0.950 . S
H1014 C1010 0.950 . S
C1015 C1013 1.390 . S
C1015 C1016 1.387 1_554 S
C1015 H1018 0.950 . S
C1016 C1015 1.387 1_556 S
C1016 C1019 1.387 . S
H1017 C1013 0.950 . S
H1018 C1015 0.950 . S
C1019 C1010 1.390 . S
C1019 H1012 0.950 . S
C1019 C1016 1.387 . S
C1020 C1021 1.387 . S
C1020 H1024 0.950 . S
C1020 C1029 1.390 . S
C1021 C1020 1.387 . S
C1021 C1023 1.387 . S
H1022 C1029 0.950 . S
C1023 C1021 1.387 . S
C1023 C1025 1.390 . S
C1023 H1027 0.950 . S
H1024 C1020 0.950 . S
C1025 C1023 1.390 . S
C1025 C1026 1.387 . S
C1025 H1028 0.950 . S
C1026 C1025 1.387 . S
C1026 C1029 1.387 . S
H1027 C1023 0.950 . S
H1028 C1025 0.950 . S
C1029 C1020 1.390 . S
C1029 H1022 0.950 . S
C1029 C1026 1.387 . S
C1030 C1031 1.387 . S
C1030 H1034 0.950 . S
C1030 C1039 1.390 . S
C1031 C1030 1.387 . S
C1031 C1033 1.387 . S
H1032 C1039 0.950 . S
C1033 C1031 1.387 . S
C1033 C1035 1.390 . S
C1033 H1037 0.950 . S
H1034 C1030 0.950 . S
C1035 C1033 1.390 . S
C1035 C1036 1.387 . S
C1035 H1038 0.950 . S
C1036 C1035 1.387 . S
C1036 C1039 1.387 . S
H1037 C1033 0.950 . S
H1038 C1035 0.950 . S
C1039 C1030 1.390 . S
C1039 H1032 0.950 . S
C1039 C1036 1.387 . S
C1040 C1041 1.387 . S
C1040 H1044 0.950 . S
C1040 C1049 1.390 . S
C1041 C1040 1.387 . S
C1041 C1043 1.387 . S
H1042 C1049 0.950 . S
C1043 C1041 1.387 . S
C1043 C1045 1.390 . S
C1043 H1047 0.950 . S
H1044 C1040 0.950 . S
C1045 C1043 1.390 . S
C1045 C1046 1.387 . S
C1045 H1048 0.950 . S
C1046 C1045 1.387 . S
C1046 C1049 1.387 . S
H1047 C1043 0.950 . S
H1048 C1045 0.950 . S
C1049 C1040 1.390 . S
C1049 H1042 0.950 . S
C1049 C1046 1.387 . S
C1050 C1051 1.387 . S
C1050 H1054 0.950 . S
C1050 C1059 1.390 . S
C1051 C1050 1.387 . S
C1051 C1053 1.387 . S
H1052 C1059 0.950 . S
C1053 C1051 1.387 . S
C1053 C1055 1.390 . S
C1053 H1057 0.950 . S
H1054 C1050 0.950 . S
C1055 C1053 1.390 . S
C1055 C1056 1.387 . S
C1055 H1058 0.950 . S
C1056 C1055 1.387 . S
C1056 C1059 1.387 . S
H1057 C1053 0.950 . S
H1058 C1055 0.950 . S
C1059 C1050 1.390 . S
C1059 H1052 0.950 . S
C1059 C1056 1.387 . S
C1060 C1061 1.387 . S
C1060 H1064 0.950 . S
C1060 C1069 1.390 . S
C1061 C1060 1.387 . S
C1061 C1063 1.387 . S
H1062 C1069 0.950 . S
C1063 C1061 1.387 . S
C1063 C1065 1.390 . S
C1063 H1067 0.950 . S
H1064 C1060 0.950 . S
C1065 C1063 1.390 . S
C1065 C1066 1.387 . S
C1065 H1068 0.950 . S
C1066 C1065 1.387 . S
C1066 C1069 1.387 . S
H1067 C1063 0.950 . S
H1068 C1065 0.950 . S
C1069 C1060 1.390 . S
C1069 H1062 0.950 . S
C1069 C1066 1.387 . S
C1070 C1071 1.387 . S
C1070 H1074 0.950 . S
C1070 C1079 1.390 . S
C1071 C1070 1.387 . S
C1071 C1073 1.387 . S
H1072 C1079 0.950 . S
C1073 C1071 1.387 . S
C1073 C1075 1.390 . S
C1073 H1077 0.950 . S
H1074 C1070 0.950 . S
C1075 C1073 1.390 . S
C1075 C1076 1.387 . S
C1075 H1078 0.950 . S
C1076 C1075 1.387 . S
C1076 C1079 1.387 . S
H1077 C1073 0.950 . S
H1078 C1075 0.950 . S
C1079 C1070 1.390 . S
C1079 H1072 0.950 . S
C1079 C1076 1.387 . S
C1080 C1081 1.387 . S
C1080 H1084 0.950 . S
C1080 C1089 1.390 . S
C1081 C1080 1.387 . S
C1081 C1083 1.387 . S
H1082 C1089 0.950 . S
C1083 C1081 1.387 . S
C1083 C1085 1.390 . S
C1083 H1087 0.950 . S
H1084 C1080 0.950 . S
C1085 C1083 1.390 . S
C1085 C1086 1.387 . S
C1085 H1088 0.950 . S
C1086 C1085 1.387 . S
C1086 C1089 1.387 . S
H1087 C1083 0.950 . S
H1088 C1085 0.950 . S
C1089 C1080 1.390 . S
C1089 H1082 0.950 . S
C1089 C1086 1.387 . S
C1090 C1091 1.387 . S
C1090 H1094 0.950 . S
C1090 C1099 1.390 . S
C1091 C1090 1.387 . S
C1091 C1093 1.387 . S
H1092 C1099 0.950 . S
C1093 C1091 1.387 . S
C1093 C1095 1.390 . S
C1093 H1097 0.950 . S
H1094 C1090 0.950 . S
C1095 C1093 1.390 . S
C1095 C1096 1.387 . S
C1095 H1098 0.950 . S
C1096 C1095 1.387 . S
C1096 C1099 1.387 . S
H1097 C1093 0.950 . S
H1098 C1095 0.950 . S
C1099 C1090 1.390 . S
C1099 H1092 0.950 . S
C1099 C1096 1.387 . S
C1100 C1101 1.387 . S
C1100 H1104 0.950 . S
C1100 C1109 1.390 . S
C1101 C1100 1.387 . S
C1101 C1103 1.387 . S
H1102 C1109 0.950 . S
C1103 C1101 1.387 . S
C1103 C1105 1.390 1_455 S
C1103 H1107 0.950 . S
H1104 C1100 0.950 . S
C1105 C1103 1.390 1_655 S
C1105 C1106 1.387 1_655 S
C1105 H1108 0.950 . S
C1106 C1105 1.387 1_455 S
C1106 C1109 1.387 . S
H1107 C1103 0.950 . S
H1108 C1105 0.950 . S
C1109 C1100 1.390 . S
C1109 H1102 0.950 . S
C1109 C1106 1.387 . S
C1110 C1111 1.387 . S
C1110 H1114 0.950 . S
C1110 C1119 1.390 . S
C1111 C1110 1.387 . S
C1111 C1113 1.387 . S
H1112 C1119 0.950 . S
C1113 C1111 1.387 . S
C1113 C1115 1.390 . S
C1113 H1117 0.950 . S
H1114 C1110 0.950 . S
C1115 C1113 1.390 . S
C1115 C1116 1.387 . S
C1115 H1118 0.950 . S
C1116 C1115 1.387 . S
C1116 C1119 1.387 . S
H1117 C1113 0.950 . S
H1118 C1115 0.950 . S
C1119 C1110 1.390 . S
C1119 H1112 0.950 . S
C1119 C1116 1.387 . S
C1120 C1121 1.387 . S
C1120 H1124 0.950 . S
C1120 C1129 1.390 . S
C1121 C1120 1.387 . S
C1121 C1123 1.387 . S
H1122 C1129 0.950 . S
C1123 C1121 1.387 . S
C1123 C1125 1.390 . S
C1123 H1127 0.950 . S
H1124 C1120 0.950 . S
C1125 C1123 1.390 . S
C1125 C1126 1.387 . S
C1125 H1128 0.950 . S
C1126 C1125 1.387 . S
C1126 C1129 1.387 . S
H1127 C1123 0.950 . S
H1128 C1125 0.950 . S
C1129 C1120 1.390 . S
C1129 H1122 0.950 . S
C1129 C1126 1.387 . S
C1130 C1131 1.387 . S
C1130 H1134 0.950 . S
C1130 C1139 1.390 . S
C1131 C1130 1.387 . S
C1131 C1133 1.387 . S
H1132 C1139 0.950 . S
C1133 C1131 1.387 . S
C1133 C1135 1.390 . S
C1133 H1137 0.950 . S
H1134 C1130 0.950 . S
C1135 C1133 1.390 . S
C1135 C1136 1.387 . S
C1135 H1138 0.950 . S
C1136 C1135 1.387 . S
C1136 C1139 1.387 . S
H1137 C1133 0.950 . S
H1138 C1135 0.950 . S
C1139 C1130 1.390 . S
C1139 H1132 0.950 . S
C1139 C1136 1.387 . S
C1140 C1141 1.387 . S
C1140 H1144 0.950 . S
C1140 C1149 1.390 . S
C1141 C1140 1.387 . S
C1141 C1143 1.387 . S
H1142 C1149 0.950 . S
C1143 C1141 1.387 . S
C1143 C1145 1.390 . S
C1143 H1147 0.950 . S
H1144 C1140 0.950 . S
C1145 C1143 1.390 . S
C1145 C1146 1.387 . S
C1145 H1148 0.950 . S
C1146 C1145 1.387 . S
C1146 C1149 1.387 . S
H1147 C1143 0.950 . S
H1148 C1145 0.950 . S
C1149 C1140 1.390 . S
C1149 H1142 0.950 . S
C1149 C1146 1.387 . S
C1150 C1151 1.387 . S
C1150 H1154 0.950 . S
C1150 C1159 1.390 . S
C1151 C1150 1.387 . S
C1151 C1153 1.387 . S
H1152 C1159 0.950 1_565 S
C1153 C1151 1.387 . S
C1153 C1155 1.390 . S
C1153 H1157 0.950 . S
H1154 C1150 0.950 . S
C1155 C1153 1.390 . S
C1155 C1156 1.387 . S
C1155 H1158 0.950 . S
C1156 C1155 1.387 . S
C1156 C1159 1.387 . S
H1157 C1153 0.950 . S
H1158 C1155 0.950 . S
C1159 C1150 1.390 . S
C1159 H1152 0.950 1_545 S
C1159 C1156 1.387 . S
C1160 C1161 1.387 . S
C1160 H1164 0.950 . S
C1160 C1169 1.390 1_655 S
C1161 C1160 1.387 . S
C1161 C1163 1.387 . S
H1162 C1169 0.950 . S
C1163 C1161 1.387 . S
C1163 C1165 1.390 . S
C1163 H1167 0.950 . S
H1164 C1160 0.950 . S
C1165 C1163 1.390 . S
C1165 C1166 1.387 . S
C1165 H1168 0.950 . S
C1166 C1165 1.387 . S
C1166 C1169 1.387 1_655 S
H1167 C1163 0.950 . S
H1168 C1165 0.950 . S
C1169 C1160 1.390 1_455 S
C1169 H1162 0.950 . S
C1169 C1166 1.387 1_455 S
C1170 C1171 1.387 . S
C1170 H1174 0.950 . S
C1170 C1179 1.390 . S
C1171 C1170 1.387 . S
C1171 C1173 1.387 . S
H1172 C1179 0.950 . S
C1173 C1171 1.387 . S
C1173 C1175 1.390 . S
C1173 H1177 0.950 . S
H1174 C1170 0.950 . S
C1175 C1173 1.390 . S
C1175 C1176 1.387 . S
C1175 H1178 0.950 . S
C1176 C1175 1.387 . S
C1176 C1179 1.387 . S
H1177 C1173 0.950 . S
H1178 C1175 0.950 . S
C1179 C1170 1.390 . S
C1179 H1172 0.950 . S
C1179 C1176 1.387 . S
C1180 C1181 1.387 . S
C1180 H1184 0.950 . S
C1180 C1189 1.390 . S
C1181 C1180 1.387 . S
C1181 C1183 1.387 . S
H1182 C1189 0.950 . S
C1183 C1181 1.387 . S
C1183 C1185 1.390 . S
C1183 H1187 0.950 . S
H1184 C1180 0.950 . S
C1185 C1183 1.390 . S
C1185 C1186 1.387 . S
C1185 H1188 0.950 . S
C1186 C1185 1.387 . S
C1186 C1189 1.387 . S
H1187 C1183 0.950 . S
H1188 C1185 0.950 . S
C1189 C1180 1.390 . S
C1189 H1182 0.950 . S
C1189 C1186 1.387 . S
C1190 C1191 1.387 . S
C1190 H1194 0.950 . S
C1190 C1199 1.390 . S
C1191 C1190 1.387 . S
C1191 C1193 1.387 . S
H1192 C1199 0.950 . S
C1193 C1191 1.387 . S
C1193 C1195 1.390 . S
C1193 H1197 0.950 . S
H1194 C1190 0.950 . S
C1195 C1193 1.390 . S
C1195 C1196 1.387 . S
C1195 H1198 0.950 . S
C1196 C1195 1.387 . S
C1196 C1199 1.387 . S
H1197 C1193 0.950 . S
H1198 C1195 0.950 . S
C1199 C1190 1.390 . S
C1199 H1192 0.950 . S
C1199 C1196 1.387 . S
C1200 C1201 1.387 . S
C1200 H1204 0.950 . S
C1200 C1209 1.390 1_655 S
C1201 C1200 1.387 . S
C1201 C1203 1.387 . S
H1202 C1209 0.950 . S
C1203 C1201 1.387 . S
C1203 C1205 1.390 1_655 S
C1203 H1207 0.950 . S
H1204 C1200 0.950 . S
C1205 C1203 1.390 1_455 S
C1205 C1206 1.387 . S
C1205 H1208 0.950 . S
C1206 C1205 1.387 . S
C1206 C1209 1.387 . S
H1207 C1203 0.950 . S
H1208 C1205 0.950 . S
C1209 C1200 1.390 1_455 S
C1209 H1202 0.950 . S
C1209 C1206 1.387 . S
C1210 C1211 1.387 . S
C1210 H1214 0.950 . S
C1210 C1219 1.390 . S
C1211 C1210 1.387 . S
C1211 C1213 1.387 . S
H1212 C1219 0.950 . S
C1213 C1211 1.387 . S
C1213 C1215 1.390 . S
C1213 H1217 0.950 . S
H1214 C1210 0.950 . S
C1215 C1213 1.390 . S
C1215 C1216 1.387 . S
C1215 H1218 0.950 . S
C1216 C1215 1.387 . S
C1216 C1219 1.387 . S
H1217 C1213 0.950 . S
H1218 C1215 0.950 . S
C1219 C1210 1.390 . S
C1219 H1212 0.950 . S
C1219 C1216 1.387 . S
C1220 C1221 1.387 . S
C1220 H1224 0.950 . S
C1220 C1229 1.390 1_565 S
C1221 C1220 1.387 . S
C1221 C1223 1.387 . S
H1222 C1229 0.950 . S
C1223 C1221 1.387 . S
C1223 C1225 1.390 1_565 S
C1223 H1227 0.950 . S
H1224 C1220 0.950 . S
C1225 C1223 1.390 1_545 S
C1225 C1226 1.387 . S
C1225 H1228 0.950 . S
C1226 C1225 1.387 . S
C1226 C1229 1.387 . S
H1227 C1223 0.950 . S
H1228 C1225 0.950 . S
C1229 C1220 1.390 1_545 S
C1229 H1222 0.950 . S
C1229 C1226 1.387 . S
C1230 C1231 1.387 . S
C1230 H1234 0.950 . S
C1230 C1239 1.390 . S
C1231 C1230 1.387 . S
C1231 C1233 1.387 . S
H1232 C1239 0.948 1_655 S
C1233 C1231 1.387 . S
C1233 C1235 1.390 . S
C1233 H1237 0.950 . S
H1234 C1230 0.950 . S
C1235 C1233 1.390 . S
C1235 C1236 1.387 . S
C1235 H1238 0.950 . S
C1236 C1235 1.387 . S
C1236 C1239 1.389 . S
H1237 C1233 0.950 . S
H1238 C1235 0.950 . S
C1239 C1230 1.390 . S
C1239 H1232 0.948 1_455 S
C1239 C1236 1.389 . S
C1240 C1241 1.387 . S
C1240 H1244 0.950 . S
C1240 C1249 1.390 . S
C1241 C1240 1.387 . S
C1241 C1243 1.387 . S
H1242 C1249 0.950 . S
C1243 C1241 1.387 . S
C1243 C1245 1.390 . S
C1243 H1247 0.950 . S
H1244 C1240 0.950 . S
C1245 C1243 1.390 . S
C1245 C1246 1.387 . S
C1245 H1248 0.950 . S
C1246 C1245 1.387 . S
C1246 C1249 1.387 . S
H1247 C1243 0.950 . S
H1248 C1245 0.950 . S
C1249 C1240 1.390 . S
C1249 H1242 0.950 . S
C1249 C1246 1.387 . S
C1250 C1251 1.387 . S
C1250 H1254 0.950 . S
C1250 C1259 1.390 . S
C1251 C1250 1.387 . S
C1251 C1253 1.387 . S
H1252 C1259 0.950 . S
C1253 C1251 1.387 . S
C1253 C1255 1.390 . S
C1253 H1257 0.950 . S
H1254 C1250 0.950 . S
C1255 C1253 1.390 . S
C1255 C1256 1.387 . S
C1255 H1258 0.950 . S
C1256 C1255 1.387 . S
C1256 C1259 1.387 . S
H1257 C1253 0.950 . S
H1258 C1255 0.950 . S
C1259 C1250 1.390 . S
C1259 H1252 0.950 . S
C1259 C1256 1.387 . S
C1260 C1261 1.387 . S
C1260 H1264 0.950 . S
C1260 C1269 1.390 . S
C1261 C1260 1.387 . S
C1261 C1263 1.387 . S
H1262 C1269 0.950 . S
C1263 C1261 1.387 . S
C1263 C1265 1.390 . S
C1263 H1267 0.950 . S
H1264 C1260 0.950 . S
C1265 C1263 1.390 . S
C1265 C1266 1.387 . S
C1265 H1268 0.950 . S
C1266 C1265 1.387 . S
C1266 C1269 1.387 . S
H1267 C1263 0.950 . S
H1268 C1265 0.950 . S
C1269 C1260 1.390 . S
C1269 H1262 0.950 . S
C1269 C1266 1.387 . S
C1270 C1271 1.387 . S
C1270 H1274 0.950 . S
C1270 C1279 1.390 . S
C1271 C1270 1.387 . S
C1271 C1273 1.387 . S
H1272 C1279 0.950 . S
C1273 C1271 1.387 . S
C1273 C1275 1.390 . S
C1273 H1277 0.950 . S
H1274 C1270 0.950 . S
C1275 C1273 1.390 . S
C1275 C1276 1.387 . S
C1275 H1278 0.950 . S
C1276 C1275 1.387 . S
C1276 C1279 1.387 . S
H1277 C1273 0.950 . S
H1278 C1275 0.950 . S
C1279 C1270 1.390 . S
C1279 H1272 0.950 . S
C1279 C1276 1.387 . S
C1280 C1281 1.387 . S
C1280 H1284 0.950 . S
C1280 C1289 1.390 . S
C1281 C1280 1.387 . S
C1281 C1283 1.387 . S
H1282 C1289 0.950 . S
C1283 C1281 1.387 . S
C1283 C1285 1.390 . S
C1283 H1287 0.950 . S
H1284 C1280 0.950 . S
C1285 C1283 1.390 . S
C1285 C1286 1.387 . S
C1285 H1288 0.950 . S
C1286 C1285 1.387 . S
C1286 C1289 1.387 . S
H1287 C1283 0.950 . S
H1288 C1285 0.950 . S
C1289 C1280 1.390 . S
C1289 H1282 0.950 . S
C1289 C1286 1.387 . S
C1290 C1291 1.381 1_554 S
C1290 H1294 0.950 . S
C1290 C1299 1.390 1_565 S
C1291 C1290 1.381 1_556 S
C1291 C1293 1.395 . S
H1292 C1299 0.950 . S
C1293 C1291 1.395 . S
C1293 C1295 1.390 1_565 S
C1293 H1297 0.950 . S
H1294 C1290 0.950 . S
C1295 C1293 1.390 1_545 S
C1295 C1296 1.387 . S
C1295 H1298 0.950 . S
C1296 C1295 1.387 . S
C1296 C1299 1.387 1_556 S
H1297 C1293 0.950 . S
H1298 C1295 0.950 . S
C1299 C1290 1.390 1_545 S
C1299 H1292 0.950 . S
C1299 C1296 1.387 1_554 S
C1300 C1301 1.379 1_554 S
C1300 H1304 0.950 . S
C1300 C1309 1.390 1_455 S
C1301 C1300 1.379 1_556 S
C1301 C1303 1.397 . S
H1302 C1309 0.950 . S
C1303 C1301 1.397 . S
C1303 C1305 1.390 1_455 S
C1303 H1307 0.950 . S
H1304 C1300 0.950 . S
C1305 C1303 1.390 1_655 S
C1305 C1306 1.387 . S
C1305 H1308 0.950 . S
C1306 C1305 1.387 . S
C1306 C1309 1.387 1_556 S
H1307 C1303 0.950 . S
H1308 C1305 0.950 . S
C1309 C1300 1.390 1_655 S
C1309 H1302 0.950 . S
C1309 C1306 1.387 1_554 S
C1310 C1311 1.387 1_554 S
C1310 H1314 0.950 . S
C1310 C1319 1.390 . S
C1311 C1310 1.387 1_556 S
C1311 C1313 1.387 . S
H1312 C1319 0.950 . S
C1313 C1311 1.387 . S
C1313 C1315 1.390 . S
C1313 H1317 0.950 . S
H1314 C1310 0.950 . S
C1315 C1313 1.390 . S
C1315 C1316 1.411 . S
C1315 H1318 0.950 . S
C1316 C1315 1.411 . S
C1316 C1319 1.366 1_556 S
H1317 C1313 0.950 . S
H1318 C1315 0.950 . S
C1319 C1310 1.390 . S
C1319 H1312 0.950 . S
C1319 C1316 1.366 1_554 S
C1320 C1321 1.387 . S
C1320 H1324 0.950 . S
C1320 C1329 1.390 . S
C1321 C1320 1.387 . S
C1321 C1323 1.387 . S
H1322 C1329 0.950 . S
C1323 C1321 1.387 . S
C1323 C1325 1.390 . S
C1323 H1327 0.950 . S
H1324 C1320 0.950 . S
C1325 C1323 1.390 . S
C1325 C1326 1.387 . S
C1325 H1328 0.950 . S
C1326 C1325 1.387 . S
C1326 C1329 1.387 . S
H1327 C1323 0.950 . S
H1328 C1325 0.950 . S
C1329 C1320 1.390 . S
C1329 H1322 0.950 . S
C1329 C1326 1.387 . S
C1330 C1331 1.387 . S
C1330 H1334 0.950 . S
C1330 C1339 1.390 . S
C1331 C1330 1.387 . S
C1331 C1333 1.387 . S
H1332 C1339 0.950 . S
C1333 C1331 1.387 . S
C1333 C1335 1.390 . S
C1333 H1337 0.950 . S
H1334 C1330 0.950 . S
C1335 C1333 1.390 . S
C1335 C1336 1.387 . S
C1335 H1338 0.950 . S
C1336 C1335 1.387 . S
C1336 C1339 1.387 . S
H1337 C1333 0.950 . S
H1338 C1335 0.950 . S
C1339 C1330 1.390 . S
C1339 H1332 0.950 . S
C1339 C1336 1.387 . S
C1340 C1341 1.387 . S
C1340 H1344 0.950 . S
C1340 C1349 1.390 . S
C1341 C1340 1.387 . S
C1341 C1343 1.387 . S
H1342 C1349 0.950 . S
C1343 C1341 1.387 . S
C1343 C1345 1.390 . S
C1343 H1347 0.950 . S
H1344 C1340 0.950 . S
C1345 C1343 1.390 . S
C1345 C1346 1.387 . S
C1345 H1348 0.950 . S
C1346 C1345 1.387 . S
C1346 C1349 1.387 . S
H1347 C1343 0.950 . S
H1348 C1345 0.950 . S
C1349 C1340 1.390 . S
C1349 H1342 0.950 . S
C1349 C1346 1.387 . S
C1350 C1351 1.387 . S
C1350 H1354 0.950 . S
C1350 C1359 1.390 1_565 S
C1351 C1350 1.387 . S
C1351 C1353 1.387 1_554 S
H1352 C1359 0.950 . S
C1353 C1351 1.387 1_556 S
C1353 C1355 1.390 1_565 S
C1353 H1357 0.950 . S
H1354 C1350 0.950 . S
C1355 C1353 1.390 1_545 S
C1355 C1356 1.366 1_556 S
C1355 H1358 0.950 . S
C1356 C1355 1.366 1_554 S
C1356 C1359 1.411 . S
H1357 C1353 0.950 . S
H1358 C1355 0.950 . S
C1359 C1350 1.390 1_545 S
C1359 H1352 0.950 . S
C1359 C1356 1.411 . S
C1360 C1361 1.380 1_556 S
C1360 H1364 0.950 . S
C1360 C1369 1.390 1_655 S
C1361 C1360 1.380 1_554 S
C1361 C1363 1.396 . S
H1362 C1369 0.950 . S
C1363 C1361 1.396 . S
C1363 C1365 1.390 1_655 S
C1363 H1367 0.950 . S
H1364 C1360 0.950 . S
C1365 C1363 1.390 1_455 S
C1365 C1366 1.387 . S
C1365 H1368 0.950 . S
C1366 C1365 1.387 . S
C1366 C1369 1.387 1_554 S
H1367 C1363 0.950 . S
H1368 C1365 0.950 . S
C1369 C1360 1.390 1_455 S
C1369 H1362 0.950 . S
C1369 C1366 1.387 1_556 S
C1370 C1371 1.387 1_556 S
C1370 H1374 0.950 . S
C1370 C1379 1.390 . S
C1371 C1370 1.387 1_554 S
C1371 C1373 1.387 . S
H1372 C1379 0.950 . S
C1373 C1371 1.387 . S
C1373 C1375 1.390 . S
C1373 H1377 0.950 . S
H1374 C1370 0.950 . S
C1375 C1373 1.390 . S
C1375 C1376 1.412 . S
C1375 H1378 0.950 . S
C1376 C1375 1.412 . S
C1376 C1379 1.366 1_554 S
H1377 C1373 0.950 . S
H1378 C1375 0.950 . S
C1379 C1370 1.390 . S
C1379 H1372 0.950 . S
C1379 C1376 1.366 1_556 S
C1380 C1381 1.387 . S
C1380 H1384 0.950 . S
C1380 C1389 1.390 1_455 S
C1381 C1380 1.387 . S
C1381 C1383 1.387 . S
H1382 C1389 0.950 . S
C1383 C1381 1.387 . S
C1383 C1385 1.390 1_455 S
C1383 H1387 0.950 . S
H1384 C1380 0.950 . S
C1385 C1383 1.390 1_655 S
C1385 C1386 1.387 . S
C1385 H1388 0.950 . S
C1386 C1385 1.387 . S
C1386 C1389 1.387 . S
H1387 C1383 0.950 . S
H1388 C1385 0.950 . S
C1389 C1380 1.390 1_655 S
C1389 H1382 0.950 . S
C1389 C1386 1.387 . S
C1390 C1391 1.387 . S
C1390 H1394 0.950 . S
C1390 C1399 1.390 . S
C1391 C1390 1.387 . S
C1391 C1393 1.387 . S
H1392 C1399 0.950 . S
C1393 C1391 1.387 . S
C1393 C1395 1.390 . S
C1393 H1397 0.950 . S
H1394 C1390 0.950 . S
C1395 C1393 1.390 . S
C1395 C1396 1.387 . S
C1395 H1398 0.950 . S
C1396 C1395 1.387 . S
C1396 C1399 1.387 . S
H1397 C1393 0.950 . S
H1398 C1395 0.950 . S
C1399 C1390 1.390 . S
C1399 H1392 0.950 . S
C1399 C1396 1.387 . S
C1400 C1401 1.387 . S
C1400 H1404 0.950 . S
C1400 C1409 1.390 1_565 S
C1401 C1400 1.387 . S
C1401 C1403 1.387 . S
H1402 C1409 0.950 . S
C1403 C1401 1.387 . S
C1403 C1405 1.390 1_565 S
C1403 H1407 0.950 . S
H1404 C1400 0.950 . S
C1405 C1403 1.390 1_545 S
C1405 C1406 1.387 . S
C1405 H1408 0.950 . S
C1406 C1405 1.387 . S
C1406 C1409 1.387 . S
H1407 C1403 0.950 . S
H1408 C1405 0.950 . S
C1409 C1400 1.390 1_545 S
C1409 H1402 0.950 . S
C1409 C1406 1.387 . S
C1410 C1411 1.387 . S
C1410 H1414 0.950 . S
C1410 C1419 1.390 . S
C1411 C1410 1.387 . S
C1411 C1413 1.387 . S
H1412 C1419 0.950 . S
C1413 C1411 1.387 . S
C1413 C1415 1.390 . S
C1413 H1417 0.950 . S
H1414 C1410 0.950 . S
C1415 C1413 1.390 . S
C1415 C1416 1.387 . S
C1415 H1418 0.950 . S
C1416 C1415 1.387 . S
C1416 C1419 1.387 . S
H1417 C1413 0.950 . S
H1418 C1415 0.950 . S
C1419 C1410 1.390 . S
C1419 H1412 0.950 . S
C1419 C1416 1.387 . S
C1420 C1421 1.387 . S
C1420 H1424 0.950 . S
C1420 C1429 1.390 . S
C1421 C1420 1.387 . S
C1421 C1423 1.387 . S
H1422 C1429 0.950 . S
C1423 C1421 1.387 . S
C1423 C1425 1.390 . S
C1423 H1427 0.950 . S
H1424 C1420 0.950 . S
C1425 C1423 1.390 . S
C1425 C1426 1.387 . S
C1425 H1428 0.950 . S
C1426 C1425 1.387 . S
C1426 C1429 1.387 . S
H1427 C1423 0.950 . S
H1428 C1425 0.950 . S
C1429 C1420 1.390 . S
C1429 H1422 0.950 . S
C1429 C1426 1.387 . S
C1430 C1431 1.387 . S
C1430 H1434 0.950 . S
C1430 C1439 1.390 . S
C1431 C1430 1.387 . S
C1431 C1433 1.387 . S
H1432 C1439 0.950 . S
C1433 C1431 1.387 . S
C1433 C1435 1.390 . S
C1433 H1437 0.950 . S
H1434 C1430 0.950 . S
C1435 C1433 1.390 . S
C1435 C1436 1.387 . S
C1435 H1438 0.950 . S
C1436 C1435 1.387 . S
C1436 C1439 1.387 . S
H1437 C1433 0.950 . S
H1438 C1435 0.950 . S
C1439 C1430 1.390 . S
C1439 H1432 0.950 . S
C1439 C1436 1.387 . S
C1440 C1441 1.387 . S
C1440 H1444 0.950 . S
C1440 C1449 1.390 . S
C1441 C1440 1.387 . S
C1441 C1443 1.387 . S
H1442 C1449 0.950 . S
C1443 C1441 1.387 . S
C1443 C1445 1.390 . S
C1443 H1447 0.950 . S
H1444 C1440 0.950 . S
C1445 C1443 1.390 . S
C1445 C1446 1.387 . S
C1445 H1448 0.950 . S
C1446 C1445 1.387 . S
C1446 C1449 1.387 . S
H1447 C1443 0.950 . S
H1448 C1445 0.950 . S
C1449 C1440 1.390 . S
C1449 H1442 0.950 . S
C1449 C1446 1.387 . S
C1450 C1451 1.387 . S
C1450 H1454 0.950 . S
C1450 C1459 1.390 . S
C1451 C1450 1.387 . S
C1451 C1453 1.387 . S
H1452 C1459 0.950 . S
C1453 C1451 1.387 . S
C1453 C1455 1.390 . S
C1453 H1457 0.950 . S
H1454 C1450 0.950 . S
C1455 C1453 1.390 . S
C1455 C1456 1.387 . S
C1455 H1458 0.950 . S
C1456 C1455 1.387 . S
C1456 C1459 1.387 . S
H1457 C1453 0.950 . S
H1458 C1455 0.950 . S
C1459 C1450 1.390 . S
C1459 H1452 0.950 . S
C1459 C1456 1.387 . S
C1460 C1461 1.387 . S
C1460 H1464 0.950 . S
C1460 C1469 1.390 . S
C1461 C1460 1.387 . S
C1461 C1463 1.387 . S
H1462 C1469 0.950 . S
C1463 C1461 1.387 . S
C1463 C1465 1.390 . S
C1463 H1467 0.950 . S
H1464 C1460 0.950 . S
C1465 C1463 1.390 . S
C1465 C1466 1.387 . S
C1465 H1468 0.950 . S
C1466 C1465 1.387 . S
C1466 C1469 1.387 . S
H1467 C1463 0.950 . S
H1468 C1465 0.950 . S
C1469 C1460 1.390 . S
C1469 H1462 0.950 . S
C1469 C1466 1.387 . S
C1470 C1471 1.387 . S
C1470 H1474 0.950 . S
C1470 C1479 1.390 . S
C1471 C1470 1.387 . S
C1471 C1473 1.387 . S
H1472 C1479 0.950 . S
C1473 C1471 1.387 . S
C1473 C1475 1.390 . S
C1473 H1477 0.950 . S
H1474 C1470 0.950 . S
C1475 C1473 1.390 . S
C1475 C1476 1.387 . S
C1475 H1478 0.950 . S
C1476 C1475 1.387 . S
C1476 C1479 1.387 . S
H1477 C1473 0.950 . S
H1478 C1475 0.950 . S
C1479 C1470 1.390 . S
C1479 H1472 0.950 . S
C1479 C1476 1.387 . S
C1480 C1481 1.387 . S
C1480 H1484 0.950 . S
C1480 C1489 1.390 . S
C1481 C1480 1.387 . S
C1481 C1483 1.387 . S
H1482 C1489 0.950 . S
C1483 C1481 1.387 . S
C1483 C1485 1.390 . S
C1483 H1487 0.950 . S
H1484 C1480 0.950 . S
C1485 C1483 1.390 . S
C1485 C1486 1.387 . S
C1485 H1488 0.950 . S
C1486 C1485 1.387 . S
C1486 C1489 1.387 . S
H1487 C1483 0.950 . S
H1488 C1485 0.950 . S
C1489 C1480 1.390 . S
C1489 H1482 0.950 . S
C1489 C1486 1.387 . S
C1490 C1491 1.387 . S
C1490 H1494 0.950 . S
C1490 C1499 1.390 . S
C1491 C1490 1.387 . S
C1491 C1493 1.387 . S
H1492 C1499 0.950 . S
C1493 C1491 1.387 . S
C1493 C1495 1.390 . S
C1493 H1497 0.950 . S
H1494 C1490 0.950 . S
C1495 C1493 1.390 . S
C1495 C1496 1.387 . S
C1495 H1498 0.950 . S
C1496 C1495 1.387 . S
C1496 C1499 1.387 . S
H1497 C1493 0.950 . S
H1498 C1495 0.950 . S
C1499 C1490 1.390 . S
C1499 H1492 0.950 . S
C1499 C1496 1.387 . S
C1500 C1501 1.387 . S
C1500 H1504 0.950 . S
C1500 C1509 1.390 . S
C1501 C1500 1.387 . S
C1501 C1503 1.387 . S
H1502 C1509 0.950 . S
C1503 C1501 1.387 . S
C1503 C1505 1.390 . S
C1503 H1507 0.950 . S
H1504 C1500 0.950 . S
C1505 C1503 1.390 . S
C1505 C1506 1.387 . S
C1505 H1508 0.950 . S
C1506 C1505 1.387 . S
C1506 C1509 1.387 . S
H1507 C1503 0.950 . S
H1508 C1505 0.950 . S
C1509 C1500 1.390 . S
C1509 H1502 0.950 . S
C1509 C1506 1.387 . S
C1510 C1511 1.387 . S
C1510 H1514 0.950 . S
C1510 C1519 1.390 . S
C1511 C1510 1.387 . S
C1511 C1513 1.387 . S
H1512 C1519 0.950 . S
C1513 C1511 1.387 . S
C1513 C1515 1.390 . S
C1513 H1517 0.950 . S
H1514 C1510 0.950 . S
C1515 C1513 1.390 . S
C1515 C1516 1.387 . S
C1515 H1518 0.950 . S
C1516 C1515 1.387 . S
C1516 C1519 1.387 . S
H1517 C1513 0.950 . S
H1518 C1515 0.950 . S
C1519 C1510 1.390 . S
C1519 H1512 0.950 . S
C1519 C1516 1.387 . S
C1520 C1521 1.387 . S
C1520 H1524 0.950 . S
C1520 C1529 1.390 . S
C1521 C1520 1.387 . S
C1521 C1523 1.387 . S
H1522 C1529 0.950 . S
C1523 C1521 1.387 . S
C1523 C1525 1.390 . S
C1523 H1527 0.950 . S
H1524 C1520 0.950 . S
C1525 C1523 1.390 . S
C1525 C1526 1.387 . S
C1525 H1528 0.950 . S
C1526 C1525 1.387 . S
C1526 C1529 1.387 . S
H1527 C1523 0.950 . S
H1528 C1525 0.950 . S
C1529 C1520 1.390 . S
C1529 H1522 0.950 . S
C1529 C1526 1.387 . S
C1530 C1531 1.387 . S
C1530 H1534 0.950 . S
C1530 C1539 1.390 . S
C1531 C1530 1.387 . S
C1531 C1533 1.387 . S
H1532 C1539 0.950 . S
C1533 C1531 1.387 . S
C1533 C1535 1.390 . S
C1533 H1537 0.950 . S
H1534 C1530 0.950 . S
C1535 C1533 1.390 . S
C1535 C1536 1.387 . S
C1535 H1538 0.950 . S
C1536 C1535 1.387 . S
C1536 C1539 1.387 . S
H1537 C1533 0.950 . S
H1538 C1535 0.950 . S
C1539 C1530 1.390 . S
C1539 H1532 0.950 . S
C1539 C1536 1.387 . S
C1540 C1541 1.387 . S
C1540 H1544 0.950 . S
C1540 C1549 1.390 . S
C1541 C1540 1.387 . S
C1541 C1543 1.387 . S
H1542 C1549 0.950 . S
C1543 C1541 1.387 . S
C1543 C1545 1.390 . S
C1543 H1547 0.950 . S
H1544 C1540 0.950 . S
C1545 C1543 1.390 . S
C1545 C1546 1.387 . S
C1545 H1548 0.950 . S
C1546 C1545 1.387 . S
C1546 C1549 1.387 . S
H1547 C1543 0.950 . S
H1548 C1545 0.950 . S
C1549 C1540 1.390 . S
C1549 H1542 0.950 . S
C1549 C1546 1.387 . S
C1550 C1551 1.387 . S
C1550 H1554 0.950 . S
C1550 C1559 1.390 . S
C1551 C1550 1.387 . S
C1551 C1553 1.387 . S
H1552 C1559 0.950 . S
C1553 C1551 1.387 . S
C1553 C1555 1.390 . S
C1553 H1557 0.950 . S
H1554 C1550 0.950 . S
C1555 C1553 1.390 . S
C1555 C1556 1.387 . S
C1555 H1558 0.950 . S
C1556 C1555 1.387 . S
C1556 C1559 1.387 . S
H1557 C1553 0.950 . S
H1558 C1555 0.950 . S
C1559 C1550 1.390 . S
C1559 H1552 0.950 . S
C1559 C1556 1.387 . S
C1560 C1561 1.387 1_455 S
C1560 H1564 0.950 . S
C1560 C1569 1.390 . S
C1561 C1560 1.387 1_655 S
C1561 C1563 1.387 . S
H1562 C1569 0.950 . S
C1563 C1561 1.387 . S
C1563 C1565 1.390 . S
C1563 H1567 0.950 . S
H1564 C1560 0.950 . S
C1565 C1563 1.390 . S
C1565 C1566 1.387 1_655 S
C1565 H1568 0.950 . S
C1566 C1565 1.387 1_455 S
C1566 C1569 1.387 . S
H1567 C1563 0.950 . S
H1568 C1565 0.950 . S
C1569 C1560 1.390 . S
C1569 H1562 0.950 . S
C1569 C1566 1.387 . S
C1570 C1571 1.387 . S
C1570 H1574 0.950 . S
C1570 C1579 1.390 . S
C1571 C1570 1.387 . S
C1571 C1573 1.387 . S
H1572 C1579 0.950 . S
C1573 C1571 1.387 . S
C1573 C1575 1.390 . S
C1573 H1577 0.950 . S
H1574 C1570 0.950 . S
C1575 C1573 1.390 . S
C1575 C1576 1.387 . S
C1575 H1578 0.950 . S
C1576 C1575 1.387 . S
C1576 C1579 1.387 . S
H1577 C1573 0.950 . S
H1578 C1575 0.950 . S
C1579 C1570 1.390 . S
C1579 H1572 0.950 . S
C1579 C1576 1.387 . S
C1580 C1581 1.387 1_565 S
C1580 H1584 0.955 . S
C1580 C1589 1.390 . S
C1581 C1580 1.387 1_545 S
C1581 C1583 1.387 . S
H1582 C1589 0.950 . S
C1583 C1581 1.387 . S
C1583 C1585 1.390 1_545 S
C1583 H1587 0.950 . S
H1584 C1580 0.955 . S
C1585 C1583 1.390 1_565 S
C1585 C1586 1.387 . S
C1585 H1588 0.950 . S
C1586 C1585 1.387 . S
C1586 C1589 1.387 . S
H1587 C1583 0.950 . S
H1588 C1585 0.950 . S
C1589 C1580 1.390 . S
C1589 H1582 0.950 . S
C1589 C1586 1.387 . S
C1590 C1591 1.387 . S
C1590 H1594 0.950 . S
C1590 C1599 1.390 1_545 S
C1591 C1590 1.387 . S
C1591 C1593 1.387 . S
H1592 C1599 0.950 . S
C1593 C1591 1.387 . S
C1593 C1595 1.390 1_545 S
C1593 H1597 0.950 . S
H1594 C1590 0.950 . S
C1595 C1593 1.390 1_565 S
C1595 C1596 1.387 . S
C1595 H1598 0.950 . S
C1596 C1595 1.387 . S
C1596 C1599 1.387 . S
H1597 C1593 0.950 . S
H1598 C1595 0.950 . S
C1599 C1590 1.390 1_565 S
C1599 H1592 0.950 . S
C1599 C1596 1.387 . S
C1600 C1601 1.387 . S
C1600 H1604 0.950 . S
C1600 C1609 1.390 . S
C1601 C1600 1.387 . S
C1601 C1603 1.387 1_455 S
H1602 C1609 0.950 . S
C1603 C1601 1.387 1_655 S
C1603 C1605 1.390 . S
C1603 H1607 0.950 . S
H1604 C1600 0.950 . S
C1605 C1603 1.390 . S
C1605 C1606 1.387 . S
C1605 H1608 0.950 . S
C1606 C1605 1.387 . S
C1606 C1609 1.387 1_655 S
H1607 C1603 0.950 . S
H1608 C1605 0.950 . S
C1609 C1600 1.390 . S
C1609 H1602 0.950 . S
C1609 C1606 1.387 1_455 S
C1610 C1611 1.387 . S
C1610 H1614 0.950 . S
C1610 C1619 1.390 . S
C1611 C1610 1.387 . S
C1611 C1613 1.387 . S
H1612 C1619 0.950 . S
C1613 C1611 1.387 . S
C1613 C1615 1.390 . S
C1613 H1617 0.950 . S
H1614 C1610 0.950 . S
C1615 C1613 1.390 . S
C1615 C1616 1.387 . S
C1615 H1618 0.950 . S
C1616 C1615 1.387 . S
C1616 C1619 1.387 . S
H1617 C1613 0.950 . S
H1618 C1615 0.950 . S
C1619 C1610 1.390 . S
C1619 H1612 0.950 . S
C1619 C1616 1.387 . S
C1620 C1621 1.387 . S
C1620 H1624 0.950 . S
C1620 C1629 1.390 1_655 S
C1621 C1620 1.387 . S
C1621 C1623 1.387 . S
H1622 C1629 0.950 . S
C1623 C1621 1.387 . S
C1623 C1625 1.390 1_655 S
C1623 H1627 0.950 . S
H1624 C1620 0.950 . S
C1625 C1623 1.390 1_455 S
C1625 C1626 1.387 . S
C1625 H1628 0.950 . S
C1626 C1625 1.387 . S
C1626 C1629 1.387 . S
H1627 C1623 0.950 . S
H1628 C1625 0.950 . S
C1629 C1620 1.390 1_455 S
C1629 H1622 0.950 . S
C1629 C1626 1.387 . S
C1630 C1631 1.387 . S
C1630 H1634 0.950 . S
C1630 C1639 1.390 . S
C1631 C1630 1.387 . S
C1631 C1633 1.387 . S
H1632 C1639 0.950 . S
C1633 C1631 1.387 . S
C1633 C1635 1.390 . S
C1633 H1637 0.950 . S
H1634 C1630 0.950 . S
C1635 C1633 1.390 . S
C1635 C1636 1.387 . S
C1635 H1638 0.950 . S
C1636 C1635 1.387 . S
C1636 C1639 1.387 . S
H1637 C1633 0.950 . S
H1638 C1635 0.950 . S
C1639 C1630 1.390 . S
C1639 H1632 0.950 . S
C1639 C1636 1.387 . S
C1640 C1641 1.387 . S
C1640 H1644 0.950 . S
C1640 C1649 1.390 1_545 S
C1641 C1640 1.387 . S
C1641 C1643 1.387 . S
H1642 C1649 0.950 . S
C1643 C1641 1.387 . S
C1643 C1645 1.390 1_545 S
C1643 H1647 0.950 . S
H1644 C1640 0.950 . S
C1645 C1643 1.390 1_565 S
C1645 C1646 1.387 . S
C1645 H1648 0.950 . S
C1646 C1645 1.387 . S
C1646 C1649 1.387 . S
H1647 C1643 0.950 . S
H1648 C1645 0.950 . S
C1649 C1640 1.390 1_565 S
C1649 H1642 0.950 . S
C1649 C1646 1.387 . S
C1650 C1651 1.387 1_455 S
C1650 H1654 0.950 . S
C1650 C1659 1.390 . S
C1651 C1650 1.387 1_655 S
C1651 C1653 1.387 . S
H1652 C1659 0.950 . S
C1653 C1651 1.387 . S
C1653 C1655 1.390 . S
C1653 H1657 0.950 . S
H1654 C1650 0.950 . S
C1655 C1653 1.390 . S
C1655 C1656 1.387 1_655 S
C1655 H1658 0.950 . S
C1656 C1655 1.387 1_455 S
C1656 C1659 1.387 . S
H1657 C1653 0.950 . S
H1658 C1655 0.950 . S
C1659 C1650 1.390 . S
C1659 H1652 0.950 . S
C1659 C1656 1.387 . S
C1660 C1661 1.387 . S
C1660 H1664 0.950 . S
C1660 C1669 1.390 . S
C1661 C1660 1.387 . S
C1661 C1663 1.387 . S
H1662 C1669 0.950 . S
C1663 C1661 1.387 . S
C1663 C1665 1.390 . S
C1663 H1667 0.950 . S
H1664 C1660 0.950 . S
C1665 C1663 1.390 . S
C1665 C1666 1.387 . S
C1665 H1668 0.950 . S
C1666 C1665 1.387 . S
C1666 C1669 1.387 . S
H1667 C1663 0.950 . S
H1668 C1665 0.950 . S
C1669 C1660 1.390 . S
C1669 H1662 0.950 . S
C1669 C1666 1.387 . S
C1670 C1671 1.387 . S
C1670 H1674 0.950 . S
C1670 C1679 1.390 1_545 S
C1671 C1670 1.387 . S
C1671 C1673 1.387 . S
H1672 C1679 0.950 . S
C1673 C1671 1.387 . S
C1673 C1675 1.390 1_545 S
C1673 H1677 0.950 . S
H1674 C1670 0.950 . S
C1675 C1673 1.390 1_565 S
C1675 C1676 1.387 . S
C1675 H1678 0.950 . S
C1676 C1675 1.387 . S
C1676 C1679 1.387 . S
H1677 C1673 0.950 . S
H1678 C1675 0.950 . S
C1679 C1670 1.390 1_565 S
C1679 H1672 0.950 . S
C1679 C1676 1.387 . S
C1680 C1681 1.387 . S
C1680 H1684 0.950 . S
C1680 C1689 1.390 . S
C1681 C1680 1.387 . S
C1681 C1683 1.387 . S
H1682 C1689 0.950 . S
C1683 C1681 1.387 . S
C1683 C1685 1.390 . S
C1683 H1687 0.950 . S
H1684 C1680 0.950 . S
C1685 C1683 1.390 . S
C1685 C1686 1.387 . S
C1685 H1688 0.950 . S
C1686 C1685 1.387 . S
C1686 C1689 1.387 . S
H1687 C1683 0.950 . S
H1688 C1685 0.950 . S
C1689 C1680 1.390 . S
C1689 H1682 0.950 . S
C1689 C1686 1.387 . S
C1690 C1691 1.387 . S
C1690 H1694 0.950 . S
C1690 C1699 1.390 . S
C1691 C1690 1.387 . S
C1691 C1693 1.387 . S
H1692 C1699 0.950 . S
C1693 C1691 1.387 . S
C1693 C1695 1.390 . S
C1693 H1697 0.950 . S
H1694 C1690 0.950 . S
C1695 C1693 1.390 . S
C1695 C1696 1.387 . S
C1695 H1698 0.950 . S
C1696 C1695 1.387 . S
C1696 C1699 1.387 . S
H1697 C1693 0.950 . S
H1698 C1695 0.950 . S
C1699 C1690 1.390 . S
C1699 H1692 0.950 . S
C1699 C1696 1.387 . S
C1700 C1701 1.387 . S
C1700 H1704 0.950 . S
C1700 C1709 1.390 . S
C1701 C1700 1.387 . S
C1701 C1703 1.387 . S
H1702 C1709 0.950 . S
C1703 C1701 1.387 . S
C1703 C1705 1.390 . S
C1703 H1707 0.950 . S
H1704 C1700 0.950 . S
C1705 C1703 1.390 . S
C1705 C1706 1.387 . S
C1705 H1708 0.950 . S
C1706 C1705 1.387 . S
C1706 C1709 1.387 . S
H1707 C1703 0.950 . S
H1708 C1705 0.950 . S
C1709 C1700 1.390 . S
C1709 H1702 0.950 . S
C1709 C1706 1.387 . S
C1710 C1711 1.387 . S
C1710 H1714 0.950 . S
C1710 C1719 1.390 . S
C1711 C1710 1.387 . S
C1711 C1713 1.387 . S
H1712 C1719 0.950 . S
C1713 C1711 1.387 . S
C1713 C1715 1.390 . S
C1713 H1717 0.950 . S
H1714 C1710 0.950 . S
C1715 C1713 1.390 . S
C1715 C1716 1.387 . S
C1715 H1718 0.950 . S
C1716 C1715 1.387 . S
C1716 C1719 1.387 . S
H1717 C1713 0.950 . S
H1718 C1715 0.950 . S
C1719 C1710 1.390 . S
C1719 H1712 0.950 . S
C1719 C1716 1.387 . S
C1720 C1721 1.387 . S
C1720 H1724 0.950 . S
C1720 C1729 1.390 . S
C1721 C1720 1.387 . S
C1721 C1723 1.387 . S
H1722 C1729 0.950 . S
C1723 C1721 1.387 . S
C1723 C1725 1.390 . S
C1723 H1727 0.950 . S
H1724 C1720 0.950 . S
C1725 C1723 1.390 . S
C1725 C1726 1.387 . S
C1725 H1728 0.950 . S
C1726 C1725 1.387 . S
C1726 C1729 1.387 . S
H1727 C1723 0.950 . S
H1728 C1725 0.950 . S
C1729 C1720 1.390 . S
C1729 H1722 0.950 . S
C1729 C1726 1.387 . S
C1730 C1731 1.387 . S
C1730 H1734 0.950 . S
C1730 C1739 1.390 . S
C1731 C1730 1.387 . S
C1731 C1733 1.387 . S
H1732 C1739 0.950 . S
C1733 C1731 1.387 . S
C1733 C1735 1.390 . S
C1733 H1737 0.950 . S
H1734 C1730 0.950 . S
C1735 C1733 1.390 . S
C1735 C1736 1.387 . S
C1735 H1738 0.950 . S
C1736 C1735 1.387 . S
C1736 C1739 1.387 . S
H1737 C1733 0.950 . S
H1738 C1735 0.950 . S
C1739 C1730 1.390 . S
C1739 H1732 0.950 . S
C1739 C1736 1.387 . S
C1740 C1741 1.387 . S
C1740 H1744 0.950 . S
C1740 C1749 1.390 . S
C1741 C1740 1.387 . S
C1741 C1743 1.387 . S
H1742 C1749 0.950 . S
C1743 C1741 1.387 . S
C1743 C1745 1.390 . S
C1743 H1747 0.950 . S
H1744 C1740 0.950 . S
C1745 C1743 1.390 . S
C1745 C1746 1.387 . S
C1745 H1748 0.950 . S
C1746 C1745 1.387 . S
C1746 C1749 1.387 . S
H1747 C1743 0.950 . S
H1748 C1745 0.950 . S
C1749 C1740 1.390 . S
C1749 H1742 0.950 . S
C1749 C1746 1.387 . S
C1750 C1751 1.387 . S
C1750 H1754 0.950 . S
C1750 C1759 1.390 . S
C1751 C1750 1.387 . S
C1751 C1753 1.387 . S
H1752 C1759 0.950 . S
C1753 C1751 1.387 . S
C1753 C1755 1.390 . S
C1753 H1757 0.950 . S
H1754 C1750 0.950 . S
C1755 C1753 1.390 . S
C1755 C1756 1.387 . S
C1755 H1758 0.950 . S
C1756 C1755 1.387 . S
C1756 C1759 1.387 . S
H1757 C1753 0.950 . S
H1758 C1755 0.950 . S
C1759 C1750 1.390 . S
C1759 H1752 0.950 . S
C1759 C1756 1.387 . S
C1760 C1761 1.387 . S
C1760 H1764 0.950 . S
C1760 C1769 1.390 . S
C1761 C1760 1.387 . S
C1761 C1763 1.387 . S
H1762 C1769 0.950 . S
C1763 C1761 1.387 . S
C1763 C1765 1.390 . S
C1763 H1767 0.950 . S
H1764 C1760 0.950 . S
C1765 C1763 1.390 . S
C1765 C1766 1.387 . S
C1765 H1768 0.950 . S
C1766 C1765 1.387 . S
C1766 C1769 1.387 . S
H1767 C1763 0.950 . S
H1768 C1765 0.950 . S
C1769 C1760 1.390 . S
C1769 H1762 0.950 . S
C1769 C1766 1.387 . S
C1770 C1771 1.387 . S
C1770 H1774 0.950 . S
C1770 C1779 1.390 . S
C1771 C1770 1.387 . S
C1771 C1773 1.387 . S
H1772 C1779 0.950 . S
C1773 C1771 1.387 . S
C1773 C1775 1.390 . S
C1773 H1777 0.950 . S
H1774 C1770 0.950 . S
C1775 C1773 1.390 . S
C1775 C1776 1.387 . S
C1775 H1778 0.950 . S
C1776 C1775 1.387 . S
C1776 C1779 1.387 . S
H1777 C1773 0.950 . S
H1778 C1775 0.950 . S
C1779 C1770 1.390 . S
C1779 H1772 0.950 . S
C1779 C1776 1.387 . S
C1780 C1781 1.387 . S
C1780 H1784 0.950 . S
C1780 C1789 1.390 . S
C1781 C1780 1.387 . S
C1781 C1783 1.387 . S
H1782 C1789 0.950 . S
C1783 C1781 1.387 . S
C1783 C1785 1.390 . S
C1783 H1787 0.950 . S
H1784 C1780 0.950 . S
C1785 C1783 1.390 . S
C1785 C1786 1.387 . S
C1785 H1788 0.950 . S
C1786 C1785 1.387 . S
C1786 C1789 1.387 . S
H1787 C1783 0.950 . S
H1788 C1785 0.950 . S
C1789 C1780 1.390 . S
C1789 H1782 0.950 . S
C1789 C1786 1.387 . S
C1790 C1791 1.387 . S
C1790 H1794 0.950 . S
C1790 C1799 1.390 . S
C1791 C1790 1.387 . S
C1791 C1793 1.387 . S
H1792 C1799 0.950 . S
C1793 C1791 1.387 . S
C1793 C1795 1.390 . S
C1793 H1797 0.950 . S
H1794 C1790 0.950 . S
C1795 C1793 1.390 . S
C1795 C1796 1.387 . S
C1795 H1798 0.950 . S
C1796 C1795 1.387 . S
C1796 C1799 1.387 . S
H1797 C1793 0.950 . S
H1798 C1795 0.950 . S
C1799 C1790 1.390 . S
C1799 H1792 0.950 . S
C1799 C1796 1.387 . S
C721 C8 1.502 . S
C726 C59 1.555 1_545 S
C731 C19 1.555 1_655 S
C736 C28 1.503 1_545 S
C741 C48 1.503 1_655 S
C746 C39 1.554 . S
C751 C68 1.533 . S
C756 C99 1.586 1_455 S
C761 C119 1.586 . S
C766 C88 1.534 1_565 S
C771 C108 1.534 1_455 S
C776 C79 1.586 1_565 S
C781 C129 1.500 . S
C786 C178 1.555 1_565 S
C791 C149 1.503 1_565 S
C796 C138 1.555 1_455 S
C801 C169 1.502 1_455 S
C806 C158 1.554 . S
C811 C189 1.532 . S
C816 C218 1.586 1_655 S
C821 C238 1.586 . S
C826 C209 1.532 1_545 S
C831 C198 1.586 1_545 S
C836 C229 1.532 1_655 S
C841 C299 1.582 . S
C846 C248 1.528 . S
C851 C268 1.530 . S
C856 C259 1.582 . S
C861 C279 1.582 . S
C866 C288 1.529 . S
C871 C308 1.542 . S
C876 C339 1.595 . S
C881 C359 1.595 . S
C886 C328 1.541 . S
C891 C319 1.595 . S
C896 C348 1.542 . S
C901 C369 1.520 . S
C906 C418 1.572 . S
C911 C389 1.520 . S
C916 C378 1.572 . S
C921 C398 1.572 . S
C926 C409 1.520 . S
C931 C458 1.528 . S
C936 C429 1.485 1_554 S
C941 C449 1.486 1_554 S
C946 C478 1.529 . S
C951 C438 1.529 . S
C956 C469 1.484 1_554 S
C961 C488 1.520 . S
C966 C539 1.572 . S
C971 C508 1.521 . S
C976 C499 1.572 . S
C981 C528 1.519 . S
C986 C519 1.573 . S
C991 C548 1.466 1_556 S
C996 C579 1.530 . S
C1001 C568 1.486 1_556 S
C1006 C599 1.529 . S
C1011 C588 1.486 1_556 S
C1016 C559 1.529 . S
C1021 C609 1.530 . S
C1026 C658 1.582 . S
C1031 C629 1.528 . S
C1036 C618 1.582 . S
C1041 C638 1.582 . S
C1046 C649 1.530 . S
C1051 C669 1.542 . S
C1056 C698 1.595 . S
C1061 C689 1.544 . S
C1066 C718 1.595 . S
C1071 C678 1.595 . S
C1076 C709 1.543 . S
C1081 C18 1.474 . S
C1086 C408 1.493 . S
C1091 C368 1.493 1_565 S
C1096 C38 1.471 . S
C1101 C58 1.473 . S
C1106 C388 1.493 1_455 S
C1111 C78 1.425 . S
C1116 C688 1.435 . S
C1121 C708 1.436 1_545 S
C1126 C98 1.423 . S
C1131 C118 1.423 . S
C1136 C668 1.437 1_655 S
C1141 C529 1.493 . S
C1146 C139 1.471 . S
C1151 C159 1.472 . S
C1156 C489 1.494 1_545 S
C1161 C179 1.473 . S
C1166 C509 1.493 1_655 S
C1171 C329 1.438 . S
C1176 C199 1.425 . S
C1181 C349 1.436 1_565 S
C1186 C219 1.423 . S
C1191 C309 1.436 1_455 S
C1196 C239 1.426 . S
C1201 C258 1.449 . S
C1206 C648 1.463 . S
C1211 C278 1.447 . S
C1216 C608 1.465 . S
C1221 C628 1.463 . S
C1226 C298 1.446 . S
C1231 C208 1.452 . S
C1236 C318 1.440 1_455 S
C1241 C228 1.454 . S
C1246 C338 1.439 . S
C1251 C188 1.453 . S
C1256 C358 1.439 1_565 S
C1261 C49 1.490 . S
C1266 C379 1.470 1_565 S
C1271 C399 1.467 1_455 S
C1276 C9 1.490 . S
C1281 C419 1.469 . S
C1286 C29 1.488 . S
C1291 C569 1.453 . S
C1296 C439 1.449 . S
C1301 C589 1.453 . S
C1306 C459 1.449 . S
C1311 C479 1.450 . S
C1316 C549 1.454 . S
C1321 C168 1.490 . S
C1326 C498 1.467 1_545 S
C1331 C128 1.489 . S
C1336 C518 1.470 1_655 S
C1341 C148 1.488 . S
C1346 C538 1.468 . S
C1351 C558 1.450 . S
C1356 C448 1.454 . S
C1361 C468 1.452 . S
C1366 C578 1.452 . S
C1371 C598 1.453 . S
C1376 C428 1.453 . S
C1381 C619 1.449 . S
C1386 C289 1.465 . S
C1391 C639 1.447 . S
C1396 C249 1.465 . S
C1401 C659 1.448 . S
C1406 C269 1.465 . S
C1411 C679 1.442 1_655 S
C1416 C89 1.453 . S
C1421 C109 1.452 . S
C1426 C699 1.441 . S
C1431 C69 1.453 . S
C1436 C719 1.442 1_545 S
C1441 C582 1.806 . S
C1446 C2 1.798 . S
C1451 C542 1.805 . S
C1456 C22 1.797 . S
C1461 C42 1.806 . S
C1466 C562 1.799 . S
C1471 C262 1.936 . S
C1476 C62 1.934 . S
C1481 C82 1.935 . S
C1486 C282 1.936 . S
C1491 C102 1.935 . S
C1496 C242 1.936 . S
C1501 C121 1.806 . S
C1506 C461 1.796 . S
C1511 C141 1.805 . S
C1516 C421 1.798 . S
C1521 C161 1.806 . S
C1526 C441 1.797 . S
C1531 C621 1.934 . S
C1536 C181 1.933 . S
C1541 C641 1.935 . S
C1546 C201 1.933 . S
C1551 C601 1.934 . S
C1556 C221 1.933 . S
C1561 C302 1.970 . S
C1566 C502 1.973 . S
C1571 C322 1.968 . S
C1576 C522 1.972 . S
C1581 C342 1.969 . S
C1586 C482 1.971 . S
C1591 C361 1.973 . S
C1596 C701 1.970 . S
C1601 C661 1.970 . S
C1606 C381 1.973 . S
C1611 C401 1.973 . S
C1616 C681 1.971 . S
C1621 C81 1.419 . S
C1626 C1 1.420 . S
C1631 C101 1.420 . S
C1636 C21 1.419 . S
C1641 C61 1.419 . S
C1646 C41 1.421 . S
C1651 C122 1.421 . S
C1656 C202 1.419 . S
C1661 C222 1.419 . S
C1666 C142 1.420 . S
C1671 C162 1.421 . S
C1676 C182 1.419 . S
C1681 C321 1.461 . S
C1686 C241 1.463 . S
C1691 C341 1.461 . S
C1696 C261 1.463 . S
C1701 C301 1.461 . S
C1706 C281 1.462 . S
C1711 C442 1.561 . S
C1716 C362 1.582 . S
C1721 C382 1.574 . S
C1726 C462 1.568 . S
C1731 C402 1.575 . S
C1736 C422 1.568 . S
C1741 C481 1.574 . S
C1746 C561 1.569 . S
C1751 C581 1.562 . S
C1756 C501 1.581 . S
C1761 C521 1.575 . S
C1766 C541 1.568 . S
C1771 C602 1.463 . S
C1776 C682 1.461 . S
C1781 C702 1.461 . S
C1786 C622 1.463 . S
C1791 C642 1.462 . S
C1796 C662 1.461 . S
