# Generated by pormake.
# Topology kag, (6)-cn, num edge types: 1
# Building blocks:
#     Node 0, Type 0, BuildingBlock: JUFBIX_clean_sbu_0, # of connection points: 6
#     Node 1, Type 0, BuildingBlock: JUFBIX_clean_sbu_0, # of connection points: 6
#     Node 2, Type 0, BuildingBlock: JUFBIX_clean_sbu_0, # of connection points: 6
#     Edge 3, Type (0, 0), BuildingBlock: ZUJKAS_clean_linker_0, # of connection points: 2
#     Edge 4, Type (0, 0), BuildingBlock: ZUJKAS_clean_linker_0, # of connection points: 2
#     Edge 5, Type (0, 0), BuildingBlock: ZUJKAS_clean_linker_0, # of connection points: 2
#     Edge 6, Type (0, 0), BuildingBlock: ZUJKAS_clean_linker_0, # of connection points: 2
#     Edge 7, Type (0, 0), BuildingBlock: ZUJKAS_clean_linker_0, # of connection points: 2
#     Edge 8, Type (0, 0), BuildingBlock: ZUJKAS_clean_linker_0, # of connection points: 2
#     Edge 9, Type (0, 0), BuildingBlock: ZUJKAS_clean_linker_0, # of connection points: 2
#     Edge 10, Type (0, 0), BuildingBlock: ZUJKAS_clean_linker_0, # of connection points: 2
#     Edge 11, Type (0, 0), BuildingBlock: ZUJKAS_clean_linker_0, # of connection points: 2
# Relax obj value: 0.226
# Max RMSD: 0.214
# Mean RMSD: 0.152
data_MOF--net-kag--node1-JUFBIX_clean_sbu_0--edge1-ZUJKAS_clean_linker_0
_symmetry_space_group_name_H-M    P1
_symmetry_Int_Tables_number       1
_symmetry_cell_setting            triclinic
loop_
_symmetry_equiv_pos_as_xyz
'x, y, z'
_cell_length_a     38.871933
_cell_length_b     46.689623
_cell_length_c     19.451037
_cell_angle_alpha  90.24411
_cell_angle_beta   93.023929
_cell_angle_gamma 120.49441
loop_
_atom_site_label
_atom_site_type_symbol
_atom_site_fract_x
_atom_site_fract_y
_atom_site_fract_z
_atom_type_partial_charge
Co0 Co 0.98385 0.46897 0.99472 0.0
C1 C 0.99807 0.49867 0.8671 0.0
Co2 Co 0.01324 0.52365 1.00065 0.0
C3 C 0.92785 0.39925 0.0134 0.0
C4 C 0.97293 0.40725 0.94461 0.0
N5 N 0.96102 0.42341 0.986 0.0
N6 N 0.91835 0.36872 0.98984 0.0
C7 C 0.94666 0.37364 0.94665 0.0
H8 H 0.91002 0.40402 0.04745 0.0
H9 H -0.00158 0.41924 0.91326 0.0
C10 C -0.001 0.49402 0.12823 0.0
N11 N 0.03626 0.56928 0.00889 0.0
C12 C 0.07028 0.59308 0.98302 0.0
C13 C 0.02297 0.58595 0.04539 0.0
N14 N 0.07876 0.62395 1.00202 0.0
C15 C 0.04894 0.61952 0.04112 0.0
C16 C 0.92987 0.49048 0.99426 0.0
O17 O 0.9834 0.46695 0.09249 0.0
O18 O 0.01406 0.52145 0.09781 0.0
O19 O 0.96164 0.51877 0.99943 0.0
O20 O 0.93224 0.4644 0.98995 0.0
O21 O 0.01232 0.52562 0.9028 0.0
H22 H 0.99658 0.57442 0.07467 0.0
H23 H 0.08863 0.58782 0.95134 0.0
O24 O 0.9844 0.47137 0.8976 0.0
O25 O 0.0355 0.47378 0.99922 0.0
O26 O 0.06469 0.52809 0.00236 0.0
C27 C 0.06733 0.50207 1.0016 0.0
H28 H 0.94788 0.35433 0.91779 0.0
H29 H 0.04684 0.6391 0.067 0.0
Co30 Co 0.5168 0.98606 0.00716 0.0
C31 C 0.50138 0.00221 0.87536 0.0
Co32 Co 0.4801 0.00994 0.00369 0.0
C33 C 0.5397 0.93641 0.02817 0.0
C34 C 0.58417 0.97944 0.97965 0.0
N35 N 0.54825 0.96668 0.00669 0.0
N36 N 0.5687 0.92965 0.01499 0.0
C37 C 0.59683 0.95685 0.98477 0.0
H38 H 0.51199 0.91917 0.05062 0.0
H39 H 0.59976 0.00335 0.95612 0.0
C40 C 0.49553 0.99379 0.13547 0.0
N41 N 0.44873 0.02939 0.00402 0.0
C42 C 0.45708 0.05933 0.9808 0.0
C43 C 0.41317 0.01711 0.03215 0.0
N44 N 0.42831 0.06639 0.9939 0.0
C45 C 0.40053 0.0397 0.02592 0.0
C46 C 0.43573 0.94103 0.98899 0.0
O47 O 0.51401 0.98227 0.10399 0.0
O48 O 0.47864 0.00691 0.10111 0.0
O49 O 0.43345 0.96718 0.99248 0.0
O50 O 0.4699 0.94361 0.99378 0.0
O51 O 0.48185 0.01279 0.90662 0.0
H52 H 0.3978 0.99354 0.05705 0.0
H53 H 0.48448 0.07614 0.95703 0.0
O54 O 0.5193 0.99003 0.90996 0.0
O55 O 0.56336 0.02872 0.02102 0.0
O56 O 0.5271 0.05248 0.01469 0.0
C57 C 0.56111 0.0549 0.02232 0.0
H58 H 0.62446 0.96014 0.96686 0.0
H59 H 0.37315 0.03673 0.04426 0.0
Co60 Co 0.48121 0.471 0.99505 0.0
C61 C 0.50174 0.50043 0.12691 0.0
Co62 Co 0.51814 0.52592 0.99731 0.0
C63 C 0.45715 0.40164 0.97286 0.0
C64 C 0.41391 0.40776 0.02443 0.0
N65 N 0.44935 0.42501 0.99572 0.0
N66 N 0.42815 0.37051 0.98674 0.0
C67 C 0.40078 0.37439 0.01882 0.0
H68 H 0.48436 0.40749 0.94888 0.0
H69 H 0.39897 0.41876 0.04953 0.0
C70 C 0.49765 0.49649 0.86547 0.0
N71 N 0.54985 0.57192 0.99666 0.0
C72 C 0.54228 0.59514 0.0213 0.0
C73 C 0.58475 0.58935 0.96638 0.0
N74 N 0.57089 0.62636 0.00703 0.0
C75 C 0.59778 0.62269 0.97284 0.0
C76 C 0.5622 0.49396 1.00073 0.0
O77 O 0.48039 0.4694 0.8972 0.0
O78 O 0.51546 0.52398 0.89987 0.0
O79 O 0.56461 0.5221 0.99905 0.0
O80 O 0.5281 0.46772 1.00093 0.0
O81 O 0.5205 0.52743 0.0953 0.0
H82 H 0.59936 0.57849 0.93968 0.0
H83 H 0.51549 0.58912 0.04687 0.0
O84 O 0.48239 0.47304 0.09239 0.0
O85 O 0.43467 0.47484 0.98944 0.0
O86 O 0.47133 0.52918 0.99502 0.0
C87 C 0.43705 0.50299 0.99121 0.0
H88 H 0.37336 0.3546 0.03776 0.0
H89 H 0.6248 0.64258 0.95301 0.0
H90 H 0.02833 0.55235 0.78384 0.0
H91 H 0.02769 0.55154 0.65766 0.0
H92 H 0.96664 0.44439 0.65264 0.0
H93 H 0.96682 0.44485 0.77806 0.0
H94 H 0.06116 0.52304 0.57276 0.0
H95 H 0.89717 0.46469 0.51743 0.0
H96 H 0.92152 0.48328 0.60064 0.0
H97 H 0.91169 0.44252 0.57611 0.0
C98 C 0.01456 0.52862 0.75582 0.0
C99 C 0.99747 0.49867 0.79098 0.0
C100 C 0.01427 0.52821 0.68384 0.0
C101 C 0.9966 0.49789 0.64593 0.0
C102 C 0.97973 0.46802 0.68089 0.0
H103 H 0.96767 0.44032 0.21141 0.0
H104 H 0.96824 0.44113 0.33756 0.0
C105 C 0.98007 0.46838 0.75266 0.0
C106 C 0.99685 0.49735 0.56988 0.0
H107 H 0.93568 0.46965 0.42263 0.0
C108 C 0.03378 0.51157 0.53983 0.0
C109 C 0.96102 0.48215 0.52726 0.0
C110 C 0.92057 0.46752 0.5568 0.0
C111 C 0.03583 0.51052 0.46811 0.0
C112 C -0.0 0.49535 0.42548 0.0
C113 C 0.96307 0.48112 0.45554 0.0
C114 C 0.00024 0.49481 0.3494 0.0
C115 C 0.07629 0.52504 0.43866 0.0
C116 C 0.01763 0.52469 0.31448 0.0
C117 C 0.01737 0.52433 0.24272 0.0
C118 C -0.0005 0.49402 0.20435 0.0
C119 C 0.98183 0.46406 0.23946 0.0
C120 C 0.98208 0.46447 0.31144 0.0
H121 H 0.09956 0.52756 0.47797 0.0
H122 H 0.07526 0.50942 0.3945 0.0
H123 H 0.08545 0.55019 0.41992 0.0
H124 H 0.03107 0.54834 0.34274 0.0
H125 H 0.03104 0.54787 0.21736 0.0
H126 H 0.45847 0.0161 0.21771 0.0
H127 H 0.46011 0.01758 0.34354 0.0
H128 H 0.53216 0.97143 0.35126 0.0
H129 H 0.53108 0.97011 0.22533 0.0
H130 H 0.4346 0.96472 0.43504 0.0
H131 H 0.59735 0.05566 0.47639 0.0
H132 H 0.5703 0.0488 0.39387 0.0
H133 H 0.58489 0.01979 0.42297 0.0
C134 C 0.47466 0.00622 0.24609 0.0
C135 C 0.49487 0.99317 0.21148 0.0
C136 C 0.47553 0.00708 0.31798 0.0
C137 C 0.49679 0.99512 0.35663 0.0
C138 C 0.51624 0.98139 0.32234 0.0
H139 H 0.53912 0.9805 0.79328 0.0
H140 H 0.53746 0.97892 0.66746 0.0
C141 C 0.51538 0.98048 0.25038 0.0
C142 C 0.49835 0.99688 0.43286 0.0
H143 H 0.56232 0.03113 0.57573 0.0
C144 C 0.46247 0.97932 0.46588 0.0
C145 C 0.5348 0.01597 0.47278 0.0
C146 C 0.57403 0.03639 0.43987 0.0
C147 C 0.46212 0.97985 0.538 0.0
C148 C 0.49856 -0.00103 0.57794 0.0
C149 C 0.53445 0.01652 0.5449 0.0
C150 C 0.50013 0.00078 0.65418 0.0
C151 C 0.42288 0.95937 0.57085 0.0
C152 C 0.48033 0.01421 0.6884 0.0
C153 C 0.48118 0.01515 0.76035 0.0
C154 C 0.50205 0.00282 0.79935 0.0
C155 C 0.52266 0.99011 0.76483 0.0
C156 C 0.52177 0.98919 0.69293 0.0
H157 H 0.39969 0.93994 0.53443 0.0
H158 H 0.42665 0.94714 0.61712 0.0
H159 H 0.4118 0.97589 0.58726 0.0
H160 H 0.46415 0.02392 0.65942 0.0
H161 H 0.4652 0.02528 0.78532 0.0
H162 H 0.53126 0.55019 0.78381 0.0
H163 H 0.53116 0.5503 0.6583 0.0
H164 H 0.46442 0.44305 0.64912 0.0
H165 H 0.46389 0.44261 0.77498 0.0
H166 H 0.56218 0.52181 0.57207 0.0
H167 H 0.39882 0.46783 0.51582 0.0
H168 H 0.423 0.48432 0.60016 0.0
H169 H 0.41213 0.44381 0.57122 0.0
C170 C 0.51637 0.52657 0.75521 0.0
C171 C 0.49738 0.49636 0.7894 0.0
C172 C 0.51641 0.52672 0.68347 0.0
C173 C 0.49735 0.49672 0.64448 0.0
C174 C 0.47864 0.46649 0.6783 0.0
H175 H 0.46733 0.44677 0.20852 0.0
H176 H 0.46767 0.44666 0.33404 0.0
C177 C 0.47854 0.46629 0.75019 0.0
C178 C 0.4979 0.49723 0.56845 0.0
H179 H 0.43765 0.47514 0.42046 0.0
C180 C 0.53499 0.51172 0.53882 0.0
C181 C 0.46235 0.48405 0.52542 0.0
C182 C 0.4218 0.46937 0.55457 0.0
C183 C 0.53748 0.51287 0.46708 0.0
C184 C 0.50193 0.49971 0.42403 0.0
C185 C 0.46484 0.48523 0.45368 0.0
C186 C 0.50245 0.50022 0.34797 0.0
C187 C 0.57805 0.52747 0.438 0.0
C188 C 0.52163 0.53044 0.31416 0.0
C189 C 0.52163 0.53063 0.24226 0.0
C190 C 0.50216 0.50057 0.203 0.0
C191 C 0.48269 0.47038 0.23716 0.0
C192 C 0.48279 0.47024 0.30891 0.0
H193 H 0.60088 0.52868 0.47665 0.0
H194 H 0.57678 0.51268 0.39207 0.0
H195 H 0.58798 0.55317 0.42199 0.0
H196 H 0.53629 0.55389 0.34336 0.0
H197 H 0.53666 0.5543 0.21749 0.0
H198 H 0.08237 0.45102 0.99877 0.0
H199 H 0.14724 0.45462 0.99943 0.0
H200 H 0.20659 0.56171 0.00767 0.0
H201 H 0.14157 0.55842 0.00622 0.0
H202 H 0.23519 0.53578 0.90943 0.0
H203 H 0.22886 0.48081 0.1639 0.0
H204 H 0.18571 0.45563 0.10676 0.0
H205 H 0.19592 0.49587 0.13663 0.0
C206 C 0.10918 0.47539 1.00108 0.0
C207 C 0.1068 0.50445 0.00286 0.0
C208 C 0.14625 0.47737 1.0018 0.0
C209 C 0.18171 0.50842 0.00481 0.0
C210 C 0.17953 0.53751 0.00586 0.0
H211 H 0.43148 0.55912 0.99685 0.0
H212 H 0.37062 0.56229 0.99981 0.0
C213 C 0.14238 0.53557 0.00512 0.0
C214 C 0.22091 0.51028 0.00495 0.0
H215 H 0.27923 0.48541 0.09224 0.0
C216 C 0.24509 0.5251 0.94971 0.0
C217 C 0.23368 0.49634 0.05765 0.0
C218 C 0.2099 0.48154 0.11995 0.0
C219 C 0.2811 0.52527 0.94446 0.0
C220 C 0.29338 0.51064 0.99639 0.0
C221 C 0.26958 0.49644 0.05232 0.0
C222 C 0.33032 0.509 0.99299 0.0
C223 C 0.30501 0.54007 0.88231 0.0
C224 C 0.32782 0.47798 0.98925 0.0
C225 C 0.36247 0.47605 0.98784 0.0
C226 C 0.40035 0.50516 0.99055 0.0
C227 C 0.40276 0.53624 0.99428 0.0
C228 C 0.36803 0.53812 0.99566 0.0
H229 H 0.28719 0.54351 0.84009 0.0
H230 H 0.33136 0.56478 0.89726 0.0
H231 H 0.31607 0.52406 0.86247 0.0
H232 H 0.29897 0.45522 0.98742 0.0
H233 H 0.35954 0.45173 0.98515 0.0
H234 H 0.63252 0.06913 0.08515 0.0
H235 H 0.69393 0.12338 0.09871 0.0
H236 H 0.63438 0.16843 0.99091 0.0
H237 H 0.57234 0.11457 0.98091 0.0
H238 H 0.73844 0.15997 0.00744 0.0
H239 H 0.68865 0.23494 0.14416 0.0
H240 H 0.65805 0.1903 0.13413 0.0
H241 H 0.65784 0.21656 0.06652 0.0
C242 C 0.63246 0.09074 0.06522 0.0
C243 C 0.59774 0.08775 0.03215 0.0
C244 C 0.66753 0.12172 0.07305 0.0
C245 C 0.66871 0.15021 0.04697 0.0
C246 C 0.63397 0.14714 0.01365 0.0
H247 H 0.87454 0.31818 0.89781 0.0
H248 H 0.81491 0.2651 0.91844 0.0
C249 C 0.59861 0.11628 0.00728 0.0
C250 C 0.70706 0.18245 0.04944 0.0
H251 H 0.74858 0.26581 0.08222 0.0
C252 C 0.74072 0.18301 0.02488 0.0
C253 C 0.71055 0.21254 0.07354 0.0
C254 C 0.67691 0.21348 0.10679 0.0
C255 C 0.77713 0.21286 0.02095 0.0
C256 C 0.77952 0.24322 0.03922 0.0
C257 C 0.74652 0.2426 0.06687 0.0
C258 C 0.81534 0.27582 0.02707 0.0
C259 C 0.81262 0.21138 0.99746 0.0
C260 C 0.83435 0.3002 0.08043 0.0
C261 C 0.86802 0.33094 0.06819 0.0
C262 C 0.88332 0.33755 0.00263 0.0
C263 C 0.86387 0.31335 0.94918 0.0
C264 C 0.82992 0.28297 0.96105 0.0
H265 H 0.81035 0.1873 0.01001 0.0
H266 H 0.81337 0.21344 0.94068 0.0
H267 H 0.84121 0.23185 0.02163 0.0
H268 H 0.82338 0.29535 0.13163 0.0
H269 H 0.88257 0.34929 0.1101 0.0
H270 H 0.60719 0.90561 0.9434 0.0
H271 H 0.60588 0.85339 0.95966 0.0
H272 H 0.52788 0.831 0.12589 0.0
H273 H 0.52925 0.88363 0.11032 0.0
H274 H 0.62888 0.83116 0.07863 0.0
H275 H 0.46799 0.74766 0.99635 0.0
H276 H 0.49452 0.79147 0.97921 0.0
H277 H 0.47906 0.77795 0.0642 0.0
C278 C 0.59007 0.88987 0.98397 0.0
C279 C 0.56833 0.89892 0.02558 0.0
C280 C 0.5892 0.85989 0.99294 0.0
C281 C 0.56647 0.83818 0.04346 0.0
C282 C 0.54505 0.84716 0.08576 0.0
H283 H 0.53185 0.63866 0.10473 0.0
H284 H 0.53063 0.69006 0.12332 0.0
C285 C 0.54586 0.87723 0.07677 0.0
C286 C 0.56563 0.80628 0.05119 0.0
H287 H 0.50545 0.72221 0.02581 0.0
C288 C 0.60183 0.80731 0.06771 0.0
C289 C 0.53023 0.77522 0.03733 0.0
C290 C 0.49072 0.77277 0.01779 0.0
C291 C 0.60381 0.77814 0.06895 0.0
C292 C 0.56878 0.74722 0.05216 0.0
C293 C 0.53224 0.74601 0.03855 0.0
C294 C 0.57015 0.71632 0.04277 0.0
C295 C 0.6435 0.78072 0.08739 0.0
C296 C 0.59232 0.71397 0.99079 0.0
C297 C 0.59284 0.68466 0.97964 0.0
C298 C 0.57105 0.65691 0.02012 0.0
C299 C 0.54873 0.65936 0.07221 0.0
C300 C 0.54814 0.68877 0.08318 0.0
H301 H 0.66401 0.80387 0.11827 0.0
H302 H 0.63952 0.75904 0.1169 0.0
H303 H 0.658 0.78125 0.03939 0.0
H304 H 0.60873 0.73468 0.9579 0.0
H305 H 0.60963 0.68362 0.93809 0.0
H306 H 0.86303 0.45215 0.91032 0.0
H307 H 0.79971 0.45196 0.9076 0.0
H308 H 0.84486 0.52126 0.08267 0.0
H309 H 0.90905 0.52358 0.08125 0.0
H310 H 0.74336 0.43447 0.98535 0.0
H311 H 0.80981 0.56993 0.96381 0.0
H312 H 0.83918 0.55024 0.95783 0.0
H313 H 0.82983 0.56148 0.04084 0.0
C314 C 0.85928 0.46745 0.94775 0.0
C315 C 0.89083 0.48828 0.99526 0.0
C316 C 0.82316 0.46732 0.94636 0.0
C317 C 0.81775 0.48741 0.99361 0.0
C318 C 0.84874 0.50674 0.0436 0.0
H319 H 0.58103 0.45377 0.0745 0.0
H320 H 0.64267 0.45164 0.07297 0.0
C321 C 0.88526 0.50779 0.04332 0.0
C322 C 0.77972 0.48796 0.99113 0.0
H323 H 0.74254 0.54015 0.99821 0.0
C324 C 0.74319 0.45762 0.98727 0.0
C325 C 0.77918 0.51809 0.992 0.0
C326 C 0.81662 0.5517 0.988 0.0
C327 C 0.70636 0.45654 0.98533 0.0
C328 C 0.70598 0.48665 0.99146 0.0
C329 C 0.74253 0.51696 0.99449 0.0
C330 C 0.66831 0.48766 0.9933 0.0
C331 C 0.6685 0.42312 0.97449 0.0
C332 C 0.66279 0.5098 0.95184 0.0
C333 C 0.62855 0.5122 0.95537 0.0
C334 C 0.5986 0.49183 0.99894 0.0
C335 C 0.60366 0.46945 0.03995 0.0
C336 C 0.63866 0.46794 0.03836 0.0
H337 H 0.67398 0.40515 0.9465 0.0
H338 H 0.65763 0.41271 0.02529 0.0
H339 H 0.64465 0.4251 0.94484 0.0
H340 H 0.68502 0.52534 0.9166 0.0
H341 H 0.62511 0.52952 0.92297 0.0
H342 H 0.15291 0.63472 0.98225 0.0
H343 H 0.21376 0.68861 0.97081 0.0
H344 H 0.14526 0.73761 0.98086 0.0
H345 H 0.08437 0.68389 0.99231 0.0
H346 H 0.2344 0.73981 0.87519 0.0
H347 H 0.23066 0.78161 0.14102 0.0
H348 H 0.20038 0.7388 0.11073 0.0
H349 H 0.18556 0.76847 0.08804 0.0
C350 C 0.1507 0.65691 0.98098 0.0
C351 C 0.11392 0.65513 0.98899 0.0
C352 C 0.1855 0.68766 0.9747 0.0
C353 C 0.18403 0.71705 0.97637 0.0
C354 C 0.1471 0.71522 0.98108 0.0
H355 H 0.35836 0.92703 0.98262 0.0
H356 H 0.29758 0.87226 0.97424 0.0
C357 C 0.11239 0.68456 0.98766 0.0
C358 C 0.22128 0.74974 0.97572 0.0
H359 H 0.27897 0.8218 0.07113 0.0
C360 C 0.2443 0.75774 0.91803 0.0
C361 C 0.2341 0.77292 0.03196 0.0
C362 C 0.21164 0.765 0.09676 0.0
C363 C 0.27946 0.78876 0.91447 0.0
C364 C 0.29196 0.81201 0.97042 0.0
C365 C 0.26907 0.80391 0.0282 0.0
C366 C 0.32881 0.84498 0.9706 0.0
C367 C 0.30255 0.79669 0.85049 0.0
C368 C 0.36644 0.84767 0.97145 0.0
C369 C 0.40128 0.87893 0.97644 0.0
C370 C 0.39899 0.90799 0.98089 0.0
C371 C 0.36117 0.90515 0.97921 0.0
C372 C 0.32641 0.87391 0.97439 0.0
H373 H 0.28439 0.77941 0.80648 0.0
H374 H 0.31281 0.82259 0.83535 0.0
H375 H 0.32939 0.79444 0.86109 0.0
H376 H 0.36888 0.82557 0.96984 0.0
H377 H 0.42996 0.88028 0.97779 0.0
H378 H 0.46796 0.35753 0.89176 0.0
H379 H 0.46882 0.30582 0.87557 0.0
H380 H 0.38911 0.26233 0.03931 0.0
H381 H 0.38851 0.31368 0.05663 0.0
H382 H 0.49276 0.27378 0.9746 0.0
H383 H 0.33446 0.19244 0.88056 0.0
H384 H 0.35923 0.23729 0.88115 0.0
H385 H 0.34012 0.21539 0.95877 0.0
C386 C 0.45065 0.337 0.92439 0.0
C387 C 0.42794 0.33983 0.97523 0.0
C388 C 0.45103 0.30742 0.9148 0.0
C389 C 0.42844 0.28008 0.9554 0.0
C390 C 0.40594 0.28285 0.00622 0.0
H391 H 0.39008 0.09135 0.06349 0.0
H392 H 0.39166 0.14352 0.0445 0.0
C393 C 0.4056 0.31232 0.01597 0.0
C394 C 0.42952 0.24898 0.94744 0.0
H395 H 0.36888 0.16498 0.9231 0.0
C396 C 0.46587 0.25001 0.96214 0.0
C397 C 0.39438 0.21808 0.93099 0.0
C398 C 0.3549 0.21567 0.91129 0.0
C399 C 0.46756 0.22067 0.96476 0.0
C400 C 0.43203 0.18965 0.95132 0.0
C401 C 0.39603 0.18879 0.93371 0.0
C402 C 0.43086 0.1577 0.96053 0.0
C403 C 0.50687 0.22293 0.98532 0.0
C404 C 0.45203 0.14815 0.91895 0.0
C405 C 0.45103 0.11809 0.92946 0.0
C406 C 0.42867 0.097 0.98152 0.0
C407 C 0.40713 0.1066 0.02232 0.0
C408 C 0.40816 0.13656 0.0118 0.0
H409 H 0.52977 0.24816 0.00592 0.0
H410 H 0.50277 0.20457 0.0249 0.0
H411 H 0.51845 0.21713 0.93959 0.0
H412 H 0.46917 0.16386 0.87827 0.0
H413 H 0.46746 0.11127 0.89644 0.0
loop_
_geom_bond_atom_site_label_1
_geom_bond_atom_site_label_2
_geom_bond_distance
_geom_bond_site_symmetry_2
_ccdc_geom_bond_type
Co0 N5 2.057 1_554 S
Co0 O17 2.021 . S
Co0 O20 2.062 . S
Co0 O24 2.117 1_554 S
Co0 O25 2.020 1_655 S
C1 O21 1.259 . S
C1 O24 1.258 1_455 S
Co2 N11 2.057 1_556 S
Co2 O18 2.117 1_556 S
Co2 O19 2.020 1_455 S
Co2 O21 2.021 . S
Co2 O26 2.062 . S
C3 N5 1.316 1_554 S
C3 N6 1.347 1_554 S
C3 H8 0.931 . S
C4 N5 1.375 . S
C4 C7 1.350 . S
C4 H9 0.930 . S
N5 Co0 2.057 1_556 S
N5 C3 1.316 1_556 S
N5 C4 1.375 . S
N6 C3 1.347 1_556 S
N6 C7 1.373 . S
C7 C4 1.350 . S
C7 N6 1.373 . S
C7 H28 0.931 . S
H8 C3 0.931 . S
H9 C4 0.930 . S
C10 O17 1.262 . S
C10 O18 1.253 1_655 S
N11 Co2 2.057 1_554 S
N11 C12 1.316 1_554 S
N11 C13 1.375 . S
C12 N11 1.316 1_556 S
C12 N14 1.347 1_556 S
C12 H23 0.931 . S
C13 N11 1.375 . S
C13 C15 1.350 . S
C13 H22 0.930 . S
N14 C12 1.347 1_554 S
N14 C15 1.373 . S
C15 C13 1.350 . S
C15 N14 1.373 . S
C15 H29 0.931 . S
C16 O19 1.256 1_554 S
C16 O20 1.255 . S
O17 Co0 2.021 . S
O17 C10 1.262 . S
O18 Co2 2.117 1_554 S
O18 C10 1.253 1_455 S
O19 Co2 2.020 1_655 S
O19 C16 1.256 1_556 S
O20 Co0 2.062 . S
O20 C16 1.255 . S
O21 C1 1.259 . S
O21 Co2 2.021 . S
H22 C13 0.930 . S
H23 C12 0.931 . S
O24 Co0 2.117 1_556 S
O24 C1 1.258 1_655 S
O25 Co0 2.020 1_455 S
O25 C27 1.253 1_554 S
O26 Co2 2.062 . S
O26 C27 1.256 . S
C27 O25 1.253 1_556 S
C27 O26 1.256 . S
H28 C7 0.931 . S
H29 C15 0.931 . S
Co30 N35 2.057 1_554 S
Co30 O47 2.021 . S
Co30 O50 2.062 . S
Co30 O54 2.117 1_554 S
Co30 O55 2.020 1_565 S
C31 O51 1.259 . S
C31 O54 1.258 1_545 S
Co32 N41 2.057 1_556 S
Co32 O48 2.117 1_556 S
Co32 O49 2.020 1_545 S
Co32 O51 2.021 . S
Co32 O56 2.062 . S
C33 N35 1.316 1_554 S
C33 N36 1.347 1_554 S
C33 H38 0.931 . S
C34 N35 1.375 . S
C34 C37 1.350 . S
C34 H39 0.930 . S
N35 Co30 2.057 1_556 S
N35 C33 1.316 1_556 S
N35 C34 1.375 . S
N36 C33 1.347 1_556 S
N36 C37 1.373 . S
C37 C34 1.350 . S
C37 N36 1.373 . S
C37 H58 0.931 . S
H38 C33 0.931 . S
H39 C34 0.930 . S
C40 O47 1.259 . S
C40 O48 1.258 1_565 S
N41 Co32 2.057 1_554 S
N41 C42 1.316 1_554 S
N41 C43 1.375 . S
C42 N41 1.316 1_556 S
C42 N44 1.347 1_556 S
C42 H53 0.931 . S
C43 N41 1.375 . S
C43 C45 1.350 . S
C43 H52 0.930 . S
N44 C42 1.347 1_554 S
N44 C45 1.373 . S
C45 C43 1.350 . S
C45 N44 1.373 . S
C45 H59 0.931 . S
C46 O49 1.256 . S
C46 O50 1.254 1_556 S
O47 Co30 2.021 . S
O47 C40 1.259 . S
O48 Co32 2.117 1_554 S
O48 C40 1.258 1_545 S
O49 Co32 2.020 1_565 S
O49 C46 1.256 . S
O50 Co30 2.062 . S
O50 C46 1.254 1_554 S
O51 C31 1.259 . S
O51 Co32 2.021 . S
H52 C43 0.930 . S
H53 C42 0.931 . S
O54 Co30 2.117 1_556 S
O54 C31 1.258 1_565 S
O55 Co30 2.020 1_545 S
O55 C57 1.257 . S
O56 Co32 2.062 . S
O56 C57 1.254 1_556 S
C57 O55 1.257 . S
C57 O56 1.254 1_554 S
H58 C37 0.931 . S
H59 C45 0.931 . S
Co60 N65 2.057 1_556 S
Co60 O77 2.021 . S
Co60 O80 2.062 . S
Co60 O84 2.117 1_556 S
Co60 O85 2.020 . S
C61 O81 1.259 . S
C61 O84 1.258 . S
Co62 N71 2.057 1_554 S
Co62 O78 2.117 1_554 S
Co62 O79 2.020 . S
Co62 O81 2.021 . S
Co62 O86 2.062 . S
C63 N65 1.316 1_556 S
C63 N66 1.347 1_556 S
C63 H68 0.931 . S
C64 N65 1.375 . S
C64 C67 1.350 . S
C64 H69 0.930 . S
N65 Co60 2.057 1_554 S
N65 C63 1.316 1_554 S
N65 C64 1.375 . S
N66 C63 1.347 1_554 S
N66 C67 1.373 . S
C67 C64 1.350 . S
C67 N66 1.373 . S
C67 H88 0.931 . S
H68 C63 0.931 . S
H69 C64 0.930 . S
C70 O77 1.259 . S
C70 O78 1.258 . S
N71 Co62 2.057 1_556 S
N71 C72 1.316 1_556 S
N71 C73 1.375 . S
C72 N71 1.316 1_554 S
C72 N74 1.347 1_554 S
C72 H83 0.931 . S
C73 N71 1.375 . S
C73 C75 1.350 . S
C73 H82 0.930 . S
N74 C72 1.347 1_556 S
N74 C75 1.373 . S
C75 C73 1.350 . S
C75 N74 1.373 . S
C75 H89 0.931 . S
C76 O79 1.256 . S
C76 O80 1.254 1_554 S
O77 Co60 2.021 . S
O77 C70 1.259 . S
O78 Co62 2.117 1_556 S
O78 C70 1.258 . S
O79 Co62 2.020 . S
O79 C76 1.256 . S
O80 Co60 2.062 . S
O80 C76 1.254 1_556 S
O81 C61 1.259 . S
O81 Co62 2.021 . S
H82 C73 0.930 . S
H83 C72 0.931 . S
O84 Co60 2.117 1_554 S
O84 C61 1.258 . S
O85 Co60 2.020 . S
O85 C87 1.256 . S
O86 Co62 2.062 . S
O86 C87 1.255 1_554 S
C87 O85 1.256 . S
C87 O86 1.255 1_556 S
H88 C67 0.931 . S
H89 C75 0.931 . S
H90 C98 0.929 . S
H91 C100 0.930 . S
H92 C102 0.930 . S
H93 C105 0.929 . S
H94 C108 0.930 . S
H95 C110 0.960 . S
H96 C110 0.960 . S
H97 C110 0.960 . S
C98 H90 0.929 . S
C98 C99 1.388 . S
C98 C100 1.384 . S
C99 C98 1.388 . S
C99 C105 1.380 1_455 S
C100 H91 0.930 . S
C100 C98 1.384 . S
C100 C101 1.372 . S
C101 C100 1.372 . S
C101 C102 1.400 1_455 S
C101 C106 1.490 . S
C102 H92 0.930 . S
C102 C101 1.400 1_655 S
C102 C105 1.386 . S
H103 C119 0.930 . S
H104 C120 0.931 . S
C105 H93 0.929 . S
C105 C99 1.380 1_655 S
C105 C102 1.386 . S
C106 C101 1.490 . S
C106 C108 1.395 . S
C106 C109 1.403 1_455 S
H107 C113 0.930 . S
C108 H94 0.930 . S
C108 C106 1.395 . S
C108 C111 1.403 . S
C109 C106 1.403 1_655 S
C109 C110 1.524 . S
C109 C113 1.400 . S
C110 H95 0.960 . S
C110 H96 0.960 . S
C110 H97 0.960 . S
C110 C109 1.524 . S
C111 C108 1.403 . S
C111 C112 1.392 . S
C111 C115 1.495 . S
C112 C111 1.392 . S
C112 C113 1.385 1_455 S
C112 C114 1.478 . S
C113 H107 0.930 . S
C113 C109 1.400 . S
C113 C112 1.385 1_655 S
C114 C112 1.478 . S
C114 C116 1.381 . S
C114 C120 1.383 1_455 S
C115 C111 1.495 . S
C115 H121 0.959 . S
C115 H122 0.961 . S
C115 H123 0.960 . S
C116 C114 1.381 . S
C116 C117 1.394 . S
C116 H124 0.930 . S
C117 C116 1.394 . S
C117 C118 1.383 . S
C117 H125 0.929 . S
C118 C117 1.383 . S
C118 C119 1.377 1_455 S
C119 H103 0.930 . S
C119 C118 1.377 1_655 S
C119 C120 1.379 . S
C120 H104 0.931 . S
C120 C114 1.383 1_655 S
C120 C119 1.379 . S
H121 C115 0.959 . S
H122 C115 0.961 . S
H123 C115 0.960 . S
H124 C116 0.930 . S
H125 C117 0.929 . S
H126 C134 0.929 . S
H127 C136 0.930 . S
H128 C138 0.920 . S
H129 C141 0.934 . S
H130 C144 0.930 . S
H131 C146 0.960 . S
H132 C146 0.960 . S
H133 C146 0.960 . S
C134 H126 0.929 . S
C134 C135 1.361 . S
C134 C136 1.384 . S
C135 C134 1.361 . S
C135 C141 1.405 1_565 S
C136 H127 0.930 . S
C136 C134 1.384 . S
C136 C137 1.368 . S
C137 C136 1.368 . S
C137 C138 1.415 1_565 S
C137 C142 1.490 . S
C138 H128 0.920 . S
C138 C137 1.415 1_545 S
C138 C141 1.385 . S
H139 C155 0.930 . S
H140 C156 0.931 . S
C141 H129 0.934 . S
C141 C135 1.405 1_545 S
C141 C138 1.385 . S
C142 C137 1.490 . S
C142 C144 1.395 . S
C142 C145 1.403 1_565 S
H143 C149 0.930 . S
C144 H130 0.930 . S
C144 C142 1.395 . S
C144 C147 1.403 . S
C145 C142 1.403 1_545 S
C145 C146 1.524 . S
C145 C149 1.400 . S
C146 H131 0.960 . S
C146 H132 0.960 . S
C146 H133 0.960 . S
C146 C145 1.524 . S
C147 C144 1.403 . S
C147 C148 1.392 . S
C147 C151 1.495 . S
C148 C147 1.392 . S
C148 C149 1.385 1_565 S
C148 C150 1.478 . S
C149 H143 0.930 . S
C149 C145 1.400 . S
C149 C148 1.385 1_545 S
C150 C148 1.478 . S
C150 C152 1.381 . S
C150 C156 1.383 . S
C151 C147 1.495 . S
C151 H157 0.959 . S
C151 H158 0.961 . S
C151 H159 0.960 . S
C152 C150 1.381 . S
C152 C153 1.393 1_565 S
C152 H160 0.946 . S
C153 C152 1.393 1_545 S
C153 C154 1.351 1_545 S
C153 H161 0.949 . S
C154 C153 1.351 1_565 S
C154 C155 1.394 . S
C155 H139 0.930 . S
C155 C154 1.394 . S
C155 C156 1.379 . S
C156 H140 0.931 . S
C156 C150 1.383 . S
C156 C155 1.379 . S
H157 C151 0.959 . S
H158 C151 0.961 . S
H159 C151 0.960 . S
H160 C152 0.946 . S
H161 C153 0.949 . S
H162 C170 0.929 . S
H163 C172 0.930 . S
H164 C174 0.930 . S
H165 C177 0.929 . S
H166 C180 0.930 . S
H167 C182 0.960 . S
H168 C182 0.960 . S
H169 C182 0.960 . S
C170 H162 0.929 . S
C170 C171 1.377 . S
C170 C172 1.384 . S
C171 C170 1.377 . S
C171 C177 1.390 . S
C172 H163 0.930 . S
C172 C170 1.384 . S
C172 C173 1.372 . S
C173 C172 1.372 . S
C173 C174 1.400 . S
C173 C178 1.490 . S
C174 H164 0.930 . S
C174 C173 1.400 . S
C174 C177 1.386 . S
H175 C191 0.930 . S
H176 C192 0.931 . S
C177 H165 0.929 . S
C177 C171 1.390 . S
C177 C174 1.386 . S
C178 C173 1.490 . S
C178 C180 1.395 . S
C178 C181 1.403 . S
H179 C185 0.930 . S
C180 H166 0.930 . S
C180 C178 1.395 . S
C180 C183 1.403 . S
C181 C178 1.403 . S
C181 C182 1.524 . S
C181 C185 1.400 . S
C182 H167 0.960 . S
C182 H168 0.960 . S
C182 H169 0.960 . S
C182 C181 1.524 . S
C183 C180 1.403 . S
C183 C184 1.392 . S
C183 C187 1.495 . S
C184 C183 1.392 . S
C184 C185 1.385 . S
C184 C186 1.478 . S
C185 H179 0.930 . S
C185 C181 1.400 . S
C185 C184 1.385 . S
C186 C184 1.478 . S
C186 C188 1.381 . S
C186 C192 1.383 . S
C187 C183 1.495 . S
C187 H193 0.959 . S
C187 H194 0.961 . S
C187 H195 0.960 . S
C188 C186 1.381 . S
C188 C189 1.394 . S
C188 H196 0.930 . S
C189 C188 1.394 . S
C189 C190 1.383 . S
C189 H197 0.929 . S
C190 C189 1.383 . S
C190 C191 1.377 . S
C191 H175 0.930 . S
C191 C190 1.377 . S
C191 C192 1.379 . S
C192 H176 0.931 . S
C192 C186 1.383 . S
C192 C191 1.379 . S
H193 C187 0.959 . S
H194 C187 0.961 . S
H195 C187 0.960 . S
H196 C188 0.930 . S
H197 C189 0.929 . S
H198 C206 0.929 . S
H199 C208 0.930 . S
H200 C210 0.930 . S
H201 C213 0.929 . S
H202 C216 0.930 . S
H203 C218 0.960 . S
H204 C218 0.960 . S
H205 C218 0.960 . S
C206 H198 0.929 . S
C206 C207 1.387 . S
C206 C208 1.384 . S
C207 C206 1.387 . S
C207 C213 1.381 1_556 S
C208 H199 0.930 . S
C208 C206 1.384 . S
C208 C209 1.372 . S
C209 C208 1.372 . S
C209 C210 1.400 1_556 S
C209 C214 1.490 . S
C210 H200 0.930 . S
C210 C209 1.400 1_554 S
C210 C213 1.386 . S
H211 C227 0.930 . S
H212 C228 0.931 . S
C213 H201 0.929 . S
C213 C207 1.381 1_554 S
C213 C210 1.386 . S
C214 C209 1.490 . S
C214 C216 1.395 . S
C214 C217 1.403 1_556 S
H215 C221 0.930 . S
C216 H202 0.930 . S
C216 C214 1.395 . S
C216 C219 1.403 . S
C217 C214 1.403 1_554 S
C217 C218 1.524 . S
C217 C221 1.400 . S
C218 H203 0.960 . S
C218 H204 0.960 . S
C218 H205 0.960 . S
C218 C217 1.524 . S
C219 C216 1.403 . S
C219 C220 1.392 . S
C219 C223 1.495 . S
C220 C219 1.392 . S
C220 C221 1.385 1_556 S
C220 C222 1.478 . S
C221 H215 0.930 . S
C221 C217 1.400 . S
C221 C220 1.385 1_554 S
C222 C220 1.478 . S
C222 C224 1.381 . S
C222 C228 1.383 1_556 S
C223 C219 1.495 . S
C223 H229 0.959 . S
C223 H230 0.961 . S
C223 H231 0.960 . S
C224 C222 1.381 . S
C224 C225 1.394 . S
C224 H232 0.930 . S
C225 C224 1.394 . S
C225 C226 1.383 . S
C225 H233 0.929 . S
C226 C225 1.383 . S
C226 C227 1.377 1_556 S
C227 H211 0.930 . S
C227 C226 1.377 1_554 S
C227 C228 1.379 . S
C228 H212 0.931 . S
C228 C222 1.383 1_554 S
C228 C227 1.379 . S
H229 C223 0.959 . S
H230 C223 0.961 . S
H231 C223 0.960 . S
H232 C224 0.930 . S
H233 C225 0.929 . S
H234 C242 0.929 . S
H235 C244 0.930 . S
H236 C246 0.930 . S
H237 C249 0.929 . S
H238 C252 0.930 . S
H239 C254 0.960 . S
H240 C254 0.960 . S
H241 C254 0.960 . S
C242 H234 0.929 . S
C242 C243 1.377 . S
C242 C244 1.384 . S
C243 C242 1.377 . S
C243 C249 1.390 1_554 S
C244 H235 0.930 . S
C244 C242 1.384 . S
C244 C245 1.372 . S
C245 C244 1.372 . S
C245 C246 1.400 1_554 S
C245 C250 1.490 . S
C246 H236 0.930 . S
C246 C245 1.400 1_556 S
C246 C249 1.386 . S
H247 C263 0.930 . S
H248 C264 0.931 . S
C249 H237 0.929 . S
C249 C243 1.390 1_556 S
C249 C246 1.386 . S
C250 C245 1.490 . S
C250 C252 1.395 1_554 S
C250 C253 1.403 . S
H251 C257 0.930 . S
C252 H238 0.930 . S
C252 C250 1.395 1_556 S
C252 C255 1.403 . S
C253 C250 1.403 . S
C253 C254 1.524 . S
C253 C257 1.400 . S
C254 H239 0.960 . S
C254 H240 0.960 . S
C254 H241 0.960 . S
C254 C253 1.524 . S
C255 C252 1.403 . S
C255 C256 1.396 . S
C255 C259 1.495 . S
C256 C255 1.396 . S
C256 C257 1.380 1_556 S
C256 C258 1.479 . S
C257 H251 0.930 . S
C257 C253 1.400 . S
C257 C256 1.380 1_554 S
C258 C256 1.479 . S
C258 C260 1.381 1_556 S
C258 C264 1.383 . S
C259 C255 1.495 . S
C259 H265 0.959 . S
C259 H266 0.961 . S
C259 H267 0.960 . S
C260 C258 1.381 1_554 S
C260 C261 1.394 . S
C260 H268 0.930 . S
C261 C260 1.394 . S
C261 C262 1.383 1_554 S
C261 H269 0.929 . S
C262 C261 1.383 1_556 S
C262 C263 1.377 . S
C263 H247 0.930 . S
C263 C262 1.377 . S
C263 C264 1.379 . S
C264 H248 0.931 . S
C264 C258 1.383 . S
C264 C263 1.379 . S
H265 C259 0.959 . S
H266 C259 0.961 . S
H267 C259 0.960 . S
H268 C260 0.930 . S
H269 C261 0.929 . S
H270 C278 0.929 . S
H271 C280 0.930 . S
H272 C282 0.930 . S
H273 C285 0.929 . S
H274 C288 0.930 . S
H275 C290 0.960 . S
H276 C290 0.960 . S
H277 C290 0.960 . S
C278 H270 0.929 . S
C278 C279 1.377 1_556 S
C278 C280 1.384 . S
C279 C278 1.377 1_554 S
C279 C285 1.390 . S
C280 H271 0.930 . S
C280 C278 1.384 . S
C280 C281 1.372 1_556 S
C281 C280 1.372 1_554 S
C281 C282 1.400 . S
C281 C286 1.490 . S
C282 H272 0.930 . S
C282 C281 1.400 . S
C282 C285 1.386 . S
H283 C299 0.930 . S
H284 C300 0.931 . S
C285 H273 0.929 . S
C285 C279 1.390 . S
C285 C282 1.386 . S
C286 C281 1.490 . S
C286 C288 1.395 1_554 S
C286 C289 1.403 . S
H287 C293 0.930 . S
C288 H274 0.930 . S
C288 C286 1.395 1_556 S
C288 C291 1.403 . S
C289 C286 1.403 . S
C289 C290 1.524 . S
C289 C293 1.400 . S
C290 H275 0.960 . S
C290 H276 0.960 . S
C290 H277 0.960 . S
C290 C289 1.524 . S
C291 C288 1.403 . S
C291 C292 1.392 1_556 S
C291 C295 1.495 . S
C292 C291 1.392 1_554 S
C292 C293 1.385 . S
C292 C294 1.478 . S
C293 H287 0.930 . S
C293 C289 1.400 . S
C293 C292 1.385 . S
C294 C292 1.478 . S
C294 C296 1.381 1_554 S
C294 C300 1.383 . S
C295 C291 1.495 . S
C295 H301 0.959 . S
C295 H302 0.961 . S
C295 H303 0.960 . S
C296 C294 1.381 1_556 S
C296 C297 1.394 . S
C296 H304 0.930 . S
C297 C296 1.394 . S
C297 C298 1.383 1_556 S
C297 H305 0.929 . S
C298 C297 1.383 1_554 S
C298 C299 1.377 . S
C299 H283 0.930 . S
C299 C298 1.377 . S
C299 C300 1.379 . S
C300 H284 0.931 . S
C300 C294 1.383 . S
C300 C299 1.379 . S
H301 C295 0.959 . S
H302 C295 0.961 . S
H303 C295 0.960 . S
H304 C296 0.930 . S
H305 C297 0.929 . S
H306 C314 0.929 . S
H307 C316 0.930 . S
H308 C318 0.930 . S
H309 C321 0.929 . S
H310 C324 0.930 . S
H311 C326 0.960 . S
H312 C326 0.960 . S
H313 C326 0.960 . S
C314 H306 0.929 . S
C314 C315 1.383 . S
C314 C316 1.384 . S
C315 C314 1.383 . S
C315 C321 1.383 1_556 S
C316 H307 0.930 . S
C316 C314 1.384 . S
C316 C317 1.372 . S
C317 C316 1.372 . S
C317 C318 1.400 1_556 S
C317 C322 1.490 . S
C318 H308 0.930 . S
C318 C317 1.400 1_554 S
C318 C321 1.386 . S
H319 C335 0.930 . S
H320 C336 0.931 . S
C321 H309 0.929 . S
C321 C315 1.383 1_554 S
C321 C318 1.386 . S
C322 C317 1.490 . S
C322 C324 1.395 . S
C322 C325 1.403 1_556 S
H323 C329 0.930 . S
C324 H310 0.930 . S
C324 C322 1.395 . S
C324 C327 1.403 . S
C325 C322 1.403 1_554 S
C325 C326 1.524 . S
C325 C329 1.400 . S
C326 H311 0.960 . S
C326 H312 0.960 . S
C326 H313 0.960 . S
C326 C325 1.524 . S
C327 C324 1.403 . S
C327 C328 1.392 . S
C327 C331 1.495 . S
C328 C327 1.392 . S
C328 C329 1.385 1_556 S
C328 C330 1.478 . S
C329 H323 0.930 . S
C329 C325 1.400 . S
C329 C328 1.385 1_554 S
C330 C328 1.478 . S
C330 C332 1.381 . S
C330 C336 1.383 1_556 S
C331 C327 1.495 . S
C331 H337 0.959 . S
C331 H338 0.961 . S
C331 H339 0.960 . S
C332 C330 1.381 . S
C332 C333 1.394 . S
C332 H340 0.930 . S
C333 C332 1.394 . S
C333 C334 1.383 1_556 S
C333 H341 0.929 . S
C334 C333 1.383 1_554 S
C334 C335 1.377 . S
C335 H319 0.930 . S
C335 C334 1.377 . S
C335 C336 1.379 . S
C336 H320 0.931 . S
C336 C330 1.383 1_554 S
C336 C335 1.379 . S
H337 C331 0.959 . S
H338 C331 0.961 . S
H339 C331 0.960 . S
H340 C332 0.930 . S
H341 C333 0.929 . S
H342 C350 0.929 . S
H343 C352 0.930 . S
H344 C354 0.930 . S
H345 C357 0.929 . S
H346 C360 0.930 . S
H347 C362 0.960 . S
H348 C362 0.960 . S
H349 C362 0.960 . S
C350 H342 0.929 . S
C350 C351 1.376 1_556 S
C350 C352 1.384 . S
C351 C350 1.376 1_554 S
C351 C357 1.391 . S
C352 H343 0.930 . S
C352 C350 1.384 . S
C352 C353 1.375 . S
C353 C352 1.375 . S
C353 C354 1.396 1_556 S
C353 C358 1.491 . S
C354 H344 0.930 . S
C354 C353 1.396 1_554 S
C354 C357 1.386 . S
H355 C371 0.930 1_554 S
H356 C372 0.931 . S
C357 H345 0.929 . S
C357 C351 1.391 . S
C357 C354 1.386 . S
C358 C353 1.491 . S
C358 C360 1.395 . S
C358 C361 1.403 1_556 S
H359 C365 0.930 . S
C360 H346 0.930 . S
C360 C358 1.395 . S
C360 C363 1.403 . S
C361 C358 1.403 1_554 S
C361 C362 1.524 . S
C361 C365 1.400 . S
C362 H347 0.960 . S
C362 H348 0.960 . S
C362 H349 0.960 . S
C362 C361 1.524 . S
C363 C360 1.403 . S
C363 C364 1.392 . S
C363 C367 1.495 . S
C364 C363 1.392 . S
C364 C365 1.385 1_556 S
C364 C366 1.478 . S
C365 H359 0.930 . S
C365 C361 1.400 . S
C365 C364 1.385 1_554 S
C366 C364 1.478 . S
C366 C368 1.381 . S
C366 C372 1.383 . S
C367 C363 1.495 . S
C367 H373 0.959 . S
C367 H374 0.961 . S
C367 H375 0.960 . S
C368 C366 1.381 . S
C368 C369 1.394 . S
C368 H376 0.930 . S
C369 C368 1.394 . S
C369 C370 1.383 . S
C369 H377 0.929 . S
C370 C369 1.383 . S
C370 C371 1.377 . S
C371 H355 0.930 1_556 S
C371 C370 1.377 . S
C371 C372 1.379 . S
C372 H356 0.931 . S
C372 C366 1.383 . S
C372 C371 1.379 . S
H373 C367 0.959 . S
H374 C367 0.961 . S
H375 C367 0.960 . S
H376 C368 0.930 . S
H377 C369 0.929 . S
H378 C386 0.929 . S
H379 C388 0.930 . S
H380 C390 0.930 . S
H381 C393 0.929 . S
H382 C396 0.930 . S
H383 C398 0.960 . S
H384 C398 0.960 1_556 S
H385 C398 0.960 . S
C386 H378 0.929 . S
C386 C387 1.377 . S
C386 C388 1.384 . S
C387 C386 1.377 . S
C387 C393 1.390 1_556 S
C388 H379 0.930 . S
C388 C386 1.384 . S
C388 C389 1.372 . S
C389 C388 1.372 . S
C389 C390 1.400 1_556 S
C389 C394 1.490 . S
C390 H380 0.930 . S
C390 C389 1.400 1_554 S
C390 C393 1.386 . S
H391 C407 0.930 . S
H392 C408 0.931 . S
C393 H381 0.929 . S
C393 C387 1.390 1_554 S
C393 C390 1.386 . S
C394 C389 1.490 . S
C394 C396 1.395 . S
C394 C397 1.403 . S
H395 C401 0.930 1_554 S
C396 H382 0.930 . S
C396 C394 1.395 . S
C396 C399 1.403 . S
C397 C394 1.403 . S
C397 C398 1.524 1_556 S
C397 C401 1.400 . S
C398 H383 0.960 . S
C398 H384 0.960 1_554 S
C398 H385 0.960 . S
C398 C397 1.524 1_554 S
C399 C396 1.403 . S
C399 C400 1.392 . S
C399 C403 1.495 . S
C400 C399 1.392 . S
C400 C401 1.385 . S
C400 C402 1.478 . S
C401 H395 0.930 1_556 S
C401 C397 1.400 . S
C401 C400 1.385 . S
C402 C400 1.478 . S
C402 C404 1.381 . S
C402 C408 1.383 1_556 S
C403 C399 1.495 . S
C403 H409 0.959 . S
C403 H410 0.961 . S
C403 H411 0.960 . S
C404 C402 1.381 . S
C404 C405 1.394 . S
C404 H412 0.930 . S
C405 C404 1.394 . S
C405 C406 1.383 . S
C405 H413 0.929 . S
C406 C405 1.383 . S
C406 C407 1.377 1_556 S
C407 H391 0.930 . S
C407 C406 1.377 1_554 S
C407 C408 1.379 . S
C408 H392 0.931 . S
C408 C402 1.383 1_554 S
C408 C407 1.379 . S
H409 C403 0.959 . S
H410 C403 0.961 . S
H411 C403 0.960 . S
H412 C404 0.930 . S
H413 C405 0.929 . S
C99 C1 1.493 . S
C118 C10 1.488 1_455 S
C135 C40 1.503 . S
C154 C31 1.492 1_565 S
C171 C70 1.499 . S
C190 C61 1.491 . S
C207 C27 1.496 . S
C226 C87 1.473 . S
C243 C57 1.014 . S
C262 N6 0.983 . S
C279 N36 0.635 1_554 S
C298 N74 0.620 1_554 S
C315 C16 1.496 1_556 S
C334 C76 1.477 . S
C351 N14 1.006 . S
C370 C46 1.012 . S
C387 N66 0.648 1_556 S
C406 N44 0.640 1_556 S
