# Generated by pormake.
# Topology qdl, (4)-cn, num edge types: 1
# Building blocks:
#     Node 0, Type 0, BuildingBlock: NAWXER_clean_sbu_0, # of connection points: 4
#     Node 1, Type 0, BuildingBlock: NAWXER_clean_sbu_0, # of connection points: 4
#     Node 2, Type 0, BuildingBlock: NAWXER_clean_sbu_0, # of connection points: 4
#     Node 3, Type 0, BuildingBlock: NAWXER_clean_sbu_0, # of connection points: 4
#     Node 4, Type 0, BuildingBlock: NAWXER_clean_sbu_0, # of connection points: 4
#     Node 5, Type 0, BuildingBlock: NAWXER_clean_sbu_0, # of connection points: 4
#     Edge 6, Type (0, 0), BuildingBlock: CIFDUS_clean_linker_0, # of connection points: 2
#     Edge 7, Type (0, 0), BuildingBlock: CIFDUS_clean_linker_0, # of connection points: 2
#     Edge 8, Type (0, 0), BuildingBlock: CIFDUS_clean_linker_0, # of connection points: 2
#     Edge 9, Type (0, 0), BuildingBlock: CIFDUS_clean_linker_0, # of connection points: 2
#     Edge 10, Type (0, 0), BuildingBlock: CIFDUS_clean_linker_0, # of connection points: 2
#     Edge 11, Type (0, 0), BuildingBlock: CIFDUS_clean_linker_0, # of connection points: 2
#     Edge 12, Type (0, 0), BuildingBlock: CIFDUS_clean_linker_0, # of connection points: 2
#     Edge 13, Type (0, 0), BuildingBlock: CIFDUS_clean_linker_0, # of connection points: 2
#     Edge 14, Type (0, 0), BuildingBlock: CIFDUS_clean_linker_0, # of connection points: 2
#     Edge 15, Type (0, 0), BuildingBlock: CIFDUS_clean_linker_0, # of connection points: 2
#     Edge 16, Type (0, 0), BuildingBlock: CIFDUS_clean_linker_0, # of connection points: 2
#     Edge 17, Type (0, 0), BuildingBlock: CIFDUS_clean_linker_0, # of connection points: 2
# Relax obj value: 0.000
# Max RMSD: 0.024
# Mean RMSD: 0.019
data_MOF--net-qdl--node1-NAWXER_clean_sbu_0--edge1-CIFDUS_clean_linker_0
_symmetry_space_group_name_H-M    P1
_symmetry_Int_Tables_number       1
_symmetry_cell_setting            triclinic
loop_
_symmetry_equiv_pos_as_xyz
'x, y, z'
_cell_length_a     12.869054
_cell_length_b     12.863739
_cell_length_c     76.638895
_cell_angle_alpha  94.311385
_cell_angle_beta   94.410016
_cell_angle_gamma 120.12447
loop_
_atom_site_label
_atom_site_type_symbol
_atom_site_fract_x
_atom_site_fract_y
_atom_site_fract_z
_atom_type_partial_charge
C0 C 0.96917 0.90461 0.09163 0.0
C1 C 1.00998 0.30597 0.09427 0.0
O2 O 0.07857 0.99376 0.09408 0.0
Zn3 Zn 0.17685 0.18551 0.09631 0.0
O4 O 0.88241 0.92527 0.08956 0.0
Zn5 Zn 0.98374 0.10301 0.09234 0.0
O6 O 0.0697 0.13654 0.06865 0.0
O7 O 0.26628 0.21652 0.07642 0.0
O8 O 0.91063 0.20474 0.09171 0.0
O9 O 0.11066 0.30756 0.09602 0.0
O10 O 0.26494 0.22943 0.11963 0.0
O11 O 0.06726 0.1456 0.11956 0.0
C12 C 0.17707 0.17952 0.06443 0.0
C13 C 0.17421 0.19313 0.12808 0.0
C14 C 0.13055 0.85906 0.41664 0.0
C15 C 0.77246 0.90203 0.41689 0.0
O16 O 1.02092 0.77406 0.41234 0.0
Zn17 Zn 0.94729 0.87359 0.41692 0.0
O18 O 0.15341 0.96596 0.42207 0.0
Zn19 Zn 0.0626 0.06286 0.42661 0.0
O20 O 0.10262 0.11571 0.45173 0.0
O21 O 0.98414 0.91746 0.44517 0.0
O22 O 0.87383 1.00001 0.42208 0.0
O23 O 0.77135 0.80385 0.41263 0.0
O24 O 1.00955 0.99448 0.39708 0.0
O25 O 0.12884 0.18173 0.41052 0.0
C26 C 0.04359 1.01178 0.45675 0.0
C27 C 0.07808 0.10831 0.39634 0.0
C28 C 0.10502 0.17884 0.79196 0.0
C29 C 0.06501 0.16392 0.72802 0.0
O30 O 0.0408 0.22343 0.78645 0.0
Zn31 Zn 0.97794 0.2543 0.76153 0.0
O32 O 0.14996 0.13957 0.78091 0.0
Zn33 Zn 0.08502 0.17111 0.75988 0.0
O34 O 0.18249 0.3638 0.76158 0.0
O35 O 0.05599 0.4311 0.76391 0.0
O36 O 0.11851 0.12414 0.73766 0.0
O37 O 1.01032 0.21335 0.73513 0.0
O38 O 0.80147 0.15242 0.76041 0.0
O39 O 0.89555 0.04928 0.75832 0.0
C40 C 0.16301 0.4523 0.76292 0.0
C41 C 0.79715 0.05113 0.75864 0.0
C42 C 0.07894 0.02612 0.62524 0.0
C43 C 0.06934 0.03264 0.56164 0.0
O44 O 0.11389 0.11749 0.61693 0.0
Zn45 Zn 0.07466 0.03128 0.59355 0.0
O46 O 0.03398 0.91976 0.61667 0.0
Zn47 Zn 0.99184 0.83791 0.58942 0.0
O48 O 0.09389 0.76517 0.58864 0.0
O49 O 0.19676 0.96511 0.59351 0.0
O50 O 1.02418 0.92499 0.56586 0.0
O51 O 0.10937 0.122 0.57371 0.0
O52 O 0.88272 0.93302 0.59093 0.0
O53 O 0.81408 0.73672 0.58659 0.0
C54 C 0.19515 0.86445 0.59154 0.0
C55 C 0.7935 0.82364 0.58849 0.0
C56 C 0.16373 0.18888 0.96029 0.0
C57 C 0.13004 0.16802 0.89637 0.0
O58 O 0.10757 0.22308 0.95007 0.0
Zn59 Zn 0.14765 0.17817 0.92843 0.0
O60 O 0.22306 0.14263 0.9538 0.0
Zn61 Zn 0.25677 0.0976 0.92761 0.0
O62 O 0.43295 0.19994 0.92891 0.0
O63 O 0.33751 0.30209 0.93038 0.0
O64 O 0.19517 0.12509 0.90219 0.0
O65 O 0.08364 0.20702 0.90719 0.0
O66 O 0.05184 0.98644 0.92708 0.0
O67 O 0.17983 0.92049 0.92578 0.0
C68 C 0.43648 0.30088 0.93038 0.0
C69 C 0.07216 0.89855 0.9263 0.0
C70 C 0.12182 0.19652 0.29494 0.0
C71 C 0.14746 0.20081 0.23207 0.0
O72 O 0.03771 0.15909 0.28213 0.0
Zn73 Zn 0.13633 0.20146 0.2635 0.0
O74 O 0.23251 0.24585 0.29191 0.0
Zn75 Zn 0.32775 0.28568 0.26891 0.0
O76 O 0.42814 0.46311 0.2726 0.0
O77 O 0.23235 0.39408 0.26672 0.0
O78 O 0.25311 0.24838 0.24107 0.0
O79 O 0.05453 0.1617 0.24006 0.0
O80 O 0.20369 0.08082 0.26377 0.0
O81 O 0.40284 0.1853 0.26995 0.0
C82 C 0.34154 0.48354 0.26999 0.0
C83 C 0.30459 0.08353 0.26631 0.0
H84 H 0.13668 0.84697 0.10128 0.0
H85 H 0.75627 0.6829 0.0823 0.0
H86 H 0.73231 0.48046 0.08186 0.0
H87 H 0.824 0.35104 0.08618 0.0
H88 H 0.20671 0.52689 0.10514 0.0
H89 H 0.22441 0.72344 0.10624 0.0
C90 C 0.04802 0.76737 0.09699 0.0
C91 C 0.94867 0.78036 0.09167 0.0
C92 C 0.03538 0.65292 0.09675 0.0
C93 C 0.83448 0.67555 0.08641 0.0
C94 C 0.8209 0.55988 0.08614 0.0
C95 C 0.91086 0.43247 0.09062 0.0
C96 C 1.01393 0.42352 0.09543 0.0
C97 C 0.92125 0.54742 0.09119 0.0
C98 C 0.12587 0.53019 0.10118 0.0
C99 C 0.13643 0.64325 0.10186 0.0
H100 H 0.3647 0.03251 0.4192 0.0
H101 H 0.13047 0.64363 0.41061 0.0
H102 H 0.30838 0.62045 0.4093 0.0
H103 H 0.53353 0.71382 0.41159 0.0
H104 H 0.75843 0.10483 0.42027 0.0
H105 H 0.58064 0.12322 0.42054 0.0
C106 C 0.3516 0.94213 0.41707 0.0
C107 C 0.23428 0.83995 0.41518 0.0
C108 C 0.45312 0.92989 0.41637 0.0
C109 C 0.21988 0.72394 0.41217 0.0
C110 C 0.32163 0.71078 0.41145 0.0
C111 C 0.5432 0.80278 0.41345 0.0
C112 C 0.65984 0.90762 0.41605 0.0
C113 C 0.4392 0.81345 0.41366 0.0
C114 C 0.67054 0.02231 0.4184 0.0
C115 C 0.56868 0.03331 0.41854 0.0
H116 H 0.57399 1.00576 0.76692 0.0
H117 H 0.76112 0.83139 0.74676 0.0
H118 H 0.5816 0.6341 0.74608 0.0
H119 H 0.37663 0.50965 0.75218 0.0
H120 H 0.18056 0.67338 0.77219 0.0
H121 H 0.35803 0.87599 0.77187 0.0
C122 C 0.5747 0.9245 0.76224 0.0
C123 C 0.68164 0.9338 0.75707 0.0
C124 C 0.47008 0.80936 0.76196 0.0
C125 C 0.68102 0.82747 0.75103 0.0
C126 C 0.5782 0.71412 0.7506 0.0
C127 C 0.3721 0.58933 0.75654 0.0
C128 C 0.266 0.5763 0.76243 0.0
C129 C 0.47323 0.70399 0.75627 0.0
C130 C 0.26152 0.68094 0.76769 0.0
C131 C 0.36299 0.79668 0.76751 0.0
H132 H 0.24024 0.67906 0.58298 0.0
H133 H 0.41599 0.06028 0.6029 0.0
H134 H 0.61251 0.07799 0.6039 0.0
H135 H 0.73607 0.99065 0.59857 0.0
H136 H 0.57176 0.61153 0.57872 0.0
H137 H 0.36948 0.58766 0.57835 0.0
C138 C 0.32163 0.76559 0.58762 0.0
C139 C 0.31266 0.86827 0.59273 0.0
C140 C 0.43652 0.77596 0.58813 0.0
C141 C 0.4193 0.97977 0.59872 0.0
C142 C 0.53233 0.99032 0.59934 0.0
C143 C 0.65643 0.90233 0.59409 0.0
C144 C 0.66933 0.8033 0.58852 0.0
C145 C 0.54201 0.88969 0.59393 0.0
C146 C 0.56448 0.68948 0.58304 0.0
C147 C 0.4489 0.67595 0.58281 0.0
H148 H 0.66132 0.34565 0.92309 0.0
H149 H 0.47045 0.52154 0.94111 0.0
H150 H 0.65019 0.71856 0.9417 0.0
H151 H 0.85649 0.84209 0.93613 0.0
H152 H 0.05635 0.67697 0.9182 0.0
H153 H 0.87848 0.47473 0.91865 0.0
C154 C 0.6598 0.42721 0.92729 0.0
C155 C 0.5518 0.41836 0.93189 0.0
C156 C 0.76457 0.54214 0.92751 0.0
C157 C 0.55139 0.52506 0.9373 0.0
C158 C 0.65435 0.63825 0.93767 0.0
C159 C 0.86182 0.7622 0.93224 0.0
C160 C 0.96912 0.77472 0.92691 0.0
C161 C 0.76046 0.64782 0.93257 0.0
C162 C 0.9745 0.66982 0.92228 0.0
C163 C 0.8728 0.55431 0.92252 0.0
H164 H 0.18047 0.5431 0.25759 0.0
H165 H 0.5499 0.70382 0.28219 0.0
H166 H 0.57493 0.90668 0.2827 0.0
H167 H 0.48634 0.0372 0.27696 0.0
H168 H 0.11493 0.8652 0.2522 0.0
H169 H 0.09696 0.66842 0.25097 0.0
C170 C 0.26684 0.62212 0.26313 0.0
C171 C 0.36268 0.60803 0.27003 0.0
C172 C 0.2802 0.73692 0.26336 0.0
C173 C 0.47435 0.71207 0.27686 0.0
C174 C 0.48854 0.82798 0.27716 0.0
C175 C 0.40204 0.95661 0.2712 0.0
C176 C 0.3019 0.96654 0.26485 0.0
C177 C 0.39144 0.84152 0.27056 0.0
C178 C 0.19325 0.86098 0.25739 0.0
C179 C 0.18257 0.74781 0.25664 0.0
H180 H 0.32527 0.27446 0.21068 0.0
H181 H 0.93741 0.10547 0.20949 0.0
H182 H 0.91223 0.08889 0.17739 0.0
H183 H 0.99918 0.12165 0.14965 0.0
H184 H 0.38658 0.2901 0.1505 0.0
H185 H 0.4127 0.3075 0.18272 0.0
C186 C 0.23522 0.23402 0.2034 0.0
C187 C 0.13349 0.19134 0.21254 0.0
C188 C 0.22111 0.22461 0.18487 0.0
C189 C 1.01747 0.13916 0.20286 0.0
C190 C 1.00282 0.12957 0.18447 0.0
C191 C 0.08949 0.16231 0.15685 0.0
C192 C 0.1907 0.2045 0.14763 0.0
C193 C 0.1039 0.17194 0.17534 0.0
C194 C 0.30696 0.25682 0.15723 0.0
C195 C 0.32204 0.26682 0.17567 0.0
H196 H 0.98303 0.85958 0.53326 0.0
H197 H 0.16903 0.24761 0.54764 0.0
H198 H 0.17943 0.27614 0.51648 0.0
H199 H 0.13488 0.19006 0.48505 0.0
H200 H 0.94668 0.80117 0.47122 0.0
H201 H 0.93852 0.77436 0.50226 0.0
C202 C 0.02595 0.9506 0.52963 0.0
C203 C 0.07516 0.05122 0.5428 0.0
C204 C 0.03142 0.96631 0.51175 0.0
C205 C 0.13021 0.1684 0.53779 0.0
C206 C 0.13633 0.18483 0.51996 0.0
C207 C 0.0924 0.09952 0.48884 0.0
C208 C 0.04154 0.99789 0.47577 0.0
C209 C 0.08723 0.08435 0.50681 0.0
C210 C 0.9864 0.88116 0.48094 0.0
C211 C 0.98162 0.86553 0.49872 0.0
H212 H 1.00916 0.24057 0.81842 0.0
H213 H 0.24172 0.09709 0.80836 0.0
H214 H 0.2686 0.07953 0.83968 0.0
H215 H 0.22611 0.10489 0.86994 0.0
H216 H 0.99306 0.24817 0.87982 0.0
H217 H 0.96623 0.26522 0.84854 0.0
C218 C 0.06605 0.20572 0.82305 0.0
C219 C 0.12348 0.17048 0.81102 0.0
C220 C 0.08078 0.19539 0.84106 0.0
C221 C 0.19647 0.12508 0.8173 0.0
C222 C 0.21184 0.11485 0.83523 0.0
C223 C 0.16916 0.13955 0.86526 0.0
C224 C 0.11171 0.1751 0.87726 0.0
C225 C 0.15429 0.14957 0.84722 0.0
C226 C 0.03844 0.22006 0.87092 0.0
C227 C 1.02307 0.23003 0.85302 0.0
H228 H 0.03439 0.1926 0.03794 0.0
H229 H 0.36259 0.18224 0.04893 0.0
H230 H 0.38854 0.18517 0.01762 0.0
H231 H 0.31444 0.18549 0.98696 0.0
H232 H 0.99185 0.20712 0.97654 0.0
H233 H 0.96761 0.20563 1.00778 0.0
C234 C 0.11158 0.19092 0.03347 0.0
C235 C 0.19578 0.18598 0.04567 0.0
C236 C 0.12699 0.19484 0.01556 0.0
C237 C 0.29647 0.18594 0.03977 0.0
C238 C 0.31119 0.18736 0.02187 0.0
C239 C 0.23915 0.1903 0.99156 0.0
C240 C 0.15476 0.19575 0.97942 0.0
C241 C 0.22655 0.19105 1.00962 0.0
C242 C 0.05834 0.20324 0.9856 0.0
C243 C 0.04406 0.20191 1.00346 0.0
H244 H 0.26683 0.31784 0.32605 0.0
H245 H 0.90816 0.0264 0.30439 0.0
H246 H 0.86161 0.9767 0.33396 0.0
H247 H 0.92652 1.00777 0.36576 0.0
H248 H 0.28018 0.30496 0.38795 0.0
H249 H 0.32472 0.36164 0.35843 0.0
C250 C 0.17829 0.24406 0.32785 0.0
C251 C 0.09154 0.17517 0.31304 0.0
C252 C 0.15135 0.21688 0.34496 0.0
C253 C 0.97656 0.08086 0.31556 0.0
C254 C 0.94993 0.05202 0.33246 0.0
C255 C 1.01303 0.08548 0.36413 0.0
C256 C 0.1005 0.15129 0.37893 0.0
C257 C 0.03721 0.11816 0.34721 0.0
C258 C 0.21144 0.25295 0.37672 0.0
C259 C 0.2371 0.28495 0.35985 0.0
H260 H 0.06259 0.19577 0.64615 0.0
H261 H 0.10831 0.88652 0.64773 0.0
H262 H 0.11232 0.90424 0.6798 0.0
H263 H 0.09814 1.00486 0.70732 0.0
H264 H 0.03692 0.3045 0.70547 0.0
H265 H 0.04313 0.2932 0.67361 0.0
C266 C 0.07445 0.13304 0.65357 0.0
C267 C 0.08605 0.04059 0.64466 0.0
C268 C 0.07303 0.14157 0.67193 0.0
C269 C 0.09919 0.95844 0.65434 0.0
C270 C 0.10148 0.96851 0.67266 0.0
C271 C 0.08653 0.06785 0.69994 0.0
C272 C 0.06743 0.15554 0.70873 0.0
C273 C 0.08767 0.0592 0.68158 0.0
C274 C 0.05116 0.23575 0.69898 0.0
C275 C 0.05511 0.22964 0.68078 0.0
loop_
_geom_bond_atom_site_label_1
_geom_bond_atom_site_label_2
_geom_bond_distance
_geom_bond_site_symmetry_2
_ccdc_geom_bond_type
C0 O2 1.247 1_565 S
C0 O4 1.258 . S
C1 O8 1.247 . S
C1 O9 1.258 . S
O2 C0 1.247 1_545 S
O2 Zn3 2.028 . S
Zn3 O2 2.028 . S
Zn3 O7 2.035 . S
Zn3 O9 2.035 . S
Zn3 O10 2.028 . S
O4 C0 1.258 . S
O4 Zn5 2.035 1_565 S
Zn5 O4 2.035 1_545 S
Zn5 O6 2.028 . S
Zn5 O8 2.028 . S
Zn5 O11 2.035 . S
O6 Zn5 2.028 . S
O6 C12 1.247 . S
O7 Zn3 2.035 . S
O7 C12 1.258 . S
O8 C1 1.247 . S
O8 Zn5 2.028 . S
O9 C1 1.258 . S
O9 Zn3 2.035 . S
O10 Zn3 2.028 . S
O10 C13 1.247 . S
O11 Zn5 2.035 . S
O11 C13 1.258 . S
C12 O6 1.247 . S
C12 O7 1.258 . S
C13 O10 1.247 . S
C13 O11 1.258 . S
C14 O16 1.247 1_545 S
C14 O18 1.258 . S
C15 O22 1.247 . S
C15 O23 1.258 1_545 S
O16 C14 1.247 1_565 S
O16 Zn17 2.028 1_455 S
Zn17 O16 2.028 1_655 S
Zn17 O21 2.035 1_655 S
Zn17 O23 2.035 . S
Zn17 O24 2.028 1_655 S
O18 C14 1.258 . S
O18 Zn19 2.035 . S
Zn19 O18 2.035 . S
Zn19 O20 2.028 . S
Zn19 O22 2.028 1_455 S
Zn19 O25 2.035 . S
O20 Zn19 2.028 . S
O20 C26 1.247 . S
O21 Zn17 2.035 1_455 S
O21 C26 1.258 1_565 S
O22 C15 1.247 . S
O22 Zn19 2.028 1_655 S
O23 C15 1.258 1_565 S
O23 Zn17 2.035 . S
O24 Zn17 2.028 1_455 S
O24 C27 1.247 1_565 S
O25 Zn19 2.035 . S
O25 C27 1.258 . S
C26 O20 1.247 . S
C26 O21 1.258 1_545 S
C27 O24 1.247 1_545 S
C27 O25 1.258 . S
C28 O30 1.247 1_455 S
C28 O32 1.258 . S
C29 O36 1.247 . S
C29 O37 1.258 1_455 S
O30 C28 1.247 1_655 S
O30 Zn31 2.028 . S
Zn31 O30 2.028 . S
Zn31 O35 2.035 1_655 S
Zn31 O37 2.035 . S
Zn31 O38 2.028 1_545 S
O32 C28 1.258 . S
O32 Zn33 2.035 . S
Zn33 O32 2.035 . S
Zn33 O34 2.028 . S
Zn33 O36 2.028 . S
Zn33 O39 2.035 1_445 S
O34 Zn33 2.028 . S
O34 C40 1.247 . S
O35 Zn31 2.035 1_455 S
O35 C40 1.258 . S
O36 C29 1.247 . S
O36 Zn33 2.028 . S
O37 C29 1.258 1_655 S
O37 Zn31 2.035 . S
O38 Zn31 2.028 1_565 S
O38 C41 1.247 . S
O39 Zn33 2.035 1_665 S
O39 C41 1.258 . S
C40 O34 1.247 . S
C40 O35 1.258 . S
C41 O38 1.247 . S
C41 O39 1.258 . S
C42 O44 1.247 . S
C42 O46 1.258 1_445 S
C43 O50 1.247 1_455 S
C43 O51 1.258 1_565 S
O44 C42 1.247 . S
O44 Zn45 2.028 . S
Zn45 O44 2.028 . S
Zn45 O49 2.035 . S
Zn45 O51 2.035 . S
Zn45 O52 2.028 1_455 S
O46 C42 1.258 1_665 S
O46 Zn47 2.035 . S
Zn47 O46 2.035 . S
Zn47 O48 2.028 1_655 S
Zn47 O50 2.028 . S
Zn47 O53 2.035 . S
O48 Zn47 2.028 1_455 S
O48 C54 1.247 1_565 S
O49 Zn45 2.035 . S
O49 C54 1.258 . S
O50 C43 1.247 1_655 S
O50 Zn47 2.028 . S
O51 C43 1.258 1_545 S
O51 Zn45 2.035 . S
O52 Zn45 2.028 1_655 S
O52 C55 1.247 . S
O53 Zn47 2.035 . S
O53 C55 1.258 1_565 S
C54 O48 1.247 1_545 S
C54 O49 1.258 . S
C55 O52 1.247 . S
C55 O53 1.258 1_545 S
C56 O58 1.247 . S
C56 O60 1.258 . S
C57 O64 1.247 . S
C57 O65 1.258 1_455 S
O58 C56 1.247 . S
O58 Zn59 2.028 1_455 S
Zn59 O58 2.028 1_655 S
Zn59 O63 2.035 1_655 S
Zn59 O65 2.035 . S
Zn59 O66 2.028 . S
O60 C56 1.258 . S
O60 Zn61 2.035 . S
Zn61 O60 2.035 . S
Zn61 O62 2.028 . S
Zn61 O64 2.028 . S
Zn61 O67 2.035 1_445 S
O62 Zn61 2.028 . S
O62 C68 1.247 . S
O63 Zn59 2.035 1_455 S
O63 C68 1.258 . S
O64 C57 1.247 . S
O64 Zn61 2.028 . S
O65 C57 1.258 1_655 S
O65 Zn59 2.035 . S
O66 Zn59 2.028 . S
O66 C69 1.247 1_545 S
O67 Zn61 2.035 1_665 S
O67 C69 1.258 . S
C68 O62 1.247 . S
C68 O63 1.258 . S
C69 O66 1.247 1_565 S
C69 O67 1.258 . S
C70 O72 1.247 . S
C70 O74 1.258 . S
C71 O78 1.247 . S
C71 O79 1.258 . S
O72 C70 1.247 . S
O72 Zn73 2.028 . S
Zn73 O72 2.028 . S
Zn73 O77 2.035 . S
Zn73 O79 2.035 . S
Zn73 O80 2.028 1_545 S
O74 C70 1.258 . S
O74 Zn75 2.035 . S
Zn75 O74 2.035 . S
Zn75 O76 2.028 . S
Zn75 O78 2.028 . S
Zn75 O81 2.035 . S
O76 Zn75 2.028 . S
O76 C82 1.247 . S
O77 Zn73 2.035 . S
O77 C82 1.258 . S
O78 C71 1.247 . S
O78 Zn75 2.028 . S
O79 C71 1.258 . S
O79 Zn73 2.035 . S
O80 Zn73 2.028 1_565 S
O80 C83 1.247 . S
O81 Zn75 2.035 . S
O81 C83 1.258 1_545 S
C82 O76 1.247 . S
C82 O77 1.258 . S
C83 O80 1.247 . S
C83 O81 1.258 1_565 S
H84 C90 0.930 . S
H85 C93 0.930 1_655 S
H86 C94 0.930 1_655 S
H87 C95 0.930 . S
H88 C98 0.930 . S
H89 C99 0.930 . S
C90 H84 0.930 . S
C90 C91 1.355 . S
C90 C92 1.415 . S
C91 C90 1.355 . S
C91 C93 1.419 . S
C92 C90 1.415 . S
C92 C97 1.425 . S
C92 C99 1.409 . S
C93 H85 0.930 1_455 S
C93 C91 1.419 . S
C93 C94 1.362 . S
C94 H86 0.930 1_455 S
C94 C93 1.362 . S
C94 C97 1.409 . S
C95 H87 0.930 . S
C95 C96 1.355 . S
C95 C97 1.415 . S
C96 C95 1.355 . S
C96 C98 1.419 . S
C97 C92 1.425 . S
C97 C94 1.409 . S
C97 C95 1.415 . S
C98 H88 0.930 . S
C98 C96 1.419 . S
C98 C99 1.362 . S
C99 H89 0.930 . S
C99 C92 1.409 . S
C99 C98 1.362 . S
H100 C106 0.930 . S
H101 C109 0.930 . S
H102 C110 0.930 . S
H103 C111 0.930 . S
H104 C114 0.930 . S
H105 C115 0.930 . S
C106 H100 0.930 . S
C106 C107 1.355 . S
C106 C108 1.415 . S
C107 C106 1.355 . S
C107 C109 1.419 . S
C108 C106 1.415 . S
C108 C113 1.425 . S
C108 C115 1.409 . S
C109 H101 0.930 . S
C109 C107 1.419 . S
C109 C110 1.362 . S
C110 H102 0.930 . S
C110 C109 1.362 . S
C110 C113 1.409 . S
C111 H103 0.930 . S
C111 C112 1.355 . S
C111 C113 1.415 . S
C112 C111 1.355 . S
C112 C114 1.419 . S
C113 C108 1.425 . S
C113 C110 1.409 . S
C113 C111 1.415 . S
C114 H104 0.930 . S
C114 C112 1.419 . S
C114 C115 1.362 . S
C115 H105 0.930 . S
C115 C108 1.409 . S
C115 C114 1.362 . S
H116 C122 0.930 . S
H117 C125 0.930 . S
H118 C126 0.930 . S
H119 C127 0.930 . S
H120 C130 0.930 . S
H121 C131 0.930 . S
C122 H116 0.930 . S
C122 C123 1.355 . S
C122 C124 1.415 . S
C123 C122 1.355 . S
C123 C125 1.419 . S
C124 C122 1.415 . S
C124 C129 1.425 . S
C124 C131 1.409 . S
C125 H117 0.930 . S
C125 C123 1.419 . S
C125 C126 1.362 . S
C126 H118 0.930 . S
C126 C125 1.362 . S
C126 C129 1.409 . S
C127 H119 0.930 . S
C127 C128 1.355 . S
C127 C129 1.415 . S
C128 C127 1.355 . S
C128 C130 1.419 . S
C129 C124 1.425 . S
C129 C126 1.409 . S
C129 C127 1.415 . S
C130 H120 0.930 . S
C130 C128 1.419 . S
C130 C131 1.362 . S
C131 H121 0.930 . S
C131 C124 1.409 . S
C131 C130 1.362 . S
H132 C138 0.930 . S
H133 C141 0.930 . S
H134 C142 0.930 . S
H135 C143 0.930 . S
H136 C146 0.930 . S
H137 C147 0.930 . S
C138 H132 0.930 . S
C138 C139 1.355 1_565 S
C138 C140 1.415 . S
C139 C138 1.355 1_545 S
C139 C141 1.419 . S
C140 C138 1.415 . S
C140 C145 1.425 1_565 S
C140 C147 1.409 . S
C141 H133 0.930 . S
C141 C139 1.419 . S
C141 C142 1.362 . S
C142 H134 0.930 . S
C142 C141 1.362 . S
C142 C145 1.409 . S
C143 H135 0.930 . S
C143 C144 1.355 1_545 S
C143 C145 1.415 . S
C144 C143 1.355 1_565 S
C144 C146 1.419 . S
C145 C140 1.425 1_545 S
C145 C142 1.409 . S
C145 C143 1.415 . S
C146 H136 0.930 . S
C146 C144 1.419 . S
C146 C147 1.362 . S
C147 H137 0.930 . S
C147 C140 1.409 . S
C147 C146 1.362 . S
H148 C154 0.930 . S
H149 C157 0.930 . S
H150 C158 0.930 . S
H151 C159 0.930 . S
H152 C162 0.930 . S
H153 C163 0.930 . S
C154 H148 0.930 . S
C154 C155 1.355 . S
C154 C156 1.415 . S
C155 C154 1.355 . S
C155 C157 1.419 . S
C156 C154 1.415 . S
C156 C161 1.425 . S
C156 C163 1.409 . S
C157 H149 0.930 . S
C157 C155 1.419 . S
C157 C158 1.362 . S
C158 H150 0.930 . S
C158 C157 1.362 . S
C158 C161 1.409 . S
C159 H151 0.930 . S
C159 C160 1.355 . S
C159 C161 1.415 . S
C160 C159 1.355 . S
C160 C162 1.419 . S
C161 C156 1.425 . S
C161 C158 1.409 . S
C161 C159 1.415 . S
C162 H152 0.930 . S
C162 C160 1.419 . S
C162 C163 1.362 . S
C163 H153 0.930 . S
C163 C156 1.409 . S
C163 C162 1.362 . S
H164 C170 0.930 . S
H165 C173 0.930 . S
H166 C174 0.930 . S
H167 C175 0.930 . S
H168 C178 0.930 . S
H169 C179 0.930 1_655 S
C170 H164 0.930 . S
C170 C171 1.355 . S
C170 C172 1.415 . S
C171 C170 1.355 . S
C171 C173 1.419 . S
C172 C170 1.415 . S
C172 C177 1.425 . S
C172 C179 1.409 . S
C173 H165 0.930 . S
C173 C171 1.419 . S
C173 C174 1.362 . S
C174 H166 0.930 . S
C174 C173 1.362 . S
C174 C177 1.409 . S
C175 H167 0.930 . S
C175 C176 1.355 . S
C175 C177 1.415 . S
C176 C175 1.355 . S
C176 C178 1.419 . S
C177 C172 1.425 . S
C177 C174 1.409 . S
C177 C175 1.415 . S
C178 H168 0.930 . S
C178 C176 1.419 . S
C178 C179 1.362 . S
C179 H169 0.930 1_455 S
C179 C172 1.409 . S
C179 C178 1.362 . S
H180 C186 0.930 . S
H181 C189 0.930 1_655 S
H182 C190 0.930 1_655 S
H183 C191 0.930 . S
H184 C194 0.930 . S
H185 C195 0.930 . S
C186 H180 0.930 . S
C186 C187 1.355 . S
C186 C188 1.415 . S
C187 C186 1.355 . S
C187 C189 1.419 . S
C188 C186 1.415 . S
C188 C193 1.425 . S
C188 C195 1.409 . S
C189 H181 0.930 1_455 S
C189 C187 1.419 . S
C189 C190 1.362 . S
C190 H182 0.930 1_455 S
C190 C189 1.362 . S
C190 C193 1.409 . S
C191 H183 0.930 . S
C191 C192 1.355 . S
C191 C193 1.415 . S
C192 C191 1.355 . S
C192 C194 1.419 . S
C193 C188 1.425 . S
C193 C190 1.409 . S
C193 C191 1.415 . S
C194 H184 0.930 . S
C194 C192 1.419 . S
C194 C195 1.362 . S
C195 H185 0.930 . S
C195 C188 1.409 . S
C195 C194 1.362 . S
H196 C202 0.930 . S
H197 C205 0.930 . S
H198 C206 0.930 . S
H199 C207 0.930 . S
H200 C210 0.930 . S
H201 C211 0.930 . S
C202 H196 0.930 . S
C202 C203 1.356 . S
C202 C204 1.415 . S
C203 C202 1.356 . S
C203 C205 1.416 1_465 S
C204 C202 1.415 . S
C204 C209 1.425 1_465 S
C204 C211 1.409 . S
C205 H197 0.930 . S
C205 C203 1.416 1_645 S
C205 C206 1.362 . S
C206 H198 0.930 . S
C206 C205 1.362 . S
C206 C209 1.409 . S
C207 H199 0.930 . S
C207 C208 1.358 1_655 S
C207 C209 1.415 . S
C208 C207 1.358 1_455 S
C208 C210 1.414 1_545 S
C209 C204 1.425 1_645 S
C209 C206 1.409 . S
C209 C207 1.415 . S
C210 H200 0.930 . S
C210 C208 1.414 1_565 S
C210 C211 1.362 . S
C211 H201 0.930 . S
C211 C204 1.409 . S
C211 C210 1.362 . S
H212 C218 0.930 . S
H213 C221 0.930 . S
H214 C222 0.930 . S
H215 C223 0.930 1_665 S
H216 C226 0.930 . S
H217 C227 0.930 . S
C218 H212 0.930 . S
C218 C219 1.355 . S
C218 C220 1.415 . S
C219 C218 1.355 . S
C219 C221 1.419 1_445 S
C220 C218 1.415 . S
C220 C225 1.425 . S
C220 C227 1.409 . S
C221 H213 0.930 . S
C221 C219 1.419 1_665 S
C221 C222 1.362 . S
C222 H214 0.930 . S
C222 C221 1.362 . S
C222 C225 1.409 1_665 S
C223 H215 0.930 1_445 S
C223 C224 1.355 . S
C223 C225 1.415 . S
C224 C223 1.355 . S
C224 C226 1.419 . S
C225 C220 1.425 . S
C225 C222 1.409 1_445 S
C225 C223 1.415 . S
C226 H216 0.930 . S
C226 C224 1.419 . S
C226 C227 1.362 . S
C227 H217 0.930 . S
C227 C220 1.409 . S
C227 C226 1.362 . S
H228 C234 0.930 1_655 S
H229 C237 0.930 . S
H230 C238 0.930 . S
H231 C239 0.930 . S
H232 C242 0.930 . S
H233 C243 0.930 . S
C234 H228 0.930 1_455 S
C234 C235 1.355 . S
C234 C236 1.415 . S
C235 C234 1.355 . S
C235 C237 1.419 . S
C236 C234 1.415 . S
C236 C241 1.425 1_554 S
C236 C243 1.409 1_454 S
C237 H229 0.930 . S
C237 C235 1.419 . S
C237 C238 1.362 . S
C238 H230 0.930 . S
C238 C237 1.362 . S
C238 C241 1.409 1_554 S
C239 H231 0.930 . S
C239 C240 1.355 . S
C239 C241 1.415 . S
C240 C239 1.355 . S
C240 C242 1.419 1_455 S
C241 C236 1.425 1_556 S
C241 C238 1.409 1_556 S
C241 C239 1.415 . S
C242 H232 0.930 . S
C242 C240 1.419 1_655 S
C242 C243 1.362 . S
C243 H233 0.930 . S
C243 C236 1.409 1_656 S
C243 C242 1.362 . S
H244 C250 0.930 . S
H245 C253 0.930 1_655 S
H246 C254 0.930 . S
H247 C255 0.930 1_655 S
H248 C258 0.930 . S
H249 C259 0.930 . S
C250 H244 0.930 . S
C250 C251 1.355 . S
C250 C252 1.415 . S
C251 C250 1.355 . S
C251 C253 1.419 1_545 S
C252 C250 1.415 . S
C252 C257 1.425 . S
C252 C259 1.409 . S
C253 H245 0.930 1_455 S
C253 C251 1.419 1_565 S
C253 C254 1.362 1_455 S
C254 H246 0.930 . S
C254 C253 1.362 1_655 S
C254 C257 1.409 1_665 S
C255 H247 0.930 1_455 S
C255 C256 1.355 1_565 S
C255 C257 1.415 1_565 S
C256 C255 1.355 1_545 S
C256 C258 1.419 . S
C257 C252 1.425 . S
C257 C254 1.409 1_445 S
C257 C255 1.415 1_545 S
C258 H248 0.930 . S
C258 C256 1.419 . S
C258 C259 1.362 . S
C259 H249 0.930 . S
C259 C252 1.409 . S
C259 C258 1.362 . S
H260 C266 0.930 . S
H261 C269 0.930 . S
H262 C270 0.930 . S
H263 C271 0.930 1_565 S
H264 C274 0.930 . S
H265 C275 0.930 . S
C266 H260 0.930 . S
C266 C267 1.355 1_655 S
C266 C268 1.415 . S
C267 C266 1.355 1_455 S
C267 C269 1.419 1_545 S
C268 C266 1.415 . S
C268 C273 1.425 1_655 S
C268 C275 1.409 . S
C269 H261 0.930 . S
C269 C267 1.419 1_565 S
C269 C270 1.362 . S
C270 H262 0.930 . S
C270 C269 1.362 . S
C270 C273 1.409 1_565 S
C271 H263 0.930 1_545 S
C271 C272 1.355 1_455 S
C271 C273 1.415 . S
C272 C271 1.355 1_655 S
C272 C274 1.419 . S
C273 C268 1.425 1_455 S
C273 C270 1.409 1_545 S
C273 C271 1.415 . S
C274 H264 0.930 . S
C274 C272 1.419 . S
C274 C275 1.362 . S
C275 H265 0.930 . S
C275 C268 1.409 . S
C275 C274 1.362 . S
C91 C0 1.494 . S
C96 C1 1.494 . S
C107 C14 1.498 . S
C112 C15 1.498 . S
C123 C41 1.498 . S
C128 C40 1.498 . S
C139 C54 1.497 . S
C144 C55 1.497 1_565 S
C155 C68 1.486 . S
C160 C69 1.486 . S
C171 C82 1.498 . S
C176 C83 1.498 . S
C187 C71 1.500 . S
C192 C13 1.503 . S
C203 C43 1.492 . S
C208 C26 1.495 . S
C219 C28 1.499 . S
C224 C57 1.503 . S
C235 C12 1.502 . S
C240 C56 1.507 . S
C251 C70 1.499 . S
C256 C27 1.497 . S
C267 C42 1.497 . S
C272 C29 1.502 1_655 S
