# Generated by pormake.
# Topology wjh, (4)-cn, num edge types: 1
# Building blocks:
#     Node 0, Type 0, BuildingBlock: ICAMEG_clean_sbu_1, # of connection points: 4
#     Node 1, Type 0, BuildingBlock: ICAMEG_clean_sbu_1, # of connection points: 4
#     Node 2, Type 0, BuildingBlock: ICAMEG_clean_sbu_1, # of connection points: 4
#     Node 3, Type 0, BuildingBlock: ICAMEG_clean_sbu_1, # of connection points: 4
#     Node 4, Type 0, BuildingBlock: ICAMEG_clean_sbu_1, # of connection points: 4
#     Node 5, Type 0, BuildingBlock: ICAMEG_clean_sbu_1, # of connection points: 4
#     Node 6, Type 0, BuildingBlock: ICAMEG_clean_sbu_1, # of connection points: 4
#     Node 7, Type 0, BuildingBlock: ICAMEG_clean_sbu_1, # of connection points: 4
#     Node 8, Type 0, BuildingBlock: ICAMEG_clean_sbu_1, # of connection points: 4
#     Node 9, Type 0, BuildingBlock: ICAMEG_clean_sbu_1, # of connection points: 4
#     Node 10, Type 0, BuildingBlock: ICAMEG_clean_sbu_1, # of connection points: 4
#     Node 11, Type 0, BuildingBlock: ICAMEG_clean_sbu_1, # of connection points: 4
#     Edge 12, Type (0, 0), BuildingBlock: KIFKEQ_clean_linker_1, # of connection points: 2
#     Edge 13, Type (0, 0), BuildingBlock: KIFKEQ_clean_linker_1, # of connection points: 2
#     Edge 14, Type (0, 0), BuildingBlock: KIFKEQ_clean_linker_1, # of connection points: 2
#     Edge 15, Type (0, 0), BuildingBlock: KIFKEQ_clean_linker_1, # of connection points: 2
#     Edge 16, Type (0, 0), BuildingBlock: KIFKEQ_clean_linker_1, # of connection points: 2
#     Edge 17, Type (0, 0), BuildingBlock: KIFKEQ_clean_linker_1, # of connection points: 2
#     Edge 18, Type (0, 0), BuildingBlock: KIFKEQ_clean_linker_1, # of connection points: 2
#     Edge 19, Type (0, 0), BuildingBlock: KIFKEQ_clean_linker_1, # of connection points: 2
#     Edge 20, Type (0, 0), BuildingBlock: KIFKEQ_clean_linker_1, # of connection points: 2
#     Edge 21, Type (0, 0), BuildingBlock: KIFKEQ_clean_linker_1, # of connection points: 2
#     Edge 22, Type (0, 0), BuildingBlock: KIFKEQ_clean_linker_1, # of connection points: 2
#     Edge 23, Type (0, 0), BuildingBlock: KIFKEQ_clean_linker_1, # of connection points: 2
#     Edge 24, Type (0, 0), BuildingBlock: KIFKEQ_clean_linker_1, # of connection points: 2
#     Edge 25, Type (0, 0), BuildingBlock: KIFKEQ_clean_linker_1, # of connection points: 2
#     Edge 26, Type (0, 0), BuildingBlock: KIFKEQ_clean_linker_1, # of connection points: 2
#     Edge 27, Type (0, 0), BuildingBlock: KIFKEQ_clean_linker_1, # of connection points: 2
#     Edge 28, Type (0, 0), BuildingBlock: KIFKEQ_clean_linker_1, # of connection points: 2
#     Edge 29, Type (0, 0), BuildingBlock: KIFKEQ_clean_linker_1, # of connection points: 2
#     Edge 30, Type (0, 0), BuildingBlock: KIFKEQ_clean_linker_1, # of connection points: 2
#     Edge 31, Type (0, 0), BuildingBlock: KIFKEQ_clean_linker_1, # of connection points: 2
#     Edge 32, Type (0, 0), BuildingBlock: KIFKEQ_clean_linker_1, # of connection points: 2
#     Edge 33, Type (0, 0), BuildingBlock: KIFKEQ_clean_linker_1, # of connection points: 2
#     Edge 34, Type (0, 0), BuildingBlock: KIFKEQ_clean_linker_1, # of connection points: 2
#     Edge 35, Type (0, 0), BuildingBlock: KIFKEQ_clean_linker_1, # of connection points: 2
# Relax obj value: 0.058
# Max RMSD: 0.097
# Mean RMSD: 0.097
data_MOF--net-wjh--node1-ICAMEG_clean_sbu_1--edge1-KIFKEQ_clean_linker_1
_symmetry_space_group_name_H-M    P1
_symmetry_Int_Tables_number       1
_symmetry_cell_setting            triclinic
loop_
_symmetry_equiv_pos_as_xyz
'x, y, z'
_cell_length_a     64.46792
_cell_length_b     64.507897
_cell_length_c     30.492699
_cell_angle_alpha  90.004332
_cell_angle_beta   90.00217
_cell_angle_gamma 119.97409
loop_
_atom_site_label
_atom_site_type_symbol
_atom_site_fract_x
_atom_site_fract_y
_atom_site_fract_z
_atom_type_partial_charge
Co0 Co 0.50921 0.13972 0.07469 0.0
Co1 Co 0.56073 0.14003 0.04138 0.0
O2 O 0.53817 0.15204 0.03838 0.0
C3 C 0.53533 0.19195 0.09317 0.0
O4 O 0.55513 0.1909 0.09477 0.0
C5 C 0.54835 0.1359 0.94718 0.0
O6 O 0.52615 0.12916 0.9579 0.0
O7 O 0.5342 0.10636 0.03609 0.0
O8 O 0.5021 0.10594 0.06581 0.0
H9 H 0.5902 0.08559 0.09465 0.0
H10 H 0.5161 0.17241 0.00091 0.0
O11 O 0.51542 0.17318 0.08474 0.0
H12 H 0.44128 0.09766 0.96741 0.0
H13 H 0.43375 0.13651 0.12807 0.0
H14 H 0.48711 0.10269 0.14386 0.0
H15 H 0.46376 0.10135 0.03517 0.0
H16 H 0.47003 0.15137 0.08242 0.0
O17 O 0.56431 0.14165 0.97646 0.0
H18 H 0.56234 0.1013 0.09086 0.0
H19 H 0.60693 0.1531 -0.00311 0.0
H20 H 0.4509 0.08715 0.18991 0.0
H21 H 0.49405 0.16959 0.93296 0.0
H22 H 0.42395 0.1041 0.18216 0.0
H23 H 0.45639 0.13197 0.91579 0.0
O24 O 0.52758 0.14244 0.12907 0.0
H25 H 0.60652 0.22684 -0.00097 0.0
H26 H 0.60253 0.16585 0.10163 0.0
H27 H 0.63481 0.20779 0.10955 0.0
H28 H 0.63696 0.23861 0.05798 0.0
H29 H 0.5744 0.18471 -0.00747 0.0
H30 H 0.63517 0.13783 -0.00058 0.0
H31 H 0.62693 0.1039 0.0487 0.0
O32 O 0.55809 0.13787 0.10608 0.0
C33 C 0.51252 0.09534 0.04923 0.0
C34 C 0.59404 0.10045 0.07317 0.0
C35 C 0.61927 0.12975 0.0197 0.0
N36 N 0.58312 0.12824 0.04403 0.0
C37 C 0.57837 0.10946 0.07098 0.0
C38 C 0.60319 0.1383 0.01837 0.0
C39 C 0.61463 0.11071 0.04735 0.0
C40 C 0.49961 0.15607 -0.00616 0.0
N41 N 0.49119 0.13711 0.02202 0.0
C42 C 0.48726 0.15454 0.95524 0.0
C43 C 0.46615 0.13341 0.9456 0.0
C44 C 0.45767 0.11415 0.97452 0.0
C45 C 0.47052 0.11632 0.01278 0.0
C46 C 0.44534 0.12895 0.1317 0.0
C47 C 0.47538 0.11004 0.14012 0.0
C48 C 0.46592 0.13733 0.10601 0.0
N49 N 0.48057 0.12777 0.11027 0.0
C50 C 0.45494 0.10123 0.16637 0.0
C51 C 0.43984 0.11076 0.16203 0.0
C52 C 0.54574 0.14004 0.13631 0.0
C53 C 0.60581 0.21356 0.02161 0.0
C54 C 0.6033 0.17917 0.07913 0.0
C55 C 0.62166 0.20288 0.08371 0.0
C56 C 0.62286 0.22016 0.05474 0.0
N57 N 0.58665 0.17284 0.04652 0.0
C58 C 0.58774 0.18967 0.01797 0.0
Co59 Co 0.37425 0.50637 0.23887 0.0
Co60 Co 0.42407 0.55835 0.20281 0.0
O61 O 0.38975 0.53473 0.201 0.0
C62 C 0.34711 0.53157 0.25618 0.0
O63 O 0.36771 0.55165 0.25648 0.0
C64 C 0.41535 0.54355 0.10984 0.0
O65 O 0.40033 0.52156 0.12225 0.0
O66 O 0.43263 0.53271 0.20014 0.0
O67 O 0.40153 0.50016 0.22994 0.0
H68 H 0.50879 0.59229 0.25545 0.0
H69 H 0.3469 0.51101 0.16517 0.0
O70 O 0.34644 0.51177 0.24896 0.0
H71 H 0.34911 0.437 0.13538 0.0
H72 H 0.304 0.43083 0.29707 0.0
H73 H 0.39097 0.48631 0.30882 0.0
H74 H 0.36823 0.46087 0.20168 0.0
H75 H 0.324 0.46636 0.24929 0.0
O76 O 0.42553 0.56029 0.13774 0.0
H77 H 0.46553 0.56302 0.2532 0.0
H78 H 0.45551 0.60375 0.1547 0.0
H79 H 0.37174 0.45088 0.35699 0.0
H80 H 0.32732 0.48754 0.09866 0.0
H81 H 0.32794 0.42286 0.35128 0.0
H82 H 0.32841 0.45028 0.08337 0.0
O83 O 0.39009 0.52579 0.29208 0.0
H84 H 0.37972 0.60006 0.15505 0.0
H85 H 0.43876 0.60128 0.25942 0.0
H86 H 0.42742 0.6325 0.26397 0.0
H87 H 0.39771 0.63203 0.2115 0.0
H88 H 0.39144 0.56906 0.1519 0.0
H89 H 0.49868 0.63336 0.15563 0.0
H90 H 0.52562 0.62776 0.2064 0.0
O91 O 0.42405 0.55729 0.26765 0.0
C92 C 0.4226 0.51112 0.21363 0.0
C93 C 0.49722 0.59497 0.23331 0.0
C94 C 0.49155 0.61801 0.17725 0.0
N95 N 0.45797 0.5818 0.2042 0.0
C96 C 0.4727 0.5785 0.23199 0.0
C97 C 0.46712 0.60117 0.17684 0.0
C98 C 0.50666 0.61486 0.20575 0.0
C99 C 0.34725 0.4947 0.15892 0.0
N100 N 0.35862 0.48728 0.18733 0.0
C101 C 0.33623 0.48154 0.12113 0.0
C102 C 0.33688 0.46065 0.11254 0.0
C103 C 0.3485 0.4532 0.14168 0.0
C104 C 0.35937 0.46683 0.17911 0.0
C105 C 0.32311 0.44288 0.29981 0.0
C106 C 0.37193 0.47411 0.30596 0.0
C107 C 0.33452 0.46305 0.27291 0.0
N108 N 0.35866 0.47828 0.27606 0.0
C109 C 0.36113 0.45412 0.33341 0.0
C110 C 0.33655 0.43842 0.33021 0.0
C111 C 0.41009 0.54481 0.29842 0.0
C112 C 0.39274 0.6005 0.17801 0.0
C113 C 0.42578 0.60091 0.23653 0.0
C114 C 0.41947 0.61867 0.23921 0.0
C115 C 0.40281 0.61841 0.20973 0.0
N116 N 0.41583 0.58342 0.20529 0.0
C117 C 0.39951 0.58306 0.17626 0.0
Co118 Co 0.87308 0.3726 0.40864 0.0
Co119 Co 0.87103 0.42211 0.37197 0.0
O120 O 0.8599 0.38779 0.37083 0.0
C121 C 0.82088 0.34496 0.4258 0.0
O122 O 0.82141 0.36554 0.42763 0.0
C123 C 0.87529 0.41373 0.27814 0.0
O124 O 0.8861 0.40187 0.28958 0.0
O125 O 0.90478 0.42982 0.36441 0.0
O126 O 0.90649 0.4004 0.40087 0.0
H127 H 0.92502 0.50745 0.41803 0.0
H128 H 0.84202 0.34556 0.3338 0.0
O129 O 0.84001 0.3444 0.41775 0.0
H130 H 0.91925 0.3495 0.30575 0.0
H131 H 0.87956 0.30288 0.46602 0.0
H132 H 0.90913 0.38938 0.47994 0.0
H133 H 0.91341 0.3677 0.37234 0.0
H134 H 0.86383 0.32268 0.41812 0.0
O135 O 0.86746 0.42219 0.30721 0.0
H136 H 0.91033 0.46406 0.41717 0.0
H137 H 0.85564 0.45328 0.32692 0.0
H138 H 0.92551 0.37035 0.52826 0.0
H139 H 0.84701 0.32693 0.26694 0.0
H140 H 0.9107 0.32678 0.52144 0.0
H141 H 0.88587 0.32889 0.25254 0.0
O142 O 0.86872 0.38795 0.46161 0.0
H143 H 0.78315 0.37856 0.33674 0.0
H144 H 0.8459 0.4385 0.43312 0.0
H145 H 0.8039 0.42809 0.44405 0.0
H146 H 0.77218 0.39794 0.39561 0.0
H147 H 0.82538 0.38932 0.32723 0.0
H148 H 0.86986 0.49657 0.32651 0.0
H149 H 0.90473 0.52397 0.37245 0.0
O150 O 0.87489 0.4233 0.43668 0.0
C151 C 0.91642 0.4205 0.38085 0.0
C152 C 0.90976 0.49569 0.39798 0.0
C153 C 0.87882 0.48959 0.34657 0.0
N154 N 0.88204 0.45613 0.3723 0.0
C155 C 0.90132 0.4711 0.39745 0.0
C156 C 0.87088 0.46509 0.34687 0.0
C157 C 0.89838 0.50495 0.37237 0.0
C158 C 0.85891 0.3463 0.32791 0.0
N159 N 0.87735 0.35759 0.35701 0.0
C160 C 0.86166 0.3358 0.28994 0.0
C161 C 0.88348 0.33694 0.28185 0.0
C162 C 0.90222 0.34851 0.31168 0.0
C163 C 0.89883 0.35883 0.34927 0.0
C164 C 0.8862 0.32188 0.46923 0.0
C165 C 0.90274 0.37045 0.47658 0.0
C166 C 0.87734 0.33319 0.44225 0.0
N167 N 0.88574 0.3572 0.44598 0.0
C168 C 0.91201 0.35976 0.50412 0.0
C169 C 0.90368 0.33531 0.50031 0.0
C170 C 0.8719 0.40888 0.4677 0.0
C171 C 0.79682 0.39177 0.35797 0.0
C172 C 0.83221 0.42529 0.412 0.0
C173 C 0.80845 0.41953 0.41827 0.0
C174 C 0.79067 0.40262 0.39106 0.0
N175 N 0.83809 0.41456 0.37948 0.0
C176 C 0.82076 0.39802 0.35261 0.0
Co177 Co 0.50337 0.86867 0.57363 0.0
Co178 Co 0.45314 0.86917 0.53589 0.0
O179 O 0.47537 0.85671 0.53486 0.0
C180 C 0.47759 0.81615 0.58867 0.0
O181 O 0.45761 0.81687 0.58945 0.0
C182 C 0.46589 0.87205 0.44197 0.0
O183 O 0.48806 0.87888 0.45309 0.0
O184 O 0.48015 0.90248 0.52934 0.0
O185 O 0.51018 0.90254 0.56691 0.0
H186 H 0.42466 0.9253 0.58365 0.0
H187 H 0.49932 0.8379 0.49827 0.0
O188 O 0.4975 0.83521 0.58183 0.0
H189 H 0.57408 0.91418 0.47343 0.0
H190 H 0.57793 0.87202 0.63271 0.0
H191 H 0.52273 0.90378 0.64639 0.0
H192 H 0.54947 0.90852 0.5391 0.0
H193 H 0.54302 0.85783 0.5836 0.0
O194 O 0.44985 0.86666 0.47097 0.0
H195 H 0.452 0.90892 0.58248 0.0
H196 H 0.40738 0.85624 0.48978 0.0
H197 H 0.55753 0.91863 0.69593 0.0
H198 H 0.52352 0.8427 0.43236 0.0
H199 H 0.58541 0.90272 0.68925 0.0
H200 H 0.56117 0.88109 0.41956 0.0
O201 O 0.48332 0.86434 0.6261 0.0
H202 H 0.40627 0.78188 0.49729 0.0
H203 H 0.4109 0.84475 0.59567 0.0
H204 H 0.37805 0.80317 0.60477 0.0
H205 H 0.37556 0.77141 0.55532 0.0
H206 H 0.43897 0.82367 0.48962 0.0
H207 H 0.37968 0.87218 0.48967 0.0
H208 H 0.3882 0.9069 0.53699 0.0
O209 O 0.45537 0.87225 0.60078 0.0
C210 C 0.50093 0.91329 0.54662 0.0
C211 C 0.42071 0.91011 0.56301 0.0
C212 C 0.39547 0.88031 0.51023 0.0
N213 N 0.43118 0.88151 0.53642 0.0
C214 C 0.43608 0.90072 0.5623 0.0
C215 C 0.41125 0.87139 0.51039 0.0
C216 C 0.40026 0.89979 0.53679 0.0
C217 C 0.51579 0.85457 0.49311 0.0
N218 N 0.52301 0.87286 0.52255 0.0
C219 C 0.52937 0.85722 0.45565 0.0
C220 C 0.55047 0.87878 0.44845 0.0
C221 C 0.55771 0.89736 0.47865 0.0
C222 C 0.54366 0.89408 0.51571 0.0
C223 C 0.56594 0.87914 0.63587 0.0
C224 C 0.53488 0.89691 0.64308 0.0
C225 C 0.54613 0.87115 0.6082 0.0
N226 N 0.53099 0.88015 0.61188 0.0
C227 C 0.55451 0.90532 0.67132 0.0
C228 C 0.57014 0.89637 0.66758 0.0
C229 C 0.46603 0.86829 0.63195 0.0
C230 C 0.40712 0.79558 0.51896 0.0
C231 C 0.41 0.83102 0.57412 0.0
C232 C 0.39132 0.80752 0.57936 0.0
C233 C 0.38992 0.7897 0.55157 0.0
N234 N 0.42681 0.83663 0.54205 0.0
C235 C 0.42553 0.81928 0.51464 0.0
Co236 Co 0.63799 0.50128 0.74015 0.0
Co237 Co 0.58781 0.44881 0.70611 0.0
O238 O 0.62196 0.47285 0.70243 0.0
C239 C 0.66518 0.47584 0.75566 0.0
O240 O 0.6447 0.45564 0.75481 0.0
C241 C 0.59411 0.46496 0.61359 0.0
O242 O 0.60966 0.48676 0.62623 0.0
O243 O 0.57861 0.47411 0.70811 0.0
O244 O 0.61095 0.5077 0.73178 0.0
H245 H 0.50467 0.4125 0.76808 0.0
H246 H 0.66448 0.49596 0.66568 0.0
O247 O 0.6657 0.49566 0.74969 0.0
H248 H 0.66299 0.57035 0.63603 0.0
H249 H 0.70905 0.57668 0.79675 0.0
H250 H 0.62204 0.5219 0.81039 0.0
H251 H 0.64428 0.54686 0.70289 0.0
H252 H 0.68846 0.54102 0.74943 0.0
O253 O 0.58458 0.44792 0.64108 0.0
H254 H 0.54769 0.44232 0.76289 0.0
H255 H 0.55542 0.40426 0.65639 0.0
H256 H 0.64187 0.55747 0.85813 0.0
H257 H 0.68361 0.51902 0.59857 0.0
H258 H 0.68569 0.58514 0.85147 0.0
H259 H 0.68287 0.55647 0.58335 0.0
O260 O 0.62237 0.48217 0.7939 0.0
H261 H 0.63257 0.40984 0.64635 0.0
H262 H 0.57447 0.40439 0.75737 0.0
H263 H 0.58663 0.37373 0.75573 0.0
H264 H 0.61588 0.37633 0.69986 0.0
H265 H 0.62007 0.44026 0.64951 0.0
H266 H 0.51245 0.37415 0.66018 0.0
H267 H 0.48679 0.37812 0.71645 0.0
O268 O 0.58967 0.44874 0.77097 0.0
C269 C 0.58919 0.49615 0.71907 0.0
C270 C 0.51568 0.41053 0.74351 0.0
C271 C 0.52004 0.38903 0.68292 0.0
N272 N 0.55409 0.42493 0.70963 0.0
C273 C 0.54006 0.42732 0.7405 0.0
C274 C 0.54435 0.40616 0.68088 0.0
C275 C 0.50566 0.39126 0.71451 0.0
C276 C 0.66429 0.51235 0.65946 0.0
N277 N 0.65338 0.5201 0.68824 0.0
C278 C 0.67506 0.52528 0.62133 0.0
C279 C 0.6746 0.54628 0.61278 0.0
C280 C 0.66344 0.55406 0.6423 0.0
C281 C 0.65282 0.54065 0.68005 0.0
C282 C 0.68994 0.56478 0.79992 0.0
C283 C 0.64109 0.53395 0.80713 0.0
C284 C 0.67819 0.54453 0.77328 0.0
N285 N 0.65405 0.52949 0.77697 0.0
C286 C 0.65223 0.55402 0.83433 0.0
C287 C 0.67682 0.56952 0.8306 0.0
C288 C 0.60348 0.46216 0.80112 0.0
C289 C 0.6198 0.4085 0.67083 0.0
C290 C 0.58731 0.40574 0.7332 0.0
C291 C 0.59406 0.38826 0.73229 0.0
C292 C 0.61045 0.38972 0.7009 0.0
N293 N 0.59659 0.42412 0.70365 0.0
C294 C 0.6126 0.42562 0.67268 0.0
Co295 Co 0.14098 0.63604 0.90224 0.0
Co296 Co 0.14332 0.58522 0.87319 0.0
O297 O 0.15327 0.61917 0.86663 0.0
C298 C 0.19353 0.66324 0.91774 0.0
O299 O 0.19305 0.64267 0.91889 0.0
C300 C 0.13163 0.58816 0.78031 0.0
O301 O 0.12265 0.60159 0.79248 0.0
O302 O 0.10873 0.57597 0.87505 0.0
O303 O 0.10753 0.60887 0.89517 0.0
H304 H 0.09688 0.50359 0.94116 0.0
H305 H 0.17259 0.66054 0.82645 0.0
O306 O 0.17435 0.66385 0.91054 0.0
H307 H 0.09668 0.65848 0.79359 0.0
H308 H 0.13684 0.70841 0.95128 0.0
H309 H 0.10443 0.62181 0.97223 0.0
H310 H 0.10167 0.64157 0.86269 0.0
H311 H 0.15185 0.68668 0.90695 0.0
O312 O 0.14105 0.5808 0.80838 0.0
H313 H 0.10997 0.54642 0.93244 0.0
H314 H 0.15547 0.55182 0.82702 0.0
H315 H 0.08876 0.6428 0.01703 0.0
H316 H 0.16845 0.67783 0.75708 0.0
H317 H 0.105 0.68642 0.00668 0.0
H318 H 0.13025 0.6768 0.74025 0.0
O319 O 0.1445 0.62164 0.95766 0.0
H320 H 0.22697 0.62914 0.81287 0.0
H321 H 0.17449 0.57257 0.92584 0.0
H322 H 0.21736 0.5848 0.92474 0.0
H323 H 0.24392 0.61329 0.86788 0.0
H324 H 0.18404 0.61663 0.81559 0.0
H325 H 0.1427 0.50901 0.83431 0.0
H326 H 0.11328 0.48462 0.89185 0.0
O327 O 0.14558 0.58862 0.93787 0.0
C328 C 0.09728 0.5868 0.88454 0.0
C329 C 0.10976 0.51405 0.91605 0.0
C330 C 0.13545 0.51708 0.85603 0.0
N331 N 0.13357 0.55164 0.87945 0.0
C332 C 0.11729 0.53832 0.91103 0.0
C333 C 0.14256 0.54129 0.85197 0.0
C334 C 0.11895 0.50341 0.88833 0.0
C335 C 0.156 0.66022 0.81951 0.0
N336 N 0.13745 0.65018 0.84866 0.0
C337 C 0.15372 0.66996 0.78011 0.0
C338 C 0.13227 0.66934 0.77066 0.0
C339 C 0.11342 0.65905 0.80057 0.0
C340 C 0.11633 0.64946 0.8396 0.0
C341 C 0.1296 0.6894 0.95606 0.0
C342 C 0.11149 0.64077 0.96739 0.0
C343 C 0.13806 0.67701 0.93113 0.0
N344 N 0.12892 0.65297 0.93684 0.0
C345 C 0.10259 0.65256 -0.00708 0.0
C346 C 0.11172 0.67704 0.98712 0.0
C347 C 0.14595 0.60309 0.96662 0.0
C348 C 0.21559 0.61674 0.83783 0.0
C349 C 0.18598 0.58514 0.90134 0.0
C350 C 0.21021 0.5919 0.90068 0.0
C351 C 0.22509 0.60786 0.86874 0.0
N352 N 0.17681 0.59401 0.87105 0.0
C353 C 0.19126 0.60954 0.83946 0.0
Co354 Co 0.87252 0.502 0.8372 0.0
Co355 Co 0.87029 0.44965 0.87018 0.0
O356 O 0.85925 0.47292 0.87301 0.0
C357 C 0.8205 0.47708 0.81769 0.0
O358 O 0.82136 0.45721 0.81516 0.0
C359 C 0.8752 0.46176 0.96425 0.0
O360 O 0.88558 0.48444 0.95317 0.0
O361 O 0.90426 0.47542 0.8769 0.0
O362 O 0.90593 0.50796 0.84649 0.0
H363 H 0.92352 0.41814 0.81965 0.0
H364 H 0.83992 0.49568 0.91085 0.0
O365 O 0.83938 0.49677 0.82683 0.0
H366 H 0.91577 0.56911 0.94549 0.0
H367 H 0.87839 0.57871 0.78446 0.0
H368 H 0.91005 0.52354 0.76873 0.0
H369 H 0.91159 0.54674 0.87735 0.0
H370 H 0.86235 0.54216 0.8296 0.0
O371 O 0.86738 0.44561 0.93493 0.0
H372 H 0.90908 0.44704 0.82276 0.0
H373 H 0.85502 0.40274 0.91362 0.0
H374 H 0.92677 0.56 0.7232 0.0
H375 H 0.84325 0.51761 0.97922 0.0
H376 H 0.9109 0.58787 0.73093 0.0
H377 H 0.88141 0.55457 -0.00306 0.0
O378 O 0.86951 0.48367 0.7827 0.0
H379 H 0.78275 0.40573 0.9081 0.0
H380 H 0.84437 0.40866 0.80835 0.0
H381 H 0.80218 0.37742 0.79814 0.0
H382 H 0.77103 0.37581 0.84825 0.0
H383 H 0.82514 0.43682 0.91691 0.0
H384 H 0.86899 0.37346 0.91177 0.0
H385 H 0.90342 0.38104 0.86439 0.0
O386 O 0.87353 0.45282 0.80563 0.0
C387 C 0.91591 0.49705 0.86356 0.0
C388 C 0.90845 0.4146 0.84031 0.0
C389 C 0.87786 0.38953 0.89205 0.0
N390 N 0.8811 0.42648 0.86804 0.0
C391 C 0.90015 0.43086 0.84211 0.0
C392 C 0.87006 0.4062 0.89302 0.0
C393 C 0.89718 0.39379 0.86545 0.0
C394 C 0.85651 0.51186 0.91819 0.0
N395 N 0.87549 0.51998 0.89008 0.0
C396 C 0.85832 0.52415 0.95701 0.0
C397 C 0.87975 0.54488 0.96696 0.0
C398 C 0.89904 0.55303 0.93812 0.0
C399 C 0.89658 0.54026 0.89964 0.0
C400 C 0.88547 0.56673 0.78085 0.0
C401 C 0.90317 0.53566 0.77245 0.0
C402 C 0.87643 0.54598 0.80624 0.0
N403 N 0.88539 0.53084 0.802 0.0
C404 C 0.91265 0.55624 0.74651 0.0
C405 C 0.90373 0.57186 0.75083 0.0
C406 C 0.87178 0.46544 0.77544 0.0
C407 C 0.79617 0.4062 0.88614 0.0
C408 C 0.83092 0.40812 0.83024 0.0
C409 C 0.80706 0.39035 0.82435 0.0
C410 C 0.7896 0.38944 0.85251 0.0
N411 N 0.83722 0.4245 0.86332 0.0
C412 C 0.82021 0.42369 0.8911 0.0
Co413 Co 0.37376 0.87006 0.00183 0.0
Co414 Co 0.4249 0.86937 0.03417 0.0
O415 O 0.39034 0.85738 0.03734 0.0
C416 C 0.3475 0.81798 0.98213 0.0
O417 O 0.36832 0.81896 0.98029 0.0
C418 C 0.41656 0.8726 0.1286 0.0
O419 O 0.40123 0.87958 0.1183 0.0
O420 O 0.43209 0.903 0.04073 0.0
O421 O 0.40051 0.90374 0.01132 0.0
H422 H 0.50885 0.92423 0.98161 0.0
H423 H 0.34792 0.83685 0.07494 0.0
O424 O 0.34643 0.83672 -0.00886 0.0
H425 H 0.3482 0.91149 0.11115 0.0
H426 H 0.30161 0.87396 0.95007 0.0
H427 H 0.38873 0.90761 0.93366 0.0
H428 H 0.36688 0.90824 0.04286 0.0
H429 H 0.32297 0.85864 -0.00528 0.0
O430 O 0.4268 0.8671 0.09897 0.0
H431 H 0.4653 0.90856 0.98559 0.0
H432 H 0.45795 0.8558 0.07744 0.0
H433 H 0.36812 0.92361 0.88861 0.0
H434 H 0.32881 0.83923 0.14339 0.0
H435 H 0.32425 0.90675 0.89669 0.0
H436 H 0.32895 0.8768 0.16192 0.0
O437 O 0.38931 0.86765 0.94707 0.0
H438 H 0.3838 0.78215 0.07359 0.0
H439 H 0.44084 0.84411 0.97247 0.0
H440 H 0.43114 0.80225 0.96291 0.0
H441 H 0.40245 0.77094 0.01373 0.0
H442 H 0.39385 0.82422 0.08172 0.0
H443 H 0.50145 0.87101 0.0747 0.0
H444 H 0.5272 0.90542 0.02639 0.0
O445 O 0.42446 0.87217 0.96958 0.0
C446 C 0.4215 0.91417 0.02802 0.0
C447 C 0.49781 0.90917 0.00266 0.0
C448 C 0.49366 0.87932 0.05494 0.0
N449 N 0.45907 0.88113 0.03136 0.0
C450 C 0.47313 0.90017 0.00495 0.0
C451 C 0.46904 0.8708 0.05638 0.0
C452 C 0.5081 0.89862 0.02782 0.0
C453 C 0.34785 0.85317 0.0826 0.0
N454 N 0.35843 0.87234 0.05489 0.0
C455 C 0.33709 0.85445 0.12148 0.0
C456 C 0.33721 0.87555 0.13189 0.0
C457 C 0.34803 0.89503 0.10343 0.0
C458 C 0.35864 0.8931 0.06488 0.0
C459 C 0.32074 0.88148 0.94631 0.0
C460 C 0.36966 0.90029 0.93753 0.0
C461 C 0.33292 0.87285 0.97143 0.0
N462 N 0.3571 0.88235 0.967 0.0
C463 C 0.35808 0.90937 0.91186 0.0
C464 C 0.33345 0.89989 0.91637 0.0
C465 C 0.40989 0.87016 0.93955 0.0
C466 C 0.39638 0.79564 0.05132 0.0
C467 C 0.42829 0.83058 -0.00534 0.0
C468 C 0.42291 0.80692 0.98914 0.0
C469 C 0.40682 0.78936 0.01768 0.0
N470 N 0.41798 0.83661 0.02775 0.0
C471 C 0.40222 0.8195 0.05589 0.0
Co472 Co 0.51055 0.37366 0.17279 0.0
Co473 Co 0.56279 0.42423 0.20643 0.0
O474 O 0.53902 0.39001 0.21033 0.0
C475 C 0.53649 0.34697 0.15705 0.0
O476 O 0.5566 0.36753 0.15791 0.0
C477 C 0.54663 0.41788 0.29899 0.0
O478 O 0.5249 0.40206 0.28642 0.0
O479 O 0.53721 0.43307 0.20417 0.0
O480 O 0.50371 0.40041 0.18118 0.0
H481 H 0.59839 0.50707 0.14362 0.0
H482 H 0.51643 0.34752 0.2472 0.0
O483 O 0.51657 0.34624 0.16319 0.0
H484 H 0.44152 0.348 0.27742 0.0
H485 H 0.43542 0.30204 0.11679 0.0
H486 H 0.4894 0.38913 0.10268 0.0
H487 H 0.46478 0.36682 0.21039 0.0
H488 H 0.47119 0.32302 0.1638 0.0
O489 O 0.56364 0.4276 0.27144 0.0
H490 H 0.56887 0.464 0.14918 0.0
H491 H 0.60721 0.45708 0.2561 0.0
H492 H 0.45372 0.36891 0.05524 0.0
H493 H 0.4936 0.32829 0.31447 0.0
H494 H 0.42645 0.32504 0.06214 0.0
H495 H 0.4559 0.32852 0.32998 0.0
O496 O 0.52948 0.38938 0.11892 0.0
H497 H 0.60248 0.3803 0.26687 0.0
H498 H 0.60742 0.43797 0.15547 0.0
H499 H 0.63843 0.42626 0.15743 0.0
H500 H 0.63608 0.39722 0.2135 0.0
H501 H 0.57173 0.39235 0.26337 0.0
H502 H 0.63702 0.5001 0.25196 0.0
H503 H 0.63276 0.52539 0.19528 0.0
O504 O 0.5629 0.42219 0.1416 0.0
C505 C 0.51511 0.42223 0.1935 0.0
C506 C 0.60049 0.49622 0.16836 0.0
C507 C 0.62215 0.49232 0.2292 0.0
N508 N 0.58642 0.458 0.20267 0.0
C509 C 0.58387 0.47182 0.17158 0.0
C510 C 0.60518 0.46798 0.23145 0.0
C511 C 0.61975 0.50649 0.19739 0.0
C512 C 0.49992 0.34749 0.25354 0.0
N513 N 0.4919 0.35818 0.22483 0.0
C514 C 0.48712 0.33666 0.29176 0.0
C515 C 0.46599 0.33683 0.30048 0.0
C516 C 0.45792 0.34778 0.27102 0.0
C517 C 0.4712 0.35846 0.23317 0.0
C518 C 0.44715 0.32117 0.11352 0.0
C519 C 0.47753 0.37006 0.10604 0.0
C520 C 0.46745 0.33313 0.13998 0.0
N521 N 0.48228 0.3573 0.13616 0.0
C522 C 0.4574 0.3587 0.07902 0.0
C523 C 0.44212 0.33408 0.08288 0.0
C524 C 0.54946 0.40829 0.11156 0.0
C525 C 0.60371 0.39298 0.2423 0.0
C526 C 0.60618 0.42521 0.17971 0.0
C527 C 0.62385 0.41872 0.18081 0.0
C528 C 0.62254 0.40245 0.21231 0.0
N529 N 0.58775 0.41581 0.20917 0.0
C530 C 0.5864 0.39992 0.24025 0.0
Co531 Co 0.14012 0.50734 0.33298 0.0
Co532 Co 0.14267 0.55892 0.37211 0.0
O533 O 0.15273 0.53486 0.37285 0.0
C534 C 0.19262 0.53195 0.31858 0.0
O535 O 0.19236 0.55216 0.31849 0.0
C536 C 0.1334 0.54295 0.46465 0.0
O537 O 0.12241 0.52067 0.45093 0.0
O538 O 0.10826 0.5335 0.37382 0.0
O539 O 0.10677 0.50177 0.33995 0.0
H540 H 0.09341 0.59491 0.32129 0.0
H541 H 0.1701 0.50979 0.4086 0.0
O542 O 0.17325 0.5122 0.32469 0.0
H543 H 0.09246 0.43616 0.43093 0.0
H544 H 0.13432 0.43229 0.27092 0.0
H545 H 0.10503 0.4896 0.26003 0.0
H546 H 0.09926 0.46152 0.36591 0.0
H547 H 0.14937 0.46677 0.32126 0.0
O548 O 0.14321 0.56009 0.43738 0.0
H549 H 0.1067 0.56507 0.32206 0.0
H550 H 0.15713 0.60386 0.42228 0.0
H551 H 0.08934 0.45526 0.20926 0.0
H552 H 0.16414 0.48483 0.47394 0.0
H553 H 0.10401 0.42632 0.21453 0.0
H554 H 0.12507 0.44775 0.48544 0.0
O555 O 0.14511 0.52797 0.28105 0.0
H556 H 0.22852 0.59841 0.42071 0.0
H557 H 0.17172 0.60288 0.31827 0.0
H558 H 0.21449 0.63356 0.31483 0.0
H559 H 0.24323 0.63144 0.36636 0.0
H560 H 0.1856 0.56796 0.42267 0.0
H561 H 0.14424 0.63399 0.42289 0.0
H562 H 0.11223 0.62966 0.372 0.0
O563 O 0.14195 0.55883 0.30696 0.0
C564 C 0.09673 0.51241 0.35784 0.0
C565 C 0.10742 0.59702 0.34354 0.0
C566 C 0.13593 0.61894 0.40061 0.0
N567 N 0.13276 0.58279 0.37199 0.0
C568 C 0.11506 0.58022 0.34405 0.0
C569 C 0.1431 0.60178 0.40019 0.0
C570 C 0.11797 0.61651 0.37203 0.0
C571 C 0.15312 0.49357 0.41324 0.0
N572 N 0.13511 0.48705 0.38339 0.0
C573 C 0.14982 0.47956 0.45035 0.0
C574 C 0.12788 0.45877 0.45682 0.0
C575 C 0.10958 0.45226 0.42626 0.0
C576 C 0.11351 0.46672 0.38956 0.0
C577 C 0.12774 0.44474 0.26838 0.0
C578 C 0.11135 0.47697 0.26273 0.0
C579 C 0.13622 0.46431 0.29674 0.0
N580 N 0.12791 0.48004 0.29383 0.0
C581 C 0.10247 0.45762 0.23381 0.0
C582 C 0.11073 0.4414 0.23675 0.0
C583 C 0.144 0.54698 0.27557 0.0
C584 C 0.21617 0.59954 0.39813 0.0
C585 C 0.18412 0.60175 0.34059 0.0
C586 C 0.20831 0.61923 0.33862 0.0
C587 C 0.22442 0.61805 0.36758 0.0
N588 N 0.17617 0.58363 0.37059 0.0
C589 C 0.19184 0.58241 0.39919 0.0
Co590 Co 0.63884 0.13812 0.5028 0.0
Co591 Co 0.5882 0.13801 0.53987 0.0
O592 O 0.62283 0.15018 0.54142 0.0
C593 C 0.66611 0.19067 0.48826 0.0
O594 O 0.64551 0.19018 0.48717 0.0
C595 C 0.59752 0.13469 0.6339 0.0
O596 O 0.61271 0.12765 0.62293 0.0
O597 O 0.58157 0.10459 0.54621 0.0
O598 O 0.61153 0.10435 0.50894 0.0
H599 H 0.50369 0.08263 0.49068 0.0
H600 H 0.66536 0.16846 0.57871 0.0
O601 O 0.6667 0.17148 0.49517 0.0
H602 H 0.66285 0.09166 0.60309 0.0
H603 H 0.70987 0.13413 0.44469 0.0
H604 H 0.62314 0.10328 0.42959 0.0
H605 H 0.64443 0.09784 0.53716 0.0
H606 H 0.6892 0.14846 0.49361 0.0
O607 O 0.58715 0.14035 0.60479 0.0
H608 H 0.54733 0.09863 0.49256 0.0
H609 H 0.55545 0.1512 0.58555 0.0
H610 H 0.64305 0.08831 0.38022 0.0
H611 H 0.68424 0.16315 0.6449 0.0
H612 H 0.68674 0.10377 0.38762 0.0
H613 H 0.68298 0.12449 0.65747 0.0
O614 O 0.62353 0.14289 0.45016 0.0
H615 H 0.6291 0.22521 0.57933 0.0
H616 H 0.57099 0.16293 0.47993 0.0
H617 H 0.58012 0.20465 0.4711 0.0
H618 H 0.60934 0.23613 0.52107 0.0
H619 H 0.61961 0.18328 0.58672 0.0
H620 H 0.51187 0.13565 0.58495 0.0
H621 H 0.48569 0.10117 0.53712 0.0
O622 O 0.58763 0.13514 0.47495 0.0
C623 C 0.59144 0.09368 0.52898 0.0
C624 C 0.51492 0.09771 0.51154 0.0
C625 C 0.51951 0.12745 0.56448 0.0
N626 N 0.55395 0.12596 0.53881 0.0
C627 C 0.53965 0.10689 0.51265 0.0
C628 C 0.54417 0.13616 0.56472 0.0
C629 C 0.50483 0.10811 0.53763 0.0
C630 C 0.66495 0.15168 0.58378 0.0
N631 N 0.65389 0.13352 0.55406 0.0
C632 C 0.67557 0.14873 0.62139 0.0
C633 C 0.67483 0.12702 0.62846 0.0
C634 C 0.66352 0.10859 0.59798 0.0
C635 C 0.65305 0.11217 0.56077 0.0
C636 C 0.69082 0.12722 0.44122 0.0
C637 C 0.64212 0.10996 0.4332 0.0
C638 C 0.67902 0.13529 0.46877 0.0
N639 N 0.65494 0.12654 0.4647 0.0
C640 C 0.65331 0.10147 0.40507 0.0
C641 C 0.67783 0.11017 0.40921 0.0
C642 C 0.60239 0.13916 0.444 0.0
C643 C 0.61628 0.21165 0.55744 0.0
C644 C 0.5838 0.17653 0.5017 0.0
C645 C 0.58884 0.20012 0.49662 0.0
C646 C 0.60522 0.21777 0.52469 0.0
N647 N 0.59472 0.17067 0.53391 0.0
C648 C 0.61077 0.18787 0.56159 0.0
Co649 Co 0.5025 0.63457 0.67005 0.0
Co650 Co 0.45029 0.58369 0.70164 0.0
O651 O 0.47319 0.61812 0.70535 0.0
C652 C 0.47709 0.66134 0.65103 0.0
O653 O 0.45717 0.64064 0.64892 0.0
C654 C 0.46251 0.5914 0.79556 0.0
O655 O 0.48481 0.60631 0.7846 0.0
O656 O 0.4764 0.57595 0.70739 0.0
O657 O 0.50907 0.60753 0.67907 0.0
H658 H 0.41998 0.49984 0.64738 0.0
H659 H 0.49535 0.66029 0.74368 0.0
O660 O 0.49683 0.66217 0.65989 0.0
H661 H 0.56918 0.65883 0.77962 0.0
H662 H 0.57901 0.7064 0.61934 0.0
H663 H 0.52488 0.61955 0.60154 0.0
H664 H 0.54731 0.64072 0.71102 0.0
H665 H 0.54221 0.68518 0.66369 0.0
O666 O 0.44639 0.58155 0.76645 0.0
H667 H 0.44836 0.54323 0.65204 0.0
H668 H 0.40364 0.55097 0.74503 0.0
H669 H 0.56161 0.64001 0.55678 0.0
H670 H 0.51679 0.67883 0.81247 0.0
H671 H 0.58895 0.68375 0.56556 0.0
H672 H 0.55395 0.67809 0.83086 0.0
O673 O 0.48453 0.61941 0.61515 0.0
H674 H 0.40524 0.62563 0.74341 0.0
H675 H 0.40907 0.5687 0.64036 0.0
H676 H 0.3773 0.57909 0.6318 0.0
H677 H 0.37524 0.60773 0.68359 0.0
H678 H 0.43685 0.6149 0.75054 0.0
H679 H 0.37486 0.50764 0.74163 0.0
H680 H 0.38291 0.48178 0.69239 0.0
O681 O 0.45339 0.58444 0.63702 0.0
C682 C 0.49822 0.58641 0.6951 0.0
C683 C 0.41622 0.51094 0.66881 0.0
C684 C 0.39091 0.51531 0.72175 0.0
N685 N 0.42753 0.54965 0.69837 0.0
C686 C 0.43218 0.53552 0.67148 0.0
C687 C 0.40728 0.53983 0.72356 0.0
C688 C 0.39544 0.50081 0.69411 0.0
C689 C 0.51163 0.66012 0.75128 0.0
N690 N 0.52011 0.64952 0.72331 0.0
C691 C 0.52364 0.67055 0.79035 0.0
C692 C 0.54447 0.67009 0.80068 0.0
C693 C 0.55301 0.65927 0.77196 0.0
C694 C 0.54052 0.64898 0.73322 0.0
C695 C 0.56725 0.68732 0.61527 0.0
C696 C 0.53678 0.63856 0.60571 0.0
C697 C 0.54637 0.67523 0.64022 0.0
N698 N 0.53152 0.65112 0.63541 0.0
C699 C 0.55751 0.65006 0.5802 0.0
C700 C 0.57283 0.67461 0.58511 0.0
C701 C 0.46621 0.59907 0.6073 0.0
C702 C 0.40591 0.61307 0.72072 0.0
C703 C 0.40833 0.58123 0.66297 0.0
C704 C 0.39027 0.58699 0.65802 0.0
C705 C 0.3891 0.60305 0.68711 0.0
N706 N 0.42474 0.59112 0.69605 0.0
C707 C 0.4237 0.60685 0.72472 0.0
H708 H 0.57838 0.12789 0.16415 0.0
H709 H 0.5308 0.15206 0.21165 0.0
H710 H 0.59193 0.12813 0.23819 0.0
H711 H 0.54511 0.15303 0.28624 0.0
H712 H 0.62928 0.15378 0.36884 0.0
H713 H 0.61559 0.15517 0.29497 0.0
H714 H 0.54334 0.12652 0.34337 0.0
H715 H 0.55705 0.12585 0.41714 0.0
C716 C 0.57088 0.13342 0.19037 0.0
C717 C 0.55347 0.13998 0.1819 0.0
C718 C 0.57885 0.13373 0.23289 0.0
C719 C 0.56978 0.14079 0.2681 0.0
C720 C 0.55229 0.14728 0.25981 0.0
C721 C 0.54414 0.1468 0.21711 0.0
C722 C 0.61049 0.14779 0.3637 0.0
C723 C 0.59429 0.13967 0.3989 0.0
C724 C 0.60261 0.14851 0.32135 0.0
C725 C 0.57835 0.14093 0.31328 0.0
C726 C 0.5622 0.13285 0.34853 0.0
C727 C 0.57007 0.13229 0.39083 0.0
H728 H 0.45431 0.57959 0.3251 0.0
H729 H 0.38379 0.52911 0.37416 0.0
H730 H 0.46792 0.59305 0.39917 0.0
H731 H 0.39728 0.54334 0.44853 0.0
H732 H 0.43637 0.55405 0.57732 0.0
H733 H 0.42276 0.54152 0.50294 0.0
H734 H 0.46452 0.61489 0.45915 0.0
H735 H 0.47895 0.6274 0.53392 0.0
C736 C 0.4416 0.57148 0.35167 0.0
C737 C 0.41795 0.55315 0.3437 0.0
C738 C 0.44941 0.57938 0.39419 0.0
C739 C 0.43372 0.56931 0.4298 0.0
C740 C 0.40995 0.55121 0.42184 0.0
C741 C 0.40217 0.54311 0.37923 0.0
C742 C 0.44274 0.56756 0.55189 0.0
C743 C 0.45877 0.59175 0.56152 0.0
C744 C 0.43474 0.56037 0.50923 0.0
C745 C 0.44234 0.5772 0.47514 0.0
C746 C 0.4585 0.60142 0.48464 0.0
C747 C 0.46675 0.60862 0.52743 0.0
H748 H 0.85949 0.48019 0.70029 0.0
H749 H 0.88489 0.43358 0.74748 0.0
H750 H 0.8587 0.46604 0.62567 0.0
H751 H 0.88485 0.42019 0.67336 0.0
H752 H 0.8584 0.3823 0.54316 0.0
H753 H 0.85757 0.39615 0.61715 0.0
H754 H 0.88516 0.4681 0.56819 0.0
H755 H 0.88524 0.45422 0.49431 0.0
C756 C 0.86509 0.46712 0.69473 0.0
C757 C 0.87215 0.45796 0.72984 0.0
C758 C 0.86471 0.45907 0.65202 0.0
C759 C 0.87157 0.44186 0.64366 0.0
C760 C 0.87895 0.43304 0.67875 0.0
C761 C 0.87915 0.4409 0.7213 0.0
C762 C 0.86429 0.40106 0.54822 0.0
C763 C 0.87189 0.41712 0.51284 0.0
C764 C 0.8639 0.40903 0.59062 0.0
C765 C 0.87131 0.43325 0.59852 0.0
C766 C 0.87896 0.44928 0.56313 0.0
C767 C 0.87917 0.44131 0.52078 0.0
H768 H 0.43365 0.88134 0.65786 0.0
H769 H 0.479 0.85503 0.70794 0.0
H770 H 0.4197 0.88167 0.73158 0.0
H771 H 0.46437 0.85467 0.78179 0.0
H772 H 0.38251 0.85722 0.86472 0.0
H773 H 0.39555 0.85577 0.7901 0.0
H774 H 0.46783 0.88264 0.83693 0.0
H775 H 0.45483 0.88341 0.91103 0.0
C776 C 0.44055 0.87546 0.68455 0.0
C777 C 0.45755 0.86824 0.67698 0.0
C778 C 0.43237 0.87549 0.72683 0.0
C779 C 0.44088 0.86819 0.76255 0.0
C780 C 0.45772 0.86075 0.755 0.0
C781 C 0.46604 0.86086 0.71267 0.0
C782 C 0.40117 0.86287 0.85896 0.0
C783 C 0.41757 0.87032 0.89385 0.0
C784 C 0.40867 0.86209 0.81625 0.0
C785 C 0.43271 0.86892 0.80766 0.0
C786 C 0.4491 0.87675 0.84251 0.0
C787 C 0.44162 0.87736 0.88504 0.0
H788 H 0.59469 0.43947 0.08327 0.0
H789 H 0.52278 0.39256 0.0363 0.0
H790 H 0.60828 0.45175 0.00879 0.0
H791 H 0.53619 0.40578 0.9615 0.0
H792 H 0.57153 0.41711 0.82915 0.0
H793 H 0.55916 0.40348 0.90359 0.0
H794 H 0.6064 0.47516 0.95132 0.0
H795 H 0.6197 0.48858 0.87659 0.0
C796 C 0.58172 0.4318 0.05704 0.0
C797 C 0.55763 0.41496 0.06579 0.0
C798 C 0.58951 0.43905 0.01423 0.0
C799 C 0.57335 0.42993 0.97904 0.0
C800 C 0.54924 0.41294 0.98772 0.0
C801 C 0.54149 0.4054 0.03062 0.0
C802 C 0.57947 0.42997 0.85547 0.0
C803 C 0.5967 0.45395 0.84685 0.0
C804 C 0.57216 0.42217 0.89825 0.0
C805 C 0.58163 0.43821 0.93356 0.0
C806 C 0.59898 0.4622 0.92501 0.0
C807 C 0.60656 0.46995 0.88213 0.0
H808 H 0.14119 0.52431 0.19801 0.0
H809 H 0.1488 0.58994 0.25109 0.0
H810 H 0.14209 0.53898 0.12416 0.0
H811 H 0.15091 0.60504 0.17744 0.0
H812 H 0.12794 0.6136 0.03916 0.0
H813 H 0.1275 0.60024 0.1143 0.0
H814 H 0.1685 0.56729 0.07302 0.0
H815 H 0.168 0.57973 -0.00175 0.0
C816 C 0.14336 0.54197 0.19397 0.0
C817 C 0.14509 0.55598 0.23054 0.0
C818 C 0.14402 0.55047 0.15159 0.0
C819 C 0.14673 0.57329 0.14479 0.0
C820 C 0.14849 0.58728 0.1814 0.0
C821 C 0.14752 0.57867 0.22373 0.0
C822 C 0.13699 0.60367 0.04639 0.0
C823 C 0.14777 0.59747 0.01281 0.0
C824 C 0.1368 0.59604 0.08941 0.0
C825 C 0.14772 0.5824 0.09965 0.0
C826 C 0.15933 0.57714 0.06618 0.0
C827 C 0.15919 0.58443 0.02327 0.0
H828 H 0.57353 0.33807 0.16764 0.0
H829 H 0.49992 0.30509 0.12531 0.0
H830 H 0.57346 0.30083 0.1534 0.0
H831 H 0.50013 0.26841 0.10847 0.0
H832 H 0.49839 0.19797 0.12031 0.0
H833 H 0.4991 0.23511 0.1372 0.0
H834 H 0.57401 0.27501 0.10137 0.0
H835 H 0.57347 0.23754 0.08712 0.0
C836 C 0.5574 0.32291 0.15485 0.0
C837 C 0.5367 0.3245 0.14784 0.0
C838 C 0.55738 0.30153 0.14632 0.0
C839 C 0.53677 0.28131 0.12974 0.0
C840 C 0.5162 0.2832 0.1222 0.0
C841 C 0.5161 0.30437 0.13157 0.0
C842 C 0.51501 0.2147 0.11605 0.0
C843 C 0.53586 0.2148 0.10233 0.0
C844 C 0.51542 0.23612 0.12545 0.0
C845 C 0.53658 0.25837 0.12048 0.0
C846 C 0.55744 0.25838 0.10645 0.0
C847 C 0.55713 0.23687 0.0979 0.0
H848 H 0.33876 0.56903 0.24814 0.0
H849 H 0.30458 0.49453 0.28489 0.0
H850 H 0.30162 0.56914 0.26233 0.0
H851 H 0.26788 0.49485 0.30168 0.0
H852 H 0.23847 0.56903 0.32851 0.0
H853 H 0.27568 0.56898 0.3148 0.0
H854 H 0.23501 0.49507 0.27321 0.0
H855 H 0.19802 0.49489 0.2895 0.0
C856 C 0.32334 0.55272 0.2597 0.0
C857 C 0.32459 0.53176 0.26521 0.0
C858 C 0.30201 0.5528 0.26822 0.0
C859 C 0.28147 0.532 0.28331 0.0
C860 C 0.28296 0.51111 0.28921 0.0
C861 C 0.30413 0.51093 0.27986 0.0
C862 C 0.23755 0.55276 0.3166 0.0
C863 C 0.2153 0.53195 0.31025 0.0
C864 C 0.25893 0.55275 0.30835 0.0
C865 C 0.25863 0.53202 0.2927 0.0
C866 C 0.23622 0.51126 0.2861 0.0
C867 C 0.21489 0.51117 0.29518 0.0
H868 H 0.6748 0.23652 0.49789 0.0
H869 H 0.70848 0.19599 0.45905 0.0
H870 H 0.71207 0.27367 0.48405 0.0
H871 H 0.74524 0.23288 0.44248 0.0
H872 H 0.8154 0.30227 0.45349 0.0
H873 H 0.7784 0.26563 0.47032 0.0
H874 H 0.73787 0.29963 0.432 0.0
H875 H 0.77512 0.33671 0.41794 0.0
C876 C 0.69014 0.23558 0.48598 0.0
C877 C 0.68872 0.21333 0.47977 0.0
C878 C 0.71154 0.25692 0.47764 0.0
C879 C 0.73196 0.25657 0.46197 0.0
C880 C 0.73028 0.23414 0.45543 0.0
C881 C 0.70907 0.21287 0.46466 0.0
C882 C 0.79856 0.30188 0.44867 0.0
C883 C 0.7982 0.3224 0.43441 0.0
C884 C 0.77721 0.28075 0.45805 0.0
C885 C 0.75483 0.27935 0.45249 0.0
C886 C 0.75459 0.29994 0.43767 0.0
C887 C 0.77599 0.32123 0.42919 0.0
H888 H 0.51418 0.81037 0.61886 0.0
H889 H 0.44022 0.77045 0.57835 0.0
H890 H 0.51365 0.77328 0.63529 0.0
H891 H 0.43994 0.73307 0.59203 0.0
H892 H 0.43937 0.66943 0.65758 0.0
H893 H 0.43931 0.70661 0.64357 0.0
H894 H 0.51408 0.74069 0.60692 0.0
H895 H 0.51432 0.70401 0.6237 0.0
C896 C 0.49786 0.79358 0.61286 0.0
C897 C 0.47725 0.79335 0.59728 0.0
C898 C 0.49757 0.77218 0.62199 0.0
C899 C 0.47679 0.74986 0.61486 0.0
C900 C 0.45619 0.74974 0.59885 0.0
C901 C 0.45636 0.77121 0.59061 0.0
C902 C 0.45579 0.68495 0.64667 0.0
C903 C 0.47687 0.68382 0.64198 0.0
C904 C 0.45575 0.7063 0.63825 0.0
C905 C 0.4767 0.72696 0.62403 0.0
C906 C 0.49769 0.72554 0.61881 0.0
C907 C 0.49783 0.70438 0.62814 0.0
H908 H 0.67442 0.43915 0.74399 0.0
H909 H 0.70702 0.51247 0.78757 0.0
H910 H 0.7118 0.43941 0.75772 0.0
H911 H 0.74388 0.51245 0.80397 0.0
H912 H 0.81459 0.51435 0.79213 0.0
H913 H 0.77743 0.51378 0.77562 0.0
H914 H 0.73748 0.43863 0.80949 0.0
H915 H 0.77491 0.43906 0.82327 0.0
C916 C 0.68954 0.45525 0.75697 0.0
C917 C 0.68779 0.4758 0.76451 0.0
C918 C 0.711 0.45539 0.76522 0.0
C919 C 0.73116 0.47596 0.78209 0.0
C920 C 0.72914 0.49641 0.79005 0.0
C921 C 0.70786 0.4964 0.78094 0.0
C922 C 0.79784 0.49772 0.79602 0.0
C923 C 0.79771 0.47676 0.80898 0.0
C924 C 0.7764 0.49738 0.78684 0.0
C925 C 0.75413 0.47617 0.79128 0.0
C926 C 0.75411 0.45524 0.80473 0.0
C927 C 0.77562 0.45549 0.81302 0.0
H928 H 0.2394 0.67192 0.90809 0.0
H929 H 0.19886 0.70553 0.94723 0.0
H930 H 0.27659 0.70914 0.92207 0.0
H931 H 0.23576 0.74223 0.96399 0.0
H932 H 0.30489 0.81233 0.95371 0.0
H933 H 0.26843 0.77534 0.93623 0.0
H934 H 0.3027 0.73499 0.97396 0.0
H935 H 0.33968 0.7723 0.98865 0.0
C936 C 0.23847 0.68724 0.9201 0.0
C937 C 0.2162 0.68582 0.92634 0.0
C938 C 0.25983 0.70861 0.92852 0.0
C939 C 0.25948 0.72899 0.9443 0.0
C940 C 0.23704 0.72731 0.95091 0.0
C941 C 0.21574 0.70613 0.94159 0.0
C942 C 0.30461 0.79553 0.95823 0.0
C943 C 0.32517 0.79524 0.97259 0.0
C944 C 0.28357 0.77419 0.94849 0.0
C945 C 0.28227 0.75185 0.95382 0.0
C946 C 0.30292 0.75167 0.96854 0.0
C947 C 0.32416 0.7731 0.97736 0.0
H948 H 0.62555 0.14504 0.70698 0.0
H949 H 0.55388 0.12385 0.6641 0.0
H950 H 0.61397 0.14648 0.78266 0.0
H951 H 0.54164 0.12342 0.73941 0.0
H952 H 0.58156 0.12541 0.91764 0.0
H953 H 0.59317 0.12437 0.8424 0.0
H954 H 0.54315 0.14623 0.79804 0.0
H955 H 0.53034 0.14539 0.87363 0.0
C956 C 0.60724 0.14035 0.71398 0.0
C957 C 0.59065 0.13449 0.67993 0.0
C958 C 0.60047 0.141 0.75734 0.0
C959 C 0.57678 0.13511 0.76753 0.0
C960 C 0.56016 0.12873 0.73311 0.0
C961 C 0.56711 0.12874 0.68985 0.0
C962 C 0.57301 0.1299 0.89166 0.0
C963 C 0.55505 0.13546 0.90124 0.0
C964 C 0.57983 0.12954 0.84843 0.0
C965 C 0.5693 0.13536 0.81372 0.0
C966 C 0.55139 0.14114 0.8236 0.0
C967 C 0.54409 0.14084 0.86691 0.0
H968 H 0.42849 0.54817 0.82545 0.0
H969 H 0.48169 0.61873 0.86874 0.0
H970 H 0.41742 0.5357 0.90096 0.0
H971 H 0.46946 0.60701 0.94458 0.0
H972 H 0.45922 0.57437 0.07824 0.0
H973 H 0.47098 0.58526 0.00242 0.0
H974 H 0.39771 0.5379 0.96171 0.0
H975 H 0.38658 0.5257 0.03786 0.0
C976 C 0.43758 0.56112 0.85134 0.0
C977 C 0.45595 0.58439 0.84152 0.0
C978 C 0.4311 0.55404 0.8947 0.0
C979 C 0.4424 0.57029 0.92926 0.0
C980 C 0.46066 0.59376 0.91911 0.0
C981 C 0.46761 0.60062 0.87568 0.0
C982 C 0.44572 0.5662 0.05288 0.0
C983 C 0.42203 0.54923 0.06358 0.0
C984 C 0.45237 0.57262 0.00938 0.0
C985 C 0.43531 0.56275 0.97558 0.0
C986 C 0.41151 0.54563 0.98656 0.0
C987 C 0.40501 0.53868 0.03015 0.0
H988 H 0.85958 0.41683 -0.00432 0.0
H989 H 0.88822 0.49023 0.03745 0.0
H990 H 0.8591 0.40472 0.07128 0.0
H991 H 0.88779 0.47794 0.11348 0.0
H992 H 0.8578 0.44133 0.24585 0.0
H993 H 0.85739 0.45283 0.17017 0.0
H994 H 0.88923 0.41086 0.12928 0.0
H995 H 0.88963 0.39914 0.20544 0.0
C996 C 0.86572 0.43041 0.02099 0.0
C997 C 0.87398 0.45455 0.01055 0.0
C998 C 0.86559 0.42344 0.06427 0.0
C999 C 0.87353 0.44039 0.09812 0.0
C1000 C 0.88144 0.46448 0.08792 0.0
C1001 C 0.88174 0.47152 0.04446 0.0
C1002 C 0.86465 0.43441 0.22082 0.0
C1003 C 0.87382 0.41933 0.23169 0.0
C1004 C 0.86455 0.44118 0.17749 0.0
C1005 C 0.87344 0.4329 0.14399 0.0
C1006 C 0.88217 0.41742 0.15457 0.0
C1007 C 0.88243 0.41075 0.1981 0.0
H1008 H 0.43366 0.8836 0.4115 0.0
H1009 H 0.48326 0.86117 0.36907 0.0
H1010 H 0.42207 0.88422 0.33614 0.0
H1011 H 0.47042 0.85992 0.29329 0.0
H1012 H 0.4599 0.88188 0.15824 0.0
H1013 H 0.47225 0.88228 0.23349 0.0
H1014 H 0.40059 0.86155 0.27751 0.0
H1015 H 0.38894 0.86302 0.20196 0.0
C1016 C 0.44184 0.87847 0.38584 0.0
C1017 C 0.45934 0.87232 0.39589 0.0
C1018 C 0.43503 0.87858 0.34254 0.0
C1019 C 0.44506 0.87191 0.30822 0.0
C1020 C 0.46256 0.86562 0.31855 0.0
C1021 C 0.46987 0.86616 0.36195 0.0
C1022 C 0.44684 0.87748 0.18414 0.0
C1023 C 0.42349 0.87247 0.17449 0.0
C1024 C 0.45385 0.87748 0.22737 0.0
C1025 C 0.43748 0.87184 0.262 0.0
C1026 C 0.41393 0.86651 0.25203 0.0
C1027 C 0.40712 0.86717 0.20874 0.0
H1028 H 0.55002 0.43331 0.58336 0.0
H1029 H 0.62133 0.48465 0.54035 0.0
H1030 H 0.53724 0.42304 0.50772 0.0
H1031 H 0.60925 0.47319 0.46435 0.0
H1032 H 0.5273 0.39046 0.37209 0.0
H1033 H 0.53887 0.40242 0.4481 0.0
H1034 H 0.5883 0.47468 0.40509 0.0
H1035 H 0.57794 0.46203 0.3294 0.0
C1036 C 0.56301 0.44225 0.55747 0.0
C1037 C 0.58664 0.45974 0.56746 0.0
C1038 C 0.55577 0.4362 0.51403 0.0
C1039 C 0.57218 0.44702 0.47948 0.0
C1040 C 0.59589 0.46472 0.48976 0.0
C1041 C 0.60294 0.47125 0.53332 0.0
C1042 C 0.54056 0.40887 0.37921 0.0
C1043 C 0.55185 0.42528 0.34514 0.0
C1044 C 0.54716 0.41586 0.42277 0.0
C1045 C 0.56469 0.4396 0.43315 0.0
C1046 C 0.57527 0.45612 0.39869 0.0
C1047 C 0.56917 0.44896 0.35523 0.0
H1048 H 0.11428 0.51195 0.53415 0.0
H1049 H 0.1514 0.5872 0.50101 0.0
H1050 H 0.11225 0.5222 0.61074 0.0
H1051 H 0.14941 0.59725 0.57699 0.0
H1052 H 0.11944 0.605 0.7079 0.0
H1053 H 0.11868 0.59299 0.63151 0.0
H1054 H 0.14079 0.54284 0.67231 0.0
H1055 H 0.14139 0.55457 0.74822 0.0
C1056 C 0.12207 0.53062 0.54316 0.0
C1057 C 0.13298 0.54872 0.51146 0.0
C1058 C 0.12092 0.53648 0.58695 0.0
C1059 C 0.1305 0.56052 0.59969 0.0
C1060 C 0.14151 0.57856 0.56802 0.0
C1061 C 0.14281 0.57275 0.52449 0.0
C1062 C 0.12403 0.59135 0.70052 0.0
C1063 C 0.1306 0.58086 0.73407 0.0
C1064 C 0.12368 0.58454 0.65685 0.0
C1065 C 0.12969 0.56697 0.64603 0.0
C1066 C 0.13583 0.55622 0.67968 0.0
C1067 C 0.13636 0.56313 0.72316 0.0
H1068 H 0.46543 0.0647 0.07061 0.0
H1069 H 0.52851 0.06556 0.02 0.0
H1070 H 0.44336 0.02114 0.06617 0.0
H1071 H 0.5063 0.02208 0.01507 0.0
H1072 H 0.46729 0.94364 0.05745 0.0
H1073 H 0.48877 0.98711 0.06279 0.0
H1074 H 0.42692 0.9886 0.01242 0.0
H1075 H 0.40522 0.94506 0.00757 0.0
C1076 C 0.4746 0.05567 0.05831 0.0
C1077 C 0.49881 0.06877 0.04564 0.0
C1078 C 0.46187 0.03066 0.05559 0.0
C1079 C 0.47305 0.01807 0.04034 0.0
C1080 C 0.49722 0.03116 0.02754 0.0
C1081 C 0.50992 0.05616 0.03009 0.0
C1082 C 0.45817 0.95317 0.04763 0.0
C1083 C 0.43444 0.94071 0.03211 0.0
C1084 C 0.47059 0.97816 0.05042 0.0
C1085 C 0.45963 0.9914 0.0379 0.0
C1086 C 0.43584 0.97897 0.02277 0.0
C1087 C 0.42342 0.95396 0.01982 0.0
H1088 H 0.532 0.46895 0.21825 0.0
H1089 H 0.46783 0.4057 0.17419 0.0
H1090 H 0.50977 0.4903 0.22335 0.0
H1091 H 0.44583 0.42719 0.17865 0.0
H1092 H 0.40793 0.46474 0.23732 0.0
H1093 H 0.4304 0.44368 0.23264 0.0
H1094 H 0.49056 0.50677 0.17761 0.0
H1095 H 0.46831 0.52804 0.1829 0.0
C1096 C 0.5132 0.45959 0.20949 0.0
C1097 C 0.50176 0.43552 0.19594 0.0
C1098 C 0.50047 0.4719 0.2122 0.0
C1099 C 0.47597 0.46047 0.2015 0.0
C1100 C 0.46458 0.43646 0.18778 0.0
C1101 C 0.47728 0.42416 0.18499 0.0
C1102 C 0.42594 0.47417 0.22416 0.0
C1103 C 0.43622 0.49813 0.21041 0.0
C1104 C 0.4388 0.46202 0.22128 0.0
C1105 C 0.46231 0.47349 0.20468 0.0
C1106 C 0.47262 0.49746 0.19104 0.0
C1107 C 0.45975 0.50961 0.19383 0.0
H1108 H 0.06484 0.4782 0.30201 0.0
H1109 H 0.06876 0.51685 0.42033 0.0
H1110 H 0.02104 0.45621 0.30714 0.0
H1111 H 0.02493 0.49419 0.42601 0.0
H1112 H 0.94906 0.41935 0.43654 0.0
H1113 H 0.99286 0.44227 0.43104 0.0
H1114 H 0.98738 0.47413 0.3105 0.0
H1115 H 0.94357 0.45188 0.31652 0.0
C1116 C 0.05637 0.48194 0.32915 0.0
C1117 C 0.07024 0.4993 0.36071 0.0
C1118 C 0.03135 0.46941 0.33196 0.0
C1119 C 0.01977 0.47355 0.36697 0.0
C1120 C 0.03355 0.49071 0.39877 0.0
C1121 C 0.05855 0.5037 0.39537 0.0
C1122 C 0.95718 0.43124 0.40887 0.0
C1123 C 0.94288 0.43385 0.37699 0.0
C1124 C 0.98219 0.44439 0.40588 0.0
C1125 C 0.99333 0.4599 0.3704 0.0
C1126 C 0.97911 0.46225 0.33814 0.0
C1127 C 0.95412 0.44958 0.34168 0.0
H1128 H 0.49862 0.94178 0.48272 0.0
H1129 H 0.53478 0.9446 0.60377 0.0
H1130 H 0.52146 0.98558 0.47827 0.0
H1131 H 0.55696 0.98843 0.59983 0.0
H1132 H 0.56036 0.06521 0.59254 0.0
H1133 H 0.53925 0.0214 0.5969 0.0
H1134 H 0.57217 0.01849 0.4757 0.0
H1135 H 0.59394 0.06232 0.47186 0.0
C1136 C 0.51137 0.95174 0.50841 0.0
C1137 C 0.51491 0.93975 0.54359 0.0
C1138 C 0.52445 0.97674 0.50574 0.0
C1139 C 0.54087 0.99024 0.53875 0.0
C1140 C 0.54434 0.97834 0.57406 0.0
C1141 C 0.53172 0.95331 0.57618 0.0
C1142 C 0.56316 0.05523 0.5669 0.0
C1143 C 0.57882 0.06721 0.53186 0.0
C1144 C 0.55116 0.03023 0.56952 0.0
C1145 C 0.55412 0.01671 0.5366 0.0
C1146 C 0.5696 0.02859 0.50141 0.0
C1147 C 0.58208 0.05363 0.49934 0.0
H1148 H 0.54263 0.47891 0.69278 0.0
H1149 H 0.60496 0.54315 0.73938 0.0
H1150 H 0.52087 0.50068 0.68709 0.0
H1151 H 0.58303 0.5647 0.73434 0.0
H1152 H 0.54517 0.60202 0.67396 0.0
H1153 H 0.56679 0.58015 0.67988 0.0
H1154 H 0.50345 0.51912 0.73217 0.0
H1155 H 0.48164 0.54077 0.72561 0.0
C1156 C 0.5517 0.49762 0.702 0.0
C1157 C 0.57564 0.50922 0.71641 0.0
C1158 C 0.53914 0.51009 0.69895 0.0
C1159 C 0.55018 0.53448 0.71018 0.0
C1160 C 0.57406 0.54604 0.72479 0.0
C1161 C 0.58661 0.53359 0.72791 0.0
C1162 C 0.53581 0.58396 0.6868 0.0
C1163 C 0.5116 0.57323 0.69934 0.0
C1164 C 0.54828 0.57144 0.6904 0.0
C1165 C 0.5369 0.54785 0.70654 0.0
C1166 C 0.51271 0.53714 0.71909 0.0
C1167 C 0.50024 0.54965 0.71558 0.0
H1168 H 0.06763 0.53968 0.86178 0.0
H1169 H 0.06634 0.6032 0.90281 0.0
H1170 H 0.02401 0.51803 0.85701 0.0
H1171 H 0.02288 0.58144 0.89876 0.0
H1172 H 0.94765 0.54337 0.83978 0.0
H1173 H 0.99112 0.5645 0.84499 0.0
H1174 H 0.98814 0.50179 0.90207 0.0
H1175 H 0.94461 0.48041 0.89616 0.0
C1176 C 0.0581 0.54903 0.86997 0.0
C1177 C 0.07064 0.57327 0.88249 0.0
C1178 C 0.03304 0.53655 0.86747 0.0
C1179 C 0.01987 0.54799 0.87736 0.0
C1180 C 0.03241 0.57215 0.89021 0.0
C1181 C 0.05741 0.58461 0.89276 0.0
C1182 C 0.95618 0.53403 0.85355 0.0
C1183 C 0.94248 0.51013 0.86762 0.0
C1184 C 0.98118 0.54623 0.85674 0.0
C1185 C 0.9932 0.53489 0.87403 0.0
C1186 C 0.97952 0.511 0.88811 0.0
C1187 C 0.9545 0.49879 0.88498 0.0
loop_
_geom_bond_atom_site_label_1
_geom_bond_atom_site_label_2
_geom_bond_distance
_geom_bond_site_symmetry_2
_ccdc_geom_bond_type
Co0 O2 2.143 . S
Co0 O8 2.074 . S
Co0 O11 2.093 . S
Co0 O24 2.097 . S
Co0 N41 2.151 . S
Co0 N49 2.214 . S
Co1 O2 2.160 . S
Co1 O7 2.058 . S
Co1 O17 2.057 1_554 S
Co1 O32 2.037 . S
Co1 N36 2.145 . S
Co1 N57 2.257 . S
O2 Co0 2.143 . S
O2 Co1 2.160 . S
C3 O4 1.278 . S
C3 O11 1.224 . S
O4 C3 1.278 . S
C5 O6 1.245 . S
C5 O17 1.232 . S
O6 C5 1.245 . S
O7 Co1 2.058 . S
O7 C33 1.269 . S
O8 Co0 2.074 . S
O8 C33 1.257 . S
H9 C34 0.930 . S
H10 C40 0.930 . S
O11 Co0 2.093 . S
O11 C3 1.224 . S
H12 C44 0.929 . S
H13 C46 0.930 . S
H14 C47 0.930 . S
H15 C45 0.929 . S
H16 C48 0.928 . S
O17 Co1 2.057 1_556 S
O17 C5 1.232 . S
H18 C37 0.929 . S
H19 C38 0.929 1_556 S
H20 C50 0.931 . S
H21 C42 0.929 . S
H22 C51 0.930 . S
H23 C43 0.931 1_556 S
O24 Co0 2.097 . S
O24 C52 1.214 . S
H25 C53 0.929 . S
H26 C54 0.929 . S
H27 C55 0.930 . S
H28 C56 0.929 . S
H29 C58 0.930 . S
H30 C35 0.930 1_556 S
H31 C39 0.930 . S
O32 Co1 2.037 . S
O32 C52 1.234 . S
C33 O7 1.269 . S
C33 O8 1.257 . S
C34 H9 0.930 . S
C34 C37 1.388 . S
C34 C39 1.418 . S
C35 H30 0.930 1_554 S
C35 C38 1.404 . S
C35 C39 1.353 . S
N36 Co1 2.145 . S
N36 C37 1.397 . S
N36 C38 1.334 . S
C37 H18 0.929 . S
C37 C34 1.388 . S
C37 N36 1.397 . S
C38 H19 0.929 1_554 S
C38 C35 1.404 . S
C38 N36 1.334 . S
C39 H31 0.930 . S
C39 C34 1.418 . S
C39 C35 1.353 . S
C40 H10 0.930 . S
C40 N41 1.330 . S
C40 C42 1.446 1_554 S
N41 Co0 2.151 . S
N41 C40 1.330 . S
N41 C45 1.418 . S
C42 H21 0.929 . S
C42 C40 1.446 1_556 S
C42 C43 1.332 1_556 S
C43 H23 0.931 1_554 S
C43 C42 1.332 1_554 S
C43 C44 1.267 . S
C44 H12 0.929 . S
C44 C43 1.267 . S
C44 C45 1.251 . S
C45 H15 0.929 . S
C45 N41 1.418 . S
C45 C44 1.251 . S
C46 H13 0.930 . S
C46 C48 1.406 . S
C46 C51 1.261 . S
C47 H14 0.930 . S
C47 N49 1.325 . S
C47 C50 1.357 . S
C48 H16 0.928 . S
C48 C46 1.406 . S
C48 N49 1.261 . S
N49 Co0 2.214 . S
N49 C47 1.325 . S
N49 C48 1.261 . S
C50 H20 0.931 . S
C50 C47 1.357 . S
C50 C51 1.312 . S
C51 H22 0.930 . S
C51 C46 1.261 . S
C51 C50 1.312 . S
C52 O24 1.214 . S
C52 O32 1.234 . S
C53 H25 0.929 . S
C53 C56 1.391 . S
C53 C58 1.391 . S
C54 H26 0.929 . S
C54 C55 1.390 . S
C54 N57 1.391 . S
C55 H27 0.930 . S
C55 C54 1.390 . S
C55 C56 1.392 . S
C56 H28 0.929 . S
C56 C53 1.391 . S
C56 C55 1.392 . S
N57 Co1 2.257 . S
N57 C54 1.391 . S
N57 C58 1.388 . S
C58 H29 0.930 . S
C58 C53 1.391 . S
C58 N57 1.388 . S
Co59 O61 2.143 . S
Co59 O67 2.074 . S
Co59 O70 2.093 . S
Co59 O83 2.097 . S
Co59 N100 2.151 . S
Co59 N108 2.214 . S
Co60 O61 2.160 . S
Co60 O66 2.058 . S
Co60 O76 2.057 . S
Co60 O91 2.037 . S
Co60 N95 2.145 . S
Co60 N116 2.257 . S
O61 Co59 2.143 . S
O61 Co60 2.160 . S
C62 O63 1.278 . S
C62 O70 1.224 . S
O63 C62 1.278 . S
C64 O65 1.245 . S
C64 O76 1.232 . S
O65 C64 1.245 . S
O66 Co60 2.058 . S
O66 C92 1.269 . S
O67 Co59 2.074 . S
O67 C92 1.257 . S
H68 C93 0.930 . S
H69 C99 0.930 . S
O70 Co59 2.093 . S
O70 C62 1.224 . S
H71 C103 0.929 . S
H72 C105 0.930 . S
H73 C106 0.930 . S
H74 C104 0.929 . S
H75 C107 0.928 . S
O76 Co60 2.057 . S
O76 C64 1.232 . S
H77 C96 0.929 . S
H78 C97 0.929 . S
H79 C109 0.931 . S
H80 C101 0.929 . S
H81 C110 0.930 . S
H82 C102 0.931 . S
O83 Co59 2.097 . S
O83 C111 1.214 . S
H84 C112 0.929 . S
H85 C113 0.929 . S
H86 C114 0.930 . S
H87 C115 0.929 . S
H88 C117 0.930 . S
H89 C94 0.930 . S
H90 C98 0.930 . S
O91 Co60 2.037 . S
O91 C111 1.234 . S
C92 O66 1.269 . S
C92 O67 1.257 . S
C93 H68 0.930 . S
C93 C96 1.388 . S
C93 C98 1.418 . S
C94 H89 0.930 . S
C94 C97 1.404 . S
C94 C98 1.353 . S
N95 Co60 2.145 . S
N95 C96 1.397 . S
N95 C97 1.334 . S
C96 H77 0.929 . S
C96 C93 1.388 . S
C96 N95 1.397 . S
C97 H78 0.929 . S
C97 C94 1.404 . S
C97 N95 1.334 . S
C98 H90 0.930 . S
C98 C93 1.418 . S
C98 C94 1.353 . S
C99 H69 0.930 . S
C99 N100 1.330 . S
C99 C101 1.446 . S
N100 Co59 2.151 . S
N100 C99 1.330 . S
N100 C104 1.418 . S
C101 H80 0.929 . S
C101 C99 1.446 . S
C101 C102 1.332 . S
C102 H82 0.931 . S
C102 C101 1.332 . S
C102 C103 1.267 . S
C103 H71 0.929 . S
C103 C102 1.267 . S
C103 C104 1.251 . S
C104 H74 0.929 . S
C104 N100 1.418 . S
C104 C103 1.251 . S
C105 H72 0.930 . S
C105 C107 1.406 . S
C105 C110 1.261 . S
C106 H73 0.930 . S
C106 N108 1.325 . S
C106 C109 1.357 . S
C107 H75 0.928 . S
C107 C105 1.406 . S
C107 N108 1.261 . S
N108 Co59 2.214 . S
N108 C106 1.325 . S
N108 C107 1.261 . S
C109 H79 0.931 . S
C109 C106 1.357 . S
C109 C110 1.312 . S
C110 H81 0.930 . S
C110 C105 1.261 . S
C110 C109 1.312 . S
C111 O83 1.214 . S
C111 O91 1.234 . S
C112 H84 0.929 . S
C112 C115 1.391 . S
C112 C117 1.391 . S
C113 H85 0.929 . S
C113 C114 1.390 . S
C113 N116 1.391 . S
C114 H86 0.930 . S
C114 C113 1.390 . S
C114 C115 1.392 . S
C115 H87 0.929 . S
C115 C112 1.391 . S
C115 C114 1.392 . S
N116 Co60 2.257 . S
N116 C113 1.391 . S
N116 C117 1.388 . S
C117 H88 0.930 . S
C117 C112 1.391 . S
C117 N116 1.388 . S
Co118 O120 2.143 . S
Co118 O126 2.074 . S
Co118 O129 2.093 . S
Co118 O142 2.097 . S
Co118 N159 2.151 . S
Co118 N167 2.214 . S
Co119 O120 2.160 . S
Co119 O125 2.058 . S
Co119 O135 2.057 . S
Co119 O150 2.037 . S
Co119 N154 2.145 . S
Co119 N175 2.257 . S
O120 Co118 2.143 . S
O120 Co119 2.160 . S
C121 O122 1.278 . S
C121 O129 1.224 . S
O122 C121 1.278 . S
C123 O124 1.245 . S
C123 O135 1.232 . S
O124 C123 1.245 . S
O125 Co119 2.058 . S
O125 C151 1.269 . S
O126 Co118 2.074 . S
O126 C151 1.257 . S
H127 C152 0.930 . S
H128 C158 0.930 . S
O129 Co118 2.093 . S
O129 C121 1.224 . S
H130 C162 0.929 . S
H131 C164 0.930 . S
H132 C165 0.930 . S
H133 C163 0.929 . S
H134 C166 0.928 . S
O135 Co119 2.057 . S
O135 C123 1.232 . S
H136 C155 0.929 . S
H137 C156 0.929 . S
H138 C168 0.931 . S
H139 C160 0.929 . S
H140 C169 0.930 . S
H141 C161 0.931 . S
O142 Co118 2.097 . S
O142 C170 1.214 . S
H143 C171 0.929 . S
H144 C172 0.929 . S
H145 C173 0.930 . S
H146 C174 0.929 . S
H147 C176 0.930 . S
H148 C153 0.930 . S
H149 C157 0.930 . S
O150 Co119 2.037 . S
O150 C170 1.234 . S
C151 O125 1.269 . S
C151 O126 1.257 . S
C152 H127 0.930 . S
C152 C155 1.388 . S
C152 C157 1.418 . S
C153 H148 0.930 . S
C153 C156 1.404 . S
C153 C157 1.353 . S
N154 Co119 2.145 . S
N154 C155 1.397 . S
N154 C156 1.334 . S
C155 H136 0.929 . S
C155 C152 1.388 . S
C155 N154 1.397 . S
C156 H137 0.929 . S
C156 C153 1.404 . S
C156 N154 1.334 . S
C157 H149 0.930 . S
C157 C152 1.418 . S
C157 C153 1.353 . S
C158 H128 0.930 . S
C158 N159 1.330 . S
C158 C160 1.446 . S
N159 Co118 2.151 . S
N159 C158 1.330 . S
N159 C163 1.418 . S
C160 H139 0.929 . S
C160 C158 1.446 . S
C160 C161 1.332 . S
C161 H141 0.931 . S
C161 C160 1.332 . S
C161 C162 1.267 . S
C162 H130 0.929 . S
C162 C161 1.267 . S
C162 C163 1.251 . S
C163 H133 0.929 . S
C163 N159 1.418 . S
C163 C162 1.251 . S
C164 H131 0.930 . S
C164 C166 1.406 . S
C164 C169 1.261 . S
C165 H132 0.930 . S
C165 N167 1.325 . S
C165 C168 1.357 . S
C166 H134 0.928 . S
C166 C164 1.406 . S
C166 N167 1.261 . S
N167 Co118 2.214 . S
N167 C165 1.325 . S
N167 C166 1.261 . S
C168 H138 0.931 . S
C168 C165 1.357 . S
C168 C169 1.312 . S
C169 H140 0.930 . S
C169 C164 1.261 . S
C169 C168 1.312 . S
C170 O142 1.214 . S
C170 O150 1.234 . S
C171 H143 0.929 . S
C171 C174 1.391 . S
C171 C176 1.391 . S
C172 H144 0.929 . S
C172 C173 1.390 . S
C172 N175 1.391 . S
C173 H145 0.930 . S
C173 C172 1.390 . S
C173 C174 1.392 . S
C174 H146 0.929 . S
C174 C171 1.391 . S
C174 C173 1.392 . S
N175 Co119 2.257 . S
N175 C172 1.391 . S
N175 C176 1.388 . S
C176 H147 0.930 . S
C176 C171 1.391 . S
C176 N175 1.388 . S
Co177 O179 2.143 . S
Co177 O185 2.074 . S
Co177 O188 2.093 . S
Co177 O201 2.097 . S
Co177 N218 2.151 . S
Co177 N226 2.214 . S
Co178 O179 2.160 . S
Co178 O184 2.058 . S
Co178 O194 2.057 . S
Co178 O209 2.037 . S
Co178 N213 2.145 . S
Co178 N234 2.257 . S
O179 Co177 2.143 . S
O179 Co178 2.160 . S
C180 O181 1.278 . S
C180 O188 1.224 . S
O181 C180 1.278 . S
C182 O183 1.245 . S
C182 O194 1.232 . S
O183 C182 1.245 . S
O184 Co178 2.058 . S
O184 C210 1.269 . S
O185 Co177 2.074 . S
O185 C210 1.257 . S
H186 C211 0.930 . S
H187 C217 0.930 . S
O188 Co177 2.093 . S
O188 C180 1.224 . S
H189 C221 0.929 . S
H190 C223 0.930 . S
H191 C224 0.930 . S
H192 C222 0.929 . S
H193 C225 0.928 . S
O194 Co178 2.057 . S
O194 C182 1.232 . S
H195 C214 0.929 . S
H196 C215 0.929 . S
H197 C227 0.931 . S
H198 C219 0.929 . S
H199 C228 0.930 . S
H200 C220 0.931 . S
O201 Co177 2.097 . S
O201 C229 1.214 . S
H202 C230 0.929 . S
H203 C231 0.929 . S
H204 C232 0.930 . S
H205 C233 0.929 . S
H206 C235 0.930 . S
H207 C212 0.930 . S
H208 C216 0.930 . S
O209 Co178 2.037 . S
O209 C229 1.234 . S
C210 O184 1.269 . S
C210 O185 1.257 . S
C211 H186 0.930 . S
C211 C214 1.388 . S
C211 C216 1.418 . S
C212 H207 0.930 . S
C212 C215 1.404 . S
C212 C216 1.353 . S
N213 Co178 2.145 . S
N213 C214 1.397 . S
N213 C215 1.334 . S
C214 H195 0.929 . S
C214 C211 1.388 . S
C214 N213 1.397 . S
C215 H196 0.929 . S
C215 C212 1.404 . S
C215 N213 1.334 . S
C216 H208 0.930 . S
C216 C211 1.418 . S
C216 C212 1.353 . S
C217 H187 0.930 . S
C217 N218 1.330 . S
C217 C219 1.446 . S
N218 Co177 2.151 . S
N218 C217 1.330 . S
N218 C222 1.418 . S
C219 H198 0.929 . S
C219 C217 1.446 . S
C219 C220 1.332 . S
C220 H200 0.931 . S
C220 C219 1.332 . S
C220 C221 1.267 . S
C221 H189 0.929 . S
C221 C220 1.267 . S
C221 C222 1.251 . S
C222 H192 0.929 . S
C222 N218 1.418 . S
C222 C221 1.251 . S
C223 H190 0.930 . S
C223 C225 1.406 . S
C223 C228 1.261 . S
C224 H191 0.930 . S
C224 N226 1.325 . S
C224 C227 1.357 . S
C225 H193 0.928 . S
C225 C223 1.406 . S
C225 N226 1.261 . S
N226 Co177 2.214 . S
N226 C224 1.325 . S
N226 C225 1.261 . S
C227 H197 0.931 . S
C227 C224 1.357 . S
C227 C228 1.312 . S
C228 H199 0.930 . S
C228 C223 1.261 . S
C228 C227 1.312 . S
C229 O201 1.214 . S
C229 O209 1.234 . S
C230 H202 0.929 . S
C230 C233 1.391 . S
C230 C235 1.391 . S
C231 H203 0.929 . S
C231 C232 1.390 . S
C231 N234 1.391 . S
C232 H204 0.930 . S
C232 C231 1.390 . S
C232 C233 1.392 . S
C233 H205 0.929 . S
C233 C230 1.391 . S
C233 C232 1.392 . S
N234 Co178 2.257 . S
N234 C231 1.391 . S
N234 C235 1.388 . S
C235 H206 0.930 . S
C235 C230 1.391 . S
C235 N234 1.388 . S
Co236 O238 2.143 . S
Co236 O244 2.074 . S
Co236 O247 2.093 . S
Co236 O260 2.097 . S
Co236 N277 2.151 . S
Co236 N285 2.214 . S
Co237 O238 2.160 . S
Co237 O243 2.058 . S
Co237 O253 2.057 . S
Co237 O268 2.037 . S
Co237 N272 2.145 . S
Co237 N293 2.257 . S
O238 Co236 2.143 . S
O238 Co237 2.160 . S
C239 O240 1.278 . S
C239 O247 1.224 . S
O240 C239 1.278 . S
C241 O242 1.245 . S
C241 O253 1.232 . S
O242 C241 1.245 . S
O243 Co237 2.058 . S
O243 C269 1.269 . S
O244 Co236 2.074 . S
O244 C269 1.257 . S
H245 C270 0.930 . S
H246 C276 0.930 . S
O247 Co236 2.093 . S
O247 C239 1.224 . S
H248 C280 0.929 . S
H249 C282 0.930 . S
H250 C283 0.930 . S
H251 C281 0.929 . S
H252 C284 0.928 . S
O253 Co237 2.057 . S
O253 C241 1.232 . S
H254 C273 0.929 . S
H255 C274 0.929 . S
H256 C286 0.931 . S
H257 C278 0.929 . S
H258 C287 0.930 . S
H259 C279 0.931 . S
O260 Co236 2.097 . S
O260 C288 1.214 . S
H261 C289 0.929 . S
H262 C290 0.929 . S
H263 C291 0.930 . S
H264 C292 0.929 . S
H265 C294 0.930 . S
H266 C271 0.930 . S
H267 C275 0.930 . S
O268 Co237 2.037 . S
O268 C288 1.234 . S
C269 O243 1.269 . S
C269 O244 1.257 . S
C270 H245 0.930 . S
C270 C273 1.388 . S
C270 C275 1.418 . S
C271 H266 0.930 . S
C271 C274 1.404 . S
C271 C275 1.353 . S
N272 Co237 2.145 . S
N272 C273 1.397 . S
N272 C274 1.334 . S
C273 H254 0.929 . S
C273 C270 1.388 . S
C273 N272 1.397 . S
C274 H255 0.929 . S
C274 C271 1.404 . S
C274 N272 1.334 . S
C275 H267 0.930 . S
C275 C270 1.418 . S
C275 C271 1.353 . S
C276 H246 0.930 . S
C276 N277 1.330 . S
C276 C278 1.446 . S
N277 Co236 2.151 . S
N277 C276 1.330 . S
N277 C281 1.418 . S
C278 H257 0.929 . S
C278 C276 1.446 . S
C278 C279 1.332 . S
C279 H259 0.931 . S
C279 C278 1.332 . S
C279 C280 1.267 . S
C280 H248 0.929 . S
C280 C279 1.267 . S
C280 C281 1.251 . S
C281 H251 0.929 . S
C281 N277 1.418 . S
C281 C280 1.251 . S
C282 H249 0.930 . S
C282 C284 1.406 . S
C282 C287 1.261 . S
C283 H250 0.930 . S
C283 N285 1.325 . S
C283 C286 1.357 . S
C284 H252 0.928 . S
C284 C282 1.406 . S
C284 N285 1.261 . S
N285 Co236 2.214 . S
N285 C283 1.325 . S
N285 C284 1.261 . S
C286 H256 0.931 . S
C286 C283 1.357 . S
C286 C287 1.312 . S
C287 H258 0.930 . S
C287 C282 1.261 . S
C287 C286 1.312 . S
C288 O260 1.214 . S
C288 O268 1.234 . S
C289 H261 0.929 . S
C289 C292 1.391 . S
C289 C294 1.391 . S
C290 H262 0.929 . S
C290 C291 1.390 . S
C290 N293 1.391 . S
C291 H263 0.930 . S
C291 C290 1.390 . S
C291 C292 1.392 . S
C292 H264 0.929 . S
C292 C289 1.391 . S
C292 C291 1.392 . S
N293 Co237 2.257 . S
N293 C290 1.391 . S
N293 C294 1.388 . S
C294 H265 0.930 . S
C294 C289 1.391 . S
C294 N293 1.388 . S
Co295 O297 2.143 . S
Co295 O303 2.074 . S
Co295 O306 2.093 . S
Co295 O319 2.097 . S
Co295 N336 2.151 . S
Co295 N344 2.214 . S
Co296 O297 2.160 . S
Co296 O302 2.058 . S
Co296 O312 2.057 . S
Co296 O327 2.037 . S
Co296 N331 2.145 . S
Co296 N352 2.257 . S
O297 Co295 2.143 . S
O297 Co296 2.160 . S
C298 O299 1.278 . S
C298 O306 1.224 . S
O299 C298 1.278 . S
C300 O301 1.245 . S
C300 O312 1.232 . S
O301 C300 1.245 . S
O302 Co296 2.058 . S
O302 C328 1.269 . S
O303 Co295 2.074 . S
O303 C328 1.257 . S
H304 C329 0.930 . S
H305 C335 0.930 . S
O306 Co295 2.093 . S
O306 C298 1.224 . S
H307 C339 0.929 . S
H308 C341 0.930 . S
H309 C342 0.930 . S
H310 C340 0.929 . S
H311 C343 0.928 . S
O312 Co296 2.057 . S
O312 C300 1.232 . S
H313 C332 0.929 . S
H314 C333 0.929 . S
H315 C345 0.931 . S
H316 C337 0.929 . S
H317 C346 0.930 . S
H318 C338 0.931 . S
O319 Co295 2.097 . S
O319 C347 1.214 . S
H320 C348 0.929 . S
H321 C349 0.929 . S
H322 C350 0.930 . S
H323 C351 0.929 . S
H324 C353 0.930 . S
H325 C330 0.930 . S
H326 C334 0.930 . S
O327 Co296 2.037 . S
O327 C347 1.234 . S
C328 O302 1.269 . S
C328 O303 1.257 . S
C329 H304 0.930 . S
C329 C332 1.388 . S
C329 C334 1.418 . S
C330 H325 0.930 . S
C330 C333 1.404 . S
C330 C334 1.353 . S
N331 Co296 2.145 . S
N331 C332 1.397 . S
N331 C333 1.334 . S
C332 H313 0.929 . S
C332 C329 1.388 . S
C332 N331 1.397 . S
C333 H314 0.929 . S
C333 C330 1.404 . S
C333 N331 1.334 . S
C334 H326 0.930 . S
C334 C329 1.418 . S
C334 C330 1.353 . S
C335 H305 0.930 . S
C335 N336 1.330 . S
C335 C337 1.446 . S
N336 Co295 2.151 . S
N336 C335 1.330 . S
N336 C340 1.418 . S
C337 H316 0.929 . S
C337 C335 1.446 . S
C337 C338 1.332 . S
C338 H318 0.931 . S
C338 C337 1.332 . S
C338 C339 1.267 . S
C339 H307 0.929 . S
C339 C338 1.267 . S
C339 C340 1.251 . S
C340 H310 0.929 . S
C340 N336 1.418 . S
C340 C339 1.251 . S
C341 H308 0.930 . S
C341 C343 1.406 1_554 S
C341 C346 1.261 . S
C342 H309 0.930 . S
C342 N344 1.325 1_554 S
C342 C345 1.357 . S
C343 H311 0.928 . S
C343 C341 1.406 1_556 S
C343 N344 1.261 . S
N344 Co295 2.214 . S
N344 C342 1.325 1_556 S
N344 C343 1.261 . S
C345 H315 0.931 . S
C345 C342 1.357 . S
C345 C346 1.312 . S
C346 H317 0.930 . S
C346 C341 1.261 . S
C346 C345 1.312 . S
C347 O319 1.214 . S
C347 O327 1.234 . S
C348 H320 0.929 . S
C348 C351 1.391 . S
C348 C353 1.391 . S
C349 H321 0.929 . S
C349 C350 1.390 . S
C349 N352 1.391 . S
C350 H322 0.930 . S
C350 C349 1.390 . S
C350 C351 1.392 . S
C351 H323 0.929 . S
C351 C348 1.391 . S
C351 C350 1.392 . S
N352 Co296 2.257 . S
N352 C349 1.391 . S
N352 C353 1.388 . S
C353 H324 0.930 . S
C353 C348 1.391 . S
C353 N352 1.388 . S
Co354 O356 2.143 . S
Co354 O362 2.074 . S
Co354 O365 2.093 . S
Co354 O378 2.097 . S
Co354 N395 2.151 . S
Co354 N403 2.214 . S
Co355 O356 2.160 . S
Co355 O361 2.058 . S
Co355 O371 2.057 . S
Co355 O386 2.037 . S
Co355 N390 2.145 . S
Co355 N411 2.257 . S
O356 Co354 2.143 . S
O356 Co355 2.160 . S
C357 O358 1.278 . S
C357 O365 1.224 . S
O358 C357 1.278 . S
C359 O360 1.245 . S
C359 O371 1.232 . S
O360 C359 1.245 . S
O361 Co355 2.058 . S
O361 C387 1.269 . S
O362 Co354 2.074 . S
O362 C387 1.257 . S
H363 C388 0.930 . S
H364 C394 0.930 . S
O365 Co354 2.093 . S
O365 C357 1.224 . S
H366 C398 0.929 . S
H367 C400 0.930 . S
H368 C401 0.930 . S
H369 C399 0.929 . S
H370 C402 0.928 . S
O371 Co355 2.057 . S
O371 C359 1.232 . S
H372 C391 0.929 . S
H373 C392 0.929 . S
H374 C404 0.931 . S
H375 C396 0.929 . S
H376 C405 0.930 . S
H377 C397 0.931 . S
O378 Co354 2.097 . S
O378 C406 1.214 . S
H379 C407 0.929 . S
H380 C408 0.929 . S
H381 C409 0.930 . S
H382 C410 0.929 . S
H383 C412 0.930 . S
H384 C389 0.930 . S
H385 C393 0.930 . S
O386 Co355 2.037 . S
O386 C406 1.234 . S
C387 O361 1.269 . S
C387 O362 1.257 . S
C388 H363 0.930 . S
C388 C391 1.388 . S
C388 C393 1.418 . S
C389 H384 0.930 . S
C389 C392 1.404 . S
C389 C393 1.353 . S
N390 Co355 2.145 . S
N390 C391 1.397 . S
N390 C392 1.334 . S
C391 H372 0.929 . S
C391 C388 1.388 . S
C391 N390 1.397 . S
C392 H373 0.929 . S
C392 C389 1.404 . S
C392 N390 1.334 . S
C393 H385 0.930 . S
C393 C388 1.418 . S
C393 C389 1.353 . S
C394 H364 0.930 . S
C394 N395 1.330 . S
C394 C396 1.446 . S
N395 Co354 2.151 . S
N395 C394 1.330 . S
N395 C399 1.418 . S
C396 H375 0.929 . S
C396 C394 1.446 . S
C396 C397 1.332 . S
C397 H377 0.931 . S
C397 C396 1.332 . S
C397 C398 1.267 . S
C398 H366 0.929 . S
C398 C397 1.267 . S
C398 C399 1.251 . S
C399 H369 0.929 . S
C399 N395 1.418 . S
C399 C398 1.251 . S
C400 H367 0.930 . S
C400 C402 1.406 . S
C400 C405 1.261 . S
C401 H368 0.930 . S
C401 N403 1.325 . S
C401 C404 1.357 . S
C402 H370 0.928 . S
C402 C400 1.406 . S
C402 N403 1.261 . S
N403 Co354 2.214 . S
N403 C401 1.325 . S
N403 C402 1.261 . S
C404 H374 0.931 . S
C404 C401 1.357 . S
C404 C405 1.312 . S
C405 H376 0.930 . S
C405 C400 1.261 . S
C405 C404 1.312 . S
C406 O378 1.214 . S
C406 O386 1.234 . S
C407 H379 0.929 . S
C407 C410 1.391 . S
C407 C412 1.391 . S
C408 H380 0.929 . S
C408 C409 1.390 . S
C408 N411 1.391 . S
C409 H381 0.930 . S
C409 C408 1.390 . S
C409 C410 1.392 . S
C410 H382 0.929 . S
C410 C407 1.391 . S
C410 C409 1.392 . S
N411 Co355 2.257 . S
N411 C408 1.391 . S
N411 C412 1.388 . S
C412 H383 0.930 . S
C412 C407 1.391 . S
C412 N411 1.388 . S
Co413 O415 2.143 1_556 S
Co413 O421 2.074 1_556 S
Co413 O424 2.093 . S
Co413 O437 2.097 . S
Co413 N454 2.151 1_556 S
Co413 N462 2.214 . S
Co414 O415 2.160 . S
Co414 O420 2.058 . S
Co414 O430 2.057 . S
Co414 O445 2.037 1_554 S
Co414 N449 2.145 . S
Co414 N470 2.257 . S
O415 Co413 2.143 1_554 S
O415 Co414 2.160 . S
C416 O417 1.278 . S
C416 O424 1.224 1_554 S
O417 C416 1.278 . S
C418 O419 1.245 . S
C418 O430 1.232 . S
O419 C418 1.245 . S
O420 Co414 2.058 . S
O420 C446 1.269 . S
O421 Co413 2.074 1_554 S
O421 C446 1.257 . S
H422 C447 0.930 1_556 S
H423 C453 0.930 . S
O424 Co413 2.093 . S
O424 C416 1.224 1_556 S
H425 C457 0.929 . S
H426 C459 0.930 . S
H427 C460 0.930 . S
H428 C458 0.929 . S
H429 C461 0.928 . S
O430 Co414 2.057 . S
O430 C418 1.232 . S
H431 C450 0.929 1_556 S
H432 C451 0.929 . S
H433 C463 0.931 . S
H434 C455 0.929 . S
H435 C464 0.930 . S
H436 C456 0.931 . S
O437 Co413 2.097 . S
O437 C465 1.214 . S
H438 C466 0.929 . S
H439 C467 0.929 1_556 S
H440 C468 0.930 . S
H441 C469 0.929 . S
H442 C471 0.930 . S
H443 C448 0.930 . S
H444 C452 0.930 . S
O445 Co414 2.037 1_556 S
O445 C465 1.234 . S
C446 O420 1.269 . S
C446 O421 1.257 . S
C447 H422 0.930 1_554 S
C447 C450 1.388 . S
C447 C452 1.418 . S
C448 H443 0.930 . S
C448 C451 1.404 . S
C448 C452 1.353 . S
N449 Co414 2.145 . S
N449 C450 1.397 . S
N449 C451 1.334 . S
C450 H431 0.929 1_554 S
C450 C447 1.388 . S
C450 N449 1.397 . S
C451 H432 0.929 . S
C451 C448 1.404 . S
C451 N449 1.334 . S
C452 H444 0.930 . S
C452 C447 1.418 . S
C452 C448 1.353 . S
C453 H423 0.930 . S
C453 N454 1.330 . S
C453 C455 1.446 . S
N454 Co413 2.151 1_554 S
N454 C453 1.330 . S
N454 C458 1.418 . S
C455 H434 0.929 . S
C455 C453 1.446 . S
C455 C456 1.332 . S
C456 H436 0.931 . S
C456 C455 1.332 . S
C456 C457 1.267 . S
C457 H425 0.929 . S
C457 C456 1.267 . S
C457 C458 1.251 . S
C458 H428 0.929 . S
C458 N454 1.418 . S
C458 C457 1.251 . S
C459 H426 0.930 . S
C459 C461 1.406 . S
C459 C464 1.261 . S
C460 H427 0.930 . S
C460 N462 1.325 . S
C460 C463 1.357 . S
C461 H429 0.928 . S
C461 C459 1.406 . S
C461 N462 1.261 . S
N462 Co413 2.214 . S
N462 C460 1.325 . S
N462 C461 1.261 . S
C463 H433 0.931 . S
C463 C460 1.357 . S
C463 C464 1.312 . S
C464 H435 0.930 . S
C464 C459 1.261 . S
C464 C463 1.312 . S
C465 O437 1.214 . S
C465 O445 1.234 . S
C466 H438 0.929 . S
C466 C469 1.391 . S
C466 C471 1.391 . S
C467 H439 0.929 1_554 S
C467 C468 1.390 1_554 S
C467 N470 1.391 . S
C468 H440 0.930 . S
C468 C467 1.390 1_556 S
C468 C469 1.392 1_556 S
C469 H441 0.929 . S
C469 C466 1.391 . S
C469 C468 1.392 1_554 S
N470 Co414 2.257 . S
N470 C467 1.391 . S
N470 C471 1.388 . S
C471 H442 0.930 . S
C471 C466 1.391 . S
C471 N470 1.388 . S
Co472 O474 2.143 . S
Co472 O480 2.074 . S
Co472 O483 2.093 . S
Co472 O496 2.097 . S
Co472 N513 2.151 . S
Co472 N521 2.214 . S
Co473 O474 2.160 . S
Co473 O479 2.058 . S
Co473 O489 2.057 . S
Co473 O504 2.037 . S
Co473 N508 2.145 . S
Co473 N529 2.257 . S
O474 Co472 2.143 . S
O474 Co473 2.160 . S
C475 O476 1.278 . S
C475 O483 1.224 . S
O476 C475 1.278 . S
C477 O478 1.245 . S
C477 O489 1.232 . S
O478 C477 1.245 . S
O479 Co473 2.058 . S
O479 C505 1.269 . S
O480 Co472 2.074 . S
O480 C505 1.257 . S
H481 C506 0.930 . S
H482 C512 0.930 . S
O483 Co472 2.093 . S
O483 C475 1.224 . S
H484 C516 0.929 . S
H485 C518 0.930 . S
H486 C519 0.930 . S
H487 C517 0.929 . S
H488 C520 0.928 . S
O489 Co473 2.057 . S
O489 C477 1.232 . S
H490 C509 0.929 . S
H491 C510 0.929 . S
H492 C522 0.931 . S
H493 C514 0.929 . S
H494 C523 0.930 . S
H495 C515 0.931 . S
O496 Co472 2.097 . S
O496 C524 1.214 . S
H497 C525 0.929 . S
H498 C526 0.929 . S
H499 C527 0.930 . S
H500 C528 0.929 . S
H501 C530 0.930 . S
H502 C507 0.930 . S
H503 C511 0.930 . S
O504 Co473 2.037 . S
O504 C524 1.234 . S
C505 O479 1.269 . S
C505 O480 1.257 . S
C506 H481 0.930 . S
C506 C509 1.388 . S
C506 C511 1.418 . S
C507 H502 0.930 . S
C507 C510 1.404 . S
C507 C511 1.353 . S
N508 Co473 2.145 . S
N508 C509 1.397 . S
N508 C510 1.334 . S
C509 H490 0.929 . S
C509 C506 1.388 . S
C509 N508 1.397 . S
C510 H491 0.929 . S
C510 C507 1.404 . S
C510 N508 1.334 . S
C511 H503 0.930 . S
C511 C506 1.418 . S
C511 C507 1.353 . S
C512 H482 0.930 . S
C512 N513 1.330 . S
C512 C514 1.446 . S
N513 Co472 2.151 . S
N513 C512 1.330 . S
N513 C517 1.418 . S
C514 H493 0.929 . S
C514 C512 1.446 . S
C514 C515 1.332 . S
C515 H495 0.931 . S
C515 C514 1.332 . S
C515 C516 1.267 . S
C516 H484 0.929 . S
C516 C515 1.267 . S
C516 C517 1.251 . S
C517 H487 0.929 . S
C517 N513 1.418 . S
C517 C516 1.251 . S
C518 H485 0.930 . S
C518 C520 1.406 . S
C518 C523 1.261 . S
C519 H486 0.930 . S
C519 N521 1.325 . S
C519 C522 1.357 . S
C520 H488 0.928 . S
C520 C518 1.406 . S
C520 N521 1.261 . S
N521 Co472 2.214 . S
N521 C519 1.325 . S
N521 C520 1.261 . S
C522 H492 0.931 . S
C522 C519 1.357 . S
C522 C523 1.312 . S
C523 H494 0.930 . S
C523 C518 1.261 . S
C523 C522 1.312 . S
C524 O496 1.214 . S
C524 O504 1.234 . S
C525 H497 0.929 . S
C525 C528 1.391 . S
C525 C530 1.391 . S
C526 H498 0.929 . S
C526 C527 1.390 . S
C526 N529 1.391 . S
C527 H499 0.930 . S
C527 C526 1.390 . S
C527 C528 1.392 . S
C528 H500 0.929 . S
C528 C525 1.391 . S
C528 C527 1.392 . S
N529 Co473 2.257 . S
N529 C526 1.391 . S
N529 C530 1.388 . S
C530 H501 0.930 . S
C530 C525 1.391 . S
C530 N529 1.388 . S
Co531 O533 2.143 . S
Co531 O539 2.074 . S
Co531 O542 2.093 . S
Co531 O555 2.097 . S
Co531 N572 2.151 . S
Co531 N580 2.214 . S
Co532 O533 2.160 . S
Co532 O538 2.058 . S
Co532 O548 2.057 . S
Co532 O563 2.037 . S
Co532 N567 2.145 . S
Co532 N588 2.257 . S
O533 Co531 2.143 . S
O533 Co532 2.160 . S
C534 O535 1.278 . S
C534 O542 1.224 . S
O535 C534 1.278 . S
C536 O537 1.245 . S
C536 O548 1.232 . S
O537 C536 1.245 . S
O538 Co532 2.058 . S
O538 C564 1.269 . S
O539 Co531 2.074 . S
O539 C564 1.257 . S
H540 C565 0.930 . S
H541 C571 0.930 . S
O542 Co531 2.093 . S
O542 C534 1.224 . S
H543 C575 0.929 . S
H544 C577 0.930 . S
H545 C578 0.930 . S
H546 C576 0.929 . S
H547 C579 0.928 . S
O548 Co532 2.057 . S
O548 C536 1.232 . S
H549 C568 0.929 . S
H550 C569 0.929 . S
H551 C581 0.931 . S
H552 C573 0.929 . S
H553 C582 0.930 . S
H554 C574 0.931 . S
O555 Co531 2.097 . S
O555 C583 1.214 . S
H556 C584 0.929 . S
H557 C585 0.929 . S
H558 C586 0.930 . S
H559 C587 0.929 . S
H560 C589 0.930 . S
H561 C566 0.930 . S
H562 C570 0.930 . S
O563 Co532 2.037 . S
O563 C583 1.234 . S
C564 O538 1.269 . S
C564 O539 1.257 . S
C565 H540 0.930 . S
C565 C568 1.388 . S
C565 C570 1.418 . S
C566 H561 0.930 . S
C566 C569 1.404 . S
C566 C570 1.353 . S
N567 Co532 2.145 . S
N567 C568 1.397 . S
N567 C569 1.334 . S
C568 H549 0.929 . S
C568 C565 1.388 . S
C568 N567 1.397 . S
C569 H550 0.929 . S
C569 C566 1.404 . S
C569 N567 1.334 . S
C570 H562 0.930 . S
C570 C565 1.418 . S
C570 C566 1.353 . S
C571 H541 0.930 . S
C571 N572 1.330 . S
C571 C573 1.446 . S
N572 Co531 2.151 . S
N572 C571 1.330 . S
N572 C576 1.418 . S
C573 H552 0.929 . S
C573 C571 1.446 . S
C573 C574 1.332 . S
C574 H554 0.931 . S
C574 C573 1.332 . S
C574 C575 1.267 . S
C575 H543 0.929 . S
C575 C574 1.267 . S
C575 C576 1.251 . S
C576 H546 0.929 . S
C576 N572 1.418 . S
C576 C575 1.251 . S
C577 H544 0.930 . S
C577 C579 1.406 . S
C577 C582 1.261 . S
C578 H545 0.930 . S
C578 N580 1.325 . S
C578 C581 1.357 . S
C579 H547 0.928 . S
C579 C577 1.406 . S
C579 N580 1.261 . S
N580 Co531 2.214 . S
N580 C578 1.325 . S
N580 C579 1.261 . S
C581 H551 0.931 . S
C581 C578 1.357 . S
C581 C582 1.312 . S
C582 H553 0.930 . S
C582 C577 1.261 . S
C582 C581 1.312 . S
C583 O555 1.214 . S
C583 O563 1.234 . S
C584 H556 0.929 . S
C584 C587 1.391 . S
C584 C589 1.391 . S
C585 H557 0.929 . S
C585 C586 1.390 . S
C585 N588 1.391 . S
C586 H558 0.930 . S
C586 C585 1.390 . S
C586 C587 1.392 . S
C587 H559 0.929 . S
C587 C584 1.391 . S
C587 C586 1.392 . S
N588 Co532 2.257 . S
N588 C585 1.391 . S
N588 C589 1.388 . S
C589 H560 0.930 . S
C589 C584 1.391 . S
C589 N588 1.388 . S
Co590 O592 2.143 . S
Co590 O598 2.074 . S
Co590 O601 2.093 . S
Co590 O614 2.097 . S
Co590 N631 2.151 . S
Co590 N639 2.214 . S
Co591 O592 2.160 . S
Co591 O597 2.058 . S
Co591 O607 2.057 . S
Co591 O622 2.037 . S
Co591 N626 2.145 . S
Co591 N647 2.257 . S
O592 Co590 2.143 . S
O592 Co591 2.160 . S
C593 O594 1.278 . S
C593 O601 1.224 . S
O594 C593 1.278 . S
C595 O596 1.245 . S
C595 O607 1.232 . S
O596 C595 1.245 . S
O597 Co591 2.058 . S
O597 C623 1.269 . S
O598 Co590 2.074 . S
O598 C623 1.257 . S
H599 C624 0.930 . S
H600 C630 0.930 . S
O601 Co590 2.093 . S
O601 C593 1.224 . S
H602 C634 0.929 . S
H603 C636 0.930 . S
H604 C637 0.930 . S
H605 C635 0.929 . S
H606 C638 0.928 . S
O607 Co591 2.057 . S
O607 C595 1.232 . S
H608 C627 0.929 . S
H609 C628 0.929 . S
H610 C640 0.931 . S
H611 C632 0.929 . S
H612 C641 0.930 . S
H613 C633 0.931 . S
O614 Co590 2.097 . S
O614 C642 1.214 . S
H615 C643 0.929 . S
H616 C644 0.929 . S
H617 C645 0.930 . S
H618 C646 0.929 . S
H619 C648 0.930 . S
H620 C625 0.930 . S
H621 C629 0.930 . S
O622 Co591 2.037 . S
O622 C642 1.234 . S
C623 O597 1.269 . S
C623 O598 1.257 . S
C624 H599 0.930 . S
C624 C627 1.388 . S
C624 C629 1.418 . S
C625 H620 0.930 . S
C625 C628 1.404 . S
C625 C629 1.353 . S
N626 Co591 2.145 . S
N626 C627 1.397 . S
N626 C628 1.334 . S
C627 H608 0.929 . S
C627 C624 1.388 . S
C627 N626 1.397 . S
C628 H609 0.929 . S
C628 C625 1.404 . S
C628 N626 1.334 . S
C629 H621 0.930 . S
C629 C624 1.418 . S
C629 C625 1.353 . S
C630 H600 0.930 . S
C630 N631 1.330 . S
C630 C632 1.446 . S
N631 Co590 2.151 . S
N631 C630 1.330 . S
N631 C635 1.418 . S
C632 H611 0.929 . S
C632 C630 1.446 . S
C632 C633 1.332 . S
C633 H613 0.931 . S
C633 C632 1.332 . S
C633 C634 1.267 . S
C634 H602 0.929 . S
C634 C633 1.267 . S
C634 C635 1.251 . S
C635 H605 0.929 . S
C635 N631 1.418 . S
C635 C634 1.251 . S
C636 H603 0.930 . S
C636 C638 1.406 . S
C636 C641 1.261 . S
C637 H604 0.930 . S
C637 N639 1.325 . S
C637 C640 1.357 . S
C638 H606 0.928 . S
C638 C636 1.406 . S
C638 N639 1.261 . S
N639 Co590 2.214 . S
N639 C637 1.325 . S
N639 C638 1.261 . S
C640 H610 0.931 . S
C640 C637 1.357 . S
C640 C641 1.312 . S
C641 H612 0.930 . S
C641 C636 1.261 . S
C641 C640 1.312 . S
C642 O614 1.214 . S
C642 O622 1.234 . S
C643 H615 0.929 . S
C643 C646 1.391 . S
C643 C648 1.391 . S
C644 H616 0.929 . S
C644 C645 1.390 . S
C644 N647 1.391 . S
C645 H617 0.930 . S
C645 C644 1.390 . S
C645 C646 1.392 . S
C646 H618 0.929 . S
C646 C643 1.391 . S
C646 C645 1.392 . S
N647 Co591 2.257 . S
N647 C644 1.391 . S
N647 C648 1.388 . S
C648 H619 0.930 . S
C648 C643 1.391 . S
C648 N647 1.388 . S
Co649 O651 2.143 . S
Co649 O657 2.074 . S
Co649 O660 2.093 . S
Co649 O673 2.097 . S
Co649 N690 2.151 . S
Co649 N698 2.214 . S
Co650 O651 2.160 . S
Co650 O656 2.058 . S
Co650 O666 2.057 . S
Co650 O681 2.037 . S
Co650 N685 2.145 . S
Co650 N706 2.257 . S
O651 Co649 2.143 . S
O651 Co650 2.160 . S
C652 O653 1.278 . S
C652 O660 1.224 . S
O653 C652 1.278 . S
C654 O655 1.245 . S
C654 O666 1.232 . S
O655 C654 1.245 . S
O656 Co650 2.058 . S
O656 C682 1.269 . S
O657 Co649 2.074 . S
O657 C682 1.257 . S
H658 C683 0.930 . S
H659 C689 0.930 . S
O660 Co649 2.093 . S
O660 C652 1.224 . S
H661 C693 0.929 . S
H662 C695 0.930 . S
H663 C696 0.930 . S
H664 C694 0.929 . S
H665 C697 0.928 . S
O666 Co650 2.057 . S
O666 C654 1.232 . S
H667 C686 0.929 . S
H668 C687 0.929 . S
H669 C699 0.931 . S
H670 C691 0.929 . S
H671 C700 0.930 . S
H672 C692 0.931 . S
O673 Co649 2.097 . S
O673 C701 1.214 . S
H674 C702 0.929 . S
H675 C703 0.929 . S
H676 C704 0.930 . S
H677 C705 0.929 . S
H678 C707 0.930 . S
H679 C684 0.930 . S
H680 C688 0.930 . S
O681 Co650 2.037 . S
O681 C701 1.234 . S
C682 O656 1.269 . S
C682 O657 1.257 . S
C683 H658 0.930 . S
C683 C686 1.388 . S
C683 C688 1.418 . S
C684 H679 0.930 . S
C684 C687 1.404 . S
C684 C688 1.353 . S
N685 Co650 2.145 . S
N685 C686 1.397 . S
N685 C687 1.334 . S
C686 H667 0.929 . S
C686 C683 1.388 . S
C686 N685 1.397 . S
C687 H668 0.929 . S
C687 C684 1.404 . S
C687 N685 1.334 . S
C688 H680 0.930 . S
C688 C683 1.418 . S
C688 C684 1.353 . S
C689 H659 0.930 . S
C689 N690 1.330 . S
C689 C691 1.446 . S
N690 Co649 2.151 . S
N690 C689 1.330 . S
N690 C694 1.418 . S
C691 H670 0.929 . S
C691 C689 1.446 . S
C691 C692 1.332 . S
C692 H672 0.931 . S
C692 C691 1.332 . S
C692 C693 1.267 . S
C693 H661 0.929 . S
C693 C692 1.267 . S
C693 C694 1.251 . S
C694 H664 0.929 . S
C694 N690 1.418 . S
C694 C693 1.251 . S
C695 H662 0.930 . S
C695 C697 1.406 . S
C695 C700 1.261 . S
C696 H663 0.930 . S
C696 N698 1.325 . S
C696 C699 1.357 . S
C697 H665 0.928 . S
C697 C695 1.406 . S
C697 N698 1.261 . S
N698 Co649 2.214 . S
N698 C696 1.325 . S
N698 C697 1.261 . S
C699 H669 0.931 . S
C699 C696 1.357 . S
C699 C700 1.312 . S
C700 H671 0.930 . S
C700 C695 1.261 . S
C700 C699 1.312 . S
C701 O673 1.214 . S
C701 O681 1.234 . S
C702 H674 0.929 . S
C702 C705 1.391 . S
C702 C707 1.391 . S
C703 H675 0.929 . S
C703 C704 1.390 . S
C703 N706 1.391 . S
C704 H676 0.930 . S
C704 C703 1.390 . S
C704 C705 1.392 . S
C705 H677 0.929 . S
C705 C702 1.391 . S
C705 C704 1.392 . S
N706 Co650 2.257 . S
N706 C703 1.391 . S
N706 C707 1.388 . S
C707 H678 0.930 . S
C707 C702 1.391 . S
C707 N706 1.388 . S
H708 C716 0.950 . S
H709 C721 0.950 . S
H710 C718 0.950 . S
H711 C720 0.950 . S
H712 C722 0.950 . S
H713 C724 0.950 . S
H714 C726 0.950 . S
H715 C727 0.950 . S
C716 H708 0.950 . S
C716 C717 1.386 . S
C716 C718 1.391 . S
C717 C716 1.386 . S
C717 C721 1.393 . S
C718 H710 0.950 . S
C718 C716 1.391 . S
C718 C719 1.400 . S
C719 C718 1.400 . S
C719 C720 1.398 . S
C719 C725 1.491 . S
C720 H711 0.950 . S
C720 C719 1.398 . S
C720 C721 1.391 . S
C721 H709 0.950 . S
C721 C717 1.393 . S
C721 C720 1.391 . S
C722 H712 0.950 . S
C722 C723 1.386 . S
C722 C724 1.391 . S
C723 C722 1.386 . S
C723 C727 1.393 . S
C724 H713 0.950 . S
C724 C722 1.391 . S
C724 C725 1.400 . S
C725 C719 1.491 . S
C725 C724 1.400 . S
C725 C726 1.398 . S
C726 H714 0.950 . S
C726 C725 1.398 . S
C726 C727 1.391 . S
C727 H715 0.950 . S
C727 C723 1.393 . S
C727 C726 1.391 . S
H728 C736 0.950 . S
H729 C741 0.950 . S
H730 C738 0.950 . S
H731 C740 0.950 . S
H732 C742 0.950 . S
H733 C744 0.950 . S
H734 C746 0.950 . S
H735 C747 0.950 . S
C736 H728 0.950 . S
C736 C737 1.386 . S
C736 C738 1.391 . S
C737 C736 1.386 . S
C737 C741 1.393 . S
C738 H730 0.950 . S
C738 C736 1.391 . S
C738 C739 1.400 . S
C739 C738 1.400 . S
C739 C740 1.398 . S
C739 C745 1.491 . S
C740 H731 0.950 . S
C740 C739 1.398 . S
C740 C741 1.391 . S
C741 H729 0.950 . S
C741 C737 1.393 . S
C741 C740 1.391 . S
C742 H732 0.950 . S
C742 C743 1.386 . S
C742 C744 1.391 . S
C743 C742 1.386 . S
C743 C747 1.393 . S
C744 H733 0.950 . S
C744 C742 1.391 . S
C744 C745 1.400 . S
C745 C739 1.491 . S
C745 C744 1.400 . S
C745 C746 1.398 . S
C746 H734 0.950 . S
C746 C745 1.398 . S
C746 C747 1.391 . S
C747 H735 0.950 . S
C747 C743 1.393 . S
C747 C746 1.391 . S
H748 C756 0.950 . S
H749 C761 0.950 . S
H750 C758 0.950 . S
H751 C760 0.950 . S
H752 C762 0.950 . S
H753 C764 0.950 . S
H754 C766 0.950 . S
H755 C767 0.950 . S
C756 H748 0.950 . S
C756 C757 1.386 . S
C756 C758 1.391 . S
C757 C756 1.386 . S
C757 C761 1.393 . S
C758 H750 0.950 . S
C758 C756 1.391 . S
C758 C759 1.400 . S
C759 C758 1.400 . S
C759 C760 1.398 . S
C759 C765 1.491 . S
C760 H751 0.950 . S
C760 C759 1.398 . S
C760 C761 1.391 . S
C761 H749 0.950 . S
C761 C757 1.393 . S
C761 C760 1.391 . S
C762 H752 0.950 . S
C762 C763 1.386 . S
C762 C764 1.391 . S
C763 C762 1.386 . S
C763 C767 1.393 . S
C764 H753 0.950 . S
C764 C762 1.391 . S
C764 C765 1.400 . S
C765 C759 1.491 . S
C765 C764 1.400 . S
C765 C766 1.398 . S
C766 H754 0.950 . S
C766 C765 1.398 . S
C766 C767 1.391 . S
C767 H755 0.950 . S
C767 C763 1.393 . S
C767 C766 1.391 . S
H768 C776 0.950 . S
H769 C781 0.950 . S
H770 C778 0.950 . S
H771 C780 0.950 . S
H772 C782 0.950 . S
H773 C784 0.950 . S
H774 C786 0.950 . S
H775 C787 0.950 . S
C776 H768 0.950 . S
C776 C777 1.386 . S
C776 C778 1.391 . S
C777 C776 1.386 . S
C777 C781 1.393 . S
C778 H770 0.950 . S
C778 C776 1.391 . S
C778 C779 1.400 . S
C779 C778 1.400 . S
C779 C780 1.398 . S
C779 C785 1.491 . S
C780 H771 0.950 . S
C780 C779 1.398 . S
C780 C781 1.391 . S
C781 H769 0.950 . S
C781 C777 1.393 . S
C781 C780 1.391 . S
C782 H772 0.950 . S
C782 C783 1.386 . S
C782 C784 1.391 . S
C783 C782 1.386 . S
C783 C787 1.393 . S
C784 H773 0.950 . S
C784 C782 1.391 . S
C784 C785 1.400 . S
C785 C779 1.491 . S
C785 C784 1.400 . S
C785 C786 1.398 . S
C786 H774 0.950 . S
C786 C785 1.398 . S
C786 C787 1.391 . S
C787 H775 0.950 . S
C787 C783 1.393 . S
C787 C786 1.391 . S
H788 C796 0.950 . S
H789 C801 0.950 . S
H790 C798 0.950 . S
H791 C800 0.950 . S
H792 C802 0.950 . S
H793 C804 0.950 . S
H794 C806 0.950 . S
H795 C807 0.950 . S
C796 H788 0.950 . S
C796 C797 1.386 . S
C796 C798 1.391 . S
C797 C796 1.386 . S
C797 C801 1.393 . S
C798 H790 0.950 . S
C798 C796 1.391 . S
C798 C799 1.400 1_554 S
C799 C798 1.400 1_556 S
C799 C800 1.398 . S
C799 C805 1.491 . S
C800 H791 0.950 . S
C800 C799 1.398 . S
C800 C801 1.391 1_556 S
C801 H789 0.950 . S
C801 C797 1.393 . S
C801 C800 1.391 1_554 S
C802 H792 0.950 . S
C802 C803 1.386 . S
C802 C804 1.391 . S
C803 C802 1.386 . S
C803 C807 1.393 . S
C804 H793 0.950 . S
C804 C802 1.391 . S
C804 C805 1.400 . S
C805 C799 1.491 . S
C805 C804 1.400 . S
C805 C806 1.398 . S
C806 H794 0.950 . S
C806 C805 1.398 . S
C806 C807 1.391 . S
C807 H795 0.950 . S
C807 C803 1.393 . S
C807 C806 1.391 . S
H808 C816 0.950 . S
H809 C821 0.950 . S
H810 C818 0.950 . S
H811 C820 0.950 . S
H812 C822 0.950 . S
H813 C824 0.950 . S
H814 C826 0.950 . S
H815 C827 0.950 . S
C816 H808 0.950 . S
C816 C817 1.386 . S
C816 C818 1.391 . S
C817 C816 1.386 . S
C817 C821 1.393 . S
C818 H810 0.950 . S
C818 C816 1.391 . S
C818 C819 1.400 . S
C819 C818 1.400 . S
C819 C820 1.398 . S
C819 C825 1.491 . S
C820 H811 0.950 . S
C820 C819 1.398 . S
C820 C821 1.391 . S
C821 H809 0.950 . S
C821 C817 1.393 . S
C821 C820 1.391 . S
C822 H812 0.950 . S
C822 C823 1.386 . S
C822 C824 1.391 . S
C823 C822 1.386 . S
C823 C827 1.393 . S
C824 H813 0.950 . S
C824 C822 1.391 . S
C824 C825 1.400 . S
C825 C819 1.491 . S
C825 C824 1.400 . S
C825 C826 1.398 . S
C826 H814 0.950 . S
C826 C825 1.398 . S
C826 C827 1.391 . S
C827 H815 0.950 . S
C827 C823 1.393 . S
C827 C826 1.391 . S
H828 C836 0.950 . S
H829 C841 0.950 . S
H830 C838 0.950 . S
H831 C840 0.950 . S
H832 C842 0.950 . S
H833 C844 0.950 . S
H834 C846 0.950 . S
H835 C847 0.950 . S
C836 H828 0.950 . S
C836 C837 1.386 . S
C836 C838 1.391 . S
C837 C836 1.386 . S
C837 C841 1.393 . S
C838 H830 0.950 . S
C838 C836 1.391 . S
C838 C839 1.400 . S
C839 C838 1.400 . S
C839 C840 1.398 . S
C839 C845 1.491 . S
C840 H831 0.950 . S
C840 C839 1.398 . S
C840 C841 1.391 . S
C841 H829 0.950 . S
C841 C837 1.393 . S
C841 C840 1.391 . S
C842 H832 0.950 . S
C842 C843 1.386 . S
C842 C844 1.391 . S
C843 C842 1.386 . S
C843 C847 1.393 . S
C844 H833 0.950 . S
C844 C842 1.391 . S
C844 C845 1.400 . S
C845 C839 1.491 . S
C845 C844 1.400 . S
C845 C846 1.398 . S
C846 H834 0.950 . S
C846 C845 1.398 . S
C846 C847 1.391 . S
C847 H835 0.950 . S
C847 C843 1.393 . S
C847 C846 1.391 . S
H848 C856 0.950 . S
H849 C861 0.950 . S
H850 C858 0.950 . S
H851 C860 0.950 . S
H852 C862 0.950 . S
H853 C864 0.950 . S
H854 C866 0.950 . S
H855 C867 0.950 . S
C856 H848 0.950 . S
C856 C857 1.386 . S
C856 C858 1.391 . S
C857 C856 1.386 . S
C857 C861 1.393 . S
C858 H850 0.950 . S
C858 C856 1.391 . S
C858 C859 1.400 . S
C859 C858 1.400 . S
C859 C860 1.398 . S
C859 C865 1.491 . S
C860 H851 0.950 . S
C860 C859 1.398 . S
C860 C861 1.391 . S
C861 H849 0.950 . S
C861 C857 1.393 . S
C861 C860 1.391 . S
C862 H852 0.950 . S
C862 C863 1.386 . S
C862 C864 1.391 . S
C863 C862 1.386 . S
C863 C867 1.393 . S
C864 H853 0.950 . S
C864 C862 1.391 . S
C864 C865 1.400 . S
C865 C859 1.491 . S
C865 C864 1.400 . S
C865 C866 1.398 . S
C866 H854 0.950 . S
C866 C865 1.398 . S
C866 C867 1.391 . S
C867 H855 0.950 . S
C867 C863 1.393 . S
C867 C866 1.391 . S
H868 C876 0.950 . S
H869 C881 0.950 . S
H870 C878 0.950 . S
H871 C880 0.950 . S
H872 C882 0.950 . S
H873 C884 0.950 . S
H874 C886 0.950 . S
H875 C887 0.950 . S
C876 H868 0.950 . S
C876 C877 1.386 . S
C876 C878 1.391 . S
C877 C876 1.386 . S
C877 C881 1.393 . S
C878 H870 0.950 . S
C878 C876 1.391 . S
C878 C879 1.400 . S
C879 C878 1.400 . S
C879 C880 1.398 . S
C879 C885 1.491 . S
C880 H871 0.950 . S
C880 C879 1.398 . S
C880 C881 1.391 . S
C881 H869 0.950 . S
C881 C877 1.393 . S
C881 C880 1.391 . S
C882 H872 0.950 . S
C882 C883 1.386 . S
C882 C884 1.391 . S
C883 C882 1.386 . S
C883 C887 1.393 . S
C884 H873 0.950 . S
C884 C882 1.391 . S
C884 C885 1.400 . S
C885 C879 1.491 . S
C885 C884 1.400 . S
C885 C886 1.398 . S
C886 H874 0.950 . S
C886 C885 1.398 . S
C886 C887 1.391 . S
C887 H875 0.950 . S
C887 C883 1.393 . S
C887 C886 1.391 . S
H888 C896 0.950 . S
H889 C901 0.950 . S
H890 C898 0.950 . S
H891 C900 0.950 . S
H892 C902 0.950 . S
H893 C904 0.950 . S
H894 C906 0.950 . S
H895 C907 0.950 . S
C896 H888 0.950 . S
C896 C897 1.386 . S
C896 C898 1.391 . S
C897 C896 1.386 . S
C897 C901 1.393 . S
C898 H890 0.950 . S
C898 C896 1.391 . S
C898 C899 1.400 . S
C899 C898 1.400 . S
C899 C900 1.398 . S
C899 C905 1.491 . S
C900 H891 0.950 . S
C900 C899 1.398 . S
C900 C901 1.391 . S
C901 H889 0.950 . S
C901 C897 1.393 . S
C901 C900 1.391 . S
C902 H892 0.950 . S
C902 C903 1.386 . S
C902 C904 1.391 . S
C903 C902 1.386 . S
C903 C907 1.393 . S
C904 H893 0.950 . S
C904 C902 1.391 . S
C904 C905 1.400 . S
C905 C899 1.491 . S
C905 C904 1.400 . S
C905 C906 1.398 . S
C906 H894 0.950 . S
C906 C905 1.398 . S
C906 C907 1.391 . S
C907 H895 0.950 . S
C907 C903 1.393 . S
C907 C906 1.391 . S
H908 C916 0.950 . S
H909 C921 0.950 . S
H910 C918 0.950 . S
H911 C920 0.950 . S
H912 C922 0.950 . S
H913 C924 0.950 . S
H914 C926 0.950 . S
H915 C927 0.950 . S
C916 H908 0.950 . S
C916 C917 1.386 . S
C916 C918 1.391 . S
C917 C916 1.386 . S
C917 C921 1.393 . S
C918 H910 0.950 . S
C918 C916 1.391 . S
C918 C919 1.400 . S
C919 C918 1.400 . S
C919 C920 1.398 . S
C919 C925 1.491 . S
C920 H911 0.950 . S
C920 C919 1.398 . S
C920 C921 1.391 . S
C921 H909 0.950 . S
C921 C917 1.393 . S
C921 C920 1.391 . S
C922 H912 0.950 . S
C922 C923 1.386 . S
C922 C924 1.391 . S
C923 C922 1.386 . S
C923 C927 1.393 . S
C924 H913 0.950 . S
C924 C922 1.391 . S
C924 C925 1.400 . S
C925 C919 1.491 . S
C925 C924 1.400 . S
C925 C926 1.398 . S
C926 H914 0.950 . S
C926 C925 1.398 . S
C926 C927 1.391 . S
C927 H915 0.950 . S
C927 C923 1.393 . S
C927 C926 1.391 . S
H928 C936 0.950 . S
H929 C941 0.950 . S
H930 C938 0.950 . S
H931 C940 0.950 . S
H932 C942 0.950 . S
H933 C944 0.950 . S
H934 C946 0.950 . S
H935 C947 0.950 . S
C936 H928 0.950 . S
C936 C937 1.386 . S
C936 C938 1.391 . S
C937 C936 1.386 . S
C937 C941 1.393 . S
C938 H930 0.950 . S
C938 C936 1.391 . S
C938 C939 1.400 . S
C939 C938 1.400 . S
C939 C940 1.398 . S
C939 C945 1.491 . S
C940 H931 0.950 . S
C940 C939 1.398 . S
C940 C941 1.391 . S
C941 H929 0.950 . S
C941 C937 1.393 . S
C941 C940 1.391 . S
C942 H932 0.950 . S
C942 C943 1.386 . S
C942 C944 1.391 . S
C943 C942 1.386 . S
C943 C947 1.393 1_554 S
C944 H933 0.950 . S
C944 C942 1.391 . S
C944 C945 1.400 1_554 S
C945 C939 1.491 . S
C945 C944 1.400 1_556 S
C945 C946 1.398 . S
C946 H934 0.950 . S
C946 C945 1.398 . S
C946 C947 1.391 . S
C947 H935 0.950 . S
C947 C943 1.393 1_556 S
C947 C946 1.391 . S
H948 C956 0.950 . S
H949 C961 0.950 . S
H950 C958 0.950 . S
H951 C960 0.950 . S
H952 C962 0.950 . S
H953 C964 0.950 . S
H954 C966 0.950 . S
H955 C967 0.950 . S
C956 H948 0.950 . S
C956 C957 1.386 . S
C956 C958 1.391 . S
C957 C956 1.386 . S
C957 C961 1.393 . S
C958 H950 0.950 . S
C958 C956 1.391 . S
C958 C959 1.400 . S
C959 C958 1.400 . S
C959 C960 1.398 . S
C959 C965 1.491 . S
C960 H951 0.950 . S
C960 C959 1.398 . S
C960 C961 1.391 . S
C961 H949 0.950 . S
C961 C957 1.393 . S
C961 C960 1.391 . S
C962 H952 0.950 . S
C962 C963 1.386 . S
C962 C964 1.391 . S
C963 C962 1.386 . S
C963 C967 1.393 . S
C964 H953 0.950 . S
C964 C962 1.391 . S
C964 C965 1.400 . S
C965 C959 1.491 . S
C965 C964 1.400 . S
C965 C966 1.398 . S
C966 H954 0.950 . S
C966 C965 1.398 . S
C966 C967 1.391 . S
C967 H955 0.950 . S
C967 C963 1.393 . S
C967 C966 1.391 . S
H968 C976 0.950 . S
H969 C981 0.950 . S
H970 C978 0.950 . S
H971 C980 0.950 . S
H972 C982 0.950 . S
H973 C984 0.950 . S
H974 C986 0.950 . S
H975 C987 0.950 . S
C976 H968 0.950 . S
C976 C977 1.386 . S
C976 C978 1.391 . S
C977 C976 1.386 . S
C977 C981 1.393 . S
C978 H970 0.950 . S
C978 C976 1.391 . S
C978 C979 1.400 . S
C979 C978 1.400 . S
C979 C980 1.398 . S
C979 C985 1.491 . S
C980 H971 0.950 . S
C980 C979 1.398 . S
C980 C981 1.391 . S
C981 H969 0.950 . S
C981 C977 1.393 . S
C981 C980 1.391 . S
C982 H972 0.950 . S
C982 C983 1.386 . S
C982 C984 1.391 . S
C983 C982 1.386 . S
C983 C987 1.393 . S
C984 H973 0.950 . S
C984 C982 1.391 . S
C984 C985 1.400 1_554 S
C985 C979 1.491 . S
C985 C984 1.400 1_556 S
C985 C986 1.398 . S
C986 H974 0.950 . S
C986 C985 1.398 . S
C986 C987 1.391 1_556 S
C987 H975 0.950 . S
C987 C983 1.393 . S
C987 C986 1.391 1_554 S
H988 C996 0.950 . S
H989 C1001 0.950 . S
H990 C998 0.950 . S
H991 C1000 0.950 . S
H992 C1002 0.950 . S
H993 C1004 0.950 . S
H994 C1006 0.950 . S
H995 C1007 0.950 . S
C996 H988 0.950 . S
C996 C997 1.386 . S
C996 C998 1.391 . S
C997 C996 1.386 . S
C997 C1001 1.393 . S
C998 H990 0.950 . S
C998 C996 1.391 . S
C998 C999 1.400 . S
C999 C998 1.400 . S
C999 C1000 1.398 . S
C999 C1005 1.491 . S
C1000 H991 0.950 . S
C1000 C999 1.398 . S
C1000 C1001 1.391 . S
C1001 H989 0.950 . S
C1001 C997 1.393 . S
C1001 C1000 1.391 . S
C1002 H992 0.950 . S
C1002 C1003 1.386 . S
C1002 C1004 1.391 . S
C1003 C1002 1.386 . S
C1003 C1007 1.393 . S
C1004 H993 0.950 . S
C1004 C1002 1.391 . S
C1004 C1005 1.400 . S
C1005 C999 1.491 . S
C1005 C1004 1.400 . S
C1005 C1006 1.398 . S
C1006 H994 0.950 . S
C1006 C1005 1.398 . S
C1006 C1007 1.391 . S
C1007 H995 0.950 . S
C1007 C1003 1.393 . S
C1007 C1006 1.391 . S
H1008 C1016 0.950 . S
H1009 C1021 0.950 . S
H1010 C1018 0.950 . S
H1011 C1020 0.950 . S
H1012 C1022 0.950 . S
H1013 C1024 0.950 . S
H1014 C1026 0.950 . S
H1015 C1027 0.950 . S
C1016 H1008 0.950 . S
C1016 C1017 1.386 . S
C1016 C1018 1.391 . S
C1017 C1016 1.386 . S
C1017 C1021 1.393 . S
C1018 H1010 0.950 . S
C1018 C1016 1.391 . S
C1018 C1019 1.400 . S
C1019 C1018 1.400 . S
C1019 C1020 1.398 . S
C1019 C1025 1.491 . S
C1020 H1011 0.950 . S
C1020 C1019 1.398 . S
C1020 C1021 1.391 . S
C1021 H1009 0.950 . S
C1021 C1017 1.393 . S
C1021 C1020 1.391 . S
C1022 H1012 0.950 . S
C1022 C1023 1.386 . S
C1022 C1024 1.391 . S
C1023 C1022 1.386 . S
C1023 C1027 1.393 . S
C1024 H1013 0.950 . S
C1024 C1022 1.391 . S
C1024 C1025 1.400 . S
C1025 C1019 1.491 . S
C1025 C1024 1.400 . S
C1025 C1026 1.398 . S
C1026 H1014 0.950 . S
C1026 C1025 1.398 . S
C1026 C1027 1.391 . S
C1027 H1015 0.950 . S
C1027 C1023 1.393 . S
C1027 C1026 1.391 . S
H1028 C1036 0.950 . S
H1029 C1041 0.950 . S
H1030 C1038 0.950 . S
H1031 C1040 0.950 . S
H1032 C1042 0.950 . S
H1033 C1044 0.950 . S
H1034 C1046 0.950 . S
H1035 C1047 0.950 . S
C1036 H1028 0.950 . S
C1036 C1037 1.386 . S
C1036 C1038 1.391 . S
C1037 C1036 1.386 . S
C1037 C1041 1.393 . S
C1038 H1030 0.950 . S
C1038 C1036 1.391 . S
C1038 C1039 1.400 . S
C1039 C1038 1.400 . S
C1039 C1040 1.398 . S
C1039 C1045 1.491 . S
C1040 H1031 0.950 . S
C1040 C1039 1.398 . S
C1040 C1041 1.391 . S
C1041 H1029 0.950 . S
C1041 C1037 1.393 . S
C1041 C1040 1.391 . S
C1042 H1032 0.950 . S
C1042 C1043 1.386 . S
C1042 C1044 1.391 . S
C1043 C1042 1.386 . S
C1043 C1047 1.393 . S
C1044 H1033 0.950 . S
C1044 C1042 1.391 . S
C1044 C1045 1.400 . S
C1045 C1039 1.491 . S
C1045 C1044 1.400 . S
C1045 C1046 1.398 . S
C1046 H1034 0.950 . S
C1046 C1045 1.398 . S
C1046 C1047 1.391 . S
C1047 H1035 0.950 . S
C1047 C1043 1.393 . S
C1047 C1046 1.391 . S
H1048 C1056 0.950 . S
H1049 C1061 0.950 . S
H1050 C1058 0.950 . S
H1051 C1060 0.950 . S
H1052 C1062 0.950 . S
H1053 C1064 0.950 . S
H1054 C1066 0.950 . S
H1055 C1067 0.950 . S
C1056 H1048 0.950 . S
C1056 C1057 1.386 . S
C1056 C1058 1.391 . S
C1057 C1056 1.386 . S
C1057 C1061 1.393 . S
C1058 H1050 0.950 . S
C1058 C1056 1.391 . S
C1058 C1059 1.400 . S
C1059 C1058 1.400 . S
C1059 C1060 1.398 . S
C1059 C1065 1.491 . S
C1060 H1051 0.950 . S
C1060 C1059 1.398 . S
C1060 C1061 1.391 . S
C1061 H1049 0.950 . S
C1061 C1057 1.393 . S
C1061 C1060 1.391 . S
C1062 H1052 0.950 . S
C1062 C1063 1.386 . S
C1062 C1064 1.391 . S
C1063 C1062 1.386 . S
C1063 C1067 1.393 . S
C1064 H1053 0.950 . S
C1064 C1062 1.391 . S
C1064 C1065 1.400 . S
C1065 C1059 1.491 . S
C1065 C1064 1.400 . S
C1065 C1066 1.398 . S
C1066 H1054 0.950 . S
C1066 C1065 1.398 . S
C1066 C1067 1.391 . S
C1067 H1055 0.950 . S
C1067 C1063 1.393 . S
C1067 C1066 1.391 . S
H1068 C1076 0.950 . S
H1069 C1081 0.950 . S
H1070 C1078 0.950 . S
H1071 C1080 0.950 . S
H1072 C1082 0.950 . S
H1073 C1084 0.950 . S
H1074 C1086 0.950 . S
H1075 C1087 0.950 . S
C1076 H1068 0.950 . S
C1076 C1077 1.386 . S
C1076 C1078 1.391 . S
C1077 C1076 1.386 . S
C1077 C1081 1.393 . S
C1078 H1070 0.950 . S
C1078 C1076 1.391 . S
C1078 C1079 1.400 . S
C1079 C1078 1.400 . S
C1079 C1080 1.398 . S
C1079 C1085 1.491 1_545 S
C1080 H1071 0.950 . S
C1080 C1079 1.398 . S
C1080 C1081 1.391 . S
C1081 H1069 0.950 . S
C1081 C1077 1.393 . S
C1081 C1080 1.391 . S
C1082 H1072 0.950 . S
C1082 C1083 1.386 . S
C1082 C1084 1.391 . S
C1083 C1082 1.386 . S
C1083 C1087 1.393 . S
C1084 H1073 0.950 . S
C1084 C1082 1.391 . S
C1084 C1085 1.400 . S
C1085 C1079 1.491 1_565 S
C1085 C1084 1.400 . S
C1085 C1086 1.398 . S
C1086 H1074 0.950 . S
C1086 C1085 1.398 . S
C1086 C1087 1.391 . S
C1087 H1075 0.950 . S
C1087 C1083 1.393 . S
C1087 C1086 1.391 . S
H1088 C1096 0.950 . S
H1089 C1101 0.950 . S
H1090 C1098 0.950 . S
H1091 C1100 0.950 . S
H1092 C1102 0.950 . S
H1093 C1104 0.950 . S
H1094 C1106 0.950 . S
H1095 C1107 0.950 . S
C1096 H1088 0.950 . S
C1096 C1097 1.386 . S
C1096 C1098 1.391 . S
C1097 C1096 1.386 . S
C1097 C1101 1.393 . S
C1098 H1090 0.950 . S
C1098 C1096 1.391 . S
C1098 C1099 1.400 . S
C1099 C1098 1.400 . S
C1099 C1100 1.398 . S
C1099 C1105 1.491 . S
C1100 H1091 0.950 . S
C1100 C1099 1.398 . S
C1100 C1101 1.391 . S
C1101 H1089 0.950 . S
C1101 C1097 1.393 . S
C1101 C1100 1.391 . S
C1102 H1092 0.950 . S
C1102 C1103 1.386 . S
C1102 C1104 1.391 . S
C1103 C1102 1.386 . S
C1103 C1107 1.393 . S
C1104 H1093 0.950 . S
C1104 C1102 1.391 . S
C1104 C1105 1.400 . S
C1105 C1099 1.491 . S
C1105 C1104 1.400 . S
C1105 C1106 1.398 . S
C1106 H1094 0.950 . S
C1106 C1105 1.398 . S
C1106 C1107 1.391 . S
C1107 H1095 0.950 . S
C1107 C1103 1.393 . S
C1107 C1106 1.391 . S
H1108 C1116 0.950 . S
H1109 C1121 0.950 . S
H1110 C1118 0.950 . S
H1111 C1120 0.950 . S
H1112 C1122 0.950 . S
H1113 C1124 0.950 . S
H1114 C1126 0.950 . S
H1115 C1127 0.950 . S
C1116 H1108 0.950 . S
C1116 C1117 1.386 . S
C1116 C1118 1.391 . S
C1117 C1116 1.386 . S
C1117 C1121 1.393 . S
C1118 H1110 0.950 . S
C1118 C1116 1.391 . S
C1118 C1119 1.400 . S
C1119 C1118 1.400 . S
C1119 C1120 1.398 . S
C1119 C1125 1.491 1_455 S
C1120 H1111 0.950 . S
C1120 C1119 1.398 . S
C1120 C1121 1.391 . S
C1121 H1109 0.950 . S
C1121 C1117 1.393 . S
C1121 C1120 1.391 . S
C1122 H1112 0.950 . S
C1122 C1123 1.386 . S
C1122 C1124 1.391 . S
C1123 C1122 1.386 . S
C1123 C1127 1.393 . S
C1124 H1113 0.950 . S
C1124 C1122 1.391 . S
C1124 C1125 1.400 . S
C1125 C1119 1.491 1_655 S
C1125 C1124 1.400 . S
C1125 C1126 1.398 . S
C1126 H1114 0.950 . S
C1126 C1125 1.398 . S
C1126 C1127 1.391 . S
C1127 H1115 0.950 . S
C1127 C1123 1.393 . S
C1127 C1126 1.391 . S
H1128 C1136 0.950 . S
H1129 C1141 0.950 . S
H1130 C1138 0.950 . S
H1131 C1140 0.950 . S
H1132 C1142 0.950 . S
H1133 C1144 0.950 . S
H1134 C1146 0.950 . S
H1135 C1147 0.950 . S
C1136 H1128 0.950 . S
C1136 C1137 1.386 . S
C1136 C1138 1.391 . S
C1137 C1136 1.386 . S
C1137 C1141 1.393 . S
C1138 H1130 0.950 . S
C1138 C1136 1.391 . S
C1138 C1139 1.400 . S
C1139 C1138 1.400 . S
C1139 C1140 1.398 . S
C1139 C1145 1.491 1_565 S
C1140 H1131 0.950 . S
C1140 C1139 1.398 . S
C1140 C1141 1.391 . S
C1141 H1129 0.950 . S
C1141 C1137 1.393 . S
C1141 C1140 1.391 . S
C1142 H1132 0.950 . S
C1142 C1143 1.386 . S
C1142 C1144 1.391 . S
C1143 C1142 1.386 . S
C1143 C1147 1.393 . S
C1144 H1133 0.950 . S
C1144 C1142 1.391 . S
C1144 C1145 1.400 . S
C1145 C1139 1.491 1_545 S
C1145 C1144 1.400 . S
C1145 C1146 1.398 . S
C1146 H1134 0.950 . S
C1146 C1145 1.398 . S
C1146 C1147 1.391 . S
C1147 H1135 0.950 . S
C1147 C1143 1.393 . S
C1147 C1146 1.391 . S
H1148 C1156 0.950 . S
H1149 C1161 0.950 . S
H1150 C1158 0.950 . S
H1151 C1160 0.950 . S
H1152 C1162 0.950 . S
H1153 C1164 0.950 . S
H1154 C1166 0.950 . S
H1155 C1167 0.950 . S
C1156 H1148 0.950 . S
C1156 C1157 1.386 . S
C1156 C1158 1.391 . S
C1157 C1156 1.386 . S
C1157 C1161 1.393 . S
C1158 H1150 0.950 . S
C1158 C1156 1.391 . S
C1158 C1159 1.400 . S
C1159 C1158 1.400 . S
C1159 C1160 1.398 . S
C1159 C1165 1.491 . S
C1160 H1151 0.950 . S
C1160 C1159 1.398 . S
C1160 C1161 1.391 . S
C1161 H1149 0.950 . S
C1161 C1157 1.393 . S
C1161 C1160 1.391 . S
C1162 H1152 0.950 . S
C1162 C1163 1.386 . S
C1162 C1164 1.391 . S
C1163 C1162 1.386 . S
C1163 C1167 1.393 . S
C1164 H1153 0.950 . S
C1164 C1162 1.391 . S
C1164 C1165 1.400 . S
C1165 C1159 1.491 . S
C1165 C1164 1.400 . S
C1165 C1166 1.398 . S
C1166 H1154 0.950 . S
C1166 C1165 1.398 . S
C1166 C1167 1.391 . S
C1167 H1155 0.950 . S
C1167 C1163 1.393 . S
C1167 C1166 1.391 . S
H1168 C1176 0.950 . S
H1169 C1181 0.950 . S
H1170 C1178 0.950 . S
H1171 C1180 0.950 . S
H1172 C1182 0.950 . S
H1173 C1184 0.950 . S
H1174 C1186 0.950 . S
H1175 C1187 0.950 . S
C1176 H1168 0.950 . S
C1176 C1177 1.386 . S
C1176 C1178 1.391 . S
C1177 C1176 1.386 . S
C1177 C1181 1.393 . S
C1178 H1170 0.950 . S
C1178 C1176 1.391 . S
C1178 C1179 1.400 . S
C1179 C1178 1.400 . S
C1179 C1180 1.398 . S
C1179 C1185 1.491 1_455 S
C1180 H1171 0.950 . S
C1180 C1179 1.398 . S
C1180 C1181 1.391 . S
C1181 H1169 0.950 . S
C1181 C1177 1.393 . S
C1181 C1180 1.391 . S
C1182 H1172 0.950 . S
C1182 C1183 1.386 . S
C1182 C1184 1.391 . S
C1183 C1182 1.386 . S
C1183 C1187 1.393 . S
C1184 H1173 0.950 . S
C1184 C1182 1.391 . S
C1184 C1185 1.400 . S
C1185 C1179 1.491 1_655 S
C1185 C1184 1.400 . S
C1185 C1186 1.398 . S
C1186 H1174 0.950 . S
C1186 C1185 1.398 . S
C1186 C1187 1.391 . S
C1187 H1175 0.950 . S
C1187 C1183 1.393 . S
C1187 C1186 1.391 . S
C717 C52 1.374 . S
C723 C642 1.373 . S
C737 C111 1.370 . S
C743 C701 1.377 . S
C757 C406 1.376 . S
C763 C170 1.369 . S
C777 C229 1.374 . S
C783 C465 1.373 . S
C797 C524 1.371 . S
C803 C288 1.375 . S
C817 C583 1.376 . S
C823 C347 1.370 1_554 S
C837 C475 1.434 . S
C843 C3 1.432 . S
C857 C62 1.418 . S
C863 C534 1.414 . S
C877 C593 1.433 . S
C883 C121 1.434 . S
C897 C180 1.412 . S
C903 C652 1.414 . S
C917 C239 1.433 . S
C923 C357 1.433 . S
C937 C298 1.432 . S
C943 C416 1.428 . S
C957 C595 1.427 . S
C963 C5 1.427 . S
C977 C654 1.424 . S
C983 C64 1.433 . S
C997 C359 1.424 1_554 S
C1003 C123 1.433 . S
C1017 C182 1.427 . S
C1023 C418 1.434 . S
C1037 C241 1.431 . S
C1043 C477 1.432 . S
C1057 C536 1.433 . S
C1063 C300 1.424 . S
C1077 C33 1.407 . S
C1083 C446 1.406 . S
C1097 C505 1.410 . S
C1103 C92 1.413 . S
C1117 C564 1.414 . S
C1123 C151 1.408 . S
C1137 C210 1.408 . S
C1143 C623 1.414 . S
C1157 C269 1.412 . S
C1163 C682 1.412 . S
C1177 C328 1.413 . S
C1183 C387 1.411 . S
