# Generated by pormake.
# Topology wjf, (4)-cn, num edge types: 1
# Building blocks:
#     Node 0, Type 0, BuildingBlock: QUQFOY_clean_sbu_1, # of connection points: 4
#     Node 1, Type 0, BuildingBlock: QUQFOY_clean_sbu_1, # of connection points: 4
#     Node 2, Type 0, BuildingBlock: QUQFOY_clean_sbu_1, # of connection points: 4
#     Node 3, Type 0, BuildingBlock: QUQFOY_clean_sbu_1, # of connection points: 4
#     Node 4, Type 0, BuildingBlock: QUQFOY_clean_sbu_1, # of connection points: 4
#     Node 5, Type 0, BuildingBlock: QUQFOY_clean_sbu_1, # of connection points: 4
#     Node 6, Type 0, BuildingBlock: QUQFOY_clean_sbu_1, # of connection points: 4
#     Node 7, Type 0, BuildingBlock: QUQFOY_clean_sbu_1, # of connection points: 4
#     Node 8, Type 0, BuildingBlock: QUQFOY_clean_sbu_1, # of connection points: 4
#     Node 9, Type 0, BuildingBlock: QUQFOY_clean_sbu_1, # of connection points: 4
#     Node 10, Type 0, BuildingBlock: QUQFOY_clean_sbu_1, # of connection points: 4
#     Node 11, Type 0, BuildingBlock: QUQFOY_clean_sbu_1, # of connection points: 4
#     Edge 12, Type (0, 0), BuildingBlock: XUDNAN_clean_linker_2, # of connection points: 2
#     Edge 13, Type (0, 0), BuildingBlock: XUDNAN_clean_linker_2, # of connection points: 2
#     Edge 14, Type (0, 0), BuildingBlock: XUDNAN_clean_linker_2, # of connection points: 2
#     Edge 15, Type (0, 0), BuildingBlock: XUDNAN_clean_linker_2, # of connection points: 2
#     Edge 16, Type (0, 0), BuildingBlock: XUDNAN_clean_linker_2, # of connection points: 2
#     Edge 17, Type (0, 0), BuildingBlock: XUDNAN_clean_linker_2, # of connection points: 2
#     Edge 18, Type (0, 0), BuildingBlock: XUDNAN_clean_linker_2, # of connection points: 2
#     Edge 19, Type (0, 0), BuildingBlock: XUDNAN_clean_linker_2, # of connection points: 2
#     Edge 20, Type (0, 0), BuildingBlock: XUDNAN_clean_linker_2, # of connection points: 2
#     Edge 21, Type (0, 0), BuildingBlock: XUDNAN_clean_linker_2, # of connection points: 2
#     Edge 22, Type (0, 0), BuildingBlock: XUDNAN_clean_linker_2, # of connection points: 2
#     Edge 23, Type (0, 0), BuildingBlock: XUDNAN_clean_linker_2, # of connection points: 2
#     Edge 24, Type (0, 0), BuildingBlock: XUDNAN_clean_linker_2, # of connection points: 2
#     Edge 25, Type (0, 0), BuildingBlock: XUDNAN_clean_linker_2, # of connection points: 2
#     Edge 26, Type (0, 0), BuildingBlock: XUDNAN_clean_linker_2, # of connection points: 2
#     Edge 27, Type (0, 0), BuildingBlock: XUDNAN_clean_linker_2, # of connection points: 2
#     Edge 28, Type (0, 0), BuildingBlock: XUDNAN_clean_linker_2, # of connection points: 2
#     Edge 29, Type (0, 0), BuildingBlock: XUDNAN_clean_linker_2, # of connection points: 2
#     Edge 30, Type (0, 0), BuildingBlock: XUDNAN_clean_linker_2, # of connection points: 2
#     Edge 31, Type (0, 0), BuildingBlock: XUDNAN_clean_linker_2, # of connection points: 2
#     Edge 32, Type (0, 0), BuildingBlock: XUDNAN_clean_linker_2, # of connection points: 2
#     Edge 33, Type (0, 0), BuildingBlock: XUDNAN_clean_linker_2, # of connection points: 2
#     Edge 34, Type (0, 0), BuildingBlock: XUDNAN_clean_linker_2, # of connection points: 2
#     Edge 35, Type (0, 0), BuildingBlock: XUDNAN_clean_linker_2, # of connection points: 2
# Relax obj value: 0.018
# Max RMSD: 0.065
# Mean RMSD: 0.065
data_MOF--net-wjf--node1-QUQFOY_clean_sbu_1--edge1-XUDNAN_clean_linker_2
_symmetry_space_group_name_H-M    P1
_symmetry_Int_Tables_number       1
_symmetry_cell_setting            triclinic
loop_
_symmetry_equiv_pos_as_xyz
'x, y, z'
_cell_length_a     53.61985
_cell_length_b     53.663363
_cell_length_c     28.482975
_cell_angle_alpha  90.063598
_cell_angle_beta   89.939927
_cell_angle_gamma 120.0055
loop_
_atom_site_label
_atom_site_type_symbol
_atom_site_fract_x
_atom_site_fract_y
_atom_site_fract_z
_atom_type_partial_charge
O0 O 0.34452 0.38922 0.9944 0.0
Cd1 Cd 0.34981 0.41117 0.05603 0.0
Cd2 Cd 0.35138 0.36537 0.0909 0.0
O3 O 0.33359 0.34742 0.02632 0.0
O4 O 0.3297 0.4336 0.0458 0.0
O5 O 0.31276 0.39486 0.09116 0.0
C6 C 0.30866 0.41382 0.06985 0.0
C7 C 0.33715 0.34048 0.16236 0.0
C8 C 0.3353 0.36242 0.99059 0.0
C9 C 0.40648 0.42311 0.09069 0.0
O10 O 0.39436 0.39583 0.09121 0.0
O11 O 0.39166 0.43521 0.08237 0.0
O12 O 0.35002 0.33398 0.13046 0.0
O13 O 0.33034 0.3598 0.15233 0.0
O14 O 0.9585 0.34318 0.36604 0.0
Cd15 Cd 0.93715 0.35284 0.41639 0.0
Cd16 Cd 0.981 0.35405 0.46847 0.0
O17 O 0.98944 0.33735 0.4089 0.0
O18 O 0.899 0.33902 0.38543 0.0
O19 O 0.90435 0.32031 0.45132 0.0
C20 C 0.88787 0.31962 0.41766 0.0
C21 C 0.9804 0.33698 0.54441 0.0
C22 C 0.97814 0.33662 0.36929 0.0
C23 C 0.98072 0.41016 0.4525 0.0
O24 O 0.99386 0.39715 0.46563 0.0
O25 O 0.95562 0.3961 0.43463 0.0
O26 O 1.00415 0.35172 0.52158 0.0
O27 O 0.95665 0.3305 0.52302 0.0
O28 O 0.6276 0.95244 0.67652 0.0
Cd29 Cd 0.59675 0.93023 0.72697 0.0
Cd30 Cd 0.63144 0.98544 0.76837 0.0
O31 O 0.65669 0.99477 0.70861 0.0
O32 O 0.57637 0.89178 0.69514 0.0
O33 O 0.59824 0.8986 0.76348 0.0
C34 C 0.58445 0.88161 0.729 0.0
C35 C 0.64748 0.98809 0.84561 0.0
C36 C 0.64982 0.97729 0.67438 0.0
C37 C 0.56915 0.96636 0.75029 0.0
O38 O 0.59403 0.9869 0.76087 0.0
O39 O 0.56543 0.94173 0.73893 0.0
O40 O 0.65298 0.01103 0.82263 0.0
O41 O 0.6342 0.96373 0.82366 0.0
O42 O 0.67752 0.60895 0.99939 0.0
Cd43 Cd 0.67552 0.58232 0.05323 0.0
Cd44 Cd 0.66195 0.6197 0.0999 0.0
O45 O 0.67765 0.64421 0.03959 0.0
O46 O 0.68841 0.55718 0.02199 0.0
O47 O 0.71421 0.58917 0.0763 0.0
C48 C 0.71179 0.57014 0.04607 0.0
C49 C 0.67748 0.63679 0.17605 0.0
C50 C 0.68021 0.63386 1.00083 0.0
C51 C 0.61538 0.55845 0.09108 0.0
O52 O 0.62113 0.58431 0.09611 0.0
O53 O 0.63515 0.55296 0.07987 0.0
O54 O 0.66075 0.64337 0.15331 0.0
O55 O 0.68677 0.62182 0.15435 0.0
O56 O 0.06661 0.6798 0.33899 0.0
Cd57 Cd 0.09174 0.67853 0.39285 0.0
Cd58 Cd 0.04082 0.66515 0.43992 0.0
O59 O 0.03091 0.67899 0.37901 0.0
O60 O 0.12984 0.6916 0.36174 0.0
O61 O 0.12331 0.71735 0.4158 0.0
C62 C 0.14009 0.71497 0.38585 0.0
C63 C 0.03731 0.68101 0.51472 0.0
C64 C 0.04383 0.68158 0.3403 0.0
C65 C 0.05628 0.61898 0.43288 0.0
O66 O 0.03618 0.62471 0.4382 0.0
O67 O 0.08134 0.63855 0.42045 0.0
O68 O 0.01465 0.66318 0.49155 0.0
O69 O 0.06204 0.69112 0.49421 0.0
O70 O 0.3834 0.0623 0.67893 0.0
Cd71 Cd 0.4167 0.08177 0.72658 0.0
Cd72 Cd 0.37416 0.03455 0.77753 0.0
O73 O 0.34852 0.02672 0.71924 0.0
O74 O 0.44136 0.11929 0.69389 0.0
O75 O 0.421 0.1161 0.76286 0.0
C76 C 0.43574 0.13171 0.72766 0.0
C77 C 0.35779 0.03369 0.85396 0.0
C78 C 0.35784 0.04123 0.68166 0.0
C79 C 0.43088 0.03664 0.7559 0.0
O80 O 0.40515 0.02302 0.77108 0.0
O81 O 0.44119 0.06193 0.73909 0.0
O82 O 0.34958 0.01029 0.83051 0.0
O83 O 0.37442 0.05786 0.83315 0.0
O84 O 0.63036 0.67664 0.68184 0.0
Cd85 Cd 0.59883 0.66987 0.63382 0.0
Cd86 Cd 0.63732 0.64999 0.5872 0.0
O87 O 0.6608 0.66552 0.64839 0.0
O88 O 0.57539 0.67968 0.67676 0.0
O89 O 0.59704 0.70552 0.6142 0.0
C90 C 0.58242 0.70225 0.65202 0.0
C91 C 0.6596 0.65726 0.51342 0.0
C92 C 0.65303 0.67477 0.68333 0.0
C93 C 0.57366 0.6074 0.60123 0.0
O94 O 0.59891 0.612 0.59289 0.0
O95 O 0.56929 0.6278 0.61337 0.0
O96 O 0.66123 0.6407 0.54451 0.0
O97 O 0.64628 0.67087 0.52484 0.0
O98 O 0.95792 0.61864 0.02034 0.0
Cd99 Cd 0.94064 0.5919 0.96335 0.0
Cd100 Cd 0.99004 0.63815 0.92284 0.0
O101 O 0.99202 0.65804 0.98611 0.0
O102 O 0.90139 0.56264 0.98596 0.0
O103 O 0.90873 0.59534 0.93214 0.0
C104 C 0.89115 0.57486 0.95954 0.0
C105 C 1.00012 0.66233 0.8507 0.0
C106 C 0.9774 0.64495 0.02225 0.0
C107 C 0.98711 0.58039 0.93042 0.0
O108 O 1.00217 0.60742 0.92444 0.0
O109 O 0.96062 0.56891 0.9418 0.0
O110 O 0.01985 0.66869 0.88178 0.0
O111 O 0.97403 0.6432 0.86158 0.0
O112 O 0.34207 0.96261 0.36532 0.0
Cd113 Cd 0.34974 0.94339 0.30886 0.0
Cd114 Cd 0.34971 0.98903 0.26448 0.0
O115 O 0.33011 0.99056 0.32618 0.0
O116 O 0.33907 0.90408 0.3317 0.0
O117 O 0.31364 0.91205 0.2787 0.0
C118 C 0.31641 0.89425 0.30574 0.0
C119 C 0.33669 0.99902 0.1912 0.0
C120 C 0.33205 0.97965 0.36469 0.0
C121 C 0.40611 0.98915 0.27319 0.0
O122 O 0.39316 1.00334 0.26798 0.0
O123 O 0.39196 0.96263 0.28429 0.0
O124 O 0.34884 0.01855 0.22297 0.0
O125 O 0.33015 0.97307 0.202 0.0
O126 O 0.39006 0.33313 0.67744 0.0
Cd127 Cd 0.42282 0.34189 0.63083 0.0
Cd128 Cd 0.37944 0.34344 0.5737 0.0
O129 O 0.35403 0.32797 0.63299 0.0
O130 O 0.44828 0.33427 0.67252 0.0
O131 O 0.42698 0.30793 0.61 0.0
C132 C 0.44216 0.31197 0.6474 0.0
C133 C 0.36122 0.32688 0.49817 0.0
C134 C 0.36407 0.32717 0.67303 0.0
C135 C 0.43694 0.39882 0.59012 0.0
O136 O 0.41092 0.38608 0.57633 0.0
O137 O 0.44749 0.38468 0.60932 0.0
O138 O 0.35418 0.34298 0.52163 0.0
O139 O 0.37763 0.31892 0.51853 0.0
O140 O 0.06849 0.3926 0.0458 0.0
Cd141 Cd 0.08863 0.41358 0.98481 0.0
Cd142 Cd 0.033 0.37706 0.95254 0.0
O143 O 0.02814 0.35699 1.01666 0.0
O144 O 0.13039 0.43341 1.00251 0.0
O145 O 0.11014 0.39627 0.95391 0.0
C146 C 0.13227 0.41407 0.97839 0.0
C147 C 0.01764 0.35242 0.88099 0.0
C148 C 0.04516 0.36889 0.05105 0.0
C149 C 0.05448 0.4405 0.95181 0.0
O150 O 0.03277 0.41527 0.9532 0.0
O151 O 0.07978 0.44448 0.95793 0.0
O152 O 0.99951 0.35092 0.91223 0.0
O153 O 0.04471 0.3666 0.89152 0.0
O154 O 0.67923 0.06965 0.35934 0.0
Cd155 Cd 0.67573 0.09653 0.31163 0.0
Cd156 Cd 0.6586 0.04144 0.25839 0.0
O157 O 0.67435 0.03238 0.31868 0.0
O158 O 0.68543 0.12927 0.35558 0.0
O159 O 0.7126 0.13358 0.29471 0.0
C160 C 0.70873 0.14469 0.33229 0.0
C161 C 0.66572 0.02686 0.18377 0.0
C162 C 0.67956 0.04618 0.35718 0.0
C163 C 0.61484 0.06112 0.27408 0.0
O164 O 0.61992 0.04091 0.26457 0.0
O165 O 0.63481 0.08556 0.28823 0.0
O166 O 0.64936 0.00853 0.21487 0.0
O167 O 0.6792 0.05372 0.1955 0.0
H168 H 0.32454 0.35977 0.24346 0.0
H169 H 0.34365 0.29534 0.1903 0.0
H170 H 0.34658 0.28099 0.27143 0.0
H171 H 0.37344 0.3831 0.33412 0.0
H172 H 0.35171 0.38907 0.37594 0.0
H173 H 0.34638 0.39119 0.31409 0.0
H174 H 0.29246 0.35271 0.32266 0.0
H175 H 0.29756 0.35064 0.38478 0.0
H176 H 0.28259 0.31853 0.34929 0.0
H177 H 0.35448 0.27847 0.35785 0.0
H178 H 0.36453 0.28667 0.44294 0.0
H179 H 0.33951 0.35205 0.44018 0.0
C180 C 0.32835 0.34197 0.24884 0.0
C181 C 0.33361 0.32852 0.21043 0.0
C182 C 0.33935 0.30586 0.21909 0.0
C183 C 0.34105 0.29753 0.26512 0.0
C184 C 0.33679 0.31192 0.30226 0.0
C185 C 0.33022 0.33345 0.29465 0.0
C186 C 0.3291 0.34719 0.34056 0.0
C187 C 0.35149 0.37954 0.34119 0.0
C188 C 0.29861 0.34194 0.34987 0.0
C189 C 0.33693 0.33064 0.37495 0.0
C190 C 0.34108 0.31024 0.35223 0.0
C191 C 0.35071 0.29396 0.37617 0.0
C192 C 0.35644 0.29881 0.42447 0.0
C193 C 0.35249 0.31973 0.44836 0.0
C194 C 0.34218 0.33547 0.42319 0.0
H195 H 0.02724 0.35701 0.60253 0.0
H196 H 0.93428 0.30237 0.60067 0.0
H197 H 0.93458 0.2956 0.68647 0.0
H198 H 0.04222 0.31893 0.69761 0.0
H199 H 0.0704 0.35211 0.72212 0.0
H200 H 0.06327 0.34936 0.65993 0.0
H201 H 0.0564 0.39378 0.66426 0.0
H202 H 0.06342 0.39664 0.72632 0.0
H203 H 0.03043 0.39362 0.70472 0.0
H204 H 0.9444 0.29931 0.77325 0.0
H205 H 0.96274 0.31354 0.85401 0.0
H206 H 0.04942 0.36582 0.79966 0.0
C207 C 1.007 0.34298 0.61992 0.0
C208 C 0.98073 0.32997 0.59473 0.0
C209 C 0.95467 0.31237 0.6191 0.0
C210 C 0.95465 0.30836 0.66785 0.0
C211 C 0.98087 0.32203 0.69176 0.0
C212 C 1.00659 0.3389 0.66856 0.0
C213 C 0.03149 0.35327 0.70283 0.0
C214 C 0.05312 0.34278 0.69516 0.0
C215 C 0.04629 0.38627 0.69932 0.0
C216 C 0.01569 0.34246 0.74908 0.0
C217 C 0.98654 0.32422 0.74188 0.0
C218 C 0.96723 0.31318 0.77926 0.0
C219 C 0.97787 0.32142 0.82506 0.0
C220 C 1.00756 0.34055 0.83325 0.0
C221 C 0.02672 0.35067 0.79466 0.0
H222 H 0.66932 0.03533 0.9039 0.0
H223 H 0.63971 0.94382 0.90309 0.0
H224 H 0.64567 0.94497 0.98916 0.0
H225 H 0.72243 0.05502 1.00024 0.0
H226 H 0.71425 0.08123 0.02418 0.0
H227 H 0.71067 0.0739 0.96203 0.0
H228 H 0.65764 0.06229 0.96547 0.0
H229 H 0.66102 0.06949 0.02754 0.0
H230 H 0.63305 0.03527 1.00583 0.0
H231 H 0.64981 0.95487 0.07582 0.0
H232 H 0.65277 0.97297 0.15652 0.0
H233 H 0.68066 0.05835 0.1018 0.0
C234 C 0.6647 0.01564 0.92164 0.0
C235 C 0.65421 0.98948 0.89653 0.0
C236 C 0.64793 0.96414 0.92136 0.0
C237 C 0.65127 0.96459 0.97032 0.0
C238 C 0.66108 0.99058 0.99408 0.0
C239 C 0.66791 0.01571 0.97056 0.0
C240 C 0.67629 0.0404 1.00473 0.0
C241 C 0.70779 0.06404 0.99735 0.0
C242 C 0.65577 0.05256 1.00064 0.0
C243 C 0.67245 0.02509 0.05122 0.0
C244 C 0.66382 0.99639 0.04421 0.0
C245 C 0.65701 0.9774 0.0817 0.0
C246 C 0.65871 0.98788 0.12746 0.0
C247 C 0.66727 0.01714 0.13557 0.0
C248 C 0.67467 0.03603 0.09682 0.0
H249 H 0.65448 0.66102 0.2342 0.0
H250 H 0.71357 0.62789 0.23282 0.0
H251 H 0.71933 0.63452 0.31875 0.0
H252 H 0.69005 0.71436 0.33004 0.0
H253 H 0.65612 0.70752 0.35424 0.0
H254 H 0.65944 0.70357 0.29206 0.0
H255 H 0.6167 0.65126 0.29585 0.0
H256 H 0.61331 0.65499 0.35793 0.0
H257 H 0.61821 0.62617 0.33617 0.0
H258 H 0.71433 0.63941 0.40542 0.0
H259 H 0.69957 0.64285 0.48618 0.0
H260 H 0.64421 0.6735 0.43178 0.0
C261 C 0.66921 0.65583 0.25175 0.0
C262 C 0.68376 0.64412 0.22659 0.0
C263 C 0.70235 0.63706 0.25117 0.0
C264 C 0.70578 0.64079 0.30003 0.0
C265 C 0.6906 0.65174 0.32388 0.0
C266 C 0.67283 0.65937 0.30053 0.0
C267 C 0.65732 0.66866 0.33478 0.0
C268 C 0.66628 0.70042 0.32733 0.0
C269 C 0.62445 0.64909 0.33095 0.0
C270 C 0.66855 0.66437 0.38113 0.0
C271 C 0.6879 0.6548 0.374 0.0
C272 C 0.6996 0.64735 0.4114 0.0
C273 C 0.69103 0.64933 0.45718 0.0
C274 C 0.671 0.65876 0.46537 0.0
C275 C 0.66005 0.66684 0.42674 0.0
H276 H 0.96818 0.64241 0.76979 0.0
H277 H 0.05059 0.70911 0.82302 0.0
H278 H 0.06713 0.72507 0.74202 0.0
H279 H 0.99557 0.62245 0.6769 0.0
H280 H 0.96722 0.61544 0.63587 0.0
H281 H 0.95998 0.61222 0.69787 0.0
H282 H 0.94169 0.64858 0.69179 0.0
H283 H 0.94872 0.65178 0.62954 0.0
H284 H 0.96454 0.68347 0.66607 0.0
H285 H 0.0772 0.72948 0.65553 0.0
H286 H 0.07944 0.72255 0.57014 0.0
H287 H 0.99049 0.65334 0.57269 0.0
C288 C 0.98934 0.66098 0.76446 0.0
C289 C 1.00799 0.67468 0.80281 0.0
C290 C 0.03585 0.69838 0.79425 0.0
C291 C 0.04544 0.70765 0.74831 0.0
C292 C 0.0269 0.6931 0.71118 0.0
C293 C 0.99933 0.67042 0.71872 0.0
C294 C 0.98469 0.65675 0.67265 0.0
C295 C 0.9764 0.62484 0.67074 0.0
C296 C 0.95835 0.66037 0.66454 0.0
C297 C 1.00864 0.67468 0.63824 0.0
C298 C 0.03271 0.69573 0.66111 0.0
C299 C 0.05829 0.71345 0.63712 0.0
C300 C 0.05939 0.70932 0.58862 0.0
C301 C 0.03508 0.68764 0.56459 0.0
C302 C 1.00928 0.6705 0.5898 0.0
H303 H 0.32407 0.96649 0.11069 0.0
H304 H 0.34333 0.05044 0.16199 0.0
H305 H 0.34588 0.06705 0.08056 0.0
H306 H 0.37228 0.99123 0.01845 0.0
H307 H 0.3501 0.96316 0.97754 0.0
H308 H 0.34542 0.9563 0.03962 0.0
H309 H 0.29142 0.94084 0.03247 0.0
H310 H 0.29587 0.94743 0.97014 0.0
H311 H 0.2813 0.96492 1.00573 0.0
H312 H 0.35314 0.07673 0.99405 0.0
H313 H 0.3621 0.07777 0.90868 0.0
H314 H 0.33705 0.98739 0.91311 0.0
C315 C 0.32791 0.98807 0.10483 0.0
C316 C 0.3333 0.00709 0.14281 0.0
C317 C 0.33897 0.0354 0.13354 0.0
C318 C 0.34045 0.04506 0.08734 0.0
C319 C 0.336 0.02611 0.05063 0.0
C320 C 0.32949 0.99808 0.05881 0.0
C321 C 0.32789 0.9828 1.01314 0.0
C322 C 0.35026 0.9728 1.01216 0.0
C323 C 0.29729 0.9575 1.00489 0.0
C324 C 0.33536 0.00685 0.97824 0.0
C325 C 0.33979 0.03161 1.00054 0.0
C326 C 0.34915 0.0573 0.97607 0.0
C327 C 0.35427 0.05773 0.92762 0.0
C328 C 0.34994 0.03261 0.90412 0.0
C329 C 0.33997 0.0068 0.92985 0.0
H330 H 0.1892 0.45444 0.9946 0.0
H331 H 0.1303 0.36266 0.98149 0.0
H332 H 0.16831 0.35309 1.00925 0.0
H333 H 0.25257 0.45098 0.95199 0.0
H334 H 0.27704 0.47943 0.99047 0.0
H335 H 0.24511 0.47891 0.96942 0.0
H336 H 0.23024 0.48074 0.05534 0.0
H337 H 0.26176 0.48054 0.07668 0.0
H338 H 0.2265 0.45345 0.09624 0.0
H339 H 0.21066 0.35332 0.04665 0.0
H340 H 0.25854 0.3629 0.07237 0.0
H341 H 0.29248 0.45448 0.05269 0.0
C342 C 0.18457 0.43238 0.99672 0.0
C343 C 0.15683 0.40925 0.98583 0.0
C344 C 0.15149 0.38067 0.98908 0.0
C345 C 0.17283 0.37502 1.00537 0.0
C346 C 0.19966 0.39821 1.0172 0.0
C347 C 0.20599 0.42635 1.0115 0.0
C348 C 0.23713 0.44725 0.0244 0.0
C349 C 0.25396 0.46519 0.98151 0.0
C350 C 0.239 0.46664 0.06562 0.0
C351 C 0.24713 0.42643 0.03892 0.0
C352 C 0.2249 0.39829 0.03556 0.0
C353 C 0.22836 0.37523 0.04879 0.0
C354 C 0.25559 0.38094 0.06393 0.0
C355 C 0.27924 0.40943 0.06465 0.0
C356 C 0.27477 0.43249 0.05264 0.0
H357 H 0.86037 0.29145 0.33781 0.0
H358 H 0.8486 0.29296 0.48812 0.0
H359 H 0.79938 0.25086 0.48078 0.0
H360 H 0.78602 0.26636 0.30069 0.0
H361 H 0.78683 0.24306 0.25582 0.0
H362 H 0.81948 0.27537 0.27201 0.0
H363 H 0.84402 0.24531 0.28956 0.0
H364 H 0.81149 0.21294 0.27344 0.0
H365 H 0.82735 0.21575 0.33037 0.0
H366 H 0.75207 0.20822 0.45706 0.0
H367 H 0.71233 0.16463 0.42132 0.0
H368 H 0.75665 0.18782 0.28709 0.0
C369 C 0.84711 0.28328 0.36898 0.0
C370 C 0.85787 0.29576 0.41345 0.0
C371 C 0.84049 0.28388 0.45375 0.0
C372 C 0.81255 0.26007 0.44982 0.0
C373 C 0.80263 0.24809 0.40546 0.0
C374 C 0.81953 0.25903 0.36582 0.0
C375 C 0.80499 0.24038 0.32316 0.0
C376 C 0.79897 0.25731 0.28571 0.0
C377 C 0.82304 0.22785 0.30296 0.0
C378 C 0.77726 0.21711 0.34498 0.0
C379 C 0.77613 0.22235 0.39228 0.0
C380 C 0.75275 0.20392 0.42008 0.0
C381 C 0.7302 0.17923 0.39932 0.0
C382 C 0.73131 0.17276 0.35133 0.0
C383 C 0.75511 0.19218 0.32379 0.0
H384 H 0.58634 0.8534 0.65072 0.0
H385 H 0.57335 0.84384 0.80131 0.0
H386 H 0.56704 0.79487 0.79625 0.0
H387 H 0.53753 0.77884 0.61654 0.0
H388 H 0.56144 0.77895 0.57191 0.0
H389 H 0.56184 0.81182 0.58664 0.0
H390 H 0.61655 0.83664 0.60379 0.0
H391 H 0.61634 0.80392 0.58898 0.0
H392 H 0.62966 0.82057 0.64537 0.0
H393 H 0.56246 0.74727 0.77454 0.0
H394 H 0.56614 0.70703 0.74057 0.0
H395 H 0.58669 0.7493 0.6047 0.0
C396 C 0.58165 0.84074 0.68249 0.0
C397 C 0.57975 0.85205 0.72636 0.0
C398 C 0.57459 0.83537 0.7674 0.0
C399 C 0.57088 0.80755 0.76476 0.0
C400 C 0.57297 0.79704 0.72093 0.0
C401 C 0.5787 0.8133 0.68062 0.0
C402 C 0.58261 0.79813 0.63864 0.0
C403 C 0.55947 0.79154 0.60123 0.0
C404 C 0.6131 0.81587 0.618 0.0
C405 C 0.57828 0.77076 0.66161 0.0
C406 C 0.57216 0.77037 0.70889 0.0
C407 C 0.56728 0.74739 0.73761 0.0
C408 C 0.56931 0.72454 0.71783 0.0
C409 C 0.57671 0.72494 0.66989 0.0
C410 C 0.58093 0.7483 0.64138 0.0
H411 H 0.76881 0.60988 0.03542 0.0
H412 H 0.70811 0.51827 0.03135 0.0
H413 H 0.74725 0.5092 1.00698 0.0
H414 H 0.80637 0.61056 0.93121 0.0
H415 H 0.84124 0.63787 0.95185 0.0
H416 H 0.80919 0.63708 0.97307 0.0
H417 H 0.82379 0.63463 0.0589 0.0
H418 H 0.8561 0.63585 0.03798 0.0
H419 H 0.83158 0.60681 0.07547 0.0
H420 H 0.79366 0.51029 0.98554 0.0
H421 H 0.84314 0.52167 0.9644 0.0
H422 H 0.87206 0.61273 0.97275 0.0
C423 C 0.76398 0.5879 0.03032 0.0
C424 C 0.73567 0.56466 0.03625 0.0
C425 C 0.72981 0.53626 0.02762 0.0
C426 C 0.75186 0.53095 1.01366 0.0
C427 C 0.7795 0.55436 1.0073 0.0
C428 C 0.78557 0.58231 1.01496 0.0
C429 C 0.81664 0.60372 1.00288 0.0
C430 C 0.81845 0.62347 0.96234 0.0
C431 C 0.83299 0.62128 0.0464 0.0
C432 C 0.82719 0.58348 0.9877 0.0
C433 C 0.80553 0.55507 0.99107 0.0
C434 C 0.81064 0.53245 0.98197 0.0
C435 C 0.8387 0.53906 0.9698 0.0
C436 C 0.86104 0.568 0.9656 0.0
C437 C 0.85506 0.59043 0.97408 0.0
H438 H 0.15771 0.77206 0.37578 0.0
H439 H 0.18827 0.71106 0.37225 0.0
H440 H 0.23689 0.75017 0.34975 0.0
H441 H 0.19627 0.81044 0.27303 0.0
H442 H 0.20367 0.84513 0.29427 0.0
H443 H 0.172 0.813 0.31401 0.0
H444 H 0.18777 0.82672 0.40058 0.0
H445 H 0.21927 0.85909 0.38113 0.0
H446 H 0.22306 0.83413 0.41856 0.0
H447 H 0.28264 0.79656 0.33037 0.0
H448 H 0.32122 0.84607 0.3109 0.0
H449 H 0.25931 0.87543 0.31738 0.0
C450 C 0.17485 0.76715 0.37113 0.0
C451 C 0.16958 0.73877 0.3767 0.0
C452 C 0.19212 0.73281 0.36874 0.0
C453 C 0.21972 0.75484 0.35586 0.0
C454 C 0.22418 0.78257 0.3499 0.0
C455 C 0.20229 0.78874 0.35684 0.0
C456 C 0.21228 0.81993 0.34542 0.0
C457 C 0.19502 0.82224 0.30423 0.0
C458 C 0.21049 0.83591 0.38902 0.0
C459 C 0.24327 0.83044 0.33149 0.0
C460 C 0.24982 0.80865 0.33487 0.0
C461 C 0.27763 0.81366 0.32682 0.0
C462 C 0.29936 0.84174 0.31563 0.0
C463 C 0.29297 0.86422 0.31139 0.0
C464 C 0.2645 0.85836 0.31885 0.0
H465 H 0.43455 0.15946 0.64859 0.0
H466 H 0.45227 0.17194 0.79779 0.0
H467 H 0.46155 0.22194 0.79084 0.0
H468 H 0.48514 0.23316 0.60861 0.0
H469 H 0.46017 0.23293 0.56605 0.0
H470 H 0.45909 0.19983 0.58143 0.0
H471 H 0.40516 0.17704 0.60347 0.0
H472 H 0.40606 0.20999 0.5881 0.0
H473 H 0.39434 0.19481 0.64582 0.0
H474 H 0.46704 0.26978 0.76789 0.0
H475 H 0.46246 0.3095 0.734 0.0
H476 H 0.43668 0.26426 0.60074 0.0
C477 C 0.44113 0.17302 0.67954 0.0
C478 C 0.44341 0.1622 0.72359 0.0
C479 C 0.45084 0.18005 0.76369 0.0
C480 C 0.45623 0.20845 0.75997 0.0
C481 C 0.45353 0.21842 0.71604 0.0
C482 C 0.44576 0.20109 0.67664 0.0
C483 C 0.44103 0.21573 0.63478 0.0
C484 C 0.46265 0.22071 0.59539 0.0
C485 C 0.4098 0.19836 0.61702 0.0
C486 C 0.44708 0.24394 0.65683 0.0
C487 C 0.45488 0.24528 0.70344 0.0
C488 C 0.46103 0.26896 0.73142 0.0
C489 C 0.45845 0.29151 0.7117 0.0
C490 C 0.44924 0.2901 0.6646 0.0
C491 C 0.44394 0.26611 0.6367 0.0
H492 H 0.37283 0.31024 0.75852 0.0
H493 H 0.31813 0.33566 0.68554 0.0
H494 H 0.29789 0.33928 0.76154 0.0
H495 H 0.32075 0.27023 0.85867 0.0
H496 H 0.35018 0.28297 0.89974 0.0
H497 H 0.35533 0.27607 0.83955 0.0
H498 H 0.39836 0.32806 0.83266 0.0
H499 H 0.39319 0.33527 0.89234 0.0
H500 H 0.39299 0.35793 0.84584 0.0
H501 H 0.29297 0.35166 0.84425 0.0
H502 H 0.29999 0.36698 0.92745 0.0
H503 H 0.35537 0.33067 0.94756 0.0
C504 C 0.35578 0.31551 0.75841 0.0
C505 C 0.34699 0.32264 0.7162 0.0
C506 C 0.32493 0.32978 0.71741 0.0
C507 C 0.31336 0.33194 0.76046 0.0
C508 C 0.32362 0.32622 0.80172 0.0
C509 C 0.34386 0.31745 0.80094 0.0
C510 C 0.35368 0.31563 0.85004 0.0
C511 C 0.34442 0.28436 0.86274 0.0
C512 C 0.38648 0.3354 0.8555 0.0
C513 C 0.33716 0.32644 0.87846 0.0
C514 C 0.31971 0.33218 0.84998 0.0
C515 C 0.30566 0.34625 0.86714 0.0
C516 C 0.30984 0.35498 0.91427 0.0
C517 C 0.3276 0.34927 0.94374 0.0
C518 C 0.34082 0.33422 0.92595 0.0
H519 H 0.95316 0.3245 0.28264 0.0
H520 H 0.03 0.33887 0.35641 0.0
H521 H 0.05322 0.34087 0.28045 0.0
H522 H 0.95925 0.28217 0.18086 0.0
H523 H 0.94616 0.2988 0.14037 0.0
H524 H 0.93363 0.29242 0.2003 0.0
H525 H 0.94966 0.34642 0.20929 0.0
H526 H 0.96252 0.35306 0.14983 0.0
H527 H 0.98654 0.37316 0.19713 0.0
H528 H 0.07138 0.35197 0.19802 0.0
H529 H 0.08178 0.36722 0.11508 0.0
H530 H 0.99257 0.34344 0.09405 0.0
C531 C 0.97452 0.32707 0.28294 0.0
C532 C 0.98978 0.33151 0.32547 0.0
C533 C 0.0178 0.33514 0.32434 0.0
C534 C 0.03116 0.33634 0.28131 0.0
C535 C 0.01599 0.33328 0.23989 0.0
C536 C 0.98803 0.32811 0.2404 0.0
C537 C 0.97745 0.32858 0.19126 0.0
C538 C 0.95265 0.29871 0.17738 0.0
C539 C 0.96854 0.35168 0.18665 0.0
C540 C 1.00435 0.33642 0.16317 0.0
C541 C 0.02626 0.33875 0.19183 0.0
C542 C 0.05418 0.34932 0.175 0.0
C543 C 0.05992 0.35807 0.12798 0.0
C544 C 0.03781 0.35596 0.09824 0.0
C545 C 0.00957 0.34435 0.11578 0.0
H546 H 0.67332 0.03027 0.63314 0.0
H547 H 0.65806 0.94381 0.61173 0.0
H548 H 0.67231 0.95506 0.52862 0.0
H549 H 0.64109 0.03284 0.53348 0.0
H550 H 0.66499 0.0702 0.5196 0.0
H551 H 0.66096 0.05825 0.57941 0.0
H552 H 0.716 0.07867 0.58591 0.0
H553 H 0.7203 0.09108 0.52605 0.0
H554 H 0.73395 0.0679 0.5438 0.0
H555 H 0.67911 0.97241 0.44552 0.0
H556 H 0.67866 0.9948 0.36994 0.0
H557 H 0.68877 0.06974 0.44507 0.0
C558 C 0.67442 0.01425 0.61147 0.0
C559 C 0.66514 0.98637 0.62896 0.0
C560 C 0.6655 0.96544 0.59907 0.0
C561 C 0.67358 0.97165 0.55182 0.0
C562 C 0.68125 0.99891 0.53489 0.0
C563 C 0.68205 0.02001 0.56395 0.0
C564 C 0.687 0.04606 0.53586 0.0
C565 C 0.66202 0.05216 0.54248 0.0
C566 C 0.71605 0.07249 0.54867 0.0
C567 C 0.68753 0.03578 0.48649 0.0
C568 C 0.68473 0.00877 0.48663 0.0
C569 C 0.68198 0.99385 0.44498 0.0
C570 C 0.68166 0.0067 0.40216 0.0
C571 C 0.6838 0.03409 0.40136 0.0
C572 C 0.68745 0.04894 0.44421 0.0
H573 H 0.67424 0.64341 0.72454 0.0
H574 H 0.66276 0.71697 0.74584 0.0
H575 H 0.67681 0.71939 0.82897 0.0
H576 H 0.64065 0.60944 0.82404 0.0
H577 H 0.66302 0.59422 0.83818 0.0
H578 H 0.65974 0.6026 0.77829 0.0
H579 H 0.71513 0.63499 0.77205 0.0
H580 H 0.71868 0.62639 0.83196 0.0
H581 H 0.73407 0.66343 0.8142 0.0
H582 H 0.68339 0.70862 0.91183 0.0
H583 H 0.68192 0.68548 0.98752 0.0
H584 H 0.6874 0.61778 0.91292 0.0
C585 C 0.67616 0.66088 0.74622 0.0
C586 C 0.6681 0.68041 0.72874 0.0
C587 C 0.66937 0.70213 0.75856 0.0
C588 C 0.67734 0.70367 0.80579 0.0
C589 C 0.68384 0.68323 0.82271 0.0
C590 C 0.68356 0.66234 0.79374 0.0
C591 C 0.68707 0.64036 0.82189 0.0
C592 C 0.66107 0.60988 0.8152 0.0
C593 C 0.71544 0.64137 0.80927 0.0
C594 C 0.68807 0.65141 0.87121 0.0
C595 C 0.6868 0.67648 0.87095 0.0
C596 C 0.68499 0.68931 0.91248 0.0
C597 C 0.68408 0.67596 0.95534 0.0
C598 C 0.6846 0.64984 0.95629 0.0
C599 C 0.68723 0.63787 0.91356 0.0
H600 H 0.06852 0.69287 0.25311 0.0
H601 H 0.99035 0.67533 0.32628 0.0
H602 H 0.96698 0.67236 0.25024 0.0
H603 H 0.06119 0.73446 0.15251 0.0
H604 H 0.07528 0.71896 0.11151 0.0
H605 H 0.08748 0.72505 0.1716 0.0
H606 H 0.0729 0.67134 0.17937 0.0
H607 H 0.06062 0.66508 0.1196 0.0
H608 H 0.03644 0.64396 0.16609 0.0
H609 H 0.94933 0.66137 0.16773 0.0
H610 H 0.93966 0.64592 0.08469 0.0
H611 H 0.0298 0.6734 0.06426 0.0
C612 C 0.04676 0.68923 0.25327 0.0
C613 C 0.03126 0.68433 0.29569 0.0
C614 C 1.00272 0.67932 0.2943 0.0
C615 C 0.98928 0.67766 0.25124 0.0
C616 C 1.00485 0.68158 0.20998 0.0
C617 C 0.03314 0.68773 0.21068 0.0
C618 C 0.04422 0.68814 0.16157 0.0
C619 C 0.06848 0.71847 0.14854 0.0
C620 C 0.0541 0.6658 0.15638 0.0
C621 C 0.01729 0.67979 0.13325 0.0
C622 C 0.99488 0.67638 0.1618 0.0
C623 C 0.96689 0.66492 0.14476 0.0
C624 C 0.96157 0.65617 0.09769 0.0
C625 C 0.98418 0.6593 0.06819 0.0
C626 C 0.01247 0.67196 0.08582 0.0
H627 H 0.325 0.95413 0.45037 0.0
H628 H 0.3241 0.02561 0.38102 0.0
H629 H 0.32035 0.04455 0.45813 0.0
H630 H 0.27613 0.94772 0.55189 0.0
H631 H 0.29679 0.93919 0.59195 0.0
H632 H 0.29327 0.92816 0.53134 0.0
H633 H 0.34885 0.95435 0.52349 0.0
H634 H 0.35252 0.96539 0.58376 0.0
H635 H 0.36973 0.992 0.53832 0.0
H636 H 0.32822 0.06129 0.5412 0.0
H637 H 0.34464 0.07304 0.62354 0.0
H638 H 0.33689 0.98933 0.64008 0.0
C639 C 0.32311 0.97329 0.45129 0.0
C640 C 0.32486 0.98841 0.40969 0.0
C641 C 0.3226 0.01355 0.41239 0.0
C642 C 0.32039 0.02443 0.45607 0.0
C643 C 0.31982 0.00957 0.49659 0.0
C644 C 0.3206 0.98423 0.49451 0.0
C645 C 0.32293 0.97407 0.54304 0.0
C646 C 0.29565 0.94559 0.55527 0.0
C647 C 0.35012 0.97132 0.54738 0.0
C648 C 0.32519 0.99857 0.57261 0.0
C649 C 0.32294 0.01867 0.54522 0.0
C650 C 0.32886 0.04524 0.56334 0.0
C651 C 0.33812 0.05175 0.61007 0.0
C652 C 0.34092 0.03162 0.63822 0.0
C653 C 0.33346 1.00441 0.61974 0.0
H654 H 0.44315 0.48232 0.08477 0.0
H655 H 0.44185 0.40205 0.11257 0.0
H656 H 0.4945 0.42824 0.11901 0.0
H657 H 0.50597 0.51373 1.01413 0.0
H658 H 0.52015 0.54975 0.03652 0.0
H659 H 0.48189 0.52518 0.03677 0.0
H660 H 0.48026 0.53278 0.1263 0.0
H661 H 0.51854 0.55748 0.12628 0.0
H662 H 0.50338 0.52675 0.16486 0.0
H663 H 0.54725 0.4618 0.11621 0.0
H664 H 0.59728 0.50187 0.10872 0.0
H665 H 0.56556 0.56114 0.08592 0.0
C666 C 0.45392 0.47033 0.09284 0.0
C667 C 0.43816 0.44004 0.09802 0.0
C668 C 0.45323 0.4252 0.10828 0.0
C669 C 0.48325 0.43988 0.1121 0.0
C670 C 0.49814 0.46954 0.106 0.0
C671 C 0.48409 0.48474 0.09707 0.0
C672 C 0.5056 0.51655 0.09094 0.0
C673 C 0.50326 0.5269 0.04166 0.0
C674 C 0.50171 0.53444 0.1294 0.0
C675 C 0.53377 0.5166 0.09698 0.0
C676 C 0.52889 0.48922 0.10561 0.0
C677 C 0.55141 0.48345 0.11008 0.0
C678 C 0.57975 0.50631 0.1056 0.0
C679 C 0.58536 0.53465 0.09713 0.0
C680 C 0.56198 0.53979 0.09312 0.0
H681 H 1.00409 0.56926 0.42647 0.0
H682 H 0.09461 0.60125 0.45502 0.0
H683 H 0.08433 0.55134 0.46677 0.0
H684 H 0.9746 0.50974 0.50867 0.0
H685 H 0.94607 0.48578 0.46984 0.0
H686 H 0.96016 0.52405 0.46619 0.0
H687 H 0.97123 0.52304 0.37788 0.0
H688 H 0.95712 0.48478 0.38122 0.0
H689 H 0.99319 0.50798 0.35994 0.0
H690 H 0.06437 0.49846 0.47564 0.0
H691 H 0.03714 0.44562 0.47502 0.0
H692 H 0.95952 0.44714 0.43642 0.0
C693 C 0.0217 0.56577 0.43566 0.0
C694 C 0.05015 0.58914 0.4403 0.0
C695 C 0.07269 0.58368 0.45139 0.0
C696 C 0.06702 0.55543 0.45829 0.0
C697 C 0.03877 0.5329 0.4534 0.0
C698 C 0.01651 0.53768 0.44186 0.0
C699 C 0.98837 0.50952 0.43621 0.0
C700 C 0.96598 0.50714 0.47239 0.0
C701 C 0.97681 0.50614 0.38581 0.0
C702 C 0.9983 0.48812 0.44642 0.0
C703 C 0.02739 0.50217 0.45675 0.0
C704 C 0.04161 0.48722 0.46751 0.0
C705 C 0.02584 0.45712 0.46715 0.0
C706 C 0.99609 0.44207 0.4556 0.0
C707 C 0.98218 0.45792 0.44537 0.0
H708 H 0.57048 0.01822 0.74855 0.0
H709 H 0.51179 0.92595 0.75352 0.0
H710 H 0.47053 0.93435 0.75596 0.0
H711 H 0.53089 0.03898 0.82567 0.0
H712 H 0.53856 0.07064 0.79256 0.0
H713 H 0.56361 0.05753 0.79182 0.0
H714 H 0.56096 0.05475 0.70102 0.0
H715 H 0.53592 0.06788 0.70146 0.0
H716 H 0.52642 0.03433 0.67275 0.0
H717 H 0.436 0.95253 0.76038 0.0
H718 H 0.40955 0.97895 0.76152 0.0
H719 H 0.49013 0.05987 0.74971 0.0
C720 C 0.54895 0.99977 0.75029 0.0
C721 C 0.54436 0.97137 0.75113 0.0
C722 C 0.51584 0.94784 0.75282 0.0
C723 C 0.49228 0.95242 0.75433 0.0
C724 C 0.49758 0.98064 0.75357 0.0
C725 C 0.52515 1.00393 0.75116 0.0
C726 C 0.52478 0.03204 0.74966 0.0
C727 C 0.54039 0.0509 0.79248 0.0
C728 C 0.53779 0.0482 0.70347 0.0
C729 C 0.49264 0.02089 0.75191 0.0
C730 C 0.47746 0.99117 0.75452 0.0
C731 C 0.44762 0.97578 0.75811 0.0
C732 C 0.43281 0.99108 0.75891 0.0
C733 C 0.44773 0.02155 0.75567 0.0
C734 C 0.47811 0.03661 0.75195 0.0
H735 H 0.57499 0.55715 0.6085 0.0
H736 H 0.51697 0.59034 0.58509 0.0
H737 H 0.47632 0.54056 0.57682 0.0
H738 H 0.54183 0.49702 0.52871 0.0
H739 H 0.54696 0.47308 0.56663 0.0
H740 H 0.57171 0.51127 0.56909 0.0
H741 H 0.56213 0.51123 0.65826 0.0
H742 H 0.53745 0.47304 0.65614 0.0
H743 H 0.52568 0.49681 0.6789 0.0
H744 H 0.44248 0.48764 0.56933 0.0
H745 H 0.41628 0.43479 0.5702 0.0
H746 H 0.49563 0.43527 0.60306 0.0
C747 C 0.55375 0.55395 0.60136 0.0
C748 C 0.54914 0.57764 0.59701 0.0
C749 C 0.52097 0.57254 0.58851 0.0
C750 C 0.49781 0.54436 0.58358 0.0
C751 C 0.50313 0.52154 0.58788 0.0
C752 C 0.53031 0.52597 0.59715 0.0
C753 C 0.52993 0.49762 0.60223 0.0
C754 C 0.54872 0.49458 0.5644 0.0
C755 C 0.53935 0.4945 0.65184 0.0
C756 C 0.49825 0.4765 0.59418 0.0
C757 C 0.48332 0.49084 0.58544 0.0
C758 C 0.45392 0.47618 0.57633 0.0
C759 C 0.43925 0.44606 0.57675 0.0
C760 C 0.45383 0.43071 0.58676 0.0
C761 C 0.48383 0.44628 0.59538 0.0
H762 H 0.96375 0.52185 0.94481 0.0
H763 H 0.04335 0.59943 0.90798 0.0
H764 H 0.06882 0.57199 0.90732 0.0
H765 H 0.99476 0.49314 0.02208 0.0
H766 H 0.97177 0.45623 1.00456 0.0
H767 H 0.95912 0.48152 0.99983 0.0
H768 H 0.94852 0.4695 0.91141 0.0
H769 H 0.961 0.44403 0.91594 0.0
H770 H 0.97681 0.47262 0.87329 0.0
H771 H 0.0867 0.53704 0.91581 0.0
H772 H 0.09479 0.49604 0.92856 0.0
H773 H 1.00363 0.44091 0.95752 0.0
C774 C 0.98644 0.533 0.93604 0.0
C775 C 1.00145 0.56287 0.9265 0.0
C776 C 0.03124 0.57659 0.91544 0.0
C777 C 0.046 0.5612 0.91497 0.0
C778 C 0.03072 0.53196 0.92528 0.0
C779 C 1.00156 0.51789 0.93516 0.0
C780 C 0.99043 0.48639 0.94586 0.0
C781 C 0.97831 0.47889 0.99606 0.0
C782 C 0.96786 0.46699 0.90944 0.0
C783 C 0.01796 0.48513 0.94105 0.0
C784 C 0.04096 0.51165 0.92924 0.0
C785 C 0.06879 0.51607 0.9246 0.0
C786 C 0.07321 0.49269 0.93206 0.0
C787 C 0.04988 0.46521 0.94374 0.0
C788 C 0.02191 0.46154 0.94811 0.0
H789 H 0.56461 0.009 0.2743 0.0
H790 H 0.59754 0.10101 0.26527 0.0
H791 H 0.54773 0.09208 0.26019 0.0
H792 H 0.50349 0.98619 0.19572 0.0
H793 H 0.47996 0.95514 0.23054 0.0
H794 H 0.5182 0.96856 0.23053 0.0
H795 H 0.5191 0.9731 0.32114 0.0
H796 H 0.48089 0.95971 0.32145 0.0
H797 H 0.50504 0.99388 0.34833 0.0
H798 H 0.49479 0.07343 0.25703 0.0
H799 H 0.44192 0.04677 0.26073 0.0
H800 H 0.44265 0.96654 0.27538 0.0
C801 C 0.56136 0.02726 0.27069 0.0
C802 C 0.585 0.05574 0.26978 0.0
C803 C 0.5798 0.07905 0.26596 0.0
C804 C 0.55159 0.07418 0.2629 0.0
C805 C 0.52881 0.04588 0.26415 0.0
C806 C 0.53332 0.0228 0.26828 0.0
C807 C 0.50497 0.99463 0.27132 0.0
C808 C 0.50146 0.97497 0.22953 0.0
C809 C 0.50236 0.97945 0.31836 0.0
C810 C 0.48379 1.00551 0.26846 0.0
C811 C 0.49808 0.03511 0.26382 0.0
C812 C 0.48336 0.05025 0.26065 0.0
C813 C 0.45324 0.03482 0.26275 0.0
C814 C 0.43797 1.00447 0.26843 0.0
C815 C 0.4536 0.98968 0.27103 0.0
loop_
_geom_bond_atom_site_label_1
_geom_bond_atom_site_label_2
_geom_bond_distance
_geom_bond_site_symmetry_2
_ccdc_geom_bond_type
O0 Cd1 2.223 1_556 S
O0 C8 1.315 . S
Cd1 O0 2.223 1_554 S
Cd1 O4 2.297 1_554 S
Cd1 O5 2.439 . S
Cd1 O11 2.240 . S
Cd2 O3 2.240 . S
Cd2 O10 2.223 . S
Cd2 O12 2.297 . S
Cd2 O13 2.439 . S
O3 Cd2 2.240 . S
O3 C8 1.279 1_554 S
O4 Cd1 2.297 1_556 S
O4 C6 1.247 1_556 S
O5 Cd1 2.439 . S
O5 C6 1.208 . S
C6 O4 1.247 1_554 S
C6 O5 1.208 . S
C7 O12 1.247 . S
C7 O13 1.208 . S
C8 O0 1.315 . S
C8 O3 1.279 1_556 S
C9 O10 1.315 . S
C9 O11 1.279 . S
O10 Cd2 2.223 . S
O10 C9 1.315 . S
O11 Cd1 2.240 . S
O11 C9 1.279 . S
O12 Cd2 2.297 . S
O12 C7 1.247 . S
O13 Cd2 2.439 . S
O13 C7 1.208 . S
O14 Cd15 2.223 . S
O14 C22 1.315 . S
Cd15 O14 2.223 . S
Cd15 O18 2.297 . S
Cd15 O19 2.439 . S
Cd15 O25 2.240 . S
Cd16 O17 2.240 . S
Cd16 O24 2.238 1_655 S
Cd16 O26 2.297 1_655 S
Cd16 O27 2.439 . S
O17 Cd16 2.240 . S
O17 C22 1.279 . S
O18 Cd15 2.297 . S
O18 C20 1.247 . S
O19 Cd15 2.439 . S
O19 C20 1.208 . S
C20 O18 1.247 . S
C20 O19 1.208 . S
C21 O26 1.247 1_655 S
C21 O27 1.208 . S
C22 O14 1.315 . S
C22 O17 1.279 . S
C23 O24 1.276 1_655 S
C23 O25 1.279 . S
O24 Cd16 2.238 1_455 S
O24 C23 1.276 1_455 S
O25 Cd15 2.240 . S
O25 C23 1.279 . S
O26 Cd16 2.297 1_455 S
O26 C21 1.247 1_455 S
O27 Cd16 2.439 . S
O27 C21 1.208 . S
O28 Cd29 2.223 . S
O28 C36 1.315 . S
Cd29 O28 2.223 . S
Cd29 O32 2.297 . S
Cd29 O33 2.439 . S
Cd29 O39 2.240 . S
Cd30 O31 2.240 . S
Cd30 O38 2.200 1_565 S
Cd30 O40 2.297 1_565 S
Cd30 O41 2.439 . S
O31 Cd30 2.240 . S
O31 C36 1.279 . S
O32 Cd29 2.297 . S
O32 C34 1.247 . S
O33 Cd29 2.439 . S
O33 C34 1.208 . S
C34 O32 1.247 . S
C34 O33 1.208 . S
C35 O40 1.247 1_565 S
C35 O41 1.208 . S
C36 O28 1.315 . S
C36 O31 1.279 . S
C37 O38 1.293 1_565 S
C37 O39 1.279 . S
O38 Cd30 2.200 1_545 S
O38 C37 1.293 1_545 S
O39 Cd29 2.240 . S
O39 C37 1.279 . S
O40 Cd30 2.297 1_545 S
O40 C35 1.247 1_545 S
O41 Cd30 2.439 . S
O41 C35 1.208 . S
O42 Cd43 2.223 1_556 S
O42 C50 1.315 . S
Cd43 O42 2.223 1_554 S
Cd43 O46 2.297 1_554 S
Cd43 O47 2.439 . S
Cd43 O53 2.240 . S
Cd44 O45 2.240 . S
Cd44 O52 2.223 . S
Cd44 O54 2.297 . S
Cd44 O55 2.439 . S
O45 Cd44 2.240 . S
O45 C50 1.279 1_554 S
O46 Cd43 2.297 1_556 S
O46 C48 1.247 1_556 S
O47 Cd43 2.439 . S
O47 C48 1.208 . S
C48 O46 1.247 1_554 S
C48 O47 1.208 . S
C49 O54 1.247 . S
C49 O55 1.208 . S
C50 O42 1.315 . S
C50 O45 1.279 1_556 S
C51 O52 1.315 . S
C51 O53 1.279 . S
O52 Cd44 2.223 . S
O52 C51 1.315 . S
O53 Cd43 2.240 . S
O53 C51 1.279 . S
O54 Cd44 2.297 . S
O54 C49 1.247 . S
O55 Cd44 2.439 . S
O55 C49 1.208 . S
O56 Cd57 2.223 . S
O56 C64 1.315 . S
Cd57 O56 2.223 . S
Cd57 O60 2.297 . S
Cd57 O61 2.439 . S
Cd57 O67 2.240 . S
Cd58 O59 2.240 . S
Cd58 O66 2.238 1_455 S
Cd58 O68 2.297 1_455 S
Cd58 O69 2.439 . S
O59 Cd58 2.240 . S
O59 C64 1.279 . S
O60 Cd57 2.297 . S
O60 C62 1.247 . S
O61 Cd57 2.439 . S
O61 C62 1.208 . S
C62 O60 1.247 . S
C62 O61 1.208 . S
C63 O68 1.247 1_455 S
C63 O69 1.208 . S
C64 O56 1.315 . S
C64 O59 1.279 . S
C65 O66 1.276 1_455 S
C65 O67 1.279 . S
O66 Cd58 2.238 1_655 S
O66 C65 1.276 1_655 S
O67 Cd57 2.240 . S
O67 C65 1.279 . S
O68 Cd58 2.297 1_655 S
O68 C63 1.247 1_655 S
O69 Cd58 2.439 . S
O69 C63 1.208 . S
O70 Cd71 2.223 . S
O70 C78 1.315 . S
Cd71 O70 2.223 . S
Cd71 O74 2.297 . S
Cd71 O75 2.439 . S
Cd71 O81 2.240 . S
Cd72 O73 2.240 . S
Cd72 O80 2.200 1_545 S
Cd72 O82 2.297 1_545 S
Cd72 O83 2.439 . S
O73 Cd72 2.240 . S
O73 C78 1.279 . S
O74 Cd71 2.297 . S
O74 C76 1.247 . S
O75 Cd71 2.439 . S
O75 C76 1.208 . S
C76 O74 1.247 . S
C76 O75 1.208 . S
C77 O82 1.247 1_545 S
C77 O83 1.208 . S
C78 O70 1.315 . S
C78 O73 1.279 . S
C79 O80 1.293 1_545 S
C79 O81 1.279 . S
O80 Cd72 2.200 1_565 S
O80 C79 1.293 1_565 S
O81 Cd71 2.240 . S
O81 C79 1.279 . S
O82 Cd72 2.297 1_565 S
O82 C77 1.247 1_565 S
O83 Cd72 2.439 . S
O83 C77 1.208 . S
O84 Cd85 2.223 . S
O84 C92 1.315 . S
Cd85 O84 2.223 . S
Cd85 O88 2.297 . S
Cd85 O89 2.439 . S
Cd85 O95 2.240 . S
Cd86 O87 2.240 . S
Cd86 O94 2.223 . S
Cd86 O96 2.297 . S
Cd86 O97 2.439 . S
O87 Cd86 2.240 . S
O87 C92 1.279 . S
O88 Cd85 2.297 . S
O88 C90 1.247 . S
O89 Cd85 2.439 . S
O89 C90 1.208 . S
C90 O88 1.247 . S
C90 O89 1.208 . S
C91 O96 1.247 . S
C91 O97 1.208 . S
C92 O84 1.315 . S
C92 O87 1.279 . S
C93 O94 1.315 . S
C93 O95 1.279 . S
O94 Cd86 2.223 . S
O94 C93 1.315 . S
O95 Cd85 2.240 . S
O95 C93 1.279 . S
O96 Cd86 2.297 . S
O96 C91 1.247 . S
O97 Cd86 2.439 . S
O97 C91 1.208 . S
O98 Cd99 2.223 1_554 S
O98 C106 1.315 . S
Cd99 O98 2.223 1_556 S
Cd99 O102 2.297 1_556 S
Cd99 O103 2.439 . S
Cd99 O109 2.240 . S
Cd100 O101 2.240 . S
Cd100 O108 2.200 1_655 S
Cd100 O110 2.297 1_655 S
Cd100 O111 2.439 . S
O101 Cd100 2.240 . S
O101 C106 1.279 1_556 S
O102 Cd99 2.297 1_554 S
O102 C104 1.247 1_554 S
O103 Cd99 2.439 . S
O103 C104 1.208 . S
C104 O102 1.247 1_556 S
C104 O103 1.208 . S
C105 O110 1.247 1_655 S
C105 O111 1.208 . S
C106 O98 1.315 . S
C106 O101 1.279 1_554 S
C107 O108 1.293 1_655 S
C107 O109 1.279 . S
O108 Cd100 2.200 1_455 S
O108 C107 1.293 1_455 S
O109 Cd99 2.240 . S
O109 C107 1.279 . S
O110 Cd100 2.297 1_455 S
O110 C105 1.247 1_455 S
O111 Cd100 2.439 . S
O111 C105 1.208 . S
O112 Cd113 2.223 . S
O112 C120 1.315 . S
Cd113 O112 2.223 . S
Cd113 O116 2.297 . S
Cd113 O117 2.439 . S
Cd113 O123 2.240 . S
Cd114 O115 2.240 . S
Cd114 O122 2.238 1_565 S
Cd114 O124 2.297 1_565 S
Cd114 O125 2.439 . S
O115 Cd114 2.240 . S
O115 C120 1.279 . S
O116 Cd113 2.297 . S
O116 C118 1.247 . S
O117 Cd113 2.439 . S
O117 C118 1.208 . S
C118 O116 1.247 . S
C118 O117 1.208 . S
C119 O124 1.247 1_565 S
C119 O125 1.208 . S
C120 O112 1.315 . S
C120 O115 1.279 . S
C121 O122 1.276 1_565 S
C121 O123 1.279 . S
O122 Cd114 2.238 1_545 S
O122 C121 1.276 1_545 S
O123 Cd113 2.240 . S
O123 C121 1.279 . S
O124 Cd114 2.297 1_545 S
O124 C119 1.247 1_545 S
O125 Cd114 2.439 . S
O125 C119 1.208 . S
O126 Cd127 2.223 . S
O126 C134 1.315 . S
Cd127 O126 2.223 . S
Cd127 O130 2.297 . S
Cd127 O131 2.439 . S
Cd127 O137 2.240 . S
Cd128 O129 2.240 . S
Cd128 O136 2.223 . S
Cd128 O138 2.297 . S
Cd128 O139 2.439 . S
O129 Cd128 2.240 . S
O129 C134 1.279 . S
O130 Cd127 2.297 . S
O130 C132 1.247 . S
O131 Cd127 2.439 . S
O131 C132 1.208 . S
C132 O130 1.247 . S
C132 O131 1.208 . S
C133 O138 1.247 . S
C133 O139 1.208 . S
C134 O126 1.315 . S
C134 O129 1.279 . S
C135 O136 1.315 . S
C135 O137 1.279 . S
O136 Cd128 2.223 . S
O136 C135 1.315 . S
O137 Cd127 2.240 . S
O137 C135 1.279 . S
O138 Cd128 2.297 . S
O138 C133 1.247 . S
O139 Cd128 2.439 . S
O139 C133 1.208 . S
O140 Cd141 2.223 1_554 S
O140 C148 1.315 . S
Cd141 O140 2.223 1_556 S
Cd141 O144 2.297 1_556 S
Cd141 O145 2.439 . S
Cd141 O151 2.240 . S
Cd142 O143 2.240 . S
Cd142 O150 2.200 1_455 S
Cd142 O152 2.297 1_455 S
Cd142 O153 2.439 . S
O143 Cd142 2.240 . S
O143 C148 1.279 1_556 S
O144 Cd141 2.297 1_554 S
O144 C146 1.247 1_554 S
O145 Cd141 2.439 . S
O145 C146 1.208 . S
C146 O144 1.247 1_556 S
C146 O145 1.208 . S
C147 O152 1.247 1_455 S
C147 O153 1.208 . S
C148 O140 1.315 . S
C148 O143 1.279 1_554 S
C149 O150 1.293 1_455 S
C149 O151 1.279 . S
O150 Cd142 2.200 1_655 S
O150 C149 1.293 1_655 S
O151 Cd141 2.240 . S
O151 C149 1.279 . S
O152 Cd142 2.297 1_655 S
O152 C147 1.247 1_655 S
O153 Cd142 2.439 . S
O153 C147 1.208 . S
O154 Cd155 2.223 . S
O154 C162 1.315 . S
Cd155 O154 2.223 . S
Cd155 O158 2.297 . S
Cd155 O159 2.439 . S
Cd155 O165 2.240 . S
Cd156 O157 2.240 . S
Cd156 O164 2.238 1_545 S
Cd156 O166 2.297 1_545 S
Cd156 O167 2.439 . S
O157 Cd156 2.240 . S
O157 C162 1.279 . S
O158 Cd155 2.297 . S
O158 C160 1.247 . S
O159 Cd155 2.439 . S
O159 C160 1.208 . S
C160 O158 1.247 . S
C160 O159 1.208 . S
C161 O166 1.247 1_545 S
C161 O167 1.208 . S
C162 O154 1.315 . S
C162 O157 1.279 . S
C163 O164 1.276 1_545 S
C163 O165 1.279 . S
O164 Cd156 2.238 1_565 S
O164 C163 1.276 1_565 S
O165 Cd155 2.240 . S
O165 C163 1.279 . S
O166 Cd156 2.297 1_565 S
O166 C161 1.247 1_565 S
O167 Cd156 2.439 . S
O167 C161 1.208 . S
H168 C180 0.930 . S
H169 C182 0.930 . S
H170 C183 0.930 . S
H171 C187 0.959 . S
H172 C187 0.959 . S
H173 C187 0.961 . S
H174 C188 0.960 . S
H175 C188 0.961 . S
H176 C188 0.959 . S
H177 C191 0.929 . S
H178 C192 0.931 . S
H179 C194 0.930 . S
C180 H168 0.930 . S
C180 C181 1.399 . S
C180 C185 1.399 . S
C181 C180 1.399 . S
C181 C182 1.376 . S
C182 H169 0.930 . S
C182 C181 1.376 . S
C182 C183 1.388 . S
C183 H170 0.930 . S
C183 C182 1.388 . S
C183 C184 1.390 . S
C184 C183 1.390 . S
C184 C185 1.394 . S
C184 C190 1.465 . S
C185 C180 1.399 . S
C185 C184 1.394 . S
C185 C186 1.516 . S
C186 C185 1.516 . S
C186 C187 1.502 . S
C186 C188 1.561 . S
C186 C189 1.526 . S
C187 H171 0.959 . S
C187 H172 0.959 . S
C187 H173 0.961 . S
C187 C186 1.502 . S
C188 H174 0.960 . S
C188 H175 0.961 . S
C188 H176 0.959 . S
C188 C186 1.561 . S
C189 C186 1.526 . S
C189 C190 1.396 . S
C189 C194 1.390 . S
C190 C184 1.465 . S
C190 C189 1.396 . S
C190 C191 1.399 . S
C191 H177 0.929 . S
C191 C190 1.399 . S
C191 C192 1.385 . S
C192 H178 0.931 . S
C192 C191 1.385 . S
C192 C193 1.389 . S
C193 C192 1.389 . S
C193 C194 1.387 . S
C194 H179 0.930 . S
C194 C189 1.390 . S
C194 C193 1.387 . S
H195 C207 0.930 . S
H196 C209 0.930 . S
H197 C210 0.930 . S
H198 C214 0.959 . S
H199 C214 0.959 . S
H200 C214 0.961 . S
H201 C215 0.960 . S
H202 C215 0.961 . S
H203 C215 0.959 . S
H204 C218 0.929 . S
H205 C219 0.931 . S
H206 C221 0.930 . S
C207 H195 0.930 . S
C207 C208 1.399 1_455 S
C207 C212 1.399 . S
C208 C207 1.399 1_655 S
C208 C209 1.376 . S
C209 H196 0.930 . S
C209 C208 1.376 . S
C209 C210 1.388 . S
C210 H197 0.930 . S
C210 C209 1.388 . S
C210 C211 1.390 . S
C211 C210 1.390 . S
C211 C212 1.394 1_655 S
C211 C217 1.465 . S
C212 C207 1.399 . S
C212 C211 1.394 1_455 S
C212 C213 1.516 . S
C213 C212 1.516 . S
C213 C214 1.502 . S
C213 C215 1.561 . S
C213 C216 1.526 . S
C214 H198 0.959 . S
C214 H199 0.959 . S
C214 H200 0.961 . S
C214 C213 1.502 . S
C215 H201 0.960 . S
C215 H202 0.961 . S
C215 H203 0.959 . S
C215 C213 1.561 . S
C216 C213 1.526 . S
C216 C217 1.396 1_455 S
C216 C221 1.390 . S
C217 C211 1.465 . S
C217 C216 1.396 1_655 S
C217 C218 1.399 . S
C218 H204 0.929 . S
C218 C217 1.399 . S
C218 C219 1.385 . S
C219 H205 0.931 . S
C219 C218 1.385 . S
C219 C220 1.389 1_655 S
C220 C219 1.389 1_455 S
C220 C221 1.387 . S
C221 H206 0.930 . S
C221 C216 1.390 . S
C221 C220 1.387 . S
H222 C234 0.930 . S
H223 C236 0.930 . S
H224 C237 0.930 . S
H225 C241 0.959 . S
H226 C241 0.959 1_554 S
H227 C241 0.961 . S
H228 C242 0.960 . S
H229 C242 0.961 1_554 S
H230 C242 0.959 . S
H231 C245 0.929 . S
H232 C246 0.931 . S
H233 C248 0.930 . S
C234 H222 0.930 . S
C234 C235 1.399 1_545 S
C234 C239 1.399 . S
C235 C234 1.399 1_565 S
C235 C236 1.376 . S
C236 H223 0.930 . S
C236 C235 1.376 . S
C236 C237 1.388 . S
C237 H224 0.930 . S
C237 C236 1.388 . S
C237 C238 1.390 . S
C238 C237 1.390 . S
C238 C239 1.394 1_565 S
C238 C244 1.465 1_556 S
C239 C234 1.399 . S
C239 C238 1.394 1_545 S
C239 C240 1.516 . S
C240 C239 1.516 . S
C240 C241 1.502 . S
C240 C242 1.561 . S
C240 C243 1.526 1_556 S
C241 H225 0.959 . S
C241 H226 0.959 1_556 S
C241 H227 0.961 . S
C241 C240 1.502 . S
C242 H228 0.960 . S
C242 H229 0.961 1_556 S
C242 H230 0.959 . S
C242 C240 1.561 . S
C243 C240 1.526 1_554 S
C243 C244 1.396 1_545 S
C243 C248 1.390 . S
C244 C238 1.465 1_554 S
C244 C243 1.396 1_565 S
C244 C245 1.399 . S
C245 H231 0.929 . S
C245 C244 1.399 . S
C245 C246 1.385 . S
C246 H232 0.931 . S
C246 C245 1.385 . S
C246 C247 1.389 1_565 S
C247 C246 1.389 1_545 S
C247 C248 1.387 . S
C248 H233 0.930 . S
C248 C243 1.390 . S
C248 C247 1.387 . S
H249 C261 0.930 . S
H250 C263 0.930 . S
H251 C264 0.930 . S
H252 C268 0.959 . S
H253 C268 0.959 . S
H254 C268 0.961 . S
H255 C269 0.960 . S
H256 C269 0.961 . S
H257 C269 0.959 . S
H258 C272 0.929 . S
H259 C273 0.931 . S
H260 C275 0.930 . S
C261 H249 0.930 . S
C261 C262 1.399 . S
C261 C266 1.399 . S
C262 C261 1.399 . S
C262 C263 1.376 . S
C263 H250 0.930 . S
C263 C262 1.376 . S
C263 C264 1.388 . S
C264 H251 0.930 . S
C264 C263 1.388 . S
C264 C265 1.390 . S
C265 C264 1.390 . S
C265 C266 1.394 . S
C265 C271 1.465 . S
C266 C261 1.399 . S
C266 C265 1.394 . S
C266 C267 1.516 . S
C267 C266 1.516 . S
C267 C268 1.502 . S
C267 C269 1.561 . S
C267 C270 1.526 . S
C268 H252 0.959 . S
C268 H253 0.959 . S
C268 H254 0.961 . S
C268 C267 1.502 . S
C269 H255 0.960 . S
C269 H256 0.961 . S
C269 H257 0.959 . S
C269 C267 1.561 . S
C270 C267 1.526 . S
C270 C271 1.396 . S
C270 C275 1.390 . S
C271 C265 1.465 . S
C271 C270 1.396 . S
C271 C272 1.399 . S
C272 H258 0.929 . S
C272 C271 1.399 . S
C272 C273 1.385 . S
C273 H259 0.931 . S
C273 C272 1.385 . S
C273 C274 1.389 . S
C274 C273 1.389 . S
C274 C275 1.387 . S
C275 H260 0.930 . S
C275 C270 1.390 . S
C275 C274 1.387 . S
H276 C288 0.930 . S
H277 C290 0.930 . S
H278 C291 0.930 . S
H279 C295 0.959 . S
H280 C295 0.959 . S
H281 C295 0.961 . S
H282 C296 0.960 . S
H283 C296 0.961 . S
H284 C296 0.959 . S
H285 C299 0.929 . S
H286 C300 0.931 . S
H287 C302 0.930 . S
C288 H276 0.930 . S
C288 C289 1.399 . S
C288 C293 1.399 . S
C289 C288 1.399 . S
C289 C290 1.376 . S
C290 H277 0.930 . S
C290 C289 1.376 . S
C290 C291 1.388 . S
C291 H278 0.930 . S
C291 C290 1.388 . S
C291 C292 1.390 . S
C292 C291 1.390 . S
C292 C293 1.394 . S
C292 C298 1.458 1_655 S
C293 C288 1.399 . S
C293 C292 1.394 . S
C293 C294 1.516 . S
C294 C293 1.516 . S
C294 C295 1.502 1_655 S
C294 C296 1.561 . S
C294 C297 1.526 1_655 S
C295 H279 0.959 . S
C295 H280 0.959 . S
C295 H281 0.961 . S
C295 C294 1.502 1_455 S
C296 H282 0.960 . S
C296 H283 0.961 . S
C296 H284 0.959 . S
C296 C294 1.561 . S
C297 C294 1.526 1_455 S
C297 C298 1.417 . S
C297 C302 1.390 . S
C298 C292 1.458 1_455 S
C298 C297 1.417 . S
C298 C299 1.389 . S
C299 H285 0.929 . S
C299 C298 1.389 . S
C299 C300 1.385 . S
C300 H286 0.931 . S
C300 C299 1.385 . S
C300 C301 1.389 . S
C301 C300 1.389 . S
C301 C302 1.387 . S
C302 H287 0.930 . S
C302 C297 1.390 . S
C302 C301 1.387 . S
H303 C315 0.930 . S
H304 C317 0.930 . S
H305 C318 0.930 . S
H306 C322 0.959 . S
H307 C322 0.959 . S
H308 C322 0.961 1_554 S
H309 C323 0.960 1_554 S
H310 C323 0.961 . S
H311 C323 0.959 . S
H312 C326 0.929 . S
H313 C327 0.931 . S
H314 C329 0.930 . S
C315 H303 0.930 . S
C315 C316 1.399 . S
C315 C320 1.399 . S
C316 C315 1.399 . S
C316 C317 1.376 1_565 S
C317 H304 0.930 . S
C317 C316 1.376 1_545 S
C317 C318 1.388 . S
C318 H305 0.930 . S
C318 C317 1.388 . S
C318 C319 1.390 . S
C319 C318 1.390 . S
C319 C320 1.394 1_545 S
C319 C325 1.465 1_554 S
C320 C315 1.399 . S
C320 C319 1.394 1_565 S
C320 C321 1.516 1_554 S
C321 C320 1.516 1_556 S
C321 C322 1.502 . S
C321 C323 1.561 . S
C321 C324 1.526 . S
C322 H306 0.959 . S
C322 H307 0.959 . S
C322 H308 0.961 1_556 S
C322 C321 1.502 . S
C323 H309 0.960 1_556 S
C323 H310 0.961 . S
C323 H311 0.959 . S
C323 C321 1.561 . S
C324 C321 1.526 . S
C324 C325 1.396 1_565 S
C324 C329 1.390 . S
C325 C319 1.465 1_556 S
C325 C324 1.396 1_545 S
C325 C326 1.399 . S
C326 H312 0.929 . S
C326 C325 1.399 . S
C326 C327 1.385 . S
C327 H313 0.931 . S
C327 C326 1.385 . S
C327 C328 1.389 . S
C328 C327 1.389 . S
C328 C329 1.387 1_545 S
C329 H314 0.930 . S
C329 C324 1.390 . S
C329 C328 1.387 1_565 S
H330 C342 0.930 . S
H331 C344 0.933 . S
H332 C345 0.930 . S
H333 C349 0.959 . S
H334 C349 0.959 . S
H335 C349 0.961 . S
H336 C350 0.960 . S
H337 C350 0.961 . S
H338 C350 0.959 . S
H339 C353 0.929 . S
H340 C354 0.931 . S
H341 C356 0.930 . S
C342 H330 0.930 . S
C342 C343 1.399 . S
C342 C347 1.399 . S
C343 C342 1.399 . S
C343 C344 1.376 . S
C344 H331 0.933 . S
C344 C343 1.376 . S
C344 C345 1.388 1_556 S
C345 H332 0.930 . S
C345 C344 1.388 1_554 S
C345 C346 1.390 . S
C346 C345 1.390 . S
C346 C347 1.394 1_554 S
C346 C352 1.465 . S
C347 C342 1.399 . S
C347 C346 1.394 1_556 S
C347 C348 1.516 . S
C348 C347 1.516 . S
C348 C349 1.502 . S
C348 C350 1.561 1_556 S
C348 C351 1.526 1_556 S
C349 H333 0.959 . S
C349 H334 0.959 . S
C349 H335 0.961 . S
C349 C348 1.502 . S
C350 H336 0.960 . S
C350 H337 0.961 . S
C350 H338 0.959 . S
C350 C348 1.561 1_554 S
C351 C348 1.526 1_554 S
C351 C352 1.396 . S
C351 C356 1.390 . S
C352 C346 1.465 . S
C352 C351 1.396 . S
C352 C353 1.399 . S
C353 H339 0.929 . S
C353 C352 1.399 . S
C353 C354 1.385 . S
C354 H340 0.931 . S
C354 C353 1.385 . S
C354 C355 1.389 . S
C355 C354 1.389 . S
C355 C356 1.387 . S
C356 H341 0.930 . S
C356 C351 1.390 . S
C356 C355 1.387 . S
H357 C369 0.930 . S
H358 C371 0.930 . S
H359 C372 0.930 . S
H360 C376 0.959 . S
H361 C376 0.959 . S
H362 C376 0.961 . S
H363 C377 0.960 . S
H364 C377 0.961 . S
H365 C377 0.959 . S
H366 C380 0.929 . S
H367 C381 0.931 . S
H368 C383 0.930 . S
C369 H357 0.930 . S
C369 C370 1.399 . S
C369 C374 1.399 . S
C370 C369 1.399 . S
C370 C371 1.376 . S
C371 H358 0.930 . S
C371 C370 1.376 . S
C371 C372 1.388 . S
C372 H359 0.930 . S
C372 C371 1.388 . S
C372 C373 1.390 . S
C373 C372 1.390 . S
C373 C374 1.394 . S
C373 C379 1.465 . S
C374 C369 1.399 . S
C374 C373 1.394 . S
C374 C375 1.516 . S
C375 C374 1.516 . S
C375 C376 1.502 . S
C375 C377 1.561 . S
C375 C378 1.526 . S
C376 H360 0.959 . S
C376 H361 0.959 . S
C376 H362 0.961 . S
C376 C375 1.502 . S
C377 H363 0.960 . S
C377 H364 0.961 . S
C377 H365 0.959 . S
C377 C375 1.561 . S
C378 C375 1.526 . S
C378 C379 1.396 . S
C378 C383 1.390 . S
C379 C373 1.465 . S
C379 C378 1.396 . S
C379 C380 1.399 . S
C380 H366 0.929 . S
C380 C379 1.399 . S
C380 C381 1.385 . S
C381 H367 0.931 . S
C381 C380 1.385 . S
C381 C382 1.389 . S
C382 C381 1.389 . S
C382 C383 1.387 . S
C383 H368 0.930 . S
C383 C378 1.390 . S
C383 C382 1.387 . S
H384 C396 0.930 . S
H385 C398 0.930 . S
H386 C399 0.930 . S
H387 C403 0.959 . S
H388 C403 0.959 . S
H389 C403 0.961 . S
H390 C404 0.960 . S
H391 C404 0.961 . S
H392 C404 0.959 . S
H393 C407 0.929 . S
H394 C408 0.931 . S
H395 C410 0.930 . S
C396 H384 0.930 . S
C396 C397 1.399 . S
C396 C401 1.399 . S
C397 C396 1.399 . S
C397 C398 1.376 . S
C398 H385 0.930 . S
C398 C397 1.376 . S
C398 C399 1.388 . S
C399 H386 0.930 . S
C399 C398 1.388 . S
C399 C400 1.390 . S
C400 C399 1.390 . S
C400 C401 1.394 . S
C400 C406 1.465 . S
C401 C396 1.399 . S
C401 C400 1.394 . S
C401 C402 1.516 . S
C402 C401 1.516 . S
C402 C403 1.502 . S
C402 C404 1.561 . S
C402 C405 1.526 . S
C403 H387 0.959 . S
C403 H388 0.959 . S
C403 H389 0.961 . S
C403 C402 1.502 . S
C404 H390 0.960 . S
C404 H391 0.961 . S
C404 H392 0.959 . S
C404 C402 1.561 . S
C405 C402 1.526 . S
C405 C406 1.396 . S
C405 C410 1.390 . S
C406 C400 1.465 . S
C406 C405 1.396 . S
C406 C407 1.399 . S
C407 H393 0.929 . S
C407 C406 1.399 . S
C407 C408 1.385 . S
C408 H394 0.931 . S
C408 C407 1.385 . S
C408 C409 1.389 . S
C409 C408 1.389 . S
C409 C410 1.387 . S
C410 H395 0.930 . S
C410 C405 1.390 . S
C410 C409 1.387 . S
H411 C423 0.930 . S
H412 C425 0.930 . S
H413 C426 0.930 . S
H414 C430 0.959 . S
H415 C430 0.959 . S
H416 C430 0.961 . S
H417 C431 0.960 . S
H418 C431 0.961 . S
H419 C431 0.959 . S
H420 C434 0.929 . S
H421 C435 0.931 . S
H422 C437 0.930 . S
C423 H411 0.930 . S
C423 C424 1.399 . S
C423 C428 1.399 . S
C424 C423 1.399 . S
C424 C425 1.376 . S
C425 H412 0.930 . S
C425 C424 1.376 . S
C425 C426 1.388 . S
C426 H413 0.930 . S
C426 C425 1.388 . S
C426 C427 1.390 . S
C427 C426 1.390 . S
C427 C428 1.394 . S
C427 C433 1.465 . S
C428 C423 1.399 . S
C428 C427 1.394 . S
C428 C429 1.516 1_554 S
C429 C428 1.516 1_556 S
C429 C430 1.502 . S
C429 C431 1.561 1_556 S
C429 C432 1.526 . S
C430 H414 0.959 . S
C430 H415 0.959 . S
C430 H416 0.961 . S
C430 C429 1.502 . S
C431 H417 0.960 . S
C431 H418 0.961 . S
C431 H419 0.959 . S
C431 C429 1.561 1_554 S
C432 C429 1.526 . S
C432 C433 1.396 1_556 S
C432 C437 1.390 . S
C433 C427 1.465 . S
C433 C432 1.396 1_554 S
C433 C434 1.399 . S
C434 H420 0.929 . S
C434 C433 1.399 . S
C434 C435 1.385 1_554 S
C435 H421 0.931 . S
C435 C434 1.385 1_556 S
C435 C436 1.389 . S
C436 C435 1.389 . S
C436 C437 1.387 . S
C437 H422 0.930 . S
C437 C432 1.390 . S
C437 C436 1.387 . S
H438 C450 0.930 . S
H439 C452 0.930 . S
H440 C453 0.930 . S
H441 C457 0.959 . S
H442 C457 0.959 . S
H443 C457 0.961 . S
H444 C458 0.960 . S
H445 C458 0.961 . S
H446 C458 0.959 . S
H447 C461 0.929 . S
H448 C462 0.931 . S
H449 C464 0.930 . S
C450 H438 0.930 . S
C450 C451 1.399 . S
C450 C455 1.399 . S
C451 C450 1.399 . S
C451 C452 1.376 . S
C452 H439 0.930 . S
C452 C451 1.376 . S
C452 C453 1.388 . S
C453 H440 0.930 . S
C453 C452 1.388 . S
C453 C454 1.390 . S
C454 C453 1.390 . S
C454 C455 1.394 . S
C454 C460 1.465 . S
C455 C450 1.399 . S
C455 C454 1.394 . S
C455 C456 1.516 . S
C456 C455 1.516 . S
C456 C457 1.502 . S
C456 C458 1.561 . S
C456 C459 1.526 . S
C457 H441 0.959 . S
C457 H442 0.959 . S
C457 H443 0.961 . S
C457 C456 1.502 . S
C458 H444 0.960 . S
C458 H445 0.961 . S
C458 H446 0.959 . S
C458 C456 1.561 . S
C459 C456 1.526 . S
C459 C460 1.396 . S
C459 C464 1.390 . S
C460 C454 1.465 . S
C460 C459 1.396 . S
C460 C461 1.399 . S
C461 H447 0.929 . S
C461 C460 1.399 . S
C461 C462 1.385 . S
C462 H448 0.931 . S
C462 C461 1.385 . S
C462 C463 1.389 . S
C463 C462 1.389 . S
C463 C464 1.387 . S
C464 H449 0.930 . S
C464 C459 1.390 . S
C464 C463 1.387 . S
H465 C477 0.930 . S
H466 C479 0.930 . S
H467 C480 0.930 . S
H468 C484 0.959 . S
H469 C484 0.959 . S
H470 C484 0.961 . S
H471 C485 0.960 . S
H472 C485 0.961 . S
H473 C485 0.959 . S
H474 C488 0.929 . S
H475 C489 0.931 . S
H476 C491 0.930 . S
C477 H465 0.930 . S
C477 C478 1.399 . S
C477 C482 1.399 . S
C478 C477 1.399 . S
C478 C479 1.376 . S
C479 H466 0.930 . S
C479 C478 1.376 . S
C479 C480 1.388 . S
C480 H467 0.930 . S
C480 C479 1.388 . S
C480 C481 1.390 . S
C481 C480 1.390 . S
C481 C482 1.394 . S
C481 C487 1.465 . S
C482 C477 1.399 . S
C482 C481 1.394 . S
C482 C483 1.516 . S
C483 C482 1.516 . S
C483 C484 1.502 . S
C483 C485 1.561 . S
C483 C486 1.526 . S
C484 H468 0.959 . S
C484 H469 0.959 . S
C484 H470 0.961 . S
C484 C483 1.502 . S
C485 H471 0.960 . S
C485 H472 0.961 . S
C485 H473 0.959 . S
C485 C483 1.561 . S
C486 C483 1.526 . S
C486 C487 1.396 . S
C486 C491 1.390 . S
C487 C481 1.465 . S
C487 C486 1.396 . S
C487 C488 1.399 . S
C488 H474 0.929 . S
C488 C487 1.399 . S
C488 C489 1.385 . S
C489 H475 0.931 . S
C489 C488 1.385 . S
C489 C490 1.389 . S
C490 C489 1.389 . S
C490 C491 1.387 . S
C491 H476 0.930 . S
C491 C486 1.390 . S
C491 C490 1.387 . S
H492 C504 0.930 . S
H493 C506 0.930 . S
H494 C507 0.930 . S
H495 C511 0.959 . S
H496 C511 0.959 . S
H497 C511 0.961 . S
H498 C512 0.960 . S
H499 C512 0.961 . S
H500 C512 0.959 . S
H501 C515 0.929 . S
H502 C516 0.931 . S
H503 C518 0.930 . S
C504 H492 0.930 . S
C504 C505 1.399 . S
C504 C509 1.399 . S
C505 C504 1.399 . S
C505 C506 1.376 . S
C506 H493 0.930 . S
C506 C505 1.376 . S
C506 C507 1.388 . S
C507 H494 0.930 . S
C507 C506 1.388 . S
C507 C508 1.390 . S
C508 C507 1.390 . S
C508 C509 1.394 . S
C508 C514 1.465 . S
C509 C504 1.399 . S
C509 C508 1.394 . S
C509 C510 1.516 . S
C510 C509 1.516 . S
C510 C511 1.502 . S
C510 C512 1.561 . S
C510 C513 1.526 . S
C511 H495 0.959 . S
C511 H496 0.959 . S
C511 H497 0.961 . S
C511 C510 1.502 . S
C512 H498 0.960 . S
C512 H499 0.961 . S
C512 H500 0.959 . S
C512 C510 1.561 . S
C513 C510 1.526 . S
C513 C514 1.396 . S
C513 C518 1.390 . S
C514 C508 1.465 . S
C514 C513 1.396 . S
C514 C515 1.399 . S
C515 H501 0.929 . S
C515 C514 1.399 . S
C515 C516 1.385 . S
C516 H502 0.931 . S
C516 C515 1.385 . S
C516 C517 1.389 . S
C517 C516 1.389 . S
C517 C518 1.387 . S
C518 H503 0.930 . S
C518 C513 1.390 . S
C518 C517 1.387 . S
H519 C531 0.930 . S
H520 C533 0.930 . S
H521 C534 0.930 . S
H522 C538 0.959 . S
H523 C538 0.959 . S
H524 C538 0.961 . S
H525 C539 0.960 . S
H526 C539 0.961 . S
H527 C539 0.959 . S
H528 C542 0.929 . S
H529 C543 0.931 . S
H530 C545 0.930 . S
C531 H519 0.930 . S
C531 C532 1.399 . S
C531 C536 1.399 . S
C532 C531 1.399 . S
C532 C533 1.376 . S
C533 H520 0.930 . S
C533 C532 1.376 . S
C533 C534 1.388 . S
C534 H521 0.930 . S
C534 C533 1.388 . S
C534 C535 1.390 . S
C535 C534 1.390 . S
C535 C536 1.394 . S
C535 C541 1.465 1_655 S
C536 C531 1.399 . S
C536 C535 1.394 . S
C536 C537 1.516 . S
C537 C536 1.516 . S
C537 C538 1.502 1_655 S
C537 C539 1.561 . S
C537 C540 1.526 1_655 S
C538 H522 0.959 . S
C538 H523 0.959 . S
C538 H524 0.961 . S
C538 C537 1.502 1_455 S
C539 H525 0.960 . S
C539 H526 0.961 . S
C539 H527 0.959 . S
C539 C537 1.561 . S
C540 C537 1.526 1_455 S
C540 C541 1.396 . S
C540 C545 1.390 . S
C541 C535 1.465 1_455 S
C541 C540 1.396 . S
C541 C542 1.399 . S
C542 H528 0.929 . S
C542 C541 1.399 . S
C542 C543 1.385 . S
C543 H529 0.931 . S
C543 C542 1.385 . S
C543 C544 1.389 . S
C544 C543 1.389 . S
C544 C545 1.387 . S
C545 H530 0.930 . S
C545 C540 1.390 . S
C545 C544 1.387 . S
H546 C558 0.930 . S
H547 C560 0.930 . S
H548 C561 0.930 . S
H549 C565 0.959 . S
H550 C565 0.959 . S
H551 C565 0.961 . S
H552 C566 0.960 . S
H553 C566 0.961 . S
H554 C566 0.959 . S
H555 C569 0.929 . S
H556 C570 0.931 . S
H557 C572 0.930 . S
C558 H546 0.930 . S
C558 C559 1.399 1_545 S
C558 C563 1.399 . S
C559 C558 1.399 1_565 S
C559 C560 1.376 . S
C560 H547 0.930 . S
C560 C559 1.376 . S
C560 C561 1.388 . S
C561 H548 0.930 . S
C561 C560 1.388 . S
C561 C562 1.390 . S
C562 C561 1.390 . S
C562 C563 1.394 1_565 S
C562 C568 1.465 . S
C563 C558 1.399 . S
C563 C562 1.394 1_545 S
C563 C564 1.516 . S
C564 C563 1.516 . S
C564 C565 1.502 . S
C564 C566 1.561 . S
C564 C567 1.526 . S
C565 H549 0.959 . S
C565 H550 0.959 . S
C565 H551 0.961 . S
C565 C564 1.502 . S
C566 H552 0.960 . S
C566 H553 0.961 . S
C566 H554 0.959 . S
C566 C564 1.561 . S
C567 C564 1.526 . S
C567 C568 1.396 1_545 S
C567 C572 1.390 . S
C568 C562 1.465 . S
C568 C567 1.396 1_565 S
C568 C569 1.399 . S
C569 H555 0.929 . S
C569 C568 1.399 . S
C569 C570 1.385 . S
C570 H556 0.931 . S
C570 C569 1.385 . S
C570 C571 1.389 1_565 S
C571 C570 1.389 1_545 S
C571 C572 1.387 . S
C572 H557 0.930 . S
C572 C567 1.390 . S
C572 C571 1.387 . S
H573 C585 0.930 . S
H574 C587 0.930 . S
H575 C588 0.930 . S
H576 C592 0.959 . S
H577 C592 0.959 . S
H578 C592 0.961 . S
H579 C593 0.960 . S
H580 C593 0.961 . S
H581 C593 0.959 . S
H582 C596 0.929 . S
H583 C597 0.931 . S
H584 C599 0.930 . S
C585 H573 0.930 . S
C585 C586 1.399 . S
C585 C590 1.399 . S
C586 C585 1.399 . S
C586 C587 1.376 . S
C587 H574 0.930 . S
C587 C586 1.376 . S
C587 C588 1.388 . S
C588 H575 0.930 . S
C588 C587 1.388 . S
C588 C589 1.390 . S
C589 C588 1.390 . S
C589 C590 1.394 . S
C589 C595 1.465 . S
C590 C585 1.399 . S
C590 C589 1.394 . S
C590 C591 1.516 . S
C591 C590 1.516 . S
C591 C592 1.502 . S
C591 C593 1.561 . S
C591 C594 1.526 . S
C592 H576 0.959 . S
C592 H577 0.959 . S
C592 H578 0.961 . S
C592 C591 1.502 . S
C593 H579 0.960 . S
C593 H580 0.961 . S
C593 H581 0.959 . S
C593 C591 1.561 . S
C594 C591 1.526 . S
C594 C595 1.396 . S
C594 C599 1.390 . S
C595 C589 1.465 . S
C595 C594 1.396 . S
C595 C596 1.399 . S
C596 H582 0.929 . S
C596 C595 1.399 . S
C596 C597 1.385 . S
C597 H583 0.931 . S
C597 C596 1.385 . S
C597 C598 1.389 . S
C598 C597 1.389 . S
C598 C599 1.387 . S
C599 H584 0.930 . S
C599 C594 1.390 . S
C599 C598 1.387 . S
H600 C612 0.930 . S
H601 C614 0.940 . S
H602 C615 0.930 . S
H603 C619 0.959 . S
H604 C619 0.959 . S
H605 C619 0.961 . S
H606 C620 0.960 . S
H607 C620 0.961 . S
H608 C620 0.959 . S
H609 C623 0.929 . S
H610 C624 0.931 . S
H611 C626 0.901 1_455 S
C612 H600 0.930 . S
C612 C613 1.399 . S
C612 C617 1.399 . S
C613 C612 1.399 . S
C613 C614 1.359 1_455 S
C614 H601 0.940 . S
C614 C613 1.359 1_655 S
C614 C615 1.396 . S
C615 H602 0.930 . S
C615 C614 1.396 . S
C615 C616 1.390 . S
C616 C615 1.390 . S
C616 C617 1.394 1_655 S
C616 C622 1.465 . S
C617 C612 1.399 . S
C617 C616 1.394 1_455 S
C617 C618 1.516 . S
C618 C617 1.516 . S
C618 C619 1.502 . S
C618 C620 1.561 1_455 S
C618 C621 1.526 1_455 S
C619 H603 0.959 . S
C619 H604 0.959 . S
C619 H605 0.961 . S
C619 C618 1.502 . S
C620 H606 0.960 . S
C620 H607 0.961 . S
C620 H608 0.959 . S
C620 C618 1.561 1_655 S
C621 C618 1.526 1_655 S
C621 C622 1.396 . S
C621 C626 1.390 . S
C622 C616 1.465 . S
C622 C621 1.396 . S
C622 C623 1.399 . S
C623 H609 0.929 . S
C623 C622 1.399 . S
C623 C624 1.385 . S
C624 H610 0.931 . S
C624 C623 1.385 . S
C624 C625 1.389 . S
C625 C624 1.389 . S
C625 C626 1.387 . S
C626 H611 0.901 1_655 S
C626 C621 1.390 . S
C626 C625 1.387 . S
H627 C639 0.930 . S
H628 C641 0.930 . S
H629 C642 0.930 . S
H630 C646 0.959 . S
H631 C646 0.959 . S
H632 C646 0.961 . S
H633 C647 0.960 . S
H634 C647 0.961 . S
H635 C647 0.959 . S
H636 C650 0.929 . S
H637 C651 0.931 . S
H638 C653 0.930 . S
C639 H627 0.930 . S
C639 C640 1.399 . S
C639 C644 1.399 . S
C640 C639 1.399 . S
C640 C641 1.376 1_565 S
C641 H628 0.930 . S
C641 C640 1.376 1_545 S
C641 C642 1.388 . S
C642 H629 0.930 . S
C642 C641 1.388 . S
C642 C643 1.390 . S
C643 C642 1.390 . S
C643 C644 1.394 1_545 S
C643 C649 1.465 . S
C644 C639 1.399 . S
C644 C643 1.394 1_565 S
C644 C645 1.516 . S
C645 C644 1.516 . S
C645 C646 1.502 . S
C645 C647 1.561 . S
C645 C648 1.526 . S
C646 H630 0.959 . S
C646 H631 0.959 . S
C646 H632 0.961 . S
C646 C645 1.502 . S
C647 H633 0.960 . S
C647 H634 0.961 . S
C647 H635 0.959 . S
C647 C645 1.561 . S
C648 C645 1.526 . S
C648 C649 1.396 1_565 S
C648 C653 1.390 . S
C649 C643 1.465 . S
C649 C648 1.396 1_545 S
C649 C650 1.399 . S
C650 H636 0.929 . S
C650 C649 1.399 . S
C650 C651 1.385 . S
C651 H637 0.931 . S
C651 C650 1.385 . S
C651 C652 1.389 . S
C652 C651 1.389 . S
C652 C653 1.387 1_545 S
C653 H638 0.930 . S
C653 C648 1.390 . S
C653 C652 1.387 1_565 S
H654 C666 0.930 . S
H655 C668 0.930 . S
H656 C669 0.930 . S
H657 C673 0.959 . S
H658 C673 0.959 . S
H659 C673 0.961 . S
H660 C674 0.960 . S
H661 C674 0.961 . S
H662 C674 0.959 . S
H663 C677 0.929 . S
H664 C678 0.931 . S
H665 C680 0.930 . S
C666 H654 0.930 . S
C666 C667 1.399 . S
C666 C671 1.399 . S
C667 C666 1.399 . S
C667 C668 1.376 . S
C668 H655 0.930 . S
C668 C667 1.376 . S
C668 C669 1.388 . S
C669 H656 0.930 . S
C669 C668 1.388 . S
C669 C670 1.390 . S
C670 C669 1.390 . S
C670 C671 1.394 . S
C670 C676 1.465 . S
C671 C666 1.399 . S
C671 C670 1.394 . S
C671 C672 1.516 . S
C672 C671 1.516 . S
C672 C673 1.502 . S
C672 C674 1.561 . S
C672 C675 1.526 . S
C673 H657 0.959 . S
C673 H658 0.959 . S
C673 H659 0.961 . S
C673 C672 1.502 . S
C674 H660 0.960 . S
C674 H661 0.961 . S
C674 H662 0.959 . S
C674 C672 1.561 . S
C675 C672 1.526 . S
C675 C676 1.396 . S
C675 C680 1.390 . S
C676 C670 1.465 . S
C676 C675 1.396 . S
C676 C677 1.399 . S
C677 H663 0.929 . S
C677 C676 1.399 . S
C677 C678 1.385 . S
C678 H664 0.931 . S
C678 C677 1.385 . S
C678 C679 1.389 . S
C679 C678 1.389 . S
C679 C680 1.387 . S
C680 H665 0.930 . S
C680 C675 1.390 . S
C680 C679 1.387 . S
H681 C693 0.947 . S
H682 C695 0.930 . S
H683 C696 0.930 . S
H684 C700 0.959 . S
H685 C700 0.959 . S
H686 C700 0.961 . S
H687 C701 0.960 . S
H688 C701 0.961 . S
H689 C701 0.959 . S
H690 C704 0.929 . S
H691 C705 0.931 . S
H692 C707 0.930 . S
C693 H681 0.947 . S
C693 C694 1.390 1_655 S
C693 C698 1.391 . S
C694 C693 1.390 1_455 S
C694 C695 1.376 . S
C695 H682 0.930 . S
C695 C694 1.376 . S
C695 C696 1.388 . S
C696 H683 0.930 . S
C696 C695 1.388 . S
C696 C697 1.390 . S
C697 C696 1.390 . S
C697 C698 1.394 1_455 S
C697 C703 1.465 . S
C698 C693 1.391 . S
C698 C697 1.394 1_655 S
C698 C699 1.516 . S
C699 C698 1.516 . S
C699 C700 1.502 . S
C699 C701 1.561 . S
C699 C702 1.526 . S
C700 H684 0.959 . S
C700 H685 0.959 . S
C700 H686 0.961 . S
C700 C699 1.502 . S
C701 H687 0.960 . S
C701 H688 0.961 . S
C701 H689 0.959 . S
C701 C699 1.561 . S
C702 C699 1.526 . S
C702 C703 1.396 1_655 S
C702 C707 1.390 . S
C703 C697 1.465 . S
C703 C702 1.396 1_455 S
C703 C704 1.399 . S
C704 H690 0.929 . S
C704 C703 1.399 . S
C704 C705 1.385 . S
C705 H691 0.931 . S
C705 C704 1.385 . S
C705 C706 1.389 1_455 S
C706 C705 1.389 1_655 S
C706 C707 1.387 . S
C707 H692 0.930 . S
C707 C702 1.390 . S
C707 C706 1.387 . S
H708 C720 0.930 1_545 S
H709 C722 0.930 . S
H710 C723 0.930 . S
H711 C727 0.959 . S
H712 C727 0.959 . S
H713 C727 0.961 . S
H714 C728 0.960 . S
H715 C728 0.961 1_545 S
H716 C728 0.959 . S
H717 C731 0.929 . S
H718 C732 0.931 1_565 S
H719 C734 0.930 . S
C720 H708 0.930 1_565 S
C720 C721 1.399 . S
C720 C725 1.399 . S
C721 C720 1.399 . S
C721 C722 1.376 . S
C722 H709 0.930 . S
C722 C721 1.376 . S
C722 C723 1.388 . S
C723 H710 0.930 . S
C723 C722 1.388 . S
C723 C724 1.390 . S
C724 C723 1.390 . S
C724 C725 1.394 . S
C724 C730 1.465 . S
C725 C720 1.399 . S
C725 C724 1.394 . S
C725 C726 1.516 1_565 S
C726 C725 1.516 1_545 S
C726 C727 1.502 . S
C726 C728 1.561 1_545 S
C726 C729 1.526 . S
C727 H711 0.959 . S
C727 H712 0.959 . S
C727 H713 0.961 . S
C727 C726 1.502 . S
C728 H714 0.960 . S
C728 H715 0.961 1_565 S
C728 H716 0.959 . S
C728 C726 1.561 1_565 S
C729 C726 1.526 . S
C729 C730 1.396 1_545 S
C729 C734 1.390 . S
C730 C724 1.465 . S
C730 C729 1.396 1_565 S
C730 C731 1.399 . S
C731 H717 0.929 . S
C731 C730 1.399 . S
C731 C732 1.385 1_565 S
C732 H718 0.931 1_545 S
C732 C731 1.385 1_545 S
C732 C733 1.389 . S
C733 C732 1.389 . S
C733 C734 1.387 . S
C734 H719 0.930 . S
C734 C729 1.390 . S
C734 C733 1.387 . S
H735 C747 0.930 . S
H736 C749 0.930 . S
H737 C750 0.930 . S
H738 C754 0.959 . S
H739 C754 0.959 . S
H740 C754 0.961 . S
H741 C755 0.960 . S
H742 C755 0.961 . S
H743 C755 0.959 . S
H744 C758 0.929 . S
H745 C759 0.931 . S
H746 C761 0.930 . S
C747 H735 0.930 . S
C747 C748 1.399 . S
C747 C752 1.399 . S
C748 C747 1.399 . S
C748 C749 1.376 . S
C749 H736 0.930 . S
C749 C748 1.376 . S
C749 C750 1.388 . S
C750 H737 0.930 . S
C750 C749 1.388 . S
C750 C751 1.390 . S
C751 C750 1.390 . S
C751 C752 1.394 . S
C751 C757 1.465 . S
C752 C747 1.399 . S
C752 C751 1.394 . S
C752 C753 1.516 . S
C753 C752 1.516 . S
C753 C754 1.502 . S
C753 C755 1.561 . S
C753 C756 1.526 . S
C754 H738 0.959 . S
C754 H739 0.959 . S
C754 H740 0.961 . S
C754 C753 1.502 . S
C755 H741 0.960 . S
C755 H742 0.961 . S
C755 H743 0.959 . S
C755 C753 1.561 . S
C756 C753 1.526 . S
C756 C757 1.396 . S
C756 C761 1.390 . S
C757 C751 1.465 . S
C757 C756 1.396 . S
C757 C758 1.399 . S
C758 H744 0.929 . S
C758 C757 1.399 . S
C758 C759 1.385 . S
C759 H745 0.931 . S
C759 C758 1.385 . S
C759 C760 1.389 . S
C760 C759 1.389 . S
C760 C761 1.387 . S
C761 H746 0.930 . S
C761 C756 1.390 . S
C761 C760 1.387 . S
H762 C774 0.930 . S
H763 C776 0.913 1_554 S
H764 C777 0.930 1_554 S
H765 C781 0.959 . S
H766 C781 0.959 . S
H767 C781 0.961 . S
H768 C782 0.960 1_655 S
H769 C782 0.971 1_655 S
H770 C782 0.959 . S
H771 C785 0.929 1_554 S
H772 C786 0.931 1_554 S
H773 C788 0.930 1_655 S
C774 H762 0.930 . S
C774 C775 1.399 . S
C774 C779 1.399 . S
C775 C774 1.399 . S
C775 C776 1.369 1_655 S
C776 H763 0.913 1_556 S
C776 C775 1.369 1_455 S
C776 C777 1.398 . S
C777 H764 0.930 1_556 S
C777 C776 1.398 . S
C777 C778 1.390 . S
C778 C777 1.390 . S
C778 C779 1.394 1_455 S
C778 C784 1.465 . S
C779 C774 1.399 . S
C779 C778 1.394 1_655 S
C779 C780 1.516 . S
C780 C779 1.516 . S
C780 C781 1.502 . S
C780 C782 1.561 1_655 S
C780 C783 1.526 1_655 S
C781 H765 0.959 . S
C781 H766 0.959 . S
C781 H767 0.961 . S
C781 C780 1.502 . S
C782 H768 0.960 1_455 S
C782 H769 0.971 1_455 S
C782 H770 0.959 . S
C782 C780 1.561 1_455 S
C783 C780 1.526 1_455 S
C783 C784 1.396 . S
C783 C788 1.390 . S
C784 C778 1.465 . S
C784 C783 1.396 . S
C784 C785 1.399 . S
C785 H771 0.929 1_556 S
C785 C784 1.399 . S
C785 C786 1.385 . S
C786 H772 0.931 1_556 S
C786 C785 1.385 . S
C786 C787 1.389 . S
C787 C786 1.389 . S
C787 C788 1.387 . S
C788 H773 0.930 1_455 S
C788 C783 1.390 . S
C788 C787 1.387 . S
H789 C801 0.930 . S
H790 C803 0.930 . S
H791 C804 0.930 . S
H792 C808 0.959 . S
H793 C808 0.959 . S
H794 C808 0.961 . S
H795 C809 0.960 . S
H796 C809 0.961 . S
H797 C809 0.959 . S
H798 C812 0.929 1_545 S
H799 C813 0.931 . S
H800 C815 0.930 . S
C801 H789 0.930 . S
C801 C802 1.399 . S
C801 C806 1.399 . S
C802 C801 1.399 . S
C802 C803 1.376 . S
C803 H790 0.930 . S
C803 C802 1.376 . S
C803 C804 1.388 . S
C804 H791 0.930 . S
C804 C803 1.388 . S
C804 C805 1.390 . S
C805 C804 1.390 . S
C805 C806 1.394 . S
C805 C811 1.461 . S
C806 C801 1.399 . S
C806 C805 1.394 . S
C806 C807 1.516 1_545 S
C807 C806 1.516 1_565 S
C807 C808 1.502 . S
C807 C809 1.561 1_565 S
C807 C810 1.526 . S
C808 H792 0.959 . S
C808 H793 0.959 . S
C808 H794 0.961 . S
C808 C807 1.502 . S
C809 H795 0.960 . S
C809 H796 0.961 . S
C809 H797 0.959 . S
C809 C807 1.561 1_545 S
C810 C807 1.526 . S
C810 C811 1.395 1_565 S
C810 C815 1.390 . S
C811 C805 1.461 . S
C811 C810 1.395 1_545 S
C811 C812 1.404 1_545 S
C812 H798 0.929 1_565 S
C812 C811 1.404 1_565 S
C812 C813 1.385 . S
C813 H799 0.931 . S
C813 C812 1.385 . S
C813 C814 1.389 . S
C814 C813 1.389 . S
C814 C815 1.387 . S
C815 H800 0.930 . S
C815 C810 1.390 . S
C815 C814 1.387 . S
C181 C7 1.464 . S
C193 C133 1.459 . S
C208 C21 1.468 . S
C220 C147 1.433 . S
C235 C35 1.457 . S
C247 C161 1.427 . S
C262 C49 1.469 . S
C274 C91 1.449 . S
C289 C105 1.465 . S
C301 C63 1.456 . S
C316 C119 1.433 . S
C328 C77 1.468 . S
C343 C146 1.485 . S
C355 C6 1.508 . S
C370 C20 1.508 . S
C382 C160 1.486 . S
C397 C34 1.509 . S
C409 C90 1.478 . S
C424 C48 1.472 . S
C436 C104 1.449 . S
C451 C62 1.472 . S
C463 C118 1.449 . S
C478 C76 1.509 . S
C490 C132 1.483 . S
C505 C134 1.135 . S
C517 C8 1.152 . S
C532 C22 1.134 . S
C544 C148 1.155 . S
C559 C36 1.156 . S
C571 C162 1.211 . S
C586 C92 1.196 . S
C598 C50 1.183 . S
C613 C64 1.212 . S
C625 C106 1.156 . S
C640 C120 1.207 . S
C652 C78 1.120 . S
C667 C9 1.467 . S
C679 C51 1.516 . S
C694 C65 1.512 . S
C706 C23 1.465 . S
C721 C37 1.503 . S
C733 C79 1.466 . S
C748 C93 1.498 . S
C760 C135 1.468 . S
C775 C107 1.480 . S
C787 C149 1.517 . S
C802 C163 1.492 . S
C814 C121 1.472 . S
