# Generated by pormake.
# Topology pcb, (4)-cn, num edge types: 1
# Building blocks:
#     Node 0, Type 0, BuildingBlock: QUQFOY_clean_sbu_1, # of connection points: 4
#     Node 1, Type 0, BuildingBlock: QUQFOY_clean_sbu_1, # of connection points: 4
#     Node 2, Type 0, BuildingBlock: QUQFOY_clean_sbu_1, # of connection points: 4
#     Node 3, Type 0, BuildingBlock: QUQFOY_clean_sbu_1, # of connection points: 4
#     Node 4, Type 0, BuildingBlock: QUQFOY_clean_sbu_1, # of connection points: 4
#     Node 5, Type 0, BuildingBlock: QUQFOY_clean_sbu_1, # of connection points: 4
#     Node 6, Type 0, BuildingBlock: QUQFOY_clean_sbu_1, # of connection points: 4
#     Node 7, Type 0, BuildingBlock: QUQFOY_clean_sbu_1, # of connection points: 4
#     Node 8, Type 0, BuildingBlock: QUQFOY_clean_sbu_1, # of connection points: 4
#     Node 9, Type 0, BuildingBlock: QUQFOY_clean_sbu_1, # of connection points: 4
#     Node 10, Type 0, BuildingBlock: QUQFOY_clean_sbu_1, # of connection points: 4
#     Node 11, Type 0, BuildingBlock: QUQFOY_clean_sbu_1, # of connection points: 4
#     Node 12, Type 0, BuildingBlock: QUQFOY_clean_sbu_1, # of connection points: 4
#     Node 13, Type 0, BuildingBlock: QUQFOY_clean_sbu_1, # of connection points: 4
#     Node 14, Type 0, BuildingBlock: QUQFOY_clean_sbu_1, # of connection points: 4
#     Node 15, Type 0, BuildingBlock: QUQFOY_clean_sbu_1, # of connection points: 4
#     Edge 16, Type (0, 0), BuildingBlock: KIFKEQ_clean_linker_1, # of connection points: 2
#     Edge 17, Type (0, 0), BuildingBlock: KIFKEQ_clean_linker_1, # of connection points: 2
#     Edge 18, Type (0, 0), BuildingBlock: KIFKEQ_clean_linker_1, # of connection points: 2
#     Edge 19, Type (0, 0), BuildingBlock: KIFKEQ_clean_linker_1, # of connection points: 2
#     Edge 20, Type (0, 0), BuildingBlock: KIFKEQ_clean_linker_1, # of connection points: 2
#     Edge 21, Type (0, 0), BuildingBlock: KIFKEQ_clean_linker_1, # of connection points: 2
#     Edge 22, Type (0, 0), BuildingBlock: KIFKEQ_clean_linker_1, # of connection points: 2
#     Edge 23, Type (0, 0), BuildingBlock: KIFKEQ_clean_linker_1, # of connection points: 2
#     Edge 24, Type (0, 0), BuildingBlock: KIFKEQ_clean_linker_1, # of connection points: 2
#     Edge 25, Type (0, 0), BuildingBlock: KIFKEQ_clean_linker_1, # of connection points: 2
#     Edge 26, Type (0, 0), BuildingBlock: KIFKEQ_clean_linker_1, # of connection points: 2
#     Edge 27, Type (0, 0), BuildingBlock: KIFKEQ_clean_linker_1, # of connection points: 2
#     Edge 28, Type (0, 0), BuildingBlock: KIFKEQ_clean_linker_1, # of connection points: 2
#     Edge 29, Type (0, 0), BuildingBlock: KIFKEQ_clean_linker_1, # of connection points: 2
#     Edge 30, Type (0, 0), BuildingBlock: KIFKEQ_clean_linker_1, # of connection points: 2
#     Edge 31, Type (0, 0), BuildingBlock: KIFKEQ_clean_linker_1, # of connection points: 2
#     Edge 32, Type (0, 0), BuildingBlock: KIFKEQ_clean_linker_1, # of connection points: 2
#     Edge 33, Type (0, 0), BuildingBlock: KIFKEQ_clean_linker_1, # of connection points: 2
#     Edge 34, Type (0, 0), BuildingBlock: KIFKEQ_clean_linker_1, # of connection points: 2
#     Edge 35, Type (0, 0), BuildingBlock: KIFKEQ_clean_linker_1, # of connection points: 2
#     Edge 36, Type (0, 0), BuildingBlock: KIFKEQ_clean_linker_1, # of connection points: 2
#     Edge 37, Type (0, 0), BuildingBlock: KIFKEQ_clean_linker_1, # of connection points: 2
#     Edge 38, Type (0, 0), BuildingBlock: KIFKEQ_clean_linker_1, # of connection points: 2
#     Edge 39, Type (0, 0), BuildingBlock: KIFKEQ_clean_linker_1, # of connection points: 2
#     Edge 40, Type (0, 0), BuildingBlock: KIFKEQ_clean_linker_1, # of connection points: 2
#     Edge 41, Type (0, 0), BuildingBlock: KIFKEQ_clean_linker_1, # of connection points: 2
#     Edge 42, Type (0, 0), BuildingBlock: KIFKEQ_clean_linker_1, # of connection points: 2
#     Edge 43, Type (0, 0), BuildingBlock: KIFKEQ_clean_linker_1, # of connection points: 2
#     Edge 44, Type (0, 0), BuildingBlock: KIFKEQ_clean_linker_1, # of connection points: 2
#     Edge 45, Type (0, 0), BuildingBlock: KIFKEQ_clean_linker_1, # of connection points: 2
#     Edge 46, Type (0, 0), BuildingBlock: KIFKEQ_clean_linker_1, # of connection points: 2
#     Edge 47, Type (0, 0), BuildingBlock: KIFKEQ_clean_linker_1, # of connection points: 2
# Relax obj value: 0.297
# Max RMSD: 0.246
# Mean RMSD: 0.192
data_MOF--net-pcb--node1-QUQFOY_clean_sbu_1--edge1-KIFKEQ_clean_linker_1
_symmetry_space_group_name_H-M    P1
_symmetry_Int_Tables_number       1
_symmetry_cell_setting            triclinic
loop_
_symmetry_equiv_pos_as_xyz
'x, y, z'
_cell_length_a     46.373238
_cell_length_b     49.683799
_cell_length_c     50.02837
_cell_angle_alpha  94.560789
_cell_angle_beta   93.658221
_cell_angle_gamma 97.41959
loop_
_atom_site_label
_atom_site_type_symbol
_atom_site_fract_x
_atom_site_fract_y
_atom_site_fract_z
_atom_type_partial_charge
O0 O 0.10195 0.15601 0.15366 0.0
Cd1 Cd 0.14471 0.15084 0.16314 0.0
Cd2 Cd 0.13523 0.12599 0.10657 0.0
O3 O 0.09375 0.13387 0.11326 0.0
O4 O 0.15019 0.1671 0.20078 0.0
O5 O 0.17597 0.1835 0.16866 0.0
C6 C 0.17048 0.18467 0.19367 0.0
C7 C 0.14674 0.12837 0.06212 0.0
C8 C 0.08489 0.14721 0.13308 0.0
C9 C 0.16006 0.09403 0.14988 0.0
O10 O 0.15301 0.0962 0.12532 0.0
O11 O 0.15732 0.11293 0.16777 0.0
O12 O 0.12966 0.10823 0.06942 0.0
O13 O 0.15755 0.14764 0.0802 0.0
O14 O 0.80675 0.13119 0.16466 0.0
Cd15 Cd 0.81927 0.17135 0.15875 0.0
Cd16 Cd 0.81173 0.15109 0.10588 0.0
O17 O 0.79197 0.11723 0.12251 0.0
O18 O 0.81714 0.19147 0.19433 0.0
O19 O 0.78925 0.19724 0.15821 0.0
C20 C 0.79667 0.20318 0.18354 0.0
C21 C 0.79376 0.16177 0.06376 0.0
C22 C 0.79502 0.11248 0.14707 0.0
C23 C 0.87296 0.17123 0.12976 0.0
O24 O 0.8567 0.15779 0.11054 0.0
O25 O 0.86198 0.18078 0.15048 0.0
O26 O 0.80436 0.13944 0.06678 0.0
O27 O 0.79206 0.17791 0.08496 0.0
O28 O 0.89022 0.87623 0.20904 0.0
Cd29 Cd 0.84601 0.87802 0.20577 0.0
Cd30 Cd 0.84871 0.87196 0.15216 0.0
O31 O 0.8909 0.86822 0.16517 0.0
O32 O 0.82719 0.86131 0.23601 0.0
O33 O 0.8215 0.84266 0.19379 0.0
C34 C 0.81603 0.8414 0.2187 0.0
C35 C 0.83161 0.84447 0.11312 0.0
C36 C 0.90394 0.87093 0.18851 0.0
C37 C 0.82737 0.92302 0.17599 0.0
O38 O 0.83416 0.90945 0.15527 0.0
O39 O 0.83019 0.91409 0.19899 0.0
O40 O 0.85149 0.86502 0.113 0.0
O41 O 0.82076 0.83929 0.13554 0.0
O42 O 0.19599 0.8987 0.21053 0.0
Cd43 Cd 0.17736 0.85947 0.21357 0.0
Cd44 Cd 0.16761 0.85421 0.15938 0.0
O45 O 0.18474 0.89485 0.16671 0.0
O46 O 0.19433 0.84283 0.24455 0.0
O47 O 0.19705 0.82769 0.20186 0.0
C48 C 0.2024 0.82514 0.22718 0.0
C49 C 0.17954 0.83508 0.11772 0.0
C50 C 0.19532 0.90911 0.18817 0.0
C51 C 0.11566 0.84641 0.19327 0.0
O52 O 0.1255 0.84305 0.17024 0.0
O53 O 0.13297 0.85415 0.2139 0.0
O54 O 0.15983 0.85094 0.11952 0.0
O55 O 0.19238 0.82922 0.13972 0.0
O56 O 0.19555 0.81424 0.90813 0.0
Cd57 Cd 0.18178 0.81992 0.86907 0.0
Cd58 Cd 0.18818 0.87146 0.88804 0.0
O59 O 0.20927 0.85775 0.92097 0.0
O60 O 0.18835 0.78813 0.84439 0.0
O61 O 0.21081 0.82999 0.84238 0.0
C62 C 0.20636 0.80474 0.83291 0.0
C63 C 0.20672 0.90841 0.86541 0.0
C64 C 0.207 0.83288 0.926 0.0
C65 C 0.12723 0.84484 0.87289 0.0
O66 O 0.14321 0.86493 0.88593 0.0
O67 O 0.13867 0.82507 0.86233 0.0
O68 O 0.19866 0.91181 0.88952 0.0
O69 O 0.2061 0.88378 0.85479 0.0
O70 O 0.10942 0.16171 0.79904 0.0
Cd71 Cd 0.15238 0.16163 0.81257 0.0
Cd72 Cd 0.13356 0.10748 0.80629 0.0
O73 O 0.09856 0.11843 0.78424 0.0
O74 O 0.16735 0.20096 0.8147 0.0
O75 O 0.18464 0.17025 0.78805 0.0
C76 C 0.18521 0.19541 0.79706 0.0
C77 C 0.15728 0.07046 0.79365 0.0
C78 C 0.09164 0.14237 0.78684 0.0
C79 C 0.14851 0.13285 0.86214 0.0
O80 O 0.13332 0.11344 0.84746 0.0
O81 O 0.16109 0.15316 0.8516 0.0
O82 O 0.13046 0.06725 0.79949 0.0
O83 O 0.17018 0.09503 0.79291 0.0
O84 O 0.86098 0.13566 0.77752 0.0
Cd85 Cd 0.8177 0.12666 0.78365 0.0
Cd86 Cd 0.83517 0.14036 0.83591 0.0
O87 O 0.87364 0.15373 0.81895 0.0
O88 O 0.79377 0.13843 0.75349 0.0
O89 O 0.79666 0.15737 0.79553 0.0
C90 C 0.78692 0.15696 0.77068 0.0
C91 C 0.82304 0.16396 0.87523 0.0
C92 C 0.8802 0.14799 0.79503 0.0
C93 C 0.81035 0.0812 0.81718 0.0
O94 O 0.823 0.09877 0.8355 0.0
O95 O 0.80436 0.08798 0.79372 0.0
O96 O 0.84559 0.15137 0.87492 0.0
O97 O 0.80776 0.16432 0.85282 0.0
O98 O 0.89304 0.80836 0.86754 0.0
Cd99 Cd 0.84883 0.80188 0.86963 0.0
Cd100 Cd 0.85278 0.85585 0.88239 0.0
O101 O 0.89638 0.85266 0.87774 0.0
O102 O 0.83328 0.76851 0.84651 0.0
O103 O 0.82251 0.8096 0.83874 0.0
C104 C 0.81936 0.78366 0.83195 0.0
C105 C 0.83729 0.89573 0.86827 0.0
C106 C 0.90834 0.83157 0.87175 0.0
C107 C 0.82775 0.81762 0.92216 0.0
O108 O 0.83351 0.84186 0.91574 0.0
O109 O 0.83304 0.7977 0.90663 0.0
O110 O 0.85402 0.89579 0.88979 0.0
O111 O 0.82905 0.87269 0.85437 0.0
O112 O 0.60819 0.65181 0.6518 0.0
Cd113 Cd 0.65127 0.64717 0.6594 0.0
Cd114 Cd 0.6419 0.62539 0.60189 0.0
O115 O 0.60148 0.63618 0.60899 0.0
O116 O 0.65925 0.66389 0.69674 0.0
O117 O 0.68244 0.67983 0.66285 0.0
C118 C 0.67873 0.68137 0.68826 0.0
C119 C 0.65247 0.62613 0.55699 0.0
C120 C 0.59193 0.6465 0.63015 0.0
C121 C 0.6652 0.59072 0.64425 0.0
O122 O 0.65769 0.59398 0.62 0.0
O123 O 0.66372 0.60924 0.66288 0.0
O124 O 0.63413 0.60734 0.56493 0.0
O125 O 0.66506 0.64506 0.57465 0.0
O126 O 0.32011 0.64377 0.67645 0.0
Cd127 Cd 0.33218 0.68257 0.66562 0.0
Cd128 Cd 0.31776 0.65661 0.61714 0.0
O129 O 0.29501 0.62797 0.63839 0.0
O130 O 0.33399 0.70638 0.69967 0.0
O131 O 0.30205 0.70828 0.66525 0.0
C132 C 0.31202 0.71665 0.68962 0.0
C133 C 0.30026 0.66789 0.57524 0.0
C134 C 0.30296 0.62501 0.66266 0.0
C135 C 0.38111 0.67392 0.63347 0.0
O136 O 0.36234 0.65698 0.61918 0.0
O137 O 0.37302 0.68985 0.65179 0.0
O138 O 0.30605 0.64373 0.57882 0.0
O139 O 0.30248 0.68546 0.59598 0.0
O140 O 0.38836 0.38626 0.71953 0.0
Cd141 Cd 0.34523 0.39014 0.72314 0.0
Cd142 Cd 0.33862 0.38263 0.66721 0.0
O143 O 0.38038 0.37374 0.67613 0.0
O144 O 0.3303 0.37107 0.75373 0.0
O145 O 0.31726 0.35697 0.71087 0.0
C146 C 0.31553 0.35332 0.73605 0.0
C147 C 0.31969 0.36493 0.62407 0.0
C148 C 0.39724 0.37724 0.69751 0.0
C149 C 0.3239 0.43537 0.69792 0.0
O150 O 0.326 0.42053 0.67644 0.0
O151 O 0.33084 0.42733 0.72061 0.0
O152 O 0.33989 0.38539 0.62813 0.0
O153 O 0.31012 0.3537 0.64475 0.0
O154 O 0.68713 0.39087 0.69894 0.0
Cd155 Cd 0.66708 0.35194 0.70189 0.0
Cd156 Cd 0.65706 0.34867 0.64801 0.0
O157 O 0.6776 0.38815 0.65495 0.0
O158 O 0.68557 0.33453 0.73166 0.0
O159 O 0.68425 0.31919 0.68855 0.0
C160 C 0.69156 0.31651 0.71349 0.0
C161 C 0.66735 0.32734 0.60684 0.0
C162 C 0.68819 0.40165 0.67679 0.0
C163 C 0.6051 0.34332 0.6825 0.0
O164 O 0.61462 0.34157 0.65921 0.0
O165 O 0.62273 0.34776 0.70333 0.0
O166 O 0.64941 0.34497 0.60816 0.0
O167 O 0.67925 0.32097 0.62906 0.0
O168 O 0.67911 0.30272 0.39806 0.0
Cd169 Cd 0.66433 0.30924 0.35959 0.0
Cd170 Cd 0.67418 0.36074 0.37874 0.0
O171 O 0.6957 0.34577 0.41067 0.0
O172 O 0.6691 0.27744 0.33409 0.0
O173 O 0.69297 0.31883 0.33251 0.0
C174 C 0.68758 0.2937 0.32273 0.0
C175 C 0.69372 0.39735 0.35611 0.0
C176 C 0.69225 0.32086 0.41561 0.0
C177 C 0.61182 0.33665 0.3661 0.0
O178 O 0.62928 0.35614 0.37848 0.0
O179 O 0.62162 0.31629 0.35473 0.0
O180 O 0.68667 0.40088 0.38054 0.0
O181 O 0.69135 0.37273 0.34504 0.0
O182 O 0.61673 0.65989 0.29611 0.0
Cd183 Cd 0.6593 0.65499 0.3072 0.0
Cd184 Cd 0.63555 0.60328 0.30086 0.0
O185 O 0.60231 0.61765 0.27938 0.0
O186 O 0.68038 0.69239 0.30894 0.0
O187 O 0.6891 0.65916 0.27962 0.0
C188 C 0.6947 0.68429 0.28934 0.0
C189 C 0.6561 0.56465 0.28725 0.0
C190 C 0.59746 0.64219 0.28333 0.0
C191 C 0.6538 0.62643 0.35652 0.0
O192 O 0.63584 0.60888 0.34209 0.0
O193 O 0.66878 0.6452 0.34568 0.0
O194 O 0.62931 0.56308 0.29314 0.0
O195 O 0.67077 0.58858 0.28699 0.0
O196 O 0.37063 0.64311 0.28758 0.0
Cd197 Cd 0.32818 0.63498 0.29729 0.0
Cd198 Cd 0.35119 0.64853 0.34739 0.0
O199 O 0.38646 0.66413 0.32729 0.0
O200 O 0.30102 0.64646 0.26924 0.0
O201 O 0.31038 0.66726 0.31042 0.0
C202 C 0.29747 0.66624 0.28662 0.0
C203 C 0.33815 0.67091 0.38701 0.0
C204 C 0.3909 0.65706 0.30303 0.0
C205 C 0.32687 0.58942 0.33083 0.0
O206 O 0.34323 0.60669 0.34711 0.0
O207 O 0.31525 0.59687 0.30942 0.0
O208 O 0.36235 0.66086 0.38615 0.0
O209 O 0.32185 0.66962 0.36495 0.0
O210 O 0.37965 0.30519 0.37917 0.0
Cd211 Cd 0.33558 0.29955 0.38173 0.0
Cd212 Cd 0.33971 0.35497 0.38823 0.0
O213 O 0.38319 0.35 0.38462 0.0
O214 O 0.31794 0.26636 0.35932 0.0
O215 O 0.31021 0.30817 0.3507 0.0
C216 C 0.3054 0.28215 0.34434 0.0
C217 C 0.32743 0.3962 0.37443 0.0
C218 C 0.39501 0.32841 0.38091 0.0
C219 C 0.313 0.32043 0.43109 0.0
O220 O 0.3182 0.34323 0.42131 0.0
O221 O 0.31984 0.29902 0.41906 0.0
O222 O 0.3427 0.39497 0.39655 0.0
O223 O 0.31917 0.37383 0.35946 0.0
H224 H 0.28383 0.30851 0.30283 0.0
H225 H 0.28229 0.2292 0.33301 0.0
H226 H 0.2499 0.28827 0.26462 0.0
H227 H 0.24846 0.20939 0.29532 0.0
H228 H 0.16223 0.19102 0.24686 0.0
H229 H 0.19453 0.21759 0.28224 0.0
H230 H 0.25067 0.24888 0.2231 0.0
H231 H 0.21826 0.22192 0.18719 0.0
C232 C 0.27628 0.28684 0.3013 0.0
C233 C 0.28558 0.27042 0.32092 0.0
C234 C 0.25704 0.27533 0.27946 0.0
C235 C 0.24653 0.24741 0.27731 0.0
C236 C 0.25607 0.23105 0.29677 0.0
C237 C 0.27552 0.24239 0.31825 0.0
C238 C 0.18122 0.20379 0.24122 0.0
C239 C 0.18795 0.20406 0.21424 0.0
C240 C 0.19968 0.21897 0.26152 0.0
C241 C 0.22515 0.23491 0.2553 0.0
C242 C 0.23107 0.23668 0.22827 0.0
C243 C 0.21261 0.22123 0.20782 0.0
H244 H 0.67202 0.24662 0.29032 0.0
H245 H 0.73675 0.31813 0.30258 0.0
H246 H 0.69807 0.22877 0.25335 0.0
H247 H 0.76301 0.29998 0.26577 0.0
H248 H 0.81709 0.23162 0.23104 0.0
H249 H 0.78983 0.25704 0.26206 0.0
H250 H 0.71381 0.24074 0.20582 0.0
H251 H 0.74132 0.21556 0.1744 0.0
C252 C 0.6917 0.25859 0.28501 0.0
C253 C 0.70247 0.28368 0.29944 0.0
C254 C 0.70645 0.24848 0.26372 0.0
C255 C 0.73248 0.26305 0.25674 0.0
C256 C 0.74299 0.28836 0.27083 0.0
C257 C 0.72796 0.29872 0.29184 0.0
C258 C 0.79472 0.23386 0.22508 0.0
C259 C 0.78125 0.22153 0.20039 0.0
C260 C 0.77918 0.24852 0.24278 0.0
C261 C 0.74973 0.25072 0.23633 0.0
C262 C 0.73649 0.2392 0.21125 0.0
C263 C 0.75224 0.22496 0.19327 0.0
H264 H 0.80706 0.78949 0.19451 0.0
H265 H 0.78502 0.83946 0.2628 0.0
H266 H 0.78056 0.74929 0.21124 0.0
H267 H 0.75709 0.79996 0.27869 0.0
H268 H 0.73181 0.72457 0.31713 0.0
H269 H 0.76298 0.76093 0.29927 0.0
H270 H 0.73489 0.72593 0.21833 0.0
H271 H 0.70523 0.68839 0.23666 0.0
C272 C 0.79614 0.79188 0.21289 0.0
C273 C 0.79821 0.81747 0.2275 0.0
C274 C 0.78087 0.76889 0.22246 0.0
C275 C 0.76694 0.77118 0.24656 0.0
C276 C 0.7683 0.79711 0.26056 0.0
C277 C 0.78405 0.81989 0.25132 0.0
C278 C 0.73277 0.72448 0.29553 0.0
C279 C 0.71614 0.7039 0.2782 0.0
C280 C 0.75033 0.74548 0.28522 0.0
C281 C 0.75094 0.74689 0.25728 0.0
C282 C 0.73514 0.72552 0.23994 0.0
C283 C 0.7181 0.70403 0.25037 0.0
H284 H 0.26309 0.66777 0.24041 0.0
H285 H 0.2949 0.71471 0.3153 0.0
H286 H 0.23908 0.70575 0.22638 0.0
H287 H 0.27201 0.75298 0.30092 0.0
H288 H 0.2065 0.80875 0.2778 0.0
H289 H 0.22706 0.7693 0.29246 0.0
H290 H 0.25087 0.74993 0.21169 0.0
H291 H 0.22915 0.78886 0.19683 0.0
C292 C 0.26488 0.68617 0.2539 0.0
C293 C 0.28086 0.68824 0.27896 0.0
C294 C 0.25136 0.70805 0.24577 0.0
C295 C 0.25377 0.73256 0.26241 0.0
C296 C 0.26931 0.73434 0.28771 0.0
C297 C 0.28255 0.71239 0.29594 0.0
C298 C 0.21621 0.79612 0.26319 0.0
C299 C 0.21628 0.80195 0.23617 0.0
C300 C 0.2281 0.77352 0.27161 0.0
C301 C 0.24065 0.75637 0.25328 0.0
C302 C 0.24093 0.76238 0.22627 0.0
C303 C 0.22872 0.78485 0.21778 0.0
H304 H 0.25585 0.7275 0.68296 0.0
H305 H 0.33483 0.74761 0.73521 0.0
H306 H 0.22946 0.75227 0.71558 0.0
H307 H 0.30856 0.77255 0.76752 0.0
H308 H 0.2541 0.83059 0.81152 0.0
H309 H 0.27963 0.8135 0.77365 0.0
H310 H 0.21744 0.74023 0.7634 0.0
H311 H 0.19216 0.75703 0.80131 0.0
C312 C 0.26771 0.73776 0.70107 0.0
C313 C 0.29733 0.73549 0.70666 0.0
C314 C 0.25259 0.75176 0.71977 0.0
C315 C 0.26697 0.76413 0.7441 0.0
C316 C 0.29699 0.76332 0.74886 0.0
C317 C 0.31198 0.74896 0.73041 0.0
C318 C 0.24581 0.81091 0.80107 0.0
C319 C 0.22127 0.79505 0.80949 0.0
C320 C 0.26041 0.80117 0.77945 0.0
C321 C 0.25038 0.77564 0.76556 0.0
C322 C 0.2254 0.76013 0.77354 0.0
C323 C 0.21112 0.76965 0.7954 0.0
H324 H 0.22311 0.1922 0.75725 0.0
H325 H 0.19268 0.24885 0.81564 0.0
H326 H 0.25589 0.22972 0.74201 0.0
H327 H 0.22487 0.28598 0.8003 0.0
H328 H 0.30742 0.34059 0.78723 0.0
H329 H 0.27746 0.30119 0.80151 0.0
H330 H 0.25261 0.27217 0.7185 0.0
H331 H 0.28302 0.31154 0.70408 0.0
C332 C 0.22344 0.21258 0.76681 0.0
C333 C 0.20538 0.21756 0.78767 0.0
C334 C 0.24204 0.23404 0.75801 0.0
C335 C 0.24301 0.26073 0.77007 0.0
C336 C 0.22495 0.26558 0.7909 0.0
C337 C 0.20636 0.24427 0.79957 0.0
C338 C 0.29561 0.32582 0.77199 0.0
C339 C 0.2974 0.32928 0.74453 0.0
C340 C 0.2784 0.30329 0.78018 0.0
C341 C 0.26259 0.2837 0.76112 0.0
C342 C 0.26476 0.28685 0.73363 0.0
C343 C 0.28197 0.30948 0.7254 0.0
H344 H 0.75818 0.19092 0.80164 0.0
H345 H 0.77828 0.17161 0.7198 0.0
H346 H 0.73371 0.22849 0.78745 0.0
H347 H 0.75536 0.21001 0.70575 0.0
H348 H 0.69171 0.26802 0.68392 0.0
H349 H 0.71208 0.22807 0.69772 0.0
H350 H 0.74421 0.27235 0.77402 0.0
H351 H 0.72237 0.31164 0.76066 0.0
C352 C 0.75734 0.19474 0.7806 0.0
C353 C 0.7701 0.17834 0.76183 0.0
C354 C 0.74358 0.21646 0.77247 0.0
C355 C 0.74276 0.2226 0.74545 0.0
C356 C 0.7551 0.20576 0.72663 0.0
C357 C 0.76839 0.18376 0.7347 0.0
C358 C 0.7032 0.26917 0.70361 0.0
C359 C 0.70546 0.29291 0.72123 0.0
C360 C 0.715 0.24629 0.71152 0.0
C361 C 0.72979 0.24681 0.73707 0.0
C362 C 0.73242 0.27086 0.75446 0.0
C363 C 0.72015 0.29353 0.74672 0.0
H364 H 0.79278 0.80922 0.79234 0.0
H365 H 0.80109 0.72983 0.81937 0.0
H366 H 0.75773 0.78765 0.75546 0.0
H367 H 0.76613 0.70874 0.78306 0.0
H368 H 0.67531 0.68753 0.74225 0.0
H369 H 0.70951 0.71522 0.77542 0.0
H370 H 0.75846 0.74795 0.71211 0.0
H371 H 0.72416 0.71979 0.67838 0.0
C372 C 0.78725 0.78726 0.79035 0.0
C373 C 0.79953 0.7712 0.8088 0.0
C374 C 0.76737 0.77501 0.76926 0.0
C375 C 0.75923 0.74668 0.76675 0.0
C376 C 0.77195 0.73068 0.78483 0.0
C377 C 0.79201 0.74278 0.80554 0.0
C378 C 0.6931 0.70083 0.73524 0.0
C379 C 0.6973 0.70118 0.70769 0.0
C380 C 0.71263 0.71666 0.75427 0.0
C381 C 0.73663 0.73337 0.7462 0.0
C382 C 0.74001 0.73515 0.71868 0.0
C383 C 0.72049 0.71902 0.69949 0.0
H384 H 0.11601 0.09868 0.89198 0.0
H385 H 0.18677 0.16519 0.8989 0.0
H386 H 0.11895 0.09803 0.9405 0.0
H387 H 0.19056 0.16384 0.94764 0.0
H388 H 0.1625 0.17317 0.03516 0.0
H389 H 0.16535 0.17423 0.98661 0.0
H390 H 0.14819 0.08621 0.97681 0.0
H391 H 0.14402 0.08538 0.02489 0.0
C392 C 0.13246 0.11295 0.90387 0.0
C393 C 0.15113 0.13199 0.89161 0.0
C394 C 0.13432 0.11247 0.93173 0.0
C395 C 0.15516 0.13076 0.94803 0.0
C396 C 0.17404 0.14967 0.93573 0.0
C397 C 0.17196 0.15036 0.9078 0.0
C398 C 0.15969 0.15411 0.02256 0.0
C399 C 0.15264 0.12924 0.03363 0.0
C400 C 0.16141 0.15467 0.99478 0.0
C401 C 0.1565 0.13031 0.97773 0.0
C402 C 0.15122 0.1054 0.98921 0.0
C403 C 0.14903 0.10489 0.01679 0.0
H404 H 0.85748 0.18638 0.91936 0.0
H405 H 0.76738 0.16414 0.88978 0.0
H406 H 0.8426 0.1936 0.96506 0.0
H407 H 0.75253 0.1705 0.93583 0.0
H408 H 0.76789 0.12878 0.02087 0.0
H409 H 0.76879 0.13796 0.97366 0.0
H410 H 0.80867 0.22045 0.99742 0.0
H411 H 0.80675 0.21151 0.0449 0.0
C412 C 0.83443 0.18384 0.92257 0.0
C413 C 0.81358 0.17463 0.90113 0.0
C414 C 0.82591 0.18809 0.94868 0.0
C415 C 0.79644 0.18255 0.95391 0.0
C416 C 0.77537 0.17502 0.93224 0.0
C417 C 0.78386 0.17147 0.90595 0.0
C418 C 0.77572 0.14918 0.016 0.0
C419 C 0.78722 0.16945 0.03641 0.0
C420 C 0.77617 0.15447 0.98902 0.0
C421 C 0.78885 0.17989 0.98197 0.0
C422 C 0.79865 0.20074 0.00241 0.0
C423 C 0.79743 0.19566 0.0295 0.0
H424 H 0.83054 0.77283 0.95017 0.0
H425 H 0.80155 0.8522 0.95463 0.0
H426 H 0.82225 0.76945 0.99765 0.0
H427 H 0.79311 0.84868 0.00183 0.0
H428 H 0.77803 0.83848 0.08631 0.0
H429 H 0.76732 0.82326 0.03835 0.0
H430 H 0.85365 0.79982 0.03523 0.0
H431 H 0.8643 0.8155 0.08266 0.0
C432 C 0.82161 0.78918 0.96105 0.0
C433 C 0.81724 0.81303 0.94888 0.0
C434 C 0.81683 0.7872 0.98818 0.0
C435 C 0.80717 0.80884 0.00339 0.0
C436 C 0.8003 0.83157 0.99054 0.0
C437 C 0.80545 0.83372 0.96358 0.0
C438 C 0.79412 0.82898 0.0755 0.0
C439 C 0.82191 0.828 0.08785 0.0
C440 C 0.7881 0.82043 0.04814 0.0
C441 C 0.80971 0.81047 0.03311 0.0
C442 C 0.83646 0.80708 0.04635 0.0
C443 C 0.84263 0.81611 0.07344 0.0
H444 H 0.14344 0.8184 0.07332 0.0
H445 H 0.2344 0.83206 0.10175 0.0
H446 H 0.15687 0.81123 0.02717 0.0
H447 H 0.24798 0.8258 0.05511 0.0
H448 H 0.18758 0.78588 0.94794 0.0
H449 H 0.18565 0.77964 0.99572 0.0
H450 H 0.23665 0.85844 0.01564 0.0
H451 H 0.23819 0.86509 0.96782 0.0
C452 C 0.16631 0.81923 0.06968 0.0
C453 C 0.1879 0.82567 0.09098 0.0
C454 C 0.174 0.81505 0.04331 0.0
C455 C 0.20345 0.81795 0.03763 0.0
C456 C 0.22513 0.82335 0.05904 0.0
C457 C 0.21738 0.82678 0.08562 0.0
C458 C 0.19919 0.80155 0.96241 0.0
C459 C 0.21269 0.82618 0.95405 0.0
C460 C 0.19799 0.79795 0.98977 0.0
C461 C 0.21082 0.81863 0.00928 0.0
C462 C 0.22673 0.84211 0.00097 0.0
C463 C 0.22749 0.84595 0.97359 0.0
H464 H 0.03887 0.12141 0.10002 0.0
H465 H 0.06213 0.1863 0.16345 0.0
H466 H 0.98855 0.13046 0.09853 0.0
H467 H 0.01205 0.19631 0.16113 0.0
H468 H 0.91376 0.1826 0.17222 0.0
H469 H 0.96543 0.17867 0.17238 0.0
H470 H 0.95643 0.16092 0.08596 0.0
H471 H 0.90436 0.16356 0.08608 0.0
C472 C 0.03327 0.13782 0.11345 0.0
C473 C 0.05441 0.15302 0.13197 0.0
C474 C 0.00444 0.14321 0.11244 0.0
C475 C 0.99614 0.16422 0.12964 0.0
C476 C 0.01748 0.17969 0.14788 0.0
C477 C 0.04624 0.17401 0.14917 0.0
C478 C 0.9229 0.17825 0.15321 0.0
C479 C 0.90496 0.17315 0.12916 0.0
C480 C 0.95262 0.17608 0.15326 0.0
C481 C 0.96515 0.16915 0.12921 0.0
C482 C 0.94742 0.16558 0.10496 0.0
C483 C 0.91761 0.16734 0.10497 0.0
H484 H 0.82303 0.94929 0.13043 0.0
H485 H 0.80689 0.95658 0.21468 0.0
H486 H 0.80788 0.99357 0.12548 0.0
H487 H 0.79071 0.0009 0.20949 0.0
H488 H 0.76766 0.06744 0.11591 0.0
H489 H 0.76867 0.01998 0.12455 0.0
H490 H 0.81259 0.04586 0.20293 0.0
H491 H 0.81054 0.09309 0.19475 0.0
C492 C 0.81587 0.96019 0.14787 0.0
C493 C 0.81646 0.94946 0.17302 0.0
C494 C 0.80682 0.98555 0.14495 0.0
C495 C 0.7979 0.00085 0.16705 0.0
C496 C 0.79771 0.9898 0.1921 0.0
C497 C 0.80695 0.96438 0.19507 0.0
C498 C 0.77684 0.06297 0.13526 0.0
C499 C 0.78948 0.08408 0.15444 0.0
C500 C 0.77765 0.03575 0.14014 0.0
C501 C 0.79138 0.02908 0.16417 0.0
C502 C 0.80178 0.05016 0.18422 0.0
C503 C 0.80071 0.07735 0.17946 0.0
H504 H 0.94183 0.87164 0.14932 0.0
H505 H 0.93606 0.86056 0.2337 0.0
H506 H 0.99196 0.86257 0.15239 0.0
H507 H 0.98636 0.85042 0.23663 0.0
H508 H 0.08735 0.8663 0.23522 0.0
H509 H 0.03577 0.87083 0.23553 0.0
H510 H 0.02019 0.82658 0.15688 0.0
H511 H 0.07202 0.82309 0.15611 0.0
C512 C 0.95126 0.8671 0.16855 0.0
C513 C 0.93495 0.86678 0.19127 0.0
C514 C 0.97998 0.8616 0.17025 0.0
C515 C 0.99313 0.85528 0.19465 0.0
C516 C 0.97696 0.85532 0.21754 0.0
C517 C 0.94816 0.86113 0.21589 0.0
C518 C 0.07284 0.85714 0.21817 0.0
C519 C 0.08384 0.84464 0.19547 0.0
C520 C 0.0432 0.85969 0.21839 0.0
C521 C 0.02386 0.84953 0.19603 0.0
C522 C 0.03461 0.83536 0.17413 0.0
C523 C 0.06428 0.83312 0.17376 0.0
H524 H 0.18528 0.08407 0.19873 0.0
H525 H 0.16065 0.04726 0.11793 0.0
H526 H 0.20323 0.04207 0.2106 0.0
H527 H 0.17738 0.00544 0.12989 0.0
H528 H 0.21874 0.93562 0.14762 0.0
H529 H 0.21796 0.98347 0.14054 0.0
H530 H 0.18415 0.99668 0.21842 0.0
H531 H 0.18663 0.94917 0.22598 0.0
C532 C 0.18368 0.06705 0.18353 0.0
C533 C 0.17145 0.06898 0.15742 0.0
C534 C 0.19395 0.04299 0.19033 0.0
C535 C 0.19202 0.02038 0.17117 0.0
C536 C 0.18002 0.02258 0.14503 0.0
C537 C 0.17005 0.04657 0.13821 0.0
C538 C 0.21211 0.94905 0.16356 0.0
C539 C 0.20241 0.93873 0.18718 0.0
C540 C 0.21134 0.97638 0.15943 0.0
C541 C 0.20006 0.99375 0.17853 0.0
C542 C 0.19296 0.98396 0.20325 0.0
C543 C 0.19436 0.95669 0.20762 0.0
H544 H 0.94694 0.87821 0.87252 0.0
H545 H 0.94204 0.79046 0.86733 0.0
H546 H -0.00033 0.88217 0.87069 0.0
H547 H 0.99478 0.79444 0.86642 0.0
H548 H 0.08701 0.80879 0.84147 0.0
H549 H 0.03413 0.80645 0.83927 0.0
H550 H 0.04205 0.87613 0.89807 0.0
H551 H 0.09491 0.87903 0.89957 0.0
C552 C 0.95712 0.85977 0.87108 0.0
C553 C 0.94029 0.83402 0.87011 0.0
C554 C 0.98737 0.86204 0.87017 0.0
C555 C 0.00151 0.83863 0.86847 0.0
C556 C 0.9846 0.81289 0.86729 0.0
C557 C 0.95434 0.81061 0.86799 0.0
C558 C 0.07747 0.82371 0.85381 0.0
C559 C 0.09517 0.84405 0.87075 0.0
C560 C 0.04713 0.82227 0.85267 0.0
C561 C 0.0338 0.841 0.8686 0.0
C562 C 0.05156 0.86159 0.88524 0.0
C563 C 0.0819 0.86316 0.88622 0.0
H564 H 0.22204 0.96175 0.88389 0.0
H565 H 0.20278 0.90841 0.81071 0.0
H566 H 0.21895 0.00115 0.8583 0.0
H567 H 0.19925 0.94798 0.78511 0.0
H568 H 0.13587 0.01765 0.77803 0.0
H569 H 0.15805 0.97779 0.78941 0.0
H570 H 0.23692 0.02974 0.82031 0.0
H571 H 0.2148 0.06977 0.80843 0.0
C572 C 0.21803 0.95851 0.86222 0.0
C573 C 0.21232 0.93201 0.84935 0.0
C574 C 0.21643 0.9811 0.84752 0.0
C575 C 0.20865 0.9776 0.81973 0.0
C576 C 0.2052 0.95121 0.80653 0.0
C577 C 0.20731 0.9286 0.82119 0.0
C578 C 0.15836 0.02048 0.78623 0.0
C579 C 0.17352 0.04678 0.79255 0.0
C580 C 0.17112 0.99763 0.79268 0.0
C581 C 0.19911 0.00071 0.80602 0.0
C582 C 0.21526 0.02685 0.81015 0.0
C583 C 0.20266 0.04971 0.80319 0.0
H584 H 0.06855 0.19019 0.79311 0.0
H585 H 0.04604 0.10523 0.76423 0.0
H586 H 0.01711 0.19597 0.78981 0.0
H587 H 0.99461 0.11107 0.76115 0.0
H588 H 0.90345 0.13115 0.74865 0.0
H589 H 0.95497 0.13363 0.74037 0.0
H590 H 0.97804 0.17837 0.81801 0.0
H591 H 0.92666 0.17609 0.82628 0.0
C592 C 0.05272 0.17286 0.78552 0.0
C593 C 0.0614 0.14711 0.77934 0.0
C594 C 0.02323 0.17619 0.78377 0.0
C595 C 0.00182 0.15391 0.77561 0.0
C596 C 0.01062 0.12868 0.7674 0.0
C597 C 0.04012 0.1253 0.76926 0.0
C598 C 0.91947 0.14197 0.76376 0.0
C599 C 0.91094 0.15318 0.78828 0.0
C600 C 0.94898 0.14327 0.75903 0.0
C601 C 0.97054 0.15601 0.77859 0.0
C602 C 0.96194 0.16861 0.80241 0.0
C603 C 0.93247 0.16716 0.80723 0.0
H604 H 0.8009 0.90374 0.82474 0.0
H605 H 0.85385 0.9463 0.89325 0.0
H606 H 0.7875 0.94728 0.81163 0.0
H607 H 0.84128 0.98926 0.87995 0.0
H608 H 0.80142 0.06198 0.86564 0.0
H609 H 0.80184 0.01545 0.87735 0.0
H610 H 0.80975 0.98897 0.79405 0.0
H611 H 0.80807 0.03558 0.78219 0.0
C612 C 0.80961 0.92232 0.83699 0.0
C613 C 0.82839 0.92157 0.86004 0.0
C614 C 0.80202 0.94723 0.82945 0.0
C615 C 0.81305 0.97175 0.84489 0.0
C616 C 0.83174 0.97078 0.86793 0.0
C617 C 0.83921 0.94607 0.87545 0.0
C618 C 0.80263 0.04611 0.84975 0.0
C619 C 0.80514 0.05242 0.82308 0.0
C620 C 0.80306 0.01947 0.85646 0.0
C621 C 0.80659 -0.0014 0.83674 0.0
C622 C 0.80697 0.00454 0.80972 0.0
C623 C 0.80608 0.03125 0.80292 0.0
H624 H 0.61827 0.59568 0.38701 0.0
H625 H 0.69542 0.6554 0.39267 0.0
H626 H 0.62116 0.59571 0.4356 0.0
H627 H 0.69902 0.65467 0.44148 0.0
H628 H 0.67252 0.66912 0.52908 0.0
H629 H 0.67527 0.66877 0.48039 0.0
H630 H 0.64853 0.58166 0.47206 0.0
H631 H 0.64457 0.58234 0.52026 0.0
C632 C 0.6361 0.60855 0.39862 0.0
C633 C 0.65658 0.62555 0.38599 0.0
C634 C 0.6379 0.60845 0.42653 0.0
C635 C 0.66045 0.62509 0.44249 0.0
C636 C 0.68118 0.64186 0.42982 0.0
C637 C 0.6792 0.64216 0.40185 0.0
C638 C 0.66756 0.64993 0.51677 0.0
C639 C 0.65794 0.62585 0.5283 0.0
C640 C 0.66922 0.64966 0.48891 0.0
C641 C 0.66166 0.62522 0.47225 0.0
C642 C 0.65369 0.60095 0.48416 0.0
C643 C 0.6516 0.60131 0.51182 0.0
H644 H 0.31788 0.71689 0.55642 0.0
H645 H 0.27386 0.63598 0.53162 0.0
H646 H 0.32265 0.72532 0.50916 0.0
H647 H 0.27787 0.64468 0.48455 0.0
H648 H 0.28208 0.67083 0.40064 0.0
H649 H 0.26593 0.67671 0.44621 0.0
H650 H 0.35547 0.69804 0.4778 0.0
H651 H 0.37165 0.69148 0.43252 0.0
C652 C 0.30813 0.70137 0.54087 0.0
C653 C 0.2956 0.67574 0.54761 0.0
C654 C 0.31102 0.70614 0.51388 0.0
C655 C 0.30072 0.68561 0.49328 0.0
C656 C 0.28579 0.66094 0.50002 0.0
C657 C 0.28355 0.65593 0.52695 0.0
C658 C 0.29823 0.67755 0.41724 0.0
C659 C 0.32813 0.68051 0.41312 0.0
C660 C 0.28898 0.68082 0.44327 0.0
C661 C 0.30946 0.68781 0.46546 0.0
C662 C 0.3392 0.69292 0.46102 0.0
C663 C 0.34847 0.68903 0.43513 0.0
H664 H 0.32251 0.2856 0.46941 0.0
H665 H 0.27801 0.35441 0.4533 0.0
H666 H 0.31428 0.29274 0.51708 0.0
H667 H 0.26883 0.36092 0.50061 0.0
H668 H 0.31924 0.39496 0.5817 0.0
H669 H 0.30745 0.37939 0.53481 0.0
H670 H 0.28306 0.29734 0.55611 0.0
H671 H 0.29517 0.31328 0.60387 0.0
C672 C 0.31002 0.30158 0.4759 0.0
C673 C 0.30154 0.31991 0.45789 0.0
C674 C 0.30516 0.30558 0.50318 0.0
C675 C 0.29149 0.32778 0.51265 0.0
C676 C 0.28004 0.34405 0.49398 0.0
C677 C 0.28528 0.34032 0.46691 0.0
C678 C 0.31093 0.37366 0.5765 0.0
C679 C 0.30839 0.35526 0.59633 0.0
C680 C 0.30383 0.36475 0.54958 0.0
C681 C 0.29417 0.33712 0.54171 0.0
C682 C 0.29048 0.31875 0.56164 0.0
C683 C 0.29728 0.32785 0.58887 0.0
H684 H 0.67164 0.27432 0.43775 0.0
H685 H 0.72586 0.35187 0.45679 0.0
H686 H 0.67026 0.26835 0.48561 0.0
H687 H 0.72483 0.34546 0.50467 0.0
H688 H 0.72146 0.32076 0.591 0.0
H689 H 0.73454 0.31259 0.54441 0.0
H690 H 0.64335 0.30197 0.51681 0.0
H691 H 0.6305 0.31107 0.5629 0.0
C692 C 0.68417 0.28963 0.45204 0.0
C693 C 0.69847 0.31382 0.44346 0.0
C694 C 0.6833 0.28617 0.47944 0.0
C695 C 0.69723 0.30654 0.49874 0.0
C696 C 0.71404 0.32939 0.49015 0.0
C697 C 0.7145 0.3331 0.46274 0.0
C698 C 0.70428 0.31588 0.57498 0.0
C699 C 0.675 0.31649 0.58037 0.0
C700 C 0.71175 0.31136 0.54842 0.0
C701 C 0.68993 0.30656 0.52712 0.0
C702 C 0.66057 0.30528 0.53289 0.0
C703 C 0.6532 0.31056 0.55921 0.0
H704 H 0.56195 0.66276 0.67253 0.0
H705 H 0.55321 0.64437 0.58622 0.0
H706 H 0.51161 0.67188 0.67153 0.0
H707 H 0.50311 0.6543 0.58516 0.0
H708 H 0.40568 0.63886 0.59994 0.0
H709 H 0.45701 0.63419 0.59823 0.0
H710 H 0.4792 0.70314 0.65755 0.0
H711 H 0.42758 0.70732 0.65989 0.0
C712 C 0.54937 0.66089 0.65331 0.0
C713 C 0.56154 0.65264 0.62948 0.0
C714 C 0.52057 0.66635 0.65271 0.0
C715 C 0.50333 0.66386 0.62826 0.0
C716 C 0.51567 0.65605 0.60438 0.0
C717 C 0.54442 0.65042 0.60499 0.0
C718 C 0.42148 0.65323 0.61244 0.0
C719 C 0.4125 0.67333 0.63022 0.0
C720 C 0.45098 0.65063 0.61134 0.0
C721 C 0.47222 0.66818 0.62788 0.0
C722 C 0.46333 0.68898 0.6449 0.0
C723 C 0.43377 0.6915 0.6461 0.0
H724 H 0.32702 0.6079 0.70849 0.0
H725 H 0.2646 0.581 0.64076 0.0
H726 H 0.32576 0.56126 0.71996 0.0
H727 H 0.26235 0.5343 0.65297 0.0
H728 H 0.30884 0.45797 0.65217 0.0
H729 H 0.29653 0.50322 0.64761 0.0
H730 H 0.30297 0.51946 0.73413 0.0
H731 H 0.31639 0.47391 0.73872 0.0
C732 C 0.31229 0.59214 0.69652 0.0
C733 C 0.29641 0.5981 0.67332 0.0
C734 C 0.31145 0.56531 0.70323 0.0
C735 C 0.29445 0.54386 0.68705 0.0
C736 C 0.27635 0.55023 0.66542 0.0
C737 C 0.27746 0.57704 0.65851 0.0
C738 C 0.30743 0.471 0.67032 0.0
C739 C 0.31397 0.46236 0.69583 0.0
C740 C 0.29998 0.49698 0.66769 0.0
C741 C 0.29863 0.51509 0.69049 0.0
C742 C 0.3041 0.50614 0.71612 0.0
C743 C 0.31173 0.48003 0.71877 0.0
H744 H 0.56291 0.34546 0.64251 0.0
H745 H 0.57585 0.34189 0.72841 0.0
H746 H 0.51256 0.35206 0.64714 0.0
H747 H 0.52482 0.34736 0.73297 0.0
H748 H 0.44436 0.39305 0.73388 0.0
H749 H 0.49384 0.38185 0.73079 0.0
H750 H 0.46615 0.33213 0.65642 0.0
H751 H 0.41734 0.34434 0.65892 0.0
C752 C 0.55483 0.34545 0.66235 0.0
C753 C 0.57348 0.34326 0.6851 0.0
C754 C 0.52581 0.34915 0.66502 0.0
C755 C 0.51454 0.35038 0.69047 0.0
C756 C 0.53289 0.34705 0.71313 0.0
C757 C 0.56208 0.34364 0.71049 0.0
C758 C 0.44893 0.37973 0.71691 0.0
C759 C 0.42706 0.36987 0.69649 0.0
C760 C 0.47722 0.3731 0.71523 0.0
C761 C 0.48411 0.35616 0.69326 0.0
C762 C 0.4619 0.34571 0.6733 0.0
C763 C 0.43382 0.35265 0.67479 0.0
H764 H 0.69031 0.57819 0.69212 0.0
H765 H 0.66331 0.54459 0.61067 0.0
H766 H 0.70563 0.53467 0.7024 0.0
H767 H 0.67744 0.50124 0.62108 0.0
H768 H 0.68249 0.44187 0.71555 0.0
H769 H 0.68347 0.49004 0.70918 0.0
H770 H 0.71588 0.4762 0.63078 0.0
H771 H 0.71326 0.42777 0.63669 0.0
C772 C 0.68766 0.56155 0.67642 0.0
C773 C 0.67544 0.56481 0.65062 0.0
C774 C 0.69642 0.53661 0.68232 0.0
C775 C 0.69295 0.51441 0.66256 0.0
C776 C 0.68118 0.51798 0.63667 0.0
C777 C 0.67271 0.54285 0.63074 0.0
C778 C 0.69066 0.44932 0.69732 0.0
C779 C 0.69731 0.43111 0.6764 0.0
C780 C 0.69126 0.47698 0.69364 0.0
C781 C 0.69898 0.4869 0.66913 0.0
C782 C 0.70885 0.46907 0.64952 0.0
C783 C 0.70766 0.44139 0.65299 0.0
H784 H 0.42815 0.28678 0.37774 0.0
H785 H 0.43379 0.37433 0.37781 0.0
H786 H 0.48032 0.28977 0.37306 0.0
H787 H 0.48592 0.37722 0.37235 0.0
H788 H 0.58318 0.37332 0.3939 0.0
H789 H 0.53082 0.37177 0.3969 0.0
H790 H 0.51594 0.2995 0.34112 0.0
H791 H 0.56835 0.30058 0.33871 0.0
C792 C 0.44048 0.30667 0.37661 0.0
C793 C 0.42679 0.33032 0.37819 0.0
C794 C 0.47039 0.30836 0.37372 0.0
C795 C 0.4873 0.33372 0.37219 0.0
C796 C 0.4736 0.35739 0.37377 0.0
C797 C 0.44368 0.35572 0.3768 0.0
C798 C 0.56875 0.3572 0.38212 0.0
C799 C 0.57997 0.33698 0.36619 0.0
C800 C 0.53869 0.35638 0.38376 0.0
C801 C 0.51917 0.33541 0.36938 0.0
C802 C 0.53039 0.31564 0.35285 0.0
C803 C 0.56044 0.31637 0.35133 0.0
H804 H 0.68915 0.39823 0.30149 0.0
H805 H 0.71232 0.45004 0.37521 0.0
H806 H 0.68829 0.43857 0.27655 0.0
H807 H 0.71186 0.49019 0.35027 0.0
H808 H 0.71289 0.56005 0.30144 0.0
H809 H 0.73172 0.51815 0.31254 0.0
H810 H 0.64983 0.47125 0.28162 0.0
H811 H 0.63092 0.51299 0.271 0.0
C812 C 0.69506 0.41819 0.31222 0.0
C813 C 0.70044 0.42102 0.34036 0.0
C814 C 0.69448 0.44125 0.29794 0.0
C815 C 0.69985 0.46748 0.31148 0.0
C816 C 0.70789 0.47025 0.33923 0.0
C817 C 0.70797 0.44724 0.35356 0.0
C818 C 0.69937 0.54068 0.29603 0.0
C819 C 0.67034 0.53973 0.28561 0.0
C820 C 0.71009 0.51675 0.30254 0.0
C821 C 0.69214 0.49151 0.29819 0.0
C822 C 0.66424 0.49036 0.28506 0.0
C823 C 0.65336 0.51428 0.27904 0.0
H824 H 0.54929 0.60847 0.26069 0.0
H825 H 0.57853 0.69189 0.29177 0.0
H826 H 0.49901 0.61761 0.25967 0.0
H827 H 0.52812 0.70112 0.2903 0.0
H828 H 0.43967 0.68513 0.33086 0.0
H829 H 0.48981 0.68611 0.31915 0.0
H830 H 0.46001 0.64173 0.24251 0.0
H831 H 0.40968 0.64034 0.2544 0.0
C832 C 0.54508 0.62897 0.2666 0.0
C833 C 0.56792 0.64929 0.27681 0.0
C834 C 0.51619 0.63426 0.26588 0.0
C835 C 0.50954 0.66001 0.2753 0.0
C836 C 0.53254 0.68094 0.28338 0.0
C837 C 0.56143 0.67566 0.28409 0.0
C838 C 0.44371 0.67606 0.31128 0.0
C839 C 0.42066 0.66227 0.29378 0.0
C840 C 0.47251 0.67678 0.30446 0.0
C841 C 0.47893 0.66375 0.27998 0.0
C842 C 0.45577 0.65161 0.26168 0.0
C843 C 0.42693 0.65093 0.26848 0.0
H844 H 0.31836 0.41273 0.32385 0.0
H845 H 0.32062 0.43961 0.40824 0.0
H846 H 0.31432 0.45932 0.31255 0.0
H847 H 0.31523 0.48547 0.39716 0.0
H848 H 0.35274 0.5672 0.3724 0.0
H849 H 0.34842 0.51995 0.38161 0.0
H850 H 0.28686 0.49818 0.31231 0.0
H851 H 0.29196 0.54603 0.30244 0.0
C852 C 0.31729 0.42847 0.33989 0.0
C853 C 0.32035 0.42279 0.3669 0.0
C854 C 0.31487 0.4551 0.33347 0.0
C855 C 0.31508 0.47627 0.35399 0.0
C856 C 0.31593 0.46989 0.38088 0.0
C857 C 0.31886 0.44357 0.38725 0.0
C858 C 0.3381 0.55249 0.35913 0.0
C859 C 0.32263 0.56049 0.3367 0.0
C860 C 0.33544 0.52529 0.36455 0.0
C861 C 0.317 0.50523 0.3479 0.0
C862 C 0.30135 0.51312 0.32546 0.0
C863 C 0.30415 0.54053 0.3199 0.0
loop_
_geom_bond_atom_site_label_1
_geom_bond_atom_site_label_2
_geom_bond_distance
_geom_bond_site_symmetry_2
_ccdc_geom_bond_type
O0 Cd1 2.223 . S
O0 C8 1.315 . S
Cd1 O0 2.223 . S
Cd1 O4 2.297 . S
Cd1 O5 2.439 . S
Cd1 O11 2.240 . S
Cd2 O3 2.240 . S
Cd2 O10 2.223 . S
Cd2 O12 2.297 . S
Cd2 O13 2.439 . S
O3 Cd2 2.240 . S
O3 C8 1.279 . S
O4 Cd1 2.297 . S
O4 C6 1.247 . S
O5 Cd1 2.439 . S
O5 C6 1.208 . S
C6 O4 1.247 . S
C6 O5 1.208 . S
C7 O12 1.247 . S
C7 O13 1.208 . S
C8 O0 1.315 . S
C8 O3 1.279 . S
C9 O10 1.315 . S
C9 O11 1.279 . S
O10 Cd2 2.223 . S
O10 C9 1.315 . S
O11 Cd1 2.240 . S
O11 C9 1.279 . S
O12 Cd2 2.297 . S
O12 C7 1.247 . S
O13 Cd2 2.439 . S
O13 C7 1.208 . S
O14 Cd15 2.223 . S
O14 C22 1.315 . S
Cd15 O14 2.223 . S
Cd15 O18 2.297 . S
Cd15 O19 2.439 . S
Cd15 O25 2.240 . S
Cd16 O17 2.240 . S
Cd16 O24 2.223 . S
Cd16 O26 2.297 . S
Cd16 O27 2.439 . S
O17 Cd16 2.240 . S
O17 C22 1.279 . S
O18 Cd15 2.297 . S
O18 C20 1.247 . S
O19 Cd15 2.439 . S
O19 C20 1.208 . S
C20 O18 1.247 . S
C20 O19 1.208 . S
C21 O26 1.247 . S
C21 O27 1.208 . S
C22 O14 1.315 . S
C22 O17 1.279 . S
C23 O24 1.315 . S
C23 O25 1.279 . S
O24 Cd16 2.223 . S
O24 C23 1.315 . S
O25 Cd15 2.240 . S
O25 C23 1.279 . S
O26 Cd16 2.297 . S
O26 C21 1.247 . S
O27 Cd16 2.439 . S
O27 C21 1.208 . S
O28 Cd29 2.223 . S
O28 C36 1.315 . S
Cd29 O28 2.223 . S
Cd29 O32 2.297 . S
Cd29 O33 2.439 . S
Cd29 O39 2.240 . S
Cd30 O31 2.240 . S
Cd30 O38 2.223 . S
Cd30 O40 2.297 . S
Cd30 O41 2.439 . S
O31 Cd30 2.240 . S
O31 C36 1.279 . S
O32 Cd29 2.297 . S
O32 C34 1.247 . S
O33 Cd29 2.439 . S
O33 C34 1.208 . S
C34 O32 1.247 . S
C34 O33 1.208 . S
C35 O40 1.247 . S
C35 O41 1.208 . S
C36 O28 1.315 . S
C36 O31 1.279 . S
C37 O38 1.315 . S
C37 O39 1.279 . S
O38 Cd30 2.223 . S
O38 C37 1.315 . S
O39 Cd29 2.240 . S
O39 C37 1.279 . S
O40 Cd30 2.297 . S
O40 C35 1.247 . S
O41 Cd30 2.439 . S
O41 C35 1.208 . S
O42 Cd43 2.223 . S
O42 C50 1.315 . S
Cd43 O42 2.223 . S
Cd43 O46 2.297 . S
Cd43 O47 2.439 . S
Cd43 O53 2.240 . S
Cd44 O45 2.240 . S
Cd44 O52 2.223 . S
Cd44 O54 2.297 . S
Cd44 O55 2.439 . S
O45 Cd44 2.240 . S
O45 C50 1.279 . S
O46 Cd43 2.297 . S
O46 C48 1.247 . S
O47 Cd43 2.439 . S
O47 C48 1.208 . S
C48 O46 1.247 . S
C48 O47 1.208 . S
C49 O54 1.247 . S
C49 O55 1.208 . S
C50 O42 1.315 . S
C50 O45 1.279 . S
C51 O52 1.315 . S
C51 O53 1.279 . S
O52 Cd44 2.223 . S
O52 C51 1.315 . S
O53 Cd43 2.240 . S
O53 C51 1.279 . S
O54 Cd44 2.297 . S
O54 C49 1.247 . S
O55 Cd44 2.439 . S
O55 C49 1.208 . S
O56 Cd57 2.223 . S
O56 C64 1.315 . S
Cd57 O56 2.223 . S
Cd57 O60 2.297 . S
Cd57 O61 2.439 . S
Cd57 O67 2.240 . S
Cd58 O59 2.240 . S
Cd58 O66 2.223 . S
Cd58 O68 2.297 . S
Cd58 O69 2.439 . S
O59 Cd58 2.240 . S
O59 C64 1.279 . S
O60 Cd57 2.297 . S
O60 C62 1.247 . S
O61 Cd57 2.439 . S
O61 C62 1.208 . S
C62 O60 1.247 . S
C62 O61 1.208 . S
C63 O68 1.247 . S
C63 O69 1.208 . S
C64 O56 1.315 . S
C64 O59 1.279 . S
C65 O66 1.315 . S
C65 O67 1.279 . S
O66 Cd58 2.223 . S
O66 C65 1.315 . S
O67 Cd57 2.240 . S
O67 C65 1.279 . S
O68 Cd58 2.297 . S
O68 C63 1.247 . S
O69 Cd58 2.439 . S
O69 C63 1.208 . S
O70 Cd71 2.223 . S
O70 C78 1.315 . S
Cd71 O70 2.223 . S
Cd71 O74 2.297 . S
Cd71 O75 2.439 . S
Cd71 O81 2.240 . S
Cd72 O73 2.240 . S
Cd72 O80 2.223 . S
Cd72 O82 2.297 . S
Cd72 O83 2.439 . S
O73 Cd72 2.240 . S
O73 C78 1.279 . S
O74 Cd71 2.297 . S
O74 C76 1.247 . S
O75 Cd71 2.439 . S
O75 C76 1.208 . S
C76 O74 1.247 . S
C76 O75 1.208 . S
C77 O82 1.247 . S
C77 O83 1.208 . S
C78 O70 1.315 . S
C78 O73 1.279 . S
C79 O80 1.315 . S
C79 O81 1.279 . S
O80 Cd72 2.223 . S
O80 C79 1.315 . S
O81 Cd71 2.240 . S
O81 C79 1.279 . S
O82 Cd72 2.297 . S
O82 C77 1.247 . S
O83 Cd72 2.439 . S
O83 C77 1.208 . S
O84 Cd85 2.223 . S
O84 C92 1.315 . S
Cd85 O84 2.223 . S
Cd85 O88 2.297 . S
Cd85 O89 2.439 . S
Cd85 O95 2.240 . S
Cd86 O87 2.240 . S
Cd86 O94 2.223 . S
Cd86 O96 2.297 . S
Cd86 O97 2.439 . S
O87 Cd86 2.240 . S
O87 C92 1.279 . S
O88 Cd85 2.297 . S
O88 C90 1.247 . S
O89 Cd85 2.439 . S
O89 C90 1.208 . S
C90 O88 1.247 . S
C90 O89 1.208 . S
C91 O96 1.247 . S
C91 O97 1.208 . S
C92 O84 1.315 . S
C92 O87 1.279 . S
C93 O94 1.315 . S
C93 O95 1.279 . S
O94 Cd86 2.223 . S
O94 C93 1.315 . S
O95 Cd85 2.240 . S
O95 C93 1.279 . S
O96 Cd86 2.297 . S
O96 C91 1.247 . S
O97 Cd86 2.439 . S
O97 C91 1.208 . S
O98 Cd99 2.223 . S
O98 C106 1.315 . S
Cd99 O98 2.223 . S
Cd99 O102 2.297 . S
Cd99 O103 2.439 . S
Cd99 O109 2.240 . S
Cd100 O101 2.240 . S
Cd100 O108 2.223 . S
Cd100 O110 2.297 . S
Cd100 O111 2.439 . S
O101 Cd100 2.240 . S
O101 C106 1.279 . S
O102 Cd99 2.297 . S
O102 C104 1.247 . S
O103 Cd99 2.439 . S
O103 C104 1.208 . S
C104 O102 1.247 . S
C104 O103 1.208 . S
C105 O110 1.247 . S
C105 O111 1.208 . S
C106 O98 1.315 . S
C106 O101 1.279 . S
C107 O108 1.315 . S
C107 O109 1.279 . S
O108 Cd100 2.223 . S
O108 C107 1.315 . S
O109 Cd99 2.240 . S
O109 C107 1.279 . S
O110 Cd100 2.297 . S
O110 C105 1.247 . S
O111 Cd100 2.439 . S
O111 C105 1.208 . S
O112 Cd113 2.223 . S
O112 C120 1.315 . S
Cd113 O112 2.223 . S
Cd113 O116 2.297 . S
Cd113 O117 2.439 . S
Cd113 O123 2.240 . S
Cd114 O115 2.240 . S
Cd114 O122 2.223 . S
Cd114 O124 2.297 . S
Cd114 O125 2.439 . S
O115 Cd114 2.240 . S
O115 C120 1.279 . S
O116 Cd113 2.297 . S
O116 C118 1.247 . S
O117 Cd113 2.439 . S
O117 C118 1.208 . S
C118 O116 1.247 . S
C118 O117 1.208 . S
C119 O124 1.247 . S
C119 O125 1.208 . S
C120 O112 1.315 . S
C120 O115 1.279 . S
C121 O122 1.315 . S
C121 O123 1.279 . S
O122 Cd114 2.223 . S
O122 C121 1.315 . S
O123 Cd113 2.240 . S
O123 C121 1.279 . S
O124 Cd114 2.297 . S
O124 C119 1.247 . S
O125 Cd114 2.439 . S
O125 C119 1.208 . S
O126 Cd127 2.223 . S
O126 C134 1.315 . S
Cd127 O126 2.223 . S
Cd127 O130 2.297 . S
Cd127 O131 2.439 . S
Cd127 O137 2.240 . S
Cd128 O129 2.240 . S
Cd128 O136 2.223 . S
Cd128 O138 2.297 . S
Cd128 O139 2.439 . S
O129 Cd128 2.240 . S
O129 C134 1.279 . S
O130 Cd127 2.297 . S
O130 C132 1.247 . S
O131 Cd127 2.439 . S
O131 C132 1.208 . S
C132 O130 1.247 . S
C132 O131 1.208 . S
C133 O138 1.247 . S
C133 O139 1.208 . S
C134 O126 1.315 . S
C134 O129 1.279 . S
C135 O136 1.315 . S
C135 O137 1.279 . S
O136 Cd128 2.223 . S
O136 C135 1.315 . S
O137 Cd127 2.240 . S
O137 C135 1.279 . S
O138 Cd128 2.297 . S
O138 C133 1.247 . S
O139 Cd128 2.439 . S
O139 C133 1.208 . S
O140 Cd141 2.223 . S
O140 C148 1.315 . S
Cd141 O140 2.223 . S
Cd141 O144 2.297 . S
Cd141 O145 2.439 . S
Cd141 O151 2.240 . S
Cd142 O143 2.240 . S
Cd142 O150 2.223 . S
Cd142 O152 2.297 . S
Cd142 O153 2.439 . S
O143 Cd142 2.240 . S
O143 C148 1.279 . S
O144 Cd141 2.297 . S
O144 C146 1.247 . S
O145 Cd141 2.439 . S
O145 C146 1.208 . S
C146 O144 1.247 . S
C146 O145 1.208 . S
C147 O152 1.247 . S
C147 O153 1.208 . S
C148 O140 1.315 . S
C148 O143 1.279 . S
C149 O150 1.315 . S
C149 O151 1.279 . S
O150 Cd142 2.223 . S
O150 C149 1.315 . S
O151 Cd141 2.240 . S
O151 C149 1.279 . S
O152 Cd142 2.297 . S
O152 C147 1.247 . S
O153 Cd142 2.439 . S
O153 C147 1.208 . S
O154 Cd155 2.223 . S
O154 C162 1.315 . S
Cd155 O154 2.223 . S
Cd155 O158 2.297 . S
Cd155 O159 2.439 . S
Cd155 O165 2.240 . S
Cd156 O157 2.240 . S
Cd156 O164 2.223 . S
Cd156 O166 2.297 . S
Cd156 O167 2.439 . S
O157 Cd156 2.240 . S
O157 C162 1.279 . S
O158 Cd155 2.297 . S
O158 C160 1.247 . S
O159 Cd155 2.439 . S
O159 C160 1.208 . S
C160 O158 1.247 . S
C160 O159 1.208 . S
C161 O166 1.247 . S
C161 O167 1.208 . S
C162 O154 1.315 . S
C162 O157 1.279 . S
C163 O164 1.315 . S
C163 O165 1.279 . S
O164 Cd156 2.223 . S
O164 C163 1.315 . S
O165 Cd155 2.240 . S
O165 C163 1.279 . S
O166 Cd156 2.297 . S
O166 C161 1.247 . S
O167 Cd156 2.439 . S
O167 C161 1.208 . S
O168 Cd169 2.223 . S
O168 C176 1.315 . S
Cd169 O168 2.223 . S
Cd169 O172 2.297 . S
Cd169 O173 2.439 . S
Cd169 O179 2.240 . S
Cd170 O171 2.240 . S
Cd170 O178 2.223 . S
Cd170 O180 2.297 . S
Cd170 O181 2.439 . S
O171 Cd170 2.240 . S
O171 C176 1.279 . S
O172 Cd169 2.297 . S
O172 C174 1.247 . S
O173 Cd169 2.439 . S
O173 C174 1.208 . S
C174 O172 1.247 . S
C174 O173 1.208 . S
C175 O180 1.247 . S
C175 O181 1.208 . S
C176 O168 1.315 . S
C176 O171 1.279 . S
C177 O178 1.315 . S
C177 O179 1.279 . S
O178 Cd170 2.223 . S
O178 C177 1.315 . S
O179 Cd169 2.240 . S
O179 C177 1.279 . S
O180 Cd170 2.297 . S
O180 C175 1.247 . S
O181 Cd170 2.439 . S
O181 C175 1.208 . S
O182 Cd183 2.223 . S
O182 C190 1.315 . S
Cd183 O182 2.223 . S
Cd183 O186 2.297 . S
Cd183 O187 2.439 . S
Cd183 O193 2.240 . S
Cd184 O185 2.240 . S
Cd184 O192 2.223 . S
Cd184 O194 2.297 . S
Cd184 O195 2.439 . S
O185 Cd184 2.240 . S
O185 C190 1.279 . S
O186 Cd183 2.297 . S
O186 C188 1.247 . S
O187 Cd183 2.439 . S
O187 C188 1.208 . S
C188 O186 1.247 . S
C188 O187 1.208 . S
C189 O194 1.247 . S
C189 O195 1.208 . S
C190 O182 1.315 . S
C190 O185 1.279 . S
C191 O192 1.315 . S
C191 O193 1.279 . S
O192 Cd184 2.223 . S
O192 C191 1.315 . S
O193 Cd183 2.240 . S
O193 C191 1.279 . S
O194 Cd184 2.297 . S
O194 C189 1.247 . S
O195 Cd184 2.439 . S
O195 C189 1.208 . S
O196 Cd197 2.223 . S
O196 C204 1.315 . S
Cd197 O196 2.223 . S
Cd197 O200 2.297 . S
Cd197 O201 2.439 . S
Cd197 O207 2.240 . S
Cd198 O199 2.240 . S
Cd198 O206 2.223 . S
Cd198 O208 2.297 . S
Cd198 O209 2.439 . S
O199 Cd198 2.240 . S
O199 C204 1.279 . S
O200 Cd197 2.297 . S
O200 C202 1.247 . S
O201 Cd197 2.439 . S
O201 C202 1.208 . S
C202 O200 1.247 . S
C202 O201 1.208 . S
C203 O208 1.247 . S
C203 O209 1.208 . S
C204 O196 1.315 . S
C204 O199 1.279 . S
C205 O206 1.315 . S
C205 O207 1.279 . S
O206 Cd198 2.223 . S
O206 C205 1.315 . S
O207 Cd197 2.240 . S
O207 C205 1.279 . S
O208 Cd198 2.297 . S
O208 C203 1.247 . S
O209 Cd198 2.439 . S
O209 C203 1.208 . S
O210 Cd211 2.223 . S
O210 C218 1.315 . S
Cd211 O210 2.223 . S
Cd211 O214 2.297 . S
Cd211 O215 2.439 . S
Cd211 O221 2.240 . S
Cd212 O213 2.240 . S
Cd212 O220 2.223 . S
Cd212 O222 2.297 . S
Cd212 O223 2.439 . S
O213 Cd212 2.240 . S
O213 C218 1.279 . S
O214 Cd211 2.297 . S
O214 C216 1.247 . S
O215 Cd211 2.439 . S
O215 C216 1.208 . S
C216 O214 1.247 . S
C216 O215 1.208 . S
C217 O222 1.247 . S
C217 O223 1.208 . S
C218 O210 1.315 . S
C218 O213 1.279 . S
C219 O220 1.315 . S
C219 O221 1.279 . S
O220 Cd212 2.223 . S
O220 C219 1.315 . S
O221 Cd211 2.240 . S
O221 C219 1.279 . S
O222 Cd212 2.297 . S
O222 C217 1.247 . S
O223 Cd212 2.439 . S
O223 C217 1.208 . S
H224 C232 0.950 . S
H225 C237 0.950 . S
H226 C234 0.950 . S
H227 C236 0.950 . S
H228 C238 0.950 . S
H229 C240 0.950 . S
H230 C242 0.950 . S
H231 C243 0.950 . S
C232 H224 0.950 . S
C232 C233 1.386 . S
C232 C234 1.391 . S
C233 C232 1.386 . S
C233 C237 1.393 . S
C234 H226 0.950 . S
C234 C232 1.391 . S
C234 C235 1.400 . S
C235 C234 1.400 . S
C235 C236 1.398 . S
C235 C241 1.491 . S
C236 H227 0.950 . S
C236 C235 1.398 . S
C236 C237 1.391 . S
C237 H225 0.950 . S
C237 C233 1.393 . S
C237 C236 1.391 . S
C238 H228 0.950 . S
C238 C239 1.386 . S
C238 C240 1.391 . S
C239 C238 1.386 . S
C239 C243 1.393 . S
C240 H229 0.950 . S
C240 C238 1.391 . S
C240 C241 1.400 . S
C241 C235 1.491 . S
C241 C240 1.400 . S
C241 C242 1.398 . S
C242 H230 0.950 . S
C242 C241 1.398 . S
C242 C243 1.391 . S
C243 H231 0.950 . S
C243 C239 1.393 . S
C243 C242 1.391 . S
H244 C252 0.950 . S
H245 C257 0.950 . S
H246 C254 0.950 . S
H247 C256 0.950 . S
H248 C258 0.950 . S
H249 C260 0.950 . S
H250 C262 0.950 . S
H251 C263 0.950 . S
C252 H244 0.950 . S
C252 C253 1.386 . S
C252 C254 1.391 . S
C253 C252 1.386 . S
C253 C257 1.393 . S
C254 H246 0.950 . S
C254 C252 1.391 . S
C254 C255 1.400 . S
C255 C254 1.400 . S
C255 C256 1.398 . S
C255 C261 1.491 . S
C256 H247 0.950 . S
C256 C255 1.398 . S
C256 C257 1.391 . S
C257 H245 0.950 . S
C257 C253 1.393 . S
C257 C256 1.391 . S
C258 H248 0.950 . S
C258 C259 1.386 . S
C258 C260 1.391 . S
C259 C258 1.386 . S
C259 C263 1.393 . S
C260 H249 0.950 . S
C260 C258 1.391 . S
C260 C261 1.400 . S
C261 C255 1.491 . S
C261 C260 1.400 . S
C261 C262 1.398 . S
C262 H250 0.950 . S
C262 C261 1.398 . S
C262 C263 1.391 . S
C263 H251 0.950 . S
C263 C259 1.393 . S
C263 C262 1.391 . S
H264 C272 0.950 . S
H265 C277 0.950 . S
H266 C274 0.950 . S
H267 C276 0.950 . S
H268 C278 0.950 . S
H269 C280 0.950 . S
H270 C282 0.950 . S
H271 C283 0.950 . S
C272 H264 0.950 . S
C272 C273 1.386 . S
C272 C274 1.391 . S
C273 C272 1.386 . S
C273 C277 1.393 . S
C274 H266 0.950 . S
C274 C272 1.391 . S
C274 C275 1.400 . S
C275 C274 1.400 . S
C275 C276 1.398 . S
C275 C281 1.491 . S
C276 H267 0.950 . S
C276 C275 1.398 . S
C276 C277 1.391 . S
C277 H265 0.950 . S
C277 C273 1.393 . S
C277 C276 1.391 . S
C278 H268 0.950 . S
C278 C279 1.386 . S
C278 C280 1.391 . S
C279 C278 1.386 . S
C279 C283 1.393 . S
C280 H269 0.950 . S
C280 C278 1.391 . S
C280 C281 1.400 . S
C281 C275 1.491 . S
C281 C280 1.400 . S
C281 C282 1.398 . S
C282 H270 0.950 . S
C282 C281 1.398 . S
C282 C283 1.391 . S
C283 H271 0.950 . S
C283 C279 1.393 . S
C283 C282 1.391 . S
H284 C292 0.950 . S
H285 C297 0.950 . S
H286 C294 0.950 . S
H287 C296 0.950 . S
H288 C298 0.950 . S
H289 C300 0.950 . S
H290 C302 0.950 . S
H291 C303 0.950 . S
C292 H284 0.950 . S
C292 C293 1.386 . S
C292 C294 1.391 . S
C293 C292 1.386 . S
C293 C297 1.393 . S
C294 H286 0.950 . S
C294 C292 1.391 . S
C294 C295 1.400 . S
C295 C294 1.400 . S
C295 C296 1.398 . S
C295 C301 1.491 . S
C296 H287 0.950 . S
C296 C295 1.398 . S
C296 C297 1.391 . S
C297 H285 0.950 . S
C297 C293 1.393 . S
C297 C296 1.391 . S
C298 H288 0.950 . S
C298 C299 1.386 . S
C298 C300 1.391 . S
C299 C298 1.386 . S
C299 C303 1.393 . S
C300 H289 0.950 . S
C300 C298 1.391 . S
C300 C301 1.400 . S
C301 C295 1.491 . S
C301 C300 1.400 . S
C301 C302 1.398 . S
C302 H290 0.950 . S
C302 C301 1.398 . S
C302 C303 1.391 . S
C303 H291 0.950 . S
C303 C299 1.393 . S
C303 C302 1.391 . S
H304 C312 0.950 . S
H305 C317 0.950 . S
H306 C314 0.950 . S
H307 C316 0.950 . S
H308 C318 0.950 . S
H309 C320 0.950 . S
H310 C322 0.950 . S
H311 C323 0.950 . S
C312 H304 0.950 . S
C312 C313 1.386 . S
C312 C314 1.391 . S
C313 C312 1.386 . S
C313 C317 1.393 . S
C314 H306 0.950 . S
C314 C312 1.391 . S
C314 C315 1.400 . S
C315 C314 1.400 . S
C315 C316 1.398 . S
C315 C321 1.491 . S
C316 H307 0.950 . S
C316 C315 1.398 . S
C316 C317 1.391 . S
C317 H305 0.950 . S
C317 C313 1.393 . S
C317 C316 1.391 . S
C318 H308 0.950 . S
C318 C319 1.386 . S
C318 C320 1.391 . S
C319 C318 1.386 . S
C319 C323 1.393 . S
C320 H309 0.950 . S
C320 C318 1.391 . S
C320 C321 1.400 . S
C321 C315 1.491 . S
C321 C320 1.400 . S
C321 C322 1.398 . S
C322 H310 0.950 . S
C322 C321 1.398 . S
C322 C323 1.391 . S
C323 H311 0.950 . S
C323 C319 1.393 . S
C323 C322 1.391 . S
H324 C332 0.950 . S
H325 C337 0.950 . S
H326 C334 0.950 . S
H327 C336 0.950 . S
H328 C338 0.950 . S
H329 C340 0.950 . S
H330 C342 0.950 . S
H331 C343 0.950 . S
C332 H324 0.950 . S
C332 C333 1.386 . S
C332 C334 1.391 . S
C333 C332 1.386 . S
C333 C337 1.393 . S
C334 H326 0.950 . S
C334 C332 1.391 . S
C334 C335 1.400 . S
C335 C334 1.400 . S
C335 C336 1.398 . S
C335 C341 1.491 . S
C336 H327 0.950 . S
C336 C335 1.398 . S
C336 C337 1.391 . S
C337 H325 0.950 . S
C337 C333 1.393 . S
C337 C336 1.391 . S
C338 H328 0.950 . S
C338 C339 1.386 . S
C338 C340 1.391 . S
C339 C338 1.386 . S
C339 C343 1.393 . S
C340 H329 0.950 . S
C340 C338 1.391 . S
C340 C341 1.400 . S
C341 C335 1.491 . S
C341 C340 1.400 . S
C341 C342 1.398 . S
C342 H330 0.950 . S
C342 C341 1.398 . S
C342 C343 1.391 . S
C343 H331 0.950 . S
C343 C339 1.393 . S
C343 C342 1.391 . S
H344 C352 0.950 . S
H345 C357 0.950 . S
H346 C354 0.950 . S
H347 C356 0.950 . S
H348 C358 0.950 . S
H349 C360 0.950 . S
H350 C362 0.950 . S
H351 C363 0.950 . S
C352 H344 0.950 . S
C352 C353 1.386 . S
C352 C354 1.391 . S
C353 C352 1.386 . S
C353 C357 1.393 . S
C354 H346 0.950 . S
C354 C352 1.391 . S
C354 C355 1.400 . S
C355 C354 1.400 . S
C355 C356 1.398 . S
C355 C361 1.491 . S
C356 H347 0.950 . S
C356 C355 1.398 . S
C356 C357 1.391 . S
C357 H345 0.950 . S
C357 C353 1.393 . S
C357 C356 1.391 . S
C358 H348 0.950 . S
C358 C359 1.386 . S
C358 C360 1.391 . S
C359 C358 1.386 . S
C359 C363 1.393 . S
C360 H349 0.950 . S
C360 C358 1.391 . S
C360 C361 1.400 . S
C361 C355 1.491 . S
C361 C360 1.400 . S
C361 C362 1.398 . S
C362 H350 0.950 . S
C362 C361 1.398 . S
C362 C363 1.391 . S
C363 H351 0.950 . S
C363 C359 1.393 . S
C363 C362 1.391 . S
H364 C372 0.950 . S
H365 C377 0.950 . S
H366 C374 0.950 . S
H367 C376 0.950 . S
H368 C378 0.950 . S
H369 C380 0.950 . S
H370 C382 0.950 . S
H371 C383 0.950 . S
C372 H364 0.950 . S
C372 C373 1.386 . S
C372 C374 1.391 . S
C373 C372 1.386 . S
C373 C377 1.393 . S
C374 H366 0.950 . S
C374 C372 1.391 . S
C374 C375 1.400 . S
C375 C374 1.400 . S
C375 C376 1.398 . S
C375 C381 1.491 . S
C376 H367 0.950 . S
C376 C375 1.398 . S
C376 C377 1.391 . S
C377 H365 0.950 . S
C377 C373 1.393 . S
C377 C376 1.391 . S
C378 H368 0.950 . S
C378 C379 1.386 . S
C378 C380 1.391 . S
C379 C378 1.386 . S
C379 C383 1.393 . S
C380 H369 0.950 . S
C380 C378 1.391 . S
C380 C381 1.400 . S
C381 C375 1.491 . S
C381 C380 1.400 . S
C381 C382 1.398 . S
C382 H370 0.950 . S
C382 C381 1.398 . S
C382 C383 1.391 . S
C383 H371 0.950 . S
C383 C379 1.393 . S
C383 C382 1.391 . S
H384 C392 0.950 . S
H385 C397 0.950 . S
H386 C394 0.950 . S
H387 C396 0.950 . S
H388 C398 0.950 . S
H389 C400 0.950 . S
H390 C402 0.950 . S
H391 C403 0.950 . S
C392 H384 0.950 . S
C392 C393 1.386 . S
C392 C394 1.391 . S
C393 C392 1.386 . S
C393 C397 1.393 . S
C394 H386 0.950 . S
C394 C392 1.391 . S
C394 C395 1.400 . S
C395 C394 1.400 . S
C395 C396 1.398 . S
C395 C401 1.491 . S
C396 H387 0.950 . S
C396 C395 1.398 . S
C396 C397 1.391 . S
C397 H385 0.950 . S
C397 C393 1.393 . S
C397 C396 1.391 . S
C398 H388 0.950 . S
C398 C399 1.386 . S
C398 C400 1.391 1_554 S
C399 C398 1.386 . S
C399 C403 1.393 . S
C400 H389 0.950 . S
C400 C398 1.391 1_556 S
C400 C401 1.400 . S
C401 C395 1.491 . S
C401 C400 1.400 . S
C401 C402 1.398 . S
C402 H390 0.950 . S
C402 C401 1.398 . S
C402 C403 1.391 1_556 S
C403 H391 0.950 . S
C403 C399 1.393 . S
C403 C402 1.391 1_554 S
H404 C412 0.950 . S
H405 C417 0.950 . S
H406 C414 0.950 . S
H407 C416 0.950 1_554 S
H408 C418 0.950 . S
H409 C420 0.950 . S
H410 C422 0.950 . S
H411 C423 0.950 . S
C412 H404 0.950 . S
C412 C413 1.386 . S
C412 C414 1.391 1_556 S
C413 C412 1.386 . S
C413 C417 1.393 . S
C414 H406 0.950 . S
C414 C412 1.391 1_554 S
C414 C415 1.400 . S
C415 C414 1.400 . S
C415 C416 1.398 1_554 S
C415 C421 1.491 . S
C416 H407 0.950 1_556 S
C416 C415 1.398 1_556 S
C416 C417 1.391 . S
C417 H405 0.950 . S
C417 C413 1.393 . S
C417 C416 1.391 . S
C418 H408 0.950 . S
C418 C419 1.386 . S
C418 C420 1.391 . S
C419 C418 1.386 . S
C419 C423 1.393 . S
C420 H409 0.950 . S
C420 C418 1.391 . S
C420 C421 1.400 . S
C421 C415 1.491 . S
C421 C420 1.400 . S
C421 C422 1.398 . S
C422 H410 0.950 . S
C422 C421 1.398 . S
C422 C423 1.391 . S
C423 H411 0.950 . S
C423 C419 1.393 . S
C423 C422 1.391 . S
H424 C432 0.950 . S
H425 C437 0.950 . S
H426 C434 0.950 . S
H427 C436 0.950 . S
H428 C438 0.950 . S
H429 C440 0.950 . S
H430 C442 0.950 . S
H431 C443 0.950 . S
C432 H424 0.950 . S
C432 C433 1.386 . S
C432 C434 1.391 . S
C433 C432 1.386 . S
C433 C437 1.393 . S
C434 H426 0.950 . S
C434 C432 1.391 . S
C434 C435 1.400 . S
C435 C434 1.400 . S
C435 C436 1.398 . S
C435 C441 1.491 1_556 S
C436 H427 0.950 . S
C436 C435 1.398 . S
C436 C437 1.391 . S
C437 H425 0.950 . S
C437 C433 1.393 . S
C437 C436 1.391 . S
C438 H428 0.950 . S
C438 C439 1.386 . S
C438 C440 1.391 . S
C439 C438 1.386 . S
C439 C443 1.393 . S
C440 H429 0.950 . S
C440 C438 1.391 . S
C440 C441 1.400 . S
C441 C435 1.491 1_554 S
C441 C440 1.400 . S
C441 C442 1.398 . S
C442 H430 0.950 . S
C442 C441 1.398 . S
C442 C443 1.391 . S
C443 H431 0.950 . S
C443 C439 1.393 . S
C443 C442 1.391 . S
H444 C452 0.950 . S
H445 C457 0.950 . S
H446 C454 0.950 . S
H447 C456 0.950 . S
H448 C458 0.950 . S
H449 C460 0.950 . S
H450 C462 0.950 . S
H451 C463 0.950 . S
C452 H444 0.950 . S
C452 C453 1.386 . S
C452 C454 1.391 . S
C453 C452 1.386 . S
C453 C457 1.393 . S
C454 H446 0.950 . S
C454 C452 1.391 . S
C454 C455 1.400 . S
C455 C454 1.400 . S
C455 C456 1.398 . S
C455 C461 1.491 1_554 S
C456 H447 0.950 . S
C456 C455 1.398 . S
C456 C457 1.391 . S
C457 H445 0.950 . S
C457 C453 1.393 . S
C457 C456 1.391 . S
C458 H448 0.950 . S
C458 C459 1.386 . S
C458 C460 1.391 . S
C459 C458 1.386 . S
C459 C463 1.393 . S
C460 H449 0.950 . S
C460 C458 1.391 . S
C460 C461 1.400 . S
C461 C455 1.491 1_556 S
C461 C460 1.400 . S
C461 C462 1.398 . S
C462 H450 0.950 . S
C462 C461 1.398 . S
C462 C463 1.391 . S
C463 H451 0.950 . S
C463 C459 1.393 . S
C463 C462 1.391 . S
H464 C472 0.950 . S
H465 C477 0.950 . S
H466 C474 0.950 . S
H467 C476 0.950 . S
H468 C478 0.950 . S
H469 C480 0.950 . S
H470 C482 0.950 . S
H471 C483 0.950 . S
C472 H464 0.950 . S
C472 C473 1.386 . S
C472 C474 1.391 . S
C473 C472 1.386 . S
C473 C477 1.393 . S
C474 H466 0.950 . S
C474 C472 1.391 . S
C474 C475 1.400 . S
C475 C474 1.400 . S
C475 C476 1.398 . S
C475 C481 1.491 . S
C476 H467 0.950 . S
C476 C475 1.398 . S
C476 C477 1.391 . S
C477 H465 0.950 . S
C477 C473 1.393 . S
C477 C476 1.391 . S
C478 H468 0.950 . S
C478 C479 1.386 . S
C478 C480 1.391 1_655 S
C479 C478 1.386 . S
C479 C483 1.393 . S
C480 H469 0.950 . S
C480 C478 1.391 1_455 S
C480 C481 1.400 . S
C481 C475 1.491 . S
C481 C480 1.400 . S
C481 C482 1.398 1_455 S
C482 H470 0.950 . S
C482 C481 1.398 1_655 S
C482 C483 1.391 . S
C483 H471 0.950 . S
C483 C479 1.393 . S
C483 C482 1.391 . S
H484 C492 0.950 . S
H485 C497 0.950 . S
H486 C494 0.950 1_545 S
H487 C496 0.945 1_545 S
H488 C498 0.950 . S
H489 C500 0.950 . S
H490 C502 0.950 . S
H491 C503 0.950 . S
C492 H484 0.950 . S
C492 C493 1.386 . S
C492 C494 1.391 . S
C493 C492 1.386 . S
C493 C497 1.393 . S
C494 H486 0.950 1_565 S
C494 C492 1.391 . S
C494 C495 1.400 1_565 S
C495 C494 1.400 1_545 S
C495 C496 1.398 1_545 S
C495 C501 1.491 . S
C496 H487 0.945 1_565 S
C496 C495 1.398 1_565 S
C496 C497 1.391 . S
C497 H485 0.950 . S
C497 C493 1.393 . S
C497 C496 1.391 . S
C498 H488 0.950 . S
C498 C499 1.386 . S
C498 C500 1.391 . S
C499 C498 1.386 . S
C499 C503 1.393 . S
C500 H489 0.950 . S
C500 C498 1.391 . S
C500 C501 1.400 . S
C501 C495 1.491 . S
C501 C500 1.400 . S
C501 C502 1.398 . S
C502 H490 0.950 . S
C502 C501 1.398 . S
C502 C503 1.391 . S
C503 H491 0.950 . S
C503 C499 1.393 . S
C503 C502 1.391 . S
H504 C512 0.950 . S
H505 C517 0.950 . S
H506 C514 0.950 . S
H507 C516 0.950 . S
H508 C518 0.950 . S
H509 C520 0.950 . S
H510 C522 0.950 1_655 S
H511 C523 0.950 . S
C512 H504 0.950 . S
C512 C513 1.386 . S
C512 C514 1.391 . S
C513 C512 1.386 . S
C513 C517 1.393 . S
C514 H506 0.950 . S
C514 C512 1.391 . S
C514 C515 1.400 . S
C515 C514 1.400 . S
C515 C516 1.398 . S
C515 C521 1.495 . S
C516 H507 0.950 . S
C516 C515 1.398 . S
C516 C517 1.391 . S
C517 H505 0.950 . S
C517 C513 1.393 . S
C517 C516 1.391 . S
C518 H508 0.950 . S
C518 C519 1.386 . S
C518 C520 1.391 . S
C519 C518 1.386 . S
C519 C523 1.393 . S
C520 H509 0.950 . S
C520 C518 1.391 . S
C520 C521 1.397 1_455 S
C521 C515 1.495 . S
C521 C520 1.397 1_655 S
C521 C522 1.397 1_655 S
C522 H510 0.950 1_455 S
C522 C521 1.397 1_455 S
C522 C523 1.391 . S
C523 H511 0.950 . S
C523 C519 1.393 . S
C523 C522 1.391 . S
H524 C532 0.950 . S
H525 C537 0.950 . S
H526 C534 0.950 . S
H527 C536 0.973 . S
H528 C538 0.950 . S
H529 C540 0.950 . S
H530 C542 0.950 . S
H531 C543 0.950 . S
C532 H524 0.950 . S
C532 C533 1.386 . S
C532 C534 1.391 . S
C533 C532 1.386 . S
C533 C537 1.393 . S
C534 H526 0.950 . S
C534 C532 1.391 . S
C534 C535 1.400 1_545 S
C535 C534 1.400 1_565 S
C535 C536 1.410 . S
C535 C541 1.491 . S
C536 H527 0.973 . S
C536 C535 1.410 . S
C536 C537 1.357 1_565 S
C537 H525 0.950 . S
C537 C533 1.393 . S
C537 C536 1.357 1_545 S
C538 H528 0.950 . S
C538 C539 1.386 . S
C538 C540 1.391 . S
C539 C538 1.386 . S
C539 C543 1.393 . S
C540 H529 0.950 . S
C540 C538 1.391 . S
C540 C541 1.400 . S
C541 C535 1.491 . S
C541 C540 1.400 . S
C541 C542 1.398 . S
C542 H530 0.950 . S
C542 C541 1.398 . S
C542 C543 1.391 . S
C543 H531 0.950 . S
C543 C539 1.393 . S
C543 C542 1.391 . S
H544 C552 0.950 . S
H545 C557 0.950 . S
H546 C554 0.950 . S
H547 C556 0.950 . S
H548 C558 0.950 . S
H549 C560 0.950 . S
H550 C562 0.944 1_655 S
H551 C563 0.950 . S
C552 H544 0.950 . S
C552 C553 1.386 . S
C552 C554 1.391 . S
C553 C552 1.386 . S
C553 C557 1.393 . S
C554 H546 0.950 . S
C554 C552 1.391 . S
C554 C555 1.400 . S
C555 C554 1.400 . S
C555 C556 1.398 . S
C555 C561 1.491 . S
C556 H547 0.950 . S
C556 C555 1.398 . S
C556 C557 1.391 . S
C557 H545 0.950 . S
C557 C553 1.393 . S
C557 C556 1.391 . S
C558 H548 0.950 . S
C558 C559 1.386 . S
C558 C560 1.391 1_455 S
C559 C558 1.386 . S
C559 C563 1.393 . S
C560 H549 0.950 . S
C560 C558 1.391 1_655 S
C560 C561 1.400 . S
C561 C555 1.491 . S
C561 C560 1.400 . S
C561 C562 1.386 1_655 S
C562 H550 0.944 1_455 S
C562 C561 1.386 1_455 S
C562 C563 1.409 . S
C563 H551 0.950 . S
C563 C559 1.393 . S
C563 C562 1.409 . S
H564 C572 0.950 . S
H565 C577 0.950 . S
H566 C574 0.950 . S
H567 C576 0.950 . S
H568 C578 0.950 . S
H569 C580 0.950 . S
H570 C582 0.950 . S
H571 C583 0.950 . S
C572 H564 0.950 . S
C572 C573 1.386 . S
C572 C574 1.391 . S
C573 C572 1.386 . S
C573 C577 1.393 . S
C574 H566 0.950 . S
C574 C572 1.391 . S
C574 C575 1.400 . S
C575 C574 1.400 . S
C575 C576 1.398 . S
C575 C581 1.491 . S
C576 H567 0.950 . S
C576 C575 1.398 . S
C576 C577 1.391 . S
C577 H565 0.950 . S
C577 C573 1.393 . S
C577 C576 1.391 . S
C578 H568 0.950 . S
C578 C579 1.386 . S
C578 C580 1.391 1_545 S
C579 C578 1.386 . S
C579 C583 1.393 . S
C580 H569 0.950 . S
C580 C578 1.391 1_565 S
C580 C581 1.400 . S
C581 C575 1.491 . S
C581 C580 1.400 . S
C581 C582 1.398 . S
C582 H570 0.950 . S
C582 C581 1.398 . S
C582 C583 1.391 1_565 S
C583 H571 0.950 . S
C583 C579 1.393 . S
C583 C582 1.391 1_545 S
H584 C592 0.950 . S
H585 C597 0.950 . S
H586 C594 0.950 . S
H587 C596 0.950 . S
H588 C598 0.950 . S
H589 C600 0.950 . S
H590 C602 0.962 . S
H591 C603 0.950 . S
C592 H584 0.950 . S
C592 C593 1.386 . S
C592 C594 1.391 . S
C593 C592 1.386 . S
C593 C597 1.393 . S
C594 H586 0.950 . S
C594 C592 1.391 . S
C594 C595 1.400 . S
C595 C594 1.400 . S
C595 C596 1.398 . S
C595 C601 1.491 . S
C596 H587 0.950 . S
C596 C595 1.398 . S
C596 C597 1.391 . S
C597 H585 0.950 . S
C597 C593 1.393 . S
C597 C596 1.391 . S
C598 H588 0.950 . S
C598 C599 1.386 . S
C598 C600 1.391 . S
C599 C598 1.386 . S
C599 C603 1.393 . S
C600 H589 0.950 . S
C600 C598 1.391 . S
C600 C601 1.400 1_655 S
C601 C595 1.491 . S
C601 C600 1.400 1_455 S
C601 C602 1.402 . S
C602 H590 0.962 . S
C602 C601 1.402 . S
C602 C603 1.376 1_455 S
C603 H591 0.950 . S
C603 C599 1.393 . S
C603 C602 1.376 1_655 S
H604 C612 0.950 1_565 S
H605 C617 0.950 . S
H606 C614 0.950 . S
H607 C616 0.950 . S
H608 C618 0.950 . S
H609 C620 0.950 . S
H610 C622 0.950 . S
H611 C623 0.950 . S
C612 H604 0.950 1_545 S
C612 C613 1.386 1_545 S
C612 C614 1.391 . S
C613 C612 1.386 1_565 S
C613 C617 1.393 . S
C614 H606 0.950 . S
C614 C612 1.391 . S
C614 C615 1.400 . S
C615 C614 1.400 . S
C615 C616 1.398 . S
C615 C621 1.491 . S
C616 H607 0.950 . S
C616 C615 1.398 . S
C616 C617 1.391 1_545 S
C617 H605 0.950 . S
C617 C613 1.393 . S
C617 C616 1.391 1_565 S
C618 H608 0.950 . S
C618 C619 1.386 . S
C618 C620 1.391 . S
C619 C618 1.386 . S
C619 C623 1.393 . S
C620 H609 0.950 . S
C620 C618 1.391 . S
C620 C621 1.400 . S
C621 C615 1.491 . S
C621 C620 1.400 . S
C621 C622 1.398 . S
C622 H610 0.950 . S
C622 C621 1.398 . S
C622 C623 1.391 . S
C623 H611 0.950 . S
C623 C619 1.393 . S
C623 C622 1.391 . S
H624 C632 0.950 . S
H625 C637 0.950 . S
H626 C634 0.950 . S
H627 C636 0.950 . S
H628 C638 0.950 . S
H629 C640 0.950 . S
H630 C642 0.950 . S
H631 C643 0.950 . S
C632 H624 0.950 . S
C632 C633 1.386 . S
C632 C634 1.391 . S
C633 C632 1.386 . S
C633 C637 1.393 . S
C634 H626 0.950 . S
C634 C632 1.391 . S
C634 C635 1.400 . S
C635 C634 1.400 . S
C635 C636 1.398 . S
C635 C641 1.491 . S
C636 H627 0.950 . S
C636 C635 1.398 . S
C636 C637 1.391 . S
C637 H625 0.950 . S
C637 C633 1.393 . S
C637 C636 1.391 . S
C638 H628 0.950 . S
C638 C639 1.386 . S
C638 C640 1.391 . S
C639 C638 1.386 . S
C639 C643 1.393 . S
C640 H629 0.950 . S
C640 C638 1.391 . S
C640 C641 1.400 . S
C641 C635 1.491 . S
C641 C640 1.400 . S
C641 C642 1.398 . S
C642 H630 0.950 . S
C642 C641 1.398 . S
C642 C643 1.391 . S
C643 H631 0.950 . S
C643 C639 1.393 . S
C643 C642 1.391 . S
H644 C652 0.950 . S
H645 C657 0.950 . S
H646 C654 0.950 . S
H647 C656 0.950 . S
H648 C658 0.950 . S
H649 C660 0.950 . S
H650 C662 0.950 . S
H651 C663 0.950 . S
C652 H644 0.950 . S
C652 C653 1.386 . S
C652 C654 1.391 . S
C653 C652 1.386 . S
C653 C657 1.393 . S
C654 H646 0.950 . S
C654 C652 1.391 . S
C654 C655 1.400 . S
C655 C654 1.400 . S
C655 C656 1.398 . S
C655 C661 1.491 . S
C656 H647 0.950 . S
C656 C655 1.398 . S
C656 C657 1.391 . S
C657 H645 0.950 . S
C657 C653 1.393 . S
C657 C656 1.391 . S
C658 H648 0.950 . S
C658 C659 1.386 . S
C658 C660 1.391 . S
C659 C658 1.386 . S
C659 C663 1.393 . S
C660 H649 0.950 . S
C660 C658 1.391 . S
C660 C661 1.400 . S
C661 C655 1.491 . S
C661 C660 1.400 . S
C661 C662 1.398 . S
C662 H650 0.950 . S
C662 C661 1.398 . S
C662 C663 1.391 . S
C663 H651 0.950 . S
C663 C659 1.393 . S
C663 C662 1.391 . S
H664 C672 0.950 . S
H665 C677 0.950 . S
H666 C674 0.950 . S
H667 C676 0.950 . S
H668 C678 0.950 . S
H669 C680 0.950 . S
H670 C682 0.950 . S
H671 C683 0.950 . S
C672 H664 0.950 . S
C672 C673 1.386 . S
C672 C674 1.391 . S
C673 C672 1.386 . S
C673 C677 1.393 . S
C674 H666 0.950 . S
C674 C672 1.391 . S
C674 C675 1.400 . S
C675 C674 1.400 . S
C675 C676 1.398 . S
C675 C681 1.491 . S
C676 H667 0.950 . S
C676 C675 1.398 . S
C676 C677 1.391 . S
C677 H665 0.950 . S
C677 C673 1.393 . S
C677 C676 1.391 . S
C678 H668 0.950 . S
C678 C679 1.386 . S
C678 C680 1.391 . S
C679 C678 1.386 . S
C679 C683 1.393 . S
C680 H669 0.950 . S
C680 C678 1.391 . S
C680 C681 1.400 . S
C681 C675 1.491 . S
C681 C680 1.400 . S
C681 C682 1.398 . S
C682 H670 0.950 . S
C682 C681 1.398 . S
C682 C683 1.391 . S
C683 H671 0.950 . S
C683 C679 1.393 . S
C683 C682 1.391 . S
H684 C692 0.950 . S
H685 C697 0.950 . S
H686 C694 0.950 . S
H687 C696 0.950 . S
H688 C698 0.950 . S
H689 C700 0.950 . S
H690 C702 0.950 . S
H691 C703 0.950 . S
C692 H684 0.950 . S
C692 C693 1.386 . S
C692 C694 1.391 . S
C693 C692 1.386 . S
C693 C697 1.393 . S
C694 H686 0.950 . S
C694 C692 1.391 . S
C694 C695 1.400 . S
C695 C694 1.400 . S
C695 C696 1.398 . S
C695 C701 1.491 . S
C696 H687 0.950 . S
C696 C695 1.398 . S
C696 C697 1.391 . S
C697 H685 0.950 . S
C697 C693 1.393 . S
C697 C696 1.391 . S
C698 H688 0.950 . S
C698 C699 1.386 . S
C698 C700 1.391 . S
C699 C698 1.386 . S
C699 C703 1.393 . S
C700 H689 0.950 . S
C700 C698 1.391 . S
C700 C701 1.400 . S
C701 C695 1.491 . S
C701 C700 1.400 . S
C701 C702 1.398 . S
C702 H690 0.950 . S
C702 C701 1.398 . S
C702 C703 1.391 . S
C703 H691 0.950 . S
C703 C699 1.393 . S
C703 C702 1.391 . S
H704 C712 0.950 . S
H705 C717 0.950 . S
H706 C714 0.950 . S
H707 C716 0.950 . S
H708 C718 0.950 . S
H709 C720 0.950 . S
H710 C722 0.950 . S
H711 C723 0.950 . S
C712 H704 0.950 . S
C712 C713 1.386 . S
C712 C714 1.391 . S
C713 C712 1.386 . S
C713 C717 1.393 . S
C714 H706 0.950 . S
C714 C712 1.391 . S
C714 C715 1.400 . S
C715 C714 1.400 . S
C715 C716 1.398 . S
C715 C721 1.491 . S
C716 H707 0.950 . S
C716 C715 1.398 . S
C716 C717 1.391 . S
C717 H705 0.950 . S
C717 C713 1.393 . S
C717 C716 1.391 . S
C718 H708 0.950 . S
C718 C719 1.386 . S
C718 C720 1.391 . S
C719 C718 1.386 . S
C719 C723 1.393 . S
C720 H709 0.950 . S
C720 C718 1.391 . S
C720 C721 1.400 . S
C721 C715 1.491 . S
C721 C720 1.400 . S
C721 C722 1.398 . S
C722 H710 0.950 . S
C722 C721 1.398 . S
C722 C723 1.391 . S
C723 H711 0.950 . S
C723 C719 1.393 . S
C723 C722 1.391 . S
H724 C732 0.950 . S
H725 C737 0.950 . S
H726 C734 0.950 . S
H727 C736 0.950 . S
H728 C738 0.950 . S
H729 C740 0.950 . S
H730 C742 0.950 . S
H731 C743 0.950 . S
C732 H724 0.950 . S
C732 C733 1.386 . S
C732 C734 1.391 . S
C733 C732 1.386 . S
C733 C737 1.393 . S
C734 H726 0.950 . S
C734 C732 1.391 . S
C734 C735 1.400 . S
C735 C734 1.400 . S
C735 C736 1.398 . S
C735 C741 1.491 . S
C736 H727 0.950 . S
C736 C735 1.398 . S
C736 C737 1.391 . S
C737 H725 0.950 . S
C737 C733 1.393 . S
C737 C736 1.391 . S
C738 H728 0.950 . S
C738 C739 1.386 . S
C738 C740 1.391 . S
C739 C738 1.386 . S
C739 C743 1.393 . S
C740 H729 0.950 . S
C740 C738 1.391 . S
C740 C741 1.400 . S
C741 C735 1.491 . S
C741 C740 1.400 . S
C741 C742 1.398 . S
C742 H730 0.950 . S
C742 C741 1.398 . S
C742 C743 1.391 . S
C743 H731 0.950 . S
C743 C739 1.393 . S
C743 C742 1.391 . S
H744 C752 0.950 . S
H745 C757 0.950 . S
H746 C754 0.950 . S
H747 C756 0.950 . S
H748 C758 0.950 . S
H749 C760 0.950 . S
H750 C762 0.950 . S
H751 C763 0.950 . S
C752 H744 0.950 . S
C752 C753 1.386 . S
C752 C754 1.391 . S
C753 C752 1.386 . S
C753 C757 1.393 . S
C754 H746 0.950 . S
C754 C752 1.391 . S
C754 C755 1.400 . S
C755 C754 1.400 . S
C755 C756 1.398 . S
C755 C761 1.491 . S
C756 H747 0.950 . S
C756 C755 1.398 . S
C756 C757 1.391 . S
C757 H745 0.950 . S
C757 C753 1.393 . S
C757 C756 1.391 . S
C758 H748 0.950 . S
C758 C759 1.386 . S
C758 C760 1.391 . S
C759 C758 1.386 . S
C759 C763 1.393 . S
C760 H749 0.950 . S
C760 C758 1.391 . S
C760 C761 1.400 . S
C761 C755 1.491 . S
C761 C760 1.400 . S
C761 C762 1.398 . S
C762 H750 0.950 . S
C762 C761 1.398 . S
C762 C763 1.391 . S
C763 H751 0.950 . S
C763 C759 1.393 . S
C763 C762 1.391 . S
H764 C772 0.950 . S
H765 C777 0.950 . S
H766 C774 0.950 . S
H767 C776 0.950 . S
H768 C778 0.950 . S
H769 C780 0.950 . S
H770 C782 0.950 . S
H771 C783 0.950 . S
C772 H764 0.950 . S
C772 C773 1.386 . S
C772 C774 1.391 . S
C773 C772 1.386 . S
C773 C777 1.393 . S
C774 H766 0.950 . S
C774 C772 1.391 . S
C774 C775 1.400 . S
C775 C774 1.400 . S
C775 C776 1.398 . S
C775 C781 1.491 . S
C776 H767 0.950 . S
C776 C775 1.398 . S
C776 C777 1.391 . S
C777 H765 0.950 . S
C777 C773 1.393 . S
C777 C776 1.391 . S
C778 H768 0.950 . S
C778 C779 1.386 . S
C778 C780 1.391 . S
C779 C778 1.386 . S
C779 C783 1.393 . S
C780 H769 0.950 . S
C780 C778 1.391 . S
C780 C781 1.400 . S
C781 C775 1.491 . S
C781 C780 1.400 . S
C781 C782 1.398 . S
C782 H770 0.950 . S
C782 C781 1.398 . S
C782 C783 1.391 . S
C783 H771 0.950 . S
C783 C779 1.393 . S
C783 C782 1.391 . S
H784 C792 0.950 . S
H785 C797 0.950 . S
H786 C794 0.950 . S
H787 C796 0.950 . S
H788 C798 0.950 . S
H789 C800 0.950 . S
H790 C802 0.950 . S
H791 C803 0.950 . S
C792 H784 0.950 . S
C792 C793 1.386 . S
C792 C794 1.391 . S
C793 C792 1.386 . S
C793 C797 1.393 . S
C794 H786 0.950 . S
C794 C792 1.391 . S
C794 C795 1.400 . S
C795 C794 1.400 . S
C795 C796 1.398 . S
C795 C801 1.491 . S
C796 H787 0.950 . S
C796 C795 1.398 . S
C796 C797 1.391 . S
C797 H785 0.950 . S
C797 C793 1.393 . S
C797 C796 1.391 . S
C798 H788 0.950 . S
C798 C799 1.386 . S
C798 C800 1.391 . S
C799 C798 1.386 . S
C799 C803 1.393 . S
C800 H789 0.950 . S
C800 C798 1.391 . S
C800 C801 1.400 . S
C801 C795 1.491 . S
C801 C800 1.400 . S
C801 C802 1.398 . S
C802 H790 0.950 . S
C802 C801 1.398 . S
C802 C803 1.391 . S
C803 H791 0.950 . S
C803 C799 1.393 . S
C803 C802 1.391 . S
H804 C812 0.950 . S
H805 C817 0.950 . S
H806 C814 0.950 . S
H807 C816 0.950 . S
H808 C818 0.950 . S
H809 C820 0.950 . S
H810 C822 0.950 . S
H811 C823 0.950 . S
C812 H804 0.950 . S
C812 C813 1.386 . S
C812 C814 1.391 . S
C813 C812 1.386 . S
C813 C817 1.393 . S
C814 H806 0.950 . S
C814 C812 1.391 . S
C814 C815 1.400 . S
C815 C814 1.400 . S
C815 C816 1.398 . S
C815 C821 1.491 . S
C816 H807 0.950 . S
C816 C815 1.398 . S
C816 C817 1.391 . S
C817 H805 0.950 . S
C817 C813 1.393 . S
C817 C816 1.391 . S
C818 H808 0.950 . S
C818 C819 1.386 . S
C818 C820 1.391 . S
C819 C818 1.386 . S
C819 C823 1.393 . S
C820 H809 0.950 . S
C820 C818 1.391 . S
C820 C821 1.400 . S
C821 C815 1.491 . S
C821 C820 1.400 . S
C821 C822 1.398 . S
C822 H810 0.950 . S
C822 C821 1.398 . S
C822 C823 1.391 . S
C823 H811 0.950 . S
C823 C819 1.393 . S
C823 C822 1.391 . S
H824 C832 0.950 . S
H825 C837 0.950 . S
H826 C834 0.950 . S
H827 C836 0.950 . S
H828 C838 0.950 . S
H829 C840 0.950 . S
H830 C842 0.950 . S
H831 C843 0.950 . S
C832 H824 0.950 . S
C832 C833 1.386 . S
C832 C834 1.391 . S
C833 C832 1.386 . S
C833 C837 1.393 . S
C834 H826 0.950 . S
C834 C832 1.391 . S
C834 C835 1.400 . S
C835 C834 1.400 . S
C835 C836 1.398 . S
C835 C841 1.491 . S
C836 H827 0.950 . S
C836 C835 1.398 . S
C836 C837 1.391 . S
C837 H825 0.950 . S
C837 C833 1.393 . S
C837 C836 1.391 . S
C838 H828 0.950 . S
C838 C839 1.386 . S
C838 C840 1.391 . S
C839 C838 1.386 . S
C839 C843 1.393 . S
C840 H829 0.950 . S
C840 C838 1.391 . S
C840 C841 1.400 . S
C841 C835 1.491 . S
C841 C840 1.400 . S
C841 C842 1.398 . S
C842 H830 0.950 . S
C842 C841 1.398 . S
C842 C843 1.391 . S
C843 H831 0.950 . S
C843 C839 1.393 . S
C843 C842 1.391 . S
H844 C852 0.950 . S
H845 C857 0.950 . S
H846 C854 0.950 . S
H847 C856 0.950 . S
H848 C858 0.950 . S
H849 C860 0.950 . S
H850 C862 0.950 . S
H851 C863 0.950 . S
C852 H844 0.950 . S
C852 C853 1.386 . S
C852 C854 1.391 . S
C853 C852 1.386 . S
C853 C857 1.393 . S
C854 H846 0.950 . S
C854 C852 1.391 . S
C854 C855 1.400 . S
C855 C854 1.400 . S
C855 C856 1.398 . S
C855 C861 1.491 . S
C856 H847 0.950 . S
C856 C855 1.398 . S
C856 C857 1.391 . S
C857 H845 0.950 . S
C857 C853 1.393 . S
C857 C856 1.391 . S
C858 H848 0.950 . S
C858 C859 1.386 . S
C858 C860 1.391 . S
C859 C858 1.386 . S
C859 C863 1.393 . S
C860 H849 0.950 . S
C860 C858 1.391 . S
C860 C861 1.400 . S
C861 C855 1.491 . S
C861 C860 1.400 . S
C861 C862 1.398 . S
C862 H850 0.950 . S
C862 C861 1.398 . S
C862 C863 1.391 . S
C863 H851 0.950 . S
C863 C859 1.393 . S
C863 C862 1.391 . S
C233 C216 1.100 . S
C239 C6 1.159 . S
C253 C174 1.204 . S
C259 C20 1.197 . S
C273 C34 1.263 . S
C279 C188 1.156 . S
C293 C202 1.287 . S
C299 C48 1.399 . S
C313 C132 1.199 . S
C319 C62 1.206 . S
C333 C76 1.177 . S
C339 C146 1.257 . S
C353 C90 1.324 . S
C359 C160 1.403 . S
C373 C104 1.111 . S
C379 C118 1.155 . S
C393 C79 2.046 . S
C399 C7 1.881 . S
C413 C91 1.373 . S
C419 C21 1.385 . S
C433 C107 1.428 . S
C439 C35 1.301 . S
C453 C49 1.476 . S
C459 C64 1.624 . S
C473 C8 1.303 . S
C479 C23 1.244 . S
C493 C37 1.389 . S
C499 C22 1.416 . S
C513 C36 1.452 . S
C519 C51 1.454 . S
C533 C9 1.710 . S
C539 C50 1.714 . S
C553 C106 1.581 . S
C559 C65 1.476 . S
C573 C63 1.367 . S
C579 C77 1.278 . S
C593 C78 1.598 . S
C599 C92 1.581 . S
C613 C105 1.621 . S
C619 C93 1.788 . S
C633 C191 2.046 . S
C639 C119 1.882 . S
C653 C133 1.380 . S
C659 C203 1.375 . S
C673 C219 1.430 . S
C679 C147 1.262 . S
C693 C176 1.624 . S
C699 C161 1.470 . S
C713 C120 1.298 . S
C719 C135 1.262 . S
C733 C134 1.411 . S
C739 C149 1.402 . S
C753 C163 1.457 . S
C759 C148 1.442 . S
C773 C121 1.717 . S
C779 C162 1.706 . S
C793 C218 1.588 . S
C799 C177 1.503 . S
C813 C175 1.366 . S
C819 C189 1.311 . S
C833 C190 1.592 . S
C839 C204 1.582 . S
C853 C217 1.638 . S
C859 C205 1.787 . S
