# Generated by pormake.
# Topology snl, (6)-cn, num edge types: 1
# Building blocks:
#     Node 0, Type 0, BuildingBlock: KUMBOL_clean_sbu_0, # of connection points: 6
#     Node 1, Type 0, BuildingBlock: KUMBOL_clean_sbu_0, # of connection points: 6
#     Node 2, Type 0, BuildingBlock: KUMBOL_clean_sbu_0, # of connection points: 6
#     Node 3, Type 0, BuildingBlock: KUMBOL_clean_sbu_0, # of connection points: 6
#     Node 4, Type 0, BuildingBlock: KUMBOL_clean_sbu_0, # of connection points: 6
#     Node 5, Type 0, BuildingBlock: KUMBOL_clean_sbu_0, # of connection points: 6
#     Node 6, Type 0, BuildingBlock: KUMBOL_clean_sbu_0, # of connection points: 6
#     Node 7, Type 0, BuildingBlock: KUMBOL_clean_sbu_0, # of connection points: 6
#     Node 8, Type 0, BuildingBlock: KUMBOL_clean_sbu_0, # of connection points: 6
#     Node 9, Type 0, BuildingBlock: KUMBOL_clean_sbu_0, # of connection points: 6
#     Node 10, Type 0, BuildingBlock: KUMBOL_clean_sbu_0, # of connection points: 6
#     Node 11, Type 0, BuildingBlock: KUMBOL_clean_sbu_0, # of connection points: 6
#     Node 12, Type 0, BuildingBlock: KUMBOL_clean_sbu_0, # of connection points: 6
#     Node 13, Type 0, BuildingBlock: KUMBOL_clean_sbu_0, # of connection points: 6
#     Node 14, Type 0, BuildingBlock: KUMBOL_clean_sbu_0, # of connection points: 6
#     Node 15, Type 0, BuildingBlock: KUMBOL_clean_sbu_0, # of connection points: 6
#     Edge 16, Type (0, 0), BuildingBlock: CIFDUS_clean_linker_0, # of connection points: 2
#     Edge 17, Type (0, 0), BuildingBlock: CIFDUS_clean_linker_0, # of connection points: 2
#     Edge 18, Type (0, 0), BuildingBlock: CIFDUS_clean_linker_0, # of connection points: 2
#     Edge 19, Type (0, 0), BuildingBlock: CIFDUS_clean_linker_0, # of connection points: 2
#     Edge 20, Type (0, 0), BuildingBlock: CIFDUS_clean_linker_0, # of connection points: 2
#     Edge 21, Type (0, 0), BuildingBlock: CIFDUS_clean_linker_0, # of connection points: 2
#     Edge 22, Type (0, 0), BuildingBlock: CIFDUS_clean_linker_0, # of connection points: 2
#     Edge 23, Type (0, 0), BuildingBlock: CIFDUS_clean_linker_0, # of connection points: 2
#     Edge 24, Type (0, 0), BuildingBlock: CIFDUS_clean_linker_0, # of connection points: 2
#     Edge 25, Type (0, 0), BuildingBlock: CIFDUS_clean_linker_0, # of connection points: 2
#     Edge 26, Type (0, 0), BuildingBlock: CIFDUS_clean_linker_0, # of connection points: 2
#     Edge 27, Type (0, 0), BuildingBlock: CIFDUS_clean_linker_0, # of connection points: 2
#     Edge 28, Type (0, 0), BuildingBlock: CIFDUS_clean_linker_0, # of connection points: 2
#     Edge 29, Type (0, 0), BuildingBlock: CIFDUS_clean_linker_0, # of connection points: 2
#     Edge 30, Type (0, 0), BuildingBlock: CIFDUS_clean_linker_0, # of connection points: 2
#     Edge 31, Type (0, 0), BuildingBlock: CIFDUS_clean_linker_0, # of connection points: 2
#     Edge 32, Type (0, 0), BuildingBlock: CIFDUS_clean_linker_0, # of connection points: 2
#     Edge 33, Type (0, 0), BuildingBlock: CIFDUS_clean_linker_0, # of connection points: 2
#     Edge 34, Type (0, 0), BuildingBlock: CIFDUS_clean_linker_0, # of connection points: 2
#     Edge 35, Type (0, 0), BuildingBlock: CIFDUS_clean_linker_0, # of connection points: 2
#     Edge 36, Type (0, 0), BuildingBlock: CIFDUS_clean_linker_0, # of connection points: 2
#     Edge 37, Type (0, 0), BuildingBlock: CIFDUS_clean_linker_0, # of connection points: 2
#     Edge 38, Type (0, 0), BuildingBlock: CIFDUS_clean_linker_0, # of connection points: 2
#     Edge 39, Type (0, 0), BuildingBlock: CIFDUS_clean_linker_0, # of connection points: 2
#     Edge 40, Type (0, 0), BuildingBlock: CIFDUS_clean_linker_0, # of connection points: 2
#     Edge 41, Type (0, 0), BuildingBlock: CIFDUS_clean_linker_0, # of connection points: 2
#     Edge 42, Type (0, 0), BuildingBlock: CIFDUS_clean_linker_0, # of connection points: 2
#     Edge 43, Type (0, 0), BuildingBlock: CIFDUS_clean_linker_0, # of connection points: 2
#     Edge 44, Type (0, 0), BuildingBlock: CIFDUS_clean_linker_0, # of connection points: 2
#     Edge 45, Type (0, 0), BuildingBlock: CIFDUS_clean_linker_0, # of connection points: 2
#     Edge 46, Type (0, 0), BuildingBlock: CIFDUS_clean_linker_0, # of connection points: 2
#     Edge 47, Type (0, 0), BuildingBlock: CIFDUS_clean_linker_0, # of connection points: 2
#     Edge 48, Type (0, 0), BuildingBlock: CIFDUS_clean_linker_0, # of connection points: 2
#     Edge 49, Type (0, 0), BuildingBlock: CIFDUS_clean_linker_0, # of connection points: 2
#     Edge 50, Type (0, 0), BuildingBlock: CIFDUS_clean_linker_0, # of connection points: 2
#     Edge 51, Type (0, 0), BuildingBlock: CIFDUS_clean_linker_0, # of connection points: 2
#     Edge 52, Type (0, 0), BuildingBlock: CIFDUS_clean_linker_0, # of connection points: 2
#     Edge 53, Type (0, 0), BuildingBlock: CIFDUS_clean_linker_0, # of connection points: 2
#     Edge 54, Type (0, 0), BuildingBlock: CIFDUS_clean_linker_0, # of connection points: 2
#     Edge 55, Type (0, 0), BuildingBlock: CIFDUS_clean_linker_0, # of connection points: 2
#     Edge 56, Type (0, 0), BuildingBlock: CIFDUS_clean_linker_0, # of connection points: 2
#     Edge 57, Type (0, 0), BuildingBlock: CIFDUS_clean_linker_0, # of connection points: 2
#     Edge 58, Type (0, 0), BuildingBlock: CIFDUS_clean_linker_0, # of connection points: 2
#     Edge 59, Type (0, 0), BuildingBlock: CIFDUS_clean_linker_0, # of connection points: 2
#     Edge 60, Type (0, 0), BuildingBlock: CIFDUS_clean_linker_0, # of connection points: 2
#     Edge 61, Type (0, 0), BuildingBlock: CIFDUS_clean_linker_0, # of connection points: 2
#     Edge 62, Type (0, 0), BuildingBlock: CIFDUS_clean_linker_0, # of connection points: 2
#     Edge 63, Type (0, 0), BuildingBlock: CIFDUS_clean_linker_0, # of connection points: 2
# Relax obj value: 0.166
# Max RMSD: 0.254
# Mean RMSD: 0.245
data_MOF--net-snl--node1-KUMBOL_clean_sbu_0--edge1-CIFDUS_clean_linker_0
_symmetry_space_group_name_H-M    P1
_symmetry_Int_Tables_number       1
_symmetry_cell_setting            triclinic
loop_
_symmetry_equiv_pos_as_xyz
'x, y, z'
_cell_length_a     49.031728
_cell_length_b     49.103412
_cell_length_c     23.035308
_cell_angle_alpha  90.240564
_cell_angle_beta   90.689548
_cell_angle_gamma 90.056301
loop_
_atom_site_label
_atom_site_type_symbol
_atom_site_fract_x
_atom_site_fract_y
_atom_site_fract_z
_atom_type_partial_charge
Gd0 Gd 0.15672 0.6421 0.05358 0.0
Gd1 Gd 0.13151 0.62478 0.19359 0.0
C2 C 0.15248 0.53535 0.23229 0.0
C3 C 0.10761 0.51533 0.24303 0.0
C4 C 0.1123 0.56373 0.22187 0.0
C5 C 0.14048 0.56114 0.22198 0.0
C6 C 0.09564 0.54071 0.23183 0.0
C7 C 0.13595 0.51268 0.24344 0.0
C8 C 0.18077 0.53278 0.22968 0.0
C9 C 0.19644 0.55529 0.21539 0.0
N10 N 0.15608 0.5833 0.20948 0.0
C11 C 0.18381 0.58028 0.20482 0.0
H12 H 0.19678 0.59635 0.1904 0.0
C13 C 0.07332 0.59155 0.21131 0.0
N14 N 0.10104 0.58836 0.20979 0.0
C15 C 0.05619 0.56914 0.21755 0.0
C16 C 0.06732 0.54363 0.22863 0.0
H17 H 0.06423 0.61144 0.20569 0.0
H18 H 0.1449 0.49285 0.25142 0.0
H19 H 0.11398 0.69309 0.01589 0.0
H20 H 0.19065 0.51336 0.23716 0.0
H21 H 0.21833 0.55333 0.21141 0.0
H22 H 0.0951 0.49753 0.25075 0.0
H23 H 0.22115 0.61803 0.05582 0.0
H24 H 0.15797 0.74519 0.90269 0.0
H25 H 0.11441 0.72948 0.94358 0.0
H26 H 0.25058 0.71704 0.92731 0.0
H27 H 0.03443 0.57158 0.21308 0.0
H28 H 0.0539 0.52632 0.23433 0.0
H29 H 0.20891 0.74222 0.90169 0.0
H30 H 0.26641 0.6318 0.02125 0.0
N31 N 0.15686 0.68606 0.01325 0.0
C32 C 0.15796 0.72875 0.93392 0.0
C33 C 0.13337 0.72012 0.95736 0.0
C34 C 0.1823 0.71644 0.95205 0.0
C35 C 0.18106 0.69431 0.99095 0.0
C36 C 0.1333 0.69945 0.9989 0.0
N37 N 0.20174 0.65523 0.03144 0.0
C38 C 0.20434 0.67917 1.00267 0.0
C39 C 0.2492 0.64538 0.01607 0.0
C40 C 0.25238 0.67035 0.98836 0.0
C41 C 0.22349 0.63772 0.03581 0.0
C42 C 0.22969 0.68715 0.97961 0.0
H43 H 0.27218 0.67588 0.9716 0.0
O44 O 0.16696 0.61419 0.98392 0.0
O45 O 0.13732 0.60774 0.10327 0.0
O46 O 0.17612 0.63738 0.20868 0.0
O47 O 0.19119 0.65364 0.1195 0.0
O48 O 0.17446 0.60046 0.06624 0.0
O49 O 0.13544 0.64411 0.96956 0.0
O50 O 0.10434 0.64261 0.2564 0.0
O51 O 0.1467 0.65904 0.13936 0.0
O52 O 0.10966 0.64974 0.05794 0.0
O53 O 0.09642 0.62034 0.13021 0.0
O54 O 0.1136 0.66801 0.18795 0.0
O55 O 0.14231 0.62434 0.2859 0.0
C56 C 0.15376 0.58878 0.08918 0.0
C57 C 0.2313 0.71062 0.94526 0.0
C58 C 0.20757 0.72493 0.9306 0.0
C59 C 0.15091 0.62568 0.94591 0.0
C60 C 0.16339 0.6324 0.88944 0.0
C61 C 0.1913 0.63866 0.88653 0.0
C62 C 0.14787 0.63139 0.83758 0.0
C63 C 0.16021 0.63687 0.78368 0.0
C64 C 0.20322 0.64541 0.83407 0.0
C65 C 0.18783 0.6447 0.78303 0.0
C66 C 0.19552 0.64804 0.17577 0.0
C67 C 0.13077 0.67836 0.15226 0.0
C68 C 0.11943 0.63584 0.30103 0.0
C69 C 0.10526 0.62519 0.35269 0.0
C70 C 0.07761 0.61767 0.34986 0.0
C71 C 0.11879 0.62502 0.40692 0.0
C72 C 0.10489 0.61741 0.45769 0.0
C73 C 0.06397 0.60942 0.39954 0.0
C74 C 0.07745 0.60929 0.45315 0.0
C75 C 0.09022 0.63647 0.0866 0.0
H76 H 0.20418 0.63788 0.92451 0.0
H77 H 0.1266 0.62545 0.83909 0.0
H78 H 0.22464 0.65072 0.83286 0.0
H79 H 0.1977 0.64995 0.74278 0.0
H80 H 0.06627 0.61876 0.30966 0.0
H81 H 0.1398 0.63181 0.40983 0.0
H82 H 0.0427 0.60356 0.3966 0.0
H83 H 0.06635 0.60291 0.49113 0.0
Gd84 Gd 0.63289 0.91152 0.29849 0.0
Gd85 Gd 0.66366 0.88351 0.43061 0.0
C86 C 0.75347 0.85926 0.42939 0.0
C87 C 0.75063 0.8099 0.43468 0.0
C88 C 0.70946 0.83734 0.43797 0.0
C89 C 0.72479 0.86075 0.43215 0.0
C90 C 0.72216 0.81166 0.43969 0.0
C91 C 0.76628 0.83368 0.42989 0.0
C92 C 0.76838 0.88353 0.42683 0.0
C93 C 0.75467 0.90843 0.42825 0.0
N94 N 0.71168 0.88505 0.4308 0.0
C95 C 0.72617 0.90883 0.43077 0.0
H96 H 0.7159 0.92823 0.43136 0.0
C97 C 0.66628 0.81752 0.45465 0.0
N98 N 0.68205 0.83975 0.44296 0.0
C99 C 0.67785 0.79153 0.45541 0.0
C100 C 0.70585 0.78857 0.44665 0.0
H101 H 0.64452 0.81976 0.45992 0.0
H102 H 0.78827 0.83209 0.42721 0.0
H103 H 0.57902 0.86948 0.28851 0.0
H104 H 0.79044 0.88328 0.42461 0.0
H105 H 0.76602 0.92732 0.42706 0.0
H106 H 0.76076 0.7903 0.43558 0.0
H107 H 0.65669 0.97535 0.28586 0.0
H108 H 0.50863 0.9165 0.24437 0.0
H109 H 0.52999 0.87203 0.26571 0.0
H110 H 0.54327 1.00747 0.23256 0.0
H111 H 0.66506 0.77381 0.46126 0.0
H112 H 0.71472 0.76846 0.44523 0.0
H113 H 0.51404 0.96682 0.22995 0.0
H114 H 0.63906 0.02118 0.26449 0.0
N115 N 0.58526 0.91237 0.28501 0.0
C116 C 0.53005 0.91562 0.25622 0.0
C117 C 0.54207 0.89047 0.26789 0.0
C118 C 0.54598 0.93925 0.25835 0.0
C119 C 0.57382 0.937 0.27378 0.0
C120 C 0.56993 0.88916 0.28117 0.0
N121 N 0.61758 0.9564 0.28316 0.0
C122 C 0.5905 0.95973 0.27301 0.0
C123 C 0.62517 1.00409 0.26678 0.0
C124 C 0.59732 1.00787 0.25667 0.0
C125 C 0.63507 0.97802 0.27887 0.0
C126 C 0.57968 0.98549 0.25864 0.0
H127 H 0.58976 0.028 0.24611 0.0
O128 O 0.65131 0.92136 0.21571 0.0
O129 O 0.67113 0.89491 0.33838 0.0
O130 O 0.66654 0.92962 0.42559 0.0
O131 O 0.62922 0.94349 0.37089 0.0
O132 O 0.67525 0.92945 0.29017 0.0
O133 O 0.62349 0.88725 0.2217 0.0
O134 O 0.6487 0.87238 0.51574 0.0
O135 O 0.6256 0.8985 0.38872 0.0
O136 O 0.62748 0.86472 0.30484 0.0
O137 O 0.6645 0.85131 0.36171 0.0
O138 O 0.6206 0.86645 0.44405 0.0
O139 O 0.67556 0.90714 0.50656 0.0
C140 C 0.68874 0.91109 0.31789 0.0
C141 C 0.55189 0.98792 0.24439 0.0
C142 C 0.5352 0.96479 0.24326 0.0
C143 C 0.63834 0.90216 0.18755 0.0
C144 C 0.62604 0.90977 0.13126 0.0
C145 C 0.60152 0.92435 0.12871 0.0
C146 C 0.63898 0.90238 0.07934 0.0
C147 C 0.62739 0.90943 0.02503 0.0
C148 C 0.58992 0.93139 0.07536 0.0
C149 C 0.60265 0.92396 0.02386 0.0
C150 C 0.64736 0.94774 0.41337 0.0
C151 C 0.60776 0.8831 0.41042 0.0
C152 C 0.66246 0.89151 0.54244 0.0
C153 C 0.67725 0.88356 0.59564 0.0
C154 C 0.70118 0.86806 0.59293 0.0
C155 C 0.6673 0.89175 0.64991 0.0
C156 C 0.6812 0.88467 0.70165 0.0
C157 C 0.71505 0.86087 0.64386 0.0
C158 C 0.70522 0.86911 0.69786 0.0
C159 C 0.64472 0.84575 0.32424 0.0
H160 H 0.59127 0.93021 0.16776 0.0
H161 H 0.65812 0.89139 0.08135 0.0
H162 H 0.57087 0.94251 0.07392 0.0
H163 H 0.59283 0.92923 0.98307 0.0
H164 H 0.70916 0.86161 0.55159 0.0
H165 H 0.64857 0.90343 0.6517 0.0
H166 H 0.73359 0.849 0.64148 0.0
H167 H 0.71668 0.86364 0.73656 0.0
Gd168 Gd 0.38997 0.41706 0.71003 0.0
Gd169 Gd 0.35959 0.38977 0.57732 0.0
C170 C 0.27049 0.36259 0.57492 0.0
C171 C 0.2747 0.31377 0.55949 0.0
C172 C 0.31515 0.34241 0.56334 0.0
C173 C 0.29914 0.36505 0.57327 0.0
C174 C 0.30314 0.31656 0.55571 0.0
C175 C 0.25839 0.33677 0.56886 0.0
C176 C 0.25487 0.3862 0.58155 0.0
C177 C 0.26787 0.41147 0.58504 0.0
N178 N 0.31154 0.38963 0.5791 0.0
C179 C 0.29634 0.41285 0.58309 0.0
H180 H 0.30603 0.43253 0.58597 0.0
C181 C 0.35891 0.32467 0.54352 0.0
N182 N 0.34248 0.34586 0.55918 0.0
C183 C 0.34806 0.29853 0.53686 0.0
C184 C 0.32007 0.29437 0.5437 0.0
H185 H 0.38059 0.32777 0.53894 0.0
H186 H 0.23644 0.33443 0.57048 0.0
H187 H 0.44447 0.37589 0.72144 0.0
H188 H 0.23281 0.3852 0.58301 0.0
H189 H 0.25597 0.42991 0.58932 0.0
H190 H 0.2651 0.29402 0.55408 0.0
H191 H 0.36501 0.48028 0.72575 0.0
H192 H 0.51388 0.42411 0.76829 0.0
H193 H 0.49325 0.37927 0.74604 0.0
H194 H 0.47754 0.51426 0.78307 0.0
H195 H 0.3614 0.28165 0.52723 0.0
H196 H 0.31164 0.27411 0.53901 0.0
H197 H 0.50731 0.47416 0.78553 0.0
H198 H 0.38172 0.52628 0.74978 0.0
N199 N 0.43755 0.41868 0.72513 0.0
C200 C 0.49251 0.42286 0.75603 0.0
C201 C 0.48092 0.39751 0.74375 0.0
C202 C 0.47622 0.44621 0.75389 0.0
C203 C 0.44852 0.4435 0.73736 0.0
C204 C 0.45318 0.39572 0.72938 0.0
N205 N 0.40448 0.46213 0.72774 0.0
C206 C 0.43145 0.46591 0.73861 0.0
C207 C 0.39595 0.50951 0.7467 0.0
C208 C 0.42368 0.51378 0.75741 0.0
C209 C 0.38656 0.48335 0.73307 0.0
C210 C 0.44173 0.49178 0.75457 0.0
H211 H 0.43082 0.53396 0.76925 0.0
O212 O 0.37156 0.42665 0.79317 0.0
O213 O 0.35184 0.39885 0.67124 0.0
O214 O 0.35533 0.43591 0.58442 0.0
O215 O 0.39262 0.45023 0.6389 0.0
O216 O 0.34753 0.43401 0.71822 0.0
O217 O 0.39927 0.39256 0.78607 0.0
O218 O 0.37437 0.38065 0.49077 0.0
O219 O 0.39722 0.40574 0.61929 0.0
O220 O 0.39659 0.37014 0.70131 0.0
O221 O 0.36098 0.35538 0.64134 0.0
O222 O 0.40323 0.37455 0.56178 0.0
O223 O 0.34639 0.41421 0.50392 0.0
C224 C 0.33415 0.41473 0.6928 0.0
C225 C 0.46937 0.49466 0.7698 0.0
C226 C 0.48643 0.47185 0.77048 0.0
C227 C 0.38449 0.40737 0.82073 0.0
C228 C 0.39684 0.41479 0.87732 0.0
C229 C 0.42201 0.42824 0.88039 0.0
C230 C 0.38335 0.40826 0.92903 0.0
C231 C 0.39504 0.41507 0.98352 0.0
C232 C 0.43368 0.43512 0.9339 0.0
C233 C 0.4204 0.42855 0.98514 0.0
C234 C 0.37388 0.45467 0.59753 0.0
C235 C 0.41551 0.39134 0.59638 0.0
C236 C 0.3597 0.39961 0.46624 0.0
C237 C 0.34475 0.39188 0.41288 0.0
C238 C 0.3203 0.37715 0.41539 0.0
C239 C 0.355 0.39957 0.35867 0.0
C240 C 0.34086 0.39279 0.30687 0.0
C241 C 0.30621 0.37024 0.36442 0.0
C242 C 0.31633 0.37801 0.31051 0.0
C243 C 0.38064 0.35035 0.67949 0.0
H244 H 0.4328 0.4333 0.84165 0.0
H245 H 0.36374 0.39806 0.92671 0.0
H246 H 0.45322 0.44539 0.93567 0.0
H247 H 0.43028 0.43359 0.02609 0.0
H248 H 0.31202 0.37115 0.4566 0.0
H249 H 0.3741 0.41066 0.35696 0.0
H250 H 0.28727 0.35898 0.36671 0.0
H251 H 0.30468 0.37282 0.27178 0.0
Gd252 Gd 0.87257 0.1519 0.96298 0.0
Gd253 Gd 0.89715 0.13474 0.82076 0.0
C254 C 0.89802 0.04255 0.78786 0.0
C255 C 0.94625 0.03361 0.77532 0.0
C256 C 0.93037 0.07991 0.79267 0.0
C257 C 0.90371 0.0706 0.79527 0.0
C258 C 0.9518 0.06153 0.78104 0.0
C259 C 0.91944 0.02413 0.77895 0.0
C260 C 0.87094 0.03375 0.78915 0.0
C261 C 0.85021 0.05275 0.79634 0.0
N262 N 0.88335 0.08886 0.80435 0.0
C263 C 0.85672 0.08028 0.80329 0.0
H264 H 0.84008 0.0941 0.80979 0.0
C265 C 0.96086 0.11716 0.78929 0.0
N266 N 0.93529 0.10695 0.7994 0.0
C267 C 0.98262 0.0998 0.77732 0.0
C268 C 0.97815 0.07179 0.77403 0.0
H269 H 0.96451 0.13887 0.79225 0.0
H270 H 0.91542 1.00254 0.77374 0.0
H271 H 0.9333 0.18857 0.95507 0.0
H272 H 0.8658 1.01241 0.7839 0.0
H273 H 0.82913 0.0462 0.79688 0.0
H274 H 0.96251 0.01922 0.76711 0.0
H275 H 0.80434 0.16271 0.97438 0.0
H276 H 0.92984 0.24803 0.08997 0.0
H277 H 0.95577 0.22327 0.01504 0.0
H278 H 0.83494 0.25148 0.13533 0.0
H279 H 1.00278 0.10809 0.77058 0.0
H280 H 0.995 0.0583 0.76455 0.0
H281 H 0.88461 0.25839 0.13471 0.0
H282 H 0.77415 0.19242 0.02985 0.0
N283 N 0.89463 0.19229 0.99603 0.0
C284 C 0.91976 0.23255 0.06378 0.0
C285 C 0.93442 0.21869 0.02147 0.0
C286 C 0.89186 0.2275 0.06916 0.0
C287 C 0.87967 0.20731 0.03348 0.0
C288 C 0.92148 0.19868 0.98767 0.0
N289 N 0.84087 0.18406 0.99824 0.0
C290 C 0.85178 0.20344 0.03377 0.0
C291 C 0.79593 0.19603 0.03075 0.0
C292 C 0.80698 0.21579 0.06771 0.0
C293 C 0.81324 0.1798 0.99744 0.0
C294 C 0.83522 0.21959 0.06994 0.0
H295 H 0.79357 0.22789 0.09452 0.0
O296 O 0.84761 0.12788 0.01984 0.0
O297 O 0.88901 0.11762 0.90982 0.0
O298 O 0.85108 0.13957 0.81321 0.0
O299 O 0.8364 0.15874 0.90012 0.0
O300 O 0.85061 0.11294 0.9437 0.0
O301 O 0.8858 0.14409 0.05263 0.0
O302 O 0.91396 0.15925 0.75205 0.0
O303 O 0.88053 0.16859 0.87571 0.0
O304 O 0.91919 0.14294 0.97179 0.0
O305 O 0.93372 0.13113 0.87905 0.0
O306 O 0.91594 0.17675 0.83176 0.0
O307 O 0.88117 0.13113 0.73196 0.0
C308 C 0.87094 0.09996 0.92206 0.0
C309 C 0.84732 0.23901 0.10708 0.0
C310 C 0.87562 0.24285 0.10697 0.0
C311 C 0.86327 0.13134 0.06515 0.0
C312 C 0.84938 0.13835 0.11998 0.0
C313 C 0.82114 0.14346 0.12053 0.0
C314 C 0.8638 0.13747 0.17306 0.0
C315 C 0.85021 0.14163 0.22606 0.0
C316 C 0.80785 0.14873 0.17242 0.0
C317 C 0.82218 0.14773 0.22488 0.0
C318 C 0.83172 0.14993 0.84613 0.0
C319 C 0.89745 0.18725 0.86432 0.0
C320 C 0.89878 0.14841 0.71141 0.0
C321 C 0.91232 0.14154 0.65617 0.0
C322 C 0.94072 0.13805 0.65361 0.0
C323 C 0.89699 0.14105 0.60421 0.0
C324 C 0.90989 0.1371 0.55039 0.0
C325 C 0.95342 0.1329 0.60097 0.0
C326 C 0.93819 0.13247 0.54962 0.0
C327 C 0.93863 0.13591 0.93436 0.0
H328 H 0.80901 0.14269 0.08114 0.0
H329 H 0.88543 0.13293 0.17308 0.0
H330 H 0.78614 0.15273 0.17211 0.0
H331 H 0.81098 0.15063 0.26465 0.0
H332 H 0.9534 0.14026 0.69164 0.0
H333 H 0.87517 0.14451 0.60561 0.0
H334 H 0.97531 0.1302 0.59974 0.0
H335 H 0.94883 0.12977 0.50908 0.0
Gd336 Gd 0.13599 0.39546 0.81975 0.0
Gd337 Gd 0.16125 0.37856 0.96313 0.0
C338 C 0.25019 0.40819 0.96609 0.0
C339 C 0.27461 0.36798 0.93438 0.0
C340 C 0.22527 0.36641 0.94638 0.0
C341 C 0.22528 0.39367 0.96216 0.0
C342 C 0.25015 0.35312 0.9342 0.0
C343 C 0.27464 0.39544 0.95046 0.0
C344 C 0.24992 0.435 0.98653 0.0
C345 C 0.2255 0.4463 1.0051 0.0
N346 N 0.20122 0.40569 0.97602 0.0
C347 C 0.20145 0.43112 1.00091 0.0
H348 H 0.18346 0.43996 0.0195 0.0
C349 C 0.2019 0.32451 0.94521 0.0
N350 N 0.20134 0.35242 0.94727 0.0
C351 C 0.22584 0.31055 0.93186 0.0
C352 C 0.24997 0.32501 0.92474 0.0
H353 H 0.18423 0.31243 0.95512 0.0
H354 H 0.2938 0.40645 0.95219 0.0
H355 H 0.09729 0.33862 0.83135 0.0
H356 H 0.26856 0.44679 0.99006 0.0
H357 H 0.22523 0.4666 0.02356 0.0
H358 H 0.29377 0.35817 0.92423 0.0
H359 H 0.13856 0.45991 0.77545 0.0
H360 H 0.01595 0.35698 0.77786 0.0
H361 H 0.05029 0.32402 0.81338 0.0
H362 H 0.02134 0.45015 0.71909 0.0
H363 H 0.22571 0.28858 0.92816 0.0
H364 H 0.2686 0.3141 0.91517 0.0
H365 H 1.00543 0.40396 0.74211 0.0
H366 H 0.10787 0.49503 0.73523 0.0
N367 N 0.09028 0.38014 0.80929 0.0
C368 C 0.03669 0.36367 0.78634 0.0
C369 C 0.05602 0.34502 0.80623 0.0
C370 C 0.04455 0.39056 0.77615 0.0
C371 C 0.07177 0.39831 0.78848 0.0
C372 C 0.08288 0.35352 0.81655 0.0
N373 N 0.10703 0.43057 0.78638 0.0
C374 C 0.08047 0.42437 0.77662 0.0
C375 C 0.09982 0.4753 0.74703 0.0
C376 C 0.07229 0.46935 0.73775 0.0
C377 C 0.11706 0.45542 0.77038 0.0
C378 C 0.06239 0.44349 0.75163 0.0
H379 H 0.05903 0.4846 0.71867 0.0
O380 O 0.15098 0.40919 0.73616 0.0
O381 O 0.17464 0.3856 0.86983 0.0
O382 O 0.14716 0.42277 0.96768 0.0
O383 O 0.13706 0.43581 0.87235 0.0
O384 O 0.17292 0.42134 0.8204 0.0
O385 O 0.14065 0.36692 0.74852 0.0
O386 O 0.16559 0.35119 0.03626 0.0
O387 O 0.12482 0.39018 0.91097 0.0
O388 O 0.14549 0.34938 0.82732 0.0
O389 O 0.14767 0.33838 0.92529 0.0
O390 O 0.11721 0.36396 0.97722 0.0
O391 O 0.15695 0.39392 0.05101 0.0
C392 C 0.18857 0.40585 0.851 0.0
C393 C 0.03533 0.43592 0.73939 0.0
C394 C 0.02632 0.4096 0.75222 0.0
C395 C 0.14781 0.38551 0.71161 0.0
C396 C 0.13328 0.38521 0.6555 0.0
C397 C 0.10474 0.38351 0.65303 0.0
C398 C 0.14805 0.38606 0.60379 0.0
C399 C 0.13432 0.3852 0.54982 0.0
C400 C 0.09098 0.38347 0.59982 0.0
C401 C 0.10562 0.38437 0.54843 0.0
C402 C 0.14106 0.44158 0.92854 0.0
C403 C 0.10579 0.37755 0.93578 0.0
C404 C 0.16265 0.37052 0.07454 0.0
C405 C 0.18215 0.37093 0.12326 0.0
C406 C 0.21038 0.37218 0.11462 0.0
C407 C 0.17207 0.36993 0.17969 0.0
C408 C 0.18993 0.36993 0.22787 0.0
C409 C 0.22829 0.3727 0.16227 0.0
C410 C 0.21818 0.37161 0.21873 0.0
C411 C 0.14652 0.33127 0.87016 0.0
H412 H 0.09308 0.38184 0.692 0.0
H413 H 0.17016 0.38661 0.60564 0.0
H414 H 0.06893 0.38242 0.59842 0.0
H415 H 0.09448 0.38426 0.50753 0.0
H416 H 0.21856 0.3726 0.07136 0.0
H417 H 0.15019 0.36924 0.18602 0.0
H418 H 0.25007 0.3737 0.15543 0.0
H419 H 0.23242 0.37154 0.25504 0.0
Gd420 Gd 0.89052 0.90977 0.19542 0.0
Gd421 Gd 0.8657 0.89535 0.05113 0.0
C422 C 0.77296 0.88972 0.0491 0.0
C423 C 0.76536 0.84211 0.0245 0.0
C424 C 0.81151 0.85995 0.03284 0.0
C425 C 0.80135 0.88532 0.04726 0.0
C426 C 0.79361 0.83835 0.01894 0.0
C427 C 0.75504 0.86776 0.0397 0.0
C428 C 0.76346 0.91631 0.05745 0.0
C429 C 0.78211 0.93781 0.0612 0.0
N430 N 0.81919 0.90622 0.05442 0.0
C431 C 0.81009 0.93237 0.05915 0.0
H432 H 0.82442 0.94899 0.06238 0.0
C433 C 0.84945 0.83442 1.00113 0.0
N434 N 0.83884 0.85721 0.02666 0.0
C435 C 0.83254 0.8125 0.98642 0.0
C436 C 0.80455 0.8142 0.99664 0.0
H437 H 0.87113 0.83302 0.9936 0.0
H438 H 0.73317 0.87066 0.04162 0.0
H439 H 0.88783 0.85931 0.29247 0.0
H440 H 0.7418 0.92057 0.05904 0.0
H441 H 0.77497 0.95852 0.06616 0.0
H442 H 0.75127 0.82564 0.0148 0.0
H443 H 0.92868 0.96005 0.14047 0.0
H444 H 0.96928 0.83868 0.34497 0.0
H445 H 0.91951 0.83102 0.35075 0.0
H446 H 0.02332 0.90669 0.2521 0.0
H447 H 0.84112 0.79444 0.9668 0.0
H448 H 0.79144 0.79722 0.98486 0.0
H449 H 1.00794 0.86696 0.30764 0.0
H450 H 0.97652 0.97485 0.14095 0.0
N451 N 0.91948 0.88131 0.2509 0.0
C452 C 0.95549 0.85087 0.31875 0.0
C453 C 0.92743 0.8465 0.3222 0.0
C454 C 0.96533 0.87179 0.28364 0.0
C455 C 0.94651 0.88703 0.25024 0.0
C456 C 0.90959 0.86249 0.28907 0.0
N457 N 0.93623 0.92415 0.1895 0.0
C458 C 0.95511 0.90933 0.21912 0.0
C459 C 0.9708 0.95627 0.16283 0.0
C460 C 0.99052 0.94075 0.19154 0.0
C461 C 0.9436 0.9477 0.16246 0.0
C462 C 0.98284 0.91706 0.2204 0.0
H463 H 1.01152 0.9474 0.19211 0.0
O464 O 0.89494 0.94662 0.24728 0.0
O465 O 0.85238 0.90971 0.14015 0.0
O466 O 0.87748 0.93946 0.05186 0.0
O467 O 0.87969 0.95046 0.14998 0.0
O468 O 0.85227 0.88722 0.21639 0.0
O469 O 0.87225 0.91279 0.28111 0.0
O470 O 0.88116 0.88475 0.96554 0.0
O471 O 0.9028 0.90609 0.10357 0.0
O472 O 0.89442 0.86349 0.17925 0.0
O473 O 0.86387 0.85636 0.10246 0.0
O474 O 0.90652 0.87397 0.04554 0.0
O475 O 0.85668 0.9208 0.97645 0.0
C476 C 0.83721 0.89589 0.17425 0.0
C477 C 1.00188 0.90126 0.25136 0.0
C478 C 0.99314 0.8786 0.2828 0.0
C479 C 0.88368 0.93605 0.29288 0.0
C480 C 0.89912 0.93778 0.34855 0.0
C481 C 0.92688 0.94492 0.34935 0.0
C482 C 0.8862 0.93177 0.40142 0.0
C483 C 0.90075 0.93318 0.45481 0.0
C484 C 0.94135 0.94638 0.40169 0.0
C485 C 0.92846 0.94076 0.45395 0.0
C486 C 0.87881 0.95745 0.0941 0.0
C487 C 0.9193 0.88856 0.08379 0.0
C488 C 0.86902 0.90498 0.93973 0.0
C489 C 0.85419 0.89877 0.88516 0.0
C490 C 0.82732 0.88901 0.88613 0.0
C491 C 0.86676 0.90331 0.8314 0.0
C492 C 0.85255 0.89822 0.77872 0.0
C493 C 0.81324 0.88366 0.83435 0.0
C494 C 0.82568 0.88823 0.78104 0.0
C495 C 0.87903 0.84725 0.14606 0.0
H496 H 0.93748 0.94945 0.30958 0.0
H497 H 0.86495 0.9257 0.40067 0.0
H498 H 0.96268 0.95209 0.4018 0.0
H499 H 0.94022 0.9428 0.4938 0.0
H500 H 0.81715 0.88573 0.92679 0.0
H501 H 0.88738 0.91128 0.83069 0.0
H502 H 0.79254 0.87601 0.83553 0.0
H503 H 0.81432 0.88364 0.74157 0.0
Gd504 Gd 0.38608 0.64768 0.46364 0.0
Gd505 Gd 0.40313 0.63282 0.31687 0.0
C506 C 0.36506 0.54861 0.27914 0.0
C507 C 0.39991 0.51806 0.31654 0.0
C508 C 0.40736 0.5671 0.31728 0.0
C509 C 0.3817 0.57118 0.2939 0.0
C510 C 0.41714 0.54043 0.327 0.0
C511 C 0.37387 0.52214 0.29265 0.0
C512 C 0.34073 0.55317 0.24858 0.0
C513 C 0.33457 0.57941 0.22976 0.0
N514 N 0.37398 0.59706 0.28114 0.0
C515 C 0.35196 0.60098 0.24468 0.0
H516 H 0.34744 0.62085 0.22702 0.0
C517 C 0.45042 0.58572 0.33998 0.0
N518 N 0.42331 0.58921 0.3278 0.0
C519 C 0.4611 0.55977 0.35045 0.0
C520 C 0.44419 0.53703 0.34536 0.0
H521 H 0.46423 0.60271 0.34041 0.0
H522 H 0.36117 0.50463 0.28253 0.0
H523 H 0.44004 0.68973 0.46445 0.0
H524 H 0.32739 0.53643 0.23645 0.0
H525 H 0.31664 0.58301 0.20303 0.0
H526 H 0.40688 0.49748 0.32479 0.0
H527 H 0.32015 0.63844 0.49594 0.0
H528 H 0.42252 0.75475 0.58146 0.0
H529 H 0.45489 0.73045 0.51821 0.0
H530 H 0.32772 0.74284 0.62167 0.0
H531 H 0.48243 0.55732 0.36184 0.0
H532 H 0.4525 0.51694 0.35332 0.0
H533 H 0.37493 0.75965 0.6186 0.0
H534 H 0.28379 0.66244 0.54865 0.0
N535 N 0.39899 0.69177 0.49271 0.0
C536 C 0.41567 0.73718 0.55666 0.0
C537 C 0.43396 0.72362 0.52081 0.0
C538 C 0.38861 0.7283 0.55913 0.0
C539 C 0.3807 0.70533 0.52586 0.0
C540 C 0.42531 0.70067 0.48957 0.0
N541 N 0.3485 0.67116 0.5029 0.0
C542 C 0.35443 0.6952 0.52951 0.0
C543 C 0.30341 0.67211 0.54292 0.0
C544 C 0.30892 0.69727 0.56877 0.0
C545 C 0.32384 0.65885 0.51194 0.0
C546 C 0.33494 0.70868 0.56395 0.0
H547 H 0.29336 0.7071 0.59445 0.0
O548 O 0.37895 0.61682 0.529 0.0
O549 O 0.39853 0.61348 0.40511 0.0
O550 O 0.35792 0.64255 0.31541 0.0
O551 O 0.34656 0.65524 0.40957 0.0
O552 O 0.36081 0.61062 0.44397 0.0
O553 O 0.40497 0.6504 0.55054 0.0
O554 O 0.44019 0.64069 0.26839 0.0
O555 O 0.40259 0.66677 0.38322 0.0
O556 O 0.43243 0.63948 0.4581 0.0
O557 O 0.44273 0.64545 0.36082 0.0
O558 O 0.38668 0.67562 0.3025 0.0
O559 O 0.40169 0.6348 0.22189 0.0
C560 C 0.37947 0.59677 0.41791 0.0
C561 C 0.3424 0.73226 0.59499 0.0
C562 C 0.36931 0.74175 0.59349 0.0
C563 C 0.39227 0.6292 0.57007 0.0
C564 C 0.37817 0.6317 0.6265 0.0
C565 C 0.34989 0.62719 0.62976 0.0
C566 C 0.39306 0.63686 0.67817 0.0
C567 C 0.37975 0.63753 0.73229 0.0
C568 C 0.33655 0.62886 0.68264 0.0
C569 C 0.35129 0.63403 0.73352 0.0
C570 C 0.33987 0.65037 0.35413 0.0
C571 C 0.39197 0.68591 0.35314 0.0
C572 C 0.42769 0.6394 0.21847 0.0
C573 C 0.44196 0.64322 0.16275 0.0
C574 C 0.46993 0.64932 0.1629 0.0
C575 C 0.42805 0.64017 0.10916 0.0
C576 C 0.44202 0.64276 0.05611 0.0
C577 C 0.48387 0.65196 0.11081 0.0
C578 C 0.47014 0.64859 0.05785 0.0
C579 C 0.45033 0.6424 0.41559 0.0
H580 H 0.33799 0.62184 0.59163 0.0
H581 H 0.41499 0.63941 0.67639 0.0
H582 H 0.31473 0.62569 0.68432 0.0
H583 H 0.34036 0.63511 0.77406 0.0
H584 H 0.48113 0.65195 0.20332 0.0
H585 H 0.40638 0.63585 0.10884 0.0
H586 H 0.5055 0.6564 0.11149 0.0
H587 H 0.48173 0.65011 0.01828 0.0
Gd588 Gd 0.63039 0.12919 0.70551 0.0
Gd589 Gd 0.65523 0.152 0.5675 0.0
C590 C 0.74278 0.12115 0.53745 0.0
C591 C 0.76661 0.16317 0.51648 0.0
C592 C 0.71847 0.16397 0.54194 0.0
C593 C 0.71833 0.1359 0.54607 0.0
C594 C 0.74283 0.17791 0.52842 0.0
C595 C 0.76656 0.13482 0.52086 0.0
C596 C 0.74311 0.09327 0.5488 0.0
C597 C 0.72019 0.08116 0.57239 0.0
N598 N 0.69514 0.12335 0.56388 0.0
C599 C 0.69675 0.09666 0.58125 0.0
H600 H 0.68088 0.08727 0.60545 0.0
C601 C 0.69524 0.20568 0.55378 0.0
N602 N 0.69535 0.17781 0.55483 0.0
C603 C 0.71909 0.22023 0.54257 0.0
C604 C 0.74288 0.20633 0.52899 0.0
H605 H 0.67674 0.21702 0.56087 0.0
H606 H 0.78532 0.12374 0.5135 0.0
H607 H 0.57218 0.16305 0.71813 0.0
H608 H 0.76145 0.08132 0.54292 0.0
H609 H 0.72079 0.06001 0.58546 0.0
H610 H 0.78535 0.17355 0.50546 0.0
H611 H 0.66302 0.06794 0.72796 0.0
H612 H 0.50718 0.10522 0.7169 0.0
H613 H 0.52313 0.15307 0.71911 0.0
H614 H 0.55287 0.0196 0.73574 0.0
H615 H 0.71914 0.24221 0.54406 0.0
H616 H 0.76125 0.21773 0.51974 0.0
H617 H 0.51823 0.05556 0.72648 0.0
H618 H 0.65066 0.02014 0.74136 0.0
N619 N 0.58374 0.12136 0.71571 0.0
C620 C 0.52868 0.10956 0.72001 0.0
C621 C 0.53759 0.13655 0.72075 0.0
C622 C 0.54764 0.08843 0.7224 0.0
C623 C 0.57552 0.09508 0.72067 0.0
C624 C 0.5654 0.14213 0.7192 0.0
N625 N 0.62179 0.08202 0.721 0.0
C626 C 0.59504 0.07484 0.72472 0.0
C627 C 0.63482 0.03531 0.73634 0.0
C628 C 0.60745 0.02757 0.73694 0.0
C629 C 0.64171 0.06268 0.72873 0.0
C630 C 0.58716 0.04739 0.73125 0.0
H631 H 0.60222 1.00628 0.74226 0.0
O632 O 0.65529 0.13445 0.7838 0.0
O633 O 0.66695 0.14801 0.6617 0.0
O634 O 0.6443 0.10824 0.5501 0.0
O635 O 0.62582 0.09394 0.63842 0.0
O636 O 0.67318 0.11358 0.71048 0.0
O637 O 0.61252 0.1419 0.7881 0.0
O638 O 0.63996 0.186 0.51613 0.0
O639 O 0.61803 0.14897 0.62329 0.0
O640 O 0.62045 0.17484 0.69428 0.0
O641 O 0.65248 0.18886 0.62734 0.0
O642 O 0.61201 0.13984 0.53769 0.0
O643 O 0.66089 0.15192 0.47354 0.0
C644 C 0.68545 0.13272 0.68317 0.0
C645 C 0.55933 0.0406 0.73156 0.0
C646 C 0.53961 0.06107 0.72645 0.0
C647 C 0.63516 0.14027 0.81741 0.0
C648 C 0.6346 0.12558 0.87329 0.0
C649 C 0.63628 0.09709 0.87428 0.0
C650 C 0.63385 0.14006 0.92624 0.0
C651 C 0.63502 0.12611 0.97985 0.0
C652 C 0.63734 0.08319 0.9269 0.0
C653 C 0.63677 0.09752 0.9793 0.0
C654 C 0.63208 0.08993 0.58282 0.0
C655 C 0.59984 0.14154 0.58679 0.0
C656 C 0.64851 0.17527 0.46767 0.0
C657 C 0.64464 0.18877 0.41069 0.0
C658 C 0.63932 0.21679 0.40902 0.0
C659 C 0.64626 0.17413 0.35789 0.0
C660 C 0.64259 0.18749 0.30396 0.0
C661 C 0.63607 0.23019 0.35624 0.0
C662 C 0.63779 0.21578 0.30417 0.0
C663 C 0.63488 0.19441 0.66889 0.0
H664 H 0.63708 0.08558 0.83442 0.0
H665 H 0.63291 0.16211 0.92564 0.0
H666 H 0.63867 0.06119 0.92708 0.0
H667 H 0.63729 0.08614 0.01947 0.0
H668 H 0.63796 0.22842 0.44864 0.0
H669 H 0.64983 0.15237 0.35895 0.0
H670 H 0.63234 0.25192 0.3557 0.0
H671 H 0.63569 0.22697 0.26398 0.0
Gd672 Gd 0.89637 0.40751 0.82425 0.0
Gd673 Gd 0.87569 0.37754 0.9617 0.0
C674 C 0.84353 0.29121 0.98226 0.0
C675 C 0.7953 0.2985 0.99889 0.0
C676 C 0.82606 0.33693 0.98806 0.0
C677 C 0.84747 0.31947 0.97848 0.0
C678 C 0.79993 0.32672 1.00085 0.0
C679 C 0.8171 0.28074 0.989 0.0
C680 C 0.86643 0.27445 0.98202 0.0
C681 C 0.89247 0.28597 0.9827 0.0
N682 N 0.87273 0.33019 0.97166 0.0
C683 C 0.89526 0.31412 0.97766 0.0
H684 H 0.91546 0.32278 0.97638 0.0
C685 C 0.81211 0.38185 1.0089 0.0
N686 N 0.83138 0.36399 0.98922 0.0
C687 C 0.78597 0.37269 0.0229 0.0
C688 C 0.77964 0.34507 0.01743 0.0
H689 H 0.81651 0.4033 0.01278 0.0
H690 H 0.81353 0.25901 0.98918 0.0
H691 H 0.83224 0.43659 0.82916 0.0
H692 H 0.8641 0.2527 0.98126 0.0
H693 H 0.91039 0.2732 0.98391 0.0
H694 H 0.77524 0.2902 1.00711 0.0
H695 H 0.96281 0.42004 0.79843 0.0
H696 H 0.84155 0.52225 0.84412 0.0
H697 H 0.81223 0.48144 0.83843 0.0
H698 H 0.93774 0.53624 0.83526 0.0
H699 H 0.77065 0.38699 0.03722 0.0
H700 H 0.75934 0.33803 0.02795 0.0
H701 H 0.88825 0.54238 0.8437 0.0
H702 H 0.99465 0.45888 0.80319 0.0
N703 N 0.87369 0.45044 0.82885 0.0
C704 C 0.85076 0.50231 0.83949 0.0
C705 C 0.83417 0.47935 0.83628 0.0
C706 C 0.879 0.49931 0.83632 0.0
C707 C 0.89004 0.47284 0.83053 0.0
C708 C 0.84592 0.45357 0.83074 0.0
N709 N 0.92801 0.44384 0.82012 0.0
C710 C 0.91796 0.4694 0.82661 0.0
C711 C 0.97313 0.46212 0.80931 0.0
C712 C 0.96338 0.48828 0.81965 0.0
C713 C 0.955 0.44017 0.8076 0.0
C714 C 0.93545 0.49231 0.82712 0.0
H715 H 0.9775 0.50528 0.82049 0.0
O716 O 0.91913 0.3999 0.74561 0.0
O717 O 0.88467 0.36912 0.86923 0.0
O718 O 0.92201 0.37103 0.94764 0.0
O719 O 0.93475 0.40328 0.87901 0.0
O720 O 0.91464 0.36558 0.80785 0.0
O721 O 0.87653 0.41185 0.74016 0.0
O722 O 0.87153 0.39683 0.04649 0.0
O723 O 0.8916 0.41543 0.91947 0.0
O724 O 0.8518 0.39459 0.81476 0.0
O725 O 0.83767 0.37532 0.90206 0.0
O726 O 0.8582 0.41939 0.97193 0.0
O727 O 0.90286 0.36669 0.03299 0.0
C728 C 0.89973 0.35199 0.84328 0.0
C729 C 0.92457 0.51851 0.83418 0.0
C730 C 0.89641 0.522 0.83882 0.0
C731 C 0.89857 0.40588 0.71162 0.0
C732 C 0.90445 0.4225 0.66048 0.0
C733 C 0.91164 0.45003 0.66543 0.0
C734 C 0.90272 0.41028 0.60548 0.0
C735 C 0.90844 0.42524 0.55506 0.0
C736 C 0.9173 0.46511 0.6157 0.0
C737 C 0.91578 0.45285 0.56082 0.0
C738 C 0.94094 0.3855 0.92007 0.0
C739 C 0.87589 0.43269 0.9429 0.0
C740 C 0.8903 0.38186 0.07061 0.0
C741 C 0.88315 0.3689 0.12586 0.0
C742 C 0.87221 0.34248 0.12699 0.0
C743 C 0.88737 0.38311 0.17822 0.0
C744 C 0.881 0.37093 0.23161 0.0
C745 C 0.8657 0.33036 0.17967 0.0
C746 C 0.87007 0.34442 0.23171 0.0
C747 C 0.83284 0.38335 0.84765 0.0
H748 H 0.91283 0.45985 0.70742 0.0
H749 H 0.89656 0.38912 0.60209 0.0
H750 H 0.92297 0.48635 0.61969 0.0
H751 H 0.92065 0.4649 0.52307 0.0
H752 H 0.86879 0.33114 0.08742 0.0
H753 H 0.89602 0.40343 0.17739 0.0
H754 H 0.85725 0.30998 0.18013 0.0
H755 H 0.86465 0.33466 0.27205 0.0
Gd756 Gd 0.37888 0.14172 0.56704 0.0
Gd757 Gd 0.40312 0.12186 0.70782 0.0
C758 C 0.48177 0.13978 0.80341 0.0
C759 C 0.4945 0.09488 0.83837 0.0
C760 C 0.45713 0.10002 0.76872 0.0
C761 C 0.46093 0.1279 0.76895 0.0
C762 C 0.47453 0.08309 0.8019 0.0
C763 C 0.49791 0.12322 0.83961 0.0
C764 C 0.48639 0.1678 0.79881 0.0
C765 C 0.47163 0.18278 0.75785 0.0
N766 N 0.44479 0.14324 0.7339 0.0
C767 C 0.45094 0.17009 0.72529 0.0
H768 H 0.44009 0.18206 0.69357 0.0
C769 C 0.4323 0.06188 0.73434 0.0
N770 N 0.43638 0.08951 0.73618 0.0
C771 C 0.45025 0.0442 0.76303 0.0
C772 C 0.47121 0.05486 0.79777 0.0
H773 H 0.4143 0.05328 0.71385 0.0
H774 H 0.51386 0.13201 0.86676 0.0
H775 H 0.32402 0.10128 0.58007 0.0
H776 H 0.50231 0.1777 0.82423 0.0
H777 H 0.47599 0.20418 0.75165 0.0
H778 H 0.50773 0.08224 0.86492 0.0
H779 H 0.40246 0.19838 0.50578 0.0
H780 H 0.25222 0.1494 0.55552 0.0
H781 H 0.27394 0.10517 0.57773 0.0
H782 H 0.28761 0.23411 0.48759 0.0
H783 H 0.44694 0.02242 0.76103 0.0
H784 H 0.4844 0.04117 0.82188 0.0
H785 H 0.25755 0.19771 0.52237 0.0
H786 H 0.3844 0.24057 0.46206 0.0
N787 N 0.3308 0.1435 0.56506 0.0
C788 C 0.27425 0.14798 0.55792 0.0
C789 C 0.28643 0.12296 0.57026 0.0
C790 C 0.29068 0.17045 0.54529 0.0
C791 C 0.31928 0.16755 0.54932 0.0
C792 C 0.31487 0.12092 0.57206 0.0
N793 N 0.3635 0.1839 0.53129 0.0
C794 C 0.33615 0.1882 0.5305 0.0
C795 C 0.37064 0.22614 0.48172 0.0
C796 C 0.34262 0.23107 0.48155 0.0
C797 C 0.38079 0.20225 0.50657 0.0
C798 C 0.32498 0.21213 0.50645 0.0
H799 H 0.33476 0.24923 0.46076 0.0
O800 O 0.39693 0.14417 0.48121 0.0
O801 O 0.41557 0.12804 0.61778 0.0
O802 O 0.39485 0.16893 0.70786 0.0
O803 O 0.37709 0.18078 0.61662 0.0
O804 O 0.4225 0.15845 0.56002 0.0
O805 O 0.36512 0.11483 0.49761 0.0
O806 O 0.3852 0.09773 0.77599 0.0
O807 O 0.36592 0.13622 0.66034 0.0
O808 O 0.37467 0.09599 0.57839 0.0
O809 O 0.41018 0.087 0.64136 0.0
O810 O 0.36303 0.09978 0.7038 0.0
O811 O 0.39749 0.13948 0.79386 0.0
C812 C 0.43407 0.14341 0.59874 0.0
C813 C 0.29658 0.21575 0.50542 0.0
C814 C 0.27945 0.19503 0.52528 0.0
C815 C 0.37956 0.12702 0.45834 0.0
C816 C 0.36457 0.13665 0.40638 0.0
C817 C 0.33763 0.14594 0.41079 0.0
C818 C 0.3774 0.13747 0.35226 0.0
C819 C 0.36375 0.1485 0.30336 0.0
C820 C 0.32454 0.15812 0.36378 0.0
C821 C 0.33762 0.15986 0.31068 0.0
C822 C 0.38522 0.18724 0.66965 0.0
C823 C 0.34893 0.11896 0.67996 0.0
C824 C 0.38822 0.11673 0.81534 0.0
C825 C 0.39933 0.10824 0.87236 0.0
C826 C 0.41522 0.08463 0.87814 0.0
C827 C 0.3926 0.12303 0.92245 0.0
C828 C 0.4022 0.11457 0.97734 0.0
C829 C 0.42605 0.07706 0.93183 0.0
C830 C 0.41969 0.09199 0.9813 0.0
C831 C 0.39339 0.07911 0.59854 0.0
H832 H 0.32657 0.14378 0.45042 0.0
H833 H 0.39763 0.12887 0.34836 0.0
H834 H 0.30407 0.16601 0.36839 0.0
H835 H 0.32694 0.16967 0.27512 0.0
H836 H 0.41876 0.07157 0.84164 0.0
H837 H 0.37923 0.14054 0.91897 0.0
H838 H 0.43858 0.05899 0.93537 0.0
H839 H 0.42714 0.08491 0.02304 0.0
Gd840 Gd 0.67029 0.64146 0.44364 0.0
Gd841 Gd 0.63629 0.62065 0.30813 0.0
C842 C 0.54494 0.604 0.28802 0.0
C843 C 0.5435 0.5546 0.28271 0.0
C844 C 0.58693 0.57822 0.29301 0.0
C845 C 0.57355 0.60295 0.29511 0.0
C846 C 0.57212 0.5538 0.28539 0.0
C847 C 0.52994 0.57969 0.2837 0.0
C848 C 0.53241 0.62941 0.28215 0.0
C849 C 0.54848 0.65286 0.28075 0.0
N850 N 0.58872 0.62607 0.29793 0.0
C851 C 0.57676 0.6508 0.28837 0.0
H852 H 0.58887 0.66913 0.28737 0.0
C853 C 0.62875 0.55488 0.28227 0.0
N854 N 0.61459 0.57828 0.29362 0.0
C855 C 0.615 0.53008 0.2756 0.0
C856 C 0.58656 0.52947 0.278 0.0
H857 H 0.65076 0.55527 0.28055 0.0
H858 H 0.50796 0.58015 0.27858 0.0
H859 H 0.72115 0.59672 0.4212 0.0
H860 H 0.5105 0.63106 0.27689 0.0
H861 H 0.53908 0.67257 0.27443 0.0
H862 H 0.53173 0.53605 0.27736 0.0
H863 H 0.6531 0.70137 0.50089 0.0
H864 H 0.79731 0.63781 0.44442 0.0
H865 H 0.7712 0.59608 0.42029 0.0
H866 H 0.77099 0.72571 0.51484 0.0
H867 H 0.62633 0.51149 0.26836 0.0
H868 H 0.57593 0.51027 0.2721 0.0
H869 H 0.79703 0.68629 0.47942 0.0
H870 H 0.67557 0.74183 0.5431 0.0
N871 N 0.71837 0.63898 0.44166 0.0
C872 C 0.77521 0.63837 0.44389 0.0
C873 C 0.76056 0.61476 0.43047 0.0
C874 C 0.76115 0.66209 0.45892 0.0
C875 C 0.73236 0.66176 0.45717 0.0
C876 C 0.73204 0.61529 0.43084 0.0
N877 N 0.69021 0.68246 0.47591 0.0
C878 C 0.71781 0.68408 0.47589 0.0
C879 C 0.68768 0.72589 0.52365 0.0
C880 C 0.71606 0.72805 0.52305 0.0
C881 C 0.67502 0.7029 0.49958 0.0
C882 C 0.7315 0.70713 0.49852 0.0
H883 H 0.72583 0.74582 0.54208 0.0
O884 O 0.65389 0.64503 0.53077 0.0
O885 O 0.63072 0.63154 0.39986 0.0
O886 O 0.63686 0.6678 0.3191 0.0
O887 O 0.67208 0.6778 0.38591 0.0
O888 O 0.62924 0.66161 0.46169 0.0
O889 O 0.68171 0.61231 0.51025 0.0
O890 O 0.65166 0.60781 0.22422 0.0
O891 O 0.67612 0.63396 0.34807 0.0
O892 O 0.67217 0.59634 0.42575 0.0
O893 O 0.63215 0.58679 0.37642 0.0
O894 O 0.67719 0.60054 0.29441 0.0
O895 O 0.62935 0.64568 0.23178 0.0
C896 C 0.61475 0.64785 0.42509 0.0
C897 C 0.76012 0.70805 0.49821 0.0
C898 C 0.77494 0.68561 0.47804 0.0
C899 C 0.66825 0.62481 0.55092 0.0
C900 C 0.68301 0.62978 0.60609 0.0
C901 C 0.70998 0.63931 0.60631 0.0
C902 C 0.66997 0.62507 0.65919 0.0
C903 C 0.68377 0.62989 0.71239 0.0
C904 C 0.72373 0.64421 0.65865 0.0
C905 C 0.71081 0.63953 0.71133 0.0
C906 C 0.65453 0.68504 0.34463 0.0
C907 C 0.69227 0.61756 0.32296 0.0
C908 C 0.64098 0.62841 0.19673 0.0
C909 C 0.62634 0.62206 0.14214 0.0
C910 C 0.59985 0.61134 0.14269 0.0
C911 C 0.63912 0.62661 0.08875 0.0
C912 C 0.62546 0.62075 0.03584 0.0
C913 C 0.58618 0.60545 0.09069 0.0
C914 C 0.59879 0.61016 0.03763 0.0
C915 C 0.65184 0.57967 0.41334 0.0
H916 H 0.72049 0.64281 0.56613 0.0
H917 H 0.64905 0.61793 0.65895 0.0
H918 H 0.74458 0.65149 0.65838 0.0
H919 H 0.72218 0.64304 0.75126 0.0
H920 H 0.5897 0.60758 0.18312 0.0
H921 H 0.65979 0.63447 0.08858 0.0
H922 H 0.56565 0.59734 0.09151 0.0
H923 H 0.58744 0.60589 0.99802 0.0
Gd924 Gd 0.1328 0.8981 0.20382 0.0
Gd925 Gd 0.1453 0.88091 0.05771 0.0
C926 C 0.14624 0.7887 0.0346 0.0
C927 C 0.1946 0.77834 0.04059 0.0
C928 C 0.17903 0.8253 0.0443 0.0
C929 C 0.15222 0.81664 0.0403 0.0
C930 C 0.20053 0.80624 0.04088 0.0
C931 C 0.16747 0.76968 0.03843 0.0
C932 C 0.11907 0.78072 0.02675 0.0
C933 C 0.09881 0.80043 0.02171 0.0
N934 N 0.13197 0.83547 0.04079 0.0
C935 C 0.10566 0.82787 0.02843 0.0
H936 H 0.08964 0.84262 0.02336 0.0
C937 C 0.20981 0.86161 0.03268 0.0
N938 N 0.18411 0.85242 0.04566 0.0
C939 C 0.23179 0.8436 0.02957 0.0
C940 C 0.22724 0.81577 0.03558 0.0
H941 H 0.21366 0.88306 0.0261 0.0
H942 H 0.16307 0.74823 0.04099 0.0
H943 H 0.1922 0.91408 0.27567 0.0
H944 H 0.11338 0.7595 0.02493 0.0
H945 H 0.07782 0.79449 0.01391 0.0
H946 H 0.21078 0.76332 0.04095 0.0
H947 H 0.06871 0.92447 0.17786 0.0
H948 H 0.20509 0.9996 0.2633 0.0
H949 H 0.22125 0.95388 0.29188 0.0
H950 H 0.11993 0.03273 0.18987 0.0
H951 H 0.25216 0.85122 0.02204 0.0
H952 H 0.24425 0.80177 0.03282 0.0
H953 H 0.16713 0.0288 0.22567 0.0
H954 H 0.04856 0.96848 0.15401 0.0
N955 N 0.16091 0.93582 0.22995 0.0
C956 C 0.19242 0.98193 0.25444 0.0
C957 C 0.20166 0.95619 0.27029 0.0
C958 C 0.16628 0.98472 0.23043 0.0
C959 C 0.15057 0.96102 0.21965 0.0
C960 C 0.18527 0.93342 0.25929 0.0
N961 N 0.10897 0.9401 0.19224 0.0
C962 C 0.1238 0.96325 0.20074 0.0
C963 C 0.06975 0.96724 0.16703 0.0
C964 C 0.08516 0.99093 0.17226 0.0
C965 C 0.08175 0.94202 0.1788 0.0
C966 C 0.11235 0.98923 0.19045 0.0
H967 H 0.07573 1.01043 0.16326 0.0
O968 O 0.09959 0.89667 0.26556 0.0
O969 O 0.13034 0.86288 0.14025 0.0
O970 O 0.09862 0.88445 0.06651 0.0
O971 O 0.09249 0.88342 0.16632 0.0
O972 O 0.14748 0.85469 0.22008 0.0
O973 O 0.14131 0.89264 0.29554 0.0
O974 O 0.16733 0.89935 0.98608 0.0
O975 O 0.14801 0.91648 0.11907 0.0
O976 O 0.17572 0.88392 0.20508 0.0
O977 O 0.18545 0.89158 0.10889 0.0
O978 O 0.12403 0.92066 0.04483 0.0
O979 O 0.12886 0.87905 0.97015 0.0
C980 C 0.141 0.84386 0.17065 0.0
C981 C 0.12833 1.01271 0.19832 0.0
C982 C 0.15522 1.01046 0.21844 0.0
C983 C 0.11599 0.89529 0.31036 0.0
C984 C 0.11108 0.91373 0.35966 0.0
C985 C 0.09631 0.93804 0.3533 0.0
C986 C 0.12211 0.90694 0.41418 0.0
C987 C 0.11849 0.92411 0.46244 0.0
C988 C 0.09247 0.95513 0.40118 0.0
C989 C 0.10341 0.94823 0.45551 0.0
C990 C 0.08268 0.88298 0.11263 0.0
C991 C 0.13513 0.93373 0.08726 0.0
C992 C 0.14942 0.89159 0.94725 0.0
C993 C 0.15938 0.87992 0.89265 0.0
C994 C 0.17508 0.8561 0.89183 0.0
C995 C 0.15102 0.89178 0.84006 0.0
C996 C 0.15785 0.87975 0.78654 0.0
C997 C 0.18253 0.84438 0.83908 0.0
C998 C 0.17391 0.85599 0.78675 0.0
C999 C 0.19339 0.88614 0.16328 0.0
H1000 H 0.08782 0.94386 0.31157 0.0
H1001 H 0.13339 0.88808 0.41906 0.0
H1002 H 0.08108 0.97386 0.39611 0.0
H1003 H 0.10042 0.96193 0.49186 0.0
H1004 H 0.18116 0.84622 0.93157 0.0
H1005 H 0.13882 0.91017 0.84103 0.0
H1006 H 0.19453 0.82589 0.83876 0.0
H1007 H 0.17917 0.84586 0.74658 0.0
Gd1008 Gd 0.86851 0.64243 0.07108 0.0
Gd1009 Gd 0.89871 0.62023 0.20827 0.0
C1010 C 0.98504 0.59792 0.26564 0.0
C1011 C 0.9796 0.55096 0.29629 0.0
C1012 C 0.94159 0.57529 0.25183 0.0
C1013 C 0.95772 0.59812 0.24572 0.0
C1014 C 0.95247 0.55127 0.27628 0.0
C1015 C 0.99565 0.57442 0.29209 0.0
C1016 C 1.00054 0.62167 0.26046 0.0
C1017 C 0.98856 0.64508 0.23759 0.0
N1018 N 0.94623 0.6211 0.22383 0.0
C1019 C 0.96109 0.64461 0.2207 0.0
H1020 H 0.95194 0.66316 0.20508 0.0
C1021 C 0.89808 0.55493 0.24286 0.0
N1022 N 0.91497 0.57689 0.2359 0.0
C1023 C 0.90817 0.53038 0.26477 0.0
C1024 C 0.93548 0.52855 0.28184 0.0
H1025 H 0.87678 0.55606 0.23087 0.0
H1026 H 0.01625 0.5742 0.30962 0.0
H1027 H 0.81457 0.60045 0.06917 0.0
H1028 H 0.02159 0.62231 0.27488 0.0
H1029 H 1.00029 0.66366 0.23409 0.0
H1030 H 0.98818 0.5329 0.31622 0.0
H1031 H 0.89089 0.70361 0.02928 0.0
H1032 H 0.74185 0.64851 0.06496 0.0
H1033 H 0.76438 0.60347 0.06867 0.0
H1034 H 0.77573 0.739 0.03646 0.0
H1035 H 0.89475 0.51302 0.2694 0.0
H1036 H 0.94312 0.5097 0.30008 0.0
H1037 H 0.74631 0.69924 0.0536 0.0
H1038 H 0.87214 0.74955 1.0104 0.0
N1039 N 0.82053 0.64334 0.06915 0.0
C1040 C 0.76392 0.64731 0.06575 0.0
C1041 C 0.77655 0.62186 0.06766 0.0
C1042 C 0.77993 0.67081 0.06183 0.0
C1043 C 0.80857 0.66807 0.06298 0.0
C1044 C 0.80504 0.62024 0.0682 0.0
N1045 N 0.85235 0.68639 0.04949 0.0
C1046 C 0.825 0.69029 0.05223 0.0
C1047 C 0.85868 0.73303 0.02213 0.0
C1048 C 0.8307 0.7376 0.02741 0.0
C1049 C 0.86921 0.70703 0.0327 0.0
C1050 C 0.81342 0.71605 0.04162 0.0
H1051 H 0.82251 0.75767 0.01966 0.0
O1052 O 0.88209 0.64992 0.98294 0.0
O1053 O 0.90652 0.62866 0.11601 0.0
O1054 O 0.90348 0.66664 0.19264 0.0
O1055 O 0.86639 0.67727 0.13389 0.0
O1056 O 0.91227 0.6576 0.0544 0.0
O1057 O 0.85654 0.61503 1.00119 0.0
O1058 O 0.88123 0.61393 0.29368 0.0
O1059 O 0.8595 0.63322 0.16464 0.0
O1060 O 0.86461 0.59689 0.08358 0.0
O1061 O 0.90131 0.58469 0.1427 0.0
O1062 O 0.85776 0.60088 0.22129 0.0
O1063 O 0.90578 0.6497 0.2773 0.0
C1064 C 0.92486 0.64237 0.09137 0.0
C1065 C 0.78499 0.71929 0.04401 0.0
C1066 C 0.76826 0.69667 0.05396 0.0
C1067 C 0.86823 0.62954 0.96124 0.0
C1068 C 0.85189 0.63503 0.90849 0.0
C1069 C 0.82509 0.64474 0.91215 0.0
C1070 C 0.86311 0.63 0.85366 0.0
C1071 C 0.84758 0.63427 0.80251 0.0
C1072 C 0.80961 0.64915 0.86191 0.0
C1073 C 0.82065 0.64385 0.80747 0.0
C1074 C 0.88592 0.68461 0.17045 0.0
C1075 C 0.84335 0.61611 0.18791 0.0
C1076 C 0.89292 0.63544 0.31605 0.0
C1077 C 0.90676 0.63186 0.37275 0.0
C1078 C 0.93511 0.62826 0.37646 0.0
C1079 C 0.8915 0.63242 0.42403 0.0
C1080 C 0.90445 0.62918 0.47857 0.0
C1081 C 0.94797 0.62442 0.43006 0.0
C1082 C 0.9328 0.62484 0.48084 0.0
C1083 C 0.88267 0.57876 0.10194 0.0
H1084 H 0.81598 0.64868 0.95366 0.0
H1085 H 0.884 0.62294 0.85106 0.0
H1086 H 0.78886 0.65647 0.86519 0.0
H1087 H 0.8079 0.6469 0.76935 0.0
H1088 H 0.94746 0.62885 0.33827 0.0
H1089 H 0.86962 0.63549 0.42145 0.0
H1090 H 0.96985 0.62159 0.43231 0.0
H1091 H 0.94343 0.62264 0.52204 0.0
Gd1092 Gd 0.14299 0.11106 0.83516 0.0
Gd1093 Gd 0.16791 0.13862 0.97505 0.0
C1094 C 0.20437 0.22403 0.99753 0.0
C1095 C 0.25292 0.21464 1.00497 0.0
C1096 C 0.22042 0.17751 0.99329 0.0
C1097 C 0.19922 0.19591 0.99051 0.0
C1098 C 0.24748 0.18658 1.00189 0.0
C1099 C 0.23138 0.23334 1.00294 0.0
C1100 C 0.18219 0.24174 1.0023 0.0
C1101 C 0.15582 0.23109 1.00327 0.0
N1102 N 0.17338 0.18611 0.98672 0.0
C1103 C 0.15181 0.20304 0.99613 0.0
H1104 H 0.13132 0.19501 0.99748 0.0
C1105 C 0.23414 0.13158 1.00252 0.0
N1106 N 0.2143 0.15054 0.99116 0.0
C1107 C 0.26131 0.13957 1.01056 0.0
C1108 C 0.26809 0.16717 1.0094 0.0
H1109 H 0.22925 0.11017 1.00343 0.0
H1110 H 0.23575 0.25486 1.00796 0.0
H1111 H 0.20215 0.072 0.84355 0.0
H1112 H 0.18524 0.26346 1.00789 0.0
H1113 H 0.13855 0.24446 1.00939 0.0
H1114 H 0.27359 0.22202 1.01107 0.0
H1115 H 0.07445 0.10965 0.8094 0.0
H1116 H 0.17927 0.98886 0.84221 0.0
H1117 H 0.21464 0.02453 0.84615 0.0
H1118 H 0.08241 0.99022 0.82502 0.0
H1119 H 0.27701 0.12443 0.01783 0.0
H1120 H 0.28913 0.1733 0.01614 0.0
H1121 H 0.13026 0.97638 0.83502 0.0
H1122 H 0.03771 0.07596 0.80383 0.0
N1123 N 0.15899 0.06519 0.83658 0.0
C1124 C 0.17336 1.01011 0.8403 0.0
C1125 C 0.19335 0.03015 0.84243 0.0
C1126 C 0.14599 0.01764 0.83566 0.0
C1127 C 0.13923 0.04566 0.83363 0.0
C1128 C 0.18588 0.05755 0.84032 0.0
N1129 N 0.10575 0.08042 0.82737 0.0
C1130 C 0.11203 0.05347 0.82913 0.0
C1131 C 0.05842 0.06931 0.81129 0.0
C1132 C 0.06427 0.04174 0.81697 0.0
C1133 C 0.07946 0.08837 0.81514 0.0
C1134 C 0.0913 0.03344 0.82493 0.0
H1135 H 0.04785 0.027 0.8137 0.0
O1136 O 0.11816 0.12478 0.76216 0.0
O1137 O 0.14805 0.14806 0.89152 0.0
O1138 O 0.12121 0.14604 0.96801 0.0
O1139 O 0.10571 0.11928 0.89004 0.0
O1140 O 0.15073 0.15499 0.80554 0.0
O1141 O 0.1564 0.10316 0.7475 0.0
O1142 O 0.17337 0.1169 0.05653 0.0
O1143 O 0.15023 0.1019 0.92964 0.0
O1144 O 0.18871 0.1153 0.82921 0.0
O1145 O 0.20287 0.14159 0.90881 0.0
O1146 O 0.18285 0.09526 0.98397 0.0
O1147 O 0.14669 0.15164 0.05265 0.0
C1148 C 0.1525 0.16671 0.85523 0.0
C1149 C 0.09809 1.00575 0.82772 0.0
C1150 C 0.12534 0.99788 0.83321 0.0
C1151 C 0.13506 0.1149 0.72396 0.0
C1152 C 0.12358 0.10219 0.67116 0.0
C1153 C 0.10696 0.07899 0.67307 0.0
C1154 C 0.13028 0.11339 0.61726 0.0
C1155 C 0.12027 0.10184 0.56514 0.0
C1156 C 0.09664 0.06755 0.62172 0.0
C1157 C 0.10315 0.07888 0.56807 0.0
C1158 C 0.10119 0.13398 0.93734 0.0
C1159 C 0.16453 0.08318 0.95295 0.0
C1160 C 0.15814 0.1335 0.08574 0.0
C1161 C 0.16948 0.14327 0.14125 0.0
C1162 C 0.1895 0.16366 0.14298 0.0
C1163 C 0.16019 0.13195 0.19321 0.0
C1164 C 0.17063 0.1411 0.24701 0.0
C1165 C 0.20007 0.17275 0.19614 0.0
C1166 C 0.19069 0.16162 0.24792 0.0
C1167 C 0.20744 0.12936 0.85816 0.0
H1168 H 0.10209 0.06955 0.71375 0.0
H1169 H 0.14386 0.13081 0.61605 0.0
H1170 H 0.08364 0.04975 0.62348 0.0
H1171 H 0.0947 0.06971 0.52898 0.0
H1172 H 0.19692 0.17257 0.10342 0.0
H1173 H 0.14454 0.11633 0.19171 0.0
H1174 H 0.21557 0.18846 0.19722 0.0
H1175 H 0.19934 0.16884 0.28865 0.0
Gd1176 Gd 0.62786 0.41325 0.69765 0.0
Gd1177 Gd 0.64432 0.38119 0.55763 0.0
C1178 C 0.65793 0.29074 0.51824 0.0
C1179 C 0.70402 0.2907 0.48095 0.0
C1180 C 0.6836 0.33281 0.51545 0.0
C1181 C 0.66002 0.31901 0.52889 0.0
C1182 C 0.70586 0.31886 0.49095 0.0
C1183 C 0.68003 0.27672 0.49433 0.0
C1184 C 0.63337 0.27758 0.53023 0.0
C1185 C 0.61119 0.29277 0.54884 0.0
N1186 N 0.63853 0.33348 0.54908 0.0
C1187 C 0.614 0.32082 0.55703 0.0
H1188 H 0.59663 0.33184 0.57202 0.0
C1189 C 0.70608 0.375 0.50475 0.0
N1190 N 0.6842 0.36016 0.52313 0.0
C1191 C 0.72892 0.36204 0.4817 0.0
C1192 C 0.72889 0.33379 0.47506 0.0
H1193 H 0.70613 0.39692 0.50877 0.0
H1194 H 0.67853 0.25518 0.48467 0.0
H1195 H 0.69367 0.43937 0.706 0.0
H1196 H 0.63119 0.25581 0.52509 0.0
H1197 H 0.59193 0.28287 0.55743 0.0
H1198 H 0.72079 0.27967 0.46167 0.0
H1199 H 0.5617 0.43134 0.72028 0.0
H1200 H 0.68997 0.52425 0.6741 0.0
H1201 H 0.71651 0.48244 0.69225 0.0
H1202 H 0.5947 0.54365 0.66612 0.0
H1203 H 0.74638 0.37388 0.46843 0.0
H1204 H 0.74642 0.32381 0.45629 0.0
H1205 H 0.64465 0.54674 0.66378 0.0
H1206 H 0.53249 0.47097 0.70272 0.0
N1207 N 0.65314 0.45488 0.6929 0.0
C1208 C 0.67945 0.50504 0.67978 0.0
C1209 C 0.69447 0.48149 0.6898 0.0
C1210 C 0.65103 0.50364 0.67857 0.0
C1211 C 0.63826 0.47805 0.68608 0.0
C1212 C 0.68104 0.45665 0.69691 0.0
N1213 N 0.59842 0.45167 0.69605 0.0
C1214 C 0.61014 0.47632 0.68701 0.0
C1215 C 0.55429 0.47291 0.69902 0.0
C1216 C 0.56581 0.49794 0.68537 0.0
C1217 C 0.57104 0.45025 0.70711 0.0
C1218 C 0.5941 0.5001 0.68101 0.0
H1219 H 0.55277 0.51556 0.67985 0.0
O1220 O 0.60503 0.4108 0.77765 0.0
O1221 O 0.63801 0.37537 0.65088 0.0
O1222 O 0.5979 0.3789 0.57268 0.0
O1223 O 0.58738 0.40595 0.65287 0.0
O1224 O 0.61178 0.37036 0.71824 0.0
O1225 O 0.64909 0.41491 0.78065 0.0
O1226 O 0.65071 0.39999 0.47328 0.0
O1227 O 0.63181 0.42015 0.60169 0.0
O1228 O 0.67208 0.39862 0.70109 0.0
O1229 O 0.6839 0.37855 0.61235 0.0
O1230 O 0.66564 0.42116 0.54895 0.0
O1231 O 0.61448 0.37606 0.48823 0.0
C1232 C 0.6251 0.35757 0.67863 0.0
C1233 C 0.60673 0.52531 0.67154 0.0
C1234 C 0.63514 0.52708 0.67034 0.0
C1235 C 0.62672 0.4135 0.81046 0.0
C1236 C 0.62483 0.43187 0.86061 0.0
C1237 C 0.61816 0.45944 0.8542 0.0
C1238 C 0.6303 0.42142 0.91605 0.0
C1239 C 0.62926 0.4383 0.96549 0.0
C1240 C 0.61688 0.47635 0.90306 0.0
C1241 C 0.62236 0.4659 0.95843 0.0
C1242 C 0.58012 0.39114 0.60739 0.0
C1243 C 0.64899 0.43589 0.57814 0.0
C1244 C 0.62897 0.38905 0.45021 0.0
C1245 C 0.63236 0.37561 0.3935 0.0
C1246 C 0.63649 0.3474 0.38971 0.0
C1247 C 0.63118 0.39114 0.34245 0.0
C1248 C 0.63405 0.37857 0.28773 0.0
C1249 C 0.63967 0.33486 0.33583 0.0
C1250 C 0.63844 0.35026 0.28513 0.0
C1251 C 0.69011 0.38702 0.66611 0.0
H1252 H 0.61402 0.46786 0.81169 0.0
H1253 H 0.63514 0.39999 0.92061 0.0
H1254 H 0.61175 0.49765 0.89801 0.0
H1255 H 0.62158 0.47949 0.99551 0.0
H1256 H 0.63692 0.33497 0.42816 0.0
H1257 H 0.62805 0.41295 0.34542 0.0
H1258 H 0.64276 0.31306 0.33332 0.0
H1259 H 0.64028 0.33988 0.24379 0.0
Gd1260 Gd 0.40142 0.90715 0.31718 0.0
Gd1261 Gd 0.3777 0.88035 0.45564 0.0
C1262 C 0.34524 0.79392 0.47759 0.0
C1263 C 0.29703 0.80133 0.49409 0.0
C1264 C 0.32776 0.83975 0.48183 0.0
C1265 C 0.34925 0.82223 0.47386 0.0
C1266 C 0.3015 0.82959 0.49378 0.0
C1267 C 0.31889 0.78347 0.4856 0.0
C1268 C 0.368 0.77703 0.47495 0.0
C1269 C 0.39406 0.78851 0.47487 0.0
N1270 N 0.37451 0.83296 0.46703 0.0
C1271 C 0.39696 0.81671 0.47167 0.0
H1272 H 0.41721 0.8252 0.46988 0.0
C1273 C 0.31295 0.88499 0.49569 0.0
N1274 N 0.33292 0.86685 0.48078 0.0
C1275 C 0.2866 0.87592 0.50815 0.0
C1276 C 0.28073 0.84812 0.5064 0.0
H1277 H 0.31696 0.90655 0.49719 0.0
H1278 H 0.31542 0.7617 0.48758 0.0
H1279 H 0.33846 0.93575 0.28263 0.0
H1280 H 0.36555 0.7552 0.47305 0.0
H1281 H 0.41195 0.77573 0.47416 0.0
H1282 H 0.27694 0.7931 0.50233 0.0
H1283 H 0.46938 0.92212 0.30949 0.0
H1284 H 0.34493 0.02148 0.29701 0.0
H1285 H 0.31773 0.98015 0.27707 0.0
H1286 H 0.43901 0.03706 0.33982 0.0
H1287 H 0.27082 0.89042 0.51891 0.0
H1288 H 0.26031 0.84115 0.51598 0.0
H1289 H 0.38981 0.04234 0.32257 0.0
H1290 H 0.4993 0.96094 0.33122 0.0
N1291 N 0.37823 0.9499 0.30847 0.0
C1292 C 0.3545 1.00163 0.29985 0.0
C1293 C 0.3391 0.97838 0.28882 0.0
C1294 C 0.38218 0.99904 0.31337 0.0
C1295 C 0.39377 0.97266 0.31624 0.0
C1296 C 0.35125 0.95273 0.29304 0.0
N1297 N 0.43249 0.94443 0.32229 0.0
C1298 C 0.42152 0.96976 0.32513 0.0
C1299 C 0.4775 0.96384 0.32893 0.0
C1300 C 0.46647 0.98965 0.3367 0.0
C1301 C 0.46025 0.94171 0.31835 0.0
C1302 C 0.43825 0.99306 0.33247 0.0
H1303 H 0.47994 1.0069 0.34355 0.0
O1304 O 0.42844 0.90244 0.24383 0.0
O1305 O 0.38794 0.87034 0.36503 0.0
O1306 O 0.42422 0.87267 0.44746 0.0
O1307 O 0.43858 0.90076 0.37272 0.0
O1308 O 0.41727 0.86321 0.30503 0.0
O1309 O 0.38477 0.90581 0.22955 0.0
O1310 O 0.37178 0.9004 0.53908 0.0
O1311 O 0.39382 0.91804 0.41087 0.0
O1312 O 0.35673 0.89523 0.30639 0.0
O1313 O 0.34122 0.8763 0.39282 0.0
O1314 O 0.35926 0.92198 0.46004 0.0
O1315 O 0.40415 0.87103 0.52901 0.0
C1316 C 0.40196 0.85143 0.34262 0.0
C1317 C 0.4265 0.01907 0.33346 0.0
C1318 C 0.39853 0.02207 0.32349 0.0
C1319 C 0.40868 0.9043 0.20569 0.0
C1320 C 0.41305 0.92205 0.15546 0.0
C1321 C 0.42535 0.94772 0.16139 0.0
C1322 C 0.40438 0.91301 0.10044 0.0
C1323 C 0.40804 0.92933 0.0511 0.0
C1324 C 0.42912 0.96404 0.11259 0.0
C1325 C 0.42061 0.95493 0.05769 0.0
C1326 C 0.44372 0.88509 0.4176 0.0
C1327 C 0.37659 0.9352 0.43004 0.0
C1328 C 0.39077 0.88636 0.56504 0.0
C1329 C 0.38349 0.87379 0.62058 0.0
C1330 C 0.37035 0.84843 0.62188 0.0
C1331 C 0.39016 0.88706 0.67295 0.0
C1332 C 0.384 0.87497 0.72664 0.0
C1333 C 0.36408 0.83636 0.67471 0.0
C1334 C 0.37091 0.84943 0.72679 0.0
C1335 C 0.3372 0.88429 0.33815 0.0
H1336 H 0.43204 0.95514 0.20346 0.0
H1337 H 0.39505 0.89306 0.09603 0.0
H1338 H 0.43862 0.98384 0.11733 0.0
H1339 H 0.42353 0.96803 0.02056 0.0
H1340 H 0.36516 0.83781 0.58225 0.0
H1341 H 0.40005 0.9068 0.67173 0.0
H1342 H 0.35414 0.81667 0.6753 0.0
H1343 H 0.36636 0.83926 0.76717 0.0
H1344 H 0.17891 0.61468 0.68368 0.0
H1345 H 0.10743 0.65174 0.7576 0.0
H1346 H 0.08382 0.64839 0.66355 0.0
H1347 H 0.08434 0.63671 0.55938 0.0
H1348 H 0.15649 0.60071 0.4859 0.0
H1349 H 0.17936 0.60277 0.58059 0.0
C1350 C 0.15824 0.6223 0.67924 0.0
C1351 C 0.14508 0.63371 0.72763 0.0
C1352 C 0.14505 0.62077 0.62499 0.0
C1353 C 0.11801 0.64273 0.72128 0.0
C1354 C 0.10458 0.641 0.66739 0.0
C1355 C 0.10498 0.62905 0.5642 0.0
C1356 C 0.11869 0.61855 0.51552 0.0
C1357 C 0.118 0.63027 0.61885 0.0
C1358 C 0.14558 0.60916 0.52239 0.0
C1359 C 0.15861 0.61018 0.5766 0.0
H1360 H 0.63177 0.93938 0.92617 0.0
H1361 H 0.65256 0.86111 0.99885 0.0
H1362 H 0.67159 0.84686 0.90605 0.0
H1363 H 0.68019 0.85575 0.80283 0.0
H1364 H 0.65903 0.934 0.73038 0.0
H1365 H 0.64141 0.94869 0.82398 0.0
C1366 C 0.64029 0.91911 0.92171 0.0
C1367 C 0.64053 0.90131 0.96954 0.0
C1368 C 0.65079 0.91088 0.86796 0.0
C1369 C 0.65229 0.87537 0.96312 0.0
C1370 C 0.66298 0.8671 0.90984 0.0
C1371 C 0.67202 0.87614 0.80759 0.0
C1372 C 0.67085 0.89365 0.75927 0.0
C1373 C 0.66209 0.88458 0.8618 0.0
C1374 C 0.65979 0.91987 0.76633 0.0
C1375 C 0.64988 0.92839 0.82004 0.0
H1376 H 0.3408 0.36364 0.20551 0.0
H1377 H 0.36463 0.44138 0.27849 0.0
H1378 H 0.38247 0.45534 0.18481 0.0
H1379 H 0.39159 0.4455 0.08242 0.0
H1380 H 0.36808 0.36775 1.00926 0.0
H1381 H 0.34878 0.3543 0.10213 0.0
C1382 C 0.3496 0.38377 0.20085 0.0
C1383 C 0.35146 0.40133 0.24932 0.0
C1384 C 0.35963 0.39181 0.14661 0.0
C1385 C 0.36333 0.4272 0.24241 0.0
C1386 C 0.37336 0.43532 0.18865 0.0
C1387 C 0.38239 0.42553 0.08679 0.0
C1388 C 0.38149 0.40762 0.03883 0.0
C1389 C 0.37175 0.41774 0.14057 0.0
C1390 C 0.36887 0.38208 0.04511 0.0
C1391 C 0.35803 0.37427 0.09841 0.0
H1392 H 0.91509 0.10656 0.45214 0.0
H1393 H 0.8707 0.17465 0.52306 0.0
H1394 H 0.84888 0.18243 0.42886 0.0
H1395 H 0.84406 0.17129 0.32542 0.0
H1396 H 0.88818 0.10296 0.25461 0.0
H1397 H 0.90955 0.09485 0.34909 0.0
C1398 C 0.90069 0.12315 0.44698 0.0
C1399 C 0.8946 0.13999 0.49468 0.0
C1400 C 0.88866 0.1279 0.3924 0.0
C1401 C 0.8755 0.1611 0.48742 0.0
C1402 C 0.86326 0.16579 0.43334 0.0
C1403 C 0.85818 0.15448 0.33065 0.0
C1404 C 0.86452 0.13785 0.28274 0.0
C1405 C 0.86993 0.14951 0.38541 0.0
C1406 C 0.88327 0.11645 0.29029 0.0
C1407 C 0.89527 0.11157 0.34453 0.0
H1408 H 0.20508 0.39889 0.3244 0.0
H1409 H 0.14968 0.33616 0.26422 0.0
H1410 H 0.12836 0.33487 0.35912 0.0
H1411 H 0.12429 0.3525 0.45761 0.0
H1412 H 0.17903 0.41536 0.51927 0.0
H1413 H 0.20241 0.41504 0.42589 0.0
C1414 C 0.1886 0.38469 0.3324 0.0
C1415 C 0.17876 0.36789 0.28716 0.0
C1416 C 0.17638 0.38403 0.38723 0.0
C1417 C 0.15728 0.34969 0.29801 0.0
C1418 C 0.14515 0.34882 0.3523 0.0
C1419 C 0.14122 0.36628 0.4505 0.0
C1420 C 0.14964 0.38422 0.49483 0.0
C1421 C 0.15427 0.36617 0.39685 0.0
C1422 C 0.17214 0.40137 0.48568 0.0
C1423 C 0.18542 0.40129 0.43226 0.0
H1424 H 0.82964 0.92108 0.68178 0.0
H1425 H 0.90479 0.88626 0.7465 0.0
H1426 H 0.92587 0.8932 0.65212 0.0
H1427 H 0.92279 0.90839 0.55096 0.0
H1428 H 0.84813 0.94478 0.48709 0.0
H1429 H 0.82676 0.93681 0.58056 0.0
C1430 C 0.85058 0.91481 0.67517 0.0
C1431 C 0.86556 0.90312 0.7214 0.0
C1432 C 0.86258 0.91879 0.62063 0.0
C1433 C 0.89284 0.89558 0.71211 0.0
C1434 C 0.90485 0.89936 0.65794 0.0
C1435 C 0.90194 0.91495 0.55741 0.0
C1436 C 0.88726 0.92731 0.51146 0.0
C1437 C 0.88992 0.91094 0.61189 0.0
C1438 C 0.85997 0.93489 0.52088 0.0
C1439 C 0.84776 0.93059 0.57471 0.0
H1440 H 0.37274 0.60982 0.83288 0.0
H1441 H 0.42135 0.67337 0.75694 0.0
H1442 H 0.44466 0.68079 0.85034 0.0
H1443 H 0.45 0.67023 0.95427 0.0
H1444 H 0.40176 0.60587 0.02891 0.0
H1445 H 0.37878 0.59859 0.93575 0.0
C1446 C 0.38832 0.62545 0.83678 0.0
C1447 C 0.39513 0.64117 0.78799 0.0
C1448 C 0.40142 0.62973 0.8906 0.0
C1449 C 0.41582 0.66087 0.7936 0.0
C1450 C 0.429 0.66525 0.84712 0.0
C1451 C 0.43468 0.65439 0.95019 0.0
C1452 C 0.42766 0.63872 0.99908 0.0
C1453 C 0.42183 0.64991 0.89602 0.0
C1454 C 0.40734 0.61864 0.99271 0.0
C1455 C 0.39432 0.61424 0.93918 0.0
H1456 H 0.66532 0.11678 0.07825 0.0
H1457 H 0.60201 0.16877 1.0091 0.0
H1458 H 0.59826 0.19157 0.10316 0.0
H1459 H 0.61203 0.19598 0.20544 0.0
H1460 H 0.6764 0.14507 0.27425 0.0
H1461 H 0.6798 0.12189 0.18059 0.0
C1462 C 0.65061 0.13303 0.08379 0.0
C1463 C 0.63393 0.14099 0.03645 0.0
C1464 C 0.64846 0.14599 0.1382 0.0
C1465 C 0.61532 0.16241 0.04436 0.0
C1466 C 0.61301 0.17531 0.09835 0.0
C1467 C 0.62709 0.18005 0.20003 0.0
C1468 C 0.64398 0.17246 0.24733 0.0
C1469 C 0.62939 0.16721 0.1456 0.0
C1470 C 0.66282 0.15121 0.23927 0.0
C1471 C 0.66498 0.13808 0.18541 0.0
H1472 H 0.90403 0.35105 0.3303 0.0
H1473 H 0.86874 0.42393 0.25752 0.0
H1474 H 0.87492 0.44753 0.35054 0.0
H1475 H 0.88837 0.44665 0.45383 0.0
H1476 H 0.92457 0.37379 0.52532 0.0
H1477 H 0.91938 0.35083 0.43188 0.0
C1478 C 0.89757 0.37207 0.3349 0.0
C1479 C 0.88576 0.38565 0.28725 0.0
C1480 C 0.9011 0.38543 0.38841 0.0
C1481 C 0.87802 0.41306 0.29349 0.0
C1482 C 0.88141 0.42651 0.34674 0.0
C1483 C 0.89549 0.42588 0.44883 0.0
C1484 C 0.9066 0.41194 0.49691 0.0
C1485 C 0.89272 0.41282 0.39465 0.0
C1486 C 0.91542 0.38489 0.48955 0.0
C1487 C 0.91263 0.37176 0.43597 0.0
H1488 H 0.33666 0.14153 0.20047 0.0
H1489 H 0.41797 0.15112 0.27243 0.0
H1490 H 0.43714 0.14343 0.17651 0.0
H1491 H 0.43072 0.13103 0.07328 0.0
H1492 H 0.34918 0.12413 1.00221 0.0
H1493 H 0.33014 0.13543 0.09659 0.0
C1494 C 0.35856 0.14286 0.19545 0.0
C1495 C 0.37573 0.14672 0.24429 0.0
C1496 C 0.36942 0.13918 0.1401 0.0
C1497 C 0.40414 0.14753 0.23622 0.0
C1498 C 0.41517 0.1434 0.18119 0.0
C1499 C 0.40881 0.13247 0.07847 0.0
C1500 C 0.39135 0.12666 0.03114 0.0
C1501 C 0.39799 0.13872 0.13304 0.0
C1502 C 0.36301 0.12877 0.03794 0.0
C1503 C 0.35212 0.13493 0.09202 0.0
H1504 H 0.62271 0.58973 0.93704 0.0
H1505 H 0.65793 0.66387 1.00625 0.0
H1506 H 0.67888 0.67312 0.91286 0.0
H1507 H 0.68641 0.66081 0.81093 0.0
H1508 H 0.65096 0.58693 0.74126 0.0
H1509 H 0.63005 0.57753 0.8348 0.0
C1510 C 0.63473 0.60808 0.93165 0.0
C1511 C 0.63868 0.62604 0.97894 0.0
C1512 C 0.64643 0.61351 0.87747 0.0
C1513 C 0.65482 0.64943 0.97114 0.0
C1514 C 0.66664 0.65488 0.9175 0.0
C1515 C 0.67429 0.64253 0.81626 0.0
C1516 C 0.67033 0.62461 0.76896 0.0
C1517 C 0.66253 0.63711 0.87035 0.0
C1518 C 0.65411 0.60128 0.77655 0.0
C1519 C 0.6423 0.59577 0.83022 0.0
H1520 H 0.094 0.92581 0.56773 0.0
H1521 H 0.16989 0.90548 0.48532 0.0
H1522 H 0.18913 0.89102 0.57852 0.0
H1523 H 0.18408 0.88327 0.68293 0.0
H1524 H 0.1074 0.90169 0.76457 0.0
H1525 H 0.08917 0.91856 0.67268 0.0
C1526 C 0.11485 0.91852 0.57037 0.0
C1527 C 0.13046 0.91665 0.51971 0.0
C1528 C 0.12572 0.91002 0.62403 0.0
C1529 C 0.15735 0.90682 0.52362 0.0
C1530 C 0.1684 0.89865 0.57691 0.0
C1531 C 0.16331 0.89079 0.68065 0.0
C1532 C 0.14722 0.89115 0.73086 0.0
C1533 C 0.15268 0.89991 0.6273 0.0
C1534 C 0.1205 0.90151 0.72705 0.0
C1535 C 0.10991 0.91097 0.6743 0.0
H1536 H 0.8397 0.66302 0.70236 0.0
H1537 H 0.88175 0.59267 0.771 0.0
H1538 H 0.90201 0.58426 0.67646 0.0
H1539 H 0.90864 0.59741 0.57481 0.0
H1540 H 0.86575 0.66701 0.50567 0.0
H1541 H 0.84397 0.67437 0.59926 0.0
C1542 C 0.85294 0.64557 0.69662 0.0
C1543 C 0.85931 0.62869 0.74422 0.0
C1544 C 0.86417 0.64053 0.64181 0.0
C1545 C 0.87691 0.60643 0.73574 0.0
C1546 C 0.88833 0.60142 0.68146 0.0
C1547 C 0.89449 0.61417 0.58025 0.0
C1548 C 0.889 0.63175 0.53343 0.0
C1549 C 0.88229 0.61847 0.63435 0.0
C1550 C 0.87021 0.65305 0.54081 0.0
C1551 C 0.85793 0.65743 0.5945 0.0
H1552 H 0.1326 0.07435 0.46554 0.0
H1553 H 0.12575 0.15561 0.53631 0.0
H1554 H 0.14096 0.17472 0.4447 0.0
H1555 H 0.15642 0.16848 0.34464 0.0
H1556 H 0.16211 0.08746 0.27268 0.0
H1557 H 0.14636 0.06819 0.3641 0.0
C1558 C 0.13402 0.09626 0.46076 0.0
C1559 C 0.12817 0.11346 0.50811 0.0
C1560 C 0.14248 0.10719 0.40764 0.0
C1561 C 0.13058 0.14181 0.50112 0.0
C1562 C 0.13912 0.1528 0.44857 0.0
C1563 C 0.15436 0.1466 0.34913 0.0
C1564 C 0.16057 0.12943 0.30211 0.0
C1565 C 0.1453 0.13569 0.40171 0.0
C1566 C 0.15731 0.10113 0.30815 0.0
C1567 C 0.14843 0.0901 0.36048 0.0
H1568 H 0.66498 0.37414 0.19087 0.0
H1569 H 0.5974 0.41894 0.262 0.0
H1570 H 0.59098 0.44261 0.16977 0.0
H1571 H 0.60246 0.44812 0.06668 0.0
H1572 H 0.66978 0.40277 0.99578 0.0
H1573 H 0.67794 0.38134 0.0897 0.0
C1574 C 0.64879 0.38903 0.18618 0.0
C1575 C 0.63158 0.39457 0.23321 0.0
C1576 C 0.64493 0.40224 0.13279 0.0
C1577 C 0.61109 0.4144 0.22672 0.0
C1578 C 0.60726 0.4278 0.1738 0.0
C1579 C 0.61916 0.43386 0.07199 0.0
C1580 C 0.63528 0.42688 0.02399 0.0
C1581 C 0.62379 0.42158 0.12626 0.0
C1582 C 0.6567 0.40814 0.03162 0.0
C1583 C 0.6615 0.39597 0.08543 0.0
H1584 H 0.43559 0.93177 0.9493 0.0
H1585 H 0.35981 0.90458 0.02278 0.0
H1586 H 0.34532 0.88633 0.92857 0.0
H1587 H 0.3545 0.87732 0.82599 0.0
H1588 H 0.43095 0.90303 0.75294 0.0
H1589 H 0.44444 0.92339 0.84579 0.0
C1590 C 0.41578 0.92213 0.94448 0.0
C1591 C 0.39886 0.91945 0.99303 0.0
C1592 C 0.40762 0.91154 0.89021 0.0
C1593 C 0.37337 0.9066 0.98627 0.0
C1594 C 0.36501 0.89627 0.93236 0.0
C1595 C 0.37421 0.8872 0.83039 0.0
C1596 C 0.39168 0.8885 0.78244 0.0
C1597 C 0.38208 0.89839 0.8842 0.0
C1598 C 0.4169 0.90196 0.78879 0.0
C1599 C 0.42475 0.91344 0.84206 0.0
H1600 H 0.09524 0.7217 0.15109 0.0
H1601 H 0.18111 0.70346 0.15782 0.0
H1602 H 0.19159 0.75177 0.17143 0.0
H1603 H 0.17663 0.8004 0.17739 0.0
H1604 H 0.09131 0.81898 0.15981 0.0
H1605 H 0.08035 0.77026 0.15562 0.0
C1606 C 0.1163 0.72832 0.15474 0.0
C1607 C 0.13732 0.70853 0.15246 0.0
C1608 C 0.12229 0.7566 0.16119 0.0
C1609 C 0.16442 0.7178 0.15816 0.0
C1610 C 0.17044 0.74562 0.16688 0.0
C1611 C 0.15564 0.79376 0.17246 0.0
C1612 C 0.13483 0.81368 0.16684 0.0
C1613 C 0.14961 0.76538 0.16784 0.0
C1614 C 0.10775 0.80442 0.16221 0.0
C1615 C 0.1015 0.77639 0.16011 0.0
H1616 H 0.56722 0.84549 0.42674 0.0
H1617 H 0.5804 0.93165 0.4056 0.0
H1618 H 0.53139 0.93979 0.41147 0.0
H1619 H 0.48443 0.92251 0.42003 0.0
H1620 H 0.47011 0.8366 0.44033 0.0
H1621 H 0.51962 0.82834 0.44 0.0
C1622 C 0.5593 0.86603 0.42329 0.0
C1623 C 0.57759 0.88785 0.41351 0.0
C1624 C 0.5308 0.87062 0.42754 0.0
C1625 C 0.56696 0.91439 0.41091 0.0
C1626 C 0.53883 0.91908 0.41487 0.0
C1627 C 0.49211 0.90195 0.42437 0.0
C1628 C 0.47341 0.8802 0.42978 0.0
C1629 C 0.52053 0.89737 0.42263 0.0
C1630 C 0.48388 0.85377 0.43691 0.0
C1631 C 0.51225 0.84904 0.4359 0.0
H1632 H 0.34422 0.30867 0.67259 0.0
H1633 H 0.42831 0.32505 0.71662 0.0
H1634 H 0.43697 0.27587 0.72489 0.0
H1635 H 0.42136 0.22751 0.70945 0.0
H1636 H 0.33729 0.21308 0.6613 0.0
H1637 H 0.32809 0.26174 0.66462 0.0
C1638 C 0.36448 0.30162 0.68454 0.0
C1639 C 0.3856 0.32083 0.6935 0.0
C1640 C 0.36936 0.27333 0.68826 0.0
C1641 C 0.41156 0.31098 0.70965 0.0
C1642 C 0.41656 0.28272 0.71399 0.0
C1643 C 0.40087 0.23496 0.7016 0.0
C1644 C 0.37989 0.2163 0.68625 0.0
C1645 C 0.39572 0.26355 0.70225 0.0
C1646 C 0.35369 0.22669 0.67431 0.0
C1647 C 0.34843 0.25466 0.6757 0.0
H1648 H 0.97837 0.1717 0.97609 0.0
H1649 H 0.9644 0.08799 0.92703 0.0
H1650 H 1.01337 0.07962 0.92676 0.0
H1651 H 0.06033 0.09683 0.93088 0.0
H1652 H 0.0758 0.18027 0.9792 0.0
H1653 H 0.02655 0.18786 0.99061 0.0
C1654 C 0.986 0.15139 0.96767 0.0
C1655 C 0.96741 0.13029 0.95294 0.0
C1656 C 1.01466 0.14677 0.96652 0.0
C1657 C 0.978 0.10438 0.94004 0.0
C1658 C 1.00613 0.09965 0.93913 0.0
C1659 C 0.05297 0.11669 0.94413 0.0
C1660 C 0.07185 0.13807 0.95304 0.0
C1661 C 0.02466 0.12083 0.95067 0.0
C1662 C 0.06187 0.16344 0.9718 0.0
C1663 C 0.03361 0.16779 0.97811 0.0
H1664 H 0.1121 0.28883 0.89675 0.0
H1665 H 0.18851 0.30661 0.81488 0.0
H1666 H 0.19815 0.25777 0.8061 0.0
H1667 H 0.18547 0.20936 0.82449 0.0
H1668 H 0.10641 0.19157 0.89393 0.0
H1669 H 0.09683 0.24039 0.90331 0.0
C1670 C 0.13061 0.28196 0.87598 0.0
C1671 C 0.14956 0.30151 0.8564 0.0
C1672 C 0.13561 0.25361 0.86921 0.0
C1673 C 0.17344 0.29214 0.82969 0.0
C1674 C 0.17906 0.26412 0.82508 0.0
C1675 C 0.16628 0.21623 0.84227 0.0
C1676 C 0.14737 0.19669 0.86208 0.0
C1677 C 0.16048 0.24458 0.84537 0.0
C1678 C 0.12191 0.20603 0.88141 0.0
C1679 C 0.11631 0.23405 0.88616 0.0
H1680 H 0.04547 0.91394 0.0519 0.0
H1681 H 0.05213 0.84394 0.16308 0.0
H1682 H 1.00272 0.8384 0.1617 0.0
H1683 H 0.95686 0.8545 0.13238 0.0
H1684 H 0.94934 0.92749 0.03078 0.0
H1685 H 0.99919 0.93094 0.0248 0.0
C1686 C 0.03605 0.89717 0.0747 0.0
C1687 C 0.05266 0.87876 0.10583 0.0
C1688 C 1.00723 0.89491 0.07614 0.0
C1689 C 0.04003 0.85785 0.13726 0.0
C1690 C 1.01165 0.85479 0.13691 0.0
C1691 C 0.96623 0.87117 0.10914 0.0
C1692 C 0.94952 0.89107 0.08318 0.0
C1693 C 0.99496 0.87334 0.10707 0.0
C1694 C 0.96185 0.91229 0.05224 0.0
C1695 C 0.99036 0.91417 0.04857 0.0
H1696 H 0.35632 0.72887 0.34247 0.0
H1697 H 0.44156 0.71101 0.3671 0.0
H1698 H 0.45253 0.75963 0.36089 0.0
H1699 H 0.43793 0.80816 0.34931 0.0
H1700 H 0.35226 0.82611 0.33221 0.0
H1701 H 0.34165 0.77734 0.3321 0.0
C1702 C 0.37726 0.73567 0.34746 0.0
C1703 C 0.39792 0.71606 0.35809 0.0
C1704 C 0.38347 0.76398 0.34322 0.0
C1705 C 0.42503 0.72545 0.36206 0.0
C1706 C 0.43138 0.75337 0.35725 0.0
C1707 C 0.41694 0.80138 0.34543 0.0
C1708 C 0.39589 0.82117 0.34203 0.0
C1709 C 0.41082 0.77296 0.34792 0.0
C1710 C 0.36886 0.81171 0.33628 0.0
C1711 C 0.36278 0.78363 0.33593 0.0
H1712 H 0.55826 0.10348 0.58046 0.0
H1713 H 0.57282 0.18963 0.59835 0.0
H1714 H 0.52353 0.19801 0.60101 0.0
H1715 H 0.4757 0.18088 0.60054 0.0
H1716 H 0.46121 0.0944 0.5966 0.0
H1717 H 0.51025 0.08613 0.58609 0.0
C1718 C 0.5506 0.12408 0.58489 0.0
C1719 C 0.56947 0.14589 0.5903 0.0
C1720 C 0.52192 0.12869 0.58847 0.0
C1721 C 0.55899 0.17245 0.5954 0.0
C1722 C 0.53069 0.17724 0.5967 0.0
C1723 C 0.4833 0.16019 0.59809 0.0
C1724 C 0.46448 0.1383 0.59999 0.0
C1725 C 0.51187 0.15555 0.59405 0.0
C1726 C 0.47494 0.11167 0.5963 0.0
C1727 C 0.50311 0.10695 0.58942 0.0
H1728 H 0.935 0.22781 0.86386 0.0
H1729 H 0.84819 0.21475 0.86134 0.0
H1730 H 0.84066 0.26396 0.84921 0.0
H1731 H 0.85917 0.31185 0.8439 0.0
H1732 H 0.94628 0.32353 0.85209 0.0
H1733 H 0.9532 0.27442 0.85825 0.0
C1734 C 0.91439 0.23575 0.86139 0.0
C1735 C 0.89223 0.21745 0.86451 0.0
C1736 C 0.91027 0.26415 0.8555 0.0
C1737 C 0.86568 0.22822 0.86026 0.0
C1738 C 0.86139 0.25643 0.85239 0.0
C1739 C 0.87961 0.30358 0.84736 0.0
C1740 C 0.90221 0.32165 0.84982 0.0
C1741 C 0.88354 0.2748 0.85074 0.0
C1742 C 0.92854 0.31035 0.85205 0.0
C1743 C 0.93254 0.28214 0.85525 0.0
H1744 H 0.68427 0.80835 0.31399 0.0
H1745 H 0.59694 0.81706 0.30492 0.0
H1746 H 0.59181 0.76718 0.30366 0.0
H1747 H 0.61257 0.72088 0.3178 0.0
H1748 H 0.70015 0.71464 0.33337 0.0
H1749 H 0.70473 0.76342 0.31944 0.0
C1750 C 0.66408 0.79937 0.31049 0.0
C1751 C 0.64104 0.81641 0.30966 0.0
C1752 C 0.66135 0.77091 0.31175 0.0
C1753 C 0.61505 0.80443 0.30505 0.0
C1754 C 0.61213 0.77587 0.30505 0.0
C1755 C 0.6326 0.73022 0.31677 0.0
C1756 C 0.656 0.71404 0.32661 0.0
C1757 C 0.63515 0.75883 0.31019 0.0
C1758 C 0.68182 0.72653 0.32606 0.0
C1759 C 0.6845 0.75449 0.31811 0.0
H1760 H 0.8469 0.72316 0.15976 0.0
H1761 H 0.93196 0.71388 0.20424 0.0
H1762 H 0.93735 0.76373 0.2061 0.0
H1763 H 0.91832 0.81042 0.18559 0.0
H1764 H 0.83351 0.81707 0.13505 0.0
H1765 H 0.82778 0.7682 0.14453 0.0
C1766 C 0.86668 0.73192 0.1702 0.0
C1767 C 0.88905 0.7146 0.18114 0.0
C1768 C 0.86975 0.76041 0.16939 0.0
C1769 C 0.91433 0.72657 0.19565 0.0
C1770 C 0.91746 0.75516 0.19622 0.0
C1771 C 0.89856 0.80112 0.17746 0.0
C1772 C 0.87641 0.81757 0.15914 0.0
C1773 C 0.89541 0.77238 0.18179 0.0
C1774 C 0.85099 0.80507 0.14851 0.0
C1775 C 0.84763 0.77701 0.15402 0.0
H1776 H 0.66989 0.23704 0.65934 0.0
H1777 H 0.58733 0.21782 0.7067 0.0
H1778 H 0.57719 0.26653 0.71709 0.0
H1779 H 0.59119 0.31514 0.70614 0.0
H1780 H 0.6742 0.33301 0.66007 0.0
H1781 H 0.68475 0.28471 0.65636 0.0
C1782 C 0.64969 0.24345 0.67226 0.0
C1783 C 0.62936 0.2237 0.68176 0.0
C1784 C 0.64405 0.27146 0.67832 0.0
C1785 C 0.60343 0.23249 0.69936 0.0
C1786 C 0.59758 0.26041 0.70504 0.0
C1787 C 0.61162 0.30839 0.69578 0.0
C1788 C 0.63161 0.32786 0.68124 0.0
C1789 C 0.61763 0.28016 0.69375 0.0
C1790 C 0.65815 0.31873 0.66947 0.0
C1791 C 0.66428 0.29095 0.66766 0.0
H1792 H 0.98391 0.42069 0.90628 0.0
H1793 H 0.96567 0.33875 0.95997 0.0
H1794 H 1.01456 0.32924 0.97042 0.0
H1795 H 0.06304 0.34365 0.96053 0.0
H1796 H 0.08084 0.42595 0.90919 0.0
H1797 H 0.03196 0.43581 0.90148 0.0
C1798 C 0.99054 0.40069 0.92008 0.0
C1799 C 0.9708 0.3804 0.93167 0.0
C1800 C 0.01883 0.39539 0.92625 0.0
C1801 C 0.9801 0.35485 0.95093 0.0
C1802 C 1.00819 0.34935 0.95664 0.0
C1803 C 0.05618 0.36377 0.94784 0.0
C1804 C 0.07576 0.38377 0.93344 0.0
C1805 C 0.02781 0.36936 0.94391 0.0
C1806 C 0.06641 0.40993 0.91873 0.0
C1807 C 0.03836 0.41561 0.9146 0.0
H1808 H 0.48973 0.68152 0.40335 0.0
H1809 H 0.47844 0.59796 0.45352 0.0
H1810 H 0.52798 0.59105 0.45529 0.0
H1811 H 0.57517 0.60862 0.43975 0.0
H1812 H 0.58627 0.69406 0.40597 0.0
H1813 H 0.53674 0.70062 0.402 0.0
C1814 C 0.49817 0.66198 0.41595 0.0
C1815 C 0.48031 0.64023 0.42794 0.0
C1816 C 0.52686 0.65849 0.41958 0.0
C1817 C 0.49165 0.61506 0.44427 0.0
C1818 C 0.52005 0.61106 0.44497 0.0
C1819 C 0.56666 0.62857 0.43095 0.0
C1820 C 0.58444 0.6506 0.42024 0.0
C1821 C 0.53795 0.63252 0.43189 0.0
C1822 C 0.57308 0.67664 0.41236 0.0
C1823 C 0.5447 0.68043 0.41049 0.0
H1824 H 0.456 0.3538 0.58306 0.0
H1825 H 0.44304 0.43986 0.6065 0.0
H1826 H 0.49239 0.44748 0.61076 0.0
H1827 H 0.53962 0.4294 0.61116 0.0
H1828 H 0.55256 0.34372 0.58189 0.0
H1829 H 0.50336 0.33631 0.57568 0.0
C1830 C 0.46401 0.37422 0.58908 0.0
C1831 C 0.4457 0.39607 0.59706 0.0
C1832 C 0.4926 0.37853 0.59022 0.0
C1833 C 0.45651 0.42252 0.60263 0.0
C1834 C 0.48482 0.42692 0.60456 0.0
C1835 C 0.53169 0.40911 0.6034 0.0
C1836 C 0.55008 0.38713 0.59739 0.0
C1837 C 0.50312 0.40503 0.5993 0.0
C1838 C 0.53925 0.36109 0.58612 0.0
C1839 C 0.51093 0.35679 0.583 0.0
H1840 H 0.04812 0.60046 0.10069 0.0
H1841 H 0.06404 0.68301 0.04828 0.0
H1842 H 1.01477 0.69214 0.04509 0.0
H1843 H 0.96666 0.67729 0.06272 0.0
H1844 H 0.95161 0.59426 0.11305 0.0
H1845 H 1.00057 0.585 0.11306 0.0
C1846 C 0.0409 0.6205 0.08843 0.0
C1847 C 0.06016 0.64103 0.07499 0.0
C1848 C 1.01243 0.62567 0.08739 0.0
C1849 C 0.05003 0.66665 0.05815 0.0
C1850 C 0.02172 0.67196 0.05697 0.0
C1851 C 0.9741 0.65716 0.07365 0.0
C1852 C 0.95516 0.63678 0.09001 0.0
C1853 C 1.00265 0.65176 0.07238 0.0
C1854 C 0.9654 0.61063 0.10229 0.0
C1855 C 0.99355 0.60525 0.10181 0.0
H1856 H 0.18143 0.55802 1.01066 0.0
H1857 H 0.10694 0.55711 0.10778 0.0
H1858 H 0.09662 0.51133 0.06988 0.0
H1859 H 0.10938 0.47071 1.00751 0.0
H1860 H 0.17919 0.47773 0.89665 0.0
H1861 H 0.19013 0.52208 0.93944 0.0
C1862 C 0.16282 0.54804 0.02401 0.0
C1863 C 0.14582 0.56089 0.06542 0.0
C1864 C 0.15589 0.52275 0.99795 0.0
C1865 C 0.12141 0.54744 0.07948 0.0
C1866 C 0.11521 0.52132 0.05653 0.0
C1867 C 0.12664 0.48226 0.99192 0.0
C1868 C 0.14338 0.47076 0.94824 0.0
C1869 C 0.13237 0.50862 0.01565 0.0
C1870 C 0.16573 0.48607 0.92916 0.0
C1871 C 0.17216 0.51141 0.95418 0.0
H1872 H 0.72729 0.94465 0.27359 0.0
H1873 H 0.71212 0.8599 0.30868 0.0
H1874 H 0.75544 0.8477 0.2635 0.0
H1875 H 0.79802 0.86118 0.21267 0.0
H1876 H 0.8132 0.94606 0.1798 0.0
H1877 H 0.76938 0.958 0.22281 0.0
C1878 C 0.73355 0.92349 0.27183 0.0
C1879 C 0.71653 0.90334 0.29618 0.0
C1880 C 0.75826 0.91656 0.24419 0.0
C1881 C 0.72493 0.876 0.29227 0.0
C1882 C 0.74964 0.86897 0.26551 0.0
C1883 C 0.79135 0.88223 0.21362 0.0
C1884 C 0.80838 0.90257 0.18988 0.0
C1885 C 0.76642 0.88905 0.2408 0.0
C1886 C 0.79999 0.92985 0.1944 0.0
C1887 C 0.77509 0.93672 0.2202 0.0
H1888 H 0.41475 0.49255 0.5688 0.0
H1889 H 0.32848 0.47685 0.5495 0.0
H1890 H 0.32336 0.51685 0.48879 0.0
H1891 H 0.34244 0.55718 0.44117 0.0
H1892 H 0.42806 0.57486 0.45966 0.0
H1893 H 0.43437 0.53358 0.51812 0.0
C1894 C 0.39481 0.49804 0.55178 0.0
C1895 C 0.372 0.48132 0.56468 0.0
C1896 C 0.39188 0.52142 0.51523 0.0
C1897 C 0.34648 0.48891 0.54097 0.0
C1898 C 0.34347 0.51193 0.50574 0.0
C1899 C 0.36263 0.55175 0.45701 0.0
C1900 C 0.3848 0.56904 0.44426 0.0
C1901 C 0.36594 0.5283 0.49221 0.0
C1902 C 0.41067 0.56176 0.46677 0.0
C1903 C 0.4142 0.53822 0.50122 0.0
H1904 H 0.80325 0.17926 0.76141 0.0
H1905 H 0.79601 0.11215 0.88028 0.0
H1906 H 0.75184 0.10005 0.83734 0.0
H1907 H 0.71614 0.10705 0.7645 0.0
H1908 H 0.71734 0.17871 0.65751 0.0
H1909 H 0.76305 0.19002 0.69523 0.0
C1910 C 0.7917 0.16232 0.77848 0.0
C1911 C 0.80296 0.14668 0.82455 0.0
C1912 C 0.76554 0.15584 0.75435 0.0
C1913 C 0.78777 0.1247 0.84569 0.0
C1914 C 0.76256 0.11762 0.82069 0.0
C1915 C 0.72621 0.12522 0.74888 0.0
C1916 C 0.71347 0.14113 0.70508 0.0
C1917 C 0.7514 0.13278 0.7746 0.0
C1918 C 0.72696 0.16502 0.68786 0.0
C1919 C 0.75302 0.17182 0.71072 0.0
H1920 H 0.9215 0.54283 0.05778 0.0
H1921 H 0.8354 0.55203 0.08885 0.0
H1922 H 0.82596 0.50962 0.03773 0.0
H1923 H 0.84131 0.46996 0.98372 0.0
H1924 H 0.92684 0.45778 0.95294 0.0
H1925 H 0.93728 0.50134 1.002 0.0
C1926 C 0.9008 0.5352 0.05421 0.0
C1927 C 0.87919 0.55058 0.07809 0.0
C1928 C 0.8953 0.51053 0.02332 0.0
C1929 C 0.85242 0.54064 0.07161 0.0
C1930 C 0.84694 0.51641 0.04188 0.0
C1931 C 0.86228 0.47692 0.98718 0.0
C1932 C 0.88316 0.46075 0.96369 0.0
C1933 C 0.86809 0.50133 0.01716 0.0
C1934 C 0.91024 0.47003 0.9693 0.0
C1935 C 0.91622 0.49482 0.99818 0.0
H1936 H 0.23503 0.16302 0.78106 0.0
H1937 H 0.24406 0.09018 0.88316 0.0
H1938 H 0.28691 0.07981 0.83483 0.0
H1939 H 0.32079 0.08976 0.76034 0.0
H1940 H 0.31733 0.1661 0.6692 0.0
H1941 H 0.27354 0.17648 0.71486 0.0
C1942 C 0.2467 0.14519 0.79347 0.0
C1943 C 0.23606 0.12727 0.83578 0.0
C1944 C 0.2721 0.13961 0.76614 0.0
C1945 C 0.25152 0.10424 0.85088 0.0
C1946 C 0.27607 0.09823 0.82295 0.0
C1947 C 0.3106 0.10874 0.75004 0.0
C1948 C 0.32209 0.12641 0.70834 0.0
C1949 C 0.28633 0.11544 0.77974 0.0
C1950 C 0.30863 0.15132 0.69822 0.0
C1951 C 0.28364 0.15748 0.72532 0.0
H1952 H 0.61062 0.54609 0.45551 0.0
H1953 H 0.69767 0.55102 0.43147 0.0
H1954 H 0.70419 0.50916 0.48531 0.0
H1955 H 0.68607 0.47106 0.53965 0.0
H1956 H 0.59948 0.46268 0.56212 0.0
H1957 H 0.59193 0.50599 0.51077 0.0
C1958 C 0.6309 0.53769 0.46138 0.0
C1959 C 0.65364 0.55184 0.43909 0.0
C1960 C 0.6347 0.51324 0.49349 0.0
C1961 C 0.67981 0.54078 0.44801 0.0
C1962 C 0.68363 0.51681 0.47916 0.0
C1963 C 0.66551 0.47884 0.5339 0.0
C1964 C 0.64348 0.4639 0.55585 0.0
C1965 C 0.66136 0.50302 0.50254 0.0
C1966 C 0.61692 0.47409 0.5471 0.0
C1967 C 0.6126 0.4987 0.51693 0.0
H1968 H 0.31973 0.89916 0.22764 0.0
H1969 H 0.29198 0.8598 0.38345 0.0
H1970 H 0.24645 0.85541 0.34121 0.0
H1971 H 0.21384 0.86421 0.26251 0.0
H1972 H 0.23963 0.9058 0.10799 0.0
H1973 H 0.28656 0.90739 0.14679 0.0
C1974 C 0.30377 0.88974 0.25274 0.0
C1975 C 0.30957 0.88036 0.30988 0.0
C1976 C 0.27719 0.88752 0.22807 0.0
C1977 C 0.28842 0.86767 0.34034 0.0
C1978 C 0.26223 0.86505 0.31592 0.0
C1979 C 0.22963 0.87364 0.23685 0.0
C1980 C 0.22287 0.88498 0.18208 0.0
C1981 C 0.2563 0.87518 0.26022 0.0
C1982 C 0.24398 0.89671 0.14981 0.0
C1983 C 0.27085 0.89782 0.17238 0.0
H1984 H 0.61103 0.99124 0.40996 0.0
H1985 H 0.68213 0.96125 0.50207 0.0
H1986 H 0.68091 0.9999 0.56743 0.0
H1987 H 0.66125 0.04348 0.59772 0.0
H1988 H 0.59344 0.07692 0.50174 0.0
H1989 H 0.59129 0.03583 0.44056 0.0
C1990 C 0.62628 0.99319 0.44421 0.0
C1991 C 0.64654 0.97291 0.45058 0.0
C1992 C 0.62586 0.01611 0.482 0.0
C1993 C 0.66609 0.97609 0.49558 0.0
C1994 C 0.66547 0.99834 0.53349 0.0
C1995 C 0.64571 0.04157 0.56408 0.0
C1996 C 0.62721 0.063 0.55497 0.0
C1997 C 0.64554 0.01852 0.52722 0.0
C1998 C 0.60755 0.06041 0.51036 0.0
C1999 C 0.60654 0.03704 0.47491 0.0
H2000 H 0.22274 0.36701 0.79832 0.0
H2001 H 0.22021 0.4493 0.86407 0.0
H2002 H 0.26357 0.45932 0.81887 0.0
H2003 H 0.30055 0.44662 0.7549 0.0
H2004 H 0.30756 0.36403 0.69354 0.0
H2005 H 0.26413 0.35253 0.74036 0.0
C2006 C 0.23218 0.38681 0.80425 0.0
C2007 C 0.21828 0.40725 0.83619 0.0
C2008 C 0.25752 0.39274 0.77682 0.0
C2009 C 0.23053 0.43305 0.84118 0.0
C2010 C 0.25527 0.43893 0.81461 0.0
C2011 C 0.29269 0.42601 0.75142 0.0
C2012 C 0.30706 0.40659 0.71829 0.0
C2013 C 0.2686 0.41925 0.78113 0.0
C2014 C 0.29656 0.37986 0.71615 0.0
C2015 C 0.27185 0.37316 0.744 0.0
H2016 H 0.91224 0.98496 0.02003 0.0
H2017 H 0.84009 0.99448 0.12307 0.0
H2018 H 0.83047 0.03808 0.07566 0.0
H2019 H 0.8408 0.07185 1.00092 0.0
H2020 H 0.91694 0.06736 0.90969 0.0
H2021 H 0.92639 0.02311 0.95471 0.0
C2022 C 0.89479 0.99698 0.03308 0.0
C2023 C 0.87699 0.98653 0.07563 0.0
C2024 C 0.88968 0.02246 1.00623 0.0
C2025 C 0.85436 1.0022 0.09156 0.0
C2026 C 0.84867 0.02699 0.06376 0.0
C2027 C 0.85958 0.06139 0.99049 0.0
C2028 C 0.87749 0.07269 0.94901 0.0
C2029 C 0.86588 0.03704 0.02024 0.0
C2030 C 0.902 0.05877 0.93841 0.0
C2031 C 0.90765 0.03361 0.96527 0.0
H2032 H 0.21325 0.63801 0.28875 0.0
H2033 H 0.24125 0.67092 0.12671 0.0
H2034 H 0.28741 0.67463 0.16672 0.0
H2035 H 0.32093 0.66695 0.24688 0.0
H2036 H 0.29246 0.63764 0.41141 0.0
H2037 H 0.24591 0.63491 0.37221 0.0
C2038 C 0.22931 0.64625 0.26206 0.0
C2039 C 0.22338 0.65331 0.20342 0.0
C2040 C 0.25605 0.64924 0.28631 0.0
C2041 C 0.24485 0.6643 0.17079 0.0
C2042 C 0.27145 0.66671 0.19406 0.0
C2043 C 0.30451 0.6603 0.27458 0.0
C2044 C 0.31062 0.65269 0.3327 0.0
C2045 C 0.27746 0.65892 0.25156 0.0
C2046 C 0.28875 0.64417 0.36729 0.0
C2047 C 0.26197 0.6423 0.34445 0.0
H2048 H 0.41942 0.96079 0.4906 0.0
H2049 H 0.34019 0.97477 0.41396 0.0
H2050 H 0.33898 0.02031 0.45587 0.0
H2051 H 0.35803 0.05504 0.5211 0.0
H2052 H 0.43501 0.04085 0.608 0.0
H2053 H 0.43917 0.99692 0.55726 0.0
C2054 C 0.40239 0.97423 0.48148 0.0
C2055 C 0.38058 0.96472 0.44569 0.0
C2056 C 0.40097 1.00024 0.50953 0.0
C2057 C 0.3579 0.98191 0.43813 0.0
C2058 C 0.35695 1.0079 0.46322 0.0
C2059 C 0.37586 0.0425 0.52914 0.0
C2060 C 0.39606 0.05158 0.56916 0.0
C2061 C 0.37801 0.01711 0.50007 0.0
C2062 C 0.41887 0.03458 0.57834 0.0
C2063 C 0.42135 1.00939 0.5488 0.0
H2064 H 0.81006 0.65716 0.23442 0.0
H2065 H 0.80951 0.57457 0.17041 0.0
H2066 H 0.76374 0.56784 0.20717 0.0
H2067 H 0.72496 0.5835 0.26352 0.0
H2068 H 0.72317 0.66558 0.32969 0.0
H2069 H 0.76847 0.67413 0.28826 0.0
C2070 C 0.79946 0.63809 0.22672 0.0
C2071 C 0.81306 0.61672 0.19699 0.0
C2072 C 0.77293 0.63388 0.25045 0.0
C2073 C 0.79939 0.59166 0.1908 0.0
C2074 C 0.77324 0.58764 0.21272 0.0
C2075 C 0.73438 0.60335 0.26907 0.0
C2076 C 0.72063 0.62359 0.30118 0.0
C2077 C 0.76004 0.60829 0.24375 0.0
C2078 C 0.73331 0.64927 0.30675 0.0
C2079 C 0.75922 0.65425 0.28231 0.0
H2080 H 0.19363 0.04339 1.00845 0.0
H2081 H 0.11218 0.06183 0.94866 0.0
H2082 H 0.09612 0.01801 0.98594 0.0
H2083 H 0.10521 0.97401 0.03615 0.0
H2084 H 0.18571 0.95764 0.10434 0.0
H2085 H 0.20183 1.00127 0.06577 0.0
C2086 C 0.17236 0.03776 1.00308 0.0
C2087 C 0.15447 0.0556 0.97266 0.0
C2088 C 0.16295 1.01304 0.02777 0.0
C2089 C 0.1268 0.04816 0.96858 0.0
C2090 C 0.1175 0.0232 0.99105 0.0
C2091 C 0.12622 0.98019 0.04339 0.0
C2092 C 0.14411 0.96243 0.07392 0.0
C2093 C 0.13536 1.00543 0.02081 0.0
C2094 C 0.17131 0.97084 0.0822 0.0
C2095 C 0.1806 0.99575 0.05943 0.0
H2096 H 0.70622 0.38199 0.78011 0.0
H2097 H 0.73861 0.38406 0.60707 0.0
H2098 H 0.7851 0.38248 0.64704 0.0
H2099 H 0.81701 0.38284 0.73198 0.0
H2100 H 0.78413 0.37839 0.90423 0.0
H2101 H 0.7379 0.37845 0.86415 0.0
C2102 C 0.72341 0.3819 0.75092 0.0
C2103 C 0.71859 0.38325 0.69022 0.0
C2104 C 0.75026 0.38067 0.77437 0.0
C2105 C 0.74137 0.38284 0.65363 0.0
C2106 C 0.7681 0.38211 0.67666 0.0
C2107 C 0.79977 0.38167 0.76089 0.0
C2108 C 0.80447 0.38072 0.82178 0.0
C2109 C 0.77288 0.38135 0.73707 0.0
C2110 C 0.78157 0.37899 0.85776 0.0
C2111 C 0.75493 0.37917 0.83462 0.0
loop_
_geom_bond_atom_site_label_1
_geom_bond_atom_site_label_2
_geom_bond_distance
_geom_bond_site_symmetry_2
_ccdc_geom_bond_type
Gd0 N31 2.661 . S
Gd0 N37 2.601 . S
Gd0 O44 2.545 1_554 S
Gd0 O45 2.606 . S
Gd0 O47 2.429 . S
Gd0 O48 2.545 . S
Gd0 O49 2.412 1_554 S
Gd0 O51 2.362 . S
Gd0 O52 2.324 . S
Gd0 C59 2.828 1_554 S
Gd1 N10 2.661 . S
Gd1 N14 2.601 . S
Gd1 O45 2.362 . S
Gd1 O46 2.324 . S
Gd1 O50 2.545 . S
Gd1 O51 2.606 . S
Gd1 O53 2.429 . S
Gd1 O54 2.545 . S
Gd1 O55 2.412 . S
Gd1 C68 2.828 . S
C2 C5 1.417 . S
C2 C7 1.431 . S
C2 C8 1.412 . S
C3 C6 1.437 . S
C3 C7 1.317 . S
C3 H22 0.929 . S
C4 C5 1.426 . S
C4 C6 1.413 . S
C4 N14 1.359 . S
C5 C2 1.417 . S
C5 C4 1.426 . S
C5 N10 1.350 . S
C6 C3 1.437 . S
C6 C4 1.413 . S
C6 C16 1.391 . S
C7 C2 1.431 . S
C7 C3 1.317 . S
C7 H18 0.930 . S
C8 C2 1.412 . S
C8 C9 1.355 . S
C8 H20 0.930 . S
C9 C8 1.355 . S
C9 C11 1.402 . S
C9 H21 0.930 . S
N10 Gd1 2.661 . S
N10 C5 1.350 . S
N10 C11 1.307 . S
C11 C9 1.402 . S
C11 N10 1.307 . S
C11 H12 0.930 . S
H12 C11 0.930 . S
C13 N14 1.334 . S
C13 C15 1.394 . S
C13 H17 0.930 . S
N14 Gd1 2.601 . S
N14 C4 1.359 . S
N14 C13 1.334 . S
C15 C13 1.394 . S
C15 C16 1.359 . S
C15 H27 0.930 . S
C16 C6 1.391 . S
C16 C15 1.359 . S
C16 H28 0.929 . S
H17 C13 0.930 . S
H18 C7 0.930 . S
H19 C36 0.930 . S
H20 C8 0.930 . S
H21 C9 0.930 . S
H22 C3 0.929 . S
H23 C41 0.930 . S
H24 C32 0.930 . S
H25 C33 0.930 . S
H26 C57 0.929 . S
H27 C15 0.930 . S
H28 C16 0.929 . S
H29 C58 0.930 . S
H30 C39 0.930 . S
N31 Gd0 2.661 . S
N31 C35 1.350 . S
N31 C36 1.307 . S
C32 H24 0.930 . S
C32 C33 1.355 . S
C32 C34 1.412 . S
C33 H25 0.930 . S
C33 C32 1.355 . S
C33 C36 1.402 . S
C34 C32 1.412 . S
C34 C35 1.417 . S
C34 C58 1.431 1_554 S
C35 N31 1.350 . S
C35 C34 1.417 . S
C35 C38 1.426 . S
C36 H19 0.930 . S
C36 N31 1.307 . S
C36 C33 1.402 . S
N37 Gd0 2.601 . S
N37 C38 1.359 . S
N37 C41 1.334 . S
C38 C35 1.426 . S
C38 N37 1.359 . S
C38 C42 1.413 1_554 S
C39 H30 0.930 . S
C39 C40 1.359 . S
C39 C41 1.394 1_556 S
C40 C39 1.359 . S
C40 C42 1.391 . S
C40 H43 0.929 . S
C41 H23 0.930 . S
C41 N37 1.334 . S
C41 C39 1.394 1_554 S
C42 C38 1.413 1_556 S
C42 C40 1.391 . S
C42 C57 1.437 . S
H43 C40 0.929 . S
O44 Gd0 2.545 1_556 S
O44 C59 1.258 . S
O45 Gd0 2.606 . S
O45 Gd1 2.362 . S
O45 C56 1.284 . S
O46 Gd1 2.324 . S
O46 C66 1.254 . S
O47 Gd0 2.429 . S
O47 C66 1.268 . S
O48 Gd0 2.545 . S
O48 C56 1.250 . S
O49 Gd0 2.412 1_556 S
O49 C59 1.252 . S
O50 Gd1 2.545 . S
O50 C68 1.258 . S
O51 Gd0 2.362 . S
O51 Gd1 2.606 . S
O51 C67 1.284 . S
O52 Gd0 2.324 . S
O52 C75 1.254 . S
O53 Gd1 2.429 . S
O53 C75 1.268 . S
O54 Gd1 2.545 . S
O54 C67 1.250 . S
O55 Gd1 2.412 . S
O55 C68 1.252 . S
C56 O45 1.284 . S
C56 O48 1.250 . S
C57 H26 0.929 . S
C57 C42 1.437 . S
C57 C58 1.317 . S
C58 H29 0.930 . S
C58 C34 1.431 1_556 S
C58 C57 1.317 . S
C59 Gd0 2.828 1_556 S
C59 O44 1.258 . S
C59 O49 1.252 . S
C59 C60 1.497 . S
C60 C59 1.497 . S
C60 C61 1.395 . S
C60 C62 1.380 . S
C61 C60 1.395 . S
C61 C64 1.398 . S
C61 H76 0.930 . S
C62 C60 1.380 . S
C62 C63 1.391 . S
C62 H77 0.930 . S
C63 C62 1.391 . S
C63 C65 1.387 . S
C64 C61 1.398 . S
C64 C65 1.380 . S
C64 H78 0.930 . S
C65 C63 1.387 . S
C65 C64 1.380 . S
C65 H79 0.930 . S
C66 O46 1.254 . S
C66 O47 1.268 . S
C67 O51 1.284 . S
C67 O54 1.250 . S
C68 Gd1 2.828 . S
C68 O50 1.258 . S
C68 O55 1.252 . S
C68 C69 1.497 . S
C69 C68 1.497 . S
C69 C70 1.395 . S
C69 C71 1.380 . S
C70 C69 1.395 . S
C70 C73 1.398 . S
C70 H80 0.930 . S
C71 C69 1.380 . S
C71 C72 1.391 . S
C71 H81 0.930 . S
C72 C71 1.391 . S
C72 C74 1.387 . S
C73 C70 1.398 . S
C73 C74 1.380 . S
C73 H82 0.930 . S
C74 C72 1.387 . S
C74 C73 1.380 . S
C74 H83 0.930 . S
C75 O52 1.254 . S
C75 O53 1.268 . S
H76 C61 0.930 . S
H77 C62 0.930 . S
H78 C64 0.930 . S
H79 C65 0.930 . S
H80 C70 0.930 . S
H81 C71 0.930 . S
H82 C73 0.930 . S
H83 C74 0.930 . S
Gd84 N115 2.661 . S
Gd84 N121 2.601 . S
Gd84 O128 2.545 . S
Gd84 O129 2.606 . S
Gd84 O131 2.429 . S
Gd84 O132 2.545 . S
Gd84 O133 2.412 . S
Gd84 O135 2.362 . S
Gd84 O136 2.324 . S
Gd84 C143 2.828 . S
Gd85 N94 2.661 . S
Gd85 N98 2.601 . S
Gd85 O129 2.362 . S
Gd85 O130 2.324 . S
Gd85 O134 2.545 . S
Gd85 O135 2.606 . S
Gd85 O137 2.429 . S
Gd85 O138 2.545 . S
Gd85 O139 2.412 . S
Gd85 C152 2.828 . S
C86 C89 1.417 . S
C86 C91 1.431 . S
C86 C92 1.412 . S
C87 C90 1.437 . S
C87 C91 1.317 . S
C87 H106 0.929 . S
C88 C89 1.426 . S
C88 C90 1.413 . S
C88 N98 1.359 . S
C89 C86 1.417 . S
C89 C88 1.426 . S
C89 N94 1.350 . S
C90 C87 1.437 . S
C90 C88 1.413 . S
C90 C100 1.391 . S
C91 C86 1.431 . S
C91 C87 1.317 . S
C91 H102 0.930 . S
C92 C86 1.412 . S
C92 C93 1.355 . S
C92 H104 0.930 . S
C93 C92 1.355 . S
C93 C95 1.402 . S
C93 H105 0.930 . S
N94 Gd85 2.661 . S
N94 C89 1.350 . S
N94 C95 1.307 . S
C95 C93 1.402 . S
C95 N94 1.307 . S
C95 H96 0.930 . S
H96 C95 0.930 . S
C97 N98 1.334 . S
C97 C99 1.394 . S
C97 H101 0.930 . S
N98 Gd85 2.601 . S
N98 C88 1.359 . S
N98 C97 1.334 . S
C99 C97 1.394 . S
C99 C100 1.359 . S
C99 H111 0.930 . S
C100 C90 1.391 . S
C100 C99 1.359 . S
C100 H112 0.929 . S
H101 C97 0.930 . S
H102 C91 0.930 . S
H103 C120 0.930 . S
H104 C92 0.930 . S
H105 C93 0.930 . S
H106 C87 0.929 . S
H107 C125 0.930 . S
H108 C116 0.930 . S
H109 C117 0.930 . S
H110 C141 0.929 . S
H111 C99 0.930 . S
H112 C100 0.929 . S
H113 C142 0.930 . S
H114 C123 0.930 . S
N115 Gd84 2.661 . S
N115 C119 1.350 . S
N115 C120 1.307 . S
C116 H108 0.930 . S
C116 C117 1.355 . S
C116 C118 1.412 . S
C117 H109 0.930 . S
C117 C116 1.355 . S
C117 C120 1.402 . S
C118 C116 1.412 . S
C118 C119 1.417 . S
C118 C142 1.431 . S
C119 N115 1.350 . S
C119 C118 1.417 . S
C119 C122 1.426 . S
C120 H103 0.930 . S
C120 N115 1.307 . S
C120 C117 1.402 . S
N121 Gd84 2.601 . S
N121 C122 1.359 . S
N121 C125 1.334 . S
C122 C119 1.426 . S
C122 N121 1.359 . S
C122 C126 1.413 . S
C123 H114 0.930 . S
C123 C124 1.359 . S
C123 C125 1.394 . S
C124 C123 1.359 . S
C124 C126 1.391 . S
C124 H127 0.929 . S
C125 H107 0.930 . S
C125 N121 1.334 . S
C125 C123 1.394 . S
C126 C122 1.413 . S
C126 C124 1.391 . S
C126 C141 1.437 . S
H127 C124 0.929 . S
O128 Gd84 2.545 . S
O128 C143 1.258 . S
O129 Gd84 2.606 . S
O129 Gd85 2.362 . S
O129 C140 1.284 . S
O130 Gd85 2.324 . S
O130 C150 1.254 . S
O131 Gd84 2.429 . S
O131 C150 1.268 . S
O132 Gd84 2.545 . S
O132 C140 1.250 . S
O133 Gd84 2.412 . S
O133 C143 1.252 . S
O134 Gd85 2.545 . S
O134 C152 1.258 . S
O135 Gd84 2.362 . S
O135 Gd85 2.606 . S
O135 C151 1.284 . S
O136 Gd84 2.324 . S
O136 C159 1.254 . S
O137 Gd85 2.429 . S
O137 C159 1.268 . S
O138 Gd85 2.545 . S
O138 C151 1.250 . S
O139 Gd85 2.412 . S
O139 C152 1.252 . S
C140 O129 1.284 . S
C140 O132 1.250 . S
C141 H110 0.929 . S
C141 C126 1.437 . S
C141 C142 1.317 . S
C142 H113 0.930 . S
C142 C118 1.431 . S
C142 C141 1.317 . S
C143 Gd84 2.828 . S
C143 O128 1.258 . S
C143 O133 1.252 . S
C143 C144 1.497 . S
C144 C143 1.497 . S
C144 C145 1.395 . S
C144 C146 1.380 . S
C145 C144 1.395 . S
C145 C148 1.398 . S
C145 H160 0.930 . S
C146 C144 1.380 . S
C146 C147 1.391 . S
C146 H161 0.930 . S
C147 C146 1.391 . S
C147 C149 1.387 . S
C148 C145 1.398 . S
C148 C149 1.380 . S
C148 H162 0.930 . S
C149 C147 1.387 . S
C149 C148 1.380 . S
C149 H163 0.930 1_554 S
C150 O130 1.254 . S
C150 O131 1.268 . S
C151 O135 1.284 . S
C151 O138 1.250 . S
C152 Gd85 2.828 . S
C152 O134 1.258 . S
C152 O139 1.252 . S
C152 C153 1.497 . S
C153 C152 1.497 . S
C153 C154 1.395 . S
C153 C155 1.380 . S
C154 C153 1.395 . S
C154 C157 1.398 . S
C154 H164 0.930 . S
C155 C153 1.380 . S
C155 C156 1.391 . S
C155 H165 0.930 . S
C156 C155 1.391 . S
C156 C158 1.387 . S
C157 C154 1.398 . S
C157 C158 1.380 . S
C157 H166 0.930 . S
C158 C156 1.387 . S
C158 C157 1.380 . S
C158 H167 0.930 . S
C159 O136 1.254 . S
C159 O137 1.268 . S
H160 C145 0.930 . S
H161 C146 0.930 . S
H162 C148 0.930 . S
H163 C149 0.930 1_556 S
H164 C154 0.930 . S
H165 C155 0.930 . S
H166 C157 0.930 . S
H167 C158 0.930 . S
Gd168 N199 2.661 . S
Gd168 N205 2.601 . S
Gd168 O212 2.545 . S
Gd168 O213 2.606 . S
Gd168 O215 2.429 . S
Gd168 O216 2.545 . S
Gd168 O217 2.412 . S
Gd168 O219 2.362 . S
Gd168 O220 2.324 . S
Gd168 C227 2.828 . S
Gd169 N178 2.661 . S
Gd169 N182 2.601 . S
Gd169 O213 2.362 . S
Gd169 O214 2.324 . S
Gd169 O218 2.545 . S
Gd169 O219 2.606 . S
Gd169 O221 2.429 . S
Gd169 O222 2.545 . S
Gd169 O223 2.412 . S
Gd169 C236 2.828 . S
C170 C173 1.417 . S
C170 C175 1.431 . S
C170 C176 1.412 . S
C171 C174 1.437 . S
C171 C175 1.317 . S
C171 H190 0.929 . S
C172 C173 1.426 . S
C172 C174 1.413 . S
C172 N182 1.359 . S
C173 C170 1.417 . S
C173 C172 1.426 . S
C173 N178 1.350 . S
C174 C171 1.437 . S
C174 C172 1.413 . S
C174 C184 1.391 . S
C175 C170 1.431 . S
C175 C171 1.317 . S
C175 H186 0.930 . S
C176 C170 1.412 . S
C176 C177 1.355 . S
C176 H188 0.930 . S
C177 C176 1.355 . S
C177 C179 1.402 . S
C177 H189 0.930 . S
N178 Gd169 2.661 . S
N178 C173 1.350 . S
N178 C179 1.307 . S
C179 C177 1.402 . S
C179 N178 1.307 . S
C179 H180 0.930 . S
H180 C179 0.930 . S
C181 N182 1.334 . S
C181 C183 1.394 . S
C181 H185 0.930 . S
N182 Gd169 2.601 . S
N182 C172 1.359 . S
N182 C181 1.334 . S
C183 C181 1.394 . S
C183 C184 1.359 . S
C183 H195 0.930 . S
C184 C174 1.391 . S
C184 C183 1.359 . S
C184 H196 0.929 . S
H185 C181 0.930 . S
H186 C175 0.930 . S
H187 C204 0.930 . S
H188 C176 0.930 . S
H189 C177 0.930 . S
H190 C171 0.929 . S
H191 C209 0.930 . S
H192 C200 0.930 . S
H193 C201 0.930 . S
H194 C225 0.929 . S
H195 C183 0.930 . S
H196 C184 0.929 . S
H197 C226 0.930 . S
H198 C207 0.930 . S
N199 Gd168 2.661 . S
N199 C203 1.350 . S
N199 C204 1.307 . S
C200 H192 0.930 . S
C200 C201 1.355 . S
C200 C202 1.412 . S
C201 H193 0.930 . S
C201 C200 1.355 . S
C201 C204 1.402 . S
C202 C200 1.412 . S
C202 C203 1.417 . S
C202 C226 1.431 . S
C203 N199 1.350 . S
C203 C202 1.417 . S
C203 C206 1.426 . S
C204 H187 0.930 . S
C204 N199 1.307 . S
C204 C201 1.402 . S
N205 Gd168 2.601 . S
N205 C206 1.359 . S
N205 C209 1.334 . S
C206 C203 1.426 . S
C206 N205 1.359 . S
C206 C210 1.413 . S
C207 H198 0.930 . S
C207 C208 1.359 . S
C207 C209 1.394 . S
C208 C207 1.359 . S
C208 C210 1.391 . S
C208 H211 0.929 . S
C209 H191 0.930 . S
C209 N205 1.334 . S
C209 C207 1.394 . S
C210 C206 1.413 . S
C210 C208 1.391 . S
C210 C225 1.437 . S
H211 C208 0.929 . S
O212 Gd168 2.545 . S
O212 C227 1.258 . S
O213 Gd168 2.606 . S
O213 Gd169 2.362 . S
O213 C224 1.284 . S
O214 Gd169 2.324 . S
O214 C234 1.254 . S
O215 Gd168 2.429 . S
O215 C234 1.268 . S
O216 Gd168 2.545 . S
O216 C224 1.250 . S
O217 Gd168 2.412 . S
O217 C227 1.252 . S
O218 Gd169 2.545 . S
O218 C236 1.258 . S
O219 Gd168 2.362 . S
O219 Gd169 2.606 . S
O219 C235 1.284 . S
O220 Gd168 2.324 . S
O220 C243 1.254 . S
O221 Gd169 2.429 . S
O221 C243 1.268 . S
O222 Gd169 2.545 . S
O222 C235 1.250 . S
O223 Gd169 2.412 . S
O223 C236 1.252 . S
C224 O213 1.284 . S
C224 O216 1.250 . S
C225 H194 0.929 . S
C225 C210 1.437 . S
C225 C226 1.317 . S
C226 H197 0.930 . S
C226 C202 1.431 . S
C226 C225 1.317 . S
C227 Gd168 2.828 . S
C227 O212 1.258 . S
C227 O217 1.252 . S
C227 C228 1.497 . S
C228 C227 1.497 . S
C228 C229 1.395 . S
C228 C230 1.380 . S
C229 C228 1.395 . S
C229 C232 1.398 . S
C229 H244 0.930 . S
C230 C228 1.380 . S
C230 C231 1.391 . S
C230 H245 0.930 . S
C231 C230 1.391 . S
C231 C233 1.387 . S
C232 C229 1.398 . S
C232 C233 1.380 . S
C232 H246 0.930 . S
C233 C231 1.387 . S
C233 C232 1.380 . S
C233 H247 0.930 1_556 S
C234 O214 1.254 . S
C234 O215 1.268 . S
C235 O219 1.284 . S
C235 O222 1.250 . S
C236 Gd169 2.828 . S
C236 O218 1.258 . S
C236 O223 1.252 . S
C236 C237 1.497 . S
C237 C236 1.497 . S
C237 C238 1.395 . S
C237 C239 1.380 . S
C238 C237 1.395 . S
C238 C241 1.398 . S
C238 H248 0.930 . S
C239 C237 1.380 . S
C239 C240 1.391 . S
C239 H249 0.930 . S
C240 C239 1.391 . S
C240 C242 1.387 . S
C241 C238 1.398 . S
C241 C242 1.380 . S
C241 H250 0.930 . S
C242 C240 1.387 . S
C242 C241 1.380 . S
C242 H251 0.930 . S
C243 O220 1.254 . S
C243 O221 1.268 . S
H244 C229 0.930 . S
H245 C230 0.930 . S
H246 C232 0.930 . S
H247 C233 0.930 1_554 S
H248 C238 0.930 . S
H249 C239 0.930 . S
H250 C241 0.930 . S
H251 C242 0.930 . S
Gd252 N283 2.661 . S
Gd252 N289 2.601 . S
Gd252 O296 2.545 1_556 S
Gd252 O297 2.606 . S
Gd252 O299 2.429 . S
Gd252 O300 2.545 . S
Gd252 O301 2.412 1_556 S
Gd252 O303 2.362 . S
Gd252 O304 2.324 . S
Gd252 C311 2.828 1_556 S
Gd253 N262 2.661 . S
Gd253 N266 2.601 . S
Gd253 O297 2.362 . S
Gd253 O298 2.324 . S
Gd253 O302 2.545 . S
Gd253 O303 2.606 . S
Gd253 O305 2.429 . S
Gd253 O306 2.545 . S
Gd253 O307 2.412 . S
Gd253 C320 2.828 . S
C254 C257 1.417 . S
C254 C259 1.431 1_545 S
C254 C260 1.412 . S
C255 C258 1.466 . S
C255 C259 1.310 1_545 S
C255 H274 0.907 1_545 S
C256 C257 1.426 . S
C256 C258 1.413 . S
C256 N266 1.359 . S
C257 C254 1.417 . S
C257 C256 1.426 . S
C257 N262 1.350 . S
C258 C255 1.466 . S
C258 C256 1.413 . S
C258 C268 1.391 . S
C259 C254 1.431 1_565 S
C259 C255 1.310 1_565 S
C259 H270 0.930 . S
C260 C254 1.412 . S
C260 C261 1.355 . S
C260 H272 0.930 1_545 S
C261 C260 1.355 . S
C261 C263 1.402 . S
C261 H273 0.930 . S
N262 Gd253 2.661 . S
N262 C257 1.350 . S
N262 C263 1.307 . S
C263 C261 1.402 . S
C263 N262 1.307 . S
C263 H264 0.930 . S
H264 C263 0.930 . S
C265 N266 1.334 . S
C265 C267 1.394 . S
C265 H269 0.930 . S
N266 Gd253 2.601 . S
N266 C256 1.359 . S
N266 C265 1.334 . S
C267 C265 1.394 . S
C267 C268 1.359 . S
C267 H279 0.930 . S
C268 C258 1.391 . S
C268 C267 1.359 . S
C268 H280 0.929 . S
H269 C265 0.930 . S
H270 C259 0.930 . S
H271 C288 0.930 . S
H272 C260 0.930 1_565 S
H273 C261 0.930 . S
H274 C255 0.907 1_565 S
H275 C293 0.930 . S
H276 C284 0.930 . S
H277 C285 0.930 . S
H278 C309 0.929 . S
H279 C267 0.930 . S
H280 C268 0.929 . S
H281 C310 0.930 . S
H282 C291 0.930 . S
N283 Gd252 2.661 . S
N283 C287 1.350 . S
N283 C288 1.307 . S
C284 H276 0.930 . S
C284 C285 1.355 . S
C284 C286 1.412 . S
C285 H277 0.930 . S
C285 C284 1.355 . S
C285 C288 1.402 . S
C286 C284 1.412 . S
C286 C287 1.417 . S
C286 C310 1.431 1_556 S
C287 N283 1.350 . S
C287 C286 1.417 . S
C287 C290 1.426 . S
C288 H271 0.930 . S
C288 N283 1.307 . S
C288 C285 1.402 . S
N289 Gd252 2.601 . S
N289 C290 1.359 . S
N289 C293 1.334 . S
C290 C287 1.426 . S
C290 N289 1.359 . S
C290 C294 1.413 1_556 S
C291 H282 0.930 . S
C291 C292 1.359 . S
C291 C293 1.394 1_554 S
C292 C291 1.359 . S
C292 C294 1.391 . S
C292 H295 0.929 . S
C293 H275 0.930 . S
C293 N289 1.334 . S
C293 C291 1.394 1_556 S
C294 C290 1.413 1_554 S
C294 C292 1.391 . S
C294 C309 1.437 . S
H295 C292 0.929 . S
O296 Gd252 2.545 1_554 S
O296 C311 1.258 . S
O297 Gd252 2.606 . S
O297 Gd253 2.362 . S
O297 C308 1.284 . S
O298 Gd253 2.324 . S
O298 C318 1.254 . S
O299 Gd252 2.429 . S
O299 C318 1.268 . S
O300 Gd252 2.545 . S
O300 C308 1.250 . S
O301 Gd252 2.412 1_554 S
O301 C311 1.252 . S
O302 Gd253 2.545 . S
O302 C320 1.258 . S
O303 Gd252 2.362 . S
O303 Gd253 2.606 . S
O303 C319 1.284 . S
O304 Gd252 2.324 . S
O304 C327 1.254 . S
O305 Gd253 2.429 . S
O305 C327 1.268 . S
O306 Gd253 2.545 . S
O306 C319 1.250 . S
O307 Gd253 2.412 . S
O307 C320 1.252 . S
C308 O297 1.284 . S
C308 O300 1.250 . S
C309 H278 0.929 . S
C309 C294 1.437 . S
C309 C310 1.317 . S
C310 H281 0.930 . S
C310 C286 1.431 1_554 S
C310 C309 1.317 . S
C311 Gd252 2.828 1_554 S
C311 O296 1.258 . S
C311 O301 1.252 . S
C311 C312 1.497 . S
C312 C311 1.497 . S
C312 C313 1.395 . S
C312 C314 1.380 . S
C313 C312 1.395 . S
C313 C316 1.398 . S
C313 H328 0.930 . S
C314 C312 1.380 . S
C314 C315 1.391 . S
C314 H329 0.930 . S
C315 C314 1.391 . S
C315 C317 1.387 . S
C316 C313 1.398 . S
C316 C317 1.380 . S
C316 H330 0.930 . S
C317 C315 1.387 . S
C317 C316 1.380 . S
C317 H331 0.930 . S
C318 O298 1.254 . S
C318 O299 1.268 . S
C319 O303 1.284 . S
C319 O306 1.250 . S
C320 Gd253 2.828 . S
C320 O302 1.258 . S
C320 O307 1.252 . S
C320 C321 1.497 . S
C321 C320 1.497 . S
C321 C322 1.395 . S
C321 C323 1.380 . S
C322 C321 1.395 . S
C322 C325 1.398 . S
C322 H332 0.930 . S
C323 C321 1.380 . S
C323 C324 1.391 . S
C323 H333 0.930 . S
C324 C323 1.391 . S
C324 C326 1.387 . S
C325 C322 1.398 . S
C325 C326 1.380 . S
C325 H334 0.930 . S
C326 C324 1.387 . S
C326 C325 1.380 . S
C326 H335 0.930 . S
C327 O304 1.254 . S
C327 O305 1.268 . S
H328 C313 0.930 . S
H329 C314 0.930 . S
H330 C316 0.930 . S
H331 C317 0.930 . S
H332 C322 0.930 . S
H333 C323 0.930 . S
H334 C325 0.930 . S
H335 C326 0.930 . S
Gd336 N367 2.661 . S
Gd336 N373 2.601 . S
Gd336 O380 2.545 . S
Gd336 O381 2.606 . S
Gd336 O383 2.429 . S
Gd336 O384 2.545 . S
Gd336 O385 2.412 . S
Gd336 O387 2.362 . S
Gd336 O388 2.324 . S
Gd336 C395 2.828 . S
Gd337 N346 2.661 . S
Gd337 N350 2.601 . S
Gd337 O381 2.362 . S
Gd337 O382 2.324 . S
Gd337 O386 2.545 1_556 S
Gd337 O387 2.606 . S
Gd337 O389 2.429 . S
Gd337 O390 2.545 . S
Gd337 O391 2.412 1_556 S
Gd337 C404 2.828 1_556 S
C338 C341 1.417 . S
C338 C343 1.431 1_556 S
C338 C344 1.412 . S
C339 C342 1.437 . S
C339 C343 1.317 . S
C339 H358 0.929 . S
C340 C341 1.426 . S
C340 C342 1.413 1_556 S
C340 N350 1.359 . S
C341 C338 1.417 . S
C341 C340 1.426 . S
C341 N346 1.350 . S
C342 C339 1.437 . S
C342 C340 1.413 1_554 S
C342 C352 1.391 . S
C343 C338 1.431 1_554 S
C343 C339 1.317 . S
C343 H354 0.930 . S
C344 C338 1.412 . S
C344 C345 1.355 . S
C344 H356 0.930 . S
C345 C344 1.355 . S
C345 C347 1.402 . S
C345 H357 0.930 . S
N346 Gd337 2.661 . S
N346 C341 1.350 . S
N346 C347 1.307 . S
C347 C345 1.402 . S
C347 N346 1.307 . S
C347 H348 0.930 . S
H348 C347 0.930 . S
C349 N350 1.334 . S
C349 C351 1.395 . S
C349 H353 0.930 . S
N350 Gd337 2.601 . S
N350 C340 1.359 . S
N350 C349 1.334 . S
C351 C349 1.395 . S
C351 C352 1.358 1_556 S
C351 H363 0.929 1_556 S
C352 C342 1.391 . S
C352 C351 1.358 1_554 S
C352 H364 0.929 . S
H353 C349 0.930 . S
H354 C343 0.930 . S
H355 C372 0.930 . S
H356 C344 0.930 . S
H357 C345 0.930 . S
H358 C339 0.929 . S
H359 C377 0.930 . S
H360 C368 0.930 . S
H361 C369 0.930 . S
H362 C393 0.943 . S
H363 C351 0.929 1_554 S
H364 C352 0.929 . S
H365 C394 0.930 1_655 S
H366 C375 0.930 . S
N367 Gd336 2.661 . S
N367 C371 1.350 . S
N367 C372 1.307 . S
C368 H360 0.930 . S
C368 C369 1.355 . S
C368 C370 1.412 . S
C369 H361 0.930 . S
C369 C368 1.355 . S
C369 C372 1.402 . S
C370 C368 1.412 . S
C370 C371 1.417 . S
C370 C394 1.431 . S
C371 N367 1.350 . S
C371 C370 1.417 . S
C371 C374 1.426 . S
C372 H355 0.930 . S
C372 N367 1.307 . S
C372 C369 1.402 . S
N373 Gd336 2.601 . S
N373 C374 1.359 . S
N373 C377 1.334 . S
C374 C371 1.426 . S
C374 N373 1.359 . S
C374 C378 1.413 . S
C375 H366 0.930 . S
C375 C376 1.359 . S
C375 C377 1.394 . S
C376 C375 1.359 . S
C376 C378 1.391 . S
C376 H379 0.929 . S
C377 H359 0.930 . S
C377 N373 1.334 . S
C377 C375 1.394 . S
C378 C374 1.413 . S
C378 C376 1.391 . S
C378 C393 1.437 . S
H379 C376 0.929 . S
O380 Gd336 2.545 . S
O380 C395 1.258 . S
O381 Gd336 2.606 . S
O381 Gd337 2.362 . S
O381 C392 1.284 . S
O382 Gd337 2.324 . S
O382 C402 1.254 . S
O383 Gd336 2.429 . S
O383 C402 1.268 . S
O384 Gd336 2.545 . S
O384 C392 1.250 . S
O385 Gd336 2.412 . S
O385 C395 1.252 . S
O386 Gd337 2.545 1_554 S
O386 C404 1.258 . S
O387 Gd336 2.362 . S
O387 Gd337 2.606 . S
O387 C403 1.284 . S
O388 Gd336 2.324 . S
O388 C411 1.254 . S
O389 Gd337 2.429 . S
O389 C411 1.268 . S
O390 Gd337 2.545 . S
O390 C403 1.250 . S
O391 Gd337 2.412 1_554 S
O391 C404 1.252 . S
C392 O381 1.284 . S
C392 O384 1.250 . S
C393 H362 0.943 . S
C393 C378 1.437 . S
C393 C394 1.317 . S
C394 H365 0.930 1_455 S
C394 C370 1.431 . S
C394 C393 1.317 . S
C395 Gd336 2.828 . S
C395 O380 1.258 . S
C395 O385 1.252 . S
C395 C396 1.497 . S
C396 C395 1.497 . S
C396 C397 1.395 . S
C396 C398 1.380 . S
C397 C396 1.395 . S
C397 C400 1.398 . S
C397 H412 0.930 . S
C398 C396 1.380 . S
C398 C399 1.391 . S
C398 H413 0.930 . S
C399 C398 1.391 . S
C399 C401 1.387 . S
C400 C397 1.398 . S
C400 C401 1.380 . S
C400 H414 0.930 . S
C401 C399 1.387 . S
C401 C400 1.380 . S
C401 H415 0.930 . S
C402 O382 1.254 . S
C402 O383 1.268 . S
C403 O387 1.284 . S
C403 O390 1.250 . S
C404 Gd337 2.828 1_554 S
C404 O386 1.258 . S
C404 O391 1.252 . S
C404 C405 1.497 . S
C405 C404 1.497 . S
C405 C406 1.395 . S
C405 C407 1.380 . S
C406 C405 1.395 . S
C406 C409 1.398 . S
C406 H416 0.930 . S
C407 C405 1.380 . S
C407 C408 1.391 . S
C407 H417 0.930 . S
C408 C407 1.391 . S
C408 C410 1.387 . S
C409 C406 1.398 . S
C409 C410 1.380 . S
C409 H418 0.930 . S
C410 C408 1.387 . S
C410 C409 1.380 . S
C410 H419 0.930 . S
C411 O388 1.254 . S
C411 O389 1.268 . S
H412 C397 0.930 . S
H413 C398 0.930 . S
H414 C400 0.930 . S
H415 C401 0.930 . S
H416 C406 0.930 . S
H417 C407 0.930 . S
H418 C409 0.930 . S
H419 C410 0.930 . S
Gd420 N451 2.661 . S
Gd420 N457 2.601 . S
Gd420 O464 2.545 . S
Gd420 O465 2.606 . S
Gd420 O467 2.429 . S
Gd420 O468 2.545 . S
Gd420 O469 2.412 . S
Gd420 O471 2.362 . S
Gd420 O472 2.324 . S
Gd420 C479 2.828 . S
Gd421 N430 2.661 . S
Gd421 N434 2.601 . S
Gd421 O465 2.362 . S
Gd421 O466 2.324 . S
Gd421 O470 2.545 1_554 S
Gd421 O471 2.606 . S
Gd421 O473 2.429 . S
Gd421 O474 2.545 . S
Gd421 O475 2.412 1_554 S
Gd421 C488 2.828 1_554 S
C422 C425 1.417 . S
C422 C427 1.431 1_554 S
C422 C428 1.412 . S
C423 C426 1.437 . S
C423 C427 1.317 . S
C423 H442 0.929 . S
C424 C425 1.426 . S
C424 C426 1.413 1_554 S
C424 N434 1.359 . S
C425 C422 1.417 . S
C425 C424 1.426 . S
C425 N430 1.350 . S
C426 C423 1.437 . S
C426 C424 1.413 1_556 S
C426 C436 1.391 . S
C427 C422 1.431 1_556 S
C427 C423 1.317 . S
C427 H438 0.930 . S
C428 C422 1.412 . S
C428 C429 1.355 . S
C428 H440 0.930 . S
C429 C428 1.355 . S
C429 C431 1.402 . S
C429 H441 0.930 . S
N430 Gd421 2.661 . S
N430 C425 1.350 . S
N430 C431 1.307 . S
C431 C429 1.402 . S
C431 N430 1.307 . S
C431 H432 0.930 . S
H432 C431 0.930 . S
C433 N434 1.334 . S
C433 C435 1.394 1_554 S
C433 H437 0.930 . S
N434 Gd421 2.601 . S
N434 C424 1.359 . S
N434 C433 1.334 . S
C435 C433 1.394 1_556 S
C435 C436 1.359 . S
C435 H447 0.930 . S
C436 C426 1.391 . S
C436 C435 1.359 . S
C436 H448 0.929 . S
H437 C433 0.930 . S
H438 C427 0.930 . S
H439 C456 0.930 . S
H440 C428 0.930 . S
H441 C429 0.930 . S
H442 C423 0.929 . S
H443 C461 0.930 . S
H444 C452 0.930 . S
H445 C453 0.930 . S
H446 C477 0.929 . S
H447 C435 0.930 . S
H448 C436 0.929 . S
H449 C478 0.930 1_455 S
H450 C459 0.930 . S
N451 Gd420 2.661 . S
N451 C455 1.350 . S
N451 C456 1.307 . S
C452 H444 0.930 . S
C452 C453 1.355 . S
C452 C454 1.412 . S
C453 H445 0.930 . S
C453 C452 1.355 . S
C453 C456 1.402 . S
C454 C452 1.412 . S
C454 C455 1.417 . S
C454 C478 1.431 . S
C455 N451 1.350 . S
C455 C454 1.417 . S
C455 C458 1.426 . S
C456 H439 0.930 . S
C456 N451 1.307 . S
C456 C453 1.402 . S
N457 Gd420 2.601 . S
N457 C458 1.359 . S
N457 C461 1.334 . S
C458 C455 1.426 . S
C458 N457 1.359 . S
C458 C462 1.413 . S
C459 H450 0.930 . S
C459 C460 1.359 . S
C459 C461 1.394 . S
C460 C459 1.359 . S
C460 C462 1.391 . S
C460 H463 0.929 . S
C461 H443 0.930 . S
C461 N457 1.334 . S
C461 C459 1.394 . S
C462 C458 1.413 . S
C462 C460 1.391 . S
C462 C477 1.437 . S
H463 C460 0.929 . S
O464 Gd420 2.545 . S
O464 C479 1.258 . S
O465 Gd420 2.606 . S
O465 Gd421 2.362 . S
O465 C476 1.284 . S
O466 Gd421 2.324 . S
O466 C486 1.254 . S
O467 Gd420 2.429 . S
O467 C486 1.268 . S
O468 Gd420 2.545 . S
O468 C476 1.250 . S
O469 Gd420 2.412 . S
O469 C479 1.252 . S
O470 Gd421 2.545 1_556 S
O470 C488 1.258 . S
O471 Gd420 2.362 . S
O471 Gd421 2.606 . S
O471 C487 1.284 . S
O472 Gd420 2.324 . S
O472 C495 1.254 . S
O473 Gd421 2.429 . S
O473 C495 1.268 . S
O474 Gd421 2.545 . S
O474 C487 1.250 . S
O475 Gd421 2.412 1_556 S
O475 C488 1.252 . S
C476 O465 1.284 . S
C476 O468 1.250 . S
C477 H446 0.929 . S
C477 C462 1.437 . S
C477 C478 1.317 . S
C478 H449 0.930 1_655 S
C478 C454 1.431 . S
C478 C477 1.317 . S
C479 Gd420 2.828 . S
C479 O464 1.258 . S
C479 O469 1.252 . S
C479 C480 1.497 . S
C480 C479 1.497 . S
C480 C481 1.395 . S
C480 C482 1.380 . S
C481 C480 1.395 . S
C481 C484 1.398 . S
C481 H496 0.930 . S
C482 C480 1.380 . S
C482 C483 1.391 . S
C482 H497 0.930 . S
C483 C482 1.391 . S
C483 C485 1.387 . S
C484 C481 1.398 . S
C484 C485 1.380 . S
C484 H498 0.930 . S
C485 C483 1.387 . S
C485 C484 1.380 . S
C485 H499 0.930 . S
C486 O466 1.254 . S
C486 O467 1.268 . S
C487 O471 1.284 . S
C487 O474 1.250 . S
C488 Gd421 2.828 1_556 S
C488 O470 1.258 . S
C488 O475 1.252 . S
C488 C489 1.497 . S
C489 C488 1.497 . S
C489 C490 1.395 . S
C489 C491 1.380 . S
C490 C489 1.395 . S
C490 C493 1.398 . S
C490 H500 0.930 . S
C491 C489 1.380 . S
C491 C492 1.391 . S
C491 H501 0.930 . S
C492 C491 1.391 . S
C492 C494 1.387 . S
C493 C490 1.398 . S
C493 C494 1.380 . S
C493 H502 0.930 . S
C494 C492 1.387 . S
C494 C493 1.380 . S
C494 H503 0.930 . S
C495 O472 1.254 . S
C495 O473 1.268 . S
H496 C481 0.930 . S
H497 C482 0.930 . S
H498 C484 0.930 . S
H499 C485 0.930 . S
H500 C490 0.930 . S
H501 C491 0.930 . S
H502 C493 0.930 . S
H503 C494 0.930 . S
Gd504 N535 2.661 . S
Gd504 N541 2.601 . S
Gd504 O548 2.545 . S
Gd504 O549 2.606 . S
Gd504 O551 2.429 . S
Gd504 O552 2.545 . S
Gd504 O553 2.412 . S
Gd504 O555 2.362 . S
Gd504 O556 2.324 . S
Gd504 C563 2.828 . S
Gd505 N514 2.661 . S
Gd505 N518 2.601 . S
Gd505 O549 2.362 . S
Gd505 O550 2.324 . S
Gd505 O554 2.545 . S
Gd505 O555 2.606 . S
Gd505 O557 2.429 . S
Gd505 O558 2.545 . S
Gd505 O559 2.412 . S
Gd505 C572 2.828 . S
C506 C509 1.417 . S
C506 C511 1.431 . S
C506 C512 1.412 . S
C507 C510 1.437 . S
C507 C511 1.317 . S
C507 H526 0.929 . S
C508 C509 1.426 . S
C508 C510 1.413 . S
C508 N518 1.359 . S
C509 C506 1.417 . S
C509 C508 1.426 . S
C509 N514 1.350 . S
C510 C507 1.437 . S
C510 C508 1.413 . S
C510 C520 1.391 . S
C511 C506 1.431 . S
C511 C507 1.317 . S
C511 H522 0.930 . S
C512 C506 1.412 . S
C512 C513 1.355 . S
C512 H524 0.930 . S
C513 C512 1.355 . S
C513 C515 1.402 . S
C513 H525 0.930 . S
N514 Gd505 2.661 . S
N514 C509 1.350 . S
N514 C515 1.307 . S
C515 C513 1.402 . S
C515 N514 1.307 . S
C515 H516 0.930 . S
H516 C515 0.930 . S
C517 N518 1.334 . S
C517 C519 1.394 . S
C517 H521 0.930 . S
N518 Gd505 2.601 . S
N518 C508 1.359 . S
N518 C517 1.334 . S
C519 C517 1.394 . S
C519 C520 1.359 . S
C519 H531 0.930 . S
C520 C510 1.391 . S
C520 C519 1.359 . S
C520 H532 0.929 . S
H521 C517 0.930 . S
H522 C511 0.930 . S
H523 C540 0.930 . S
H524 C512 0.930 . S
H525 C513 0.930 . S
H526 C507 0.929 . S
H527 C545 0.930 . S
H528 C536 0.930 . S
H529 C537 0.930 . S
H530 C561 0.929 . S
H531 C519 0.930 . S
H532 C520 0.929 . S
H533 C562 0.930 . S
H534 C543 0.930 . S
N535 Gd504 2.661 . S
N535 C539 1.350 . S
N535 C540 1.307 . S
C536 H528 0.930 . S
C536 C537 1.355 . S
C536 C538 1.412 . S
C537 H529 0.930 . S
C537 C536 1.355 . S
C537 C540 1.402 . S
C538 C536 1.412 . S
C538 C539 1.417 . S
C538 C562 1.431 . S
C539 N535 1.350 . S
C539 C538 1.417 . S
C539 C542 1.426 . S
C540 H523 0.930 . S
C540 N535 1.307 . S
C540 C537 1.402 . S
N541 Gd504 2.601 . S
N541 C542 1.359 . S
N541 C545 1.334 . S
C542 C539 1.426 . S
C542 N541 1.359 . S
C542 C546 1.413 . S
C543 H534 0.930 . S
C543 C544 1.359 . S
C543 C545 1.394 . S
C544 C543 1.359 . S
C544 C546 1.391 . S
C544 H547 0.929 . S
C545 H527 0.930 . S
C545 N541 1.334 . S
C545 C543 1.394 . S
C546 C542 1.413 . S
C546 C544 1.391 . S
C546 C561 1.437 . S
H547 C544 0.929 . S
O548 Gd504 2.545 . S
O548 C563 1.258 . S
O549 Gd504 2.606 . S
O549 Gd505 2.362 . S
O549 C560 1.284 . S
O550 Gd505 2.324 . S
O550 C570 1.254 . S
O551 Gd504 2.429 . S
O551 C570 1.268 . S
O552 Gd504 2.545 . S
O552 C560 1.250 . S
O553 Gd504 2.412 . S
O553 C563 1.252 . S
O554 Gd505 2.545 . S
O554 C572 1.258 . S
O555 Gd504 2.362 . S
O555 Gd505 2.606 . S
O555 C571 1.284 . S
O556 Gd504 2.324 . S
O556 C579 1.254 . S
O557 Gd505 2.429 . S
O557 C579 1.268 . S
O558 Gd505 2.545 . S
O558 C571 1.250 . S
O559 Gd505 2.412 . S
O559 C572 1.252 . S
C560 O549 1.284 . S
C560 O552 1.250 . S
C561 H530 0.929 . S
C561 C546 1.437 . S
C561 C562 1.317 . S
C562 H533 0.930 . S
C562 C538 1.431 . S
C562 C561 1.317 . S
C563 Gd504 2.828 . S
C563 O548 1.258 . S
C563 O553 1.252 . S
C563 C564 1.497 . S
C564 C563 1.497 . S
C564 C565 1.395 . S
C564 C566 1.380 . S
C565 C564 1.395 . S
C565 C568 1.398 . S
C565 H580 0.930 . S
C566 C564 1.380 . S
C566 C567 1.391 . S
C566 H581 0.930 . S
C567 C566 1.391 . S
C567 C569 1.387 . S
C568 C565 1.398 . S
C568 C569 1.380 . S
C568 H582 0.930 . S
C569 C567 1.387 . S
C569 C568 1.380 . S
C569 H583 0.930 . S
C570 O550 1.254 . S
C570 O551 1.268 . S
C571 O555 1.284 . S
C571 O558 1.250 . S
C572 Gd505 2.828 . S
C572 O554 1.258 . S
C572 O559 1.252 . S
C572 C573 1.497 . S
C573 C572 1.497 . S
C573 C574 1.395 . S
C573 C575 1.380 . S
C574 C573 1.395 . S
C574 C577 1.398 . S
C574 H584 0.930 . S
C575 C573 1.380 . S
C575 C576 1.391 . S
C575 H585 0.930 . S
C576 C575 1.391 . S
C576 C578 1.387 . S
C577 C574 1.398 . S
C577 C578 1.380 . S
C577 H586 0.930 . S
C578 C576 1.387 . S
C578 C577 1.380 . S
C578 H587 0.930 1_554 S
C579 O556 1.254 . S
C579 O557 1.268 . S
H580 C565 0.930 . S
H581 C566 0.930 . S
H582 C568 0.930 . S
H583 C569 0.930 . S
H584 C574 0.930 . S
H585 C575 0.930 . S
H586 C577 0.930 . S
H587 C578 0.930 1_556 S
Gd588 N619 2.661 . S
Gd588 N625 2.601 . S
Gd588 O632 2.545 . S
Gd588 O633 2.606 . S
Gd588 O635 2.429 . S
Gd588 O636 2.545 . S
Gd588 O637 2.412 . S
Gd588 O639 2.362 . S
Gd588 O640 2.324 . S
Gd588 C647 2.828 . S
Gd589 N598 2.661 . S
Gd589 N602 2.601 . S
Gd589 O633 2.362 . S
Gd589 O634 2.324 . S
Gd589 O638 2.545 . S
Gd589 O639 2.606 . S
Gd589 O641 2.429 . S
Gd589 O642 2.545 . S
Gd589 O643 2.412 . S
Gd589 C656 2.828 . S
C590 C593 1.417 . S
C590 C595 1.431 . S
C590 C596 1.412 . S
C591 C594 1.437 . S
C591 C595 1.317 . S
C591 H610 0.929 . S
C592 C593 1.426 . S
C592 C594 1.413 . S
C592 N602 1.359 . S
C593 C590 1.417 . S
C593 C592 1.426 . S
C593 N598 1.350 . S
C594 C591 1.437 . S
C594 C592 1.413 . S
C594 C604 1.391 . S
C595 C590 1.431 . S
C595 C591 1.317 . S
C595 H606 0.930 . S
C596 C590 1.412 . S
C596 C597 1.355 . S
C596 H608 0.930 . S
C597 C596 1.355 . S
C597 C599 1.402 . S
C597 H609 0.930 . S
N598 Gd589 2.661 . S
N598 C593 1.350 . S
N598 C599 1.307 . S
C599 C597 1.402 . S
C599 N598 1.307 . S
C599 H600 0.930 . S
H600 C599 0.930 . S
C601 N602 1.334 . S
C601 C603 1.394 . S
C601 H605 0.930 . S
N602 Gd589 2.601 . S
N602 C592 1.359 . S
N602 C601 1.334 . S
C603 C601 1.394 . S
C603 C604 1.359 . S
C603 H615 0.930 . S
C604 C594 1.391 . S
C604 C603 1.359 . S
C604 H616 0.929 . S
H605 C601 0.930 . S
H606 C595 0.930 . S
H607 C624 0.930 . S
H608 C596 0.930 . S
H609 C597 0.930 . S
H610 C591 0.929 . S
H611 C629 0.930 . S
H612 C620 0.930 . S
H613 C621 0.930 . S
H614 C645 0.929 . S
H615 C603 0.930 . S
H616 C604 0.929 . S
H617 C646 0.930 . S
H618 C627 0.930 . S
N619 Gd588 2.661 . S
N619 C623 1.350 . S
N619 C624 1.307 . S
C620 H612 0.930 . S
C620 C621 1.355 . S
C620 C622 1.412 . S
C621 H613 0.930 . S
C621 C620 1.355 . S
C621 C624 1.402 . S
C622 C620 1.412 . S
C622 C623 1.417 . S
C622 C646 1.431 . S
C623 N619 1.350 . S
C623 C622 1.417 . S
C623 C626 1.426 . S
C624 H607 0.930 . S
C624 N619 1.307 . S
C624 C621 1.402 . S
N625 Gd588 2.601 . S
N625 C626 1.359 . S
N625 C629 1.334 . S
C626 C623 1.426 . S
C626 N625 1.359 . S
C626 C630 1.413 . S
C627 H618 0.930 . S
C627 C628 1.359 . S
C627 C629 1.394 . S
C628 C627 1.359 . S
C628 C630 1.391 . S
C628 H631 0.929 . S
C629 H611 0.930 . S
C629 N625 1.334 . S
C629 C627 1.394 . S
C630 C626 1.413 . S
C630 C628 1.391 . S
C630 C645 1.437 . S
H631 C628 0.929 . S
O632 Gd588 2.545 . S
O632 C647 1.258 . S
O633 Gd588 2.606 . S
O633 Gd589 2.362 . S
O633 C644 1.284 . S
O634 Gd589 2.324 . S
O634 C654 1.254 . S
O635 Gd588 2.429 . S
O635 C654 1.268 . S
O636 Gd588 2.545 . S
O636 C644 1.250 . S
O637 Gd588 2.412 . S
O637 C647 1.252 . S
O638 Gd589 2.545 . S
O638 C656 1.258 . S
O639 Gd588 2.362 . S
O639 Gd589 2.606 . S
O639 C655 1.284 . S
O640 Gd588 2.324 . S
O640 C663 1.254 . S
O641 Gd589 2.429 . S
O641 C663 1.268 . S
O642 Gd589 2.545 . S
O642 C655 1.250 . S
O643 Gd589 2.412 . S
O643 C656 1.252 . S
C644 O633 1.284 . S
C644 O636 1.250 . S
C645 H614 0.929 . S
C645 C630 1.437 . S
C645 C646 1.317 . S
C646 H617 0.930 . S
C646 C622 1.431 . S
C646 C645 1.317 . S
C647 Gd588 2.828 . S
C647 O632 1.258 . S
C647 O637 1.252 . S
C647 C648 1.497 . S
C648 C647 1.497 . S
C648 C649 1.395 . S
C648 C650 1.380 . S
C649 C648 1.395 . S
C649 C652 1.398 . S
C649 H664 0.930 . S
C650 C648 1.380 . S
C650 C651 1.391 . S
C650 H665 0.930 . S
C651 C650 1.391 . S
C651 C653 1.387 1_556 S
C652 C649 1.398 . S
C652 C653 1.380 1_556 S
C652 H666 0.930 . S
C653 C651 1.387 1_554 S
C653 C652 1.380 1_554 S
C653 H667 0.930 . S
C654 O634 1.254 . S
C654 O635 1.268 . S
C655 O639 1.284 . S
C655 O642 1.250 . S
C656 Gd589 2.828 . S
C656 O638 1.258 . S
C656 O643 1.252 . S
C656 C657 1.497 . S
C657 C656 1.497 . S
C657 C658 1.395 . S
C657 C659 1.380 . S
C658 C657 1.395 . S
C658 C661 1.398 . S
C658 H668 0.930 . S
C659 C657 1.380 . S
C659 C660 1.391 . S
C659 H669 0.930 . S
C660 C659 1.391 . S
C660 C662 1.387 . S
C661 C658 1.398 . S
C661 C662 1.380 . S
C661 H670 0.930 . S
C662 C660 1.387 . S
C662 C661 1.380 . S
C662 H671 0.930 . S
C663 O640 1.254 . S
C663 O641 1.268 . S
H664 C649 0.930 . S
H665 C650 0.930 . S
H666 C652 0.930 . S
H667 C653 0.930 . S
H668 C658 0.930 . S
H669 C659 0.930 . S
H670 C661 0.930 . S
H671 C662 0.930 . S
Gd672 N703 2.661 . S
Gd672 N709 2.601 . S
Gd672 O716 2.545 . S
Gd672 O717 2.606 . S
Gd672 O719 2.429 . S
Gd672 O720 2.545 . S
Gd672 O721 2.412 . S
Gd672 O723 2.362 . S
Gd672 O724 2.324 . S
Gd672 C731 2.828 . S
Gd673 N682 2.661 . S
Gd673 N686 2.601 . S
Gd673 O717 2.362 . S
Gd673 O718 2.324 . S
Gd673 O722 2.545 1_556 S
Gd673 O723 2.606 . S
Gd673 O725 2.429 . S
Gd673 O726 2.545 . S
Gd673 O727 2.412 1_556 S
Gd673 C740 2.828 1_556 S
C674 C677 1.417 . S
C674 C679 1.431 1_556 S
C674 C680 1.412 . S
C675 C678 1.437 . S
C675 C679 1.317 . S
C675 H694 0.929 . S
C676 C677 1.426 . S
C676 C678 1.413 1_556 S
C676 N686 1.359 . S
C677 C674 1.417 . S
C677 C676 1.426 . S
C677 N682 1.350 . S
C678 C675 1.437 . S
C678 C676 1.413 1_554 S
C678 C688 1.391 . S
C679 C674 1.431 1_554 S
C679 C675 1.317 . S
C679 H690 0.930 . S
C680 C674 1.412 . S
C680 C681 1.355 . S
C680 H692 0.930 . S
C681 C680 1.355 . S
C681 C683 1.402 . S
C681 H693 0.930 . S
N682 Gd673 2.661 . S
N682 C677 1.350 . S
N682 C683 1.307 . S
C683 C681 1.402 . S
C683 N682 1.307 . S
C683 H684 0.930 . S
H684 C683 0.930 . S
C685 N686 1.334 . S
C685 C687 1.390 1_556 S
C685 H689 0.930 . S
N686 Gd673 2.601 . S
N686 C676 1.359 . S
N686 C685 1.334 . S
C687 C685 1.390 1_554 S
C687 C688 1.361 . S
C687 H699 0.932 . S
C688 C678 1.391 . S
C688 C687 1.361 . S
C688 H700 0.929 . S
H689 C685 0.930 . S
H690 C679 0.930 . S
H691 C708 0.930 . S
H692 C680 0.930 . S
H693 C681 0.930 . S
H694 C675 0.929 . S
H695 C713 0.930 . S
H696 C704 0.930 . S
H697 C705 0.930 . S
H698 C729 0.929 . S
H699 C687 0.932 . S
H700 C688 0.929 . S
H701 C730 0.930 . S
H702 C711 0.930 . S
N703 Gd672 2.661 . S
N703 C707 1.350 . S
N703 C708 1.307 . S
C704 H696 0.930 . S
C704 C705 1.355 . S
C704 C706 1.412 . S
C705 H697 0.930 . S
C705 C704 1.355 . S
C705 C708 1.402 . S
C706 C704 1.412 . S
C706 C707 1.417 . S
C706 C730 1.431 . S
C707 N703 1.350 . S
C707 C706 1.417 . S
C707 C710 1.426 . S
C708 H691 0.930 . S
C708 N703 1.307 . S
C708 C705 1.402 . S
N709 Gd672 2.601 . S
N709 C710 1.359 . S
N709 C713 1.334 . S
C710 C707 1.426 . S
C710 N709 1.359 . S
C710 C714 1.413 . S
C711 H702 0.930 . S
C711 C712 1.359 . S
C711 C713 1.394 . S
C712 C711 1.359 . S
C712 C714 1.391 . S
C712 H715 0.929 . S
C713 H695 0.930 . S
C713 N709 1.334 . S
C713 C711 1.394 . S
C714 C710 1.413 . S
C714 C712 1.391 . S
C714 C729 1.437 . S
H715 C712 0.929 . S
O716 Gd672 2.545 . S
O716 C731 1.258 . S
O717 Gd672 2.606 . S
O717 Gd673 2.362 . S
O717 C728 1.284 . S
O718 Gd673 2.324 . S
O718 C738 1.254 . S
O719 Gd672 2.429 . S
O719 C738 1.268 . S
O720 Gd672 2.545 . S
O720 C728 1.250 . S
O721 Gd672 2.412 . S
O721 C731 1.252 . S
O722 Gd673 2.545 1_554 S
O722 C740 1.258 . S
O723 Gd672 2.362 . S
O723 Gd673 2.606 . S
O723 C739 1.284 . S
O724 Gd672 2.324 . S
O724 C747 1.254 . S
O725 Gd673 2.429 . S
O725 C747 1.268 . S
O726 Gd673 2.545 . S
O726 C739 1.250 . S
O727 Gd673 2.412 1_554 S
O727 C740 1.252 . S
C728 O717 1.284 . S
C728 O720 1.250 . S
C729 H698 0.929 . S
C729 C714 1.437 . S
C729 C730 1.317 . S
C730 H701 0.930 . S
C730 C706 1.431 . S
C730 C729 1.317 . S
C731 Gd672 2.828 . S
C731 O716 1.258 . S
C731 O721 1.252 . S
C731 C732 1.497 . S
C732 C731 1.497 . S
C732 C733 1.395 . S
C732 C734 1.380 . S
C733 C732 1.395 . S
C733 C736 1.398 . S
C733 H748 0.930 . S
C734 C732 1.380 . S
C734 C735 1.391 . S
C734 H749 0.930 . S
C735 C734 1.391 . S
C735 C737 1.387 . S
C736 C733 1.398 . S
C736 C737 1.380 . S
C736 H750 0.930 . S
C737 C735 1.387 . S
C737 C736 1.380 . S
C737 H751 0.930 . S
C738 O718 1.254 . S
C738 O719 1.268 . S
C739 O723 1.284 . S
C739 O726 1.250 . S
C740 Gd673 2.828 1_554 S
C740 O722 1.258 . S
C740 O727 1.252 . S
C740 C741 1.497 . S
C741 C740 1.497 . S
C741 C742 1.395 . S
C741 C743 1.380 . S
C742 C741 1.395 . S
C742 C745 1.398 . S
C742 H752 0.930 . S
C743 C741 1.380 . S
C743 C744 1.391 . S
C743 H753 0.930 . S
C744 C743 1.391 . S
C744 C746 1.387 . S
C745 C742 1.398 . S
C745 C746 1.380 . S
C745 H754 0.930 . S
C746 C744 1.387 . S
C746 C745 1.380 . S
C746 H755 0.930 . S
C747 O724 1.254 . S
C747 O725 1.268 . S
H748 C733 0.930 . S
H749 C734 0.930 . S
H750 C736 0.930 . S
H751 C737 0.930 . S
H752 C742 0.930 . S
H753 C743 0.930 . S
H754 C745 0.930 . S
H755 C746 0.930 . S
Gd756 N787 2.661 . S
Gd756 N793 2.601 . S
Gd756 O800 2.545 . S
Gd756 O801 2.606 . S
Gd756 O803 2.429 . S
Gd756 O804 2.545 . S
Gd756 O805 2.412 . S
Gd756 O807 2.362 . S
Gd756 O808 2.324 . S
Gd756 C815 2.828 . S
Gd757 N766 2.661 . S
Gd757 N770 2.601 . S
Gd757 O801 2.362 . S
Gd757 O802 2.324 . S
Gd757 O806 2.545 . S
Gd757 O807 2.606 . S
Gd757 O809 2.429 . S
Gd757 O810 2.545 . S
Gd757 O811 2.412 . S
Gd757 C824 2.828 . S
C758 C761 1.417 . S
C758 C763 1.431 . S
C758 C764 1.412 . S
C759 C762 1.437 . S
C759 C763 1.317 . S
C759 H778 0.929 . S
C760 C761 1.426 . S
C760 C762 1.413 . S
C760 N770 1.359 . S
C761 C758 1.417 . S
C761 C760 1.426 . S
C761 N766 1.350 . S
C762 C759 1.437 . S
C762 C760 1.413 . S
C762 C772 1.391 . S
C763 C758 1.431 . S
C763 C759 1.317 . S
C763 H774 0.930 . S
C764 C758 1.412 . S
C764 C765 1.355 . S
C764 H776 0.930 . S
C765 C764 1.355 . S
C765 C767 1.402 . S
C765 H777 0.930 . S
N766 Gd757 2.661 . S
N766 C761 1.350 . S
N766 C767 1.307 . S
C767 C765 1.402 . S
C767 N766 1.307 . S
C767 H768 0.930 . S
H768 C767 0.930 . S
C769 N770 1.334 . S
C769 C771 1.394 . S
C769 H773 0.930 . S
N770 Gd757 2.601 . S
N770 C760 1.359 . S
N770 C769 1.334 . S
C771 C769 1.394 . S
C771 C772 1.359 . S
C771 H783 0.930 . S
C772 C762 1.391 . S
C772 C771 1.359 . S
C772 H784 0.929 . S
H773 C769 0.930 . S
H774 C763 0.930 . S
H775 C792 0.930 . S
H776 C764 0.930 . S
H777 C765 0.930 . S
H778 C759 0.929 . S
H779 C797 0.930 . S
H780 C788 0.930 . S
H781 C789 0.930 . S
H782 C813 0.929 . S
H783 C771 0.930 . S
H784 C772 0.929 . S
H785 C814 0.930 . S
H786 C795 0.930 . S
N787 Gd756 2.661 . S
N787 C791 1.350 . S
N787 C792 1.307 . S
C788 H780 0.930 . S
C788 C789 1.355 . S
C788 C790 1.412 . S
C789 H781 0.930 . S
C789 C788 1.355 . S
C789 C792 1.402 . S
C790 C788 1.412 . S
C790 C791 1.417 . S
C790 C814 1.431 . S
C791 N787 1.350 . S
C791 C790 1.417 . S
C791 C794 1.426 . S
C792 H775 0.930 . S
C792 N787 1.307 . S
C792 C789 1.402 . S
N793 Gd756 2.601 . S
N793 C794 1.359 . S
N793 C797 1.334 . S
C794 C791 1.426 . S
C794 N793 1.359 . S
C794 C798 1.413 . S
C795 H786 0.930 . S
C795 C796 1.359 . S
C795 C797 1.394 . S
C796 C795 1.359 . S
C796 C798 1.391 . S
C796 H799 0.929 . S
C797 H779 0.930 . S
C797 N793 1.334 . S
C797 C795 1.394 . S
C798 C794 1.413 . S
C798 C796 1.391 . S
C798 C813 1.437 . S
H799 C796 0.929 . S
O800 Gd756 2.545 . S
O800 C815 1.258 . S
O801 Gd756 2.606 . S
O801 Gd757 2.362 . S
O801 C812 1.284 . S
O802 Gd757 2.324 . S
O802 C822 1.254 . S
O803 Gd756 2.429 . S
O803 C822 1.268 . S
O804 Gd756 2.545 . S
O804 C812 1.250 . S
O805 Gd756 2.412 . S
O805 C815 1.252 . S
O806 Gd757 2.545 . S
O806 C824 1.258 . S
O807 Gd756 2.362 . S
O807 Gd757 2.606 . S
O807 C823 1.284 . S
O808 Gd756 2.324 . S
O808 C831 1.254 . S
O809 Gd757 2.429 . S
O809 C831 1.268 . S
O810 Gd757 2.545 . S
O810 C823 1.250 . S
O811 Gd757 2.412 . S
O811 C824 1.252 . S
C812 O801 1.284 . S
C812 O804 1.250 . S
C813 H782 0.929 . S
C813 C798 1.437 . S
C813 C814 1.317 . S
C814 H785 0.930 . S
C814 C790 1.431 . S
C814 C813 1.317 . S
C815 Gd756 2.828 . S
C815 O800 1.258 . S
C815 O805 1.252 . S
C815 C816 1.497 . S
C816 C815 1.497 . S
C816 C817 1.395 . S
C816 C818 1.380 . S
C817 C816 1.395 . S
C817 C820 1.398 . S
C817 H832 0.930 . S
C818 C816 1.380 . S
C818 C819 1.391 . S
C818 H833 0.930 . S
C819 C818 1.391 . S
C819 C821 1.387 . S
C820 C817 1.398 . S
C820 C821 1.380 . S
C820 H834 0.930 . S
C821 C819 1.387 . S
C821 C820 1.380 . S
C821 H835 0.930 . S
C822 O802 1.254 . S
C822 O803 1.268 . S
C823 O807 1.284 . S
C823 O810 1.250 . S
C824 Gd757 2.828 . S
C824 O806 1.258 . S
C824 O811 1.252 . S
C824 C825 1.497 . S
C825 C824 1.497 . S
C825 C826 1.395 . S
C825 C827 1.380 . S
C826 C825 1.395 . S
C826 C829 1.398 . S
C826 H836 0.930 . S
C827 C825 1.380 . S
C827 C828 1.391 . S
C827 H837 0.930 . S
C828 C827 1.391 . S
C828 C830 1.380 1_556 S
C829 C826 1.398 . S
C829 C830 1.374 1_556 S
C829 H838 0.930 . S
C830 C828 1.380 1_554 S
C830 C829 1.374 1_554 S
C830 H839 0.944 . S
C831 O808 1.254 . S
C831 O809 1.268 . S
H832 C817 0.930 . S
H833 C818 0.930 . S
H834 C820 0.930 . S
H835 C821 0.930 . S
H836 C826 0.930 . S
H837 C827 0.930 . S
H838 C829 0.930 . S
H839 C830 0.944 . S
Gd840 N871 2.661 . S
Gd840 N877 2.601 . S
Gd840 O884 2.545 . S
Gd840 O885 2.606 . S
Gd840 O887 2.429 . S
Gd840 O888 2.545 . S
Gd840 O889 2.412 . S
Gd840 O891 2.362 . S
Gd840 O892 2.324 . S
Gd840 C899 2.828 . S
Gd841 N850 2.661 . S
Gd841 N854 2.601 . S
Gd841 O885 2.362 . S
Gd841 O886 2.324 . S
Gd841 O890 2.545 . S
Gd841 O891 2.606 . S
Gd841 O893 2.429 . S
Gd841 O894 2.545 . S
Gd841 O895 2.412 . S
Gd841 C908 2.828 . S
C842 C845 1.417 . S
C842 C847 1.431 . S
C842 C848 1.412 . S
C843 C846 1.437 . S
C843 C847 1.317 . S
C843 H862 0.929 . S
C844 C845 1.426 . S
C844 C846 1.413 . S
C844 N854 1.359 . S
C845 C842 1.417 . S
C845 C844 1.426 . S
C845 N850 1.350 . S
C846 C843 1.437 . S
C846 C844 1.413 . S
C846 C856 1.391 . S
C847 C842 1.431 . S
C847 C843 1.317 . S
C847 H858 0.930 . S
C848 C842 1.412 . S
C848 C849 1.355 . S
C848 H860 0.930 . S
C849 C848 1.355 . S
C849 C851 1.402 . S
C849 H861 0.930 . S
N850 Gd841 2.661 . S
N850 C845 1.350 . S
N850 C851 1.307 . S
C851 C849 1.402 . S
C851 N850 1.307 . S
C851 H852 0.930 . S
H852 C851 0.930 . S
C853 N854 1.334 . S
C853 C855 1.394 . S
C853 H857 0.930 . S
N854 Gd841 2.601 . S
N854 C844 1.359 . S
N854 C853 1.334 . S
C855 C853 1.394 . S
C855 C856 1.359 . S
C855 H867 0.930 . S
C856 C846 1.391 . S
C856 C855 1.359 . S
C856 H868 0.929 . S
H857 C853 0.930 . S
H858 C847 0.930 . S
H859 C876 0.930 . S
H860 C848 0.930 . S
H861 C849 0.930 . S
H862 C843 0.929 . S
H863 C881 0.930 . S
H864 C872 0.930 . S
H865 C873 0.930 . S
H866 C897 0.929 . S
H867 C855 0.930 . S
H868 C856 0.929 . S
H869 C898 0.930 . S
H870 C879 0.930 . S
N871 Gd840 2.661 . S
N871 C875 1.350 . S
N871 C876 1.307 . S
C872 H864 0.930 . S
C872 C873 1.355 . S
C872 C874 1.412 . S
C873 H865 0.930 . S
C873 C872 1.355 . S
C873 C876 1.402 . S
C874 C872 1.412 . S
C874 C875 1.417 . S
C874 C898 1.431 . S
C875 N871 1.350 . S
C875 C874 1.417 . S
C875 C878 1.426 . S
C876 H859 0.930 . S
C876 N871 1.307 . S
C876 C873 1.402 . S
N877 Gd840 2.601 . S
N877 C878 1.359 . S
N877 C881 1.334 . S
C878 C875 1.426 . S
C878 N877 1.359 . S
C878 C882 1.413 . S
C879 H870 0.930 . S
C879 C880 1.359 . S
C879 C881 1.394 . S
C880 C879 1.359 . S
C880 C882 1.391 . S
C880 H883 0.929 . S
C881 H863 0.930 . S
C881 N877 1.334 . S
C881 C879 1.394 . S
C882 C878 1.413 . S
C882 C880 1.391 . S
C882 C897 1.437 . S
H883 C880 0.929 . S
O884 Gd840 2.545 . S
O884 C899 1.258 . S
O885 Gd840 2.606 . S
O885 Gd841 2.362 . S
O885 C896 1.284 . S
O886 Gd841 2.324 . S
O886 C906 1.254 . S
O887 Gd840 2.429 . S
O887 C906 1.268 . S
O888 Gd840 2.545 . S
O888 C896 1.250 . S
O889 Gd840 2.412 . S
O889 C899 1.252 . S
O890 Gd841 2.545 . S
O890 C908 1.258 . S
O891 Gd840 2.362 . S
O891 Gd841 2.606 . S
O891 C907 1.284 . S
O892 Gd840 2.324 . S
O892 C915 1.254 . S
O893 Gd841 2.429 . S
O893 C915 1.268 . S
O894 Gd841 2.545 . S
O894 C907 1.250 . S
O895 Gd841 2.412 . S
O895 C908 1.252 . S
C896 O885 1.284 . S
C896 O888 1.250 . S
C897 H866 0.929 . S
C897 C882 1.437 . S
C897 C898 1.317 . S
C898 H869 0.930 . S
C898 C874 1.431 . S
C898 C897 1.317 . S
C899 Gd840 2.828 . S
C899 O884 1.258 . S
C899 O889 1.252 . S
C899 C900 1.497 . S
C900 C899 1.497 . S
C900 C901 1.395 . S
C900 C902 1.380 . S
C901 C900 1.395 . S
C901 C904 1.398 . S
C901 H916 0.930 . S
C902 C900 1.380 . S
C902 C903 1.391 . S
C902 H917 0.930 . S
C903 C902 1.391 . S
C903 C905 1.387 . S
C904 C901 1.398 . S
C904 C905 1.380 . S
C904 H918 0.930 . S
C905 C903 1.387 . S
C905 C904 1.380 . S
C905 H919 0.930 . S
C906 O886 1.254 . S
C906 O887 1.268 . S
C907 O891 1.284 . S
C907 O894 1.250 . S
C908 Gd841 2.828 . S
C908 O890 1.258 . S
C908 O895 1.252 . S
C908 C909 1.497 . S
C909 C908 1.497 . S
C909 C910 1.395 . S
C909 C911 1.380 . S
C910 C909 1.395 . S
C910 C913 1.398 . S
C910 H920 0.930 . S
C911 C909 1.380 . S
C911 C912 1.391 . S
C911 H921 0.930 . S
C912 C911 1.391 . S
C912 C914 1.387 1_554 S
C913 C910 1.398 . S
C913 C914 1.380 1_554 S
C913 H922 0.930 . S
C914 C912 1.387 1_556 S
C914 C913 1.380 1_556 S
C914 H923 0.930 . S
C915 O892 1.254 . S
C915 O893 1.268 . S
H916 C901 0.930 . S
H917 C902 0.930 . S
H918 C904 0.930 . S
H919 C905 0.930 . S
H920 C910 0.930 . S
H921 C911 0.930 . S
H922 C913 0.930 . S
H923 C914 0.930 . S
Gd924 N955 2.661 . S
Gd924 N961 2.601 . S
Gd924 O968 2.545 . S
Gd924 O969 2.606 . S
Gd924 O971 2.429 . S
Gd924 O972 2.545 . S
Gd924 O973 2.412 . S
Gd924 O975 2.362 . S
Gd924 O976 2.324 . S
Gd924 C983 2.828 . S
Gd925 N934 2.661 . S
Gd925 N938 2.601 . S
Gd925 O969 2.362 . S
Gd925 O970 2.324 . S
Gd925 O974 2.545 1_554 S
Gd925 O975 2.606 . S
Gd925 O977 2.429 . S
Gd925 O978 2.545 . S
Gd925 O979 2.412 1_554 S
Gd925 C992 2.828 1_554 S
C926 C929 1.417 . S
C926 C931 1.431 1_554 S
C926 C932 1.412 . S
C927 C930 1.437 . S
C927 C931 1.317 . S
C927 H946 0.929 . S
C928 C929 1.426 . S
C928 C930 1.413 1_554 S
C928 N938 1.359 . S
C929 C926 1.417 . S
C929 C928 1.426 . S
C929 N934 1.350 . S
C930 C927 1.437 . S
C930 C928 1.413 1_556 S
C930 C940 1.391 . S
C931 C926 1.431 1_556 S
C931 C927 1.317 . S
C931 H942 0.930 . S
C932 C926 1.412 . S
C932 C933 1.355 . S
C932 H944 0.930 . S
C933 C932 1.355 . S
C933 C935 1.402 . S
C933 H945 0.930 . S
N934 Gd925 2.661 . S
N934 C929 1.350 . S
N934 C935 1.307 . S
C935 C933 1.402 . S
C935 N934 1.307 . S
C935 H936 0.930 . S
H936 C935 0.930 . S
C937 N938 1.334 . S
C937 C939 1.395 1_554 S
C937 H941 0.930 . S
N938 Gd925 2.601 . S
N938 C928 1.359 . S
N938 C937 1.334 . S
C939 C937 1.395 1_556 S
C939 C940 1.359 . S
C939 H951 0.930 . S
C940 C930 1.391 . S
C940 C939 1.359 . S
C940 H952 0.929 . S
H941 C937 0.930 . S
H942 C931 0.930 . S
H943 C960 0.930 . S
H944 C932 0.930 . S
H945 C933 0.930 . S
H946 C927 0.929 . S
H947 C965 0.930 . S
H948 C956 0.930 1_545 S
H949 C957 0.930 . S
H950 C981 0.929 . S
H951 C939 0.930 . S
H952 C940 0.929 . S
H953 C982 0.930 . S
H954 C963 0.930 . S
N955 Gd924 2.661 . S
N955 C959 1.350 . S
N955 C960 1.307 . S
C956 H948 0.930 1_565 S
C956 C957 1.355 . S
C956 C958 1.412 . S
C957 H949 0.930 . S
C957 C956 1.355 . S
C957 C960 1.402 . S
C958 C956 1.412 . S
C958 C959 1.417 . S
C958 C982 1.431 1_565 S
C959 N955 1.350 . S
C959 C958 1.417 . S
C959 C962 1.426 . S
C960 H943 0.930 . S
C960 N955 1.307 . S
C960 C957 1.402 . S
N961 Gd924 2.601 . S
N961 C962 1.359 . S
N961 C965 1.334 . S
C962 C959 1.426 . S
C962 N961 1.359 . S
C962 C966 1.413 . S
C963 H954 0.930 . S
C963 C964 1.359 . S
C963 C965 1.394 . S
C964 C963 1.359 . S
C964 C966 1.391 . S
C964 H967 0.929 . S
C965 H947 0.930 . S
C965 N961 1.334 . S
C965 C963 1.394 . S
C966 C962 1.413 . S
C966 C964 1.391 . S
C966 C981 1.437 1_565 S
H967 C964 0.929 . S
O968 Gd924 2.545 . S
O968 C983 1.258 . S
O969 Gd924 2.606 . S
O969 Gd925 2.362 . S
O969 C980 1.284 . S
O970 Gd925 2.324 . S
O970 C990 1.254 . S
O971 Gd924 2.429 . S
O971 C990 1.268 . S
O972 Gd924 2.545 . S
O972 C980 1.250 . S
O973 Gd924 2.412 . S
O973 C983 1.252 . S
O974 Gd925 2.545 1_556 S
O974 C992 1.258 . S
O975 Gd924 2.362 . S
O975 Gd925 2.606 . S
O975 C991 1.284 . S
O976 Gd924 2.324 . S
O976 C999 1.254 . S
O977 Gd925 2.429 . S
O977 C999 1.268 . S
O978 Gd925 2.545 . S
O978 C991 1.250 . S
O979 Gd925 2.412 1_556 S
O979 C992 1.252 . S
C980 O969 1.284 . S
C980 O972 1.250 . S
C981 H950 0.929 . S
C981 C966 1.437 1_545 S
C981 C982 1.317 . S
C982 H953 0.930 . S
C982 C958 1.431 1_545 S
C982 C981 1.317 . S
C983 Gd924 2.828 . S
C983 O968 1.258 . S
C983 O973 1.252 . S
C983 C984 1.497 . S
C984 C983 1.497 . S
C984 C985 1.395 . S
C984 C986 1.380 . S
C985 C984 1.395 . S
C985 C988 1.398 . S
C985 H1000 0.930 . S
C986 C984 1.380 . S
C986 C987 1.391 . S
C986 H1001 0.930 . S
C987 C986 1.391 . S
C987 C989 1.387 . S
C988 C985 1.398 . S
C988 C989 1.380 . S
C988 H1002 0.930 . S
C989 C987 1.387 . S
C989 C988 1.380 . S
C989 H1003 0.930 . S
C990 O970 1.254 . S
C990 O971 1.268 . S
C991 O975 1.284 . S
C991 O978 1.250 . S
C992 Gd925 2.828 1_556 S
C992 O974 1.258 . S
C992 O979 1.252 . S
C992 C993 1.497 . S
C993 C992 1.497 . S
C993 C994 1.395 . S
C993 C995 1.380 . S
C994 C993 1.395 . S
C994 C997 1.398 . S
C994 H1004 0.930 . S
C995 C993 1.380 . S
C995 C996 1.391 . S
C995 H1005 0.930 . S
C996 C995 1.391 . S
C996 C998 1.387 . S
C997 C994 1.398 . S
C997 C998 1.380 . S
C997 H1006 0.930 . S
C998 C996 1.387 . S
C998 C997 1.380 . S
C998 H1007 0.930 . S
C999 O976 1.254 . S
C999 O977 1.268 . S
H1000 C985 0.930 . S
H1001 C986 0.930 . S
H1002 C988 0.930 . S
H1003 C989 0.930 . S
H1004 C994 0.930 . S
H1005 C995 0.930 . S
H1006 C997 0.930 . S
H1007 C998 0.930 . S
Gd1008 N1039 2.661 . S
Gd1008 N1045 2.601 . S
Gd1008 O1052 2.545 1_554 S
Gd1008 O1053 2.606 . S
Gd1008 O1055 2.429 . S
Gd1008 O1056 2.545 . S
Gd1008 O1057 2.412 1_554 S
Gd1008 O1059 2.362 . S
Gd1008 O1060 2.324 . S
Gd1008 C1067 2.828 1_554 S
Gd1009 N1018 2.661 . S
Gd1009 N1022 2.601 . S
Gd1009 O1053 2.362 . S
Gd1009 O1054 2.324 . S
Gd1009 O1058 2.545 . S
Gd1009 O1059 2.606 . S
Gd1009 O1061 2.429 . S
Gd1009 O1062 2.545 . S
Gd1009 O1063 2.412 . S
Gd1009 C1076 2.828 . S
C1010 C1013 1.417 . S
C1010 C1015 1.431 . S
C1010 C1016 1.412 . S
C1011 C1014 1.437 . S
C1011 C1015 1.317 . S
C1011 H1030 0.938 . S
C1012 C1013 1.426 . S
C1012 C1014 1.413 . S
C1012 N1022 1.359 . S
C1013 C1010 1.417 . S
C1013 C1012 1.426 . S
C1013 N1018 1.350 . S
C1014 C1011 1.437 . S
C1014 C1012 1.413 . S
C1014 C1024 1.391 . S
C1015 C1010 1.431 . S
C1015 C1011 1.317 . S
C1015 H1026 0.930 1_655 S
C1016 C1010 1.412 . S
C1016 C1017 1.355 . S
C1016 H1028 0.930 . S
C1017 C1016 1.355 . S
C1017 C1019 1.402 . S
C1017 H1029 0.930 . S
N1018 Gd1009 2.661 . S
N1018 C1013 1.350 . S
N1018 C1019 1.307 . S
C1019 C1017 1.402 . S
C1019 N1018 1.307 . S
C1019 H1020 0.930 . S
H1020 C1019 0.930 . S
C1021 N1022 1.334 . S
C1021 C1023 1.394 . S
C1021 H1025 0.930 . S
N1022 Gd1009 2.601 . S
N1022 C1012 1.359 . S
N1022 C1021 1.334 . S
C1023 C1021 1.394 . S
C1023 C1024 1.359 . S
C1023 H1035 0.930 . S
C1024 C1014 1.391 . S
C1024 C1023 1.359 . S
C1024 H1036 0.929 . S
H1025 C1021 0.930 . S
H1026 C1015 0.930 1_455 S
H1027 C1044 0.930 . S
H1028 C1016 0.930 . S
H1029 C1017 0.930 . S
H1030 C1011 0.938 . S
H1031 C1049 0.930 . S
H1032 C1040 0.930 . S
H1033 C1041 0.930 . S
H1034 C1065 0.929 . S
H1035 C1023 0.930 . S
H1036 C1024 0.929 . S
H1037 C1066 0.930 . S
H1038 C1047 0.930 . S
N1039 Gd1008 2.661 . S
N1039 C1043 1.350 . S
N1039 C1044 1.307 . S
C1040 H1032 0.930 . S
C1040 C1041 1.355 . S
C1040 C1042 1.412 . S
C1041 H1033 0.930 . S
C1041 C1040 1.355 . S
C1041 C1044 1.402 . S
C1042 C1040 1.412 . S
C1042 C1043 1.417 . S
C1042 C1066 1.431 1_554 S
C1043 N1039 1.350 . S
C1043 C1042 1.417 . S
C1043 C1046 1.426 . S
C1044 H1027 0.930 . S
C1044 N1039 1.307 . S
C1044 C1041 1.402 . S
N1045 Gd1008 2.601 . S
N1045 C1046 1.359 . S
N1045 C1049 1.334 . S
C1046 C1043 1.426 . S
C1046 N1045 1.359 . S
C1046 C1050 1.413 1_554 S
C1047 H1038 0.930 . S
C1047 C1048 1.359 . S
C1047 C1049 1.394 1_556 S
C1048 C1047 1.359 . S
C1048 C1050 1.391 . S
C1048 H1051 0.929 . S
C1049 H1031 0.930 . S
C1049 N1045 1.334 . S
C1049 C1047 1.394 1_554 S
C1050 C1046 1.413 1_556 S
C1050 C1048 1.391 . S
C1050 C1065 1.437 . S
H1051 C1048 0.929 . S
O1052 Gd1008 2.545 1_556 S
O1052 C1067 1.258 . S
O1053 Gd1008 2.606 . S
O1053 Gd1009 2.362 . S
O1053 C1064 1.284 . S
O1054 Gd1009 2.324 . S
O1054 C1074 1.254 . S
O1055 Gd1008 2.429 . S
O1055 C1074 1.268 . S
O1056 Gd1008 2.545 . S
O1056 C1064 1.250 . S
O1057 Gd1008 2.412 1_556 S
O1057 C1067 1.252 . S
O1058 Gd1009 2.545 . S
O1058 C1076 1.258 . S
O1059 Gd1008 2.362 . S
O1059 Gd1009 2.606 . S
O1059 C1075 1.284 . S
O1060 Gd1008 2.324 . S
O1060 C1083 1.254 . S
O1061 Gd1009 2.429 . S
O1061 C1083 1.268 . S
O1062 Gd1009 2.545 . S
O1062 C1075 1.250 . S
O1063 Gd1009 2.412 . S
O1063 C1076 1.252 . S
C1064 O1053 1.284 . S
C1064 O1056 1.250 . S
C1065 H1034 0.929 . S
C1065 C1050 1.437 . S
C1065 C1066 1.317 . S
C1066 H1037 0.930 . S
C1066 C1042 1.431 1_556 S
C1066 C1065 1.317 . S
C1067 Gd1008 2.828 1_556 S
C1067 O1052 1.258 . S
C1067 O1057 1.252 . S
C1067 C1068 1.497 . S
C1068 C1067 1.497 . S
C1068 C1069 1.395 . S
C1068 C1070 1.380 . S
C1069 C1068 1.395 . S
C1069 C1072 1.398 . S
C1069 H1084 0.930 . S
C1070 C1068 1.380 . S
C1070 C1071 1.391 . S
C1070 H1085 0.930 . S
C1071 C1070 1.391 . S
C1071 C1073 1.387 . S
C1072 C1069 1.398 . S
C1072 C1073 1.380 . S
C1072 H1086 0.930 . S
C1073 C1071 1.387 . S
C1073 C1072 1.380 . S
C1073 H1087 0.930 . S
C1074 O1054 1.254 . S
C1074 O1055 1.268 . S
C1075 O1059 1.284 . S
C1075 O1062 1.250 . S
C1076 Gd1009 2.828 . S
C1076 O1058 1.258 . S
C1076 O1063 1.252 . S
C1076 C1077 1.497 . S
C1077 C1076 1.497 . S
C1077 C1078 1.395 . S
C1077 C1079 1.380 . S
C1078 C1077 1.395 . S
C1078 C1081 1.398 . S
C1078 H1088 0.930 . S
C1079 C1077 1.380 . S
C1079 C1080 1.391 . S
C1079 H1089 0.930 . S
C1080 C1079 1.391 . S
C1080 C1082 1.387 . S
C1081 C1078 1.398 . S
C1081 C1082 1.380 . S
C1081 H1090 0.930 . S
C1082 C1080 1.387 . S
C1082 C1081 1.380 . S
C1082 H1091 0.930 . S
C1083 O1060 1.254 . S
C1083 O1061 1.268 . S
H1084 C1069 0.930 . S
H1085 C1070 0.930 . S
H1086 C1072 0.930 . S
H1087 C1073 0.930 . S
H1088 C1078 0.930 . S
H1089 C1079 0.930 . S
H1090 C1081 0.930 . S
H1091 C1082 0.930 . S
Gd1092 N1123 2.661 . S
Gd1092 N1129 2.601 . S
Gd1092 O1136 2.545 . S
Gd1092 O1137 2.606 . S
Gd1092 O1139 2.429 . S
Gd1092 O1140 2.545 . S
Gd1092 O1141 2.412 . S
Gd1092 O1143 2.362 . S
Gd1092 O1144 2.324 . S
Gd1092 C1151 2.828 . S
Gd1093 N1102 2.661 . S
Gd1093 N1106 2.601 . S
Gd1093 O1137 2.362 . S
Gd1093 O1138 2.324 . S
Gd1093 O1142 2.545 1_556 S
Gd1093 O1143 2.606 . S
Gd1093 O1145 2.429 . S
Gd1093 O1146 2.545 . S
Gd1093 O1147 2.412 1_556 S
Gd1093 C1160 2.828 1_556 S
C1094 C1097 1.417 . S
C1094 C1099 1.431 1_556 S
C1094 C1100 1.412 . S
C1095 C1098 1.437 . S
C1095 C1099 1.317 . S
C1095 H1114 0.929 . S
C1096 C1097 1.426 . S
C1096 C1098 1.413 1_556 S
C1096 N1106 1.359 . S
C1097 C1094 1.417 . S
C1097 C1096 1.426 . S
C1097 N1102 1.350 . S
C1098 C1095 1.437 . S
C1098 C1096 1.413 1_554 S
C1098 C1108 1.391 . S
C1099 C1094 1.431 1_554 S
C1099 C1095 1.317 . S
C1099 H1110 0.930 . S
C1100 C1094 1.412 . S
C1100 C1101 1.355 . S
C1100 H1112 0.930 . S
C1101 C1100 1.355 . S
C1101 C1103 1.402 . S
C1101 H1113 0.930 . S
N1102 Gd1093 2.661 . S
N1102 C1097 1.350 . S
N1102 C1103 1.307 . S
C1103 C1101 1.402 . S
C1103 N1102 1.307 . S
C1103 H1104 0.930 . S
H1104 C1103 0.930 . S
C1105 N1106 1.334 . S
C1105 C1107 1.394 1_556 S
C1105 H1109 0.930 . S
N1106 Gd1093 2.601 . S
N1106 C1096 1.359 . S
N1106 C1105 1.334 . S
C1107 C1105 1.394 1_554 S
C1107 C1108 1.359 . S
C1107 H1119 0.930 . S
C1108 C1098 1.391 . S
C1108 C1107 1.359 . S
C1108 H1120 0.929 . S
H1109 C1105 0.930 . S
H1110 C1099 0.930 . S
H1111 C1128 0.930 . S
H1112 C1100 0.930 . S
H1113 C1101 0.930 . S
H1114 C1095 0.929 . S
H1115 C1133 0.930 . S
H1116 C1124 0.930 1_565 S
H1117 C1125 0.930 . S
H1118 C1149 0.929 . S
H1119 C1107 0.930 . S
H1120 C1108 0.929 . S
H1121 C1150 0.930 . S
H1122 C1131 0.930 . S
N1123 Gd1092 2.661 . S
N1123 C1127 1.350 . S
N1123 C1128 1.307 . S
C1124 H1116 0.930 1_545 S
C1124 C1125 1.355 . S
C1124 C1126 1.412 . S
C1125 H1117 0.930 . S
C1125 C1124 1.355 . S
C1125 C1128 1.402 . S
C1126 C1124 1.412 . S
C1126 C1127 1.417 . S
C1126 C1150 1.431 1_545 S
C1127 N1123 1.350 . S
C1127 C1126 1.417 . S
C1127 C1130 1.426 . S
C1128 H1111 0.930 . S
C1128 N1123 1.307 . S
C1128 C1125 1.402 . S
N1129 Gd1092 2.601 . S
N1129 C1130 1.359 . S
N1129 C1133 1.334 . S
C1130 C1127 1.426 . S
C1130 N1129 1.359 . S
C1130 C1134 1.413 . S
C1131 H1122 0.930 . S
C1131 C1132 1.359 . S
C1131 C1133 1.394 . S
C1132 C1131 1.359 . S
C1132 C1134 1.391 . S
C1132 H1135 0.929 . S
C1133 H1115 0.930 . S
C1133 N1129 1.334 . S
C1133 C1131 1.394 . S
C1134 C1130 1.413 . S
C1134 C1132 1.391 . S
C1134 C1149 1.437 1_545 S
H1135 C1132 0.929 . S
O1136 Gd1092 2.545 . S
O1136 C1151 1.258 . S
O1137 Gd1092 2.606 . S
O1137 Gd1093 2.362 . S
O1137 C1148 1.284 . S
O1138 Gd1093 2.324 . S
O1138 C1158 1.254 . S
O1139 Gd1092 2.429 . S
O1139 C1158 1.268 . S
O1140 Gd1092 2.545 . S
O1140 C1148 1.250 . S
O1141 Gd1092 2.412 . S
O1141 C1151 1.252 . S
O1142 Gd1093 2.545 1_554 S
O1142 C1160 1.258 . S
O1143 Gd1092 2.362 . S
O1143 Gd1093 2.606 . S
O1143 C1159 1.284 . S
O1144 Gd1092 2.324 . S
O1144 C1167 1.254 . S
O1145 Gd1093 2.429 . S
O1145 C1167 1.268 . S
O1146 Gd1093 2.545 . S
O1146 C1159 1.250 . S
O1147 Gd1093 2.412 1_554 S
O1147 C1160 1.252 . S
C1148 O1137 1.284 . S
C1148 O1140 1.250 . S
C1149 H1118 0.929 . S
C1149 C1134 1.437 1_565 S
C1149 C1150 1.317 . S
C1150 H1121 0.930 . S
C1150 C1126 1.431 1_565 S
C1150 C1149 1.317 . S
C1151 Gd1092 2.828 . S
C1151 O1136 1.258 . S
C1151 O1141 1.252 . S
C1151 C1152 1.497 . S
C1152 C1151 1.497 . S
C1152 C1153 1.395 . S
C1152 C1154 1.380 . S
C1153 C1152 1.395 . S
C1153 C1156 1.398 . S
C1153 H1168 0.930 . S
C1154 C1152 1.380 . S
C1154 C1155 1.391 . S
C1154 H1169 0.930 . S
C1155 C1154 1.391 . S
C1155 C1157 1.387 . S
C1156 C1153 1.398 . S
C1156 C1157 1.380 . S
C1156 H1170 0.930 . S
C1157 C1155 1.387 . S
C1157 C1156 1.380 . S
C1157 H1171 0.930 . S
C1158 O1138 1.254 . S
C1158 O1139 1.268 . S
C1159 O1143 1.284 . S
C1159 O1146 1.250 . S
C1160 Gd1093 2.828 1_554 S
C1160 O1142 1.258 . S
C1160 O1147 1.252 . S
C1160 C1161 1.497 . S
C1161 C1160 1.497 . S
C1161 C1162 1.395 . S
C1161 C1163 1.380 . S
C1162 C1161 1.395 . S
C1162 C1165 1.398 . S
C1162 H1172 0.930 . S
C1163 C1161 1.380 . S
C1163 C1164 1.391 . S
C1163 H1173 0.930 . S
C1164 C1163 1.391 . S
C1164 C1166 1.387 . S
C1165 C1162 1.398 . S
C1165 C1166 1.380 . S
C1165 H1174 0.930 . S
C1166 C1164 1.387 . S
C1166 C1165 1.380 . S
C1166 H1175 0.930 . S
C1167 O1144 1.254 . S
C1167 O1145 1.268 . S
H1168 C1153 0.930 . S
H1169 C1154 0.930 . S
H1170 C1156 0.930 . S
H1171 C1157 0.930 . S
H1172 C1162 0.930 . S
H1173 C1163 0.930 . S
H1174 C1165 0.930 . S
H1175 C1166 0.930 . S
Gd1176 N1207 2.661 . S
Gd1176 N1213 2.601 . S
Gd1176 O1220 2.545 . S
Gd1176 O1221 2.606 . S
Gd1176 O1223 2.429 . S
Gd1176 O1224 2.545 . S
Gd1176 O1225 2.412 . S
Gd1176 O1227 2.362 . S
Gd1176 O1228 2.324 . S
Gd1176 C1235 2.828 . S
Gd1177 N1186 2.661 . S
Gd1177 N1190 2.601 . S
Gd1177 O1221 2.362 . S
Gd1177 O1222 2.324 . S
Gd1177 O1226 2.545 . S
Gd1177 O1227 2.606 . S
Gd1177 O1229 2.429 . S
Gd1177 O1230 2.545 . S
Gd1177 O1231 2.412 . S
Gd1177 C1244 2.828 . S
C1178 C1181 1.417 . S
C1178 C1183 1.431 . S
C1178 C1184 1.412 . S
C1179 C1182 1.437 . S
C1179 C1183 1.317 . S
C1179 H1198 0.929 . S
C1180 C1181 1.426 . S
C1180 C1182 1.413 . S
C1180 N1190 1.359 . S
C1181 C1178 1.417 . S
C1181 C1180 1.426 . S
C1181 N1186 1.350 . S
C1182 C1179 1.437 . S
C1182 C1180 1.413 . S
C1182 C1192 1.391 . S
C1183 C1178 1.431 . S
C1183 C1179 1.317 . S
C1183 H1194 0.930 . S
C1184 C1178 1.412 . S
C1184 C1185 1.355 . S
C1184 H1196 0.930 . S
C1185 C1184 1.355 . S
C1185 C1187 1.402 . S
C1185 H1197 0.930 . S
N1186 Gd1177 2.661 . S
N1186 C1181 1.350 . S
N1186 C1187 1.307 . S
C1187 C1185 1.402 . S
C1187 N1186 1.307 . S
C1187 H1188 0.930 . S
H1188 C1187 0.930 . S
C1189 N1190 1.334 . S
C1189 C1191 1.394 . S
C1189 H1193 0.930 . S
N1190 Gd1177 2.601 . S
N1190 C1180 1.359 . S
N1190 C1189 1.334 . S
C1191 C1189 1.394 . S
C1191 C1192 1.359 . S
C1191 H1203 0.930 . S
C1192 C1182 1.391 . S
C1192 C1191 1.359 . S
C1192 H1204 0.929 . S
H1193 C1189 0.930 . S
H1194 C1183 0.930 . S
H1195 C1212 0.930 . S
H1196 C1184 0.930 . S
H1197 C1185 0.930 . S
H1198 C1179 0.929 . S
H1199 C1217 0.930 . S
H1200 C1208 0.930 . S
H1201 C1209 0.930 . S
H1202 C1233 0.929 . S
H1203 C1191 0.930 . S
H1204 C1192 0.929 . S
H1205 C1234 0.930 . S
H1206 C1215 0.930 . S
N1207 Gd1176 2.661 . S
N1207 C1211 1.350 . S
N1207 C1212 1.307 . S
C1208 H1200 0.930 . S
C1208 C1209 1.355 . S
C1208 C1210 1.412 . S
C1209 H1201 0.930 . S
C1209 C1208 1.355 . S
C1209 C1212 1.402 . S
C1210 C1208 1.412 . S
C1210 C1211 1.417 . S
C1210 C1234 1.431 . S
C1211 N1207 1.350 . S
C1211 C1210 1.417 . S
C1211 C1214 1.426 . S
C1212 H1195 0.930 . S
C1212 N1207 1.307 . S
C1212 C1209 1.402 . S
N1213 Gd1176 2.601 . S
N1213 C1214 1.359 . S
N1213 C1217 1.334 . S
C1214 C1211 1.426 . S
C1214 N1213 1.359 . S
C1214 C1218 1.413 . S
C1215 H1206 0.930 . S
C1215 C1216 1.359 . S
C1215 C1217 1.394 . S
C1216 C1215 1.359 . S
C1216 C1218 1.391 . S
C1216 H1219 0.929 . S
C1217 H1199 0.930 . S
C1217 N1213 1.334 . S
C1217 C1215 1.394 . S
C1218 C1214 1.413 . S
C1218 C1216 1.391 . S
C1218 C1233 1.437 . S
H1219 C1216 0.929 . S
O1220 Gd1176 2.545 . S
O1220 C1235 1.258 . S
O1221 Gd1176 2.606 . S
O1221 Gd1177 2.362 . S
O1221 C1232 1.284 . S
O1222 Gd1177 2.324 . S
O1222 C1242 1.254 . S
O1223 Gd1176 2.429 . S
O1223 C1242 1.268 . S
O1224 Gd1176 2.545 . S
O1224 C1232 1.250 . S
O1225 Gd1176 2.412 . S
O1225 C1235 1.252 . S
O1226 Gd1177 2.545 . S
O1226 C1244 1.258 . S
O1227 Gd1176 2.362 . S
O1227 Gd1177 2.606 . S
O1227 C1243 1.284 . S
O1228 Gd1176 2.324 . S
O1228 C1251 1.254 . S
O1229 Gd1177 2.429 . S
O1229 C1251 1.268 . S
O1230 Gd1177 2.545 . S
O1230 C1243 1.250 . S
O1231 Gd1177 2.412 . S
O1231 C1244 1.252 . S
C1232 O1221 1.284 . S
C1232 O1224 1.250 . S
C1233 H1202 0.929 . S
C1233 C1218 1.437 . S
C1233 C1234 1.317 . S
C1234 H1205 0.930 . S
C1234 C1210 1.431 . S
C1234 C1233 1.317 . S
C1235 Gd1176 2.828 . S
C1235 O1220 1.258 . S
C1235 O1225 1.252 . S
C1235 C1236 1.497 . S
C1236 C1235 1.497 . S
C1236 C1237 1.395 . S
C1236 C1238 1.380 . S
C1237 C1236 1.395 . S
C1237 C1240 1.398 . S
C1237 H1252 0.930 . S
C1238 C1236 1.380 . S
C1238 C1239 1.391 . S
C1238 H1253 0.930 . S
C1239 C1238 1.391 . S
C1239 C1241 1.387 . S
C1240 C1237 1.398 . S
C1240 C1241 1.380 . S
C1240 H1254 0.930 . S
C1241 C1239 1.387 . S
C1241 C1240 1.380 . S
C1241 H1255 0.930 1_556 S
C1242 O1222 1.254 . S
C1242 O1223 1.268 . S
C1243 O1227 1.284 . S
C1243 O1230 1.250 . S
C1244 Gd1177 2.828 . S
C1244 O1226 1.258 . S
C1244 O1231 1.252 . S
C1244 C1245 1.497 . S
C1245 C1244 1.497 . S
C1245 C1246 1.395 . S
C1245 C1247 1.380 . S
C1246 C1245 1.395 . S
C1246 C1249 1.398 . S
C1246 H1256 0.930 . S
C1247 C1245 1.380 . S
C1247 C1248 1.391 . S
C1247 H1257 0.930 . S
C1248 C1247 1.391 . S
C1248 C1250 1.387 . S
C1249 C1246 1.398 . S
C1249 C1250 1.380 . S
C1249 H1258 0.930 . S
C1250 C1248 1.387 . S
C1250 C1249 1.380 . S
C1250 H1259 0.930 . S
C1251 O1228 1.254 . S
C1251 O1229 1.268 . S
H1252 C1237 0.930 . S
H1253 C1238 0.930 . S
H1254 C1240 0.930 . S
H1255 C1241 0.930 1_554 S
H1256 C1246 0.930 . S
H1257 C1247 0.930 . S
H1258 C1249 0.930 . S
H1259 C1250 0.930 . S
Gd1260 N1291 2.661 . S
Gd1260 N1297 2.601 . S
Gd1260 O1304 2.545 . S
Gd1260 O1305 2.606 . S
Gd1260 O1307 2.429 . S
Gd1260 O1308 2.545 . S
Gd1260 O1309 2.412 . S
Gd1260 O1311 2.362 . S
Gd1260 O1312 2.324 . S
Gd1260 C1319 2.828 . S
Gd1261 N1270 2.661 . S
Gd1261 N1274 2.601 . S
Gd1261 O1305 2.362 . S
Gd1261 O1306 2.324 . S
Gd1261 O1310 2.545 . S
Gd1261 O1311 2.606 . S
Gd1261 O1313 2.429 . S
Gd1261 O1314 2.545 . S
Gd1261 O1315 2.412 . S
Gd1261 C1328 2.828 . S
C1262 C1265 1.417 . S
C1262 C1267 1.431 . S
C1262 C1268 1.412 . S
C1263 C1266 1.437 . S
C1263 C1267 1.317 . S
C1263 H1282 0.929 . S
C1264 C1265 1.426 . S
C1264 C1266 1.413 . S
C1264 N1274 1.359 . S
C1265 C1262 1.417 . S
C1265 C1264 1.426 . S
C1265 N1270 1.350 . S
C1266 C1263 1.437 . S
C1266 C1264 1.413 . S
C1266 C1276 1.391 . S
C1267 C1262 1.431 . S
C1267 C1263 1.317 . S
C1267 H1278 0.930 . S
C1268 C1262 1.412 . S
C1268 C1269 1.355 . S
C1268 H1280 0.930 . S
C1269 C1268 1.355 . S
C1269 C1271 1.402 . S
C1269 H1281 0.930 . S
N1270 Gd1261 2.661 . S
N1270 C1265 1.350 . S
N1270 C1271 1.307 . S
C1271 C1269 1.402 . S
C1271 N1270 1.307 . S
C1271 H1272 0.930 . S
H1272 C1271 0.930 . S
C1273 N1274 1.334 . S
C1273 C1275 1.394 . S
C1273 H1277 0.930 . S
N1274 Gd1261 2.601 . S
N1274 C1264 1.359 . S
N1274 C1273 1.334 . S
C1275 C1273 1.394 . S
C1275 C1276 1.359 . S
C1275 H1287 0.930 . S
C1276 C1266 1.391 . S
C1276 C1275 1.359 . S
C1276 H1288 0.929 . S
H1277 C1273 0.930 . S
H1278 C1267 0.930 . S
H1279 C1296 0.930 . S
H1280 C1268 0.930 . S
H1281 C1269 0.930 . S
H1282 C1263 0.929 . S
H1283 C1301 0.930 . S
H1284 C1292 0.930 1_545 S
H1285 C1293 0.930 . S
H1286 C1317 0.929 1_545 S
H1287 C1275 0.930 . S
H1288 C1276 0.929 . S
H1289 C1318 0.930 . S
H1290 C1299 0.930 . S
N1291 Gd1260 2.661 . S
N1291 C1295 1.350 . S
N1291 C1296 1.307 . S
C1292 H1284 0.930 1_565 S
C1292 C1293 1.355 . S
C1292 C1294 1.412 . S
C1293 H1285 0.930 . S
C1293 C1292 1.355 . S
C1293 C1296 1.402 . S
C1294 C1292 1.412 . S
C1294 C1295 1.417 . S
C1294 C1318 1.431 1_565 S
C1295 N1291 1.350 . S
C1295 C1294 1.417 . S
C1295 C1298 1.426 . S
C1296 H1279 0.930 . S
C1296 N1291 1.307 . S
C1296 C1293 1.402 . S
N1297 Gd1260 2.601 . S
N1297 C1298 1.359 . S
N1297 C1301 1.334 . S
C1298 C1295 1.426 . S
C1298 N1297 1.359 . S
C1298 C1302 1.413 . S
C1299 H1290 0.930 . S
C1299 C1300 1.359 . S
C1299 C1301 1.394 . S
C1300 C1299 1.359 . S
C1300 C1302 1.391 . S
C1300 H1303 0.929 . S
C1301 H1283 0.930 . S
C1301 N1297 1.334 . S
C1301 C1299 1.394 . S
C1302 C1298 1.413 . S
C1302 C1300 1.391 . S
C1302 C1317 1.437 . S
H1303 C1300 0.929 . S
O1304 Gd1260 2.545 . S
O1304 C1319 1.258 . S
O1305 Gd1260 2.606 . S
O1305 Gd1261 2.362 . S
O1305 C1316 1.284 . S
O1306 Gd1261 2.324 . S
O1306 C1326 1.254 . S
O1307 Gd1260 2.429 . S
O1307 C1326 1.268 . S
O1308 Gd1260 2.545 . S
O1308 C1316 1.250 . S
O1309 Gd1260 2.412 . S
O1309 C1319 1.252 . S
O1310 Gd1261 2.545 . S
O1310 C1328 1.258 . S
O1311 Gd1260 2.362 . S
O1311 Gd1261 2.606 . S
O1311 C1327 1.284 . S
O1312 Gd1260 2.324 . S
O1312 C1335 1.254 . S
O1313 Gd1261 2.429 . S
O1313 C1335 1.268 . S
O1314 Gd1261 2.545 . S
O1314 C1327 1.250 . S
O1315 Gd1261 2.412 . S
O1315 C1328 1.252 . S
C1316 O1305 1.284 . S
C1316 O1308 1.250 . S
C1317 H1286 0.929 1_565 S
C1317 C1302 1.437 . S
C1317 C1318 1.317 1_565 S
C1318 H1289 0.930 . S
C1318 C1294 1.431 1_545 S
C1318 C1317 1.317 1_545 S
C1319 Gd1260 2.828 . S
C1319 O1304 1.258 . S
C1319 O1309 1.252 . S
C1319 C1320 1.497 . S
C1320 C1319 1.497 . S
C1320 C1321 1.395 . S
C1320 C1322 1.380 . S
C1321 C1320 1.395 . S
C1321 C1324 1.398 . S
C1321 H1336 0.930 . S
C1322 C1320 1.380 . S
C1322 C1323 1.391 . S
C1322 H1337 0.930 . S
C1323 C1322 1.391 . S
C1323 C1325 1.387 . S
C1324 C1321 1.398 . S
C1324 C1325 1.380 . S
C1324 H1338 0.930 . S
C1325 C1323 1.387 . S
C1325 C1324 1.380 . S
C1325 H1339 0.930 1_554 S
C1326 O1306 1.254 . S
C1326 O1307 1.268 . S
C1327 O1311 1.284 . S
C1327 O1314 1.250 . S
C1328 Gd1261 2.828 . S
C1328 O1310 1.258 . S
C1328 O1315 1.252 . S
C1328 C1329 1.497 . S
C1329 C1328 1.497 . S
C1329 C1330 1.395 . S
C1329 C1331 1.380 . S
C1330 C1329 1.395 . S
C1330 C1333 1.398 . S
C1330 H1340 0.930 . S
C1331 C1329 1.380 . S
C1331 C1332 1.391 . S
C1331 H1341 0.930 . S
C1332 C1331 1.391 . S
C1332 C1334 1.387 . S
C1333 C1330 1.398 . S
C1333 C1334 1.380 . S
C1333 H1342 0.930 . S
C1334 C1332 1.387 . S
C1334 C1333 1.380 . S
C1334 H1343 0.930 . S
C1335 O1312 1.254 . S
C1335 O1313 1.268 . S
H1336 C1321 0.930 . S
H1337 C1322 0.930 . S
H1338 C1324 0.930 . S
H1339 C1325 0.930 1_556 S
H1340 C1330 0.930 . S
H1341 C1331 0.930 . S
H1342 C1333 0.930 . S
H1343 C1334 0.930 . S
H1344 C1350 0.930 . S
H1345 C1353 0.930 . S
H1346 C1354 0.930 . S
H1347 C1355 0.930 . S
H1348 C1358 0.930 . S
H1349 C1359 0.930 . S
C1350 H1344 0.930 . S
C1350 C1351 1.355 . S
C1350 C1352 1.415 . S
C1351 C1350 1.355 . S
C1351 C1353 1.419 . S
C1352 C1350 1.415 . S
C1352 C1357 1.425 . S
C1352 C1359 1.409 . S
C1353 H1345 0.930 . S
C1353 C1351 1.419 . S
C1353 C1354 1.362 . S
C1354 H1346 0.930 . S
C1354 C1353 1.362 . S
C1354 C1357 1.409 . S
C1355 H1347 0.930 . S
C1355 C1356 1.355 . S
C1355 C1357 1.415 . S
C1356 C1355 1.355 . S
C1356 C1358 1.419 . S
C1357 C1352 1.425 . S
C1357 C1354 1.409 . S
C1357 C1355 1.415 . S
C1358 H1348 0.930 . S
C1358 C1356 1.419 . S
C1358 C1359 1.362 . S
C1359 H1349 0.930 . S
C1359 C1352 1.409 . S
C1359 C1358 1.362 . S
H1360 C1366 0.930 . S
H1361 C1369 0.930 . S
H1362 C1370 0.930 . S
H1363 C1371 0.930 . S
H1364 C1374 0.930 . S
H1365 C1375 0.930 . S
C1366 H1360 0.930 . S
C1366 C1367 1.355 . S
C1366 C1368 1.415 . S
C1367 C1366 1.355 . S
C1367 C1369 1.419 . S
C1368 C1366 1.415 . S
C1368 C1373 1.425 . S
C1368 C1375 1.409 . S
C1369 H1361 0.930 . S
C1369 C1367 1.419 . S
C1369 C1370 1.362 . S
C1370 H1362 0.930 . S
C1370 C1369 1.362 . S
C1370 C1373 1.409 . S
C1371 H1363 0.930 . S
C1371 C1372 1.355 . S
C1371 C1373 1.415 . S
C1372 C1371 1.355 . S
C1372 C1374 1.419 . S
C1373 C1368 1.425 . S
C1373 C1370 1.409 . S
C1373 C1371 1.415 . S
C1374 H1364 0.930 . S
C1374 C1372 1.419 . S
C1374 C1375 1.362 . S
C1375 H1365 0.930 . S
C1375 C1368 1.409 . S
C1375 C1374 1.362 . S
H1376 C1382 0.930 . S
H1377 C1385 0.930 . S
H1378 C1386 0.930 . S
H1379 C1387 0.930 . S
H1380 C1390 0.930 1_556 S
H1381 C1391 0.930 . S
C1382 H1376 0.930 . S
C1382 C1383 1.355 . S
C1382 C1384 1.415 . S
C1383 C1382 1.355 . S
C1383 C1385 1.419 . S
C1384 C1382 1.415 . S
C1384 C1389 1.425 . S
C1384 C1391 1.409 . S
C1385 H1377 0.930 . S
C1385 C1383 1.419 . S
C1385 C1386 1.362 . S
C1386 H1378 0.930 . S
C1386 C1385 1.362 . S
C1386 C1389 1.409 . S
C1387 H1379 0.930 . S
C1387 C1388 1.355 . S
C1387 C1389 1.415 . S
C1388 C1387 1.355 . S
C1388 C1390 1.419 . S
C1389 C1384 1.425 . S
C1389 C1386 1.409 . S
C1389 C1387 1.415 . S
C1390 H1380 0.930 1_554 S
C1390 C1388 1.419 . S
C1390 C1391 1.362 . S
C1391 H1381 0.930 . S
C1391 C1384 1.409 . S
C1391 C1390 1.362 . S
H1392 C1398 0.930 . S
H1393 C1401 0.930 . S
H1394 C1402 0.930 . S
H1395 C1403 0.930 . S
H1396 C1406 0.930 . S
H1397 C1407 0.930 . S
C1398 H1392 0.930 . S
C1398 C1399 1.355 . S
C1398 C1400 1.415 . S
C1399 C1398 1.355 . S
C1399 C1401 1.419 . S
C1400 C1398 1.415 . S
C1400 C1405 1.425 . S
C1400 C1407 1.409 . S
C1401 H1393 0.930 . S
C1401 C1399 1.419 . S
C1401 C1402 1.362 . S
C1402 H1394 0.930 . S
C1402 C1401 1.362 . S
C1402 C1405 1.409 . S
C1403 H1395 0.930 . S
C1403 C1404 1.355 . S
C1403 C1405 1.415 . S
C1404 C1403 1.355 . S
C1404 C1406 1.419 . S
C1405 C1400 1.425 . S
C1405 C1402 1.409 . S
C1405 C1403 1.415 . S
C1406 H1396 0.930 . S
C1406 C1404 1.419 . S
C1406 C1407 1.362 . S
C1407 H1397 0.930 . S
C1407 C1400 1.409 . S
C1407 C1406 1.362 . S
H1408 C1414 0.930 . S
H1409 C1417 0.930 . S
H1410 C1418 0.930 . S
H1411 C1419 0.930 . S
H1412 C1422 0.930 . S
H1413 C1423 0.930 . S
C1414 H1408 0.930 . S
C1414 C1415 1.355 . S
C1414 C1416 1.415 . S
C1415 C1414 1.355 . S
C1415 C1417 1.419 . S
C1416 C1414 1.415 . S
C1416 C1421 1.425 . S
C1416 C1423 1.409 . S
C1417 H1409 0.930 . S
C1417 C1415 1.419 . S
C1417 C1418 1.362 . S
C1418 H1410 0.930 . S
C1418 C1417 1.362 . S
C1418 C1421 1.409 . S
C1419 H1411 0.930 . S
C1419 C1420 1.355 . S
C1419 C1421 1.415 . S
C1420 C1419 1.355 . S
C1420 C1422 1.419 . S
C1421 C1416 1.425 . S
C1421 C1418 1.409 . S
C1421 C1419 1.415 . S
C1422 H1412 0.930 . S
C1422 C1420 1.419 . S
C1422 C1423 1.362 . S
C1423 H1413 0.930 . S
C1423 C1416 1.409 . S
C1423 C1422 1.362 . S
H1424 C1430 0.930 . S
H1425 C1433 0.930 . S
H1426 C1434 0.930 . S
H1427 C1435 0.930 . S
H1428 C1438 0.930 . S
H1429 C1439 0.930 . S
C1430 H1424 0.930 . S
C1430 C1431 1.355 . S
C1430 C1432 1.415 . S
C1431 C1430 1.355 . S
C1431 C1433 1.419 . S
C1432 C1430 1.415 . S
C1432 C1437 1.425 . S
C1432 C1439 1.409 . S
C1433 H1425 0.930 . S
C1433 C1431 1.419 . S
C1433 C1434 1.362 . S
C1434 H1426 0.930 . S
C1434 C1433 1.362 . S
C1434 C1437 1.409 . S
C1435 H1427 0.930 . S
C1435 C1436 1.355 . S
C1435 C1437 1.415 . S
C1436 C1435 1.355 . S
C1436 C1438 1.419 . S
C1437 C1432 1.425 . S
C1437 C1434 1.409 . S
C1437 C1435 1.415 . S
C1438 H1428 0.930 . S
C1438 C1436 1.419 . S
C1438 C1439 1.362 . S
C1439 H1429 0.930 . S
C1439 C1432 1.409 . S
C1439 C1438 1.362 . S
H1440 C1446 0.930 . S
H1441 C1449 0.930 . S
H1442 C1450 0.930 . S
H1443 C1451 0.930 . S
H1444 C1454 0.930 1_554 S
H1445 C1455 0.930 . S
C1446 H1440 0.930 . S
C1446 C1447 1.355 . S
C1446 C1448 1.415 . S
C1447 C1446 1.355 . S
C1447 C1449 1.419 . S
C1448 C1446 1.415 . S
C1448 C1453 1.425 . S
C1448 C1455 1.409 . S
C1449 H1441 0.930 . S
C1449 C1447 1.419 . S
C1449 C1450 1.362 . S
C1450 H1442 0.930 . S
C1450 C1449 1.362 . S
C1450 C1453 1.409 . S
C1451 H1443 0.930 . S
C1451 C1452 1.355 . S
C1451 C1453 1.415 . S
C1452 C1451 1.355 . S
C1452 C1454 1.419 . S
C1453 C1448 1.425 . S
C1453 C1450 1.409 . S
C1453 C1451 1.415 . S
C1454 H1444 0.930 1_556 S
C1454 C1452 1.419 . S
C1454 C1455 1.362 . S
C1455 H1445 0.930 . S
C1455 C1448 1.409 . S
C1455 C1454 1.362 . S
H1456 C1462 0.930 . S
H1457 C1465 0.930 1_556 S
H1458 C1466 0.930 . S
H1459 C1467 0.930 . S
H1460 C1470 0.930 . S
H1461 C1471 0.930 . S
C1462 H1456 0.930 . S
C1462 C1463 1.355 . S
C1462 C1464 1.415 . S
C1463 C1462 1.355 . S
C1463 C1465 1.419 . S
C1464 C1462 1.415 . S
C1464 C1469 1.425 . S
C1464 C1471 1.409 . S
C1465 H1457 0.930 1_554 S
C1465 C1463 1.419 . S
C1465 C1466 1.362 . S
C1466 H1458 0.930 . S
C1466 C1465 1.362 . S
C1466 C1469 1.409 . S
C1467 H1459 0.930 . S
C1467 C1468 1.355 . S
C1467 C1469 1.415 . S
C1468 C1467 1.355 . S
C1468 C1470 1.419 . S
C1469 C1464 1.425 . S
C1469 C1466 1.409 . S
C1469 C1467 1.415 . S
C1470 H1460 0.930 . S
C1470 C1468 1.419 . S
C1470 C1471 1.362 . S
C1471 H1461 0.930 . S
C1471 C1464 1.409 . S
C1471 C1470 1.362 . S
H1472 C1478 0.930 . S
H1473 C1481 0.930 . S
H1474 C1482 0.930 . S
H1475 C1483 0.930 . S
H1476 C1486 0.930 . S
H1477 C1487 0.930 . S
C1478 H1472 0.930 . S
C1478 C1479 1.355 . S
C1478 C1480 1.415 . S
C1479 C1478 1.355 . S
C1479 C1481 1.419 . S
C1480 C1478 1.415 . S
C1480 C1485 1.425 . S
C1480 C1487 1.409 . S
C1481 H1473 0.930 . S
C1481 C1479 1.419 . S
C1481 C1482 1.362 . S
C1482 H1474 0.930 . S
C1482 C1481 1.362 . S
C1482 C1485 1.409 . S
C1483 H1475 0.930 . S
C1483 C1484 1.355 . S
C1483 C1485 1.415 . S
C1484 C1483 1.355 . S
C1484 C1486 1.419 . S
C1485 C1480 1.425 . S
C1485 C1482 1.409 . S
C1485 C1483 1.415 . S
C1486 H1476 0.930 . S
C1486 C1484 1.419 . S
C1486 C1487 1.362 . S
C1487 H1477 0.930 . S
C1487 C1480 1.409 . S
C1487 C1486 1.362 . S
H1488 C1494 0.930 . S
H1489 C1497 0.930 . S
H1490 C1498 0.930 . S
H1491 C1499 0.930 . S
H1492 C1502 0.930 . S
H1493 C1503 0.930 . S
C1494 H1488 0.930 . S
C1494 C1495 1.355 . S
C1494 C1496 1.415 . S
C1495 C1494 1.355 . S
C1495 C1497 1.419 . S
C1496 C1494 1.415 . S
C1496 C1501 1.425 . S
C1496 C1503 1.409 . S
C1497 H1489 0.930 . S
C1497 C1495 1.419 . S
C1497 C1498 1.362 . S
C1498 H1490 0.930 . S
C1498 C1497 1.362 . S
C1498 C1501 1.409 . S
C1499 H1491 0.930 . S
C1499 C1500 1.355 . S
C1499 C1501 1.415 . S
C1500 C1499 1.355 . S
C1500 C1502 1.419 . S
C1501 C1496 1.425 . S
C1501 C1498 1.409 . S
C1501 C1499 1.415 . S
C1502 H1492 0.930 . S
C1502 C1500 1.419 . S
C1502 C1503 1.362 . S
C1503 H1493 0.930 . S
C1503 C1496 1.409 . S
C1503 C1502 1.362 . S
H1504 C1510 0.930 . S
H1505 C1513 0.930 . S
H1506 C1514 0.930 . S
H1507 C1515 0.930 . S
H1508 C1518 0.930 . S
H1509 C1519 0.930 . S
C1510 H1504 0.930 . S
C1510 C1511 1.355 . S
C1510 C1512 1.415 . S
C1511 C1510 1.355 . S
C1511 C1513 1.419 . S
C1512 C1510 1.415 . S
C1512 C1517 1.425 . S
C1512 C1519 1.409 . S
C1513 H1505 0.930 . S
C1513 C1511 1.419 . S
C1513 C1514 1.362 . S
C1514 H1506 0.930 . S
C1514 C1513 1.362 . S
C1514 C1517 1.409 . S
C1515 H1507 0.930 . S
C1515 C1516 1.355 . S
C1515 C1517 1.415 . S
C1516 C1515 1.355 . S
C1516 C1518 1.419 . S
C1517 C1512 1.425 . S
C1517 C1514 1.409 . S
C1517 C1515 1.415 . S
C1518 H1508 0.930 . S
C1518 C1516 1.419 . S
C1518 C1519 1.362 . S
C1519 H1509 0.930 . S
C1519 C1512 1.409 . S
C1519 C1518 1.362 . S
H1520 C1526 0.930 . S
H1521 C1529 0.930 . S
H1522 C1530 0.930 . S
H1523 C1531 0.930 . S
H1524 C1534 0.930 . S
H1525 C1535 0.930 . S
C1526 H1520 0.930 . S
C1526 C1527 1.355 . S
C1526 C1528 1.415 . S
C1527 C1526 1.355 . S
C1527 C1529 1.419 . S
C1528 C1526 1.415 . S
C1528 C1533 1.425 . S
C1528 C1535 1.409 . S
C1529 H1521 0.930 . S
C1529 C1527 1.419 . S
C1529 C1530 1.362 . S
C1530 H1522 0.930 . S
C1530 C1529 1.362 . S
C1530 C1533 1.409 . S
C1531 H1523 0.930 . S
C1531 C1532 1.355 . S
C1531 C1533 1.415 . S
C1532 C1531 1.355 . S
C1532 C1534 1.419 . S
C1533 C1528 1.425 . S
C1533 C1530 1.409 . S
C1533 C1531 1.415 . S
C1534 H1524 0.930 . S
C1534 C1532 1.419 . S
C1534 C1535 1.362 . S
C1535 H1525 0.930 . S
C1535 C1528 1.409 . S
C1535 C1534 1.362 . S
H1536 C1542 0.930 . S
H1537 C1545 0.930 . S
H1538 C1546 0.930 . S
H1539 C1547 0.930 . S
H1540 C1550 0.930 . S
H1541 C1551 0.930 . S
C1542 H1536 0.930 . S
C1542 C1543 1.355 . S
C1542 C1544 1.415 . S
C1543 C1542 1.355 . S
C1543 C1545 1.419 . S
C1544 C1542 1.415 . S
C1544 C1549 1.425 . S
C1544 C1551 1.409 . S
C1545 H1537 0.930 . S
C1545 C1543 1.419 . S
C1545 C1546 1.362 . S
C1546 H1538 0.930 . S
C1546 C1545 1.362 . S
C1546 C1549 1.409 . S
C1547 H1539 0.930 . S
C1547 C1548 1.355 . S
C1547 C1549 1.415 . S
C1548 C1547 1.355 . S
C1548 C1550 1.419 . S
C1549 C1544 1.425 . S
C1549 C1546 1.409 . S
C1549 C1547 1.415 . S
C1550 H1540 0.930 . S
C1550 C1548 1.419 . S
C1550 C1551 1.362 . S
C1551 H1541 0.930 . S
C1551 C1544 1.409 . S
C1551 C1550 1.362 . S
H1552 C1558 0.930 . S
H1553 C1561 0.930 . S
H1554 C1562 0.930 . S
H1555 C1563 0.930 . S
H1556 C1566 0.930 . S
H1557 C1567 0.930 . S
C1558 H1552 0.930 . S
C1558 C1559 1.355 . S
C1558 C1560 1.415 . S
C1559 C1558 1.355 . S
C1559 C1561 1.419 . S
C1560 C1558 1.415 . S
C1560 C1565 1.425 . S
C1560 C1567 1.409 . S
C1561 H1553 0.930 . S
C1561 C1559 1.419 . S
C1561 C1562 1.362 . S
C1562 H1554 0.930 . S
C1562 C1561 1.362 . S
C1562 C1565 1.409 . S
C1563 H1555 0.930 . S
C1563 C1564 1.355 . S
C1563 C1565 1.415 . S
C1564 C1563 1.355 . S
C1564 C1566 1.419 . S
C1565 C1560 1.425 . S
C1565 C1562 1.409 . S
C1565 C1563 1.415 . S
C1566 H1556 0.930 . S
C1566 C1564 1.419 . S
C1566 C1567 1.362 . S
C1567 H1557 0.930 . S
C1567 C1560 1.409 . S
C1567 C1566 1.362 . S
H1568 C1574 0.930 . S
H1569 C1577 0.930 . S
H1570 C1578 0.930 . S
H1571 C1579 0.930 . S
H1572 C1582 0.930 . S
H1573 C1583 0.930 . S
C1574 H1568 0.930 . S
C1574 C1575 1.355 . S
C1574 C1576 1.415 . S
C1575 C1574 1.355 . S
C1575 C1577 1.419 . S
C1576 C1574 1.415 . S
C1576 C1581 1.425 . S
C1576 C1583 1.409 . S
C1577 H1569 0.930 . S
C1577 C1575 1.419 . S
C1577 C1578 1.362 . S
C1578 H1570 0.930 . S
C1578 C1577 1.362 . S
C1578 C1581 1.409 . S
C1579 H1571 0.930 . S
C1579 C1580 1.355 . S
C1579 C1581 1.415 . S
C1580 C1579 1.355 . S
C1580 C1582 1.419 . S
C1581 C1576 1.425 . S
C1581 C1578 1.409 . S
C1581 C1579 1.415 . S
C1582 H1572 0.930 . S
C1582 C1580 1.419 . S
C1582 C1583 1.362 . S
C1583 H1573 0.930 . S
C1583 C1576 1.409 . S
C1583 C1582 1.362 . S
H1584 C1590 0.930 . S
H1585 C1593 0.930 . S
H1586 C1594 0.930 . S
H1587 C1595 0.930 . S
H1588 C1598 0.930 . S
H1589 C1599 0.930 . S
C1590 H1584 0.930 . S
C1590 C1591 1.355 . S
C1590 C1592 1.415 . S
C1591 C1590 1.355 . S
C1591 C1593 1.419 . S
C1592 C1590 1.415 . S
C1592 C1597 1.425 . S
C1592 C1599 1.409 . S
C1593 H1585 0.930 . S
C1593 C1591 1.419 . S
C1593 C1594 1.362 . S
C1594 H1586 0.930 . S
C1594 C1593 1.362 . S
C1594 C1597 1.409 . S
C1595 H1587 0.930 . S
C1595 C1596 1.355 . S
C1595 C1597 1.415 . S
C1596 C1595 1.355 . S
C1596 C1598 1.419 . S
C1597 C1592 1.425 . S
C1597 C1594 1.409 . S
C1597 C1595 1.415 . S
C1598 H1588 0.930 . S
C1598 C1596 1.419 . S
C1598 C1599 1.362 . S
C1599 H1589 0.930 . S
C1599 C1592 1.409 . S
C1599 C1598 1.362 . S
H1600 C1606 0.930 . S
H1601 C1609 0.930 . S
H1602 C1610 0.930 . S
H1603 C1611 0.930 . S
H1604 C1614 0.930 . S
H1605 C1615 0.930 . S
C1606 H1600 0.930 . S
C1606 C1607 1.355 . S
C1606 C1608 1.415 . S
C1607 C1606 1.355 . S
C1607 C1609 1.419 . S
C1608 C1606 1.415 . S
C1608 C1613 1.425 . S
C1608 C1615 1.409 . S
C1609 H1601 0.930 . S
C1609 C1607 1.419 . S
C1609 C1610 1.362 . S
C1610 H1602 0.930 . S
C1610 C1609 1.362 . S
C1610 C1613 1.409 . S
C1611 H1603 0.930 . S
C1611 C1612 1.355 . S
C1611 C1613 1.415 . S
C1612 C1611 1.355 . S
C1612 C1614 1.419 . S
C1613 C1608 1.425 . S
C1613 C1610 1.409 . S
C1613 C1611 1.415 . S
C1614 H1604 0.930 . S
C1614 C1612 1.419 . S
C1614 C1615 1.362 . S
C1615 H1605 0.930 . S
C1615 C1608 1.409 . S
C1615 C1614 1.362 . S
H1616 C1622 0.930 . S
H1617 C1625 0.930 . S
H1618 C1626 0.930 . S
H1619 C1627 0.930 . S
H1620 C1630 0.930 . S
H1621 C1631 0.930 . S
C1622 H1616 0.930 . S
C1622 C1623 1.355 . S
C1622 C1624 1.415 . S
C1623 C1622 1.355 . S
C1623 C1625 1.419 . S
C1624 C1622 1.415 . S
C1624 C1629 1.425 . S
C1624 C1631 1.409 . S
C1625 H1617 0.930 . S
C1625 C1623 1.419 . S
C1625 C1626 1.362 . S
C1626 H1618 0.930 . S
C1626 C1625 1.362 . S
C1626 C1629 1.409 . S
C1627 H1619 0.930 . S
C1627 C1628 1.355 . S
C1627 C1629 1.415 . S
C1628 C1627 1.355 . S
C1628 C1630 1.419 . S
C1629 C1624 1.425 . S
C1629 C1626 1.409 . S
C1629 C1627 1.415 . S
C1630 H1620 0.930 . S
C1630 C1628 1.419 . S
C1630 C1631 1.362 . S
C1631 H1621 0.930 . S
C1631 C1624 1.409 . S
C1631 C1630 1.362 . S
H1632 C1638 0.930 . S
H1633 C1641 0.930 . S
H1634 C1642 0.930 . S
H1635 C1643 0.930 . S
H1636 C1646 0.930 . S
H1637 C1647 0.930 . S
C1638 H1632 0.930 . S
C1638 C1639 1.355 . S
C1638 C1640 1.415 . S
C1639 C1638 1.355 . S
C1639 C1641 1.419 . S
C1640 C1638 1.415 . S
C1640 C1645 1.425 . S
C1640 C1647 1.409 . S
C1641 H1633 0.930 . S
C1641 C1639 1.419 . S
C1641 C1642 1.362 . S
C1642 H1634 0.930 . S
C1642 C1641 1.362 . S
C1642 C1645 1.409 . S
C1643 H1635 0.930 . S
C1643 C1644 1.355 . S
C1643 C1645 1.415 . S
C1644 C1643 1.355 . S
C1644 C1646 1.419 . S
C1645 C1640 1.425 . S
C1645 C1642 1.409 . S
C1645 C1643 1.415 . S
C1646 H1636 0.930 . S
C1646 C1644 1.419 . S
C1646 C1647 1.362 . S
C1647 H1637 0.930 . S
C1647 C1640 1.409 . S
C1647 C1646 1.362 . S
H1648 C1654 0.930 . S
H1649 C1657 0.930 . S
H1650 C1658 0.930 . S
H1651 C1659 0.930 . S
H1652 C1662 0.930 1_554 S
H1653 C1663 0.930 1_554 S
C1654 H1648 0.930 . S
C1654 C1655 1.355 . S
C1654 C1656 1.415 . S
C1655 C1654 1.355 . S
C1655 C1657 1.419 . S
C1656 C1654 1.415 . S
C1656 C1661 1.425 1_655 S
C1656 C1663 1.409 1_655 S
C1657 H1649 0.930 . S
C1657 C1655 1.419 . S
C1657 C1658 1.362 . S
C1658 H1650 0.930 . S
C1658 C1657 1.362 . S
C1658 C1661 1.409 1_655 S
C1659 H1651 0.930 . S
C1659 C1660 1.355 . S
C1659 C1661 1.415 . S
C1660 C1659 1.355 . S
C1660 C1662 1.419 . S
C1661 C1656 1.425 1_455 S
C1661 C1658 1.409 1_455 S
C1661 C1659 1.415 . S
C1662 H1652 0.930 1_556 S
C1662 C1660 1.419 . S
C1662 C1663 1.362 . S
C1663 H1653 0.930 1_556 S
C1663 C1656 1.409 1_455 S
C1663 C1662 1.362 . S
H1664 C1670 0.930 . S
H1665 C1673 0.930 . S
H1666 C1674 0.930 . S
H1667 C1675 0.930 . S
H1668 C1678 0.930 . S
H1669 C1679 0.930 . S
C1670 H1664 0.930 . S
C1670 C1671 1.355 . S
C1670 C1672 1.415 . S
C1671 C1670 1.355 . S
C1671 C1673 1.419 . S
C1672 C1670 1.415 . S
C1672 C1677 1.425 . S
C1672 C1679 1.409 . S
C1673 H1665 0.930 . S
C1673 C1671 1.419 . S
C1673 C1674 1.362 . S
C1674 H1666 0.930 . S
C1674 C1673 1.362 . S
C1674 C1677 1.409 . S
C1675 H1667 0.930 . S
C1675 C1676 1.355 . S
C1675 C1677 1.415 . S
C1676 C1675 1.355 . S
C1676 C1678 1.419 . S
C1677 C1672 1.425 . S
C1677 C1674 1.409 . S
C1677 C1675 1.415 . S
C1678 H1668 0.930 . S
C1678 C1676 1.419 . S
C1678 C1679 1.362 . S
C1679 H1669 0.930 . S
C1679 C1672 1.409 . S
C1679 C1678 1.362 . S
H1680 C1686 0.930 . S
H1681 C1689 0.930 1_556 S
H1682 C1690 0.930 1_556 S
H1683 C1691 0.930 . S
H1684 C1694 0.930 . S
H1685 C1695 0.930 . S
C1686 H1680 0.930 . S
C1686 C1687 1.355 . S
C1686 C1688 1.418 . S
C1687 C1686 1.355 . S
C1687 C1689 1.419 . S
C1688 C1686 1.418 . S
C1688 C1693 1.424 1_455 S
C1688 C1695 1.407 1_455 S
C1689 H1681 0.930 1_554 S
C1689 C1687 1.419 . S
C1689 C1690 1.362 . S
C1690 H1682 0.930 1_554 S
C1690 C1689 1.362 . S
C1690 C1693 1.409 1_455 S
C1691 H1683 0.930 . S
C1691 C1692 1.355 . S
C1691 C1693 1.415 . S
C1692 C1691 1.355 . S
C1692 C1694 1.419 . S
C1693 C1688 1.424 1_655 S
C1693 C1690 1.409 1_655 S
C1693 C1691 1.415 . S
C1694 H1684 0.930 . S
C1694 C1692 1.419 . S
C1694 C1695 1.362 . S
C1695 H1685 0.930 . S
C1695 C1688 1.407 1_655 S
C1695 C1694 1.362 . S
H1696 C1702 0.930 . S
H1697 C1705 0.930 . S
H1698 C1706 0.930 . S
H1699 C1707 0.930 . S
H1700 C1710 0.930 . S
H1701 C1711 0.930 . S
C1702 H1696 0.930 . S
C1702 C1703 1.355 . S
C1702 C1704 1.415 . S
C1703 C1702 1.355 . S
C1703 C1705 1.419 . S
C1704 C1702 1.415 . S
C1704 C1709 1.425 . S
C1704 C1711 1.409 . S
C1705 H1697 0.930 . S
C1705 C1703 1.419 . S
C1705 C1706 1.362 . S
C1706 H1698 0.930 . S
C1706 C1705 1.362 . S
C1706 C1709 1.409 . S
C1707 H1699 0.930 . S
C1707 C1708 1.355 . S
C1707 C1709 1.415 . S
C1708 C1707 1.355 . S
C1708 C1710 1.419 . S
C1709 C1704 1.425 . S
C1709 C1706 1.409 . S
C1709 C1707 1.415 . S
C1710 H1700 0.930 . S
C1710 C1708 1.419 . S
C1710 C1711 1.362 . S
C1711 H1701 0.930 . S
C1711 C1704 1.409 . S
C1711 C1710 1.362 . S
H1712 C1718 0.930 . S
H1713 C1721 0.930 . S
H1714 C1722 0.930 . S
H1715 C1723 0.930 . S
H1716 C1726 0.930 . S
H1717 C1727 0.930 . S
C1718 H1712 0.930 . S
C1718 C1719 1.355 . S
C1718 C1720 1.415 . S
C1719 C1718 1.355 . S
C1719 C1721 1.419 . S
C1720 C1718 1.415 . S
C1720 C1725 1.425 . S
C1720 C1727 1.409 . S
C1721 H1713 0.930 . S
C1721 C1719 1.419 . S
C1721 C1722 1.362 . S
C1722 H1714 0.930 . S
C1722 C1721 1.362 . S
C1722 C1725 1.409 . S
C1723 H1715 0.930 . S
C1723 C1724 1.355 . S
C1723 C1725 1.415 . S
C1724 C1723 1.355 . S
C1724 C1726 1.419 . S
C1725 C1720 1.425 . S
C1725 C1722 1.409 . S
C1725 C1723 1.415 . S
C1726 H1716 0.930 . S
C1726 C1724 1.419 . S
C1726 C1727 1.362 . S
C1727 H1717 0.930 . S
C1727 C1720 1.409 . S
C1727 C1726 1.362 . S
H1728 C1734 0.930 . S
H1729 C1737 0.930 . S
H1730 C1738 0.930 . S
H1731 C1739 0.930 . S
H1732 C1742 0.930 . S
H1733 C1743 0.930 . S
C1734 H1728 0.930 . S
C1734 C1735 1.355 . S
C1734 C1736 1.415 . S
C1735 C1734 1.355 . S
C1735 C1737 1.419 . S
C1736 C1734 1.415 . S
C1736 C1741 1.425 . S
C1736 C1743 1.409 . S
C1737 H1729 0.930 . S
C1737 C1735 1.419 . S
C1737 C1738 1.362 . S
C1738 H1730 0.930 . S
C1738 C1737 1.362 . S
C1738 C1741 1.409 . S
C1739 H1731 0.930 . S
C1739 C1740 1.355 . S
C1739 C1741 1.415 . S
C1740 C1739 1.355 . S
C1740 C1742 1.419 . S
C1741 C1736 1.425 . S
C1741 C1738 1.409 . S
C1741 C1739 1.415 . S
C1742 H1732 0.930 . S
C1742 C1740 1.419 . S
C1742 C1743 1.362 . S
C1743 H1733 0.930 . S
C1743 C1736 1.409 . S
C1743 C1742 1.362 . S
H1744 C1750 0.930 . S
H1745 C1753 0.930 . S
H1746 C1754 0.930 . S
H1747 C1755 0.930 . S
H1748 C1758 0.930 . S
H1749 C1759 0.930 . S
C1750 H1744 0.930 . S
C1750 C1751 1.355 . S
C1750 C1752 1.415 . S
C1751 C1750 1.355 . S
C1751 C1753 1.419 . S
C1752 C1750 1.415 . S
C1752 C1757 1.425 . S
C1752 C1759 1.409 . S
C1753 H1745 0.930 . S
C1753 C1751 1.419 . S
C1753 C1754 1.362 . S
C1754 H1746 0.930 . S
C1754 C1753 1.362 . S
C1754 C1757 1.409 . S
C1755 H1747 0.930 . S
C1755 C1756 1.355 . S
C1755 C1757 1.415 . S
C1756 C1755 1.355 . S
C1756 C1758 1.419 . S
C1757 C1752 1.425 . S
C1757 C1754 1.409 . S
C1757 C1755 1.415 . S
C1758 H1748 0.930 . S
C1758 C1756 1.419 . S
C1758 C1759 1.362 . S
C1759 H1749 0.930 . S
C1759 C1752 1.409 . S
C1759 C1758 1.362 . S
H1760 C1766 0.930 . S
H1761 C1769 0.930 . S
H1762 C1770 0.930 . S
H1763 C1771 0.930 . S
H1764 C1774 0.930 . S
H1765 C1775 0.930 . S
C1766 H1760 0.930 . S
C1766 C1767 1.355 . S
C1766 C1768 1.415 . S
C1767 C1766 1.355 . S
C1767 C1769 1.419 . S
C1768 C1766 1.415 . S
C1768 C1773 1.425 . S
C1768 C1775 1.409 . S
C1769 H1761 0.930 . S
C1769 C1767 1.419 . S
C1769 C1770 1.362 . S
C1770 H1762 0.930 . S
C1770 C1769 1.362 . S
C1770 C1773 1.409 . S
C1771 H1763 0.930 . S
C1771 C1772 1.355 . S
C1771 C1773 1.415 . S
C1772 C1771 1.355 . S
C1772 C1774 1.419 . S
C1773 C1768 1.425 . S
C1773 C1770 1.409 . S
C1773 C1771 1.415 . S
C1774 H1764 0.930 . S
C1774 C1772 1.419 . S
C1774 C1775 1.362 . S
C1775 H1765 0.930 . S
C1775 C1768 1.409 . S
C1775 C1774 1.362 . S
H1776 C1782 0.930 . S
H1777 C1785 0.930 . S
H1778 C1786 0.930 . S
H1779 C1787 0.930 . S
H1780 C1790 0.930 . S
H1781 C1791 0.930 . S
C1782 H1776 0.930 . S
C1782 C1783 1.355 . S
C1782 C1784 1.415 . S
C1783 C1782 1.355 . S
C1783 C1785 1.419 . S
C1784 C1782 1.415 . S
C1784 C1789 1.425 . S
C1784 C1791 1.409 . S
C1785 H1777 0.930 . S
C1785 C1783 1.419 . S
C1785 C1786 1.362 . S
C1786 H1778 0.930 . S
C1786 C1785 1.362 . S
C1786 C1789 1.409 . S
C1787 H1779 0.930 . S
C1787 C1788 1.355 . S
C1787 C1789 1.415 . S
C1788 C1787 1.355 . S
C1788 C1790 1.419 . S
C1789 C1784 1.425 . S
C1789 C1786 1.409 . S
C1789 C1787 1.415 . S
C1790 H1780 0.930 . S
C1790 C1788 1.419 . S
C1790 C1791 1.362 . S
C1791 H1781 0.930 . S
C1791 C1784 1.409 . S
C1791 C1790 1.362 . S
H1792 C1798 0.930 . S
H1793 C1801 0.943 . S
H1794 C1802 0.930 1_554 S
H1795 C1803 0.930 . S
H1796 C1806 0.930 . S
H1797 C1807 0.930 . S
C1798 H1792 0.930 . S
C1798 C1799 1.355 . S
C1798 C1800 1.415 . S
C1799 C1798 1.355 . S
C1799 C1801 1.419 . S
C1800 C1798 1.415 . S
C1800 C1805 1.425 1_655 S
C1800 C1807 1.409 1_655 S
C1801 H1793 0.943 . S
C1801 C1799 1.419 . S
C1801 C1802 1.362 . S
C1802 H1794 0.930 1_556 S
C1802 C1801 1.362 . S
C1802 C1805 1.409 1_655 S
C1803 H1795 0.930 . S
C1803 C1804 1.355 . S
C1803 C1805 1.415 . S
C1804 C1803 1.355 . S
C1804 C1806 1.419 . S
C1805 C1800 1.425 1_455 S
C1805 C1802 1.409 1_455 S
C1805 C1803 1.415 . S
C1806 H1796 0.930 . S
C1806 C1804 1.419 . S
C1806 C1807 1.362 . S
C1807 H1797 0.930 . S
C1807 C1800 1.409 1_455 S
C1807 C1806 1.362 . S
H1808 C1814 0.930 . S
H1809 C1817 0.930 . S
H1810 C1818 0.930 . S
H1811 C1819 0.930 . S
H1812 C1822 0.930 . S
H1813 C1823 0.930 . S
C1814 H1808 0.930 . S
C1814 C1815 1.355 . S
C1814 C1816 1.415 . S
C1815 C1814 1.355 . S
C1815 C1817 1.419 . S
C1816 C1814 1.415 . S
C1816 C1821 1.425 . S
C1816 C1823 1.409 . S
C1817 H1809 0.930 . S
C1817 C1815 1.419 . S
C1817 C1818 1.362 . S
C1818 H1810 0.930 . S
C1818 C1817 1.362 . S
C1818 C1821 1.409 . S
C1819 H1811 0.930 . S
C1819 C1820 1.355 . S
C1819 C1821 1.415 . S
C1820 C1819 1.355 . S
C1820 C1822 1.419 . S
C1821 C1816 1.425 . S
C1821 C1818 1.409 . S
C1821 C1819 1.415 . S
C1822 H1812 0.930 . S
C1822 C1820 1.419 . S
C1822 C1823 1.362 . S
C1823 H1813 0.930 . S
C1823 C1816 1.409 . S
C1823 C1822 1.362 . S
H1824 C1830 0.930 . S
H1825 C1833 0.930 . S
H1826 C1834 0.930 . S
H1827 C1835 0.930 . S
H1828 C1838 0.930 . S
H1829 C1839 0.930 . S
C1830 H1824 0.930 . S
C1830 C1831 1.355 . S
C1830 C1832 1.415 . S
C1831 C1830 1.355 . S
C1831 C1833 1.419 . S
C1832 C1830 1.415 . S
C1832 C1837 1.425 . S
C1832 C1839 1.409 . S
C1833 H1825 0.930 . S
C1833 C1831 1.419 . S
C1833 C1834 1.362 . S
C1834 H1826 0.930 . S
C1834 C1833 1.362 . S
C1834 C1837 1.409 . S
C1835 H1827 0.930 . S
C1835 C1836 1.355 . S
C1835 C1837 1.415 . S
C1836 C1835 1.355 . S
C1836 C1838 1.419 . S
C1837 C1832 1.425 . S
C1837 C1834 1.409 . S
C1837 C1835 1.415 . S
C1838 H1828 0.930 . S
C1838 C1836 1.419 . S
C1838 C1839 1.362 . S
C1839 H1829 0.930 . S
C1839 C1832 1.409 . S
C1839 C1838 1.362 . S
H1840 C1846 0.930 . S
H1841 C1849 0.930 . S
H1842 C1850 0.930 . S
H1843 C1851 0.930 . S
H1844 C1854 0.930 . S
H1845 C1855 0.930 . S
C1846 H1840 0.930 . S
C1846 C1847 1.355 . S
C1846 C1848 1.448 . S
C1847 C1846 1.355 . S
C1847 C1849 1.419 . S
C1848 C1846 1.448 . S
C1848 C1853 1.414 1_455 S
C1848 C1855 1.387 1_455 S
C1849 H1841 0.930 . S
C1849 C1847 1.419 . S
C1849 C1850 1.362 . S
C1850 H1842 0.930 . S
C1850 C1849 1.362 . S
C1850 C1853 1.409 1_455 S
C1851 H1843 0.930 . S
C1851 C1852 1.355 . S
C1851 C1853 1.415 . S
C1852 C1851 1.355 . S
C1852 C1854 1.419 . S
C1853 C1848 1.414 1_655 S
C1853 C1850 1.409 1_655 S
C1853 C1851 1.415 . S
C1854 H1844 0.930 . S
C1854 C1852 1.419 . S
C1854 C1855 1.362 . S
C1855 H1845 0.930 . S
C1855 C1848 1.387 1_655 S
C1855 C1854 1.362 . S
H1856 C1862 0.930 . S
H1857 C1865 0.930 . S
H1858 C1866 0.930 . S
H1859 C1867 0.930 . S
H1860 C1870 0.930 . S
H1861 C1871 0.930 . S
C1862 H1856 0.930 . S
C1862 C1863 1.355 . S
C1862 C1864 1.415 1_554 S
C1863 C1862 1.355 . S
C1863 C1865 1.419 . S
C1864 C1862 1.415 1_556 S
C1864 C1869 1.426 . S
C1864 C1871 1.409 . S
C1865 H1857 0.930 . S
C1865 C1863 1.419 . S
C1865 C1866 1.362 . S
C1866 H1858 0.930 . S
C1866 C1865 1.362 . S
C1866 C1869 1.405 1_554 S
C1867 H1859 0.930 . S
C1867 C1868 1.355 . S
C1867 C1869 1.417 . S
C1868 C1867 1.355 . S
C1868 C1870 1.419 . S
C1869 C1864 1.426 . S
C1869 C1866 1.405 1_556 S
C1869 C1867 1.417 . S
C1870 H1860 0.930 . S
C1870 C1868 1.419 . S
C1870 C1871 1.362 . S
C1871 H1861 0.930 . S
C1871 C1864 1.409 . S
C1871 C1870 1.362 . S
H1872 C1878 0.930 . S
H1873 C1881 0.930 . S
H1874 C1882 0.930 . S
H1875 C1883 0.930 . S
H1876 C1886 0.930 . S
H1877 C1887 0.930 . S
C1878 H1872 0.930 . S
C1878 C1879 1.355 . S
C1878 C1880 1.415 . S
C1879 C1878 1.355 . S
C1879 C1881 1.419 . S
C1880 C1878 1.415 . S
C1880 C1885 1.425 . S
C1880 C1887 1.409 . S
C1881 H1873 0.930 . S
C1881 C1879 1.419 . S
C1881 C1882 1.362 . S
C1882 H1874 0.930 . S
C1882 C1881 1.362 . S
C1882 C1885 1.409 . S
C1883 H1875 0.930 . S
C1883 C1884 1.355 . S
C1883 C1885 1.415 . S
C1884 C1883 1.355 . S
C1884 C1886 1.419 . S
C1885 C1880 1.425 . S
C1885 C1882 1.409 . S
C1885 C1883 1.415 . S
C1886 H1876 0.930 . S
C1886 C1884 1.419 . S
C1886 C1887 1.362 . S
C1887 H1877 0.930 . S
C1887 C1880 1.409 . S
C1887 C1886 1.362 . S
H1888 C1894 0.930 . S
H1889 C1897 0.930 . S
H1890 C1898 0.930 . S
H1891 C1899 0.930 . S
H1892 C1902 0.930 . S
H1893 C1903 0.930 . S
C1894 H1888 0.930 . S
C1894 C1895 1.355 . S
C1894 C1896 1.415 . S
C1895 C1894 1.355 . S
C1895 C1897 1.419 . S
C1896 C1894 1.415 . S
C1896 C1901 1.425 . S
C1896 C1903 1.409 . S
C1897 H1889 0.930 . S
C1897 C1895 1.419 . S
C1897 C1898 1.362 . S
C1898 H1890 0.930 . S
C1898 C1897 1.362 . S
C1898 C1901 1.409 . S
C1899 H1891 0.930 . S
C1899 C1900 1.355 . S
C1899 C1901 1.415 . S
C1900 C1899 1.355 . S
C1900 C1902 1.419 . S
C1901 C1896 1.425 . S
C1901 C1898 1.409 . S
C1901 C1899 1.415 . S
C1902 H1892 0.930 . S
C1902 C1900 1.419 . S
C1902 C1903 1.362 . S
C1903 H1893 0.930 . S
C1903 C1896 1.409 . S
C1903 C1902 1.362 . S
H1904 C1910 0.930 . S
H1905 C1913 0.930 . S
H1906 C1914 0.930 . S
H1907 C1915 0.930 . S
H1908 C1918 0.930 . S
H1909 C1919 0.930 . S
C1910 H1904 0.930 . S
C1910 C1911 1.355 . S
C1910 C1912 1.415 . S
C1911 C1910 1.355 . S
C1911 C1913 1.419 . S
C1912 C1910 1.415 . S
C1912 C1917 1.425 . S
C1912 C1919 1.409 . S
C1913 H1905 0.930 . S
C1913 C1911 1.419 . S
C1913 C1914 1.362 . S
C1914 H1906 0.930 . S
C1914 C1913 1.362 . S
C1914 C1917 1.409 . S
C1915 H1907 0.930 . S
C1915 C1916 1.355 . S
C1915 C1917 1.415 . S
C1916 C1915 1.355 . S
C1916 C1918 1.419 . S
C1917 C1912 1.425 . S
C1917 C1914 1.409 . S
C1917 C1915 1.415 . S
C1918 H1908 0.930 . S
C1918 C1916 1.419 . S
C1918 C1919 1.362 . S
C1919 H1909 0.930 . S
C1919 C1912 1.409 . S
C1919 C1918 1.362 . S
H1920 C1926 0.930 . S
H1921 C1929 0.930 . S
H1922 C1930 0.930 . S
H1923 C1931 0.930 . S
H1924 C1934 0.930 . S
H1925 C1935 0.930 . S
C1926 H1920 0.930 . S
C1926 C1927 1.355 . S
C1926 C1928 1.415 . S
C1927 C1926 1.355 . S
C1927 C1929 1.419 . S
C1928 C1926 1.415 . S
C1928 C1933 1.425 1_554 S
C1928 C1935 1.409 . S
C1929 H1921 0.930 . S
C1929 C1927 1.419 . S
C1929 C1930 1.362 1_554 S
C1930 H1922 0.930 . S
C1930 C1929 1.362 1_556 S
C1930 C1933 1.409 . S
C1931 H1923 0.930 . S
C1931 C1932 1.355 . S
C1931 C1933 1.415 . S
C1932 C1931 1.355 . S
C1932 C1934 1.419 . S
C1933 C1928 1.425 1_556 S
C1933 C1930 1.409 . S
C1933 C1931 1.415 . S
C1934 H1924 0.930 . S
C1934 C1932 1.419 . S
C1934 C1935 1.362 1_556 S
C1935 H1925 0.930 . S
C1935 C1928 1.409 . S
C1935 C1934 1.362 1_554 S
H1936 C1942 0.930 . S
H1937 C1945 0.930 . S
H1938 C1946 0.930 . S
H1939 C1947 0.930 . S
H1940 C1950 0.930 . S
H1941 C1951 0.930 . S
C1942 H1936 0.930 . S
C1942 C1943 1.355 . S
C1942 C1944 1.415 . S
C1943 C1942 1.355 . S
C1943 C1945 1.419 . S
C1944 C1942 1.415 . S
C1944 C1949 1.425 . S
C1944 C1951 1.409 . S
C1945 H1937 0.930 . S
C1945 C1943 1.419 . S
C1945 C1946 1.362 . S
C1946 H1938 0.930 . S
C1946 C1945 1.362 . S
C1946 C1949 1.409 . S
C1947 H1939 0.930 . S
C1947 C1948 1.355 . S
C1947 C1949 1.415 . S
C1948 C1947 1.355 . S
C1948 C1950 1.419 . S
C1949 C1944 1.425 . S
C1949 C1946 1.409 . S
C1949 C1947 1.415 . S
C1950 H1940 0.930 . S
C1950 C1948 1.419 . S
C1950 C1951 1.362 . S
C1951 H1941 0.930 . S
C1951 C1944 1.409 . S
C1951 C1950 1.362 . S
H1952 C1958 0.930 . S
H1953 C1961 0.930 . S
H1954 C1962 0.930 . S
H1955 C1963 0.930 . S
H1956 C1966 0.930 . S
H1957 C1967 0.930 . S
C1958 H1952 0.930 . S
C1958 C1959 1.355 . S
C1958 C1960 1.415 . S
C1959 C1958 1.355 . S
C1959 C1961 1.419 . S
C1960 C1958 1.415 . S
C1960 C1965 1.425 . S
C1960 C1967 1.409 . S
C1961 H1953 0.930 . S
C1961 C1959 1.419 . S
C1961 C1962 1.362 . S
C1962 H1954 0.930 . S
C1962 C1961 1.362 . S
C1962 C1965 1.409 . S
C1963 H1955 0.930 . S
C1963 C1964 1.355 . S
C1963 C1965 1.415 . S
C1964 C1963 1.355 . S
C1964 C1966 1.419 . S
C1965 C1960 1.425 . S
C1965 C1962 1.409 . S
C1965 C1963 1.415 . S
C1966 H1956 0.930 . S
C1966 C1964 1.419 . S
C1966 C1967 1.362 . S
C1967 H1957 0.930 . S
C1967 C1960 1.409 . S
C1967 C1966 1.362 . S
H1968 C1974 0.930 . S
H1969 C1977 0.930 . S
H1970 C1978 0.930 . S
H1971 C1979 0.930 . S
H1972 C1982 0.930 . S
H1973 C1983 0.930 . S
C1974 H1968 0.930 . S
C1974 C1975 1.355 . S
C1974 C1976 1.415 . S
C1975 C1974 1.355 . S
C1975 C1977 1.419 . S
C1976 C1974 1.415 . S
C1976 C1981 1.425 . S
C1976 C1983 1.409 . S
C1977 H1969 0.930 . S
C1977 C1975 1.419 . S
C1977 C1978 1.362 . S
C1978 H1970 0.930 . S
C1978 C1977 1.362 . S
C1978 C1981 1.409 . S
C1979 H1971 0.930 . S
C1979 C1980 1.355 . S
C1979 C1981 1.415 . S
C1980 C1979 1.355 . S
C1980 C1982 1.419 . S
C1981 C1976 1.425 . S
C1981 C1978 1.409 . S
C1981 C1979 1.415 . S
C1982 H1972 0.930 . S
C1982 C1980 1.419 . S
C1982 C1983 1.362 . S
C1983 H1973 0.930 . S
C1983 C1976 1.409 . S
C1983 C1982 1.362 . S
H1984 C1990 0.930 . S
H1985 C1993 0.930 . S
H1986 C1994 0.930 . S
H1987 C1995 0.930 . S
H1988 C1998 0.930 . S
H1989 C1999 0.930 . S
C1990 H1984 0.930 . S
C1990 C1991 1.355 . S
C1990 C1992 1.415 1_565 S
C1991 C1990 1.355 . S
C1991 C1993 1.419 . S
C1992 C1990 1.415 1_545 S
C1992 C1997 1.423 1_545 S
C1992 C1999 1.409 . S
C1993 H1985 0.930 . S
C1993 C1991 1.419 . S
C1993 C1994 1.362 . S
C1994 H1986 0.930 . S
C1994 C1993 1.362 . S
C1994 C1997 1.430 . S
C1995 H1987 0.930 . S
C1995 C1996 1.355 . S
C1995 C1997 1.395 1_545 S
C1996 C1995 1.355 . S
C1996 C1998 1.419 . S
C1997 C1992 1.423 1_565 S
C1997 C1994 1.430 . S
C1997 C1995 1.395 1_565 S
C1998 H1988 0.930 . S
C1998 C1996 1.419 . S
C1998 C1999 1.362 . S
C1999 H1989 0.930 . S
C1999 C1992 1.409 . S
C1999 C1998 1.362 . S
H2000 C2006 0.930 . S
H2001 C2009 0.930 . S
H2002 C2010 0.930 . S
H2003 C2011 0.930 . S
H2004 C2014 0.930 . S
H2005 C2015 0.930 . S
C2006 H2000 0.930 . S
C2006 C2007 1.355 . S
C2006 C2008 1.415 . S
C2007 C2006 1.355 . S
C2007 C2009 1.419 . S
C2008 C2006 1.415 . S
C2008 C2013 1.425 . S
C2008 C2015 1.409 . S
C2009 H2001 0.930 . S
C2009 C2007 1.419 . S
C2009 C2010 1.362 . S
C2010 H2002 0.930 . S
C2010 C2009 1.362 . S
C2010 C2013 1.409 . S
C2011 H2003 0.930 . S
C2011 C2012 1.355 . S
C2011 C2013 1.415 . S
C2012 C2011 1.355 . S
C2012 C2014 1.419 . S
C2013 C2008 1.425 . S
C2013 C2010 1.409 . S
C2013 C2011 1.415 . S
C2014 H2004 0.930 . S
C2014 C2012 1.419 . S
C2014 C2015 1.362 . S
C2015 H2005 0.930 . S
C2015 C2008 1.409 . S
C2015 C2014 1.362 . S
H2016 C2022 0.930 1_556 S
H2017 C2025 0.930 . S
H2018 C2026 0.930 . S
H2019 C2027 0.930 1_554 S
H2020 C2030 0.930 . S
H2021 C2031 0.930 . S
C2022 H2016 0.930 1_554 S
C2022 C2023 1.355 . S
C2022 C2024 1.415 1_554 S
C2023 C2022 1.355 . S
C2023 C2025 1.419 . S
C2024 C2022 1.415 1_556 S
C2024 C2029 1.425 1_566 S
C2024 C2031 1.409 . S
C2025 H2017 0.930 . S
C2025 C2023 1.419 . S
C2025 C2026 1.362 1_565 S
C2026 H2018 0.930 . S
C2026 C2025 1.362 1_545 S
C2026 C2029 1.409 . S
C2027 H2019 0.930 1_556 S
C2027 C2028 1.355 . S
C2027 C2029 1.415 1_556 S
C2028 C2027 1.355 . S
C2028 C2030 1.419 . S
C2029 C2024 1.425 1_544 S
C2029 C2026 1.409 . S
C2029 C2027 1.415 1_554 S
C2030 H2020 0.930 . S
C2030 C2028 1.419 . S
C2030 C2031 1.362 1_545 S
C2031 H2021 0.930 . S
C2031 C2024 1.409 . S
C2031 C2030 1.362 1_565 S
H2032 C2038 0.930 . S
H2033 C2041 0.930 . S
H2034 C2042 0.930 . S
H2035 C2043 0.930 . S
H2036 C2046 0.930 . S
H2037 C2047 0.930 . S
C2038 H2032 0.930 . S
C2038 C2039 1.355 . S
C2038 C2040 1.415 . S
C2039 C2038 1.355 . S
C2039 C2041 1.419 . S
C2040 C2038 1.415 . S
C2040 C2045 1.425 . S
C2040 C2047 1.409 . S
C2041 H2033 0.930 . S
C2041 C2039 1.419 . S
C2041 C2042 1.362 . S
C2042 H2034 0.930 . S
C2042 C2041 1.362 . S
C2042 C2045 1.409 . S
C2043 H2035 0.930 . S
C2043 C2044 1.355 . S
C2043 C2045 1.415 . S
C2044 C2043 1.355 . S
C2044 C2046 1.419 . S
C2045 C2040 1.425 . S
C2045 C2042 1.409 . S
C2045 C2043 1.415 . S
C2046 H2036 0.930 . S
C2046 C2044 1.419 . S
C2046 C2047 1.362 . S
C2047 H2037 0.930 . S
C2047 C2040 1.409 . S
C2047 C2046 1.362 . S
H2048 C2054 0.930 . S
H2049 C2057 0.930 . S
H2050 C2058 0.930 . S
H2051 C2059 0.930 . S
H2052 C2062 0.930 . S
H2053 C2063 0.930 . S
C2054 H2048 0.930 . S
C2054 C2055 1.355 . S
C2054 C2056 1.415 . S
C2055 C2054 1.355 . S
C2055 C2057 1.419 . S
C2056 C2054 1.415 . S
C2056 C2061 1.427 1_565 S
C2056 C2063 1.409 1_565 S
C2057 H2049 0.930 . S
C2057 C2055 1.419 . S
C2057 C2058 1.362 . S
C2058 H2050 0.930 . S
C2058 C2057 1.362 . S
C2058 C2061 1.412 1_565 S
C2059 H2051 0.930 . S
C2059 C2060 1.355 . S
C2059 C2061 1.411 . S
C2060 C2059 1.355 . S
C2060 C2062 1.419 . S
C2061 C2056 1.427 1_545 S
C2061 C2058 1.412 1_545 S
C2061 C2059 1.411 . S
C2062 H2052 0.930 . S
C2062 C2060 1.419 . S
C2062 C2063 1.362 . S
C2063 H2053 0.930 . S
C2063 C2056 1.409 1_545 S
C2063 C2062 1.362 . S
H2064 C2070 0.930 . S
H2065 C2073 0.930 . S
H2066 C2074 0.930 . S
H2067 C2075 0.930 . S
H2068 C2078 0.930 . S
H2069 C2079 0.930 . S
C2070 H2064 0.930 . S
C2070 C2071 1.355 . S
C2070 C2072 1.415 . S
C2071 C2070 1.355 . S
C2071 C2073 1.419 . S
C2072 C2070 1.415 . S
C2072 C2077 1.425 . S
C2072 C2079 1.409 . S
C2073 H2065 0.930 . S
C2073 C2071 1.419 . S
C2073 C2074 1.362 . S
C2074 H2066 0.930 . S
C2074 C2073 1.362 . S
C2074 C2077 1.409 . S
C2075 H2067 0.930 . S
C2075 C2076 1.355 . S
C2075 C2077 1.415 . S
C2076 C2075 1.355 . S
C2076 C2078 1.419 . S
C2077 C2072 1.425 . S
C2077 C2074 1.409 . S
C2077 C2075 1.415 . S
C2078 H2068 0.930 . S
C2078 C2076 1.419 . S
C2078 C2079 1.362 . S
C2079 H2069 0.930 . S
C2079 C2072 1.409 . S
C2079 C2078 1.362 . S
H2080 C2086 0.930 . S
H2081 C2089 0.930 . S
H2082 C2090 0.930 . S
H2083 C2091 0.930 . S
H2084 C2094 0.930 . S
H2085 C2095 0.930 1_556 S
C2086 H2080 0.930 . S
C2086 C2087 1.355 . S
C2086 C2088 1.415 . S
C2087 C2086 1.355 . S
C2087 C2089 1.419 . S
C2088 C2086 1.415 . S
C2088 C2093 1.425 1_546 S
C2088 C2095 1.409 1_546 S
C2089 H2081 0.930 . S
C2089 C2087 1.419 . S
C2089 C2090 1.362 1_556 S
C2090 H2082 0.930 . S
C2090 C2089 1.362 1_554 S
C2090 C2093 1.409 1_545 S
C2091 H2083 0.930 . S
C2091 C2092 1.355 . S
C2091 C2093 1.415 . S
C2092 C2091 1.355 . S
C2092 C2094 1.419 . S
C2093 C2088 1.425 1_564 S
C2093 C2090 1.409 1_565 S
C2093 C2091 1.415 . S
C2094 H2084 0.930 . S
C2094 C2092 1.419 . S
C2094 C2095 1.362 . S
C2095 H2085 0.930 1_554 S
C2095 C2088 1.409 1_564 S
C2095 C2094 1.362 . S
H2096 C2102 0.930 . S
H2097 C2105 0.930 . S
H2098 C2106 0.930 . S
H2099 C2107 0.930 . S
H2100 C2110 0.930 . S
H2101 C2111 0.930 . S
C2102 H2096 0.930 . S
C2102 C2103 1.355 . S
C2102 C2104 1.415 . S
C2103 C2102 1.355 . S
C2103 C2105 1.419 . S
C2104 C2102 1.415 . S
C2104 C2109 1.425 . S
C2104 C2111 1.409 . S
C2105 H2097 0.930 . S
C2105 C2103 1.419 . S
C2105 C2106 1.362 . S
C2106 H2098 0.930 . S
C2106 C2105 1.362 . S
C2106 C2109 1.409 . S
C2107 H2099 0.930 . S
C2107 C2108 1.355 . S
C2107 C2109 1.415 . S
C2108 C2107 1.355 . S
C2108 C2110 1.419 . S
C2109 C2104 1.425 . S
C2109 C2106 1.409 . S
C2109 C2107 1.415 . S
C2110 H2100 0.930 . S
C2110 C2108 1.419 . S
C2110 C2111 1.362 . S
C2111 H2101 0.930 . S
C2111 C2104 1.409 . S
C2111 C2110 1.362 . S
C1351 C63 1.361 . S
C1356 C72 1.361 . S
C1367 C147 1.449 1_556 S
C1372 C156 1.449 . S
C1383 C240 1.363 . S
C1388 C231 1.363 1_554 S
C1399 C324 1.395 . S
C1404 C315 1.395 . S
C1415 C408 1.457 . S
C1420 C399 1.457 . S
C1431 C492 1.344 . S
C1436 C483 1.344 . S
C1447 C567 1.360 . S
C1452 C576 1.360 1_556 S
C1463 C651 1.400 1_554 S
C1468 C660 1.400 . S
C1479 C744 1.464 . S
C1484 C735 1.464 . S
C1495 C819 1.437 . S
C1500 C828 1.437 1_554 S
C1511 C912 1.443 1_556 S
C1516 C903 1.443 . S
C1527 C987 1.359 . S
C1532 C996 1.359 . S
C1543 C1071 1.378 . S
C1548 C1080 1.378 . S
C1559 C1155 1.467 . S
C1564 C1164 1.467 . S
C1575 C1248 1.474 . S
C1580 C1239 1.474 1_554 S
C1591 C1323 1.432 1_556 S
C1596 C1332 1.432 . S
C1607 C67 1.877 . S
C1612 C980 1.865 . S
C1623 C151 1.804 . S
C1628 C1326 1.716 . S
C1639 C243 1.686 . S
C1644 C822 1.705 . S
C1655 C327 1.663 . S
C1660 C1158 1.723 . S
C1671 C411 1.797 . S
C1676 C1148 1.826 . S
C1687 C990 1.740 . S
C1692 C487 1.816 . S
C1703 C571 1.802 . S
C1708 C1316 1.835 . S
C1719 C655 1.807 . S
C1724 C812 1.836 . S
C1735 C319 1.835 . S
C1740 C728 1.804 . S
C1751 C159 1.648 . S
C1756 C906 1.646 . S
C1767 C1074 1.677 . S
C1772 C495 1.715 . S
C1783 C663 1.641 . S
C1788 C1232 1.759 . S
C1799 C738 1.726 . S
C1804 C403 1.821 . S
C1815 C579 1.715 . S
C1820 C896 1.773 . S
C1831 C235 1.798 . S
C1836 C1242 1.718 . S
C1847 C75 1.719 . S
C1852 C1064 1.805 . S
C1863 C56 1.607 . S
C1868 C402 1.650 . S
C1879 C140 1.540 . S
C1884 C476 1.531 . S
C1895 C234 1.612 . S
C1900 C560 1.575 . S
C1911 C318 1.592 . S
C1916 C644 1.543 . S
C1927 C1083 1.609 . S
C1932 C739 1.521 . S
C1943 C1167 1.650 . S
C1948 C823 1.617 . S
C1959 C915 1.592 . S
C1964 C1243 1.449 . S
C1975 C1335 1.584 . S
C1980 C999 1.590 . S
C1991 C150 1.541 . S
C1996 C654 1.579 . S
C2007 C392 1.627 . S
C2012 C224 1.614 . S
C2023 C486 1.669 . S
C2028 C308 1.584 . S
C2039 C66 1.604 . S
C2044 C570 1.557 . S
C2055 C1327 1.484 . S
C2060 C831 1.627 . S
C2071 C1075 1.612 . S
C2076 C907 1.631 . S
C2087 C1159 1.634 . S
C2092 C991 1.585 . S
C2103 C1251 1.564 . S
C2108 C747 1.608 . S
