# Generated by pormake.
# Topology umr, (4)-cn, num edge types: 1
# Building blocks:
#     Node 0, Type 0, BuildingBlock: KUFVIS_clean_sbu_0, # of connection points: 4
#     Node 1, Type 0, BuildingBlock: KUFVIS_clean_sbu_0, # of connection points: 4
#     Node 2, Type 0, BuildingBlock: KUFVIS_clean_sbu_0, # of connection points: 4
#     Node 3, Type 0, BuildingBlock: KUFVIS_clean_sbu_0, # of connection points: 4
#     Node 4, Type 0, BuildingBlock: KUFVIS_clean_sbu_0, # of connection points: 4
#     Node 5, Type 0, BuildingBlock: KUFVIS_clean_sbu_0, # of connection points: 4
#     Node 6, Type 0, BuildingBlock: KUFVIS_clean_sbu_0, # of connection points: 4
#     Node 7, Type 0, BuildingBlock: KUFVIS_clean_sbu_0, # of connection points: 4
#     Node 8, Type 0, BuildingBlock: KUFVIS_clean_sbu_0, # of connection points: 4
#     Node 9, Type 0, BuildingBlock: KUFVIS_clean_sbu_0, # of connection points: 4
#     Node 10, Type 0, BuildingBlock: KUFVIS_clean_sbu_0, # of connection points: 4
#     Node 11, Type 0, BuildingBlock: KUFVIS_clean_sbu_0, # of connection points: 4
#     Node 12, Type 0, BuildingBlock: KUFVIS_clean_sbu_0, # of connection points: 4
#     Node 13, Type 0, BuildingBlock: KUFVIS_clean_sbu_0, # of connection points: 4
#     Node 14, Type 0, BuildingBlock: KUFVIS_clean_sbu_0, # of connection points: 4
#     Node 15, Type 0, BuildingBlock: KUFVIS_clean_sbu_0, # of connection points: 4
#     Node 16, Type 0, BuildingBlock: KUFVIS_clean_sbu_0, # of connection points: 4
#     Node 17, Type 0, BuildingBlock: KUFVIS_clean_sbu_0, # of connection points: 4
#     Node 18, Type 0, BuildingBlock: KUFVIS_clean_sbu_0, # of connection points: 4
#     Node 19, Type 0, BuildingBlock: KUFVIS_clean_sbu_0, # of connection points: 4
#     Node 20, Type 0, BuildingBlock: KUFVIS_clean_sbu_0, # of connection points: 4
#     Node 21, Type 0, BuildingBlock: KUFVIS_clean_sbu_0, # of connection points: 4
#     Node 22, Type 0, BuildingBlock: KUFVIS_clean_sbu_0, # of connection points: 4
#     Node 23, Type 0, BuildingBlock: KUFVIS_clean_sbu_0, # of connection points: 4
#     Node 24, Type 0, BuildingBlock: KUFVIS_clean_sbu_0, # of connection points: 4
#     Node 25, Type 0, BuildingBlock: KUFVIS_clean_sbu_0, # of connection points: 4
#     Node 26, Type 0, BuildingBlock: KUFVIS_clean_sbu_0, # of connection points: 4
#     Node 27, Type 0, BuildingBlock: KUFVIS_clean_sbu_0, # of connection points: 4
#     Node 28, Type 0, BuildingBlock: KUFVIS_clean_sbu_0, # of connection points: 4
#     Node 29, Type 0, BuildingBlock: KUFVIS_clean_sbu_0, # of connection points: 4
#     Node 30, Type 0, BuildingBlock: KUFVIS_clean_sbu_0, # of connection points: 4
#     Node 31, Type 0, BuildingBlock: KUFVIS_clean_sbu_0, # of connection points: 4
#     Edge 32, Type (0, 0), BuildingBlock: UVAHIK_clean_linker_0, # of connection points: 2
#     Edge 33, Type (0, 0), BuildingBlock: UVAHIK_clean_linker_0, # of connection points: 2
#     Edge 34, Type (0, 0), BuildingBlock: UVAHIK_clean_linker_0, # of connection points: 2
#     Edge 35, Type (0, 0), BuildingBlock: UVAHIK_clean_linker_0, # of connection points: 2
#     Edge 36, Type (0, 0), BuildingBlock: UVAHIK_clean_linker_0, # of connection points: 2
#     Edge 37, Type (0, 0), BuildingBlock: UVAHIK_clean_linker_0, # of connection points: 2
#     Edge 38, Type (0, 0), BuildingBlock: UVAHIK_clean_linker_0, # of connection points: 2
#     Edge 39, Type (0, 0), BuildingBlock: UVAHIK_clean_linker_0, # of connection points: 2
#     Edge 40, Type (0, 0), BuildingBlock: UVAHIK_clean_linker_0, # of connection points: 2
#     Edge 41, Type (0, 0), BuildingBlock: UVAHIK_clean_linker_0, # of connection points: 2
#     Edge 42, Type (0, 0), BuildingBlock: UVAHIK_clean_linker_0, # of connection points: 2
#     Edge 43, Type (0, 0), BuildingBlock: UVAHIK_clean_linker_0, # of connection points: 2
#     Edge 44, Type (0, 0), BuildingBlock: UVAHIK_clean_linker_0, # of connection points: 2
#     Edge 45, Type (0, 0), BuildingBlock: UVAHIK_clean_linker_0, # of connection points: 2
#     Edge 46, Type (0, 0), BuildingBlock: UVAHIK_clean_linker_0, # of connection points: 2
#     Edge 47, Type (0, 0), BuildingBlock: UVAHIK_clean_linker_0, # of connection points: 2
#     Edge 48, Type (0, 0), BuildingBlock: UVAHIK_clean_linker_0, # of connection points: 2
#     Edge 49, Type (0, 0), BuildingBlock: UVAHIK_clean_linker_0, # of connection points: 2
#     Edge 50, Type (0, 0), BuildingBlock: UVAHIK_clean_linker_0, # of connection points: 2
#     Edge 51, Type (0, 0), BuildingBlock: UVAHIK_clean_linker_0, # of connection points: 2
#     Edge 52, Type (0, 0), BuildingBlock: UVAHIK_clean_linker_0, # of connection points: 2
#     Edge 53, Type (0, 0), BuildingBlock: UVAHIK_clean_linker_0, # of connection points: 2
#     Edge 54, Type (0, 0), BuildingBlock: UVAHIK_clean_linker_0, # of connection points: 2
#     Edge 55, Type (0, 0), BuildingBlock: UVAHIK_clean_linker_0, # of connection points: 2
#     Edge 56, Type (0, 0), BuildingBlock: UVAHIK_clean_linker_0, # of connection points: 2
#     Edge 57, Type (0, 0), BuildingBlock: UVAHIK_clean_linker_0, # of connection points: 2
#     Edge 58, Type (0, 0), BuildingBlock: UVAHIK_clean_linker_0, # of connection points: 2
#     Edge 59, Type (0, 0), BuildingBlock: UVAHIK_clean_linker_0, # of connection points: 2
#     Edge 60, Type (0, 0), BuildingBlock: UVAHIK_clean_linker_0, # of connection points: 2
#     Edge 61, Type (0, 0), BuildingBlock: UVAHIK_clean_linker_0, # of connection points: 2
#     Edge 62, Type (0, 0), BuildingBlock: UVAHIK_clean_linker_0, # of connection points: 2
#     Edge 63, Type (0, 0), BuildingBlock: UVAHIK_clean_linker_0, # of connection points: 2
#     Edge 64, Type (0, 0), BuildingBlock: UVAHIK_clean_linker_0, # of connection points: 2
#     Edge 65, Type (0, 0), BuildingBlock: UVAHIK_clean_linker_0, # of connection points: 2
#     Edge 66, Type (0, 0), BuildingBlock: UVAHIK_clean_linker_0, # of connection points: 2
#     Edge 67, Type (0, 0), BuildingBlock: UVAHIK_clean_linker_0, # of connection points: 2
#     Edge 68, Type (0, 0), BuildingBlock: UVAHIK_clean_linker_0, # of connection points: 2
#     Edge 69, Type (0, 0), BuildingBlock: UVAHIK_clean_linker_0, # of connection points: 2
#     Edge 70, Type (0, 0), BuildingBlock: UVAHIK_clean_linker_0, # of connection points: 2
#     Edge 71, Type (0, 0), BuildingBlock: UVAHIK_clean_linker_0, # of connection points: 2
#     Edge 72, Type (0, 0), BuildingBlock: UVAHIK_clean_linker_0, # of connection points: 2
#     Edge 73, Type (0, 0), BuildingBlock: UVAHIK_clean_linker_0, # of connection points: 2
#     Edge 74, Type (0, 0), BuildingBlock: UVAHIK_clean_linker_0, # of connection points: 2
#     Edge 75, Type (0, 0), BuildingBlock: UVAHIK_clean_linker_0, # of connection points: 2
#     Edge 76, Type (0, 0), BuildingBlock: UVAHIK_clean_linker_0, # of connection points: 2
#     Edge 77, Type (0, 0), BuildingBlock: UVAHIK_clean_linker_0, # of connection points: 2
#     Edge 78, Type (0, 0), BuildingBlock: UVAHIK_clean_linker_0, # of connection points: 2
#     Edge 79, Type (0, 0), BuildingBlock: UVAHIK_clean_linker_0, # of connection points: 2
#     Edge 80, Type (0, 0), BuildingBlock: UVAHIK_clean_linker_0, # of connection points: 2
#     Edge 81, Type (0, 0), BuildingBlock: UVAHIK_clean_linker_0, # of connection points: 2
#     Edge 82, Type (0, 0), BuildingBlock: UVAHIK_clean_linker_0, # of connection points: 2
#     Edge 83, Type (0, 0), BuildingBlock: UVAHIK_clean_linker_0, # of connection points: 2
#     Edge 84, Type (0, 0), BuildingBlock: UVAHIK_clean_linker_0, # of connection points: 2
#     Edge 85, Type (0, 0), BuildingBlock: UVAHIK_clean_linker_0, # of connection points: 2
#     Edge 86, Type (0, 0), BuildingBlock: UVAHIK_clean_linker_0, # of connection points: 2
#     Edge 87, Type (0, 0), BuildingBlock: UVAHIK_clean_linker_0, # of connection points: 2
#     Edge 88, Type (0, 0), BuildingBlock: UVAHIK_clean_linker_0, # of connection points: 2
#     Edge 89, Type (0, 0), BuildingBlock: UVAHIK_clean_linker_0, # of connection points: 2
#     Edge 90, Type (0, 0), BuildingBlock: UVAHIK_clean_linker_0, # of connection points: 2
#     Edge 91, Type (0, 0), BuildingBlock: UVAHIK_clean_linker_0, # of connection points: 2
#     Edge 92, Type (0, 0), BuildingBlock: UVAHIK_clean_linker_0, # of connection points: 2
#     Edge 93, Type (0, 0), BuildingBlock: UVAHIK_clean_linker_0, # of connection points: 2
#     Edge 94, Type (0, 0), BuildingBlock: UVAHIK_clean_linker_0, # of connection points: 2
#     Edge 95, Type (0, 0), BuildingBlock: UVAHIK_clean_linker_0, # of connection points: 2
# Relax obj value: 0.105
# Max RMSD: 0.116
# Mean RMSD: 0.116
data_MOF--net-umr--node1-KUFVIS_clean_sbu_0--edge1-UVAHIK_clean_linker_0
_symmetry_space_group_name_H-M    P1
_symmetry_Int_Tables_number       1
_symmetry_cell_setting            triclinic
loop_
_symmetry_equiv_pos_as_xyz
'x, y, z'
_cell_length_a     109.54026
_cell_length_b     109.41849
_cell_length_c     33.111808
_cell_angle_alpha  90.010781
_cell_angle_beta   90.007822
_cell_angle_gamma 89.984667
loop_
_atom_site_label
_atom_site_type_symbol
_atom_site_fract_x
_atom_site_fract_y
_atom_site_fract_z
_atom_type_partial_charge
Mn0 Mn 0.16576 0.29433 0.02176 0.0
Mn1 Mn 0.1402 0.27859 -0.00033 0.0
C2 C 0.16052 0.29045 0.95528 0.0
C3 C 0.18669 0.2945 0.03442 0.0
C4 C 0.14013 0.30475 0.03107 0.0
O5 O 0.16171 0.28574 0.07485 0.0
O6 O 0.14585 0.27401 0.05455 0.0
C7 C 0.15001 0.25339 0.99669 0.0
N8 N 0.14417 0.26286 0.97824 0.0
C9 C 0.14176 0.25124 0.91703 0.0
C10 C 0.14768 0.24134 0.93546 0.0
C11 C 0.15184 0.24243 0.97544 0.0
C12 C 0.14011 0.2619 0.9398 0.0
H13 H 0.15328 0.25421 0.02733 0.0
C14 C 0.15373 0.27738 0.08099 0.0
O15 O 0.17978 0.30353 0.04569 0.0
O16 O 0.18137 0.28524 0.01758 0.0
N17 N 0.13422 0.28223 0.94668 0.0
C18 C 0.12955 0.29292 0.93233 0.0
C19 C 0.12544 0.29354 0.8922 0.0
C20 C 0.12616 0.28317 0.86729 0.0
C21 C 0.13098 0.27226 0.88276 0.0
C22 C 0.13486 0.27217 0.92306 0.0
H23 H 0.12902 0.30093 0.95129 0.0
O24 O 0.16766 0.29954 0.96384 0.0
O25 O 0.15648 0.28431 0.9859 0.0
O26 O 0.15167 0.30635 0.0308 0.0
O27 O 0.13507 0.29469 0.02087 0.0
C28 C 0.13233 0.26156 0.8595 0.0
C29 C 0.13772 0.25106 0.87661 0.0
H30 H 0.14921 0.23291 0.91906 0.0
H31 H 0.15649 0.23486 0.98979 0.0
H32 H 0.12178 0.30201 0.88043 0.0
H33 H 0.12308 0.28372 0.83625 0.0
H34 H 0.12943 0.26137 0.82823 0.0
H35 H 0.13891 0.24296 0.85821 0.0
Mn36 Mn 0.95458 0.91561 0.26921 0.0
Mn37 Mn 0.9699 0.88983 0.24589 0.0
C38 C 0.95823 0.91044 0.20253 0.0
C39 C 0.95458 0.93657 0.28198 0.0
C40 C 0.94379 0.89 0.27695 0.0
O41 O 0.96326 0.91142 0.32192 0.0
O42 O 0.97427 0.89505 0.30153 0.0
C43 C 0.99518 0.8994 0.24513 0.0
N44 N 0.98578 0.89375 0.22573 0.0
C45 C 0.9977 0.89161 0.16508 0.0
C46 C 0.00754 0.89733 0.18451 0.0
C47 C 0.00626 0.90126 0.22468 0.0
C48 C 0.98692 0.88992 0.18709 0.0
H49 H 0.99422 0.90251 0.27591 0.0
C50 C 0.97122 0.90305 0.32806 0.0
O51 O 0.94556 0.92969 0.29357 0.0
O52 O 0.96375 0.93118 0.26486 0.0
N53 N 0.96651 0.8842 0.19227 0.0
C54 C 0.95587 0.87975 0.17692 0.0
C55 C 0.95544 0.87589 0.13649 0.0
C56 C 0.96595 0.87664 0.11231 0.0
C57 C 0.9768 0.88124 0.12878 0.0
C58 C 0.97671 0.88487 0.16935 0.0
H59 H 0.94774 0.87923 0.19529 0.0
O60 O 0.9492 0.91762 0.21154 0.0
O61 O 0.96443 0.90628 0.23284 0.0
O62 O 0.94252 0.90158 0.27863 0.0
O63 O 0.95363 0.88476 0.26554 0.0
C64 C 0.98763 0.88264 0.10629 0.0
C65 C 0.99807 0.88782 0.12441 0.0
H66 H 0.01606 0.89888 0.16873 0.0
H67 H 0.01378 0.90575 0.23979 0.0
H68 H 0.94701 0.8724 0.12393 0.0
H69 H 0.96555 0.87377 0.08102 0.0
H70 H 0.98797 0.87994 0.07483 0.0
H71 H 0.00627 0.88905 0.1066 0.0
Mn72 Mn 0.33504 0.70602 0.5232 0.0
Mn73 Mn 0.36037 0.72213 0.50125 0.0
C74 C 0.34026 0.70993 0.45671 0.0
C75 C 0.31413 0.70552 0.53605 0.0
C76 C 0.36079 0.69605 0.53335 0.0
O77 O 0.33896 0.71474 0.57622 0.0
O78 O 0.35456 0.7268 0.55585 0.0
C79 C 0.35025 0.74718 0.49717 0.0
N80 N 0.35623 0.73773 0.47916 0.0
C81 C 0.35858 0.74916 0.41756 0.0
C82 C 0.3525 0.75904 0.43553 0.0
C83 C 0.3483 0.75804 0.47548 0.0
C84 C 0.36034 0.73861 0.44076 0.0
H85 H 0.34694 0.74642 0.52779 0.0
C86 C 0.34675 0.72329 0.58229 0.0
O87 O 0.3212 0.69662 0.54733 0.0
O88 O 0.31928 0.71484 0.51897 0.0
N89 N 0.3665 0.71838 0.44851 0.0
C90 C 0.37131 0.7077 0.43462 0.0
C91 C 0.37546 0.70698 0.39456 0.0
C92 C 0.37464 0.71726 0.36925 0.0
C93 C 0.36967 0.72816 0.38424 0.0
C94 C 0.36575 0.72835 0.42449 0.0
H95 H 0.37191 0.69976 0.45389 0.0
O96 O 0.33324 0.70074 0.46531 0.0
O97 O 0.34419 0.71614 0.48732 0.0
O98 O 0.3493 0.69423 0.5324 0.0
O99 O 0.36572 0.70619 0.52326 0.0
C100 C 0.3682 0.73875 0.36055 0.0
C101 C 0.36265 0.74925 0.37719 0.0
H102 H 0.35088 0.76739 0.41878 0.0
H103 H 0.34354 0.7656 0.48947 0.0
H104 H 0.37924 0.69852 0.38316 0.0
H105 H 0.37775 0.71663 0.33826 0.0
H106 H 0.37111 0.73887 0.3293 0.0
H107 H 0.36137 0.75726 0.35846 0.0
Mn108 Mn 0.54328 0.08671 0.76775 0.0
Mn109 Mn 0.52611 0.11212 0.75779 0.0
C110 C 0.53855 0.09428 0.70444 0.0
C111 C 0.54463 0.06546 0.77224 0.0
C112 C 0.55259 0.11256 0.78515 0.0
O113 O 0.53496 0.08811 0.82264 0.0
O114 O 0.52301 0.10464 0.81141 0.0
C115 C 0.50161 0.10072 0.75651 0.0
N116 N 0.51027 0.10776 0.73836 0.0
C117 C 0.49738 0.11105 0.68052 0.0
C118 C 0.4883 0.1039 0.69871 0.0
C119 C 0.49044 0.09869 0.73684 0.0
C120 C 0.50831 0.1128 0.70166 0.0
H121 H 0.50324 0.09664 0.78573 0.0
C122 C 0.52682 0.09582 0.83359 0.0
O123 O 0.5534 0.07243 0.78527 0.0
O124 O 0.53505 0.07085 0.75782 0.0
N125 N 0.52825 0.11998 0.70664 0.0
C126 C 0.53821 0.12602 0.69223 0.0
C127 C 0.53771 0.13148 0.65388 0.0
C128 C 0.52696 0.13071 0.63084 0.0
C129 C 0.51681 0.12449 0.64639 0.0
C130 C 0.51782 0.11931 0.68491 0.0
H131 H 0.5465 0.12661 0.70979 0.0
O132 O 0.54806 0.08735 0.70922 0.0
O133 O 0.53244 0.09673 0.73692 0.0
O134 O 0.55457 0.1011 0.78174 0.0
O135 O 0.54229 0.1175 0.7772 0.0
C136 C 0.5058 0.12305 0.62488 0.0
C137 C 0.49611 0.1163 0.64188 0.0
H138 H 0.47969 0.10225 0.68352 0.0
H139 H 0.4835 0.0931 0.75098 0.0
H140 H 0.54559 0.13623 0.64204 0.0
H141 H 0.52665 0.13483 0.60112 0.0
H142 H 0.50476 0.12694 0.59502 0.0
H143 H 0.48776 0.11509 0.62478 0.0
Mn144 Mn 0.1635 0.70687 0.47726 0.0
Mn145 Mn 0.13778 0.72357 0.48678 0.0
C146 C 0.15585 0.71165 0.54039 0.0
C147 C 0.18474 0.70592 0.47345 0.0
C148 C 0.13783 0.69692 0.46109 0.0
O149 O 0.16196 0.71498 0.4221 0.0
O150 O 0.14507 0.72644 0.43274 0.0
C151 C 0.14874 0.7483 0.48586 0.0
N152 N 0.1419 0.73964 0.50488 0.0
C153 C 0.13861 0.75286 0.56195 0.0
C154 C 0.14555 0.76194 0.54286 0.0
C155 C 0.15065 0.75964 0.50468 0.0
C156 C 0.13696 0.74176 0.54162 0.0
H157 H 0.15274 0.74655 0.45662 0.0
C158 C 0.15399 0.7228 0.41073 0.0
O159 O 0.178 0.69697 0.46045 0.0
O160 O 0.17913 0.71549 0.48711 0.0
N161 N 0.13007 0.72166 0.53829 0.0
C162 C 0.12422 0.7117 0.55358 0.0
C163 C 0.11887 0.71237 0.59206 0.0
C164 C 0.11957 0.72328 0.61436 0.0
C165 C 0.12559 0.73343 0.5979 0.0
C166 C 0.13065 0.73225 0.55926 0.0
H167 H 0.12369 0.70329 0.53661 0.0
O168 O 0.16293 0.70224 0.5359 0.0
O169 O 0.15329 0.71764 0.50776 0.0
O170 O 0.14934 0.69524 0.46369 0.0
O171 O 0.13268 0.70714 0.46893 0.0
C172 C 0.12696 0.74459 0.61862 0.0
C173 C 0.13349 0.75429 0.6007 0.0
H174 H 0.14712 0.77067 0.5574 0.0
H175 H 0.15608 0.76658 0.48985 0.0
H176 H 0.11427 0.70449 0.6046 0.0
H177 H 0.11555 0.72372 0.6442 0.0
H178 H 0.12317 0.74577 0.64858 0.0
H179 H 0.13463 0.76277 0.61719 0.0
Mn180 Mn 0.54552 0.91419 0.72526 0.0
Mn181 Mn 0.52915 0.88844 0.73953 0.0
C182 C 0.5402 0.90801 0.78962 0.0
C183 C 0.54621 0.93533 0.71618 0.0
C184 C 0.55596 0.88838 0.71609 0.0
O185 O 0.53795 0.91123 0.66994 0.0
O186 O 0.52655 0.89447 0.68358 0.0
C187 C 0.50417 0.89863 0.73384 0.0
N188 N 0.51285 0.89251 0.75524 0.0
C189 C 0.49924 0.89001 0.81169 0.0
C190 C 0.49014 0.89623 0.79017 0.0
C191 C 0.49262 0.90057 0.75109 0.0
C192 C 0.51055 0.88825 0.7928 0.0
H193 H 0.50606 0.90205 0.70389 0.0
C194 C 0.5303 0.90294 0.65982 0.0
O195 O 0.55536 0.92845 0.70583 0.0
O196 O 0.53661 0.92989 0.73022 0.0
N197 N 0.53085 0.88198 0.79298 0.0
C198 C 0.54089 0.87698 0.81075 0.0
C199 C 0.5401 0.87262 0.85056 0.0
C200 C 0.529 0.87344 0.87163 0.0
C201 C 0.51877 0.87859 0.85265 0.0
C202 C 0.52008 0.88268 0.81281 0.0
H203 H 0.54947 0.8764 0.79477 0.0
O204 O 0.54958 0.91506 0.7843 0.0
O205 O 0.5346 0.90454 0.75711 0.0
O206 O 0.55748 0.89995 0.71633 0.0
O207 O 0.54576 0.88328 0.72422 0.0
C208 C 0.50742 0.88008 0.87202 0.0
C209 C 0.49766 0.88578 0.85155 0.0
H210 H 0.48125 0.89784 0.80351 0.0
H211 H 0.48566 0.90544 0.73438 0.0
H212 H 0.54804 0.86871 0.86506 0.0
H213 H 0.52846 0.8702 0.90248 0.0
H214 H 0.50615 0.87706 0.90289 0.0
H215 H 0.48903 0.88705 0.86699 0.0
Mn216 Mn 0.33708 0.29311 0.97391 0.0
Mn217 Mn 0.36292 0.27736 0.99099 0.0
C218 C 0.34403 0.29003 0.0393 0.0
C219 C 0.31589 0.29323 0.96712 0.0
C220 C 0.36237 0.30297 0.95493 0.0
O221 O 0.33973 0.28371 0.92117 0.0
O222 O 0.35561 0.27171 0.93953 0.0
C223 C 0.35286 0.25254 0.00352 0.0
N224 N 0.35939 0.26225 0.01749 0.0
C225 C 0.36345 0.25201 0.08039 0.0
C226 C 0.35685 0.24186 0.06656 0.0
C227 C 0.35149 0.24215 0.02801 0.0
C228 C 0.36451 0.2621 0.05465 0.0
H229 H 0.34868 0.25275 0.974 0.0
C230 C 0.34721 0.27491 0.91469 0.0
O231 O 0.3225 0.30206 0.95264 0.0
O232 O 0.32162 0.28418 0.98378 0.0
N233 N 0.37049 0.28206 0.04076 0.0
C234 C 0.37581 0.29291 0.05069 0.0
C235 C 0.38121 0.29431 0.08889 0.0
C236 C 0.38111 0.28454 0.11641 0.0
C237 C 0.3756 0.27346 0.10549 0.0
C238 C 0.37041 0.27258 0.06694 0.0
H239 H 0.37592 0.30045 0.02967 0.0
O240 O 0.3367 0.29904 0.03155 0.0
O241 O 0.34721 0.28357 0.00839 0.0
O242 O 0.35096 0.30486 0.95936 0.0
O243 O 0.36755 0.29289 0.96438 0.0
C244 C 0.37486 0.26332 0.1316 0.0
C245 C 0.36883 0.25259 0.11901 0.0
H246 H 0.35572 0.23386 0.08544 0.0
H247 H 0.34631 0.23439 0.01723 0.0
H248 H 0.38541 0.3029 0.09713 0.0
H249 H 0.38521 0.28568 0.14593 0.0
H250 H 0.37877 0.26373 0.16161 0.0
H251 H 0.36822 0.2449 0.1395 0.0
Mn252 Mn 0.95621 0.08712 0.22689 0.0
Mn253 Mn 0.97218 0.11268 0.24723 0.0
C254 C 0.9598 0.09297 0.29303 0.0
C255 C 0.9559 0.06602 0.21688 0.0
C256 C 0.94624 0.11282 0.21402 0.0
O257 O 0.96518 0.09051 0.17396 0.0
O258 O 0.97703 0.10641 0.19331 0.0
C259 C 0.99718 0.10255 0.2531 0.0
N260 N 0.98768 0.10869 0.27024 0.0
C261 C 0.99884 0.11134 0.33226 0.0
C262 C 0.00876 0.10512 0.31517 0.0
C263 C 0.00792 0.10069 0.27543 0.0
C264 C 0.98841 0.11302 0.30842 0.0
H265 H 0.99654 0.09905 0.22269 0.0
C266 C 0.97369 0.09831 0.16753 0.0
O267 O 0.94701 0.07288 0.20412 0.0
O268 O 0.9651 0.07148 0.23353 0.0
N269 N 0.96827 0.11921 0.29931 0.0
C270 C 0.95755 0.12413 0.31239 0.0
C271 C 0.95667 0.12851 0.35216 0.0
C272 C 0.96681 0.12778 0.37803 0.0
C273 C 0.97775 0.12269 0.36388 0.0
C274 C 0.97811 0.11857 0.32386 0.0
H275 H 0.94971 0.12465 0.29271 0.0
O276 O 0.95065 0.08589 0.28466 0.0
O277 O 0.96613 0.09663 0.26234 0.0
O278 O 0.94445 0.1013 0.2155 0.0
O279 O 0.95632 0.11783 0.22429 0.0
C280 C 0.98821 0.12128 0.38822 0.0
C281 C 0.99875 0.11562 0.37242 0.0
H282 H 0.01702 0.10355 0.33243 0.0
H283 H 0.01551 0.09581 0.26212 0.0
H284 H 0.94818 0.13237 0.36292 0.0
H285 H 0.96606 0.13105 0.40881 0.0
H286 H 0.98818 0.12434 0.41933 0.0
H287 H 0.00666 0.11439 0.39164 0.0
Mn288 Mn 0.83799 0.70842 0.97642 0.0
Mn289 Mn 0.86354 0.72463 0.99404 0.0
C290 C 0.84498 0.71124 0.04181 0.0
C291 C 0.81682 0.708 0.96942 0.0
C292 C 0.86354 0.69903 0.95778 0.0
O293 O 0.8404 0.71801 0.92406 0.0
O294 O 0.85621 0.73008 0.94235 0.0
C295 C 0.8528 0.74919 0.00603 0.0
N296 N 0.8596 0.7397 0.02021 0.0
C297 C 0.86323 0.75011 0.0831 0.0
C298 C 0.85635 0.76005 0.06902 0.0
C299 C 0.85109 0.75957 0.03036 0.0
C300 C 0.86466 0.74004 0.05744 0.0
H301 H 0.84866 0.74883 0.97647 0.0
C302 C 0.8478 0.72685 0.91759 0.0
O303 O 0.82357 0.6993 0.95472 0.0
O304 O 0.82239 0.71704 0.98667 0.0
N305 N 0.87118 0.7202 0.04398 0.0
C306 C 0.87679 0.70953 0.05413 0.0
C307 C 0.88218 0.70834 0.09242 0.0
C308 C 0.88178 0.71815 0.11978 0.0
C309 C 0.87598 0.72905 0.10862 0.0
C310 C 0.87082 0.72973 0.06998 0.0
H311 H 0.87713 0.70196 0.03324 0.0
O312 O 0.83776 0.70217 0.0336 0.0
O313 O 0.84796 0.71803 0.01141 0.0
O314 O 0.85211 0.69701 0.96138 0.0
O315 O 0.86855 0.70914 0.96783 0.0
C316 C 0.87491 0.7392 0.13457 0.0
C317 C 0.86849 0.7497 0.12191 0.0
H318 H 0.85495 0.76803 0.0878 0.0
H319 H 0.84569 0.76716 0.0194 0.0
H320 H 0.88662 0.69988 0.10086 0.0
H321 H 0.88587 0.71716 0.14939 0.0
H322 H 0.87885 0.73897 0.16456 0.0
H323 H 0.86754 0.75735 0.14243 0.0
Mn324 Mn 0.04361 0.08587 0.72841 0.0
Mn325 Mn 0.02722 0.11165 0.74156 0.0
C326 C 0.03942 0.09303 0.79263 0.0
C327 C 0.04436 0.06467 0.72162 0.0
C328 C 0.05353 0.11155 0.71251 0.0
O329 O 0.03507 0.08799 0.67417 0.0
O330 O 0.02355 0.10467 0.68759 0.0
C331 C 0.00241 0.10094 0.74374 0.0
N332 N 0.01138 0.10761 0.7618 0.0
C333 C 0.99895 0.1109 0.82072 0.0
C334 C 0.98955 0.10414 0.80265 0.0
C335 C 0.9913 0.09912 0.76402 0.0
C336 C 0.0098 0.11246 0.79898 0.0
H337 H 0.00374 0.09702 0.71413 0.0
C338 C 0.02704 0.09595 0.66442 0.0
O339 O 0.05325 0.07152 0.70889 0.0
O340 O 0.03499 0.07016 0.7372 0.0
N341 N 0.02992 0.11907 0.79315 0.0
C342 C 0.04015 0.1247 0.80732 0.0
C343 C 0.04004 0.12992 0.84607 0.0
C344 C 0.02942 0.12933 0.86976 0.0
C345 C 0.01899 0.12353 0.85446 0.0
C346 C 0.01961 0.11857 0.81553 0.0
H347 H 0.04834 0.12516 0.78924 0.0
O348 O 0.0487 0.08587 0.78671 0.0
O349 O 0.03322 0.09593 0.76074 0.0
O350 O 0.05523 0.10003 0.71516 0.0
O351 O 0.04341 0.11672 0.72135 0.0
C352 C 0.00807 0.12229 0.87657 0.0
C353 C 0.99807 0.11595 0.85978 0.0
H354 H 0.981 0.10265 0.8183 0.0
H355 H 0.98412 0.09383 0.74997 0.0
H356 H 0.04814 0.13435 0.85771 0.0
H357 H 0.02941 0.13327 0.89978 0.0
H358 H 0.00731 0.12604 0.90674 0.0
H359 H 0.9898 0.11488 0.87734 0.0
Mn360 Mn 0.6639 0.29272 0.47571 0.0
Mn361 Mn 0.6383 0.27671 0.49453 0.0
C362 C 0.65725 0.28987 0.54144 0.0
C363 C 0.68502 0.29305 0.46727 0.0
C364 C 0.63836 0.30228 0.45814 0.0
O365 O 0.66114 0.28317 0.42342 0.0
O366 O 0.64536 0.27117 0.44254 0.0
C367 C 0.64882 0.25203 0.50607 0.0
N368 N 0.6422 0.26161 0.52056 0.0
C369 C 0.63867 0.25123 0.58355 0.0
C370 C 0.64537 0.24122 0.56918 0.0
C371 C 0.65049 0.24163 0.53031 0.0
C372 C 0.63727 0.26133 0.55798 0.0
H373 H 0.65284 0.25234 0.47632 0.0
C374 C 0.65365 0.27437 0.41731 0.0
O375 O 0.6782 0.30178 0.45312 0.0
O376 O 0.67953 0.28403 0.48491 0.0
N377 N 0.63093 0.28124 0.5448 0.0
C378 C 0.6255 0.29198 0.5552 0.0
C379 C 0.62027 0.29324 0.59371 0.0
C380 C 0.62065 0.28342 0.62103 0.0
C381 C 0.62627 0.27244 0.60961 0.0
C382 C 0.63128 0.27171 0.57078 0.0
H383 H 0.62518 0.29955 0.53432 0.0
O384 O 0.66447 0.29891 0.53295 0.0
O385 O 0.65404 0.28315 0.51112 0.0
O386 O 0.64979 0.30424 0.4615 0.0
O387 O 0.6333 0.29221 0.46837 0.0
C388 C 0.6273 0.26227 0.63549 0.0
C389 C 0.63354 0.2517 0.62255 0.0
H390 H 0.64674 0.23321 0.58788 0.0
H391 H 0.65575 0.23397 0.51911 0.0
H392 H 0.61598 0.30175 0.60234 0.0
H393 H 0.61668 0.28445 0.6508 0.0
H394 H 0.62346 0.26255 0.66561 0.0
H395 H 0.63447 0.24403 0.64301 0.0
Mn396 Mn 0.45654 0.91388 0.22645 0.0
Mn397 Mn 0.47278 0.88784 0.23599 0.0
C398 C 0.46184 0.90657 0.28957 0.0
C399 C 0.45581 0.93514 0.2217 0.0
C400 C 0.44603 0.88833 0.21191 0.0
O401 O 0.46418 0.91187 0.17068 0.0
O402 O 0.47545 0.89482 0.18135 0.0
C403 C 0.49784 0.89789 0.23249 0.0
N404 N 0.48908 0.89151 0.25265 0.0
C405 C 0.50258 0.88799 0.3088 0.0
C406 C 0.51177 0.89448 0.28855 0.0
C407 C 0.50938 0.89945 0.25024 0.0
C408 C 0.4913 0.88663 0.28943 0.0
H409 H 0.49602 0.9018 0.20314 0.0
C410 C 0.47178 0.9037 0.15913 0.0
O411 O 0.44671 0.92844 0.20975 0.0
O412 O 0.46542 0.92947 0.23464 0.0
N413 N 0.47096 0.88051 0.28813 0.0
C414 C 0.46084 0.87534 0.30487 0.0
C415 C 0.46153 0.87038 0.34393 0.0
C416 C 0.4726 0.87078 0.36531 0.0
C417 C 0.4829 0.87613 0.34741 0.0
C418 C 0.48169 0.88082 0.30827 0.0
H419 H 0.45229 0.8751 0.28866 0.0
O420 O 0.45245 0.91369 0.28557 0.0
O421 O 0.46741 0.90365 0.25644 0.0
O422 O 0.44454 0.89988 0.21457 0.0
O423 O 0.45618 0.88304 0.21934 0.0
C424 C 0.49422 0.87723 0.36724 0.0
C425 C 0.50407 0.88315 0.34793 0.0
H426 H 0.52064 0.89581 0.30231 0.0
H427 H 0.5164 0.90452 0.23451 0.0
H428 H 0.45353 0.86633 0.35761 0.0
H429 H 0.47306 0.86707 0.3956 0.0
H430 H 0.49541 0.87374 0.3976 0.0
H431 H 0.51267 0.88411 0.36374 0.0
Mn432 Mn 0.836 0.29366 0.51775 0.0
Mn433 Mn 0.86197 0.27818 0.50014 0.0
C434 C 0.84278 0.29053 0.45218 0.0
C435 C 0.81485 0.29352 0.52564 0.0
C436 C 0.86121 0.30382 0.53595 0.0
O437 O 0.83896 0.28441 0.57057 0.0
O438 O 0.85485 0.27246 0.55178 0.0
C439 C 0.8522 0.25322 0.48792 0.0
N440 N 0.85857 0.26301 0.47377 0.0
C441 C 0.86267 0.25277 0.41088 0.0
C442 C 0.85623 0.24255 0.42489 0.0
C443 C 0.85093 0.2428 0.46353 0.0
C444 C 0.86363 0.2629 0.43653 0.0
H445 H 0.84807 0.25339 0.51753 0.0
C446 C 0.84651 0.27565 0.57689 0.0
O447 O 0.82143 0.30247 0.53952 0.0
O448 O 0.82061 0.28453 0.50878 0.0
N449 N 0.86938 0.28295 0.45019 0.0
C450 C 0.87455 0.29386 0.44011 0.0
C451 C 0.87986 0.2953 0.40182 0.0
C452 C 0.87985 0.28551 0.37437 0.0
C453 C 0.8745 0.27436 0.38545 0.0
C454 C 0.86938 0.27345 0.42408 0.0
H455 H 0.87459 0.30141 0.46108 0.0
O456 O 0.83534 0.29946 0.45999 0.0
O457 O 0.84614 0.28418 0.4831 0.0
O458 O 0.84978 0.30561 0.53152 0.0
O459 O 0.86647 0.29377 0.52664 0.0
C460 C 0.87386 0.26419 0.35942 0.0
C461 C 0.86798 0.2534 0.37217 0.0
H462 H 0.85518 0.23452 0.40609 0.0
H463 H 0.84587 0.23498 0.47446 0.0
H464 H 0.88395 0.30394 0.39345 0.0
H465 H 0.8839 0.28668 0.34477 0.0
H466 H 0.87772 0.26463 0.32934 0.0
H467 H 0.86745 0.24568 0.35175 0.0
Mn468 Mn 0.45558 0.08557 0.27072 0.0
Mn469 Mn 0.47169 0.11083 0.24747 0.0
C470 C 0.45959 0.09043 0.20401 0.0
C471 C 0.45511 0.06469 0.28464 0.0
C472 C 0.44549 0.11145 0.27817 0.0
O473 O 0.46416 0.08977 0.32371 0.0
O474 O 0.47605 0.10545 0.30286 0.0
C475 C 0.49672 0.10064 0.2459 0.0
N476 N 0.48741 0.10653 0.22681 0.0
C477 C 0.49923 0.10846 0.16588 0.0
C478 C 0.50897 0.10249 0.18498 0.0
C479 C 0.5077 0.09855 0.22514 0.0
C480 C 0.48854 0.11038 0.18819 0.0
H481 H 0.49576 0.09754 0.27669 0.0
C482 C 0.47256 0.09772 0.32963 0.0
O483 O 0.44617 0.0718 0.29536 0.0
O484 O 0.46444 0.0698 0.26756 0.0
N485 N 0.46829 0.11659 0.19401 0.0
C486 C 0.45772 0.12133 0.17903 0.0
C487 C 0.45728 0.12523 0.13865 0.0
C488 C 0.4677 0.12424 0.11415 0.0
C489 C 0.47849 0.11936 0.13027 0.0
C490 C 0.47841 0.11569 0.17079 0.0
H491 H 0.44967 0.12206 0.19768 0.0
O492 O 0.4504 0.08345 0.21289 0.0
O493 O 0.46577 0.09453 0.23444 0.0
O494 O 0.44377 0.09991 0.27877 0.0
O495 O 0.45562 0.11632 0.26779 0.0
C496 C 0.48923 0.11773 0.10747 0.0
C497 C 0.49959 0.11228 0.12525 0.0
H498 H 0.51742 0.10075 0.16896 0.0
H499 H 0.51516 0.09386 0.24 0.0
H500 H 0.44891 0.12894 0.12637 0.0
H501 H 0.46729 0.12715 0.08292 0.0
H502 H 0.48955 0.12046 0.07604 0.0
H503 H 0.50772 0.11088 0.1072 0.0
Mn504 Mn 0.66599 0.70637 0.01927 0.0
Mn505 Mn 0.64012 0.72183 -0.00073 0.0
C506 C 0.65952 0.70902 0.95325 0.0
C507 C 0.68708 0.70642 0.02854 0.0
C508 C 0.6406 0.69629 0.03586 0.0
O509 O 0.66282 0.71589 0.07139 0.0
O510 O 0.64684 0.72752 0.05156 0.0
C511 C 0.65014 0.74672 0.9881 0.0
N512 N 0.64379 0.73699 0.97335 0.0
C513 C 0.64026 0.74729 0.9102 0.0
C514 C 0.64669 0.75745 0.92482 0.0
C515 C 0.65167 0.75715 0.9639 0.0
C516 C 0.639 0.73717 0.93573 0.0
H517 H 0.65404 0.7465 0.01803 0.0
C518 C 0.6551 0.72451 0.07718 0.0
O519 O 0.68037 0.69759 0.04252 0.0
O520 O 0.68149 0.71535 0.01066 0.0
N521 N 0.63305 0.71713 0.94871 0.0
C522 C 0.62788 0.70627 0.93813 0.0
C523 C 0.62281 0.7049 0.89942 0.0
C524 C 0.62308 0.71472 0.87209 0.0
C525 C 0.62843 0.72582 0.8837 0.0
C526 C 0.63328 0.72666 0.92272 0.0
H527 H 0.62764 0.6987 0.95902 0.0
O528 O 0.66691 0.70015 0.96214 0.0
O529 O 0.65607 0.71571 0.98335 0.0
O530 O 0.65208 0.69458 0.03296 0.0
O531 O 0.63536 0.70624 0.02531 0.0
C532 C 0.62932 0.736 0.85784 0.0
C533 C 0.63529 0.74671 0.871 0.0
H534 H 0.64795 0.76548 0.90617 0.0
H535 H 0.65671 0.76493 0.97531 0.0
H536 H 0.61874 0.6963 0.89064 0.0
H537 H 0.61924 0.7136 0.84216 0.0
H538 H 0.62559 0.73565 0.82758 0.0
H539 H 0.63612 0.75439 0.85057 0.0
Mn540 Mn 0.04173 0.91304 0.76638 0.0
Mn541 Mn 0.02494 0.88739 0.75673 0.0
C542 C 0.03709 0.90535 0.70316 0.0
C543 C 0.04279 0.93429 0.77067 0.0
C544 C 0.05144 0.88736 0.78392 0.0
O545 O 0.03345 0.91157 0.82127 0.0
O546 O 0.02172 0.89488 0.81027 0.0
C547 C 0.00027 0.89842 0.75534 0.0
N548 N 0.00903 0.8915 0.73724 0.0
C549 C 0.99623 0.88804 0.67928 0.0
C550 C 0.98704 0.89507 0.69741 0.0
C551 C 0.98908 0.9003 0.73558 0.0
C552 C 0.00717 0.88643 0.70052 0.0
H553 H 0.00182 0.90252 0.78457 0.0
C554 C 0.02541 0.90379 0.83231 0.0
O555 O 0.05165 0.92746 0.78374 0.0
O556 O 0.03326 0.92877 0.75636 0.0
N557 N 0.0272 0.87951 0.70565 0.0
C558 C 0.03726 0.8736 0.6913 0.0
C559 C 0.03686 0.86814 0.65294 0.0
C560 C 0.02612 0.86877 0.62981 0.0
C561 C 0.01587 0.87486 0.64529 0.0
C562 C 0.01678 0.88004 0.68384 0.0
H563 H 0.04554 0.87312 0.70891 0.0
O564 O 0.0465 0.91241 0.70784 0.0
O565 O 0.03103 0.90284 0.73568 0.0
O566 O 0.05324 0.89884 0.78039 0.0
O567 O 0.04121 0.88226 0.77615 0.0
C568 C 0.00487 0.87617 0.62368 0.0
C569 C 0.99507 0.88278 0.64062 0.0
H570 H 0.97843 0.89661 0.68215 0.0
H571 H 0.98205 0.90579 0.74967 0.0
H572 H 0.04482 0.86349 0.64115 0.0
H573 H 0.02589 0.86465 0.60007 0.0
H574 H 0.0039 0.87227 0.59378 0.0
H575 H 0.98672 0.88389 0.62344 0.0
Mn576 Mn 0.66399 0.792 0.51902 0.0
Mn577 Mn 0.638 0.77649 0.5017 0.0
C578 C 0.65693 0.78927 0.45367 0.0
C579 C 0.68516 0.79198 0.52583 0.0
C580 C 0.63876 0.80201 0.53839 0.0
O581 O 0.66135 0.78246 0.5714 0.0
O582 O 0.64527 0.77071 0.55312 0.0
C583 C 0.64795 0.75162 0.48891 0.0
N584 N 0.64146 0.76138 0.47503 0.0
C585 C 0.63759 0.75131 0.41168 0.0
C586 C 0.64415 0.74112 0.42543 0.0
C587 C 0.64937 0.74129 0.46419 0.0
C588 C 0.63642 0.76132 0.43775 0.0
H589 H 0.65206 0.75176 0.51853 0.0
C590 C 0.65376 0.77376 0.57786 0.0
O591 O 0.67859 0.8008 0.54062 0.0
O592 O 0.6794 0.78303 0.50871 0.0
N593 N 0.63047 0.78128 0.45197 0.0
C594 C 0.62521 0.79217 0.44215 0.0
C595 C 0.61993 0.79367 0.40383 0.0
C596 C 0.62007 0.78396 0.37606 0.0
C597 C 0.62553 0.77284 0.38686 0.0
C598 C 0.63058 0.77185 0.42557 0.0
H599 H 0.62509 0.79967 0.46333 0.0
O600 O 0.66434 0.79819 0.46177 0.0
O601 O 0.65376 0.78263 0.48422 0.0
O602 O 0.6502 0.80377 0.53412 0.0
O603 O 0.63346 0.79203 0.52856 0.0
C604 C 0.62635 0.76278 0.36045 0.0
C605 C 0.63242 0.75204 0.37278 0.0
H606 H 0.64535 0.73317 0.40634 0.0
H607 H 0.65452 0.7335 0.47491 0.0
H608 H 0.61578 0.8023 0.39566 0.0
H609 H 0.61608 0.78519 0.34641 0.0
H610 H 0.6225 0.76326 0.33036 0.0
H611 H 0.6332 0.74445 0.35193 0.0
Mn612 Mn 0.45648 0.41449 0.76696 0.0
Mn613 Mn 0.47338 0.38893 0.75577 0.0
C614 C 0.46155 0.40743 0.70333 0.0
C615 C 0.45537 0.43568 0.77354 0.0
C616 C 0.44666 0.38859 0.78026 0.0
O617 O 0.46434 0.41247 0.82232 0.0
O618 O 0.47603 0.3958 0.81055 0.0
C619 C 0.498 0.40006 0.75854 0.0
N620 N 0.48947 0.39329 0.73866 0.0
C621 C 0.50295 0.39035 0.68211 0.0
C622 C 0.5119 0.39723 0.70208 0.0
C623 C 0.5094 0.40212 0.74043 0.0
C624 C 0.49176 0.38856 0.70172 0.0
H625 H 0.4961 0.40389 0.78794 0.0
C626 C 0.47221 0.4045 0.83324 0.0
O627 O 0.44641 0.42873 0.7851 0.0
O628 O 0.46499 0.4303 0.75937 0.0
N629 N 0.4717 0.38159 0.70357 0.0
C630 C 0.46185 0.37577 0.68744 0.0
C631 C 0.46273 0.37061 0.6487 0.0
C632 C 0.47372 0.37146 0.62705 0.0
C633 C 0.48376 0.37744 0.64438 0.0
C634 C 0.48237 0.38232 0.68321 0.0
H635 H 0.45337 0.3751 0.70395 0.0
O636 O 0.45211 0.41445 0.70808 0.0
O637 O 0.46742 0.4046 0.73595 0.0
O638 O 0.4449 0.40012 0.77846 0.0
O639 O 0.45694 0.38357 0.77257 0.0
C640 C 0.49502 0.37892 0.62439 0.0
C641 C 0.50459 0.38541 0.64318 0.0
H642 H 0.52069 0.3989 0.68812 0.0
H643 H 0.51624 0.40749 0.75595 0.0
H644 H 0.45493 0.36603 0.6355 0.0
H645 H 0.47433 0.36757 0.59703 0.0
H646 H 0.49636 0.37525 0.59434 0.0
H647 H 0.51313 0.38665 0.62725 0.0
Mn648 Mn 0.83577 0.2067 0.0172 0.0
Mn649 Mn 0.86105 0.22329 -0.00109 0.0
C650 C 0.84218 0.21018 0.95156 0.0
C651 C 0.81466 0.20594 0.02601 0.0
C652 C 0.86159 0.19735 0.0322 0.0
O653 O 0.83848 0.21584 0.07026 0.0
O654 O 0.85423 0.228 0.05213 0.0
C655 C 0.85006 0.24792 0.99181 0.0
N656 N 0.85674 0.23866 0.97544 0.0
C657 C 0.85972 0.24996 0.91389 0.0
C658 C 0.85294 0.25965 0.93019 0.0
C659 C 0.84807 0.25861 0.96928 0.0
C660 C 0.86144 0.23955 0.93781 0.0
H661 H 0.84625 0.24713 0.02177 0.0
C662 C 0.84601 0.22454 0.07723 0.0
O663 O 0.82165 0.19721 0.03925 0.0
O664 O 0.81998 0.2152 0.00915 0.0
N665 N 0.86822 0.2196 0.94759 0.0
C666 C 0.87383 0.20913 0.9353 0.0
C667 C 0.87887 0.20851 0.89635 0.0
C668 C 0.87813 0.21868 0.87054 0.0
C669 C 0.87235 0.22937 0.88391 0.0
C670 C 0.86755 0.22947 0.9231 0.0
H671 H 0.87442 0.20129 0.95502 0.0
O672 O 0.83515 0.20095 0.95952 0.0
O673 O 0.84535 0.21675 0.98231 0.0
O674 O 0.85013 0.19532 0.02999 0.0
O675 O 0.86645 0.20754 0.02231 0.0
C676 C 0.87098 0.23986 0.85965 0.0
C677 C 0.86462 0.25013 0.87455 0.0
H678 H 0.85132 0.26788 0.91282 0.0
H679 H 0.84277 0.26602 0.98198 0.0
H680 H 0.88329 0.20022 0.88622 0.0
H681 H 0.88195 0.21813 0.84042 0.0
H682 H 0.87464 0.24007 0.82927 0.0
H683 H 0.86344 0.25805 0.85534 0.0
Mn684 Mn 0.043 0.5867 0.2668 0.0
Mn685 Mn 0.02631 0.61243 0.25735 0.0
C686 C 0.03858 0.59459 0.20368 0.0
C687 C 0.044 0.56544 0.27022 0.0
C688 C 0.05269 0.6123 0.28574 0.0
O689 O 0.03453 0.58804 0.32145 0.0
O690 O 0.02288 0.6048 0.31051 0.0
C691 C 0.00161 0.6015 0.25461 0.0
N692 N 0.01047 0.60844 0.23707 0.0
C693 C 0.9979 0.61209 0.17869 0.0
C694 C 0.98862 0.60505 0.19623 0.0
C695 C 0.99049 0.59972 0.23433 0.0
C696 C 0.00876 0.61361 0.20043 0.0
H697 H 0.00304 0.59733 0.28379 0.0
C698 C 0.02648 0.59583 0.33243 0.0
O699 O 0.05283 0.5722 0.28396 0.0
O700 O 0.03453 0.57104 0.25585 0.0
N701 N 0.02879 0.62044 0.2066 0.0
C702 C 0.03893 0.62632 0.19282 0.0
C703 C 0.0387 0.63186 0.15458 0.0
C704 C 0.02805 0.63133 0.13098 0.0
C705 C 0.01772 0.62526 0.14587 0.0
C706 C 0.01845 0.62 0.18434 0.0
H707 H 0.04715 0.62671 0.21079 0.0
O708 O 0.04797 0.5875 0.20846 0.0
O709 O 0.03243 0.59703 0.23608 0.0
O710 O 0.05449 0.60083 0.28179 0.0
O711 O 0.0425 0.61745 0.27768 0.0
C712 C 0.00679 0.62404 0.12375 0.0
C713 C 0.9969 0.61743 0.14011 0.0
H714 H 0.98006 0.60357 0.18056 0.0
H715 H 0.98339 0.59421 0.24797 0.0
H716 H 0.04672 0.63649 0.14324 0.0
H717 H 0.02795 0.63551 0.10133 0.0
H718 H 0.00596 0.628 0.0939 0.0
H719 H 0.98863 0.61639 0.12254 0.0
Mn720 Mn 0.66396 0.20679 0.97526 0.0
Mn721 Mn 0.63857 0.22298 0.99589 0.0
C722 C 0.65777 0.20976 0.04142 0.0
C723 C 0.68506 0.20636 0.96589 0.0
C724 C 0.63819 0.19724 0.96084 0.0
O725 O 0.66094 0.21624 0.92299 0.0
O726 O 0.64513 0.22811 0.94273 0.0
C727 C 0.64938 0.24765 0.00437 0.0
N728 N 0.64283 0.23823 0.02029 0.0
C729 C 0.63999 0.2491 0.08279 0.0
C730 C 0.64662 0.25895 0.06694 0.0
C731 C 0.65136 0.2582 0.02759 0.0
C732 C 0.63827 0.23883 0.05818 0.0
H733 H 0.65311 0.24709 0.97425 0.0
C734 C 0.65329 0.22492 0.91704 0.0
O735 O 0.67817 0.19763 0.95214 0.0
O736 O 0.67964 0.21545 0.9834 0.0
N737 N 0.63166 0.21889 0.04725 0.0
C738 C 0.62621 0.20828 0.05902 0.0
C739 C 0.62134 0.20736 0.09813 0.0
C740 C 0.62207 0.21736 0.12464 0.0
C741 C 0.62768 0.2282 0.11179 0.0
C742 C 0.63232 0.2286 0.07241 0.0
H743 H 0.62562 0.20057 0.03878 0.0
O744 O 0.66487 0.20067 0.03248 0.0
O745 O 0.65441 0.2165 0.01131 0.0
O746 O 0.64968 0.19533 0.96226 0.0
O747 O 0.63326 0.20732 0.97165 0.0
C748 C 0.62904 0.23854 0.13675 0.0
C749 C 0.63524 0.24896 0.12233 0.0
H750 H 0.64824 0.26708 0.08484 0.0
H751 H 0.65657 0.26573 0.01525 0.0
H752 H 0.61705 0.19896 0.10787 0.0
H753 H 0.61838 0.21659 0.15488 0.0
H754 H 0.62549 0.23852 0.16727 0.0
H755 H 0.63642 0.25677 0.14207 0.0
Mn756 Mn 0.04501 0.41427 0.22445 0.0
Mn757 Mn 0.0287 0.3885 0.23866 0.0
C758 C 0.03988 0.40798 0.28887 0.0
C759 C 0.04575 0.43538 0.21521 0.0
C760 C 0.05535 0.38854 0.21315 0.0
O761 O 0.03723 0.41138 0.16938 0.0
O762 O 0.02565 0.39476 0.18327 0.0
C763 C 0.00365 0.3986 0.23571 0.0
N764 N 0.01254 0.39244 0.25605 0.0
C765 C 0.99942 0.38965 0.31361 0.0
C766 C 0.99011 0.39592 0.29319 0.0
C767 C 0.99224 0.40042 0.25409 0.0
C768 C 0.01056 0.38802 0.29362 0.0
H769 H 0.00528 0.40214 0.20574 0.0
C770 C 0.02941 0.40323 0.15951 0.0
O771 O 0.05483 0.42844 0.20461 0.0
O772 O 0.03618 0.43002 0.22985 0.0
N773 N 0.03089 0.38184 0.29165 0.0
C774 C 0.0411 0.37685 0.30832 0.0
C775 C 0.04067 0.37236 0.34802 0.0
C776 C 0.02974 0.37304 0.37013 0.0
C777 C 0.01934 0.3782 0.3523 0.0
C778 C 0.02029 0.38243 0.31251 0.0
H779 H 0.04954 0.37638 0.29152 0.0
O780 O 0.04925 0.41505 0.28341 0.0
O781 O 0.03422 0.40456 0.25644 0.0
O782 O 0.05693 0.40009 0.21474 0.0
O783 O 0.04518 0.3834 0.22136 0.0
C784 C 0.00814 0.37956 0.37277 0.0
C785 C 0.99819 0.38528 0.35343 0.0
H786 H 0.98133 0.39744 0.30741 0.0
H787 H 0.98513 0.40532 0.23822 0.0
H788 H 0.04875 0.36844 0.36164 0.0
H789 H 0.02948 0.36969 0.4009 0.0
H790 H 0.00715 0.37642 0.40362 0.0
H791 H 0.98969 0.38645 0.36971 0.0
Mn792 Mn 0.83578 0.79364 0.47525 0.0
Mn793 Mn 0.86175 0.77858 0.49764 0.0
C794 C 0.84181 0.7911 0.54173 0.0
C795 C 0.81476 0.7934 0.46459 0.0
C796 C 0.86125 0.80423 0.46224 0.0
O797 O 0.83936 0.78417 0.42354 0.0
O798 O 0.8558 0.77328 0.44378 0.0
C799 C 0.85188 0.75349 0.50473 0.0
N800 N 0.85794 0.76312 0.52137 0.0
C801 C 0.86078 0.75223 0.58381 0.0
C802 C 0.85466 0.74216 0.56723 0.0
C803 C 0.85016 0.74281 0.52756 0.0
C804 C 0.86226 0.76262 0.55958 0.0
H805 H 0.84834 0.75396 0.47435 0.0
C806 C 0.84753 0.77599 0.41781 0.0
O807 O 0.82148 0.80227 0.45095 0.0
O808 O 0.82031 0.78453 0.4829 0.0
N809 N 0.86814 0.78283 0.54962 0.0
C810 C 0.87308 0.79362 0.56206 0.0
C811 C 0.87766 0.79464 0.60154 0.0
C812 C 0.87717 0.78455 0.62772 0.0
C813 C 0.87207 0.77353 0.61421 0.0
C814 C 0.8677 0.77304 0.5745 0.0
H815 H 0.87346 0.80141 0.54209 0.0
O816 O 0.83443 0.79992 0.53216 0.0
O817 O 0.84555 0.78439 0.51203 0.0
O818 O 0.84967 0.80552 0.46223 0.0
O819 O 0.86662 0.79451 0.47422 0.0
C820 C 0.87096 0.76308 0.6388 0.0
C821 C 0.86527 0.75246 0.62368 0.0
H822 H 0.85325 0.73394 0.58481 0.0
H823 H 0.84535 0.73511 0.51464 0.0
H824 H 0.88154 0.80319 0.61179 0.0
H825 H 0.88063 0.7854 0.65824 0.0
H826 H 0.87432 0.76316 0.66957 0.0
H827 H 0.86428 0.74457 0.64314 0.0
Mn828 Mn 0.45699 0.58695 0.72394 0.0
Mn829 Mn 0.4734 0.61283 0.73476 0.0
C830 C 0.46256 0.59377 0.78738 0.0
C831 C 0.45612 0.56574 0.71716 0.0
C832 C 0.44654 0.61264 0.71202 0.0
O833 O 0.46441 0.58932 0.66807 0.0
O834 O 0.47585 0.60621 0.67949 0.0
C835 C 0.49839 0.60266 0.72948 0.0
N836 N 0.48974 0.60896 0.75046 0.0
C837 C 0.50348 0.61204 0.80628 0.0
C838 C 0.51255 0.60564 0.78517 0.0
C839 C 0.50999 0.60092 0.74663 0.0
C840 C 0.49213 0.61359 0.78749 0.0
H841 H 0.49644 0.59895 0.69995 0.0
C842 C 0.47204 0.5975 0.6568 0.0
O843 O 0.44701 0.5726 0.70631 0.0
O844 O 0.46581 0.57124 0.73034 0.0
N845 N 0.47181 0.61982 0.78751 0.0
C846 C 0.46179 0.62495 0.80504 0.0
C847 C 0.46266 0.62966 0.84439 0.0
C848 C 0.47381 0.62906 0.86526 0.0
C849 C 0.48401 0.62377 0.84655 0.0
C850 C 0.48262 0.61933 0.80715 0.0
H851 H 0.45318 0.62536 0.78922 0.0
O852 O 0.45313 0.58671 0.78319 0.0
O853 O 0.46804 0.5969 0.75428 0.0
O854 O 0.44503 0.60108 0.71381 0.0
O855 O 0.45675 0.61784 0.71925 0.0
C856 C 0.49541 0.62248 0.86581 0.0
C857 C 0.50514 0.61663 0.84567 0.0
H858 H 0.52147 0.60417 0.79846 0.0
H859 H 0.51692 0.59591 0.73025 0.0
H860 H 0.45474 0.63369 0.85869 0.0
H861 H 0.47441 0.63258 0.89578 0.0
H862 H 0.49673 0.62578 0.89634 0.0
H863 H 0.5138 0.61552 0.86102 0.0
Mn864 Mn 0.33586 0.20632 0.47403 0.0
Mn865 Mn 0.36129 0.22264 0.49281 0.0
C866 C 0.34228 0.20957 0.53979 0.0
C867 C 0.31476 0.20573 0.46482 0.0
C868 C 0.36156 0.19686 0.45808 0.0
O869 O 0.33869 0.21561 0.42132 0.0
O870 O 0.35442 0.22772 0.44003 0.0
C871 C 0.35059 0.24734 0.50175 0.0
N872 N 0.35717 0.2379 0.51739 0.0
C873 C 0.3604 0.2488 0.57961 0.0
C874 C 0.3537 0.25866 0.56408 0.0
C875 C 0.34876 0.25791 0.52501 0.0
C876 C 0.36195 0.23851 0.55498 0.0
H877 H 0.34672 0.24678 0.4718 0.0
C878 C 0.34621 0.22435 0.41477 0.0
O879 O 0.32172 0.19701 0.45141 0.0
O880 O 0.3201 0.2149 0.4822 0.0
N881 N 0.36849 0.21856 0.54375 0.0
C882 C 0.37397 0.20794 0.55526 0.0
C883 C 0.37906 0.20703 0.59408 0.0
C884 C 0.3785 0.21705 0.62056 0.0
C885 C 0.37283 0.22789 0.608 0.0
C886 C 0.36797 0.22828 0.56891 0.0
H887 H 0.37444 0.20022 0.53503 0.0
O888 O 0.33517 0.20043 0.53155 0.0
O889 O 0.34552 0.21618 0.50924 0.0
O890 O 0.35011 0.19487 0.4609 0.0
O891 O 0.36651 0.207 0.46812 0.0
C892 C 0.37163 0.23825 0.63296 0.0
C893 C 0.36537 0.24868 0.61885 0.0
H894 H 0.35222 0.26681 0.58201 0.0
H895 H 0.34352 0.26546 0.51289 0.0
H896 H 0.38339 0.19862 0.6036 0.0
H897 H 0.38236 0.21628 0.65057 0.0
H898 H 0.37535 0.23824 0.66326 0.0
H899 H 0.36432 0.2565 0.6386 0.0
Mn900 Mn 0.54608 0.58547 0.22375 0.0
Mn901 Mn 0.52982 0.61138 0.23637 0.0
C902 C 0.54062 0.59197 0.28764 0.0
C903 C 0.54678 0.56429 0.21579 0.0
C904 C 0.55669 0.61118 0.21382 0.0
O905 O 0.53866 0.58821 0.16805 0.0
O906 O 0.52741 0.60515 0.18058 0.0
C907 C 0.50481 0.60132 0.23005 0.0
N908 N 0.51344 0.60748 0.25154 0.0
C909 C 0.49962 0.61034 0.30725 0.0
C910 C 0.49056 0.60408 0.28561 0.0
C911 C 0.49317 0.59955 0.24686 0.0
C912 C 0.51101 0.61193 0.28879 0.0
H913 H 0.5068 0.59776 0.20035 0.0
C914 C 0.53114 0.59655 0.1573 0.0
O915 O 0.55594 0.57112 0.20529 0.0
O916 O 0.53714 0.5698 0.22926 0.0
N917 N 0.53135 0.61805 0.2896 0.0
C918 C 0.54135 0.62306 0.30758 0.0
C919 C 0.54043 0.6276 0.34714 0.0
C920 C 0.52923 0.62695 0.36775 0.0
C921 C 0.51905 0.62179 0.34855 0.0
C922 C 0.5205 0.61751 0.30897 0.0
H923 H 0.54999 0.62351 0.29196 0.0
O924 O 0.54999 0.58485 0.28293 0.0
O925 O 0.53511 0.59531 0.25483 0.0
O926 O 0.55812 0.5996 0.21446 0.0
O927 O 0.54651 0.61639 0.22153 0.0
C928 C 0.50761 0.62047 0.36747 0.0
C929 C 0.4979 0.61476 0.34683 0.0
H930 H 0.48161 0.60259 0.29862 0.0
H931 H 0.48625 0.59466 0.23007 0.0
H932 H 0.54834 0.63152 0.36181 0.0
H933 H 0.52859 0.63033 0.39842 0.0
H934 H 0.50624 0.62364 0.39814 0.0
H935 H 0.4892 0.61362 0.36193 0.0
Mn936 Mn 0.16345 0.7946 0.97477 0.0
Mn937 Mn 0.13812 0.7785 0.99664 0.0
C938 C 0.15821 0.79068 0.04122 0.0
C939 C 0.1844 0.79494 0.96242 0.0
C940 C 0.13769 0.80462 0.9649 0.0
O941 O 0.15956 0.78593 0.92168 0.0
O942 O 0.14388 0.77394 0.94187 0.0
C943 C 0.14828 0.75345 1e-05 0.0
N944 N 0.14229 0.76285 0.0183 0.0
C945 C 0.14005 0.75129 0.07968 0.0
C946 C 0.14613 0.74146 0.06142 0.0
C947 C 0.15028 0.74255 0.02143 0.0
C948 C 0.13824 0.76189 0.05673 0.0
H949 H 0.15155 0.75427 0.96937 0.0
C950 C 0.15172 0.77745 0.91548 0.0
O951 O 0.17744 0.80392 0.951 0.0
O952 O 0.17911 0.78566 0.97922 0.0
N953 N 0.13203 0.78211 0.04952 0.0
C954 C 0.1272 0.79275 0.06371 0.0
C955 C 0.12309 0.79338 0.10383 0.0
C956 C 0.12396 0.78305 0.1289 0.0
C957 C 0.12895 0.77219 0.11361 0.0
C958 C 0.13282 0.7721 0.07331 0.0
H959 H 0.12656 0.80073 0.04462 0.0
O960 O 0.16523 0.79987 0.03268 0.0
O961 O 0.15428 0.78449 0.01058 0.0
O962 O 0.1492 0.80643 0.96545 0.0
O963 O 0.13278 0.79449 0.97514 0.0
C964 C 0.13047 0.76156 0.13704 0.0
C965 C 0.13602 0.75111 0.1201 0.0
H966 H 0.14779 0.73308 0.07795 0.0
H967 H 0.15504 0.73503 0.00721 0.0
H968 H 0.1193 0.80181 0.11546 0.0
H969 H 0.12089 0.78361 0.15993 0.0
H970 H 0.12759 0.76137 0.16833 0.0
H971 H 0.13734 0.74306 0.13864 0.0
Mn972 Mn 0.95603 0.41445 0.72504 0.0
Mn973 Mn 0.97231 0.38845 0.73524 0.0
C974 C 0.96146 0.40737 0.7883 0.0
C975 C 0.95523 0.4357 0.71961 0.0
C976 C 0.94545 0.3888 0.71269 0.0
O977 O 0.96353 0.41227 0.66917 0.0
O978 O 0.97468 0.39515 0.68005 0.0
C979 C 0.99731 0.39857 0.72964 0.0
N980 N 0.9887 0.39224 0.75065 0.0
C981 C 0.00254 0.38901 0.80609 0.0
C982 C 0.01158 0.39543 0.78494 0.0
C983 C 0.00895 0.40024 0.74657 0.0
C984 C 0.99115 0.38752 0.78752 0.0
H985 H 0.99531 0.40234 0.70025 0.0
C986 C 0.97102 0.40399 0.65763 0.0
O987 O 0.94612 0.42893 0.70809 0.0
O988 O 0.9649 0.43009 0.73242 0.0
N989 N 0.97082 0.38135 0.78786 0.0
C990 C 0.96083 0.37621 0.80548 0.0
C991 C 0.96177 0.37141 0.84469 0.0
C992 C 0.97296 0.37193 0.86532 0.0
C993 C 0.98313 0.37724 0.84651 0.0
C994 C 0.98167 0.38177 0.80725 0.0
H995 H 0.95218 0.37586 0.78985 0.0
O996 O 0.95205 0.41447 0.78419 0.0
O997 O 0.96701 0.40435 0.75521 0.0
O998 O 0.94403 0.40038 0.71414 0.0
O999 O 0.95561 0.38354 0.72009 0.0
C1000 C 0.99457 0.37846 0.86554 0.0
C1001 C 0.00427 0.38433 0.84532 0.0
H1002 H 0.02053 0.39685 0.79806 0.0
H1003 H 0.01586 0.40527 0.73016 0.0
H1004 H 0.95387 0.36737 0.85907 0.0
H1005 H 0.97362 0.36835 0.89574 0.0
H1006 H 0.99595 0.37509 0.89596 0.0
H1007 H 0.01297 0.38538 0.86051 0.0
Mn1008 Mn 0.33518 0.79382 0.02076 0.0
Mn1009 Mn 0.36091 0.77718 0.01062 0.0
C1010 C 0.34274 0.78915 0.95742 0.0
C1011 C 0.31395 0.79476 0.02526 0.0
C1012 C 0.36083 0.80377 0.03709 0.0
O1013 O 0.33682 0.78561 0.07576 0.0
O1014 O 0.35365 0.7741 0.06458 0.0
C1015 C 0.35005 0.75241 0.01062 0.0
N1016 N 0.35685 0.76116 0.99192 0.0
C1017 C 0.3602 0.74815 0.93437 0.0
C1018 C 0.3533 0.73897 0.95313 0.0
C1019 C 0.34819 0.74112 0.99139 0.0
C1020 C 0.3618 0.75919 0.9551 0.0
H1021 H 0.34605 0.75405 0.03994 0.0
C1022 C 0.34476 0.77771 0.0868 0.0
O1023 O 0.32073 0.80369 0.03817 0.0
O1024 O 0.31952 0.78523 0.01113 0.0
N1025 N 0.36859 0.7793 0.95916 0.0
C1026 C 0.37439 0.78935 0.94421 0.0
C1027 C 0.37972 0.78883 0.90569 0.0
C1028 C 0.37908 0.778 0.88301 0.0
C1029 C 0.37312 0.76776 0.89911 0.0
C1030 C 0.36806 0.76878 0.9378 0.0
H1031 H 0.37488 0.79771 0.96148 0.0
O1032 O 0.33565 0.79854 0.96217 0.0
O1033 O 0.34537 0.78312 0.98994 0.0
O1034 O 0.34932 0.80545 0.0343 0.0
O1035 O 0.36598 0.79356 0.02915 0.0
C1036 C 0.3718 0.75666 0.87799 0.0
C1037 C 0.36533 0.74687 0.89557 0.0
H1038 H 0.35177 0.73028 0.93828 0.0
H1039 H 0.3428 0.73411 0.00597 0.0
H1040 H 0.38428 0.79678 0.89342 0.0
H1041 H 0.3831 0.77767 0.85314 0.0
H1042 H 0.3756 0.7556 0.848 0.0
H1043 H 0.36422 0.73845 0.87878 0.0
Mn1044 Mn 0.95564 0.58598 0.7698 0.0
Mn1045 Mn 0.97214 0.61092 0.74581 0.0
C1046 C 0.95948 0.59075 0.70293 0.0
C1047 C 0.95492 0.5651 0.78377 0.0
C1048 C 0.94609 0.61203 0.77771 0.0
O1049 O 0.96448 0.59005 0.82242 0.0
O1050 O 0.97662 0.60546 0.80103 0.0
C1051 C 0.99697 0.60026 0.74315 0.0
N1052 N 0.98769 0.60631 0.72446 0.0
C1053 C 0.99931 0.60804 0.66304 0.0
C1054 C 0.00901 0.60188 0.68171 0.0
C1055 C 0.00783 0.59796 0.72192 0.0
C1056 C 0.98874 0.61015 0.68581 0.0
H1057 H 0.99607 0.59717 0.77398 0.0
C1058 C 0.97305 0.59783 0.828 0.0
O1059 O 0.94612 0.57234 0.79483 0.0
O1060 O 0.96425 0.57008 0.7663 0.0
N1061 N 0.96864 0.61674 0.69252 0.0
C1062 C 0.9581 0.62168 0.678 0.0
C1063 C 0.95757 0.62561 0.63765 0.0
C1064 C 0.96788 0.62443 0.61271 0.0
C1065 C 0.97863 0.61934 0.62835 0.0
C1066 C 0.97864 0.61565 0.66886 0.0
H1067 H 0.95014 0.62257 0.697 0.0
O1068 O 0.95021 0.58393 0.7122 0.0
O1069 O 0.96585 0.59475 0.73309 0.0
O1070 O 0.94412 0.60053 0.77832 0.0
O1071 O 0.95627 0.6167 0.76689 0.0
C1072 C 0.98925 0.61752 0.6051 0.0
C1073 C 0.99958 0.61187 0.62241 0.0
H1074 H 0.01736 0.6 0.66533 0.0
H1075 H 0.01525 0.59314 0.73646 0.0
H1076 H 0.94923 0.62948 0.62575 0.0
H1077 H 0.9674 0.62736 0.58151 0.0
H1078 H 0.98951 0.62026 0.57367 0.0
H1079 H 0.00761 0.61033 0.60401 0.0
Mn1080 Mn 0.16369 0.20658 0.51936 0.0
Mn1081 Mn 0.13789 0.22322 0.51149 0.0
C1082 C 0.15584 0.21164 0.45667 0.0
C1083 C 0.18495 0.20569 0.52283 0.0
C1084 C 0.13813 0.19649 0.53624 0.0
O1085 O 0.16227 0.21446 0.57494 0.0
O1086 O 0.1454 0.22603 0.56522 0.0
C1087 C 0.14861 0.24805 0.51252 0.0
N1088 N 0.14179 0.23936 0.49359 0.0
C1089 C 0.13793 0.25273 0.43734 0.0
C1090 C 0.14485 0.26185 0.45634 0.0
C1091 C 0.15023 0.25949 0.49405 0.0
C1092 C 0.1366 0.24153 0.45726 0.0
H1093 H 0.1528 0.24626 0.54145 0.0
C1094 C 0.15438 0.2223 0.5868 0.0
O1095 O 0.17825 0.19666 0.53542 0.0
O1096 O 0.17928 0.21528 0.5096 0.0
N1097 N 0.12998 0.22134 0.46031 0.0
C1098 C 0.12419 0.21134 0.445 0.0
C1099 C 0.11863 0.21206 0.40684 0.0
C1100 C 0.11905 0.22304 0.38492 0.0
C1101 C 0.12501 0.23323 0.4014 0.0
C1102 C 0.13032 0.23199 0.43967 0.0
H1103 H 0.12386 0.20287 0.4617 0.0
O1104 O 0.16298 0.20223 0.46045 0.0
O1105 O 0.15335 0.21744 0.48972 0.0
O1106 O 0.14963 0.19482 0.53278 0.0
O1107 O 0.13295 0.20674 0.52925 0.0
C1108 C 0.12607 0.24449 0.38109 0.0
C1109 C 0.1325 0.25424 0.3991 0.0
H1110 H 0.14618 0.27066 0.4421 0.0
H1111 H 0.15564 0.26646 0.50881 0.0
H1112 H 0.11407 0.20415 0.39429 0.0
H1113 H 0.11484 0.22353 0.35537 0.0
H1114 H 0.1221 0.24571 0.3514 0.0
H1115 H 0.13336 0.26282 0.383 0.0
Mn1116 Mn 0.54461 0.41364 0.26877 0.0
Mn1117 Mn 0.52833 0.38826 0.2484 0.0
C1118 C 0.54033 0.40822 0.20269 0.0
C1119 C 0.54517 0.43467 0.28022 0.0
C1120 C 0.55464 0.38779 0.27811 0.0
O1121 O 0.53619 0.40996 0.32246 0.0
O1122 O 0.52423 0.39412 0.30345 0.0
C1123 C 0.50333 0.39854 0.24702 0.0
N1124 N 0.51255 0.39247 0.22804 0.0
C1125 C 0.5005 0.39017 0.16772 0.0
C1126 C 0.49086 0.39633 0.18672 0.0
C1127 C 0.49229 0.40055 0.22651 0.0
C1128 C 0.51126 0.38835 0.18978 0.0
H1129 H 0.50442 0.40187 0.2775 0.0
C1130 C 0.5278 0.40208 0.32937 0.0
O1131 O 0.55413 0.42767 0.29151 0.0
O1132 O 0.53577 0.42938 0.26423 0.0
N1133 N 0.53149 0.38207 0.19532 0.0
C1134 C 0.54199 0.37717 0.1803 0.0
C1135 C 0.54227 0.37299 0.1402 0.0
C1136 C 0.53177 0.37387 0.11602 0.0
C1137 C 0.52107 0.37893 0.13217 0.0
C1138 C 0.5213 0.38286 0.17241 0.0
H1139 H 0.5501 0.37652 0.19869 0.0
O1140 O 0.54959 0.41521 0.21053 0.0
O1141 O 0.53426 0.4044 0.23377 0.0
O1142 O 0.5564 0.39933 0.27782 0.0
O1143 O 0.54446 0.38288 0.26847 0.0
C1144 C 0.51026 0.38047 0.10963 0.0
C1145 C 0.49999 0.38608 0.12739 0.0
H1146 H 0.48237 0.398 0.17088 0.0
H1147 H 0.48492 0.40538 0.24129 0.0
H1148 H 0.55058 0.36914 0.12791 0.0
H1149 H 0.53206 0.37074 0.08499 0.0
H1150 H 0.50982 0.37754 0.07841 0.0
H1151 H 0.49181 0.38741 0.10953 0.0
C1152 C 0.29568 0.28328 0.97753 0.0
C1153 C 0.30242 0.29386 0.96884 0.0
C1154 C 0.28317 0.28398 0.98521 0.0
C1155 C 0.25597 0.30426 0.97785 0.0
H1156 H 0.24384 0.28279 0.06201 0.0
C1157 C 0.2062 0.30643 0.03748 0.0
C1158 C 0.20015 0.29511 0.03632 0.0
C1159 C 0.21889 0.30701 0.03257 0.0
C1160 C 0.2471 0.28883 0.03845 0.0
H1161 H 0.30131 0.31344 0.95999 0.0
H1162 H 0.27946 0.31476 0.97429 0.0
H1163 H 0.26541 0.28241 0.0444 0.0
H1164 H 0.20264 0.27552 0.0312 0.0
H1165 H 0.22476 0.27651 0.02371 0.0
H1166 H 0.23755 0.31073 0.97245 0.0
C1167 C 0.28378 0.30586 0.97456 0.0
C1168 C 0.25945 0.28856 0.02806 0.0
C1169 C 0.29631 0.30512 0.96634 0.0
C1170 C 0.20706 0.28437 0.03226 0.0
C1171 C 0.21973 0.28493 0.02804 0.0
C1172 C 0.24361 0.30462 0.9886 0.0
C1173 C 0.27711 0.29532 0.98504 0.0
C1174 C 0.26402 0.2961 0.9971 0.0
C1175 C 0.22574 0.29626 0.02719 0.0
C1176 C 0.23903 0.29677 0.01857 0.0
H1177 H 0.30012 0.27445 0.97932 0.0
H1178 H 0.27829 0.27562 0.99193 0.0
H1179 H 0.25912 0.31013 0.95368 0.0
H1180 H 0.20109 0.31486 0.04028 0.0
H1181 H 0.22333 0.31585 0.03233 0.0
C1182 C 0.94275 0.95616 0.28582 0.0
C1183 C 0.95402 0.95005 0.28376 0.0
C1184 C 0.94218 0.96887 0.28083 0.0
C1185 C 0.96058 0.99701 0.2847 0.0
H1186 H 0.93836 0.00926 0.20294 0.0
C1187 C 0.96578 0.04562 0.22372 0.0
C1188 C 0.95516 0.05253 0.2172 0.0
C1189 C 0.96506 0.03308 0.23089 0.0
C1190 C 0.9445 0.00604 0.22624 0.0
H1191 H 0.97355 0.95247 0.27688 0.0
H1192 H 0.97258 0.9746 0.26918 0.0
H1193 H 0.93784 0.98765 0.22165 0.0
H1194 H 0.93548 0.05165 0.21141 0.0
H1195 H 0.93416 0.02971 0.22474 0.0
H1196 H 0.96721 0.01529 0.2898 0.0
C1197 C 0.96418 0.96961 0.27432 0.0
C1198 C 0.94419 0.99366 0.23698 0.0
C1199 C 0.96474 0.95693 0.27866 0.0
C1200 C 0.94383 0.04653 0.21607 0.0
C1201 C 0.94309 0.03396 0.22376 0.0
C1202 C 0.96082 0.00937 0.27429 0.0
C1203 C 0.95288 0.97568 0.27443 0.0
C1204 C 0.95236 0.98899 0.26586 0.0
C1205 C 0.95368 0.02714 0.23234 0.0
C1206 C 0.95295 0.01402 0.24439 0.0
H1207 H 0.93434 0.95108 0.28943 0.0
H1208 H 0.93336 0.97334 0.28136 0.0
H1209 H 0.96687 0.9937 0.30745 0.0
H1210 H 0.97466 0.04997 0.22441 0.0
H1211 H 0.97345 0.02808 0.2361 0.0
C1212 C 0.20412 0.69367 0.47573 0.0
C1213 C 0.19818 0.70505 0.47627 0.0
C1214 C 0.21663 0.69287 0.48415 0.0
C1215 C 0.2413 0.71057 0.53443 0.0
H1216 H 0.26294 0.6879 0.47993 0.0
C1217 C 0.29359 0.71533 0.53398 0.0
C1218 C 0.30069 0.70473 0.53857 0.0
C1219 C 0.28091 0.71455 0.53085 0.0
C1220 C 0.25696 0.69415 0.4958 0.0
H1221 H 0.20079 0.72456 0.48367 0.0
H1222 H 0.22257 0.72324 0.49679 0.0
H1223 H 0.24124 0.68819 0.4627 0.0
H1224 H 0.30006 0.68501 0.54457 0.0
H1225 H 0.27779 0.68363 0.53854 0.0
H1226 H 0.2571 0.71679 0.56652 0.0
C1227 C 0.21756 0.71486 0.49139 0.0
C1228 C 0.24453 0.69433 0.48593 0.0
C1229 C 0.20508 0.71564 0.48343 0.0
C1230 C 0.29481 0.69334 0.54129 0.0
C1231 C 0.2821 0.69254 0.5375 0.0
C1232 C 0.25372 0.71047 0.54397 0.0
C1233 C 0.22346 0.70345 0.49294 0.0
C1234 C 0.23657 0.7027 0.50466 0.0
C1235 C 0.27505 0.70313 0.53169 0.0
C1236 C 0.2617 0.70238 0.52438 0.0
H1237 H 0.19901 0.68534 0.47054 0.0
H1238 H 0.22085 0.68392 0.48522 0.0
H1239 H 0.23541 0.7169 0.55034 0.0
H1240 H 0.29787 0.72423 0.53175 0.0
H1241 H 0.27573 0.72286 0.5261 0.0
C1242 C 0.55706 0.04617 0.77425 0.0
C1243 C 0.54565 0.05199 0.77133 0.0
C1244 C 0.55799 0.03347 0.76936 0.0
C1245 C 0.54006 0.0051 0.77464 0.0
H1246 H 0.56342 0.99207 0.69783 0.0
C1247 C 0.53615 0.95572 0.71995 0.0
C1248 C 0.54689 0.94883 0.71594 0.0
C1249 C 0.53668 0.96834 0.7256 0.0
C1250 C 0.55696 0.99553 0.71977 0.0
H1251 H 0.52626 0.04908 0.76223 0.0
H1252 H 0.52786 0.02701 0.75451 0.0
H1253 H 0.56336 0.01396 0.71309 0.0
H1254 H 0.56663 0.9498 0.71312 0.0
H1255 H 0.5676 0.97191 0.72379 0.0
H1256 H 0.53368 0.9868 0.78183 0.0
C1257 C 0.53609 0.03221 0.76038 0.0
C1258 C 0.55694 0.00806 0.72851 0.0
C1259 C 0.53518 0.04486 0.76467 0.0
C1260 C 0.55819 0.9549 0.71593 0.0
C1261 C 0.55874 0.96757 0.72204 0.0
C1262 C 0.54015 0.9926 0.76621 0.0
C1263 C 0.5475 0.02638 0.76217 0.0
C1264 C 0.54834 0.01299 0.75553 0.0
C1265 C 0.54798 0.9744 0.72796 0.0
C1266 C 0.54843 0.98767 0.73809 0.0
H1267 H 0.56529 0.05144 0.77914 0.0
H1268 H 0.56689 0.0292 0.77114 0.0
H1269 H 0.53347 0.00861 0.79608 0.0
H1270 H 0.52729 0.95131 0.71967 0.0
H1271 H 0.52819 0.97333 0.72879 0.0
C1272 C 0.70731 0.71673 0.02316 0.0
C1273 C 0.70055 0.70599 0.02951 0.0
C1274 C 0.71999 0.71626 0.01928 0.0
C1275 C 0.74443 0.6964 0.98516 0.0
H1276 H 0.76553 0.71942 0.04031 0.0
C1277 C 0.79731 0.69601 0.96808 0.0
C1278 C 0.80335 0.7073 0.9702 0.0
C1279 C 0.78471 0.69529 0.97514 0.0
C1280 C 0.75977 0.71304 0.02412 0.0
H1281 H 0.70177 0.68637 0.03752 0.0
H1282 H 0.72404 0.68554 0.03 0.0
H1283 H 0.7438 0.71912 0.05558 0.0
H1284 H 0.8009 0.72678 0.97877 0.0
H1285 H 0.77897 0.72564 0.98919 0.0
H1286 H 0.7603 0.6906 0.95261 0.0
C1287 C 0.71947 0.6943 0.02829 0.0
C1288 C 0.74733 0.71282 0.03319 0.0
C1289 C 0.70676 0.6948 0.03291 0.0
C1290 C 0.7965 0.71793 0.97734 0.0
C1291 C 0.78393 0.71724 0.98378 0.0
C1292 C 0.75688 0.69673 0.97565 0.0
C1293 C 0.72617 0.70503 0.02101 0.0
C1294 C 0.73951 0.70458 0.01357 0.0
C1295 C 0.77791 0.70588 0.98398 0.0
C1296 C 0.7647 0.70517 0.99468 0.0
H1297 H 0.70277 0.72548 0.02037 0.0
H1298 H 0.72493 0.72466 0.01345 0.0
H1299 H 0.73857 0.69004 0.96928 0.0
H1300 H 0.80239 0.68766 0.96292 0.0
H1301 H 0.78043 0.68637 0.97524 0.0
C1302 C 0.05504 0.95368 0.77131 0.0
C1303 C 0.04368 0.94776 0.76919 0.0
C1304 C 0.05588 0.96632 0.76502 0.0
C1305 C 0.03839 0.99189 0.71871 0.0
H1306 H 0.06113 0.01244 0.77732 0.0
C1307 C 0.03434 0.04426 0.72594 0.0
C1308 C 0.04502 0.05119 0.72085 0.0
C1309 C 0.03492 0.03154 0.7287 0.0
C1310 C 0.05484 0.00677 0.76039 0.0
H1311 H 0.02423 0.95048 0.76099 0.0
H1312 H 0.02561 0.97246 0.75162 0.0
H1313 H 0.06059 0.99048 0.79081 0.0
H1314 H 0.06469 0.05025 0.71418 0.0
H1315 H 0.06572 0.02791 0.71969 0.0
H1316 H 0.03238 0.00825 0.68933 0.0
C1317 C 0.03395 0.96737 0.75662 0.0
C1318 C 0.05453 0.99419 0.76807 0.0
C1319 C 0.03314 0.95477 0.7624 0.0
C1320 C 0.0563 0.04513 0.71788 0.0
C1321 C 0.05691 0.03238 0.72132 0.0
C1322 C 0.03861 0.00445 0.71142 0.0
C1323 C 0.04535 0.97329 0.75686 0.0
C1324 C 0.04617 0.98661 0.74771 0.0
C1325 C 0.04622 0.02548 0.72701 0.0
C1326 C 0.04673 0.01204 0.73248 0.0
H1327 H 0.06332 0.94849 0.77628 0.0
H1328 H 0.06482 0.97053 0.76521 0.0
H1329 H 0.03207 0.98632 0.70158 0.0
H1330 H 0.02552 0.04867 0.72834 0.0
H1331 H 0.02655 0.02647 0.73338 0.0
C1332 C 0.70456 0.30494 0.46329 0.0
C1333 C 0.69849 0.29367 0.4666 0.0
C1334 C 0.71725 0.30558 0.46802 0.0
C1335 C 0.74534 0.2874 0.46317 0.0
H1336 H 0.75805 0.30985 0.5435 0.0
C1337 C 0.79472 0.28317 0.51819 0.0
C1338 C 0.80137 0.29392 0.52514 0.0
C1339 C 0.78213 0.2836 0.51203 0.0
C1340 C 0.75471 0.30365 0.52054 0.0
H1341 H 0.70095 0.2742 0.47573 0.0
H1342 H 0.72309 0.27529 0.48286 0.0
H1343 H 0.73631 0.31009 0.52698 0.0
H1344 H 0.80003 0.31356 0.53234 0.0
H1345 H 0.77803 0.31441 0.52049 0.0
H1346 H 0.76363 0.28104 0.45595 0.0
C1347 C 0.71805 0.28363 0.47701 0.0
C1348 C 0.74225 0.3038 0.51112 0.0
C1349 C 0.70538 0.28301 0.47301 0.0
C1350 C 0.79511 0.3051 0.52733 0.0
C1351 C 0.78249 0.30557 0.52055 0.0
C1352 C 0.7578 0.28735 0.47216 0.0
C1353 C 0.72409 0.29494 0.47532 0.0
C1354 C 0.73743 0.29555 0.48277 0.0
C1355 C 0.77588 0.29484 0.51192 0.0
C1356 C 0.76263 0.29532 0.50147 0.0
H1357 H 0.69946 0.3133 0.45862 0.0
H1358 H 0.72171 0.3144 0.46633 0.0
H1359 H 0.74189 0.28104 0.44084 0.0
H1360 H 0.79929 0.2744 0.5167 0.0
H1361 H 0.77732 0.27511 0.50675 0.0
C1362 C 0.44362 0.95457 0.22397 0.0
C1363 C 0.45498 0.94861 0.22452 0.0
C1364 C 0.44283 0.9671 0.23245 0.0
C1365 C 0.46047 0.99177 0.28302 0.0
H1366 H 0.43778 0.01341 0.22861 0.0
C1367 C 0.46497 0.04416 0.28355 0.0
C1368 C 0.45434 0.05123 0.28757 0.0
C1369 C 0.46426 0.03146 0.28044 0.0
C1370 C 0.44403 0.00743 0.24447 0.0
H1371 H 0.47447 0.95119 0.2321 0.0
H1372 H 0.47316 0.973 0.24538 0.0
H1373 H 0.43817 0.99172 0.21108 0.0
H1374 H 0.43463 0.05054 0.2927 0.0
H1375 H 0.43336 0.02823 0.28678 0.0
H1376 H 0.46657 0.00757 0.31545 0.0
C1377 C 0.4648 0.968 0.23985 0.0
C1378 C 0.44428 0.995 0.23442 0.0
C1379 C 0.46557 0.9555 0.2318 0.0
C1380 C 0.44298 0.04531 0.28986 0.0
C1381 C 0.44224 0.03257 0.28612 0.0
C1382 C 0.46029 0.00419 0.29277 0.0
C1383 C 0.4534 0.97392 0.24134 0.0
C1384 C 0.45264 0.98705 0.25313 0.0
C1385 C 0.45287 0.02554 0.28076 0.0
C1386 C 0.45219 0.01218 0.27324 0.0
H1387 H 0.4353 0.94948 0.2187 0.0
H1388 H 0.4339 0.97132 0.23348 0.0
H1389 H 0.46679 0.98588 0.29891 0.0
H1390 H 0.47386 0.04847 0.28165 0.0
H1391 H 0.4726 0.0263 0.27605 0.0
C1392 C 0.70535 0.78186 0.51661 0.0
C1393 C 0.69863 0.79251 0.52457 0.0
C1394 C 0.71791 0.78245 0.50977 0.0
C1395 C 0.74513 0.80276 0.51816 0.0
H1396 H 0.75793 0.78064 0.43693 0.0
C1397 C 0.79505 0.80494 0.45986 0.0
C1398 C 0.80129 0.79376 0.46305 0.0
C1399 C 0.78235 0.80538 0.46443 0.0
C1400 C 0.75448 0.78687 0.45967 0.0
H1401 H 0.69981 0.81211 0.53282 0.0
H1402 H 0.72172 0.81325 0.51979 0.0
H1403 H 0.73624 0.78032 0.45287 0.0
H1404 H 0.79914 0.77424 0.47157 0.0
H1405 H 0.77697 0.77497 0.47838 0.0
H1406 H 0.76347 0.80939 0.5242 0.0
C1407 C 0.71736 0.80437 0.51959 0.0
C1408 C 0.74206 0.78663 0.46913 0.0
C1409 C 0.70479 0.80374 0.52705 0.0
C1410 C 0.79457 0.78298 0.46895 0.0
C1411 C 0.78188 0.78339 0.47277 0.0
C1412 C 0.75755 0.8031 0.50825 0.0
C1413 C 0.72404 0.79375 0.51 0.0
C1414 C 0.73723 0.79442 0.49901 0.0
C1415 C 0.77567 0.79462 0.47145 0.0
C1416 C 0.76236 0.79503 0.47933 0.0
H1417 H 0.70086 0.77305 0.51486 0.0
H1418 H 0.72277 0.77403 0.50375 0.0
H1419 H 0.7418 0.80881 0.54157 0.0
H1420 H 0.80002 0.8134 0.45559 0.0
H1421 H 0.77775 0.81414 0.46302 0.0
C1422 C 0.44316 0.45511 0.77556 0.0
C1423 C 0.45453 0.44917 0.77379 0.0
C1424 C 0.44243 0.46783 0.77132 0.0
C1425 C 0.46057 0.49603 0.77971 0.0
H1426 H 0.43842 0.5093 0.69951 0.0
C1427 C 0.46586 0.54526 0.72432 0.0
C1428 C 0.45528 0.55226 0.71829 0.0
C1429 C 0.46509 0.53268 0.73066 0.0
C1430 C 0.44454 0.50578 0.72242 0.0
H1431 H 0.47405 0.45189 0.76765 0.0
H1432 H 0.47279 0.47402 0.76105 0.0
H1433 H 0.438 0.48743 0.71481 0.0
H1434 H 0.43558 0.55151 0.71282 0.0
H1435 H 0.43417 0.5295 0.72465 0.0
H1436 H 0.4671 0.51426 0.78772 0.0
C1437 C 0.46444 0.46889 0.7655 0.0
C1438 C 0.44429 0.49326 0.73118 0.0
C1439 C 0.46515 0.4562 0.76914 0.0
C1440 C 0.4439 0.54634 0.71719 0.0
C1441 C 0.4431 0.53372 0.72395 0.0
C1442 C 0.46076 0.50852 0.77124 0.0
C1443 C 0.45308 0.47483 0.76594 0.0
C1444 C 0.45246 0.48823 0.75942 0.0
C1445 C 0.45368 0.52678 0.73166 0.0
C1446 C 0.45292 0.51354 0.74192 0.0
H1447 H 0.43481 0.4499 0.7789 0.0
H1448 H 0.43356 0.4722 0.77203 0.0
H1449 H 0.46685 0.49244 0.80206 0.0
H1450 H 0.47478 0.54955 0.72496 0.0
H1451 H 0.47345 0.5276 0.73531 0.0
C1452 C 0.70454 0.19429 0.96376 0.0
C1453 C 0.69853 0.20562 0.9658 0.0
C1454 C 0.71714 0.19354 0.97071 0.0
C1455 C 0.74191 0.21118 0.02059 0.0
H1456 H 0.76346 0.18859 0.96534 0.0
C1457 C 0.79418 0.21574 0.02137 0.0
C1458 C 0.8012 0.20512 0.02675 0.0
C1459 C 0.78153 0.215 0.01721 0.0
C1460 C 0.7575 0.19482 0.98136 0.0
H1461 H 0.70106 0.22511 0.97387 0.0
H1462 H 0.72299 0.2239 0.98424 0.0
H1463 H 0.74174 0.18899 0.9482 0.0
H1464 H 0.80048 0.18541 0.03274 0.0
H1465 H 0.77823 0.18411 0.02485 0.0
H1466 H 0.75773 0.21725 0.05281 0.0
C1467 C 0.71799 0.21551 0.97893 0.0
C1468 C 0.74506 0.19507 0.97155 0.0
C1469 C 0.70543 0.21623 0.97252 0.0
C1470 C 0.79527 0.19375 0.0289 0.0
C1471 C 0.78258 0.19299 0.02405 0.0
C1472 C 0.75432 0.21101 0.03004 0.0
C1473 C 0.72397 0.20413 0.97944 0.0
C1474 C 0.73714 0.20339 0.99063 0.0
C1475 C 0.77561 0.20362 0.01776 0.0
C1476 C 0.76228 0.20295 0.01021 0.0
H1477 H 0.69942 0.18595 0.95889 0.0
H1478 H 0.72142 0.18462 0.97096 0.0
H1479 H 0.73605 0.21745 0.03682 0.0
H1480 H 0.7985 0.22463 0.01953 0.0
H1481 H 0.7764 0.22333 0.01212 0.0
C1482 C 0.03576 0.45586 0.21713 0.0
C1483 C 0.04647 0.44886 0.21378 0.0
C1484 C 0.03638 0.46857 0.22007 0.0
C1485 C 0.05608 0.49303 0.25578 0.0
H1486 H 0.03399 0.51395 0.19588 0.0
C1487 C 0.05625 0.54604 0.27056 0.0
C1488 C 0.04491 0.55198 0.26788 0.0
C1489 C 0.05715 0.53345 0.26335 0.0
C1490 C 0.04012 0.50824 0.21329 0.0
H1491 H 0.06621 0.44968 0.21014 0.0
H1492 H 0.06729 0.472 0.21591 0.0
H1493 H 0.03437 0.49209 0.18207 0.0
H1494 H 0.02554 0.54932 0.25768 0.0
H1495 H 0.02701 0.52742 0.24664 0.0
H1496 H 0.06155 0.50909 0.28798 0.0
C1497 C 0.05843 0.46759 0.21608 0.0
C1498 C 0.04038 0.49573 0.20512 0.0
C1499 C 0.05781 0.45485 0.21248 0.0
C1500 C 0.03443 0.54502 0.25958 0.0
C1501 C 0.03531 0.53247 0.25283 0.0
C1502 C 0.05573 0.50556 0.2643 0.0
C1503 C 0.04772 0.47455 0.2203 0.0
C1504 C 0.04825 0.48797 0.22659 0.0
C1505 C 0.0467 0.52655 0.25365 0.0
C1506 C 0.0476 0.5133 0.24355 0.0
H1507 H 0.02689 0.45149 0.21823 0.0
H1508 H 0.02798 0.47368 0.22359 0.0
H1509 H 0.06216 0.48722 0.27306 0.0
H1510 H 0.06449 0.55119 0.27668 0.0
H1511 H 0.06609 0.52923 0.26404 0.0
C1512 C 0.29428 0.21557 0.46974 0.0
C1513 C 0.3013 0.20499 0.46348 0.0
C1514 C 0.2816 0.21484 0.47293 0.0
C1515 C 0.25734 0.19431 0.50454 0.0
H1516 H 0.23619 0.21754 0.4505 0.0
C1517 C 0.20441 0.19358 0.52067 0.0
C1518 C 0.1984 0.20492 0.5204 0.0
C1519 C 0.21698 0.1929 0.51312 0.0
C1520 C 0.24196 0.21108 0.46631 0.0
H1521 H 0.30054 0.18537 0.45492 0.0
H1522 H 0.27826 0.18406 0.46114 0.0
H1523 H 0.25798 0.21755 0.43602 0.0
H1524 H 0.20091 0.22448 0.51427 0.0
H1525 H 0.22279 0.22337 0.50274 0.0
H1526 H 0.2414 0.1881 0.53589 0.0
C1527 C 0.28263 0.19291 0.46338 0.0
C1528 C 0.25444 0.21104 0.45773 0.0
C1529 C 0.29535 0.19368 0.45951 0.0
C1530 C 0.20527 0.21559 0.51426 0.0
C1531 C 0.21781 0.21493 0.50722 0.0
C1532 C 0.24484 0.19443 0.5135 0.0
C1533 C 0.27566 0.20349 0.47051 0.0
C1534 C 0.26228 0.20276 0.47708 0.0
C1535 C 0.2238 0.20357 0.50552 0.0
C1536 C 0.23702 0.20295 0.49491 0.0
H1537 H 0.29862 0.22441 0.47296 0.0
H1538 H 0.27647 0.22312 0.47872 0.0
H1539 H 0.2632 0.1879 0.52018 0.0
H1540 H 0.19932 0.18519 0.52508 0.0
H1541 H 0.22125 0.18398 0.51186 0.0
C1542 C 0.5574 0.45407 0.28212 0.0
C1543 C 0.54602 0.44816 0.28075 0.0
C1544 C 0.55822 0.46669 0.27524 0.0
C1545 C 0.54073 0.49151 0.22557 0.0
H1546 H 0.5635 0.51306 0.27998 0.0
C1547 C 0.53677 0.54387 0.22047 0.0
C1548 C 0.54749 0.55079 0.21605 0.0
C1549 C 0.53735 0.53123 0.22554 0.0
C1550 C 0.55721 0.50711 0.26417 0.0
H1551 H 0.52653 0.45091 0.274 0.0
H1552 H 0.5279 0.47285 0.26352 0.0
H1553 H 0.56291 0.49137 0.29784 0.0
H1554 H 0.56723 0.54986 0.21266 0.0
H1555 H 0.56825 0.52764 0.22188 0.0
H1556 H 0.53484 0.50727 0.19259 0.0
C1557 C 0.53625 0.46776 0.2684 0.0
C1558 C 0.55686 0.49469 0.27443 0.0
C1559 C 0.53544 0.45519 0.27485 0.0
C1560 C 0.55881 0.54475 0.21575 0.0
C1561 C 0.55941 0.53206 0.22138 0.0
C1562 C 0.54102 0.5039 0.21557 0.0
C1563 C 0.54767 0.47362 0.26716 0.0
C1564 C 0.54848 0.48677 0.25565 0.0
C1565 C 0.54867 0.5252 0.22676 0.0
C1566 C 0.54915 0.51187 0.23508 0.0
H1567 H 0.56571 0.44887 0.28637 0.0
H1568 H 0.56717 0.47089 0.27444 0.0
H1569 H 0.5344 0.48565 0.2096 0.0
H1570 H 0.52791 0.54827 0.22089 0.0
H1571 H 0.52893 0.52621 0.22993 0.0
C1572 C 0.29356 0.78497 0.0173 0.0
C1573 C 0.30049 0.79558 0.02373 0.0
C1574 C 0.28095 0.78568 0.01185 0.0
C1575 C 0.25693 0.80605 0.97597 0.0
H1576 H 0.23543 0.78293 0.02892 0.0
C1577 C 0.20391 0.80693 0.96003 0.0
C1578 C 0.19787 0.79561 0.96097 0.0
C1579 C 0.21655 0.80755 0.96624 0.0
C1580 C 0.24131 0.78935 0.01336 0.0
H1581 H 0.29965 0.81528 0.03005 0.0
H1582 H 0.27749 0.81655 0.02006 0.0
H1583 H 0.25708 0.78302 0.0453 0.0
H1584 H 0.20038 0.77603 0.96607 0.0
H1585 H 0.22237 0.77704 0.97524 0.0
H1586 H 0.24118 0.81219 0.9433 0.0
C1587 C 0.28188 0.80768 0.01934 0.0
C1588 C 0.2537 0.78944 0.02302 0.0
C1589 C 0.29452 0.80694 0.02538 0.0
C1590 C 0.20477 0.7849 0.96562 0.0
C1591 C 0.21737 0.7855 0.97132 0.0
C1592 C 0.24449 0.80589 0.966 0.0
C1593 C 0.27499 0.79705 0.01223 0.0
C1594 C 0.26168 0.79769 0.00413 0.0
C1595 C 0.22338 0.79684 0.97314 0.0
C1596 C 0.23656 0.79741 0.9842 0.0
H1597 H 0.2979 0.77608 0.0158 0.0
H1598 H 0.2759 0.77735 0.0061 0.0
H1599 H 0.26289 0.81245 0.96068 0.0
H1600 H 0.19879 0.81535 0.95674 0.0
H1601 H 0.22086 0.81645 0.96752 0.0
C1602 C 0.96493 0.45609 0.72941 0.0
C1603 C 0.95436 0.44916 0.72232 0.0
C1604 C 0.96413 0.46857 0.73767 0.0
C1605 C 0.94357 0.49554 0.73323 0.0
H1606 H 0.96591 0.5079 0.81447 0.0
C1607 C 0.9426 0.54584 0.78904 0.0
C1608 C 0.95402 0.55166 0.78681 0.0
C1609 C 0.94175 0.53311 0.78527 0.0
C1610 C 0.95961 0.50458 0.79174 0.0
H1611 H 0.93466 0.44996 0.71697 0.0
H1612 H 0.93321 0.47179 0.73205 0.0
H1613 H 0.96609 0.48625 0.79746 0.0
H1614 H 0.97351 0.54872 0.78099 0.0
H1615 H 0.97205 0.52658 0.77535 0.0
H1616 H 0.93712 0.51398 0.72778 0.0
C1617 C 0.94215 0.4676 0.73074 0.0
C1618 C 0.95976 0.49218 0.78173 0.0
C1619 C 0.94298 0.45508 0.72208 0.0
C1620 C 0.96458 0.54449 0.78285 0.0
C1621 C 0.96375 0.5318 0.77972 0.0
C1622 C 0.94336 0.50795 0.74353 0.0
C1623 C 0.95271 0.47444 0.73955 0.0
C1624 C 0.95193 0.48753 0.75172 0.0
C1625 C 0.95232 0.52599 0.77995 0.0
C1626 C 0.95154 0.51263 0.77235 0.0
H1627 H 0.97385 0.45181 0.72947 0.0
H1628 H 0.97249 0.4736 0.74311 0.0
H1629 H 0.93746 0.49231 0.70984 0.0
H1630 H 0.9343 0.55115 0.79181 0.0
H1631 H 0.93283 0.52885 0.78586 0.0
C1632 C 0.15835 0.29097 0.87991 0.0
C1633 C 0.16126 0.28467 0.91542 0.0
C1634 C 0.1589 0.28494 0.84261 0.0
C1635 C 0.15277 0.26758 0.77385 0.0
H1636 H 0.17651 0.24189 0.75534 0.0
C1637 C 0.14574 0.23241 0.64774 0.0
C1638 C 0.15598 0.2282 0.62645 0.0
C1639 C 0.14714 0.23941 0.68261 0.0
C1640 C 0.1699 0.24912 0.7596 0.0
H1641 H 0.16808 0.26767 0.94016 0.0
H1642 H 0.16865 0.25705 0.87601 0.0
H1643 H 0.1785 0.25496 0.81415 0.0
H1644 H 0.17575 0.22783 0.62508 0.0
H1645 H 0.17827 0.24043 0.68529 0.0
H1646 H 0.14444 0.26208 0.71849 0.0
C1647 C 0.16598 0.26658 0.87617 0.0
C1648 C 0.17094 0.25654 0.79373 0.0
C1649 C 0.16545 0.27259 0.9131 0.0
C1650 C 0.16769 0.23084 0.64127 0.0
C1651 C 0.16911 0.23807 0.67579 0.0
C1652 C 0.15184 0.26029 0.73937 0.0
C1653 C 0.16255 0.27259 0.84044 0.0
C1654 C 0.16224 0.26569 0.80177 0.0
C1655 C 0.15884 0.24262 0.69654 0.0
C1656 C 0.16025 0.2508 0.73219 0.0
H1657 H 0.15537 0.3004 0.88115 0.0
H1658 H 0.1564 0.28991 0.81559 0.0
H1659 H 0.14583 0.27445 0.77918 0.0
H1660 H 0.1366 0.23042 0.6371 0.0
H1661 H 0.13901 0.2424 0.69839 0.0
C1662 C 0.01696 0.91715 0.88686 0.0
C1663 C 0.0193 0.90541 0.87162 0.0
C1664 C 0.00974 0.91865 0.92135 0.0
C1665 C 0.98724 0.90173 0.98499 0.0
H1666 H 0.99351 0.92805 0.0604 0.0
C1667 C 0.976 0.91513 0.15971 0.0
C1668 C 0.96386 0.9112 0.16244 0.0
C1669 C 0.98186 0.91562 0.12252 0.0
C1670 C 0.99166 0.92059 0.03981 0.0
H1671 H 0.01651 0.88603 0.88138 0.0
H1672 H 0.00455 0.88857 0.94263 0.0
H1673 H 0.00628 0.92592 0.00103 0.0
H1674 H 0.94786 0.90579 0.12867 0.0
H1675 H 0.95808 0.90679 0.06269 0.0
H1676 H 0.97313 0.89593 0.02525 0.0
C1677 C 0.00776 0.89667 0.92721 0.0
C1678 C 0.99891 0.91947 0.00534 0.0
C1679 C 0.01475 0.8952 0.89235 0.0
C1680 C 0.95734 0.90856 0.12712 0.0
C1681 C 0.96322 0.90908 0.08956 0.0
C1682 C 0.98012 0.90273 0.01983 0.0
C1683 C 0.00492 0.90842 0.9417 0.0
C1684 C 0.99689 0.90993 0.97767 0.0
C1685 C 0.97563 0.91244 0.08696 0.0
C1686 C 0.98235 0.91208 0.04796 0.0
H1687 H 0.02024 0.92518 0.87112 0.0
H1688 H 0.00765 0.92784 0.93123 0.0
H1689 H 0.98519 0.89444 0.96395 0.0
H1690 H 0.98108 0.91756 0.18662 0.0
H1691 H 0.99143 0.91808 0.12202 0.0
C1692 C 0.34246 0.70935 0.38134 0.0
C1693 C 0.33946 0.71566 0.41677 0.0
C1694 C 0.34182 0.71533 0.34394 0.0
C1695 C 0.34756 0.7326 0.27459 0.0
H1696 H 0.32348 0.75799 0.25616 0.0
C1697 C 0.35376 0.7675 0.14703 0.0
C1698 C 0.34339 0.77168 0.12634 0.0
C1699 C 0.35257 0.76051 0.18201 0.0
C1700 C 0.33019 0.75083 0.26037 0.0
H1701 H 0.33241 0.73259 0.44127 0.0
H1702 H 0.3317 0.74313 0.377 0.0
H1703 H 0.32181 0.74505 0.31533 0.0
H1704 H 0.32362 0.77197 0.12608 0.0
H1705 H 0.32146 0.75937 0.18641 0.0
H1706 H 0.35564 0.73803 0.21876 0.0
C1707 C 0.3345 0.73364 0.37727 0.0
C1708 C 0.32933 0.7435 0.29475 0.0
C1709 C 0.33511 0.72768 0.41429 0.0
C1710 C 0.33177 0.76899 0.14179 0.0
C1711 C 0.33056 0.76176 0.17641 0.0
C1712 C 0.3483 0.7398 0.23984 0.0
C1713 C 0.338 0.72763 0.3416 0.0
C1714 C 0.33815 0.73446 0.30277 0.0
C1715 C 0.34095 0.75728 0.19667 0.0
C1716 C 0.33976 0.74918 0.23264 0.0
H1717 H 0.34556 0.69996 0.38268 0.0
H1718 H 0.34437 0.71035 0.31699 0.0
H1719 H 0.35459 0.72583 0.27988 0.0
H1720 H 0.36284 0.76954 0.1359 0.0
H1721 H 0.36079 0.75758 0.19737 0.0
C1722 C 0.5209 0.0897 0.66088 0.0
C1723 C 0.53256 0.09484 0.6649 0.0
C1724 C 0.51488 0.08994 0.62389 0.0
C1725 C 0.51294 0.10668 0.52936 0.0
H1726 H 0.49633 0.0776 0.49101 0.0
C1727 C 0.49001 0.1045 0.37288 0.0
C1728 C 0.47912 0.09779 0.36877 0.0
C1729 C 0.49661 0.10424 0.40885 0.0
C1730 C 0.50075 0.08585 0.50155 0.0
H1731 H 0.54745 0.10366 0.63353 0.0
H1732 H 0.53675 0.10434 0.56809 0.0
H1733 H 0.5082 0.07675 0.55317 0.0
H1734 H 0.46652 0.08573 0.3998 0.0
H1735 H 0.4779 0.08553 0.46314 0.0
H1736 H 0.50526 0.11591 0.47842 0.0
C1737 C 0.53224 0.10025 0.59387 0.0
C1738 C 0.50761 0.08534 0.537 0.0
C1739 C 0.53836 0.09985 0.63103 0.0
C1740 C 0.4749 0.09095 0.40185 0.0
C1741 C 0.48147 0.09078 0.43808 0.0
C1742 C 0.50595 0.10725 0.49409 0.0
C1743 C 0.52044 0.09529 0.59008 0.0
C1744 C 0.51374 0.09575 0.55131 0.0
C1745 C 0.49247 0.09735 0.44188 0.0
C1746 C 0.49975 0.09684 0.47976 0.0
H1747 H 0.51638 0.08555 0.68657 0.0
H1748 H 0.50576 0.08616 0.62196 0.0
H1749 H 0.51746 0.11488 0.54003 0.0
H1750 H 0.49362 0.10981 0.34798 0.0
H1751 H 0.50513 0.10924 0.41037 0.0
C1752 C 0.14532 0.75986 0.87218 0.0
C1753 C 0.15185 0.77086 0.8764 0.0
C1754 C 0.14567 0.75331 0.8361 0.0
C1755 C 0.16394 0.74961 0.74304 0.0
H1756 H 0.13507 0.73266 0.70463 0.0
C1757 C 0.16005 0.7295 0.58356 0.0
C1758 C 0.15518 0.71771 0.57979 0.0
C1759 C 0.15976 0.73555 0.6205 0.0
C1760 C 0.14322 0.73725 0.71529 0.0
H1761 H 0.1637 0.7837 0.84555 0.0
H1762 H 0.16405 0.7724 0.78202 0.0
H1763 H 0.134 0.74474 0.76651 0.0
H1764 H 0.14677 0.70263 0.6115 0.0
H1765 H 0.14599 0.71339 0.67684 0.0
H1766 H 0.17304 0.74234 0.69113 0.0
C1767 C 0.15888 0.76871 0.80706 0.0
C1768 C 0.14263 0.74417 0.7507 0.0
C1769 C 0.15862 0.77523 0.8434 0.0
C1770 C 0.15037 0.71182 0.61382 0.0
C1771 C 0.14991 0.71797 0.65092 0.0
C1772 C 0.16448 0.74281 0.70744 0.0
C1773 C 0.15246 0.75762 0.80309 0.0
C1774 C 0.153 0.75044 0.76502 0.0
C1775 C 0.15461 0.72989 0.65447 0.0
C1776 C 0.15413 0.73658 0.69322 0.0
H1777 H 0.14008 0.75614 0.89703 0.0
H1778 H 0.14081 0.74471 0.83445 0.0
H1779 H 0.17216 0.7541 0.75356 0.0
H1780 H 0.16406 0.73409 0.55774 0.0
H1781 H 0.16336 0.74475 0.6223 0.0
C1782 C 0.48107 0.89414 0.09821 0.0
C1783 C 0.47734 0.90473 0.11875 0.0
C1784 C 0.48768 0.895 0.06235 0.0
C1785 C 0.49722 0.91676 0.98182 0.0
H1786 H 0.52206 0.89212 0.96329 0.0
C1787 C 0.53965 0.90504 0.86461 0.0
C1788 C 0.53378 0.90817 0.8285 0.0
C1789 C 0.53318 0.90529 0.90109 0.0
C1790 C 0.51531 0.89919 0.96828 0.0
H1791 H 0.4774 0.92452 0.11768 0.0
H1792 H 0.48935 0.92608 0.05574 0.0
H1793 H 0.50983 0.89133 0.02439 0.0
H1794 H 0.51706 0.91503 0.80202 0.0
H1795 H 0.50566 0.91505 0.86479 0.0
H1796 H 0.5031 0.92494 0.92662 0.0
C1797 C 0.4869 0.91708 0.06662 0.0
C1798 C 0.5081 0.89861 0.00301 0.0
C1799 C 0.48005 0.91621 0.10216 0.0
C1800 C 0.52164 0.9122 0.82948 0.0
C1801 C 0.51518 0.91241 0.86562 0.0
C1802 C 0.50456 0.91745 0.94743 0.0
C1803 C 0.49097 0.90647 0.04659 0.0
C1804 C 0.49885 0.9073 0.01001 0.0
C1805 C 0.5208 0.90885 0.9019 0.0
C1806 C 0.5136 0.90859 0.93995 0.0
H1807 H 0.47899 0.88517 0.11019 0.0
H1808 H 0.49031 0.88662 0.04723 0.0
H1809 H 0.49014 0.92356 0.98585 0.0
H1810 H 0.54912 0.9022 0.86448 0.0
H1811 H 0.53787 0.90272 0.92859 0.0
C1812 C 0.33816 0.27287 0.08297 0.0
C1813 C 0.34376 0.28432 0.0793 0.0
C1814 C 0.33784 0.26689 0.11998 0.0
C1815 C 0.34216 0.27131 0.23017 0.0
H1816 H 0.34622 0.23608 0.22776 0.0
C1817 C 0.35178 0.24239 0.37225 0.0
C1818 C 0.34534 0.23133 0.37654 0.0
C1819 C 0.35106 0.24911 0.3366 0.0
C1820 C 0.34494 0.2459 0.22889 0.0
H1821 H 0.35287 0.29892 0.11123 0.0
H1822 H 0.35289 0.2882 0.17646 0.0
H1823 H 0.34622 0.24751 0.16492 0.0
H1824 H 0.33301 0.21874 0.34658 0.0
H1825 H 0.33184 0.23051 0.28388 0.0
H1826 H 0.34105 0.26958 0.29452 0.0
C1827 C 0.34855 0.28389 0.15077 0.0
C1828 C 0.34495 0.25248 0.19285 0.0
C1829 C 0.34865 0.29 0.11355 0.0
C1830 C 0.3381 0.22719 0.34426 0.0
C1831 C 0.33747 0.2339 0.30835 0.0
C1832 C 0.34222 0.26471 0.26631 0.0
C1833 C 0.34328 0.27217 0.15424 0.0
C1834 C 0.34352 0.26528 0.19296 0.0
C1835 C 0.34395 0.24492 0.30422 0.0
C1836 C 0.34358 0.25193 0.26597 0.0
H1837 H 0.33404 0.26848 0.05697 0.0
H1838 H 0.33335 0.25809 0.12159 0.0
H1839 H 0.34083 0.28111 0.23142 0.0
H1840 H 0.3574 0.24592 0.39651 0.0
H1841 H 0.35626 0.2575 0.33412 0.0
C1842 C 0.01798 0.08333 0.6091 0.0
C1843 C 0.02081 0.09485 0.62516 0.0
C1844 C 0.01072 0.08236 0.5745 0.0
C1845 C 0.98916 0.10069 0.5112 0.0
H1846 H 0.99428 0.07433 0.43502 0.0
C1847 C 0.97744 0.08791 0.33595 0.0
C1848 C 0.96546 0.09232 0.3331 0.0
C1849 C 0.9833 0.08731 0.37311 0.0
C1850 C 0.99277 0.08183 0.45578 0.0
H1851 H 0.01881 0.11438 0.61689 0.0
H1852 H 0.00682 0.11277 0.55535 0.0
H1853 H 0.00701 0.07563 0.49467 0.0
H1854 H 0.94975 0.09861 0.36668 0.0
H1855 H 0.95997 0.09741 0.43268 0.0
H1856 H 0.97547 0.10735 0.47075 0.0
C1857 C 0.00966 0.10443 0.57022 0.0
C1858 C 0.99998 0.08246 0.49046 0.0
C1859 C 0.01667 0.10538 0.60523 0.0
C1860 C 0.95911 0.09545 0.36832 0.0
C1861 C 0.96499 0.09481 0.40588 0.0
C1862 C 0.9821 0.10019 0.47609 0.0
C1863 C 0.00635 0.09292 0.5548 0.0
C1864 C 0.99836 0.09198 0.51849 0.0
C1865 C 0.97723 0.09086 0.40859 0.0
C1866 C 0.98392 0.09083 0.44768 0.0
H1867 H 0.02093 0.07506 0.62426 0.0
H1868 H 0.00825 0.07333 0.56399 0.0
H1869 H 0.98741 0.108 0.53248 0.0
H1870 H 0.98238 0.08511 0.30915 0.0
H1871 H 0.99275 0.08442 0.37366 0.0
C1872 C 0.83991 0.7279 0.08878 0.0
C1873 C 0.84512 0.71635 0.08272 0.0
C1874 C 0.83975 0.73313 0.12702 0.0
C1875 C 0.85571 0.73345 0.22284 0.0
H1876 H 0.82661 0.75019 0.26027 0.0
C1877 C 0.85383 0.75774 0.37739 0.0
C1878 C 0.84725 0.76876 0.38002 0.0
C1879 C 0.85332 0.75059 0.34256 0.0
C1880 C 0.83487 0.74571 0.25005 0.0
H1881 H 0.85372 0.70085 0.11155 0.0
H1882 H 0.85371 0.71019 0.17934 0.0
H1883 H 0.82597 0.73853 0.19764 0.0
H1884 H 0.83513 0.781 0.3477 0.0
H1885 H 0.83456 0.76873 0.28627 0.0
H1886 H 0.86478 0.74098 0.2743 0.0
C1887 C 0.84983 0.7152 0.15421 0.0
C1888 C 0.83446 0.73895 0.21435 0.0
C1889 C 0.84983 0.70986 0.11571 0.0
C1890 C 0.84025 0.77254 0.34675 0.0
C1891 C 0.83986 0.76544 0.31164 0.0
C1892 C 0.85617 0.74035 0.25833 0.0
C1893 C 0.84477 0.7269 0.16009 0.0
C1894 C 0.84492 0.73291 0.20011 0.0
C1895 C 0.84633 0.75434 0.30922 0.0
C1896 C 0.84578 0.74668 0.27214 0.0
H1897 H 0.83601 0.73295 0.06373 0.0
H1898 H 0.83593 0.74221 0.13053 0.0
H1899 H 0.86392 0.72891 0.21242 0.0
H1900 H 0.85923 0.75447 0.40257 0.0
H1901 H 0.85825 0.74202 0.34211 0.0
C1902 C 0.9917 0.10405 0.12524 0.0
C1903 C 0.98054 0.09778 0.12899 0.0
C1904 C 0.99848 0.10338 0.08967 0.0
C1905 C 0.00217 0.08482 0.9969 0.0
H1906 H 0.01987 0.11332 0.959 0.0
C1907 C 0.02189 0.08865 0.83696 0.0
C1908 C 0.03367 0.09348 0.83259 0.0
C1909 C 0.01609 0.08883 0.87432 0.0
C1910 C 0.01508 0.10526 0.9695 0.0
H1911 H 0.96768 0.08603 0.09787 0.0
H1912 H 0.97935 0.08515 0.03515 0.0
H1913 H 0.00775 0.11465 0.02064 0.0
H1914 H 0.04898 0.10167 0.86365 0.0
H1915 H 0.03866 0.10226 0.92974 0.0
H1916 H 0.00923 0.07558 0.9449 0.0
C1917 C 0.983 0.09035 0.0602 0.0
C1918 C 0.00814 0.106 0.00483 0.0
C1919 C 0.97626 0.09092 0.09606 0.0
C1920 C 0.0398 0.0981 0.86644 0.0
C1921 C 0.0339 0.09845 0.90398 0.0
C1922 C 0.00898 0.08414 0.96134 0.0
C1923 C 0.99423 0.09654 0.05666 0.0
C1924 C 0.00157 0.09579 0.01893 0.0
C1925 C 0.02197 0.09383 0.90813 0.0
C1926 C 0.01545 0.09437 0.94721 0.0
H1927 H 0.99537 0.10935 0.15008 0.0
H1928 H 0.00717 0.10807 0.08842 0.0
H1929 H 0.99746 0.0767 0.00725 0.0
H1930 H 0.01711 0.0848 0.81127 0.0
H1931 H 0.00687 0.08531 0.87653 0.0
C1932 C 0.66235 0.27308 0.58788 0.0
C1933 C 0.65727 0.28472 0.58228 0.0
C1934 C 0.66256 0.26775 0.62597 0.0
C1935 C 0.64675 0.26769 0.72236 0.0
H1936 H 0.67525 0.24967 0.75835 0.0
C1937 C 0.64808 0.2435 0.87672 0.0
C1938 C 0.65406 0.23214 0.8793 0.0
C1939 C 0.64889 0.25058 0.84185 0.0
C1940 C 0.66716 0.25451 0.74852 0.0
H1941 H 0.649 0.30027 0.61182 0.0
H1942 H 0.64913 0.29079 0.67935 0.0
H1943 H 0.67616 0.26139 0.69588 0.0
H1944 H 0.66551 0.21928 0.84694 0.0
H1945 H 0.66662 0.23148 0.78535 0.0
H1946 H 0.63758 0.26049 0.77406 0.0
C1947 C 0.65285 0.28578 0.65398 0.0
C1948 C 0.66771 0.2613 0.71289 0.0
C1949 C 0.65279 0.2912 0.61562 0.0
C1950 C 0.66084 0.228 0.84599 0.0
C1951 C 0.66153 0.23505 0.8108 0.0
C1952 C 0.64614 0.26077 0.75775 0.0
C1953 C 0.65772 0.27397 0.65938 0.0
C1954 C 0.65747 0.26783 0.6992 0.0
C1955 C 0.65559 0.24644 0.80836 0.0
C1956 C 0.65631 0.254 0.7711 0.0
H1957 H 0.66608 0.26803 0.56255 0.0
H1958 H 0.66623 0.2586 0.62906 0.0
H1959 H 0.6387 0.27258 0.71238 0.0
H1960 H 0.64288 0.24706 0.90192 0.0
H1961 H 0.6444 0.25939 0.84144 0.0
C1962 C 0.48056 0.91018 0.32916 0.0
C1963 C 0.46839 0.90624 0.32821 0.0
C1964 C 0.48714 0.91004 0.36505 0.0
C1965 C 0.49791 0.91488 0.44647 0.0
H1966 H 0.49243 0.88916 0.52466 0.0
C1967 C 0.52212 0.91477 0.60128 0.0
C1968 C 0.52469 0.90348 0.6194 0.0
C1969 C 0.51532 0.91529 0.56559 0.0
C1970 C 0.49424 0.89631 0.50291 0.0
H1971 H 0.45315 0.90001 0.36415 0.0
H1972 H 0.46459 0.90003 0.42795 0.0
H1973 H 0.48033 0.88968 0.46322 0.0
H1974 H 0.52279 0.88385 0.61359 0.0
H1975 H 0.5116 0.88467 0.55017 0.0
H1976 H 0.5123 0.92111 0.4847 0.0
C1977 C 0.46922 0.90275 0.40051 0.0
C1978 C 0.4871 0.89675 0.46796 0.0
C1979 C 0.46264 0.9028 0.36421 0.0
C1980 C 0.52083 0.89269 0.60033 0.0
C1981 C 0.51429 0.89318 0.56421 0.0
C1982 C 0.5052 0.91431 0.48096 0.0
C1983 C 0.4816 0.90629 0.40125 0.0
C1984 C 0.48886 0.90603 0.43924 0.0
C1985 C 0.51119 0.9045 0.54679 0.0
C1986 C 0.50347 0.90503 0.50973 0.0
H1987 H 0.48506 0.91325 0.30185 0.0
H1988 H 0.49667 0.91265 0.36407 0.0
H1989 H 0.49942 0.92231 0.42546 0.0
H1990 H 0.52485 0.92323 0.61568 0.0
H1991 H 0.51299 0.92419 0.55359 0.0
C1992 C 0.85149 0.2425 0.12024 0.0
C1993 C 0.84508 0.23143 0.11562 0.0
C1994 C 0.85062 0.24922 0.15589 0.0
C1995 C 0.84412 0.24608 0.26333 0.0
H1996 H 0.83972 0.28125 0.26012 0.0
C1997 C 0.83702 0.27324 0.40881 0.0
C1998 C 0.8425 0.28476 0.41225 0.0
C1999 C 0.83675 0.2672 0.37189 0.0
C2000 C 0.84113 0.27147 0.26158 0.0
H2001 H 0.8327 0.21879 0.14508 0.0
H2002 H 0.8313 0.23053 0.20782 0.0
H2003 H 0.84022 0.26963 0.19722 0.0
H2004 H 0.85145 0.2994 0.38002 0.0
H2005 H 0.85156 0.28857 0.31502 0.0
H2006 H 0.84523 0.2478 0.32731 0.0
C2007 C 0.837 0.23394 0.18358 0.0
C2008 C 0.84135 0.26481 0.22555 0.0
C2009 C 0.83777 0.22725 0.14765 0.0
C2010 C 0.84731 0.29044 0.37788 0.0
C2011 C 0.84727 0.28426 0.34077 0.0
C2012 C 0.84399 0.25272 0.29927 0.0
C2013 C 0.84341 0.245 0.18796 0.0
C2014 C 0.84283 0.25205 0.22611 0.0
C2015 C 0.84212 0.27247 0.33752 0.0
C2016 C 0.84246 0.26551 0.29893 0.0
H2017 H 0.85717 0.24607 0.0962 0.0
H2018 H 0.85577 0.25763 0.15858 0.0
H2019 H 0.84549 0.23628 0.26464 0.0
H2020 H 0.83297 0.26886 0.43491 0.0
H2021 H 0.83236 0.25835 0.37046 0.0
C2022 C 0.4773 0.08531 0.1614 0.0
C2023 C 0.46526 0.08954 0.16401 0.0
C2024 C 0.48319 0.08467 0.12427 0.0
C2025 C 0.49303 0.07959 0.0416 0.0
H2026 H 0.48698 0.10578 0.96557 0.0
C2027 C 0.51835 0.08258 0.88841 0.0
C2028 C 0.5208 0.09427 0.87307 0.0
C2029 C 0.51117 0.08119 0.92304 0.0
C2030 C 0.48891 0.09847 0.98666 0.0
H2031 H 0.44943 0.09534 0.13006 0.0
H2032 H 0.45968 0.09408 0.06421 0.0
H2033 H 0.47489 0.10453 0.02683 0.0
H2034 H 0.51828 0.11369 0.88282 0.0
H2035 H 0.5064 0.11135 0.94429 0.0
H2036 H 0.50757 0.07399 0.00285 0.0
C2037 C 0.46475 0.09167 0.09112 0.0
C2038 C 0.48178 0.09761 0.02149 0.0
C2039 C 0.45885 0.09234 0.12861 0.0
C2040 C 0.51643 0.10455 0.89386 0.0
C2041 C 0.50948 0.10319 0.92885 0.0
C2042 C 0.5003 0.08057 0.00712 0.0
C2043 C 0.47708 0.08801 0.08863 0.0
C2044 C 0.48385 0.08825 0.04969 0.0
C2045 C 0.50649 0.09149 0.94341 0.0
C2046 C 0.49844 0.09011 0.9794 0.0
H2047 H 0.48229 0.08276 0.18837 0.0
H2048 H 0.4927 0.08199 0.12388 0.0
H2049 H 0.49475 0.0721 0.06221 0.0
H2050 H 0.5215 0.0745 0.87262 0.0
H2051 H 0.50897 0.07203 0.93299 0.0
C2052 C 0.6643 0.7258 0.90638 0.0
C2053 C 0.6595 0.71406 0.91225 0.0
C2054 C 0.66447 0.73101 0.8681 0.0
C2055 C 0.6488 0.73045 0.77156 0.0
H2056 H 0.67689 0.74906 0.73539 0.0
C2057 C 0.64926 0.75487 0.61755 0.0
C2058 C 0.65496 0.76637 0.61511 0.0
C2059 C 0.65038 0.7477 0.65214 0.0
C2060 C 0.66891 0.74405 0.74525 0.0
H2061 H 0.65171 0.69821 0.88302 0.0
H2062 H 0.65174 0.70749 0.81518 0.0
H2063 H 0.67805 0.73745 0.79806 0.0
H2064 H 0.6663 0.77936 0.64732 0.0
H2065 H 0.66793 0.76701 0.70845 0.0
H2066 H 0.63946 0.73739 0.71979 0.0
C2067 C 0.65528 0.71267 0.84048 0.0
C2068 C 0.66961 0.73732 0.78099 0.0
C2069 C 0.65527 0.70736 0.87902 0.0
C2070 C 0.66183 0.77053 0.64818 0.0
C2071 C 0.66282 0.7634 0.68311 0.0
C2072 C 0.64803 0.73731 0.73607 0.0
C2073 C 0.65986 0.72457 0.83478 0.0
C2074 C 0.65951 0.7306 0.79478 0.0
C2075 C 0.65711 0.75189 0.68549 0.0
C2076 C 0.65804 0.7443 0.72266 0.0
H2077 H 0.66784 0.73102 0.93163 0.0
H2078 H 0.66791 0.74024 0.86478 0.0
H2079 H 0.64086 0.7254 0.78159 0.0
H2080 H 0.644 0.75129 0.59249 0.0
H2081 H 0.64607 0.7388 0.65247 0.0
C2082 C 0.98851 0.89579 0.3712 0.0
C2083 C 0.9778 0.90278 0.36716 0.0
C2084 C 0.99514 0.89589 0.40716 0.0
C2085 C 0.99962 0.91416 0.50008 0.0
H2086 H 0.01586 0.88484 0.53832 0.0
C2087 C 0.01937 0.90974 0.6597 0.0
C2088 C 0.03108 0.90471 0.66365 0.0
C2089 C 0.01338 0.90953 0.62267 0.0
C2090 C 0.01146 0.89311 0.52771 0.0
H2091 H 0.9655 0.91513 0.39828 0.0
H2092 H 0.97688 0.91502 0.46159 0.0
H2093 H 0.0037 0.88407 0.47654 0.0
H2094 H 0.04606 0.89605 0.63218 0.0
H2095 H 0.03538 0.8954 0.56666 0.0
H2096 H 0.00712 0.92307 0.552 0.0
C2097 C 0.98033 0.9097 0.43649 0.0
C2098 C 0.00451 0.8927 0.49233 0.0
C2099 C 0.97375 0.9097 0.40028 0.0
C2100 C 0.03693 0.89978 0.62972 0.0
C2101 C 0.03083 0.8994 0.59252 0.0
C2102 C 0.00644 0.91452 0.53565 0.0
C2103 C 0.99117 0.90288 0.44023 0.0
C2104 C 0.99847 0.90322 0.47811 0.0
C2105 C 0.01901 0.9043 0.58877 0.0
C2106 C 0.01238 0.904 0.54986 0.0
H2107 H 0.99198 0.89041 0.34625 0.0
H2108 H 0.00354 0.89069 0.40862 0.0
H2109 H 0.99534 0.92251 0.48963 0.0
H2110 H 0.01481 0.91383 0.68544 0.0
H2111 H 0.00425 0.91328 0.62072 0.0
C2112 C 0.66188 0.7723 0.40773 0.0
C2113 C 0.65687 0.78398 0.41299 0.0
C2114 C 0.66218 0.76692 0.36971 0.0
C2115 C 0.64697 0.76674 0.27237 0.0
H2116 H 0.67603 0.74939 0.23761 0.0
C2117 C 0.64967 0.74308 0.11726 0.0
C2118 C 0.65577 0.73178 0.11484 0.0
C2119 C 0.6502 0.7501 0.15234 0.0
C2120 C 0.66779 0.75405 0.24707 0.0
H2121 H 0.64875 0.79953 0.38297 0.0
H2122 H 0.64902 0.78994 0.31556 0.0
H2123 H 0.67634 0.76094 0.30053 0.0
H2124 H 0.6672 0.71901 0.14759 0.0
H2125 H 0.66786 0.73112 0.20947 0.0
H2126 H 0.63825 0.75954 0.21976 0.0
C2127 C 0.65262 0.78495 0.34115 0.0
C2128 C 0.668 0.76073 0.28296 0.0
C2129 C 0.65248 0.79043 0.37943 0.0
C2130 C 0.66244 0.72768 0.14842 0.0
C2131 C 0.66287 0.73467 0.18379 0.0
C2132 C 0.64671 0.75993 0.23666 0.0
C2133 C 0.6575 0.77314 0.33605 0.0
C2134 C 0.65755 0.76703 0.29618 0.0
C2135 C 0.65674 0.74597 0.18616 0.0
C2136 C 0.65709 0.75342 0.22373 0.0
H2137 H 0.66553 0.76728 0.43322 0.0
H2138 H 0.66585 0.75777 0.36682 0.0
H2139 H 0.63877 0.77143 0.28202 0.0
H2140 H 0.64454 0.74662 0.09184 0.0
H2141 H 0.64558 0.75885 0.15271 0.0
C2142 C 0.47945 0.41178 0.66056 0.0
C2143 C 0.46765 0.40693 0.66398 0.0
C2144 C 0.48557 0.4115 0.62376 0.0
C2145 C 0.48739 0.39471 0.52943 0.0
H2146 H 0.5048 0.42331 0.49096 0.0
C2147 C 0.51028 0.39591 0.37317 0.0
C2148 C 0.5213 0.40237 0.36859 0.0
C2149 C 0.50374 0.39648 0.40919 0.0
C2150 C 0.50017 0.41518 0.50156 0.0
H2151 H 0.45262 0.39863 0.63175 0.0
H2152 H 0.4635 0.39786 0.56671 0.0
H2153 H 0.49289 0.42454 0.55299 0.0
H2154 H 0.53419 0.41432 0.39881 0.0
H2155 H 0.52292 0.41501 0.46237 0.0
H2156 H 0.49491 0.38521 0.47884 0.0
C2157 C 0.46803 0.40176 0.59278 0.0
C2158 C 0.49327 0.41592 0.53692 0.0
C2159 C 0.46181 0.40221 0.62971 0.0
C2160 C 0.52571 0.40928 0.40125 0.0
C2161 C 0.5192 0.40974 0.4376 0.0
C2162 C 0.49442 0.39391 0.49433 0.0
C2163 C 0.47999 0.40638 0.5896 0.0
C2164 C 0.48682 0.4057 0.55116 0.0
C2165 C 0.50808 0.4034 0.44188 0.0
C2166 C 0.50088 0.40415 0.47988 0.0
H2167 H 0.48399 0.41571 0.68658 0.0
H2168 H 0.49479 0.41504 0.62226 0.0
H2169 H 0.48264 0.38666 0.54011 0.0
H2170 H 0.50652 0.39057 0.34859 0.0
H2171 H 0.49511 0.39167 0.41102 0.0
C2172 C 0.83869 0.2726 0.64764 0.0
C2173 C 0.84549 0.26839 0.61446 0.0
C2174 C 0.8379 0.26558 0.68289 0.0
C2175 C 0.85323 0.2399 0.73626 0.0
H2176 H 0.82321 0.2393 0.79817 0.0
C2177 C 0.84655 0.20915 0.87735 0.0
C2178 C 0.8421 0.21552 0.91098 0.0
C2179 C 0.84647 0.21471 0.83922 0.0
C2180 C 0.83166 0.23939 0.78115 0.0
H2181 H 0.85654 0.25335 0.59204 0.0
H2182 H 0.85486 0.24108 0.65258 0.0
H2183 H 0.82413 0.25105 0.73573 0.0
H2184 H 0.83328 0.23211 0.93144 0.0
H2185 H 0.8331 0.24179 0.86527 0.0
H2186 H 0.86067 0.22809 0.78161 0.0
C2187 C 0.85043 0.24992 0.65206 0.0
C2188 C 0.83222 0.2462 0.74554 0.0
C2189 C 0.85133 0.25697 0.61715 0.0
C2190 C 0.837 0.22716 0.90588 0.0
C2191 C 0.83677 0.23263 0.86798 0.0
C2192 C 0.85262 0.23298 0.77164 0.0
C2193 C 0.84378 0.25415 0.68549 0.0
C2194 C 0.84306 0.24666 0.72289 0.0
C2195 C 0.84161 0.22654 0.83432 0.0
C2196 C 0.84189 0.23282 0.79475 0.0
H2197 H 0.83411 0.28137 0.6466 0.0
H2198 H 0.83283 0.26921 0.70828 0.0
H2199 H 0.86179 0.24017 0.71994 0.0
H2200 H 0.85034 0.20006 0.88074 0.0
H2201 H 0.85018 0.20979 0.81363 0.0
C2202 C 0.02092 0.59025 0.15991 0.0
C2203 C 0.03263 0.59525 0.16407 0.0
C2204 C 0.01497 0.59051 0.12282 0.0
C2205 C 0.01336 0.607 0.02773 0.0
H2206 H 0.99668 0.57788 0.98994 0.0
C2207 C 0.99065 0.60445 0.87089 0.0
C2208 C 0.97967 0.59787 0.86702 0.0
C2209 C 0.99724 0.60422 0.9069 0.0
C2210 C 0.00112 0.58614 0.00031 0.0
H2211 H 0.04766 0.6039 0.13289 0.0
H2212 H 0.03708 0.60461 0.06723 0.0
H2213 H 0.00841 0.57716 0.05239 0.0
H2214 H 0.96692 0.58607 0.89846 0.0
H2215 H 0.97829 0.58592 0.96182 0.0
H2216 H 0.00585 0.6161 0.97626 0.0
C2217 C 0.03248 0.60061 0.09299 0.0
C2218 C 0.00791 0.5857 0.03593 0.0
C2219 C 0.03853 0.60019 0.13026 0.0
C2220 C 0.97537 0.59118 0.90032 0.0
C2221 C 0.98193 0.59105 0.93656 0.0
C2222 C 0.00646 0.60749 0.99225 0.0
C2223 C 0.02064 0.59575 0.08903 0.0
C2224 C 0.01405 0.59613 0.05006 0.0
C2225 C 0.993 0.5975 0.94018 0.0
C2226 C 0.00024 0.59706 0.97815 0.0
H2227 H 0.01632 0.58616 0.18555 0.0
H2228 H 0.00582 0.5868 0.12076 0.0
H2229 H 0.01789 0.6152 0.03826 0.0
H2230 H 0.99433 0.60963 0.84582 0.0
H2231 H 0.00582 0.60913 0.9083 0.0
C2232 C 0.66145 0.27127 0.34659 0.0
C2233 C 0.65472 0.26705 0.37988 0.0
C2234 C 0.6623 0.2642 0.31148 0.0
C2235 C 0.64722 0.2383 0.25859 0.0
H2236 H 0.6771 0.23817 0.1959 0.0
C2237 C 0.65374 0.20824 0.11576 0.0
C2238 C 0.65798 0.21484 0.08235 0.0
C2239 C 0.65394 0.21357 0.15424 0.0
C2240 C 0.66869 0.23812 0.21316 0.0
H2241 H 0.64387 0.25192 0.40269 0.0
H2242 H 0.64567 0.23955 0.34235 0.0
H2243 H 0.67619 0.24978 0.25863 0.0
H2244 H 0.66657 0.23163 0.06259 0.0
H2245 H 0.66696 0.24091 0.12935 0.0
H2246 H 0.63982 0.2265 0.21317 0.0
C2247 C 0.64999 0.24845 0.34269 0.0
C2248 C 0.66814 0.24485 0.24893 0.0
C2249 C 0.64901 0.25555 0.37747 0.0
C2250 C 0.66301 0.22649 0.08798 0.0
C2251 C 0.66336 0.23174 0.12621 0.0
C2252 C 0.64784 0.23145 0.22306 0.0
C2253 C 0.65657 0.25269 0.30913 0.0
C2254 C 0.65733 0.24517 0.27181 0.0
C2255 C 0.65872 0.22541 0.15969 0.0
C2256 C 0.6585 0.23148 0.19962 0.0
H2257 H 0.66592 0.2801 0.34743 0.0
H2258 H 0.66731 0.26784 0.28598 0.0
H2259 H 0.63869 0.23845 0.27511 0.0
H2260 H 0.65001 0.19914 0.11193 0.0
H2261 H 0.65038 0.20847 0.17967 0.0
C2262 C 0.98031 0.39432 0.59686 0.0
C2263 C 0.97658 0.40494 0.6172 0.0
C2264 C 0.98698 0.39512 0.56109 0.0
C2265 C 0.99677 0.41683 0.48063 0.0
H2266 H 0.0215 0.39207 0.46246 0.0
C2267 C 0.03929 0.40493 0.36388 0.0
C2268 C 0.03347 0.40816 0.32777 0.0
C2269 C 0.03278 0.40517 0.40032 0.0
C2270 C 0.01479 0.39918 0.46735 0.0
H2271 H 0.97671 0.42472 0.61589 0.0
H2272 H 0.98876 0.42619 0.5542 0.0
H2273 H 0.00915 0.39131 0.5233 0.0
H2274 H 0.01683 0.41519 0.30126 0.0
H2275 H 0.00537 0.41521 0.36389 0.0
H2276 H 0.0028 0.42503 0.42566 0.0
C2277 C 0.98626 0.4172 0.5651 0.0
C2278 C 0.0075 0.39861 0.50193 0.0
C2279 C 0.97935 0.41639 0.60052 0.0
C2280 C 0.02137 0.41229 0.32872 0.0
C2281 C 0.01488 0.4125 0.3648 0.0
C2282 C 0.00418 0.41751 0.44643 0.0
C2283 C 0.99034 0.40656 0.54525 0.0
C2284 C 0.99828 0.40735 0.50881 0.0
C2285 C 0.02043 0.40884 0.40108 0.0
C2286 C 0.01318 0.4086 0.43905 0.0
H2287 H 0.9782 0.38536 0.60894 0.0
H2288 H 0.98961 0.38672 0.54613 0.0
H2289 H 0.98972 0.42367 0.48454 0.0
H2290 H 0.04873 0.402 0.36378 0.0
H2291 H 0.03742 0.40252 0.42782 0.0
C2292 C 0.83976 0.72986 0.84714 0.0
C2293 C 0.84646 0.7342 0.88033 0.0
C2294 C 0.83863 0.73697 0.8122 0.0
C2295 C 0.85287 0.76341 0.75958 0.0
H2296 H 0.82305 0.76248 0.69669 0.0
C2297 C 0.84541 0.79303 0.61623 0.0
C2298 C 0.84161 0.78614 0.58284 0.0
C2299 C 0.84529 0.7878 0.65486 0.0
C2300 C 0.83142 0.76284 0.71404 0.0
H2301 H 0.85698 0.74956 0.90316 0.0
H2302 H 0.85468 0.762 0.84318 0.0
H2303 H 0.82432 0.75094 0.75948 0.0
H2304 H 0.83386 0.76894 0.56323 0.0
H2305 H 0.83359 0.75985 0.63029 0.0
H2306 H 0.85987 0.77547 0.71419 0.0
C2307 C 0.8506 0.75299 0.84342 0.0
C2308 C 0.8322 0.75615 0.74984 0.0
C2309 C 0.85186 0.74584 0.878 0.0
C2310 C 0.83707 0.7743 0.58862 0.0
C2311 C 0.83679 0.76916 0.627 0.0
C2312 C 0.85203 0.77024 0.72406 0.0
C2313 C 0.84405 0.74863 0.80994 0.0
C2314 C 0.84301 0.75618 0.77274 0.0
C2315 C 0.84102 0.77578 0.66047 0.0
C2316 C 0.84139 0.76981 0.70054 0.0
H2317 H 0.83552 0.72092 0.84793 0.0
H2318 H 0.83367 0.73323 0.78676 0.0
H2319 H 0.86141 0.76355 0.77608 0.0
H2320 H 0.84875 0.80227 0.61227 0.0
H2321 H 0.84853 0.79312 0.68028 0.0
C2322 C 0.52301 0.58469 0.09867 0.0
C2323 C 0.52568 0.59598 0.11665 0.0
C2324 C 0.51626 0.58419 0.06285 0.0
C2325 C 0.49532 0.60331 0.00029 0.0
H2326 H 0.50024 0.57736 0.92246 0.0
C2327 C 0.48133 0.58992 0.82649 0.0
C2328 C 0.46918 0.59391 0.82591 0.0
C2329 C 0.48796 0.58988 0.86231 0.0
C2330 C 0.49881 0.58477 0.94361 0.0
H2331 H 0.52405 0.61562 0.11036 0.0
H2332 H 0.51293 0.61483 0.04684 0.0
H2333 H 0.51318 0.57839 0.9817 0.0
H2334 H 0.454 0.60004 0.86236 0.0
H2335 H 0.46553 0.59974 0.92596 0.0
H2336 H 0.4814 0.61008 0.96087 0.0
C2337 C 0.5155 0.60631 0.06106 0.0
C2338 C 0.50613 0.58525 0.97806 0.0
C2339 C 0.52201 0.60678 0.09726 0.0
C2340 C 0.46348 0.59722 0.86215 0.0
C2341 C 0.47011 0.59711 0.89834 0.0
C2342 C 0.48813 0.60296 0.96545 0.0
C2343 C 0.51226 0.59501 0.04386 0.0
C2344 C 0.5045 0.59453 0.0069 0.0
C2345 C 0.48249 0.59353 0.89874 0.0
C2346 C 0.48979 0.59369 0.93662 0.0
H2347 H 0.5256 0.57622 0.1133 0.0
H2348 H 0.51383 0.57531 0.05094 0.0
H2349 H 0.49359 0.61047 0.02212 0.0
H2350 H 0.48579 0.58696 0.79897 0.0
H2351 H 0.49748 0.58724 0.86112 0.0
C2352 C 0.33717 0.22651 0.58575 0.0
C2353 C 0.34222 0.21484 0.58049 0.0
C2354 C 0.33696 0.23193 0.62373 0.0
C2355 C 0.35276 0.23205 0.72023 0.0
H2356 H 0.32445 0.25041 0.75598 0.0
C2357 C 0.35175 0.25612 0.87461 0.0
C2358 C 0.34603 0.26761 0.87723 0.0
C2359 C 0.35074 0.24905 0.83977 0.0
C2360 C 0.33249 0.24547 0.74622 0.0
H2361 H 0.35037 0.19931 0.61052 0.0
H2362 H 0.35023 0.20895 0.67779 0.0
H2363 H 0.32345 0.23868 0.69348 0.0
H2364 H 0.33476 0.28067 0.8451 0.0
H2365 H 0.3333 0.26847 0.78353 0.0
H2366 H 0.36198 0.23913 0.77202 0.0
C2367 C 0.34655 0.21392 0.65226 0.0
C2368 C 0.33189 0.23868 0.71057 0.0
C2369 C 0.34662 0.20841 0.61405 0.0
C2370 C 0.33924 0.27185 0.8441 0.0
C2371 C 0.33835 0.26481 0.80891 0.0
C2372 C 0.35343 0.23895 0.75564 0.0
C2373 C 0.34175 0.22577 0.65734 0.0
C2374 C 0.34206 0.23201 0.697 0.0
C2375 C 0.34411 0.25332 0.80634 0.0
C2376 C 0.34332 0.24582 0.76895 0.0
H2377 H 0.3335 0.23151 0.56026 0.0
H2378 H 0.33334 0.2411 0.62656 0.0
H2379 H 0.36077 0.22707 0.71032 0.0
H2380 H 0.35694 0.25247 0.8997 0.0
H2381 H 0.35508 0.24016 0.83929 0.0
C2382 C 0.48004 0.58508 0.59929 0.0
C2383 C 0.47755 0.59655 0.61633 0.0
C2384 C 0.48684 0.5842 0.56367 0.0
C2385 C 0.50826 0.60246 0.5002 0.0
H2386 H 0.50293 0.57613 0.42404 0.0
C2387 C 0.52193 0.58817 0.3272 0.0
C2388 C 0.53412 0.59205 0.32636 0.0
C2389 C 0.51537 0.58821 0.36315 0.0
C2390 C 0.50448 0.58363 0.44475 0.0
H2391 H 0.47955 0.6161 0.60856 0.0
H2392 H 0.49077 0.61465 0.54536 0.0
H2393 H 0.48994 0.57779 0.48302 0.0
H2394 H 0.54944 0.598 0.36247 0.0
H2395 H 0.53802 0.59789 0.42628 0.0
H2396 H 0.52233 0.60871 0.46054 0.0
C2397 C 0.48801 0.60628 0.56019 0.0
C2398 C 0.49712 0.58447 0.47903 0.0
C2399 C 0.48145 0.60713 0.59619 0.0
C2400 C 0.53993 0.59527 0.36247 0.0
C2401 C 0.53337 0.59527 0.39878 0.0
C2402 C 0.51548 0.60174 0.46552 0.0
C2403 C 0.49107 0.5948 0.54395 0.0
C2404 C 0.49889 0.59391 0.50724 0.0
C2405 C 0.52095 0.59186 0.39942 0.0
C2406 C 0.51366 0.59233 0.43729 0.0
H2407 H 0.47726 0.57677 0.61451 0.0
H2408 H 0.48913 0.57519 0.5525 0.0
H2409 H 0.51009 0.60972 0.52156 0.0
H2410 H 0.51739 0.58526 0.29976 0.0
H2411 H 0.50582 0.58569 0.36215 0.0
C2412 C 0.16699 0.73151 0.35573 0.0
C2413 C 0.15538 0.72874 0.37105 0.0
C2414 C 0.16819 0.73871 0.32106 0.0
C2415 C 0.15036 0.76057 0.25766 0.0
H2416 H 0.17688 0.75552 0.18215 0.0
C2417 C 0.16342 0.7729 0.08339 0.0
C2418 C 0.15904 0.78491 0.08108 0.0
C2419 C 0.16408 0.76691 0.12034 0.0
C2420 C 0.16936 0.75702 0.20276 0.0
H2421 H 0.13592 0.73069 0.36116 0.0
H2422 H 0.13795 0.74262 0.29962 0.0
H2423 H 0.17528 0.74253 0.24123 0.0
H2424 H 0.15295 0.80057 0.11537 0.0
H2425 H 0.15423 0.79013 0.18095 0.0
H2426 H 0.14401 0.77455 0.21778 0.0
C2427 C 0.14618 0.73977 0.31512 0.0
C2428 C 0.16854 0.74965 0.23706 0.0
C2429 C 0.145 0.73279 0.35013 0.0
C2430 C 0.15607 0.79118 0.1166 0.0
C2431 C 0.15676 0.78518 0.15392 0.0
C2432 C 0.15108 0.76781 0.22301 0.0
C2433 C 0.15778 0.7431 0.30064 0.0
C2434 C 0.15895 0.75123 0.26477 0.0
C2435 C 0.16061 0.77289 0.15609 0.0
C2436 C 0.16049 0.76602 0.19484 0.0
H2437 H 0.17514 0.72861 0.37161 0.0
H2438 H 0.17728 0.74117 0.31115 0.0
H2439 H 0.14301 0.76228 0.27876 0.0
H2440 H 0.1661 0.76802 0.05633 0.0
H2441 H 0.16691 0.75743 0.1205 0.0
C2442 C 0.96209 0.40372 0.86297 0.0
C2443 C 0.96795 0.40703 0.82703 0.0
C2444 C 0.96859 0.40367 0.89941 0.0
C2445 C 0.98623 0.39755 0.96729 0.0
H2446 H 0.01167 0.42163 0.98447 0.0
C2447 C 0.01971 0.39313 0.10018 0.0
C2448 C 0.0237 0.40386 0.11926 0.0
C2449 C 0.01319 0.3937 0.06403 0.0
C2450 C 0.00451 0.41491 0.9806 0.0
H2451 H 0.98474 0.41384 0.8009 0.0
H2452 H 0.99621 0.41323 0.86342 0.0
H2453 H 0.99895 0.42292 0.92484 0.0
H2454 H 0.0241 0.42361 0.1156 0.0
H2455 H 0.01227 0.42472 0.05344 0.0
H2456 H 0.99133 0.38995 0.02421 0.0
C2457 C 0.98666 0.41072 0.86422 0.0
C2458 C 0.99731 0.41553 0.9459 0.0
C2459 C 0.98015 0.41086 0.82817 0.0
C2460 C 0.02126 0.41519 0.10118 0.0
C2461 C 0.01448 0.4158 0.06546 0.0
C2462 C 0.99327 0.39707 0.00244 0.0
C2463 C 0.98101 0.40708 0.90036 0.0
C2464 C 0.98817 0.40678 0.93853 0.0
C2465 C 0.01024 0.40506 0.0466 0.0
C2466 C 0.0026 0.40568 0.0094 0.0
H2467 H 0.95257 0.40104 0.86276 0.0
H2468 H 0.96387 0.40106 0.92679 0.0
H2469 H 0.97939 0.39055 0.96245 0.0
H2470 H 0.02157 0.38426 0.11338 0.0
H2471 H 0.01041 0.38522 0.04995 0.0
C2472 C 0.3385 0.77133 0.9141 0.0
C2473 C 0.34337 0.78313 0.91793 0.0
C2474 C 0.33876 0.76532 0.8771 0.0
C2475 C 0.3552 0.76373 0.78202 0.0
H2476 H 0.3263 0.7467 0.74427 0.0
C2477 C 0.35305 0.74098 0.62532 0.0
C2478 C 0.34658 0.72993 0.62128 0.0
C2479 C 0.35269 0.74757 0.66132 0.0
C2480 C 0.33451 0.75124 0.75463 0.0
H2481 H 0.35173 0.79824 0.88625 0.0
H2482 H 0.35245 0.78753 0.8208 0.0
H2483 H 0.32544 0.75847 0.80669 0.0
H2484 H 0.33482 0.71706 0.65238 0.0
H2485 H 0.33445 0.72844 0.71578 0.0
H2486 H 0.36438 0.75628 0.73065 0.0
C2487 C 0.34856 0.78293 0.84673 0.0
C2488 C 0.33398 0.75805 0.79023 0.0
C2489 C 0.34813 0.78904 0.88389 0.0
C2490 C 0.33985 0.72556 0.65439 0.0
C2491 C 0.33959 0.73213 0.69065 0.0
C2492 C 0.35577 0.75681 0.7466 0.0
C2493 C 0.34387 0.771 0.84311 0.0
C2494 C 0.34432 0.76433 0.8043 0.0
C2495 C 0.34595 0.74326 0.69445 0.0
C2496 C 0.34542 0.75047 0.73247 0.0
H2497 H 0.33454 0.76672 0.93993 0.0
H2498 H 0.33518 0.75611 0.87528 0.0
H2499 H 0.36334 0.76837 0.79253 0.0
H2500 H 0.35825 0.7447 0.60038 0.0
H2501 H 0.35751 0.7562 0.66282 0.0
C2502 C 0.95851 0.59268 0.62757 0.0
C2503 C 0.96499 0.58975 0.66272 0.0
C2504 C 0.96428 0.59191 0.58987 0.0
C2505 C 0.98123 0.59765 0.51987 0.0
H2506 H 0.00665 0.57369 0.50035 0.0
C2507 C 0.01605 0.6045 0.39273 0.0
C2508 C 0.02032 0.59423 0.37164 0.0
C2509 C 0.00902 0.60311 0.42752 0.0
C2510 C 0.99948 0.58036 0.50486 0.0
H2511 H 0.98196 0.58261 0.68646 0.0
H2512 H 0.99215 0.58167 0.62162 0.0
H2513 H 0.99385 0.57184 0.55977 0.0
H2514 H 0.02074 0.57445 0.37041 0.0
H2515 H 0.00806 0.57194 0.43044 0.0
H2516 H 0.98652 0.60589 0.46414 0.0
C2517 C 0.98269 0.58453 0.62234 0.0
C2518 C 0.99222 0.5794 0.53936 0.0
C2519 C 0.97693 0.58528 0.65968 0.0
C2520 C 0.01767 0.58252 0.38645 0.0
C2521 C 0.0104 0.58111 0.42088 0.0
C2522 C 0.98835 0.59849 0.48499 0.0
C2523 C 0.97653 0.58802 0.58694 0.0
C2524 C 0.9832 0.58819 0.54781 0.0
C2525 C 0.00584 0.5914 0.44157 0.0
C2526 C 0.99775 0.59001 0.47745 0.0
H2527 H 0.94917 0.59587 0.62937 0.0
H2528 H 0.95918 0.59444 0.56314 0.0
H2529 H 0.97447 0.60467 0.52548 0.0
H2530 H 0.01806 0.61364 0.3821 0.0
H2531 H 0.00603 0.61125 0.44324 0.0
C2532 C 0.14702 0.25988 0.1241 0.0
C2533 C 0.1537 0.2708 0.12007 0.0
C2534 C 0.14711 0.25338 0.16029 0.0
C2535 C 0.15191 0.25671 0.26867 0.0
H2536 H 0.15738 0.22168 0.26667 0.0
C2537 C 0.15989 0.22972 0.41443 0.0
C2538 C 0.15504 0.21791 0.41765 0.0
C2539 C 0.15952 0.23596 0.37785 0.0
C2540 C 0.15563 0.23142 0.26777 0.0
H2541 H 0.16566 0.28349 0.15124 0.0
H2542 H 0.16569 0.27213 0.21493 0.0
H2543 H 0.15721 0.23317 0.20356 0.0
H2544 H 0.14655 0.20302 0.38531 0.0
H2545 H 0.14541 0.21411 0.32097 0.0
H2546 H 0.15016 0.25504 0.33257 0.0
C2547 C 0.1604 0.26865 0.18979 0.0
C2548 C 0.15561 0.238 0.23162 0.0
C2549 C 0.16041 0.27512 0.15332 0.0
C2550 C 0.15017 0.21221 0.38341 0.0
C2551 C 0.14962 0.21854 0.34668 0.0
C2552 C 0.15182 0.25013 0.30475 0.0
C2553 C 0.1538 0.25769 0.19347 0.0
C2554 C 0.15382 0.25072 0.23178 0.0
C2555 C 0.15425 0.23054 0.34356 0.0
C2556 C 0.15377 0.23741 0.30484 0.0
H2557 H 0.14176 0.25623 0.09914 0.0
H2558 H 0.14185 0.24503 0.16244 0.0
H2559 H 0.15032 0.26648 0.26958 0.0
H2560 H 0.16403 0.23413 0.44034 0.0
H2561 H 0.1635 0.245 0.37647 0.0
C2562 C 0.52237 0.41329 0.16121 0.0
C2563 C 0.53439 0.40894 0.16309 0.0
C2564 C 0.51623 0.41384 0.12452 0.0
C2565 C 0.50605 0.41904 0.04245 0.0
H2566 H 0.51126 0.3928 0.96588 0.0
C2567 C 0.48069 0.4172 0.88931 0.0
C2568 C 0.47801 0.40565 0.8732 0.0
C2569 C 0.4878 0.41824 0.92423 0.0
C2570 C 0.50955 0.40012 0.98715 0.0
H2571 H 0.5499 0.4028 0.12823 0.0
H2572 H 0.5392 0.40393 0.0631 0.0
H2573 H 0.52355 0.3937 0.0268 0.0
H2574 H 0.48 0.38614 0.8819 0.0
H2575 H 0.49175 0.38787 0.94395 0.0
H2576 H 0.49153 0.42503 0.00426 0.0
C2577 C 0.53435 0.40649 0.0903 0.0
C2578 C 0.51681 0.40077 0.02177 0.0
C2579 C 0.54051 0.4059 0.12736 0.0
C2580 C 0.48204 0.39516 0.89358 0.0
C2581 C 0.48891 0.39617 0.92888 0.0
C2582 C 0.49865 0.41827 0.00822 0.0
C2583 C 0.52206 0.41031 0.08858 0.0
C2584 C 0.51507 0.41017 0.05008 0.0
C2585 C 0.49216 0.40772 0.94415 0.0
C2586 C 0.50023 0.40874 0.98024 0.0
H2587 H 0.5176 0.41603 0.18842 0.0
H2588 H 0.50675 0.41665 0.12472 0.0
H2589 H 0.50458 0.42655 0.06317 0.0
H2590 H 0.47782 0.42544 0.87384 0.0
H2591 H 0.49022 0.42729 0.93469 0.0
C2592 C 0.13697 0.32614 0.05769 0.0
C2593 C 0.13212 0.31478 0.04578 0.0
C2594 C 0.12939 0.33521 0.074 0.0
C2595 C 0.0966 0.34392 0.08407 0.0
H2596 H 0.10774 0.36252 0.17677 0.0
C2597 C 0.06318 0.36826 0.18956 0.0
C2598 C 0.06542 0.38067 0.19798 0.0
C2599 C 0.07205 0.36106 0.17087 0.0
C2600 C 0.10457 0.35747 0.15066 0.0
H2601 H 0.1154 0.3042 0.0414 0.0
H2602 H 0.10238 0.31976 0.07035 0.0
H2603 H 0.12181 0.34854 0.14255 0.0
H2604 H 0.07906 0.39503 0.19497 0.0
H2605 H 0.09469 0.38227 0.16283 0.0
H2606 H 0.07926 0.35251 0.09308 0.0
C2607 C 0.11197 0.32182 0.06642 0.0
C2608 C 0.11262 0.3495 0.13091 0.0
C2609 C 0.1195 0.31282 0.04998 0.0
C2610 C 0.077 0.38553 0.18885 0.0
C2611 C 0.08596 0.37824 0.1705 0.0
C2612 C 0.08855 0.35175 0.10404 0.0
C2613 C 0.11679 0.33313 0.07886 0.0
C2614 C 0.10867 0.34246 0.09777 0.0
C2615 C 0.08344 0.36601 0.16048 0.0
C2616 C 0.09238 0.35844 0.13792 0.0
H2617 H 0.14664 0.328 0.05484 0.0
H2618 H 0.1334 0.34386 0.08278 0.0
H2619 H 0.0933 0.33892 0.05805 0.0
H2620 H 0.05443 0.36414 0.19623 0.0
H2621 H 0.06993 0.35161 0.16409 0.0
C2622 C 0.88145 0.81473 0.45451 0.0
C2623 C 0.8689 0.81426 0.44587 0.0
C2624 C 0.88888 0.82359 0.43666 0.0
C2625 C 0.88824 0.85288 0.37875 0.0
H2626 H 0.92076 0.8425 0.34807 0.0
C2627 C 0.93315 0.86976 0.27968 0.0
C2628 C 0.93367 0.88211 0.29124 0.0
C2629 C 0.92445 0.86192 0.29645 0.0
C2630 C 0.91166 0.84554 0.35584 0.0
H2631 H 0.85428 0.82292 0.4122 0.0
H2632 H 0.86729 0.83814 0.38014 0.0
H2633 H 0.90725 0.82822 0.38153 0.0
H2634 H 0.92521 0.89598 0.32869 0.0
H2635 H 0.91027 0.88224 0.35892 0.0
H2636 H 0.89254 0.8701 0.35149 0.0
C2637 C 0.87137 0.83184 0.4014 0.0
C2638 C 0.90395 0.83738 0.37583 0.0
C2639 C 0.8639 0.82306 0.4197 0.0
C2640 C 0.92501 0.88653 0.31895 0.0
C2641 C 0.91641 0.87864 0.33621 0.0
C2642 C 0.89593 0.86103 0.35833 0.0
C2643 C 0.88401 0.83212 0.4092 0.0
C2644 C 0.89215 0.84094 0.38781 0.0
C2645 C 0.91617 0.86616 0.32578 0.0
C2646 C 0.90776 0.85748 0.34665 0.0
H2647 H 0.88558 0.80818 0.47488 0.0
H2648 H 0.89849 0.8237 0.4443 0.0
H2649 H 0.87926 0.85601 0.38779 0.0
H2650 H 0.93959 0.86608 0.25803 0.0
H2651 H 0.92435 0.85248 0.28674 0.0
C2652 C 0.38111 0.68889 0.55881 0.0
C2653 C 0.36885 0.68628 0.54956 0.0
C2654 C 0.38847 0.68021 0.57778 0.0
C2655 C 0.39275 0.64761 0.59681 0.0
H2656 H 0.4112 0.65897 0.68946 0.0
C2657 C 0.42488 0.61549 0.68766 0.0
C2658 C 0.43621 0.62051 0.69885 0.0
C2659 C 0.41557 0.62296 0.67227 0.0
C2660 C 0.40622 0.65565 0.66345 0.0
H2661 H 0.3549 0.6722 0.55165 0.0
H2662 H 0.36793 0.65691 0.58429 0.0
H2663 H 0.39734 0.67289 0.65504 0.0
H2664 H 0.44647 0.63745 0.70331 0.0
H2665 H 0.4305 0.65029 0.67602 0.0
H2666 H 0.40195 0.63048 0.60432 0.0
C2667 C 0.37173 0.66578 0.57703 0.0
C2668 C 0.39824 0.66363 0.6438 0.0
C2669 C 0.36429 0.67455 0.55842 0.0
C2670 C 0.43788 0.63321 0.69515 0.0
C2671 C 0.42865 0.64063 0.67969 0.0
C2672 C 0.40085 0.63963 0.61624 0.0
C2673 C 0.38383 0.66863 0.58763 0.0
C2674 C 0.39158 0.65977 0.60988 0.0
C2675 C 0.41739 0.63562 0.66773 0.0
C2676 C 0.40786 0.64363 0.64938 0.0
H2677 H 0.38499 0.69779 0.55243 0.0
H2678 H 0.39782 0.68259 0.58503 0.0
H2679 H 0.38774 0.64441 0.57066 0.0
H2680 H 0.42324 0.60575 0.69014 0.0
H2681 H 0.40697 0.61881 0.66384 0.0
C2682 C 0.63471 0.17598 0.93348 0.0
C2683 C 0.63006 0.18745 0.94507 0.0
C2684 C 0.62697 0.16699 0.91752 0.0
C2685 C 0.59411 0.15858 0.90996 0.0
H2686 H 0.60454 0.13912 0.81833 0.0
C2687 C 0.55989 0.13286 0.81057 0.0
C2688 C 0.56243 0.12057 0.80113 0.0
C2689 C 0.56873 0.14026 0.8285 0.0
C2690 C 0.60156 0.1444 0.84418 0.0
H2691 H 0.61353 0.19837 0.94884 0.0
H2692 H 0.60022 0.18291 0.92057 0.0
H2693 H 0.61887 0.15336 0.84995 0.0
H2694 H 0.57652 0.10662 0.80203 0.0
H2695 H 0.59206 0.11971 0.83305 0.0
H2696 H 0.57673 0.14988 0.90352 0.0
C2697 C 0.60979 0.18072 0.92448 0.0
C2698 C 0.60977 0.15254 0.8624 0.0
C2699 C 0.61748 0.18965 0.94051 0.0
C2700 C 0.57422 0.11602 0.80897 0.0
C2701 C 0.58314 0.12351 0.82663 0.0
C2702 C 0.58591 0.15055 0.89158 0.0
C2703 C 0.61441 0.16926 0.91276 0.0
C2704 C 0.60607 0.15988 0.89514 0.0
C2705 C 0.5804 0.13565 0.83722 0.0
C2706 C 0.58948 0.14351 0.85811 0.0
H2707 H 0.64434 0.17394 0.93659 0.0
H2708 H 0.63083 0.15823 0.90922 0.0
H2709 H 0.59102 0.16384 0.93572 0.0
H2710 H 0.55096 0.13674 0.8049 0.0
H2711 H 0.56641 0.14964 0.83569 0.0
C2712 C 0.06012 0.63219 0.31393 0.0
C2713 C 0.0626 0.62004 0.30259 0.0
C2714 C 0.06904 0.63931 0.33265 0.0
C2715 C 0.10185 0.64339 0.34691 0.0
H2716 H 0.09172 0.66154 0.4418 0.0
C2717 C 0.13487 0.67542 0.43511 0.0
C2718 C 0.12991 0.68672 0.4471 0.0
C2719 C 0.1273 0.66614 0.42001 0.0
C2720 C 0.09469 0.65662 0.41517 0.0
H2721 H 0.07664 0.60605 0.30094 0.0
H2722 H 0.09234 0.61867 0.33326 0.0
H2723 H 0.07742 0.64767 0.40911 0.0
H2724 H 0.11302 0.69699 0.45297 0.0
H2725 H 0.10003 0.68105 0.42628 0.0
H2726 H 0.11901 0.65267 0.3522 0.0
C2727 C 0.0834 0.62257 0.32777 0.0
C2728 C 0.0865 0.64865 0.39652 0.0
C2729 C 0.0744 0.61535 0.30937 0.0
C2730 C 0.11722 0.68843 0.44417 0.0
C2731 C 0.1097 0.67921 0.42908 0.0
C2732 C 0.11005 0.65148 0.36542 0.0
C2733 C 0.08072 0.63455 0.34023 0.0
C2734 C 0.08989 0.64214 0.36174 0.0
C2735 C 0.11462 0.66795 0.41665 0.0
C2736 C 0.10647 0.65839 0.3993 0.0
H2737 H 0.05119 0.63617 0.30918 0.0
H2738 H 0.06677 0.64859 0.34132 0.0
H2739 H 0.10469 0.6385 0.32007 0.0
H2740 H 0.1446 0.67376 0.43695 0.0
H2741 H 0.13139 0.65754 0.41106 0.0
C2742 C 0.61941 0.80921 0.5711 0.0
C2743 C 0.63126 0.81181 0.55712 0.0
C2744 C 0.61252 0.81815 0.59077 0.0
C2745 C 0.60837 0.85111 0.60245 0.0
H2746 H 0.59165 0.84189 0.70105 0.0
C2747 C 0.57738 0.88513 0.68988 0.0
C2748 C 0.56624 0.8803 0.70388 0.0
C2749 C 0.58657 0.87737 0.67529 0.0
C2750 C 0.59616 0.84461 0.67338 0.0
H2751 H 0.645 0.82602 0.5521 0.0
H2752 H 0.6328 0.84172 0.586 0.0
H2753 H 0.60502 0.82725 0.66768 0.0
H2754 H 0.55627 0.86344 0.71445 0.0
H2755 H 0.57204 0.8501 0.68858 0.0
H2756 H 0.59918 0.86833 0.6073 0.0
C2757 C 0.62894 0.83269 0.58185 0.0
C2758 C 0.60385 0.83622 0.65434 0.0
C2759 C 0.63593 0.82368 0.56256 0.0
C2760 C 0.56469 0.86754 0.70395 0.0
C2761 C 0.57382 0.85983 0.68933 0.0
C2762 C 0.60056 0.85949 0.62132 0.0
C2763 C 0.61723 0.82996 0.59661 0.0
C2764 C 0.60987 0.83929 0.61829 0.0
C2765 C 0.58484 0.86462 0.67442 0.0
C2766 C 0.59417 0.85626 0.65663 0.0
H2767 H 0.6155 0.80019 0.56751 0.0
H2768 H 0.60346 0.81583 0.60132 0.0
H2769 H 0.61286 0.8537 0.5746 0.0
H2770 H 0.57891 0.8949 0.68942 0.0
H2771 H 0.595 0.88137 0.6645 0.0
C2772 C 0.43827 0.3678 0.7956 0.0
C2773 C 0.43648 0.38051 0.79332 0.0
C2774 C 0.42909 0.36014 0.81014 0.0
C2775 C 0.40136 0.36013 0.87364 0.0
H2776 H 0.39776 0.32752 0.82929 0.0
C2777 C 0.3654 0.32454 0.92991 0.0
C2778 C 0.37003 0.3127 0.9366 0.0
C2779 C 0.37259 0.33347 0.91105 0.0
C2780 C 0.39869 0.33659 0.84208 0.0
H2781 H 0.4234 0.39506 0.80384 0.0
H2782 H 0.40725 0.38161 0.82872 0.0
H2783 H 0.41159 0.34195 0.79708 0.0
H2784 H 0.38596 0.3011 0.92899 0.0
H2785 H 0.39836 0.31658 0.89607 0.0
H2786 H 0.38838 0.35464 0.91872 0.0
C2787 C 0.41589 0.37762 0.81976 0.0
C2788 C 0.40664 0.34486 0.82369 0.0
C2789 C 0.42512 0.38533 0.80522 0.0
C2790 C 0.38205 0.31008 0.92436 0.0
C2791 C 0.38915 0.31893 0.90519 0.0
C2792 C 0.39331 0.35185 0.89188 0.0
C2793 C 0.4178 0.36493 0.82265 0.0
C2794 C 0.40831 0.35665 0.83976 0.0
C2795 C 0.38449 0.33069 0.89803 0.0
C2796 C 0.39211 0.33991 0.8768 0.0
H2797 H 0.44688 0.36371 0.78681 0.0
H2798 H 0.43101 0.35045 0.81255 0.0
H2799 H 0.40248 0.36908 0.88705 0.0
H2800 H 0.3562 0.3269 0.939 0.0
H2801 H 0.36876 0.34246 0.90585 0.0
C2802 C 0.88218 0.19003 0.05484 0.0
C2803 C 0.86973 0.1876 0.04818 0.0
C2804 C 0.88983 0.18115 0.07144 0.0
C2805 C 0.88952 0.15251 0.13132 0.0
H2806 H 0.92325 0.15093 0.09622 0.0
C2807 C 0.92492 0.11616 0.18708 0.0
C2808 C 0.93648 0.12084 0.19754 0.0
C2809 C 0.91614 0.12368 0.1688 0.0
C2810 C 0.91387 0.1513 0.10648 0.0
H2811 H 0.85566 0.17373 0.05335 0.0
H2812 H 0.86911 0.15811 0.08161 0.0
H2813 H 0.9092 0.16484 0.06267 0.0
H2814 H 0.94764 0.13726 0.19786 0.0
H2815 H 0.93243 0.15021 0.16594 0.0
H2816 H 0.89431 0.13881 0.17502 0.0
C2817 C 0.87289 0.16701 0.0746 0.0
C2818 C 0.9058 0.1593 0.08734 0.0
C2819 C 0.86518 0.17595 0.05813 0.0
C2820 C 0.9389 0.13328 0.19014 0.0
C2821 C 0.9302 0.14071 0.17158 0.0
C2822 C 0.8976 0.14439 0.15028 0.0
C2823 C 0.88531 0.16951 0.0816 0.0
C2824 C 0.89358 0.16021 0.09998 0.0
C2825 C 0.9188 0.13598 0.1602 0.0
C2826 C 0.90991 0.14388 0.13854 0.0
H2827 H 0.88604 0.19889 0.04786 0.0
H2828 H 0.89927 0.18352 0.07708 0.0
H2829 H 0.88021 0.15302 0.14214 0.0
H2830 H 0.92272 0.10665 0.1924 0.0
H2831 H 0.90742 0.11979 0.16031 0.0
C2832 C 0.88369 0.69187 0.93076 0.0
C2833 C 0.87144 0.68932 0.94037 0.0
C2834 C 0.89114 0.68294 0.91348 0.0
C2835 C 0.89025 0.65347 0.8579 0.0
H2836 H 0.92447 0.65264 0.88771 0.0
C2837 C 0.92497 0.61608 0.80524 0.0
C2838 C 0.93644 0.62047 0.79256 0.0
C2839 C 0.91639 0.62402 0.82254 0.0
C2840 C 0.91495 0.65281 0.87888 0.0
H2841 H 0.8575 0.67524 0.9395 0.0
H2842 H 0.87062 0.65954 0.9101 0.0
H2843 H 0.91084 0.66704 0.92089 0.0
H2844 H 0.9476 0.6368 0.78692 0.0
H2845 H 0.93272 0.65049 0.81714 0.0
H2846 H 0.89447 0.63905 0.81614 0.0
C2847 C 0.87438 0.66855 0.91531 0.0
C2848 C 0.90712 0.66109 0.89781 0.0
C2849 C 0.86687 0.67754 0.93242 0.0
C2850 C 0.93893 0.63303 0.79649 0.0
C2851 C 0.93042 0.6409 0.81405 0.0
C2852 C 0.89809 0.64508 0.83917 0.0
C2853 C 0.88662 0.67114 0.9056 0.0
C2854 C 0.89471 0.6617 0.88713 0.0
C2855 C 0.91914 0.63646 0.82789 0.0
C2856 C 0.91056 0.64481 0.84903 0.0
H2857 H 0.88753 0.70084 0.93609 0.0
H2858 H 0.90042 0.68538 0.90568 0.0
H2859 H 0.88077 0.65374 0.84861 0.0
H2860 H 0.92272 0.60648 0.80261 0.0
H2861 H 0.90776 0.62035 0.83297 0.0
C2862 C 0.11761 0.18797 0.55409 0.0
C2863 C 0.13029 0.18624 0.55031 0.0
C2864 C 0.11017 0.17872 0.56933 0.0
C2865 C 0.11078 0.15078 0.63196 0.0
H2866 H 0.07787 0.14731 0.59033 0.0
C2867 C 0.07518 0.11459 0.68825 0.0
C2868 C 0.06346 0.11935 0.69605 0.0
C2869 C 0.08415 0.12186 0.66986 0.0
C2870 C 0.08703 0.14819 0.60234 0.0
H2871 H 0.145 0.17323 0.55909 0.0
H2872 H 0.13189 0.15695 0.58524 0.0
H2873 H 0.09204 0.16118 0.55717 0.0
H2874 H 0.05218 0.13564 0.69145 0.0
H2875 H 0.06771 0.14812 0.6593 0.0
H2876 H 0.10563 0.13768 0.67717 0.0
C2877 C 0.12778 0.16558 0.57684 0.0
C2878 C 0.09515 0.15617 0.58343 0.0
C2879 C 0.13528 0.17489 0.56158 0.0
C2880 C 0.06105 0.13161 0.68588 0.0
C2881 C 0.06993 0.13877 0.66717 0.0
C2882 C 0.10265 0.14268 0.65072 0.0
C2883 C 0.11513 0.16742 0.58106 0.0
C2884 C 0.10704 0.15782 0.59857 0.0
C2885 C 0.08151 0.13394 0.65845 0.0
C2886 C 0.0906 0.14155 0.63665 0.0
H2887 H 0.11339 0.19656 0.54586 0.0
H2888 H 0.10051 0.18058 0.57281 0.0
H2889 H 0.11983 0.15188 0.64461 0.0
H2890 H 0.07737 0.10522 0.69576 0.0
H2891 H 0.09301 0.11791 0.66349 0.0
C2892 C 0.56266 0.36691 0.29441 0.0
C2893 C 0.56464 0.37959 0.29189 0.0
C2894 C 0.57164 0.35916 0.30985 0.0
C2895 C 0.59912 0.35907 0.37493 0.0
H2896 H 0.60248 0.32618 0.3327 0.0
C2897 C 0.63509 0.32375 0.4326 0.0
C2898 C 0.63054 0.31192 0.43992 0.0
C2899 C 0.6278 0.33257 0.41358 0.0
C2900 C 0.60161 0.33533 0.34493 0.0
H2901 H 0.57786 0.39398 0.30283 0.0
H2902 H 0.59366 0.38038 0.32912 0.0
H2903 H 0.58884 0.34056 0.29933 0.0
H2904 H 0.61465 0.30021 0.43334 0.0
H2905 H 0.60208 0.31552 0.40009 0.0
H2906 H 0.61201 0.35374 0.42048 0.0
C2907 C 0.58503 0.37648 0.31976 0.0
C2908 C 0.59377 0.34357 0.32587 0.0
C2909 C 0.57599 0.38428 0.3044 0.0
C2910 C 0.61849 0.3092 0.42823 0.0
C2911 C 0.61129 0.31795 0.40888 0.0
C2912 C 0.60707 0.35083 0.3938 0.0
C2913 C 0.58293 0.36383 0.32299 0.0
C2914 C 0.59221 0.35548 0.34108 0.0
C2915 C 0.61588 0.3297 0.40104 0.0
C2916 C 0.60821 0.3388 0.37945 0.0
H2917 H 0.55405 0.36292 0.28522 0.0
H2918 H 0.56958 0.34952 0.31247 0.0
H2919 H 0.59807 0.36812 0.38776 0.0
H2920 H 0.6443 0.32618 0.44126 0.0
H2921 H 0.63158 0.34155 0.40785 0.0
C2922 C 0.38135 0.81212 0.05597 0.0
C2923 C 0.36871 0.81394 0.05151 0.0
C2924 C 0.3888 0.82133 0.0714 0.0
C2925 C 0.38818 0.84953 0.13297 0.0
H2926 H 0.42128 0.85251 0.0927 0.0
C2927 C 0.42428 0.88561 0.18799 0.0
C2928 C 0.43584 0.88062 0.19673 0.0
C2929 C 0.41517 0.8784 0.17004 0.0
C2930 C 0.41206 0.85177 0.1043 0.0
H2931 H 0.35407 0.82711 0.05935 0.0
H2932 H 0.3672 0.84332 0.08576 0.0
H2933 H 0.40712 0.83864 0.0595 0.0
H2934 H 0.44664 0.86395 0.19466 0.0
H2935 H 0.4309 0.85159 0.16326 0.0
H2936 H 0.39328 0.8628 0.17779 0.0
C2937 C 0.37127 0.83464 0.07778 0.0
C2938 C 0.40394 0.84379 0.08539 0.0
C2939 C 0.36376 0.82536 0.06238 0.0
C2940 C 0.43791 0.86818 0.18825 0.0
C2941 C 0.4289 0.86108 0.17 0.0
C2942 C 0.39631 0.85765 0.15171 0.0
C2943 C 0.38389 0.83271 0.08261 0.0
C2944 C 0.39199 0.8423 0.10009 0.0
C2945 C 0.41753 0.86614 0.16005 0.0
C2946 C 0.40842 0.85859 0.13814 0.0
H2947 H 0.38553 0.80346 0.04814 0.0
H2948 H 0.39842 0.81939 0.07539 0.0
H2949 H 0.37907 0.84857 0.14527 0.0
H2950 H 0.42234 0.89513 0.19418 0.0
H2951 H 0.40645 0.88251 0.16273 0.0
C2952 C 0.93642 0.36817 0.69935 0.0
C2953 C 0.93504 0.38095 0.70017 0.0
C2954 C 0.92711 0.36067 0.68481 0.0
C2955 C 0.90001 0.36097 0.61846 0.0
H2956 H 0.89529 0.32871 0.66436 0.0
C2957 C 0.86414 0.32549 0.5602 0.0
C2958 C 0.86878 0.31361 0.5544 0.0
C2959 C 0.87121 0.33446 0.57939 0.0
C2960 C 0.89652 0.33768 0.65117 0.0
H2961 H 0.92251 0.3958 0.68721 0.0
H2962 H 0.90611 0.38263 0.66234 0.0
H2963 H 0.909 0.34308 0.69743 0.0
H2964 H 0.88459 0.30196 0.56393 0.0
H2965 H 0.89675 0.31751 0.5975 0.0
H2966 H 0.88745 0.35544 0.57213 0.0
C2967 C 0.91454 0.37846 0.67244 0.0
C2968 C 0.90441 0.34592 0.67004 0.0
C2969 C 0.92391 0.38601 0.68699 0.0
C2970 C 0.88068 0.31098 0.56782 0.0
C2971 C 0.88765 0.31987 0.58736 0.0
C2972 C 0.89201 0.35273 0.59975 0.0
C2973 C 0.91608 0.3657 0.67085 0.0
C2974 C 0.90652 0.35756 0.65339 0.0
C2975 C 0.88297 0.33167 0.59367 0.0
C2976 C 0.89043 0.3409 0.6154 0.0
H2977 H 0.94483 0.36389 0.70919 0.0
H2978 H 0.92874 0.35092 0.68345 0.0
H2979 H 0.90148 0.36981 0.60459 0.0
H2980 H 0.85503 0.32784 0.55017 0.0
H2981 H 0.86738 0.34348 0.58389 0.0
C2982 C 0.38158 0.18997 0.42924 0.0
C2983 C 0.36949 0.18722 0.44045 0.0
C2984 C 0.38886 0.18125 0.41008 0.0
C2985 C 0.39319 0.1484 0.39449 0.0
H2986 H 0.41147 0.15883 0.30032 0.0
C2987 C 0.42417 0.11503 0.30456 0.0
C2988 C 0.43552 0.11969 0.29194 0.0
C2989 C 0.41517 0.12283 0.32006 0.0
C2990 C 0.40654 0.15577 0.32679 0.0
H2991 H 0.35577 0.17291 0.44122 0.0
H2992 H 0.36864 0.1576 0.40817 0.0
H2993 H 0.39782 0.17315 0.33393 0.0
H2994 H 0.44615 0.13632 0.28522 0.0
H2995 H 0.43069 0.14976 0.31276 0.0
H2996 H 0.40218 0.13112 0.38814 0.0
C2997 C 0.37238 0.16658 0.41412 0.0
C2998 C 0.39869 0.16399 0.34598 0.0
C2999 C 0.36501 0.17537 0.43294 0.0
C3000 C 0.43753 0.13236 0.29447 0.0
C3001 C 0.42859 0.14012 0.31009 0.0
C3002 C 0.40115 0.14019 0.37549 0.0
C3003 C 0.38432 0.1695 0.40196 0.0
C3004 C 0.39206 0.16045 0.38037 0.0
C3005 C 0.41731 0.13548 0.32339 0.0
C3006 C 0.40807 0.14383 0.34173 0.0
H3007 H 0.38537 0.19897 0.4345 0.0
H3008 H 0.39809 0.18371 0.40159 0.0
H3009 H 0.38824 0.14544 0.42106 0.0
H3010 H 0.42228 0.10532 0.30296 0.0
H3011 H 0.40654 0.11895 0.32949 0.0
C3012 C 0.63761 0.6747 0.0606 0.0
C3013 C 0.63295 0.68653 0.05412 0.0
C3014 C 0.63051 0.66578 0.07984 0.0
C3015 C 0.60509 0.66269 0.15103 0.0
H3016 H 0.60047 0.63034 0.10577 0.0
C3017 C 0.56558 0.63189 0.20077 0.0
C3018 C 0.56706 0.61912 0.20156 0.0
C3019 C 0.57481 0.63946 0.18608 0.0
C3020 C 0.60184 0.63925 0.1193 0.0
H3021 H 0.61707 0.69815 0.06246 0.0
H3022 H 0.60484 0.68267 0.09621 0.0
H3023 H 0.61436 0.64471 0.0728 0.0
H3024 H 0.5797 0.60437 0.18855 0.0
H3025 H 0.59597 0.61766 0.16352 0.0
H3026 H 0.59267 0.65735 0.19753 0.0
C3027 C 0.61398 0.68032 0.08651 0.0
C3028 C 0.60976 0.64749 0.10027 0.0
C3029 C 0.62099 0.68916 0.06687 0.0
C3030 C 0.57822 0.61415 0.18833 0.0
C3031 C 0.58751 0.62177 0.17368 0.0
C3032 C 0.59729 0.65445 0.17024 0.0
C3033 C 0.61869 0.66857 0.09352 0.0
C3034 C 0.61123 0.65939 0.11544 0.0
C3035 C 0.58586 0.63452 0.17196 0.0
C3036 C 0.59531 0.64271 0.1541 0.0
H3037 H 0.64678 0.67235 0.05109 0.0
H3038 H 0.63437 0.65679 0.0849 0.0
H3039 H 0.60623 0.67173 0.16385 0.0
H3040 H 0.55714 0.63611 0.21064 0.0
H3041 H 0.57309 0.64919 0.18464 0.0
C3042 C 0.0594 0.86701 0.80649 0.0
C3043 C 0.0615 0.87949 0.79919 0.0
C3044 C 0.06854 0.85962 0.8228 0.0
C3045 C 0.09734 0.86081 0.88131 0.0
H3046 H 0.09936 0.82689 0.84806 0.0
C3047 C 0.13416 0.8259 0.93776 0.0
C3048 C 0.12955 0.81439 0.9491 0.0
C3049 C 0.12655 0.83459 0.91944 0.0
C3050 C 0.09888 0.83633 0.85778 0.0
H3051 H 0.07506 0.89392 0.80281 0.0
H3052 H 0.09113 0.88091 0.8306 0.0
H3053 H 0.08522 0.84058 0.81394 0.0
H3054 H 0.11314 0.80324 0.95121 0.0
H3055 H 0.10004 0.81829 0.91918 0.0
H3056 H 0.11116 0.85644 0.92505 0.0
C3057 C 0.08229 0.87691 0.8243 0.0
C3058 C 0.09074 0.84419 0.83831 0.0
C3059 C 0.07309 0.88435 0.80809 0.0
C3060 C 0.11708 0.81195 0.94277 0.0
C3061 C 0.10955 0.82055 0.92416 0.0
C3062 C 0.1056 0.85295 0.90058 0.0
C3063 C 0.08011 0.86445 0.83203 0.0
C3064 C 0.08965 0.85647 0.85037 0.0
C3065 C 0.11423 0.83188 0.91168 0.0
C3066 C 0.10625 0.84057 0.88954 0.0
H3067 H 0.0506 0.86291 0.8003 0.0
H3068 H 0.06641 0.85014 0.82903 0.0
H3069 H 0.09669 0.87018 0.89164 0.0
H3070 H 0.1437 0.82812 0.94225 0.0
H3071 H 0.13038 0.84327 0.91013 0.0
loop_
_geom_bond_atom_site_label_1
_geom_bond_atom_site_label_2
_geom_bond_distance
_geom_bond_site_symmetry_2
_ccdc_geom_bond_type
Mn0 O5 2.095 . S
Mn0 O15 2.162 . S
Mn0 O16 2.297 . S
Mn0 O24 2.385 1_554 S
Mn0 O25 2.209 . S
Mn0 O26 2.094 . S
Mn1 O6 2.121 . S
Mn1 N8 2.257 . S
Mn1 N17 2.282 . S
Mn1 O25 2.215 . S
Mn1 O27 2.117 . S
C2 O24 1.234 1_554 S
C2 O25 1.283 . S
C3 O15 1.281 . S
C3 O16 1.236 . S
C4 O26 1.240 . S
C4 O27 1.264 . S
O5 Mn0 2.095 . S
O5 C14 1.250 . S
O6 Mn1 2.121 . S
O6 C14 1.258 . S
C7 N8 1.326 . S
C7 C11 1.460 . S
C7 H13 0.929 . S
N8 Mn1 2.257 . S
N8 C7 1.326 . S
N8 C12 1.362 . S
C9 C10 1.258 . S
C9 C12 1.431 . S
C9 C29 1.449 1_554 S
C10 C9 1.258 . S
C10 C11 1.477 . S
C10 H30 0.931 . S
C11 C7 1.460 . S
C11 C10 1.477 . S
C11 H31 0.930 . S
C12 N8 1.362 . S
C12 C9 1.431 . S
C12 C22 1.476 1_554 S
H13 C7 0.929 . S
C14 O5 1.250 . S
C14 O6 1.258 . S
O15 Mn0 2.162 . S
O15 C3 1.281 . S
O16 Mn0 2.297 . S
O16 C3 1.236 . S
N17 Mn1 2.282 . S
N17 C18 1.328 1_554 S
N17 C22 1.318 1_554 S
C18 N17 1.328 1_556 S
C18 C19 1.457 . S
C18 H23 0.929 1_556 S
C19 C18 1.457 . S
C19 C20 1.291 . S
C19 H32 0.931 . S
C20 C19 1.291 . S
C20 C21 1.373 . S
C20 H33 0.929 . S
C21 C20 1.373 . S
C21 C22 1.396 . S
C21 C28 1.403 . S
C22 C12 1.476 1_556 S
C22 N17 1.318 1_556 S
C22 C21 1.396 . S
H23 C18 0.929 1_554 S
O24 Mn0 2.385 1_556 S
O24 C2 1.234 1_556 S
O25 Mn0 2.209 . S
O25 Mn1 2.215 . S
O25 C2 1.283 . S
O26 Mn0 2.094 . S
O26 C4 1.240 . S
O27 Mn1 2.117 . S
O27 C4 1.264 . S
C28 C21 1.403 . S
C28 C29 1.399 . S
C28 H34 0.929 . S
C29 C9 1.449 1_556 S
C29 C28 1.399 . S
C29 H35 0.930 . S
H30 C10 0.931 . S
H31 C11 0.930 . S
H32 C19 0.931 . S
H33 C20 0.929 . S
H34 C28 0.929 . S
H35 C29 0.930 . S
Mn36 O41 2.095 . S
Mn36 O51 2.162 . S
Mn36 O52 2.297 . S
Mn36 O60 2.385 . S
Mn36 O61 2.209 . S
Mn36 O62 2.094 . S
Mn37 O42 2.121 . S
Mn37 N44 2.257 . S
Mn37 N53 2.282 . S
Mn37 O61 2.215 . S
Mn37 O63 2.117 . S
C38 O60 1.234 . S
C38 O61 1.283 . S
C39 O51 1.281 . S
C39 O52 1.236 . S
C40 O62 1.240 . S
C40 O63 1.264 . S
O41 Mn36 2.095 . S
O41 C50 1.250 . S
O42 Mn37 2.121 . S
O42 C50 1.258 . S
C43 N44 1.326 1_455 S
C43 C47 1.460 . S
C43 H49 0.929 . S
N44 Mn37 2.257 . S
N44 C43 1.326 1_655 S
N44 C48 1.362 . S
C45 C46 1.258 . S
C45 C48 1.431 1_455 S
C45 C65 1.449 . S
C46 C45 1.258 . S
C46 C47 1.477 . S
C46 H66 0.931 . S
C47 C43 1.460 . S
C47 C46 1.477 . S
C47 H67 0.930 . S
C48 N44 1.362 . S
C48 C45 1.431 1_655 S
C48 C58 1.476 . S
H49 C43 0.929 . S
C50 O41 1.250 . S
C50 O42 1.258 . S
O51 Mn36 2.162 . S
O51 C39 1.281 . S
O52 Mn36 2.297 . S
O52 C39 1.236 . S
N53 Mn37 2.282 . S
N53 C54 1.328 . S
N53 C58 1.318 . S
C54 N53 1.328 . S
C54 C55 1.457 . S
C54 H59 0.929 . S
C55 C54 1.457 . S
C55 C56 1.291 . S
C55 H68 0.931 . S
C56 C55 1.291 . S
C56 C57 1.373 . S
C56 H69 0.929 . S
C57 C56 1.373 . S
C57 C58 1.396 . S
C57 C64 1.403 . S
C58 C48 1.476 . S
C58 N53 1.318 . S
C58 C57 1.396 . S
H59 C54 0.929 . S
O60 Mn36 2.385 . S
O60 C38 1.234 . S
O61 Mn36 2.209 . S
O61 Mn37 2.215 . S
O61 C38 1.283 . S
O62 Mn36 2.094 . S
O62 C40 1.240 . S
O63 Mn37 2.117 . S
O63 C40 1.264 . S
C64 C57 1.403 . S
C64 C65 1.399 1_655 S
C64 H70 0.929 . S
C65 C45 1.449 . S
C65 C64 1.399 1_455 S
C65 H71 0.930 . S
H66 C46 0.931 . S
H67 C47 0.930 . S
H68 C55 0.931 . S
H69 C56 0.929 . S
H70 C64 0.929 . S
H71 C65 0.930 . S
Mn72 O77 2.095 . S
Mn72 O87 2.162 . S
Mn72 O88 2.297 . S
Mn72 O96 2.385 . S
Mn72 O97 2.209 . S
Mn72 O98 2.094 . S
Mn73 O78 2.121 . S
Mn73 N80 2.257 . S
Mn73 N89 2.282 . S
Mn73 O97 2.215 . S
Mn73 O99 2.117 . S
C74 O96 1.234 . S
C74 O97 1.283 . S
C75 O87 1.281 . S
C75 O88 1.236 . S
C76 O98 1.240 . S
C76 O99 1.264 . S
O77 Mn72 2.095 . S
O77 C86 1.250 . S
O78 Mn73 2.121 . S
O78 C86 1.258 . S
C79 N80 1.326 . S
C79 C83 1.460 . S
C79 H85 0.929 . S
N80 Mn73 2.257 . S
N80 C79 1.326 . S
N80 C84 1.362 . S
C81 C82 1.258 . S
C81 C84 1.431 . S
C81 C101 1.449 . S
C82 C81 1.258 . S
C82 C83 1.477 . S
C82 H102 0.931 . S
C83 C79 1.460 . S
C83 C82 1.477 . S
C83 H103 0.930 . S
C84 N80 1.362 . S
C84 C81 1.431 . S
C84 C94 1.476 . S
H85 C79 0.929 . S
C86 O77 1.250 . S
C86 O78 1.258 . S
O87 Mn72 2.162 . S
O87 C75 1.281 . S
O88 Mn72 2.297 . S
O88 C75 1.236 . S
N89 Mn73 2.282 . S
N89 C90 1.328 . S
N89 C94 1.318 . S
C90 N89 1.328 . S
C90 C91 1.457 . S
C90 H95 0.929 . S
C91 C90 1.457 . S
C91 C92 1.291 . S
C91 H104 0.931 . S
C92 C91 1.291 . S
C92 C93 1.373 . S
C92 H105 0.929 . S
C93 C92 1.373 . S
C93 C94 1.396 . S
C93 C100 1.403 . S
C94 C84 1.476 . S
C94 N89 1.318 . S
C94 C93 1.396 . S
H95 C90 0.929 . S
O96 Mn72 2.385 . S
O96 C74 1.234 . S
O97 Mn72 2.209 . S
O97 Mn73 2.215 . S
O97 C74 1.283 . S
O98 Mn72 2.094 . S
O98 C76 1.240 . S
O99 Mn73 2.117 . S
O99 C76 1.264 . S
C100 C93 1.403 . S
C100 C101 1.399 . S
C100 H106 0.929 . S
C101 C81 1.449 . S
C101 C100 1.399 . S
C101 H107 0.930 . S
H102 C82 0.931 . S
H103 C83 0.930 . S
H104 C91 0.931 . S
H105 C92 0.929 . S
H106 C100 0.929 . S
H107 C101 0.930 . S
Mn108 O113 2.095 . S
Mn108 O123 2.162 . S
Mn108 O124 2.297 . S
Mn108 O132 2.385 . S
Mn108 O133 2.209 . S
Mn108 O134 2.094 . S
Mn109 O114 2.121 . S
Mn109 N116 2.257 . S
Mn109 N125 2.282 . S
Mn109 O133 2.215 . S
Mn109 O135 2.117 . S
C110 O132 1.234 . S
C110 O133 1.283 . S
C111 O123 1.281 . S
C111 O124 1.236 . S
C112 O134 1.240 . S
C112 O135 1.264 . S
O113 Mn108 2.095 . S
O113 C122 1.250 . S
O114 Mn109 2.121 . S
O114 C122 1.258 . S
C115 N116 1.326 . S
C115 C119 1.460 . S
C115 H121 0.929 . S
N116 Mn109 2.257 . S
N116 C115 1.326 . S
N116 C120 1.362 . S
C117 C118 1.258 . S
C117 C120 1.431 . S
C117 C137 1.449 . S
C118 C117 1.258 . S
C118 C119 1.477 . S
C118 H138 0.931 . S
C119 C115 1.460 . S
C119 C118 1.477 . S
C119 H139 0.930 . S
C120 N116 1.362 . S
C120 C117 1.431 . S
C120 C130 1.476 . S
H121 C115 0.929 . S
C122 O113 1.250 . S
C122 O114 1.258 . S
O123 Mn108 2.162 . S
O123 C111 1.281 . S
O124 Mn108 2.297 . S
O124 C111 1.236 . S
N125 Mn109 2.282 . S
N125 C126 1.328 . S
N125 C130 1.318 . S
C126 N125 1.328 . S
C126 C127 1.457 . S
C126 H131 0.929 . S
C127 C126 1.457 . S
C127 C128 1.291 . S
C127 H140 0.931 . S
C128 C127 1.291 . S
C128 C129 1.373 . S
C128 H141 0.929 . S
C129 C128 1.373 . S
C129 C130 1.396 . S
C129 C136 1.403 . S
C130 C120 1.476 . S
C130 N125 1.318 . S
C130 C129 1.396 . S
H131 C126 0.929 . S
O132 Mn108 2.385 . S
O132 C110 1.234 . S
O133 Mn108 2.209 . S
O133 Mn109 2.215 . S
O133 C110 1.283 . S
O134 Mn108 2.094 . S
O134 C112 1.240 . S
O135 Mn109 2.117 . S
O135 C112 1.264 . S
C136 C129 1.403 . S
C136 C137 1.399 . S
C136 H142 0.929 . S
C137 C117 1.449 . S
C137 C136 1.399 . S
C137 H143 0.930 . S
H138 C118 0.931 . S
H139 C119 0.930 . S
H140 C127 0.931 . S
H141 C128 0.929 . S
H142 C136 0.929 . S
H143 C137 0.930 . S
Mn144 O149 2.095 . S
Mn144 O159 2.162 . S
Mn144 O160 2.297 . S
Mn144 O168 2.385 . S
Mn144 O169 2.209 . S
Mn144 O170 2.094 . S
Mn145 O150 2.121 . S
Mn145 N152 2.257 . S
Mn145 N161 2.282 . S
Mn145 O169 2.215 . S
Mn145 O171 2.117 . S
C146 O168 1.234 . S
C146 O169 1.283 . S
C147 O159 1.281 . S
C147 O160 1.236 . S
C148 O170 1.240 . S
C148 O171 1.264 . S
O149 Mn144 2.095 . S
O149 C158 1.250 . S
O150 Mn145 2.121 . S
O150 C158 1.258 . S
C151 N152 1.326 . S
C151 C155 1.460 . S
C151 H157 0.929 . S
N152 Mn145 2.257 . S
N152 C151 1.326 . S
N152 C156 1.362 . S
C153 C154 1.258 . S
C153 C156 1.431 . S
C153 C173 1.449 . S
C154 C153 1.258 . S
C154 C155 1.477 . S
C154 H174 0.931 . S
C155 C151 1.460 . S
C155 C154 1.477 . S
C155 H175 0.930 . S
C156 N152 1.362 . S
C156 C153 1.431 . S
C156 C166 1.476 . S
H157 C151 0.929 . S
C158 O149 1.250 . S
C158 O150 1.258 . S
O159 Mn144 2.162 . S
O159 C147 1.281 . S
O160 Mn144 2.297 . S
O160 C147 1.236 . S
N161 Mn145 2.282 . S
N161 C162 1.328 . S
N161 C166 1.318 . S
C162 N161 1.328 . S
C162 C163 1.457 . S
C162 H167 0.929 . S
C163 C162 1.457 . S
C163 C164 1.291 . S
C163 H176 0.931 . S
C164 C163 1.291 . S
C164 C165 1.373 . S
C164 H177 0.929 . S
C165 C164 1.373 . S
C165 C166 1.396 . S
C165 C172 1.403 . S
C166 C156 1.476 . S
C166 N161 1.318 . S
C166 C165 1.396 . S
H167 C162 0.929 . S
O168 Mn144 2.385 . S
O168 C146 1.234 . S
O169 Mn144 2.209 . S
O169 Mn145 2.215 . S
O169 C146 1.283 . S
O170 Mn144 2.094 . S
O170 C148 1.240 . S
O171 Mn145 2.117 . S
O171 C148 1.264 . S
C172 C165 1.403 . S
C172 C173 1.399 . S
C172 H178 0.929 . S
C173 C153 1.449 . S
C173 C172 1.399 . S
C173 H179 0.930 . S
H174 C154 0.931 . S
H175 C155 0.930 . S
H176 C163 0.931 . S
H177 C164 0.929 . S
H178 C172 0.929 . S
H179 C173 0.930 . S
Mn180 O185 2.095 . S
Mn180 O195 2.162 . S
Mn180 O196 2.297 . S
Mn180 O204 2.385 . S
Mn180 O205 2.209 . S
Mn180 O206 2.094 . S
Mn181 O186 2.121 . S
Mn181 N188 2.257 . S
Mn181 N197 2.282 . S
Mn181 O205 2.215 . S
Mn181 O207 2.117 . S
C182 O204 1.234 . S
C182 O205 1.283 . S
C183 O195 1.281 . S
C183 O196 1.236 . S
C184 O206 1.240 . S
C184 O207 1.264 . S
O185 Mn180 2.095 . S
O185 C194 1.250 . S
O186 Mn181 2.121 . S
O186 C194 1.258 . S
C187 N188 1.326 . S
C187 C191 1.460 . S
C187 H193 0.929 . S
N188 Mn181 2.257 . S
N188 C187 1.326 . S
N188 C192 1.362 . S
C189 C190 1.258 . S
C189 C192 1.431 . S
C189 C209 1.449 . S
C190 C189 1.258 . S
C190 C191 1.477 . S
C190 H210 0.931 . S
C191 C187 1.460 . S
C191 C190 1.477 . S
C191 H211 0.930 . S
C192 N188 1.362 . S
C192 C189 1.431 . S
C192 C202 1.476 . S
H193 C187 0.929 . S
C194 O185 1.250 . S
C194 O186 1.258 . S
O195 Mn180 2.162 . S
O195 C183 1.281 . S
O196 Mn180 2.297 . S
O196 C183 1.236 . S
N197 Mn181 2.282 . S
N197 C198 1.328 . S
N197 C202 1.318 . S
C198 N197 1.328 . S
C198 C199 1.457 . S
C198 H203 0.929 . S
C199 C198 1.457 . S
C199 C200 1.291 . S
C199 H212 0.931 . S
C200 C199 1.291 . S
C200 C201 1.373 . S
C200 H213 0.929 . S
C201 C200 1.373 . S
C201 C202 1.396 . S
C201 C208 1.403 . S
C202 C192 1.476 . S
C202 N197 1.318 . S
C202 C201 1.396 . S
H203 C198 0.929 . S
O204 Mn180 2.385 . S
O204 C182 1.234 . S
O205 Mn180 2.209 . S
O205 Mn181 2.215 . S
O205 C182 1.283 . S
O206 Mn180 2.094 . S
O206 C184 1.240 . S
O207 Mn181 2.117 . S
O207 C184 1.264 . S
C208 C201 1.403 . S
C208 C209 1.399 . S
C208 H214 0.929 . S
C209 C189 1.449 . S
C209 C208 1.399 . S
C209 H215 0.930 . S
H210 C190 0.931 . S
H211 C191 0.930 . S
H212 C199 0.931 . S
H213 C200 0.929 . S
H214 C208 0.929 . S
H215 C209 0.930 . S
Mn216 O221 2.095 . S
Mn216 O231 2.162 . S
Mn216 O232 2.297 . S
Mn216 O240 2.385 1_556 S
Mn216 O241 2.209 . S
Mn216 O242 2.094 . S
Mn217 O222 2.121 . S
Mn217 N224 2.257 . S
Mn217 N233 2.282 . S
Mn217 O241 2.215 . S
Mn217 O243 2.117 . S
C218 O240 1.233 1_556 S
C218 O241 1.286 . S
C219 O231 1.281 . S
C219 O232 1.236 . S
C220 O242 1.240 . S
C220 O243 1.264 . S
O221 Mn216 2.095 . S
O221 C230 1.250 . S
O222 Mn217 2.121 . S
O222 C230 1.258 . S
C223 N224 1.326 . S
C223 C227 1.460 . S
C223 H229 0.929 . S
N224 Mn217 2.257 . S
N224 C223 1.326 . S
N224 C228 1.362 . S
C225 C226 1.258 . S
C225 C228 1.431 . S
C225 C245 1.449 1_556 S
C226 C225 1.258 . S
C226 C227 1.477 . S
C226 H246 0.931 . S
C227 C223 1.460 . S
C227 C226 1.477 . S
C227 H247 0.930 . S
C228 N224 1.362 . S
C228 C225 1.431 . S
C228 C238 1.476 1_556 S
H229 C223 0.929 . S
C230 O221 1.250 . S
C230 O222 1.258 . S
O231 Mn216 2.162 . S
O231 C219 1.281 . S
O232 Mn216 2.297 . S
O232 C219 1.236 . S
N233 Mn217 2.282 . S
N233 C234 1.328 1_556 S
N233 C238 1.318 1_556 S
C234 N233 1.328 1_554 S
C234 C235 1.457 . S
C234 H239 0.929 1_554 S
C235 C234 1.457 . S
C235 C236 1.291 . S
C235 H248 0.931 . S
C236 C235 1.291 . S
C236 C237 1.373 . S
C236 H249 0.929 . S
C237 C236 1.373 . S
C237 C238 1.396 . S
C237 C244 1.403 . S
C238 C228 1.476 1_554 S
C238 N233 1.318 1_554 S
C238 C237 1.396 . S
H239 C234 0.929 1_556 S
O240 Mn216 2.385 1_554 S
O240 C218 1.233 1_554 S
O241 Mn216 2.209 . S
O241 Mn217 2.215 . S
O241 C218 1.286 . S
O242 Mn216 2.094 . S
O242 C220 1.240 . S
O243 Mn217 2.117 . S
O243 C220 1.264 . S
C244 C237 1.403 . S
C244 C245 1.399 . S
C244 H250 0.929 . S
C245 C225 1.449 1_554 S
C245 C244 1.399 . S
C245 H251 0.930 . S
H246 C226 0.931 . S
H247 C227 0.930 . S
H248 C235 0.931 . S
H249 C236 0.929 . S
H250 C244 0.929 . S
H251 C245 0.930 . S
Mn252 O257 2.095 . S
Mn252 O267 2.162 . S
Mn252 O268 2.297 . S
Mn252 O276 2.385 . S
Mn252 O277 2.209 . S
Mn252 O278 2.094 . S
Mn253 O258 2.121 . S
Mn253 N260 2.257 . S
Mn253 N269 2.282 . S
Mn253 O277 2.215 . S
Mn253 O279 2.117 . S
C254 O276 1.234 . S
C254 O277 1.283 . S
C255 O267 1.281 . S
C255 O268 1.236 . S
C256 O278 1.240 . S
C256 O279 1.264 . S
O257 Mn252 2.095 . S
O257 C266 1.250 . S
O258 Mn253 2.121 . S
O258 C266 1.258 . S
C259 N260 1.326 1_455 S
C259 C263 1.460 . S
C259 H265 0.929 . S
N260 Mn253 2.257 . S
N260 C259 1.326 1_655 S
N260 C264 1.362 . S
C261 C262 1.258 . S
C261 C264 1.431 1_455 S
C261 C281 1.449 . S
C262 C261 1.258 . S
C262 C263 1.477 . S
C262 H282 0.931 . S
C263 C259 1.460 . S
C263 C262 1.477 . S
C263 H283 0.930 . S
C264 N260 1.362 . S
C264 C261 1.431 1_655 S
C264 C274 1.476 . S
H265 C259 0.929 . S
C266 O257 1.250 . S
C266 O258 1.258 . S
O267 Mn252 2.162 . S
O267 C255 1.281 . S
O268 Mn252 2.297 . S
O268 C255 1.236 . S
N269 Mn253 2.282 . S
N269 C270 1.328 . S
N269 C274 1.318 . S
C270 N269 1.328 . S
C270 C271 1.457 . S
C270 H275 0.929 . S
C271 C270 1.457 . S
C271 C272 1.291 . S
C271 H284 0.931 . S
C272 C271 1.291 . S
C272 C273 1.373 . S
C272 H285 0.929 . S
C273 C272 1.373 . S
C273 C274 1.396 . S
C273 C280 1.403 . S
C274 C264 1.476 . S
C274 N269 1.318 . S
C274 C273 1.396 . S
H275 C270 0.929 . S
O276 Mn252 2.385 . S
O276 C254 1.234 . S
O277 Mn252 2.209 . S
O277 Mn253 2.215 . S
O277 C254 1.283 . S
O278 Mn252 2.094 . S
O278 C256 1.240 . S
O279 Mn253 2.117 . S
O279 C256 1.264 . S
C280 C273 1.403 . S
C280 C281 1.399 1_655 S
C280 H286 0.929 . S
C281 C261 1.449 . S
C281 C280 1.399 1_455 S
C281 H287 0.930 . S
H282 C262 0.931 . S
H283 C263 0.930 . S
H284 C271 0.931 . S
H285 C272 0.929 . S
H286 C280 0.929 . S
H287 C281 0.930 . S
Mn288 O293 2.095 . S
Mn288 O303 2.162 . S
Mn288 O304 2.297 . S
Mn288 O312 2.385 1_556 S
Mn288 O313 2.209 . S
Mn288 O314 2.094 . S
Mn289 O294 2.121 . S
Mn289 N296 2.257 . S
Mn289 N305 2.282 . S
Mn289 O313 2.215 . S
Mn289 O315 2.117 . S
C290 O312 1.234 1_556 S
C290 O313 1.283 . S
C291 O303 1.281 . S
C291 O304 1.236 . S
C292 O314 1.240 . S
C292 O315 1.264 . S
O293 Mn288 2.095 . S
O293 C302 1.250 . S
O294 Mn289 2.121 . S
O294 C302 1.258 . S
C295 N296 1.326 . S
C295 C299 1.460 . S
C295 H301 0.929 . S
N296 Mn289 2.257 . S
N296 C295 1.326 . S
N296 C300 1.362 . S
C297 C298 1.258 . S
C297 C300 1.431 . S
C297 C317 1.449 1_556 S
C298 C297 1.258 . S
C298 C299 1.477 . S
C298 H318 0.931 . S
C299 C295 1.460 . S
C299 C298 1.477 . S
C299 H319 0.930 . S
C300 N296 1.362 . S
C300 C297 1.431 . S
C300 C310 1.476 1_556 S
H301 C295 0.929 . S
C302 O293 1.250 . S
C302 O294 1.258 . S
O303 Mn288 2.162 . S
O303 C291 1.281 . S
O304 Mn288 2.297 . S
O304 C291 1.236 . S
N305 Mn289 2.282 . S
N305 C306 1.328 1_556 S
N305 C310 1.318 1_556 S
C306 N305 1.328 1_554 S
C306 C307 1.457 . S
C306 H311 0.929 1_554 S
C307 C306 1.457 . S
C307 C308 1.291 . S
C307 H320 0.931 . S
C308 C307 1.291 . S
C308 C309 1.373 . S
C308 H321 0.929 . S
C309 C308 1.373 . S
C309 C310 1.396 . S
C309 C316 1.403 . S
C310 C300 1.476 1_554 S
C310 N305 1.318 1_554 S
C310 C309 1.396 . S
H311 C306 0.929 1_556 S
O312 Mn288 2.385 1_554 S
O312 C290 1.234 1_554 S
O313 Mn288 2.209 . S
O313 Mn289 2.215 . S
O313 C290 1.283 . S
O314 Mn288 2.094 . S
O314 C292 1.240 . S
O315 Mn289 2.117 . S
O315 C292 1.264 . S
C316 C309 1.403 . S
C316 C317 1.399 . S
C316 H322 0.929 . S
C317 C297 1.449 1_554 S
C317 C316 1.399 . S
C317 H323 0.930 . S
H318 C298 0.931 . S
H319 C299 0.930 . S
H320 C307 0.931 . S
H321 C308 0.929 . S
H322 C316 0.929 . S
H323 C317 0.930 . S
Mn324 O329 2.095 . S
Mn324 O339 2.162 . S
Mn324 O340 2.297 . S
Mn324 O348 2.385 . S
Mn324 O349 2.209 . S
Mn324 O350 2.094 . S
Mn325 O330 2.121 . S
Mn325 N332 2.257 . S
Mn325 N341 2.282 . S
Mn325 O349 2.215 . S
Mn325 O351 2.117 . S
C326 O348 1.234 . S
C326 O349 1.283 . S
C327 O339 1.281 . S
C327 O340 1.236 . S
C328 O350 1.240 . S
C328 O351 1.264 . S
O329 Mn324 2.095 . S
O329 C338 1.250 . S
O330 Mn325 2.121 . S
O330 C338 1.258 . S
C331 N332 1.326 1_655 S
C331 C335 1.460 . S
C331 H337 0.929 . S
N332 Mn325 2.257 . S
N332 C331 1.326 1_455 S
N332 C336 1.362 . S
C333 C334 1.258 . S
C333 C336 1.431 1_655 S
C333 C353 1.449 . S
C334 C333 1.258 . S
C334 C335 1.477 . S
C334 H354 0.931 . S
C335 C331 1.460 . S
C335 C334 1.477 . S
C335 H355 0.930 . S
C336 N332 1.362 . S
C336 C333 1.431 1_455 S
C336 C346 1.476 . S
H337 C331 0.929 . S
C338 O329 1.250 . S
C338 O330 1.258 . S
O339 Mn324 2.162 . S
O339 C327 1.281 . S
O340 Mn324 2.297 . S
O340 C327 1.236 . S
N341 Mn325 2.282 . S
N341 C342 1.328 . S
N341 C346 1.318 . S
C342 N341 1.328 . S
C342 C343 1.457 . S
C342 H347 0.929 . S
C343 C342 1.457 . S
C343 C344 1.291 . S
C343 H356 0.931 . S
C344 C343 1.291 . S
C344 C345 1.373 . S
C344 H357 0.929 . S
C345 C344 1.373 . S
C345 C346 1.396 . S
C345 C352 1.403 . S
C346 C336 1.476 . S
C346 N341 1.318 . S
C346 C345 1.396 . S
H347 C342 0.929 . S
O348 Mn324 2.385 . S
O348 C326 1.234 . S
O349 Mn324 2.209 . S
O349 Mn325 2.215 . S
O349 C326 1.283 . S
O350 Mn324 2.094 . S
O350 C328 1.240 . S
O351 Mn325 2.117 . S
O351 C328 1.264 . S
C352 C345 1.403 . S
C352 C353 1.399 1_455 S
C352 H358 0.929 . S
C353 C333 1.449 . S
C353 C352 1.399 1_655 S
C353 H359 0.930 . S
H354 C334 0.931 . S
H355 C335 0.930 . S
H356 C343 0.931 . S
H357 C344 0.929 . S
H358 C352 0.929 . S
H359 C353 0.930 . S
Mn360 O365 2.095 . S
Mn360 O375 2.162 . S
Mn360 O376 2.297 . S
Mn360 O384 2.385 . S
Mn360 O385 2.209 . S
Mn360 O386 2.094 . S
Mn361 O366 2.121 . S
Mn361 N368 2.257 . S
Mn361 N377 2.282 . S
Mn361 O385 2.215 . S
Mn361 O387 2.117 . S
C362 O384 1.234 . S
C362 O385 1.283 . S
C363 O375 1.281 . S
C363 O376 1.236 . S
C364 O386 1.240 . S
C364 O387 1.264 . S
O365 Mn360 2.095 . S
O365 C374 1.250 . S
O366 Mn361 2.121 . S
O366 C374 1.258 . S
C367 N368 1.326 . S
C367 C371 1.460 . S
C367 H373 0.929 . S
N368 Mn361 2.257 . S
N368 C367 1.326 . S
N368 C372 1.362 . S
C369 C370 1.258 . S
C369 C372 1.431 . S
C369 C389 1.449 . S
C370 C369 1.258 . S
C370 C371 1.477 . S
C370 H390 0.931 . S
C371 C367 1.460 . S
C371 C370 1.477 . S
C371 H391 0.930 . S
C372 N368 1.362 . S
C372 C369 1.431 . S
C372 C382 1.476 . S
H373 C367 0.929 . S
C374 O365 1.250 . S
C374 O366 1.258 . S
O375 Mn360 2.162 . S
O375 C363 1.281 . S
O376 Mn360 2.297 . S
O376 C363 1.236 . S
N377 Mn361 2.282 . S
N377 C378 1.328 . S
N377 C382 1.318 . S
C378 N377 1.328 . S
C378 C379 1.457 . S
C378 H383 0.929 . S
C379 C378 1.457 . S
C379 C380 1.291 . S
C379 H392 0.931 . S
C380 C379 1.291 . S
C380 C381 1.373 . S
C380 H393 0.929 . S
C381 C380 1.373 . S
C381 C382 1.396 . S
C381 C388 1.403 . S
C382 C372 1.476 . S
C382 N377 1.318 . S
C382 C381 1.396 . S
H383 C378 0.929 . S
O384 Mn360 2.385 . S
O384 C362 1.234 . S
O385 Mn360 2.209 . S
O385 Mn361 2.215 . S
O385 C362 1.283 . S
O386 Mn360 2.094 . S
O386 C364 1.240 . S
O387 Mn361 2.117 . S
O387 C364 1.264 . S
C388 C381 1.403 . S
C388 C389 1.399 . S
C388 H394 0.929 . S
C389 C369 1.449 . S
C389 C388 1.399 . S
C389 H395 0.930 . S
H390 C370 0.931 . S
H391 C371 0.930 . S
H392 C379 0.931 . S
H393 C380 0.929 . S
H394 C388 0.929 . S
H395 C389 0.930 . S
Mn396 O401 2.095 . S
Mn396 O411 2.162 . S
Mn396 O412 2.297 . S
Mn396 O420 2.385 . S
Mn396 O421 2.209 . S
Mn396 O422 2.094 . S
Mn397 O402 2.121 . S
Mn397 N404 2.257 . S
Mn397 N413 2.282 . S
Mn397 O421 2.215 . S
Mn397 O423 2.117 . S
C398 O420 1.234 . S
C398 O421 1.283 . S
C399 O411 1.281 . S
C399 O412 1.236 . S
C400 O422 1.240 . S
C400 O423 1.264 . S
O401 Mn396 2.095 . S
O401 C410 1.250 . S
O402 Mn397 2.121 . S
O402 C410 1.258 . S
C403 N404 1.326 . S
C403 C407 1.460 . S
C403 H409 0.929 . S
N404 Mn397 2.257 . S
N404 C403 1.326 . S
N404 C408 1.362 . S
C405 C406 1.258 . S
C405 C408 1.431 . S
C405 C425 1.449 . S
C406 C405 1.258 . S
C406 C407 1.477 . S
C406 H426 0.931 . S
C407 C403 1.460 . S
C407 C406 1.477 . S
C407 H427 0.930 . S
C408 N404 1.362 . S
C408 C405 1.431 . S
C408 C418 1.476 . S
H409 C403 0.929 . S
C410 O401 1.250 . S
C410 O402 1.258 . S
O411 Mn396 2.162 . S
O411 C399 1.281 . S
O412 Mn396 2.297 . S
O412 C399 1.236 . S
N413 Mn397 2.282 . S
N413 C414 1.328 . S
N413 C418 1.318 . S
C414 N413 1.328 . S
C414 C415 1.457 . S
C414 H419 0.929 . S
C415 C414 1.457 . S
C415 C416 1.291 . S
C415 H428 0.931 . S
C416 C415 1.291 . S
C416 C417 1.373 . S
C416 H429 0.929 . S
C417 C416 1.373 . S
C417 C418 1.396 . S
C417 C424 1.403 . S
C418 C408 1.476 . S
C418 N413 1.318 . S
C418 C417 1.396 . S
H419 C414 0.929 . S
O420 Mn396 2.385 . S
O420 C398 1.234 . S
O421 Mn396 2.209 . S
O421 Mn397 2.215 . S
O421 C398 1.283 . S
O422 Mn396 2.094 . S
O422 C400 1.240 . S
O423 Mn397 2.117 . S
O423 C400 1.264 . S
C424 C417 1.403 . S
C424 C425 1.399 . S
C424 H430 0.929 . S
C425 C405 1.449 . S
C425 C424 1.399 . S
C425 H431 0.930 . S
H426 C406 0.931 . S
H427 C407 0.930 . S
H428 C415 0.931 . S
H429 C416 0.929 . S
H430 C424 0.929 . S
H431 C425 0.930 . S
Mn432 O437 2.095 . S
Mn432 O447 2.162 . S
Mn432 O448 2.297 . S
Mn432 O456 2.385 . S
Mn432 O457 2.209 . S
Mn432 O458 2.094 . S
Mn433 O438 2.121 . S
Mn433 N440 2.257 . S
Mn433 N449 2.282 . S
Mn433 O457 2.215 . S
Mn433 O459 2.117 . S
C434 O456 1.234 . S
C434 O457 1.283 . S
C435 O447 1.281 . S
C435 O448 1.236 . S
C436 O458 1.240 . S
C436 O459 1.264 . S
O437 Mn432 2.095 . S
O437 C446 1.250 . S
O438 Mn433 2.121 . S
O438 C446 1.258 . S
C439 N440 1.326 . S
C439 C443 1.460 . S
C439 H445 0.929 . S
N440 Mn433 2.257 . S
N440 C439 1.326 . S
N440 C444 1.362 . S
C441 C442 1.258 . S
C441 C444 1.431 . S
C441 C461 1.449 . S
C442 C441 1.258 . S
C442 C443 1.477 . S
C442 H462 0.931 . S
C443 C439 1.460 . S
C443 C442 1.477 . S
C443 H463 0.930 . S
C444 N440 1.362 . S
C444 C441 1.431 . S
C444 C454 1.476 . S
H445 C439 0.929 . S
C446 O437 1.250 . S
C446 O438 1.258 . S
O447 Mn432 2.162 . S
O447 C435 1.281 . S
O448 Mn432 2.297 . S
O448 C435 1.236 . S
N449 Mn433 2.282 . S
N449 C450 1.328 . S
N449 C454 1.318 . S
C450 N449 1.328 . S
C450 C451 1.457 . S
C450 H455 0.929 . S
C451 C450 1.457 . S
C451 C452 1.291 . S
C451 H464 0.931 . S
C452 C451 1.291 . S
C452 C453 1.373 . S
C452 H465 0.929 . S
C453 C452 1.373 . S
C453 C454 1.396 . S
C453 C460 1.403 . S
C454 C444 1.476 . S
C454 N449 1.318 . S
C454 C453 1.396 . S
H455 C450 0.929 . S
O456 Mn432 2.385 . S
O456 C434 1.234 . S
O457 Mn432 2.209 . S
O457 Mn433 2.215 . S
O457 C434 1.283 . S
O458 Mn432 2.094 . S
O458 C436 1.240 . S
O459 Mn433 2.117 . S
O459 C436 1.264 . S
C460 C453 1.403 . S
C460 C461 1.399 . S
C460 H466 0.929 . S
C461 C441 1.449 . S
C461 C460 1.399 . S
C461 H467 0.930 . S
H462 C442 0.931 . S
H463 C443 0.930 . S
H464 C451 0.931 . S
H465 C452 0.929 . S
H466 C460 0.929 . S
H467 C461 0.930 . S
Mn468 O473 2.095 . S
Mn468 O483 2.162 . S
Mn468 O484 2.297 . S
Mn468 O492 2.385 . S
Mn468 O493 2.209 . S
Mn468 O494 2.094 . S
Mn469 O474 2.121 . S
Mn469 N476 2.257 . S
Mn469 N485 2.282 . S
Mn469 O493 2.215 . S
Mn469 O495 2.117 . S
C470 O492 1.234 . S
C470 O493 1.283 . S
C471 O483 1.281 . S
C471 O484 1.236 . S
C472 O494 1.240 . S
C472 O495 1.264 . S
O473 Mn468 2.095 . S
O473 C482 1.250 . S
O474 Mn469 2.121 . S
O474 C482 1.258 . S
C475 N476 1.326 . S
C475 C479 1.460 . S
C475 H481 0.929 . S
N476 Mn469 2.257 . S
N476 C475 1.326 . S
N476 C480 1.362 . S
C477 C478 1.258 . S
C477 C480 1.431 . S
C477 C497 1.449 . S
C478 C477 1.258 . S
C478 C479 1.477 . S
C478 H498 0.931 . S
C479 C475 1.460 . S
C479 C478 1.477 . S
C479 H499 0.930 . S
C480 N476 1.362 . S
C480 C477 1.431 . S
C480 C490 1.476 . S
H481 C475 0.929 . S
C482 O473 1.250 . S
C482 O474 1.258 . S
O483 Mn468 2.162 . S
O483 C471 1.281 . S
O484 Mn468 2.297 . S
O484 C471 1.236 . S
N485 Mn469 2.282 . S
N485 C486 1.328 . S
N485 C490 1.318 . S
C486 N485 1.328 . S
C486 C487 1.457 . S
C486 H491 0.929 . S
C487 C486 1.457 . S
C487 C488 1.291 . S
C487 H500 0.931 . S
C488 C487 1.291 . S
C488 C489 1.373 . S
C488 H501 0.929 . S
C489 C488 1.373 . S
C489 C490 1.396 . S
C489 C496 1.403 . S
C490 C480 1.476 . S
C490 N485 1.318 . S
C490 C489 1.396 . S
H491 C486 0.929 . S
O492 Mn468 2.385 . S
O492 C470 1.234 . S
O493 Mn468 2.209 . S
O493 Mn469 2.215 . S
O493 C470 1.283 . S
O494 Mn468 2.094 . S
O494 C472 1.240 . S
O495 Mn469 2.117 . S
O495 C472 1.264 . S
C496 C489 1.403 . S
C496 C497 1.399 . S
C496 H502 0.929 . S
C497 C477 1.449 . S
C497 C496 1.399 . S
C497 H503 0.930 . S
H498 C478 0.931 . S
H499 C479 0.930 . S
H500 C487 0.931 . S
H501 C488 0.929 . S
H502 C496 0.929 . S
H503 C497 0.930 . S
Mn504 O509 2.095 . S
Mn504 O519 2.162 . S
Mn504 O520 2.297 . S
Mn504 O528 2.385 1_554 S
Mn504 O529 2.209 . S
Mn504 O530 2.094 . S
Mn505 O510 2.121 . S
Mn505 N512 2.257 . S
Mn505 N521 2.282 . S
Mn505 O529 2.215 . S
Mn505 O531 2.117 . S
C506 O528 1.233 1_554 S
C506 O529 1.286 . S
C507 O519 1.281 . S
C507 O520 1.236 . S
C508 O530 1.240 . S
C508 O531 1.264 . S
O509 Mn504 2.095 . S
O509 C518 1.250 . S
O510 Mn505 2.121 . S
O510 C518 1.258 . S
C511 N512 1.326 . S
C511 C515 1.460 . S
C511 H517 0.929 . S
N512 Mn505 2.257 . S
N512 C511 1.326 . S
N512 C516 1.362 . S
C513 C514 1.258 . S
C513 C516 1.431 . S
C513 C533 1.449 1_554 S
C514 C513 1.258 . S
C514 C515 1.477 . S
C514 H534 0.931 . S
C515 C511 1.460 . S
C515 C514 1.477 . S
C515 H535 0.930 . S
C516 N512 1.362 . S
C516 C513 1.431 . S
C516 C526 1.476 1_554 S
H517 C511 0.929 . S
C518 O509 1.250 . S
C518 O510 1.258 . S
O519 Mn504 2.162 . S
O519 C507 1.281 . S
O520 Mn504 2.297 . S
O520 C507 1.236 . S
N521 Mn505 2.282 . S
N521 C522 1.328 1_554 S
N521 C526 1.318 1_554 S
C522 N521 1.328 1_556 S
C522 C523 1.457 . S
C522 H527 0.929 1_556 S
C523 C522 1.457 . S
C523 C524 1.291 . S
C523 H536 0.931 . S
C524 C523 1.291 . S
C524 C525 1.373 . S
C524 H537 0.929 . S
C525 C524 1.373 . S
C525 C526 1.396 . S
C525 C532 1.403 . S
C526 C516 1.476 1_556 S
C526 N521 1.318 1_556 S
C526 C525 1.396 . S
H527 C522 0.929 1_554 S
O528 Mn504 2.385 1_556 S
O528 C506 1.233 1_556 S
O529 Mn504 2.209 . S
O529 Mn505 2.215 . S
O529 C506 1.286 . S
O530 Mn504 2.094 . S
O530 C508 1.240 . S
O531 Mn505 2.117 . S
O531 C508 1.264 . S
C532 C525 1.403 . S
C532 C533 1.399 . S
C532 H538 0.929 . S
C533 C513 1.449 1_556 S
C533 C532 1.399 . S
C533 H539 0.930 . S
H534 C514 0.931 . S
H535 C515 0.930 . S
H536 C523 0.931 . S
H537 C524 0.929 . S
H538 C532 0.929 . S
H539 C533 0.930 . S
Mn540 O545 2.095 . S
Mn540 O555 2.162 . S
Mn540 O556 2.297 . S
Mn540 O564 2.385 . S
Mn540 O565 2.209 . S
Mn540 O566 2.094 . S
Mn541 O546 2.121 . S
Mn541 N548 2.257 . S
Mn541 N557 2.282 . S
Mn541 O565 2.215 . S
Mn541 O567 2.117 . S
C542 O564 1.234 . S
C542 O565 1.283 . S
C543 O555 1.281 . S
C543 O556 1.236 . S
C544 O566 1.240 . S
C544 O567 1.264 . S
O545 Mn540 2.095 . S
O545 C554 1.250 . S
O546 Mn541 2.121 . S
O546 C554 1.258 . S
C547 N548 1.326 1_655 S
C547 C551 1.460 . S
C547 H553 0.929 . S
N548 Mn541 2.257 . S
N548 C547 1.326 1_455 S
N548 C552 1.362 . S
C549 C550 1.258 . S
C549 C552 1.431 1_655 S
C549 C569 1.449 . S
C550 C549 1.258 . S
C550 C551 1.477 . S
C550 H570 0.931 . S
C551 C547 1.460 . S
C551 C550 1.477 . S
C551 H571 0.930 . S
C552 N548 1.362 . S
C552 C549 1.431 1_455 S
C552 C562 1.476 . S
H553 C547 0.929 . S
C554 O545 1.250 . S
C554 O546 1.258 . S
O555 Mn540 2.162 . S
O555 C543 1.281 . S
O556 Mn540 2.297 . S
O556 C543 1.236 . S
N557 Mn541 2.282 . S
N557 C558 1.328 . S
N557 C562 1.318 . S
C558 N557 1.328 . S
C558 C559 1.457 . S
C558 H563 0.929 . S
C559 C558 1.457 . S
C559 C560 1.291 . S
C559 H572 0.931 . S
C560 C559 1.291 . S
C560 C561 1.373 . S
C560 H573 0.929 . S
C561 C560 1.373 . S
C561 C562 1.396 . S
C561 C568 1.403 . S
C562 C552 1.476 . S
C562 N557 1.318 . S
C562 C561 1.396 . S
H563 C558 0.929 . S
O564 Mn540 2.385 . S
O564 C542 1.234 . S
O565 Mn540 2.209 . S
O565 Mn541 2.215 . S
O565 C542 1.283 . S
O566 Mn540 2.094 . S
O566 C544 1.240 . S
O567 Mn541 2.117 . S
O567 C544 1.264 . S
C568 C561 1.403 . S
C568 C569 1.399 1_455 S
C568 H574 0.929 . S
C569 C549 1.449 . S
C569 C568 1.399 1_655 S
C569 H575 0.930 . S
H570 C550 0.931 . S
H571 C551 0.930 . S
H572 C559 0.931 . S
H573 C560 0.929 . S
H574 C568 0.929 . S
H575 C569 0.930 . S
Mn576 O581 2.095 . S
Mn576 O591 2.162 . S
Mn576 O592 2.297 . S
Mn576 O600 2.385 . S
Mn576 O601 2.209 . S
Mn576 O602 2.094 . S
Mn577 O582 2.121 . S
Mn577 N584 2.257 . S
Mn577 N593 2.282 . S
Mn577 O601 2.215 . S
Mn577 O603 2.117 . S
C578 O600 1.234 . S
C578 O601 1.283 . S
C579 O591 1.281 . S
C579 O592 1.236 . S
C580 O602 1.240 . S
C580 O603 1.264 . S
O581 Mn576 2.095 . S
O581 C590 1.250 . S
O582 Mn577 2.121 . S
O582 C590 1.258 . S
C583 N584 1.326 . S
C583 C587 1.460 . S
C583 H589 0.929 . S
N584 Mn577 2.257 . S
N584 C583 1.326 . S
N584 C588 1.362 . S
C585 C586 1.258 . S
C585 C588 1.431 . S
C585 C605 1.449 . S
C586 C585 1.258 . S
C586 C587 1.477 . S
C586 H606 0.931 . S
C587 C583 1.460 . S
C587 C586 1.477 . S
C587 H607 0.930 . S
C588 N584 1.362 . S
C588 C585 1.431 . S
C588 C598 1.476 . S
H589 C583 0.929 . S
C590 O581 1.250 . S
C590 O582 1.258 . S
O591 Mn576 2.162 . S
O591 C579 1.281 . S
O592 Mn576 2.297 . S
O592 C579 1.236 . S
N593 Mn577 2.282 . S
N593 C594 1.328 . S
N593 C598 1.318 . S
C594 N593 1.328 . S
C594 C595 1.457 . S
C594 H599 0.929 . S
C595 C594 1.457 . S
C595 C596 1.291 . S
C595 H608 0.931 . S
C596 C595 1.291 . S
C596 C597 1.373 . S
C596 H609 0.929 . S
C597 C596 1.373 . S
C597 C598 1.396 . S
C597 C604 1.403 . S
C598 C588 1.476 . S
C598 N593 1.318 . S
C598 C597 1.396 . S
H599 C594 0.929 . S
O600 Mn576 2.385 . S
O600 C578 1.234 . S
O601 Mn576 2.209 . S
O601 Mn577 2.215 . S
O601 C578 1.283 . S
O602 Mn576 2.094 . S
O602 C580 1.240 . S
O603 Mn577 2.117 . S
O603 C580 1.264 . S
C604 C597 1.403 . S
C604 C605 1.399 . S
C604 H610 0.929 . S
C605 C585 1.449 . S
C605 C604 1.399 . S
C605 H611 0.930 . S
H606 C586 0.931 . S
H607 C587 0.930 . S
H608 C595 0.931 . S
H609 C596 0.929 . S
H610 C604 0.929 . S
H611 C605 0.930 . S
Mn612 O617 2.095 . S
Mn612 O627 2.162 . S
Mn612 O628 2.297 . S
Mn612 O636 2.385 . S
Mn612 O637 2.209 . S
Mn612 O638 2.094 . S
Mn613 O618 2.121 . S
Mn613 N620 2.257 . S
Mn613 N629 2.282 . S
Mn613 O637 2.215 . S
Mn613 O639 2.117 . S
C614 O636 1.234 . S
C614 O637 1.283 . S
C615 O627 1.281 . S
C615 O628 1.236 . S
C616 O638 1.240 . S
C616 O639 1.264 . S
O617 Mn612 2.095 . S
O617 C626 1.250 . S
O618 Mn613 2.121 . S
O618 C626 1.258 . S
C619 N620 1.326 . S
C619 C623 1.460 . S
C619 H625 0.929 . S
N620 Mn613 2.257 . S
N620 C619 1.326 . S
N620 C624 1.362 . S
C621 C622 1.258 . S
C621 C624 1.431 . S
C621 C641 1.449 . S
C622 C621 1.258 . S
C622 C623 1.477 . S
C622 H642 0.931 . S
C623 C619 1.460 . S
C623 C622 1.477 . S
C623 H643 0.930 . S
C624 N620 1.362 . S
C624 C621 1.431 . S
C624 C634 1.476 . S
H625 C619 0.929 . S
C626 O617 1.250 . S
C626 O618 1.258 . S
O627 Mn612 2.162 . S
O627 C615 1.281 . S
O628 Mn612 2.297 . S
O628 C615 1.236 . S
N629 Mn613 2.282 . S
N629 C630 1.328 . S
N629 C634 1.318 . S
C630 N629 1.328 . S
C630 C631 1.457 . S
C630 H635 0.929 . S
C631 C630 1.457 . S
C631 C632 1.291 . S
C631 H644 0.931 . S
C632 C631 1.291 . S
C632 C633 1.373 . S
C632 H645 0.929 . S
C633 C632 1.373 . S
C633 C634 1.396 . S
C633 C640 1.403 . S
C634 C624 1.476 . S
C634 N629 1.318 . S
C634 C633 1.396 . S
H635 C630 0.929 . S
O636 Mn612 2.385 . S
O636 C614 1.234 . S
O637 Mn612 2.209 . S
O637 Mn613 2.215 . S
O637 C614 1.283 . S
O638 Mn612 2.094 . S
O638 C616 1.240 . S
O639 Mn613 2.117 . S
O639 C616 1.264 . S
C640 C633 1.403 . S
C640 C641 1.399 . S
C640 H646 0.929 . S
C641 C621 1.449 . S
C641 C640 1.399 . S
C641 H647 0.930 . S
H642 C622 0.931 . S
H643 C623 0.930 . S
H644 C631 0.931 . S
H645 C632 0.929 . S
H646 C640 0.929 . S
H647 C641 0.930 . S
Mn648 O653 2.095 . S
Mn648 O663 2.162 . S
Mn648 O664 2.297 . S
Mn648 O672 2.385 1_554 S
Mn648 O673 2.209 . S
Mn648 O674 2.094 . S
Mn649 O654 2.121 . S
Mn649 N656 2.257 . S
Mn649 N665 2.282 . S
Mn649 O673 2.215 . S
Mn649 O675 2.117 . S
C650 O672 1.234 1_554 S
C650 O673 1.283 . S
C651 O663 1.281 . S
C651 O664 1.236 . S
C652 O674 1.240 . S
C652 O675 1.264 . S
O653 Mn648 2.095 . S
O653 C662 1.250 . S
O654 Mn649 2.121 . S
O654 C662 1.258 . S
C655 N656 1.326 . S
C655 C659 1.460 . S
C655 H661 0.929 . S
N656 Mn649 2.257 . S
N656 C655 1.326 . S
N656 C660 1.362 . S
C657 C658 1.258 . S
C657 C660 1.431 . S
C657 C677 1.449 1_554 S
C658 C657 1.258 . S
C658 C659 1.477 . S
C658 H678 0.931 . S
C659 C655 1.460 . S
C659 C658 1.477 . S
C659 H679 0.930 . S
C660 N656 1.362 . S
C660 C657 1.431 . S
C660 C670 1.476 1_554 S
H661 C655 0.929 . S
C662 O653 1.250 . S
C662 O654 1.258 . S
O663 Mn648 2.162 . S
O663 C651 1.281 . S
O664 Mn648 2.297 . S
O664 C651 1.236 . S
N665 Mn649 2.282 . S
N665 C666 1.328 1_554 S
N665 C670 1.318 1_554 S
C666 N665 1.328 1_556 S
C666 C667 1.457 . S
C666 H671 0.929 1_556 S
C667 C666 1.457 . S
C667 C668 1.291 . S
C667 H680 0.931 . S
C668 C667 1.291 . S
C668 C669 1.373 . S
C668 H681 0.929 . S
C669 C668 1.373 . S
C669 C670 1.396 . S
C669 C676 1.403 . S
C670 C660 1.476 1_556 S
C670 N665 1.318 1_556 S
C670 C669 1.396 . S
H671 C666 0.929 1_554 S
O672 Mn648 2.385 1_556 S
O672 C650 1.234 1_556 S
O673 Mn648 2.209 . S
O673 Mn649 2.215 . S
O673 C650 1.283 . S
O674 Mn648 2.094 . S
O674 C652 1.240 . S
O675 Mn649 2.117 . S
O675 C652 1.264 . S
C676 C669 1.403 . S
C676 C677 1.399 . S
C676 H682 0.929 . S
C677 C657 1.449 1_556 S
C677 C676 1.399 . S
C677 H683 0.930 . S
H678 C658 0.931 . S
H679 C659 0.930 . S
H680 C667 0.931 . S
H681 C668 0.929 . S
H682 C676 0.929 . S
H683 C677 0.930 . S
Mn684 O689 2.095 . S
Mn684 O699 2.162 . S
Mn684 O700 2.297 . S
Mn684 O708 2.385 . S
Mn684 O709 2.209 . S
Mn684 O710 2.094 . S
Mn685 O690 2.121 . S
Mn685 N692 2.257 . S
Mn685 N701 2.282 . S
Mn685 O709 2.215 . S
Mn685 O711 2.117 . S
C686 O708 1.234 . S
C686 O709 1.283 . S
C687 O699 1.281 . S
C687 O700 1.236 . S
C688 O710 1.240 . S
C688 O711 1.264 . S
O689 Mn684 2.095 . S
O689 C698 1.250 . S
O690 Mn685 2.121 . S
O690 C698 1.258 . S
C691 N692 1.326 1_655 S
C691 C695 1.460 . S
C691 H697 0.929 . S
N692 Mn685 2.257 . S
N692 C691 1.326 1_455 S
N692 C696 1.362 . S
C693 C694 1.258 . S
C693 C696 1.431 1_655 S
C693 C713 1.449 . S
C694 C693 1.258 . S
C694 C695 1.477 . S
C694 H714 0.931 . S
C695 C691 1.460 . S
C695 C694 1.477 . S
C695 H715 0.930 . S
C696 N692 1.362 . S
C696 C693 1.431 1_455 S
C696 C706 1.476 . S
H697 C691 0.929 . S
C698 O689 1.250 . S
C698 O690 1.258 . S
O699 Mn684 2.162 . S
O699 C687 1.281 . S
O700 Mn684 2.297 . S
O700 C687 1.236 . S
N701 Mn685 2.282 . S
N701 C702 1.328 . S
N701 C706 1.318 . S
C702 N701 1.328 . S
C702 C703 1.457 . S
C702 H707 0.929 . S
C703 C702 1.457 . S
C703 C704 1.291 . S
C703 H716 0.931 . S
C704 C703 1.291 . S
C704 C705 1.373 . S
C704 H717 0.929 . S
C705 C704 1.373 . S
C705 C706 1.396 . S
C705 C712 1.403 . S
C706 C696 1.476 . S
C706 N701 1.318 . S
C706 C705 1.396 . S
H707 C702 0.929 . S
O708 Mn684 2.385 . S
O708 C686 1.234 . S
O709 Mn684 2.209 . S
O709 Mn685 2.215 . S
O709 C686 1.283 . S
O710 Mn684 2.094 . S
O710 C688 1.240 . S
O711 Mn685 2.117 . S
O711 C688 1.264 . S
C712 C705 1.403 . S
C712 C713 1.399 1_455 S
C712 H718 0.929 . S
C713 C693 1.449 . S
C713 C712 1.399 1_655 S
C713 H719 0.930 . S
H714 C694 0.931 . S
H715 C695 0.930 . S
H716 C703 0.931 . S
H717 C704 0.929 . S
H718 C712 0.929 . S
H719 C713 0.930 . S
Mn720 O725 2.095 . S
Mn720 O735 2.162 . S
Mn720 O736 2.297 . S
Mn720 O744 2.385 1_556 S
Mn720 O745 2.209 . S
Mn720 O746 2.094 . S
Mn721 O726 2.121 . S
Mn721 N728 2.257 . S
Mn721 N737 2.282 . S
Mn721 O745 2.215 . S
Mn721 O747 2.117 . S
C722 O744 1.233 1_556 S
C722 O745 1.286 . S
C723 O735 1.281 . S
C723 O736 1.236 . S
C724 O746 1.240 . S
C724 O747 1.264 . S
O725 Mn720 2.095 . S
O725 C734 1.250 . S
O726 Mn721 2.121 . S
O726 C734 1.258 . S
C727 N728 1.326 . S
C727 C731 1.460 . S
C727 H733 0.929 . S
N728 Mn721 2.257 . S
N728 C727 1.326 . S
N728 C732 1.362 . S
C729 C730 1.258 . S
C729 C732 1.431 . S
C729 C749 1.449 1_556 S
C730 C729 1.258 . S
C730 C731 1.477 . S
C730 H750 0.931 . S
C731 C727 1.460 . S
C731 C730 1.477 . S
C731 H751 0.930 . S
C732 N728 1.362 . S
C732 C729 1.431 . S
C732 C742 1.476 1_556 S
H733 C727 0.929 . S
C734 O725 1.250 . S
C734 O726 1.258 . S
O735 Mn720 2.162 . S
O735 C723 1.281 . S
O736 Mn720 2.297 . S
O736 C723 1.236 . S
N737 Mn721 2.282 . S
N737 C738 1.328 1_556 S
N737 C742 1.318 1_556 S
C738 N737 1.328 1_554 S
C738 C739 1.457 . S
C738 H743 0.929 1_554 S
C739 C738 1.457 . S
C739 C740 1.291 . S
C739 H752 0.931 . S
C740 C739 1.291 . S
C740 C741 1.373 . S
C740 H753 0.929 . S
C741 C740 1.373 . S
C741 C742 1.396 . S
C741 C748 1.403 . S
C742 C732 1.476 1_554 S
C742 N737 1.318 1_554 S
C742 C741 1.396 . S
H743 C738 0.929 1_556 S
O744 Mn720 2.385 1_554 S
O744 C722 1.233 1_554 S
O745 Mn720 2.209 . S
O745 Mn721 2.215 . S
O745 C722 1.286 . S
O746 Mn720 2.094 . S
O746 C724 1.240 . S
O747 Mn721 2.117 . S
O747 C724 1.264 . S
C748 C741 1.403 . S
C748 C749 1.399 . S
C748 H754 0.929 . S
C749 C729 1.449 1_554 S
C749 C748 1.399 . S
C749 H755 0.930 . S
H750 C730 0.931 . S
H751 C731 0.930 . S
H752 C739 0.931 . S
H753 C740 0.929 . S
H754 C748 0.929 . S
H755 C749 0.930 . S
Mn756 O761 2.095 . S
Mn756 O771 2.162 . S
Mn756 O772 2.297 . S
Mn756 O780 2.385 . S
Mn756 O781 2.209 . S
Mn756 O782 2.094 . S
Mn757 O762 2.121 . S
Mn757 N764 2.257 . S
Mn757 N773 2.282 . S
Mn757 O781 2.215 . S
Mn757 O783 2.117 . S
C758 O780 1.234 . S
C758 O781 1.283 . S
C759 O771 1.281 . S
C759 O772 1.236 . S
C760 O782 1.240 . S
C760 O783 1.264 . S
O761 Mn756 2.095 . S
O761 C770 1.250 . S
O762 Mn757 2.121 . S
O762 C770 1.258 . S
C763 N764 1.326 1_655 S
C763 C767 1.460 . S
C763 H769 0.929 . S
N764 Mn757 2.257 . S
N764 C763 1.326 1_455 S
N764 C768 1.362 . S
C765 C766 1.258 . S
C765 C768 1.431 1_655 S
C765 C785 1.449 . S
C766 C765 1.258 . S
C766 C767 1.477 . S
C766 H786 0.931 . S
C767 C763 1.460 . S
C767 C766 1.477 . S
C767 H787 0.930 . S
C768 N764 1.362 . S
C768 C765 1.431 1_455 S
C768 C778 1.476 . S
H769 C763 0.929 . S
C770 O761 1.250 . S
C770 O762 1.258 . S
O771 Mn756 2.162 . S
O771 C759 1.281 . S
O772 Mn756 2.297 . S
O772 C759 1.236 . S
N773 Mn757 2.282 . S
N773 C774 1.328 . S
N773 C778 1.318 . S
C774 N773 1.328 . S
C774 C775 1.457 . S
C774 H779 0.929 . S
C775 C774 1.457 . S
C775 C776 1.291 . S
C775 H788 0.931 . S
C776 C775 1.291 . S
C776 C777 1.373 . S
C776 H789 0.929 . S
C777 C776 1.373 . S
C777 C778 1.396 . S
C777 C784 1.403 . S
C778 C768 1.476 . S
C778 N773 1.318 . S
C778 C777 1.396 . S
H779 C774 0.929 . S
O780 Mn756 2.385 . S
O780 C758 1.234 . S
O781 Mn756 2.209 . S
O781 Mn757 2.215 . S
O781 C758 1.283 . S
O782 Mn756 2.094 . S
O782 C760 1.240 . S
O783 Mn757 2.117 . S
O783 C760 1.264 . S
C784 C777 1.403 . S
C784 C785 1.399 1_455 S
C784 H790 0.929 . S
C785 C765 1.449 . S
C785 C784 1.399 1_655 S
C785 H791 0.930 . S
H786 C766 0.931 . S
H787 C767 0.930 . S
H788 C775 0.931 . S
H789 C776 0.929 . S
H790 C784 0.929 . S
H791 C785 0.930 . S
Mn792 O797 2.095 . S
Mn792 O807 2.162 . S
Mn792 O808 2.297 . S
Mn792 O816 2.385 . S
Mn792 O817 2.209 . S
Mn792 O818 2.094 . S
Mn793 O798 2.121 . S
Mn793 N800 2.257 . S
Mn793 N809 2.282 . S
Mn793 O817 2.215 . S
Mn793 O819 2.117 . S
C794 O816 1.234 . S
C794 O817 1.283 . S
C795 O807 1.281 . S
C795 O808 1.236 . S
C796 O818 1.240 . S
C796 O819 1.264 . S
O797 Mn792 2.095 . S
O797 C806 1.250 . S
O798 Mn793 2.121 . S
O798 C806 1.258 . S
C799 N800 1.326 . S
C799 C803 1.460 . S
C799 H805 0.929 . S
N800 Mn793 2.257 . S
N800 C799 1.326 . S
N800 C804 1.362 . S
C801 C802 1.258 . S
C801 C804 1.431 . S
C801 C821 1.449 . S
C802 C801 1.258 . S
C802 C803 1.477 . S
C802 H822 0.931 . S
C803 C799 1.460 . S
C803 C802 1.477 . S
C803 H823 0.930 . S
C804 N800 1.362 . S
C804 C801 1.431 . S
C804 C814 1.476 . S
H805 C799 0.929 . S
C806 O797 1.250 . S
C806 O798 1.258 . S
O807 Mn792 2.162 . S
O807 C795 1.281 . S
O808 Mn792 2.297 . S
O808 C795 1.236 . S
N809 Mn793 2.282 . S
N809 C810 1.328 . S
N809 C814 1.318 . S
C810 N809 1.328 . S
C810 C811 1.457 . S
C810 H815 0.929 . S
C811 C810 1.457 . S
C811 C812 1.291 . S
C811 H824 0.931 . S
C812 C811 1.291 . S
C812 C813 1.373 . S
C812 H825 0.929 . S
C813 C812 1.373 . S
C813 C814 1.396 . S
C813 C820 1.403 . S
C814 C804 1.476 . S
C814 N809 1.318 . S
C814 C813 1.396 . S
H815 C810 0.929 . S
O816 Mn792 2.385 . S
O816 C794 1.234 . S
O817 Mn792 2.209 . S
O817 Mn793 2.215 . S
O817 C794 1.283 . S
O818 Mn792 2.094 . S
O818 C796 1.240 . S
O819 Mn793 2.117 . S
O819 C796 1.264 . S
C820 C813 1.403 . S
C820 C821 1.399 . S
C820 H826 0.929 . S
C821 C801 1.449 . S
C821 C820 1.399 . S
C821 H827 0.930 . S
H822 C802 0.931 . S
H823 C803 0.930 . S
H824 C811 0.931 . S
H825 C812 0.929 . S
H826 C820 0.929 . S
H827 C821 0.930 . S
Mn828 O833 2.095 . S
Mn828 O843 2.162 . S
Mn828 O844 2.297 . S
Mn828 O852 2.385 . S
Mn828 O853 2.209 . S
Mn828 O854 2.094 . S
Mn829 O834 2.121 . S
Mn829 N836 2.257 . S
Mn829 N845 2.282 . S
Mn829 O853 2.215 . S
Mn829 O855 2.117 . S
C830 O852 1.234 . S
C830 O853 1.283 . S
C831 O843 1.281 . S
C831 O844 1.236 . S
C832 O854 1.240 . S
C832 O855 1.264 . S
O833 Mn828 2.095 . S
O833 C842 1.250 . S
O834 Mn829 2.121 . S
O834 C842 1.258 . S
C835 N836 1.326 . S
C835 C839 1.460 . S
C835 H841 0.929 . S
N836 Mn829 2.257 . S
N836 C835 1.326 . S
N836 C840 1.362 . S
C837 C838 1.258 . S
C837 C840 1.431 . S
C837 C857 1.449 . S
C838 C837 1.258 . S
C838 C839 1.477 . S
C838 H858 0.931 . S
C839 C835 1.460 . S
C839 C838 1.477 . S
C839 H859 0.930 . S
C840 N836 1.362 . S
C840 C837 1.431 . S
C840 C850 1.476 . S
H841 C835 0.929 . S
C842 O833 1.250 . S
C842 O834 1.258 . S
O843 Mn828 2.162 . S
O843 C831 1.281 . S
O844 Mn828 2.297 . S
O844 C831 1.236 . S
N845 Mn829 2.282 . S
N845 C846 1.328 . S
N845 C850 1.318 . S
C846 N845 1.328 . S
C846 C847 1.457 . S
C846 H851 0.929 . S
C847 C846 1.457 . S
C847 C848 1.291 . S
C847 H860 0.931 . S
C848 C847 1.291 . S
C848 C849 1.373 . S
C848 H861 0.929 . S
C849 C848 1.373 . S
C849 C850 1.396 . S
C849 C856 1.403 . S
C850 C840 1.476 . S
C850 N845 1.318 . S
C850 C849 1.396 . S
H851 C846 0.929 . S
O852 Mn828 2.385 . S
O852 C830 1.234 . S
O853 Mn828 2.209 . S
O853 Mn829 2.215 . S
O853 C830 1.283 . S
O854 Mn828 2.094 . S
O854 C832 1.240 . S
O855 Mn829 2.117 . S
O855 C832 1.264 . S
C856 C849 1.403 . S
C856 C857 1.399 . S
C856 H862 0.929 . S
C857 C837 1.449 . S
C857 C856 1.399 . S
C857 H863 0.930 . S
H858 C838 0.931 . S
H859 C839 0.930 . S
H860 C847 0.931 . S
H861 C848 0.929 . S
H862 C856 0.929 . S
H863 C857 0.930 . S
Mn864 O869 2.095 . S
Mn864 O879 2.162 . S
Mn864 O880 2.297 . S
Mn864 O888 2.385 . S
Mn864 O889 2.209 . S
Mn864 O890 2.094 . S
Mn865 O870 2.121 . S
Mn865 N872 2.257 . S
Mn865 N881 2.282 . S
Mn865 O889 2.215 . S
Mn865 O891 2.117 . S
C866 O888 1.234 . S
C866 O889 1.283 . S
C867 O879 1.281 . S
C867 O880 1.236 . S
C868 O890 1.240 . S
C868 O891 1.264 . S
O869 Mn864 2.095 . S
O869 C878 1.250 . S
O870 Mn865 2.121 . S
O870 C878 1.258 . S
C871 N872 1.326 . S
C871 C875 1.460 . S
C871 H877 0.929 . S
N872 Mn865 2.257 . S
N872 C871 1.326 . S
N872 C876 1.362 . S
C873 C874 1.258 . S
C873 C876 1.431 . S
C873 C893 1.449 . S
C874 C873 1.258 . S
C874 C875 1.477 . S
C874 H894 0.931 . S
C875 C871 1.460 . S
C875 C874 1.477 . S
C875 H895 0.930 . S
C876 N872 1.362 . S
C876 C873 1.431 . S
C876 C886 1.476 . S
H877 C871 0.929 . S
C878 O869 1.250 . S
C878 O870 1.258 . S
O879 Mn864 2.162 . S
O879 C867 1.281 . S
O880 Mn864 2.297 . S
O880 C867 1.236 . S
N881 Mn865 2.282 . S
N881 C882 1.328 . S
N881 C886 1.318 . S
C882 N881 1.328 . S
C882 C883 1.457 . S
C882 H887 0.929 . S
C883 C882 1.457 . S
C883 C884 1.291 . S
C883 H896 0.931 . S
C884 C883 1.291 . S
C884 C885 1.373 . S
C884 H897 0.929 . S
C885 C884 1.373 . S
C885 C886 1.396 . S
C885 C892 1.403 . S
C886 C876 1.476 . S
C886 N881 1.318 . S
C886 C885 1.396 . S
H887 C882 0.929 . S
O888 Mn864 2.385 . S
O888 C866 1.234 . S
O889 Mn864 2.209 . S
O889 Mn865 2.215 . S
O889 C866 1.283 . S
O890 Mn864 2.094 . S
O890 C868 1.240 . S
O891 Mn865 2.117 . S
O891 C868 1.264 . S
C892 C885 1.403 . S
C892 C893 1.399 . S
C892 H898 0.929 . S
C893 C873 1.449 . S
C893 C892 1.399 . S
C893 H899 0.930 . S
H894 C874 0.931 . S
H895 C875 0.930 . S
H896 C883 0.931 . S
H897 C884 0.929 . S
H898 C892 0.929 . S
H899 C893 0.930 . S
Mn900 O905 2.095 . S
Mn900 O915 2.162 . S
Mn900 O916 2.297 . S
Mn900 O924 2.385 . S
Mn900 O925 2.209 . S
Mn900 O926 2.094 . S
Mn901 O906 2.121 . S
Mn901 N908 2.257 . S
Mn901 N917 2.282 . S
Mn901 O925 2.215 . S
Mn901 O927 2.117 . S
C902 O924 1.234 . S
C902 O925 1.283 . S
C903 O915 1.281 . S
C903 O916 1.236 . S
C904 O926 1.240 . S
C904 O927 1.264 . S
O905 Mn900 2.095 . S
O905 C914 1.250 . S
O906 Mn901 2.121 . S
O906 C914 1.258 . S
C907 N908 1.326 . S
C907 C911 1.460 . S
C907 H913 0.929 . S
N908 Mn901 2.257 . S
N908 C907 1.326 . S
N908 C912 1.362 . S
C909 C910 1.258 . S
C909 C912 1.431 . S
C909 C929 1.449 . S
C910 C909 1.258 . S
C910 C911 1.477 . S
C910 H930 0.931 . S
C911 C907 1.460 . S
C911 C910 1.477 . S
C911 H931 0.930 . S
C912 N908 1.362 . S
C912 C909 1.431 . S
C912 C922 1.476 . S
H913 C907 0.929 . S
C914 O905 1.250 . S
C914 O906 1.258 . S
O915 Mn900 2.162 . S
O915 C903 1.281 . S
O916 Mn900 2.297 . S
O916 C903 1.236 . S
N917 Mn901 2.282 . S
N917 C918 1.328 . S
N917 C922 1.318 . S
C918 N917 1.328 . S
C918 C919 1.457 . S
C918 H923 0.929 . S
C919 C918 1.457 . S
C919 C920 1.291 . S
C919 H932 0.931 . S
C920 C919 1.291 . S
C920 C921 1.373 . S
C920 H933 0.929 . S
C921 C920 1.373 . S
C921 C922 1.396 . S
C921 C928 1.403 . S
C922 C912 1.476 . S
C922 N917 1.318 . S
C922 C921 1.396 . S
H923 C918 0.929 . S
O924 Mn900 2.385 . S
O924 C902 1.234 . S
O925 Mn900 2.209 . S
O925 Mn901 2.215 . S
O925 C902 1.283 . S
O926 Mn900 2.094 . S
O926 C904 1.240 . S
O927 Mn901 2.117 . S
O927 C904 1.264 . S
C928 C921 1.403 . S
C928 C929 1.399 . S
C928 H934 0.929 . S
C929 C909 1.449 . S
C929 C928 1.399 . S
C929 H935 0.930 . S
H930 C910 0.931 . S
H931 C911 0.930 . S
H932 C919 0.931 . S
H933 C920 0.929 . S
H934 C928 0.929 . S
H935 C929 0.930 . S
Mn936 O941 2.095 . S
Mn936 O951 2.162 . S
Mn936 O952 2.297 . S
Mn936 O960 2.385 1_556 S
Mn936 O961 2.209 . S
Mn936 O962 2.094 . S
Mn937 O942 2.121 . S
Mn937 N944 2.257 . S
Mn937 N953 2.282 . S
Mn937 O961 2.215 . S
Mn937 O963 2.117 . S
C938 O960 1.234 1_556 S
C938 O961 1.283 . S
C939 O951 1.281 . S
C939 O952 1.236 . S
C940 O962 1.240 . S
C940 O963 1.264 . S
O941 Mn936 2.095 . S
O941 C950 1.250 . S
O942 Mn937 2.121 . S
O942 C950 1.258 . S
C943 N944 1.326 . S
C943 C947 1.460 . S
C943 H949 0.929 . S
N944 Mn937 2.257 . S
N944 C943 1.326 . S
N944 C948 1.362 . S
C945 C946 1.258 . S
C945 C948 1.431 . S
C945 C965 1.449 1_556 S
C946 C945 1.258 . S
C946 C947 1.477 . S
C946 H966 0.931 . S
C947 C943 1.460 . S
C947 C946 1.477 . S
C947 H967 0.930 . S
C948 N944 1.362 . S
C948 C945 1.431 . S
C948 C958 1.476 1_556 S
H949 C943 0.929 . S
C950 O941 1.250 . S
C950 O942 1.258 . S
O951 Mn936 2.162 . S
O951 C939 1.281 . S
O952 Mn936 2.297 . S
O952 C939 1.236 . S
N953 Mn937 2.282 . S
N953 C954 1.328 1_556 S
N953 C958 1.318 1_556 S
C954 N953 1.328 1_554 S
C954 C955 1.457 . S
C954 H959 0.929 1_554 S
C955 C954 1.457 . S
C955 C956 1.291 . S
C955 H968 0.931 . S
C956 C955 1.291 . S
C956 C957 1.373 . S
C956 H969 0.929 . S
C957 C956 1.373 . S
C957 C958 1.396 . S
C957 C964 1.403 . S
C958 C948 1.476 1_554 S
C958 N953 1.318 1_554 S
C958 C957 1.396 . S
H959 C954 0.929 1_556 S
O960 Mn936 2.385 1_554 S
O960 C938 1.234 1_554 S
O961 Mn936 2.209 . S
O961 Mn937 2.215 . S
O961 C938 1.283 . S
O962 Mn936 2.094 . S
O962 C940 1.240 . S
O963 Mn937 2.117 . S
O963 C940 1.264 . S
C964 C957 1.403 . S
C964 C965 1.399 . S
C964 H970 0.929 . S
C965 C945 1.449 1_554 S
C965 C964 1.399 . S
C965 H971 0.930 . S
H966 C946 0.931 . S
H967 C947 0.930 . S
H968 C955 0.931 . S
H969 C956 0.929 . S
H970 C964 0.929 . S
H971 C965 0.930 . S
Mn972 O977 2.095 . S
Mn972 O987 2.162 . S
Mn972 O988 2.297 . S
Mn972 O996 2.385 . S
Mn972 O997 2.209 . S
Mn972 O998 2.094 . S
Mn973 O978 2.121 . S
Mn973 N980 2.257 . S
Mn973 N989 2.282 . S
Mn973 O997 2.215 . S
Mn973 O999 2.117 . S
C974 O996 1.234 . S
C974 O997 1.283 . S
C975 O987 1.281 . S
C975 O988 1.236 . S
C976 O998 1.240 . S
C976 O999 1.264 . S
O977 Mn972 2.095 . S
O977 C986 1.250 . S
O978 Mn973 2.121 . S
O978 C986 1.258 . S
C979 N980 1.326 1_455 S
C979 C983 1.460 . S
C979 H985 0.929 . S
N980 Mn973 2.257 . S
N980 C979 1.326 1_655 S
N980 C984 1.362 . S
C981 C982 1.258 . S
C981 C984 1.431 1_455 S
C981 C1001 1.449 . S
C982 C981 1.258 . S
C982 C983 1.477 . S
C982 H1002 0.931 . S
C983 C979 1.460 . S
C983 C982 1.477 . S
C983 H1003 0.930 . S
C984 N980 1.362 . S
C984 C981 1.431 1_655 S
C984 C994 1.476 . S
H985 C979 0.929 . S
C986 O977 1.250 . S
C986 O978 1.258 . S
O987 Mn972 2.162 . S
O987 C975 1.281 . S
O988 Mn972 2.297 . S
O988 C975 1.236 . S
N989 Mn973 2.282 . S
N989 C990 1.328 . S
N989 C994 1.318 . S
C990 N989 1.328 . S
C990 C991 1.457 . S
C990 H995 0.929 . S
C991 C990 1.457 . S
C991 C992 1.291 . S
C991 H1004 0.931 . S
C992 C991 1.291 . S
C992 C993 1.373 . S
C992 H1005 0.929 . S
C993 C992 1.373 . S
C993 C994 1.396 . S
C993 C1000 1.403 . S
C994 C984 1.476 . S
C994 N989 1.318 . S
C994 C993 1.396 . S
H995 C990 0.929 . S
O996 Mn972 2.385 . S
O996 C974 1.234 . S
O997 Mn972 2.209 . S
O997 Mn973 2.215 . S
O997 C974 1.283 . S
O998 Mn972 2.094 . S
O998 C976 1.240 . S
O999 Mn973 2.117 . S
O999 C976 1.264 . S
C1000 C993 1.403 . S
C1000 C1001 1.399 1_655 S
C1000 H1006 0.929 . S
C1001 C981 1.449 . S
C1001 C1000 1.399 1_455 S
C1001 H1007 0.930 . S
H1002 C982 0.931 . S
H1003 C983 0.930 . S
H1004 C991 0.931 . S
H1005 C992 0.929 . S
H1006 C1000 0.929 . S
H1007 C1001 0.930 . S
Mn1008 O1013 2.095 . S
Mn1008 O1023 2.162 . S
Mn1008 O1024 2.297 . S
Mn1008 O1032 2.385 1_554 S
Mn1008 O1033 2.209 . S
Mn1008 O1034 2.094 . S
Mn1009 O1014 2.121 . S
Mn1009 N1016 2.257 . S
Mn1009 N1025 2.282 . S
Mn1009 O1033 2.215 . S
Mn1009 O1035 2.117 . S
C1010 O1032 1.233 1_554 S
C1010 O1033 1.286 . S
C1011 O1023 1.281 . S
C1011 O1024 1.236 . S
C1012 O1034 1.240 . S
C1012 O1035 1.264 . S
O1013 Mn1008 2.095 . S
O1013 C1022 1.250 . S
O1014 Mn1009 2.121 . S
O1014 C1022 1.258 . S
C1015 N1016 1.326 . S
C1015 C1019 1.460 . S
C1015 H1021 0.929 . S
N1016 Mn1009 2.257 . S
N1016 C1015 1.326 . S
N1016 C1020 1.362 . S
C1017 C1018 1.258 . S
C1017 C1020 1.431 . S
C1017 C1037 1.449 1_554 S
C1018 C1017 1.258 . S
C1018 C1019 1.477 . S
C1018 H1038 0.931 . S
C1019 C1015 1.460 . S
C1019 C1018 1.477 . S
C1019 H1039 0.930 . S
C1020 N1016 1.362 . S
C1020 C1017 1.431 . S
C1020 C1030 1.476 1_554 S
H1021 C1015 0.929 . S
C1022 O1013 1.250 . S
C1022 O1014 1.258 . S
O1023 Mn1008 2.162 . S
O1023 C1011 1.281 . S
O1024 Mn1008 2.297 . S
O1024 C1011 1.236 . S
N1025 Mn1009 2.282 . S
N1025 C1026 1.328 1_554 S
N1025 C1030 1.318 1_554 S
C1026 N1025 1.328 1_556 S
C1026 C1027 1.457 . S
C1026 H1031 0.929 1_556 S
C1027 C1026 1.457 . S
C1027 C1028 1.291 . S
C1027 H1040 0.931 . S
C1028 C1027 1.291 . S
C1028 C1029 1.373 . S
C1028 H1041 0.929 . S
C1029 C1028 1.373 . S
C1029 C1030 1.396 . S
C1029 C1036 1.403 . S
C1030 C1020 1.476 1_556 S
C1030 N1025 1.318 1_556 S
C1030 C1029 1.396 . S
H1031 C1026 0.929 1_554 S
O1032 Mn1008 2.385 1_556 S
O1032 C1010 1.233 1_556 S
O1033 Mn1008 2.209 . S
O1033 Mn1009 2.215 . S
O1033 C1010 1.286 . S
O1034 Mn1008 2.094 . S
O1034 C1012 1.240 . S
O1035 Mn1009 2.117 . S
O1035 C1012 1.264 . S
C1036 C1029 1.403 . S
C1036 C1037 1.399 . S
C1036 H1042 0.929 . S
C1037 C1017 1.449 1_556 S
C1037 C1036 1.399 . S
C1037 H1043 0.930 . S
H1038 C1018 0.931 . S
H1039 C1019 0.930 . S
H1040 C1027 0.931 . S
H1041 C1028 0.929 . S
H1042 C1036 0.929 . S
H1043 C1037 0.930 . S
Mn1044 O1049 2.095 . S
Mn1044 O1059 2.162 . S
Mn1044 O1060 2.297 . S
Mn1044 O1068 2.385 . S
Mn1044 O1069 2.209 . S
Mn1044 O1070 2.094 . S
Mn1045 O1050 2.121 . S
Mn1045 N1052 2.257 . S
Mn1045 N1061 2.282 . S
Mn1045 O1069 2.215 . S
Mn1045 O1071 2.117 . S
C1046 O1068 1.234 . S
C1046 O1069 1.283 . S
C1047 O1059 1.281 . S
C1047 O1060 1.236 . S
C1048 O1070 1.240 . S
C1048 O1071 1.264 . S
O1049 Mn1044 2.095 . S
O1049 C1058 1.250 . S
O1050 Mn1045 2.121 . S
O1050 C1058 1.258 . S
C1051 N1052 1.326 1_455 S
C1051 C1055 1.460 . S
C1051 H1057 0.929 . S
N1052 Mn1045 2.257 . S
N1052 C1051 1.326 1_655 S
N1052 C1056 1.362 . S
C1053 C1054 1.258 . S
C1053 C1056 1.431 1_455 S
C1053 C1073 1.449 . S
C1054 C1053 1.258 . S
C1054 C1055 1.477 . S
C1054 H1074 0.931 . S
C1055 C1051 1.460 . S
C1055 C1054 1.477 . S
C1055 H1075 0.930 . S
C1056 N1052 1.362 . S
C1056 C1053 1.431 1_655 S
C1056 C1066 1.476 . S
H1057 C1051 0.929 . S
C1058 O1049 1.250 . S
C1058 O1050 1.258 . S
O1059 Mn1044 2.162 . S
O1059 C1047 1.281 . S
O1060 Mn1044 2.297 . S
O1060 C1047 1.236 . S
N1061 Mn1045 2.282 . S
N1061 C1062 1.328 . S
N1061 C1066 1.318 . S
C1062 N1061 1.328 . S
C1062 C1063 1.457 . S
C1062 H1067 0.929 . S
C1063 C1062 1.457 . S
C1063 C1064 1.291 . S
C1063 H1076 0.931 . S
C1064 C1063 1.291 . S
C1064 C1065 1.373 . S
C1064 H1077 0.929 . S
C1065 C1064 1.373 . S
C1065 C1066 1.396 . S
C1065 C1072 1.403 . S
C1066 C1056 1.476 . S
C1066 N1061 1.318 . S
C1066 C1065 1.396 . S
H1067 C1062 0.929 . S
O1068 Mn1044 2.385 . S
O1068 C1046 1.234 . S
O1069 Mn1044 2.209 . S
O1069 Mn1045 2.215 . S
O1069 C1046 1.283 . S
O1070 Mn1044 2.094 . S
O1070 C1048 1.240 . S
O1071 Mn1045 2.117 . S
O1071 C1048 1.264 . S
C1072 C1065 1.403 . S
C1072 C1073 1.399 1_655 S
C1072 H1078 0.929 . S
C1073 C1053 1.449 . S
C1073 C1072 1.399 1_455 S
C1073 H1079 0.930 . S
H1074 C1054 0.931 . S
H1075 C1055 0.930 . S
H1076 C1063 0.931 . S
H1077 C1064 0.929 . S
H1078 C1072 0.929 . S
H1079 C1073 0.930 . S
Mn1080 O1085 2.095 . S
Mn1080 O1095 2.162 . S
Mn1080 O1096 2.297 . S
Mn1080 O1104 2.385 . S
Mn1080 O1105 2.209 . S
Mn1080 O1106 2.094 . S
Mn1081 O1086 2.121 . S
Mn1081 N1088 2.257 . S
Mn1081 N1097 2.282 . S
Mn1081 O1105 2.215 . S
Mn1081 O1107 2.117 . S
C1082 O1104 1.234 . S
C1082 O1105 1.283 . S
C1083 O1095 1.281 . S
C1083 O1096 1.236 . S
C1084 O1106 1.240 . S
C1084 O1107 1.264 . S
O1085 Mn1080 2.095 . S
O1085 C1094 1.250 . S
O1086 Mn1081 2.121 . S
O1086 C1094 1.258 . S
C1087 N1088 1.326 . S
C1087 C1091 1.460 . S
C1087 H1093 0.929 . S
N1088 Mn1081 2.257 . S
N1088 C1087 1.326 . S
N1088 C1092 1.362 . S
C1089 C1090 1.258 . S
C1089 C1092 1.431 . S
C1089 C1109 1.449 . S
C1090 C1089 1.258 . S
C1090 C1091 1.477 . S
C1090 H1110 0.931 . S
C1091 C1087 1.460 . S
C1091 C1090 1.477 . S
C1091 H1111 0.930 . S
C1092 N1088 1.362 . S
C1092 C1089 1.431 . S
C1092 C1102 1.476 . S
H1093 C1087 0.929 . S
C1094 O1085 1.250 . S
C1094 O1086 1.258 . S
O1095 Mn1080 2.162 . S
O1095 C1083 1.281 . S
O1096 Mn1080 2.297 . S
O1096 C1083 1.236 . S
N1097 Mn1081 2.282 . S
N1097 C1098 1.328 . S
N1097 C1102 1.318 . S
C1098 N1097 1.328 . S
C1098 C1099 1.457 . S
C1098 H1103 0.929 . S
C1099 C1098 1.457 . S
C1099 C1100 1.291 . S
C1099 H1112 0.931 . S
C1100 C1099 1.291 . S
C1100 C1101 1.373 . S
C1100 H1113 0.929 . S
C1101 C1100 1.373 . S
C1101 C1102 1.396 . S
C1101 C1108 1.403 . S
C1102 C1092 1.476 . S
C1102 N1097 1.318 . S
C1102 C1101 1.396 . S
H1103 C1098 0.929 . S
O1104 Mn1080 2.385 . S
O1104 C1082 1.234 . S
O1105 Mn1080 2.209 . S
O1105 Mn1081 2.215 . S
O1105 C1082 1.283 . S
O1106 Mn1080 2.094 . S
O1106 C1084 1.240 . S
O1107 Mn1081 2.117 . S
O1107 C1084 1.264 . S
C1108 C1101 1.403 . S
C1108 C1109 1.399 . S
C1108 H1114 0.929 . S
C1109 C1089 1.449 . S
C1109 C1108 1.399 . S
C1109 H1115 0.930 . S
H1110 C1090 0.931 . S
H1111 C1091 0.930 . S
H1112 C1099 0.931 . S
H1113 C1100 0.929 . S
H1114 C1108 0.929 . S
H1115 C1109 0.930 . S
Mn1116 O1121 2.095 . S
Mn1116 O1131 2.162 . S
Mn1116 O1132 2.297 . S
Mn1116 O1140 2.385 . S
Mn1116 O1141 2.209 . S
Mn1116 O1142 2.094 . S
Mn1117 O1122 2.121 . S
Mn1117 N1124 2.257 . S
Mn1117 N1133 2.282 . S
Mn1117 O1141 2.215 . S
Mn1117 O1143 2.117 . S
C1118 O1140 1.234 . S
C1118 O1141 1.283 . S
C1119 O1131 1.281 . S
C1119 O1132 1.236 . S
C1120 O1142 1.240 . S
C1120 O1143 1.264 . S
O1121 Mn1116 2.095 . S
O1121 C1130 1.250 . S
O1122 Mn1117 2.121 . S
O1122 C1130 1.258 . S
C1123 N1124 1.326 . S
C1123 C1127 1.460 . S
C1123 H1129 0.929 . S
N1124 Mn1117 2.257 . S
N1124 C1123 1.326 . S
N1124 C1128 1.362 . S
C1125 C1126 1.258 . S
C1125 C1128 1.431 . S
C1125 C1145 1.449 . S
C1126 C1125 1.258 . S
C1126 C1127 1.477 . S
C1126 H1146 0.931 . S
C1127 C1123 1.460 . S
C1127 C1126 1.477 . S
C1127 H1147 0.930 . S
C1128 N1124 1.362 . S
C1128 C1125 1.431 . S
C1128 C1138 1.476 . S
H1129 C1123 0.929 . S
C1130 O1121 1.250 . S
C1130 O1122 1.258 . S
O1131 Mn1116 2.162 . S
O1131 C1119 1.281 . S
O1132 Mn1116 2.297 . S
O1132 C1119 1.236 . S
N1133 Mn1117 2.282 . S
N1133 C1134 1.328 . S
N1133 C1138 1.318 . S
C1134 N1133 1.328 . S
C1134 C1135 1.457 . S
C1134 H1139 0.929 . S
C1135 C1134 1.457 . S
C1135 C1136 1.291 . S
C1135 H1148 0.931 . S
C1136 C1135 1.291 . S
C1136 C1137 1.373 . S
C1136 H1149 0.929 . S
C1137 C1136 1.373 . S
C1137 C1138 1.396 . S
C1137 C1144 1.403 . S
C1138 C1128 1.476 . S
C1138 N1133 1.318 . S
C1138 C1137 1.396 . S
H1139 C1134 0.929 . S
O1140 Mn1116 2.385 . S
O1140 C1118 1.234 . S
O1141 Mn1116 2.209 . S
O1141 Mn1117 2.215 . S
O1141 C1118 1.283 . S
O1142 Mn1116 2.094 . S
O1142 C1120 1.240 . S
O1143 Mn1117 2.117 . S
O1143 C1120 1.264 . S
C1144 C1137 1.403 . S
C1144 C1145 1.399 . S
C1144 H1150 0.929 . S
C1145 C1125 1.449 . S
C1145 C1144 1.399 . S
C1145 H1151 0.930 . S
H1146 C1126 0.931 . S
H1147 C1127 0.930 . S
H1148 C1135 0.931 . S
H1149 C1136 0.929 . S
H1150 C1144 0.929 . S
H1151 C1145 0.930 . S
C1152 C1153 1.349 . S
C1152 C1154 1.327 . S
C1152 H1177 0.950 . S
C1153 C1152 1.349 . S
C1153 C1169 1.349 . S
C1154 C1152 1.327 . S
C1154 C1173 1.429 . S
C1154 H1178 0.950 1_556 S
C1155 C1172 1.574 . S
C1155 C1174 1.368 . S
C1155 H1179 0.949 . S
H1156 C1160 0.949 . S
C1157 C1158 1.349 . S
C1157 C1159 1.327 . S
C1157 H1180 0.950 . S
C1158 C1157 1.349 . S
C1158 C1170 1.349 . S
C1159 C1157 1.327 . S
C1159 C1175 1.429 . S
C1159 H1181 0.950 1_554 S
C1160 H1156 0.949 . S
C1160 C1168 1.574 . S
C1160 C1176 1.368 . S
H1161 C1169 0.950 . S
H1162 C1167 0.950 . S
H1163 C1168 0.949 . S
H1164 C1170 0.950 . S
H1165 C1171 0.950 . S
H1166 C1172 0.949 . S
C1167 H1162 0.950 . S
C1167 C1169 1.327 . S
C1167 C1173 1.429 . S
C1168 C1160 1.574 . S
C1168 H1163 0.949 . S
C1168 C1174 1.368 1_554 S
C1169 C1153 1.349 . S
C1169 H1161 0.950 . S
C1169 C1167 1.327 . S
C1170 C1158 1.349 . S
C1170 H1164 0.950 . S
C1170 C1171 1.327 . S
C1171 H1165 0.950 . S
C1171 C1170 1.327 . S
C1171 C1175 1.429 . S
C1172 C1155 1.574 . S
C1172 H1166 0.949 . S
C1172 C1176 1.368 1_556 S
C1173 C1154 1.429 . S
C1173 C1167 1.429 . S
C1173 C1174 1.523 . S
C1174 C1155 1.368 . S
C1174 C1168 1.368 1_556 S
C1174 C1173 1.523 . S
C1175 C1159 1.429 . S
C1175 C1171 1.429 . S
C1175 C1176 1.523 . S
C1176 C1160 1.368 . S
C1176 C1172 1.368 1_554 S
C1176 C1175 1.523 . S
H1177 C1152 0.950 . S
H1178 C1154 0.950 1_554 S
H1179 C1155 0.949 . S
H1180 C1157 0.950 . S
H1181 C1159 0.950 1_556 S
C1182 C1183 1.349 . S
C1182 C1184 1.327 . S
C1182 H1207 0.950 . S
C1183 C1182 1.349 . S
C1183 C1199 1.349 . S
C1184 C1182 1.327 . S
C1184 C1203 1.429 . S
C1184 H1208 0.950 . S
C1185 C1202 1.574 1_565 S
C1185 C1204 1.368 . S
C1185 H1209 0.949 . S
H1186 C1190 0.949 . S
C1187 C1188 1.349 . S
C1187 C1189 1.327 . S
C1187 H1210 0.950 . S
C1188 C1187 1.349 . S
C1188 C1200 1.349 . S
C1189 C1187 1.327 . S
C1189 C1205 1.429 . S
C1189 H1211 0.950 . S
C1190 H1186 0.949 . S
C1190 C1198 1.574 1_545 S
C1190 C1206 1.368 . S
H1191 C1199 0.950 . S
H1192 C1197 0.950 . S
H1193 C1198 0.949 . S
H1194 C1200 0.950 . S
H1195 C1201 0.950 . S
H1196 C1202 0.949 . S
C1197 H1192 0.950 . S
C1197 C1199 1.327 . S
C1197 C1203 1.429 . S
C1198 C1190 1.574 1_565 S
C1198 H1193 0.949 . S
C1198 C1204 1.368 . S
C1199 C1183 1.349 . S
C1199 H1191 0.950 . S
C1199 C1197 1.327 . S
C1200 C1188 1.349 . S
C1200 H1194 0.950 . S
C1200 C1201 1.327 . S
C1201 H1195 0.950 . S
C1201 C1200 1.327 . S
C1201 C1205 1.429 . S
C1202 C1185 1.574 1_545 S
C1202 H1196 0.949 . S
C1202 C1206 1.368 . S
C1203 C1184 1.429 . S
C1203 C1197 1.429 . S
C1203 C1204 1.523 . S
C1204 C1185 1.368 . S
C1204 C1198 1.368 . S
C1204 C1203 1.523 . S
C1205 C1189 1.429 . S
C1205 C1201 1.429 . S
C1205 C1206 1.523 . S
C1206 C1190 1.368 . S
C1206 C1202 1.368 . S
C1206 C1205 1.523 . S
H1207 C1182 0.950 . S
H1208 C1184 0.950 . S
H1209 C1185 0.949 . S
H1210 C1187 0.950 . S
H1211 C1189 0.950 . S
C1212 C1213 1.349 . S
C1212 C1214 1.327 . S
C1212 H1237 0.950 . S
C1213 C1212 1.349 . S
C1213 C1229 1.349 . S
C1214 C1212 1.327 . S
C1214 C1233 1.429 . S
C1214 H1238 0.950 . S
C1215 C1232 1.574 . S
C1215 C1234 1.368 . S
C1215 H1239 0.949 . S
H1216 C1220 0.949 . S
C1217 C1218 1.349 . S
C1217 C1219 1.327 . S
C1217 H1240 0.950 . S
C1218 C1217 1.349 . S
C1218 C1230 1.349 . S
C1219 C1217 1.327 . S
C1219 C1235 1.429 . S
C1219 H1241 0.950 . S
C1220 H1216 0.949 . S
C1220 C1228 1.574 . S
C1220 C1236 1.368 . S
H1221 C1229 0.950 . S
H1222 C1227 0.950 . S
H1223 C1228 0.949 . S
H1224 C1230 0.950 . S
H1225 C1231 0.950 . S
H1226 C1232 0.949 . S
C1227 H1222 0.950 . S
C1227 C1229 1.327 . S
C1227 C1233 1.429 . S
C1228 C1220 1.574 . S
C1228 H1223 0.949 . S
C1228 C1234 1.368 . S
C1229 C1213 1.349 . S
C1229 H1221 0.950 . S
C1229 C1227 1.327 . S
C1230 C1218 1.349 . S
C1230 H1224 0.950 . S
C1230 C1231 1.327 . S
C1231 H1225 0.950 . S
C1231 C1230 1.327 . S
C1231 C1235 1.429 . S
C1232 C1215 1.574 . S
C1232 H1226 0.949 . S
C1232 C1236 1.368 . S
C1233 C1214 1.429 . S
C1233 C1227 1.429 . S
C1233 C1234 1.523 . S
C1234 C1215 1.368 . S
C1234 C1228 1.368 . S
C1234 C1233 1.523 . S
C1235 C1219 1.429 . S
C1235 C1231 1.429 . S
C1235 C1236 1.523 . S
C1236 C1220 1.368 . S
C1236 C1232 1.368 . S
C1236 C1235 1.523 . S
H1237 C1212 0.950 . S
H1238 C1214 0.950 . S
H1239 C1215 0.949 . S
H1240 C1217 0.950 . S
H1241 C1219 0.950 . S
C1242 C1243 1.349 . S
C1242 C1244 1.327 . S
C1242 H1267 0.950 . S
C1243 C1242 1.349 . S
C1243 C1259 1.349 . S
C1244 C1242 1.327 . S
C1244 C1263 1.429 . S
C1244 H1268 0.950 . S
C1245 C1262 1.574 1_545 S
C1245 C1264 1.368 . S
C1245 H1269 0.949 . S
H1246 C1250 0.949 . S
C1247 C1248 1.349 . S
C1247 C1249 1.327 . S
C1247 H1270 0.950 . S
C1248 C1247 1.349 . S
C1248 C1260 1.349 . S
C1249 C1247 1.327 . S
C1249 C1265 1.429 . S
C1249 H1271 0.950 . S
C1250 H1246 0.949 . S
C1250 C1258 1.574 1_565 S
C1250 C1266 1.368 . S
H1251 C1259 0.950 . S
H1252 C1257 0.950 . S
H1253 C1258 0.949 . S
H1254 C1260 0.950 . S
H1255 C1261 0.950 . S
H1256 C1262 0.949 . S
C1257 H1252 0.950 . S
C1257 C1259 1.327 . S
C1257 C1263 1.429 . S
C1258 C1250 1.574 1_545 S
C1258 H1253 0.949 . S
C1258 C1264 1.368 . S
C1259 C1243 1.349 . S
C1259 H1251 0.950 . S
C1259 C1257 1.327 . S
C1260 C1248 1.349 . S
C1260 H1254 0.950 . S
C1260 C1261 1.327 . S
C1261 H1255 0.950 . S
C1261 C1260 1.327 . S
C1261 C1265 1.429 . S
C1262 C1245 1.574 1_565 S
C1262 H1256 0.949 . S
C1262 C1266 1.368 . S
C1263 C1244 1.429 . S
C1263 C1257 1.429 . S
C1263 C1264 1.523 . S
C1264 C1245 1.368 . S
C1264 C1258 1.368 . S
C1264 C1263 1.523 . S
C1265 C1249 1.429 . S
C1265 C1261 1.429 . S
C1265 C1266 1.523 . S
C1266 C1250 1.368 . S
C1266 C1262 1.368 . S
C1266 C1265 1.523 . S
H1267 C1242 0.950 . S
H1268 C1244 0.950 . S
H1269 C1245 0.949 . S
H1270 C1247 0.950 . S
H1271 C1249 0.950 . S
C1272 C1273 1.349 . S
C1272 C1274 1.327 . S
C1272 H1297 0.950 . S
C1273 C1272 1.349 . S
C1273 C1289 1.349 . S
C1274 C1272 1.327 . S
C1274 C1293 1.429 . S
C1274 H1298 0.950 . S
C1275 C1292 1.574 . S
C1275 C1294 1.368 1_556 S
C1275 H1299 0.949 . S
H1276 C1280 0.949 . S
C1277 C1278 1.349 . S
C1277 C1279 1.327 . S
C1277 H1300 0.950 . S
C1278 C1277 1.349 . S
C1278 C1290 1.349 . S
C1279 C1277 1.327 . S
C1279 C1295 1.429 . S
C1279 H1301 0.950 . S
C1280 H1276 0.949 . S
C1280 C1288 1.574 . S
C1280 C1296 1.368 1_554 S
H1281 C1289 0.950 . S
H1282 C1287 0.950 1_556 S
H1283 C1288 0.949 . S
H1284 C1290 0.950 . S
H1285 C1291 0.950 1_554 S
H1286 C1292 0.949 . S
C1287 H1282 0.950 1_554 S
C1287 C1289 1.327 . S
C1287 C1293 1.429 . S
C1288 C1280 1.574 . S
C1288 H1283 0.949 . S
C1288 C1294 1.368 . S
C1289 C1273 1.349 . S
C1289 H1281 0.950 . S
C1289 C1287 1.327 . S
C1290 C1278 1.349 . S
C1290 H1284 0.950 . S
C1290 C1291 1.327 . S
C1291 H1285 0.950 1_556 S
C1291 C1290 1.327 . S
C1291 C1295 1.429 . S
C1292 C1275 1.574 . S
C1292 H1286 0.949 . S
C1292 C1296 1.368 . S
C1293 C1274 1.429 . S
C1293 C1287 1.429 . S
C1293 C1294 1.523 . S
C1294 C1275 1.368 1_554 S
C1294 C1288 1.368 . S
C1294 C1293 1.523 . S
C1295 C1279 1.429 . S
C1295 C1291 1.429 . S
C1295 C1296 1.523 . S
C1296 C1280 1.368 1_556 S
C1296 C1292 1.368 . S
C1296 C1295 1.523 . S
H1297 C1272 0.950 . S
H1298 C1274 0.950 . S
H1299 C1275 0.949 . S
H1300 C1277 0.950 . S
H1301 C1279 0.950 . S
C1302 C1303 1.349 . S
C1302 C1304 1.327 . S
C1302 H1327 0.950 . S
C1303 C1302 1.349 . S
C1303 C1319 1.349 . S
C1304 C1302 1.327 . S
C1304 C1323 1.429 . S
C1304 H1328 0.950 . S
C1305 C1322 1.574 1_565 S
C1305 C1324 1.368 . S
C1305 H1329 0.949 . S
H1306 C1310 0.949 . S
C1307 C1308 1.349 . S
C1307 C1309 1.327 . S
C1307 H1330 0.950 . S
C1308 C1307 1.349 . S
C1308 C1320 1.349 . S
C1309 C1307 1.327 . S
C1309 C1325 1.429 . S
C1309 H1331 0.950 . S
C1310 H1306 0.949 . S
C1310 C1318 1.574 1_545 S
C1310 C1326 1.368 . S
H1311 C1319 0.950 . S
H1312 C1317 0.950 . S
H1313 C1318 0.949 . S
H1314 C1320 0.950 . S
H1315 C1321 0.950 . S
H1316 C1322 0.949 . S
C1317 H1312 0.950 . S
C1317 C1319 1.327 . S
C1317 C1323 1.429 . S
C1318 C1310 1.574 1_565 S
C1318 H1313 0.949 . S
C1318 C1324 1.368 . S
C1319 C1303 1.349 . S
C1319 H1311 0.950 . S
C1319 C1317 1.327 . S
C1320 C1308 1.349 . S
C1320 H1314 0.950 . S
C1320 C1321 1.327 . S
C1321 H1315 0.950 . S
C1321 C1320 1.327 . S
C1321 C1325 1.429 . S
C1322 C1305 1.574 1_545 S
C1322 H1316 0.949 . S
C1322 C1326 1.368 . S
C1323 C1304 1.429 . S
C1323 C1317 1.429 . S
C1323 C1324 1.523 . S
C1324 C1305 1.368 . S
C1324 C1318 1.368 . S
C1324 C1323 1.523 . S
C1325 C1309 1.429 . S
C1325 C1321 1.429 . S
C1325 C1326 1.523 . S
C1326 C1310 1.368 . S
C1326 C1322 1.368 . S
C1326 C1325 1.523 . S
H1327 C1302 0.950 . S
H1328 C1304 0.950 . S
H1329 C1305 0.949 . S
H1330 C1307 0.950 . S
H1331 C1309 0.950 . S
C1332 C1333 1.349 . S
C1332 C1334 1.327 . S
C1332 H1357 0.950 . S
C1333 C1332 1.349 . S
C1333 C1349 1.349 . S
C1334 C1332 1.327 . S
C1334 C1353 1.429 . S
C1334 H1358 0.950 . S
C1335 C1352 1.574 . S
C1335 C1354 1.368 . S
C1335 H1359 0.949 . S
H1336 C1340 0.949 . S
C1337 C1338 1.349 . S
C1337 C1339 1.327 . S
C1337 H1360 0.950 . S
C1338 C1337 1.349 . S
C1338 C1350 1.349 . S
C1339 C1337 1.327 . S
C1339 C1355 1.429 . S
C1339 H1361 0.950 . S
C1340 H1336 0.949 . S
C1340 C1348 1.574 . S
C1340 C1356 1.368 . S
H1341 C1349 0.950 . S
H1342 C1347 0.950 . S
H1343 C1348 0.949 . S
H1344 C1350 0.950 . S
H1345 C1351 0.950 . S
H1346 C1352 0.949 . S
C1347 H1342 0.950 . S
C1347 C1349 1.327 . S
C1347 C1353 1.429 . S
C1348 C1340 1.574 . S
C1348 H1343 0.949 . S
C1348 C1354 1.368 . S
C1349 C1333 1.349 . S
C1349 H1341 0.950 . S
C1349 C1347 1.327 . S
C1350 C1338 1.349 . S
C1350 H1344 0.950 . S
C1350 C1351 1.327 . S
C1351 H1345 0.950 . S
C1351 C1350 1.327 . S
C1351 C1355 1.429 . S
C1352 C1335 1.574 . S
C1352 H1346 0.949 . S
C1352 C1356 1.368 . S
C1353 C1334 1.429 . S
C1353 C1347 1.429 . S
C1353 C1354 1.523 . S
C1354 C1335 1.368 . S
C1354 C1348 1.368 . S
C1354 C1353 1.523 . S
C1355 C1339 1.429 . S
C1355 C1351 1.429 . S
C1355 C1356 1.523 . S
C1356 C1340 1.368 . S
C1356 C1352 1.368 . S
C1356 C1355 1.523 . S
H1357 C1332 0.950 . S
H1358 C1334 0.950 . S
H1359 C1335 0.949 . S
H1360 C1337 0.950 . S
H1361 C1339 0.950 . S
C1362 C1363 1.349 . S
C1362 C1364 1.327 . S
C1362 H1387 0.950 . S
C1363 C1362 1.349 . S
C1363 C1379 1.349 . S
C1364 C1362 1.327 . S
C1364 C1383 1.429 . S
C1364 H1388 0.950 . S
C1365 C1382 1.574 1_565 S
C1365 C1384 1.368 . S
C1365 H1389 0.949 . S
H1366 C1370 0.949 . S
C1367 C1368 1.349 . S
C1367 C1369 1.327 . S
C1367 H1390 0.950 . S
C1368 C1367 1.349 . S
C1368 C1380 1.349 . S
C1369 C1367 1.327 . S
C1369 C1385 1.429 . S
C1369 H1391 0.950 . S
C1370 H1366 0.949 . S
C1370 C1378 1.574 1_545 S
C1370 C1386 1.368 . S
H1371 C1379 0.950 . S
H1372 C1377 0.950 . S
H1373 C1378 0.949 . S
H1374 C1380 0.950 . S
H1375 C1381 0.950 . S
H1376 C1382 0.949 . S
C1377 H1372 0.950 . S
C1377 C1379 1.327 . S
C1377 C1383 1.429 . S
C1378 C1370 1.574 1_565 S
C1378 H1373 0.949 . S
C1378 C1384 1.368 . S
C1379 C1363 1.349 . S
C1379 H1371 0.950 . S
C1379 C1377 1.327 . S
C1380 C1368 1.349 . S
C1380 H1374 0.950 . S
C1380 C1381 1.327 . S
C1381 H1375 0.950 . S
C1381 C1380 1.327 . S
C1381 C1385 1.429 . S
C1382 C1365 1.574 1_545 S
C1382 H1376 0.949 . S
C1382 C1386 1.368 . S
C1383 C1364 1.429 . S
C1383 C1377 1.429 . S
C1383 C1384 1.523 . S
C1384 C1365 1.368 . S
C1384 C1378 1.368 . S
C1384 C1383 1.523 . S
C1385 C1369 1.429 . S
C1385 C1381 1.429 . S
C1385 C1386 1.523 . S
C1386 C1370 1.368 . S
C1386 C1382 1.368 . S
C1386 C1385 1.523 . S
H1387 C1362 0.950 . S
H1388 C1364 0.950 . S
H1389 C1365 0.949 . S
H1390 C1367 0.950 . S
H1391 C1369 0.950 . S
C1392 C1393 1.349 . S
C1392 C1394 1.327 . S
C1392 H1417 0.950 . S
C1393 C1392 1.349 . S
C1393 C1409 1.349 . S
C1394 C1392 1.327 . S
C1394 C1413 1.429 . S
C1394 H1418 0.950 . S
C1395 C1412 1.574 . S
C1395 C1414 1.368 . S
C1395 H1419 0.949 . S
H1396 C1400 0.949 . S
C1397 C1398 1.349 . S
C1397 C1399 1.327 . S
C1397 H1420 0.950 . S
C1398 C1397 1.349 . S
C1398 C1410 1.349 . S
C1399 C1397 1.327 . S
C1399 C1415 1.429 . S
C1399 H1421 0.950 . S
C1400 H1396 0.949 . S
C1400 C1408 1.574 . S
C1400 C1416 1.368 . S
H1401 C1409 0.950 . S
H1402 C1407 0.950 . S
H1403 C1408 0.949 . S
H1404 C1410 0.950 . S
H1405 C1411 0.950 . S
H1406 C1412 0.949 . S
C1407 H1402 0.950 . S
C1407 C1409 1.327 . S
C1407 C1413 1.429 . S
C1408 C1400 1.574 . S
C1408 H1403 0.949 . S
C1408 C1414 1.368 . S
C1409 C1393 1.349 . S
C1409 H1401 0.950 . S
C1409 C1407 1.327 . S
C1410 C1398 1.349 . S
C1410 H1404 0.950 . S
C1410 C1411 1.327 . S
C1411 H1405 0.950 . S
C1411 C1410 1.327 . S
C1411 C1415 1.429 . S
C1412 C1395 1.574 . S
C1412 H1406 0.949 . S
C1412 C1416 1.368 . S
C1413 C1394 1.429 . S
C1413 C1407 1.429 . S
C1413 C1414 1.523 . S
C1414 C1395 1.368 . S
C1414 C1408 1.368 . S
C1414 C1413 1.523 . S
C1415 C1399 1.429 . S
C1415 C1411 1.429 . S
C1415 C1416 1.523 . S
C1416 C1400 1.368 . S
C1416 C1412 1.368 . S
C1416 C1415 1.523 . S
H1417 C1392 0.950 . S
H1418 C1394 0.950 . S
H1419 C1395 0.949 . S
H1420 C1397 0.950 . S
H1421 C1399 0.950 . S
C1422 C1423 1.349 . S
C1422 C1424 1.327 . S
C1422 H1447 0.950 . S
C1423 C1422 1.349 . S
C1423 C1439 1.349 . S
C1424 C1422 1.327 . S
C1424 C1443 1.429 . S
C1424 H1448 0.950 . S
C1425 C1442 1.574 . S
C1425 C1444 1.368 . S
C1425 H1449 0.949 . S
H1426 C1430 0.949 . S
C1427 C1428 1.349 . S
C1427 C1429 1.327 . S
C1427 H1450 0.950 . S
C1428 C1427 1.349 . S
C1428 C1440 1.349 . S
C1429 C1427 1.327 . S
C1429 C1445 1.429 . S
C1429 H1451 0.950 . S
C1430 H1426 0.949 . S
C1430 C1438 1.574 . S
C1430 C1446 1.368 . S
H1431 C1439 0.950 . S
H1432 C1437 0.950 . S
H1433 C1438 0.949 . S
H1434 C1440 0.950 . S
H1435 C1441 0.950 . S
H1436 C1442 0.949 . S
C1437 H1432 0.950 . S
C1437 C1439 1.327 . S
C1437 C1443 1.429 . S
C1438 C1430 1.574 . S
C1438 H1433 0.949 . S
C1438 C1444 1.368 . S
C1439 C1423 1.349 . S
C1439 H1431 0.950 . S
C1439 C1437 1.327 . S
C1440 C1428 1.349 . S
C1440 H1434 0.950 . S
C1440 C1441 1.327 . S
C1441 H1435 0.950 . S
C1441 C1440 1.327 . S
C1441 C1445 1.429 . S
C1442 C1425 1.574 . S
C1442 H1436 0.949 . S
C1442 C1446 1.368 . S
C1443 C1424 1.429 . S
C1443 C1437 1.429 . S
C1443 C1444 1.523 . S
C1444 C1425 1.368 . S
C1444 C1438 1.368 . S
C1444 C1443 1.523 . S
C1445 C1429 1.429 . S
C1445 C1441 1.429 . S
C1445 C1446 1.523 . S
C1446 C1430 1.368 . S
C1446 C1442 1.368 . S
C1446 C1445 1.523 . S
H1447 C1422 0.950 . S
H1448 C1424 0.950 . S
H1449 C1425 0.949 . S
H1450 C1427 0.950 . S
H1451 C1429 0.950 . S
C1452 C1453 1.349 . S
C1452 C1454 1.327 . S
C1452 H1477 0.950 . S
C1453 C1452 1.349 . S
C1453 C1469 1.349 . S
C1454 C1452 1.327 . S
C1454 C1473 1.429 . S
C1454 H1478 0.950 . S
C1455 C1472 1.574 . S
C1455 C1474 1.368 1_554 S
C1455 H1479 0.949 . S
H1456 C1460 0.949 . S
C1457 C1458 1.349 . S
C1457 C1459 1.327 . S
C1457 H1480 0.950 . S
C1458 C1457 1.349 . S
C1458 C1470 1.349 . S
C1459 C1457 1.327 . S
C1459 C1475 1.429 . S
C1459 H1481 0.950 . S
C1460 H1456 0.949 . S
C1460 C1468 1.574 . S
C1460 C1476 1.368 1_556 S
H1461 C1469 0.950 . S
H1462 C1467 0.950 1_554 S
H1463 C1468 0.949 . S
H1464 C1470 0.950 . S
H1465 C1471 0.950 1_556 S
H1466 C1472 0.949 . S
C1467 H1462 0.950 1_556 S
C1467 C1469 1.327 . S
C1467 C1473 1.429 . S
C1468 C1460 1.574 . S
C1468 H1463 0.949 . S
C1468 C1474 1.368 . S
C1469 C1453 1.349 . S
C1469 H1461 0.950 . S
C1469 C1467 1.327 . S
C1470 C1458 1.349 . S
C1470 H1464 0.950 . S
C1470 C1471 1.327 . S
C1471 H1465 0.950 1_554 S
C1471 C1470 1.327 . S
C1471 C1475 1.429 . S
C1472 C1455 1.574 . S
C1472 H1466 0.949 . S
C1472 C1476 1.368 . S
C1473 C1454 1.429 . S
C1473 C1467 1.429 . S
C1473 C1474 1.523 . S
C1474 C1455 1.368 1_556 S
C1474 C1468 1.368 . S
C1474 C1473 1.523 . S
C1475 C1459 1.429 . S
C1475 C1471 1.429 . S
C1475 C1476 1.523 . S
C1476 C1460 1.368 1_554 S
C1476 C1472 1.368 . S
C1476 C1475 1.523 . S
H1477 C1452 0.950 . S
H1478 C1454 0.950 . S
H1479 C1455 0.949 . S
H1480 C1457 0.950 . S
H1481 C1459 0.950 . S
C1482 C1483 1.349 . S
C1482 C1484 1.327 . S
C1482 H1507 0.950 . S
C1483 C1482 1.349 . S
C1483 C1499 1.349 . S
C1484 C1482 1.327 . S
C1484 C1503 1.429 . S
C1484 H1508 0.950 . S
C1485 C1502 1.574 . S
C1485 C1504 1.368 . S
C1485 H1509 0.949 . S
H1486 C1490 0.949 . S
C1487 C1488 1.349 . S
C1487 C1489 1.327 . S
C1487 H1510 0.950 . S
C1488 C1487 1.349 . S
C1488 C1500 1.349 . S
C1489 C1487 1.327 . S
C1489 C1505 1.429 . S
C1489 H1511 0.950 . S
C1490 H1486 0.949 . S
C1490 C1498 1.574 . S
C1490 C1506 1.368 . S
H1491 C1499 0.950 . S
H1492 C1497 0.950 . S
H1493 C1498 0.949 . S
H1494 C1500 0.950 . S
H1495 C1501 0.950 . S
H1496 C1502 0.949 . S
C1497 H1492 0.950 . S
C1497 C1499 1.327 . S
C1497 C1503 1.429 . S
C1498 C1490 1.574 . S
C1498 H1493 0.949 . S
C1498 C1504 1.368 . S
C1499 C1483 1.349 . S
C1499 H1491 0.950 . S
C1499 C1497 1.327 . S
C1500 C1488 1.349 . S
C1500 H1494 0.950 . S
C1500 C1501 1.327 . S
C1501 H1495 0.950 . S
C1501 C1500 1.327 . S
C1501 C1505 1.429 . S
C1502 C1485 1.574 . S
C1502 H1496 0.949 . S
C1502 C1506 1.368 . S
C1503 C1484 1.429 . S
C1503 C1497 1.429 . S
C1503 C1504 1.523 . S
C1504 C1485 1.368 . S
C1504 C1498 1.368 . S
C1504 C1503 1.523 . S
C1505 C1489 1.429 . S
C1505 C1501 1.429 . S
C1505 C1506 1.523 . S
C1506 C1490 1.368 . S
C1506 C1502 1.368 . S
C1506 C1505 1.523 . S
H1507 C1482 0.950 . S
H1508 C1484 0.950 . S
H1509 C1485 0.949 . S
H1510 C1487 0.950 . S
H1511 C1489 0.950 . S
C1512 C1513 1.349 . S
C1512 C1514 1.327 . S
C1512 H1537 0.950 . S
C1513 C1512 1.349 . S
C1513 C1529 1.349 . S
C1514 C1512 1.327 . S
C1514 C1533 1.429 . S
C1514 H1538 0.950 . S
C1515 C1532 1.574 . S
C1515 C1534 1.368 . S
C1515 H1539 0.949 . S
H1516 C1520 0.949 . S
C1517 C1518 1.349 . S
C1517 C1519 1.327 . S
C1517 H1540 0.950 . S
C1518 C1517 1.349 . S
C1518 C1530 1.349 . S
C1519 C1517 1.327 . S
C1519 C1535 1.429 . S
C1519 H1541 0.950 . S
C1520 H1516 0.949 . S
C1520 C1528 1.574 . S
C1520 C1536 1.368 . S
H1521 C1529 0.950 . S
H1522 C1527 0.950 . S
H1523 C1528 0.949 . S
H1524 C1530 0.950 . S
H1525 C1531 0.950 . S
H1526 C1532 0.949 . S
C1527 H1522 0.950 . S
C1527 C1529 1.327 . S
C1527 C1533 1.429 . S
C1528 C1520 1.574 . S
C1528 H1523 0.949 . S
C1528 C1534 1.368 . S
C1529 C1513 1.349 . S
C1529 H1521 0.950 . S
C1529 C1527 1.327 . S
C1530 C1518 1.349 . S
C1530 H1524 0.950 . S
C1530 C1531 1.327 . S
C1531 H1525 0.950 . S
C1531 C1530 1.327 . S
C1531 C1535 1.429 . S
C1532 C1515 1.574 . S
C1532 H1526 0.949 . S
C1532 C1536 1.368 . S
C1533 C1514 1.429 . S
C1533 C1527 1.429 . S
C1533 C1534 1.523 . S
C1534 C1515 1.368 . S
C1534 C1528 1.368 . S
C1534 C1533 1.523 . S
C1535 C1519 1.429 . S
C1535 C1531 1.429 . S
C1535 C1536 1.523 . S
C1536 C1520 1.368 . S
C1536 C1532 1.368 . S
C1536 C1535 1.523 . S
H1537 C1512 0.950 . S
H1538 C1514 0.950 . S
H1539 C1515 0.949 . S
H1540 C1517 0.950 . S
H1541 C1519 0.950 . S
C1542 C1543 1.349 . S
C1542 C1544 1.327 . S
C1542 H1567 0.950 . S
C1543 C1542 1.349 . S
C1543 C1559 1.349 . S
C1544 C1542 1.327 . S
C1544 C1563 1.429 . S
C1544 H1568 0.950 . S
C1545 C1562 1.574 . S
C1545 C1564 1.368 . S
C1545 H1569 0.949 . S
H1546 C1550 0.949 . S
C1547 C1548 1.349 . S
C1547 C1549 1.327 . S
C1547 H1570 0.950 . S
C1548 C1547 1.349 . S
C1548 C1560 1.349 . S
C1549 C1547 1.327 . S
C1549 C1565 1.429 . S
C1549 H1571 0.950 . S
C1550 H1546 0.949 . S
C1550 C1558 1.574 . S
C1550 C1566 1.368 . S
H1551 C1559 0.950 . S
H1552 C1557 0.950 . S
H1553 C1558 0.949 . S
H1554 C1560 0.950 . S
H1555 C1561 0.950 . S
H1556 C1562 0.949 . S
C1557 H1552 0.950 . S
C1557 C1559 1.327 . S
C1557 C1563 1.429 . S
C1558 C1550 1.574 . S
C1558 H1553 0.949 . S
C1558 C1564 1.368 . S
C1559 C1543 1.349 . S
C1559 H1551 0.950 . S
C1559 C1557 1.327 . S
C1560 C1548 1.349 . S
C1560 H1554 0.950 . S
C1560 C1561 1.327 . S
C1561 H1555 0.950 . S
C1561 C1560 1.327 . S
C1561 C1565 1.429 . S
C1562 C1545 1.574 . S
C1562 H1556 0.949 . S
C1562 C1566 1.368 . S
C1563 C1544 1.429 . S
C1563 C1557 1.429 . S
C1563 C1564 1.523 . S
C1564 C1545 1.368 . S
C1564 C1558 1.368 . S
C1564 C1563 1.523 . S
C1565 C1549 1.429 . S
C1565 C1561 1.429 . S
C1565 C1566 1.523 . S
C1566 C1550 1.368 . S
C1566 C1562 1.368 . S
C1566 C1565 1.523 . S
H1567 C1542 0.950 . S
H1568 C1544 0.950 . S
H1569 C1545 0.949 . S
H1570 C1547 0.950 . S
H1571 C1549 0.950 . S
C1572 C1573 1.349 . S
C1572 C1574 1.327 . S
C1572 H1597 0.950 . S
C1573 C1572 1.349 . S
C1573 C1589 1.349 . S
C1574 C1572 1.327 . S
C1574 C1593 1.429 . S
C1574 H1598 0.950 . S
C1575 C1592 1.574 . S
C1575 C1594 1.368 1_556 S
C1575 H1599 0.949 . S
H1576 C1580 0.949 . S
C1577 C1578 1.349 . S
C1577 C1579 1.327 . S
C1577 H1600 0.950 . S
C1578 C1577 1.349 . S
C1578 C1590 1.349 . S
C1579 C1577 1.327 . S
C1579 C1595 1.429 . S
C1579 H1601 0.950 . S
C1580 H1576 0.949 . S
C1580 C1588 1.574 . S
C1580 C1596 1.368 1_554 S
H1581 C1589 0.950 . S
H1582 C1587 0.950 1_556 S
H1583 C1588 0.949 . S
H1584 C1590 0.950 . S
H1585 C1591 0.950 1_554 S
H1586 C1592 0.949 . S
C1587 H1582 0.950 1_554 S
C1587 C1589 1.327 . S
C1587 C1593 1.429 . S
C1588 C1580 1.574 . S
C1588 H1583 0.949 . S
C1588 C1594 1.368 . S
C1589 C1573 1.349 . S
C1589 H1581 0.950 . S
C1589 C1587 1.327 . S
C1590 C1578 1.349 . S
C1590 H1584 0.950 . S
C1590 C1591 1.327 . S
C1591 H1585 0.950 1_556 S
C1591 C1590 1.327 . S
C1591 C1595 1.429 . S
C1592 C1575 1.574 . S
C1592 H1586 0.949 . S
C1592 C1596 1.368 . S
C1593 C1574 1.429 . S
C1593 C1587 1.429 . S
C1593 C1594 1.523 . S
C1594 C1575 1.368 1_554 S
C1594 C1588 1.368 . S
C1594 C1593 1.523 . S
C1595 C1579 1.429 . S
C1595 C1591 1.429 . S
C1595 C1596 1.523 . S
C1596 C1580 1.368 1_556 S
C1596 C1592 1.368 . S
C1596 C1595 1.523 . S
H1597 C1572 0.950 . S
H1598 C1574 0.950 . S
H1599 C1575 0.949 . S
H1600 C1577 0.950 . S
H1601 C1579 0.950 . S
C1602 C1603 1.349 . S
C1602 C1604 1.327 . S
C1602 H1627 0.950 . S
C1603 C1602 1.349 . S
C1603 C1619 1.349 . S
C1604 C1602 1.327 . S
C1604 C1623 1.429 . S
C1604 H1628 0.950 . S
C1605 C1622 1.574 . S
C1605 C1624 1.368 . S
C1605 H1629 0.949 . S
H1606 C1610 0.949 . S
C1607 C1608 1.349 . S
C1607 C1609 1.327 . S
C1607 H1630 0.950 . S
C1608 C1607 1.349 . S
C1608 C1620 1.349 . S
C1609 C1607 1.327 . S
C1609 C1625 1.429 . S
C1609 H1631 0.950 . S
C1610 H1606 0.949 . S
C1610 C1618 1.574 . S
C1610 C1626 1.368 . S
H1611 C1619 0.950 . S
H1612 C1617 0.950 . S
H1613 C1618 0.949 . S
H1614 C1620 0.950 . S
H1615 C1621 0.950 . S
H1616 C1622 0.949 . S
C1617 H1612 0.950 . S
C1617 C1619 1.327 . S
C1617 C1623 1.429 . S
C1618 C1610 1.574 . S
C1618 H1613 0.949 . S
C1618 C1624 1.368 . S
C1619 C1603 1.349 . S
C1619 H1611 0.950 . S
C1619 C1617 1.327 . S
C1620 C1608 1.349 . S
C1620 H1614 0.950 . S
C1620 C1621 1.327 . S
C1621 H1615 0.950 . S
C1621 C1620 1.327 . S
C1621 C1625 1.429 . S
C1622 C1605 1.574 . S
C1622 H1616 0.949 . S
C1622 C1626 1.368 . S
C1623 C1604 1.429 . S
C1623 C1617 1.429 . S
C1623 C1624 1.523 . S
C1624 C1605 1.368 . S
C1624 C1618 1.368 . S
C1624 C1623 1.523 . S
C1625 C1609 1.429 . S
C1625 C1621 1.429 . S
C1625 C1626 1.523 . S
C1626 C1610 1.368 . S
C1626 C1622 1.368 . S
C1626 C1625 1.523 . S
H1627 C1602 0.950 . S
H1628 C1604 0.950 . S
H1629 C1605 0.949 . S
H1630 C1607 0.950 . S
H1631 C1609 0.950 . S
C1632 C1633 1.349 . S
C1632 C1634 1.327 . S
C1632 H1657 0.950 . S
C1633 C1632 1.349 . S
C1633 C1649 1.349 . S
C1634 C1632 1.327 . S
C1634 C1653 1.429 . S
C1634 H1658 0.950 . S
C1635 C1652 1.574 . S
C1635 C1654 1.368 . S
C1635 H1659 0.949 . S
H1636 C1640 0.949 . S
C1637 C1638 1.349 . S
C1637 C1639 1.327 . S
C1637 H1660 0.950 . S
C1638 C1637 1.349 . S
C1638 C1650 1.349 . S
C1639 C1637 1.327 . S
C1639 C1655 1.429 . S
C1639 H1661 0.950 . S
C1640 H1636 0.949 . S
C1640 C1648 1.574 . S
C1640 C1656 1.368 . S
H1641 C1649 0.950 . S
H1642 C1647 0.950 . S
H1643 C1648 0.949 . S
H1644 C1650 0.950 . S
H1645 C1651 0.950 . S
H1646 C1652 0.949 . S
C1647 H1642 0.950 . S
C1647 C1649 1.327 . S
C1647 C1653 1.429 . S
C1648 C1640 1.574 . S
C1648 H1643 0.949 . S
C1648 C1654 1.368 . S
C1649 C1633 1.349 . S
C1649 H1641 0.950 . S
C1649 C1647 1.327 . S
C1650 C1638 1.349 . S
C1650 H1644 0.950 . S
C1650 C1651 1.327 . S
C1651 H1645 0.950 . S
C1651 C1650 1.327 . S
C1651 C1655 1.429 . S
C1652 C1635 1.574 . S
C1652 H1646 0.949 . S
C1652 C1656 1.368 . S
C1653 C1634 1.429 . S
C1653 C1647 1.429 . S
C1653 C1654 1.523 . S
C1654 C1635 1.368 . S
C1654 C1648 1.368 . S
C1654 C1653 1.523 . S
C1655 C1639 1.429 . S
C1655 C1651 1.429 . S
C1655 C1656 1.523 . S
C1656 C1640 1.368 . S
C1656 C1652 1.368 . S
C1656 C1655 1.523 . S
H1657 C1632 0.950 . S
H1658 C1634 0.950 . S
H1659 C1635 0.949 . S
H1660 C1637 0.950 . S
H1661 C1639 0.950 . S
C1662 C1663 1.349 . S
C1662 C1664 1.327 . S
C1662 H1687 0.950 . S
C1663 C1662 1.349 . S
C1663 C1679 1.349 . S
C1664 C1662 1.327 . S
C1664 C1683 1.429 . S
C1664 H1688 0.950 . S
C1665 C1682 1.574 . S
C1665 C1684 1.368 . S
C1665 H1689 0.949 . S
H1666 C1670 0.949 . S
C1667 C1668 1.349 . S
C1667 C1669 1.327 . S
C1667 H1690 0.950 . S
C1668 C1667 1.349 . S
C1668 C1680 1.349 . S
C1669 C1667 1.327 . S
C1669 C1685 1.429 . S
C1669 H1691 0.950 . S
C1670 H1666 0.949 . S
C1670 C1678 1.574 . S
C1670 C1686 1.368 . S
H1671 C1679 0.950 . S
H1672 C1677 0.950 . S
H1673 C1678 0.949 . S
H1674 C1680 0.950 . S
H1675 C1681 0.950 . S
H1676 C1682 0.949 . S
C1677 H1672 0.950 . S
C1677 C1679 1.327 . S
C1677 C1683 1.429 . S
C1678 C1670 1.574 . S
C1678 H1673 0.949 . S
C1678 C1684 1.368 1_655 S
C1679 C1663 1.349 . S
C1679 H1671 0.950 . S
C1679 C1677 1.327 . S
C1680 C1668 1.349 . S
C1680 H1674 0.950 . S
C1680 C1681 1.327 . S
C1681 H1675 0.950 . S
C1681 C1680 1.327 . S
C1681 C1685 1.429 . S
C1682 C1665 1.574 . S
C1682 H1676 0.949 . S
C1682 C1686 1.368 1_455 S
C1683 C1664 1.429 . S
C1683 C1677 1.429 . S
C1683 C1684 1.523 1_556 S
C1684 C1665 1.368 . S
C1684 C1678 1.368 1_455 S
C1684 C1683 1.523 1_554 S
C1685 C1669 1.429 . S
C1685 C1681 1.429 . S
C1685 C1686 1.523 . S
C1686 C1670 1.368 . S
C1686 C1682 1.368 1_655 S
C1686 C1685 1.523 . S
H1687 C1662 0.950 . S
H1688 C1664 0.950 . S
H1689 C1665 0.949 . S
H1690 C1667 0.950 . S
H1691 C1669 0.950 . S
C1692 C1693 1.349 . S
C1692 C1694 1.327 . S
C1692 H1717 0.950 . S
C1693 C1692 1.349 . S
C1693 C1709 1.349 . S
C1694 C1692 1.327 . S
C1694 C1713 1.429 . S
C1694 H1718 0.950 . S
C1695 C1712 1.574 . S
C1695 C1714 1.368 . S
C1695 H1719 0.949 . S
H1696 C1700 0.949 . S
C1697 C1698 1.349 . S
C1697 C1699 1.327 . S
C1697 H1720 0.950 . S
C1698 C1697 1.349 . S
C1698 C1710 1.349 . S
C1699 C1697 1.327 . S
C1699 C1715 1.429 . S
C1699 H1721 0.950 . S
C1700 H1696 0.949 . S
C1700 C1708 1.574 . S
C1700 C1716 1.368 . S
H1701 C1709 0.950 . S
H1702 C1707 0.950 . S
H1703 C1708 0.949 . S
H1704 C1710 0.950 . S
H1705 C1711 0.950 . S
H1706 C1712 0.949 . S
C1707 H1702 0.950 . S
C1707 C1709 1.327 . S
C1707 C1713 1.429 . S
C1708 C1700 1.574 . S
C1708 H1703 0.949 . S
C1708 C1714 1.368 . S
C1709 C1693 1.349 . S
C1709 H1701 0.950 . S
C1709 C1707 1.327 . S
C1710 C1698 1.349 . S
C1710 H1704 0.950 . S
C1710 C1711 1.327 . S
C1711 H1705 0.950 . S
C1711 C1710 1.327 . S
C1711 C1715 1.429 . S
C1712 C1695 1.574 . S
C1712 H1706 0.949 . S
C1712 C1716 1.368 . S
C1713 C1694 1.429 . S
C1713 C1707 1.429 . S
C1713 C1714 1.523 . S
C1714 C1695 1.368 . S
C1714 C1708 1.368 . S
C1714 C1713 1.523 . S
C1715 C1699 1.429 . S
C1715 C1711 1.429 . S
C1715 C1716 1.523 . S
C1716 C1700 1.368 . S
C1716 C1712 1.368 . S
C1716 C1715 1.523 . S
H1717 C1692 0.950 . S
H1718 C1694 0.950 . S
H1719 C1695 0.949 . S
H1720 C1697 0.950 . S
H1721 C1699 0.950 . S
C1722 C1723 1.349 . S
C1722 C1724 1.327 . S
C1722 H1747 0.950 . S
C1723 C1722 1.349 . S
C1723 C1739 1.349 . S
C1724 C1722 1.327 . S
C1724 C1743 1.429 . S
C1724 H1748 0.950 . S
C1725 C1742 1.574 . S
C1725 C1744 1.368 . S
C1725 H1749 0.949 . S
H1726 C1730 0.949 . S
C1727 C1728 1.349 . S
C1727 C1729 1.327 . S
C1727 H1750 0.950 . S
C1728 C1727 1.349 . S
C1728 C1740 1.349 . S
C1729 C1727 1.327 . S
C1729 C1745 1.429 . S
C1729 H1751 0.950 . S
C1730 H1726 0.949 . S
C1730 C1738 1.574 . S
C1730 C1746 1.368 . S
H1731 C1739 0.950 . S
H1732 C1737 0.950 . S
H1733 C1738 0.949 . S
H1734 C1740 0.950 . S
H1735 C1741 0.950 . S
H1736 C1742 0.949 . S
C1737 H1732 0.950 . S
C1737 C1739 1.327 . S
C1737 C1743 1.429 . S
C1738 C1730 1.574 . S
C1738 H1733 0.949 . S
C1738 C1744 1.368 . S
C1739 C1723 1.349 . S
C1739 H1731 0.950 . S
C1739 C1737 1.327 . S
C1740 C1728 1.349 . S
C1740 H1734 0.950 . S
C1740 C1741 1.327 . S
C1741 H1735 0.950 . S
C1741 C1740 1.327 . S
C1741 C1745 1.429 . S
C1742 C1725 1.574 . S
C1742 H1736 0.949 . S
C1742 C1746 1.368 . S
C1743 C1724 1.429 . S
C1743 C1737 1.429 . S
C1743 C1744 1.523 . S
C1744 C1725 1.368 . S
C1744 C1738 1.368 . S
C1744 C1743 1.523 . S
C1745 C1729 1.429 . S
C1745 C1741 1.429 . S
C1745 C1746 1.523 . S
C1746 C1730 1.368 . S
C1746 C1742 1.368 . S
C1746 C1745 1.523 . S
H1747 C1722 0.950 . S
H1748 C1724 0.950 . S
H1749 C1725 0.949 . S
H1750 C1727 0.950 . S
H1751 C1729 0.950 . S
C1752 C1753 1.349 . S
C1752 C1754 1.327 . S
C1752 H1777 0.950 . S
C1753 C1752 1.349 . S
C1753 C1769 1.349 . S
C1754 C1752 1.327 . S
C1754 C1773 1.429 . S
C1754 H1778 0.950 . S
C1755 C1772 1.574 . S
C1755 C1774 1.368 . S
C1755 H1779 0.949 . S
H1756 C1760 0.949 . S
C1757 C1758 1.349 . S
C1757 C1759 1.327 . S
C1757 H1780 0.950 . S
C1758 C1757 1.349 . S
C1758 C1770 1.349 . S
C1759 C1757 1.327 . S
C1759 C1775 1.429 . S
C1759 H1781 0.950 . S
C1760 H1756 0.949 . S
C1760 C1768 1.574 . S
C1760 C1776 1.368 . S
H1761 C1769 0.950 . S
H1762 C1767 0.950 . S
H1763 C1768 0.949 . S
H1764 C1770 0.950 . S
H1765 C1771 0.950 . S
H1766 C1772 0.949 . S
C1767 H1762 0.950 . S
C1767 C1769 1.327 . S
C1767 C1773 1.429 . S
C1768 C1760 1.574 . S
C1768 H1763 0.949 . S
C1768 C1774 1.368 . S
C1769 C1753 1.349 . S
C1769 H1761 0.950 . S
C1769 C1767 1.327 . S
C1770 C1758 1.349 . S
C1770 H1764 0.950 . S
C1770 C1771 1.327 . S
C1771 H1765 0.950 . S
C1771 C1770 1.327 . S
C1771 C1775 1.429 . S
C1772 C1755 1.574 . S
C1772 H1766 0.949 . S
C1772 C1776 1.368 . S
C1773 C1754 1.429 . S
C1773 C1767 1.429 . S
C1773 C1774 1.523 . S
C1774 C1755 1.368 . S
C1774 C1768 1.368 . S
C1774 C1773 1.523 . S
C1775 C1759 1.429 . S
C1775 C1771 1.429 . S
C1775 C1776 1.523 . S
C1776 C1760 1.368 . S
C1776 C1772 1.368 . S
C1776 C1775 1.523 . S
H1777 C1752 0.950 . S
H1778 C1754 0.950 . S
H1779 C1755 0.949 . S
H1780 C1757 0.950 . S
H1781 C1759 0.950 . S
C1782 C1783 1.349 . S
C1782 C1784 1.327 . S
C1782 H1807 0.950 . S
C1783 C1782 1.349 . S
C1783 C1799 1.349 . S
C1784 C1782 1.327 . S
C1784 C1803 1.429 . S
C1784 H1808 0.950 . S
C1785 C1802 1.574 . S
C1785 C1804 1.368 . S
C1785 H1809 0.949 . S
H1786 C1790 0.949 . S
C1787 C1788 1.349 . S
C1787 C1789 1.327 . S
C1787 H1810 0.950 . S
C1788 C1787 1.349 . S
C1788 C1800 1.349 . S
C1789 C1787 1.327 . S
C1789 C1805 1.429 . S
C1789 H1811 0.950 . S
C1790 H1786 0.949 . S
C1790 C1798 1.574 . S
C1790 C1806 1.368 . S
H1791 C1799 0.950 . S
H1792 C1797 0.950 . S
H1793 C1798 0.949 . S
H1794 C1800 0.950 . S
H1795 C1801 0.950 . S
H1796 C1802 0.949 . S
C1797 H1792 0.950 . S
C1797 C1799 1.327 . S
C1797 C1803 1.429 . S
C1798 C1790 1.574 . S
C1798 H1793 0.949 . S
C1798 C1804 1.368 . S
C1799 C1783 1.349 . S
C1799 H1791 0.950 . S
C1799 C1797 1.327 . S
C1800 C1788 1.349 . S
C1800 H1794 0.950 . S
C1800 C1801 1.327 . S
C1801 H1795 0.950 . S
C1801 C1800 1.327 . S
C1801 C1805 1.429 . S
C1802 C1785 1.574 . S
C1802 H1796 0.949 . S
C1802 C1806 1.368 . S
C1803 C1784 1.429 . S
C1803 C1797 1.429 . S
C1803 C1804 1.523 1_554 S
C1804 C1785 1.368 . S
C1804 C1798 1.368 . S
C1804 C1803 1.523 1_556 S
C1805 C1789 1.429 . S
C1805 C1801 1.429 . S
C1805 C1806 1.523 . S
C1806 C1790 1.368 . S
C1806 C1802 1.368 . S
C1806 C1805 1.523 . S
H1807 C1782 0.950 . S
H1808 C1784 0.950 . S
H1809 C1785 0.949 . S
H1810 C1787 0.950 . S
H1811 C1789 0.950 . S
C1812 C1813 1.349 . S
C1812 C1814 1.327 . S
C1812 H1837 0.950 . S
C1813 C1812 1.349 . S
C1813 C1829 1.349 . S
C1814 C1812 1.327 . S
C1814 C1833 1.429 . S
C1814 H1838 0.950 . S
C1815 C1832 1.574 . S
C1815 C1834 1.368 . S
C1815 H1839 0.949 . S
H1816 C1820 0.949 . S
C1817 C1818 1.349 . S
C1817 C1819 1.327 . S
C1817 H1840 0.950 . S
C1818 C1817 1.349 . S
C1818 C1830 1.349 . S
C1819 C1817 1.327 . S
C1819 C1835 1.429 . S
C1819 H1841 0.950 . S
C1820 H1816 0.949 . S
C1820 C1828 1.574 . S
C1820 C1836 1.368 . S
H1821 C1829 0.950 . S
H1822 C1827 0.950 . S
H1823 C1828 0.949 . S
H1824 C1830 0.950 . S
H1825 C1831 0.950 . S
H1826 C1832 0.949 . S
C1827 H1822 0.950 . S
C1827 C1829 1.327 . S
C1827 C1833 1.429 . S
C1828 C1820 1.574 . S
C1828 H1823 0.949 . S
C1828 C1834 1.368 . S
C1829 C1813 1.349 . S
C1829 H1821 0.950 . S
C1829 C1827 1.327 . S
C1830 C1818 1.349 . S
C1830 H1824 0.950 . S
C1830 C1831 1.327 . S
C1831 H1825 0.950 . S
C1831 C1830 1.327 . S
C1831 C1835 1.429 . S
C1832 C1815 1.574 . S
C1832 H1826 0.949 . S
C1832 C1836 1.368 . S
C1833 C1814 1.429 . S
C1833 C1827 1.429 . S
C1833 C1834 1.523 . S
C1834 C1815 1.368 . S
C1834 C1828 1.368 . S
C1834 C1833 1.523 . S
C1835 C1819 1.429 . S
C1835 C1831 1.429 . S
C1835 C1836 1.523 . S
C1836 C1820 1.368 . S
C1836 C1832 1.368 . S
C1836 C1835 1.523 . S
H1837 C1812 0.950 . S
H1838 C1814 0.950 . S
H1839 C1815 0.949 . S
H1840 C1817 0.950 . S
H1841 C1819 0.950 . S
C1842 C1843 1.349 . S
C1842 C1844 1.327 . S
C1842 H1867 0.950 . S
C1843 C1842 1.349 . S
C1843 C1859 1.349 . S
C1844 C1842 1.327 . S
C1844 C1863 1.429 . S
C1844 H1868 0.950 . S
C1845 C1862 1.574 . S
C1845 C1864 1.368 . S
C1845 H1869 0.949 . S
H1846 C1850 0.949 . S
C1847 C1848 1.349 . S
C1847 C1849 1.327 . S
C1847 H1870 0.950 . S
C1848 C1847 1.349 . S
C1848 C1860 1.349 . S
C1849 C1847 1.327 . S
C1849 C1865 1.429 . S
C1849 H1871 0.950 . S
C1850 H1846 0.949 . S
C1850 C1858 1.574 . S
C1850 C1866 1.368 . S
H1851 C1859 0.950 . S
H1852 C1857 0.950 . S
H1853 C1858 0.949 . S
H1854 C1860 0.950 . S
H1855 C1861 0.950 . S
H1856 C1862 0.949 . S
C1857 H1852 0.950 . S
C1857 C1859 1.327 . S
C1857 C1863 1.429 . S
C1858 C1850 1.574 . S
C1858 H1853 0.949 . S
C1858 C1864 1.368 1_655 S
C1859 C1843 1.349 . S
C1859 H1851 0.950 . S
C1859 C1857 1.327 . S
C1860 C1848 1.349 . S
C1860 H1854 0.950 . S
C1860 C1861 1.327 . S
C1861 H1855 0.950 . S
C1861 C1860 1.327 . S
C1861 C1865 1.429 . S
C1862 C1845 1.574 . S
C1862 H1856 0.949 . S
C1862 C1866 1.368 1_455 S
C1863 C1844 1.429 . S
C1863 C1857 1.429 . S
C1863 C1864 1.523 . S
C1864 C1845 1.368 . S
C1864 C1858 1.368 1_455 S
C1864 C1863 1.523 . S
C1865 C1849 1.429 . S
C1865 C1861 1.429 . S
C1865 C1866 1.523 . S
C1866 C1850 1.368 . S
C1866 C1862 1.368 1_655 S
C1866 C1865 1.523 . S
H1867 C1842 0.950 . S
H1868 C1844 0.950 . S
H1869 C1845 0.949 . S
H1870 C1847 0.950 . S
H1871 C1849 0.950 . S
C1872 C1873 1.349 . S
C1872 C1874 1.327 . S
C1872 H1897 0.950 . S
C1873 C1872 1.349 . S
C1873 C1889 1.349 . S
C1874 C1872 1.327 . S
C1874 C1893 1.429 . S
C1874 H1898 0.950 . S
C1875 C1892 1.574 . S
C1875 C1894 1.368 . S
C1875 H1899 0.949 . S
H1876 C1880 0.949 . S
C1877 C1878 1.349 . S
C1877 C1879 1.327 . S
C1877 H1900 0.950 . S
C1878 C1877 1.349 . S
C1878 C1890 1.349 . S
C1879 C1877 1.327 . S
C1879 C1895 1.429 . S
C1879 H1901 0.950 . S
C1880 H1876 0.949 . S
C1880 C1888 1.574 . S
C1880 C1896 1.368 . S
H1881 C1889 0.950 . S
H1882 C1887 0.950 . S
H1883 C1888 0.949 . S
H1884 C1890 0.950 . S
H1885 C1891 0.950 . S
H1886 C1892 0.949 . S
C1887 H1882 0.950 . S
C1887 C1889 1.327 . S
C1887 C1893 1.429 . S
C1888 C1880 1.574 . S
C1888 H1883 0.949 . S
C1888 C1894 1.368 . S
C1889 C1873 1.349 . S
C1889 H1881 0.950 . S
C1889 C1887 1.327 . S
C1890 C1878 1.349 . S
C1890 H1884 0.950 . S
C1890 C1891 1.327 . S
C1891 H1885 0.950 . S
C1891 C1890 1.327 . S
C1891 C1895 1.429 . S
C1892 C1875 1.574 . S
C1892 H1886 0.949 . S
C1892 C1896 1.368 . S
C1893 C1874 1.429 . S
C1893 C1887 1.429 . S
C1893 C1894 1.523 . S
C1894 C1875 1.368 . S
C1894 C1888 1.368 . S
C1894 C1893 1.523 . S
C1895 C1879 1.429 . S
C1895 C1891 1.429 . S
C1895 C1896 1.523 . S
C1896 C1880 1.368 . S
C1896 C1892 1.368 . S
C1896 C1895 1.523 . S
H1897 C1872 0.950 . S
H1898 C1874 0.950 . S
H1899 C1875 0.949 . S
H1900 C1877 0.950 . S
H1901 C1879 0.950 . S
C1902 C1903 1.349 . S
C1902 C1904 1.327 . S
C1902 H1927 0.950 . S
C1903 C1902 1.349 . S
C1903 C1919 1.349 . S
C1904 C1902 1.327 . S
C1904 C1923 1.429 . S
C1904 H1928 0.950 . S
C1905 C1922 1.609 . S
C1905 C1924 1.368 . S
C1905 H1929 0.949 . S
H1906 C1910 0.949 . S
C1907 C1908 1.349 . S
C1907 C1909 1.327 . S
C1907 H1930 0.950 . S
C1908 C1907 1.349 . S
C1908 C1920 1.349 . S
C1909 C1907 1.327 . S
C1909 C1925 1.429 . S
C1909 H1931 0.950 . S
C1910 H1906 0.949 . S
C1910 C1918 1.574 . S
C1910 C1926 1.368 . S
H1911 C1919 0.950 . S
H1912 C1917 0.951 . S
H1913 C1918 0.949 . S
H1914 C1920 0.950 . S
H1915 C1921 0.950 . S
H1916 C1922 0.961 . S
C1917 H1912 0.951 . S
C1917 C1919 1.327 . S
C1917 C1923 1.429 . S
C1918 C1910 1.574 . S
C1918 H1913 0.949 . S
C1918 C1924 1.368 1_455 S
C1919 C1903 1.349 . S
C1919 H1911 0.950 . S
C1919 C1917 1.327 . S
C1920 C1908 1.349 . S
C1920 H1914 0.950 . S
C1920 C1921 1.327 . S
C1921 H1915 0.950 . S
C1921 C1920 1.327 . S
C1921 C1925 1.429 . S
C1922 C1905 1.609 . S
C1922 H1916 0.961 . S
C1922 C1926 1.326 1_655 S
C1923 C1904 1.429 . S
C1923 C1917 1.429 . S
C1923 C1924 1.523 1_554 S
C1924 C1905 1.368 . S
C1924 C1918 1.368 1_655 S
C1924 C1923 1.523 1_556 S
C1925 C1909 1.429 . S
C1925 C1921 1.429 . S
C1925 C1926 1.523 . S
C1926 C1910 1.368 . S
C1926 C1922 1.326 1_455 S
C1926 C1925 1.523 . S
H1927 C1902 0.950 . S
H1928 C1904 0.950 . S
H1929 C1905 0.949 . S
H1930 C1907 0.950 . S
H1931 C1909 0.950 . S
C1932 C1933 1.349 . S
C1932 C1934 1.327 . S
C1932 H1957 0.950 . S
C1933 C1932 1.349 . S
C1933 C1949 1.349 . S
C1934 C1932 1.327 . S
C1934 C1953 1.429 . S
C1934 H1958 0.950 . S
C1935 C1952 1.574 . S
C1935 C1954 1.368 . S
C1935 H1959 0.949 . S
H1936 C1940 0.949 . S
C1937 C1938 1.349 . S
C1937 C1939 1.327 . S
C1937 H1960 0.950 . S
C1938 C1937 1.349 . S
C1938 C1950 1.349 . S
C1939 C1937 1.327 . S
C1939 C1955 1.429 . S
C1939 H1961 0.950 . S
C1940 H1936 0.949 . S
C1940 C1948 1.574 . S
C1940 C1956 1.368 . S
H1941 C1949 0.950 . S
H1942 C1947 0.950 . S
H1943 C1948 0.949 . S
H1944 C1950 0.950 . S
H1945 C1951 0.950 . S
H1946 C1952 0.949 . S
C1947 H1942 0.950 . S
C1947 C1949 1.327 . S
C1947 C1953 1.429 . S
C1948 C1940 1.574 . S
C1948 H1943 0.949 . S
C1948 C1954 1.368 . S
C1949 C1933 1.349 . S
C1949 H1941 0.950 . S
C1949 C1947 1.327 . S
C1950 C1938 1.349 . S
C1950 H1944 0.950 . S
C1950 C1951 1.327 . S
C1951 H1945 0.950 . S
C1951 C1950 1.327 . S
C1951 C1955 1.429 . S
C1952 C1935 1.574 . S
C1952 H1946 0.949 . S
C1952 C1956 1.368 . S
C1953 C1934 1.429 . S
C1953 C1947 1.429 . S
C1953 C1954 1.523 . S
C1954 C1935 1.368 . S
C1954 C1948 1.368 . S
C1954 C1953 1.523 . S
C1955 C1939 1.429 . S
C1955 C1951 1.429 . S
C1955 C1956 1.523 . S
C1956 C1940 1.368 . S
C1956 C1952 1.368 . S
C1956 C1955 1.523 . S
H1957 C1932 0.950 . S
H1958 C1934 0.950 . S
H1959 C1935 0.949 . S
H1960 C1937 0.950 . S
H1961 C1939 0.950 . S
C1962 C1963 1.349 . S
C1962 C1964 1.327 . S
C1962 H1987 0.950 . S
C1963 C1962 1.349 . S
C1963 C1979 1.349 . S
C1964 C1962 1.327 . S
C1964 C1983 1.429 . S
C1964 H1988 0.950 . S
C1965 C1982 1.574 . S
C1965 C1984 1.368 . S
C1965 H1989 0.949 . S
H1966 C1970 0.949 . S
C1967 C1968 1.349 . S
C1967 C1969 1.327 . S
C1967 H1990 0.950 . S
C1968 C1967 1.349 . S
C1968 C1980 1.349 . S
C1969 C1967 1.327 . S
C1969 C1985 1.429 . S
C1969 H1991 0.950 . S
C1970 H1966 0.949 . S
C1970 C1978 1.574 . S
C1970 C1986 1.368 . S
H1971 C1979 0.950 . S
H1972 C1977 0.950 . S
H1973 C1978 0.949 . S
H1974 C1980 0.950 . S
H1975 C1981 0.950 . S
H1976 C1982 0.949 . S
C1977 H1972 0.950 . S
C1977 C1979 1.327 . S
C1977 C1983 1.429 . S
C1978 C1970 1.574 . S
C1978 H1973 0.949 . S
C1978 C1984 1.368 . S
C1979 C1963 1.349 . S
C1979 H1971 0.950 . S
C1979 C1977 1.327 . S
C1980 C1968 1.349 . S
C1980 H1974 0.950 . S
C1980 C1981 1.327 . S
C1981 H1975 0.950 . S
C1981 C1980 1.327 . S
C1981 C1985 1.429 . S
C1982 C1965 1.574 . S
C1982 H1976 0.949 . S
C1982 C1986 1.368 . S
C1983 C1964 1.429 . S
C1983 C1977 1.429 . S
C1983 C1984 1.523 . S
C1984 C1965 1.368 . S
C1984 C1978 1.368 . S
C1984 C1983 1.523 . S
C1985 C1969 1.429 . S
C1985 C1981 1.429 . S
C1985 C1986 1.523 . S
C1986 C1970 1.368 . S
C1986 C1982 1.368 . S
C1986 C1985 1.523 . S
H1987 C1962 0.950 . S
H1988 C1964 0.950 . S
H1989 C1965 0.949 . S
H1990 C1967 0.950 . S
H1991 C1969 0.950 . S
C1992 C1993 1.349 . S
C1992 C1994 1.327 . S
C1992 H2017 0.950 . S
C1993 C1992 1.349 . S
C1993 C2009 1.349 . S
C1994 C1992 1.327 . S
C1994 C2013 1.429 . S
C1994 H2018 0.950 . S
C1995 C2012 1.574 . S
C1995 C2014 1.368 . S
C1995 H2019 0.949 . S
H1996 C2000 0.949 . S
C1997 C1998 1.349 . S
C1997 C1999 1.327 . S
C1997 H2020 0.950 . S
C1998 C1997 1.349 . S
C1998 C2010 1.349 . S
C1999 C1997 1.327 . S
C1999 C2015 1.429 . S
C1999 H2021 0.950 . S
C2000 H1996 0.949 . S
C2000 C2008 1.574 . S
C2000 C2016 1.368 . S
H2001 C2009 0.950 . S
H2002 C2007 0.950 . S
H2003 C2008 0.949 . S
H2004 C2010 0.950 . S
H2005 C2011 0.950 . S
H2006 C2012 0.949 . S
C2007 H2002 0.950 . S
C2007 C2009 1.327 . S
C2007 C2013 1.429 . S
C2008 C2000 1.574 . S
C2008 H2003 0.949 . S
C2008 C2014 1.368 . S
C2009 C1993 1.349 . S
C2009 H2001 0.950 . S
C2009 C2007 1.327 . S
C2010 C1998 1.349 . S
C2010 H2004 0.950 . S
C2010 C2011 1.327 . S
C2011 H2005 0.950 . S
C2011 C2010 1.327 . S
C2011 C2015 1.429 . S
C2012 C1995 1.574 . S
C2012 H2006 0.949 . S
C2012 C2016 1.368 . S
C2013 C1994 1.429 . S
C2013 C2007 1.429 . S
C2013 C2014 1.523 . S
C2014 C1995 1.368 . S
C2014 C2008 1.368 . S
C2014 C2013 1.523 . S
C2015 C1999 1.429 . S
C2015 C2011 1.429 . S
C2015 C2016 1.523 . S
C2016 C2000 1.368 . S
C2016 C2012 1.368 . S
C2016 C2015 1.523 . S
H2017 C1992 0.950 . S
H2018 C1994 0.950 . S
H2019 C1995 0.949 . S
H2020 C1997 0.950 . S
H2021 C1999 0.950 . S
C2022 C2023 1.349 . S
C2022 C2024 1.327 . S
C2022 H2047 0.950 . S
C2023 C2022 1.349 . S
C2023 C2039 1.349 . S
C2024 C2022 1.327 . S
C2024 C2043 1.429 . S
C2024 H2048 0.950 . S
C2025 C2042 1.574 . S
C2025 C2044 1.368 . S
C2025 H2049 0.949 . S
H2026 C2030 0.949 . S
C2027 C2028 1.349 . S
C2027 C2029 1.327 . S
C2027 H2050 0.950 . S
C2028 C2027 1.349 . S
C2028 C2040 1.349 . S
C2029 C2027 1.327 . S
C2029 C2045 1.429 . S
C2029 H2051 0.950 . S
C2030 H2026 0.949 . S
C2030 C2038 1.574 . S
C2030 C2046 1.368 . S
H2031 C2039 0.950 . S
H2032 C2037 0.950 . S
H2033 C2038 0.949 . S
H2034 C2040 0.950 . S
H2035 C2041 0.950 . S
H2036 C2042 0.949 . S
C2037 H2032 0.950 . S
C2037 C2039 1.327 . S
C2037 C2043 1.429 . S
C2038 C2030 1.574 . S
C2038 H2033 0.949 . S
C2038 C2044 1.368 . S
C2039 C2023 1.349 . S
C2039 H2031 0.950 . S
C2039 C2037 1.327 . S
C2040 C2028 1.349 . S
C2040 H2034 0.950 . S
C2040 C2041 1.327 . S
C2041 H2035 0.950 . S
C2041 C2040 1.327 . S
C2041 C2045 1.429 . S
C2042 C2025 1.574 . S
C2042 H2036 0.949 . S
C2042 C2046 1.368 . S
C2043 C2024 1.429 . S
C2043 C2037 1.429 . S
C2043 C2044 1.523 . S
C2044 C2025 1.368 . S
C2044 C2038 1.368 . S
C2044 C2043 1.523 . S
C2045 C2029 1.429 . S
C2045 C2041 1.429 . S
C2045 C2046 1.523 1_556 S
C2046 C2030 1.368 . S
C2046 C2042 1.368 . S
C2046 C2045 1.523 1_554 S
H2047 C2022 0.950 . S
H2048 C2024 0.950 . S
H2049 C2025 0.949 . S
H2050 C2027 0.950 . S
H2051 C2029 0.950 . S
C2052 C2053 1.349 . S
C2052 C2054 1.327 . S
C2052 H2077 0.950 . S
C2053 C2052 1.349 . S
C2053 C2069 1.349 . S
C2054 C2052 1.327 . S
C2054 C2073 1.429 . S
C2054 H2078 0.950 . S
C2055 C2072 1.574 . S
C2055 C2074 1.368 . S
C2055 H2079 0.949 . S
H2056 C2060 0.949 . S
C2057 C2058 1.349 . S
C2057 C2059 1.327 . S
C2057 H2080 0.950 . S
C2058 C2057 1.349 . S
C2058 C2070 1.349 . S
C2059 C2057 1.327 . S
C2059 C2075 1.429 . S
C2059 H2081 0.950 . S
C2060 H2056 0.949 . S
C2060 C2068 1.574 . S
C2060 C2076 1.368 . S
H2061 C2069 0.950 . S
H2062 C2067 0.950 . S
H2063 C2068 0.949 . S
H2064 C2070 0.950 . S
H2065 C2071 0.950 . S
H2066 C2072 0.949 . S
C2067 H2062 0.950 . S
C2067 C2069 1.327 . S
C2067 C2073 1.429 . S
C2068 C2060 1.574 . S
C2068 H2063 0.949 . S
C2068 C2074 1.368 . S
C2069 C2053 1.349 . S
C2069 H2061 0.950 . S
C2069 C2067 1.327 . S
C2070 C2058 1.349 . S
C2070 H2064 0.950 . S
C2070 C2071 1.327 . S
C2071 H2065 0.950 . S
C2071 C2070 1.327 . S
C2071 C2075 1.429 . S
C2072 C2055 1.574 . S
C2072 H2066 0.949 . S
C2072 C2076 1.368 . S
C2073 C2054 1.429 . S
C2073 C2067 1.429 . S
C2073 C2074 1.523 . S
C2074 C2055 1.368 . S
C2074 C2068 1.368 . S
C2074 C2073 1.523 . S
C2075 C2059 1.429 . S
C2075 C2071 1.429 . S
C2075 C2076 1.523 . S
C2076 C2060 1.368 . S
C2076 C2072 1.368 . S
C2076 C2075 1.523 . S
H2077 C2052 0.950 . S
H2078 C2054 0.950 . S
H2079 C2055 0.949 . S
H2080 C2057 0.950 . S
H2081 C2059 0.950 . S
C2082 C2083 1.349 . S
C2082 C2084 1.327 . S
C2082 H2107 0.950 . S
C2083 C2082 1.349 . S
C2083 C2099 1.349 . S
C2084 C2082 1.327 . S
C2084 C2103 1.429 . S
C2084 H2108 0.950 . S
C2085 C2102 1.574 . S
C2085 C2104 1.368 . S
C2085 H2109 0.949 . S
H2086 C2090 0.949 . S
C2087 C2088 1.349 . S
C2087 C2089 1.327 . S
C2087 H2110 0.950 . S
C2088 C2087 1.349 . S
C2088 C2100 1.349 . S
C2089 C2087 1.327 . S
C2089 C2105 1.429 . S
C2089 H2111 0.950 . S
C2090 H2086 0.949 . S
C2090 C2098 1.574 . S
C2090 C2106 1.368 . S
H2091 C2099 0.950 . S
H2092 C2097 0.950 . S
H2093 C2098 0.949 . S
H2094 C2100 0.950 . S
H2095 C2101 0.950 . S
H2096 C2102 0.949 . S
C2097 H2092 0.950 . S
C2097 C2099 1.327 . S
C2097 C2103 1.429 . S
C2098 C2090 1.574 . S
C2098 H2093 0.949 . S
C2098 C2104 1.368 1_455 S
C2099 C2083 1.349 . S
C2099 H2091 0.950 . S
C2099 C2097 1.327 . S
C2100 C2088 1.349 . S
C2100 H2094 0.950 . S
C2100 C2101 1.327 . S
C2101 H2095 0.950 . S
C2101 C2100 1.327 . S
C2101 C2105 1.429 . S
C2102 C2085 1.574 . S
C2102 H2096 0.949 . S
C2102 C2106 1.368 1_655 S
C2103 C2084 1.429 . S
C2103 C2097 1.429 . S
C2103 C2104 1.523 . S
C2104 C2085 1.368 . S
C2104 C2098 1.368 1_655 S
C2104 C2103 1.523 . S
C2105 C2089 1.429 . S
C2105 C2101 1.429 . S
C2105 C2106 1.523 . S
C2106 C2090 1.368 . S
C2106 C2102 1.368 1_455 S
C2106 C2105 1.523 . S
H2107 C2082 0.950 . S
H2108 C2084 0.950 . S
H2109 C2085 0.949 . S
H2110 C2087 0.950 . S
H2111 C2089 0.950 . S
C2112 C2113 1.349 . S
C2112 C2114 1.327 . S
C2112 H2137 0.950 . S
C2113 C2112 1.349 . S
C2113 C2129 1.349 . S
C2114 C2112 1.327 . S
C2114 C2133 1.429 . S
C2114 H2138 0.950 . S
C2115 C2132 1.574 . S
C2115 C2134 1.368 . S
C2115 H2139 0.949 . S
H2116 C2120 0.949 . S
C2117 C2118 1.349 . S
C2117 C2119 1.327 . S
C2117 H2140 0.950 . S
C2118 C2117 1.349 . S
C2118 C2130 1.349 . S
C2119 C2117 1.327 . S
C2119 C2135 1.429 . S
C2119 H2141 0.950 . S
C2120 H2116 0.949 . S
C2120 C2128 1.574 . S
C2120 C2136 1.368 . S
H2121 C2129 0.950 . S
H2122 C2127 0.950 . S
H2123 C2128 0.949 . S
H2124 C2130 0.950 . S
H2125 C2131 0.950 . S
H2126 C2132 0.949 . S
C2127 H2122 0.950 . S
C2127 C2129 1.327 . S
C2127 C2133 1.429 . S
C2128 C2120 1.574 . S
C2128 H2123 0.949 . S
C2128 C2134 1.368 . S
C2129 C2113 1.349 . S
C2129 H2121 0.950 . S
C2129 C2127 1.327 . S
C2130 C2118 1.349 . S
C2130 H2124 0.950 . S
C2130 C2131 1.327 . S
C2131 H2125 0.950 . S
C2131 C2130 1.327 . S
C2131 C2135 1.429 . S
C2132 C2115 1.574 . S
C2132 H2126 0.949 . S
C2132 C2136 1.368 . S
C2133 C2114 1.429 . S
C2133 C2127 1.429 . S
C2133 C2134 1.523 . S
C2134 C2115 1.368 . S
C2134 C2128 1.368 . S
C2134 C2133 1.523 . S
C2135 C2119 1.429 . S
C2135 C2131 1.429 . S
C2135 C2136 1.523 . S
C2136 C2120 1.368 . S
C2136 C2132 1.368 . S
C2136 C2135 1.523 . S
H2137 C2112 0.950 . S
H2138 C2114 0.950 . S
H2139 C2115 0.949 . S
H2140 C2117 0.950 . S
H2141 C2119 0.950 . S
C2142 C2143 1.349 . S
C2142 C2144 1.327 . S
C2142 H2167 0.950 . S
C2143 C2142 1.349 . S
C2143 C2159 1.349 . S
C2144 C2142 1.327 . S
C2144 C2163 1.429 . S
C2144 H2168 0.950 . S
C2145 C2162 1.574 . S
C2145 C2164 1.368 . S
C2145 H2169 0.949 . S
H2146 C2150 0.949 . S
C2147 C2148 1.349 . S
C2147 C2149 1.327 . S
C2147 H2170 0.950 . S
C2148 C2147 1.349 . S
C2148 C2160 1.349 . S
C2149 C2147 1.327 . S
C2149 C2165 1.429 . S
C2149 H2171 0.950 . S
C2150 H2146 0.949 . S
C2150 C2158 1.574 . S
C2150 C2166 1.368 . S
H2151 C2159 0.950 . S
H2152 C2157 0.950 . S
H2153 C2158 0.949 . S
H2154 C2160 0.950 . S
H2155 C2161 0.950 . S
H2156 C2162 0.949 . S
C2157 H2152 0.950 . S
C2157 C2159 1.327 . S
C2157 C2163 1.429 . S
C2158 C2150 1.574 . S
C2158 H2153 0.949 . S
C2158 C2164 1.368 . S
C2159 C2143 1.349 . S
C2159 H2151 0.950 . S
C2159 C2157 1.327 . S
C2160 C2148 1.349 . S
C2160 H2154 0.950 . S
C2160 C2161 1.327 . S
C2161 H2155 0.950 . S
C2161 C2160 1.327 . S
C2161 C2165 1.429 . S
C2162 C2145 1.574 . S
C2162 H2156 0.949 . S
C2162 C2166 1.368 . S
C2163 C2144 1.429 . S
C2163 C2157 1.429 . S
C2163 C2164 1.523 . S
C2164 C2145 1.368 . S
C2164 C2158 1.368 . S
C2164 C2163 1.523 . S
C2165 C2149 1.429 . S
C2165 C2161 1.429 . S
C2165 C2166 1.523 . S
C2166 C2150 1.368 . S
C2166 C2162 1.368 . S
C2166 C2165 1.523 . S
H2167 C2142 0.950 . S
H2168 C2144 0.950 . S
H2169 C2145 0.949 . S
H2170 C2147 0.950 . S
H2171 C2149 0.950 . S
C2172 C2173 1.349 . S
C2172 C2174 1.327 . S
C2172 H2197 0.950 . S
C2173 C2172 1.349 . S
C2173 C2189 1.349 . S
C2174 C2172 1.327 . S
C2174 C2193 1.429 . S
C2174 H2198 0.950 . S
C2175 C2192 1.574 . S
C2175 C2194 1.368 . S
C2175 H2199 0.949 . S
H2176 C2180 0.949 . S
C2177 C2178 1.349 . S
C2177 C2179 1.327 . S
C2177 H2200 0.950 . S
C2178 C2177 1.349 . S
C2178 C2190 1.349 . S
C2179 C2177 1.327 . S
C2179 C2195 1.429 . S
C2179 H2201 0.950 . S
C2180 H2176 0.949 . S
C2180 C2188 1.574 . S
C2180 C2196 1.368 . S
H2181 C2189 0.950 . S
H2182 C2187 0.950 . S
H2183 C2188 0.949 . S
H2184 C2190 0.950 . S
H2185 C2191 0.950 . S
H2186 C2192 0.949 . S
C2187 H2182 0.950 . S
C2187 C2189 1.327 . S
C2187 C2193 1.429 . S
C2188 C2180 1.574 . S
C2188 H2183 0.949 . S
C2188 C2194 1.368 . S
C2189 C2173 1.349 . S
C2189 H2181 0.950 . S
C2189 C2187 1.327 . S
C2190 C2178 1.349 . S
C2190 H2184 0.950 . S
C2190 C2191 1.327 . S
C2191 H2185 0.950 . S
C2191 C2190 1.327 . S
C2191 C2195 1.429 . S
C2192 C2175 1.574 . S
C2192 H2186 0.949 . S
C2192 C2196 1.368 . S
C2193 C2174 1.429 . S
C2193 C2187 1.429 . S
C2193 C2194 1.523 . S
C2194 C2175 1.368 . S
C2194 C2188 1.368 . S
C2194 C2193 1.523 . S
C2195 C2179 1.429 . S
C2195 C2191 1.429 . S
C2195 C2196 1.523 . S
C2196 C2180 1.368 . S
C2196 C2192 1.368 . S
C2196 C2195 1.523 . S
H2197 C2172 0.950 . S
H2198 C2174 0.950 . S
H2199 C2175 0.949 . S
H2200 C2177 0.950 . S
H2201 C2179 0.950 . S
C2202 C2203 1.349 . S
C2202 C2204 1.327 . S
C2202 H2227 0.950 . S
C2203 C2202 1.349 . S
C2203 C2219 1.349 . S
C2204 C2202 1.327 . S
C2204 C2223 1.429 . S
C2204 H2228 0.950 . S
C2205 C2222 1.574 . S
C2205 C2224 1.368 . S
C2205 H2229 0.949 . S
H2206 C2210 0.949 . S
C2207 C2208 1.349 . S
C2207 C2209 1.327 . S
C2207 H2230 0.950 . S
C2208 C2207 1.349 . S
C2208 C2220 1.349 . S
C2209 C2207 1.327 . S
C2209 C2225 1.429 . S
C2209 H2231 0.950 . S
C2210 H2206 0.949 . S
C2210 C2218 1.574 . S
C2210 C2226 1.368 . S
H2211 C2219 0.950 . S
H2212 C2217 0.950 . S
H2213 C2218 0.949 . S
H2214 C2220 0.950 . S
H2215 C2221 0.950 1_554 S
H2216 C2222 0.949 . S
C2217 H2212 0.950 . S
C2217 C2219 1.327 . S
C2217 C2223 1.429 . S
C2218 C2210 1.574 . S
C2218 H2213 0.949 . S
C2218 C2224 1.368 1_655 S
C2219 C2203 1.349 . S
C2219 H2211 0.950 . S
C2219 C2217 1.327 . S
C2220 C2208 1.349 . S
C2220 H2214 0.950 . S
C2220 C2221 1.327 . S
C2221 H2215 0.950 1_556 S
C2221 C2220 1.327 . S
C2221 C2225 1.429 . S
C2222 C2205 1.574 . S
C2222 H2216 0.949 . S
C2222 C2226 1.368 1_455 S
C2223 C2204 1.429 . S
C2223 C2217 1.429 . S
C2223 C2224 1.523 . S
C2224 C2205 1.368 . S
C2224 C2218 1.368 1_455 S
C2224 C2223 1.523 . S
C2225 C2209 1.429 . S
C2225 C2221 1.429 . S
C2225 C2226 1.523 1_556 S
C2226 C2210 1.368 . S
C2226 C2222 1.368 1_655 S
C2226 C2225 1.523 1_554 S
H2227 C2202 0.950 . S
H2228 C2204 0.950 . S
H2229 C2205 0.949 . S
H2230 C2207 0.950 . S
H2231 C2209 0.950 . S
C2232 C2233 1.349 . S
C2232 C2234 1.327 . S
C2232 H2257 0.950 . S
C2233 C2232 1.349 . S
C2233 C2249 1.349 . S
C2234 C2232 1.327 . S
C2234 C2253 1.429 . S
C2234 H2258 0.950 . S
C2235 C2252 1.574 . S
C2235 C2254 1.368 . S
C2235 H2259 0.949 . S
H2236 C2240 0.949 . S
C2237 C2238 1.349 . S
C2237 C2239 1.327 . S
C2237 H2260 0.950 . S
C2238 C2237 1.349 . S
C2238 C2250 1.349 . S
C2239 C2237 1.327 . S
C2239 C2255 1.429 . S
C2239 H2261 0.950 . S
C2240 H2236 0.949 . S
C2240 C2248 1.574 . S
C2240 C2256 1.368 . S
H2241 C2249 0.950 . S
H2242 C2247 0.950 . S
H2243 C2248 0.949 . S
H2244 C2250 0.950 . S
H2245 C2251 0.950 . S
H2246 C2252 0.949 . S
C2247 H2242 0.950 . S
C2247 C2249 1.327 . S
C2247 C2253 1.429 . S
C2248 C2240 1.574 . S
C2248 H2243 0.949 . S
C2248 C2254 1.368 . S
C2249 C2233 1.349 . S
C2249 H2241 0.950 . S
C2249 C2247 1.327 . S
C2250 C2238 1.349 . S
C2250 H2244 0.950 . S
C2250 C2251 1.327 . S
C2251 H2245 0.950 . S
C2251 C2250 1.327 . S
C2251 C2255 1.429 . S
C2252 C2235 1.574 . S
C2252 H2246 0.949 . S
C2252 C2256 1.368 . S
C2253 C2234 1.429 . S
C2253 C2247 1.429 . S
C2253 C2254 1.523 . S
C2254 C2235 1.368 . S
C2254 C2248 1.368 . S
C2254 C2253 1.523 . S
C2255 C2239 1.429 . S
C2255 C2251 1.429 . S
C2255 C2256 1.523 . S
C2256 C2240 1.368 . S
C2256 C2252 1.368 . S
C2256 C2255 1.523 . S
H2257 C2232 0.950 . S
H2258 C2234 0.950 . S
H2259 C2235 0.949 . S
H2260 C2237 0.950 . S
H2261 C2239 0.950 . S
C2262 C2263 1.349 . S
C2262 C2264 1.327 . S
C2262 H2287 0.950 . S
C2263 C2262 1.349 . S
C2263 C2279 1.349 . S
C2264 C2262 1.327 . S
C2264 C2283 1.429 . S
C2264 H2288 0.950 . S
C2265 C2282 1.574 . S
C2265 C2284 1.368 1_455 S
C2265 H2289 0.949 . S
H2266 C2270 0.949 . S
C2267 C2268 1.349 . S
C2267 C2269 1.327 . S
C2267 H2290 0.950 . S
C2268 C2267 1.349 . S
C2268 C2280 1.349 . S
C2269 C2267 1.327 . S
C2269 C2285 1.429 . S
C2269 H2291 0.950 . S
C2270 H2266 0.949 . S
C2270 C2278 1.574 . S
C2270 C2286 1.368 1_655 S
H2271 C2279 0.950 . S
H2272 C2277 0.950 . S
H2273 C2278 0.949 . S
H2274 C2280 0.950 . S
H2275 C2281 0.950 . S
H2276 C2282 0.949 . S
C2277 H2272 0.950 . S
C2277 C2279 1.327 . S
C2277 C2283 1.429 . S
C2278 C2270 1.574 . S
C2278 H2273 0.949 . S
C2278 C2284 1.368 . S
C2279 C2263 1.349 . S
C2279 H2271 0.950 . S
C2279 C2277 1.327 . S
C2280 C2268 1.349 . S
C2280 H2274 0.950 . S
C2280 C2281 1.327 . S
C2281 H2275 0.950 . S
C2281 C2280 1.327 . S
C2281 C2285 1.429 . S
C2282 C2265 1.574 . S
C2282 H2276 0.949 . S
C2282 C2286 1.368 . S
C2283 C2264 1.429 . S
C2283 C2277 1.429 . S
C2283 C2284 1.523 . S
C2284 C2265 1.368 1_655 S
C2284 C2278 1.368 . S
C2284 C2283 1.523 . S
C2285 C2269 1.429 . S
C2285 C2281 1.429 . S
C2285 C2286 1.523 . S
C2286 C2270 1.368 1_455 S
C2286 C2282 1.368 . S
C2286 C2285 1.523 . S
H2287 C2262 0.950 . S
H2288 C2264 0.950 . S
H2289 C2265 0.949 . S
H2290 C2267 0.950 . S
H2291 C2269 0.950 . S
C2292 C2293 1.349 . S
C2292 C2294 1.327 . S
C2292 H2317 0.950 . S
C2293 C2292 1.349 . S
C2293 C2309 1.349 . S
C2294 C2292 1.327 . S
C2294 C2313 1.429 . S
C2294 H2318 0.950 . S
C2295 C2312 1.574 . S
C2295 C2314 1.368 . S
C2295 H2319 0.949 . S
H2296 C2300 0.949 . S
C2297 C2298 1.349 . S
C2297 C2299 1.327 . S
C2297 H2320 0.950 . S
C2298 C2297 1.349 . S
C2298 C2310 1.349 . S
C2299 C2297 1.327 . S
C2299 C2315 1.429 . S
C2299 H2321 0.950 . S
C2300 H2296 0.949 . S
C2300 C2308 1.574 . S
C2300 C2316 1.368 . S
H2301 C2309 0.950 . S
H2302 C2307 0.950 . S
H2303 C2308 0.949 . S
H2304 C2310 0.950 . S
H2305 C2311 0.950 . S
H2306 C2312 0.949 . S
C2307 H2302 0.950 . S
C2307 C2309 1.327 . S
C2307 C2313 1.429 . S
C2308 C2300 1.574 . S
C2308 H2303 0.949 . S
C2308 C2314 1.368 . S
C2309 C2293 1.349 . S
C2309 H2301 0.950 . S
C2309 C2307 1.327 . S
C2310 C2298 1.349 . S
C2310 H2304 0.950 . S
C2310 C2311 1.327 . S
C2311 H2305 0.950 . S
C2311 C2310 1.327 . S
C2311 C2315 1.429 . S
C2312 C2295 1.574 . S
C2312 H2306 0.949 . S
C2312 C2316 1.368 . S
C2313 C2294 1.429 . S
C2313 C2307 1.429 . S
C2313 C2314 1.523 . S
C2314 C2295 1.368 . S
C2314 C2308 1.368 . S
C2314 C2313 1.523 . S
C2315 C2299 1.429 . S
C2315 C2311 1.429 . S
C2315 C2316 1.523 . S
C2316 C2300 1.368 . S
C2316 C2312 1.368 . S
C2316 C2315 1.523 . S
H2317 C2292 0.950 . S
H2318 C2294 0.950 . S
H2319 C2295 0.949 . S
H2320 C2297 0.950 . S
H2321 C2299 0.950 . S
C2322 C2323 1.349 . S
C2322 C2324 1.327 . S
C2322 H2347 0.950 . S
C2323 C2322 1.349 . S
C2323 C2339 1.349 . S
C2324 C2322 1.327 . S
C2324 C2343 1.429 . S
C2324 H2348 0.950 . S
C2325 C2342 1.574 . S
C2325 C2344 1.368 . S
C2325 H2349 0.949 . S
H2326 C2330 0.949 . S
C2327 C2328 1.349 . S
C2327 C2329 1.327 . S
C2327 H2350 0.950 . S
C2328 C2327 1.349 . S
C2328 C2340 1.349 . S
C2329 C2327 1.327 . S
C2329 C2345 1.429 . S
C2329 H2351 0.950 . S
C2330 H2326 0.949 . S
C2330 C2338 1.574 . S
C2330 C2346 1.368 . S
H2331 C2339 0.950 . S
H2332 C2337 0.950 . S
H2333 C2338 0.949 . S
H2334 C2340 0.950 . S
H2335 C2341 0.950 . S
H2336 C2342 0.949 . S
C2337 H2332 0.950 . S
C2337 C2339 1.327 . S
C2337 C2343 1.429 . S
C2338 C2330 1.574 . S
C2338 H2333 0.949 . S
C2338 C2344 1.368 . S
C2339 C2323 1.349 . S
C2339 H2331 0.950 . S
C2339 C2337 1.327 . S
C2340 C2328 1.349 . S
C2340 H2334 0.950 . S
C2340 C2341 1.327 . S
C2341 H2335 0.950 . S
C2341 C2340 1.327 . S
C2341 C2345 1.429 . S
C2342 C2325 1.574 . S
C2342 H2336 0.949 . S
C2342 C2346 1.368 . S
C2343 C2324 1.429 . S
C2343 C2337 1.429 . S
C2343 C2344 1.523 1_554 S
C2344 C2325 1.368 . S
C2344 C2338 1.368 . S
C2344 C2343 1.523 1_556 S
C2345 C2329 1.429 . S
C2345 C2341 1.429 . S
C2345 C2346 1.523 . S
C2346 C2330 1.368 . S
C2346 C2342 1.368 . S
C2346 C2345 1.523 . S
H2347 C2322 0.950 . S
H2348 C2324 0.950 . S
H2349 C2325 0.949 . S
H2350 C2327 0.950 . S
H2351 C2329 0.950 . S
C2352 C2353 1.349 . S
C2352 C2354 1.327 . S
C2352 H2377 0.950 . S
C2353 C2352 1.349 . S
C2353 C2369 1.349 . S
C2354 C2352 1.327 . S
C2354 C2373 1.429 . S
C2354 H2378 0.950 . S
C2355 C2372 1.574 . S
C2355 C2374 1.368 . S
C2355 H2379 0.949 . S
H2356 C2360 0.949 . S
C2357 C2358 1.349 . S
C2357 C2359 1.327 . S
C2357 H2380 0.950 . S
C2358 C2357 1.349 . S
C2358 C2370 1.349 . S
C2359 C2357 1.327 . S
C2359 C2375 1.429 . S
C2359 H2381 0.950 . S
C2360 H2356 0.949 . S
C2360 C2368 1.574 . S
C2360 C2376 1.368 . S
H2361 C2369 0.950 . S
H2362 C2367 0.950 . S
H2363 C2368 0.949 . S
H2364 C2370 0.950 . S
H2365 C2371 0.950 . S
H2366 C2372 0.949 . S
C2367 H2362 0.950 . S
C2367 C2369 1.327 . S
C2367 C2373 1.429 . S
C2368 C2360 1.574 . S
C2368 H2363 0.949 . S
C2368 C2374 1.368 . S
C2369 C2353 1.349 . S
C2369 H2361 0.950 . S
C2369 C2367 1.327 . S
C2370 C2358 1.349 . S
C2370 H2364 0.950 . S
C2370 C2371 1.327 . S
C2371 H2365 0.950 . S
C2371 C2370 1.327 . S
C2371 C2375 1.429 . S
C2372 C2355 1.574 . S
C2372 H2366 0.949 . S
C2372 C2376 1.368 . S
C2373 C2354 1.429 . S
C2373 C2367 1.429 . S
C2373 C2374 1.523 . S
C2374 C2355 1.368 . S
C2374 C2368 1.368 . S
C2374 C2373 1.523 . S
C2375 C2359 1.429 . S
C2375 C2371 1.429 . S
C2375 C2376 1.523 . S
C2376 C2360 1.368 . S
C2376 C2372 1.368 . S
C2376 C2375 1.523 . S
H2377 C2352 0.950 . S
H2378 C2354 0.950 . S
H2379 C2355 0.949 . S
H2380 C2357 0.950 . S
H2381 C2359 0.950 . S
C2382 C2383 1.349 . S
C2382 C2384 1.327 . S
C2382 H2407 0.950 . S
C2383 C2382 1.349 . S
C2383 C2399 1.349 . S
C2384 C2382 1.327 . S
C2384 C2403 1.429 . S
C2384 H2408 0.950 . S
C2385 C2402 1.574 . S
C2385 C2404 1.368 . S
C2385 H2409 0.949 . S
H2386 C2390 0.949 . S
C2387 C2388 1.349 . S
C2387 C2389 1.327 . S
C2387 H2410 0.950 . S
C2388 C2387 1.349 . S
C2388 C2400 1.349 . S
C2389 C2387 1.327 . S
C2389 C2405 1.429 . S
C2389 H2411 0.950 . S
C2390 H2386 0.949 . S
C2390 C2398 1.574 . S
C2390 C2406 1.368 . S
H2391 C2399 0.950 . S
H2392 C2397 0.950 . S
H2393 C2398 0.949 . S
H2394 C2400 0.950 . S
H2395 C2401 0.950 . S
H2396 C2402 0.949 . S
C2397 H2392 0.950 . S
C2397 C2399 1.327 . S
C2397 C2403 1.429 . S
C2398 C2390 1.574 . S
C2398 H2393 0.949 . S
C2398 C2404 1.368 . S
C2399 C2383 1.349 . S
C2399 H2391 0.950 . S
C2399 C2397 1.327 . S
C2400 C2388 1.349 . S
C2400 H2394 0.950 . S
C2400 C2401 1.327 . S
C2401 H2395 0.950 . S
C2401 C2400 1.327 . S
C2401 C2405 1.429 . S
C2402 C2385 1.574 . S
C2402 H2396 0.949 . S
C2402 C2406 1.368 . S
C2403 C2384 1.429 . S
C2403 C2397 1.429 . S
C2403 C2404 1.523 . S
C2404 C2385 1.368 . S
C2404 C2398 1.368 . S
C2404 C2403 1.523 . S
C2405 C2389 1.429 . S
C2405 C2401 1.429 . S
C2405 C2406 1.523 . S
C2406 C2390 1.368 . S
C2406 C2402 1.368 . S
C2406 C2405 1.523 . S
H2407 C2382 0.950 . S
H2408 C2384 0.950 . S
H2409 C2385 0.949 . S
H2410 C2387 0.950 . S
H2411 C2389 0.950 . S
C2412 C2413 1.349 . S
C2412 C2414 1.327 . S
C2412 H2437 0.950 . S
C2413 C2412 1.349 . S
C2413 C2429 1.349 . S
C2414 C2412 1.327 . S
C2414 C2433 1.429 . S
C2414 H2438 0.950 . S
C2415 C2432 1.574 . S
C2415 C2434 1.368 . S
C2415 H2439 0.949 . S
H2416 C2420 0.949 . S
C2417 C2418 1.349 . S
C2417 C2419 1.327 . S
C2417 H2440 0.950 . S
C2418 C2417 1.349 . S
C2418 C2430 1.349 . S
C2419 C2417 1.327 . S
C2419 C2435 1.429 . S
C2419 H2441 0.950 . S
C2420 H2416 0.949 . S
C2420 C2428 1.574 . S
C2420 C2436 1.368 . S
H2421 C2429 0.950 . S
H2422 C2427 0.950 . S
H2423 C2428 0.949 . S
H2424 C2430 0.950 . S
H2425 C2431 0.950 . S
H2426 C2432 0.949 . S
C2427 H2422 0.950 . S
C2427 C2429 1.327 . S
C2427 C2433 1.429 . S
C2428 C2420 1.574 . S
C2428 H2423 0.949 . S
C2428 C2434 1.368 . S
C2429 C2413 1.349 . S
C2429 H2421 0.950 . S
C2429 C2427 1.327 . S
C2430 C2418 1.349 . S
C2430 H2424 0.950 . S
C2430 C2431 1.327 . S
C2431 H2425 0.950 . S
C2431 C2430 1.327 . S
C2431 C2435 1.429 . S
C2432 C2415 1.574 . S
C2432 H2426 0.949 . S
C2432 C2436 1.368 . S
C2433 C2414 1.429 . S
C2433 C2427 1.429 . S
C2433 C2434 1.523 . S
C2434 C2415 1.368 . S
C2434 C2428 1.368 . S
C2434 C2433 1.523 . S
C2435 C2419 1.429 . S
C2435 C2431 1.429 . S
C2435 C2436 1.523 . S
C2436 C2420 1.368 . S
C2436 C2432 1.368 . S
C2436 C2435 1.523 . S
H2437 C2412 0.950 . S
H2438 C2414 0.950 . S
H2439 C2415 0.949 . S
H2440 C2417 0.950 . S
H2441 C2419 0.950 . S
C2442 C2443 1.349 . S
C2442 C2444 1.327 . S
C2442 H2467 0.950 . S
C2443 C2442 1.349 . S
C2443 C2459 1.349 . S
C2444 C2442 1.327 . S
C2444 C2463 1.429 . S
C2444 H2468 0.950 . S
C2445 C2462 1.574 . S
C2445 C2464 1.368 1_455 S
C2445 H2469 0.949 . S
H2446 C2450 0.949 . S
C2447 C2448 1.349 . S
C2447 C2449 1.327 . S
C2447 H2470 0.950 . S
C2448 C2447 1.349 . S
C2448 C2460 1.349 . S
C2449 C2447 1.327 . S
C2449 C2465 1.429 . S
C2449 H2471 0.950 . S
C2450 H2446 0.949 . S
C2450 C2458 1.574 . S
C2450 C2466 1.368 1_655 S
H2451 C2459 0.950 . S
H2452 C2457 0.950 . S
H2453 C2458 0.949 . S
H2454 C2460 0.950 . S
H2455 C2461 0.950 . S
H2456 C2462 0.949 . S
C2457 H2452 0.950 . S
C2457 C2459 1.327 . S
C2457 C2463 1.429 . S
C2458 C2450 1.574 . S
C2458 H2453 0.949 . S
C2458 C2464 1.368 . S
C2459 C2443 1.349 . S
C2459 H2451 0.950 . S
C2459 C2457 1.327 . S
C2460 C2448 1.349 . S
C2460 H2454 0.950 . S
C2460 C2461 1.327 . S
C2461 H2455 0.950 . S
C2461 C2460 1.327 . S
C2461 C2465 1.429 . S
C2462 C2445 1.574 . S
C2462 H2456 0.949 . S
C2462 C2466 1.368 . S
C2463 C2444 1.429 . S
C2463 C2457 1.429 . S
C2463 C2464 1.523 . S
C2464 C2445 1.368 1_655 S
C2464 C2458 1.368 . S
C2464 C2463 1.523 . S
C2465 C2449 1.429 . S
C2465 C2461 1.429 . S
C2465 C2466 1.523 1_554 S
C2466 C2450 1.368 1_455 S
C2466 C2462 1.368 . S
C2466 C2465 1.523 1_556 S
H2467 C2442 0.950 . S
H2468 C2444 0.950 . S
H2469 C2445 0.949 . S
H2470 C2447 0.950 . S
H2471 C2449 0.950 . S
C2472 C2473 1.349 . S
C2472 C2474 1.327 . S
C2472 H2497 0.950 . S
C2473 C2472 1.349 . S
C2473 C2489 1.349 . S
C2474 C2472 1.327 . S
C2474 C2493 1.429 . S
C2474 H2498 0.950 . S
C2475 C2492 1.574 . S
C2475 C2494 1.368 . S
C2475 H2499 0.949 . S
H2476 C2480 0.949 . S
C2477 C2478 1.349 . S
C2477 C2479 1.327 . S
C2477 H2500 0.950 . S
C2478 C2477 1.349 . S
C2478 C2490 1.349 . S
C2479 C2477 1.327 . S
C2479 C2495 1.429 . S
C2479 H2501 0.950 . S
C2480 H2476 0.949 . S
C2480 C2488 1.574 . S
C2480 C2496 1.368 . S
H2481 C2489 0.950 . S
H2482 C2487 0.950 . S
H2483 C2488 0.949 . S
H2484 C2490 0.950 . S
H2485 C2491 0.950 . S
H2486 C2492 0.949 . S
C2487 H2482 0.950 . S
C2487 C2489 1.327 . S
C2487 C2493 1.429 . S
C2488 C2480 1.574 . S
C2488 H2483 0.949 . S
C2488 C2494 1.368 . S
C2489 C2473 1.349 . S
C2489 H2481 0.950 . S
C2489 C2487 1.327 . S
C2490 C2478 1.349 . S
C2490 H2484 0.950 . S
C2490 C2491 1.327 . S
C2491 H2485 0.950 . S
C2491 C2490 1.327 . S
C2491 C2495 1.429 . S
C2492 C2475 1.574 . S
C2492 H2486 0.949 . S
C2492 C2496 1.368 . S
C2493 C2474 1.429 . S
C2493 C2487 1.429 . S
C2493 C2494 1.523 . S
C2494 C2475 1.368 . S
C2494 C2488 1.368 . S
C2494 C2493 1.523 . S
C2495 C2479 1.429 . S
C2495 C2491 1.429 . S
C2495 C2496 1.523 . S
C2496 C2480 1.368 . S
C2496 C2492 1.368 . S
C2496 C2495 1.523 . S
H2497 C2472 0.950 . S
H2498 C2474 0.950 . S
H2499 C2475 0.949 . S
H2500 C2477 0.950 . S
H2501 C2479 0.950 . S
C2502 C2503 1.349 . S
C2502 C2504 1.327 . S
C2502 H2527 0.950 . S
C2503 C2502 1.349 . S
C2503 C2519 1.349 . S
C2504 C2502 1.327 . S
C2504 C2523 1.429 . S
C2504 H2528 0.950 . S
C2505 C2522 1.574 . S
C2505 C2524 1.368 1_455 S
C2505 H2529 0.949 . S
H2506 C2510 0.949 . S
C2507 C2508 1.349 . S
C2507 C2509 1.327 . S
C2507 H2530 0.950 . S
C2508 C2507 1.349 . S
C2508 C2520 1.349 . S
C2509 C2507 1.327 . S
C2509 C2525 1.429 . S
C2509 H2531 0.950 . S
C2510 H2506 0.949 . S
C2510 C2518 1.574 . S
C2510 C2526 1.368 1_655 S
H2511 C2519 0.950 . S
H2512 C2517 0.950 . S
H2513 C2518 0.949 . S
H2514 C2520 0.950 . S
H2515 C2521 0.950 . S
H2516 C2522 0.949 . S
C2517 H2512 0.950 . S
C2517 C2519 1.327 . S
C2517 C2523 1.429 . S
C2518 C2510 1.574 . S
C2518 H2513 0.949 . S
C2518 C2524 1.368 . S
C2519 C2503 1.349 . S
C2519 H2511 0.950 . S
C2519 C2517 1.327 . S
C2520 C2508 1.349 . S
C2520 H2514 0.950 . S
C2520 C2521 1.327 . S
C2521 H2515 0.950 . S
C2521 C2520 1.327 . S
C2521 C2525 1.429 . S
C2522 C2505 1.574 . S
C2522 H2516 0.949 . S
C2522 C2526 1.368 . S
C2523 C2504 1.429 . S
C2523 C2517 1.429 . S
C2523 C2524 1.523 . S
C2524 C2505 1.368 1_655 S
C2524 C2518 1.368 . S
C2524 C2523 1.523 . S
C2525 C2509 1.429 . S
C2525 C2521 1.429 . S
C2525 C2526 1.523 . S
C2526 C2510 1.368 1_455 S
C2526 C2522 1.368 . S
C2526 C2525 1.523 . S
H2527 C2502 0.950 . S
H2528 C2504 0.950 . S
H2529 C2505 0.949 . S
H2530 C2507 0.950 . S
H2531 C2509 0.950 . S
C2532 C2533 1.349 . S
C2532 C2534 1.327 . S
C2532 H2557 0.950 . S
C2533 C2532 1.349 . S
C2533 C2549 1.349 . S
C2534 C2532 1.327 . S
C2534 C2553 1.429 . S
C2534 H2558 0.950 . S
C2535 C2552 1.574 . S
C2535 C2554 1.368 . S
C2535 H2559 0.949 . S
H2536 C2540 0.949 . S
C2537 C2538 1.349 . S
C2537 C2539 1.327 . S
C2537 H2560 0.950 . S
C2538 C2537 1.349 . S
C2538 C2550 1.349 . S
C2539 C2537 1.327 . S
C2539 C2555 1.429 . S
C2539 H2561 0.950 . S
C2540 H2536 0.949 . S
C2540 C2548 1.574 . S
C2540 C2556 1.368 . S
H2541 C2549 0.950 . S
H2542 C2547 0.950 . S
H2543 C2548 0.949 . S
H2544 C2550 0.950 . S
H2545 C2551 0.950 . S
H2546 C2552 0.949 . S
C2547 H2542 0.950 . S
C2547 C2549 1.327 . S
C2547 C2553 1.429 . S
C2548 C2540 1.574 . S
C2548 H2543 0.949 . S
C2548 C2554 1.368 . S
C2549 C2533 1.349 . S
C2549 H2541 0.950 . S
C2549 C2547 1.327 . S
C2550 C2538 1.349 . S
C2550 H2544 0.950 . S
C2550 C2551 1.327 . S
C2551 H2545 0.950 . S
C2551 C2550 1.327 . S
C2551 C2555 1.429 . S
C2552 C2535 1.574 . S
C2552 H2546 0.949 . S
C2552 C2556 1.368 . S
C2553 C2534 1.429 . S
C2553 C2547 1.429 . S
C2553 C2554 1.523 . S
C2554 C2535 1.368 . S
C2554 C2548 1.368 . S
C2554 C2553 1.523 . S
C2555 C2539 1.429 . S
C2555 C2551 1.429 . S
C2555 C2556 1.523 . S
C2556 C2540 1.368 . S
C2556 C2552 1.368 . S
C2556 C2555 1.523 . S
H2557 C2532 0.950 . S
H2558 C2534 0.950 . S
H2559 C2535 0.949 . S
H2560 C2537 0.950 . S
H2561 C2539 0.950 . S
C2562 C2563 1.349 . S
C2562 C2564 1.327 . S
C2562 H2587 0.950 . S
C2563 C2562 1.349 . S
C2563 C2579 1.349 . S
C2564 C2562 1.327 . S
C2564 C2583 1.429 . S
C2564 H2588 0.950 . S
C2565 C2582 1.574 . S
C2565 C2584 1.368 . S
C2565 H2589 0.949 . S
H2566 C2570 0.949 . S
C2567 C2568 1.349 . S
C2567 C2569 1.327 . S
C2567 H2590 0.950 . S
C2568 C2567 1.349 . S
C2568 C2580 1.349 . S
C2569 C2567 1.327 . S
C2569 C2585 1.429 . S
C2569 H2591 0.950 . S
C2570 H2566 0.949 . S
C2570 C2578 1.574 . S
C2570 C2586 1.368 . S
H2571 C2579 0.950 . S
H2572 C2577 0.950 . S
H2573 C2578 0.949 . S
H2574 C2580 0.950 . S
H2575 C2581 0.950 . S
H2576 C2582 0.949 . S
C2577 H2572 0.950 . S
C2577 C2579 1.327 . S
C2577 C2583 1.429 . S
C2578 C2570 1.574 . S
C2578 H2573 0.949 . S
C2578 C2584 1.368 . S
C2579 C2563 1.349 . S
C2579 H2571 0.950 . S
C2579 C2577 1.327 . S
C2580 C2568 1.349 . S
C2580 H2574 0.950 . S
C2580 C2581 1.327 . S
C2581 H2575 0.950 . S
C2581 C2580 1.327 . S
C2581 C2585 1.429 . S
C2582 C2565 1.574 . S
C2582 H2576 0.949 . S
C2582 C2586 1.368 . S
C2583 C2564 1.429 . S
C2583 C2577 1.429 . S
C2583 C2584 1.523 . S
C2584 C2565 1.368 . S
C2584 C2578 1.368 . S
C2584 C2583 1.523 . S
C2585 C2569 1.429 . S
C2585 C2581 1.429 . S
C2585 C2586 1.523 1_556 S
C2586 C2570 1.368 . S
C2586 C2582 1.368 . S
C2586 C2585 1.523 1_554 S
H2587 C2562 0.950 . S
H2588 C2564 0.950 . S
H2589 C2565 0.949 . S
H2590 C2567 0.950 . S
H2591 C2569 0.950 . S
C2592 C2593 1.349 . S
C2592 C2594 1.327 . S
C2592 H2617 0.950 . S
C2593 C2592 1.349 . S
C2593 C2609 1.349 . S
C2594 C2592 1.327 . S
C2594 C2613 1.429 . S
C2594 H2618 0.950 . S
C2595 C2612 1.574 . S
C2595 C2614 1.368 . S
C2595 H2619 0.949 . S
H2596 C2600 0.949 . S
C2597 C2598 1.349 . S
C2597 C2599 1.327 . S
C2597 H2620 0.950 . S
C2598 C2597 1.349 . S
C2598 C2610 1.349 . S
C2599 C2597 1.327 . S
C2599 C2615 1.429 . S
C2599 H2621 0.950 . S
C2600 H2596 0.949 . S
C2600 C2608 1.574 . S
C2600 C2616 1.368 . S
H2601 C2609 0.950 . S
H2602 C2607 0.950 . S
H2603 C2608 0.949 . S
H2604 C2610 0.950 . S
H2605 C2611 0.950 . S
H2606 C2612 0.949 . S
C2607 H2602 0.950 . S
C2607 C2609 1.327 . S
C2607 C2613 1.429 . S
C2608 C2600 1.574 . S
C2608 H2603 0.949 . S
C2608 C2614 1.368 . S
C2609 C2593 1.349 . S
C2609 H2601 0.950 . S
C2609 C2607 1.327 . S
C2610 C2598 1.349 . S
C2610 H2604 0.950 . S
C2610 C2611 1.327 . S
C2611 H2605 0.950 . S
C2611 C2610 1.327 . S
C2611 C2615 1.429 . S
C2612 C2595 1.574 . S
C2612 H2606 0.949 . S
C2612 C2616 1.368 . S
C2613 C2594 1.429 . S
C2613 C2607 1.429 . S
C2613 C2614 1.523 . S
C2614 C2595 1.368 . S
C2614 C2608 1.368 . S
C2614 C2613 1.523 . S
C2615 C2599 1.429 . S
C2615 C2611 1.429 . S
C2615 C2616 1.523 . S
C2616 C2600 1.368 . S
C2616 C2612 1.368 . S
C2616 C2615 1.523 . S
H2617 C2592 0.950 . S
H2618 C2594 0.950 . S
H2619 C2595 0.949 . S
H2620 C2597 0.950 . S
H2621 C2599 0.950 . S
C2622 C2623 1.349 . S
C2622 C2624 1.327 . S
C2622 H2647 0.950 . S
C2623 C2622 1.349 . S
C2623 C2639 1.349 . S
C2624 C2622 1.327 . S
C2624 C2643 1.429 . S
C2624 H2648 0.950 . S
C2625 C2642 1.574 . S
C2625 C2644 1.368 . S
C2625 H2649 0.949 . S
H2626 C2630 0.949 . S
C2627 C2628 1.349 . S
C2627 C2629 1.327 . S
C2627 H2650 0.950 . S
C2628 C2627 1.349 . S
C2628 C2640 1.349 . S
C2629 C2627 1.327 . S
C2629 C2645 1.429 . S
C2629 H2651 0.950 . S
C2630 H2626 0.949 . S
C2630 C2638 1.574 . S
C2630 C2646 1.368 . S
H2631 C2639 0.950 . S
H2632 C2637 0.950 . S
H2633 C2638 0.949 . S
H2634 C2640 0.950 . S
H2635 C2641 0.950 . S
H2636 C2642 0.949 . S
C2637 H2632 0.950 . S
C2637 C2639 1.327 . S
C2637 C2643 1.429 . S
C2638 C2630 1.574 . S
C2638 H2633 0.949 . S
C2638 C2644 1.368 . S
C2639 C2623 1.349 . S
C2639 H2631 0.950 . S
C2639 C2637 1.327 . S
C2640 C2628 1.349 . S
C2640 H2634 0.950 . S
C2640 C2641 1.327 . S
C2641 H2635 0.950 . S
C2641 C2640 1.327 . S
C2641 C2645 1.429 . S
C2642 C2625 1.574 . S
C2642 H2636 0.949 . S
C2642 C2646 1.368 . S
C2643 C2624 1.429 . S
C2643 C2637 1.429 . S
C2643 C2644 1.523 . S
C2644 C2625 1.368 . S
C2644 C2638 1.368 . S
C2644 C2643 1.523 . S
C2645 C2629 1.429 . S
C2645 C2641 1.429 . S
C2645 C2646 1.523 . S
C2646 C2630 1.368 . S
C2646 C2642 1.368 . S
C2646 C2645 1.523 . S
H2647 C2622 0.950 . S
H2648 C2624 0.950 . S
H2649 C2625 0.949 . S
H2650 C2627 0.950 . S
H2651 C2629 0.950 . S
C2652 C2653 1.349 . S
C2652 C2654 1.327 . S
C2652 H2677 0.950 . S
C2653 C2652 1.349 . S
C2653 C2669 1.349 . S
C2654 C2652 1.327 . S
C2654 C2673 1.429 . S
C2654 H2678 0.950 . S
C2655 C2672 1.574 . S
C2655 C2674 1.368 . S
C2655 H2679 0.949 . S
H2656 C2660 0.949 . S
C2657 C2658 1.349 . S
C2657 C2659 1.327 . S
C2657 H2680 0.950 . S
C2658 C2657 1.349 . S
C2658 C2670 1.349 . S
C2659 C2657 1.327 . S
C2659 C2675 1.429 . S
C2659 H2681 0.950 . S
C2660 H2656 0.949 . S
C2660 C2668 1.574 . S
C2660 C2676 1.368 . S
H2661 C2669 0.950 . S
H2662 C2667 0.950 . S
H2663 C2668 0.949 . S
H2664 C2670 0.950 . S
H2665 C2671 0.950 . S
H2666 C2672 0.949 . S
C2667 H2662 0.950 . S
C2667 C2669 1.327 . S
C2667 C2673 1.429 . S
C2668 C2660 1.574 . S
C2668 H2663 0.949 . S
C2668 C2674 1.368 . S
C2669 C2653 1.349 . S
C2669 H2661 0.950 . S
C2669 C2667 1.327 . S
C2670 C2658 1.349 . S
C2670 H2664 0.950 . S
C2670 C2671 1.327 . S
C2671 H2665 0.950 . S
C2671 C2670 1.327 . S
C2671 C2675 1.429 . S
C2672 C2655 1.574 . S
C2672 H2666 0.949 . S
C2672 C2676 1.368 . S
C2673 C2654 1.429 . S
C2673 C2667 1.429 . S
C2673 C2674 1.523 . S
C2674 C2655 1.368 . S
C2674 C2668 1.368 . S
C2674 C2673 1.523 . S
C2675 C2659 1.429 . S
C2675 C2671 1.429 . S
C2675 C2676 1.523 . S
C2676 C2660 1.368 . S
C2676 C2672 1.368 . S
C2676 C2675 1.523 . S
H2677 C2652 0.950 . S
H2678 C2654 0.950 . S
H2679 C2655 0.949 . S
H2680 C2657 0.950 . S
H2681 C2659 0.950 . S
C2682 C2683 1.349 . S
C2682 C2684 1.327 . S
C2682 H2707 0.950 . S
C2683 C2682 1.349 . S
C2683 C2699 1.349 . S
C2684 C2682 1.327 . S
C2684 C2703 1.429 . S
C2684 H2708 0.950 . S
C2685 C2702 1.574 . S
C2685 C2704 1.368 . S
C2685 H2709 0.949 . S
H2686 C2690 0.949 . S
C2687 C2688 1.349 . S
C2687 C2689 1.327 . S
C2687 H2710 0.950 . S
C2688 C2687 1.349 . S
C2688 C2700 1.349 . S
C2689 C2687 1.327 . S
C2689 C2705 1.429 . S
C2689 H2711 0.950 . S
C2690 H2686 0.949 . S
C2690 C2698 1.574 . S
C2690 C2706 1.368 . S
H2691 C2699 0.950 . S
H2692 C2697 0.950 . S
H2693 C2698 0.949 . S
H2694 C2700 0.950 . S
H2695 C2701 0.950 . S
H2696 C2702 0.949 . S
C2697 H2692 0.950 . S
C2697 C2699 1.327 . S
C2697 C2703 1.429 . S
C2698 C2690 1.574 . S
C2698 H2693 0.949 . S
C2698 C2704 1.368 . S
C2699 C2683 1.349 . S
C2699 H2691 0.950 . S
C2699 C2697 1.327 . S
C2700 C2688 1.349 . S
C2700 H2694 0.950 . S
C2700 C2701 1.327 . S
C2701 H2695 0.950 . S
C2701 C2700 1.327 . S
C2701 C2705 1.429 . S
C2702 C2685 1.574 . S
C2702 H2696 0.949 . S
C2702 C2706 1.368 . S
C2703 C2684 1.429 . S
C2703 C2697 1.429 . S
C2703 C2704 1.523 . S
C2704 C2685 1.368 . S
C2704 C2698 1.368 . S
C2704 C2703 1.523 . S
C2705 C2689 1.429 . S
C2705 C2701 1.429 . S
C2705 C2706 1.523 . S
C2706 C2690 1.368 . S
C2706 C2702 1.368 . S
C2706 C2705 1.523 . S
H2707 C2682 0.950 . S
H2708 C2684 0.950 . S
H2709 C2685 0.949 . S
H2710 C2687 0.950 . S
H2711 C2689 0.950 . S
C2712 C2713 1.349 . S
C2712 C2714 1.327 . S
C2712 H2737 0.950 . S
C2713 C2712 1.349 . S
C2713 C2729 1.349 . S
C2714 C2712 1.327 . S
C2714 C2733 1.429 . S
C2714 H2738 0.950 . S
C2715 C2732 1.574 . S
C2715 C2734 1.368 . S
C2715 H2739 0.949 . S
H2716 C2720 0.949 . S
C2717 C2718 1.349 . S
C2717 C2719 1.327 . S
C2717 H2740 0.950 . S
C2718 C2717 1.349 . S
C2718 C2730 1.349 . S
C2719 C2717 1.327 . S
C2719 C2735 1.429 . S
C2719 H2741 0.950 . S
C2720 H2716 0.949 . S
C2720 C2728 1.574 . S
C2720 C2736 1.368 . S
H2721 C2729 0.950 . S
H2722 C2727 0.950 . S
H2723 C2728 0.949 . S
H2724 C2730 0.950 . S
H2725 C2731 0.950 . S
H2726 C2732 0.949 . S
C2727 H2722 0.950 . S
C2727 C2729 1.327 . S
C2727 C2733 1.429 . S
C2728 C2720 1.574 . S
C2728 H2723 0.949 . S
C2728 C2734 1.368 . S
C2729 C2713 1.349 . S
C2729 H2721 0.950 . S
C2729 C2727 1.327 . S
C2730 C2718 1.349 . S
C2730 H2724 0.950 . S
C2730 C2731 1.327 . S
C2731 H2725 0.950 . S
C2731 C2730 1.327 . S
C2731 C2735 1.429 . S
C2732 C2715 1.574 . S
C2732 H2726 0.949 . S
C2732 C2736 1.368 . S
C2733 C2714 1.429 . S
C2733 C2727 1.429 . S
C2733 C2734 1.523 . S
C2734 C2715 1.368 . S
C2734 C2728 1.368 . S
C2734 C2733 1.523 . S
C2735 C2719 1.429 . S
C2735 C2731 1.429 . S
C2735 C2736 1.523 . S
C2736 C2720 1.368 . S
C2736 C2732 1.368 . S
C2736 C2735 1.523 . S
H2737 C2712 0.950 . S
H2738 C2714 0.950 . S
H2739 C2715 0.949 . S
H2740 C2717 0.950 . S
H2741 C2719 0.950 . S
C2742 C2743 1.349 . S
C2742 C2744 1.327 . S
C2742 H2767 0.950 . S
C2743 C2742 1.349 . S
C2743 C2759 1.349 . S
C2744 C2742 1.327 . S
C2744 C2763 1.429 . S
C2744 H2768 0.950 . S
C2745 C2762 1.574 . S
C2745 C2764 1.368 . S
C2745 H2769 0.949 . S
H2746 C2750 0.949 . S
C2747 C2748 1.349 . S
C2747 C2749 1.327 . S
C2747 H2770 0.950 . S
C2748 C2747 1.349 . S
C2748 C2760 1.349 . S
C2749 C2747 1.327 . S
C2749 C2765 1.429 . S
C2749 H2771 0.950 . S
C2750 H2746 0.949 . S
C2750 C2758 1.574 . S
C2750 C2766 1.368 . S
H2751 C2759 0.950 . S
H2752 C2757 0.950 . S
H2753 C2758 0.949 . S
H2754 C2760 0.950 . S
H2755 C2761 0.950 . S
H2756 C2762 0.949 . S
C2757 H2752 0.950 . S
C2757 C2759 1.327 . S
C2757 C2763 1.429 . S
C2758 C2750 1.574 . S
C2758 H2753 0.949 . S
C2758 C2764 1.368 . S
C2759 C2743 1.349 . S
C2759 H2751 0.950 . S
C2759 C2757 1.327 . S
C2760 C2748 1.349 . S
C2760 H2754 0.950 . S
C2760 C2761 1.327 . S
C2761 H2755 0.950 . S
C2761 C2760 1.327 . S
C2761 C2765 1.429 . S
C2762 C2745 1.574 . S
C2762 H2756 0.949 . S
C2762 C2766 1.368 . S
C2763 C2744 1.429 . S
C2763 C2757 1.429 . S
C2763 C2764 1.523 . S
C2764 C2745 1.368 . S
C2764 C2758 1.368 . S
C2764 C2763 1.523 . S
C2765 C2749 1.429 . S
C2765 C2761 1.429 . S
C2765 C2766 1.523 . S
C2766 C2750 1.368 . S
C2766 C2762 1.368 . S
C2766 C2765 1.523 . S
H2767 C2742 0.950 . S
H2768 C2744 0.950 . S
H2769 C2745 0.949 . S
H2770 C2747 0.950 . S
H2771 C2749 0.950 . S
C2772 C2773 1.349 . S
C2772 C2774 1.327 . S
C2772 H2797 0.950 . S
C2773 C2772 1.349 . S
C2773 C2789 1.349 . S
C2774 C2772 1.327 . S
C2774 C2793 1.429 . S
C2774 H2798 0.950 . S
C2775 C2792 1.574 . S
C2775 C2794 1.368 . S
C2775 H2799 0.949 . S
H2776 C2780 0.949 . S
C2777 C2778 1.349 . S
C2777 C2779 1.327 . S
C2777 H2800 0.950 . S
C2778 C2777 1.349 . S
C2778 C2790 1.349 . S
C2779 C2777 1.327 . S
C2779 C2795 1.429 . S
C2779 H2801 0.950 . S
C2780 H2776 0.949 . S
C2780 C2788 1.574 . S
C2780 C2796 1.368 . S
H2781 C2789 0.950 . S
H2782 C2787 0.950 . S
H2783 C2788 0.949 . S
H2784 C2790 0.950 . S
H2785 C2791 0.950 . S
H2786 C2792 0.949 . S
C2787 H2782 0.950 . S
C2787 C2789 1.327 . S
C2787 C2793 1.429 . S
C2788 C2780 1.574 . S
C2788 H2783 0.949 . S
C2788 C2794 1.368 . S
C2789 C2773 1.349 . S
C2789 H2781 0.950 . S
C2789 C2787 1.327 . S
C2790 C2778 1.349 . S
C2790 H2784 0.950 . S
C2790 C2791 1.327 . S
C2791 H2785 0.950 . S
C2791 C2790 1.327 . S
C2791 C2795 1.429 . S
C2792 C2775 1.574 . S
C2792 H2786 0.949 . S
C2792 C2796 1.368 . S
C2793 C2774 1.429 . S
C2793 C2787 1.429 . S
C2793 C2794 1.523 . S
C2794 C2775 1.368 . S
C2794 C2788 1.368 . S
C2794 C2793 1.523 . S
C2795 C2779 1.429 . S
C2795 C2791 1.429 . S
C2795 C2796 1.523 . S
C2796 C2780 1.368 . S
C2796 C2792 1.368 . S
C2796 C2795 1.523 . S
H2797 C2772 0.950 . S
H2798 C2774 0.950 . S
H2799 C2775 0.949 . S
H2800 C2777 0.950 . S
H2801 C2779 0.950 . S
C2802 C2803 1.349 . S
C2802 C2804 1.327 . S
C2802 H2827 0.950 . S
C2803 C2802 1.349 . S
C2803 C2819 1.349 . S
C2804 C2802 1.327 . S
C2804 C2823 1.429 . S
C2804 H2828 0.950 . S
C2805 C2822 1.574 . S
C2805 C2824 1.368 . S
C2805 H2829 0.949 . S
H2806 C2810 0.949 . S
C2807 C2808 1.349 . S
C2807 C2809 1.327 . S
C2807 H2830 0.950 . S
C2808 C2807 1.349 . S
C2808 C2820 1.349 . S
C2809 C2807 1.327 . S
C2809 C2825 1.429 . S
C2809 H2831 0.950 . S
C2810 H2806 0.949 . S
C2810 C2818 1.574 . S
C2810 C2826 1.368 . S
H2811 C2819 0.950 . S
H2812 C2817 0.950 . S
H2813 C2818 0.949 . S
H2814 C2820 0.950 . S
H2815 C2821 0.950 . S
H2816 C2822 0.949 . S
C2817 H2812 0.950 . S
C2817 C2819 1.327 . S
C2817 C2823 1.429 . S
C2818 C2810 1.574 . S
C2818 H2813 0.949 . S
C2818 C2824 1.368 . S
C2819 C2803 1.349 . S
C2819 H2811 0.950 . S
C2819 C2817 1.327 . S
C2820 C2808 1.349 . S
C2820 H2814 0.950 . S
C2820 C2821 1.327 . S
C2821 H2815 0.950 . S
C2821 C2820 1.327 . S
C2821 C2825 1.429 . S
C2822 C2805 1.574 . S
C2822 H2816 0.949 . S
C2822 C2826 1.368 . S
C2823 C2804 1.429 . S
C2823 C2817 1.429 . S
C2823 C2824 1.523 . S
C2824 C2805 1.368 . S
C2824 C2818 1.368 . S
C2824 C2823 1.523 . S
C2825 C2809 1.429 . S
C2825 C2821 1.429 . S
C2825 C2826 1.523 . S
C2826 C2810 1.368 . S
C2826 C2822 1.368 . S
C2826 C2825 1.523 . S
H2827 C2802 0.950 . S
H2828 C2804 0.950 . S
H2829 C2805 0.949 . S
H2830 C2807 0.950 . S
H2831 C2809 0.950 . S
C2832 C2833 1.349 . S
C2832 C2834 1.327 . S
C2832 H2857 0.950 . S
C2833 C2832 1.349 . S
C2833 C2849 1.349 . S
C2834 C2832 1.327 . S
C2834 C2853 1.429 . S
C2834 H2858 0.950 . S
C2835 C2852 1.574 . S
C2835 C2854 1.368 . S
C2835 H2859 0.949 . S
H2836 C2840 0.949 . S
C2837 C2838 1.349 . S
C2837 C2839 1.327 . S
C2837 H2860 0.950 . S
C2838 C2837 1.349 . S
C2838 C2850 1.349 . S
C2839 C2837 1.327 . S
C2839 C2855 1.429 . S
C2839 H2861 0.950 . S
C2840 H2836 0.949 . S
C2840 C2848 1.574 . S
C2840 C2856 1.368 . S
H2841 C2849 0.950 . S
H2842 C2847 0.950 . S
H2843 C2848 0.949 . S
H2844 C2850 0.950 . S
H2845 C2851 0.950 . S
H2846 C2852 0.949 . S
C2847 H2842 0.950 . S
C2847 C2849 1.327 . S
C2847 C2853 1.429 . S
C2848 C2840 1.574 . S
C2848 H2843 0.949 . S
C2848 C2854 1.368 . S
C2849 C2833 1.349 . S
C2849 H2841 0.950 . S
C2849 C2847 1.327 . S
C2850 C2838 1.349 . S
C2850 H2844 0.950 . S
C2850 C2851 1.327 . S
C2851 H2845 0.950 . S
C2851 C2850 1.327 . S
C2851 C2855 1.429 . S
C2852 C2835 1.574 . S
C2852 H2846 0.949 . S
C2852 C2856 1.368 . S
C2853 C2834 1.429 . S
C2853 C2847 1.429 . S
C2853 C2854 1.523 . S
C2854 C2835 1.368 . S
C2854 C2848 1.368 . S
C2854 C2853 1.523 . S
C2855 C2839 1.429 . S
C2855 C2851 1.429 . S
C2855 C2856 1.523 . S
C2856 C2840 1.368 . S
C2856 C2852 1.368 . S
C2856 C2855 1.523 . S
H2857 C2832 0.950 . S
H2858 C2834 0.950 . S
H2859 C2835 0.949 . S
H2860 C2837 0.950 . S
H2861 C2839 0.950 . S
C2862 C2863 1.349 . S
C2862 C2864 1.327 . S
C2862 H2887 0.950 . S
C2863 C2862 1.349 . S
C2863 C2879 1.349 . S
C2864 C2862 1.327 . S
C2864 C2883 1.429 . S
C2864 H2888 0.950 . S
C2865 C2882 1.574 . S
C2865 C2884 1.368 . S
C2865 H2889 0.949 . S
H2866 C2870 0.949 . S
C2867 C2868 1.349 . S
C2867 C2869 1.327 . S
C2867 H2890 0.950 . S
C2868 C2867 1.349 . S
C2868 C2880 1.349 . S
C2869 C2867 1.327 . S
C2869 C2885 1.429 . S
C2869 H2891 0.950 . S
C2870 H2866 0.949 . S
C2870 C2878 1.574 . S
C2870 C2886 1.368 . S
H2871 C2879 0.950 . S
H2872 C2877 0.950 . S
H2873 C2878 0.949 . S
H2874 C2880 0.950 . S
H2875 C2881 0.950 . S
H2876 C2882 0.949 . S
C2877 H2872 0.950 . S
C2877 C2879 1.327 . S
C2877 C2883 1.429 . S
C2878 C2870 1.574 . S
C2878 H2873 0.949 . S
C2878 C2884 1.368 . S
C2879 C2863 1.349 . S
C2879 H2871 0.950 . S
C2879 C2877 1.327 . S
C2880 C2868 1.349 . S
C2880 H2874 0.950 . S
C2880 C2881 1.327 . S
C2881 H2875 0.950 . S
C2881 C2880 1.327 . S
C2881 C2885 1.429 . S
C2882 C2865 1.574 . S
C2882 H2876 0.949 . S
C2882 C2886 1.368 . S
C2883 C2864 1.429 . S
C2883 C2877 1.429 . S
C2883 C2884 1.523 . S
C2884 C2865 1.368 . S
C2884 C2878 1.368 . S
C2884 C2883 1.523 . S
C2885 C2869 1.429 . S
C2885 C2881 1.429 . S
C2885 C2886 1.523 . S
C2886 C2870 1.368 . S
C2886 C2882 1.368 . S
C2886 C2885 1.523 . S
H2887 C2862 0.950 . S
H2888 C2864 0.950 . S
H2889 C2865 0.949 . S
H2890 C2867 0.950 . S
H2891 C2869 0.950 . S
C2892 C2893 1.349 . S
C2892 C2894 1.327 . S
C2892 H2917 0.950 . S
C2893 C2892 1.349 . S
C2893 C2909 1.349 . S
C2894 C2892 1.327 . S
C2894 C2913 1.429 . S
C2894 H2918 0.950 . S
C2895 C2912 1.574 . S
C2895 C2914 1.368 . S
C2895 H2919 0.949 . S
H2896 C2900 0.949 . S
C2897 C2898 1.349 . S
C2897 C2899 1.327 . S
C2897 H2920 0.950 . S
C2898 C2897 1.349 . S
C2898 C2910 1.349 . S
C2899 C2897 1.327 . S
C2899 C2915 1.429 . S
C2899 H2921 0.950 . S
C2900 H2896 0.949 . S
C2900 C2908 1.574 . S
C2900 C2916 1.368 . S
H2901 C2909 0.950 . S
H2902 C2907 0.950 . S
H2903 C2908 0.949 . S
H2904 C2910 0.950 . S
H2905 C2911 0.950 . S
H2906 C2912 0.949 . S
C2907 H2902 0.950 . S
C2907 C2909 1.327 . S
C2907 C2913 1.429 . S
C2908 C2900 1.574 . S
C2908 H2903 0.949 . S
C2908 C2914 1.368 . S
C2909 C2893 1.349 . S
C2909 H2901 0.950 . S
C2909 C2907 1.327 . S
C2910 C2898 1.349 . S
C2910 H2904 0.950 . S
C2910 C2911 1.327 . S
C2911 H2905 0.950 . S
C2911 C2910 1.327 . S
C2911 C2915 1.429 . S
C2912 C2895 1.574 . S
C2912 H2906 0.949 . S
C2912 C2916 1.368 . S
C2913 C2894 1.429 . S
C2913 C2907 1.429 . S
C2913 C2914 1.523 . S
C2914 C2895 1.368 . S
C2914 C2908 1.368 . S
C2914 C2913 1.523 . S
C2915 C2899 1.429 . S
C2915 C2911 1.429 . S
C2915 C2916 1.523 . S
C2916 C2900 1.368 . S
C2916 C2912 1.368 . S
C2916 C2915 1.523 . S
H2917 C2892 0.950 . S
H2918 C2894 0.950 . S
H2919 C2895 0.949 . S
H2920 C2897 0.950 . S
H2921 C2899 0.950 . S
C2922 C2923 1.349 . S
C2922 C2924 1.327 . S
C2922 H2947 0.950 . S
C2923 C2922 1.349 . S
C2923 C2939 1.349 . S
C2924 C2922 1.327 . S
C2924 C2943 1.429 . S
C2924 H2948 0.950 . S
C2925 C2942 1.574 . S
C2925 C2944 1.368 . S
C2925 H2949 0.949 . S
H2926 C2930 0.949 . S
C2927 C2928 1.349 . S
C2927 C2929 1.327 . S
C2927 H2950 0.950 . S
C2928 C2927 1.349 . S
C2928 C2940 1.349 . S
C2929 C2927 1.327 . S
C2929 C2945 1.429 . S
C2929 H2951 0.950 . S
C2930 H2926 0.949 . S
C2930 C2938 1.574 . S
C2930 C2946 1.368 . S
H2931 C2939 0.950 . S
H2932 C2937 0.950 . S
H2933 C2938 0.949 . S
H2934 C2940 0.950 . S
H2935 C2941 0.950 . S
H2936 C2942 0.949 . S
C2937 H2932 0.950 . S
C2937 C2939 1.327 . S
C2937 C2943 1.429 . S
C2938 C2930 1.574 . S
C2938 H2933 0.949 . S
C2938 C2944 1.368 . S
C2939 C2923 1.349 . S
C2939 H2931 0.950 . S
C2939 C2937 1.327 . S
C2940 C2928 1.349 . S
C2940 H2934 0.950 . S
C2940 C2941 1.327 . S
C2941 H2935 0.950 . S
C2941 C2940 1.327 . S
C2941 C2945 1.429 . S
C2942 C2925 1.574 . S
C2942 H2936 0.949 . S
C2942 C2946 1.368 . S
C2943 C2924 1.429 . S
C2943 C2937 1.429 . S
C2943 C2944 1.523 . S
C2944 C2925 1.368 . S
C2944 C2938 1.368 . S
C2944 C2943 1.523 . S
C2945 C2929 1.429 . S
C2945 C2941 1.429 . S
C2945 C2946 1.523 . S
C2946 C2930 1.368 . S
C2946 C2942 1.368 . S
C2946 C2945 1.523 . S
H2947 C2922 0.950 . S
H2948 C2924 0.950 . S
H2949 C2925 0.949 . S
H2950 C2927 0.950 . S
H2951 C2929 0.950 . S
C2952 C2953 1.349 . S
C2952 C2954 1.327 . S
C2952 H2977 0.950 . S
C2953 C2952 1.349 . S
C2953 C2969 1.349 . S
C2954 C2952 1.327 . S
C2954 C2973 1.429 . S
C2954 H2978 0.950 . S
C2955 C2972 1.574 . S
C2955 C2974 1.368 . S
C2955 H2979 0.949 . S
H2956 C2960 0.949 . S
C2957 C2958 1.349 . S
C2957 C2959 1.327 . S
C2957 H2980 0.950 . S
C2958 C2957 1.349 . S
C2958 C2970 1.349 . S
C2959 C2957 1.327 . S
C2959 C2975 1.429 . S
C2959 H2981 0.950 . S
C2960 H2956 0.949 . S
C2960 C2968 1.574 . S
C2960 C2976 1.368 . S
H2961 C2969 0.950 . S
H2962 C2967 0.950 . S
H2963 C2968 0.949 . S
H2964 C2970 0.950 . S
H2965 C2971 0.950 . S
H2966 C2972 0.949 . S
C2967 H2962 0.950 . S
C2967 C2969 1.327 . S
C2967 C2973 1.429 . S
C2968 C2960 1.574 . S
C2968 H2963 0.949 . S
C2968 C2974 1.368 . S
C2969 C2953 1.349 . S
C2969 H2961 0.950 . S
C2969 C2967 1.327 . S
C2970 C2958 1.349 . S
C2970 H2964 0.950 . S
C2970 C2971 1.327 . S
C2971 H2965 0.950 . S
C2971 C2970 1.327 . S
C2971 C2975 1.429 . S
C2972 C2955 1.574 . S
C2972 H2966 0.949 . S
C2972 C2976 1.368 . S
C2973 C2954 1.429 . S
C2973 C2967 1.429 . S
C2973 C2974 1.523 . S
C2974 C2955 1.368 . S
C2974 C2968 1.368 . S
C2974 C2973 1.523 . S
C2975 C2959 1.429 . S
C2975 C2971 1.429 . S
C2975 C2976 1.523 . S
C2976 C2960 1.368 . S
C2976 C2972 1.368 . S
C2976 C2975 1.523 . S
H2977 C2952 0.950 . S
H2978 C2954 0.950 . S
H2979 C2955 0.949 . S
H2980 C2957 0.950 . S
H2981 C2959 0.950 . S
C2982 C2983 1.349 . S
C2982 C2984 1.327 . S
C2982 H3007 0.950 . S
C2983 C2982 1.349 . S
C2983 C2999 1.349 . S
C2984 C2982 1.327 . S
C2984 C3003 1.429 . S
C2984 H3008 0.950 . S
C2985 C3002 1.574 . S
C2985 C3004 1.368 . S
C2985 H3009 0.949 . S
H2986 C2990 0.949 . S
C2987 C2988 1.349 . S
C2987 C2989 1.327 . S
C2987 H3010 0.950 . S
C2988 C2987 1.349 . S
C2988 C3000 1.349 . S
C2989 C2987 1.327 . S
C2989 C3005 1.429 . S
C2989 H3011 0.950 . S
C2990 H2986 0.949 . S
C2990 C2998 1.574 . S
C2990 C3006 1.368 . S
H2991 C2999 0.950 . S
H2992 C2997 0.950 . S
H2993 C2998 0.949 . S
H2994 C3000 0.950 . S
H2995 C3001 0.950 . S
H2996 C3002 0.949 . S
C2997 H2992 0.950 . S
C2997 C2999 1.327 . S
C2997 C3003 1.429 . S
C2998 C2990 1.574 . S
C2998 H2993 0.949 . S
C2998 C3004 1.368 . S
C2999 C2983 1.349 . S
C2999 H2991 0.950 . S
C2999 C2997 1.327 . S
C3000 C2988 1.349 . S
C3000 H2994 0.950 . S
C3000 C3001 1.327 . S
C3001 H2995 0.950 . S
C3001 C3000 1.327 . S
C3001 C3005 1.429 . S
C3002 C2985 1.574 . S
C3002 H2996 0.949 . S
C3002 C3006 1.368 . S
C3003 C2984 1.429 . S
C3003 C2997 1.429 . S
C3003 C3004 1.523 . S
C3004 C2985 1.368 . S
C3004 C2998 1.368 . S
C3004 C3003 1.523 . S
C3005 C2989 1.429 . S
C3005 C3001 1.429 . S
C3005 C3006 1.523 . S
C3006 C2990 1.368 . S
C3006 C3002 1.368 . S
C3006 C3005 1.523 . S
H3007 C2982 0.950 . S
H3008 C2984 0.950 . S
H3009 C2985 0.949 . S
H3010 C2987 0.950 . S
H3011 C2989 0.950 . S
C3012 C3013 1.349 . S
C3012 C3014 1.327 . S
C3012 H3037 0.950 . S
C3013 C3012 1.349 . S
C3013 C3029 1.349 . S
C3014 C3012 1.327 . S
C3014 C3033 1.429 . S
C3014 H3038 0.950 . S
C3015 C3032 1.574 . S
C3015 C3034 1.368 . S
C3015 H3039 0.949 . S
H3016 C3020 0.949 . S
C3017 C3018 1.349 . S
C3017 C3019 1.327 . S
C3017 H3040 0.950 . S
C3018 C3017 1.349 . S
C3018 C3030 1.349 . S
C3019 C3017 1.327 . S
C3019 C3035 1.429 . S
C3019 H3041 0.950 . S
C3020 H3016 0.949 . S
C3020 C3028 1.574 . S
C3020 C3036 1.368 . S
H3021 C3029 0.950 . S
H3022 C3027 0.950 . S
H3023 C3028 0.949 . S
H3024 C3030 0.950 . S
H3025 C3031 0.950 . S
H3026 C3032 0.949 . S
C3027 H3022 0.950 . S
C3027 C3029 1.327 . S
C3027 C3033 1.429 . S
C3028 C3020 1.574 . S
C3028 H3023 0.949 . S
C3028 C3034 1.368 . S
C3029 C3013 1.349 . S
C3029 H3021 0.950 . S
C3029 C3027 1.327 . S
C3030 C3018 1.349 . S
C3030 H3024 0.950 . S
C3030 C3031 1.327 . S
C3031 H3025 0.950 . S
C3031 C3030 1.327 . S
C3031 C3035 1.429 . S
C3032 C3015 1.574 . S
C3032 H3026 0.949 . S
C3032 C3036 1.368 . S
C3033 C3014 1.429 . S
C3033 C3027 1.429 . S
C3033 C3034 1.523 . S
C3034 C3015 1.368 . S
C3034 C3028 1.368 . S
C3034 C3033 1.523 . S
C3035 C3019 1.429 . S
C3035 C3031 1.429 . S
C3035 C3036 1.523 . S
C3036 C3020 1.368 . S
C3036 C3032 1.368 . S
C3036 C3035 1.523 . S
H3037 C3012 0.950 . S
H3038 C3014 0.950 . S
H3039 C3015 0.949 . S
H3040 C3017 0.950 . S
H3041 C3019 0.950 . S
C3042 C3043 1.349 . S
C3042 C3044 1.327 . S
C3042 H3067 0.950 . S
C3043 C3042 1.349 . S
C3043 C3059 1.349 . S
C3044 C3042 1.327 . S
C3044 C3063 1.429 . S
C3044 H3068 0.950 . S
C3045 C3062 1.574 . S
C3045 C3064 1.368 . S
C3045 H3069 0.949 . S
H3046 C3050 0.949 . S
C3047 C3048 1.349 . S
C3047 C3049 1.327 . S
C3047 H3070 0.950 . S
C3048 C3047 1.349 . S
C3048 C3060 1.349 . S
C3049 C3047 1.327 . S
C3049 C3065 1.429 . S
C3049 H3071 0.950 . S
C3050 H3046 0.949 . S
C3050 C3058 1.574 . S
C3050 C3066 1.368 . S
H3051 C3059 0.950 . S
H3052 C3057 0.950 . S
H3053 C3058 0.949 . S
H3054 C3060 0.950 . S
H3055 C3061 0.950 . S
H3056 C3062 0.949 . S
C3057 H3052 0.950 . S
C3057 C3059 1.327 . S
C3057 C3063 1.429 . S
C3058 C3050 1.574 . S
C3058 H3053 0.949 . S
C3058 C3064 1.368 . S
C3059 C3043 1.349 . S
C3059 H3051 0.950 . S
C3059 C3057 1.327 . S
C3060 C3048 1.349 . S
C3060 H3054 0.950 . S
C3060 C3061 1.327 . S
C3061 H3055 0.950 . S
C3061 C3060 1.327 . S
C3061 C3065 1.429 . S
C3062 C3045 1.574 . S
C3062 H3056 0.949 . S
C3062 C3066 1.368 . S
C3063 C3044 1.429 . S
C3063 C3057 1.429 . S
C3063 C3064 1.523 . S
C3064 C3045 1.368 . S
C3064 C3058 1.368 . S
C3064 C3063 1.523 . S
C3065 C3049 1.429 . S
C3065 C3061 1.429 . S
C3065 C3066 1.523 . S
C3066 C3050 1.368 . S
C3066 C3062 1.368 . S
C3066 C3065 1.523 . S
H3067 C3042 0.950 . S
H3068 C3044 0.950 . S
H3069 C3045 0.949 . S
H3070 C3047 0.950 . S
H3071 C3049 0.950 . S
C1153 C219 1.443 . S
C1158 C3 1.443 . S
C1183 C39 1.443 . S
C1188 C255 1.443 . S
C1213 C147 1.443 . S
C1218 C75 1.443 . S
C1243 C111 1.443 . S
C1248 C183 1.443 . S
C1273 C507 1.443 . S
C1278 C291 1.443 . S
C1303 C543 1.443 . S
C1308 C327 1.443 . S
C1333 C363 1.443 . S
C1338 C435 1.443 . S
C1363 C399 1.443 . S
C1368 C471 1.443 . S
C1393 C579 1.443 . S
C1398 C795 1.443 . S
C1423 C615 1.443 . S
C1428 C831 1.443 . S
C1453 C723 1.443 . S
C1458 C651 1.443 . S
C1483 C759 1.443 . S
C1488 C687 1.443 . S
C1513 C867 1.443 . S
C1518 C1083 1.443 . S
C1543 C1119 1.443 . S
C1548 C903 1.443 . S
C1573 C1011 1.443 . S
C1578 C939 1.443 . S
C1603 C975 1.443 . S
C1608 C1047 1.443 . S
C1633 C2 1.152 1_556 S
C1638 C1094 1.140 . S
C1663 C554 1.140 . S
C1668 C38 1.151 . S
C1693 C74 1.151 . S
C1698 C1022 1.140 . S
C1723 C110 1.151 . S
C1728 C482 1.140 . S
C1753 C950 1.140 . S
C1758 C146 1.151 . S
C1783 C410 1.140 . S
C1788 C182 1.151 . S
C1813 C218 1.149 1_554 S
C1818 C878 1.140 . S
C1843 C338 1.140 . S
C1848 C254 1.151 . S
C1873 C290 1.152 1_554 S
C1878 C806 1.140 . S
C1903 C266 1.140 . S
C1908 C326 1.151 . S
C1933 C362 1.151 . S
C1938 C734 1.140 . S
C1963 C398 1.151 . S
C1968 C194 1.140 . S
C1993 C662 1.140 . S
C1998 C434 1.151 . S
C2023 C470 1.151 . S
C2028 C122 1.140 . S
C2053 C506 1.149 1_556 S
C2058 C590 1.140 . S
C2083 C50 1.140 . S
C2088 C542 1.151 . S
C2113 C578 1.151 . S
C2118 C518 1.140 . S
C2143 C614 1.151 . S
C2148 C1130 1.140 . S
C2173 C446 1.140 . S
C2178 C650 1.152 1_556 S
C2203 C686 1.151 . S
C2208 C1058 1.140 . S
C2233 C374 1.140 . S
C2238 C722 1.149 1_554 S
C2263 C986 1.140 . S
C2268 C758 1.151 . S
C2293 C302 1.140 . S
C2298 C794 1.151 . S
C2323 C914 1.140 . S
C2328 C830 1.151 . S
C2353 C866 1.151 . S
C2358 C230 1.140 . S
C2383 C842 1.140 . S
C2388 C902 1.151 . S
C2413 C158 1.140 . S
C2418 C938 1.152 1_554 S
C2443 C974 1.151 . S
C2448 C770 1.140 . S
C2473 C1010 1.149 1_556 S
C2478 C86 1.140 . S
C2503 C1046 1.151 . S
C2508 C698 1.140 . S
C2533 C14 1.140 . S
C2538 C1082 1.151 . S
C2563 C1118 1.151 . S
C2568 C626 1.140 . S
C2593 C4 1.285 . S
C2598 C760 1.285 . S
C2623 C796 1.285 . S
C2628 C40 1.285 . S
C2653 C76 1.285 . S
C2658 C832 1.285 . S
C2683 C724 1.285 . S
C2688 C112 1.285 . S
C2713 C688 1.285 . S
C2718 C148 1.285 . S
C2743 C580 1.285 . S
C2748 C184 1.285 . S
C2773 C616 1.285 . S
C2778 C220 1.285 . S
C2803 C652 1.285 . S
C2808 C256 1.285 . S
C2833 C292 1.285 . S
C2838 C1048 1.285 . S
C2863 C1084 1.285 . S
C2868 C328 1.285 . S
C2893 C1120 1.285 . S
C2898 C364 1.285 . S
C2923 C1012 1.285 . S
C2928 C400 1.285 . S
C2953 C976 1.285 . S
C2958 C436 1.285 . S
C2983 C868 1.285 . S
C2988 C472 1.285 . S
C3013 C508 1.285 . S
C3018 C904 1.285 . S
C3043 C544 1.285 . S
C3048 C940 1.285 . S
