# Generated by pormake.
# Topology wli, (5)-cn, num edge types: 1
# Building blocks:
#     Node 0, Type 0, BuildingBlock: XOMCOT_clean_sbu_0, # of connection points: 5
#     Node 1, Type 0, BuildingBlock: XOMCOT_clean_sbu_0, # of connection points: 5
#     Node 2, Type 0, BuildingBlock: XOMCOT_clean_sbu_0, # of connection points: 5
#     Node 3, Type 0, BuildingBlock: XOMCOT_clean_sbu_0, # of connection points: 5
#     Node 4, Type 0, BuildingBlock: XOMCOT_clean_sbu_0, # of connection points: 5
#     Node 5, Type 0, BuildingBlock: XOMCOT_clean_sbu_0, # of connection points: 5
#     Edge 6, Type (0, 0), BuildingBlock: XIVTED_clean_linker_0, # of connection points: 2
#     Edge 7, Type (0, 0), BuildingBlock: XIVTED_clean_linker_0, # of connection points: 2
#     Edge 8, Type (0, 0), BuildingBlock: XIVTED_clean_linker_0, # of connection points: 2
#     Edge 9, Type (0, 0), BuildingBlock: XIVTED_clean_linker_0, # of connection points: 2
#     Edge 10, Type (0, 0), BuildingBlock: XIVTED_clean_linker_0, # of connection points: 2
#     Edge 11, Type (0, 0), BuildingBlock: XIVTED_clean_linker_0, # of connection points: 2
#     Edge 12, Type (0, 0), BuildingBlock: XIVTED_clean_linker_0, # of connection points: 2
#     Edge 13, Type (0, 0), BuildingBlock: XIVTED_clean_linker_0, # of connection points: 2
#     Edge 14, Type (0, 0), BuildingBlock: XIVTED_clean_linker_0, # of connection points: 2
#     Edge 15, Type (0, 0), BuildingBlock: XIVTED_clean_linker_0, # of connection points: 2
#     Edge 16, Type (0, 0), BuildingBlock: XIVTED_clean_linker_0, # of connection points: 2
#     Edge 17, Type (0, 0), BuildingBlock: XIVTED_clean_linker_0, # of connection points: 2
#     Edge 18, Type (0, 0), BuildingBlock: XIVTED_clean_linker_0, # of connection points: 2
#     Edge 19, Type (0, 0), BuildingBlock: XIVTED_clean_linker_0, # of connection points: 2
#     Edge 20, Type (0, 0), BuildingBlock: XIVTED_clean_linker_0, # of connection points: 2
# Relax obj value: 0.131
# Max RMSD: 0.157
# Mean RMSD: 0.157
data_MOF--net-wli--node1-XOMCOT_clean_sbu_0--edge1-XIVTED_clean_linker_0
_symmetry_space_group_name_H-M    P1
_symmetry_Int_Tables_number       1
_symmetry_cell_setting            triclinic
loop_
_symmetry_equiv_pos_as_xyz
'x, y, z'
_cell_length_a     36.724316
_cell_length_b     36.833346
_cell_length_c     26.804245
_cell_angle_alpha  89.978984
_cell_angle_beta   90.134281
_cell_angle_gamma 119.97673
loop_
_atom_site_label
_atom_site_type_symbol
_atom_site_fract_x
_atom_site_fract_y
_atom_site_fract_z
_atom_type_partial_charge
Co0 Co 0.21544 0.43514 0.11134 0.0
C1 C 0.14854 0.37827 0.18218 0.0
C2 C 0.20288 0.37134 0.18682 0.0
C3 C 0.1746 0.34621 0.22257 0.0
N4 N 0.18591 0.39028 0.15993 0.0
N5 N 0.14051 0.35077 0.21963 0.0
H6 H 0.12861 0.39114 0.17364 0.0
H7 H 0.23446 0.37676 0.18233 0.0
C8 C 0.23529 0.37025 0.07976 0.0
O9 O 0.19466 0.34473 0.08495 0.0
N10 N 0.245 0.48103 0.06534 0.0
C11 C 0.22741 0.50033 0.04075 0.0
C12 C 0.25826 0.53398 0.01539 0.0
C13 C 0.28643 0.50315 0.05476 0.0
N14 N 0.29532 0.53586 0.0243 0.0
C15 C 0.13354 0.39384 0.0632 0.0
C16 C 0.16272 0.38475 0.97173 0.0
C17 C 0.12007 0.37167 0.97693 0.0
C18 C 0.10538 0.37608 0.0234 0.0
C19 C 0.18958 0.40179 0.01248 0.0
N20 N 0.17486 0.40515 0.05814 0.0
H21 H 0.12234 0.40064 0.09683 0.0
H22 H 0.22274 0.41375 0.00666 0.0
H23 H 0.19441 0.49092 0.04195 0.0
H24 H 0.3096 0.49633 0.07026 0.0
O25 O 0.18951 0.46463 0.13981 0.0
O26 O 0.24986 0.4708 0.16538 0.0
O27 O 0.2508 0.40934 0.08963 0.0
C28 C 0.22144 0.48194 0.17008 0.0
H29 H 0.1797 0.32783 0.25031 0.0
H30 H 0.25377 0.55548 0.99216 0.0
H31 H 0.17544 0.38256 0.93615 0.0
H32 H 0.07287 0.36789 0.02825 0.0
Co33 Co 0.59542 0.78684 0.78101 0.0
C34 C 0.65206 0.77703 0.85346 0.0
C35 C 0.65533 0.83642 0.86062 0.0
C36 C 0.67998 0.8334 0.89728 0.0
N37 N 0.63897 0.80173 0.83171 0.0
N38 N 0.67774 0.79593 0.89282 0.0
H39 H 0.64126 0.745 0.84303 0.0
H40 H 0.64837 0.86155 0.8568 0.0
C41 C 0.66056 0.87302 0.75457 0.0
O42 O 0.68674 0.8588 0.76077 0.0
N43 N 0.55076 0.77098 0.73282 0.0
C44 C 0.53315 0.73507 0.70637 0.0
C45 C 0.49916 0.73155 0.68072 0.0
C46 C 0.52725 0.78898 0.72303 0.0
N47 N 0.49533 0.76528 0.6913 0.0
C48 C 0.63792 0.74743 0.73352 0.0
C49 C 0.65222 0.79008 0.64429 0.0
C50 C 0.66403 0.75951 0.64864 0.0
C51 C 0.6569 0.73817 0.6941 0.0
C52 C 0.63338 0.79824 0.68438 0.0
N53 N 0.62762 0.77815 0.7291 0.0
H54 H 0.62923 0.72799 0.76616 0.0
H55 H 0.62191 0.81979 0.67857 0.0
H56 H 0.54372 0.71242 0.70681 0.0
H57 H 0.53232 0.81772 0.74025 0.0
O58 O 0.56544 0.73084 0.8079 0.0
O59 O 0.5579 0.78404 0.83332 0.0
O60 O 0.62107 0.84828 0.76124 0.0
C61 C 0.54694 0.7446 0.83743 0.0
H62 H 0.69629 0.85597 0.92668 0.0
H63 H 0.4786 0.70595 0.65637 0.0
H64 H 0.65658 0.807 0.60973 0.0
H65 H 0.66391 0.71306 0.69837 0.0
Co66 Co 0.24321 0.81143 0.44551 0.0
C67 C 0.25258 0.87757 0.51647 0.0
C68 C 0.19011 0.82507 0.5178 0.0
C69 C 0.19335 0.85318 0.55393 0.0
N70 N 0.22689 0.84098 0.49291 0.0
N71 N 0.2328 0.88604 0.55313 0.0
H72 H 0.28579 0.8966 0.50932 0.0
H73 H 0.16334 0.79412 0.51226 0.0
C74 C 0.1565 0.78647 0.41138 0.0
O75 O 0.16863 0.82661 0.41272 0.0
N76 N 0.26062 0.78224 0.4003 0.0
C77 C 0.29751 0.80025 0.37575 0.0
C78 C 0.30134 0.76968 0.35115 0.0
C79 C 0.24234 0.74084 0.39042 0.0
N80 N 0.2668 0.73238 0.36047 0.0
C81 C 0.28234 0.89227 0.397 0.0
C82 C 0.24323 0.86317 0.30577 0.0
C83 C 0.27285 0.90587 0.31079 0.0
C84 C 0.29261 0.92023 0.35726 0.0
C85 C 0.23447 0.83626 0.34618 0.0
N86 N 0.25261 0.85104 0.39185 0.0
H87 H 0.30015 0.90358 0.4309 0.0
H88 H 0.21367 0.80312 0.34025 0.0
H89 H 0.32041 0.83336 0.37648 0.0
H90 H 0.21261 0.71743 0.40603 0.0
O91 O 0.29895 0.83875 0.47404 0.0
O92 O 0.24578 0.7784 0.50028 0.0
O93 O 0.18213 0.77404 0.4244 0.0
C94 C 0.28519 0.80729 0.50469 0.0
H95 H 0.1694 0.84861 0.58069 0.0
H96 H 0.32755 0.77452 0.32807 0.0
H97 H 0.22723 0.85029 0.27074 0.0
H98 H 0.31713 0.95247 0.36251 0.0
Co99 Co 0.44153 0.20608 0.89307 0.0
C100 C 0.38423 0.13941 0.82155 0.0
C101 C 0.38378 0.19681 0.81135 0.0
C102 C 0.35875 0.16892 0.77515 0.0
N103 N 0.39874 0.17793 0.84165 0.0
N104 N 0.35926 0.13291 0.78153 0.0
H105 H 0.39313 0.11713 0.83393 0.0
H106 H 0.39176 0.22925 0.81425 0.0
C107 C 0.37538 0.22653 0.91803 0.0
O108 O 0.34931 0.18645 0.91009 0.0
N109 N 0.4853 0.23436 0.94223 0.0
C110 C 0.50265 0.21606 0.9693 0.0
C111 C 0.53622 0.24646 0.99547 0.0
C112 C 0.50855 0.27576 0.95209 0.0
N113 N 0.54006 0.28396 0.98452 0.0
C114 C 0.40296 0.12438 0.93935 0.0
C115 C 0.38079 0.14799 0.0268 0.0
C116 C 0.37304 0.10682 0.02242 0.0
C117 C 0.38449 0.09521 0.97785 0.0
C118 C 0.39998 0.17625 0.98785 0.0
N119 N 0.40916 0.16401 0.94369 0.0
H120 H 0.41483 0.11572 0.90764 0.0
H121 H 0.40898 0.20858 0.99435 0.0
H122 H 0.4923 0.18294 0.96888 0.0
H123 H 0.50363 0.29939 0.9344 0.0
O124 O 0.47245 0.18113 0.86594 0.0
O125 O 0.47952 0.2419 0.84169 0.0
O126 O 0.41501 0.24111 0.91303 0.0
C127 C 0.49092 0.21374 0.8371 0.0
H128 H 0.34321 0.17536 0.74491 0.0
H129 H 0.55649 0.24139 0.02039 0.0
H130 H 0.37309 0.15887 0.06051 0.0
H131 H 0.3812 0.06449 0.97349 0.0
Co132 Co 0.82056 0.23938 0.55709 0.0
C133 C 0.88432 0.24836 0.48227 0.0
C134 C 0.8317 0.18608 0.4827 0.0
C135 C 0.8588 0.18884 0.44546 0.0
N136 N 0.84853 0.22298 0.5074 0.0
N137 N 0.89178 0.22815 0.44524 0.0
H138 H 0.90345 0.28158 0.48859 0.0
H139 H 0.80096 0.15937 0.48969 0.0
C140 C 0.8019 0.15568 0.59173 0.0
O141 O 0.84231 0.17026 0.58488 0.0
N142 N 0.79259 0.25681 0.60415 0.0
C143 C 0.81096 0.29407 0.62781 0.0
C144 C 0.78083 0.29766 0.65396 0.0
C145 C 0.75145 0.23811 0.61601 0.0
N146 N 0.74346 0.26262 0.64641 0.0
C147 C 0.90441 0.28033 0.60006 0.0
C148 C 0.8794 0.24513 0.69365 0.0
C149 C 0.92209 0.27344 0.68541 0.0
C150 C 0.93444 0.29108 0.63773 0.0
C151 C 0.8506 0.23491 0.65485 0.0
N152 N 0.86325 0.25133 0.6081 0.0
H153 H 0.91429 0.29695 0.56542 0.0
H154 H 0.81766 0.21457 0.66296 0.0
H155 H 0.84394 0.31739 0.62535 0.0
H156 H 0.72779 0.20807 0.60135 0.0
O157 O 0.84505 0.29393 0.52674 0.0
O158 O 0.78396 0.23908 0.50476 0.0
O159 O 0.78618 0.17902 0.58132 0.0
C160 C 0.81196 0.27846 0.49823 0.0
H161 H 0.85358 0.16451 0.41897 0.0
H162 H 0.78602 0.3241 0.67673 0.0
H163 H 0.86788 0.23202 0.73026 0.0
H164 H 0.96693 0.31362 0.62958 0.0
Co165 Co 0.78452 0.58483 0.23065 0.0
C166 C 0.77769 0.64288 0.16165 0.0
C167 C 0.8406 0.65315 0.1622 0.0
C168 C 0.83817 0.67955 0.12739 0.0
N169 N 0.8026 0.63029 0.18358 0.0
N170 N 0.79846 0.67269 0.12689 0.0
H171 H 0.74474 0.62987 0.17037 0.0
H172 H 0.86774 0.64993 0.17 0.0
C173 C 0.85819 0.60736 0.29853 0.0
O174 O 0.8315 0.59056 0.33553 0.0
N175 N 0.76516 0.53797 0.27673 0.0
C176 C 0.72857 0.51878 0.30214 0.0
C177 C 0.72446 0.48345 0.32464 0.0
C178 C 0.78212 0.51305 0.28312 0.0
N179 N 0.75814 0.4799 0.31276 0.0
C180 C 0.73351 0.60822 0.28781 0.0
C181 C 0.79806 0.67539 0.33724 0.0
C182 C 0.75647 0.66234 0.35063 0.0
C183 C 0.72397 0.62917 0.32417 0.0
C184 C 0.80614 0.65371 0.3001 0.0
N185 N 0.77409 0.61837 0.27882 0.0
H186 H 0.70791 0.5834 0.2673 0.0
H187 H 0.83824 0.66584 0.28855 0.0
H188 H 0.70516 0.52813 0.30309 0.0
H189 H 0.81097 0.51863 0.26553 0.0
O190 O 0.73016 0.55645 0.19857 0.0
O191 O 0.78406 0.54842 0.178 0.0
O192 O 0.84484 0.60833 0.25455 0.0
C193 C 0.74501 0.53822 0.17048 0.0
H194 H 0.86317 0.70074 0.10283 0.0
H195 H 0.69855 0.46193 0.34792 0.0
H196 H 0.82408 0.70229 0.35499 0.0
H197 H 0.69131 0.61869 0.33229 0.0
H198 H 0.3241 0.70818 0.34369 0.0
H199 H 0.16216 0.5025 0.19567 0.0
H200 H 0.19152 0.66546 0.33475 0.0
H201 H 0.29032 0.5349 0.22624 0.0
H202 H 0.17125 0.55997 0.24944 0.0
H203 H 0.3116 0.64333 0.30397 0.0
C204 C 0.29228 0.68498 0.33347 0.0
C205 C 0.25883 0.69237 0.34193 0.0
C206 C 0.19728 0.55431 0.24482 0.0
C207 C 0.24421 0.61793 0.29633 0.0
C208 C 0.19217 0.52154 0.21403 0.0
C209 C 0.22569 0.51414 0.20618 0.0
C210 C 0.23636 0.58021 0.26759 0.0
C211 C 0.26371 0.53959 0.23116 0.0
C212 C 0.28511 0.64785 0.31102 0.0
C213 C 0.21812 0.66093 0.3289 0.0
N214 N 0.26815 0.57177 0.26035 0.0
N215 N 0.21199 0.62525 0.30615 0.0
H216 H 0.49505 0.76089 0.89458 0.0
H217 H 0.36128 0.52586 0.99854 0.0
H218 H 0.52333 0.66331 0.85942 0.0
H219 H 0.32106 0.61742 0.00682 0.0
H220 H 0.42686 0.57863 0.95886 0.0
H221 H 0.43693 0.71135 0.94707 0.0
C222 C 0.48925 0.72914 0.89824 0.0
C223 C 0.51381 0.7161 0.87229 0.0
C224 C 0.40374 0.58719 0.96968 0.0
C225 C 0.44738 0.65921 0.93223 0.0
C226 C 0.36653 0.55719 0.99255 0.0
C227 C 0.33558 0.5672 0.00537 0.0
C228 C 0.4101 0.62751 0.96012 0.0
C229 C 0.34377 0.60818 0.99662 0.0
C230 C 0.45601 0.70083 0.9281 0.0
C231 C 0.50494 0.67459 0.87847 0.0
N232 N 0.38011 0.63674 0.97442 0.0
N233 N 0.47233 0.64756 0.90763 0.0
H234 H 0.36513 0.86729 0.52963 0.0
H235 H 0.41431 0.70726 0.67305 0.0
H236 H 0.27106 0.73918 0.56069 0.0
H237 H 0.50184 0.84008 0.66786 0.0
H238 H 0.36088 0.71902 0.63435 0.0
H239 H 0.4149 0.859 0.58237 0.0
C240 C 0.35482 0.83749 0.54791 0.0
C241 C 0.31396 0.80374 0.54048 0.0
C242 C 0.3916 0.74572 0.64198 0.0
C243 C 0.37094 0.79396 0.60062 0.0
C244 C 0.4222 0.73898 0.66384 0.0
C245 C 0.46269 0.77273 0.67311 0.0
C246 C 0.4016 0.78652 0.62862 0.0
C247 C 0.47098 0.81327 0.66135 0.0
C248 C 0.38327 0.83282 0.57809 0.0
C249 C 0.30227 0.76597 0.5653 0.0
N250 N 0.44085 0.81901 0.6391 0.0
N251 N 0.33075 0.76197 0.59383 0.0
H252 H 0.51335 0.15573 0.81246 0.0
H253 H 0.71878 0.31922 0.66512 0.0
H254 H 0.54453 0.28323 0.78287 0.0
H255 H 0.67747 0.18734 0.67337 0.0
H256 H 0.65405 0.30608 0.70604 0.0
H257 H 0.57183 0.16588 0.75968 0.0
C258 C 0.53238 0.18583 0.7946 0.0
C259 C 0.52427 0.21882 0.80232 0.0
C260 C 0.65889 0.2799 0.69863 0.0
C261 C 0.59143 0.23069 0.74203 0.0
C262 C 0.69597 0.28743 0.67552 0.0
C263 C 0.70369 0.25436 0.6664 0.0
C264 C 0.62934 0.239 0.71328 0.0
C265 C 0.67267 0.21366 0.67969 0.0
C266 C 0.56572 0.19155 0.76437 0.0
C267 C 0.54975 0.25701 0.77802 0.0
N268 N 0.63701 0.20716 0.70299 0.0
N269 N 0.58243 0.26201 0.74931 0.0
H270 H 0.70131 0.39883 0.33235 0.0
H271 H 0.87001 0.35705 0.4679 0.0
H272 H 0.83423 0.48786 0.33271 0.0
H273 H 0.74041 0.26135 0.44695 0.0
H274 H 0.85833 0.40409 0.4147 0.0
H275 H 0.71547 0.34685 0.37036 0.0
C276 C 0.73353 0.40733 0.34023 0.0
C277 C 0.76664 0.44783 0.32987 0.0
C278 C 0.83252 0.37269 0.42127 0.0
C279 C 0.78315 0.38852 0.37348 0.0
C280 C 0.83913 0.34582 0.45175 0.0
C281 C 0.806 0.30535 0.46217 0.0
C282 C 0.79233 0.3592 0.40146 0.0
C283 C 0.76677 0.29235 0.43997 0.0
C284 C 0.74164 0.37759 0.3617 0.0
C285 C 0.80785 0.45696 0.33997 0.0
N286 N 0.76089 0.31937 0.41107 0.0
N287 N 0.81492 0.42769 0.36179 0.0
H288 H 0.62048 0.30661 0.00715 0.0
H289 H 0.66674 0.51921 0.13911 0.0
H290 H 0.53328 0.35272 0.00393 0.0
H291 H 0.76051 0.48243 0.1204 0.0
H292 H 0.61856 0.46042 0.08654 0.0
H293 H 0.67305 0.37218 0.04553 0.0
C294 C 0.61244 0.33065 0.01449 0.0
C295 C 0.57227 0.32403 1.00294 0.0
C296 C 0.6498 0.46541 0.09346 0.0
C297 C 0.63243 0.3994 0.04689 0.0
C298 C 0.67733 0.49895 0.12354 0.0
C299 C 0.7176 0.50552 0.13442 0.0
C300 C 0.66242 0.4379 0.07451 0.0
C301 C 0.72973 0.47846 0.11303 0.0
C302 C 0.64257 0.36821 0.03613 0.0
C303 C 0.56387 0.35661 0.01225 0.0
N304 N 0.70208 0.44556 0.08452 0.0
N305 N 0.59354 0.39273 0.03423 0.0
H306 H 0.92375 0.22517 0.76282 0.0
H307 H 0.13404 0.40731 0.88477 0.0
H308 H 0.99061 0.35113 0.70388 0.0
H309 H 0.0421 0.30171 0.96963 0.0
H310 H 0.08708 0.38226 0.81245 0.0
H311 H 0.9721 0.24821 0.83378 0.0
C312 C 0.94847 0.25765 0.76469 0.0
C313 C 0.95285 0.28624 0.72717 0.0
C314 C 0.0772 0.36456 0.84687 0.0
C315 C 1.00875 0.31243 0.80788 0.0
C316 C 0.10403 0.37867 0.88799 0.0
C317 C 0.09185 0.35643 0.93307 0.0
C318 C 0.03812 0.32767 0.85067 0.0
C319 C 0.05245 0.31981 0.93553 0.0
C320 C 0.97612 0.27066 0.80516 0.0
C321 C 0.98622 0.3277 0.73125 0.0
N322 N 0.02698 0.3064 0.89474 0.0
N323 N 1.01287 0.33951 0.77084 0.0
H324 H 0.69645 0.68563 0.35406 0.0
H325 H 0.72847 0.74191 0.64518 0.0
H326 H 0.79388 0.684 0.44263 0.0
H327 H 0.63696 0.75032 0.55198 0.0
H328 H 0.75425 0.72209 0.57166 0.0
H329 H 0.67611 0.71184 0.42613 0.0
C330 C 0.71366 0.69095 0.38869 0.0
C331 C 0.7467 0.68234 0.39249 0.0
C332 C 0.72869 0.72853 0.56733 0.0
C333 C 0.72355 0.7123 0.47533 0.0
C334 C 0.71383 0.73959 0.6093 0.0
C335 C 0.68066 0.74798 0.6047 0.0
C336 C 0.71002 0.72556 0.52055 0.0
C337 C 0.66305 0.74483 0.55723 0.0
C338 C 0.70212 0.70602 0.42983 0.0
C339 C 0.76836 0.69045 0.43805 0.0
N340 N 0.67785 0.73377 0.51714 0.0
N341 N 0.75618 0.70466 0.47787 0.0
H342 H 0.3873 0.12464 0.12266 0.0
H343 H 0.27801 0.88864 0.21189 0.0
H344 H 0.32025 0.0212 0.02045 0.0
H345 H 0.29541 0.98927 0.30994 0.0
H346 H 0.29911 0.93686 0.14155 0.0
H347 H 0.35985 0.07575 0.19215 0.0
C348 C 0.36638 0.09179 0.11463 0.0
C349 C 0.35591 0.07724 0.06526 0.0
C350 C 0.29803 0.94823 0.17847 0.0
C351 C 0.32545 0.02087 0.14515 0.0
C352 C 0.28572 0.92066 0.21876 0.0
C353 C 0.28473 0.93471 0.26726 0.0
C354 C 0.31017 0.99037 0.18666 0.0
C355 C 0.29631 0.97703 0.27355 0.0
C356 C 0.35095 0.06385 0.15449 0.0
C357 C 0.32969 0.03394 0.05765 0.0
N358 N 0.30881 1.0034 0.23379 0.0
N359 N 0.31557 1.00726 0.09715 0.0
H360 H 0.29338 0.20501 0.92236 0.0
H361 H 0.31935 0.412 0.05083 0.0
H362 H 0.41728 0.3068 0.95866 0.0
H363 H 0.20921 0.28888 0.05937 0.0
H364 H 0.35705 0.38044 0.00929 0.0
H365 H 0.26283 0.24275 0.96137 0.0
C366 C 0.31433 0.23549 0.93843 0.0
C367 C 0.35804 0.25245 0.93768 0.0
C368 C 0.3247 0.3606 0.02066 0.0
C369 C 0.32279 0.2962 0.98316 0.0
C370 C 0.30322 0.37849 0.04438 0.0
C371 C 0.2609 0.35314 0.05836 0.0
C372 C 0.30336 0.31733 0.01051 0.0
C373 C 0.24158 0.30994 0.04903 0.0
C374 C 0.29674 0.25705 0.96096 0.0
C375 C 0.38339 0.29249 0.95861 0.0
N376 N 0.26277 0.29365 0.02555 0.0
N377 N 0.36536 0.31306 0.98082 0.0
H378 H 0.71658 0.1116 0.61446 0.0
H379 H 0.74175 0.9349 0.75746 0.0
H380 H 0.83023 0.1044 0.62364 0.0
H381 H 0.61915 0.91052 0.70999 0.0
H382 H 0.77299 1.00365 0.71972 0.0
H383 H 0.6786 0.04321 0.6575 0.0
C384 C 0.73348 0.09572 0.62526 0.0
C385 C 0.77673 0.11391 0.6154 0.0
C386 C 0.73921 0.98348 0.71743 0.0
C387 C 0.73387 0.03658 0.66497 0.0
C388 C 0.72124 0.94408 0.7392 0.0
C389 C 0.67777 0.91657 0.73636 0.0
C390 C 0.71378 0.996 0.69223 0.0
C391 C 0.65287 0.93075 0.71285 0.0
C392 C 0.71182 0.05682 0.64978 0.0
C393 C 0.79702 0.09196 0.63032 0.0
N394 N 0.67129 0.96954 0.69123 0.0
N395 N 0.77555 0.05484 0.65438 0.0
H396 H 0.10722 0.70182 0.42985 0.0
H397 H 0.92166 0.6724 0.24682 0.0
H398 H 0.10931 0.80354 0.34761 0.0
H399 H 0.89862 0.59416 0.37616 0.0
H400 H 0.99588 0.71361 0.27115 0.0
H401 H 0.03538 0.65491 0.39872 0.0
C402 C 0.09271 0.71417 0.40503 0.0
C403 C 0.11406 0.7567 0.39169 0.0
C404 C 0.97459 0.68718 0.29393 0.0
C405 C 0.03264 0.70333 0.35541 0.0
C406 C 0.93231 0.66351 0.27991 0.0
C407 C 0.90387 0.62995 0.30967 0.0
C408 C 0.98871 0.6768 0.33753 0.0
C409 C 0.91943 0.62003 0.35239 0.0
C410 C 0.05179 0.6875 0.38744 0.0
C411 C 0.09383 0.7711 0.35937 0.0
N412 N 0.9608 0.64331 0.36504 0.0
N413 N 0.05441 0.74449 0.34223 0.0
H414 H 0.93446 0.30809 0.41075 0.0
H415 H 0.10538 0.27487 0.26481 0.0
H416 H 0.92889 0.18853 0.40159 0.0
H417 H 0.09309 0.38476 0.24857 0.0
H418 H 0.04365 0.244 0.31935 0.0
H419 H 0.99528 0.33799 0.35536 0.0
C420 C 0.94615 0.28815 0.39725 0.0
C421 C 0.9267 0.24577 0.41104 0.0
C422 C 0.05441 0.27482 0.3037 0.0
C423 C 0.99635 0.2798 0.34733 0.0
C424 C 0.08977 0.29254 0.27287 0.0
C425 C 0.10434 0.33238 0.25197 0.0
C426 C 0.0337 0.2973 0.31419 0.0
C427 C 0.08266 0.35375 0.26323 0.0
C428 C 0.98074 0.30518 0.36533 0.0
C429 C 0.94278 0.22125 0.3916 0.0
N430 N 0.04858 0.33602 0.29371 0.0
N431 N 0.97683 0.23867 0.36098 0.0
H432 H 0.75163 0.83798 0.94279 0.0
H433 H 0.71871 0.63532 0.09094 0.0
H434 H 0.64566 0.71423 0.91898 0.0
H435 H 0.83785 0.75036 0.0854 0.0
H436 H 0.68935 0.6655 0.03338 0.0
H437 H 0.7818 0.80823 1.00027 0.0
C438 C 0.73469 0.80457 0.94974 0.0
C439 C 0.69611 0.77856 0.92596 0.0
C440 C 0.72193 0.68418 0.04471 0.0
C441 C 0.73036 0.74428 0.99175 0.0
C442 C 0.73863 0.66708 0.07793 0.0
C443 C 0.7808 0.69044 0.09323 0.0
C444 C 0.74738 0.72516 0.0269 0.0
C445 C 0.80531 0.7312 0.07433 0.0
C446 C 0.75202 0.78757 0.98232 0.0
C447 C 0.67569 0.73538 0.93595 0.0
N448 N 0.7882 0.74736 0.04236 0.0
N449 N 0.69294 0.71966 0.96826 0.0
H450 H 0.28558 0.10222 0.73135 0.0
H451 H 0.31285 0.92698 0.58849 0.0
H452 H 0.389 0.08066 0.75855 0.0
H453 H 0.19456 0.92493 0.5957 0.0
H454 H 0.34353 0.98705 0.64523 0.0
H455 H 0.25381 0.04101 0.676 0.0
C456 C 0.3016 0.08461 0.72559 0.0
C457 C 0.33992 0.09648 0.74966 0.0
C458 C 0.31083 0.97343 0.63449 0.0
C459 C 0.30391 0.02657 0.68633 0.0
C460 C 0.29339 0.93934 0.60179 0.0
C461 C 0.25111 0.92107 0.58715 0.0
C462 C 0.28601 0.98979 0.6523 0.0
C463 C 0.22718 0.93795 0.60631 0.0
C464 C 0.28337 0.04958 0.69426 0.0
C465 C 0.35919 0.07234 0.74126 0.0
N466 N 0.24502 0.97153 0.63763 0.0
N467 N 0.34113 0.03872 0.71007 0.0
loop_
_geom_bond_atom_site_label_1
_geom_bond_atom_site_label_2
_geom_bond_distance
_geom_bond_site_symmetry_2
_ccdc_geom_bond_type
Co0 N4 2.148 . S
Co0 N10 2.128 . S
Co0 N20 2.194 . S
Co0 O25 2.351 . S
Co0 O26 2.155 . S
Co0 O27 2.096 . S
C1 N4 1.301 . S
C1 N5 1.328 . S
C1 H6 0.930 . S
C2 C3 1.333 . S
C2 N4 1.317 . S
C2 H7 0.930 . S
C3 C2 1.333 . S
C3 N5 1.350 . S
C3 H29 0.931 . S
N4 Co0 2.148 . S
N4 C1 1.301 . S
N4 C2 1.317 . S
N5 C1 1.328 . S
N5 C3 1.350 . S
H6 C1 0.930 . S
H7 C2 0.930 . S
C8 O9 1.224 . S
C8 O27 1.247 . S
O9 C8 1.224 . S
N10 Co0 2.128 . S
N10 C11 1.355 1_554 S
N10 C13 1.311 1_554 S
C11 N10 1.355 1_556 S
C11 C12 1.363 . S
C11 H23 0.929 . S
C12 C11 1.363 . S
C12 N14 1.375 . S
C12 H30 0.931 . S
C13 N10 1.311 1_556 S
C13 N14 1.347 . S
C13 H24 0.929 1_556 S
N14 C12 1.375 . S
N14 C13 1.347 . S
C15 C18 1.365 1_554 S
C15 N20 1.328 . S
C15 H21 0.929 . S
C16 C17 1.362 . S
C16 C19 1.378 . S
C16 H31 0.929 . S
C17 C16 1.362 . S
C17 C18 1.366 . S
C18 C15 1.365 1_556 S
C18 C17 1.366 . S
C18 H32 0.930 . S
C19 C16 1.378 . S
C19 N20 1.315 1_556 S
C19 H22 0.930 . S
N20 Co0 2.194 . S
N20 C15 1.328 . S
N20 C19 1.315 1_554 S
H21 C15 0.929 . S
H22 C19 0.930 . S
H23 C11 0.929 . S
H24 C13 0.929 1_554 S
O25 Co0 2.351 . S
O25 C28 1.244 . S
O26 Co0 2.155 . S
O26 C28 1.240 . S
O27 Co0 2.096 . S
O27 C8 1.247 . S
C28 O25 1.244 . S
C28 O26 1.240 . S
H29 C3 0.931 . S
H30 C12 0.931 . S
H31 C16 0.929 . S
H32 C18 0.930 . S
Co33 N37 2.148 . S
Co33 N43 2.128 . S
Co33 N53 2.194 . S
Co33 O58 2.351 . S
Co33 O59 2.155 . S
Co33 O60 2.096 . S
C34 N37 1.301 . S
C34 N38 1.328 . S
C34 H39 0.930 . S
C35 C36 1.333 . S
C35 N37 1.317 . S
C35 H40 0.930 . S
C36 C35 1.333 . S
C36 N38 1.350 . S
C36 H62 0.931 . S
N37 Co33 2.148 . S
N37 C34 1.301 . S
N37 C35 1.317 . S
N38 C34 1.328 . S
N38 C36 1.350 . S
H39 C34 0.930 . S
H40 C35 0.930 . S
C41 O42 1.224 . S
C41 O60 1.247 . S
O42 C41 1.224 . S
N43 Co33 2.128 . S
N43 C44 1.355 . S
N43 C46 1.311 . S
C44 N43 1.355 . S
C44 C45 1.363 . S
C44 H56 0.929 . S
C45 C44 1.363 . S
C45 N47 1.375 . S
C45 H63 0.931 . S
C46 N43 1.311 . S
C46 N47 1.347 . S
C46 H57 0.929 . S
N47 C45 1.375 . S
N47 C46 1.347 . S
C48 C51 1.365 . S
C48 N53 1.328 . S
C48 H54 0.929 . S
C49 C50 1.362 . S
C49 C52 1.378 . S
C49 H64 0.929 . S
C50 C49 1.362 . S
C50 C51 1.366 . S
C51 C48 1.365 . S
C51 C50 1.366 . S
C51 H65 0.930 . S
C52 C49 1.378 . S
C52 N53 1.315 . S
C52 H55 0.930 . S
N53 Co33 2.194 . S
N53 C48 1.328 . S
N53 C52 1.315 . S
H54 C48 0.929 . S
H55 C52 0.930 . S
H56 C44 0.929 . S
H57 C46 0.929 . S
O58 Co33 2.351 . S
O58 C61 1.244 . S
O59 Co33 2.155 . S
O59 C61 1.240 . S
O60 Co33 2.096 . S
O60 C41 1.247 . S
C61 O58 1.244 . S
C61 O59 1.240 . S
H62 C36 0.931 . S
H63 C45 0.931 . S
H64 C49 0.929 . S
H65 C51 0.930 . S
Co66 N70 2.148 . S
Co66 N76 2.128 . S
Co66 N86 2.194 . S
Co66 O91 2.351 . S
Co66 O92 2.155 . S
Co66 O93 2.096 . S
C67 N70 1.301 . S
C67 N71 1.328 . S
C67 H72 0.930 . S
C68 C69 1.333 . S
C68 N70 1.317 . S
C68 H73 0.930 . S
C69 C68 1.333 . S
C69 N71 1.350 . S
C69 H95 0.931 . S
N70 Co66 2.148 . S
N70 C67 1.301 . S
N70 C68 1.317 . S
N71 C67 1.328 . S
N71 C69 1.350 . S
H72 C67 0.930 . S
H73 C68 0.930 . S
C74 O75 1.224 . S
C74 O93 1.247 . S
O75 C74 1.224 . S
N76 Co66 2.128 . S
N76 C77 1.355 . S
N76 C79 1.311 . S
C77 N76 1.355 . S
C77 C78 1.363 . S
C77 H89 0.929 . S
C78 C77 1.363 . S
C78 N80 1.375 . S
C78 H96 0.931 . S
C79 N76 1.311 . S
C79 N80 1.347 . S
C79 H90 0.929 . S
N80 C78 1.375 . S
N80 C79 1.347 . S
C81 C84 1.365 . S
C81 N86 1.328 . S
C81 H87 0.929 . S
C82 C83 1.362 . S
C82 C85 1.378 . S
C82 H97 0.929 . S
C83 C82 1.362 . S
C83 C84 1.366 . S
C84 C81 1.365 . S
C84 C83 1.366 . S
C84 H98 0.930 . S
C85 C82 1.378 . S
C85 N86 1.315 . S
C85 H88 0.930 . S
N86 Co66 2.194 . S
N86 C81 1.328 . S
N86 C85 1.315 . S
H87 C81 0.929 . S
H88 C85 0.930 . S
H89 C77 0.929 . S
H90 C79 0.929 . S
O91 Co66 2.351 . S
O91 C94 1.244 . S
O92 Co66 2.155 . S
O92 C94 1.240 . S
O93 Co66 2.096 . S
O93 C74 1.247 . S
C94 O91 1.244 . S
C94 O92 1.240 . S
H95 C69 0.931 . S
H96 C78 0.931 . S
H97 C82 0.929 . S
H98 C84 0.930 . S
Co99 N103 2.148 . S
Co99 N109 2.128 . S
Co99 N119 2.194 . S
Co99 O124 2.351 . S
Co99 O125 2.155 . S
Co99 O126 2.096 . S
C100 N103 1.301 . S
C100 N104 1.328 . S
C100 H105 0.930 . S
C101 C102 1.333 . S
C101 N103 1.317 . S
C101 H106 0.930 . S
C102 C101 1.333 . S
C102 N104 1.350 . S
C102 H128 0.931 . S
N103 Co99 2.148 . S
N103 C100 1.301 . S
N103 C101 1.317 . S
N104 C100 1.328 . S
N104 C102 1.350 . S
H105 C100 0.930 . S
H106 C101 0.930 . S
C107 O108 1.224 . S
C107 O126 1.247 . S
O108 C107 1.224 . S
N109 Co99 2.128 . S
N109 C110 1.355 1_556 S
N109 C112 1.311 1_556 S
C110 N109 1.355 1_554 S
C110 C111 1.363 . S
C110 H122 0.929 . S
C111 C110 1.363 . S
C111 N113 1.375 . S
C111 H129 0.931 . S
C112 N109 1.311 1_554 S
C112 N113 1.347 . S
C112 H123 0.929 1_554 S
N113 C111 1.375 . S
N113 C112 1.347 . S
C114 C117 1.365 1_556 S
C114 N119 1.328 . S
C114 H120 0.929 . S
C115 C116 1.362 . S
C115 C118 1.378 . S
C115 H130 0.929 . S
C116 C115 1.362 . S
C116 C117 1.366 . S
C117 C114 1.365 1_554 S
C117 C116 1.366 . S
C117 H131 0.930 . S
C118 C115 1.378 . S
C118 N119 1.315 1_554 S
C118 H121 0.930 . S
N119 Co99 2.194 . S
N119 C114 1.328 . S
N119 C118 1.315 1_556 S
H120 C114 0.929 . S
H121 C118 0.930 . S
H122 C110 0.929 . S
H123 C112 0.929 1_556 S
O124 Co99 2.351 . S
O124 C127 1.244 . S
O125 Co99 2.155 . S
O125 C127 1.240 . S
O126 Co99 2.096 . S
O126 C107 1.247 . S
C127 O124 1.244 . S
C127 O125 1.240 . S
H128 C102 0.931 . S
H129 C111 0.931 . S
H130 C115 0.929 . S
H131 C117 0.930 . S
Co132 N136 2.148 . S
Co132 N142 2.128 . S
Co132 N152 2.194 . S
Co132 O157 2.351 . S
Co132 O158 2.155 . S
Co132 O159 2.096 . S
C133 N136 1.301 . S
C133 N137 1.328 . S
C133 H138 0.930 . S
C134 C135 1.333 . S
C134 N136 1.317 . S
C134 H139 0.930 . S
C135 C134 1.333 . S
C135 N137 1.350 . S
C135 H161 0.931 . S
N136 Co132 2.148 . S
N136 C133 1.301 . S
N136 C134 1.317 . S
N137 C133 1.328 . S
N137 C135 1.350 . S
H138 C133 0.930 . S
H139 C134 0.930 . S
C140 O141 1.224 . S
C140 O159 1.247 . S
O141 C140 1.224 . S
N142 Co132 2.128 . S
N142 C143 1.355 . S
N142 C145 1.311 . S
C143 N142 1.355 . S
C143 C144 1.363 . S
C143 H155 0.929 . S
C144 C143 1.363 . S
C144 N146 1.375 . S
C144 H162 0.931 . S
C145 N142 1.311 . S
C145 N146 1.347 . S
C145 H156 0.929 . S
N146 C144 1.375 . S
N146 C145 1.347 . S
C147 C150 1.365 . S
C147 N152 1.328 . S
C147 H153 0.929 . S
C148 C149 1.362 . S
C148 C151 1.378 . S
C148 H163 0.929 . S
C149 C148 1.362 . S
C149 C150 1.366 . S
C150 C147 1.365 . S
C150 C149 1.366 . S
C150 H164 0.930 . S
C151 C148 1.378 . S
C151 N152 1.315 . S
C151 H154 0.930 . S
N152 Co132 2.194 . S
N152 C147 1.328 . S
N152 C151 1.315 . S
H153 C147 0.929 . S
H154 C151 0.930 . S
H155 C143 0.929 . S
H156 C145 0.929 . S
O157 Co132 2.351 . S
O157 C160 1.244 . S
O158 Co132 2.155 . S
O158 C160 1.240 . S
O159 Co132 2.096 . S
O159 C140 1.247 . S
C160 O157 1.244 . S
C160 O158 1.240 . S
H161 C135 0.931 . S
H162 C144 0.931 . S
H163 C148 0.929 . S
H164 C150 0.930 . S
Co165 N169 2.148 . S
Co165 N175 2.128 . S
Co165 N185 2.194 . S
Co165 O190 2.351 . S
Co165 O191 2.155 . S
Co165 O192 2.096 . S
C166 N169 1.301 . S
C166 N170 1.328 . S
C166 H171 0.930 . S
C167 C168 1.333 . S
C167 N169 1.317 . S
C167 H172 0.930 . S
C168 C167 1.333 . S
C168 N170 1.350 . S
C168 H194 0.931 . S
N169 Co165 2.148 . S
N169 C166 1.301 . S
N169 C167 1.317 . S
N170 C166 1.328 . S
N170 C168 1.350 . S
H171 C166 0.930 . S
H172 C167 0.930 . S
C173 O174 1.224 . S
C173 O192 1.247 . S
O174 C173 1.224 . S
N175 Co165 2.128 . S
N175 C176 1.355 . S
N175 C178 1.311 . S
C176 N175 1.355 . S
C176 C177 1.363 . S
C176 H188 0.929 . S
C177 C176 1.363 . S
C177 N179 1.375 . S
C177 H195 0.931 . S
C178 N175 1.311 . S
C178 N179 1.347 . S
C178 H189 0.929 . S
N179 C177 1.375 . S
N179 C178 1.347 . S
C180 C183 1.365 . S
C180 N185 1.328 . S
C180 H186 0.929 . S
C181 C182 1.362 . S
C181 C184 1.378 . S
C181 H196 0.929 . S
C182 C181 1.362 . S
C182 C183 1.366 . S
C183 C180 1.365 . S
C183 C182 1.366 . S
C183 H197 0.930 . S
C184 C181 1.378 . S
C184 N185 1.315 . S
C184 H187 0.930 . S
N185 Co165 2.194 . S
N185 C180 1.328 . S
N185 C184 1.315 . S
H186 C180 0.929 . S
H187 C184 0.930 . S
H188 C176 0.929 . S
H189 C178 0.929 . S
O190 Co165 2.351 . S
O190 C193 1.244 . S
O191 Co165 2.155 . S
O191 C193 1.240 . S
O192 Co165 2.096 . S
O192 C173 1.247 . S
C193 O190 1.244 . S
C193 O191 1.240 . S
H194 C168 0.931 . S
H195 C177 0.931 . S
H196 C181 0.929 . S
H197 C183 0.930 . S
H198 C204 0.930 . S
H199 C208 0.930 . S
H200 C213 0.929 . S
H201 C211 0.929 . S
H202 C206 0.929 . S
H203 C212 0.929 . S
C204 H198 0.930 . S
C204 C205 1.367 . S
C204 C212 1.378 . S
C205 C204 1.367 . S
C205 C213 1.433 . S
C206 H202 0.929 . S
C206 C208 1.378 . S
C206 C210 1.350 . S
C207 C210 1.463 . S
C207 C212 1.350 . S
C207 N215 1.427 . S
C208 H199 0.930 . S
C208 C206 1.378 . S
C208 C209 1.367 . S
C209 C208 1.367 . S
C209 C211 1.433 . S
C210 C206 1.350 . S
C210 C207 1.463 . S
C210 N214 1.427 . S
C211 H201 0.929 . S
C211 C209 1.433 . S
C211 N214 1.384 . S
C212 H203 0.929 . S
C212 C204 1.378 . S
C212 C207 1.350 . S
C213 H200 0.929 . S
C213 C205 1.433 . S
C213 N215 1.384 . S
N214 C210 1.427 . S
N214 C211 1.384 . S
N215 C207 1.427 . S
N215 C213 1.384 . S
H216 C222 0.930 . S
H217 C226 0.930 . S
H218 C231 0.929 . S
H219 C229 0.929 . S
H220 C224 0.929 . S
H221 C230 0.929 . S
C222 H216 0.930 . S
C222 C223 1.367 . S
C222 C230 1.378 . S
C223 C222 1.367 . S
C223 C231 1.433 . S
C224 H220 0.929 . S
C224 C226 1.378 . S
C224 C228 1.350 . S
C225 C228 1.463 . S
C225 C230 1.350 . S
C225 N233 1.427 . S
C226 H217 0.930 . S
C226 C224 1.378 . S
C226 C227 1.367 . S
C227 C226 1.367 . S
C227 C229 1.433 . S
C228 C224 1.350 . S
C228 C225 1.463 . S
C228 N232 1.427 . S
C229 H219 0.929 . S
C229 C227 1.433 . S
C229 N232 1.384 . S
C230 H221 0.929 . S
C230 C222 1.378 . S
C230 C225 1.350 . S
C231 H218 0.929 . S
C231 C223 1.433 . S
C231 N233 1.384 . S
N232 C228 1.427 . S
N232 C229 1.384 . S
N233 C225 1.427 . S
N233 C231 1.384 . S
H234 C240 0.930 . S
H235 C244 0.930 . S
H236 C249 0.929 . S
H237 C247 0.929 . S
H238 C242 0.929 . S
H239 C248 0.929 . S
C240 H234 0.930 . S
C240 C241 1.367 . S
C240 C248 1.378 . S
C241 C240 1.367 . S
C241 C249 1.433 . S
C242 H238 0.929 . S
C242 C244 1.378 . S
C242 C246 1.350 . S
C243 C246 1.463 . S
C243 C248 1.350 . S
C243 N251 1.427 . S
C244 H235 0.930 . S
C244 C242 1.378 . S
C244 C245 1.367 . S
C245 C244 1.367 . S
C245 C247 1.433 . S
C246 C242 1.350 . S
C246 C243 1.463 . S
C246 N250 1.427 . S
C247 H237 0.929 . S
C247 C245 1.433 . S
C247 N250 1.384 . S
C248 H239 0.929 . S
C248 C240 1.378 . S
C248 C243 1.350 . S
C249 H236 0.929 . S
C249 C241 1.433 . S
C249 N251 1.384 . S
N250 C246 1.427 . S
N250 C247 1.384 . S
N251 C243 1.427 . S
N251 C249 1.384 . S
H252 C258 0.930 . S
H253 C262 0.930 . S
H254 C267 0.929 . S
H255 C265 0.929 . S
H256 C260 0.929 . S
H257 C266 0.929 . S
C258 H252 0.930 . S
C258 C259 1.367 . S
C258 C266 1.378 . S
C259 C258 1.367 . S
C259 C267 1.433 . S
C260 H256 0.929 . S
C260 C262 1.378 . S
C260 C264 1.350 . S
C261 C264 1.463 . S
C261 C266 1.350 . S
C261 N269 1.427 . S
C262 H253 0.930 . S
C262 C260 1.378 . S
C262 C263 1.367 . S
C263 C262 1.367 . S
C263 C265 1.433 . S
C264 C260 1.350 . S
C264 C261 1.463 . S
C264 N268 1.427 . S
C265 H255 0.929 . S
C265 C263 1.433 . S
C265 N268 1.384 . S
C266 H257 0.929 . S
C266 C258 1.378 . S
C266 C261 1.350 . S
C267 H254 0.929 . S
C267 C259 1.433 . S
C267 N269 1.384 . S
N268 C264 1.427 . S
N268 C265 1.384 . S
N269 C261 1.427 . S
N269 C267 1.384 . S
H270 C276 0.930 . S
H271 C280 0.930 . S
H272 C285 0.929 . S
H273 C283 0.929 . S
H274 C278 0.929 . S
H275 C284 0.929 . S
C276 H270 0.930 . S
C276 C277 1.367 . S
C276 C284 1.378 . S
C277 C276 1.367 . S
C277 C285 1.433 . S
C278 H274 0.929 . S
C278 C280 1.378 . S
C278 C282 1.350 . S
C279 C282 1.463 . S
C279 C284 1.350 . S
C279 N287 1.427 . S
C280 H271 0.930 . S
C280 C278 1.378 . S
C280 C281 1.367 . S
C281 C280 1.367 . S
C281 C283 1.433 . S
C282 C278 1.350 . S
C282 C279 1.463 . S
C282 N286 1.427 . S
C283 H273 0.929 . S
C283 C281 1.433 . S
C283 N286 1.384 . S
C284 H275 0.929 . S
C284 C276 1.378 . S
C284 C279 1.350 . S
C285 H272 0.929 . S
C285 C277 1.433 . S
C285 N287 1.384 . S
N286 C282 1.427 . S
N286 C283 1.384 . S
N287 C279 1.427 . S
N287 C285 1.384 . S
H288 C294 0.930 . S
H289 C298 0.930 . S
H290 C303 0.929 . S
H291 C301 0.929 . S
H292 C296 0.929 . S
H293 C302 0.929 . S
C294 H288 0.930 . S
C294 C295 1.367 . S
C294 C302 1.378 . S
C295 C294 1.367 . S
C295 C303 1.433 . S
C296 H292 0.929 . S
C296 C298 1.378 . S
C296 C300 1.350 . S
C297 C300 1.463 . S
C297 C302 1.350 . S
C297 N305 1.427 . S
C298 H289 0.930 . S
C298 C296 1.378 . S
C298 C299 1.367 . S
C299 C298 1.367 . S
C299 C301 1.433 . S
C300 C296 1.350 . S
C300 C297 1.463 . S
C300 N304 1.427 . S
C301 H291 0.929 . S
C301 C299 1.433 . S
C301 N304 1.384 . S
C302 H293 0.929 . S
C302 C294 1.378 . S
C302 C297 1.350 . S
C303 H290 0.929 . S
C303 C295 1.433 . S
C303 N305 1.384 . S
N304 C300 1.427 . S
N304 C301 1.384 . S
N305 C297 1.427 . S
N305 C303 1.384 . S
H306 C312 0.930 . S
H307 C316 0.930 . S
H308 C321 0.929 . S
H309 C319 0.929 . S
H310 C314 0.929 . S
H311 C320 0.929 . S
C312 H306 0.930 . S
C312 C313 1.367 . S
C312 C320 1.378 . S
C313 C312 1.367 . S
C313 C321 1.433 . S
C314 H310 0.929 . S
C314 C316 1.378 . S
C314 C318 1.350 . S
C315 C318 1.463 1_655 S
C315 C320 1.350 . S
C315 N323 1.427 . S
C316 H307 0.930 . S
C316 C314 1.378 . S
C316 C317 1.367 . S
C317 C316 1.367 . S
C317 C319 1.433 . S
C318 C314 1.350 . S
C318 C315 1.463 1_455 S
C318 N322 1.427 . S
C319 H309 0.929 . S
C319 C317 1.433 . S
C319 N322 1.384 . S
C320 H311 0.929 . S
C320 C312 1.378 . S
C320 C315 1.350 . S
C321 H308 0.929 . S
C321 C313 1.433 . S
C321 N323 1.384 . S
N322 C318 1.427 . S
N322 C319 1.384 . S
N323 C315 1.427 . S
N323 C321 1.384 . S
H324 C330 0.930 . S
H325 C334 0.930 . S
H326 C339 0.929 . S
H327 C337 0.929 . S
H328 C332 0.929 . S
H329 C338 0.929 . S
C330 H324 0.930 . S
C330 C331 1.367 . S
C330 C338 1.378 . S
C331 C330 1.367 . S
C331 C339 1.433 . S
C332 H328 0.929 . S
C332 C334 1.378 . S
C332 C336 1.350 . S
C333 C336 1.463 . S
C333 C338 1.350 . S
C333 N341 1.427 . S
C334 H325 0.930 . S
C334 C332 1.378 . S
C334 C335 1.367 . S
C335 C334 1.367 . S
C335 C337 1.433 . S
C336 C332 1.350 . S
C336 C333 1.463 . S
C336 N340 1.427 . S
C337 H327 0.929 . S
C337 C335 1.433 . S
C337 N340 1.384 . S
C338 H329 0.929 . S
C338 C330 1.378 . S
C338 C333 1.350 . S
C339 H326 0.929 . S
C339 C331 1.433 . S
C339 N341 1.384 . S
N340 C336 1.427 . S
N340 C337 1.384 . S
N341 C333 1.427 . S
N341 C339 1.384 . S
H342 C348 0.930 . S
H343 C352 0.930 . S
H344 C357 0.929 . S
H345 C355 0.929 . S
H346 C350 0.929 . S
H347 C356 0.929 . S
C348 H342 0.930 . S
C348 C349 1.367 . S
C348 C356 1.378 . S
C349 C348 1.367 . S
C349 C357 1.433 . S
C350 H346 0.929 . S
C350 C352 1.378 . S
C350 C354 1.350 . S
C351 C354 1.463 1_545 S
C351 C356 1.350 . S
C351 N359 1.427 . S
C352 H343 0.930 . S
C352 C350 1.378 . S
C352 C353 1.367 . S
C353 C352 1.367 . S
C353 C355 1.433 . S
C354 C350 1.350 . S
C354 C351 1.463 1_565 S
C354 N358 1.427 . S
C355 H345 0.929 . S
C355 C353 1.433 . S
C355 N358 1.384 . S
C356 H347 0.929 . S
C356 C348 1.378 . S
C356 C351 1.350 . S
C357 H344 0.929 . S
C357 C349 1.433 . S
C357 N359 1.384 . S
N358 C354 1.427 . S
N358 C355 1.384 . S
N359 C351 1.427 . S
N359 C357 1.384 . S
H360 C366 0.930 . S
H361 C370 0.930 . S
H362 C375 0.929 . S
H363 C373 0.929 . S
H364 C368 0.929 . S
H365 C374 0.929 . S
C366 H360 0.930 . S
C366 C367 1.367 1_554 S
C366 C374 1.378 . S
C367 C366 1.367 1_556 S
C367 C375 1.433 . S
C368 H364 0.929 . S
C368 C370 1.378 . S
C368 C372 1.350 1_556 S
C369 C372 1.463 1_556 S
C369 C374 1.350 1_556 S
C369 N377 1.427 . S
C370 H361 0.930 . S
C370 C368 1.378 . S
C370 C371 1.367 1_556 S
C371 C370 1.367 1_554 S
C371 C373 1.433 . S
C372 C368 1.350 1_554 S
C372 C369 1.463 1_554 S
C372 N376 1.427 . S
C373 H363 0.929 . S
C373 C371 1.433 . S
C373 N376 1.384 . S
C374 H365 0.929 . S
C374 C366 1.378 . S
C374 C369 1.350 1_554 S
C375 H362 0.929 . S
C375 C367 1.433 . S
C375 N377 1.384 . S
N376 C372 1.427 . S
N376 C373 1.384 . S
N377 C369 1.427 . S
N377 C375 1.384 . S
H378 C384 0.930 . S
H379 C388 0.930 . S
H380 C393 0.929 . S
H381 C391 0.929 . S
H382 C386 0.929 . S
H383 C392 0.929 . S
C384 H378 0.930 . S
C384 C385 1.367 . S
C384 C392 1.378 . S
C385 C384 1.367 . S
C385 C393 1.433 . S
C386 H382 0.929 . S
C386 C388 1.378 . S
C386 C390 1.350 . S
C387 C390 1.463 1_545 S
C387 C392 1.350 . S
C387 N395 1.427 . S
C388 H379 0.930 . S
C388 C386 1.378 . S
C388 C389 1.367 . S
C389 C388 1.367 . S
C389 C391 1.433 . S
C390 C386 1.350 . S
C390 C387 1.463 1_565 S
C390 N394 1.427 . S
C391 H381 0.929 . S
C391 C389 1.433 . S
C391 N394 1.384 . S
C392 H383 0.929 . S
C392 C384 1.378 . S
C392 C387 1.350 . S
C393 H380 0.929 . S
C393 C385 1.433 . S
C393 N395 1.384 . S
N394 C390 1.427 . S
N394 C391 1.384 . S
N395 C387 1.427 . S
N395 C393 1.384 . S
H396 C402 0.930 . S
H397 C406 0.930 . S
H398 C411 0.929 . S
H399 C409 0.929 . S
H400 C404 0.929 . S
H401 C410 0.929 . S
C402 H396 0.930 . S
C402 C403 1.367 . S
C402 C410 1.378 . S
C403 C402 1.367 . S
C403 C411 1.433 . S
C404 H400 0.929 . S
C404 C406 1.378 . S
C404 C408 1.350 . S
C405 C408 1.463 1_455 S
C405 C410 1.350 . S
C405 N413 1.427 . S
C406 H397 0.930 . S
C406 C404 1.378 . S
C406 C407 1.367 . S
C407 C406 1.367 . S
C407 C409 1.433 . S
C408 C404 1.350 . S
C408 C405 1.463 1_655 S
C408 N412 1.427 . S
C409 H399 0.929 . S
C409 C407 1.433 . S
C409 N412 1.384 . S
C410 H401 0.929 . S
C410 C402 1.378 . S
C410 C405 1.350 . S
C411 H398 0.929 . S
C411 C403 1.433 . S
C411 N413 1.384 . S
N412 C408 1.427 . S
N412 C409 1.384 . S
N413 C405 1.427 . S
N413 C411 1.384 . S
H414 C420 0.930 . S
H415 C424 0.930 . S
H416 C429 0.929 . S
H417 C427 0.929 . S
H418 C422 0.929 . S
H419 C428 0.929 . S
C420 H414 0.930 . S
C420 C421 1.367 . S
C420 C428 1.378 . S
C421 C420 1.367 . S
C421 C429 1.433 . S
C422 H418 0.929 . S
C422 C424 1.378 . S
C422 C426 1.350 . S
C423 C426 1.463 1_655 S
C423 C428 1.350 . S
C423 N431 1.427 . S
C424 H415 0.930 . S
C424 C422 1.378 . S
C424 C425 1.367 . S
C425 C424 1.367 . S
C425 C427 1.433 . S
C426 C422 1.350 . S
C426 C423 1.463 1_455 S
C426 N430 1.427 . S
C427 H417 0.929 . S
C427 C425 1.433 . S
C427 N430 1.384 . S
C428 H419 0.929 . S
C428 C420 1.378 . S
C428 C423 1.350 . S
C429 H416 0.929 . S
C429 C421 1.433 . S
C429 N431 1.384 . S
N430 C426 1.427 . S
N430 C427 1.384 . S
N431 C423 1.427 . S
N431 C429 1.384 . S
H432 C438 0.930 . S
H433 C442 0.930 . S
H434 C447 0.929 . S
H435 C445 0.929 . S
H436 C440 0.929 . S
H437 C446 0.929 . S
C438 H432 0.930 . S
C438 C439 1.367 . S
C438 C446 1.378 . S
C439 C438 1.367 . S
C439 C447 1.433 . S
C440 H436 0.929 . S
C440 C442 1.378 . S
C440 C444 1.350 . S
C441 C444 1.463 1_556 S
C441 C446 1.350 . S
C441 N449 1.427 . S
C442 H433 0.930 . S
C442 C440 1.378 . S
C442 C443 1.367 . S
C443 C442 1.367 . S
C443 C445 1.433 . S
C444 C440 1.350 . S
C444 C441 1.463 1_554 S
C444 N448 1.427 . S
C445 H435 0.929 . S
C445 C443 1.433 . S
C445 N448 1.384 . S
C446 H437 0.929 . S
C446 C438 1.378 . S
C446 C441 1.350 . S
C447 H434 0.929 . S
C447 C439 1.433 . S
C447 N449 1.384 . S
N448 C444 1.427 . S
N448 C445 1.384 . S
N449 C441 1.427 . S
N449 C447 1.384 . S
H450 C456 0.930 . S
H451 C460 0.930 . S
H452 C465 0.929 . S
H453 C463 0.929 . S
H454 C458 0.929 . S
H455 C464 0.929 . S
C456 H450 0.930 . S
C456 C457 1.367 . S
C456 C464 1.378 . S
C457 C456 1.367 . S
C457 C465 1.433 . S
C458 H454 0.929 . S
C458 C460 1.378 . S
C458 C462 1.350 . S
C459 C462 1.463 1_545 S
C459 C464 1.350 . S
C459 N467 1.427 . S
C460 H451 0.930 . S
C460 C458 1.378 . S
C460 C461 1.367 . S
C461 C460 1.367 . S
C461 C463 1.433 . S
C462 C458 1.350 . S
C462 C459 1.463 1_565 S
C462 N466 1.427 . S
C463 H453 0.929 . S
C463 C461 1.433 . S
C463 N466 1.384 . S
C464 H455 0.929 . S
C464 C456 1.378 . S
C464 C459 1.350 . S
C465 H452 0.929 . S
C465 C457 1.433 . S
C465 N467 1.384 . S
N466 C462 1.427 . S
N466 C463 1.384 . S
N467 C459 1.427 . S
N467 C465 1.384 . S
C205 N80 1.141 . S
C209 C28 1.200 . S
C223 C61 1.208 . S
C227 N14 1.157 . S
C241 C94 1.200 . S
C245 N47 1.138 . S
C259 C127 1.206 . S
C263 N146 1.144 . S
C277 N179 1.139 . S
C281 C160 1.200 . S
C295 N113 1.144 . S
C299 C193 1.205 . S
C313 C149 0.694 . S
C317 C17 0.697 . S
C331 C182 0.696 . S
C335 C50 0.694 . S
C349 C116 0.696 . S
C353 C83 0.696 . S
C367 C107 1.795 . S
C371 C8 1.795 . S
C385 C140 1.795 . S
C389 C41 1.794 . S
C403 C74 1.798 . S
C407 C173 1.796 . S
C421 N137 2.018 . S
C425 N5 2.014 . S
C439 N38 2.014 . S
C443 N170 2.018 . S
C457 N104 2.016 . S
C461 N71 2.020 . S
