# Generated by pormake.
# Topology snz, (6)-cn, num edge types: 1
# Building blocks:
#     Node 0, Type 0, BuildingBlock: BETFAJ_clean_sbu_0, # of connection points: 6
#     Node 1, Type 0, BuildingBlock: BETFAJ_clean_sbu_0, # of connection points: 6
#     Node 2, Type 0, BuildingBlock: BETFAJ_clean_sbu_0, # of connection points: 6
#     Node 3, Type 0, BuildingBlock: BETFAJ_clean_sbu_0, # of connection points: 6
#     Node 4, Type 0, BuildingBlock: BETFAJ_clean_sbu_0, # of connection points: 6
#     Node 5, Type 0, BuildingBlock: BETFAJ_clean_sbu_0, # of connection points: 6
#     Node 6, Type 0, BuildingBlock: BETFAJ_clean_sbu_0, # of connection points: 6
#     Node 7, Type 0, BuildingBlock: BETFAJ_clean_sbu_0, # of connection points: 6
#     Node 8, Type 0, BuildingBlock: BETFAJ_clean_sbu_0, # of connection points: 6
#     Edge 9, Type (0, 0), BuildingBlock: CIFDUS_clean_linker_0, # of connection points: 2
#     Edge 10, Type (0, 0), BuildingBlock: CIFDUS_clean_linker_0, # of connection points: 2
#     Edge 11, Type (0, 0), BuildingBlock: CIFDUS_clean_linker_0, # of connection points: 2
#     Edge 12, Type (0, 0), BuildingBlock: CIFDUS_clean_linker_0, # of connection points: 2
#     Edge 13, Type (0, 0), BuildingBlock: CIFDUS_clean_linker_0, # of connection points: 2
#     Edge 14, Type (0, 0), BuildingBlock: CIFDUS_clean_linker_0, # of connection points: 2
#     Edge 15, Type (0, 0), BuildingBlock: CIFDUS_clean_linker_0, # of connection points: 2
#     Edge 16, Type (0, 0), BuildingBlock: CIFDUS_clean_linker_0, # of connection points: 2
#     Edge 17, Type (0, 0), BuildingBlock: CIFDUS_clean_linker_0, # of connection points: 2
#     Edge 18, Type (0, 0), BuildingBlock: CIFDUS_clean_linker_0, # of connection points: 2
#     Edge 19, Type (0, 0), BuildingBlock: CIFDUS_clean_linker_0, # of connection points: 2
#     Edge 20, Type (0, 0), BuildingBlock: CIFDUS_clean_linker_0, # of connection points: 2
#     Edge 21, Type (0, 0), BuildingBlock: CIFDUS_clean_linker_0, # of connection points: 2
#     Edge 22, Type (0, 0), BuildingBlock: CIFDUS_clean_linker_0, # of connection points: 2
#     Edge 23, Type (0, 0), BuildingBlock: CIFDUS_clean_linker_0, # of connection points: 2
#     Edge 24, Type (0, 0), BuildingBlock: CIFDUS_clean_linker_0, # of connection points: 2
#     Edge 25, Type (0, 0), BuildingBlock: CIFDUS_clean_linker_0, # of connection points: 2
#     Edge 26, Type (0, 0), BuildingBlock: CIFDUS_clean_linker_0, # of connection points: 2
#     Edge 27, Type (0, 0), BuildingBlock: CIFDUS_clean_linker_0, # of connection points: 2
#     Edge 28, Type (0, 0), BuildingBlock: CIFDUS_clean_linker_0, # of connection points: 2
#     Edge 29, Type (0, 0), BuildingBlock: CIFDUS_clean_linker_0, # of connection points: 2
#     Edge 30, Type (0, 0), BuildingBlock: CIFDUS_clean_linker_0, # of connection points: 2
#     Edge 31, Type (0, 0), BuildingBlock: CIFDUS_clean_linker_0, # of connection points: 2
#     Edge 32, Type (0, 0), BuildingBlock: CIFDUS_clean_linker_0, # of connection points: 2
#     Edge 33, Type (0, 0), BuildingBlock: CIFDUS_clean_linker_0, # of connection points: 2
#     Edge 34, Type (0, 0), BuildingBlock: CIFDUS_clean_linker_0, # of connection points: 2
#     Edge 35, Type (0, 0), BuildingBlock: CIFDUS_clean_linker_0, # of connection points: 2
# Relax obj value: 0.506
# Max RMSD: 0.276
# Mean RMSD: 0.182
data_MOF--net-snz--node1-BETFAJ_clean_sbu_0--edge1-CIFDUS_clean_linker_0
_symmetry_space_group_name_H-M    P1
_symmetry_Int_Tables_number       1
_symmetry_cell_setting            triclinic
loop_
_symmetry_equiv_pos_as_xyz
'x, y, z'
_cell_length_a     62.770708
_cell_length_b     48.993196
_cell_length_c     13.893856
_cell_angle_alpha  96.032149
_cell_angle_beta   97.701022
_cell_angle_gamma 121.61319
loop_
_atom_site_label
_atom_site_type_symbol
_atom_site_fract_x
_atom_site_fract_y
_atom_site_fract_z
_atom_type_partial_charge
Sm0 Sm 0.12639 0.4887 0.29034 0.0
Sm1 Sm 0.08581 0.49378 0.28633 0.0
C2 C 0.15508 0.46554 0.34513 0.0
C3 C 0.17103 0.4531 0.38339 0.0
C4 C 0.17695 0.45406 0.48558 0.0
C5 C 0.1875 0.43677 0.5205 0.0
C6 C 0.19165 0.41728 0.45377 0.0
C7 C 0.18639 0.41707 0.35178 0.0
C8 C 0.17649 0.43508 0.31713 0.0
C9 C 0.11367 0.49567 1.09385 0.0
C10 C 0.06842 0.42018 0.19707 0.0
C11 C 0.05174 0.51109 0.27319 0.0
C12 C 0.03681 0.52088 0.21071 0.0
C13 C 0.04883 0.54831 0.16683 0.0
C14 C 0.03459 0.55945 0.11878 0.0
C15 C 1.00803 0.54345 0.11354 0.0
C16 C 0.99603 0.51558 0.15567 0.0
C17 C 1.01026 0.50451 0.20373 0.0
C18 C 0.10096 0.48742 0.48223 0.0
C19 C 0.14163 0.56311 0.32682 0.0
O20 O 0.13501 0.4593 0.37969 0.0
O21 O 0.16093 0.48558 0.2833 0.0
O22 O 0.09745 0.4795 0.14608 0.0
O23 O 0.13683 0.50851 0.14626 0.0
O24 O 0.09297 0.43309 0.23499 0.0
O25 O 0.06005 0.43979 0.19923 0.0
O26 O 0.04519 0.48071 0.255 0.0
O27 O 0.07648 0.53168 0.3019 0.0
O28 O 0.11568 0.5052 0.42874 0.0
O29 O 0.07779 0.47105 0.42873 0.0
O30 O 0.11734 0.5471 0.27949 0.0
O31 O 0.15099 0.54556 0.35249 0.0
H32 H 0.17257 0.4673 0.5383 0.0
H33 H 0.19117 0.43728 0.59931 0.0
H34 H 0.18936 0.40228 0.29852 0.0
H35 H 0.17168 0.43334 0.23793 0.0
H36 H 0.06931 0.56159 0.17128 0.0
H37 H 0.04444 0.58067 1.08596 0.0
H38 H 0.97571 0.50283 0.1543 0.0
H39 H 1.00057 0.48361 0.23813 0.0
Sm40 Sm 0.63374 0.51145 1.07788 0.0
Sm41 Sm 0.59225 0.50999 1.04525 0.0
C42 C 0.68052 0.52173 1.08906 0.0
C43 C 0.70623 0.54151 1.06456 0.0
C44 C 0.72805 0.56278 0.14132 0.0
C45 C 0.75279 0.57833 0.12253 0.0
C46 C 0.75652 0.57299 1.02631 0.0
C47 C 0.73462 0.5525 0.94878 0.0
C48 C 0.70982 0.53686 0.96768 0.0
C49 C 0.61555 0.50112 0.25823 0.0
C50 C 0.64029 0.58341 0.11053 0.0
C51 C 0.54512 0.49687 1.03768 0.0
C52 C 0.52606 0.4805 1.09779 0.0
C53 C 0.53389 0.47958 0.19632 0.0
C54 C 0.51574 0.46375 0.25283 0.0
C55 C 0.48938 0.44824 0.21161 0.0
C56 C 0.48162 0.4488 0.11233 0.0
C57 C 0.49981 0.46485 1.05604 0.0
C58 C 0.60994 0.51947 0.86342 0.0
C59 C 0.58331 0.43784 1.0218 0.0
O60 O 0.66063 0.50111 1.01775 0.0
O61 O 0.67473 0.53543 0.15729 0.0
O62 O 0.61578 0.52126 0.20557 0.0
O63 O 0.6231 0.48467 0.21067 0.0
O64 O 0.65129 0.56793 1.08405 0.0
O65 O 0.61596 0.56536 0.11278 0.0
O66 O 0.54998 0.47823 0.98395 0.0
O67 O 0.56591 0.52489 1.08223 0.0
O68 O 0.61005 0.4998 0.91735 0.0
O69 O 0.6019 0.53547 0.90966 0.0
O70 O 0.5737 0.45464 1.05105 0.0
O71 O 0.60753 0.45483 1.01536 0.0
H72 H 0.72605 0.56672 0.2169 0.0
H73 H 0.76907 0.5943 0.18399 0.0
H74 H 0.73663 0.5475 0.87391 0.0
H75 H 0.69354 0.52039 0.90672 0.0
H76 H 0.55406 0.49106 0.22957 0.0
H77 H 0.52232 0.46335 0.32851 0.0
H78 H 0.46148 0.4373 1.07865 0.0
H79 H 0.49339 0.46508 0.97992 0.0
Sm80 Sm 0.5834 0.04091 0.83595 0.0
Sm81 Sm 0.63186 0.09518 0.89968 0.0
C82 C 0.53388 0.99426 0.80709 0.0
C83 C 0.51655 0.979 0.87405 0.0
C84 C 0.52222 0.99566 0.97192 0.0
C85 C 0.50551 0.98132 1.03476 0.0
C86 C 0.48294 0.9499 1.0013 0.0
C87 C 0.47754 0.93314 0.90361 0.0
C88 C 0.49417 0.94762 0.8405 0.0
C89 C 0.60367 0.06029 0.66371 0.0
C90 C 0.58544 0.10791 0.8814 0.0
C91 C 0.68201 0.13698 0.90297 0.0
C92 C 0.7066 0.13836 0.9022 0.0
C93 C 0.71355 0.11988 0.95364 0.0
C94 C 0.73667 0.12163 0.94913 0.0
C95 C 0.75367 0.14187 0.89282 0.0
C96 C 0.74647 0.16023 0.8416 0.0
C97 C 0.72345 0.15846 0.8462 0.0
C98 C 0.61219 0.07833 1.07298 0.0
C99 C 0.6245 0.02326 0.89883 0.0
O100 O 0.54248 0.025 0.8083 0.0
O101 O 0.5517 0.9881 0.8059 0.0
O102 O 0.60604 0.07906 0.74166 0.0
O103 O 0.59111 0.03066 0.67851 0.0
O104 O 0.57346 0.07773 0.89493 0.0
O105 O 0.60945 0.12145 0.8701 0.0
O106 O 0.66393 0.12123 0.82239 0.0
O107 O 0.67258 0.13285 0.98254 0.0
O108 O 0.60877 0.05823 0.99578 0.0
O109 O 0.62589 0.10808 1.0577 0.0
O110 O 0.64022 0.05358 0.88929 0.0
O111 O 0.60028 1.01255 0.89242 0.0
H112 H 0.53956 0.0198 0.99969 0.0
H113 H 0.5104 0.99468 0.10994 0.0
H114 H 0.46023 0.90902 0.87543 0.0
H115 H 0.48951 0.93437 0.76534 0.0
H116 H 0.70105 0.10392 0.99701 0.0
H117 H 0.74098 0.10664 0.98892 0.0
H118 H 0.75883 0.17657 0.7987 0.0
H119 H 0.71882 0.17306 0.80558 0.0
Sm120 Sm 0.78885 0.85417 0.29993 0.0
Sm121 Sm 0.74699 0.85743 0.29685 0.0
C122 C 0.82512 0.84068 0.31821 0.0
C123 C 0.83438 0.82323 0.37249 0.0
C124 C 0.82265 0.80672 0.44545 0.0
C125 C 0.83207 0.79045 0.49579 0.0
C126 C 0.85342 0.79055 0.47414 0.0
C127 C 0.86475 0.80679 0.3998 0.0
C128 C 0.85535 0.82295 0.34978 0.0
C129 C 0.77383 0.86142 0.10516 0.0
C130 C 0.73447 0.78366 0.27023 0.0
C131 C 0.71027 0.86988 0.25383 0.0
C132 C 0.70457 0.89288 0.21318 0.0
C133 C 0.7207 0.91589 0.1616 0.0
C134 C 0.71392 0.93603 0.11961 0.0
C135 C 0.69078 0.93351 0.12768 0.0
C136 C 0.67494 0.91062 0.18064 0.0
C137 C 0.68175 0.89065 0.22262 0.0
C138 C 0.76109 0.8501 0.49177 0.0
C139 C 0.80401 0.92776 0.36308 0.0
O140 O 0.82798 0.86683 0.36841 0.0
O141 O 0.80314 0.82277 0.25466 0.0
O142 O 0.75896 0.84342 0.15801 0.0
O143 O 0.79703 0.87753 0.15874 0.0
O144 O 0.75926 0.80054 0.31012 0.0
O145 O 0.72384 0.80011 0.24879 0.0
O146 O 0.71391 0.85152 0.1924 0.0
O147 O 0.72566 0.8801 0.34082 0.0
O148 O 0.77656 0.86762 0.43937 0.0
O149 O 0.73778 0.83509 0.43866 0.0
O150 O 0.77944 0.9136 0.32079 0.0
O151 O 0.813 0.90907 0.37276 0.0
H152 H 0.80633 0.80654 0.46368 0.0
H153 H 0.82293 0.7783 0.55277 0.0
H154 H 0.88083 0.8068 0.37955 0.0
H155 H 0.8645 0.83528 0.29302 0.0
H156 H 0.73837 0.91802 0.15279 0.0
H157 H 0.72659 0.95309 1.079 0.0
H158 H 0.65726 0.90822 0.19048 0.0
H159 H 0.66896 0.87313 0.26199 0.0
Sm160 Sm 0.28645 0.83684 0.55164 0.0
Sm161 Sm 0.24523 0.83585 0.51968 0.0
C162 C 0.33299 0.84818 0.55477 0.0
C163 C 0.35212 0.86443 0.49489 0.0
C164 C 0.34997 0.88422 0.43328 0.0
C165 C 0.36772 0.89893 0.37444 0.0
C166 C 0.38782 0.89385 0.37517 0.0
C167 C 0.3898 0.87383 0.4366 0.0
C168 C 0.37212 0.85932 0.49613 0.0
C169 C 0.26907 0.82744 0.7342 0.0
C170 C 0.29569 0.90936 0.58214 0.0
C171 C 0.19852 0.8259 0.50612 0.0
C172 C 0.17356 0.8075 0.53682 0.0
C173 C 0.15533 0.77404 0.49583 0.0
C174 C 0.13081 0.75814 0.51707 0.0
C175 C 0.1238 0.77522 0.57975 0.0
C176 C 0.14229 0.8085 0.62227 0.0
C177 C 0.16674 0.82439 0.60082 0.0
C178 C 0.26356 0.84613 0.33943 0.0
C179 C 0.23776 0.76343 0.49043 0.0
O180 O 0.32875 0.86695 0.6114 0.0
O181 O 0.31182 0.82099 0.50808 0.0
O182 O 0.26868 0.84696 0.68027 0.0
O183 O 0.27728 0.81164 0.68799 0.0
O184 O 0.3053 0.89277 0.55079 0.0
O185 O 0.27145 0.89208 0.58805 0.0
O186 O 0.21877 0.84862 0.57271 0.0
O187 O 0.20397 0.8101 0.44321 0.0
O188 O 0.26289 0.82573 0.39172 0.0
O189 O 0.25636 0.86292 0.38748 0.0
O190 O 0.22709 0.77939 0.5164 0.0
O191 O 0.26206 0.78109 0.48744 0.0
H192 H 0.33443 0.88808 0.42999 0.0
H193 H 0.36544 0.91382 0.32694 0.0
H194 H 0.40517 0.86964 0.43932 0.0
H195 H 0.37399 0.84396 0.54276 0.0
H196 H 0.15978 0.76022 0.44572 0.0
H197 H 0.11728 0.73242 0.48386 0.0
H198 H 0.13762 0.82268 0.66968 0.0
H199 H 0.18014 0.85028 0.63239 0.0
Sm200 Sm 0.24515 0.25094 0.68858 0.0
Sm201 Sm 0.29152 0.30202 0.74098 0.0
C202 C 0.19457 0.21024 0.6835 0.0
C203 C 0.17106 0.21027 0.69927 0.0
C204 C 0.16333 0.2056 0.79012 0.0
C205 C 0.14031 0.20247 0.80382 0.0
C206 C 0.12373 0.20364 0.7271 0.0
C207 C 0.13176 0.20914 0.63669 0.0
C208 C 0.15488 0.21221 0.62288 0.0
C209 C 0.26238 0.26089 0.5071 0.0
C210 C 0.25309 0.32243 0.67992 0.0
C211 C 0.34161 0.34731 0.77525 0.0
C212 C 0.36088 0.36148 0.71469 0.0
C213 C 0.35345 0.35808 0.61202 0.0
C214 C 0.37199 0.37137 0.55518 0.0
C215 C 0.39832 0.38814 0.59989 0.0
C216 C 0.40554 0.39103 0.70277 0.0
C217 C 0.387 0.37786 0.75949 0.0
C218 C 0.27262 0.28912 0.92044 0.0
C219 C 0.2899 0.23554 0.70359 0.0
O220 O 0.21299 0.21991 0.76065 0.0
O221 O 0.2037 0.21904 0.60535 0.0
O222 O 0.26686 0.28369 0.57812 0.0
O223 O 0.25017 0.23301 0.53557 0.0
O224 O 0.23779 0.29338 0.69899 0.0
O225 O 0.27668 0.3317 0.67899 0.0
O226 O 0.33223 0.31668 0.77849 0.0
O227 O 0.32402 0.35405 0.76548 0.0
O228 O 0.27017 0.26803 0.84938 0.0
O229 O 0.28321 0.31673 0.89153 0.0
O230 O 0.30159 0.26503 0.68508 0.0
O231 O 0.26643 0.22329 0.71947 0.0
H232 H 0.17492 0.20373 0.85093 0.0
H233 H 0.13549 0.19895 0.87536 0.0
H234 H 0.11975 0.21 0.57503 0.0
H235 H 0.15979 0.21544 0.55133 0.0
H236 H 0.33332 0.34524 0.57592 0.0
H237 H 0.36569 0.36896 0.47654 0.0
H238 H 0.42555 0.40324 0.73954 0.0
H239 H 0.39307 0.38039 0.83846 0.0
Sm240 Sm 0.445 0.18061 0.71694 0.0
Sm241 Sm 0.4343 0.16983 0.87979 0.0
C242 C 0.44794 0.19908 0.54659 0.0
C243 C 0.45238 0.23149 0.53891 0.0
C244 C 0.43667 0.23441 0.46495 0.0
C245 C 0.43956 0.26472 0.46392 0.0
C246 C 0.45813 0.29287 0.53764 0.0
C247 C 0.47279 0.28925 0.61464 0.0
C248 C 0.47015 0.25914 0.61452 0.0
C249 C 0.47811 0.23971 0.85708 0.0
C250 C 0.39717 0.18724 0.7633 0.0
C251 C 0.44496 0.18354 1.07349 0.0
C252 C 0.4586 0.21804 0.12706 0.0
C253 C 0.48347 0.24132 0.11604 0.0
C254 C 0.49415 0.27489 0.14614 0.0
C255 C 0.4802 0.2861 0.18725 0.0
C256 C 0.4557 0.26264 0.2015 0.0
C257 C 0.4451 0.22915 0.17186 0.0
C258 C 0.39989 0.10824 0.75385 0.0
C259 C 0.4776 0.15519 0.81756 0.0
O260 O 0.42592 0.17836 0.56603 0.0
O261 O 0.46687 0.19945 0.60002 0.0
O262 O 0.45396 0.22122 0.84539 0.0
O263 O 0.48555 0.22472 0.80299 0.0
O264 O 0.40772 0.18205 0.6936 0.0
O265 O 0.40576 0.18653 0.85367 0.0
O266 O 0.42172 0.17117 1.02209 0.0
O267 O 0.45825 0.17638 1.02414 0.0
O268 O 0.42308 0.12786 0.74707 0.0
O269 O 0.3948 0.12115 0.82635 0.0
O270 O 0.46834 0.16153 0.89073 0.0
O271 O 0.46891 0.15696 0.72845 0.0
H272 H 0.42236 0.21335 0.40734 0.0
H273 H 0.42809 0.26627 0.40191 0.0
H274 H 0.48725 0.31014 0.67242 0.0
H275 H 0.48239 0.25773 0.67345 0.0
H276 H 0.49445 0.23378 1.08068 0.0
H277 H 0.51319 0.29208 0.13593 0.0
H278 H 0.44467 0.26999 0.23723 0.0
H279 H 0.42592 0.21194 0.18088 0.0
Sm280 Sm 0.93733 0.1599 0.83606 0.0
Sm281 Sm 0.93647 0.19063 0.6968 0.0
C282 C 0.93952 0.13323 0.9903 0.0
C283 C 0.96188 0.1347 1.04574 0.0
C284 C 0.96603 0.13864 0.14891 0.0
C285 C 0.99066 0.15169 0.20516 0.0
C286 C 1.01158 0.16201 0.15874 0.0
C287 C 1.00659 0.15338 1.05504 0.0
C288 C 0.98176 0.13944 0.99881 0.0
C289 C 0.91443 0.1145 0.65548 0.0
C290 C 0.88632 0.1639 0.78348 0.0
C291 C 0.94164 0.2189 0.54135 0.0
C292 C 0.96468 0.24231 0.50876 0.0
C293 C 0.98877 0.25988 0.57518 0.0
C294 C 1.01126 0.27545 0.53959 0.0
C295 C 1.00993 0.27316 0.43693 0.0
C296 C 0.98569 0.25874 0.37237 0.0
C297 C 0.96326 0.2433 0.40807 0.0
C298 C 0.95939 0.23628 0.87666 0.0
C299 C 0.98783 0.18725 0.74891 0.0
O300 O 0.93074 0.1169 0.89898 0.0
O301 O 0.94137 0.16126 0.99859 0.0
O302 O 0.90878 0.13506 0.68298 0.0
O303 O 0.93487 0.12138 0.71641 0.0
O304 O 0.90147 0.16257 0.85641 0.0
O305 O 0.89424 0.16992 0.70074 0.0
O306 O 0.93767 0.18981 0.53742 0.0
O307 O 0.93812 0.22973 0.62351 0.0
O308 O 0.96491 0.21549 0.84999 0.0
O309 O 0.93957 0.23027 0.81356 0.0
O310 O 0.97308 0.19018 0.67943 0.0
O311 O 0.9795 0.17894 0.82937 0.0
H312 H 0.95092 0.13488 0.18643 0.0
H313 H 0.9938 0.15808 0.2851 0.0
H314 H 1.02228 0.16097 1.01751 0.0
H315 H 0.97872 0.13553 0.91878 0.0
H316 H 0.99023 0.25942 0.65354 0.0
H317 H 0.02956 0.28655 0.59132 0.0
H318 H 0.98374 0.25613 0.29274 0.0
H319 H 0.94483 0.22988 0.35586 0.0
Sm320 Sm 0.92909 0.65456 0.71955 0.0
Sm321 Sm 0.95123 0.70505 0.88349 0.0
C322 C 0.90726 0.61636 0.5407 0.0
C323 C 0.88511 0.61162 0.47123 0.0
C324 C 0.86617 0.61354 0.50957 0.0
C325 C 0.85313 0.6256 0.45921 0.0
C326 C 0.85885 0.6356 0.37009 0.0
C327 C 0.87381 0.62739 0.32296 0.0
C328 C 0.88712 0.61571 0.37386 0.0
C329 C 0.94683 0.637 0.88091 0.0
C330 C 0.99137 0.70793 0.7629 0.0
C331 C 0.96315 0.74954 1.04017 0.0
C332 C 0.94615 0.7608 1.05651 0.0
C333 C 0.95174 0.78362 0.14075 0.0
C334 C 0.93231 0.78735 0.16476 0.0
C335 C 0.90662 0.76613 0.10933 0.0
C336 C 0.9029 0.7486 1.01465 0.0
C337 C 0.92246 0.74581 0.9891 0.0
C338 C 0.93374 0.72154 0.72034 0.0
C339 C 0.89053 0.65185 0.8502 0.0
O340 O 0.90275 0.60506 0.6218 0.0
O341 O 0.92778 0.64607 0.5581 0.0
O342 O 0.95869 0.66471 0.85844 0.0
O343 O 0.92498 0.61781 0.81853 0.0
O344 O 0.97034 0.68886 0.69181 0.0
O345 O 0.98906 0.71362 0.85446 0.0
O346 O 0.95364 0.71878 1.0442 0.0
O347 O 0.97297 0.75713 0.96281 0.0
O348 O 0.92127 0.69468 0.74729 0.0
O349 O 0.95701 0.73839 0.77181 0.0
O350 O 0.91177 0.66856 0.92003 0.0
O351 O 0.89254 0.64854 0.75762 0.0
H352 H 0.86389 0.61003 0.58401 0.0
H353 H 0.84185 0.63195 0.4973 0.0
H354 H 0.87883 0.63539 0.25493 0.0
H355 H 0.90156 0.61436 0.34279 0.0
H356 H 0.97045 0.79687 0.19095 0.0
H357 H 0.93702 0.80411 0.23301 0.0
H358 H 0.88423 0.73346 0.96474 0.0
H359 H 0.91825 0.72938 0.92052 0.0
H360 H 0.14654 0.52237 0.96112 0.0
H361 H 0.06637 0.45901 0.96029 0.0
H362 H 0.05559 0.45067 0.77884 0.0
H363 H 0.06838 0.46081 0.61518 0.0
H364 H 0.14843 0.52473 0.61556 0.0
H365 H 0.1593 0.53295 0.79717 0.0
C366 C 0.12661 0.50671 0.92189 0.0
C367 C 0.1074 0.49144 0.97854 0.0
C368 C 0.12035 0.50192 0.81468 0.0
C369 C 0.08183 0.47135 0.92244 0.0
C370 C 0.07559 0.46647 0.8171 0.0
C371 C 0.0883 0.47659 0.65432 0.0
C372 C 0.10746 0.49202 0.5976 0.0
C373 C 0.09458 0.48151 0.76149 0.0
C374 C 0.13302 0.51233 0.65358 0.0
C375 C 0.13931 0.51709 0.75897 0.0
H376 H 0.61446 0.47762 0.71426 0.0
H377 H 0.60786 0.56111 0.75148 0.0
H378 H 0.60838 0.56354 0.57732 0.0
H379 H 0.61075 0.54257 0.40713 0.0
H380 H 0.61728 0.45904 0.36951 0.0
H381 H 0.61664 0.45647 0.54364 0.0
C382 C 0.61321 0.49651 0.68516 0.0
C383 C 0.61115 0.51924 0.75104 0.0
C384 C 0.61343 0.49792 0.58098 0.0
C385 C 0.60947 0.54307 0.70675 0.0
C386 C 0.60975 0.54455 0.60516 0.0
C387 C 0.61199 0.52365 0.43616 0.0
C388 C 0.61413 0.50101 0.3703 0.0
C389 C 0.61169 0.52217 0.54021 0.0
C390 C 0.61568 0.47706 0.41434 0.0
C391 C 0.61533 0.47551 0.51589 0.0
H392 H 0.58968 0.01925 0.47545 0.0
H393 H 0.62554 0.12101 0.60949 0.0
H394 H 0.63112 0.13543 0.44662 0.0
H395 H 0.62613 0.11984 0.26132 0.0
H396 H 0.58986 0.01794 0.12768 0.0
H397 H 0.58432 1.00362 0.29043 0.0
C398 C 0.59878 0.04472 0.46994 0.0
C399 C 0.60715 0.06884 0.55895 0.0
C400 C 0.60192 0.05309 0.37341 0.0
C401 C 0.61878 0.10152 0.54575 0.0
C402 C 0.622 0.10988 0.45108 0.0
C403 C 0.61694 0.09438 0.26693 0.0
C404 C 0.60853 0.07017 0.17802 0.0
C405 C 0.61369 0.08602 0.36351 0.0
C406 C 0.5967 0.03749 0.19132 0.0
C407 C 0.5935 0.02918 0.28594 0.0
H408 H 0.72845 0.82302 0.62509 0.0
H409 H 0.80831 0.88875 0.62571 0.0
H410 H 0.8191 0.89823 0.80754 0.0
H411 H 0.8064 0.88844 0.97176 0.0
H412 H 0.72658 0.82253 0.97126 0.0
H413 H 0.71576 0.81308 0.78938 0.0
C414 C 0.74832 0.83944 0.66432 0.0
C415 C 0.76743 0.855 0.60743 0.0
C416 C 0.75459 0.845 0.77178 0.0
C417 C 0.79292 0.87614 0.66367 0.0
C418 C 0.79917 0.88167 0.76926 0.0
C419 C 0.78653 0.87198 0.93255 0.0
C420 C 0.76744 0.85638 0.98946 0.0
C421 C 0.78027 0.86638 0.8251 0.0
C422 C 0.74196 0.83516 0.93325 0.0
C423 C 0.73569 0.82965 0.82764 0.0
H424 H 0.2642 0.86903 0.88274 0.0
H425 H 0.27138 0.78599 0.84657 0.0
H426 H 0.27083 0.78361 1.02079 0.0
H427 H 0.26835 0.80461 0.19079 0.0
H428 H 0.26137 0.88779 0.22735 0.0
H429 H 0.26187 0.89014 1.05303 0.0
C430 C 0.26558 0.85024 0.91209 0.0
C431 C 0.26783 0.82763 0.84653 0.0
C432 C 0.26535 0.84889 1.01628 0.0
C433 C 0.26965 0.80394 0.89109 0.0
C434 C 0.26934 0.8025 0.99269 0.0
C435 C 0.26699 0.82341 0.16149 0.0
C436 C 0.26479 0.84604 0.22713 0.0
C437 C 0.26726 0.8248 1.05737 0.0
C438 C 0.26305 0.86981 0.18273 0.0
C439 C 0.26332 0.87123 1.08107 0.0
H440 H 0.25943 0.23665 1.02955 0.0
H441 H 0.28304 0.33782 1.07228 0.0
H442 H 0.28284 0.33962 0.24821 0.0
H443 H 0.27602 0.31314 0.39807 0.0
H444 H 0.25201 0.21185 0.35573 0.0
H445 H 0.25246 0.21005 0.17972 0.0
C446 C 0.26452 0.25921 1.07655 0.0
C447 C 0.2713 0.28718 1.03235 0.0
C448 C 0.26438 0.26032 0.18194 0.0
C449 C 0.27772 0.31567 1.0995 0.0
C450 C 0.27763 0.31682 0.2023 0.0
C451 C 0.27092 0.29055 0.35115 0.0
C452 C 0.26397 0.26257 0.39534 0.0
C453 C 0.27105 0.28941 0.24584 0.0
C454 C 0.25747 0.23401 0.32836 0.0
C455 C 0.2577 0.23288 0.22557 0.0
H456 H 0.50703 0.34665 0.56694 0.0
H457 H 0.42915 0.31778 0.46566 0.0
H458 H 0.43825 0.33443 0.30972 0.0
H459 H 0.45872 0.32263 0.18747 0.0
H460 H 0.53035 0.33181 0.28799 0.0
H461 H 0.53526 0.35994 0.45134 0.0
C462 C 0.49237 0.34568 0.51282 0.0
C463 C 0.46653 0.32621 0.51908 0.0
C464 C 0.49714 0.35107 0.41877 0.0
C465 C 0.44875 0.32953 0.4568 0.0
C466 C 0.4539 0.33862 0.36636 0.0
C467 C 0.47605 0.3325 0.24424 0.0
C468 C 0.49235 0.32145 0.23119 0.0
C469 C 0.4766 0.34399 0.34184 0.0
C470 C 0.51614 0.33729 0.29923 0.0
C471 C 0.51879 0.35305 0.39398 0.0
H472 H 0.04104 0.25326 0.50198 0.0
H473 H 0.02682 0.29858 0.27408 0.0
H474 H 0.04043 0.27282 0.15919 0.0
H475 H 0.03711 0.22118 0.11114 0.0
H476 H 0.04235 0.16917 0.33419 0.0
H477 H 0.05422 0.21504 0.46396 0.0
C478 C 0.04245 0.25925 0.42942 0.0
C479 C 0.03147 0.27614 0.39469 0.0
C480 C 0.04851 0.24244 0.36199 0.0
C481 C 0.03413 0.28443 0.30117 0.0
C482 C 0.04176 0.26949 0.23512 0.0
C483 C 0.04244 0.22079 0.18838 0.0
C484 C 0.0367 0.19098 0.21408 0.0
C485 C 0.04608 0.24567 0.2619 0.0
C486 C 0.04536 0.19139 0.31307 0.0
C487 C 0.05148 0.21744 0.38758 0.0
H488 H 0.83086 0.64535 0.2226 0.0
H489 H 0.89361 0.69392 0.47874 0.0
H490 H 0.9082 0.74635 0.43391 0.0
H491 H 0.90809 0.77617 0.31109 0.0
H492 H 0.8526 0.72668 1.03271 0.0
H493 H 0.82783 0.67869 1.10282 0.0
C494 C 0.84698 0.66768 0.27022 0.0
C495 C 0.8609 0.66607 0.35493 0.0
C496 C 0.85604 0.69797 0.24159 0.0
C497 C 0.88199 0.69499 0.41609 0.0
C498 C 0.89038 0.72502 0.39041 0.0
C499 C 0.89064 0.75516 0.26428 0.0
C500 C 0.88467 0.75314 0.16153 0.0
C501 C 0.87825 0.72661 0.30147 0.0
C502 C 0.85968 0.72755 0.10908 0.0
C503 C 0.84544 0.69983 0.14894 0.0
H504 H 0.20776 0.30499 0.55955 0.0
H505 H 0.27847 0.38851 0.74002 0.0
H506 H 0.26553 0.42517 0.69042 0.0
H507 H 0.23457 0.43393 0.59067 0.0
H508 H 0.16601 0.35097 0.39681 0.0
H509 H 0.17749 0.31394 0.4555 0.0
C510 C 0.22014 0.33118 0.58889 0.0
C511 C 0.2439 0.34394 0.65477 0.0
C512 C 0.21302 0.35235 0.5565 0.0
C513 C 0.26002 0.37803 0.68999 0.0
C514 C 0.25265 0.39904 0.66132 0.0
C515 C 0.22218 0.40774 0.56148 0.0
C516 C 0.19943 0.39527 0.48937 0.0
C517 C 0.2293 0.38657 0.59379 0.0
C518 C 0.18368 0.36125 0.45175 0.0
C519 C 0.19021 0.34002 0.48565 0.0
H520 H 0.69288 0.63052 0.16991 0.0
H521 H 0.61985 0.62096 0.10977 0.0
H522 H 0.64142 0.68051 0.15188 0.0
H523 H 0.68146 0.73663 0.2069 0.0
H524 H 0.7542 0.74551 0.27594 0.0
H525 H 0.73261 0.68624 0.23054 0.0
C526 C 0.68163 0.64139 0.16554 0.0
C527 C 0.65452 0.62061 0.13556 0.0
C528 C 0.69427 0.67618 0.19237 0.0
C529 C 0.6406 0.63577 0.13217 0.0
C530 C 0.65301 0.67013 0.15646 0.0
C531 C 0.69264 0.72569 0.21251 0.0
C532 C 0.71973 0.74635 0.2455 0.0
C533 C 0.6799 0.6908 0.18703 0.0
C534 C 0.73348 0.73095 0.25171 0.0
C535 C 0.72107 0.69669 0.2252 0.0
H536 H 0.46609 0.9785 0.12175 0.0
H537 H 0.45961 0.88707 1.03018 0.0
H538 H 0.43005 0.86184 0.13863 0.0
H539 H 0.40565 0.86558 0.25857 0.0
H540 H 0.41182 0.9569 0.34857 0.0
H541 H 0.44186 0.98231 0.242 0.0
C542 C 0.45836 0.95313 0.12618 0.0
C543 C 0.46509 0.93472 1.06798 0.0
C544 C 0.44125 0.93872 0.18832 0.0
C545 C 0.45457 0.90171 1.07343 0.0
C546 C 0.43775 0.8873 0.13579 0.0
C547 C 0.41376 0.89113 0.2555 0.0
C548 C 0.40651 0.9093 0.31158 0.0
C549 C 0.43092 0.90555 0.19347 0.0
C550 C 0.41689 0.94225 0.30552 0.0
C551 C 0.43415 0.95685 0.24488 0.0
H552 H 0.54315 0.09484 0.95498 0.0
H553 H 0.59164 0.15545 0.77405 0.0
H554 H 0.56266 0.1742 0.7337 0.0
H555 H 0.52194 0.17206 0.74526 0.0
H556 H 0.47618 0.11445 0.93842 0.0
H557 H 0.50513 0.09601 0.977 0.0
C558 C 0.54771 0.11254 0.90769 0.0
C559 C 0.57002 0.12367 0.8684 0.0
C560 C 0.53096 0.12356 0.88553 0.0
C561 C 0.57511 0.1466 0.80702 0.0
C562 C 0.55824 0.15714 0.78302 0.0
C563 C 0.51824 0.15538 0.79551 0.0
C564 C 0.49629 0.1444 0.83752 0.0
C565 C 0.53583 0.14554 0.82077 0.0
C566 C 0.49251 0.12331 0.90418 0.0
C567 C 0.50922 0.11271 0.92659 0.0
H568 H 1.01183 0.26993 0.97003 0.0
H569 H 0.94642 0.27854 0.93981 0.0
H570 H 0.97328 0.33459 1.03521 0.0
H571 H 1.01582 0.38309 0.12172 0.0
H572 H 0.08167 0.37551 0.15532 0.0
H573 H 0.05466 0.31845 1.06531 0.0
C574 C 1.00338 0.28389 0.9854 0.0
C575 C 0.97682 0.26946 0.94653 0.0
C576 C 1.01924 0.31694 1.04091 0.0
C577 C 0.96661 0.28853 0.96765 0.0
C578 C 0.98206 0.3209 1.02246 0.0
C579 C 0.02433 0.36899 0.11017 0.0
C580 C 0.05106 0.38426 0.14593 0.0
C581 C 1.00849 0.33568 1.05846 0.0
C582 C 0.06133 0.36496 0.12948 0.0
C583 C 0.04577 0.33202 1.07763 0.0
H584 H 0.87353 0.62964 1.01559 0.0
H585 H 0.84934 0.64554 0.7332 0.0
H586 H 0.80637 0.62379 0.76286 0.0
H587 H 0.77507 0.59925 0.86767 0.0
H588 H 0.79806 0.57876 0.14339 0.0
H589 H 0.84142 0.60244 0.11664 0.0
C590 C 0.85886 0.62847 0.96091 0.0
C591 C 0.86476 0.63935 0.87245 0.0
C592 C 0.83374 0.61486 0.97695 0.0
C593 C 0.84539 0.63728 0.80184 0.0
C594 C 0.82073 0.62481 0.81873 0.0
C595 C 0.78953 0.59989 0.92198 0.0
C596 C 0.78314 0.58756 1.00832 0.0
C597 C 0.81458 0.61329 0.90571 0.0
C598 C 0.80233 0.58865 1.07731 0.0
C599 C 0.82726 0.60216 1.062 0.0
H600 H 0.93062 0.57336 0.88268 0.0
H601 H 0.99372 0.67281 1.00835 0.0
H602 H 1.01813 0.65287 1.09209 0.0
H603 H 1.02215 0.60717 0.12539 0.0
H604 H 0.9596 0.50776 0.99424 0.0
H605 H 0.93446 0.52766 0.91767 0.0
C606 C 0.94961 0.59067 0.92923 0.0
C607 C 0.96031 0.62455 0.93927 0.0
C608 C 0.96375 0.57902 0.97578 0.0
C609 C 0.98501 0.64661 0.99943 0.0
C610 C 0.99903 0.63522 1.04703 0.0
C611 C 1.00311 0.58983 1.07935 0.0
C612 C 0.9929 0.55593 1.06578 0.0
C613 C 0.98875 0.60147 1.03469 0.0
C614 C 0.96794 0.53392 1.00716 0.0
C615 C 0.95354 0.5453 0.96287 0.0
H616 H 0.53155 0.39431 1.02146 0.0
H617 H 0.59753 0.39608 0.95654 0.0
H618 H 0.5716 0.33644 0.90354 0.0
H619 H 0.52986 0.28299 0.87079 0.0
H620 H 0.46352 0.28037 0.93367 0.0
H621 H 0.48963 0.34015 0.99202 0.0
C622 C 0.54038 0.38174 0.99628 0.0
C623 C 0.56688 0.40047 0.9937 0.0
C624 C 0.5251 0.3468 0.96493 0.0
C625 C 0.57748 0.38302 0.96011 0.0
C626 C 0.56254 0.34862 0.92936 0.0
C627 C 0.52104 0.29538 0.89759 0.0
C628 C 0.49447 0.27657 0.89757 0.0
C629 C 0.53628 0.33013 0.93073 0.0
C630 C 0.48373 0.29367 0.93246 0.0
C631 C 0.49875 0.3281 0.9659 0.0
H632 H 0.86158 0.15223 0.94317 0.0
H633 H 0.85274 0.1653 0.64118 0.0
H634 H 0.8121 0.1595 0.64739 0.0
H635 H 0.77843 0.15091 0.73644 0.0
H636 H 0.78642 0.13831 1.03896 0.0
H637 H 0.82701 0.14312 1.03333 0.0
C638 C 0.85077 0.15374 0.87859 0.0
C639 C 0.86077 0.15932 0.79169 0.0
C640 C 0.82682 0.15032 0.88224 0.0
C641 C 0.84605 0.16112 0.70937 0.0
C642 C 0.82256 0.15779 0.71266 0.0
C643 C 0.78901 0.14948 0.80193 0.0
C644 C 0.77878 0.14423 0.8882 0.0
C645 C 0.8127 0.1525 0.79859 0.0
C646 C 0.79311 0.14186 0.9707 0.0
C647 C 0.81665 0.14487 0.96783 0.0
H648 H 0.6743 0.04058 0.96979 0.0
H649 H 0.59569 0.95784 0.8937 0.0
H650 H 0.60913 0.92313 0.95411 0.0
H651 H 0.64269 0.91611 1.03455 0.0
H652 H 0.72137 0.99846 0.11599 0.0
H653 H 0.7085 0.03291 1.04672 0.0
C654 C 0.66015 1.01488 0.96533 0.0
C655 C 0.63392 1.00206 0.92698 0.0
C656 C 0.66801 0.9948 1.0018 0.0
C657 C 0.61596 0.96863 0.92278 0.0
C658 C 0.62363 0.94863 0.95764 0.0
C659 C 0.65709 0.94164 1.03799 0.0
C660 C 0.68303 0.95446 1.08159 0.0
C661 C 0.64953 0.96149 0.99868 0.0
C662 C 0.70131 0.98758 1.08258 0.0
C663 C 0.69393 1.00746 1.0433 0.0
H664 H 0.18504 0.7169 0.42978 0.0
H665 H 0.25745 0.72499 0.49424 0.0
H666 H 0.23529 0.66532 0.45271 0.0
H667 H 0.19485 0.60942 0.39575 0.0
H668 H 0.12287 0.60225 0.32159 0.0
H669 H 0.14501 0.66154 0.36805 0.0
C670 C 0.19603 0.7057 0.43532 0.0
C671 C 0.22316 0.72613 0.46629 0.0
C672 C 0.18306 0.67083 0.40865 0.0
C673 C 0.23671 0.71048 0.47108 0.0
C674 C 0.22396 0.67604 0.44711 0.0
C675 C 0.18396 0.62074 0.38948 0.0
C676 C 0.15688 0.60049 0.35449 0.0
C677 C 0.19706 0.65572 0.4153 0.0
C678 C 0.14355 0.61643 0.3473 0.0
C679 C 0.15628 0.65072 0.37439 0.0
H680 H 0.49165 0.47129 0.4021 0.0
H681 H 0.44369 0.38865 0.15733 0.0
H682 H 0.41148 0.36262 0.25558 0.0
H683 H 0.39696 0.3633 0.41136 0.0
H684 H 0.44455 0.44702 0.6538 0.0
H685 H 0.47711 0.47207 0.55722 0.0
C686 C 0.47426 0.44741 0.37059 0.0
C687 C 0.47009 0.43199 0.27241 0.0
C688 C 0.4558 0.43262 0.42741 0.0
C689 C 0.44726 0.40127 0.23226 0.0
C690 C 0.42888 0.3863 0.28857 0.0
C691 C 0.41433 0.38716 0.44287 0.0
C692 C 0.4182 0.40312 0.54015 0.0
C693 C 0.43289 0.4018 0.38616 0.0
C694 C 0.44112 0.43382 0.57997 0.0
C695 C 0.45973 0.44834 0.52444 0.0
H696 H 0.88272 0.70006 0.67246 0.0
H697 H 0.95864 0.78138 0.67428 0.0
H698 H 0.94074 0.81128 0.61005 0.0
H699 H 0.90365 0.81322 0.5432 0.0
H700 H 0.82724 0.73071 0.52735 0.0
H701 H 0.84511 0.70252 0.607 0.0
C702 C 0.89529 0.72427 0.65843 0.0
C703 C 0.92198 0.73823 0.67661 0.0
C704 C 0.88477 0.74123 0.61938 0.0
C705 C 0.93802 0.76985 0.65953 0.0
C706 C 0.92782 0.7871 0.62342 0.0
C707 C 0.89084 0.78906 0.55713 0.0
C708 C 0.86411 0.77407 0.52851 0.0
C709 C 0.90123 0.77284 0.60143 0.0
C710 C 0.84789 0.74297 0.54898 0.0
C711 C 0.8581 0.72677 0.59425 0.0
H712 H 0.34967 0.06308 0.7606 0.0
H713 H 0.41242 0.06949 0.64742 0.0
H714 H 0.38654 1.0099 0.58471 0.0
H715 H 0.34586 0.95467 0.56457 0.0
H716 H 0.28297 0.9495 0.67407 0.0
H717 H 0.30876 1.00884 0.73418 0.0
C718 C 0.35776 0.05159 0.72182 0.0
C719 C 0.38334 0.07147 0.70965 0.0
C720 C 0.34253 0.01694 0.68487 0.0
C721 C 0.39302 0.05546 0.65841 0.0
C722 C 0.37811 0.02108 0.62251 0.0
C723 C 0.33766 0.96644 0.60113 0.0
C724 C 0.31206 0.94676 0.61413 0.0
C725 C 0.3528 1.00134 0.6356 0.0
C726 C 0.30227 0.96324 0.66199 0.0
C727 C 0.31717 0.99751 0.69694 0.0
H728 H 1.01457 0.16113 0.82743 0.0
H729 H 1.02028 0.22958 0.6454 0.0
H730 H 0.06277 0.24233 0.628 0.0
H731 H 0.09742 0.23154 0.65354 0.0
H732 H 0.09082 0.1616 0.83192 0.0
H733 H 0.0498 0.15137 0.85733 0.0
C734 C 0.02495 0.17865 0.78312 0.0
C735 C 1.01379 0.19415 0.73733 0.0
C736 C 0.04918 0.18503 0.76974 0.0
C737 C 0.02789 0.2168 0.68035 0.0
C738 C 0.05221 0.22395 0.66957 0.0
C739 C 0.08706 0.21391 0.69765 0.0
C740 C 0.09794 0.19769 0.741 0.0
C741 C 0.06293 0.20777 0.71197 0.0
C742 C 0.08374 0.17515 0.79859 0.0
C743 C 0.05993 0.16899 0.81279 0.0
H744 H 0.35473 0.17372 0.84541 0.0
H745 H 0.39499 0.22187 0.62577 0.0
H746 H 0.3657 0.23973 0.58632 0.0
H747 H 0.32926 0.24374 0.61637 0.0
H748 H 0.28605 0.19212 0.82428 0.0
H749 H 0.31512 0.17348 0.86416 0.0
C750 C 0.35707 0.18802 0.78865 0.0
C751 C 0.37758 0.19649 0.73944 0.0
C752 C 0.33929 0.19757 0.76337 0.0
C753 C 0.37969 0.21476 0.66524 0.0
C754 C 0.36282 0.22512 0.64249 0.0
C755 C 0.32584 0.22796 0.66941 0.0
C756 C 0.30503 0.21939 0.71656 0.0
C757 C 0.34258 0.21686 0.6911 0.0
C758 C 0.30139 0.19893 0.78528 0.0
C759 C 0.31831 0.18846 0.80892 0.0
H760 H 0.85651 0.96543 0.43086 0.0
H761 H 0.79078 0.97324 0.3933 0.0
H762 H 0.81837 0.03142 0.47468 0.0
H763 H 0.86166 0.08049 0.566 0.0
H764 H 0.92673 0.07111 0.59753 0.0
H765 H 0.89927 1.01422 0.50979 0.0
C766 C 0.84811 0.97978 0.43952 0.0
C767 C 0.8213 0.96436 0.40542 0.0
C768 C 0.86421 1.0135 0.48632 0.0
C769 C 0.81119 0.98398 0.41792 0.0
C770 C 0.82706 0.01747 0.46509 0.0
C771 C 0.86989 0.06615 0.55243 0.0
C772 C 0.89657 0.08066 0.5896 0.0
C773 C 0.85368 0.03263 0.50085 0.0
C774 C 0.9065 0.06112 0.57093 0.0
C775 C 0.8907 0.02828 0.52053 0.0
H776 H 1.00499 0.69866 0.58724 0.0
H777 H 0.03716 0.75016 0.89346 0.0
H778 H 0.08031 0.77475 0.86473 0.0
H779 H 0.10939 0.78217 0.75375 0.0
H780 H 0.07793 0.73133 0.44715 0.0
H781 H 0.03447 0.70583 0.47547 0.0
C782 C 1.02143 0.71526 0.64765 0.0
C783 C 1.01759 0.72246 0.74242 0.0
C784 C 0.04653 0.72944 0.63084 0.0
C785 C 0.03929 0.74401 0.81966 0.0
C786 C 0.06411 0.75819 0.8034 0.0
C787 C 0.09306 0.76568 0.69273 0.0
C788 C 0.09717 0.75884 0.59831 0.0
C789 C 0.06802 0.75118 0.70937 0.0
C790 C 0.07558 0.73687 0.52098 0.0
C791 C 0.05061 0.7224 0.53698 0.0
loop_
_geom_bond_atom_site_label_1
_geom_bond_atom_site_label_2
_geom_bond_distance
_geom_bond_site_symmetry_2
_ccdc_geom_bond_type
Sm0 C2 2.846 . S
Sm0 O20 2.543 . S
Sm0 O21 2.450 . S
Sm0 O22 2.681 1_554 S
Sm0 O23 2.464 1_554 S
Sm0 O24 2.396 . S
Sm0 O28 2.386 . S
Sm0 O31 2.408 . S
Sm1 C11 2.869 . S
Sm1 O22 2.386 1_554 S
Sm1 O25 2.408 . S
Sm1 O26 2.543 1_554 S
Sm1 O27 2.450 1_455 S
Sm1 O28 2.681 . S
Sm1 O29 2.464 . S
Sm1 O30 2.396 . S
C2 Sm0 2.846 . S
C2 C3 1.506 . S
C2 O20 1.261 . S
C2 O21 1.242 . S
C3 C2 1.506 . S
C3 C4 1.358 . S
C3 C8 1.382 . S
C4 C3 1.358 . S
C4 C5 1.385 . S
C4 H32 0.930 . S
C5 C4 1.385 . S
C5 C6 1.395 . S
C5 H33 0.929 . S
C6 C5 1.395 . S
C6 C7 1.335 . S
C7 C6 1.335 . S
C7 C8 1.398 . S
C7 H34 0.930 . S
C8 C3 1.382 . S
C8 C7 1.398 . S
C8 H35 0.929 . S
C9 O22 1.271 . S
C9 O23 1.251 . S
C10 O24 1.252 . S
C10 O25 1.272 . S
C11 Sm1 2.869 . S
C11 C12 1.482 1_455 S
C11 O26 1.288 1_554 S
C11 O27 1.238 1_455 S
C12 C11 1.482 1_655 S
C12 C13 1.358 1_654 S
C12 C17 1.382 . S
C13 C12 1.358 1_456 S
C13 C14 1.385 1_455 S
C13 H36 0.930 . S
C14 C13 1.385 1_655 S
C14 C15 1.395 . S
C14 H37 0.935 . S
C15 C14 1.395 . S
C15 C16 1.335 1_556 S
C16 C15 1.335 1_554 S
C16 C17 1.398 . S
C16 H38 0.930 . S
C17 C12 1.382 . S
C17 C16 1.398 . S
C17 H39 0.929 . S
C18 O28 1.271 . S
C18 O29 1.251 . S
C19 O30 1.252 . S
C19 O31 1.272 . S
O20 Sm0 2.543 . S
O20 C2 1.261 . S
O21 Sm0 2.450 . S
O21 C2 1.242 . S
O22 Sm0 2.681 1_556 S
O22 Sm1 2.386 1_556 S
O22 C9 1.271 . S
O23 Sm0 2.464 1_556 S
O23 C9 1.251 . S
O24 Sm0 2.396 . S
O24 C10 1.252 . S
O25 Sm1 2.408 . S
O25 C10 1.272 . S
O26 Sm1 2.543 1_556 S
O26 C11 1.288 1_556 S
O27 Sm1 2.450 1_655 S
O27 C11 1.238 1_655 S
O28 Sm0 2.386 . S
O28 Sm1 2.681 . S
O28 C18 1.271 . S
O29 Sm1 2.464 . S
O29 C18 1.251 . S
O30 Sm1 2.396 . S
O30 C19 1.252 . S
O31 Sm0 2.408 . S
O31 C19 1.272 . S
H32 C4 0.930 . S
H33 C5 0.929 . S
H34 C7 0.930 . S
H35 C8 0.929 . S
H36 C13 0.930 . S
H37 C14 0.935 . S
H38 C16 0.930 . S
H39 C17 0.929 . S
Sm40 C42 2.846 . S
Sm40 O60 2.543 . S
Sm40 O61 2.450 . S
Sm40 O62 2.681 . S
Sm40 O63 2.464 . S
Sm40 O64 2.396 . S
Sm40 O68 2.386 . S
Sm40 O71 2.408 . S
Sm41 C51 2.846 . S
Sm41 O62 2.386 . S
Sm41 O65 2.408 . S
Sm41 O66 2.543 . S
Sm41 O67 2.450 . S
Sm41 O68 2.681 . S
Sm41 O69 2.464 1_554 S
Sm41 O70 2.396 . S
C42 Sm40 2.846 . S
C42 C43 1.506 . S
C42 O60 1.261 . S
C42 O61 1.242 . S
C43 C42 1.506 . S
C43 C44 1.358 . S
C43 C48 1.382 . S
C44 C43 1.358 . S
C44 C45 1.385 . S
C44 H72 0.930 . S
C45 C44 1.385 . S
C45 C46 1.395 . S
C45 H73 0.929 . S
C46 C45 1.395 . S
C46 C47 1.335 . S
C47 C46 1.335 . S
C47 C48 1.398 . S
C47 H74 0.930 . S
C48 C43 1.382 . S
C48 C47 1.398 . S
C48 H75 0.929 . S
C49 O62 1.271 . S
C49 O63 1.251 . S
C50 O64 1.252 . S
C50 O65 1.272 . S
C51 Sm41 2.846 . S
C51 C52 1.506 . S
C51 O66 1.261 . S
C51 O67 1.242 . S
C52 C51 1.506 . S
C52 C53 1.358 . S
C52 C57 1.382 . S
C53 C52 1.358 . S
C53 C54 1.385 . S
C53 H76 0.930 . S
C54 C53 1.385 . S
C54 C55 1.395 . S
C54 H77 0.929 . S
C55 C54 1.395 . S
C55 C56 1.335 . S
C56 C55 1.335 . S
C56 C57 1.398 . S
C56 H78 0.930 . S
C57 C52 1.382 . S
C57 C56 1.398 . S
C57 H79 0.929 . S
C58 O68 1.271 1_556 S
C58 O69 1.251 . S
C59 O70 1.252 . S
C59 O71 1.272 . S
O60 Sm40 2.543 . S
O60 C42 1.261 . S
O61 Sm40 2.450 . S
O61 C42 1.242 . S
O62 Sm40 2.681 . S
O62 Sm41 2.386 . S
O62 C49 1.271 . S
O63 Sm40 2.464 . S
O63 C49 1.251 . S
O64 Sm40 2.396 . S
O64 C50 1.252 . S
O65 Sm41 2.408 . S
O65 C50 1.272 . S
O66 Sm41 2.543 . S
O66 C51 1.261 . S
O67 Sm41 2.450 . S
O67 C51 1.242 . S
O68 Sm40 2.386 . S
O68 Sm41 2.681 . S
O68 C58 1.271 1_554 S
O69 Sm41 2.464 1_556 S
O69 C58 1.251 . S
O70 Sm41 2.396 . S
O70 C59 1.252 . S
O71 Sm40 2.408 . S
O71 C59 1.272 . S
H72 C44 0.930 . S
H73 C45 0.929 . S
H74 C47 0.930 . S
H75 C48 0.929 . S
H76 C53 0.930 . S
H77 C54 0.929 . S
H78 C56 0.930 . S
H79 C57 0.929 . S
Sm80 C82 2.846 . S
Sm80 O100 2.543 . S
Sm80 O101 2.450 . S
Sm80 O102 2.681 . S
Sm80 O103 2.468 . S
Sm80 O104 2.396 . S
Sm80 O108 2.386 . S
Sm80 O111 2.408 . S
Sm81 C91 2.846 . S
Sm81 O102 2.386 . S
Sm81 O105 2.408 . S
Sm81 O106 2.543 . S
Sm81 O107 2.450 . S
Sm81 O108 2.681 . S
Sm81 O109 2.464 . S
Sm81 O110 2.396 . S
C82 Sm80 2.846 . S
C82 C83 1.506 . S
C82 O100 1.261 . S
C82 O101 1.242 . S
C83 C82 1.506 . S
C83 C84 1.358 . S
C83 C88 1.382 . S
C84 C83 1.358 . S
C84 C85 1.385 . S
C84 H112 0.930 . S
C85 C84 1.385 . S
C85 C86 1.395 . S
C85 H113 0.929 . S
C86 C85 1.395 . S
C86 C87 1.335 . S
C87 C86 1.335 . S
C87 C88 1.398 . S
C87 H114 0.928 1_545 S
C88 C83 1.382 . S
C88 C87 1.398 . S
C88 H115 0.929 . S
C89 O102 1.271 . S
C89 O103 1.250 . S
C90 O104 1.252 . S
C90 O105 1.272 . S
C91 Sm81 2.846 . S
C91 C92 1.506 . S
C91 O106 1.261 . S
C91 O107 1.242 . S
C92 C91 1.506 . S
C92 C93 1.358 . S
C92 C97 1.382 . S
C93 C92 1.358 . S
C93 C94 1.385 . S
C93 H116 0.930 . S
C94 C93 1.385 . S
C94 C95 1.395 . S
C94 H117 0.929 . S
C95 C94 1.395 . S
C95 C96 1.335 . S
C96 C95 1.335 . S
C96 C97 1.398 . S
C96 H118 0.930 . S
C97 C92 1.382 . S
C97 C96 1.398 . S
C97 H119 0.929 . S
C98 O108 1.271 . S
C98 O109 1.251 . S
C99 O110 1.252 . S
C99 O111 1.272 . S
O100 Sm80 2.543 . S
O100 C82 1.261 . S
O101 Sm80 2.450 . S
O101 C82 1.242 . S
O102 Sm80 2.681 . S
O102 Sm81 2.386 . S
O102 C89 1.271 . S
O103 Sm80 2.468 . S
O103 C89 1.250 . S
O104 Sm80 2.396 . S
O104 C90 1.252 . S
O105 Sm81 2.408 . S
O105 C90 1.272 . S
O106 Sm81 2.543 . S
O106 C91 1.261 . S
O107 Sm81 2.450 . S
O107 C91 1.242 . S
O108 Sm80 2.386 . S
O108 Sm81 2.681 . S
O108 C98 1.271 . S
O109 Sm81 2.464 . S
O109 C98 1.251 . S
O110 Sm81 2.396 . S
O110 C99 1.252 . S
O111 Sm80 2.408 . S
O111 C99 1.272 . S
H112 C84 0.930 . S
H113 C85 0.929 . S
H114 C87 0.928 1_565 S
H115 C88 0.929 . S
H116 C93 0.930 . S
H117 C94 0.929 . S
H118 C96 0.930 . S
H119 C97 0.929 . S
Sm120 C122 2.846 . S
Sm120 O140 2.543 . S
Sm120 O141 2.450 . S
Sm120 O142 2.681 . S
Sm120 O143 2.464 . S
Sm120 O144 2.396 . S
Sm120 O148 2.386 . S
Sm120 O151 2.408 . S
Sm121 C131 2.846 . S
Sm121 O142 2.386 . S
Sm121 O145 2.408 . S
Sm121 O146 2.543 . S
Sm121 O147 2.450 . S
Sm121 O148 2.681 . S
Sm121 O149 2.464 . S
Sm121 O150 2.396 . S
C122 Sm120 2.846 . S
C122 C123 1.506 . S
C122 O140 1.261 . S
C122 O141 1.242 . S
C123 C122 1.506 . S
C123 C124 1.358 . S
C123 C128 1.382 . S
C124 C123 1.358 . S
C124 C125 1.385 . S
C124 H152 0.930 . S
C125 C124 1.385 . S
C125 C126 1.395 . S
C125 H153 0.929 . S
C126 C125 1.395 . S
C126 C127 1.335 . S
C127 C126 1.335 . S
C127 C128 1.398 . S
C127 H154 0.930 . S
C128 C123 1.382 . S
C128 C127 1.398 . S
C128 H155 0.929 . S
C129 O142 1.271 . S
C129 O143 1.251 . S
C130 O144 1.252 . S
C130 O145 1.272 . S
C131 Sm121 2.846 . S
C131 C132 1.506 . S
C131 O146 1.261 . S
C131 O147 1.242 . S
C132 C131 1.506 . S
C132 C133 1.358 . S
C132 C137 1.382 . S
C133 C132 1.358 . S
C133 C134 1.385 . S
C133 H156 0.930 . S
C134 C133 1.385 . S
C134 C135 1.395 . S
C134 H157 0.929 . S
C135 C134 1.395 . S
C135 C136 1.335 . S
C136 C135 1.335 . S
C136 C137 1.398 . S
C136 H158 0.930 . S
C137 C132 1.382 . S
C137 C136 1.398 . S
C137 H159 0.929 . S
C138 O148 1.271 . S
C138 O149 1.251 . S
C139 O150 1.252 . S
C139 O151 1.272 . S
O140 Sm120 2.543 . S
O140 C122 1.261 . S
O141 Sm120 2.450 . S
O141 C122 1.242 . S
O142 Sm120 2.681 . S
O142 Sm121 2.386 . S
O142 C129 1.271 . S
O143 Sm120 2.464 . S
O143 C129 1.251 . S
O144 Sm120 2.396 . S
O144 C130 1.252 . S
O145 Sm121 2.408 . S
O145 C130 1.272 . S
O146 Sm121 2.543 . S
O146 C131 1.261 . S
O147 Sm121 2.450 . S
O147 C131 1.242 . S
O148 Sm120 2.386 . S
O148 Sm121 2.681 . S
O148 C138 1.271 . S
O149 Sm121 2.464 . S
O149 C138 1.251 . S
O150 Sm121 2.396 . S
O150 C139 1.252 . S
O151 Sm120 2.408 . S
O151 C139 1.272 . S
H152 C124 0.930 . S
H153 C125 0.929 . S
H154 C127 0.930 . S
H155 C128 0.929 . S
H156 C133 0.930 . S
H157 C134 0.929 . S
H158 C136 0.930 . S
H159 C137 0.929 . S
Sm160 C162 2.846 . S
Sm160 O180 2.543 . S
Sm160 O181 2.450 . S
Sm160 O182 2.681 . S
Sm160 O183 2.464 . S
Sm160 O184 2.396 . S
Sm160 O188 2.386 . S
Sm160 O191 2.408 . S
Sm161 C171 2.846 . S
Sm161 O182 2.386 . S
Sm161 O185 2.408 . S
Sm161 O186 2.543 . S
Sm161 O187 2.450 . S
Sm161 O188 2.681 . S
Sm161 O189 2.464 . S
Sm161 O190 2.396 . S
C162 Sm160 2.846 . S
C162 C163 1.506 . S
C162 O180 1.261 . S
C162 O181 1.242 . S
C163 C162 1.506 . S
C163 C164 1.358 . S
C163 C168 1.382 . S
C164 C163 1.358 . S
C164 C165 1.385 . S
C164 H192 0.930 . S
C165 C164 1.385 . S
C165 C166 1.395 . S
C165 H193 0.929 . S
C166 C165 1.395 . S
C166 C167 1.335 . S
C167 C166 1.335 . S
C167 C168 1.398 . S
C167 H194 0.930 . S
C168 C163 1.382 . S
C168 C167 1.398 . S
C168 H195 0.929 . S
C169 O182 1.271 . S
C169 O183 1.251 . S
C170 O184 1.252 . S
C170 O185 1.272 . S
C171 Sm161 2.846 . S
C171 C172 1.506 . S
C171 O186 1.261 . S
C171 O187 1.242 . S
C172 C171 1.506 . S
C172 C173 1.358 . S
C172 C177 1.382 . S
C173 C172 1.358 . S
C173 C174 1.385 . S
C173 H196 0.930 . S
C174 C173 1.385 . S
C174 C175 1.395 . S
C174 H197 0.929 . S
C175 C174 1.395 . S
C175 C176 1.335 . S
C176 C175 1.335 . S
C176 C177 1.398 . S
C176 H198 0.930 . S
C177 C172 1.382 . S
C177 C176 1.398 . S
C177 H199 0.929 . S
C178 O188 1.271 . S
C178 O189 1.251 . S
C179 O190 1.252 . S
C179 O191 1.272 . S
O180 Sm160 2.543 . S
O180 C162 1.261 . S
O181 Sm160 2.450 . S
O181 C162 1.242 . S
O182 Sm160 2.681 . S
O182 Sm161 2.386 . S
O182 C169 1.271 . S
O183 Sm160 2.464 . S
O183 C169 1.251 . S
O184 Sm160 2.396 . S
O184 C170 1.252 . S
O185 Sm161 2.408 . S
O185 C170 1.272 . S
O186 Sm161 2.543 . S
O186 C171 1.261 . S
O187 Sm161 2.450 . S
O187 C171 1.242 . S
O188 Sm160 2.386 . S
O188 Sm161 2.681 . S
O188 C178 1.271 . S
O189 Sm161 2.464 . S
O189 C178 1.251 . S
O190 Sm161 2.396 . S
O190 C179 1.252 . S
O191 Sm160 2.408 . S
O191 C179 1.272 . S
H192 C164 0.930 . S
H193 C165 0.929 . S
H194 C167 0.930 . S
H195 C168 0.929 . S
H196 C173 0.930 . S
H197 C174 0.929 . S
H198 C176 0.930 . S
H199 C177 0.929 . S
Sm200 C202 2.846 . S
Sm200 O220 2.543 . S
Sm200 O221 2.450 . S
Sm200 O222 2.681 . S
Sm200 O223 2.464 . S
Sm200 O224 2.396 . S
Sm200 O228 2.386 . S
Sm200 O231 2.408 . S
Sm201 C211 2.846 . S
Sm201 O222 2.386 . S
Sm201 O225 2.408 . S
Sm201 O226 2.543 . S
Sm201 O227 2.450 . S
Sm201 O228 2.681 . S
Sm201 O229 2.464 . S
Sm201 O230 2.396 . S
C202 Sm200 2.846 . S
C202 C203 1.506 . S
C202 O220 1.261 . S
C202 O221 1.242 . S
C203 C202 1.506 . S
C203 C204 1.358 . S
C203 C208 1.382 . S
C204 C203 1.358 . S
C204 C205 1.385 . S
C204 H232 0.930 . S
C205 C204 1.385 . S
C205 C206 1.395 . S
C205 H233 0.929 . S
C206 C205 1.395 . S
C206 C207 1.335 . S
C207 C206 1.335 . S
C207 C208 1.398 . S
C207 H234 0.930 . S
C208 C203 1.382 . S
C208 C207 1.398 . S
C208 H235 0.929 . S
C209 O222 1.271 . S
C209 O223 1.251 . S
C210 O224 1.252 . S
C210 O225 1.272 . S
C211 Sm201 2.846 . S
C211 C212 1.506 . S
C211 O226 1.261 . S
C211 O227 1.242 . S
C212 C211 1.506 . S
C212 C213 1.358 . S
C212 C217 1.382 . S
C213 C212 1.358 . S
C213 C214 1.385 . S
C213 H236 0.930 . S
C214 C213 1.385 . S
C214 C215 1.395 . S
C214 H237 0.929 . S
C215 C214 1.395 . S
C215 C216 1.335 . S
C216 C215 1.335 . S
C216 C217 1.398 . S
C216 H238 0.930 . S
C217 C212 1.382 . S
C217 C216 1.398 . S
C217 H239 0.929 . S
C218 O228 1.271 . S
C218 O229 1.251 . S
C219 O230 1.252 . S
C219 O231 1.272 . S
O220 Sm200 2.543 . S
O220 C202 1.261 . S
O221 Sm200 2.450 . S
O221 C202 1.242 . S
O222 Sm200 2.681 . S
O222 Sm201 2.386 . S
O222 C209 1.271 . S
O223 Sm200 2.464 . S
O223 C209 1.251 . S
O224 Sm200 2.396 . S
O224 C210 1.252 . S
O225 Sm201 2.408 . S
O225 C210 1.272 . S
O226 Sm201 2.543 . S
O226 C211 1.261 . S
O227 Sm201 2.450 . S
O227 C211 1.242 . S
O228 Sm200 2.386 . S
O228 Sm201 2.681 . S
O228 C218 1.271 . S
O229 Sm201 2.464 . S
O229 C218 1.251 . S
O230 Sm201 2.396 . S
O230 C219 1.252 . S
O231 Sm200 2.408 . S
O231 C219 1.272 . S
H232 C204 0.930 . S
H233 C205 0.929 . S
H234 C207 0.930 . S
H235 C208 0.929 . S
H236 C213 0.930 . S
H237 C214 0.929 . S
H238 C216 0.930 . S
H239 C217 0.929 . S
Sm240 C242 2.846 . S
Sm240 O260 2.543 . S
Sm240 O261 2.450 . S
Sm240 O262 2.681 . S
Sm240 O263 2.464 . S
Sm240 O264 2.396 . S
Sm240 O268 2.386 . S
Sm240 O271 2.408 . S
Sm241 C251 2.846 . S
Sm241 O262 2.386 . S
Sm241 O265 2.408 . S
Sm241 O266 2.543 . S
Sm241 O267 2.450 . S
Sm241 O268 2.681 . S
Sm241 O269 2.464 . S
Sm241 O270 2.396 . S
C242 Sm240 2.846 . S
C242 C243 1.506 . S
C242 O260 1.261 . S
C242 O261 1.242 . S
C243 C242 1.506 . S
C243 C244 1.358 . S
C243 C248 1.382 . S
C244 C243 1.358 . S
C244 C245 1.385 . S
C244 H272 0.930 . S
C245 C244 1.385 . S
C245 C246 1.395 . S
C245 H273 0.929 . S
C246 C245 1.395 . S
C246 C247 1.335 . S
C247 C246 1.335 . S
C247 C248 1.398 . S
C247 H274 0.930 . S
C248 C243 1.382 . S
C248 C247 1.398 . S
C248 H275 0.929 . S
C249 O262 1.271 . S
C249 O263 1.251 . S
C250 O264 1.252 . S
C250 O265 1.272 . S
C251 Sm241 2.846 . S
C251 C252 1.506 1_556 S
C251 O266 1.261 . S
C251 O267 1.242 . S
C252 C251 1.506 1_554 S
C252 C253 1.358 . S
C252 C257 1.382 . S
C253 C252 1.358 . S
C253 C254 1.385 . S
C253 H276 0.930 . S
C254 C253 1.385 . S
C254 C255 1.395 . S
C254 H277 0.929 . S
C255 C254 1.395 . S
C255 C256 1.335 . S
C256 C255 1.335 . S
C256 C257 1.398 . S
C256 H278 0.930 . S
C257 C252 1.382 . S
C257 C256 1.398 . S
C257 H279 0.929 . S
C258 O268 1.271 . S
C258 O269 1.251 . S
C259 O270 1.252 . S
C259 O271 1.272 . S
O260 Sm240 2.543 . S
O260 C242 1.261 . S
O261 Sm240 2.450 . S
O261 C242 1.242 . S
O262 Sm240 2.681 . S
O262 Sm241 2.386 . S
O262 C249 1.271 . S
O263 Sm240 2.464 . S
O263 C249 1.251 . S
O264 Sm240 2.396 . S
O264 C250 1.252 . S
O265 Sm241 2.408 . S
O265 C250 1.272 . S
O266 Sm241 2.543 . S
O266 C251 1.261 . S
O267 Sm241 2.450 . S
O267 C251 1.242 . S
O268 Sm240 2.386 . S
O268 Sm241 2.681 . S
O268 C258 1.271 . S
O269 Sm241 2.464 . S
O269 C258 1.251 . S
O270 Sm241 2.396 . S
O270 C259 1.252 . S
O271 Sm240 2.408 . S
O271 C259 1.272 . S
H272 C244 0.930 . S
H273 C245 0.929 . S
H274 C247 0.930 . S
H275 C248 0.929 . S
H276 C253 0.930 . S
H277 C254 0.929 . S
H278 C256 0.930 . S
H279 C257 0.929 . S
Sm280 C282 2.846 . S
Sm280 O300 2.543 . S
Sm280 O301 2.450 . S
Sm280 O302 2.681 . S
Sm280 O303 2.464 . S
Sm280 O304 2.396 . S
Sm280 O308 2.386 . S
Sm280 O311 2.408 . S
Sm281 C291 2.846 . S
Sm281 O302 2.386 . S
Sm281 O305 2.408 . S
Sm281 O306 2.543 . S
Sm281 O307 2.450 . S
Sm281 O308 2.681 . S
Sm281 O309 2.464 . S
Sm281 O310 2.396 . S
C282 Sm280 2.846 . S
C282 C283 1.506 1_556 S
C282 O300 1.261 . S
C282 O301 1.242 . S
C283 C282 1.506 1_554 S
C283 C284 1.358 . S
C283 C288 1.382 . S
C284 C283 1.358 . S
C284 C285 1.385 . S
C284 H312 0.930 . S
C285 C284 1.385 . S
C285 C286 1.395 . S
C285 H313 0.929 . S
C286 C285 1.395 . S
C286 C287 1.335 . S
C287 C286 1.335 . S
C287 C288 1.398 . S
C287 H314 0.930 . S
C288 C283 1.382 . S
C288 C287 1.398 . S
C288 H315 0.929 . S
C289 O302 1.271 . S
C289 O303 1.251 . S
C290 O304 1.252 . S
C290 O305 1.272 . S
C291 Sm281 2.846 . S
C291 C292 1.506 . S
C291 O306 1.261 . S
C291 O307 1.242 . S
C292 C291 1.506 . S
C292 C293 1.358 . S
C292 C297 1.382 . S
C293 C292 1.358 . S
C293 C294 1.385 . S
C293 H316 0.930 . S
C294 C293 1.385 . S
C294 C295 1.395 . S
C294 H317 0.929 . S
C295 C294 1.395 . S
C295 C296 1.335 . S
C296 C295 1.335 . S
C296 C297 1.398 . S
C296 H318 0.930 . S
C297 C292 1.382 . S
C297 C296 1.398 . S
C297 H319 0.929 . S
C298 O308 1.271 . S
C298 O309 1.251 . S
C299 O310 1.252 . S
C299 O311 1.272 . S
O300 Sm280 2.543 . S
O300 C282 1.261 . S
O301 Sm280 2.450 . S
O301 C282 1.242 . S
O302 Sm280 2.681 . S
O302 Sm281 2.386 . S
O302 C289 1.271 . S
O303 Sm280 2.464 . S
O303 C289 1.251 . S
O304 Sm280 2.396 . S
O304 C290 1.252 . S
O305 Sm281 2.408 . S
O305 C290 1.272 . S
O306 Sm281 2.543 . S
O306 C291 1.261 . S
O307 Sm281 2.450 . S
O307 C291 1.242 . S
O308 Sm280 2.386 . S
O308 Sm281 2.681 . S
O308 C298 1.271 . S
O309 Sm281 2.464 . S
O309 C298 1.251 . S
O310 Sm281 2.396 . S
O310 C299 1.252 . S
O311 Sm280 2.408 . S
O311 C299 1.272 . S
H312 C284 0.930 . S
H313 C285 0.929 . S
H314 C287 0.930 . S
H315 C288 0.929 . S
H316 C293 0.930 . S
H317 C294 0.929 . S
H318 C296 0.930 . S
H319 C297 0.929 . S
Sm320 C322 2.846 . S
Sm320 O340 2.543 . S
Sm320 O341 2.450 . S
Sm320 O342 2.681 . S
Sm320 O343 2.464 . S
Sm320 O344 2.396 . S
Sm320 O348 2.386 . S
Sm320 O351 2.408 . S
Sm321 C331 2.846 . S
Sm321 O342 2.386 . S
Sm321 O345 2.408 . S
Sm321 O346 2.543 . S
Sm321 O347 2.450 . S
Sm321 O348 2.681 . S
Sm321 O349 2.464 . S
Sm321 O350 2.396 . S
C322 Sm320 2.846 . S
C322 C323 1.506 . S
C322 O340 1.261 . S
C322 O341 1.242 . S
C323 C322 1.506 . S
C323 C324 1.358 . S
C323 C328 1.382 . S
C324 C323 1.358 . S
C324 C325 1.385 . S
C324 H352 0.930 . S
C325 C324 1.385 . S
C325 C326 1.395 . S
C325 H353 0.929 . S
C326 C325 1.395 . S
C326 C327 1.335 . S
C327 C326 1.335 . S
C327 C328 1.398 . S
C327 H354 0.930 . S
C328 C323 1.382 . S
C328 C327 1.398 . S
C328 H355 0.929 . S
C329 O342 1.271 . S
C329 O343 1.251 . S
C330 O344 1.252 . S
C330 O345 1.272 . S
C331 Sm321 2.846 . S
C331 C332 1.506 1_556 S
C331 O346 1.261 . S
C331 O347 1.242 . S
C332 C331 1.506 1_554 S
C332 C333 1.358 . S
C332 C337 1.382 . S
C333 C332 1.358 . S
C333 C334 1.385 . S
C333 H356 0.930 . S
C334 C333 1.385 . S
C334 C335 1.395 . S
C334 H357 0.929 . S
C335 C334 1.395 . S
C335 C336 1.335 . S
C336 C335 1.335 . S
C336 C337 1.398 . S
C336 H358 0.930 . S
C337 C332 1.382 . S
C337 C336 1.398 . S
C337 H359 0.929 . S
C338 O348 1.271 . S
C338 O349 1.251 . S
C339 O350 1.252 . S
C339 O351 1.272 . S
O340 Sm320 2.543 . S
O340 C322 1.261 . S
O341 Sm320 2.450 . S
O341 C322 1.242 . S
O342 Sm320 2.681 . S
O342 Sm321 2.386 . S
O342 C329 1.271 . S
O343 Sm320 2.464 . S
O343 C329 1.251 . S
O344 Sm320 2.396 . S
O344 C330 1.252 . S
O345 Sm321 2.408 . S
O345 C330 1.272 . S
O346 Sm321 2.543 . S
O346 C331 1.261 . S
O347 Sm321 2.450 . S
O347 C331 1.242 . S
O348 Sm320 2.386 . S
O348 Sm321 2.681 . S
O348 C338 1.271 . S
O349 Sm321 2.464 . S
O349 C338 1.251 . S
O350 Sm321 2.396 . S
O350 C339 1.252 . S
O351 Sm320 2.408 . S
O351 C339 1.272 . S
H352 C324 0.930 . S
H353 C325 0.929 . S
H354 C327 0.930 . S
H355 C328 0.929 . S
H356 C333 0.930 . S
H357 C334 0.929 . S
H358 C336 0.930 . S
H359 C337 0.929 . S
H360 C366 0.930 . S
H361 C369 0.930 . S
H362 C370 0.930 1_655 S
H363 C371 0.930 . S
H364 C374 0.930 . S
H365 C375 0.930 . S
C366 H360 0.930 . S
C366 C367 1.355 . S
C366 C368 1.415 . S
C367 C366 1.355 . S
C367 C369 1.419 . S
C368 C366 1.415 . S
C368 C373 1.425 . S
C368 C375 1.409 . S
C369 H361 0.930 . S
C369 C367 1.419 . S
C369 C370 1.362 . S
C370 H362 0.930 1_455 S
C370 C369 1.362 . S
C370 C373 1.409 . S
C371 H363 0.930 . S
C371 C372 1.355 . S
C371 C373 1.415 . S
C372 C371 1.355 . S
C372 C374 1.419 . S
C373 C368 1.425 . S
C373 C370 1.409 . S
C373 C371 1.415 . S
C374 H364 0.930 . S
C374 C372 1.419 . S
C374 C375 1.362 . S
C375 H365 0.930 . S
C375 C368 1.409 . S
C375 C374 1.362 . S
H376 C382 0.930 . S
H377 C385 0.930 . S
H378 C386 0.930 . S
H379 C387 0.930 . S
H380 C390 0.930 . S
H381 C391 0.930 . S
C382 H376 0.930 . S
C382 C383 1.355 . S
C382 C384 1.415 . S
C383 C382 1.355 . S
C383 C385 1.419 . S
C384 C382 1.415 . S
C384 C389 1.425 . S
C384 C391 1.409 . S
C385 H377 0.930 . S
C385 C383 1.419 . S
C385 C386 1.362 . S
C386 H378 0.930 . S
C386 C385 1.362 . S
C386 C389 1.409 . S
C387 H379 0.930 . S
C387 C388 1.355 . S
C387 C389 1.415 . S
C388 C387 1.355 . S
C388 C390 1.419 . S
C389 C384 1.425 . S
C389 C386 1.409 . S
C389 C387 1.415 . S
C390 H380 0.930 . S
C390 C388 1.419 . S
C390 C391 1.362 . S
C391 H381 0.930 . S
C391 C384 1.409 . S
C391 C390 1.362 . S
H392 C398 0.930 . S
H393 C401 0.930 . S
H394 C402 0.930 . S
H395 C403 0.930 . S
H396 C406 0.930 . S
H397 C407 0.930 . S
C398 H392 0.930 . S
C398 C399 1.355 . S
C398 C400 1.415 . S
C399 C398 1.355 . S
C399 C401 1.419 . S
C400 C398 1.415 . S
C400 C405 1.425 . S
C400 C407 1.409 . S
C401 H393 0.930 . S
C401 C399 1.419 . S
C401 C402 1.362 . S
C402 H394 0.930 . S
C402 C401 1.362 . S
C402 C405 1.409 . S
C403 H395 0.930 . S
C403 C404 1.355 . S
C403 C405 1.415 . S
C404 C403 1.355 . S
C404 C406 1.419 . S
C405 C400 1.425 . S
C405 C402 1.409 . S
C405 C403 1.415 . S
C406 H396 0.930 . S
C406 C404 1.419 . S
C406 C407 1.362 . S
C407 H397 0.930 . S
C407 C400 1.409 . S
C407 C406 1.362 . S
H408 C414 0.930 . S
H409 C417 0.930 . S
H410 C418 0.930 . S
H411 C419 0.930 . S
H412 C422 0.930 . S
H413 C423 0.930 . S
C414 H408 0.930 . S
C414 C415 1.355 . S
C414 C416 1.415 . S
C415 C414 1.355 . S
C415 C417 1.419 . S
C416 C414 1.415 . S
C416 C421 1.425 . S
C416 C423 1.409 . S
C417 H409 0.930 . S
C417 C415 1.419 . S
C417 C418 1.362 . S
C418 H410 0.930 . S
C418 C417 1.362 . S
C418 C421 1.409 . S
C419 H411 0.930 . S
C419 C420 1.355 . S
C419 C421 1.415 . S
C420 C419 1.355 . S
C420 C422 1.419 . S
C421 C416 1.425 . S
C421 C418 1.409 . S
C421 C419 1.415 . S
C422 H412 0.930 . S
C422 C420 1.419 . S
C422 C423 1.362 . S
C423 H413 0.930 . S
C423 C416 1.409 . S
C423 C422 1.362 . S
H424 C430 0.930 . S
H425 C433 0.930 . S
H426 C434 0.930 . S
H427 C435 0.930 . S
H428 C438 0.930 . S
H429 C439 0.930 . S
C430 H424 0.930 . S
C430 C431 1.355 . S
C430 C432 1.415 . S
C431 C430 1.355 . S
C431 C433 1.419 . S
C432 C430 1.415 . S
C432 C437 1.425 . S
C432 C439 1.409 . S
C433 H425 0.930 . S
C433 C431 1.419 . S
C433 C434 1.362 . S
C434 H426 0.930 . S
C434 C433 1.362 . S
C434 C437 1.409 . S
C435 H427 0.930 . S
C435 C436 1.355 . S
C435 C437 1.415 . S
C436 C435 1.355 . S
C436 C438 1.419 . S
C437 C432 1.425 . S
C437 C434 1.409 . S
C437 C435 1.415 . S
C438 H428 0.930 . S
C438 C436 1.419 . S
C438 C439 1.362 . S
C439 H429 0.930 . S
C439 C432 1.409 . S
C439 C438 1.362 . S
H440 C446 0.930 . S
H441 C449 0.930 . S
H442 C450 0.930 . S
H443 C451 0.930 . S
H444 C454 0.930 . S
H445 C455 0.930 . S
C446 H440 0.930 . S
C446 C447 1.355 . S
C446 C448 1.415 . S
C447 C446 1.355 . S
C447 C449 1.419 . S
C448 C446 1.415 . S
C448 C453 1.425 . S
C448 C455 1.409 . S
C449 H441 0.930 . S
C449 C447 1.419 . S
C449 C450 1.362 . S
C450 H442 0.930 . S
C450 C449 1.362 . S
C450 C453 1.409 . S
C451 H443 0.930 . S
C451 C452 1.355 . S
C451 C453 1.415 . S
C452 C451 1.355 . S
C452 C454 1.419 . S
C453 C448 1.425 . S
C453 C450 1.409 . S
C453 C451 1.415 . S
C454 H444 0.930 . S
C454 C452 1.419 . S
C454 C455 1.362 . S
C455 H445 0.930 . S
C455 C448 1.409 . S
C455 C454 1.362 . S
H456 C462 0.930 . S
H457 C465 0.930 1_556 S
H458 C466 0.930 . S
H459 C467 0.930 . S
H460 C470 0.930 . S
H461 C471 0.930 . S
C462 H456 0.930 . S
C462 C463 1.355 . S
C462 C464 1.415 . S
C463 C462 1.355 . S
C463 C465 1.419 . S
C464 C462 1.415 . S
C464 C469 1.425 . S
C464 C471 1.409 . S
C465 H457 0.930 1_554 S
C465 C463 1.419 . S
C465 C466 1.362 . S
C466 H458 0.930 . S
C466 C465 1.362 . S
C466 C469 1.409 . S
C467 H459 0.930 . S
C467 C468 1.355 . S
C467 C469 1.415 . S
C468 C467 1.355 . S
C468 C470 1.419 . S
C469 C464 1.425 . S
C469 C466 1.409 . S
C469 C467 1.415 . S
C470 H460 0.930 . S
C470 C468 1.419 . S
C470 C471 1.362 . S
C471 H461 0.930 . S
C471 C464 1.409 . S
C471 C470 1.362 . S
H472 C478 0.930 . S
H473 C481 0.930 . S
H474 C482 0.930 . S
H475 C483 0.930 . S
H476 C486 0.930 . S
H477 C487 0.930 . S
C478 H472 0.930 . S
C478 C479 1.355 . S
C478 C480 1.415 . S
C479 C478 1.355 . S
C479 C481 1.419 . S
C480 C478 1.415 . S
C480 C485 1.425 . S
C480 C487 1.409 . S
C481 H473 0.930 . S
C481 C479 1.419 . S
C481 C482 1.362 . S
C482 H474 0.930 . S
C482 C481 1.362 . S
C482 C485 1.409 . S
C483 H475 0.930 . S
C483 C484 1.355 . S
C483 C485 1.415 . S
C484 C483 1.355 . S
C484 C486 1.419 . S
C485 C480 1.425 . S
C485 C482 1.409 . S
C485 C483 1.415 . S
C486 H476 0.930 . S
C486 C484 1.419 . S
C486 C487 1.362 . S
C487 H477 0.930 . S
C487 C480 1.409 . S
C487 C486 1.362 . S
H488 C494 0.930 . S
H489 C497 0.930 . S
H490 C498 0.930 . S
H491 C499 0.930 . S
H492 C502 0.930 . S
H493 C503 0.930 . S
C494 H488 0.930 . S
C494 C495 1.355 . S
C494 C496 1.415 . S
C495 C494 1.355 . S
C495 C497 1.419 . S
C496 C494 1.415 . S
C496 C501 1.425 . S
C496 C503 1.409 . S
C497 H489 0.930 . S
C497 C495 1.419 . S
C497 C498 1.362 . S
C498 H490 0.930 . S
C498 C497 1.362 . S
C498 C501 1.409 . S
C499 H491 0.930 . S
C499 C500 1.355 . S
C499 C501 1.415 . S
C500 C499 1.355 . S
C500 C502 1.419 . S
C501 C496 1.425 . S
C501 C498 1.409 . S
C501 C499 1.415 . S
C502 H492 0.930 . S
C502 C500 1.419 . S
C502 C503 1.362 . S
C503 H493 0.930 . S
C503 C496 1.409 . S
C503 C502 1.362 . S
H504 C510 0.930 . S
H505 C513 0.930 . S
H506 C514 0.930 . S
H507 C515 0.930 . S
H508 C518 0.930 . S
H509 C519 0.930 . S
C510 H504 0.930 . S
C510 C511 1.355 . S
C510 C512 1.415 . S
C511 C510 1.355 . S
C511 C513 1.419 . S
C512 C510 1.415 . S
C512 C517 1.425 . S
C512 C519 1.409 . S
C513 H505 0.930 . S
C513 C511 1.419 . S
C513 C514 1.362 . S
C514 H506 0.930 . S
C514 C513 1.362 . S
C514 C517 1.409 . S
C515 H507 0.930 . S
C515 C516 1.355 . S
C515 C517 1.415 . S
C516 C515 1.355 . S
C516 C518 1.419 . S
C517 C512 1.425 . S
C517 C514 1.409 . S
C517 C515 1.415 . S
C518 H508 0.930 . S
C518 C516 1.419 . S
C518 C519 1.362 . S
C519 H509 0.930 . S
C519 C512 1.409 . S
C519 C518 1.362 . S
H520 C526 0.930 . S
H521 C529 0.930 . S
H522 C530 0.930 . S
H523 C531 0.930 . S
H524 C534 0.930 . S
H525 C535 0.930 . S
C526 H520 0.930 . S
C526 C527 1.355 . S
C526 C528 1.415 . S
C527 C526 1.355 . S
C527 C529 1.419 . S
C528 C526 1.415 . S
C528 C533 1.425 . S
C528 C535 1.409 . S
C529 H521 0.930 . S
C529 C527 1.419 . S
C529 C530 1.362 . S
C530 H522 0.930 . S
C530 C529 1.362 . S
C530 C533 1.409 . S
C531 H523 0.930 . S
C531 C532 1.355 . S
C531 C533 1.415 . S
C532 C531 1.355 . S
C532 C534 1.419 . S
C533 C528 1.425 . S
C533 C530 1.409 . S
C533 C531 1.415 . S
C534 H524 0.930 . S
C534 C532 1.419 . S
C534 C535 1.362 . S
C535 H525 0.930 . S
C535 C528 1.409 . S
C535 C534 1.362 . S
H536 C542 0.930 . S
H537 C545 0.930 . S
H538 C546 0.930 . S
H539 C547 0.930 . S
H540 C550 0.930 . S
H541 C551 0.930 . S
C542 H536 0.930 . S
C542 C543 1.355 . S
C542 C544 1.415 1_545 S
C543 C542 1.355 . S
C543 C545 1.419 1_545 S
C544 C542 1.415 1_565 S
C544 C549 1.425 . S
C544 C551 1.409 1_565 S
C545 H537 0.930 . S
C545 C543 1.419 1_565 S
C545 C546 1.362 . S
C546 H538 0.930 . S
C546 C545 1.362 . S
C546 C549 1.409 . S
C547 H539 0.930 . S
C547 C548 1.355 . S
C547 C549 1.415 . S
C548 C547 1.355 . S
C548 C550 1.419 . S
C549 C544 1.425 . S
C549 C546 1.409 . S
C549 C547 1.415 . S
C550 H540 0.930 . S
C550 C548 1.419 . S
C550 C551 1.362 1_565 S
C551 H541 0.930 . S
C551 C544 1.409 1_545 S
C551 C550 1.362 1_545 S
H552 C558 0.930 . S
H553 C561 0.930 . S
H554 C562 0.930 . S
H555 C563 0.930 . S
H556 C566 0.930 . S
H557 C567 0.930 . S
C558 H552 0.930 . S
C558 C559 1.355 . S
C558 C560 1.415 . S
C559 C558 1.355 . S
C559 C561 1.419 1_554 S
C560 C558 1.415 . S
C560 C565 1.425 1_554 S
C560 C567 1.409 . S
C561 H553 0.930 . S
C561 C559 1.419 1_556 S
C561 C562 1.362 . S
C562 H554 0.930 . S
C562 C561 1.362 . S
C562 C565 1.409 . S
C563 H555 0.930 . S
C563 C564 1.355 . S
C563 C565 1.415 . S
C564 C563 1.355 . S
C564 C566 1.419 . S
C565 C560 1.425 1_556 S
C565 C562 1.409 . S
C565 C563 1.415 . S
C566 H556 0.930 . S
C566 C564 1.419 . S
C566 C567 1.362 1_556 S
C567 H557 0.930 . S
C567 C560 1.409 . S
C567 C566 1.362 1_554 S
H568 C574 0.930 . S
H569 C577 0.930 . S
H570 C578 0.930 . S
H571 C579 0.930 . S
H572 C582 0.930 1_554 S
H573 C583 0.930 . S
C574 H568 0.930 . S
C574 C575 1.355 . S
C574 C576 1.415 . S
C575 C574 1.355 . S
C575 C577 1.419 . S
C576 C574 1.415 . S
C576 C581 1.425 . S
C576 C583 1.409 1_655 S
C577 H569 0.930 . S
C577 C575 1.419 . S
C577 C578 1.362 . S
C578 H570 0.930 . S
C578 C577 1.362 . S
C578 C581 1.409 . S
C579 H571 0.930 . S
C579 C580 1.355 1_655 S
C579 C581 1.415 . S
C580 C579 1.355 1_455 S
C580 C582 1.419 . S
C581 C576 1.425 . S
C581 C578 1.409 . S
C581 C579 1.415 . S
C582 H572 0.930 1_556 S
C582 C580 1.419 . S
C582 C583 1.362 . S
C583 H573 0.930 . S
C583 C576 1.409 1_455 S
C583 C582 1.362 . S
H584 C590 0.930 . S
H585 C593 0.930 . S
H586 C594 0.930 . S
H587 C595 0.930 . S
H588 C598 0.930 . S
H589 C599 0.930 . S
C590 H584 0.930 . S
C590 C591 1.355 . S
C590 C592 1.415 . S
C591 C590 1.355 . S
C591 C593 1.419 . S
C592 C590 1.415 . S
C592 C597 1.425 . S
C592 C599 1.409 1_556 S
C593 H585 0.930 . S
C593 C591 1.419 . S
C593 C594 1.362 . S
C594 H586 0.930 . S
C594 C593 1.362 . S
C594 C597 1.409 . S
C595 H587 0.930 . S
C595 C596 1.355 . S
C595 C597 1.415 1_554 S
C596 C595 1.355 . S
C596 C598 1.419 . S
C597 C592 1.425 . S
C597 C594 1.409 . S
C597 C595 1.415 1_556 S
C598 H588 0.930 . S
C598 C596 1.419 . S
C598 C599 1.362 . S
C599 H589 0.930 . S
C599 C592 1.409 1_554 S
C599 C598 1.362 . S
H600 C606 0.930 . S
H601 C609 0.930 . S
H602 C610 0.930 . S
H603 C611 0.904 1_455 S
H604 C614 0.930 . S
H605 C615 0.930 . S
C606 H600 0.930 . S
C606 C607 1.355 . S
C606 C608 1.415 . S
C607 C606 1.355 . S
C607 C609 1.419 . S
C608 C606 1.415 . S
C608 C613 1.425 . S
C608 C615 1.409 . S
C609 H601 0.930 . S
C609 C607 1.419 . S
C609 C610 1.362 . S
C610 H602 0.930 . S
C610 C609 1.362 . S
C610 C613 1.409 . S
C611 H603 0.904 1_655 S
C611 C612 1.355 . S
C611 C613 1.415 . S
C612 C611 1.355 . S
C612 C614 1.419 . S
C613 C608 1.425 . S
C613 C610 1.409 . S
C613 C611 1.415 . S
C614 H604 0.930 . S
C614 C612 1.419 . S
C614 C615 1.362 . S
C615 H605 0.930 . S
C615 C608 1.409 . S
C615 C614 1.362 . S
H616 C622 0.930 . S
H617 C625 0.930 . S
H618 C626 0.930 . S
H619 C627 0.930 . S
H620 C630 0.930 . S
H621 C631 0.930 . S
C622 H616 0.930 . S
C622 C623 1.355 1_556 S
C622 C624 1.415 . S
C623 C622 1.355 1_554 S
C623 C625 1.419 . S
C624 C622 1.415 . S
C624 C629 1.425 . S
C624 C631 1.409 . S
C625 H617 0.930 . S
C625 C623 1.419 . S
C625 C626 1.362 1_554 S
C626 H618 0.930 . S
C626 C625 1.362 1_556 S
C626 C629 1.409 . S
C627 H619 0.930 . S
C627 C628 1.355 . S
C627 C629 1.415 . S
C628 C627 1.355 . S
C628 C630 1.419 . S
C629 C624 1.425 . S
C629 C626 1.409 . S
C629 C627 1.415 . S
C630 H620 0.930 . S
C630 C628 1.419 . S
C630 C631 1.362 . S
C631 H621 0.930 . S
C631 C624 1.409 . S
C631 C630 1.362 . S
H632 C638 0.930 . S
H633 C641 0.930 . S
H634 C642 0.930 . S
H635 C643 0.930 . S
H636 C646 0.930 . S
H637 C647 0.930 . S
C638 H632 0.930 . S
C638 C639 1.355 . S
C638 C640 1.415 . S
C639 C638 1.355 . S
C639 C641 1.419 . S
C640 C638 1.415 . S
C640 C645 1.425 . S
C640 C647 1.409 1_556 S
C641 H633 0.930 . S
C641 C639 1.419 . S
C641 C642 1.362 . S
C642 H634 0.930 . S
C642 C641 1.362 . S
C642 C645 1.409 . S
C643 H635 0.930 . S
C643 C644 1.355 . S
C643 C645 1.415 1_554 S
C644 C643 1.355 . S
C644 C646 1.419 . S
C645 C640 1.425 . S
C645 C642 1.409 . S
C645 C643 1.415 1_556 S
C646 H636 0.930 . S
C646 C644 1.419 . S
C646 C647 1.362 . S
C647 H637 0.930 . S
C647 C640 1.409 1_554 S
C647 C646 1.362 . S
H648 C654 0.930 . S
H649 C657 0.930 . S
H650 C658 0.930 . S
H651 C659 0.930 1_565 S
H652 C662 0.930 . S
H653 C663 0.930 . S
C654 H648 0.930 . S
C654 C655 1.355 . S
C654 C656 1.415 . S
C655 C654 1.355 . S
C655 C657 1.419 . S
C656 C654 1.415 . S
C656 C661 1.425 . S
C656 C663 1.409 . S
C657 H649 0.930 . S
C657 C655 1.419 . S
C657 C658 1.362 . S
C658 H650 0.930 . S
C658 C657 1.362 . S
C658 C661 1.409 . S
C659 H651 0.930 1_545 S
C659 C660 1.355 . S
C659 C661 1.415 . S
C660 C659 1.355 . S
C660 C662 1.419 . S
C661 C656 1.425 . S
C661 C658 1.409 . S
C661 C659 1.415 . S
C662 H652 0.930 . S
C662 C660 1.419 . S
C662 C663 1.362 . S
C663 H653 0.930 . S
C663 C656 1.409 . S
C663 C662 1.362 . S
H664 C670 0.930 . S
H665 C673 0.930 . S
H666 C674 0.930 . S
H667 C675 0.930 . S
H668 C678 0.930 . S
H669 C679 0.930 . S
C670 H664 0.930 . S
C670 C671 1.355 . S
C670 C672 1.415 . S
C671 C670 1.355 . S
C671 C673 1.419 . S
C672 C670 1.415 . S
C672 C677 1.425 . S
C672 C679 1.409 . S
C673 H665 0.930 . S
C673 C671 1.419 . S
C673 C674 1.362 . S
C674 H666 0.930 . S
C674 C673 1.362 . S
C674 C677 1.409 . S
C675 H667 0.930 . S
C675 C676 1.355 . S
C675 C677 1.415 . S
C676 C675 1.355 . S
C676 C678 1.419 . S
C677 C672 1.425 . S
C677 C674 1.409 . S
C677 C675 1.415 . S
C678 H668 0.930 . S
C678 C676 1.419 . S
C678 C679 1.362 . S
C679 H669 0.930 . S
C679 C672 1.409 . S
C679 C678 1.362 . S
H680 C686 0.930 . S
H681 C689 0.930 . S
H682 C690 0.930 . S
H683 C691 0.930 . S
H684 C694 0.930 . S
H685 C695 0.930 . S
C686 H680 0.930 . S
C686 C687 1.355 . S
C686 C688 1.415 . S
C687 C686 1.355 . S
C687 C689 1.419 . S
C688 C686 1.415 . S
C688 C693 1.425 . S
C688 C695 1.409 . S
C689 H681 0.930 . S
C689 C687 1.419 . S
C689 C690 1.362 . S
C690 H682 0.930 . S
C690 C689 1.362 . S
C690 C693 1.409 . S
C691 H683 0.930 . S
C691 C692 1.355 . S
C691 C693 1.415 . S
C692 C691 1.355 . S
C692 C694 1.419 . S
C693 C688 1.425 . S
C693 C690 1.409 . S
C693 C691 1.415 . S
C694 H684 0.930 . S
C694 C692 1.419 . S
C694 C695 1.362 . S
C695 H685 0.930 . S
C695 C688 1.409 . S
C695 C694 1.362 . S
H696 C702 0.930 . S
H697 C705 0.930 . S
H698 C706 0.930 . S
H699 C707 0.930 . S
H700 C710 0.930 . S
H701 C711 0.930 . S
C702 H696 0.930 . S
C702 C703 1.355 . S
C702 C704 1.415 . S
C703 C702 1.355 . S
C703 C705 1.419 . S
C704 C702 1.415 . S
C704 C709 1.425 . S
C704 C711 1.409 . S
C705 H697 0.930 . S
C705 C703 1.419 . S
C705 C706 1.362 . S
C706 H698 0.930 . S
C706 C705 1.362 . S
C706 C709 1.409 . S
C707 H699 0.930 . S
C707 C708 1.355 . S
C707 C709 1.415 . S
C708 C707 1.355 . S
C708 C710 1.419 . S
C709 C704 1.425 . S
C709 C706 1.409 . S
C709 C707 1.415 . S
C710 H700 0.930 . S
C710 C708 1.419 . S
C710 C711 1.362 . S
C711 H701 0.930 . S
C711 C704 1.409 . S
C711 C710 1.362 . S
H712 C718 0.930 . S
H713 C721 0.930 . S
H714 C722 0.930 . S
H715 C723 0.930 . S
H716 C726 0.930 . S
H717 C727 0.930 . S
C718 H712 0.930 . S
C718 C719 1.355 . S
C718 C720 1.415 . S
C719 C718 1.355 . S
C719 C721 1.419 . S
C720 C718 1.415 . S
C720 C725 1.425 . S
C720 C727 1.409 . S
C721 H713 0.930 . S
C721 C719 1.419 . S
C721 C722 1.362 . S
C722 H714 0.930 . S
C722 C721 1.362 . S
C722 C725 1.409 . S
C723 H715 0.930 . S
C723 C724 1.355 . S
C723 C725 1.415 1_565 S
C724 C723 1.355 . S
C724 C726 1.419 . S
C725 C720 1.425 . S
C725 C722 1.409 . S
C725 C723 1.415 1_545 S
C726 H716 0.930 . S
C726 C724 1.419 . S
C726 C727 1.362 1_565 S
C727 H717 0.930 . S
C727 C720 1.409 . S
C727 C726 1.362 1_545 S
H728 C734 0.930 . S
H729 C737 0.930 . S
H730 C738 0.930 . S
H731 C739 0.930 . S
H732 C742 0.930 . S
H733 C743 0.930 . S
C734 H728 0.930 . S
C734 C735 1.355 1_455 S
C734 C736 1.415 . S
C735 C734 1.355 1_655 S
C735 C737 1.419 . S
C736 C734 1.415 . S
C736 C741 1.425 1_455 S
C736 C743 1.409 . S
C737 H729 0.930 . S
C737 C735 1.419 . S
C737 C738 1.362 . S
C738 H730 0.930 . S
C738 C737 1.362 . S
C738 C741 1.409 . S
C739 H731 0.930 . S
C739 C740 1.355 1_655 S
C739 C741 1.415 . S
C740 C739 1.355 1_455 S
C740 C742 1.419 . S
C741 C736 1.425 1_655 S
C741 C738 1.409 . S
C741 C739 1.415 . S
C742 H732 0.930 . S
C742 C740 1.419 . S
C742 C743 1.362 . S
C743 H733 0.930 . S
C743 C736 1.409 . S
C743 C742 1.362 . S
H744 C750 0.930 . S
H745 C753 0.930 . S
H746 C754 0.930 . S
H747 C755 0.930 . S
H748 C758 0.930 . S
H749 C759 0.930 . S
C750 H744 0.930 . S
C750 C751 1.355 . S
C750 C752 1.415 . S
C751 C750 1.355 . S
C751 C753 1.419 . S
C752 C750 1.415 . S
C752 C757 1.425 . S
C752 C759 1.409 . S
C753 H745 0.930 . S
C753 C751 1.419 . S
C753 C754 1.362 . S
C754 H746 0.930 . S
C754 C753 1.362 . S
C754 C757 1.409 . S
C755 H747 0.930 . S
C755 C756 1.355 . S
C755 C757 1.415 . S
C756 C755 1.355 . S
C756 C758 1.419 . S
C757 C752 1.425 . S
C757 C754 1.409 . S
C757 C755 1.415 . S
C758 H748 0.930 . S
C758 C756 1.419 . S
C758 C759 1.362 . S
C759 H749 0.930 . S
C759 C752 1.409 . S
C759 C758 1.362 . S
H760 C766 0.930 . S
H761 C769 0.930 . S
H762 C770 0.930 . S
H763 C771 0.930 . S
H764 C774 0.930 . S
H765 C775 0.930 . S
C766 H760 0.930 . S
C766 C767 1.355 . S
C766 C768 1.415 1_565 S
C767 C766 1.355 . S
C767 C769 1.419 . S
C768 C766 1.415 1_545 S
C768 C773 1.425 . S
C768 C775 1.409 . S
C769 H761 0.930 . S
C769 C767 1.419 . S
C769 C770 1.362 . S
C770 H762 0.930 . S
C770 C769 1.362 . S
C770 C773 1.409 1_565 S
C771 H763 0.930 . S
C771 C772 1.355 . S
C771 C773 1.415 . S
C772 C771 1.355 . S
C772 C774 1.419 . S
C773 C768 1.425 . S
C773 C770 1.409 1_545 S
C773 C771 1.415 . S
C774 H764 0.930 . S
C774 C772 1.419 . S
C774 C775 1.362 . S
C775 H765 0.930 . S
C775 C768 1.409 . S
C775 C774 1.362 . S
H776 C782 0.930 . S
H777 C785 0.930 . S
H778 C786 0.930 . S
H779 C787 0.930 . S
H780 C790 0.921 . S
H781 C791 0.930 . S
C782 H776 0.930 . S
C782 C783 1.355 . S
C782 C784 1.415 . S
C783 C782 1.355 . S
C783 C785 1.419 . S
C784 C782 1.415 . S
C784 C789 1.425 1_655 S
C784 C791 1.409 . S
C785 H777 0.930 . S
C785 C783 1.419 . S
C785 C786 1.362 1_655 S
C786 H778 0.930 . S
C786 C785 1.362 1_455 S
C786 C789 1.409 . S
C787 H779 0.930 . S
C787 C788 1.355 . S
C787 C789 1.415 . S
C788 C787 1.355 . S
C788 C790 1.419 . S
C789 C784 1.425 1_455 S
C789 C786 1.409 . S
C789 C787 1.415 . S
C790 H780 0.921 . S
C790 C788 1.419 . S
C790 C791 1.362 1_455 S
C791 H781 0.930 . S
C791 C784 1.409 . S
C791 C790 1.362 1_655 S
C367 C9 3.469 . S
C372 C18 3.469 . S
C383 C58 3.542 . S
C388 C49 3.542 . S
C399 C89 3.584 1_556 S
C404 C98 3.584 . S
C415 C138 3.451 . S
C420 C129 3.451 1_556 S
C431 C169 3.542 . S
C436 C178 3.542 1_556 S
C447 C218 3.588 . S
C452 C209 3.588 1_556 S
C463 C246 1.703 . S
C468 C255 1.703 . S
C479 C295 1.919 . S
C484 C286 1.919 . S
C495 C326 1.068 . S
C500 C335 1.068 . S
C511 C210 1.688 . S
C516 C6 1.695 . S
C527 C50 2.690 . S
C532 C130 2.730 . S
C543 C86 1.160 . S
C548 C166 1.182 . S
C559 C90 2.987 . S
C564 C259 3.189 . S
C575 C298 1.238 . S
C580 C10 1.186 1_556 S
C591 C339 2.080 . S
C596 C46 1.927 . S
C607 C329 0.958 . S
C612 C15 0.893 . S
C623 C59 2.288 . S
C628 C249 2.348 . S
C639 C290 3.033 . S
C644 C95 2.825 . S
C655 C99 1.652 . S
C660 C135 1.701 1_545 S
C671 C179 2.687 . S
C676 C19 2.727 . S
C687 C55 1.209 . S
C692 C215 1.187 . S
C703 C338 0.934 . S
C708 C126 0.852 . S
C719 C258 2.317 . S
C724 C170 2.279 . S
C735 C299 3.025 . S
C740 C206 2.803 . S
C751 C250 3.191 . S
C756 C219 2.998 . S
C767 C139 1.129 . S
C772 C289 1.268 . S
C783 C330 2.084 . S
C788 C175 1.948 . S
