# Generated by pormake.
# Topology snk, (6)-cn, num edge types: 1
# Building blocks:
#     Node 0, Type 0, BuildingBlock: BETDIP_clean_sbu_0, # of connection points: 6
#     Node 1, Type 0, BuildingBlock: BETDIP_clean_sbu_0, # of connection points: 6
#     Node 2, Type 0, BuildingBlock: BETDIP_clean_sbu_0, # of connection points: 6
#     Node 3, Type 0, BuildingBlock: BETDIP_clean_sbu_0, # of connection points: 6
#     Node 4, Type 0, BuildingBlock: BETDIP_clean_sbu_0, # of connection points: 6
#     Node 5, Type 0, BuildingBlock: BETDIP_clean_sbu_0, # of connection points: 6
#     Node 6, Type 0, BuildingBlock: BETDIP_clean_sbu_0, # of connection points: 6
#     Node 7, Type 0, BuildingBlock: BETDIP_clean_sbu_0, # of connection points: 6
#     Edge 8, Type (0, 0), BuildingBlock: EZIPEK_clean_linker_0, # of connection points: 2
#     Edge 9, Type (0, 0), BuildingBlock: EZIPEK_clean_linker_0, # of connection points: 2
#     Edge 10, Type (0, 0), BuildingBlock: EZIPEK_clean_linker_0, # of connection points: 2
#     Edge 11, Type (0, 0), BuildingBlock: EZIPEK_clean_linker_0, # of connection points: 2
#     Edge 12, Type (0, 0), BuildingBlock: EZIPEK_clean_linker_0, # of connection points: 2
#     Edge 13, Type (0, 0), BuildingBlock: EZIPEK_clean_linker_0, # of connection points: 2
#     Edge 14, Type (0, 0), BuildingBlock: EZIPEK_clean_linker_0, # of connection points: 2
#     Edge 15, Type (0, 0), BuildingBlock: EZIPEK_clean_linker_0, # of connection points: 2
#     Edge 16, Type (0, 0), BuildingBlock: EZIPEK_clean_linker_0, # of connection points: 2
#     Edge 17, Type (0, 0), BuildingBlock: EZIPEK_clean_linker_0, # of connection points: 2
#     Edge 18, Type (0, 0), BuildingBlock: EZIPEK_clean_linker_0, # of connection points: 2
#     Edge 19, Type (0, 0), BuildingBlock: EZIPEK_clean_linker_0, # of connection points: 2
#     Edge 20, Type (0, 0), BuildingBlock: EZIPEK_clean_linker_0, # of connection points: 2
#     Edge 21, Type (0, 0), BuildingBlock: EZIPEK_clean_linker_0, # of connection points: 2
#     Edge 22, Type (0, 0), BuildingBlock: EZIPEK_clean_linker_0, # of connection points: 2
#     Edge 23, Type (0, 0), BuildingBlock: EZIPEK_clean_linker_0, # of connection points: 2
#     Edge 24, Type (0, 0), BuildingBlock: EZIPEK_clean_linker_0, # of connection points: 2
#     Edge 25, Type (0, 0), BuildingBlock: EZIPEK_clean_linker_0, # of connection points: 2
#     Edge 26, Type (0, 0), BuildingBlock: EZIPEK_clean_linker_0, # of connection points: 2
#     Edge 27, Type (0, 0), BuildingBlock: EZIPEK_clean_linker_0, # of connection points: 2
#     Edge 28, Type (0, 0), BuildingBlock: EZIPEK_clean_linker_0, # of connection points: 2
#     Edge 29, Type (0, 0), BuildingBlock: EZIPEK_clean_linker_0, # of connection points: 2
#     Edge 30, Type (0, 0), BuildingBlock: EZIPEK_clean_linker_0, # of connection points: 2
#     Edge 31, Type (0, 0), BuildingBlock: EZIPEK_clean_linker_0, # of connection points: 2
# Relax obj value: 0.121
# Max RMSD: 0.198
# Mean RMSD: 0.157
data_MOF--net-snk--node1-BETDIP_clean_sbu_0--edge1-EZIPEK_clean_linker_0
_symmetry_space_group_name_H-M    P1
_symmetry_Int_Tables_number       1
_symmetry_cell_setting            triclinic
loop_
_symmetry_equiv_pos_as_xyz
'x, y, z'
_cell_length_a     26.305659
_cell_length_b     26.251109
_cell_length_c     20.680365
_cell_angle_alpha  96.802962
_cell_angle_beta   96.779058
_cell_angle_gamma 90.630482
loop_
_atom_site_label
_atom_site_type_symbol
_atom_site_fract_x
_atom_site_fract_y
_atom_site_fract_z
_atom_type_partial_charge
Tb0 Tb 0.9963 0.97081 0.46006 0.0
Tb1 Tb 0.02137 0.03826 0.5911 0.0
C2 C 0.97162 0.93921 0.34045 0.0
C3 C 0.97858 0.95463 0.27516 0.0
C4 C 0.96084 1.00153 0.25554 0.0
C5 C 0.96832 0.01492 0.19358 0.0
C6 C 0.99307 0.98148 0.14987 0.0
C7 C 0.00981 0.93427 0.16888 0.0
C8 C 1.00271 0.92105 0.23089 0.0
C9 C 0.05371 0.92827 0.55144 0.0
C10 C 0.07917 0.06274 0.47206 0.0
C11 C 0.06108 0.07261 0.70464 0.0
C12 C 0.05048 0.06025 0.76988 0.0
C13 C 0.03322 0.01069 0.77794 0.0
C14 C 0.02331 0.99893 0.83958 0.0
C15 C 0.03016 0.03652 0.89431 0.0
C16 C 0.04703 0.08616 0.88632 0.0
C17 C 0.05716 0.09791 0.82456 0.0
C18 C 0.94138 0.06579 0.51372 0.0
C19 C 0.93473 0.95386 0.57674 0.0
O20 O 0.94198 0.96716 0.37657 0.0
O21 O 0.01277 0.92494 0.37519 0.0
O22 O 0.05515 0.97445 0.54071 0.0
O23 O 0.02162 0.90282 0.5064 0.0
O24 O 0.05879 0.01964 0.43856 0.0
O25 O 0.0683 0.07888 0.53216 0.0
O26 O 0.0805 0.03556 0.66776 0.0
O27 O 0.02496 0.09614 0.67144 0.0
O28 O 0.98248 0.04741 0.4971 0.0
O29 O 0.94557 0.07288 0.57737 0.0
O30 O 0.97278 0.97809 0.6162 0.0
O31 O 0.93119 0.95369 0.51215 0.0
H32 H 0.94174 0.02815 0.28821 0.0
H33 H 0.95508 0.05152 0.17985 0.0
H34 H 0.02881 0.90785 0.13584 0.0
H35 H 0.01621 0.88446 0.24438 0.0
H36 H 0.02764 0.98088 0.73665 0.0
H37 H 0.01045 0.96042 0.84469 0.0
H38 H 0.05261 0.11567 0.92799 0.0
H39 H 0.07031 0.13633 0.81951 0.0
Tb40 Tb 0.27087 0.72885 0.7279 0.0
Tb41 Tb 0.23775 0.78426 0.85366 0.0
C42 C 0.27217 0.6825 0.61469 0.0
C43 C 0.26726 0.69821 0.54849 0.0
C44 C 0.2473 0.66326 0.49467 0.0
C45 C 0.2426 0.67773 0.43136 0.0
C46 C 0.25802 0.72725 0.42138 0.0
C47 C 0.27742 0.76243 0.47525 0.0
C48 C 0.28176 0.7481 0.53855 0.0
C49 C 0.33369 0.8037 0.78937 0.0
C50 C 0.19736 0.82569 0.72361 0.0
C51 C 0.23493 0.83106 0.96637 0.0
C52 C 0.2388 0.81565 0.03258 0.0
C53 C 0.24616 0.85309 0.08728 0.0
C54 C 0.24942 0.8387 0.15056 0.0
C55 C 0.24536 0.78672 0.15959 0.0
C56 C 0.23833 0.74923 0.10481 0.0
C57 C 0.23514 0.76363 0.04159 0.0
C58 C 0.17507 0.71016 0.79013 0.0
C59 C 0.31008 0.68652 0.85876 0.0
O60 O 0.23092 0.68672 0.64439 0.0
O61 O 0.31348 0.69912 0.65345 0.0
O62 O 0.28565 0.80234 0.78372 0.0
O63 O 0.34788 0.76328 0.75462 0.0
O64 O 0.21338 0.78283 0.69237 0.0
O65 O 0.21139 0.83923 0.78696 0.0
O66 O 0.27669 0.82656 0.93765 0.0
O67 O 0.19411 0.81389 0.92705 0.0
O68 O 0.22304 0.71126 0.79752 0.0
O69 O 0.16034 0.75035 0.82483 0.0
O70 O 0.29376 0.72919 0.89011 0.0
O71 O 0.29794 0.67394 0.79477 0.0
H72 H 0.2355 0.62479 0.50163 0.0
H73 H 0.22743 0.65028 0.39012 0.0
H74 H 0.2892 0.80086 0.4682 0.0
H75 H 0.29668 0.7758 0.57965 0.0
H76 H 0.24925 0.89337 0.08102 0.0
H77 H 0.25501 0.86799 0.19248 0.0
H78 H 0.23526 0.70896 0.11109 0.0
H79 H 0.22957 0.73429 0.99975 0.0
Tb80 Tb 0.51807 0.97256 0.10064 0.0
Tb81 Tb 0.48411 0.02444 0.97923 0.0
C82 C 0.54904 0.95435 0.21487 0.0
C83 C 0.54316 0.97757 0.28216 0.0
C84 C 0.58532 0.98078 0.33101 0.0
C85 C 0.57911 0.99738 0.39644 0.0
C86 C 0.53052 0.01064 0.41388 0.0
C87 C 0.48883 0.00964 0.36469 0.0
C88 C 0.49509 0.99344 0.29932 0.0
C89 C 0.44997 0.91897 1.01434 0.0
C90 C 0.43332 0.05806 0.10779 0.0
C91 C 0.44032 0.05307 0.87566 0.0
C92 C 0.45479 0.0558 0.8094 0.0
C93 C 0.41862 0.04113 0.75468 0.0
C94 C 0.43281 0.03795 0.6913 0.0
C95 C 0.48335 0.04963 0.68175 0.0
C96 C 0.5193 0.06576 0.73624 0.0
C97 C 0.5052 0.06857 0.79976 0.0
C98 C 0.56964 0.0621 0.0516 0.0
C99 C 0.56734 0.93943 0.97081 0.0
O100 O 0.57645 0.98045 0.18038 0.0
O101 O 0.50752 0.93335 0.18025 0.0
O102 O 0.45207 0.96708 1.02888 0.0
O103 O 0.48731 0.89967 0.04935 0.0
O104 O 0.46286 0.02605 0.13889 0.0
O105 O 0.43373 0.06294 0.04489 0.0
O106 O 0.43577 1.00645 0.89138 0.0
O107 O 0.46427 0.08477 0.92376 0.0
O108 O 0.52986 0.0455 0.07042 0.0
O109 O 0.56145 0.0602 0.98822 0.0
O110 O 0.53049 0.96383 0.93902 0.0
O111 O 0.5745 0.94357 0.03592 0.0
H112 H 0.62272 0.96896 0.31884 0.0
H113 H 0.61172 0.99808 0.43381 0.0
H114 H 0.45112 0.01988 0.37725 0.0
H115 H 0.46194 0.99178 0.26264 0.0
H116 H 0.37973 0.03064 0.76112 0.0
H117 H 0.40473 0.02514 0.64973 0.0
H118 H 0.55855 0.07454 0.72963 0.0
H119 H 0.53396 0.07935 0.84126 0.0
Tb120 Tb 0.29876 0.27457 0.3559 0.0
Tb121 Tb 0.2323 0.25524 0.22308 0.0
C122 C 0.33239 0.31059 0.47156 0.0
C123 C 0.32001 0.30102 0.53786 0.0
C124 C 0.27225 0.31391 0.55908 0.0
C125 C 0.26104 0.30422 0.62127 0.0
C126 C 0.29721 0.28151 0.66377 0.0
C127 C 0.34498 0.26887 0.64306 0.0
C128 C 0.35628 0.27863 0.58088 0.0
C129 C 0.32426 0.19629 0.2766 0.0
C130 C 0.20508 0.19544 0.3424 0.0
C131 C 0.1977 0.21797 0.10833 0.0
C132 C 0.21351 0.22402 0.04285 0.0
C133 C 0.26548 0.22978 0.03429 0.0
C134 C 0.27985 0.23823 0.9731 0.0
C135 C 0.24255 0.24106 0.91915 0.0
C136 C 0.19066 0.23466 0.92739 0.0
C137 C 0.1763 0.22631 0.98868 0.0
C138 C 0.20541 0.33224 0.30484 0.0
C139 C 0.32505 0.33387 0.23492 0.0
O140 O 0.29744 0.33275 0.43451 0.0
O141 O 0.35431 0.27337 0.43784 0.0
O142 O 0.30827 0.23865 0.2606 0.0
O143 O 0.33214 0.19911 0.34008 0.0
O144 O 0.244 0.21972 0.38042 0.0
O145 O 0.19398 0.20333 0.2799 0.0
O146 O 0.22917 0.19379 0.14767 0.0
O147 O 0.17938 0.25889 0.13925 0.0
O148 O 0.22273 0.29 0.31889 0.0
O149 O 0.1973 0.32999 0.24135 0.0
O150 O 0.28844 0.30677 0.19631 0.0
O151 O 0.33536 0.32845 0.29857 0.0
H152 H 0.2433 0.33129 0.52758 0.0
H153 H 0.22395 0.31425 0.63617 0.0
H154 H 0.37348 0.25137 0.67504 0.0
H155 H 0.39343 0.26847 0.56628 0.0
H156 H 0.29497 0.22807 0.07507 0.0
H157 H 0.32007 0.24284 0.96787 0.0
H158 H 0.16125 0.2366 0.88648 0.0
H159 H 0.13602 0.22213 0.99393 0.0
Tb160 Tb 0.77751 0.23062 0.21684 0.0
Tb161 Tb 0.73104 0.27616 0.3383 0.0
C162 C 0.7912 0.18898 0.10505 0.0
C163 C 0.78171 0.20235 0.03801 0.0
C164 C 0.76014 0.16507 0.98784 0.0
C165 C 0.7502 0.17699 0.92371 0.0
C166 C 0.76217 0.22622 0.90918 0.0
C167 C 0.78339 0.2637 0.95935 0.0
C168 C 0.79283 0.25195 1.02361 0.0
C169 C 0.8327 0.30317 0.29455 0.0
C170 C 0.69975 0.32362 0.20974 0.0
C171 C 0.71819 0.31904 0.44979 0.0
C172 C 0.72177 0.30483 0.51683 0.0
C173 C 0.76004 0.32823 0.56451 0.0
C174 C 0.76492 0.31481 0.6281 0.0
C175 C 0.73127 0.27821 0.64487 0.0
C176 C 0.69255 0.25517 0.59787 0.0
C177 C 0.68782 0.26832 0.53406 0.0
C178 C 0.67557 0.20435 0.2597 0.0
C179 C 0.80629 0.18052 0.34491 0.0
O180 O 0.75019 0.18085 0.13287 0.0
O181 O 0.82662 0.21614 0.1447 0.0
O182 O 0.78496 0.30123 0.28019 0.0
O183 O 0.85219 0.26534 0.26032 0.0
O184 O 0.71942 0.28292 0.17792 0.0
O185 O 0.70925 0.33407 0.27411 0.0
O186 O 0.76161 0.32098 0.42484 0.0
O187 O 0.68082 0.29774 0.40733 0.0
O188 O 0.7232 0.20657 0.2743 0.0
O189 O 0.65609 0.24061 0.29658 0.0
O190 O 0.78557 0.22044 0.37714 0.0
O191 O 0.80035 0.17229 0.28013 0.0
H192 H 0.75094 0.12678 0.99835 0.0
H193 H 0.73362 0.14782 0.88531 0.0
H194 H 0.79258 0.30193 0.94866 0.0
H195 H 0.80886 0.28152 0.06182 0.0
H196 H 0.78643 0.35664 0.55239 0.0
H197 H 0.79498 0.33278 0.6642 0.0
H198 H 0.6664 0.22679 0.61053 0.0
H199 H 0.65786 0.24972 0.4984 0.0
Tb200 Tb 0.78556 0.77288 0.8404 0.0
Tb201 Tb 0.72004 0.75055 0.70722 0.0
C202 C 0.82135 0.80772 0.95558 0.0
C203 C 0.80806 0.79844 1.02132 0.0
C204 C 0.79573 0.8398 0.06599 0.0
C205 C 0.78211 0.83151 0.12761 0.0
C206 C 0.78103 0.78168 0.14613 0.0
C207 C 0.7935 0.74033 0.10164 0.0
C208 C 0.80656 0.74853 0.03983 0.0
C209 C 0.81528 0.69758 0.75922 0.0
C210 C 0.69889 0.6878 0.82549 0.0
C211 C 0.68774 0.71264 0.59206 0.0
C212 C 0.7008 0.72221 0.52614 0.0
C213 C 0.74528 0.70199 0.50199 0.0
C214 C 0.7578 0.71179 0.44051 0.0
C215 C 0.72628 0.74209 0.40171 0.0
C216 C 0.68171 0.76203 0.42532 0.0
C217 C 0.66898 0.752 0.48669 0.0
C218 C 0.68833 0.82532 0.78887 0.0
C219 C 0.80865 0.83362 0.71916 0.0
O220 O 0.78733 0.8315 0.91941 0.0
O221 O 0.84129 0.76955 0.92112 0.0
O222 O 0.79682 0.73925 0.7449 0.0
O223 O 0.82251 0.69902 0.82254 0.0
O224 O 0.72845 0.72125 0.86642 0.0
O225 O 0.69305 0.68964 0.76102 0.0
O226 O 0.72315 0.6918 0.62987 0.0
O227 O 0.66435 0.7492 0.62501 0.0
O228 O 0.70826 0.78415 0.80304 0.0
O229 O 0.68017 0.82279 0.72542 0.0
O230 O 0.77155 0.80685 0.68112 0.0
O231 O 0.81964 0.82806 0.7827 0.0
H232 H 0.79643 0.87859 0.05305 0.0
H233 H 0.77249 0.86398 0.16098 0.0
H234 H 0.79277 0.70158 0.11467 0.0
H235 H 0.81532 0.71565 1.00653 0.0
H236 H 0.77071 0.6787 0.53064 0.0
H237 H 0.79228 0.6959 0.42325 0.0
H238 H 0.65675 0.78538 0.39616 0.0
H239 H 0.63432 0.76785 0.50345 0.0
Tb240 Tb 0.49261 0.47254 0.95708 0.0
Tb241 Tb 0.52958 0.53648 0.08909 0.0
C242 C 0.46255 0.44911 0.83685 0.0
C243 C 0.47408 0.46705 0.77408 0.0
C244 C 0.44908 0.50919 0.74935 0.0
C245 C 0.45947 0.52472 0.68941 0.0
C246 C 0.49479 0.4983 0.65272 0.0
C247 C 0.51982 0.4564 0.67725 0.0
C248 C 0.50948 0.44085 0.73703 0.0
C249 C 0.55462 0.42613 0.03917 0.0
C250 C 0.58144 0.55704 0.9636 0.0
C251 C 0.5747 0.56692 0.2013 0.0
C252 C 0.56333 0.55901 0.2684 0.0
C253 C 0.55399 0.5094 0.28478 0.0
C254 C 0.5431 0.50221 0.34786 0.0
C255 C 0.54073 0.54437 0.396 0.0
C256 C 0.54966 0.59398 0.37971 0.0
C257 C 0.56109 0.60118 0.31665 0.0
C258 C 0.44676 0.56902 1.02147 0.0
C259 C 0.43988 0.45496 0.08084 0.0
O260 O 0.43788 0.48017 0.87616 0.0
O261 O 0.49925 0.42565 0.86921 0.0
O262 O 0.55644 0.47276 1.03048 0.0
O263 O 0.51872 0.40238 0.9975 0.0
O264 O 0.5565 0.51607 0.9311 0.0
O265 O 0.57671 0.57329 1.02605 0.0
O266 O 0.58766 0.52612 0.16447 0.0
O267 O 0.54313 0.59547 0.16824 0.0
O268 O 0.48548 0.5491 0.99979 0.0
O269 O 0.45523 0.5748 0.08506 0.0
O270 O 0.48084 0.47726 0.11668 0.0
O271 O 0.4316 0.45635 1.0164 0.0
H272 H 0.42142 0.53018 0.77619 0.0
H273 H 0.4397 0.55715 0.67141 0.0
H274 H 0.54706 0.43536 0.64971 0.0
H275 H 0.52907 0.40796 0.75402 0.0
H276 H 0.55492 0.47597 0.24884 0.0
H277 H 0.53614 0.46364 0.35904 0.0
H278 H 0.54783 0.6271 0.41588 0.0
H279 H 0.56792 0.63976 0.30544 0.0
Tb280 Tb 0.01498 0.4883 0.58562 0.0
Tb281 Tb 0.99997 0.54802 0.46899 0.0
C282 C 0.04879 0.45184 0.68929 0.0
C283 C 0.04545 0.4638 0.76011 0.0
C284 C 0.00915 0.4979 0.78376 0.0
C285 C 1.00644 0.50817 0.85138 0.0
C286 C 0.04005 0.48455 0.89599 0.0
C287 C 0.07653 0.45088 0.87224 0.0
C288 C 0.0792 0.4406 0.80482 0.0
C289 C 0.94046 0.45292 0.49389 0.0
C290 C 0.934 0.57398 0.58805 0.0
C291 C 0.9697 0.5825 0.36312 0.0
C292 C 0.98013 0.56728 0.29449 0.0
C293 C 0.96021 0.52118 0.25872 0.0
C294 C 0.97446 0.50504 0.19658 0.0
C295 C 0.01168 0.53265 0.16935 0.0
C296 C 0.02526 0.58237 0.20203 0.0
C297 C 0.01094 0.59873 0.26413 0.0
C298 C 0.07309 0.5835 0.56398 0.0
C299 C 0.07885 0.46091 0.46289 0.0
O300 O 0.07408 0.4853 0.66252 0.0
O301 O 1.00647 0.43557 0.65256 0.0
O302 O 0.98331 0.4712 0.48526 0.0
O303 O 0.94032 0.45037 0.55605 0.0
O304 O 0.96579 0.54712 0.62416 0.0
O305 O 0.93761 0.57651 0.52502 0.0
O306 O 0.94289 0.54988 0.38949 0.0
O307 O 0.00859 0.60245 0.404 0.0
O308 O 0.03011 0.56482 0.56977 0.0
O309 O 0.07471 0.58723 0.50234 0.0
O310 O 0.04915 0.49056 0.4286 0.0
O311 O 0.07427 0.4564 0.52535 0.0
H312 H 0.98286 0.51633 0.75001 0.0
H313 H 0.97811 0.53429 0.8689 0.0
H314 H 0.10279 0.43238 0.90599 0.0
H315 H 0.10753 0.41434 0.78754 0.0
H316 H 0.93366 0.49722 0.27868 0.0
H317 H 0.95507 0.47098 0.17048 0.0
H318 H 0.04657 0.6098 0.18026 0.0
H319 H 0.02437 0.63605 0.28867 0.0
C320 C 0.10284 0.09676 0.36887 0.0
C321 C 0.11121 0.09644 0.43823 0.0
C322 C 0.16927 0.17028 0.44317 0.0
C323 C 0.17074 0.1621 0.37394 0.0
N324 N 0.14497 0.10492 0.27353 0.0
N325 N 0.16625 0.12634 0.53838 0.0
C326 C 0.13952 0.12153 0.3373 0.0
C327 C 0.14876 0.13103 0.47465 0.0
N328 N 0.05865 0.07703 0.33299 0.0
N329 N 0.18371 0.21636 0.47886 0.0
H330 H 0.15664 0.09515 0.56175 0.0
H331 H 0.19568 0.14996 0.56449 0.0
H332 H 0.1906 0.24923 0.45716 0.0
H333 H 0.18054 0.22362 0.52892 0.0
H334 H 0.05053 0.08005 0.283 0.0
H335 H 0.02724 0.06536 0.35429 0.0
H336 H 0.12467 0.07293 0.24817 0.0
H337 H 0.17361 0.11807 0.24871 0.0
C338 C 0.14468 0.90448 0.58784 0.0
C339 C 0.0919 0.90429 0.59693 0.0
C340 C 0.11226 0.86568 0.69889 0.0
C341 C 0.16351 0.85922 0.68534 0.0
N342 N 0.22942 0.87168 0.61672 0.0
N343 N 0.02465 0.873 0.65291 0.0
C344 C 0.18003 0.87858 0.62975 0.0
C345 C 0.0755 0.88174 0.65022 0.0
N346 N 0.16098 0.92877 0.53878 0.0
N347 N 0.09817 0.85656 0.75806 0.0
H348 H 0.99683 0.88128 0.61615 0.0
H349 H 0.01068 0.85195 0.68699 0.0
H350 H 0.12307 0.84354 0.7951 0.0
H351 H 0.06262 0.86647 0.77267 0.0
H352 H 0.19938 0.93565 0.53436 0.0
H353 H 0.13608 0.94434 0.50372 0.0
H354 H 0.24239 0.8784 0.57277 0.0
H355 H 0.25736 0.8572 0.64932 0.0
C356 C 0.35119 0.88686 0.86366 0.0
C357 C 0.36646 0.83638 0.84257 0.0
C358 C 0.42247 0.83614 0.94485 0.0
C359 C 0.41296 0.88854 0.96306 0.0
N360 N 0.35283 0.95648 0.95268 0.0
N361 N 0.43447 0.77542 0.85258 0.0
C362 C 0.37301 0.91228 0.9259 0.0
C363 C 0.40708 0.81431 0.87993 0.0
N364 N 0.31835 0.9115 0.8222 0.0
N365 N 0.44438 0.80625 0.98964 0.0
H366 H 0.43099 0.764 0.80232 0.0
H367 H 0.46681 0.76124 0.87812 0.0
H368 H 0.44948 0.81852 0.03983 0.0
H369 H 0.44923 0.76696 0.97799 0.0
H370 H 0.30906 0.94988 0.83137 0.0
H371 H 0.30456 0.89494 0.77492 0.0
H372 H 0.32123 0.97405 0.93055 0.0
H373 H 0.36352 0.97217 1.00108 0.0
C374 C 0.4232 0.14417 0.169 0.0
C375 C 0.40314 0.09384 0.14749 0.0
C376 C 0.3299 0.11117 0.20914 0.0
C377 C 0.35178 0.16031 0.23361 0.0
N378 N 0.42474 0.21889 0.24989 0.0
N379 N 0.34126 0.02642 0.15204 0.0
C380 C 0.39999 0.17556 0.2172 0.0
C381 C 0.35751 0.0764 0.16899 0.0
N382 N 0.46431 0.16218 0.14304 0.0
N383 N 0.28254 0.09812 0.22383 0.0
H384 H 0.35967 1.00058 0.12085 0.0
H385 H 0.31143 0.00962 0.17158 0.0
H386 H 0.26288 0.1217 0.25605 0.0
H387 H 0.26161 0.06546 0.20183 0.0
H388 H 0.47685 0.20043 0.15104 0.0
H389 H 0.48334 0.13982 0.10897 0.0
H390 H 0.46246 0.22886 0.24529 0.0
H391 H 0.4091 0.24299 0.28581 0.0
C392 C 0.88932 0.87031 0.5883 0.0
C393 C 0.89758 0.92385 0.60775 0.0
C394 C 0.85392 0.917 0.70588 0.0
C395 C 0.84304 0.86418 0.68468 0.0
N396 N 0.84898 0.79034 0.60346 0.0
N397 N 0.8783 0.99988 0.6771 0.0
C398 C 0.86011 0.84101 0.6251 0.0
C399 C 0.87738 0.94753 0.6645 0.0
N400 N 0.91236 0.84624 0.53746 0.0
N401 N 0.84206 0.93838 0.76558 0.0
H402 H 0.89347 0.02366 0.64698 0.0
H403 H 0.85939 0.02005 0.71315 0.0
H404 H 0.82222 0.91876 0.79591 0.0
H405 H 0.85533 0.97457 0.78759 0.0
H406 H 0.91511 0.8066 0.52797 0.0
H407 H 0.93223 0.86523 0.50666 0.0
H408 H 0.85072 0.77404 0.55537 0.0
H409 H 0.83654 0.76432 0.63276 0.0
C410 C 0.92503 0.12343 0.42535 0.0
C411 C 0.90538 0.09404 0.47044 0.0
C412 C 0.81869 0.12088 0.43283 0.0
C413 C 0.83856 0.14535 0.38294 0.0
N414 N 0.91023 0.15452 0.32039 0.0
N415 N 0.83194 0.05753 0.50946 0.0
C416 C 0.89131 0.14094 0.37484 0.0
C417 C 0.85165 0.09075 0.47222 0.0
N418 N 0.97527 0.13922 0.43419 0.0
N419 N 0.76836 0.12592 0.44222 0.0
H420 H 0.85485 0.03433 0.53772 0.0
H421 H 0.79289 0.04966 0.50785 0.0
H422 H 0.7421 0.14378 0.411 0.0
H423 H 0.75326 0.11444 0.4827 0.0
H424 H 0.99032 0.1642 0.40526 0.0
H425 H 0.99969 0.13405 0.47615 0.0
H426 H 0.9476 0.14664 0.31082 0.0
H427 H 0.88832 0.16944 0.28224 0.0
C428 C 0.66125 0.11613 0.19827 0.0
C429 C 0.64814 0.16871 0.20458 0.0
C430 C 0.59147 0.15334 0.09985 0.0
C431 C 0.60357 0.10067 0.09532 0.0
N432 N 0.6604 0.03542 0.12801 0.0
N433 N 0.59515 0.23613 0.16526 0.0
C434 C 0.64158 0.08321 0.14108 0.0
C435 C 0.61195 0.1871 0.15622 0.0
N436 N 0.6893 0.0966 0.24927 0.0
N437 N 0.5616 0.17152 0.04926 0.0
H438 H 0.60959 0.26264 0.20418 0.0
H439 H 0.56405 0.2499 0.13715 0.0
H440 H 0.5447 0.14816 1.00804 0.0
H441 H 0.55662 0.21029 0.04503 0.0
H442 H 0.69548 0.05761 0.25052 0.0
H443 H 0.70181 0.11849 0.29381 0.0
H444 H 0.69189 0.02148 0.15529 0.0
H445 H 0.64749 0.01206 0.08497 0.0
C446 C 0.68014 0.89217 0.88344 0.0
C447 C 0.65644 0.85554 0.8331 0.0
C448 C 0.57401 0.8718 0.8745 0.0
C449 C 0.59893 0.90452 0.92955 0.0
N450 N 0.67963 0.93003 0.9951 0.0
N451 N 0.58126 0.805 0.7851 0.0
C452 C 0.65318 0.91005 0.93684 0.0
C453 C 0.60348 0.84381 0.82978 0.0
N454 N 0.72784 0.91137 0.87919 0.0
N455 N 0.52192 0.86738 0.86433 0.0
H456 H 0.60045 0.78525 0.74901 0.0
H457 H 0.54462 0.78998 0.78649 0.0
H458 H 0.49888 0.88115 0.89947 0.0
H459 H 0.50165 0.85189 0.81988 0.0
H460 H 0.74506 0.94185 0.91156 0.0
H461 H 0.74775 0.89987 0.83945 0.0
H462 H 0.71952 0.93207 1.0031 0.0
H463 H 0.66254 0.93624 0.03791 0.0
C464 C 0.66557 0.59597 0.94435 0.0
C465 C 0.61222 0.58785 0.92569 0.0
C466 C 0.6155 0.64351 0.83863 0.0
C467 C 0.66934 0.64953 0.85485 0.0
N468 N 0.74702 0.62033 0.9116 0.0
N469 N 0.5389 0.594 0.84388 0.0
C470 C 0.69479 0.62261 0.9046 0.0
C471 C 0.58814 0.60803 0.86906 0.0
N472 N 0.68861 0.57764 0.99941 0.0
N473 N 0.58939 0.67431 0.79799 0.0
H474 H 0.51436 0.57282 0.86695 0.0
H475 H 0.52315 0.60126 0.79731 0.0
H476 H 0.60698 0.70177 0.77533 0.0
H477 H 0.54958 0.67613 0.7917 0.0
H478 H 0.72588 0.58798 1.02008 0.0
H479 H 0.66962 0.55428 1.02674 0.0
H480 H 0.76772 0.5976 0.94279 0.0
H481 H 0.76945 0.63671 0.88084 0.0
C482 C 0.68155 0.37621 0.11532 0.0
C483 C 0.66566 0.35744 0.17173 0.0
C484 C 0.57732 0.3788 0.13657 0.0
C485 C 0.59305 0.40092 0.08281 0.0
N486 N 0.66146 0.42588 1.02397 0.0
N487 N 0.60047 0.35825 0.24615 0.0
C488 C 0.64572 0.40159 0.07335 0.0
C489 C 0.61451 0.36485 0.18605 0.0
N490 N 0.73086 0.36971 0.10182 0.0
N491 N 0.52677 0.36828 0.13905 0.0
H492 H 0.62481 0.34626 0.28435 0.0
H493 H 0.56492 0.36915 0.25998 0.0
H494 H 0.49888 0.37377 0.1009 0.0
H495 H 0.51359 0.34775 0.1742 0.0
H496 H 0.74325 0.37587 0.05733 0.0
H497 H 0.75937 0.35647 0.13475 0.0
H498 H 0.69975 0.43315 1.01927 0.0
H499 H 0.63613 0.44101 0.98893 0.0
C500 C 0.87199 0.43017 0.3995 0.0
C501 C 0.91185 0.41453 0.44444 0.0
C502 C 0.8977 0.32535 0.3947 0.0
C503 C 0.86138 0.34159 0.34512 0.0
N504 N 0.82156 0.41138 0.29339 0.0
N505 N 0.96757 0.34829 0.48066 0.0
C506 C 0.85042 0.39457 0.34573 0.0
C507 C 0.92598 0.3624 0.44102 0.0
N508 N 0.85376 0.47867 0.40922 0.0
N509 N 0.90372 0.27442 0.39977 0.0
H510 H 0.98926 0.3738 0.51603 0.0
H511 H 0.98376 0.31228 0.47439 0.0
H512 H 0.88482 0.24607 0.36641 0.0
H513 H 0.92401 0.26024 0.43988 0.0
H514 H 0.82123 0.49077 0.38198 0.0
H515 H 0.86837 0.50536 0.44866 0.0
H516 H 0.81663 0.45006 0.28824 0.0
H517 H 0.80694 0.38701 0.25169 0.0
C518 C 0.88824 0.68668 0.69269 0.0
C519 C 0.84479 0.66507 0.71479 0.0
C520 C 0.85672 0.58358 0.64794 0.0
C521 C 0.89791 0.6067 0.62249 0.0
N522 N 0.94427 0.68344 0.60796 0.0
N523 N 0.78359 0.59529 0.70931 0.0
C524 C 0.91081 0.65934 0.6407 0.0
C525 C 0.82777 0.6141 0.69121 0.0
N526 N 0.90941 0.73234 0.72336 0.0
N527 N 0.84589 0.53234 0.6313 0.0
H528 H 0.76287 0.61589 0.74319 0.0
H529 H 0.76589 0.56062 0.68829 0.0
H530 H 0.86388 0.50995 0.59601 0.0
H531 H 0.82063 0.51161 0.65397 0.0
H532 H 0.94414 0.74734 0.71353 0.0
H533 H 0.89487 0.75297 0.76308 0.0
H534 H 0.95118 0.72299 0.61497 0.0
H535 H 0.96079 0.66475 0.56868 0.0
C536 C 0.36782 0.41867 0.21955 0.0
C537 C 0.35885 0.36527 0.20047 0.0
C538 C 0.39483 0.37225 0.09684 0.0
C539 C 0.40502 0.42549 0.11616 0.0
N540 N 0.3926 0.50149 0.18951 0.0
N541 N 0.37799 0.28943 0.13075 0.0
C542 C 0.3894 0.44917 0.17613 0.0
C543 C 0.37601 0.34174 0.14159 0.0
N544 N 0.35701 0.44001 0.27974 0.0
N545 N 0.40278 0.3502 0.03568 0.0
H546 H 0.36625 0.26553 0.16315 0.0
H547 H 0.39625 0.26976 0.09364 0.0
H548 H 0.41943 0.36908 1.00185 0.0
H549 H 0.38901 0.31359 1.01608 0.0
H550 H 0.36615 0.47766 0.29965 0.0
H551 H 0.34243 0.41889 0.31302 0.0
H552 H 0.37848 0.52251 0.22902 0.0
H553 H 0.40555 0.52494 0.15736 0.0
C554 C 0.42953 0.63168 0.9397 0.0
C555 C 0.41032 0.60009 0.98268 0.0
C556 C 0.3233 0.62691 0.94664 0.0
C557 C 0.34278 0.65221 0.89724 0.0
N558 N 0.41362 0.6646 0.83575 0.0
N559 N 0.33752 0.56276 1.02217 0.0
C560 C 0.39553 0.64986 0.88998 0.0
C561 C 0.35668 0.59643 0.9851 0.0
N562 N 0.4796 0.64795 0.94939 0.0
N563 N 0.27308 0.63172 0.95658 0.0
H564 H 0.36088 0.54008 0.05071 0.0
H565 H 0.29856 0.55455 1.02079 0.0
H566 H 0.24701 0.65098 0.92676 0.0
H567 H 0.25805 0.61912 0.99647 0.0
H568 H 0.49398 0.67493 0.92259 0.0
H569 H 0.50483 0.63966 0.98931 0.0
H570 H 0.45152 0.65954 0.82673 0.0
H571 H 0.39011 0.67742 0.79719 0.0
C572 C 0.15926 0.6245 0.72271 0.0
C573 C 0.14349 0.67577 0.73742 0.0
C574 C 0.08781 0.66847 0.63288 0.0
C575 C 0.10268 0.61711 0.61857 0.0
N576 N 0.15876 0.54859 0.64305 0.0
N577 N 0.07775 0.73779 0.71727 0.0
C578 C 0.14004 0.59566 0.66182 0.0
C579 C 0.10357 0.69551 0.69569 0.0
N580 N 0.1898 0.60238 0.7693 0.0
N581 N 0.05998 0.69225 0.58565 0.0
H582 H 0.08236 0.7545 0.76571 0.0
H583 H 0.04586 0.75127 0.69017 0.0
H584 H 0.04779 0.67394 0.5388 0.0
H585 H 0.0534 0.73153 0.59081 0.0
H586 H 0.19957 0.56395 0.76475 0.0
H587 H 0.20124 0.62132 0.81607 0.0
H588 H 0.19007 0.53263 0.66816 0.0
H589 H 0.14476 0.52661 0.59921 0.0
C590 C 0.12248 0.34912 0.35018 0.0
C591 C 0.17416 0.36403 0.34814 0.0
C592 C 0.16522 0.43936 0.42818 0.0
C593 C 0.11254 0.42634 0.42636 0.0
N594 N 0.03854 0.37545 0.37452 0.0
N595 N 0.24409 0.42514 0.37903 0.0
C596 C 0.0905 0.38294 0.38449 0.0
C597 C 0.19551 0.40954 0.38584 0.0
N598 N 0.10388 0.3024 0.31975 0.0
N599 N 0.18593 0.48083 0.46943 0.0
H600 H 0.26708 0.40351 0.34913 0.0
H601 H 0.26067 0.46042 0.39951 0.0
H602 H 0.1638 0.50599 0.49637 0.0
H603 H 0.22502 0.48929 0.4791 0.0
H604 H 0.06873 0.2867 0.3269 0.0
H605 H 0.12503 0.27734 0.29117 0.0
H606 H 0.01982 0.34798 0.33894 0.0
H607 H 0.01354 0.39988 0.39746 0.0
C608 C 0.0624 0.0181 1.00878 0.0
C609 C 0.02049 0.02338 0.96024 0.0
C610 C 0.96093 0.99681 0.0339 0.0
C611 C 1.00238 0.99612 0.08446 0.0
N612 N 0.0917 0.0132 0.12345 0.0
N613 N 0.92928 0.02541 0.92948 0.0
C614 C 0.0529 0.00879 0.07281 0.0
C615 C 0.96953 0.01486 0.97363 0.0
N616 N 0.11136 0.01995 0.99295 0.0
N617 N 0.91369 0.97836 0.04253 0.0
H618 H 0.93404 0.03866 0.88492 0.0
H619 H 0.89134 0.02521 0.93923 0.0
H620 H 0.90596 0.96468 0.08578 0.0
H621 H 0.88334 0.97244 1.00508 0.0
H622 H 0.14324 0.01062 1.02376 0.0
H623 H 0.11998 0.02656 0.94665 0.0
H624 H 0.12799 0.02819 0.12013 0.0
H625 H 0.08655 1.0057 0.17066 0.0
C626 C 0.21012 0.76662 0.32831 0.0
C627 C 0.25454 0.74218 0.35414 0.0
C628 C 0.29437 0.75044 0.2544 0.0
C629 C 0.24852 0.77144 0.22669 0.0
N630 N 0.16014 0.79302 0.23223 0.0
N631 N 0.33639 0.70464 0.34017 0.0
C632 C 0.20564 0.77785 0.26232 0.0
C633 C 0.29595 0.73223 0.31664 0.0
N634 N 0.17268 0.77988 0.36734 0.0
N635 N 0.33693 0.74959 0.22215 0.0
H636 H 0.3398 0.69224 0.38655 0.0
H637 H 0.36484 0.69087 0.31222 0.0
H638 H 0.33715 0.76234 0.17628 0.0
H639 H 0.37308 0.74005 0.24275 0.0
H640 H 0.14225 0.80305 0.35416 0.0
H641 H 0.17379 0.77065 0.41518 0.0
H642 H 0.12595 0.79311 0.25296 0.0
H643 H 0.15549 0.80189 0.18407 0.0
C644 C 0.51547 0.99186 0.59085 0.0
C645 C 0.49923 0.04116 0.61475 0.0
C646 C 0.51132 0.07248 0.51021 0.0
C647 C 0.52214 0.02181 0.48407 0.0
N648 N 0.52716 0.93153 0.49604 0.0
N649 N 0.47682 0.1275 0.5966 0.0
C650 C 0.52257 0.98104 0.52358 0.0
C651 C 0.49591 0.08134 0.57429 0.0
N652 N 0.52458 0.95546 0.6327 0.0
N653 N 0.51707 0.11223 0.47431 0.0
H654 H 0.46674 0.13578 0.64396 0.0
H655 H 0.4678 0.1564 0.56708 0.0
H656 H 0.52841 0.10701 0.42735 0.0
H657 H 0.51477 0.15066 0.49282 0.0
H658 H 0.54217 0.92094 0.62017 0.0
H659 H 0.51845 0.96138 0.68192 0.0
H660 H 0.52185 0.89972 0.52038 0.0
H661 H 0.532 0.92168 0.44685 0.0
C662 C 0.27183 0.3018 0.84381 0.0
C663 C 0.25779 0.25118 0.85408 0.0
C664 C 0.2681 0.22068 0.73908 0.0
C665 C 0.28481 0.27071 0.72988 0.0
N666 N 0.31071 0.357 0.77583 0.0
N667 N 0.25013 0.1609 0.81524 0.0
C668 C 0.28899 0.31074 0.78302 0.0
C669 C 0.25803 0.21017 0.80266 0.0
N670 N 0.26715 0.34167 0.8915 0.0
N671 N 0.2606 0.18347 0.6865 0.0
H672 H 0.2422 0.15182 0.86084 0.0
H673 H 0.2553 0.1287 0.78237 0.0
H674 H 0.26906 0.18926 0.63986 0.0
H675 H 0.24282 0.14804 0.68777 0.0
H676 H 0.27117 0.38009 0.88465 0.0
H677 H 0.25536 0.33663 0.9368 0.0
H678 H 0.3203 0.38592 0.81449 0.0
H679 H 0.32305 0.3651 0.73194 0.0
C680 C 0.78487 0.21704 0.79436 0.0
C681 C 0.7531 0.23842 0.84094 0.0
C682 C 0.70814 0.28761 0.75944 0.0
C683 C 0.73742 0.26335 0.71184 0.0
N684 N 0.7971 0.19877 0.67971 0.0
N685 N 0.67901 0.28685 0.86622 0.0
C686 C 0.77381 0.22609 0.728 0.0
C687 C 0.7131 0.27173 0.82306 0.0
N688 N 0.82684 0.18994 0.81408 0.0
N689 N 0.67662 0.32666 0.74424 0.0
H690 H 0.68131 0.27575 0.91325 0.0
H691 H 0.64601 0.30682 0.85376 0.0
H692 H 0.67109 0.33851 0.69756 0.0
H693 H 0.65881 0.34981 0.77888 0.0
H694 H 0.85448 0.17817 0.78375 0.0
H695 H 0.8366 0.18284 0.8625 0.0
H696 H 0.81963 0.16716 0.68736 0.0
H697 H 0.79055 0.20496 0.63053 0.0
C698 C 0.70997 0.73083 0.27775 0.0
C699 C 0.73999 0.75285 0.33624 0.0
C700 C 0.79924 0.79043 0.27011 0.0
C701 C 0.76653 0.77253 0.2119 0.0
N702 N 0.6856 0.73396 0.16151 0.0
N703 N 0.80817 0.81122 0.38849 0.0
C704 C 0.7204 0.74504 0.21609 0.0
C705 C 0.78324 0.78486 0.33251 0.0
N706 N 0.67263 0.69484 0.28079 0.0
N707 N 0.84654 0.811 0.26585 0.0
H708 H 0.79748 0.80847 0.43497 0.0
H709 H 0.83648 0.83926 0.38843 0.0
H710 H 0.85998 0.81518 0.22126 0.0
H711 H 0.87422 0.81967 0.30614 0.0
H712 H 0.65326 0.67334 0.23947 0.0
H713 H 0.66416 0.68299 0.32479 0.0
H714 H 0.64903 0.71879 0.16281 0.0
H715 H 0.69138 0.74436 0.11573 0.0
C716 C 0.55207 0.53896 0.58217 0.0
C717 C 0.50512 0.51356 0.58782 0.0
C718 C 0.47849 0.51675 0.47025 0.0
C719 C 0.52791 0.53614 0.46294 0.0
N720 N 0.61441 0.5594 0.51089 0.0
N721 N 0.42617 0.47189 0.53554 0.0
C722 C 0.5654 0.54583 0.51874 0.0
C723 C 0.46892 0.50085 0.53138 0.0
N724 N 0.58347 0.55752 0.63761 0.0
N725 N 0.44012 0.51504 0.41928 0.0
H726 H 0.41754 0.45975 0.57931 0.0
H727 H 0.40144 0.45634 0.49473 0.0
H728 H 0.44536 0.52711 0.37419 0.0
H729 H 0.40203 0.50641 0.42366 0.0
H730 H 0.6155 0.58113 0.63729 0.0
H731 H 0.57494 0.55317 0.6847 0.0
H732 H 0.6447 0.56164 0.54849 0.0
H733 H 0.62592 0.56427 0.46542 0.0
C734 C 0.01174 0.45812 0.99939 0.0
C735 C 0.03728 0.49427 0.96788 0.0
C736 C 0.06708 0.54118 0.07561 0.0
C737 C 0.03142 0.51257 0.10444 0.0
N738 N 0.01062 0.42267 0.10138 0.0
N739 N 0.09171 0.57005 0.97658 0.0
C740 C 0.01461 0.46453 0.06888 0.0
C741 C 0.06582 0.53575 1.00617 0.0
N742 N 0.98439 0.4178 0.96332 0.0
N743 N 0.10761 0.56597 0.11429 0.0
H744 H 0.09307 0.56654 0.92603 0.0
H745 H 0.10876 0.60377 1.00207 0.0
H746 H 0.11493 0.56183 0.16412 0.0
H747 H 0.13749 0.5836 0.09567 0.0
H748 H 0.96123 0.39338 0.98422 0.0
H749 H 0.98179 0.41126 0.91226 0.0
H750 H 1.00294 0.38567 0.07751 0.0
H751 H 0.0229 0.42419 0.15149 0.0
loop_
_geom_bond_atom_site_label_1
_geom_bond_atom_site_label_2
_geom_bond_distance
_geom_bond_site_symmetry_2
_ccdc_geom_bond_type
Tb0 C2 2.809 1_655 S
Tb0 O20 2.484 . S
Tb0 O21 2.440 1_655 S
Tb0 O22 2.658 1_655 S
Tb0 O23 2.409 1_655 S
Tb0 O24 2.378 1_665 S
Tb0 O28 2.325 1_565 S
Tb0 O31 2.341 . S
Tb1 C11 2.809 1_455 S
Tb1 O22 2.325 1_545 S
Tb1 O25 2.341 . S
Tb1 O26 2.484 . S
Tb1 O27 2.440 1_455 S
Tb1 O28 2.658 1_455 S
Tb1 O29 2.409 1_455 S
Tb1 O30 2.378 1_445 S
C2 Tb0 2.809 1_455 S
C2 C3 1.514 . S
C2 O20 1.248 1_455 S
C2 O21 1.266 . S
C3 C2 1.514 . S
C3 C4 1.359 1_455 S
C3 C8 1.348 . S
C4 C3 1.359 1_655 S
C4 C5 1.380 1_655 S
C4 H32 0.929 1_565 S
C5 C4 1.380 1_455 S
C5 C6 1.347 . S
C5 H33 0.931 1_465 S
C6 C5 1.347 . S
C6 C7 1.369 . S
C7 C6 1.369 . S
C7 C8 1.408 . S
C7 H34 0.930 . S
C8 C3 1.348 . S
C8 C7 1.408 . S
C8 H35 0.930 . S
C9 O22 1.281 . S
C9 O23 1.254 . S
C10 O24 1.236 . S
C10 O25 1.266 . S
C11 Tb1 2.809 1_655 S
C11 C12 1.514 . S
C11 O26 1.248 1_655 S
C11 O27 1.266 . S
C12 C11 1.514 . S
C12 C13 1.359 1_655 S
C12 C17 1.348 . S
C13 C12 1.359 1_455 S
C13 C14 1.380 1_455 S
C13 H36 0.929 1_545 S
C14 C13 1.380 1_655 S
C14 C15 1.347 . S
C14 H37 0.931 1_645 S
C15 C14 1.347 . S
C15 C16 1.369 . S
C16 C15 1.369 . S
C16 C17 1.408 . S
C16 H38 0.930 . S
C17 C12 1.348 . S
C17 C16 1.408 . S
C17 H39 0.930 . S
C18 O28 1.281 . S
C18 O29 1.254 . S
C19 O30 1.236 . S
C19 O31 1.266 . S
O20 Tb0 2.484 . S
O20 C2 1.248 1_655 S
O21 Tb0 2.440 1_455 S
O21 C2 1.266 . S
O22 Tb0 2.658 1_455 S
O22 Tb1 2.325 1_565 S
O22 C9 1.281 . S
O23 Tb0 2.409 1_455 S
O23 C9 1.254 . S
O24 Tb0 2.378 1_445 S
O24 C10 1.236 . S
O25 Tb1 2.341 . S
O25 C10 1.266 . S
O26 Tb1 2.484 . S
O26 C11 1.248 1_455 S
O27 Tb1 2.440 1_655 S
O27 C11 1.266 . S
O28 Tb0 2.325 1_545 S
O28 Tb1 2.658 1_655 S
O28 C18 1.281 . S
O29 Tb1 2.409 1_655 S
O29 C18 1.254 . S
O30 Tb1 2.378 1_665 S
O30 C19 1.236 . S
O31 Tb0 2.341 . S
O31 C19 1.266 . S
H32 C4 0.929 1_545 S
H33 C5 0.931 1_645 S
H34 C7 0.930 . S
H35 C8 0.930 . S
H36 C13 0.929 1_565 S
H37 C14 0.931 1_465 S
H38 C16 0.930 . S
H39 C17 0.930 . S
Tb40 C42 2.809 . S
Tb40 O60 2.484 . S
Tb40 O61 2.440 . S
Tb40 O62 2.658 . S
Tb40 O63 2.409 . S
Tb40 O64 2.378 . S
Tb40 O68 2.325 . S
Tb40 O71 2.341 . S
Tb41 C51 2.809 . S
Tb41 O62 2.325 . S
Tb41 O65 2.341 . S
Tb41 O66 2.484 . S
Tb41 O67 2.440 . S
Tb41 O68 2.658 . S
Tb41 O69 2.409 . S
Tb41 O70 2.378 . S
C42 Tb40 2.809 . S
C42 C43 1.514 . S
C42 O60 1.248 . S
C42 O61 1.266 . S
C43 C42 1.514 . S
C43 C44 1.359 . S
C43 C48 1.348 . S
C44 C43 1.359 . S
C44 C45 1.380 . S
C44 H72 0.929 . S
C45 C44 1.380 . S
C45 C46 1.347 . S
C45 H73 0.931 . S
C46 C45 1.347 . S
C46 C47 1.369 . S
C47 C46 1.369 . S
C47 C48 1.408 . S
C47 H74 0.930 . S
C48 C43 1.348 . S
C48 C47 1.408 . S
C48 H75 0.930 . S
C49 O62 1.281 . S
C49 O63 1.254 . S
C50 O64 1.236 . S
C50 O65 1.266 . S
C51 Tb41 2.809 . S
C51 C52 1.514 1_556 S
C51 O66 1.248 . S
C51 O67 1.266 . S
C52 C51 1.514 1_554 S
C52 C53 1.359 . S
C52 C57 1.348 . S
C53 C52 1.359 . S
C53 C54 1.380 . S
C53 H76 0.929 . S
C54 C53 1.380 . S
C54 C55 1.347 . S
C54 H77 0.931 . S
C55 C54 1.347 . S
C55 C56 1.369 . S
C56 C55 1.369 . S
C56 C57 1.408 . S
C56 H78 0.930 . S
C57 C52 1.348 . S
C57 C56 1.408 . S
C57 H79 0.930 1_554 S
C58 O68 1.281 . S
C58 O69 1.254 . S
C59 O70 1.236 . S
C59 O71 1.266 . S
O60 Tb40 2.484 . S
O60 C42 1.248 . S
O61 Tb40 2.440 . S
O61 C42 1.266 . S
O62 Tb40 2.658 . S
O62 Tb41 2.325 . S
O62 C49 1.281 . S
O63 Tb40 2.409 . S
O63 C49 1.254 . S
O64 Tb40 2.378 . S
O64 C50 1.236 . S
O65 Tb41 2.341 . S
O65 C50 1.266 . S
O66 Tb41 2.484 . S
O66 C51 1.248 . S
O67 Tb41 2.440 . S
O67 C51 1.266 . S
O68 Tb40 2.325 . S
O68 Tb41 2.658 . S
O68 C58 1.281 . S
O69 Tb41 2.409 . S
O69 C58 1.254 . S
O70 Tb41 2.378 . S
O70 C59 1.236 . S
O71 Tb40 2.341 . S
O71 C59 1.266 . S
H72 C44 0.929 . S
H73 C45 0.931 . S
H74 C47 0.930 . S
H75 C48 0.930 . S
H76 C53 0.929 . S
H77 C54 0.931 . S
H78 C56 0.930 . S
H79 C57 0.930 1_556 S
Tb80 C82 2.809 . S
Tb80 O100 2.484 1_565 S
Tb80 O101 2.440 . S
Tb80 O102 2.658 1_554 S
Tb80 O103 2.409 . S
Tb80 O104 2.378 1_565 S
Tb80 O108 2.325 1_565 S
Tb80 O111 2.341 1_554 S
Tb81 C91 2.809 . S
Tb81 O102 2.325 1_545 S
Tb81 O105 2.341 1_556 S
Tb81 O106 2.484 1_545 S
Tb81 O107 2.440 . S
Tb81 O108 2.658 1_556 S
Tb81 O109 2.409 . S
Tb81 O110 2.378 1_545 S
C82 Tb80 2.809 . S
C82 C83 1.514 . S
C82 O100 1.248 1_565 S
C82 O101 1.266 . S
C83 C82 1.514 . S
C83 C84 1.359 1_565 S
C83 C88 1.348 . S
C84 C83 1.359 1_545 S
C84 C85 1.380 . S
C84 H112 0.929 . S
C85 C84 1.380 . S
C85 C86 1.347 1_545 S
C85 H113 0.931 . S
C86 C85 1.347 1_565 S
C86 C87 1.369 . S
C87 C86 1.369 . S
C87 C88 1.408 . S
C87 H114 0.930 . S
C88 C83 1.348 . S
C88 C87 1.408 . S
C88 H115 0.930 . S
C89 O102 1.281 . S
C89 O103 1.254 1_556 S
C90 O104 1.236 . S
C90 O105 1.266 . S
C91 Tb81 2.809 . S
C91 C92 1.514 . S
C91 O106 1.248 1_545 S
C91 O107 1.266 . S
C92 C91 1.514 . S
C92 C93 1.359 1_545 S
C92 C97 1.348 . S
C93 C92 1.359 1_565 S
C93 C94 1.380 . S
C93 H116 0.929 . S
C94 C93 1.380 . S
C94 C95 1.347 1_565 S
C94 H117 0.931 . S
C95 C94 1.347 1_545 S
C95 C96 1.369 . S
C96 C95 1.369 . S
C96 C97 1.408 . S
C96 H118 0.930 . S
C97 C92 1.348 . S
C97 C96 1.408 . S
C97 H119 0.930 . S
C98 O108 1.281 . S
C98 O109 1.254 1_554 S
C99 O110 1.236 . S
C99 O111 1.266 . S
O100 Tb80 2.484 1_545 S
O100 C82 1.248 1_545 S
O101 Tb80 2.440 . S
O101 C82 1.266 . S
O102 Tb80 2.658 1_556 S
O102 Tb81 2.325 1_565 S
O102 C89 1.281 . S
O103 Tb80 2.409 . S
O103 C89 1.254 1_554 S
O104 Tb80 2.378 1_545 S
O104 C90 1.236 . S
O105 Tb81 2.341 1_554 S
O105 C90 1.266 . S
O106 Tb81 2.484 1_565 S
O106 C91 1.248 1_565 S
O107 Tb81 2.440 . S
O107 C91 1.266 . S
O108 Tb80 2.325 1_545 S
O108 Tb81 2.658 1_554 S
O108 C98 1.281 . S
O109 Tb81 2.409 . S
O109 C98 1.254 1_556 S
O110 Tb81 2.378 1_565 S
O110 C99 1.236 . S
O111 Tb80 2.341 1_556 S
O111 C99 1.266 . S
H112 C84 0.929 . S
H113 C85 0.931 . S
H114 C87 0.930 . S
H115 C88 0.930 . S
H116 C93 0.929 . S
H117 C94 0.931 . S
H118 C96 0.930 . S
H119 C97 0.930 . S
Tb120 C122 2.809 . S
Tb120 O140 2.484 . S
Tb120 O141 2.440 . S
Tb120 O142 2.658 . S
Tb120 O143 2.409 . S
Tb120 O144 2.378 . S
Tb120 O148 2.325 . S
Tb120 O151 2.341 . S
Tb121 C131 2.809 . S
Tb121 O142 2.325 . S
Tb121 O145 2.341 . S
Tb121 O146 2.484 . S
Tb121 O147 2.440 . S
Tb121 O148 2.658 . S
Tb121 O149 2.409 . S
Tb121 O150 2.378 . S
C122 Tb120 2.809 . S
C122 C123 1.514 . S
C122 O140 1.248 . S
C122 O141 1.266 . S
C123 C122 1.514 . S
C123 C124 1.359 . S
C123 C128 1.348 . S
C124 C123 1.359 . S
C124 C125 1.380 . S
C124 H152 0.929 . S
C125 C124 1.380 . S
C125 C126 1.347 . S
C125 H153 0.931 . S
C126 C125 1.347 . S
C126 C127 1.369 . S
C127 C126 1.369 . S
C127 C128 1.408 . S
C127 H154 0.930 . S
C128 C123 1.348 . S
C128 C127 1.408 . S
C128 H155 0.930 . S
C129 O142 1.281 . S
C129 O143 1.254 . S
C130 O144 1.236 . S
C130 O145 1.266 . S
C131 Tb121 2.809 . S
C131 C132 1.514 1_554 S
C131 O146 1.248 . S
C131 O147 1.266 . S
C132 C131 1.514 1_556 S
C132 C133 1.359 . S
C132 C137 1.348 . S
C133 C132 1.359 . S
C133 C134 1.380 . S
C133 H156 0.929 . S
C134 C133 1.380 . S
C134 C135 1.347 . S
C134 H157 0.931 . S
C135 C134 1.347 . S
C135 C136 1.369 . S
C136 C135 1.369 . S
C136 C137 1.408 . S
C136 H158 0.930 . S
C137 C132 1.348 . S
C137 C136 1.408 . S
C137 H159 0.930 . S
C138 O148 1.281 . S
C138 O149 1.254 . S
C139 O150 1.236 . S
C139 O151 1.266 . S
O140 Tb120 2.484 . S
O140 C122 1.248 . S
O141 Tb120 2.440 . S
O141 C122 1.266 . S
O142 Tb120 2.658 . S
O142 Tb121 2.325 . S
O142 C129 1.281 . S
O143 Tb120 2.409 . S
O143 C129 1.254 . S
O144 Tb120 2.378 . S
O144 C130 1.236 . S
O145 Tb121 2.341 . S
O145 C130 1.266 . S
O146 Tb121 2.484 . S
O146 C131 1.248 . S
O147 Tb121 2.440 . S
O147 C131 1.266 . S
O148 Tb120 2.325 . S
O148 Tb121 2.658 . S
O148 C138 1.281 . S
O149 Tb121 2.409 . S
O149 C138 1.254 . S
O150 Tb121 2.378 . S
O150 C139 1.236 . S
O151 Tb120 2.341 . S
O151 C139 1.266 . S
H152 C124 0.929 . S
H153 C125 0.931 . S
H154 C127 0.930 . S
H155 C128 0.930 . S
H156 C133 0.929 . S
H157 C134 0.931 . S
H158 C136 0.930 . S
H159 C137 0.930 . S
Tb160 C162 2.809 . S
Tb160 O180 2.484 . S
Tb160 O181 2.440 . S
Tb160 O182 2.658 . S
Tb160 O183 2.409 . S
Tb160 O184 2.378 . S
Tb160 O188 2.325 . S
Tb160 O191 2.341 . S
Tb161 C171 2.809 . S
Tb161 O182 2.325 . S
Tb161 O185 2.341 . S
Tb161 O186 2.484 . S
Tb161 O187 2.440 . S
Tb161 O188 2.658 . S
Tb161 O189 2.409 . S
Tb161 O190 2.378 . S
C162 Tb160 2.809 . S
C162 C163 1.514 1_554 S
C162 O180 1.248 . S
C162 O181 1.266 . S
C163 C162 1.514 1_556 S
C163 C164 1.359 . S
C163 C168 1.348 . S
C164 C163 1.359 . S
C164 C165 1.380 . S
C164 H192 0.929 . S
C165 C164 1.380 . S
C165 C166 1.347 . S
C165 H193 0.931 . S
C166 C165 1.347 . S
C166 C167 1.369 . S
C167 C166 1.369 . S
C167 C168 1.408 . S
C167 H194 0.930 . S
C168 C163 1.348 . S
C168 C167 1.408 . S
C168 H195 0.930 1_556 S
C169 O182 1.281 . S
C169 O183 1.254 . S
C170 O184 1.236 . S
C170 O185 1.266 . S
C171 Tb161 2.809 . S
C171 C172 1.514 . S
C171 O186 1.248 . S
C171 O187 1.266 . S
C172 C171 1.514 . S
C172 C173 1.359 . S
C172 C177 1.348 . S
C173 C172 1.359 . S
C173 C174 1.380 . S
C173 H196 0.929 . S
C174 C173 1.380 . S
C174 C175 1.347 . S
C174 H197 0.931 . S
C175 C174 1.347 . S
C175 C176 1.369 . S
C176 C175 1.369 . S
C176 C177 1.408 . S
C176 H198 0.930 . S
C177 C172 1.348 . S
C177 C176 1.408 . S
C177 H199 0.930 . S
C178 O188 1.281 . S
C178 O189 1.254 . S
C179 O190 1.236 . S
C179 O191 1.266 . S
O180 Tb160 2.484 . S
O180 C162 1.248 . S
O181 Tb160 2.440 . S
O181 C162 1.266 . S
O182 Tb160 2.658 . S
O182 Tb161 2.325 . S
O182 C169 1.281 . S
O183 Tb160 2.409 . S
O183 C169 1.254 . S
O184 Tb160 2.378 . S
O184 C170 1.236 . S
O185 Tb161 2.341 . S
O185 C170 1.266 . S
O186 Tb161 2.484 . S
O186 C171 1.248 . S
O187 Tb161 2.440 . S
O187 C171 1.266 . S
O188 Tb160 2.325 . S
O188 Tb161 2.658 . S
O188 C178 1.281 . S
O189 Tb161 2.409 . S
O189 C178 1.254 . S
O190 Tb161 2.378 . S
O190 C179 1.236 . S
O191 Tb160 2.341 . S
O191 C179 1.266 . S
H192 C164 0.929 . S
H193 C165 0.931 . S
H194 C167 0.930 . S
H195 C168 0.930 1_554 S
H196 C173 0.929 . S
H197 C174 0.931 . S
H198 C176 0.930 . S
H199 C177 0.930 . S
Tb200 C202 2.809 . S
Tb200 O220 2.484 . S
Tb200 O221 2.440 . S
Tb200 O222 2.658 . S
Tb200 O223 2.409 . S
Tb200 O224 2.378 . S
Tb200 O228 2.325 . S
Tb200 O231 2.341 . S
Tb201 C211 2.809 . S
Tb201 O222 2.325 . S
Tb201 O225 2.341 . S
Tb201 O226 2.484 . S
Tb201 O227 2.440 . S
Tb201 O228 2.658 . S
Tb201 O229 2.409 . S
Tb201 O230 2.378 . S
C202 Tb200 2.809 . S
C202 C203 1.514 1_556 S
C202 O220 1.248 . S
C202 O221 1.266 . S
C203 C202 1.514 1_554 S
C203 C204 1.359 . S
C203 C208 1.348 . S
C204 C203 1.359 . S
C204 C205 1.380 . S
C204 H232 0.929 . S
C205 C204 1.380 . S
C205 C206 1.347 . S
C205 H233 0.931 . S
C206 C205 1.347 . S
C206 C207 1.369 . S
C207 C206 1.369 . S
C207 C208 1.408 . S
C207 H234 0.930 . S
C208 C203 1.348 . S
C208 C207 1.408 . S
C208 H235 0.930 . S
C209 O222 1.281 . S
C209 O223 1.254 . S
C210 O224 1.236 . S
C210 O225 1.266 . S
C211 Tb201 2.809 . S
C211 C212 1.514 . S
C211 O226 1.248 . S
C211 O227 1.266 . S
C212 C211 1.514 . S
C212 C213 1.359 . S
C212 C217 1.348 . S
C213 C212 1.359 . S
C213 C214 1.380 . S
C213 H236 0.929 . S
C214 C213 1.380 . S
C214 C215 1.347 . S
C214 H237 0.931 . S
C215 C214 1.347 . S
C215 C216 1.369 . S
C216 C215 1.369 . S
C216 C217 1.408 . S
C216 H238 0.930 . S
C217 C212 1.348 . S
C217 C216 1.408 . S
C217 H239 0.930 . S
C218 O228 1.281 . S
C218 O229 1.254 . S
C219 O230 1.236 . S
C219 O231 1.266 . S
O220 Tb200 2.484 . S
O220 C202 1.248 . S
O221 Tb200 2.440 . S
O221 C202 1.266 . S
O222 Tb200 2.658 . S
O222 Tb201 2.325 . S
O222 C209 1.281 . S
O223 Tb200 2.409 . S
O223 C209 1.254 . S
O224 Tb200 2.378 . S
O224 C210 1.236 . S
O225 Tb201 2.341 . S
O225 C210 1.266 . S
O226 Tb201 2.484 . S
O226 C211 1.248 . S
O227 Tb201 2.440 . S
O227 C211 1.266 . S
O228 Tb200 2.325 . S
O228 Tb201 2.658 . S
O228 C218 1.281 . S
O229 Tb201 2.409 . S
O229 C218 1.254 . S
O230 Tb201 2.378 . S
O230 C219 1.236 . S
O231 Tb200 2.341 . S
O231 C219 1.266 . S
H232 C204 0.929 . S
H233 C205 0.931 . S
H234 C207 0.930 . S
H235 C208 0.930 . S
H236 C213 0.929 . S
H237 C214 0.931 . S
H238 C216 0.930 . S
H239 C217 0.930 . S
Tb240 C242 2.809 . S
Tb240 O260 2.484 . S
Tb240 O261 2.440 . S
Tb240 O262 2.658 1_556 S
Tb240 O263 2.409 . S
Tb240 O264 2.378 . S
Tb240 O268 2.325 . S
Tb240 O271 2.341 . S
Tb241 C251 2.809 . S
Tb241 O262 2.325 . S
Tb241 O265 2.341 . S
Tb241 O266 2.484 . S
Tb241 O267 2.440 . S
Tb241 O268 2.658 1_554 S
Tb241 O269 2.409 . S
Tb241 O270 2.378 . S
C242 Tb240 2.809 . S
C242 C243 1.514 . S
C242 O260 1.248 . S
C242 O261 1.266 . S
C243 C242 1.514 . S
C243 C244 1.359 . S
C243 C248 1.348 . S
C244 C243 1.359 . S
C244 C245 1.380 . S
C244 H272 0.929 . S
C245 C244 1.380 . S
C245 C246 1.347 . S
C245 H273 0.931 . S
C246 C245 1.347 . S
C246 C247 1.369 . S
C247 C246 1.369 . S
C247 C248 1.408 . S
C247 H274 0.930 . S
C248 C243 1.348 . S
C248 C247 1.408 . S
C248 H275 0.930 . S
C249 O262 1.281 . S
C249 O263 1.254 1_554 S
C250 O264 1.236 . S
C250 O265 1.266 1_556 S
C251 Tb241 2.809 . S
C251 C252 1.514 . S
C251 O266 1.248 . S
C251 O267 1.266 . S
C252 C251 1.514 . S
C252 C253 1.359 . S
C252 C257 1.348 . S
C253 C252 1.359 . S
C253 C254 1.380 . S
C253 H276 0.929 . S
C254 C253 1.380 . S
C254 C255 1.347 . S
C254 H277 0.931 . S
C255 C254 1.347 . S
C255 C256 1.369 . S
C256 C255 1.369 . S
C256 C257 1.408 . S
C256 H278 0.930 . S
C257 C252 1.348 . S
C257 C256 1.408 . S
C257 H279 0.930 . S
C258 O268 1.281 . S
C258 O269 1.254 1_556 S
C259 O270 1.236 . S
C259 O271 1.266 1_554 S
O260 Tb240 2.484 . S
O260 C242 1.248 . S
O261 Tb240 2.440 . S
O261 C242 1.266 . S
O262 Tb240 2.658 1_554 S
O262 Tb241 2.325 . S
O262 C249 1.281 . S
O263 Tb240 2.409 . S
O263 C249 1.254 1_556 S
O264 Tb240 2.378 . S
O264 C250 1.236 . S
O265 Tb241 2.341 . S
O265 C250 1.266 1_554 S
O266 Tb241 2.484 . S
O266 C251 1.248 . S
O267 Tb241 2.440 . S
O267 C251 1.266 . S
O268 Tb240 2.325 . S
O268 Tb241 2.658 1_556 S
O268 C258 1.281 . S
O269 Tb241 2.409 . S
O269 C258 1.254 1_554 S
O270 Tb241 2.378 . S
O270 C259 1.236 . S
O271 Tb240 2.341 . S
O271 C259 1.266 1_556 S
H272 C244 0.929 . S
H273 C245 0.931 . S
H274 C247 0.930 . S
H275 C248 0.930 . S
H276 C253 0.929 . S
H277 C254 0.931 . S
H278 C256 0.930 . S
H279 C257 0.930 . S
Tb280 C282 2.809 1_455 S
Tb280 O300 2.484 . S
Tb280 O301 2.440 1_455 S
Tb280 O302 2.658 1_455 S
Tb280 O303 2.409 1_455 S
Tb280 O304 2.378 1_455 S
Tb280 O308 2.325 . S
Tb280 O311 2.341 . S
Tb281 C291 2.809 1_655 S
Tb281 O302 2.325 . S
Tb281 O305 2.341 . S
Tb281 O306 2.484 . S
Tb281 O307 2.440 1_655 S
Tb281 O308 2.658 1_655 S
Tb281 O309 2.409 1_655 S
Tb281 O310 2.378 1_655 S
C282 Tb280 2.809 1_655 S
C282 C283 1.514 . S
C282 O300 1.248 1_655 S
C282 O301 1.266 . S
C283 C282 1.514 . S
C283 C284 1.359 1_655 S
C283 C288 1.348 . S
C284 C283 1.359 1_455 S
C284 C285 1.380 1_455 S
C284 H312 0.929 . S
C285 C284 1.380 1_655 S
C285 C286 1.347 . S
C285 H313 0.931 1_655 S
C286 C285 1.347 . S
C286 C287 1.369 . S
C287 C286 1.369 . S
C287 C288 1.408 . S
C287 H314 0.930 . S
C288 C283 1.348 . S
C288 C287 1.408 . S
C288 H315 0.930 . S
C289 O302 1.281 . S
C289 O303 1.254 . S
C290 O304 1.236 . S
C290 O305 1.266 . S
C291 Tb281 2.809 1_455 S
C291 C292 1.514 . S
C291 O306 1.248 1_455 S
C291 O307 1.266 . S
C292 C291 1.514 . S
C292 C293 1.359 1_455 S
C292 C297 1.348 . S
C293 C292 1.359 1_655 S
C293 C294 1.380 1_655 S
C293 H316 0.929 . S
C294 C293 1.380 1_455 S
C294 C295 1.347 . S
C294 H317 0.931 1_455 S
C295 C294 1.347 . S
C295 C296 1.369 . S
C296 C295 1.369 . S
C296 C297 1.408 . S
C296 H318 0.930 . S
C297 C292 1.348 . S
C297 C296 1.408 . S
C297 H319 0.930 . S
C298 O308 1.281 . S
C298 O309 1.254 . S
C299 O310 1.236 . S
C299 O311 1.266 . S
O300 Tb280 2.484 . S
O300 C282 1.248 1_455 S
O301 Tb280 2.440 1_655 S
O301 C282 1.266 . S
O302 Tb280 2.658 1_655 S
O302 Tb281 2.325 . S
O302 C289 1.281 . S
O303 Tb280 2.409 1_655 S
O303 C289 1.254 . S
O304 Tb280 2.378 1_655 S
O304 C290 1.236 . S
O305 Tb281 2.341 . S
O305 C290 1.266 . S
O306 Tb281 2.484 . S
O306 C291 1.248 1_655 S
O307 Tb281 2.440 1_455 S
O307 C291 1.266 . S
O308 Tb280 2.325 . S
O308 Tb281 2.658 1_455 S
O308 C298 1.281 . S
O309 Tb281 2.409 1_455 S
O309 C298 1.254 . S
O310 Tb281 2.378 1_455 S
O310 C299 1.236 . S
O311 Tb280 2.341 . S
O311 C299 1.266 . S
H312 C284 0.929 . S
H313 C285 0.931 1_455 S
H314 C287 0.930 . S
H315 C288 0.930 . S
H316 C293 0.929 . S
H317 C294 0.931 1_655 S
H318 C296 0.930 . S
H319 C297 0.930 . S
C320 C321 1.363 . S
C320 C326 1.379 . S
C320 N328 1.356 . S
C321 C320 1.363 . S
C321 C327 1.363 . S
C322 C323 1.363 . S
C322 C327 1.379 . S
C322 N329 1.356 . S
C323 C322 1.363 . S
C323 C326 1.363 . S
N324 C326 1.356 . S
N324 H336 0.984 . S
N324 H337 0.985 . S
N325 C327 1.356 . S
N325 H330 0.984 . S
N325 H331 0.985 . S
C326 C320 1.379 . S
C326 C323 1.363 . S
C326 N324 1.356 . S
C327 C321 1.363 . S
C327 C322 1.379 . S
C327 N325 1.356 . S
N328 C320 1.356 . S
N328 H334 0.984 . S
N328 H335 0.984 . S
N329 C322 1.356 . S
N329 H332 0.984 . S
N329 H333 0.985 . S
H330 N325 0.984 . S
H331 N325 0.985 . S
H332 N329 0.984 . S
H333 N329 0.985 . S
H334 N328 0.984 . S
H335 N328 0.984 . S
H336 N324 0.984 . S
H337 N324 0.985 . S
C338 C339 1.363 . S
C338 C344 1.379 . S
C338 N346 1.356 . S
C339 C338 1.363 . S
C339 C345 1.363 . S
C340 C341 1.363 . S
C340 C345 1.379 . S
C340 N347 1.356 . S
C341 C340 1.363 . S
C341 C344 1.363 . S
N342 C344 1.356 . S
N342 H354 0.984 . S
N342 H355 0.985 . S
N343 C345 1.356 . S
N343 H348 0.984 . S
N343 H349 0.985 . S
C344 C338 1.379 . S
C344 C341 1.363 . S
C344 N342 1.356 . S
C345 C339 1.363 . S
C345 C340 1.379 . S
C345 N343 1.356 . S
N346 C338 1.356 . S
N346 H352 0.984 . S
N346 H353 0.984 . S
N347 C340 1.356 . S
N347 H350 0.984 . S
N347 H351 0.985 . S
H348 N343 0.984 . S
H349 N343 0.985 . S
H350 N347 0.984 . S
H351 N347 0.985 . S
H352 N346 0.984 . S
H353 N346 0.984 . S
H354 N342 0.984 . S
H355 N342 0.985 . S
C356 C357 1.363 . S
C356 C362 1.379 . S
C356 N364 1.356 . S
C357 C356 1.363 . S
C357 C363 1.363 . S
C358 C359 1.363 . S
C358 C363 1.379 . S
C358 N365 1.356 . S
C359 C358 1.363 . S
C359 C362 1.363 . S
N360 C362 1.356 . S
N360 H372 0.984 . S
N360 H373 0.985 . S
N361 C363 1.356 . S
N361 H366 0.984 . S
N361 H367 0.985 . S
C362 C356 1.379 . S
C362 C359 1.363 . S
C362 N360 1.356 . S
C363 C357 1.363 . S
C363 C358 1.379 . S
C363 N361 1.356 . S
N364 C356 1.356 . S
N364 H370 0.984 . S
N364 H371 0.984 . S
N365 C358 1.356 . S
N365 H368 0.984 1_556 S
N365 H369 0.985 1_556 S
H366 N361 0.984 . S
H367 N361 0.985 . S
H368 N365 0.984 1_554 S
H369 N365 0.985 1_554 S
H370 N364 0.984 . S
H371 N364 0.984 . S
H372 N360 0.984 . S
H373 N360 0.985 . S
C374 C375 1.363 . S
C374 C380 1.379 . S
C374 N382 1.356 . S
C375 C374 1.363 . S
C375 C381 1.363 . S
C376 C377 1.363 . S
C376 C381 1.379 . S
C376 N383 1.356 . S
C377 C376 1.363 . S
C377 C380 1.363 . S
N378 C380 1.356 . S
N378 H390 0.984 . S
N378 H391 0.985 . S
N379 C381 1.356 . S
N379 H384 0.984 . S
N379 H385 0.985 1_545 S
C380 C374 1.379 . S
C380 C377 1.363 . S
C380 N378 1.356 . S
C381 C375 1.363 . S
C381 C376 1.379 . S
C381 N379 1.356 . S
N382 C374 1.356 . S
N382 H388 0.984 . S
N382 H389 0.984 . S
N383 C376 1.356 . S
N383 H386 0.984 . S
N383 H387 0.985 . S
H384 N379 0.984 . S
H385 N379 0.985 1_565 S
H386 N383 0.984 . S
H387 N383 0.985 . S
H388 N382 0.984 . S
H389 N382 0.984 . S
H390 N378 0.984 . S
H391 N378 0.985 . S
C392 C393 1.363 . S
C392 C398 1.379 . S
C392 N400 1.356 . S
C393 C392 1.363 . S
C393 C399 1.363 . S
C394 C395 1.363 . S
C394 C399 1.379 . S
C394 N401 1.356 . S
C395 C394 1.363 . S
C395 C398 1.363 . S
N396 C398 1.356 . S
N396 H408 0.984 . S
N396 H409 0.985 . S
N397 C399 1.356 . S
N397 H402 0.984 . S
N397 H403 0.985 . S
C398 C392 1.379 . S
C398 C395 1.363 . S
C398 N396 1.356 . S
C399 C393 1.363 . S
C399 C394 1.379 . S
C399 N397 1.356 . S
N400 C392 1.356 . S
N400 H406 0.984 . S
N400 H407 0.984 . S
N401 C394 1.356 . S
N401 H404 0.984 . S
N401 H405 0.985 . S
H402 N397 0.984 . S
H403 N397 0.985 . S
H404 N401 0.984 . S
H405 N401 0.985 . S
H406 N400 0.984 . S
H407 N400 0.984 . S
H408 N396 0.984 . S
H409 N396 0.985 . S
C410 C411 1.363 . S
C410 C416 1.379 . S
C410 N418 1.356 . S
C411 C410 1.363 . S
C411 C417 1.363 . S
C412 C413 1.363 . S
C412 C417 1.379 . S
C412 N419 1.356 . S
C413 C412 1.363 . S
C413 C416 1.363 . S
N414 C416 1.356 . S
N414 H426 0.984 . S
N414 H427 0.985 . S
N415 C417 1.356 . S
N415 H420 0.984 . S
N415 H421 0.985 1_545 S
C416 C410 1.379 . S
C416 C413 1.363 . S
C416 N414 1.356 . S
C417 C411 1.363 . S
C417 C412 1.379 . S
C417 N415 1.356 . S
N418 C410 1.356 . S
N418 H424 0.984 . S
N418 H425 0.984 . S
N419 C412 1.356 . S
N419 H422 0.984 . S
N419 H423 0.985 . S
H420 N415 0.984 . S
H421 N415 0.985 1_565 S
H422 N419 0.984 . S
H423 N419 0.985 . S
H424 N418 0.984 . S
H425 N418 0.984 . S
H426 N414 0.984 . S
H427 N414 0.985 . S
C428 C429 1.363 . S
C428 C434 1.379 . S
C428 N436 1.356 . S
C429 C428 1.363 . S
C429 C435 1.363 . S
C430 C431 1.363 . S
C430 C435 1.379 . S
C430 N437 1.356 . S
C431 C430 1.363 . S
C431 C434 1.363 . S
N432 C434 1.356 . S
N432 H444 0.996 . S
N432 H445 0.985 . S
N433 C435 1.356 . S
N433 H438 0.984 . S
N433 H439 0.985 . S
C434 C428 1.379 . S
C434 C431 1.363 . S
C434 N432 1.356 . S
C435 C429 1.363 . S
C435 C430 1.379 . S
C435 N433 1.356 . S
N436 C428 1.356 . S
N436 H442 0.984 . S
N436 H443 0.984 . S
N437 C430 1.356 . S
N437 H440 0.984 1_554 S
N437 H441 0.976 1_554 S
H438 N433 0.984 . S
H439 N433 0.985 . S
H440 N437 0.984 1_556 S
H441 N437 0.976 1_556 S
H442 N436 0.984 . S
H443 N436 0.984 . S
H444 N432 0.996 . S
H445 N432 0.985 . S
C446 C447 1.363 . S
C446 C452 1.379 . S
C446 N454 1.356 . S
C447 C446 1.363 . S
C447 C453 1.363 . S
C448 C449 1.363 . S
C448 C453 1.379 . S
C448 N455 1.356 . S
C449 C448 1.363 . S
C449 C452 1.363 . S
N450 C452 1.356 . S
N450 H462 0.984 1_556 S
N450 H463 0.985 . S
N451 C453 1.356 . S
N451 H456 0.984 . S
N451 H457 0.985 . S
C452 C446 1.379 . S
C452 C449 1.363 . S
C452 N450 1.356 . S
C453 C447 1.363 . S
C453 C448 1.379 . S
C453 N451 1.356 . S
N454 C446 1.356 . S
N454 H460 0.984 . S
N454 H461 0.984 . S
N455 C448 1.356 . S
N455 H458 0.984 . S
N455 H459 0.985 . S
H456 N451 0.984 . S
H457 N451 0.985 . S
H458 N455 0.984 . S
H459 N455 0.985 . S
H460 N454 0.984 . S
H461 N454 0.984 . S
H462 N450 0.984 1_554 S
H463 N450 0.985 . S
C464 C465 1.363 . S
C464 C470 1.379 . S
C464 N472 1.356 . S
C465 C464 1.363 . S
C465 C471 1.363 . S
C466 C467 1.363 . S
C466 C471 1.379 . S
C466 N473 1.356 . S
C467 C466 1.363 . S
C467 C470 1.363 . S
N468 C470 1.356 . S
N468 H480 0.984 . S
N468 H481 0.985 . S
N469 C471 1.356 . S
N469 H474 0.984 . S
N469 H475 0.985 . S
C470 C464 1.379 . S
C470 C467 1.363 . S
C470 N468 1.356 . S
C471 C465 1.363 . S
C471 C466 1.379 . S
C471 N469 1.356 . S
N472 C464 1.356 . S
N472 H478 0.984 . S
N472 H479 0.984 . S
N473 C466 1.356 . S
N473 H476 0.984 . S
N473 H477 0.985 . S
H474 N469 0.984 . S
H475 N469 0.985 . S
H476 N473 0.984 . S
H477 N473 0.985 . S
H478 N472 0.984 . S
H479 N472 0.984 . S
H480 N468 0.984 . S
H481 N468 0.985 . S
C482 C483 1.363 . S
C482 C488 1.379 . S
C482 N490 1.356 . S
C483 C482 1.363 . S
C483 C489 1.363 . S
C484 C485 1.363 . S
C484 C489 1.379 . S
C484 N491 1.356 . S
C485 C484 1.363 . S
C485 C488 1.363 . S
N486 C488 1.356 1_556 S
N486 H498 0.984 . S
N486 H499 0.985 . S
N487 C489 1.356 . S
N487 H492 0.984 . S
N487 H493 0.985 . S
C488 C482 1.379 . S
C488 C485 1.363 . S
C488 N486 1.356 1_554 S
C489 C483 1.363 . S
C489 C484 1.379 . S
C489 N487 1.356 . S
N490 C482 1.356 . S
N490 H496 0.984 . S
N490 H497 0.984 . S
N491 C484 1.356 . S
N491 H494 0.984 . S
N491 H495 0.985 . S
H492 N487 0.984 . S
H493 N487 0.985 . S
H494 N491 0.984 . S
H495 N491 0.985 . S
H496 N490 0.984 . S
H497 N490 0.984 . S
H498 N486 0.984 . S
H499 N486 0.985 . S
C500 C501 1.363 . S
C500 C506 1.379 . S
C500 N508 1.356 . S
C501 C500 1.363 . S
C501 C507 1.363 . S
C502 C503 1.363 . S
C502 C507 1.379 . S
C502 N509 1.356 . S
C503 C502 1.363 . S
C503 C506 1.363 . S
N504 C506 1.356 . S
N504 H516 0.984 . S
N504 H517 0.985 . S
N505 C507 1.356 . S
N505 H510 0.984 . S
N505 H511 0.985 . S
C506 C500 1.379 . S
C506 C503 1.363 . S
C506 N504 1.356 . S
C507 C501 1.363 . S
C507 C502 1.379 . S
C507 N505 1.356 . S
N508 C500 1.356 . S
N508 H514 0.984 . S
N508 H515 0.984 . S
N509 C502 1.356 . S
N509 H512 0.984 . S
N509 H513 0.985 . S
H510 N505 0.984 . S
H511 N505 0.985 . S
H512 N509 0.984 . S
H513 N509 0.985 . S
H514 N508 0.984 . S
H515 N508 0.984 . S
H516 N504 0.984 . S
H517 N504 0.985 . S
C518 C519 1.363 . S
C518 C524 1.379 . S
C518 N526 1.356 . S
C519 C518 1.363 . S
C519 C525 1.363 . S
C520 C521 1.363 . S
C520 C525 1.379 . S
C520 N527 1.356 . S
C521 C520 1.363 . S
C521 C524 1.363 . S
N522 C524 1.356 . S
N522 H534 0.984 . S
N522 H535 0.985 . S
N523 C525 1.356 . S
N523 H528 0.984 . S
N523 H529 0.985 . S
C524 C518 1.379 . S
C524 C521 1.363 . S
C524 N522 1.356 . S
C525 C519 1.363 . S
C525 C520 1.379 . S
C525 N523 1.356 . S
N526 C518 1.356 . S
N526 H532 0.984 . S
N526 H533 0.984 . S
N527 C520 1.356 . S
N527 H530 0.984 . S
N527 H531 0.985 . S
H528 N523 0.984 . S
H529 N523 0.985 . S
H530 N527 0.984 . S
H531 N527 0.985 . S
H532 N526 0.984 . S
H533 N526 0.984 . S
H534 N522 0.984 . S
H535 N522 0.985 . S
C536 C537 1.363 . S
C536 C542 1.379 . S
C536 N544 1.356 . S
C537 C536 1.363 . S
C537 C543 1.363 . S
C538 C539 1.363 . S
C538 C543 1.379 . S
C538 N545 1.356 . S
C539 C538 1.363 . S
C539 C542 1.363 . S
N540 C542 1.356 . S
N540 H552 0.984 . S
N540 H553 0.985 . S
N541 C543 1.356 . S
N541 H546 0.984 . S
N541 H547 0.985 . S
C542 C536 1.379 . S
C542 C539 1.363 . S
C542 N540 1.356 . S
C543 C537 1.363 . S
C543 C538 1.379 . S
C543 N541 1.356 . S
N544 C536 1.356 . S
N544 H550 0.984 . S
N544 H551 0.984 . S
N545 C538 1.356 . S
N545 H548 0.984 . S
N545 H549 0.985 . S
H546 N541 0.984 . S
H547 N541 0.985 . S
H548 N545 0.984 . S
H549 N545 0.985 . S
H550 N544 0.984 . S
H551 N544 0.984 . S
H552 N540 0.984 . S
H553 N540 0.985 . S
C554 C555 1.363 . S
C554 C560 1.379 . S
C554 N562 1.356 1_556 S
C555 C554 1.363 . S
C555 C561 1.363 . S
C556 C557 1.363 . S
C556 C561 1.379 . S
C556 N563 1.356 . S
C557 C556 1.363 . S
C557 C560 1.363 . S
N558 C560 1.356 . S
N558 H570 0.984 . S
N558 H571 0.985 . S
N559 C561 1.356 . S
N559 H564 0.984 . S
N559 H565 0.985 . S
C560 C554 1.379 . S
C560 C557 1.363 . S
C560 N558 1.356 . S
C561 C555 1.363 . S
C561 C556 1.379 . S
C561 N559 1.356 . S
N562 C554 1.356 1_554 S
N562 H568 0.984 . S
N562 H569 0.984 . S
N563 C556 1.356 . S
N563 H566 0.984 . S
N563 H567 0.985 . S
H564 N559 0.984 . S
H565 N559 0.985 . S
H566 N563 0.984 . S
H567 N563 0.985 . S
H568 N562 0.984 . S
H569 N562 0.984 . S
H570 N558 0.984 . S
H571 N558 0.985 . S
C572 C573 1.363 . S
C572 C578 1.379 . S
C572 N580 1.356 . S
C573 C572 1.363 . S
C573 C579 1.363 . S
C574 C575 1.363 . S
C574 C579 1.379 . S
C574 N581 1.356 . S
C575 C574 1.363 . S
C575 C578 1.363 . S
N576 C578 1.356 . S
N576 H588 0.984 . S
N576 H589 0.985 . S
N577 C579 1.356 . S
N577 H582 0.984 . S
N577 H583 0.985 . S
C578 C572 1.379 . S
C578 C575 1.363 . S
C578 N576 1.356 . S
C579 C573 1.363 . S
C579 C574 1.379 . S
C579 N577 1.356 . S
N580 C572 1.356 . S
N580 H586 0.984 . S
N580 H587 0.984 . S
N581 C574 1.356 . S
N581 H584 0.984 . S
N581 H585 0.985 . S
H582 N577 0.984 . S
H583 N577 0.985 . S
H584 N581 0.984 . S
H585 N581 0.985 . S
H586 N580 0.984 . S
H587 N580 0.984 . S
H588 N576 0.984 . S
H589 N576 0.985 . S
C590 C591 1.363 . S
C590 C596 1.379 . S
C590 N598 1.356 . S
C591 C590 1.363 . S
C591 C597 1.363 . S
C592 C593 1.363 . S
C592 C597 1.379 . S
C592 N599 1.356 . S
C593 C592 1.363 . S
C593 C596 1.363 . S
N594 C596 1.356 . S
N594 H606 0.984 . S
N594 H607 0.985 . S
N595 C597 1.356 . S
N595 H600 0.984 . S
N595 H601 0.985 . S
C596 C590 1.379 . S
C596 C593 1.363 . S
C596 N594 1.356 . S
C597 C591 1.363 . S
C597 C592 1.379 . S
C597 N595 1.356 . S
N598 C590 1.356 . S
N598 H604 0.984 . S
N598 H605 0.984 . S
N599 C592 1.356 . S
N599 H602 0.984 . S
N599 H603 0.985 . S
H600 N595 0.984 . S
H601 N595 0.985 . S
H602 N599 0.984 . S
H603 N599 0.985 . S
H604 N598 0.984 . S
H605 N598 0.984 . S
H606 N594 0.984 . S
H607 N594 0.985 . S
C608 C609 1.363 1_455 S
C608 C614 1.379 1_556 S
C608 N616 1.356 . S
C609 C608 1.363 1_655 S
C609 C615 1.363 1_545 S
C610 C611 1.363 1_655 S
C610 C615 1.379 1_554 S
C610 N617 1.356 . S
C611 C610 1.363 1_455 S
C611 C614 1.363 1_565 S
N612 C614 1.356 . S
N612 H624 0.984 . S
N612 H625 0.985 1_545 S
N613 C615 1.356 . S
N613 H618 0.984 1_565 S
N613 H619 0.985 . S
C614 C608 1.379 1_554 S
C614 C611 1.363 1_545 S
C614 N612 1.356 . S
C615 C609 1.363 1_565 S
C615 C610 1.379 1_556 S
C615 N613 1.356 . S
N616 C608 1.356 . S
N616 H622 0.984 . S
N616 H623 0.984 . S
N617 C610 1.356 . S
N617 H620 0.984 . S
N617 H621 0.985 . S
H618 N613 0.984 1_545 S
H619 N613 0.985 . S
H620 N617 0.984 . S
H621 N617 0.985 . S
H622 N616 0.984 . S
H623 N616 0.984 . S
H624 N612 0.984 . S
H625 N612 0.985 1_565 S
C626 C627 1.363 . S
C626 C632 1.379 . S
C626 N634 1.356 . S
C627 C626 1.363 . S
C627 C633 1.363 . S
C628 C629 1.363 . S
C628 C633 1.379 . S
C628 N635 1.356 . S
C629 C628 1.363 . S
C629 C632 1.363 . S
N630 C632 1.356 . S
N630 H642 0.984 . S
N630 H643 0.985 . S
N631 C633 1.356 . S
N631 H636 0.984 . S
N631 H637 0.985 . S
C632 C626 1.379 . S
C632 C629 1.363 . S
C632 N630 1.356 . S
C633 C627 1.363 . S
C633 C628 1.379 . S
C633 N631 1.356 . S
N634 C626 1.356 . S
N634 H640 0.984 . S
N634 H641 0.984 . S
N635 C628 1.356 . S
N635 H638 0.984 . S
N635 H639 0.985 . S
H636 N631 0.984 . S
H637 N631 0.985 . S
H638 N635 0.984 . S
H639 N635 0.985 . S
H640 N634 0.984 . S
H641 N634 0.984 . S
H642 N630 0.984 . S
H643 N630 0.985 . S
C644 C645 1.363 1_565 S
C644 C650 1.379 . S
C644 N652 1.356 . S
C645 C644 1.363 1_545 S
C645 C651 1.363 . S
C646 C647 1.363 1_545 S
C646 C651 1.379 . S
C646 N653 1.356 . S
C647 C646 1.363 1_565 S
C647 C650 1.363 . S
N648 C650 1.356 . S
N648 H660 0.984 . S
N648 H661 0.985 . S
N649 C651 1.356 . S
N649 H654 0.984 . S
N649 H655 0.985 . S
C650 C644 1.379 . S
C650 C647 1.363 . S
C650 N648 1.356 . S
C651 C645 1.363 . S
C651 C646 1.379 . S
C651 N649 1.356 . S
N652 C644 1.356 . S
N652 H658 0.984 . S
N652 H659 0.984 . S
N653 C646 1.356 . S
N653 H656 0.984 . S
N653 H657 0.985 . S
H654 N649 0.984 . S
H655 N649 0.985 . S
H656 N653 0.984 . S
H657 N653 0.985 . S
H658 N652 0.984 . S
H659 N652 0.984 . S
H660 N648 0.984 . S
H661 N648 0.985 . S
C662 C663 1.363 . S
C662 C668 1.379 . S
C662 N670 1.356 . S
C663 C662 1.363 . S
C663 C669 1.363 . S
C664 C665 1.363 . S
C664 C669 1.379 . S
C664 N671 1.356 . S
C665 C664 1.363 . S
C665 C668 1.363 . S
N666 C668 1.356 . S
N666 H678 0.984 . S
N666 H679 0.985 . S
N667 C669 1.356 . S
N667 H672 0.984 . S
N667 H673 0.985 . S
C668 C662 1.379 . S
C668 C665 1.363 . S
C668 N666 1.356 . S
C669 C663 1.363 . S
C669 C664 1.379 . S
C669 N667 1.356 . S
N670 C662 1.356 . S
N670 H676 0.984 . S
N670 H677 0.984 . S
N671 C664 1.356 . S
N671 H674 0.984 . S
N671 H675 0.985 . S
H672 N667 0.984 . S
H673 N667 0.985 . S
H674 N671 0.984 . S
H675 N671 0.985 . S
H676 N670 0.984 . S
H677 N670 0.984 . S
H678 N666 0.984 . S
H679 N666 0.985 . S
C680 C681 1.363 . S
C680 C686 1.379 . S
C680 N688 1.356 . S
C681 C680 1.363 . S
C681 C687 1.363 . S
C682 C683 1.363 . S
C682 C687 1.379 . S
C682 N689 1.356 . S
C683 C682 1.363 . S
C683 C686 1.363 . S
N684 C686 1.356 . S
N684 H696 0.984 . S
N684 H697 0.985 . S
N685 C687 1.356 . S
N685 H690 0.984 . S
N685 H691 0.985 . S
C686 C680 1.379 . S
C686 C683 1.363 . S
C686 N684 1.356 . S
C687 C681 1.363 . S
C687 C682 1.379 . S
C687 N685 1.356 . S
N688 C680 1.356 . S
N688 H694 0.984 . S
N688 H695 0.984 . S
N689 C682 1.356 . S
N689 H692 0.984 . S
N689 H693 0.985 . S
H690 N685 0.984 . S
H691 N685 0.985 . S
H692 N689 0.984 . S
H693 N689 0.985 . S
H694 N688 0.984 . S
H695 N688 0.984 . S
H696 N684 0.984 . S
H697 N684 0.985 . S
C698 C699 1.363 . S
C698 C704 1.379 . S
C698 N706 1.356 . S
C699 C698 1.363 . S
C699 C705 1.363 . S
C700 C701 1.363 . S
C700 C705 1.379 . S
C700 N707 1.356 . S
C701 C700 1.363 . S
C701 C704 1.363 . S
N702 C704 1.356 . S
N702 H714 0.984 . S
N702 H715 0.985 . S
N703 C705 1.356 . S
N703 H708 0.984 . S
N703 H709 0.985 . S
C704 C698 1.379 . S
C704 C701 1.363 . S
C704 N702 1.356 . S
C705 C699 1.363 . S
C705 C700 1.379 . S
C705 N703 1.356 . S
N706 C698 1.356 . S
N706 H712 0.984 . S
N706 H713 0.984 . S
N707 C700 1.356 . S
N707 H710 0.984 . S
N707 H711 0.985 . S
H708 N703 0.984 . S
H709 N703 0.985 . S
H710 N707 0.984 . S
H711 N707 0.985 . S
H712 N706 0.984 . S
H713 N706 0.984 . S
H714 N702 0.984 . S
H715 N702 0.985 . S
C716 C717 1.363 . S
C716 C722 1.379 . S
C716 N724 1.356 . S
C717 C716 1.363 . S
C717 C723 1.363 . S
C718 C719 1.363 . S
C718 C723 1.379 . S
C718 N725 1.356 . S
C719 C718 1.363 . S
C719 C722 1.363 . S
N720 C722 1.356 . S
N720 H732 0.984 . S
N720 H733 0.985 . S
N721 C723 1.356 . S
N721 H726 0.984 . S
N721 H727 0.985 . S
C722 C716 1.379 . S
C722 C719 1.363 . S
C722 N720 1.356 . S
C723 C717 1.363 . S
C723 C718 1.379 . S
C723 N721 1.356 . S
N724 C716 1.356 . S
N724 H730 0.984 . S
N724 H731 0.984 . S
N725 C718 1.356 . S
N725 H728 0.984 . S
N725 H729 0.985 . S
H726 N721 0.984 . S
H727 N721 0.985 . S
H728 N725 0.984 . S
H729 N725 0.985 . S
H730 N724 0.984 . S
H731 N724 0.984 . S
H732 N720 0.984 . S
H733 N720 0.985 . S
C734 C735 1.363 . S
C734 C740 1.379 1_556 S
C734 N742 1.356 . S
C735 C734 1.363 . S
C735 C741 1.363 1_655 S
C736 C737 1.363 . S
C736 C741 1.379 1_554 S
C736 N743 1.356 . S
C737 C736 1.363 . S
C737 C740 1.363 1_455 S
N738 C740 1.356 . S
N738 H750 0.984 . S
N738 H751 0.985 1_655 S
N739 C741 1.356 . S
N739 H744 0.984 1_455 S
N739 H745 0.985 . S
C740 C734 1.379 1_554 S
C740 C737 1.363 1_655 S
C740 N738 1.356 . S
C741 C735 1.363 1_455 S
C741 C736 1.379 1_556 S
C741 N739 1.356 . S
N742 C734 1.356 . S
N742 H748 0.984 . S
N742 H749 0.984 . S
N743 C736 1.356 . S
N743 H746 0.984 . S
N743 H747 0.985 . S
H744 N739 0.984 1_655 S
H745 N739 0.985 . S
H746 N743 0.984 . S
H747 N743 0.985 . S
H748 N742 0.984 . S
H749 N742 0.984 . S
H750 N738 0.984 . S
H751 N738 0.985 1_455 S
C321 C10 1.975 . S
C323 C130 1.973 . S
C339 C9 1.548 . S
C341 C50 1.581 . S
C357 C49 1.064 . S
C359 C89 1.065 . S
C375 C90 1.581 . S
C377 C129 1.546 . S
C393 C19 1.975 . S
C395 C219 1.978 . S
C411 C18 1.548 . S
C413 C179 1.580 . S
C429 C178 1.064 . S
C431 C98 1.062 . S
C447 C218 1.548 . S
C449 C99 1.583 . S
C465 C250 1.975 . S
C467 C210 1.976 . S
C483 C170 1.581 . S
C485 C249 1.547 . S
C501 C289 1.064 . S
C503 C169 1.064 . S
C519 C209 1.548 . S
C521 C290 1.582 . S
C537 C139 1.975 . S
C539 C259 1.974 . S
C555 C258 1.548 . S
C557 C59 1.582 . S
C573 C58 1.064 . S
C575 C298 1.062 . S
C591 C138 1.548 . S
C593 C299 1.579 . S
C609 C15 1.798 . S
C611 C6 1.798 . S
C627 C46 1.465 . S
C629 C55 1.465 . S
C645 C95 1.465 . S
C647 C86 1.465 . S
C663 C135 1.798 . S
C665 C126 1.798 . S
C681 C166 1.465 . S
C683 C175 1.465 . S
C699 C215 1.798 . S
C701 C206 1.798 . S
C717 C246 1.798 . S
C719 C255 1.798 . S
C735 C286 1.465 . S
C737 C295 1.465 . S
