# Generated by pormake.
# Topology smu, (6)-cn, num edge types: 1
# Building blocks:
#     Node 0, Type 0, BuildingBlock: BETGAK_clean_sbu_0, # of connection points: 6
#     Node 1, Type 0, BuildingBlock: BETGAK_clean_sbu_0, # of connection points: 6
#     Node 2, Type 0, BuildingBlock: BETGAK_clean_sbu_0, # of connection points: 6
#     Node 3, Type 0, BuildingBlock: BETGAK_clean_sbu_0, # of connection points: 6
#     Node 4, Type 0, BuildingBlock: BETGAK_clean_sbu_0, # of connection points: 6
#     Node 5, Type 0, BuildingBlock: BETGAK_clean_sbu_0, # of connection points: 6
#     Edge 6, Type (0, 0), BuildingBlock: XUDNAN_clean_linker_2, # of connection points: 2
#     Edge 7, Type (0, 0), BuildingBlock: XUDNAN_clean_linker_2, # of connection points: 2
#     Edge 8, Type (0, 0), BuildingBlock: XUDNAN_clean_linker_2, # of connection points: 2
#     Edge 9, Type (0, 0), BuildingBlock: XUDNAN_clean_linker_2, # of connection points: 2
#     Edge 10, Type (0, 0), BuildingBlock: XUDNAN_clean_linker_2, # of connection points: 2
#     Edge 11, Type (0, 0), BuildingBlock: XUDNAN_clean_linker_2, # of connection points: 2
#     Edge 12, Type (0, 0), BuildingBlock: XUDNAN_clean_linker_2, # of connection points: 2
#     Edge 13, Type (0, 0), BuildingBlock: XUDNAN_clean_linker_2, # of connection points: 2
#     Edge 14, Type (0, 0), BuildingBlock: XUDNAN_clean_linker_2, # of connection points: 2
#     Edge 15, Type (0, 0), BuildingBlock: XUDNAN_clean_linker_2, # of connection points: 2
#     Edge 16, Type (0, 0), BuildingBlock: XUDNAN_clean_linker_2, # of connection points: 2
#     Edge 17, Type (0, 0), BuildingBlock: XUDNAN_clean_linker_2, # of connection points: 2
#     Edge 18, Type (0, 0), BuildingBlock: XUDNAN_clean_linker_2, # of connection points: 2
#     Edge 19, Type (0, 0), BuildingBlock: XUDNAN_clean_linker_2, # of connection points: 2
#     Edge 20, Type (0, 0), BuildingBlock: XUDNAN_clean_linker_2, # of connection points: 2
#     Edge 21, Type (0, 0), BuildingBlock: XUDNAN_clean_linker_2, # of connection points: 2
#     Edge 22, Type (0, 0), BuildingBlock: XUDNAN_clean_linker_2, # of connection points: 2
#     Edge 23, Type (0, 0), BuildingBlock: XUDNAN_clean_linker_2, # of connection points: 2
# Relax obj value: 0.218
# Max RMSD: 0.311
# Mean RMSD: 0.311
data_MOF--net-smu--node1-BETGAK_clean_sbu_0--edge1-XUDNAN_clean_linker_2
_symmetry_space_group_name_H-M    P1
_symmetry_Int_Tables_number       1
_symmetry_cell_setting            triclinic
loop_
_symmetry_equiv_pos_as_xyz
'x, y, z'
_cell_length_a     38.838118
_cell_length_b     38.830669
_cell_length_c     25.990423
_cell_angle_alpha  90.118256
_cell_angle_beta   89.828705
_cell_angle_gamma 120.05607
loop_
_atom_site_label
_atom_site_type_symbol
_atom_site_fract_x
_atom_site_fract_y
_atom_site_fract_z
_atom_type_partial_charge
La0 La 0.40114 0.09796 0.29068 0.0
La1 La 0.35204 0.13694 0.30773 0.0
C2 C 0.45518 0.08321 0.26298 0.0
C3 C 0.4995 0.10692 0.26537 0.0
C4 C 0.51865 0.13566 0.30407 0.0
C5 C 0.56025 0.15709 0.30766 0.0
C6 C 0.58415 0.15028 0.27296 0.0
C7 C 0.56493 0.12126 0.23436 0.0
C8 C 0.52311 0.09996 0.23052 0.0
C9 C 0.37476 0.09215 0.38534 0.0
C10 C 0.44489 0.19242 0.30163 0.0
C11 C 0.3209 0.17682 0.33896 0.0
C12 C 0.28707 0.18364 0.33143 0.0
C13 C 0.27028 0.18045 0.28259 0.0
C14 C 0.24416 0.19492 0.27414 0.0
C15 C 0.23425 0.21283 0.31434 0.0
C16 C 0.2496 0.21404 0.36374 0.0
C17 C 0.27578 0.19969 0.37209 0.0
C18 C 0.34533 0.10802 0.21346 0.0
C19 C 0.30865 0.0443 0.29847 0.0
O20 O 0.43704 0.07321 0.30738 0.0
O21 O 0.43722 0.09523 0.23123 0.0
O22 O 0.37884 0.06514 0.36155 0.0
O23 O 0.38789 0.12314 0.35739 0.0
O24 O 0.44846 0.16033 0.30061 0.0
O25 O 0.4099 0.1898 0.30298 0.0
O26 O 0.34599 0.18708 0.30058 0.0
O27 O 0.31473 0.14392 0.36135 0.0
O28 O 0.31837 0.1124 0.23699 0.0
O29 O 0.37645 0.12386 0.24102 0.0
O30 O 0.30915 0.07486 0.32209 0.0
O31 O 0.34105 0.04728 0.27619 0.0
H32 H 0.50144 0.14135 0.33213 0.0
H33 H 0.57367 0.17861 0.33843 0.0
H34 H 0.58222 0.11532 0.20669 0.0
H35 H 0.5092 0.07784 0.2005 0.0
H36 H 0.27862 0.16829 0.2505 0.0
H37 H 0.23233 0.19279 0.23585 0.0
H38 H 0.24292 0.22783 0.39554 0.0
H39 H 0.28874 0.20292 0.40991 0.0
La40 La 0.75111 0.66698 0.30497 0.0
La41 La 0.8337 0.73501 0.32435 0.0
C42 C 0.69172 0.60852 0.26359 0.0
C43 C 0.67304 0.56471 0.26596 0.0
C44 C 0.63518 0.54074 0.24475 0.0
C45 C 0.61622 0.4992 0.24843 0.0
C46 C 0.63472 0.4806 0.27347 0.0
C47 C 0.67303 0.50483 0.29411 0.0
C48 C 0.69191 0.54644 0.29055 0.0
C49 C 0.76438 0.68405 0.40315 0.0
C50 C 0.8251 0.65088 0.31358 0.0
C51 C 0.8988 0.79352 0.35371 0.0
C52 C 0.94165 0.81117 0.34064 0.0
C53 C 0.95932 0.84092 0.30286 0.0
C54 C 1.0001 0.85905 0.29251 0.0
C55 C 1.02434 0.84807 0.31986 0.0
C56 C 1.00659 0.81788 0.35709 0.0
C57 C 0.96578 0.79978 0.36752 0.0
C58 C 0.81101 0.72117 0.22477 0.0
C59 C 0.76305 0.75097 0.32961 0.0
O60 O 0.68978 0.62588 0.30583 0.0
O61 O 0.72697 0.62797 0.24203 0.0
O62 O 0.72955 0.66628 0.38202 0.0
O63 O 0.7901 0.6866 0.37041 0.0
O64 O 0.78682 0.63662 0.30335 0.0
O65 O 0.84906 0.68874 0.32442 0.0
O66 O 0.88155 0.7587 0.37614 0.0
O67 O 0.87574 0.79602 0.3191 0.0
O68 O 0.84679 0.73392 0.24158 0.0
O69 O 0.79093 0.71879 0.26368 0.0
O70 O 0.79634 0.758 0.35203 0.0
O71 O 0.7431 0.71945 0.29909 0.0
H72 H 0.62008 0.55419 0.2256 0.0
H73 H 0.58706 0.48163 0.23135 0.0
H74 H 0.68808 0.4917 0.3141 0.0
H75 H 0.72103 0.56431 0.30758 0.0
H76 H 0.94175 0.85064 0.28163 0.0
H77 H 1.01271 0.88192 0.26322 0.0
H78 H 1.02444 0.80911 0.37941 0.0
H79 H 0.95328 0.7773 0.39732 0.0
La80 La 0.96819 0.31855 0.29115 0.0
La81 La 0.93988 0.2305 0.29679 0.0
C82 C 0.97446 0.38399 0.26229 0.0
C83 C 0.95427 0.40738 0.27308 0.0
C84 C 0.94678 0.41481 0.32369 0.0
C85 C 0.9311 0.43987 0.33322 0.0
C86 C 0.92216 0.45803 0.29249 0.0
C87 C 0.92793 0.44909 0.24178 0.0
C88 C 0.94397 0.42423 0.23225 0.0
C89 C 0.97569 0.29686 0.38403 0.0
C90 C 0.87578 0.2582 0.29902 0.0
C91 C 0.90599 0.15739 0.31602 0.0
C92 C 0.88719 0.11411 0.32514 0.0
C93 C 0.89611 0.09036 0.29338 0.0
C94 C 0.87595 0.04888 0.29941 0.0
C95 C 0.84555 0.02998 0.33654 0.0
C96 C 0.8368 0.05426 0.36817 0.0
C97 C 0.85768 0.09577 0.3629 0.0
C98 C 0.97111 0.26344 0.20636 0.0
C99 C 1.03078 0.28976 0.2983 0.0
O100 O 0.9952 0.38065 0.29945 0.0
O101 O 0.95408 0.35046 0.23742 0.0
O102 O 0.99653 0.33238 0.36541 0.0
O103 O 0.94735 0.27511 0.35293 0.0
O104 O 0.90495 0.29482 0.30842 0.0
O105 O 0.88318 0.22919 0.28923 0.0
O106 O 0.90656 0.17159 0.27029 0.0
O107 O 0.92525 0.18447 0.35138 0.0
O108 O 0.97231 0.23342 0.22592 0.0
O109 O 0.95048 0.27202 0.23605 0.0
O110 O 1.00183 0.25577 0.31688 0.0
O111 O 1.02369 0.31692 0.27709 0.0
H112 H 0.95389 0.40199 0.35608 0.0
H113 H 0.92657 0.4456 0.37275 0.0
H114 H 0.92168 0.46268 0.2095 0.0
H115 H 0.94932 0.41898 0.19285 0.0
H116 H 0.91873 0.10391 0.2638 0.0
H117 H 0.88451 0.03182 0.27496 0.0
H118 H 0.81316 0.04133 0.39643 0.0
H119 H 0.84979 0.11348 0.38722 0.0
La120 La 0.13771 0.32532 0.80084 0.0
La121 La 0.12105 0.39104 0.78702 0.0
C122 C 0.14564 0.26709 0.82789 0.0
C123 C 0.17274 0.25123 0.81705 0.0
C124 C 0.16689 0.22694 0.77394 0.0
C125 C 0.19065 0.20964 0.76616 0.0
C126 C 0.22077 0.21604 0.80136 0.0
C127 C 0.22712 0.24098 0.8439 0.0
C128 C 0.2033 0.25819 0.85176 0.0
C129 C 0.12822 0.34005 0.70196 0.0
C130 C 0.04971 0.30482 0.80444 0.0
C131 C 0.11914 0.45099 0.75219 0.0
C132 C 0.14348 0.49479 0.75847 0.0
C133 C 0.13304 0.51967 0.732 0.0
C134 C 0.15473 0.56108 0.739 0.0
C135 C 0.18748 0.57872 0.77275 0.0
C136 C 0.19803 0.55352 0.7989 0.0
C137 C 0.17625 0.51207 0.79189 0.0
C138 C 0.1146 0.36952 0.88352 0.0
C139 C 0.2124 0.41006 0.79444 0.0
O140 O 0.16045 0.3006 0.85335 0.0
O141 O 0.12219 0.2655 0.79084 0.0
O142 O 0.15282 0.32904 0.71808 0.0
O143 O 0.11007 0.34152 0.74106 0.0
O144 O 0.07635 0.29805 0.82592 0.0
O145 O 0.06101 0.33792 0.77729 0.0
O146 O 0.09973 0.43108 0.79307 0.0
O147 O 0.13578 0.43339 0.728 0.0
O148 O 0.09608 0.38576 0.86258 0.0
O149 O 0.14072 0.37085 0.85227 0.0
O150 O 0.18753 0.42374 0.78716 0.0
O151 O 0.19916 0.3719 0.8014 0.0
H152 H 0.14351 0.22067 0.74653 0.0
H153 H 0.18516 0.19092 0.73272 0.0
H154 H 0.24961 0.24609 0.87221 0.0
H155 H 0.20828 0.27631 0.88572 0.0
H156 H 0.10788 0.50703 0.70601 0.0
H157 H 0.14596 0.5793 0.71751 0.0
H158 H 0.22266 0.56572 0.82565 0.0
H159 H 0.18474 0.49348 0.81305 0.0
La160 La 0.25369 0.92682 0.80647 0.0
La161 La 0.34157 0.96107 0.7939 0.0
C162 C 0.18227 0.8873 0.83635 0.0
C163 C 0.14069 0.87797 0.83198 0.0
C164 C 0.12792 0.89429 0.79342 0.0
C165 C 0.08705 0.87936 0.78553 0.0
C166 C 0.0586 0.84743 0.81539 0.0
C167 C 0.07178 0.83224 0.85488 0.0
C168 C 0.11236 0.84747 0.86316 0.0
C169 C 0.2798 0.95381 0.71207 0.0
C170 C 0.30622 1.01855 0.79738 0.0
C171 C 0.40838 0.97144 0.76454 0.0
C172 C 0.42898 0.94861 0.77283 0.0
C173 C 0.41855 0.92204 0.8143 0.0
C174 C 0.43694 0.89921 0.82076 0.0
C175 C 0.46654 0.90286 0.78626 0.0
C176 C 0.47727 0.9299 0.7451 0.0
C177 C 0.45849 0.95239 0.73833 0.0
C178 C 0.3223 0.97032 0.88729 0.0
C179 C 0.28753 0.86786 0.80745 0.0
O180 O 0.19676 0.87786 0.79686 0.0
O181 O 0.20874 0.9205 0.8584 0.0
O182 O 0.24824 0.95151 0.73255 0.0
O183 O 0.29255 0.93735 0.74257 0.0
O184 O 0.27434 0.98914 0.81958 0.0
O185 O 0.33525 1.01359 0.77789 0.0
O186 O 0.40329 0.98814 0.80525 0.0
O187 O 0.37612 0.95381 0.73675 0.0
O188 O 0.35497 0.99456 0.86374 0.0
O189 O 0.30165 0.93925 0.85969 0.0
O190 O 0.32367 0.89899 0.81169 0.0
O191 O 0.25641 0.87237 0.80201 0.0
H192 H 0.14938 0.9175 0.76849 0.0
H193 H 0.07766 0.89161 0.75483 0.0
H194 H 0.05062 0.8081 0.87897 0.0
H195 H 0.12162 0.83423 0.89278 0.0
H196 H 0.39611 0.91883 0.84174 0.0
H197 H 0.42834 0.87906 0.85319 0.0
H198 H 0.49975 0.93319 0.71764 0.0
H199 H 0.46687 0.97259 0.70597 0.0
La200 La 0.7409 0.82947 0.82058 0.0
La201 La 0.6866 0.74239 0.79498 0.0
C202 C 0.77366 0.89921 0.85757 0.0
C203 C 0.80662 0.94091 0.85214 0.0
C204 C 0.81893 0.95922 0.80365 0.0
C205 C 0.84331 1.00072 0.79964 0.0
C206 C 0.85573 1.02485 0.844 0.0
C207 C 0.84521 1.00605 0.89242 0.0
C208 C 0.82093 0.96466 0.89637 0.0
C209 C 0.74724 0.81185 0.72368 0.0
C210 C 0.77877 0.77634 0.80377 0.0
C211 C 0.6321 0.67815 0.75523 0.0
C212 C 0.58802 0.65141 0.75986 0.0
C213 C 0.57261 0.61013 0.7611 0.0
C214 C 0.53174 0.58376 0.76749 0.0
C215 C 0.50464 0.5977 0.77306 0.0
C216 C 0.51987 0.63914 0.77014 0.0
C217 C 0.56111 0.66571 0.76374 0.0
C218 C 0.71089 0.75447 0.89121 0.0
C219 C 0.6479 0.79544 0.81645 0.0
O220 O 0.747 0.88595 0.8211 0.0
O221 O 0.78089 0.87167 0.8746 0.0
O222 O 0.77484 0.84128 0.74935 0.0
O223 O 0.7159 0.79623 0.751 0.0
O224 O 0.78003 0.80549 0.83184 0.0
O225 O 0.74592 0.75005 0.77891 0.0
O226 O 0.65333 0.67966 0.79492 0.0
O227 O 0.64566 0.71335 0.73465 0.0
O228 O 0.70193 0.72295 0.86444 0.0
O229 O 0.70248 0.77731 0.8655 0.0
O230 O 0.64202 0.75889 0.81554 0.0
O231 O 0.68389 0.82669 0.81574 0.0
H232 H 0.80811 0.94172 0.76878 0.0
H233 H 0.85067 1.01401 0.76172 0.0
H234 H 0.85488 1.02345 0.92747 0.0
H235 H 0.81168 0.95139 0.93418 0.0
H236 H 0.5924 0.59812 0.7577 0.0
H237 H 0.52136 0.55217 0.76849 0.0
H238 H 0.50013 0.65111 0.77442 0.0
H239 H 0.57194 0.69737 0.76256 0.0
H240 H 0.37986 1.01933 0.95316 0.0
H241 H 0.25232 0.94009 0.94459 0.0
H242 H 0.24507 0.96387 1.03076 0.0
H243 H 0.39018 1.00982 0.09327 0.0
H244 H 0.42832 0.06132 0.09907 0.0
H245 H 0.42322 0.03476 1.04001 0.0
H246 H 0.41666 0.08857 0.98945 0.0
H247 H 0.42131 0.11509 1.04823 0.0
H248 H 0.37858 0.09994 1.00751 0.0
H249 H 0.25205 1.00316 0.11295 0.0
H250 H 0.2717 0.04974 0.18592 0.0
H251 H 0.39571 0.10194 0.14207 0.0
C252 C 0.35033 1.00619 0.96973 0.0
C253 C 0.3165 0.97772 0.942 0.0
C254 C 0.27856 0.96159 0.96512 0.0
C255 C 0.2743 0.97512 1.01398 0.0
C256 C 0.30835 1.00425 1.0394 0.0
C257 C 0.34572 1.01903 1.01826 0.0
C258 C 0.37757 0.05139 1.05179 0.0
C259 C 0.40653 0.03854 0.07225 0.0
C260 C 0.39982 0.09108 1.02249 0.0
C261 C 0.35233 0.05357 0.09481 0.0
C262 C 0.31248 1.02606 0.08696 0.0
C263 C 0.28318 1.02423 0.11966 0.0
C264 C 0.29474 0.05106 0.16101 0.0
C265 C 0.33537 0.07938 0.17009 0.0
C266 C 0.36456 0.08026 0.13671 0.0
H267 H 0.69563 0.75635 0.65222 0.0
H268 H 0.82041 0.82853 0.69189 0.0
H269 H 0.83877 0.80176 0.61751 0.0
H270 H 0.69967 0.67011 0.60542 0.0
H271 H 0.66577 0.66071 0.55301 0.0
H272 H 0.66209 0.68421 0.61098 0.0
H273 H 0.66883 0.7435 0.55733 0.0
H274 H 0.67257 0.7202 0.49924 0.0
H275 H 0.71108 0.76995 0.5152 0.0
H276 H 0.84422 0.76757 0.53691 0.0
H277 H 0.83529 0.73066 0.45526 0.0
H278 H 0.70791 0.68278 0.4663 0.0
C279 C 0.72671 0.7662 0.64538 0.0
C280 C 0.75648 0.79442 0.6782 0.0
C281 C 0.79695 0.80699 0.66739 0.0
C282 C 0.80779 0.79186 0.6252 0.0
C283 C 0.77792 0.76429 0.59335 0.0
C284 C 0.7382 0.75176 0.60267 0.0
C285 C 0.7122 0.72315 0.56107 0.0
C286 C 0.68322 0.68211 0.584 0.0
C287 C 0.68986 0.74023 0.53147 0.0
C288 C 0.74341 0.72154 0.52732 0.0
C289 C 0.78117 0.74532 0.5466 0.0
C290 C 0.81472 0.74886 0.52141 0.0
C291 C 0.80949 0.7279 0.47499 0.0
C292 C 0.77109 0.70403 0.45409 0.0
C293 C 0.73778 0.70068 0.4812 0.0
H294 H 0.99051 0.23526 0.12077 0.0
H295 H 1.0094 0.34457 0.19124 0.0
H296 H 0.05671 0.38332 0.12199 0.0
H297 H 0.08964 0.27046 0.07156 0.0
H298 H 0.07349 0.24415 1.01126 0.0
H299 H 1.04274 0.22458 0.06783 0.0
H300 H 0.98357 0.22334 1.02023 0.0
H301 H 1.01384 0.24188 0.96324 0.0
H302 H 0.99054 0.26808 0.98979 0.0
H303 H 0.10274 0.41042 1.04535 0.0
H304 H 0.13282 0.42357 0.95869 0.0
H305 H 0.08119 0.29703 0.93301 0.0
C306 C 1.00456 0.26739 0.12147 0.0
C307 C 0.99629 0.28689 0.16182 0.0
C308 C 1.01487 0.32888 0.16089 0.0
C309 C 1.04225 0.35118 0.12188 0.0
C310 C 0.05025 0.3311 0.0832 0.0
C311 C 1.03108 0.29006 0.08182 0.0
C312 C 1.04227 0.27575 1.03331 0.0
C313 C 0.06328 0.25234 1.04682 0.0
C314 C 1.00537 0.2508 0.99966 0.0
C315 C 0.07086 0.31516 1.00766 0.0
C316 C 0.07564 0.34667 1.0378 0.0
C317 C 0.09939 0.38595 1.02172 0.0
C318 C 0.11692 0.3932 0.97264 0.0
C319 C 0.11066 0.36151 0.93965 0.0
C320 C 0.08809 0.32195 0.95809 0.0
H321 H 0.30338 0.05458 0.43505 0.0
H322 H 0.4306 0.11721 0.45985 0.0
H323 H 0.41988 0.09046 0.54841 0.0
H324 H 0.27582 0.06594 0.57319 0.0
H325 H 0.23193 1.01733 0.57135 0.0
H326 H 0.24958 0.04667 0.51345 0.0
H327 H 0.25161 0.98823 0.46839 0.0
H328 H 0.23519 0.95913 0.52642 0.0
H329 H 0.28091 0.96874 0.49596 0.0
H330 H 0.39604 0.04654 0.62639 0.0
H331 H 0.36067 0.99958 0.69633 0.0
H332 H 0.2477 0.96823 0.62615 0.0
C333 C 0.32875 0.06446 0.46031 0.0
C334 C 0.36783 0.08917 0.44141 0.0
C335 C 0.4005 0.09968 0.47437 0.0
C336 C 0.39463 0.08413 0.52447 0.0
C337 C 0.35582 0.05848 0.5413 0.0
C338 C 0.32328 0.04975 0.51092 0.0
C339 C 0.28482 1.0198 0.53753 0.0
C340 C 0.25901 0.03856 0.5496 0.0
C341 C 0.2618 0.98173 0.50513 0.0
C342 C 0.30092 1.01177 0.58653 0.0
C343 C 0.34196 0.03421 0.58758 0.0
C344 C 0.36386 0.02954 0.62648 0.0
C345 C 0.34339 1.00209 0.66594 0.0
C346 C 0.30131 0.9799 0.66723 0.0
C347 C 0.2799 0.985 0.62672 0.0
H348 H 0.71194 0.69727 0.949 0.0
H349 H 0.74664 0.8221 0.95388 0.0
H350 H 0.77867 0.82814 1.03894 0.0
H351 H 0.68864 0.6774 0.08444 0.0
H352 H 0.70648 0.64262 0.08744 0.0
H353 H 0.68648 0.64913 1.02821 0.0
H354 H 0.75178 0.66526 0.98116 0.0
H355 H 0.77223 0.65936 1.04036 0.0
H356 H 0.79853 0.70512 1.00455 0.0
H357 H 0.80912 0.81951 0.12367 0.0
H358 H 0.82966 0.79667 0.20073 0.0
H359 H 0.77245 0.67693 0.13951 0.0
C360 C 0.72603 0.72599 0.96792 0.0
C361 C 0.72702 0.7594 0.94443 0.0
C362 C 0.74559 0.79619 0.9709 0.0
C363 C 0.76393 0.7998 1.01917 0.0
C364 C 0.76301 0.76622 1.0406 0.0
C365 C 0.74393 0.72989 1.01586 0.0
C366 C 0.74625 0.69792 1.04658 0.0
C367 C 0.70448 0.66482 0.06262 0.0
C368 C 0.76853 0.68093 1.01635 0.0
C369 C 0.77007 0.72175 0.09266 0.0
C370 C 0.77971 0.76118 0.08857 0.0
C371 C 0.80171 0.78876 0.12683 0.0
C372 C 0.81353 0.77562 0.17029 0.0
C373 C 0.80334 0.73526 0.17541 0.0
C374 C 0.78133 0.70809 0.13603 0.0
H375 H 0.9915 0.34012 0.47139 0.0
H376 H 0.98827 0.23467 0.41063 0.0
H377 H 1.02864 0.23492 0.48438 0.0
H378 H 0.0878 0.38893 0.51498 0.0
H379 H 0.07885 0.40833 0.57342 0.0
H380 H 0.04642 0.39762 0.51907 0.0
H381 H 0.98517 0.35079 0.57458 0.0
H382 H 1.01726 0.36231 0.6296 0.0
H383 H 0.98543 0.31126 0.61051 0.0
H384 H 0.07871 0.25377 0.55993 0.0
H385 H 0.12116 0.28046 0.63746 0.0
H386 H 0.08659 0.37015 0.65265 0.0
C387 C 0.99777 0.31599 0.47474 0.0
C388 C 0.98619 0.28711 0.43513 0.0
C389 C 0.99602 0.25676 0.44044 0.0
C390 C 1.01943 0.25697 0.4822 0.0
C391 C 1.03197 0.28714 0.51924 0.0
C392 C 1.02015 0.31525 0.51674 0.0
C393 C 1.0376 0.34479 0.56092 0.0
C394 C 0.06424 0.38743 0.54087 0.0
C395 C 1.00439 0.34212 0.59599 0.0
C396 C 0.06202 0.32974 0.58815 0.0
C397 C 0.05887 0.29673 0.56328 0.0
C398 C 0.08069 0.27915 0.57998 0.0
C399 C 0.10518 0.29485 0.62381 0.0
C400 C 0.10751 0.32762 0.65113 0.0
C401 C 0.08562 0.3452 0.6326 0.0
H402 H 0.63851 0.12403 0.2613 0.0
H403 H 0.63133 0.22984 0.2946 0.0
H404 H 0.70415 0.26834 0.3057 0.0
H405 H 0.71568 0.14317 0.35206 0.0
H406 H 0.74034 0.12462 0.31113 0.0
H407 H 0.6876 0.10523 0.30494 0.0
H408 H 0.69672 0.12362 0.20819 0.0
H409 H 0.74946 0.14286 0.21406 0.0
H410 H 0.73128 0.17406 0.1891 0.0
H411 H 0.77848 0.29579 0.31392 0.0
H412 H 0.84789 0.30979 0.31738 0.0
H413 H 0.80749 0.1865 0.2787 0.0
C414 C 0.65225 0.15539 0.2704 0.0
C415 C 0.62876 0.17367 0.27732 0.0
C416 C 0.64825 0.21478 0.28984 0.0
C417 C 0.68977 0.23705 0.29599 0.0
C418 C 0.71188 0.21804 0.28954 0.0
C419 C 0.69383 0.17814 0.27689 0.0
C420 C 0.72454 0.16488 0.27258 0.0
C421 C 0.71655 0.13256 0.31256 0.0
C422 C 0.72555 0.15051 0.21772 0.0
C423 C 0.76259 0.2035 0.28478 0.0
C424 C 0.75462 0.23381 0.29442 0.0
C425 C 0.78499 0.2722 0.30644 0.0
C426 C 0.82445 0.27988 0.30841 0.0
C427 C 0.83354 0.24936 0.29853 0.0
C428 C 0.80185 0.21062 0.28668 0.0
H429 H 0.55551 0.42944 0.29418 0.0
H430 H 0.66629 0.43101 0.26458 0.0
H431 H 0.63107 0.35762 0.27217 0.0
H432 H 0.51577 0.34933 0.38659 0.0
H433 H 0.46538 0.3287 0.36404 0.0
H434 H 0.49981 0.38126 0.35798 0.0
H435 H 0.48647 0.37705 0.25986 0.0
H436 H 0.45191 0.32455 0.26568 0.0
H437 H 0.49314 0.3421 0.22145 0.0
H438 H 0.58181 0.28231 0.28041 0.0
H439 H 0.52398 0.214 0.28773 0.0
H440 H 0.44669 0.26347 0.31142 0.0
C441 C 0.57246 0.41447 0.28895 0.0
C442 C 0.61379 0.43625 0.27865 0.0
C443 C 0.63474 0.41521 0.27303 0.0
C444 C 0.61492 0.37343 0.27707 0.0
C445 C 0.5741 0.35294 0.28699 0.0
C446 C 0.55321 0.37292 0.29293 0.0
C447 C 0.50949 0.34427 0.30263 0.0
C448 C 0.49689 0.35132 0.35598 0.0
C449 C 0.48375 0.34717 0.25985 0.0
C450 C 0.50879 0.30495 0.30057 0.0
C451 C 0.54626 0.31034 0.29179 0.0
C452 C 0.5524 0.2779 0.28754 0.0
C453 C 0.51937 0.23913 0.29191 0.0
C454 C 0.48063 0.23307 0.30032 0.0
C455 C 0.47574 0.26672 0.30508 0.0
H456 H 0.86261 0.46811 0.24688 0.0
H457 H 0.95576 0.51835 0.36219 0.0
H458 H 0.93937 0.57071 0.38042 0.0
H459 H 0.87632 0.56111 0.19853 0.0
H460 H 0.8241 0.54373 0.18994 0.0
H461 H 0.84221 0.50921 0.18582 0.0
H462 H 0.79226 0.46567 0.25643 0.0
H463 H 0.77401 0.5001 0.26084 0.0
H464 H 0.79219 0.48772 0.31752 0.0
H465 H 0.91633 0.61963 0.38373 0.0
H466 H 0.88534 0.66109 0.37554 0.0
H467 H 0.80359 0.57962 0.26132 0.0
C468 C 0.87944 0.49011 0.27603 0.0
C469 C 0.91043 0.48877 0.30337 0.0
C470 C 0.93158 0.51816 0.34129 0.0
C471 C 0.92261 0.54825 0.35176 0.0
C472 C 0.89205 0.54871 0.3244 0.0
C473 C 0.87043 0.52032 0.28762 0.0
C474 C 0.83889 0.52808 0.26429 0.0
C475 C 0.8458 0.536 0.20619 0.0
C476 C 0.79684 0.49332 0.27544 0.0
C477 C 0.84666 0.56549 0.29328 0.0
C478 C 0.87769 0.57675 0.3275 0.0
C479 C 0.89181 0.61095 0.35737 0.0
C480 C 0.87401 0.63445 0.35223 0.0
C481 C 0.8419 0.62378 0.31787 0.0
C482 C 0.82778 0.58844 0.2883 0.0
H483 H 0.15856 0.6309 0.77791 0.0
H484 H 0.26846 0.62753 0.78546 0.0
H485 H 0.30601 0.70038 0.7983 0.0
H486 H 0.19823 0.72217 0.70683 0.0
H487 H 0.16858 0.73894 0.74028 0.0
H488 H 0.15053 0.68649 0.73329 0.0
H489 H 0.1421 0.67782 0.83218 0.0
H490 H 0.16029 0.73029 0.83945 0.0
H491 H 0.18409 0.70741 0.87331 0.0
H492 H 0.33209 0.77526 0.80839 0.0
H493 H 0.34352 0.84387 0.81397 0.0
H494 H 0.21653 0.79761 0.79894 0.0
C495 C 0.19055 0.64536 0.78188 0.0
C496 C 0.21034 0.62303 0.7807 0.0
C497 C 0.2523 0.64353 0.78692 0.0
C498 C 0.27401 0.68509 0.79398 0.0
C499 C 0.25351 0.70607 0.79487 0.0
C500 C 0.21267 0.68679 0.78897 0.0
C501 C 0.19766 0.7161 0.79078 0.0
C502 C 0.17757 0.71591 0.73976 0.0
C503 C 0.16937 0.70738 0.83666 0.0
C504 C 0.23638 0.75493 0.79825 0.0
C505 C 0.26834 0.74865 0.80066 0.0
C506 C 0.30716 0.78036 0.80671 0.0
C507 C 0.31341 0.81935 0.80995 0.0
C508 C 0.28106 0.8265 0.80713 0.0
C509 C 0.24208 0.79351 0.80151 0.0
H510 H 0.54622 0.92821 0.77965 0.0
H511 H 0.4318 0.82329 0.80955 0.0
H512 H 0.46508 0.78367 0.82185 0.0
H513 H 0.58927 0.87939 0.70911 0.0
H514 H 0.63818 0.91004 0.73589 0.0
H515 H 0.60499 0.92953 0.72947 0.0
H516 H 0.61227 0.94623 0.82687 0.0
H517 H 0.64536 0.92665 0.83359 0.0
H518 H 0.60132 0.90747 0.87305 0.0
H519 H 0.51201 0.75516 0.82887 0.0
H520 H 0.56797 0.74159 0.83229 0.0
H521 H 0.65056 0.86604 0.79943 0.0
C522 C 0.5281 0.89683 0.78841 0.0
C523 C 0.48639 0.87884 0.79347 0.0
C524 C 0.46385 0.8378 0.80584 0.0
C525 C 0.48248 0.81502 0.81269 0.0
C526 C 0.52373 0.83374 0.80744 0.0
C527 C 0.5462 0.87381 0.79579 0.0
C528 C 0.59002 0.88714 0.79283 0.0
C529 C 0.60657 0.90241 0.7386 0.0
C530 C 0.61362 0.91873 0.83405 0.0
C531 C 0.5888 0.84835 0.80432 0.0
C532 C 0.55039 0.81774 0.8125 0.0
C533 C 0.54222 0.77903 0.82274 0.0
C534 C 0.57417 0.77155 0.82454 0.0
C535 C 0.61376 0.80268 0.81641 0.0
C536 C 0.6208 0.84151 0.80639 0.0
H537 H 0.26298 0.48451 0.74784 0.0
H538 H 0.2622 0.39746 0.85322 0.0
H539 H 0.33466 0.43765 0.86161 0.0
H540 H 0.35299 0.5048 0.68209 0.0
H541 H 0.37195 0.55738 0.67409 0.0
H542 H 0.31909 0.52371 0.67834 0.0
H543 H 0.31458 0.56435 0.7544 0.0
H544 H 0.36745 0.59821 0.75031 0.0
H545 H 0.34549 0.57343 0.81016 0.0
H546 H 0.40674 0.48451 0.85783 0.0
H547 H 0.47595 0.53541 0.83989 0.0
H548 H 0.43512 0.59404 0.73453 0.0
C549 C 0.27811 0.47429 0.77314 0.0
C550 C 0.25643 0.43752 0.7999 0.0
C551 C 0.27769 0.42514 0.83201 0.0
C552 C 0.31908 0.44793 0.83728 0.0
C553 C 0.3396 0.4834 0.81003 0.0
C554 C 0.32014 0.49674 0.77844 0.0
C555 C 0.3505 0.5353 0.75184 0.0
C556 C 0.3485 0.52997 0.6931 0.0
C557 C 0.34412 0.56987 0.76762 0.0
C558 C 0.38972 0.54103 0.77318 0.0
C559 C 0.38227 0.51067 0.80698 0.0
C560 C 0.41297 0.50839 0.8313 0.0
C561 C 0.4524 0.53746 0.82049 0.0
C562 C 0.46155 0.56874 0.78522 0.0
C563 C 0.42942 0.57074 0.76182 0.0
H564 H 0.17524 0.2109 0.37545 0.0
H565 H 0.23739 0.25783 0.23093 0.0
H566 H 0.1971 0.28979 0.21504 0.0
H567 H 0.08028 0.18787 0.33164 0.0
H568 H 0.06598 0.20141 0.39101 0.0
H569 H 0.10153 0.18462 0.39176 0.0
H570 H 0.1518 0.24952 0.4388 0.0
H571 H 0.11638 0.26661 0.43744 0.0
H572 H 0.16535 0.29699 0.41044 0.0
H573 H 0.14699 0.31432 0.21329 0.0
H574 H 0.08841 0.32348 0.2231 0.0
H575 H 0.06127 0.26172 0.36928 0.0
C576 C 0.18085 0.22837 0.34079 0.0
C577 C 0.20959 0.23178 0.30449 0.0
C578 C 0.21525 0.25429 0.2591 0.0
C579 C 0.1928 0.27297 0.24998 0.0
C580 C 0.16484 0.26912 0.2867 0.0
C581 C 0.15874 0.24719 0.33112 0.0
C582 C 0.12532 0.24551 0.36313 0.0
C583 C 0.09127 0.20229 0.36973 0.0
C584 C 0.14065 0.26588 0.41555 0.0
C585 C 0.11303 0.26923 0.32938 0.0
C586 C 0.13639 0.28316 0.28573 0.0
C587 C 0.12887 0.30399 0.2477 0.0
C588 C 0.09581 0.30945 0.25373 0.0
C589 C 0.07067 0.29372 0.29717 0.0
C590 C 0.08027 0.27448 0.33593 0.0
H591 H 0.07359 0.92812 0.30763 0.0
H592 H 0.07465 0.8171 0.31483 0.0
H593 H 0.148 0.85422 0.30468 0.0
H594 H 0.15295 0.97704 0.21259 0.0
H595 H 0.17242 1.02494 0.24307 0.0
H596 H 0.12012 0.98902 0.2475 0.0
H597 H 0.12427 0.99383 0.34714 0.0
H598 H 0.17647 0.02972 0.3429 0.0
H599 H 0.15991 0.98503 0.38017 0.0
H600 H 0.22317 0.90564 0.29552 0.0
H601 H 0.2909 0.96566 0.29397 0.0
H602 H 0.2376 0.04062 0.29397 0.0
C603 C 0.08903 0.91141 0.30602 0.0
C604 C 0.06824 0.86964 0.31156 0.0
C605 C 0.08993 0.84915 0.3108 0.0
C606 C 0.13158 0.86996 0.30472 0.0
C607 C 0.15113 0.91126 0.29949 0.0
C608 C 0.13036 0.93162 0.30021 0.0
C609 C 0.15798 0.97602 0.29658 0.0
C610 C 0.15041 0.99272 0.24698 0.0
C611 C 0.15444 0.99738 0.34456 0.0
C612 C 0.19765 0.97768 0.2946 0.0
C613 C 0.19346 0.94022 0.29557 0.0
C614 C 0.22666 0.93509 0.29466 0.0
C615 C 0.26496 0.9692 0.29361 0.0
C616 C 0.26942 1.00765 0.2944 0.0
C617 C 0.2352 1.01159 0.29404 0.0
H618 H 0.82841 0.97171 0.26214 0.0
H619 H 0.81284 0.98606 0.42504 0.0
H620 H 0.77698 0.91353 0.43549 0.0
H621 H 0.73505 0.87765 0.24097 0.0
H622 H 0.75827 0.85776 0.19966 0.0
H623 H 0.77756 0.91072 0.20241 0.0
H624 H 0.84731 0.92219 0.22643 0.0
H625 H 0.82822 0.86944 0.22257 0.0
H626 H 0.85216 0.89604 0.28065 0.0
H627 H 0.74925 0.84009 0.43144 0.0
H628 H 0.73888 0.77291 0.41459 0.0
H629 H 0.77379 0.80491 0.2558 0.0
C630 C 0.8175 0.9599 0.30014 0.0
C631 C 0.82325 0.98542 0.34251 0.0
C632 C 0.80804 0.96784 0.39132 0.0
C633 C 0.78762 0.92637 0.39782 0.0
C634 C 0.78259 0.90236 0.35535 0.0
C635 C 0.7975 0.91848 0.30754 0.0
C636 C 0.79191 0.88629 0.26951 0.0
C637 C 0.76403 0.88292 0.22554 0.0
C638 C 0.83229 0.89395 0.2486 0.0
C639 C 0.7725 0.84973 0.30382 0.0
C640 C 0.76668 0.85962 0.35298 0.0
C641 C 0.75275 0.8318 0.39281 0.0
C642 C 0.74643 0.79353 0.38282 0.0
C643 C 0.75383 0.7833 0.33342 0.0
C644 C 0.76584 0.81137 0.2931 0.0
H645 H 0.19234 0.13843 0.77334 0.0
H646 H 0.30093 0.24527 0.81762 0.0
H647 H 0.3374 0.20818 0.81333 0.0
H648 H 0.20678 0.07233 0.84684 0.0
H649 H 0.18584 0.03243 0.80048 0.0
H650 H 0.16989 0.06862 0.8017 0.0
H651 H 0.18897 0.08448 0.70539 0.0
H652 H 0.20504 0.04826 0.70398 0.0
H653 H 0.23874 0.09885 0.68474 0.0
H654 H 0.36111 0.15689 0.80852 0.0
H655 H 0.3675 0.09616 0.80945 0.0
H656 H 0.24286 1.0247 0.76975 0.0
C657 C 0.22401 0.1544 0.78086 0.0
C658 C 0.24377 0.1949 0.7954 0.0
C659 C 0.28505 0.21421 0.80654 0.0
C660 C 0.3061 0.19345 0.80382 0.0
C661 C 0.28552 0.15336 0.7898 0.0
C662 C 0.24532 0.13416 0.77852 0.0
C663 C 0.22915 0.0904 0.7681 0.0
C664 C 0.19598 0.06444 0.80659 0.0
C665 C 0.21462 0.0799 0.71223 0.0
C666 C 0.26613 0.0876 0.7768 0.0
C667 C 0.29869 0.1242 0.78828 0.0
C668 C 0.3358 0.12817 0.7992 0.0
C669 C 0.33929 0.09368 0.79947 0.0
C670 C 0.30566 0.05595 0.78989 0.0
C671 C 0.26905 0.05325 0.77743 0.0
H672 H 1.01473 0.88467 0.80514 0.0
H673 H 1.00456 0.76832 0.80396 0.0
H674 H 0.93165 0.7367 0.79321 0.0
H675 H 0.93006 0.85748 0.88028 0.0
H676 H 0.9153 0.88877 0.84719 0.0
H677 H 0.96684 0.9022 0.84852 0.0
H678 H 0.96924 0.90476 0.74878 0.0
H679 H 0.91761 0.89134 0.74725 0.0
H680 H 0.934 0.86193 0.71247 0.0
H681 H 0.85845 0.71759 0.78645 0.0
H682 H 0.79243 0.71345 0.79063 0.0
H683 H 0.85164 0.84209 0.80011 0.0
C684 C 0.99721 0.85261 0.8015 0.0
C685 C 1.01526 0.82895 0.80506 0.0
C686 C 0.99124 0.78698 0.80139 0.0
C687 C 0.94985 0.76877 0.795 0.0
C688 C 0.93281 0.79289 0.79248 0.0
C689 C 0.9558 0.83394 0.79575 0.0
C690 C 0.93009 0.85302 0.79608 0.0
C691 C 0.93592 0.87675 0.84599 0.0
C692 C 0.93823 0.87932 0.7483 0.0
C693 C 0.88913 0.81639 0.7938 0.0
C694 C 0.89109 0.78192 0.79066 0.0
C695 C 0.85662 0.74446 0.78879 0.0
C696 C 0.8193 0.74229 0.79107 0.0
C697 C 0.81702 0.77734 0.79631 0.0
C698 C 0.85246 0.81469 0.79683 0.0
H699 H 1.02453 0.2393 0.74634 0.0
H700 H 0.98702 0.29086 0.86613 0.0
H701 H 0.92888 0.22437 0.88458 0.0
H702 H 0.92262 0.15829 0.70411 0.0
H703 H 0.94035 0.12376 0.69511 0.0
H704 H 0.97338 0.1762 0.68458 0.0
H705 H 1.02314 0.17477 0.74935 0.0
H706 H 0.99002 0.12268 0.76116 0.0
H707 H 1.00688 0.15742 0.81403 0.0
H708 H 0.88085 0.15078 0.89804 0.0
H709 H 0.84486 0.07751 0.90284 0.0
H710 H 0.91582 0.07344 0.77619 0.0
C711 C 1.00265 0.23683 0.77431 0.0
C712 C 1.009 0.27041 0.80317 0.0
C713 C 0.98147 0.26584 0.84195 0.0
C714 C 0.9487 0.22805 0.85305 0.0
C715 C 0.9441 0.19517 0.82513 0.0
C716 C 0.97011 0.19933 0.78601 0.0
C717 C 0.96148 0.15907 0.76571 0.0
C718 C 0.94868 0.15403 0.70901 0.0
C719 C 0.99752 0.15317 0.77303 0.0
C720 C 0.92713 0.13144 0.80024 0.0
C721 C 0.91738 0.15283 0.83399 0.0
C722 C 0.88801 0.13384 0.87137 0.0
C723 C 0.868 0.09208 0.87416 0.0
C724 C 0.87745 0.06937 0.84007 0.0
C725 C 0.90737 0.08965 0.80242 0.0
loop_
_geom_bond_atom_site_label_1
_geom_bond_atom_site_label_2
_geom_bond_distance
_geom_bond_site_symmetry_2
_ccdc_geom_bond_type
La0 C2 2.928 . S
La0 O20 2.521 . S
La0 O21 2.628 . S
La0 O22 2.554 . S
La0 O23 2.757 . S
La0 O24 2.470 . S
La0 O29 2.482 . S
La0 O31 2.503 . S
La1 C11 2.928 . S
La1 O23 2.482 . S
La1 O25 2.503 . S
La1 O26 2.521 . S
La1 O27 2.628 . S
La1 O28 2.554 . S
La1 O29 2.757 . S
La1 O30 2.470 . S
C2 La0 2.928 . S
C2 C3 1.503 . S
C2 O20 1.261 . S
C2 O21 1.243 . S
C3 C2 1.503 . S
C3 C4 1.394 . S
C3 C8 1.373 . S
C4 C3 1.394 . S
C4 C5 1.380 . S
C4 H32 0.930 . S
C5 C4 1.380 . S
C5 C6 1.376 . S
C5 H33 0.930 . S
C6 C5 1.376 . S
C6 C7 1.370 . S
C7 C6 1.370 . S
C7 C8 1.396 . S
C7 H34 0.929 . S
C8 C3 1.373 . S
C8 C7 1.396 . S
C8 H35 0.929 . S
C9 O22 1.240 . S
C9 O23 1.289 . S
C10 O24 1.258 . S
C10 O25 1.256 . S
C11 La1 2.928 . S
C11 C12 1.503 . S
C11 O26 1.261 . S
C11 O27 1.243 . S
C12 C11 1.503 . S
C12 C13 1.394 . S
C12 C17 1.373 . S
C13 C12 1.394 . S
C13 C14 1.380 . S
C13 H36 0.930 . S
C14 C13 1.380 . S
C14 C15 1.376 . S
C14 H37 0.930 . S
C15 C14 1.376 . S
C15 C16 1.370 . S
C16 C15 1.370 . S
C16 C17 1.396 . S
C16 H38 0.929 . S
C17 C12 1.373 . S
C17 C16 1.396 . S
C17 H39 0.929 . S
C18 O28 1.240 . S
C18 O29 1.289 . S
C19 O30 1.258 . S
C19 O31 1.256 . S
O20 La0 2.521 . S
O20 C2 1.261 . S
O21 La0 2.628 . S
O21 C2 1.243 . S
O22 La0 2.554 . S
O22 C9 1.240 . S
O23 La0 2.757 . S
O23 La1 2.482 . S
O23 C9 1.289 . S
O24 La0 2.470 . S
O24 C10 1.258 . S
O25 La1 2.503 . S
O25 C10 1.256 . S
O26 La1 2.521 . S
O26 C11 1.261 . S
O27 La1 2.628 . S
O27 C11 1.243 . S
O28 La1 2.554 . S
O28 C18 1.240 . S
O29 La0 2.482 . S
O29 La1 2.757 . S
O29 C18 1.289 . S
O30 La1 2.470 . S
O30 C19 1.258 . S
O31 La0 2.503 . S
O31 C19 1.256 . S
H32 C4 0.930 . S
H33 C5 0.930 . S
H34 C7 0.929 . S
H35 C8 0.929 . S
H36 C13 0.930 . S
H37 C14 0.930 . S
H38 C16 0.929 . S
H39 C17 0.929 . S
La40 C42 2.928 . S
La40 O60 2.521 . S
La40 O61 2.628 . S
La40 O62 2.554 . S
La40 O63 2.757 . S
La40 O64 2.470 . S
La40 O69 2.482 . S
La40 O71 2.503 . S
La41 C51 2.928 . S
La41 O63 2.482 . S
La41 O65 2.503 . S
La41 O66 2.521 . S
La41 O67 2.628 . S
La41 O68 2.554 . S
La41 O69 2.757 . S
La41 O70 2.470 . S
C42 La40 2.928 . S
C42 C43 1.503 . S
C42 O60 1.261 . S
C42 O61 1.243 . S
C43 C42 1.503 . S
C43 C44 1.394 . S
C43 C48 1.373 . S
C44 C43 1.394 . S
C44 C45 1.380 . S
C44 H72 0.930 . S
C45 C44 1.380 . S
C45 C46 1.376 . S
C45 H73 0.930 . S
C46 C45 1.376 . S
C46 C47 1.370 . S
C47 C46 1.370 . S
C47 C48 1.396 . S
C47 H74 0.929 . S
C48 C43 1.373 . S
C48 C47 1.396 . S
C48 H75 0.929 . S
C49 O62 1.240 . S
C49 O63 1.289 . S
C50 O64 1.258 . S
C50 O65 1.256 . S
C51 La41 2.928 . S
C51 C52 1.503 . S
C51 O66 1.261 . S
C51 O67 1.243 . S
C52 C51 1.503 . S
C52 C53 1.394 . S
C52 C57 1.373 . S
C53 C52 1.394 . S
C53 C54 1.380 . S
C53 H76 0.930 . S
C54 C53 1.380 . S
C54 C55 1.376 . S
C54 H77 0.930 1_655 S
C55 C54 1.376 . S
C55 C56 1.370 . S
C56 C55 1.370 . S
C56 C57 1.396 . S
C56 H78 0.929 . S
C57 C52 1.373 . S
C57 C56 1.396 . S
C57 H79 0.929 . S
C58 O68 1.240 . S
C58 O69 1.289 . S
C59 O70 1.258 . S
C59 O71 1.256 . S
O60 La40 2.521 . S
O60 C42 1.261 . S
O61 La40 2.628 . S
O61 C42 1.243 . S
O62 La40 2.554 . S
O62 C49 1.240 . S
O63 La40 2.757 . S
O63 La41 2.482 . S
O63 C49 1.289 . S
O64 La40 2.470 . S
O64 C50 1.258 . S
O65 La41 2.503 . S
O65 C50 1.256 . S
O66 La41 2.521 . S
O66 C51 1.261 . S
O67 La41 2.628 . S
O67 C51 1.243 . S
O68 La41 2.554 . S
O68 C58 1.240 . S
O69 La40 2.482 . S
O69 La41 2.757 . S
O69 C58 1.289 . S
O70 La41 2.470 . S
O70 C59 1.258 . S
O71 La40 2.503 . S
O71 C59 1.256 . S
H72 C44 0.930 . S
H73 C45 0.930 . S
H74 C47 0.929 . S
H75 C48 0.929 . S
H76 C53 0.930 . S
H77 C54 0.930 1_455 S
H78 C56 0.929 . S
H79 C57 0.929 . S
La80 C82 2.928 . S
La80 O100 2.521 . S
La80 O101 2.628 . S
La80 O102 2.554 . S
La80 O103 2.757 . S
La80 O104 2.470 . S
La80 O109 2.482 . S
La80 O111 2.503 . S
La81 C91 2.928 . S
La81 O103 2.482 . S
La81 O105 2.503 . S
La81 O106 2.521 . S
La81 O107 2.628 . S
La81 O108 2.554 . S
La81 O109 2.757 . S
La81 O110 2.470 . S
C82 La80 2.928 . S
C82 C83 1.503 . S
C82 O100 1.261 . S
C82 O101 1.243 . S
C83 C82 1.503 . S
C83 C84 1.394 . S
C83 C88 1.373 . S
C84 C83 1.394 . S
C84 C85 1.380 . S
C84 H112 0.930 . S
C85 C84 1.380 . S
C85 C86 1.376 . S
C85 H113 0.930 . S
C86 C85 1.376 . S
C86 C87 1.370 . S
C87 C86 1.370 . S
C87 C88 1.396 . S
C87 H114 0.929 . S
C88 C83 1.373 . S
C88 C87 1.396 . S
C88 H115 0.929 . S
C89 O102 1.240 . S
C89 O103 1.289 . S
C90 O104 1.258 . S
C90 O105 1.256 . S
C91 La81 2.928 . S
C91 C92 1.503 . S
C91 O106 1.261 . S
C91 O107 1.243 . S
C92 C91 1.503 . S
C92 C93 1.394 . S
C92 C97 1.373 . S
C93 C92 1.394 . S
C93 C94 1.380 . S
C93 H116 0.930 . S
C94 C93 1.380 . S
C94 C95 1.376 . S
C94 H117 0.930 1_545 S
C95 C94 1.376 . S
C95 C96 1.370 . S
C96 C95 1.370 . S
C96 C97 1.396 . S
C96 H118 0.929 . S
C97 C92 1.373 . S
C97 C96 1.396 . S
C97 H119 0.929 . S
C98 O108 1.240 . S
C98 O109 1.289 . S
C99 O110 1.258 . S
C99 O111 1.256 . S
O100 La80 2.521 . S
O100 C82 1.261 . S
O101 La80 2.628 . S
O101 C82 1.243 . S
O102 La80 2.554 . S
O102 C89 1.240 . S
O103 La80 2.757 . S
O103 La81 2.482 . S
O103 C89 1.289 . S
O104 La80 2.470 . S
O104 C90 1.258 . S
O105 La81 2.503 . S
O105 C90 1.256 . S
O106 La81 2.521 . S
O106 C91 1.261 . S
O107 La81 2.628 . S
O107 C91 1.243 . S
O108 La81 2.554 . S
O108 C98 1.240 . S
O109 La80 2.482 . S
O109 La81 2.757 . S
O109 C98 1.289 . S
O110 La81 2.470 . S
O110 C99 1.258 . S
O111 La80 2.503 . S
O111 C99 1.256 . S
H112 C84 0.930 . S
H113 C85 0.930 . S
H114 C87 0.929 . S
H115 C88 0.929 . S
H116 C93 0.930 . S
H117 C94 0.930 1_565 S
H118 C96 0.929 . S
H119 C97 0.929 . S
La120 C122 2.928 . S
La120 O140 2.521 . S
La120 O141 2.628 . S
La120 O142 2.554 . S
La120 O143 2.757 . S
La120 O144 2.470 . S
La120 O149 2.482 . S
La120 O151 2.503 . S
La121 C131 2.928 . S
La121 O143 2.482 . S
La121 O145 2.503 . S
La121 O146 2.521 . S
La121 O147 2.628 . S
La121 O148 2.554 . S
La121 O149 2.757 . S
La121 O150 2.470 . S
C122 La120 2.928 . S
C122 C123 1.503 . S
C122 O140 1.261 . S
C122 O141 1.243 . S
C123 C122 1.503 . S
C123 C124 1.394 . S
C123 C128 1.373 . S
C124 C123 1.394 . S
C124 C125 1.380 . S
C124 H152 0.930 . S
C125 C124 1.380 . S
C125 C126 1.376 . S
C125 H153 0.930 . S
C126 C125 1.376 . S
C126 C127 1.370 . S
C127 C126 1.370 . S
C127 C128 1.396 . S
C127 H154 0.929 . S
C128 C123 1.373 . S
C128 C127 1.396 . S
C128 H155 0.929 . S
C129 O142 1.240 . S
C129 O143 1.289 . S
C130 O144 1.258 . S
C130 O145 1.256 . S
C131 La121 2.928 . S
C131 C132 1.503 . S
C131 O146 1.261 . S
C131 O147 1.243 . S
C132 C131 1.503 . S
C132 C133 1.394 . S
C132 C137 1.373 . S
C133 C132 1.394 . S
C133 C134 1.380 . S
C133 H156 0.930 . S
C134 C133 1.380 . S
C134 C135 1.376 . S
C134 H157 0.930 . S
C135 C134 1.376 . S
C135 C136 1.370 . S
C136 C135 1.370 . S
C136 C137 1.396 . S
C136 H158 0.929 . S
C137 C132 1.373 . S
C137 C136 1.396 . S
C137 H159 0.929 . S
C138 O148 1.240 . S
C138 O149 1.289 . S
C139 O150 1.258 . S
C139 O151 1.256 . S
O140 La120 2.521 . S
O140 C122 1.261 . S
O141 La120 2.628 . S
O141 C122 1.243 . S
O142 La120 2.554 . S
O142 C129 1.240 . S
O143 La120 2.757 . S
O143 La121 2.482 . S
O143 C129 1.289 . S
O144 La120 2.470 . S
O144 C130 1.258 . S
O145 La121 2.503 . S
O145 C130 1.256 . S
O146 La121 2.521 . S
O146 C131 1.261 . S
O147 La121 2.628 . S
O147 C131 1.243 . S
O148 La121 2.554 . S
O148 C138 1.240 . S
O149 La120 2.482 . S
O149 La121 2.757 . S
O149 C138 1.289 . S
O150 La121 2.470 . S
O150 C139 1.258 . S
O151 La120 2.503 . S
O151 C139 1.256 . S
H152 C124 0.930 . S
H153 C125 0.930 . S
H154 C127 0.929 . S
H155 C128 0.929 . S
H156 C133 0.930 . S
H157 C134 0.930 . S
H158 C136 0.929 . S
H159 C137 0.929 . S
La160 C162 2.928 . S
La160 O180 2.521 . S
La160 O181 2.628 . S
La160 O182 2.554 . S
La160 O183 2.757 . S
La160 O184 2.470 . S
La160 O189 2.482 . S
La160 O191 2.503 . S
La161 C171 2.928 . S
La161 O183 2.482 . S
La161 O185 2.503 . S
La161 O186 2.521 . S
La161 O187 2.628 . S
La161 O188 2.554 . S
La161 O189 2.757 . S
La161 O190 2.470 . S
C162 La160 2.928 . S
C162 C163 1.503 . S
C162 O180 1.261 . S
C162 O181 1.243 . S
C163 C162 1.503 . S
C163 C164 1.394 . S
C163 C168 1.373 . S
C164 C163 1.394 . S
C164 C165 1.380 . S
C164 H192 0.930 . S
C165 C164 1.380 . S
C165 C166 1.376 . S
C165 H193 0.930 1_455 S
C166 C165 1.376 . S
C166 C167 1.370 . S
C167 C166 1.370 . S
C167 C168 1.396 . S
C167 H194 0.929 . S
C168 C163 1.373 . S
C168 C167 1.396 . S
C168 H195 0.929 . S
C169 O182 1.240 . S
C169 O183 1.289 . S
C170 O184 1.258 . S
C170 O185 1.256 . S
C171 La161 2.928 . S
C171 C172 1.503 . S
C171 O186 1.261 . S
C171 O187 1.243 . S
C172 C171 1.503 . S
C172 C173 1.394 . S
C172 C177 1.373 . S
C173 C172 1.394 . S
C173 C174 1.380 . S
C173 H196 0.930 . S
C174 C173 1.380 . S
C174 C175 1.376 . S
C174 H197 0.930 . S
C175 C174 1.376 . S
C175 C176 1.370 . S
C176 C175 1.370 . S
C176 C177 1.396 . S
C176 H198 0.929 . S
C177 C172 1.373 . S
C177 C176 1.396 . S
C177 H199 0.929 . S
C178 O188 1.240 . S
C178 O189 1.289 . S
C179 O190 1.258 . S
C179 O191 1.256 . S
O180 La160 2.521 . S
O180 C162 1.261 . S
O181 La160 2.628 . S
O181 C162 1.243 . S
O182 La160 2.554 . S
O182 C169 1.240 . S
O183 La160 2.757 . S
O183 La161 2.482 . S
O183 C169 1.289 . S
O184 La160 2.470 . S
O184 C170 1.258 . S
O185 La161 2.503 . S
O185 C170 1.256 . S
O186 La161 2.521 . S
O186 C171 1.261 . S
O187 La161 2.628 . S
O187 C171 1.243 . S
O188 La161 2.554 . S
O188 C178 1.240 . S
O189 La160 2.482 . S
O189 La161 2.757 . S
O189 C178 1.289 . S
O190 La161 2.470 . S
O190 C179 1.258 . S
O191 La160 2.503 . S
O191 C179 1.256 . S
H192 C164 0.930 . S
H193 C165 0.930 1_655 S
H194 C167 0.929 . S
H195 C168 0.929 . S
H196 C173 0.930 . S
H197 C174 0.930 . S
H198 C176 0.929 . S
H199 C177 0.929 . S
La200 C202 2.928 . S
La200 O220 2.521 . S
La200 O221 2.628 . S
La200 O222 2.554 . S
La200 O223 2.757 . S
La200 O224 2.470 . S
La200 O229 2.482 . S
La200 O231 2.503 . S
La201 C211 2.928 . S
La201 O223 2.482 . S
La201 O225 2.503 . S
La201 O226 2.521 . S
La201 O227 2.628 . S
La201 O228 2.554 . S
La201 O229 2.757 . S
La201 O230 2.470 . S
C202 La200 2.928 . S
C202 C203 1.503 . S
C202 O220 1.261 . S
C202 O221 1.243 . S
C203 C202 1.503 . S
C203 C204 1.394 . S
C203 C208 1.373 . S
C204 C203 1.394 . S
C204 C205 1.380 . S
C204 H232 0.930 . S
C205 C204 1.380 . S
C205 C206 1.376 . S
C205 H233 0.930 1_565 S
C206 C205 1.376 . S
C206 C207 1.370 . S
C207 C206 1.370 . S
C207 C208 1.396 . S
C207 H234 0.929 . S
C208 C203 1.373 . S
C208 C207 1.396 . S
C208 H235 0.929 . S
C209 O222 1.240 . S
C209 O223 1.289 . S
C210 O224 1.258 . S
C210 O225 1.256 . S
C211 La201 2.928 . S
C211 C212 1.503 . S
C211 O226 1.261 . S
C211 O227 1.243 . S
C212 C211 1.503 . S
C212 C213 1.394 . S
C212 C217 1.373 . S
C213 C212 1.394 . S
C213 C214 1.380 . S
C213 H236 0.930 . S
C214 C213 1.380 . S
C214 C215 1.376 . S
C214 H237 0.930 . S
C215 C214 1.376 . S
C215 C216 1.370 . S
C216 C215 1.370 . S
C216 C217 1.396 . S
C216 H238 0.929 . S
C217 C212 1.373 . S
C217 C216 1.396 . S
C217 H239 0.929 . S
C218 O228 1.240 . S
C218 O229 1.289 . S
C219 O230 1.258 . S
C219 O231 1.256 . S
O220 La200 2.521 . S
O220 C202 1.261 . S
O221 La200 2.628 . S
O221 C202 1.243 . S
O222 La200 2.554 . S
O222 C209 1.240 . S
O223 La200 2.757 . S
O223 La201 2.482 . S
O223 C209 1.289 . S
O224 La200 2.470 . S
O224 C210 1.258 . S
O225 La201 2.503 . S
O225 C210 1.256 . S
O226 La201 2.521 . S
O226 C211 1.261 . S
O227 La201 2.628 . S
O227 C211 1.243 . S
O228 La201 2.554 . S
O228 C218 1.240 . S
O229 La200 2.482 . S
O229 La201 2.757 . S
O229 C218 1.289 . S
O230 La201 2.470 . S
O230 C219 1.258 . S
O231 La200 2.503 . S
O231 C219 1.256 . S
H232 C204 0.930 . S
H233 C205 0.930 1_545 S
H234 C207 0.929 . S
H235 C208 0.929 . S
H236 C213 0.930 . S
H237 C214 0.930 . S
H238 C216 0.929 . S
H239 C217 0.929 . S
H240 C252 0.930 . S
H241 C254 0.930 . S
H242 C255 0.930 1_554 S
H243 C259 0.959 . S
H244 C259 0.959 . S
H245 C259 0.961 . S
H246 C260 0.960 . S
H247 C260 0.961 . S
H248 C260 0.959 . S
H249 C263 0.929 . S
H250 C264 0.931 . S
H251 C266 0.930 . S
C252 H240 0.930 . S
C252 C253 1.399 . S
C252 C257 1.399 . S
C253 C252 1.399 . S
C253 C254 1.376 . S
C254 H241 0.930 . S
C254 C253 1.376 . S
C254 C255 1.388 . S
C255 H242 0.930 1_556 S
C255 C254 1.388 . S
C255 C256 1.390 . S
C256 C255 1.390 . S
C256 C257 1.394 . S
C256 C262 1.465 1_566 S
C257 C252 1.399 . S
C257 C256 1.394 . S
C257 C258 1.516 1_565 S
C258 C257 1.516 1_545 S
C258 C259 1.502 . S
C258 C260 1.561 . S
C258 C261 1.526 1_556 S
C259 H243 0.959 . S
C259 H244 0.959 . S
C259 H245 0.961 . S
C259 C258 1.502 . S
C260 H246 0.960 . S
C260 H247 0.961 . S
C260 H248 0.959 . S
C260 C258 1.561 . S
C261 C258 1.526 1_554 S
C261 C262 1.396 . S
C261 C266 1.390 . S
C262 C256 1.465 1_544 S
C262 C261 1.396 . S
C262 C263 1.399 1_545 S
C263 H249 0.929 . S
C263 C262 1.399 1_565 S
C263 C264 1.385 1_565 S
C264 H250 0.931 . S
C264 C263 1.385 1_545 S
C264 C265 1.389 . S
C265 C264 1.389 . S
C265 C266 1.387 . S
C266 H251 0.930 . S
C266 C261 1.390 . S
C266 C265 1.387 . S
H267 C279 0.930 . S
H268 C281 0.930 . S
H269 C282 0.930 . S
H270 C286 0.959 . S
H271 C286 0.959 . S
H272 C286 0.961 . S
H273 C287 0.960 . S
H274 C287 0.961 . S
H275 C287 0.959 . S
H276 C290 0.929 . S
H277 C291 0.931 . S
H278 C293 0.930 . S
C279 H267 0.930 . S
C279 C280 1.399 . S
C279 C284 1.399 . S
C280 C279 1.399 . S
C280 C281 1.376 . S
C281 H268 0.930 . S
C281 C280 1.376 . S
C281 C282 1.388 . S
C282 H269 0.930 . S
C282 C281 1.388 . S
C282 C283 1.390 . S
C283 C282 1.390 . S
C283 C284 1.394 . S
C283 C289 1.465 . S
C284 C279 1.399 . S
C284 C283 1.394 . S
C284 C285 1.516 . S
C285 C284 1.516 . S
C285 C286 1.502 . S
C285 C287 1.561 . S
C285 C288 1.526 . S
C286 H270 0.959 . S
C286 H271 0.959 . S
C286 H272 0.961 . S
C286 C285 1.502 . S
C287 H273 0.960 . S
C287 H274 0.961 . S
C287 H275 0.959 . S
C287 C285 1.561 . S
C288 C285 1.526 . S
C288 C289 1.396 . S
C288 C293 1.390 . S
C289 C283 1.465 . S
C289 C288 1.396 . S
C289 C290 1.399 . S
C290 H276 0.929 . S
C290 C289 1.399 . S
C290 C291 1.385 . S
C291 H277 0.931 . S
C291 C290 1.385 . S
C291 C292 1.389 . S
C292 C291 1.389 . S
C292 C293 1.387 . S
C293 H278 0.930 . S
C293 C288 1.390 . S
C293 C292 1.387 . S
H294 C306 0.930 . S
H295 C308 0.930 . S
H296 C309 0.930 . S
H297 C313 0.959 1_454 S
H298 C313 0.959 . S
H299 C313 0.961 1_554 S
H300 C314 0.960 . S
H301 C314 0.961 . S
H302 C314 0.959 . S
H303 C317 0.929 . S
H304 C318 0.931 . S
H305 C320 0.930 . S
C306 H294 0.930 . S
C306 C307 1.399 . S
C306 C311 1.399 . S
C307 C306 1.399 . S
C307 C308 1.376 . S
C308 H295 0.930 . S
C308 C307 1.376 . S
C308 C309 1.388 . S
C309 H296 0.930 . S
C309 C308 1.388 . S
C309 C310 1.390 . S
C310 C309 1.390 . S
C310 C311 1.394 . S
C310 C316 1.465 1_654 S
C311 C306 1.399 . S
C311 C310 1.394 . S
C311 C312 1.516 1_554 S
C312 C311 1.516 1_556 S
C312 C313 1.502 . S
C312 C314 1.561 . S
C312 C315 1.526 1_655 S
C313 H297 0.959 1_656 S
C313 H298 0.959 . S
C313 H299 0.961 1_556 S
C313 C312 1.502 . S
C314 H300 0.960 . S
C314 H301 0.961 . S
C314 H302 0.959 . S
C314 C312 1.561 . S
C315 C312 1.526 1_455 S
C315 C316 1.396 . S
C315 C320 1.390 . S
C316 C310 1.465 1_456 S
C316 C315 1.396 . S
C316 C317 1.399 . S
C317 H303 0.929 . S
C317 C316 1.399 . S
C317 C318 1.385 . S
C318 H304 0.931 . S
C318 C317 1.385 . S
C318 C319 1.389 . S
C319 C318 1.389 . S
C319 C320 1.387 . S
C320 H305 0.930 . S
C320 C315 1.390 . S
C320 C319 1.387 . S
H321 C333 0.930 . S
H322 C335 0.930 . S
H323 C336 0.930 . S
H324 C340 0.959 . S
H325 C340 0.959 1_565 S
H326 C340 0.961 . S
H327 C341 0.960 . S
H328 C341 0.961 . S
H329 C341 0.959 . S
H330 C344 0.929 . S
H331 C345 0.931 . S
H332 C347 0.930 . S
C333 H321 0.930 . S
C333 C334 1.399 . S
C333 C338 1.399 . S
C334 C333 1.399 . S
C334 C335 1.376 . S
C335 H322 0.930 . S
C335 C334 1.376 . S
C335 C336 1.388 . S
C336 H323 0.930 . S
C336 C335 1.388 . S
C336 C337 1.390 . S
C337 C336 1.390 . S
C337 C338 1.394 . S
C337 C343 1.465 1_545 S
C338 C333 1.399 . S
C338 C337 1.394 . S
C338 C339 1.516 1_545 S
C339 C338 1.516 1_565 S
C339 C340 1.502 1_565 S
C339 C341 1.561 . S
C339 C342 1.526 . S
C340 H324 0.959 . S
C340 H325 0.959 1_545 S
C340 H326 0.961 . S
C340 C339 1.502 1_545 S
C341 H327 0.960 . S
C341 H328 0.961 . S
C341 H329 0.959 . S
C341 C339 1.561 . S
C342 C339 1.526 . S
C342 C343 1.396 . S
C342 C347 1.390 . S
C343 C337 1.465 1_565 S
C343 C342 1.396 . S
C343 C344 1.399 . S
C344 H330 0.929 . S
C344 C343 1.399 . S
C344 C345 1.385 . S
C345 H331 0.931 . S
C345 C344 1.385 . S
C345 C346 1.389 . S
C346 C345 1.389 . S
C346 C347 1.387 . S
C347 H332 0.930 . S
C347 C342 1.390 . S
C347 C346 1.387 . S
H348 C360 0.930 . S
H349 C362 0.930 . S
H350 C363 0.932 . S
H351 C367 0.959 1_554 S
H352 C367 0.959 . S
H353 C367 0.961 . S
H354 C368 0.960 . S
H355 C368 0.961 . S
H356 C368 0.959 . S
H357 C371 0.929 . S
H358 C372 0.931 . S
H359 C374 0.930 . S
C360 H348 0.930 . S
C360 C361 1.399 . S
C360 C365 1.399 . S
C361 C360 1.399 . S
C361 C362 1.376 . S
C362 H349 0.930 . S
C362 C361 1.376 . S
C362 C363 1.388 . S
C363 H350 0.932 . S
C363 C362 1.388 . S
C363 C364 1.390 . S
C364 C363 1.390 . S
C364 C365 1.394 . S
C364 C370 1.465 1_556 S
C365 C360 1.399 . S
C365 C364 1.394 . S
C365 C366 1.516 . S
C366 C365 1.516 . S
C366 C367 1.502 . S
C366 C368 1.561 . S
C366 C369 1.526 1_556 S
C367 H351 0.959 1_556 S
C367 H352 0.959 . S
C367 H353 0.961 . S
C367 C366 1.502 . S
C368 H354 0.960 . S
C368 H355 0.961 . S
C368 H356 0.959 . S
C368 C366 1.561 . S
C369 C366 1.526 1_554 S
C369 C370 1.396 . S
C369 C374 1.390 . S
C370 C364 1.465 1_554 S
C370 C369 1.396 . S
C370 C371 1.399 . S
C371 H357 0.929 . S
C371 C370 1.399 . S
C371 C372 1.385 . S
C372 H358 0.931 . S
C372 C371 1.385 . S
C372 C373 1.389 . S
C373 C372 1.389 . S
C373 C374 1.387 . S
C374 H359 0.930 . S
C374 C369 1.390 . S
C374 C373 1.387 . S
H375 C387 0.930 . S
H376 C389 0.930 . S
H377 C390 0.930 . S
H378 C394 0.959 . S
H379 C394 0.959 . S
H380 C394 0.961 . S
H381 C395 0.960 . S
H382 C395 0.961 1_455 S
H383 C395 0.959 . S
H384 C398 0.929 . S
H385 C399 0.931 . S
H386 C401 0.930 . S
C387 H375 0.930 . S
C387 C388 1.399 . S
C387 C392 1.399 . S
C388 C387 1.399 . S
C388 C389 1.376 . S
C389 H376 0.930 . S
C389 C388 1.376 . S
C389 C390 1.388 . S
C390 H377 0.930 . S
C390 C389 1.388 . S
C390 C391 1.390 . S
C391 C390 1.390 . S
C391 C392 1.394 . S
C391 C397 1.465 1_655 S
C392 C387 1.399 . S
C392 C391 1.394 . S
C392 C393 1.516 1_655 S
C393 C392 1.516 1_455 S
C393 C394 1.502 . S
C393 C395 1.561 1_455 S
C393 C396 1.526 . S
C394 H378 0.959 . S
C394 H379 0.959 . S
C394 H380 0.961 . S
C394 C393 1.502 . S
C395 H381 0.960 . S
C395 H382 0.961 1_655 S
C395 H383 0.959 . S
C395 C393 1.561 1_655 S
C396 C393 1.526 . S
C396 C397 1.396 . S
C396 C401 1.390 . S
C397 C391 1.465 1_455 S
C397 C396 1.396 . S
C397 C398 1.399 . S
C398 H384 0.929 . S
C398 C397 1.399 . S
C398 C399 1.385 . S
C399 H385 0.931 . S
C399 C398 1.385 . S
C399 C400 1.389 . S
C400 C399 1.389 . S
C400 C401 1.387 . S
C401 H386 0.930 . S
C401 C396 1.390 . S
C401 C400 1.387 . S
H402 C414 0.930 . S
H403 C416 0.930 . S
H404 C417 0.930 . S
H405 C421 0.959 . S
H406 C421 0.959 . S
H407 C421 0.961 . S
H408 C422 0.960 . S
H409 C422 0.961 . S
H410 C422 0.959 . S
H411 C425 0.929 . S
H412 C426 0.931 . S
H413 C428 0.930 . S
C414 H402 0.930 . S
C414 C415 1.399 . S
C414 C419 1.399 . S
C415 C414 1.399 . S
C415 C416 1.376 . S
C416 H403 0.930 . S
C416 C415 1.376 . S
C416 C417 1.388 . S
C417 H404 0.930 . S
C417 C416 1.388 . S
C417 C418 1.390 . S
C418 C417 1.390 . S
C418 C419 1.394 . S
C418 C424 1.465 . S
C419 C414 1.399 . S
C419 C418 1.394 . S
C419 C420 1.516 . S
C420 C419 1.516 . S
C420 C421 1.502 . S
C420 C422 1.561 . S
C420 C423 1.526 . S
C421 H405 0.959 . S
C421 H406 0.959 . S
C421 H407 0.961 . S
C421 C420 1.502 . S
C422 H408 0.960 . S
C422 H409 0.961 . S
C422 H410 0.959 . S
C422 C420 1.561 . S
C423 C420 1.526 . S
C423 C424 1.396 . S
C423 C428 1.390 . S
C424 C418 1.465 . S
C424 C423 1.396 . S
C424 C425 1.399 . S
C425 H411 0.929 . S
C425 C424 1.399 . S
C425 C426 1.385 . S
C426 H412 0.931 . S
C426 C425 1.385 . S
C426 C427 1.389 . S
C427 C426 1.389 . S
C427 C428 1.387 . S
C428 H413 0.930 . S
C428 C423 1.390 . S
C428 C427 1.387 . S
H429 C441 0.930 . S
H430 C443 0.930 . S
H431 C444 0.930 . S
H432 C448 0.959 . S
H433 C448 0.959 . S
H434 C448 0.961 . S
H435 C449 0.960 . S
H436 C449 0.961 . S
H437 C449 0.959 . S
H438 C452 0.929 . S
H439 C453 0.931 . S
H440 C455 0.930 . S
C441 H429 0.930 . S
C441 C442 1.399 . S
C441 C446 1.399 . S
C442 C441 1.399 . S
C442 C443 1.376 . S
C443 H430 0.930 . S
C443 C442 1.376 . S
C443 C444 1.388 . S
C444 H431 0.930 . S
C444 C443 1.388 . S
C444 C445 1.390 . S
C445 C444 1.390 . S
C445 C446 1.394 . S
C445 C451 1.465 . S
C446 C441 1.399 . S
C446 C445 1.394 . S
C446 C447 1.516 . S
C447 C446 1.516 . S
C447 C448 1.502 . S
C447 C449 1.561 . S
C447 C450 1.526 . S
C448 H432 0.959 . S
C448 H433 0.959 . S
C448 H434 0.961 . S
C448 C447 1.502 . S
C449 H435 0.960 . S
C449 H436 0.961 . S
C449 H437 0.959 . S
C449 C447 1.561 . S
C450 C447 1.526 . S
C450 C451 1.396 . S
C450 C455 1.390 . S
C451 C445 1.465 . S
C451 C450 1.396 . S
C451 C452 1.399 . S
C452 H438 0.929 . S
C452 C451 1.399 . S
C452 C453 1.385 . S
C453 H439 0.931 . S
C453 C452 1.385 . S
C453 C454 1.389 . S
C454 C453 1.389 . S
C454 C455 1.387 . S
C455 H440 0.930 . S
C455 C450 1.390 . S
C455 C454 1.387 . S
H456 C468 0.930 . S
H457 C470 0.930 . S
H458 C471 0.930 . S
H459 C475 0.959 . S
H460 C475 0.959 . S
H461 C475 0.961 . S
H462 C476 0.960 . S
H463 C476 0.961 . S
H464 C476 0.959 . S
H465 C479 0.929 . S
H466 C480 0.931 . S
H467 C482 0.930 . S
C468 H456 0.930 . S
C468 C469 1.399 . S
C468 C473 1.399 . S
C469 C468 1.399 . S
C469 C470 1.376 . S
C470 H457 0.930 . S
C470 C469 1.376 . S
C470 C471 1.388 . S
C471 H458 0.930 . S
C471 C470 1.388 . S
C471 C472 1.390 . S
C472 C471 1.390 . S
C472 C473 1.394 . S
C472 C478 1.465 . S
C473 C468 1.399 . S
C473 C472 1.394 . S
C473 C474 1.516 . S
C474 C473 1.516 . S
C474 C475 1.502 . S
C474 C476 1.561 . S
C474 C477 1.526 . S
C475 H459 0.959 . S
C475 H460 0.959 . S
C475 H461 0.961 . S
C475 C474 1.502 . S
C476 H462 0.960 . S
C476 H463 0.961 . S
C476 H464 0.959 . S
C476 C474 1.561 . S
C477 C474 1.526 . S
C477 C478 1.396 . S
C477 C482 1.390 . S
C478 C472 1.465 . S
C478 C477 1.396 . S
C478 C479 1.399 . S
C479 H465 0.929 . S
C479 C478 1.399 . S
C479 C480 1.385 . S
C480 H466 0.931 . S
C480 C479 1.385 . S
C480 C481 1.389 . S
C481 C480 1.389 . S
C481 C482 1.387 . S
C482 H467 0.930 . S
C482 C477 1.390 . S
C482 C481 1.387 . S
H483 C495 0.930 . S
H484 C497 0.930 . S
H485 C498 0.930 . S
H486 C502 0.959 . S
H487 C502 0.959 . S
H488 C502 0.961 . S
H489 C503 0.960 . S
H490 C503 0.961 . S
H491 C503 0.959 . S
H492 C506 0.929 . S
H493 C507 0.931 . S
H494 C509 0.930 . S
C495 H483 0.930 . S
C495 C496 1.399 . S
C495 C500 1.399 . S
C496 C495 1.399 . S
C496 C497 1.376 . S
C497 H484 0.930 . S
C497 C496 1.376 . S
C497 C498 1.388 . S
C498 H485 0.930 . S
C498 C497 1.388 . S
C498 C499 1.390 . S
C499 C498 1.390 . S
C499 C500 1.394 . S
C499 C505 1.465 . S
C500 C495 1.399 . S
C500 C499 1.394 . S
C500 C501 1.516 . S
C501 C500 1.516 . S
C501 C502 1.502 . S
C501 C503 1.561 . S
C501 C504 1.526 . S
C502 H486 0.959 . S
C502 H487 0.959 . S
C502 H488 0.961 . S
C502 C501 1.502 . S
C503 H489 0.960 . S
C503 H490 0.961 . S
C503 H491 0.959 . S
C503 C501 1.561 . S
C504 C501 1.526 . S
C504 C505 1.396 . S
C504 C509 1.390 . S
C505 C499 1.465 . S
C505 C504 1.396 . S
C505 C506 1.399 . S
C506 H492 0.929 . S
C506 C505 1.399 . S
C506 C507 1.385 . S
C507 H493 0.931 . S
C507 C506 1.385 . S
C507 C508 1.389 . S
C508 C507 1.389 . S
C508 C509 1.387 . S
C509 H494 0.930 . S
C509 C504 1.390 . S
C509 C508 1.387 . S
H510 C522 0.930 . S
H511 C524 0.930 . S
H512 C525 0.930 . S
H513 C529 0.959 . S
H514 C529 0.959 . S
H515 C529 0.961 . S
H516 C530 0.960 . S
H517 C530 0.961 . S
H518 C530 0.959 . S
H519 C533 0.929 . S
H520 C534 0.931 . S
H521 C536 0.930 . S
C522 H510 0.930 . S
C522 C523 1.399 . S
C522 C527 1.399 . S
C523 C522 1.399 . S
C523 C524 1.376 . S
C524 H511 0.930 . S
C524 C523 1.376 . S
C524 C525 1.388 . S
C525 H512 0.930 . S
C525 C524 1.388 . S
C525 C526 1.390 . S
C526 C525 1.390 . S
C526 C527 1.394 . S
C526 C532 1.465 . S
C527 C522 1.399 . S
C527 C526 1.394 . S
C527 C528 1.516 . S
C528 C527 1.516 . S
C528 C529 1.502 . S
C528 C530 1.561 . S
C528 C531 1.526 . S
C529 H513 0.959 . S
C529 H514 0.959 . S
C529 H515 0.961 . S
C529 C528 1.502 . S
C530 H516 0.960 . S
C530 H517 0.961 . S
C530 H518 0.959 . S
C530 C528 1.561 . S
C531 C528 1.526 . S
C531 C532 1.396 . S
C531 C536 1.390 . S
C532 C526 1.465 . S
C532 C531 1.396 . S
C532 C533 1.399 . S
C533 H519 0.929 . S
C533 C532 1.399 . S
C533 C534 1.385 . S
C534 H520 0.931 . S
C534 C533 1.385 . S
C534 C535 1.389 . S
C535 C534 1.389 . S
C535 C536 1.387 . S
C536 H521 0.930 . S
C536 C531 1.390 . S
C536 C535 1.387 . S
H537 C549 0.930 . S
H538 C551 0.930 . S
H539 C552 0.930 . S
H540 C556 0.959 . S
H541 C556 0.959 . S
H542 C556 0.961 . S
H543 C557 0.960 . S
H544 C557 0.961 . S
H545 C557 0.959 . S
H546 C560 0.929 . S
H547 C561 0.931 . S
H548 C563 0.930 . S
C549 H537 0.930 . S
C549 C550 1.399 . S
C549 C554 1.399 . S
C550 C549 1.399 . S
C550 C551 1.376 . S
C551 H538 0.930 . S
C551 C550 1.376 . S
C551 C552 1.388 . S
C552 H539 0.930 . S
C552 C551 1.388 . S
C552 C553 1.390 . S
C553 C552 1.390 . S
C553 C554 1.394 . S
C553 C559 1.465 . S
C554 C549 1.399 . S
C554 C553 1.394 . S
C554 C555 1.516 . S
C555 C554 1.516 . S
C555 C556 1.502 . S
C555 C557 1.561 . S
C555 C558 1.526 . S
C556 H540 0.959 . S
C556 H541 0.959 . S
C556 H542 0.961 . S
C556 C555 1.502 . S
C557 H543 0.960 . S
C557 H544 0.961 . S
C557 H545 0.959 . S
C557 C555 1.561 . S
C558 C555 1.526 . S
C558 C559 1.396 . S
C558 C563 1.390 . S
C559 C553 1.465 . S
C559 C558 1.396 . S
C559 C560 1.399 . S
C560 H546 0.929 . S
C560 C559 1.399 . S
C560 C561 1.385 . S
C561 H547 0.931 . S
C561 C560 1.385 . S
C561 C562 1.389 . S
C562 C561 1.389 . S
C562 C563 1.387 . S
C563 H548 0.930 . S
C563 C558 1.390 . S
C563 C562 1.387 . S
H564 C576 0.930 . S
H565 C578 0.930 . S
H566 C579 0.930 . S
H567 C583 0.959 . S
H568 C583 0.959 . S
H569 C583 0.961 . S
H570 C584 0.960 . S
H571 C584 0.961 1_655 S
H572 C584 0.959 . S
H573 C587 0.929 . S
H574 C588 0.931 . S
H575 C590 0.930 . S
C576 H564 0.930 . S
C576 C577 1.399 . S
C576 C581 1.399 . S
C577 C576 1.399 . S
C577 C578 1.376 . S
C578 H565 0.930 . S
C578 C577 1.376 . S
C578 C579 1.388 . S
C579 H566 0.930 . S
C579 C578 1.388 . S
C579 C580 1.390 . S
C580 C579 1.390 . S
C580 C581 1.394 . S
C580 C586 1.465 . S
C581 C576 1.399 . S
C581 C580 1.394 . S
C581 C582 1.514 1_455 S
C582 C581 1.514 1_655 S
C582 C583 1.503 . S
C582 C584 1.561 1_655 S
C582 C585 1.527 1_655 S
C583 H567 0.959 . S
C583 H568 0.959 . S
C583 H569 0.961 . S
C583 C582 1.503 . S
C584 H570 0.960 . S
C584 H571 0.961 1_455 S
C584 H572 0.959 . S
C584 C582 1.561 1_455 S
C585 C582 1.527 1_455 S
C585 C586 1.396 . S
C585 C590 1.390 1_455 S
C586 C580 1.465 . S
C586 C585 1.396 . S
C586 C587 1.399 . S
C587 H573 0.929 . S
C587 C586 1.399 . S
C587 C588 1.385 . S
C588 H574 0.931 . S
C588 C587 1.385 . S
C588 C589 1.389 1_455 S
C589 C588 1.389 1_655 S
C589 C590 1.387 . S
C590 H575 0.930 . S
C590 C585 1.390 1_655 S
C590 C589 1.387 . S
H591 C603 0.930 . S
H592 C605 0.930 . S
H593 C606 0.930 . S
H594 C610 0.959 . S
H595 C610 0.959 . S
H596 C610 0.961 . S
H597 C611 0.960 . S
H598 C611 0.961 . S
H599 C611 0.987 . S
H600 C614 0.929 . S
H601 C615 0.931 . S
H602 C617 0.930 . S
C603 H591 0.930 . S
C603 C604 1.399 . S
C603 C608 1.399 . S
C604 C603 1.399 . S
C604 C605 1.376 . S
C605 H592 0.930 . S
C605 C604 1.376 . S
C605 C606 1.388 . S
C606 H593 0.930 . S
C606 C605 1.388 . S
C606 C607 1.390 . S
C607 C606 1.390 . S
C607 C608 1.394 . S
C607 C613 1.465 . S
C608 C603 1.399 . S
C608 C607 1.394 . S
C608 C609 1.516 . S
C609 C608 1.516 . S
C609 C610 1.502 . S
C609 C611 1.561 . S
C609 C612 1.526 . S
C610 H594 0.959 . S
C610 H595 0.959 . S
C610 H596 0.961 . S
C610 C609 1.502 . S
C611 H597 0.960 . S
C611 H598 0.961 . S
C611 H599 0.987 . S
C611 C609 1.561 . S
C612 C609 1.526 . S
C612 C613 1.396 . S
C612 C617 1.390 . S
C613 C607 1.465 . S
C613 C612 1.396 . S
C613 C614 1.399 1_565 S
C614 H600 0.929 . S
C614 C613 1.399 1_545 S
C614 C615 1.385 . S
C615 H601 0.931 . S
C615 C614 1.385 . S
C615 C616 1.389 . S
C616 C615 1.389 . S
C616 C617 1.387 1_545 S
C617 H602 0.930 . S
C617 C612 1.390 . S
C617 C616 1.387 1_565 S
H618 C630 0.930 . S
H619 C632 0.930 . S
H620 C633 0.930 . S
H621 C637 0.959 . S
H622 C637 0.959 . S
H623 C637 0.961 . S
H624 C638 0.960 . S
H625 C638 0.961 . S
H626 C638 0.959 . S
H627 C641 0.929 . S
H628 C642 0.931 . S
H629 C644 0.930 . S
C630 H618 0.930 . S
C630 C631 1.399 . S
C630 C635 1.399 . S
C631 C630 1.399 . S
C631 C632 1.376 . S
C632 H619 0.930 . S
C632 C631 1.376 . S
C632 C633 1.388 . S
C633 H620 0.930 . S
C633 C632 1.388 . S
C633 C634 1.390 . S
C634 C633 1.390 . S
C634 C635 1.394 . S
C634 C640 1.465 . S
C635 C630 1.399 . S
C635 C634 1.394 . S
C635 C636 1.516 . S
C636 C635 1.516 . S
C636 C637 1.502 . S
C636 C638 1.561 . S
C636 C639 1.526 . S
C637 H621 0.959 . S
C637 H622 0.959 . S
C637 H623 0.961 . S
C637 C636 1.502 . S
C638 H624 0.960 . S
C638 H625 0.961 . S
C638 H626 0.959 . S
C638 C636 1.561 . S
C639 C636 1.526 . S
C639 C640 1.396 . S
C639 C644 1.390 . S
C640 C634 1.465 . S
C640 C639 1.396 . S
C640 C641 1.399 . S
C641 H627 0.929 . S
C641 C640 1.399 . S
C641 C642 1.385 . S
C642 H628 0.931 . S
C642 C641 1.385 . S
C642 C643 1.389 . S
C643 C642 1.389 . S
C643 C644 1.387 . S
C644 H629 0.930 . S
C644 C639 1.390 . S
C644 C643 1.387 . S
H645 C657 0.930 . S
H646 C659 0.930 . S
H647 C660 0.930 . S
H648 C664 0.959 . S
H649 C664 0.959 . S
H650 C664 0.961 1_545 S
H651 C665 0.960 . S
H652 C665 0.961 . S
H653 C665 0.959 . S
H654 C668 0.929 . S
H655 C669 0.931 1_565 S
H656 C671 0.930 . S
C657 H645 0.930 . S
C657 C658 1.399 . S
C657 C662 1.399 . S
C658 C657 1.399 . S
C658 C659 1.376 . S
C659 H646 0.930 . S
C659 C658 1.376 . S
C659 C660 1.388 . S
C660 H647 0.930 . S
C660 C659 1.388 . S
C660 C661 1.390 . S
C661 C660 1.390 . S
C661 C662 1.394 . S
C661 C667 1.465 . S
C662 C657 1.399 . S
C662 C661 1.394 . S
C662 C663 1.516 . S
C663 C662 1.516 . S
C663 C664 1.502 1_545 S
C663 C665 1.561 . S
C663 C666 1.526 . S
C664 H648 0.959 . S
C664 H649 0.959 . S
C664 H650 0.961 1_565 S
C664 C663 1.502 1_565 S
C665 H651 0.960 . S
C665 H652 0.961 . S
C665 H653 0.959 . S
C665 C663 1.561 . S
C666 C663 1.526 . S
C666 C667 1.396 . S
C666 C671 1.390 1_545 S
C667 C661 1.465 . S
C667 C666 1.396 . S
C667 C668 1.399 . S
C668 H654 0.929 . S
C668 C667 1.399 . S
C668 C669 1.385 . S
C669 H655 0.931 1_545 S
C669 C668 1.385 . S
C669 C670 1.389 1_545 S
C670 C669 1.389 1_565 S
C670 C671 1.387 . S
C671 H656 0.930 . S
C671 C666 1.390 1_565 S
C671 C670 1.387 . S
H672 C684 0.930 . S
H673 C686 0.930 . S
H674 C687 0.930 . S
H675 C691 0.959 . S
H676 C691 0.959 . S
H677 C691 0.961 . S
H678 C692 0.960 . S
H679 C692 0.961 . S
H680 C692 0.959 . S
H681 C695 0.929 . S
H682 C696 0.931 . S
H683 C698 0.930 . S
C684 H672 0.930 . S
C684 C685 1.399 . S
C684 C689 1.399 . S
C685 C684 1.399 . S
C685 C686 1.376 . S
C686 H673 0.930 . S
C686 C685 1.376 . S
C686 C687 1.388 . S
C687 H674 0.930 . S
C687 C686 1.388 . S
C687 C688 1.390 . S
C688 C687 1.390 . S
C688 C689 1.394 . S
C688 C694 1.465 . S
C689 C684 1.399 . S
C689 C688 1.394 . S
C689 C690 1.516 . S
C690 C689 1.516 . S
C690 C691 1.502 . S
C690 C692 1.561 . S
C690 C693 1.526 . S
C691 H675 0.959 . S
C691 H676 0.959 . S
C691 H677 0.961 . S
C691 C690 1.502 . S
C692 H678 0.960 . S
C692 H679 0.961 . S
C692 H680 0.959 . S
C692 C690 1.561 . S
C693 C690 1.526 . S
C693 C694 1.396 . S
C693 C698 1.390 . S
C694 C688 1.465 . S
C694 C693 1.396 . S
C694 C695 1.399 . S
C695 H681 0.929 . S
C695 C694 1.399 . S
C695 C696 1.385 . S
C696 H682 0.931 . S
C696 C695 1.385 . S
C696 C697 1.389 . S
C697 C696 1.389 . S
C697 C698 1.387 . S
C698 H683 0.930 . S
C698 C693 1.390 . S
C698 C697 1.387 . S
H699 C711 0.930 . S
H700 C713 0.930 . S
H701 C714 0.930 . S
H702 C718 0.959 . S
H703 C718 0.959 . S
H704 C718 0.961 . S
H705 C719 0.960 . S
H706 C719 0.961 . S
H707 C719 0.959 . S
H708 C722 0.929 . S
H709 C723 0.931 . S
H710 C725 0.930 . S
C711 H699 0.930 . S
C711 C712 1.399 . S
C711 C716 1.399 1_455 S
C712 C711 1.399 . S
C712 C713 1.376 1_455 S
C713 H700 0.930 . S
C713 C712 1.376 1_655 S
C713 C714 1.388 . S
C714 H701 0.930 . S
C714 C713 1.388 . S
C714 C715 1.390 . S
C715 C714 1.390 . S
C715 C716 1.394 . S
C715 C721 1.465 . S
C716 C711 1.399 1_655 S
C716 C715 1.394 . S
C716 C717 1.516 . S
C717 C716 1.516 . S
C717 C718 1.502 . S
C717 C719 1.561 1_655 S
C717 C720 1.526 . S
C718 H702 0.959 . S
C718 H703 0.959 . S
C718 H704 0.961 . S
C718 C717 1.502 . S
C719 H705 0.960 . S
C719 H706 0.961 . S
C719 H707 0.959 . S
C719 C717 1.561 1_455 S
C720 C717 1.526 . S
C720 C721 1.396 . S
C720 C725 1.390 . S
C721 C715 1.465 . S
C721 C720 1.396 . S
C721 C722 1.399 . S
C722 H708 0.929 . S
C722 C721 1.399 . S
C722 C723 1.385 . S
C723 H709 0.931 . S
C723 C722 1.385 . S
C723 C724 1.389 . S
C724 C723 1.389 . S
C724 C725 1.387 . S
C725 H710 0.930 . S
C725 C720 1.390 . S
C725 C724 1.387 . S
C253 C178 2.349 . S
C265 C18 2.490 . S
C280 C209 2.486 . S
C292 C49 2.345 . S
C307 C98 2.531 . S
C319 C138 2.300 . S
C334 C9 2.273 . S
C346 C169 2.533 . S
C361 C218 2.335 . S
C373 C58 2.485 . S
C388 C89 2.348 . S
C400 C129 2.485 . S
C415 C6 1.872 . S
C427 C90 1.822 . S
C442 C46 1.909 . S
C454 C10 1.816 . S
C469 C86 1.886 . S
C481 C50 1.795 . S
C496 C135 1.878 . S
C508 C179 1.850 . S
C523 C175 1.892 . S
C535 C219 1.805 . S
C550 C139 1.814 . S
C562 C215 1.887 . S
C577 C15 1.129 . S
C589 C99 1.241 . S
C604 C55 1.235 1_455 S
C616 C19 1.222 . S
C631 C95 1.234 1_565 S
C643 C59 1.224 . S
C658 C126 1.158 . S
C670 C170 1.252 . S
C685 C166 1.149 1_655 S
C697 C210 1.256 . S
C712 C130 1.244 . S
C724 C206 1.176 1_545 S
