# Generated by pormake.
# Topology uka, (4)-cn, num edge types: 1
# Building blocks:
#     Node 0, Type 0, BuildingBlock: UXUYUI_clean_sbu_0, # of connection points: 4
#     Node 1, Type 0, BuildingBlock: UXUYUI_clean_sbu_0, # of connection points: 4
#     Node 2, Type 0, BuildingBlock: UXUYUI_clean_sbu_0, # of connection points: 4
#     Node 3, Type 0, BuildingBlock: UXUYUI_clean_sbu_0, # of connection points: 4
#     Node 4, Type 0, BuildingBlock: UXUYUI_clean_sbu_0, # of connection points: 4
#     Node 5, Type 0, BuildingBlock: UXUYUI_clean_sbu_0, # of connection points: 4
#     Node 6, Type 0, BuildingBlock: UXUYUI_clean_sbu_0, # of connection points: 4
#     Node 7, Type 0, BuildingBlock: UXUYUI_clean_sbu_0, # of connection points: 4
#     Node 8, Type 0, BuildingBlock: UXUYUI_clean_sbu_0, # of connection points: 4
#     Node 9, Type 0, BuildingBlock: UXUYUI_clean_sbu_0, # of connection points: 4
#     Node 10, Type 0, BuildingBlock: UXUYUI_clean_sbu_0, # of connection points: 4
#     Node 11, Type 0, BuildingBlock: UXUYUI_clean_sbu_0, # of connection points: 4
#     Node 12, Type 0, BuildingBlock: UXUYUI_clean_sbu_0, # of connection points: 4
#     Node 13, Type 0, BuildingBlock: UXUYUI_clean_sbu_0, # of connection points: 4
#     Node 14, Type 0, BuildingBlock: UXUYUI_clean_sbu_0, # of connection points: 4
#     Node 15, Type 0, BuildingBlock: UXUYUI_clean_sbu_0, # of connection points: 4
#     Node 16, Type 0, BuildingBlock: UXUYUI_clean_sbu_0, # of connection points: 4
#     Node 17, Type 0, BuildingBlock: UXUYUI_clean_sbu_0, # of connection points: 4
#     Node 18, Type 0, BuildingBlock: UXUYUI_clean_sbu_0, # of connection points: 4
#     Node 19, Type 0, BuildingBlock: UXUYUI_clean_sbu_0, # of connection points: 4
#     Node 20, Type 0, BuildingBlock: UXUYUI_clean_sbu_0, # of connection points: 4
#     Node 21, Type 0, BuildingBlock: UXUYUI_clean_sbu_0, # of connection points: 4
#     Node 22, Type 0, BuildingBlock: UXUYUI_clean_sbu_0, # of connection points: 4
#     Node 23, Type 0, BuildingBlock: UXUYUI_clean_sbu_0, # of connection points: 4
#     Node 24, Type 0, BuildingBlock: UXUYUI_clean_sbu_0, # of connection points: 4
#     Node 25, Type 0, BuildingBlock: UXUYUI_clean_sbu_0, # of connection points: 4
#     Node 26, Type 0, BuildingBlock: UXUYUI_clean_sbu_0, # of connection points: 4
#     Node 27, Type 0, BuildingBlock: UXUYUI_clean_sbu_0, # of connection points: 4
#     Node 28, Type 0, BuildingBlock: UXUYUI_clean_sbu_0, # of connection points: 4
#     Node 29, Type 0, BuildingBlock: UXUYUI_clean_sbu_0, # of connection points: 4
#     Node 30, Type 0, BuildingBlock: UXUYUI_clean_sbu_0, # of connection points: 4
#     Node 31, Type 0, BuildingBlock: UXUYUI_clean_sbu_0, # of connection points: 4
#     Edge 32, Type (0, 0), None
#     Edge 33, Type (0, 0), None
#     Edge 34, Type (0, 0), None
#     Edge 35, Type (0, 0), None
#     Edge 36, Type (0, 0), None
#     Edge 37, Type (0, 0), None
#     Edge 38, Type (0, 0), None
#     Edge 39, Type (0, 0), None
#     Edge 40, Type (0, 0), None
#     Edge 41, Type (0, 0), None
#     Edge 42, Type (0, 0), None
#     Edge 43, Type (0, 0), None
#     Edge 44, Type (0, 0), None
#     Edge 45, Type (0, 0), None
#     Edge 46, Type (0, 0), None
#     Edge 47, Type (0, 0), None
#     Edge 48, Type (0, 0), None
#     Edge 49, Type (0, 0), None
#     Edge 50, Type (0, 0), None
#     Edge 51, Type (0, 0), None
#     Edge 52, Type (0, 0), None
#     Edge 53, Type (0, 0), None
#     Edge 54, Type (0, 0), None
#     Edge 55, Type (0, 0), None
#     Edge 56, Type (0, 0), None
#     Edge 57, Type (0, 0), None
#     Edge 58, Type (0, 0), None
#     Edge 59, Type (0, 0), None
#     Edge 60, Type (0, 0), None
#     Edge 61, Type (0, 0), None
#     Edge 62, Type (0, 0), None
#     Edge 63, Type (0, 0), None
#     Edge 64, Type (0, 0), None
#     Edge 65, Type (0, 0), None
#     Edge 66, Type (0, 0), None
#     Edge 67, Type (0, 0), None
#     Edge 68, Type (0, 0), None
#     Edge 69, Type (0, 0), None
#     Edge 70, Type (0, 0), None
#     Edge 71, Type (0, 0), None
#     Edge 72, Type (0, 0), None
#     Edge 73, Type (0, 0), None
#     Edge 74, Type (0, 0), None
#     Edge 75, Type (0, 0), None
#     Edge 76, Type (0, 0), None
#     Edge 77, Type (0, 0), None
#     Edge 78, Type (0, 0), None
#     Edge 79, Type (0, 0), None
#     Edge 80, Type (0, 0), None
#     Edge 81, Type (0, 0), None
#     Edge 82, Type (0, 0), None
#     Edge 83, Type (0, 0), None
#     Edge 84, Type (0, 0), None
#     Edge 85, Type (0, 0), None
#     Edge 86, Type (0, 0), None
#     Edge 87, Type (0, 0), None
#     Edge 88, Type (0, 0), None
#     Edge 89, Type (0, 0), None
#     Edge 90, Type (0, 0), None
#     Edge 91, Type (0, 0), None
#     Edge 92, Type (0, 0), None
#     Edge 93, Type (0, 0), None
#     Edge 94, Type (0, 0), None
#     Edge 95, Type (0, 0), None
# Relax obj value: 0.353
# Max RMSD: 0.280
# Mean RMSD: 0.280
data_MOF--net-uka--node1-UXUYUI_clean_sbu_0--edge1-none
_symmetry_space_group_name_H-M    P1
_symmetry_Int_Tables_number       1
_symmetry_cell_setting            triclinic
loop_
_symmetry_equiv_pos_as_xyz
'x, y, z'
_cell_length_a     54.51754
_cell_length_b     54.508569
_cell_length_c     38.595643
_cell_angle_alpha  90.000015
_cell_angle_beta   90.000016
_cell_angle_gamma 90.0
loop_
_atom_site_label
_atom_site_type_symbol
_atom_site_fract_x
_atom_site_fract_y
_atom_site_fract_z
_atom_type_partial_charge
Li0 Li 0.10983 0.23455 0.2713 0.0
Li1 Li 0.11248 0.2751 0.29799 0.0
Li2 Li 0.10725 0.26986 0.23611 0.0
Li3 Li 0.14609 0.25891 0.26352 0.0
C4 C 0.0628 0.27117 0.2637 0.0
N5 N 0.02049 0.29453 0.24175 0.0
C6 C 0.05603 0.29379 0.27792 0.0
C7 C 0.04777 0.26029 0.23867 0.0
C8 C 0.03457 0.30526 0.26655 0.0
C9 C 0.02663 0.27251 0.22766 0.0
C10 C 0.14886 0.25033 0.33377 0.0
C11 C 0.17617 0.27727 0.3649 0.0
N12 N 0.1812 0.25883 0.38755 0.0
C13 C 0.15428 0.23166 0.35735 0.0
C14 C 0.15986 0.27335 0.33755 0.0
C15 C 0.17068 0.23631 0.38438 0.0
C16 C 0.11685 0.18714 0.29606 0.0
N17 N 0.09953 0.20272 0.28353 0.0
C18 C 0.06747 0.17859 0.30796 0.0
C19 C 0.07521 0.19842 0.28793 0.0
C20 C 0.085 0.16336 0.32392 0.0
C21 C 0.10993 0.16714 0.31645 0.0
H22 H 0.13608 0.19146 0.29272 0.0
H23 H 0.06195 0.21156 0.27849 0.0
C24 C 0.109 0.31687 0.34163 0.0
N25 N 0.1037 0.29266 0.33816 0.0
C26 C 0.09864 0.33032 0.36869 0.0
C27 C 0.07889 0.29326 0.38906 0.0
C28 C 0.08965 0.28055 0.36164 0.0
C29 C 0.08266 0.31865 0.39208 0.0
H30 H 0.12024 0.32594 0.32245 0.0
H31 H 0.08569 0.26128 0.35788 0.0
C32 C 0.12495 0.21821 0.21132 0.0
N33 N 0.11879 0.17317 0.17952 0.0
C34 C 0.14537 0.20417 0.20201 0.0
C35 C 0.10143 0.20954 0.20377 0.0
C36 C 0.14188 0.1814 0.18613 0.0
C37 C 0.09868 0.18667 0.18791 0.0
C38 C 0.14238 0.30686 0.23722 0.0
C39 C 0.15181 0.29664 0.20675 0.0
C40 C 0.14475 0.33204 0.24309 0.0
C41 C 0.16358 0.31181 0.18279 0.0
C42 C 0.15665 0.34659 0.21849 0.0
N43 N 0.16574 0.33626 0.1891 0.0
C44 C 0.08308 0.30784 0.20041 0.0
C45 C 0.09143 0.27301 0.16556 0.0
C46 C 0.07131 0.31947 0.17282 0.0
N47 N 0.09248 0.28489 0.1965 0.0
C48 C 0.08022 0.28417 0.13704 0.0
C49 C 0.06979 0.3076 0.14064 0.0
H50 H 0.08463 0.31707 0.22511 0.0
H51 H 0.09928 0.2549 0.16302 0.0
C52 C 0.1901 0.23346 0.26249 0.0
N53 N 0.1808 0.25656 0.26219 0.0
C54 C 0.21539 0.22968 0.26223 0.0
C55 C 0.22112 0.27364 0.26376 0.0
C56 C 0.19568 0.27655 0.26349 0.0
C57 C 0.23135 0.24994 0.26263 0.0
H58 H 0.17779 0.21792 0.26311 0.0
H59 H 0.18787 0.29473 0.26485 0.0
O60 O 0.0841 0.2599 0.27389 0.0
O61 O 0.13297 0.24593 0.30706 0.0
O62 O 0.12797 0.2406 0.22684 0.0
O63 O 0.13047 0.29252 0.26099 0.0
H64 H 0.06731 0.30268 0.29713 0.0
H65 H 0.05245 0.24275 0.22751 0.0
H66 H 0.02923 0.32282 0.27724 0.0
H67 H 0.01518 0.26456 0.20776 0.0
H68 H 0.18485 0.29497 0.3681 0.0
H69 H 0.1459 0.21374 0.35478 0.0
H70 H 0.15595 0.28801 0.31952 0.0
H71 H 0.17505 0.22202 0.40282 0.0
H72 H 0.04809 0.17665 0.31346 0.0
H73 H 0.12398 0.15579 0.32814 0.0
H74 H 0.1021 0.34985 0.37031 0.0
H75 H 0.0664 0.28364 0.40614 0.0
H76 H 0.16373 0.2109 0.20649 0.0
H77 H 0.08549 0.22029 0.21034 0.0
H78 H 0.15753 0.17033 0.17889 0.0
H79 H 0.08055 0.17968 0.18222 0.0
H80 H 0.15017 0.27724 0.20158 0.0
H81 H 0.13743 0.34029 0.26641 0.0
H82 H 0.171 0.30414 0.15915 0.0
H83 H 0.15863 0.36611 0.22273 0.0
H84 H 0.06379 0.33768 0.17643 0.0
H85 H 0.07938 0.27447 0.11257 0.0
H86 H 0.22228 0.21107 0.26117 0.0
H87 H 0.2326 0.28982 0.26513 0.0
Li88 Li 0.97365 0.86248 0.54808 0.0
Li89 Li 0.01419 0.85981 0.52139 0.0
Li90 Li 0.98984 0.89607 0.51358 0.0
Li91 Li 0.97888 0.85723 0.4862 0.0
C92 C 0.99842 0.89887 0.58383 0.0
N93 N 0.98993 0.93124 0.63758 0.0
C94 C 0.0171 0.9043 0.6074 0.0
C95 C 0.97541 0.90989 0.5876 0.0
C96 C 0.01244 0.92071 0.63441 0.0
C97 C 0.97149 0.92621 0.61493 0.0
C98 C 0.97755 0.81277 0.51384 0.0
C99 C 0.97619 0.77658 0.47784 0.0
N100 N 0.95417 0.77046 0.49193 0.0
C101 C 0.95493 0.80602 0.52807 0.0
C102 C 0.98842 0.79772 0.48882 0.0
C103 C 0.94345 0.78456 0.51672 0.0
C104 C 0.93189 0.85904 0.59174 0.0
N105 N 0.95609 0.85372 0.58825 0.0
C106 C 0.95549 0.82892 0.63916 0.0
C107 C 0.9682 0.83966 0.61174 0.0
C108 C 0.9301 0.8327 0.6422 0.0
C109 C 0.91844 0.84869 0.61881 0.0
H110 H 0.92283 0.87028 0.57256 0.0
H111 H 0.98746 0.83569 0.60797 0.0
C112 C 0.06159 0.86682 0.54614 0.0
N113 N 0.04601 0.8495 0.53362 0.0
C114 C 0.08158 0.85991 0.56653 0.0
C115 C 0.07014 0.81744 0.55805 0.0
C116 C 0.05031 0.82518 0.53803 0.0
C117 C 0.08536 0.83497 0.57401 0.0
H118 H 0.05728 0.88606 0.5428 0.0
H119 H 0.03716 0.81191 0.52859 0.0
C120 C 0.9419 0.89236 0.48728 0.0
N121 N 0.9125 0.91571 0.43915 0.0
C122 C 0.95211 0.90179 0.45682 0.0
C123 C 0.91671 0.89473 0.49316 0.0
C124 C 0.93694 0.91355 0.43284 0.0
C125 C 0.90217 0.90663 0.46854 0.0
C126 C 0.03053 0.87489 0.46139 0.0
C127 C 0.04458 0.8953 0.45208 0.0
C128 C 0.03918 0.85136 0.45386 0.0
C129 C 0.06734 0.89179 0.4362 0.0
C130 C 0.06204 0.84858 0.438 0.0
N131 N 0.07555 0.86869 0.42961 0.0
C132 C 0.01529 0.9401 0.51251 0.0
C133 C 0.97221 0.94568 0.51351 0.0
C134 C 0.01907 0.96539 0.51223 0.0
N135 N 0.99219 0.9308 0.51222 0.0
C136 C 0.97512 0.97112 0.51376 0.0
C137 C 0.99881 0.98134 0.51262 0.0
H138 H 0.03083 0.92778 0.51313 0.0
H139 H 0.95403 0.93787 0.51488 0.0
C140 C 0.9409 0.83304 0.45052 0.0
N141 N 0.96385 0.84244 0.4466 0.0
C142 C 0.92927 0.82127 0.42292 0.0
C143 C 0.96456 0.83017 0.38714 0.0
C144 C 0.97572 0.84139 0.41566 0.0
C145 C 0.94113 0.81975 0.39074 0.0
H146 H 0.93167 0.8346 0.47522 0.0
H147 H 0.99383 0.84924 0.41311 0.0
O148 O 0.00282 0.88297 0.55713 0.0
O149 O 0.98884 0.83408 0.524 0.0
O150 O 0.95623 0.88046 0.51107 0.0
O151 O 0.00814 0.87794 0.47691 0.0
H152 H 0.03501 0.89591 0.60484 0.0
H153 H 0.96075 0.90597 0.56957 0.0
H154 H 0.02673 0.92509 0.65285 0.0
H155 H 0.9538 0.9349 0.61812 0.0
H156 H 0.98413 0.76511 0.45795 0.0
H157 H 0.94605 0.81733 0.54726 0.0
H158 H 0.00596 0.80239 0.47765 0.0
H159 H 0.9259 0.77924 0.52742 0.0
H160 H 0.96509 0.81642 0.65625 0.0
H161 H 0.89891 0.85217 0.62043 0.0
H162 H 0.09294 0.87396 0.57822 0.0
H163 H 0.07207 0.79806 0.56356 0.0
H164 H 0.97151 0.90014 0.45165 0.0
H165 H 0.90847 0.88742 0.51647 0.0
H166 H 0.94461 0.92096 0.4092 0.0
H167 H 0.88265 0.9086 0.47279 0.0
H168 H 0.03787 0.91368 0.45655 0.0
H169 H 0.02841 0.83543 0.46043 0.0
H170 H 0.07842 0.90743 0.42896 0.0
H171 H 0.06902 0.83045 0.43232 0.0
H172 H 0.03767 0.97227 0.51116 0.0
H173 H 0.95895 0.9826 0.51513 0.0
H174 H 0.91106 0.81376 0.42654 0.0
H175 H 0.97426 0.82934 0.36267 0.0
Li176 Li 0.38892 0.76421 0.77129 0.0
Li177 Li 0.38628 0.72366 0.79798 0.0
Li178 Li 0.3915 0.7289 0.7361 0.0
Li179 Li 0.35267 0.73985 0.76352 0.0
C180 C 0.43596 0.72759 0.76368 0.0
N181 N 0.47826 0.70424 0.74171 0.0
C182 C 0.44274 0.70497 0.7779 0.0
C183 C 0.45099 0.73847 0.73864 0.0
C184 C 0.46419 0.6935 0.76652 0.0
C185 C 0.47212 0.72626 0.72762 0.0
C186 C 0.34991 0.74842 0.83377 0.0
C187 C 0.3226 0.72148 0.8649 0.0
N188 N 0.31757 0.73992 0.88756 0.0
C189 C 0.34449 0.7671 0.85735 0.0
C190 C 0.3389 0.72541 0.83755 0.0
C191 C 0.32809 0.76244 0.88438 0.0
C192 C 0.3819 0.81162 0.79605 0.0
N193 N 0.39922 0.79604 0.78352 0.0
C194 C 0.43128 0.82017 0.80795 0.0
C195 C 0.42354 0.80034 0.78792 0.0
C196 C 0.41375 0.8354 0.82391 0.0
C197 C 0.38882 0.83162 0.81644 0.0
H198 H 0.36267 0.8073 0.79271 0.0
H199 H 0.43681 0.7872 0.77848 0.0
C200 C 0.38977 0.68189 0.84162 0.0
N201 N 0.39507 0.7061 0.83814 0.0
C202 C 0.40014 0.66844 0.86868 0.0
C203 C 0.41988 0.7055 0.88904 0.0
C204 C 0.40912 0.71822 0.86163 0.0
C205 C 0.41612 0.68011 0.89207 0.0
H206 H 0.37853 0.67282 0.82243 0.0
H207 H 0.41307 0.73749 0.85787 0.0
C208 C 0.3738 0.78055 0.71131 0.0
N209 N 0.37994 0.82559 0.67951 0.0
C210 C 0.35337 0.79458 0.70201 0.0
C211 C 0.39731 0.78923 0.70376 0.0
C212 C 0.35686 0.81735 0.68612 0.0
C213 C 0.40006 0.81209 0.6879 0.0
C214 C 0.35638 0.6919 0.73721 0.0
C215 C 0.34694 0.70212 0.70675 0.0
C216 C 0.35401 0.66671 0.74309 0.0
C217 C 0.33517 0.68695 0.68279 0.0
C218 C 0.34211 0.65216 0.71849 0.0
N219 N 0.33301 0.6625 0.6891 0.0
C220 C 0.41567 0.69092 0.7004 0.0
C221 C 0.40732 0.72575 0.66555 0.0
C222 C 0.42744 0.67929 0.6728 0.0
N223 N 0.40628 0.71387 0.69649 0.0
C224 C 0.41853 0.71459 0.63702 0.0
C225 C 0.42896 0.69116 0.64062 0.0
H226 H 0.41412 0.68169 0.7251 0.0
H227 H 0.39947 0.74386 0.66301 0.0
C228 C 0.30865 0.7653 0.76249 0.0
N229 N 0.31795 0.74219 0.76219 0.0
C230 C 0.28336 0.76907 0.76223 0.0
C231 C 0.27764 0.72511 0.76377 0.0
C232 C 0.30308 0.72221 0.76349 0.0
C233 C 0.26741 0.74881 0.76264 0.0
H234 H 0.32096 0.78083 0.76311 0.0
H235 H 0.31089 0.70402 0.76485 0.0
O236 O 0.41466 0.73886 0.77387 0.0
O237 O 0.36579 0.75283 0.80705 0.0
O238 O 0.37078 0.75816 0.72683 0.0
O239 O 0.36829 0.70623 0.76099 0.0
H240 H 0.43146 0.69609 0.79711 0.0
H241 H 0.4463 0.75601 0.72748 0.0
H242 H 0.46954 0.67595 0.77721 0.0
H243 H 0.48356 0.73421 0.70771 0.0
H244 H 0.31392 0.70378 0.8681 0.0
H245 H 0.35286 0.78502 0.85477 0.0
H246 H 0.34281 0.71074 0.81952 0.0
H247 H 0.32372 0.77673 0.90282 0.0
H248 H 0.45066 0.82211 0.81345 0.0
H249 H 0.37477 0.84297 0.82813 0.0
H250 H 0.39668 0.64891 0.87029 0.0
H251 H 0.43237 0.71512 0.90613 0.0
H252 H 0.33501 0.78785 0.70649 0.0
H253 H 0.41326 0.77848 0.71032 0.0
H254 H 0.3412 0.82842 0.67888 0.0
H255 H 0.41819 0.81909 0.68221 0.0
H256 H 0.34859 0.72151 0.70158 0.0
H257 H 0.36133 0.65847 0.7664 0.0
H258 H 0.32775 0.69462 0.65915 0.0
H259 H 0.34013 0.63265 0.72274 0.0
H260 H 0.43496 0.66108 0.67641 0.0
H261 H 0.41937 0.72429 0.61256 0.0
H262 H 0.27648 0.78768 0.76118 0.0
H263 H 0.26616 0.70893 0.76514 0.0
Li264 Li 0.48458 0.13895 0.02138 0.0
Li265 Li 0.52512 0.13628 0.04807 0.0
Li266 Li 0.51989 0.14154 0.9862 0.0
Li267 Li 0.50893 0.10269 0.01358 0.0
C268 C 0.52122 0.18599 0.01383 0.0
N269 N 0.5446 0.2283 0.99194 0.0
C270 C 0.54384 0.19274 0.02806 0.0
C271 C 0.51035 0.20105 0.98883 0.0
C272 C 0.55532 0.2142 0.01672 0.0
C273 C 0.52258 0.22219 0.97785 0.0
C274 C 0.50035 0.09989 0.08382 0.0
C275 C 0.52728 0.07255 0.11493 0.0
N276 N 0.50884 0.06752 0.13758 0.0
C277 C 0.48168 0.09447 0.1074 0.0
C278 C 0.52336 0.08887 0.08759 0.0
C279 C 0.48633 0.07805 0.13441 0.0
C280 C 0.43718 0.13194 0.04614 0.0
N281 N 0.45276 0.14926 0.03362 0.0
C282 C 0.42863 0.18132 0.05805 0.0
C283 C 0.44847 0.17358 0.03803 0.0
C284 C 0.4134 0.16379 0.074 0.0
C285 C 0.41718 0.13885 0.06653 0.0
H286 H 0.4415 0.11271 0.04279 0.0
H287 H 0.46161 0.18685 0.0286 0.0
C288 C 0.56688 0.13972 0.09174 0.0
N289 N 0.54268 0.14504 0.08825 0.0
C290 C 0.58033 0.15007 0.11881 0.0
C291 C 0.54328 0.16984 0.13916 0.0
C292 C 0.53057 0.1591 0.11174 0.0
C293 C 0.56867 0.16606 0.1422 0.0
H294 H 0.57594 0.12848 0.07256 0.0
H295 H 0.51131 0.16307 0.10797 0.0
C296 C 0.46824 0.12388 0.96139 0.0
N297 N 0.42322 0.13008 0.92961 0.0
C298 C 0.45419 0.10347 0.95208 0.0
C299 C 0.45959 0.1474 0.95386 0.0
C300 C 0.43142 0.10698 0.9362 0.0
C301 C 0.43673 0.15018 0.938 0.0
C302 C 0.55687 0.1064 0.98728 0.0
C303 C 0.54666 0.09697 0.95681 0.0
C304 C 0.58205 0.10402 0.99316 0.0
C305 C 0.56182 0.08521 0.93284 0.0
C306 C 0.5966 0.09213 0.96854 0.0
N307 N 0.58627 0.08304 0.93915 0.0
C308 C 0.55787 0.16572 0.95052 0.0
C309 C 0.52305 0.15738 0.91566 0.0
C310 C 0.5695 0.17749 0.92292 0.0
N311 N 0.53493 0.15633 0.9466 0.0
C312 C 0.53421 0.16859 0.88713 0.0
C313 C 0.55764 0.17901 0.89074 0.0
H314 H 0.5671 0.16416 0.97522 0.0
H315 H 0.50494 0.14952 0.91311 0.0
C316 C 0.48347 0.05867 0.0125 0.0
N317 N 0.50658 0.06797 0.01221 0.0
C318 C 0.4797 0.03338 0.01222 0.0
C319 C 0.52365 0.02764 0.01375 0.0
C320 C 0.52655 0.05308 0.0135 0.0
C321 C 0.49995 0.01742 0.01261 0.0
H322 H 0.46794 0.07099 0.01313 0.0
H323 H 0.54474 0.06089 0.01488 0.0
O324 O 0.50994 0.16468 0.024 0.0
O325 O 0.49595 0.1158 0.05712 0.0
O326 O 0.49063 0.12083 0.97691 0.0
O327 O 0.54254 0.11831 0.01107 0.0
H328 H 0.55272 0.18143 0.04725 0.0
H329 H 0.49281 0.19638 0.97766 0.0
H330 H 0.57288 0.21952 0.02741 0.0
H331 H 0.51464 0.23366 0.95796 0.0
H332 H 0.54497 0.06386 0.11812 0.0
H333 H 0.46377 0.10285 0.10483 0.0
H334 H 0.53802 0.09279 0.06956 0.0
H335 H 0.47204 0.07367 0.15285 0.0
H336 H 0.4267 0.2007 0.06357 0.0
H337 H 0.40583 0.1248 0.0782 0.0
H338 H 0.59986 0.14659 0.12043 0.0
H339 H 0.53368 0.18234 0.15625 0.0
H340 H 0.4609 0.08509 0.95655 0.0
H341 H 0.47036 0.16334 0.96043 0.0
H342 H 0.42034 0.09134 0.92896 0.0
H343 H 0.42976 0.16832 0.93232 0.0
H344 H 0.52726 0.09863 0.95164 0.0
H345 H 0.5903 0.11133 0.01647 0.0
H346 H 0.55415 0.0778 0.9092 0.0
H347 H 0.61611 0.09015 0.97279 0.0
H348 H 0.58772 0.185 0.92654 0.0
H349 H 0.52451 0.16942 0.86267 0.0
H350 H 0.46109 0.0265 0.01116 0.0
H351 H 0.53982 0.01616 0.01512 0.0
Li352 Li 0.10725 0.7289 0.26553 0.0
Li353 Li 0.14609 0.73985 0.23812 0.0
Li354 Li 0.10983 0.76421 0.23034 0.0
Li355 Li 0.11248 0.72367 0.20366 0.0
C356 C 0.12494 0.78056 0.29033 0.0
N357 N 0.11879 0.82559 0.32212 0.0
C358 C 0.14536 0.79459 0.29963 0.0
C359 C 0.10143 0.78922 0.29787 0.0
C360 C 0.14187 0.81736 0.31551 0.0
C361 C 0.09867 0.81209 0.31373 0.0
C362 C 0.14237 0.6919 0.26443 0.0
C363 C 0.15665 0.65217 0.28316 0.0
N364 N 0.16574 0.6625 0.31255 0.0
C365 C 0.15181 0.70212 0.29489 0.0
C366 C 0.14475 0.66672 0.25855 0.0
C367 C 0.16358 0.68695 0.31886 0.0
C368 C 0.08308 0.69092 0.30123 0.0
N369 N 0.09247 0.71387 0.30514 0.0
C370 C 0.08022 0.71459 0.36461 0.0
C371 C 0.09143 0.72575 0.33608 0.0
C372 C 0.06979 0.69116 0.361 0.0
C373 C 0.07131 0.6793 0.32883 0.0
H374 H 0.08463 0.68169 0.27653 0.0
H375 H 0.09928 0.74386 0.33863 0.0
C376 C 0.1901 0.76531 0.23916 0.0
N377 N 0.1808 0.7422 0.23946 0.0
C378 C 0.21539 0.76908 0.23942 0.0
C379 C 0.22112 0.72512 0.23789 0.0
C380 C 0.19568 0.72222 0.23816 0.0
C381 C 0.23134 0.74882 0.23902 0.0
H382 H 0.17779 0.78084 0.23854 0.0
H383 H 0.18787 0.70403 0.23679 0.0
C384 C 0.06279 0.72759 0.23794 0.0
N385 N 0.02049 0.70423 0.25989 0.0
C386 C 0.05602 0.70497 0.22372 0.0
C387 C 0.04776 0.73847 0.26297 0.0
C388 C 0.03457 0.6935 0.23509 0.0
C389 C 0.02663 0.72625 0.27398 0.0
C390 C 0.14886 0.74843 0.16787 0.0
C391 C 0.15427 0.76711 0.14429 0.0
C392 C 0.15986 0.72542 0.16409 0.0
C393 C 0.17068 0.76245 0.11727 0.0
C394 C 0.17617 0.72149 0.13674 0.0
N395 N 0.1812 0.73993 0.11409 0.0
C396 C 0.11685 0.81162 0.20558 0.0
C397 C 0.07521 0.80034 0.21371 0.0
C398 C 0.10993 0.83162 0.18519 0.0
N399 N 0.09953 0.79605 0.21811 0.0
C400 C 0.06747 0.82017 0.19368 0.0
C401 C 0.085 0.8354 0.17772 0.0
H402 H 0.13608 0.80731 0.20892 0.0
H403 H 0.06194 0.7872 0.22315 0.0
C404 C 0.109 0.68189 0.16001 0.0
N405 N 0.1037 0.70611 0.16349 0.0
C406 C 0.09864 0.66845 0.13295 0.0
C407 C 0.07889 0.7055 0.11259 0.0
C408 C 0.08964 0.71822 0.14 0.0
C409 C 0.08266 0.68011 0.10956 0.0
H410 H 0.12024 0.67283 0.1792 0.0
H411 H 0.08569 0.73749 0.14376 0.0
O412 O 0.12797 0.75816 0.2748 0.0
O413 O 0.13046 0.70624 0.24065 0.0
O414 O 0.0841 0.73886 0.22775 0.0
O415 O 0.13296 0.75283 0.19459 0.0
H416 H 0.16373 0.78787 0.29515 0.0
H417 H 0.08549 0.77847 0.29131 0.0
H418 H 0.15752 0.82843 0.32275 0.0
H419 H 0.08054 0.81908 0.31942 0.0
H420 H 0.15862 0.63265 0.27891 0.0
H421 H 0.15016 0.72152 0.30006 0.0
H422 H 0.13743 0.65848 0.23524 0.0
H423 H 0.17099 0.69462 0.34249 0.0
H424 H 0.07938 0.72429 0.38907 0.0
H425 H 0.06379 0.66108 0.32521 0.0
H426 H 0.22227 0.78769 0.24048 0.0
H427 H 0.2326 0.70895 0.23651 0.0
H428 H 0.06731 0.69608 0.20452 0.0
H429 H 0.05245 0.75601 0.27413 0.0
H430 H 0.02923 0.67595 0.2244 0.0
H431 H 0.01518 0.7342 0.29388 0.0
H432 H 0.1459 0.78502 0.14687 0.0
H433 H 0.15595 0.71075 0.18213 0.0
H434 H 0.17505 0.77674 0.09883 0.0
H435 H 0.18485 0.70379 0.13355 0.0
H436 H 0.12398 0.84297 0.1735 0.0
H437 H 0.04809 0.82211 0.18818 0.0
H438 H 0.1021 0.64891 0.13134 0.0
H439 H 0.0664 0.71512 0.0955 0.0
Li440 Li 0.50893 0.89607 0.48807 0.0
Li441 Li 0.51989 0.85722 0.51545 0.0
Li442 Li 0.52513 0.86247 0.45358 0.0
Li443 Li 0.48459 0.85981 0.48026 0.0
C444 C 0.55688 0.89236 0.51437 0.0
N445 N 0.58627 0.91572 0.5625 0.0
C446 C 0.54666 0.90179 0.54484 0.0
C447 C 0.58206 0.89474 0.50849 0.0
C448 C 0.56182 0.91355 0.56881 0.0
C449 C 0.5966 0.90663 0.53311 0.0
C450 C 0.46824 0.87488 0.54025 0.0
C451 C 0.43673 0.84857 0.56364 0.0
N452 N 0.42321 0.86868 0.57203 0.0
C453 C 0.45419 0.89529 0.54956 0.0
C454 C 0.4596 0.85135 0.54779 0.0
C455 C 0.43142 0.89177 0.56543 0.0
C456 C 0.48348 0.94009 0.48914 0.0
N457 N 0.50658 0.93079 0.48943 0.0
C458 C 0.52365 0.97112 0.48789 0.0
C459 C 0.52656 0.94567 0.48814 0.0
C460 C 0.49995 0.98134 0.48903 0.0
C461 C 0.4797 0.96538 0.48942 0.0
H462 H 0.46794 0.92777 0.48851 0.0
H463 H 0.54474 0.93787 0.48677 0.0
C464 C 0.55787 0.83304 0.55114 0.0
N465 N 0.53493 0.84244 0.55505 0.0
C466 C 0.5695 0.82127 0.57873 0.0
C467 C 0.53421 0.83017 0.61452 0.0
C468 C 0.52305 0.84138 0.58599 0.0
C469 C 0.55764 0.81975 0.61091 0.0
H470 H 0.5671 0.8346 0.52644 0.0
H471 H 0.50494 0.84924 0.58854 0.0
C472 C 0.50036 0.89887 0.41782 0.0
N473 N 0.50884 0.93124 0.36406 0.0
C474 C 0.48168 0.90429 0.39425 0.0
C475 C 0.52336 0.90988 0.41405 0.0
C476 C 0.48633 0.92071 0.36723 0.0
C477 C 0.52728 0.92621 0.38672 0.0
C478 C 0.52123 0.81277 0.48782 0.0
C479 C 0.54385 0.80602 0.47359 0.0
C480 C 0.51036 0.79771 0.51282 0.0
C481 C 0.55533 0.78456 0.48493 0.0
C482 C 0.52258 0.77657 0.52381 0.0
N483 N 0.5446 0.77046 0.50972 0.0
C484 C 0.56688 0.85904 0.40991 0.0
C485 C 0.53058 0.83966 0.38991 0.0
C486 C 0.58033 0.84869 0.38284 0.0
N487 N 0.54268 0.85372 0.4134 0.0
C488 C 0.54329 0.82891 0.36249 0.0
C489 C 0.56867 0.8327 0.35945 0.0
H490 H 0.57595 0.87028 0.42909 0.0
H491 H 0.51131 0.83569 0.39368 0.0
C492 C 0.43718 0.86682 0.45551 0.0
N493 N 0.45276 0.8495 0.46802 0.0
C494 C 0.41719 0.8599 0.43511 0.0
C495 C 0.42864 0.81744 0.44359 0.0
C496 C 0.44847 0.82518 0.46361 0.0
C497 C 0.41341 0.83497 0.42764 0.0
H498 H 0.4415 0.88605 0.45885 0.0
H499 H 0.46161 0.81191 0.47305 0.0
O500 O 0.54255 0.88045 0.49058 0.0
O501 O 0.49063 0.87793 0.52474 0.0
O502 O 0.49596 0.88296 0.44452 0.0
O503 O 0.50994 0.83408 0.47765 0.0
H504 H 0.52727 0.90013 0.55001 0.0
H505 H 0.5903 0.88743 0.48518 0.0
H506 H 0.55415 0.92096 0.59245 0.0
H507 H 0.61612 0.90861 0.52886 0.0
H508 H 0.42976 0.83043 0.56932 0.0
H509 H 0.4609 0.91367 0.54509 0.0
H510 H 0.47037 0.83542 0.54122 0.0
H511 H 0.42034 0.90742 0.57268 0.0
H512 H 0.53982 0.9826 0.48652 0.0
H513 H 0.46109 0.97226 0.49048 0.0
H514 H 0.58772 0.81376 0.57512 0.0
H515 H 0.52451 0.82934 0.63898 0.0
H516 H 0.46377 0.89591 0.39681 0.0
H517 H 0.53803 0.90597 0.43208 0.0
H518 H 0.47204 0.92508 0.34879 0.0
H519 H 0.54498 0.93489 0.38353 0.0
H520 H 0.55273 0.81733 0.45441 0.0
H521 H 0.49281 0.80238 0.52399 0.0
H522 H 0.57288 0.77924 0.47424 0.0
H523 H 0.51464 0.7651 0.54369 0.0
H524 H 0.59986 0.85216 0.38122 0.0
H525 H 0.53368 0.81641 0.34541 0.0
H526 H 0.40583 0.87395 0.42343 0.0
H527 H 0.4267 0.79805 0.43807 0.0
Li528 Li 0.35267 0.25891 0.73811 0.0
Li529 Li 0.3915 0.26986 0.76553 0.0
Li530 Li 0.38628 0.2751 0.70365 0.0
Li531 Li 0.38892 0.23455 0.73034 0.0
C532 C 0.35638 0.30686 0.76442 0.0
N533 N 0.33301 0.33627 0.81253 0.0
C534 C 0.34694 0.29665 0.79488 0.0
C535 C 0.35401 0.33205 0.75854 0.0
C536 C 0.33517 0.31182 0.81885 0.0
C537 C 0.34211 0.3466 0.78315 0.0
C538 C 0.3738 0.21821 0.79032 0.0
C539 C 0.40007 0.18667 0.81373 0.0
N540 N 0.37995 0.17317 0.82211 0.0
C541 C 0.35338 0.20418 0.79962 0.0
C542 C 0.39731 0.20954 0.79787 0.0
C543 C 0.35687 0.1814 0.8155 0.0
C544 C 0.30865 0.23347 0.73914 0.0
N545 N 0.31795 0.25657 0.73944 0.0
C546 C 0.27764 0.27365 0.73788 0.0
C547 C 0.30307 0.27655 0.73815 0.0
C548 C 0.26741 0.24995 0.739 0.0
C549 C 0.28336 0.22969 0.7394 0.0
H550 H 0.32096 0.21793 0.73852 0.0
H551 H 0.31088 0.29474 0.73679 0.0
C552 C 0.41567 0.30784 0.80123 0.0
N553 N 0.40628 0.28489 0.80514 0.0
C554 C 0.42745 0.31947 0.82883 0.0
C555 C 0.41853 0.28417 0.8646 0.0
C556 C 0.40732 0.27302 0.83608 0.0
C557 C 0.42896 0.3076 0.861 0.0
H558 H 0.41412 0.31707 0.77653 0.0
H559 H 0.39947 0.2549 0.83862 0.0
C560 C 0.3499 0.25034 0.66786 0.0
N561 N 0.31756 0.25884 0.61408 0.0
C562 C 0.34448 0.23166 0.64428 0.0
C563 C 0.3389 0.27335 0.66408 0.0
C564 C 0.32808 0.23632 0.61725 0.0
C565 C 0.32259 0.27728 0.63673 0.0
C566 C 0.43596 0.27117 0.73794 0.0
C567 C 0.44273 0.29379 0.72373 0.0
C568 C 0.45099 0.26029 0.76297 0.0
C569 C 0.46419 0.30526 0.7351 0.0
C570 C 0.47213 0.2725 0.77399 0.0
N571 N 0.47826 0.29452 0.7599 0.0
C572 C 0.38977 0.31687 0.66001 0.0
C573 C 0.40912 0.28055 0.64 0.0
C574 C 0.40013 0.33032 0.63295 0.0
N575 N 0.39506 0.29266 0.66348 0.0
C576 C 0.41987 0.29326 0.61259 0.0
C577 C 0.41611 0.31865 0.60956 0.0
H578 H 0.37853 0.32594 0.67919 0.0
H579 H 0.41306 0.26128 0.64376 0.0
C580 C 0.3819 0.18714 0.70558 0.0
N581 N 0.39922 0.20272 0.71811 0.0
C582 C 0.38881 0.16715 0.68518 0.0
C583 C 0.43127 0.17859 0.69368 0.0
C584 C 0.42354 0.19842 0.71371 0.0
C585 C 0.41375 0.16336 0.67772 0.0
H586 H 0.36267 0.19146 0.70891 0.0
H587 H 0.43681 0.21156 0.72315 0.0
O588 O 0.36829 0.29253 0.74064 0.0
O589 O 0.37078 0.2406 0.7748 0.0
O590 O 0.36579 0.24593 0.69458 0.0
O591 O 0.41466 0.2599 0.72775 0.0
H592 H 0.34859 0.27725 0.80005 0.0
H593 H 0.36132 0.34029 0.73523 0.0
H594 H 0.32776 0.30415 0.84248 0.0
H595 H 0.34013 0.36611 0.7789 0.0
H596 H 0.41819 0.17968 0.81942 0.0
H597 H 0.33501 0.2109 0.79514 0.0
H598 H 0.41326 0.22029 0.79131 0.0
H599 H 0.34121 0.17034 0.82274 0.0
H600 H 0.26616 0.28983 0.7365 0.0
H601 H 0.27648 0.21108 0.74046 0.0
H602 H 0.43496 0.33768 0.82521 0.0
H603 H 0.41937 0.27447 0.88907 0.0
H604 H 0.35285 0.21375 0.64685 0.0
H605 H 0.34281 0.28802 0.68212 0.0
H606 H 0.32371 0.22203 0.59881 0.0
H607 H 0.31391 0.29498 0.63354 0.0
H608 H 0.43145 0.30268 0.70452 0.0
H609 H 0.4463 0.24275 0.77414 0.0
H610 H 0.46953 0.32281 0.72441 0.0
H611 H 0.48357 0.26455 0.79389 0.0
H612 H 0.39667 0.34985 0.63134 0.0
H613 H 0.43236 0.28364 0.5955 0.0
H614 H 0.37477 0.15579 0.67349 0.0
H615 H 0.45066 0.17665 0.68818 0.0
Li616 Li 0.97888 0.14154 0.01545 0.0
Li617 Li 0.98984 0.10269 0.98807 0.0
Li618 Li 0.01419 0.13895 0.98026 0.0
Li619 Li 0.97365 0.13629 0.95357 0.0
C620 C 0.03053 0.12387 0.04025 0.0
N621 N 0.07555 0.13006 0.07204 0.0
C622 C 0.04458 0.10346 0.04957 0.0
C623 C 0.03918 0.1474 0.04779 0.0
C624 C 0.06734 0.10697 0.06544 0.0
C625 C 0.06204 0.15017 0.06365 0.0
C626 C 0.94189 0.1064 0.01437 0.0
C627 C 0.90217 0.09213 0.03311 0.0
N628 N 0.9125 0.08305 0.0625 0.0
C629 C 0.95211 0.09697 0.04483 0.0
C630 C 0.91671 0.10403 0.00849 0.0
C631 C 0.93694 0.08521 0.06881 0.0
C632 C 0.9409 0.16572 0.05113 0.0
N633 N 0.96385 0.15632 0.05505 0.0
C634 C 0.96456 0.16859 0.11451 0.0
C635 C 0.97572 0.15738 0.08599 0.0
C636 C 0.94113 0.17901 0.11091 0.0
C637 C 0.92927 0.17749 0.07873 0.0
H638 H 0.93167 0.16416 0.02643 0.0
H639 H 0.99383 0.14952 0.08854 0.0
C640 C 0.01529 0.05867 0.98914 0.0
N641 N 0.99219 0.06797 0.98943 0.0
C642 C 0.01906 0.03337 0.98942 0.0
C643 C 0.97511 0.02764 0.98788 0.0
C644 C 0.97221 0.05309 0.98813 0.0
C645 C 0.99881 0.01742 0.98902 0.0
H646 H 0.03083 0.07098 0.98851 0.0
H647 H 0.95403 0.06089 0.98676 0.0
C648 C 0.97755 0.18599 0.98782 0.0
N649 N 0.95417 0.2283 0.00972 0.0
C650 C 0.95493 0.19274 0.97359 0.0
C651 C 0.98842 0.20104 0.01283 0.0
C652 C 0.94345 0.2142 0.98493 0.0
C653 C 0.97619 0.22218 0.02382 0.0
C654 C 0.99842 0.09989 0.91782 0.0
C655 C 0.01709 0.09447 0.89425 0.0
C656 C 0.97541 0.08888 0.91405 0.0
C657 C 0.01244 0.07805 0.86723 0.0
C658 C 0.97149 0.07255 0.88671 0.0
N659 N 0.98993 0.06752 0.86406 0.0
C660 C 0.06159 0.13194 0.9555 0.0
C661 C 0.0503 0.17358 0.96362 0.0
C662 C 0.08158 0.13885 0.93511 0.0
N663 N 0.04601 0.14926 0.96802 0.0
C664 C 0.07013 0.18132 0.94359 0.0
C665 C 0.08536 0.16379 0.92764 0.0
H666 H 0.05728 0.11271 0.95884 0.0
H667 H 0.03716 0.18685 0.97305 0.0
C668 C 0.93189 0.13973 0.90991 0.0
N669 N 0.95609 0.14504 0.91339 0.0
C670 C 0.91844 0.15007 0.88284 0.0
C671 C 0.95549 0.16984 0.86248 0.0
C672 C 0.9682 0.1591 0.88991 0.0
C673 C 0.9301 0.16606 0.85945 0.0
H674 H 0.92283 0.12848 0.9291 0.0
H675 H 0.98746 0.16307 0.89368 0.0
O676 O 0.00814 0.12082 0.02474 0.0
O677 O 0.95623 0.11831 0.99058 0.0
O678 O 0.98884 0.16468 0.97765 0.0
O679 O 0.00282 0.1158 0.94452 0.0
H680 H 0.03786 0.08508 0.0451 0.0
H681 H 0.02841 0.16333 0.04122 0.0
H682 H 0.07842 0.09133 0.07269 0.0
H683 H 0.06902 0.16831 0.06933 0.0
H684 H 0.88265 0.09016 0.02886 0.0
H685 H 0.97151 0.09862 0.05 0.0
H686 H 0.90847 0.11134 0.98517 0.0
H687 H 0.94461 0.0778 0.09245 0.0
H688 H 0.97426 0.16942 0.13898 0.0
H689 H 0.91106 0.185 0.07511 0.0
H690 H 0.03767 0.02649 0.99048 0.0
H691 H 0.95894 0.01616 0.98651 0.0
H692 H 0.94605 0.18144 0.95439 0.0
H693 H 0.00596 0.19637 0.024 0.0
H694 H 0.9259 0.21953 0.97423 0.0
H695 H 0.98413 0.23365 0.04371 0.0
H696 H 0.035 0.10285 0.89681 0.0
H697 H 0.96074 0.09279 0.93208 0.0
H698 H 0.02673 0.07367 0.84879 0.0
H699 H 0.95379 0.06387 0.88352 0.0
H700 H 0.09294 0.1248 0.92343 0.0
H701 H 0.07207 0.2007 0.93808 0.0
H702 H 0.89891 0.1466 0.88122 0.0
H703 H 0.9651 0.18234 0.8454 0.0
Li704 Li 0.8785 0.75093 0.72208 0.0
Li705 Li 0.84157 0.73254 0.74153 0.0
Li706 Li 0.88316 0.71843 0.76398 0.0
Li707 Li 0.86999 0.71136 0.70178 0.0
C708 C 0.87328 0.7727 0.78238 0.0
N709 N 0.88828 0.81823 0.8055 0.0
C710 C 0.86038 0.79374 0.77261 0.0
C711 C 0.89368 0.77474 0.80412 0.0
C712 C 0.86832 0.81662 0.78448 0.0
C713 C 0.90099 0.79795 0.81552 0.0
C714 C 0.83009 0.73558 0.67334 0.0
C715 C 0.79982 0.70656 0.65322 0.0
N716 N 0.78915 0.72452 0.63397 0.0
C717 C 0.81876 0.75375 0.65336 0.0
C718 C 0.82048 0.71181 0.6733 0.0
C719 C 0.79811 0.7478 0.63364 0.0
C720 C 0.88341 0.7869 0.67246 0.0
N721 N 0.89238 0.78066 0.70409 0.0
C722 C 0.92378 0.81112 0.69924 0.0
C723 C 0.91181 0.79279 0.71815 0.0
C724 C 0.91547 0.81703 0.66578 0.0
C725 C 0.89456 0.80517 0.65293 0.0
H726 H 0.86849 0.77665 0.66128 0.0
H727 H 0.91897 0.78729 0.74304 0.0
C728 C 0.7949 0.72209 0.77166 0.0
N729 N 0.80831 0.73815 0.75259 0.0
C730 C 0.76976 0.72594 0.77625 0.0
C731 C 0.77304 0.76297 0.74205 0.0
C732 C 0.79808 0.75858 0.73859 0.0
C733 C 0.75839 0.74638 0.76073 0.0
H734 H 0.80364 0.70612 0.7828 0.0
H735 H 0.8093 0.77112 0.72376 0.0
C736 C 0.92295 0.73309 0.70979 0.0
N737 N 0.96595 0.75482 0.68748 0.0
C738 C 0.92706 0.73688 0.67443 0.0
C739 C 0.94078 0.74023 0.73379 0.0
C740 C 0.94888 0.74796 0.66368 0.0
C741 C 0.9624 0.75119 0.72199 0.0
C742 C 0.85219 0.67345 0.74719 0.0
C743 C 0.87258 0.6587 0.75396 0.0
C744 C 0.82916 0.66258 0.74281 0.0
C745 C 0.86969 0.63327 0.75581 0.0
C746 C 0.82701 0.63708 0.74485 0.0
N747 N 0.84715 0.62307 0.75124 0.0
C748 C 0.88858 0.7064 0.83446 0.0
C749 C 0.92194 0.69394 0.79924 0.0
C750 C 0.89966 0.6961 0.86371 0.0
N751 N 0.89979 0.70508 0.80308 0.0
C752 C 0.93366 0.68336 0.82777 0.0
C753 C 0.92247 0.68426 0.86057 0.0
H754 H 0.87089 0.71524 0.83666 0.0
H755 H 0.93035 0.69295 0.7739 0.0
C756 C 0.87352 0.70361 0.63029 0.0
N757 N 0.87568 0.69188 0.66129 0.0
C758 C 0.88377 0.69355 0.60041 0.0
C759 C 0.89728 0.65886 0.63434 0.0
C760 C 0.88671 0.66959 0.66363 0.0
C761 C 0.89679 0.67142 0.60251 0.0
H762 H 0.86574 0.7218 0.62912 0.0
H763 H 0.8892 0.66106 0.68857 0.0
O764 O 0.86583 0.75017 0.77104 0.0
O765 O 0.84998 0.74139 0.69355 0.0
O766 O 0.90158 0.72251 0.72086 0.0
O767 O 0.85455 0.69845 0.74591 0.0
H768 H 0.84454 0.79242 0.75582 0.0
H769 H 0.90384 0.7586 0.81191 0.0
H770 H 0.85861 0.83309 0.77697 0.0
H771 H 0.9168 0.79984 0.83224 0.0
H772 H 0.79228 0.68821 0.65295 0.0
H773 H 0.82561 0.77238 0.65341 0.0
H774 H 0.82893 0.69749 0.68836 0.0
H775 H 0.78915 0.76171 0.61818 0.0
H776 H 0.93993 0.81982 0.71001 0.0
H777 H 0.88786 0.80869 0.62698 0.0
H778 H 0.75937 0.71292 0.79152 0.0
H779 H 0.7652 0.77878 0.72919 0.0
H780 H 0.91343 0.73159 0.65551 0.0
H781 H 0.9378 0.73774 0.76127 0.0
H782 H 0.95221 0.75117 0.63643 0.0
H783 H 0.97627 0.75697 0.74029 0.0
H784 H 0.89055 0.66673 0.75712 0.0
H785 H 0.81309 0.6737 0.73789 0.0
H786 H 0.88537 0.62163 0.76078 0.0
H787 H 0.80932 0.62843 0.7414 0.0
H788 H 0.89018 0.69694 0.88833 0.0
H789 H 0.95133 0.67465 0.82417 0.0
H790 H 0.88301 0.70385 0.57643 0.0
H791 H 0.90759 0.64202 0.63737 0.0
Li792 Li 0.03742 0.11998 0.4517 0.0
Li793 Li 0.03035 0.13317 0.51389 0.0
Li794 Li 0.01623 0.09157 0.49145 0.0
Li795 Li 0.99786 0.1285 0.47199 0.0
C796 C 0.07531 0.10218 0.49712 0.0
N797 N 0.12569 0.09714 0.50117 0.0
C798 C 0.09007 0.12258 0.50388 0.0
C799 C 0.08618 0.07915 0.49274 0.0
C800 C 0.1155 0.11968 0.50573 0.0
C801 C 0.11168 0.07699 0.49478 0.0
C802 C 0.01571 0.17296 0.45968 0.0
C803 C 0.9976 0.21241 0.47187 0.0
N804 N 0.99398 0.21596 0.43737 0.0
C805 C 0.01193 0.17706 0.42432 0.0
C806 C 0.00855 0.19079 0.48368 0.0
C807 C 0.00085 0.19889 0.41357 0.0
C808 C 0.04518 0.12348 0.38021 0.0
N809 N 0.0569 0.12566 0.41121 0.0
C810 C 0.08992 0.14725 0.38426 0.0
C811 C 0.07919 0.13669 0.41355 0.0
C812 C 0.07737 0.14675 0.35243 0.0
C813 C 0.05524 0.13373 0.35032 0.0
H814 H 0.027 0.1157 0.37903 0.0
H815 H 0.08771 0.13919 0.43849 0.0
C816 C 0.04239 0.1386 0.58437 0.0
N817 N 0.04371 0.14981 0.55298 0.0
C818 C 0.05268 0.14967 0.61361 0.0
C819 C 0.06541 0.18368 0.57768 0.0
C820 C 0.05484 0.17196 0.54915 0.0
C821 C 0.06452 0.17249 0.61048 0.0
H822 H 0.03354 0.1209 0.58657 0.0
H823 H 0.05582 0.18037 0.52381 0.0
C824 C 0.01319 0.08007 0.42327 0.0
N825 N 0.02423 0.03911 0.38393 0.0
C826 C 0.99501 0.06875 0.4033 0.0
C827 C 0.03695 0.07045 0.42324 0.0
C828 C 0.00096 0.04809 0.38359 0.0
C829 C 0.04219 0.04978 0.40317 0.0
C830 C 0.97608 0.12331 0.53229 0.0
C831 C 0.95505 0.1104 0.52252 0.0
C832 C 0.97405 0.14371 0.55403 0.0
C833 C 0.93218 0.11835 0.53439 0.0
C834 C 0.95085 0.15102 0.56543 0.0
N835 N 0.93057 0.13832 0.55541 0.0
C836 C 0.02668 0.0449 0.5216 0.0
C837 C 0.99019 0.04808 0.48854 0.0
C838 C 0.02283 0.01976 0.5262 0.0
N839 N 0.01062 0.05831 0.50253 0.0
C840 C 0.9858 0.02303 0.49202 0.0
C841 C 0.00239 0.00838 0.5107 0.0
H842 H 0.04265 0.05364 0.53274 0.0
H843 H 0.97765 0.05929 0.4737 0.0
C844 C 0.96191 0.13343 0.42234 0.0
N845 N 0.96814 0.14239 0.45398 0.0
C846 C 0.94364 0.14458 0.40281 0.0
C847 C 0.93768 0.17379 0.44912 0.0
C848 C 0.95601 0.16182 0.46804 0.0
C849 C 0.93177 0.16549 0.41567 0.0
H850 H 0.97217 0.11852 0.41116 0.0
H851 H 0.96149 0.16898 0.49293 0.0
O852 O 0.05032 0.10454 0.49584 0.0
O853 O 0.02629 0.15158 0.47076 0.0
O854 O 0.00739 0.09997 0.44347 0.0
O855 O 0.99862 0.11585 0.52095 0.0
H856 H 0.08204 0.14055 0.50704 0.0
H857 H 0.07506 0.06308 0.48782 0.0
H858 H 0.12713 0.13537 0.5107 0.0
H859 H 0.12032 0.0593 0.49133 0.0
H860 H 0.99181 0.22628 0.49017 0.0
H861 H 0.01722 0.16344 0.40541 0.0
H862 H 0.01104 0.1878 0.51116 0.0
H863 H 0.99765 0.20222 0.38631 0.0
H864 H 0.10676 0.15756 0.38728 0.0
H865 H 0.04495 0.13296 0.32634 0.0
H866 H 0.05184 0.14019 0.63824 0.0
H867 H 0.07412 0.20135 0.57408 0.0
H868 H 0.9764 0.07561 0.40334 0.0
H869 H 0.05128 0.0789 0.43829 0.0
H870 H 0.98704 0.03913 0.36813 0.0
H871 H 0.06054 0.04223 0.4029 0.0
H872 H 0.95637 0.09456 0.50573 0.0
H873 H 0.99019 0.15387 0.56182 0.0
H874 H 0.9157 0.10865 0.52688 0.0
H875 H 0.94896 0.16684 0.58215 0.0
H876 H 0.03584 0.00937 0.54148 0.0
H877 H 0.97 0.01519 0.47916 0.0
H878 H 0.94014 0.13789 0.37685 0.0
H879 H 0.92898 0.18994 0.4599 0.0
Li880 Li 0.62877 0.2874 0.20177 0.0
Li881 Li 0.61561 0.28033 0.26397 0.0
Li882 Li 0.6572 0.26622 0.24151 0.0
Li883 Li 0.62027 0.24784 0.22207 0.0
C884 C 0.64658 0.32531 0.24718 0.0
N885 N 0.65161 0.3757 0.25122 0.0
C886 C 0.62618 0.34007 0.25395 0.0
C887 C 0.6696 0.33619 0.2428 0.0
C888 C 0.62907 0.3655 0.25579 0.0
C889 C 0.67175 0.36169 0.24483 0.0
C890 C 0.57581 0.26568 0.20978 0.0
C891 C 0.53636 0.24757 0.22198 0.0
N892 N 0.53281 0.24394 0.18747 0.0
C893 C 0.57171 0.26188 0.17442 0.0
C894 C 0.55798 0.25853 0.23378 0.0
C895 C 0.54989 0.2508 0.16367 0.0
C896 C 0.62524 0.29516 0.13028 0.0
N897 N 0.62308 0.30688 0.16128 0.0
C898 C 0.60148 0.3399 0.13434 0.0
C899 C 0.61204 0.32917 0.16362 0.0
C900 C 0.60197 0.32734 0.1025 0.0
C901 C 0.61499 0.30521 0.1004 0.0
H902 H 0.63302 0.27697 0.1291 0.0
H903 H 0.60956 0.3377 0.18856 0.0
C904 C 0.61018 0.29237 0.33446 0.0
N905 N 0.59898 0.29369 0.30307 0.0
C906 C 0.59911 0.30266 0.3637 0.0
C907 C 0.56511 0.3154 0.32776 0.0
C908 C 0.57682 0.30482 0.29924 0.0
C909 C 0.5763 0.31451 0.36057 0.0
H910 H 0.62788 0.28352 0.33665 0.0
H911 H 0.56842 0.30581 0.27389 0.0
C912 C 0.66868 0.26319 0.17333 0.0
N913 N 0.70961 0.27425 0.13396 0.0
C914 C 0.68001 0.24502 0.15335 0.0
C915 C 0.67829 0.28696 0.17329 0.0
C916 C 0.70065 0.25097 0.13363 0.0
C917 C 0.69894 0.29221 0.1532 0.0
C918 C 0.62549 0.22606 0.28237 0.0
C919 C 0.6384 0.20503 0.2726 0.0
C920 C 0.6051 0.22402 0.30411 0.0
C921 C 0.63046 0.18215 0.28448 0.0
C922 C 0.59779 0.20082 0.31551 0.0
N923 N 0.61049 0.18054 0.3055 0.0
C924 C 0.70387 0.27669 0.27164 0.0
C925 C 0.70069 0.24019 0.23858 0.0
C926 C 0.72901 0.27284 0.27623 0.0
N927 N 0.69046 0.26062 0.25257 0.0
C928 C 0.72573 0.2358 0.24204 0.0
C929 C 0.74038 0.25239 0.26071 0.0
H930 H 0.69513 0.29266 0.28278 0.0
H931 H 0.68947 0.22765 0.22374 0.0
C932 C 0.61536 0.21186 0.17246 0.0
N933 N 0.60639 0.2181 0.20408 0.0
C934 C 0.60421 0.19359 0.15293 0.0
C935 C 0.57499 0.18764 0.19924 0.0
C936 C 0.58697 0.20598 0.21815 0.0
C937 C 0.5833 0.18172 0.16579 0.0
H938 H 0.63028 0.22211 0.16128 0.0
H939 H 0.5798 0.21147 0.24303 0.0
O940 O 0.64422 0.30032 0.2459 0.0
O941 O 0.59719 0.27626 0.22085 0.0
O942 O 0.64879 0.25737 0.19353 0.0
O943 O 0.63294 0.2486 0.27103 0.0
H944 H 0.60822 0.33203 0.2571 0.0
H945 H 0.68567 0.32507 0.23787 0.0
H946 H 0.61339 0.37713 0.26077 0.0
H947 H 0.68944 0.37034 0.24138 0.0
H948 H 0.52249 0.2418 0.24028 0.0
H949 H 0.58534 0.26716 0.15551 0.0
H950 H 0.56097 0.26103 0.26126 0.0
H951 H 0.54656 0.24759 0.13642 0.0
H952 H 0.59117 0.35674 0.13736 0.0
H953 H 0.61575 0.29491 0.07642 0.0
H954 H 0.60859 0.30182 0.38832 0.0
H955 H 0.54744 0.32411 0.32417 0.0
H956 H 0.67316 0.22639 0.15339 0.0
H957 H 0.66983 0.30128 0.18834 0.0
H958 H 0.70961 0.23706 0.11816 0.0
H959 H 0.70648 0.31056 0.15293 0.0
H960 H 0.65424 0.20635 0.25581 0.0
H961 H 0.59493 0.24016 0.3119 0.0
H962 H 0.64016 0.16568 0.27696 0.0
H963 H 0.58198 0.19892 0.33224 0.0
H964 H 0.7394 0.28585 0.2915 0.0
H965 H 0.73357 0.21999 0.22918 0.0
H966 H 0.61091 0.19007 0.12698 0.0
H967 H 0.55884 0.17895 0.21001 0.0
Li968 Li 0.50089 0.87026 0.97198 0.0
Li969 Li 0.48252 0.90719 0.99144 0.0
Li970 Li 0.4684 0.8656 0.01388 0.0
Li971 Li 0.46133 0.87878 0.95169 0.0
C972 C 0.52266 0.87546 0.03228 0.0
N973 N 0.56817 0.86044 0.05541 0.0
C974 C 0.5437 0.88836 0.02251 0.0
C975 C 0.5247 0.85506 0.05402 0.0
C976 C 0.56657 0.88041 0.03439 0.0
C977 C 0.5479 0.84774 0.06542 0.0
C978 C 0.48556 0.91869 0.92326 0.0
C979 C 0.45656 0.94898 0.90316 0.0
N980 N 0.47452 0.95965 0.88391 0.0
C981 C 0.50373 0.93002 0.90328 0.0
C982 C 0.46179 0.92831 0.92323 0.0
C983 C 0.49779 0.95068 0.88358 0.0
C984 C 0.53684 0.86534 0.92234 0.0
N985 N 0.53061 0.85637 0.95397 0.0
C986 C 0.56107 0.82497 0.94912 0.0
C987 C 0.54274 0.83694 0.96804 0.0
C988 C 0.56698 0.83328 0.91567 0.0
C989 C 0.55511 0.85419 0.90281 0.0
H990 H 0.52658 0.88025 0.91116 0.0
H991 H 0.53725 0.82978 0.99293 0.0
C992 C 0.47207 0.95386 0.02159 0.0
N993 N 0.48813 0.94045 0.00252 0.0
C994 C 0.47592 0.97901 0.0262 0.0
C995 C 0.51295 0.97573 0.992 0.0
C996 C 0.50856 0.95069 0.98853 0.0
C997 C 0.49637 0.99038 0.01069 0.0
H998 H 0.4561 0.94513 0.03273 0.0
H999 H 0.52109 0.93947 0.97369 0.0
C1000 C 0.48304 0.8258 0.95968 0.0
N1001 N 0.50477 0.7828 0.93736 0.0
C1002 C 0.48682 0.8217 0.92432 0.0
C1003 C 0.49019 0.80797 0.98367 0.0
C1004 C 0.4979 0.79987 0.91357 0.0
C1005 C 0.50115 0.78635 0.97187 0.0
C1006 C 0.42343 0.89659 0.99711 0.0
C1007 C 0.40868 0.87619 0.00387 0.0
C1008 C 0.41257 0.91962 0.99273 0.0
C1009 C 0.38325 0.87909 0.00572 0.0
C1010 C 0.38707 0.92177 0.99477 0.0
N1011 N 0.37306 0.90163 0.00116 0.0
C1012 C 0.45636 0.86017 0.08436 0.0
C1013 C 0.44391 0.8268 0.04914 0.0
C1014 C 0.44607 0.84909 0.1136 0.0
N1015 N 0.45504 0.84896 0.05298 0.0
C1016 C 0.43333 0.81508 0.07767 0.0
C1017 C 0.43423 0.82628 0.11047 0.0
H1018 H 0.4652 0.87787 0.08656 0.0
H1019 H 0.44292 0.8184 0.0238 0.0
C1020 C 0.45356 0.87528 0.8802 0.0
N1021 N 0.44185 0.87311 0.9112 0.0
C1022 C 0.44351 0.86503 0.85031 0.0
C1023 C 0.40883 0.85151 0.88425 0.0
C1024 C 0.41956 0.86207 0.91354 0.0
C1025 C 0.42138 0.85201 0.85242 0.0
H1026 H 0.47175 0.88306 0.87902 0.0
H1027 H 0.41104 0.85958 0.93848 0.0
O1028 O 0.50013 0.88291 0.02094 0.0
O1029 O 0.49136 0.89879 0.94346 0.0
O1030 O 0.47246 0.84718 0.97075 0.0
O1031 O 0.44842 0.89422 0.99583 0.0
H1032 H 0.54238 0.9042 0.00572 0.0
H1033 H 0.50856 0.8449 0.06181 0.0
H1034 H 0.58304 0.89011 0.02688 0.0
H1035 H 0.54979 0.83193 0.08214 0.0
H1036 H 0.43821 0.95653 0.90289 0.0
H1037 H 0.52235 0.92316 0.90333 0.0
H1038 H 0.44747 0.91986 0.93828 0.0
H1039 H 0.5117 0.95963 0.86811 0.0
H1040 H 0.56977 0.80882 0.9599 0.0
H1041 H 0.55862 0.86088 0.87685 0.0
H1042 H 0.46291 0.9894 0.04147 0.0
H1043 H 0.52876 0.98357 0.97915 0.0
H1044 H 0.48153 0.83532 0.9054 0.0
H1045 H 0.48771 0.81096 0.01116 0.0
H1046 H 0.5011 0.79654 0.88631 0.0
H1047 H 0.50693 0.77248 0.99017 0.0
H1048 H 0.4167 0.85822 0.00702 0.0
H1049 H 0.42369 0.93569 0.98781 0.0
H1050 H 0.37162 0.8634 0.01069 0.0
H1051 H 0.37843 0.93947 0.99133 0.0
H1052 H 0.44691 0.85858 0.13823 0.0
H1053 H 0.42462 0.79741 0.07407 0.0
H1054 H 0.4538 0.8658 0.82633 0.0
H1055 H 0.39199 0.8412 0.88727 0.0
Li1056 Li 0.87849 0.24783 0.77956 0.0
Li1057 Li 0.84157 0.26622 0.76012 0.0
Li1058 Li 0.88315 0.28033 0.73766 0.0
Li1059 Li 0.86999 0.2874 0.79986 0.0
C1060 C 0.87328 0.22606 0.71927 0.0
N1061 N 0.88828 0.18053 0.69614 0.0
C1062 C 0.86038 0.20502 0.72903 0.0
C1063 C 0.89368 0.22402 0.69752 0.0
C1064 C 0.86832 0.18214 0.71716 0.0
C1065 C 0.90099 0.20081 0.68612 0.0
C1066 C 0.83009 0.26318 0.8283 0.0
C1067 C 0.79982 0.2922 0.84842 0.0
N1068 N 0.78914 0.27424 0.86767 0.0
C1069 C 0.81876 0.24501 0.84828 0.0
C1070 C 0.82047 0.28695 0.82834 0.0
C1071 C 0.79811 0.25096 0.868 0.0
C1072 C 0.8834 0.21186 0.82919 0.0
N1073 N 0.89238 0.2181 0.79756 0.0
C1074 C 0.92378 0.18764 0.80241 0.0
C1075 C 0.9118 0.20597 0.78349 0.0
C1076 C 0.91547 0.18173 0.83586 0.0
C1077 C 0.89456 0.19359 0.84872 0.0
H1078 H 0.86849 0.22211 0.84037 0.0
H1079 H 0.91897 0.21147 0.75861 0.0
C1080 C 0.7949 0.27667 0.72999 0.0
N1081 N 0.80831 0.26061 0.74906 0.0
C1082 C 0.76976 0.27282 0.7254 0.0
C1083 C 0.77304 0.23579 0.75959 0.0
C1084 C 0.79808 0.24018 0.76305 0.0
C1085 C 0.75839 0.25238 0.74091 0.0
H1086 H 0.80364 0.29264 0.71885 0.0
H1087 H 0.8093 0.22764 0.77789 0.0
C1088 C 0.92295 0.26568 0.79186 0.0
N1089 N 0.96595 0.24394 0.81416 0.0
C1090 C 0.92705 0.26188 0.82721 0.0
C1091 C 0.94078 0.25853 0.76786 0.0
C1092 C 0.94888 0.2508 0.83796 0.0
C1093 C 0.9624 0.24757 0.77966 0.0
C1094 C 0.85218 0.32531 0.75445 0.0
C1095 C 0.87258 0.34006 0.74768 0.0
C1096 C 0.82916 0.33618 0.75883 0.0
C1097 C 0.86968 0.3655 0.74584 0.0
C1098 C 0.82701 0.36168 0.7568 0.0
N1099 N 0.84715 0.37569 0.7504 0.0
C1100 C 0.88858 0.29236 0.66718 0.0
C1101 C 0.92194 0.30482 0.7024 0.0
C1102 C 0.89966 0.30266 0.63794 0.0
N1103 N 0.89979 0.29369 0.69856 0.0
C1104 C 0.93366 0.3154 0.67387 0.0
C1105 C 0.92247 0.3145 0.64107 0.0
H1106 H 0.87089 0.28352 0.66498 0.0
H1107 H 0.93034 0.30581 0.72775 0.0
C1108 C 0.87352 0.29516 0.87135 0.0
N1109 N 0.87568 0.30688 0.84035 0.0
C1110 C 0.88377 0.30521 0.90123 0.0
C1111 C 0.89728 0.3399 0.8673 0.0
C1112 C 0.88671 0.32917 0.83801 0.0
C1113 C 0.89679 0.32734 0.89913 0.0
H1114 H 0.86574 0.27697 0.87253 0.0
H1115 H 0.8892 0.3377 0.81307 0.0
O1116 O 0.86583 0.2486 0.73061 0.0
O1117 O 0.84998 0.25737 0.8081 0.0
O1118 O 0.90157 0.27626 0.78079 0.0
O1119 O 0.85454 0.30031 0.75573 0.0
H1120 H 0.84454 0.20634 0.74583 0.0
H1121 H 0.90384 0.24016 0.68974 0.0
H1122 H 0.85861 0.16567 0.72468 0.0
H1123 H 0.9168 0.19892 0.6694 0.0
H1124 H 0.79228 0.31055 0.84869 0.0
H1125 H 0.8256 0.22638 0.84824 0.0
H1126 H 0.82893 0.30128 0.81328 0.0
H1127 H 0.78915 0.23705 0.88346 0.0
H1128 H 0.93993 0.17895 0.79164 0.0
H1129 H 0.88786 0.19008 0.87467 0.0
H1130 H 0.75937 0.28584 0.71012 0.0
H1131 H 0.7652 0.21998 0.77245 0.0
H1132 H 0.91343 0.26717 0.84613 0.0
H1133 H 0.93779 0.26102 0.74037 0.0
H1134 H 0.95221 0.2476 0.86522 0.0
H1135 H 0.97627 0.2418 0.76136 0.0
H1136 H 0.89055 0.33203 0.74453 0.0
H1137 H 0.81309 0.32506 0.76376 0.0
H1138 H 0.88537 0.37713 0.74086 0.0
H1139 H 0.80931 0.37033 0.76024 0.0
H1140 H 0.89018 0.30182 0.61331 0.0
H1141 H 0.95133 0.32411 0.67747 0.0
H1142 H 0.883 0.29491 0.92521 0.0
H1143 H 0.90759 0.35674 0.86427 0.0
Li1144 Li 0.50089 0.1285 0.52966 0.0
Li1145 Li 0.48252 0.09157 0.51019 0.0
Li1146 Li 0.4684 0.13316 0.48775 0.0
Li1147 Li 0.46133 0.11998 0.54994 0.0
C1148 C 0.52267 0.1233 0.46936 0.0
N1149 N 0.56818 0.13832 0.44624 0.0
C1150 C 0.54371 0.1104 0.47913 0.0
C1151 C 0.5247 0.1437 0.44762 0.0
C1152 C 0.56658 0.11835 0.46726 0.0
C1153 C 0.5479 0.15102 0.43622 0.0
C1154 C 0.48556 0.08007 0.57837 0.0
C1155 C 0.45656 0.04978 0.59848 0.0
N1156 N 0.47452 0.03911 0.61772 0.0
C1157 C 0.50373 0.06874 0.59835 0.0
C1158 C 0.46179 0.07045 0.57841 0.0
C1159 C 0.49779 0.04808 0.61806 0.0
C1160 C 0.53683 0.13342 0.57931 0.0
N1161 N 0.53061 0.14239 0.54767 0.0
C1162 C 0.56107 0.17379 0.55252 0.0
C1163 C 0.54274 0.16181 0.53361 0.0
C1164 C 0.56698 0.16548 0.58598 0.0
C1165 C 0.5551 0.14457 0.59884 0.0
H1166 H 0.52658 0.11851 0.59049 0.0
H1167 H 0.53726 0.16898 0.50871 0.0
C1168 C 0.47207 0.04489 0.48004 0.0
N1169 N 0.48814 0.05831 0.49912 0.0
C1170 C 0.47593 0.01975 0.47544 0.0
C1171 C 0.51295 0.02303 0.50963 0.0
C1172 C 0.50857 0.04807 0.51311 0.0
C1173 C 0.49637 0.00838 0.49095 0.0
H1174 H 0.45611 0.05363 0.46891 0.0
H1175 H 0.5211 0.05929 0.52795 0.0
C1176 C 0.48304 0.17296 0.54196 0.0
N1177 N 0.50477 0.21596 0.56427 0.0
C1178 C 0.48682 0.17706 0.57732 0.0
C1179 C 0.4902 0.19079 0.51796 0.0
C1180 C 0.4979 0.19889 0.58807 0.0
C1181 C 0.50115 0.21241 0.52977 0.0
C1182 C 0.42344 0.10217 0.50452 0.0
C1183 C 0.40868 0.12257 0.49776 0.0
C1184 C 0.41257 0.07914 0.5089 0.0
C1185 C 0.38325 0.11967 0.49591 0.0
C1186 C 0.38707 0.07698 0.50686 0.0
N1187 N 0.37306 0.09713 0.50047 0.0
C1188 C 0.45637 0.13859 0.41727 0.0
C1189 C 0.44391 0.17196 0.45249 0.0
C1190 C 0.44608 0.14967 0.38803 0.0
N1191 N 0.45505 0.1498 0.44866 0.0
C1192 C 0.43334 0.18368 0.42396 0.0
C1193 C 0.43423 0.17248 0.39116 0.0
H1194 H 0.46521 0.12089 0.41507 0.0
H1195 H 0.44293 0.18036 0.47783 0.0
C1196 C 0.45356 0.12348 0.62143 0.0
N1197 N 0.44185 0.12565 0.59043 0.0
C1198 C 0.44351 0.13373 0.65132 0.0
C1199 C 0.40883 0.14725 0.61738 0.0
C1200 C 0.41956 0.13669 0.58809 0.0
C1201 C 0.42138 0.14675 0.64921 0.0
H1202 H 0.47175 0.1157 0.62261 0.0
H1203 H 0.41104 0.13918 0.56315 0.0
O1204 O 0.50014 0.11585 0.4807 0.0
O1205 O 0.49136 0.09997 0.55818 0.0
O1206 O 0.47246 0.15158 0.53088 0.0
O1207 O 0.44843 0.10454 0.5058 0.0
H1208 H 0.54239 0.09456 0.49592 0.0
H1209 H 0.50856 0.15386 0.43983 0.0
H1210 H 0.58305 0.10865 0.47477 0.0
H1211 H 0.54979 0.16684 0.4195 0.0
H1212 H 0.43821 0.04223 0.59874 0.0
H1213 H 0.52235 0.0756 0.59831 0.0
H1214 H 0.44747 0.0789 0.56335 0.0
H1215 H 0.51171 0.03913 0.63352 0.0
H1216 H 0.56977 0.18993 0.54175 0.0
H1217 H 0.55861 0.13788 0.6248 0.0
H1218 H 0.46292 0.00936 0.46016 0.0
H1219 H 0.52876 0.01519 0.52249 0.0
H1220 H 0.48152 0.16344 0.59623 0.0
H1221 H 0.48771 0.18779 0.49048 0.0
H1222 H 0.50109 0.20223 0.61533 0.0
H1223 H 0.50694 0.22628 0.51147 0.0
H1224 H 0.41671 0.14054 0.4946 0.0
H1225 H 0.42369 0.06307 0.51382 0.0
H1226 H 0.37162 0.13536 0.49093 0.0
H1227 H 0.37843 0.05929 0.5103 0.0
H1228 H 0.44691 0.14019 0.3634 0.0
H1229 H 0.42463 0.20135 0.42756 0.0
H1230 H 0.4538 0.13296 0.6753 0.0
H1231 H 0.39199 0.15756 0.61435 0.0
Li1232 Li 0.62028 0.75092 0.27957 0.0
Li1233 Li 0.6572 0.73254 0.26012 0.0
Li1234 Li 0.61561 0.71843 0.23767 0.0
Li1235 Li 0.62877 0.71136 0.29986 0.0
C1236 C 0.62549 0.7727 0.21927 0.0
N1237 N 0.61049 0.81822 0.19615 0.0
C1238 C 0.6384 0.79374 0.22904 0.0
C1239 C 0.60509 0.77474 0.19753 0.0
C1240 C 0.63046 0.81661 0.21717 0.0
C1241 C 0.59778 0.79795 0.18613 0.0
C1242 C 0.66868 0.73557 0.32831 0.0
C1243 C 0.69894 0.70655 0.34842 0.0
N1244 N 0.70962 0.7245 0.36767 0.0
C1245 C 0.68001 0.75374 0.34829 0.0
C1246 C 0.67829 0.71179 0.32835 0.0
C1247 C 0.70066 0.74778 0.36801 0.0
C1248 C 0.61537 0.7869 0.32919 0.0
N1249 N 0.60639 0.78066 0.29756 0.0
C1250 C 0.57499 0.81111 0.30241 0.0
C1251 C 0.58697 0.79278 0.2835 0.0
C1252 C 0.5833 0.81703 0.33587 0.0
C1253 C 0.60422 0.80517 0.34871 0.0
H1254 H 0.63029 0.77665 0.34036 0.0
H1255 H 0.5798 0.78728 0.25862 0.0
C1256 C 0.70387 0.72208 0.23 0.0
N1257 N 0.69046 0.73814 0.24906 0.0
C1258 C 0.72901 0.72593 0.22541 0.0
C1259 C 0.72573 0.76296 0.2596 0.0
C1260 C 0.70069 0.75858 0.26306 0.0
C1261 C 0.74038 0.74637 0.24092 0.0
H1262 H 0.69513 0.70611 0.21885 0.0
H1263 H 0.68947 0.77111 0.2779 0.0
C1264 C 0.57582 0.73308 0.29187 0.0
N1265 N 0.53282 0.75482 0.31418 0.0
C1266 C 0.57172 0.73688 0.32722 0.0
C1267 C 0.55798 0.74023 0.26787 0.0
C1268 C 0.5499 0.74796 0.33798 0.0
C1269 C 0.53637 0.75118 0.27968 0.0
C1270 C 0.64658 0.67345 0.25445 0.0
C1271 C 0.62618 0.65869 0.24768 0.0
C1272 C 0.6696 0.66257 0.25883 0.0
C1273 C 0.62907 0.63326 0.24583 0.0
C1274 C 0.67175 0.63707 0.25679 0.0
N1275 N 0.65161 0.62306 0.2504 0.0
C1276 C 0.61018 0.70639 0.16718 0.0
C1277 C 0.57682 0.69394 0.2024 0.0
C1278 C 0.59911 0.6961 0.13794 0.0
N1279 N 0.59897 0.70507 0.19857 0.0
C1280 C 0.5651 0.68336 0.17388 0.0
C1281 C 0.57629 0.68426 0.14107 0.0
H1282 H 0.62788 0.71524 0.16498 0.0
H1283 H 0.56842 0.69295 0.22775 0.0
C1284 C 0.62525 0.70359 0.37136 0.0
N1285 N 0.62308 0.69187 0.34036 0.0
C1286 C 0.61499 0.69354 0.40124 0.0
C1287 C 0.60148 0.65886 0.36729 0.0
C1288 C 0.61205 0.66959 0.33801 0.0
C1289 C 0.60197 0.67141 0.39913 0.0
H1290 H 0.63303 0.72178 0.37253 0.0
H1291 H 0.60956 0.66106 0.31307 0.0
O1292 O 0.63294 0.75016 0.23061 0.0
O1293 O 0.64879 0.74138 0.3081 0.0
O1294 O 0.59719 0.7225 0.28079 0.0
O1295 O 0.64422 0.69844 0.25573 0.0
H1296 H 0.65424 0.79241 0.24583 0.0
H1297 H 0.59493 0.7586 0.18974 0.0
H1298 H 0.64016 0.83308 0.22468 0.0
H1299 H 0.58197 0.79984 0.16941 0.0
H1300 H 0.70648 0.68819 0.34869 0.0
H1301 H 0.67317 0.77236 0.34825 0.0
H1302 H 0.66983 0.69747 0.31329 0.0
H1303 H 0.70962 0.76169 0.38348 0.0
H1304 H 0.55884 0.81981 0.29164 0.0
H1305 H 0.61092 0.80869 0.37467 0.0
H1306 H 0.7394 0.71291 0.21013 0.0
H1307 H 0.73357 0.77877 0.27246 0.0
H1308 H 0.58535 0.73159 0.34614 0.0
H1309 H 0.56097 0.73773 0.24039 0.0
H1310 H 0.54657 0.75117 0.36524 0.0
H1311 H 0.52249 0.75696 0.26138 0.0
H1312 H 0.60822 0.66673 0.24453 0.0
H1313 H 0.68567 0.67369 0.26376 0.0
H1314 H 0.61339 0.62163 0.24086 0.0
H1315 H 0.68944 0.62842 0.26023 0.0
H1316 H 0.60859 0.69694 0.11332 0.0
H1317 H 0.54744 0.67465 0.17747 0.0
H1318 H 0.61576 0.70384 0.42522 0.0
H1319 H 0.59117 0.64201 0.36427 0.0
Li1320 Li 0.99786 0.87026 0.02966 0.0
Li1321 Li 0.01623 0.90719 0.01019 0.0
Li1322 Li 0.03035 0.8656 0.98775 0.0
Li1323 Li 0.03742 0.87878 0.04994 0.0
C1324 C 0.97608 0.87545 0.96936 0.0
N1325 N 0.93057 0.86043 0.94623 0.0
C1326 C 0.95504 0.88836 0.97912 0.0
C1327 C 0.97405 0.85505 0.94762 0.0
C1328 C 0.93218 0.88041 0.96725 0.0
C1329 C 0.95085 0.84773 0.93622 0.0
C1330 C 0.01319 0.91869 0.07837 0.0
C1331 C 0.04219 0.94898 0.09847 0.0
N1332 N 0.02423 0.95965 0.11771 0.0
C1333 C 0.99502 0.93002 0.09834 0.0
C1334 C 0.03696 0.92831 0.0784 0.0
C1335 C 0.00096 0.95068 0.11805 0.0
C1336 C 0.96192 0.86533 0.0793 0.0
N1337 N 0.96814 0.85637 0.04767 0.0
C1338 C 0.93768 0.82497 0.05253 0.0
C1339 C 0.95601 0.83694 0.0336 0.0
C1340 C 0.93178 0.83328 0.08598 0.0
C1341 C 0.94365 0.85418 0.09884 0.0
H1342 H 0.97217 0.88025 0.09048 0.0
H1343 H 0.96149 0.82978 0.00871 0.0
C1344 C 0.02668 0.95386 0.98004 0.0
N1345 N 0.01062 0.94045 0.99911 0.0
C1346 C 0.02283 0.979 0.97544 0.0
C1347 C 0.9858 0.97573 0.00963 0.0
C1348 C 0.99019 0.95069 0.0131 0.0
C1349 C 0.00238 0.99038 0.99094 0.0
H1350 H 0.04265 0.94512 0.9689 0.0
H1351 H 0.97765 0.93947 0.02794 0.0
C1352 C 0.01571 0.8258 0.04196 0.0
N1353 N 0.99398 0.7828 0.06427 0.0
C1354 C 0.01193 0.8217 0.07732 0.0
C1355 C 0.00856 0.80797 0.01796 0.0
C1356 C 0.00085 0.79987 0.08807 0.0
C1357 C 0.9976 0.78635 0.02977 0.0
C1358 C 0.07531 0.89658 0.00452 0.0
C1359 C 0.09007 0.87618 0.99776 0.0
C1360 C 0.08618 0.91961 0.00889 0.0
C1361 C 0.1155 0.87908 0.99591 0.0
C1362 C 0.11168 0.92177 0.00686 0.0
N1363 N 0.12569 0.90163 1.00047 0.0
C1364 C 0.04239 0.86016 0.91727 0.0
C1365 C 0.05484 0.8268 0.95249 0.0
C1366 C 0.05268 0.84909 0.88803 0.0
N1367 N 0.0437 0.84895 0.94866 0.0
C1368 C 0.06541 0.81508 0.92396 0.0
C1369 C 0.06452 0.82627 0.89116 0.0
H1370 H 0.03354 0.87786 0.91507 0.0
H1371 H 0.05582 0.8184 0.97784 0.0
C1372 C 0.04519 0.87528 0.12143 0.0
N1373 N 0.0569 0.87311 0.09043 0.0
C1374 C 0.05524 0.86503 0.15132 0.0
C1375 C 0.08992 0.85151 0.11738 0.0
C1376 C 0.07919 0.86207 0.08809 0.0
C1377 C 0.07737 0.85201 0.14921 0.0
H1378 H 0.027 0.88306 0.12261 0.0
H1379 H 0.08771 0.85958 0.06315 0.0
O1380 O 0.99862 0.88291 0.98069 0.0
O1381 O 0.00739 0.89879 0.05817 0.0
O1382 O 0.02629 0.84718 0.03088 0.0
O1383 O 0.05032 0.89422 0.0058 0.0
H1384 H 0.95636 0.9042 0.99591 0.0
H1385 H 0.99019 0.84489 0.93983 0.0
H1386 H 0.9157 0.89011 0.97476 0.0
H1387 H 0.94896 0.83192 0.9195 0.0
H1388 H 0.06054 0.95653 0.09874 0.0
H1389 H 0.9764 0.92316 0.0983 0.0
H1390 H 0.05128 0.91986 0.06335 0.0
H1391 H 0.98704 0.95963 0.13351 0.0
H1392 H 0.92898 0.80882 0.04175 0.0
H1393 H 0.94014 0.86088 0.1248 0.0
H1394 H 0.03584 0.98939 0.96016 0.0
H1395 H 0.96999 0.98357 0.02248 0.0
H1396 H 0.01723 0.83532 0.09623 0.0
H1397 H 0.01104 0.81096 0.99048 0.0
H1398 H 0.99766 0.79653 0.11533 0.0
H1399 H 0.99181 0.77248 0.01147 0.0
H1400 H 0.08204 0.85822 0.9946 0.0
H1401 H 0.07506 0.93569 0.01382 0.0
H1402 H 0.12713 0.8634 0.99094 0.0
H1403 H 0.12032 0.93947 0.0103 0.0
H1404 H 0.05184 0.85857 0.8634 0.0
H1405 H 0.07412 0.79741 0.92756 0.0
H1406 H 0.04495 0.8658 0.1753 0.0
H1407 H 0.10676 0.8412 0.11436 0.0
Li1408 Li 0.61248 0.7751 0.798 0.0
Li1409 Li 0.60985 0.73455 0.77131 0.0
Li1410 Li 0.6461 0.75891 0.76353 0.0
Li1411 Li 0.60726 0.76986 0.73612 0.0
C1412 C 0.64887 0.75034 0.83378 0.0
N1413 N 0.6812 0.75884 0.88757 0.0
C1414 C 0.65428 0.73166 0.85736 0.0
C1415 C 0.65987 0.77335 0.83756 0.0
C1416 C 0.67068 0.73632 0.88439 0.0
C1417 C 0.67618 0.77728 0.86491 0.0
C1418 C 0.5628 0.77117 0.76371 0.0
C1419 C 0.52663 0.7725 0.72768 0.0
N1420 N 0.5205 0.79452 0.74176 0.0
C1421 C 0.55603 0.79379 0.77793 0.0
C1422 C 0.54777 0.76028 0.73869 0.0
C1423 C 0.53457 0.80526 0.76656 0.0
C1424 C 0.609 0.81687 0.84164 0.0
N1425 N 0.6037 0.79266 0.83816 0.0
C1426 C 0.57889 0.79326 0.88906 0.0
C1427 C 0.58964 0.78055 0.86165 0.0
C1428 C 0.58266 0.81865 0.89209 0.0
C1429 C 0.59864 0.83032 0.8687 0.0
H1430 H 0.62024 0.82594 0.82246 0.0
H1431 H 0.58569 0.76128 0.85788 0.0
C1432 C 0.61687 0.68714 0.79607 0.0
N1433 N 0.59955 0.70271 0.78354 0.0
C1434 C 0.60995 0.66714 0.81646 0.0
C1435 C 0.56749 0.67858 0.80796 0.0
C1436 C 0.57523 0.69842 0.78794 0.0
C1437 C 0.58502 0.66336 0.82393 0.0
H1438 H 0.63609 0.69146 0.79274 0.0
H1439 H 0.56196 0.71156 0.77849 0.0
C1440 C 0.64238 0.80686 0.73723 0.0
N1441 N 0.66574 0.83627 0.68911 0.0
C1442 C 0.65182 0.79665 0.70677 0.0
C1443 C 0.64475 0.83205 0.7431 0.0
C1444 C 0.66359 0.81182 0.6828 0.0
C1445 C 0.65665 0.8466 0.7185 0.0
C1446 C 0.62496 0.71821 0.71133 0.0
C1447 C 0.64538 0.70417 0.70203 0.0
C1448 C 0.60144 0.70954 0.70378 0.0
C1449 C 0.64189 0.6814 0.68615 0.0
C1450 C 0.59869 0.68667 0.68792 0.0
N1451 N 0.61881 0.67317 0.67954 0.0
C1452 C 0.69011 0.73347 0.7625 0.0
C1453 C 0.69569 0.77655 0.7635 0.0
C1454 C 0.7154 0.72969 0.76224 0.0
N1455 N 0.68081 0.75657 0.7622 0.0
C1456 C 0.72112 0.77365 0.76377 0.0
C1457 C 0.73135 0.74995 0.76264 0.0
H1458 H 0.6778 0.71793 0.76313 0.0
H1459 H 0.68788 0.79474 0.76486 0.0
C1460 C 0.58309 0.80784 0.70042 0.0
N1461 N 0.59248 0.78489 0.69651 0.0
C1462 C 0.57131 0.81946 0.67283 0.0
C1463 C 0.58023 0.78417 0.63705 0.0
C1464 C 0.59144 0.77301 0.66557 0.0
C1465 C 0.5698 0.8076 0.64065 0.0
H1466 H 0.58464 0.81707 0.72512 0.0
H1467 H 0.59929 0.7549 0.66303 0.0
O1468 O 0.63297 0.74593 0.80707 0.0
O1469 O 0.58411 0.7599 0.7739 0.0
O1470 O 0.63047 0.79253 0.761 0.0
O1471 O 0.62798 0.7406 0.72685 0.0
H1472 H 0.64591 0.71375 0.85479 0.0
H1473 H 0.65596 0.78802 0.81953 0.0
H1474 H 0.67506 0.72203 0.90283 0.0
H1475 H 0.68485 0.79498 0.86811 0.0
H1476 H 0.51518 0.76454 0.70778 0.0
H1477 H 0.56732 0.80268 0.79713 0.0
H1478 H 0.55246 0.74274 0.72752 0.0
H1479 H 0.52923 0.82281 0.77724 0.0
H1480 H 0.56639 0.78364 0.90614 0.0
H1481 H 0.6021 0.84985 0.87031 0.0
H1482 H 0.624 0.65579 0.82815 0.0
H1483 H 0.54811 0.67664 0.81346 0.0
H1484 H 0.65017 0.77725 0.70159 0.0
H1485 H 0.63743 0.84029 0.76642 0.0
H1486 H 0.671 0.80415 0.65917 0.0
H1487 H 0.65862 0.86612 0.72275 0.0
H1488 H 0.66375 0.7109 0.70651 0.0
H1489 H 0.5855 0.72029 0.71034 0.0
H1490 H 0.65754 0.67033 0.67891 0.0
H1491 H 0.58056 0.67968 0.68223 0.0
H1492 H 0.72229 0.71108 0.76118 0.0
H1493 H 0.7326 0.78983 0.76514 0.0
H1494 H 0.5638 0.83768 0.67644 0.0
H1495 H 0.57939 0.77447 0.61258 0.0
Li1496 Li 0.51417 0.35981 0.02139 0.0
Li1497 Li 0.47364 0.36248 0.04807 0.0
Li1498 Li 0.47887 0.35722 0.9862 0.0
Li1499 Li 0.48983 0.39607 0.01358 0.0
C1500 C 0.47754 0.31277 0.01383 0.0
N1501 N 0.45416 0.27046 0.99194 0.0
C1502 C 0.45491 0.30602 0.02806 0.0
C1503 C 0.48841 0.29771 0.98883 0.0
C1504 C 0.44343 0.28456 0.01672 0.0
C1505 C 0.47618 0.27657 0.97785 0.0
C1506 C 0.49841 0.39887 0.08383 0.0
C1507 C 0.47148 0.42621 0.11493 0.0
N1508 N 0.48992 0.43124 0.13758 0.0
C1509 C 0.51708 0.40429 0.1074 0.0
C1510 C 0.4754 0.40989 0.0876 0.0
C1511 C 0.51243 0.42071 0.13442 0.0
C1512 C 0.56158 0.36682 0.04614 0.0
N1513 N 0.546 0.3495 0.03362 0.0
C1514 C 0.57012 0.31744 0.05806 0.0
C1515 C 0.55029 0.32518 0.03804 0.0
C1516 C 0.58535 0.33497 0.074 0.0
C1517 C 0.58157 0.35991 0.06653 0.0
H1518 H 0.55726 0.38605 0.04279 0.0
H1519 H 0.53715 0.31191 0.0286 0.0
C1520 C 0.43188 0.35904 0.09174 0.0
N1521 N 0.45608 0.35372 0.08825 0.0
C1522 C 0.41843 0.34869 0.11881 0.0
C1523 C 0.45547 0.32891 0.13916 0.0
C1524 C 0.46819 0.33966 0.11174 0.0
C1525 C 0.43009 0.3327 0.1422 0.0
H1526 H 0.42282 0.37029 0.07256 0.0
H1527 H 0.48745 0.33569 0.10797 0.0
C1528 C 0.53052 0.37488 0.96139 0.0
N1529 N 0.57554 0.36868 0.92962 0.0
C1530 C 0.54457 0.39529 0.95209 0.0
C1531 C 0.53916 0.35136 0.95386 0.0
C1532 C 0.56734 0.39178 0.93621 0.0
C1533 C 0.56203 0.34857 0.93801 0.0
C1534 C 0.44188 0.39236 0.98728 0.0
C1535 C 0.4521 0.40179 0.95681 0.0
C1536 C 0.4167 0.39474 0.99316 0.0
C1537 C 0.43693 0.41355 0.93284 0.0
C1538 C 0.40216 0.40663 0.96854 0.0
N1539 N 0.41249 0.41572 0.93915 0.0
C1540 C 0.44089 0.33305 0.95052 0.0
C1541 C 0.47571 0.34139 0.91566 0.0
C1542 C 0.42926 0.32127 0.92292 0.0
N1543 N 0.46383 0.34244 0.9466 0.0
C1544 C 0.46455 0.33018 0.88713 0.0
C1545 C 0.44112 0.31975 0.89074 0.0
H1546 H 0.43166 0.3346 0.97522 0.0
H1547 H 0.49382 0.34924 0.91311 0.0
C1548 C 0.51528 0.44009 0.01251 0.0
N1549 N 0.49218 0.43079 0.01222 0.0
C1550 C 0.51906 0.46538 0.01223 0.0
C1551 C 0.47511 0.47112 0.01376 0.0
C1552 C 0.4722 0.44568 0.01351 0.0
C1553 C 0.49881 0.48134 0.01262 0.0
H1554 H 0.53082 0.42777 0.01314 0.0
H1555 H 0.45402 0.43787 0.01488 0.0
O1556 O 0.48882 0.33408 0.024 0.0
O1557 O 0.5028 0.38296 0.05712 0.0
O1558 O 0.50813 0.37793 0.97691 0.0
O1559 O 0.45622 0.38046 0.01107 0.0
H1560 H 0.44603 0.31733 0.04724 0.0
H1561 H 0.50595 0.30238 0.97766 0.0
H1562 H 0.42588 0.27924 0.02741 0.0
H1563 H 0.48412 0.2651 0.95796 0.0
H1564 H 0.45379 0.4349 0.11812 0.0
H1565 H 0.53499 0.39591 0.10484 0.0
H1566 H 0.46073 0.40597 0.06957 0.0
H1567 H 0.52672 0.42509 0.15285 0.0
H1568 H 0.57206 0.29806 0.06357 0.0
H1569 H 0.59293 0.37396 0.0782 0.0
H1570 H 0.3989 0.35217 0.12043 0.0
H1571 H 0.46508 0.31642 0.15624 0.0
H1572 H 0.53787 0.41367 0.95656 0.0
H1573 H 0.52839 0.33542 0.96043 0.0
H1574 H 0.57842 0.40742 0.92897 0.0
H1575 H 0.569 0.33043 0.93233 0.0
H1576 H 0.47149 0.40014 0.95164 0.0
H1577 H 0.40846 0.38743 0.01648 0.0
H1578 H 0.4446 0.42096 0.9092 0.0
H1579 H 0.38264 0.40861 0.97279 0.0
H1580 H 0.41104 0.31376 0.92653 0.0
H1581 H 0.47425 0.32934 0.86267 0.0
H1582 H 0.53767 0.47226 0.01117 0.0
H1583 H 0.45894 0.4826 0.01513 0.0
Li1584 Li 0.88893 0.26422 0.2713 0.0
Li1585 Li 0.88628 0.22367 0.29799 0.0
Li1586 Li 0.89151 0.22891 0.23611 0.0
Li1587 Li 0.85267 0.23986 0.26352 0.0
C1588 C 0.93597 0.22759 0.2637 0.0
N1589 N 0.97827 0.20424 0.24175 0.0
C1590 C 0.94274 0.20497 0.27792 0.0
C1591 C 0.951 0.23847 0.23867 0.0
C1592 C 0.96419 0.1935 0.26656 0.0
C1593 C 0.97214 0.22626 0.22767 0.0
C1594 C 0.8499 0.24843 0.33377 0.0
C1595 C 0.82259 0.2215 0.3649 0.0
N1596 N 0.81756 0.23994 0.38755 0.0
C1597 C 0.84448 0.26711 0.35735 0.0
C1598 C 0.8389 0.22542 0.33755 0.0
C1599 C 0.82808 0.26245 0.38437 0.0
C1600 C 0.88191 0.31163 0.29606 0.0
N1601 N 0.89923 0.29605 0.28353 0.0
C1602 C 0.93128 0.32018 0.30795 0.0
C1603 C 0.92355 0.30035 0.28793 0.0
C1604 C 0.91376 0.33541 0.32391 0.0
C1605 C 0.88882 0.33162 0.31645 0.0
H1606 H 0.86268 0.30731 0.29272 0.0
H1607 H 0.93681 0.2872 0.27849 0.0
C1608 C 0.88976 0.1819 0.34163 0.0
N1609 N 0.89506 0.20611 0.33816 0.0
C1610 C 0.90012 0.16845 0.3687 0.0
C1611 C 0.91987 0.20551 0.38906 0.0
C1612 C 0.90912 0.21822 0.36164 0.0
C1613 C 0.9161 0.18011 0.39208 0.0
H1614 H 0.87852 0.17283 0.32245 0.0
H1615 H 0.91307 0.23749 0.35788 0.0
C1616 C 0.87382 0.28056 0.21132 0.0
N1617 N 0.87997 0.32559 0.17952 0.0
C1618 C 0.8534 0.29459 0.20201 0.0
C1619 C 0.89733 0.28923 0.20377 0.0
C1620 C 0.85689 0.31736 0.18613 0.0
C1621 C 0.90009 0.31209 0.18791 0.0
C1622 C 0.85639 0.19191 0.23721 0.0
C1623 C 0.84695 0.20212 0.20675 0.0
C1624 C 0.85402 0.16672 0.24309 0.0
C1625 C 0.83518 0.18695 0.18279 0.0
C1626 C 0.84212 0.15217 0.21849 0.0
N1627 N 0.83302 0.1625 0.1891 0.0
C1628 C 0.91568 0.19092 0.20042 0.0
C1629 C 0.90734 0.22575 0.16556 0.0
C1630 C 0.92746 0.1793 0.17282 0.0
N1631 N 0.90629 0.21387 0.1965 0.0
C1632 C 0.91855 0.21459 0.13704 0.0
C1633 C 0.92897 0.19116 0.14064 0.0
H1634 H 0.91413 0.18169 0.22512 0.0
H1635 H 0.89948 0.24386 0.16302 0.0
C1636 C 0.80866 0.26531 0.26248 0.0
N1637 N 0.81796 0.2422 0.26218 0.0
C1638 C 0.78337 0.26908 0.26222 0.0
C1639 C 0.77764 0.22512 0.26375 0.0
C1640 C 0.80308 0.22222 0.26348 0.0
C1641 C 0.76742 0.24882 0.26262 0.0
H1642 H 0.82097 0.28084 0.26311 0.0
H1643 H 0.81089 0.20403 0.26485 0.0
O1644 O 0.91466 0.23887 0.27389 0.0
O1645 O 0.86579 0.25284 0.30705 0.0
O1646 O 0.87079 0.25816 0.22684 0.0
O1647 O 0.8683 0.20624 0.26099 0.0
H1648 H 0.93145 0.19609 0.29713 0.0
H1649 H 0.94631 0.25601 0.22751 0.0
H1650 H 0.96953 0.17595 0.27724 0.0
H1651 H 0.98358 0.23421 0.20776 0.0
H1652 H 0.81391 0.20379 0.36809 0.0
H1653 H 0.85286 0.28503 0.35478 0.0
H1654 H 0.84281 0.21075 0.31952 0.0
H1655 H 0.82371 0.27674 0.40282 0.0
H1656 H 0.95067 0.32212 0.31346 0.0
H1657 H 0.87478 0.34298 0.32814 0.0
H1658 H 0.89666 0.14892 0.37031 0.0
H1659 H 0.93236 0.21512 0.40614 0.0
H1660 H 0.83503 0.28787 0.20649 0.0
H1661 H 0.91327 0.27847 0.21033 0.0
H1662 H 0.84124 0.32843 0.17889 0.0
H1663 H 0.91822 0.31908 0.18222 0.0
H1664 H 0.8486 0.22152 0.20158 0.0
H1665 H 0.86133 0.15848 0.2664 0.0
H1666 H 0.82777 0.19462 0.15915 0.0
H1667 H 0.84014 0.13265 0.22273 0.0
H1668 H 0.93497 0.16108 0.17643 0.0
H1669 H 0.91938 0.22429 0.11257 0.0
H1670 H 0.77649 0.28769 0.26116 0.0
H1671 H 0.76617 0.20894 0.26513 0.0
Li1672 Li 0.98458 0.63895 0.52139 0.0
Li1673 Li 0.02512 0.63629 0.54807 0.0
Li1674 Li 0.01988 0.64154 0.4862 0.0
Li1675 Li 0.00892 0.60269 0.51358 0.0
C1676 C 0.02121 0.68599 0.51383 0.0
N1677 N 0.04459 0.7283 0.49193 0.0
C1678 C 0.04384 0.69274 0.52806 0.0
C1679 C 0.01035 0.70105 0.48882 0.0
C1680 C 0.05532 0.7142 0.51672 0.0
C1681 C 0.02257 0.72219 0.47784 0.0
C1682 C 0.00035 0.59989 0.58383 0.0
C1683 C 0.02727 0.57255 0.61493 0.0
N1684 N 0.00883 0.56752 0.63758 0.0
C1685 C 0.98167 0.59447 0.6074 0.0
C1686 C 0.02335 0.58888 0.5876 0.0
C1687 C 0.98632 0.57805 0.63441 0.0
C1688 C 0.93717 0.63194 0.54614 0.0
N1689 N 0.95275 0.64926 0.53363 0.0
C1690 C 0.92863 0.68132 0.55806 0.0
C1691 C 0.94846 0.67358 0.53804 0.0
C1692 C 0.9134 0.66379 0.57401 0.0
C1693 C 0.91718 0.63885 0.56653 0.0
H1694 H 0.94149 0.61271 0.54279 0.0
H1695 H 0.96161 0.68685 0.52861 0.0
C1696 C 0.06687 0.63972 0.59174 0.0
N1697 N 0.04267 0.64504 0.58825 0.0
C1698 C 0.08032 0.65007 0.61881 0.0
C1699 C 0.04328 0.66985 0.63916 0.0
C1700 C 0.03057 0.6591 0.61174 0.0
C1701 C 0.06867 0.66606 0.6422 0.0
H1702 H 0.07594 0.62848 0.57256 0.0
H1703 H 0.01131 0.66307 0.60797 0.0
C1704 C 0.96824 0.62388 0.46139 0.0
N1705 N 0.92321 0.63008 0.42961 0.0
C1706 C 0.95418 0.60347 0.45208 0.0
C1707 C 0.95959 0.6474 0.45386 0.0
C1708 C 0.93142 0.60698 0.43621 0.0
C1709 C 0.93672 0.65018 0.43801 0.0
C1710 C 0.05687 0.6064 0.48728 0.0
C1711 C 0.04665 0.59697 0.45681 0.0
C1712 C 0.08205 0.60403 0.49315 0.0
C1713 C 0.06182 0.58521 0.43284 0.0
C1714 C 0.0966 0.59213 0.46854 0.0
N1715 N 0.08626 0.58305 0.43915 0.0
C1716 C 0.05787 0.66572 0.45052 0.0
C1717 C 0.02305 0.65738 0.41566 0.0
C1718 C 0.06949 0.67749 0.42292 0.0
N1719 N 0.03492 0.65632 0.4466 0.0
C1720 C 0.03421 0.66859 0.38714 0.0
C1721 C 0.05763 0.67901 0.39074 0.0
H1722 H 0.06709 0.66416 0.47522 0.0
H1723 H 0.00494 0.64952 0.41311 0.0
C1724 C 0.98347 0.55867 0.51251 0.0
N1725 N 0.00657 0.56797 0.51222 0.0
C1726 C 0.97969 0.53337 0.51223 0.0
C1727 C 0.02364 0.52764 0.51376 0.0
C1728 C 0.02655 0.55309 0.51351 0.0
C1729 C -5e-05 0.51742 0.51262 0.0
H1730 H 0.96794 0.57098 0.51313 0.0
H1731 H 0.04473 0.56089 0.51489 0.0
O1732 O 0.00993 0.66468 0.524 0.0
O1733 O 0.99595 0.6158 0.55713 0.0
O1734 O 0.99062 0.62083 0.47691 0.0
O1735 O 0.04254 0.61831 0.51107 0.0
H1736 H 0.05272 0.68143 0.54725 0.0
H1737 H 0.99281 0.69638 0.47765 0.0
H1738 H 0.07287 0.71952 0.52741 0.0
H1739 H 0.01463 0.73365 0.45795 0.0
H1740 H 0.04497 0.56387 0.61812 0.0
H1741 H 0.96376 0.60285 0.60483 0.0
H1742 H 0.03802 0.59279 0.56957 0.0
H1743 H 0.97203 0.57367 0.65285 0.0
H1744 H 0.9267 0.70071 0.56358 0.0
H1745 H 0.90582 0.62481 0.57821 0.0
H1746 H 0.09985 0.64659 0.62043 0.0
H1747 H 0.03367 0.68234 0.65625 0.0
H1748 H 0.96089 0.58509 0.45655 0.0
H1749 H 0.97035 0.66334 0.46043 0.0
H1750 H 0.92033 0.59134 0.42896 0.0
H1751 H 0.92975 0.66832 0.43233 0.0
H1752 H 0.02726 0.59862 0.45165 0.0
H1753 H 0.09029 0.61134 0.51647 0.0
H1754 H 0.05415 0.5778 0.4092 0.0
H1755 H 0.11611 0.59016 0.47278 0.0
H1756 H 0.08771 0.685 0.42654 0.0
H1757 H 0.02451 0.66942 0.36267 0.0
H1758 H 0.96109 0.52649 0.51116 0.0
H1759 H 0.03982 0.51616 0.51514 0.0
Li1760 Li 0.64609 0.23985 0.73811 0.0
Li1761 Li 0.60726 0.2289 0.76553 0.0
Li1762 Li 0.61248 0.22366 0.70365 0.0
Li1763 Li 0.60984 0.26421 0.73034 0.0
C1764 C 0.64238 0.1919 0.76442 0.0
N1765 N 0.66575 0.16249 0.81254 0.0
C1766 C 0.65182 0.20211 0.79488 0.0
C1767 C 0.64475 0.16671 0.75854 0.0
C1768 C 0.66359 0.18694 0.81885 0.0
C1769 C 0.65665 0.15216 0.78315 0.0
C1770 C 0.62496 0.28055 0.79032 0.0
C1771 C 0.5987 0.31209 0.81373 0.0
N1772 N 0.61882 0.32559 0.82211 0.0
C1773 C 0.64538 0.29458 0.79962 0.0
C1774 C 0.60145 0.28922 0.79787 0.0
C1775 C 0.6419 0.31736 0.8155 0.0
C1776 C 0.69011 0.26529 0.73914 0.0
N1777 N 0.68081 0.24219 0.73945 0.0
C1778 C 0.72112 0.22511 0.73788 0.0
C1779 C 0.69568 0.22221 0.73815 0.0
C1780 C 0.73135 0.24881 0.739 0.0
C1781 C 0.7154 0.26907 0.7394 0.0
H1782 H 0.6778 0.28083 0.73852 0.0
H1783 H 0.68787 0.20402 0.73679 0.0
C1784 C 0.58309 0.19092 0.80123 0.0
N1785 N 0.59248 0.21387 0.80514 0.0
C1786 C 0.57131 0.1793 0.82883 0.0
C1787 C 0.58022 0.21459 0.86461 0.0
C1788 C 0.59143 0.22575 0.83608 0.0
C1789 C 0.5698 0.19116 0.861 0.0
H1790 H 0.58464 0.18169 0.77653 0.0
H1791 H 0.59929 0.24386 0.83862 0.0
C1792 C 0.64886 0.24842 0.66786 0.0
N1793 N 0.6812 0.23992 0.61408 0.0
C1794 C 0.65428 0.2671 0.64428 0.0
C1795 C 0.65986 0.22541 0.66409 0.0
C1796 C 0.67068 0.26244 0.61725 0.0
C1797 C 0.67617 0.22148 0.63673 0.0
C1798 C 0.5628 0.22759 0.73794 0.0
C1799 C 0.55603 0.20497 0.72373 0.0
C1800 C 0.54777 0.23848 0.76297 0.0
C1801 C 0.53457 0.19351 0.7351 0.0
C1802 C 0.52663 0.22626 0.77399 0.0
N1803 N 0.5205 0.20424 0.75991 0.0
C1804 C 0.60899 0.18189 0.66001 0.0
C1805 C 0.58964 0.21821 0.64 0.0
C1806 C 0.59863 0.16844 0.63295 0.0
N1807 N 0.6037 0.2061 0.66349 0.0
C1808 C 0.57889 0.2055 0.61259 0.0
C1809 C 0.58265 0.18011 0.60956 0.0
H1810 H 0.62023 0.17282 0.67919 0.0
H1811 H 0.58569 0.23748 0.64376 0.0
C1812 C 0.61686 0.31162 0.70558 0.0
N1813 N 0.59954 0.29605 0.71811 0.0
C1814 C 0.60995 0.33162 0.68519 0.0
C1815 C 0.56749 0.32018 0.69369 0.0
C1816 C 0.57523 0.30034 0.71371 0.0
C1817 C 0.58502 0.3354 0.67772 0.0
H1818 H 0.63609 0.3073 0.70891 0.0
H1819 H 0.56196 0.2872 0.72316 0.0
O1820 O 0.63047 0.20623 0.74064 0.0
O1821 O 0.62798 0.25816 0.7748 0.0
O1822 O 0.63297 0.25283 0.69458 0.0
O1823 O 0.5841 0.23886 0.72775 0.0
H1824 H 0.65017 0.22151 0.80005 0.0
H1825 H 0.63743 0.15847 0.73523 0.0
H1826 H 0.671 0.19461 0.84248 0.0
H1827 H 0.65863 0.13265 0.7789 0.0
H1828 H 0.58057 0.31909 0.81942 0.0
H1829 H 0.66375 0.28786 0.79514 0.0
H1830 H 0.5855 0.27847 0.79131 0.0
H1831 H 0.65755 0.32842 0.82274 0.0
H1832 H 0.7326 0.20893 0.7365 0.0
H1833 H 0.72228 0.28768 0.74046 0.0
H1834 H 0.5638 0.16108 0.82521 0.0
H1835 H 0.57939 0.22429 0.88907 0.0
H1836 H 0.64591 0.28501 0.64686 0.0
H1837 H 0.65595 0.21074 0.68212 0.0
H1838 H 0.67505 0.27673 0.59881 0.0
H1839 H 0.68485 0.20378 0.63354 0.0
H1840 H 0.56731 0.19609 0.70452 0.0
H1841 H 0.55246 0.25602 0.77414 0.0
H1842 H 0.52923 0.17595 0.72441 0.0
H1843 H 0.51519 0.23421 0.79389 0.0
H1844 H 0.60209 0.14891 0.63134 0.0
H1845 H 0.56639 0.21512 0.5955 0.0
H1846 H 0.624 0.34297 0.67349 0.0
H1847 H 0.5481 0.32212 0.68818 0.0
Li1848 Li 0.00892 0.39607 0.98806 0.0
Li1849 Li 0.01988 0.35722 0.01544 0.0
Li1850 Li 0.02512 0.36247 0.95357 0.0
Li1851 Li 0.98458 0.35981 0.98026 0.0
C1852 C 0.05687 0.39236 0.01436 0.0
N1853 N 0.08626 0.41571 0.0625 0.0
C1854 C 0.04665 0.40179 0.04483 0.0
C1855 C 0.08205 0.39473 0.00849 0.0
C1856 C 0.06182 0.41355 0.06881 0.0
C1857 C 0.09659 0.40663 0.0331 0.0
C1858 C 0.96823 0.37488 0.04025 0.0
C1859 C 0.93672 0.34858 0.06364 0.0
N1860 N 0.92321 0.36868 0.07203 0.0
C1861 C 0.95418 0.39529 0.04956 0.0
C1862 C 0.95959 0.35136 0.04778 0.0
C1863 C 0.93142 0.39178 0.06544 0.0
C1864 C 0.98347 0.44009 0.98914 0.0
N1865 N 0.00657 0.43079 0.98943 0.0
C1866 C 0.02364 0.47112 0.98788 0.0
C1867 C 0.02655 0.44567 0.98813 0.0
C1868 C -5e-05 0.48134 0.98902 0.0
C1869 C 0.97969 0.46538 0.98942 0.0
H1870 H 0.96793 0.42778 0.98851 0.0
H1871 H 0.04473 0.43787 0.98676 0.0
C1872 C 0.05786 0.33304 0.05113 0.0
N1873 N 0.03492 0.34244 0.05504 0.0
C1874 C 0.06949 0.32127 0.07872 0.0
C1875 C 0.03421 0.33017 0.11451 0.0
C1876 C 0.02305 0.34138 0.08599 0.0
C1877 C 0.05763 0.31975 0.1109 0.0
H1878 H 0.06709 0.3346 0.02643 0.0
H1879 H 0.00494 0.34924 0.08853 0.0
C1880 C 0.00034 0.39887 0.91782 0.0
N1881 N 0.00883 0.43124 0.86406 0.0
C1882 C 0.98167 0.40429 0.89424 0.0
C1883 C 0.02335 0.40989 0.91405 0.0
C1884 C 0.98632 0.42071 0.86723 0.0
C1885 C 0.02727 0.42621 0.88671 0.0
C1886 C 0.02121 0.31277 0.98781 0.0
C1887 C 0.04384 0.30602 0.97358 0.0
C1888 C 0.01035 0.29771 0.01282 0.0
C1889 C 0.05532 0.28456 0.98492 0.0
C1890 C 0.02257 0.27657 0.0238 0.0
N1891 N 0.04459 0.27046 0.00971 0.0
C1892 C 0.06687 0.35904 0.9099 0.0
C1893 C 0.03057 0.33966 0.88991 0.0
C1894 C 0.08032 0.34869 0.88283 0.0
N1895 N 0.04267 0.35372 0.91339 0.0
C1896 C 0.04328 0.32892 0.86248 0.0
C1897 C 0.06866 0.3327 0.85944 0.0
H1898 H 0.07594 0.37028 0.92909 0.0
H1899 H 0.0113 0.33569 0.89368 0.0
C1900 C 0.93717 0.36682 0.9555 0.0
N1901 N 0.95275 0.3495 0.96802 0.0
C1902 C 0.91718 0.35991 0.93511 0.0
C1903 C 0.92863 0.31744 0.94358 0.0
C1904 C 0.94846 0.32518 0.96361 0.0
C1905 C 0.9134 0.33497 0.92763 0.0
H1906 H 0.94149 0.38605 0.95885 0.0
H1907 H 0.9616 0.31191 0.97304 0.0
O1908 O 0.04254 0.38045 0.99058 0.0
O1909 O 0.99062 0.37793 0.02473 0.0
O1910 O 0.99595 0.38296 0.94452 0.0
O1911 O 0.00993 0.33408 0.97765 0.0
H1912 H 0.02726 0.40014 0.05 0.0
H1913 H 0.09029 0.38742 0.98517 0.0
H1914 H 0.05415 0.42096 0.09244 0.0
H1915 H 0.11611 0.40861 0.02886 0.0
H1916 H 0.92975 0.33044 0.06932 0.0
H1917 H 0.96089 0.41367 0.04509 0.0
H1918 H 0.97035 0.33542 0.04121 0.0
H1919 H 0.92033 0.40742 0.07268 0.0
H1920 H 0.03981 0.4826 0.98651 0.0
H1921 H 0.96108 0.47226 0.99048 0.0
H1922 H 0.08771 0.31376 0.07511 0.0
H1923 H 0.02451 0.32934 0.13898 0.0
H1924 H 0.96376 0.39591 0.89681 0.0
H1925 H 0.03802 0.40597 0.93208 0.0
H1926 H 0.97203 0.42509 0.84879 0.0
H1927 H 0.04497 0.43489 0.88352 0.0
H1928 H 0.05271 0.31733 0.95439 0.0
H1929 H 0.9928 0.30238 0.02399 0.0
H1930 H 0.07287 0.27924 0.97423 0.0
H1931 H 0.01463 0.26511 0.04369 0.0
H1932 H 0.09985 0.35217 0.88121 0.0
H1933 H 0.03367 0.31642 0.8454 0.0
H1934 H 0.90582 0.37395 0.92343 0.0
H1935 H 0.92669 0.29805 0.93807 0.0
Li1936 Li 0.85267 0.75891 0.23813 0.0
Li1937 Li 0.89151 0.76985 0.26554 0.0
Li1938 Li 0.88629 0.77509 0.20366 0.0
Li1939 Li 0.88893 0.73455 0.23035 0.0
C1940 C 0.85639 0.80686 0.26443 0.0
N1941 N 0.83302 0.83626 0.31255 0.0
C1942 C 0.84695 0.79664 0.29489 0.0
C1943 C 0.85402 0.83204 0.25856 0.0
C1944 C 0.83518 0.81181 0.31886 0.0
C1945 C 0.84212 0.84659 0.28316 0.0
C1946 C 0.87381 0.71821 0.29033 0.0
C1947 C 0.90008 0.68667 0.31374 0.0
N1948 N 0.87996 0.67317 0.32213 0.0
C1949 C 0.85339 0.70417 0.29963 0.0
C1950 C 0.89733 0.70953 0.29788 0.0
C1951 C 0.85688 0.6814 0.31552 0.0
C1952 C 0.80866 0.73346 0.23916 0.0
N1953 N 0.81796 0.75656 0.23946 0.0
C1954 C 0.77765 0.77364 0.23789 0.0
C1955 C 0.80308 0.77655 0.23816 0.0
C1956 C 0.76742 0.74994 0.23902 0.0
C1957 C 0.78337 0.72968 0.23942 0.0
H1958 H 0.82097 0.71792 0.23854 0.0
H1959 H 0.81089 0.79473 0.2368 0.0
C1960 C 0.91568 0.80784 0.30123 0.0
N1961 N 0.90629 0.78489 0.30515 0.0
C1962 C 0.92746 0.81946 0.32883 0.0
C1963 C 0.91855 0.78417 0.36461 0.0
C1964 C 0.90734 0.77301 0.33609 0.0
C1965 C 0.92897 0.8076 0.36101 0.0
H1966 H 0.91413 0.81707 0.27653 0.0
H1967 H 0.89948 0.7549 0.33863 0.0
C1968 C 0.84991 0.75033 0.16788 0.0
N1969 N 0.81757 0.75882 0.11409 0.0
C1970 C 0.84449 0.73165 0.1443 0.0
C1971 C 0.8389 0.77334 0.1641 0.0
C1972 C 0.82809 0.73631 0.11727 0.0
C1973 C 0.82259 0.77727 0.13675 0.0
C1974 C 0.93597 0.77117 0.23795 0.0
C1975 C 0.94274 0.79379 0.22373 0.0
C1976 C 0.951 0.76029 0.26298 0.0
C1977 C 0.9642 0.80526 0.2351 0.0
C1978 C 0.97213 0.7725 0.27399 0.0
N1979 N 0.97827 0.79452 0.25991 0.0
C1980 C 0.88976 0.81686 0.16002 0.0
C1981 C 0.90912 0.78054 0.14001 0.0
C1982 C 0.90012 0.83031 0.13296 0.0
N1983 N 0.89506 0.79265 0.16349 0.0
C1984 C 0.91987 0.79325 0.11259 0.0
C1985 C 0.91611 0.81865 0.10957 0.0
H1986 H 0.87852 0.82593 0.1792 0.0
H1987 H 0.91307 0.76127 0.14377 0.0
C1988 C 0.88191 0.68713 0.20559 0.0
N1989 N 0.89923 0.70271 0.21812 0.0
C1990 C 0.88882 0.66714 0.1852 0.0
C1991 C 0.93129 0.67858 0.19369 0.0
C1992 C 0.92355 0.69842 0.21372 0.0
C1993 C 0.91376 0.66336 0.17773 0.0
H1994 H 0.86268 0.69145 0.20893 0.0
H1995 H 0.93682 0.71156 0.22316 0.0
O1996 O 0.8683 0.79252 0.24065 0.0
O1997 O 0.87079 0.7406 0.27481 0.0
O1998 O 0.8658 0.74593 0.19459 0.0
O1999 O 0.91466 0.75989 0.22776 0.0
H2000 H 0.8486 0.77724 0.30007 0.0
H2001 H 0.86133 0.84028 0.23524 0.0
H2002 H 0.82777 0.80414 0.34249 0.0
H2003 H 0.84014 0.86611 0.27891 0.0
H2004 H 0.91821 0.67967 0.31943 0.0
H2005 H 0.83503 0.7109 0.29516 0.0
H2006 H 0.91327 0.72029 0.29132 0.0
H2007 H 0.84123 0.67033 0.32276 0.0
H2008 H 0.76617 0.78982 0.23651 0.0
H2009 H 0.77649 0.71107 0.24048 0.0
H2010 H 0.93497 0.83768 0.32522 0.0
H2011 H 0.91938 0.77447 0.38908 0.0
H2012 H 0.85286 0.71374 0.14687 0.0
H2013 H 0.84281 0.78801 0.18213 0.0
H2014 H 0.82371 0.72202 0.09883 0.0
H2015 H 0.81392 0.79497 0.13355 0.0
H2016 H 0.93145 0.80267 0.20452 0.0
H2017 H 0.94631 0.74275 0.27415 0.0
H2018 H 0.96954 0.82281 0.22441 0.0
H2019 H 0.98358 0.76456 0.2939 0.0
H2020 H 0.89666 0.84985 0.13134 0.0
H2021 H 0.93236 0.78364 0.09551 0.0
H2022 H 0.87478 0.65579 0.17351 0.0
H2023 H 0.95067 0.67664 0.18819 0.0
Li2024 Li 0.47887 0.64154 0.51543 0.0
Li2025 Li 0.48983 0.60269 0.48805 0.0
Li2026 Li 0.51418 0.63895 0.48025 0.0
Li2027 Li 0.47364 0.63628 0.45356 0.0
C2028 C 0.53052 0.62388 0.54024 0.0
N2029 N 0.57554 0.63008 0.57202 0.0
C2030 C 0.54457 0.60347 0.54955 0.0
C2031 C 0.53916 0.6474 0.54777 0.0
C2032 C 0.56734 0.60698 0.56542 0.0
C2033 C 0.56203 0.65018 0.56363 0.0
C2034 C 0.44188 0.6064 0.51435 0.0
C2035 C 0.40216 0.59213 0.53309 0.0
N2036 N 0.41249 0.58304 0.56248 0.0
C2037 C 0.4521 0.59697 0.54482 0.0
C2038 C 0.4167 0.60402 0.50847 0.0
C2039 C 0.43693 0.58521 0.56879 0.0
C2040 C 0.44089 0.66572 0.55111 0.0
N2041 N 0.46383 0.65632 0.55503 0.0
C2042 C 0.46455 0.66859 0.61449 0.0
C2043 C 0.47571 0.65738 0.58597 0.0
C2044 C 0.44112 0.67901 0.61089 0.0
C2045 C 0.42926 0.67749 0.57871 0.0
H2046 H 0.43166 0.66416 0.52641 0.0
H2047 H 0.49381 0.64952 0.58852 0.0
C2048 C 0.51529 0.55867 0.48913 0.0
N2049 N 0.49218 0.56796 0.48942 0.0
C2050 C 0.51906 0.53338 0.48941 0.0
C2051 C 0.47511 0.52764 0.48788 0.0
C2052 C 0.47221 0.55308 0.48813 0.0
C2053 C 0.49881 0.51742 0.48902 0.0
H2054 H 0.53082 0.57099 0.4885 0.0
H2055 H 0.45402 0.56089 0.48676 0.0
C2056 C 0.47754 0.68599 0.48779 0.0
N2057 N 0.45416 0.7283 0.50969 0.0
C2058 C 0.45492 0.69274 0.47357 0.0
C2059 C 0.48841 0.70105 0.5128 0.0
C2060 C 0.44344 0.7142 0.4849 0.0
C2061 C 0.47618 0.72219 0.52378 0.0
C2062 C 0.49841 0.59989 0.41781 0.0
C2063 C 0.51708 0.59446 0.39423 0.0
C2064 C 0.4754 0.58887 0.41404 0.0
C2065 C 0.51243 0.57805 0.36722 0.0
C2066 C 0.47148 0.57255 0.3867 0.0
N2067 N 0.48992 0.56751 0.36405 0.0
C2068 C 0.56158 0.63193 0.45549 0.0
C2069 C 0.55029 0.67358 0.4636 0.0
C2070 C 0.58157 0.63885 0.4351 0.0
N2071 N 0.546 0.64926 0.46801 0.0
C2072 C 0.57013 0.68132 0.44358 0.0
C2073 C 0.58535 0.66378 0.42763 0.0
H2074 H 0.55727 0.6127 0.45883 0.0
H2075 H 0.53715 0.68685 0.47303 0.0
C2076 C 0.43188 0.63972 0.40989 0.0
N2077 N 0.45608 0.64504 0.41338 0.0
C2078 C 0.41843 0.65007 0.38282 0.0
C2079 C 0.45548 0.66984 0.36247 0.0
C2080 C 0.46819 0.6591 0.38989 0.0
C2081 C 0.43009 0.66606 0.35943 0.0
H2082 H 0.42282 0.62847 0.42907 0.0
H2083 H 0.48745 0.66306 0.39366 0.0
O2084 O 0.50813 0.62083 0.52472 0.0
O2085 O 0.45622 0.6183 0.49056 0.0
O2086 O 0.48882 0.66468 0.47763 0.0
O2087 O 0.50281 0.61579 0.44451 0.0
H2088 H 0.53786 0.58509 0.54508 0.0
H2089 H 0.52839 0.66334 0.5412 0.0
H2090 H 0.57842 0.59134 0.57267 0.0
H2091 H 0.569 0.66832 0.56931 0.0
H2092 H 0.38264 0.59015 0.52884 0.0
H2093 H 0.47149 0.59862 0.54999 0.0
H2094 H 0.40846 0.61133 0.48516 0.0
H2095 H 0.4446 0.5778 0.59243 0.0
H2096 H 0.47424 0.66942 0.63896 0.0
H2097 H 0.41104 0.685 0.57509 0.0
H2098 H 0.53767 0.5265 0.49047 0.0
H2099 H 0.45894 0.51616 0.48651 0.0
H2100 H 0.44604 0.68143 0.45438 0.0
H2101 H 0.50595 0.69638 0.52397 0.0
H2102 H 0.42588 0.71952 0.47421 0.0
H2103 H 0.48413 0.73366 0.54366 0.0
H2104 H 0.53499 0.60285 0.3968 0.0
H2105 H 0.46074 0.59279 0.43207 0.0
H2106 H 0.52672 0.57367 0.34878 0.0
H2107 H 0.45379 0.56386 0.38351 0.0
H2108 H 0.59293 0.6248 0.42342 0.0
H2109 H 0.57206 0.7007 0.43807 0.0
H2110 H 0.3989 0.64659 0.3812 0.0
H2111 H 0.46509 0.68234 0.34538 0.0
Li2112 Li 0.36999 0.21136 0.20177 0.0
Li2113 Li 0.38315 0.21842 0.26397 0.0
Li2114 Li 0.34156 0.23253 0.24152 0.0
Li2115 Li 0.37849 0.25092 0.22207 0.0
C2116 C 0.35219 0.17345 0.24718 0.0
N2117 N 0.34715 0.12306 0.25123 0.0
C2118 C 0.37258 0.15869 0.25395 0.0
C2119 C 0.32916 0.16257 0.2428 0.0
C2120 C 0.36969 0.13326 0.25579 0.0
C2121 C 0.32701 0.13707 0.24484 0.0
C2122 C 0.42295 0.23308 0.20977 0.0
C2123 C 0.4624 0.25118 0.22196 0.0
N2124 N 0.46594 0.25482 0.18746 0.0
C2125 C 0.42704 0.23688 0.17442 0.0
C2126 C 0.44078 0.24022 0.23377 0.0
C2127 C 0.44887 0.24796 0.16366 0.0
C2128 C 0.37351 0.2036 0.13028 0.0
N2129 N 0.37568 0.19188 0.16128 0.0
C2130 C 0.39728 0.15886 0.13433 0.0
C2131 C 0.38672 0.16959 0.16362 0.0
C2132 C 0.39679 0.17142 0.1025 0.0
C2133 C 0.38377 0.19355 0.1004 0.0
H2134 H 0.36573 0.22179 0.1291 0.0
H2135 H 0.38921 0.16106 0.18856 0.0
C2136 C 0.38858 0.20639 0.33445 0.0
N2137 N 0.39979 0.20507 0.30307 0.0
C2138 C 0.39965 0.1961 0.3637 0.0
C2139 C 0.43366 0.18336 0.32776 0.0
C2140 C 0.42194 0.19394 0.29923 0.0
C2141 C 0.42247 0.18425 0.36056 0.0
H2142 H 0.37088 0.21523 0.33665 0.0
H2143 H 0.43034 0.19295 0.27389 0.0
C2144 C 0.33008 0.23557 0.17333 0.0
N2145 N 0.28914 0.2245 0.13396 0.0
C2146 C 0.31875 0.25374 0.15335 0.0
C2147 C 0.32047 0.2118 0.17329 0.0
C2148 C 0.2981 0.24778 0.13363 0.0
C2149 C 0.29982 0.20655 0.15321 0.0
C2150 C 0.37327 0.27269 0.28237 0.0
C2151 C 0.36036 0.29373 0.27261 0.0
C2152 C 0.39367 0.27473 0.30411 0.0
C2153 C 0.3683 0.31661 0.28448 0.0
C2154 C 0.40098 0.29794 0.31551 0.0
N2155 N 0.38827 0.31822 0.3055 0.0
C2156 C 0.29489 0.22207 0.27164 0.0
C2157 C 0.29807 0.25857 0.23858 0.0
C2158 C 0.26975 0.22592 0.27623 0.0
N2159 N 0.30831 0.23814 0.25257 0.0
C2160 C 0.27303 0.26296 0.24204 0.0
C2161 C 0.25838 0.24637 0.26072 0.0
H2162 H 0.30363 0.2061 0.28278 0.0
H2163 H 0.30929 0.27111 0.22375 0.0
C2164 C 0.38339 0.2869 0.17246 0.0
N2165 N 0.39237 0.28066 0.20408 0.0
C2166 C 0.39454 0.30517 0.15293 0.0
C2167 C 0.42377 0.31111 0.19924 0.0
C2168 C 0.4118 0.29278 0.21815 0.0
C2169 C 0.41546 0.31703 0.16579 0.0
H2170 H 0.36848 0.27665 0.16128 0.0
H2171 H 0.41897 0.28728 0.24303 0.0
O2172 O 0.35454 0.19844 0.2459 0.0
O2173 O 0.40157 0.2225 0.22085 0.0
O2174 O 0.34997 0.24138 0.19354 0.0
O2175 O 0.36583 0.25016 0.27103 0.0
H2176 H 0.39055 0.16672 0.2571 0.0
H2177 H 0.31309 0.17369 0.23788 0.0
H2178 H 0.38538 0.12163 0.26077 0.0
H2179 H 0.30932 0.12842 0.24139 0.0
H2180 H 0.47627 0.25696 0.24026 0.0
H2181 H 0.41341 0.2316 0.1555 0.0
H2182 H 0.4378 0.23773 0.26125 0.0
H2183 H 0.45219 0.25117 0.1364 0.0
H2184 H 0.4076 0.14202 0.13736 0.0
H2185 H 0.383 0.20384 0.07641 0.0
H2186 H 0.39017 0.19693 0.38832 0.0
H2187 H 0.45133 0.17465 0.32417 0.0
H2188 H 0.3256 0.27237 0.15339 0.0
H2189 H 0.32893 0.19747 0.18835 0.0
H2190 H 0.28914 0.2617 0.11816 0.0
H2191 H 0.29228 0.18819 0.15294 0.0
H2192 H 0.34453 0.29241 0.25581 0.0
H2193 H 0.40383 0.2586 0.3119 0.0
H2194 H 0.3586 0.33308 0.27697 0.0
H2195 H 0.41679 0.29983 0.33223 0.0
H2196 H 0.25936 0.21291 0.2915 0.0
H2197 H 0.26519 0.27877 0.22918 0.0
H2198 H 0.38785 0.30869 0.12698 0.0
H2199 H 0.43992 0.31981 0.21001 0.0
Li2200 Li 0.49787 0.6285 0.97198 0.0
Li2201 Li 0.51624 0.59157 0.99145 0.0
Li2202 Li 0.53036 0.63316 0.01389 0.0
Li2203 Li 0.53743 0.61998 0.9517 0.0
C2204 C 0.47609 0.62331 0.03228 0.0
N2205 N 0.43058 0.63833 0.0554 0.0
C2206 C 0.45505 0.61041 0.02251 0.0
C2207 C 0.47406 0.64371 0.05402 0.0
C2208 C 0.43218 0.61836 0.03438 0.0
C2209 C 0.45086 0.65103 0.06542 0.0
C2210 C 0.5132 0.58007 0.92327 0.0
C2211 C 0.5422 0.54978 0.90317 0.0
N2212 N 0.52424 0.5391 0.88393 0.0
C2213 C 0.49503 0.56874 0.9033 0.0
C2214 C 0.53697 0.57044 0.92324 0.0
C2215 C 0.50097 0.54808 0.88359 0.0
C2216 C 0.46193 0.63343 0.92233 0.0
N2217 N 0.46815 0.64239 0.95396 0.0
C2218 C 0.43769 0.67379 0.94911 0.0
C2219 C 0.45602 0.66182 0.96803 0.0
C2220 C 0.43179 0.66548 0.91565 0.0
C2221 C 0.44367 0.64458 0.90279 0.0
H2222 H 0.47219 0.61852 0.91115 0.0
H2223 H 0.4615 0.66898 0.99292 0.0
C2224 C 0.52668 0.5449 0.0216 0.0
N2225 N 0.51062 0.55831 0.00253 0.0
C2226 C 0.52283 0.51976 0.02621 0.0
C2227 C 0.48581 0.52303 0.99201 0.0
C2228 C 0.49019 0.54807 0.98854 0.0
C2229 C 0.50238 0.50838 0.0107 0.0
H2230 H 0.54265 0.55364 0.03274 0.0
H2231 H 0.47766 0.55929 0.9737 0.0
C2232 C 0.51573 0.67295 0.95968 0.0
N2233 N 0.494 0.71596 0.93735 0.0
C2234 C 0.51195 0.67706 0.92432 0.0
C2235 C 0.50857 0.69079 0.98367 0.0
C2236 C 0.50087 0.69888 0.91356 0.0
C2237 C 0.49761 0.71241 0.97186 0.0
C2238 C 0.57532 0.60217 0.99713 0.0
C2239 C 0.59008 0.62257 0.00389 0.0
C2240 C 0.58619 0.57914 0.99276 0.0
C2241 C 0.61551 0.61967 0.00574 0.0
C2242 C 0.61169 0.57698 0.99479 0.0
N2243 N 0.6257 0.59713 0.00118 0.0
C2244 C 0.54239 0.63859 0.08437 0.0
C2245 C 0.55484 0.67196 0.04915 0.0
C2246 C 0.55269 0.64967 0.11361 0.0
N2247 N 0.54371 0.6498 0.05298 0.0
C2248 C 0.56542 0.68368 0.07767 0.0
C2249 C 0.56453 0.67249 0.11048 0.0
H2250 H 0.53355 0.62089 0.08657 0.0
H2251 H 0.55583 0.68036 0.0238 0.0
C2252 C 0.54521 0.62347 0.88021 0.0
N2253 N 0.55692 0.62565 0.91121 0.0
C2254 C 0.55526 0.63372 0.85032 0.0
C2255 C 0.58994 0.64725 0.88427 0.0
C2256 C 0.5792 0.63669 0.91356 0.0
C2257 C 0.57739 0.64675 0.85243 0.0
H2258 H 0.52702 0.61569 0.87903 0.0
H2259 H 0.58772 0.63918 0.9385 0.0
O2260 O 0.49862 0.61585 0.02094 0.0
O2261 O 0.5074 0.59997 0.94347 0.0
O2262 O 0.5263 0.65158 0.97075 0.0
O2263 O 0.55033 0.60454 0.99584 0.0
H2264 H 0.45637 0.59456 0.00572 0.0
H2265 H 0.4902 0.65387 0.06181 0.0
H2266 H 0.41571 0.60866 0.02687 0.0
H2267 H 0.44897 0.66684 0.08213 0.0
H2268 H 0.56055 0.54222 0.90291 0.0
H2269 H 0.47641 0.5756 0.90333 0.0
H2270 H 0.55129 0.57889 0.9383 0.0
H2271 H 0.48706 0.53912 0.86813 0.0
H2272 H 0.42899 0.68994 0.95988 0.0
H2273 H 0.44016 0.63788 0.87683 0.0
H2274 H 0.53584 0.50937 0.04149 0.0
H2275 H 0.47 0.51519 0.97916 0.0
H2276 H 0.51725 0.66343 0.9054 0.0
H2277 H 0.51105 0.6878 0.01116 0.0
H2278 H 0.49768 0.70222 0.8863 0.0
H2279 H 0.49182 0.72628 0.99016 0.0
H2280 H 0.58205 0.64054 0.00704 0.0
H2281 H 0.57507 0.56307 0.98783 0.0
H2282 H 0.62714 0.63536 0.01071 0.0
H2283 H 0.62033 0.55929 0.99136 0.0
H2284 H 0.55185 0.64019 0.13824 0.0
H2285 H 0.57413 0.70135 0.07408 0.0
H2286 H 0.54497 0.63295 0.82634 0.0
H2287 H 0.60678 0.65756 0.8873 0.0
Li2288 Li 0.12877 0.7874 0.70178 0.0
Li2289 Li 0.11561 0.78033 0.76398 0.0
Li2290 Li 0.15719 0.76622 0.74152 0.0
Li2291 Li 0.12027 0.74783 0.72208 0.0
C2292 C 0.14658 0.82531 0.74719 0.0
N2293 N 0.15161 0.87569 0.75124 0.0
C2294 C 0.12618 0.84006 0.75395 0.0
C2295 C 0.1696 0.83618 0.74281 0.0
C2296 C 0.12907 0.8655 0.7558 0.0
C2297 C 0.17175 0.86168 0.74485 0.0
C2298 C 0.07581 0.76568 0.70977 0.0
C2299 C 0.03636 0.74758 0.72196 0.0
N2300 N 0.03282 0.74394 0.68745 0.0
C2301 C 0.07172 0.76188 0.67442 0.0
C2302 C 0.05798 0.75853 0.73377 0.0
C2303 C 0.0499 0.7508 0.66366 0.0
C2304 C 0.12525 0.79516 0.63029 0.0
N2305 N 0.12308 0.80688 0.66128 0.0
C2306 C 0.10148 0.8399 0.63434 0.0
C2307 C 0.11205 0.82917 0.66363 0.0
C2308 C 0.10198 0.82734 0.60251 0.0
C2309 C 0.115 0.80521 0.6004 0.0
H2310 H 0.13303 0.77697 0.62911 0.0
H2311 H 0.10956 0.83769 0.68857 0.0
C2312 C 0.11018 0.79237 0.83446 0.0
N2313 N 0.09897 0.79369 0.80307 0.0
C2314 C 0.0991 0.80266 0.8637 0.0
C2315 C 0.0651 0.8154 0.82776 0.0
C2316 C 0.07682 0.80482 0.79924 0.0
C2317 C 0.07629 0.8145 0.86057 0.0
H2318 H 0.12787 0.78352 0.83666 0.0
H2319 H 0.06842 0.80581 0.77389 0.0
C2320 C 0.16868 0.76318 0.67334 0.0
N2321 N 0.20962 0.77424 0.63398 0.0
C2322 C 0.18001 0.74501 0.65336 0.0
C2323 C 0.17829 0.78695 0.6733 0.0
C2324 C 0.20066 0.75097 0.63364 0.0
C2325 C 0.19894 0.7922 0.65322 0.0
C2326 C 0.12548 0.72606 0.78237 0.0
C2327 C 0.13839 0.70502 0.77261 0.0
C2328 C 0.10509 0.72402 0.80412 0.0
C2329 C 0.13045 0.68215 0.78448 0.0
C2330 C 0.09778 0.70082 0.81552 0.0
N2331 N 0.11048 0.68054 0.8055 0.0
C2332 C 0.20386 0.77668 0.77165 0.0
C2333 C 0.20069 0.74018 0.73859 0.0
C2334 C 0.229 0.77283 0.77624 0.0
N2335 N 0.19045 0.76061 0.75259 0.0
C2336 C 0.22572 0.73579 0.74205 0.0
C2337 C 0.24038 0.75238 0.76073 0.0
H2338 H 0.19513 0.79265 0.78279 0.0
H2339 H 0.18947 0.72764 0.72376 0.0
C2340 C 0.11536 0.71186 0.67246 0.0
N2341 N 0.10639 0.7181 0.70409 0.0
C2342 C 0.10421 0.69358 0.65294 0.0
C2343 C 0.07499 0.68764 0.69924 0.0
C2344 C 0.08696 0.70598 0.71815 0.0
C2345 C 0.0833 0.68172 0.66579 0.0
H2346 H 0.13028 0.7221 0.66128 0.0
H2347 H 0.07979 0.71148 0.74303 0.0
O2348 O 0.14422 0.80031 0.74591 0.0
O2349 O 0.09719 0.77626 0.72085 0.0
O2350 O 0.14879 0.75737 0.69354 0.0
O2351 O 0.13293 0.7486 0.77103 0.0
H2352 H 0.10821 0.83203 0.75711 0.0
H2353 H 0.18567 0.82506 0.73789 0.0
H2354 H 0.11338 0.87713 0.76077 0.0
H2355 H 0.18944 0.87033 0.74141 0.0
H2356 H 0.02249 0.7418 0.74025 0.0
H2357 H 0.08535 0.76716 0.6555 0.0
H2358 H 0.06096 0.76103 0.76125 0.0
H2359 H 0.04657 0.74759 0.6364 0.0
H2360 H 0.09117 0.85674 0.63737 0.0
H2361 H 0.11577 0.79492 0.57642 0.0
H2362 H 0.10858 0.80182 0.88833 0.0
H2363 H 0.04743 0.82411 0.82417 0.0
H2364 H 0.17316 0.72639 0.6534 0.0
H2365 H 0.16983 0.80128 0.68836 0.0
H2366 H 0.20962 0.73705 0.61818 0.0
H2367 H 0.20649 0.81056 0.65296 0.0
H2368 H 0.15423 0.70634 0.75582 0.0
H2369 H 0.09492 0.74016 0.8119 0.0
H2370 H 0.14015 0.66567 0.77697 0.0
H2371 H 0.08196 0.69892 0.83224 0.0
H2372 H 0.23939 0.78584 0.79152 0.0
H2373 H 0.23356 0.71998 0.72919 0.0
H2374 H 0.11091 0.69007 0.62698 0.0
H2375 H 0.05883 0.67895 0.71001 0.0
Li2376 Li 0.96134 0.37878 0.4517 0.0
Li2377 Li 0.96841 0.3656 0.51389 0.0
Li2378 Li 0.98253 0.40719 0.49145 0.0
Li2379 Li 0.0009 0.37026 0.47198 0.0
C2380 C 0.92344 0.39658 0.49712 0.0
N2381 N 0.87307 0.40162 0.50117 0.0
C2382 C 0.90869 0.37618 0.50388 0.0
C2383 C 0.91257 0.41961 0.49275 0.0
C2384 C 0.88326 0.37908 0.50573 0.0
C2385 C 0.88708 0.42177 0.49478 0.0
C2386 C 0.98305 0.3258 0.45968 0.0
C2387 C 0.00116 0.28635 0.47186 0.0
N2388 N 0.00478 0.2828 0.43735 0.0
C2389 C 0.98683 0.3217 0.42432 0.0
C2390 C 0.9902 0.30797 0.48367 0.0
C2391 C 0.99791 0.29988 0.41356 0.0
C2392 C 0.95357 0.37528 0.3802 0.0
N2393 N 0.94186 0.37311 0.4112 0.0
C2394 C 0.90884 0.35152 0.38426 0.0
C2395 C 0.91957 0.36207 0.41355 0.0
C2396 C 0.92139 0.35201 0.35242 0.0
C2397 C 0.94352 0.36504 0.35032 0.0
H2398 H 0.97176 0.38306 0.37903 0.0
H2399 H 0.91105 0.35958 0.43849 0.0
C2400 C 0.95637 0.36017 0.58437 0.0
N2401 N 0.95505 0.34896 0.55298 0.0
C2402 C 0.94608 0.34909 0.61361 0.0
C2403 C 0.93335 0.31508 0.57767 0.0
C2404 C 0.94392 0.3268 0.54915 0.0
C2405 C 0.93424 0.32627 0.61047 0.0
H2406 H 0.96521 0.37787 0.58656 0.0
H2407 H 0.94294 0.31839 0.5238 0.0
C2408 C 0.98557 0.41869 0.42327 0.0
N2409 N 0.97453 0.45966 0.38393 0.0
C2410 C 0.00374 0.43002 0.4033 0.0
C2411 C 0.9618 0.42832 0.42324 0.0
C2412 C 0.9978 0.45068 0.38359 0.0
C2413 C 0.95657 0.44898 0.40317 0.0
C2414 C 0.02267 0.37546 0.53229 0.0
C2415 C 0.04371 0.38836 0.52252 0.0
C2416 C 0.02471 0.35506 0.55403 0.0
C2417 C 0.06658 0.38041 0.5344 0.0
C2418 C 0.04791 0.34774 0.56543 0.0
N2419 N 0.06818 0.36044 0.55541 0.0
C2420 C 0.97208 0.45386 0.5216 0.0
C2421 C 0.00857 0.45069 0.48854 0.0
C2422 C 0.97593 0.479 0.52621 0.0
N2423 N 0.98814 0.44045 0.50253 0.0
C2424 C 0.01296 0.47573 0.49202 0.0
C2425 C 0.99637 0.49038 0.5107 0.0
H2426 H 0.95611 0.44512 0.53274 0.0
H2427 H 0.0211 0.43947 0.4737 0.0
C2428 C 0.03684 0.36534 0.42234 0.0
N2429 N 0.03062 0.35637 0.45397 0.0
C2430 C 0.05511 0.35419 0.40281 0.0
C2431 C 0.06108 0.32497 0.44912 0.0
C2432 C 0.04275 0.33695 0.46804 0.0
C2433 C 0.06699 0.33328 0.41567 0.0
H2434 H 0.02659 0.38025 0.41116 0.0
H2435 H 0.03726 0.32978 0.49293 0.0
O2436 O 0.94843 0.39422 0.49584 0.0
O2437 O 0.97247 0.34718 0.47075 0.0
O2438 O 0.99137 0.39879 0.44347 0.0
O2439 O 0.00014 0.38291 0.52094 0.0
H2440 H 0.91672 0.35821 0.50703 0.0
H2441 H 0.92369 0.43569 0.48782 0.0
H2442 H 0.87163 0.36339 0.5107 0.0
H2443 H 0.87843 0.43946 0.49134 0.0
H2444 H 0.00695 0.27248 0.49015 0.0
H2445 H 0.98153 0.33533 0.4054 0.0
H2446 H 0.98772 0.31096 0.51115 0.0
H2447 H 0.0011 0.29655 0.3863 0.0
H2448 H 0.892 0.3412 0.38728 0.0
H2449 H 0.95381 0.36581 0.32633 0.0
H2450 H 0.94691 0.35857 0.63823 0.0
H2451 H 0.92464 0.29741 0.57408 0.0
H2452 H 0.02236 0.42316 0.40334 0.0
H2453 H 0.94748 0.41986 0.43829 0.0
H2454 H 0.01171 0.45964 0.36813 0.0
H2455 H 0.93822 0.45654 0.40291 0.0
H2456 H 0.04239 0.4042 0.50573 0.0
H2457 H 0.00857 0.34489 0.56181 0.0
H2458 H 0.08305 0.39011 0.52689 0.0
H2459 H 0.04979 0.33192 0.58215 0.0
H2460 H 0.96292 0.48939 0.54148 0.0
H2461 H 0.02876 0.48357 0.47916 0.0
H2462 H 0.05862 0.36088 0.37685 0.0
H2463 H 0.06978 0.30882 0.4599 0.0
Li2464 Li 0.37849 0.74784 0.27956 0.0
Li2465 Li 0.34156 0.76623 0.26012 0.0
Li2466 Li 0.38315 0.78034 0.23767 0.0
Li2467 Li 0.36999 0.7874 0.29986 0.0
C2468 C 0.37327 0.72607 0.21927 0.0
N2469 N 0.38827 0.68054 0.19614 0.0
C2470 C 0.36036 0.70503 0.22903 0.0
C2471 C 0.39366 0.72403 0.19752 0.0
C2472 C 0.3683 0.68215 0.21716 0.0
C2473 C 0.40097 0.70082 0.18612 0.0
C2474 C 0.33009 0.76319 0.32831 0.0
C2475 C 0.29983 0.79221 0.34844 0.0
N2476 N 0.28915 0.77426 0.36768 0.0
C2477 C 0.31875 0.74502 0.34829 0.0
C2478 C 0.32048 0.78697 0.32835 0.0
C2479 C 0.29811 0.75098 0.36801 0.0
C2480 C 0.3834 0.71186 0.32918 0.0
N2481 N 0.39237 0.7181 0.29755 0.0
C2482 C 0.42377 0.68764 0.3024 0.0
C2483 C 0.41179 0.70598 0.28349 0.0
C2484 C 0.41546 0.68173 0.33585 0.0
C2485 C 0.39455 0.69359 0.3487 0.0
H2486 H 0.36848 0.72211 0.34036 0.0
H2487 H 0.41896 0.71148 0.2586 0.0
C2488 C 0.29489 0.77669 0.23 0.0
N2489 N 0.3083 0.76062 0.24907 0.0
C2490 C 0.26975 0.77284 0.22541 0.0
C2491 C 0.27303 0.73581 0.2596 0.0
C2492 C 0.29807 0.74019 0.26306 0.0
C2493 C 0.25838 0.75239 0.24093 0.0
H2494 H 0.30363 0.79266 0.21886 0.0
H2495 H 0.30929 0.72765 0.2779 0.0
C2496 C 0.42295 0.76568 0.29185 0.0
N2497 N 0.46595 0.74394 0.31415 0.0
C2498 C 0.42705 0.76188 0.32721 0.0
C2499 C 0.44078 0.75853 0.26785 0.0
C2500 C 0.44887 0.7508 0.33796 0.0
C2501 C 0.4624 0.74757 0.27965 0.0
C2502 C 0.35218 0.82532 0.25446 0.0
C2503 C 0.37258 0.84007 0.24769 0.0
C2504 C 0.32916 0.83619 0.25884 0.0
C2505 C 0.36969 0.8655 0.24585 0.0
C2506 C 0.32701 0.86169 0.25681 0.0
N2507 N 0.34715 0.8757 0.25042 0.0
C2508 C 0.38857 0.79237 0.16718 0.0
C2509 C 0.42193 0.80483 0.2024 0.0
C2510 C 0.39965 0.80267 0.13794 0.0
N2511 N 0.39978 0.79369 0.19857 0.0
C2512 C 0.43365 0.8154 0.17387 0.0
C2513 C 0.42246 0.81451 0.14107 0.0
H2514 H 0.37088 0.78353 0.16498 0.0
H2515 H 0.43034 0.80581 0.22774 0.0
C2516 C 0.37352 0.79516 0.37136 0.0
N2517 N 0.37568 0.80688 0.34036 0.0
C2518 C 0.38378 0.80521 0.40124 0.0
C2519 C 0.39729 0.8399 0.3673 0.0
C2520 C 0.38672 0.82917 0.33802 0.0
C2521 C 0.3968 0.82734 0.39913 0.0
H2522 H 0.36574 0.77697 0.37253 0.0
H2523 H 0.3892 0.8377 0.31308 0.0
O2524 O 0.36582 0.74861 0.23061 0.0
O2525 O 0.34997 0.75738 0.3081 0.0
O2526 O 0.40157 0.77626 0.28079 0.0
O2527 O 0.35454 0.80032 0.25574 0.0
H2528 H 0.34452 0.70635 0.24583 0.0
H2529 H 0.40383 0.74016 0.18973 0.0
H2530 H 0.3586 0.66568 0.22467 0.0
H2531 H 0.41678 0.69893 0.1694 0.0
H2532 H 0.29229 0.81057 0.34871 0.0
H2533 H 0.3256 0.72639 0.34825 0.0
H2534 H 0.32893 0.80129 0.3133 0.0
H2535 H 0.28915 0.73706 0.38348 0.0
H2536 H 0.43992 0.67895 0.29162 0.0
H2537 H 0.38785 0.69007 0.37466 0.0
H2538 H 0.25936 0.78586 0.21014 0.0
H2539 H 0.26519 0.72 0.27246 0.0
H2540 H 0.41342 0.76716 0.34613 0.0
H2541 H 0.43779 0.76103 0.24037 0.0
H2542 H 0.45221 0.74759 0.36521 0.0
H2543 H 0.47627 0.7418 0.26135 0.0
H2544 H 0.39055 0.83204 0.24453 0.0
H2545 H 0.31309 0.82507 0.26377 0.0
H2546 H 0.38538 0.87714 0.24087 0.0
H2547 H 0.30932 0.87034 0.26026 0.0
H2548 H 0.39017 0.80183 0.11331 0.0
H2549 H 0.45132 0.82411 0.17747 0.0
H2550 H 0.38301 0.79491 0.42522 0.0
H2551 H 0.4076 0.85675 0.36428 0.0
Li2552 Li 0.00089 0.6285 0.02966 0.0
Li2553 Li 0.98252 0.59157 0.01019 0.0
Li2554 Li 0.9684 0.63316 0.98776 0.0
Li2555 Li 0.96134 0.61998 0.04995 0.0
C2556 C 0.02267 0.6233 0.96936 0.0
N2557 N 0.06818 0.63832 0.94623 0.0
C2558 C 0.04371 0.6104 0.97912 0.0
C2559 C 0.02471 0.6437 0.94762 0.0
C2560 C 0.06658 0.61835 0.96725 0.0
C2561 C 0.0479 0.65102 0.93622 0.0
C2562 C 0.98557 0.58007 0.07837 0.0
C2563 C 0.95656 0.54978 0.09848 0.0
N2564 N 0.97452 0.53911 0.11772 0.0
C2565 C 0.00374 0.56874 0.09835 0.0
C2566 C 0.9618 0.57044 0.07841 0.0
C2567 C 0.99779 0.54808 0.11806 0.0
C2568 C 0.03684 0.63342 0.07931 0.0
N2569 N 0.03062 0.64239 0.04767 0.0
C2570 C 0.06108 0.67379 0.05252 0.0
C2571 C 0.04275 0.66181 0.03361 0.0
C2572 C 0.06698 0.66548 0.08598 0.0
C2573 C 0.05511 0.64457 0.09884 0.0
H2574 H 0.02659 0.61851 0.09049 0.0
H2575 H 0.03726 0.66898 0.00872 0.0
C2576 C 0.97207 0.5449 0.98004 0.0
N2577 N 0.98814 0.55831 0.99912 0.0
C2578 C 0.97593 0.51976 0.97544 0.0
C2579 C 0.01295 0.52303 0.00963 0.0
C2580 C 0.00857 0.54807 0.01311 0.0
C2581 C 0.99637 0.50838 0.99095 0.0
H2582 H 0.95611 0.55364 0.96891 0.0
H2583 H 0.0211 0.55929 0.02795 0.0
C2584 C 0.98305 0.67296 0.04197 0.0
N2585 N 0.00478 0.71596 0.06429 0.0
C2586 C 0.98683 0.67706 0.07733 0.0
C2587 C 0.9902 0.69079 0.01798 0.0
C2588 C 0.99791 0.69888 0.08808 0.0
C2589 C 0.00116 0.71241 0.02978 0.0
C2590 C 0.92344 0.60218 0.00452 0.0
C2591 C 0.90869 0.62258 0.99776 0.0
C2592 C 0.91257 0.57915 0.0089 0.0
C2593 C 0.88326 0.61968 0.99591 0.0
C2594 C 0.88708 0.57699 0.00686 0.0
N2595 N 0.87307 0.59714 1.00047 0.0
C2596 C 0.95637 0.63859 0.91728 0.0
C2597 C 0.94392 0.67196 0.9525 0.0
C2598 C 0.94608 0.64967 0.88804 0.0
N2599 N 0.95505 0.6498 0.94866 0.0
C2600 C 0.93335 0.68368 0.92397 0.0
C2601 C 0.93424 0.67249 0.89117 0.0
H2602 H 0.96521 0.62089 0.91508 0.0
H2603 H 0.94294 0.68036 0.97784 0.0
C2604 C 0.95357 0.62348 0.12144 0.0
N2605 N 0.94185 0.62565 0.09044 0.0
C2606 C 0.94352 0.63373 0.15133 0.0
C2607 C 0.90884 0.64725 0.11739 0.0
C2608 C 0.91957 0.63669 0.0881 0.0
C2609 C 0.92139 0.64675 0.14922 0.0
H2610 H 0.97176 0.6157 0.12262 0.0
H2611 H 0.91105 0.63918 0.06316 0.0
O2612 O 0.00014 0.61585 0.9807 0.0
O2613 O 0.99137 0.59997 0.05818 0.0
O2614 O 0.97247 0.65158 0.03089 0.0
O2615 O 0.94843 0.60454 0.00581 0.0
H2616 H 0.04239 0.59456 0.99592 0.0
H2617 H 0.00857 0.65387 0.93983 0.0
H2618 H 0.08305 0.60865 0.97476 0.0
H2619 H 0.04979 0.66684 0.9195 0.0
H2620 H 0.93822 0.54223 0.09874 0.0
H2621 H 0.02236 0.5756 0.09831 0.0
H2622 H 0.94748 0.5789 0.06335 0.0
H2623 H 0.01171 0.53912 0.13352 0.0
H2624 H 0.06978 0.68994 0.04175 0.0
H2625 H 0.05862 0.63788 0.1248 0.0
H2626 H 0.96291 0.50937 0.96016 0.0
H2627 H 0.02876 0.51519 0.02249 0.0
H2628 H 0.98153 0.66343 0.09624 0.0
H2629 H 0.98772 0.6878 0.99049 0.0
H2630 H 0.0011 0.70222 0.11535 0.0
H2631 H 0.00694 0.72628 0.01149 0.0
H2632 H 0.91672 0.64055 0.99461 0.0
H2633 H 0.92369 0.56307 0.01382 0.0
H2634 H 0.87163 0.63537 0.99094 0.0
H2635 H 0.87843 0.5593 0.0103 0.0
H2636 H 0.94691 0.64019 0.86341 0.0
H2637 H 0.92464 0.70135 0.92757 0.0
H2638 H 0.95381 0.63295 0.17531 0.0
H2639 H 0.89199 0.65756 0.11437 0.0
Li2640 Li 0.15719 0.23254 0.76012 0.0
Li2641 Li 0.12027 0.25093 0.77957 0.0
Li2642 Li 0.12877 0.21136 0.79986 0.0
Li2643 Li 0.11561 0.21843 0.73767 0.0
C2644 C 0.16867 0.23558 0.8283 0.0
N2645 N 0.20962 0.22451 0.86767 0.0
C2646 C 0.18 0.25375 0.84829 0.0
C2647 C 0.17829 0.2118 0.82834 0.0
C2648 C 0.20065 0.24779 0.86801 0.0
C2649 C 0.19894 0.20656 0.84842 0.0
C2650 C 0.12548 0.2727 0.71927 0.0
C2651 C 0.09778 0.29794 0.68613 0.0
N2652 N 0.11048 0.31822 0.69614 0.0
C2653 C 0.13839 0.29374 0.72903 0.0
C2654 C 0.10509 0.27474 0.69753 0.0
C2655 C 0.13045 0.31661 0.71716 0.0
C2656 C 0.20386 0.22208 0.72999 0.0
N2657 N 0.19045 0.23815 0.74906 0.0
C2658 C 0.22572 0.26296 0.75959 0.0
C2659 C 0.20068 0.25858 0.76306 0.0
C2660 C 0.24037 0.24638 0.74091 0.0
C2661 C 0.229 0.22593 0.7254 0.0
H2662 H 0.19512 0.20611 0.71885 0.0
H2663 H 0.18947 0.27112 0.77789 0.0
C2664 C 0.11536 0.2869 0.82918 0.0
N2665 N 0.10639 0.28066 0.79756 0.0
C2666 C 0.10421 0.30517 0.84871 0.0
C2667 C 0.07498 0.31112 0.80241 0.0
C2668 C 0.08696 0.29278 0.78349 0.0
C2669 C 0.08329 0.31703 0.83586 0.0
H2670 H 0.13027 0.27665 0.84036 0.0
H2671 H 0.07979 0.28728 0.75861 0.0
C2672 C 0.14657 0.17345 0.75445 0.0
N2673 N 0.15161 0.12307 0.7504 0.0
C2674 C 0.12618 0.1587 0.74769 0.0
C2675 C 0.1696 0.16258 0.75883 0.0
C2676 C 0.12907 0.13326 0.74584 0.0
C2677 C 0.17175 0.13708 0.75679 0.0
C2678 C 0.07581 0.23308 0.79187 0.0
C2679 C 0.07171 0.23688 0.82723 0.0
C2680 C 0.05798 0.24023 0.76787 0.0
C2681 C 0.04989 0.24796 0.83798 0.0
C2682 C 0.03636 0.25118 0.77968 0.0
N2683 N 0.03281 0.25482 0.81419 0.0
C2684 C 0.12525 0.2036 0.87136 0.0
C2685 C 0.11205 0.16959 0.83801 0.0
C2686 C 0.11499 0.19355 0.90124 0.0
N2687 N 0.12308 0.19188 0.84036 0.0
C2688 C 0.10148 0.15886 0.8673 0.0
C2689 C 0.10197 0.17142 0.89913 0.0
H2690 H 0.13303 0.22179 0.87254 0.0
H2691 H 0.10956 0.16106 0.81307 0.0
C2692 C 0.11018 0.20639 0.66718 0.0
N2693 N 0.09897 0.20507 0.69857 0.0
C2694 C 0.0991 0.1961 0.63794 0.0
C2695 C 0.0651 0.18336 0.67388 0.0
C2696 C 0.07682 0.19394 0.7024 0.0
C2697 C 0.07629 0.18426 0.64107 0.0
H2698 H 0.12787 0.21524 0.66499 0.0
H2699 H 0.06841 0.19295 0.72775 0.0
O2700 O 0.14879 0.24139 0.8081 0.0
O2701 O 0.13293 0.25016 0.73061 0.0
O2702 O 0.14422 0.19845 0.75573 0.0
O2703 O 0.09719 0.2225 0.78079 0.0
H2704 H 0.17316 0.27237 0.84825 0.0
H2705 H 0.16983 0.19748 0.81328 0.0
H2706 H 0.20961 0.2617 0.88347 0.0
H2707 H 0.20648 0.1882 0.84869 0.0
H2708 H 0.08196 0.29984 0.66941 0.0
H2709 H 0.15423 0.29241 0.74583 0.0
H2710 H 0.09492 0.2586 0.68974 0.0
H2711 H 0.14015 0.33309 0.72467 0.0
H2712 H 0.23356 0.27877 0.77245 0.0
H2713 H 0.23939 0.21292 0.71012 0.0
H2714 H 0.1109 0.30869 0.87466 0.0
H2715 H 0.05883 0.31981 0.79163 0.0
H2716 H 0.10821 0.16673 0.74453 0.0
H2717 H 0.18567 0.17369 0.76375 0.0
H2718 H 0.11338 0.12163 0.74087 0.0
H2719 H 0.18944 0.12843 0.76023 0.0
H2720 H 0.08534 0.23159 0.84614 0.0
H2721 H 0.06096 0.23773 0.74039 0.0
H2722 H 0.04656 0.25117 0.86524 0.0
H2723 H 0.02248 0.25696 0.76139 0.0
H2724 H 0.11576 0.20384 0.92522 0.0
H2725 H 0.09117 0.14202 0.86428 0.0
H2726 H 0.10858 0.19694 0.61332 0.0
H2727 H 0.04743 0.17465 0.67747 0.0
Li2728 Li 0.49788 0.37026 0.52966 0.0
Li2729 Li 0.51624 0.40719 0.51019 0.0
Li2730 Li 0.53036 0.3656 0.48775 0.0
Li2731 Li 0.53743 0.37878 0.54994 0.0
C2732 C 0.4761 0.37546 0.46936 0.0
N2733 N 0.43058 0.36044 0.44623 0.0
C2734 C 0.45506 0.38836 0.47912 0.0
C2735 C 0.47406 0.35506 0.44762 0.0
C2736 C 0.43219 0.38041 0.46725 0.0
C2737 C 0.45086 0.34774 0.43622 0.0
C2738 C 0.5132 0.41869 0.57837 0.0
C2739 C 0.5422 0.44898 0.59847 0.0
N2740 N 0.52425 0.45965 0.61772 0.0
C2741 C 0.49503 0.43002 0.59835 0.0
C2742 C 0.53697 0.42832 0.5784 0.0
C2743 C 0.50098 0.45068 0.61806 0.0
C2744 C 0.46193 0.36534 0.57931 0.0
N2745 N 0.46815 0.35637 0.54767 0.0
C2746 C 0.43769 0.32497 0.55252 0.0
C2747 C 0.45602 0.33694 0.53361 0.0
C2748 C 0.43179 0.33328 0.58598 0.0
C2749 C 0.44366 0.35419 0.59884 0.0
H2750 H 0.47218 0.38025 0.59049 0.0
H2751 H 0.46151 0.32978 0.50871 0.0
C2752 C 0.52669 0.45386 0.48004 0.0
N2753 N 0.51063 0.44045 0.49911 0.0
C2754 C 0.52283 0.479 0.47543 0.0
C2755 C 0.48581 0.47573 0.50963 0.0
C2756 C 0.4902 0.45069 0.51311 0.0
C2757 C 0.50239 0.49038 0.49094 0.0
H2758 H 0.54266 0.44512 0.4689 0.0
H2759 H 0.47767 0.43947 0.52795 0.0
C2760 C 0.51573 0.3258 0.54196 0.0
N2761 N 0.49399 0.2828 0.56428 0.0
C2762 C 0.51195 0.3217 0.57732 0.0
C2763 C 0.50857 0.30797 0.51797 0.0
C2764 C 0.50087 0.29987 0.58808 0.0
C2765 C 0.49761 0.28635 0.52978 0.0
C2766 C 0.57533 0.39659 0.50452 0.0
C2767 C 0.59008 0.37619 0.49776 0.0
C2768 C 0.5862 0.41962 0.50889 0.0
C2769 C 0.61551 0.37909 0.49591 0.0
C2770 C 0.61169 0.42177 0.50685 0.0
N2771 N 0.6257 0.40163 0.50046 0.0
C2772 C 0.5424 0.36017 0.41727 0.0
C2773 C 0.55485 0.3268 0.45249 0.0
C2774 C 0.55269 0.34909 0.38803 0.0
N2775 N 0.54372 0.34896 0.44866 0.0
C2776 C 0.56542 0.31508 0.42396 0.0
C2777 C 0.56453 0.32627 0.39116 0.0
H2778 H 0.53356 0.37787 0.41508 0.0
H2779 H 0.55583 0.3184 0.47784 0.0
C2780 C 0.5452 0.37528 0.62144 0.0
N2781 N 0.55692 0.37311 0.59043 0.0
C2782 C 0.55526 0.36503 0.65132 0.0
C2783 C 0.58993 0.35151 0.61738 0.0
C2784 C 0.5792 0.36207 0.58809 0.0
C2785 C 0.57738 0.35201 0.64921 0.0
H2786 H 0.52702 0.38306 0.62261 0.0
H2787 H 0.58772 0.35957 0.56315 0.0
O2788 O 0.49863 0.38291 0.4807 0.0
O2789 O 0.5074 0.39879 0.55818 0.0
O2790 O 0.5263 0.34718 0.53089 0.0
O2791 O 0.55034 0.39422 0.5058 0.0
H2792 H 0.45638 0.4042 0.49592 0.0
H2793 H 0.4902 0.34489 0.43983 0.0
H2794 H 0.41572 0.39011 0.47477 0.0
H2795 H 0.44897 0.33192 0.4195 0.0
H2796 H 0.56055 0.45654 0.59873 0.0
H2797 H 0.47641 0.42316 0.59831 0.0
H2798 H 0.55129 0.41986 0.56335 0.0
H2799 H 0.48706 0.45963 0.63352 0.0
H2800 H 0.42899 0.30883 0.54175 0.0
H2801 H 0.44015 0.36088 0.6248 0.0
H2802 H 0.53584 0.48939 0.46015 0.0
H2803 H 0.47 0.48357 0.52248 0.0
H2804 H 0.51724 0.33533 0.59624 0.0
H2805 H 0.51105 0.31096 0.49048 0.0
H2806 H 0.49767 0.29654 0.61534 0.0
H2807 H 0.49183 0.27248 0.51148 0.0
H2808 H 0.58205 0.35822 0.49461 0.0
H2809 H 0.57508 0.43569 0.51381 0.0
H2810 H 0.62714 0.3634 0.49093 0.0
H2811 H 0.62033 0.43947 0.51029 0.0
H2812 H 0.55185 0.35857 0.36341 0.0
H2813 H 0.57413 0.29741 0.42756 0.0
H2814 H 0.54497 0.36581 0.67531 0.0
H2815 H 0.60678 0.3412 0.61435 0.0
loop_
_geom_bond_atom_site_label_1
_geom_bond_atom_site_label_2
_geom_bond_distance
_geom_bond_site_symmetry_2
_ccdc_geom_bond_type
Li0 N17 1.990 . S
Li0 O60 1.956 . S
Li0 O61 1.970 . S
Li0 O62 1.961 . S
Li1 N25 1.990 . S
Li1 O60 1.970 . S
Li1 O61 1.956 . S
Li1 O63 1.961 . S
Li2 N47 1.990 . S
Li2 O60 1.961 . S
Li2 O62 1.956 . S
Li2 O63 1.970 . S
Li3 N53 1.990 . S
Li3 O61 1.961 . S
Li3 O62 1.970 . S
Li3 O63 1.956 . S
C4 C6 1.348 . S
C4 C7 1.356 . S
C4 O60 1.325 . S
N5 C8 1.314 . S
N5 C9 1.279 . S
C6 C4 1.348 . S
C6 C8 1.353 . S
C6 H64 0.929 . S
C7 C4 1.356 . S
C7 C9 1.358 . S
C7 H65 0.930 . S
C8 N5 1.314 . S
C8 C6 1.353 . S
C8 H66 0.930 . S
C9 N5 1.279 . S
C9 C7 1.358 . S
C9 H67 0.930 . S
C10 C13 1.348 . S
C10 C14 1.356 . S
C10 O61 1.325 . S
C11 N12 1.279 . S
C11 C14 1.358 . S
C11 H68 0.930 . S
N12 C11 1.279 . S
N12 C15 1.314 . S
C13 C10 1.348 . S
C13 C15 1.353 . S
C13 H69 0.929 . S
C14 C10 1.356 . S
C14 C11 1.358 . S
C14 H70 0.930 . S
C15 N12 1.314 . S
C15 C13 1.353 . S
C15 H71 0.930 . S
C16 N17 1.314 . S
C16 C21 1.353 . S
C16 H22 0.930 . S
N17 Li0 1.990 . S
N17 C16 1.314 . S
N17 C19 1.279 . S
C18 C19 1.358 . S
C18 C20 1.356 . S
C18 H72 0.930 . S
C19 N17 1.279 . S
C19 C18 1.358 . S
C19 H23 0.930 . S
C20 C18 1.356 . S
C20 C21 1.348 . S
C21 C16 1.353 . S
C21 C20 1.348 . S
C21 H73 0.929 . S
H22 C16 0.930 . S
H23 C19 0.930 . S
C24 N25 1.314 . S
C24 C26 1.353 . S
C24 H30 0.930 . S
N25 Li1 1.990 . S
N25 C24 1.314 . S
N25 C28 1.279 . S
C26 C24 1.353 . S
C26 C29 1.348 . S
C26 H74 0.929 . S
C27 C28 1.358 . S
C27 C29 1.356 . S
C27 H75 0.930 . S
C28 N25 1.279 . S
C28 C27 1.358 . S
C28 H31 0.930 . S
C29 C26 1.348 . S
C29 C27 1.356 . S
H30 C24 0.930 . S
H31 C28 0.930 . S
C32 C34 1.348 . S
C32 C35 1.356 . S
C32 O62 1.325 . S
N33 C36 1.314 . S
N33 C37 1.279 . S
C34 C32 1.348 . S
C34 C36 1.353 . S
C34 H76 0.929 . S
C35 C32 1.356 . S
C35 C37 1.358 . S
C35 H77 0.930 . S
C36 N33 1.314 . S
C36 C34 1.353 . S
C36 H78 0.930 . S
C37 N33 1.279 . S
C37 C35 1.358 . S
C37 H79 0.930 . S
C38 C39 1.348 . S
C38 C40 1.356 . S
C38 O63 1.325 . S
C39 C38 1.348 . S
C39 C41 1.353 . S
C39 H80 0.929 . S
C40 C38 1.356 . S
C40 C42 1.358 . S
C40 H81 0.930 . S
C41 C39 1.353 . S
C41 N43 1.314 . S
C41 H82 0.930 . S
C42 C40 1.358 . S
C42 N43 1.279 . S
C42 H83 0.930 . S
N43 C41 1.314 . S
N43 C42 1.279 . S
C44 C46 1.353 . S
C44 N47 1.314 . S
C44 H50 0.930 . S
C45 N47 1.279 . S
C45 C48 1.358 . S
C45 H51 0.930 . S
C46 C44 1.353 . S
C46 C49 1.348 . S
C46 H84 0.929 . S
N47 Li2 1.990 . S
N47 C44 1.314 . S
N47 C45 1.279 . S
C48 C45 1.358 . S
C48 C49 1.356 . S
C48 H85 0.930 . S
C49 C46 1.348 . S
C49 C48 1.356 . S
H50 C44 0.930 . S
H51 C45 0.930 . S
C52 N53 1.314 . S
C52 C54 1.353 . S
C52 H58 0.930 . S
N53 Li3 1.990 . S
N53 C52 1.314 . S
N53 C56 1.279 . S
C54 C52 1.353 . S
C54 C57 1.348 . S
C54 H86 0.929 . S
C55 C56 1.358 . S
C55 C57 1.356 . S
C55 H87 0.930 . S
C56 N53 1.279 . S
C56 C55 1.358 . S
C56 H59 0.930 . S
C57 C54 1.348 . S
C57 C55 1.356 . S
H58 C52 0.930 . S
H59 C56 0.930 . S
O60 Li0 1.956 . S
O60 Li1 1.970 . S
O60 Li2 1.961 . S
O60 C4 1.325 . S
O61 Li0 1.970 . S
O61 Li1 1.956 . S
O61 Li3 1.961 . S
O61 C10 1.325 . S
O62 Li0 1.961 . S
O62 Li2 1.956 . S
O62 Li3 1.970 . S
O62 C32 1.325 . S
O63 Li1 1.961 . S
O63 Li2 1.970 . S
O63 Li3 1.956 . S
O63 C38 1.325 . S
H64 C6 0.929 . S
H65 C7 0.930 . S
H66 C8 0.930 . S
H67 C9 0.930 . S
H68 C11 0.930 . S
H69 C13 0.929 . S
H70 C14 0.930 . S
H71 C15 0.930 . S
H72 C18 0.930 . S
H73 C21 0.929 . S
H74 C26 0.929 . S
H75 C27 0.930 . S
H76 C34 0.929 . S
H77 C35 0.930 . S
H78 C36 0.930 . S
H79 C37 0.930 . S
H80 C39 0.929 . S
H81 C40 0.930 . S
H82 C41 0.930 . S
H83 C42 0.930 . S
H84 C46 0.929 . S
H85 C48 0.930 . S
H86 C54 0.929 . S
H87 C55 0.930 . S
Li88 N105 1.990 . S
Li88 O148 1.956 . S
Li88 O149 1.970 . S
Li88 O150 1.961 . S
Li89 N113 1.990 . S
Li89 O148 1.970 1_455 S
Li89 O149 1.956 1_455 S
Li89 O151 1.961 . S
Li90 N135 1.990 . S
Li90 O148 1.961 . S
Li90 O150 1.956 . S
Li90 O151 1.970 1_655 S
Li91 N141 1.990 . S
Li91 O149 1.961 . S
Li91 O150 1.970 . S
Li91 O151 1.956 1_655 S
C92 C94 1.348 1_655 S
C92 C95 1.356 . S
C92 O148 1.325 . S
N93 C96 1.314 . S
N93 C97 1.279 1_455 S
C94 C92 1.348 1_455 S
C94 C96 1.353 . S
C94 H152 0.929 . S
C95 C92 1.356 . S
C95 C97 1.358 . S
C95 H153 0.930 . S
C96 N93 1.314 . S
C96 C94 1.353 . S
C96 H154 0.930 . S
C97 N93 1.279 1_655 S
C97 C95 1.358 . S
C97 H155 0.930 . S
C98 C101 1.348 . S
C98 C102 1.356 . S
C98 O149 1.325 . S
C99 N100 1.279 . S
C99 C102 1.358 . S
C99 H156 0.949 . S
N100 C99 1.279 . S
N100 C103 1.314 . S
C101 C98 1.348 . S
C101 C103 1.353 . S
C101 H157 0.929 . S
C102 C98 1.356 . S
C102 C99 1.358 . S
C102 H158 0.911 1_655 S
C103 N100 1.314 . S
C103 C101 1.353 . S
C103 H159 0.930 . S
C104 N105 1.314 . S
C104 C109 1.353 . S
C104 H110 0.930 . S
N105 Li88 1.990 . S
N105 C104 1.314 . S
N105 C107 1.279 . S
C106 C107 1.358 . S
C106 C108 1.356 . S
C106 H160 0.930 . S
C107 N105 1.279 . S
C107 C106 1.358 . S
C107 H111 0.930 . S
C108 C106 1.356 . S
C108 C109 1.348 . S
C109 C104 1.353 . S
C109 C108 1.348 . S
C109 H161 0.929 . S
H110 C104 0.930 . S
H111 C107 0.930 . S
C112 N113 1.314 . S
C112 C114 1.353 . S
C112 H118 0.930 . S
N113 Li89 1.990 . S
N113 C112 1.314 . S
N113 C116 1.279 . S
C114 C112 1.353 . S
C114 C117 1.348 . S
C114 H162 0.929 . S
C115 C116 1.358 . S
C115 C117 1.356 . S
C115 H163 0.930 . S
C116 N113 1.279 . S
C116 C115 1.358 . S
C116 H119 0.930 . S
C117 C114 1.348 . S
C117 C115 1.356 . S
H118 C112 0.930 . S
H119 C116 0.930 . S
C120 C122 1.348 . S
C120 C123 1.356 . S
C120 O150 1.325 . S
N121 C124 1.314 . S
N121 C125 1.279 . S
C122 C120 1.348 . S
C122 C124 1.353 . S
C122 H164 0.929 . S
C123 C120 1.356 . S
C123 C125 1.358 . S
C123 H165 0.930 . S
C124 N121 1.314 . S
C124 C122 1.353 . S
C124 H166 0.930 . S
C125 N121 1.279 . S
C125 C123 1.358 . S
C125 H167 0.930 . S
C126 C127 1.348 . S
C126 C128 1.356 . S
C126 O151 1.325 . S
C127 C126 1.348 . S
C127 C129 1.353 . S
C127 H168 0.929 . S
C128 C126 1.356 . S
C128 C130 1.358 . S
C128 H169 0.930 . S
C129 C127 1.353 . S
C129 N131 1.314 . S
C129 H170 0.930 . S
C130 C128 1.358 . S
C130 N131 1.279 . S
C130 H171 0.930 . S
N131 C129 1.314 . S
N131 C130 1.279 . S
C132 C134 1.351 1_655 S
C132 N135 1.327 . S
C132 H138 0.917 1_655 S
C133 N135 1.279 . S
C133 C136 1.358 . S
C133 H139 0.930 . S
C134 C132 1.351 1_455 S
C134 C137 1.348 1_455 S
C134 H172 0.929 . S
N135 Li90 1.990 . S
N135 C132 1.327 . S
N135 C133 1.279 . S
C136 C133 1.358 . S
C136 C137 1.356 . S
C136 H173 0.930 . S
C137 C134 1.348 1_655 S
C137 C136 1.356 . S
H138 C132 0.917 1_455 S
H139 C133 0.930 . S
C140 N141 1.314 . S
C140 C142 1.353 . S
C140 H146 0.930 . S
N141 Li91 1.990 . S
N141 C140 1.314 . S
N141 C144 1.279 . S
C142 C140 1.353 . S
C142 C145 1.348 . S
C142 H174 0.929 . S
C143 C144 1.358 . S
C143 C145 1.356 . S
C143 H175 0.930 . S
C144 N141 1.279 . S
C144 C143 1.358 . S
C144 H147 0.930 . S
C145 C142 1.348 . S
C145 C143 1.356 . S
H146 C140 0.930 . S
H147 C144 0.930 . S
O148 Li88 1.956 . S
O148 Li89 1.970 1_655 S
O148 Li90 1.961 . S
O148 C92 1.325 . S
O149 Li88 1.970 . S
O149 Li89 1.956 1_655 S
O149 Li91 1.961 . S
O149 C98 1.325 . S
O150 Li88 1.961 . S
O150 Li90 1.956 . S
O150 Li91 1.970 . S
O150 C120 1.325 . S
O151 Li89 1.961 . S
O151 Li90 1.970 1_455 S
O151 Li91 1.956 1_455 S
O151 C126 1.325 . S
H152 C94 0.929 . S
H153 C95 0.930 . S
H154 C96 0.930 . S
H155 C97 0.930 . S
H156 C99 0.949 . S
H157 C101 0.929 . S
H158 C102 0.911 1_455 S
H159 C103 0.930 . S
H160 C106 0.930 . S
H161 C109 0.929 . S
H162 C114 0.929 . S
H163 C115 0.930 . S
H164 C122 0.929 . S
H165 C123 0.930 . S
H166 C124 0.930 . S
H167 C125 0.930 . S
H168 C127 0.929 . S
H169 C128 0.930 . S
H170 C129 0.930 . S
H171 C130 0.930 . S
H172 C134 0.929 . S
H173 C136 0.930 . S
H174 C142 0.929 . S
H175 C143 0.930 . S
Li176 N193 1.990 . S
Li176 O236 1.956 . S
Li176 O237 1.970 . S
Li176 O238 1.961 . S
Li177 N201 1.990 . S
Li177 O236 1.970 . S
Li177 O237 1.956 . S
Li177 O239 1.961 . S
Li178 N223 1.990 . S
Li178 O236 1.961 . S
Li178 O238 1.956 . S
Li178 O239 1.970 . S
Li179 N229 1.990 . S
Li179 O237 1.961 . S
Li179 O238 1.970 . S
Li179 O239 1.956 . S
C180 C182 1.348 . S
C180 C183 1.356 . S
C180 O236 1.325 . S
N181 C184 1.314 . S
N181 C185 1.279 . S
C182 C180 1.348 . S
C182 C184 1.353 . S
C182 H240 0.929 . S
C183 C180 1.356 . S
C183 C185 1.358 . S
C183 H241 0.930 . S
C184 N181 1.314 . S
C184 C182 1.353 . S
C184 H242 0.930 . S
C185 N181 1.279 . S
C185 C183 1.358 . S
C185 H243 0.930 . S
C186 C189 1.348 . S
C186 C190 1.356 . S
C186 O237 1.325 . S
C187 N188 1.279 . S
C187 C190 1.358 . S
C187 H244 0.930 . S
N188 C187 1.279 . S
N188 C191 1.314 . S
C189 C186 1.348 . S
C189 C191 1.353 . S
C189 H245 0.929 . S
C190 C186 1.356 . S
C190 C187 1.358 . S
C190 H246 0.930 . S
C191 N188 1.314 . S
C191 C189 1.353 . S
C191 H247 0.930 . S
C192 N193 1.314 . S
C192 C197 1.353 . S
C192 H198 0.930 . S
N193 Li176 1.990 . S
N193 C192 1.314 . S
N193 C195 1.279 . S
C194 C195 1.358 . S
C194 C196 1.356 . S
C194 H248 0.930 . S
C195 N193 1.279 . S
C195 C194 1.358 . S
C195 H199 0.930 . S
C196 C194 1.356 . S
C196 C197 1.348 . S
C197 C192 1.353 . S
C197 C196 1.348 . S
C197 H249 0.929 . S
H198 C192 0.930 . S
H199 C195 0.930 . S
C200 N201 1.314 . S
C200 C202 1.353 . S
C200 H206 0.930 . S
N201 Li177 1.990 . S
N201 C200 1.314 . S
N201 C204 1.279 . S
C202 C200 1.353 . S
C202 C205 1.348 . S
C202 H250 0.929 . S
C203 C204 1.358 . S
C203 C205 1.356 . S
C203 H251 0.930 . S
C204 N201 1.279 . S
C204 C203 1.358 . S
C204 H207 0.930 . S
C205 C202 1.348 . S
C205 C203 1.356 . S
H206 C200 0.930 . S
H207 C204 0.930 . S
C208 C210 1.348 . S
C208 C211 1.356 . S
C208 O238 1.325 . S
N209 C212 1.314 . S
N209 C213 1.279 . S
C210 C208 1.348 . S
C210 C212 1.353 . S
C210 H252 0.929 . S
C211 C208 1.356 . S
C211 C213 1.358 . S
C211 H253 0.930 . S
C212 N209 1.314 . S
C212 C210 1.353 . S
C212 H254 0.930 . S
C213 N209 1.279 . S
C213 C211 1.358 . S
C213 H255 0.930 . S
C214 C215 1.348 . S
C214 C216 1.356 . S
C214 O239 1.325 . S
C215 C214 1.348 . S
C215 C217 1.353 . S
C215 H256 0.929 . S
C216 C214 1.356 . S
C216 C218 1.358 . S
C216 H257 0.930 . S
C217 C215 1.353 . S
C217 N219 1.314 . S
C217 H258 0.930 . S
C218 C216 1.358 . S
C218 N219 1.279 . S
C218 H259 0.930 . S
N219 C217 1.314 . S
N219 C218 1.279 . S
C220 C222 1.353 . S
C220 N223 1.314 . S
C220 H226 0.930 . S
C221 N223 1.279 . S
C221 C224 1.358 . S
C221 H227 0.930 . S
C222 C220 1.353 . S
C222 C225 1.348 . S
C222 H260 0.929 . S
N223 Li178 1.990 . S
N223 C220 1.314 . S
N223 C221 1.279 . S
C224 C221 1.358 . S
C224 C225 1.356 . S
C224 H261 0.930 . S
C225 C222 1.348 . S
C225 C224 1.356 . S
H226 C220 0.930 . S
H227 C221 0.930 . S
C228 N229 1.314 . S
C228 C230 1.353 . S
C228 H234 0.930 . S
N229 Li179 1.990 . S
N229 C228 1.314 . S
N229 C232 1.279 . S
C230 C228 1.353 . S
C230 C233 1.348 . S
C230 H262 0.929 . S
C231 C232 1.358 . S
C231 C233 1.356 . S
C231 H263 0.930 . S
C232 N229 1.279 . S
C232 C231 1.358 . S
C232 H235 0.930 . S
C233 C230 1.348 . S
C233 C231 1.356 . S
H234 C228 0.930 . S
H235 C232 0.930 . S
O236 Li176 1.956 . S
O236 Li177 1.970 . S
O236 Li178 1.961 . S
O236 C180 1.325 . S
O237 Li176 1.970 . S
O237 Li177 1.956 . S
O237 Li179 1.961 . S
O237 C186 1.325 . S
O238 Li176 1.961 . S
O238 Li178 1.956 . S
O238 Li179 1.970 . S
O238 C208 1.325 . S
O239 Li177 1.961 . S
O239 Li178 1.970 . S
O239 Li179 1.956 . S
O239 C214 1.325 . S
H240 C182 0.929 . S
H241 C183 0.930 . S
H242 C184 0.930 . S
H243 C185 0.930 . S
H244 C187 0.930 . S
H245 C189 0.929 . S
H246 C190 0.930 . S
H247 C191 0.930 . S
H248 C194 0.930 . S
H249 C197 0.929 . S
H250 C202 0.929 . S
H251 C203 0.930 . S
H252 C210 0.929 . S
H253 C211 0.930 . S
H254 C212 0.930 . S
H255 C213 0.930 . S
H256 C215 0.929 . S
H257 C216 0.930 . S
H258 C217 0.930 . S
H259 C218 0.930 . S
H260 C222 0.929 . S
H261 C224 0.930 . S
H262 C230 0.929 . S
H263 C231 0.930 . S
Li264 N281 1.990 . S
Li264 O324 1.956 . S
Li264 O325 1.970 . S
Li264 O326 1.961 1_554 S
Li265 N289 1.990 . S
Li265 O324 1.970 . S
Li265 O325 1.956 . S
Li265 O327 1.961 . S
Li266 N311 1.990 . S
Li266 O324 1.961 1_556 S
Li266 O326 1.956 . S
Li266 O327 1.970 1_556 S
Li267 N317 1.990 . S
Li267 O325 1.961 . S
Li267 O326 1.970 1_554 S
Li267 O327 1.956 . S
C268 C270 1.348 . S
C268 C271 1.356 . S
C268 O324 1.325 . S
N269 C272 1.314 . S
N269 C273 1.279 . S
C270 C268 1.348 . S
C270 C272 1.353 . S
C270 H328 0.929 . S
C271 C268 1.356 . S
C271 C273 1.358 . S
C271 H329 0.930 1_554 S
C272 N269 1.314 . S
C272 C270 1.353 . S
C272 H330 0.930 . S
C273 N269 1.279 . S
C273 C271 1.358 . S
C273 H331 0.930 1_554 S
C274 C277 1.348 . S
C274 C278 1.356 . S
C274 O325 1.325 . S
C275 N276 1.279 . S
C275 C278 1.358 . S
C275 H332 0.930 . S
N276 C275 1.279 . S
N276 C279 1.314 . S
C277 C274 1.348 . S
C277 C279 1.353 . S
C277 H333 0.929 . S
C278 C274 1.356 . S
C278 C275 1.358 . S
C278 H334 0.930 . S
C279 N276 1.314 . S
C279 C277 1.353 . S
C279 H335 0.930 . S
C280 N281 1.314 . S
C280 C285 1.353 . S
C280 H286 0.930 . S
N281 Li264 1.990 . S
N281 C280 1.314 . S
N281 C283 1.279 . S
C282 C283 1.358 . S
C282 C284 1.356 . S
C282 H336 0.930 . S
C283 N281 1.279 . S
C283 C282 1.358 . S
C283 H287 0.930 . S
C284 C282 1.356 . S
C284 C285 1.348 . S
C285 C280 1.353 . S
C285 C284 1.348 . S
C285 H337 0.929 . S
H286 C280 0.930 . S
H287 C283 0.930 . S
C288 N289 1.314 . S
C288 C290 1.353 . S
C288 H294 0.930 . S
N289 Li265 1.990 . S
N289 C288 1.314 . S
N289 C292 1.279 . S
C290 C288 1.353 . S
C290 C293 1.348 . S
C290 H338 0.929 . S
C291 C292 1.358 . S
C291 C293 1.356 . S
C291 H339 0.930 . S
C292 N289 1.279 . S
C292 C291 1.358 . S
C292 H295 0.930 . S
C293 C290 1.348 . S
C293 C291 1.356 . S
H294 C288 0.930 . S
H295 C292 0.930 . S
C296 C298 1.348 . S
C296 C299 1.356 . S
C296 O326 1.325 . S
N297 C300 1.314 . S
N297 C301 1.279 . S
C298 C296 1.348 . S
C298 C300 1.353 . S
C298 H340 0.929 . S
C299 C296 1.356 . S
C299 C301 1.358 . S
C299 H341 0.930 . S
C300 N297 1.314 . S
C300 C298 1.353 . S
C300 H342 0.930 . S
C301 N297 1.279 . S
C301 C299 1.358 . S
C301 H343 0.930 . S
C302 C303 1.348 1_554 S
C302 C304 1.356 . S
C302 O327 1.325 . S
C303 C302 1.348 1_556 S
C303 C305 1.353 . S
C303 H344 0.929 . S
C304 C302 1.356 . S
C304 C306 1.358 . S
C304 H345 0.930 . S
C305 C303 1.353 . S
C305 N307 1.314 . S
C305 H346 0.930 . S
C306 C304 1.358 . S
C306 N307 1.279 1_554 S
C306 H347 0.930 . S
N307 C305 1.314 . S
N307 C306 1.279 1_556 S
C308 C310 1.353 . S
C308 N311 1.314 . S
C308 H314 0.930 . S
C309 N311 1.279 . S
C309 C312 1.358 . S
C309 H315 0.930 . S
C310 C308 1.353 . S
C310 C313 1.348 . S
C310 H348 0.929 . S
N311 Li266 1.990 . S
N311 C308 1.314 . S
N311 C309 1.279 . S
C312 C309 1.358 . S
C312 C313 1.356 . S
C312 H349 0.930 . S
C313 C310 1.348 . S
C313 C312 1.356 . S
H314 C308 0.930 . S
H315 C309 0.930 . S
C316 N317 1.314 . S
C316 C318 1.353 . S
C316 H322 0.930 . S
N317 Li267 1.990 . S
N317 C316 1.314 . S
N317 C320 1.279 . S
C318 C316 1.353 . S
C318 C321 1.348 . S
C318 H350 0.929 . S
C319 C320 1.358 . S
C319 C321 1.356 . S
C319 H351 0.930 1_554 S
C320 N317 1.279 . S
C320 C319 1.358 . S
C320 H323 0.930 1_554 S
C321 C318 1.348 . S
C321 C319 1.356 . S
H322 C316 0.930 . S
H323 C320 0.930 1_556 S
O324 Li264 1.956 . S
O324 Li265 1.970 . S
O324 Li266 1.961 1_554 S
O324 C268 1.325 . S
O325 Li264 1.970 . S
O325 Li265 1.956 . S
O325 Li267 1.961 . S
O325 C274 1.325 . S
O326 Li264 1.961 1_556 S
O326 Li266 1.956 . S
O326 Li267 1.970 1_556 S
O326 C296 1.325 . S
O327 Li265 1.961 . S
O327 Li266 1.970 1_554 S
O327 Li267 1.956 . S
O327 C302 1.325 . S
H328 C270 0.929 . S
H329 C271 0.930 1_556 S
H330 C272 0.930 . S
H331 C273 0.930 1_556 S
H332 C275 0.930 . S
H333 C277 0.929 . S
H334 C278 0.930 . S
H335 C279 0.930 . S
H336 C282 0.930 . S
H337 C285 0.929 . S
H338 C290 0.929 . S
H339 C291 0.930 . S
H340 C298 0.929 . S
H341 C299 0.930 . S
H342 C300 0.930 . S
H343 C301 0.930 . S
H344 C303 0.929 . S
H345 C304 0.930 . S
H346 C305 0.930 . S
H347 C306 0.930 . S
H348 C310 0.929 . S
H349 C312 0.930 . S
H350 C318 0.929 . S
H351 C319 0.930 1_556 S
Li352 N369 1.990 . S
Li352 O412 1.956 . S
Li352 O413 1.970 . S
Li352 O414 1.961 . S
Li353 N377 1.990 . S
Li353 O412 1.970 . S
Li353 O413 1.956 . S
Li353 O415 1.961 . S
Li354 N399 1.990 . S
Li354 O412 1.961 . S
Li354 O414 1.956 . S
Li354 O415 1.970 . S
Li355 N405 1.990 . S
Li355 O413 1.961 . S
Li355 O414 1.970 . S
Li355 O415 1.956 . S
C356 C358 1.348 . S
C356 C359 1.356 . S
C356 O412 1.325 . S
N357 C360 1.314 . S
N357 C361 1.279 . S
C358 C356 1.348 . S
C358 C360 1.353 . S
C358 H416 0.929 . S
C359 C356 1.356 . S
C359 C361 1.358 . S
C359 H417 0.930 . S
C360 N357 1.314 . S
C360 C358 1.353 . S
C360 H418 0.930 . S
C361 N357 1.279 . S
C361 C359 1.358 . S
C361 H419 0.930 . S
C362 C365 1.348 . S
C362 C366 1.356 . S
C362 O413 1.325 . S
C363 N364 1.279 . S
C363 C366 1.358 . S
C363 H420 0.930 . S
N364 C363 1.279 . S
N364 C367 1.314 . S
C365 C362 1.348 . S
C365 C367 1.353 . S
C365 H421 0.929 . S
C366 C362 1.356 . S
C366 C363 1.358 . S
C366 H422 0.930 . S
C367 N364 1.314 . S
C367 C365 1.353 . S
C367 H423 0.930 . S
C368 N369 1.314 . S
C368 C373 1.353 . S
C368 H374 0.930 . S
N369 Li352 1.990 . S
N369 C368 1.314 . S
N369 C371 1.279 . S
C370 C371 1.358 . S
C370 C372 1.356 . S
C370 H424 0.930 . S
C371 N369 1.279 . S
C371 C370 1.358 . S
C371 H375 0.930 . S
C372 C370 1.356 . S
C372 C373 1.348 . S
C373 C368 1.353 . S
C373 C372 1.348 . S
C373 H425 0.929 . S
H374 C368 0.930 . S
H375 C371 0.930 . S
C376 N377 1.314 . S
C376 C378 1.353 . S
C376 H382 0.930 . S
N377 Li353 1.990 . S
N377 C376 1.314 . S
N377 C380 1.279 . S
C378 C376 1.353 . S
C378 C381 1.348 . S
C378 H426 0.929 . S
C379 C380 1.358 . S
C379 C381 1.356 . S
C379 H427 0.930 . S
C380 N377 1.279 . S
C380 C379 1.358 . S
C380 H383 0.930 . S
C381 C378 1.348 . S
C381 C379 1.356 . S
H382 C376 0.930 . S
H383 C380 0.930 . S
C384 C386 1.348 . S
C384 C387 1.356 . S
C384 O414 1.325 . S
N385 C388 1.314 . S
N385 C389 1.279 . S
C386 C384 1.348 . S
C386 C388 1.353 . S
C386 H428 0.929 . S
C387 C384 1.356 . S
C387 C389 1.358 . S
C387 H429 0.930 . S
C388 N385 1.314 . S
C388 C386 1.353 . S
C388 H430 0.930 . S
C389 N385 1.279 . S
C389 C387 1.358 . S
C389 H431 0.930 . S
C390 C391 1.348 . S
C390 C392 1.356 . S
C390 O415 1.325 . S
C391 C390 1.348 . S
C391 C393 1.353 . S
C391 H432 0.929 . S
C392 C390 1.356 . S
C392 C394 1.358 . S
C392 H433 0.930 . S
C393 C391 1.353 . S
C393 N395 1.314 . S
C393 H434 0.930 . S
C394 C392 1.358 . S
C394 N395 1.279 . S
C394 H435 0.930 . S
N395 C393 1.314 . S
N395 C394 1.279 . S
C396 C398 1.353 . S
C396 N399 1.314 . S
C396 H402 0.930 . S
C397 N399 1.279 . S
C397 C400 1.358 . S
C397 H403 0.930 . S
C398 C396 1.353 . S
C398 C401 1.348 . S
C398 H436 0.929 . S
N399 Li354 1.990 . S
N399 C396 1.314 . S
N399 C397 1.279 . S
C400 C397 1.358 . S
C400 C401 1.356 . S
C400 H437 0.930 . S
C401 C398 1.348 . S
C401 C400 1.356 . S
H402 C396 0.930 . S
H403 C397 0.930 . S
C404 N405 1.314 . S
C404 C406 1.353 . S
C404 H410 0.930 . S
N405 Li355 1.990 . S
N405 C404 1.314 . S
N405 C408 1.279 . S
C406 C404 1.353 . S
C406 C409 1.348 . S
C406 H438 0.929 . S
C407 C408 1.358 . S
C407 C409 1.356 . S
C407 H439 0.930 . S
C408 N405 1.279 . S
C408 C407 1.358 . S
C408 H411 0.930 . S
C409 C406 1.348 . S
C409 C407 1.356 . S
H410 C404 0.930 . S
H411 C408 0.930 . S
O412 Li352 1.956 . S
O412 Li353 1.970 . S
O412 Li354 1.961 . S
O412 C356 1.325 . S
O413 Li352 1.970 . S
O413 Li353 1.956 . S
O413 Li355 1.961 . S
O413 C362 1.325 . S
O414 Li352 1.961 . S
O414 Li354 1.956 . S
O414 Li355 1.970 . S
O414 C384 1.325 . S
O415 Li353 1.961 . S
O415 Li354 1.970 . S
O415 Li355 1.956 . S
O415 C390 1.325 . S
H416 C358 0.929 . S
H417 C359 0.930 . S
H418 C360 0.930 . S
H419 C361 0.930 . S
H420 C363 0.930 . S
H421 C365 0.929 . S
H422 C366 0.930 . S
H423 C367 0.930 . S
H424 C370 0.930 . S
H425 C373 0.929 . S
H426 C378 0.929 . S
H427 C379 0.930 . S
H428 C386 0.929 . S
H429 C387 0.930 . S
H430 C388 0.930 . S
H431 C389 0.930 . S
H432 C391 0.929 . S
H433 C392 0.930 . S
H434 C393 0.930 . S
H435 C394 0.930 . S
H436 C398 0.929 . S
H437 C400 0.930 . S
H438 C406 0.929 . S
H439 C407 0.930 . S
Li440 N457 1.990 . S
Li440 O500 1.956 . S
Li440 O501 1.970 . S
Li440 O502 1.961 . S
Li441 N465 1.990 . S
Li441 O500 1.970 . S
Li441 O501 1.956 . S
Li441 O503 1.961 . S
Li442 N487 1.990 . S
Li442 O500 1.961 . S
Li442 O502 1.956 . S
Li442 O503 1.970 . S
Li443 N493 1.990 . S
Li443 O501 1.961 . S
Li443 O502 1.970 . S
Li443 O503 1.956 . S
C444 C446 1.348 . S
C444 C447 1.356 . S
C444 O500 1.325 . S
N445 C448 1.314 . S
N445 C449 1.279 . S
C446 C444 1.348 . S
C446 C448 1.353 . S
C446 H504 0.929 . S
C447 C444 1.356 . S
C447 C449 1.358 . S
C447 H505 0.930 . S
C448 N445 1.314 . S
C448 C446 1.353 . S
C448 H506 0.930 . S
C449 N445 1.279 . S
C449 C447 1.358 . S
C449 H507 0.930 . S
C450 C453 1.348 . S
C450 C454 1.356 . S
C450 O501 1.325 . S
C451 N452 1.279 . S
C451 C454 1.358 . S
C451 H508 0.930 . S
N452 C451 1.279 . S
N452 C455 1.314 . S
C453 C450 1.348 . S
C453 C455 1.353 . S
C453 H509 0.929 . S
C454 C450 1.356 . S
C454 C451 1.358 . S
C454 H510 0.930 . S
C455 N452 1.314 . S
C455 C453 1.353 . S
C455 H511 0.930 . S
C456 N457 1.314 . S
C456 C461 1.353 . S
C456 H462 0.930 . S
N457 Li440 1.990 . S
N457 C456 1.314 . S
N457 C459 1.279 . S
C458 C459 1.358 . S
C458 C460 1.356 . S
C458 H512 0.930 . S
C459 N457 1.279 . S
C459 C458 1.358 . S
C459 H463 0.930 . S
C460 C458 1.356 . S
C460 C461 1.348 . S
C461 C456 1.353 . S
C461 C460 1.348 . S
C461 H513 0.929 . S
H462 C456 0.930 . S
H463 C459 0.930 . S
C464 N465 1.314 . S
C464 C466 1.353 . S
C464 H470 0.930 . S
N465 Li441 1.990 . S
N465 C464 1.314 . S
N465 C468 1.279 . S
C466 C464 1.353 . S
C466 C469 1.348 . S
C466 H514 0.929 . S
C467 C468 1.358 . S
C467 C469 1.356 . S
C467 H515 0.930 . S
C468 N465 1.279 . S
C468 C467 1.358 . S
C468 H471 0.930 . S
C469 C466 1.348 . S
C469 C467 1.356 . S
H470 C464 0.930 . S
H471 C468 0.930 . S
C472 C474 1.348 . S
C472 C475 1.356 . S
C472 O502 1.325 . S
N473 C476 1.314 . S
N473 C477 1.279 . S
C474 C472 1.348 . S
C474 C476 1.353 . S
C474 H516 0.929 . S
C475 C472 1.356 . S
C475 C477 1.358 . S
C475 H517 0.930 . S
C476 N473 1.314 . S
C476 C474 1.353 . S
C476 H518 0.930 . S
C477 N473 1.279 . S
C477 C475 1.358 . S
C477 H519 0.930 . S
C478 C479 1.348 . S
C478 C480 1.356 . S
C478 O503 1.325 . S
C479 C478 1.348 . S
C479 C481 1.353 . S
C479 H520 0.929 . S
C480 C478 1.356 . S
C480 C482 1.358 . S
C480 H521 0.930 . S
C481 C479 1.353 . S
C481 N483 1.314 . S
C481 H522 0.930 . S
C482 C480 1.358 . S
C482 N483 1.279 . S
C482 H523 0.930 . S
N483 C481 1.314 . S
N483 C482 1.279 . S
C484 C486 1.353 . S
C484 N487 1.314 . S
C484 H490 0.930 . S
C485 N487 1.279 . S
C485 C488 1.358 . S
C485 H491 0.930 . S
C486 C484 1.353 . S
C486 C489 1.348 . S
C486 H524 0.929 . S
N487 Li442 1.990 . S
N487 C484 1.314 . S
N487 C485 1.279 . S
C488 C485 1.358 . S
C488 C489 1.356 . S
C488 H525 0.930 . S
C489 C486 1.348 . S
C489 C488 1.356 . S
H490 C484 0.930 . S
H491 C485 0.930 . S
C492 N493 1.314 . S
C492 C494 1.353 . S
C492 H498 0.930 . S
N493 Li443 1.990 . S
N493 C492 1.314 . S
N493 C496 1.279 . S
C494 C492 1.353 . S
C494 C497 1.348 . S
C494 H526 0.929 . S
C495 C496 1.358 . S
C495 C497 1.356 . S
C495 H527 0.930 . S
C496 N493 1.279 . S
C496 C495 1.358 . S
C496 H499 0.930 . S
C497 C494 1.348 . S
C497 C495 1.356 . S
H498 C492 0.930 . S
H499 C496 0.930 . S
O500 Li440 1.956 . S
O500 Li441 1.970 . S
O500 Li442 1.961 . S
O500 C444 1.325 . S
O501 Li440 1.970 . S
O501 Li441 1.956 . S
O501 Li443 1.961 . S
O501 C450 1.325 . S
O502 Li440 1.961 . S
O502 Li442 1.956 . S
O502 Li443 1.970 . S
O502 C472 1.325 . S
O503 Li441 1.961 . S
O503 Li442 1.970 . S
O503 Li443 1.956 . S
O503 C478 1.325 . S
H504 C446 0.929 . S
H505 C447 0.930 . S
H506 C448 0.930 . S
H507 C449 0.930 . S
H508 C451 0.930 . S
H509 C453 0.929 . S
H510 C454 0.930 . S
H511 C455 0.930 . S
H512 C458 0.930 . S
H513 C461 0.929 . S
H514 C466 0.929 . S
H515 C467 0.930 . S
H516 C474 0.929 . S
H517 C475 0.930 . S
H518 C476 0.930 . S
H519 C477 0.930 . S
H520 C479 0.929 . S
H521 C480 0.930 . S
H522 C481 0.930 . S
H523 C482 0.930 . S
H524 C486 0.929 . S
H525 C488 0.930 . S
H526 C494 0.929 . S
H527 C495 0.930 . S
Li528 N545 1.990 . S
Li528 O588 1.956 . S
Li528 O589 1.970 . S
Li528 O590 1.961 . S
Li529 N553 1.990 . S
Li529 O588 1.970 . S
Li529 O589 1.956 . S
Li529 O591 1.961 . S
Li530 N575 1.990 . S
Li530 O588 1.961 . S
Li530 O590 1.956 . S
Li530 O591 1.970 . S
Li531 N581 1.990 . S
Li531 O589 1.961 . S
Li531 O590 1.970 . S
Li531 O591 1.956 . S
C532 C534 1.348 . S
C532 C535 1.356 . S
C532 O588 1.325 . S
N533 C536 1.314 . S
N533 C537 1.279 . S
C534 C532 1.348 . S
C534 C536 1.353 . S
C534 H592 0.929 . S
C535 C532 1.356 . S
C535 C537 1.358 . S
C535 H593 0.930 . S
C536 N533 1.314 . S
C536 C534 1.353 . S
C536 H594 0.930 . S
C537 N533 1.279 . S
C537 C535 1.358 . S
C537 H595 0.930 . S
C538 C541 1.348 . S
C538 C542 1.356 . S
C538 O589 1.325 . S
C539 N540 1.279 . S
C539 C542 1.358 . S
C539 H596 0.930 . S
N540 C539 1.279 . S
N540 C543 1.314 . S
C541 C538 1.348 . S
C541 C543 1.353 . S
C541 H597 0.929 . S
C542 C538 1.356 . S
C542 C539 1.358 . S
C542 H598 0.930 . S
C543 N540 1.314 . S
C543 C541 1.353 . S
C543 H599 0.930 . S
C544 N545 1.314 . S
C544 C549 1.353 . S
C544 H550 0.930 . S
N545 Li528 1.990 . S
N545 C544 1.314 . S
N545 C547 1.279 . S
C546 C547 1.358 . S
C546 C548 1.356 . S
C546 H600 0.930 . S
C547 N545 1.279 . S
C547 C546 1.358 . S
C547 H551 0.930 . S
C548 C546 1.356 . S
C548 C549 1.348 . S
C549 C544 1.353 . S
C549 C548 1.348 . S
C549 H601 0.929 . S
H550 C544 0.930 . S
H551 C547 0.930 . S
C552 N553 1.314 . S
C552 C554 1.353 . S
C552 H558 0.930 . S
N553 Li529 1.990 . S
N553 C552 1.314 . S
N553 C556 1.279 . S
C554 C552 1.353 . S
C554 C557 1.348 . S
C554 H602 0.929 . S
C555 C556 1.358 . S
C555 C557 1.356 . S
C555 H603 0.930 . S
C556 N553 1.279 . S
C556 C555 1.358 . S
C556 H559 0.930 . S
C557 C554 1.348 . S
C557 C555 1.356 . S
H558 C552 0.930 . S
H559 C556 0.930 . S
C560 C562 1.348 . S
C560 C563 1.356 . S
C560 O590 1.325 . S
N561 C564 1.314 . S
N561 C565 1.279 . S
C562 C560 1.348 . S
C562 C564 1.353 . S
C562 H604 0.929 . S
C563 C560 1.356 . S
C563 C565 1.358 . S
C563 H605 0.930 . S
C564 N561 1.314 . S
C564 C562 1.353 . S
C564 H606 0.930 . S
C565 N561 1.279 . S
C565 C563 1.358 . S
C565 H607 0.930 . S
C566 C567 1.348 . S
C566 C568 1.356 . S
C566 O591 1.325 . S
C567 C566 1.348 . S
C567 C569 1.353 . S
C567 H608 0.929 . S
C568 C566 1.356 . S
C568 C570 1.358 . S
C568 H609 0.930 . S
C569 C567 1.353 . S
C569 N571 1.314 . S
C569 H610 0.930 . S
C570 C568 1.358 . S
C570 N571 1.279 . S
C570 H611 0.930 . S
N571 C569 1.314 . S
N571 C570 1.279 . S
C572 C574 1.353 . S
C572 N575 1.314 . S
C572 H578 0.930 . S
C573 N575 1.279 . S
C573 C576 1.358 . S
C573 H579 0.930 . S
C574 C572 1.353 . S
C574 C577 1.348 . S
C574 H612 0.929 . S
N575 Li530 1.990 . S
N575 C572 1.314 . S
N575 C573 1.279 . S
C576 C573 1.358 . S
C576 C577 1.356 . S
C576 H613 0.930 . S
C577 C574 1.348 . S
C577 C576 1.356 . S
H578 C572 0.930 . S
H579 C573 0.930 . S
C580 N581 1.314 . S
C580 C582 1.353 . S
C580 H586 0.930 . S
N581 Li531 1.990 . S
N581 C580 1.314 . S
N581 C584 1.279 . S
C582 C580 1.353 . S
C582 C585 1.348 . S
C582 H614 0.929 . S
C583 C584 1.358 . S
C583 C585 1.356 . S
C583 H615 0.930 . S
C584 N581 1.279 . S
C584 C583 1.358 . S
C584 H587 0.930 . S
C585 C582 1.348 . S
C585 C583 1.356 . S
H586 C580 0.930 . S
H587 C584 0.930 . S
O588 Li528 1.956 . S
O588 Li529 1.970 . S
O588 Li530 1.961 . S
O588 C532 1.325 . S
O589 Li528 1.970 . S
O589 Li529 1.956 . S
O589 Li531 1.961 . S
O589 C538 1.325 . S
O590 Li528 1.961 . S
O590 Li530 1.956 . S
O590 Li531 1.970 . S
O590 C560 1.325 . S
O591 Li529 1.961 . S
O591 Li530 1.970 . S
O591 Li531 1.956 . S
O591 C566 1.325 . S
H592 C534 0.929 . S
H593 C535 0.930 . S
H594 C536 0.930 . S
H595 C537 0.930 . S
H596 C539 0.930 . S
H597 C541 0.929 . S
H598 C542 0.930 . S
H599 C543 0.930 . S
H600 C546 0.930 . S
H601 C549 0.929 . S
H602 C554 0.929 . S
H603 C555 0.930 . S
H604 C562 0.929 . S
H605 C563 0.930 . S
H606 C564 0.930 . S
H607 C565 0.930 . S
H608 C567 0.929 . S
H609 C568 0.930 . S
H610 C569 0.930 . S
H611 C570 0.930 . S
H612 C574 0.929 . S
H613 C576 0.930 . S
H614 C582 0.929 . S
H615 C583 0.930 . S
Li616 N633 1.990 . S
Li616 O676 1.956 1_655 S
Li616 O677 1.970 1_554 S
Li616 O678 1.961 1_554 S
Li617 N641 1.990 . S
Li617 O676 1.970 1_656 S
Li617 O677 1.956 . S
Li617 O679 1.961 . S
Li618 N663 1.990 . S
Li618 O676 1.961 1_556 S
Li618 O678 1.956 1_455 S
Li618 O679 1.970 1_455 S
Li619 N669 1.990 . S
Li619 O677 1.961 . S
Li619 O678 1.970 . S
Li619 O679 1.956 . S
C620 C622 1.348 . S
C620 C623 1.356 . S
C620 O676 1.325 . S
N621 C624 1.314 . S
N621 C625 1.279 . S
C622 C620 1.348 . S
C622 C624 1.353 . S
C622 H680 0.929 . S
C623 C620 1.356 . S
C623 C625 1.358 . S
C623 H681 0.930 . S
C624 N621 1.314 . S
C624 C622 1.353 . S
C624 H682 0.930 . S
C625 N621 1.279 . S
C625 C623 1.358 . S
C625 H683 0.930 . S
C626 C629 1.348 1_556 S
C626 C630 1.356 . S
C626 O677 1.325 . S
C627 N628 1.279 1_556 S
C627 C630 1.358 . S
C627 H684 0.930 . S
N628 C627 1.279 1_554 S
N628 C631 1.314 . S
C629 C626 1.348 1_554 S
C629 C631 1.353 . S
C629 H685 0.929 . S
C630 C626 1.356 . S
C630 C627 1.358 . S
C630 H686 0.930 . S
C631 N628 1.314 . S
C631 C629 1.353 . S
C631 H687 0.930 . S
C632 N633 1.314 . S
C632 C637 1.353 . S
C632 H638 0.930 . S
N633 Li616 1.990 . S
N633 C632 1.314 . S
N633 C635 1.279 . S
C634 C635 1.358 . S
C634 C636 1.356 . S
C634 H688 0.930 . S
C635 N633 1.279 . S
C635 C634 1.358 . S
C635 H639 0.930 . S
C636 C634 1.356 . S
C636 C637 1.348 . S
C637 C632 1.353 . S
C637 C636 1.348 . S
C637 H689 0.929 . S
H638 C632 0.930 . S
H639 C635 0.930 . S
C640 N641 1.327 . S
C640 C642 1.351 1_655 S
C640 H646 0.917 1_655 S
N641 Li617 1.990 . S
N641 C640 1.327 . S
N641 C644 1.279 . S
C642 C640 1.351 1_455 S
C642 C645 1.348 1_455 S
C642 H690 0.929 . S
C643 C644 1.358 . S
C643 C645 1.356 . S
C643 H691 0.930 1_556 S
C644 N641 1.279 . S
C644 C643 1.358 . S
C644 H647 0.930 1_556 S
C645 C642 1.348 1_655 S
C645 C643 1.356 . S
H646 C640 0.917 1_455 S
H647 C644 0.930 1_554 S
C648 C650 1.348 . S
C648 C651 1.356 . S
C648 O678 1.325 . S
N649 C652 1.314 . S
N649 C653 1.279 . S
C650 C648 1.348 . S
C650 C652 1.353 . S
C650 H692 0.929 . S
C651 C648 1.356 . S
C651 C653 1.358 . S
C651 H693 0.911 1_656 S
C652 N649 1.314 . S
C652 C650 1.353 . S
C652 H694 0.930 . S
C653 N649 1.279 . S
C653 C651 1.358 . S
C653 H695 0.949 1_556 S
C654 C655 1.348 1_655 S
C654 C656 1.356 . S
C654 O679 1.325 . S
C655 C654 1.348 1_455 S
C655 C657 1.353 . S
C655 H696 0.929 . S
C656 C654 1.356 . S
C656 C658 1.358 . S
C656 H697 0.930 . S
C657 C655 1.353 . S
C657 N659 1.314 . S
C657 H698 0.930 . S
C658 C656 1.358 . S
C658 N659 1.279 1_655 S
C658 H699 0.930 . S
N659 C657 1.314 . S
N659 C658 1.279 1_455 S
C660 C662 1.353 . S
C660 N663 1.314 . S
C660 H666 0.930 . S
C661 N663 1.279 . S
C661 C664 1.358 . S
C661 H667 0.930 . S
C662 C660 1.353 . S
C662 C665 1.348 . S
C662 H700 0.929 . S
N663 Li618 1.990 . S
N663 C660 1.314 . S
N663 C661 1.279 . S
C664 C661 1.358 . S
C664 C665 1.356 . S
C664 H701 0.930 . S
C665 C662 1.348 . S
C665 C664 1.356 . S
H666 C660 0.930 . S
H667 C661 0.930 . S
C668 N669 1.314 . S
C668 C670 1.353 . S
C668 H674 0.930 . S
N669 Li619 1.990 . S
N669 C668 1.314 . S
N669 C672 1.279 . S
C670 C668 1.353 . S
C670 C673 1.348 . S
C670 H702 0.929 . S
C671 C672 1.358 . S
C671 C673 1.356 . S
C671 H703 0.930 . S
C672 N669 1.279 . S
C672 C671 1.358 . S
C672 H675 0.930 . S
C673 C670 1.348 . S
C673 C671 1.356 . S
H674 C668 0.930 . S
H675 C672 0.930 . S
O676 Li616 1.956 1_455 S
O676 Li617 1.970 1_454 S
O676 Li618 1.961 1_554 S
O676 C620 1.325 . S
O677 Li616 1.970 1_556 S
O677 Li617 1.956 . S
O677 Li619 1.961 . S
O677 C626 1.325 . S
O678 Li616 1.961 1_556 S
O678 Li618 1.956 1_655 S
O678 Li619 1.970 . S
O678 C648 1.325 . S
O679 Li617 1.961 . S
O679 Li618 1.970 1_655 S
O679 Li619 1.956 . S
O679 C654 1.325 . S
H680 C622 0.929 . S
H681 C623 0.930 . S
H682 C624 0.930 . S
H683 C625 0.930 . S
H684 C627 0.930 . S
H685 C629 0.929 . S
H686 C630 0.930 . S
H687 C631 0.930 . S
H688 C634 0.930 . S
H689 C637 0.929 . S
H690 C642 0.929 . S
H691 C643 0.930 1_554 S
H692 C650 0.929 . S
H693 C651 0.911 1_454 S
H694 C652 0.930 . S
H695 C653 0.949 1_554 S
H696 C655 0.929 . S
H697 C656 0.930 . S
H698 C657 0.930 . S
H699 C658 0.930 . S
H700 C662 0.929 . S
H701 C664 0.930 . S
H702 C670 0.929 . S
H703 C671 0.930 . S
Li704 N721 1.990 . S
Li704 O764 1.956 . S
Li704 O765 1.970 . S
Li704 O766 1.961 . S
Li705 N729 1.990 . S
Li705 O764 1.970 . S
Li705 O765 1.956 . S
Li705 O767 1.961 . S
Li706 N751 1.990 . S
Li706 O764 1.961 . S
Li706 O766 1.956 . S
Li706 O767 1.970 . S
Li707 N757 1.990 . S
Li707 O765 1.961 . S
Li707 O766 1.970 . S
Li707 O767 1.956 . S
C708 C710 1.348 . S
C708 C711 1.356 . S
C708 O764 1.325 . S
N709 C712 1.314 . S
N709 C713 1.279 . S
C710 C708 1.348 . S
C710 C712 1.353 . S
C710 H768 0.929 . S
C711 C708 1.356 . S
C711 C713 1.358 . S
C711 H769 0.930 . S
C712 N709 1.314 . S
C712 C710 1.353 . S
C712 H770 0.930 . S
C713 N709 1.279 . S
C713 C711 1.358 . S
C713 H771 0.930 . S
C714 C717 1.348 . S
C714 C718 1.356 . S
C714 O765 1.325 . S
C715 N716 1.279 . S
C715 C718 1.358 . S
C715 H772 0.930 . S
N716 C715 1.279 . S
N716 C719 1.314 . S
C717 C714 1.348 . S
C717 C719 1.353 . S
C717 H773 0.929 . S
C718 C714 1.356 . S
C718 C715 1.358 . S
C718 H774 0.930 . S
C719 N716 1.314 . S
C719 C717 1.353 . S
C719 H775 0.930 . S
C720 N721 1.314 . S
C720 C725 1.353 . S
C720 H726 0.930 . S
N721 Li704 1.990 . S
N721 C720 1.314 . S
N721 C723 1.279 . S
C722 C723 1.358 . S
C722 C724 1.356 . S
C722 H776 0.930 . S
C723 N721 1.279 . S
C723 C722 1.358 . S
C723 H727 0.930 . S
C724 C722 1.356 . S
C724 C725 1.348 . S
C725 C720 1.353 . S
C725 C724 1.348 . S
C725 H777 0.929 . S
H726 C720 0.930 . S
H727 C723 0.930 . S
C728 N729 1.314 . S
C728 C730 1.353 . S
C728 H734 0.930 . S
N729 Li705 1.990 . S
N729 C728 1.314 . S
N729 C732 1.279 . S
C730 C728 1.353 . S
C730 C733 1.348 . S
C730 H778 0.929 . S
C731 C732 1.358 . S
C731 C733 1.356 . S
C731 H779 0.930 . S
C732 N729 1.279 . S
C732 C731 1.358 . S
C732 H735 0.930 . S
C733 C730 1.348 . S
C733 C731 1.356 . S
H734 C728 0.930 . S
H735 C732 0.930 . S
C736 C738 1.348 . S
C736 C739 1.356 . S
C736 O766 1.325 . S
N737 C740 1.314 . S
N737 C741 1.279 . S
C738 C736 1.348 . S
C738 C740 1.353 . S
C738 H780 0.929 . S
C739 C736 1.356 . S
C739 C741 1.358 . S
C739 H781 0.930 . S
C740 N737 1.314 . S
C740 C738 1.353 . S
C740 H782 0.930 . S
C741 N737 1.279 . S
C741 C739 1.358 . S
C741 H783 0.930 . S
C742 C743 1.348 . S
C742 C744 1.356 . S
C742 O767 1.325 . S
C743 C742 1.348 . S
C743 C745 1.353 . S
C743 H784 0.929 . S
C744 C742 1.356 . S
C744 C746 1.358 . S
C744 H785 0.930 . S
C745 C743 1.353 . S
C745 N747 1.314 . S
C745 H786 0.930 . S
C746 C744 1.358 . S
C746 N747 1.279 . S
C746 H787 0.930 . S
N747 C745 1.314 . S
N747 C746 1.279 . S
C748 C750 1.353 . S
C748 N751 1.314 . S
C748 H754 0.930 . S
C749 N751 1.279 . S
C749 C752 1.358 . S
C749 H755 0.930 . S
C750 C748 1.353 . S
C750 C753 1.348 . S
C750 H788 0.929 . S
N751 Li706 1.990 . S
N751 C748 1.314 . S
N751 C749 1.279 . S
C752 C749 1.358 . S
C752 C753 1.356 . S
C752 H789 0.930 . S
C753 C750 1.348 . S
C753 C752 1.356 . S
H754 C748 0.930 . S
H755 C749 0.930 . S
C756 N757 1.314 . S
C756 C758 1.353 . S
C756 H762 0.930 . S
N757 Li707 1.990 . S
N757 C756 1.314 . S
N757 C760 1.279 . S
C758 C756 1.353 . S
C758 C761 1.348 . S
C758 H790 0.929 . S
C759 C760 1.358 . S
C759 C761 1.356 . S
C759 H791 0.930 . S
C760 N757 1.279 . S
C760 C759 1.358 . S
C760 H763 0.930 . S
C761 C758 1.348 . S
C761 C759 1.356 . S
H762 C756 0.930 . S
H763 C760 0.930 . S
O764 Li704 1.956 . S
O764 Li705 1.970 . S
O764 Li706 1.961 . S
O764 C708 1.325 . S
O765 Li704 1.970 . S
O765 Li705 1.956 . S
O765 Li707 1.961 . S
O765 C714 1.325 . S
O766 Li704 1.961 . S
O766 Li706 1.956 . S
O766 Li707 1.970 . S
O766 C736 1.325 . S
O767 Li705 1.961 . S
O767 Li706 1.970 . S
O767 Li707 1.956 . S
O767 C742 1.325 . S
H768 C710 0.929 . S
H769 C711 0.930 . S
H770 C712 0.930 . S
H771 C713 0.930 . S
H772 C715 0.930 . S
H773 C717 0.929 . S
H774 C718 0.930 . S
H775 C719 0.930 . S
H776 C722 0.930 . S
H777 C725 0.929 . S
H778 C730 0.929 . S
H779 C731 0.930 . S
H780 C738 0.929 . S
H781 C739 0.930 . S
H782 C740 0.930 . S
H783 C741 0.930 . S
H784 C743 0.929 . S
H785 C744 0.930 . S
H786 C745 0.930 . S
H787 C746 0.930 . S
H788 C750 0.929 . S
H789 C752 0.930 . S
H790 C758 0.929 . S
H791 C759 0.930 . S
Li792 N809 1.990 . S
Li792 O852 1.956 . S
Li792 O853 1.970 . S
Li792 O854 1.961 . S
Li793 N817 1.990 . S
Li793 O852 1.970 . S
Li793 O853 1.956 . S
Li793 O855 1.961 1_455 S
Li794 N839 1.990 . S
Li794 O852 1.961 . S
Li794 O854 1.956 . S
Li794 O855 1.970 1_455 S
Li795 N845 1.990 . S
Li795 O853 1.961 1_655 S
Li795 O854 1.970 1_655 S
Li795 O855 1.956 . S
C796 C798 1.348 . S
C796 C799 1.356 . S
C796 O852 1.325 . S
N797 C800 1.314 . S
N797 C801 1.279 . S
C798 C796 1.348 . S
C798 C800 1.353 . S
C798 H856 0.929 . S
C799 C796 1.356 . S
C799 C801 1.358 . S
C799 H857 0.930 . S
C800 N797 1.314 . S
C800 C798 1.353 . S
C800 H858 0.930 . S
C801 N797 1.279 . S
C801 C799 1.358 . S
C801 H859 0.930 . S
C802 C805 1.348 . S
C802 C806 1.356 . S
C802 O853 1.325 . S
C803 N804 1.279 . S
C803 C806 1.358 . S
C803 H860 0.930 1_455 S
N804 C803 1.279 . S
N804 C807 1.314 . S
C805 C802 1.348 . S
C805 C807 1.353 . S
C805 H861 0.929 . S
C806 C802 1.356 . S
C806 C803 1.358 . S
C806 H862 0.930 1_455 S
C807 N804 1.314 . S
C807 C805 1.353 . S
C807 H863 0.930 . S
C808 N809 1.314 . S
C808 C813 1.353 . S
C808 H814 0.930 . S
N809 Li792 1.990 . S
N809 C808 1.314 . S
N809 C811 1.279 . S
C810 C811 1.358 . S
C810 C812 1.356 . S
C810 H864 0.930 . S
C811 N809 1.279 . S
C811 C810 1.358 . S
C811 H815 0.930 . S
C812 C810 1.356 . S
C812 C813 1.348 . S
C813 C808 1.353 . S
C813 C812 1.348 . S
C813 H865 0.929 . S
H814 C808 0.930 . S
H815 C811 0.930 . S
C816 N817 1.314 . S
C816 C818 1.353 . S
C816 H822 0.930 . S
N817 Li793 1.990 . S
N817 C816 1.314 . S
N817 C820 1.279 . S
C818 C816 1.353 . S
C818 C821 1.348 . S
C818 H866 0.929 . S
C819 C820 1.358 . S
C819 C821 1.356 . S
C819 H867 0.930 . S
C820 N817 1.279 . S
C820 C819 1.358 . S
C820 H823 0.930 . S
C821 C818 1.348 . S
C821 C819 1.356 . S
H822 C816 0.930 . S
H823 C820 0.930 . S
C824 C826 1.348 1_455 S
C824 C827 1.356 . S
C824 O854 1.325 . S
N825 C828 1.314 . S
N825 C829 1.279 1_655 S
C826 C824 1.348 1_655 S
C826 C828 1.353 . S
C826 H868 0.929 . S
C827 C824 1.356 . S
C827 C829 1.358 . S
C827 H869 0.930 . S
C828 N825 1.314 . S
C828 C826 1.353 . S
C828 H870 0.930 . S
C829 N825 1.279 1_455 S
C829 C827 1.358 . S
C829 H871 0.930 . S
C830 C831 1.348 . S
C830 C832 1.356 . S
C830 O855 1.325 . S
C831 C830 1.348 . S
C831 C833 1.353 . S
C831 H872 0.929 . S
C832 C830 1.356 . S
C832 C834 1.358 . S
C832 H873 0.930 . S
C833 C831 1.353 . S
C833 N835 1.314 . S
C833 H874 0.930 . S
C834 C832 1.358 . S
C834 N835 1.279 . S
C834 H875 0.930 . S
N835 C833 1.314 . S
N835 C834 1.279 . S
C836 C838 1.353 . S
C836 N839 1.314 . S
C836 H842 0.930 . S
C837 N839 1.279 . S
C837 C840 1.358 . S
C837 H843 0.934 . S
C838 C836 1.353 . S
C838 C841 1.348 . S
C838 H876 0.929 . S
N839 Li794 1.990 . S
N839 C836 1.314 . S
N839 C837 1.279 . S
C840 C837 1.358 . S
C840 C841 1.356 . S
C840 H877 0.930 1_455 S
C841 C838 1.348 . S
C841 C840 1.356 . S
H842 C836 0.930 . S
H843 C837 0.934 . S
C844 N845 1.314 . S
C844 C846 1.353 . S
C844 H850 0.930 . S
N845 Li795 1.990 . S
N845 C844 1.314 . S
N845 C848 1.279 . S
C846 C844 1.353 . S
C846 C849 1.348 . S
C846 H878 0.929 . S
C847 C848 1.358 . S
C847 C849 1.356 . S
C847 H879 0.930 . S
C848 N845 1.279 . S
C848 C847 1.358 . S
C848 H851 0.930 . S
C849 C846 1.348 . S
C849 C847 1.356 . S
H850 C844 0.930 . S
H851 C848 0.930 . S
O852 Li792 1.956 . S
O852 Li793 1.970 . S
O852 Li794 1.961 . S
O852 C796 1.325 . S
O853 Li792 1.970 . S
O853 Li793 1.956 . S
O853 Li795 1.961 1_455 S
O853 C802 1.325 . S
O854 Li792 1.961 . S
O854 Li794 1.956 . S
O854 Li795 1.970 1_455 S
O854 C824 1.325 . S
O855 Li793 1.961 1_655 S
O855 Li794 1.970 1_655 S
O855 Li795 1.956 . S
O855 C830 1.325 . S
H856 C798 0.929 . S
H857 C799 0.930 . S
H858 C800 0.930 . S
H859 C801 0.930 . S
H860 C803 0.930 1_655 S
H861 C805 0.929 . S
H862 C806 0.930 1_655 S
H863 C807 0.930 . S
H864 C810 0.930 . S
H865 C813 0.929 . S
H866 C818 0.929 . S
H867 C819 0.930 . S
H868 C826 0.929 . S
H869 C827 0.930 . S
H870 C828 0.930 . S
H871 C829 0.930 . S
H872 C831 0.929 . S
H873 C832 0.930 . S
H874 C833 0.930 . S
H875 C834 0.930 . S
H876 C838 0.929 . S
H877 C840 0.930 1_655 S
H878 C846 0.929 . S
H879 C847 0.930 . S
Li880 N897 1.990 . S
Li880 O940 1.956 . S
Li880 O941 1.970 . S
Li880 O942 1.961 . S
Li881 N905 1.990 . S
Li881 O940 1.970 . S
Li881 O941 1.956 . S
Li881 O943 1.961 . S
Li882 N927 1.990 . S
Li882 O940 1.961 . S
Li882 O942 1.956 . S
Li882 O943 1.970 . S
Li883 N933 1.990 . S
Li883 O941 1.961 . S
Li883 O942 1.970 . S
Li883 O943 1.956 . S
C884 C886 1.348 . S
C884 C887 1.356 . S
C884 O940 1.325 . S
N885 C888 1.314 . S
N885 C889 1.279 . S
C886 C884 1.348 . S
C886 C888 1.353 . S
C886 H944 0.929 . S
C887 C884 1.356 . S
C887 C889 1.358 . S
C887 H945 0.930 . S
C888 N885 1.314 . S
C888 C886 1.353 . S
C888 H946 0.930 . S
C889 N885 1.279 . S
C889 C887 1.358 . S
C889 H947 0.930 . S
C890 C893 1.348 . S
C890 C894 1.356 . S
C890 O941 1.325 . S
C891 N892 1.279 . S
C891 C894 1.358 . S
C891 H948 0.930 . S
N892 C891 1.279 . S
N892 C895 1.314 . S
C893 C890 1.348 . S
C893 C895 1.353 . S
C893 H949 0.929 . S
C894 C890 1.356 . S
C894 C891 1.358 . S
C894 H950 0.930 . S
C895 N892 1.314 . S
C895 C893 1.353 . S
C895 H951 0.930 . S
C896 N897 1.314 . S
C896 C901 1.353 . S
C896 H902 0.930 . S
N897 Li880 1.990 . S
N897 C896 1.314 . S
N897 C899 1.279 . S
C898 C899 1.358 . S
C898 C900 1.356 . S
C898 H952 0.930 . S
C899 N897 1.279 . S
C899 C898 1.358 . S
C899 H903 0.930 . S
C900 C898 1.356 . S
C900 C901 1.348 . S
C901 C896 1.353 . S
C901 C900 1.348 . S
C901 H953 0.929 . S
H902 C896 0.930 . S
H903 C899 0.930 . S
C904 N905 1.314 . S
C904 C906 1.353 . S
C904 H910 0.930 . S
N905 Li881 1.990 . S
N905 C904 1.314 . S
N905 C908 1.279 . S
C906 C904 1.353 . S
C906 C909 1.348 . S
C906 H954 0.929 . S
C907 C908 1.358 . S
C907 C909 1.356 . S
C907 H955 0.930 . S
C908 N905 1.279 . S
C908 C907 1.358 . S
C908 H911 0.930 . S
C909 C906 1.348 . S
C909 C907 1.356 . S
H910 C904 0.930 . S
H911 C908 0.930 . S
C912 C914 1.348 . S
C912 C915 1.356 . S
C912 O942 1.325 . S
N913 C916 1.314 . S
N913 C917 1.279 . S
C914 C912 1.348 . S
C914 C916 1.353 . S
C914 H956 0.929 . S
C915 C912 1.356 . S
C915 C917 1.358 . S
C915 H957 0.930 . S
C916 N913 1.314 . S
C916 C914 1.353 . S
C916 H958 0.930 . S
C917 N913 1.279 . S
C917 C915 1.358 . S
C917 H959 0.930 . S
C918 C919 1.348 . S
C918 C920 1.356 . S
C918 O943 1.325 . S
C919 C918 1.348 . S
C919 C921 1.353 . S
C919 H960 0.929 . S
C920 C918 1.356 . S
C920 C922 1.358 . S
C920 H961 0.930 . S
C921 C919 1.353 . S
C921 N923 1.314 . S
C921 H962 0.930 . S
C922 C920 1.358 . S
C922 N923 1.279 . S
C922 H963 0.930 . S
N923 C921 1.314 . S
N923 C922 1.279 . S
C924 C926 1.353 . S
C924 N927 1.314 . S
C924 H930 0.930 . S
C925 N927 1.279 . S
C925 C928 1.358 . S
C925 H931 0.930 . S
C926 C924 1.353 . S
C926 C929 1.348 . S
C926 H964 0.929 . S
N927 Li882 1.990 . S
N927 C924 1.314 . S
N927 C925 1.279 . S
C928 C925 1.358 . S
C928 C929 1.356 . S
C928 H965 0.930 . S
C929 C926 1.348 . S
C929 C928 1.356 . S
H930 C924 0.930 . S
H931 C925 0.930 . S
C932 N933 1.314 . S
C932 C934 1.353 . S
C932 H938 0.930 . S
N933 Li883 1.990 . S
N933 C932 1.314 . S
N933 C936 1.279 . S
C934 C932 1.353 . S
C934 C937 1.348 . S
C934 H966 0.929 . S
C935 C936 1.358 . S
C935 C937 1.356 . S
C935 H967 0.930 . S
C936 N933 1.279 . S
C936 C935 1.358 . S
C936 H939 0.930 . S
C937 C934 1.348 . S
C937 C935 1.356 . S
H938 C932 0.930 . S
H939 C936 0.930 . S
O940 Li880 1.956 . S
O940 Li881 1.970 . S
O940 Li882 1.961 . S
O940 C884 1.325 . S
O941 Li880 1.970 . S
O941 Li881 1.956 . S
O941 Li883 1.961 . S
O941 C890 1.325 . S
O942 Li880 1.961 . S
O942 Li882 1.956 . S
O942 Li883 1.970 . S
O942 C912 1.325 . S
O943 Li881 1.961 . S
O943 Li882 1.970 . S
O943 Li883 1.956 . S
O943 C918 1.325 . S
H944 C886 0.929 . S
H945 C887 0.930 . S
H946 C888 0.930 . S
H947 C889 0.930 . S
H948 C891 0.930 . S
H949 C893 0.929 . S
H950 C894 0.930 . S
H951 C895 0.930 . S
H952 C898 0.930 . S
H953 C901 0.929 . S
H954 C906 0.929 . S
H955 C907 0.930 . S
H956 C914 0.929 . S
H957 C915 0.930 . S
H958 C916 0.930 . S
H959 C917 0.930 . S
H960 C919 0.929 . S
H961 C920 0.930 . S
H962 C921 0.930 . S
H963 C922 0.930 . S
H964 C926 0.929 . S
H965 C928 0.930 . S
H966 C934 0.929 . S
H967 C935 0.930 . S
Li968 N985 1.990 . S
Li968 O1028 1.956 1_556 S
Li968 O1029 1.970 . S
Li968 O1030 1.961 . S
Li969 N993 1.990 . S
Li969 O1028 1.970 1_556 S
Li969 O1029 1.956 . S
Li969 O1031 1.961 . S
Li970 N1015 1.990 . S
Li970 O1028 1.961 . S
Li970 O1030 1.956 1_554 S
Li970 O1031 1.970 1_554 S
Li971 N1021 1.990 . S
Li971 O1029 1.961 . S
Li971 O1030 1.970 . S
Li971 O1031 1.956 . S
C972 C974 1.348 . S
C972 C975 1.356 . S
C972 O1028 1.325 . S
N973 C976 1.314 . S
N973 C977 1.279 . S
C974 C972 1.348 . S
C974 C976 1.353 . S
C974 H1032 0.929 . S
C975 C972 1.356 . S
C975 C977 1.358 . S
C975 H1033 0.930 . S
C976 N973 1.314 . S
C976 C974 1.353 . S
C976 H1034 0.930 . S
C977 N973 1.279 . S
C977 C975 1.358 . S
C977 H1035 0.930 . S
C978 C981 1.348 . S
C978 C982 1.356 . S
C978 O1029 1.325 . S
C979 N980 1.279 . S
C979 C982 1.358 . S
C979 H1036 0.930 . S
N980 C979 1.279 . S
N980 C983 1.314 . S
C981 C978 1.348 . S
C981 C983 1.353 . S
C981 H1037 0.929 . S
C982 C978 1.356 . S
C982 C979 1.358 . S
C982 H1038 0.930 . S
C983 N980 1.314 . S
C983 C981 1.353 . S
C983 H1039 0.930 . S
C984 N985 1.314 . S
C984 C989 1.353 . S
C984 H990 0.930 . S
N985 Li968 1.990 . S
N985 C984 1.314 . S
N985 C987 1.279 . S
C986 C987 1.358 . S
C986 C988 1.356 . S
C986 H1040 0.930 . S
C987 N985 1.279 . S
C987 C986 1.358 . S
C987 H991 0.930 . S
C988 C986 1.356 . S
C988 C989 1.348 . S
C989 C984 1.353 . S
C989 C988 1.348 . S
C989 H1041 0.929 . S
H990 C984 0.930 . S
H991 C987 0.930 . S
C992 N993 1.289 1_554 S
C992 C994 1.357 . S
C992 H998 0.954 . S
N993 Li969 1.990 . S
N993 C992 1.289 1_556 S
N993 C996 1.279 . S
C994 C992 1.357 . S
C994 C997 1.348 1_554 S
C994 H1042 0.929 . S
C995 C996 1.358 . S
C995 C997 1.356 . S
C995 H1043 0.930 . S
C996 N993 1.279 . S
C996 C995 1.358 . S
C996 H999 0.930 . S
C997 C994 1.348 1_556 S
C997 C995 1.356 . S
H998 C992 0.954 . S
H999 C996 0.930 . S
C1000 C1002 1.348 . S
C1000 C1003 1.356 . S
C1000 O1030 1.325 . S
N1001 C1004 1.314 . S
N1001 C1005 1.279 . S
C1002 C1000 1.348 . S
C1002 C1004 1.353 . S
C1002 H1044 0.929 . S
C1003 C1000 1.356 . S
C1003 C1005 1.358 . S
C1003 H1045 0.930 . S
C1004 N1001 1.314 . S
C1004 C1002 1.353 . S
C1004 H1046 0.930 . S
C1005 N1001 1.279 . S
C1005 C1003 1.358 . S
C1005 H1047 0.930 . S
C1006 C1007 1.348 1_556 S
C1006 C1008 1.356 . S
C1006 O1031 1.325 . S
C1007 C1006 1.348 1_554 S
C1007 C1009 1.353 . S
C1007 H1048 0.929 . S
C1008 C1006 1.356 . S
C1008 C1010 1.358 . S
C1008 H1049 0.930 . S
C1009 C1007 1.353 . S
C1009 N1011 1.314 . S
C1009 H1050 0.930 . S
C1010 C1008 1.358 . S
C1010 N1011 1.279 1_556 S
C1010 H1051 0.930 . S
N1011 C1009 1.314 . S
N1011 C1010 1.279 1_554 S
C1012 C1014 1.353 . S
C1012 N1015 1.314 . S
C1012 H1018 0.930 . S
C1013 N1015 1.279 . S
C1013 C1016 1.358 . S
C1013 H1019 0.930 . S
C1014 C1012 1.353 . S
C1014 C1017 1.348 . S
C1014 H1052 0.929 . S
N1015 Li970 1.990 . S
N1015 C1012 1.314 . S
N1015 C1013 1.279 . S
C1016 C1013 1.358 . S
C1016 C1017 1.356 . S
C1016 H1053 0.930 . S
C1017 C1014 1.348 . S
C1017 C1016 1.356 . S
H1018 C1012 0.930 . S
H1019 C1013 0.930 . S
C1020 N1021 1.314 . S
C1020 C1022 1.353 . S
C1020 H1026 0.930 . S
N1021 Li971 1.990 . S
N1021 C1020 1.314 . S
N1021 C1024 1.279 . S
C1022 C1020 1.353 . S
C1022 C1025 1.348 . S
C1022 H1054 0.929 . S
C1023 C1024 1.358 . S
C1023 C1025 1.356 . S
C1023 H1055 0.930 . S
C1024 N1021 1.279 . S
C1024 C1023 1.358 . S
C1024 H1027 0.930 . S
C1025 C1022 1.348 . S
C1025 C1023 1.356 . S
H1026 C1020 0.930 . S
H1027 C1024 0.930 . S
O1028 Li968 1.956 1_554 S
O1028 Li969 1.970 1_554 S
O1028 Li970 1.961 . S
O1028 C972 1.325 . S
O1029 Li968 1.970 . S
O1029 Li969 1.956 . S
O1029 Li971 1.961 . S
O1029 C978 1.325 . S
O1030 Li968 1.961 . S
O1030 Li970 1.956 1_556 S
O1030 Li971 1.970 . S
O1030 C1000 1.325 . S
O1031 Li969 1.961 . S
O1031 Li970 1.970 1_556 S
O1031 Li971 1.956 . S
O1031 C1006 1.325 . S
H1032 C974 0.929 . S
H1033 C975 0.930 . S
H1034 C976 0.930 . S
H1035 C977 0.930 . S
H1036 C979 0.930 . S
H1037 C981 0.929 . S
H1038 C982 0.930 . S
H1039 C983 0.930 . S
H1040 C986 0.930 . S
H1041 C989 0.929 . S
H1042 C994 0.929 . S
H1043 C995 0.930 . S
H1044 C1002 0.929 . S
H1045 C1003 0.930 . S
H1046 C1004 0.930 . S
H1047 C1005 0.930 . S
H1048 C1007 0.929 . S
H1049 C1008 0.930 . S
H1050 C1009 0.930 . S
H1051 C1010 0.930 . S
H1052 C1014 0.929 . S
H1053 C1016 0.930 . S
H1054 C1022 0.929 . S
H1055 C1023 0.930 . S
Li1056 N1073 1.990 . S
Li1056 O1116 1.956 . S
Li1056 O1117 1.970 . S
Li1056 O1118 1.961 . S
Li1057 N1081 1.990 . S
Li1057 O1116 1.970 . S
Li1057 O1117 1.956 . S
Li1057 O1119 1.961 . S
Li1058 N1103 1.990 . S
Li1058 O1116 1.961 . S
Li1058 O1118 1.956 . S
Li1058 O1119 1.970 . S
Li1059 N1109 1.990 . S
Li1059 O1117 1.961 . S
Li1059 O1118 1.970 . S
Li1059 O1119 1.956 . S
C1060 C1062 1.348 . S
C1060 C1063 1.356 . S
C1060 O1116 1.325 . S
N1061 C1064 1.314 . S
N1061 C1065 1.279 . S
C1062 C1060 1.348 . S
C1062 C1064 1.353 . S
C1062 H1120 0.929 . S
C1063 C1060 1.356 . S
C1063 C1065 1.358 . S
C1063 H1121 0.930 . S
C1064 N1061 1.314 . S
C1064 C1062 1.353 . S
C1064 H1122 0.930 . S
C1065 N1061 1.279 . S
C1065 C1063 1.358 . S
C1065 H1123 0.930 . S
C1066 C1069 1.348 . S
C1066 C1070 1.356 . S
C1066 O1117 1.325 . S
C1067 N1068 1.279 . S
C1067 C1070 1.358 . S
C1067 H1124 0.930 . S
N1068 C1067 1.279 . S
N1068 C1071 1.314 . S
C1069 C1066 1.348 . S
C1069 C1071 1.353 . S
C1069 H1125 0.929 . S
C1070 C1066 1.356 . S
C1070 C1067 1.358 . S
C1070 H1126 0.930 . S
C1071 N1068 1.314 . S
C1071 C1069 1.353 . S
C1071 H1127 0.930 . S
C1072 N1073 1.314 . S
C1072 C1077 1.353 . S
C1072 H1078 0.930 . S
N1073 Li1056 1.990 . S
N1073 C1072 1.314 . S
N1073 C1075 1.279 . S
C1074 C1075 1.358 . S
C1074 C1076 1.356 . S
C1074 H1128 0.930 . S
C1075 N1073 1.279 . S
C1075 C1074 1.358 . S
C1075 H1079 0.930 . S
C1076 C1074 1.356 . S
C1076 C1077 1.348 . S
C1077 C1072 1.353 . S
C1077 C1076 1.348 . S
C1077 H1129 0.929 . S
H1078 C1072 0.930 . S
H1079 C1075 0.930 . S
C1080 N1081 1.314 . S
C1080 C1082 1.353 . S
C1080 H1086 0.930 . S
N1081 Li1057 1.990 . S
N1081 C1080 1.314 . S
N1081 C1084 1.279 . S
C1082 C1080 1.353 . S
C1082 C1085 1.348 . S
C1082 H1130 0.929 . S
C1083 C1084 1.358 . S
C1083 C1085 1.356 . S
C1083 H1131 0.930 . S
C1084 N1081 1.279 . S
C1084 C1083 1.358 . S
C1084 H1087 0.930 . S
C1085 C1082 1.348 . S
C1085 C1083 1.356 . S
H1086 C1080 0.930 . S
H1087 C1084 0.930 . S
C1088 C1090 1.348 . S
C1088 C1091 1.356 . S
C1088 O1118 1.325 . S
N1089 C1092 1.314 . S
N1089 C1093 1.279 . S
C1090 C1088 1.348 . S
C1090 C1092 1.353 . S
C1090 H1132 0.929 . S
C1091 C1088 1.356 . S
C1091 C1093 1.358 . S
C1091 H1133 0.930 . S
C1092 N1089 1.314 . S
C1092 C1090 1.353 . S
C1092 H1134 0.930 . S
C1093 N1089 1.279 . S
C1093 C1091 1.358 . S
C1093 H1135 0.930 . S
C1094 C1095 1.348 . S
C1094 C1096 1.356 . S
C1094 O1119 1.325 . S
C1095 C1094 1.348 . S
C1095 C1097 1.353 . S
C1095 H1136 0.929 . S
C1096 C1094 1.356 . S
C1096 C1098 1.358 . S
C1096 H1137 0.930 . S
C1097 C1095 1.353 . S
C1097 N1099 1.314 . S
C1097 H1138 0.930 . S
C1098 C1096 1.358 . S
C1098 N1099 1.279 . S
C1098 H1139 0.930 . S
N1099 C1097 1.314 . S
N1099 C1098 1.279 . S
C1100 C1102 1.353 . S
C1100 N1103 1.314 . S
C1100 H1106 0.930 . S
C1101 N1103 1.279 . S
C1101 C1104 1.358 . S
C1101 H1107 0.930 . S
C1102 C1100 1.353 . S
C1102 C1105 1.348 . S
C1102 H1140 0.929 . S
N1103 Li1058 1.990 . S
N1103 C1100 1.314 . S
N1103 C1101 1.279 . S
C1104 C1101 1.358 . S
C1104 C1105 1.356 . S
C1104 H1141 0.930 . S
C1105 C1102 1.348 . S
C1105 C1104 1.356 . S
H1106 C1100 0.930 . S
H1107 C1101 0.930 . S
C1108 N1109 1.314 . S
C1108 C1110 1.353 . S
C1108 H1114 0.930 . S
N1109 Li1059 1.990 . S
N1109 C1108 1.314 . S
N1109 C1112 1.279 . S
C1110 C1108 1.353 . S
C1110 C1113 1.348 . S
C1110 H1142 0.929 . S
C1111 C1112 1.358 . S
C1111 C1113 1.356 . S
C1111 H1143 0.930 . S
C1112 N1109 1.279 . S
C1112 C1111 1.358 . S
C1112 H1115 0.930 . S
C1113 C1110 1.348 . S
C1113 C1111 1.356 . S
H1114 C1108 0.930 . S
H1115 C1112 0.930 . S
O1116 Li1056 1.956 . S
O1116 Li1057 1.970 . S
O1116 Li1058 1.961 . S
O1116 C1060 1.325 . S
O1117 Li1056 1.970 . S
O1117 Li1057 1.956 . S
O1117 Li1059 1.961 . S
O1117 C1066 1.325 . S
O1118 Li1056 1.961 . S
O1118 Li1058 1.956 . S
O1118 Li1059 1.970 . S
O1118 C1088 1.325 . S
O1119 Li1057 1.961 . S
O1119 Li1058 1.970 . S
O1119 Li1059 1.956 . S
O1119 C1094 1.325 . S
H1120 C1062 0.929 . S
H1121 C1063 0.930 . S
H1122 C1064 0.930 . S
H1123 C1065 0.930 . S
H1124 C1067 0.930 . S
H1125 C1069 0.929 . S
H1126 C1070 0.930 . S
H1127 C1071 0.930 . S
H1128 C1074 0.930 . S
H1129 C1077 0.929 . S
H1130 C1082 0.929 . S
H1131 C1083 0.930 . S
H1132 C1090 0.929 . S
H1133 C1091 0.930 . S
H1134 C1092 0.930 . S
H1135 C1093 0.930 . S
H1136 C1095 0.929 . S
H1137 C1096 0.930 . S
H1138 C1097 0.930 . S
H1139 C1098 0.930 . S
H1140 C1102 0.929 . S
H1141 C1104 0.930 . S
H1142 C1110 0.929 . S
H1143 C1111 0.930 . S
Li1144 N1161 1.990 . S
Li1144 O1204 1.956 . S
Li1144 O1205 1.970 . S
Li1144 O1206 1.961 . S
Li1145 N1169 1.990 . S
Li1145 O1204 1.970 . S
Li1145 O1205 1.956 . S
Li1145 O1207 1.961 . S
Li1146 N1191 1.990 . S
Li1146 O1204 1.961 . S
Li1146 O1206 1.956 . S
Li1146 O1207 1.970 . S
Li1147 N1197 1.990 . S
Li1147 O1205 1.961 . S
Li1147 O1206 1.970 . S
Li1147 O1207 1.956 . S
C1148 C1150 1.348 . S
C1148 C1151 1.356 . S
C1148 O1204 1.325 . S
N1149 C1152 1.314 . S
N1149 C1153 1.279 . S
C1150 C1148 1.348 . S
C1150 C1152 1.353 . S
C1150 H1208 0.929 . S
C1151 C1148 1.356 . S
C1151 C1153 1.358 . S
C1151 H1209 0.930 . S
C1152 N1149 1.314 . S
C1152 C1150 1.353 . S
C1152 H1210 0.930 . S
C1153 N1149 1.279 . S
C1153 C1151 1.358 . S
C1153 H1211 0.930 . S
C1154 C1157 1.348 . S
C1154 C1158 1.356 . S
C1154 O1205 1.325 . S
C1155 N1156 1.279 . S
C1155 C1158 1.358 . S
C1155 H1212 0.930 . S
N1156 C1155 1.279 . S
N1156 C1159 1.314 . S
C1157 C1154 1.348 . S
C1157 C1159 1.353 . S
C1157 H1213 0.929 . S
C1158 C1154 1.356 . S
C1158 C1155 1.358 . S
C1158 H1214 0.930 . S
C1159 N1156 1.314 . S
C1159 C1157 1.353 . S
C1159 H1215 0.930 . S
C1160 N1161 1.314 . S
C1160 C1165 1.353 . S
C1160 H1166 0.930 . S
N1161 Li1144 1.990 . S
N1161 C1160 1.314 . S
N1161 C1163 1.279 . S
C1162 C1163 1.358 . S
C1162 C1164 1.356 . S
C1162 H1216 0.930 . S
C1163 N1161 1.279 . S
C1163 C1162 1.358 . S
C1163 H1167 0.930 . S
C1164 C1162 1.356 . S
C1164 C1165 1.348 . S
C1165 C1160 1.353 . S
C1165 C1164 1.348 . S
C1165 H1217 0.929 . S
H1166 C1160 0.930 . S
H1167 C1163 0.930 . S
C1168 N1169 1.314 . S
C1168 C1170 1.353 . S
C1168 H1174 0.930 . S
N1169 Li1145 1.990 . S
N1169 C1168 1.314 . S
N1169 C1172 1.279 . S
C1170 C1168 1.353 . S
C1170 C1173 1.348 . S
C1170 H1218 0.929 . S
C1171 C1172 1.358 . S
C1171 C1173 1.356 . S
C1171 H1219 0.930 . S
C1172 N1169 1.279 . S
C1172 C1171 1.358 . S
C1172 H1175 0.930 . S
C1173 C1170 1.348 . S
C1173 C1171 1.356 . S
H1174 C1168 0.930 . S
H1175 C1172 0.930 . S
C1176 C1178 1.348 . S
C1176 C1179 1.356 . S
C1176 O1206 1.325 . S
N1177 C1180 1.314 . S
N1177 C1181 1.279 . S
C1178 C1176 1.348 . S
C1178 C1180 1.353 . S
C1178 H1220 0.929 . S
C1179 C1176 1.356 . S
C1179 C1181 1.358 . S
C1179 H1221 0.930 . S
C1180 N1177 1.314 . S
C1180 C1178 1.353 . S
C1180 H1222 0.930 . S
C1181 N1177 1.279 . S
C1181 C1179 1.358 . S
C1181 H1223 0.930 . S
C1182 C1183 1.348 . S
C1182 C1184 1.356 . S
C1182 O1207 1.325 . S
C1183 C1182 1.348 . S
C1183 C1185 1.353 . S
C1183 H1224 0.929 . S
C1184 C1182 1.356 . S
C1184 C1186 1.358 . S
C1184 H1225 0.930 . S
C1185 C1183 1.353 . S
C1185 N1187 1.314 . S
C1185 H1226 0.930 . S
C1186 C1184 1.358 . S
C1186 N1187 1.279 . S
C1186 H1227 0.930 . S
N1187 C1185 1.314 . S
N1187 C1186 1.279 . S
C1188 C1190 1.353 . S
C1188 N1191 1.314 . S
C1188 H1194 0.930 . S
C1189 N1191 1.279 . S
C1189 C1192 1.358 . S
C1189 H1195 0.930 . S
C1190 C1188 1.353 . S
C1190 C1193 1.348 . S
C1190 H1228 0.929 . S
N1191 Li1146 1.990 . S
N1191 C1188 1.314 . S
N1191 C1189 1.279 . S
C1192 C1189 1.358 . S
C1192 C1193 1.356 . S
C1192 H1229 0.930 . S
C1193 C1190 1.348 . S
C1193 C1192 1.356 . S
H1194 C1188 0.930 . S
H1195 C1189 0.930 . S
C1196 N1197 1.314 . S
C1196 C1198 1.353 . S
C1196 H1202 0.930 . S
N1197 Li1147 1.990 . S
N1197 C1196 1.314 . S
N1197 C1200 1.279 . S
C1198 C1196 1.353 . S
C1198 C1201 1.348 . S
C1198 H1230 0.929 . S
C1199 C1200 1.358 . S
C1199 C1201 1.356 . S
C1199 H1231 0.930 . S
C1200 N1197 1.279 . S
C1200 C1199 1.358 . S
C1200 H1203 0.930 . S
C1201 C1198 1.348 . S
C1201 C1199 1.356 . S
H1202 C1196 0.930 . S
H1203 C1200 0.930 . S
O1204 Li1144 1.956 . S
O1204 Li1145 1.970 . S
O1204 Li1146 1.961 . S
O1204 C1148 1.325 . S
O1205 Li1144 1.970 . S
O1205 Li1145 1.956 . S
O1205 Li1147 1.961 . S
O1205 C1154 1.325 . S
O1206 Li1144 1.961 . S
O1206 Li1146 1.956 . S
O1206 Li1147 1.970 . S
O1206 C1176 1.325 . S
O1207 Li1145 1.961 . S
O1207 Li1146 1.970 . S
O1207 Li1147 1.956 . S
O1207 C1182 1.325 . S
H1208 C1150 0.929 . S
H1209 C1151 0.930 . S
H1210 C1152 0.930 . S
H1211 C1153 0.930 . S
H1212 C1155 0.930 . S
H1213 C1157 0.929 . S
H1214 C1158 0.930 . S
H1215 C1159 0.930 . S
H1216 C1162 0.930 . S
H1217 C1165 0.929 . S
H1218 C1170 0.929 . S
H1219 C1171 0.930 . S
H1220 C1178 0.929 . S
H1221 C1179 0.930 . S
H1222 C1180 0.930 . S
H1223 C1181 0.930 . S
H1224 C1183 0.929 . S
H1225 C1184 0.930 . S
H1226 C1185 0.930 . S
H1227 C1186 0.930 . S
H1228 C1190 0.929 . S
H1229 C1192 0.930 . S
H1230 C1198 0.929 . S
H1231 C1199 0.930 . S
Li1232 N1249 1.990 . S
Li1232 O1292 1.956 . S
Li1232 O1293 1.970 . S
Li1232 O1294 1.961 . S
Li1233 N1257 1.990 . S
Li1233 O1292 1.970 . S
Li1233 O1293 1.956 . S
Li1233 O1295 1.961 . S
Li1234 N1279 1.990 . S
Li1234 O1292 1.961 . S
Li1234 O1294 1.956 . S
Li1234 O1295 1.970 . S
Li1235 N1285 1.990 . S
Li1235 O1293 1.961 . S
Li1235 O1294 1.970 . S
Li1235 O1295 1.956 . S
C1236 C1238 1.348 . S
C1236 C1239 1.356 . S
C1236 O1292 1.325 . S
N1237 C1240 1.314 . S
N1237 C1241 1.279 . S
C1238 C1236 1.348 . S
C1238 C1240 1.353 . S
C1238 H1296 0.929 . S
C1239 C1236 1.356 . S
C1239 C1241 1.358 . S
C1239 H1297 0.930 . S
C1240 N1237 1.314 . S
C1240 C1238 1.353 . S
C1240 H1298 0.930 . S
C1241 N1237 1.279 . S
C1241 C1239 1.358 . S
C1241 H1299 0.930 . S
C1242 C1245 1.348 . S
C1242 C1246 1.356 . S
C1242 O1293 1.325 . S
C1243 N1244 1.279 . S
C1243 C1246 1.358 . S
C1243 H1300 0.930 . S
N1244 C1243 1.279 . S
N1244 C1247 1.314 . S
C1245 C1242 1.348 . S
C1245 C1247 1.353 . S
C1245 H1301 0.929 . S
C1246 C1242 1.356 . S
C1246 C1243 1.358 . S
C1246 H1302 0.930 . S
C1247 N1244 1.314 . S
C1247 C1245 1.353 . S
C1247 H1303 0.930 . S
C1248 N1249 1.314 . S
C1248 C1253 1.353 . S
C1248 H1254 0.930 . S
N1249 Li1232 1.990 . S
N1249 C1248 1.314 . S
N1249 C1251 1.279 . S
C1250 C1251 1.358 . S
C1250 C1252 1.356 . S
C1250 H1304 0.930 . S
C1251 N1249 1.279 . S
C1251 C1250 1.358 . S
C1251 H1255 0.930 . S
C1252 C1250 1.356 . S
C1252 C1253 1.348 . S
C1253 C1248 1.353 . S
C1253 C1252 1.348 . S
C1253 H1305 0.929 . S
H1254 C1248 0.930 . S
H1255 C1251 0.930 . S
C1256 N1257 1.314 . S
C1256 C1258 1.353 . S
C1256 H1262 0.930 . S
N1257 Li1233 1.990 . S
N1257 C1256 1.314 . S
N1257 C1260 1.279 . S
C1258 C1256 1.353 . S
C1258 C1261 1.348 . S
C1258 H1306 0.929 . S
C1259 C1260 1.358 . S
C1259 C1261 1.356 . S
C1259 H1307 0.930 . S
C1260 N1257 1.279 . S
C1260 C1259 1.358 . S
C1260 H1263 0.930 . S
C1261 C1258 1.348 . S
C1261 C1259 1.356 . S
H1262 C1256 0.930 . S
H1263 C1260 0.930 . S
C1264 C1266 1.348 . S
C1264 C1267 1.356 . S
C1264 O1294 1.325 . S
N1265 C1268 1.314 . S
N1265 C1269 1.279 . S
C1266 C1264 1.348 . S
C1266 C1268 1.353 . S
C1266 H1308 0.929 . S
C1267 C1264 1.356 . S
C1267 C1269 1.358 . S
C1267 H1309 0.930 . S
C1268 N1265 1.314 . S
C1268 C1266 1.353 . S
C1268 H1310 0.930 . S
C1269 N1265 1.279 . S
C1269 C1267 1.358 . S
C1269 H1311 0.930 . S
C1270 C1271 1.348 . S
C1270 C1272 1.356 . S
C1270 O1295 1.325 . S
C1271 C1270 1.348 . S
C1271 C1273 1.353 . S
C1271 H1312 0.929 . S
C1272 C1270 1.356 . S
C1272 C1274 1.358 . S
C1272 H1313 0.930 . S
C1273 C1271 1.353 . S
C1273 N1275 1.314 . S
C1273 H1314 0.930 . S
C1274 C1272 1.358 . S
C1274 N1275 1.279 . S
C1274 H1315 0.930 . S
N1275 C1273 1.314 . S
N1275 C1274 1.279 . S
C1276 C1278 1.353 . S
C1276 N1279 1.314 . S
C1276 H1282 0.930 . S
C1277 N1279 1.279 . S
C1277 C1280 1.358 . S
C1277 H1283 0.930 . S
C1278 C1276 1.353 . S
C1278 C1281 1.348 . S
C1278 H1316 0.929 . S
N1279 Li1234 1.990 . S
N1279 C1276 1.314 . S
N1279 C1277 1.279 . S
C1280 C1277 1.358 . S
C1280 C1281 1.356 . S
C1280 H1317 0.930 . S
C1281 C1278 1.348 . S
C1281 C1280 1.356 . S
H1282 C1276 0.930 . S
H1283 C1277 0.930 . S
C1284 N1285 1.314 . S
C1284 C1286 1.353 . S
C1284 H1290 0.930 . S
N1285 Li1235 1.990 . S
N1285 C1284 1.314 . S
N1285 C1288 1.279 . S
C1286 C1284 1.353 . S
C1286 C1289 1.348 . S
C1286 H1318 0.929 . S
C1287 C1288 1.358 . S
C1287 C1289 1.356 . S
C1287 H1319 0.930 . S
C1288 N1285 1.279 . S
C1288 C1287 1.358 . S
C1288 H1291 0.930 . S
C1289 C1286 1.348 . S
C1289 C1287 1.356 . S
H1290 C1284 0.930 . S
H1291 C1288 0.930 . S
O1292 Li1232 1.956 . S
O1292 Li1233 1.970 . S
O1292 Li1234 1.961 . S
O1292 C1236 1.325 . S
O1293 Li1232 1.970 . S
O1293 Li1233 1.956 . S
O1293 Li1235 1.961 . S
O1293 C1242 1.325 . S
O1294 Li1232 1.961 . S
O1294 Li1234 1.956 . S
O1294 Li1235 1.970 . S
O1294 C1264 1.325 . S
O1295 Li1233 1.961 . S
O1295 Li1234 1.970 . S
O1295 Li1235 1.956 . S
O1295 C1270 1.325 . S
H1296 C1238 0.929 . S
H1297 C1239 0.930 . S
H1298 C1240 0.930 . S
H1299 C1241 0.930 . S
H1300 C1243 0.930 . S
H1301 C1245 0.929 . S
H1302 C1246 0.930 . S
H1303 C1247 0.930 . S
H1304 C1250 0.930 . S
H1305 C1253 0.929 . S
H1306 C1258 0.929 . S
H1307 C1259 0.930 . S
H1308 C1266 0.929 . S
H1309 C1267 0.930 . S
H1310 C1268 0.930 . S
H1311 C1269 0.930 . S
H1312 C1271 0.929 . S
H1313 C1272 0.930 . S
H1314 C1273 0.930 . S
H1315 C1274 0.930 . S
H1316 C1278 0.929 . S
H1317 C1280 0.930 . S
H1318 C1286 0.929 . S
H1319 C1287 0.930 . S
Li1320 N1337 1.990 . S
Li1320 O1380 1.956 1_554 S
Li1320 O1381 1.970 1_655 S
Li1320 O1382 1.961 1_655 S
Li1321 N1345 1.990 . S
Li1321 O1380 1.970 1_454 S
Li1321 O1381 1.956 . S
Li1321 O1383 1.961 . S
Li1322 N1367 1.990 . S
Li1322 O1380 1.961 1_455 S
Li1322 O1382 1.956 1_556 S
Li1322 O1383 1.970 1_556 S
Li1323 N1373 1.990 . S
Li1323 O1381 1.961 . S
Li1323 O1382 1.970 . S
Li1323 O1383 1.956 . S
C1324 C1326 1.348 . S
C1324 C1327 1.356 . S
C1324 O1380 1.325 . S
N1325 C1328 1.314 . S
N1325 C1329 1.279 . S
C1326 C1324 1.348 . S
C1326 C1328 1.353 . S
C1326 H1384 0.929 . S
C1327 C1324 1.356 . S
C1327 C1329 1.358 . S
C1327 H1385 0.930 . S
C1328 N1325 1.314 . S
C1328 C1326 1.353 . S
C1328 H1386 0.930 . S
C1329 N1325 1.279 . S
C1329 C1327 1.358 . S
C1329 H1387 0.930 . S
C1330 C1333 1.348 1_455 S
C1330 C1334 1.356 . S
C1330 O1381 1.325 . S
C1331 N1332 1.279 1_455 S
C1331 C1334 1.358 . S
C1331 H1388 0.930 . S
N1332 C1331 1.279 1_655 S
N1332 C1335 1.314 . S
C1333 C1330 1.348 1_655 S
C1333 C1335 1.353 . S
C1333 H1389 0.929 . S
C1334 C1330 1.356 . S
C1334 C1331 1.358 . S
C1334 H1390 0.930 . S
C1335 N1332 1.314 . S
C1335 C1333 1.353 . S
C1335 H1391 0.930 . S
C1336 N1337 1.314 . S
C1336 C1341 1.353 . S
C1336 H1342 0.930 . S
N1337 Li1320 1.990 . S
N1337 C1336 1.314 . S
N1337 C1339 1.279 . S
C1338 C1339 1.358 . S
C1338 C1340 1.356 . S
C1338 H1392 0.930 . S
C1339 N1337 1.279 . S
C1339 C1338 1.358 . S
C1339 H1343 0.930 . S
C1340 C1338 1.356 . S
C1340 C1341 1.348 . S
C1341 C1336 1.353 . S
C1341 C1340 1.348 . S
C1341 H1393 0.929 . S
H1342 C1336 0.930 . S
H1343 C1339 0.930 . S
C1344 N1345 1.289 1_556 S
C1344 C1346 1.358 . S
C1344 H1350 0.954 . S
N1345 Li1321 1.990 . S
N1345 C1344 1.289 1_554 S
N1345 C1348 1.279 . S
C1346 C1344 1.358 . S
C1346 C1349 1.348 1_556 S
C1346 H1394 0.929 . S
C1347 C1348 1.358 . S
C1347 C1349 1.356 . S
C1347 H1395 0.930 1_455 S
C1348 N1345 1.279 . S
C1348 C1347 1.358 . S
C1348 H1351 0.934 . S
C1349 C1346 1.348 1_554 S
C1349 C1347 1.356 . S
H1350 C1344 0.954 . S
H1351 C1348 0.934 . S
C1352 C1354 1.348 . S
C1352 C1355 1.356 . S
C1352 O1382 1.325 . S
N1353 C1356 1.314 . S
N1353 C1357 1.279 . S
C1354 C1352 1.348 . S
C1354 C1356 1.353 . S
C1354 H1396 0.929 . S
C1355 C1352 1.356 . S
C1355 C1357 1.358 . S
C1355 H1397 0.930 1_455 S
C1356 N1353 1.314 . S
C1356 C1354 1.353 . S
C1356 H1398 0.930 . S
C1357 N1353 1.279 . S
C1357 C1355 1.358 . S
C1357 H1399 0.930 1_455 S
C1358 C1359 1.348 1_554 S
C1358 C1360 1.356 . S
C1358 O1383 1.325 . S
C1359 C1358 1.348 1_556 S
C1359 C1361 1.353 . S
C1359 H1400 0.929 . S
C1360 C1358 1.356 . S
C1360 C1362 1.358 . S
C1360 H1401 0.930 . S
C1361 C1359 1.353 . S
C1361 N1363 1.314 . S
C1361 H1402 0.930 . S
C1362 C1360 1.358 . S
C1362 N1363 1.279 1_554 S
C1362 H1403 0.930 . S
N1363 C1361 1.314 . S
N1363 C1362 1.279 1_556 S
C1364 C1366 1.353 . S
C1364 N1367 1.314 . S
C1364 H1370 0.930 . S
C1365 N1367 1.279 . S
C1365 C1368 1.358 . S
C1365 H1371 0.930 . S
C1366 C1364 1.353 . S
C1366 C1369 1.348 . S
C1366 H1404 0.929 . S
N1367 Li1322 1.990 . S
N1367 C1364 1.314 . S
N1367 C1365 1.279 . S
C1368 C1365 1.358 . S
C1368 C1369 1.356 . S
C1368 H1405 0.930 . S
C1369 C1366 1.348 . S
C1369 C1368 1.356 . S
H1370 C1364 0.930 . S
H1371 C1365 0.930 . S
C1372 N1373 1.314 . S
C1372 C1374 1.353 . S
C1372 H1378 0.930 . S
N1373 Li1323 1.990 . S
N1373 C1372 1.314 . S
N1373 C1376 1.279 . S
C1374 C1372 1.353 . S
C1374 C1377 1.348 . S
C1374 H1406 0.929 . S
C1375 C1376 1.358 . S
C1375 C1377 1.356 . S
C1375 H1407 0.930 . S
C1376 N1373 1.279 . S
C1376 C1375 1.358 . S
C1376 H1379 0.930 . S
C1377 C1374 1.348 . S
C1377 C1375 1.356 . S
H1378 C1372 0.930 . S
H1379 C1376 0.930 . S
O1380 Li1320 1.956 1_556 S
O1380 Li1321 1.970 1_656 S
O1380 Li1322 1.961 1_655 S
O1380 C1324 1.325 . S
O1381 Li1320 1.970 1_455 S
O1381 Li1321 1.956 . S
O1381 Li1323 1.961 . S
O1381 C1330 1.325 . S
O1382 Li1320 1.961 1_455 S
O1382 Li1322 1.956 1_554 S
O1382 Li1323 1.970 . S
O1382 C1352 1.325 . S
O1383 Li1321 1.961 . S
O1383 Li1322 1.970 1_554 S
O1383 Li1323 1.956 . S
O1383 C1358 1.325 . S
H1384 C1326 0.929 . S
H1385 C1327 0.930 . S
H1386 C1328 0.930 . S
H1387 C1329 0.930 . S
H1388 C1331 0.930 . S
H1389 C1333 0.929 . S
H1390 C1334 0.930 . S
H1391 C1335 0.930 . S
H1392 C1338 0.930 . S
H1393 C1341 0.929 . S
H1394 C1346 0.929 . S
H1395 C1347 0.930 1_655 S
H1396 C1354 0.929 . S
H1397 C1355 0.930 1_655 S
H1398 C1356 0.930 . S
H1399 C1357 0.930 1_655 S
H1400 C1359 0.929 . S
H1401 C1360 0.930 . S
H1402 C1361 0.930 . S
H1403 C1362 0.930 . S
H1404 C1366 0.929 . S
H1405 C1368 0.930 . S
H1406 C1374 0.929 . S
H1407 C1375 0.930 . S
Li1408 N1425 1.990 . S
Li1408 O1468 1.956 . S
Li1408 O1469 1.970 . S
Li1408 O1470 1.961 . S
Li1409 N1433 1.990 . S
Li1409 O1468 1.970 . S
Li1409 O1469 1.956 . S
Li1409 O1471 1.961 . S
Li1410 N1455 1.990 . S
Li1410 O1468 1.961 . S
Li1410 O1470 1.956 . S
Li1410 O1471 1.970 . S
Li1411 N1461 1.990 . S
Li1411 O1469 1.961 . S
Li1411 O1470 1.970 . S
Li1411 O1471 1.956 . S
C1412 C1414 1.348 . S
C1412 C1415 1.356 . S
C1412 O1468 1.325 . S
N1413 C1416 1.314 . S
N1413 C1417 1.279 . S
C1414 C1412 1.348 . S
C1414 C1416 1.353 . S
C1414 H1472 0.929 . S
C1415 C1412 1.356 . S
C1415 C1417 1.358 . S
C1415 H1473 0.930 . S
C1416 N1413 1.314 . S
C1416 C1414 1.353 . S
C1416 H1474 0.930 . S
C1417 N1413 1.279 . S
C1417 C1415 1.358 . S
C1417 H1475 0.930 . S
C1418 C1421 1.348 . S
C1418 C1422 1.356 . S
C1418 O1469 1.325 . S
C1419 N1420 1.279 . S
C1419 C1422 1.358 . S
C1419 H1476 0.930 . S
N1420 C1419 1.279 . S
N1420 C1423 1.314 . S
C1421 C1418 1.348 . S
C1421 C1423 1.353 . S
C1421 H1477 0.929 . S
C1422 C1418 1.356 . S
C1422 C1419 1.358 . S
C1422 H1478 0.930 . S
C1423 N1420 1.314 . S
C1423 C1421 1.353 . S
C1423 H1479 0.930 . S
C1424 N1425 1.314 . S
C1424 C1429 1.353 . S
C1424 H1430 0.930 . S
N1425 Li1408 1.990 . S
N1425 C1424 1.314 . S
N1425 C1427 1.279 . S
C1426 C1427 1.358 . S
C1426 C1428 1.356 . S
C1426 H1480 0.930 . S
C1427 N1425 1.279 . S
C1427 C1426 1.358 . S
C1427 H1431 0.930 . S
C1428 C1426 1.356 . S
C1428 C1429 1.348 . S
C1429 C1424 1.353 . S
C1429 C1428 1.348 . S
C1429 H1481 0.929 . S
H1430 C1424 0.930 . S
H1431 C1427 0.930 . S
C1432 N1433 1.314 . S
C1432 C1434 1.353 . S
C1432 H1438 0.930 . S
N1433 Li1409 1.990 . S
N1433 C1432 1.314 . S
N1433 C1436 1.279 . S
C1434 C1432 1.353 . S
C1434 C1437 1.348 . S
C1434 H1482 0.929 . S
C1435 C1436 1.358 . S
C1435 C1437 1.356 . S
C1435 H1483 0.930 . S
C1436 N1433 1.279 . S
C1436 C1435 1.358 . S
C1436 H1439 0.930 . S
C1437 C1434 1.348 . S
C1437 C1435 1.356 . S
H1438 C1432 0.930 . S
H1439 C1436 0.930 . S
C1440 C1442 1.348 . S
C1440 C1443 1.356 . S
C1440 O1470 1.325 . S
N1441 C1444 1.314 . S
N1441 C1445 1.279 . S
C1442 C1440 1.348 . S
C1442 C1444 1.353 . S
C1442 H1484 0.929 . S
C1443 C1440 1.356 . S
C1443 C1445 1.358 . S
C1443 H1485 0.930 . S
C1444 N1441 1.314 . S
C1444 C1442 1.353 . S
C1444 H1486 0.930 . S
C1445 N1441 1.279 . S
C1445 C1443 1.358 . S
C1445 H1487 0.930 . S
C1446 C1447 1.348 . S
C1446 C1448 1.356 . S
C1446 O1471 1.325 . S
C1447 C1446 1.348 . S
C1447 C1449 1.353 . S
C1447 H1488 0.929 . S
C1448 C1446 1.356 . S
C1448 C1450 1.358 . S
C1448 H1489 0.930 . S
C1449 C1447 1.353 . S
C1449 N1451 1.314 . S
C1449 H1490 0.930 . S
C1450 C1448 1.358 . S
C1450 N1451 1.279 . S
C1450 H1491 0.930 . S
N1451 C1449 1.314 . S
N1451 C1450 1.279 . S
C1452 C1454 1.353 . S
C1452 N1455 1.314 . S
C1452 H1458 0.930 . S
C1453 N1455 1.279 . S
C1453 C1456 1.358 . S
C1453 H1459 0.930 . S
C1454 C1452 1.353 . S
C1454 C1457 1.348 . S
C1454 H1492 0.929 . S
N1455 Li1410 1.990 . S
N1455 C1452 1.314 . S
N1455 C1453 1.279 . S
C1456 C1453 1.358 . S
C1456 C1457 1.356 . S
C1456 H1493 0.930 . S
C1457 C1454 1.348 . S
C1457 C1456 1.356 . S
H1458 C1452 0.930 . S
H1459 C1453 0.930 . S
C1460 N1461 1.314 . S
C1460 C1462 1.353 . S
C1460 H1466 0.930 . S
N1461 Li1411 1.990 . S
N1461 C1460 1.314 . S
N1461 C1464 1.279 . S
C1462 C1460 1.353 . S
C1462 C1465 1.348 . S
C1462 H1494 0.929 . S
C1463 C1464 1.358 . S
C1463 C1465 1.356 . S
C1463 H1495 0.930 . S
C1464 N1461 1.279 . S
C1464 C1463 1.358 . S
C1464 H1467 0.930 . S
C1465 C1462 1.348 . S
C1465 C1463 1.356 . S
H1466 C1460 0.930 . S
H1467 C1464 0.930 . S
O1468 Li1408 1.956 . S
O1468 Li1409 1.970 . S
O1468 Li1410 1.961 . S
O1468 C1412 1.325 . S
O1469 Li1408 1.970 . S
O1469 Li1409 1.956 . S
O1469 Li1411 1.961 . S
O1469 C1418 1.325 . S
O1470 Li1408 1.961 . S
O1470 Li1410 1.956 . S
O1470 Li1411 1.970 . S
O1470 C1440 1.325 . S
O1471 Li1409 1.961 . S
O1471 Li1410 1.970 . S
O1471 Li1411 1.956 . S
O1471 C1446 1.325 . S
H1472 C1414 0.929 . S
H1473 C1415 0.930 . S
H1474 C1416 0.930 . S
H1475 C1417 0.930 . S
H1476 C1419 0.930 . S
H1477 C1421 0.929 . S
H1478 C1422 0.930 . S
H1479 C1423 0.930 . S
H1480 C1426 0.930 . S
H1481 C1429 0.929 . S
H1482 C1434 0.929 . S
H1483 C1435 0.930 . S
H1484 C1442 0.929 . S
H1485 C1443 0.930 . S
H1486 C1444 0.930 . S
H1487 C1445 0.930 . S
H1488 C1447 0.929 . S
H1489 C1448 0.930 . S
H1490 C1449 0.930 . S
H1491 C1450 0.930 . S
H1492 C1454 0.929 . S
H1493 C1456 0.930 . S
H1494 C1462 0.929 . S
H1495 C1463 0.930 . S
Li1496 N1513 1.990 . S
Li1496 O1556 1.956 . S
Li1496 O1557 1.970 . S
Li1496 O1558 1.961 1_554 S
Li1497 N1521 1.990 . S
Li1497 O1556 1.970 . S
Li1497 O1557 1.956 . S
Li1497 O1559 1.961 . S
Li1498 N1543 1.990 . S
Li1498 O1556 1.961 1_556 S
Li1498 O1558 1.956 . S
Li1498 O1559 1.970 1_556 S
Li1499 N1549 1.990 . S
Li1499 O1557 1.961 . S
Li1499 O1558 1.970 1_554 S
Li1499 O1559 1.956 . S
C1500 C1502 1.348 . S
C1500 C1503 1.356 . S
C1500 O1556 1.325 . S
N1501 C1504 1.314 . S
N1501 C1505 1.279 . S
C1502 C1500 1.348 . S
C1502 C1504 1.353 . S
C1502 H1560 0.929 . S
C1503 C1500 1.356 . S
C1503 C1505 1.358 . S
C1503 H1561 0.930 1_554 S
C1504 N1501 1.314 . S
C1504 C1502 1.353 . S
C1504 H1562 0.930 . S
C1505 N1501 1.279 . S
C1505 C1503 1.358 . S
C1505 H1563 0.930 1_554 S
C1506 C1509 1.348 . S
C1506 C1510 1.356 . S
C1506 O1557 1.325 . S
C1507 N1508 1.279 . S
C1507 C1510 1.358 . S
C1507 H1564 0.930 . S
N1508 C1507 1.279 . S
N1508 C1511 1.314 . S
C1509 C1506 1.348 . S
C1509 C1511 1.353 . S
C1509 H1565 0.929 . S
C1510 C1506 1.356 . S
C1510 C1507 1.358 . S
C1510 H1566 0.930 . S
C1511 N1508 1.314 . S
C1511 C1509 1.353 . S
C1511 H1567 0.930 . S
C1512 N1513 1.314 . S
C1512 C1517 1.353 . S
C1512 H1518 0.930 . S
N1513 Li1496 1.990 . S
N1513 C1512 1.314 . S
N1513 C1515 1.279 . S
C1514 C1515 1.358 . S
C1514 C1516 1.356 . S
C1514 H1568 0.930 . S
C1515 N1513 1.279 . S
C1515 C1514 1.358 . S
C1515 H1519 0.930 . S
C1516 C1514 1.356 . S
C1516 C1517 1.348 . S
C1517 C1512 1.353 . S
C1517 C1516 1.348 . S
C1517 H1569 0.929 . S
H1518 C1512 0.930 . S
H1519 C1515 0.930 . S
C1520 N1521 1.314 . S
C1520 C1522 1.353 . S
C1520 H1526 0.930 . S
N1521 Li1497 1.990 . S
N1521 C1520 1.314 . S
N1521 C1524 1.279 . S
C1522 C1520 1.353 . S
C1522 C1525 1.348 . S
C1522 H1570 0.929 . S
C1523 C1524 1.358 . S
C1523 C1525 1.356 . S
C1523 H1571 0.930 . S
C1524 N1521 1.279 . S
C1524 C1523 1.358 . S
C1524 H1527 0.930 . S
C1525 C1522 1.348 . S
C1525 C1523 1.356 . S
H1526 C1520 0.930 . S
H1527 C1524 0.930 . S
C1528 C1530 1.348 . S
C1528 C1531 1.356 . S
C1528 O1558 1.325 . S
N1529 C1532 1.314 . S
N1529 C1533 1.279 . S
C1530 C1528 1.348 . S
C1530 C1532 1.353 . S
C1530 H1572 0.929 . S
C1531 C1528 1.356 . S
C1531 C1533 1.358 . S
C1531 H1573 0.930 . S
C1532 N1529 1.314 . S
C1532 C1530 1.353 . S
C1532 H1574 0.930 . S
C1533 N1529 1.279 . S
C1533 C1531 1.358 . S
C1533 H1575 0.930 . S
C1534 C1535 1.348 1_554 S
C1534 C1536 1.356 . S
C1534 O1559 1.325 . S
C1535 C1534 1.348 1_556 S
C1535 C1537 1.353 . S
C1535 H1576 0.929 . S
C1536 C1534 1.356 . S
C1536 C1538 1.358 . S
C1536 H1577 0.930 . S
C1537 C1535 1.353 . S
C1537 N1539 1.314 . S
C1537 H1578 0.930 . S
C1538 C1536 1.358 . S
C1538 N1539 1.279 1_554 S
C1538 H1579 0.930 . S
N1539 C1537 1.314 . S
N1539 C1538 1.279 1_556 S
C1540 C1542 1.353 . S
C1540 N1543 1.314 . S
C1540 H1546 0.930 . S
C1541 N1543 1.279 . S
C1541 C1544 1.358 . S
C1541 H1547 0.930 . S
C1542 C1540 1.353 . S
C1542 C1545 1.348 . S
C1542 H1580 0.929 . S
N1543 Li1498 1.990 . S
N1543 C1540 1.314 . S
N1543 C1541 1.279 . S
C1544 C1541 1.358 . S
C1544 C1545 1.356 . S
C1544 H1581 0.930 . S
C1545 C1542 1.348 . S
C1545 C1544 1.356 . S
H1546 C1540 0.930 . S
H1547 C1541 0.930 . S
C1548 N1549 1.314 . S
C1548 C1550 1.353 . S
C1548 H1554 0.930 . S
N1549 Li1499 1.990 . S
N1549 C1548 1.314 . S
N1549 C1552 1.279 . S
C1550 C1548 1.353 . S
C1550 C1553 1.348 . S
C1550 H1582 0.929 . S
C1551 C1552 1.358 . S
C1551 C1553 1.356 . S
C1551 H1583 0.930 1_554 S
C1552 N1549 1.279 . S
C1552 C1551 1.358 . S
C1552 H1555 0.930 1_554 S
C1553 C1550 1.348 . S
C1553 C1551 1.356 . S
H1554 C1548 0.930 . S
H1555 C1552 0.930 1_556 S
O1556 Li1496 1.956 . S
O1556 Li1497 1.970 . S
O1556 Li1498 1.961 1_554 S
O1556 C1500 1.325 . S
O1557 Li1496 1.970 . S
O1557 Li1497 1.956 . S
O1557 Li1499 1.961 . S
O1557 C1506 1.325 . S
O1558 Li1496 1.961 1_556 S
O1558 Li1498 1.956 . S
O1558 Li1499 1.970 1_556 S
O1558 C1528 1.325 . S
O1559 Li1497 1.961 . S
O1559 Li1498 1.970 1_554 S
O1559 Li1499 1.956 . S
O1559 C1534 1.325 . S
H1560 C1502 0.929 . S
H1561 C1503 0.930 1_556 S
H1562 C1504 0.930 . S
H1563 C1505 0.930 1_556 S
H1564 C1507 0.930 . S
H1565 C1509 0.929 . S
H1566 C1510 0.930 . S
H1567 C1511 0.930 . S
H1568 C1514 0.930 . S
H1569 C1517 0.929 . S
H1570 C1522 0.929 . S
H1571 C1523 0.930 . S
H1572 C1530 0.929 . S
H1573 C1531 0.930 . S
H1574 C1532 0.930 . S
H1575 C1533 0.930 . S
H1576 C1535 0.929 . S
H1577 C1536 0.930 . S
H1578 C1537 0.930 . S
H1579 C1538 0.930 . S
H1580 C1542 0.929 . S
H1581 C1544 0.930 . S
H1582 C1550 0.929 . S
H1583 C1551 0.930 1_556 S
Li1584 N1601 1.990 . S
Li1584 O1644 1.956 . S
Li1584 O1645 1.970 . S
Li1584 O1646 1.961 . S
Li1585 N1609 1.990 . S
Li1585 O1644 1.970 . S
Li1585 O1645 1.956 . S
Li1585 O1647 1.961 . S
Li1586 N1631 1.990 . S
Li1586 O1644 1.961 . S
Li1586 O1646 1.956 . S
Li1586 O1647 1.970 . S
Li1587 N1637 1.990 . S
Li1587 O1645 1.961 . S
Li1587 O1646 1.970 . S
Li1587 O1647 1.956 . S
C1588 C1590 1.348 . S
C1588 C1591 1.356 . S
C1588 O1644 1.325 . S
N1589 C1592 1.314 . S
N1589 C1593 1.279 . S
C1590 C1588 1.348 . S
C1590 C1592 1.353 . S
C1590 H1648 0.929 . S
C1591 C1588 1.356 . S
C1591 C1593 1.358 . S
C1591 H1649 0.930 . S
C1592 N1589 1.314 . S
C1592 C1590 1.353 . S
C1592 H1650 0.930 . S
C1593 N1589 1.279 . S
C1593 C1591 1.358 . S
C1593 H1651 0.930 . S
C1594 C1597 1.348 . S
C1594 C1598 1.356 . S
C1594 O1645 1.325 . S
C1595 N1596 1.279 . S
C1595 C1598 1.358 . S
C1595 H1652 0.930 . S
N1596 C1595 1.279 . S
N1596 C1599 1.314 . S
C1597 C1594 1.348 . S
C1597 C1599 1.353 . S
C1597 H1653 0.929 . S
C1598 C1594 1.356 . S
C1598 C1595 1.358 . S
C1598 H1654 0.930 . S
C1599 N1596 1.314 . S
C1599 C1597 1.353 . S
C1599 H1655 0.930 . S
C1600 N1601 1.314 . S
C1600 C1605 1.353 . S
C1600 H1606 0.930 . S
N1601 Li1584 1.990 . S
N1601 C1600 1.314 . S
N1601 C1603 1.279 . S
C1602 C1603 1.358 . S
C1602 C1604 1.356 . S
C1602 H1656 0.930 . S
C1603 N1601 1.279 . S
C1603 C1602 1.358 . S
C1603 H1607 0.930 . S
C1604 C1602 1.356 . S
C1604 C1605 1.348 . S
C1605 C1600 1.353 . S
C1605 C1604 1.348 . S
C1605 H1657 0.929 . S
H1606 C1600 0.930 . S
H1607 C1603 0.930 . S
C1608 N1609 1.314 . S
C1608 C1610 1.353 . S
C1608 H1614 0.930 . S
N1609 Li1585 1.990 . S
N1609 C1608 1.314 . S
N1609 C1612 1.279 . S
C1610 C1608 1.353 . S
C1610 C1613 1.348 . S
C1610 H1658 0.929 . S
C1611 C1612 1.358 . S
C1611 C1613 1.356 . S
C1611 H1659 0.930 . S
C1612 N1609 1.279 . S
C1612 C1611 1.358 . S
C1612 H1615 0.930 . S
C1613 C1610 1.348 . S
C1613 C1611 1.356 . S
H1614 C1608 0.930 . S
H1615 C1612 0.930 . S
C1616 C1618 1.348 . S
C1616 C1619 1.356 . S
C1616 O1646 1.325 . S
N1617 C1620 1.314 . S
N1617 C1621 1.279 . S
C1618 C1616 1.348 . S
C1618 C1620 1.353 . S
C1618 H1660 0.929 . S
C1619 C1616 1.356 . S
C1619 C1621 1.358 . S
C1619 H1661 0.930 . S
C1620 N1617 1.314 . S
C1620 C1618 1.353 . S
C1620 H1662 0.930 . S
C1621 N1617 1.279 . S
C1621 C1619 1.358 . S
C1621 H1663 0.930 . S
C1622 C1623 1.348 . S
C1622 C1624 1.356 . S
C1622 O1647 1.325 . S
C1623 C1622 1.348 . S
C1623 C1625 1.353 . S
C1623 H1664 0.929 . S
C1624 C1622 1.356 . S
C1624 C1626 1.358 . S
C1624 H1665 0.930 . S
C1625 C1623 1.353 . S
C1625 N1627 1.314 . S
C1625 H1666 0.930 . S
C1626 C1624 1.358 . S
C1626 N1627 1.279 . S
C1626 H1667 0.930 . S
N1627 C1625 1.314 . S
N1627 C1626 1.279 . S
C1628 C1630 1.353 . S
C1628 N1631 1.314 . S
C1628 H1634 0.930 . S
C1629 N1631 1.279 . S
C1629 C1632 1.358 . S
C1629 H1635 0.930 . S
C1630 C1628 1.353 . S
C1630 C1633 1.348 . S
C1630 H1668 0.929 . S
N1631 Li1586 1.990 . S
N1631 C1628 1.314 . S
N1631 C1629 1.279 . S
C1632 C1629 1.358 . S
C1632 C1633 1.356 . S
C1632 H1669 0.930 . S
C1633 C1630 1.348 . S
C1633 C1632 1.356 . S
H1634 C1628 0.930 . S
H1635 C1629 0.930 . S
C1636 N1637 1.314 . S
C1636 C1638 1.353 . S
C1636 H1642 0.930 . S
N1637 Li1587 1.990 . S
N1637 C1636 1.314 . S
N1637 C1640 1.279 . S
C1638 C1636 1.353 . S
C1638 C1641 1.348 . S
C1638 H1670 0.929 . S
C1639 C1640 1.358 . S
C1639 C1641 1.356 . S
C1639 H1671 0.930 . S
C1640 N1637 1.279 . S
C1640 C1639 1.358 . S
C1640 H1643 0.930 . S
C1641 C1638 1.348 . S
C1641 C1639 1.356 . S
H1642 C1636 0.930 . S
H1643 C1640 0.930 . S
O1644 Li1584 1.956 . S
O1644 Li1585 1.970 . S
O1644 Li1586 1.961 . S
O1644 C1588 1.325 . S
O1645 Li1584 1.970 . S
O1645 Li1585 1.956 . S
O1645 Li1587 1.961 . S
O1645 C1594 1.325 . S
O1646 Li1584 1.961 . S
O1646 Li1586 1.956 . S
O1646 Li1587 1.970 . S
O1646 C1616 1.325 . S
O1647 Li1585 1.961 . S
O1647 Li1586 1.970 . S
O1647 Li1587 1.956 . S
O1647 C1622 1.325 . S
H1648 C1590 0.929 . S
H1649 C1591 0.930 . S
H1650 C1592 0.930 . S
H1651 C1593 0.930 . S
H1652 C1595 0.930 . S
H1653 C1597 0.929 . S
H1654 C1598 0.930 . S
H1655 C1599 0.930 . S
H1656 C1602 0.930 . S
H1657 C1605 0.929 . S
H1658 C1610 0.929 . S
H1659 C1611 0.930 . S
H1660 C1618 0.929 . S
H1661 C1619 0.930 . S
H1662 C1620 0.930 . S
H1663 C1621 0.930 . S
H1664 C1623 0.929 . S
H1665 C1624 0.930 . S
H1666 C1625 0.930 . S
H1667 C1626 0.930 . S
H1668 C1630 0.929 . S
H1669 C1632 0.930 . S
H1670 C1638 0.929 . S
H1671 C1639 0.930 . S
Li1672 N1689 1.990 . S
Li1672 O1732 1.956 1_655 S
Li1672 O1733 1.970 1_655 S
Li1672 O1734 1.961 . S
Li1673 N1697 1.990 . S
Li1673 O1732 1.970 . S
Li1673 O1733 1.956 . S
Li1673 O1735 1.961 . S
Li1674 N1719 1.990 . S
Li1674 O1732 1.961 . S
Li1674 O1734 1.956 1_455 S
Li1674 O1735 1.970 . S
Li1675 N1725 1.990 . S
Li1675 O1733 1.961 . S
Li1675 O1734 1.970 1_455 S
Li1675 O1735 1.956 . S
C1676 C1678 1.348 . S
C1676 C1679 1.356 . S
C1676 O1732 1.325 . S
N1677 C1680 1.314 . S
N1677 C1681 1.279 . S
C1678 C1676 1.348 . S
C1678 C1680 1.353 . S
C1678 H1736 0.929 . S
C1679 C1676 1.356 . S
C1679 C1681 1.358 . S
C1679 H1737 0.911 1_455 S
C1680 N1677 1.314 . S
C1680 C1678 1.353 . S
C1680 H1738 0.930 . S
C1681 N1677 1.279 . S
C1681 C1679 1.358 . S
C1681 H1739 0.949 . S
C1682 C1685 1.348 1_455 S
C1682 C1686 1.356 . S
C1682 O1733 1.325 . S
C1683 N1684 1.279 1_455 S
C1683 C1686 1.358 . S
C1683 H1740 0.930 . S
N1684 C1683 1.279 1_655 S
N1684 C1687 1.314 . S
C1685 C1682 1.348 1_655 S
C1685 C1687 1.353 . S
C1685 H1741 0.929 . S
C1686 C1682 1.356 . S
C1686 C1683 1.358 . S
C1686 H1742 0.930 . S
C1687 N1684 1.314 . S
C1687 C1685 1.353 . S
C1687 H1743 0.930 . S
C1688 N1689 1.314 . S
C1688 C1693 1.353 . S
C1688 H1694 0.930 . S
N1689 Li1672 1.990 . S
N1689 C1688 1.314 . S
N1689 C1691 1.279 . S
C1690 C1691 1.358 . S
C1690 C1692 1.356 . S
C1690 H1744 0.930 . S
C1691 N1689 1.279 . S
C1691 C1690 1.358 . S
C1691 H1695 0.930 . S
C1692 C1690 1.356 . S
C1692 C1693 1.348 . S
C1693 C1688 1.353 . S
C1693 C1692 1.348 . S
C1693 H1745 0.929 . S
H1694 C1688 0.930 . S
H1695 C1691 0.930 . S
C1696 N1697 1.314 . S
C1696 C1698 1.353 . S
C1696 H1702 0.930 . S
N1697 Li1673 1.990 . S
N1697 C1696 1.314 . S
N1697 C1700 1.279 . S
C1698 C1696 1.353 . S
C1698 C1701 1.348 . S
C1698 H1746 0.929 . S
C1699 C1700 1.358 . S
C1699 C1701 1.356 . S
C1699 H1747 0.930 . S
C1700 N1697 1.279 . S
C1700 C1699 1.358 . S
C1700 H1703 0.930 . S
C1701 C1698 1.348 . S
C1701 C1699 1.356 . S
H1702 C1696 0.930 . S
H1703 C1700 0.930 . S
C1704 C1706 1.348 . S
C1704 C1707 1.356 . S
C1704 O1734 1.325 . S
N1705 C1708 1.314 . S
N1705 C1709 1.279 . S
C1706 C1704 1.348 . S
C1706 C1708 1.353 . S
C1706 H1748 0.929 . S
C1707 C1704 1.356 . S
C1707 C1709 1.358 . S
C1707 H1749 0.930 . S
C1708 N1705 1.314 . S
C1708 C1706 1.353 . S
C1708 H1750 0.930 . S
C1709 N1705 1.279 . S
C1709 C1707 1.358 . S
C1709 H1751 0.930 . S
C1710 C1711 1.348 . S
C1710 C1712 1.356 . S
C1710 O1735 1.325 . S
C1711 C1710 1.348 . S
C1711 C1713 1.353 . S
C1711 H1752 0.929 . S
C1712 C1710 1.356 . S
C1712 C1714 1.358 . S
C1712 H1753 0.930 . S
C1713 C1711 1.353 . S
C1713 N1715 1.314 . S
C1713 H1754 0.930 . S
C1714 C1712 1.358 . S
C1714 N1715 1.279 . S
C1714 H1755 0.930 . S
N1715 C1713 1.314 . S
N1715 C1714 1.279 . S
C1716 C1718 1.353 . S
C1716 N1719 1.314 . S
C1716 H1722 0.930 . S
C1717 N1719 1.279 . S
C1717 C1720 1.358 . S
C1717 H1723 0.930 . S
C1718 C1716 1.353 . S
C1718 C1721 1.348 . S
C1718 H1756 0.929 . S
N1719 Li1674 1.990 . S
N1719 C1716 1.314 . S
N1719 C1717 1.279 . S
C1720 C1717 1.358 . S
C1720 C1721 1.356 . S
C1720 H1757 0.930 . S
C1721 C1718 1.348 . S
C1721 C1720 1.356 . S
H1722 C1716 0.930 . S
H1723 C1717 0.930 . S
C1724 N1725 1.327 . S
C1724 C1726 1.351 1_455 S
C1724 H1730 0.917 1_455 S
N1725 Li1675 1.990 . S
N1725 C1724 1.327 . S
N1725 C1728 1.279 . S
C1726 C1724 1.351 1_655 S
C1726 C1729 1.348 1_655 S
C1726 H1758 0.929 . S
C1727 C1728 1.358 . S
C1727 C1729 1.356 . S
C1727 H1759 0.930 . S
C1728 N1725 1.279 . S
C1728 C1727 1.358 . S
C1728 H1731 0.930 . S
C1729 C1726 1.348 1_455 S
C1729 C1727 1.356 . S
H1730 C1724 0.917 1_655 S
H1731 C1728 0.930 . S
O1732 Li1672 1.956 1_455 S
O1732 Li1673 1.970 . S
O1732 Li1674 1.961 . S
O1732 C1676 1.325 . S
O1733 Li1672 1.970 1_455 S
O1733 Li1673 1.956 . S
O1733 Li1675 1.961 . S
O1733 C1682 1.325 . S
O1734 Li1672 1.961 . S
O1734 Li1674 1.956 1_655 S
O1734 Li1675 1.970 1_655 S
O1734 C1704 1.325 . S
O1735 Li1673 1.961 . S
O1735 Li1674 1.970 . S
O1735 Li1675 1.956 . S
O1735 C1710 1.325 . S
H1736 C1678 0.929 . S
H1737 C1679 0.911 1_655 S
H1738 C1680 0.930 . S
H1739 C1681 0.949 . S
H1740 C1683 0.930 . S
H1741 C1685 0.929 . S
H1742 C1686 0.930 . S
H1743 C1687 0.930 . S
H1744 C1690 0.930 . S
H1745 C1693 0.929 . S
H1746 C1698 0.929 . S
H1747 C1699 0.930 . S
H1748 C1706 0.929 . S
H1749 C1707 0.930 . S
H1750 C1708 0.930 . S
H1751 C1709 0.930 . S
H1752 C1711 0.929 . S
H1753 C1712 0.930 . S
H1754 C1713 0.930 . S
H1755 C1714 0.930 . S
H1756 C1718 0.929 . S
H1757 C1720 0.930 . S
H1758 C1726 0.929 . S
H1759 C1727 0.930 . S
Li1760 N1777 1.990 . S
Li1760 O1820 1.956 . S
Li1760 O1821 1.970 . S
Li1760 O1822 1.961 . S
Li1761 N1785 1.990 . S
Li1761 O1820 1.970 . S
Li1761 O1821 1.956 . S
Li1761 O1823 1.961 . S
Li1762 N1807 1.990 . S
Li1762 O1820 1.961 . S
Li1762 O1822 1.956 . S
Li1762 O1823 1.970 . S
Li1763 N1813 1.990 . S
Li1763 O1821 1.961 . S
Li1763 O1822 1.970 . S
Li1763 O1823 1.956 . S
C1764 C1766 1.348 . S
C1764 C1767 1.356 . S
C1764 O1820 1.325 . S
N1765 C1768 1.314 . S
N1765 C1769 1.279 . S
C1766 C1764 1.348 . S
C1766 C1768 1.353 . S
C1766 H1824 0.929 . S
C1767 C1764 1.356 . S
C1767 C1769 1.358 . S
C1767 H1825 0.930 . S
C1768 N1765 1.314 . S
C1768 C1766 1.353 . S
C1768 H1826 0.930 . S
C1769 N1765 1.279 . S
C1769 C1767 1.358 . S
C1769 H1827 0.930 . S
C1770 C1773 1.348 . S
C1770 C1774 1.356 . S
C1770 O1821 1.325 . S
C1771 N1772 1.279 . S
C1771 C1774 1.358 . S
C1771 H1828 0.930 . S
N1772 C1771 1.279 . S
N1772 C1775 1.314 . S
C1773 C1770 1.348 . S
C1773 C1775 1.353 . S
C1773 H1829 0.929 . S
C1774 C1770 1.356 . S
C1774 C1771 1.358 . S
C1774 H1830 0.930 . S
C1775 N1772 1.314 . S
C1775 C1773 1.353 . S
C1775 H1831 0.930 . S
C1776 N1777 1.314 . S
C1776 C1781 1.353 . S
C1776 H1782 0.930 . S
N1777 Li1760 1.990 . S
N1777 C1776 1.314 . S
N1777 C1779 1.279 . S
C1778 C1779 1.358 . S
C1778 C1780 1.356 . S
C1778 H1832 0.930 . S
C1779 N1777 1.279 . S
C1779 C1778 1.358 . S
C1779 H1783 0.930 . S
C1780 C1778 1.356 . S
C1780 C1781 1.348 . S
C1781 C1776 1.353 . S
C1781 C1780 1.348 . S
C1781 H1833 0.929 . S
H1782 C1776 0.930 . S
H1783 C1779 0.930 . S
C1784 N1785 1.314 . S
C1784 C1786 1.353 . S
C1784 H1790 0.930 . S
N1785 Li1761 1.990 . S
N1785 C1784 1.314 . S
N1785 C1788 1.279 . S
C1786 C1784 1.353 . S
C1786 C1789 1.348 . S
C1786 H1834 0.929 . S
C1787 C1788 1.358 . S
C1787 C1789 1.356 . S
C1787 H1835 0.930 . S
C1788 N1785 1.279 . S
C1788 C1787 1.358 . S
C1788 H1791 0.930 . S
C1789 C1786 1.348 . S
C1789 C1787 1.356 . S
H1790 C1784 0.930 . S
H1791 C1788 0.930 . S
C1792 C1794 1.348 . S
C1792 C1795 1.356 . S
C1792 O1822 1.325 . S
N1793 C1796 1.314 . S
N1793 C1797 1.279 . S
C1794 C1792 1.348 . S
C1794 C1796 1.353 . S
C1794 H1836 0.929 . S
C1795 C1792 1.356 . S
C1795 C1797 1.358 . S
C1795 H1837 0.930 . S
C1796 N1793 1.314 . S
C1796 C1794 1.353 . S
C1796 H1838 0.930 . S
C1797 N1793 1.279 . S
C1797 C1795 1.358 . S
C1797 H1839 0.930 . S
C1798 C1799 1.348 . S
C1798 C1800 1.356 . S
C1798 O1823 1.325 . S
C1799 C1798 1.348 . S
C1799 C1801 1.353 . S
C1799 H1840 0.929 . S
C1800 C1798 1.356 . S
C1800 C1802 1.358 . S
C1800 H1841 0.930 . S
C1801 C1799 1.353 . S
C1801 N1803 1.314 . S
C1801 H1842 0.930 . S
C1802 C1800 1.358 . S
C1802 N1803 1.279 . S
C1802 H1843 0.930 . S
N1803 C1801 1.314 . S
N1803 C1802 1.279 . S
C1804 C1806 1.353 . S
C1804 N1807 1.314 . S
C1804 H1810 0.930 . S
C1805 N1807 1.279 . S
C1805 C1808 1.358 . S
C1805 H1811 0.930 . S
C1806 C1804 1.353 . S
C1806 C1809 1.348 . S
C1806 H1844 0.929 . S
N1807 Li1762 1.990 . S
N1807 C1804 1.314 . S
N1807 C1805 1.279 . S
C1808 C1805 1.358 . S
C1808 C1809 1.356 . S
C1808 H1845 0.930 . S
C1809 C1806 1.348 . S
C1809 C1808 1.356 . S
H1810 C1804 0.930 . S
H1811 C1805 0.930 . S
C1812 N1813 1.314 . S
C1812 C1814 1.353 . S
C1812 H1818 0.930 . S
N1813 Li1763 1.990 . S
N1813 C1812 1.314 . S
N1813 C1816 1.279 . S
C1814 C1812 1.353 . S
C1814 C1817 1.348 . S
C1814 H1846 0.929 . S
C1815 C1816 1.358 . S
C1815 C1817 1.356 . S
C1815 H1847 0.930 . S
C1816 N1813 1.279 . S
C1816 C1815 1.358 . S
C1816 H1819 0.930 . S
C1817 C1814 1.348 . S
C1817 C1815 1.356 . S
H1818 C1812 0.930 . S
H1819 C1816 0.930 . S
O1820 Li1760 1.956 . S
O1820 Li1761 1.970 . S
O1820 Li1762 1.961 . S
O1820 C1764 1.325 . S
O1821 Li1760 1.970 . S
O1821 Li1761 1.956 . S
O1821 Li1763 1.961 . S
O1821 C1770 1.325 . S
O1822 Li1760 1.961 . S
O1822 Li1762 1.956 . S
O1822 Li1763 1.970 . S
O1822 C1792 1.325 . S
O1823 Li1761 1.961 . S
O1823 Li1762 1.970 . S
O1823 Li1763 1.956 . S
O1823 C1798 1.325 . S
H1824 C1766 0.929 . S
H1825 C1767 0.930 . S
H1826 C1768 0.930 . S
H1827 C1769 0.930 . S
H1828 C1771 0.930 . S
H1829 C1773 0.929 . S
H1830 C1774 0.930 . S
H1831 C1775 0.930 . S
H1832 C1778 0.930 . S
H1833 C1781 0.929 . S
H1834 C1786 0.929 . S
H1835 C1787 0.930 . S
H1836 C1794 0.929 . S
H1837 C1795 0.930 . S
H1838 C1796 0.930 . S
H1839 C1797 0.930 . S
H1840 C1799 0.929 . S
H1841 C1800 0.930 . S
H1842 C1801 0.930 . S
H1843 C1802 0.930 . S
H1844 C1806 0.929 . S
H1845 C1808 0.930 . S
H1846 C1814 0.929 . S
H1847 C1815 0.930 . S
Li1848 N1865 1.990 . S
Li1848 O1908 1.956 . S
Li1848 O1909 1.970 1_456 S
Li1848 O1910 1.961 . S
Li1849 N1873 1.990 . S
Li1849 O1908 1.970 1_554 S
Li1849 O1909 1.956 1_455 S
Li1849 O1911 1.961 1_554 S
Li1850 N1895 1.990 . S
Li1850 O1908 1.961 . S
Li1850 O1910 1.956 . S
Li1850 O1911 1.970 . S
Li1851 N1901 1.990 . S
Li1851 O1909 1.961 1_556 S
Li1851 O1910 1.970 1_655 S
Li1851 O1911 1.956 1_655 S
C1852 C1854 1.348 1_556 S
C1852 C1855 1.356 . S
C1852 O1908 1.325 . S
N1853 C1856 1.314 . S
N1853 C1857 1.279 1_554 S
C1854 C1852 1.348 1_554 S
C1854 C1856 1.353 . S
C1854 H1912 0.929 . S
C1855 C1852 1.356 . S
C1855 C1857 1.358 . S
C1855 H1913 0.930 . S
C1856 N1853 1.314 . S
C1856 C1854 1.353 . S
C1856 H1914 0.930 . S
C1857 N1853 1.279 1_556 S
C1857 C1855 1.358 . S
C1857 H1915 0.930 . S
C1858 C1861 1.348 . S
C1858 C1862 1.356 . S
C1858 O1909 1.325 . S
C1859 N1860 1.279 . S
C1859 C1862 1.358 . S
C1859 H1916 0.930 . S
N1860 C1859 1.279 . S
N1860 C1863 1.314 . S
C1861 C1858 1.348 . S
C1861 C1863 1.353 . S
C1861 H1917 0.929 . S
C1862 C1858 1.356 . S
C1862 C1859 1.358 . S
C1862 H1918 0.930 . S
C1863 N1860 1.314 . S
C1863 C1861 1.353 . S
C1863 H1919 0.930 . S
C1864 N1865 1.327 . S
C1864 C1869 1.351 1_455 S
C1864 H1870 0.917 1_455 S
N1865 Li1848 1.990 . S
N1865 C1864 1.327 . S
N1865 C1867 1.279 . S
C1866 C1867 1.358 . S
C1866 C1868 1.356 . S
C1866 H1920 0.930 1_556 S
C1867 N1865 1.279 . S
C1867 C1866 1.358 . S
C1867 H1871 0.930 1_556 S
C1868 C1866 1.356 . S
C1868 C1869 1.348 1_455 S
C1869 C1864 1.351 1_655 S
C1869 C1868 1.348 1_655 S
C1869 H1921 0.929 . S
H1870 C1864 0.917 1_655 S
H1871 C1867 0.930 1_554 S
C1872 N1873 1.314 . S
C1872 C1874 1.353 . S
C1872 H1878 0.930 . S
N1873 Li1849 1.990 . S
N1873 C1872 1.314 . S
N1873 C1876 1.279 . S
C1874 C1872 1.353 . S
C1874 C1877 1.348 . S
C1874 H1922 0.929 . S
C1875 C1876 1.358 . S
C1875 C1877 1.356 . S
C1875 H1923 0.930 . S
C1876 N1873 1.279 . S
C1876 C1875 1.358 . S
C1876 H1879 0.930 . S
C1877 C1874 1.348 . S
C1877 C1875 1.356 . S
H1878 C1872 0.930 . S
H1879 C1876 0.930 . S
C1880 C1882 1.348 1_455 S
C1880 C1883 1.356 . S
C1880 O1910 1.325 . S
N1881 C1884 1.314 . S
N1881 C1885 1.279 1_655 S
C1882 C1880 1.348 1_655 S
C1882 C1884 1.353 . S
C1882 H1924 0.929 . S
C1883 C1880 1.356 . S
C1883 C1885 1.358 . S
C1883 H1925 0.930 . S
C1884 N1881 1.314 . S
C1884 C1882 1.353 . S
C1884 H1926 0.930 . S
C1885 N1881 1.279 1_455 S
C1885 C1883 1.358 . S
C1885 H1927 0.930 . S
C1886 C1887 1.348 . S
C1886 C1888 1.356 . S
C1886 O1911 1.325 . S
C1887 C1886 1.348 . S
C1887 C1889 1.353 . S
C1887 H1928 0.929 . S
C1888 C1886 1.356 . S
C1888 C1890 1.358 . S
C1888 H1929 0.911 1_456 S
C1889 C1887 1.353 . S
C1889 N1891 1.314 . S
C1889 H1930 0.930 . S
C1890 C1888 1.358 . S
C1890 N1891 1.279 . S
C1890 H1931 0.949 1_556 S
N1891 C1889 1.314 . S
N1891 C1890 1.279 . S
C1892 C1894 1.353 . S
C1892 N1895 1.314 . S
C1892 H1898 0.930 . S
C1893 N1895 1.279 . S
C1893 C1896 1.358 . S
C1893 H1899 0.930 . S
C1894 C1892 1.353 . S
C1894 C1897 1.348 . S
C1894 H1932 0.929 . S
N1895 Li1850 1.990 . S
N1895 C1892 1.314 . S
N1895 C1893 1.279 . S
C1896 C1893 1.358 . S
C1896 C1897 1.356 . S
C1896 H1933 0.930 . S
C1897 C1894 1.348 . S
C1897 C1896 1.356 . S
H1898 C1892 0.930 . S
H1899 C1893 0.930 . S
C1900 N1901 1.314 . S
C1900 C1902 1.353 . S
C1900 H1906 0.930 . S
N1901 Li1851 1.990 . S
N1901 C1900 1.314 . S
N1901 C1904 1.279 . S
C1902 C1900 1.353 . S
C1902 C1905 1.348 . S
C1902 H1934 0.929 . S
C1903 C1904 1.358 . S
C1903 C1905 1.356 . S
C1903 H1935 0.930 . S
C1904 N1901 1.279 . S
C1904 C1903 1.358 . S
C1904 H1907 0.930 . S
C1905 C1902 1.348 . S
C1905 C1903 1.356 . S
H1906 C1900 0.930 . S
H1907 C1904 0.930 . S
O1908 Li1848 1.956 . S
O1908 Li1849 1.970 1_556 S
O1908 Li1850 1.961 . S
O1908 C1852 1.325 . S
O1909 Li1848 1.970 1_654 S
O1909 Li1849 1.956 1_655 S
O1909 Li1851 1.961 1_554 S
O1909 C1858 1.325 . S
O1910 Li1848 1.961 . S
O1910 Li1850 1.956 . S
O1910 Li1851 1.970 1_455 S
O1910 C1880 1.325 . S
O1911 Li1849 1.961 1_556 S
O1911 Li1850 1.970 . S
O1911 Li1851 1.956 1_455 S
O1911 C1886 1.325 . S
H1912 C1854 0.929 . S
H1913 C1855 0.930 . S
H1914 C1856 0.930 . S
H1915 C1857 0.930 . S
H1916 C1859 0.930 . S
H1917 C1861 0.929 . S
H1918 C1862 0.930 . S
H1919 C1863 0.930 . S
H1920 C1866 0.930 1_554 S
H1921 C1869 0.929 . S
H1922 C1874 0.929 . S
H1923 C1875 0.930 . S
H1924 C1882 0.929 . S
H1925 C1883 0.930 . S
H1926 C1884 0.930 . S
H1927 C1885 0.930 . S
H1928 C1887 0.929 . S
H1929 C1888 0.911 1_654 S
H1930 C1889 0.930 . S
H1931 C1890 0.949 1_554 S
H1932 C1894 0.929 . S
H1933 C1896 0.930 . S
H1934 C1902 0.929 . S
H1935 C1903 0.930 . S
Li1936 N1953 1.990 . S
Li1936 O1996 1.956 . S
Li1936 O1997 1.970 . S
Li1936 O1998 1.961 . S
Li1937 N1961 1.990 . S
Li1937 O1996 1.970 . S
Li1937 O1997 1.956 . S
Li1937 O1999 1.961 . S
Li1938 N1983 1.990 . S
Li1938 O1996 1.961 . S
Li1938 O1998 1.956 . S
Li1938 O1999 1.970 . S
Li1939 N1989 1.990 . S
Li1939 O1997 1.961 . S
Li1939 O1998 1.970 . S
Li1939 O1999 1.956 . S
C1940 C1942 1.348 . S
C1940 C1943 1.356 . S
C1940 O1996 1.325 . S
N1941 C1944 1.314 . S
N1941 C1945 1.279 . S
C1942 C1940 1.348 . S
C1942 C1944 1.353 . S
C1942 H2000 0.929 . S
C1943 C1940 1.356 . S
C1943 C1945 1.358 . S
C1943 H2001 0.930 . S
C1944 N1941 1.314 . S
C1944 C1942 1.353 . S
C1944 H2002 0.930 . S
C1945 N1941 1.279 . S
C1945 C1943 1.358 . S
C1945 H2003 0.930 . S
C1946 C1949 1.348 . S
C1946 C1950 1.356 . S
C1946 O1997 1.325 . S
C1947 N1948 1.279 . S
C1947 C1950 1.358 . S
C1947 H2004 0.930 . S
N1948 C1947 1.279 . S
N1948 C1951 1.314 . S
C1949 C1946 1.348 . S
C1949 C1951 1.353 . S
C1949 H2005 0.929 . S
C1950 C1946 1.356 . S
C1950 C1947 1.358 . S
C1950 H2006 0.930 . S
C1951 N1948 1.314 . S
C1951 C1949 1.353 . S
C1951 H2007 0.930 . S
C1952 N1953 1.314 . S
C1952 C1957 1.353 . S
C1952 H1958 0.930 . S
N1953 Li1936 1.990 . S
N1953 C1952 1.314 . S
N1953 C1955 1.279 . S
C1954 C1955 1.358 . S
C1954 C1956 1.356 . S
C1954 H2008 0.930 . S
C1955 N1953 1.279 . S
C1955 C1954 1.358 . S
C1955 H1959 0.930 . S
C1956 C1954 1.356 . S
C1956 C1957 1.348 . S
C1957 C1952 1.353 . S
C1957 C1956 1.348 . S
C1957 H2009 0.929 . S
H1958 C1952 0.930 . S
H1959 C1955 0.930 . S
C1960 N1961 1.314 . S
C1960 C1962 1.353 . S
C1960 H1966 0.930 . S
N1961 Li1937 1.990 . S
N1961 C1960 1.314 . S
N1961 C1964 1.279 . S
C1962 C1960 1.353 . S
C1962 C1965 1.348 . S
C1962 H2010 0.929 . S
C1963 C1964 1.358 . S
C1963 C1965 1.356 . S
C1963 H2011 0.930 . S
C1964 N1961 1.279 . S
C1964 C1963 1.358 . S
C1964 H1967 0.930 . S
C1965 C1962 1.348 . S
C1965 C1963 1.356 . S
H1966 C1960 0.930 . S
H1967 C1964 0.930 . S
C1968 C1970 1.348 . S
C1968 C1971 1.356 . S
C1968 O1998 1.325 . S
N1969 C1972 1.314 . S
N1969 C1973 1.279 . S
C1970 C1968 1.348 . S
C1970 C1972 1.353 . S
C1970 H2012 0.929 . S
C1971 C1968 1.356 . S
C1971 C1973 1.358 . S
C1971 H2013 0.930 . S
C1972 N1969 1.314 . S
C1972 C1970 1.353 . S
C1972 H2014 0.930 . S
C1973 N1969 1.279 . S
C1973 C1971 1.358 . S
C1973 H2015 0.930 . S
C1974 C1975 1.348 . S
C1974 C1976 1.356 . S
C1974 O1999 1.325 . S
C1975 C1974 1.348 . S
C1975 C1977 1.353 . S
C1975 H2016 0.929 . S
C1976 C1974 1.356 . S
C1976 C1978 1.358 . S
C1976 H2017 0.930 . S
C1977 C1975 1.353 . S
C1977 N1979 1.314 . S
C1977 H2018 0.930 . S
C1978 C1976 1.358 . S
C1978 N1979 1.279 . S
C1978 H2019 0.930 . S
N1979 C1977 1.314 . S
N1979 C1978 1.279 . S
C1980 C1982 1.353 . S
C1980 N1983 1.314 . S
C1980 H1986 0.930 . S
C1981 N1983 1.279 . S
C1981 C1984 1.358 . S
C1981 H1987 0.930 . S
C1982 C1980 1.353 . S
C1982 C1985 1.348 . S
C1982 H2020 0.929 . S
N1983 Li1938 1.990 . S
N1983 C1980 1.314 . S
N1983 C1981 1.279 . S
C1984 C1981 1.358 . S
C1984 C1985 1.356 . S
C1984 H2021 0.930 . S
C1985 C1982 1.348 . S
C1985 C1984 1.356 . S
H1986 C1980 0.930 . S
H1987 C1981 0.930 . S
C1988 N1989 1.314 . S
C1988 C1990 1.353 . S
C1988 H1994 0.930 . S
N1989 Li1939 1.990 . S
N1989 C1988 1.314 . S
N1989 C1992 1.279 . S
C1990 C1988 1.353 . S
C1990 C1993 1.348 . S
C1990 H2022 0.929 . S
C1991 C1992 1.358 . S
C1991 C1993 1.356 . S
C1991 H2023 0.930 . S
C1992 N1989 1.279 . S
C1992 C1991 1.358 . S
C1992 H1995 0.930 . S
C1993 C1990 1.348 . S
C1993 C1991 1.356 . S
H1994 C1988 0.930 . S
H1995 C1992 0.930 . S
O1996 Li1936 1.956 . S
O1996 Li1937 1.970 . S
O1996 Li1938 1.961 . S
O1996 C1940 1.325 . S
O1997 Li1936 1.970 . S
O1997 Li1937 1.956 . S
O1997 Li1939 1.961 . S
O1997 C1946 1.325 . S
O1998 Li1936 1.961 . S
O1998 Li1938 1.956 . S
O1998 Li1939 1.970 . S
O1998 C1968 1.325 . S
O1999 Li1937 1.961 . S
O1999 Li1938 1.970 . S
O1999 Li1939 1.956 . S
O1999 C1974 1.325 . S
H2000 C1942 0.929 . S
H2001 C1943 0.930 . S
H2002 C1944 0.930 . S
H2003 C1945 0.930 . S
H2004 C1947 0.930 . S
H2005 C1949 0.929 . S
H2006 C1950 0.930 . S
H2007 C1951 0.930 . S
H2008 C1954 0.930 . S
H2009 C1957 0.929 . S
H2010 C1962 0.929 . S
H2011 C1963 0.930 . S
H2012 C1970 0.929 . S
H2013 C1971 0.930 . S
H2014 C1972 0.930 . S
H2015 C1973 0.930 . S
H2016 C1975 0.929 . S
H2017 C1976 0.930 . S
H2018 C1977 0.930 . S
H2019 C1978 0.930 . S
H2020 C1982 0.929 . S
H2021 C1984 0.930 . S
H2022 C1990 0.929 . S
H2023 C1991 0.930 . S
Li2024 N2041 1.990 . S
Li2024 O2084 1.956 . S
Li2024 O2085 1.970 . S
Li2024 O2086 1.961 . S
Li2025 N2049 1.990 . S
Li2025 O2084 1.970 . S
Li2025 O2085 1.956 . S
Li2025 O2087 1.961 . S
Li2026 N2071 1.990 . S
Li2026 O2084 1.961 . S
Li2026 O2086 1.956 . S
Li2026 O2087 1.970 . S
Li2027 N2077 1.990 . S
Li2027 O2085 1.961 . S
Li2027 O2086 1.970 . S
Li2027 O2087 1.956 . S
C2028 C2030 1.348 . S
C2028 C2031 1.356 . S
C2028 O2084 1.325 . S
N2029 C2032 1.314 . S
N2029 C2033 1.279 . S
C2030 C2028 1.348 . S
C2030 C2032 1.353 . S
C2030 H2088 0.929 . S
C2031 C2028 1.356 . S
C2031 C2033 1.358 . S
C2031 H2089 0.930 . S
C2032 N2029 1.314 . S
C2032 C2030 1.353 . S
C2032 H2090 0.930 . S
C2033 N2029 1.279 . S
C2033 C2031 1.358 . S
C2033 H2091 0.930 . S
C2034 C2037 1.348 . S
C2034 C2038 1.356 . S
C2034 O2085 1.325 . S
C2035 N2036 1.279 . S
C2035 C2038 1.358 . S
C2035 H2092 0.930 . S
N2036 C2035 1.279 . S
N2036 C2039 1.314 . S
C2037 C2034 1.348 . S
C2037 C2039 1.353 . S
C2037 H2093 0.929 . S
C2038 C2034 1.356 . S
C2038 C2035 1.358 . S
C2038 H2094 0.930 . S
C2039 N2036 1.314 . S
C2039 C2037 1.353 . S
C2039 H2095 0.930 . S
C2040 N2041 1.314 . S
C2040 C2045 1.353 . S
C2040 H2046 0.930 . S
N2041 Li2024 1.990 . S
N2041 C2040 1.314 . S
N2041 C2043 1.279 . S
C2042 C2043 1.358 . S
C2042 C2044 1.356 . S
C2042 H2096 0.930 . S
C2043 N2041 1.279 . S
C2043 C2042 1.358 . S
C2043 H2047 0.930 . S
C2044 C2042 1.356 . S
C2044 C2045 1.348 . S
C2045 C2040 1.353 . S
C2045 C2044 1.348 . S
C2045 H2097 0.929 . S
H2046 C2040 0.930 . S
H2047 C2043 0.930 . S
C2048 N2049 1.314 . S
C2048 C2050 1.353 . S
C2048 H2054 0.930 . S
N2049 Li2025 1.990 . S
N2049 C2048 1.314 . S
N2049 C2052 1.279 . S
C2050 C2048 1.353 . S
C2050 C2053 1.348 . S
C2050 H2098 0.929 . S
C2051 C2052 1.358 . S
C2051 C2053 1.356 . S
C2051 H2099 0.930 . S
C2052 N2049 1.279 . S
C2052 C2051 1.358 . S
C2052 H2055 0.930 . S
C2053 C2050 1.348 . S
C2053 C2051 1.356 . S
H2054 C2048 0.930 . S
H2055 C2052 0.930 . S
C2056 C2058 1.348 . S
C2056 C2059 1.356 . S
C2056 O2086 1.325 . S
N2057 C2060 1.314 . S
N2057 C2061 1.279 . S
C2058 C2056 1.348 . S
C2058 C2060 1.353 . S
C2058 H2100 0.929 . S
C2059 C2056 1.356 . S
C2059 C2061 1.358 . S
C2059 H2101 0.930 . S
C2060 N2057 1.314 . S
C2060 C2058 1.353 . S
C2060 H2102 0.930 . S
C2061 N2057 1.279 . S
C2061 C2059 1.358 . S
C2061 H2103 0.930 . S
C2062 C2063 1.348 . S
C2062 C2064 1.356 . S
C2062 O2087 1.325 . S
C2063 C2062 1.348 . S
C2063 C2065 1.353 . S
C2063 H2104 0.929 . S
C2064 C2062 1.356 . S
C2064 C2066 1.358 . S
C2064 H2105 0.930 . S
C2065 C2063 1.353 . S
C2065 N2067 1.314 . S
C2065 H2106 0.930 . S
C2066 C2064 1.358 . S
C2066 N2067 1.279 . S
C2066 H2107 0.930 . S
N2067 C2065 1.314 . S
N2067 C2066 1.279 . S
C2068 C2070 1.353 . S
C2068 N2071 1.314 . S
C2068 H2074 0.930 . S
C2069 N2071 1.279 . S
C2069 C2072 1.358 . S
C2069 H2075 0.930 . S
C2070 C2068 1.353 . S
C2070 C2073 1.348 . S
C2070 H2108 0.929 . S
N2071 Li2026 1.990 . S
N2071 C2068 1.314 . S
N2071 C2069 1.279 . S
C2072 C2069 1.358 . S
C2072 C2073 1.356 . S
C2072 H2109 0.930 . S
C2073 C2070 1.348 . S
C2073 C2072 1.356 . S
H2074 C2068 0.930 . S
H2075 C2069 0.930 . S
C2076 N2077 1.314 . S
C2076 C2078 1.353 . S
C2076 H2082 0.930 . S
N2077 Li2027 1.990 . S
N2077 C2076 1.314 . S
N2077 C2080 1.279 . S
C2078 C2076 1.353 . S
C2078 C2081 1.348 . S
C2078 H2110 0.929 . S
C2079 C2080 1.358 . S
C2079 C2081 1.356 . S
C2079 H2111 0.930 . S
C2080 N2077 1.279 . S
C2080 C2079 1.358 . S
C2080 H2083 0.930 . S
C2081 C2078 1.348 . S
C2081 C2079 1.356 . S
H2082 C2076 0.930 . S
H2083 C2080 0.930 . S
O2084 Li2024 1.956 . S
O2084 Li2025 1.970 . S
O2084 Li2026 1.961 . S
O2084 C2028 1.325 . S
O2085 Li2024 1.970 . S
O2085 Li2025 1.956 . S
O2085 Li2027 1.961 . S
O2085 C2034 1.325 . S
O2086 Li2024 1.961 . S
O2086 Li2026 1.956 . S
O2086 Li2027 1.970 . S
O2086 C2056 1.325 . S
O2087 Li2025 1.961 . S
O2087 Li2026 1.970 . S
O2087 Li2027 1.956 . S
O2087 C2062 1.325 . S
H2088 C2030 0.929 . S
H2089 C2031 0.930 . S
H2090 C2032 0.930 . S
H2091 C2033 0.930 . S
H2092 C2035 0.930 . S
H2093 C2037 0.929 . S
H2094 C2038 0.930 . S
H2095 C2039 0.930 . S
H2096 C2042 0.930 . S
H2097 C2045 0.929 . S
H2098 C2050 0.929 . S
H2099 C2051 0.930 . S
H2100 C2058 0.929 . S
H2101 C2059 0.930 . S
H2102 C2060 0.930 . S
H2103 C2061 0.930 . S
H2104 C2063 0.929 . S
H2105 C2064 0.930 . S
H2106 C2065 0.930 . S
H2107 C2066 0.930 . S
H2108 C2070 0.929 . S
H2109 C2072 0.930 . S
H2110 C2078 0.929 . S
H2111 C2079 0.930 . S
Li2112 N2129 1.990 . S
Li2112 O2172 1.956 . S
Li2112 O2173 1.970 . S
Li2112 O2174 1.961 . S
Li2113 N2137 1.990 . S
Li2113 O2172 1.970 . S
Li2113 O2173 1.956 . S
Li2113 O2175 1.961 . S
Li2114 N2159 1.990 . S
Li2114 O2172 1.961 . S
Li2114 O2174 1.956 . S
Li2114 O2175 1.970 . S
Li2115 N2165 1.990 . S
Li2115 O2173 1.961 . S
Li2115 O2174 1.970 . S
Li2115 O2175 1.956 . S
C2116 C2118 1.348 . S
C2116 C2119 1.356 . S
C2116 O2172 1.325 . S
N2117 C2120 1.314 . S
N2117 C2121 1.279 . S
C2118 C2116 1.348 . S
C2118 C2120 1.353 . S
C2118 H2176 0.929 . S
C2119 C2116 1.356 . S
C2119 C2121 1.358 . S
C2119 H2177 0.930 . S
C2120 N2117 1.314 . S
C2120 C2118 1.353 . S
C2120 H2178 0.930 . S
C2121 N2117 1.279 . S
C2121 C2119 1.358 . S
C2121 H2179 0.930 . S
C2122 C2125 1.348 . S
C2122 C2126 1.356 . S
C2122 O2173 1.325 . S
C2123 N2124 1.279 . S
C2123 C2126 1.358 . S
C2123 H2180 0.930 . S
N2124 C2123 1.279 . S
N2124 C2127 1.314 . S
C2125 C2122 1.348 . S
C2125 C2127 1.353 . S
C2125 H2181 0.929 . S
C2126 C2122 1.356 . S
C2126 C2123 1.358 . S
C2126 H2182 0.930 . S
C2127 N2124 1.314 . S
C2127 C2125 1.353 . S
C2127 H2183 0.930 . S
C2128 N2129 1.314 . S
C2128 C2133 1.353 . S
C2128 H2134 0.930 . S
N2129 Li2112 1.990 . S
N2129 C2128 1.314 . S
N2129 C2131 1.279 . S
C2130 C2131 1.358 . S
C2130 C2132 1.356 . S
C2130 H2184 0.930 . S
C2131 N2129 1.279 . S
C2131 C2130 1.358 . S
C2131 H2135 0.930 . S
C2132 C2130 1.356 . S
C2132 C2133 1.348 . S
C2133 C2128 1.353 . S
C2133 C2132 1.348 . S
C2133 H2185 0.929 . S
H2134 C2128 0.930 . S
H2135 C2131 0.930 . S
C2136 N2137 1.314 . S
C2136 C2138 1.353 . S
C2136 H2142 0.930 . S
N2137 Li2113 1.990 . S
N2137 C2136 1.314 . S
N2137 C2140 1.279 . S
C2138 C2136 1.353 . S
C2138 C2141 1.348 . S
C2138 H2186 0.929 . S
C2139 C2140 1.358 . S
C2139 C2141 1.356 . S
C2139 H2187 0.930 . S
C2140 N2137 1.279 . S
C2140 C2139 1.358 . S
C2140 H2143 0.930 . S
C2141 C2138 1.348 . S
C2141 C2139 1.356 . S
H2142 C2136 0.930 . S
H2143 C2140 0.930 . S
C2144 C2146 1.348 . S
C2144 C2147 1.356 . S
C2144 O2174 1.325 . S
N2145 C2148 1.314 . S
N2145 C2149 1.279 . S
C2146 C2144 1.348 . S
C2146 C2148 1.353 . S
C2146 H2188 0.929 . S
C2147 C2144 1.356 . S
C2147 C2149 1.358 . S
C2147 H2189 0.930 . S
C2148 N2145 1.314 . S
C2148 C2146 1.353 . S
C2148 H2190 0.930 . S
C2149 N2145 1.279 . S
C2149 C2147 1.358 . S
C2149 H2191 0.930 . S
C2150 C2151 1.348 . S
C2150 C2152 1.356 . S
C2150 O2175 1.325 . S
C2151 C2150 1.348 . S
C2151 C2153 1.353 . S
C2151 H2192 0.929 . S
C2152 C2150 1.356 . S
C2152 C2154 1.358 . S
C2152 H2193 0.930 . S
C2153 C2151 1.353 . S
C2153 N2155 1.314 . S
C2153 H2194 0.930 . S
C2154 C2152 1.358 . S
C2154 N2155 1.279 . S
C2154 H2195 0.930 . S
N2155 C2153 1.314 . S
N2155 C2154 1.279 . S
C2156 C2158 1.353 . S
C2156 N2159 1.314 . S
C2156 H2162 0.930 . S
C2157 N2159 1.279 . S
C2157 C2160 1.358 . S
C2157 H2163 0.930 . S
C2158 C2156 1.353 . S
C2158 C2161 1.348 . S
C2158 H2196 0.929 . S
N2159 Li2114 1.990 . S
N2159 C2156 1.314 . S
N2159 C2157 1.279 . S
C2160 C2157 1.358 . S
C2160 C2161 1.356 . S
C2160 H2197 0.930 . S
C2161 C2158 1.348 . S
C2161 C2160 1.356 . S
H2162 C2156 0.930 . S
H2163 C2157 0.930 . S
C2164 N2165 1.314 . S
C2164 C2166 1.353 . S
C2164 H2170 0.930 . S
N2165 Li2115 1.990 . S
N2165 C2164 1.314 . S
N2165 C2168 1.279 . S
C2166 C2164 1.353 . S
C2166 C2169 1.348 . S
C2166 H2198 0.929 . S
C2167 C2168 1.358 . S
C2167 C2169 1.356 . S
C2167 H2199 0.930 . S
C2168 N2165 1.279 . S
C2168 C2167 1.358 . S
C2168 H2171 0.930 . S
C2169 C2166 1.348 . S
C2169 C2167 1.356 . S
H2170 C2164 0.930 . S
H2171 C2168 0.930 . S
O2172 Li2112 1.956 . S
O2172 Li2113 1.970 . S
O2172 Li2114 1.961 . S
O2172 C2116 1.325 . S
O2173 Li2112 1.970 . S
O2173 Li2113 1.956 . S
O2173 Li2115 1.961 . S
O2173 C2122 1.325 . S
O2174 Li2112 1.961 . S
O2174 Li2114 1.956 . S
O2174 Li2115 1.970 . S
O2174 C2144 1.325 . S
O2175 Li2113 1.961 . S
O2175 Li2114 1.970 . S
O2175 Li2115 1.956 . S
O2175 C2150 1.325 . S
H2176 C2118 0.929 . S
H2177 C2119 0.930 . S
H2178 C2120 0.930 . S
H2179 C2121 0.930 . S
H2180 C2123 0.930 . S
H2181 C2125 0.929 . S
H2182 C2126 0.930 . S
H2183 C2127 0.930 . S
H2184 C2130 0.930 . S
H2185 C2133 0.929 . S
H2186 C2138 0.929 . S
H2187 C2139 0.930 . S
H2188 C2146 0.929 . S
H2189 C2147 0.930 . S
H2190 C2148 0.930 . S
H2191 C2149 0.930 . S
H2192 C2151 0.929 . S
H2193 C2152 0.930 . S
H2194 C2153 0.930 . S
H2195 C2154 0.930 . S
H2196 C2158 0.929 . S
H2197 C2160 0.930 . S
H2198 C2166 0.929 . S
H2199 C2167 0.930 . S
Li2200 N2217 1.990 . S
Li2200 O2260 1.956 1_556 S
Li2200 O2261 1.970 . S
Li2200 O2262 1.961 . S
Li2201 N2225 1.990 . S
Li2201 O2260 1.970 1_556 S
Li2201 O2261 1.956 . S
Li2201 O2263 1.961 . S
Li2202 N2247 1.990 . S
Li2202 O2260 1.961 . S
Li2202 O2262 1.956 1_554 S
Li2202 O2263 1.970 1_554 S
Li2203 N2253 1.990 . S
Li2203 O2261 1.961 . S
Li2203 O2262 1.970 . S
Li2203 O2263 1.956 . S
C2204 C2206 1.348 . S
C2204 C2207 1.356 . S
C2204 O2260 1.325 . S
N2205 C2208 1.314 . S
N2205 C2209 1.279 . S
C2206 C2204 1.348 . S
C2206 C2208 1.353 . S
C2206 H2264 0.929 . S
C2207 C2204 1.356 . S
C2207 C2209 1.358 . S
C2207 H2265 0.930 . S
C2208 N2205 1.314 . S
C2208 C2206 1.353 . S
C2208 H2266 0.930 . S
C2209 N2205 1.279 . S
C2209 C2207 1.358 . S
C2209 H2267 0.930 . S
C2210 C2213 1.348 . S
C2210 C2214 1.356 . S
C2210 O2261 1.325 . S
C2211 N2212 1.279 . S
C2211 C2214 1.358 . S
C2211 H2268 0.930 . S
N2212 C2211 1.279 . S
N2212 C2215 1.314 . S
C2213 C2210 1.348 . S
C2213 C2215 1.353 . S
C2213 H2269 0.929 . S
C2214 C2210 1.356 . S
C2214 C2211 1.358 . S
C2214 H2270 0.930 . S
C2215 N2212 1.314 . S
C2215 C2213 1.353 . S
C2215 H2271 0.930 . S
C2216 N2217 1.314 . S
C2216 C2221 1.353 . S
C2216 H2222 0.930 . S
N2217 Li2200 1.990 . S
N2217 C2216 1.314 . S
N2217 C2219 1.279 . S
C2218 C2219 1.358 . S
C2218 C2220 1.356 . S
C2218 H2272 0.930 . S
C2219 N2217 1.279 . S
C2219 C2218 1.358 . S
C2219 H2223 0.930 . S
C2220 C2218 1.356 . S
C2220 C2221 1.348 . S
C2221 C2216 1.353 . S
C2221 C2220 1.348 . S
C2221 H2273 0.929 . S
H2222 C2216 0.930 . S
H2223 C2219 0.930 . S
C2224 N2225 1.289 1_554 S
C2224 C2226 1.357 . S
C2224 H2230 0.954 . S
N2225 Li2201 1.990 . S
N2225 C2224 1.289 1_556 S
N2225 C2228 1.279 . S
C2226 C2224 1.357 . S
C2226 C2229 1.348 1_554 S
C2226 H2274 0.929 . S
C2227 C2228 1.358 . S
C2227 C2229 1.356 . S
C2227 H2275 0.930 . S
C2228 N2225 1.279 . S
C2228 C2227 1.358 . S
C2228 H2231 0.930 . S
C2229 C2226 1.348 1_556 S
C2229 C2227 1.356 . S
H2230 C2224 0.954 . S
H2231 C2228 0.930 . S
C2232 C2234 1.348 . S
C2232 C2235 1.356 . S
C2232 O2262 1.325 . S
N2233 C2236 1.314 . S
N2233 C2237 1.279 . S
C2234 C2232 1.348 . S
C2234 C2236 1.353 . S
C2234 H2276 0.929 . S
C2235 C2232 1.356 . S
C2235 C2237 1.358 . S
C2235 H2277 0.930 . S
C2236 N2233 1.314 . S
C2236 C2234 1.353 . S
C2236 H2278 0.930 . S
C2237 N2233 1.279 . S
C2237 C2235 1.358 . S
C2237 H2279 0.930 . S
C2238 C2239 1.348 1_556 S
C2238 C2240 1.356 . S
C2238 O2263 1.325 . S
C2239 C2238 1.348 1_554 S
C2239 C2241 1.353 . S
C2239 H2280 0.929 . S
C2240 C2238 1.356 . S
C2240 C2242 1.358 . S
C2240 H2281 0.930 . S
C2241 C2239 1.353 . S
C2241 N2243 1.314 . S
C2241 H2282 0.930 . S
C2242 C2240 1.358 . S
C2242 N2243 1.279 1_556 S
C2242 H2283 0.930 . S
N2243 C2241 1.314 . S
N2243 C2242 1.279 1_554 S
C2244 C2246 1.353 . S
C2244 N2247 1.314 . S
C2244 H2250 0.930 . S
C2245 N2247 1.279 . S
C2245 C2248 1.358 . S
C2245 H2251 0.930 . S
C2246 C2244 1.353 . S
C2246 C2249 1.348 . S
C2246 H2284 0.929 . S
N2247 Li2202 1.990 . S
N2247 C2244 1.314 . S
N2247 C2245 1.279 . S
C2248 C2245 1.358 . S
C2248 C2249 1.356 . S
C2248 H2285 0.930 . S
C2249 C2246 1.348 . S
C2249 C2248 1.356 . S
H2250 C2244 0.930 . S
H2251 C2245 0.930 . S
C2252 N2253 1.314 . S
C2252 C2254 1.353 . S
C2252 H2258 0.930 . S
N2253 Li2203 1.990 . S
N2253 C2252 1.314 . S
N2253 C2256 1.279 . S
C2254 C2252 1.353 . S
C2254 C2257 1.348 . S
C2254 H2286 0.929 . S
C2255 C2256 1.358 . S
C2255 C2257 1.356 . S
C2255 H2287 0.930 . S
C2256 N2253 1.279 . S
C2256 C2255 1.358 . S
C2256 H2259 0.930 . S
C2257 C2254 1.348 . S
C2257 C2255 1.356 . S
H2258 C2252 0.930 . S
H2259 C2256 0.930 . S
O2260 Li2200 1.956 1_554 S
O2260 Li2201 1.970 1_554 S
O2260 Li2202 1.961 . S
O2260 C2204 1.325 . S
O2261 Li2200 1.970 . S
O2261 Li2201 1.956 . S
O2261 Li2203 1.961 . S
O2261 C2210 1.325 . S
O2262 Li2200 1.961 . S
O2262 Li2202 1.956 1_556 S
O2262 Li2203 1.970 . S
O2262 C2232 1.325 . S
O2263 Li2201 1.961 . S
O2263 Li2202 1.970 1_556 S
O2263 Li2203 1.956 . S
O2263 C2238 1.325 . S
H2264 C2206 0.929 . S
H2265 C2207 0.930 . S
H2266 C2208 0.930 . S
H2267 C2209 0.930 . S
H2268 C2211 0.930 . S
H2269 C2213 0.929 . S
H2270 C2214 0.930 . S
H2271 C2215 0.930 . S
H2272 C2218 0.930 . S
H2273 C2221 0.929 . S
H2274 C2226 0.929 . S
H2275 C2227 0.930 . S
H2276 C2234 0.929 . S
H2277 C2235 0.930 . S
H2278 C2236 0.930 . S
H2279 C2237 0.930 . S
H2280 C2239 0.929 . S
H2281 C2240 0.930 . S
H2282 C2241 0.930 . S
H2283 C2242 0.930 . S
H2284 C2246 0.929 . S
H2285 C2248 0.930 . S
H2286 C2254 0.929 . S
H2287 C2255 0.930 . S
Li2288 N2305 1.990 . S
Li2288 O2348 1.956 . S
Li2288 O2349 1.970 . S
Li2288 O2350 1.961 . S
Li2289 N2313 1.990 . S
Li2289 O2348 1.970 . S
Li2289 O2349 1.956 . S
Li2289 O2351 1.961 . S
Li2290 N2335 1.990 . S
Li2290 O2348 1.961 . S
Li2290 O2350 1.956 . S
Li2290 O2351 1.970 . S
Li2291 N2341 1.990 . S
Li2291 O2349 1.961 . S
Li2291 O2350 1.970 . S
Li2291 O2351 1.956 . S
C2292 C2294 1.348 . S
C2292 C2295 1.356 . S
C2292 O2348 1.325 . S
N2293 C2296 1.314 . S
N2293 C2297 1.279 . S
C2294 C2292 1.348 . S
C2294 C2296 1.353 . S
C2294 H2352 0.929 . S
C2295 C2292 1.356 . S
C2295 C2297 1.358 . S
C2295 H2353 0.930 . S
C2296 N2293 1.314 . S
C2296 C2294 1.353 . S
C2296 H2354 0.930 . S
C2297 N2293 1.279 . S
C2297 C2295 1.358 . S
C2297 H2355 0.930 . S
C2298 C2301 1.348 . S
C2298 C2302 1.356 . S
C2298 O2349 1.325 . S
C2299 N2300 1.279 . S
C2299 C2302 1.358 . S
C2299 H2356 0.930 . S
N2300 C2299 1.279 . S
N2300 C2303 1.314 . S
C2301 C2298 1.348 . S
C2301 C2303 1.353 . S
C2301 H2357 0.929 . S
C2302 C2298 1.356 . S
C2302 C2299 1.358 . S
C2302 H2358 0.930 . S
C2303 N2300 1.314 . S
C2303 C2301 1.353 . S
C2303 H2359 0.930 . S
C2304 N2305 1.314 . S
C2304 C2309 1.353 . S
C2304 H2310 0.930 . S
N2305 Li2288 1.990 . S
N2305 C2304 1.314 . S
N2305 C2307 1.279 . S
C2306 C2307 1.358 . S
C2306 C2308 1.356 . S
C2306 H2360 0.930 . S
C2307 N2305 1.279 . S
C2307 C2306 1.358 . S
C2307 H2311 0.930 . S
C2308 C2306 1.356 . S
C2308 C2309 1.348 . S
C2309 C2304 1.353 . S
C2309 C2308 1.348 . S
C2309 H2361 0.929 . S
H2310 C2304 0.930 . S
H2311 C2307 0.930 . S
C2312 N2313 1.314 . S
C2312 C2314 1.353 . S
C2312 H2318 0.930 . S
N2313 Li2289 1.990 . S
N2313 C2312 1.314 . S
N2313 C2316 1.279 . S
C2314 C2312 1.353 . S
C2314 C2317 1.348 . S
C2314 H2362 0.929 . S
C2315 C2316 1.358 . S
C2315 C2317 1.356 . S
C2315 H2363 0.930 . S
C2316 N2313 1.279 . S
C2316 C2315 1.358 . S
C2316 H2319 0.930 . S
C2317 C2314 1.348 . S
C2317 C2315 1.356 . S
H2318 C2312 0.930 . S
H2319 C2316 0.930 . S
C2320 C2322 1.348 . S
C2320 C2323 1.356 . S
C2320 O2350 1.325 . S
N2321 C2324 1.314 . S
N2321 C2325 1.279 . S
C2322 C2320 1.348 . S
C2322 C2324 1.353 . S
C2322 H2364 0.929 . S
C2323 C2320 1.356 . S
C2323 C2325 1.358 . S
C2323 H2365 0.930 . S
C2324 N2321 1.314 . S
C2324 C2322 1.353 . S
C2324 H2366 0.930 . S
C2325 N2321 1.279 . S
C2325 C2323 1.358 . S
C2325 H2367 0.930 . S
C2326 C2327 1.348 . S
C2326 C2328 1.356 . S
C2326 O2351 1.325 . S
C2327 C2326 1.348 . S
C2327 C2329 1.353 . S
C2327 H2368 0.929 . S
C2328 C2326 1.356 . S
C2328 C2330 1.358 . S
C2328 H2369 0.930 . S
C2329 C2327 1.353 . S
C2329 N2331 1.314 . S
C2329 H2370 0.930 . S
C2330 C2328 1.358 . S
C2330 N2331 1.279 . S
C2330 H2371 0.930 . S
N2331 C2329 1.314 . S
N2331 C2330 1.279 . S
C2332 C2334 1.353 . S
C2332 N2335 1.314 . S
C2332 H2338 0.930 . S
C2333 N2335 1.279 . S
C2333 C2336 1.358 . S
C2333 H2339 0.930 . S
C2334 C2332 1.353 . S
C2334 C2337 1.348 . S
C2334 H2372 0.929 . S
N2335 Li2290 1.990 . S
N2335 C2332 1.314 . S
N2335 C2333 1.279 . S
C2336 C2333 1.358 . S
C2336 C2337 1.356 . S
C2336 H2373 0.930 . S
C2337 C2334 1.348 . S
C2337 C2336 1.356 . S
H2338 C2332 0.930 . S
H2339 C2333 0.930 . S
C2340 N2341 1.314 . S
C2340 C2342 1.353 . S
C2340 H2346 0.930 . S
N2341 Li2291 1.990 . S
N2341 C2340 1.314 . S
N2341 C2344 1.279 . S
C2342 C2340 1.353 . S
C2342 C2345 1.348 . S
C2342 H2374 0.929 . S
C2343 C2344 1.358 . S
C2343 C2345 1.356 . S
C2343 H2375 0.930 . S
C2344 N2341 1.279 . S
C2344 C2343 1.358 . S
C2344 H2347 0.930 . S
C2345 C2342 1.348 . S
C2345 C2343 1.356 . S
H2346 C2340 0.930 . S
H2347 C2344 0.930 . S
O2348 Li2288 1.956 . S
O2348 Li2289 1.970 . S
O2348 Li2290 1.961 . S
O2348 C2292 1.325 . S
O2349 Li2288 1.970 . S
O2349 Li2289 1.956 . S
O2349 Li2291 1.961 . S
O2349 C2298 1.325 . S
O2350 Li2288 1.961 . S
O2350 Li2290 1.956 . S
O2350 Li2291 1.970 . S
O2350 C2320 1.325 . S
O2351 Li2289 1.961 . S
O2351 Li2290 1.970 . S
O2351 Li2291 1.956 . S
O2351 C2326 1.325 . S
H2352 C2294 0.929 . S
H2353 C2295 0.930 . S
H2354 C2296 0.930 . S
H2355 C2297 0.930 . S
H2356 C2299 0.930 . S
H2357 C2301 0.929 . S
H2358 C2302 0.930 . S
H2359 C2303 0.930 . S
H2360 C2306 0.930 . S
H2361 C2309 0.929 . S
H2362 C2314 0.929 . S
H2363 C2315 0.930 . S
H2364 C2322 0.929 . S
H2365 C2323 0.930 . S
H2366 C2324 0.930 . S
H2367 C2325 0.930 . S
H2368 C2327 0.929 . S
H2369 C2328 0.930 . S
H2370 C2329 0.930 . S
H2371 C2330 0.930 . S
H2372 C2334 0.929 . S
H2373 C2336 0.930 . S
H2374 C2342 0.929 . S
H2375 C2343 0.930 . S
Li2376 N2393 1.990 . S
Li2376 O2436 1.956 . S
Li2376 O2437 1.970 . S
Li2376 O2438 1.961 . S
Li2377 N2401 1.990 . S
Li2377 O2436 1.970 . S
Li2377 O2437 1.956 . S
Li2377 O2439 1.961 1_655 S
Li2378 N2423 1.990 . S
Li2378 O2436 1.961 . S
Li2378 O2438 1.956 . S
Li2378 O2439 1.970 1_655 S
Li2379 N2429 1.990 . S
Li2379 O2437 1.961 1_455 S
Li2379 O2438 1.970 1_455 S
Li2379 O2439 1.956 . S
C2380 C2382 1.348 . S
C2380 C2383 1.356 . S
C2380 O2436 1.325 . S
N2381 C2384 1.314 . S
N2381 C2385 1.279 . S
C2382 C2380 1.348 . S
C2382 C2384 1.353 . S
C2382 H2440 0.929 . S
C2383 C2380 1.356 . S
C2383 C2385 1.358 . S
C2383 H2441 0.930 . S
C2384 N2381 1.314 . S
C2384 C2382 1.353 . S
C2384 H2442 0.930 . S
C2385 N2381 1.279 . S
C2385 C2383 1.358 . S
C2385 H2443 0.930 . S
C2386 C2389 1.348 . S
C2386 C2390 1.356 . S
C2386 O2437 1.325 . S
C2387 N2388 1.279 . S
C2387 C2390 1.358 . S
C2387 H2444 0.930 1_655 S
N2388 C2387 1.279 . S
N2388 C2391 1.314 . S
C2389 C2386 1.348 . S
C2389 C2391 1.353 . S
C2389 H2445 0.929 . S
C2390 C2386 1.356 . S
C2390 C2387 1.358 . S
C2390 H2446 0.930 1_655 S
C2391 N2388 1.314 . S
C2391 C2389 1.353 . S
C2391 H2447 0.930 . S
C2392 N2393 1.314 . S
C2392 C2397 1.353 . S
C2392 H2398 0.930 . S
N2393 Li2376 1.990 . S
N2393 C2392 1.314 . S
N2393 C2395 1.279 . S
C2394 C2395 1.358 . S
C2394 C2396 1.356 . S
C2394 H2448 0.930 . S
C2395 N2393 1.279 . S
C2395 C2394 1.358 . S
C2395 H2399 0.930 . S
C2396 C2394 1.356 . S
C2396 C2397 1.348 . S
C2397 C2392 1.353 . S
C2397 C2396 1.348 . S
C2397 H2449 0.929 . S
H2398 C2392 0.930 . S
H2399 C2395 0.930 . S
C2400 N2401 1.314 . S
C2400 C2402 1.353 . S
C2400 H2406 0.930 . S
N2401 Li2377 1.990 . S
N2401 C2400 1.314 . S
N2401 C2404 1.279 . S
C2402 C2400 1.353 . S
C2402 C2405 1.348 . S
C2402 H2450 0.929 . S
C2403 C2404 1.358 . S
C2403 C2405 1.356 . S
C2403 H2451 0.930 . S
C2404 N2401 1.279 . S
C2404 C2403 1.358 . S
C2404 H2407 0.930 . S
C2405 C2402 1.348 . S
C2405 C2403 1.356 . S
H2406 C2400 0.930 . S
H2407 C2404 0.930 . S
C2408 C2410 1.348 1_655 S
C2408 C2411 1.356 . S
C2408 O2438 1.325 . S
N2409 C2412 1.314 . S
N2409 C2413 1.279 1_455 S
C2410 C2408 1.348 1_455 S
C2410 C2412 1.353 . S
C2410 H2452 0.929 . S
C2411 C2408 1.356 . S
C2411 C2413 1.358 . S
C2411 H2453 0.930 . S
C2412 N2409 1.314 . S
C2412 C2410 1.353 . S
C2412 H2454 0.930 . S
C2413 N2409 1.279 1_655 S
C2413 C2411 1.358 . S
C2413 H2455 0.930 . S
C2414 C2415 1.348 . S
C2414 C2416 1.356 . S
C2414 O2439 1.325 . S
C2415 C2414 1.348 . S
C2415 C2417 1.353 . S
C2415 H2456 0.929 . S
C2416 C2414 1.356 . S
C2416 C2418 1.358 . S
C2416 H2457 0.930 . S
C2417 C2415 1.353 . S
C2417 N2419 1.314 . S
C2417 H2458 0.930 . S
C2418 C2416 1.358 . S
C2418 N2419 1.279 . S
C2418 H2459 0.930 . S
N2419 C2417 1.314 . S
N2419 C2418 1.279 . S
C2420 C2422 1.353 . S
C2420 N2423 1.314 . S
C2420 H2426 0.930 . S
C2421 N2423 1.279 . S
C2421 C2424 1.358 . S
C2421 H2427 0.934 . S
C2422 C2420 1.353 . S
C2422 C2425 1.348 . S
C2422 H2460 0.929 . S
N2423 Li2378 1.990 . S
N2423 C2420 1.314 . S
N2423 C2421 1.279 . S
C2424 C2421 1.358 . S
C2424 C2425 1.356 . S
C2424 H2461 0.930 1_655 S
C2425 C2422 1.348 . S
C2425 C2424 1.356 . S
H2426 C2420 0.930 . S
H2427 C2421 0.934 . S
C2428 N2429 1.314 . S
C2428 C2430 1.353 . S
C2428 H2434 0.930 . S
N2429 Li2379 1.990 . S
N2429 C2428 1.314 . S
N2429 C2432 1.279 . S
C2430 C2428 1.353 . S
C2430 C2433 1.348 . S
C2430 H2462 0.929 . S
C2431 C2432 1.358 . S
C2431 C2433 1.356 . S
C2431 H2463 0.930 . S
C2432 N2429 1.279 . S
C2432 C2431 1.358 . S
C2432 H2435 0.930 . S
C2433 C2430 1.348 . S
C2433 C2431 1.356 . S
H2434 C2428 0.930 . S
H2435 C2432 0.930 . S
O2436 Li2376 1.956 . S
O2436 Li2377 1.970 . S
O2436 Li2378 1.961 . S
O2436 C2380 1.325 . S
O2437 Li2376 1.970 . S
O2437 Li2377 1.956 . S
O2437 Li2379 1.961 1_655 S
O2437 C2386 1.325 . S
O2438 Li2376 1.961 . S
O2438 Li2378 1.956 . S
O2438 Li2379 1.970 1_655 S
O2438 C2408 1.325 . S
O2439 Li2377 1.961 1_455 S
O2439 Li2378 1.970 1_455 S
O2439 Li2379 1.956 . S
O2439 C2414 1.325 . S
H2440 C2382 0.929 . S
H2441 C2383 0.930 . S
H2442 C2384 0.930 . S
H2443 C2385 0.930 . S
H2444 C2387 0.930 1_455 S
H2445 C2389 0.929 . S
H2446 C2390 0.930 1_455 S
H2447 C2391 0.930 . S
H2448 C2394 0.930 . S
H2449 C2397 0.929 . S
H2450 C2402 0.929 . S
H2451 C2403 0.930 . S
H2452 C2410 0.929 . S
H2453 C2411 0.930 . S
H2454 C2412 0.930 . S
H2455 C2413 0.930 . S
H2456 C2415 0.929 . S
H2457 C2416 0.930 . S
H2458 C2417 0.930 . S
H2459 C2418 0.930 . S
H2460 C2422 0.929 . S
H2461 C2424 0.930 1_455 S
H2462 C2430 0.929 . S
H2463 C2431 0.930 . S
Li2464 N2481 1.990 . S
Li2464 O2524 1.956 . S
Li2464 O2525 1.970 . S
Li2464 O2526 1.961 . S
Li2465 N2489 1.990 . S
Li2465 O2524 1.970 . S
Li2465 O2525 1.956 . S
Li2465 O2527 1.961 . S
Li2466 N2511 1.990 . S
Li2466 O2524 1.961 . S
Li2466 O2526 1.956 . S
Li2466 O2527 1.970 . S
Li2467 N2517 1.990 . S
Li2467 O2525 1.961 . S
Li2467 O2526 1.970 . S
Li2467 O2527 1.956 . S
C2468 C2470 1.348 . S
C2468 C2471 1.356 . S
C2468 O2524 1.325 . S
N2469 C2472 1.314 . S
N2469 C2473 1.279 . S
C2470 C2468 1.348 . S
C2470 C2472 1.353 . S
C2470 H2528 0.929 . S
C2471 C2468 1.356 . S
C2471 C2473 1.358 . S
C2471 H2529 0.930 . S
C2472 N2469 1.314 . S
C2472 C2470 1.353 . S
C2472 H2530 0.930 . S
C2473 N2469 1.279 . S
C2473 C2471 1.358 . S
C2473 H2531 0.930 . S
C2474 C2477 1.348 . S
C2474 C2478 1.356 . S
C2474 O2525 1.325 . S
C2475 N2476 1.279 . S
C2475 C2478 1.358 . S
C2475 H2532 0.930 . S
N2476 C2475 1.279 . S
N2476 C2479 1.314 . S
C2477 C2474 1.348 . S
C2477 C2479 1.353 . S
C2477 H2533 0.929 . S
C2478 C2474 1.356 . S
C2478 C2475 1.358 . S
C2478 H2534 0.930 . S
C2479 N2476 1.314 . S
C2479 C2477 1.353 . S
C2479 H2535 0.930 . S
C2480 N2481 1.314 . S
C2480 C2485 1.353 . S
C2480 H2486 0.930 . S
N2481 Li2464 1.990 . S
N2481 C2480 1.314 . S
N2481 C2483 1.279 . S
C2482 C2483 1.358 . S
C2482 C2484 1.356 . S
C2482 H2536 0.930 . S
C2483 N2481 1.279 . S
C2483 C2482 1.358 . S
C2483 H2487 0.930 . S
C2484 C2482 1.356 . S
C2484 C2485 1.348 . S
C2485 C2480 1.353 . S
C2485 C2484 1.348 . S
C2485 H2537 0.929 . S
H2486 C2480 0.930 . S
H2487 C2483 0.930 . S
C2488 N2489 1.314 . S
C2488 C2490 1.353 . S
C2488 H2494 0.930 . S
N2489 Li2465 1.990 . S
N2489 C2488 1.314 . S
N2489 C2492 1.279 . S
C2490 C2488 1.353 . S
C2490 C2493 1.348 . S
C2490 H2538 0.929 . S
C2491 C2492 1.358 . S
C2491 C2493 1.356 . S
C2491 H2539 0.930 . S
C2492 N2489 1.279 . S
C2492 C2491 1.358 . S
C2492 H2495 0.930 . S
C2493 C2490 1.348 . S
C2493 C2491 1.356 . S
H2494 C2488 0.930 . S
H2495 C2492 0.930 . S
C2496 C2498 1.348 . S
C2496 C2499 1.356 . S
C2496 O2526 1.325 . S
N2497 C2500 1.314 . S
N2497 C2501 1.279 . S
C2498 C2496 1.348 . S
C2498 C2500 1.353 . S
C2498 H2540 0.929 . S
C2499 C2496 1.356 . S
C2499 C2501 1.358 . S
C2499 H2541 0.930 . S
C2500 N2497 1.314 . S
C2500 C2498 1.353 . S
C2500 H2542 0.930 . S
C2501 N2497 1.279 . S
C2501 C2499 1.358 . S
C2501 H2543 0.930 . S
C2502 C2503 1.348 . S
C2502 C2504 1.356 . S
C2502 O2527 1.325 . S
C2503 C2502 1.348 . S
C2503 C2505 1.353 . S
C2503 H2544 0.929 . S
C2504 C2502 1.356 . S
C2504 C2506 1.358 . S
C2504 H2545 0.930 . S
C2505 C2503 1.353 . S
C2505 N2507 1.314 . S
C2505 H2546 0.930 . S
C2506 C2504 1.358 . S
C2506 N2507 1.279 . S
C2506 H2547 0.930 . S
N2507 C2505 1.314 . S
N2507 C2506 1.279 . S
C2508 C2510 1.353 . S
C2508 N2511 1.314 . S
C2508 H2514 0.930 . S
C2509 N2511 1.279 . S
C2509 C2512 1.358 . S
C2509 H2515 0.930 . S
C2510 C2508 1.353 . S
C2510 C2513 1.348 . S
C2510 H2548 0.929 . S
N2511 Li2466 1.990 . S
N2511 C2508 1.314 . S
N2511 C2509 1.279 . S
C2512 C2509 1.358 . S
C2512 C2513 1.356 . S
C2512 H2549 0.930 . S
C2513 C2510 1.348 . S
C2513 C2512 1.356 . S
H2514 C2508 0.930 . S
H2515 C2509 0.930 . S
C2516 N2517 1.314 . S
C2516 C2518 1.353 . S
C2516 H2522 0.930 . S
N2517 Li2467 1.990 . S
N2517 C2516 1.314 . S
N2517 C2520 1.279 . S
C2518 C2516 1.353 . S
C2518 C2521 1.348 . S
C2518 H2550 0.929 . S
C2519 C2520 1.358 . S
C2519 C2521 1.356 . S
C2519 H2551 0.930 . S
C2520 N2517 1.279 . S
C2520 C2519 1.358 . S
C2520 H2523 0.930 . S
C2521 C2518 1.348 . S
C2521 C2519 1.356 . S
H2522 C2516 0.930 . S
H2523 C2520 0.930 . S
O2524 Li2464 1.956 . S
O2524 Li2465 1.970 . S
O2524 Li2466 1.961 . S
O2524 C2468 1.325 . S
O2525 Li2464 1.970 . S
O2525 Li2465 1.956 . S
O2525 Li2467 1.961 . S
O2525 C2474 1.325 . S
O2526 Li2464 1.961 . S
O2526 Li2466 1.956 . S
O2526 Li2467 1.970 . S
O2526 C2496 1.325 . S
O2527 Li2465 1.961 . S
O2527 Li2466 1.970 . S
O2527 Li2467 1.956 . S
O2527 C2502 1.325 . S
H2528 C2470 0.929 . S
H2529 C2471 0.930 . S
H2530 C2472 0.930 . S
H2531 C2473 0.930 . S
H2532 C2475 0.930 . S
H2533 C2477 0.929 . S
H2534 C2478 0.930 . S
H2535 C2479 0.930 . S
H2536 C2482 0.930 . S
H2537 C2485 0.929 . S
H2538 C2490 0.929 . S
H2539 C2491 0.930 . S
H2540 C2498 0.929 . S
H2541 C2499 0.930 . S
H2542 C2500 0.930 . S
H2543 C2501 0.930 . S
H2544 C2503 0.929 . S
H2545 C2504 0.930 . S
H2546 C2505 0.930 . S
H2547 C2506 0.930 . S
H2548 C2510 0.929 . S
H2549 C2512 0.930 . S
H2550 C2518 0.929 . S
H2551 C2519 0.930 . S
Li2552 N2569 1.990 . S
Li2552 O2612 1.956 1_554 S
Li2552 O2613 1.970 1_455 S
Li2552 O2614 1.961 1_455 S
Li2553 N2577 1.990 . S
Li2553 O2612 1.970 1_654 S
Li2553 O2613 1.956 . S
Li2553 O2615 1.961 . S
Li2554 N2599 1.990 . S
Li2554 O2612 1.961 1_655 S
Li2554 O2614 1.956 1_556 S
Li2554 O2615 1.970 1_556 S
Li2555 N2605 1.990 . S
Li2555 O2613 1.961 . S
Li2555 O2614 1.970 . S
Li2555 O2615 1.956 . S
C2556 C2558 1.348 . S
C2556 C2559 1.356 . S
C2556 O2612 1.325 . S
N2557 C2560 1.314 . S
N2557 C2561 1.279 . S
C2558 C2556 1.348 . S
C2558 C2560 1.353 . S
C2558 H2616 0.929 . S
C2559 C2556 1.356 . S
C2559 C2561 1.358 . S
C2559 H2617 0.930 . S
C2560 N2557 1.314 . S
C2560 C2558 1.353 . S
C2560 H2618 0.930 . S
C2561 N2557 1.279 . S
C2561 C2559 1.358 . S
C2561 H2619 0.930 . S
C2562 C2565 1.348 1_655 S
C2562 C2566 1.356 . S
C2562 O2613 1.325 . S
C2563 N2564 1.279 1_655 S
C2563 C2566 1.358 . S
C2563 H2620 0.930 . S
N2564 C2563 1.279 1_455 S
N2564 C2567 1.314 . S
C2565 C2562 1.348 1_455 S
C2565 C2567 1.353 . S
C2565 H2621 0.929 . S
C2566 C2562 1.356 . S
C2566 C2563 1.358 . S
C2566 H2622 0.930 . S
C2567 N2564 1.314 . S
C2567 C2565 1.353 . S
C2567 H2623 0.930 . S
C2568 N2569 1.314 . S
C2568 C2573 1.353 . S
C2568 H2574 0.930 . S
N2569 Li2552 1.990 . S
N2569 C2568 1.314 . S
N2569 C2571 1.279 . S
C2570 C2571 1.358 . S
C2570 C2572 1.356 . S
C2570 H2624 0.930 . S
C2571 N2569 1.279 . S
C2571 C2570 1.358 . S
C2571 H2575 0.930 . S
C2572 C2570 1.356 . S
C2572 C2573 1.348 . S
C2573 C2568 1.353 . S
C2573 C2572 1.348 . S
C2573 H2625 0.929 . S
H2574 C2568 0.930 . S
H2575 C2571 0.930 . S
C2576 N2577 1.289 1_556 S
C2576 C2578 1.358 . S
C2576 H2582 0.954 . S
N2577 Li2553 1.990 . S
N2577 C2576 1.289 1_554 S
N2577 C2580 1.279 . S
C2578 C2576 1.358 . S
C2578 C2581 1.348 1_556 S
C2578 H2626 0.929 . S
C2579 C2580 1.358 . S
C2579 C2581 1.356 . S
C2579 H2627 0.930 1_655 S
C2580 N2577 1.279 . S
C2580 C2579 1.358 . S
C2580 H2583 0.934 . S
C2581 C2578 1.348 1_554 S
C2581 C2579 1.356 . S
H2582 C2576 0.954 . S
H2583 C2580 0.934 . S
C2584 C2586 1.348 . S
C2584 C2587 1.356 . S
C2584 O2614 1.325 . S
N2585 C2588 1.314 . S
N2585 C2589 1.279 . S
C2586 C2584 1.348 . S
C2586 C2588 1.353 . S
C2586 H2628 0.929 . S
C2587 C2584 1.356 . S
C2587 C2589 1.358 . S
C2587 H2629 0.930 1_655 S
C2588 N2585 1.314 . S
C2588 C2586 1.353 . S
C2588 H2630 0.930 . S
C2589 N2585 1.279 . S
C2589 C2587 1.358 . S
C2589 H2631 0.930 1_655 S
C2590 C2591 1.348 1_554 S
C2590 C2592 1.356 . S
C2590 O2615 1.325 . S
C2591 C2590 1.348 1_556 S
C2591 C2593 1.353 . S
C2591 H2632 0.929 . S
C2592 C2590 1.356 . S
C2592 C2594 1.358 . S
C2592 H2633 0.930 . S
C2593 C2591 1.353 . S
C2593 N2595 1.314 . S
C2593 H2634 0.930 . S
C2594 C2592 1.358 . S
C2594 N2595 1.279 1_554 S
C2594 H2635 0.930 . S
N2595 C2593 1.314 . S
N2595 C2594 1.279 1_556 S
C2596 C2598 1.353 . S
C2596 N2599 1.314 . S
C2596 H2602 0.930 . S
C2597 N2599 1.279 . S
C2597 C2600 1.358 . S
C2597 H2603 0.930 . S
C2598 C2596 1.353 . S
C2598 C2601 1.348 . S
C2598 H2636 0.929 . S
N2599 Li2554 1.990 . S
N2599 C2596 1.314 . S
N2599 C2597 1.279 . S
C2600 C2597 1.358 . S
C2600 C2601 1.356 . S
C2600 H2637 0.930 . S
C2601 C2598 1.348 . S
C2601 C2600 1.356 . S
H2602 C2596 0.930 . S
H2603 C2597 0.930 . S
C2604 N2605 1.314 . S
C2604 C2606 1.353 . S
C2604 H2610 0.930 . S
N2605 Li2555 1.990 . S
N2605 C2604 1.314 . S
N2605 C2608 1.279 . S
C2606 C2604 1.353 . S
C2606 C2609 1.348 . S
C2606 H2638 0.929 . S
C2607 C2608 1.358 . S
C2607 C2609 1.356 . S
C2607 H2639 0.930 . S
C2608 N2605 1.279 . S
C2608 C2607 1.358 . S
C2608 H2611 0.930 . S
C2609 C2606 1.348 . S
C2609 C2607 1.356 . S
H2610 C2604 0.930 . S
H2611 C2608 0.930 . S
O2612 Li2552 1.956 1_556 S
O2612 Li2553 1.970 1_456 S
O2612 Li2554 1.961 1_455 S
O2612 C2556 1.325 . S
O2613 Li2552 1.970 1_655 S
O2613 Li2553 1.956 . S
O2613 Li2555 1.961 . S
O2613 C2562 1.325 . S
O2614 Li2552 1.961 1_655 S
O2614 Li2554 1.956 1_554 S
O2614 Li2555 1.970 . S
O2614 C2584 1.325 . S
O2615 Li2553 1.961 . S
O2615 Li2554 1.970 1_554 S
O2615 Li2555 1.956 . S
O2615 C2590 1.325 . S
H2616 C2558 0.929 . S
H2617 C2559 0.930 . S
H2618 C2560 0.930 . S
H2619 C2561 0.930 . S
H2620 C2563 0.930 . S
H2621 C2565 0.929 . S
H2622 C2566 0.930 . S
H2623 C2567 0.930 . S
H2624 C2570 0.930 . S
H2625 C2573 0.929 . S
H2626 C2578 0.929 . S
H2627 C2579 0.930 1_455 S
H2628 C2586 0.929 . S
H2629 C2587 0.930 1_455 S
H2630 C2588 0.930 . S
H2631 C2589 0.930 1_455 S
H2632 C2591 0.929 . S
H2633 C2592 0.930 . S
H2634 C2593 0.930 . S
H2635 C2594 0.930 . S
H2636 C2598 0.929 . S
H2637 C2600 0.930 . S
H2638 C2606 0.929 . S
H2639 C2607 0.930 . S
Li2640 N2657 1.990 . S
Li2640 O2700 1.956 . S
Li2640 O2701 1.970 . S
Li2640 O2702 1.961 . S
Li2641 N2665 1.990 . S
Li2641 O2700 1.970 . S
Li2641 O2701 1.956 . S
Li2641 O2703 1.961 . S
Li2642 N2687 1.990 . S
Li2642 O2700 1.961 . S
Li2642 O2702 1.956 . S
Li2642 O2703 1.970 . S
Li2643 N2693 1.990 . S
Li2643 O2701 1.961 . S
Li2643 O2702 1.970 . S
Li2643 O2703 1.956 . S
C2644 C2646 1.348 . S
C2644 C2647 1.356 . S
C2644 O2700 1.325 . S
N2645 C2648 1.314 . S
N2645 C2649 1.279 . S
C2646 C2644 1.348 . S
C2646 C2648 1.353 . S
C2646 H2704 0.929 . S
C2647 C2644 1.356 . S
C2647 C2649 1.358 . S
C2647 H2705 0.930 . S
C2648 N2645 1.314 . S
C2648 C2646 1.353 . S
C2648 H2706 0.930 . S
C2649 N2645 1.279 . S
C2649 C2647 1.358 . S
C2649 H2707 0.930 . S
C2650 C2653 1.348 . S
C2650 C2654 1.356 . S
C2650 O2701 1.325 . S
C2651 N2652 1.279 . S
C2651 C2654 1.358 . S
C2651 H2708 0.930 . S
N2652 C2651 1.279 . S
N2652 C2655 1.314 . S
C2653 C2650 1.348 . S
C2653 C2655 1.353 . S
C2653 H2709 0.929 . S
C2654 C2650 1.356 . S
C2654 C2651 1.358 . S
C2654 H2710 0.930 . S
C2655 N2652 1.314 . S
C2655 C2653 1.353 . S
C2655 H2711 0.930 . S
C2656 N2657 1.314 . S
C2656 C2661 1.353 . S
C2656 H2662 0.930 . S
N2657 Li2640 1.990 . S
N2657 C2656 1.314 . S
N2657 C2659 1.279 . S
C2658 C2659 1.358 . S
C2658 C2660 1.356 . S
C2658 H2712 0.930 . S
C2659 N2657 1.279 . S
C2659 C2658 1.358 . S
C2659 H2663 0.930 . S
C2660 C2658 1.356 . S
C2660 C2661 1.348 . S
C2661 C2656 1.353 . S
C2661 C2660 1.348 . S
C2661 H2713 0.929 . S
H2662 C2656 0.930 . S
H2663 C2659 0.930 . S
C2664 N2665 1.314 . S
C2664 C2666 1.353 . S
C2664 H2670 0.930 . S
N2665 Li2641 1.990 . S
N2665 C2664 1.314 . S
N2665 C2668 1.279 . S
C2666 C2664 1.353 . S
C2666 C2669 1.348 . S
C2666 H2714 0.929 . S
C2667 C2668 1.358 . S
C2667 C2669 1.356 . S
C2667 H2715 0.930 . S
C2668 N2665 1.279 . S
C2668 C2667 1.358 . S
C2668 H2671 0.930 . S
C2669 C2666 1.348 . S
C2669 C2667 1.356 . S
H2670 C2664 0.930 . S
H2671 C2668 0.930 . S
C2672 C2674 1.348 . S
C2672 C2675 1.356 . S
C2672 O2702 1.325 . S
N2673 C2676 1.314 . S
N2673 C2677 1.279 . S
C2674 C2672 1.348 . S
C2674 C2676 1.353 . S
C2674 H2716 0.929 . S
C2675 C2672 1.356 . S
C2675 C2677 1.358 . S
C2675 H2717 0.930 . S
C2676 N2673 1.314 . S
C2676 C2674 1.353 . S
C2676 H2718 0.930 . S
C2677 N2673 1.279 . S
C2677 C2675 1.358 . S
C2677 H2719 0.930 . S
C2678 C2679 1.348 . S
C2678 C2680 1.356 . S
C2678 O2703 1.325 . S
C2679 C2678 1.348 . S
C2679 C2681 1.353 . S
C2679 H2720 0.929 . S
C2680 C2678 1.356 . S
C2680 C2682 1.358 . S
C2680 H2721 0.930 . S
C2681 C2679 1.353 . S
C2681 N2683 1.314 . S
C2681 H2722 0.930 . S
C2682 C2680 1.358 . S
C2682 N2683 1.279 . S
C2682 H2723 0.930 . S
N2683 C2681 1.314 . S
N2683 C2682 1.279 . S
C2684 C2686 1.353 . S
C2684 N2687 1.314 . S
C2684 H2690 0.930 . S
C2685 N2687 1.279 . S
C2685 C2688 1.358 . S
C2685 H2691 0.930 . S
C2686 C2684 1.353 . S
C2686 C2689 1.348 . S
C2686 H2724 0.929 . S
N2687 Li2642 1.990 . S
N2687 C2684 1.314 . S
N2687 C2685 1.279 . S
C2688 C2685 1.358 . S
C2688 C2689 1.356 . S
C2688 H2725 0.930 . S
C2689 C2686 1.348 . S
C2689 C2688 1.356 . S
H2690 C2684 0.930 . S
H2691 C2685 0.930 . S
C2692 N2693 1.314 . S
C2692 C2694 1.353 . S
C2692 H2698 0.930 . S
N2693 Li2643 1.990 . S
N2693 C2692 1.314 . S
N2693 C2696 1.279 . S
C2694 C2692 1.353 . S
C2694 C2697 1.348 . S
C2694 H2726 0.929 . S
C2695 C2696 1.358 . S
C2695 C2697 1.356 . S
C2695 H2727 0.930 . S
C2696 N2693 1.279 . S
C2696 C2695 1.358 . S
C2696 H2699 0.930 . S
C2697 C2694 1.348 . S
C2697 C2695 1.356 . S
H2698 C2692 0.930 . S
H2699 C2696 0.930 . S
O2700 Li2640 1.956 . S
O2700 Li2641 1.970 . S
O2700 Li2642 1.961 . S
O2700 C2644 1.325 . S
O2701 Li2640 1.970 . S
O2701 Li2641 1.956 . S
O2701 Li2643 1.961 . S
O2701 C2650 1.325 . S
O2702 Li2640 1.961 . S
O2702 Li2642 1.956 . S
O2702 Li2643 1.970 . S
O2702 C2672 1.325 . S
O2703 Li2641 1.961 . S
O2703 Li2642 1.970 . S
O2703 Li2643 1.956 . S
O2703 C2678 1.325 . S
H2704 C2646 0.929 . S
H2705 C2647 0.930 . S
H2706 C2648 0.930 . S
H2707 C2649 0.930 . S
H2708 C2651 0.930 . S
H2709 C2653 0.929 . S
H2710 C2654 0.930 . S
H2711 C2655 0.930 . S
H2712 C2658 0.930 . S
H2713 C2661 0.929 . S
H2714 C2666 0.929 . S
H2715 C2667 0.930 . S
H2716 C2674 0.929 . S
H2717 C2675 0.930 . S
H2718 C2676 0.930 . S
H2719 C2677 0.930 . S
H2720 C2679 0.929 . S
H2721 C2680 0.930 . S
H2722 C2681 0.930 . S
H2723 C2682 0.930 . S
H2724 C2686 0.929 . S
H2725 C2688 0.930 . S
H2726 C2694 0.929 . S
H2727 C2695 0.930 . S
Li2728 N2745 1.990 . S
Li2728 O2788 1.956 . S
Li2728 O2789 1.970 . S
Li2728 O2790 1.961 . S
Li2729 N2753 1.990 . S
Li2729 O2788 1.970 . S
Li2729 O2789 1.956 . S
Li2729 O2791 1.961 . S
Li2730 N2775 1.990 . S
Li2730 O2788 1.961 . S
Li2730 O2790 1.956 . S
Li2730 O2791 1.970 . S
Li2731 N2781 1.990 . S
Li2731 O2789 1.961 . S
Li2731 O2790 1.970 . S
Li2731 O2791 1.956 . S
C2732 C2734 1.348 . S
C2732 C2735 1.356 . S
C2732 O2788 1.325 . S
N2733 C2736 1.314 . S
N2733 C2737 1.279 . S
C2734 C2732 1.348 . S
C2734 C2736 1.353 . S
C2734 H2792 0.929 . S
C2735 C2732 1.356 . S
C2735 C2737 1.358 . S
C2735 H2793 0.930 . S
C2736 N2733 1.314 . S
C2736 C2734 1.353 . S
C2736 H2794 0.930 . S
C2737 N2733 1.279 . S
C2737 C2735 1.358 . S
C2737 H2795 0.930 . S
C2738 C2741 1.348 . S
C2738 C2742 1.356 . S
C2738 O2789 1.325 . S
C2739 N2740 1.279 . S
C2739 C2742 1.358 . S
C2739 H2796 0.930 . S
N2740 C2739 1.279 . S
N2740 C2743 1.314 . S
C2741 C2738 1.348 . S
C2741 C2743 1.353 . S
C2741 H2797 0.929 . S
C2742 C2738 1.356 . S
C2742 C2739 1.358 . S
C2742 H2798 0.930 . S
C2743 N2740 1.314 . S
C2743 C2741 1.353 . S
C2743 H2799 0.930 . S
C2744 N2745 1.314 . S
C2744 C2749 1.353 . S
C2744 H2750 0.930 . S
N2745 Li2728 1.990 . S
N2745 C2744 1.314 . S
N2745 C2747 1.279 . S
C2746 C2747 1.358 . S
C2746 C2748 1.356 . S
C2746 H2800 0.930 . S
C2747 N2745 1.279 . S
C2747 C2746 1.358 . S
C2747 H2751 0.930 . S
C2748 C2746 1.356 . S
C2748 C2749 1.348 . S
C2749 C2744 1.353 . S
C2749 C2748 1.348 . S
C2749 H2801 0.929 . S
H2750 C2744 0.930 . S
H2751 C2747 0.930 . S
C2752 N2753 1.314 . S
C2752 C2754 1.353 . S
C2752 H2758 0.930 . S
N2753 Li2729 1.990 . S
N2753 C2752 1.314 . S
N2753 C2756 1.279 . S
C2754 C2752 1.353 . S
C2754 C2757 1.348 . S
C2754 H2802 0.929 . S
C2755 C2756 1.358 . S
C2755 C2757 1.356 . S
C2755 H2803 0.930 . S
C2756 N2753 1.279 . S
C2756 C2755 1.358 . S
C2756 H2759 0.930 . S
C2757 C2754 1.348 . S
C2757 C2755 1.356 . S
H2758 C2752 0.930 . S
H2759 C2756 0.930 . S
C2760 C2762 1.348 . S
C2760 C2763 1.356 . S
C2760 O2790 1.325 . S
N2761 C2764 1.314 . S
N2761 C2765 1.279 . S
C2762 C2760 1.348 . S
C2762 C2764 1.353 . S
C2762 H2804 0.929 . S
C2763 C2760 1.356 . S
C2763 C2765 1.358 . S
C2763 H2805 0.930 . S
C2764 N2761 1.314 . S
C2764 C2762 1.353 . S
C2764 H2806 0.930 . S
C2765 N2761 1.279 . S
C2765 C2763 1.358 . S
C2765 H2807 0.930 . S
C2766 C2767 1.348 . S
C2766 C2768 1.356 . S
C2766 O2791 1.325 . S
C2767 C2766 1.348 . S
C2767 C2769 1.353 . S
C2767 H2808 0.929 . S
C2768 C2766 1.356 . S
C2768 C2770 1.358 . S
C2768 H2809 0.930 . S
C2769 C2767 1.353 . S
C2769 N2771 1.314 . S
C2769 H2810 0.930 . S
C2770 C2768 1.358 . S
C2770 N2771 1.279 . S
C2770 H2811 0.930 . S
N2771 C2769 1.314 . S
N2771 C2770 1.279 . S
C2772 C2774 1.353 . S
C2772 N2775 1.314 . S
C2772 H2778 0.930 . S
C2773 N2775 1.279 . S
C2773 C2776 1.358 . S
C2773 H2779 0.930 . S
C2774 C2772 1.353 . S
C2774 C2777 1.348 . S
C2774 H2812 0.929 . S
N2775 Li2730 1.990 . S
N2775 C2772 1.314 . S
N2775 C2773 1.279 . S
C2776 C2773 1.358 . S
C2776 C2777 1.356 . S
C2776 H2813 0.930 . S
C2777 C2774 1.348 . S
C2777 C2776 1.356 . S
H2778 C2772 0.930 . S
H2779 C2773 0.930 . S
C2780 N2781 1.314 . S
C2780 C2782 1.353 . S
C2780 H2786 0.930 . S
N2781 Li2731 1.990 . S
N2781 C2780 1.314 . S
N2781 C2784 1.279 . S
C2782 C2780 1.353 . S
C2782 C2785 1.348 . S
C2782 H2814 0.929 . S
C2783 C2784 1.358 . S
C2783 C2785 1.356 . S
C2783 H2815 0.930 . S
C2784 N2781 1.279 . S
C2784 C2783 1.358 . S
C2784 H2787 0.930 . S
C2785 C2782 1.348 . S
C2785 C2783 1.356 . S
H2786 C2780 0.930 . S
H2787 C2784 0.930 . S
O2788 Li2728 1.956 . S
O2788 Li2729 1.970 . S
O2788 Li2730 1.961 . S
O2788 C2732 1.325 . S
O2789 Li2728 1.970 . S
O2789 Li2729 1.956 . S
O2789 Li2731 1.961 . S
O2789 C2738 1.325 . S
O2790 Li2728 1.961 . S
O2790 Li2730 1.956 . S
O2790 Li2731 1.970 . S
O2790 C2760 1.325 . S
O2791 Li2729 1.961 . S
O2791 Li2730 1.970 . S
O2791 Li2731 1.956 . S
O2791 C2766 1.325 . S
H2792 C2734 0.929 . S
H2793 C2735 0.930 . S
H2794 C2736 0.930 . S
H2795 C2737 0.930 . S
H2796 C2739 0.930 . S
H2797 C2741 0.929 . S
H2798 C2742 0.930 . S
H2799 C2743 0.930 . S
H2800 C2746 0.930 . S
H2801 C2749 0.929 . S
H2802 C2754 0.929 . S
H2803 C2755 0.930 . S
H2804 C2762 0.929 . S
H2805 C2763 0.930 . S
H2806 C2764 0.930 . S
H2807 C2765 0.930 . S
H2808 C2767 0.929 . S
H2809 C2768 0.930 . S
H2810 C2769 0.930 . S
H2811 C2770 0.930 . S
H2812 C2774 0.929 . S
H2813 C2776 0.930 . S
H2814 C2782 0.929 . S
H2815 C2783 0.930 . S
C812 C20 1.877 . S
C117 C2308 1.878 . S
C1025 C196 1.877 . S
C2132 C284 1.878 . S
C401 C1377 1.877 . S
C2521 C497 1.878 . S
C585 C1201 1.877 . S
C2689 C665 1.878 . S
C108 C724 1.865 . S
C849 C1613 1.866 . S
C293 C937 1.865 . S
C988 C1428 1.866 . S
C1076 C673 1.865 . S
C1809 C1164 1.866 . S
C1252 C489 1.865 . S
C1985 C1340 1.866 . S
C2257 C1437 1.877 . S
C900 C1516 1.878 . S
C1604 C2396 1.877 . S
C761 C1692 1.878 . S
C2785 C1817 1.877 . S
C1905 C1113 1.878 . S
C2609 C1993 1.877 . S
C1289 C2073 1.878 . S
C1525 C2169 1.865 . S
C2220 C205 1.866 . S
C2345 C1701 1.865 . S
C2433 C29 1.866 . S
C2081 C2484 1.865 . S
C2572 C409 1.866 . S
C2669 C1897 1.865 . S
C2748 C577 1.866 . S
C2161 C57 2.070 . S
C137 C841 2.071 1_665 S
C233 C2337 2.070 . S
C321 C997 2.072 1_544 S
C381 C2493 2.070 . S
C460 C1173 2.072 1_565 S
C2660 C548 2.070 . S
C645 C1349 2.071 1_646 S
C733 C1457 2.070 . S
C929 C1641 2.070 . S
C1780 C1085 2.070 . S
C1956 C1261 2.070 . S
C1553 C2229 2.072 1_554 S
C2425 C1729 2.071 1_655 S
C1868 C2581 2.071 1_456 S
C2757 C2053 2.072 . S
C1877 C49 3.211 . S
C1965 C145 3.211 . S
C225 C2044 3.211 . S
C1789 C313 3.211 . S
C1721 C372 3.211 . S
C1465 C469 3.211 . S
C557 C1545 3.211 . S
C1633 C636 3.211 . S
C2601 C753 3.191 . S
C2697 C821 3.192 . S
C2777 C909 3.191 . S
C1017 C2513 3.191 . S
C2405 C1105 3.191 . S
C2141 C1193 3.191 . S
C2249 C1281 3.191 . S
C2317 C1369 3.191 . S
