# Generated by pormake.
# Topology umw, (4)-cn, num edge types: 1
# Building blocks:
#     Node 0, Type 0, BuildingBlock: NAHDIM_clean_sbu_0, # of connection points: 4
#     Node 1, Type 0, BuildingBlock: NAHDIM_clean_sbu_0, # of connection points: 4
#     Node 2, Type 0, BuildingBlock: NAHDIM_clean_sbu_0, # of connection points: 4
#     Node 3, Type 0, BuildingBlock: NAHDIM_clean_sbu_0, # of connection points: 4
#     Node 4, Type 0, BuildingBlock: NAHDIM_clean_sbu_0, # of connection points: 4
#     Node 5, Type 0, BuildingBlock: NAHDIM_clean_sbu_0, # of connection points: 4
#     Node 6, Type 0, BuildingBlock: NAHDIM_clean_sbu_0, # of connection points: 4
#     Node 7, Type 0, BuildingBlock: NAHDIM_clean_sbu_0, # of connection points: 4
#     Edge 8, Type (0, 0), BuildingBlock: FUNLAD_clean_linker_0, # of connection points: 2
#     Edge 9, Type (0, 0), BuildingBlock: FUNLAD_clean_linker_0, # of connection points: 2
#     Edge 10, Type (0, 0), BuildingBlock: FUNLAD_clean_linker_0, # of connection points: 2
#     Edge 11, Type (0, 0), BuildingBlock: FUNLAD_clean_linker_0, # of connection points: 2
#     Edge 12, Type (0, 0), BuildingBlock: FUNLAD_clean_linker_0, # of connection points: 2
#     Edge 13, Type (0, 0), BuildingBlock: FUNLAD_clean_linker_0, # of connection points: 2
#     Edge 14, Type (0, 0), BuildingBlock: FUNLAD_clean_linker_0, # of connection points: 2
#     Edge 15, Type (0, 0), BuildingBlock: FUNLAD_clean_linker_0, # of connection points: 2
#     Edge 16, Type (0, 0), BuildingBlock: FUNLAD_clean_linker_0, # of connection points: 2
#     Edge 17, Type (0, 0), BuildingBlock: FUNLAD_clean_linker_0, # of connection points: 2
#     Edge 18, Type (0, 0), BuildingBlock: FUNLAD_clean_linker_0, # of connection points: 2
#     Edge 19, Type (0, 0), BuildingBlock: FUNLAD_clean_linker_0, # of connection points: 2
#     Edge 20, Type (0, 0), BuildingBlock: FUNLAD_clean_linker_0, # of connection points: 2
#     Edge 21, Type (0, 0), BuildingBlock: FUNLAD_clean_linker_0, # of connection points: 2
#     Edge 22, Type (0, 0), BuildingBlock: FUNLAD_clean_linker_0, # of connection points: 2
#     Edge 23, Type (0, 0), BuildingBlock: FUNLAD_clean_linker_0, # of connection points: 2
# Relax obj value: 0.145
# Max RMSD: 0.106
# Mean RMSD: 0.106
data_MOF--net-umw--node1-NAHDIM_clean_sbu_0--edge1-FUNLAD_clean_linker_0
_symmetry_space_group_name_H-M    P1
_symmetry_Int_Tables_number       1
_symmetry_cell_setting            triclinic
loop_
_symmetry_equiv_pos_as_xyz
'x, y, z'
_cell_length_a     51.065368
_cell_length_b     50.996477
_cell_length_c     27.291646
_cell_angle_alpha  90.019828
_cell_angle_beta   90.034714
_cell_angle_gamma 89.97854
loop_
_atom_site_label
_atom_site_type_symbol
_atom_site_fract_x
_atom_site_fract_y
_atom_site_fract_z
_atom_type_partial_charge
C0 C 0.36067 0.21312 0.28852 0.0
O1 O 0.38531 0.2205 0.29028 0.0
O2 O 0.4077 0.17869 0.20519 0.0
Zn3 Zn 0.38612 0.16633 0.26279 0.0
O4 O 0.40735 0.16693 0.32481 0.0
C5 C 0.38803 0.11369 0.22607 0.0
O6 O 0.40799 0.12332 0.20165 0.0
O7 O 0.35535 0.18993 0.27474 0.0
C8 C 0.42725 0.15241 0.33157 0.0
O9 O 0.43518 0.13692 0.29609 0.0
C10 C 0.42879 0.19167 0.21032 0.0
O11 O 0.43647 0.1984 0.2545 0.0
O12 O 0.37459 0.1289 0.25307 0.0
C13 C 0.77332 0.35551 0.50763 0.0
O14 O 0.76501 0.37798 0.49 0.0
O15 O 0.81566 0.40401 0.44702 0.0
Zn16 Zn 0.82359 0.38142 0.50606 0.0
O17 O 0.82229 0.40286 0.56756 0.0
C18 C 0.87643 0.37371 0.46977 0.0
O19 O 0.86933 0.39096 0.43657 0.0
O20 O 0.79767 0.35222 0.51486 0.0
C21 C 0.83617 0.42327 0.57347 0.0
O22 O 0.85129 0.4313 0.53755 0.0
C23 C 0.80104 0.42417 0.44925 0.0
O24 O 0.78977 0.43026 0.49099 0.0
O25 O 0.85994 0.3664 0.50181 0.0
C26 C 0.63771 0.78299 0.76472 0.0
O27 O 0.63077 0.78009 0.71868 0.0
O28 O 0.58143 0.81273 0.7046 0.0
Zn29 Zn 0.59603 0.82261 0.77048 0.0
O30 O 0.56815 0.81728 0.82135 0.0
C31 C 0.59571 0.87658 0.7408 0.0
O32 O 0.57961 0.86725 0.70752 0.0
O33 O 0.62625 0.80005 0.79097 0.0
C34 C 0.54952 0.83345 0.82748 0.0
O35 O 0.54776 0.854 0.79866 0.0
C36 C 0.5691 0.79151 0.69674 0.0
O37 O 0.56702 0.77418 0.73215 0.0
O38 O 0.60616 0.86086 0.77122 0.0
C39 C 0.21291 0.61822 0.05739 0.0
O40 O 0.21705 0.59341 0.06779 0.0
O41 O 0.16826 0.58104 0.95336 0.0
Zn42 Zn 0.16494 0.59714 0.02037 0.0
O43 O 0.16813 0.56868 0.07065 0.0
C44 C 0.11453 0.62074 0.99513 0.0
O45 O 0.12287 0.61945 0.94966 0.0
O46 O 0.19217 0.62461 0.03452 0.0
C47 C 0.14922 0.55309 0.07861 0.0
O48 O 0.1278 0.55521 0.05221 0.0
C49 C 0.19015 0.57534 0.93398 0.0
O50 O 0.21188 0.58122 0.95731 0.0
O51 O 0.1293 0.61291 0.02957 0.0
C52 C 0.35668 0.77369 0.27502 0.0
O53 O 0.37905 0.76627 0.29432 0.0
O54 O 0.40274 0.81635 0.33821 0.0
Zn55 Zn 0.38146 0.82422 0.27764 0.0
O56 O 0.40456 0.82297 0.21814 0.0
C57 C 0.37779 0.87789 0.3084 0.0
O58 O 0.39739 0.87061 0.33647 0.0
O59 O 0.35277 0.7979 0.26683 0.0
C60 C 0.4223 0.84004 0.2113 0.0
O61 O 0.42621 0.85816 0.24472 0.0
C62 C 0.42365 0.80282 0.33719 0.0
O63 O 0.43128 0.79224 0.29568 0.0
O64 O 0.36673 0.86092 0.28126 0.0
C65 C 0.20895 0.36205 0.50334 0.0
O66 O 0.2136 0.38733 0.50655 0.0
O67 O 0.16363 0.40237 0.58212 0.0
Zn68 Zn 0.15739 0.38016 0.52194 0.0
O69 O 0.15655 0.40297 0.46221 0.0
C70 C 0.10735 0.36353 0.56235 0.0
O71 O 0.11555 0.37542 0.60222 0.0
O72 O 0.18589 0.35373 0.51114 0.0
C73 C 0.13714 0.41779 0.45331 0.0
O74 O 0.11766 0.41875 0.48468 0.0
C75 C 0.17426 0.42487 0.5795 0.0
O76 O 0.18232 0.43356 0.53679 0.0
O77 O 0.12233 0.36238 0.52527 0.0
C78 C 0.62488 0.21086 0.73825 0.0
O79 O 0.59997 0.21576 0.7305 0.0
O80 O 0.58079 0.17854 0.83618 0.0
Zn81 Zn 0.60167 0.16569 0.77811 0.0
O82 O 0.57923 0.16331 0.71767 0.0
C83 C 0.60064 0.11349 0.81459 0.0
O84 O 0.57849 0.12217 0.83291 0.0
O85 O 0.63118 0.19014 0.76131 0.0
C86 C 0.55645 0.15339 0.71529 0.0
O87 O 0.54544 0.14415 0.75519 0.0
C88 C 0.56087 0.19338 0.83234 0.0
O89 O 0.5539 0.20199 0.7889 0.0
O90 O 0.61518 0.12925 0.79093 0.0
C91 C 0.78069 0.62626 0.98252 0.0
O92 O 0.7767 0.60197 0.9683 0.0
O93 O 0.8264 0.58308 0.07483 0.0
Zn94 Zn 0.82927 0.60387 0.01225 0.0
O95 O 0.82652 0.58011 0.95393 0.0
C96 C 0.8784 0.6275 0.04433 0.0
O97 O 0.86892 0.62454 0.08873 0.0
O98 O 0.8017 0.63181 0.0053 0.0
C99 C 0.83658 0.55738 0.95178 0.0
O100 O 0.8489 0.54796 0.99021 0.0
C101 C 0.80625 0.56986 0.08648 0.0
O102 O 0.78568 0.57025 0.05758 0.0
O103 O 0.86474 0.62048 0.00772 0.0
C104 C 0.46367 0.13771 0.38662 0.0
C105 C 0.44078 0.15251 0.37946 0.0
C106 C 0.47613 0.13747 0.43222 0.0
C107 C 0.46594 0.1521 0.47159 0.0
C108 C 0.44292 0.16662 0.46454 0.0
C109 C 0.43055 0.16699 0.41891 0.0
C110 C 0.47841 0.15215 0.52071 0.0
C111 C 0.50429 0.14869 0.52735 0.0
C112 C 0.51699 0.14985 0.57619 0.0
C113 C 0.54324 0.15775 0.57912 0.0
C114 C 0.55594 0.1591 0.62433 0.0
C115 C 0.54275 0.15216 0.66763 0.0
H116 H 0.48376 0.13577 0.61841 0.0
C117 C 0.51657 0.14383 0.66471 0.0
C118 C 0.50379 0.14269 0.61943 0.0
H119 H 0.50594 0.13818 0.69737 0.0
H120 H 0.47192 0.12617 0.35708 0.0
H121 H 0.49342 0.12542 0.43665 0.0
H122 H 0.43455 0.17788 0.49436 0.0
H123 H 0.41285 0.17848 0.41473 0.0
H124 H 0.46607 0.15685 0.55191 0.0
H125 H 0.51701 0.14664 0.49568 0.0
H126 H 0.55391 0.16316 0.54633 0.0
H127 H 0.57617 0.16545 0.62522 0.0
C128 C 0.84867 0.4614 0.62645 0.0
C129 C 0.83585 0.43722 0.62096 0.0
C130 C 0.84864 0.4743 0.67166 0.0
C131 C 0.8358 0.46321 0.71229 0.0
C132 C 0.8233 0.4389 0.70691 0.0
C133 C 0.82312 0.42613 0.66166 0.0
C134 C 0.83571 0.47608 0.76103 0.0
C135 C 0.83644 0.50229 0.76656 0.0
C136 C 0.83581 0.5154 0.81507 0.0
C137 C 0.82563 0.54088 0.81816 0.0
C138 C 0.82538 0.55424 0.86278 0.0
C139 C 0.83571 0.54254 0.90525 0.0
H140 H 0.85465 0.48418 0.85633 0.0
C141 C 0.84594 0.51701 0.90224 0.0
C142 C 0.846 0.50355 0.85758 0.0
H143 H 0.85419 0.50752 0.93423 0.0
H144 H 0.85881 0.47036 0.5959 0.0
H145 H 0.85912 0.49267 0.67482 0.0
H146 H 0.81347 0.42984 0.73774 0.0
H147 H 0.81322 0.40741 0.65876 0.0
H148 H 0.83341 0.46361 0.793 0.0
H149 H 0.83605 0.51478 0.73433 0.0
H150 H 0.81781 0.55051 0.78592 0.0
H151 H 0.81743 0.57393 0.86373 0.0
C152 C 0.43349 0.82073 0.12958 0.0
C153 C 0.43735 0.84034 0.16507 0.0
C154 C 0.44693 0.8216 0.08504 0.0
C155 C 0.4646 0.84209 0.07517 0.0
C156 C 0.46838 0.86168 0.1106 0.0
C157 C 0.45503 0.86076 0.1552 0.0
C158 C 0.47876 0.84419 0.02787 0.0
C159 C 0.48442 0.8234 -0.00063 0.0
C160 C 0.49977 0.82583 0.9535 0.0
C161 C 0.51604 0.80504 0.93916 0.0
C162 C 0.53185 0.80729 0.89764 0.0
C163 C 0.53136 0.83026 0.86919 0.0
H164 H 0.48553 0.86448 0.93312 0.0
C165 C 0.51418 0.8506 0.88228 0.0
C166 C 0.49853 0.84843 0.92404 0.0
H167 H 0.51317 0.86845 0.86087 0.0
H168 H 0.41984 0.80484 0.1359 0.0
H169 H 0.4429 0.80654 0.05814 0.0
H170 H 0.48176 0.87776 0.1038 0.0
H171 H 0.45835 0.87624 0.18165 0.0
H172 H 0.48609 0.86344 0.01772 0.0
H173 H 0.47952 0.80376 0.01166 0.0
H174 H 0.51707 0.7873 0.96091 0.0
H175 H 0.54471 0.79116 0.88826 0.0
C176 C 0.15638 0.43066 0.37259 0.0
C177 C 0.13628 0.43315 0.40743 0.0
C178 C 0.15547 0.44478 0.32883 0.0
C179 C 0.13454 0.46198 0.31915 0.0
C180 C 0.1143 0.4642 0.35372 0.0
C181 C 0.11518 0.45001 0.39749 0.0
C182 C 0.13287 0.47748 0.27318 0.0
C183 C 0.15397 0.48397 0.24616 0.0
C184 C 0.15245 0.50064 0.2017 0.0
C185 C 0.17452 0.5153 0.18812 0.0
C186 C 0.17363 0.53199 0.14763 0.0
C187 C 0.15067 0.53415 0.11949 0.0
H188 H 0.11263 0.49041 0.18081 0.0
C189 C 0.12886 0.51876 0.13195 0.0
C190 C 0.12973 0.50211 0.17258 0.0
H191 H 0.11097 0.51978 0.1107 0.0
H192 H 0.17276 0.41758 0.37885 0.0
H193 H 0.17101 0.44175 0.30252 0.0
H194 H 0.09783 0.47712 0.34703 0.0
H195 H 0.0993 0.45226 0.42345 0.0
H196 H 0.11375 0.4851 0.26311 0.0
H197 H 0.17339 0.47853 0.25872 0.0
H198 H 0.19237 0.51428 0.20955 0.0
H199 H 0.19086 0.54344 0.13882 0.0
C200 C 0.34631 0.25582 0.32444 0.0
C201 C 0.33997 0.23051 0.30797 0.0
C202 C 0.32748 0.27143 0.34731 0.0
C203 C 0.3019 0.26195 0.35459 0.0
C204 C 0.29526 0.23714 0.33608 0.0
C205 C 0.31411 0.2215 0.31315 0.0
C206 C 0.28165 0.27745 0.38081 0.0
C207 C 0.28746 0.29586 0.41455 0.0
C208 C 0.26729 0.31176 0.43997 0.0
C209 C 0.27388 0.3371 0.45576 0.0
C210 C 0.25511 0.3532 0.47765 0.0
C211 C 0.22943 0.34412 0.48486 0.0
H212 H 0.23636 0.28248 0.43895 0.0
C213 C 0.22315 0.31829 0.47121 0.0
C214 C 0.24188 0.30226 0.44895 0.0
H215 H 0.20359 0.31063 0.47663 0.0
H216 H 0.36596 0.2635 0.32038 0.0
H217 H 0.33313 0.29089 0.35904 0.0
H218 H 0.27559 0.22954 0.3405 0.0
H219 H 0.30856 0.20213 0.30062 0.0
H220 H 0.26132 0.27311 0.37242 0.0
H221 H 0.30775 0.30023 0.42307 0.0
H222 H 0.29342 0.34475 0.44989 0.0
H223 H 0.26063 0.37294 0.48807 0.0
C224 C 0.76308 0.31374 0.55181 0.0
C225 C 0.75438 0.33577 0.52544 0.0
C226 C 0.74512 0.29679 0.57384 0.0
C227 C 0.71807 0.30158 0.56998 0.0
C228 C 0.7094 0.32273 0.54134 0.0
C229 C 0.72735 0.33976 0.51951 0.0
C230 C 0.69832 0.28527 0.59564 0.0
C231 C 0.70329 0.2723 0.63767 0.0
C232 C 0.68295 0.2574 0.66474 0.0
C233 C 0.69056 0.23626 0.69446 0.0
C234 C 0.67181 0.22143 0.71947 0.0
C235 C 0.64508 0.22769 0.71561 0.0
H236 H 0.64973 0.28108 0.64165 0.0
C237 C 0.63759 0.24951 0.68747 0.0
C238 C 0.65629 0.26425 0.66242 0.0
H239 H 0.61719 0.25507 0.68418 0.0
H240 H 0.78379 0.30993 0.5566 0.0
H241 H 0.75257 0.28011 0.59397 0.0
H242 H 0.68865 0.32663 0.53718 0.0
H243 H 0.72 0.35642 0.49909 0.0
H244 H 0.67871 0.28501 0.58027 0.0
H245 H 0.72289 0.27237 0.65307 0.0
H246 H 0.71101 0.23084 0.6975 0.0
H247 H 0.67823 0.20481 0.74106 0.0
C248 C 0.74114 0.64122 0.93645 0.0
C249 C 0.76281 0.6473 0.9661 0.0
C250 C 0.72587 0.66114 0.91611 0.0
C251 C 0.73203 0.68762 0.92485 0.0
C252 C 0.75282 0.69368 0.95652 0.0
C253 C 0.76819 0.67373 0.97677 0.0
C254 C 0.71694 0.70924 0.90188 0.0
C255 C 0.70527 0.7068 0.85778 0.0
C256 C 0.68954 0.72782 0.83417 0.0
C257 C 0.68424 0.72602 0.78375 0.0
C258 C 0.66806 0.74438 0.76067 0.0
C259 C 0.65672 0.76488 0.78769 0.0
H260 H 0.68143 0.75047 0.9001 0.0
C261 C 0.66242 0.767 0.83795 0.0
C262 C 0.67852 0.74864 0.86101 0.0
H263 H 0.65388 0.78246 0.85997 0.0
H264 H 0.73625 0.62106 0.92798 0.0
H265 H 0.70932 0.65569 0.89352 0.0
H266 H 0.75768 0.71392 0.9645 0.0
H267 H 0.78465 0.67906 -0.00026 0.0
H268 H 0.71677 0.72795 0.9208 0.0
H269 H 0.70781 0.68875 0.83718 0.0
H270 H 0.69234 0.71013 0.7622 0.0
H271 H 0.66401 0.74215 0.72194 0.0
C272 C 0.25199 0.63157 0.10661 0.0
C273 C 0.23058 0.63863 0.07705 0.0
C274 C 0.2673 0.6508 0.12911 0.0
C275 C 0.26143 0.67754 0.12267 0.0
C276 C 0.24077 0.68459 0.0914 0.0
C277 C 0.22539 0.66535 0.06899 0.0
C278 C 0.27664 0.69854 0.14734 0.0
C279 C 0.28916 0.695 0.19033 0.0
C280 C 0.30499 0.71572 0.21437 0.0
C281 C 0.32588 0.70822 0.24471 0.0
C282 C 0.34222 0.72708 0.26573 0.0
C283 C 0.33778 0.7539 0.2573 0.0
H284 H 0.28327 0.74917 0.18618 0.0
C285 C 0.31606 0.76147 0.22897 0.0
C286 C 0.2998 0.74259 0.20773 0.0
H287 H 0.31193 0.78198 0.22218 0.0
H288 H 0.25671 0.61116 0.11313 0.0
H289 H 0.28372 0.64455 0.15127 0.0
H290 H 0.2361 0.70505 0.08522 0.0
H291 H 0.20913 0.67145 0.04618 0.0
H292 H 0.27709 0.71758 0.12959 0.0
H293 H 0.28865 0.67596 0.2081 0.0
H294 H 0.33006 0.68766 0.25101 0.0
H295 H 0.35866 0.7206 0.2877 0.0
C296 C 0.3886 0.92502 0.32213 0.0
C297 C 0.37154 0.90604 0.3028 0.0
C298 C 0.3848 0.95154 0.31194 0.0
C299 C 0.36372 0.95968 0.28251 0.0
C300 C 0.34574 0.94096 0.26562 0.0
C301 C 0.34976 0.91429 0.27521 0.0
C302 C 0.36073 0.98758 0.26848 0.0
C303 C 0.38167 0.0021 0.25591 0.0
C304 C 0.38056 0.03035 0.24339 0.0
C305 C 0.40082 0.041 0.21498 0.0
C306 C 0.40241 0.06798 0.20716 0.0
C307 C 0.38396 0.085 0.22831 0.0
H308 H 0.34572 0.03975 0.28556 0.0
C309 C 0.36307 0.0743 0.25527 0.0
C310 C 0.36135 0.0472 0.26272 0.0
H311 H 0.34856 0.0869 0.27211 0.0
H312 H 0.40547 0.91939 0.34379 0.0
H313 H 0.39856 0.96567 0.32664 0.0
H314 H 0.32917 0.94687 0.24339 0.0
H315 H 0.33617 0.90012 0.26012 0.0
H316 H 0.34111 -0.0043 0.26596 0.0
H317 H 0.40076 0.99268 0.25392 0.0
H318 H 0.41589 0.02844 0.19978 0.0
H319 H 0.41875 0.07554 0.18621 0.0
C320 C 0.91221 0.34847 0.51136 0.0
C321 C 0.90396 0.36486 0.47288 0.0
C322 C 0.93868 0.3422 0.51708 0.0
C323 C 0.95746 0.35231 0.48447 0.0
C324 C 0.94902 0.36749 0.44458 0.0
C325 C 0.92258 0.37382 0.43893 0.0
C326 C 0.98602 0.34833 0.49163 0.0
C327 C -0.00296 0.34456 0.53598 0.0
C328 C 0.02578 0.34582 0.54399 0.0
C329 C 0.0352 0.3549 0.58925 0.0
C330 C 0.06192 0.35955 0.59613 0.0
C331 C 0.07977 0.35499 0.55791 0.0
H332 H 0.03743 0.33147 0.47223 0.0
C333 C 0.07055 0.34413 0.51379 0.0
C334 C 0.04384 0.33951 0.50692 0.0
H335 H 0.08384 0.33997 0.48386 0.0
H336 H 0.89831 0.34095 0.53781 0.0
H337 H 0.9443 0.32966 0.54727 0.0
H338 H 0.96303 0.37529 0.41859 0.0
H339 H 0.91686 0.38628 0.40862 0.0
H340 H -0.00152 0.35168 0.46002 0.0
H341 H 0.98472 0.34373 0.56835 0.0
H342 H 0.02174 0.35957 0.61867 0.0
H343 H 0.06841 0.36767 0.63075 0.0
C344 C 0.61626 0.91565 0.78149 0.0
C345 C 0.5987 0.90523 0.74686 0.0
C346 C 0.61706 0.94267 0.79039 0.0
C347 C 0.6002 0.9597 0.76492 0.0
C348 C 0.58314 0.94931 0.72961 0.0
C349 C 0.58254 0.92243 0.72034 0.0
C350 C 0.5983 0.988 0.77664 0.0
C351 C 0.61812 0.00239 0.79488 0.0
C352 C 0.61472 0.03072 0.80506 0.0
C353 C 0.63464 0.04845 0.79272 0.0
C354 C 0.63052 0.07547 0.79734 0.0
C355 C 0.60657 0.08512 0.81533 0.0
H356 H 0.57592 0.02701 0.83663 0.0
C357 C 0.58734 0.06721 0.83066 0.0
C358 C 0.59134 0.0403 0.82544 0.0
H359 H 0.56876 0.07395 0.84509 0.0
H360 H 0.62891 0.90288 0.80262 0.0
H361 H 0.6301 0.94995 0.81855 0.0
H362 H 0.5699 0.96202 0.70961 0.0
H363 H 0.56874 0.91508 0.69349 0.0
H364 H 0.57987 -0.00232 0.768 0.0
H365 H 0.63749 0.99386 0.79901 0.0
H366 H 0.65295 0.04144 0.7775 0.0
H367 H 0.6458 0.08879 0.78561 0.0
C368 C 0.92253 0.64039 0.07667 0.0
C369 C 0.90562 0.63652 0.03671 0.0
C370 C 0.94899 0.6461 0.06895 0.0
C371 C 0.95903 0.64794 0.02102 0.0
C372 C 0.94176 0.64569 0.98128 0.0
C373 C 0.91537 0.6399 0.98897 0.0
C374 C 0.98744 0.6508 0.01073 0.0
C375 C 0.00606 0.64127 0.04085 0.0
C376 C 0.03427 0.63934 0.02787 0.0
C377 C 0.05235 0.63474 0.06563 0.0
C378 C 0.07858 0.62965 0.05504 0.0
C379 C 0.08737 0.62887 0.00626 0.0
H380 H 0.02996 0.64217 0.94858 0.0
C381 C 0.06953 0.63432 0.96842 0.0
C382 C 0.04322 0.63941 0.97901 0.0
H383 H 0.07567 0.63377 0.93044 0.0
H384 H 0.91553 0.6383 0.11392 0.0
H385 H 0.96149 0.64872 0.1006 0.0
H386 H 0.9489 0.64733 0.94402 0.0
H387 H 0.9028 0.63737 0.95734 0.0
H388 H 0.99286 0.65889 0.97542 0.0
H389 H 0.00041 0.63307 0.076 0.0
H390 H 0.04603 0.63444 0.10353 0.0
H391 H 0.09182 0.62561 0.08514 0.0
C392 C 0.55175 0.18952 0.92219 0.0
C393 C 0.54434 0.19878 0.87571 0.0
C394 C 0.53517 0.19268 0.96246 0.0
C395 C 0.51081 0.2053 0.95717 0.0
C396 C 0.50363 0.21494 0.9109 0.0
C397 C 0.52027 0.21188 0.87064 0.0
C398 C 0.49161 0.20677 0.99799 0.0
C399 C 0.49852 0.20589 0.0456 0.0
C400 C 0.4793 0.20428 0.08635 0.0
C401 C 0.4871 0.21203 0.13351 0.0
C402 C 0.47038 0.20871 0.17356 0.0
C403 C 0.44557 0.19725 0.16736 0.0
H404 H 0.44772 0.18637 0.04455 0.0
C405 C 0.43756 0.18988 0.12005 0.0
C406 C 0.45423 0.1933 0.07998 0.0
H407 H 0.41862 0.18086 0.11405 0.0
H408 H 0.57009 0.1792 0.92732 0.0
H409 H 0.54114 0.18427 0.9971 0.0
H410 H 0.4849 0.22454 0.90569 0.0
H411 H 0.51392 0.21918 0.83531 0.0
H412 H 0.47109 0.20878 0.98818 0.0
H413 H 0.51911 0.20651 0.05551 0.0
H414 H 0.50636 0.22033 0.13954 0.0
H415 H 0.4772 0.21454 0.20953 0.0
C416 C 0.78412 0.53927 0.14536 0.0
C417 C 0.80665 0.55299 0.13062 0.0
C418 C 0.7849 0.52246 0.18584 0.0
C419 C 0.80828 0.51903 0.21242 0.0
C420 C 0.83074 0.53277 0.19768 0.0
C421 C 0.82992 0.5497 0.15749 0.0
C422 C 0.81039 0.50039 0.25406 0.0
C423 C 0.79001 0.49351 0.28261 0.0
C424 C 0.79277 0.47513 0.32449 0.0
C425 C 0.77646 0.47813 0.36547 0.0
C426 C 0.77902 0.4615 0.40593 0.0
C427 C 0.79765 0.44121 0.40581 0.0
H428 H 0.82339 0.45107 0.29233 0.0
C429 C 0.81344 0.4377 0.36415 0.0
C430 C 0.81105 0.45448 0.32393 0.0
H431 H 0.82788 0.42215 0.36275 0.0
H432 H 0.76593 0.54125 0.12527 0.0
H433 H 0.76735 0.51169 0.19527 0.0
H434 H 0.84904 0.53036 0.21728 0.0
H435 H 0.84768 0.55986 0.14704 0.0
H436 H 0.82982 0.49307 0.26288 0.0
H437 H 0.77107 0.50277 0.27719 0.0
H438 H 0.76202 0.49369 0.36658 0.0
H439 H 0.76643 0.46461 0.43733 0.0
C440 C 0.55288 0.80865 0.61651 0.0
C441 C 0.55503 0.78776 0.64987 0.0
C442 C 0.53759 0.80616 0.5744 0.0
C443 C 0.52417 0.78268 0.5646 0.0
C444 C 0.52735 0.76135 0.59651 0.0
C445 C 0.54245 0.76393 0.63907 0.0
C446 C 0.50658 0.78026 0.52158 0.0
C447 C 0.49161 0.80044 0.50646 0.0
C448 C 0.47352 0.7991 0.46402 0.0
C449 C 0.4519 0.81608 0.46291 0.0
C450 C 0.43526 0.8167 0.42234 0.0
C451 C 0.44016 0.80063 0.38154 0.0
H452 H 0.49501 0.7697 0.42275 0.0
C453 C 0.46168 0.78343 0.38272 0.0
C454 C 0.47818 0.78261 0.42363 0.0
H455 H 0.46601 0.77087 0.35176 0.0
H456 H 0.56249 0.82722 0.62346 0.0
H457 H 0.5362 0.82271 0.54967 0.0
H458 H 0.51745 0.74295 0.58935 0.0
H459 H 0.5439 0.7474 0.66385 0.0
H460 H 0.5047 0.76116 0.50429 0.0
H461 H 0.49173 0.81858 0.5274 0.0
H462 H 0.44798 0.8291 0.49343 0.0
H463 H 0.41894 0.83027 0.42252 0.0
C464 C 0.16773 0.55104 0.8662 0.0
C465 C 0.191 0.5604 0.88751 0.0
C466 C 0.16852 0.53546 0.82415 0.0
C467 C 0.19262 0.52887 0.80245 0.0
C468 C 0.21578 0.53902 0.82261 0.0
C469 C 0.21502 0.55447 0.86495 0.0
C470 C 0.1941 0.51177 0.75849 0.0
C471 C 0.17664 0.49252 0.74975 0.0
C472 C 0.17761 0.47505 0.70622 0.0
C473 C 0.1652 0.45053 0.70866 0.0
C474 C 0.16461 0.43396 0.66789 0.0
C475 C 0.17617 0.44173 0.62349 0.0
H476 H 0.19853 0.50178 0.65808 0.0
C477 C 0.18869 0.46624 0.62103 0.0
C478 C 0.1894 0.48276 0.6619 0.0
H479 H 0.19765 0.47289 0.58728 0.0
H480 H 0.14886 0.55543 0.88237 0.0
H481 H 0.15019 0.52876 0.80862 0.0
H482 H 0.23457 0.53452 0.8062 0.0
H483 H 0.23329 0.56153 0.88025 0.0
H484 H 0.21086 0.51419 0.73445 0.0
H485 H 0.16147 0.48857 0.77666 0.0
H486 H 0.15581 0.44418 0.74221 0.0
H487 H 0.15469 0.41527 0.67098 0.0
loop_
_geom_bond_atom_site_label_1
_geom_bond_atom_site_label_2
_geom_bond_distance
_geom_bond_site_symmetry_2
_ccdc_geom_bond_type
C0 O1 1.160 . S
C0 O7 1.185 . S
O1 C0 1.160 . S
O2 Zn3 1.899 . S
O2 C10 1.284 . S
Zn3 O2 1.899 . S
Zn3 O4 2.032 . S
Zn3 O7 2.086 . S
Zn3 O12 1.977 . S
O4 Zn3 2.032 . S
O4 C8 1.278 . S
C5 O6 1.203 . S
C5 O12 1.267 . S
O6 C5 1.203 . S
O7 C0 1.185 . S
O7 Zn3 2.086 . S
C8 O4 1.278 . S
C8 O9 1.211 . S
O9 C8 1.211 . S
C10 O2 1.284 . S
C10 O11 1.273 . S
O11 C10 1.273 . S
O12 Zn3 1.977 . S
O12 C5 1.267 . S
C13 O14 1.160 . S
C13 O20 1.185 . S
O14 C13 1.160 . S
O15 Zn16 1.899 . S
O15 C23 1.284 . S
Zn16 O15 1.899 . S
Zn16 O17 2.032 . S
Zn16 O20 2.086 . S
Zn16 O25 1.977 . S
O17 Zn16 2.032 . S
O17 C21 1.278 . S
C18 O19 1.203 . S
C18 O25 1.267 . S
O19 C18 1.203 . S
O20 C13 1.185 . S
O20 Zn16 2.086 . S
C21 O17 1.278 . S
C21 O22 1.211 . S
O22 C21 1.211 . S
C23 O15 1.284 . S
C23 O24 1.273 . S
O24 C23 1.273 . S
O25 Zn16 1.977 . S
O25 C18 1.267 . S
C26 O27 1.160 . S
C26 O33 1.185 . S
O27 C26 1.160 . S
O28 Zn29 1.899 . S
O28 C36 1.284 . S
Zn29 O28 1.899 . S
Zn29 O30 2.032 . S
Zn29 O33 2.086 . S
Zn29 O38 1.977 . S
O30 Zn29 2.032 . S
O30 C34 1.278 . S
C31 O32 1.203 . S
C31 O38 1.267 . S
O32 C31 1.203 . S
O33 C26 1.185 . S
O33 Zn29 2.086 . S
C34 O30 1.278 . S
C34 O35 1.211 . S
O35 C34 1.211 . S
C36 O28 1.284 . S
C36 O37 1.273 . S
O37 C36 1.273 . S
O38 Zn29 1.977 . S
O38 C31 1.267 . S
C39 O40 1.160 . S
C39 O46 1.185 . S
O40 C39 1.160 . S
O41 Zn42 1.899 1_556 S
O41 C49 1.284 . S
Zn42 O41 1.899 1_554 S
Zn42 O43 2.032 . S
Zn42 O46 2.086 . S
Zn42 O51 1.977 . S
O43 Zn42 2.032 . S
O43 C47 1.278 . S
C44 O45 1.203 1_554 S
C44 O51 1.267 . S
O45 C44 1.203 1_556 S
O46 C39 1.185 . S
O46 Zn42 2.086 . S
C47 O43 1.278 . S
C47 O48 1.211 . S
O48 C47 1.211 . S
C49 O41 1.284 . S
C49 O50 1.273 . S
O50 C49 1.273 . S
O51 Zn42 1.977 . S
O51 C44 1.267 . S
C52 O53 1.160 . S
C52 O59 1.185 . S
O53 C52 1.160 . S
O54 Zn55 1.899 . S
O54 C62 1.284 . S
Zn55 O54 1.899 . S
Zn55 O56 2.032 . S
Zn55 O59 2.086 . S
Zn55 O64 1.977 . S
O56 Zn55 2.032 . S
O56 C60 1.278 . S
C57 O58 1.203 . S
C57 O64 1.267 . S
O58 C57 1.203 . S
O59 C52 1.185 . S
O59 Zn55 2.086 . S
C60 O56 1.278 . S
C60 O61 1.211 . S
O61 C60 1.211 . S
C62 O54 1.284 . S
C62 O63 1.273 . S
O63 C62 1.273 . S
O64 Zn55 1.977 . S
O64 C57 1.267 . S
C65 O66 1.160 . S
C65 O72 1.185 . S
O66 C65 1.160 . S
O67 Zn68 1.899 . S
O67 C75 1.284 . S
Zn68 O67 1.899 . S
Zn68 O69 2.032 . S
Zn68 O72 2.086 . S
Zn68 O77 1.977 . S
O69 Zn68 2.032 . S
O69 C73 1.278 . S
C70 O71 1.203 . S
C70 O77 1.267 . S
O71 C70 1.203 . S
O72 C65 1.185 . S
O72 Zn68 2.086 . S
C73 O69 1.278 . S
C73 O74 1.211 . S
O74 C73 1.211 . S
C75 O67 1.284 . S
C75 O76 1.273 . S
O76 C75 1.273 . S
O77 Zn68 1.977 . S
O77 C70 1.267 . S
C78 O79 1.160 . S
C78 O85 1.185 . S
O79 C78 1.160 . S
O80 Zn81 1.899 . S
O80 C88 1.284 . S
Zn81 O80 1.899 . S
Zn81 O82 2.032 . S
Zn81 O85 2.086 . S
Zn81 O90 1.977 . S
O82 Zn81 2.032 . S
O82 C86 1.278 . S
C83 O84 1.203 . S
C83 O90 1.267 . S
O84 C83 1.203 . S
O85 C78 1.185 . S
O85 Zn81 2.086 . S
C86 O82 1.278 . S
C86 O87 1.211 . S
O87 C86 1.211 . S
C88 O80 1.284 . S
C88 O89 1.273 . S
O89 C88 1.273 . S
O90 Zn81 1.977 . S
O90 C83 1.267 . S
C91 O92 1.161 1_556 S
C91 O98 1.185 . S
O92 C91 1.161 1_554 S
O93 Zn94 1.899 . S
O93 C101 1.284 . S
Zn94 O93 1.899 . S
Zn94 O95 2.032 1_554 S
Zn94 O98 2.086 1_554 S
Zn94 O103 1.977 . S
O95 Zn94 2.032 1_556 S
O95 C99 1.278 . S
C96 O97 1.203 . S
C96 O103 1.267 . S
O97 C96 1.203 . S
O98 C91 1.185 . S
O98 Zn94 2.086 1_556 S
C99 O95 1.278 . S
C99 O100 1.211 . S
O100 C99 1.211 . S
C101 O93 1.284 . S
C101 O102 1.273 . S
O102 C101 1.273 . S
O103 Zn94 1.977 . S
O103 C96 1.267 . S
C104 C105 1.386 . S
C104 C106 1.383 . S
C104 H120 0.951 . S
C105 C104 1.386 . S
C105 C109 1.383 . S
C106 C104 1.383 . S
C106 C107 1.402 . S
C106 H121 0.951 . S
C107 C106 1.402 . S
C107 C108 1.375 . S
C107 C110 1.481 . S
C108 C107 1.375 . S
C108 C109 1.367 . S
C108 H122 0.951 . S
C109 C105 1.383 . S
C109 C108 1.367 . S
C109 H123 0.950 . S
C110 C107 1.481 . S
C110 C111 1.297 . S
C110 H124 0.950 . S
C111 C110 1.297 . S
C111 C112 1.479 . S
C111 H125 0.950 . S
C112 C111 1.479 . S
C112 C113 1.375 . S
C112 C118 1.404 . S
C113 C112 1.375 . S
C113 C114 1.369 . S
C113 H126 0.950 . S
C114 C113 1.369 . S
C114 C115 1.392 . S
C114 H127 0.951 . S
C115 C114 1.392 . S
C115 C117 1.384 . S
H116 C118 0.949 . S
C117 C115 1.384 . S
C117 C118 1.385 . S
C117 H119 0.950 . S
C118 C112 1.404 . S
C118 H116 0.949 . S
C118 C117 1.385 . S
H119 C117 0.950 . S
H120 C104 0.951 . S
H121 C106 0.951 . S
H122 C108 0.951 . S
H123 C109 0.950 . S
H124 C110 0.950 . S
H125 C111 0.950 . S
H126 C113 0.950 . S
H127 C114 0.951 . S
C128 C129 1.386 . S
C128 C130 1.383 . S
C128 H144 0.951 . S
C129 C128 1.386 . S
C129 C133 1.383 . S
C130 C128 1.383 . S
C130 C131 1.402 . S
C130 H145 0.951 . S
C131 C130 1.402 . S
C131 C132 1.375 . S
C131 C134 1.481 . S
C132 C131 1.375 . S
C132 C133 1.367 . S
C132 H146 0.951 . S
C133 C129 1.383 . S
C133 C132 1.367 . S
C133 H147 0.950 . S
C134 C131 1.481 . S
C134 C135 1.297 . S
C134 H148 0.950 . S
C135 C134 1.297 . S
C135 C136 1.479 . S
C135 H149 0.950 . S
C136 C135 1.479 . S
C136 C137 1.375 . S
C136 C142 1.404 . S
C137 C136 1.375 . S
C137 C138 1.369 . S
C137 H150 0.950 . S
C138 C137 1.369 . S
C138 C139 1.392 . S
C138 H151 0.951 . S
C139 C138 1.392 . S
C139 C141 1.384 . S
H140 C142 0.949 . S
C141 C139 1.384 . S
C141 C142 1.385 . S
C141 H143 0.950 . S
C142 C136 1.404 . S
C142 H140 0.949 . S
C142 C141 1.385 . S
H143 C141 0.950 . S
H144 C128 0.951 . S
H145 C130 0.951 . S
H146 C132 0.951 . S
H147 C133 0.950 . S
H148 C134 0.950 . S
H149 C135 0.950 . S
H150 C137 0.950 . S
H151 C138 0.951 . S
C152 C153 1.386 . S
C152 C154 1.383 . S
C152 H168 0.951 . S
C153 C152 1.386 . S
C153 C157 1.383 . S
C154 C152 1.383 . S
C154 C155 1.402 . S
C154 H169 0.951 . S
C155 C154 1.402 . S
C155 C156 1.375 . S
C155 C158 1.481 . S
C156 C155 1.375 . S
C156 C157 1.367 . S
C156 H170 0.951 . S
C157 C153 1.383 . S
C157 C156 1.367 . S
C157 H171 0.950 . S
C158 C155 1.481 . S
C158 C159 1.297 1_554 S
C158 H172 0.950 . S
C159 C158 1.297 1_556 S
C159 C160 1.479 . S
C159 H173 0.950 . S
C160 C159 1.479 . S
C160 C161 1.375 . S
C160 C166 1.404 . S
C161 C160 1.375 . S
C161 C162 1.369 . S
C161 H174 0.950 . S
C162 C161 1.369 . S
C162 C163 1.392 . S
C162 H175 0.951 . S
C163 C162 1.392 . S
C163 C165 1.384 . S
H164 C166 0.949 . S
C165 C163 1.384 . S
C165 C166 1.385 . S
C165 H167 0.950 . S
C166 C160 1.404 . S
C166 H164 0.949 . S
C166 C165 1.385 . S
H167 C165 0.950 . S
H168 C152 0.951 . S
H169 C154 0.951 . S
H170 C156 0.951 . S
H171 C157 0.950 . S
H172 C158 0.950 . S
H173 C159 0.950 . S
H174 C161 0.950 . S
H175 C162 0.951 . S
C176 C177 1.386 . S
C176 C178 1.383 . S
C176 H192 0.951 . S
C177 C176 1.386 . S
C177 C181 1.383 . S
C178 C176 1.383 . S
C178 C179 1.402 . S
C178 H193 0.951 . S
C179 C178 1.402 . S
C179 C180 1.375 . S
C179 C182 1.481 . S
C180 C179 1.375 . S
C180 C181 1.367 . S
C180 H194 0.951 . S
C181 C177 1.383 . S
C181 C180 1.367 . S
C181 H195 0.950 . S
C182 C179 1.481 . S
C182 C183 1.297 . S
C182 H196 0.950 . S
C183 C182 1.297 . S
C183 C184 1.479 . S
C183 H197 0.950 . S
C184 C183 1.479 . S
C184 C185 1.375 . S
C184 C190 1.404 . S
C185 C184 1.375 . S
C185 C186 1.369 . S
C185 H198 0.950 . S
C186 C185 1.369 . S
C186 C187 1.392 . S
C186 H199 0.951 . S
C187 C186 1.392 . S
C187 C189 1.384 . S
H188 C190 0.949 . S
C189 C187 1.384 . S
C189 C190 1.385 . S
C189 H191 0.950 . S
C190 C184 1.404 . S
C190 H188 0.949 . S
C190 C189 1.385 . S
H191 C189 0.950 . S
H192 C176 0.951 . S
H193 C178 0.951 . S
H194 C180 0.951 . S
H195 C181 0.950 . S
H196 C182 0.950 . S
H197 C183 0.950 . S
H198 C185 0.950 . S
H199 C186 0.951 . S
C200 C201 1.386 . S
C200 C202 1.383 . S
C200 H216 0.951 . S
C201 C200 1.386 . S
C201 C205 1.383 . S
C202 C200 1.383 . S
C202 C203 1.402 . S
C202 H217 0.951 . S
C203 C202 1.402 . S
C203 C204 1.375 . S
C203 C206 1.481 . S
C204 C203 1.375 . S
C204 C205 1.367 . S
C204 H218 0.951 . S
C205 C201 1.383 . S
C205 C204 1.367 . S
C205 H219 0.950 . S
C206 C203 1.481 . S
C206 C207 1.297 . S
C206 H220 0.950 . S
C207 C206 1.297 . S
C207 C208 1.479 . S
C207 H221 0.950 . S
C208 C207 1.479 . S
C208 C209 1.375 . S
C208 C214 1.404 . S
C209 C208 1.375 . S
C209 C210 1.369 . S
C209 H222 0.950 . S
C210 C209 1.369 . S
C210 C211 1.392 . S
C210 H223 0.951 . S
C211 C210 1.392 . S
C211 C213 1.384 . S
H212 C214 0.949 . S
C213 C211 1.384 . S
C213 C214 1.385 . S
C213 H215 0.950 . S
C214 C208 1.404 . S
C214 H212 0.949 . S
C214 C213 1.385 . S
H215 C213 0.950 . S
H216 C200 0.951 . S
H217 C202 0.951 . S
H218 C204 0.951 . S
H219 C205 0.950 . S
H220 C206 0.950 . S
H221 C207 0.950 . S
H222 C209 0.950 . S
H223 C210 0.951 . S
C224 C225 1.386 . S
C224 C226 1.383 . S
C224 H240 0.951 . S
C225 C224 1.386 . S
C225 C229 1.383 . S
C226 C224 1.383 . S
C226 C227 1.402 . S
C226 H241 0.951 . S
C227 C226 1.402 . S
C227 C228 1.375 . S
C227 C230 1.481 . S
C228 C227 1.375 . S
C228 C229 1.367 . S
C228 H242 0.951 . S
C229 C225 1.383 . S
C229 C228 1.367 . S
C229 H243 0.950 . S
C230 C227 1.481 . S
C230 C231 1.297 . S
C230 H244 0.950 . S
C231 C230 1.297 . S
C231 C232 1.479 . S
C231 H245 0.950 . S
C232 C231 1.479 . S
C232 C233 1.375 . S
C232 C238 1.404 . S
C233 C232 1.375 . S
C233 C234 1.369 . S
C233 H246 0.950 . S
C234 C233 1.369 . S
C234 C235 1.392 . S
C234 H247 0.951 . S
C235 C234 1.392 . S
C235 C237 1.384 . S
H236 C238 0.949 . S
C237 C235 1.384 . S
C237 C238 1.385 . S
C237 H239 0.950 . S
C238 C232 1.404 . S
C238 H236 0.949 . S
C238 C237 1.385 . S
H239 C237 0.950 . S
H240 C224 0.951 . S
H241 C226 0.951 . S
H242 C228 0.951 . S
H243 C229 0.950 . S
H244 C230 0.950 . S
H245 C231 0.950 . S
H246 C233 0.950 . S
H247 C234 0.951 . S
C248 C249 1.386 . S
C248 C250 1.383 . S
C248 H264 0.951 . S
C249 C248 1.386 . S
C249 C253 1.383 1_556 S
C250 C248 1.383 . S
C250 C251 1.402 . S
C250 H265 0.951 . S
C251 C250 1.402 . S
C251 C252 1.375 . S
C251 C254 1.481 . S
C252 C251 1.375 . S
C252 C253 1.367 1_556 S
C252 H266 0.951 1_556 S
C253 C249 1.383 1_554 S
C253 C252 1.367 1_554 S
C253 H267 0.950 . S
C254 C251 1.481 . S
C254 C255 1.297 . S
C254 H268 0.950 . S
C255 C254 1.297 . S
C255 C256 1.479 . S
C255 H269 0.950 . S
C256 C255 1.479 . S
C256 C257 1.375 . S
C256 C262 1.404 . S
C257 C256 1.375 . S
C257 C258 1.369 . S
C257 H270 0.950 . S
C258 C257 1.369 . S
C258 C259 1.392 . S
C258 H271 0.951 . S
C259 C258 1.392 . S
C259 C261 1.384 . S
H260 C262 0.949 . S
C261 C259 1.384 . S
C261 C262 1.385 . S
C261 H263 0.950 . S
C262 C256 1.404 . S
C262 H260 0.949 . S
C262 C261 1.385 . S
H263 C261 0.950 . S
H264 C248 0.951 . S
H265 C250 0.951 . S
H266 C252 0.951 1_554 S
H267 C253 0.950 . S
H268 C254 0.950 . S
H269 C255 0.950 . S
H270 C257 0.950 . S
H271 C258 0.951 . S
C272 C273 1.386 . S
C272 C274 1.383 . S
C272 H288 0.951 . S
C273 C272 1.386 . S
C273 C277 1.383 . S
C274 C272 1.383 . S
C274 C275 1.402 . S
C274 H289 0.951 . S
C275 C274 1.402 . S
C275 C276 1.375 . S
C275 C278 1.481 . S
C276 C275 1.375 . S
C276 C277 1.367 . S
C276 H290 0.951 . S
C277 C273 1.383 . S
C277 C276 1.367 . S
C277 H291 0.950 . S
C278 C275 1.481 . S
C278 C279 1.297 . S
C278 H292 0.950 . S
C279 C278 1.297 . S
C279 C280 1.479 . S
C279 H293 0.950 . S
C280 C279 1.479 . S
C280 C281 1.375 . S
C280 C286 1.404 . S
C281 C280 1.375 . S
C281 C282 1.369 . S
C281 H294 0.950 . S
C282 C281 1.369 . S
C282 C283 1.392 . S
C282 H295 0.951 . S
C283 C282 1.392 . S
C283 C285 1.384 . S
H284 C286 0.949 . S
C285 C283 1.384 . S
C285 C286 1.385 . S
C285 H287 0.950 . S
C286 C280 1.404 . S
C286 H284 0.949 . S
C286 C285 1.385 . S
H287 C285 0.950 . S
H288 C272 0.951 . S
H289 C274 0.951 . S
H290 C276 0.951 . S
H291 C277 0.950 . S
H292 C278 0.950 . S
H293 C279 0.950 . S
H294 C281 0.950 . S
H295 C282 0.951 . S
C296 C297 1.386 . S
C296 C298 1.383 . S
C296 H312 0.951 . S
C297 C296 1.386 . S
C297 C301 1.383 . S
C298 C296 1.383 . S
C298 C299 1.402 . S
C298 H313 0.951 . S
C299 C298 1.402 . S
C299 C300 1.375 . S
C299 C302 1.481 . S
C300 C299 1.375 . S
C300 C301 1.367 . S
C300 H314 0.951 . S
C301 C297 1.383 . S
C301 C300 1.367 . S
C301 H315 0.950 . S
C302 C299 1.481 . S
C302 C303 1.297 1_565 S
C302 H316 0.950 . S
C303 C302 1.297 1_545 S
C303 C304 1.479 . S
C303 H317 0.950 . S
C304 C303 1.479 . S
C304 C305 1.375 . S
C304 C310 1.404 . S
C305 C304 1.375 . S
C305 C306 1.369 . S
C305 H318 0.950 . S
C306 C305 1.369 . S
C306 C307 1.392 . S
C306 H319 0.951 . S
C307 C306 1.392 . S
C307 C309 1.384 . S
H308 C310 0.949 . S
C309 C307 1.384 . S
C309 C310 1.385 . S
C309 H311 0.950 . S
C310 C304 1.404 . S
C310 H308 0.949 . S
C310 C309 1.385 . S
H311 C309 0.950 . S
H312 C296 0.951 . S
H313 C298 0.951 . S
H314 C300 0.951 . S
H315 C301 0.950 . S
H316 C302 0.950 . S
H317 C303 0.950 . S
H318 C305 0.950 . S
H319 C306 0.951 . S
C320 C321 1.386 . S
C320 C322 1.383 . S
C320 H336 0.951 . S
C321 C320 1.386 . S
C321 C325 1.383 . S
C322 C320 1.383 . S
C322 C323 1.402 . S
C322 H337 0.951 . S
C323 C322 1.402 . S
C323 C324 1.375 . S
C323 C326 1.481 . S
C324 C323 1.375 . S
C324 C325 1.367 . S
C324 H338 0.951 . S
C325 C321 1.383 . S
C325 C324 1.367 . S
C325 H339 0.950 . S
C326 C323 1.481 . S
C326 C327 1.297 1_655 S
C326 H340 0.950 . S
C327 C326 1.297 1_455 S
C327 C328 1.479 . S
C327 H341 0.950 . S
C328 C327 1.479 . S
C328 C329 1.375 . S
C328 C334 1.404 . S
C329 C328 1.375 . S
C329 C330 1.369 . S
C329 H342 0.950 . S
C330 C329 1.369 . S
C330 C331 1.392 . S
C330 H343 0.951 . S
C331 C330 1.392 . S
C331 C333 1.384 . S
H332 C334 0.949 . S
C333 C331 1.384 . S
C333 C334 1.385 . S
C333 H335 0.950 . S
C334 C328 1.404 . S
C334 H332 0.949 . S
C334 C333 1.385 . S
H335 C333 0.950 . S
H336 C320 0.951 . S
H337 C322 0.951 . S
H338 C324 0.951 . S
H339 C325 0.950 . S
H340 C326 0.950 . S
H341 C327 0.950 . S
H342 C329 0.950 . S
H343 C330 0.951 . S
C344 C345 1.386 . S
C344 C346 1.383 . S
C344 H360 0.951 . S
C345 C344 1.386 . S
C345 C349 1.383 . S
C346 C344 1.383 . S
C346 C347 1.402 . S
C346 H361 0.951 . S
C347 C346 1.402 . S
C347 C348 1.375 . S
C347 C350 1.481 . S
C348 C347 1.375 . S
C348 C349 1.367 . S
C348 H362 0.951 . S
C349 C345 1.383 . S
C349 C348 1.367 . S
C349 H363 0.950 . S
C350 C347 1.481 . S
C350 C351 1.297 1_565 S
C350 H364 0.950 . S
C351 C350 1.297 1_545 S
C351 C352 1.479 . S
C351 H365 0.950 . S
C352 C351 1.479 . S
C352 C353 1.375 . S
C352 C358 1.404 . S
C353 C352 1.375 . S
C353 C354 1.369 . S
C353 H366 0.950 . S
C354 C353 1.369 . S
C354 C355 1.392 . S
C354 H367 0.951 . S
C355 C354 1.392 . S
C355 C357 1.384 . S
H356 C358 0.949 . S
C357 C355 1.384 . S
C357 C358 1.385 . S
C357 H359 0.950 . S
C358 C352 1.404 . S
C358 H356 0.949 . S
C358 C357 1.385 . S
H359 C357 0.950 . S
H360 C344 0.951 . S
H361 C346 0.951 . S
H362 C348 0.951 . S
H363 C349 0.950 . S
H364 C350 0.950 . S
H365 C351 0.950 . S
H366 C353 0.950 . S
H367 C354 0.951 . S
C368 C369 1.386 . S
C368 C370 1.383 . S
C368 H384 0.951 . S
C369 C368 1.386 . S
C369 C373 1.383 1_554 S
C370 C368 1.383 . S
C370 C371 1.402 . S
C370 H385 0.951 . S
C371 C370 1.402 . S
C371 C372 1.375 1_554 S
C371 C374 1.481 1_554 S
C372 C371 1.375 1_556 S
C372 C373 1.367 . S
C372 H386 0.951 . S
C373 C369 1.383 1_556 S
C373 C372 1.367 . S
C373 H387 0.950 . S
C374 C371 1.481 1_556 S
C374 C375 1.297 1_656 S
C374 H388 0.950 . S
C375 C374 1.297 1_454 S
C375 C376 1.479 . S
C375 H389 0.950 . S
C376 C375 1.479 . S
C376 C377 1.375 . S
C376 C382 1.404 1_554 S
C377 C376 1.375 . S
C377 C378 1.369 . S
C377 H390 0.950 . S
C378 C377 1.369 . S
C378 C379 1.392 . S
C378 H391 0.951 . S
C379 C378 1.392 . S
C379 C381 1.384 1_554 S
H380 C382 0.949 . S
C381 C379 1.384 1_556 S
C381 C382 1.385 . S
C381 H383 0.950 . S
C382 C376 1.404 1_556 S
C382 H380 0.949 . S
C382 C381 1.385 . S
H383 C381 0.950 . S
H384 C368 0.951 . S
H385 C370 0.951 . S
H386 C372 0.951 . S
H387 C373 0.950 . S
H388 C374 0.950 . S
H389 C375 0.950 . S
H390 C377 0.950 . S
H391 C378 0.951 . S
C392 C393 1.386 . S
C392 C394 1.383 . S
C392 H408 0.951 . S
C393 C392 1.386 . S
C393 C397 1.383 . S
C394 C392 1.383 . S
C394 C395 1.402 . S
C394 H409 0.951 1_556 S
C395 C394 1.402 . S
C395 C396 1.375 . S
C395 C398 1.481 . S
C396 C395 1.375 . S
C396 C397 1.367 . S
C396 H410 0.951 . S
C397 C393 1.383 . S
C397 C396 1.367 . S
C397 H411 0.950 . S
C398 C395 1.481 . S
C398 C399 1.297 1_556 S
C398 H412 0.950 . S
C399 C398 1.297 1_554 S
C399 C400 1.479 . S
C399 H413 0.950 . S
C400 C399 1.479 . S
C400 C401 1.375 . S
C400 C406 1.404 . S
C401 C400 1.375 . S
C401 C402 1.369 . S
C401 H414 0.950 . S
C402 C401 1.369 . S
C402 C403 1.392 . S
C402 H415 0.951 . S
C403 C402 1.392 . S
C403 C405 1.384 . S
H404 C406 0.949 . S
C405 C403 1.384 . S
C405 C406 1.385 . S
C405 H407 0.950 . S
C406 C400 1.404 . S
C406 H404 0.949 . S
C406 C405 1.385 . S
H407 C405 0.950 . S
H408 C392 0.951 . S
H409 C394 0.951 1_554 S
H410 C396 0.951 . S
H411 C397 0.950 . S
H412 C398 0.950 . S
H413 C399 0.950 . S
H414 C401 0.950 . S
H415 C402 0.951 . S
C416 C417 1.386 . S
C416 C418 1.383 . S
C416 H432 0.951 . S
C417 C416 1.386 . S
C417 C421 1.383 . S
C418 C416 1.383 . S
C418 C419 1.402 . S
C418 H433 0.951 . S
C419 C418 1.402 . S
C419 C420 1.375 . S
C419 C422 1.481 . S
C420 C419 1.375 . S
C420 C421 1.367 . S
C420 H434 0.951 . S
C421 C417 1.383 . S
C421 C420 1.367 . S
C421 H435 0.950 . S
C422 C419 1.481 . S
C422 C423 1.297 . S
C422 H436 0.950 . S
C423 C422 1.297 . S
C423 C424 1.479 . S
C423 H437 0.950 . S
C424 C423 1.479 . S
C424 C425 1.375 . S
C424 C430 1.404 . S
C425 C424 1.375 . S
C425 C426 1.369 . S
C425 H438 0.950 . S
C426 C425 1.369 . S
C426 C427 1.392 . S
C426 H439 0.951 . S
C427 C426 1.392 . S
C427 C429 1.384 . S
H428 C430 0.949 . S
C429 C427 1.384 . S
C429 C430 1.385 . S
C429 H431 0.950 . S
C430 C424 1.404 . S
C430 H428 0.949 . S
C430 C429 1.385 . S
H431 C429 0.950 . S
H432 C416 0.951 . S
H433 C418 0.951 . S
H434 C420 0.951 . S
H435 C421 0.950 . S
H436 C422 0.950 . S
H437 C423 0.950 . S
H438 C425 0.950 . S
H439 C426 0.951 . S
C440 C441 1.386 . S
C440 C442 1.383 . S
C440 H456 0.951 . S
C441 C440 1.386 . S
C441 C445 1.383 . S
C442 C440 1.383 . S
C442 C443 1.402 . S
C442 H457 0.951 . S
C443 C442 1.402 . S
C443 C444 1.375 . S
C443 C446 1.481 . S
C444 C443 1.375 . S
C444 C445 1.367 . S
C444 H458 0.951 . S
C445 C441 1.383 . S
C445 C444 1.367 . S
C445 H459 0.950 . S
C446 C443 1.481 . S
C446 C447 1.297 . S
C446 H460 0.950 . S
C447 C446 1.297 . S
C447 C448 1.479 . S
C447 H461 0.950 . S
C448 C447 1.479 . S
C448 C449 1.375 . S
C448 C454 1.404 . S
C449 C448 1.375 . S
C449 C450 1.369 . S
C449 H462 0.950 . S
C450 C449 1.369 . S
C450 C451 1.392 . S
C450 H463 0.951 . S
C451 C450 1.392 . S
C451 C453 1.384 . S
H452 C454 0.949 . S
C453 C451 1.384 . S
C453 C454 1.385 . S
C453 H455 0.950 . S
C454 C448 1.404 . S
C454 H452 0.949 . S
C454 C453 1.385 . S
H455 C453 0.950 . S
H456 C440 0.951 . S
H457 C442 0.951 . S
H458 C444 0.951 . S
H459 C445 0.950 . S
H460 C446 0.950 . S
H461 C447 0.950 . S
H462 C449 0.950 . S
H463 C450 0.951 . S
C464 C465 1.386 . S
C464 C466 1.383 . S
C464 H480 0.951 . S
C465 C464 1.386 . S
C465 C469 1.383 . S
C466 C464 1.383 . S
C466 C467 1.402 . S
C466 H481 0.951 . S
C467 C466 1.402 . S
C467 C468 1.375 . S
C467 C470 1.481 . S
C468 C467 1.375 . S
C468 C469 1.367 . S
C468 H482 0.951 . S
C469 C465 1.383 . S
C469 C468 1.367 . S
C469 H483 0.950 . S
C470 C467 1.481 . S
C470 C471 1.297 . S
C470 H484 0.950 . S
C471 C470 1.297 . S
C471 C472 1.479 . S
C471 H485 0.950 . S
C472 C471 1.479 . S
C472 C473 1.375 . S
C472 C478 1.404 . S
C473 C472 1.375 . S
C473 C474 1.369 . S
C473 H486 0.950 . S
C474 C473 1.369 . S
C474 C475 1.392 . S
C474 H487 0.951 . S
C475 C474 1.392 . S
C475 C477 1.384 . S
H476 C478 0.949 . S
C477 C475 1.384 . S
C477 C478 1.385 . S
C477 H479 0.950 . S
C478 C472 1.404 . S
C478 H476 0.949 . S
C478 C477 1.385 . S
H479 C477 0.950 . S
H480 C464 0.951 . S
H481 C466 0.951 . S
H482 C468 0.951 . S
H483 C469 0.950 . S
H484 C470 0.950 . S
H485 C471 0.950 . S
H486 C473 0.950 . S
H487 C474 0.951 . S
C105 C8 0.953 . S
C115 C86 1.006 . S
C129 C21 0.955 . S
C139 C99 1.006 . S
C153 C60 0.900 . S
C163 C34 0.930 . S
C177 C73 0.897 . S
C187 C47 0.895 . S
C201 C0 1.260 . S
C211 C65 1.253 . S
C225 C13 1.232 . S
C235 C78 1.235 . S
C249 C91 1.242 . S
C259 C26 1.218 . S
C273 C39 1.243 . S
C283 C52 1.217 . S
C297 C57 1.335 . S
C307 C5 1.280 . S
C321 C18 1.307 . S
C331 C70 1.353 . S
C345 C31 1.280 . S
C355 C83 1.335 . S
C369 C96 1.319 . S
C379 C44 1.247 . S
C393 C88 1.479 . S
C403 C10 1.497 . S
C417 C101 1.469 . S
C427 C23 1.525 . S
C441 C36 1.512 . S
C451 C62 1.445 . S
C465 C49 1.510 . S
C475 C75 1.447 . S
