# Generated by pormake.
# Topology unr, (4)-cn, num edge types: 1
# Building blocks:
#     Node 0, Type 0, BuildingBlock: NAHDIM_clean_sbu_0, # of connection points: 4
#     Node 1, Type 0, BuildingBlock: NAHDIM_clean_sbu_0, # of connection points: 4
#     Node 2, Type 0, BuildingBlock: NAHDIM_clean_sbu_0, # of connection points: 4
#     Node 3, Type 0, BuildingBlock: NAHDIM_clean_sbu_0, # of connection points: 4
#     Node 4, Type 0, BuildingBlock: NAHDIM_clean_sbu_0, # of connection points: 4
#     Node 5, Type 0, BuildingBlock: NAHDIM_clean_sbu_0, # of connection points: 4
#     Node 6, Type 0, BuildingBlock: NAHDIM_clean_sbu_0, # of connection points: 4
#     Node 7, Type 0, BuildingBlock: NAHDIM_clean_sbu_0, # of connection points: 4
#     Node 8, Type 0, BuildingBlock: NAHDIM_clean_sbu_0, # of connection points: 4
#     Node 9, Type 0, BuildingBlock: NAHDIM_clean_sbu_0, # of connection points: 4
#     Node 10, Type 0, BuildingBlock: NAHDIM_clean_sbu_0, # of connection points: 4
#     Node 11, Type 0, BuildingBlock: NAHDIM_clean_sbu_0, # of connection points: 4
#     Node 12, Type 0, BuildingBlock: NAHDIM_clean_sbu_0, # of connection points: 4
#     Node 13, Type 0, BuildingBlock: NAHDIM_clean_sbu_0, # of connection points: 4
#     Node 14, Type 0, BuildingBlock: NAHDIM_clean_sbu_0, # of connection points: 4
#     Node 15, Type 0, BuildingBlock: NAHDIM_clean_sbu_0, # of connection points: 4
#     Node 16, Type 0, BuildingBlock: NAHDIM_clean_sbu_0, # of connection points: 4
#     Node 17, Type 0, BuildingBlock: NAHDIM_clean_sbu_0, # of connection points: 4
#     Node 18, Type 0, BuildingBlock: NAHDIM_clean_sbu_0, # of connection points: 4
#     Node 19, Type 0, BuildingBlock: NAHDIM_clean_sbu_0, # of connection points: 4
#     Node 20, Type 0, BuildingBlock: NAHDIM_clean_sbu_0, # of connection points: 4
#     Node 21, Type 0, BuildingBlock: NAHDIM_clean_sbu_0, # of connection points: 4
#     Node 22, Type 0, BuildingBlock: NAHDIM_clean_sbu_0, # of connection points: 4
#     Node 23, Type 0, BuildingBlock: NAHDIM_clean_sbu_0, # of connection points: 4
#     Node 24, Type 0, BuildingBlock: NAHDIM_clean_sbu_0, # of connection points: 4
#     Node 25, Type 0, BuildingBlock: NAHDIM_clean_sbu_0, # of connection points: 4
#     Node 26, Type 0, BuildingBlock: NAHDIM_clean_sbu_0, # of connection points: 4
#     Node 27, Type 0, BuildingBlock: NAHDIM_clean_sbu_0, # of connection points: 4
#     Node 28, Type 0, BuildingBlock: NAHDIM_clean_sbu_0, # of connection points: 4
#     Node 29, Type 0, BuildingBlock: NAHDIM_clean_sbu_0, # of connection points: 4
#     Node 30, Type 0, BuildingBlock: NAHDIM_clean_sbu_0, # of connection points: 4
#     Node 31, Type 0, BuildingBlock: NAHDIM_clean_sbu_0, # of connection points: 4
#     Node 32, Type 0, BuildingBlock: NAHDIM_clean_sbu_0, # of connection points: 4
#     Node 33, Type 0, BuildingBlock: NAHDIM_clean_sbu_0, # of connection points: 4
#     Node 34, Type 0, BuildingBlock: NAHDIM_clean_sbu_0, # of connection points: 4
#     Node 35, Type 0, BuildingBlock: NAHDIM_clean_sbu_0, # of connection points: 4
#     Edge 36, Type (0, 0), BuildingBlock: EZIPEK_clean_linker_0, # of connection points: 2
#     Edge 37, Type (0, 0), BuildingBlock: EZIPEK_clean_linker_0, # of connection points: 2
#     Edge 38, Type (0, 0), BuildingBlock: EZIPEK_clean_linker_0, # of connection points: 2
#     Edge 39, Type (0, 0), BuildingBlock: EZIPEK_clean_linker_0, # of connection points: 2
#     Edge 40, Type (0, 0), BuildingBlock: EZIPEK_clean_linker_0, # of connection points: 2
#     Edge 41, Type (0, 0), BuildingBlock: EZIPEK_clean_linker_0, # of connection points: 2
#     Edge 42, Type (0, 0), BuildingBlock: EZIPEK_clean_linker_0, # of connection points: 2
#     Edge 43, Type (0, 0), BuildingBlock: EZIPEK_clean_linker_0, # of connection points: 2
#     Edge 44, Type (0, 0), BuildingBlock: EZIPEK_clean_linker_0, # of connection points: 2
#     Edge 45, Type (0, 0), BuildingBlock: EZIPEK_clean_linker_0, # of connection points: 2
#     Edge 46, Type (0, 0), BuildingBlock: EZIPEK_clean_linker_0, # of connection points: 2
#     Edge 47, Type (0, 0), BuildingBlock: EZIPEK_clean_linker_0, # of connection points: 2
#     Edge 48, Type (0, 0), BuildingBlock: EZIPEK_clean_linker_0, # of connection points: 2
#     Edge 49, Type (0, 0), BuildingBlock: EZIPEK_clean_linker_0, # of connection points: 2
#     Edge 50, Type (0, 0), BuildingBlock: EZIPEK_clean_linker_0, # of connection points: 2
#     Edge 51, Type (0, 0), BuildingBlock: EZIPEK_clean_linker_0, # of connection points: 2
#     Edge 52, Type (0, 0), BuildingBlock: EZIPEK_clean_linker_0, # of connection points: 2
#     Edge 53, Type (0, 0), BuildingBlock: EZIPEK_clean_linker_0, # of connection points: 2
#     Edge 54, Type (0, 0), BuildingBlock: EZIPEK_clean_linker_0, # of connection points: 2
#     Edge 55, Type (0, 0), BuildingBlock: EZIPEK_clean_linker_0, # of connection points: 2
#     Edge 56, Type (0, 0), BuildingBlock: EZIPEK_clean_linker_0, # of connection points: 2
#     Edge 57, Type (0, 0), BuildingBlock: EZIPEK_clean_linker_0, # of connection points: 2
#     Edge 58, Type (0, 0), BuildingBlock: EZIPEK_clean_linker_0, # of connection points: 2
#     Edge 59, Type (0, 0), BuildingBlock: EZIPEK_clean_linker_0, # of connection points: 2
#     Edge 60, Type (0, 0), BuildingBlock: EZIPEK_clean_linker_0, # of connection points: 2
#     Edge 61, Type (0, 0), BuildingBlock: EZIPEK_clean_linker_0, # of connection points: 2
#     Edge 62, Type (0, 0), BuildingBlock: EZIPEK_clean_linker_0, # of connection points: 2
#     Edge 63, Type (0, 0), BuildingBlock: EZIPEK_clean_linker_0, # of connection points: 2
#     Edge 64, Type (0, 0), BuildingBlock: EZIPEK_clean_linker_0, # of connection points: 2
#     Edge 65, Type (0, 0), BuildingBlock: EZIPEK_clean_linker_0, # of connection points: 2
#     Edge 66, Type (0, 0), BuildingBlock: EZIPEK_clean_linker_0, # of connection points: 2
#     Edge 67, Type (0, 0), BuildingBlock: EZIPEK_clean_linker_0, # of connection points: 2
#     Edge 68, Type (0, 0), BuildingBlock: EZIPEK_clean_linker_0, # of connection points: 2
#     Edge 69, Type (0, 0), BuildingBlock: EZIPEK_clean_linker_0, # of connection points: 2
#     Edge 70, Type (0, 0), BuildingBlock: EZIPEK_clean_linker_0, # of connection points: 2
#     Edge 71, Type (0, 0), BuildingBlock: EZIPEK_clean_linker_0, # of connection points: 2
#     Edge 72, Type (0, 0), BuildingBlock: EZIPEK_clean_linker_0, # of connection points: 2
#     Edge 73, Type (0, 0), BuildingBlock: EZIPEK_clean_linker_0, # of connection points: 2
#     Edge 74, Type (0, 0), BuildingBlock: EZIPEK_clean_linker_0, # of connection points: 2
#     Edge 75, Type (0, 0), BuildingBlock: EZIPEK_clean_linker_0, # of connection points: 2
#     Edge 76, Type (0, 0), BuildingBlock: EZIPEK_clean_linker_0, # of connection points: 2
#     Edge 77, Type (0, 0), BuildingBlock: EZIPEK_clean_linker_0, # of connection points: 2
#     Edge 78, Type (0, 0), BuildingBlock: EZIPEK_clean_linker_0, # of connection points: 2
#     Edge 79, Type (0, 0), BuildingBlock: EZIPEK_clean_linker_0, # of connection points: 2
#     Edge 80, Type (0, 0), BuildingBlock: EZIPEK_clean_linker_0, # of connection points: 2
#     Edge 81, Type (0, 0), BuildingBlock: EZIPEK_clean_linker_0, # of connection points: 2
#     Edge 82, Type (0, 0), BuildingBlock: EZIPEK_clean_linker_0, # of connection points: 2
#     Edge 83, Type (0, 0), BuildingBlock: EZIPEK_clean_linker_0, # of connection points: 2
#     Edge 84, Type (0, 0), BuildingBlock: EZIPEK_clean_linker_0, # of connection points: 2
#     Edge 85, Type (0, 0), BuildingBlock: EZIPEK_clean_linker_0, # of connection points: 2
#     Edge 86, Type (0, 0), BuildingBlock: EZIPEK_clean_linker_0, # of connection points: 2
#     Edge 87, Type (0, 0), BuildingBlock: EZIPEK_clean_linker_0, # of connection points: 2
#     Edge 88, Type (0, 0), BuildingBlock: EZIPEK_clean_linker_0, # of connection points: 2
#     Edge 89, Type (0, 0), BuildingBlock: EZIPEK_clean_linker_0, # of connection points: 2
#     Edge 90, Type (0, 0), BuildingBlock: EZIPEK_clean_linker_0, # of connection points: 2
#     Edge 91, Type (0, 0), BuildingBlock: EZIPEK_clean_linker_0, # of connection points: 2
#     Edge 92, Type (0, 0), BuildingBlock: EZIPEK_clean_linker_0, # of connection points: 2
#     Edge 93, Type (0, 0), BuildingBlock: EZIPEK_clean_linker_0, # of connection points: 2
#     Edge 94, Type (0, 0), BuildingBlock: EZIPEK_clean_linker_0, # of connection points: 2
#     Edge 95, Type (0, 0), BuildingBlock: EZIPEK_clean_linker_0, # of connection points: 2
#     Edge 96, Type (0, 0), BuildingBlock: EZIPEK_clean_linker_0, # of connection points: 2
#     Edge 97, Type (0, 0), BuildingBlock: EZIPEK_clean_linker_0, # of connection points: 2
#     Edge 98, Type (0, 0), BuildingBlock: EZIPEK_clean_linker_0, # of connection points: 2
#     Edge 99, Type (0, 0), BuildingBlock: EZIPEK_clean_linker_0, # of connection points: 2
#     Edge 100, Type (0, 0), BuildingBlock: EZIPEK_clean_linker_0, # of connection points: 2
#     Edge 101, Type (0, 0), BuildingBlock: EZIPEK_clean_linker_0, # of connection points: 2
#     Edge 102, Type (0, 0), BuildingBlock: EZIPEK_clean_linker_0, # of connection points: 2
#     Edge 103, Type (0, 0), BuildingBlock: EZIPEK_clean_linker_0, # of connection points: 2
#     Edge 104, Type (0, 0), BuildingBlock: EZIPEK_clean_linker_0, # of connection points: 2
#     Edge 105, Type (0, 0), BuildingBlock: EZIPEK_clean_linker_0, # of connection points: 2
#     Edge 106, Type (0, 0), BuildingBlock: EZIPEK_clean_linker_0, # of connection points: 2
#     Edge 107, Type (0, 0), BuildingBlock: EZIPEK_clean_linker_0, # of connection points: 2
# Relax obj value: 0.414
# Max RMSD: 0.254
# Mean RMSD: 0.249
data_MOF--net-unr--node1-NAHDIM_clean_sbu_0--edge1-EZIPEK_clean_linker_0
_symmetry_space_group_name_H-M    P1
_symmetry_Int_Tables_number       1
_symmetry_cell_setting            triclinic
loop_
_symmetry_equiv_pos_as_xyz
'x, y, z'
_cell_length_a     34.922045
_cell_length_b     34.914257
_cell_length_c     85.869281
_cell_angle_alpha  89.990858
_cell_angle_beta   89.802287
_cell_angle_gamma 120.07132
loop_
_atom_site_label
_atom_site_type_symbol
_atom_site_fract_x
_atom_site_fract_y
_atom_site_fract_z
_atom_type_partial_charge
C0 C 0.24393 0.21959 0.15991 0.0
O1 O 0.22764 0.18376 0.16852 0.0
O2 O 0.13812 0.14376 0.1705 0.0
Zn3 Zn 0.16265 0.21008 0.16902 0.0
O4 O 0.17154 0.2351 0.19079 0.0
C5 C 0.08724 0.18509 0.15059 0.0
O6 O 0.09837 0.15638 0.14565 0.0
O7 O 0.22103 0.23809 0.15752 0.0
C8 C 0.18259 0.2176 0.20153 0.0
O9 O 0.19319 0.18759 0.19789 0.0
C10 C 0.10734 0.12008 0.18003 0.0
O11 O 0.09202 0.1388 0.18951 0.0
O12 O 0.1145 0.21741 0.15888 0.0
C13 C 0.77737 0.04816 0.14986 0.0
O14 O 0.79931 0.07193 0.16196 0.0
O15 O 0.8859 0.05918 0.15695 0.0
Zn16 Zn 0.82343 0.00828 0.15995 0.0
O17 O 0.8065 0.00795 0.18249 0.0
C18 C 0.79427 0.91434 0.16037 0.0
O19 O 0.75695 0.90923 0.16598 0.0
O20 O 0.78097 0.01498 0.14608 0.0
C21 C 0.82823 -0.00014 0.19249 0.0
O22 O 0.86035 0.99334 0.18781 0.0
C23 C 0.89991 0.0893 0.14658 0.0
O24 O 0.87233 0.09053 0.13654 0.0
O25 O 0.82477 0.95239 0.15612 0.0
C26 C 0.95358 0.76158 0.16167 0.0
O27 O 0.93139 0.74963 0.17485 0.0
O28 O 0.91781 0.84256 0.17162 0.0
Zn29 Zn 0.97419 0.8411 0.17489 0.0
O30 O 0.97432 0.81889 0.19644 0.0
C31 C 0.01452 0.92977 0.18143 0.0
O32 O 0.97885 0.91279 0.1902 0.0
O33 O 0.97887 0.80235 0.15881 0.0
C34 C 0.00977 0.82604 0.20307 0.0
O35 O 0.04762 0.84755 0.19557 0.0
C36 C 0.88228 0.81614 0.16458 0.0
O37 O 0.87669 0.7791 0.15862 0.0
O38 O 0.02236 0.90434 0.17313 0.0
C39 C 0.17883 0.21868 0.33027 0.0
O40 O 0.14626 0.17944 0.33426 0.0
O41 O 0.089 0.17687 0.30275 0.0
Zn42 Zn 0.15122 0.18792 0.29909 0.0
O43 O 0.17433 0.21937 0.27852 0.0
C44 C 0.12805 0.09685 0.30654 0.0
O45 O 0.10101 0.09864 0.31678 0.0
O46 O 0.18855 0.22828 0.31601 0.0
C47 C 0.15259 0.19967 0.26643 0.0
O48 O 0.11581 0.16165 0.26787 0.0
C49 C 0.05423 0.14219 0.29835 0.0
O50 O 0.05726 0.11128 0.29072 0.0
O51 O 0.1535 0.13101 0.29855 0.0
C52 C 0.77297 0.96013 0.32073 0.0
O53 O 0.8151 0.97431 0.32315 0.0
O54 O 0.82062 0.92781 0.29225 0.0
Zn55 Zn 0.80626 0.97701 0.29069 0.0
O56 O 0.78831 0.97975 0.2686 0.0
C57 C 0.87138 0.06724 0.30344 0.0
O58 O 0.84064 0.06927 0.31165 0.0
O59 O 0.75999 0.96204 0.30708 0.0
C60 C 0.81887 0.98666 0.25895 0.0
O61 O 0.856 0.99062 0.26418 0.0
C62 C 0.85846 0.93578 0.29684 0.0
O63 O 0.88858 0.97644 0.30043 0.0
O64 O 0.86193 0.03417 0.29485 0.0
C65 C 0.06883 0.78946 0.30708 0.0
O66 O 0.08668 0.80782 0.29366 0.0
O67 O 0.05484 0.8915 0.30539 0.0
Zn68 Zn 0.01627 0.82731 0.29995 0.0
O69 O 0.02063 0.82209 0.27676 0.0
C70 C 0.94701 0.84098 0.297 0.0
O71 O 0.97623 0.86673 0.28658 0.0
O72 O 0.03571 0.79143 0.31219 0.0
C73 C 0.00898 0.7879 0.26847 0.0
O74 O -0.00718 0.74886 0.27507 0.0
C75 C 0.08971 0.91777 0.29793 0.0
O76 O 0.10459 0.90246 0.28692 0.0
O77 O 0.95485 0.81515 0.30507 0.0
C78 C 0.72791 0.85407 0.79651 0.0
O79 O 0.75945 0.88596 0.78823 0.0
O80 O 0.81051 0.81487 0.78254 0.0
Zn81 Zn 0.79381 0.82928 0.80336 0.0
O82 O 0.83723 0.89268 0.80847 0.0
C83 C 0.82134 0.77881 0.8237 0.0
O84 O 0.81461 0.75082 0.83503 0.0
O85 O 0.73441 0.82497 0.80288 0.0
C86 C 0.8438 0.91074 0.82178 0.0
O87 O 0.82334 0.88656 0.83406 0.0
C88 C 0.82999 0.84501 0.77233 0.0
O89 O 0.83759 0.88516 0.77523 0.0
O90 O 0.79078 0.78674 0.82 0.0
C91 C 0.08029 0.8113 0.79275 0.0
O92 O 0.04409 0.79087 0.7844 0.0
O93 O 0.08757 0.89076 0.75956 0.0
Zn94 Zn 0.0769 0.88693 0.78281 0.0
O95 O 0.01211 0.85443 0.78862 0.0
C96 C 0.10827 0.98032 0.78385 0.0
O97 O 0.0872 0.97015 0.77053 0.0
O98 O 0.10174 0.85327 0.7933 0.0
C99 C 0.99139 0.87368 0.79313 0.0
O100 O 0.01125 0.91707 0.793 0.0
C101 C 0.06102 0.89469 0.75054 0.0
O102 O 0.02383 0.88979 0.75619 0.0
O103 O 0.10684 0.94896 0.7918 0.0
C104 C 0.1252 0.24831 0.8244 0.0
O105 O 0.13956 0.24325 0.81085 0.0
O106 O 0.03018 0.18607 0.79524 0.0
Zn107 Zn 0.0514 0.16967 0.8147 0.0
O108 O 0.09109 0.14666 0.80759 0.0
C109 C 0.96046 0.10024 0.82022 0.0
O110 O 0.95063 0.12109 0.80966 0.0
O111 O 0.08621 0.22074 0.82889 0.0
C112 C 0.08702 0.11114 0.81318 0.0
O113 O 0.06146 0.0928 0.82537 0.0
C114 C 0.05307 0.19567 0.78279 0.0
O115 O 0.09298 0.20092 0.7832 0.0
O116 O -0.00021 0.11777 0.82529 0.0
C117 C 0.80709 0.73681 0.6699 0.0
O118 O 0.82457 0.73043 0.68248 0.0
O119 O 0.85713 0.81592 0.701 0.0
Zn120 Zn 0.86988 0.82366 0.67799 0.0
O121 O 0.92729 0.82739 0.67155 0.0
C122 C 0.85295 0.89524 0.67951 0.0
O123 O 0.81998 0.86775 0.68846 0.0
O124 O 0.82076 0.77639 0.66574 0.0
C125 C 0.93089 0.80513 0.66048 0.0
O126 O 0.89542 0.7738 0.65366 0.0
C127 C 0.88485 0.82053 0.7114 0.0
O128 O 0.92334 0.82565 0.70727 0.0
O129 O 0.87725 0.88257 0.67291 0.0
C130 C 0.21878 0.08065 0.66437 0.0
O131 O 0.2006 0.08403 0.67731 0.0
O132 O 0.12539 0.99208 0.68272 0.0
Zn133 Zn 0.13175 0.01433 0.66065 0.0
O134 O 0.10729 0.05563 0.65768 0.0
C135 C 0.10152 0.92623 0.65041 0.0
O136 O 0.13066 0.92991 0.66081 0.0
O137 O 0.19579 0.0495 0.65495 0.0
C138 C 0.10525 0.07834 0.66888 0.0
O139 O 0.11703 0.07342 0.68289 0.0
C140 C 0.08767 0.97088 0.68925 0.0
O141 O 0.05258 0.96624 0.68196 0.0
O142 O 0.0985 0.96034 0.64749 0.0
C143 C 0.87271 0.16052 0.68866 0.0
O144 O 0.86502 0.12848 0.69843 0.0
O145 O 0.98107 0.19551 0.71132 0.0
Zn146 Zn 0.95717 0.17009 0.69005 0.0
O147 O 0.92707 0.10416 0.69165 0.0
C148 C 0.0431 0.1946 0.67732 0.0
O149 O 0.05614 0.20855 0.69157 0.0
O150 O 0.9115 0.18508 0.68327 0.0
C151 C 0.91378 0.082 0.67915 0.0
O152 O 0.91793 0.10239 0.66587 0.0
C153 C -0.006 0.17408 0.71963 0.0
O154 O -0.0069 0.13882 0.71385 0.0
O155 O 0.00363 0.18329 0.67373 0.0
C156 C 0.89329 0.38847 0.49216 0.0
O157 O 0.85785 0.35198 0.48769 0.0
O158 O 0.79267 0.33011 0.51339 0.0
Zn159 Zn 0.83183 0.39632 0.51217 0.0
O160 O 0.83922 0.42082 0.53394 0.0
C161 C 0.75736 0.40075 0.50564 0.0
O162 O 0.74349 0.3662 0.51481 0.0
O163 O 0.88999 0.41337 0.5022 0.0
C164 C 0.85205 0.46151 0.53614 0.0
O165 O 0.86549 0.48887 0.52424 0.0
C166 C 0.79099 0.30806 0.52537 0.0
O167 O 0.8227 0.32599 0.53576 0.0
O168 O 0.79742 0.42053 0.50107 0.0
C169 C 0.5657 0.50484 0.53516 0.0
O170 O 0.60243 0.50916 0.54094 0.0
O171 O 0.58836 0.42013 0.52166 0.0
Zn172 Zn 0.53911 0.41321 0.53564 0.0
O173 O 0.54966 0.40133 0.55776 0.0
C174 C 0.48433 0.3375 0.51703 0.0
O175 O 0.51217 0.36172 0.50601 0.0
O176 O 0.53264 0.4665 0.53296 0.0
C177 C 0.55227 0.36649 0.55954 0.0
O178 O 0.55123 0.34363 0.54726 0.0
C179 C 0.62678 0.43184 0.52666 0.0
O180 O 0.63657 0.44368 0.54127 0.0
O181 O 0.48438 0.35688 0.52955 0.0
C182 C 0.44783 0.06088 0.54021 0.0
O183 O 0.42894 0.08233 0.54584 0.0
O184 O 0.49575 0.17063 0.54338 0.0
Zn185 Zn 0.5225 0.13545 0.55226 0.0
O186 O 0.51917 0.13253 0.5757 0.0
C187 C 0.60707 0.18031 0.53472 0.0
O188 O 0.58337 0.17591 0.5223 0.0
O189 O 0.48892 0.07594 0.5423 0.0
C190 C 0.53529 0.16929 0.58282 0.0
O191 O 0.54782 0.2057 0.5748 0.0
C192 C 0.51668 0.21032 0.53853 0.0
O193 O 0.55996 0.23315 0.5395 0.0
O194 O 0.58778 0.16347 0.54753 0.0
C195 C 0.77885 0.60196 0.62759 0.0
O196 O 0.74907 0.58423 0.61656 0.0
O197 O 0.7125 0.49434 0.62633 0.0
Zn198 Zn 0.77798 0.52315 0.62273 0.0
O199 O 0.79301 0.52095 0.6002 0.0
C200 C 0.7759 0.46999 0.64787 0.0
O201 O 0.75078 0.48429 0.65392 0.0
O202 O 0.80098 0.58363 0.63148 0.0
C203 C 0.82527 0.5149 0.59714 0.0
O204 O 0.85005 0.51447 0.60852 0.0
C205 C 0.67894 0.47297 0.61772 0.0
O206 O 0.68386 0.46615 0.60299 0.0
O207 O 0.79654 0.48683 0.63525 0.0
C208 C 0.39653 0.21899 0.65072 0.0
O209 O 0.42417 0.20675 0.64552 0.0
O210 O 0.5063 0.27433 0.66321 0.0
Zn211 Zn 0.47534 0.29766 0.6501 0.0
O212 O 0.49008 0.29868 0.62754 0.0
C213 C 0.50558 0.38651 0.6438 0.0
O214 O 0.47698 0.36934 0.63237 0.0
O215 O 0.41041 0.25952 0.65357 0.0
C216 C 0.51868 0.29158 0.62109 0.0
O217 O 0.53906 0.27532 0.62923 0.0
C218 C 0.50237 0.27469 0.67792 0.0
O219 O 0.4782 0.28991 0.68411 0.0
O220 O 0.50009 0.36143 0.65533 0.0
C221 C 0.73279 0.19218 0.66971 0.0
O222 O 0.74104 0.21695 0.65724 0.0
O223 O 0.69501 0.26985 0.66639 0.0
Zn224 Zn 0.65898 0.20428 0.67046 0.0
O225 O 0.6277 0.17873 0.65025 0.0
C226 C 0.61867 0.22306 0.69604 0.0
O227 O 0.65928 0.25582 0.69804 0.0
O228 O 0.69717 0.1798 0.67726 0.0
C229 C 0.60648 0.19688 0.64506 0.0
O230 O 0.60515 0.22788 0.65332 0.0
C231 C 0.7327 0.29903 0.67138 0.0
O232 O 0.75513 0.2881 0.68082 0.0
O233 O 0.61241 0.19378 0.68602 0.0
C234 C 0.42022 0.25915 0.14915 0.0
O235 O 0.45561 0.29524 0.1443 0.0
O236 O 0.49697 0.2013 0.14128 0.0
Zn237 Zn 0.48242 0.23135 0.15848 0.0
O238 O 0.5299 0.2949 0.15733 0.0
C239 C 0.51268 0.20109 0.18766 0.0
O240 O 0.47937 0.20231 0.18147 0.0
O241 O 0.4237 0.22755 0.15498 0.0
C242 C 0.55119 0.32098 0.16839 0.0
O243 O 0.54047 0.30791 0.18288 0.0
C244 C 0.49249 0.2091 0.12716 0.0
O245 O 0.47469 0.23358 0.12399 0.0
O246 O 0.48102 0.20329 0.18093 0.0
C247 C 0.71676 0.1582 0.12988 0.0
O248 O 0.6804 0.15766 0.12562 0.0
O249 O 0.75143 0.28561 0.1211 0.0
Zn250 Zn 0.74482 0.24712 0.13964 0.0
O251 O 0.68713 0.22764 0.15039 0.0
C252 C 0.83122 0.3105 0.14847 0.0
O253 O 0.84069 0.29644 0.13564 0.0
O254 O 0.74936 0.1936 0.13503 0.0
C255 C 0.67612 0.25592 0.1542 0.0
O256 O 0.70246 0.29786 0.15074 0.0
C257 C 0.74636 0.27436 0.10688 0.0
O258 O 0.73392 0.23337 0.10305 0.0
O259 O 0.79258 0.28715 0.15412 0.0
C260 C 0.86603 0.59962 0.13106 0.0
O261 O 0.87491 0.57797 0.12049 0.0
O262 O 0.75933 0.50331 0.11511 0.0
Zn263 Zn 0.79219 0.5156 0.13531 0.0
O264 O 0.83142 0.48909 0.13719 0.0
C265 C 0.7073 0.48377 0.14999 0.0
O266 O 0.70328 0.50907 0.13959 0.0
O267 O 0.83031 0.57997 0.13887 0.0
C268 C 0.81248 0.44798 0.14002 0.0
O269 O 0.76909 0.42474 0.14022 0.0
C270 C 0.76038 0.48198 0.10331 0.0
O271 O 0.79009 0.46948 0.1024 0.0
O272 O 0.74427 0.48537 0.15146 0.0
C273 C 0.56449 0.04089 0.0439 0.0
O274 O 0.59814 0.06295 0.05331 0.0
O275 O 0.54172 0.12318 0.06838 0.0
Zn276 Zn 0.56009 0.11894 0.04642 0.0
O277 O 0.62594 0.15518 0.04293 0.0
C278 C 0.51243 0.16292 0.03786 0.0
O279 O 0.49455 0.1504 0.05173 0.0
O280 O 0.54074 0.05729 0.03991 0.0
C281 C 0.63849 0.15776 0.02884 0.0
O282 O 0.60783 0.13628 0.01834 0.0
C283 C 0.5668 0.15712 0.07642 0.0
O284 O 0.60691 0.18456 0.07131 0.0
O285 O 0.53597 0.14778 0.03234 0.0
C286 C 0.90744 0.49619 0.02907 0.0
O287 O 0.88363 0.50037 0.0401 0.0
O288 O 0.81667 0.4008 0.04797 0.0
Zn289 Zn 0.8279 0.41514 0.02515 0.0
O290 O 0.78935 0.43755 0.01684 0.0
C291 C 0.76799 0.32942 0.01696 0.0
O292 O 0.74258 0.34606 0.02025 0.0
O293 O 0.89107 0.46075 0.02114 0.0
C294 C 0.78923 0.44891 0.00279 0.0
O295 O 0.81678 0.44791 0.99258 0.0
C296 C 0.78159 0.39309 0.05513 0.0
O297 O 0.75402 0.40348 0.04861 0.0
O298 O 0.80966 0.35503 0.01626 0.0
C299 C 0.48317 0.40681 0.04235 0.0
O300 O 0.48203 0.37667 0.0518 0.0
O301 O 0.61048 0.44569 0.0512 0.0
Zn302 Zn 0.56804 0.419 0.03328 0.0
O303 O 0.54632 0.35377 0.03302 0.0
C304 C 0.63791 0.43785 0.01515 0.0
O305 O 0.64014 0.41577 0.02715 0.0
O306 O 0.51707 0.42986 0.03391 0.0
C307 C 0.52487 0.3274 0.02203 0.0
O308 O 0.51398 0.34194 0.00967 0.0
C309 C 0.60751 0.42412 0.06349 0.0
O310 O 0.5715 0.38592 0.06606 0.0
O311 O 0.60586 0.44514 0.01417 0.0
C312 C 0.56917 0.83423 0.82303 0.0
O313 O 0.52979 0.82038 0.81706 0.0
O314 O 0.49499 0.74778 0.85322 0.0
Zn315 Zn 0.52211 0.81389 0.85213 0.0
O316 O 0.5389 0.83599 0.87416 0.0
C317 C 0.43875 0.79646 0.8401 0.0
O318 O 0.43453 0.75731 0.83799 0.0
O319 O 0.57423 0.83713 0.83771 0.0
C320 C 0.50661 0.8176 0.88366 0.0
O321 O 0.46729 0.78852 0.87844 0.0
C322 C 0.51449 0.72552 0.85181 0.0
O323 O 0.55755 0.74575 0.84976 0.0
O324 O 0.47545 0.82815 0.84485 0.0
C325 C 0.14553 0.73966 0.83854 0.0
O326 O 0.17292 0.77171 0.84776 0.0
O327 O 0.24441 0.73708 0.8511 0.0
Zn328 Zn 0.17979 0.69668 0.85614 0.0
O329 O 0.16698 0.71003 0.87764 0.0
C330 C 0.19407 0.62461 0.84908 0.0
O331 O 0.2169 0.65016 0.83736 0.0
O332 O 0.14051 0.7013 0.84018 0.0
C333 C 0.18965 0.70517 0.88817 0.0
O334 O 0.22017 0.69548 0.88423 0.0
C335 C 0.26214 0.7607 0.83906 0.0
O336 O 0.23761 0.76436 0.82829 0.0
O337 O 0.17186 0.63584 0.85773 0.0
C338 C 0.24554 0.3898 0.86426 0.0
O339 O 0.23039 0.39437 0.87772 0.0
O340 O 0.28094 0.50814 0.86778 0.0
Zn341 Zn 0.31231 0.47441 0.87241 0.0
O342 O 0.30724 0.46026 0.89531 0.0
C343 C 0.38284 0.54199 0.85518 0.0
O344 O 0.35019 0.53397 0.84573 0.0
O345 O 0.28339 0.41959 0.85953 0.0
C346 C 0.3402 0.4821 0.90419 0.0
O347 O 0.37818 0.51224 0.89826 0.0
C348 C 0.24322 0.50053 0.87243 0.0
O349 O 0.21974 0.46773 0.88206 0.0
O350 O 0.37577 0.51617 0.86662 0.0
C351 C 0.52211 0.88373 0.00947 0.0
O352 O 0.49982 0.8432 0.01499 0.0
O353 O 0.42702 0.82415 0.98808 0.0
Zn354 Zn 0.48828 0.83631 0.98227 0.0
O355 O 0.50117 0.84857 0.95926 0.0
C356 C 0.46539 0.74734 0.98958 0.0
O357 O 0.42653 0.73956 0.98479 0.0
O358 O 0.52626 0.88992 0.99484 0.0
C359 C 0.49258 0.81691 0.94999 0.0
O360 O 0.4753 0.77645 0.95542 0.0
C361 C 0.3908 0.80313 0.98074 0.0
O362 O 0.38997 0.78594 0.96706 0.0
O363 O 0.49792 0.78662 0.98952 0.0
C364 C 0.08186 0.63404 0.01059 0.0
O365 O 0.11788 0.641 0.01781 0.0
O366 O 0.16953 0.63925 0.99106 0.0
Zn367 Zn 0.14317 0.67728 0.98597 0.0
O368 O 0.13496 0.6785 0.96281 0.0
C369 C 0.21751 0.74293 0.00234 0.0
O370 O 0.2058 0.70907 0.01171 0.0
O371 O 0.08488 0.65077 -0.00281 0.0
C372 C 0.1698 0.69263 0.95458 0.0
O373 O 0.20767 0.70467 0.96149 0.0
C374 C 0.16804 0.60819 0.98297 0.0
O375 O 0.14561 0.5964 0.96992 0.0
O376 O 0.19034 0.73889 0.99178 0.0
C377 C 0.36346 0.44894 0.01559 0.0
O378 O 0.37723 0.4539 0.0011 0.0
O379 O 0.38029 0.55924 0.00332 0.0
Zn380 Zn 0.32855 0.49717 0.00275 0.0
O381 O 0.32229 0.47006 0.98134 0.0
C382 C 0.27801 0.53316 0.99541 0.0
O383 O 0.31089 0.55003 0.98538 0.0
O384 O 0.33728 0.46249 0.0196 0.0
C385 C 0.34753 0.4935 0.97031 0.0
O386 O 0.38002 0.53362 0.97315 0.0
C387 C 0.42188 0.57556 0.00421 0.0
O388 O 0.43919 0.54988 0.0054 0.0
O389 O 0.27607 0.50566 0.00557 0.0
C390 C 0.07312 0.44634 0.47427 0.0
O391 O 0.09111 0.46433 0.4608 0.0
O392 O 0.18488 0.47324 0.46227 0.0
Zn393 Zn 0.16272 0.4865 0.48208 0.0
O394 O 0.17561 0.54869 0.48017 0.0
C395 C 0.21825 0.46358 0.49919 0.0
O396 O 0.2 0.42864 0.49017 0.0
O397 O 0.0977 0.44843 0.48548 0.0
C398 C 0.16614 0.56739 0.49098 0.0
O399 O 0.14568 0.54507 0.50357 0.0
C400 C 0.22602 0.49839 0.45966 0.0
O401 O 0.25014 0.52934 0.46978 0.0
O402 O 0.20062 0.48771 0.4997 0.0
C403 C 0.52944 0.62254 0.50152 0.0
O404 O 0.51089 0.60073 0.48869 0.0
O405 O 0.50624 0.66996 0.46808 0.0
Zn406 Zn 0.48535 0.66228 0.49038 0.0
O407 O 0.42754 0.60486 0.49274 0.0
C408 C 0.50257 0.75325 0.49263 0.0
O409 O 0.54275 0.76546 0.48773 0.0
O410 O 0.52676 0.65652 0.50491 0.0
C411 C 0.3911 0.60339 0.49557 0.0
O412 O 0.38996 0.64033 0.49653 0.0
C413 C 0.48385 0.67854 0.45852 0.0
O414 O 0.44819 0.67852 0.46346 0.0
O415 O 0.47543 0.71275 0.49545 0.0
C416 C 0.36796 0.92583 0.49347 0.0
O417 O 0.39562 0.92926 0.48243 0.0
O418 O 0.3023 0.84704 0.45807 0.0
Zn419 Zn 0.32087 0.84242 0.47995 0.0
O420 O 0.37809 0.84122 0.47958 0.0
C421 C 0.24345 0.75452 0.48072 0.0
O422 O 0.23435 0.76552 0.4672 0.0
O423 O 0.32992 0.89143 0.49423 0.0
C424 C 0.38496 0.82062 0.49041 0.0
O425 O 0.35625 0.80343 0.50188 0.0
C426 C 0.32637 0.84984 0.44651 0.0
O427 O 0.36619 0.8561 0.44894 0.0
O428 O 0.2759 0.78306 0.48864 0.0
C429 C 0.26566 0.37868 0.36531 0.0
O430 O 0.2948 0.39044 0.37656 0.0
O431 O 0.27276 0.46793 0.39063 0.0
Zn432 Zn 0.28711 0.46779 0.36807 0.0
O433 O 0.35229 0.49473 0.36475 0.0
C434 C 0.23654 0.51078 0.36194 0.0
O435 O 0.20996 0.48356 0.37267 0.0
O436 O 0.25589 0.40643 0.3598 0.0
C437 C 0.36714 0.5016 0.35089 0.0
O438 O 0.33837 0.48834 0.33947 0.0
C439 C 0.30152 0.4874 0.40116 0.0
O440 O 0.34386 0.50631 0.39778 0.0
O441 O 0.26948 0.50763 0.35733 0.0
C442 C 0.63323 0.84319 0.36194 0.0
O443 O 0.61717 0.85145 0.37453 0.0
O444 O 0.55335 0.74619 0.38694 0.0
Zn445 Zn 0.55499 0.75703 0.36378 0.0
O446 O 0.51082 0.77532 0.35802 0.0
C447 C 0.4969 0.67102 0.35359 0.0
O448 O 0.46907 0.68289 0.35884 0.0
O449 O 0.61381 0.80456 0.35613 0.0
C450 C 0.50428 0.78187 0.34398 0.0
O451 O 0.52772 0.77811 0.33272 0.0
C452 C 0.5175 0.73398 0.3944 0.0
O453 O 0.48359 0.73243 0.38724 0.0
O454 O 0.53812 0.69862 0.35372 0.0
C455 C 0.17542 0.73902 0.34259 0.0
O456 O 0.16251 0.70192 0.35022 0.0
O457 O 0.27635 0.79716 0.37456 0.0
Zn458 Zn 0.26243 0.76411 0.3543 0.0
O459 O 0.24472 0.70065 0.35884 0.0
C460 C 0.35057 0.79164 0.34981 0.0
O461 O 0.34525 0.78435 0.36488 0.0
O462 O 0.21574 0.76941 0.34279 0.0
C463 C 0.23762 0.67328 0.34793 0.0
O464 O 0.23789 0.68515 0.33341 0.0
C465 C 0.25107 0.78018 0.38625 0.0
O466 O 0.21404 0.7423 0.38474 0.0
O467 O 0.31853 0.78823 0.3418 0.0
C468 C 0.01344 0.16943 0.1619 0.0
C469 C 0.04046 0.17409 0.14872 0.0
C470 C 0.97415 0.12899 0.13309 0.0
C471 C 0.94743 0.12353 0.14633 0.0
N472 N 0.94051 0.15038 0.17139 0.0
N473 N 0.04631 0.17141 0.12088 0.0
C474 C 0.96681 0.14784 0.16008 0.0
C475 C 0.02055 0.15835 0.13399 0.0
N476 N 0.0313 0.18198 0.17643 0.0
N477 N 0.95592 0.10404 0.12005 0.0
H478 H 0.08034 0.19355 0.12129 0.0
H479 H 0.03343 0.16417 0.10965 0.0
H480 H 0.9222 0.08167 0.11892 0.0
H481 H 0.97472 0.10301 0.11079 0.0
H482 H 0.01221 0.17305 0.18656 0.0
H483 H 0.06497 0.19864 0.17873 0.0
H484 H 0.953 0.17117 0.18101 0.0
H485 H 0.90621 0.13526 0.17028 0.0
C486 C 0.81083 0.86345 0.17589 0.0
C487 C 0.80459 0.87818 0.16119 0.0
C488 C 0.84094 0.84259 0.14808 0.0
C489 C 0.84828 0.8291 0.16282 0.0
N490 N 0.82928 0.81461 0.18995 0.0
N491 N 0.80212 0.8719 0.13328 0.0
C492 C 0.8293 0.8354 0.17646 0.0
C493 C 0.8157 0.86422 0.14726 0.0
N494 N 0.80229 0.87879 0.18935 0.0
N495 N 0.86045 0.83741 0.13504 0.0
H496 H 0.7834 0.88756 0.13246 0.0
H497 H 0.80568 0.8592 0.12275 0.0
H498 H 0.87858 0.82111 0.13511 0.0
H499 H 0.86087 0.85147 0.1243 0.0
H500 H 0.81162 0.87379 0.20032 0.0
H501 H 0.7885 0.89916 0.18956 0.0
H502 H 0.81239 0.81451 0.19998 0.0
H503 H 0.84257 0.79371 0.19059 0.0
C504 C 0.04098 0.04698 0.17379 0.0
C505 C 0.08526 0.0713 0.17921 0.0
C506 C 0.08446 0.0022 0.18522 0.0
C507 C 0.04065 0.97816 0.17947 0.0
N508 N 0.98068 0.97641 0.16507 0.0
N509 N 0.15209 0.07301 0.18751 0.0
C510 C 0.01989 0.00022 0.17282 0.0
C511 C 0.10805 0.04918 0.18403 0.0
N512 N 0.0189 0.06853 0.16966 0.0
N513 N 0.10263 0.98026 0.19251 0.0
H514 H 0.17004 0.10746 0.18746 0.0
H515 H 0.17168 0.05877 0.18941 0.0
H516 H 0.08651 0.94585 0.19338 0.0
H517 H 0.13232 -0.00398 0.1986 0.0
H518 H 0.985 0.05262 0.1676 0.0
H519 H 0.03402 0.10283 0.16912 0.0
H520 H 0.96596 0.99072 0.15858 0.0
H521 H 0.96464 0.94208 0.16388 0.0
C522 C 0.10952 0.03271 0.28876 0.0
C523 C 0.12547 0.05383 0.30338 0.0
C524 C 0.1275 0.98853 0.31299 0.0
C525 C 0.10628 0.96576 0.29916 0.0
N526 N 0.07173 0.96364 0.27461 0.0
N527 N 0.14987 0.05269 0.32953 0.0
C528 C 0.09642 0.98732 0.28713 0.0
C529 C 0.13469 0.03198 0.31552 0.0
N530 N 0.10624 0.05565 0.27643 0.0
N531 N 0.14144 0.96875 0.32351 0.0
H532 H 0.15874 0.08564 0.3314 0.0
H533 H 0.15214 0.03696 0.33948 0.0
H534 H 0.13662 0.93701 0.32188 0.0
H535 H 0.16071 0.98471 0.33319 0.0
H536 H 0.10041 0.04368 0.26506 0.0
H537 H 0.1127 0.08805 0.27714 0.0
H538 H 0.05823 0.97588 0.26658 0.0
H539 H 0.06139 0.93034 0.27281 0.0
C540 C 0.94002 0.12515 0.29106 0.0
C541 C 0.91852 0.10122 0.30469 0.0
C542 C 0.99011 0.12103 0.31623 0.0
C543 C 0.01005 0.13642 0.30143 0.0
N544 N 0.00605 0.15659 0.27492 0.0
N545 N 0.92184 0.07748 0.33074 0.0
C546 C 0.98574 0.14025 0.28894 0.0
C547 C 0.94332 0.10052 0.31762 0.0
N548 N 0.91618 0.13267 0.28014 0.0
N549 N 0.01581 0.12521 0.3288 0.0
H550 H 0.8878 0.06351 0.3323 0.0
H551 H 0.93727 0.07064 0.33979 0.0
H552 H 0.05008 0.13941 0.32802 0.0
H553 H 0.00388 0.11814 0.34018 0.0
H554 H 0.93007 0.15252 0.27034 0.0
H555 H 0.88261 0.12191 0.28169 0.0
H556 H 0.9893 0.15559 0.26479 0.0
H557 H 0.03998 0.16978 0.27329 0.0
C558 C 0.88903 0.89817 0.31304 0.0
C559 C 0.86872 0.89979 0.29895 0.0
C560 C 0.87991 0.84111 0.28841 0.0
C561 C 0.91003 0.8486 0.30052 0.0
N562 N 0.94237 0.8826 0.32508 0.0
N563 N 0.84531 0.87259 0.27271 0.0
C564 C 0.91351 0.87578 0.31328 0.0
C565 C 0.86315 0.87037 0.28658 0.0
N566 N 0.88479 0.91796 0.32614 0.0
N567 N 0.86811 0.8063 0.27859 0.0
H568 H 0.83369 0.8943 0.27054 0.0
H569 H 0.84526 0.85516 0.26285 0.0
H570 H 0.87919 0.78387 0.28036 0.0
H571 H 0.84385 0.79697 0.27008 0.0
H572 H 0.89568 0.91465 0.33707 0.0
H573 H 0.86626 0.93388 0.32638 0.0
H574 H 0.95072 0.9067 0.33361 0.0
H575 H 0.95951 0.86538 0.32594 0.0
C576 C 0.90139 0.83639 0.82387 0.0
C577 C 0.8649 0.80209 0.81589 0.0
C578 C 0.91127 0.81398 0.79285 0.0
C579 C 0.94805 0.84769 0.801 0.0
N580 N 0.98099 0.88243 0.82548 0.0
N581 N 0.83641 0.75137 0.79432 0.0
C582 C 0.94398 0.8564 0.81688 0.0
C583 C 0.87024 0.78876 0.80082 0.0
N584 N 0.89513 0.85099 0.83791 0.0
N585 N 0.91521 0.80698 0.77741 0.0
H586 H 0.80572 0.73259 0.79976 0.0
H587 H 0.83957 0.73714 0.7841 0.0
H588 H 0.94469 0.8248 0.77119 0.0
H589 H 0.88863 0.78592 0.77042 0.0
H590 H 0.91935 0.87957 0.84333 0.0
H591 H 0.86453 0.83672 0.84356 0.0
H592 H 0.98037 0.88629 0.83749 0.0
H593 H 0.013 0.8967 0.82095 0.0
C594 C 0.12604 0.06737 0.81381 0.0
C595 C 0.10612 0.0872 0.80499 0.0
C596 C 0.1183 0.05573 0.78147 0.0
C597 C 0.12331 0.02506 0.79067 0.0
N598 N 0.14736 0.01102 0.81522 0.0
N599 N 0.07971 0.09613 0.77974 0.0
C600 C 0.13236 0.03392 0.80678 0.0
C601 C 0.10218 0.0813 0.78855 0.0
N602 N 0.13992 0.08154 0.82866 0.0
N603 N 0.12858 0.06001 0.76599 0.0
H604 H 0.06324 0.11152 0.78426 0.0
H605 H 0.07311 0.08843 0.76796 0.0
H606 H 0.14318 0.0433 0.76088 0.0
H607 H 0.12799 0.08408 0.75897 0.0
H608 H 0.15735 0.07074 0.83542 0.0
H609 H 0.13755 0.10744 0.83373 0.0
H610 H 0.14821 0.01088 0.82734 0.0
H611 H 0.16029 0.99305 0.80993 0.0
C612 C 0.86175 0.98747 0.83019 0.0
C613 C 0.87508 0.95906 0.82313 0.0
C614 C 0.94337 0.02352 0.81388 0.0
C615 C 0.93162 0.0518 0.82183 0.0
N616 N 0.8837 0.06127 0.83963 0.0
N617 N 0.93321 0.95022 0.81146 0.0
C618 C 0.89205 0.03391 0.83067 0.0
C619 C 0.91732 0.9772 0.81596 0.0
N620 N 0.81944 0.97066 0.83559 0.0
N621 N 0.97826 0.0407 0.80369 0.0
H622 H 0.91523 0.91605 0.81279 0.0
H623 H 0.96575 0.96196 0.80785 0.0
H624 H -0.0016 0.07448 0.80173 0.0
H625 H 0.98498 0.02138 0.79616 0.0
H626 H 0.80646 0.99035 0.83917 0.0
H627 H 0.79582 0.93714 0.83527 0.0
H628 H 0.8578 0.04981 0.84765 0.0
H629 H 0.90493 0.09547 0.83997 0.0
C630 C 0.85417 0.00391 0.67418 0.0
C631 C 0.89762 0.03411 0.67936 0.0
C632 C 0.90898 0.97274 0.68642 0.0
C633 C 0.8675 0.94279 0.67969 0.0
N634 N 0.8026 0.92943 0.66545 0.0
N635 N 0.96961 0.04813 0.68764 0.0
C636 C 0.84051 0.9582 0.67312 0.0
C637 C 0.92597 0.01881 0.68474 0.0
N638 N 0.82551 0.01869 0.67084 0.0
N639 N 0.93139 0.95719 0.69495 0.0
H640 H 0.98379 0.08226 0.68627 0.0
H641 H -0.0072 0.0384 0.68989 0.0
H642 H 0.91961 0.92358 0.69682 0.0
H643 H 0.95944 0.97759 0.70148 0.0
H644 H 0.79204 -0.00229 0.66858 0.0
H645 H 0.83426 0.05192 0.67163 0.0
H646 H 0.78405 0.93946 0.65895 0.0
H647 H 0.79145 0.89564 0.66457 0.0
C648 C 0.03033 0.87994 0.63638 0.0
C649 C 0.06332 0.88188 0.64637 0.0
C650 C 0.00754 0.81636 0.66026 0.0
C651 C 0.97456 0.82242 0.65302 0.0
N652 N 0.95329 0.85279 0.63156 0.0
N653 N 0.08544 0.83757 0.66098 0.0
C654 C 0.98545 0.8511 0.64001 0.0
C655 C 0.05266 0.84508 0.6561 0.0
N656 N 0.0411 0.9065 0.62362 0.0
N657 N -0.00433 0.78462 0.67147 0.0
H658 H 0.11774 0.85633 0.65676 0.0
H659 H 0.07993 0.8103 0.66761 0.0
H660 H 0.96259 0.76234 0.67415 0.0
H661 H 0.01826 0.78126 0.67837 0.0
H662 H 0.07373 0.92725 0.61998 0.0
H663 H 0.07373 0.92725 0.61998 0.0
H664 H 0.96068 0.87459 0.62222 0.0
H665 H 0.91961 0.83231 0.63377 0.0
C666 C 0.04275 0.13837 0.65898 0.0
C667 C 0.06724 0.17664 0.66822 0.0
C668 C 0.12576 0.15789 0.67058 0.0
C669 C 0.09475 0.11391 0.66603 0.0
N670 N 0.02344 0.06226 0.65507 0.0
N671 N 0.13802 0.23021 0.6784 0.0
C672 C 0.0535 0.10426 0.65962 0.0
C673 C 0.11111 0.18903 0.67242 0.0
N674 N 0.01018 0.13518 0.64942 0.0
N675 N 0.16901 0.16967 0.67285 0.0
H676 H 0.12894 0.25453 0.67826 0.0
H677 H 0.16863 0.24019 0.68345 0.0
H678 H 0.18065 0.1478 0.67089 0.0
H679 H 0.19402 0.20173 0.6753 0.0
H680 H -0.00701 0.10893 0.64175 0.0
H681 H 0.00498 0.1618 0.64767 0.0
H682 H 0.99106 0.05286 0.65199 0.0
H683 H 0.02963 0.03602 0.65552 0.0
C684 C 0.64883 0.38897 0.50874 0.0
C685 C 0.65954 0.4292 0.51643 0.0
C686 C 0.7377 0.46005 0.50952 0.0
C687 C 0.72709 0.41834 0.50324 0.0
N688 N 0.67322 0.35188 0.49073 0.0
N689 N 0.7106 0.50722 0.51952 0.0
C690 C 0.68257 0.38625 0.50052 0.0
C691 C 0.70294 0.46625 0.51528 0.0
N692 N 0.60806 0.35208 0.51049 0.0
N693 N 0.78084 0.4927 0.51074 0.0
H694 H 0.68543 0.51267 0.52347 0.0
H695 H 0.74068 0.53621 0.51779 0.0
H696 H 0.80634 0.49117 0.50501 0.0
H697 H 0.79126 0.5211 0.51741 0.0
H698 H 0.60065 0.32096 0.50649 0.0
H699 H 0.58268 0.35114 0.51715 0.0
H700 H 0.64122 0.32881 0.48728 0.0
H701 H 0.69833 0.34963 0.48489 0.0
C702 C 0.44882 0.2662 0.53193 0.0
C703 C 0.47005 0.28944 0.51816 0.0
C704 C 0.50337 0.24316 0.5147 0.0
C705 C 0.49294 0.22974 0.53051 0.0
N706 N 0.44926 0.22146 0.5535 0.0
N707 N 0.49396 0.28191 0.49276 0.0
C708 C 0.46248 0.23793 0.53879 0.0
C709 C 0.48971 0.27186 0.50825 0.0
N710 N 0.41612 0.27188 0.53825 0.0
N711 N 0.52719 0.22934 0.50612 0.0
H712 H 0.48042 0.29996 0.48795 0.0
H713 H 0.50631 0.26892 0.48455 0.0
H714 H 0.53439 0.20554 0.51021 0.0
H715 H 0.54021 0.24162 0.49514 0.0
H716 H 0.39695 0.25415 0.54778 0.0
H717 H 0.40571 0.29184 0.5328 0.0
H718 H 0.42941 0.22869 0.56051 0.0
H719 H 0.45925 0.20132 0.55899 0.0
C720 C 0.67685 0.24753 0.54388 0.0
C721 C 0.65597 0.2094 0.53418 0.0
C722 C 0.72766 0.23106 0.52176 0.0
C723 C 0.74677 0.27162 0.52997 0.0
N724 N 0.7387 0.32131 0.54753 0.0
N725 N 0.66104 0.16353 0.51421 0.0
C726 C 0.72143 0.2803 0.54089 0.0
C727 C 0.68136 0.20071 0.52324 0.0
N728 N 0.65425 0.25331 0.55583 0.0
N729 N 0.75418 0.22153 0.51275 0.0
H730 H 0.62822 0.13875 0.51589 0.0
H731 H 0.67601 0.15764 0.50474 0.0
H732 H 0.78814 0.24326 0.51159 0.0
H733 H 0.74363 0.19114 0.50741 0.0
H734 H 0.66975 0.27646 0.56466 0.0
H735 H 0.62049 0.2336 0.55773 0.0
H736 H 0.71983 0.33181 0.55365 0.0
H737 H 0.77122 0.34662 0.54595 0.0
C738 C 0.7779 0.42349 0.66972 0.0
C739 C 0.77151 0.4281 0.65367 0.0
C740 C 0.75285 0.35152 0.64923 0.0
C741 C 0.75169 0.3448 0.66553 0.0
N742 N 0.75831 0.37332 0.69162 0.0
N743 N 0.74351 0.39284 0.62863 0.0
C744 C 0.76343 0.38059 0.67592 0.0
C745 C 0.75688 0.39132 0.64347 0.0
N746 N 0.79823 0.46014 0.67898 0.0
N747 N 0.75037 0.31991 0.63923 0.0
H748 H 0.74296 0.42007 0.62396 0.0
H749 H 0.7281 0.36509 0.62147 0.0
H750 H 0.74848 0.29066 0.64306 0.0
H751 H 0.75514 0.32493 0.62724 0.0
H752 H 0.80755 0.45925 0.69042 0.0
H753 H 0.80965 0.49208 0.67473 0.0
H754 H 0.76152 0.39727 0.69957 0.0
H755 H 0.74733 0.34237 0.69667 0.0
C756 C 0.58747 0.42287 0.64778 0.0
C757 C 0.55174 0.42228 0.63987 0.0
C758 C 0.60314 0.4656 0.61871 0.0
C759 C 0.63448 0.45503 0.62488 0.0
N760 N 0.65237 0.41648 0.6444 0.0
N761 N 0.52788 0.45261 0.61943 0.0
C762 C 0.62567 0.43195 0.63924 0.0
C763 C 0.56039 0.44685 0.6258 0.0
N764 N 0.58551 0.41601 0.66347 0.0
N765 N 0.6148 0.49485 0.6066 0.0
H766 H 0.49907 0.44502 0.62558 0.0
H767 H 0.5293 0.46464 0.60822 0.0
H768 H 0.64607 0.51001 0.60144 0.0
H769 H 0.5949 0.50686 0.60241 0.0
H770 H 0.61212 0.41862 0.66982 0.0
H771 H 0.55987 0.41424 0.67029 0.0
H772 H 0.64488 0.39639 0.65423 0.0
H773 H 0.67883 0.41916 0.63787 0.0
C774 C 0.53823 0.19721 0.69443 0.0
C775 C 0.58037 0.22905 0.69993 0.0
C776 C 0.56169 0.2872 0.697 0.0
C777 C 0.52465 0.25749 0.6879 0.0
N778 N 0.47457 0.18311 0.67903 0.0
N779 N 0.61996 0.29592 0.71463 0.0
C780 C 0.5113 0.21181 0.68725 0.0
C781 C 0.58808 0.2715 0.70397 0.0
N782 N 0.52472 0.15338 0.69611 0.0
N783 N 0.57362 0.33087 0.69792 0.0
H784 H 0.63705 0.28288 0.72049 0.0
H785 H 0.62566 0.32621 0.71893 0.0
H786 H 0.55507 0.3436 0.69299 0.0
H787 H 0.60316 0.35499 0.70283 0.0
H788 H 0.49316 0.1279 0.69329 0.0
H789 H 0.5443 0.14311 0.70191 0.0
H790 H 0.46601 0.15055 0.67665 0.0
H791 H 0.45364 0.19259 0.67388 0.0
C792 C 0.5939 0.20722 0.15679 0.0
C793 C 0.63436 0.2416 0.16286 0.0
C794 C 0.59459 0.24988 0.18503 0.0
C795 C 0.55447 0.21451 0.17917 0.0
N796 N 0.51826 0.15084 0.16238 0.0
N797 N 0.6748 0.28881 0.18445 0.0
C798 C 0.55475 0.19054 0.16589 0.0
C799 C 0.63521 0.26119 0.17745 0.0
N800 N 0.59244 0.19169 0.14206 0.0
N801 N 0.59379 0.27307 0.19774 0.0
H802 H 0.70528 0.29683 0.17954 0.0
H803 H 0.6776 0.30055 0.19577 0.0
H804 H 0.56499 0.26443 0.20405 0.0
H805 H 0.62093 0.30264 0.20139 0.0
H806 H 0.56322 0.16883 0.13666 0.0
H807 H 0.61983 0.20445 0.13464 0.0
H808 H 0.51819 0.12958 0.15386 0.0
H809 H 0.48914 0.13723 0.16893 0.0
C810 C 0.83648 0.37284 0.16391 0.0
C811 C 0.8539 0.35883 0.15179 0.0
C812 C 0.86782 0.42263 0.13606 0.0
C813 C 0.83779 0.42751 0.14588 0.0
N814 N 0.80464 0.41823 0.17128 0.0
N815 N 0.90899 0.38398 0.13173 0.0
C816 C 0.82654 0.40677 0.16074 0.0
C817 C 0.87785 0.38885 0.13969 0.0
N818 N 0.82772 0.35174 0.17795 0.0
N819 N 0.88429 0.44814 0.123 0.0
H820 H 0.91719 0.36022 0.13509 0.0
H821 H 0.92902 0.40529 0.12298 0.0
H822 H 0.87744 0.47311 0.12018 0.0
H823 H 0.90454 0.44462 0.11492 0.0
H824 H 0.81567 0.36025 0.18765 0.0
H825 H 0.83566 0.32701 0.17995 0.0
H826 H 0.79199 0.40198 0.18182 0.0
H827 H 0.7993 0.44472 0.16937 0.0
C828 C 0.60057 0.40389 0.17133 0.0
C829 C 0.59206 0.36312 0.16461 0.0
C830 C 0.65545 0.40292 0.1472 0.0
C831 C 0.66713 0.44293 0.15508 0.0
N832 N 0.65426 0.48142 0.17585 0.0
N833 N 0.61875 0.32356 0.14893 0.0
C834 C 0.64075 0.44342 0.16756 0.0
C835 C 0.62166 0.36255 0.15336 0.0
N836 N 0.56943 0.40535 0.18059 0.0
N837 N 0.67543 0.40345 0.13343 0.0
H838 H 0.59607 0.29306 0.15372 0.0
H839 H 0.64207 0.32198 0.14178 0.0
H840 H 0.6999 0.43244 0.12827 0.0
H841 H 0.66443 0.37566 0.12636 0.0
H842 H 0.57197 0.43475 0.18452 0.0
H843 H 0.53905 0.37749 0.18321 0.0
H844 H 0.63889 0.48272 0.1861 0.0
H845 H 0.68294 0.51103 0.17308 0.0
C846 C 0.55878 0.27986 0.02249 0.0
C847 C 0.5199 0.28282 0.02219 0.0
C848 C 0.47549 0.20336 0.02756 0.0
C849 C 0.51499 0.20272 0.0308 0.0
N850 N 0.59499 0.24319 0.03364 0.0
N851 N 0.44061 0.2479 0.02394 0.0
C852 C 0.55698 0.2415 0.02867 0.0
C853 C 0.47789 0.24454 0.02436 0.0
N854 N 0.59746 0.31381 0.01675 0.0
N855 N 0.43594 0.16457 0.02735 0.0
H856 H 0.44129 0.27704 0.02076 0.0
H857 H 0.40945 0.22256 0.02732 0.0
H858 H 0.43339 0.13396 0.02951 0.0
H859 H 0.40641 0.1622 0.02373 0.0
H860 H 0.62616 0.31199 0.01534 0.0
H861 H 0.59904 0.34166 0.01167 0.0
H862 H 0.62557 0.27229 0.03377 0.0
H863 H 0.59585 0.21712 0.03918 0.0
C864 C 0.74808 0.26191 0.03277 0.0
C865 C 0.74845 0.28097 0.0181 0.0
C866 C 0.69277 0.20835 0.00848 0.0
C867 C 0.68407 0.19286 0.02407 0.0
N868 N 0.71686 0.19538 0.04883 0.0
N869 N 0.72469 0.27244 0.99143 0.0
C870 C 0.71621 0.21672 0.03559 0.0
C871 C 0.72245 0.25399 0.00567 0.0
N872 N 0.77632 0.28771 0.04422 0.0
N873 N 0.67465 0.17918 -0.00353 0.0
H874 H 0.7477 0.30543 0.9889 0.0
H875 H 0.70262 0.25563 0.98244 0.0
H876 H 0.65755 0.14504 -0.00171 0.0
H877 H 0.68189 0.18823 0.9848 0.0
H878 H 0.77435 0.27773 0.05575 0.0
H879 H 0.80167 0.32002 0.04219 0.0
H880 H 0.74051 0.20977 0.05753 0.0
H881 H 0.69602 0.16133 0.05025 0.0
C882 C 0.71641 0.42676 0.99072 0.0
C883 C 0.75504 0.45953 -0.00182 0.0
C884 C 0.71443 0.49385 0.00871 0.0
C885 C 0.67484 0.45597 0.00399 0.0
N886 N 0.63863 0.39426 0.9864 0.0
N887 N 0.79501 0.53188 0.00945 0.0
C888 C 0.67618 0.42602 0.99329 0.0
C889 C 0.75544 0.49617 0.00538 0.0
N890 N 0.71721 0.39444 0.98206 0.0
N891 N 0.71195 0.52522 0.01744 0.0
H892 H 0.82495 0.53348 0.00672 0.0
H893 H 0.7985 0.56061 0.01441 0.0
H894 H 0.68173 0.52368 0.01955 0.0
H895 H 0.73901 0.55214 0.02255 0.0
H896 H 0.68881 0.36895 0.9769 0.0
H897 H 0.7463 0.39385 0.97986 0.0
H898 H 0.60789 0.39206 0.98793 0.0
H899 H 0.60789 0.39206 0.98793 0.0
C900 C 0.32834 0.76896 0.82434 0.0
C901 C 0.31053 0.78126 0.837 0.0
C902 C 0.38181 0.81479 0.85036 0.0
C903 C 0.39931 0.80138 0.83788 0.0
N904 N 0.39455 0.78038 0.81098 0.0
N905 N 0.32328 0.82772 0.85932 0.0
C906 C 0.37426 0.78357 0.82415 0.0
C907 C 0.33844 0.80832 0.84907 0.0
N908 N 0.30122 0.74062 0.81313 0.0
N909 N 0.4049 0.83066 0.86388 0.0
H910 H 0.29167 0.82376 0.8585 0.0
H911 H 0.34334 0.85112 0.86752 0.0
H912 H 0.43716 0.83734 0.86534 0.0
H913 H 0.39109 0.83492 0.87405 0.0
H914 H 0.31199 0.72653 0.80475 0.0
H915 H 0.26721 0.72827 0.81285 0.0
H916 H 0.37895 0.77123 0.8002 0.0
H917 H 0.42843 0.79157 0.81055 0.0
C918 C 0.2448 0.60752 0.86403 0.0
C919 C 0.20542 0.59208 0.85522 0.0
C920 C 0.18938 0.5156 0.85814 0.0
C921 C 0.22762 0.53097 0.86757 0.0
N922 N 0.28579 0.58957 0.88249 0.0
N923 N 0.13646 0.53186 0.84592 0.0
C924 C 0.25369 0.57642 0.87136 0.0
C925 C 0.17643 0.54617 0.85294 0.0
N926 N 0.27403 0.65194 0.86526 0.0
N927 N 0.1667 0.47232 0.85354 0.0
H928 H 0.12671 0.55352 0.84152 0.0
H929 H 0.11176 0.49873 0.84541 0.0
H930 H 0.17481 0.44885 0.85725 0.0
H931 H 0.14176 0.46022 0.84522 0.0
H932 H 0.3057 0.66492 0.86985 0.0
H933 H 0.26808 0.67613 0.86071 0.0
H934 H 0.303 0.62157 0.88693 0.0
H935 H 0.29226 0.56742 0.88848 0.0
C936 C 0.42608 0.61641 0.86766 0.0
C937 C 0.42182 0.58704 0.85545 0.0
C938 C 0.48341 0.64801 0.84138 0.0
C939 C 0.48811 0.67692 0.8538 0.0
N940 N 0.47329 0.68607 0.88053 0.0
N941 N 0.45135 0.57211 0.83237 0.0
C942 C 0.46249 0.66014 0.86753 0.0
C943 C 0.45222 0.602 0.84284 0.0
N944 N 0.39383 0.60376 0.8788 0.0
N945 N 0.50687 0.66476 0.8279 0.0
H946 H 0.42866 0.53827 0.83316 0.0
H947 H 0.47525 0.58016 0.82375 0.0
H948 H 0.53069 0.69799 0.82653 0.0
H949 H 0.50099 0.64632 0.81776 0.0
H950 H 0.39289 0.62568 0.88681 0.0
H951 H 0.36566 0.5725 0.87923 0.0
H952 H 0.45844 0.67424 0.89136 0.0
H953 H 0.50039 0.71813 0.88087 0.0
C954 C 0.47296 0.644 0.98917 0.0
C955 C 0.44963 0.62411 0.00315 0.0
C956 C 0.4503 0.69205 0.01045 0.0
C957 C 0.46966 0.71036 0.99582 0.0
N958 N 0.51191 0.71097 0.97356 0.0
N959 N 0.42875 0.63217 0.02907 0.0
C960 C 0.48559 0.6888 0.98601 0.0
C961 C 0.44286 0.64947 0.01451 0.0
N962 N 0.48006 0.61921 0.97848 0.0
N963 N 0.43737 0.7147 0.02008 0.0
H964 H 0.4237 0.60104 0.03218 0.0
H965 H 0.42588 0.64977 0.03834 0.0
H966 H 0.44498 0.74712 0.01778 0.0
H967 H 0.41814 0.70117 0.03004 0.0
H968 H 0.49167 0.62994 0.96723 0.0
H969 H 0.47266 0.58685 0.98068 0.0
H970 H 0.5275 0.69846 0.96657 0.0
H971 H 0.52145 0.74382 0.97108 0.0
C972 C 0.29653 0.77155 0.0097 0.0
C973 C 0.26581 0.77518 8e-05 0.0
C974 C 0.32267 0.81059 0.97983 0.0
C975 C 0.3494 0.79707 0.98798 0.0
N976 N 0.36068 0.76281 0.01076 0.0
N977 N 0.2575 0.81897 0.98032 0.0
C978 C 0.33665 0.77806 0.00313 0.0
C979 C 0.28121 0.80111 0.98636 0.0
N980 N 0.28766 0.76315 0.02521 0.0
N981 N 0.3366 0.83175 0.96581 0.0
H982 H 0.22985 0.81625 0.98607 0.0
H983 H 0.26768 0.84052 0.97086 0.0
H984 H 0.36825 0.84272 0.96135 0.0
H985 H 0.31653 0.83739 0.95834 0.0
H986 H 0.31037 0.76368 0.03317 0.0
H987 H 0.25963 0.76143 0.0303 0.0
H988 H 0.34976 0.74404 0.02094 0.0
H989 H 0.38952 0.76517 0.00632 0.0
C990 C 0.24041 0.61578 0.99112 0.0
C991 C 0.19474 0.58806 0.98772 0.0
C992 C 0.20201 0.5223 0.99126 0.0
C993 C 0.24696 0.55014 0.99537 0.0
N994 N 0.30541 0.62182 0.00347 0.0
N995 N 0.12977 0.51521 0.98827 0.0
C996 C 0.26489 0.59642 -0.00326 0.0
C997 C 0.17476 0.54132 0.98892 0.0
N998 N 0.2613 0.66021 0.98803 0.0
N999 N 0.1859 0.47816 0.98883 0.0
H1000 H 0.10866 0.52797 0.98681 0.0
H1001 H 0.11321 0.4814 0.99065 0.0
H1002 H 0.20463 0.4629 0.99067 0.0
H1003 H 0.15496 0.4573 0.98398 0.0
H1004 H 0.29545 0.68087 0.98881 0.0
H1005 H 0.24558 0.67588 0.98308 0.0
H1006 H 0.3184 0.65519 0.00611 0.0
H1007 H 0.32394 0.60838 0.00791 0.0
C1008 C 0.28302 0.51935 0.51452 0.0
C1009 C 0.2663 0.48578 0.50303 0.0
C1010 C 0.33531 0.52475 0.48837 0.0
C1011 C 0.35072 0.56056 0.499 0.0
N1012 N 0.34658 0.58502 0.52493 0.0
N1013 N 0.28632 0.44613 0.48485 0.0
C1014 C 0.32692 0.55562 0.51303 0.0
C1015 C 0.29576 0.48487 0.49189 0.0
N1016 N 0.25608 0.51697 0.52649 0.0
N1017 N 0.35642 0.52944 0.47447 0.0
H1018 H 0.25985 0.41582 0.48845 0.0
H1019 H 0.3081 0.44348 0.47719 0.0
H1020 H 0.38473 0.55854 0.47109 0.0
H1021 H 0.34328 0.50563 0.46571 0.0
H1022 H 0.26373 0.54278 0.53422 0.0
H1023 H 0.22515 0.48885 0.52833 0.0
H1024 H 0.33219 0.58138 0.53586 0.0
H1025 H 0.37926 0.61095 0.52434 0.0
C1026 C 0.46766 0.78666 0.47672 0.0
C1027 C 0.48452 0.78332 0.4913 0.0
C1028 C 0.44806 0.81956 0.50372 0.0
C1029 C 0.42334 0.81339 0.4899 0.0
N1030 N 0.40648 0.78548 0.46342 0.0
N1031 N 0.49164 0.79663 0.51888 0.0
C1032 C 0.43279 0.79627 0.47631 0.0
C1033 C 0.47532 0.80021 0.50487 0.0
N1034 N 0.48438 0.77981 0.46329 0.0
N1035 N 0.44614 0.84466 0.51557 0.0
H1036 H 0.51358 0.78466 0.51988 0.0
H1037 H 0.48182 0.80352 0.52949 0.0
H1038 H 0.42798 0.86088 0.51476 0.0
H1039 H 0.46611 0.85324 0.52541 0.0
H1040 H 0.47595 0.78556 0.45225 0.0
H1041 H 0.51029 0.77317 0.46326 0.0
H1042 H 0.40916 0.76808 0.45403 0.0
H1043 H 0.37916 0.78971 0.46259 0.0
C1044 C 0.25055 0.68749 0.48476 0.0
C1045 C 0.2235 0.70721 0.48478 0.0
C1046 C 0.15781 0.63483 0.48971 0.0
C1047 C 0.1854 0.61583 0.4904 0.0
N1048 N 0.25857 0.62559 0.49291 0.0
N1049 N 0.15311 0.70195 0.48977 0.0
C1050 C 0.23199 0.64269 0.48929 0.0
C1051 C 0.17755 0.68153 0.48801 0.0
N1052 N 0.29334 0.71067 0.47955 0.0
N1053 N 0.11286 0.60816 0.49006 0.0
H1054 H 0.16667 0.73607 0.48853 0.0
H1055 H 0.12043 0.68578 0.49366 0.0
H1056 H 0.09741 0.57405 0.49179 0.0
H1057 H 0.09084 0.61931 0.48775 0.0
H1058 H 0.31286 0.69629 0.47766 0.0
H1059 H 0.30815 0.74324 0.47563 0.0
H1060 H 0.29286 0.64486 0.49382 0.0
H1061 H 0.24616 0.59301 0.49664 0.0
C1062 C 0.19868 0.59 0.34774 0.0
C1063 C 0.23654 0.63121 0.35144 0.0
C1064 C 0.27128 0.5928 0.36352 0.0
C1065 C 0.23559 0.55176 0.35845 0.0
N1066 N 0.16743 0.51077 0.34428 0.0
N1067 N 0.31286 0.6718 0.35967 0.0
C1068 C 0.19972 0.55014 0.35017 0.0
C1069 C 0.27395 0.63262 0.35847 0.0
N1070 N 0.16134 0.58893 0.34238 0.0
N1071 N 0.30184 0.59383 0.37371 0.0
H1072 H 0.31665 0.70168 0.35576 0.0
H1073 H 0.34254 0.67397 0.36303 0.0
H1074 H 0.30072 0.56539 0.37804 0.0
H1075 H 0.32568 0.62272 0.37909 0.0
H1076 H 0.13117 0.55985 0.34099 0.0
H1077 H 0.15953 0.61747 0.34044 0.0
H1078 H 0.14289 0.50801 0.33675 0.0
H1079 H 0.16706 0.48101 0.34603 0.0
C1080 C 0.444 0.54942 0.36093 0.0
C1081 C 0.41461 0.53523 0.34816 0.0
C1082 C 0.45813 0.6071 0.3356 0.0
C1083 C 0.47987 0.62403 0.34996 0.0
N1084 N 0.50163 0.6117 0.37519 0.0
N1085 N 0.41085 0.54151 0.32039 0.0
C1086 C 0.47634 0.59501 0.36214 0.0
C1087 C 0.42726 0.56114 0.33442 0.0
N1088 N 0.44041 0.519 0.37168 0.0
N1089 N 0.46538 0.63535 0.32351 0.0
H1090 H 0.39184 0.50717 0.31932 0.0
H1091 H 0.42055 0.55826 0.3098 0.0
H1092 H 0.48967 0.66876 0.32396 0.0
H1093 H 0.44667 0.62604 0.31335 0.0
H1094 H 0.46169 0.52615 0.38106 0.0
H1095 H 0.41789 0.48529 0.37025 0.0
H1096 H 0.49766 0.59338 0.38523 0.0
H1097 H 0.52645 0.6448 0.37605 0.0
C1098 C 0.39057 0.76287 0.33387 0.0
C1099 C 0.39181 0.79801 0.34256 0.0
C1100 C 0.47171 0.83079 0.34591 0.0
C1101 C 0.46815 0.79083 0.34053 0.0
N1102 N 0.42482 0.71838 0.32914 0.0
N1103 N 0.43344 0.86818 0.35541 0.0
C1104 C 0.42804 0.75712 0.33406 0.0
C1105 C 0.43264 0.83328 0.34791 0.0
N1106 N 0.35347 0.73462 0.32573 0.0
N1107 N 0.51252 0.86606 0.34908 0.0
H1108 H 0.40563 0.8719 0.3561 0.0
H1109 H 0.46092 0.89253 0.36128 0.0
H1110 H 0.54143 0.86479 0.34733 0.0
H1111 H 0.5181 0.89737 0.35201 0.0
H1112 H 0.3519 0.71053 0.31819 0.0
H1113 H 0.32565 0.73817 0.32523 0.0
H1114 H 0.39498 0.69029 0.32631 0.0
H1115 H 0.45176 0.71328 0.32878 0.0
C1116 C 0.13723 0.22395 0.24126 0.0
C1117 C 0.16734 0.21863 0.25069 0.0
C1118 C 0.21537 0.23319 0.22805 0.0
C1119 C 0.18028 0.2273 0.21822 0.0
N1120 N 0.1057 0.21525 0.21571 0.0
N1121 N 0.23576 0.21771 0.25319 0.0
C1122 C 0.14093 0.22322 0.22483 0.0
C1123 C 0.20718 0.22409 0.24422 0.0
N1124 N 0.10506 0.22963 0.24811 0.0
N1125 N 0.25645 0.24746 0.22187 0.0
H1126 H 0.23122 0.21125 0.26511 0.0
H1127 H 0.2625 0.21597 0.24861 0.0
H1128 H 0.26346 0.25536 0.21009 0.0
H1129 H 0.28429 0.25592 0.22863 0.0
H1130 H 0.08436 0.23752 0.24189 0.0
H1131 H 0.10263 0.23144 0.26018 0.0
H1132 H 0.07457 0.20618 0.22025 0.0
H1133 H 0.10603 0.21449 0.20363 0.0
C1134 C 0.78268 0.96481 0.21647 0.0
C1135 C 0.82017 0.00085 0.20938 0.0
C1136 C 0.84796 0.03328 0.23506 0.0
C1137 C 0.81504 0.99349 0.24212 0.0
N1138 N 0.75224 0.91975 0.23965 0.0
N1139 N 0.88853 0.07023 0.21158 0.0
C1140 C 0.78214 0.95905 0.23289 0.0
C1141 C 0.85271 0.03553 0.21859 0.0
N1142 N 0.74779 0.936 0.20751 0.0
N1143 N 0.87388 0.06924 0.24414 0.0
H1144 H 0.89153 0.07458 0.19953 0.0
H1145 H 0.91619 0.09363 0.21765 0.0
H1146 H 0.87022 0.0689 0.25621 0.0
H1147 H 0.89587 0.10049 0.2397 0.0
H1148 H 0.71778 0.91156 0.21213 0.0
H1149 H 0.74733 0.93908 0.19545 0.0
H1150 H 0.731 0.89161 0.23331 0.0
H1151 H 0.75074 0.91407 0.25161 0.0
C1152 C 0.03055 0.78182 0.24087 0.0
C1153 C 0.00571 0.79202 0.25145 0.0
C1154 C 0.98703 0.8273 0.23062 0.0
C1155 C 0.00868 0.8141 0.21968 0.0
N1156 N 0.04319 0.7706 0.21389 0.0
N1157 N 0.94929 0.81157 0.25536 0.0
C1158 C 0.02827 0.78896 0.22464 0.0
C1159 C 0.9805 0.81074 0.24598 0.0
N1160 N 0.0574 0.76685 0.24633 0.0
N1161 N 0.97486 0.85763 0.22668 0.0
H1162 H 0.94211 0.79739 0.26644 0.0
H1163 H 0.92726 0.82138 0.25148 0.0
H1164 H 0.9816 0.87305 0.21584 0.0
H1165 H 0.96281 0.87131 0.23477 0.0
H1166 H 0.07998 0.76354 0.23933 0.0
H1167 H 0.05936 0.76076 0.25811 0.0
H1168 H 0.05383 0.74848 0.21679 0.0
H1169 H 0.04105 0.77416 0.20191 0.0
C1170 C 0.8328 0.79083 0.73407 0.0
C1171 C 0.87424 0.82354 0.72796 0.0
C1172 C 0.89011 0.86418 0.75259 0.0
C1173 C 0.84573 0.83574 0.75749 0.0
N1174 N 0.77249 0.77523 0.75166 0.0
N1175 N 0.94034 0.89535 0.73077 0.0
C1176 C 0.81646 0.79961 0.74798 0.0
C1177 C 0.90267 0.86116 0.73708 0.0
N1178 N 0.80935 0.751 0.7267 0.0
N1179 N 0.92069 0.89321 0.76288 0.0
H1180 H 0.95064 0.89563 0.71936 0.0
H1181 H 0.95938 0.92545 0.73643 0.0
H1182 H 0.9133 0.89517 0.77453 0.0
H1183 H 0.9544 0.91156 0.76036 0.0
H1184 H 0.78095 0.72436 0.73142 0.0
H1185 H 0.82094 0.74302 0.7167 0.0
H1186 H 0.74906 0.75161 0.74422 0.0
H1187 H 0.75849 0.78147 0.76137 0.0
C1188 C 0.1091 0.95415 0.73144 0.0
C1189 C 0.07369 0.91059 0.73429 0.0
C1190 C 0.05283 0.90374 0.70673 0.0
C1191 C 0.08323 0.94974 0.70467 0.0
N1192 N 0.1356 0.02031 0.7159 0.0
N1193 N 0.0137 0.84205 0.72478 0.0
C1194 C 0.11042 0.97529 0.7172 0.0
C1195 C 0.04596 0.88483 0.72193 0.0
N1196 N 0.14194 0.97543 0.74215 0.0
N1197 N 0.03178 0.878 0.6941 0.0
H1198 H 0.01006 0.8266 0.73552 0.0
H1199 H 0.99021 0.82164 0.71672 0.0
H1200 H 0.03747 0.89022 0.68275 0.0
H1201 H 0.01122 0.8439 0.69457 0.0
H1202 H 0.17073 0.00529 0.73984 0.0
H1203 H 0.14326 0.96141 0.75267 0.0
H1204 H 0.15175 0.04094 0.72531 0.0
H1205 H 0.1368 0.03765 0.70588 0.0
C1206 C 0.04209 0.22426 0.74109 0.0
C1207 C 0.00428 0.18439 0.73631 0.0
C1208 C -0.00464 0.15356 0.76248 0.0
C1209 C 0.03282 0.19363 0.76746 0.0
N1210 N 0.08531 0.27053 0.76268 0.0
N1211 N 0.93732 0.11756 0.74336 0.0
C1212 C 0.05408 0.23016 0.75711 0.0
C1213 C 0.9784 0.15122 0.74734 0.0
N1214 N 0.06772 0.25543 0.73027 0.0
N1215 N 0.97787 0.11658 0.77166 0.0
H1216 H 0.92359 0.11531 0.73238 0.0
H1217 H 0.91518 0.09478 0.75139 0.0
H1218 H 0.98993 0.11595 0.78264 0.0
H1219 H 0.95402 0.08534 0.76779 0.0
H1220 H 0.09853 0.28268 0.73275 0.0
H1221 H 0.0594 0.25269 0.71852 0.0
H1222 H 0.09916 0.29944 0.75606 0.0
H1223 H 0.09434 0.27584 0.77439 0.0
C1224 C 0.80213 0.45664 0.55802 0.0
C1225 C 0.84535 0.47652 0.55153 0.0
C1226 C 0.87387 0.52686 0.57385 0.0
C1227 C 0.8318 0.5029 0.58119 0.0
N1228 N 0.7584 0.43837 0.58154 0.0
N1229 N 0.92372 0.52702 0.55407 0.0
C1230 C 0.79653 0.46601 0.57363 0.0
C1231 C 0.88167 0.51082 0.55964 0.0
N1232 N 0.7661 0.43026 0.5491 0.0
N1233 N 0.90588 0.56568 0.58018 0.0
H1234 H 0.93067 0.51596 0.54374 0.0
H1235 H 0.95188 0.54863 0.56032 0.0
H1236 H 0.90104 0.57885 0.59041 0.0
H1237 H 0.93561 0.58687 0.57456 0.0
H1238 H 0.73366 0.41877 0.55279 0.0
H1239 H 0.76864 0.42385 0.53743 0.0
H1240 H 0.73383 0.40844 0.57697 0.0
H1241 H 0.7532 0.44268 0.59321 0.0
C1242 C 0.58158 0.35265 0.58431 0.0
C1243 C 0.54514 0.34571 0.57505 0.0
C1244 C 0.49412 0.29229 0.59408 0.0
C1245 C 0.52972 0.30471 0.60453 0.0
N1246 N 0.60782 0.35068 0.6102 0.0
N1247 N 0.46627 0.31347 0.57196 0.0
C1248 C 0.57381 0.33554 0.59978 0.0
C1249 C 0.50125 0.3167 0.58015 0.0
N1250 N 0.6235 0.37566 0.57833 0.0
N1251 N 0.45361 0.25649 0.59738 0.0
H1252 H 0.46997 0.33059 0.5616 0.0
H1253 H 0.43383 0.29663 0.5761 0.0
H1254 H 0.44779 0.2369 0.60727 0.0
H1255 H 0.42732 0.24352 0.58957 0.0
H1256 H 0.65098 0.37778 0.58386 0.0
H1257 H 0.63029 0.38973 0.56722 0.0
H1258 H 0.63974 0.37614 0.60774 0.0
H1259 H 0.60388 0.34034 0.62174 0.0
C1260 C 0.59486 0.1797 0.6012 0.0
C1261 C 0.55168 0.17293 0.59889 0.0
C1262 C 0.54229 0.17567 0.62708 0.0
C1263 C 0.58707 0.18682 0.62924 0.0
N1264 N 0.65891 0.20971 0.61794 0.0
N1265 N 0.48649 0.17102 0.60915 0.0
C1266 C 0.61416 0.19135 0.61621 0.0
C1267 C 0.52597 0.17283 0.6117 0.0
N1268 N 0.61757 0.17503 0.58904 0.0
N1269 N 0.51499 0.16636 0.63969 0.0
H1270 H 0.47314 0.16777 0.59804 0.0
H1271 H 0.46863 0.17601 0.61786 0.0
H1272 H 0.52541 0.16693 0.6511 0.0
H1273 H 0.48109 0.15417 0.63881 0.0
H1274 H 0.64703 0.1747 0.59042 0.0
H1275 H 0.60518 0.16765 0.57775 0.0
H1276 H 0.68077 0.21839 0.60857 0.0
H1277 H 0.67504 0.22075 0.62857 0.0
C1278 C 0.52475 0.13959 0.10184 0.0
C1279 C 0.54803 0.16996 0.08963 0.0
C1280 C 0.54026 0.22705 0.10336 0.0
C1281 C 0.51191 0.19528 0.11446 0.0
N1282 N 0.47054 0.11872 0.12256 0.0
N1283 N 0.56529 0.2385 0.07671 0.0
C1284 C 0.50218 0.15071 0.11323 0.0
C1285 C 0.55225 0.21258 0.08977 0.0
N1286 N 0.5253 0.10083 0.10289 0.0
N1287 N 0.55743 0.27128 0.10599 0.0
H1288 H 0.57184 0.22833 0.06613 0.0
H1289 H 0.56488 0.26812 0.07598 0.0
H1290 H 0.55181 0.28374 0.11625 0.0
H1291 H 0.58145 0.29556 0.09879 0.0
H1292 H 0.51265 0.07961 0.11244 0.0
H1293 H 0.5422 0.09198 0.09496 0.0
H1294 H 0.45925 0.0851 0.1211 0.0
H1295 H 0.45257 0.12529 0.13078 0.0
C1296 C 0.72859 0.32558 0.07076 0.0
C1297 C 0.76945 0.36614 0.0696 0.0
C1298 C 0.79583 0.34628 0.09295 0.0
C1299 C 0.75389 0.30744 0.09467 0.0
N1300 N 0.67666 0.26822 0.08798 0.0
N1301 N 0.83728 0.41989 0.08186 0.0
C1302 C 0.71912 0.2996 0.08444 0.0
C1303 C 0.80157 0.37804 0.08146 0.0
N1304 N 0.69997 0.30976 0.0585 0.0
N1305 N 0.8309 0.35179 0.10164 0.0
H1306 H 0.84172 0.44434 0.07387 0.0
H1307 H 0.85983 0.43154 0.09099 0.0
H1308 H 0.82833 0.32895 0.10998 0.0
H1309 H 0.8633 0.37672 0.09945 0.0
H1310 H 0.67246 0.27795 0.05837 0.0
H1311 H 0.70548 0.32627 0.04793 0.0
H1312 H 0.64983 0.26573 0.08187 0.0
H1313 H 0.6681 0.2486 0.09798 0.0
C1314 C 0.69688 0.42165 0.08816 0.0
C1315 C 0.72421 0.46728 0.09173 0.0
C1316 C 0.67214 0.48361 0.07828 0.0
C1317 C 0.64733 0.43887 0.07339 0.0
N1318 N 0.64417 0.36845 0.07012 0.0
N1319 N 0.74312 0.54289 0.087 0.0
C1320 C 0.662 0.40872 0.07728 0.0
C1321 C 0.71344 0.49865 0.08579 0.0
N1322 N 0.70242 0.39023 0.09566 0.0
N1323 N 0.65545 0.51135 0.07645 0.0
H1324 H 0.7743 0.55512 0.092 0.0
H1325 H 0.73873 0.56712 0.08158 0.0
H1326 H 0.62448 0.5012 0.0716 0.0
H1327 H 0.67024 0.54301 0.08121 0.0
H1328 H 0.67979 0.35648 0.09479 0.0
H1329 H 0.72668 0.39753 0.104 0.0
H1330 H 0.65591 0.34665 0.07184 0.0
H1331 H 0.62111 0.3587 0.06116 0.0
C1332 C 0.48101 0.84177 0.92383 0.0
C1333 C 0.50289 0.82514 0.93318 0.0
C1334 C 0.53438 0.81072 0.90985 0.0
C1335 C 0.51231 0.82716 0.90054 0.0
N1336 N 0.47604 0.87005 0.89857 0.0
N1337 N 0.55919 0.80485 0.93563 0.0
C1338 C 0.48929 0.84651 0.90754 0.0
C1339 C 0.53242 0.81311 0.92634 0.0
N1340 N 0.45045 0.85059 0.93032 0.0
N1341 N 0.55537 0.79091 0.90298 0.0
H1342 H 0.55902 0.80699 0.94775 0.0
H1343 H 0.58439 0.80003 0.93135 0.0
H1344 H 0.55907 0.79012 0.89096 0.0
H1345 H 0.56698 0.77312 0.90914 0.0
H1346 H 0.42976 0.85776 0.92378 0.0
H1347 H 0.44324 0.84746 0.9422 0.0
H1348 H 0.46236 0.8882 0.90312 0.0
H1349 H 0.48334 0.87534 0.88671 0.0
C1350 C 0.1994 0.73909 0.93059 0.0
C1351 C 0.16891 0.69777 0.93746 0.0
C1352 C 0.14354 0.66621 0.91145 0.0
C1353 C 0.17893 0.7051 0.90481 0.0
N1354 N 0.24201 0.7782 0.90771 0.0
N1355 N 0.11366 0.62052 0.93446 0.0
C1356 C 0.20717 0.74157 0.91428 0.0
C1357 C 0.1408 0.66107 0.92792 0.0
N1358 N 0.21976 0.77623 0.93964 0.0
N1359 N 0.11285 0.63396 0.90202 0.0
H1360 H 0.11018 0.61496 0.94641 0.0
H1361 H 0.09684 0.59145 0.92804 0.0
H1362 H 0.11465 0.63584 0.88989 0.0
H1363 H 0.08363 0.60713 0.90615 0.0
H1364 H 0.23939 0.80799 0.93516 0.0
H1365 H 0.2133 0.77587 0.95152 0.0
H1366 H 0.267 0.8036 0.91418 0.0
H1367 H 0.24729 0.78204 0.8957 0.0
C1368 C 0.30507 0.48351 0.92959 0.0
C1369 C 0.33571 0.47574 0.92125 0.0
C1370 C 0.3688 0.47076 0.94572 0.0
C1371 C 0.3382 0.47851 0.954 0.0
N1372 N 0.26973 0.47978 0.95431 0.0
N1373 N 0.38855 0.45052 0.9212 0.0
C1374 C 0.30357 0.48031 0.94608 0.0
C1375 C 0.36504 0.4657 0.92929 0.0
N1376 N 0.27985 0.49736 0.92193 0.0
N1377 N 0.4021 0.46938 0.95355 0.0
H1378 H 0.38576 0.44565 0.90918 0.0
H1379 H 0.40751 0.43887 0.92651 0.0
H1380 H 0.40407 0.47024 0.96569 0.0
H1381 H 0.42872 0.46939 0.94806 0.0
H1382 H 0.26098 0.50862 0.92761 0.0
H1383 H 0.28061 0.50151 0.9099 0.0
H1384 H 0.24144 0.47672 0.9491 0.0
H1385 H 0.26767 0.47785 0.96641 0.0
C1386 C 0.26803 0.5333 0.43513 0.0
C1387 C 0.24633 0.4954 0.44488 0.0
C1388 C 0.26251 0.4524 0.4261 0.0
C1389 C 0.28654 0.49106 0.41689 0.0
N1390 N 0.3189 0.57007 0.41376 0.0
N1391 N 0.22924 0.42104 0.45109 0.0
C1392 C 0.29172 0.53216 0.42183 0.0
C1393 C 0.24522 0.45546 0.44076 0.0
N1394 N 0.26363 0.56947 0.438 0.0
N1395 N 0.25583 0.41262 0.42074 0.0
H1396 H 0.21585 0.42175 0.46185 0.0
H1397 H 0.23239 0.39316 0.44958 0.0
H1398 H 0.27057 0.40953 0.4106 0.0
H1399 H 0.23384 0.38238 0.42588 0.0
H1400 H 0.27455 0.59616 0.43038 0.0
H1401 H 0.24507 0.57112 0.44725 0.0
H1402 H 0.32789 0.60159 0.4178 0.0
H1403 H 0.33571 0.57061 0.40364 0.0
C1404 C 0.54129 0.74542 0.42244 0.0
C1405 C 0.51234 0.71767 0.41064 0.0
C1406 C 0.46781 0.66131 0.43021 0.0
C1407 C 0.49713 0.68889 0.44196 0.0
N1408 N 0.56779 0.75175 0.44885 0.0
N1409 N 0.45482 0.64512 0.40265 0.0
C1410 C 0.53601 0.72903 0.43792 0.0
C1411 C 0.47751 0.67435 0.41434 0.0
N1412 N 0.57198 0.78844 0.4191 0.0
N1413 N 0.43052 0.62271 0.43425 0.0
H1414 H 0.46155 0.65309 0.39088 0.0
H1415 H 0.43217 0.61175 0.4045 0.0
H1416 H 0.42419 0.61019 0.44559 0.0
H1417 H 0.40497 0.6039 0.42654 0.0
H1418 H 0.59036 0.81175 0.42758 0.0
H1419 H 0.57644 0.80216 0.408 0.0
H1420 H 0.59884 0.77851 0.44616 0.0
H1421 H 0.56485 0.74173 0.46042 0.0
C1422 C 0.29482 0.78849 0.42719 0.0
C1423 C 0.30502 0.83193 0.43134 0.0
C1424 C 0.27418 0.83924 0.40664 0.0
C1425 C 0.26826 0.79764 0.40192 0.0
N1426 N 0.28059 0.73635 0.40642 0.0
N1427 N 0.30819 0.90055 0.42489 0.0
C1428 C 0.2805 0.77315 0.41186 0.0
C1429 C 0.29559 0.85785 0.42105 0.0
N1430 N 0.2976 0.76134 0.43806 0.0
N1431 N 0.25837 0.86027 0.3975 0.0
H1432 H 0.32303 0.91466 0.4355 0.0
H1433 H 0.30661 0.92286 0.41725 0.0
H1434 H 0.2428 0.84753 0.38686 0.0
H1435 H 0.25765 0.8885 0.40092 0.0
H1436 H 0.2858 0.72777 0.43622 0.0
H1437 H 0.30781 0.7712 0.44947 0.0
H1438 H 0.29411 0.72025 0.41257 0.0
H1439 H 0.27095 0.7241 0.39517 0.0
C1440 C 0.32441 0.27516 0.1612 0.0
C1441 C 0.28929 0.23805 0.15373 0.0
C1442 C 0.34243 0.22428 0.13971 0.0
C1443 C 0.37662 0.25635 0.14917 0.0
N1444 N 0.40115 0.31194 0.16929 0.0
N1445 N 0.26344 0.178 0.13544 0.0
C1446 C 0.36814 0.28246 0.15978 0.0
C1447 C 0.29797 0.21316 0.14268 0.0
N1448 N 0.31575 0.30273 0.16992 0.0
N1449 N 0.35276 0.20498 0.12782 0.0
H1450 H 0.23077 0.17092 0.13663 0.0
H1451 H 0.26675 0.15499 0.12874 0.0
H1452 H 0.38519 0.21287 0.12536 0.0
H1453 H 0.33006 0.18411 0.1196 0.0
H1454 H 0.34025 0.33275 0.17442 0.0
H1455 H 0.28391 0.29754 0.17158 0.0
H1456 H 0.39595 0.32796 0.17858 0.0
H1457 H 0.43369 0.31846 0.16861 0.0
C1458 C 0.71379 0.06127 0.14956 0.0
C1459 C 0.7485 0.06044 0.14129 0.0
C1460 C 0.74896 0.11171 0.12184 0.0
C1461 C 0.71841 0.11693 0.13119 0.0
N1462 N 0.66191 0.08829 0.15111 0.0
N1463 N 0.78781 0.07132 0.11713 0.0
C1464 C 0.69706 0.08836 0.14401 0.0
C1465 C 0.76205 0.0809 0.12649 0.0
N1466 N 0.69862 0.03768 0.1631 0.0
N1467 N 0.76682 0.13783 0.10896 0.0
H1468 H 0.79686 0.04808 0.12022 0.0
H1469 H 0.79671 0.08297 0.10578 0.0
H1470 H 0.75579 0.15883 0.10492 0.0
H1471 H 0.79311 0.13976 0.10258 0.0
H1472 H 0.67711 0.0404 0.17083 0.0
H1473 H 0.70861 0.01553 0.16678 0.0
H1474 H 0.64284 0.06618 0.15983 0.0
H1475 H 0.64942 0.10834 0.14747 0.0
C1476 C 0.95354 0.69274 0.15455 0.0
C1477 C 0.94551 0.72714 0.15012 0.0
C1478 C 0.89462 0.68075 0.12978 0.0
C1479 C 0.8993 0.64511 0.13527 0.0
N1480 N 0.94074 0.61872 0.14957 0.0
N1481 N 0.92061 0.75947 0.13062 0.0
C1482 C 0.93171 0.65181 0.14649 0.0
C1483 C 0.92037 0.72312 0.13664 0.0
N1484 N 0.98062 0.69895 0.16692 0.0
N1485 N 0.864 0.67335 0.11855 0.0
H1486 H 0.93925 0.791 0.13533 0.0
H1487 H 0.90564 0.7594 0.12016 0.0
H1488 H 0.84628 0.64308 0.11281 0.0
H1489 H 0.85477 0.69632 0.11533 0.0
H1490 H 0.98421 0.67396 0.17207 0.0
H1491 H -0.00091 0.72968 0.17232 0.0
H1492 H 0.9662 0.62231 0.15678 0.0
H1493 H 0.92463 0.58816 0.14395 0.0
C1494 C 0.26921 0.3182 0.35078 0.0
C1495 C 0.24402 0.33344 0.35894 0.0
C1496 C 0.17519 0.26989 0.3499 0.0
C1497 C 0.20032 0.25419 0.34192 0.0
N1498 N 0.26976 0.2566 0.33793 0.0
N1499 N 0.17424 0.3182 0.36996 0.0
C1500 C 0.24695 0.27617 0.34344 0.0
C1501 C 0.19733 0.30733 0.35972 0.0
N1502 N 0.31399 0.34486 0.34922 0.0
N1503 N 0.13075 0.25118 0.34731 0.0
H1504 H 0.18968 0.34531 0.37744 0.0
H1505 H 0.14053 0.29797 0.37215 0.0
H1506 H 0.11296 0.22413 0.34001 0.0
H1507 H 0.11204 0.26478 0.35139 0.0
H1508 H 0.33328 0.33758 0.34188 0.0
H1509 H 0.33165 0.376 0.35435 0.0
H1510 H 0.30331 0.26897 0.33998 0.0
H1511 H 0.25412 0.22559 0.3326 0.0
C1512 C 0.67422 0.91691 0.34809 0.0
C1513 C 0.6732 0.87834 0.35403 0.0
C1514 C 0.73802 0.89414 0.33837 0.0
C1515 C 0.74019 0.93354 0.33284 0.0
N1516 N 0.71697 0.98767 0.33496 0.0
N1517 N 0.71138 0.83797 0.35847 0.0
C1518 C 0.71035 0.94662 0.33852 0.0
C1519 C 0.7076 0.86958 0.35036 0.0
N1520 N 0.63973 0.92405 0.35081 0.0
N1521 N 0.7628 0.87843 0.33149 0.0
H1522 H 0.69004 0.82004 0.3676 0.0
H1523 H 0.7383 0.83302 0.35731 0.0
H1524 H 0.78397 0.89396 0.3221 0.0
H1525 H 0.75894 0.8475 0.33403 0.0
H1526 H 0.63604 0.94832 0.3451 0.0
H1527 H 0.61314 0.90403 0.35804 0.0
H1528 H 0.69908 0.00094 0.34006 0.0
H1529 H 0.74309 0.0101 0.32794 0.0
C1530 C 0.09361 0.73499 0.31263 0.0
C1531 C 0.09151 0.77293 0.31716 0.0
C1532 C 0.1359 0.78137 0.34025 0.0
C1533 C 0.14295 0.74726 0.33461 0.0
N1534 N 0.13158 0.69308 0.31503 0.0
N1535 N 0.11505 0.83605 0.33412 0.0
C1536 C 0.12225 0.72405 0.32077 0.0
C1537 C 0.11346 0.79697 0.33075 0.0
N1538 N 0.06766 0.70912 0.30072 0.0
N1539 N 0.15001 0.79825 0.35483 0.0
H1540 H 0.09942 0.84908 0.32742 0.0
H1541 H 0.13495 0.85754 0.34281 0.0
H1542 H 0.16632 0.78727 0.36217 0.0
H1543 H 0.14186 0.81994 0.36023 0.0
H1544 H 0.06429 0.67863 0.29783 0.0
H1545 H 0.04647 0.71643 0.29451 0.0
H1546 H 0.12166 0.67869 0.30409 0.0
H1547 H 0.15187 0.68374 0.3208 0.0
C1548 C 0.64557 0.81547 0.79641 0.0
C1549 C 0.68628 0.85386 0.79996 0.0
C1550 C 0.64645 0.8845 0.81396 0.0
C1551 C 0.60721 0.84283 0.81299 0.0
N1552 N 0.56926 0.76709 0.8039 0.0
N1553 N 0.7264 0.92474 0.81289 0.0
C1554 C 0.60639 0.80805 0.80413 0.0
C1555 C 0.68702 0.8888 0.8087 0.0
N1556 N 0.64451 0.78628 0.78558 0.0
N1557 N 0.64472 0.91999 0.81983 0.0
H1558 H 0.75705 0.92956 0.80934 0.0
H1559 H 0.72889 0.94838 0.82084 0.0
H1560 H 0.61524 0.91777 0.82363 0.0
H1561 H 0.67135 0.95226 0.81948 0.0
H1562 H 0.6153 0.75979 0.78135 0.0
H1563 H 0.67281 0.79123 0.77966 0.0
H1564 H 0.56862 0.73924 0.79924 0.0
H1565 H 0.53972 0.75985 0.80937 0.0
C1566 C 0.13103 0.74729 0.81039 0.0
C1567 C 0.12148 0.74917 0.82639 0.0
C1568 C 0.07596 0.78188 0.81948 0.0
C1569 C 0.09108 0.7861 0.80389 0.0
N1570 N 0.13308 0.77431 0.78414 0.0
N1571 N 0.08359 0.76593 0.84642 0.0
C1572 C 0.11816 0.76866 0.79918 0.0
C1573 C 0.09324 0.7655 0.83099 0.0
N1574 N 0.15241 0.7253 0.80589 0.0
N1575 N 0.0446 0.793 0.82316 0.0
H1576 H 0.0924 0.75065 0.85501 0.0
H1577 H 0.06817 0.78252 0.85087 0.0
H1578 H 0.03157 0.80551 0.81501 0.0
H1579 H 0.02889 0.78687 0.83394 0.0
H1580 H 0.15635 0.71899 0.79432 0.0
H1581 H 0.1632 0.7099 0.81367 0.0
H1582 H 0.15733 0.76747 0.78031 0.0
H1583 H 0.12298 0.78845 0.77554 0.0
C1584 C 0.19792 0.36349 0.84058 0.0
C1585 C 0.21586 0.35365 0.85381 0.0
C1586 C 0.17532 0.27475 0.84739 0.0
C1587 C 0.15549 0.28434 0.83473 0.0
N1588 N 0.14268 0.33569 0.82011 0.0
N1589 N 0.21876 0.30059 0.87102 0.0
C1590 C 0.16551 0.32818 0.83149 0.0
C1591 C 0.2036 0.30941 0.8576 0.0
N1592 N 0.21178 0.40656 0.83674 0.0
N1593 N 0.16841 0.23282 0.84926 0.0
H1594 H 0.24163 0.32531 0.87832 0.0
H1595 H 0.20692 0.26884 0.87545 0.0
H1596 H 0.14745 0.20642 0.84212 0.0
H1597 H 0.1857 0.22459 0.85715 0.0
H1598 H 0.20416 0.41624 0.82628 0.0
H1599 H 0.23303 0.43338 0.84364 0.0
H1600 H 0.14463 0.36606 0.81823 0.0
H1601 H 0.11897 0.31055 0.81315 0.0
C1602 C 0.79021 0.6777 0.63236 0.0
C1603 C 0.77773 0.63492 0.63802 0.0
C1604 C 0.76528 0.65545 0.66406 0.0
C1605 C 0.78303 0.69957 0.65872 0.0
N1606 N 0.78634 0.74409 0.63667 0.0
N1607 N 0.73923 0.57855 0.65758 0.0
C1608 C 0.78733 0.70821 0.64248 0.0
C1609 C 0.76078 0.62227 0.65341 0.0
N1610 N 0.8062 0.68974 0.61755 0.0
N1611 N 0.75262 0.64565 0.67928 0.0
H1612 H 0.7341 0.55338 0.64988 0.0
H1613 H 0.72331 0.56655 0.66822 0.0
H1614 H 0.74992 0.66808 0.6866 0.0
H1615 H 0.74481 0.61588 0.68465 0.0
H1616 H 0.82031 0.72215 0.61347 0.0
H1617 H 0.80848 0.66808 0.60973 0.0
H1618 H 0.78673 0.75034 0.62479 0.0
H1619 H 0.7781 0.76348 0.64358 0.0
C1620 C 0.34018 0.16482 0.66913 0.0
C1621 C 0.35055 0.18515 0.65427 0.0
C1622 C 0.27348 0.13936 0.6463 0.0
C1623 C 0.26447 0.11515 0.66046 0.0
N1624 N 0.29143 0.09945 0.68408 0.0
N1625 N 0.32926 0.18849 0.62785 0.0
C1626 C 0.29844 0.12638 0.67155 0.0
C1627 C 0.31788 0.17132 0.64255 0.0
N1628 N 0.36971 0.18289 0.68106 0.0
N1629 N 0.2396 0.13393 0.63689 0.0
H1630 H 0.36122 0.2132 0.62485 0.0
H1631 H 0.30779 0.17598 0.61842 0.0
H1632 H 0.20636 0.11241 0.63949 0.0
H1633 H 0.24416 0.15404 0.62729 0.0
H1634 H 0.36223 0.17179 0.69253 0.0
H1635 H 0.40007 0.21193 0.6798 0.0
H1636 H 0.31648 0.10382 0.69169 0.0
H1637 H 0.26168 0.07009 0.68598 0.0
C1638 C 0.78151 0.16019 0.66465 0.0
C1639 C 0.76591 0.18069 0.67516 0.0
C1640 C 0.81734 0.18342 0.69512 0.0
C1641 C 0.83615 0.16758 0.684 0.0
N1642 N 0.83912 0.1437 0.65787 0.0
N1643 N 0.77185 0.21635 0.69994 0.0
C1644 C 0.8192 0.15692 0.66864 0.0
C1645 C 0.7842 0.19309 0.69035 0.0
N1646 N 0.7589 0.1419 0.65117 0.0
N1647 N 0.83122 0.18936 0.71026 0.0
H1648 H 0.74705 0.22345 0.69727 0.0
H1649 H 0.7883 0.23149 0.71019 0.0
H1650 H 0.85772 0.18596 0.71404 0.0
H1651 H 0.81478 0.19497 0.71933 0.0
H1652 H 0.76578 0.12252 0.64375 0.0
H1653 H 0.73024 0.14234 0.64811 0.0
H1654 H 0.83177 0.14069 0.64604 0.0
H1655 H 0.86515 0.13835 0.66054 0.0
C1656 C -0.00164 0.38567 0.48258 0.0
C1657 C 0.02558 0.42957 0.47713 0.0
C1658 C 0.96254 0.44194 0.47824 0.0
C1659 C 0.9373 0.40058 0.48582 0.0
N1660 N 0.93261 0.33487 0.49705 0.0
N1661 N 0.03558 0.50222 0.47201 0.0
C1662 C 0.95536 0.37262 0.48837 0.0
C1663 C 0.00819 0.45842 0.47541 0.0
N1664 N 0.0133 0.35624 0.48194 0.0
N1665 N 0.94263 0.4651 0.47347 0.0
H1666 H 0.06954 0.51632 0.47024 0.0
H1667 H 0.02538 0.52559 0.4724 0.0
H1668 H 0.909 0.45367 0.47517 0.0
H1669 H 0.95836 0.49327 0.46648 0.0
H1670 H -0.00668 0.32258 0.48426 0.0
H1671 H 0.04455 0.36468 0.47763 0.0
H1672 H 0.94632 0.31596 0.50076 0.0
H1673 H 0.90125 0.32429 0.5017 0.0
C1674 C 0.59011 0.56621 0.51563 0.0
C1675 C 0.56436 0.54356 0.52894 0.0
C1676 C 0.52111 0.58069 0.52618 0.0
C1677 C 0.54651 0.60286 0.51276 0.0
N1678 N 0.61202 0.62662 0.49727 0.0
N1679 N 0.51419 0.53764 0.5493 0.0
C1680 C 0.5835 0.599 0.50841 0.0
C1681 C 0.53282 0.55376 0.53504 0.0
N1682 N 0.61845 0.55423 0.50919 0.0
N1683 N 0.48412 0.58288 0.52985 0.0
H1684 H 0.5224 0.51791 0.55603 0.0
H1685 H 0.49402 0.54716 0.55507 0.0
H1686 H 0.47459 0.60264 0.52383 0.0
H1687 H 0.46125 0.56298 0.53828 0.0
H1688 H 0.634 0.56592 0.49846 0.0
H1689 H 0.6241 0.53005 0.51393 0.0
H1690 H 0.64194 0.62836 0.49454 0.0
H1691 H 0.60769 0.65095 0.49184 0.0
C1692 C 0.42115 0.03771 0.51307 0.0
C1693 C 0.42417 0.02579 0.52863 0.0
C1694 C 0.3885 0.94773 0.52135 0.0
C1695 C 0.38352 0.95939 0.50592 0.0
N1696 N 0.38689 0.01355 0.48774 0.0
N1697 N 0.40414 0.97003 0.54841 0.0
C1698 C 0.39743 0.00388 0.50197 0.0
C1699 C 0.40569 0.98091 0.53304 0.0
N1700 N 0.44228 0.08135 0.50878 0.0
N1701 N 0.37924 0.90561 0.52466 0.0
H1702 H 0.41728 0.99372 0.55722 0.0
H1703 H 0.38675 0.93766 0.55257 0.0
H1704 H 0.36668 0.88017 0.5165 0.0
H1705 H 0.38728 0.89656 0.53517 0.0
H1706 H 0.44568 0.09198 0.49727 0.0
H1707 H 0.4594 0.10723 0.51662 0.0
H1708 H 0.39211 0.04468 0.48471 0.0
H1709 H 0.36913 0.98937 0.4794 0.0
C1710 C 0.51355 0.96099 0.03857 0.0
C1711 C 0.55605 -0.00117 0.03689 0.0
C1712 C 0.5788 0.95715 0.02004 0.0
C1713 C 0.53448 0.92179 0.01985 0.0
N1714 N 0.45752 0.89329 0.02677 0.0
N1715 N 0.62774 0.03545 0.02424 0.0
C1716 C 0.50122 0.92426 0.02864 0.0
C1717 C 0.5886 -0.00241 0.02728 0.0
N1718 N 0.48515 0.95998 0.04977 0.0
N1719 N 0.61157 0.95186 0.01349 0.0
H1720 H 0.63611 0.06612 0.02899 0.0
H1721 H 0.65037 0.03726 0.01592 0.0
H1722 H 0.60545 0.92246 0.00816 0.0
H1723 H 0.6451 0.97495 0.01464 0.0
H1724 H 0.45539 0.93155 0.05253 0.0
H1725 H 0.49342 0.98627 0.05739 0.0
H1726 H 0.43187 0.89643 0.03164 0.0
H1727 H 0.44634 0.86668 0.01912 0.0
C1728 C 0.98817 0.52394 0.02531 0.0
C1729 C 0.95273 0.53273 0.02562 0.0
C1730 C 0.00411 0.61029 0.0188 0.0
C1731 C 0.03801 0.59983 0.01646 0.0
N1732 N 0.0595 0.54397 0.01432 0.0
N1733 N 0.92534 0.58273 0.02024 0.0
C1734 C 0.02943 0.55596 0.01892 0.0
C1735 C 0.96022 0.57559 0.02182 0.0
N1736 N 0.98284 0.48549 0.03151 0.0
N1737 N 0.014 0.65344 0.01846 0.0
H1738 H 0.89255 0.55814 0.02199 0.0
H1739 H 0.92855 0.61197 0.0158 0.0
H1740 H 0.04589 0.6797 0.01636 0.0
H1741 H 0.99158 0.66346 0.02168 0.0
H1742 H 0.00896 0.47946 0.03299 0.0
H1743 H 0.95337 0.46164 0.0367 0.0
H1744 H 0.05265 0.51129 0.01434 0.0
H1745 H 0.0895 0.56564 0.00894 0.0
C1746 C 0.41691 0.46348 0.03722 0.0
C1747 C 0.38335 0.43288 0.02714 0.0
C1748 C 0.40779 0.37916 0.03113 0.0
C1749 C 0.44372 0.41123 0.04005 0.0
N1750 N 0.47546 0.47733 0.05551 0.0
N1751 N 0.33804 0.35817 0.01831 0.0
C1752 C 0.44574 0.45123 0.04445 0.0
C1753 C 0.37578 0.38936 0.02546 0.0
N1754 N 0.423 0.50506 0.03904 0.0
N1755 N 0.40593 0.34031 0.02725 0.0
H1756 H 0.31419 0.36531 0.0142 0.0
H1757 H 0.3284 0.32476 0.01773 0.0
H1758 H 0.42797 0.3312 0.03165 0.0
H1759 H 0.38384 0.31792 0.01921 0.0
H1760 H 0.45034 0.53078 0.04451 0.0
H1761 H 0.40135 0.51456 0.03452 0.0
H1762 H 0.47646 0.50522 0.06027 0.0
H1763 H 0.49671 0.46861 0.06095 0.0
loop_
_geom_bond_atom_site_label_1
_geom_bond_atom_site_label_2
_geom_bond_distance
_geom_bond_site_symmetry_2
_ccdc_geom_bond_type
C0 O1 1.160 . S
C0 O7 1.185 . S
O1 C0 1.160 . S
O2 Zn3 1.899 . S
O2 C10 1.284 . S
Zn3 O2 1.899 . S
Zn3 O4 2.032 . S
Zn3 O7 2.086 . S
Zn3 O12 1.977 . S
O4 Zn3 2.032 . S
O4 C8 1.278 . S
C5 O6 1.203 . S
C5 O12 1.267 . S
O6 C5 1.203 . S
O7 C0 1.185 . S
O7 Zn3 2.086 . S
C8 O4 1.278 . S
C8 O9 1.211 . S
O9 C8 1.211 . S
C10 O2 1.284 . S
C10 O11 1.273 . S
O11 C10 1.273 . S
O12 Zn3 1.977 . S
O12 C5 1.267 . S
C13 O14 1.160 . S
C13 O20 1.185 . S
O14 C13 1.160 . S
O15 Zn16 1.899 . S
O15 C23 1.284 . S
Zn16 O15 1.899 . S
Zn16 O17 2.032 . S
Zn16 O20 2.086 . S
Zn16 O25 1.977 1_545 S
O17 Zn16 2.032 . S
O17 C21 1.278 1_545 S
C18 O19 1.203 . S
C18 O25 1.267 . S
O19 C18 1.203 . S
O20 C13 1.185 . S
O20 Zn16 2.086 . S
C21 O17 1.278 1_565 S
C21 O22 1.211 . S
O22 C21 1.211 . S
C23 O15 1.284 . S
C23 O24 1.273 . S
O24 C23 1.273 . S
O25 Zn16 1.977 1_565 S
O25 C18 1.267 . S
C26 O27 1.160 . S
C26 O33 1.185 . S
O27 C26 1.160 . S
O28 Zn29 1.899 . S
O28 C36 1.284 . S
Zn29 O28 1.899 . S
Zn29 O30 2.032 . S
Zn29 O33 2.086 . S
Zn29 O38 1.977 1_655 S
O30 Zn29 2.032 . S
O30 C34 1.269 1_655 S
C31 O32 1.203 . S
C31 O38 1.267 . S
O32 C31 1.203 . S
O33 C26 1.185 . S
O33 Zn29 2.086 . S
C34 O30 1.269 1_455 S
C34 O35 1.218 . S
O35 C34 1.218 . S
C36 O28 1.284 . S
C36 O37 1.273 . S
O37 C36 1.273 . S
O38 Zn29 1.977 1_455 S
O38 C31 1.267 . S
C39 O40 1.160 . S
C39 O46 1.185 . S
O40 C39 1.160 . S
O41 Zn42 1.899 . S
O41 C49 1.284 . S
Zn42 O41 1.899 . S
Zn42 O43 2.032 . S
Zn42 O46 2.086 . S
Zn42 O51 1.977 . S
O43 Zn42 2.032 . S
O43 C47 1.278 . S
C44 O45 1.203 . S
C44 O51 1.267 . S
O45 C44 1.203 . S
O46 C39 1.185 . S
O46 Zn42 2.086 . S
C47 O43 1.278 . S
C47 O48 1.211 . S
O48 C47 1.211 . S
C49 O41 1.284 . S
C49 O50 1.273 . S
O50 C49 1.273 . S
O51 Zn42 1.977 . S
O51 C44 1.267 . S
C52 O53 1.160 . S
C52 O59 1.185 . S
O53 C52 1.160 . S
O54 Zn55 1.899 . S
O54 C62 1.284 . S
Zn55 O54 1.899 . S
Zn55 O56 2.032 . S
Zn55 O59 2.086 . S
Zn55 O64 1.977 1_565 S
O56 Zn55 2.032 . S
O56 C60 1.278 1_565 S
C57 O58 1.203 . S
C57 O64 1.267 . S
O58 C57 1.203 . S
O59 C52 1.185 . S
O59 Zn55 2.086 . S
C60 O56 1.278 1_545 S
C60 O61 1.211 . S
O61 C60 1.211 . S
C62 O54 1.284 . S
C62 O63 1.273 . S
O63 C62 1.273 . S
O64 Zn55 1.977 1_545 S
O64 C57 1.267 . S
C65 O66 1.160 . S
C65 O72 1.185 . S
O66 C65 1.160 . S
O67 Zn68 1.899 . S
O67 C75 1.284 . S
Zn68 O67 1.899 . S
Zn68 O69 2.032 . S
Zn68 O72 2.086 . S
Zn68 O77 1.977 1_455 S
O69 Zn68 2.032 . S
O69 C73 1.278 1_455 S
C70 O71 1.203 . S
C70 O77 1.267 . S
O71 C70 1.203 . S
O72 C65 1.185 . S
O72 Zn68 2.086 . S
C73 O69 1.278 1_655 S
C73 O74 1.211 . S
O74 C73 1.211 . S
C75 O67 1.284 . S
C75 O76 1.273 . S
O76 C75 1.273 . S
O77 Zn68 1.977 1_655 S
O77 C70 1.267 . S
C78 O79 1.160 . S
C78 O85 1.185 . S
O79 C78 1.160 . S
O80 Zn81 1.899 . S
O80 C88 1.284 . S
Zn81 O80 1.899 . S
Zn81 O82 2.032 . S
Zn81 O85 2.086 . S
Zn81 O90 1.977 . S
O82 Zn81 2.032 . S
O82 C86 1.278 . S
C83 O84 1.203 . S
C83 O90 1.267 . S
O84 C83 1.203 . S
O85 C78 1.185 . S
O85 Zn81 2.086 . S
C86 O82 1.278 . S
C86 O87 1.211 . S
O87 C86 1.211 . S
C88 O80 1.284 . S
C88 O89 1.273 . S
O89 C88 1.273 . S
O90 Zn81 1.977 . S
O90 C83 1.267 . S
C91 O92 1.160 . S
C91 O98 1.185 . S
O92 C91 1.160 . S
O93 Zn94 1.899 . S
O93 C101 1.284 . S
Zn94 O93 1.899 . S
Zn94 O95 2.032 . S
Zn94 O98 2.086 . S
Zn94 O103 1.977 1_565 S
O95 Zn94 2.032 . S
O95 C99 1.278 . S
C96 O97 1.203 . S
C96 O103 1.267 . S
O97 C96 1.203 . S
O98 C91 1.185 . S
O98 Zn94 2.086 . S
C99 O95 1.278 . S
C99 O100 1.211 . S
O100 C99 1.211 . S
C101 O93 1.284 . S
C101 O102 1.273 . S
O102 C101 1.273 . S
O103 Zn94 1.977 1_545 S
O103 C96 1.267 . S
C104 O105 1.160 . S
C104 O111 1.185 . S
O105 C104 1.160 . S
O106 Zn107 1.899 . S
O106 C114 1.284 . S
Zn107 O106 1.899 . S
Zn107 O108 2.032 . S
Zn107 O111 2.086 . S
Zn107 O116 1.977 1_455 S
O108 Zn107 2.032 . S
O108 C112 1.278 . S
C109 O110 1.203 . S
C109 O116 1.267 . S
O110 C109 1.203 . S
O111 C104 1.185 . S
O111 Zn107 2.086 . S
C112 O108 1.278 . S
C112 O113 1.211 . S
O113 C112 1.211 . S
C114 O106 1.284 . S
C114 O115 1.273 . S
O115 C114 1.273 . S
O116 Zn107 1.977 1_655 S
O116 C109 1.267 . S
C117 O118 1.160 . S
C117 O124 1.185 . S
O118 C117 1.160 . S
O119 Zn120 1.899 . S
O119 C127 1.284 . S
Zn120 O119 1.899 . S
Zn120 O121 2.032 . S
Zn120 O124 2.086 . S
Zn120 O129 1.977 . S
O121 Zn120 2.032 . S
O121 C125 1.278 . S
C122 O123 1.203 . S
C122 O129 1.267 . S
O123 C122 1.203 . S
O124 C117 1.185 . S
O124 Zn120 2.086 . S
C125 O121 1.278 . S
C125 O126 1.211 . S
O126 C125 1.211 . S
C127 O119 1.284 . S
C127 O128 1.273 . S
O128 C127 1.273 . S
O129 Zn120 1.977 . S
O129 C122 1.267 . S
C130 O131 1.160 . S
C130 O137 1.185 . S
O131 C130 1.160 . S
O132 Zn133 1.899 . S
O132 C140 1.284 . S
Zn133 O132 1.899 . S
Zn133 O134 2.032 . S
Zn133 O137 2.086 . S
Zn133 O142 1.977 1_545 S
O134 Zn133 2.032 . S
O134 C138 1.278 . S
C135 O136 1.203 . S
C135 O142 1.267 . S
O136 C135 1.203 . S
O137 C130 1.185 . S
O137 Zn133 2.086 . S
C138 O134 1.278 . S
C138 O139 1.211 . S
O139 C138 1.211 . S
C140 O132 1.284 . S
C140 O141 1.273 . S
O141 C140 1.273 . S
O142 Zn133 1.977 1_565 S
O142 C135 1.267 . S
C143 O144 1.160 . S
C143 O150 1.185 . S
O144 C143 1.160 . S
O145 Zn146 1.899 . S
O145 C153 1.284 . S
Zn146 O145 1.899 . S
Zn146 O147 2.032 . S
Zn146 O150 2.086 . S
Zn146 O155 1.977 1_655 S
O147 Zn146 2.032 . S
O147 C151 1.278 . S
C148 O149 1.203 . S
C148 O155 1.267 . S
O149 C148 1.203 . S
O150 C143 1.185 . S
O150 Zn146 2.086 . S
C151 O147 1.278 . S
C151 O152 1.211 . S
O152 C151 1.211 . S
C153 O145 1.284 . S
C153 O154 1.273 . S
O154 C153 1.273 . S
O155 Zn146 1.977 1_455 S
O155 C148 1.267 . S
C156 O157 1.160 . S
C156 O163 1.185 . S
O157 C156 1.160 . S
O158 Zn159 1.899 . S
O158 C166 1.284 . S
Zn159 O158 1.899 . S
Zn159 O160 2.032 . S
Zn159 O163 2.086 . S
Zn159 O168 1.977 . S
O160 Zn159 2.032 . S
O160 C164 1.278 . S
C161 O162 1.203 . S
C161 O168 1.267 . S
O162 C161 1.203 . S
O163 C156 1.185 . S
O163 Zn159 2.086 . S
C164 O160 1.278 . S
C164 O165 1.211 . S
O165 C164 1.211 . S
C166 O158 1.284 . S
C166 O167 1.273 . S
O167 C166 1.273 . S
O168 Zn159 1.977 . S
O168 C161 1.267 . S
C169 O170 1.160 . S
C169 O176 1.185 . S
O170 C169 1.160 . S
O171 Zn172 1.899 . S
O171 C179 1.284 . S
Zn172 O171 1.899 . S
Zn172 O173 2.032 . S
Zn172 O176 2.086 . S
Zn172 O181 1.977 . S
O173 Zn172 2.032 . S
O173 C177 1.278 . S
C174 O175 1.203 . S
C174 O181 1.267 . S
O175 C174 1.203 . S
O176 C169 1.185 . S
O176 Zn172 2.086 . S
C177 O173 1.278 . S
C177 O178 1.211 . S
O178 C177 1.211 . S
C179 O171 1.284 . S
C179 O180 1.273 . S
O180 C179 1.273 . S
O181 Zn172 1.977 . S
O181 C174 1.267 . S
C182 O183 1.160 . S
C182 O189 1.185 . S
O183 C182 1.160 . S
O184 Zn185 1.899 . S
O184 C192 1.284 . S
Zn185 O184 1.899 . S
Zn185 O186 2.032 . S
Zn185 O189 2.086 . S
Zn185 O194 1.977 . S
O186 Zn185 2.032 . S
O186 C190 1.278 . S
C187 O188 1.203 . S
C187 O194 1.267 . S
O188 C187 1.203 . S
O189 C182 1.185 . S
O189 Zn185 2.086 . S
C190 O186 1.278 . S
C190 O191 1.211 . S
O191 C190 1.211 . S
C192 O184 1.284 . S
C192 O193 1.273 . S
O193 C192 1.273 . S
O194 Zn185 1.977 . S
O194 C187 1.267 . S
C195 O196 1.160 . S
C195 O202 1.185 . S
O196 C195 1.160 . S
O197 Zn198 1.899 . S
O197 C205 1.284 . S
Zn198 O197 1.899 . S
Zn198 O199 2.032 . S
Zn198 O202 2.086 . S
Zn198 O207 1.977 . S
O199 Zn198 2.032 . S
O199 C203 1.278 . S
C200 O201 1.203 . S
C200 O207 1.267 . S
O201 C200 1.203 . S
O202 C195 1.185 . S
O202 Zn198 2.086 . S
C203 O199 1.278 . S
C203 O204 1.211 . S
O204 C203 1.211 . S
C205 O197 1.284 . S
C205 O206 1.273 . S
O206 C205 1.273 . S
O207 Zn198 1.977 . S
O207 C200 1.267 . S
C208 O209 1.160 . S
C208 O215 1.185 . S
O209 C208 1.160 . S
O210 Zn211 1.899 . S
O210 C218 1.284 . S
Zn211 O210 1.899 . S
Zn211 O212 2.032 . S
Zn211 O215 2.086 . S
Zn211 O220 1.977 . S
O212 Zn211 2.032 . S
O212 C216 1.278 . S
C213 O214 1.203 . S
C213 O220 1.267 . S
O214 C213 1.203 . S
O215 C208 1.185 . S
O215 Zn211 2.086 . S
C216 O212 1.278 . S
C216 O217 1.211 . S
O217 C216 1.211 . S
C218 O210 1.284 . S
C218 O219 1.273 . S
O219 C218 1.273 . S
O220 Zn211 1.977 . S
O220 C213 1.267 . S
C221 O222 1.160 . S
C221 O228 1.185 . S
O222 C221 1.160 . S
O223 Zn224 1.899 . S
O223 C231 1.284 . S
Zn224 O223 1.899 . S
Zn224 O225 2.032 . S
Zn224 O228 2.086 . S
Zn224 O233 1.977 . S
O225 Zn224 2.032 . S
O225 C229 1.278 . S
C226 O227 1.203 . S
C226 O233 1.267 . S
O227 C226 1.203 . S
O228 C221 1.185 . S
O228 Zn224 2.086 . S
C229 O225 1.278 . S
C229 O230 1.211 . S
O230 C229 1.211 . S
C231 O223 1.284 . S
C231 O232 1.273 . S
O232 C231 1.273 . S
O233 Zn224 1.977 . S
O233 C226 1.267 . S
C234 O235 1.160 . S
C234 O241 1.185 . S
O235 C234 1.160 . S
O236 Zn237 1.899 . S
O236 C244 1.284 . S
Zn237 O236 1.899 . S
Zn237 O238 2.032 . S
Zn237 O241 2.086 . S
Zn237 O246 1.977 . S
O238 Zn237 2.032 . S
O238 C242 1.278 . S
C239 O240 1.203 . S
C239 O246 1.267 . S
O240 C239 1.203 . S
O241 C234 1.185 . S
O241 Zn237 2.086 . S
C242 O238 1.278 . S
C242 O243 1.211 . S
O243 C242 1.211 . S
C244 O236 1.284 . S
C244 O245 1.273 . S
O245 C244 1.273 . S
O246 Zn237 1.977 . S
O246 C239 1.267 . S
C247 O248 1.160 . S
C247 O254 1.185 . S
O248 C247 1.160 . S
O249 Zn250 1.899 . S
O249 C257 1.284 . S
Zn250 O249 1.899 . S
Zn250 O251 2.032 . S
Zn250 O254 2.086 . S
Zn250 O259 1.977 . S
O251 Zn250 2.032 . S
O251 C255 1.278 . S
C252 O253 1.203 . S
C252 O259 1.267 . S
O253 C252 1.203 . S
O254 C247 1.185 . S
O254 Zn250 2.086 . S
C255 O251 1.278 . S
C255 O256 1.211 . S
O256 C255 1.211 . S
C257 O249 1.284 . S
C257 O258 1.273 . S
O258 C257 1.273 . S
O259 Zn250 1.977 . S
O259 C252 1.267 . S
C260 O261 1.160 . S
C260 O267 1.185 . S
O261 C260 1.160 . S
O262 Zn263 1.899 . S
O262 C270 1.284 . S
Zn263 O262 1.899 . S
Zn263 O264 2.032 . S
Zn263 O267 2.086 . S
Zn263 O272 1.977 . S
O264 Zn263 2.032 . S
O264 C268 1.278 . S
C265 O266 1.203 . S
C265 O272 1.267 . S
O266 C265 1.203 . S
O267 C260 1.185 . S
O267 Zn263 2.086 . S
C268 O264 1.278 . S
C268 O269 1.211 . S
O269 C268 1.211 . S
C270 O262 1.284 . S
C270 O271 1.273 . S
O271 C270 1.273 . S
O272 Zn263 1.977 . S
O272 C265 1.267 . S
C273 O274 1.160 . S
C273 O280 1.185 . S
O274 C273 1.160 . S
O275 Zn276 1.899 . S
O275 C283 1.284 . S
Zn276 O275 1.899 . S
Zn276 O277 2.032 . S
Zn276 O280 2.086 . S
Zn276 O285 1.977 . S
O277 Zn276 2.032 . S
O277 C281 1.278 . S
C278 O279 1.203 . S
C278 O285 1.267 . S
O279 C278 1.203 . S
O280 C273 1.185 . S
O280 Zn276 2.086 . S
C281 O277 1.278 . S
C281 O282 1.211 . S
O282 C281 1.211 . S
C283 O275 1.284 . S
C283 O284 1.273 . S
O284 C283 1.273 . S
O285 Zn276 1.977 . S
O285 C278 1.267 . S
C286 O287 1.160 . S
C286 O293 1.185 . S
O287 C286 1.160 . S
O288 Zn289 1.899 . S
O288 C296 1.284 . S
Zn289 O288 1.899 . S
Zn289 O290 2.032 . S
Zn289 O293 2.086 . S
Zn289 O298 1.977 . S
O290 Zn289 2.032 . S
O290 C294 1.278 . S
C291 O292 1.203 . S
C291 O298 1.267 . S
O292 C291 1.203 . S
O293 C286 1.185 . S
O293 Zn289 2.086 . S
C294 O290 1.278 . S
C294 O295 1.211 . S
O295 C294 1.211 . S
C296 O288 1.284 . S
C296 O297 1.273 . S
O297 C296 1.273 . S
O298 Zn289 1.977 . S
O298 C291 1.267 . S
C299 O300 1.160 . S
C299 O306 1.185 . S
O300 C299 1.160 . S
O301 Zn302 1.899 . S
O301 C309 1.284 . S
Zn302 O301 1.899 . S
Zn302 O303 2.032 . S
Zn302 O306 2.086 . S
Zn302 O311 1.977 . S
O303 Zn302 2.032 . S
O303 C307 1.278 . S
C304 O305 1.203 . S
C304 O311 1.267 . S
O305 C304 1.203 . S
O306 C299 1.185 . S
O306 Zn302 2.086 . S
C307 O303 1.278 . S
C307 O308 1.211 . S
O308 C307 1.211 . S
C309 O301 1.284 . S
C309 O310 1.273 . S
O310 C309 1.273 . S
O311 Zn302 1.977 . S
O311 C304 1.267 . S
C312 O313 1.160 . S
C312 O319 1.185 . S
O313 C312 1.160 . S
O314 Zn315 1.899 . S
O314 C322 1.284 . S
Zn315 O314 1.899 . S
Zn315 O316 2.032 . S
Zn315 O319 2.086 . S
Zn315 O324 1.977 . S
O316 Zn315 2.032 . S
O316 C320 1.278 . S
C317 O318 1.203 . S
C317 O324 1.267 . S
O318 C317 1.203 . S
O319 C312 1.185 . S
O319 Zn315 2.086 . S
C320 O316 1.278 . S
C320 O321 1.211 . S
O321 C320 1.211 . S
C322 O314 1.284 . S
C322 O323 1.273 . S
O323 C322 1.273 . S
O324 Zn315 1.977 . S
O324 C317 1.267 . S
C325 O326 1.160 . S
C325 O332 1.185 . S
O326 C325 1.160 . S
O327 Zn328 1.899 . S
O327 C335 1.284 . S
Zn328 O327 1.899 . S
Zn328 O329 2.032 . S
Zn328 O332 2.086 . S
Zn328 O337 1.977 . S
O329 Zn328 2.032 . S
O329 C333 1.278 . S
C330 O331 1.203 . S
C330 O337 1.267 . S
O331 C330 1.203 . S
O332 C325 1.185 . S
O332 Zn328 2.086 . S
C333 O329 1.278 . S
C333 O334 1.211 . S
O334 C333 1.211 . S
C335 O327 1.284 . S
C335 O336 1.273 . S
O336 C335 1.273 . S
O337 Zn328 1.977 . S
O337 C330 1.267 . S
C338 O339 1.160 . S
C338 O345 1.185 . S
O339 C338 1.160 . S
O340 Zn341 1.899 . S
O340 C348 1.284 . S
Zn341 O340 1.899 . S
Zn341 O342 2.032 . S
Zn341 O345 2.086 . S
Zn341 O350 1.977 . S
O342 Zn341 2.032 . S
O342 C346 1.278 . S
C343 O344 1.203 . S
C343 O350 1.267 . S
O344 C343 1.203 . S
O345 C338 1.185 . S
O345 Zn341 2.086 . S
C346 O342 1.278 . S
C346 O347 1.211 . S
O347 C346 1.211 . S
C348 O340 1.284 . S
C348 O349 1.273 . S
O349 C348 1.273 . S
O350 Zn341 1.977 . S
O350 C343 1.267 . S
C351 O352 1.174 . S
C351 O358 1.185 . S
O352 C351 1.174 . S
O353 Zn354 1.899 . S
O353 C361 1.284 . S
Zn354 O353 1.899 . S
Zn354 O355 2.032 . S
Zn354 O358 2.121 . S
Zn354 O363 1.977 . S
O355 Zn354 2.032 . S
O355 C359 1.278 . S
C356 O357 1.203 . S
C356 O363 1.267 . S
O357 C356 1.203 . S
O358 C351 1.185 . S
O358 Zn354 2.121 . S
C359 O355 1.278 . S
C359 O360 1.211 . S
O360 C359 1.211 . S
C361 O353 1.284 . S
C361 O362 1.273 . S
O362 C361 1.273 . S
O363 Zn354 1.977 . S
O363 C356 1.267 . S
C364 O365 1.175 . S
C364 O371 1.185 . S
O365 C364 1.175 . S
O366 Zn367 1.899 . S
O366 C374 1.284 . S
Zn367 O366 1.899 . S
Zn367 O368 2.032 . S
Zn367 O371 2.121 . S
Zn367 O376 1.977 . S
O368 Zn367 2.032 . S
O368 C372 1.278 . S
C369 O370 1.203 . S
C369 O376 1.267 . S
O370 C369 1.203 . S
O371 C364 1.185 . S
O371 Zn367 2.121 . S
C372 O368 1.278 . S
C372 O373 1.211 . S
O373 C372 1.211 . S
C374 O366 1.284 . S
C374 O375 1.273 . S
O375 C374 1.273 . S
O376 Zn367 1.977 . S
O376 C369 1.267 . S
C377 O378 1.175 . S
C377 O384 1.185 . S
O378 C377 1.175 . S
O379 Zn380 1.899 . S
O379 C387 1.284 . S
Zn380 O379 1.899 . S
Zn380 O381 2.032 . S
Zn380 O384 2.121 . S
Zn380 O389 1.977 . S
O381 Zn380 2.032 . S
O381 C385 1.278 . S
C382 O383 1.203 . S
C382 O389 1.267 . S
O383 C382 1.203 . S
O384 C377 1.185 . S
O384 Zn380 2.121 . S
C385 O381 1.278 . S
C385 O386 1.211 . S
O386 C385 1.211 . S
C387 O379 1.284 . S
C387 O388 1.273 . S
O388 C387 1.273 . S
O389 Zn380 1.977 . S
O389 C382 1.267 . S
C390 O391 1.160 . S
C390 O397 1.185 . S
O391 C390 1.160 . S
O392 Zn393 1.899 . S
O392 C400 1.284 . S
Zn393 O392 1.899 . S
Zn393 O394 2.032 . S
Zn393 O397 2.086 . S
Zn393 O402 1.977 . S
O394 Zn393 2.032 . S
O394 C398 1.278 . S
C395 O396 1.203 . S
C395 O402 1.267 . S
O396 C395 1.203 . S
O397 C390 1.185 . S
O397 Zn393 2.086 . S
C398 O394 1.278 . S
C398 O399 1.211 . S
O399 C398 1.211 . S
C400 O392 1.284 . S
C400 O401 1.273 . S
O401 C400 1.273 . S
O402 Zn393 1.977 . S
O402 C395 1.267 . S
C403 O404 1.160 . S
C403 O410 1.185 . S
O404 C403 1.160 . S
O405 Zn406 1.899 . S
O405 C413 1.284 . S
Zn406 O405 1.899 . S
Zn406 O407 2.032 . S
Zn406 O410 2.086 . S
Zn406 O415 1.977 . S
O407 Zn406 2.032 . S
O407 C411 1.278 . S
C408 O409 1.203 . S
C408 O415 1.267 . S
O409 C408 1.203 . S
O410 C403 1.185 . S
O410 Zn406 2.086 . S
C411 O407 1.278 . S
C411 O412 1.211 . S
O412 C411 1.211 . S
C413 O405 1.284 . S
C413 O414 1.273 . S
O414 C413 1.273 . S
O415 Zn406 1.977 . S
O415 C408 1.267 . S
C416 O417 1.160 . S
C416 O423 1.185 . S
O417 C416 1.160 . S
O418 Zn419 1.899 . S
O418 C426 1.284 . S
Zn419 O418 1.899 . S
Zn419 O420 2.032 . S
Zn419 O423 2.086 . S
Zn419 O428 1.977 . S
O420 Zn419 2.032 . S
O420 C424 1.278 . S
C421 O422 1.203 . S
C421 O428 1.267 . S
O422 C421 1.203 . S
O423 C416 1.185 . S
O423 Zn419 2.086 . S
C424 O420 1.278 . S
C424 O425 1.211 . S
O425 C424 1.211 . S
C426 O418 1.284 . S
C426 O427 1.273 . S
O427 C426 1.273 . S
O428 Zn419 1.977 . S
O428 C421 1.267 . S
C429 O430 1.160 . S
C429 O436 1.185 . S
O430 C429 1.160 . S
O431 Zn432 1.899 . S
O431 C439 1.284 . S
Zn432 O431 1.899 . S
Zn432 O433 2.032 . S
Zn432 O436 2.086 . S
Zn432 O441 1.977 . S
O433 Zn432 2.032 . S
O433 C437 1.278 . S
C434 O435 1.203 . S
C434 O441 1.267 . S
O435 C434 1.203 . S
O436 C429 1.185 . S
O436 Zn432 2.086 . S
C437 O433 1.278 . S
C437 O438 1.211 . S
O438 C437 1.211 . S
C439 O431 1.284 . S
C439 O440 1.273 . S
O440 C439 1.273 . S
O441 Zn432 1.977 . S
O441 C434 1.267 . S
C442 O443 1.160 . S
C442 O449 1.185 . S
O443 C442 1.160 . S
O444 Zn445 1.899 . S
O444 C452 1.284 . S
Zn445 O444 1.899 . S
Zn445 O446 2.032 . S
Zn445 O449 2.086 . S
Zn445 O454 1.977 . S
O446 Zn445 2.032 . S
O446 C450 1.278 . S
C447 O448 1.203 . S
C447 O454 1.267 . S
O448 C447 1.203 . S
O449 C442 1.185 . S
O449 Zn445 2.086 . S
C450 O446 1.278 . S
C450 O451 1.211 . S
O451 C450 1.211 . S
C452 O444 1.284 . S
C452 O453 1.273 . S
O453 C452 1.273 . S
O454 Zn445 1.977 . S
O454 C447 1.267 . S
C455 O456 1.160 . S
C455 O462 1.185 . S
O456 C455 1.160 . S
O457 Zn458 1.899 . S
O457 C465 1.284 . S
Zn458 O457 1.899 . S
Zn458 O459 2.032 . S
Zn458 O462 2.086 . S
Zn458 O467 1.977 . S
O459 Zn458 2.032 . S
O459 C463 1.278 . S
C460 O461 1.203 . S
C460 O467 1.267 . S
O461 C460 1.203 . S
O462 C455 1.185 . S
O462 Zn458 2.086 . S
C463 O459 1.278 . S
C463 O464 1.211 . S
O464 C463 1.211 . S
C465 O457 1.284 . S
C465 O466 1.273 . S
O466 C465 1.273 . S
O467 Zn458 1.977 . S
O467 C460 1.267 . S
C468 C469 1.363 . S
C468 C474 1.379 . S
C468 N476 1.356 . S
C469 C468 1.363 . S
C469 C475 1.363 . S
C470 C471 1.363 . S
C470 C475 1.379 1_655 S
C470 N477 1.356 . S
C471 C470 1.363 . S
C471 C474 1.363 1_655 S
N472 C474 1.356 1_655 S
N472 H484 0.984 1_655 S
N472 H485 0.985 . S
N473 C475 1.356 . S
N473 H478 0.984 . S
N473 H479 0.985 . S
C474 C468 1.379 . S
C474 C471 1.363 1_455 S
C474 N472 1.356 1_455 S
C475 C469 1.363 . S
C475 C470 1.379 1_455 S
C475 N473 1.356 . S
N476 C468 1.356 . S
N476 H482 0.984 . S
N476 H483 0.984 . S
N477 C470 1.356 . S
N477 H480 0.984 . S
N477 H481 0.985 . S
H478 N473 0.984 . S
H479 N473 0.985 . S
H480 N477 0.984 . S
H481 N477 0.985 . S
H482 N476 0.984 . S
H483 N476 0.984 . S
H484 N472 0.984 1_455 S
H485 N472 0.985 . S
C486 C487 1.363 . S
C486 C492 1.379 . S
C486 N494 1.356 . S
C487 C486 1.363 . S
C487 C493 1.363 . S
C488 C489 1.363 . S
C488 C493 1.379 . S
C488 N495 1.356 . S
C489 C488 1.363 . S
C489 C492 1.363 . S
N490 C492 1.356 . S
N490 H502 0.984 . S
N490 H503 0.985 . S
N491 C493 1.356 . S
N491 H496 0.984 . S
N491 H497 0.985 . S
C492 C486 1.379 . S
C492 C489 1.363 . S
C492 N490 1.356 . S
C493 C487 1.363 . S
C493 C488 1.379 . S
C493 N491 1.356 . S
N494 C486 1.356 . S
N494 H500 0.984 1_565 S
N494 H501 0.984 . S
N495 C488 1.356 . S
N495 H498 0.984 . S
N495 H499 0.985 . S
H496 N491 0.984 . S
H497 N491 0.985 . S
H498 N495 0.984 . S
H499 N495 0.985 . S
H500 N494 0.984 1_545 S
H501 N494 0.984 . S
H502 N490 0.984 . S
H503 N490 0.985 . S
C504 C505 1.363 1_565 S
C504 C510 1.379 . S
C504 N512 1.356 1_565 S
C505 C504 1.363 1_545 S
C505 C511 1.364 . S
C506 C507 1.363 . S
C506 C511 1.378 1_565 S
C506 N513 1.356 . S
C507 C506 1.363 . S
C507 C510 1.363 . S
N508 C510 1.356 . S
N508 H520 0.984 . S
N508 H521 0.985 . S
N509 C511 1.357 . S
N509 H514 0.984 . S
N509 H515 0.985 . S
C510 C504 1.379 . S
C510 C507 1.363 . S
C510 N508 1.356 . S
C511 C505 1.364 . S
C511 C506 1.378 1_545 S
C511 N509 1.357 . S
N512 C504 1.356 1_545 S
N512 H518 0.984 . S
N512 H519 0.984 . S
N513 C506 1.356 . S
N513 H516 0.984 . S
N513 H517 0.985 . S
H514 N509 0.984 . S
H515 N509 0.985 . S
H516 N513 0.984 . S
H517 N513 0.985 . S
H518 N512 0.984 . S
H519 N512 0.984 . S
H520 N508 0.984 . S
H521 N508 0.985 . S
C522 C523 1.363 . S
C522 C528 1.379 . S
C522 N530 1.356 . S
C523 C522 1.363 . S
C523 C529 1.363 . S
C524 C525 1.363 . S
C524 C529 1.379 1_565 S
C524 N531 1.356 . S
C525 C524 1.363 . S
C525 C528 1.363 1_565 S
N526 C528 1.356 1_565 S
N526 H538 0.984 1_565 S
N526 H539 0.985 . S
N527 C529 1.356 . S
N527 H532 0.984 . S
N527 H533 0.985 . S
C528 C522 1.379 . S
C528 C525 1.363 1_545 S
C528 N526 1.356 1_545 S
C529 C523 1.363 . S
C529 C524 1.379 1_545 S
C529 N527 1.356 . S
N530 C522 1.356 . S
N530 H536 0.984 . S
N530 H537 0.984 . S
N531 C524 1.356 . S
N531 H534 0.984 . S
N531 H535 0.985 . S
H532 N527 0.984 . S
H533 N527 0.985 . S
H534 N531 0.984 . S
H535 N531 0.985 . S
H536 N530 0.984 . S
H537 N530 0.984 . S
H538 N526 0.984 1_545 S
H539 N526 0.985 . S
C540 C541 1.363 . S
C540 C546 1.379 1_655 S
C540 N548 1.356 . S
C541 C540 1.363 . S
C541 C547 1.363 . S
C542 C543 1.363 1_655 S
C542 C547 1.379 . S
C542 N549 1.356 1_655 S
C543 C542 1.363 1_455 S
C543 C546 1.363 . S
N544 C546 1.356 . S
N544 H556 0.984 . S
N544 H557 0.985 . S
N545 C547 1.356 . S
N545 H550 0.984 . S
N545 H551 0.985 . S
C546 C540 1.379 1_455 S
C546 C543 1.363 . S
C546 N544 1.356 . S
C547 C541 1.363 . S
C547 C542 1.379 . S
C547 N545 1.356 . S
N548 C540 1.356 . S
N548 H554 0.984 . S
N548 H555 0.984 . S
N549 C542 1.356 1_455 S
N549 H552 0.984 . S
N549 H553 0.985 . S
H550 N545 0.984 . S
H551 N545 0.985 . S
H552 N549 0.984 . S
H553 N549 0.985 . S
H554 N548 0.984 . S
H555 N548 0.984 . S
H556 N544 0.984 . S
H557 N544 0.985 . S
C558 C559 1.363 . S
C558 C564 1.379 . S
C558 N566 1.356 . S
C559 C558 1.363 . S
C559 C565 1.363 . S
C560 C561 1.363 . S
C560 C565 1.379 . S
C560 N567 1.356 . S
C561 C560 1.363 . S
C561 C564 1.363 . S
N562 C564 1.356 . S
N562 H574 0.984 . S
N562 H575 0.985 . S
N563 C565 1.356 . S
N563 H568 0.984 . S
N563 H569 0.985 . S
C564 C558 1.379 . S
C564 C561 1.363 . S
C564 N562 1.356 . S
C565 C559 1.363 . S
C565 C560 1.379 . S
C565 N563 1.356 . S
N566 C558 1.356 . S
N566 H572 0.984 . S
N566 H573 0.984 . S
N567 C560 1.356 . S
N567 H570 0.984 . S
N567 H571 0.985 . S
H568 N563 0.984 . S
H569 N563 0.985 . S
H570 N567 0.984 . S
H571 N567 0.985 . S
H572 N566 0.984 . S
H573 N566 0.984 . S
H574 N562 0.984 . S
H575 N562 0.985 . S
C576 C577 1.363 . S
C576 C582 1.379 . S
C576 N584 1.356 . S
C577 C576 1.363 . S
C577 C583 1.363 . S
C578 C579 1.363 1_655 S
C578 C583 1.379 . S
C578 N585 1.356 1_655 S
C579 C578 1.363 1_455 S
C579 C582 1.363 1_455 S
N580 C582 1.356 1_455 S
N580 H592 0.984 . S
N580 H593 0.985 . S
N581 C583 1.356 . S
N581 H586 0.984 . S
N581 H587 0.985 . S
C582 C576 1.379 . S
C582 C579 1.363 1_655 S
C582 N580 1.356 1_655 S
C583 C577 1.363 . S
C583 C578 1.379 . S
C583 N581 1.356 . S
N584 C576 1.356 . S
N584 H590 0.984 . S
N584 H591 0.984 . S
N585 C578 1.356 1_455 S
N585 H588 0.984 . S
N585 H589 0.985 . S
H586 N581 0.984 . S
H587 N581 0.985 . S
H588 N585 0.984 . S
H589 N585 0.985 . S
H590 N584 0.984 . S
H591 N584 0.984 . S
H592 N580 0.984 . S
H593 N580 0.985 . S
C594 C595 1.363 . S
C594 C600 1.379 . S
C594 N602 1.356 . S
C595 C594 1.363 . S
C595 C601 1.363 . S
C596 C597 1.363 . S
C596 C601 1.379 . S
C596 N603 1.356 . S
C597 C596 1.363 . S
C597 C600 1.363 . S
N598 C600 1.356 . S
N598 H610 0.984 . S
N598 H611 0.985 . S
N599 C601 1.356 . S
N599 H604 0.984 . S
N599 H605 0.985 . S
C600 C594 1.379 . S
C600 C597 1.363 . S
C600 N598 1.356 . S
C601 C595 1.363 . S
C601 C596 1.379 . S
C601 N599 1.356 . S
N602 C594 1.356 . S
N602 H608 0.984 . S
N602 H609 0.984 . S
N603 C596 1.356 . S
N603 H606 0.984 . S
N603 H607 0.985 . S
H604 N599 0.984 . S
H605 N599 0.985 . S
H606 N603 0.984 . S
H607 N603 0.985 . S
H608 N602 0.984 . S
H609 N602 0.984 . S
H610 N598 0.984 . S
H611 N598 0.985 . S
C612 C613 1.363 . S
C612 C618 1.379 1_565 S
C612 N620 1.356 . S
C613 C612 1.363 . S
C613 C619 1.363 1_565 S
C614 C615 1.363 . S
C614 C619 1.379 . S
C614 N621 1.356 . S
C615 C614 1.363 . S
C615 C618 1.363 . S
N616 C618 1.356 . S
N616 H628 0.984 . S
N616 H629 0.985 . S
N617 C619 1.356 1_565 S
N617 H622 0.984 . S
N617 H623 0.985 1_565 S
C618 C612 1.379 1_545 S
C618 C615 1.363 . S
C618 N616 1.356 . S
C619 C613 1.363 1_545 S
C619 C614 1.379 . S
C619 N617 1.356 1_545 S
N620 C612 1.356 . S
N620 H626 0.984 . S
N620 H627 0.984 . S
N621 C614 1.356 . S
N621 H624 0.984 . S
N621 H625 0.985 . S
H622 N617 0.984 . S
H623 N617 0.985 1_545 S
H624 N621 0.984 . S
H625 N621 0.985 . S
H626 N620 0.984 . S
H627 N620 0.984 . S
H628 N616 0.984 . S
H629 N616 0.985 . S
C630 C631 1.363 . S
C630 C636 1.379 1_545 S
C630 N638 1.356 . S
C631 C630 1.363 . S
C631 C637 1.363 1_545 S
C632 C633 1.363 . S
C632 C637 1.379 . S
C632 N639 1.356 . S
C633 C632 1.363 . S
C633 C636 1.363 . S
N634 C636 1.356 . S
N634 H646 0.984 . S
N634 H647 0.985 . S
N635 C637 1.356 1_545 S
N635 H640 0.984 . S
N635 H641 0.985 1_545 S
C636 C630 1.379 1_565 S
C636 C633 1.363 . S
C636 N634 1.356 . S
C637 C631 1.363 1_565 S
C637 C632 1.379 . S
C637 N635 1.356 1_565 S
N638 C630 1.356 . S
N638 H644 0.984 . S
N638 H645 0.984 . S
N639 C632 1.356 . S
N639 H642 0.984 . S
N639 H643 0.985 . S
H640 N635 0.984 . S
H641 N635 0.985 1_565 S
H642 N639 0.984 . S
H643 N639 0.985 . S
H644 N638 0.984 . S
H645 N638 0.984 . S
H646 N634 0.984 . S
H647 N634 0.985 . S
C648 C649 1.363 . S
C648 C654 1.379 . S
C648 N656 1.356 . S
C649 C648 1.363 . S
C649 C655 1.363 . S
C650 C651 1.363 . S
C650 C655 1.379 1_655 S
C650 N657 1.356 . S
C651 C650 1.363 . S
C651 C654 1.363 1_655 S
N652 C654 1.356 1_655 S
N652 H664 0.984 1_655 S
N652 H665 0.985 . S
N653 C655 1.356 . S
N653 H658 0.984 . S
N653 H659 0.985 . S
C654 C648 1.379 . S
C654 C651 1.363 1_455 S
C654 N652 1.356 1_455 S
C655 C649 1.363 . S
C655 C650 1.379 1_455 S
C655 N653 1.356 . S
N656 C648 1.356 . S
N656 H662 0.984 . S
N656 H663 0.984 . S
N657 C650 1.356 . S
N657 H660 0.984 . S
N657 H661 0.985 . S
H658 N653 0.984 . S
H659 N653 0.985 . S
H660 N657 0.984 . S
H661 N657 0.985 . S
H662 N656 0.984 . S
H663 N656 0.984 . S
H664 N652 0.984 1_455 S
H665 N652 0.985 . S
C666 C667 1.363 . S
C666 C672 1.379 . S
C666 N674 1.356 . S
C667 C666 1.363 . S
C667 C673 1.363 . S
C668 C669 1.363 . S
C668 C673 1.379 . S
C668 N675 1.356 . S
C669 C668 1.363 . S
C669 C672 1.363 . S
N670 C672 1.356 . S
N670 H682 0.984 . S
N670 H683 0.985 . S
N671 C673 1.356 . S
N671 H676 0.984 . S
N671 H677 0.985 . S
C672 C666 1.379 . S
C672 C669 1.363 . S
C672 N670 1.356 . S
C673 C667 1.363 . S
C673 C668 1.379 . S
C673 N671 1.356 . S
N674 C666 1.356 . S
N674 H680 0.984 . S
N674 H681 0.984 . S
N675 C668 1.356 . S
N675 H678 0.984 . S
N675 H679 0.985 . S
H676 N671 0.984 . S
H677 N671 0.985 . S
H678 N675 0.984 . S
H679 N675 0.985 . S
H680 N674 0.984 . S
H681 N674 0.984 . S
H682 N670 0.984 . S
H683 N670 0.985 . S
C684 C685 1.363 . S
C684 C690 1.379 . S
C684 N692 1.356 . S
C685 C684 1.363 . S
C685 C691 1.363 . S
C686 C687 1.363 . S
C686 C691 1.379 . S
C686 N693 1.356 . S
C687 C686 1.363 . S
C687 C690 1.363 . S
N688 C690 1.356 . S
N688 H700 0.984 . S
N688 H701 0.985 . S
N689 C691 1.356 . S
N689 H694 0.984 . S
N689 H695 0.985 . S
C690 C684 1.379 . S
C690 C687 1.363 . S
C690 N688 1.356 . S
C691 C685 1.363 . S
C691 C686 1.379 . S
C691 N689 1.356 . S
N692 C684 1.356 . S
N692 H698 0.984 . S
N692 H699 0.984 . S
N693 C686 1.356 . S
N693 H696 0.984 . S
N693 H697 0.985 . S
H694 N689 0.984 . S
H695 N689 0.985 . S
H696 N693 0.984 . S
H697 N693 0.985 . S
H698 N692 0.984 . S
H699 N692 0.984 . S
H700 N688 0.984 . S
H701 N688 0.985 . S
C702 C703 1.363 . S
C702 C708 1.379 . S
C702 N710 1.356 . S
C703 C702 1.363 . S
C703 C709 1.363 . S
C704 C705 1.363 . S
C704 C709 1.379 . S
C704 N711 1.356 . S
C705 C704 1.363 . S
C705 C708 1.363 . S
N706 C708 1.356 . S
N706 H718 0.984 . S
N706 H719 0.985 . S
N707 C709 1.356 . S
N707 H712 0.984 . S
N707 H713 0.985 . S
C708 C702 1.379 . S
C708 C705 1.363 . S
C708 N706 1.356 . S
C709 C703 1.363 . S
C709 C704 1.379 . S
C709 N707 1.356 . S
N710 C702 1.356 . S
N710 H716 0.984 . S
N710 H717 0.984 . S
N711 C704 1.356 . S
N711 H714 0.984 . S
N711 H715 0.985 . S
H712 N707 0.984 . S
H713 N707 0.985 . S
H714 N711 0.984 . S
H715 N711 0.985 . S
H716 N710 0.984 . S
H717 N710 0.984 . S
H718 N706 0.984 . S
H719 N706 0.985 . S
C720 C721 1.363 . S
C720 C726 1.379 . S
C720 N728 1.356 . S
C721 C720 1.363 . S
C721 C727 1.363 . S
C722 C723 1.363 . S
C722 C727 1.379 . S
C722 N729 1.356 . S
C723 C722 1.363 . S
C723 C726 1.363 . S
N724 C726 1.356 . S
N724 H736 0.984 . S
N724 H737 0.985 . S
N725 C727 1.356 . S
N725 H730 0.984 . S
N725 H731 0.985 . S
C726 C720 1.379 . S
C726 C723 1.363 . S
C726 N724 1.356 . S
C727 C721 1.363 . S
C727 C722 1.379 . S
C727 N725 1.356 . S
N728 C720 1.356 . S
N728 H734 0.984 . S
N728 H735 0.984 . S
N729 C722 1.356 . S
N729 H732 0.984 . S
N729 H733 0.985 . S
H730 N725 0.984 . S
H731 N725 0.985 . S
H732 N729 0.984 . S
H733 N729 0.985 . S
H734 N728 0.984 . S
H735 N728 0.984 . S
H736 N724 0.984 . S
H737 N724 0.985 . S
C738 C739 1.363 . S
C738 C744 1.379 . S
C738 N746 1.356 . S
C739 C738 1.363 . S
C739 C745 1.363 . S
C740 C741 1.363 . S
C740 C745 1.379 . S
C740 N747 1.356 . S
C741 C740 1.363 . S
C741 C744 1.363 . S
N742 C744 1.356 . S
N742 H754 0.984 . S
N742 H755 0.985 . S
N743 C745 1.356 . S
N743 H748 0.984 . S
N743 H749 0.985 . S
C744 C738 1.379 . S
C744 C741 1.363 . S
C744 N742 1.356 . S
C745 C739 1.363 . S
C745 C740 1.379 . S
C745 N743 1.356 . S
N746 C738 1.356 . S
N746 H752 0.984 . S
N746 H753 0.984 . S
N747 C740 1.356 . S
N747 H750 0.984 . S
N747 H751 0.985 . S
H748 N743 0.984 . S
H749 N743 0.985 . S
H750 N747 0.984 . S
H751 N747 0.985 . S
H752 N746 0.984 . S
H753 N746 0.984 . S
H754 N742 0.984 . S
H755 N742 0.985 . S
C756 C757 1.363 . S
C756 C762 1.379 . S
C756 N764 1.356 . S
C757 C756 1.363 . S
C757 C763 1.363 . S
C758 C759 1.363 . S
C758 C763 1.379 . S
C758 N765 1.356 . S
C759 C758 1.363 . S
C759 C762 1.363 . S
N760 C762 1.356 . S
N760 H772 0.984 . S
N760 H773 0.985 . S
N761 C763 1.356 . S
N761 H766 0.984 . S
N761 H767 0.985 . S
C762 C756 1.379 . S
C762 C759 1.363 . S
C762 N760 1.356 . S
C763 C757 1.363 . S
C763 C758 1.379 . S
C763 N761 1.356 . S
N764 C756 1.356 . S
N764 H770 0.984 . S
N764 H771 0.984 . S
N765 C758 1.356 . S
N765 H768 0.984 . S
N765 H769 0.985 . S
H766 N761 0.984 . S
H767 N761 0.985 . S
H768 N765 0.984 . S
H769 N765 0.985 . S
H770 N764 0.984 . S
H771 N764 0.984 . S
H772 N760 0.984 . S
H773 N760 0.985 . S
C774 C775 1.363 . S
C774 C780 1.379 . S
C774 N782 1.356 . S
C775 C774 1.363 . S
C775 C781 1.363 . S
C776 C777 1.363 . S
C776 C781 1.379 . S
C776 N783 1.356 . S
C777 C776 1.363 . S
C777 C780 1.363 . S
N778 C780 1.356 . S
N778 H790 0.984 . S
N778 H791 0.985 . S
N779 C781 1.356 . S
N779 H784 0.984 . S
N779 H785 0.985 . S
C780 C774 1.379 . S
C780 C777 1.363 . S
C780 N778 1.356 . S
C781 C775 1.363 . S
C781 C776 1.379 . S
C781 N779 1.356 . S
N782 C774 1.356 . S
N782 H788 0.984 . S
N782 H789 0.984 . S
N783 C776 1.356 . S
N783 H786 0.984 . S
N783 H787 0.985 . S
H784 N779 0.984 . S
H785 N779 0.985 . S
H786 N783 0.984 . S
H787 N783 0.985 . S
H788 N782 0.984 . S
H789 N782 0.984 . S
H790 N778 0.984 . S
H791 N778 0.985 . S
C792 C793 1.363 . S
C792 C798 1.379 . S
C792 N800 1.356 . S
C793 C792 1.363 . S
C793 C799 1.363 . S
C794 C795 1.363 . S
C794 C799 1.379 . S
C794 N801 1.356 . S
C795 C794 1.363 . S
C795 C798 1.363 . S
N796 C798 1.356 . S
N796 H808 0.984 . S
N796 H809 0.985 . S
N797 C799 1.356 . S
N797 H802 0.984 . S
N797 H803 0.985 . S
C798 C792 1.379 . S
C798 C795 1.363 . S
C798 N796 1.356 . S
C799 C793 1.363 . S
C799 C794 1.379 . S
C799 N797 1.356 . S
N800 C792 1.356 . S
N800 H806 0.984 . S
N800 H807 0.984 . S
N801 C794 1.356 . S
N801 H804 0.984 . S
N801 H805 0.985 . S
H802 N797 0.984 . S
H803 N797 0.985 . S
H804 N801 0.984 . S
H805 N801 0.985 . S
H806 N800 0.984 . S
H807 N800 0.984 . S
H808 N796 0.984 . S
H809 N796 0.985 . S
C810 C811 1.363 . S
C810 C816 1.379 . S
C810 N818 1.356 . S
C811 C810 1.363 . S
C811 C817 1.363 . S
C812 C813 1.363 . S
C812 C817 1.379 . S
C812 N819 1.356 . S
C813 C812 1.363 . S
C813 C816 1.363 . S
N814 C816 1.356 . S
N814 H826 0.984 . S
N814 H827 0.985 . S
N815 C817 1.356 . S
N815 H820 0.984 . S
N815 H821 0.985 . S
C816 C810 1.379 . S
C816 C813 1.363 . S
C816 N814 1.356 . S
C817 C811 1.363 . S
C817 C812 1.379 . S
C817 N815 1.356 . S
N818 C810 1.356 . S
N818 H824 0.984 . S
N818 H825 0.984 . S
N819 C812 1.356 . S
N819 H822 0.984 . S
N819 H823 0.985 . S
H820 N815 0.984 . S
H821 N815 0.985 . S
H822 N819 0.984 . S
H823 N819 0.985 . S
H824 N818 0.984 . S
H825 N818 0.984 . S
H826 N814 0.984 . S
H827 N814 0.985 . S
C828 C829 1.363 . S
C828 C834 1.379 . S
C828 N836 1.356 . S
C829 C828 1.363 . S
C829 C835 1.363 . S
C830 C831 1.363 . S
C830 C835 1.379 . S
C830 N837 1.356 . S
C831 C830 1.363 . S
C831 C834 1.363 . S
N832 C834 1.356 . S
N832 H844 0.984 . S
N832 H845 0.985 . S
N833 C835 1.356 . S
N833 H838 0.984 . S
N833 H839 0.985 . S
C834 C828 1.379 . S
C834 C831 1.363 . S
C834 N832 1.356 . S
C835 C829 1.363 . S
C835 C830 1.379 . S
C835 N833 1.356 . S
N836 C828 1.356 . S
N836 H842 0.984 . S
N836 H843 0.984 . S
N837 C830 1.356 . S
N837 H840 0.984 . S
N837 H841 0.985 . S
H838 N833 0.984 . S
H839 N833 0.985 . S
H840 N837 0.984 . S
H841 N837 0.985 . S
H842 N836 0.984 . S
H843 N836 0.984 . S
H844 N832 0.984 . S
H845 N832 0.985 . S
C846 C847 1.363 . S
C846 C852 1.379 . S
C846 N854 1.356 . S
C847 C846 1.363 . S
C847 C853 1.363 . S
C848 C849 1.363 . S
C848 C853 1.379 . S
C848 N855 1.356 1_554 S
C849 C848 1.363 . S
C849 C852 1.363 . S
N850 C852 1.356 . S
N850 H862 0.984 . S
N850 H863 0.985 . S
N851 C853 1.356 . S
N851 H856 0.984 . S
N851 H857 0.985 1_554 S
C852 C846 1.379 . S
C852 C849 1.363 . S
C852 N850 1.356 . S
C853 C847 1.363 . S
C853 C848 1.379 . S
C853 N851 1.356 . S
N854 C846 1.356 . S
N854 H860 0.984 . S
N854 H861 0.984 . S
N855 C848 1.356 1_556 S
N855 H858 0.984 . S
N855 H859 0.985 . S
H856 N851 0.984 . S
H857 N851 0.985 1_556 S
H858 N855 0.984 . S
H859 N855 0.985 . S
H860 N854 0.984 . S
H861 N854 0.984 . S
H862 N850 0.984 . S
H863 N850 0.985 . S
C864 C865 1.363 . S
C864 C870 1.379 . S
C864 N872 1.356 . S
C865 C864 1.363 . S
C865 C871 1.377 . S
C866 C867 1.363 . S
C866 C871 1.383 . S
C866 N873 1.356 1_554 S
C867 C866 1.363 . S
C867 C870 1.363 . S
N868 C870 1.356 . S
N868 H880 0.984 . S
N868 H881 0.985 . S
N869 C871 1.340 1_556 S
N869 H874 0.984 . S
N869 H875 0.985 . S
C870 C864 1.379 . S
C870 C867 1.363 . S
C870 N868 1.356 . S
C871 C865 1.377 . S
C871 C866 1.383 . S
C871 N869 1.340 1_554 S
N872 C864 1.356 . S
N872 H878 0.984 . S
N872 H879 0.984 . S
N873 C866 1.356 1_556 S
N873 H876 0.984 1_556 S
N873 H877 0.985 . S
H874 N869 0.984 . S
H875 N869 0.985 . S
H876 N873 0.984 1_554 S
H877 N873 0.985 . S
H878 N872 0.984 . S
H879 N872 0.984 . S
H880 N868 0.984 . S
H881 N868 0.985 . S
C882 C883 1.363 . S
C882 C888 1.379 . S
C882 N890 1.356 . S
C883 C882 1.363 . S
C883 C889 1.363 . S
C884 C885 1.363 . S
C884 C889 1.379 . S
C884 N891 1.356 . S
C885 C884 1.363 . S
C885 C888 1.363 . S
N886 C888 1.356 . S
N886 H898 0.984 . S
N886 H899 0.985 . S
N887 C889 1.356 . S
N887 H892 0.984 . S
N887 H893 0.985 . S
C888 C882 1.379 . S
C888 C885 1.363 . S
C888 N886 1.356 . S
C889 C883 1.363 . S
C889 C884 1.379 . S
C889 N887 1.356 . S
N890 C882 1.356 . S
N890 H896 0.984 . S
N890 H897 0.984 . S
N891 C884 1.356 . S
N891 H894 0.984 . S
N891 H895 0.971 1_554 S
H892 N887 0.984 . S
H893 N887 0.985 . S
H894 N891 0.984 . S
H895 N891 0.971 1_556 S
H896 N890 0.984 . S
H897 N890 0.984 . S
H898 N886 0.984 . S
H899 N886 0.985 . S
C900 C901 1.363 . S
C900 C906 1.379 . S
C900 N908 1.356 . S
C901 C900 1.363 . S
C901 C907 1.363 . S
C902 C903 1.363 . S
C902 C907 1.379 . S
C902 N909 1.356 . S
C903 C902 1.363 . S
C903 C906 1.363 . S
N904 C906 1.356 . S
N904 H916 0.984 . S
N904 H917 0.985 . S
N905 C907 1.356 . S
N905 H910 0.984 . S
N905 H911 0.985 . S
C906 C900 1.379 . S
C906 C903 1.363 . S
C906 N904 1.356 . S
C907 C901 1.363 . S
C907 C902 1.379 . S
C907 N905 1.356 . S
N908 C900 1.356 . S
N908 H914 0.984 . S
N908 H915 0.984 . S
N909 C902 1.356 . S
N909 H912 0.984 . S
N909 H913 0.985 . S
H910 N905 0.984 . S
H911 N905 0.985 . S
H912 N909 0.984 . S
H913 N909 0.985 . S
H914 N908 0.984 . S
H915 N908 0.984 . S
H916 N904 0.984 . S
H917 N904 0.985 . S
C918 C919 1.363 . S
C918 C924 1.379 . S
C918 N926 1.356 . S
C919 C918 1.363 . S
C919 C925 1.363 . S
C920 C921 1.363 . S
C920 C925 1.379 . S
C920 N927 1.356 . S
C921 C920 1.363 . S
C921 C924 1.363 . S
N922 C924 1.356 . S
N922 H934 0.984 . S
N922 H935 0.985 . S
N923 C925 1.356 . S
N923 H928 0.984 . S
N923 H929 0.985 . S
C924 C918 1.379 . S
C924 C921 1.363 . S
C924 N922 1.356 . S
C925 C919 1.363 . S
C925 C920 1.379 . S
C925 N923 1.356 . S
N926 C918 1.356 . S
N926 H932 0.984 . S
N926 H933 0.984 . S
N927 C920 1.356 . S
N927 H930 0.984 . S
N927 H931 0.985 . S
H928 N923 0.984 . S
H929 N923 0.985 . S
H930 N927 0.984 . S
H931 N927 0.985 . S
H932 N926 0.984 . S
H933 N926 0.984 . S
H934 N922 0.984 . S
H935 N922 0.985 . S
C936 C937 1.363 . S
C936 C942 1.379 . S
C936 N944 1.356 . S
C937 C936 1.363 . S
C937 C943 1.363 . S
C938 C939 1.363 . S
C938 C943 1.379 . S
C938 N945 1.356 . S
C939 C938 1.363 . S
C939 C942 1.363 . S
N940 C942 1.356 . S
N940 H952 0.984 . S
N940 H953 0.985 . S
N941 C943 1.356 . S
N941 H946 0.984 . S
N941 H947 0.985 . S
C942 C936 1.379 . S
C942 C939 1.363 . S
C942 N940 1.356 . S
C943 C937 1.363 . S
C943 C938 1.379 . S
C943 N941 1.356 . S
N944 C936 1.356 . S
N944 H950 0.984 . S
N944 H951 0.984 . S
N945 C938 1.356 . S
N945 H948 0.984 . S
N945 H949 0.985 . S
H946 N941 0.984 . S
H947 N941 0.985 . S
H948 N945 0.984 . S
H949 N945 0.985 . S
H950 N944 0.984 . S
H951 N944 0.984 . S
H952 N940 0.984 . S
H953 N940 0.985 . S
C954 C955 1.363 . S
C954 C960 1.379 . S
C954 N962 1.356 . S
C955 C954 1.363 . S
C955 C961 1.363 . S
C956 C957 1.363 1_554 S
C956 C961 1.379 1_554 S
C956 N963 1.356 . S
C957 C956 1.363 1_556 S
C957 C960 1.363 . S
N958 C960 1.356 . S
N958 H970 0.984 . S
N958 H971 0.985 . S
N959 C961 1.356 1_554 S
N959 H964 0.984 1_554 S
N959 H965 0.985 . S
C960 C954 1.379 . S
C960 C957 1.363 . S
C960 N958 1.356 . S
C961 C955 1.363 . S
C961 C956 1.379 1_556 S
C961 N959 1.356 1_556 S
N962 C954 1.356 . S
N962 H968 0.984 . S
N962 H969 0.984 . S
N963 C956 1.356 . S
N963 H966 0.984 . S
N963 H967 0.985 . S
H964 N959 0.984 1_556 S
H965 N959 0.985 . S
H966 N963 0.984 . S
H967 N963 0.985 . S
H968 N962 0.984 . S
H969 N962 0.984 . S
H970 N958 0.984 . S
H971 N958 0.985 . S
C972 C973 1.363 . S
C972 C978 1.379 . S
C972 N980 1.356 1_556 S
C973 C972 1.363 . S
C973 C979 1.363 . S
C974 C975 1.363 . S
C974 C979 1.379 . S
C974 N981 1.356 . S
C975 C974 1.363 . S
C975 C978 1.363 . S
N976 C978 1.356 . S
N976 H988 0.984 1_556 S
N976 H989 0.985 . S
N977 C979 1.356 . S
N977 H982 0.984 . S
N977 H983 0.985 . S
C978 C972 1.379 . S
C978 C975 1.363 . S
C978 N976 1.356 . S
C979 C973 1.363 . S
C979 C974 1.379 . S
C979 N977 1.356 . S
N980 C972 1.356 1_554 S
N980 H986 0.984 . S
N980 H987 0.984 . S
N981 C974 1.356 . S
N981 H984 0.984 . S
N981 H985 0.985 . S
H982 N977 0.984 . S
H983 N977 0.985 . S
H984 N981 0.984 . S
H985 N981 0.985 . S
H986 N980 0.984 . S
H987 N980 0.984 . S
H988 N976 0.984 1_554 S
H989 N976 0.985 . S
C990 C991 1.363 . S
C990 C996 1.379 1_556 S
C990 N998 1.356 1_556 S
C991 C990 1.363 . S
C991 C997 1.363 . S
C992 C993 1.363 . S
C992 C997 1.379 . S
C992 N999 1.356 . S
C993 C992 1.363 . S
C993 C996 1.363 1_556 S
N994 C996 1.356 . S
N994 H1006 0.984 . S
N994 H1007 0.985 . S
N995 C997 1.356 . S
N995 H1000 0.984 . S
N995 H1001 0.985 . S
C996 C990 1.379 1_554 S
C996 C993 1.363 1_554 S
C996 N994 1.356 . S
C997 C991 1.363 . S
C997 C992 1.379 . S
C997 N995 1.356 . S
N998 C990 1.356 1_554 S
N998 H1004 0.984 . S
N998 H1005 0.984 1_554 S
N999 C992 1.356 . S
N999 H1002 0.984 . S
N999 H1003 0.985 . S
H1000 N995 0.984 . S
H1001 N995 0.985 . S
H1002 N999 0.984 . S
H1003 N999 0.985 . S
H1004 N998 0.984 . S
H1005 N998 0.984 1_556 S
H1006 N994 0.984 . S
H1007 N994 0.985 . S
C1008 C1009 1.363 . S
C1008 C1014 1.379 . S
C1008 N1016 1.356 . S
C1009 C1008 1.363 . S
C1009 C1015 1.363 . S
C1010 C1011 1.363 . S
C1010 C1015 1.379 . S
C1010 N1017 1.356 . S
C1011 C1010 1.363 . S
C1011 C1014 1.363 . S
N1012 C1014 1.356 . S
N1012 H1024 0.984 . S
N1012 H1025 0.985 . S
N1013 C1015 1.356 . S
N1013 H1018 0.984 . S
N1013 H1019 0.985 . S
C1014 C1008 1.379 . S
C1014 C1011 1.363 . S
C1014 N1012 1.356 . S
C1015 C1009 1.363 . S
C1015 C1010 1.379 . S
C1015 N1013 1.356 . S
N1016 C1008 1.356 . S
N1016 H1022 0.984 . S
N1016 H1023 0.984 . S
N1017 C1010 1.356 . S
N1017 H1020 0.984 . S
N1017 H1021 0.985 . S
H1018 N1013 0.984 . S
H1019 N1013 0.985 . S
H1020 N1017 0.984 . S
H1021 N1017 0.985 . S
H1022 N1016 0.984 . S
H1023 N1016 0.984 . S
H1024 N1012 0.984 . S
H1025 N1012 0.985 . S
C1026 C1027 1.363 . S
C1026 C1032 1.379 . S
C1026 N1034 1.356 . S
C1027 C1026 1.363 . S
C1027 C1033 1.363 . S
C1028 C1029 1.363 . S
C1028 C1033 1.379 . S
C1028 N1035 1.356 . S
C1029 C1028 1.363 . S
C1029 C1032 1.363 . S
N1030 C1032 1.356 . S
N1030 H1042 0.984 . S
N1030 H1043 0.985 . S
N1031 C1033 1.356 . S
N1031 H1036 0.984 . S
N1031 H1037 0.985 . S
C1032 C1026 1.379 . S
C1032 C1029 1.363 . S
C1032 N1030 1.356 . S
C1033 C1027 1.363 . S
C1033 C1028 1.379 . S
C1033 N1031 1.356 . S
N1034 C1026 1.356 . S
N1034 H1040 0.984 . S
N1034 H1041 0.984 . S
N1035 C1028 1.356 . S
N1035 H1038 0.984 . S
N1035 H1039 0.985 . S
H1036 N1031 0.984 . S
H1037 N1031 0.985 . S
H1038 N1035 0.984 . S
H1039 N1035 0.985 . S
H1040 N1034 0.984 . S
H1041 N1034 0.984 . S
H1042 N1030 0.984 . S
H1043 N1030 0.985 . S
C1044 C1045 1.363 . S
C1044 C1050 1.379 . S
C1044 N1052 1.356 . S
C1045 C1044 1.363 . S
C1045 C1051 1.363 . S
C1046 C1047 1.363 . S
C1046 C1051 1.379 . S
C1046 N1053 1.356 . S
C1047 C1046 1.363 . S
C1047 C1050 1.363 . S
N1048 C1050 1.356 . S
N1048 H1060 0.984 . S
N1048 H1061 0.985 . S
N1049 C1051 1.356 . S
N1049 H1054 0.984 . S
N1049 H1055 0.985 . S
C1050 C1044 1.379 . S
C1050 C1047 1.363 . S
C1050 N1048 1.356 . S
C1051 C1045 1.363 . S
C1051 C1046 1.379 . S
C1051 N1049 1.356 . S
N1052 C1044 1.356 . S
N1052 H1058 0.984 . S
N1052 H1059 0.984 . S
N1053 C1046 1.356 . S
N1053 H1056 0.984 . S
N1053 H1057 0.985 . S
H1054 N1049 0.984 . S
H1055 N1049 0.985 . S
H1056 N1053 0.984 . S
H1057 N1053 0.985 . S
H1058 N1052 0.984 . S
H1059 N1052 0.984 . S
H1060 N1048 0.984 . S
H1061 N1048 0.985 . S
C1062 C1063 1.363 . S
C1062 C1068 1.379 . S
C1062 N1070 1.356 . S
C1063 C1062 1.363 . S
C1063 C1069 1.363 . S
C1064 C1065 1.363 . S
C1064 C1069 1.379 . S
C1064 N1071 1.356 . S
C1065 C1064 1.363 . S
C1065 C1068 1.363 . S
N1066 C1068 1.356 . S
N1066 H1078 0.984 . S
N1066 H1079 0.985 . S
N1067 C1069 1.356 . S
N1067 H1072 0.984 . S
N1067 H1073 0.985 . S
C1068 C1062 1.379 . S
C1068 C1065 1.363 . S
C1068 N1066 1.356 . S
C1069 C1063 1.363 . S
C1069 C1064 1.379 . S
C1069 N1067 1.356 . S
N1070 C1062 1.356 . S
N1070 H1076 0.984 . S
N1070 H1077 0.984 . S
N1071 C1064 1.356 . S
N1071 H1074 0.984 . S
N1071 H1075 0.985 . S
H1072 N1067 0.984 . S
H1073 N1067 0.985 . S
H1074 N1071 0.984 . S
H1075 N1071 0.985 . S
H1076 N1070 0.984 . S
H1077 N1070 0.984 . S
H1078 N1066 0.984 . S
H1079 N1066 0.985 . S
C1080 C1081 1.363 . S
C1080 C1086 1.379 . S
C1080 N1088 1.356 . S
C1081 C1080 1.363 . S
C1081 C1087 1.363 . S
C1082 C1083 1.363 . S
C1082 C1087 1.379 . S
C1082 N1089 1.356 . S
C1083 C1082 1.363 . S
C1083 C1086 1.363 . S
N1084 C1086 1.356 . S
N1084 H1096 0.984 . S
N1084 H1097 0.985 . S
N1085 C1087 1.356 . S
N1085 H1090 0.984 . S
N1085 H1091 0.985 . S
C1086 C1080 1.379 . S
C1086 C1083 1.363 . S
C1086 N1084 1.356 . S
C1087 C1081 1.363 . S
C1087 C1082 1.379 . S
C1087 N1085 1.356 . S
N1088 C1080 1.356 . S
N1088 H1094 0.984 . S
N1088 H1095 0.984 . S
N1089 C1082 1.356 . S
N1089 H1092 0.984 . S
N1089 H1093 0.985 . S
H1090 N1085 0.984 . S
H1091 N1085 0.985 . S
H1092 N1089 0.984 . S
H1093 N1089 0.985 . S
H1094 N1088 0.984 . S
H1095 N1088 0.984 . S
H1096 N1084 0.984 . S
H1097 N1084 0.985 . S
C1098 C1099 1.363 . S
C1098 C1104 1.379 . S
C1098 N1106 1.356 . S
C1099 C1098 1.363 . S
C1099 C1105 1.363 . S
C1100 C1101 1.363 . S
C1100 C1105 1.379 . S
C1100 N1107 1.356 . S
C1101 C1100 1.363 . S
C1101 C1104 1.363 . S
N1102 C1104 1.356 . S
N1102 H1114 0.984 . S
N1102 H1115 0.985 . S
N1103 C1105 1.356 . S
N1103 H1108 0.984 . S
N1103 H1109 0.985 . S
C1104 C1098 1.379 . S
C1104 C1101 1.363 . S
C1104 N1102 1.356 . S
C1105 C1099 1.363 . S
C1105 C1100 1.379 . S
C1105 N1103 1.356 . S
N1106 C1098 1.356 . S
N1106 H1112 0.984 . S
N1106 H1113 0.984 . S
N1107 C1100 1.356 . S
N1107 H1110 0.984 . S
N1107 H1111 0.985 . S
H1108 N1103 0.984 . S
H1109 N1103 0.985 . S
H1110 N1107 0.984 . S
H1111 N1107 0.985 . S
H1112 N1106 0.984 . S
H1113 N1106 0.984 . S
H1114 N1102 0.984 . S
H1115 N1102 0.985 . S
C1116 C1117 1.363 . S
C1116 C1122 1.379 . S
C1116 N1124 1.356 . S
C1117 C1116 1.363 . S
C1117 C1123 1.363 . S
C1118 C1119 1.363 . S
C1118 C1123 1.379 . S
C1118 N1125 1.356 . S
C1119 C1118 1.363 . S
C1119 C1122 1.363 . S
N1120 C1122 1.356 . S
N1120 H1132 0.984 . S
N1120 H1133 0.985 . S
N1121 C1123 1.356 . S
N1121 H1126 0.984 . S
N1121 H1127 0.985 . S
C1122 C1116 1.379 . S
C1122 C1119 1.363 . S
C1122 N1120 1.356 . S
C1123 C1117 1.363 . S
C1123 C1118 1.379 . S
C1123 N1121 1.356 . S
N1124 C1116 1.356 . S
N1124 H1130 0.984 . S
N1124 H1131 0.984 . S
N1125 C1118 1.356 . S
N1125 H1128 0.984 . S
N1125 H1129 0.985 . S
H1126 N1121 0.984 . S
H1127 N1121 0.985 . S
H1128 N1125 0.984 . S
H1129 N1125 0.985 . S
H1130 N1124 0.984 . S
H1131 N1124 0.984 . S
H1132 N1120 0.984 . S
H1133 N1120 0.985 . S
C1134 C1135 1.363 1_565 S
C1134 C1140 1.379 . S
C1134 N1142 1.356 . S
C1135 C1134 1.363 1_545 S
C1135 C1141 1.363 . S
C1136 C1137 1.363 1_545 S
C1136 C1141 1.379 . S
C1136 N1143 1.356 . S
C1137 C1136 1.363 1_565 S
C1137 C1140 1.363 . S
N1138 C1140 1.356 . S
N1138 H1150 0.984 . S
N1138 H1151 0.985 . S
N1139 C1141 1.356 . S
N1139 H1144 0.984 . S
N1139 H1145 0.985 . S
C1140 C1134 1.379 . S
C1140 C1137 1.363 . S
C1140 N1138 1.356 . S
C1141 C1135 1.363 . S
C1141 C1136 1.379 . S
C1141 N1139 1.356 . S
N1142 C1134 1.356 . S
N1142 H1148 0.984 . S
N1142 H1149 0.984 . S
N1143 C1136 1.356 . S
N1143 H1146 0.984 . S
N1143 H1147 0.985 . S
H1144 N1139 0.984 . S
H1145 N1139 0.985 . S
H1146 N1143 0.984 . S
H1147 N1143 0.985 . S
H1148 N1142 0.984 . S
H1149 N1142 0.984 . S
H1150 N1138 0.984 . S
H1151 N1138 0.985 . S
C1152 C1153 1.363 . S
C1152 C1158 1.379 . S
C1152 N1160 1.356 . S
C1153 C1152 1.363 . S
C1153 C1159 1.363 1_455 S
C1154 C1155 1.363 . S
C1154 C1159 1.379 . S
C1154 N1161 1.356 . S
C1155 C1154 1.363 . S
C1155 C1158 1.363 1_655 S
N1156 C1158 1.356 . S
N1156 H1168 0.984 . S
N1156 H1169 0.986 . S
N1157 C1159 1.356 . S
N1157 H1162 0.984 . S
N1157 H1163 0.985 . S
C1158 C1152 1.379 . S
C1158 C1155 1.363 1_455 S
C1158 N1156 1.356 . S
C1159 C1153 1.363 1_655 S
C1159 C1154 1.379 . S
C1159 N1157 1.356 . S
N1160 C1152 1.356 . S
N1160 H1166 0.984 . S
N1160 H1167 0.984 . S
N1161 C1154 1.356 . S
N1161 H1164 0.984 . S
N1161 H1165 0.985 . S
H1162 N1157 0.984 . S
H1163 N1157 0.985 . S
H1164 N1161 0.984 . S
H1165 N1161 0.985 . S
H1166 N1160 0.984 . S
H1167 N1160 0.984 . S
H1168 N1156 0.984 . S
H1169 N1156 0.986 . S
C1170 C1171 1.363 . S
C1170 C1176 1.379 . S
C1170 N1178 1.356 . S
C1171 C1170 1.363 . S
C1171 C1177 1.363 . S
C1172 C1173 1.363 . S
C1172 C1177 1.379 . S
C1172 N1179 1.356 . S
C1173 C1172 1.363 . S
C1173 C1176 1.363 . S
N1174 C1176 1.356 . S
N1174 H1186 0.984 . S
N1174 H1187 0.985 . S
N1175 C1177 1.356 . S
N1175 H1180 0.984 . S
N1175 H1181 0.985 . S
C1176 C1170 1.379 . S
C1176 C1173 1.363 . S
C1176 N1174 1.356 . S
C1177 C1171 1.363 . S
C1177 C1172 1.379 . S
C1177 N1175 1.356 . S
N1178 C1170 1.356 . S
N1178 H1184 0.984 . S
N1178 H1185 0.984 . S
N1179 C1172 1.356 . S
N1179 H1182 0.984 . S
N1179 H1183 0.985 . S
H1180 N1175 0.984 . S
H1181 N1175 0.985 . S
H1182 N1179 0.984 . S
H1183 N1179 0.985 . S
H1184 N1178 0.984 . S
H1185 N1178 0.984 . S
H1186 N1174 0.984 . S
H1187 N1174 0.985 . S
C1188 C1189 1.363 1_545 S
C1188 C1194 1.379 . S
C1188 N1196 1.356 . S
C1189 C1188 1.363 1_565 S
C1189 C1195 1.363 . S
C1190 C1191 1.363 1_565 S
C1190 C1195 1.379 . S
C1190 N1197 1.356 . S
C1191 C1190 1.363 1_545 S
C1191 C1194 1.363 . S
N1192 C1194 1.356 . S
N1192 H1204 0.984 . S
N1192 H1205 0.985 . S
N1193 C1195 1.356 . S
N1193 H1198 0.984 . S
N1193 H1199 0.985 . S
C1194 C1188 1.379 . S
C1194 C1191 1.363 . S
C1194 N1192 1.356 . S
C1195 C1189 1.363 . S
C1195 C1190 1.379 . S
C1195 N1193 1.356 . S
N1196 C1188 1.356 . S
N1196 H1202 0.984 . S
N1196 H1203 0.984 . S
N1197 C1190 1.356 . S
N1197 H1200 0.984 . S
N1197 H1201 0.985 . S
H1198 N1193 0.984 . S
H1199 N1193 0.985 . S
H1200 N1197 0.984 . S
H1201 N1197 0.985 . S
H1202 N1196 0.984 . S
H1203 N1196 0.984 . S
H1204 N1192 0.984 . S
H1205 N1192 0.985 . S
C1206 C1207 1.363 1_455 S
C1206 C1212 1.379 . S
C1206 N1214 1.356 . S
C1207 C1206 1.363 1_655 S
C1207 C1213 1.363 . S
C1208 C1209 1.363 1_655 S
C1208 C1213 1.379 . S
C1208 N1215 1.356 . S
C1209 C1208 1.363 1_455 S
C1209 C1212 1.363 . S
N1210 C1212 1.356 . S
N1210 H1222 0.984 . S
N1210 H1223 0.985 . S
N1211 C1213 1.356 . S
N1211 H1216 0.984 . S
N1211 H1217 0.985 . S
C1212 C1206 1.379 . S
C1212 C1209 1.363 . S
C1212 N1210 1.356 . S
C1213 C1207 1.363 . S
C1213 C1208 1.379 . S
C1213 N1211 1.356 . S
N1214 C1206 1.356 . S
N1214 H1220 0.984 . S
N1214 H1221 0.984 . S
N1215 C1208 1.356 . S
N1215 H1218 0.984 . S
N1215 H1219 0.985 . S
H1216 N1211 0.984 . S
H1217 N1211 0.985 . S
H1218 N1215 0.984 . S
H1219 N1215 0.985 . S
H1220 N1214 0.984 . S
H1221 N1214 0.984 . S
H1222 N1210 0.984 . S
H1223 N1210 0.985 . S
C1224 C1225 1.363 . S
C1224 C1230 1.379 . S
C1224 N1232 1.356 . S
C1225 C1224 1.363 . S
C1225 C1231 1.363 . S
C1226 C1227 1.363 . S
C1226 C1231 1.379 . S
C1226 N1233 1.356 . S
C1227 C1226 1.363 . S
C1227 C1230 1.363 . S
N1228 C1230 1.356 . S
N1228 H1240 0.984 . S
N1228 H1241 0.985 . S
N1229 C1231 1.356 . S
N1229 H1234 0.984 . S
N1229 H1235 0.985 . S
C1230 C1224 1.379 . S
C1230 C1227 1.363 . S
C1230 N1228 1.356 . S
C1231 C1225 1.363 . S
C1231 C1226 1.379 . S
C1231 N1229 1.356 . S
N1232 C1224 1.356 . S
N1232 H1238 0.984 . S
N1232 H1239 0.984 . S
N1233 C1226 1.356 . S
N1233 H1236 0.984 . S
N1233 H1237 0.985 . S
H1234 N1229 0.984 . S
H1235 N1229 0.985 . S
H1236 N1233 0.984 . S
H1237 N1233 0.985 . S
H1238 N1232 0.984 . S
H1239 N1232 0.984 . S
H1240 N1228 0.984 . S
H1241 N1228 0.985 . S
C1242 C1243 1.363 . S
C1242 C1248 1.379 . S
C1242 N1250 1.356 . S
C1243 C1242 1.363 . S
C1243 C1249 1.363 . S
C1244 C1245 1.363 . S
C1244 C1249 1.379 . S
C1244 N1251 1.356 . S
C1245 C1244 1.363 . S
C1245 C1248 1.363 . S
N1246 C1248 1.356 . S
N1246 H1258 0.984 . S
N1246 H1259 0.985 . S
N1247 C1249 1.356 . S
N1247 H1252 0.984 . S
N1247 H1253 0.985 . S
C1248 C1242 1.379 . S
C1248 C1245 1.363 . S
C1248 N1246 1.356 . S
C1249 C1243 1.363 . S
C1249 C1244 1.379 . S
C1249 N1247 1.356 . S
N1250 C1242 1.356 . S
N1250 H1256 0.984 . S
N1250 H1257 0.984 . S
N1251 C1244 1.356 . S
N1251 H1254 0.984 . S
N1251 H1255 0.985 . S
H1252 N1247 0.984 . S
H1253 N1247 0.985 . S
H1254 N1251 0.984 . S
H1255 N1251 0.985 . S
H1256 N1250 0.984 . S
H1257 N1250 0.984 . S
H1258 N1246 0.984 . S
H1259 N1246 0.985 . S
C1260 C1261 1.363 . S
C1260 C1266 1.379 . S
C1260 N1268 1.356 . S
C1261 C1260 1.363 . S
C1261 C1267 1.363 . S
C1262 C1263 1.363 . S
C1262 C1267 1.379 . S
C1262 N1269 1.356 . S
C1263 C1262 1.363 . S
C1263 C1266 1.363 . S
N1264 C1266 1.356 . S
N1264 H1276 0.984 . S
N1264 H1277 0.985 . S
N1265 C1267 1.356 . S
N1265 H1270 0.984 . S
N1265 H1271 0.985 . S
C1266 C1260 1.379 . S
C1266 C1263 1.363 . S
C1266 N1264 1.356 . S
C1267 C1261 1.363 . S
C1267 C1262 1.379 . S
C1267 N1265 1.356 . S
N1268 C1260 1.356 . S
N1268 H1274 0.984 . S
N1268 H1275 0.984 . S
N1269 C1262 1.356 . S
N1269 H1272 0.984 . S
N1269 H1273 0.985 . S
H1270 N1265 0.984 . S
H1271 N1265 0.985 . S
H1272 N1269 0.984 . S
H1273 N1269 0.985 . S
H1274 N1268 0.984 . S
H1275 N1268 0.984 . S
H1276 N1264 0.984 . S
H1277 N1264 0.985 . S
C1278 C1279 1.363 . S
C1278 C1284 1.379 . S
C1278 N1286 1.356 . S
C1279 C1278 1.363 . S
C1279 C1285 1.363 . S
C1280 C1281 1.363 . S
C1280 C1285 1.379 . S
C1280 N1287 1.356 . S
C1281 C1280 1.363 . S
C1281 C1284 1.363 . S
N1282 C1284 1.356 . S
N1282 H1294 0.984 . S
N1282 H1295 0.985 . S
N1283 C1285 1.356 . S
N1283 H1288 0.984 . S
N1283 H1289 0.985 . S
C1284 C1278 1.379 . S
C1284 C1281 1.363 . S
C1284 N1282 1.356 . S
C1285 C1279 1.363 . S
C1285 C1280 1.379 . S
C1285 N1283 1.356 . S
N1286 C1278 1.356 . S
N1286 H1292 0.984 . S
N1286 H1293 0.984 . S
N1287 C1280 1.356 . S
N1287 H1290 0.984 . S
N1287 H1291 0.985 . S
H1288 N1283 0.984 . S
H1289 N1283 0.985 . S
H1290 N1287 0.984 . S
H1291 N1287 0.985 . S
H1292 N1286 0.984 . S
H1293 N1286 0.984 . S
H1294 N1282 0.984 . S
H1295 N1282 0.985 . S
C1296 C1297 1.363 . S
C1296 C1302 1.379 . S
C1296 N1304 1.356 . S
C1297 C1296 1.363 . S
C1297 C1303 1.363 . S
C1298 C1299 1.363 . S
C1298 C1303 1.379 . S
C1298 N1305 1.356 . S
C1299 C1298 1.363 . S
C1299 C1302 1.363 . S
N1300 C1302 1.356 . S
N1300 H1312 0.984 . S
N1300 H1313 0.985 . S
N1301 C1303 1.356 . S
N1301 H1306 0.984 . S
N1301 H1307 0.985 . S
C1302 C1296 1.379 . S
C1302 C1299 1.363 . S
C1302 N1300 1.356 . S
C1303 C1297 1.363 . S
C1303 C1298 1.379 . S
C1303 N1301 1.356 . S
N1304 C1296 1.356 . S
N1304 H1310 0.984 . S
N1304 H1311 0.984 . S
N1305 C1298 1.356 . S
N1305 H1308 0.984 . S
N1305 H1309 0.985 . S
H1306 N1301 0.984 . S
H1307 N1301 0.985 . S
H1308 N1305 0.984 . S
H1309 N1305 0.985 . S
H1310 N1304 0.984 . S
H1311 N1304 0.984 . S
H1312 N1300 0.984 . S
H1313 N1300 0.985 . S
C1314 C1315 1.363 . S
C1314 C1320 1.379 . S
C1314 N1322 1.356 . S
C1315 C1314 1.363 . S
C1315 C1321 1.363 . S
C1316 C1317 1.363 . S
C1316 C1321 1.379 . S
C1316 N1323 1.356 . S
C1317 C1316 1.363 . S
C1317 C1320 1.363 . S
N1318 C1320 1.356 . S
N1318 H1330 0.984 . S
N1318 H1331 0.985 . S
N1319 C1321 1.356 . S
N1319 H1324 0.984 . S
N1319 H1325 0.985 . S
C1320 C1314 1.379 . S
C1320 C1317 1.363 . S
C1320 N1318 1.356 . S
C1321 C1315 1.363 . S
C1321 C1316 1.379 . S
C1321 N1319 1.356 . S
N1322 C1314 1.356 . S
N1322 H1328 0.984 . S
N1322 H1329 0.984 . S
N1323 C1316 1.356 . S
N1323 H1326 0.984 . S
N1323 H1327 0.985 . S
H1324 N1319 0.984 . S
H1325 N1319 0.985 . S
H1326 N1323 0.984 . S
H1327 N1323 0.985 . S
H1328 N1322 0.984 . S
H1329 N1322 0.984 . S
H1330 N1318 0.984 . S
H1331 N1318 0.985 . S
C1332 C1333 1.363 . S
C1332 C1338 1.379 . S
C1332 N1340 1.356 . S
C1333 C1332 1.363 . S
C1333 C1339 1.363 . S
C1334 C1335 1.363 . S
C1334 C1339 1.379 . S
C1334 N1341 1.356 . S
C1335 C1334 1.363 . S
C1335 C1338 1.363 . S
N1336 C1338 1.356 . S
N1336 H1348 0.984 . S
N1336 H1349 0.985 . S
N1337 C1339 1.356 . S
N1337 H1342 0.984 . S
N1337 H1343 0.985 . S
C1338 C1332 1.379 . S
C1338 C1335 1.363 . S
C1338 N1336 1.356 . S
C1339 C1333 1.363 . S
C1339 C1334 1.379 . S
C1339 N1337 1.356 . S
N1340 C1332 1.356 . S
N1340 H1346 0.984 . S
N1340 H1347 0.984 . S
N1341 C1334 1.356 . S
N1341 H1344 0.984 . S
N1341 H1345 0.985 . S
H1342 N1337 0.984 . S
H1343 N1337 0.985 . S
H1344 N1341 0.984 . S
H1345 N1341 0.985 . S
H1346 N1340 0.984 . S
H1347 N1340 0.984 . S
H1348 N1336 0.984 . S
H1349 N1336 0.985 . S
C1350 C1351 1.363 . S
C1350 C1356 1.379 . S
C1350 N1358 1.356 . S
C1351 C1350 1.363 . S
C1351 C1357 1.363 . S
C1352 C1353 1.363 . S
C1352 C1357 1.379 . S
C1352 N1359 1.356 . S
C1353 C1352 1.363 . S
C1353 C1356 1.363 . S
N1354 C1356 1.356 . S
N1354 H1366 0.984 . S
N1354 H1367 0.985 . S
N1355 C1357 1.356 . S
N1355 H1360 0.984 . S
N1355 H1361 0.985 . S
C1356 C1350 1.379 . S
C1356 C1353 1.363 . S
C1356 N1354 1.356 . S
C1357 C1351 1.363 . S
C1357 C1352 1.379 . S
C1357 N1355 1.356 . S
N1358 C1350 1.356 . S
N1358 H1364 0.984 . S
N1358 H1365 0.984 . S
N1359 C1352 1.356 . S
N1359 H1362 0.984 . S
N1359 H1363 0.985 . S
H1360 N1355 0.984 . S
H1361 N1355 0.985 . S
H1362 N1359 0.984 . S
H1363 N1359 0.985 . S
H1364 N1358 0.984 . S
H1365 N1358 0.984 . S
H1366 N1354 0.984 . S
H1367 N1354 0.985 . S
C1368 C1369 1.363 . S
C1368 C1374 1.379 . S
C1368 N1376 1.356 . S
C1369 C1368 1.363 . S
C1369 C1375 1.363 . S
C1370 C1371 1.363 . S
C1370 C1375 1.379 . S
C1370 N1377 1.356 . S
C1371 C1370 1.363 . S
C1371 C1374 1.363 . S
N1372 C1374 1.356 . S
N1372 H1384 0.984 . S
N1372 H1385 0.985 . S
N1373 C1375 1.356 . S
N1373 H1378 0.984 . S
N1373 H1379 0.985 . S
C1374 C1368 1.379 . S
C1374 C1371 1.363 . S
C1374 N1372 1.356 . S
C1375 C1369 1.363 . S
C1375 C1370 1.379 . S
C1375 N1373 1.356 . S
N1376 C1368 1.356 . S
N1376 H1382 0.984 . S
N1376 H1383 0.984 . S
N1377 C1370 1.356 . S
N1377 H1380 0.984 . S
N1377 H1381 0.985 . S
H1378 N1373 0.984 . S
H1379 N1373 0.985 . S
H1380 N1377 0.984 . S
H1381 N1377 0.985 . S
H1382 N1376 0.984 . S
H1383 N1376 0.984 . S
H1384 N1372 0.984 . S
H1385 N1372 0.985 . S
C1386 C1387 1.363 . S
C1386 C1392 1.379 . S
C1386 N1394 1.356 . S
C1387 C1386 1.363 . S
C1387 C1393 1.363 . S
C1388 C1389 1.363 . S
C1388 C1393 1.379 . S
C1388 N1395 1.356 . S
C1389 C1388 1.363 . S
C1389 C1392 1.363 . S
N1390 C1392 1.356 . S
N1390 H1402 0.984 . S
N1390 H1403 0.985 . S
N1391 C1393 1.356 . S
N1391 H1396 0.984 . S
N1391 H1397 0.985 . S
C1392 C1386 1.379 . S
C1392 C1389 1.363 . S
C1392 N1390 1.356 . S
C1393 C1387 1.363 . S
C1393 C1388 1.379 . S
C1393 N1391 1.356 . S
N1394 C1386 1.356 . S
N1394 H1400 0.984 . S
N1394 H1401 0.984 . S
N1395 C1388 1.356 . S
N1395 H1398 0.984 . S
N1395 H1399 0.985 . S
H1396 N1391 0.984 . S
H1397 N1391 0.985 . S
H1398 N1395 0.984 . S
H1399 N1395 0.985 . S
H1400 N1394 0.984 . S
H1401 N1394 0.984 . S
H1402 N1390 0.984 . S
H1403 N1390 0.985 . S
C1404 C1405 1.363 . S
C1404 C1410 1.379 . S
C1404 N1412 1.356 . S
C1405 C1404 1.363 . S
C1405 C1411 1.363 . S
C1406 C1407 1.363 . S
C1406 C1411 1.379 . S
C1406 N1413 1.356 . S
C1407 C1406 1.363 . S
C1407 C1410 1.363 . S
N1408 C1410 1.356 . S
N1408 H1420 0.984 . S
N1408 H1421 0.985 . S
N1409 C1411 1.356 . S
N1409 H1414 0.984 . S
N1409 H1415 0.985 . S
C1410 C1404 1.379 . S
C1410 C1407 1.363 . S
C1410 N1408 1.356 . S
C1411 C1405 1.363 . S
C1411 C1406 1.379 . S
C1411 N1409 1.356 . S
N1412 C1404 1.356 . S
N1412 H1418 0.984 . S
N1412 H1419 0.984 . S
N1413 C1406 1.356 . S
N1413 H1416 0.984 . S
N1413 H1417 0.985 . S
H1414 N1409 0.984 . S
H1415 N1409 0.985 . S
H1416 N1413 0.984 . S
H1417 N1413 0.985 . S
H1418 N1412 0.984 . S
H1419 N1412 0.984 . S
H1420 N1408 0.984 . S
H1421 N1408 0.985 . S
C1422 C1423 1.363 . S
C1422 C1428 1.379 . S
C1422 N1430 1.356 . S
C1423 C1422 1.363 . S
C1423 C1429 1.363 . S
C1424 C1425 1.363 . S
C1424 C1429 1.379 . S
C1424 N1431 1.356 . S
C1425 C1424 1.363 . S
C1425 C1428 1.363 . S
N1426 C1428 1.356 . S
N1426 H1438 0.984 . S
N1426 H1439 0.985 . S
N1427 C1429 1.356 . S
N1427 H1432 0.984 . S
N1427 H1433 0.985 . S
C1428 C1422 1.379 . S
C1428 C1425 1.363 . S
C1428 N1426 1.356 . S
C1429 C1423 1.363 . S
C1429 C1424 1.379 . S
C1429 N1427 1.356 . S
N1430 C1422 1.356 . S
N1430 H1436 0.984 . S
N1430 H1437 0.984 . S
N1431 C1424 1.356 . S
N1431 H1434 0.984 . S
N1431 H1435 0.985 . S
H1432 N1427 0.984 . S
H1433 N1427 0.985 . S
H1434 N1431 0.984 . S
H1435 N1431 0.985 . S
H1436 N1430 0.984 . S
H1437 N1430 0.984 . S
H1438 N1426 0.984 . S
H1439 N1426 0.985 . S
C1440 C1441 1.363 . S
C1440 C1446 1.379 . S
C1440 N1448 1.356 . S
C1441 C1440 1.363 . S
C1441 C1447 1.363 . S
C1442 C1443 1.363 . S
C1442 C1447 1.379 . S
C1442 N1449 1.356 . S
C1443 C1442 1.363 . S
C1443 C1446 1.363 . S
N1444 C1446 1.356 . S
N1444 H1456 0.984 . S
N1444 H1457 0.985 . S
N1445 C1447 1.356 . S
N1445 H1450 0.984 . S
N1445 H1451 0.985 . S
C1446 C1440 1.379 . S
C1446 C1443 1.363 . S
C1446 N1444 1.356 . S
C1447 C1441 1.363 . S
C1447 C1442 1.379 . S
C1447 N1445 1.356 . S
N1448 C1440 1.356 . S
N1448 H1454 0.984 . S
N1448 H1455 0.984 . S
N1449 C1442 1.356 . S
N1449 H1452 0.984 . S
N1449 H1453 0.985 . S
H1450 N1445 0.984 . S
H1451 N1445 0.985 . S
H1452 N1449 0.984 . S
H1453 N1449 0.985 . S
H1454 N1448 0.984 . S
H1455 N1448 0.984 . S
H1456 N1444 0.984 . S
H1457 N1444 0.985 . S
C1458 C1459 1.363 . S
C1458 C1464 1.379 . S
C1458 N1466 1.356 . S
C1459 C1458 1.363 . S
C1459 C1465 1.363 . S
C1460 C1461 1.363 . S
C1460 C1465 1.379 . S
C1460 N1467 1.356 . S
C1461 C1460 1.363 . S
C1461 C1464 1.363 . S
N1462 C1464 1.356 . S
N1462 H1474 0.984 . S
N1462 H1475 0.985 . S
N1463 C1465 1.356 . S
N1463 H1468 0.984 . S
N1463 H1469 0.985 . S
C1464 C1458 1.379 . S
C1464 C1461 1.363 . S
C1464 N1462 1.356 . S
C1465 C1459 1.363 . S
C1465 C1460 1.379 . S
C1465 N1463 1.356 . S
N1466 C1458 1.356 . S
N1466 H1472 0.984 . S
N1466 H1473 0.984 . S
N1467 C1460 1.356 . S
N1467 H1470 0.984 . S
N1467 H1471 0.985 . S
H1468 N1463 0.984 . S
H1469 N1463 0.985 . S
H1470 N1467 0.984 . S
H1471 N1467 0.985 . S
H1472 N1466 0.984 . S
H1473 N1466 0.984 . S
H1474 N1462 0.984 . S
H1475 N1462 0.985 . S
C1476 C1477 1.363 . S
C1476 C1482 1.379 . S
C1476 N1484 1.356 . S
C1477 C1476 1.363 . S
C1477 C1483 1.363 . S
C1478 C1479 1.363 . S
C1478 C1483 1.379 . S
C1478 N1485 1.356 . S
C1479 C1478 1.363 . S
C1479 C1482 1.363 . S
N1480 C1482 1.356 . S
N1480 H1492 0.984 . S
N1480 H1493 0.985 . S
N1481 C1483 1.356 . S
N1481 H1486 0.984 . S
N1481 H1487 0.985 . S
C1482 C1476 1.379 . S
C1482 C1479 1.363 . S
C1482 N1480 1.356 . S
C1483 C1477 1.363 . S
C1483 C1478 1.379 . S
C1483 N1481 1.356 . S
N1484 C1476 1.356 . S
N1484 H1490 0.984 . S
N1484 H1491 0.984 . S
N1485 C1478 1.356 . S
N1485 H1488 0.984 . S
N1485 H1489 0.985 . S
H1486 N1481 0.984 . S
H1487 N1481 0.985 . S
H1488 N1485 0.984 . S
H1489 N1485 0.985 . S
H1490 N1484 0.984 . S
H1491 N1484 0.984 . S
H1492 N1480 0.984 . S
H1493 N1480 0.985 . S
C1494 C1495 1.363 . S
C1494 C1500 1.379 . S
C1494 N1502 1.356 . S
C1495 C1494 1.363 . S
C1495 C1501 1.363 . S
C1496 C1497 1.363 . S
C1496 C1501 1.379 . S
C1496 N1503 1.356 . S
C1497 C1496 1.363 . S
C1497 C1500 1.363 . S
N1498 C1500 1.356 . S
N1498 H1510 0.984 . S
N1498 H1511 0.985 . S
N1499 C1501 1.356 . S
N1499 H1504 0.984 . S
N1499 H1505 0.985 . S
C1500 C1494 1.379 . S
C1500 C1497 1.363 . S
C1500 N1498 1.356 . S
C1501 C1495 1.363 . S
C1501 C1496 1.379 . S
C1501 N1499 1.356 . S
N1502 C1494 1.356 . S
N1502 H1508 0.984 . S
N1502 H1509 0.984 . S
N1503 C1496 1.356 . S
N1503 H1506 0.984 . S
N1503 H1507 0.985 . S
H1504 N1499 0.984 . S
H1505 N1499 0.985 . S
H1506 N1503 0.984 . S
H1507 N1503 0.985 . S
H1508 N1502 0.984 . S
H1509 N1502 0.984 . S
H1510 N1498 0.984 . S
H1511 N1498 0.985 . S
C1512 C1513 1.363 . S
C1512 C1518 1.379 . S
C1512 N1520 1.356 . S
C1513 C1512 1.363 . S
C1513 C1519 1.363 . S
C1514 C1515 1.363 . S
C1514 C1519 1.379 . S
C1514 N1521 1.356 . S
C1515 C1514 1.363 . S
C1515 C1518 1.363 . S
N1516 C1518 1.356 . S
N1516 H1528 0.984 . S
N1516 H1529 0.985 . S
N1517 C1519 1.356 . S
N1517 H1522 0.984 . S
N1517 H1523 0.985 . S
C1518 C1512 1.379 . S
C1518 C1515 1.363 . S
C1518 N1516 1.356 . S
C1519 C1513 1.363 . S
C1519 C1514 1.379 . S
C1519 N1517 1.356 . S
N1520 C1512 1.356 . S
N1520 H1526 0.984 . S
N1520 H1527 0.984 . S
N1521 C1514 1.356 . S
N1521 H1524 0.984 . S
N1521 H1525 0.985 . S
H1522 N1517 0.984 . S
H1523 N1517 0.985 . S
H1524 N1521 0.984 . S
H1525 N1521 0.985 . S
H1526 N1520 0.984 . S
H1527 N1520 0.984 . S
H1528 N1516 0.984 . S
H1529 N1516 0.985 . S
C1530 C1531 1.363 . S
C1530 C1536 1.379 . S
C1530 N1538 1.356 . S
C1531 C1530 1.363 . S
C1531 C1537 1.363 . S
C1532 C1533 1.363 . S
C1532 C1537 1.379 . S
C1532 N1539 1.356 . S
C1533 C1532 1.363 . S
C1533 C1536 1.363 . S
N1534 C1536 1.356 . S
N1534 H1546 0.984 . S
N1534 H1547 0.985 . S
N1535 C1537 1.356 . S
N1535 H1540 0.984 . S
N1535 H1541 0.985 . S
C1536 C1530 1.379 . S
C1536 C1533 1.363 . S
C1536 N1534 1.356 . S
C1537 C1531 1.363 . S
C1537 C1532 1.379 . S
C1537 N1535 1.356 . S
N1538 C1530 1.356 . S
N1538 H1544 0.984 . S
N1538 H1545 0.984 . S
N1539 C1532 1.356 . S
N1539 H1542 0.984 . S
N1539 H1543 0.985 . S
H1540 N1535 0.984 . S
H1541 N1535 0.985 . S
H1542 N1539 0.984 . S
H1543 N1539 0.985 . S
H1544 N1538 0.984 . S
H1545 N1538 0.984 . S
H1546 N1534 0.984 . S
H1547 N1534 0.985 . S
C1548 C1549 1.363 . S
C1548 C1554 1.379 . S
C1548 N1556 1.356 . S
C1549 C1548 1.363 . S
C1549 C1555 1.363 . S
C1550 C1551 1.363 . S
C1550 C1555 1.379 . S
C1550 N1557 1.356 . S
C1551 C1550 1.363 . S
C1551 C1554 1.363 . S
N1552 C1554 1.356 . S
N1552 H1564 0.984 . S
N1552 H1565 0.985 . S
N1553 C1555 1.356 . S
N1553 H1558 0.984 . S
N1553 H1559 0.985 . S
C1554 C1548 1.379 . S
C1554 C1551 1.363 . S
C1554 N1552 1.356 . S
C1555 C1549 1.363 . S
C1555 C1550 1.379 . S
C1555 N1553 1.356 . S
N1556 C1548 1.356 . S
N1556 H1562 0.984 . S
N1556 H1563 0.984 . S
N1557 C1550 1.356 . S
N1557 H1560 0.984 . S
N1557 H1561 0.985 . S
H1558 N1553 0.984 . S
H1559 N1553 0.985 . S
H1560 N1557 0.984 . S
H1561 N1557 0.985 . S
H1562 N1556 0.984 . S
H1563 N1556 0.984 . S
H1564 N1552 0.984 . S
H1565 N1552 0.985 . S
C1566 C1567 1.363 . S
C1566 C1572 1.379 . S
C1566 N1574 1.356 . S
C1567 C1566 1.363 . S
C1567 C1573 1.363 . S
C1568 C1569 1.363 . S
C1568 C1573 1.379 . S
C1568 N1575 1.356 . S
C1569 C1568 1.363 . S
C1569 C1572 1.363 . S
N1570 C1572 1.356 . S
N1570 H1582 0.984 . S
N1570 H1583 0.985 . S
N1571 C1573 1.356 . S
N1571 H1576 0.984 . S
N1571 H1577 0.985 . S
C1572 C1566 1.379 . S
C1572 C1569 1.363 . S
C1572 N1570 1.356 . S
C1573 C1567 1.363 . S
C1573 C1568 1.379 . S
C1573 N1571 1.356 . S
N1574 C1566 1.356 . S
N1574 H1580 0.984 . S
N1574 H1581 0.984 . S
N1575 C1568 1.356 . S
N1575 H1578 0.984 . S
N1575 H1579 0.985 . S
H1576 N1571 0.984 . S
H1577 N1571 0.985 . S
H1578 N1575 0.984 . S
H1579 N1575 0.985 . S
H1580 N1574 0.984 . S
H1581 N1574 0.984 . S
H1582 N1570 0.984 . S
H1583 N1570 0.985 . S
C1584 C1585 1.363 . S
C1584 C1590 1.379 . S
C1584 N1592 1.356 . S
C1585 C1584 1.363 . S
C1585 C1591 1.363 . S
C1586 C1587 1.363 . S
C1586 C1591 1.379 . S
C1586 N1593 1.356 . S
C1587 C1586 1.363 . S
C1587 C1590 1.363 . S
N1588 C1590 1.356 . S
N1588 H1600 0.984 . S
N1588 H1601 0.985 . S
N1589 C1591 1.356 . S
N1589 H1594 0.984 . S
N1589 H1595 0.985 . S
C1590 C1584 1.379 . S
C1590 C1587 1.363 . S
C1590 N1588 1.356 . S
C1591 C1585 1.363 . S
C1591 C1586 1.379 . S
C1591 N1589 1.356 . S
N1592 C1584 1.356 . S
N1592 H1598 0.984 . S
N1592 H1599 0.984 . S
N1593 C1586 1.356 . S
N1593 H1596 0.984 . S
N1593 H1597 0.985 . S
H1594 N1589 0.984 . S
H1595 N1589 0.985 . S
H1596 N1593 0.984 . S
H1597 N1593 0.985 . S
H1598 N1592 0.984 . S
H1599 N1592 0.984 . S
H1600 N1588 0.984 . S
H1601 N1588 0.985 . S
C1602 C1603 1.363 . S
C1602 C1608 1.379 . S
C1602 N1610 1.356 . S
C1603 C1602 1.363 . S
C1603 C1609 1.363 . S
C1604 C1605 1.363 . S
C1604 C1609 1.379 . S
C1604 N1611 1.356 . S
C1605 C1604 1.363 . S
C1605 C1608 1.363 . S
N1606 C1608 1.356 . S
N1606 H1618 0.984 . S
N1606 H1619 0.985 . S
N1607 C1609 1.356 . S
N1607 H1612 0.984 . S
N1607 H1613 0.985 . S
C1608 C1602 1.379 . S
C1608 C1605 1.363 . S
C1608 N1606 1.356 . S
C1609 C1603 1.363 . S
C1609 C1604 1.379 . S
C1609 N1607 1.356 . S
N1610 C1602 1.356 . S
N1610 H1616 0.984 . S
N1610 H1617 0.984 . S
N1611 C1604 1.356 . S
N1611 H1614 0.984 . S
N1611 H1615 0.985 . S
H1612 N1607 0.984 . S
H1613 N1607 0.985 . S
H1614 N1611 0.984 . S
H1615 N1611 0.985 . S
H1616 N1610 0.984 . S
H1617 N1610 0.984 . S
H1618 N1606 0.984 . S
H1619 N1606 0.985 . S
C1620 C1621 1.363 . S
C1620 C1626 1.379 . S
C1620 N1628 1.356 . S
C1621 C1620 1.363 . S
C1621 C1627 1.363 . S
C1622 C1623 1.363 . S
C1622 C1627 1.379 . S
C1622 N1629 1.356 . S
C1623 C1622 1.363 . S
C1623 C1626 1.363 . S
N1624 C1626 1.356 . S
N1624 H1636 0.984 . S
N1624 H1637 0.985 . S
N1625 C1627 1.356 . S
N1625 H1630 0.984 . S
N1625 H1631 0.985 . S
C1626 C1620 1.379 . S
C1626 C1623 1.363 . S
C1626 N1624 1.356 . S
C1627 C1621 1.363 . S
C1627 C1622 1.379 . S
C1627 N1625 1.356 . S
N1628 C1620 1.356 . S
N1628 H1634 0.984 . S
N1628 H1635 0.984 . S
N1629 C1622 1.356 . S
N1629 H1632 0.984 . S
N1629 H1633 0.985 . S
H1630 N1625 0.984 . S
H1631 N1625 0.985 . S
H1632 N1629 0.984 . S
H1633 N1629 0.985 . S
H1634 N1628 0.984 . S
H1635 N1628 0.984 . S
H1636 N1624 0.984 . S
H1637 N1624 0.985 . S
C1638 C1639 1.363 . S
C1638 C1644 1.379 . S
C1638 N1646 1.356 . S
C1639 C1638 1.363 . S
C1639 C1645 1.363 . S
C1640 C1641 1.363 . S
C1640 C1645 1.379 . S
C1640 N1647 1.356 . S
C1641 C1640 1.363 . S
C1641 C1644 1.363 . S
N1642 C1644 1.356 . S
N1642 H1654 0.984 . S
N1642 H1655 0.985 . S
N1643 C1645 1.356 . S
N1643 H1648 0.984 . S
N1643 H1649 0.985 . S
C1644 C1638 1.379 . S
C1644 C1641 1.363 . S
C1644 N1642 1.356 . S
C1645 C1639 1.363 . S
C1645 C1640 1.379 . S
C1645 N1643 1.356 . S
N1646 C1638 1.356 . S
N1646 H1652 0.984 . S
N1646 H1653 0.984 . S
N1647 C1640 1.356 . S
N1647 H1650 0.984 . S
N1647 H1651 0.985 . S
H1648 N1643 0.984 . S
H1649 N1643 0.985 . S
H1650 N1647 0.984 . S
H1651 N1647 0.985 . S
H1652 N1646 0.984 . S
H1653 N1646 0.984 . S
H1654 N1642 0.984 . S
H1655 N1642 0.985 . S
C1656 C1657 1.363 1_655 S
C1656 C1662 1.379 . S
C1656 N1664 1.356 1_655 S
C1657 C1656 1.363 1_455 S
C1657 C1663 1.363 . S
C1658 C1659 1.363 1_455 S
C1658 C1663 1.379 . S
C1658 N1665 1.371 . S
C1659 C1658 1.363 1_655 S
C1659 C1662 1.363 . S
N1660 C1662 1.356 . S
N1660 H1672 0.984 . S
N1660 H1673 0.985 . S
N1661 C1663 1.356 . S
N1661 H1666 0.984 . S
N1661 H1667 0.985 . S
C1662 C1656 1.379 . S
C1662 C1659 1.363 . S
C1662 N1660 1.356 . S
C1663 C1657 1.363 . S
C1663 C1658 1.379 . S
C1663 N1661 1.356 . S
N1664 C1656 1.356 1_455 S
N1664 H1670 0.984 1_455 S
N1664 H1671 0.984 . S
N1665 C1658 1.371 . S
N1665 H1668 0.958 1_455 S
N1665 H1669 0.997 . S
H1666 N1661 0.984 . S
H1667 N1661 0.985 . S
H1668 N1665 0.958 1_655 S
H1669 N1665 0.997 . S
H1670 N1664 0.984 1_655 S
H1671 N1664 0.984 . S
H1672 N1660 0.984 . S
H1673 N1660 0.985 . S
C1674 C1675 1.363 . S
C1674 C1680 1.379 . S
C1674 N1682 1.356 . S
C1675 C1674 1.363 . S
C1675 C1681 1.363 . S
C1676 C1677 1.363 . S
C1676 C1681 1.379 . S
C1676 N1683 1.356 . S
C1677 C1676 1.363 . S
C1677 C1680 1.363 . S
N1678 C1680 1.356 . S
N1678 H1690 0.984 . S
N1678 H1691 0.985 . S
N1679 C1681 1.356 . S
N1679 H1684 0.984 . S
N1679 H1685 0.985 . S
C1680 C1674 1.379 . S
C1680 C1677 1.363 . S
C1680 N1678 1.356 . S
C1681 C1675 1.363 . S
C1681 C1676 1.379 . S
C1681 N1679 1.356 . S
N1682 C1674 1.356 . S
N1682 H1688 0.984 . S
N1682 H1689 0.984 . S
N1683 C1676 1.356 . S
N1683 H1686 0.984 . S
N1683 H1687 0.985 . S
H1684 N1679 0.984 . S
H1685 N1679 0.985 . S
H1686 N1683 0.984 . S
H1687 N1683 0.985 . S
H1688 N1682 0.984 . S
H1689 N1682 0.984 . S
H1690 N1678 0.984 . S
H1691 N1678 0.985 . S
C1692 C1693 1.363 . S
C1692 C1698 1.379 . S
C1692 N1700 1.356 . S
C1693 C1692 1.363 . S
C1693 C1699 1.363 1_545 S
C1694 C1695 1.363 . S
C1694 C1699 1.379 . S
C1694 N1701 1.356 . S
C1695 C1694 1.363 . S
C1695 C1698 1.363 1_565 S
N1696 C1698 1.356 1_565 S
N1696 H1708 0.984 1_565 S
N1696 H1709 0.985 . S
N1697 C1699 1.356 . S
N1697 H1702 0.984 1_565 S
N1697 H1703 0.985 . S
C1698 C1692 1.379 . S
C1698 C1695 1.363 1_545 S
C1698 N1696 1.356 1_545 S
C1699 C1693 1.363 1_565 S
C1699 C1694 1.379 . S
C1699 N1697 1.356 . S
N1700 C1692 1.356 . S
N1700 H1706 0.984 . S
N1700 H1707 0.984 . S
N1701 C1694 1.356 . S
N1701 H1704 0.984 . S
N1701 H1705 0.985 . S
H1702 N1697 0.984 1_545 S
H1703 N1697 0.985 . S
H1704 N1701 0.984 . S
H1705 N1701 0.985 . S
H1706 N1700 0.984 . S
H1707 N1700 0.984 . S
H1708 N1696 0.984 1_545 S
H1709 N1696 0.985 . S
C1710 C1711 1.363 1_566 S
C1710 C1716 1.379 . S
C1710 N1718 1.356 1_565 S
C1711 C1710 1.363 1_544 S
C1711 C1717 1.363 . S
C1712 C1713 1.363 1_545 S
C1712 C1717 1.379 . S
C1712 N1719 1.356 . S
C1713 C1712 1.363 1_565 S
C1713 C1716 1.363 1_554 S
N1714 C1716 1.356 . S
N1714 H1726 0.984 . S
N1714 H1727 0.985 . S
N1715 C1717 1.356 . S
N1715 H1720 0.984 . S
N1715 H1721 0.985 . S
C1716 C1710 1.379 . S
C1716 C1713 1.363 1_556 S
C1716 N1714 1.356 . S
C1717 C1711 1.363 . S
C1717 C1712 1.379 . S
C1717 N1715 1.356 . S
N1718 C1710 1.356 1_545 S
N1718 H1724 0.984 1_545 S
N1718 H1725 0.984 . S
N1719 C1712 1.356 . S
N1719 H1722 0.984 1_545 S
N1719 H1723 0.985 . S
H1720 N1715 0.984 . S
H1721 N1715 0.985 . S
H1722 N1719 0.984 1_565 S
H1723 N1719 0.985 . S
H1724 N1718 0.984 1_565 S
H1725 N1718 0.984 . S
H1726 N1714 0.984 . S
H1727 N1714 0.985 . S
C1728 C1729 1.363 1_456 S
C1728 C1734 1.379 . S
C1728 N1736 1.356 1_455 S
C1729 C1728 1.363 1_654 S
C1729 C1735 1.363 . S
C1730 C1731 1.363 1_655 S
C1730 C1735 1.379 . S
C1730 N1737 1.356 . S
C1731 C1730 1.363 1_455 S
C1731 C1734 1.363 1_554 S
N1732 C1734 1.356 . S
N1732 H1744 0.984 . S
N1732 H1745 0.985 . S
N1733 C1735 1.356 . S
N1733 H1738 0.984 . S
N1733 H1739 0.985 . S
C1734 C1728 1.379 . S
C1734 C1731 1.363 1_556 S
C1734 N1732 1.356 . S
C1735 C1729 1.363 . S
C1735 C1730 1.379 . S
C1735 N1733 1.356 . S
N1736 C1728 1.356 1_655 S
N1736 H1742 0.984 1_655 S
N1736 H1743 0.984 . S
N1737 C1730 1.356 . S
N1737 H1740 0.984 1_655 S
N1737 H1741 0.985 . S
H1738 N1733 0.984 . S
H1739 N1733 0.985 . S
H1740 N1737 0.984 1_455 S
H1741 N1737 0.985 . S
H1742 N1736 0.984 1_455 S
H1743 N1736 0.984 . S
H1744 N1732 0.984 . S
H1745 N1732 0.985 . S
C1746 C1747 1.363 . S
C1746 C1752 1.379 . S
C1746 N1754 1.356 . S
C1747 C1746 1.363 . S
C1747 C1753 1.363 1_554 S
C1748 C1749 1.363 1_556 S
C1748 C1753 1.379 . S
C1748 N1755 1.356 . S
C1749 C1748 1.363 1_554 S
C1749 C1752 1.363 . S
N1750 C1752 1.356 . S
N1750 H1762 0.984 . S
N1750 H1763 0.985 . S
N1751 C1753 1.356 . S
N1751 H1756 0.984 . S
N1751 H1757 0.985 . S
C1752 C1746 1.379 . S
C1752 C1749 1.363 . S
C1752 N1750 1.356 . S
C1753 C1747 1.363 1_556 S
C1753 C1748 1.379 . S
C1753 N1751 1.356 . S
N1754 C1746 1.356 . S
N1754 H1760 0.984 . S
N1754 H1761 0.984 . S
N1755 C1748 1.356 . S
N1755 H1758 0.984 . S
N1755 H1759 0.985 . S
H1756 N1751 0.984 . S
H1757 N1751 0.985 . S
H1758 N1755 0.984 . S
H1759 N1755 0.985 . S
H1760 N1754 0.984 . S
H1761 N1754 0.984 . S
H1762 N1750 0.984 . S
H1763 N1750 0.985 . S
C469 C5 1.060 . S
C471 C23 1.447 . S
C487 C18 1.060 . S
C489 C36 1.448 . S
C505 C10 1.448 . S
C507 C31 1.060 . S
C523 C44 1.060 . S
C525 C75 1.447 . S
C541 C57 1.060 . S
C543 C49 1.448 . S
C559 C62 1.448 . S
C561 C70 1.060 . S
C577 C83 1.091 . S
C579 C99 1.386 . S
C595 C112 1.386 . S
C597 C96 1.091 . S
C613 C86 1.387 . S
C615 C109 1.091 . S
C631 C151 1.386 . S
C633 C122 1.091 . S
C649 C135 1.091 . S
C651 C125 1.387 . S
C667 C148 1.091 . S
C669 C138 1.386 . S
C685 C179 1.447 . S
C687 C161 1.060 . S
C703 C174 1.060 . S
C705 C192 1.448 . S
C721 C187 1.060 . S
C723 C166 1.448 . S
C739 C200 1.060 . S
C741 C231 1.447 . S
C757 C213 1.060 . S
C759 C205 1.448 . S
C775 C226 1.060 . S
C777 C218 1.448 . S
C793 C255 1.386 . S
C795 C239 1.091 . S
C811 C252 1.091 . S
C813 C268 1.386 . S
C829 C242 1.387 . S
C831 C265 1.091 . S
C847 C307 1.386 . S
C849 C278 1.091 . S
C865 C291 1.091 . S
C867 C281 1.387 . S
C883 C294 1.386 . S
C885 C304 1.091 . S
C901 C335 1.447 . S
C903 C317 1.060 . S
C919 C330 1.060 . S
C921 C348 1.448 . S
C937 C343 1.060 . S
C939 C322 1.448 . S
C955 C387 1.447 . S
C957 C356 1.060 . S
C973 C369 1.060 . S
C975 C361 1.448 . S
C991 C374 1.448 . S
C993 C382 1.060 . S
C1009 C395 1.091 . S
C1011 C411 1.386 . S
C1027 C408 1.091 . S
C1029 C424 1.386 . S
C1045 C421 1.091 . S
C1047 C398 1.387 . S
C1063 C463 1.386 . S
C1065 C434 1.091 . S
C1081 C437 1.387 . S
C1083 C447 1.091 . S
C1099 C460 1.091 . S
C1101 C450 1.386 . S
C1117 C47 1.532 . S
C1119 C8 1.532 . S
C1135 C21 1.533 1_545 S
C1137 C60 1.533 1_565 S
C1153 C73 1.533 1_455 S
C1155 C34 1.533 1_655 S
C1171 C127 1.542 . S
C1173 C88 1.542 . S
C1189 C101 1.542 . S
C1191 C140 1.542 . S
C1207 C153 1.542 . S
C1209 C114 1.542 . S
C1225 C164 1.532 . S
C1227 C203 1.532 . S
C1243 C177 1.533 . S
C1245 C216 1.533 . S
C1261 C190 1.533 . S
C1263 C229 1.533 . S
C1279 C283 1.542 . S
C1281 C244 1.542 . S
C1297 C296 1.542 . S
C1299 C257 1.542 . S
C1315 C270 1.542 . S
C1317 C309 1.542 . S
C1333 C359 1.532 . S
C1335 C320 1.532 . S
C1351 C372 1.532 . S
C1353 C333 1.533 . S
C1369 C346 1.533 . S
C1371 C385 1.533 . S
C1387 C400 1.542 . S
C1389 C439 1.542 . S
C1405 C452 1.542 . S
C1407 C413 1.542 . S
C1423 C426 1.542 . S
C1425 C465 1.542 . S
C1441 C0 1.611 . S
C1443 C234 1.763 . S
C1459 C13 1.612 . S
C1461 C247 1.764 . S
C1477 C26 1.612 . S
C1479 C260 1.764 . S
C1495 C429 1.763 . S
C1497 C39 1.611 . S
C1513 C442 1.764 . S
C1515 C52 1.612 . S
C1531 C65 1.612 . S
C1533 C455 1.764 . S
C1549 C78 1.763 . S
C1551 C312 1.611 . S
C1567 C325 1.612 . S
C1569 C91 1.764 . S
C1585 C338 1.612 . S
C1587 C104 1.764 . S
C1603 C195 1.611 . S
C1605 C117 1.763 . S
C1621 C208 1.612 . S
C1623 C130 1.764 . S
C1639 C221 1.612 . S
C1641 C143 1.764 . S
C1657 C390 1.763 . S
C1659 C156 1.611 . S
C1675 C169 1.612 . S
C1677 C403 1.764 . S
C1693 C182 1.612 . S
C1695 C416 1.764 . S
C1711 C273 1.763 . S
C1713 C351 1.606 1_554 S
C1729 C286 1.764 . S
C1731 C364 1.607 1_554 S
C1747 C377 1.606 1_554 S
C1749 C299 1.764 . S
