# Generated by pormake.
# Topology wfx, (7)-cn, num edge types: 1
# Building blocks:
#     Node 0, Type 0, BuildingBlock: NUHQUE_clean_sbu_2, # of connection points: 7
#     Node 1, Type 0, BuildingBlock: NUHQUE_clean_sbu_2, # of connection points: 7
#     Node 2, Type 0, BuildingBlock: NUHQUE_clean_sbu_2, # of connection points: 7
#     Node 3, Type 0, BuildingBlock: NUHQUE_clean_sbu_2, # of connection points: 7
#     Node 4, Type 0, BuildingBlock: NUHQUE_clean_sbu_2, # of connection points: 7
#     Node 5, Type 0, BuildingBlock: NUHQUE_clean_sbu_2, # of connection points: 7
#     Node 6, Type 0, BuildingBlock: NUHQUE_clean_sbu_2, # of connection points: 7
#     Node 7, Type 0, BuildingBlock: NUHQUE_clean_sbu_2, # of connection points: 7
#     Node 8, Type 0, BuildingBlock: NUHQUE_clean_sbu_2, # of connection points: 7
#     Node 9, Type 0, BuildingBlock: NUHQUE_clean_sbu_2, # of connection points: 7
#     Node 10, Type 0, BuildingBlock: NUHQUE_clean_sbu_2, # of connection points: 7
#     Node 11, Type 0, BuildingBlock: NUHQUE_clean_sbu_2, # of connection points: 7
#     Node 12, Type 0, BuildingBlock: NUHQUE_clean_sbu_2, # of connection points: 7
#     Node 13, Type 0, BuildingBlock: NUHQUE_clean_sbu_2, # of connection points: 7
#     Node 14, Type 0, BuildingBlock: NUHQUE_clean_sbu_2, # of connection points: 7
#     Node 15, Type 0, BuildingBlock: NUHQUE_clean_sbu_2, # of connection points: 7
#     Edge 16, Type (0, 0), BuildingBlock: CIFDUS_clean_linker_0, # of connection points: 2
#     Edge 17, Type (0, 0), BuildingBlock: CIFDUS_clean_linker_0, # of connection points: 2
#     Edge 18, Type (0, 0), BuildingBlock: CIFDUS_clean_linker_0, # of connection points: 2
#     Edge 19, Type (0, 0), BuildingBlock: CIFDUS_clean_linker_0, # of connection points: 2
#     Edge 20, Type (0, 0), BuildingBlock: CIFDUS_clean_linker_0, # of connection points: 2
#     Edge 21, Type (0, 0), BuildingBlock: CIFDUS_clean_linker_0, # of connection points: 2
#     Edge 22, Type (0, 0), BuildingBlock: CIFDUS_clean_linker_0, # of connection points: 2
#     Edge 23, Type (0, 0), BuildingBlock: CIFDUS_clean_linker_0, # of connection points: 2
#     Edge 24, Type (0, 0), BuildingBlock: CIFDUS_clean_linker_0, # of connection points: 2
#     Edge 25, Type (0, 0), BuildingBlock: CIFDUS_clean_linker_0, # of connection points: 2
#     Edge 26, Type (0, 0), BuildingBlock: CIFDUS_clean_linker_0, # of connection points: 2
#     Edge 27, Type (0, 0), BuildingBlock: CIFDUS_clean_linker_0, # of connection points: 2
#     Edge 28, Type (0, 0), BuildingBlock: CIFDUS_clean_linker_0, # of connection points: 2
#     Edge 29, Type (0, 0), BuildingBlock: CIFDUS_clean_linker_0, # of connection points: 2
#     Edge 30, Type (0, 0), BuildingBlock: CIFDUS_clean_linker_0, # of connection points: 2
#     Edge 31, Type (0, 0), BuildingBlock: CIFDUS_clean_linker_0, # of connection points: 2
#     Edge 32, Type (0, 0), BuildingBlock: CIFDUS_clean_linker_0, # of connection points: 2
#     Edge 33, Type (0, 0), BuildingBlock: CIFDUS_clean_linker_0, # of connection points: 2
#     Edge 34, Type (0, 0), BuildingBlock: CIFDUS_clean_linker_0, # of connection points: 2
#     Edge 35, Type (0, 0), BuildingBlock: CIFDUS_clean_linker_0, # of connection points: 2
#     Edge 36, Type (0, 0), BuildingBlock: CIFDUS_clean_linker_0, # of connection points: 2
#     Edge 37, Type (0, 0), BuildingBlock: CIFDUS_clean_linker_0, # of connection points: 2
#     Edge 38, Type (0, 0), BuildingBlock: CIFDUS_clean_linker_0, # of connection points: 2
#     Edge 39, Type (0, 0), BuildingBlock: CIFDUS_clean_linker_0, # of connection points: 2
#     Edge 40, Type (0, 0), BuildingBlock: CIFDUS_clean_linker_0, # of connection points: 2
#     Edge 41, Type (0, 0), BuildingBlock: CIFDUS_clean_linker_0, # of connection points: 2
#     Edge 42, Type (0, 0), BuildingBlock: CIFDUS_clean_linker_0, # of connection points: 2
#     Edge 43, Type (0, 0), BuildingBlock: CIFDUS_clean_linker_0, # of connection points: 2
#     Edge 44, Type (0, 0), BuildingBlock: CIFDUS_clean_linker_0, # of connection points: 2
#     Edge 45, Type (0, 0), BuildingBlock: CIFDUS_clean_linker_0, # of connection points: 2
#     Edge 46, Type (0, 0), BuildingBlock: CIFDUS_clean_linker_0, # of connection points: 2
#     Edge 47, Type (0, 0), BuildingBlock: CIFDUS_clean_linker_0, # of connection points: 2
#     Edge 48, Type (0, 0), BuildingBlock: CIFDUS_clean_linker_0, # of connection points: 2
#     Edge 49, Type (0, 0), BuildingBlock: CIFDUS_clean_linker_0, # of connection points: 2
#     Edge 50, Type (0, 0), BuildingBlock: CIFDUS_clean_linker_0, # of connection points: 2
#     Edge 51, Type (0, 0), BuildingBlock: CIFDUS_clean_linker_0, # of connection points: 2
#     Edge 52, Type (0, 0), BuildingBlock: CIFDUS_clean_linker_0, # of connection points: 2
#     Edge 53, Type (0, 0), BuildingBlock: CIFDUS_clean_linker_0, # of connection points: 2
#     Edge 54, Type (0, 0), BuildingBlock: CIFDUS_clean_linker_0, # of connection points: 2
#     Edge 55, Type (0, 0), BuildingBlock: CIFDUS_clean_linker_0, # of connection points: 2
#     Edge 56, Type (0, 0), BuildingBlock: CIFDUS_clean_linker_0, # of connection points: 2
#     Edge 57, Type (0, 0), BuildingBlock: CIFDUS_clean_linker_0, # of connection points: 2
#     Edge 58, Type (0, 0), BuildingBlock: CIFDUS_clean_linker_0, # of connection points: 2
#     Edge 59, Type (0, 0), BuildingBlock: CIFDUS_clean_linker_0, # of connection points: 2
#     Edge 60, Type (0, 0), BuildingBlock: CIFDUS_clean_linker_0, # of connection points: 2
#     Edge 61, Type (0, 0), BuildingBlock: CIFDUS_clean_linker_0, # of connection points: 2
#     Edge 62, Type (0, 0), BuildingBlock: CIFDUS_clean_linker_0, # of connection points: 2
#     Edge 63, Type (0, 0), BuildingBlock: CIFDUS_clean_linker_0, # of connection points: 2
#     Edge 64, Type (0, 0), BuildingBlock: CIFDUS_clean_linker_0, # of connection points: 2
#     Edge 65, Type (0, 0), BuildingBlock: CIFDUS_clean_linker_0, # of connection points: 2
#     Edge 66, Type (0, 0), BuildingBlock: CIFDUS_clean_linker_0, # of connection points: 2
#     Edge 67, Type (0, 0), BuildingBlock: CIFDUS_clean_linker_0, # of connection points: 2
#     Edge 68, Type (0, 0), BuildingBlock: CIFDUS_clean_linker_0, # of connection points: 2
#     Edge 69, Type (0, 0), BuildingBlock: CIFDUS_clean_linker_0, # of connection points: 2
#     Edge 70, Type (0, 0), BuildingBlock: CIFDUS_clean_linker_0, # of connection points: 2
#     Edge 71, Type (0, 0), BuildingBlock: CIFDUS_clean_linker_0, # of connection points: 2
# Relax obj value: 0.244
# Max RMSD: 0.276
# Mean RMSD: 0.276
data_MOF--net-wfx--node1-NUHQUE_clean_sbu_2--edge1-CIFDUS_clean_linker_0
_symmetry_space_group_name_H-M    P1
_symmetry_Int_Tables_number       1
_symmetry_cell_setting            triclinic
loop_
_symmetry_equiv_pos_as_xyz
'x, y, z'
_cell_length_a     40.16601
_cell_length_b     40.229222
_cell_length_c     42.301614
_cell_angle_alpha  90.225563
_cell_angle_beta   89.916983
_cell_angle_gamma 89.620608
loop_
_atom_site_label
_atom_site_type_symbol
_atom_site_fract_x
_atom_site_fract_y
_atom_site_fract_z
_atom_type_partial_charge
O0 O 0.65587 0.15602 0.09089 0.0
Tb1 Tb 0.68479 0.11909 0.11666 0.0
Eu2 Eu 0.71492 0.03984 0.13054 0.0
C3 C 0.64404 0.15117 0.06228 0.0
O4 O 0.64563 0.12134 0.04961 0.0
C5 C 0.737 0.08566 0.07314 0.0
O6 O 0.76116 1.01132 0.14406 0.0
C7 C 0.6724 1.0026 0.10084 0.0
C8 C 0.78518 0.02718 0.15871 0.0
O9 O 0.77989 0.05815 0.16746 0.0
C10 C 0.66601 0.08022 0.17581 0.0
C11 C 0.6381 0.98895 0.09873 0.0
C12 C 0.61672 1.00111 0.07503 0.0
C13 C 0.58579 0.98619 0.06909 0.0
C14 C 0.57589 0.95935 0.08785 0.0
C15 C 0.59671 0.94652 0.11155 0.0
C16 C 0.62802 0.96124 0.11675 0.0
O17 O 0.70664 0.0982 0.07364 0.0
O18 O 0.74817 0.06833 0.09722 0.0
O19 O 0.69641 0.16417 0.14262 0.0
O20 O 0.73452 0.12793 0.13648 0.0
C21 C 0.72734 0.15706 0.14838 0.0
O22 O 0.69433 0.06361 0.17485 0.0
O23 O 0.65318 0.09241 0.14963 0.0
O24 O 0.69272 0.99118 0.12272 0.0
O25 O 0.67658 0.0344 0.09465 0.0
H26 H 0.62466 0.02168 0.06042 0.0
H27 H 0.55268 0.94689 0.08261 0.0
H28 H 0.64461 0.95071 0.13428 0.0
O29 O 0.38229 0.65096 0.07257 0.0
Tb30 Tb 0.4113 0.6796 0.10672 0.0
Eu31 Eu 0.48557 0.71218 0.13559 0.0
C32 C 0.39502 0.64137 0.04526 0.0
O33 O 0.42696 0.6454 0.03995 0.0
C34 C 0.4503 0.73332 0.07169 0.0
O35 O 0.51263 0.75836 0.1517 0.0
C36 C 0.52753 0.67023 0.11057 0.0
C37 C 0.49571 0.78567 0.15814 0.0
O38 O 0.46305 0.78412 0.1591 0.0
C39 C 0.43985 0.65949 0.17073 0.0
C40 C 0.54045 0.63557 0.1097 0.0
C41 C 0.52572 0.61195 0.08941 0.0
C42 C 0.54067 0.58065 0.08438 0.0
C43 C 0.57003 0.57283 0.10063 0.0
C44 C 0.58573 0.59628 0.11993 0.0
C45 C 0.57072 0.62748 0.12484 0.0
O46 O 0.44087 0.70222 0.06968 0.0
O47 O 0.46192 0.74505 0.0985 0.0
O48 O 0.40137 0.72942 0.12581 0.0
O49 O 0.3627 0.69372 0.126 0.0
C50 C 0.37047 0.72412 0.13327 0.0
O51 O 0.45446 0.68859 0.17424 0.0
O52 O 0.43377 0.64777 0.1422 0.0
O53 O 0.53479 0.689 0.13515 0.0
O54 O 0.49756 0.67591 0.09914 0.0
H55 H 0.50368 0.61862 0.07605 0.0
H56 H 0.58177 0.54873 0.09721 0.0
H57 H 0.5836 0.64599 0.13883 0.0
O58 O 0.85017 0.36252 0.07602 0.0
Tb59 Tb 0.83122 0.3822 0.1205 0.0
Eu60 Eu 0.83066 0.47537 0.12185 0.0
C61 C 0.83097 0.34121 0.06113 0.0
O62 O 0.80089 0.33619 0.07235 0.0
C63 C 0.78902 0.42805 0.07786 0.0
O64 O 0.78606 0.50904 0.11695 0.0
C65 C 0.88472 0.50975 0.11604 0.0
C66 C 0.76633 0.51829 0.14024 0.0
O67 O 0.77274 0.50851 0.1692 0.0
C68 C 0.8564 0.42625 0.17257 0.0
C69 C 0.90375 0.53479 0.09809 0.0
C70 C 0.91596 0.52807 0.06746 0.0
C71 C 0.93779 0.55038 0.05274 0.0
C72 C 0.94587 0.58021 0.06807 0.0
C73 C 0.93465 0.58688 0.09872 0.0
C74 C 0.91368 0.56412 0.11376 0.0
O75 O 0.78738 0.40691 0.10136 0.0
O76 O 0.81292 0.45028 0.07679 0.0
O77 O 0.83709 0.33041 0.1349 0.0
O78 O 0.79699 0.35869 0.15378 0.0
C79 C 0.81134 0.32959 0.15346 0.0
O80 O 0.83259 0.44838 0.16853 0.0
O81 O 0.86732 0.40949 0.14799 0.0
O82 O 0.85847 0.52032 0.13185 0.0
O83 O 0.8814 0.47957 0.10416 0.0
H84 H 0.91032 0.50465 0.05597 0.0
H85 H 0.96301 0.59734 0.05695 0.0
H86 H 0.90605 0.5687 0.13799 0.0
O87 O 0.16 0.85727 0.0679 0.0
Tb88 Tb 0.14858 0.83816 0.11474 0.0
Eu89 Eu 0.05479 0.82746 0.11907 0.0
C90 C 0.18342 0.84298 0.05072 0.0
O91 O 0.19697 0.81521 0.06093 0.0
C92 C 0.10873 0.78326 0.08111 0.0
O93 O 0.01938 0.78538 0.12851 0.0
C94 C 0.01903 0.87552 0.09604 0.0
C95 C 0.02862 0.7547 0.13476 0.0
O96 O 0.06026 0.74789 0.13943 0.0
C97 C 0.10308 0.86686 0.16441 0.0
C98 C 1.00494 0.90938 0.10012 0.0
C99 C 0.01816 0.93528 0.082 0.0
C100 C 1.00221 0.96635 0.08066 0.0
C101 C 0.97344 0.9719 0.09875 0.0
C102 C 0.95938 0.94629 0.1167 0.0
C103 C 0.97523 0.91497 0.11729 0.0
O104 O 0.12897 0.78934 0.10457 0.0
O105 O 0.07994 0.79892 0.07902 0.0
O106 O 0.17416 0.81282 0.15332 0.0
O107 O 0.20194 0.84438 0.12359 0.0
C108 C 0.20377 0.82393 0.14727 0.0
O109 O 0.08011 0.84359 0.16472 0.0
O110 O 0.11709 0.87469 0.13753 0.0
O111 O 1.0067 0.85149 0.11332 0.0
O112 O 0.05119 0.87227 0.09046 0.0
H113 H 0.0396 0.93047 0.06701 0.0
H114 H 0.96076 0.99572 0.09726 0.0
H115 H 0.96375 0.89481 0.13014 0.0
O116 O 0.13642 0.85957 0.42228 0.0
Tb117 Tb 0.17078 0.89082 0.39635 0.0
Eu118 Eu 0.20679 0.97138 0.38048 0.0
C119 C 0.12571 0.86654 0.45094 0.0
O120 O 0.13126 0.89609 0.46308 0.0
C121 C 0.22355 0.92222 0.43846 0.0
O122 O 0.2582 0.99448 0.37907 0.0
C123 C 0.16343 1.0109 0.40701 0.0
C124 C 0.26798 0.02248 0.36597 0.0
O125 O 0.24778 0.03933 0.34755 0.0
C126 C 0.15789 0.93051 0.33652 0.0
C127 C 0.12873 0.02429 0.40569 0.0
C128 C 0.10454 1.01201 0.42683 0.0
C129 C 0.07222 0.02563 0.42761 0.0
C130 C 0.06407 0.05158 0.40708 0.0
C131 C 0.08789 0.06515 0.38676 0.0
C132 C 0.12031 0.05159 0.38616 0.0
O133 O 0.19244 0.91253 0.43837 0.0
O134 O 0.23581 0.93906 0.41459 0.0
O135 O 0.18011 0.84223 0.37499 0.0
O136 O 0.22014 0.87612 0.3785 0.0
C137 C 0.21169 0.84623 0.36973 0.0
O138 O 0.18677 0.94606 0.33639 0.0
O139 O 0.14402 0.92228 0.3635 0.0
O140 O 0.18484 0.02076 0.38535 0.0
O141 O 0.16758 0.97954 0.41533 0.0
H142 H 0.11096 0.99224 0.44311 0.0
H143 H 0.03944 0.06278 0.40834 0.0
H144 H 0.13886 0.06261 0.3709 0.0
O145 O 0.6538 0.14465 0.42512 0.0
Tb146 Tb 0.62979 0.18087 0.39428 0.0
Eu147 Eu 0.54781 0.21499 0.37563 0.0
C148 C 0.6428 0.13588 0.45318 0.0
O149 O 0.61262 0.14454 0.46208 0.0
C150 C 0.59423 0.2374 0.43296 0.0
O151 O 0.51828 0.26137 0.3636 0.0
C152 C 0.50938 0.17267 0.40425 0.0
C153 C 0.53384 0.28782 0.35309 0.0
O154 O 0.56585 0.2854 0.34697 0.0
C155 C 0.59157 0.16718 0.33135 0.0
C156 C 0.49544 0.13844 0.40644 0.0
C157 C 0.51075 0.11518 0.42669 0.0
C158 C 0.49604 0.08424 0.43262 0.0
C159 C 0.46642 0.07613 0.41705 0.0
C160 C 0.44913 0.09943 0.3985 0.0
C161 C 0.46419 0.13053 0.39281 0.0
O162 O 0.60679 0.20711 0.43413 0.0
O163 O 0.57743 0.24782 0.40827 0.0
O164 O 0.65579 0.22456 0.37471 0.0
O165 O 0.68215 0.17928 0.38141 0.0
C166 C 0.68484 0.20984 0.37218 0.0
O167 O 0.57387 0.19486 0.33235 0.0
O168 O 0.60332 0.15344 0.35738 0.0
O169 O 0.49899 0.1923 0.38142 0.0
O170 O 0.54088 0.17728 0.41181 0.0
H171 H 0.53327 0.12184 0.43923 0.0
H172 H 0.45613 0.05157 0.42041 0.0
H173 H 0.45095 0.14906 0.37913 0.0
O174 O 0.37502 0.64976 0.43528 0.0
Tb175 Tb 0.34479 0.62604 0.39922 0.0
Eu176 Eu 0.31733 0.54712 0.37218 0.0
C177 C 0.3596 0.66786 0.45687 0.0
O178 O 0.32691 0.66942 0.45623 0.0
C179 C 0.28593 0.58971 0.42847 0.0
O180 O 0.27618 0.51268 0.35621 0.0
C181 C 0.35966 0.51132 0.40423 0.0
C182 C 0.24603 0.52353 0.3494 0.0
O183 O 0.24083 0.5557 0.34704 0.0
C184 C 0.36813 0.59381 0.33624 0.0
C185 C 0.39425 0.49784 0.40635 0.0
C186 C 0.41661 0.51153 0.42842 0.0
C187 C 0.44797 0.49675 0.43376 0.0
C188 C 0.45725 0.46869 0.41597 0.0
C189 C 0.43522 0.45394 0.39451 0.0
C190 C 0.40363 0.46852 0.38987 0.0
O191 O 0.31633 0.59938 0.43482 0.0
O192 O 0.27929 0.57548 0.40126 0.0
O193 O 0.29942 0.64405 0.37578 0.0
O194 O 0.33856 0.67786 0.38522 0.0
C195 C 0.30881 0.67493 0.37359 0.0
O196 O 0.34152 0.57519 0.33209 0.0
O197 O 0.37788 0.60215 0.36496 0.0
O198 O 0.34034 0.49935 0.38193 0.0
O199 O 0.35431 0.54315 0.41003 0.0
H200 H 0.40892 0.53273 0.4426 0.0
H201 H 0.48141 0.45727 0.41985 0.0
H202 H 0.38626 0.4566 0.37395 0.0
O203 O 0.87781 0.38148 0.42399 0.0
Tb204 Tb 0.901 0.34942 0.38832 0.0
Eu205 Eu 0.99239 0.31631 0.37527 0.0
C206 C 0.85104 0.36944 0.43777 0.0
O207 O 0.841 0.33974 0.42934 0.0
C208 C 0.93637 0.2914 0.42307 0.0
O209 O 0.02789 0.27345 0.36602 0.0
C210 C 0.02453 0.36229 0.40568 0.0
C211 C 0.01791 0.24503 0.3539 0.0
O212 O 0.98698 0.24243 0.34417 0.0
C213 C 0.94499 0.35866 0.32924 0.0
C214 C 0.03593 0.39733 0.40771 0.0
C215 C 0.02421 0.41721 0.43287 0.0
C216 C 0.03754 0.4489 0.43871 0.0
C217 C 0.06225 0.46093 0.41837 0.0
C218 C 0.07424 0.44182 0.39297 0.0
C219 C 0.06137 0.40976 0.38789 0.0
O220 O 0.92757 0.32284 0.42524 0.0
O221 O 0.96118 0.28189 0.40485 0.0
O222 O 0.87574 0.30417 0.37196 0.0
O223 O 0.85236 0.35108 0.36534 0.0
C224 C 0.84891 0.31917 0.36169 0.0
O225 O 0.96646 0.33372 0.33098 0.0
O226 O 0.93403 0.37385 0.35493 0.0
O227 O 0.03834 0.34273 0.38433 0.0
O228 O 0.9929 0.35567 0.41107 0.0
H229 H 1.00521 0.40753 0.44849 0.0
H230 H 0.07358 0.48482 0.42311 0.0
H231 H 0.07146 0.39457 0.36891 0.0
O232 O 0.38684 0.86296 0.92058 0.0
Tb233 Tb 0.35674 0.8945 0.88986 0.0
Eu234 Eu 0.31956 0.98535 0.8737 0.0
C235 C 0.37892 0.83133 0.92296 0.0
O236 O 0.35413 0.82001 0.90595 0.0
C237 C 0.3019 0.93123 0.92522 0.0
O238 O 0.27564 0.01939 0.86325 0.0
C239 C 0.36354 0.02087 0.90372 0.0
C240 C 0.24543 1.00866 0.85693 0.0
O241 O 0.24061 0.97661 0.85325 0.0
C242 C 0.36872 0.9387 0.83335 0.0
C243 C 0.39861 0.03221 0.90642 0.0
C244 C 0.419 0.0189 0.9304 0.0
C245 C 0.45081 0.03194 0.93645 0.0
C246 C 0.46235 0.0581 0.91765 0.0
C247 C 0.44254 0.07188 0.89376 0.0
C248 C 0.41051 0.05916 0.88838 0.0
O249 O 0.33426 0.92707 0.92463 0.0
O250 O 0.28816 0.95289 0.90589 0.0
O251 O 0.34755 0.85877 0.85171 0.0
O252 O 0.30689 0.87593 0.87942 0.0
C253 C 0.3156 0.85629 0.85629 0.0
O254 O 0.34193 0.95793 0.8312 0.0
O255 O 0.38105 0.93171 0.86131 0.0
O256 O 0.34529 0.03232 0.88034 0.0
O257 O 0.35658 0.98998 0.9112 0.0
H258 H 0.40972 0.99887 0.94496 0.0
H259 H 0.4863 0.06921 0.92267 0.0
H260 H 0.39485 0.07063 0.87061 0.0
O261 O 0.6465 0.38302 0.93517 0.0
Tb262 Tb 0.62552 0.34791 0.90107 0.0
Eu263 Eu 0.54252 0.31887 0.8818 0.0
C264 C 0.63617 0.38545 0.96465 0.0
O265 O 0.60806 0.3713 0.97275 0.0
C266 C 0.5915 0.28598 0.93251 0.0
O267 O 0.50645 0.27785 0.86974 0.0
C268 C 0.51127 0.36416 0.91452 0.0
C269 C 0.51701 0.24907 0.85854 0.0
O270 O 0.5486 0.24571 0.85095 0.0
C271 C 0.58739 0.36377 0.83777 0.0
C272 C 0.50036 0.39955 0.91607 0.0
C273 C 0.51436 0.42039 0.93924 0.0
C274 C 0.50204 0.45276 0.94414 0.0
C275 C 0.47629 0.46469 0.92492 0.0
C276 C 0.46167 0.4445 0.90182 0.0
C277 C 0.47349 0.41171 0.89764 0.0
O278 O 0.60511 0.31522 0.93767 0.0
O279 O 0.57192 0.28066 0.9083 0.0
O280 O 0.67836 0.35043 0.89004 0.0
O281 O 0.65228 0.30659 0.87768 0.0
C282 C 0.68128 0.32109 0.8775 0.0
O283 O 0.56773 0.33777 0.83845 0.0
O284 O 0.60016 0.37656 0.86392 0.0
O285 O 0.49669 0.34481 0.89365 0.0
O286 O 0.54309 0.35704 0.91874 0.0
H287 H 0.53387 0.41089 0.9545 0.0
H288 H 0.46688 0.48975 0.92856 0.0
H289 H 0.46155 0.3958 0.8804 0.0
O290 O 0.18092 0.6476 0.938 0.0
Tb291 Tb 0.19989 0.63676 0.89094 0.0
Eu292 Eu 0.2095 0.54229 0.87785 0.0
C293 C 0.20022 0.66249 0.95865 0.0
O294 O 0.23181 0.66662 0.95171 0.0
C295 C 0.25242 0.59151 0.92271 0.0
O296 O 0.25485 0.50983 0.86903 0.0
C297 C 0.16113 0.50497 0.89712 0.0
C298 C 0.28464 0.52209 0.86379 0.0
O299 O 0.28793 0.55437 0.86058 0.0
C300 C 0.17006 0.5956 0.8386 0.0
C301 C 0.12558 0.49527 0.89559 0.0
C302 C 0.10215 0.51253 0.91422 0.0
C303 C 0.07048 0.49927 0.92017 0.0
C304 C 0.06131 0.46982 0.90471 0.0
C305 C 0.0838 0.45273 0.88492 0.0
C306 C 0.11615 0.46533 0.88084 0.0
O307 O 0.24844 0.61599 0.90264 0.0
O308 O 0.23418 0.56447 0.92136 0.0
O309 O 0.22447 0.66872 0.85614 0.0
O310 O 0.18735 0.68932 0.88605 0.0
C311 C 0.20852 0.69587 0.86376 0.0
O312 O 0.19315 0.5725 0.83522 0.0
O313 O 0.16332 0.60668 0.86703 0.0
O314 O 0.18153 0.49593 0.87425 0.0
O315 O 0.1683 0.53404 0.90968 0.0
H316 H 0.10933 0.53537 0.92592 0.0
H317 H 0.0375 0.4586 0.90999 0.0
H318 H 0.13424 0.45122 0.86719 0.0
O319 O 0.8699 0.14064 0.92308 0.0
Tb320 Tb 0.89505 0.17525 0.89153 0.0
Eu321 Eu 0.97647 0.21346 0.87392 0.0
C322 C 0.88183 0.13071 0.95047 0.0
O323 O 0.91283 0.13738 0.95789 0.0
C324 C 0.92615 0.23328 0.92969 0.0
O325 O 1.00411 0.26003 0.86114 0.0
C326 C 0.01698 0.17189 0.90119 0.0
C327 C 0.98791 0.28543 0.84901 0.0
O328 O 0.95616 0.28206 0.84236 0.0
C329 C 0.93531 0.16442 0.82946 0.0
C330 C 0.02992 0.13726 0.90348 0.0
C331 C 0.01737 0.11698 0.92766 0.0
C332 C 0.03132 0.08569 0.93369 0.0
C333 C 0.05741 0.07397 0.91466 0.0
C334 C 0.07068 0.09355 0.89047 0.0
C335 C 0.05719 0.12556 0.88511 0.0
O336 O 0.91749 0.20183 0.93095 0.0
O337 O 0.94502 0.24468 0.90682 0.0
O338 O 0.84424 0.17578 0.87381 0.0
O339 O 0.87116 0.22102 0.87407 0.0
C340 C 0.84257 0.2073 0.86757 0.0
O341 O 0.95054 0.19322 0.83112 0.0
O342 O 0.92399 0.14945 0.855 0.0
O343 O 0.02567 0.19021 0.87687 0.0
O344 O 0.9863 0.17773 0.91104 0.0
H345 H 0.99771 0.12622 0.94301 0.0
H346 H 0.0681 0.04962 0.91923 0.0
H347 H 0.06806 0.1412 0.8671 0.0
O348 O 0.88291 0.14359 0.5708 0.0
Tb349 Tb 0.84946 0.12398 0.60644 0.0
Eu350 Eu 0.81863 0.04314 0.62469 0.0
C351 C 0.86826 0.16208 0.54924 0.0
O352 O 0.83575 0.16574 0.55092 0.0
C353 C 0.793 0.08865 0.56886 0.0
O354 O 0.77395 0.01355 0.63932 0.0
C355 C 0.8637 1.0065 0.59686 0.0
C356 C 0.74937 0.02932 0.65357 0.0
O357 O 0.7536 0.06062 0.66155 0.0
C358 C 0.86364 0.0869 0.66992 0.0
C359 C 0.89855 0.99362 0.5988 0.0
C360 C 0.92235 1.00488 0.57678 0.0
C361 C 0.95493 0.99187 0.57662 0.0
C362 C 0.96365 0.96747 0.59862 0.0
C363 C 0.94034 0.95505 0.62013 0.0
C364 C 0.90766 0.96802 0.6201 0.0
O365 O 0.82374 0.09951 0.56724 0.0
O366 O 0.78331 0.07082 0.59294 0.0
O367 O 0.85086 0.17646 0.61922 0.0
O368 O 0.80499 0.15091 0.62381 0.0
C369 C 0.81968 0.17968 0.62689 0.0
O370 O 0.8365 0.06895 0.66832 0.0
O371 O 0.87746 0.09952 0.64431 0.0
O372 O 0.84163 0.99472 0.61689 0.0
O373 O 0.85923 0.03832 0.59054 0.0
H374 H 0.91544 0.0235 0.55949 0.0
H375 H 0.98848 0.95669 0.5979 0.0
H376 H 0.8895 0.95798 0.63638 0.0
O377 O 0.3605 0.84282 0.57438 0.0
Tb378 Tb 0.37877 0.83139 0.62136 0.0
Eu379 Eu 0.48795 0.82248 0.62806 0.0
C380 C 0.3657 0.87207 0.56163 0.0
O381 O 0.38621 0.89282 0.57551 0.0
C382 C 0.43111 0.78383 0.59454 0.0
O383 O 0.52175 0.77934 0.64123 0.0
C384 C 0.52324 0.86739 0.59974 0.0
C385 C 0.51032 0.74972 0.64853 0.0
O386 O 0.47808 0.74581 0.65201 0.0
C387 C 0.42915 0.86117 0.66706 0.0
C388 C 0.53589 0.90195 0.59856 0.0
C389 C 0.52186 0.92489 0.57721 0.0
C390 C 0.53671 0.95603 0.57215 0.0
C391 C 0.56531 0.96439 0.58935 0.0
C392 C 0.58 0.94171 0.61029 0.0
C393 C 0.56521 0.91056 0.61481 0.0
O394 O 0.41668 0.79344 0.62076 0.0
O395 O 0.46282 0.79021 0.59145 0.0
O396 O 0.34965 0.79399 0.64576 0.0
O397 O 0.33445 0.84455 0.64918 0.0
C398 C 0.32706 0.81413 0.657 0.0
O399 O 0.45736 0.84388 0.66943 0.0
O400 O 0.41542 0.86612 0.63924 0.0
O401 O 0.5351 0.84751 0.62169 0.0
O402 O 0.49179 0.86182 0.59284 0.0
H403 H 0.50042 0.91782 0.56326 0.0
H404 H 0.57705 0.98822 0.58546 0.0
H405 H 0.57724 0.89274 0.63027 0.0
O406 O 0.63473 0.37175 0.58477 0.0
Tb407 Tb 0.6714 0.39607 0.61467 0.0
Eu408 Eu 0.70861 0.47763 0.62957 0.0
C409 C 0.62375 0.38372 0.5578 0.0
O410 O 0.62923 0.41496 0.55063 0.0
C411 C 0.72425 0.42911 0.57215 0.0
O412 O 0.7557 0.50594 0.63999 0.0
C413 C 0.66422 0.51634 0.60356 0.0
C414 C 0.782 0.48966 0.65033 0.0
O415 O 0.77914 0.45778 0.65636 0.0
C416 C 0.66369 0.43563 0.6776 0.0
C417 C 0.62954 0.52977 0.60259 0.0
C418 C 0.6074 0.51692 0.57984 0.0
C419 C 0.57578 0.5312 0.57525 0.0
C420 C 0.56589 0.55799 0.59435 0.0
C421 C 0.58741 0.57167 0.61689 0.0
C422 C 0.61951 0.55779 0.62076 0.0
O423 O 0.69266 0.42118 0.57406 0.0
O424 O 0.73825 0.44702 0.59442 0.0
O425 O 0.71835 0.37096 0.62799 0.0
O426 O 0.67285 0.34448 0.62982 0.0
C427 C 0.7048 0.34214 0.63387 0.0
O428 O 0.69166 0.45218 0.67416 0.0
O429 O 0.64743 0.42368 0.65303 0.0
O430 O 0.68464 0.52644 0.62588 0.0
O431 O 0.66909 0.4851 0.5952 0.0
H432 H 0.61538 0.49665 0.56459 0.0
H433 H 0.54135 0.5689 0.59119 0.0
H434 H 0.63651 0.56892 0.63753 0.0
O435 O 0.14322 0.64614 0.58178 0.0
Tb436 Tb 0.11719 0.67776 0.61603 0.0
Eu437 Eu 0.0368 0.70804 0.64345 0.0
C438 C 0.15499 0.65864 0.55528 0.0
O439 O 0.14835 0.68974 0.54825 0.0
C440 C 0.08002 0.73859 0.58754 0.0
O441 O 1.00214 0.75009 0.65783 0.0
C442 C 1.00222 0.6661 0.61032 0.0
C443 C 1.0131 0.77976 0.66572 0.0
O444 O 0.04519 0.78388 0.67013 0.0
C445 C 0.08385 0.65741 0.67793 0.0
C446 C 0.99036 0.63145 0.60604 0.0
C447 C 1.00493 0.6111 0.5826 0.0
C448 C 0.99116 0.58006 0.57488 0.0
C449 C 0.96297 0.56916 0.59136 0.0
C450 C 0.94766 0.58915 0.61445 0.0
C451 C 0.96141 0.62033 0.62168 0.0
O452 O 0.09216 0.70884 0.58098 0.0
O453 O 0.06548 0.74504 0.61472 0.0
O454 O 0.16681 0.67786 0.63646 0.0
O455 O 0.13761 0.72188 0.63996 0.0
C456 C 0.1662 0.70822 0.64689 0.0
O457 O 0.06582 0.68437 0.68298 0.0
O458 O 0.08906 0.6471 0.64873 0.0
O459 O 0.99 0.6834 0.63416 0.0
O460 O 0.03355 0.67301 0.60395 0.0
H461 H 0.02633 0.61992 0.56951 0.0
H462 H 0.95137 0.54595 0.58454 0.0
H463 H 0.94893 0.63622 0.63878 0.0
H464 H 0.51822 0.0232 0.93892 0.0
H465 H 0.42939 0.01536 0.99594 0.0
H466 H 0.46316 1.00098 0.04187 0.0
H467 H 0.51807 0.99276 0.06646 0.0
H468 H 0.60678 1.00174 0.00946 0.0
H469 H 0.57291 0.01513 0.96339 0.0
C470 C 0.50617 0.01855 0.96142 0.0
C471 C 0.47121 0.02039 0.9638 0.0
C472 C 0.52578 1.01116 0.98797 0.0
C473 C 0.45614 0.01361 0.99311 0.0
C474 C 0.47548 1.00576 0.01956 0.0
C475 C 0.53 0.99753 0.04393 0.0
C476 C 0.565 0.99641 0.04158 0.0
C477 C 0.51034 1.00478 0.01733 0.0
C478 C 0.57999 1.00304 0.01222 0.0
C479 C 0.56061 1.01034 0.98572 0.0
H480 H 0.57673 0.54311 0.04282 0.0
H481 H 0.47557 0.56588 0.07061 0.0
H482 H 0.45489 0.52801 0.02987 0.0
H483 H 0.46566 0.48839 0.9866 0.0
H484 H 0.56683 0.46454 0.96009 0.0
H485 H 0.58752 0.502 1.00124 0.0
C486 C 0.55014 0.53938 0.0405 0.0
C487 C 0.52776 0.55721 0.06004 0.0
C488 C 0.53848 0.51722 0.01746 0.0
C489 C 0.49337 0.55273 0.05582 0.0
C490 C 0.48154 0.53092 0.03266 0.0
C491 C 0.49225 0.49152 0.98976 0.0
C492 C 0.51473 0.47399 0.97016 0.0
C493 C 0.50388 0.51311 0.01334 0.0
C494 C 0.54908 0.47769 0.97494 0.0
C495 C 0.56088 0.49923 0.99832 0.0
H496 H 1.00201 0.50269 0.92348 0.0
H497 H 0.09116 0.52597 0.97618 0.0
H498 H 0.05774 0.54518 0.02028 0.0
H499 H 1.00399 0.55226 0.04559 0.0
H500 H 0.91413 0.52572 0.99629 0.0
H501 H 0.94715 0.50958 0.9496 0.0
C502 C 0.01415 0.5119 0.9446 0.0
C503 C 0.04924 0.51325 0.946 0.0
C504 C 0.99471 0.5218 0.97074 0.0
C505 C 0.06436 0.52553 0.97367 0.0
C506 C 0.04525 0.53612 0.99927 0.0
C507 C 0.99154 0.54338 0.02445 0.0
C508 C 0.95673 0.5406 0.0241 0.0
C509 C 1.01054 0.53402 0.99817 0.0
C510 C 0.94096 0.52813 0.99697 0.0
C511 C 0.95981 0.51905 0.97034 0.0
H512 H 0.96299 1.0015 0.0406 0.0
H513 H 0.06566 0.9861 0.06712 0.0
H514 H 0.08359 0.02225 0.02407 0.0
H515 H 0.0701 0.05626 0.97778 0.0
H516 H 0.96748 0.07178 0.95138 0.0
H517 H 0.94934 0.03805 0.99617 0.0
C518 C 0.98926 1.00663 0.03743 0.0
C519 C 1.01299 0.9912 0.05705 0.0
C520 C 0.99933 0.02725 0.01263 0.0
C521 C 0.04696 0.99753 0.05218 0.0
C522 C 0.0572 0.01817 0.02762 0.0
C523 C 0.04377 0.05205 0.98176 0.0
C524 C 0.02014 0.06601 0.96115 0.0
C525 C 0.03362 0.03269 0.00742 0.0
C526 C 0.98608 0.06116 0.96695 0.0
C527 C 0.97574 0.04186 0.99246 0.0
H528 H 0.07997 0.02349 0.49125 0.0
H529 H 1.00819 1.00655 0.41742 0.0
H530 H 0.96484 0.99658 0.45694 0.0
H531 H 0.94719 0.99329 0.51273 0.0
H532 H 0.01898 1.01092 0.58647 0.0
H533 H 0.06232 0.02041 0.54694 0.0
C534 C 0.05496 0.01703 0.48391 0.0
C535 C 0.04732 0.01536 0.45155 0.0
C536 C 0.03003 1.01205 0.50677 0.0
C537 C 0.01464 1.00774 0.44226 0.0
C538 C 0.98984 1.00226 0.46482 0.0
C539 C 0.97221 0.99975 0.52005 0.0
C540 C 0.97985 1.00162 0.55243 0.0
C541 C 0.99714 1.00471 0.49716 0.0
C542 C 1.01252 1.00939 0.56165 0.0
C543 C 0.03733 0.01465 0.53908 0.0
H544 H 0.46092 0.04965 0.47631 0.0
H545 H 0.56141 0.0679 0.44482 0.0
H546 H 0.58274 0.03017 0.48542 0.0
H547 H 0.57259 0.991 0.52891 0.0
H548 H 0.4719 0.97264 0.55976 0.0
H549 H 0.45078 1.01064 0.51942 0.0
C550 C 0.4875 0.04504 0.47792 0.0
C551 C 0.5095 0.06135 0.4572 0.0
C552 C 0.49949 0.02312 0.50103 0.0
C553 C 0.54391 0.0558 0.46043 0.0
C554 C 0.55609 0.03409 0.48355 0.0
C555 C 0.54602 0.99557 0.52706 0.0
C556 C 0.52384 0.97909 0.5475 0.0
C557 C 0.53408 0.01756 0.5039 0.0
C558 C 0.48948 0.98477 0.54424 0.0
C559 C 0.47741 1.00663 0.52129 0.0
H560 H 0.53954 0.56873 0.53421 0.0
H561 H 0.56197 0.46692 0.55855 0.0
H562 H 0.52427 0.44753 0.51717 0.0
H563 H 0.48398 0.45951 0.47525 0.0
H564 H 0.46218 0.56124 0.45006 0.0
H565 H 0.49971 0.58071 0.4916 0.0
C566 C 0.53594 0.54228 0.53068 0.0
C567 C 0.55339 0.5193 0.54964 0.0
C568 C 0.51411 0.53134 0.50698 0.0
C569 C 0.54902 0.48513 0.54422 0.0
C570 C 0.52731 0.47404 0.52069 0.0
C571 C 0.48773 0.48598 0.47847 0.0
C572 C 0.47041 0.50888 0.4593 0.0
C573 C 0.50968 0.49693 0.50203 0.0
C574 C 0.47496 0.54307 0.46455 0.0
C575 C 0.49659 0.5542 0.48817 0.0
H576 H 1.00058 0.51303 0.57121 0.0
H577 H 1.00836 0.60292 0.51643 0.0
H578 H 0.0224 0.57028 0.46943 0.0
H579 H 0.02971 0.51626 0.44335 0.0
H580 H 0.02359 0.42629 0.49839 0.0
H581 H 1.01002 0.4589 0.54542 0.0
C582 C 1.00546 0.52546 0.54898 0.0
C583 C 1.00348 0.56037 0.54739 0.0
C584 C 1.01302 0.50652 0.52192 0.0
C585 C 1.01022 0.57614 0.51849 0.0
C586 C 0.01785 0.55747 0.4915 0.0
C587 C 0.02578 0.5037 0.46566 0.0
C588 C 0.02758 0.46874 0.46709 0.0
C589 C 0.01894 0.52264 0.49287 0.0
C590 C 0.02172 0.45304 0.49624 0.0
C591 C 0.01437 0.47172 0.52332 0.0
H592 H 0.53751 0.9348 0.14016 0.0
H593 H 0.63196 0.88857 0.11866 0.0
H594 H 0.61011 0.83448 0.13478 0.0
H595 H 0.56171 0.7994 0.14809 0.0
H596 H 0.467 0.84636 0.16823 0.0
H597 H 0.49138 0.90087 0.15972 0.0
C598 C 0.55348 0.91295 0.13962 0.0
C599 C 0.58622 0.91564 0.12802 0.0
C600 C 0.54052 0.88191 0.14826 0.0
C601 C 0.60676 0.88722 0.12767 0.0
C602 C 0.59413 0.85622 0.13658 0.0
C603 C 0.54654 0.82157 0.15119 0.0
C604 C 0.51238 0.8186 0.15838 0.0
C605 C 0.56068 0.85308 0.14588 0.0
C606 C 0.49323 0.84772 0.16245 0.0
C607 C 0.50714 0.87901 0.15751 0.0
H608 H 0.71824 0.54193 0.18107 0.0
H609 H 0.74555 0.53809 0.08223 0.0
H610 H 0.69356 0.56515 0.06806 0.0
H611 H 0.63845 0.58562 0.08276 0.0
H612 H 0.60909 0.58949 0.1806 0.0
H613 H 0.66393 0.5674 0.19629 0.0
C614 C 0.71293 0.54732 0.15649 0.0
C615 C 0.73575 0.53758 0.13278 0.0
C616 C 0.68263 0.56295 0.14832 0.0
C617 C 0.72851 0.54501 0.10104 0.0
C618 C 0.69871 0.56053 0.09282 0.0
C619 C 0.64436 0.58211 0.10757 0.0
C620 C 0.62003 0.58892 0.13055 0.0
C621 C 0.67539 0.56899 0.11614 0.0
C622 C 0.62769 0.58448 0.16261 0.0
C623 C 0.65887 0.57162 0.17146 0.0
H624 H 0.03321 0.69072 0.1562 0.0
H625 H 0.96851 0.75783 0.10536 0.0
H626 H 0.93119 0.71223 0.09278 0.0
H627 H 0.92026 0.65207 0.09083 0.0
H628 H 0.98343 0.58492 0.1427 0.0
H629 H 0.01764 0.63156 0.16068 0.0
C630 C 1.01069 0.69541 0.14277 0.0
C631 C 1.00398 0.72759 0.13141 0.0
C632 C 0.98901 0.669 0.13577 0.0
C633 C 0.97445 0.73333 0.11435 0.0
C634 C 0.95305 0.70721 0.10702 0.0
C635 C 0.94091 0.64794 0.10689 0.0
C636 C 0.94929 0.61538 0.11573 0.0
C637 C 0.9605 0.67482 0.1169 0.0
C638 C 0.97635 0.60998 0.13608 0.0
C639 C 0.99608 0.63657 0.14605 0.0
H640 H 0.80605 0.96552 0.13934 0.0
H641 H 0.84118 0.05671 0.18146 0.0
H642 H 0.89853 0.03743 0.17617 0.0
H643 H 0.93894 0.99796 0.15348 0.0
H644 H 0.90437 0.90738 0.11024 0.0
H645 H 0.84678 0.92268 0.12277 0.0
C646 C 0.82621 0.98094 0.14785 0.0
C647 C 0.81924 1.01276 0.16031 0.0
C648 C 0.85934 0.96983 0.14447 0.0
C649 C 0.84572 0.03225 0.17149 0.0
C650 C 0.87862 0.02128 0.16843 0.0
C651 C 0.91879 0.9813 0.14739 0.0
C652 C 0.92585 0.95173 0.13077 0.0
C653 C 0.88575 0.99061 0.15404 0.0
C654 C 0.89961 0.93017 0.12324 0.0
C655 C 0.86663 0.9391 0.1301 0.0
H656 H 1.00591 0.18308 0.33019 0.0
H657 H 0.07907 0.23938 0.38194 0.0
H658 H 0.11077 0.18859 0.39219 0.0
H659 H 0.1135 0.12715 0.39282 0.0
H660 H 0.03919 0.07108 0.34278 0.0
H661 H 1.01266 0.12258 0.32495 0.0
C662 C 0.02906 0.18436 0.34328 0.0
C663 C 0.03974 0.21504 0.35565 0.0
C664 C 0.04704 0.15493 0.34943 0.0
C665 C 0.07003 0.21616 0.3723 0.0
C666 C 0.0882 0.18704 0.37826 0.0
C667 C 0.09223 0.12634 0.37707 0.0
C668 C 0.07839 0.09546 0.36893 0.0
C669 C 0.07644 0.15614 0.36778 0.0
C670 C 0.05038 0.09463 0.34909 0.0
C671 C 0.03502 0.12406 0.33918 0.0
H672 H 0.30972 0.06532 0.33363 0.0
H673 H 0.29988 1.01078 0.42088 0.0
H674 H 0.35286 0.03211 0.43913 0.0
H675 H 0.40205 0.0652 0.43085 0.0
H676 H 0.41722 0.11575 0.34228 0.0
H677 H 0.36175 0.09821 0.32464 0.0
C678 C 0.31925 0.05819 0.3566 0.0
C679 C 0.30074 0.03627 0.37575 0.0
C680 C 0.3506 0.07005 0.3669 0.0
C681 C 0.31356 0.02724 0.40544 0.0
C682 C 0.34389 0.03957 0.41604 0.0
C683 C 0.39378 0.07199 0.40734 0.0
C684 C 0.41447 0.09124 0.38773 0.0
C685 C 0.3627 0.06071 0.39693 0.0
C686 C 0.40211 0.10094 0.358 0.0
C687 C 0.37041 0.09065 0.34778 0.0
H688 H 0.49242 0.43881 0.36326 0.0
H689 H 0.40019 0.39588 0.39465 0.0
H690 H 0.42139 0.34015 0.38185 0.0
H691 H 0.46895 0.30334 0.36798 0.0
H692 H 0.56133 0.34724 0.33741 0.0
H693 H 0.53732 0.40259 0.3436 0.0
C694 C 0.47675 0.41726 0.3667 0.0
C695 C 0.44486 0.42145 0.38003 0.0
C696 C 0.48936 0.38534 0.35989 0.0
C697 C 0.42471 0.39336 0.38418 0.0
C698 C 0.437 0.36145 0.37719 0.0
C699 C 0.48367 0.32499 0.36221 0.0
C700 C 0.51712 0.32096 0.35263 0.0
C701 C 0.46971 0.35705 0.366 0.0
C702 C 0.53566 0.34941 0.34507 0.0
C703 C 0.52196 0.3812 0.34864 0.0
H704 H 0.13752 0.41786 0.38623 0.0
H705 H 0.07276 0.49835 0.35853 0.0
H706 H 0.12041 0.52952 0.3387 0.0
H707 H 0.1809 0.53726 0.33644 0.0
H708 H 0.24629 0.45766 0.36575 0.0
H709 H 0.19828 0.42278 0.37726 0.0
C710 C 0.13386 0.44172 0.37487 0.0
C711 C 0.10173 0.45579 0.37372 0.0
C712 C 0.16161 0.45997 0.36432 0.0
C713 C 0.09729 0.48701 0.35948 0.0
C714 C 0.12456 0.50495 0.3484 0.0
C715 C 0.18473 0.51207 0.3448 0.0
C716 C 0.21726 0.50038 0.3506 0.0
C717 C 0.15694 0.49224 0.35182 0.0
C718 C 0.22161 0.4675 0.3612 0.0
C719 C 0.19409 0.4475 0.36793 0.0
H720 H 0.53244 0.18553 0.84123 0.0
H721 H 0.45233 0.24577 0.87894 0.0
H722 H 0.41963 0.19588 0.88883 0.0
H723 H 0.41687 0.13461 0.89319 0.0
H724 H 0.4983 0.07491 0.85784 0.0
H725 H 0.5271 0.12489 0.84015 0.0
C726 C 0.50761 0.18786 0.85113 0.0
C727 C 0.49511 0.21943 0.85966 0.0
C728 C 0.48916 0.159 0.85729 0.0
C729 C 0.46275 0.22184 0.87231 0.0
C730 C 0.44402 0.19326 0.87807 0.0
C731 C 0.44043 0.13263 0.88073 0.0
C732 C 0.45544 0.10123 0.87664 0.0
C733 C 0.45735 0.16163 0.87153 0.0
C734 C 0.48627 0.09889 0.86104 0.0
C735 C 0.50283 0.12745 0.85116 0.0
H736 H 0.39865 0.41984 0.89903 0.0
H737 H 0.45942 0.50088 0.86693 0.0
H738 H 0.40983 0.53115 0.84953 0.0
H739 H 0.34899 0.53767 0.84978 0.0
H740 H 0.28774 0.45713 0.88266 0.0
H741 H 0.33742 0.42364 0.8931 0.0
C742 C 0.401 0.44364 0.8873 0.0
C743 C 0.43262 0.45814 0.88426 0.0
C744 C 0.37219 0.46133 0.87803 0.0
C745 C 0.43532 0.48925 0.86948 0.0
C746 C 0.40695 0.50667 0.85975 0.0
C747 C 0.34645 0.51262 0.85881 0.0
C748 C 0.3146 0.5002 0.86577 0.0
C749 C 0.37519 0.49349 0.86495 0.0
C750 C 0.31188 0.46751 0.87719 0.0
C751 C 0.34034 0.44829 0.88327 0.0
H752 H 0.05213 0.30154 0.86315 0.0
H753 H 0.95907 0.3441 0.83145 0.0
H754 H 0.98219 0.39977 0.83613 0.0
H755 H 0.02658 0.43659 0.85477 0.0
H756 H 0.11911 0.39447 0.88781 0.0
H757 H 0.09877 0.33852 0.87638 0.0
C758 C 0.03704 0.32295 0.85683 0.0
C759 C 1.00373 0.31859 0.84739 0.0
C760 C 0.0504 0.35504 0.85987 0.0
C761 C 0.98468 0.34665 0.83902 0.0
C762 C 0.99785 0.37856 0.84175 0.0
C763 C 0.04245 0.41514 0.85899 0.0
C764 C 0.07418 0.41963 0.8723 0.0
C765 C 0.03033 0.38308 0.85299 0.0
C766 C 0.09467 0.3917 0.87736 0.0
C767 C 0.08292 0.35968 0.87112 0.0
H768 H 0.18112 0.99706 0.83917 0.0
H769 H 0.24448 0.0731 0.87802 0.0
H770 H 0.19605 0.10883 0.88739 0.0
H771 H 0.13474 0.1156 0.89083 0.0
H772 H 0.07178 0.03907 0.85277 0.0
H773 H 0.1207 1.00691 0.83625 0.0
C774 C 0.18443 0.02163 0.84926 0.0
C775 C 0.21648 0.03207 0.85823 0.0
C776 C 0.15636 0.04211 0.85473 0.0
C777 C 0.22019 0.06421 0.87099 0.0
C778 C 0.19242 0.08472 0.87646 0.0
C779 C 0.13186 0.09247 0.8779 0.0
C780 C 0.09972 0.07983 0.87276 0.0
C781 C 0.16025 0.07361 0.86921 0.0
C782 C 0.09628 0.04943 0.85664 0.0
C783 C 0.12426 0.03087 0.84751 0.0
H784 H 0.02603 0.8437 0.68324 0.0
H785 H 0.94961 0.78224 0.64229 0.0
H786 H 0.91703 0.83169 0.62906 0.0
H787 H 0.91431 0.89272 0.62195 0.0
H788 H 0.99145 0.95369 0.66189 0.0
H789 H 0.01919 0.90441 0.68319 0.0
C790 C 1.00196 0.84105 0.67196 0.0
C791 C 0.99063 0.80922 0.66339 0.0
C792 C 0.98343 0.86967 0.66409 0.0
C793 C 0.95916 0.80636 0.64905 0.0
C794 C 0.94049 0.8347 0.64133 0.0
C795 C 0.93652 0.8952 0.6363 0.0
C796 C 0.95085 0.92675 0.64037 0.0
C797 C 0.95288 0.86655 0.64776 0.0
C798 C 0.97996 0.92964 0.65856 0.0
C799 C 0.99598 0.90143 0.67049 0.0
H800 H 0.73138 0.96607 0.63795 0.0
H801 H 0.69145 0.05973 0.67144 0.0
H802 H 0.63499 0.03929 0.66435 0.0
H803 H 0.59705 0.99745 0.6425 0.0
H804 H 0.63656 0.90403 0.60858 0.0
H805 H 0.69294 0.92145 0.62248 0.0
C806 C 0.71034 0.98181 0.6442 0.0
C807 C 0.7157 0.01457 0.65471 0.0
C808 C 0.6778 0.97 0.63983 0.0
C809 C 0.68813 0.0345 0.66305 0.0
C810 C 0.65575 0.02289 0.6589 0.0
C811 C 0.61801 0.98075 0.6387 0.0
C812 C 0.61279 0.94966 0.62435 0.0
C813 C 0.65032 0.9911 0.64636 0.0
C814 C 0.63999 0.92802 0.61977 0.0
C815 C 0.67224 0.93809 0.62746 0.0
H816 H 0.49719 0.68679 0.6687 0.0
H817 H 0.57433 0.74603 0.62631 0.0
H818 H 0.60801 0.69611 0.61718 0.0
H819 H 0.61214 0.63461 0.61468 0.0
H820 H 0.53445 0.57586 0.65636 0.0
H821 H 0.50488 0.62632 0.67287 0.0
C822 C 0.5216 0.68889 0.65793 0.0
C823 C 0.53291 0.72018 0.64784 0.0
C824 C 0.54084 0.65999 0.65257 0.0
C825 C 0.56481 0.72234 0.63422 0.0
C826 C 0.58412 0.69372 0.62886 0.0
C827 C 0.58937 0.63298 0.62838 0.0
C828 C 0.57555 0.60158 0.63445 0.0
C829 C 0.57199 0.66226 0.63709 0.0
C830 C 0.54565 0.59977 0.65165 0.0
C831 C 0.52857 0.62863 0.66081 0.0
H832 H 0.79733 0.55496 0.63991 0.0
H833 H 0.84176 0.4599 0.66228 0.0
H834 H 0.89714 0.48348 0.6568 0.0
H835 H 0.93303 0.52939 0.64026 0.0
H836 H 0.88935 0.62442 0.61742 0.0
H837 H 0.83382 0.60287 0.62917 0.0
C838 C 0.81912 0.53952 0.64399 0.0
C839 C 0.81527 0.50556 0.65107 0.0
C840 C 0.85112 0.55325 0.6407 0.0
C841 C 0.84385 0.48603 0.65658 0.0
C842 C 0.87563 0.49948 0.6534 0.0
C843 C 0.91136 0.54551 0.63841 0.0
C844 C 0.91524 0.57836 0.62783 0.0
C845 C 0.87955 0.53279 0.64469 0.0
C846 C 0.88704 0.59911 0.62575 0.0
C847 C 0.85525 0.58668 0.63215 0.0
H848 H 0.61776 0.28769 0.99237 0.0
H849 H 0.57951 0.2205 0.9215 0.0
H850 H 0.59095 0.17332 0.95563 0.0
H851 H 0.61349 0.15049 0.00483 0.0
H852 H 0.65044 0.21717 0.07662 0.0
H853 H 0.63755 0.26484 0.04316 0.0
C854 C 0.61189 0.26274 0.98444 0.0
C855 C 0.59794 0.2578 0.9543 0.0
C856 C 0.61822 0.23544 0.00441 0.0
C857 C 0.59022 0.22522 0.94456 0.0
C858 C 0.59679 0.19808 0.96407 0.0
C859 C 0.61849 0.17545 0.01329 0.0
C860 C 0.63303 0.18011 0.04317 0.0
C861 C 0.61098 0.20283 0.99395 0.0
C862 C 0.63917 0.21273 0.05376 0.0
C863 C 0.63196 0.24008 0.03456 0.0
H864 H 0.31296 0.6206 0.91963 0.0
H865 H 0.2461 0.57179 0.98396 0.0
H866 H 0.28419 0.5827 0.02795 0.0
H867 H 0.33591 0.60821 0.04844 0.0
H868 H 0.40442 0.65304 0.98286 0.0
H869 H 0.36657 0.64153 0.93915 0.0
C870 C 0.3069 0.61218 0.94327 0.0
C871 C 0.27676 0.59559 0.94864 0.0
C872 C 0.32925 0.61788 0.96824 0.0
C873 C 0.26929 0.58446 0.97926 0.0
C874 C 0.29098 0.59084 0.00443 0.0
C875 C 0.34258 0.61516 0.02453 0.0
C876 C 0.37289 0.63149 0.01892 0.0
C877 C 0.32094 0.6078 0.99927 0.0
C878 C 0.38137 0.64019 0.98779 0.0
C879 C 0.35966 0.63378 0.96277 0.0
H880 H 0.86857 0.22908 0.96244 0.0
H881 H 0.9554 0.29032 0.951 0.0
H882 H 0.93367 0.32966 0.99043 0.0
H883 H 0.88973 0.34647 0.02849 0.0
H884 H 0.80159 0.2862 0.03674 0.0
H885 H 0.8239 0.24704 0.99813 0.0
C886 C 0.88286 0.2509 0.96879 0.0
C887 C 0.91373 0.25657 0.95421 0.0
C888 C 0.86981 0.2738 0.99075 0.0
C889 C 0.93163 0.28534 0.96208 0.0
C890 C 0.91919 0.30786 0.98457 0.0
C891 C 0.87537 0.32487 0.02168 0.0
C892 C 0.84408 0.31933 0.03565 0.0
C893 C 0.88824 0.30239 0.99905 0.0
C894 C 0.8257 0.29126 0.0264 0.0
C895 C 0.8385 0.26866 0.00437 0.0
H896 H 0.23789 0.94134 0.94636 0.0
H897 H 0.3206 0.87245 0.95095 0.0
H898 H 0.28987 0.83756 0.98739 0.0
H899 H 0.24138 0.82819 0.02081 0.0
H900 H 0.15951 0.89811 0.01986 0.0
H901 H 0.18773 0.93065 0.9791 0.0
C902 C 0.249 0.91856 0.95519 0.0
C903 C 0.28161 0.90971 0.94605 0.0
C904 C 0.23135 0.89875 0.97692 0.0
C905 C 0.29571 0.88012 0.95778 0.0
C906 C 0.27811 0.86003 0.97862 0.0
C907 C 0.22942 0.85031 0.01146 0.0
C908 C 0.19837 0.86068 0.02346 0.0
C909 C 0.24618 0.86935 0.98876 0.0
C910 C 0.18344 0.88956 0.01111 0.0
C911 C 0.19963 0.90825 0.98785 0.0
H912 H 0.09586 0.73425 0.52489 0.0
H913 H 0.07313 0.80499 0.59899 0.0
H914 H 0.08279 0.85084 0.56273 0.0
H915 H 0.10098 0.87107 0.51086 0.0
H916 H 0.12273 0.80043 0.43642 0.0
H917 H 0.1098 0.75459 0.47177 0.0
C918 C 0.09295 0.75969 0.53307 0.0
C919 C 0.08417 0.76609 0.56471 0.0
C920 C 0.09831 0.78608 0.51201 0.0
C921 C 0.07999 0.79924 0.57479 0.0
C922 C 0.08554 0.82557 0.55407 0.0
C923 C 0.10249 0.84568 0.50223 0.0
C924 C 0.11306 0.83931 0.47108 0.0
C925 C 0.09514 0.81931 0.52274 0.0
C926 C 0.11469 0.80618 0.46028 0.0
C927 C 0.10746 0.77985 0.48054 0.0
H928 H 0.72556 0.08041 0.56889 0.0
H929 H 0.80683 0.11375 0.51036 0.0
H930 H 0.76766 0.12859 0.46861 0.0
H931 H 0.71033 0.13481 0.44968 0.0
H932 H 0.62855 0.10449 0.50897 0.0
H933 H 0.66794 0.08538 0.54924 0.0
C934 C 0.73476 0.09064 0.54689 0.0
C935 C 0.76919 0.09595 0.54286 0.0
C936 C 0.71198 0.09966 0.52308 0.0
C937 C 0.78054 0.10949 0.51425 0.0
C938 C 0.75813 0.11796 0.49029 0.0
C939 C 0.70104 0.1236 0.4712 0.0
C940 C 0.66645 0.12101 0.47621 0.0
C941 C 0.72379 0.1135 0.49457 0.0
C942 C 0.65499 0.1068 0.50448 0.0
C943 C 0.67753 0.09595 0.52756 0.0
H944 H 0.33395 0.7051 0.50473 0.0
H945 H 0.42718 0.67572 0.46173 0.0
H946 H 0.45741 0.71027 0.49965 0.0
H947 H 0.45726 0.74858 0.54531 0.0
H948 H 0.36384 0.77616 0.58883 0.0
H949 H 0.33379 0.74288 0.55019 0.0
C950 C 0.3609 0.70617 0.5036 0.0
C951 C 0.37826 0.68781 0.48038 0.0
C952 C 0.37808 0.72597 0.52547 0.0
C953 C 0.41318 0.68951 0.47939 0.0
C954 C 0.43048 0.70935 0.50102 0.0
C955 C 0.4303 0.74753 0.54618 0.0
C956 C 0.41282 0.76509 0.5699 0.0
C957 C 0.41317 0.72773 0.52414 0.0
C958 C 0.37795 0.76305 0.5709 0.0
C959 C 0.36071 0.74392 0.54879 0.0
H960 H 0.78749 0.44713 0.55392 0.0
H961 H 0.70453 0.385 0.52749 0.0
H962 H 0.73602 0.36301 0.48306 0.0
H963 H 0.78724 0.35916 0.45299 0.0
H964 H 0.87112 0.4205 0.47716 0.0
H965 H 0.83895 0.44547 0.52088 0.0
C966 C 0.7763 0.42892 0.53831 0.0
C967 C 0.74366 0.4177 0.54424 0.0
C968 C 0.79464 0.41626 0.51239 0.0
C969 C 0.7295 0.39421 0.52364 0.0
C970 C 0.74752 0.3815 0.49816 0.0
C971 C 0.79858 0.3781 0.46771 0.0
C972 C 0.83163 0.38773 0.46209 0.0
C973 C 0.78012 0.39205 0.49255 0.0
C974 C 0.84569 0.41269 0.48104 0.0
C975 C 0.82735 0.42679 0.50611 0.0
H976 H 0.41662 0.84793 0.97458 0.0
H977 H 0.37731 0.76404 0.92313 0.0
H978 H 0.39817 0.72627 0.9634 0.0
H979 H 0.42381 0.71715 0.01478 0.0
H980 H 0.46175 0.80041 0.06804 0.0
H981 H 0.44556 0.83815 0.02543 0.0
C982 C 0.41309 0.82135 0.972 0.0
C983 C 0.39527 0.80888 0.94594 0.0
C984 C 0.42473 0.79961 0.99566 0.0
C985 C 0.39071 0.77437 0.94304 0.0
C986 C 0.40263 0.75268 0.96608 0.0
C987 C 0.42889 0.7435 0.01705 0.0
C988 C 0.44383 0.75589 0.0447 0.0
C989 C 0.41908 0.76507 0.99276 0.0
C990 C 0.45023 0.79015 0.04705 0.0
C991 C 0.44089 0.81179 0.02271 0.0
H992 H 0.69698 0.41532 0.95714 0.0
H993 H 0.62738 0.38326 0.02853 0.0
H994 H 0.66806 0.39493 0.06965 0.0
H995 H 0.72487 0.40962 0.08525 0.0
H996 H 0.7944 0.44379 0.01502 0.0
H997 H 0.75234 0.43604 0.97364 0.0
C998 C 0.69051 0.41137 0.98172 0.0
C999 C 0.65912 0.39804 0.98955 0.0
C1000 C 0.71417 0.41816 0.00549 0.0
C1001 C 0.65123 0.39334 0.02163 0.0
C1002 C 0.6746 0.39986 0.04526 0.0
C1003 C 0.73076 0.41561 0.0609 0.0
C1004 C 0.76285 0.42687 0.05314 0.0
C1005 C 0.70638 0.41147 0.03742 0.0
C1006 C 0.76991 0.43506 0.02159 0.0
C1007 C 0.74588 0.43051 0.99793 0.0
H1008 H 0.13656 0.6851 0.9665 0.0
H1009 H 0.23213 0.67969 0.01274 0.0
H1010 H 0.21127 0.71489 0.05566 0.0
H1011 H 0.16765 0.75024 0.07793 0.0
H1012 H 0.07272 0.75889 0.03084 0.0
H1013 H 0.09156 0.71925 0.99037 0.0
C1014 C 0.15259 0.69113 0.98629 0.0
C1015 C 0.18584 0.67972 0.98652 0.0
C1016 C 0.14068 0.71224 0.0105 0.0
C1017 C 0.20647 0.68816 0.01204 0.0
C1018 C 0.19459 0.70837 0.03652 0.0
C1019 C 0.15084 0.74337 0.059 0.0
C1020 C 0.11878 0.75772 0.05743 0.0
C1021 C 0.162 0.72109 0.03564 0.0
C1022 C 0.09753 0.74838 0.03261 0.0
C1023 C 0.10831 0.72569 0.00946 0.0
H1024 H 0.80418 0.07489 0.06909 0.0
H1025 H 0.72056 0.1132 0.0162 0.0
H1026 H 0.75765 0.128 0.97277 0.0
H1027 H 0.81406 0.13275 0.95079 0.0
H1028 H 0.89815 0.09714 0.00456 0.0
H1029 H 0.86065 0.07837 0.04642 0.0
C1030 C 0.79398 0.08621 0.04796 0.0
C1031 C 0.7595 0.09287 0.04603 0.0
C1032 C 0.81559 0.09521 0.02318 0.0
C1033 C 0.74691 0.1078 0.01847 0.0
C1034 C 0.76814 0.11629 0.99356 0.0
C1035 C 0.82422 0.12048 0.97146 0.0
C1036 C 0.85896 0.11631 0.97442 0.0
C1037 C 0.80255 0.11045 0.99578 0.0
C1038 C 0.87158 0.10071 1.00162 0.0
C1039 C 0.85012 0.09003 0.02562 0.0
H1040 H 0.84254 0.20481 0.50703 0.0
H1041 H 0.936 0.16271 0.53794 0.0
H1042 H 0.96583 0.19784 0.50002 0.0
H1043 H 0.96496 0.24281 0.45952 0.0
H1044 H 0.87069 0.2853 0.43208 0.0
H1045 H 0.84142 0.24774 0.46724 0.0
C1046 C 0.86946 0.20305 0.50552 0.0
C1047 C 0.88702 0.18122 0.52537 0.0
C1048 C 0.88625 0.22364 0.48437 0.0
C1049 C 0.92189 0.17937 0.52293 0.0
C1050 C 0.93892 0.19949 0.5013 0.0
C1051 C 0.93802 0.24359 0.46128 0.0
C1052 C 0.91984 0.26713 0.44368 0.0
C1053 C 0.92135 0.22205 0.48213 0.0
C1054 C 0.88507 0.26802 0.44601 0.0
C1055 C 0.86835 0.24635 0.46593 0.0
H1056 H 0.28643 0.94322 0.45181 0.0
H1057 H 0.21187 0.87274 0.48092 0.0
H1058 H 0.25022 0.84955 0.51975 0.0
H1059 H 0.30465 0.84933 0.5458 0.0
H1060 H 0.37829 0.9217 0.5194 0.0
H1061 H 0.34078 0.94378 0.47887 0.0
C1062 C 0.27855 0.92285 0.46671 0.0
C1063 C 0.24627 0.90979 0.46341 0.0
C1064 C 0.30068 0.90973 0.48928 0.0
C1065 C 0.23643 0.88348 0.48304 0.0
C1066 C 0.25843 0.87002 0.50517 0.0
C1067 C 0.31268 0.86966 0.53091 0.0
C1068 C 0.34436 0.88362 0.53533 0.0
C1069 C 0.29062 0.88287 0.50843 0.0
C1070 C 0.3541 0.91042 0.51631 0.0
C1071 C 0.33261 0.92312 0.49324 0.0
H1072 H 0.62897 0.31643 0.55775 0.0
H1073 H 0.5915 0.39842 0.50243 0.0
H1074 H 0.57749 0.36005 0.45946 0.0
H1075 H 0.57928 0.30371 0.43636 0.0
H1076 H 0.61956 0.22254 0.49119 0.0
H1077 H 0.62914 0.2602 0.53551 0.0
C1078 C 0.61726 0.32595 0.53652 0.0
C1079 C 0.61122 0.36032 0.5334 0.0
C1080 C 0.61014 0.3039 0.51162 0.0
C1081 C 0.5964 0.37212 0.50549 0.0
C1082 C 0.58851 0.35019 0.48085 0.0
C1083 C 0.58995 0.29416 0.45807 0.0
C1084 C 0.59876 0.26025 0.4603 0.0
C1085 C 0.59584 0.3161 0.48344 0.0
C1086 C 0.61266 0.24846 0.48865 0.0
C1087 C 0.61812 0.27001 0.51409 0.0
H1088 H 0.16399 0.6636 0.49199 0.0
H1089 H 0.20004 0.61164 0.57414 0.0
H1090 H 0.24433 0.58575 0.54241 0.0
H1091 H 0.27467 0.58019 0.49139 0.0
H1092 H 0.2352 0.62855 0.4087 0.0
H1093 H 0.19059 0.65368 0.44035 0.0
C1094 C 0.18134 0.64631 0.50283 0.0
C1095 C 0.17886 0.63964 0.53536 0.0
C1096 C 0.20632 0.63111 0.48434 0.0
C1097 C 0.20131 0.61699 0.54909 0.0
C1098 C 0.22678 0.60238 0.531 0.0
C1099 C 0.25609 0.59605 0.48043 0.0
C1100 C 0.25817 0.60274 0.4479 0.0
C1101 C 0.22984 0.60961 0.49866 0.0
C1102 C 0.23392 0.62305 0.43373 0.0
C1103 C 0.20848 0.63745 0.45181 0.0
H1104 H 0.63188 0.11364 0.31844 0.0
H1105 H 0.56771 0.18578 0.27343 0.0
H1106 H 0.5829 0.16359 0.22162 0.0
H1107 H 0.61724 0.1262 0.18866 0.0
H1108 H 0.68243 0.05501 0.23362 0.0
H1109 H 0.66374 0.07409 0.28556 0.0
C1110 C 0.6209 0.12432 0.29735 0.0
C1111 C 0.59875 0.15152 0.30005 0.0
C1112 C 0.63002 0.11165 0.26743 0.0
C1113 C 0.58492 0.16495 0.27228 0.0
C1114 C 0.59361 0.15228 0.24253 0.0
C1115 C 0.62702 0.11449 0.20978 0.0
C1116 C 0.65134 0.08922 0.20707 0.0
C1117 C 0.61654 0.12597 0.23974 0.0
C1118 C 0.6638 0.07457 0.23485 0.0
C1119 C 0.65317 0.08554 0.26465 0.0
H1120 H 0.36211 0.57617 0.27376 0.0
H1121 H 0.41635 0.64131 0.33622 0.0
H1122 H 0.44415 0.66642 0.29109 0.0
H1123 H 0.45126 0.6721 0.2335 0.0
H1124 H 0.39802 0.60616 0.17104 0.0
H1125 H 0.37209 0.57931 0.2163 0.0
C1126 C 0.38019 0.59567 0.27754 0.0
C1127 C 0.3869 0.60679 0.3085 0.0
C1128 C 0.39634 0.61009 0.25134 0.0
C1129 C 0.41061 0.63206 0.31279 0.0
C1130 C 0.42652 0.64661 0.28691 0.0
C1131 C 0.43419 0.65169 0.22976 0.0
C1132 C 0.42658 0.64142 0.19873 0.0
C1133 C 0.41931 0.63614 0.25603 0.0
C1134 C 0.40448 0.61473 0.19452 0.0
C1135 C 0.38947 0.59934 0.22047 0.0
H1136 H 0.89679 0.40491 0.31578 0.0
H1137 H 0.96684 0.33728 0.2715 0.0
H1138 H 0.94596 0.35277 0.21957 0.0
H1139 H 0.90703 0.38401 0.18667 0.0
H1140 H 0.83656 0.45169 0.22999 0.0
H1141 H 0.8585 0.43769 0.28231 0.0
C1142 C 0.90771 0.39376 0.29477 0.0
C1143 C 0.93342 0.36993 0.29769 0.0
C1144 C 0.89541 0.40264 0.26478 0.0
C1145 C 0.94705 0.35565 0.27012 0.0
C1146 C 0.9351 0.36445 0.24033 0.0
C1147 C 0.89643 0.39582 0.2075 0.0
C1148 C 0.87006 0.41879 0.20436 0.0
C1149 C 0.90912 0.38767 0.2374 0.0
C1150 C 0.85683 0.43389 0.23169 0.0
C1151 C 0.86937 0.42588 0.26162 0.0
H1152 H 0.18052 0.93771 0.27585 0.0
H1153 H 0.09958 0.89665 0.33004 0.0
H1154 H 0.07532 0.87351 0.28211 0.0
H1155 H 0.07774 0.86316 0.2246 0.0
H1156 H 0.15855 0.9048 0.17062 0.0
H1157 H 0.18185 0.92916 0.21831 0.0
C1158 C 0.15745 0.92395 0.27717 0.0
C1159 C 0.14209 0.91897 0.30665 0.0
C1160 C 0.14352 0.91049 0.24941 0.0
C1161 C 0.11213 0.90096 0.30777 0.0
C1162 C 0.09817 0.88756 0.28031 0.0
C1163 C 0.10039 0.8776 0.22329 0.0
C1164 C 0.11626 0.88198 0.19396 0.0
C1165 C 0.11379 0.89185 0.25098 0.0
C1166 C 0.14559 0.90098 0.19276 0.0
C1167 C 0.15908 0.91498 0.22011 0.0
H1168 H 0.45002 0.8589 0.72878 0.0
H1169 H 0.37289 0.89971 0.66921 0.0
H1170 H 0.34752 0.92721 0.71469 0.0
H1171 H 0.34722 0.94055 0.77169 0.0
H1172 H 0.42448 0.89974 0.83112 0.0
H1173 H 0.44949 0.87184 0.78571 0.0
C1174 C 0.42763 0.87372 0.72572 0.0
C1175 C 0.41351 0.87701 0.69544 0.0
C1176 C 0.41308 0.8898 0.7521 0.0
C1177 C 0.38442 0.89646 0.69212 0.0
C1178 C 0.36982 0.91239 0.7182 0.0
C1179 C 0.36957 0.92566 0.7747 0.0
C1180 C 0.38387 0.9225 0.80493 0.0
C1181 C 0.38398 0.90939 0.74833 0.0
C1182 C 0.41281 0.90283 0.80825 0.0
C1183 C 0.42723 0.88673 0.78222 0.0
H1184 H 0.63644 0.40801 0.8226 0.0
H1185 H 0.55486 0.35293 0.78223 0.0
H1186 H 0.56994 0.37196 0.72965 0.0
H1187 H 0.6084 0.40087 0.69444 0.0
H1188 H 0.69081 0.45526 0.73406 0.0
H1189 H 0.67312 0.44011 0.78729 0.0
C1190 C 0.62167 0.40058 0.80236 0.0
C1191 C 0.59465 0.37889 0.80651 0.0
C1192 C 0.63075 0.4113 0.77186 0.0
C1193 C 0.57594 0.3694 0.77988 0.0
C1194 C 0.58454 0.38025 0.74968 0.0
C1195 C 0.62236 0.40973 0.71467 0.0
C1196 C 0.65105 0.42903 0.71005 0.0
C1197 C 0.61227 0.40066 0.74528 0.0
C1198 C 0.66869 0.44027 0.73674 0.0
C1199 C 0.65862 0.43157 0.76729 0.0
H1200 H 0.17067 0.57534 0.77625 0.0
H1201 H 0.12787 0.64857 0.83953 0.0
H1202 H 0.09682 0.67299 0.79614 0.0
H1203 H 0.08196 0.67454 0.7402 0.0
H1204 H 0.12435 0.60221 0.67595 0.0
H1205 H 0.15492 0.57656 0.71954 0.0
C1206 C 0.15457 0.59663 0.7805 0.0
C1207 C 0.15172 0.60995 0.81126 0.0
C1208 C 0.13646 0.61077 0.75523 0.0
C1209 C 0.1306 0.63757 0.81625 0.0
C1210 C 0.11273 0.65168 0.79139 0.0
C1211 C 0.09768 0.65302 0.73568 0.0
C1212 C 0.10067 0.64037 0.70475 0.0
C1213 C 0.11543 0.63854 0.7608 0.0
C1214 C 0.12138 0.6125 0.69948 0.0
C1215 C 0.13902 0.59783 0.72443 0.0
H1216 H 0.89575 0.11177 0.81403 0.0
H1217 H 0.96128 0.18465 0.77311 0.0
H1218 H 0.94704 0.16536 0.72022 0.0
H1219 H 0.91263 0.13091 0.68526 0.0
H1220 H 0.84623 0.05882 0.72617 0.0
H1221 H 0.86441 0.0745 0.77903 0.0
C1222 C 0.90728 0.12314 0.79358 0.0
C1223 C 0.92934 0.14982 0.79769 0.0
C1224 C 0.89867 0.11222 0.76304 0.0
C1225 C 0.94397 0.16424 0.7708 0.0
C1226 C 0.93585 0.15325 0.74043 0.0
C1227 C 0.90247 0.11829 0.70569 0.0
C1228 C 0.87789 0.0939 0.70161 0.0
C1229 C 0.9127 0.12772 0.73622 0.0
C1230 C 0.865 0.07788 0.72848 0.0
C1231 C 0.87535 0.08684 0.75882 0.0
H1232 H 0.83533 0.26678 0.1473 0.0
H1233 H 0.75296 0.32351 0.18541 0.0
H1234 H 0.72139 0.27248 0.1931 0.0
H1235 H 0.71358 0.21377 0.17961 0.0
H1236 H 0.79468 0.15711 0.13923 0.0
H1237 H 0.83077 0.20586 0.14245 0.0
C1238 C 0.81081 0.26782 0.15806 0.0
C1239 C 0.79617 0.29879 0.16528 0.0
C1240 C 0.79252 0.23844 0.16167 0.0
C1241 C 0.76456 0.29992 0.17941 0.0
C1242 C 0.74645 0.27078 0.18367 0.0
C1243 C 0.73945 0.21189 0.17237 0.0
C1244 C 0.75143 0.18223 0.15877 0.0
C1245 C 0.7596 0.24017 0.17348 0.0
C1246 C 0.78498 0.17981 0.14972 0.0
C1247 C 0.80548 0.20775 0.15128 0.0
H1248 H 0.31336 0.71593 0.16598 0.0
H1249 H 0.37301 0.78999 0.11977 0.0
H1250 H 0.32733 0.83036 0.12423 0.0
H1251 H 0.26756 0.84126 0.13387 0.0
H1252 H 0.20887 0.76754 0.18189 0.0
H1253 H 0.25721 0.7307 0.18497 0.0
C1254 C 0.31652 0.74116 0.15759 0.0
C1255 C 0.34609 0.74997 0.14216 0.0
C1256 C 0.29029 0.76421 0.16045 0.0
C1257 C 0.35029 0.78274 0.13167 0.0
C1258 C 0.32414 0.80574 0.13406 0.0
C1259 C 0.26568 0.81755 0.14585 0.0
C1260 C 0.23464 0.80687 0.15715 0.0
C1261 C 0.2936 0.79634 0.14736 0.0
C1262 C 0.23249 0.77623 0.17283 0.0
C1263 C 0.26006 0.755 0.17438 0.0
H1264 H 0.32651 0.73959 0.36939 0.0
H1265 H 0.2427 0.67401 0.35899 0.0
H1266 H 0.20545 0.72194 0.35279 0.0
H1267 H 0.19603 0.78235 0.35643 0.0
H1268 H 0.27959 0.8479 0.36866 0.0
H1269 H 0.31775 0.8002 0.36749 0.0
C1270 C 0.30016 0.73582 0.36522 0.0
C1271 C 0.28728 0.70337 0.36484 0.0
C1272 C 0.27888 0.7635 0.36216 0.0
C1273 C 0.25316 0.69877 0.35937 0.0
C1274 C 0.23185 0.72617 0.35596 0.0
C1275 C 0.22266 0.78623 0.3582 0.0
C1276 C 0.23501 0.81855 0.3628 0.0
C1277 C 0.24432 0.75864 0.35818 0.0
C1278 C 0.26952 0.82326 0.36506 0.0
C1279 C 0.29131 0.79597 0.36461 0.0
H1280 H 0.83501 0.25298 0.3614 0.0
H1281 H 0.78946 0.34951 0.35012 0.0
H1282 H 0.73421 0.32441 0.35011 0.0
H1283 H 0.69834 0.27524 0.35852 0.0
H1284 H 0.74464 0.17892 0.36944 0.0
H1285 H 0.79956 0.2035 0.36414 0.0
C1286 C 0.81302 0.26841 0.35826 0.0
C1287 C 0.81638 0.30303 0.35583 0.0
C1288 C 0.78122 0.25383 0.35856 0.0
C1289 C 0.7876 0.32273 0.35196 0.0
C1290 C 0.75592 0.30842 0.35214 0.0
C1291 C 0.72046 0.25966 0.35923 0.0
C1292 C 0.71732 0.22534 0.36463 0.0
C1293 C 0.75231 0.27404 0.35623 0.0
C1294 C 0.74626 0.20545 0.36547 0.0
C1295 C 0.7778 0.21948 0.36249 0.0
H1296 H 0.25101 0.84438 0.86996 0.0
H1297 H 0.33493 0.8051 0.81793 0.0
H1298 H 0.30617 0.7522 0.81087 0.0
H1299 H 0.26144 0.7144 0.82779 0.0
H1300 H 0.17869 0.75358 0.88165 0.0
H1301 H 0.20233 0.80923 0.87927 0.0
C1302 C 0.26258 0.82454 0.85632 0.0
C1303 C 0.29516 0.82838 0.84486 0.0
C1304 C 0.24625 0.79397 0.85308 0.0
C1305 C 0.30989 0.8026 0.82712 0.0
C1306 C 0.29354 0.77227 0.82328 0.0
C1307 C 0.24819 0.73531 0.83822 0.0
C1308 C 0.21866 0.72989 0.85526 0.0
C1309 C 0.26235 0.76719 0.83739 0.0
C1310 C 0.20163 0.75714 0.86862 0.0
C1311 C 0.21521 0.78896 0.8674 0.0
H1312 H 0.8307 0.27408 0.86834 0.0
H1313 H 0.78323 0.17962 0.85281 0.0
H1314 H 0.72875 0.20683 0.85123 0.0
H1315 H 0.69396 0.25674 0.86033 0.0
H1316 H 0.7415 0.35094 0.87716 0.0
H1317 H 0.79622 0.32483 0.87189 0.0
C1318 C 0.80848 0.25962 0.86392 0.0
C1319 C 0.81095 0.22493 0.86087 0.0
C1320 C 0.77707 0.27538 0.86363 0.0
C1321 C 0.78195 0.20641 0.85533 0.0
C1322 C 0.75073 0.22192 0.85456 0.0
C1323 C 0.71632 0.27157 0.86225 0.0
C1324 C 0.7137 0.30561 0.86937 0.0
C1325 C 0.74786 0.25627 0.85961 0.0
C1326 C 0.74286 0.3246 0.87184 0.0
C1327 C 0.77422 0.30968 0.86891 0.0
H1328 H 0.77197 0.32957 0.63377 0.0
H1329 H 0.67663 0.28223 0.6444 0.0
H1330 H 0.7035 0.2277 0.64533 0.0
H1331 H 0.75383 0.19278 0.63873 0.0
H1332 H 0.84921 0.24005 0.62822 0.0
H1333 H 0.82286 0.29475 0.63186 0.0
C1334 C 0.7572 0.30734 0.63682 0.0
C1335 C 0.72236 0.31001 0.63887 0.0
C1336 C 0.77285 0.27581 0.6371 0.0
C1337 C 0.70353 0.28092 0.6427 0.0
C1338 C 0.71886 0.24963 0.64314 0.0
C1339 C 0.76883 0.21507 0.6377 0.0
C1340 C 0.80339 0.21229 0.63306 0.0
C1341 C 0.75345 0.24666 0.63968 0.0
C1342 C 0.82252 0.24144 0.63174 0.0
C1343 C 0.80746 0.27282 0.63373 0.0
H1344 H 0.17727 0.77502 0.65287 0.0
H1345 H 0.22154 0.67871 0.66965 0.0
H1346 H 0.27498 0.70445 0.68083 0.0
H1347 H 0.31101 0.75286 0.67664 0.0
H1348 H 0.26847 0.84925 0.6574 0.0
H1349 H 0.21252 0.82532 0.65725 0.0
C1350 C 0.19846 0.75987 0.65978 0.0
C1351 C 0.1957 0.72503 0.65996 0.0
C1352 C 0.22952 0.77485 0.66549 0.0
C1353 C 0.22323 0.70557 0.66896 0.0
C1354 C 0.25383 0.72025 0.67532 0.0
C1355 C 0.28938 0.76878 0.67337 0.0
C1356 C 0.29378 0.8026 0.66666 0.0
C1357 C 0.25758 0.75467 0.67231 0.0
C1358 C 0.26565 0.82308 0.66262 0.0
C1359 C 0.23369 0.80932 0.66218 0.0
loop_
_geom_bond_atom_site_label_1
_geom_bond_atom_site_label_2
_geom_bond_distance
_geom_bond_site_symmetry_2
_ccdc_geom_bond_type
O0 Tb1 2.292 . S
O0 C3 1.255 . S
Tb1 O0 2.292 . S
Tb1 O17 2.326 . S
Tb1 O19 2.500 . S
Tb1 O20 2.473 . S
Tb1 O23 2.324 . S
Eu2 O6 2.292 . S
Eu2 C7 2.852 . S
Eu2 O18 2.324 . S
Eu2 O22 2.326 . S
Eu2 O24 2.474 1_545 S
Eu2 O25 2.473 . S
C3 O0 1.255 . S
C3 O4 1.247 . S
O4 C3 1.247 . S
C5 O17 1.242 . S
C5 O18 1.258 . S
O6 Eu2 2.292 . S
O6 C8 1.255 . S
C7 Eu2 2.852 . S
C7 C11 1.503 1_545 S
C7 O24 1.258 1_545 S
C7 O25 1.257 . S
C8 O6 1.255 . S
C8 O9 1.247 . S
O9 C8 1.247 . S
C10 O22 1.242 . S
C10 O23 1.258 . S
C11 C7 1.503 1_565 S
C11 C12 1.379 1_565 S
C11 C16 1.392 . S
C12 C11 1.379 1_545 S
C12 C13 1.412 . S
C12 H26 0.929 . S
C13 C12 1.412 . S
C13 C14 1.371 1_545 S
C14 C13 1.371 1_565 S
C14 C15 1.399 . S
C14 H27 0.931 . S
C15 C14 1.399 . S
C15 C16 1.390 . S
C16 C11 1.392 . S
C16 C15 1.390 . S
C16 H28 0.929 . S
O17 Tb1 2.326 . S
O17 C5 1.242 . S
O18 Eu2 2.324 . S
O18 C5 1.258 . S
O19 Tb1 2.500 . S
O19 C21 1.273 . S
O20 Tb1 2.473 . S
O20 C21 1.257 . S
C21 O19 1.273 . S
C21 O20 1.257 . S
O22 Eu2 2.326 . S
O22 C10 1.242 . S
O23 Tb1 2.324 . S
O23 C10 1.258 . S
O24 Eu2 2.474 1_565 S
O24 C7 1.258 1_565 S
O25 Eu2 2.473 . S
O25 C7 1.257 . S
H26 C12 0.929 . S
H27 C14 0.931 . S
H28 C16 0.929 . S
O29 Tb30 2.292 . S
O29 C32 1.255 . S
Tb30 O29 2.292 . S
Tb30 O46 2.326 . S
Tb30 O48 2.500 . S
Tb30 O49 2.473 . S
Tb30 O52 2.324 . S
Eu31 O35 2.292 . S
Eu31 C36 2.852 . S
Eu31 O47 2.324 . S
Eu31 O51 2.326 . S
Eu31 O53 2.500 . S
Eu31 O54 2.473 . S
C32 O29 1.255 . S
C32 O33 1.247 . S
O33 C32 1.247 . S
C34 O46 1.242 . S
C34 O47 1.258 . S
O35 Eu31 2.292 . S
O35 C37 1.255 . S
C36 Eu31 2.852 . S
C36 C40 1.503 . S
C36 O53 1.273 . S
C36 O54 1.257 . S
C37 O35 1.255 . S
C37 O38 1.247 . S
O38 C37 1.247 . S
C39 O51 1.242 . S
C39 O52 1.258 . S
C40 C36 1.503 . S
C40 C41 1.379 . S
C40 C45 1.392 . S
C41 C40 1.379 . S
C41 C42 1.404 . S
C41 H55 0.929 . S
C42 C41 1.404 . S
C42 C43 1.389 . S
C43 C42 1.389 . S
C43 C44 1.399 . S
C43 H56 0.931 . S
C44 C43 1.399 . S
C44 C45 1.390 . S
C45 C40 1.392 . S
C45 C44 1.390 . S
C45 H57 0.929 . S
O46 Tb30 2.326 . S
O46 C34 1.242 . S
O47 Eu31 2.324 . S
O47 C34 1.258 . S
O48 Tb30 2.500 . S
O48 C50 1.273 . S
O49 Tb30 2.473 . S
O49 C50 1.257 . S
C50 O48 1.273 . S
C50 O49 1.257 . S
O51 Eu31 2.326 . S
O51 C39 1.242 . S
O52 Tb30 2.324 . S
O52 C39 1.258 . S
O53 Eu31 2.500 . S
O53 C36 1.273 . S
O54 Eu31 2.473 . S
O54 C36 1.257 . S
H55 C41 0.929 . S
H56 C43 0.931 . S
H57 C45 0.929 . S
O58 Tb59 2.292 . S
O58 C61 1.255 . S
Tb59 O58 2.292 . S
Tb59 O75 2.326 . S
Tb59 O77 2.500 . S
Tb59 O78 2.473 . S
Tb59 O81 2.324 . S
Eu60 O64 2.292 . S
Eu60 C65 2.852 . S
Eu60 O76 2.324 . S
Eu60 O80 2.326 . S
Eu60 O82 2.500 . S
Eu60 O83 2.473 . S
C61 O58 1.255 . S
C61 O62 1.247 . S
O62 C61 1.247 . S
C63 O75 1.242 . S
C63 O76 1.258 . S
O64 Eu60 2.292 . S
O64 C66 1.255 . S
C65 Eu60 2.852 . S
C65 C69 1.503 . S
C65 O82 1.273 . S
C65 O83 1.257 . S
C66 O64 1.255 . S
C66 O67 1.247 . S
O67 C66 1.247 . S
C68 O80 1.242 . S
C68 O81 1.258 . S
C69 C65 1.503 . S
C69 C70 1.379 . S
C69 C74 1.392 . S
C70 C69 1.379 . S
C70 C71 1.404 . S
C70 H84 0.929 . S
C71 C70 1.404 . S
C71 C72 1.389 . S
C72 C71 1.389 . S
C72 C73 1.399 . S
C72 H85 0.931 . S
C73 C72 1.399 . S
C73 C74 1.390 . S
C74 C69 1.392 . S
C74 C73 1.390 . S
C74 H86 0.929 . S
O75 Tb59 2.326 . S
O75 C63 1.242 . S
O76 Eu60 2.324 . S
O76 C63 1.258 . S
O77 Tb59 2.500 . S
O77 C79 1.273 . S
O78 Tb59 2.473 . S
O78 C79 1.257 . S
C79 O77 1.273 . S
C79 O78 1.257 . S
O80 Eu60 2.326 . S
O80 C68 1.242 . S
O81 Tb59 2.324 . S
O81 C68 1.258 . S
O82 Eu60 2.500 . S
O82 C65 1.273 . S
O83 Eu60 2.473 . S
O83 C65 1.257 . S
H84 C70 0.929 . S
H85 C72 0.931 . S
H86 C74 0.929 . S
O87 Tb88 2.292 . S
O87 C90 1.255 . S
Tb88 O87 2.292 . S
Tb88 O104 2.326 . S
Tb88 O106 2.500 . S
Tb88 O107 2.473 . S
Tb88 O110 2.324 . S
Eu89 O93 2.292 . S
Eu89 C94 2.852 . S
Eu89 O105 2.324 . S
Eu89 O109 2.326 . S
Eu89 O111 2.474 1_455 S
Eu89 O112 2.473 . S
C90 O87 1.255 . S
C90 O91 1.247 . S
O91 C90 1.247 . S
C92 O104 1.242 . S
C92 O105 1.258 . S
O93 Eu89 2.292 . S
O93 C95 1.255 . S
C94 Eu89 2.852 . S
C94 C98 1.503 1_455 S
C94 O111 1.258 1_455 S
C94 O112 1.257 . S
C95 O93 1.255 . S
C95 O96 1.247 . S
O96 C95 1.247 . S
C97 O109 1.242 . S
C97 O110 1.258 . S
C98 C94 1.503 1_655 S
C98 C99 1.379 1_655 S
C98 C103 1.392 . S
C99 C98 1.379 1_455 S
C99 C100 1.412 . S
C99 H113 0.929 . S
C100 C99 1.412 . S
C100 C101 1.371 1_455 S
C101 C100 1.371 1_655 S
C101 C102 1.399 . S
C101 H114 0.931 . S
C102 C101 1.399 . S
C102 C103 1.390 . S
C103 C98 1.392 . S
C103 C102 1.390 . S
C103 H115 0.929 . S
O104 Tb88 2.326 . S
O104 C92 1.242 . S
O105 Eu89 2.324 . S
O105 C92 1.258 . S
O106 Tb88 2.500 . S
O106 C108 1.273 . S
O107 Tb88 2.473 . S
O107 C108 1.257 . S
C108 O106 1.273 . S
C108 O107 1.257 . S
O109 Eu89 2.326 . S
O109 C97 1.242 . S
O110 Tb88 2.324 . S
O110 C97 1.258 . S
O111 Eu89 2.474 1_655 S
O111 C94 1.258 1_655 S
O112 Eu89 2.473 . S
O112 C94 1.257 . S
H113 C99 0.929 . S
H114 C101 0.931 . S
H115 C103 0.929 . S
O116 Tb117 2.292 . S
O116 C119 1.255 . S
Tb117 O116 2.292 . S
Tb117 O133 2.326 . S
Tb117 O135 2.500 . S
Tb117 O136 2.473 . S
Tb117 O139 2.324 . S
Eu118 O122 2.292 . S
Eu118 C123 2.852 . S
Eu118 O134 2.324 . S
Eu118 O138 2.326 . S
Eu118 O140 2.474 1_565 S
Eu118 O141 2.473 . S
C119 O116 1.255 . S
C119 O120 1.247 . S
O120 C119 1.247 . S
C121 O133 1.242 . S
C121 O134 1.258 . S
O122 Eu118 2.292 . S
O122 C124 1.255 . S
C123 Eu118 2.852 . S
C123 C127 1.503 1_565 S
C123 O140 1.258 1_565 S
C123 O141 1.257 . S
C124 O122 1.255 . S
C124 O125 1.247 . S
O125 C124 1.247 . S
C126 O138 1.242 . S
C126 O139 1.258 . S
C127 C123 1.503 1_545 S
C127 C128 1.379 1_545 S
C127 C132 1.392 . S
C128 C127 1.379 1_565 S
C128 C129 1.412 . S
C128 H142 0.929 . S
C129 C128 1.412 . S
C129 C130 1.371 1_565 S
C130 C129 1.371 1_545 S
C130 C131 1.399 . S
C130 H143 0.931 . S
C131 C130 1.399 . S
C131 C132 1.390 . S
C132 C127 1.392 . S
C132 C131 1.390 . S
C132 H144 0.929 . S
O133 Tb117 2.326 . S
O133 C121 1.242 . S
O134 Eu118 2.324 . S
O134 C121 1.258 . S
O135 Tb117 2.500 . S
O135 C137 1.273 . S
O136 Tb117 2.473 . S
O136 C137 1.257 . S
C137 O135 1.273 . S
C137 O136 1.257 . S
O138 Eu118 2.326 . S
O138 C126 1.242 . S
O139 Tb117 2.324 . S
O139 C126 1.258 . S
O140 Eu118 2.474 1_545 S
O140 C123 1.258 1_545 S
O141 Eu118 2.473 . S
O141 C123 1.257 . S
H142 C128 0.929 . S
H143 C130 0.931 . S
H144 C132 0.929 . S
O145 Tb146 2.292 . S
O145 C148 1.255 . S
Tb146 O145 2.292 . S
Tb146 O162 2.326 . S
Tb146 O164 2.500 . S
Tb146 O165 2.473 . S
Tb146 O168 2.324 . S
Eu147 O151 2.292 . S
Eu147 C152 2.852 . S
Eu147 O163 2.324 . S
Eu147 O167 2.326 . S
Eu147 O169 2.500 . S
Eu147 O170 2.473 . S
C148 O145 1.255 . S
C148 O149 1.247 . S
O149 C148 1.247 . S
C150 O162 1.242 . S
C150 O163 1.258 . S
O151 Eu147 2.292 . S
O151 C153 1.255 . S
C152 Eu147 2.852 . S
C152 C156 1.503 . S
C152 O169 1.273 . S
C152 O170 1.257 . S
C153 O151 1.255 . S
C153 O154 1.247 . S
O154 C153 1.247 . S
C155 O167 1.242 . S
C155 O168 1.258 . S
C156 C152 1.503 . S
C156 C157 1.379 . S
C156 C161 1.392 . S
C157 C156 1.379 . S
C157 C158 1.404 . S
C157 H171 0.929 . S
C158 C157 1.404 . S
C158 C159 1.389 . S
C159 C158 1.389 . S
C159 C160 1.399 . S
C159 H172 0.931 . S
C160 C159 1.399 . S
C160 C161 1.390 . S
C161 C156 1.392 . S
C161 C160 1.390 . S
C161 H173 0.929 . S
O162 Tb146 2.326 . S
O162 C150 1.242 . S
O163 Eu147 2.324 . S
O163 C150 1.258 . S
O164 Tb146 2.500 . S
O164 C166 1.273 . S
O165 Tb146 2.473 . S
O165 C166 1.257 . S
C166 O164 1.273 . S
C166 O165 1.257 . S
O167 Eu147 2.326 . S
O167 C155 1.242 . S
O168 Tb146 2.324 . S
O168 C155 1.258 . S
O169 Eu147 2.500 . S
O169 C152 1.273 . S
O170 Eu147 2.473 . S
O170 C152 1.257 . S
H171 C157 0.929 . S
H172 C159 0.931 . S
H173 C161 0.929 . S
O174 Tb175 2.292 . S
O174 C177 1.255 . S
Tb175 O174 2.292 . S
Tb175 O191 2.326 . S
Tb175 O193 2.500 . S
Tb175 O194 2.473 . S
Tb175 O197 2.324 . S
Eu176 O180 2.292 . S
Eu176 C181 2.852 . S
Eu176 O192 2.324 . S
Eu176 O196 2.326 . S
Eu176 O198 2.500 . S
Eu176 O199 2.473 . S
C177 O174 1.255 . S
C177 O178 1.247 . S
O178 C177 1.247 . S
C179 O191 1.242 . S
C179 O192 1.258 . S
O180 Eu176 2.292 . S
O180 C182 1.255 . S
C181 Eu176 2.852 . S
C181 C185 1.503 . S
C181 O198 1.273 . S
C181 O199 1.257 . S
C182 O180 1.255 . S
C182 O183 1.247 . S
O183 C182 1.247 . S
C184 O196 1.242 . S
C184 O197 1.258 . S
C185 C181 1.503 . S
C185 C186 1.379 . S
C185 C190 1.392 . S
C186 C185 1.379 . S
C186 C187 1.404 . S
C186 H200 0.929 . S
C187 C186 1.404 . S
C187 C188 1.389 . S
C188 C187 1.389 . S
C188 C189 1.399 . S
C188 H201 0.931 . S
C189 C188 1.399 . S
C189 C190 1.390 . S
C190 C185 1.392 . S
C190 C189 1.390 . S
C190 H202 0.929 . S
O191 Tb175 2.326 . S
O191 C179 1.242 . S
O192 Eu176 2.324 . S
O192 C179 1.258 . S
O193 Tb175 2.500 . S
O193 C195 1.273 . S
O194 Tb175 2.473 . S
O194 C195 1.257 . S
C195 O193 1.273 . S
C195 O194 1.257 . S
O196 Eu176 2.326 . S
O196 C184 1.242 . S
O197 Tb175 2.324 . S
O197 C184 1.258 . S
O198 Eu176 2.500 . S
O198 C181 1.273 . S
O199 Eu176 2.473 . S
O199 C181 1.257 . S
H200 C186 0.929 . S
H201 C188 0.931 . S
H202 C190 0.929 . S
O203 Tb204 2.292 . S
O203 C206 1.255 . S
Tb204 O203 2.292 . S
Tb204 O220 2.326 . S
Tb204 O222 2.500 . S
Tb204 O223 2.473 . S
Tb204 O226 2.324 . S
Eu205 O209 2.292 . S
Eu205 C210 2.852 . S
Eu205 O221 2.324 . S
Eu205 O225 2.326 . S
Eu205 O227 2.474 1_655 S
Eu205 O228 2.473 . S
C206 O203 1.255 . S
C206 O207 1.247 . S
O207 C206 1.247 . S
C208 O220 1.242 . S
C208 O221 1.258 . S
O209 Eu205 2.292 . S
O209 C211 1.255 . S
C210 Eu205 2.852 . S
C210 C214 1.503 1_655 S
C210 O227 1.258 1_655 S
C210 O228 1.257 . S
C211 O209 1.255 . S
C211 O212 1.247 . S
O212 C211 1.247 . S
C213 O225 1.242 . S
C213 O226 1.258 . S
C214 C210 1.503 1_455 S
C214 C215 1.379 1_455 S
C214 C219 1.392 . S
C215 C214 1.379 1_655 S
C215 C216 1.412 . S
C215 H229 0.929 . S
C216 C215 1.412 . S
C216 C217 1.371 1_655 S
C217 C216 1.371 1_455 S
C217 C218 1.399 . S
C217 H230 0.931 . S
C218 C217 1.399 . S
C218 C219 1.390 . S
C219 C214 1.392 . S
C219 C218 1.390 . S
C219 H231 0.929 . S
O220 Tb204 2.326 . S
O220 C208 1.242 . S
O221 Eu205 2.324 . S
O221 C208 1.258 . S
O222 Tb204 2.500 . S
O222 C224 1.273 . S
O223 Tb204 2.473 . S
O223 C224 1.257 . S
C224 O222 1.273 . S
C224 O223 1.257 . S
O225 Eu205 2.326 . S
O225 C213 1.242 . S
O226 Tb204 2.324 . S
O226 C213 1.258 . S
O227 Eu205 2.474 1_455 S
O227 C210 1.258 1_455 S
O228 Eu205 2.473 . S
O228 C210 1.257 . S
H229 C215 0.929 . S
H230 C217 0.931 . S
H231 C219 0.929 . S
O232 Tb233 2.292 . S
O232 C235 1.255 . S
Tb233 O232 2.292 . S
Tb233 O249 2.326 . S
Tb233 O251 2.500 . S
Tb233 O252 2.473 . S
Tb233 O255 2.324 . S
Eu234 O238 2.292 . S
Eu234 C239 2.852 . S
Eu234 O250 2.324 . S
Eu234 O254 2.326 . S
Eu234 O256 2.474 1_565 S
Eu234 O257 2.473 . S
C235 O232 1.255 . S
C235 O236 1.247 . S
O236 C235 1.247 . S
C237 O249 1.242 . S
C237 O250 1.258 . S
O238 Eu234 2.292 . S
O238 C240 1.255 . S
C239 Eu234 2.852 . S
C239 C243 1.503 1_565 S
C239 O256 1.258 1_565 S
C239 O257 1.257 . S
C240 O238 1.255 . S
C240 O241 1.247 . S
O241 C240 1.247 . S
C242 O254 1.242 . S
C242 O255 1.258 . S
C243 C239 1.503 1_545 S
C243 C244 1.379 1_545 S
C243 C248 1.392 . S
C244 C243 1.379 1_565 S
C244 C245 1.412 . S
C244 H258 0.929 . S
C245 C244 1.412 . S
C245 C246 1.371 1_565 S
C246 C245 1.371 1_545 S
C246 C247 1.399 . S
C246 H259 0.931 . S
C247 C246 1.399 . S
C247 C248 1.390 . S
C248 C243 1.392 . S
C248 C247 1.390 . S
C248 H260 0.929 . S
O249 Tb233 2.326 . S
O249 C237 1.242 . S
O250 Eu234 2.324 . S
O250 C237 1.258 . S
O251 Tb233 2.500 . S
O251 C253 1.273 . S
O252 Tb233 2.473 . S
O252 C253 1.257 . S
C253 O251 1.273 . S
C253 O252 1.257 . S
O254 Eu234 2.326 . S
O254 C242 1.242 . S
O255 Tb233 2.324 . S
O255 C242 1.258 . S
O256 Eu234 2.474 1_545 S
O256 C239 1.258 1_545 S
O257 Eu234 2.473 . S
O257 C239 1.257 . S
H258 C244 0.929 . S
H259 C246 0.931 . S
H260 C248 0.929 . S
O261 Tb262 2.292 . S
O261 C264 1.255 . S
Tb262 O261 2.292 . S
Tb262 O278 2.326 . S
Tb262 O280 2.500 . S
Tb262 O281 2.473 . S
Tb262 O284 2.324 . S
Eu263 O267 2.292 . S
Eu263 C268 2.852 . S
Eu263 O279 2.324 . S
Eu263 O283 2.326 . S
Eu263 O285 2.500 . S
Eu263 O286 2.473 . S
C264 O261 1.255 . S
C264 O265 1.247 . S
O265 C264 1.247 . S
C266 O278 1.242 . S
C266 O279 1.258 . S
O267 Eu263 2.292 . S
O267 C269 1.255 . S
C268 Eu263 2.852 . S
C268 C272 1.503 . S
C268 O285 1.273 . S
C268 O286 1.257 . S
C269 O267 1.255 . S
C269 O270 1.247 . S
O270 C269 1.247 . S
C271 O283 1.242 . S
C271 O284 1.258 . S
C272 C268 1.503 . S
C272 C273 1.379 . S
C272 C277 1.392 . S
C273 C272 1.379 . S
C273 C274 1.404 . S
C273 H287 0.929 . S
C274 C273 1.404 . S
C274 C275 1.389 . S
C275 C274 1.389 . S
C275 C276 1.399 . S
C275 H288 0.931 . S
C276 C275 1.399 . S
C276 C277 1.390 . S
C277 C272 1.392 . S
C277 C276 1.390 . S
C277 H289 0.929 . S
O278 Tb262 2.326 . S
O278 C266 1.242 . S
O279 Eu263 2.324 . S
O279 C266 1.258 . S
O280 Tb262 2.500 . S
O280 C282 1.273 . S
O281 Tb262 2.473 . S
O281 C282 1.257 . S
C282 O280 1.273 . S
C282 O281 1.257 . S
O283 Eu263 2.326 . S
O283 C271 1.242 . S
O284 Tb262 2.324 . S
O284 C271 1.258 . S
O285 Eu263 2.500 . S
O285 C268 1.273 . S
O286 Eu263 2.473 . S
O286 C268 1.257 . S
H287 C273 0.929 . S
H288 C275 0.931 . S
H289 C277 0.929 . S
O290 Tb291 2.292 . S
O290 C293 1.255 . S
Tb291 O290 2.292 . S
Tb291 O307 2.326 . S
Tb291 O309 2.500 . S
Tb291 O310 2.473 . S
Tb291 O313 2.324 . S
Eu292 O296 2.292 . S
Eu292 C297 2.852 . S
Eu292 O308 2.324 . S
Eu292 O312 2.326 . S
Eu292 O314 2.500 . S
Eu292 O315 2.473 . S
C293 O290 1.255 . S
C293 O294 1.247 . S
O294 C293 1.247 . S
C295 O307 1.242 . S
C295 O308 1.258 . S
O296 Eu292 2.292 . S
O296 C298 1.255 . S
C297 Eu292 2.852 . S
C297 C301 1.503 . S
C297 O314 1.273 . S
C297 O315 1.257 . S
C298 O296 1.255 . S
C298 O299 1.247 . S
O299 C298 1.247 . S
C300 O312 1.242 . S
C300 O313 1.258 . S
C301 C297 1.503 . S
C301 C302 1.379 . S
C301 C306 1.392 . S
C302 C301 1.379 . S
C302 C303 1.404 . S
C302 H316 0.929 . S
C303 C302 1.404 . S
C303 C304 1.389 . S
C304 C303 1.389 . S
C304 C305 1.399 . S
C304 H317 0.931 . S
C305 C304 1.399 . S
C305 C306 1.390 . S
C306 C301 1.392 . S
C306 C305 1.390 . S
C306 H318 0.929 . S
O307 Tb291 2.326 . S
O307 C295 1.242 . S
O308 Eu292 2.324 . S
O308 C295 1.258 . S
O309 Tb291 2.500 . S
O309 C311 1.273 . S
O310 Tb291 2.473 . S
O310 C311 1.257 . S
C311 O309 1.273 . S
C311 O310 1.257 . S
O312 Eu292 2.326 . S
O312 C300 1.242 . S
O313 Tb291 2.324 . S
O313 C300 1.258 . S
O314 Eu292 2.500 . S
O314 C297 1.273 . S
O315 Eu292 2.473 . S
O315 C297 1.257 . S
H316 C302 0.929 . S
H317 C304 0.931 . S
H318 C306 0.929 . S
O319 Tb320 2.292 . S
O319 C322 1.255 . S
Tb320 O319 2.292 . S
Tb320 O336 2.326 . S
Tb320 O338 2.500 . S
Tb320 O339 2.473 . S
Tb320 O342 2.324 . S
Eu321 O325 2.292 . S
Eu321 C326 2.852 . S
Eu321 O337 2.324 . S
Eu321 O341 2.326 . S
Eu321 O343 2.474 1_655 S
Eu321 O344 2.473 . S
C322 O319 1.255 . S
C322 O323 1.247 . S
O323 C322 1.247 . S
C324 O336 1.242 . S
C324 O337 1.258 . S
O325 Eu321 2.292 . S
O325 C327 1.255 . S
C326 Eu321 2.852 . S
C326 C330 1.503 1_655 S
C326 O343 1.258 1_655 S
C326 O344 1.257 . S
C327 O325 1.255 . S
C327 O328 1.247 . S
O328 C327 1.247 . S
C329 O341 1.242 . S
C329 O342 1.258 . S
C330 C326 1.503 1_455 S
C330 C331 1.379 1_455 S
C330 C335 1.392 . S
C331 C330 1.379 1_655 S
C331 C332 1.412 . S
C331 H345 0.929 . S
C332 C331 1.412 . S
C332 C333 1.371 1_655 S
C333 C332 1.371 1_455 S
C333 C334 1.399 . S
C333 H346 0.931 . S
C334 C333 1.399 . S
C334 C335 1.390 . S
C335 C330 1.392 . S
C335 C334 1.390 . S
C335 H347 0.929 . S
O336 Tb320 2.326 . S
O336 C324 1.242 . S
O337 Eu321 2.324 . S
O337 C324 1.258 . S
O338 Tb320 2.500 . S
O338 C340 1.273 . S
O339 Tb320 2.473 . S
O339 C340 1.257 . S
C340 O338 1.273 . S
C340 O339 1.257 . S
O341 Eu321 2.326 . S
O341 C329 1.242 . S
O342 Tb320 2.324 . S
O342 C329 1.258 . S
O343 Eu321 2.474 1_455 S
O343 C326 1.258 1_455 S
O344 Eu321 2.473 . S
O344 C326 1.257 . S
H345 C331 0.929 . S
H346 C333 0.931 . S
H347 C335 0.929 . S
O348 Tb349 2.292 . S
O348 C351 1.255 . S
Tb349 O348 2.292 . S
Tb349 O365 2.326 . S
Tb349 O367 2.500 . S
Tb349 O368 2.473 . S
Tb349 O371 2.324 . S
Eu350 O354 2.292 . S
Eu350 C355 2.852 . S
Eu350 O366 2.324 . S
Eu350 O370 2.326 . S
Eu350 O372 2.474 1_545 S
Eu350 O373 2.473 . S
C351 O348 1.255 . S
C351 O352 1.247 . S
O352 C351 1.247 . S
C353 O365 1.242 . S
C353 O366 1.258 . S
O354 Eu350 2.292 . S
O354 C356 1.255 . S
C355 Eu350 2.852 . S
C355 C359 1.503 1_545 S
C355 O372 1.258 1_545 S
C355 O373 1.257 . S
C356 O354 1.255 . S
C356 O357 1.247 . S
O357 C356 1.247 . S
C358 O370 1.242 . S
C358 O371 1.258 . S
C359 C355 1.503 1_565 S
C359 C360 1.379 1_565 S
C359 C364 1.392 . S
C360 C359 1.379 1_545 S
C360 C361 1.412 . S
C360 H374 0.929 . S
C361 C360 1.412 . S
C361 C362 1.371 1_545 S
C362 C361 1.371 1_565 S
C362 C363 1.399 . S
C362 H375 0.931 . S
C363 C362 1.399 . S
C363 C364 1.390 . S
C364 C359 1.392 . S
C364 C363 1.390 . S
C364 H376 0.929 . S
O365 Tb349 2.326 . S
O365 C353 1.242 . S
O366 Eu350 2.324 . S
O366 C353 1.258 . S
O367 Tb349 2.500 . S
O367 C369 1.273 . S
O368 Tb349 2.473 . S
O368 C369 1.257 . S
C369 O367 1.273 . S
C369 O368 1.257 . S
O370 Eu350 2.326 . S
O370 C358 1.242 . S
O371 Tb349 2.324 . S
O371 C358 1.258 . S
O372 Eu350 2.474 1_565 S
O372 C355 1.258 1_565 S
O373 Eu350 2.473 . S
O373 C355 1.257 . S
H374 C360 0.929 . S
H375 C362 0.931 . S
H376 C364 0.929 . S
O377 Tb378 2.292 . S
O377 C380 1.255 . S
Tb378 O377 2.292 . S
Tb378 O394 2.326 . S
Tb378 O396 2.500 . S
Tb378 O397 2.473 . S
Tb378 O400 2.324 . S
Eu379 O383 2.292 . S
Eu379 C384 2.852 . S
Eu379 O395 2.324 . S
Eu379 O399 2.326 . S
Eu379 O401 2.500 . S
Eu379 O402 2.473 . S
C380 O377 1.255 . S
C380 O381 1.247 . S
O381 C380 1.247 . S
C382 O394 1.242 . S
C382 O395 1.258 . S
O383 Eu379 2.292 . S
O383 C385 1.255 . S
C384 Eu379 2.852 . S
C384 C388 1.503 . S
C384 O401 1.273 . S
C384 O402 1.257 . S
C385 O383 1.255 . S
C385 O386 1.247 . S
O386 C385 1.247 . S
C387 O399 1.242 . S
C387 O400 1.258 . S
C388 C384 1.503 . S
C388 C389 1.379 . S
C388 C393 1.392 . S
C389 C388 1.379 . S
C389 C390 1.404 . S
C389 H403 0.929 . S
C390 C389 1.404 . S
C390 C391 1.389 . S
C391 C390 1.389 . S
C391 C392 1.399 . S
C391 H404 0.931 . S
C392 C391 1.399 . S
C392 C393 1.390 . S
C393 C388 1.392 . S
C393 C392 1.390 . S
C393 H405 0.929 . S
O394 Tb378 2.326 . S
O394 C382 1.242 . S
O395 Eu379 2.324 . S
O395 C382 1.258 . S
O396 Tb378 2.500 . S
O396 C398 1.273 . S
O397 Tb378 2.473 . S
O397 C398 1.257 . S
C398 O396 1.273 . S
C398 O397 1.257 . S
O399 Eu379 2.326 . S
O399 C387 1.242 . S
O400 Tb378 2.324 . S
O400 C387 1.258 . S
O401 Eu379 2.500 . S
O401 C384 1.273 . S
O402 Eu379 2.473 . S
O402 C384 1.257 . S
H403 C389 0.929 . S
H404 C391 0.931 . S
H405 C393 0.929 . S
O406 Tb407 2.292 . S
O406 C409 1.255 . S
Tb407 O406 2.292 . S
Tb407 O423 2.326 . S
Tb407 O425 2.500 . S
Tb407 O426 2.473 . S
Tb407 O429 2.324 . S
Eu408 O412 2.292 . S
Eu408 C413 2.852 . S
Eu408 O424 2.324 . S
Eu408 O428 2.326 . S
Eu408 O430 2.500 . S
Eu408 O431 2.473 . S
C409 O406 1.255 . S
C409 O410 1.247 . S
O410 C409 1.247 . S
C411 O423 1.242 . S
C411 O424 1.258 . S
O412 Eu408 2.292 . S
O412 C414 1.255 . S
C413 Eu408 2.852 . S
C413 C417 1.503 . S
C413 O430 1.273 . S
C413 O431 1.257 . S
C414 O412 1.255 . S
C414 O415 1.247 . S
O415 C414 1.247 . S
C416 O428 1.242 . S
C416 O429 1.258 . S
C417 C413 1.503 . S
C417 C418 1.379 . S
C417 C422 1.392 . S
C418 C417 1.379 . S
C418 C419 1.404 . S
C418 H432 0.929 . S
C419 C418 1.404 . S
C419 C420 1.389 . S
C420 C419 1.389 . S
C420 C421 1.399 . S
C420 H433 0.931 . S
C421 C420 1.399 . S
C421 C422 1.390 . S
C422 C417 1.392 . S
C422 C421 1.390 . S
C422 H434 0.929 . S
O423 Tb407 2.326 . S
O423 C411 1.242 . S
O424 Eu408 2.324 . S
O424 C411 1.258 . S
O425 Tb407 2.500 . S
O425 C427 1.273 . S
O426 Tb407 2.473 . S
O426 C427 1.257 . S
C427 O425 1.273 . S
C427 O426 1.257 . S
O428 Eu408 2.326 . S
O428 C416 1.242 . S
O429 Tb407 2.324 . S
O429 C416 1.258 . S
O430 Eu408 2.500 . S
O430 C413 1.273 . S
O431 Eu408 2.473 . S
O431 C413 1.257 . S
H432 C418 0.929 . S
H433 C420 0.931 . S
H434 C422 0.929 . S
O435 Tb436 2.292 . S
O435 C438 1.255 . S
Tb436 O435 2.292 . S
Tb436 O452 2.326 . S
Tb436 O454 2.500 . S
Tb436 O455 2.473 . S
Tb436 O458 2.324 . S
Eu437 O441 2.292 . S
Eu437 C442 2.852 . S
Eu437 O453 2.324 . S
Eu437 O457 2.326 . S
Eu437 O459 2.474 1_455 S
Eu437 O460 2.473 . S
C438 O435 1.255 . S
C438 O439 1.247 . S
O439 C438 1.247 . S
C440 O452 1.242 . S
C440 O453 1.258 . S
O441 Eu437 2.292 . S
O441 C443 1.255 . S
C442 Eu437 2.852 . S
C442 C446 1.503 1_455 S
C442 O459 1.258 1_455 S
C442 O460 1.257 . S
C443 O441 1.255 . S
C443 O444 1.247 . S
O444 C443 1.247 . S
C445 O457 1.242 . S
C445 O458 1.258 . S
C446 C442 1.503 1_655 S
C446 C447 1.379 1_655 S
C446 C451 1.392 . S
C447 C446 1.379 1_455 S
C447 C448 1.412 . S
C447 H461 0.929 . S
C448 C447 1.412 . S
C448 C449 1.371 1_455 S
C449 C448 1.371 1_655 S
C449 C450 1.399 . S
C449 H462 0.931 . S
C450 C449 1.399 . S
C450 C451 1.390 . S
C451 C446 1.392 . S
C451 C450 1.390 . S
C451 H463 0.929 . S
O452 Tb436 2.326 . S
O452 C440 1.242 . S
O453 Eu437 2.324 . S
O453 C440 1.258 . S
O454 Tb436 2.500 . S
O454 C456 1.273 . S
O455 Tb436 2.473 . S
O455 C456 1.257 . S
C456 O454 1.273 . S
C456 O455 1.257 . S
O457 Eu437 2.326 . S
O457 C445 1.242 . S
O458 Tb436 2.324 . S
O458 C445 1.258 . S
O459 Eu437 2.474 1_655 S
O459 C442 1.258 1_655 S
O460 Eu437 2.473 . S
O460 C442 1.257 . S
H461 C447 0.929 . S
H462 C449 0.931 . S
H463 C451 0.929 . S
H464 C470 0.930 . S
H465 C473 0.930 . S
H466 C474 0.930 . S
H467 C475 0.930 . S
H468 C478 0.930 . S
H469 C479 0.930 . S
C470 H464 0.930 . S
C470 C471 1.355 . S
C470 C472 1.415 . S
C471 C470 1.355 . S
C471 C473 1.419 1_565 S
C472 C470 1.415 . S
C472 C477 1.425 1_566 S
C472 C479 1.409 . S
C473 H465 0.930 . S
C473 C471 1.419 1_545 S
C473 C474 1.363 1_556 S
C474 H466 0.930 . S
C474 C473 1.363 1_554 S
C474 C477 1.409 . S
C475 H467 0.930 . S
C475 C476 1.355 . S
C475 C477 1.415 . S
C476 C475 1.355 . S
C476 C478 1.419 1_545 S
C477 C472 1.425 1_544 S
C477 C474 1.409 . S
C477 C475 1.415 . S
C478 H468 0.930 . S
C478 C476 1.419 1_565 S
C478 C479 1.363 1_554 S
C479 H469 0.930 . S
C479 C472 1.409 . S
C479 C478 1.363 1_556 S
H480 C486 0.930 . S
H481 C489 0.930 . S
H482 C490 0.930 . S
H483 C491 0.930 . S
H484 C494 0.930 . S
H485 C495 0.930 . S
C486 H480 0.930 . S
C486 C487 1.355 . S
C486 C488 1.415 1_554 S
C487 C486 1.355 . S
C487 C489 1.419 . S
C488 C486 1.415 1_556 S
C488 C493 1.425 1_556 S
C488 C495 1.409 . S
C489 H481 0.930 . S
C489 C487 1.419 . S
C489 C490 1.362 . S
C490 H482 0.930 . S
C490 C489 1.362 . S
C490 C493 1.409 . S
C491 H483 0.930 . S
C491 C492 1.355 . S
C491 C493 1.415 1_556 S
C492 C491 1.355 . S
C492 C494 1.419 . S
C493 C488 1.425 1_554 S
C493 C490 1.409 . S
C493 C491 1.415 1_554 S
C494 H484 0.930 . S
C494 C492 1.419 . S
C494 C495 1.362 . S
C495 H485 0.930 . S
C495 C488 1.409 . S
C495 C494 1.362 . S
H496 C502 0.930 1_655 S
H497 C505 0.930 . S
H498 C506 0.930 . S
H499 C507 0.930 1_455 S
H500 C510 0.930 . S
H501 C511 0.930 . S
C502 H496 0.930 1_455 S
C502 C503 1.355 . S
C502 C504 1.415 1_455 S
C503 C502 1.355 . S
C503 C505 1.419 . S
C504 C502 1.415 1_655 S
C504 C509 1.425 1_656 S
C504 C511 1.409 . S
C505 H497 0.930 . S
C505 C503 1.419 . S
C505 C506 1.362 1_556 S
C506 H498 0.930 . S
C506 C505 1.362 1_554 S
C506 C509 1.409 . S
C507 H499 0.930 1_655 S
C507 C508 1.355 . S
C507 C509 1.415 1_655 S
C508 C507 1.355 . S
C508 C510 1.419 . S
C509 C504 1.425 1_454 S
C509 C506 1.409 . S
C509 C507 1.415 1_455 S
C510 H500 0.930 . S
C510 C508 1.419 . S
C510 C511 1.362 1_554 S
C511 H501 0.930 . S
C511 C504 1.409 . S
C511 C510 1.362 1_556 S
H512 C518 0.930 . S
H513 C521 0.930 . S
H514 C522 0.930 . S
H515 C523 0.930 . S
H516 C526 0.930 . S
H517 C527 0.930 . S
C518 H512 0.930 . S
C518 C519 1.355 1_655 S
C518 C520 1.408 1_554 S
C519 C518 1.355 1_455 S
C519 C521 1.419 . S
C520 C518 1.408 1_556 S
C520 C525 1.425 1_666 S
C520 C527 1.416 . S
C521 H513 0.930 . S
C521 C519 1.419 . S
C521 C522 1.362 1_565 S
C522 H514 0.930 . S
C522 C521 1.362 1_545 S
C522 C525 1.416 . S
C523 H515 0.930 . S
C523 C524 1.355 1_455 S
C523 C525 1.408 1_556 S
C524 C523 1.355 1_655 S
C524 C526 1.419 . S
C525 C520 1.425 1_444 S
C525 C522 1.416 . S
C525 C523 1.408 1_554 S
C526 H516 0.930 . S
C526 C524 1.419 . S
C526 C527 1.362 1_545 S
C527 H517 0.930 . S
C527 C520 1.416 . S
C527 C526 1.362 1_565 S
H528 C534 0.930 . S
H529 C537 0.930 . S
H530 C538 0.930 . S
H531 C539 0.930 . S
H532 C542 0.930 . S
H533 C543 0.930 . S
C534 H528 0.930 . S
C534 C535 1.355 . S
C534 C536 1.415 . S
C535 C534 1.355 . S
C535 C537 1.419 1_565 S
C536 C534 1.415 . S
C536 C541 1.425 1_465 S
C536 C543 1.409 . S
C537 H529 0.930 . S
C537 C535 1.419 1_545 S
C537 C538 1.362 1_455 S
C538 H530 0.930 . S
C538 C537 1.362 1_655 S
C538 C541 1.409 . S
C539 H531 0.930 . S
C539 C540 1.355 . S
C539 C541 1.415 . S
C540 C539 1.355 . S
C540 C542 1.419 1_545 S
C541 C536 1.425 1_645 S
C541 C538 1.409 . S
C541 C539 1.415 . S
C542 H532 0.930 . S
C542 C540 1.419 1_565 S
C542 C543 1.362 1_655 S
C543 H533 0.930 . S
C543 C536 1.409 . S
C543 C542 1.362 1_455 S
H544 C550 0.930 . S
H545 C553 0.928 1_565 S
H546 C554 0.930 . S
H547 C555 0.930 . S
H548 C558 0.928 1_545 S
H549 C559 0.930 . S
C550 H544 0.930 . S
C550 C551 1.355 . S
C550 C552 1.415 . S
C551 C550 1.355 . S
C551 C553 1.419 . S
C552 C550 1.415 . S
C552 C557 1.425 1_545 S
C552 C559 1.409 . S
C553 H545 0.928 1_545 S
C553 C551 1.419 . S
C553 C554 1.362 1_545 S
C554 H546 0.930 . S
C554 C553 1.362 1_565 S
C554 C557 1.409 . S
C555 H547 0.930 . S
C555 C556 1.355 . S
C555 C557 1.415 . S
C556 C555 1.355 . S
C556 C558 1.419 . S
C557 C552 1.425 1_565 S
C557 C554 1.409 . S
C557 C555 1.415 . S
C558 H548 0.928 1_565 S
C558 C556 1.419 . S
C558 C559 1.362 1_565 S
C559 H549 0.930 . S
C559 C552 1.409 . S
C559 C558 1.362 1_545 S
H560 C566 0.930 . S
H561 C569 0.930 . S
H562 C570 0.930 . S
H563 C571 0.930 . S
H564 C574 0.930 . S
H565 C575 0.930 . S
C566 H560 0.930 . S
C566 C567 1.355 . S
C566 C568 1.415 . S
C567 C566 1.355 . S
C567 C569 1.419 . S
C568 C566 1.415 . S
C568 C573 1.425 . S
C568 C575 1.409 . S
C569 H561 0.930 . S
C569 C567 1.419 . S
C569 C570 1.362 . S
C570 H562 0.930 . S
C570 C569 1.362 . S
C570 C573 1.409 . S
C571 H563 0.930 . S
C571 C572 1.355 . S
C571 C573 1.415 . S
C572 C571 1.355 . S
C572 C574 1.419 . S
C573 C568 1.425 . S
C573 C570 1.409 . S
C573 C571 1.415 . S
C574 H564 0.930 . S
C574 C572 1.419 . S
C574 C575 1.362 . S
C575 H565 0.930 . S
C575 C568 1.409 . S
C575 C574 1.362 . S
H576 C582 0.930 1_655 S
H577 C585 0.930 . S
H578 C586 0.930 . S
H579 C587 0.930 1_455 S
H580 C590 0.930 . S
H581 C591 0.930 . S
C582 H576 0.930 1_455 S
C582 C583 1.354 . S
C582 C584 1.415 1_455 S
C583 C582 1.354 . S
C583 C585 1.419 . S
C584 C582 1.415 1_655 S
C584 C589 1.425 1_655 S
C584 C591 1.409 . S
C585 H577 0.930 . S
C585 C583 1.419 . S
C585 C586 1.362 . S
C586 H578 0.930 . S
C586 C585 1.362 . S
C586 C589 1.409 . S
C587 H579 0.930 1_655 S
C587 C588 1.354 . S
C587 C589 1.415 1_655 S
C588 C587 1.354 . S
C588 C590 1.419 . S
C589 C584 1.425 1_455 S
C589 C586 1.409 . S
C589 C587 1.415 1_455 S
C590 H580 0.930 . S
C590 C588 1.419 . S
C590 C591 1.362 . S
C591 H581 0.930 . S
C591 C584 1.409 . S
C591 C590 1.362 . S
H592 C598 0.930 . S
H593 C601 0.930 . S
H594 C602 0.930 . S
H595 C603 0.930 . S
H596 C606 0.930 . S
H597 C607 0.930 . S
C598 H592 0.930 . S
C598 C599 1.355 . S
C598 C600 1.415 . S
C599 C598 1.355 . S
C599 C601 1.419 . S
C600 C598 1.415 . S
C600 C605 1.425 . S
C600 C607 1.409 . S
C601 H593 0.930 . S
C601 C599 1.419 . S
C601 C602 1.362 . S
C602 H594 0.930 . S
C602 C601 1.362 . S
C602 C605 1.409 . S
C603 H595 0.930 . S
C603 C604 1.355 . S
C603 C605 1.415 . S
C604 C603 1.355 . S
C604 C606 1.419 . S
C605 C600 1.425 . S
C605 C602 1.409 . S
C605 C603 1.415 . S
C606 H596 0.930 . S
C606 C604 1.419 . S
C606 C607 1.362 . S
C607 H597 0.930 . S
C607 C600 1.409 . S
C607 C606 1.362 . S
H608 C614 0.930 . S
H609 C617 0.930 . S
H610 C618 0.930 . S
H611 C619 0.930 . S
H612 C622 0.930 . S
H613 C623 0.930 . S
C614 H608 0.930 . S
C614 C615 1.355 . S
C614 C616 1.415 . S
C615 C614 1.355 . S
C615 C617 1.419 . S
C616 C614 1.415 . S
C616 C621 1.425 . S
C616 C623 1.409 . S
C617 H609 0.930 . S
C617 C615 1.419 . S
C617 C618 1.362 . S
C618 H610 0.930 . S
C618 C617 1.362 . S
C618 C621 1.409 . S
C619 H611 0.930 . S
C619 C620 1.355 . S
C619 C621 1.415 . S
C620 C619 1.355 . S
C620 C622 1.419 . S
C621 C616 1.425 . S
C621 C618 1.409 . S
C621 C619 1.415 . S
C622 H612 0.930 . S
C622 C620 1.419 . S
C622 C623 1.362 . S
C623 H613 0.930 . S
C623 C616 1.409 . S
C623 C622 1.362 . S
H624 C630 0.930 1_455 S
H625 C633 0.930 . S
H626 C634 0.930 . S
H627 C635 0.930 . S
H628 C638 0.930 . S
H629 C639 0.930 1_455 S
C630 H624 0.930 1_655 S
C630 C631 1.355 . S
C630 C632 1.415 . S
C631 C630 1.355 . S
C631 C633 1.419 . S
C632 C630 1.415 . S
C632 C637 1.425 . S
C632 C639 1.409 . S
C633 H625 0.930 . S
C633 C631 1.419 . S
C633 C634 1.362 . S
C634 H626 0.930 . S
C634 C633 1.362 . S
C634 C637 1.409 . S
C635 H627 0.930 . S
C635 C636 1.355 . S
C635 C637 1.415 . S
C636 C635 1.355 . S
C636 C638 1.419 . S
C637 C632 1.425 . S
C637 C634 1.409 . S
C637 C635 1.415 . S
C638 H628 0.930 . S
C638 C636 1.419 . S
C638 C639 1.362 . S
C639 H629 0.930 1_655 S
C639 C632 1.409 . S
C639 C638 1.362 . S
H640 C646 0.930 . S
H641 C649 0.930 . S
H642 C650 0.930 . S
H643 C651 0.930 . S
H644 C654 0.930 . S
H645 C655 0.930 . S
C646 H640 0.930 . S
C646 C647 1.355 . S
C646 C648 1.415 . S
C647 C646 1.355 . S
C647 C649 1.419 1_565 S
C648 C646 1.415 . S
C648 C653 1.425 . S
C648 C655 1.409 . S
C649 H641 0.930 . S
C649 C647 1.419 1_545 S
C649 C650 1.362 . S
C650 H642 0.930 . S
C650 C649 1.362 . S
C650 C653 1.409 1_545 S
C651 H643 0.930 . S
C651 C652 1.355 . S
C651 C653 1.415 . S
C652 C651 1.355 . S
C652 C654 1.419 . S
C653 C648 1.425 . S
C653 C650 1.409 1_565 S
C653 C651 1.415 . S
C654 H644 0.930 . S
C654 C652 1.419 . S
C654 C655 1.362 . S
C655 H645 0.930 . S
C655 C648 1.409 . S
C655 C654 1.362 . S
H656 C662 0.930 . S
H657 C665 0.930 . S
H658 C666 0.930 . S
H659 C667 0.930 . S
H660 C670 0.930 . S
H661 C671 0.930 1_655 S
C662 H656 0.930 . S
C662 C663 1.355 1_655 S
C662 C664 1.415 1_655 S
C663 C662 1.355 1_455 S
C663 C665 1.419 . S
C664 C662 1.415 1_455 S
C664 C669 1.425 . S
C664 C671 1.409 . S
C665 H657 0.930 . S
C665 C663 1.419 . S
C665 C666 1.362 . S
C666 H658 0.930 . S
C666 C665 1.362 . S
C666 C669 1.409 . S
C667 H659 0.930 . S
C667 C668 1.355 . S
C667 C669 1.415 . S
C668 C667 1.355 . S
C668 C670 1.419 . S
C669 C664 1.425 . S
C669 C666 1.409 . S
C669 C667 1.415 . S
C670 H660 0.930 . S
C670 C668 1.419 . S
C670 C671 1.362 . S
C671 H661 0.930 1_455 S
C671 C664 1.409 . S
C671 C670 1.362 . S
H672 C678 0.930 . S
H673 C681 0.930 1_565 S
H674 C682 0.930 . S
H675 C683 0.930 . S
H676 C686 0.930 . S
H677 C687 0.930 . S
C678 H672 0.930 . S
C678 C679 1.355 . S
C678 C680 1.415 . S
C679 C678 1.355 . S
C679 C681 1.419 . S
C680 C678 1.415 . S
C680 C685 1.425 . S
C680 C687 1.409 . S
C681 H673 0.930 1_545 S
C681 C679 1.419 . S
C681 C682 1.362 . S
C682 H674 0.930 . S
C682 C681 1.362 . S
C682 C685 1.409 . S
C683 H675 0.930 . S
C683 C684 1.355 . S
C683 C685 1.415 . S
C684 C683 1.355 . S
C684 C686 1.419 . S
C685 C680 1.425 . S
C685 C682 1.409 . S
C685 C683 1.415 . S
C686 H676 0.930 . S
C686 C684 1.419 . S
C686 C687 1.362 . S
C687 H677 0.930 . S
C687 C680 1.409 . S
C687 C686 1.362 . S
H688 C694 0.930 . S
H689 C697 0.930 . S
H690 C698 0.930 . S
H691 C699 0.930 . S
H692 C702 0.930 . S
H693 C703 0.930 . S
C694 H688 0.930 . S
C694 C695 1.355 . S
C694 C696 1.415 . S
C695 C694 1.355 . S
C695 C697 1.419 . S
C696 C694 1.415 . S
C696 C701 1.425 . S
C696 C703 1.409 . S
C697 H689 0.930 . S
C697 C695 1.419 . S
C697 C698 1.362 . S
C698 H690 0.930 . S
C698 C697 1.362 . S
C698 C701 1.409 . S
C699 H691 0.930 . S
C699 C700 1.355 . S
C699 C701 1.415 . S
C700 C699 1.355 . S
C700 C702 1.419 . S
C701 C696 1.425 . S
C701 C698 1.409 . S
C701 C699 1.415 . S
C702 H692 0.930 . S
C702 C700 1.419 . S
C702 C703 1.362 . S
C703 H693 0.930 . S
C703 C696 1.409 . S
C703 C702 1.362 . S
H704 C710 0.930 . S
H705 C713 0.930 . S
H706 C714 0.930 . S
H707 C715 0.930 . S
H708 C718 0.930 . S
H709 C719 0.930 . S
C710 H704 0.930 . S
C710 C711 1.355 . S
C710 C712 1.415 . S
C711 C710 1.355 . S
C711 C713 1.419 . S
C712 C710 1.415 . S
C712 C717 1.425 . S
C712 C719 1.409 . S
C713 H705 0.930 . S
C713 C711 1.419 . S
C713 C714 1.362 . S
C714 H706 0.930 . S
C714 C713 1.362 . S
C714 C717 1.409 . S
C715 H707 0.930 . S
C715 C716 1.355 . S
C715 C717 1.415 . S
C716 C715 1.355 . S
C716 C718 1.419 . S
C717 C712 1.425 . S
C717 C714 1.409 . S
C717 C715 1.415 . S
C718 H708 0.930 . S
C718 C716 1.419 . S
C718 C719 1.362 . S
C719 H709 0.930 . S
C719 C712 1.409 . S
C719 C718 1.362 . S
H720 C726 0.930 . S
H721 C729 0.930 . S
H722 C730 0.930 . S
H723 C731 0.930 . S
H724 C734 0.930 . S
H725 C735 0.930 . S
C726 H720 0.930 . S
C726 C727 1.355 . S
C726 C728 1.415 . S
C727 C726 1.355 . S
C727 C729 1.419 . S
C728 C726 1.415 . S
C728 C733 1.425 . S
C728 C735 1.409 . S
C729 H721 0.930 . S
C729 C727 1.419 . S
C729 C730 1.362 . S
C730 H722 0.930 . S
C730 C729 1.362 . S
C730 C733 1.409 . S
C731 H723 0.930 . S
C731 C732 1.355 . S
C731 C733 1.415 . S
C732 C731 1.355 . S
C732 C734 1.419 . S
C733 C728 1.425 . S
C733 C730 1.409 . S
C733 C731 1.415 . S
C734 H724 0.930 . S
C734 C732 1.419 . S
C734 C735 1.362 . S
C735 H725 0.930 . S
C735 C728 1.409 . S
C735 C734 1.362 . S
H736 C742 0.930 . S
H737 C745 0.930 . S
H738 C746 0.930 . S
H739 C747 0.930 . S
H740 C750 0.930 . S
H741 C751 0.930 . S
C742 H736 0.930 . S
C742 C743 1.355 . S
C742 C744 1.415 . S
C743 C742 1.355 . S
C743 C745 1.419 . S
C744 C742 1.415 . S
C744 C749 1.425 . S
C744 C751 1.409 . S
C745 H737 0.930 . S
C745 C743 1.419 . S
C745 C746 1.362 . S
C746 H738 0.930 . S
C746 C745 1.362 . S
C746 C749 1.409 . S
C747 H739 0.930 . S
C747 C748 1.355 . S
C747 C749 1.415 . S
C748 C747 1.355 . S
C748 C750 1.419 . S
C749 C744 1.425 . S
C749 C746 1.409 . S
C749 C747 1.415 . S
C750 H740 0.930 . S
C750 C748 1.419 . S
C750 C751 1.362 . S
C751 H741 0.930 . S
C751 C744 1.409 . S
C751 C750 1.362 . S
H752 C758 0.930 . S
H753 C761 0.930 . S
H754 C762 0.930 . S
H755 C763 0.930 . S
H756 C766 0.930 . S
H757 C767 0.930 . S
C758 H752 0.930 . S
C758 C759 1.355 . S
C758 C760 1.415 . S
C759 C758 1.355 . S
C759 C761 1.419 1_455 S
C760 C758 1.415 . S
C760 C765 1.425 . S
C760 C767 1.409 . S
C761 H753 0.930 . S
C761 C759 1.419 1_655 S
C761 C762 1.362 . S
C762 H754 0.930 . S
C762 C761 1.362 . S
C762 C765 1.409 1_655 S
C763 H755 0.930 . S
C763 C764 1.355 . S
C763 C765 1.415 . S
C764 C763 1.355 . S
C764 C766 1.419 . S
C765 C760 1.425 . S
C765 C762 1.409 1_455 S
C765 C763 1.415 . S
C766 H756 0.930 . S
C766 C764 1.419 . S
C766 C767 1.362 . S
C767 H757 0.930 . S
C767 C760 1.409 . S
C767 C766 1.362 . S
H768 C774 0.930 1_565 S
H769 C777 0.930 . S
H770 C778 0.930 . S
H771 C779 0.930 . S
H772 C782 0.930 . S
H773 C783 0.930 1_565 S
C774 H768 0.930 1_545 S
C774 C775 1.355 . S
C774 C776 1.415 . S
C775 C774 1.355 . S
C775 C777 1.419 . S
C776 C774 1.415 . S
C776 C781 1.425 . S
C776 C783 1.409 . S
C777 H769 0.930 . S
C777 C775 1.419 . S
C777 C778 1.362 . S
C778 H770 0.930 . S
C778 C777 1.362 . S
C778 C781 1.409 . S
C779 H771 0.930 . S
C779 C780 1.355 . S
C779 C781 1.415 . S
C780 C779 1.355 . S
C780 C782 1.419 . S
C781 C776 1.425 . S
C781 C778 1.409 . S
C781 C779 1.415 . S
C782 H772 0.930 . S
C782 C780 1.419 . S
C782 C783 1.362 . S
C783 H773 0.930 1_545 S
C783 C776 1.409 . S
C783 C782 1.362 . S
H784 C790 0.930 1_455 S
H785 C793 0.930 . S
H786 C794 0.930 . S
H787 C795 0.930 . S
H788 C798 0.930 . S
H789 C799 0.937 . S
C790 H784 0.930 1_655 S
C790 C791 1.355 . S
C790 C792 1.415 . S
C791 C790 1.355 . S
C791 C793 1.419 . S
C792 C790 1.415 . S
C792 C797 1.425 . S
C792 C799 1.409 . S
C793 H785 0.930 . S
C793 C791 1.419 . S
C793 C794 1.362 . S
C794 H786 0.930 . S
C794 C793 1.362 . S
C794 C797 1.409 . S
C795 H787 0.930 . S
C795 C796 1.355 . S
C795 C797 1.415 . S
C796 C795 1.355 . S
C796 C798 1.419 . S
C797 C792 1.425 . S
C797 C794 1.409 . S
C797 C795 1.415 . S
C798 H788 0.930 . S
C798 C796 1.419 . S
C798 C799 1.362 . S
C799 H789 0.937 . S
C799 C792 1.409 . S
C799 C798 1.362 . S
H800 C806 0.930 . S
H801 C809 0.930 . S
H802 C810 0.930 . S
H803 C811 0.930 . S
H804 C814 0.930 . S
H805 C815 0.930 . S
C806 H800 0.930 . S
C806 C807 1.355 . S
C806 C808 1.415 . S
C807 C806 1.355 . S
C807 C809 1.419 1_565 S
C808 C806 1.415 . S
C808 C813 1.425 . S
C808 C815 1.409 . S
C809 H801 0.930 . S
C809 C807 1.419 1_545 S
C809 C810 1.362 . S
C810 H802 0.930 . S
C810 C809 1.362 . S
C810 C813 1.409 1_545 S
C811 H803 0.930 . S
C811 C812 1.355 . S
C811 C813 1.415 . S
C812 C811 1.355 . S
C812 C814 1.419 . S
C813 C808 1.425 . S
C813 C810 1.409 1_565 S
C813 C811 1.415 . S
C814 H804 0.930 . S
C814 C812 1.419 . S
C814 C815 1.362 . S
C815 H805 0.930 . S
C815 C808 1.409 . S
C815 C814 1.362 . S
H816 C822 0.930 . S
H817 C825 0.930 . S
H818 C826 0.930 . S
H819 C827 0.930 . S
H820 C830 0.930 . S
H821 C831 0.930 . S
C822 H816 0.930 . S
C822 C823 1.355 . S
C822 C824 1.415 . S
C823 C822 1.355 . S
C823 C825 1.419 . S
C824 C822 1.415 . S
C824 C829 1.425 . S
C824 C831 1.409 . S
C825 H817 0.930 . S
C825 C823 1.419 . S
C825 C826 1.362 . S
C826 H818 0.930 . S
C826 C825 1.362 . S
C826 C829 1.409 . S
C827 H819 0.930 . S
C827 C828 1.355 . S
C827 C829 1.415 . S
C828 C827 1.355 . S
C828 C830 1.419 . S
C829 C824 1.425 . S
C829 C826 1.409 . S
C829 C827 1.415 . S
C830 H820 0.930 . S
C830 C828 1.419 . S
C830 C831 1.362 . S
C831 H821 0.930 . S
C831 C824 1.409 . S
C831 C830 1.362 . S
H832 C838 0.930 . S
H833 C841 0.930 . S
H834 C842 0.930 . S
H835 C843 0.930 . S
H836 C846 0.930 . S
H837 C847 0.930 . S
C838 H832 0.930 . S
C838 C839 1.355 . S
C838 C840 1.415 . S
C839 C838 1.355 . S
C839 C841 1.419 . S
C840 C838 1.415 . S
C840 C845 1.425 . S
C840 C847 1.409 . S
C841 H833 0.930 . S
C841 C839 1.419 . S
C841 C842 1.362 . S
C842 H834 0.930 . S
C842 C841 1.362 . S
C842 C845 1.409 . S
C843 H835 0.930 . S
C843 C844 1.355 . S
C843 C845 1.415 . S
C844 C843 1.355 . S
C844 C846 1.419 . S
C845 C840 1.425 . S
C845 C842 1.409 . S
C845 C843 1.415 . S
C846 H836 0.930 . S
C846 C844 1.419 . S
C846 C847 1.362 . S
C847 H837 0.930 . S
C847 C840 1.409 . S
C847 C846 1.362 . S
H848 C854 0.930 . S
H849 C857 0.930 . S
H850 C858 0.930 . S
H851 C859 0.934 . S
H852 C862 0.930 . S
H853 C863 0.930 . S
C854 H848 0.930 . S
C854 C855 1.355 . S
C854 C856 1.436 . S
C855 C854 1.355 . S
C855 C857 1.419 . S
C856 C854 1.436 . S
C856 C861 1.438 . S
C856 C863 1.377 1_556 S
C857 H849 0.930 . S
C857 C855 1.419 . S
C857 C858 1.362 . S
C858 H850 0.930 . S
C858 C857 1.362 . S
C858 C861 1.409 . S
C859 H851 0.934 . S
C859 C860 1.355 . S
C859 C861 1.415 1_554 S
C860 C859 1.355 . S
C860 C862 1.419 . S
C861 C856 1.438 . S
C861 C858 1.409 . S
C861 C859 1.415 1_556 S
C862 H852 0.930 . S
C862 C860 1.419 . S
C862 C863 1.362 . S
C863 H853 0.930 . S
C863 C856 1.377 1_554 S
C863 C862 1.362 . S
H864 C870 0.930 . S
H865 C873 0.930 . S
H866 C874 0.930 . S
H867 C875 0.930 . S
H868 C878 0.930 1_556 S
H869 C879 0.930 . S
C870 H864 0.930 . S
C870 C871 1.355 . S
C870 C872 1.415 . S
C871 C870 1.355 . S
C871 C873 1.419 . S
C872 C870 1.415 . S
C872 C877 1.425 1_556 S
C872 C879 1.409 . S
C873 H865 0.930 . S
C873 C871 1.419 . S
C873 C874 1.362 1_556 S
C874 H866 0.930 . S
C874 C873 1.362 1_554 S
C874 C877 1.409 . S
C875 H867 0.930 . S
C875 C876 1.355 . S
C875 C877 1.415 . S
C876 C875 1.355 . S
C876 C878 1.419 . S
C877 C872 1.425 1_554 S
C877 C874 1.409 . S
C877 C875 1.415 . S
C878 H868 0.930 1_554 S
C878 C876 1.419 . S
C878 C879 1.362 1_554 S
C879 H869 0.930 . S
C879 C872 1.409 . S
C879 C878 1.362 1_556 S
H880 C886 0.930 . S
H881 C889 0.930 . S
H882 C890 0.930 . S
H883 C891 0.930 . S
H884 C894 0.930 . S
H885 C895 0.930 . S
C886 H880 0.930 . S
C886 C887 1.355 . S
C886 C888 1.415 . S
C887 C886 1.355 . S
C887 C889 1.419 . S
C888 C886 1.415 . S
C888 C893 1.425 . S
C888 C895 1.409 1_556 S
C889 H881 0.930 . S
C889 C887 1.419 . S
C889 C890 1.362 . S
C890 H882 0.930 . S
C890 C889 1.362 . S
C890 C893 1.409 . S
C891 H883 0.930 . S
C891 C892 1.355 . S
C891 C893 1.415 1_554 S
C892 C891 1.355 . S
C892 C894 1.419 . S
C893 C888 1.425 . S
C893 C890 1.409 . S
C893 C891 1.415 1_556 S
C894 H884 0.930 . S
C894 C892 1.419 . S
C894 C895 1.362 . S
C895 H885 0.930 . S
C895 C888 1.409 1_554 S
C895 C894 1.362 . S
H896 C902 0.930 . S
H897 C905 0.930 . S
H898 C906 0.930 . S
H899 C907 0.930 . S
H900 C910 0.930 . S
H901 C911 0.930 . S
C902 H896 0.930 . S
C902 C903 1.355 . S
C902 C904 1.415 . S
C903 C902 1.355 . S
C903 C905 1.419 . S
C904 C902 1.415 . S
C904 C909 1.425 . S
C904 C911 1.409 1_556 S
C905 H897 0.930 . S
C905 C903 1.419 . S
C905 C906 1.362 . S
C906 H898 0.930 . S
C906 C905 1.362 . S
C906 C909 1.409 . S
C907 H899 0.930 . S
C907 C908 1.355 . S
C907 C909 1.415 1_554 S
C908 C907 1.355 . S
C908 C910 1.419 . S
C909 C904 1.425 . S
C909 C906 1.409 . S
C909 C907 1.415 1_556 S
C910 H900 0.930 . S
C910 C908 1.419 . S
C910 C911 1.362 . S
C911 H901 0.930 . S
C911 C904 1.409 1_554 S
C911 C910 1.362 . S
H912 C918 0.930 . S
H913 C921 0.930 . S
H914 C922 0.930 . S
H915 C923 0.930 . S
H916 C926 0.930 . S
H917 C927 0.930 . S
C918 H912 0.930 . S
C918 C919 1.355 . S
C918 C920 1.415 . S
C919 C918 1.355 . S
C919 C921 1.419 . S
C920 C918 1.415 . S
C920 C925 1.425 . S
C920 C927 1.409 . S
C921 H913 0.930 . S
C921 C919 1.419 . S
C921 C922 1.362 . S
C922 H914 0.930 . S
C922 C921 1.362 . S
C922 C925 1.409 . S
C923 H915 0.930 . S
C923 C924 1.355 . S
C923 C925 1.415 . S
C924 C923 1.355 . S
C924 C926 1.419 . S
C925 C920 1.425 . S
C925 C922 1.409 . S
C925 C923 1.415 . S
C926 H916 0.930 . S
C926 C924 1.419 . S
C926 C927 1.362 . S
C927 H917 0.930 . S
C927 C920 1.409 . S
C927 C926 1.362 . S
H928 C934 0.930 . S
H929 C937 0.930 . S
H930 C938 0.930 . S
H931 C939 0.930 . S
H932 C942 0.930 . S
H933 C943 0.930 . S
C934 H928 0.930 . S
C934 C935 1.355 . S
C934 C936 1.415 . S
C935 C934 1.355 . S
C935 C937 1.419 . S
C936 C934 1.415 . S
C936 C941 1.425 . S
C936 C943 1.409 . S
C937 H929 0.930 . S
C937 C935 1.419 . S
C937 C938 1.362 . S
C938 H930 0.930 . S
C938 C937 1.362 . S
C938 C941 1.409 . S
C939 H931 0.930 . S
C939 C940 1.355 . S
C939 C941 1.415 . S
C940 C939 1.355 . S
C940 C942 1.419 . S
C941 C936 1.425 . S
C941 C938 1.409 . S
C941 C939 1.415 . S
C942 H932 0.930 . S
C942 C940 1.419 . S
C942 C943 1.362 . S
C943 H933 0.930 . S
C943 C936 1.409 . S
C943 C942 1.362 . S
H944 C950 0.930 . S
H945 C953 0.930 . S
H946 C954 0.930 . S
H947 C955 0.930 . S
H948 C958 0.930 . S
H949 C959 0.930 . S
C950 H944 0.930 . S
C950 C951 1.355 . S
C950 C952 1.415 . S
C951 C950 1.355 . S
C951 C953 1.419 . S
C952 C950 1.415 . S
C952 C957 1.425 . S
C952 C959 1.409 . S
C953 H945 0.930 . S
C953 C951 1.419 . S
C953 C954 1.362 . S
C954 H946 0.930 . S
C954 C953 1.362 . S
C954 C957 1.409 . S
C955 H947 0.930 . S
C955 C956 1.355 . S
C955 C957 1.415 . S
C956 C955 1.355 . S
C956 C958 1.419 . S
C957 C952 1.425 . S
C957 C954 1.409 . S
C957 C955 1.415 . S
C958 H948 0.930 . S
C958 C956 1.419 . S
C958 C959 1.362 . S
C959 H949 0.930 . S
C959 C952 1.409 . S
C959 C958 1.362 . S
H960 C966 0.930 . S
H961 C969 0.930 . S
H962 C970 0.930 . S
H963 C971 0.930 . S
H964 C974 0.930 . S
H965 C975 0.930 . S
C966 H960 0.930 . S
C966 C967 1.355 . S
C966 C968 1.415 . S
C967 C966 1.355 . S
C967 C969 1.419 . S
C968 C966 1.415 . S
C968 C973 1.425 . S
C968 C975 1.409 . S
C969 H961 0.930 . S
C969 C967 1.419 . S
C969 C970 1.362 . S
C970 H962 0.930 . S
C970 C969 1.362 . S
C970 C973 1.409 . S
C971 H963 0.930 . S
C971 C972 1.355 . S
C971 C973 1.415 . S
C972 C971 1.355 . S
C972 C974 1.419 . S
C973 C968 1.425 . S
C973 C970 1.409 . S
C973 C971 1.415 . S
C974 H964 0.930 . S
C974 C972 1.419 . S
C974 C975 1.362 . S
C975 H965 0.930 . S
C975 C968 1.409 . S
C975 C974 1.362 . S
H976 C982 0.930 1_554 S
H977 C985 0.930 . S
H978 C986 0.930 . S
H979 C987 0.930 . S
H980 C990 0.930 . S
H981 C991 0.930 . S
C982 H976 0.930 1_556 S
C982 C983 1.355 . S
C982 C984 1.415 1_556 S
C983 C982 1.355 . S
C983 C985 1.419 . S
C984 C982 1.415 1_554 S
C984 C989 1.410 1_554 S
C984 C991 1.409 . S
C985 H977 0.930 . S
C985 C983 1.419 . S
C985 C986 1.362 . S
C986 H978 0.930 . S
C986 C985 1.362 . S
C986 C989 1.445 . S
C987 H979 0.930 . S
C987 C988 1.355 . S
C987 C989 1.395 1_554 S
C988 C987 1.355 . S
C988 C990 1.419 . S
C989 C984 1.410 1_556 S
C989 C986 1.445 . S
C989 C987 1.395 1_556 S
C990 H980 0.930 . S
C990 C988 1.419 . S
C990 C991 1.362 . S
C991 H981 0.930 . S
C991 C984 1.409 . S
C991 C990 1.362 . S
H992 C998 0.930 . S
H993 C1001 0.930 1_554 S
H994 C1002 0.930 . S
H995 C1003 0.930 . S
H996 C1006 0.930 . S
H997 C1007 0.930 . S
C998 H992 0.930 . S
C998 C999 1.355 . S
C998 C1000 1.415 . S
C999 C998 1.355 . S
C999 C1001 1.419 . S
C1000 C998 1.415 . S
C1000 C1005 1.425 1_556 S
C1000 C1007 1.409 . S
C1001 H993 0.930 1_556 S
C1001 C999 1.419 . S
C1001 C1002 1.362 1_556 S
C1002 H994 0.930 . S
C1002 C1001 1.362 1_554 S
C1002 C1005 1.409 . S
C1003 H995 0.930 . S
C1003 C1004 1.355 . S
C1003 C1005 1.415 . S
C1004 C1003 1.355 . S
C1004 C1006 1.419 . S
C1005 C1000 1.425 1_554 S
C1005 C1002 1.409 . S
C1005 C1003 1.415 . S
C1006 H996 0.930 . S
C1006 C1004 1.419 . S
C1006 C1007 1.362 1_554 S
C1007 H997 0.930 . S
C1007 C1000 1.409 . S
C1007 C1006 1.362 1_556 S
H1008 C1014 0.930 . S
H1009 C1017 0.930 . S
H1010 C1018 0.930 . S
H1011 C1019 0.930 . S
H1012 C1022 0.930 . S
H1013 C1023 0.930 . S
C1014 H1008 0.930 . S
C1014 C1015 1.355 . S
C1014 C1016 1.415 . S
C1015 C1014 1.355 . S
C1015 C1017 1.419 . S
C1016 C1014 1.415 . S
C1016 C1021 1.425 1_556 S
C1016 C1023 1.409 . S
C1017 H1009 0.930 . S
C1017 C1015 1.419 . S
C1017 C1018 1.362 1_556 S
C1018 H1010 0.930 . S
C1018 C1017 1.362 1_554 S
C1018 C1021 1.409 . S
C1019 H1011 0.930 . S
C1019 C1020 1.355 . S
C1019 C1021 1.415 . S
C1020 C1019 1.355 . S
C1020 C1022 1.419 . S
C1021 C1016 1.425 1_554 S
C1021 C1018 1.409 . S
C1021 C1019 1.415 . S
C1022 H1012 0.930 . S
C1022 C1020 1.419 . S
C1022 C1023 1.362 1_554 S
C1023 H1013 0.930 . S
C1023 C1016 1.409 . S
C1023 C1022 1.362 1_556 S
H1024 C1030 0.930 . S
H1025 C1033 0.930 . S
H1026 C1034 0.930 . S
H1027 C1035 0.930 . S
H1028 C1038 0.930 . S
H1029 C1039 0.930 . S
C1030 H1024 0.930 . S
C1030 C1031 1.355 . S
C1030 C1032 1.415 . S
C1031 C1030 1.355 . S
C1031 C1033 1.419 . S
C1032 C1030 1.415 . S
C1032 C1037 1.425 1_554 S
C1032 C1039 1.409 . S
C1033 H1025 0.930 . S
C1033 C1031 1.419 . S
C1033 C1034 1.362 1_554 S
C1034 H1026 0.930 . S
C1034 C1033 1.362 1_556 S
C1034 C1037 1.409 . S
C1035 H1027 0.930 . S
C1035 C1036 1.355 . S
C1035 C1037 1.415 . S
C1036 C1035 1.355 . S
C1036 C1038 1.419 . S
C1037 C1032 1.425 1_556 S
C1037 C1034 1.409 . S
C1037 C1035 1.415 . S
C1038 H1028 0.930 . S
C1038 C1036 1.419 . S
C1038 C1039 1.362 1_556 S
C1039 H1029 0.930 . S
C1039 C1032 1.409 . S
C1039 C1038 1.362 1_554 S
H1040 C1046 0.930 . S
H1041 C1049 0.930 . S
H1042 C1050 0.930 . S
H1043 C1051 0.930 . S
H1044 C1054 0.930 . S
H1045 C1055 0.930 . S
C1046 H1040 0.930 . S
C1046 C1047 1.355 . S
C1046 C1048 1.415 . S
C1047 C1046 1.355 . S
C1047 C1049 1.419 . S
C1048 C1046 1.415 . S
C1048 C1053 1.425 . S
C1048 C1055 1.409 . S
C1049 H1041 0.930 . S
C1049 C1047 1.419 . S
C1049 C1050 1.362 . S
C1050 H1042 0.930 . S
C1050 C1049 1.362 . S
C1050 C1053 1.409 . S
C1051 H1043 0.930 . S
C1051 C1052 1.355 . S
C1051 C1053 1.415 . S
C1052 C1051 1.355 . S
C1052 C1054 1.419 . S
C1053 C1048 1.425 . S
C1053 C1050 1.409 . S
C1053 C1051 1.415 . S
C1054 H1044 0.930 . S
C1054 C1052 1.419 . S
C1054 C1055 1.362 . S
C1055 H1045 0.930 . S
C1055 C1048 1.409 . S
C1055 C1054 1.362 . S
H1056 C1062 0.930 . S
H1057 C1065 0.930 . S
H1058 C1066 0.930 . S
H1059 C1067 0.930 . S
H1060 C1070 0.930 . S
H1061 C1071 0.930 . S
C1062 H1056 0.930 . S
C1062 C1063 1.355 . S
C1062 C1064 1.415 . S
C1063 C1062 1.355 . S
C1063 C1065 1.419 . S
C1064 C1062 1.415 . S
C1064 C1069 1.425 . S
C1064 C1071 1.409 . S
C1065 H1057 0.930 . S
C1065 C1063 1.419 . S
C1065 C1066 1.362 . S
C1066 H1058 0.930 . S
C1066 C1065 1.362 . S
C1066 C1069 1.409 . S
C1067 H1059 0.930 . S
C1067 C1068 1.355 . S
C1067 C1069 1.415 . S
C1068 C1067 1.355 . S
C1068 C1070 1.419 . S
C1069 C1064 1.425 . S
C1069 C1066 1.409 . S
C1069 C1067 1.415 . S
C1070 H1060 0.930 . S
C1070 C1068 1.419 . S
C1070 C1071 1.362 . S
C1071 H1061 0.930 . S
C1071 C1064 1.409 . S
C1071 C1070 1.362 . S
H1072 C1078 0.930 . S
H1073 C1081 0.930 . S
H1074 C1082 0.930 . S
H1075 C1083 0.930 . S
H1076 C1086 0.930 . S
H1077 C1087 0.930 . S
C1078 H1072 0.930 . S
C1078 C1079 1.355 . S
C1078 C1080 1.415 . S
C1079 C1078 1.355 . S
C1079 C1081 1.419 . S
C1080 C1078 1.415 . S
C1080 C1085 1.425 . S
C1080 C1087 1.409 . S
C1081 H1073 0.930 . S
C1081 C1079 1.419 . S
C1081 C1082 1.362 . S
C1082 H1074 0.930 . S
C1082 C1081 1.362 . S
C1082 C1085 1.409 . S
C1083 H1075 0.930 . S
C1083 C1084 1.355 . S
C1083 C1085 1.415 . S
C1084 C1083 1.355 . S
C1084 C1086 1.419 . S
C1085 C1080 1.425 . S
C1085 C1082 1.409 . S
C1085 C1083 1.415 . S
C1086 H1076 0.930 . S
C1086 C1084 1.419 . S
C1086 C1087 1.362 . S
C1087 H1077 0.930 . S
C1087 C1080 1.409 . S
C1087 C1086 1.362 . S
H1088 C1094 0.930 . S
H1089 C1097 0.930 . S
H1090 C1098 0.930 . S
H1091 C1099 0.930 . S
H1092 C1102 0.930 . S
H1093 C1103 0.930 . S
C1094 H1088 0.930 . S
C1094 C1095 1.355 . S
C1094 C1096 1.415 . S
C1095 C1094 1.355 . S
C1095 C1097 1.419 . S
C1096 C1094 1.415 . S
C1096 C1101 1.425 . S
C1096 C1103 1.409 . S
C1097 H1089 0.930 . S
C1097 C1095 1.419 . S
C1097 C1098 1.362 . S
C1098 H1090 0.930 . S
C1098 C1097 1.362 . S
C1098 C1101 1.409 . S
C1099 H1091 0.930 . S
C1099 C1100 1.355 . S
C1099 C1101 1.415 . S
C1100 C1099 1.355 . S
C1100 C1102 1.419 . S
C1101 C1096 1.425 . S
C1101 C1098 1.409 . S
C1101 C1099 1.415 . S
C1102 H1092 0.930 . S
C1102 C1100 1.419 . S
C1102 C1103 1.362 . S
C1103 H1093 0.930 . S
C1103 C1096 1.409 . S
C1103 C1102 1.362 . S
H1104 C1110 0.930 . S
H1105 C1113 0.930 . S
H1106 C1114 0.930 . S
H1107 C1115 0.930 . S
H1108 C1118 0.930 . S
H1109 C1119 0.930 . S
C1110 H1104 0.930 . S
C1110 C1111 1.355 . S
C1110 C1112 1.415 . S
C1111 C1110 1.355 . S
C1111 C1113 1.419 . S
C1112 C1110 1.415 . S
C1112 C1117 1.425 . S
C1112 C1119 1.409 . S
C1113 H1105 0.930 . S
C1113 C1111 1.419 . S
C1113 C1114 1.362 . S
C1114 H1106 0.930 . S
C1114 C1113 1.362 . S
C1114 C1117 1.409 . S
C1115 H1107 0.930 . S
C1115 C1116 1.355 . S
C1115 C1117 1.415 . S
C1116 C1115 1.355 . S
C1116 C1118 1.419 . S
C1117 C1112 1.425 . S
C1117 C1114 1.409 . S
C1117 C1115 1.415 . S
C1118 H1108 0.930 . S
C1118 C1116 1.419 . S
C1118 C1119 1.362 . S
C1119 H1109 0.930 . S
C1119 C1112 1.409 . S
C1119 C1118 1.362 . S
H1120 C1126 0.930 . S
H1121 C1129 0.930 . S
H1122 C1130 0.930 . S
H1123 C1131 0.930 . S
H1124 C1134 0.930 . S
H1125 C1135 0.930 . S
C1126 H1120 0.930 . S
C1126 C1127 1.355 . S
C1126 C1128 1.415 . S
C1127 C1126 1.355 . S
C1127 C1129 1.419 . S
C1128 C1126 1.415 . S
C1128 C1133 1.425 . S
C1128 C1135 1.409 . S
C1129 H1121 0.930 . S
C1129 C1127 1.419 . S
C1129 C1130 1.362 . S
C1130 H1122 0.930 . S
C1130 C1129 1.362 . S
C1130 C1133 1.409 . S
C1131 H1123 0.930 . S
C1131 C1132 1.355 . S
C1131 C1133 1.415 . S
C1132 C1131 1.355 . S
C1132 C1134 1.419 . S
C1133 C1128 1.425 . S
C1133 C1130 1.409 . S
C1133 C1131 1.415 . S
C1134 H1124 0.930 . S
C1134 C1132 1.419 . S
C1134 C1135 1.362 . S
C1135 H1125 0.930 . S
C1135 C1128 1.409 . S
C1135 C1134 1.362 . S
H1136 C1142 0.930 . S
H1137 C1145 0.930 . S
H1138 C1146 0.930 . S
H1139 C1147 0.930 . S
H1140 C1150 0.930 . S
H1141 C1151 0.930 . S
C1142 H1136 0.930 . S
C1142 C1143 1.355 . S
C1142 C1144 1.415 . S
C1143 C1142 1.355 . S
C1143 C1145 1.419 . S
C1144 C1142 1.415 . S
C1144 C1149 1.425 . S
C1144 C1151 1.409 . S
C1145 H1137 0.930 . S
C1145 C1143 1.419 . S
C1145 C1146 1.362 . S
C1146 H1138 0.930 . S
C1146 C1145 1.362 . S
C1146 C1149 1.409 . S
C1147 H1139 0.930 . S
C1147 C1148 1.355 . S
C1147 C1149 1.415 . S
C1148 C1147 1.355 . S
C1148 C1150 1.419 . S
C1149 C1144 1.425 . S
C1149 C1146 1.409 . S
C1149 C1147 1.415 . S
C1150 H1140 0.930 . S
C1150 C1148 1.419 . S
C1150 C1151 1.362 . S
C1151 H1141 0.930 . S
C1151 C1144 1.409 . S
C1151 C1150 1.362 . S
H1152 C1158 0.930 . S
H1153 C1161 0.930 . S
H1154 C1162 0.930 . S
H1155 C1163 0.930 . S
H1156 C1166 0.930 . S
H1157 C1167 0.930 . S
C1158 H1152 0.930 . S
C1158 C1159 1.355 . S
C1158 C1160 1.415 . S
C1159 C1158 1.355 . S
C1159 C1161 1.419 . S
C1160 C1158 1.415 . S
C1160 C1165 1.425 . S
C1160 C1167 1.409 . S
C1161 H1153 0.930 . S
C1161 C1159 1.419 . S
C1161 C1162 1.362 . S
C1162 H1154 0.930 . S
C1162 C1161 1.362 . S
C1162 C1165 1.409 . S
C1163 H1155 0.930 . S
C1163 C1164 1.355 . S
C1163 C1165 1.415 . S
C1164 C1163 1.355 . S
C1164 C1166 1.419 . S
C1165 C1160 1.425 . S
C1165 C1162 1.409 . S
C1165 C1163 1.415 . S
C1166 H1156 0.930 . S
C1166 C1164 1.419 . S
C1166 C1167 1.362 . S
C1167 H1157 0.930 . S
C1167 C1160 1.409 . S
C1167 C1166 1.362 . S
H1168 C1174 0.930 . S
H1169 C1177 0.930 . S
H1170 C1178 0.930 . S
H1171 C1179 0.930 . S
H1172 C1182 0.930 . S
H1173 C1183 0.930 . S
C1174 H1168 0.930 . S
C1174 C1175 1.355 . S
C1174 C1176 1.415 . S
C1175 C1174 1.355 . S
C1175 C1177 1.419 . S
C1176 C1174 1.415 . S
C1176 C1181 1.425 . S
C1176 C1183 1.409 . S
C1177 H1169 0.930 . S
C1177 C1175 1.419 . S
C1177 C1178 1.362 . S
C1178 H1170 0.930 . S
C1178 C1177 1.362 . S
C1178 C1181 1.409 . S
C1179 H1171 0.930 . S
C1179 C1180 1.355 . S
C1179 C1181 1.415 . S
C1180 C1179 1.355 . S
C1180 C1182 1.419 . S
C1181 C1176 1.425 . S
C1181 C1178 1.409 . S
C1181 C1179 1.415 . S
C1182 H1172 0.930 . S
C1182 C1180 1.419 . S
C1182 C1183 1.362 . S
C1183 H1173 0.930 . S
C1183 C1176 1.409 . S
C1183 C1182 1.362 . S
H1184 C1190 0.930 . S
H1185 C1193 0.930 . S
H1186 C1194 0.930 . S
H1187 C1195 0.930 . S
H1188 C1198 0.930 . S
H1189 C1199 0.930 . S
C1190 H1184 0.930 . S
C1190 C1191 1.355 . S
C1190 C1192 1.415 . S
C1191 C1190 1.355 . S
C1191 C1193 1.419 . S
C1192 C1190 1.415 . S
C1192 C1197 1.425 . S
C1192 C1199 1.409 . S
C1193 H1185 0.930 . S
C1193 C1191 1.419 . S
C1193 C1194 1.362 . S
C1194 H1186 0.930 . S
C1194 C1193 1.362 . S
C1194 C1197 1.409 . S
C1195 H1187 0.930 . S
C1195 C1196 1.355 . S
C1195 C1197 1.415 . S
C1196 C1195 1.355 . S
C1196 C1198 1.419 . S
C1197 C1192 1.425 . S
C1197 C1194 1.409 . S
C1197 C1195 1.415 . S
C1198 H1188 0.930 . S
C1198 C1196 1.419 . S
C1198 C1199 1.362 . S
C1199 H1189 0.930 . S
C1199 C1192 1.409 . S
C1199 C1198 1.362 . S
H1200 C1206 0.930 . S
H1201 C1209 0.930 . S
H1202 C1210 0.930 . S
H1203 C1211 0.930 . S
H1204 C1214 0.930 . S
H1205 C1215 0.930 . S
C1206 H1200 0.930 . S
C1206 C1207 1.355 . S
C1206 C1208 1.415 . S
C1207 C1206 1.355 . S
C1207 C1209 1.419 . S
C1208 C1206 1.415 . S
C1208 C1213 1.425 . S
C1208 C1215 1.409 . S
C1209 H1201 0.930 . S
C1209 C1207 1.419 . S
C1209 C1210 1.362 . S
C1210 H1202 0.930 . S
C1210 C1209 1.362 . S
C1210 C1213 1.409 . S
C1211 H1203 0.930 . S
C1211 C1212 1.355 . S
C1211 C1213 1.415 . S
C1212 C1211 1.355 . S
C1212 C1214 1.419 . S
C1213 C1208 1.425 . S
C1213 C1210 1.409 . S
C1213 C1211 1.415 . S
C1214 H1204 0.930 . S
C1214 C1212 1.419 . S
C1214 C1215 1.362 . S
C1215 H1205 0.930 . S
C1215 C1208 1.409 . S
C1215 C1214 1.362 . S
H1216 C1222 0.930 . S
H1217 C1225 0.930 . S
H1218 C1226 0.930 . S
H1219 C1227 0.930 . S
H1220 C1230 0.930 . S
H1221 C1231 0.930 . S
C1222 H1216 0.930 . S
C1222 C1223 1.355 . S
C1222 C1224 1.415 . S
C1223 C1222 1.355 . S
C1223 C1225 1.419 . S
C1224 C1222 1.415 . S
C1224 C1229 1.425 . S
C1224 C1231 1.409 . S
C1225 H1217 0.930 . S
C1225 C1223 1.419 . S
C1225 C1226 1.362 . S
C1226 H1218 0.930 . S
C1226 C1225 1.362 . S
C1226 C1229 1.409 . S
C1227 H1219 0.930 . S
C1227 C1228 1.355 . S
C1227 C1229 1.415 . S
C1228 C1227 1.355 . S
C1228 C1230 1.419 . S
C1229 C1224 1.425 . S
C1229 C1226 1.409 . S
C1229 C1227 1.415 . S
C1230 H1220 0.930 . S
C1230 C1228 1.419 . S
C1230 C1231 1.362 . S
C1231 H1221 0.930 . S
C1231 C1224 1.409 . S
C1231 C1230 1.362 . S
H1232 C1238 0.930 . S
H1233 C1241 0.930 . S
H1234 C1242 0.930 . S
H1235 C1243 0.930 . S
H1236 C1246 0.930 . S
H1237 C1247 0.930 . S
C1238 H1232 0.930 . S
C1238 C1239 1.355 . S
C1238 C1240 1.415 . S
C1239 C1238 1.355 . S
C1239 C1241 1.419 . S
C1240 C1238 1.415 . S
C1240 C1245 1.425 . S
C1240 C1247 1.409 . S
C1241 H1233 0.930 . S
C1241 C1239 1.419 . S
C1241 C1242 1.362 . S
C1242 H1234 0.930 . S
C1242 C1241 1.362 . S
C1242 C1245 1.409 . S
C1243 H1235 0.930 . S
C1243 C1244 1.355 . S
C1243 C1245 1.415 . S
C1244 C1243 1.355 . S
C1244 C1246 1.419 . S
C1245 C1240 1.425 . S
C1245 C1242 1.409 . S
C1245 C1243 1.415 . S
C1246 H1236 0.930 . S
C1246 C1244 1.419 . S
C1246 C1247 1.362 . S
C1247 H1237 0.930 . S
C1247 C1240 1.409 . S
C1247 C1246 1.362 . S
H1248 C1254 0.930 . S
H1249 C1257 0.930 . S
H1250 C1258 0.930 . S
H1251 C1259 0.930 . S
H1252 C1262 0.930 . S
H1253 C1263 0.930 . S
C1254 H1248 0.930 . S
C1254 C1255 1.355 . S
C1254 C1256 1.415 . S
C1255 C1254 1.355 . S
C1255 C1257 1.419 . S
C1256 C1254 1.415 . S
C1256 C1261 1.425 . S
C1256 C1263 1.409 . S
C1257 H1249 0.930 . S
C1257 C1255 1.419 . S
C1257 C1258 1.362 . S
C1258 H1250 0.930 . S
C1258 C1257 1.362 . S
C1258 C1261 1.409 . S
C1259 H1251 0.930 . S
C1259 C1260 1.355 . S
C1259 C1261 1.415 . S
C1260 C1259 1.355 . S
C1260 C1262 1.419 . S
C1261 C1256 1.425 . S
C1261 C1258 1.409 . S
C1261 C1259 1.415 . S
C1262 H1252 0.930 . S
C1262 C1260 1.419 . S
C1262 C1263 1.362 . S
C1263 H1253 0.930 . S
C1263 C1256 1.409 . S
C1263 C1262 1.362 . S
H1264 C1270 0.930 . S
H1265 C1273 0.930 . S
H1266 C1274 0.930 . S
H1267 C1275 0.930 . S
H1268 C1278 0.930 . S
H1269 C1279 0.930 . S
C1270 H1264 0.930 . S
C1270 C1271 1.355 . S
C1270 C1272 1.415 . S
C1271 C1270 1.355 . S
C1271 C1273 1.419 . S
C1272 C1270 1.415 . S
C1272 C1277 1.425 . S
C1272 C1279 1.409 . S
C1273 H1265 0.930 . S
C1273 C1271 1.419 . S
C1273 C1274 1.362 . S
C1274 H1266 0.930 . S
C1274 C1273 1.362 . S
C1274 C1277 1.409 . S
C1275 H1267 0.930 . S
C1275 C1276 1.355 . S
C1275 C1277 1.415 . S
C1276 C1275 1.355 . S
C1276 C1278 1.419 . S
C1277 C1272 1.425 . S
C1277 C1274 1.409 . S
C1277 C1275 1.415 . S
C1278 H1268 0.930 . S
C1278 C1276 1.419 . S
C1278 C1279 1.362 . S
C1279 H1269 0.930 . S
C1279 C1272 1.409 . S
C1279 C1278 1.362 . S
H1280 C1286 0.930 . S
H1281 C1289 0.930 . S
H1282 C1290 0.930 . S
H1283 C1291 0.930 . S
H1284 C1294 0.930 . S
H1285 C1295 0.930 . S
C1286 H1280 0.930 . S
C1286 C1287 1.355 . S
C1286 C1288 1.415 . S
C1287 C1286 1.355 . S
C1287 C1289 1.419 . S
C1288 C1286 1.415 . S
C1288 C1293 1.425 . S
C1288 C1295 1.409 . S
C1289 H1281 0.930 . S
C1289 C1287 1.419 . S
C1289 C1290 1.362 . S
C1290 H1282 0.930 . S
C1290 C1289 1.362 . S
C1290 C1293 1.409 . S
C1291 H1283 0.930 . S
C1291 C1292 1.355 . S
C1291 C1293 1.415 . S
C1292 C1291 1.355 . S
C1292 C1294 1.419 . S
C1293 C1288 1.425 . S
C1293 C1290 1.409 . S
C1293 C1291 1.415 . S
C1294 H1284 0.930 . S
C1294 C1292 1.419 . S
C1294 C1295 1.362 . S
C1295 H1285 0.930 . S
C1295 C1288 1.409 . S
C1295 C1294 1.362 . S
H1296 C1302 0.930 . S
H1297 C1305 0.930 . S
H1298 C1306 0.930 . S
H1299 C1307 0.930 . S
H1300 C1310 0.930 . S
H1301 C1311 0.930 . S
C1302 H1296 0.930 . S
C1302 C1303 1.355 . S
C1302 C1304 1.415 . S
C1303 C1302 1.355 . S
C1303 C1305 1.419 . S
C1304 C1302 1.415 . S
C1304 C1309 1.425 . S
C1304 C1311 1.409 . S
C1305 H1297 0.930 . S
C1305 C1303 1.419 . S
C1305 C1306 1.362 . S
C1306 H1298 0.930 . S
C1306 C1305 1.362 . S
C1306 C1309 1.409 . S
C1307 H1299 0.930 . S
C1307 C1308 1.355 . S
C1307 C1309 1.415 . S
C1308 C1307 1.355 . S
C1308 C1310 1.419 . S
C1309 C1304 1.425 . S
C1309 C1306 1.409 . S
C1309 C1307 1.415 . S
C1310 H1300 0.930 . S
C1310 C1308 1.419 . S
C1310 C1311 1.362 . S
C1311 H1301 0.930 . S
C1311 C1304 1.409 . S
C1311 C1310 1.362 . S
H1312 C1318 0.930 . S
H1313 C1321 0.930 . S
H1314 C1322 0.930 . S
H1315 C1323 0.930 . S
H1316 C1326 0.930 . S
H1317 C1327 0.930 . S
C1318 H1312 0.930 . S
C1318 C1319 1.355 . S
C1318 C1320 1.415 . S
C1319 C1318 1.355 . S
C1319 C1321 1.419 . S
C1320 C1318 1.415 . S
C1320 C1325 1.425 . S
C1320 C1327 1.409 . S
C1321 H1313 0.930 . S
C1321 C1319 1.419 . S
C1321 C1322 1.362 . S
C1322 H1314 0.930 . S
C1322 C1321 1.362 . S
C1322 C1325 1.409 . S
C1323 H1315 0.930 . S
C1323 C1324 1.355 . S
C1323 C1325 1.415 . S
C1324 C1323 1.355 . S
C1324 C1326 1.419 . S
C1325 C1320 1.425 . S
C1325 C1322 1.409 . S
C1325 C1323 1.415 . S
C1326 H1316 0.930 . S
C1326 C1324 1.419 . S
C1326 C1327 1.362 . S
C1327 H1317 0.930 . S
C1327 C1320 1.409 . S
C1327 C1326 1.362 . S
H1328 C1334 0.930 . S
H1329 C1337 0.930 . S
H1330 C1338 0.930 . S
H1331 C1339 0.930 . S
H1332 C1342 0.930 . S
H1333 C1343 0.930 . S
C1334 H1328 0.930 . S
C1334 C1335 1.355 . S
C1334 C1336 1.415 . S
C1335 C1334 1.355 . S
C1335 C1337 1.419 . S
C1336 C1334 1.415 . S
C1336 C1341 1.425 . S
C1336 C1343 1.409 . S
C1337 H1329 0.930 . S
C1337 C1335 1.419 . S
C1337 C1338 1.362 . S
C1338 H1330 0.930 . S
C1338 C1337 1.362 . S
C1338 C1341 1.409 . S
C1339 H1331 0.930 . S
C1339 C1340 1.355 . S
C1339 C1341 1.415 . S
C1340 C1339 1.355 . S
C1340 C1342 1.419 . S
C1341 C1336 1.425 . S
C1341 C1338 1.409 . S
C1341 C1339 1.415 . S
C1342 H1332 0.930 . S
C1342 C1340 1.419 . S
C1342 C1343 1.362 . S
C1343 H1333 0.930 . S
C1343 C1336 1.409 . S
C1343 C1342 1.362 . S
H1344 C1350 0.930 . S
H1345 C1353 0.930 . S
H1346 C1354 0.930 . S
H1347 C1355 0.930 . S
H1348 C1358 0.930 . S
H1349 C1359 0.930 . S
C1350 H1344 0.930 . S
C1350 C1351 1.355 . S
C1350 C1352 1.415 . S
C1351 C1350 1.355 . S
C1351 C1353 1.419 . S
C1352 C1350 1.415 . S
C1352 C1357 1.425 . S
C1352 C1359 1.409 . S
C1353 H1345 0.930 . S
C1353 C1351 1.419 . S
C1353 C1354 1.362 . S
C1354 H1346 0.930 . S
C1354 C1353 1.362 . S
C1354 C1357 1.409 . S
C1355 H1347 0.930 . S
C1355 C1356 1.355 . S
C1355 C1357 1.415 . S
C1356 C1355 1.355 . S
C1356 C1358 1.419 . S
C1357 C1352 1.425 . S
C1357 C1354 1.409 . S
C1357 C1355 1.415 . S
C1358 H1348 0.930 . S
C1358 C1356 1.419 . S
C1358 C1359 1.362 . S
C1359 H1349 0.930 . S
C1359 C1352 1.409 . S
C1359 C1358 1.362 . S
C471 C245 1.760 . S
C476 C13 1.760 . S
C487 C42 1.804 . S
C492 C274 1.804 . S
C503 C303 1.756 . S
C508 C71 1.756 . S
C519 C100 1.808 . S
C524 C332 1.808 . S
C535 C129 1.771 . S
C540 C361 1.771 . S
C551 C158 1.802 . S
C556 C390 1.802 . S
C567 C419 1.800 . S
C572 C187 1.800 . S
C583 C448 1.776 . S
C588 C216 1.776 . S
C599 C15 2.879 . S
C604 C37 2.372 . S
C615 C66 2.370 . S
C620 C44 2.882 . S
C631 C95 2.404 1_655 S
C636 C73 2.878 . S
C647 C8 2.411 1_565 S
C652 C102 2.872 . S
C663 C211 2.422 1_455 S
C668 C131 2.874 . S
C679 C124 2.367 1_545 S
C684 C160 2.882 . S
C695 C189 2.867 . S
C700 C153 2.441 . S
C711 C218 2.880 . S
C716 C182 2.385 . S
C727 C269 2.373 . S
C732 C247 2.882 . S
C743 C276 2.878 . S
C748 C298 2.399 . S
C759 C327 2.388 1_455 S
C764 C305 2.876 . S
C775 C240 2.422 1_545 S
C780 C334 2.874 . S
C791 C443 2.420 1_655 S
C796 C363 2.875 . S
C807 C356 2.369 1_565 S
C812 C392 2.880 . S
C823 C385 2.442 . S
C828 C421 2.870 . S
C839 C414 2.415 . S
C844 C450 2.871 . S
C855 C266 1.049 . S
C860 C3 1.164 . S
C871 C295 1.117 . S
C876 C32 1.151 . S
C887 C324 1.045 . S
C892 C61 1.158 . S
C903 C237 1.130 . S
C908 C90 1.168 . S
C919 C440 1.069 . S
C924 C119 1.168 . S
C935 C353 1.119 . S
C940 C148 1.151 . S
C951 C177 1.159 . S
C956 C382 1.044 . S
C967 C411 1.081 . S
C972 C206 1.169 . S
C983 C235 1.167 . S
C988 C34 1.062 . S
C999 C264 1.151 . S
C1004 C63 1.118 . S
C1015 C293 1.151 . S
C1020 C92 1.090 . S
C1031 C5 1.129 . S
C1036 C322 1.151 . S
C1047 C351 1.169 . S
C1052 C208 1.093 . S
C1063 C121 1.159 . S
C1068 C380 1.160 . S
C1079 C409 1.151 . S
C1084 C150 1.127 . S
C1095 C438 1.169 . S
C1100 C179 1.082 . S
C1111 C155 1.829 . S
C1116 C10 1.840 . S
C1127 C184 1.804 . S
C1132 C39 1.756 . S
C1143 C213 1.842 . S
C1148 C68 1.799 . S
C1159 C126 1.753 . S
C1164 C97 1.773 . S
C1175 C387 1.783 . S
C1180 C242 1.752 . S
C1191 C271 1.813 . S
C1196 C416 1.761 . S
C1207 C300 1.756 . S
C1212 C445 1.804 . S
C1223 C329 1.804 . S
C1228 C358 1.843 . S
C1239 C79 0.906 . S
C1244 C21 0.928 . S
C1255 C50 0.982 . S
C1260 C108 0.986 . S
C1271 C195 0.906 . S
C1276 C137 0.928 . S
C1287 C224 0.843 . S
C1292 C166 0.825 . S
C1303 C253 0.869 . S
C1308 C311 0.891 . S
C1319 C340 0.846 . S
C1324 C282 0.828 . S
C1335 C427 0.814 . S
C1340 C369 0.805 . S
C1351 C456 0.853 . S
C1356 C398 0.875 . S
