# Generated by pormake.
# Topology dmp, (4)-cn, num edge types: 1
# Building blocks:
#     Node 0, Type 0, BuildingBlock: ESEHIV_clean_sbu_0, # of connection points: 4
#     Node 1, Type 0, BuildingBlock: ESEHIV_clean_sbu_0, # of connection points: 4
#     Node 2, Type 0, BuildingBlock: ESEHIV_clean_sbu_0, # of connection points: 4
#     Node 3, Type 0, BuildingBlock: ESEHIV_clean_sbu_0, # of connection points: 4
#     Edge 4, Type (0, 0), BuildingBlock: ZUJKAS_clean_linker_0, # of connection points: 2
#     Edge 5, Type (0, 0), BuildingBlock: ZUJKAS_clean_linker_0, # of connection points: 2
#     Edge 6, Type (0, 0), BuildingBlock: ZUJKAS_clean_linker_0, # of connection points: 2
#     Edge 7, Type (0, 0), BuildingBlock: ZUJKAS_clean_linker_0, # of connection points: 2
#     Edge 8, Type (0, 0), BuildingBlock: ZUJKAS_clean_linker_0, # of connection points: 2
#     Edge 9, Type (0, 0), BuildingBlock: ZUJKAS_clean_linker_0, # of connection points: 2
#     Edge 10, Type (0, 0), BuildingBlock: ZUJKAS_clean_linker_0, # of connection points: 2
#     Edge 11, Type (0, 0), BuildingBlock: ZUJKAS_clean_linker_0, # of connection points: 2
# Relax obj value: 0.000
# Max RMSD: 0.012
# Mean RMSD: 0.012
data_MOF--net-dmp--node1-ESEHIV_clean_sbu_0--edge1-ZUJKAS_clean_linker_0
_symmetry_space_group_name_H-M    P1
_symmetry_Int_Tables_number       1
_symmetry_cell_setting            triclinic
loop_
_symmetry_equiv_pos_as_xyz
'x, y, z'
_cell_length_a     49.579297
_cell_length_b     31.56229
_cell_length_c     7.2772675
_cell_angle_alpha  89.830898
_cell_angle_beta   90.028343
_cell_angle_gamma 97.53084
loop_
_atom_site_label
_atom_site_type_symbol
_atom_site_fract_x
_atom_site_fract_y
_atom_site_fract_z
_atom_type_partial_charge
Cu0 Cu 0.15042 0.27973 0.22071 0.0
N1 N 0.17456 0.25727 0.05952 0.0
N2 N 0.20106 0.20993 0.95605 0.0
C3 C 0.18237 0.2182 0.08166 0.0
C4 C 0.20497 0.24531 0.84908 0.0
C5 C 0.18869 0.27451 0.91376 0.0
O6 O 0.12258 0.23112 0.27429 0.0
C7 C 0.19658 0.31292 0.43931 0.0
O8 O 0.21006 0.28751 0.34325 0.0
H9 H 0.17463 0.19648 0.19036 0.0
H10 H 0.18783 0.30641 0.86158 0.0
N11 N 0.13225 0.32348 0.12401 0.0
N12 N 0.10615 0.37648 0.13432 0.0
C13 C 0.11704 0.34609 0.22998 0.0
C14 C 0.13109 0.34007 0.95402 0.0
C15 C 0.1149 0.37265 0.95985 0.0
C16 C 0.10771 0.21948 0.13509 0.0
O17 O 0.11177 0.24168 0.98237 0.0
H18 H 0.11388 0.33986 0.3752 0.0
H19 H 0.14124 0.32937 0.83456 0.0
O20 O 0.17069 0.30884 0.42651 0.0
H21 H 0.21925 0.25042 0.73628 0.0
H22 H 0.11032 0.39234 0.84492 0.0
Cu23 Cu 0.38802 0.76377 0.2162 0.0
N24 N 0.36287 0.78541 0.05904 0.0
N25 N 0.33608 0.83229 0.95449 0.0
C26 C 0.3532 0.82283 0.08858 0.0
C27 C 0.33502 0.79946 0.83482 0.0
C28 C 0.35146 0.77048 0.90019 0.0
O29 O 0.41586 0.81286 0.26081 0.0
C30 C 0.34316 0.72669 0.43694 0.0
O31 O 0.32828 0.74842 0.33243 0.0
H32 H 0.35896 0.84304 0.20587 0.0
H33 H 0.35479 0.74071 0.83679 0.0
N34 N 0.40629 0.72036 0.11881 0.0
N35 N 0.43234 0.66727 0.1315 0.0
C36 C 0.42079 0.6969 0.22672 0.0
C37 C 0.40865 0.70518 0.94771 0.0
C38 C 0.42477 0.6725 0.9551 0.0
C39 C 0.42762 0.82693 0.11226 0.0
O40 O 0.42066 0.80647 0.95892 0.0
H41 H 0.42307 0.70215 0.37307 0.0
H42 H 0.39951 0.717 0.82621 0.0
O43 O 0.36905 0.7346 0.42743 0.0
H44 H 0.32294 0.79629 0.71051 0.0
H45 H 0.43021 0.65387 0.83952 0.0
Cu46 Cu 0.88785 0.76436 0.76668 0.0
N47 N 0.8627 0.78586 0.92315 0.0
N48 N 0.8357 0.83287 0.02468 0.0
C49 C 0.85634 0.82605 0.91115 0.0
C50 C 0.82909 0.79511 0.11307 0.0
C51 C 0.84568 0.76625 0.04991 0.0
O52 O 0.9161 0.81298 0.72266 0.0
C53 C 0.84316 0.73119 0.53458 0.0
O54 O 0.82876 0.75599 0.62686 0.0
H55 H 0.86645 0.84942 0.81671 0.0
H56 H 0.84468 0.73295 0.08827 0.0
N57 N 0.90525 0.71996 0.86487 0.0
N58 N 0.93081 0.66629 0.85645 0.0
C59 C 0.92075 0.69744 0.7607 0.0
C60 C 0.90533 0.70247 0.03377 0.0
C61 C 0.92122 0.66948 0.02919 0.0
C62 C 0.93064 0.82379 0.86427 0.0
O63 O 0.9261 0.8009 0.01481 0.0
H64 H 0.92466 0.70421 0.61658 0.0
H65 H 0.89455 0.71276 0.15132 0.0
O66 O 0.86898 0.73621 0.55366 0.0
H67 H 0.81273 0.78804 0.21126 0.0
H68 H 0.92498 0.64901 0.14342 0.0
Cu69 Cu 0.6512 0.28211 0.78913 0.0
N70 N 0.67651 0.26078 0.94601 0.0
N71 N 0.70315 0.21372 0.05155 0.0
C72 C 0.68269 0.22044 0.93672 0.0
C73 C 0.71007 0.25153 0.13738 0.0
C74 C 0.69357 0.28046 0.07228 0.0
O75 O 0.62327 0.23311 0.7453 0.0
C76 C 0.69585 0.31614 0.55853 0.0
O77 O 0.71004 0.29065 0.64931 0.0
H78 H 0.67306 0.19697 0.84102 0.0
H79 H 0.69451 0.31373 0.11009 0.0
N80 N 0.63314 0.32549 0.88791 0.0
N81 N 0.60716 0.37862 0.87763 0.0
C82 C 0.61776 0.34803 0.78245 0.0
C83 C 0.63241 0.3423 0.05732 0.0
C84 C 0.61626 0.37498 0.05155 0.0
C85 C 0.61133 0.21937 0.89373 0.0
O86 O 0.61816 0.2401 0.04665 0.0
H87 H 0.61434 0.34169 0.63766 0.0
H88 H 0.64298 0.33185 0.17586 0.0
O89 O 0.67004 0.31146 0.57772 0.0
H90 H 0.72608 0.25802 0.23856 0.0
H91 H 0.61202 0.39496 0.16581 0.0
H92 H 0.31747 0.87565 0.23835 0.0
H93 H 0.29433 0.93935 0.2223 0.0
H94 H 0.30056 0.93875 0.63086 0.0
H95 H 0.32291 0.87403 0.64677 0.0
H96 H 0.31067 1.01663 0.10667 0.0
H97 H 0.22256 0.95316 0.67488 0.0
H98 H 0.24546 0.9191 0.77105 0.0
H99 H 0.25455 0.94955 0.56534 0.0
C100 C 0.31382 0.88899 0.1048 0.0
C101 C 0.32197 0.86959 0.94378 0.0
C102 C 0.30052 0.92547 0.09558 0.0
C103 C 0.29514 0.94381 0.92518 0.0
C104 C 0.30357 0.92473 0.764 0.0
H105 H 0.22331 0.17712 0.65427 0.0
H106 H 0.24704 0.11363 0.64114 0.0
C107 C 0.31652 0.88777 0.7731 0.0
C108 C 0.28167 0.98365 0.9184 0.0
H109 H 0.22812 0.02777 0.73391 0.0
C110 C 0.29255 1.01885 0.02547 0.0
C111 C 0.25805 0.98704 0.81192 0.0
C112 C 0.24431 0.95007 0.70072 0.0
C113 C 0.28065 0.05696 0.02909 0.0
C114 C 0.25696 0.06019 0.92389 0.0
C115 C 0.2463 0.0254 0.81427 0.0
C116 C 0.2425 0.09884 0.93094 0.0
C117 C 0.29377 0.09367 0.14442 0.0
C118 C 0.23168 0.11149 0.09735 0.0
C119 C 0.21816 0.14773 0.10524 0.0
C120 C 0.21497 0.1723 0.94659 0.0
C121 C 0.22563 0.15936 0.77946 0.0
C122 C 0.23908 0.12288 0.77157 0.0
H123 H 0.31545 0.09082 0.17375 0.0
H124 H 0.29261 0.12479 0.07532 0.0
H125 H 0.28293 0.09366 0.27782 0.0
H126 H 0.2336 0.09318 0.22172 0.0
H127 H 0.21053 0.15676 0.23675 0.0
H128 H 0.17672 0.38637 0.54893 0.0
H129 H 0.20334 0.45588 0.61223 0.0
H130 H 0.27744 0.39868 0.57583 0.0
H131 H 0.25111 0.32938 0.50971 0.0
H132 H 0.24452 0.48994 0.87038 0.0
H133 H 0.28524 0.48751 0.15895 0.0
H134 H 0.25599 0.45159 0.23429 0.0
H135 H 0.28969 0.44171 0.29677 0.0
C136 C 0.19865 0.38832 0.55846 0.0
C137 C 0.21178 0.3523 0.52095 0.0
C138 C 0.21387 0.42819 0.5943 0.0
C139 C 0.24246 0.43282 0.59389 0.0
C140 C 0.25545 0.39619 0.57228 0.0
H141 H 0.36681 0.65629 0.54114 0.0
H142 H 0.34327 0.58485 0.61158 0.0
C143 C 0.24031 0.35645 0.53551 0.0
C144 C 0.25869 0.47616 0.60012 0.0
H145 H 0.30234 0.5458 0.34436 0.0
C146 C 0.25719 0.50214 0.75558 0.0
C147 C 0.27517 0.4923 0.44985 0.0
C148 C 0.27653 0.46711 0.27468 0.0
C149 C 0.27189 0.54353 0.76497 0.0
C150 C 0.28838 0.55943 0.61487 0.0
C151 C 0.28999 0.53338 0.46034 0.0
C152 C 0.30292 0.60388 0.6084 0.0
C153 C 0.26994 0.56997 0.9355 0.0
C154 C 0.28816 0.63864 0.5879 0.0
C155 C 0.30154 0.67946 0.54622 0.0
C156 C 0.32999 0.68647 0.52441 0.0
C157 C 0.34491 0.6522 0.55783 0.0
C158 C 0.33146 0.61123 0.59745 0.0
H159 H 0.25994 0.55079 0.05073 0.0
H160 H 0.29052 0.58449 0.97997 0.0
H161 H 0.25789 0.59638 0.90468 0.0
H162 H 0.26614 0.63374 0.59329 0.0
H163 H 0.28942 0.70507 0.52146 0.0
H164 H 0.67958 0.13212 0.99753 0.0
H165 H 0.70141 0.06705 0.01052 0.0
H166 H 0.77775 0.14213 0.14772 0.0
H167 H 0.75581 0.20718 0.13897 0.0
H168 H 0.74027 0.04237 0.80972 0.0
H169 H 0.77708 0.05109 0.52909 0.0
H170 H 0.75252 0.08381 0.44439 0.0
H171 H 0.78825 0.09854 0.40022 0.0
C172 C 0.70099 0.1348 0.03149 0.0
C173 C 0.71587 0.17503 0.06781 0.0
C174 C 0.71348 0.09745 0.0393 0.0
C175 C 0.74123 0.09922 0.08327 0.0
C176 C 0.75617 0.13941 0.11921 0.0
H177 H 0.84011 0.90103 0.78794 0.0
H178 H 0.81766 0.96467 0.80843 0.0
C179 C 0.74359 0.17677 0.11337 0.0
C180 C 0.75467 0.05931 0.08241 0.0
H181 H 0.79467 1.00043 0.33594 0.0
C182 C 0.75202 0.03317 0.9255 0.0
C183 C 0.7697 0.04655 0.23423 0.0
C184 C 0.77185 0.07119 0.4122 0.0
C185 C 0.76428 0.99544 0.91461 0.0
C186 C 0.78042 0.9838 0.06282 0.0
C187 C 0.78261 1.00941 0.22133 0.0
C188 C 0.79511 0.94526 0.05573 0.0
C189 C 0.75922 0.96783 0.74579 0.0
C190 C 0.79112 0.91352 0.19269 0.0
C191 C 0.80453 0.87701 0.18385 0.0
C192 C 0.8224 0.87124 0.03778 0.0
C193 C 0.82673 0.90371 0.9032 0.0
C194 C 0.81348 0.94023 0.91303 0.0
H195 H 0.74076 0.97461 0.67029 0.0
H196 H 0.77677 0.97441 0.651 0.0
H197 H 0.75681 0.93337 0.78252 0.0
H198 H 0.77733 0.91673 0.30579 0.0
H199 H 0.80086 0.85344 0.29214 0.0
H200 H 0.86508 0.65875 0.43849 0.0
H201 H 0.84022 0.58797 0.37636 0.0
H202 H 0.76438 0.64072 0.39094 0.0
H203 H 0.78901 0.71156 0.45402 0.0
H204 H 0.79928 0.55163 0.64769 0.0
H205 H 0.75599 0.55582 0.94283 0.0
H206 H 0.7871 0.58874 0.00873 0.0
H207 H 0.75492 0.60196 0.0862 0.0
C208 C 0.84318 0.65566 0.42311 0.0
C209 C 0.82906 0.69095 0.45297 0.0
C210 C 0.82897 0.61504 0.3881 0.0
C211 C 0.80041 0.60893 0.37853 0.0
C212 C 0.78641 0.64462 0.39549 0.0
H213 H 0.6746 0.38918 0.45608 0.0
H214 H 0.70015 0.4596 0.39197 0.0
C215 C 0.80056 0.68517 0.43223 0.0
C216 C 0.78519 0.56488 0.37661 0.0
H217 H 0.74107 0.49503 0.12569 0.0
C218 C 0.78678 0.53911 0.53276 0.0
C219 C 0.7685 0.54883 0.22794 0.0
C220 C 0.76649 0.57499 0.05596 0.0
C221 C 0.77196 0.49805 0.54557 0.0
C222 C 0.75546 0.48163 0.39622 0.0
C223 C 0.75378 0.50745 0.23975 0.0
C224 C 0.73973 0.4379 0.40358 0.0
C225 C 0.77348 0.47303 0.72164 0.0
C226 C 0.75332 0.40177 0.42204 0.0
C227 C 0.7388 0.36151 0.4589 0.0
C228 C 0.71029 0.35629 0.47716 0.0
C229 C 0.69653 0.3919 0.4435 0.0
C230 C 0.71113 0.43231 0.40724 0.0
H231 H 0.78228 0.49353 0.83632 0.0
H232 H 0.75297 0.45751 0.76309 0.0
H233 H 0.78662 0.4476 0.70011 0.0
H234 H 0.77532 0.40504 0.41578 0.0
H235 H 0.75009 0.33482 0.48184 0.0
H236 H 0.10578 0.14688 0.35169 0.0
H237 H 0.07624 0.07866 0.30501 0.0
H238 H 0.03483 0.13566 0.86588 0.0
H239 H 0.06442 0.2028 0.90811 0.0
H240 H 0.02077 0.0546 0.31348 0.0
H241 H 0.05806 0.03403 0.60604 0.0
H242 H 0.07472 0.07371 0.76084 0.0
H243 H 0.0448 0.08371 0.63622 0.0
C244 C 0.09014 0.14489 0.24693 0.0
C245 C 0.08766 0.18012 0.13232 0.0
C246 C 0.07336 0.10586 0.2196 0.0
C247 C 0.05383 0.10156 0.07781 0.0
C248 C 0.05033 0.13756 0.97157 0.0
H249 H 0.93365 0.89694 0.65087 0.0
H250 H 0.96356 0.96454 0.70232 0.0
C251 C 0.06715 0.17615 0.99731 0.0
C252 C 0.03703 0.05972 0.03916 0.0
H253 H 1.01868 0.98739 0.69694 0.0
C254 C 0.02049 0.03974 0.17916 0.0
C255 C 0.03648 0.04031 0.86322 0.0
C256 C 0.05466 0.05881 0.70856 0.0
C257 C 1.00297 1.00163 0.14728 0.0
C258 C 1.00236 0.98228 0.97116 0.0
C259 C 1.01898 1.0022 0.83136 0.0
C260 C 0.98522 0.94079 0.93123 0.0
C261 C 0.98475 0.98321 0.30188 0.0
C262 C 0.9881 0.9045 0.03736 0.0
C263 C 0.97101 0.86625 0.00918 0.0
C264 C 0.95088 0.86291 0.87159 0.0
C265 C 0.94898 0.89844 0.75756 0.0
C266 C 0.966 0.93711 0.78753 0.0
H267 H 0.98143 1.00801 0.40452 0.0
H268 H 0.96465 0.96848 0.24962 0.0
H269 H 0.99453 0.95821 0.37407 0.0
H270 H 1.00335 0.90589 0.14454 0.0
H271 H 0.97328 0.83935 0.09806 0.0
H272 H 0.5839 0.18663 0.19591 0.0
H273 H 0.55334 0.12035 0.2269 0.0
H274 H 0.56212 0.09518 0.64934 0.0
H275 H 0.59357 0.16197 0.61712 0.0
H276 H 0.50438 0.09349 0.06529 0.0
H277 H 0.57981 0.98467 0.88766 0.0
H278 H 0.58956 0.04061 0.9364 0.0
H279 H 0.57539 0.0243 0.71643 0.0
C280 C 0.57945 0.16722 0.0744 0.0
C281 C 0.59144 0.17971 0.90373 0.0
C282 C 0.56183 0.12918 0.09283 0.0
C283 C 0.55563 0.10232 0.94153 0.0
C284 C 0.567 0.11495 0.76923 0.0
H285 H 0.45495 0.85991 0.81022 0.0
H286 H 0.48558 0.92613 0.77988 0.0
C287 C 0.58482 0.15328 0.7505 0.0
C288 C 0.53727 0.06133 0.96743 0.0
H289 H 0.53468 0.95271 0.94216 0.0
C290 C 0.51102 0.06269 0.03844 0.0
C291 C 0.54596 1.02108 0.93399 0.0
C292 C 0.57429 1.01731 0.86596 0.0
C293 C 0.49312 0.02511 0.0736 0.0
C294 C 0.5018 0.98487 0.04009 0.0
C295 C 0.52805 0.98351 0.96909 0.0
C296 C 0.48342 0.9439 0.06566 0.0
C297 C 0.46479 0.02887 0.1417 0.0
C298 C 0.47211 0.93114 0.23796 0.0
C299 C 0.45426 0.89281 0.25635 0.0
C300 C 0.44755 0.86656 0.10271 0.0
C301 C 0.45947 0.87919 0.93203 0.0
C302 C 0.47713 0.9172 0.91396 0.0
H303 H 0.45929 0.06156 0.12071 0.0
H304 H 0.44951 1.00568 0.07073 0.0
H305 H 0.46366 1.0217 0.29106 0.0
H306 H 0.47706 0.95079 0.35811 0.0
H307 H 0.44555 0.88402 0.38974 0.0
H308 H 0.96656 0.62451 0.04819 0.0
H309 H 0.99658 0.57552 0.92533 0.0
H310 H 0.96381 0.58996 0.38331 0.0
H311 H 0.93395 0.63875 0.50438 0.0
H312 H 0.98564 0.4988 0.74699 0.0
H313 H 0.04441 0.61614 0.28265 0.0
H314 H 0.02248 0.63187 0.4609 0.0
H315 H 1.00836 0.61133 0.24641 0.0
C316 C 0.96568 0.61717 0.90303 0.0
C317 C 0.94801 0.6362 0.78626 0.0
C318 C 0.98295 0.58925 0.83265 0.0
C319 C 0.98303 0.57977 0.64389 0.0
C320 C 0.96487 0.59776 0.52816 0.0
H321 H 0.06976 0.41754 0.94506 0.0
H322 H 0.03981 0.4664 0.0693 0.0
C323 C 0.9477 0.62572 0.59807 0.0
C324 C 1.00165 0.55047 0.56827 0.0
H325 H 0.05134 0.54359 0.24721 0.0
C326 C 1.00012 0.50871 0.63856 0.0
C327 C 0.02055 0.56321 0.42603 0.0
C328 C 0.02431 0.60819 0.35059 0.0
C329 C 1.01645 0.4792 0.5683 0.0
C330 C 0.03532 0.49193 0.42592 0.0
C331 C 0.03687 0.53369 0.35572 0.0
C332 C 0.05386 0.4626 0.34973 0.0
C333 C 1.01274 0.43423 0.64376 0.0
C334 C 0.07226 0.44487 0.46448 0.0
C335 C 0.08944 0.41702 0.39372 0.0
C336 C 0.08887 0.40634 0.20567 0.0
C337 C 0.07089 0.42503 0.09002 0.0
C338 C 0.05364 0.45288 0.16119 0.0
H339 H 0.99277 0.42636 0.71344 0.0
H340 H 1.01432 0.41055 0.53304 0.0
H341 H 0.02889 0.43099 0.74634 0.0
H342 H 0.07351 0.45282 0.60915 0.0
H343 H 0.10341 0.40428 0.48664 0.0
H344 H 0.43404 0.63844 0.48393 0.0
H345 H 0.46389 0.59016 0.61035 0.0
H346 H 0.49911 0.57786 0.07492 0.0
H347 H 0.46933 0.62667 0.94682 0.0
H348 H 0.48696 0.49989 0.25604 0.0
H349 H 0.54484 0.61807 0.71929 0.0
H350 H 0.50863 0.61362 0.74729 0.0
H351 H 0.5238 0.63351 0.53457 0.0
C352 C 0.44833 0.62608 0.39272 0.0
C353 C 0.44942 0.63721 0.20482 0.0
C354 C 0.46546 0.59834 0.46576 0.0
C355 C 0.48426 0.58104 0.35344 0.0
C356 C 0.48496 0.59107 0.16495 0.0
H357 H 0.60461 0.40654 0.52493 0.0
H358 H 0.57468 0.4549 0.40023 0.0
C359 C 0.4678 0.6189 0.09156 0.0
C360 C 0.50277 0.55191 0.43233 0.0
H361 H 0.55213 0.54579 0.75694 0.0
C362 C 0.50131 0.51002 0.36481 0.0
C363 C 0.52148 0.56496 0.57498 0.0
C364 C 0.52506 0.61009 0.64743 0.0
C365 C 0.51758 0.48069 0.43816 0.0
C366 C 0.53632 0.49375 0.58073 0.0
C367 C 0.53775 0.53564 0.64832 0.0
C368 C 0.55494 0.46469 0.65889 0.0
C369 C 0.51396 0.43557 0.36553 0.0
C370 C 0.55472 0.45512 0.84787 0.0
C371 C 0.57201 0.42737 0.92036 0.0
C372 C 0.58999 0.40863 0.80554 0.0
C373 C 0.59061 0.41928 0.6172 0.0
C374 C 0.57341 0.44702 0.54518 0.0
H375 H 0.49399 0.42746 0.29619 0.0
H376 H 0.5301 0.43222 0.26324 0.0
H377 H 0.5156 0.41212 0.47772 0.0
H378 H 0.54085 0.46864 0.939 0.0
H379 H 0.57089 0.41992 0.06556 0.0
loop_
_geom_bond_atom_site_label_1
_geom_bond_atom_site_label_2
_geom_bond_distance
_geom_bond_site_symmetry_2
_ccdc_geom_bond_type
Cu0 N1 1.999 . S
Cu0 O6 1.974 . S
Cu0 N11 1.985 . S
Cu0 O20 1.959 . S
N1 Cu0 1.999 . S
N1 C3 1.263 . S
N1 C5 1.389 . S
N2 C3 1.358 . S
N2 C4 1.400 . S
C3 N1 1.263 . S
C3 N2 1.358 . S
C3 H9 0.930 . S
C4 N2 1.400 . S
C4 C5 1.351 . S
C4 H21 0.930 . S
C5 N1 1.389 . S
C5 C4 1.351 . S
C5 H10 0.930 . S
O6 Cu0 1.974 . S
O6 C16 1.282 . S
C7 O8 1.261 . S
C7 O20 1.251 . S
O8 C7 1.261 . S
H9 C3 0.930 . S
H10 C5 0.930 . S
N11 Cu0 1.985 . S
N11 C13 1.335 . S
N11 C14 1.390 . S
N12 C13 1.345 . S
N12 C15 1.336 . S
C13 N11 1.335 . S
C13 N12 1.345 . S
C13 H18 0.930 . S
C14 N11 1.390 . S
C14 C15 1.346 . S
C14 H19 0.930 . S
C15 N12 1.336 . S
C15 C14 1.346 . S
C15 H22 0.929 . S
C16 O6 1.282 . S
C16 O17 1.216 . S
O17 C16 1.216 . S
H18 C13 0.930 . S
H19 C14 0.930 . S
O20 Cu0 1.959 . S
O20 C7 1.251 . S
H21 C4 0.930 . S
H22 C15 0.929 . S
Cu23 N24 1.999 . S
Cu23 O29 1.974 . S
Cu23 N34 1.985 . S
Cu23 O43 1.959 . S
N24 Cu23 1.999 . S
N24 C26 1.263 . S
N24 C28 1.389 . S
N25 C26 1.358 . S
N25 C27 1.400 . S
C26 N24 1.263 . S
C26 N25 1.358 . S
C26 H32 0.930 . S
C27 N25 1.400 . S
C27 C28 1.351 . S
C27 H44 0.930 . S
C28 N24 1.389 . S
C28 C27 1.351 . S
C28 H33 0.930 . S
O29 Cu23 1.974 . S
O29 C39 1.282 . S
C30 O31 1.261 . S
C30 O43 1.251 . S
O31 C30 1.261 . S
H32 C26 0.930 . S
H33 C28 0.930 . S
N34 Cu23 1.985 . S
N34 C36 1.335 . S
N34 C37 1.390 . S
N35 C36 1.345 . S
N35 C38 1.336 . S
C36 N34 1.335 . S
C36 N35 1.345 . S
C36 H41 0.930 . S
C37 N34 1.390 . S
C37 C38 1.346 . S
C37 H42 0.930 . S
C38 N35 1.336 . S
C38 C37 1.346 . S
C38 H45 0.929 . S
C39 O29 1.282 . S
C39 O40 1.216 . S
O40 C39 1.216 . S
H41 C36 0.930 . S
H42 C37 0.930 . S
O43 Cu23 1.959 . S
O43 C30 1.251 . S
H44 C27 0.930 . S
H45 C38 0.929 . S
Cu46 N47 1.999 . S
Cu46 O52 1.974 . S
Cu46 N57 1.985 . S
Cu46 O66 1.959 . S
N47 Cu46 1.999 . S
N47 C49 1.263 . S
N47 C51 1.389 . S
N48 C49 1.358 . S
N48 C50 1.400 . S
C49 N47 1.263 . S
C49 N48 1.358 . S
C49 H55 0.930 . S
C50 N48 1.400 . S
C50 C51 1.351 . S
C50 H67 0.930 . S
C51 N47 1.389 . S
C51 C50 1.351 . S
C51 H56 0.930 . S
O52 Cu46 1.974 . S
O52 C62 1.282 . S
C53 O54 1.261 . S
C53 O66 1.251 . S
O54 C53 1.261 . S
H55 C49 0.930 . S
H56 C51 0.930 . S
N57 Cu46 1.985 . S
N57 C59 1.335 . S
N57 C60 1.390 . S
N58 C59 1.345 . S
N58 C61 1.336 . S
C59 N57 1.335 . S
C59 N58 1.345 . S
C59 H64 0.930 . S
C60 N57 1.390 . S
C60 C61 1.346 . S
C60 H65 0.930 . S
C61 N58 1.336 . S
C61 C60 1.346 . S
C61 H68 0.929 . S
C62 O52 1.282 . S
C62 O63 1.216 . S
O63 C62 1.216 . S
H64 C59 0.930 . S
H65 C60 0.930 . S
O66 Cu46 1.959 . S
O66 C53 1.251 . S
H67 C50 0.930 . S
H68 C61 0.929 . S
Cu69 N70 1.999 . S
Cu69 O75 1.974 . S
Cu69 N80 1.985 . S
Cu69 O89 1.959 . S
N70 Cu69 1.999 . S
N70 C72 1.263 . S
N70 C74 1.389 . S
N71 C72 1.358 . S
N71 C73 1.400 . S
C72 N70 1.263 . S
C72 N71 1.358 . S
C72 H78 0.930 . S
C73 N71 1.400 . S
C73 C74 1.351 . S
C73 H90 0.930 . S
C74 N70 1.389 . S
C74 C73 1.351 . S
C74 H79 0.930 . S
O75 Cu69 1.974 . S
O75 C85 1.282 . S
C76 O77 1.261 . S
C76 O89 1.251 . S
O77 C76 1.261 . S
H78 C72 0.930 . S
H79 C74 0.930 . S
N80 Cu69 1.985 . S
N80 C82 1.335 . S
N80 C83 1.390 . S
N81 C82 1.345 . S
N81 C84 1.336 . S
C82 N80 1.335 . S
C82 N81 1.345 . S
C82 H87 0.930 . S
C83 N80 1.390 . S
C83 C84 1.346 . S
C83 H88 0.930 . S
C84 N81 1.336 . S
C84 C83 1.346 . S
C84 H91 0.929 . S
C85 O75 1.282 . S
C85 O86 1.216 . S
O86 C85 1.216 . S
H87 C82 0.930 . S
H88 C83 0.930 . S
O89 Cu69 1.959 . S
O89 C76 1.251 . S
H90 C73 0.930 . S
H91 C84 0.929 . S
H92 C100 0.929 . S
H93 C102 0.930 . S
H94 C104 0.930 . S
H95 C107 0.929 . S
H96 C110 0.930 . S
H97 C112 0.960 . S
H98 C112 0.960 . S
H99 C112 0.960 . S
C100 H92 0.929 . S
C100 C101 1.377 . S
C100 C102 1.384 . S
C101 C100 1.377 . S
C101 C107 1.390 . S
C102 H93 0.930 . S
C102 C100 1.384 . S
C102 C103 1.372 . S
C103 C102 1.372 . S
C103 C104 1.400 . S
C103 C108 1.490 . S
C104 H94 0.930 . S
C104 C103 1.400 . S
C104 C107 1.386 . S
H105 C121 0.930 . S
H106 C122 0.931 . S
C107 H95 0.929 . S
C107 C101 1.390 . S
C107 C104 1.386 . S
C108 C103 1.490 . S
C108 C110 1.395 1_565 S
C108 C111 1.403 . S
H109 C115 0.930 . S
C110 H96 0.930 . S
C110 C108 1.395 1_545 S
C110 C113 1.403 . S
C111 C108 1.403 . S
C111 C112 1.524 . S
C111 C115 1.400 . S
C112 H97 0.960 . S
C112 H98 0.960 . S
C112 H99 0.960 . S
C112 C111 1.524 . S
C113 C110 1.403 . S
C113 C114 1.392 . S
C113 C117 1.495 . S
C114 C113 1.392 . S
C114 C115 1.385 1_545 S
C114 C116 1.478 . S
C115 H109 0.930 . S
C115 C111 1.400 . S
C115 C114 1.385 1_565 S
C116 C114 1.478 . S
C116 C118 1.381 . S
C116 C122 1.383 . S
C117 C113 1.495 . S
C117 H123 0.959 . S
C117 H124 0.961 . S
C117 H125 0.960 . S
C118 C116 1.381 . S
C118 C119 1.394 . S
C118 H126 0.930 . S
C119 C118 1.394 . S
C119 C120 1.383 . S
C119 H127 0.929 . S
C120 C119 1.383 . S
C120 C121 1.377 . S
C121 H105 0.930 . S
C121 C120 1.377 . S
C121 C122 1.379 . S
C122 H106 0.931 . S
C122 C116 1.383 . S
C122 C121 1.379 . S
H123 C117 0.959 . S
H124 C117 0.961 . S
H125 C117 0.960 . S
H126 C118 0.930 . S
H127 C119 0.929 . S
H128 C136 0.929 . S
H129 C138 0.930 . S
H130 C140 0.930 . S
H131 C143 0.929 . S
H132 C146 0.930 . S
H133 C148 0.960 . S
H134 C148 0.960 . S
H135 C148 0.960 . S
C136 H128 0.929 . S
C136 C137 1.377 . S
C136 C138 1.384 . S
C137 C136 1.377 . S
C137 C143 1.390 . S
C138 H129 0.930 . S
C138 C136 1.384 . S
C138 C139 1.372 . S
C139 C138 1.372 . S
C139 C140 1.400 . S
C139 C144 1.490 . S
C140 H130 0.930 . S
C140 C139 1.400 . S
C140 C143 1.386 . S
H141 C157 0.930 . S
H142 C158 0.931 . S
C143 H131 0.929 . S
C143 C137 1.390 . S
C143 C140 1.386 . S
C144 C139 1.490 . S
C144 C146 1.395 . S
C144 C147 1.403 . S
H145 C151 0.930 . S
C146 H132 0.930 . S
C146 C144 1.395 . S
C146 C149 1.403 . S
C147 C144 1.403 . S
C147 C148 1.524 . S
C147 C151 1.400 . S
C148 H133 0.960 . S
C148 H134 0.960 . S
C148 H135 0.960 . S
C148 C147 1.524 . S
C149 C146 1.403 . S
C149 C150 1.392 . S
C149 C153 1.495 . S
C150 C149 1.392 . S
C150 C151 1.385 . S
C150 C152 1.478 . S
C151 H145 0.930 . S
C151 C147 1.400 . S
C151 C150 1.385 . S
C152 C150 1.478 . S
C152 C154 1.381 . S
C152 C158 1.383 . S
C153 C149 1.495 . S
C153 H159 0.959 . S
C153 H160 0.961 . S
C153 H161 0.960 . S
C154 C152 1.381 . S
C154 C155 1.394 . S
C154 H162 0.930 . S
C155 C154 1.394 . S
C155 C156 1.383 . S
C155 H163 0.929 . S
C156 C155 1.383 . S
C156 C157 1.377 . S
C157 H141 0.930 . S
C157 C156 1.377 . S
C157 C158 1.379 . S
C158 H142 0.931 . S
C158 C152 1.383 . S
C158 C157 1.379 . S
H159 C153 0.959 . S
H160 C153 0.961 . S
H161 C153 0.960 . S
H162 C154 0.930 . S
H163 C155 0.929 . S
H164 C172 0.929 . S
H165 C174 0.930 . S
H166 C176 0.930 . S
H167 C179 0.929 . S
H168 C182 0.930 . S
H169 C184 0.960 1_554 S
H170 C184 0.960 1_554 S
H171 C184 0.960 . S
C172 H164 0.929 . S
C172 C173 1.377 . S
C172 C174 1.384 . S
C173 C172 1.377 . S
C173 C179 1.390 . S
C174 H165 0.930 . S
C174 C172 1.384 . S
C174 C175 1.372 . S
C175 C174 1.372 . S
C175 C176 1.400 . S
C175 C180 1.490 . S
C176 H166 0.930 . S
C176 C175 1.400 . S
C176 C179 1.386 . S
H177 C193 0.930 . S
H178 C194 0.931 . S
C179 H167 0.929 . S
C179 C173 1.390 . S
C179 C176 1.386 . S
C180 C175 1.490 . S
C180 C182 1.395 1_545 S
C180 C183 1.403 . S
H181 C187 0.930 . S
C182 H168 0.930 . S
C182 C180 1.395 1_565 S
C182 C185 1.403 . S
C183 C180 1.403 . S
C183 C184 1.524 . S
C183 C187 1.400 1_545 S
C184 H169 0.960 1_556 S
C184 H170 0.960 1_556 S
C184 H171 0.960 . S
C184 C183 1.524 . S
C185 C182 1.403 . S
C185 C186 1.392 . S
C185 C189 1.495 . S
C186 C185 1.392 . S
C186 C187 1.385 . S
C186 C188 1.478 . S
C187 H181 0.930 . S
C187 C183 1.400 1_565 S
C187 C186 1.385 . S
C188 C186 1.478 . S
C188 C190 1.381 . S
C188 C194 1.383 . S
C189 C185 1.495 . S
C189 H195 0.959 . S
C189 H196 0.961 . S
C189 H197 0.960 . S
C190 C188 1.381 . S
C190 C191 1.394 . S
C190 H198 0.930 . S
C191 C190 1.394 . S
C191 C192 1.383 . S
C191 H199 0.929 . S
C192 C191 1.383 . S
C192 C193 1.377 . S
C193 H177 0.930 . S
C193 C192 1.377 . S
C193 C194 1.379 . S
C194 H178 0.931 . S
C194 C188 1.383 . S
C194 C193 1.379 . S
H195 C189 0.959 . S
H196 C189 0.961 . S
H197 C189 0.960 . S
H198 C190 0.930 . S
H199 C191 0.929 . S
H200 C208 0.929 . S
H201 C210 0.930 . S
H202 C212 0.930 . S
H203 C215 0.929 . S
H204 C218 0.930 . S
H205 C220 0.960 . S
H206 C220 0.960 . S
H207 C220 0.960 . S
C208 H200 0.929 . S
C208 C209 1.377 . S
C208 C210 1.384 . S
C209 C208 1.377 . S
C209 C215 1.390 . S
C210 H201 0.930 . S
C210 C208 1.384 . S
C210 C211 1.372 . S
C211 C210 1.372 . S
C211 C212 1.400 . S
C211 C216 1.490 . S
C212 H202 0.930 . S
C212 C211 1.400 . S
C212 C215 1.386 . S
H213 C229 0.930 . S
H214 C230 0.931 . S
C215 H203 0.929 . S
C215 C209 1.390 . S
C215 C212 1.386 . S
C216 C211 1.490 . S
C216 C218 1.395 . S
C216 C219 1.403 . S
H217 C223 0.930 . S
C218 H204 0.930 . S
C218 C216 1.395 . S
C218 C221 1.403 . S
C219 C216 1.403 . S
C219 C220 1.524 . S
C219 C223 1.400 . S
C220 H205 0.960 . S
C220 H206 0.960 . S
C220 H207 0.960 . S
C220 C219 1.524 . S
C221 C218 1.403 . S
C221 C222 1.392 . S
C221 C225 1.495 . S
C222 C221 1.392 . S
C222 C223 1.385 . S
C222 C224 1.478 . S
C223 H217 0.930 . S
C223 C219 1.400 . S
C223 C222 1.385 . S
C224 C222 1.478 . S
C224 C226 1.381 . S
C224 C230 1.383 . S
C225 C221 1.495 . S
C225 H231 0.959 . S
C225 H232 0.961 . S
C225 H233 0.960 . S
C226 C224 1.381 . S
C226 C227 1.394 . S
C226 H234 0.930 . S
C227 C226 1.394 . S
C227 C228 1.383 . S
C227 H235 0.929 . S
C228 C227 1.383 . S
C228 C229 1.377 . S
C229 H213 0.930 . S
C229 C228 1.377 . S
C229 C230 1.379 . S
C230 H214 0.931 . S
C230 C224 1.383 . S
C230 C229 1.379 . S
H231 C225 0.959 . S
H232 C225 0.961 . S
H233 C225 0.960 . S
H234 C226 0.930 . S
H235 C227 0.929 . S
H236 C244 0.929 . S
H237 C246 0.930 . S
H238 C248 0.930 . S
H239 C251 0.929 . S
H240 C254 0.930 . S
H241 C256 0.960 1_565 S
H242 C256 0.960 . S
H243 C256 0.960 . S
C244 H236 0.929 . S
C244 C245 1.377 . S
C244 C246 1.384 . S
C245 C244 1.377 . S
C245 C251 1.390 1_554 S
C246 H237 0.930 . S
C246 C244 1.384 . S
C246 C247 1.372 . S
C247 C246 1.372 . S
C247 C248 1.400 1_554 S
C247 C252 1.490 . S
C248 H238 0.930 . S
C248 C247 1.400 1_556 S
C248 C251 1.386 . S
H249 C265 0.930 . S
H250 C266 0.931 . S
C251 H239 0.929 . S
C251 C245 1.390 1_556 S
C251 C248 1.386 . S
C252 C247 1.490 . S
C252 C254 1.395 1_455 S
C252 C255 1.403 1_554 S
H253 C259 0.930 . S
C254 H240 0.930 . S
C254 C252 1.395 1_655 S
C254 C257 1.403 1_545 S
C255 C252 1.403 1_556 S
C255 C256 1.524 . S
C255 C259 1.400 1_545 S
C256 H241 0.960 1_545 S
C256 H242 0.960 . S
C256 H243 0.960 . S
C256 C255 1.524 . S
C257 C254 1.403 1_565 S
C257 C258 1.392 1_554 S
C257 C261 1.495 . S
C258 C257 1.392 1_556 S
C258 C259 1.385 1_655 S
C258 C260 1.478 . S
C259 H253 0.930 . S
C259 C255 1.400 1_565 S
C259 C258 1.385 1_455 S
C260 C258 1.478 . S
C260 C262 1.381 1_556 S
C260 C266 1.383 . S
C261 C257 1.495 . S
C261 H267 0.959 1_565 S
C261 H268 0.961 . S
C261 H269 0.960 . S
C262 C260 1.381 1_554 S
C262 C263 1.394 . S
C262 H270 0.930 . S
C263 C262 1.394 . S
C263 C264 1.383 1_554 S
C263 H271 0.929 . S
C264 C263 1.383 1_556 S
C264 C265 1.377 . S
C265 H249 0.930 . S
C265 C264 1.377 . S
C265 C266 1.379 . S
C266 H250 0.931 . S
C266 C260 1.383 . S
C266 C265 1.379 . S
H267 C261 0.959 1_545 S
H268 C261 0.961 . S
H269 C261 0.960 . S
H270 C262 0.930 . S
H271 C263 0.929 . S
H272 C280 0.929 . S
H273 C282 0.930 . S
H274 C284 0.930 . S
H275 C287 0.929 . S
H276 C290 0.930 . S
H277 C292 0.960 . S
H278 C292 0.960 1_544 S
H279 C292 0.965 . S
C280 H272 0.929 . S
C280 C281 1.377 1_554 S
C280 C282 1.384 . S
C281 C280 1.377 1_556 S
C281 C287 1.390 . S
C282 H273 0.930 . S
C282 C280 1.384 . S
C282 C283 1.372 1_554 S
C283 C282 1.372 1_556 S
C283 C284 1.400 . S
C283 C288 1.490 . S
C284 H274 0.930 . S
C284 C283 1.400 . S
C284 C287 1.386 . S
H285 C301 0.930 . S
H286 C302 0.931 . S
C287 H275 0.929 . S
C287 C281 1.390 . S
C287 C284 1.386 . S
C288 C283 1.490 . S
C288 C290 1.395 1_556 S
C288 C291 1.403 1_545 S
H289 C295 0.930 . S
C290 H276 0.930 . S
C290 C288 1.395 1_554 S
C290 C293 1.403 . S
C291 C288 1.403 1_565 S
C291 C292 1.524 . S
C291 C295 1.400 1_556 S
C292 H277 0.960 . S
C292 H278 0.960 1_566 S
C292 H279 0.965 . S
C292 C291 1.524 . S
C293 C290 1.403 . S
C293 C294 1.392 1_545 S
C293 C297 1.495 . S
C294 C293 1.392 1_565 S
C294 C295 1.385 . S
C294 C296 1.478 . S
C295 H289 0.930 . S
C295 C291 1.400 1_554 S
C295 C294 1.385 . S
C296 C294 1.478 . S
C296 C298 1.381 . S
C296 C302 1.383 1_554 S
C297 C293 1.495 . S
C297 H303 0.959 . S
C297 H304 0.961 1_554 S
C297 H305 0.960 . S
C298 C296 1.381 . S
C298 C299 1.394 . S
C298 H306 0.930 . S
C299 C298 1.394 . S
C299 C300 1.383 . S
C299 H307 0.929 . S
C300 C299 1.383 . S
C300 C301 1.377 1_554 S
C301 H285 0.930 . S
C301 C300 1.377 1_556 S
C301 C302 1.379 . S
C302 H286 0.931 . S
C302 C296 1.383 1_556 S
C302 C301 1.379 . S
H303 C297 0.959 . S
H304 C297 0.961 1_556 S
H305 C297 0.960 . S
H306 C298 0.930 . S
H307 C299 0.929 . S
H308 C316 0.929 . S
H309 C318 0.930 . S
H310 C320 0.930 . S
H311 C323 0.929 . S
H312 C326 0.930 . S
H313 C328 0.960 . S
H314 C328 0.960 . S
H315 C328 0.960 . S
C316 H308 0.929 . S
C316 C317 1.377 . S
C316 C318 1.384 . S
C317 C316 1.377 . S
C317 C323 1.390 . S
C318 H309 0.930 . S
C318 C316 1.384 . S
C318 C319 1.372 . S
C319 C318 1.372 . S
C319 C320 1.400 . S
C319 C324 1.490 . S
C320 H310 0.930 . S
C320 C319 1.400 . S
C320 C323 1.386 . S
H321 C337 0.930 . S
H322 C338 0.931 . S
C323 H311 0.929 . S
C323 C317 1.390 . S
C323 C320 1.386 . S
C324 C319 1.490 . S
C324 C326 1.395 . S
C324 C327 1.403 1_655 S
H325 C331 0.930 . S
C326 H312 0.930 . S
C326 C324 1.395 . S
C326 C329 1.403 . S
C327 C324 1.403 1_455 S
C327 C328 1.524 . S
C327 C331 1.400 . S
C328 H313 0.960 . S
C328 H314 0.960 . S
C328 H315 0.960 . S
C328 C327 1.524 . S
C329 C326 1.403 . S
C329 C330 1.392 1_655 S
C329 C333 1.495 . S
C330 C329 1.392 1_455 S
C330 C331 1.385 . S
C330 C332 1.478 . S
C331 H325 0.930 . S
C331 C327 1.400 . S
C331 C330 1.385 . S
C332 C330 1.478 . S
C332 C334 1.381 . S
C332 C338 1.383 . S
C333 C329 1.495 . S
C333 H339 0.959 . S
C333 H340 0.961 . S
C333 H341 0.960 . S
C334 C332 1.381 . S
C334 C335 1.394 . S
C334 H342 0.930 . S
C335 C334 1.394 . S
C335 C336 1.383 . S
C335 H343 0.929 . S
C336 C335 1.383 . S
C336 C337 1.377 . S
C337 H321 0.930 . S
C337 C336 1.377 . S
C337 C338 1.379 . S
C338 H322 0.931 . S
C338 C332 1.383 . S
C338 C337 1.379 . S
H339 C333 0.959 . S
H340 C333 0.961 . S
H341 C333 0.960 . S
H342 C334 0.930 . S
H343 C335 0.929 . S
H344 C352 0.929 . S
H345 C354 0.930 . S
H346 C356 0.930 . S
H347 C359 0.929 . S
H348 C362 0.930 . S
H349 C364 0.960 . S
H350 C364 0.960 . S
H351 C364 0.960 . S
C352 H344 0.929 . S
C352 C353 1.377 . S
C352 C354 1.384 . S
C353 C352 1.377 . S
C353 C359 1.390 . S
C354 H345 0.930 . S
C354 C352 1.384 . S
C354 C355 1.372 . S
C355 C354 1.372 . S
C355 C356 1.400 . S
C355 C360 1.490 . S
C356 H346 0.930 . S
C356 C355 1.400 . S
C356 C359 1.386 . S
H357 C373 0.930 . S
H358 C374 0.931 . S
C359 H347 0.929 . S
C359 C353 1.390 . S
C359 C356 1.386 . S
C360 C355 1.490 . S
C360 C362 1.395 . S
C360 C363 1.403 . S
H361 C367 0.930 . S
C362 H348 0.930 . S
C362 C360 1.395 . S
C362 C365 1.403 . S
C363 C360 1.403 . S
C363 C364 1.524 . S
C363 C367 1.400 . S
C364 H349 0.960 . S
C364 H350 0.960 . S
C364 H351 0.960 . S
C364 C363 1.524 . S
C365 C362 1.403 . S
C365 C366 1.392 . S
C365 C369 1.495 . S
C366 C365 1.392 . S
C366 C367 1.385 . S
C366 C368 1.478 . S
C367 H361 0.930 . S
C367 C363 1.400 . S
C367 C366 1.385 . S
C368 C366 1.478 . S
C368 C370 1.381 . S
C368 C374 1.383 . S
C369 C365 1.495 . S
C369 H375 0.959 . S
C369 H376 0.961 . S
C369 H377 0.960 . S
C370 C368 1.381 . S
C370 C371 1.394 . S
C370 H378 0.930 . S
C371 C370 1.394 . S
C371 C372 1.383 . S
C371 H379 0.929 . S
C372 C371 1.383 . S
C372 C373 1.377 . S
C373 H357 0.930 . S
C373 C372 1.377 . S
C373 C374 1.379 . S
C374 H358 0.931 . S
C374 C368 1.383 . S
C374 C373 1.379 . S
H375 C369 0.959 . S
H376 C369 0.961 . S
H377 C369 0.960 . S
H378 C370 0.930 . S
H379 C371 0.929 . S
C101 N25 1.443 . S
C120 N2 1.429 . S
C137 C7 1.484 . S
C156 C30 1.481 . S
C173 N71 1.454 . S
C192 N48 1.421 . S
C209 C53 1.486 . S
C228 C76 1.477 . S
C245 C16 1.486 . S
C264 C62 1.476 . S
C281 C85 1.482 . S
C300 C39 1.486 . S
C317 N58 1.468 . S
C336 N12 1.446 . S
C353 N35 1.473 . S
C372 N81 1.465 . S
