# Generated by pormake.
# Topology wkl, (6)-cn, num edge types: 1
# Building blocks:
#     Node 0, Type 0, BuildingBlock: IZENUY_clean_sbu_0, # of connection points: 6
#     Node 1, Type 0, BuildingBlock: IZENUY_clean_sbu_0, # of connection points: 6
#     Node 2, Type 0, BuildingBlock: IZENUY_clean_sbu_0, # of connection points: 6
#     Node 3, Type 0, BuildingBlock: IZENUY_clean_sbu_0, # of connection points: 6
#     Node 4, Type 0, BuildingBlock: IZENUY_clean_sbu_0, # of connection points: 6
#     Node 5, Type 0, BuildingBlock: IZENUY_clean_sbu_0, # of connection points: 6
#     Node 6, Type 0, BuildingBlock: IZENUY_clean_sbu_0, # of connection points: 6
#     Node 7, Type 0, BuildingBlock: IZENUY_clean_sbu_0, # of connection points: 6
#     Node 8, Type 0, BuildingBlock: IZENUY_clean_sbu_0, # of connection points: 6
#     Node 9, Type 0, BuildingBlock: IZENUY_clean_sbu_0, # of connection points: 6
#     Node 10, Type 0, BuildingBlock: IZENUY_clean_sbu_0, # of connection points: 6
#     Node 11, Type 0, BuildingBlock: IZENUY_clean_sbu_0, # of connection points: 6
#     Edge 12, Type (0, 0), BuildingBlock: XUDNAN_clean_linker_2, # of connection points: 2
#     Edge 13, Type (0, 0), BuildingBlock: XUDNAN_clean_linker_2, # of connection points: 2
#     Edge 14, Type (0, 0), BuildingBlock: XUDNAN_clean_linker_2, # of connection points: 2
#     Edge 15, Type (0, 0), BuildingBlock: XUDNAN_clean_linker_2, # of connection points: 2
#     Edge 16, Type (0, 0), BuildingBlock: XUDNAN_clean_linker_2, # of connection points: 2
#     Edge 17, Type (0, 0), BuildingBlock: XUDNAN_clean_linker_2, # of connection points: 2
#     Edge 18, Type (0, 0), BuildingBlock: XUDNAN_clean_linker_2, # of connection points: 2
#     Edge 19, Type (0, 0), BuildingBlock: XUDNAN_clean_linker_2, # of connection points: 2
#     Edge 20, Type (0, 0), BuildingBlock: XUDNAN_clean_linker_2, # of connection points: 2
#     Edge 21, Type (0, 0), BuildingBlock: XUDNAN_clean_linker_2, # of connection points: 2
#     Edge 22, Type (0, 0), BuildingBlock: XUDNAN_clean_linker_2, # of connection points: 2
#     Edge 23, Type (0, 0), BuildingBlock: XUDNAN_clean_linker_2, # of connection points: 2
#     Edge 24, Type (0, 0), BuildingBlock: XUDNAN_clean_linker_2, # of connection points: 2
#     Edge 25, Type (0, 0), BuildingBlock: XUDNAN_clean_linker_2, # of connection points: 2
#     Edge 26, Type (0, 0), BuildingBlock: XUDNAN_clean_linker_2, # of connection points: 2
#     Edge 27, Type (0, 0), BuildingBlock: XUDNAN_clean_linker_2, # of connection points: 2
#     Edge 28, Type (0, 0), BuildingBlock: XUDNAN_clean_linker_2, # of connection points: 2
#     Edge 29, Type (0, 0), BuildingBlock: XUDNAN_clean_linker_2, # of connection points: 2
#     Edge 30, Type (0, 0), BuildingBlock: XUDNAN_clean_linker_2, # of connection points: 2
#     Edge 31, Type (0, 0), BuildingBlock: XUDNAN_clean_linker_2, # of connection points: 2
#     Edge 32, Type (0, 0), BuildingBlock: XUDNAN_clean_linker_2, # of connection points: 2
#     Edge 33, Type (0, 0), BuildingBlock: XUDNAN_clean_linker_2, # of connection points: 2
#     Edge 34, Type (0, 0), BuildingBlock: XUDNAN_clean_linker_2, # of connection points: 2
#     Edge 35, Type (0, 0), BuildingBlock: XUDNAN_clean_linker_2, # of connection points: 2
#     Edge 36, Type (0, 0), BuildingBlock: XUDNAN_clean_linker_2, # of connection points: 2
#     Edge 37, Type (0, 0), BuildingBlock: XUDNAN_clean_linker_2, # of connection points: 2
#     Edge 38, Type (0, 0), BuildingBlock: XUDNAN_clean_linker_2, # of connection points: 2
#     Edge 39, Type (0, 0), BuildingBlock: XUDNAN_clean_linker_2, # of connection points: 2
#     Edge 40, Type (0, 0), BuildingBlock: XUDNAN_clean_linker_2, # of connection points: 2
#     Edge 41, Type (0, 0), BuildingBlock: XUDNAN_clean_linker_2, # of connection points: 2
#     Edge 42, Type (0, 0), BuildingBlock: XUDNAN_clean_linker_2, # of connection points: 2
#     Edge 43, Type (0, 0), BuildingBlock: XUDNAN_clean_linker_2, # of connection points: 2
#     Edge 44, Type (0, 0), BuildingBlock: XUDNAN_clean_linker_2, # of connection points: 2
#     Edge 45, Type (0, 0), BuildingBlock: XUDNAN_clean_linker_2, # of connection points: 2
#     Edge 46, Type (0, 0), BuildingBlock: XUDNAN_clean_linker_2, # of connection points: 2
#     Edge 47, Type (0, 0), BuildingBlock: XUDNAN_clean_linker_2, # of connection points: 2
# Relax obj value: 0.387
# Max RMSD: 0.287
# Mean RMSD: 0.287
data_MOF--net-wkl--node1-IZENUY_clean_sbu_0--edge1-XUDNAN_clean_linker_2
_symmetry_space_group_name_H-M    P1
_symmetry_Int_Tables_number       1
_symmetry_cell_setting            triclinic
loop_
_symmetry_equiv_pos_as_xyz
'x, y, z'
_cell_length_a     71.262657
_cell_length_b     71.323925
_cell_length_c     15.073747
_cell_angle_alpha  90.043014
_cell_angle_beta   90.077933
_cell_angle_gamma 119.99071
loop_
_atom_site_label
_atom_site_type_symbol
_atom_site_fract_x
_atom_site_fract_y
_atom_site_fract_z
_atom_type_partial_charge
Fe0 Fe 0.4834 0.11446 0.10439 0.0
Fe1 Fe 0.50397 0.15306 0.97971 0.0
O2 O 0.48081 0.13308 0.03685 0.0
Fe3 Fe 0.45561 0.13234 0.03109 0.0
O4 O 0.45536 0.13638 0.15079 0.0
O5 O 0.46317 0.11139 0.18639 0.0
O6 O 0.50279 0.13654 0.17199 0.0
C7 C 0.52157 0.14914 0.14469 0.0
C8 C 0.44444 0.08771 0.02878 0.0
O9 O 0.52414 0.1549 0.0638 0.0
C10 C 0.46922 0.14077 0.85807 0.0
O11 O 0.50432 0.11365 0.03492 0.0
O12 O 0.5067 0.13276 0.91739 0.0
O13 O 0.43929 0.10231 0.04039 0.0
O14 O 0.46368 0.0919 0.04022 0.0
C15 C 0.4865 0.17732 0.04018 0.0
O16 O 0.48819 0.15424 0.88494 0.0
O17 O 0.45444 0.12874 0.9116 0.0
C18 C 0.50977 0.11869 0.95455 0.0
O19 O 0.50269 0.17457 0.0382 0.0
O20 O 0.46768 0.16198 0.02046 0.0
C21 C 0.4577 0.12501 0.20891 0.0
Fe22 Fe 0.32578 0.44592 0.19135 0.0
Fe23 Fe 0.37259 0.47854 0.25063 0.0
O24 O 0.34938 0.47203 0.18611 0.0
Fe25 Fe 0.34996 0.49198 0.11495 0.0
O26 O 0.32832 0.49192 0.1758 0.0
O27 O 0.30669 0.45648 0.17751 0.0
O28 O 0.323 0.44803 0.30989 0.0
C29 C 0.33772 0.45303 0.36685 0.0
C30 C 0.32777 0.45439 0.01332 0.0
O31 O 0.35743 0.46158 0.34486 0.0
C32 C 0.39001 0.49798 0.08416 0.0
O33 O 0.34099 0.4313 0.20743 0.0
O34 O 0.37523 0.45707 0.20056 0.0
O35 O 0.33126 0.47301 0.03316 0.0
O36 O 0.32687 0.44157 0.07274 0.0
C37 C 0.37349 0.51681 0.26406 0.0
O38 O 0.39211 0.49679 0.16719 0.0
O39 O 0.37185 0.4929 0.05079 0.0
C40 C 0.36096 0.43733 0.19748 0.0
O41 O 0.37156 0.50064 0.30564 0.0
O42 O 0.36885 0.51521 0.18247 0.0
C43 C 0.30986 0.47561 0.18851 0.0
Fe44 Fe 0.89715 0.36602 0.44711 0.0
Fe45 Fe 0.85903 0.33697 0.32461 0.0
O46 O 0.88195 0.3415 0.38754 0.0
Fe47 Fe 0.88971 0.32146 0.38982 0.0
O48 O 0.88582 0.31838 0.50921 0.0
O49 O 0.90362 0.35335 0.53971 0.0
O50 O 0.87373 0.36138 0.51133 0.0
C51 C 0.85652 0.3591 0.47803 0.0
C52 C 0.93013 0.3605 0.38528 0.0
O53 O 0.85142 0.35273 0.39862 0.0
C54 C 0.88016 0.32161 0.21377 0.0
O55 O 0.89268 0.38277 0.36548 0.0
O56 O 0.87534 0.36034 0.25631 0.0
O57 O 0.91878 0.34056 0.40315 0.0
O58 O 0.9219 0.37257 0.38778 0.0
C59 C 0.84375 0.29677 0.39461 0.0
O60 O 0.86288 0.32111 0.23774 0.0
O61 O 0.89413 0.32358 0.27035 0.0
C62 C 0.88641 0.37934 0.28524 0.0
O63 O 0.84109 0.31294 0.38859 0.0
O64 O 0.86201 0.29861 0.37723 0.0
C65 C 0.89438 0.33373 0.56467 0.0
Fe66 Fe 0.54464 0.87128 0.54159 0.0
Fe67 Fe 0.51318 0.88662 0.60163 0.0
O68 O 0.51865 0.86903 0.53805 0.0
Fe69 Fe 0.49798 0.84902 0.47057 0.0
O70 O 0.49884 0.82759 0.53183 0.0
O71 O 0.53428 0.84205 0.52632 0.0
O72 O 0.54269 0.86632 0.66023 0.0
C73 C 0.53837 0.8766 0.71712 0.0
C74 C 0.53516 0.86441 0.36453 0.0
O75 O 0.53079 0.88861 0.69442 0.0
C76 C 0.49198 0.8832 0.43752 0.0
O77 O 0.55955 0.90078 0.55842 0.0
O78 O 0.53471 0.91039 0.54797 0.0
O79 O 0.51648 0.84938 0.38556 0.0
O80 O 0.54837 0.87653 0.42292 0.0
C81 C 0.47497 0.84911 0.62354 0.0
O82 O 0.4943 0.88761 0.51978 0.0
O83 O 0.49616 0.86937 0.40562 0.0
C84 C 0.55431 0.91515 0.54597 0.0
O85 O 0.49144 0.86416 0.66065 0.0
O86 O 0.47534 0.84507 0.54207 0.0
C87 C 0.5156 0.82596 0.54113 0.0
Fe88 Fe 0.66088 0.51749 0.62029 0.0
Fe89 Fe 0.68604 0.56386 0.69691 0.0
O90 O 0.66239 0.53765 0.69335 0.0
Fe91 Fe 0.64005 0.53144 0.76293 0.0
O92 O 0.64185 0.50959 0.81693 0.0
O93 O 0.64399 0.49467 0.69301 0.0
O94 O 0.6842 0.5184 0.67154 0.0
C95 C 0.70268 0.53499 0.67971 0.0
C96 C 0.61958 0.50986 0.60277 0.0
O97 O 0.70515 0.55389 0.67544 0.0
C98 C 0.65102 0.57237 0.71003 0.0
O99 O 0.67739 0.53638 0.53415 0.0
O100 O 0.68381 0.56838 0.57966 0.0
O101 O 0.61941 0.5126 0.68554 0.0
O102 O 0.63716 0.51506 0.56358 0.0
C103 C 0.67598 0.55676 0.87342 0.0
O104 O 0.67098 0.57832 0.71901 0.0
O105 O 0.63672 0.55262 0.71352 0.0
C106 C 0.68192 0.55555 0.51829 0.0
O107 O 0.69016 0.56144 0.81445 0.0
O108 O 0.65628 0.54904 0.85338 0.0
C109 C 0.64007 0.49341 0.77523 0.0
Fe110 Fe 0.11662 0.67665 0.88892 0.0
Fe111 Fe 0.11503 0.63499 0.95371 0.0
O112 O 0.12645 0.65812 0.88507 0.0
Fe113 Fe 0.14794 0.66275 0.81225 0.0
O114 O 0.16626 0.6881 0.86806 0.0
O115 O 0.14343 0.70049 0.86792 0.0
O116 O 0.12266 0.68189 1.00667 0.0
C117 C 0.11656 0.66754 0.06593 0.0
C118 C 0.12304 0.67545 0.71102 0.0
O119 O 0.10946 0.64792 0.04617 0.0
C120 C 0.12093 0.61921 0.78963 0.0
O121 O 0.08812 0.65596 0.91132 0.0
O122 O 0.0884 0.62525 0.90744 0.0
O123 O 0.14095 0.67665 0.72805 0.0
O124 O 0.10979 0.67282 0.77162 0.0
C125 C 0.15684 0.64446 0.96289 0.0
O126 O 0.11833 0.61774 0.87289 0.0
O127 O 0.1308 0.63755 0.75243 0.0
C128 C 0.07823 0.63547 0.90538 0.0
O129 O 0.14097 0.64298 1.00563 0.0
O130 O 0.15892 0.64938 0.88158 0.0
C131 C 0.16247 0.70351 0.87826 0.0
Fe132 Fe 0.88014 0.5502 0.81571 0.0
Fe133 Fe 0.88847 0.51282 0.76764 0.0
O134 O 0.873 0.52248 0.82221 0.0
Fe135 Fe 0.8503 0.50429 0.88556 0.0
O136 O 0.8326 0.50857 0.81415 0.0
O137 O 0.85151 0.54423 0.81905 0.0
O138 O 0.87761 0.54895 0.69562 0.0
C139 C 0.88613 0.54161 0.64276 0.0
C140 C 0.86946 0.5413 0.99204 0.0
O141 O 0.89478 0.53087 0.67077 0.0
C142 C 0.8782 0.49102 0.93505 0.0
O143 O 0.90978 0.56084 0.81018 0.0
O144 O 0.91251 0.53163 0.82688 0.0
O145 O 0.85244 0.52456 0.96631 0.0
O146 O 0.88349 0.55329 0.93605 0.0
C147 C 0.84897 0.47776 0.74104 0.0
O148 O 0.88459 0.49275 0.85512 0.0
O149 O 0.86718 0.49942 0.95922 0.0
C150 C 0.9206 0.55182 0.83203 0.0
O151 O 0.86531 0.49311 0.70483 0.0
O152 O 0.84379 0.48002 0.819 0.0
C153 C 0.83419 0.52672 0.79955 0.0
Fe154 Fe 0.31986 0.8878 0.99239 0.0
Fe155 Fe 0.36374 0.89536 0.923 0.0
O156 O 0.34075 0.88102 0.99189 0.0
Fe157 Fe 0.33846 0.85979 0.06087 0.0
O158 O 0.3134 0.84004 1.00554 0.0
O159 O 0.29806 0.8601 0.01435 0.0
O160 O 0.3145 0.88178 0.87489 0.0
C161 C 0.32871 0.88944 0.81486 0.0
C162 C 0.3232 0.88145 0.16902 0.0
O163 O 0.34873 0.89891 0.83269 0.0
C164 C 0.38159 0.88964 0.0829 0.0
O165 O 0.3377 0.91671 0.96988 0.0
O166 O 0.37048 0.92121 0.97301 0.0
O167 O 0.32364 0.8645 0.14846 0.0
O168 O 0.32387 0.89434 0.11014 0.0
C169 C 0.35861 0.85491 0.90683 0.0
O170 O 0.38266 0.89413 1.00123 0.0
O171 O 0.36347 0.87802 0.12026 0.0
C172 C 0.35795 0.92889 0.97774 0.0
O173 O 0.35918 0.87076 0.86717 0.0
O174 O 0.35318 0.85136 0.98736 0.0
C175 C 0.29674 0.84199 0.99971 0.0
Fe176 Fe 0.45465 0.32771 0.16203 0.0
Fe177 Fe 0.48532 0.37447 0.09986 0.0
O178 O 0.48037 0.3518 0.16464 0.0
Fe179 Fe 0.50143 0.35341 0.23232 0.0
O180 O 0.50127 0.33138 0.17283 0.0
O181 O 0.46592 0.30937 0.17588 0.0
O182 O 0.45632 0.32461 0.04321 0.0
C183 C 0.46019 0.33903 0.98625 0.0
C184 C 0.4645 0.33078 0.33913 0.0
O185 O 0.46739 0.35854 0.00872 0.0
C186 C 0.50664 0.39328 0.26217 0.0
O187 O 0.43913 0.34199 0.14703 0.0
O188 O 0.46396 0.37653 0.15499 0.0
O189 O 0.48345 0.33528 0.31819 0.0
O190 O 0.45104 0.32909 0.28084 0.0
C191 C 0.52359 0.37551 0.07694 0.0
O192 O 0.50444 0.39484 0.17949 0.0
O193 O 0.50259 0.3755 0.29589 0.0
C194 C 0.44441 0.36169 0.15908 0.0
O195 O 0.5069 0.37362 0.04002 0.0
O196 O 0.52368 0.37212 0.15926 0.0
C197 C 0.48502 0.31269 0.16354 0.0
Fe198 Fe 0.13196 0.4549 0.31399 0.0
Fe199 Fe 0.11828 0.48769 0.25415 0.0
O200 O 0.13517 0.48126 0.31797 0.0
Fe201 Fe 0.15541 0.50141 0.38627 0.0
O202 O 0.17645 0.49993 0.32555 0.0
O203 O 0.16118 0.46439 0.32839 0.0
O204 O 0.13676 0.45671 0.19528 0.0
C205 C 0.12682 0.46151 0.13856 0.0
C206 C 0.13905 0.46406 0.49139 0.0
O207 O 0.11544 0.46979 0.16143 0.0
C208 C 0.12209 0.5087 0.41849 0.0
O209 O 0.10234 0.44099 0.29823 0.0
O210 O 0.09411 0.46685 0.30791 0.0
O211 O 0.15441 0.48257 0.47085 0.0
O212 O 0.12676 0.45115 0.4327 0.0
C213 C 0.15668 0.52497 0.23325 0.0
O214 O 0.11814 0.50701 0.33589 0.0
O215 O 0.13534 0.50376 0.4508 0.0
C216 C 0.0886 0.44709 0.31147 0.0
O217 O 0.14133 0.50887 0.19542 0.0
O218 O 0.16021 0.52436 0.31515 0.0
C219 C 0.17766 0.48297 0.31577 0.0
Fe220 Fe 0.68466 0.11509 0.52551 0.0
Fe221 Fe 0.64052 0.10633 0.4597 0.0
O222 O 0.66388 0.12172 0.52385 0.0
Fe223 Fe 0.66683 0.14463 0.58335 0.0
O224 O 0.69072 0.16294 0.51854 0.0
O225 O 0.70642 0.14329 0.53699 0.0
O226 O 0.68866 0.11869 0.40592 0.0
C227 C 0.67389 0.11 0.34822 0.0
C228 C 0.68366 0.12559 0.69923 0.0
O229 O 0.65414 0.10027 0.37048 0.0
C230 C 0.62499 0.11503 0.62043 0.0
O231 O 0.66627 0.08563 0.5137 0.0
O232 O 0.63359 0.08158 0.5178 0.0
O233 O 0.68336 0.14232 0.67239 0.0
O234 O 0.68207 0.11133 0.64503 0.0
C235 C 0.64364 0.14454 0.42804 0.0
O236 O 0.62241 0.10953 0.53926 0.0
O237 O 0.64356 0.12761 0.65143 0.0
C238 C 0.64596 0.07378 0.5246 0.0
O239 O 0.64695 0.13026 0.39657 0.0
O240 O 0.64946 0.15041 0.50763 0.0
C241 C 0.70735 0.16086 0.51391 0.0
Fe242 Fe 0.55789 0.68276 0.67065 0.0
Fe243 Fe 0.52929 0.63655 0.59924 0.0
O244 O 0.5327 0.65801 0.66852 0.0
Fe245 Fe 0.51062 0.65445 0.73437 0.0
O246 O 0.51038 0.67687 0.681 0.0
O247 O 0.54548 0.70006 0.68555 0.0
O248 O 0.55679 0.68676 0.55201 0.0
C249 C 0.55407 0.67304 0.49342 0.0
C250 C 0.54683 0.67773 0.84691 0.0
O251 O 0.54821 0.65377 0.51405 0.0
C252 C 0.50552 0.61439 0.75275 0.0
O253 O 0.57442 0.66937 0.65605 0.0
O254 O 0.55016 0.63455 0.65798 0.0
O255 O 0.52741 0.67142 0.82569 0.0
O256 O 0.5609 0.68083 0.78933 0.0
C257 C 0.4908 0.63457 0.57157 0.0
O258 O 0.50956 0.61486 0.67084 0.0
O259 O 0.5093 0.6315 0.79234 0.0
C260 C 0.56947 0.64967 0.66666 0.0
O261 O 0.50813 0.63759 0.53668 0.0
O262 O 0.48964 0.63672 0.65444 0.0
C263 C 0.52606 0.69592 0.67416 0.0
H264 H 0.48997 0.13392 0.72115 0.0
H265 H 0.43659 0.14458 0.78073 0.0
H266 H 0.42797 0.14258 0.62012 0.0
H267 H 0.50688 0.16281 0.5143 0.0
H268 H 0.51213 0.1432 0.46163 0.0
H269 H 0.51478 0.14678 0.58014 0.0
H270 H 0.48771 0.10599 0.60262 0.0
H271 H 0.48509 0.10224 0.48417 0.0
H272 H 0.46133 0.09396 0.55139 0.0
H273 H 0.42652 0.14103 0.45032 0.0
H274 H 0.42962 0.13579 0.28912 0.0
H275 H 0.48123 0.12203 0.34456 0.0
C276 C 0.47661 0.13603 0.69998 0.0
C277 C 0.46411 0.13975 0.76257 0.0
C278 C 0.44639 0.14187 0.73327 0.0
C279 C 0.44145 0.1408 0.64236 0.0
C280 C 0.45406 0.13707 0.58196 0.0
C281 C 0.47106 0.13434 0.60986 0.0
C282 C 0.48121 0.12907 0.53256 0.0
C283 C 0.50517 0.14651 0.52153 0.0
C284 C 0.47867 0.10647 0.54334 0.0
C285 C 0.46749 0.12955 0.4566 0.0
C286 C 0.45212 0.13451 0.48597 0.0
C287 C 0.4383 0.13684 0.42681 0.0
C288 C 0.44016 0.13387 0.33549 0.0
C289 C 0.45535 0.12812 0.30466 0.0
C290 C 0.46912 0.12595 0.36638 0.0
H291 H 0.3533 0.47963 0.88148 0.0
H292 H 0.298 0.41623 0.93284 0.0
H293 H 0.294 0.40859 0.77064 0.0
H294 H 0.33472 0.49163 0.68386 0.0
H295 H 0.36087 0.50458 0.6308 0.0
H296 H 0.35909 0.50472 0.74986 0.0
H297 H 0.38334 0.48743 0.762 0.0
H298 H 0.3852 0.48706 0.64307 0.0
H299 H 0.37563 0.46234 0.70521 0.0
H300 H 0.29468 0.40979 0.60035 0.0
H301 H 0.3029 0.41743 0.43996 0.0
H302 H 0.35979 0.47867 0.50597 0.0
C303 C 0.34038 0.4641 0.85854 0.0
C304 C 0.32577 0.44855 0.9188 0.0
C305 C 0.30929 0.42828 0.88709 0.0
C306 C 0.30689 0.4239 0.79538 0.0
C307 C 0.32143 0.43981 0.73736 0.0
C308 C 0.33813 0.45932 0.76819 0.0
C309 C 0.35209 0.47353 0.69337 0.0
C310 C 0.35165 0.49487 0.68926 0.0
C311 C 0.37544 0.47782 0.7014 0.0
C312 C 0.34048 0.45914 0.61502 0.0
C313 C 0.32266 0.43988 0.6412 0.0
C314 C 0.30879 0.42465 0.57934 0.0
C315 C 0.31349 0.42915 0.48865 0.0
C316 C 0.3321 0.44847 0.46134 0.0
C317 C 0.34567 0.46359 0.52543 0.0
H318 H 0.88573 0.35297 0.70243 0.0
H319 H 0.90167 0.30316 0.64184 0.0
H320 H 0.90089 0.29513 0.80241 0.0
H321 H 0.91508 0.372 0.9091 0.0
H322 H 0.89428 0.37536 0.96203 0.0
H323 H 0.89763 0.3781 0.84348 0.0
H324 H 0.85738 0.34876 0.82175 0.0
H325 H 0.85391 0.34594 0.94023 0.0
H326 H 0.84727 0.32258 0.87254 0.0
H327 H 0.89998 0.29396 0.97203 0.0
H328 H 0.89439 0.29645 0.13333 0.0
H329 H 0.87479 0.34387 0.07943 0.0
C330 C 0.88929 0.34054 0.72326 0.0
C331 C 0.89413 0.3289 0.66025 0.0
C332 C 0.89809 0.31233 0.68939 0.0
C333 C 0.89774 0.30773 0.78033 0.0
C334 C 0.89289 0.31951 0.84099 0.0
C335 C 0.88837 0.33533 0.81338 0.0
C336 C 0.88213 0.34461 0.89098 0.0
C337 C 0.89824 0.36895 0.90203 0.0
C338 C 0.85878 0.3402 0.88074 0.0
C339 C 0.884 0.33167 0.96673 0.0
C340 C 0.89063 0.31756 0.93698 0.0
C341 C 0.8945 0.30473 0.9958 0.0
C342 C 0.89134 0.30625 0.08713 0.0
C343 C 0.88383 0.32005 0.11821 0.0
C344 C 0.88013 0.33286 0.05705 0.0
H345 H 0.51165 0.86792 0.23201 0.0
H346 H 0.57159 0.86828 0.28466 0.0
H347 H 0.57934 0.87132 0.12277 0.0
H348 H 0.49668 0.83775 0.03295 0.0
H349 H 0.48669 0.85367 0.97965 0.0
H350 H 0.48608 0.85148 0.09869 0.0
H351 H 0.50798 0.89316 0.11243 0.0
H352 H 0.50875 0.89566 0.99356 0.0
H353 H 0.53363 0.90815 0.05646 0.0
H354 H 0.57844 0.87123 0.95238 0.0
H355 H 0.57164 0.87301 0.79179 0.0
H356 H 0.51414 0.87639 0.856 0.0
C357 C 0.52645 0.86873 0.2093 0.0
C358 C 0.54098 0.86768 0.2699 0.0
C359 C 0.56033 0.86907 0.23862 0.0
C360 C 0.56477 0.87071 0.14706 0.0
C361 C 0.54992 0.87148 0.08863 0.0
C362 C 0.53138 0.871 0.11898 0.0
C363 C 0.51837 0.87286 0.04365 0.0
C364 C 0.49562 0.85274 0.03845 0.0
C365 C 0.51713 0.89371 0.05203 0.0
C366 C 0.53217 0.87397 0.96564 0.0
C367 C 0.55019 0.8729 0.99241 0.0
C368 C 0.56459 0.87245 0.93094 0.0
C369 C 0.56058 0.87337 0.84006 0.0
C370 C 0.54257 0.87516 0.81204 0.0
C371 C 0.52827 0.87547 0.87583 0.0
H372 H 0.65111 0.53413 0.01194 0.0
H373 H 0.71414 0.58866 0.94738 0.0
H374 H 0.72207 0.5963 0.10825 0.0
H375 H 0.63959 0.55742 0.19843 0.0
H376 H 0.6269 0.53267 0.26146 0.0
H377 H 0.62597 0.53166 0.14205 0.0
H378 H 0.6433 0.50733 0.13988 0.0
H379 H 0.64368 0.50756 0.25919 0.0
H380 H 0.66839 0.51589 0.19844 0.0
H381 H 0.72203 0.59823 0.27879 0.0
H382 H 0.71611 0.59114 0.44098 0.0
H383 H 0.65395 0.53429 0.38683 0.0
C384 C 0.66658 0.54775 0.03153 0.0
C385 C 0.68196 0.56099 0.96778 0.0
C386 C 0.70218 0.57837 0.99569 0.0
C387 C 0.70672 0.58288 0.08662 0.0
C388 C 0.69094 0.56966 0.14792 0.0
C389 C 0.67143 0.55222 0.12114 0.0
C390 C 0.65747 0.53974 0.19893 0.0
C391 C 0.63623 0.54043 0.20023 0.0
C392 C 0.65297 0.51625 0.1991 0.0
C393 C 0.6722 0.55277 0.27419 0.0
C394 C 0.69128 0.57022 0.24415 0.0
C395 C 0.70718 0.58458 0.3029 0.0
C396 C 0.70367 0.58059 0.39453 0.0
C397 C 0.68462 0.56223 0.4252 0.0
C398 C 0.66866 0.54843 0.36441 0.0
H399 H 0.11844 0.64765 0.58188 0.0
H400 H 0.11752 0.70696 0.63173 0.0
H401 H 0.11497 0.71164 0.46933 0.0
H402 H 0.15067 0.66384 0.39327 0.0
H403 H 0.13593 0.63811 0.33736 0.0
H404 H 0.13616 0.63925 0.45657 0.0
H405 H 0.09371 0.6191 0.45849 0.0
H406 H 0.09409 0.61751 0.33918 0.0
H407 H 0.07994 0.6295 0.39214 0.0
H408 H 0.11643 0.71118 0.2989 0.0
H409 H 0.11756 0.70363 0.1387 0.0
H410 H 0.11599 0.64376 0.20699 0.0
C411 C 0.11723 0.66136 0.5584 0.0
C412 C 0.118 0.67689 0.61802 0.0
C413 C 0.11661 0.69479 0.58612 0.0
C414 C 0.11531 0.6976 0.49435 0.0
C415 C 0.1151 0.68216 0.4366 0.0
C416 C 0.11557 0.66416 0.46787 0.0
C417 C 0.11536 0.64995 0.39328 0.0
C418 C 0.13574 0.64767 0.39526 0.0
C419 C 0.09454 0.6277 0.39589 0.0
C420 C 0.11543 0.66306 0.31466 0.0
C421 C 0.11528 0.68159 0.34033 0.0
C422 C 0.11622 0.69655 0.27815 0.0
C423 C 0.11698 0.69221 0.1875 0.0
C424 C 0.11663 0.67302 0.16049 0.0
C425 C 0.11594 0.65842 0.22533 0.0
H426 H 0.86084 0.5124 0.12659 0.0
H427 H 0.88757 0.58086 0.0752 0.0
H428 H 0.89482 0.58849 0.23613 0.0
H429 H 0.83603 0.50944 0.33808 0.0
H430 H 0.84358 0.49094 0.38546 0.0
H431 H 0.83942 0.49091 0.26758 0.0
H432 H 0.87788 0.49698 0.2398 0.0
H433 H 0.88215 0.49708 0.35766 0.0
H434 H 0.90089 0.51972 0.29099 0.0
H435 H 0.89717 0.58815 0.40498 0.0
H436 H 0.89805 0.58051 0.56488 0.0
H437 H 0.87401 0.51289 0.50395 0.0
C438 C 0.868 0.52898 0.1494 0.0
C439 C 0.87326 0.54605 0.08861 0.0
C440 C 0.88321 0.56757 0.1207 0.0
C441 C 0.88737 0.57201 0.21196 0.0
C442 C 0.88206 0.55482 0.27013 0.0
C443 C 0.87291 0.53375 0.23983 0.0
C444 C 0.86988 0.51834 0.31522 0.0
C445 C 0.84579 0.50142 0.32728 0.0
C446 C 0.88352 0.50739 0.29999 0.0
C447 C 0.87843 0.53396 0.39311 0.0
C448 C 0.88509 0.55488 0.36586 0.0
C449 C 0.89233 0.57189 0.42666 0.0
C450 C 0.89277 0.56743 0.51733 0.0
C451 C 0.88653 0.54624 0.54647 0.0
C452 C 0.8794 0.52935 0.48322 0.0
H453 H 0.34322 0.87506 0.68173 0.0
H454 H 0.3008 0.90076 0.73816 0.0
H455 H 0.29461 0.9021 0.57634 0.0
H456 H 0.36836 0.90527 0.49106 0.0
H457 H 0.36872 0.88336 0.43284 0.0
H458 H 0.36924 0.88398 0.55216 0.0
H459 H 0.33525 0.8458 0.55677 0.0
H460 H 0.33488 0.84496 0.43737 0.0
H461 H 0.31118 0.84071 0.49722 0.0
H462 H 0.29628 0.90365 0.40578 0.0
H463 H 0.30126 0.90019 0.24445 0.0
H464 H 0.34048 0.87107 0.30622 0.0
C465 C 0.33242 0.88073 0.65983 0.0
C466 C 0.32249 0.88787 0.72127 0.0
C467 C 0.30838 0.89509 0.69125 0.0
C468 C 0.30492 0.89603 0.59982 0.0
C469 C 0.31539 0.88927 0.54042 0.0
C470 C 0.32847 0.8813 0.56968 0.0
C471 C 0.33751 0.87453 0.49359 0.0
C472 C 0.36244 0.88759 0.49245 0.0
C473 C 0.32919 0.85005 0.49642 0.0
C474 C 0.32796 0.88042 0.41646 0.0
C475 C 0.31541 0.88909 0.44414 0.0
C476 C 0.30581 0.89658 0.38348 0.0
C477 C 0.30882 0.89471 0.29228 0.0
C478 C 0.32101 0.88515 0.26352 0.0
C479 C 0.33077 0.87812 0.32659 0.0
H480 H 0.48566 0.3622 0.84914 0.0
H481 H 0.42612 0.30303 0.91035 0.0
H482 H 0.41959 0.2947 0.74936 0.0
H483 H 0.46853 0.37636 0.6485 0.0
H484 H 0.49415 0.38573 0.59364 0.0
H485 H 0.49317 0.3873 0.7126 0.0
H486 H 0.51292 0.36522 0.72788 0.0
H487 H 0.51393 0.36364 0.60892 0.0
H488 H 0.50176 0.33921 0.67416 0.0
H489 H 0.4191 0.29427 0.57892 0.0
H490 H 0.42718 0.29911 0.41733 0.0
H491 H 0.48877 0.35657 0.47336 0.0
C492 C 0.47116 0.34757 0.82848 0.0
C493 C 0.45619 0.33338 0.89142 0.0
C494 C 0.43769 0.31411 0.8626 0.0
C495 C 0.43384 0.30934 0.77154 0.0
C496 C 0.44891 0.3238 0.71086 0.0
C497 C 0.4674 0.34232 0.73853 0.0
C498 C 0.48182 0.35458 0.66123 0.0
C499 C 0.48456 0.37734 0.65357 0.0
C500 C 0.50391 0.35572 0.6685 0.0
C501 C 0.46851 0.3402 0.58535 0.0
C502 C 0.44938 0.32271 0.6147 0.0
C503 C 0.43414 0.30776 0.55542 0.0
C504 C 0.43878 0.31064 0.46405 0.0
C505 C 0.45867 0.32801 0.43376 0.0
C506 C 0.47359 0.34294 0.49524 0.0
H507 H 0.12762 0.48594 0.99926 0.0
H508 H 0.12911 0.42752 0.06431 0.0
H509 H 0.13055 0.42042 0.90387 0.0
H510 H 0.09567 0.46707 0.79906 0.0
H511 H 0.11124 0.49256 0.74276 0.0
H512 H 0.10882 0.49195 0.86169 0.0
H513 H 0.1507 0.51286 0.87634 0.0
H514 H 0.15312 0.51351 0.75739 0.0
H515 H 0.16615 0.50224 0.82363 0.0
H516 H 0.1305 0.41942 0.73357 0.0
H517 H 0.13394 0.42719 0.57163 0.0
H518 H 0.13609 0.48798 0.62337 0.0
C519 C 0.12803 0.47153 0.97962 0.0
C520 C 0.12792 0.45707 0.04364 0.0
C521 C 0.12907 0.4387 0.01588 0.0
C522 C 0.12979 0.43452 0.92508 0.0
C523 C 0.12978 0.44911 0.86339 0.0
C524 C 0.1293 0.46744 0.88985 0.0
C525 C 0.13091 0.48139 0.81153 0.0
C526 C 0.11043 0.48334 0.80332 0.0
C527 C 0.15144 0.50382 0.81761 0.0
C528 C 0.13237 0.46809 0.73658 0.0
C529 C 0.13126 0.44929 0.76722 0.0
C530 C 0.13159 0.43419 0.70905 0.0
C531 C 0.13345 0.43864 0.61746 0.0
C532 C 0.13548 0.45823 0.58593 0.0
C533 C 0.13482 0.47299 0.64625 0.0
H534 H 0.66107 0.12973 0.83586 0.0
H535 H 0.71176 0.11492 0.77741 0.0
H536 H 0.71576 0.11021 0.93824 0.0
H537 H 0.68211 0.15806 0.04305 0.0
H538 H 0.65587 0.14628 0.09495 0.0
H539 H 0.65821 0.14992 0.97645 0.0
H540 H 0.63085 0.1092 0.95432 0.0
H541 H 0.62847 0.10529 0.0726 0.0
H542 H 0.63606 0.08933 1.00476 0.0
H543 H 0.71508 0.10885 0.10812 0.0
H544 H 0.70672 0.10642 0.26909 0.0
H545 H 0.65361 0.11782 0.2125 0.0
C546 C 0.67317 0.12574 0.85726 0.0
C547 C 0.68642 0.12307 0.79489 0.0
C548 C 0.70163 0.11722 0.82462 0.0
C549 C 0.70402 0.11456 0.91568 0.0
C550 C 0.69067 0.11728 0.97578 0.0
C551 C 0.67528 0.12238 0.94747 0.0
C552 C 0.66192 0.12295 0.02447 0.0
C553 C 0.66471 0.14566 0.03535 0.0
C554 C 0.63791 0.10566 0.01335 0.0
C555 C 0.67229 0.11757 0.10073 0.0
C556 C 0.68911 0.11474 0.07177 0.0
C557 C 0.70175 0.11073 0.13126 0.0
C558 C 0.69695 0.10942 0.22244 0.0
C559 C 0.67933 0.11155 0.25275 0.0
C560 C 0.66691 0.11567 0.19084 0.0
H561 H 0.52852 0.64897 0.35857 0.0
H562 H 0.58626 0.71022 0.41602 0.0
H563 H 0.59159 0.71822 0.25444 0.0
H564 H 0.54645 0.63575 0.16109 0.0
H565 H 0.52072 0.62471 0.10506 0.0
H566 H 0.52167 0.62368 0.22424 0.0
H567 H 0.4999 0.64364 0.23806 0.0
H568 H 0.4984 0.64437 0.11901 0.0
H569 H 0.50935 0.66913 0.18213 0.0
H570 H 0.59148 0.71774 0.0839 0.0
H571 H 0.5832 0.71137 0.92272 0.0
H572 H 0.52369 0.65211 0.98316 0.0
C573 C 0.54232 0.66406 0.33705 0.0
C574 C 0.55719 0.6789 0.3989 0.0
C575 C 0.57478 0.69868 0.36902 0.0
C576 C 0.57795 0.70326 0.27767 0.0
C577 C 0.56306 0.68808 0.21806 0.0
C578 C 0.54536 0.66907 0.24701 0.0
C579 C 0.53111 0.65578 0.17079 0.0
C580 C 0.52994 0.63368 0.16502 0.0
C581 C 0.50835 0.65309 0.17794 0.0
C582 C 0.54362 0.67014 0.09391 0.0
C583 C 0.5622 0.68853 0.12189 0.0
C584 C 0.57682 0.70356 0.06147 0.0
C585 C 0.57209 0.69979 0.97035 0.0
C586 C 0.55272 0.68143 0.9414 0.0
C587 C 0.53843 0.66647 1.00401 0.0
H588 H 0.45064 0.05308 1.00656 0.0
H589 H 0.40006 0.07005 0.0197 0.0
H590 H 0.37235 0.03124 1.00629 0.0
H591 H 0.42416 0.00925 0.84802 0.0
H592 H 0.43396 0.99311 0.90077 0.0
H593 H 0.44956 0.0222 0.90732 0.0
H594 H 0.44953 0.01989 0.07887 0.0
H595 H 0.4338 0.99082 0.07294 0.0
H596 H 0.42409 0.00558 0.13698 0.0
H597 H 0.35024 0.99023 0.99713 0.0
H598 H 0.33549 0.95077 0.98861 0.0
H599 H 0.4009 0.96102 0.98302 0.0
C600 C 0.43376 0.04876 1.00593 0.0
C601 C 0.42756 0.06472 0.01425 0.0
C602 C 0.40524 0.0582 0.01321 0.0
C603 C 0.38939 0.03618 1.0058 0.0
C604 C 0.39614 0.0209 0.9993 0.0
C605 C 0.41781 0.02697 0.99884 0.0
C606 C 0.42091 0.00747 0.99292 0.0
C607 C 0.43285 0.00805 0.90714 0.0
C608 C 0.43278 0.00585 0.07534 0.0
C609 C 0.39755 0.98937 0.99072 0.0
C610 C 0.3835 0.99744 0.9943 0.0
C611 C 0.36112 0.98378 0.99394 0.0
C612 C 0.3529 0.96134 0.9892 0.0
C613 C 0.367 0.95268 0.98499 0.0
C614 C 0.38964 0.96702 0.9861 0.0
H615 H 0.45074 0.40264 0.17329 0.0
H616 H 0.39983 0.33526 0.16498 0.0
H617 H 0.37226 0.34674 0.1739 0.0
H618 H 0.42502 0.42118 0.32663 0.0
H619 H 0.43508 0.44685 0.27144 0.0
H620 H 0.45029 0.43293 0.26699 0.0
H621 H 0.44994 0.43418 0.09508 0.0
H622 H 0.43462 0.44799 0.09899 0.0
H623 H 0.42441 0.42311 0.03725 0.0
H624 H 0.35018 0.36664 0.18214 0.0
H625 H 0.33646 0.39249 0.18994 0.0
H626 H 0.40275 0.44595 0.18902 0.0
C627 C 0.43382 0.39017 0.17379 0.0
C628 C 0.42751 0.368 0.1685 0.0
C629 C 0.40511 0.35235 0.16912 0.0
C630 C 0.38933 0.35873 0.17405 0.0
C631 C 0.39621 0.38081 0.17817 0.0
C632 C 0.41799 0.39621 0.17818 0.0
C633 C 0.42147 0.4189 0.18175 0.0
C634 C 0.43368 0.43065 0.26676 0.0
C635 C 0.4333 0.43179 0.0983 0.0
C636 C 0.39825 0.41398 0.18359 0.0
C637 C 0.3838 0.39199 0.18175 0.0
C638 C 0.36143 0.38389 0.18355 0.0
C639 C 0.35376 0.39868 0.18785 0.0
C640 C 0.36845 0.4213 0.18997 0.0
C641 C 0.39095 0.42882 0.18731 0.0
H642 H 0.054 0.45393 0.33025 0.0
H643 H 0.07048 0.40298 0.31889 0.0
H644 H 0.03183 0.37557 0.33423 0.0
H645 H 0.01149 0.42847 0.49271 0.0
H646 H 0.99461 0.43767 0.44205 0.0
H647 H 0.02362 0.45336 0.43043 0.0
H648 H 0.01942 0.45191 0.2594 0.0
H649 H 0.99041 0.43614 0.27048 0.0
H650 H 0.00456 0.42603 0.20466 0.0
H651 H 0.99154 0.35366 0.3499 0.0
H652 H 0.95227 0.33859 0.36835 0.0
H653 H 0.9616 0.40363 0.36913 0.0
C654 C 0.04953 0.43701 0.33115 0.0
C655 C 0.06537 0.43065 0.32318 0.0
C656 C 0.05873 0.40832 0.32475 0.0
C657 C 0.03678 0.3926 0.33335 0.0
C658 C 0.02162 0.39942 0.34034 0.0
C659 C 0.02768 0.42108 0.33958 0.0
C660 C 0.0081 0.42405 0.34838 0.0
C661 C 0.00955 0.43663 0.43346 0.0
C662 C 0.00547 0.43519 0.2658 0.0
C663 C 0.9901 0.40065 0.35429 0.0
C664 C 0.9983 0.38674 0.3494 0.0
C665 C 0.98493 0.36439 0.35387 0.0
C666 C 0.9626 0.35599 0.36438 0.0
C667 C 0.95375 0.36988 0.37038 0.0
C668 C 0.96778 0.39254 0.36458 0.0
H669 H 0.54947 0.95106 0.53701 0.0
H670 H 0.59827 0.93156 0.54193 0.0
H671 H 0.62703 0.96995 0.54003 0.0
H672 H 0.57818 0.99675 0.39039 0.0
H673 H 0.56924 0.01311 0.44744 0.0
H674 H 0.55257 0.98406 0.44768 0.0
H675 H 0.55207 0.98433 0.61961 0.0
H676 H 0.56889 0.01337 0.61988 0.0
H677 H 0.57734 0.99698 0.67983 0.0
H678 H 0.65059 0.01065 0.53983 0.0
H679 H 0.66702 0.05043 0.53547 0.0
H680 H 0.60274 0.04312 0.53205 0.0
C681 C 0.56619 0.95481 0.53714 0.0
C682 C 0.57156 0.93821 0.53968 0.0
C683 C 0.59369 0.94392 0.54002 0.0
C684 C 0.61018 0.9657 0.53913 0.0
C685 C 0.60431 0.98163 0.53788 0.0
C686 C 0.58285 0.97645 0.53646 0.0
C687 C 0.58087 0.99663 0.53538 0.0
C688 C 0.56955 0.99769 0.45014 0.0
C689 C 0.5691 0.99789 0.61864 0.0
C690 C 0.60457 0.01396 0.53645 0.0
C691 C 0.61784 0.005 0.538 0.0
C692 C 0.64035 0.01785 0.53856 0.0
C693 C 0.64954 0.04044 0.53627 0.0
C694 C 0.63623 0.04998 0.53345 0.0
C695 C 0.61343 0.03643 0.53445 0.0
H696 H 0.60941 0.56447 0.71021 0.0
H697 H 0.67603 0.61698 0.69609 0.0
H698 H 0.66299 0.64335 0.68769 0.0
H699 H 0.58701 0.58613 0.55858 0.0
H700 H 0.56213 0.57618 0.61987 0.0
H701 H 0.57709 0.56203 0.62518 0.0
H702 H 0.57851 0.56533 0.79674 0.0
H703 H 0.56364 0.5796 0.79192 0.0
H704 H 0.58953 0.59168 0.84733 0.0
H705 H 0.6415 0.66392 0.67831 0.0
H706 H 0.61427 0.6759 0.66755 0.0
H707 H 0.56285 0.60903 0.69207 0.0
C708 C 0.62139 0.58149 0.70531 0.0
C709 C 0.64379 0.5886 0.70373 0.0
C710 C 0.65878 0.6111 0.69744 0.0
C711 C 0.65151 0.6262 0.69274 0.0
C712 C 0.62924 0.61853 0.69487 0.0
C713 C 0.61448 0.59664 0.70113 0.0
C714 C 0.59144 0.59221 0.70197 0.0
C715 C 0.57868 0.57833 0.62161 0.0
C716 C 0.58012 0.58158 0.78971 0.0
C717 C 0.59538 0.615 0.69459 0.0
C718 C 0.6172 0.63009 0.69059 0.0
C719 C 0.62438 0.65218 0.68175 0.0
C720 C 0.60882 0.65886 0.67588 0.0
C721 C 0.58638 0.64347 0.67886 0.0
C722 C 0.57982 0.62134 0.68945 0.0
H723 H 0.04713 0.6418 0.82109 0.0
H724 H 0.05561 0.60006 1.00637 0.0
H725 H 0.01611 0.57688 0.01821 0.0
H726 H 0.99669 0.63601 0.91997 0.0
H727 H 0.98455 0.63502 0.8138 0.0
H728 H 0.0136 0.65015 0.82639 0.0
H729 H 0.01763 0.62826 0.69811 0.0
H730 H 0.98864 0.61312 0.68505 0.0
H731 H 0.00346 0.59911 0.70396 0.0
H732 H 0.97683 0.55682 1.00383 0.0
H733 H 0.93867 0.53924 0.95793 0.0
H734 H 0.95354 0.59245 0.77842 0.0
C735 C 0.04054 0.62799 0.86519 0.0
C736 C 0.05438 0.62273 0.9132 0.0
C737 C 0.04529 0.6043 0.96884 0.0
C738 C 0.02287 0.59112 0.9765 0.0
C739 C 0.00962 0.59643 0.92761 0.0
C740 C 0.01795 0.61429 0.87257 0.0
C741 C 0.99979 0.61499 0.822 0.0
C742 C 0.99859 0.63525 0.84706 0.0
C743 C 1.00255 0.61379 0.72132 0.0
C744 C 0.98014 0.59452 0.85619 0.0
C745 C 0.98636 0.58436 0.91796 0.0
C746 C 0.97167 0.56468 0.95619 0.0
C747 C 0.95004 0.55479 0.92942 0.0
C748 C 0.94315 0.56449 0.86486 0.0
C749 C 0.95832 0.58487 0.82899 0.0
H750 H 0.52339 0.12408 0.77997 0.0
H751 H 0.52937 0.09845 0.03321 0.0
H752 H 0.55718 0.09162 0.96996 0.0
H753 H 0.5323 0.08595 0.63964 0.0
H754 H 0.54747 0.10644 0.55788 0.0
H755 H 0.5263 0.10733 0.61976 0.0
H756 H 0.55345 0.14631 0.67063 0.0
H757 H 0.57472 0.14557 0.60939 0.0
H758 H 0.57807 0.15171 0.72636 0.0
H759 H 0.58808 0.09287 0.88837 0.0
H760 H 0.6178 0.09871 0.78695 0.0
H761 H 0.5906 0.12072 0.58225 0.0
C762 C 0.5302 0.11658 0.8215 0.0
C763 C 0.52412 0.11181 0.91172 0.0
C764 C 0.53357 0.10214 0.96389 0.0
C765 C 0.54946 0.09821 0.92859 0.0
C766 C 0.5555 0.10363 0.8404 0.0
C767 C 0.54592 0.11222 0.78684 0.0
C768 C 0.55614 0.11743 0.69523 0.0
C769 C 0.53956 0.10344 0.62392 0.0
C770 C 0.56619 0.1417 0.67425 0.0
C771 C 0.57344 0.11114 0.70699 0.0
C772 C 0.57277 0.10324 0.79139 0.0
C773 C 0.58842 0.09844 0.8213 0.0
C774 C 0.60524 0.10184 0.76358 0.0
C775 C 0.60607 0.10961 0.67665 0.0
C776 C 0.58983 0.11406 0.64759 0.0
H777 H 0.42552 0.53659 0.12388 0.0
H778 H 0.39689 0.48768 0.91852 0.0
H779 H 0.42717 0.51076 0.81776 0.0
H780 H 0.43896 0.57977 0.98484 0.0
H781 H 0.46387 0.59854 0.03993 0.0
H782 H 0.44258 0.57664 0.10123 0.0
H783 H 0.46918 0.56373 0.14909 0.0
H784 H 0.49059 0.58564 0.08775 0.0
H785 H 0.48387 0.55813 0.06581 0.0
H786 H 0.4581 0.54011 0.73603 0.0
H787 H 0.4857 0.57474 0.67269 0.0
H788 H 0.49318 0.60599 0.92825 0.0
C789 C 0.42616 0.53048 0.05879 0.0
C790 C 0.40934 0.51023 0.02901 0.0
C791 C 0.40994 0.50305 0.94229 0.0
C792 C 0.42707 0.51599 0.88508 0.0
C793 C 0.44326 0.53613 0.91563 0.0
C794 C 0.4429 0.54343 1.00028 0.0
C795 C 0.46056 0.56681 0.01255 0.0
C796 C 0.45091 0.58128 0.03596 0.0
C797 C 0.47703 0.56868 0.08297 0.0
C798 C 0.47049 0.57172 0.92071 0.0
C799 C 0.4606 0.55362 0.86672 0.0
C800 C 0.46617 0.55432 0.77788 0.0
C801 C 0.48192 0.57413 0.74256 0.0
C802 C 0.49167 0.59314 0.79548 0.0
C803 C 0.48616 0.59174 0.88627 0.0
H804 H 0.90902 0.47824 0.96069 0.0
H805 H 0.84505 0.46525 0.04128 0.0
H806 H 0.84125 0.43603 0.13749 0.0
H807 H 0.89724 0.42256 0.96167 0.0
H808 H 0.92283 0.4284 0.00913 0.0
H809 H 0.92107 0.44854 0.94325 0.0
H810 H 0.93716 0.47589 0.07334 0.0
H811 H 0.93898 0.45582 0.13954 0.0
H812 H 0.92434 0.46858 0.18063 0.0
H813 H 0.84197 0.40658 0.21177 0.0
H814 H 0.84973 0.38048 0.28461 0.0
H815 H 0.91483 0.41331 0.17673 0.0
C816 C 0.8943 0.46918 0.9988 0.0
C817 C 0.87735 0.47405 0.99353 0.0
C818 C 0.85834 0.46199 0.04474 0.0
C819 C 0.85592 0.44523 0.09932 0.0
C820 C 0.87275 0.44079 0.10327 0.0
C821 C 0.89174 0.45247 0.05606 0.0
C822 C 0.90738 0.44435 0.07666 0.0
C823 C 0.91242 0.43544 0.99266 0.0
C824 C 0.9282 0.46223 0.12014 0.0
C825 C 0.89398 0.42629 0.14203 0.0
C826 C 0.87393 0.42447 0.15439 0.0
C827 C 0.85784 0.4082 0.20534 0.0
C828 C 0.86243 0.39355 0.24677 0.0
C829 C 0.88313 0.39561 0.23954 0.0
C830 C 0.89914 0.412 0.18566 0.0
H831 H 0.45435 0.88326 0.47113 0.0
H832 H 0.50401 0.89991 0.27244 0.0
H833 H 0.4829 0.90855 0.16617 0.0
H834 H 0.41024 0.85502 0.32335 0.0
H835 H 0.39348 0.86312 0.38285 0.0
H836 H 0.41505 0.86172 0.43882 0.0
H837 H 0.42944 0.90271 0.48689 0.0
H838 H 0.40837 0.90306 0.422 0.0
H839 H 0.43634 0.9225 0.40074 0.0
H840 H 0.45508 0.91156 0.0779 0.0
H841 H 0.42167 0.9064 0.00869 0.0
H842 H 0.38819 0.88508 0.26111 0.0
C843 C 0.46101 0.88942 0.40617 0.0
C844 C 0.48092 0.89135 0.37994 0.0
C845 C 0.48888 0.89862 0.29353 0.0
C846 C 0.47705 0.90361 0.23311 0.0
C847 C 0.45715 0.90098 0.25999 0.0
C848 C 0.44909 0.89395 0.34425 0.0
C849 C 0.42608 0.88978 0.35228 0.0
C850 C 0.41024 0.86601 0.37571 0.0
C851 C 0.42498 0.90541 0.41951 0.0
C852 C 0.42218 0.89483 0.25885 0.0
C853 C 0.44054 0.90178 0.20745 0.0
C854 C 0.44069 0.90634 0.11777 0.0
C855 C 0.42151 0.90329 0.07907 0.0
C856 C 0.40215 0.89527 0.12934 0.0
C857 C 0.40268 0.89135 0.22096 0.0
H858 H 0.61216 0.49815 0.42586 0.0
H859 H 0.57937 0.48985 0.67781 0.0
H860 H 0.54523 0.46211 0.61103 0.0
H861 H 0.5651 0.4888 0.2847 0.0
H862 H 0.57032 0.47394 0.20153 0.0
H863 H 0.59253 0.49527 0.26228 0.0
H864 H 0.60587 0.46989 0.31077 0.0
H865 H 0.58398 0.4469 0.25632 0.0
H866 H 0.58834 0.44575 0.37288 0.0
H867 H 0.51694 0.43043 0.5277 0.0
H868 H 0.49529 0.39967 0.42645 0.0
H869 H 0.54455 0.43001 0.2241 0.0
C870 C 0.59767 0.491 0.46625 0.0
C871 C 0.59857 0.4962 0.55722 0.0
C872 C 0.57921 0.48623 0.60793 0.0
C873 C 0.55964 0.47042 0.5706 0.0
C874 C 0.55947 0.46505 0.4818 0.0
C875 C 0.57783 0.47537 0.42962 0.0
C876 C 0.57359 0.46539 0.33791 0.0
C877 C 0.57551 0.48182 0.26742 0.0
C878 C 0.58888 0.4565 0.31834 0.0
C879 C 0.55033 0.44726 0.34795 0.0
C880 C 0.54248 0.44737 0.43164 0.0
C881 C 0.52255 0.43059 0.46088 0.0
C882 C 0.5104 0.41318 0.40328 0.0
C883 C 0.51806 0.4129 0.31716 0.0
C884 C 0.53805 0.43033 0.2886 0.0
H885 H 0.1261 0.54832 0.39094 0.0
H886 H 0.10268 0.49539 0.57829 0.0
H887 H 0.09503 0.51678 0.68666 0.0
H888 H 0.15508 0.58888 0.54929 0.0
H889 H 0.15019 0.60857 0.49499 0.0
H890 H 0.14998 0.58704 0.43211 0.0
H891 H 0.10989 0.57587 0.37728 0.0
H892 H 0.11232 0.59808 0.44273 0.0
H893 H 0.08998 0.57112 0.46053 0.0
H894 H 0.09384 0.5448 0.77919 0.0
H895 H 0.10082 0.57812 0.85488 0.0
H896 H 0.12746 0.61449 0.61156 0.0
C897 C 0.11861 0.54106 0.4536 0.0
C898 C 0.11444 0.52011 0.47613 0.0
C899 C 0.10558 0.51131 0.55991 0.0
C900 C 0.10117 0.52331 0.62151 0.0
C901 C 0.10601 0.54418 0.59848 0.0
C902 C 0.11461 0.55307 0.51675 0.0
C903 C 0.12108 0.57682 0.51353 0.0
C904 C 0.14552 0.59119 0.49645 0.0
C905 C 0.10752 0.58071 0.4444 0.0
C906 C 0.11532 0.58005 0.60677 0.0
C907 C 0.10625 0.56087 0.65385 0.0
C908 C 0.10071 0.55986 0.74274 0.0
C909 C 0.10486 0.57899 0.7852 0.0
C910 C 0.11481 0.59906 0.73939 0.0
C911 C 0.11973 0.59945 0.64835 0.0
H912 H 0.45592 0.19024 0.05985 0.0
H913 H 0.52528 0.2144 0.06488 0.0
H914 H 0.53188 0.25104 0.09589 0.0
H915 H 0.45858 0.23703 0.95461 0.0
H916 H 0.43697 0.23625 0.01951 0.0
H917 H 0.43734 0.21161 0.99722 0.0
H918 H 0.43564 0.20391 0.16577 0.0
H919 H 0.43525 0.22851 0.18858 0.0
H920 H 0.4557 0.22407 0.23848 0.0
H921 H 0.53147 0.28496 0.12418 0.0
H922 H 0.52411 0.31455 0.15263 0.0
H923 H 0.45491 0.26934 0.13285 0.0
C924 C 0.47249 0.20324 0.06736 0.0
C925 C 0.49007 0.19933 0.05953 0.0
C926 C 0.5115 0.21685 0.07038 0.0
C927 C 0.51546 0.23779 0.08798 0.0
C928 C 0.49784 0.24108 0.09504 0.0
C929 C 0.47677 0.22436 0.08547 0.0
C930 C 0.46087 0.23251 0.0973 0.0
C931 C 0.44766 0.22915 0.01207 0.0
C932 C 0.44599 0.2216 0.1773 0.0
C933 C 0.47636 0.25641 0.11479 0.0
C934 C 0.49759 0.26088 0.11282 0.0
C935 C 0.51491 0.28168 0.12616 0.0
C936 C 0.51051 0.29841 0.14226 0.0
C937 C 0.4889 0.29439 0.14541 0.0
C938 C 0.4716 0.273 0.13129 0.0
H939 H 0.18812 0.45074 0.28698 0.0
H940 H 0.21616 0.5206 0.30184 0.0
H941 H 0.25213 0.5254 0.27284 0.0
H942 H 0.23285 0.44875 0.39251 0.0
H943 H 0.23135 0.4277 0.32147 0.0
H944 H 0.2073 0.4292 0.34397 0.0
H945 H 0.20111 0.43067 0.17542 0.0
H946 H 0.22512 0.42914 0.15239 0.0
H947 H 0.22244 0.4512 0.10859 0.0
H948 H 0.28474 0.5234 0.24455 0.0
H949 H 0.31326 0.51491 0.21297 0.0
H950 H 0.2657 0.44612 0.21232 0.0
C951 C 0.20184 0.46703 0.2842 0.0
C952 C 0.19919 0.48528 0.29712 0.0
C953 C 0.21761 0.50632 0.29246 0.0
C954 C 0.2382 0.50926 0.27604 0.0
C955 C 0.24025 0.49104 0.264 0.0
C956 C 0.2227 0.47032 0.2674 0.0
C957 C 0.22977 0.45369 0.25087 0.0
C958 C 0.22504 0.43897 0.33205 0.0
C959 C 0.21897 0.44039 0.16681 0.0
C960 C 0.25402 0.46842 0.23776 0.0
C961 C 0.25951 0.48986 0.24608 0.0
C962 C 0.28069 0.50669 0.23754 0.0
C963 C 0.29682 0.50159 0.21943 0.0
C964 C 0.29186 0.47978 0.20946 0.0
C965 C 0.27007 0.46293 0.21923 0.0
H966 H 0.72036 0.2047 0.49719 0.0
H967 H 0.74341 0.15879 0.47565 0.0
H968 H 0.77995 0.18846 0.44336 0.0
H969 H 0.75438 0.24054 0.31933 0.0
H970 H 0.75961 0.26501 0.37551 0.0
H971 H 0.73465 0.24013 0.39525 0.0
H972 H 0.74279 0.24406 0.56384 0.0
H973 H 0.76782 0.26889 0.54456 0.0
H974 H 0.76801 0.24698 0.60332 0.0
H975 H 0.81398 0.22214 0.41916 0.0
H976 H 0.84431 0.25892 0.39662 0.0
H977 H 0.8008 0.28461 0.43031 0.0
C978 C 0.73308 0.20093 0.48498 0.0
C979 C 0.72892 0.17932 0.48969 0.0
C980 C 0.74608 0.17512 0.47341 0.0
C981 C 0.76697 0.19189 0.45476 0.0
C982 C 0.77063 0.21292 0.45212 0.0
C983 C 0.75427 0.21763 0.46609 0.0
C984 C 0.76307 0.24191 0.45974 0.0
C985 C 0.75229 0.2472 0.38287 0.0
C986 C 0.76025 0.25099 0.54814 0.0
C987 C 0.78685 0.24993 0.44062 0.0
C988 C 0.79069 0.23279 0.43677 0.0
C989 C 0.81122 0.23574 0.42144 0.0
C990 C 0.82839 0.25679 0.40885 0.0
C991 C 0.82505 0.27479 0.41123 0.0
C992 C 0.80392 0.27124 0.42775 0.0
H993 H 0.54786 0.81556 0.56351 0.0
H994 H 0.47795 0.78782 0.56866 0.0
H995 H 0.47361 0.75221 0.60436 0.0
H996 H 0.54788 0.76969 0.46317 0.0
H997 H 0.57032 0.77228 0.52811 0.0
H998 H 0.56823 0.79588 0.50353 0.0
H999 H 0.56999 0.80445 0.67134 0.0
H1000 H 0.57208 0.78087 0.69647 0.0
H1001 H 0.55086 0.78413 0.74578 0.0
H1002 H 0.47641 0.71976 0.63724 0.0
H1003 H 0.48598 0.69181 0.66694 0.0
H1004 H 0.55433 0.73974 0.64261 0.0
C1005 C 0.53163 0.802 0.57212 0.0
C1006 C 0.51323 0.80457 0.56291 0.0
C1007 C 0.4923 0.78636 0.57505 0.0
C1008 C 0.48965 0.76602 0.59545 0.0
C1009 C 0.50806 0.76407 0.6038 0.0
C1010 C 0.52866 0.7815 0.59271 0.0
C1011 C 0.54565 0.77477 0.60539 0.0
C1012 C 0.55879 0.77837 0.51995 0.0
C1013 C 0.56052 0.78677 0.68446 0.0
C1014 C 0.53132 0.75081 0.625 0.0
C1015 C 0.50972 0.74511 0.62364 0.0
C1016 C 0.49326 0.72401 0.63871 0.0
C1017 C 0.49895 0.70821 0.65552 0.0
C1018 C 0.52098 0.71346 0.65743 0.0
C1019 C 0.53738 0.73516 0.64208 0.0
H1020 H 0.82161 0.55783 0.81909 0.0
H1021 H 0.80248 0.49519 0.70106 0.0
H1022 H 0.76818 0.492 0.65209 0.0
H1023 H 0.76972 0.54389 0.90185 0.0
H1024 H 0.77149 0.5695 0.87834 0.0
H1025 H 0.79578 0.5683 0.89857 0.0
H1026 H 0.81136 0.58682 0.74759 0.0
H1027 H 0.78715 0.5882 0.7271 0.0
H1028 H 0.79588 0.57524 0.64769 0.0
H1029 H 0.73509 0.49339 0.62683 0.0
H1030 H 0.70462 0.5002 0.61939 0.0
H1031 H 0.7437 0.56234 0.74949 0.0
C1032 C 0.81034 0.54368 0.78147 0.0
C1033 C 0.81475 0.52672 0.76419 0.0
C1034 C 0.79945 0.50832 0.7158 0.0
C1035 C 0.77991 0.50635 0.6873 0.0
C1036 C 0.77576 0.52296 0.70718 0.0
C1037 C 0.79048 0.54138 0.75243 0.0
C1038 C 0.78117 0.55623 0.76785 0.0
C1039 C 0.77944 0.55967 0.86758 0.0
C1040 C 0.7947 0.57791 0.71967 0.0
C1041 C 0.75886 0.543 0.72567 0.0
C1042 C 0.75628 0.52391 0.6911 0.0
C1043 C 0.73694 0.50838 0.65266 0.0
C1044 C 0.71966 0.51238 0.64925 0.0
C1045 C 0.72173 0.53183 0.68361 0.0
C1046 C 0.74172 0.54745 0.72173 0.0
H1047 H 0.20637 0.7178 0.89938 0.0
H1048 H 0.15959 0.73999 0.8985 0.0
H1049 H 0.1888 0.77706 0.92897 0.0
H1050 H 0.23972 0.7527 0.07718 0.0
H1051 H 0.26497 0.75795 0.02845 0.0
H1052 H 0.24048 0.73281 1.00572 0.0
H1053 H 0.24646 0.74026 0.83708 0.0
H1054 H 0.27098 0.76541 0.85929 0.0
H1055 H 0.24981 0.76526 0.79315 0.0
H1056 H 0.22225 0.81146 0.95921 0.0
H1057 H 0.25862 0.84196 0.98823 0.0
H1058 H 0.28513 0.79882 0.97104 0.0
C1059 C 0.20229 0.73046 0.90544 0.0
C1060 C 0.18056 0.72584 0.89616 0.0
C1061 C 0.17599 0.74296 0.90494 0.0
C1062 C 0.1925 0.76415 0.92236 0.0
C1063 C 0.21363 0.76813 0.93104 0.0
C1064 C 0.21867 0.75187 0.92295 0.0
C1065 C 0.24288 0.76084 0.9357 0.0
C1066 C 0.24727 0.75046 0.01659 0.0
C1067 C 0.25313 0.75776 0.85127 0.0
C1068 C 0.25054 0.78464 0.9522 0.0
C1069 C 0.23328 0.78833 0.94907 0.0
C1070 C 0.23592 0.80881 0.96194 0.0
C1071 C 0.25676 0.82607 0.97853 0.0
C1072 C 0.27491 0.82293 0.98236 0.0
C1073 C 0.27166 0.80182 0.96883 0.0
H1074 H 0.56414 0.18074 0.19299 0.0
H1075 H 0.51721 0.11179 0.20013 0.0
H1076 H 0.54301 0.10495 0.2779 0.0
H1077 H 0.61154 0.17525 0.16114 0.0
H1078 H 0.6291 0.19705 0.23435 0.0
H1079 H 0.60702 0.19769 0.17877 0.0
H1080 H 0.59229 0.20172 0.33026 0.0
H1081 H 0.61432 0.20104 0.38629 0.0
H1082 H 0.5867 0.18202 0.41608 0.0
H1083 H 0.57253 0.10376 0.33944 0.0
H1084 H 0.60618 0.10827 0.39667 0.0
H1085 H 0.63628 0.17825 0.37419 0.0
C1086 C 0.5595 0.16431 0.21126 0.0
C1087 C 0.5386 0.14681 0.19059 0.0
C1088 C 0.533 0.12549 0.21554 0.0
C1089 C 0.54755 0.12136 0.25994 0.0
C1090 C 0.56776 0.1387 0.28028 0.0
C1091 C 0.57398 0.15978 0.25799 0.0
C1092 C 0.59713 0.17495 0.28988 0.0
C1093 C 0.61209 0.18694 0.21134 0.0
C1094 C 0.59763 0.19088 0.35979 0.0
C1095 C 0.60275 0.1588 0.33109 0.0
C1096 C 0.58528 0.13809 0.32364 0.0
C1097 C 0.58618 0.1199 0.34849 0.0
C1098 C 0.6055 0.12275 0.38208 0.0
C1099 C 0.62373 0.14369 0.3942 0.0
C1100 C 0.6224 0.16212 0.36849 0.0
H1101 H 0.38541 0.52735 0.43845 0.0
H1102 H 0.39191 0.55548 0.17693 0.0
H1103 H 0.41942 0.59093 0.2347 0.0
H1104 H 0.39567 0.57739 0.56751 0.0
H1105 H 0.41049 0.57226 0.65187 0.0
H1106 H 0.38843 0.54995 0.59426 0.0
H1107 H 0.41401 0.53559 0.54968 0.0
H1108 H 0.43615 0.55785 0.60618 0.0
H1109 H 0.43866 0.55309 0.49049 0.0
H1110 H 0.45143 0.62055 0.30995 0.0
H1111 H 0.48322 0.64366 0.40446 0.0
H1112 H 0.45449 0.59797 0.62034 0.0
C1113 C 0.39208 0.54114 0.39416 0.0
C1114 C 0.38648 0.53861 0.30328 0.0
C1115 C 0.39577 0.55699 0.24702 0.0
C1116 C 0.41145 0.57726 0.27918 0.0
C1117 C 0.41729 0.57903 0.36819 0.0
C1118 C 0.40757 0.5616 0.42554 0.0
C1119 C 0.41815 0.56741 0.51623 0.0
C1120 C 0.40223 0.56672 0.58662 0.0
C1121 C 0.42729 0.55262 0.54205 0.0
C1122 C 0.43607 0.5904 0.49921 0.0
C1123 C 0.43523 0.59684 0.41348 0.0
C1124 C 0.45182 0.61613 0.3783 0.0
C1125 C 0.46981 0.6291 0.43201 0.0
C1126 C 0.47078 0.62281 0.51993 0.0
C1127 C 0.45355 0.60349 0.5544 0.0
H1128 H 0.86156 0.39731 0.42577 0.0
H1129 H 0.83274 0.34902 0.63156 0.0
H1130 H 0.82155 0.37241 0.71108 0.0
H1131 H 0.88463 0.44074 0.56134 0.0
H1132 H 0.88072 0.4589 0.49074 0.0
H1133 H 0.88238 0.43673 0.44278 0.0
H1134 H 0.84525 0.42306 0.36679 0.0
H1135 H 0.84338 0.44524 0.41444 0.0
H1136 H 0.82198 0.41776 0.43238 0.0
H1137 H 0.81754 0.4031 0.77503 0.0
H1138 H 0.82395 0.43881 0.82462 0.0
H1139 H 0.85581 0.4669 0.57483 0.0
C1140 C 0.85175 0.39112 0.48464 0.0
C1141 C 0.84697 0.37097 0.5204 0.0
C1142 C 0.83585 0.36414 0.60197 0.0
C1143 C 0.82943 0.3773 0.64717 0.0
C1144 C 0.83442 0.39721 0.60981 0.0
C1145 C 0.84537 0.40406 0.53015 0.0
C1146 C 0.85153 0.42722 0.50958 0.0
C1147 C 0.87627 0.44174 0.50069 0.0
C1148 C 0.83982 0.42837 0.42584 0.0
C1149 C 0.84307 0.43271 0.59168 0.0
C1150 C 0.83282 0.4151 0.64786 0.0
C1151 C 0.8252 0.41686 0.73085 0.0
C1152 C 0.82885 0.43724 0.75832 0.0
C1153 C 0.84033 0.45571 0.70352 0.0
C1154 C 0.84678 0.45311 0.61793 0.0
H1155 H 0.37138 0.85577 0.73359 0.0
H1156 H 0.3726 0.8307 0.99468 0.0
H1157 H 0.39888 0.82056 0.94198 0.0
H1158 H 0.37836 0.8139 0.60982 0.0
H1159 H 0.39609 0.8322 0.52721 0.0
H1160 H 0.3749 0.83606 0.57345 0.0
H1161 H 0.40075 0.87423 0.62187 0.0
H1162 H 0.42433 0.87389 0.58176 0.0
H1163 H 0.42292 0.88 0.6959 0.0
H1164 H 0.43159 0.82234 0.87432 0.0
H1165 H 0.46445 0.83086 0.78784 0.0
H1166 H 0.43966 0.85031 0.56541 0.0
C1167 C 0.37648 0.84733 0.7786 0.0
C1168 C 0.36992 0.84414 0.86823 0.0
C1169 C 0.37724 0.83329 0.92544 0.0
C1170 C 0.39224 0.82743 0.8962 0.0
C1171 C 0.39927 0.83183 0.80874 0.0
C1172 C 0.39112 0.84088 0.74993 0.0
C1173 C 0.4027 0.84561 0.6618 0.0
C1174 C 0.3871 0.83114 0.58869 0.0
C1175 C 0.41324 0.86984 0.63892 0.0
C1176 C 0.4196 0.83925 0.68216 0.0
C1177 C 0.4173 0.83123 0.76733 0.0
C1178 C 0.43304 0.82764 0.80617 0.0
C1179 C 0.45165 0.83256 0.75692 0.0
C1180 C 0.45409 0.84052 0.66942 0.0
C1181 C 0.43764 0.84337 0.63098 0.0
H1182 H 0.62833 0.48297 0.95004 0.0
H1183 H 0.62383 0.45448 0.69057 0.0
H1184 H 0.59723 0.41878 0.74851 0.0
H1185 H 0.62014 0.43413 0.07999 0.0
H1186 H 0.60386 0.43719 0.16322 0.0
H1187 H 0.62546 0.46081 0.11039 0.0
H1188 H 0.59982 0.47391 0.06372 0.0
H1189 H 0.57645 0.45083 0.10975 0.0
H1190 H 0.57668 0.45716 0.99457 0.0
H1191 H 0.56486 0.38901 0.82166 0.0
H1192 H 0.53243 0.3661 0.9127 0.0
H1193 H 0.5599 0.41184 0.12949 0.0
C1194 C 0.6224 0.46908 0.90634 0.0
C1195 C 0.62814 0.47162 0.81575 0.0
C1196 C 0.61977 0.45305 0.76038 0.0
C1197 C 0.60462 0.4326 0.79266 0.0
C1198 C 0.59845 0.43081 0.88113 0.0
C1199 C 0.60753 0.44842 0.93795 0.0
C1200 C 0.59659 0.44256 0.02759 0.0
C1201 C 0.61245 0.44377 0.09959 0.0
C1202 C 0.58686 0.457 0.05024 0.0
C1203 C 0.57906 0.41937 0.01054 0.0
C1204 C 0.58047 0.41284 0.92562 0.0
C1205 C 0.56408 0.39349 0.88959 0.0
C1206 C 0.54572 0.38062 0.94139 0.0
C1207 C 0.54416 0.387 0.02854 0.0
C1208 C 0.56125 0.40629 0.0642 0.0
H1209 H 0.15923 0.56174 0.29498 0.0
H1210 H 0.17378 0.53451 0.06648 0.0
H1211 H 0.18452 0.56821 0.98238 0.0
H1212 H 0.13163 0.58123 0.17216 0.0
H1213 H 0.13921 0.60389 0.2457 0.0
H1214 H 0.13835 0.57975 0.28563 0.0
H1215 H 0.17977 0.60525 0.33652 0.0
H1216 H 0.17861 0.62799 0.29043 0.0
H1217 H 0.19902 0.62186 0.25367 0.0
H1218 H 0.18847 0.60213 0.91747 0.0
H1219 H 0.17953 0.62961 0.86861 0.0
H1220 H 0.15841 0.63293 0.13517 0.0
C1221 C 0.16561 0.56335 0.22851 0.0
C1222 C 0.16638 0.54597 0.18767 0.0
C1223 C 0.17362 0.54797 0.09916 0.0
C1224 C 0.17984 0.56707 0.0513 0.0
C1225 C 0.17831 0.58379 0.09261 0.0
C1226 C 0.17107 0.58196 0.17899 0.0
C1227 C 0.16644 0.59993 0.20197 0.0
C1228 C 0.14251 0.59069 0.2279 0.0
C1229 C 0.18185 0.61463 0.27501 0.0
C1230 C 0.17137 0.61171 0.11429 0.0
C1231 C 0.17898 0.60265 0.05308 0.0
C1232 C 0.18282 0.60954 0.96522 0.0
C1233 C 0.17771 0.62525 0.93816 0.0
C1234 C 0.1682 0.63343 0.99815 0.0
C1235 C 0.16591 0.62721 0.08812 0.0
loop_
_geom_bond_atom_site_label_1
_geom_bond_atom_site_label_2
_geom_bond_distance
_geom_bond_site_symmetry_2
_ccdc_geom_bond_type
Fe0 O2 1.918 . S
Fe0 O5 1.997 . S
Fe0 O6 2.002 . S
Fe0 O11 1.976 1_554 S
Fe0 O14 1.996 . S
Fe1 O2 1.918 1_556 S
Fe1 O9 1.997 1_556 S
Fe1 O12 1.996 . S
Fe1 O16 1.976 . S
Fe1 O19 2.002 . S
O2 Fe0 1.918 . S
O2 Fe1 1.918 1_554 S
O2 Fe3 1.918 . S
Fe3 O2 1.918 . S
Fe3 O4 2.002 . S
Fe3 O13 1.975 1_554 S
Fe3 O17 1.996 1_554 S
Fe3 O20 1.997 . S
O4 Fe3 2.002 . S
O4 C21 1.295 . S
O5 Fe0 1.997 . S
O5 C21 1.235 . S
O6 Fe0 2.002 . S
O6 C7 1.295 . S
C7 O6 1.295 . S
C7 O9 1.235 . S
C8 O13 1.286 1_554 S
C8 O14 1.255 . S
O9 Fe1 1.997 1_554 S
O9 C7 1.235 . S
C10 O16 1.287 . S
C10 O17 1.255 . S
O11 Fe0 1.976 1_556 S
O11 C18 1.287 . S
O12 Fe1 1.996 . S
O12 C18 1.255 . S
O13 Fe3 1.975 1_556 S
O13 C8 1.286 1_556 S
O14 Fe0 1.996 . S
O14 C8 1.255 . S
C15 O19 1.295 1_554 S
C15 O20 1.235 . S
O16 Fe1 1.976 . S
O16 C10 1.287 . S
O17 Fe3 1.996 1_556 S
O17 C10 1.255 . S
C18 O11 1.287 . S
C18 O12 1.255 . S
O19 Fe1 2.002 . S
O19 C15 1.295 1_556 S
O20 Fe3 1.997 . S
O20 C15 1.235 . S
C21 O4 1.295 . S
C21 O5 1.235 . S
Fe22 O24 1.918 . S
Fe22 O27 1.997 . S
Fe22 O28 2.002 . S
Fe22 O33 1.976 . S
Fe22 O36 1.996 . S
Fe23 O24 1.918 . S
Fe23 O31 1.997 . S
Fe23 O34 1.996 . S
Fe23 O38 1.976 . S
Fe23 O41 2.002 . S
O24 Fe22 1.918 . S
O24 Fe23 1.918 . S
O24 Fe25 1.918 . S
Fe25 O24 1.918 . S
Fe25 O26 2.002 . S
Fe25 O35 1.976 . S
Fe25 O39 1.996 . S
Fe25 O42 1.997 . S
O26 Fe25 2.002 . S
O26 C43 1.295 . S
O27 Fe22 1.997 . S
O27 C43 1.235 . S
O28 Fe22 2.002 . S
O28 C29 1.295 . S
C29 O28 1.295 . S
C29 O31 1.235 . S
C30 O35 1.287 . S
C30 O36 1.255 . S
O31 Fe23 1.997 . S
O31 C29 1.235 . S
C32 O38 1.287 . S
C32 O39 1.255 . S
O33 Fe22 1.976 . S
O33 C40 1.287 . S
O34 Fe23 1.996 . S
O34 C40 1.255 . S
O35 Fe25 1.976 . S
O35 C30 1.287 . S
O36 Fe22 1.996 . S
O36 C30 1.255 . S
C37 O41 1.295 . S
C37 O42 1.235 . S
O38 Fe23 1.976 . S
O38 C32 1.287 . S
O39 Fe25 1.996 . S
O39 C32 1.255 . S
C40 O33 1.287 . S
C40 O34 1.255 . S
O41 Fe23 2.002 . S
O41 C37 1.295 . S
O42 Fe25 1.997 . S
O42 C37 1.235 . S
C43 O26 1.295 . S
C43 O27 1.235 . S
Fe44 O46 1.918 . S
Fe44 O49 1.997 . S
Fe44 O50 2.002 . S
Fe44 O55 1.976 . S
Fe44 O58 1.996 . S
Fe45 O46 1.918 . S
Fe45 O53 1.997 . S
Fe45 O56 1.996 . S
Fe45 O60 1.976 . S
Fe45 O63 2.002 . S
O46 Fe44 1.918 . S
O46 Fe45 1.918 . S
O46 Fe47 1.918 . S
Fe47 O46 1.918 . S
Fe47 O48 2.002 . S
Fe47 O57 1.976 . S
Fe47 O61 1.996 . S
Fe47 O64 1.997 . S
O48 Fe47 2.002 . S
O48 C65 1.295 . S
O49 Fe44 1.997 . S
O49 C65 1.235 . S
O50 Fe44 2.002 . S
O50 C51 1.295 . S
C51 O50 1.295 . S
C51 O53 1.235 . S
C52 O57 1.287 . S
C52 O58 1.255 . S
O53 Fe45 1.997 . S
O53 C51 1.235 . S
C54 O60 1.287 . S
C54 O61 1.255 . S
O55 Fe44 1.976 . S
O55 C62 1.287 . S
O56 Fe45 1.996 . S
O56 C62 1.255 . S
O57 Fe47 1.976 . S
O57 C52 1.287 . S
O58 Fe44 1.996 . S
O58 C52 1.255 . S
C59 O63 1.295 . S
C59 O64 1.235 . S
O60 Fe45 1.976 . S
O60 C54 1.287 . S
O61 Fe47 1.996 . S
O61 C54 1.255 . S
C62 O55 1.287 . S
C62 O56 1.255 . S
O63 Fe45 2.002 . S
O63 C59 1.295 . S
O64 Fe47 1.997 . S
O64 C59 1.235 . S
C65 O48 1.295 . S
C65 O49 1.235 . S
Fe66 O68 1.918 . S
Fe66 O71 1.997 . S
Fe66 O72 2.002 . S
Fe66 O77 1.976 . S
Fe66 O80 1.996 . S
Fe67 O68 1.918 . S
Fe67 O75 1.997 . S
Fe67 O78 1.996 . S
Fe67 O82 1.976 . S
Fe67 O85 2.002 . S
O68 Fe66 1.918 . S
O68 Fe67 1.918 . S
O68 Fe69 1.918 . S
Fe69 O68 1.918 . S
Fe69 O70 2.002 . S
Fe69 O79 1.976 . S
Fe69 O83 1.996 . S
Fe69 O86 1.997 . S
O70 Fe69 2.002 . S
O70 C87 1.295 . S
O71 Fe66 1.997 . S
O71 C87 1.235 . S
O72 Fe66 2.002 . S
O72 C73 1.295 . S
C73 O72 1.295 . S
C73 O75 1.235 . S
C74 O79 1.287 . S
C74 O80 1.255 . S
O75 Fe67 1.997 . S
O75 C73 1.235 . S
C76 O82 1.287 . S
C76 O83 1.255 . S
O77 Fe66 1.976 . S
O77 C84 1.287 . S
O78 Fe67 1.996 . S
O78 C84 1.255 . S
O79 Fe69 1.976 . S
O79 C74 1.287 . S
O80 Fe66 1.996 . S
O80 C74 1.255 . S
C81 O85 1.295 . S
C81 O86 1.235 . S
O82 Fe67 1.976 . S
O82 C76 1.287 . S
O83 Fe69 1.996 . S
O83 C76 1.255 . S
C84 O77 1.287 . S
C84 O78 1.255 . S
O85 Fe67 2.002 . S
O85 C81 1.295 . S
O86 Fe69 1.997 . S
O86 C81 1.235 . S
C87 O70 1.295 . S
C87 O71 1.235 . S
Fe88 O90 1.918 . S
Fe88 O93 1.997 . S
Fe88 O94 2.002 . S
Fe88 O99 1.976 . S
Fe88 O102 1.996 . S
Fe89 O90 1.918 . S
Fe89 O97 1.997 . S
Fe89 O100 1.996 . S
Fe89 O104 1.976 . S
Fe89 O107 2.002 . S
O90 Fe88 1.918 . S
O90 Fe89 1.918 . S
O90 Fe91 1.918 . S
Fe91 O90 1.918 . S
Fe91 O92 2.002 . S
Fe91 O101 1.976 . S
Fe91 O105 1.996 . S
Fe91 O108 1.997 . S
O92 Fe91 2.002 . S
O92 C109 1.295 . S
O93 Fe88 1.997 . S
O93 C109 1.235 . S
O94 Fe88 2.002 . S
O94 C95 1.295 . S
C95 O94 1.295 . S
C95 O97 1.235 . S
C96 O101 1.287 . S
C96 O102 1.255 . S
O97 Fe89 1.997 . S
O97 C95 1.235 . S
C98 O104 1.287 . S
C98 O105 1.255 . S
O99 Fe88 1.976 . S
O99 C106 1.287 . S
O100 Fe89 1.996 . S
O100 C106 1.255 . S
O101 Fe91 1.976 . S
O101 C96 1.287 . S
O102 Fe88 1.996 . S
O102 C96 1.255 . S
C103 O107 1.295 . S
C103 O108 1.235 . S
O104 Fe89 1.976 . S
O104 C98 1.287 . S
O105 Fe91 1.996 . S
O105 C98 1.255 . S
C106 O99 1.287 . S
C106 O100 1.255 . S
O107 Fe89 2.002 . S
O107 C103 1.295 . S
O108 Fe91 1.997 . S
O108 C103 1.235 . S
C109 O92 1.295 . S
C109 O93 1.235 . S
Fe110 O112 1.918 . S
Fe110 O115 1.997 . S
Fe110 O116 2.002 . S
Fe110 O121 1.976 . S
Fe110 O124 1.996 . S
Fe111 O112 1.918 . S
Fe111 O119 1.997 1_556 S
Fe111 O122 1.996 . S
Fe111 O126 1.976 . S
Fe111 O129 2.002 . S
O112 Fe110 1.918 . S
O112 Fe111 1.918 . S
O112 Fe113 1.918 . S
Fe113 O112 1.918 . S
Fe113 O114 2.002 . S
Fe113 O123 1.976 . S
Fe113 O127 1.996 . S
Fe113 O130 1.997 . S
O114 Fe113 2.002 . S
O114 C131 1.295 . S
O115 Fe110 1.997 . S
O115 C131 1.235 . S
O116 Fe110 2.002 . S
O116 C117 1.295 1_556 S
C117 O116 1.295 1_554 S
C117 O119 1.235 . S
C118 O123 1.287 . S
C118 O124 1.255 . S
O119 Fe111 1.997 1_554 S
O119 C117 1.235 . S
C120 O126 1.287 . S
C120 O127 1.255 . S
O121 Fe110 1.976 . S
O121 C128 1.287 . S
O122 Fe111 1.996 . S
O122 C128 1.255 . S
O123 Fe113 1.976 . S
O123 C118 1.287 . S
O124 Fe110 1.996 . S
O124 C118 1.255 . S
C125 O129 1.295 . S
C125 O130 1.235 . S
O126 Fe111 1.976 . S
O126 C120 1.287 . S
O127 Fe113 1.996 . S
O127 C120 1.255 . S
C128 O121 1.287 . S
C128 O122 1.255 . S
O129 Fe111 2.002 . S
O129 C125 1.295 . S
O130 Fe113 1.997 . S
O130 C125 1.235 . S
C131 O114 1.295 . S
C131 O115 1.235 . S
Fe132 O134 1.918 . S
Fe132 O137 1.997 . S
Fe132 O138 2.002 . S
Fe132 O143 1.976 . S
Fe132 O146 1.996 . S
Fe133 O134 1.918 . S
Fe133 O141 1.997 . S
Fe133 O144 1.996 . S
Fe133 O148 1.976 . S
Fe133 O151 2.002 . S
O134 Fe132 1.918 . S
O134 Fe133 1.918 . S
O134 Fe135 1.918 . S
Fe135 O134 1.918 . S
Fe135 O136 2.002 . S
Fe135 O145 1.976 1_556 S
Fe135 O149 1.996 . S
Fe135 O152 1.997 . S
O136 Fe135 2.002 . S
O136 C153 1.295 . S
O137 Fe132 1.997 . S
O137 C153 1.235 . S
O138 Fe132 2.002 . S
O138 C139 1.295 . S
C139 O138 1.295 . S
C139 O141 1.235 . S
C140 O145 1.287 . S
C140 O146 1.255 1_554 S
O141 Fe133 1.997 . S
O141 C139 1.235 . S
C142 O148 1.287 . S
C142 O149 1.255 . S
O143 Fe132 1.976 . S
O143 C150 1.287 . S
O144 Fe133 1.996 . S
O144 C150 1.255 . S
O145 Fe135 1.976 1_554 S
O145 C140 1.287 . S
O146 Fe132 1.996 . S
O146 C140 1.255 1_556 S
C147 O151 1.295 . S
C147 O152 1.235 . S
O148 Fe133 1.976 . S
O148 C142 1.287 . S
O149 Fe135 1.996 . S
O149 C142 1.255 . S
C150 O143 1.287 . S
C150 O144 1.255 . S
O151 Fe133 2.002 . S
O151 C147 1.295 . S
O152 Fe135 1.997 . S
O152 C147 1.235 . S
C153 O136 1.295 . S
C153 O137 1.235 . S
Fe154 O156 1.918 . S
Fe154 O159 1.996 1_554 S
Fe154 O160 1.997 1_554 S
Fe154 O165 1.977 . S
Fe154 O168 2.001 . S
Fe155 O156 1.918 1_556 S
Fe155 O163 1.997 . S
Fe155 O166 1.996 . S
Fe155 O170 1.976 1_556 S
Fe155 O173 2.002 . S
O156 Fe154 1.918 . S
O156 Fe155 1.918 1_554 S
O156 Fe157 1.918 . S
Fe157 O156 1.918 . S
Fe157 O158 2.002 . S
Fe157 O167 1.976 . S
Fe157 O171 1.996 . S
Fe157 O174 1.997 1_554 S
O158 Fe157 2.002 . S
O158 C175 1.295 1_554 S
O159 Fe154 1.996 1_556 S
O159 C175 1.235 . S
O160 Fe154 1.997 1_556 S
O160 C161 1.295 . S
C161 O160 1.295 . S
C161 O163 1.235 . S
C162 O167 1.287 . S
C162 O168 1.255 . S
O163 Fe155 1.997 . S
O163 C161 1.235 . S
C164 O170 1.287 . S
C164 O171 1.255 . S
O165 Fe154 1.977 . S
O165 C172 1.287 . S
O166 Fe155 1.996 . S
O166 C172 1.255 1_556 S
O167 Fe157 1.976 . S
O167 C162 1.287 . S
O168 Fe154 2.001 . S
O168 C162 1.255 . S
C169 O173 1.295 . S
C169 O174 1.235 . S
O170 Fe155 1.976 1_554 S
O170 C164 1.287 . S
O171 Fe157 1.996 . S
O171 C164 1.255 . S
C172 O165 1.287 . S
C172 O166 1.255 1_554 S
O173 Fe155 2.002 . S
O173 C169 1.295 . S
O174 Fe157 1.997 1_556 S
O174 C169 1.235 . S
C175 O158 1.295 1_556 S
C175 O159 1.235 . S
Fe176 O178 1.918 . S
Fe176 O181 1.997 . S
Fe176 O182 2.002 . S
Fe176 O187 1.976 . S
Fe176 O190 1.996 . S
Fe177 O178 1.918 . S
Fe177 O185 1.997 1_554 S
Fe177 O188 1.996 . S
Fe177 O192 1.976 . S
Fe177 O195 2.002 . S
O178 Fe176 1.918 . S
O178 Fe177 1.918 . S
O178 Fe179 1.918 . S
Fe179 O178 1.918 . S
Fe179 O180 2.002 . S
Fe179 O189 1.976 . S
Fe179 O193 1.996 . S
Fe179 O196 1.997 . S
O180 Fe179 2.002 . S
O180 C197 1.295 . S
O181 Fe176 1.997 . S
O181 C197 1.235 . S
O182 Fe176 2.002 . S
O182 C183 1.295 1_554 S
C183 O182 1.295 1_556 S
C183 O185 1.235 . S
C184 O189 1.287 . S
C184 O190 1.255 . S
O185 Fe177 1.997 1_556 S
O185 C183 1.235 . S
C186 O192 1.287 . S
C186 O193 1.255 . S
O187 Fe176 1.976 . S
O187 C194 1.287 . S
O188 Fe177 1.996 . S
O188 C194 1.255 . S
O189 Fe179 1.976 . S
O189 C184 1.287 . S
O190 Fe176 1.996 . S
O190 C184 1.255 . S
C191 O195 1.295 . S
C191 O196 1.235 . S
O192 Fe177 1.976 . S
O192 C186 1.287 . S
O193 Fe179 1.996 . S
O193 C186 1.255 . S
C194 O187 1.287 . S
C194 O188 1.255 . S
O195 Fe177 2.002 . S
O195 C191 1.295 . S
O196 Fe179 1.997 . S
O196 C191 1.235 . S
C197 O180 1.295 . S
C197 O181 1.235 . S
Fe198 O200 1.918 . S
Fe198 O203 1.997 . S
Fe198 O204 2.002 . S
Fe198 O209 1.976 . S
Fe198 O212 1.996 . S
Fe199 O200 1.918 . S
Fe199 O207 1.997 . S
Fe199 O210 1.996 . S
Fe199 O214 1.976 . S
Fe199 O217 2.002 . S
O200 Fe198 1.918 . S
O200 Fe199 1.918 . S
O200 Fe201 1.918 . S
Fe201 O200 1.918 . S
Fe201 O202 2.002 . S
Fe201 O211 1.976 . S
Fe201 O215 1.996 . S
Fe201 O218 1.997 . S
O202 Fe201 2.002 . S
O202 C219 1.295 . S
O203 Fe198 1.997 . S
O203 C219 1.235 . S
O204 Fe198 2.002 . S
O204 C205 1.295 . S
C205 O204 1.295 . S
C205 O207 1.235 . S
C206 O211 1.287 . S
C206 O212 1.255 . S
O207 Fe199 1.997 . S
O207 C205 1.235 . S
C208 O214 1.287 . S
C208 O215 1.255 . S
O209 Fe198 1.976 . S
O209 C216 1.287 . S
O210 Fe199 1.996 . S
O210 C216 1.255 . S
O211 Fe201 1.976 . S
O211 C206 1.287 . S
O212 Fe198 1.996 . S
O212 C206 1.255 . S
C213 O217 1.295 . S
C213 O218 1.235 . S
O214 Fe199 1.976 . S
O214 C208 1.287 . S
O215 Fe201 1.996 . S
O215 C208 1.255 . S
C216 O209 1.287 . S
C216 O210 1.255 . S
O217 Fe199 2.002 . S
O217 C213 1.295 . S
O218 Fe201 1.997 . S
O218 C213 1.235 . S
C219 O202 1.295 . S
C219 O203 1.235 . S
Fe220 O222 1.918 . S
Fe220 O225 1.997 . S
Fe220 O226 2.002 . S
Fe220 O231 1.976 . S
Fe220 O234 1.996 . S
Fe221 O222 1.918 . S
Fe221 O229 1.997 . S
Fe221 O232 1.996 . S
Fe221 O236 1.976 . S
Fe221 O239 2.002 . S
O222 Fe220 1.918 . S
O222 Fe221 1.918 . S
O222 Fe223 1.918 . S
Fe223 O222 1.918 . S
Fe223 O224 2.002 . S
Fe223 O233 1.976 . S
Fe223 O237 1.996 . S
Fe223 O240 1.997 . S
O224 Fe223 2.002 . S
O224 C241 1.295 . S
O225 Fe220 1.997 . S
O225 C241 1.235 . S
O226 Fe220 2.002 . S
O226 C227 1.295 . S
C227 O226 1.295 . S
C227 O229 1.235 . S
C228 O233 1.287 . S
C228 O234 1.255 . S
O229 Fe221 1.997 . S
O229 C227 1.235 . S
C230 O236 1.287 . S
C230 O237 1.255 . S
O231 Fe220 1.976 . S
O231 C238 1.287 . S
O232 Fe221 1.996 . S
O232 C238 1.255 . S
O233 Fe223 1.976 . S
O233 C228 1.287 . S
O234 Fe220 1.996 . S
O234 C228 1.255 . S
C235 O239 1.295 . S
C235 O240 1.235 . S
O236 Fe221 1.976 . S
O236 C230 1.287 . S
O237 Fe223 1.996 . S
O237 C230 1.255 . S
C238 O231 1.287 . S
C238 O232 1.255 . S
O239 Fe221 2.002 . S
O239 C235 1.295 . S
O240 Fe223 1.997 . S
O240 C235 1.235 . S
C241 O224 1.295 . S
C241 O225 1.235 . S
Fe242 O244 1.918 . S
Fe242 O247 1.997 . S
Fe242 O248 2.002 . S
Fe242 O253 1.976 . S
Fe242 O256 1.996 . S
Fe243 O244 1.918 . S
Fe243 O251 1.997 . S
Fe243 O254 1.996 . S
Fe243 O258 1.976 . S
Fe243 O261 2.002 . S
O244 Fe242 1.918 . S
O244 Fe243 1.918 . S
O244 Fe245 1.918 . S
Fe245 O244 1.918 . S
Fe245 O246 2.002 . S
Fe245 O255 1.976 . S
Fe245 O259 1.996 . S
Fe245 O262 1.997 . S
O246 Fe245 2.002 . S
O246 C263 1.295 . S
O247 Fe242 1.997 . S
O247 C263 1.235 . S
O248 Fe242 2.002 . S
O248 C249 1.295 . S
C249 O248 1.295 . S
C249 O251 1.235 . S
C250 O255 1.287 . S
C250 O256 1.255 . S
O251 Fe243 1.997 . S
O251 C249 1.235 . S
C252 O258 1.287 . S
C252 O259 1.255 . S
O253 Fe242 1.976 . S
O253 C260 1.287 . S
O254 Fe243 1.996 . S
O254 C260 1.255 . S
O255 Fe245 1.976 . S
O255 C250 1.287 . S
O256 Fe242 1.996 . S
O256 C250 1.255 . S
C257 O261 1.295 . S
C257 O262 1.235 . S
O258 Fe243 1.976 . S
O258 C252 1.287 . S
O259 Fe245 1.996 . S
O259 C252 1.255 . S
C260 O253 1.287 . S
C260 O254 1.255 . S
O261 Fe243 2.002 . S
O261 C257 1.295 . S
O262 Fe245 1.997 . S
O262 C257 1.235 . S
C263 O246 1.295 . S
C263 O247 1.235 . S
H264 C276 0.930 . S
H265 C278 0.930 . S
H266 C279 0.930 . S
H267 C283 0.959 . S
H268 C283 0.959 . S
H269 C283 0.961 . S
H270 C284 0.960 . S
H271 C284 0.961 . S
H272 C284 0.959 . S
H273 C287 0.929 . S
H274 C288 0.931 . S
H275 C290 0.930 . S
C276 H264 0.930 . S
C276 C277 1.399 . S
C276 C281 1.399 . S
C277 C276 1.399 . S
C277 C278 1.376 . S
C278 H265 0.930 . S
C278 C277 1.376 . S
C278 C279 1.388 . S
C279 H266 0.930 . S
C279 C278 1.388 . S
C279 C280 1.390 . S
C280 C279 1.390 . S
C280 C281 1.394 . S
C280 C286 1.465 . S
C281 C276 1.399 . S
C281 C280 1.394 . S
C281 C282 1.516 . S
C282 C281 1.516 . S
C282 C283 1.502 . S
C282 C284 1.561 . S
C282 C285 1.526 . S
C283 H267 0.959 . S
C283 H268 0.959 . S
C283 H269 0.961 . S
C283 C282 1.502 . S
C284 H270 0.960 . S
C284 H271 0.961 . S
C284 H272 0.959 . S
C284 C282 1.561 . S
C285 C282 1.526 . S
C285 C286 1.396 . S
C285 C290 1.390 . S
C286 C280 1.465 . S
C286 C285 1.396 . S
C286 C287 1.399 . S
C287 H273 0.929 . S
C287 C286 1.399 . S
C287 C288 1.385 . S
C288 H274 0.931 . S
C288 C287 1.385 . S
C288 C289 1.389 . S
C289 C288 1.389 . S
C289 C290 1.387 . S
C290 H275 0.930 . S
C290 C285 1.390 . S
C290 C289 1.387 . S
H291 C303 0.930 . S
H292 C305 0.930 . S
H293 C306 0.930 . S
H294 C310 0.959 . S
H295 C310 0.959 . S
H296 C310 0.961 . S
H297 C311 0.960 . S
H298 C311 0.961 . S
H299 C311 0.959 . S
H300 C314 0.929 . S
H301 C315 0.931 . S
H302 C317 0.930 . S
C303 H291 0.930 . S
C303 C304 1.399 . S
C303 C308 1.399 . S
C304 C303 1.399 . S
C304 C305 1.376 . S
C305 H292 0.930 . S
C305 C304 1.376 . S
C305 C306 1.388 . S
C306 H293 0.930 . S
C306 C305 1.388 . S
C306 C307 1.390 . S
C307 C306 1.390 . S
C307 C308 1.394 . S
C307 C313 1.465 . S
C308 C303 1.399 . S
C308 C307 1.394 . S
C308 C309 1.516 . S
C309 C308 1.516 . S
C309 C310 1.502 . S
C309 C311 1.561 . S
C309 C312 1.526 . S
C310 H294 0.959 . S
C310 H295 0.959 . S
C310 H296 0.961 . S
C310 C309 1.502 . S
C311 H297 0.960 . S
C311 H298 0.961 . S
C311 H299 0.959 . S
C311 C309 1.561 . S
C312 C309 1.526 . S
C312 C313 1.396 . S
C312 C317 1.390 . S
C313 C307 1.465 . S
C313 C312 1.396 . S
C313 C314 1.399 . S
C314 H300 0.929 . S
C314 C313 1.399 . S
C314 C315 1.385 . S
C315 H301 0.931 . S
C315 C314 1.385 . S
C315 C316 1.389 . S
C316 C315 1.389 . S
C316 C317 1.387 . S
C317 H302 0.930 . S
C317 C312 1.390 . S
C317 C316 1.387 . S
H318 C330 0.930 . S
H319 C332 0.930 . S
H320 C333 0.930 . S
H321 C337 0.959 . S
H322 C337 0.959 . S
H323 C337 0.961 . S
H324 C338 0.960 . S
H325 C338 0.961 . S
H326 C338 0.959 . S
H327 C341 0.929 . S
H328 C342 0.931 . S
H329 C344 0.930 . S
C330 H318 0.930 . S
C330 C331 1.399 . S
C330 C335 1.399 . S
C331 C330 1.399 . S
C331 C332 1.376 . S
C332 H319 0.930 . S
C332 C331 1.376 . S
C332 C333 1.388 . S
C333 H320 0.930 . S
C333 C332 1.388 . S
C333 C334 1.390 . S
C334 C333 1.390 . S
C334 C335 1.394 . S
C334 C340 1.465 . S
C335 C330 1.399 . S
C335 C334 1.394 . S
C335 C336 1.516 . S
C336 C335 1.516 . S
C336 C337 1.502 . S
C336 C338 1.561 . S
C336 C339 1.526 . S
C337 H321 0.959 . S
C337 H322 0.959 . S
C337 H323 0.961 . S
C337 C336 1.502 . S
C338 H324 0.960 . S
C338 H325 0.961 . S
C338 H326 0.959 . S
C338 C336 1.561 . S
C339 C336 1.526 . S
C339 C340 1.396 . S
C339 C344 1.390 1_556 S
C340 C334 1.465 . S
C340 C339 1.396 . S
C340 C341 1.399 . S
C341 H327 0.929 . S
C341 C340 1.399 . S
C341 C342 1.385 1_556 S
C342 H328 0.931 . S
C342 C341 1.385 1_554 S
C342 C343 1.389 . S
C343 C342 1.389 . S
C343 C344 1.387 . S
C344 H329 0.930 . S
C344 C339 1.390 1_554 S
C344 C343 1.387 . S
H345 C357 0.930 . S
H346 C359 0.930 . S
H347 C360 0.930 . S
H348 C364 0.959 . S
H349 C364 0.959 . S
H350 C364 0.961 . S
H351 C365 0.960 . S
H352 C365 0.961 1_556 S
H353 C365 0.959 . S
H354 C368 0.929 . S
H355 C369 0.931 . S
H356 C371 0.930 . S
C357 H345 0.930 . S
C357 C358 1.399 . S
C357 C362 1.399 . S
C358 C357 1.399 . S
C358 C359 1.376 . S
C359 H346 0.930 . S
C359 C358 1.376 . S
C359 C360 1.388 . S
C360 H347 0.930 . S
C360 C359 1.388 . S
C360 C361 1.390 . S
C361 C360 1.390 . S
C361 C362 1.394 . S
C361 C367 1.465 1_554 S
C362 C357 1.399 . S
C362 C361 1.394 . S
C362 C363 1.516 . S
C363 C362 1.516 . S
C363 C364 1.502 . S
C363 C365 1.561 . S
C363 C366 1.526 1_554 S
C364 H348 0.959 . S
C364 H349 0.959 . S
C364 H350 0.961 . S
C364 C363 1.502 . S
C365 H351 0.960 . S
C365 H352 0.961 1_554 S
C365 H353 0.959 . S
C365 C363 1.561 . S
C366 C363 1.526 1_556 S
C366 C367 1.396 . S
C366 C371 1.390 . S
C367 C361 1.465 1_556 S
C367 C366 1.396 . S
C367 C368 1.399 . S
C368 H354 0.929 . S
C368 C367 1.399 . S
C368 C369 1.385 . S
C369 H355 0.931 . S
C369 C368 1.385 . S
C369 C370 1.389 . S
C370 C369 1.389 . S
C370 C371 1.387 . S
C371 H356 0.930 . S
C371 C366 1.390 . S
C371 C370 1.387 . S
H372 C384 0.930 . S
H373 C386 0.930 . S
H374 C387 0.930 . S
H375 C391 0.959 . S
H376 C391 0.959 . S
H377 C391 0.961 . S
H378 C392 0.960 . S
H379 C392 0.961 . S
H380 C392 0.959 . S
H381 C395 0.929 . S
H382 C396 0.931 . S
H383 C398 0.930 . S
C384 H372 0.930 . S
C384 C385 1.399 1_554 S
C384 C389 1.399 . S
C385 C384 1.399 1_556 S
C385 C386 1.376 . S
C386 H373 0.930 . S
C386 C385 1.376 . S
C386 C387 1.388 1_556 S
C387 H374 0.930 . S
C387 C386 1.388 1_554 S
C387 C388 1.390 . S
C388 C387 1.390 . S
C388 C389 1.394 . S
C388 C394 1.465 . S
C389 C384 1.399 . S
C389 C388 1.394 . S
C389 C390 1.516 . S
C390 C389 1.516 . S
C390 C391 1.502 . S
C390 C392 1.561 . S
C390 C393 1.526 . S
C391 H375 0.959 . S
C391 H376 0.959 . S
C391 H377 0.961 . S
C391 C390 1.502 . S
C392 H378 0.960 . S
C392 H379 0.961 . S
C392 H380 0.959 . S
C392 C390 1.561 . S
C393 C390 1.526 . S
C393 C394 1.396 . S
C393 C398 1.390 . S
C394 C388 1.465 . S
C394 C393 1.396 . S
C394 C395 1.399 . S
C395 H381 0.929 . S
C395 C394 1.399 . S
C395 C396 1.385 . S
C396 H382 0.931 . S
C396 C395 1.385 . S
C396 C397 1.389 . S
C397 C396 1.389 . S
C397 C398 1.387 . S
C398 H383 0.930 . S
C398 C393 1.390 . S
C398 C397 1.387 . S
H399 C411 0.930 . S
H400 C413 0.930 . S
H401 C414 0.930 . S
H402 C418 0.959 . S
H403 C418 0.959 . S
H404 C418 0.961 . S
H405 C419 0.960 . S
H406 C419 0.961 . S
H407 C419 0.959 . S
H408 C422 0.929 . S
H409 C423 0.931 . S
H410 C425 0.930 . S
C411 H399 0.930 . S
C411 C412 1.399 . S
C411 C416 1.399 . S
C412 C411 1.399 . S
C412 C413 1.376 . S
C413 H400 0.930 . S
C413 C412 1.376 . S
C413 C414 1.388 . S
C414 H401 0.930 . S
C414 C413 1.388 . S
C414 C415 1.390 . S
C415 C414 1.390 . S
C415 C416 1.394 . S
C415 C421 1.465 . S
C416 C411 1.399 . S
C416 C415 1.394 . S
C416 C417 1.516 . S
C417 C416 1.516 . S
C417 C418 1.502 . S
C417 C419 1.561 . S
C417 C420 1.526 . S
C418 H402 0.959 . S
C418 H403 0.959 . S
C418 H404 0.961 . S
C418 C417 1.502 . S
C419 H405 0.960 . S
C419 H406 0.961 . S
C419 H407 0.959 . S
C419 C417 1.561 . S
C420 C417 1.526 . S
C420 C421 1.396 . S
C420 C425 1.390 . S
C421 C415 1.465 . S
C421 C420 1.396 . S
C421 C422 1.399 . S
C422 H408 0.929 . S
C422 C421 1.399 . S
C422 C423 1.385 . S
C423 H409 0.931 . S
C423 C422 1.385 . S
C423 C424 1.389 . S
C424 C423 1.389 . S
C424 C425 1.387 . S
C425 H410 0.930 . S
C425 C420 1.390 . S
C425 C424 1.387 . S
H426 C438 0.930 . S
H427 C440 0.930 . S
H428 C441 0.930 . S
H429 C445 0.959 . S
H430 C445 0.959 . S
H431 C445 0.961 . S
H432 C446 0.960 . S
H433 C446 0.961 . S
H434 C446 0.959 . S
H435 C449 0.929 . S
H436 C450 0.931 . S
H437 C452 0.930 . S
C438 H426 0.930 . S
C438 C439 1.399 . S
C438 C443 1.399 . S
C439 C438 1.399 . S
C439 C440 1.376 . S
C440 H427 0.930 . S
C440 C439 1.376 . S
C440 C441 1.388 . S
C441 H428 0.930 . S
C441 C440 1.388 . S
C441 C442 1.390 . S
C442 C441 1.390 . S
C442 C443 1.394 . S
C442 C448 1.465 . S
C443 C438 1.399 . S
C443 C442 1.394 . S
C443 C444 1.516 . S
C444 C443 1.516 . S
C444 C445 1.502 . S
C444 C446 1.561 . S
C444 C447 1.526 . S
C445 H429 0.959 . S
C445 H430 0.959 . S
C445 H431 0.961 . S
C445 C444 1.502 . S
C446 H432 0.960 . S
C446 H433 0.961 . S
C446 H434 0.959 . S
C446 C444 1.561 . S
C447 C444 1.526 . S
C447 C448 1.396 . S
C447 C452 1.390 . S
C448 C442 1.465 . S
C448 C447 1.396 . S
C448 C449 1.399 . S
C449 H435 0.929 . S
C449 C448 1.399 . S
C449 C450 1.385 . S
C450 H436 0.931 . S
C450 C449 1.385 . S
C450 C451 1.389 . S
C451 C450 1.389 . S
C451 C452 1.387 . S
C452 H437 0.930 . S
C452 C447 1.390 . S
C452 C451 1.387 . S
H453 C465 0.930 . S
H454 C467 0.930 . S
H455 C468 0.930 . S
H456 C472 0.959 . S
H457 C472 0.959 . S
H458 C472 0.961 . S
H459 C473 0.960 . S
H460 C473 0.961 . S
H461 C473 0.959 . S
H462 C476 0.929 . S
H463 C477 0.931 . S
H464 C479 0.930 . S
C465 H453 0.930 . S
C465 C466 1.399 . S
C465 C470 1.399 . S
C466 C465 1.399 . S
C466 C467 1.376 . S
C467 H454 0.930 . S
C467 C466 1.376 . S
C467 C468 1.388 . S
C468 H455 0.930 . S
C468 C467 1.388 . S
C468 C469 1.390 . S
C469 C468 1.390 . S
C469 C470 1.394 . S
C469 C475 1.465 . S
C470 C465 1.399 . S
C470 C469 1.394 . S
C470 C471 1.516 . S
C471 C470 1.516 . S
C471 C472 1.502 . S
C471 C473 1.561 . S
C471 C474 1.526 . S
C472 H456 0.959 . S
C472 H457 0.959 . S
C472 H458 0.961 . S
C472 C471 1.502 . S
C473 H459 0.960 . S
C473 H460 0.961 . S
C473 H461 0.959 . S
C473 C471 1.561 . S
C474 C471 1.526 . S
C474 C475 1.396 . S
C474 C479 1.390 . S
C475 C469 1.465 . S
C475 C474 1.396 . S
C475 C476 1.399 . S
C476 H462 0.929 . S
C476 C475 1.399 . S
C476 C477 1.385 . S
C477 H463 0.931 . S
C477 C476 1.385 . S
C477 C478 1.389 . S
C478 C477 1.389 . S
C478 C479 1.387 . S
C479 H464 0.930 . S
C479 C474 1.390 . S
C479 C478 1.387 . S
H480 C492 0.930 . S
H481 C494 0.930 . S
H482 C495 0.930 . S
H483 C499 0.959 . S
H484 C499 0.959 . S
H485 C499 0.961 . S
H486 C500 0.960 . S
H487 C500 0.961 . S
H488 C500 0.959 . S
H489 C503 0.929 . S
H490 C504 0.931 . S
H491 C506 0.930 . S
C492 H480 0.930 . S
C492 C493 1.399 . S
C492 C497 1.399 . S
C493 C492 1.399 . S
C493 C494 1.376 . S
C494 H481 0.930 . S
C494 C493 1.376 . S
C494 C495 1.388 . S
C495 H482 0.930 . S
C495 C494 1.388 . S
C495 C496 1.390 . S
C496 C495 1.390 . S
C496 C497 1.394 . S
C496 C502 1.465 . S
C497 C492 1.399 . S
C497 C496 1.394 . S
C497 C498 1.516 . S
C498 C497 1.516 . S
C498 C499 1.502 . S
C498 C500 1.561 . S
C498 C501 1.526 . S
C499 H483 0.959 . S
C499 H484 0.959 . S
C499 H485 0.961 . S
C499 C498 1.502 . S
C500 H486 0.960 . S
C500 H487 0.961 . S
C500 H488 0.959 . S
C500 C498 1.561 . S
C501 C498 1.526 . S
C501 C502 1.396 . S
C501 C506 1.390 . S
C502 C496 1.465 . S
C502 C501 1.396 . S
C502 C503 1.399 . S
C503 H489 0.929 . S
C503 C502 1.399 . S
C503 C504 1.385 . S
C504 H490 0.931 . S
C504 C503 1.385 . S
C504 C505 1.389 . S
C505 C504 1.389 . S
C505 C506 1.387 . S
C506 H491 0.930 . S
C506 C501 1.390 . S
C506 C505 1.387 . S
H507 C519 0.930 1_554 S
H508 C521 0.930 . S
H509 C522 0.930 . S
H510 C526 0.959 . S
H511 C526 0.959 . S
H512 C526 0.961 . S
H513 C527 0.960 . S
H514 C527 0.961 . S
H515 C527 0.959 . S
H516 C530 0.929 . S
H517 C531 0.931 . S
H518 C533 0.930 . S
C519 H507 0.930 1_556 S
C519 C520 1.399 1_556 S
C519 C524 1.399 . S
C520 C519 1.399 1_554 S
C520 C521 1.376 . S
C521 H508 0.930 . S
C521 C520 1.376 . S
C521 C522 1.388 1_554 S
C522 H509 0.930 . S
C522 C521 1.388 1_556 S
C522 C523 1.390 . S
C523 C522 1.390 . S
C523 C524 1.394 . S
C523 C529 1.465 . S
C524 C519 1.399 . S
C524 C523 1.394 . S
C524 C525 1.516 . S
C525 C524 1.516 . S
C525 C526 1.502 . S
C525 C527 1.561 . S
C525 C528 1.526 . S
C526 H510 0.959 . S
C526 H511 0.959 . S
C526 H512 0.961 . S
C526 C525 1.502 . S
C527 H513 0.960 . S
C527 H514 0.961 . S
C527 H515 0.959 . S
C527 C525 1.561 . S
C528 C525 1.526 . S
C528 C529 1.396 . S
C528 C533 1.390 . S
C529 C523 1.465 . S
C529 C528 1.396 . S
C529 C530 1.399 . S
C530 H516 0.929 . S
C530 C529 1.399 . S
C530 C531 1.385 . S
C531 H517 0.931 . S
C531 C530 1.385 . S
C531 C532 1.389 . S
C532 C531 1.389 . S
C532 C533 1.387 . S
C533 H518 0.930 . S
C533 C528 1.390 . S
C533 C532 1.387 . S
H534 C546 0.930 . S
H535 C548 0.930 . S
H536 C549 0.930 . S
H537 C553 0.959 . S
H538 C553 0.959 . S
H539 C553 0.961 1_556 S
H540 C554 0.960 1_556 S
H541 C554 0.961 . S
H542 C554 0.959 . S
H543 C557 0.929 . S
H544 C558 0.931 . S
H545 C560 0.930 . S
C546 H534 0.930 . S
C546 C547 1.399 . S
C546 C551 1.399 . S
C547 C546 1.399 . S
C547 C548 1.376 . S
C548 H535 0.930 . S
C548 C547 1.376 . S
C548 C549 1.388 . S
C549 H536 0.930 . S
C549 C548 1.388 . S
C549 C550 1.390 . S
C550 C549 1.390 . S
C550 C551 1.394 . S
C550 C556 1.465 1_556 S
C551 C546 1.399 . S
C551 C550 1.394 . S
C551 C552 1.516 1_556 S
C552 C551 1.516 1_554 S
C552 C553 1.502 . S
C552 C554 1.561 . S
C552 C555 1.526 . S
C553 H537 0.959 . S
C553 H538 0.959 . S
C553 H539 0.961 1_554 S
C553 C552 1.502 . S
C554 H540 0.960 1_554 S
C554 H541 0.961 . S
C554 H542 0.959 . S
C554 C552 1.561 . S
C555 C552 1.526 . S
C555 C556 1.396 . S
C555 C560 1.390 . S
C556 C550 1.465 1_554 S
C556 C555 1.396 . S
C556 C557 1.399 . S
C557 H543 0.929 . S
C557 C556 1.399 . S
C557 C558 1.385 . S
C558 H544 0.931 . S
C558 C557 1.385 . S
C558 C559 1.389 . S
C559 C558 1.389 . S
C559 C560 1.387 . S
C560 H545 0.930 . S
C560 C555 1.390 . S
C560 C559 1.387 . S
H561 C573 0.930 . S
H562 C575 0.930 . S
H563 C576 0.930 . S
H564 C580 0.959 . S
H565 C580 0.959 . S
H566 C580 0.961 . S
H567 C581 0.960 . S
H568 C581 0.961 . S
H569 C581 0.959 . S
H570 C584 0.929 . S
H571 C585 0.931 . S
H572 C587 0.930 . S
C573 H561 0.930 . S
C573 C574 1.399 . S
C573 C578 1.399 . S
C574 C573 1.399 . S
C574 C575 1.376 . S
C575 H562 0.930 . S
C575 C574 1.376 . S
C575 C576 1.388 . S
C576 H563 0.930 . S
C576 C575 1.388 . S
C576 C577 1.390 . S
C577 C576 1.390 . S
C577 C578 1.394 . S
C577 C583 1.465 . S
C578 C573 1.399 . S
C578 C577 1.394 . S
C578 C579 1.516 . S
C579 C578 1.516 . S
C579 C580 1.502 . S
C579 C581 1.561 . S
C579 C582 1.526 . S
C580 H564 0.959 . S
C580 H565 0.959 . S
C580 H566 0.961 . S
C580 C579 1.502 . S
C581 H567 0.960 . S
C581 H568 0.961 . S
C581 H569 0.959 . S
C581 C579 1.561 . S
C582 C579 1.526 . S
C582 C583 1.396 . S
C582 C587 1.390 1_554 S
C583 C577 1.465 . S
C583 C582 1.396 . S
C583 C584 1.399 . S
C584 H570 0.929 . S
C584 C583 1.399 . S
C584 C585 1.385 1_554 S
C585 H571 0.931 . S
C585 C584 1.385 1_556 S
C585 C586 1.389 . S
C586 C585 1.389 . S
C586 C587 1.387 . S
C587 H572 0.930 . S
C587 C582 1.390 1_556 S
C587 C586 1.387 . S
H588 C600 0.930 . S
H589 C602 0.930 . S
H590 C603 0.930 . S
H591 C607 0.959 . S
H592 C607 0.959 . S
H593 C607 0.961 1_545 S
H594 C608 0.960 1_545 S
H595 C608 0.961 . S
H596 C608 0.959 . S
H597 C611 0.929 . S
H598 C612 0.931 . S
H599 C614 0.930 . S
C600 H588 0.930 . S
C600 C601 1.399 1_556 S
C600 C605 1.399 . S
C601 C600 1.399 1_554 S
C601 C602 1.376 . S
C602 H589 0.930 . S
C602 C601 1.376 . S
C602 C603 1.388 . S
C603 H590 0.930 . S
C603 C602 1.388 . S
C603 C604 1.390 . S
C604 C603 1.390 . S
C604 C605 1.394 1_554 S
C604 C610 1.465 1_545 S
C605 C600 1.399 . S
C605 C604 1.394 1_556 S
C605 C606 1.493 1_545 S
C606 C605 1.493 1_565 S
C606 C607 1.481 . S
C606 C608 1.574 . S
C606 C609 1.562 . S
C607 H591 0.959 . S
C607 H592 0.959 . S
C607 H593 0.961 1_565 S
C607 C606 1.481 . S
C608 H594 0.960 1_565 S
C608 H595 0.961 . S
C608 H596 0.959 . S
C608 C606 1.574 . S
C609 C606 1.562 . S
C609 C610 1.396 1_556 S
C609 C614 1.390 . S
C610 C604 1.465 1_565 S
C610 C609 1.396 1_554 S
C610 C611 1.399 . S
C611 H597 0.929 . S
C611 C610 1.399 . S
C611 C612 1.385 . S
C612 H598 0.931 . S
C612 C611 1.385 . S
C612 C613 1.389 . S
C613 C612 1.389 . S
C613 C614 1.387 1_554 S
C614 H599 0.930 . S
C614 C609 1.390 . S
C614 C613 1.387 1_556 S
H615 C627 0.930 . S
H616 C629 0.930 . S
H617 C630 0.930 . S
H618 C634 0.959 . S
H619 C634 0.959 . S
H620 C634 0.961 . S
H621 C635 0.960 . S
H622 C635 0.961 . S
H623 C635 0.959 . S
H624 C638 0.929 . S
H625 C639 0.931 . S
H626 C641 0.930 . S
C627 H615 0.930 . S
C627 C628 1.399 . S
C627 C632 1.399 . S
C628 C627 1.399 . S
C628 C629 1.376 . S
C629 H616 0.930 . S
C629 C628 1.376 . S
C629 C630 1.388 . S
C630 H617 0.930 . S
C630 C629 1.388 . S
C630 C631 1.390 . S
C631 C630 1.390 . S
C631 C632 1.394 . S
C631 C637 1.465 . S
C632 C627 1.399 . S
C632 C631 1.394 . S
C632 C633 1.516 . S
C633 C632 1.516 . S
C633 C634 1.502 . S
C633 C635 1.561 . S
C633 C636 1.526 . S
C634 H618 0.959 . S
C634 H619 0.959 . S
C634 H620 0.961 . S
C634 C633 1.502 . S
C635 H621 0.960 . S
C635 H622 0.961 . S
C635 H623 0.959 . S
C635 C633 1.561 . S
C636 C633 1.526 . S
C636 C637 1.396 . S
C636 C641 1.390 . S
C637 C631 1.465 . S
C637 C636 1.396 . S
C637 C638 1.399 . S
C638 H624 0.929 . S
C638 C637 1.399 . S
C638 C639 1.385 . S
C639 H625 0.931 . S
C639 C638 1.385 . S
C639 C640 1.389 . S
C640 C639 1.389 . S
C640 C641 1.387 . S
C641 H626 0.930 . S
C641 C636 1.390 . S
C641 C640 1.387 . S
H642 C654 0.930 . S
H643 C656 0.930 . S
H644 C657 0.930 . S
H645 C661 0.959 . S
H646 C661 0.959 . S
H647 C661 0.961 1_455 S
H648 C662 0.960 1_455 S
H649 C662 0.961 . S
H650 C662 0.959 . S
H651 C665 0.929 . S
H652 C666 0.931 . S
H653 C668 0.930 . S
C654 H642 0.930 . S
C654 C655 1.399 . S
C654 C659 1.399 . S
C655 C654 1.399 . S
C655 C656 1.376 . S
C656 H643 0.930 . S
C656 C655 1.376 . S
C656 C657 1.388 . S
C657 H644 0.930 . S
C657 C656 1.388 . S
C657 C658 1.390 . S
C658 C657 1.390 . S
C658 C659 1.394 . S
C658 C664 1.465 1_455 S
C659 C654 1.399 . S
C659 C658 1.394 . S
C659 C660 1.481 1_455 S
C660 C659 1.481 1_655 S
C660 C661 1.485 . S
C660 C662 1.585 . S
C660 C663 1.559 . S
C661 H645 0.959 . S
C661 H646 0.959 . S
C661 H647 0.961 1_655 S
C661 C660 1.485 . S
C662 H648 0.960 1_655 S
C662 H649 0.961 . S
C662 H650 0.959 . S
C662 C660 1.585 . S
C663 C660 1.559 . S
C663 C664 1.396 . S
C663 C668 1.390 . S
C664 C658 1.465 1_655 S
C664 C663 1.396 . S
C664 C665 1.399 . S
C665 H651 0.929 . S
C665 C664 1.399 . S
C665 C666 1.385 . S
C666 H652 0.931 . S
C666 C665 1.385 . S
C666 C667 1.389 . S
C667 C666 1.389 . S
C667 C668 1.387 . S
C668 H653 0.930 . S
C668 C663 1.390 . S
C668 C667 1.387 . S
H669 C681 0.930 . S
H670 C683 0.930 . S
H671 C684 0.930 . S
H672 C688 0.959 . S
H673 C688 0.959 . S
H674 C688 0.961 1_565 S
H675 C689 0.935 1_565 S
H676 C689 1.000 . S
H677 C689 0.970 . S
H678 C692 0.929 . S
H679 C693 0.931 . S
H680 C695 0.930 . S
C681 H669 0.930 . S
C681 C682 1.399 . S
C681 C686 1.399 . S
C682 C681 1.399 . S
C682 C683 1.376 . S
C683 H670 0.930 . S
C683 C682 1.376 . S
C683 C684 1.388 . S
C684 H671 0.930 . S
C684 C683 1.388 . S
C684 C685 1.390 . S
C685 C684 1.390 . S
C685 C686 1.394 . S
C685 C691 1.465 1_565 S
C686 C681 1.399 . S
C686 C685 1.394 . S
C686 C687 1.481 1_565 S
C687 C686 1.481 1_545 S
C687 C688 1.498 . S
C687 C689 1.559 . S
C687 C690 1.546 . S
C688 H672 0.959 . S
C688 H673 0.959 . S
C688 H674 0.961 1_545 S
C688 C687 1.498 . S
C689 H675 0.935 1_545 S
C689 H676 1.000 . S
C689 H677 0.970 . S
C689 C687 1.559 . S
C690 C687 1.546 . S
C690 C691 1.396 . S
C690 C695 1.390 . S
C691 C685 1.465 1_545 S
C691 C690 1.396 . S
C691 C692 1.399 . S
C692 H678 0.929 . S
C692 C691 1.399 . S
C692 C693 1.385 . S
C693 H679 0.931 . S
C693 C692 1.385 . S
C693 C694 1.389 . S
C694 C693 1.389 . S
C694 C695 1.387 . S
C695 H680 0.930 . S
C695 C690 1.390 . S
C695 C694 1.387 . S
H696 C708 0.930 . S
H697 C710 0.930 . S
H698 C711 0.930 . S
H699 C715 0.959 . S
H700 C715 0.959 . S
H701 C715 0.961 . S
H702 C716 0.960 . S
H703 C716 0.961 . S
H704 C716 0.959 . S
H705 C719 0.929 . S
H706 C720 0.931 . S
H707 C722 0.930 . S
C708 H696 0.930 . S
C708 C709 1.399 . S
C708 C713 1.399 . S
C709 C708 1.399 . S
C709 C710 1.376 . S
C710 H697 0.930 . S
C710 C709 1.376 . S
C710 C711 1.388 . S
C711 H698 0.930 . S
C711 C710 1.388 . S
C711 C712 1.390 . S
C712 C711 1.390 . S
C712 C713 1.394 . S
C712 C718 1.465 . S
C713 C708 1.399 . S
C713 C712 1.394 . S
C713 C714 1.516 . S
C714 C713 1.516 . S
C714 C715 1.502 . S
C714 C716 1.561 . S
C714 C717 1.526 . S
C715 H699 0.959 . S
C715 H700 0.959 . S
C715 H701 0.961 . S
C715 C714 1.502 . S
C716 H702 0.960 . S
C716 H703 0.961 . S
C716 H704 0.959 . S
C716 C714 1.561 . S
C717 C714 1.526 . S
C717 C718 1.396 . S
C717 C722 1.390 . S
C718 C712 1.465 . S
C718 C717 1.396 . S
C718 C719 1.399 . S
C719 H705 0.929 . S
C719 C718 1.399 . S
C719 C720 1.385 . S
C720 H706 0.931 . S
C720 C719 1.385 . S
C720 C721 1.389 . S
C721 C720 1.389 . S
C721 C722 1.387 . S
C722 H707 0.930 . S
C722 C717 1.390 . S
C722 C721 1.387 . S
H723 C735 0.930 . S
H724 C737 0.930 . S
H725 C738 0.930 . S
H726 C742 0.959 . S
H727 C742 0.959 . S
H728 C742 0.961 1_455 S
H729 C743 0.960 1_455 S
H730 C743 0.961 . S
H731 C743 0.959 . S
H732 C746 0.929 . S
H733 C747 0.931 . S
H734 C749 0.930 . S
C735 H723 0.930 . S
C735 C736 1.399 . S
C735 C740 1.399 . S
C736 C735 1.399 . S
C736 C737 1.376 . S
C737 H724 0.930 . S
C737 C736 1.376 . S
C737 C738 1.388 . S
C738 H725 0.930 . S
C738 C737 1.388 . S
C738 C739 1.390 . S
C739 C738 1.390 . S
C739 C740 1.394 . S
C739 C745 1.465 1_455 S
C740 C735 1.399 . S
C740 C739 1.394 . S
C740 C741 1.478 1_455 S
C741 C740 1.478 1_655 S
C741 C742 1.525 . S
C741 C743 1.554 . S
C741 C744 1.547 . S
C742 H726 0.959 . S
C742 H727 0.959 . S
C742 H728 0.961 1_655 S
C742 C741 1.525 . S
C743 H729 0.960 1_655 S
C743 H730 0.961 . S
C743 H731 0.959 . S
C743 C741 1.554 . S
C744 C741 1.547 . S
C744 C745 1.396 . S
C744 C749 1.390 . S
C745 C739 1.465 1_655 S
C745 C744 1.396 . S
C745 C746 1.399 . S
C746 H732 0.929 . S
C746 C745 1.399 . S
C746 C747 1.385 . S
C747 H733 0.931 . S
C747 C746 1.385 . S
C747 C748 1.389 . S
C748 C747 1.389 . S
C748 C749 1.387 . S
C749 H734 0.930 . S
C749 C744 1.390 . S
C749 C748 1.387 . S
H750 C762 0.930 . S
H751 C764 0.930 . S
H752 C765 0.930 . S
H753 C769 0.959 . S
H754 C769 0.959 . S
H755 C769 0.961 . S
H756 C770 0.960 . S
H757 C770 0.961 . S
H758 C770 0.959 . S
H759 C773 0.929 . S
H760 C774 0.931 . S
H761 C776 0.930 . S
C762 H750 0.930 . S
C762 C763 1.399 . S
C762 C767 1.399 . S
C763 C762 1.399 . S
C763 C764 1.376 . S
C764 H751 0.930 . S
C764 C763 1.376 . S
C764 C765 1.388 . S
C765 H752 0.930 . S
C765 C764 1.388 . S
C765 C766 1.390 . S
C766 C765 1.390 . S
C766 C767 1.394 . S
C766 C772 1.465 . S
C767 C762 1.399 . S
C767 C766 1.394 . S
C767 C768 1.516 . S
C768 C767 1.516 . S
C768 C769 1.502 . S
C768 C770 1.561 . S
C768 C771 1.526 . S
C769 H753 0.959 . S
C769 H754 0.959 . S
C769 H755 0.961 . S
C769 C768 1.502 . S
C770 H756 0.960 . S
C770 H757 0.961 . S
C770 H758 0.959 . S
C770 C768 1.561 . S
C771 C768 1.526 . S
C771 C772 1.396 . S
C771 C776 1.390 . S
C772 C766 1.465 . S
C772 C771 1.396 . S
C772 C773 1.399 . S
C773 H759 0.929 . S
C773 C772 1.399 . S
C773 C774 1.385 . S
C774 H760 0.931 . S
C774 C773 1.385 . S
C774 C775 1.389 . S
C775 C774 1.389 . S
C775 C776 1.387 . S
C776 H761 0.930 . S
C776 C771 1.390 . S
C776 C775 1.387 . S
H777 C789 0.930 . S
H778 C791 0.930 . S
H779 C792 0.930 . S
H780 C796 0.959 . S
H781 C796 0.959 1_554 S
H782 C796 0.961 1_554 S
H783 C797 0.960 . S
H784 C797 0.961 . S
H785 C797 0.959 . S
H786 C800 0.929 . S
H787 C801 0.931 . S
H788 C803 0.930 . S
C789 H777 0.930 . S
C789 C790 1.399 . S
C789 C794 1.399 1_554 S
C790 C789 1.399 . S
C790 C791 1.376 1_554 S
C791 H778 0.930 . S
C791 C790 1.376 1_556 S
C791 C792 1.388 . S
C792 H779 0.930 . S
C792 C791 1.388 . S
C792 C793 1.390 . S
C793 C792 1.390 . S
C793 C794 1.394 . S
C793 C799 1.465 . S
C794 C789 1.399 1_556 S
C794 C793 1.394 . S
C794 C795 1.517 . S
C795 C794 1.517 . S
C795 C796 1.502 . S
C795 C797 1.550 1_556 S
C795 C798 1.537 . S
C796 H780 0.959 . S
C796 H781 0.959 1_556 S
C796 H782 0.961 1_556 S
C796 C795 1.502 . S
C797 H783 0.960 . S
C797 H784 0.961 . S
C797 H785 0.959 . S
C797 C795 1.550 1_554 S
C798 C795 1.537 . S
C798 C799 1.396 . S
C798 C803 1.390 . S
C799 C793 1.465 . S
C799 C798 1.396 . S
C799 C800 1.399 . S
C800 H786 0.929 . S
C800 C799 1.399 . S
C800 C801 1.385 . S
C801 H787 0.931 . S
C801 C800 1.385 . S
C801 C802 1.389 . S
C802 C801 1.389 . S
C802 C803 1.387 . S
C803 H788 0.930 . S
C803 C798 1.390 . S
C803 C802 1.387 . S
H804 C816 0.930 . S
H805 C818 0.930 . S
H806 C819 0.930 . S
H807 C823 0.959 . S
H808 C823 0.959 . S
H809 C823 0.961 . S
H810 C824 0.960 1_556 S
H811 C824 0.961 . S
H812 C824 0.959 . S
H813 C827 0.929 . S
H814 C828 0.931 . S
H815 C830 0.930 . S
C816 H804 0.930 . S
C816 C817 1.399 . S
C816 C821 1.399 1_556 S
C817 C816 1.399 . S
C817 C818 1.376 1_556 S
C818 H805 0.930 . S
C818 C817 1.376 1_554 S
C818 C819 1.388 . S
C819 H806 0.930 . S
C819 C818 1.388 . S
C819 C820 1.390 . S
C820 C819 1.390 . S
C820 C821 1.394 . S
C820 C826 1.465 . S
C821 C816 1.399 1_554 S
C821 C820 1.394 . S
C821 C822 1.516 . S
C822 C821 1.516 . S
C822 C823 1.502 1_554 S
C822 C824 1.561 . S
C822 C825 1.526 . S
C823 H807 0.959 . S
C823 H808 0.959 . S
C823 H809 0.961 . S
C823 C822 1.502 1_556 S
C824 H810 0.960 1_554 S
C824 H811 0.961 . S
C824 H812 0.959 . S
C824 C822 1.561 . S
C825 C822 1.526 . S
C825 C826 1.396 . S
C825 C830 1.390 . S
C826 C820 1.465 . S
C826 C825 1.396 . S
C826 C827 1.399 . S
C827 H813 0.929 . S
C827 C826 1.399 . S
C827 C828 1.385 . S
C828 H814 0.931 . S
C828 C827 1.385 . S
C828 C829 1.389 . S
C829 C828 1.389 . S
C829 C830 1.387 . S
C830 H815 0.930 . S
C830 C825 1.390 . S
C830 C829 1.387 . S
H831 C843 0.930 . S
H832 C845 0.930 . S
H833 C846 0.930 . S
H834 C850 0.959 . S
H835 C850 0.959 . S
H836 C850 0.961 . S
H837 C851 0.960 . S
H838 C851 0.961 . S
H839 C851 0.959 . S
H840 C854 0.929 . S
H841 C855 0.931 . S
H842 C857 0.930 . S
C843 H831 0.930 . S
C843 C844 1.399 . S
C843 C848 1.399 . S
C844 C843 1.399 . S
C844 C845 1.376 . S
C845 H832 0.930 . S
C845 C844 1.376 . S
C845 C846 1.388 . S
C846 H833 0.930 . S
C846 C845 1.388 . S
C846 C847 1.390 . S
C847 C846 1.390 . S
C847 C848 1.394 . S
C847 C853 1.465 . S
C848 C843 1.399 . S
C848 C847 1.394 . S
C848 C849 1.516 . S
C849 C848 1.516 . S
C849 C850 1.502 . S
C849 C851 1.561 . S
C849 C852 1.526 . S
C850 H834 0.959 . S
C850 H835 0.959 . S
C850 H836 0.961 . S
C850 C849 1.502 . S
C851 H837 0.960 . S
C851 H838 0.961 . S
C851 H839 0.959 . S
C851 C849 1.561 . S
C852 C849 1.526 . S
C852 C853 1.396 . S
C852 C857 1.390 . S
C853 C847 1.465 . S
C853 C852 1.396 . S
C853 C854 1.399 . S
C854 H840 0.929 . S
C854 C853 1.399 . S
C854 C855 1.385 . S
C855 H841 0.931 . S
C855 C854 1.385 . S
C855 C856 1.389 . S
C856 C855 1.389 . S
C856 C857 1.387 . S
C857 H842 0.930 . S
C857 C852 1.390 . S
C857 C856 1.387 . S
H858 C870 0.930 . S
H859 C872 0.930 . S
H860 C873 0.930 . S
H861 C877 0.959 . S
H862 C877 0.959 . S
H863 C877 0.961 . S
H864 C878 0.960 . S
H865 C878 0.961 . S
H866 C878 0.959 . S
H867 C881 0.929 . S
H868 C882 0.931 . S
H869 C884 0.930 . S
C870 H858 0.930 . S
C870 C871 1.399 . S
C870 C875 1.399 . S
C871 C870 1.399 . S
C871 C872 1.376 . S
C872 H859 0.930 . S
C872 C871 1.376 . S
C872 C873 1.388 . S
C873 H860 0.930 . S
C873 C872 1.388 . S
C873 C874 1.390 . S
C874 C873 1.390 . S
C874 C875 1.394 . S
C874 C880 1.465 . S
C875 C870 1.399 . S
C875 C874 1.394 . S
C875 C876 1.516 . S
C876 C875 1.516 . S
C876 C877 1.502 . S
C876 C878 1.561 . S
C876 C879 1.526 . S
C877 H861 0.959 . S
C877 H862 0.959 . S
C877 H863 0.961 . S
C877 C876 1.502 . S
C878 H864 0.960 . S
C878 H865 0.961 . S
C878 H866 0.959 . S
C878 C876 1.561 . S
C879 C876 1.526 . S
C879 C880 1.396 . S
C879 C884 1.390 . S
C880 C874 1.465 . S
C880 C879 1.396 . S
C880 C881 1.399 . S
C881 H867 0.929 . S
C881 C880 1.399 . S
C881 C882 1.385 . S
C882 H868 0.931 . S
C882 C881 1.385 . S
C882 C883 1.389 . S
C883 C882 1.389 . S
C883 C884 1.387 . S
C884 H869 0.930 . S
C884 C879 1.390 . S
C884 C883 1.387 . S
H885 C897 0.930 . S
H886 C899 0.930 . S
H887 C900 0.930 . S
H888 C904 0.959 . S
H889 C904 0.959 . S
H890 C904 0.961 . S
H891 C905 0.960 . S
H892 C905 0.961 . S
H893 C905 0.959 . S
H894 C908 0.929 . S
H895 C909 0.931 . S
H896 C911 0.930 . S
C897 H885 0.930 . S
C897 C898 1.399 . S
C897 C902 1.399 . S
C898 C897 1.399 . S
C898 C899 1.376 . S
C899 H886 0.930 . S
C899 C898 1.376 . S
C899 C900 1.388 . S
C900 H887 0.930 . S
C900 C899 1.388 . S
C900 C901 1.390 . S
C901 C900 1.390 . S
C901 C902 1.394 . S
C901 C907 1.465 . S
C902 C897 1.399 . S
C902 C901 1.394 . S
C902 C903 1.516 . S
C903 C902 1.516 . S
C903 C904 1.502 . S
C903 C905 1.561 . S
C903 C906 1.526 . S
C904 H888 0.959 . S
C904 H889 0.959 . S
C904 H890 0.961 . S
C904 C903 1.502 . S
C905 H891 0.960 . S
C905 H892 0.961 . S
C905 H893 0.959 . S
C905 C903 1.561 . S
C906 C903 1.526 . S
C906 C907 1.396 . S
C906 C911 1.390 . S
C907 C901 1.465 . S
C907 C906 1.396 . S
C907 C908 1.399 . S
C908 H894 0.929 . S
C908 C907 1.399 . S
C908 C909 1.385 . S
C909 H895 0.931 . S
C909 C908 1.385 . S
C909 C910 1.389 . S
C910 C909 1.389 . S
C910 C911 1.387 . S
C911 H896 0.930 . S
C911 C906 1.390 . S
C911 C910 1.387 . S
H912 C924 0.930 1_556 S
H913 C926 0.930 . S
H914 C927 0.930 . S
H915 C931 0.959 . S
H916 C931 0.959 . S
H917 C931 0.961 . S
H918 C932 0.960 . S
H919 C932 0.961 . S
H920 C932 0.959 . S
H921 C935 0.929 . S
H922 C936 0.931 . S
H923 C938 0.930 . S
C924 H912 0.930 1_554 S
C924 C925 1.399 . S
C924 C929 1.399 . S
C925 C924 1.399 . S
C925 C926 1.376 . S
C926 H913 0.930 . S
C926 C925 1.376 . S
C926 C927 1.388 . S
C927 H914 0.930 . S
C927 C926 1.388 . S
C927 C928 1.390 . S
C928 C927 1.390 . S
C928 C929 1.394 . S
C928 C934 1.465 . S
C929 C924 1.399 . S
C929 C928 1.394 . S
C929 C930 1.516 1_554 S
C930 C929 1.516 1_556 S
C930 C931 1.502 . S
C930 C932 1.561 . S
C930 C933 1.526 1_556 S
C931 H915 0.959 . S
C931 H916 0.959 . S
C931 H917 0.961 . S
C931 C930 1.502 . S
C932 H918 0.960 . S
C932 H919 0.961 . S
C932 H920 0.959 . S
C932 C930 1.561 . S
C933 C930 1.526 1_554 S
C933 C934 1.396 . S
C933 C938 1.390 . S
C934 C928 1.465 . S
C934 C933 1.396 . S
C934 C935 1.399 . S
C935 H921 0.929 . S
C935 C934 1.399 . S
C935 C936 1.385 . S
C936 H922 0.931 . S
C936 C935 1.385 . S
C936 C937 1.389 . S
C937 C936 1.389 . S
C937 C938 1.387 . S
C938 H923 0.930 . S
C938 C933 1.390 . S
C938 C937 1.387 . S
H939 C951 0.930 . S
H940 C953 0.930 . S
H941 C954 0.930 . S
H942 C958 0.959 . S
H943 C958 0.959 . S
H944 C958 0.961 . S
H945 C959 0.960 . S
H946 C959 0.961 . S
H947 C959 0.959 . S
H948 C962 0.929 . S
H949 C963 0.931 . S
H950 C965 0.930 . S
C951 H939 0.930 . S
C951 C952 1.399 . S
C951 C956 1.399 . S
C952 C951 1.399 . S
C952 C953 1.376 . S
C953 H940 0.930 . S
C953 C952 1.376 . S
C953 C954 1.388 . S
C954 H941 0.930 . S
C954 C953 1.388 . S
C954 C955 1.390 . S
C955 C954 1.390 . S
C955 C956 1.394 . S
C955 C961 1.465 . S
C956 C951 1.399 . S
C956 C955 1.394 . S
C956 C957 1.516 . S
C957 C956 1.516 . S
C957 C958 1.502 . S
C957 C959 1.561 . S
C957 C960 1.526 . S
C958 H942 0.959 . S
C958 H943 0.959 . S
C958 H944 0.961 . S
C958 C957 1.502 . S
C959 H945 0.960 . S
C959 H946 0.961 . S
C959 H947 0.959 . S
C959 C957 1.561 . S
C960 C957 1.526 . S
C960 C961 1.396 . S
C960 C965 1.390 . S
C961 C955 1.465 . S
C961 C960 1.396 . S
C961 C962 1.399 . S
C962 H948 0.929 . S
C962 C961 1.399 . S
C962 C963 1.385 . S
C963 H949 0.931 . S
C963 C962 1.385 . S
C963 C964 1.389 . S
C964 C963 1.389 . S
C964 C965 1.387 . S
C965 H950 0.930 . S
C965 C960 1.390 . S
C965 C964 1.387 . S
H966 C978 0.930 . S
H967 C980 0.930 . S
H968 C981 0.930 . S
H969 C985 0.959 . S
H970 C985 0.959 . S
H971 C985 0.961 . S
H972 C986 0.960 . S
H973 C986 0.961 . S
H974 C986 0.959 . S
H975 C989 0.929 . S
H976 C990 0.931 . S
H977 C992 0.930 . S
C978 H966 0.930 . S
C978 C979 1.399 . S
C978 C983 1.399 . S
C979 C978 1.399 . S
C979 C980 1.376 . S
C980 H967 0.930 . S
C980 C979 1.376 . S
C980 C981 1.388 . S
C981 H968 0.930 . S
C981 C980 1.388 . S
C981 C982 1.390 . S
C982 C981 1.390 . S
C982 C983 1.394 . S
C982 C988 1.465 . S
C983 C978 1.399 . S
C983 C982 1.394 . S
C983 C984 1.516 . S
C984 C983 1.516 . S
C984 C985 1.502 . S
C984 C986 1.561 . S
C984 C987 1.526 . S
C985 H969 0.959 . S
C985 H970 0.959 . S
C985 H971 0.961 . S
C985 C984 1.502 . S
C986 H972 0.960 . S
C986 H973 0.961 . S
C986 H974 0.959 . S
C986 C984 1.561 . S
C987 C984 1.526 . S
C987 C988 1.396 . S
C987 C992 1.390 . S
C988 C982 1.465 . S
C988 C987 1.396 . S
C988 C989 1.399 . S
C989 H975 0.929 . S
C989 C988 1.399 . S
C989 C990 1.385 . S
C990 H976 0.931 . S
C990 C989 1.385 . S
C990 C991 1.389 . S
C991 C990 1.389 . S
C991 C992 1.387 . S
C992 H977 0.930 . S
C992 C987 1.390 . S
C992 C991 1.387 . S
H993 C1005 0.930 . S
H994 C1007 0.930 . S
H995 C1008 0.930 . S
H996 C1012 0.959 . S
H997 C1012 0.959 . S
H998 C1012 0.961 . S
H999 C1013 0.960 . S
H1000 C1013 0.961 . S
H1001 C1013 0.959 . S
H1002 C1016 0.929 . S
H1003 C1017 0.931 . S
H1004 C1019 0.930 . S
C1005 H993 0.930 . S
C1005 C1006 1.399 . S
C1005 C1010 1.399 . S
C1006 C1005 1.399 . S
C1006 C1007 1.376 . S
C1007 H994 0.930 . S
C1007 C1006 1.376 . S
C1007 C1008 1.388 . S
C1008 H995 0.930 . S
C1008 C1007 1.388 . S
C1008 C1009 1.390 . S
C1009 C1008 1.390 . S
C1009 C1010 1.394 . S
C1009 C1015 1.465 . S
C1010 C1005 1.399 . S
C1010 C1009 1.394 . S
C1010 C1011 1.516 . S
C1011 C1010 1.516 . S
C1011 C1012 1.502 . S
C1011 C1013 1.561 . S
C1011 C1014 1.526 . S
C1012 H996 0.959 . S
C1012 H997 0.959 . S
C1012 H998 0.961 . S
C1012 C1011 1.502 . S
C1013 H999 0.960 . S
C1013 H1000 0.961 . S
C1013 H1001 0.959 . S
C1013 C1011 1.561 . S
C1014 C1011 1.526 . S
C1014 C1015 1.396 . S
C1014 C1019 1.390 . S
C1015 C1009 1.465 . S
C1015 C1014 1.396 . S
C1015 C1016 1.399 . S
C1016 H1002 0.929 . S
C1016 C1015 1.399 . S
C1016 C1017 1.385 . S
C1017 H1003 0.931 . S
C1017 C1016 1.385 . S
C1017 C1018 1.389 . S
C1018 C1017 1.389 . S
C1018 C1019 1.387 . S
C1019 H1004 0.930 . S
C1019 C1014 1.390 . S
C1019 C1018 1.387 . S
H1020 C1032 0.930 . S
H1021 C1034 0.930 . S
H1022 C1035 0.930 . S
H1023 C1039 0.959 . S
H1024 C1039 0.959 . S
H1025 C1039 0.961 . S
H1026 C1040 0.960 . S
H1027 C1040 0.961 . S
H1028 C1040 0.959 . S
H1029 C1043 0.929 . S
H1030 C1044 0.931 . S
H1031 C1046 0.930 . S
C1032 H1020 0.930 . S
C1032 C1033 1.399 . S
C1032 C1037 1.399 . S
C1033 C1032 1.399 . S
C1033 C1034 1.376 . S
C1034 H1021 0.930 . S
C1034 C1033 1.376 . S
C1034 C1035 1.388 . S
C1035 H1022 0.930 . S
C1035 C1034 1.388 . S
C1035 C1036 1.390 . S
C1036 C1035 1.390 . S
C1036 C1037 1.394 . S
C1036 C1042 1.465 . S
C1037 C1032 1.399 . S
C1037 C1036 1.394 . S
C1037 C1038 1.516 . S
C1038 C1037 1.516 . S
C1038 C1039 1.502 . S
C1038 C1040 1.561 . S
C1038 C1041 1.526 . S
C1039 H1023 0.959 . S
C1039 H1024 0.959 . S
C1039 H1025 0.961 . S
C1039 C1038 1.502 . S
C1040 H1026 0.960 . S
C1040 H1027 0.961 . S
C1040 H1028 0.959 . S
C1040 C1038 1.561 . S
C1041 C1038 1.526 . S
C1041 C1042 1.396 . S
C1041 C1046 1.390 . S
C1042 C1036 1.465 . S
C1042 C1041 1.396 . S
C1042 C1043 1.399 . S
C1043 H1029 0.929 . S
C1043 C1042 1.399 . S
C1043 C1044 1.385 . S
C1044 H1030 0.931 . S
C1044 C1043 1.385 . S
C1044 C1045 1.389 . S
C1045 C1044 1.389 . S
C1045 C1046 1.387 . S
C1046 H1031 0.930 . S
C1046 C1041 1.390 . S
C1046 C1045 1.387 . S
H1047 C1059 0.930 . S
H1048 C1061 0.930 1_554 S
H1049 C1062 0.930 . S
H1050 C1066 0.959 . S
H1051 C1066 0.959 . S
H1052 C1066 0.961 . S
H1053 C1067 0.960 . S
H1054 C1067 0.961 . S
H1055 C1067 0.959 . S
H1056 C1070 0.929 . S
H1057 C1071 0.931 . S
H1058 C1073 0.930 . S
C1059 H1047 0.930 . S
C1059 C1060 1.399 . S
C1059 C1064 1.399 . S
C1060 C1059 1.399 . S
C1060 C1061 1.376 . S
C1061 H1048 0.930 1_556 S
C1061 C1060 1.376 . S
C1061 C1062 1.388 1_556 S
C1062 H1049 0.930 . S
C1062 C1061 1.388 1_554 S
C1062 C1063 1.390 1_554 S
C1063 C1062 1.390 1_556 S
C1063 C1064 1.394 . S
C1063 C1069 1.465 . S
C1064 C1059 1.399 . S
C1064 C1063 1.394 . S
C1064 C1065 1.516 . S
C1065 C1064 1.516 . S
C1065 C1066 1.502 . S
C1065 C1067 1.561 . S
C1065 C1068 1.526 . S
C1066 H1050 0.959 . S
C1066 H1051 0.959 . S
C1066 H1052 0.961 . S
C1066 C1065 1.502 . S
C1067 H1053 0.960 . S
C1067 H1054 0.961 . S
C1067 H1055 0.959 . S
C1067 C1065 1.561 . S
C1068 C1065 1.526 . S
C1068 C1069 1.396 . S
C1068 C1073 1.390 . S
C1069 C1063 1.465 . S
C1069 C1068 1.396 . S
C1069 C1070 1.399 1_556 S
C1070 H1056 0.929 . S
C1070 C1069 1.399 1_554 S
C1070 C1071 1.385 . S
C1071 H1057 0.931 . S
C1071 C1070 1.385 . S
C1071 C1072 1.389 1_554 S
C1072 C1071 1.389 1_556 S
C1072 C1073 1.387 . S
C1073 H1058 0.930 . S
C1073 C1068 1.390 . S
C1073 C1072 1.387 . S
H1074 C1086 0.930 . S
H1075 C1088 0.930 . S
H1076 C1089 0.930 . S
H1077 C1093 0.959 . S
H1078 C1093 0.959 . S
H1079 C1093 0.961 . S
H1080 C1094 0.960 . S
H1081 C1094 0.961 . S
H1082 C1094 0.959 . S
H1083 C1097 0.929 . S
H1084 C1098 0.931 . S
H1085 C1100 0.930 . S
C1086 H1074 0.930 . S
C1086 C1087 1.399 . S
C1086 C1091 1.399 . S
C1087 C1086 1.399 . S
C1087 C1088 1.376 . S
C1088 H1075 0.930 . S
C1088 C1087 1.376 . S
C1088 C1089 1.388 . S
C1089 H1076 0.930 . S
C1089 C1088 1.388 . S
C1089 C1090 1.390 . S
C1090 C1089 1.390 . S
C1090 C1091 1.394 . S
C1090 C1096 1.465 . S
C1091 C1086 1.399 . S
C1091 C1090 1.394 . S
C1091 C1092 1.516 . S
C1092 C1091 1.516 . S
C1092 C1093 1.502 . S
C1092 C1094 1.561 . S
C1092 C1095 1.526 . S
C1093 H1077 0.959 . S
C1093 H1078 0.959 . S
C1093 H1079 0.961 . S
C1093 C1092 1.502 . S
C1094 H1080 0.960 . S
C1094 H1081 0.961 . S
C1094 H1082 0.959 . S
C1094 C1092 1.561 . S
C1095 C1092 1.526 . S
C1095 C1096 1.396 . S
C1095 C1100 1.390 . S
C1096 C1090 1.465 . S
C1096 C1095 1.396 . S
C1096 C1097 1.399 . S
C1097 H1083 0.929 . S
C1097 C1096 1.399 . S
C1097 C1098 1.385 . S
C1098 H1084 0.931 . S
C1098 C1097 1.385 . S
C1098 C1099 1.389 . S
C1099 C1098 1.389 . S
C1099 C1100 1.387 . S
C1100 H1085 0.930 . S
C1100 C1095 1.390 . S
C1100 C1099 1.387 . S
H1101 C1113 0.930 . S
H1102 C1115 0.930 . S
H1103 C1116 0.930 . S
H1104 C1120 0.959 . S
H1105 C1120 0.959 . S
H1106 C1120 0.961 . S
H1107 C1121 0.960 . S
H1108 C1121 0.961 . S
H1109 C1121 0.959 . S
H1110 C1124 0.929 . S
H1111 C1125 0.931 . S
H1112 C1127 0.930 . S
C1113 H1101 0.930 . S
C1113 C1114 1.399 . S
C1113 C1118 1.399 . S
C1114 C1113 1.399 . S
C1114 C1115 1.376 . S
C1115 H1102 0.930 . S
C1115 C1114 1.376 . S
C1115 C1116 1.388 . S
C1116 H1103 0.930 . S
C1116 C1115 1.388 . S
C1116 C1117 1.390 . S
C1117 C1116 1.390 . S
C1117 C1118 1.394 . S
C1117 C1123 1.465 . S
C1118 C1113 1.399 . S
C1118 C1117 1.394 . S
C1118 C1119 1.516 . S
C1119 C1118 1.516 . S
C1119 C1120 1.502 . S
C1119 C1121 1.561 . S
C1119 C1122 1.526 . S
C1120 H1104 0.959 . S
C1120 H1105 0.959 . S
C1120 H1106 0.961 . S
C1120 C1119 1.502 . S
C1121 H1107 0.960 . S
C1121 H1108 0.961 . S
C1121 H1109 0.959 . S
C1121 C1119 1.561 . S
C1122 C1119 1.526 . S
C1122 C1123 1.396 . S
C1122 C1127 1.390 . S
C1123 C1117 1.465 . S
C1123 C1122 1.396 . S
C1123 C1124 1.399 . S
C1124 H1110 0.929 . S
C1124 C1123 1.399 . S
C1124 C1125 1.385 . S
C1125 H1111 0.931 . S
C1125 C1124 1.385 . S
C1125 C1126 1.389 . S
C1126 C1125 1.389 . S
C1126 C1127 1.387 . S
C1127 H1112 0.930 . S
C1127 C1122 1.390 . S
C1127 C1126 1.387 . S
H1128 C1140 0.930 . S
H1129 C1142 0.930 . S
H1130 C1143 0.930 . S
H1131 C1147 0.959 . S
H1132 C1147 0.959 . S
H1133 C1147 0.961 . S
H1134 C1148 0.960 . S
H1135 C1148 0.961 . S
H1136 C1148 0.959 . S
H1137 C1151 0.929 . S
H1138 C1152 0.931 . S
H1139 C1154 0.930 . S
C1140 H1128 0.930 . S
C1140 C1141 1.399 . S
C1140 C1145 1.399 . S
C1141 C1140 1.399 . S
C1141 C1142 1.376 . S
C1142 H1129 0.930 . S
C1142 C1141 1.376 . S
C1142 C1143 1.388 . S
C1143 H1130 0.930 . S
C1143 C1142 1.388 . S
C1143 C1144 1.390 . S
C1144 C1143 1.390 . S
C1144 C1145 1.394 . S
C1144 C1150 1.465 . S
C1145 C1140 1.399 . S
C1145 C1144 1.394 . S
C1145 C1146 1.516 . S
C1146 C1145 1.516 . S
C1146 C1147 1.502 . S
C1146 C1148 1.561 . S
C1146 C1149 1.526 . S
C1147 H1131 0.959 . S
C1147 H1132 0.959 . S
C1147 H1133 0.961 . S
C1147 C1146 1.502 . S
C1148 H1134 0.960 . S
C1148 H1135 0.961 . S
C1148 H1136 0.959 . S
C1148 C1146 1.561 . S
C1149 C1146 1.526 . S
C1149 C1150 1.396 . S
C1149 C1154 1.390 . S
C1150 C1144 1.465 . S
C1150 C1149 1.396 . S
C1150 C1151 1.399 . S
C1151 H1137 0.929 . S
C1151 C1150 1.399 . S
C1151 C1152 1.385 . S
C1152 H1138 0.931 . S
C1152 C1151 1.385 . S
C1152 C1153 1.389 . S
C1153 C1152 1.389 . S
C1153 C1154 1.387 . S
C1154 H1139 0.930 . S
C1154 C1149 1.390 . S
C1154 C1153 1.387 . S
H1155 C1167 0.930 . S
H1156 C1169 0.930 . S
H1157 C1170 0.930 . S
H1158 C1174 0.959 . S
H1159 C1174 0.959 . S
H1160 C1174 0.961 . S
H1161 C1175 0.960 . S
H1162 C1175 0.961 . S
H1163 C1175 0.959 . S
H1164 C1178 0.929 . S
H1165 C1179 0.931 . S
H1166 C1181 0.930 . S
C1167 H1155 0.930 . S
C1167 C1168 1.399 . S
C1167 C1172 1.399 . S
C1168 C1167 1.399 . S
C1168 C1169 1.376 . S
C1169 H1156 0.930 . S
C1169 C1168 1.376 . S
C1169 C1170 1.388 . S
C1170 H1157 0.930 . S
C1170 C1169 1.388 . S
C1170 C1171 1.390 . S
C1171 C1170 1.390 . S
C1171 C1172 1.394 . S
C1171 C1177 1.465 . S
C1172 C1167 1.399 . S
C1172 C1171 1.394 . S
C1172 C1173 1.516 . S
C1173 C1172 1.516 . S
C1173 C1174 1.502 . S
C1173 C1175 1.561 . S
C1173 C1176 1.526 . S
C1174 H1158 0.959 . S
C1174 H1159 0.959 . S
C1174 H1160 0.961 . S
C1174 C1173 1.502 . S
C1175 H1161 0.960 . S
C1175 H1162 0.961 . S
C1175 H1163 0.959 . S
C1175 C1173 1.561 . S
C1176 C1173 1.526 . S
C1176 C1177 1.396 . S
C1176 C1181 1.390 . S
C1177 C1171 1.465 . S
C1177 C1176 1.396 . S
C1177 C1178 1.399 . S
C1178 H1164 0.929 . S
C1178 C1177 1.399 . S
C1178 C1179 1.385 . S
C1179 H1165 0.931 . S
C1179 C1178 1.385 . S
C1179 C1180 1.389 . S
C1180 C1179 1.389 . S
C1180 C1181 1.387 . S
C1181 H1166 0.930 . S
C1181 C1176 1.390 . S
C1181 C1180 1.387 . S
H1182 C1194 0.930 . S
H1183 C1196 0.930 . S
H1184 C1197 0.930 . S
H1185 C1201 0.959 . S
H1186 C1201 0.959 . S
H1187 C1201 0.961 . S
H1188 C1202 0.960 . S
H1189 C1202 0.961 . S
H1190 C1202 0.959 . S
H1191 C1205 0.929 . S
H1192 C1206 0.931 . S
H1193 C1208 0.930 . S
C1194 H1182 0.930 . S
C1194 C1195 1.399 . S
C1194 C1199 1.399 . S
C1195 C1194 1.399 . S
C1195 C1196 1.376 . S
C1196 H1183 0.930 . S
C1196 C1195 1.376 . S
C1196 C1197 1.388 . S
C1197 H1184 0.930 . S
C1197 C1196 1.388 . S
C1197 C1198 1.390 . S
C1198 C1197 1.390 . S
C1198 C1199 1.394 . S
C1198 C1204 1.465 . S
C1199 C1194 1.399 . S
C1199 C1198 1.394 . S
C1199 C1200 1.516 1_556 S
C1200 C1199 1.516 1_554 S
C1200 C1201 1.502 . S
C1200 C1202 1.561 . S
C1200 C1203 1.526 1_554 S
C1201 H1185 0.959 . S
C1201 H1186 0.959 . S
C1201 H1187 0.961 . S
C1201 C1200 1.502 . S
C1202 H1188 0.960 . S
C1202 H1189 0.961 . S
C1202 H1190 0.959 . S
C1202 C1200 1.561 . S
C1203 C1200 1.526 1_556 S
C1203 C1204 1.396 . S
C1203 C1208 1.390 1_556 S
C1204 C1198 1.465 . S
C1204 C1203 1.396 . S
C1204 C1205 1.399 . S
C1205 H1191 0.929 . S
C1205 C1204 1.399 . S
C1205 C1206 1.385 . S
C1206 H1192 0.931 . S
C1206 C1205 1.385 . S
C1206 C1207 1.389 1_556 S
C1207 C1206 1.389 1_554 S
C1207 C1208 1.387 . S
C1208 H1193 0.930 . S
C1208 C1203 1.390 1_554 S
C1208 C1207 1.387 . S
H1209 C1221 0.930 . S
H1210 C1223 0.930 . S
H1211 C1224 0.930 . S
H1212 C1228 0.959 . S
H1213 C1228 0.959 . S
H1214 C1228 0.961 . S
H1215 C1229 0.960 . S
H1216 C1229 0.961 . S
H1217 C1229 0.959 . S
H1218 C1232 0.929 . S
H1219 C1233 0.931 . S
H1220 C1235 0.930 . S
C1221 H1209 0.930 . S
C1221 C1222 1.399 . S
C1221 C1226 1.399 . S
C1222 C1221 1.399 . S
C1222 C1223 1.376 . S
C1223 H1210 0.930 . S
C1223 C1222 1.376 . S
C1223 C1224 1.388 . S
C1224 H1211 0.930 . S
C1224 C1223 1.388 . S
C1224 C1225 1.390 . S
C1225 C1224 1.390 . S
C1225 C1226 1.394 . S
C1225 C1231 1.465 . S
C1226 C1221 1.399 . S
C1226 C1225 1.394 . S
C1226 C1227 1.516 . S
C1227 C1226 1.516 . S
C1227 C1228 1.502 . S
C1227 C1229 1.561 . S
C1227 C1230 1.526 . S
C1228 H1212 0.959 . S
C1228 H1213 0.959 . S
C1228 H1214 0.961 . S
C1228 C1227 1.502 . S
C1229 H1215 0.960 . S
C1229 H1216 0.961 . S
C1229 H1217 0.959 . S
C1229 C1227 1.561 . S
C1230 C1227 1.526 . S
C1230 C1231 1.396 . S
C1230 C1235 1.390 . S
C1231 C1225 1.465 . S
C1231 C1230 1.396 . S
C1231 C1232 1.399 1_554 S
C1232 H1218 0.929 . S
C1232 C1231 1.399 1_556 S
C1232 C1233 1.385 . S
C1233 H1219 0.931 . S
C1233 C1232 1.385 . S
C1233 C1234 1.389 . S
C1234 C1233 1.389 . S
C1234 C1235 1.387 1_556 S
C1235 H1220 0.930 . S
C1235 C1230 1.390 . S
C1235 C1234 1.387 1_554 S
C277 C10 1.474 . S
C289 C21 1.464 . S
C304 C30 1.434 1_556 S
C316 C29 1.489 . S
C331 C65 1.458 . S
C343 C54 1.471 . S
C358 C74 1.460 . S
C370 C73 1.451 . S
C385 C103 1.455 . S
C397 C106 1.410 . S
C412 C118 1.467 . S
C424 C117 1.481 . S
C439 C140 1.422 . S
C451 C139 1.488 . S
C466 C161 1.487 . S
C478 C162 1.421 . S
C493 C183 1.455 . S
C505 C184 1.467 . S
C520 C205 1.455 . S
C532 C206 1.410 . S
C547 C228 1.402 . S
C559 C227 1.474 . S
C574 C249 1.460 . S
C586 C250 1.472 . S
C601 C8 1.409 . S
C613 C172 1.435 . S
C628 C194 1.409 . S
C640 C40 1.437 . S
C655 C216 1.411 . S
C667 C52 1.448 . S
C682 C84 1.420 . S
C694 C238 1.458 . S
C709 C98 1.461 . S
C721 C260 1.437 . S
C736 C128 1.410 . S
C748 C150 1.433 . S
C763 C18 1.140 . S
C775 C230 1.158 . S
C790 C32 1.164 . S
C802 C252 1.152 . S
C817 C142 1.136 . S
C829 C62 1.114 . S
C844 C76 1.116 . S
C856 C164 1.103 . S
C871 C96 1.106 . S
C883 C186 1.125 . S
C898 C208 1.164 . S
C910 C120 1.153 . S
C925 C15 1.148 . S
C937 C197 1.116 . S
C952 C219 1.148 . S
C964 C43 1.126 . S
C979 C241 1.146 . S
C991 C59 1.117 . S
C1006 C87 1.122 . S
C1018 C263 1.149 . S
C1033 C153 1.146 . S
C1045 C95 1.129 . S
C1060 C131 1.143 . S
C1072 C175 1.118 . S
C1087 C7 1.312 . S
C1099 C235 1.305 . S
C1114 C37 1.299 . S
C1126 C257 1.321 . S
C1141 C51 1.402 . S
C1153 C147 1.353 . S
C1168 C169 1.356 . S
C1180 C81 1.401 . S
C1195 C109 1.302 . S
C1207 C191 1.364 . S
C1222 C213 1.355 . S
C1234 C125 1.300 . S
