# Generated by pormake.
# Topology zfp, (5)-cn, num edge types: 1
# Building blocks:
#     Node 0, Type 0, BuildingBlock: BEQFEK_clean_sbu_0, # of connection points: 5
#     Node 1, Type 0, BuildingBlock: BEQFEK_clean_sbu_0, # of connection points: 5
#     Node 2, Type 0, BuildingBlock: BEQFEK_clean_sbu_0, # of connection points: 5
#     Node 3, Type 0, BuildingBlock: BEQFEK_clean_sbu_0, # of connection points: 5
#     Node 4, Type 0, BuildingBlock: BEQFEK_clean_sbu_0, # of connection points: 5
#     Node 5, Type 0, BuildingBlock: BEQFEK_clean_sbu_0, # of connection points: 5
#     Node 6, Type 0, BuildingBlock: BEQFEK_clean_sbu_0, # of connection points: 5
#     Node 7, Type 0, BuildingBlock: BEQFEK_clean_sbu_0, # of connection points: 5
#     Node 8, Type 0, BuildingBlock: BEQFEK_clean_sbu_0, # of connection points: 5
#     Node 9, Type 0, BuildingBlock: BEQFEK_clean_sbu_0, # of connection points: 5
#     Node 10, Type 0, BuildingBlock: BEQFEK_clean_sbu_0, # of connection points: 5
#     Node 11, Type 0, BuildingBlock: BEQFEK_clean_sbu_0, # of connection points: 5
#     Node 12, Type 0, BuildingBlock: BEQFEK_clean_sbu_0, # of connection points: 5
#     Node 13, Type 0, BuildingBlock: BEQFEK_clean_sbu_0, # of connection points: 5
#     Node 14, Type 0, BuildingBlock: BEQFEK_clean_sbu_0, # of connection points: 5
#     Node 15, Type 0, BuildingBlock: BEQFEK_clean_sbu_0, # of connection points: 5
#     Edge 16, Type (0, 0), BuildingBlock: KIFKEQ_clean_linker_1, # of connection points: 2
#     Edge 17, Type (0, 0), BuildingBlock: KIFKEQ_clean_linker_1, # of connection points: 2
#     Edge 18, Type (0, 0), BuildingBlock: KIFKEQ_clean_linker_1, # of connection points: 2
#     Edge 19, Type (0, 0), BuildingBlock: KIFKEQ_clean_linker_1, # of connection points: 2
#     Edge 20, Type (0, 0), BuildingBlock: KIFKEQ_clean_linker_1, # of connection points: 2
#     Edge 21, Type (0, 0), BuildingBlock: KIFKEQ_clean_linker_1, # of connection points: 2
#     Edge 22, Type (0, 0), BuildingBlock: KIFKEQ_clean_linker_1, # of connection points: 2
#     Edge 23, Type (0, 0), BuildingBlock: KIFKEQ_clean_linker_1, # of connection points: 2
#     Edge 24, Type (0, 0), BuildingBlock: KIFKEQ_clean_linker_1, # of connection points: 2
#     Edge 25, Type (0, 0), BuildingBlock: KIFKEQ_clean_linker_1, # of connection points: 2
#     Edge 26, Type (0, 0), BuildingBlock: KIFKEQ_clean_linker_1, # of connection points: 2
#     Edge 27, Type (0, 0), BuildingBlock: KIFKEQ_clean_linker_1, # of connection points: 2
#     Edge 28, Type (0, 0), BuildingBlock: KIFKEQ_clean_linker_1, # of connection points: 2
#     Edge 29, Type (0, 0), BuildingBlock: KIFKEQ_clean_linker_1, # of connection points: 2
#     Edge 30, Type (0, 0), BuildingBlock: KIFKEQ_clean_linker_1, # of connection points: 2
#     Edge 31, Type (0, 0), BuildingBlock: KIFKEQ_clean_linker_1, # of connection points: 2
#     Edge 32, Type (0, 0), BuildingBlock: KIFKEQ_clean_linker_1, # of connection points: 2
#     Edge 33, Type (0, 0), BuildingBlock: KIFKEQ_clean_linker_1, # of connection points: 2
#     Edge 34, Type (0, 0), BuildingBlock: KIFKEQ_clean_linker_1, # of connection points: 2
#     Edge 35, Type (0, 0), BuildingBlock: KIFKEQ_clean_linker_1, # of connection points: 2
#     Edge 36, Type (0, 0), BuildingBlock: KIFKEQ_clean_linker_1, # of connection points: 2
#     Edge 37, Type (0, 0), BuildingBlock: KIFKEQ_clean_linker_1, # of connection points: 2
#     Edge 38, Type (0, 0), BuildingBlock: KIFKEQ_clean_linker_1, # of connection points: 2
#     Edge 39, Type (0, 0), BuildingBlock: KIFKEQ_clean_linker_1, # of connection points: 2
#     Edge 40, Type (0, 0), BuildingBlock: KIFKEQ_clean_linker_1, # of connection points: 2
#     Edge 41, Type (0, 0), BuildingBlock: KIFKEQ_clean_linker_1, # of connection points: 2
#     Edge 42, Type (0, 0), BuildingBlock: KIFKEQ_clean_linker_1, # of connection points: 2
#     Edge 43, Type (0, 0), BuildingBlock: KIFKEQ_clean_linker_1, # of connection points: 2
#     Edge 44, Type (0, 0), BuildingBlock: KIFKEQ_clean_linker_1, # of connection points: 2
#     Edge 45, Type (0, 0), BuildingBlock: KIFKEQ_clean_linker_1, # of connection points: 2
#     Edge 46, Type (0, 0), BuildingBlock: KIFKEQ_clean_linker_1, # of connection points: 2
#     Edge 47, Type (0, 0), BuildingBlock: KIFKEQ_clean_linker_1, # of connection points: 2
#     Edge 48, Type (0, 0), BuildingBlock: KIFKEQ_clean_linker_1, # of connection points: 2
#     Edge 49, Type (0, 0), BuildingBlock: KIFKEQ_clean_linker_1, # of connection points: 2
#     Edge 50, Type (0, 0), BuildingBlock: KIFKEQ_clean_linker_1, # of connection points: 2
#     Edge 51, Type (0, 0), BuildingBlock: KIFKEQ_clean_linker_1, # of connection points: 2
#     Edge 52, Type (0, 0), BuildingBlock: KIFKEQ_clean_linker_1, # of connection points: 2
#     Edge 53, Type (0, 0), BuildingBlock: KIFKEQ_clean_linker_1, # of connection points: 2
#     Edge 54, Type (0, 0), BuildingBlock: KIFKEQ_clean_linker_1, # of connection points: 2
#     Edge 55, Type (0, 0), BuildingBlock: KIFKEQ_clean_linker_1, # of connection points: 2
# Relax obj value: 0.111
# Max RMSD: 0.152
# Mean RMSD: 0.152
data_MOF--net-zfp--node1-BEQFEK_clean_sbu_0--edge1-KIFKEQ_clean_linker_1
_symmetry_space_group_name_H-M    P1
_symmetry_Int_Tables_number       1
_symmetry_cell_setting            triclinic
loop_
_symmetry_equiv_pos_as_xyz
'x, y, z'
_cell_length_a     31.021828
_cell_length_b     31.014057
_cell_length_c     78.817249
_cell_angle_alpha  90.01918
_cell_angle_beta   89.996801
_cell_angle_gamma 90.005998
loop_
_atom_site_label
_atom_site_type_symbol
_atom_site_fract_x
_atom_site_fract_y
_atom_site_fract_z
_atom_type_partial_charge
Co0 Co 0.14967 0.31326 0.15291 0.0
Co1 Co 0.14857 0.30404 0.11328 0.0
C2 C 0.08959 0.25146 0.13434 0.0
O3 O 0.10452 0.26888 0.14781 0.0
O4 O 0.10557 0.25998 0.11981 0.0
C5 C 0.17023 0.28837 0.18791 0.0
O6 O 0.17794 0.24943 0.18209 0.0
C7 C 0.14992 0.27628 0.07723 0.0
C8 C 0.16523 0.33858 0.06497 0.0
C9 C 0.155 0.29606 0.06158 0.0
N10 N 0.15665 0.30607 0.08936 0.0
N11 N 0.16621 0.34303 0.08192 0.0
C12 C 0.13532 0.23119 0.08062 0.0
H13 H 0.09966 0.23091 0.08175 0.0
H14 H 0.14911 0.21953 0.09277 0.0
H15 H 0.14467 0.20934 0.07009 0.0
C16 C 0.2442 0.30456 0.14667 0.0
N17 N 0.20285 0.30415 0.14136 0.0
N18 N 0.20215 0.29853 0.12482 0.0
C19 C 0.24294 0.29402 0.11914 0.0
C20 C 0.27113 0.29789 0.13279 0.0
C21 C 0.25783 0.31594 0.16434 0.0
H22 H 0.23541 0.34 0.16983 0.0
H23 H 0.25719 0.28649 0.17231 0.0
H24 H 0.29097 0.32939 0.16453 0.0
O25 O 0.12407 0.36867 0.14625 0.0
O26 O 0.12053 0.35978 0.11841 0.0
H27 H 0.25291 0.316 0.09377 0.0
H28 H 0.28727 0.27158 0.09986 0.0
C29 C 0.25441 0.28537 0.10101 0.0
H30 H 0.23088 0.26254 0.0954 0.0
H31 H 0.17215 0.37171 0.08845 0.0
O32 O 0.15832 0.31781 0.17774 0.0
C33 C 0.11266 0.38181 0.13166 0.0
Co34 Co 0.68807 0.14829 0.65322 0.0
Co35 Co 0.69124 0.14352 0.61335 0.0
C36 C 0.74758 0.08711 0.63459 0.0
O37 O 0.73228 0.10311 0.64826 0.0
O38 O 0.73655 0.10173 0.62009 0.0
C39 C 0.71838 0.1632 0.68788 0.0
O40 O 0.75747 0.1584 0.68174 0.0
C41 C 0.71753 0.14999 0.57704 0.0
C42 C 0.65407 0.14049 0.56484 0.0
C43 C 0.69744 0.14579 0.56138 0.0
N44 N 0.68719 0.14698 0.58921 0.0
N45 N 0.64937 0.14172 0.58176 0.0
C46 C 0.76479 0.15362 0.58041 0.0
H47 H 0.77161 0.15068 0.59418 0.0
H48 H 0.7765 0.18538 0.57586 0.0
H49 H 0.78236 0.12828 0.57325 0.0
C50 C 0.69802 0.242 0.6454 0.0
N51 N 0.69587 0.20034 0.64051 0.0
N52 N 0.69656 0.19852 0.62383 0.0
C53 C 0.69857 0.23897 0.61756 0.0
C54 C 0.69959 0.26808 0.63102 0.0
C55 C 0.70019 0.25608 0.66354 0.0
H56 H 0.72725 0.23922 0.66986 0.0
H57 H 0.70548 0.29126 0.66482 0.0
H58 H 0.66993 0.24683 0.67011 0.0
O59 O 0.63193 0.12046 0.64798 0.0
O60 O 0.63717 0.11555 0.62004 0.0
H61 H 0.66974 0.23016 0.59312 0.0
H62 H 0.6891 0.2841 0.59686 0.0
C63 C 0.69578 0.24943 0.59906 0.0
H64 H 0.72663 0.24068 0.59284 0.0
H65 H 0.62031 0.13791 0.58826 0.0
O66 O 0.68617 0.16053 0.67796 0.0
C67 C 0.61714 0.10785 0.63376 0.0
Co68 Co 0.85333 0.68707 0.15107 0.0
Co69 Co 0.8552 0.69479 0.11142 0.0
C70 C 0.914 0.74792 0.13231 0.0
O71 O 0.89872 0.73089 0.14579 0.0
O72 O 0.89827 0.7391 0.11777 0.0
C73 C 0.83278 0.71478 0.18562 0.0
O74 O 0.82597 0.75332 0.17925 0.0
C75 C 0.85372 0.72142 0.07526 0.0
C76 C 0.83961 0.65853 0.06323 0.0
C77 C 0.84907 0.70115 0.05968 0.0
N78 N 0.8475 0.69182 0.0875 0.0
N79 N 0.83867 0.65449 0.08019 0.0
C80 C 0.86751 0.76684 0.07851 0.0
H81 H 0.90315 0.76776 0.07967 0.0
H82 H 0.85346 0.77852 0.09063 0.0
H83 H 0.85784 0.78831 0.06792 0.0
C84 C 0.75908 0.69575 0.1446 0.0
N85 N 0.80046 0.69592 0.13935 0.0
N86 N 0.80137 0.70089 0.12278 0.0
C87 C 0.76063 0.70519 0.11701 0.0
C88 C 0.7323 0.70191 0.13065 0.0
C89 C 0.74529 0.685 0.16231 0.0
H90 H 0.76765 0.6611 0.16795 0.0
H91 H 0.74593 0.71471 0.17014 0.0
H92 H 0.71214 0.67158 0.16254 0.0
O93 O 0.87863 0.63122 0.14488 0.0
O94 O 0.88302 0.63916 0.11702 0.0
H95 H 0.75119 0.68204 0.09177 0.0
H96 H 0.71641 0.72647 0.0975 0.0
C97 C 0.74935 0.71297 0.09881 0.0
H98 H 0.7728 0.73571 0.0931 0.0
H99 H 0.8332 0.62589 0.08683 0.0
O100 O 0.84425 0.68421 0.17589 0.0
C101 C 0.8904 0.61754 0.13041 0.0
Co102 Co 0.31437 0.84538 0.65368 0.0
Co103 Co 0.30744 0.84561 0.61401 0.0
C104 C 0.25487 0.90624 0.63461 0.0
O105 O 0.27102 0.8911 0.64827 0.0
O106 O 0.2642 0.89006 0.62018 0.0
C107 C 0.28545 0.83984 0.68865 0.0
O108 O 0.24823 0.85423 0.68307 0.0
C109 C 0.2827 0.84748 0.57759 0.0
C110 C 0.33534 0.80823 0.56668 0.0
C111 C 0.29836 0.83074 0.56246 0.0
N112 N 0.30922 0.83508 0.5902 0.0
N113 N 0.34071 0.81192 0.58353 0.0
C114 C 0.24252 0.87327 0.5802 0.0
H115 H 0.25131 0.90774 0.58169 0.0
H116 H 0.22611 0.86269 0.592 0.0
H117 H 0.22021 0.86987 0.56928 0.0
C118 C 0.3028 0.75158 0.64812 0.0
N119 N 0.30443 0.79248 0.64235 0.0
N120 N 0.29959 0.79244 0.62579 0.0
C121 C 0.2935 0.7514 0.62054 0.0
C122 C 0.29585 0.72403 0.63448 0.0
C123 C 0.31174 0.73916 0.66614 0.0
H124 H 0.33986 0.75757 0.67094 0.0
H125 H 0.2834 0.74751 0.67408 0.0
H126 H 0.31858 0.70422 0.66741 0.0
O127 O 0.37051 0.86998 0.64744 0.0
O128 O 0.36374 0.87281 0.61945 0.0
H129 H 0.31442 0.73354 0.59569 0.0
H130 H 0.26519 0.70798 0.60228 0.0
C131 C 0.28376 0.73856 0.60264 0.0
H132 H 0.26492 0.76415 0.59621 0.0
H133 H 0.36586 0.79845 0.59055 0.0
O134 O 0.31648 0.83487 0.67834 0.0
C135 C 0.38482 0.88089 0.63295 0.0
Co136 Co 0.64885 0.18551 0.84676 0.0
Co137 Co 0.64902 0.19123 0.88662 0.0
C138 C 0.58967 0.24584 0.86668 0.0
O139 O 0.60414 0.22931 0.85296 0.0
O140 O 0.60606 0.23629 0.88104 0.0
C141 C 0.66942 0.21672 0.81276 0.0
O142 O 0.67889 0.25352 0.82013 0.0
C143 C 0.65186 0.21415 0.92331 0.0
C144 C 0.66782 0.15032 0.93411 0.0
C145 C 0.65775 0.19228 0.93849 0.0
N146 N 0.65803 0.1861 0.91049 0.0
N147 N 0.66798 0.1482 0.91708 0.0
C148 C 0.63721 0.25966 0.92101 0.0
H149 H 0.6015 0.26015 0.92018 0.0
H150 H 0.65038 0.27297 0.90901 0.0
H151 H 0.64722 0.27996 0.93192 0.0
C152 C 0.74362 0.19368 0.85269 0.0
N153 N 0.70243 0.19333 0.85822 0.0
N154 N 0.70225 0.19754 0.87483 0.0
C155 C 0.74321 0.20178 0.88035 0.0
C156 C 0.77095 0.19934 0.8665 0.0
C157 C 0.75687 0.18409 0.83482 0.0
H158 H 0.73386 0.16129 0.8289 0.0
H159 H 0.75709 0.21448 0.82741 0.0
H160 H 0.7897 0.16991 0.83438 0.0
O161 O 0.623 0.12941 0.85261 0.0
O162 O 0.62016 0.13652 0.88055 0.0
H163 H 0.75415 0.17759 0.90534 0.0
H164 H 0.78814 0.22266 0.89968 0.0
C165 C 0.75528 0.20886 0.89852 0.0
H166 H 0.73185 0.23104 0.90457 0.0
H167 H 0.67365 0.12047 0.90991 0.0
O168 O 0.65648 0.18523 0.82173 0.0
C169 C 0.61164 0.11549 0.86711 0.0
Co170 Co 0.8062 0.65726 0.34495 0.0
Co171 Co 0.81612 0.65175 0.38458 0.0
C172 C 0.7542 0.59488 0.36588 0.0
O173 O 0.76381 0.61216 0.35168 0.0
O174 O 0.77078 0.60838 0.37969 0.0
C175 C 0.79176 0.64323 0.30939 0.0
O176 O 0.78725 0.60274 0.31397 0.0
C177 C 0.79761 0.65468 0.42153 0.0
C178 C 0.86392 0.6533 0.43177 0.0
C179 C 0.821 0.6532 0.43653 0.0
N180 N 0.82561 0.65556 0.40847 0.0
N181 N 0.86514 0.65505 0.41473 0.0
C182 C 0.74971 0.65231 0.41962 0.0
H183 H 0.74053 0.64788 0.40614 0.0
H184 H 0.73506 0.68269 0.42429 0.0
H185 H 0.73677 0.62548 0.42742 0.0
C186 C 0.80034 0.75014 0.35326 0.0
N187 N 0.80269 0.70855 0.35808 0.0
N188 N 0.80546 0.7066 0.37471 0.0
C189 C 0.8043 0.74703 0.38105 0.0
C190 C 0.80106 0.77616 0.36765 0.0
C191 C 0.8022 0.76443 0.33512 0.0
H192 H 0.82796 0.74641 0.32842 0.0
H193 H 0.77106 0.75688 0.32886 0.0
H194 H 0.80893 0.79939 0.33393 0.0
O195 O 0.86325 0.62979 0.34721 0.0
O196 O 0.86972 0.62651 0.37522 0.0
H197 H 0.83867 0.75026 0.40451 0.0
H198 H 0.79756 0.79134 0.40218 0.0
C199 C 0.80587 0.7572 0.3996 0.0
H200 H 0.78281 0.73623 0.40645 0.0
H201 H 0.89304 0.65479 0.40734 0.0
O202 O 0.79879 0.6716 0.32067 0.0
C203 C 0.88415 0.61878 0.3604 0.0
Co204 Co 0.351 0.81278 0.84709 0.0
Co205 Co 0.34903 0.80585 0.88674 0.0
C206 C 0.41041 0.75287 0.86675 0.0
O207 O 0.39594 0.7692 0.85301 0.0
O208 O 0.39374 0.76224 0.88111 0.0
C209 C 0.3442 0.78291 0.81228 0.0
O210 O 0.3544 0.74467 0.81822 0.0
C211 C 0.34717 0.78281 0.92344 0.0
C212 C 0.30545 0.83536 0.93296 0.0
C213 C 0.32756 0.79881 0.93797 0.0
N214 N 0.3365 0.80863 0.91037 0.0
N215 N 0.31208 0.8402 0.91624 0.0
C216 C 0.37404 0.74303 0.92182 0.0
H217 H 0.40813 0.75252 0.91977 0.0
H218 H 0.36348 0.72429 0.91056 0.0
H219 H 0.37183 0.7227 0.93337 0.0
C220 C 0.25695 0.80167 0.85172 0.0
N221 N 0.29748 0.80307 0.85788 0.0
N222 N 0.29648 0.79807 0.87443 0.0
C223 C 0.25512 0.79208 0.87927 0.0
C224 C 0.22862 0.79469 0.86509 0.0
C225 C 0.24552 0.81081 0.83362 0.0
H226 H 0.2647 0.83853 0.82892 0.0
H227 H 0.25354 0.78224 0.82576 0.0
H228 H 0.21079 0.81834 0.83212 0.0
O229 O 0.37523 0.86888 0.85354 0.0
O230 O 0.37669 0.86206 0.88153 0.0
H231 H 0.23497 0.81269 0.90389 0.0
H232 H 0.2107 0.76316 0.89697 0.0
C233 C 0.24105 0.78211 0.89701 0.0
H234 H 0.26634 0.76359 0.90375 0.0
H235 H 0.29937 0.86479 0.90871 0.0
O236 O 0.34214 0.81482 0.82234 0.0
C237 C 0.38537 0.8832 0.86811 0.0
Co238 Co 0.19927 0.35974 0.34639 0.0
Co239 Co 0.18478 0.3648 0.38577 0.0
C240 C 0.24778 0.42314 0.368 0.0
O241 O 0.24002 0.40572 0.35364 0.0
O242 O 0.23012 0.40917 0.38156 0.0
C243 C 0.21197 0.37279 0.3105 0.0
O244 O 0.21413 0.41384 0.31455 0.0
C245 C 0.20061 0.3566 0.4227 0.0
C246 C 0.13364 0.35177 0.43209 0.0
C247 C 0.17623 0.35128 0.43737 0.0
N248 N 0.17347 0.35981 0.40944 0.0
N249 N 0.13354 0.35735 0.41519 0.0
C250 C 0.24859 0.35545 0.42102 0.0
H251 H 0.25791 0.3469 0.40784 0.0
H252 H 0.26265 0.33198 0.4301 0.0
H253 H 0.26174 0.38787 0.42397 0.0
C254 C 0.2085 0.26702 0.35476 0.0
N255 N 0.20353 0.30847 0.35952 0.0
N256 N 0.19697 0.31007 0.37599 0.0
C257 C 0.19691 0.26948 0.38222 0.0
C258 C 0.20414 0.24072 0.36894 0.0
C259 C 0.21764 0.25312 0.33693 0.0
H260 H 0.24288 0.27413 0.33137 0.0
H261 H 0.22876 0.21916 0.33635 0.0
H262 H 0.18793 0.25668 0.32922 0.0
O263 O 0.14123 0.3861 0.34809 0.0
O264 O 0.1316 0.38883 0.37596 0.0
H265 H 0.15598 0.27582 0.40393 0.0
H266 H 0.18015 0.22333 0.40185 0.0
C267 C 0.18564 0.25838 0.40016 0.0
H268 H 0.21217 0.26885 0.40864 0.0
H269 H 0.10617 0.35856 0.40751 0.0
O270 O 0.20717 0.34498 0.32216 0.0
C271 C 0.11862 0.39639 0.36095 0.0
Co272 Co 0.85097 0.68162 0.84578 0.0
Co273 Co 0.84906 0.69253 0.88541 0.0
C274 C 0.91023 0.74355 0.86468 0.0
O275 O 0.8959 0.72595 0.85116 0.0
O276 O 0.89339 0.73551 0.8791 0.0
C277 C 0.83301 0.70961 0.81146 0.0
O278 O 0.82663 0.74761 0.8184 0.0
C279 C 0.84891 0.72057 0.9215 0.0
C280 C 0.80913 0.66888 0.9328 0.0
C281 C 0.83134 0.70629 0.93669 0.0
N282 N 0.83721 0.6929 0.90916 0.0
N283 N 0.81376 0.66196 0.91607 0.0
C284 C 0.87488 0.76049 0.91857 0.0
H285 H 0.90935 0.75151 0.91733 0.0
H286 H 0.86468 0.77608 0.90655 0.0
H287 H 0.87124 0.7836 0.92923 0.0
C288 C 0.75611 0.69141 0.85073 0.0
N289 N 0.79704 0.69165 0.85656 0.0
N290 N 0.79657 0.6988 0.87301 0.0
C291 C 0.7554 0.70494 0.87804 0.0
C292 C 0.72829 0.69988 0.86415 0.0
C293 C 0.74358 0.67897 0.83306 0.0
H294 H 0.76632 0.65459 0.82799 0.0
H295 H 0.74469 0.70795 0.82483 0.0
H296 H 0.71041 0.66561 0.83269 0.0
O297 O 0.87585 0.62641 0.85318 0.0
O298 O 0.87697 0.63593 0.88107 0.0
H299 H 0.73677 0.6879 0.90326 0.0
H300 H 0.71159 0.73607 0.8954 0.0
C301 C 0.74213 0.71743 0.89562 0.0
H302 H 0.76756 0.73722 0.9017 0.0
H303 H 0.80073 0.63615 0.9093 0.0
O304 O 0.84373 0.67802 0.82082 0.0
C305 C 0.886 0.6136 0.86798 0.0
Co306 Co 0.31153 0.86248 0.34788 0.0
Co307 Co 0.31486 0.86425 0.38768 0.0
C308 C 0.2559 0.92297 0.36805 0.0
O309 O 0.26733 0.90695 0.3538 0.0
O310 O 0.27066 0.90822 0.382 0.0
C311 C 0.28466 0.85549 0.31191 0.0
O312 O 0.2466 0.87058 0.31618 0.0
C313 C 0.28985 0.86135 0.4239 0.0
C314 C 0.35383 0.85251 0.43578 0.0
C315 C 0.31063 0.85842 0.43944 0.0
N316 N 0.31967 0.85753 0.41159 0.0
N317 N 0.35772 0.8519 0.4188 0.0
C318 C 0.24341 0.87134 0.42073 0.0
H319 H 0.23884 0.90681 0.42116 0.0
H320 H 0.23367 0.85962 0.40798 0.0
H321 H 0.22262 0.85668 0.43061 0.0
C322 C 0.30281 0.7686 0.3547 0.0
N323 N 0.30542 0.80982 0.36005 0.0
N324 N 0.30556 0.81047 0.37673 0.0
C325 C 0.30219 0.7697 0.38256 0.0
C326 C 0.30053 0.74156 0.36878 0.0
C327 C 0.30676 0.75552 0.33647 0.0
H328 H 0.33405 0.77302 0.33054 0.0
H329 H 0.27685 0.76465 0.32963 0.0
H330 H 0.31241 0.72043 0.33502 0.0
O331 O 0.36722 0.89014 0.35274 0.0
O332 O 0.37047 0.89012 0.38082 0.0
H333 H 0.33173 0.76215 0.40686 0.0
H334 H 0.28806 0.72476 0.40288 0.0
C335 C 0.29946 0.7583 0.40097 0.0
H336 H 0.2769 0.78059 0.40744 0.0
H337 H 0.38656 0.8487 0.4121 0.0
O338 O 0.31345 0.85061 0.3232 0.0
C339 C 0.38651 0.89969 0.36647 0.0
Co340 Co 0.1489 0.31446 0.84775 0.0
Co341 Co 0.15077 0.30589 0.88746 0.0
C342 C 0.08908 0.25407 0.8669 0.0
O343 O 0.10363 0.27058 0.8532 0.0
O344 O 0.10585 0.26311 0.88126 0.0
C345 C 0.15265 0.28747 0.81243 0.0
O346 O 0.13902 0.24987 0.81793 0.0
C347 C 0.15152 0.27785 0.92351 0.0
C348 C 0.19031 0.33026 0.93484 0.0
C349 C 0.16893 0.29236 0.93871 0.0
N350 N 0.16251 0.30587 0.91121 0.0
N351 N 0.18537 0.33723 0.91813 0.0
C352 C 0.12649 0.23735 0.92054 0.0
H353 H 0.13669 0.22231 0.90842 0.0
H354 H 0.13105 0.2141 0.9311 0.0
H355 H 0.09176 0.24546 0.91952 0.0
C356 C 0.24303 0.30323 0.8525 0.0
N357 N 0.2024 0.30416 0.8586 0.0
N358 N 0.20332 0.29876 0.87513 0.0
C359 C 0.24467 0.29304 0.88003 0.0
C360 C 0.27133 0.29623 0.8659 0.0
C361 C 0.25446 0.31299 0.83445 0.0
H362 H 0.23579 0.34132 0.83001 0.0
H363 H 0.24563 0.28502 0.82638 0.0
H364 H 0.28932 0.31987 0.83291 0.0
O365 O 0.12446 0.37012 0.85485 0.0
O366 O 0.12356 0.36268 0.88284 0.0
H367 H 0.26312 0.31359 0.90486 0.0
H368 H 0.28961 0.26524 0.89783 0.0
C369 C 0.25857 0.28303 0.89778 0.0
H370 H 0.23378 0.26331 0.90427 0.0
H371 H 0.19786 0.36334 0.91138 0.0
O372 O 0.15802 0.31811 0.82291 0.0
C373 C 0.11464 0.38414 0.86953 0.0
Co374 Co 0.70053 0.15414 0.34673 0.0
Co375 Co 0.69965 0.15527 0.38664 0.0
C376 C 0.75702 0.0949 0.36748 0.0
O377 O 0.74453 0.11043 0.3533 0.0
O378 O 0.74351 0.11033 0.38151 0.0
C379 C 0.73085 0.17372 0.3123 0.0
O380 O 0.76875 0.18172 0.31905 0.0
C381 C 0.72333 0.15749 0.42317 0.0
C382 C 0.66654 0.19116 0.43372 0.0
C383 C 0.70571 0.17306 0.43818 0.0
N384 N 0.69577 0.16629 0.41043 0.0
N385 N 0.66184 0.18616 0.41688 0.0
C386 C 0.76639 0.13674 0.42074 0.0
H387 H 0.78058 0.14707 0.40847 0.0
H388 H 0.78866 0.14509 0.43126 0.0
H389 H 0.76217 0.10122 0.42037 0.0
C390 C 0.70638 0.24883 0.35232 0.0
N391 N 0.70636 0.20784 0.35805 0.0
N392 N 0.70877 0.20815 0.37471 0.0
C393 C 0.71213 0.2494 0.38006 0.0
C394 C 0.71024 0.27664 0.36607 0.0
C395 C 0.6976 0.26125 0.33429 0.0
H396 H 0.67472 0.23818 0.32845 0.0
H397 H 0.72824 0.26062 0.32705 0.0
H398 H 0.68374 0.29416 0.33345 0.0
O399 O 0.64513 0.12748 0.35222 0.0
O400 O 0.64346 0.12853 0.38036 0.0
H401 H 0.68665 0.26481 0.40449 0.0
H402 H 0.73449 0.29451 0.39898 0.0
C403 C 0.71847 0.26258 0.39815 0.0
H404 H 0.7385 0.23843 0.40487 0.0
H405 H 0.63555 0.19663 0.40972 0.0
O406 O 0.69992 0.16179 0.32177 0.0
C407 C 0.62663 0.11842 0.36616 0.0
Co408 Co 0.35401 0.8037 0.15381 0.0
Co409 Co 0.35435 0.81157 0.11406 0.0
C410 C 0.414 0.75089 0.13183 0.0
O411 O 0.3985 0.76134 0.14628 0.0
O412 O 0.3986 0.76643 0.11812 0.0
C413 C 0.36887 0.81227 0.18941 0.0
O414 O 0.40545 0.82913 0.18426 0.0
C415 C 0.34814 0.79334 0.0772 0.0
C416 C 0.32755 0.85729 0.06785 0.0
C417 C 0.33696 0.81574 0.06256 0.0
N418 N 0.34525 0.82058 0.09045 0.0
N419 N 0.33325 0.85876 0.08473 0.0
C420 C 0.35812 0.74637 0.07889 0.0
H421 H 0.3498 0.7349 0.09182 0.0
H422 H 0.34019 0.72732 0.06928 0.0
H423 H 0.39316 0.74138 0.07688 0.0
C424 C 0.26012 0.79661 0.1475 0.0
N425 N 0.30109 0.79912 0.14188 0.0
N426 N 0.30102 0.80088 0.12522 0.0
C427 C 0.2599 0.79871 0.11966 0.0
C428 C 0.23245 0.79619 0.13361 0.0
C429 C 0.24792 0.79907 0.16586 0.0
H430 H 0.2663 0.82538 0.17207 0.0
H431 H 0.25665 0.76832 0.17217 0.0
H432 H 0.21301 0.80528 0.16761 0.0
O433 O 0.38064 0.86079 0.15033 0.0
O434 O 0.38085 0.86579 0.12225 0.0
H435 H 0.24998 0.83136 0.09613 0.0
H436 H 0.21379 0.78655 0.0996 0.0
C437 C 0.24729 0.79825 0.10134 0.0
H438 H 0.26941 0.77697 0.09416 0.0
H439 H 0.32836 0.88571 0.09242 0.0
O440 O 0.34271 0.79745 0.17847 0.0
C441 C 0.39024 0.88097 0.13679 0.0
Co442 Co 0.18117 0.347 0.65297 0.0
Co443 Co 0.1894 0.34425 0.61323 0.0
C444 C 0.24187 0.40588 0.63321 0.0
O445 O 0.22496 0.39182 0.64693 0.0
O446 O 0.23311 0.38878 0.61888 0.0
C447 C 0.20924 0.3436 0.68824 0.0
O448 O 0.24703 0.35635 0.68263 0.0
C449 C 0.21179 0.34176 0.57635 0.0
C450 C 0.15872 0.30022 0.56719 0.0
C451 C 0.19505 0.32228 0.56189 0.0
N452 N 0.18653 0.33112 0.58961 0.0
N453 N 0.15472 0.30671 0.58396 0.0
C454 C 0.25171 0.36851 0.57773 0.0
H455 H 0.26916 0.36042 0.5896 0.0
H456 H 0.27318 0.36344 0.56664 0.0
H457 H 0.24249 0.40304 0.57834 0.0
C458 C 0.19249 0.25279 0.64854 0.0
N459 N 0.19108 0.29326 0.6423 0.0
N460 N 0.1966 0.29204 0.62577 0.0
C461 C 0.20291 0.25065 0.62103 0.0
C462 C 0.19995 0.22429 0.63525 0.0
C463 C 0.18322 0.24166 0.66666 0.0
H464 H 0.15511 0.26051 0.67119 0.0
H465 H 0.21147 0.25046 0.67457 0.0
H466 H 0.17628 0.20682 0.66827 0.0
O467 O 0.12537 0.3715 0.64615 0.0
O468 O 0.13346 0.37259 0.61821 0.0
H469 H 0.18352 0.23005 0.59631 0.0
H470 H 0.23298 0.20632 0.60358 0.0
C471 C 0.21374 0.23649 0.60338 0.0
H472 H 0.23229 0.2619 0.59672 0.0
H473 H 0.13039 0.29411 0.59164 0.0
O474 O 0.17836 0.33864 0.67785 0.0
C475 C 0.11184 0.38168 0.63146 0.0
Co476 Co 0.64864 0.19298 0.15439 0.0
Co477 Co 0.6498 0.18837 0.11449 0.0
C478 C 0.58938 0.24753 0.13297 0.0
O479 O 0.60495 0.23654 0.14733 0.0
O480 O 0.60473 0.23251 0.11915 0.0
C481 C 0.66778 0.2266 0.18834 0.0
O482 O 0.67444 0.26413 0.18106 0.0
C483 C 0.65084 0.20901 0.07763 0.0
C484 C 0.68655 0.15269 0.06774 0.0
C485 C 0.66706 0.19084 0.06284 0.0
N486 N 0.6606 0.18277 0.09069 0.0
N487 N 0.68159 0.14905 0.08463 0.0
C488 C 0.62851 0.25146 0.07951 0.0
H489 H 0.59327 0.24584 0.08044 0.0
H490 H 0.63923 0.26756 0.09136 0.0
H491 H 0.63502 0.27273 0.06848 0.0
C492 C 0.74332 0.1996 0.14874 0.0
N493 N 0.70237 0.19811 0.14298 0.0
N494 N 0.70276 0.19872 0.12629 0.0
C495 C 0.74401 0.20222 0.12094 0.0
C496 C 0.77116 0.20248 0.13498 0.0
C497 C 0.75582 0.19347 0.16693 0.0
H498 H 0.73353 0.17048 0.17316 0.0
H499 H 0.754 0.22491 0.17359 0.0
H500 H 0.78919 0.18093 0.16807 0.0
O501 O 0.62188 0.13703 0.14964 0.0
O502 O 0.6232 0.1327 0.12155 0.0
H503 H 0.76021 0.1743 0.097 0.0
H504 H 0.78896 0.22323 0.10174 0.0
C505 C 0.7573 0.20677 0.10278 0.0
H506 H 0.7329 0.22559 0.09567 0.0
H507 H 0.693 0.1237 0.09209 0.0
O508 O 0.65661 0.19452 0.17932 0.0
C509 C 0.61294 0.1172 0.13596 0.0
Co510 Co 0.81199 0.64419 0.65217 0.0
Co511 Co 0.80739 0.64996 0.6124 0.0
C512 C 0.75351 0.58642 0.63093 0.0
O513 O 0.76864 0.59961 0.6451 0.0
O514 O 0.76385 0.60467 0.617 0.0
C515 C 0.7809 0.65982 0.68649 0.0
O516 O 0.74355 0.66813 0.67934 0.0
C517 C 0.78655 0.65293 0.57553 0.0
C518 C 0.83984 0.69421 0.56642 0.0
C519 C 0.8038 0.67177 0.56104 0.0
N520 N 0.81126 0.6641 0.58887 0.0
N521 N 0.84317 0.68848 0.58327 0.0
C522 C 0.7467 0.62602 0.57683 0.0
H523 H 0.72873 0.63454 0.58853 0.0
H524 H 0.7256 0.63055 0.5656 0.0
H525 H 0.75607 0.59156 0.57771 0.0
C526 C 0.80346 0.73965 0.6484 0.0
N527 N 0.80368 0.69924 0.64199 0.0
N528 N 0.79904 0.70129 0.62542 0.0
C529 C 0.79404 0.74298 0.62087 0.0
C530 C 0.79728 0.76879 0.63523 0.0
C531 C 0.81369 0.75049 0.66647 0.0
H532 H 0.83709 0.727 0.6717 0.0
H533 H 0.78366 0.74911 0.67408 0.0
H534 H 0.82738 0.78343 0.66756 0.0
O535 O 0.86827 0.62009 0.64573 0.0
O536 O 0.86325 0.62182 0.61768 0.0
H537 H 0.81517 0.76425 0.59646 0.0
H538 H 0.76572 0.78848 0.60346 0.0
C539 C 0.78447 0.75801 0.60322 0.0
H540 H 0.76587 0.73319 0.59624 0.0
H541 H 0.86731 0.70125 0.59101 0.0
O542 O 0.81269 0.64898 0.67726 0.0
C543 C 0.88346 0.61151 0.63113 0.0
H544 H 0.20922 0.23899 0.21239 0.0
H545 H 0.14842 0.36262 0.20426 0.0
H546 H 0.22366 0.25883 0.24185 0.0
H547 H 0.16158 0.38184 0.23366 0.0
H548 H 0.22506 0.42252 0.28231 0.0
H549 H 0.2181 0.40101 0.2527 0.0
H550 H 0.18791 0.27095 0.2684 0.0
H551 H 0.19629 0.29212 0.29794 0.0
C552 C 0.19864 0.27022 0.21692 0.0
C553 C 0.17774 0.29922 0.20597 0.0
C554 C 0.20681 0.28158 0.23381 0.0
C555 C 0.19404 0.32209 0.24013 0.0
C556 C 0.17274 0.35079 0.22917 0.0
C557 C 0.16485 0.33957 0.21231 0.0
C558 C 0.21734 0.38926 0.27943 0.0
C559 C 0.21099 0.35914 0.29249 0.0
C560 C 0.21304 0.37695 0.26245 0.0
C561 C 0.20196 0.33431 0.25813 0.0
C562 C 0.19686 0.30393 0.27121 0.0
C563 C 0.20145 0.31617 0.28819 0.0
H564 H 0.71509 0.26807 0.79089 0.0
H565 H 0.63908 0.15142 0.79293 0.0
H566 H 0.72747 0.25631 0.76054 0.0
H567 H 0.65134 0.13991 0.76273 0.0
H568 H 0.6424 0.16178 0.70528 0.0
H569 H 0.6306 0.17644 0.7353 0.0
H570 H 0.76656 0.20098 0.74185 0.0
H571 H 0.7786 0.18613 0.7117 0.0
C572 C 0.70086 0.2401 0.78486 0.0
C573 C 0.67603 0.21073 0.7943 0.0
C574 C 0.70819 0.23323 0.76753 0.0
C575 C 0.69032 0.19723 0.75929 0.0
C576 C 0.66519 0.16815 0.76871 0.0
C577 C 0.65834 0.17467 0.78603 0.0
C578 C 0.66984 0.17034 0.71308 0.0
C579 C 0.7115 0.17261 0.70611 0.0
C580 C 0.66305 0.17858 0.7303 0.0
C581 C 0.69766 0.18975 0.74091 0.0
C582 C 0.73925 0.19272 0.73392 0.0
C583 C 0.74616 0.18395 0.7167 0.0
H584 H 0.81067 0.72195 0.29567 0.0
H585 H 0.77489 0.59182 0.282 0.0
H586 H 0.81856 0.74012 0.26579 0.0
H587 H 0.78146 0.61037 0.25208 0.0
H588 H 0.85173 0.64114 0.20289 0.0
H589 H 0.83856 0.62519 0.23258 0.0
H590 H 0.78178 0.75132 0.23926 0.0
H591 H 0.79618 0.76782 0.20948 0.0
C592 C 0.8039 0.69735 0.28628 0.0
C593 C 0.79254 0.65529 0.29123 0.0
C594 C 0.8082 0.70787 0.26912 0.0
C595 C 0.80102 0.67663 0.25651 0.0
C596 C 0.78811 0.63499 0.26147 0.0
C597 C 0.78406 0.62441 0.27863 0.0
C598 C 0.83645 0.66556 0.21067 0.0
C599 C 0.82505 0.70581 0.20381 0.0
C600 C 0.82854 0.65624 0.22769 0.0
C601 C 0.80877 0.6868 0.23831 0.0
C602 C 0.79743 0.72717 0.23148 0.0
C603 C 0.80557 0.73661 0.2144 0.0
H604 H 0.35398 0.72534 0.78618 0.0
H605 H 0.31005 0.8545 0.79743 0.0
H606 H 0.33695 0.73666 0.75621 0.0
H607 H 0.29349 0.86577 0.7676 0.0
H608 H 0.23118 0.85659 0.71526 0.0
H609 H 0.24307 0.84013 0.74523 0.0
H610 H 0.36568 0.78222 0.73279 0.0
H611 H 0.35379 0.79822 0.70293 0.0
C612 C 0.34067 0.75606 0.78228 0.0
C613 C 0.3336 0.78907 0.79416 0.0
C614 C 0.33106 0.76258 0.76513 0.0
C615 C 0.31385 0.80209 0.75958 0.0
C616 C 0.30622 0.83482 0.77152 0.0
C617 C 0.31609 0.82844 0.7886 0.0
C618 C 0.26054 0.84016 0.71893 0.0
C619 C 0.29164 0.82897 0.70674 0.0
C620 C 0.26742 0.83089 0.73608 0.0
C621 C 0.30533 0.80994 0.74134 0.0
C622 C 0.33596 0.79798 0.7291 0.0
C623 C 0.32926 0.8075 0.71201 0.0
H624 H 0.84974 0.6371 0.79297 0.0
H625 H 0.79843 0.76615 0.78847 0.0
H626 H 0.83578 0.62472 0.76296 0.0
H627 H 0.78474 0.75371 0.75832 0.0
H628 H 0.72514 0.69611 0.7094 0.0
H629 H 0.73732 0.70847 0.73968 0.0
H630 H 0.86359 0.65086 0.73542 0.0
H631 H 0.85145 0.63824 0.70531 0.0
C632 C 0.8356 0.6629 0.78557 0.0
C633 C 0.82531 0.70268 0.79312 0.0
C634 C 0.82775 0.65583 0.76835 0.0
C635 C 0.80919 0.68824 0.75827 0.0
C636 C 0.7987 0.72798 0.76581 0.0
C637 C 0.80684 0.7352 0.78304 0.0
C638 C 0.75538 0.68588 0.71496 0.0
C639 C 0.78726 0.66609 0.70495 0.0
C640 C 0.76247 0.69326 0.73226 0.0
C641 C 0.80141 0.68064 0.73992 0.0
C642 C 0.83308 0.66054 0.72993 0.0
C643 C 0.82615 0.65347 0.71265 0.0
H644 H 0.23429 0.86716 0.28359 0.0
H645 H 0.359 0.82039 0.2997 0.0
H646 H 0.25421 0.85368 0.25404 0.0
H647 H 0.37845 0.80645 0.27035 0.0
H648 H 0.4173 0.84151 0.21595 0.0
H649 H 0.39554 0.84955 0.24544 0.0
H650 H 0.27072 0.79565 0.23358 0.0
H651 H 0.29226 0.78813 0.20392 0.0
C652 C 0.26575 0.8537 0.28086 0.0
C653 C 0.29516 0.84525 0.29401 0.0
C654 C 0.27709 0.84577 0.26394 0.0
C655 C 0.31806 0.82929 0.25984 0.0
C656 C 0.34695 0.81987 0.27304 0.0
C657 C 0.33566 0.82772 0.2899 0.0
C658 C 0.38531 0.83107 0.21962 0.0
C659 C 0.35655 0.81419 0.20756 0.0
C660 C 0.37288 0.83552 0.23656 0.0
C661 C 0.33136 0.82326 0.24187 0.0
C662 C 0.30274 0.80585 0.22985 0.0
C663 C 0.31524 0.80125 0.21289 0.0
H664 H 0.13823 0.30767 0.703 0.0
H665 H 0.26477 0.35788 0.71471 0.0
H666 H 0.1261 0.29289 0.73295 0.0
H667 H 0.25267 0.34256 0.74475 0.0
H668 H 0.19111 0.35749 0.79788 0.0
H669 H 0.20617 0.36968 0.76794 0.0
H670 H 0.15217 0.24505 0.75582 0.0
H671 H 0.13661 0.23292 0.78583 0.0
C672 C 0.16354 0.31548 0.71196 0.0
C673 C 0.20243 0.33416 0.70647 0.0
C674 C 0.15667 0.30667 0.72912 0.0
C675 C 0.18842 0.31651 0.74122 0.0
C676 C 0.22742 0.335 0.73574 0.0
C677 C 0.23442 0.3436 0.71853 0.0
C678 C 0.18242 0.33263 0.78885 0.0
C679 C 0.16243 0.2943 0.79424 0.0
C680 C 0.19138 0.33952 0.7717 0.0
C681 C 0.18036 0.30835 0.75951 0.0
C682 C 0.16064 0.26987 0.7649 0.0
C683 C 0.15191 0.26284 0.78209 0.0
H684 H 0.65814 0.15441 0.29447 0.0
H685 H 0.78469 0.21097 0.28885 0.0
H686 H 0.64305 0.16878 0.26474 0.0
H687 H 0.76954 0.225 0.25887 0.0
H688 H 0.70478 0.28332 0.21079 0.0
H689 H 0.72107 0.2709 0.24079 0.0
H690 H 0.66786 0.14259 0.23698 0.0
H691 H 0.65125 0.15495 0.20723 0.0
C692 C 0.68287 0.16976 0.28687 0.0
C693 C 0.72271 0.18141 0.29404 0.0
C694 C 0.67423 0.17784 0.2698 0.0
C695 C 0.70512 0.19794 0.25945 0.0
C696 C 0.74496 0.2098 0.26658 0.0
C697 C 0.75375 0.20145 0.2837 0.0
C698 C 0.69637 0.25257 0.2164 0.0
C699 C 0.67655 0.22021 0.20664 0.0
C700 C 0.70602 0.24535 0.23353 0.0
C701 C 0.69571 0.20578 0.24124 0.0
C702 C 0.67576 0.17359 0.23146 0.0
C703 C 0.66637 0.18067 0.21438 0.0
H704 H 0.09697 0.32304 0.03848 0.0
H705 H 0.20001 0.23178 0.04604 0.0
H706 H 0.09623 0.3065 0.00821 0.0
H707 H 0.19987 0.21539 0.01553 0.0
H708 H 0.23196 0.28288 0.96207 0.0
H709 H 0.2232 0.26832 0.99228 0.0
H710 H 0.0865 0.25013 0.98481 0.0
H711 H 0.09547 0.26451 0.95442 0.0
C712 C 0.11852 0.2984 0.03367 0.0
C713 C 0.14842 0.2785 0.04445 0.0
C714 C 0.11799 0.28875 0.01638 0.0
C715 C 0.14804 0.2597 0.00952 0.0
C716 C 0.17634 0.23788 0.02052 0.0
C717 C 0.17632 0.24703 0.03792 0.0
C718 C 0.20028 0.27448 0.96682 0.0
C719 C 0.16442 0.2747 0.95598 0.0
C720 C 0.19529 0.26583 0.98408 0.0
C721 C 0.15415 0.25811 0.99088 0.0
C722 C 0.11856 0.25592 0.97986 0.0
C723 C 0.12371 0.26389 0.96249 0.0
H724 H 0.70283 0.23473 0.46244 0.0
H725 H 0.74286 0.10332 0.4537 0.0
H726 H 0.71604 0.22595 0.49274 0.0
H727 H 0.75637 0.0945 0.48411 0.0
H728 H 0.68279 0.08642 0.53708 0.0
H729 H 0.69984 0.09202 0.507 0.0
H730 H 0.76891 0.21055 0.51648 0.0
H731 H 0.75177 0.20464 0.5468 0.0
C732 C 0.71562 0.20434 0.46698 0.0
C733 C 0.72192 0.16976 0.45576 0.0
C734 C 0.72353 0.19941 0.48431 0.0
C735 C 0.73721 0.15952 0.4908 0.0
C736 C 0.74582 0.1256 0.47944 0.0
C737 C 0.73841 0.13073 0.46203 0.0
C738 C 0.70272 0.11297 0.53279 0.0
C739 C 0.71607 0.14505 0.54419 0.0
C740 C 0.71273 0.11606 0.51559 0.0
C741 C 0.73564 0.15178 0.50937 0.0
C742 C 0.75116 0.18269 0.52095 0.0
C743 C 0.74169 0.17918 0.53828 0.0
H744 H 0.90567 0.73241 0.95224 0.0
H745 H 0.76903 0.7165 0.96032 0.0
H746 H 0.91558 0.74609 0.98263 0.0
H747 H 0.77874 0.7303 0.99055 0.0
H748 H 0.804 0.76573 0.04434 0.0
H749 H 0.80337 0.78222 0.01385 0.0
H750 H 0.90565 0.68987 0.00594 0.0
H751 H 0.90576 0.67332 0.0362 0.0
C752 C 0.87762 0.73343 0.96041 0.0
C753 C 0.83657 0.72353 0.95401 0.0
C754 C 0.8833 0.74098 0.97778 0.0
C755 C 0.84794 0.73925 0.98893 0.0
C756 C 0.80651 0.73242 0.98225 0.0
C757 C 0.80097 0.72421 0.96498 0.0
C758 C 0.82725 0.75022 0.03609 0.0
C759 C 0.85503 0.71845 0.04247 0.0
C760 C 0.82676 0.75941 0.0187 0.0
C761 C 0.85446 0.73731 0.00754 0.0
C762 C 0.88436 0.70785 0.01423 0.0
C763 C 0.8843 0.69818 0.03151 0.0
H764 H 0.24757 0.80947 0.45395 0.0
H765 H 0.33607 0.91372 0.46387 0.0
H766 H 0.22968 0.80614 0.48426 0.0
H767 H 0.31834 0.91066 0.494 0.0
H768 H 0.27262 0.90578 0.54731 0.0
H769 H 0.26117 0.91749 0.5169 0.0
H770 H 0.27992 0.78146 0.50778 0.0
H771 H 0.29133 0.76993 0.53805 0.0
C772 C 0.26191 0.83266 0.46254 0.0
C773 C 0.29292 0.86204 0.45669 0.0
C774 C 0.25197 0.83058 0.47985 0.0
C775 C 0.27261 0.85816 0.49147 0.0
C776 C 0.30145 0.88942 0.48535 0.0
C777 C 0.31181 0.89103 0.46814 0.0
C778 C 0.27273 0.87826 0.53885 0.0
C779 C 0.2827 0.83693 0.54496 0.0
C780 C 0.26649 0.88498 0.52147 0.0
C781 C 0.26969 0.85039 0.50999 0.0
C782 C 0.2767 0.80864 0.51632 0.0
C783 C 0.28354 0.80207 0.53362 0.0
H784 H 0.59583 0.22076 0.04611 0.0
H785 H 0.73121 0.1935 0.03962 0.0
H786 H 0.58917 0.23406 0.01552 0.0
H787 H 0.72479 0.20727 0.00922 0.0
H788 H 0.70555 0.25188 0.95552 0.0
H789 H 0.70547 0.26428 0.98634 0.0
H790 H 0.59762 0.17726 0.99157 0.0
H791 H 0.59842 0.16445 0.96097 0.0
C792 C 0.62437 0.21898 0.03822 0.0
C793 C 0.66407 0.20627 0.04516 0.0
C794 C 0.62053 0.22635 0.02075 0.0
C795 C 0.6565 0.22182 0.01003 0.0
C796 C 0.69667 0.21158 0.01719 0.0
C797 C 0.70029 0.20342 0.03455 0.0
C798 C 0.6811 0.23659 0.96327 0.0
C799 C 0.65186 0.20743 0.95602 0.0
C800 C 0.68116 0.24345 0.98084 0.0
C801 C 0.65152 0.22173 0.99132 0.0
C802 C 0.62045 0.19485 0.98381 0.0
C803 C 0.62097 0.18739 0.96634 0.0
H804 H 0.79923 0.73515 0.53757 0.0
H805 H 0.78138 0.59816 0.54406 0.0
H806 H 0.79141 0.72695 0.50692 0.0
H807 H 0.77361 0.58982 0.51329 0.0
H808 H 0.84939 0.59875 0.46083 0.0
H809 H 0.83247 0.6002 0.49106 0.0
H810 H 0.74233 0.70403 0.4825 0.0
H811 H 0.75939 0.70247 0.45214 0.0
C812 C 0.79247 0.70345 0.53243 0.0
C813 C 0.79067 0.66734 0.54313 0.0
C814 C 0.78774 0.69878 0.51492 0.0
C815 C 0.78195 0.65773 0.50773 0.0
C816 C 0.77806 0.62182 0.51852 0.0
C817 C 0.78214 0.62662 0.53611 0.0
C818 C 0.82526 0.62121 0.46538 0.0
C819 C 0.80549 0.65031 0.45419 0.0
C820 C 0.81531 0.62182 0.48264 0.0
C821 C 0.78599 0.65215 0.48912 0.0
C822 C 0.76497 0.68026 0.47782 0.0
C823 C 0.77445 0.67914 0.46045 0.0
H824 H 0.38866 0.75788 0.04535 0.0
H825 H 0.27812 0.84113 0.03948 0.0
H826 H 0.38526 0.73979 0.01511 0.0
H827 H 0.2756 0.8246 0.00949 0.0
H828 H 0.25986 0.78009 0.95807 0.0
H829 H 0.26064 0.77093 0.98879 0.0
H830 H 0.39986 0.7772 0.98842 0.0
H831 H 0.39875 0.78426 0.95747 0.0
C832 C 0.36308 0.77151 0.03771 0.0
C833 C 0.33335 0.80059 0.04481 0.0
C834 C 0.36145 0.76157 0.02036 0.0
C835 C 0.32999 0.78047 0.00986 0.0
C836 C 0.29971 0.80862 0.01718 0.0
C837 C 0.30142 0.81853 0.03439 0.0
C838 C 0.2906 0.77808 0.96456 0.0
C839 C 0.32922 0.78303 0.95556 0.0
C840 C 0.29111 0.77319 0.98214 0.0
C841 C 0.33026 0.77443 0.99113 0.0
C842 C 0.36915 0.77594 0.98192 0.0
C843 C 0.3686 0.78004 0.96421 0.0
H844 H 0.21793 0.39388 0.54361 0.0
H845 H 0.20215 0.25601 0.53992 0.0
H846 H 0.22382 0.39847 0.51266 0.0
H847 H 0.20915 0.26022 0.50917 0.0
H848 H 0.13937 0.29717 0.45981 0.0
H849 H 0.15558 0.28849 0.48969 0.0
H850 H 0.26027 0.37969 0.4852 0.0
H851 H 0.24322 0.38904 0.455 0.0
C852 C 0.21744 0.36444 0.53622 0.0
C853 C 0.20933 0.32462 0.54406 0.0
C854 C 0.22078 0.36702 0.5185 0.0
C855 C 0.21615 0.32977 0.50845 0.0
C856 C 0.2119 0.2896 0.51653 0.0
C857 C 0.2081 0.28713 0.53412 0.0
C858 C 0.16621 0.31502 0.46512 0.0
C859 C 0.19021 0.34351 0.45504 0.0
C860 C 0.1758 0.30975 0.48224 0.0
C861 C 0.20954 0.33309 0.48982 0.0
C862 C 0.23416 0.3612 0.4797 0.0
C863 C 0.2247 0.36621 0.4624 0.0
H864 H 0.0942 0.44149 0.15618 0.0
H865 H 0.06552 0.40727 0.10421 0.0
H866 H 0.03915 0.4974 0.15514 0.0
H867 H 0.00944 0.4618 0.10341 0.0
H868 H 0.9386 0.59113 0.10338 0.0
H869 H 0.99458 0.53645 0.10319 0.0
H870 H 0.96245 0.50237 0.15486 0.0
H871 H 0.9075 0.55843 0.15528 0.0
C872 C 0.0764 0.44612 0.1445 0.0
C873 C 0.0842 0.41986 0.13031 0.0
C874 C 0.04445 0.47779 0.14397 0.0
C875 C 0.0193 0.48361 0.12929 0.0
C876 C 0.02832 0.45845 0.11489 0.0
C877 C 0.06057 0.42712 0.11536 0.0
C878 C 0.943 0.57157 0.11464 0.0
C879 C 0.91873 0.57933 0.12939 0.0
C880 C 0.97518 0.54016 0.11452 0.0
C881 C 0.98351 0.51541 0.12909 0.0
C882 C 0.9577 0.52167 0.14356 0.0
C883 C 0.92581 0.55343 0.14374 0.0
H884 H 0.40877 0.93221 0.60654 0.0
H885 H 0.44513 0.89657 0.65757 0.0
H886 H 0.46209 0.98929 0.60676 0.0
H887 H 0.50029 0.95256 0.65751 0.0
H888 H 0.56262 0.08455 0.65969 0.0
H889 H 0.50742 0.02848 0.65904 0.0
H890 H 0.53507 0.0056 0.60601 0.0
H891 H 0.58809 0.06266 0.60645 0.0
C892 C 0.42899 0.93577 0.61766 0.0
C893 C 0.42265 0.90981 0.63205 0.0
C894 C 0.45967 0.96866 0.6178 0.0
C895 C 0.48536 0.97597 0.63222 0.0
C896 C 0.48037 0.94864 0.64634 0.0
C897 C 0.44917 0.9161 0.64629 0.0
C898 C 0.55627 0.06803 0.64784 0.0
C899 C 0.57976 0.07821 0.63314 0.0
C900 C 0.52505 0.03545 0.64751 0.0
C901 C 0.51704 0.01203 0.63251 0.0
C902 C 0.5398 0.02316 0.61774 0.0
C903 C 0.57043 0.056 0.61801 0.0
H904 H 0.40206 0.94318 0.84354 0.0
H905 H 0.4346 0.90821 0.89505 0.0
H906 H 0.45786 0.99842 0.84392 0.0
H907 H 0.49149 0.96194 0.89519 0.0
H908 H 0.56552 0.08896 0.89465 0.0
H909 H 0.50837 0.03567 0.8954 0.0
H910 H 0.53419 0.00309 0.84303 0.0
H911 H 0.59028 0.05803 0.84206 0.0
C912 C 0.42086 0.94756 0.855 0.0
C913 C 0.41389 0.92128 0.86925 0.0
C914 C 0.45327 0.97882 0.85514 0.0
C915 C 0.47979 0.98416 0.86947 0.0
C916 C 0.47157 0.95903 0.88397 0.0
C917 C 0.43882 0.92817 0.8839 0.0
C918 C 0.55948 0.07006 0.88333 0.0
C919 C 0.58239 0.07794 0.86825 0.0
C920 C 0.5266 0.03939 0.88378 0.0
C921 C 0.51618 0.01539 0.86922 0.0
C922 C 0.54054 0.0218 0.85436 0.0
C923 C 0.57312 0.0529 0.85385 0.0
H924 H 0.0959 0.44425 0.33319 0.0
H925 H 0.05474 0.4112 0.38393 0.0
H926 H 0.0409 0.50036 0.33196 0.0
H927 H 0.99904 0.46623 0.38251 0.0
H928 H 0.94353 0.59909 0.38471 0.0
H929 H 0.99873 0.54354 0.38344 0.0
H930 H 0.96498 0.51731 0.33125 0.0
H931 H 0.91053 0.57391 0.33235 0.0
C932 C 0.07436 0.44817 0.3439 0.0
C933 C 0.07991 0.42357 0.35873 0.0
C934 C 0.04291 0.48044 0.34321 0.0
C935 C 0.01625 0.48847 0.35729 0.0
C936 C 0.01997 0.46182 0.37165 0.0
C937 C 0.05155 0.4299 0.37239 0.0
C938 C 0.94836 0.58199 0.37287 0.0
C939 C 0.92246 0.59076 0.35867 0.0
C940 C 0.97965 0.54976 0.3722 0.0
C941 C 0.98555 0.52524 0.35736 0.0
C942 C 0.96127 0.53557 0.34287 0.0
C943 C 0.93011 0.56812 0.3435 0.0
H944 H 0.90594 0.55311 0.84397 0.0
H945 H 0.93299 0.58992 0.89579 0.0
H946 H 0.96278 0.49914 0.84534 0.0
H947 H 0.99084 0.53713 0.89694 0.0
H948 H 0.06707 0.40973 0.89692 0.0
H949 H 0.00948 0.4629 0.89732 0.0
H950 H 0.03963 0.49796 0.84559 0.0
H951 H 0.0962 0.44362 0.84498 0.0
C952 C 0.92372 0.5494 0.85571 0.0
C953 C 0.91498 0.57596 0.86974 0.0
C954 C 0.95672 0.51885 0.85643 0.0
C955 C 0.98207 0.5144 0.87113 0.0
C956 C 0.97194 0.53953 0.88543 0.0
C957 C 0.93864 0.56982 0.88477 0.0
C958 C 0.06195 0.42931 0.88572 0.0
C959 C 0.08606 0.42219 0.87087 0.0
C960 C 0.0288 0.4598 0.88595 0.0
C961 C 0.0193 0.48417 0.87138 0.0
C962 C 0.04519 0.47884 0.85687 0.0
C963 C 0.07804 0.44807 0.85659 0.0
H964 H 0.57091 0.09922 0.39215 0.0
H965 H 0.59691 0.0719 0.33936 0.0
H966 H 0.51341 0.04549 0.39197 0.0
H967 H 0.54162 0.017 0.3394 0.0
H968 H 0.41309 0.94882 0.33987 0.0
H969 H 0.46826 0.00403 0.33988 0.0
H970 H 0.50221 0.97024 0.39143 0.0
H971 H 0.44499 0.91629 0.39168 0.0
C972 C 0.56419 0.08195 0.3805 0.0
C973 C 0.58835 0.09003 0.36577 0.0
C974 C 0.53164 0.05073 0.38044 0.0
C975 C 0.52301 0.02649 0.36571 0.0
C976 C 0.5467 0.03536 0.35091 0.0
C977 C 0.57861 0.06696 0.3509 0.0
C978 C 0.4327 0.95269 0.35115 0.0
C979 C 0.4247 0.92809 0.36577 0.0
C980 C 0.46448 0.98446 0.35116 0.0
C981 C 0.4897 0.99194 0.36569 0.0
C982 C 0.48277 0.96614 0.38013 0.0
C983 C 0.45039 0.93478 0.38021 0.0
H984 H 0.4063 0.94073 0.11208 0.0
H985 H 0.44009 0.90615 0.16349 0.0
H986 H 0.46138 0.99672 0.11232 0.0
H987 H 0.4964 0.96046 0.16348 0.0
H988 H 0.56792 0.08832 0.16338 0.0
H989 H 0.51201 0.03389 0.16395 0.0
H990 H 0.53708 0.00444 0.11123 0.0
H991 H 0.59188 0.06078 0.11045 0.0
C992 C 0.42527 0.94532 0.12348 0.0
C993 C 0.41874 0.91908 0.13778 0.0
C994 C 0.45729 0.97701 0.12355 0.0
C995 C 0.48392 0.98277 0.13783 0.0
C996 C 0.47633 0.95738 0.15231 0.0
C997 C 0.44391 0.92617 0.15233 0.0
C998 C 0.56202 0.06989 0.15194 0.0
C999 C 0.58437 0.07904 0.13684 0.0
C1000 C 0.52983 0.03851 0.15228 0.0
C1001 C 0.51956 0.01492 0.13759 0.0
C1002 C 0.54331 0.02271 0.12267 0.0
C1003 C 0.57517 0.05462 0.12227 0.0
H1004 H 0.08838 0.43019 0.6041 0.0
H1005 H 0.05159 0.40067 0.65569 0.0
H1006 H 0.03601 0.48835 0.60342 0.0
H1007 H 0.99776 0.45774 0.65477 0.0
H1008 H 0.94143 0.59098 0.656 0.0
H1009 H 0.99557 0.53419 0.65522 0.0
H1010 H 0.96264 0.50752 0.60295 0.0
H1011 H 0.90997 0.56542 0.60353 0.0
C1012 C 0.06831 0.43535 0.61516 0.0
C1013 C 0.07434 0.41089 0.62999 0.0
C1014 C 0.03824 0.46884 0.61477 0.0
C1015 C 0.0131 0.47831 0.62914 0.0
C1016 C 0.01746 0.45221 0.64364 0.0
C1017 C 0.04791 0.41906 0.6441 0.0
C1018 C 0.94636 0.57353 0.64425 0.0
C1019 C 0.9213 0.58268 0.62986 0.0
C1020 C 0.97699 0.54054 0.64386 0.0
C1021 C 0.9829 0.51558 0.62912 0.0
C1022 C 0.9592 0.52613 0.61449 0.0
C1023 C 0.92896 0.55947 0.61483 0.0
H1024 H 0.5422 0.27777 0.15988 0.0
H1025 H 0.53965 0.26718 0.1052 0.0
H1026 H 0.46599 0.29652 0.15983 0.0
H1027 H 0.46328 0.28538 0.10524 0.0
H1028 H 0.32636 0.33981 0.11122 0.0
H1029 H 0.40532 0.33752 0.11119 0.0
H1030 H 0.40246 0.25175 0.15435 0.0
H1031 H 0.32388 0.2538 0.15421 0.0
C1032 C 0.52576 0.28041 0.1478 0.0
C1033 C 0.54713 0.27027 0.13256 0.0
C1034 C 0.48187 0.29075 0.1478 0.0
C1035 C 0.45825 0.29142 0.13257 0.0
C1036 C 0.48042 0.28508 0.11721 0.0
C1037 C 0.52436 0.27464 0.1172 0.0
C1038 C 0.34273 0.32026 0.1206 0.0
C1039 C 0.31902 0.29682 0.13268 0.0
C1040 C 0.38791 0.31911 0.12064 0.0
C1041 C 0.4103 0.29475 0.13286 0.0
C1042 C 0.38637 0.2716 0.14499 0.0
C1043 C 0.34133 0.27258 0.14488 0.0
H1044 H 0.75391 0.3184 0.61239 0.0
H1045 H 0.64795 0.32579 0.6477 0.0
H1046 H 0.75756 0.39712 0.61151 0.0
H1047 H 0.65225 0.40471 0.6472 0.0
H1048 H 0.72493 0.53715 0.65762 0.0
H1049 H 0.70591 0.46082 0.65688 0.0
H1050 H 0.71473 0.46181 0.60225 0.0
H1051 H 0.73362 0.53806 0.60289 0.0
C1052 C 0.73117 0.33693 0.61985 0.0
C1053 C 0.70089 0.31599 0.6302 0.0
C1054 C 0.73316 0.382 0.61933 0.0
C1055 C 0.70512 0.40721 0.62927 0.0
C1056 C 0.6745 0.38622 0.6395 0.0
C1057 C 0.67218 0.34109 0.63985 0.0
C1058 C 0.72169 0.52148 0.64541 0.0
C1059 C 0.73129 0.54387 0.63033 0.0
C1060 C 0.7108 0.47763 0.64499 0.0
C1061 C 0.70959 0.45507 0.62952 0.0
C1062 C 0.71617 0.47812 0.61439 0.0
C1063 C 0.72659 0.52203 0.61477 0.0
H1064 H 0.46204 0.7209 0.15853 0.0
H1065 H 0.46286 0.73112 0.10383 0.0
H1066 H 0.53832 0.70254 0.15813 0.0
H1067 H 0.53935 0.71326 0.10353 0.0
H1068 H 0.67697 0.65927 0.10929 0.0
H1069 H 0.59798 0.66119 0.10945 0.0
H1070 H 0.6011 0.74844 0.15216 0.0
H1071 H 0.67966 0.74686 0.15181 0.0
C1072 C 0.4781 0.71822 0.14638 0.0
C1073 C 0.45625 0.72821 0.13123 0.0
C1074 C 0.52204 0.70811 0.14618 0.0
C1075 C 0.54519 0.70749 0.13084 0.0
C1076 C 0.52255 0.71357 0.11557 0.0
C1077 C 0.47856 0.72381 0.11576 0.0
C1078 C 0.66065 0.6791 0.1186 0.0
C1079 C 0.68442 0.70304 0.13051 0.0
C1080 C 0.61546 0.68002 0.11875 0.0
C1081 C 0.59316 0.70461 0.13092 0.0
C1082 C 0.61714 0.72839 0.14285 0.0
C1083 C 0.66218 0.72768 0.14261 0.0
H1084 H 0.26776 0.45562 0.60628 0.0
H1085 H 0.2654 0.45315 0.66111 0.0
H1086 H 0.28609 0.53189 0.60697 0.0
H1087 H 0.28461 0.52925 0.66176 0.0
H1088 H 0.24787 0.67251 0.65516 0.0
H1089 H 0.24409 0.5939 0.65529 0.0
H1090 H 0.33613 0.58902 0.61418 0.0
H1091 H 0.33962 0.66783 0.6141 0.0
C1092 C 0.27243 0.47092 0.6185 0.0
C1093 C 0.26443 0.4482 0.63364 0.0
C1094 C 0.28294 0.51483 0.61889 0.0
C1095 C 0.28588 0.53703 0.63442 0.0
C1096 C 0.28146 0.51345 0.64956 0.0
C1097 C 0.27089 0.4696 0.64918 0.0
C1098 C 0.26756 0.65454 0.64628 0.0
C1099 C 0.29393 0.6762 0.63461 0.0
C1100 C 0.26562 0.60948 0.64639 0.0
C1101 C 0.29004 0.58497 0.63481 0.0
C1102 C 0.31661 0.6068 0.62317 0.0
C1103 C 0.31854 0.65192 0.62308 0.0
H1104 H 0.04002 0.22697 0.89383 0.0
H1105 H 0.04109 0.2316 0.83902 0.0
H1106 H 0.96392 0.20824 0.89336 0.0
H1107 H 0.96514 0.21178 0.83858 0.0
H1108 H 0.82207 0.24726 0.84578 0.0
H1109 H 0.90053 0.25112 0.84534 0.0
H1110 H 0.90651 0.15884 0.88635 0.0
H1111 H 0.82765 0.15535 0.88676 0.0
C1112 C 0.02445 0.22274 0.88164 0.0
C1113 C 0.04675 0.2315 0.86647 0.0
C1114 C 0.98061 0.21194 0.88138 0.0
C1115 C 0.95802 0.20941 0.86594 0.0
C1116 C 0.98121 0.2146 0.85072 0.0
C1117 C 0.02499 0.22551 0.85098 0.0
C1118 C 0.84021 0.22753 0.85458 0.0
C1119 C 0.8188 0.20118 0.86634 0.0
C1120 C 0.88523 0.2295 0.85429 0.0
C1121 C 0.91006 0.20506 0.86574 0.0
C1122 C 0.8885 0.17841 0.87745 0.0
C1123 C 0.84335 0.17647 0.87773 0.0
H1124 H 0.74575 0.82947 0.35114 0.0
H1125 H 0.85426 0.83075 0.38538 0.0
H1126 H 0.74545 0.90816 0.35077 0.0
H1127 H 0.85309 0.90995 0.38547 0.0
H1128 H 0.78401 0.04733 0.39494 0.0
H1129 H 0.80066 0.97033 0.3951 0.0
H1130 H 0.79516 0.96826 0.34042 0.0
H1131 H 0.77877 0.045 0.34012 0.0
C1132 C 0.7696 0.84666 0.35856 0.0
C1133 C 0.80007 0.82402 0.36824 0.0
C1134 C 0.76954 0.89168 0.35832 0.0
C1135 C 0.7996 0.91522 0.36794 0.0
C1136 C 0.82958 0.89264 0.37793 0.0
C1137 C 0.83004 0.84741 0.37797 0.0
C1138 C 0.78764 0.03083 0.38291 0.0
C1139 C 0.77931 0.05242 0.36753 0.0
C1140 C 0.79712 0.98664 0.38303 0.0
C1141 C 0.7982 0.96314 0.36779 0.0
C1142 C 0.79365 0.98542 0.35238 0.0
C1143 C 0.78461 0.02957 0.35223 0.0
H1144 H 0.95875 0.76369 0.83667 0.0
H1145 H 0.95896 0.77235 0.8914 0.0
H1146 H 0.03496 0.78256 0.8362 0.0
H1147 H 0.03525 0.78993 0.89094 0.0
H1148 H 0.17187 0.83991 0.88466 0.0
H1149 H 0.09311 0.83757 0.88381 0.0
H1150 H 0.09924 0.74358 0.84336 0.0
H1151 H 0.17784 0.74661 0.84416 0.0
C1152 C 0.97473 0.77048 0.84859 0.0
C1153 C 0.95265 0.76589 0.86408 0.0
C1154 C 0.01865 0.7808 0.84833 0.0
C1155 C 0.04164 0.78674 0.86355 0.0
C1156 C 0.01874 0.78564 0.87895 0.0
C1157 C 0.97478 0.7755 0.87921 0.0
C1158 C 0.15622 0.8187 0.87565 0.0
C1159 C 0.18083 0.79331 0.86451 0.0
C1160 C 0.11112 0.8174 0.87512 0.0
C1161 C 0.08962 0.79054 0.86347 0.0
C1162 C 0.11452 0.76536 0.85226 0.0
C1163 C 0.15957 0.7668 0.85277 0.0
H1164 H 0.24981 0.18868 0.39021 0.0
H1165 H 0.15857 0.18502 0.34896 0.0
H1166 H 0.25222 0.10994 0.3905 0.0
H1167 H 0.16093 0.10611 0.34913 0.0
H1168 H 0.23166 0.97328 0.34102 0.0
H1169 H 0.21266 0.04943 0.34185 0.0
H1170 H 0.21 0.04516 0.3966 0.0
H1171 H 0.22953 0.96915 0.39584 0.0
C1172 C 0.22989 0.17091 0.38134 0.0
C1173 C 0.20421 0.19286 0.36951 0.0
C1174 C 0.23107 0.12581 0.38153 0.0
C1175 C 0.20665 0.10159 0.36985 0.0
C1176 C 0.18044 0.12371 0.35818 0.0
C1177 C 0.17914 0.16885 0.35806 0.0
C1178 C 0.22587 0.98816 0.35324 0.0
C1179 C 0.23282 0.96503 0.36836 0.0
C1180 C 0.21499 0.03198 0.35371 0.0
C1181 C 0.21074 0.05369 0.36931 0.0
C1182 C 0.21409 0.02969 0.38438 0.0
C1183 C 0.22488 0.9859 0.38392 0.0
H1184 H 0.4619 0.72989 0.89355 0.0
H1185 H 0.4557 0.7262 0.83878 0.0
H1186 H 0.53795 0.71126 0.8924 0.0
H1187 H 0.53162 0.70642 0.83767 0.0
H1188 H 0.67568 0.74265 0.84214 0.0
H1189 H 0.59707 0.74596 0.84237 0.0
H1190 H 0.59441 0.66118 0.88588 0.0
H1191 H 0.67314 0.65845 0.88566 0.0
C1192 C 0.47633 0.72378 0.88127 0.0
C1193 C 0.45264 0.73019 0.86625 0.0
C1194 C 0.52015 0.71307 0.8806 0.0
C1195 C 0.5413 0.70823 0.86492 0.0
C1196 C 0.5167 0.71108 0.84996 0.0
C1197 C 0.47295 0.72195 0.85062 0.0
C1198 C 0.65818 0.72443 0.85163 0.0
C1199 C 0.68044 0.70061 0.86396 0.0
C1200 C 0.6131 0.72607 0.85173 0.0
C1201 C 0.58919 0.70375 0.86414 0.0
C1202 C 0.61166 0.67924 0.87629 0.0
C1203 C 0.65676 0.67773 0.87619 0.0
H1204 H 0.27394 0.4721 0.341 0.0
H1205 H 0.26999 0.47179 0.39584 0.0
H1206 H 0.29199 0.5485 0.34131 0.0
H1207 H 0.28834 0.54841 0.39603 0.0
H1208 H 0.34846 0.68497 0.38772 0.0
H1209 H 0.34426 0.60595 0.38777 0.0
H1210 H 0.2441 0.61146 0.34981 0.0
H1211 H 0.24732 0.69013 0.3502 0.0
C1212 C 0.27805 0.4879 0.35315 0.0
C1213 C 0.26994 0.4657 0.3684 0.0
C1214 C 0.28802 0.53187 0.35329 0.0
C1215 C 0.29073 0.55463 0.36867 0.0
C1216 C 0.28636 0.53176 0.38397 0.0
C1217 C 0.27589 0.48778 0.38384 0.0
C1218 C 0.32526 0.6692 0.37953 0.0
C1219 C 0.29819 0.69368 0.36895 0.0
C1220 C 0.32305 0.62404 0.37949 0.0
C1221 C 0.29421 0.60249 0.36866 0.0
C1222 C 0.26726 0.62708 0.35806 0.0
C1223 C 0.26903 0.67211 0.35829 0.0
H1224 H 0.53987 0.27212 0.89353 0.0
H1225 H 0.54249 0.2691 0.83871 0.0
H1226 H 0.46356 0.28994 0.8928 0.0
H1227 H 0.46629 0.28787 0.83802 0.0
H1228 H 0.3232 0.2497 0.84481 0.0
H1229 H 0.40187 0.24718 0.84443 0.0
H1230 H 0.406 0.33902 0.88566 0.0
H1231 H 0.3272 0.34114 0.886 0.0
C1232 C 0.5246 0.27657 0.8813 0.0
C1233 C 0.54739 0.26848 0.86618 0.0
C1234 C 0.48064 0.2868 0.88088 0.0
C1235 C 0.45843 0.28939 0.86535 0.0
C1236 C 0.48209 0.28498 0.85022 0.0
C1237 C 0.526 0.27469 0.85062 0.0
C1238 C 0.34103 0.26962 0.85365 0.0
C1239 C 0.31918 0.29545 0.86546 0.0
C1240 C 0.38612 0.26842 0.85341 0.0
C1241 C 0.41045 0.29308 0.86497 0.0
C1242 C 0.3884 0.31929 0.87668 0.0
C1243 C 0.34327 0.32045 0.87691 0.0
H1244 H 0.66338 0.33114 0.38623 0.0
H1245 H 0.75567 0.33003 0.34529 0.0
H1246 H 0.66342 0.41008 0.38597 0.0
H1247 H 0.75536 0.40869 0.34481 0.0
H1248 H 0.72682 0.54772 0.3385 0.0
H1249 H 0.70905 0.47123 0.33827 0.0
H1250 H 0.71447 0.46872 0.39299 0.0
H1251 H 0.73178 0.54531 0.39332 0.0
C1252 C 0.68381 0.34781 0.37723 0.0
C1253 C 0.70974 0.3245 0.36584 0.0
C1254 C 0.68364 0.39297 0.37702 0.0
C1255 C 0.70913 0.41572 0.36529 0.0
C1256 C 0.73466 0.39223 0.35378 0.0
C1257 C 0.73503 0.34717 0.35409 0.0
C1258 C 0.72301 0.53127 0.35053 0.0
C1259 C 0.73146 0.55269 0.36593 0.0
C1260 C 0.71326 0.48724 0.35037 0.0
C1261 C 0.71138 0.46367 0.36559 0.0
C1262 C 0.71578 0.48589 0.38104 0.0
C1263 C 0.72572 0.52991 0.38121 0.0
H1264 H 0.96257 0.76464 0.16061 0.0
H1265 H 0.96258 0.78025 0.1061 0.0
H1266 H 0.03898 0.7825 0.16136 0.0
H1267 H 0.03915 0.79774 0.10693 0.0
H1268 H 0.17667 0.84864 0.11633 0.0
H1269 H 0.09768 0.84661 0.11662 0.0
H1270 H 0.10172 0.7399 0.15179 0.0
H1271 H 0.18037 0.74168 0.15125 0.0
C1272 C 0.97849 0.77291 0.14882 0.0
C1273 C 0.95636 0.77032 0.13326 0.0
C1274 C 0.02248 0.78274 0.14925 0.0
C1275 C 0.04539 0.79053 0.13417 0.0
C1276 C 0.02251 0.7918 0.11878 0.0
C1277 C 0.97849 0.78179 0.11832 0.0
C1278 C 0.16054 0.82462 0.12402 0.0
C1279 C 0.18458 0.79525 0.13375 0.0
C1280 C 0.11537 0.82357 0.12424 0.0
C1281 C 0.09335 0.79337 0.13435 0.0
C1282 C 0.11759 0.76418 0.14414 0.0
C1283 C 0.16263 0.76504 0.14379 0.0
H1284 H 0.24752 0.1737 0.65646 0.0
H1285 H 0.15598 0.16729 0.61537 0.0
H1286 H 0.2517 0.09508 0.65697 0.0
H1287 H 0.15959 0.08856 0.6159 0.0
H1288 H 0.22765 0.95599 0.60792 0.0
H1289 H 0.20911 0.03207 0.60871 0.0
H1290 H 0.21329 0.02968 0.66348 0.0
H1291 H 0.23296 0.95367 0.66272 0.0
C1292 C 0.22791 0.15534 0.64767 0.0
C1293 C 0.20161 0.17649 0.63584 0.0
C1294 C 0.23006 0.11027 0.648 0.0
C1295 C 0.20584 0.08528 0.6365 0.0
C1296 C 0.17907 0.10666 0.6248 0.0
C1297 C 0.17703 0.15175 0.62447 0.0
C1298 C 0.22362 0.97129 0.62017 0.0
C1299 C 0.23245 0.94863 0.63525 0.0
C1300 C 0.21293 0.01512 0.62062 0.0
C1301 C 0.21056 0.03738 0.63616 0.0
C1302 C 0.21595 0.01387 0.65127 0.0
C1303 C 0.22676 0.97006 0.65083 0.0
H1304 H 0.82294 0.25292 0.15456 0.0
H1305 H 0.82721 0.15377 0.11622 0.0
H1306 H 0.90152 0.2549 0.15522 0.0
H1307 H 0.90608 0.15551 0.11682 0.0
H1308 H 0.04087 0.22062 0.10795 0.0
H1309 H 0.96448 0.2031 0.10866 0.0
H1310 H 0.96502 0.21439 0.16327 0.0
H1311 H 0.04131 0.23287 0.16258 0.0
C1312 C 0.8408 0.23125 0.14639 0.0
C1313 C 0.81902 0.20336 0.1353 0.0
C1314 C 0.88585 0.23215 0.14682 0.0
C1315 C 0.91028 0.20513 0.13615 0.0
C1316 C 0.88835 0.17701 0.1251 0.0
C1317 C 0.84321 0.17611 0.1247 0.0
C1318 C 0.02509 0.21829 0.12017 0.0
C1319 C 0.0473 0.22891 0.13519 0.0
C1320 C 0.98111 0.2082 0.12057 0.0
C1321 C 0.95829 0.20832 0.13599 0.0
C1322 C 0.98134 0.21516 0.15113 0.0
C1323 C 0.0253 0.22529 0.15074 0.0
H1324 H 0.76977 0.04038 0.66287 0.0
H1325 H 0.77544 0.03706 0.6081 0.0
H1326 H 0.78898 0.96425 0.66384 0.0
H1327 H 0.79342 0.96092 0.60908 0.0
H1328 H 0.84297 0.82494 0.61552 0.0
H1329 H 0.84152 0.90367 0.61623 0.0
H1330 H 0.75016 0.89915 0.6576 0.0
H1331 H 0.75224 0.82047 0.65693 0.0
C1332 C 0.77604 0.02377 0.65104 0.0
C1333 C 0.77045 0.04495 0.6354 0.0
C1334 C 0.78655 0.97987 0.65159 0.0
C1335 C 0.79177 0.95602 0.63654 0.0
C1336 C 0.78972 0.97807 0.62096 0.0
C1337 C 0.77934 0.02197 0.62039 0.0
C1338 C 0.82252 0.84089 0.62472 0.0
C1339 C 0.79738 0.81665 0.63607 0.0
C1340 C 0.82174 0.88602 0.62516 0.0
C1341 C 0.79571 0.908 0.63696 0.0
C1342 C 0.77122 0.88351 0.64853 0.0
C1343 C 0.77214 0.83839 0.64811 0.0
loop_
_geom_bond_atom_site_label_1
_geom_bond_atom_site_label_2
_geom_bond_distance
_geom_bond_site_symmetry_2
_ccdc_geom_bond_type
Co0 O3 1.970 . S
Co0 N17 1.989 . S
Co0 O25 1.967 . S
Co0 O32 1.920 . S
Co1 O4 1.966 . S
Co1 N10 2.022 . S
Co1 N18 1.993 . S
Co1 O26 1.941 . S
C2 O3 1.258 . S
C2 O4 1.263 . S
O3 Co0 1.970 . S
O3 C2 1.258 . S
O4 Co1 1.966 . S
O4 C2 1.263 . S
C5 O6 1.235 . S
C5 O32 1.289 . S
O6 C5 1.235 . S
C7 C9 1.400 . S
C7 N10 1.351 . S
C7 C12 1.501 . S
C8 C9 1.387 . S
C8 N11 1.341 . S
C9 C7 1.400 . S
C9 C8 1.387 . S
N10 Co1 2.022 . S
N10 C7 1.351 . S
N10 N11 1.365 . S
N11 C8 1.341 . S
N11 N10 1.365 . S
N11 H31 0.862 . S
C12 C7 1.501 . S
C12 H13 0.961 . S
C12 H14 0.961 . S
C12 H15 0.960 . S
H13 C12 0.961 . S
H14 C12 0.961 . S
H15 C12 0.960 . S
C16 N17 1.342 . S
C16 C20 1.401 . S
C16 C21 1.499 . S
N17 Co0 1.989 . S
N17 C16 1.342 . S
N17 N18 1.388 . S
N18 Co1 1.993 . S
N18 N17 1.388 . S
N18 C19 1.346 . S
C19 N18 1.346 . S
C19 C20 1.396 . S
C19 C29 1.510 . S
C20 C16 1.401 . S
C20 C19 1.396 . S
C21 C16 1.499 . S
C21 H22 0.959 . S
C21 H23 0.960 . S
C21 H24 0.961 . S
H22 C21 0.959 . S
H23 C21 0.960 . S
H24 C21 0.961 . S
O25 Co0 1.967 . S
O25 C33 1.258 . S
O26 Co1 1.941 . S
O26 C33 1.266 . S
H27 C29 0.959 . S
H28 C29 0.961 . S
C29 C19 1.510 . S
C29 H27 0.959 . S
C29 H28 0.961 . S
C29 H30 0.960 . S
H30 C29 0.960 . S
H31 N11 0.862 . S
O32 Co0 1.920 . S
O32 C5 1.289 . S
C33 O25 1.258 . S
C33 O26 1.266 . S
Co34 O37 1.970 . S
Co34 N51 1.989 . S
Co34 O59 1.967 . S
Co34 O66 1.920 . S
Co35 O38 1.966 . S
Co35 N44 2.022 . S
Co35 N52 1.993 . S
Co35 O60 1.941 . S
C36 O37 1.258 . S
C36 O38 1.263 . S
O37 Co34 1.970 . S
O37 C36 1.258 . S
O38 Co35 1.966 . S
O38 C36 1.263 . S
C39 O40 1.235 . S
C39 O66 1.289 . S
O40 C39 1.235 . S
C41 C43 1.400 . S
C41 N44 1.351 . S
C41 C46 1.501 . S
C42 C43 1.387 . S
C42 N45 1.341 . S
C43 C41 1.400 . S
C43 C42 1.387 . S
N44 Co35 2.022 . S
N44 C41 1.351 . S
N44 N45 1.365 . S
N45 C42 1.341 . S
N45 N44 1.365 . S
N45 H65 0.862 . S
C46 C41 1.501 . S
C46 H47 0.961 . S
C46 H48 0.961 . S
C46 H49 0.960 . S
H47 C46 0.961 . S
H48 C46 0.961 . S
H49 C46 0.960 . S
C50 N51 1.342 . S
C50 C54 1.401 . S
C50 C55 1.499 . S
N51 Co34 1.989 . S
N51 C50 1.342 . S
N51 N52 1.388 . S
N52 Co35 1.993 . S
N52 N51 1.388 . S
N52 C53 1.346 . S
C53 N52 1.346 . S
C53 C54 1.396 . S
C53 C63 1.510 . S
C54 C50 1.401 . S
C54 C53 1.396 . S
C55 C50 1.499 . S
C55 H56 0.959 . S
C55 H57 0.960 . S
C55 H58 0.961 . S
H56 C55 0.959 . S
H57 C55 0.960 . S
H58 C55 0.961 . S
O59 Co34 1.967 . S
O59 C67 1.258 . S
O60 Co35 1.941 . S
O60 C67 1.266 . S
H61 C63 0.959 . S
H62 C63 0.961 . S
C63 C53 1.510 . S
C63 H61 0.959 . S
C63 H62 0.961 . S
C63 H64 0.960 . S
H64 C63 0.960 . S
H65 N45 0.862 . S
O66 Co34 1.920 . S
O66 C39 1.289 . S
C67 O59 1.258 . S
C67 O60 1.266 . S
Co68 O71 1.970 . S
Co68 N85 1.989 . S
Co68 O93 1.967 . S
Co68 O100 1.920 . S
Co69 O72 1.966 . S
Co69 N78 2.022 . S
Co69 N86 1.993 . S
Co69 O94 1.941 . S
C70 O71 1.258 . S
C70 O72 1.263 . S
O71 Co68 1.970 . S
O71 C70 1.258 . S
O72 Co69 1.966 . S
O72 C70 1.263 . S
C73 O74 1.235 . S
C73 O100 1.289 . S
O74 C73 1.235 . S
C75 C77 1.400 . S
C75 N78 1.351 . S
C75 C80 1.501 . S
C76 C77 1.387 . S
C76 N79 1.341 . S
C77 C75 1.400 . S
C77 C76 1.387 . S
N78 Co69 2.022 . S
N78 C75 1.351 . S
N78 N79 1.365 . S
N79 C76 1.341 . S
N79 N78 1.365 . S
N79 H99 0.862 . S
C80 C75 1.501 . S
C80 H81 0.961 . S
C80 H82 0.961 . S
C80 H83 0.960 . S
H81 C80 0.961 . S
H82 C80 0.961 . S
H83 C80 0.960 . S
C84 N85 1.342 . S
C84 C88 1.401 . S
C84 C89 1.499 . S
N85 Co68 1.989 . S
N85 C84 1.342 . S
N85 N86 1.388 . S
N86 Co69 1.993 . S
N86 N85 1.388 . S
N86 C87 1.346 . S
C87 N86 1.346 . S
C87 C88 1.396 . S
C87 C97 1.510 . S
C88 C84 1.401 . S
C88 C87 1.396 . S
C89 C84 1.499 . S
C89 H90 0.959 . S
C89 H91 0.960 . S
C89 H92 0.961 . S
H90 C89 0.959 . S
H91 C89 0.960 . S
H92 C89 0.961 . S
O93 Co68 1.967 . S
O93 C101 1.258 . S
O94 Co69 1.941 . S
O94 C101 1.266 . S
H95 C97 0.959 . S
H96 C97 0.961 . S
C97 C87 1.510 . S
C97 H95 0.959 . S
C97 H96 0.961 . S
C97 H98 0.960 . S
H98 C97 0.960 . S
H99 N79 0.862 . S
O100 Co68 1.920 . S
O100 C73 1.289 . S
C101 O93 1.258 . S
C101 O94 1.266 . S
Co102 O105 1.970 . S
Co102 N119 1.989 . S
Co102 O127 1.967 . S
Co102 O134 1.920 . S
Co103 O106 1.966 . S
Co103 N112 2.022 . S
Co103 N120 1.993 . S
Co103 O128 1.941 . S
C104 O105 1.258 . S
C104 O106 1.263 . S
O105 Co102 1.970 . S
O105 C104 1.258 . S
O106 Co103 1.966 . S
O106 C104 1.263 . S
C107 O108 1.235 . S
C107 O134 1.289 . S
O108 C107 1.235 . S
C109 C111 1.400 . S
C109 N112 1.351 . S
C109 C114 1.501 . S
C110 C111 1.387 . S
C110 N113 1.341 . S
C111 C109 1.400 . S
C111 C110 1.387 . S
N112 Co103 2.022 . S
N112 C109 1.351 . S
N112 N113 1.365 . S
N113 C110 1.341 . S
N113 N112 1.365 . S
N113 H133 0.862 . S
C114 C109 1.501 . S
C114 H115 0.961 . S
C114 H116 0.961 . S
C114 H117 0.960 . S
H115 C114 0.961 . S
H116 C114 0.961 . S
H117 C114 0.960 . S
C118 N119 1.342 . S
C118 C122 1.401 . S
C118 C123 1.499 . S
N119 Co102 1.989 . S
N119 C118 1.342 . S
N119 N120 1.388 . S
N120 Co103 1.993 . S
N120 N119 1.388 . S
N120 C121 1.346 . S
C121 N120 1.346 . S
C121 C122 1.396 . S
C121 C131 1.510 . S
C122 C118 1.401 . S
C122 C121 1.396 . S
C123 C118 1.499 . S
C123 H124 0.959 . S
C123 H125 0.960 . S
C123 H126 0.961 . S
H124 C123 0.959 . S
H125 C123 0.960 . S
H126 C123 0.961 . S
O127 Co102 1.967 . S
O127 C135 1.258 . S
O128 Co103 1.941 . S
O128 C135 1.266 . S
H129 C131 0.959 . S
H130 C131 0.961 . S
C131 C121 1.510 . S
C131 H129 0.959 . S
C131 H130 0.961 . S
C131 H132 0.960 . S
H132 C131 0.960 . S
H133 N113 0.862 . S
O134 Co102 1.920 . S
O134 C107 1.289 . S
C135 O127 1.258 . S
C135 O128 1.266 . S
Co136 O139 1.970 . S
Co136 N153 1.989 . S
Co136 O161 1.967 . S
Co136 O168 1.920 . S
Co137 O140 1.966 . S
Co137 N146 2.022 . S
Co137 N154 1.993 . S
Co137 O162 1.941 . S
C138 O139 1.258 . S
C138 O140 1.263 . S
O139 Co136 1.970 . S
O139 C138 1.258 . S
O140 Co137 1.966 . S
O140 C138 1.263 . S
C141 O142 1.235 . S
C141 O168 1.289 . S
O142 C141 1.235 . S
C143 C145 1.400 . S
C143 N146 1.351 . S
C143 C148 1.501 . S
C144 C145 1.387 . S
C144 N147 1.341 . S
C145 C143 1.400 . S
C145 C144 1.387 . S
N146 Co137 2.022 . S
N146 C143 1.351 . S
N146 N147 1.365 . S
N147 C144 1.341 . S
N147 N146 1.365 . S
N147 H167 0.862 . S
C148 C143 1.501 . S
C148 H149 0.961 . S
C148 H150 0.961 . S
C148 H151 0.960 . S
H149 C148 0.961 . S
H150 C148 0.961 . S
H151 C148 0.960 . S
C152 N153 1.342 . S
C152 C156 1.401 . S
C152 C157 1.499 . S
N153 Co136 1.989 . S
N153 C152 1.342 . S
N153 N154 1.388 . S
N154 Co137 1.993 . S
N154 N153 1.388 . S
N154 C155 1.346 . S
C155 N154 1.346 . S
C155 C156 1.396 . S
C155 C165 1.510 . S
C156 C152 1.401 . S
C156 C155 1.396 . S
C157 C152 1.499 . S
C157 H158 0.959 . S
C157 H159 0.960 . S
C157 H160 0.961 . S
H158 C157 0.959 . S
H159 C157 0.960 . S
H160 C157 0.961 . S
O161 Co136 1.967 . S
O161 C169 1.258 . S
O162 Co137 1.941 . S
O162 C169 1.266 . S
H163 C165 0.959 . S
H164 C165 0.961 . S
C165 C155 1.510 . S
C165 H163 0.959 . S
C165 H164 0.961 . S
C165 H166 0.960 . S
H166 C165 0.960 . S
H167 N147 0.862 . S
O168 Co136 1.920 . S
O168 C141 1.289 . S
C169 O161 1.258 . S
C169 O162 1.266 . S
Co170 O173 1.970 . S
Co170 N187 1.989 . S
Co170 O195 1.967 . S
Co170 O202 1.920 . S
Co171 O174 1.966 . S
Co171 N180 2.022 . S
Co171 N188 1.993 . S
Co171 O196 1.941 . S
C172 O173 1.258 . S
C172 O174 1.263 . S
O173 Co170 1.970 . S
O173 C172 1.258 . S
O174 Co171 1.966 . S
O174 C172 1.263 . S
C175 O176 1.235 . S
C175 O202 1.289 . S
O176 C175 1.235 . S
C177 C179 1.400 . S
C177 N180 1.351 . S
C177 C182 1.501 . S
C178 C179 1.387 . S
C178 N181 1.341 . S
C179 C177 1.400 . S
C179 C178 1.387 . S
N180 Co171 2.022 . S
N180 C177 1.351 . S
N180 N181 1.365 . S
N181 C178 1.341 . S
N181 N180 1.365 . S
N181 H201 0.862 . S
C182 C177 1.501 . S
C182 H183 0.961 . S
C182 H184 0.961 . S
C182 H185 0.960 . S
H183 C182 0.961 . S
H184 C182 0.961 . S
H185 C182 0.960 . S
C186 N187 1.342 . S
C186 C190 1.401 . S
C186 C191 1.499 . S
N187 Co170 1.989 . S
N187 C186 1.342 . S
N187 N188 1.388 . S
N188 Co171 1.993 . S
N188 N187 1.388 . S
N188 C189 1.346 . S
C189 N188 1.346 . S
C189 C190 1.396 . S
C189 C199 1.510 . S
C190 C186 1.401 . S
C190 C189 1.396 . S
C191 C186 1.499 . S
C191 H192 0.959 . S
C191 H193 0.960 . S
C191 H194 0.961 . S
H192 C191 0.959 . S
H193 C191 0.960 . S
H194 C191 0.961 . S
O195 Co170 1.967 . S
O195 C203 1.258 . S
O196 Co171 1.941 . S
O196 C203 1.266 . S
H197 C199 0.959 . S
H198 C199 0.961 . S
C199 C189 1.510 . S
C199 H197 0.959 . S
C199 H198 0.961 . S
C199 H200 0.960 . S
H200 C199 0.960 . S
H201 N181 0.862 . S
O202 Co170 1.920 . S
O202 C175 1.289 . S
C203 O195 1.258 . S
C203 O196 1.266 . S
Co204 O207 1.970 . S
Co204 N221 1.989 . S
Co204 O229 1.967 . S
Co204 O236 1.920 . S
Co205 O208 1.966 . S
Co205 N214 2.022 . S
Co205 N222 1.993 . S
Co205 O230 1.941 . S
C206 O207 1.258 . S
C206 O208 1.263 . S
O207 Co204 1.970 . S
O207 C206 1.258 . S
O208 Co205 1.966 . S
O208 C206 1.263 . S
C209 O210 1.235 . S
C209 O236 1.289 . S
O210 C209 1.235 . S
C211 C213 1.400 . S
C211 N214 1.351 . S
C211 C216 1.501 . S
C212 C213 1.387 . S
C212 N215 1.341 . S
C213 C211 1.400 . S
C213 C212 1.387 . S
N214 Co205 2.022 . S
N214 C211 1.351 . S
N214 N215 1.365 . S
N215 C212 1.341 . S
N215 N214 1.365 . S
N215 H235 0.862 . S
C216 C211 1.501 . S
C216 H217 0.961 . S
C216 H218 0.961 . S
C216 H219 0.960 . S
H217 C216 0.961 . S
H218 C216 0.961 . S
H219 C216 0.960 . S
C220 N221 1.342 . S
C220 C224 1.401 . S
C220 C225 1.499 . S
N221 Co204 1.989 . S
N221 C220 1.342 . S
N221 N222 1.388 . S
N222 Co205 1.993 . S
N222 N221 1.388 . S
N222 C223 1.346 . S
C223 N222 1.346 . S
C223 C224 1.396 . S
C223 C233 1.510 . S
C224 C220 1.401 . S
C224 C223 1.396 . S
C225 C220 1.499 . S
C225 H226 0.959 . S
C225 H227 0.960 . S
C225 H228 0.961 . S
H226 C225 0.959 . S
H227 C225 0.960 . S
H228 C225 0.961 . S
O229 Co204 1.967 . S
O229 C237 1.258 . S
O230 Co205 1.941 . S
O230 C237 1.266 . S
H231 C233 0.959 . S
H232 C233 0.961 . S
C233 C223 1.510 . S
C233 H231 0.959 . S
C233 H232 0.961 . S
C233 H234 0.960 . S
H234 C233 0.960 . S
H235 N215 0.862 . S
O236 Co204 1.920 . S
O236 C209 1.289 . S
C237 O229 1.258 . S
C237 O230 1.266 . S
Co238 O241 1.970 . S
Co238 N255 1.989 . S
Co238 O263 1.967 . S
Co238 O270 1.920 . S
Co239 O242 1.966 . S
Co239 N248 2.022 . S
Co239 N256 1.993 . S
Co239 O264 1.941 . S
C240 O241 1.258 . S
C240 O242 1.263 . S
O241 Co238 1.970 . S
O241 C240 1.258 . S
O242 Co239 1.966 . S
O242 C240 1.263 . S
C243 O244 1.235 . S
C243 O270 1.289 . S
O244 C243 1.235 . S
C245 C247 1.400 . S
C245 N248 1.351 . S
C245 C250 1.501 . S
C246 C247 1.387 . S
C246 N249 1.341 . S
C247 C245 1.400 . S
C247 C246 1.387 . S
N248 Co239 2.022 . S
N248 C245 1.351 . S
N248 N249 1.365 . S
N249 C246 1.341 . S
N249 N248 1.365 . S
N249 H269 0.862 . S
C250 C245 1.501 . S
C250 H251 0.961 . S
C250 H252 0.961 . S
C250 H253 0.960 . S
H251 C250 0.961 . S
H252 C250 0.961 . S
H253 C250 0.960 . S
C254 N255 1.342 . S
C254 C258 1.401 . S
C254 C259 1.499 . S
N255 Co238 1.989 . S
N255 C254 1.342 . S
N255 N256 1.388 . S
N256 Co239 1.993 . S
N256 N255 1.388 . S
N256 C257 1.346 . S
C257 N256 1.346 . S
C257 C258 1.396 . S
C257 C267 1.510 . S
C258 C254 1.401 . S
C258 C257 1.396 . S
C259 C254 1.499 . S
C259 H260 0.959 . S
C259 H261 0.960 . S
C259 H262 0.961 . S
H260 C259 0.959 . S
H261 C259 0.960 . S
H262 C259 0.961 . S
O263 Co238 1.967 . S
O263 C271 1.258 . S
O264 Co239 1.941 . S
O264 C271 1.266 . S
H265 C267 0.959 . S
H266 C267 0.961 . S
C267 C257 1.510 . S
C267 H265 0.959 . S
C267 H266 0.961 . S
C267 H268 0.960 . S
H268 C267 0.960 . S
H269 N249 0.862 . S
O270 Co238 1.920 . S
O270 C243 1.289 . S
C271 O263 1.258 . S
C271 O264 1.266 . S
Co272 O275 1.970 . S
Co272 N289 1.989 . S
Co272 O297 1.967 . S
Co272 O304 1.920 . S
Co273 O276 1.966 . S
Co273 N282 2.022 . S
Co273 N290 1.993 . S
Co273 O298 1.941 . S
C274 O275 1.258 . S
C274 O276 1.263 . S
O275 Co272 1.970 . S
O275 C274 1.258 . S
O276 Co273 1.966 . S
O276 C274 1.263 . S
C277 O278 1.235 . S
C277 O304 1.289 . S
O278 C277 1.235 . S
C279 C281 1.400 . S
C279 N282 1.351 . S
C279 C284 1.501 . S
C280 C281 1.387 . S
C280 N283 1.341 . S
C281 C279 1.400 . S
C281 C280 1.387 . S
N282 Co273 2.022 . S
N282 C279 1.351 . S
N282 N283 1.365 . S
N283 C280 1.341 . S
N283 N282 1.365 . S
N283 H303 0.862 . S
C284 C279 1.501 . S
C284 H285 0.961 . S
C284 H286 0.961 . S
C284 H287 0.960 . S
H285 C284 0.961 . S
H286 C284 0.961 . S
H287 C284 0.960 . S
C288 N289 1.342 . S
C288 C292 1.401 . S
C288 C293 1.499 . S
N289 Co272 1.989 . S
N289 C288 1.342 . S
N289 N290 1.388 . S
N290 Co273 1.993 . S
N290 N289 1.388 . S
N290 C291 1.346 . S
C291 N290 1.346 . S
C291 C292 1.396 . S
C291 C301 1.510 . S
C292 C288 1.401 . S
C292 C291 1.396 . S
C293 C288 1.499 . S
C293 H294 0.959 . S
C293 H295 0.960 . S
C293 H296 0.961 . S
H294 C293 0.959 . S
H295 C293 0.960 . S
H296 C293 0.961 . S
O297 Co272 1.967 . S
O297 C305 1.258 . S
O298 Co273 1.941 . S
O298 C305 1.266 . S
H299 C301 0.959 . S
H300 C301 0.961 . S
C301 C291 1.510 . S
C301 H299 0.959 . S
C301 H300 0.961 . S
C301 H302 0.960 . S
H302 C301 0.960 . S
H303 N283 0.862 . S
O304 Co272 1.920 . S
O304 C277 1.289 . S
C305 O297 1.258 . S
C305 O298 1.266 . S
Co306 O309 1.970 . S
Co306 N323 1.989 . S
Co306 O331 1.967 . S
Co306 O338 1.920 . S
Co307 O310 1.966 . S
Co307 N316 2.022 . S
Co307 N324 1.993 . S
Co307 O332 1.941 . S
C308 O309 1.258 . S
C308 O310 1.263 . S
O309 Co306 1.970 . S
O309 C308 1.258 . S
O310 Co307 1.966 . S
O310 C308 1.263 . S
C311 O312 1.235 . S
C311 O338 1.289 . S
O312 C311 1.235 . S
C313 C315 1.400 . S
C313 N316 1.351 . S
C313 C318 1.501 . S
C314 C315 1.387 . S
C314 N317 1.341 . S
C315 C313 1.400 . S
C315 C314 1.387 . S
N316 Co307 2.022 . S
N316 C313 1.351 . S
N316 N317 1.365 . S
N317 C314 1.341 . S
N317 N316 1.365 . S
N317 H337 0.862 . S
C318 C313 1.501 . S
C318 H319 0.961 . S
C318 H320 0.961 . S
C318 H321 0.960 . S
H319 C318 0.961 . S
H320 C318 0.961 . S
H321 C318 0.960 . S
C322 N323 1.342 . S
C322 C326 1.401 . S
C322 C327 1.499 . S
N323 Co306 1.989 . S
N323 C322 1.342 . S
N323 N324 1.388 . S
N324 Co307 1.993 . S
N324 N323 1.388 . S
N324 C325 1.346 . S
C325 N324 1.346 . S
C325 C326 1.396 . S
C325 C335 1.510 . S
C326 C322 1.401 . S
C326 C325 1.396 . S
C327 C322 1.499 . S
C327 H328 0.959 . S
C327 H329 0.960 . S
C327 H330 0.961 . S
H328 C327 0.959 . S
H329 C327 0.960 . S
H330 C327 0.961 . S
O331 Co306 1.967 . S
O331 C339 1.258 . S
O332 Co307 1.941 . S
O332 C339 1.266 . S
H333 C335 0.959 . S
H334 C335 0.961 . S
C335 C325 1.510 . S
C335 H333 0.959 . S
C335 H334 0.961 . S
C335 H336 0.960 . S
H336 C335 0.960 . S
H337 N317 0.862 . S
O338 Co306 1.920 . S
O338 C311 1.289 . S
C339 O331 1.258 . S
C339 O332 1.266 . S
Co340 O343 1.970 . S
Co340 N357 1.989 . S
Co340 O365 1.967 . S
Co340 O372 1.920 . S
Co341 O344 1.966 . S
Co341 N350 2.022 . S
Co341 N358 1.993 . S
Co341 O366 1.941 . S
C342 O343 1.258 . S
C342 O344 1.263 . S
O343 Co340 1.970 . S
O343 C342 1.258 . S
O344 Co341 1.966 . S
O344 C342 1.263 . S
C345 O346 1.235 . S
C345 O372 1.289 . S
O346 C345 1.235 . S
C347 C349 1.400 . S
C347 N350 1.351 . S
C347 C352 1.501 . S
C348 C349 1.387 . S
C348 N351 1.341 . S
C349 C347 1.400 . S
C349 C348 1.387 . S
N350 Co341 2.022 . S
N350 C347 1.351 . S
N350 N351 1.365 . S
N351 C348 1.341 . S
N351 N350 1.365 . S
N351 H371 0.862 . S
C352 C347 1.501 . S
C352 H353 0.961 . S
C352 H354 0.961 . S
C352 H355 0.960 . S
H353 C352 0.961 . S
H354 C352 0.961 . S
H355 C352 0.960 . S
C356 N357 1.342 . S
C356 C360 1.401 . S
C356 C361 1.499 . S
N357 Co340 1.989 . S
N357 C356 1.342 . S
N357 N358 1.388 . S
N358 Co341 1.993 . S
N358 N357 1.388 . S
N358 C359 1.346 . S
C359 N358 1.346 . S
C359 C360 1.396 . S
C359 C369 1.510 . S
C360 C356 1.401 . S
C360 C359 1.396 . S
C361 C356 1.499 . S
C361 H362 0.959 . S
C361 H363 0.960 . S
C361 H364 0.961 . S
H362 C361 0.959 . S
H363 C361 0.960 . S
H364 C361 0.961 . S
O365 Co340 1.967 . S
O365 C373 1.258 . S
O366 Co341 1.941 . S
O366 C373 1.266 . S
H367 C369 0.959 . S
H368 C369 0.961 . S
C369 C359 1.510 . S
C369 H367 0.959 . S
C369 H368 0.961 . S
C369 H370 0.960 . S
H370 C369 0.960 . S
H371 N351 0.862 . S
O372 Co340 1.920 . S
O372 C345 1.289 . S
C373 O365 1.258 . S
C373 O366 1.266 . S
Co374 O377 1.970 . S
Co374 N391 1.989 . S
Co374 O399 1.967 . S
Co374 O406 1.920 . S
Co375 O378 1.966 . S
Co375 N384 2.022 . S
Co375 N392 1.993 . S
Co375 O400 1.941 . S
C376 O377 1.258 . S
C376 O378 1.263 . S
O377 Co374 1.970 . S
O377 C376 1.258 . S
O378 Co375 1.966 . S
O378 C376 1.263 . S
C379 O380 1.235 . S
C379 O406 1.289 . S
O380 C379 1.235 . S
C381 C383 1.400 . S
C381 N384 1.351 . S
C381 C386 1.501 . S
C382 C383 1.387 . S
C382 N385 1.341 . S
C383 C381 1.400 . S
C383 C382 1.387 . S
N384 Co375 2.022 . S
N384 C381 1.351 . S
N384 N385 1.365 . S
N385 C382 1.341 . S
N385 N384 1.365 . S
N385 H405 0.862 . S
C386 C381 1.501 . S
C386 H387 0.961 . S
C386 H388 0.961 . S
C386 H389 0.960 . S
H387 C386 0.961 . S
H388 C386 0.961 . S
H389 C386 0.960 . S
C390 N391 1.342 . S
C390 C394 1.401 . S
C390 C395 1.499 . S
N391 Co374 1.989 . S
N391 C390 1.342 . S
N391 N392 1.388 . S
N392 Co375 1.993 . S
N392 N391 1.388 . S
N392 C393 1.346 . S
C393 N392 1.346 . S
C393 C394 1.396 . S
C393 C403 1.510 . S
C394 C390 1.401 . S
C394 C393 1.396 . S
C395 C390 1.499 . S
C395 H396 0.959 . S
C395 H397 0.960 . S
C395 H398 0.961 . S
H396 C395 0.959 . S
H397 C395 0.960 . S
H398 C395 0.961 . S
O399 Co374 1.967 . S
O399 C407 1.258 . S
O400 Co375 1.941 . S
O400 C407 1.266 . S
H401 C403 0.959 . S
H402 C403 0.961 . S
C403 C393 1.510 . S
C403 H401 0.959 . S
C403 H402 0.961 . S
C403 H404 0.960 . S
H404 C403 0.960 . S
H405 N385 0.862 . S
O406 Co374 1.920 . S
O406 C379 1.289 . S
C407 O399 1.258 . S
C407 O400 1.266 . S
Co408 O411 1.970 . S
Co408 N425 1.989 . S
Co408 O433 1.967 . S
Co408 O440 1.920 . S
Co409 O412 1.966 . S
Co409 N418 2.022 . S
Co409 N426 1.993 . S
Co409 O434 1.941 . S
C410 O411 1.258 . S
C410 O412 1.263 . S
O411 Co408 1.970 . S
O411 C410 1.258 . S
O412 Co409 1.966 . S
O412 C410 1.263 . S
C413 O414 1.235 . S
C413 O440 1.289 . S
O414 C413 1.235 . S
C415 C417 1.400 . S
C415 N418 1.351 . S
C415 C420 1.501 . S
C416 C417 1.387 . S
C416 N419 1.341 . S
C417 C415 1.400 . S
C417 C416 1.387 . S
N418 Co409 2.022 . S
N418 C415 1.351 . S
N418 N419 1.365 . S
N419 C416 1.341 . S
N419 N418 1.365 . S
N419 H439 0.862 . S
C420 C415 1.501 . S
C420 H421 0.961 . S
C420 H422 0.961 . S
C420 H423 0.960 . S
H421 C420 0.961 . S
H422 C420 0.961 . S
H423 C420 0.960 . S
C424 N425 1.342 . S
C424 C428 1.401 . S
C424 C429 1.499 . S
N425 Co408 1.989 . S
N425 C424 1.342 . S
N425 N426 1.388 . S
N426 Co409 1.993 . S
N426 N425 1.388 . S
N426 C427 1.346 . S
C427 N426 1.346 . S
C427 C428 1.396 . S
C427 C437 1.510 . S
C428 C424 1.401 . S
C428 C427 1.396 . S
C429 C424 1.499 . S
C429 H430 0.959 . S
C429 H431 0.960 . S
C429 H432 0.961 . S
H430 C429 0.959 . S
H431 C429 0.960 . S
H432 C429 0.961 . S
O433 Co408 1.967 . S
O433 C441 1.258 . S
O434 Co409 1.941 . S
O434 C441 1.266 . S
H435 C437 0.959 . S
H436 C437 0.961 . S
C437 C427 1.510 . S
C437 H435 0.959 . S
C437 H436 0.961 . S
C437 H438 0.960 . S
H438 C437 0.960 . S
H439 N419 0.862 . S
O440 Co408 1.920 . S
O440 C413 1.289 . S
C441 O433 1.258 . S
C441 O434 1.266 . S
Co442 O445 1.970 . S
Co442 N459 1.989 . S
Co442 O467 1.967 . S
Co442 O474 1.920 . S
Co443 O446 1.966 . S
Co443 N452 2.022 . S
Co443 N460 1.993 . S
Co443 O468 1.941 . S
C444 O445 1.258 . S
C444 O446 1.263 . S
O445 Co442 1.970 . S
O445 C444 1.258 . S
O446 Co443 1.966 . S
O446 C444 1.263 . S
C447 O448 1.235 . S
C447 O474 1.289 . S
O448 C447 1.235 . S
C449 C451 1.400 . S
C449 N452 1.351 . S
C449 C454 1.501 . S
C450 C451 1.387 . S
C450 N453 1.341 . S
C451 C449 1.400 . S
C451 C450 1.387 . S
N452 Co443 2.022 . S
N452 C449 1.351 . S
N452 N453 1.365 . S
N453 C450 1.341 . S
N453 N452 1.365 . S
N453 H473 0.862 . S
C454 C449 1.501 . S
C454 H455 0.961 . S
C454 H456 0.961 . S
C454 H457 0.960 . S
H455 C454 0.961 . S
H456 C454 0.961 . S
H457 C454 0.960 . S
C458 N459 1.342 . S
C458 C462 1.401 . S
C458 C463 1.499 . S
N459 Co442 1.989 . S
N459 C458 1.342 . S
N459 N460 1.388 . S
N460 Co443 1.993 . S
N460 N459 1.388 . S
N460 C461 1.346 . S
C461 N460 1.346 . S
C461 C462 1.396 . S
C461 C471 1.510 . S
C462 C458 1.401 . S
C462 C461 1.396 . S
C463 C458 1.499 . S
C463 H464 0.959 . S
C463 H465 0.960 . S
C463 H466 0.961 . S
H464 C463 0.959 . S
H465 C463 0.960 . S
H466 C463 0.961 . S
O467 Co442 1.967 . S
O467 C475 1.258 . S
O468 Co443 1.941 . S
O468 C475 1.266 . S
H469 C471 0.959 . S
H470 C471 0.961 . S
C471 C461 1.510 . S
C471 H469 0.959 . S
C471 H470 0.961 . S
C471 H472 0.960 . S
H472 C471 0.960 . S
H473 N453 0.862 . S
O474 Co442 1.920 . S
O474 C447 1.289 . S
C475 O467 1.258 . S
C475 O468 1.266 . S
Co476 O479 1.970 . S
Co476 N493 1.989 . S
Co476 O501 1.967 . S
Co476 O508 1.920 . S
Co477 O480 1.966 . S
Co477 N486 2.022 . S
Co477 N494 1.993 . S
Co477 O502 1.941 . S
C478 O479 1.258 . S
C478 O480 1.263 . S
O479 Co476 1.970 . S
O479 C478 1.258 . S
O480 Co477 1.966 . S
O480 C478 1.263 . S
C481 O482 1.235 . S
C481 O508 1.289 . S
O482 C481 1.235 . S
C483 C485 1.400 . S
C483 N486 1.351 . S
C483 C488 1.501 . S
C484 C485 1.387 . S
C484 N487 1.341 . S
C485 C483 1.400 . S
C485 C484 1.387 . S
N486 Co477 2.022 . S
N486 C483 1.351 . S
N486 N487 1.365 . S
N487 C484 1.341 . S
N487 N486 1.365 . S
N487 H507 0.862 . S
C488 C483 1.501 . S
C488 H489 0.961 . S
C488 H490 0.961 . S
C488 H491 0.960 . S
H489 C488 0.961 . S
H490 C488 0.961 . S
H491 C488 0.960 . S
C492 N493 1.342 . S
C492 C496 1.401 . S
C492 C497 1.499 . S
N493 Co476 1.989 . S
N493 C492 1.342 . S
N493 N494 1.388 . S
N494 Co477 1.993 . S
N494 N493 1.388 . S
N494 C495 1.346 . S
C495 N494 1.346 . S
C495 C496 1.396 . S
C495 C505 1.510 . S
C496 C492 1.401 . S
C496 C495 1.396 . S
C497 C492 1.499 . S
C497 H498 0.959 . S
C497 H499 0.960 . S
C497 H500 0.961 . S
H498 C497 0.959 . S
H499 C497 0.960 . S
H500 C497 0.961 . S
O501 Co476 1.967 . S
O501 C509 1.258 . S
O502 Co477 1.941 . S
O502 C509 1.266 . S
H503 C505 0.959 . S
H504 C505 0.961 . S
C505 C495 1.510 . S
C505 H503 0.959 . S
C505 H504 0.961 . S
C505 H506 0.960 . S
H506 C505 0.960 . S
H507 N487 0.862 . S
O508 Co476 1.920 . S
O508 C481 1.289 . S
C509 O501 1.258 . S
C509 O502 1.266 . S
Co510 O513 1.970 . S
Co510 N527 1.989 . S
Co510 O535 1.967 . S
Co510 O542 1.920 . S
Co511 O514 1.966 . S
Co511 N520 2.022 . S
Co511 N528 1.993 . S
Co511 O536 1.941 . S
C512 O513 1.258 . S
C512 O514 1.263 . S
O513 Co510 1.970 . S
O513 C512 1.258 . S
O514 Co511 1.966 . S
O514 C512 1.263 . S
C515 O516 1.235 . S
C515 O542 1.289 . S
O516 C515 1.235 . S
C517 C519 1.400 . S
C517 N520 1.351 . S
C517 C522 1.501 . S
C518 C519 1.387 . S
C518 N521 1.341 . S
C519 C517 1.400 . S
C519 C518 1.387 . S
N520 Co511 2.022 . S
N520 C517 1.351 . S
N520 N521 1.365 . S
N521 C518 1.341 . S
N521 N520 1.365 . S
N521 H541 0.862 . S
C522 C517 1.501 . S
C522 H523 0.961 . S
C522 H524 0.961 . S
C522 H525 0.960 . S
H523 C522 0.961 . S
H524 C522 0.961 . S
H525 C522 0.960 . S
C526 N527 1.342 . S
C526 C530 1.401 . S
C526 C531 1.499 . S
N527 Co510 1.989 . S
N527 C526 1.342 . S
N527 N528 1.388 . S
N528 Co511 1.993 . S
N528 N527 1.388 . S
N528 C529 1.346 . S
C529 N528 1.346 . S
C529 C530 1.396 . S
C529 C539 1.510 . S
C530 C526 1.401 . S
C530 C529 1.396 . S
C531 C526 1.499 . S
C531 H532 0.959 . S
C531 H533 0.960 . S
C531 H534 0.961 . S
H532 C531 0.959 . S
H533 C531 0.960 . S
H534 C531 0.961 . S
O535 Co510 1.967 . S
O535 C543 1.258 . S
O536 Co511 1.941 . S
O536 C543 1.266 . S
H537 C539 0.959 . S
H538 C539 0.961 . S
C539 C529 1.510 . S
C539 H537 0.959 . S
C539 H538 0.961 . S
C539 H540 0.960 . S
H540 C539 0.960 . S
H541 N521 0.862 . S
O542 Co510 1.920 . S
O542 C515 1.289 . S
C543 O535 1.258 . S
C543 O536 1.266 . S
H544 C552 0.950 . S
H545 C557 0.950 . S
H546 C554 0.950 . S
H547 C556 0.950 . S
H548 C558 0.950 . S
H549 C560 0.950 . S
H550 C562 0.950 . S
H551 C563 0.950 . S
C552 H544 0.950 . S
C552 C553 1.386 . S
C552 C554 1.391 . S
C553 C552 1.386 . S
C553 C557 1.393 . S
C554 H546 0.950 . S
C554 C552 1.391 . S
C554 C555 1.400 . S
C555 C554 1.400 . S
C555 C556 1.398 . S
C555 C561 1.491 . S
C556 H547 0.950 . S
C556 C555 1.398 . S
C556 C557 1.391 . S
C557 H545 0.950 . S
C557 C553 1.393 . S
C557 C556 1.391 . S
C558 H548 0.950 . S
C558 C559 1.386 . S
C558 C560 1.391 . S
C559 C558 1.386 . S
C559 C563 1.393 . S
C560 H549 0.950 . S
C560 C558 1.391 . S
C560 C561 1.400 . S
C561 C555 1.491 . S
C561 C560 1.400 . S
C561 C562 1.398 . S
C562 H550 0.950 . S
C562 C561 1.398 . S
C562 C563 1.391 . S
C563 H551 0.950 . S
C563 C559 1.393 . S
C563 C562 1.391 . S
H564 C572 0.950 . S
H565 C577 0.950 . S
H566 C574 0.950 . S
H567 C576 0.950 . S
H568 C578 0.950 . S
H569 C580 0.950 . S
H570 C582 0.950 . S
H571 C583 0.950 . S
C572 H564 0.950 . S
C572 C573 1.386 . S
C572 C574 1.391 . S
C573 C572 1.386 . S
C573 C577 1.393 . S
C574 H566 0.950 . S
C574 C572 1.391 . S
C574 C575 1.400 . S
C575 C574 1.400 . S
C575 C576 1.398 . S
C575 C581 1.491 . S
C576 H567 0.950 . S
C576 C575 1.398 . S
C576 C577 1.391 . S
C577 H565 0.950 . S
C577 C573 1.393 . S
C577 C576 1.391 . S
C578 H568 0.950 . S
C578 C579 1.386 . S
C578 C580 1.391 . S
C579 C578 1.386 . S
C579 C583 1.393 . S
C580 H569 0.950 . S
C580 C578 1.391 . S
C580 C581 1.400 . S
C581 C575 1.491 . S
C581 C580 1.400 . S
C581 C582 1.398 . S
C582 H570 0.950 . S
C582 C581 1.398 . S
C582 C583 1.391 . S
C583 H571 0.950 . S
C583 C579 1.393 . S
C583 C582 1.391 . S
H584 C592 0.950 . S
H585 C597 0.950 . S
H586 C594 0.950 . S
H587 C596 0.950 . S
H588 C598 0.950 . S
H589 C600 0.950 . S
H590 C602 0.950 . S
H591 C603 0.950 . S
C592 H584 0.950 . S
C592 C593 1.386 . S
C592 C594 1.391 . S
C593 C592 1.386 . S
C593 C597 1.393 . S
C594 H586 0.950 . S
C594 C592 1.391 . S
C594 C595 1.400 . S
C595 C594 1.400 . S
C595 C596 1.398 . S
C595 C601 1.491 . S
C596 H587 0.950 . S
C596 C595 1.398 . S
C596 C597 1.391 . S
C597 H585 0.950 . S
C597 C593 1.393 . S
C597 C596 1.391 . S
C598 H588 0.950 . S
C598 C599 1.386 . S
C598 C600 1.391 . S
C599 C598 1.386 . S
C599 C603 1.393 . S
C600 H589 0.950 . S
C600 C598 1.391 . S
C600 C601 1.400 . S
C601 C595 1.491 . S
C601 C600 1.400 . S
C601 C602 1.398 . S
C602 H590 0.950 . S
C602 C601 1.398 . S
C602 C603 1.391 . S
C603 H591 0.950 . S
C603 C599 1.393 . S
C603 C602 1.391 . S
H604 C612 0.950 . S
H605 C617 0.950 . S
H606 C614 0.950 . S
H607 C616 0.950 . S
H608 C618 0.950 . S
H609 C620 0.950 . S
H610 C622 0.950 . S
H611 C623 0.950 . S
C612 H604 0.950 . S
C612 C613 1.386 . S
C612 C614 1.391 . S
C613 C612 1.386 . S
C613 C617 1.393 . S
C614 H606 0.950 . S
C614 C612 1.391 . S
C614 C615 1.400 . S
C615 C614 1.400 . S
C615 C616 1.398 . S
C615 C621 1.491 . S
C616 H607 0.950 . S
C616 C615 1.398 . S
C616 C617 1.391 . S
C617 H605 0.950 . S
C617 C613 1.393 . S
C617 C616 1.391 . S
C618 H608 0.950 . S
C618 C619 1.386 . S
C618 C620 1.391 . S
C619 C618 1.386 . S
C619 C623 1.393 . S
C620 H609 0.950 . S
C620 C618 1.391 . S
C620 C621 1.400 . S
C621 C615 1.491 . S
C621 C620 1.400 . S
C621 C622 1.398 . S
C622 H610 0.950 . S
C622 C621 1.398 . S
C622 C623 1.391 . S
C623 H611 0.950 . S
C623 C619 1.393 . S
C623 C622 1.391 . S
H624 C632 0.950 . S
H625 C637 0.950 . S
H626 C634 0.950 . S
H627 C636 0.950 . S
H628 C638 0.950 . S
H629 C640 0.950 . S
H630 C642 0.950 . S
H631 C643 0.950 . S
C632 H624 0.950 . S
C632 C633 1.386 . S
C632 C634 1.391 . S
C633 C632 1.386 . S
C633 C637 1.393 . S
C634 H626 0.950 . S
C634 C632 1.391 . S
C634 C635 1.400 . S
C635 C634 1.400 . S
C635 C636 1.398 . S
C635 C641 1.491 . S
C636 H627 0.950 . S
C636 C635 1.398 . S
C636 C637 1.391 . S
C637 H625 0.950 . S
C637 C633 1.393 . S
C637 C636 1.391 . S
C638 H628 0.950 . S
C638 C639 1.386 . S
C638 C640 1.391 . S
C639 C638 1.386 . S
C639 C643 1.393 . S
C640 H629 0.950 . S
C640 C638 1.391 . S
C640 C641 1.400 . S
C641 C635 1.491 . S
C641 C640 1.400 . S
C641 C642 1.398 . S
C642 H630 0.950 . S
C642 C641 1.398 . S
C642 C643 1.391 . S
C643 H631 0.950 . S
C643 C639 1.393 . S
C643 C642 1.391 . S
H644 C652 0.950 . S
H645 C657 0.950 . S
H646 C654 0.950 . S
H647 C656 0.950 . S
H648 C658 0.950 . S
H649 C660 0.950 . S
H650 C662 0.950 . S
H651 C663 0.950 . S
C652 H644 0.950 . S
C652 C653 1.386 . S
C652 C654 1.391 . S
C653 C652 1.386 . S
C653 C657 1.393 . S
C654 H646 0.950 . S
C654 C652 1.391 . S
C654 C655 1.400 . S
C655 C654 1.400 . S
C655 C656 1.398 . S
C655 C661 1.491 . S
C656 H647 0.950 . S
C656 C655 1.398 . S
C656 C657 1.391 . S
C657 H645 0.950 . S
C657 C653 1.393 . S
C657 C656 1.391 . S
C658 H648 0.950 . S
C658 C659 1.386 . S
C658 C660 1.391 . S
C659 C658 1.386 . S
C659 C663 1.393 . S
C660 H649 0.950 . S
C660 C658 1.391 . S
C660 C661 1.400 . S
C661 C655 1.491 . S
C661 C660 1.400 . S
C661 C662 1.398 . S
C662 H650 0.950 . S
C662 C661 1.398 . S
C662 C663 1.391 . S
C663 H651 0.950 . S
C663 C659 1.393 . S
C663 C662 1.391 . S
H664 C672 0.950 . S
H665 C677 0.950 . S
H666 C674 0.950 . S
H667 C676 0.950 . S
H668 C678 0.950 . S
H669 C680 0.950 . S
H670 C682 0.950 . S
H671 C683 0.950 . S
C672 H664 0.950 . S
C672 C673 1.386 . S
C672 C674 1.391 . S
C673 C672 1.386 . S
C673 C677 1.393 . S
C674 H666 0.950 . S
C674 C672 1.391 . S
C674 C675 1.400 . S
C675 C674 1.400 . S
C675 C676 1.398 . S
C675 C681 1.491 . S
C676 H667 0.950 . S
C676 C675 1.398 . S
C676 C677 1.391 . S
C677 H665 0.950 . S
C677 C673 1.393 . S
C677 C676 1.391 . S
C678 H668 0.950 . S
C678 C679 1.386 . S
C678 C680 1.391 . S
C679 C678 1.386 . S
C679 C683 1.393 . S
C680 H669 0.950 . S
C680 C678 1.391 . S
C680 C681 1.400 . S
C681 C675 1.491 . S
C681 C680 1.400 . S
C681 C682 1.398 . S
C682 H670 0.950 . S
C682 C681 1.398 . S
C682 C683 1.391 . S
C683 H671 0.950 . S
C683 C679 1.393 . S
C683 C682 1.391 . S
H684 C692 0.950 . S
H685 C697 0.950 . S
H686 C694 0.950 . S
H687 C696 0.950 . S
H688 C698 0.950 . S
H689 C700 0.950 . S
H690 C702 0.950 . S
H691 C703 0.950 . S
C692 H684 0.950 . S
C692 C693 1.386 . S
C692 C694 1.391 . S
C693 C692 1.386 . S
C693 C697 1.393 . S
C694 H686 0.950 . S
C694 C692 1.391 . S
C694 C695 1.400 . S
C695 C694 1.400 . S
C695 C696 1.398 . S
C695 C701 1.491 . S
C696 H687 0.950 . S
C696 C695 1.398 . S
C696 C697 1.391 . S
C697 H685 0.950 . S
C697 C693 1.393 . S
C697 C696 1.391 . S
C698 H688 0.950 . S
C698 C699 1.386 . S
C698 C700 1.391 . S
C699 C698 1.386 . S
C699 C703 1.393 . S
C700 H689 0.950 . S
C700 C698 1.391 . S
C700 C701 1.400 . S
C701 C695 1.491 . S
C701 C700 1.400 . S
C701 C702 1.398 . S
C702 H690 0.950 . S
C702 C701 1.398 . S
C702 C703 1.391 . S
C703 H691 0.950 . S
C703 C699 1.393 . S
C703 C702 1.391 . S
H704 C712 0.950 . S
H705 C717 0.950 . S
H706 C714 0.950 . S
H707 C716 0.950 . S
H708 C718 0.950 . S
H709 C720 0.950 . S
H710 C722 0.950 . S
H711 C723 0.950 . S
C712 H704 0.950 . S
C712 C713 1.386 . S
C712 C714 1.391 . S
C713 C712 1.386 . S
C713 C717 1.393 . S
C714 H706 0.950 . S
C714 C712 1.391 . S
C714 C715 1.400 . S
C715 C714 1.400 . S
C715 C716 1.398 . S
C715 C721 1.491 1_554 S
C716 H707 0.950 . S
C716 C715 1.398 . S
C716 C717 1.391 . S
C717 H705 0.950 . S
C717 C713 1.393 . S
C717 C716 1.391 . S
C718 H708 0.950 . S
C718 C719 1.386 . S
C718 C720 1.391 . S
C719 C718 1.386 . S
C719 C723 1.393 . S
C720 H709 0.950 . S
C720 C718 1.391 . S
C720 C721 1.400 . S
C721 C715 1.491 1_556 S
C721 C720 1.400 . S
C721 C722 1.398 . S
C722 H710 0.950 . S
C722 C721 1.398 . S
C722 C723 1.391 . S
C723 H711 0.950 . S
C723 C719 1.393 . S
C723 C722 1.391 . S
H724 C732 0.950 . S
H725 C737 0.950 . S
H726 C734 0.950 . S
H727 C736 0.950 . S
H728 C738 0.950 . S
H729 C740 0.950 . S
H730 C742 0.950 . S
H731 C743 0.950 . S
C732 H724 0.950 . S
C732 C733 1.386 . S
C732 C734 1.391 . S
C733 C732 1.386 . S
C733 C737 1.393 . S
C734 H726 0.950 . S
C734 C732 1.391 . S
C734 C735 1.400 . S
C735 C734 1.400 . S
C735 C736 1.398 . S
C735 C741 1.491 . S
C736 H727 0.950 . S
C736 C735 1.398 . S
C736 C737 1.391 . S
C737 H725 0.950 . S
C737 C733 1.393 . S
C737 C736 1.391 . S
C738 H728 0.950 . S
C738 C739 1.386 . S
C738 C740 1.391 . S
C739 C738 1.386 . S
C739 C743 1.393 . S
C740 H729 0.950 . S
C740 C738 1.391 . S
C740 C741 1.400 . S
C741 C735 1.491 . S
C741 C740 1.400 . S
C741 C742 1.398 . S
C742 H730 0.950 . S
C742 C741 1.398 . S
C742 C743 1.391 . S
C743 H731 0.950 . S
C743 C739 1.393 . S
C743 C742 1.391 . S
H744 C752 0.950 . S
H745 C757 0.950 . S
H746 C754 0.950 . S
H747 C756 0.950 . S
H748 C758 0.950 . S
H749 C760 0.950 . S
H750 C762 0.950 . S
H751 C763 0.950 . S
C752 H744 0.950 . S
C752 C753 1.386 . S
C752 C754 1.391 . S
C753 C752 1.386 . S
C753 C757 1.393 . S
C754 H746 0.950 . S
C754 C752 1.391 . S
C754 C755 1.400 . S
C755 C754 1.400 . S
C755 C756 1.398 . S
C755 C761 1.491 1_556 S
C756 H747 0.950 . S
C756 C755 1.398 . S
C756 C757 1.391 . S
C757 H745 0.950 . S
C757 C753 1.393 . S
C757 C756 1.391 . S
C758 H748 0.950 . S
C758 C759 1.386 . S
C758 C760 1.391 . S
C759 C758 1.386 . S
C759 C763 1.393 . S
C760 H749 0.950 . S
C760 C758 1.391 . S
C760 C761 1.400 . S
C761 C755 1.491 1_554 S
C761 C760 1.400 . S
C761 C762 1.398 . S
C762 H750 0.950 . S
C762 C761 1.398 . S
C762 C763 1.391 . S
C763 H751 0.950 . S
C763 C759 1.393 . S
C763 C762 1.391 . S
H764 C772 0.950 . S
H765 C777 0.950 . S
H766 C774 0.950 . S
H767 C776 0.950 . S
H768 C778 0.950 . S
H769 C780 0.950 . S
H770 C782 0.950 . S
H771 C783 0.950 . S
C772 H764 0.950 . S
C772 C773 1.386 . S
C772 C774 1.391 . S
C773 C772 1.386 . S
C773 C777 1.393 . S
C774 H766 0.950 . S
C774 C772 1.391 . S
C774 C775 1.400 . S
C775 C774 1.400 . S
C775 C776 1.398 . S
C775 C781 1.491 . S
C776 H767 0.950 . S
C776 C775 1.398 . S
C776 C777 1.391 . S
C777 H765 0.950 . S
C777 C773 1.393 . S
C777 C776 1.391 . S
C778 H768 0.950 . S
C778 C779 1.386 . S
C778 C780 1.391 . S
C779 C778 1.386 . S
C779 C783 1.393 . S
C780 H769 0.950 . S
C780 C778 1.391 . S
C780 C781 1.400 . S
C781 C775 1.491 . S
C781 C780 1.400 . S
C781 C782 1.398 . S
C782 H770 0.950 . S
C782 C781 1.398 . S
C782 C783 1.391 . S
C783 H771 0.950 . S
C783 C779 1.393 . S
C783 C782 1.391 . S
H784 C792 0.950 . S
H785 C797 0.950 . S
H786 C794 0.950 . S
H787 C796 0.950 . S
H788 C798 0.950 . S
H789 C800 0.950 . S
H790 C802 0.950 . S
H791 C803 0.950 . S
C792 H784 0.950 . S
C792 C793 1.386 . S
C792 C794 1.391 . S
C793 C792 1.386 . S
C793 C797 1.393 . S
C794 H786 0.950 . S
C794 C792 1.391 . S
C794 C795 1.400 . S
C795 C794 1.400 . S
C795 C796 1.398 . S
C795 C801 1.491 1_554 S
C796 H787 0.950 . S
C796 C795 1.398 . S
C796 C797 1.391 . S
C797 H785 0.950 . S
C797 C793 1.393 . S
C797 C796 1.391 . S
C798 H788 0.950 . S
C798 C799 1.386 . S
C798 C800 1.391 . S
C799 C798 1.386 . S
C799 C803 1.393 . S
C800 H789 0.950 . S
C800 C798 1.391 . S
C800 C801 1.400 . S
C801 C795 1.491 1_556 S
C801 C800 1.400 . S
C801 C802 1.398 . S
C802 H790 0.950 . S
C802 C801 1.398 . S
C802 C803 1.391 . S
C803 H791 0.950 . S
C803 C799 1.393 . S
C803 C802 1.391 . S
H804 C812 0.950 . S
H805 C817 0.950 . S
H806 C814 0.950 . S
H807 C816 0.950 . S
H808 C818 0.950 . S
H809 C820 0.950 . S
H810 C822 0.950 . S
H811 C823 0.950 . S
C812 H804 0.950 . S
C812 C813 1.386 . S
C812 C814 1.391 . S
C813 C812 1.386 . S
C813 C817 1.393 . S
C814 H806 0.950 . S
C814 C812 1.391 . S
C814 C815 1.400 . S
C815 C814 1.400 . S
C815 C816 1.398 . S
C815 C821 1.491 . S
C816 H807 0.950 . S
C816 C815 1.398 . S
C816 C817 1.391 . S
C817 H805 0.950 . S
C817 C813 1.393 . S
C817 C816 1.391 . S
C818 H808 0.950 . S
C818 C819 1.386 . S
C818 C820 1.391 . S
C819 C818 1.386 . S
C819 C823 1.393 . S
C820 H809 0.950 . S
C820 C818 1.391 . S
C820 C821 1.400 . S
C821 C815 1.491 . S
C821 C820 1.400 . S
C821 C822 1.398 . S
C822 H810 0.950 . S
C822 C821 1.398 . S
C822 C823 1.391 . S
C823 H811 0.950 . S
C823 C819 1.393 . S
C823 C822 1.391 . S
H824 C832 0.950 . S
H825 C837 0.950 . S
H826 C834 0.950 . S
H827 C836 0.950 . S
H828 C838 0.950 . S
H829 C840 0.950 . S
H830 C842 0.950 . S
H831 C843 0.950 . S
C832 H824 0.950 . S
C832 C833 1.386 . S
C832 C834 1.391 . S
C833 C832 1.386 . S
C833 C837 1.393 . S
C834 H826 0.950 . S
C834 C832 1.391 . S
C834 C835 1.400 . S
C835 C834 1.400 . S
C835 C836 1.398 . S
C835 C841 1.491 1_554 S
C836 H827 0.950 . S
C836 C835 1.398 . S
C836 C837 1.391 . S
C837 H825 0.950 . S
C837 C833 1.393 . S
C837 C836 1.391 . S
C838 H828 0.950 . S
C838 C839 1.386 . S
C838 C840 1.391 . S
C839 C838 1.386 . S
C839 C843 1.393 . S
C840 H829 0.950 . S
C840 C838 1.391 . S
C840 C841 1.400 . S
C841 C835 1.491 1_556 S
C841 C840 1.400 . S
C841 C842 1.398 . S
C842 H830 0.950 . S
C842 C841 1.398 . S
C842 C843 1.391 . S
C843 H831 0.950 . S
C843 C839 1.393 . S
C843 C842 1.391 . S
H844 C852 0.950 . S
H845 C857 0.950 . S
H846 C854 0.950 . S
H847 C856 0.950 . S
H848 C858 0.950 . S
H849 C860 0.950 . S
H850 C862 0.950 . S
H851 C863 0.950 . S
C852 H844 0.950 . S
C852 C853 1.386 . S
C852 C854 1.391 . S
C853 C852 1.386 . S
C853 C857 1.393 . S
C854 H846 0.950 . S
C854 C852 1.391 . S
C854 C855 1.400 . S
C855 C854 1.400 . S
C855 C856 1.398 . S
C855 C861 1.491 . S
C856 H847 0.950 . S
C856 C855 1.398 . S
C856 C857 1.391 . S
C857 H845 0.950 . S
C857 C853 1.393 . S
C857 C856 1.391 . S
C858 H848 0.950 . S
C858 C859 1.386 . S
C858 C860 1.391 . S
C859 C858 1.386 . S
C859 C863 1.393 . S
C860 H849 0.950 . S
C860 C858 1.391 . S
C860 C861 1.400 . S
C861 C855 1.491 . S
C861 C860 1.400 . S
C861 C862 1.398 . S
C862 H850 0.950 . S
C862 C861 1.398 . S
C862 C863 1.391 . S
C863 H851 0.950 . S
C863 C859 1.393 . S
C863 C862 1.391 . S
H864 C872 0.950 . S
H865 C877 0.950 . S
H866 C874 0.950 1_655 S
H867 C876 0.950 . S
H868 C878 0.950 . S
H869 C880 0.950 1_455 S
H870 C882 0.950 . S
H871 C883 0.950 . S
C872 H864 0.950 . S
C872 C873 1.386 . S
C872 C874 1.391 . S
C873 C872 1.386 . S
C873 C877 1.393 . S
C874 H866 0.950 1_455 S
C874 C872 1.391 . S
C874 C875 1.400 . S
C875 C874 1.400 . S
C875 C876 1.398 . S
C875 C881 1.491 1_455 S
C876 H867 0.950 . S
C876 C875 1.398 . S
C876 C877 1.391 . S
C877 H865 0.950 . S
C877 C873 1.393 . S
C877 C876 1.391 . S
C878 H868 0.950 . S
C878 C879 1.386 . S
C878 C880 1.391 . S
C879 C878 1.386 . S
C879 C883 1.393 . S
C880 H869 0.950 1_655 S
C880 C878 1.391 . S
C880 C881 1.400 . S
C881 C875 1.491 1_655 S
C881 C880 1.400 . S
C881 C882 1.398 . S
C882 H870 0.950 . S
C882 C881 1.398 . S
C882 C883 1.391 . S
C883 H871 0.950 . S
C883 C879 1.393 . S
C883 C882 1.391 . S
H884 C892 0.950 . S
H885 C897 0.950 . S
H886 C894 0.950 . S
H887 C896 0.950 1_545 S
H888 C898 0.950 . S
H889 C900 0.950 . S
H890 C902 0.950 1_565 S
H891 C903 0.950 . S
C892 H884 0.950 . S
C892 C893 1.386 . S
C892 C894 1.391 . S
C893 C892 1.386 . S
C893 C897 1.393 . S
C894 H886 0.950 . S
C894 C892 1.391 . S
C894 C895 1.400 . S
C895 C894 1.400 . S
C895 C896 1.398 . S
C895 C901 1.491 1_565 S
C896 H887 0.950 1_565 S
C896 C895 1.398 . S
C896 C897 1.391 . S
C897 H885 0.950 . S
C897 C893 1.393 . S
C897 C896 1.391 . S
C898 H888 0.950 . S
C898 C899 1.386 . S
C898 C900 1.391 . S
C899 C898 1.386 . S
C899 C903 1.393 . S
C900 H889 0.950 . S
C900 C898 1.391 . S
C900 C901 1.400 . S
C901 C895 1.491 1_545 S
C901 C900 1.400 . S
C901 C902 1.398 . S
C902 H890 0.950 1_545 S
C902 C901 1.398 . S
C902 C903 1.391 . S
C903 H891 0.950 . S
C903 C899 1.393 . S
C903 C902 1.391 . S
H904 C912 0.950 . S
H905 C917 0.950 . S
H906 C914 0.950 1_545 S
H907 C916 0.950 . S
H908 C918 0.950 . S
H909 C920 0.950 1_565 S
H910 C922 0.950 . S
H911 C923 0.950 . S
C912 H904 0.950 . S
C912 C913 1.386 . S
C912 C914 1.391 . S
C913 C912 1.386 . S
C913 C917 1.393 . S
C914 H906 0.950 1_565 S
C914 C912 1.391 . S
C914 C915 1.400 . S
C915 C914 1.400 . S
C915 C916 1.398 . S
C915 C921 1.491 1_565 S
C916 H907 0.950 . S
C916 C915 1.398 . S
C916 C917 1.391 . S
C917 H905 0.950 . S
C917 C913 1.393 . S
C917 C916 1.391 . S
C918 H908 0.950 . S
C918 C919 1.386 . S
C918 C920 1.391 . S
C919 C918 1.386 . S
C919 C923 1.393 . S
C920 H909 0.950 1_545 S
C920 C918 1.391 . S
C920 C921 1.400 . S
C921 C915 1.491 1_545 S
C921 C920 1.400 . S
C921 C922 1.398 . S
C922 H910 0.950 . S
C922 C921 1.398 . S
C922 C923 1.391 . S
C923 H911 0.950 . S
C923 C919 1.393 . S
C923 C922 1.391 . S
H924 C932 0.950 . S
H925 C937 0.950 . S
H926 C934 0.950 . S
H927 C936 0.950 1_655 S
H928 C938 0.950 . S
H929 C940 0.950 . S
H930 C942 0.950 1_455 S
H931 C943 0.950 . S
C932 H924 0.950 . S
C932 C933 1.386 . S
C932 C934 1.391 . S
C933 C932 1.386 . S
C933 C937 1.393 . S
C934 H926 0.950 . S
C934 C932 1.391 . S
C934 C935 1.400 . S
C935 C934 1.400 . S
C935 C936 1.398 . S
C935 C941 1.491 1_455 S
C936 H927 0.950 1_455 S
C936 C935 1.398 . S
C936 C937 1.391 . S
C937 H925 0.950 . S
C937 C933 1.393 . S
C937 C936 1.391 . S
C938 H928 0.950 . S
C938 C939 1.386 . S
C938 C940 1.391 . S
C939 C938 1.386 . S
C939 C943 1.393 . S
C940 H929 0.950 . S
C940 C938 1.391 . S
C940 C941 1.400 . S
C941 C935 1.491 1_655 S
C941 C940 1.400 . S
C941 C942 1.398 . S
C942 H930 0.950 1_655 S
C942 C941 1.398 . S
C942 C943 1.391 . S
C943 H931 0.950 . S
C943 C939 1.393 . S
C943 C942 1.391 . S
H944 C952 0.950 . S
H945 C957 0.950 . S
H946 C954 0.950 . S
H947 C956 0.950 1_455 S
H948 C958 0.950 . S
H949 C960 0.950 . S
H950 C962 0.950 1_655 S
H951 C963 0.950 . S
C952 H944 0.950 . S
C952 C953 1.386 . S
C952 C954 1.391 . S
C953 C952 1.386 . S
C953 C957 1.393 . S
C954 H946 0.950 . S
C954 C952 1.391 . S
C954 C955 1.400 . S
C955 C954 1.400 . S
C955 C956 1.398 . S
C955 C961 1.491 1_655 S
C956 H947 0.950 1_655 S
C956 C955 1.398 . S
C956 C957 1.391 . S
C957 H945 0.950 . S
C957 C953 1.393 . S
C957 C956 1.391 . S
C958 H948 0.950 . S
C958 C959 1.386 . S
C958 C960 1.391 . S
C959 C958 1.386 . S
C959 C963 1.393 . S
C960 H949 0.950 . S
C960 C958 1.391 . S
C960 C961 1.400 . S
C961 C955 1.491 1_455 S
C961 C960 1.400 . S
C961 C962 1.398 . S
C962 H950 0.950 1_455 S
C962 C961 1.398 . S
C962 C963 1.391 . S
C963 H951 0.950 . S
C963 C959 1.393 . S
C963 C962 1.391 . S
H964 C972 0.950 . S
H965 C977 0.950 . S
H966 C974 0.950 1_565 S
H967 C976 0.950 . S
H968 C978 0.950 . S
H969 C980 0.950 1_545 S
H970 C982 0.950 . S
H971 C983 0.950 . S
C972 H964 0.950 . S
C972 C973 1.386 . S
C972 C974 1.391 . S
C973 C972 1.386 . S
C973 C977 1.393 . S
C974 H966 0.950 1_545 S
C974 C972 1.391 . S
C974 C975 1.400 . S
C975 C974 1.400 . S
C975 C976 1.398 . S
C975 C981 1.491 1_545 S
C976 H967 0.950 . S
C976 C975 1.398 . S
C976 C977 1.391 . S
C977 H965 0.950 . S
C977 C973 1.393 . S
C977 C976 1.391 . S
C978 H968 0.950 . S
C978 C979 1.386 . S
C978 C980 1.391 . S
C979 C978 1.386 . S
C979 C983 1.393 . S
C980 H969 0.950 1_565 S
C980 C978 1.391 . S
C980 C981 1.400 . S
C981 C975 1.491 1_565 S
C981 C980 1.400 . S
C981 C982 1.398 . S
C982 H970 0.950 . S
C982 C981 1.398 . S
C982 C983 1.391 . S
C983 H971 0.950 . S
C983 C979 1.393 . S
C983 C982 1.391 . S
H984 C992 0.950 . S
H985 C997 0.950 . S
H986 C994 0.950 . S
H987 C996 0.950 1_545 S
H988 C998 0.950 . S
H989 C1000 0.950 . S
H990 C1002 0.950 1_565 S
H991 C1003 0.950 . S
C992 H984 0.950 . S
C992 C993 1.386 . S
C992 C994 1.391 . S
C993 C992 1.386 . S
C993 C997 1.393 . S
C994 H986 0.950 . S
C994 C992 1.391 . S
C994 C995 1.400 . S
C995 C994 1.400 . S
C995 C996 1.398 . S
C995 C1001 1.491 1_565 S
C996 H987 0.950 1_565 S
C996 C995 1.398 . S
C996 C997 1.391 . S
C997 H985 0.950 . S
C997 C993 1.393 . S
C997 C996 1.391 . S
C998 H988 0.950 . S
C998 C999 1.386 . S
C998 C1000 1.391 . S
C999 C998 1.386 . S
C999 C1003 1.393 . S
C1000 H989 0.950 . S
C1000 C998 1.391 . S
C1000 C1001 1.400 . S
C1001 C995 1.491 1_545 S
C1001 C1000 1.400 . S
C1001 C1002 1.398 . S
C1002 H990 0.950 1_545 S
C1002 C1001 1.398 . S
C1002 C1003 1.391 . S
C1003 H991 0.950 . S
C1003 C999 1.393 . S
C1003 C1002 1.391 . S
H1004 C1012 0.950 . S
H1005 C1017 0.950 . S
H1006 C1014 0.950 . S
H1007 C1016 0.950 1_655 S
H1008 C1018 0.950 . S
H1009 C1020 0.950 . S
H1010 C1022 0.950 1_455 S
H1011 C1023 0.950 . S
C1012 H1004 0.950 . S
C1012 C1013 1.386 . S
C1012 C1014 1.391 . S
C1013 C1012 1.386 . S
C1013 C1017 1.393 . S
C1014 H1006 0.950 . S
C1014 C1012 1.391 . S
C1014 C1015 1.400 . S
C1015 C1014 1.400 . S
C1015 C1016 1.398 . S
C1015 C1021 1.491 1_455 S
C1016 H1007 0.950 1_455 S
C1016 C1015 1.398 . S
C1016 C1017 1.391 . S
C1017 H1005 0.950 . S
C1017 C1013 1.393 . S
C1017 C1016 1.391 . S
C1018 H1008 0.950 . S
C1018 C1019 1.386 . S
C1018 C1020 1.391 . S
C1019 C1018 1.386 . S
C1019 C1023 1.393 . S
C1020 H1009 0.950 . S
C1020 C1018 1.391 . S
C1020 C1021 1.400 . S
C1021 C1015 1.491 1_655 S
C1021 C1020 1.400 . S
C1021 C1022 1.398 . S
C1022 H1010 0.950 1_655 S
C1022 C1021 1.398 . S
C1022 C1023 1.391 . S
C1023 H1011 0.950 . S
C1023 C1019 1.393 . S
C1023 C1022 1.391 . S
H1024 C1032 0.950 . S
H1025 C1037 0.950 . S
H1026 C1034 0.950 . S
H1027 C1036 0.950 . S
H1028 C1038 0.950 . S
H1029 C1040 0.950 . S
H1030 C1042 0.950 . S
H1031 C1043 0.950 . S
C1032 H1024 0.950 . S
C1032 C1033 1.386 . S
C1032 C1034 1.391 . S
C1033 C1032 1.386 . S
C1033 C1037 1.393 . S
C1034 H1026 0.950 . S
C1034 C1032 1.391 . S
C1034 C1035 1.400 . S
C1035 C1034 1.400 . S
C1035 C1036 1.398 . S
C1035 C1041 1.491 . S
C1036 H1027 0.950 . S
C1036 C1035 1.398 . S
C1036 C1037 1.391 . S
C1037 H1025 0.950 . S
C1037 C1033 1.393 . S
C1037 C1036 1.391 . S
C1038 H1028 0.950 . S
C1038 C1039 1.386 . S
C1038 C1040 1.391 . S
C1039 C1038 1.386 . S
C1039 C1043 1.393 . S
C1040 H1029 0.950 . S
C1040 C1038 1.391 . S
C1040 C1041 1.400 . S
C1041 C1035 1.491 . S
C1041 C1040 1.400 . S
C1041 C1042 1.398 . S
C1042 H1030 0.950 . S
C1042 C1041 1.398 . S
C1042 C1043 1.391 . S
C1043 H1031 0.950 . S
C1043 C1039 1.393 . S
C1043 C1042 1.391 . S
H1044 C1052 0.950 . S
H1045 C1057 0.950 . S
H1046 C1054 0.950 . S
H1047 C1056 0.950 . S
H1048 C1058 0.950 . S
H1049 C1060 0.950 . S
H1050 C1062 0.950 . S
H1051 C1063 0.950 . S
C1052 H1044 0.950 . S
C1052 C1053 1.386 . S
C1052 C1054 1.391 . S
C1053 C1052 1.386 . S
C1053 C1057 1.393 . S
C1054 H1046 0.950 . S
C1054 C1052 1.391 . S
C1054 C1055 1.400 . S
C1055 C1054 1.400 . S
C1055 C1056 1.398 . S
C1055 C1061 1.491 . S
C1056 H1047 0.950 . S
C1056 C1055 1.398 . S
C1056 C1057 1.391 . S
C1057 H1045 0.950 . S
C1057 C1053 1.393 . S
C1057 C1056 1.391 . S
C1058 H1048 0.950 . S
C1058 C1059 1.386 . S
C1058 C1060 1.391 . S
C1059 C1058 1.386 . S
C1059 C1063 1.393 . S
C1060 H1049 0.950 . S
C1060 C1058 1.391 . S
C1060 C1061 1.400 . S
C1061 C1055 1.491 . S
C1061 C1060 1.400 . S
C1061 C1062 1.398 . S
C1062 H1050 0.950 . S
C1062 C1061 1.398 . S
C1062 C1063 1.391 . S
C1063 H1051 0.950 . S
C1063 C1059 1.393 . S
C1063 C1062 1.391 . S
H1064 C1072 0.950 . S
H1065 C1077 0.950 . S
H1066 C1074 0.950 . S
H1067 C1076 0.950 . S
H1068 C1078 0.950 . S
H1069 C1080 0.950 . S
H1070 C1082 0.950 . S
H1071 C1083 0.950 . S
C1072 H1064 0.950 . S
C1072 C1073 1.386 . S
C1072 C1074 1.391 . S
C1073 C1072 1.386 . S
C1073 C1077 1.393 . S
C1074 H1066 0.950 . S
C1074 C1072 1.391 . S
C1074 C1075 1.400 . S
C1075 C1074 1.400 . S
C1075 C1076 1.398 . S
C1075 C1081 1.491 . S
C1076 H1067 0.950 . S
C1076 C1075 1.398 . S
C1076 C1077 1.391 . S
C1077 H1065 0.950 . S
C1077 C1073 1.393 . S
C1077 C1076 1.391 . S
C1078 H1068 0.950 . S
C1078 C1079 1.386 . S
C1078 C1080 1.391 . S
C1079 C1078 1.386 . S
C1079 C1083 1.393 . S
C1080 H1069 0.950 . S
C1080 C1078 1.391 . S
C1080 C1081 1.400 . S
C1081 C1075 1.491 . S
C1081 C1080 1.400 . S
C1081 C1082 1.398 . S
C1082 H1070 0.950 . S
C1082 C1081 1.398 . S
C1082 C1083 1.391 . S
C1083 H1071 0.950 . S
C1083 C1079 1.393 . S
C1083 C1082 1.391 . S
H1084 C1092 0.950 . S
H1085 C1097 0.950 . S
H1086 C1094 0.950 . S
H1087 C1096 0.950 . S
H1088 C1098 0.950 . S
H1089 C1100 0.950 . S
H1090 C1102 0.950 . S
H1091 C1103 0.950 . S
C1092 H1084 0.950 . S
C1092 C1093 1.386 . S
C1092 C1094 1.391 . S
C1093 C1092 1.386 . S
C1093 C1097 1.393 . S
C1094 H1086 0.950 . S
C1094 C1092 1.391 . S
C1094 C1095 1.400 . S
C1095 C1094 1.400 . S
C1095 C1096 1.398 . S
C1095 C1101 1.491 . S
C1096 H1087 0.950 . S
C1096 C1095 1.398 . S
C1096 C1097 1.391 . S
C1097 H1085 0.950 . S
C1097 C1093 1.393 . S
C1097 C1096 1.391 . S
C1098 H1088 0.950 . S
C1098 C1099 1.386 . S
C1098 C1100 1.391 . S
C1099 C1098 1.386 . S
C1099 C1103 1.393 . S
C1100 H1089 0.950 . S
C1100 C1098 1.391 . S
C1100 C1101 1.400 . S
C1101 C1095 1.491 . S
C1101 C1100 1.400 . S
C1101 C1102 1.398 . S
C1102 H1090 0.950 . S
C1102 C1101 1.398 . S
C1102 C1103 1.391 . S
C1103 H1091 0.950 . S
C1103 C1099 1.393 . S
C1103 C1102 1.391 . S
H1104 C1112 0.950 . S
H1105 C1117 0.950 . S
H1106 C1114 0.950 . S
H1107 C1116 0.950 . S
H1108 C1118 0.950 . S
H1109 C1120 0.950 . S
H1110 C1122 0.950 . S
H1111 C1123 0.950 . S
C1112 H1104 0.950 . S
C1112 C1113 1.386 . S
C1112 C1114 1.391 . S
C1113 C1112 1.386 . S
C1113 C1117 1.393 . S
C1114 H1106 0.950 . S
C1114 C1112 1.391 . S
C1114 C1115 1.400 . S
C1115 C1114 1.400 . S
C1115 C1116 1.398 . S
C1115 C1121 1.491 . S
C1116 H1107 0.950 . S
C1116 C1115 1.398 . S
C1116 C1117 1.391 . S
C1117 H1105 0.950 . S
C1117 C1113 1.393 . S
C1117 C1116 1.391 . S
C1118 H1108 0.950 . S
C1118 C1119 1.386 . S
C1118 C1120 1.391 . S
C1119 C1118 1.386 . S
C1119 C1123 1.393 . S
C1120 H1109 0.950 . S
C1120 C1118 1.391 . S
C1120 C1121 1.400 . S
C1121 C1115 1.491 . S
C1121 C1120 1.400 . S
C1121 C1122 1.398 . S
C1122 H1110 0.950 . S
C1122 C1121 1.398 . S
C1122 C1123 1.391 . S
C1123 H1111 0.950 . S
C1123 C1119 1.393 . S
C1123 C1122 1.391 . S
H1124 C1132 0.950 . S
H1125 C1137 0.950 . S
H1126 C1134 0.950 . S
H1127 C1136 0.950 . S
H1128 C1138 0.950 . S
H1129 C1140 0.950 . S
H1130 C1142 0.950 . S
H1131 C1143 0.950 . S
C1132 H1124 0.950 . S
C1132 C1133 1.386 . S
C1132 C1134 1.391 . S
C1133 C1132 1.386 . S
C1133 C1137 1.393 . S
C1134 H1126 0.950 . S
C1134 C1132 1.391 . S
C1134 C1135 1.400 . S
C1135 C1134 1.400 . S
C1135 C1136 1.398 . S
C1135 C1141 1.491 . S
C1136 H1127 0.950 . S
C1136 C1135 1.398 . S
C1136 C1137 1.391 . S
C1137 H1125 0.950 . S
C1137 C1133 1.393 . S
C1137 C1136 1.391 . S
C1138 H1128 0.950 . S
C1138 C1139 1.386 . S
C1138 C1140 1.391 . S
C1139 C1138 1.386 . S
C1139 C1143 1.393 . S
C1140 H1129 0.950 . S
C1140 C1138 1.391 . S
C1140 C1141 1.400 . S
C1141 C1135 1.491 . S
C1141 C1140 1.400 . S
C1141 C1142 1.398 . S
C1142 H1130 0.950 . S
C1142 C1141 1.398 . S
C1142 C1143 1.391 . S
C1143 H1131 0.950 . S
C1143 C1139 1.393 . S
C1143 C1142 1.391 . S
H1144 C1152 0.950 . S
H1145 C1157 0.950 . S
H1146 C1154 0.950 . S
H1147 C1156 0.950 . S
H1148 C1158 0.950 . S
H1149 C1160 0.950 . S
H1150 C1162 0.950 . S
H1151 C1163 0.950 . S
C1152 H1144 0.950 . S
C1152 C1153 1.386 . S
C1152 C1154 1.391 . S
C1153 C1152 1.386 . S
C1153 C1157 1.393 . S
C1154 H1146 0.950 . S
C1154 C1152 1.391 . S
C1154 C1155 1.400 . S
C1155 C1154 1.400 . S
C1155 C1156 1.398 . S
C1155 C1161 1.491 . S
C1156 H1147 0.950 . S
C1156 C1155 1.398 . S
C1156 C1157 1.391 . S
C1157 H1145 0.950 . S
C1157 C1153 1.393 . S
C1157 C1156 1.391 . S
C1158 H1148 0.950 . S
C1158 C1159 1.386 . S
C1158 C1160 1.391 . S
C1159 C1158 1.386 . S
C1159 C1163 1.393 . S
C1160 H1149 0.950 . S
C1160 C1158 1.391 . S
C1160 C1161 1.400 . S
C1161 C1155 1.491 . S
C1161 C1160 1.400 . S
C1161 C1162 1.398 . S
C1162 H1150 0.950 . S
C1162 C1161 1.398 . S
C1162 C1163 1.391 . S
C1163 H1151 0.950 . S
C1163 C1159 1.393 . S
C1163 C1162 1.391 . S
H1164 C1172 0.950 . S
H1165 C1177 0.950 . S
H1166 C1174 0.950 . S
H1167 C1176 0.950 . S
H1168 C1178 0.950 . S
H1169 C1180 0.950 . S
H1170 C1182 0.950 . S
H1171 C1183 0.950 . S
C1172 H1164 0.950 . S
C1172 C1173 1.386 . S
C1172 C1174 1.391 . S
C1173 C1172 1.386 . S
C1173 C1177 1.393 . S
C1174 H1166 0.950 . S
C1174 C1172 1.391 . S
C1174 C1175 1.400 . S
C1175 C1174 1.400 . S
C1175 C1176 1.398 . S
C1175 C1181 1.491 . S
C1176 H1167 0.950 . S
C1176 C1175 1.398 . S
C1176 C1177 1.391 . S
C1177 H1165 0.950 . S
C1177 C1173 1.393 . S
C1177 C1176 1.391 . S
C1178 H1168 0.950 . S
C1178 C1179 1.386 . S
C1178 C1180 1.391 . S
C1179 C1178 1.386 . S
C1179 C1183 1.393 . S
C1180 H1169 0.950 . S
C1180 C1178 1.391 . S
C1180 C1181 1.400 . S
C1181 C1175 1.491 . S
C1181 C1180 1.400 . S
C1181 C1182 1.398 . S
C1182 H1170 0.950 . S
C1182 C1181 1.398 . S
C1182 C1183 1.391 . S
C1183 H1171 0.950 . S
C1183 C1179 1.393 . S
C1183 C1182 1.391 . S
H1184 C1192 0.950 . S
H1185 C1197 0.950 . S
H1186 C1194 0.950 . S
H1187 C1196 0.950 . S
H1188 C1198 0.950 . S
H1189 C1200 0.950 . S
H1190 C1202 0.950 . S
H1191 C1203 0.950 . S
C1192 H1184 0.950 . S
C1192 C1193 1.386 . S
C1192 C1194 1.391 . S
C1193 C1192 1.386 . S
C1193 C1197 1.393 . S
C1194 H1186 0.950 . S
C1194 C1192 1.391 . S
C1194 C1195 1.400 . S
C1195 C1194 1.400 . S
C1195 C1196 1.398 . S
C1195 C1201 1.491 . S
C1196 H1187 0.950 . S
C1196 C1195 1.398 . S
C1196 C1197 1.391 . S
C1197 H1185 0.950 . S
C1197 C1193 1.393 . S
C1197 C1196 1.391 . S
C1198 H1188 0.950 . S
C1198 C1199 1.386 . S
C1198 C1200 1.391 . S
C1199 C1198 1.386 . S
C1199 C1203 1.393 . S
C1200 H1189 0.950 . S
C1200 C1198 1.391 . S
C1200 C1201 1.400 . S
C1201 C1195 1.491 . S
C1201 C1200 1.400 . S
C1201 C1202 1.398 . S
C1202 H1190 0.950 . S
C1202 C1201 1.398 . S
C1202 C1203 1.391 . S
C1203 H1191 0.950 . S
C1203 C1199 1.393 . S
C1203 C1202 1.391 . S
H1204 C1212 0.950 . S
H1205 C1217 0.950 . S
H1206 C1214 0.950 . S
H1207 C1216 0.950 . S
H1208 C1218 0.950 . S
H1209 C1220 0.950 . S
H1210 C1222 0.950 . S
H1211 C1223 0.950 . S
C1212 H1204 0.950 . S
C1212 C1213 1.386 . S
C1212 C1214 1.391 . S
C1213 C1212 1.386 . S
C1213 C1217 1.393 . S
C1214 H1206 0.950 . S
C1214 C1212 1.391 . S
C1214 C1215 1.400 . S
C1215 C1214 1.400 . S
C1215 C1216 1.398 . S
C1215 C1221 1.491 . S
C1216 H1207 0.950 . S
C1216 C1215 1.398 . S
C1216 C1217 1.391 . S
C1217 H1205 0.950 . S
C1217 C1213 1.393 . S
C1217 C1216 1.391 . S
C1218 H1208 0.950 . S
C1218 C1219 1.386 . S
C1218 C1220 1.391 . S
C1219 C1218 1.386 . S
C1219 C1223 1.393 . S
C1220 H1209 0.950 . S
C1220 C1218 1.391 . S
C1220 C1221 1.400 . S
C1221 C1215 1.491 . S
C1221 C1220 1.400 . S
C1221 C1222 1.398 . S
C1222 H1210 0.950 . S
C1222 C1221 1.398 . S
C1222 C1223 1.391 . S
C1223 H1211 0.950 . S
C1223 C1219 1.393 . S
C1223 C1222 1.391 . S
H1224 C1232 0.950 . S
H1225 C1237 0.950 . S
H1226 C1234 0.950 . S
H1227 C1236 0.950 . S
H1228 C1238 0.950 . S
H1229 C1240 0.950 . S
H1230 C1242 0.950 . S
H1231 C1243 0.950 . S
C1232 H1224 0.950 . S
C1232 C1233 1.386 . S
C1232 C1234 1.391 . S
C1233 C1232 1.386 . S
C1233 C1237 1.393 . S
C1234 H1226 0.950 . S
C1234 C1232 1.391 . S
C1234 C1235 1.400 . S
C1235 C1234 1.400 . S
C1235 C1236 1.398 . S
C1235 C1241 1.491 . S
C1236 H1227 0.950 . S
C1236 C1235 1.398 . S
C1236 C1237 1.391 . S
C1237 H1225 0.950 . S
C1237 C1233 1.393 . S
C1237 C1236 1.391 . S
C1238 H1228 0.950 . S
C1238 C1239 1.386 . S
C1238 C1240 1.391 . S
C1239 C1238 1.386 . S
C1239 C1243 1.393 . S
C1240 H1229 0.950 . S
C1240 C1238 1.391 . S
C1240 C1241 1.400 . S
C1241 C1235 1.491 . S
C1241 C1240 1.400 . S
C1241 C1242 1.398 . S
C1242 H1230 0.950 . S
C1242 C1241 1.398 . S
C1242 C1243 1.391 . S
C1243 H1231 0.950 . S
C1243 C1239 1.393 . S
C1243 C1242 1.391 . S
H1244 C1252 0.950 . S
H1245 C1257 0.950 . S
H1246 C1254 0.950 . S
H1247 C1256 0.950 . S
H1248 C1258 0.950 . S
H1249 C1260 0.950 . S
H1250 C1262 0.950 . S
H1251 C1263 0.950 . S
C1252 H1244 0.950 . S
C1252 C1253 1.386 . S
C1252 C1254 1.391 . S
C1253 C1252 1.386 . S
C1253 C1257 1.393 . S
C1254 H1246 0.950 . S
C1254 C1252 1.391 . S
C1254 C1255 1.400 . S
C1255 C1254 1.400 . S
C1255 C1256 1.398 . S
C1255 C1261 1.491 . S
C1256 H1247 0.950 . S
C1256 C1255 1.398 . S
C1256 C1257 1.391 . S
C1257 H1245 0.950 . S
C1257 C1253 1.393 . S
C1257 C1256 1.391 . S
C1258 H1248 0.950 . S
C1258 C1259 1.386 . S
C1258 C1260 1.391 . S
C1259 C1258 1.386 . S
C1259 C1263 1.393 . S
C1260 H1249 0.950 . S
C1260 C1258 1.391 . S
C1260 C1261 1.400 . S
C1261 C1255 1.491 . S
C1261 C1260 1.400 . S
C1261 C1262 1.398 . S
C1262 H1250 0.950 . S
C1262 C1261 1.398 . S
C1262 C1263 1.391 . S
C1263 H1251 0.950 . S
C1263 C1259 1.393 . S
C1263 C1262 1.391 . S
H1264 C1272 0.950 . S
H1265 C1277 0.953 . S
H1266 C1274 0.950 . S
H1267 C1276 0.950 . S
H1268 C1278 0.950 . S
H1269 C1280 0.950 . S
H1270 C1282 0.950 . S
H1271 C1283 0.950 . S
C1272 H1264 0.950 . S
C1272 C1273 1.386 . S
C1272 C1274 1.391 . S
C1273 C1272 1.386 . S
C1273 C1277 1.393 . S
C1274 H1266 0.950 . S
C1274 C1272 1.391 . S
C1274 C1275 1.400 . S
C1275 C1274 1.400 . S
C1275 C1276 1.398 . S
C1275 C1281 1.491 . S
C1276 H1267 0.950 . S
C1276 C1275 1.398 . S
C1276 C1277 1.391 . S
C1277 H1265 0.953 . S
C1277 C1273 1.393 . S
C1277 C1276 1.391 . S
C1278 H1268 0.950 . S
C1278 C1279 1.386 . S
C1278 C1280 1.391 . S
C1279 C1278 1.386 . S
C1279 C1283 1.393 . S
C1280 H1269 0.950 . S
C1280 C1278 1.391 . S
C1280 C1281 1.400 . S
C1281 C1275 1.491 . S
C1281 C1280 1.400 . S
C1281 C1282 1.398 . S
C1282 H1270 0.950 . S
C1282 C1281 1.398 . S
C1282 C1283 1.391 . S
C1283 H1271 0.950 . S
C1283 C1279 1.393 . S
C1283 C1282 1.391 . S
H1284 C1292 0.950 . S
H1285 C1297 0.950 . S
H1286 C1294 0.950 . S
H1287 C1296 0.950 . S
H1288 C1298 0.948 . S
H1289 C1300 0.950 . S
H1290 C1302 0.950 . S
H1291 C1303 0.950 . S
C1292 H1284 0.950 . S
C1292 C1293 1.386 . S
C1292 C1294 1.391 . S
C1293 C1292 1.386 . S
C1293 C1297 1.393 . S
C1294 H1286 0.950 . S
C1294 C1292 1.391 . S
C1294 C1295 1.400 . S
C1295 C1294 1.400 . S
C1295 C1296 1.398 . S
C1295 C1301 1.491 . S
C1296 H1287 0.950 . S
C1296 C1295 1.398 . S
C1296 C1297 1.391 . S
C1297 H1285 0.950 . S
C1297 C1293 1.393 . S
C1297 C1296 1.391 . S
C1298 H1288 0.948 . S
C1298 C1299 1.386 . S
C1298 C1300 1.391 . S
C1299 C1298 1.386 . S
C1299 C1303 1.393 . S
C1300 H1289 0.950 . S
C1300 C1298 1.391 . S
C1300 C1301 1.400 . S
C1301 C1295 1.491 . S
C1301 C1300 1.400 . S
C1301 C1302 1.398 . S
C1302 H1290 0.950 . S
C1302 C1301 1.398 . S
C1302 C1303 1.391 . S
C1303 H1291 0.950 . S
C1303 C1299 1.393 . S
C1303 C1302 1.391 . S
H1304 C1312 0.950 . S
H1305 C1317 0.950 . S
H1306 C1314 0.950 . S
H1307 C1316 0.950 . S
H1308 C1318 0.950 . S
H1309 C1320 0.950 . S
H1310 C1322 0.950 . S
H1311 C1323 0.950 . S
C1312 H1304 0.950 . S
C1312 C1313 1.386 . S
C1312 C1314 1.391 . S
C1313 C1312 1.386 . S
C1313 C1317 1.393 . S
C1314 H1306 0.950 . S
C1314 C1312 1.391 . S
C1314 C1315 1.400 . S
C1315 C1314 1.400 . S
C1315 C1316 1.398 . S
C1315 C1321 1.491 . S
C1316 H1307 0.950 . S
C1316 C1315 1.398 . S
C1316 C1317 1.391 . S
C1317 H1305 0.950 . S
C1317 C1313 1.393 . S
C1317 C1316 1.391 . S
C1318 H1308 0.950 . S
C1318 C1319 1.386 . S
C1318 C1320 1.391 . S
C1319 C1318 1.386 . S
C1319 C1323 1.393 . S
C1320 H1309 0.950 . S
C1320 C1318 1.391 . S
C1320 C1321 1.400 . S
C1321 C1315 1.491 . S
C1321 C1320 1.400 . S
C1321 C1322 1.398 . S
C1322 H1310 0.950 . S
C1322 C1321 1.398 . S
C1322 C1323 1.391 . S
C1323 H1311 0.950 . S
C1323 C1319 1.393 . S
C1323 C1322 1.391 . S
H1324 C1332 0.950 . S
H1325 C1337 0.953 . S
H1326 C1334 0.950 . S
H1327 C1336 0.950 . S
H1328 C1338 0.950 . S
H1329 C1340 0.950 . S
H1330 C1342 0.950 . S
H1331 C1343 0.950 . S
C1332 H1324 0.950 . S
C1332 C1333 1.386 . S
C1332 C1334 1.391 . S
C1333 C1332 1.386 . S
C1333 C1337 1.393 . S
C1334 H1326 0.950 . S
C1334 C1332 1.391 . S
C1334 C1335 1.400 . S
C1335 C1334 1.400 . S
C1335 C1336 1.398 . S
C1335 C1341 1.491 . S
C1336 H1327 0.950 . S
C1336 C1335 1.398 . S
C1336 C1337 1.391 . S
C1337 H1325 0.953 . S
C1337 C1333 1.393 . S
C1337 C1336 1.391 . S
C1338 H1328 0.950 . S
C1338 C1339 1.386 . S
C1338 C1340 1.391 . S
C1339 C1338 1.386 . S
C1339 C1343 1.393 . S
C1340 H1329 0.950 . S
C1340 C1338 1.391 . S
C1340 C1341 1.400 . S
C1341 C1335 1.491 . S
C1341 C1340 1.400 . S
C1341 C1342 1.398 . S
C1342 H1330 0.950 . S
C1342 C1341 1.398 . S
C1342 C1343 1.391 . S
C1343 H1331 0.950 . S
C1343 C1339 1.393 . S
C1343 C1342 1.391 . S
C553 C5 1.708 . S
C559 C243 1.711 . S
C573 C141 1.709 . S
C579 C39 1.707 . S
C593 C175 1.711 . S
C599 C73 1.708 . S
C613 C209 1.709 . S
C619 C107 1.714 . S
C633 C277 1.707 . S
C639 C515 1.710 . S
C653 C311 1.718 . S
C659 C413 1.714 . S
C673 C447 1.710 . S
C679 C345 1.715 . S
C693 C379 1.709 . S
C699 C481 1.707 . S
C713 C9 1.474 . S
C719 C349 1.500 . S
C733 C383 1.478 . S
C739 C43 1.496 . S
C753 C281 1.495 . S
C759 C77 1.479 . S
C773 C315 1.487 . S
C779 C111 1.488 . S
C793 C485 1.501 . S
C799 C145 1.474 . S
C813 C519 1.476 . S
C819 C179 1.499 . S
C833 C417 1.504 . S
C839 C213 1.470 . S
C853 C451 1.493 . S
C859 C247 1.481 . S
C873 C33 0.725 . S
C879 C101 0.718 . S
C893 C135 0.684 . S
C899 C67 0.692 . S
C913 C237 0.703 . S
C919 C169 0.713 . S
C933 C271 0.719 . S
C939 C203 0.709 . S
C953 C305 0.687 . S
C959 C373 0.682 . S
C973 C407 0.709 . S
C979 C339 0.719 . S
C993 C441 0.713 . S
C999 C509 0.722 . S
C1013 C475 0.716 . S
C1019 C543 0.723 . S
C1033 C478 1.389 . S
C1039 C20 1.395 . S
C1053 C54 1.398 . S
C1059 C512 1.379 . S
C1073 C410 1.390 . S
C1079 C88 1.395 . S
C1093 C444 1.375 . S
C1099 C122 1.396 . S
C1113 C342 1.375 1_655 S
C1119 C156 1.396 . S
C1133 C190 1.396 . S
C1139 C376 1.388 1_565 S
C1153 C274 1.389 1_455 S
C1159 C224 1.395 . S
C1173 C258 1.398 . S
C1179 C308 1.379 1_545 S
C1193 C206 1.385 . S
C1199 C292 1.397 . S
C1213 C240 1.375 . S
C1219 C326 1.396 . S
C1233 C138 1.384 . S
C1239 C360 1.397 . S
C1253 C394 1.394 . S
C1259 C172 1.390 . S
C1273 C70 1.383 1_455 S
C1279 C428 1.392 . S
C1293 C462 1.393 . S
C1299 C104 1.380 1_545 S
C1313 C496 1.395 . S
C1319 C2 1.376 1_655 S
C1333 C36 1.383 1_565 S
C1339 C530 1.392 . S
