# Generated by pormake.
# Topology upa, (4)-cn, num edge types: 1
# Building blocks:
#     Node 0, Type 0, BuildingBlock: UXUYUI_clean_sbu_0, # of connection points: 4
#     Node 1, Type 0, BuildingBlock: UXUYUI_clean_sbu_0, # of connection points: 4
#     Node 2, Type 0, BuildingBlock: UXUYUI_clean_sbu_0, # of connection points: 4
#     Node 3, Type 0, BuildingBlock: UXUYUI_clean_sbu_0, # of connection points: 4
#     Node 4, Type 0, BuildingBlock: UXUYUI_clean_sbu_0, # of connection points: 4
#     Node 5, Type 0, BuildingBlock: UXUYUI_clean_sbu_0, # of connection points: 4
#     Node 6, Type 0, BuildingBlock: UXUYUI_clean_sbu_0, # of connection points: 4
#     Node 7, Type 0, BuildingBlock: UXUYUI_clean_sbu_0, # of connection points: 4
#     Edge 8, Type (0, 0), BuildingBlock: ZUJKAS_clean_linker_0, # of connection points: 2
#     Edge 9, Type (0, 0), BuildingBlock: ZUJKAS_clean_linker_0, # of connection points: 2
#     Edge 10, Type (0, 0), BuildingBlock: ZUJKAS_clean_linker_0, # of connection points: 2
#     Edge 11, Type (0, 0), BuildingBlock: ZUJKAS_clean_linker_0, # of connection points: 2
#     Edge 12, Type (0, 0), BuildingBlock: ZUJKAS_clean_linker_0, # of connection points: 2
#     Edge 13, Type (0, 0), BuildingBlock: ZUJKAS_clean_linker_0, # of connection points: 2
#     Edge 14, Type (0, 0), BuildingBlock: ZUJKAS_clean_linker_0, # of connection points: 2
#     Edge 15, Type (0, 0), BuildingBlock: ZUJKAS_clean_linker_0, # of connection points: 2
#     Edge 16, Type (0, 0), BuildingBlock: ZUJKAS_clean_linker_0, # of connection points: 2
#     Edge 17, Type (0, 0), BuildingBlock: ZUJKAS_clean_linker_0, # of connection points: 2
#     Edge 18, Type (0, 0), BuildingBlock: ZUJKAS_clean_linker_0, # of connection points: 2
#     Edge 19, Type (0, 0), BuildingBlock: ZUJKAS_clean_linker_0, # of connection points: 2
#     Edge 20, Type (0, 0), BuildingBlock: ZUJKAS_clean_linker_0, # of connection points: 2
#     Edge 21, Type (0, 0), BuildingBlock: ZUJKAS_clean_linker_0, # of connection points: 2
#     Edge 22, Type (0, 0), BuildingBlock: ZUJKAS_clean_linker_0, # of connection points: 2
#     Edge 23, Type (0, 0), BuildingBlock: ZUJKAS_clean_linker_0, # of connection points: 2
# Relax obj value: 0.344
# Max RMSD: 0.248
# Mean RMSD: 0.248
data_MOF--net-upa--node1-UXUYUI_clean_sbu_0--edge1-ZUJKAS_clean_linker_0
_symmetry_space_group_name_H-M    P1
_symmetry_Int_Tables_number       1
_symmetry_cell_setting            triclinic
loop_
_symmetry_equiv_pos_as_xyz
'x, y, z'
_cell_length_a     46.246602
_cell_length_b     45.959477
_cell_length_c     76.067915
_cell_angle_alpha  90.000354
_cell_angle_beta   89.998733
_cell_angle_gamma 90.002416
loop_
_atom_site_label
_atom_site_type_symbol
_atom_site_fract_x
_atom_site_fract_y
_atom_site_fract_z
_atom_type_partial_charge
Li0 Li 0.14378 0.23804 0.32484 0.0
Li1 Li 0.17748 0.22772 0.34799 0.0
Li2 Li 0.19378 0.22765 0.3162 0.0
Li3 Li 0.16118 0.18963 0.32879 0.0
C4 C 0.17154 0.28881 0.32725 0.0
N5 N 0.15581 0.34556 0.32008 0.0
C6 C 0.15328 0.30383 0.33874 0.0
C7 C 0.18192 0.30267 0.31216 0.0
C8 C 0.14552 0.33249 0.33486 0.0
C9 C 0.17371 0.33138 0.30877 0.0
C10 C 0.12633 0.21694 0.36159 0.0
C11 C 0.1214 0.20305 0.39205 0.0
N12 N 0.10391 0.22639 0.39481 0.0
C13 C 0.10834 0.24084 0.36476 0.0
C14 C 0.13292 0.19788 0.37536 0.0
C15 C 0.09718 0.24519 0.38163 0.0
C16 C 0.08482 0.23836 0.32131 0.0
N17 N 0.10787 0.25559 0.31749 0.0
C18 C 0.07746 0.28756 0.30085 0.0
C19 C 0.10472 0.27986 0.3074 0.0
C20 C 0.05333 0.26987 0.30449 0.0
C21 C 0.05738 0.2451 0.315 0.0
H22 H 0.08797 0.21851 0.32868 0.0
H23 H 0.12337 0.29259 0.30378 0.0
C24 C 0.2134 0.22019 0.37752 0.0
N25 N 0.19058 0.23586 0.3714 0.0
C26 C 0.22198 0.22259 0.39505 0.0
C27 C 0.18408 0.258 0.39958 0.0
C28 C 0.17658 0.2553 0.38186 0.0
C29 C 0.20676 0.24114 0.40641 0.0
H30 H 0.22455 0.20528 0.3689 0.0
H31 H 0.15892 0.268 0.37665 0.0
C32 C 0.14186 0.21729 0.29225 0.0
N33 N 0.10641 0.2318 0.26439 0.0
C34 C 0.1164 0.20168 0.28925 0.0
C35 C 0.14949 0.24006 0.28099 0.0
C36 C 0.0987 0.20943 0.27512 0.0
C37 C 0.13124 0.24709 0.26699 0.0
C38 C 0.21115 0.17033 0.33609 0.0
C39 C 0.2262 0.1583 0.32192 0.0
C40 C 0.20458 0.15301 0.35066 0.0
C41 C 0.23435 0.12905 0.32252 0.0
C42 C 0.21308 0.12384 0.35076 0.0
N43 N 0.22765 0.11256 0.3368 0.0
C44 C 0.24693 0.25229 0.30595 0.0
C45 C 0.22805 0.21721 0.28621 0.0
C46 C 0.27246 0.25414 0.2962 0.0
N47 N 0.22561 0.23375 0.30094 0.0
C48 C 0.25335 0.2181 0.27618 0.0
C49 C 0.27628 0.23635 0.28131 0.0
H50 H 0.24441 0.26503 0.31781 0.0
H51 H 0.21085 0.20234 0.28271 0.0
C52 C 0.13166 0.13882 0.33858 0.0
N53 N 0.14873 0.15068 0.32596 0.0
C54 C 0.11671 0.11308 0.33529 0.0
C55 C 0.13811 0.11161 0.30629 0.0
C56 C 0.15282 0.13736 0.3102 0.0
C57 C 0.11908 0.09966 0.31876 0.0
H58 H 0.1282 0.15024 0.35078 0.0
H59 H 0.16616 0.14765 0.30031 0.0
O60 O 0.17968 0.26088 0.33092 0.0
O61 O 0.13758 0.2123 0.34516 0.0
O62 O 0.15894 0.21072 0.30636 0.0
O63 O 0.20223 0.1987 0.33553 0.0
H64 H 0.14504 0.29341 0.35045 0.0
H65 H 0.19608 0.29135 0.30314 0.0
H66 H 0.13129 0.34434 0.34358 0.0
H67 H 0.18152 0.34237 0.29712 0.0
H68 H 0.1265 0.18858 0.40283 0.0
H69 H 0.10333 0.25614 0.35442 0.0
H70 H 0.14716 0.17957 0.37329 0.0
H71 H 0.08331 0.26364 0.38426 0.0
H72 H 0.07543 0.30683 0.29276 0.0
H73 H 0.03979 0.23023 0.31773 0.0
H74 H 0.23956 0.20919 0.39985 0.0
H75 H 0.17207 0.2728 0.40791 0.0
H76 H 0.11016 0.18408 0.29792 0.0
H77 H 0.16909 0.25239 0.28319 0.0
H78 H 0.07879 0.19774 0.27273 0.0
H79 H 0.13673 0.2648 0.25823 0.0
H80 H 0.23141 0.17134 0.31053 0.0
H81 H 0.19278 0.1619 0.36169 0.0
H82 H 0.24593 0.11943 0.31162 0.0
H83 H 0.208 0.11015 0.36191 0.0
H84 H 0.28921 0.26898 0.30049 0.0
H85 H 0.25532 0.20368 0.26499 0.0
H86 H 0.10191 0.10495 0.34517 0.0
H87 H 0.14064 0.10186 0.29343 0.0
Li88 Li 0.27002 0.70261 0.8187 0.0
Li89 Li 0.26814 0.68106 0.84826 0.0
Li90 Li 0.30416 0.66417 0.82656 0.0
Li91 Li 0.25382 0.65204 0.82197 0.0
C92 C 0.31508 0.72581 0.84337 0.0
N93 N 0.34588 0.77261 0.85643 0.0
C94 C 0.30215 0.74503 0.85526 0.0
C95 C 0.3438 0.73023 0.83829 0.0
C96 C 0.31804 0.76861 0.86166 0.0
C97 C 0.35897 0.75407 0.84499 0.0
C98 C 0.20889 0.68115 0.83895 0.0
C99 C 0.18047 0.65075 0.85818 0.0
N100 N 0.15639 0.66605 0.85371 0.0
C101 C 0.18388 0.69655 0.83453 0.0
C102 C 0.2072 0.65803 0.85085 0.0
C103 C 0.15754 0.6886 0.84215 0.0
C104 C 0.26418 0.7393 0.78835 0.0
N105 N 0.26571 0.73867 0.80622 0.0
C106 C 0.26597 0.79067 0.80736 0.0
C107 C 0.26561 0.76367 0.81575 0.0
C108 C 0.26616 0.792 0.78891 0.0
C109 C 0.26464 0.76585 0.77939 0.0
H110 H 0.2632 0.71923 0.78099 0.0
H111 H 0.26571 0.76269 0.82991 0.0
C112 C 0.28937 0.68463 0.88202 0.0
N113 N 0.2647 0.68927 0.87274 0.0
C114 C 0.29062 0.69129 0.89988 0.0
C115 C 0.24094 0.70747 0.89842 0.0
C116 C 0.24074 0.70073 0.88048 0.0
C117 C 0.26621 0.70291 0.90831 0.0
H118 H 0.30831 0.67624 0.8754 0.0
H119 H 0.22168 0.70523 0.87274 0.0
C120 C 0.29933 0.67465 0.79067 0.0
N121 N 0.33551 0.68836 0.76297 0.0
C122 C 0.297 0.6597 0.77473 0.0
C123 C 0.32016 0.69646 0.79254 0.0
C124 C 0.31547 0.66697 0.76088 0.0
C125 C 0.3382 0.70312 0.77838 0.0
C126 C 0.29324 0.61515 0.84444 0.0
C127 C 0.29627 0.59547 0.83054 0.0
C128 C 0.30624 0.6091 0.86061 0.0
C129 C 0.3124 0.57011 0.83304 0.0
C130 C 0.32224 0.58352 0.86258 0.0
N131 N 0.32498 0.56473 0.84886 0.0
C132 C 0.36042 0.65159 0.83859 0.0
C133 C 0.34813 0.63042 0.81117 0.0
C134 C 0.38602 0.63549 0.83921 0.0
N135 N 0.34195 0.6484 0.82484 0.0
C136 C 0.37334 0.61387 0.81127 0.0
C137 C 0.39239 0.61576 0.82562 0.0
H138 H 0.35458 0.66555 0.84947 0.0
H139 H 0.33257 0.62739 0.80074 0.0
C140 C 0.22688 0.61896 0.79552 0.0
N141 N 0.23095 0.62085 0.81317 0.0
C142 C 0.21811 0.59269 0.78795 0.0
C143 C 0.21603 0.5715 0.817 0.0
C144 C 0.22472 0.59817 0.82401 0.0
C145 C 0.21379 0.56819 0.79869 0.0
H146 H 0.23246 0.63721 0.78721 0.0
H147 H 0.22874 0.60002 0.83796 0.0
O148 O 0.30012 0.70218 0.83724 0.0
O149 O 0.23472 0.68855 0.8314 0.0
O150 O 0.2816 0.66748 0.80442 0.0
O151 O 0.27825 0.64055 0.84208 0.0
H152 H 0.27998 0.74196 0.85938 0.0
H153 H 0.35435 0.71536 0.82933 0.0
H154 H 0.30824 0.78371 0.87079 0.0
H155 H 0.38118 0.75778 0.84113 0.0
H156 H 0.17887 0.63296 0.86744 0.0
H157 H 0.18482 0.71445 0.8253 0.0
H158 H 0.22632 0.646 0.85456 0.0
H159 H 0.138 0.70034 0.83885 0.0
H160 H 0.26706 0.81024 0.81526 0.0
H161 H 0.26402 0.76588 0.76515 0.0
H162 H 0.31048 0.6873 0.90703 0.0
H163 H 0.22181 0.7168 0.90439 0.0
H164 H 0.28118 0.64256 0.7731 0.0
H165 H 0.32219 0.7083 0.80472 0.0
H166 H 0.31391 0.65558 0.74847 0.0
H167 H 0.35432 0.72005 0.77963 0.0
H168 H 0.28683 0.60002 0.81782 0.0
H169 H 0.30408 0.624 0.87153 0.0
H170 H 0.3151 0.55483 0.82235 0.0
H171 H 0.33252 0.57862 0.87501 0.0
H172 H 0.40019 0.63782 0.85045 0.0
H173 H 0.37694 0.5985 0.80071 0.0
H174 H 0.21689 0.59104 0.77376 0.0
H175 H 0.21264 0.55322 0.82575 0.0
Li176 Li 0.85675 0.76321 0.32592 0.0
Li177 Li 0.82307 0.77649 0.34845 0.0
Li178 Li 0.80727 0.77472 0.31667 0.0
Li179 Li 0.84113 0.81248 0.32845 0.0
C180 C 0.82698 0.71381 0.32885 0.0
N181 N 0.84044 0.65637 0.322 0.0
C182 C 0.8446 0.69824 0.34043 0.0
C183 C 0.81607 0.70017 0.31383 0.0
C184 C 0.85122 0.66923 0.33671 0.0
C185 C 0.82313 0.67109 0.31059 0.0
C186 C 0.87369 0.78595 0.36233 0.0
C187 C 0.8776 0.80134 0.39258 0.0
N188 N 0.89366 0.7773 0.3962 0.0
C189 C 0.89016 0.76132 0.36639 0.0
C190 C 0.86732 0.80611 0.37555 0.0
C191 C 0.90011 0.75739 0.38357 0.0
C192 C 0.91581 0.76023 0.32322 0.0
N193 N 0.89218 0.74388 0.31928 0.0
C194 C 0.92166 0.71065 0.30292 0.0
C195 C 0.8946 0.71938 0.30933 0.0
C196 C 0.94635 0.72752 0.30659 0.0
C197 C 0.94307 0.75243 0.31707 0.0
H198 H 0.9133 0.7803 0.33046 0.0
H199 H 0.87554 0.70735 0.30562 0.0
C200 C 0.78897 0.78945 0.37802 0.0
N201 N 0.80943 0.77072 0.37199 0.0
C202 C 0.78074 0.78906 0.39566 0.0
C203 C 0.81374 0.74912 0.40049 0.0
C204 C 0.82113 0.75011 0.38267 0.0
C205 C 0.79375 0.76924 0.4073 0.0
H206 H 0.77945 0.80518 0.36921 0.0
H207 H 0.83711 0.73522 0.37756 0.0
C208 C 0.86046 0.78198 0.29293 0.0
N209 N 0.89686 0.76519 0.266 0.0
C210 C 0.88656 0.79664 0.2902 0.0
C211 C 0.85271 0.75898 0.28187 0.0
C212 C 0.90472 0.78774 0.27655 0.0
C213 C 0.87144 0.7508 0.26834 0.0
C214 C 0.79136 0.83401 0.33405 0.0
C215 C 0.77643 0.84412 0.3193 0.0
C216 C 0.79844 0.85337 0.34756 0.0
C217 C 0.7689 0.87351 0.31827 0.0
C218 C 0.79056 0.8826 0.34603 0.0
N219 N 0.77608 0.89198 0.33153 0.0
C220 C 0.75215 0.75374 0.30803 0.0
C221 C 0.77447 0.78137 0.28547 0.0
C222 C 0.72654 0.75208 0.29836 0.0
N223 N 0.77526 0.76851 0.30155 0.0
C224 C 0.74921 0.78044 0.2754 0.0
C225 C 0.72464 0.76604 0.28195 0.0
H226 H 0.75334 0.74411 0.32099 0.0
H227 H 0.79308 0.79334 0.28079 0.0
C228 C 0.87189 0.8628 0.33755 0.0
N229 N 0.85513 0.85074 0.32485 0.0
C230 C 0.88748 0.88809 0.33414 0.0
C231 C 0.86756 0.88866 0.30474 0.0
C232 C 0.85213 0.86339 0.3088 0.0
C233 C 0.88612 0.90086 0.31738 0.0
H234 H 0.87448 0.85192 0.35 0.0
H235 H 0.83899 0.85298 0.29886 0.0
O236 O 0.81997 0.74211 0.33235 0.0
O237 O 0.86355 0.79013 0.34559 0.0
O238 O 0.84286 0.7897 0.30659 0.0
O239 O 0.79964 0.80547 0.33508 0.0
H240 H 0.85324 0.7085 0.3521 0.0
H241 H 0.80235 0.7119 0.30475 0.0
H242 H 0.86495 0.65694 0.34551 0.0
H243 H 0.81491 0.66026 0.299 0.0
H244 H 0.87265 0.81667 0.40294 0.0
H245 H 0.89493 0.74518 0.35648 0.0
H246 H 0.85409 0.82496 0.37282 0.0
H247 H 0.91281 0.7384 0.38688 0.0
H248 H 0.92309 0.6913 0.29485 0.0
H249 H 0.96114 0.76669 0.31984 0.0
H250 H 0.76464 0.80445 0.40017 0.0
H251 H 0.82448 0.73353 0.40893 0.0
H252 H 0.89292 0.81438 0.29873 0.0
H253 H 0.83264 0.74734 0.28388 0.0
H254 H 0.92512 0.79869 0.27438 0.0
H255 H 0.86584 0.7329 0.25975 0.0
H256 H 0.77083 0.8295 0.30871 0.0
H257 H 0.81027 0.846 0.35899 0.0
H258 H 0.75741 0.88164 0.3069 0.0
H259 H 0.79606 0.89785 0.35633 0.0
H260 H 0.70804 0.74107 0.30401 0.0
H261 H 0.74874 0.79128 0.26276 0.0
H262 H 0.9019 0.89642 0.34416 0.0
H263 H 0.86585 0.89791 0.29169 0.0
Li264 Li 0.74367 0.34554 0.82038 0.0
Li265 Li 0.69402 0.33669 0.82763 0.0
Li266 Li 0.73089 0.31929 0.84745 0.0
Li267 Li 0.72268 0.29563 0.81812 0.0
C268 C 0.71883 0.38928 0.84023 0.0
N269 N 0.71297 0.449 0.83786 0.0
C270 C 0.70763 0.40194 0.82497 0.0
C271 C 0.72706 0.40702 0.85428 0.0
C272 C 0.70483 0.43215 0.82402 0.0
C273 C 0.72392 0.43717 0.85283 0.0
C274 C 0.69493 0.33238 0.79024 0.0
C275 C 0.66026 0.31009 0.77071 0.0
N276 N 0.65868 0.33526 0.76136 0.0
C277 C 0.69305 0.358 0.78036 0.0
C278 C 0.67846 0.3082 0.78532 0.0
C279 C 0.67455 0.35903 0.76585 0.0
C280 C 0.7667 0.37758 0.79219 0.0
N281 N 0.76798 0.37445 0.80993 0.0
C282 C 0.79037 0.42106 0.81289 0.0
C283 C 0.78072 0.39496 0.82023 0.0
C284 C 0.78672 0.42616 0.7948 0.0
C285 C 0.77588 0.40343 0.7843 0.0
H286 H 0.75651 0.36092 0.7843 0.0
H287 H 0.78134 0.39213 0.83433 0.0
C288 C 0.65079 0.36817 0.84423 0.0
N289 N 0.6567 0.3551 0.8286 0.0
C290 C 0.62688 0.3864 0.84596 0.0
C291 C 0.61446 0.37619 0.81575 0.0
C292 C 0.6385 0.35792 0.81466 0.0
C293 C 0.60889 0.39144 0.83141 0.0
H294 H 0.6654 0.36534 0.8552 0.0
H295 H 0.64298 0.347 0.80247 0.0
C296 C 0.78825 0.3129 0.83498 0.0
N297 N 0.84402 0.32289 0.84653 0.0
C298 C 0.81115 0.29639 0.82834 0.0
C299 C 0.7937 0.33447 0.8475 0.0
C300 C 0.8392 0.30177 0.83434 0.0
C301 C 0.82204 0.3392 0.85317 0.0
C302 C 0.66873 0.29368 0.84388 0.0
C303 C 0.6601 0.30093 0.86094 0.0
C304 C 0.64837 0.28295 0.83195 0.0
C305 C 0.6311 0.29771 0.8657 0.0
C306 C 0.61958 0.28006 0.83722 0.0
N307 N 0.6116 0.28747 0.85384 0.0
C308 C 0.72858 0.33215 0.88321 0.0
C309 C 0.75316 0.28809 0.87693 0.0
C310 C 0.73129 0.3273 0.90122 0.0
N311 N 0.73917 0.31252 0.87153 0.0
C312 C 0.75643 0.28237 0.89488 0.0
C313 C 0.74508 0.30196 0.90731 0.0
H314 H 0.71706 0.35107 0.87851 0.0
H315 H 0.7612 0.27279 0.86729 0.0
C316 C 0.73417 0.25655 0.78984 0.0
N317 N 0.72288 0.25921 0.80626 0.0
C318 C 0.73244 0.22998 0.78092 0.0
C319 C 0.70805 0.20941 0.80613 0.0
C320 C 0.71019 0.23632 0.81453 0.0
C321 C 0.71908 0.20598 0.78904 0.0
H322 H 0.74406 0.27519 0.78358 0.0
H323 H 0.7013 0.23912 0.82757 0.0
O324 O 0.72241 0.35976 0.84131 0.0
O325 O 0.71325 0.33084 0.80438 0.0
O326 O 0.7607 0.30785 0.82919 0.0
O327 O 0.69689 0.29736 0.83885 0.0
H328 H 0.70127 0.38857 0.81398 0.0
H329 H 0.73604 0.39762 0.86613 0.0
H330 H 0.69625 0.4422 0.81227 0.0
H331 H 0.73027 0.45116 0.8636 0.0
H332 H 0.64735 0.29155 0.76682 0.0
H333 H 0.70561 0.37698 0.78383 0.0
H334 H 0.67948 0.28821 0.79272 0.0
H335 H 0.67284 0.37874 0.75815 0.0
H336 H 0.79918 0.43766 0.82146 0.0
H337 H 0.77247 0.40628 0.77033 0.0
H338 H 0.62305 0.39705 0.85844 0.0
H339 H 0.60128 0.37939 0.80415 0.0
H340 H 0.80726 0.2796 0.81864 0.0
H341 H 0.77629 0.34752 0.85278 0.0
H342 H 0.85714 0.28916 0.82932 0.0
H343 H 0.82657 0.35585 0.86284 0.0
H344 H 0.67555 0.30922 0.87035 0.0
H345 H 0.65469 0.27703 0.81876 0.0
H346 H 0.62409 0.30343 0.87882 0.0
H347 H 0.60357 0.27193 0.82809 0.0
H348 H 0.72169 0.34273 0.91026 0.0
H349 H 0.76743 0.26272 0.89898 0.0
H350 H 0.74152 0.22824 0.76784 0.0
H351 H 0.69724 0.19167 0.81282 0.0
Li352 Li 0.66236 0.31371 0.17125 0.0
Li353 Li 0.69437 0.27524 0.18407 0.0
Li354 Li 0.67937 0.27596 0.15211 0.0
Li355 Li 0.64469 0.26515 0.17452 0.0
C356 C 0.71289 0.33301 0.16528 0.0
N357 N 0.73016 0.39058 0.16593 0.0
C358 C 0.72882 0.34371 0.17949 0.0
C359 C 0.70589 0.35157 0.15135 0.0
C360 C 0.73733 0.37288 0.17958 0.0
C361 C 0.71476 0.3806 0.15194 0.0
C362 C 0.64122 0.28619 0.20722 0.0
C363 C 0.62898 0.25763 0.23274 0.0
N364 N 0.60412 0.27317 0.23456 0.0
C365 C 0.6157 0.30206 0.20943 0.0
C366 C 0.64806 0.26391 0.21901 0.0
C367 C 0.59716 0.29506 0.2233 0.0
C368 C 0.63275 0.36471 0.16179 0.0
N369 N 0.6497 0.35252 0.17436 0.0
C370 C 0.63818 0.39059 0.19454 0.0
C371 C 0.65335 0.36525 0.19034 0.0
C372 C 0.61923 0.40279 0.18213 0.0
C373 C 0.61743 0.39013 0.16536 0.0
H374 H 0.62965 0.35373 0.1494 0.0
H375 H 0.6666 0.3547 0.20017 0.0
C376 C 0.74754 0.2513 0.19516 0.0
N377 N 0.72541 0.26909 0.19991 0.0
C378 C 0.77268 0.25013 0.20534 0.0
C379 C 0.75145 0.2852 0.22522 0.0
C380 C 0.72659 0.28538 0.2148 0.0
C381 C 0.77511 0.26783 0.22033 0.0
H382 H 0.7461 0.23891 0.1831 0.0
H383 H 0.70877 0.29962 0.2181 0.0
C384 C 0.62917 0.28685 0.1377 0.0
N385 N 0.60891 0.27743 0.10397 0.0
C386 C 0.61203 0.26254 0.134 0.0
C387 C 0.63598 0.30637 0.1242 0.0
C388 C 0.60196 0.25819 0.11688 0.0
C389 C 0.62558 0.3012 0.10725 0.0
C390 C 0.67223 0.21456 0.17284 0.0
C391 C 0.65425 0.19928 0.16132 0.0
C392 C 0.68187 0.20121 0.18828 0.0
C393 C 0.64599 0.17088 0.16552 0.0
C394 C 0.6732 0.17274 0.19198 0.0
N395 N 0.65556 0.1583 0.18063 0.0
C396 C 0.71453 0.28635 0.1227 0.0
C397 C 0.68066 0.24846 0.11815 0.0
C398 C 0.7228 0.2854 0.10509 0.0
N399 N 0.69316 0.26871 0.12875 0.0
C400 C 0.68808 0.24693 0.10035 0.0
C401 C 0.7089 0.26614 0.0935 0.0
H402 H 0.72467 0.30177 0.13145 0.0
H403 H 0.66399 0.23438 0.1233 0.0
C404 C 0.5857 0.26539 0.17708 0.0
N405 N 0.60836 0.24794 0.18142 0.0
C406 C 0.55834 0.26033 0.18401 0.0
C407 C 0.57739 0.21853 0.19938 0.0
C408 C 0.60468 0.22458 0.19221 0.0
C409 C 0.55407 0.23713 0.19566 0.0
H410 H 0.58922 0.28444 0.16904 0.0
H411 H 0.62305 0.21175 0.19621 0.0
O412 O 0.70369 0.3047 0.16515 0.0
O413 O 0.65917 0.29204 0.19339 0.0
O414 O 0.63943 0.29141 0.15437 0.0
O415 O 0.68082 0.24224 0.16889 0.0
H416 H 0.73451 0.32971 0.19035 0.0
H417 H 0.6934 0.34373 0.1403 0.0
H418 H 0.7496 0.38146 0.19052 0.0
H419 H 0.70932 0.39523 0.1413 0.0
H420 H 0.63387 0.24031 0.2419 0.0
H421 H 0.61004 0.31927 0.20034 0.0
H422 H 0.66769 0.25136 0.21743 0.0
H423 H 0.57718 0.30694 0.22506 0.0
H424 H 0.64021 0.39978 0.20759 0.0
H425 H 0.60271 0.39853 0.15551 0.0
H426 H 0.79055 0.23666 0.20104 0.0
H427 H 0.75246 0.29901 0.23675 0.0
H428 H 0.60682 0.24695 0.14415 0.0
H429 H 0.64957 0.32504 0.1267 0.0
H430 H 0.58876 0.23943 0.11384 0.0
H431 H 0.63087 0.31601 0.09668 0.0
H432 H 0.64663 0.20929 0.14933 0.0
H433 H 0.69582 0.21273 0.19733 0.0
H434 H 0.63197 0.15883 0.15677 0.0
H435 H 0.68042 0.16215 0.2039 0.0
H436 H 0.73954 0.30005 0.10053 0.0
H437 H 0.67669 0.23177 0.09194 0.0
H438 H 0.54088 0.27513 0.18082 0.0
H439 H 0.57495 0.20066 0.20854 0.0
Li440 Li 0.22472 0.20303 0.68023 0.0
Li441 Li 0.23084 0.17881 0.65092 0.0
Li442 Li 0.19329 0.16378 0.67103 0.0
Li443 Li 0.24264 0.15182 0.67788 0.0
C444 C 0.17004 0.20937 0.65624 0.0
N445 N 0.11259 0.2214 0.64941 0.0
C446 C 0.15815 0.20274 0.63983 0.0
C447 C 0.15282 0.22245 0.66909 0.0
C448 C 0.12903 0.20889 0.63666 0.0
C449 C 0.1238 0.22827 0.66541 0.0
C450 C 0.2886 0.18137 0.66266 0.0
C451 C 0.31978 0.15126 0.64491 0.0
N452 N 0.34292 0.16737 0.65013 0.0
C453 C 0.31266 0.19761 0.66785 0.0
C454 C 0.29214 0.15799 0.6511 0.0
C455 C 0.33995 0.19019 0.66137 0.0
C456 C 0.23547 0.24039 0.70941 0.0
N457 N 0.2271 0.23912 0.69229 0.0
C458 C 0.21783 0.29024 0.69194 0.0
C459 C 0.21874 0.26336 0.68343 0.0
C460 C 0.22542 0.29222 0.7098 0.0
C461 C 0.23466 0.26683 0.71849 0.0
H462 H 0.24194 0.22069 0.71613 0.0
H463 H 0.21233 0.26169 0.66979 0.0
C464 C 0.22294 0.16943 0.61514 0.0
N465 N 0.2391 0.18486 0.62676 0.0
C466 C 0.22566 0.17436 0.59713 0.0
C467 C 0.26257 0.21017 0.60332 0.0
C468 C 0.25882 0.2048 0.62128 0.0
C469 C 0.24553 0.19516 0.59094 0.0
H470 H 0.20722 0.15391 0.61994 0.0
H471 H 0.27132 0.21685 0.63084 0.0
C472 C 0.19708 0.16635 0.70884 0.0
N473 N 0.16444 0.16226 0.73921 0.0
C474 C 0.19632 0.14031 0.71836 0.0
C475 C 0.18139 0.19035 0.71489 0.0
C476 C 0.17963 0.13866 0.73364 0.0
C477 C 0.165 0.18784 0.73024 0.0
C478 C 0.21342 0.11002 0.65748 0.0
C479 C 0.20277 0.09711 0.6728 0.0
C480 C 0.21735 0.09312 0.6424 0.0
C481 C 0.19626 0.06745 0.6728 0.0
C482 C 0.21061 0.0635 0.64293 0.0
N483 N 0.20029 0.05138 0.65799 0.0
C484 C 0.14745 0.13503 0.65514 0.0
C485 C 0.13802 0.14457 0.68518 0.0
C486 C 0.12307 0.11729 0.65402 0.0
N487 N 0.15505 0.1474 0.67071 0.0
C488 C 0.1135 0.12688 0.68469 0.0
C489 C 0.10632 0.11215 0.6691 0.0
H490 H 0.16121 0.13775 0.64376 0.0
H491 H 0.14394 0.15481 0.69736 0.0
C492 C 0.26849 0.12292 0.70631 0.0
N493 N 0.26568 0.12223 0.68854 0.0
C494 C 0.27742 0.09812 0.71541 0.0
C495 C 0.28289 0.07323 0.68763 0.0
C496 C 0.27402 0.09859 0.67907 0.0
C497 C 0.2834 0.07237 0.70611 0.0
H498 H 0.26182 0.14208 0.71351 0.0
H499 H 0.27172 0.09857 0.66493 0.0
O500 O 0.19833 0.20288 0.65975 0.0
O501 O 0.26178 0.18839 0.66896 0.0
O502 O 0.2136 0.16849 0.69394 0.0
O503 O 0.21988 0.13908 0.65713 0.0
H504 H 0.17117 0.19272 0.62971 0.0
H505 H 0.16173 0.22805 0.68177 0.0
H506 H 0.1195 0.20368 0.62406 0.0
H507 H 0.11019 0.23827 0.67528 0.0
H508 H 0.32283 0.13324 0.63595 0.0
H509 H 0.31026 0.21577 0.67681 0.0
H510 H 0.2738 0.1452 0.64689 0.0
H511 H 0.35878 0.20258 0.66527 0.0
H512 H 0.21117 0.30926 0.68457 0.0
H513 H 0.24042 0.26716 0.73228 0.0
H514 H 0.21159 0.16263 0.58824 0.0
H515 H 0.27847 0.22606 0.59922 0.0
H516 H 0.20843 0.12151 0.71406 0.0
H517 H 0.18166 0.21067 0.70779 0.0
H518 H 0.17879 0.11862 0.74108 0.0
H519 H 0.15269 0.20624 0.73501 0.0
H520 H 0.19947 0.10992 0.68451 0.0
H521 H 0.22562 0.10279 0.63044 0.0
H522 H 0.18799 0.0572 0.68458 0.0
H523 H 0.21358 0.05014 0.63136 0.0
H524 H 0.11799 0.10693 0.64161 0.0
H525 H 0.10128 0.12356 0.69666 0.0
H526 H 0.27817 0.09868 0.72964 0.0
H527 H 0.28717 0.05396 0.67987 0.0
Li528 Li 0.30555 0.72139 0.18615 0.0
Li529 Li 0.33841 0.68382 0.17305 0.0
Li530 Li 0.3554 0.73247 0.17723 0.0
Li531 Li 0.32144 0.72212 0.15437 0.0
C532 C 0.35863 0.70977 0.20952 0.0
N533 N 0.39557 0.72141 0.23715 0.0
C534 C 0.38452 0.69433 0.21121 0.0
C535 C 0.35135 0.7309 0.22195 0.0
C536 C 0.40297 0.70063 0.22524 0.0
C537 C 0.37035 0.73649 0.23583 0.0
C538 C 0.28807 0.6642 0.16653 0.0
C539 C 0.2871 0.61679 0.15291 0.0
N540 N 0.27105 0.60655 0.16656 0.0
C541 C 0.27147 0.65322 0.18037 0.0
C542 C 0.29586 0.64588 0.15264 0.0
C543 C 0.26311 0.62401 0.18016 0.0
C544 C 0.25191 0.74447 0.19708 0.0
N545 N 0.27404 0.72666 0.2018 0.0
C546 C 0.24762 0.7098 0.2268 0.0
C547 C 0.27265 0.70995 0.21652 0.0
C548 C 0.22401 0.72728 0.22195 0.0
C549 C 0.22662 0.74533 0.20713 0.0
H550 H 0.25352 0.75721 0.18516 0.0
H551 H 0.29048 0.69571 0.2198 0.0
C552 C 0.36893 0.63361 0.16313 0.0
N553 N 0.35148 0.64504 0.17572 0.0
C554 C 0.38429 0.60811 0.1664 0.0
C555 C 0.36265 0.60605 0.19532 0.0
C556 C 0.34744 0.6315 0.19141 0.0
C557 C 0.38201 0.59457 0.18289 0.0
H558 H 0.37234 0.64522 0.15099 0.0
H559 H 0.3338 0.64145 0.20128 0.0
C560 C 0.3273 0.78269 0.17626 0.0
N561 N 0.34316 0.83859 0.1855 0.0
C562 C 0.34552 0.79883 0.16532 0.0
C563 C 0.31703 0.795 0.19187 0.0
C564 C 0.35336 0.82703 0.17024 0.0
C565 C 0.3253 0.82331 0.1963 0.0
C566 C 0.37181 0.71238 0.14016 0.0
C567 C 0.38843 0.73718 0.13677 0.0
C568 C 0.36545 0.69318 0.12642 0.0
C569 C 0.39846 0.7423 0.11972 0.0
C570 C 0.3758 0.69913 0.10954 0.0
N571 N 0.39197 0.72334 0.10657 0.0
C572 C 0.4146 0.73388 0.1798 0.0
C573 C 0.39413 0.77245 0.19629 0.0
C574 C 0.44179 0.73939 0.18688 0.0
N575 N 0.3913 0.75002 0.1847 0.0
C576 C 0.42117 0.77884 0.20368 0.0
C577 C 0.44522 0.7616 0.19932 0.0
H578 H 0.4118 0.71548 0.17113 0.0
H579 H 0.37529 0.78417 0.20071 0.0
C580 C 0.2883 0.71182 0.12405 0.0
N581 N 0.30836 0.73016 0.13095 0.0
C582 C 0.28109 0.71336 0.10628 0.0
C583 C 0.31405 0.7538 0.10314 0.0
C584 C 0.32045 0.75161 0.12106 0.0
C585 C 0.2947 0.73395 0.09542 0.0
H586 H 0.27847 0.69538 0.13223 0.0
H587 H 0.33612 0.76614 0.12687 0.0
O588 O 0.34075 0.70462 0.19555 0.0
O589 O 0.2971 0.69257 0.16671 0.0
O590 O 0.31914 0.75518 0.1716 0.0
O591 O 0.36154 0.7071 0.15675 0.0
H592 H 0.39052 0.67802 0.20161 0.0
H593 H 0.33144 0.74311 0.22076 0.0
H594 H 0.42324 0.6891 0.22662 0.0
H595 H 0.36511 0.75293 0.2455 0.0
H596 H 0.29315 0.60234 0.14231 0.0
H597 H 0.26513 0.66704 0.19118 0.0
H598 H 0.30887 0.65392 0.14188 0.0
H599 H 0.25032 0.61523 0.19082 0.0
H600 H 0.24649 0.69572 0.2382 0.0
H601 H 0.20879 0.75889 0.20288 0.0
H602 H 0.39934 0.60029 0.15657 0.0
H603 H 0.36027 0.59618 0.20817 0.0
H604 H 0.35365 0.78962 0.15321 0.0
H605 H 0.30294 0.7828 0.2005 0.0
H606 H 0.36755 0.83973 0.16194 0.0
H607 H 0.31758 0.83309 0.20835 0.0
H608 H 0.39326 0.75256 0.1471 0.0
H609 H 0.35222 0.67416 0.12865 0.0
H610 H 0.41126 0.76145 0.11692 0.0
H611 H 0.37084 0.68456 0.09878 0.0
H612 H 0.4598 0.72568 0.1831 0.0
H613 H 0.42289 0.7959 0.21344 0.0
H614 H 0.26545 0.69812 0.10103 0.0
H615 H 0.32518 0.76996 0.09531 0.0
Li616 Li 0.75076 0.84677 0.67813 0.0
Li617 Li 0.80259 0.83489 0.67349 0.0
Li618 Li 0.7662 0.81297 0.65462 0.0
Li619 Li 0.7717 0.79672 0.68372 0.0
C620 C 0.78215 0.86444 0.64127 0.0
N621 N 0.79537 0.88159 0.60738 0.0
C622 C 0.80823 0.85589 0.63353 0.0
C623 C 0.76273 0.88159 0.63172 0.0
C624 C 0.81454 0.86483 0.61641 0.0
C625 C 0.76984 0.89007 0.61463 0.0
C626 C 0.79849 0.84878 0.70687 0.0
C627 C 0.84371 0.85207 0.72261 0.0
N628 N 0.83654 0.87934 0.728 0.0
C629 C 0.79155 0.87681 0.71265 0.0
C630 C 0.82474 0.83626 0.71197 0.0
C631 C 0.81107 0.8919 0.7233 0.0
C632 C 0.71132 0.87736 0.70055 0.0
N633 N 0.72809 0.87882 0.68589 0.0
C634 C 0.72412 0.93062 0.68529 0.0
C635 C 0.73414 0.90467 0.67805 0.0
C636 C 0.70808 0.93009 0.70095 0.0
C637 C 0.70102 0.90294 0.70837 0.0
H638 H 0.70752 0.85655 0.70678 0.0
H639 H 0.74847 0.90535 0.66686 0.0
C640 C 0.86492 0.84452 0.67295 0.0
N641 N 0.8379 0.85601 0.67415 0.0
C642 C 0.88912 0.86277 0.67368 0.0
C643 C 0.85702 0.90404 0.67653 0.0
C644 C 0.83362 0.88512 0.67573 0.0
C645 C 0.88526 0.89298 0.67559 0.0
H646 H 0.8677 0.82133 0.67138 0.0
H647 H 0.81183 0.89362 0.67637 0.0
C648 C 0.71094 0.80258 0.66144 0.0
N649 N 0.66416 0.79244 0.63968 0.0
C650 C 0.70844 0.77612 0.65249 0.0
C651 C 0.68954 0.8238 0.65941 0.0
C652 C 0.68467 0.77144 0.64152 0.0
C653 C 0.66608 0.81827 0.64833 0.0
C654 C 0.81113 0.76722 0.668 0.0
C655 C 0.79709 0.74311 0.66071 0.0
C656 C 0.83461 0.76294 0.67927 0.0
C657 C 0.80672 0.71514 0.66489 0.0
C658 C 0.84356 0.73462 0.68315 0.0
N659 N 0.82953 0.71151 0.67595 0.0
C660 C 0.77992 0.78638 0.62232 0.0
C661 C 0.73791 0.81577 0.62093 0.0
C662 C 0.77838 0.78085 0.60432 0.0
N663 N 0.75976 0.80339 0.63029 0.0
C664 C 0.73568 0.81102 0.60282 0.0
C665 C 0.75619 0.79344 0.5943 0.0
H666 H 0.79792 0.77796 0.62979 0.0
H667 H 0.72273 0.83008 0.62738 0.0
C668 C 0.78627 0.76063 0.71313 0.0
N669 N 0.76939 0.76294 0.69855 0.0
C670 C 0.78791 0.73431 0.72229 0.0
C671 C 0.75377 0.71363 0.70175 0.0
C672 C 0.75259 0.7404 0.69311 0.0
C673 C 0.77209 0.71016 0.71632 0.0
H674 H 0.79929 0.77884 0.71728 0.0
H675 H 0.73926 0.74278 0.68156 0.0
O676 O 0.77512 0.85499 0.65779 0.0
O677 O 0.77995 0.8339 0.69606 0.0
O678 O 0.73399 0.80763 0.67228 0.0
O679 O 0.80153 0.79479 0.66442 0.0
H680 H 0.82322 0.84205 0.64054 0.0
H681 H 0.74215 0.88785 0.63733 0.0
H682 H 0.83458 0.85827 0.61024 0.0
H683 H 0.75497 0.90324 0.60707 0.0
H684 H 0.8642 0.84272 0.72649 0.0
H685 H 0.77145 0.88699 0.70889 0.0
H686 H 0.83077 0.81484 0.70744 0.0
H687 H 0.80599 0.91365 0.72778 0.0
H688 H 0.73065 0.95099 0.67932 0.0
H689 H 0.68868 0.90158 0.72044 0.0
H690 H 0.91055 0.85338 0.67289 0.0
H691 H 0.85298 0.92719 0.67758 0.0
H692 H 0.72492 0.75956 0.65374 0.0
H693 H 0.69107 0.84436 0.66626 0.0
H694 H 0.68258 0.75117 0.63441 0.0
H695 H 0.64941 0.83453 0.64659 0.0
H696 H 0.77854 0.74591 0.65222 0.0
H697 H 0.8456 0.78123 0.68517 0.0
H698 H 0.79589 0.69631 0.65946 0.0
H699 H 0.86158 0.73102 0.69195 0.0
H700 H 0.79508 0.76781 0.59819 0.0
H701 H 0.71832 0.82127 0.59554 0.0
H702 H 0.80234 0.73252 0.73345 0.0
H703 H 0.7409 0.69567 0.69688 0.0
H704 H 0.08893 0.09266 0.28815 0.0
H705 H 0.05008 0.05784 0.28235 0.0
H706 H 0.06406 0.01867 0.33315 0.0
H707 H 0.10352 0.05281 0.33885 0.0
H708 H 0.0523 0.97824 0.30592 0.0
H709 H 0.97234 0.06872 0.30817 0.0
H710 H 0.00103 0.07244 0.29239 0.0
H711 H 0.00922 0.07304 0.31546 0.0
C712 C 0.0843 0.07612 0.29789 0.0
C713 C 0.09914 0.07562 0.31404 0.0
C714 C 0.06187 0.05648 0.29462 0.0
C715 C 0.05386 0.03615 0.30748 0.0
C716 C 0.0698 0.03439 0.32313 0.0
H717 H 0.9005 0.94847 0.33708 0.0
H718 H 0.94042 0.98227 0.33183 0.0
C719 C 0.09223 0.05397 0.3264 0.0
C720 C 0.02773 0.01796 0.30528 0.0
H721 H 0.95398 0.02145 0.30429 0.0
C722 C 0.0308 0.98762 0.30533 0.0
C723 C 0.99975 0.03041 0.30473 0.0
C724 C 0.99519 0.06292 0.30532 0.0
C725 C 0.00654 0.96928 0.30527 0.0
C726 C 0.97855 0.98173 0.30488 0.0
C727 C 0.9755 0.01207 0.30441 0.0
C728 C 0.95228 0.96365 0.30671 0.0
C729 C 0.01103 0.93681 0.30644 0.0
C730 C 0.94507 0.94278 0.294 0.0
C731 C 0.92235 0.92335 0.297 0.0
C732 C 0.90646 0.92459 0.31276 0.0
C733 C 0.91261 0.94675 0.32494 0.0
C734 C 0.93531 0.96613 0.32192 0.0
H735 H 0.03366 0.93112 0.30994 0.0
H736 H 0.99633 0.92711 0.31639 0.0
H737 H 0.00602 0.92676 0.29354 0.0
H738 H 0.95767 0.94086 0.28205 0.0
H739 H 0.91829 0.9064 0.28742 0.0
H740 H 0.42855 0.59728 0.79932 0.0
H741 H 0.46531 0.5592 0.801 0.0
H742 H 0.45012 0.55086 0.85672 0.0
H743 H 0.41224 0.58772 0.855 0.0
H744 H 0.51521 0.55435 0.81899 0.0
H745 H 0.43894 0.46811 0.84016 0.0
H746 H 0.42691 0.50312 0.83233 0.0
H747 H 0.43931 0.49896 0.85462 0.0
C748 C 0.43291 0.58725 0.81192 0.0
C749 C 0.41722 0.59538 0.82699 0.0
C750 C 0.45405 0.56561 0.81288 0.0
C751 C 0.45997 0.55175 0.82891 0.0
C752 C 0.44538 0.56077 0.84413 0.0
H753 H 0.61067 0.44403 0.84825 0.0
H754 H 0.57417 0.48223 0.84819 0.0
C755 C 0.42405 0.58222 0.84317 0.0
C756 C 0.48119 0.52764 0.82961 0.0
H757 H 0.48893 0.45615 0.84089 0.0
C758 C 0.50948 0.53286 0.82374 0.0
C759 C 0.47348 0.49946 0.8355 0.0
C760 C 0.44294 0.49193 0.84084 0.0
C761 C 0.53041 0.51077 0.82382 0.0
C762 C 0.52302 0.48294 0.83042 0.0
C763 C 0.49463 0.4776 0.83605 0.0
C764 C 0.54436 0.45896 0.83136 0.0
C765 C 0.56002 0.51734 0.81646 0.0
C766 C 0.53911 0.43258 0.82263 0.0
C767 C 0.55965 0.41029 0.82301 0.0
C768 C 0.58587 0.41399 0.83213 0.0
C769 C 0.59063 0.4402 0.84127 0.0
C770 C 0.56998 0.46233 0.84101 0.0
H771 H 0.55952 0.53628 0.80738 0.0
H772 H 0.57491 0.52273 0.82742 0.0
H773 H 0.56894 0.49832 0.80928 0.0
H774 H 0.51931 0.42943 0.81526 0.0
H775 H 0.55505 0.39024 0.81608 0.0
H776 H 0.60402 0.45094 0.16312 0.0
H777 H 0.56399 0.48427 0.16916 0.0
H778 H 0.54751 0.44026 0.21822 0.0
H779 H 0.58715 0.40649 0.21212 0.0
H780 H 0.4992 0.4444 0.19631 0.0
H781 H 0.55249 0.55162 0.20397 0.0
H782 H 0.56387 0.53239 0.18462 0.0
H783 H 0.57188 0.51764 0.20597 0.0
C784 C 0.5922 0.44872 0.17534 0.0
C785 C 0.59872 0.42613 0.18714 0.0
C786 C 0.56949 0.46789 0.17884 0.0
C787 C 0.55298 0.46485 0.19421 0.0
C788 C 0.56016 0.44306 0.20635 0.0
H789 H 0.41334 0.58934 0.2131 0.0
H790 H 0.45286 0.55528 0.21892 0.0
C791 C 0.58295 0.42395 0.2029 0.0
C792 C 0.52649 0.48241 0.19661 0.0
H793 H 0.50172 0.55227 0.19735 0.0
C794 C 0.49973 0.46798 0.19683 0.0
C795 C 0.52727 0.5131 0.19747 0.0
C796 C 0.55544 0.52962 0.19817 0.0
C797 C 0.47364 0.48354 0.19698 0.0
C798 C 0.47444 0.51427 0.1967 0.0
C799 C 0.50119 0.52867 0.19741 0.0
C800 C 0.448 0.53195 0.19441 0.0
C801 C 0.44547 0.467 0.19714 0.0
C802 C 0.43187 0.52969 0.17884 0.0
C803 C 0.40924 0.54903 0.1755 0.0
C804 C 0.40241 0.57099 0.18766 0.0
C805 C 0.41779 0.57236 0.2036 0.0
C806 C 0.44051 0.55309 0.20689 0.0
H807 H 0.44829 0.44472 0.20254 0.0
H808 H 0.42885 0.47858 0.20502 0.0
H809 H 0.43734 0.46494 0.18347 0.0
H810 H 0.43761 0.51382 0.16891 0.0
H811 H 0.39772 0.54744 0.16314 0.0
H812 H 0.0535 0.11415 0.68557 0.0
H813 H 0.01721 0.07547 0.68714 0.0
H814 H 0.06978 0.02153 0.65352 0.0
H815 H 0.10669 0.05939 0.65252 0.0
H816 H 0.98589 0.04892 0.66095 0.0
H817 H 0.05521 0.96823 0.69514 0.0
H818 H 0.06501 0.0061 0.69321 0.0
H819 H 0.07054 0.98167 0.67504 0.0
C820 C 0.05744 0.09397 0.67862 0.0
C821 C 0.08306 0.08986 0.66897 0.0
C822 C 0.03663 0.07196 0.67946 0.0
C823 C 0.0411 0.04544 0.67073 0.0
C824 C 0.06621 0.04159 0.66067 0.0
H825 H 0.93455 0.89166 0.65556 0.0
H826 H 0.97332 0.92806 0.65476 0.0
C827 C 0.08707 0.06348 0.65989 0.0
C828 C 0.01933 0.02191 0.67198 0.0
H829 H 0.00989 0.95115 0.68453 0.0
C830 C 0.99109 0.0276 0.66618 0.0
C831 C 0.02622 0.9941 0.67882 0.0
C832 C 0.05581 0.98717 0.68607 0.0
C833 C 0.96963 0.00607 0.66681 0.0
C834 C 0.97659 0.97829 0.67355 0.0
C835 C 0.00478 0.9725 0.67931 0.0
C836 C 0.95454 0.95518 0.675 0.0
C837 C 0.93972 0.01304 0.66008 0.0
C838 C 0.93179 0.95807 0.68702 0.0
C839 C 0.90984 0.93728 0.68763 0.0
C840 C 0.91022 0.91325 0.67617 0.0
C841 C 0.93373 0.90982 0.66462 0.0
C842 C 0.95578 0.93063 0.66407 0.0
H843 H 0.93939 0.03336 0.65217 0.0
H844 H 0.9313 0.9949 0.6519 0.0
H845 H 0.92487 0.01589 0.67141 0.0
H846 H 0.9308 0.97667 0.69575 0.0
H847 H 0.89236 0.94023 0.69693 0.0
H848 H 0.16904 0.23538 0.4336 0.0
H849 H 0.18026 0.2319 0.46492 0.0
H850 H 0.27084 0.2444 0.45352 0.0
H851 H 0.25971 0.24678 0.42203 0.0
H852 H 0.26483 0.20155 0.47544 0.0
H853 H 0.1987 0.2926 0.50035 0.0
H854 H 0.17676 0.2676 0.48816 0.0
H855 H 0.20528 0.28727 0.4772 0.0
C856 C 0.19128 0.23788 0.43783 0.0
C857 C 0.2135 0.24155 0.42544 0.0
C858 C 0.19768 0.23603 0.45574 0.0
C859 C 0.22635 0.23853 0.46167 0.0
C860 C 0.24855 0.24257 0.44929 0.0
H861 H 0.25508 0.24821 0.57525 0.0
H862 H 0.25515 0.25959 0.54393 0.0
C863 C 0.2422 0.24394 0.43133 0.0
C864 C 0.23327 0.23499 0.48064 0.0
H865 H 0.21279 0.25659 0.52172 0.0
C866 C 0.25373 0.2139 0.48555 0.0
C867 C 0.21931 0.25146 0.49389 0.0
C868 C 0.19905 0.27621 0.48961 0.0
C869 C 0.25971 0.20801 0.50329 0.0
C870 C 0.24405 0.22288 0.51653 0.0
C871 C 0.2245 0.24482 0.51162 0.0
C872 C 0.24676 0.21541 0.53548 0.0
C873 C 0.2829 0.18603 0.50759 0.0
C874 C 0.24227 0.18674 0.54124 0.0
C875 C 0.24295 0.18 0.55914 0.0
C876 C 0.24739 0.20192 0.57179 0.0
C877 C 0.2521 0.23062 0.56596 0.0
C878 C 0.25185 0.23725 0.54802 0.0
H879 H 0.29936 0.18488 0.49697 0.0
H880 H 0.294 0.19133 0.52013 0.0
H881 H 0.27294 0.16416 0.50879 0.0
H882 H 0.23755 0.16959 0.53191 0.0
H883 H 0.23963 0.1576 0.56304 0.0
H884 H 0.22604 0.69098 0.93373 0.0
H885 H 0.22973 0.70062 0.96532 0.0
H886 H 0.31267 0.74148 0.95724 0.0
H887 H 0.30926 0.73154 0.92573 0.0
H888 H 0.31476 0.70246 0.98327 0.0
H889 H 0.22031 0.77463 0.99343 0.0
H890 H 0.21087 0.74086 0.98308 0.0
H891 H 0.23419 0.76611 0.97186 0.0
C892 C 0.24483 0.70242 0.93868 0.0
C893 C 0.26741 0.71042 0.92728 0.0
C894 C 0.24687 0.70803 0.95671 0.0
C895 C 0.2713 0.72214 0.96363 0.0
C896 C 0.2936 0.73061 0.9522 0.0
H897 H 0.28994 0.78034 0.0727 0.0
H898 H 0.28495 0.77873 0.04062 0.0
C899 C 0.29168 0.72481 0.93422 0.0
C900 C 0.27463 0.72626 0.98288 0.0
H901 H 0.24204 0.75473 0.01935 0.0
C902 C 0.29895 0.7141 0.99113 0.0
C903 C 0.25423 0.74179 0.99311 0.0
C904 C 0.22859 0.75685 0.9849 0.0
C905 C 0.30308 0.71636 0.00934 0.0
C906 C 0.28195 0.7306 0.01968 0.0
C907 C 0.25803 0.74351 0.01141 0.0
C908 C 0.28412 0.73173 0.03911 0.0
C909 C 0.33017 0.70366 0.01731 0.0
C910 C 0.28477 0.70588 0.04889 0.0
C911 C 0.2879 0.7067 0.06713 0.0
C912 C 0.29007 0.73345 0.07605 0.0
C913 C 0.2887 0.75938 0.06624 0.0
C914 C 0.28565 0.75851 0.04793 0.0
H915 H 0.34766 0.70139 0.00738 0.0
H916 H 0.33824 0.71734 0.02829 0.0
H917 H 0.32532 0.68165 0.02254 0.0
H918 H 0.2831 0.68498 0.04239 0.0
H919 H 0.28926 0.68628 0.07418 0.0
H920 H 0.74772 0.83506 0.56917 0.0
H921 H 0.75095 0.82931 0.53721 0.0
H922 H 0.76774 0.73767 0.54372 0.0
H923 H 0.76425 0.74316 0.57569 0.0
H924 H 0.80248 0.80601 0.5197 0.0
H925 H 0.70277 0.7426 0.50531 0.0
H926 H 0.70688 0.76414 0.52503 0.0
H927 H 0.7249 0.7297 0.52314 0.0
C928 C 0.7515 0.81358 0.56378 0.0
C929 C 0.75567 0.78953 0.57493 0.0
C930 C 0.7535 0.81037 0.54554 0.0
C931 C 0.75933 0.78304 0.53814 0.0
C932 C 0.76286 0.75887 0.54919 0.0
H933 H 0.78825 0.7239 0.43071 0.0
H934 H 0.78048 0.72689 0.46251 0.0
C935 C 0.76107 0.76209 0.56743 0.0
C936 C 0.76368 0.78021 0.51894 0.0
H937 H 0.73541 0.74981 0.48176 0.0
C938 C 0.78778 0.79384 0.51137 0.0
C939 C 0.74463 0.76401 0.50821 0.0
C940 C 0.71819 0.74938 0.51574 0.0
C941 C 0.79352 0.79152 0.49331 0.0
C942 C 0.77416 0.77578 0.48247 0.0
C943 C 0.75016 0.76193 0.49009 0.0
C944 C 0.77827 0.7739 0.46316 0.0
C945 C 0.82062 0.80543 0.48612 0.0
C946 C 0.77911 0.79929 0.45294 0.0
C947 C 0.78392 0.7977 0.43485 0.0
C948 C 0.78757 0.77061 0.4265 0.0
C949 C 0.78598 0.74513 0.43672 0.0
C950 C 0.78132 0.74678 0.45488 0.0
H951 H 0.83706 0.80883 0.49657 0.0
H952 H 0.83036 0.79193 0.47556 0.0
H953 H 0.81515 0.82703 0.48052 0.0
H954 H 0.77622 0.82042 0.45899 0.0
H955 H 0.78536 0.81781 0.42749 0.0
H956 H 0.75483 0.34003 0.93441 0.0
H957 H 0.75103 0.33041 0.96593 0.0
H958 H 0.73395 0.23992 0.95529 0.0
H959 H 0.73705 0.24938 0.92368 0.0
H960 H 0.69876 0.3054 0.98173 0.0
H961 H 0.79794 0.24011 0.99461 0.0
H962 H 0.79464 0.26396 0.97582 0.0
H963 H 0.77609 0.2297 0.97606 0.0
C964 C 0.75035 0.31804 0.93874 0.0
C965 C 0.74608 0.29551 0.92648 0.0
C966 C 0.74836 0.31257 0.95676 0.0
C967 C 0.7424 0.28445 0.9629 0.0
C968 C 0.73901 0.26169 0.95079 0.0
H969 H 0.71267 0.22081 0.06991 0.0
H970 H 0.71999 0.22391 0.03804 0.0
C971 C 0.74087 0.26715 0.93273 0.0
C972 C 0.73754 0.27952 0.9819 0.0
H973 H 0.76574 0.24681 0.01838 0.0
C974 C 0.71339 0.2926 0.98976 0.0
C975 C 0.75648 0.2625 0.99223 0.0
C976 C 0.78289 0.24833 0.98436 0.0
C977 C 0.7077 0.28925 0.00775 0.0
C978 C 0.72712 0.27298 0.01825 0.0
C979 C 0.75097 0.25936 0.01031 0.0
C980 C 0.7235 0.27085 0.03757 0.0
C981 C 0.68073 0.30291 0.01529 0.0
C982 C 0.72357 0.29613 0.04789 0.0
C983 C 0.7191 0.29448 0.066 0.0
C984 C 0.71485 0.26743 0.07428 0.0
C985 C 0.7155 0.24201 0.06395 0.0
C986 C 0.71987 0.24372 0.04576 0.0
H987 H 0.66415 0.30674 0.00497 0.0
H988 H 0.67113 0.28901 0.02572 0.0
H989 H 0.68632 0.32428 0.02117 0.0
H990 H 0.72687 0.31725 0.04189 0.0
H991 H 0.71837 0.31455 0.07344 0.0
H992 H 0.5251 0.27935 0.2132 0.0
H993 H 0.47784 0.27615 0.22736 0.0
H994 H 0.47191 0.18562 0.21271 0.0
H995 H 0.51987 0.18863 0.19888 0.0
H996 H 0.42683 0.2647 0.21288 0.0
H997 H 0.4504 0.18179 0.26395 0.0
H998 H 0.47851 0.19922 0.25133 0.0
H999 H 0.45791 0.16987 0.24195 0.0
C1000 C 0.51376 0.25872 0.21308 0.0
C1001 C 0.52602 0.23425 0.2049 0.0
C1002 C 0.48677 0.25691 0.22118 0.0
C1003 C 0.47135 0.23061 0.22124 0.0
C1004 C 0.48363 0.206 0.21317 0.0
H1005 H 0.28592 0.22972 0.2458 0.0
H1006 H 0.33237 0.22649 0.23063 0.0
C1007 C 0.51093 0.20773 0.20521 0.0
C1008 C 0.44205 0.22965 0.22925 0.0
H1009 H 0.40162 0.19676 0.26114 0.0
C1010 C 0.42131 0.24981 0.22343 0.0
C1011 C 0.43494 0.21042 0.24312 0.0
C1012 C 0.45666 0.18928 0.2506 0.0
C1013 C 0.39385 0.25158 0.23122 0.0
C1014 C 0.38655 0.23201 0.24489 0.0
C1015 C 0.40716 0.21161 0.25058 0.0
C1016 C 0.35817 0.23321 0.25402 0.0
C1017 C 0.37338 0.27512 0.22516 0.0
C1018 C 0.35716 0.23714 0.2723 0.0
C1019 C 0.33066 0.23833 0.28108 0.0
C1020 C 0.30446 0.23574 0.27178 0.0
C1021 C 0.30557 0.23165 0.25344 0.0
C1022 C 0.33215 0.23016 0.24469 0.0
H1023 H 0.38498 0.29295 0.21826 0.0
H1024 H 0.35755 0.26566 0.2158 0.0
H1025 H 0.36129 0.28458 0.23639 0.0
H1026 H 0.37694 0.23936 0.27981 0.0
H1027 H 0.3308 0.24079 0.29524 0.0
H1028 H 0.29936 0.80491 0.76016 0.0
H1029 H 0.3059 0.85233 0.74606 0.0
H1030 H 0.24607 0.89078 0.78281 0.0
H1031 H 0.23933 0.84348 0.79695 0.0
H1032 H 0.26593 0.88907 0.73021 0.0
H1033 H 0.3172 0.9429 0.78751 0.0
H1034 H 0.31284 0.90393 0.78607 0.0
H1035 H 0.2829 0.92656 0.79248 0.0
C1036 C 0.28737 0.8234 0.76514 0.0
C1037 C 0.26894 0.82044 0.77975 0.0
C1038 C 0.29128 0.8505 0.75713 0.0
C1039 C 0.27694 0.87517 0.76361 0.0
C1040 C 0.25794 0.87217 0.77789 0.0
H1041 H 0.25385 0.05367 0.73509 0.0
H1042 H 0.25538 0.00578 0.74882 0.0
C1043 C 0.25407 0.84511 0.78593 0.0
C1044 C 0.28149 0.90401 0.7553 0.0
H1045 H 0.30244 0.97382 0.76398 0.0
C1046 C 0.2742 0.90754 0.73752 0.0
C1047 C 0.2924 0.92802 0.76487 0.0
C1048 C 0.30207 0.92518 0.78374 0.0
C1049 C 0.27648 0.93475 0.72922 0.0
C1050 C 0.28673 0.9589 0.73892 0.0
C1051 C 0.29458 0.95524 0.7566 0.0
C1052 C 0.28785 0.9885 0.73124 0.0
C1053 C 0.26692 0.9377 0.71034 0.0
C1054 C 0.30623 0.99492 0.71708 0.0
C1055 C 0.30567 0.0225 0.70926 0.0
C1056 C 0.28675 0.04415 0.71551 0.0
C1057 C 0.26909 0.0378 0.7301 0.0
C1058 C 0.26973 0.01032 0.7379 0.0
H1059 H 0.2544 0.91846 0.70582 0.0
H1060 H 0.25342 0.95747 0.70858 0.0
H1061 H 0.28624 0.9399 0.70179 0.0
H1062 H 0.32075 0.9785 0.71195 0.0
H1063 H 0.3198 0.02675 0.69821 0.0
H1064 H 0.68597 0.72166 0.27695 0.0
H1065 H 0.63867 0.72411 0.26259 0.0
H1066 H 0.65247 0.815 0.25124 0.0
H1067 H 0.69983 0.81267 0.26547 0.0
H1068 H 0.59239 0.75804 0.27186 0.0
H1069 H 0.62695 0.78413 0.20374 0.0
H1070 H 0.65188 0.77133 0.22028 0.0
H1071 H 0.64053 0.80874 0.22011 0.0
C1072 C 0.67899 0.74213 0.27131 0.0
C1073 C 0.69672 0.76693 0.27227 0.0
C1074 C 0.65199 0.74349 0.26309 0.0
C1075 C 0.64217 0.76964 0.25564 0.0
C1076 C 0.65986 0.79441 0.25651 0.0
H1077 H 0.47566 0.81179 0.20588 0.0
H1078 H 0.52306 0.8161 0.22039 0.0
C1079 C 0.68694 0.79304 0.26465 0.0
C1080 C 0.61288 0.7712 0.2477 0.0
H1081 H 0.57659 0.78547 0.20951 0.0
C1082 C 0.58896 0.76403 0.25823 0.0
C1083 C 0.6084 0.77921 0.22993 0.0
C1084 C 0.63329 0.78605 0.21779 0.0
C1085 C 0.56074 0.76448 0.25145 0.0
C1086 C 0.55633 0.77206 0.23365 0.0
C1087 C 0.5801 0.77983 0.22319 0.0
C1088 C 0.52744 0.76995 0.22534 0.0
C1089 C 0.53582 0.75681 0.26338 0.0
C1090 C 0.5144 0.74263 0.22331 0.0
C1091 C 0.4876 0.74013 0.21504 0.0
C1092 C 0.47328 0.76492 0.20857 0.0
C1093 C 0.48618 0.79237 0.2108 0.0
C1094 C 0.51323 0.79483 0.219 0.0
H1095 H 0.54184 0.75866 0.27747 0.0
H1096 H 0.51692 0.7711 0.26079 0.0
H1097 H 0.52915 0.734 0.26084 0.0
H1098 H 0.52514 0.72315 0.22797 0.0
H1099 H 0.47802 0.71873 0.21372 0.0
H1100 H 0.70527 0.19666 0.75444 0.0
H1101 H 0.69925 0.14997 0.73938 0.0
H1102 H 0.72002 0.10466 0.78738 0.0
H1103 H 0.72626 0.15117 0.8025 0.0
H1104 H 0.73924 0.10529 0.73487 0.0
H1105 H 0.64399 0.06641 0.77246 0.0
H1106 H 0.65585 0.10383 0.77291 0.0
H1107 H 0.67406 0.07688 0.78599 0.0
C1108 C 0.70876 0.17677 0.76177 0.0
C1109 C 0.71612 0.17767 0.77971 0.0
C1110 C 0.70512 0.15011 0.75317 0.0
C1111 C 0.70862 0.12385 0.76234 0.0
C1112 C 0.71645 0.12465 0.78016 0.0
H1113 H 0.7138 0.94141 0.73608 0.0
H1114 H 0.71126 0.98878 0.75067 0.0
C1115 C 0.72006 0.15127 0.78877 0.0
C1116 C 0.70506 0.0956 0.75315 0.0
H1117 H 0.66719 0.03174 0.75393 0.0
C1118 C 0.72332 0.08931 0.73892 0.0
C1119 C 0.68429 0.07478 0.75849 0.0
C1120 C 0.66323 0.08084 0.7732 0.0
C1121 C 0.72195 0.06242 0.7302 0.0
C1122 C 0.70137 0.04148 0.73565 0.0
C1123 C 0.68291 0.04786 0.74977 0.0
C1124 C 0.69946 0.01248 0.72717 0.0
C1125 C 0.74317 0.05631 0.71558 0.0
C1126 C 0.6925 0.00994 0.70928 0.0
C1127 C 0.69379 0.98288 0.70092 0.0
C1128 C 0.70189 0.95781 0.71032 0.0
C1129 C 0.70719 0.9602 0.72848 0.0
C1130 C 0.70594 0.98729 0.73682 0.0
H1131 H 0.76166 0.07175 0.71574 0.0
H1132 H 0.75175 0.0338 0.71655 0.0
H1133 H 0.73202 0.05853 0.70274 0.0
H1134 H 0.68681 0.02903 0.70168 0.0
H1135 H 0.68918 0.98169 0.68698 0.0
H1136 H 0.04104 0.29047 0.27141 0.0
H1137 H 0.99357 0.29554 0.25765 0.0
H1138 H 0.95289 0.26523 0.30528 0.0
H1139 H -4e-05 0.26199 0.31949 0.0
H1140 H 0.95674 0.25404 0.2504 0.0
H1141 H 0.90163 0.33224 0.2942 0.0
H1142 H 0.94008 0.32588 0.29528 0.0
H1143 H 0.91529 0.30178 0.30634 0.0
C1144 C 0.02196 0.28577 0.27916 0.0
C1145 C 0.02443 0.27581 0.29659 0.0
C1146 C 0.99481 0.28839 0.2712 0.0
C1147 C 0.96954 0.28108 0.28046 0.0
C1148 C 0.97191 0.27167 0.29795 0.0
H1149 H 0.80947 0.22319 0.23176 0.0
H1150 H 0.85647 0.22683 0.24648 0.0
C1151 C 0.99898 0.26939 0.30599 0.0
C1152 C 0.94099 0.28109 0.27146 0.0
H1153 H 0.87091 0.3036 0.27551 0.0
C1154 C 0.93805 0.26516 0.25581 0.0
C1155 C 0.91662 0.29586 0.27835 0.0
C1156 C 0.91863 0.31515 0.29436 0.0
C1157 C 0.91139 0.26303 0.24708 0.0
C1158 C 0.88666 0.27638 0.25453 0.0
C1159 C 0.88973 0.29293 0.26995 0.0
C1160 C 0.85755 0.27395 0.24636 0.0
C1161 C 0.9102 0.24691 0.22981 0.0
C1162 C 0.84188 0.29916 0.24212 0.0
C1163 C 0.8148 0.29709 0.23407 0.0
C1164 C 0.8029 0.26976 0.23 0.0
C1165 C 0.81831 0.24452 0.23455 0.0
C1166 C 0.84523 0.2466 0.24285 0.0
H1167 H 0.93177 0.2461 0.22338 0.0
H1168 H 0.9032 0.22416 0.23221 0.0
H1169 H 0.89466 0.25721 0.22058 0.0
H1170 H 0.85085 0.3205 0.24475 0.0
H1171 H 0.80353 0.31692 0.23056 0.0
H1172 H 0.18385 0.33436 0.70614 0.0
H1173 H 0.18073 0.38113 0.72121 0.0
H1174 H 0.25731 0.36023 0.75098 0.0
H1175 H 0.26156 0.31406 0.73529 0.0
H1176 H 0.17392 0.3939 0.75559 0.0
H1177 H 0.27794 0.43935 0.73196 0.0
H1178 H 0.26216 0.40691 0.72268 0.0
H1179 H 0.2821 0.4051 0.74298 0.0
C1180 C 0.20038 0.33987 0.71565 0.0
C1181 C 0.22318 0.32049 0.71931 0.0
C1182 C 0.19837 0.36654 0.72439 0.0
C1183 C 0.21906 0.37444 0.737 0.0
C1184 C 0.24147 0.35492 0.741 0.0
H1185 H 0.2416 0.51846 0.80836 0.0
H1186 H 0.24059 0.47116 0.7937 0.0
C1187 C 0.24364 0.32831 0.73217 0.0
C1188 C 0.21691 0.40294 0.74612 0.0
H1189 H 0.25423 0.46545 0.75485 0.0
C1190 C 0.1914 0.40962 0.75532 0.0
C1191 C 0.23967 0.42354 0.74568 0.0
C1192 C 0.26689 0.41854 0.73515 0.0
C1193 C 0.18834 0.43605 0.76442 0.0
C1194 C 0.21133 0.45625 0.76427 0.0
C1195 C 0.23671 0.44975 0.75498 0.0
C1196 C 0.20974 0.48419 0.77387 0.0
C1197 C 0.16085 0.44208 0.77444 0.0
C1198 C 0.1925 0.50708 0.7676 0.0
C1199 C 0.19301 0.53423 0.77596 0.0
C1200 C 0.21066 0.53881 0.79077 0.0
C1201 C 0.22735 0.51552 0.79721 0.0
C1202 C 0.22699 0.48854 0.78878 0.0
H1203 H 0.14658 0.42267 0.77514 0.0
H1204 H 0.16596 0.44937 0.78801 0.0
H1205 H 0.14882 0.45992 0.76786 0.0
H1206 H 0.17924 0.50415 0.756 0.0
H1207 H 0.17993 0.55174 0.77071 0.0
H1208 H 0.19532 0.6781 0.23181 0.0
H1209 H 0.14796 0.67447 0.24598 0.0
H1210 H 0.14279 0.76814 0.24833 0.0
H1211 H 0.18979 0.77182 0.23365 0.0
H1212 H 0.12796 0.69084 0.27683 0.0
H1213 H 0.06733 0.74976 0.22522 0.0
H1214 H 0.10437 0.73851 0.2223 0.0
H1215 H 0.09604 0.7714 0.23414 0.0
C1216 C 0.18413 0.69791 0.23544 0.0
C1217 C 0.19616 0.72526 0.23156 0.0
C1218 C 0.15703 0.69582 0.24348 0.0
C1219 C 0.14146 0.72102 0.24789 0.0
C1220 C 0.15392 0.74837 0.24456 0.0
H1221 H 0.0 0.73367 0.32152 0.0
H1222 H 0.04685 0.72959 0.30714 0.0
C1223 C 0.18085 0.75048 0.23629 0.0
C1224 C 0.11235 0.71861 0.25608 0.0
H1225 H 0.04249 0.74177 0.2523 0.0
C1226 C 0.10922 0.7018 0.27139 0.0
C1227 C 0.0877 0.73233 0.24878 0.0
C1228 C 0.08892 0.74873 0.2316 0.0
C1229 C 0.08236 0.69902 0.27986 0.0
C1230 C 0.0581 0.71419 0.27315 0.0
C1231 C 0.06109 0.73034 0.25758 0.0
C1232 C 0.02965 0.7145 0.28228 0.0
C1233 C 0.08028 0.67947 0.29575 0.0
C1234 C 0.00414 0.70785 0.27308 0.0
C1235 C 0.97712 0.71095 0.28115 0.0
C1236 C 0.97503 0.72075 0.29864 0.0
C1237 C 0.0007 0.72641 0.30798 0.0
C1238 C 0.02764 0.72365 0.29984 0.0
H1239 H 0.097 0.66212 0.29538 0.0
H1240 H 0.08401 0.69256 0.30779 0.0
H1241 H 0.05867 0.66906 0.29671 0.0
H1242 H 0.0051 0.7009 0.25948 0.0
H1243 H 0.95788 0.70683 0.27344 0.0
H1244 H 0.77393 0.47854 0.81009 0.0
H1245 H 0.77581 0.52679 0.79675 0.0
H1246 H 0.80908 0.48962 0.74885 0.0
H1247 H 0.80823 0.44113 0.76225 0.0
H1248 H 0.82663 0.55742 0.77787 0.0
H1249 H 0.72911 0.53355 0.73735 0.0
H1250 H 0.7374 0.51354 0.75717 0.0
H1251 H 0.75778 0.50703 0.73751 0.0
C1252 C 0.78245 0.48057 0.79689 0.0
C1253 C 0.79097 0.4558 0.78727 0.0
C1254 C 0.78327 0.50821 0.78925 0.0
C1255 C 0.79235 0.51165 0.77181 0.0
C1256 C 0.80178 0.48728 0.76231 0.0
H1257 H 0.77983 0.65793 0.7 0.0
H1258 H 0.78634 0.61015 0.71358 0.0
C1259 C 0.80116 0.4596 0.76998 0.0
C1260 C 0.79045 0.54056 0.76332 0.0
H1261 H 0.75039 0.57965 0.73398 0.0
C1262 C 0.81005 0.56236 0.76823 0.0
C1263 C 0.76878 0.54678 0.75078 0.0
C1264 C 0.74688 0.52414 0.74538 0.0
C1265 C 0.80875 0.5903 0.76074 0.0
C1266 C 0.78673 0.59673 0.74839 0.0
C1267 C 0.76723 0.57476 0.74346 0.0
C1268 C 0.78347 0.62601 0.74032 0.0
C1269 C 0.83137 0.61239 0.76586 0.0
C1270 C 0.77938 0.65084 0.75081 0.0
C1271 C 0.7758 0.67823 0.74307 0.0
C1272 C 0.77569 0.6812 0.72467 0.0
C1273 C 0.77945 0.65627 0.71421 0.0
C1274 C 0.78331 0.62898 0.72195 0.0
H1275 H 0.85115 0.60176 0.7711 0.0
H1276 H 0.83754 0.62623 0.7545 0.0
H1277 H 0.82256 0.62667 0.77634 0.0
H1278 H 0.7786 0.64901 0.765 0.0
H1279 H 0.77262 0.69701 0.75145 0.0
loop_
_geom_bond_atom_site_label_1
_geom_bond_atom_site_label_2
_geom_bond_distance
_geom_bond_site_symmetry_2
_ccdc_geom_bond_type
Li0 N17 1.990 . S
Li0 O60 1.956 . S
Li0 O61 1.970 . S
Li0 O62 1.961 . S
Li1 N25 1.990 . S
Li1 O60 1.970 . S
Li1 O61 1.956 . S
Li1 O63 1.961 . S
Li2 N47 1.990 . S
Li2 O60 1.961 . S
Li2 O62 1.956 . S
Li2 O63 1.970 . S
Li3 N53 1.990 . S
Li3 O61 1.961 . S
Li3 O62 1.970 . S
Li3 O63 1.956 . S
C4 C6 1.348 . S
C4 C7 1.356 . S
C4 O60 1.325 . S
N5 C8 1.314 . S
N5 C9 1.279 . S
C6 C4 1.348 . S
C6 C8 1.353 . S
C6 H64 0.929 . S
C7 C4 1.356 . S
C7 C9 1.358 . S
C7 H65 0.930 . S
C8 N5 1.314 . S
C8 C6 1.353 . S
C8 H66 0.930 . S
C9 N5 1.279 . S
C9 C7 1.358 . S
C9 H67 0.930 . S
C10 C13 1.348 . S
C10 C14 1.356 . S
C10 O61 1.325 . S
C11 N12 1.279 . S
C11 C14 1.358 . S
C11 H68 0.930 . S
N12 C11 1.279 . S
N12 C15 1.314 . S
C13 C10 1.348 . S
C13 C15 1.353 . S
C13 H69 0.929 . S
C14 C10 1.356 . S
C14 C11 1.358 . S
C14 H70 0.930 . S
C15 N12 1.314 . S
C15 C13 1.353 . S
C15 H71 0.930 1_455 S
C16 N17 1.314 . S
C16 C21 1.353 . S
C16 H22 0.930 . S
N17 Li0 1.990 . S
N17 C16 1.314 . S
N17 C19 1.279 . S
C18 C19 1.358 . S
C18 C20 1.356 . S
C18 H72 0.930 . S
C19 N17 1.279 . S
C19 C18 1.358 . S
C19 H23 0.930 . S
C20 C18 1.356 . S
C20 C21 1.348 . S
C21 C16 1.353 . S
C21 C20 1.348 . S
C21 H73 0.929 1_455 S
H22 C16 0.930 . S
H23 C19 0.930 . S
C24 N25 1.314 . S
C24 C26 1.353 . S
C24 H30 0.930 . S
N25 Li1 1.990 . S
N25 C24 1.314 . S
N25 C28 1.279 . S
C26 C24 1.353 . S
C26 C29 1.348 . S
C26 H74 0.929 . S
C27 C28 1.358 . S
C27 C29 1.356 . S
C27 H75 0.930 . S
C28 N25 1.279 . S
C28 C27 1.358 . S
C28 H31 0.930 . S
C29 C26 1.348 . S
C29 C27 1.356 . S
H30 C24 0.930 . S
H31 C28 0.930 . S
C32 C34 1.348 . S
C32 C35 1.356 . S
C32 O62 1.325 . S
N33 C36 1.314 . S
N33 C37 1.279 . S
C34 C32 1.348 . S
C34 C36 1.353 . S
C34 H76 0.929 . S
C35 C32 1.356 . S
C35 C37 1.358 . S
C35 H77 0.930 . S
C36 N33 1.314 . S
C36 C34 1.353 . S
C36 H78 0.930 . S
C37 N33 1.279 . S
C37 C35 1.358 . S
C37 H79 0.930 . S
C38 C39 1.348 . S
C38 C40 1.356 . S
C38 O63 1.325 . S
C39 C38 1.348 . S
C39 C41 1.353 . S
C39 H80 0.929 . S
C40 C38 1.356 . S
C40 C42 1.358 . S
C40 H81 0.930 . S
C41 C39 1.353 . S
C41 N43 1.314 . S
C41 H82 0.930 . S
C42 C40 1.358 . S
C42 N43 1.279 . S
C42 H83 0.930 . S
N43 C41 1.314 . S
N43 C42 1.279 . S
C44 C46 1.353 . S
C44 N47 1.314 . S
C44 H50 0.930 . S
C45 N47 1.279 . S
C45 C48 1.358 . S
C45 H51 0.930 . S
C46 C44 1.353 . S
C46 C49 1.348 . S
C46 H84 0.929 . S
N47 Li2 1.990 . S
N47 C44 1.314 . S
N47 C45 1.279 . S
C48 C45 1.358 . S
C48 C49 1.356 . S
C48 H85 0.930 . S
C49 C46 1.348 . S
C49 C48 1.356 . S
H50 C44 0.930 . S
H51 C45 0.930 . S
C52 N53 1.314 . S
C52 C54 1.353 . S
C52 H58 0.930 . S
N53 Li3 1.990 . S
N53 C52 1.314 . S
N53 C56 1.279 . S
C54 C52 1.353 . S
C54 C57 1.348 . S
C54 H86 0.929 . S
C55 C56 1.358 . S
C55 C57 1.356 . S
C55 H87 0.930 . S
C56 N53 1.279 . S
C56 C55 1.358 . S
C56 H59 0.930 . S
C57 C54 1.348 . S
C57 C55 1.356 . S
H58 C52 0.930 . S
H59 C56 0.930 . S
O60 Li0 1.956 . S
O60 Li1 1.970 . S
O60 Li2 1.961 . S
O60 C4 1.325 . S
O61 Li0 1.970 . S
O61 Li1 1.956 . S
O61 Li3 1.961 . S
O61 C10 1.325 . S
O62 Li0 1.961 . S
O62 Li2 1.956 . S
O62 Li3 1.970 . S
O62 C32 1.325 . S
O63 Li1 1.961 . S
O63 Li2 1.970 . S
O63 Li3 1.956 . S
O63 C38 1.325 . S
H64 C6 0.929 . S
H65 C7 0.930 . S
H66 C8 0.930 . S
H67 C9 0.930 . S
H68 C11 0.930 . S
H69 C13 0.929 . S
H70 C14 0.930 . S
H71 C15 0.930 1_655 S
H72 C18 0.930 . S
H73 C21 0.929 1_655 S
H74 C26 0.929 . S
H75 C27 0.930 . S
H76 C34 0.929 . S
H77 C35 0.930 . S
H78 C36 0.930 . S
H79 C37 0.930 . S
H80 C39 0.929 . S
H81 C40 0.930 . S
H82 C41 0.930 . S
H83 C42 0.930 . S
H84 C46 0.929 . S
H85 C48 0.930 . S
H86 C54 0.929 . S
H87 C55 0.930 . S
Li88 N105 1.990 . S
Li88 O148 1.956 . S
Li88 O149 1.970 . S
Li88 O150 1.961 . S
Li89 N113 1.990 . S
Li89 O148 1.970 . S
Li89 O149 1.956 . S
Li89 O151 1.961 . S
Li90 N135 1.990 . S
Li90 O148 1.961 . S
Li90 O150 1.956 . S
Li90 O151 1.970 . S
Li91 N141 1.990 . S
Li91 O149 1.961 . S
Li91 O150 1.970 . S
Li91 O151 1.956 . S
C92 C94 1.348 . S
C92 C95 1.356 . S
C92 O148 1.325 . S
N93 C96 1.314 . S
N93 C97 1.279 . S
C94 C92 1.348 . S
C94 C96 1.353 . S
C94 H152 0.929 . S
C95 C92 1.356 . S
C95 C97 1.358 . S
C95 H153 0.930 . S
C96 N93 1.314 . S
C96 C94 1.353 . S
C96 H154 0.930 . S
C97 N93 1.279 . S
C97 C95 1.358 . S
C97 H155 0.930 . S
C98 C101 1.348 . S
C98 C102 1.356 . S
C98 O149 1.325 . S
C99 N100 1.279 . S
C99 C102 1.358 . S
C99 H156 0.930 . S
N100 C99 1.279 . S
N100 C103 1.314 . S
C101 C98 1.348 . S
C101 C103 1.353 . S
C101 H157 0.929 . S
C102 C98 1.356 . S
C102 C99 1.358 . S
C102 H158 0.930 . S
C103 N100 1.314 . S
C103 C101 1.353 . S
C103 H159 0.930 . S
C104 N105 1.314 . S
C104 C109 1.353 . S
C104 H110 0.930 . S
N105 Li88 1.990 . S
N105 C104 1.314 . S
N105 C107 1.279 . S
C106 C107 1.358 . S
C106 C108 1.356 . S
C106 H160 0.930 . S
C107 N105 1.279 . S
C107 C106 1.358 . S
C107 H111 0.930 . S
C108 C106 1.356 . S
C108 C109 1.348 . S
C109 C104 1.353 . S
C109 C108 1.348 . S
C109 H161 0.929 . S
H110 C104 0.930 . S
H111 C107 0.930 . S
C112 N113 1.314 . S
C112 C114 1.353 . S
C112 H118 0.930 . S
N113 Li89 1.990 . S
N113 C112 1.314 . S
N113 C116 1.279 . S
C114 C112 1.353 . S
C114 C117 1.348 . S
C114 H162 0.929 . S
C115 C116 1.358 . S
C115 C117 1.356 . S
C115 H163 0.930 . S
C116 N113 1.279 . S
C116 C115 1.358 . S
C116 H119 0.930 . S
C117 C114 1.348 . S
C117 C115 1.356 . S
H118 C112 0.930 . S
H119 C116 0.930 . S
C120 C122 1.348 . S
C120 C123 1.356 . S
C120 O150 1.325 . S
N121 C124 1.314 . S
N121 C125 1.279 . S
C122 C120 1.348 . S
C122 C124 1.353 . S
C122 H164 0.929 . S
C123 C120 1.356 . S
C123 C125 1.358 . S
C123 H165 0.930 . S
C124 N121 1.314 . S
C124 C122 1.353 . S
C124 H166 0.930 . S
C125 N121 1.279 . S
C125 C123 1.358 . S
C125 H167 0.930 . S
C126 C127 1.348 . S
C126 C128 1.356 . S
C126 O151 1.325 . S
C127 C126 1.348 . S
C127 C129 1.353 . S
C127 H168 0.929 . S
C128 C126 1.356 . S
C128 C130 1.358 . S
C128 H169 0.930 . S
C129 C127 1.353 . S
C129 N131 1.314 . S
C129 H170 0.930 . S
C130 C128 1.358 . S
C130 N131 1.279 . S
C130 H171 0.930 . S
N131 C129 1.314 . S
N131 C130 1.279 . S
C132 C134 1.353 . S
C132 N135 1.314 . S
C132 H138 0.930 . S
C133 N135 1.279 . S
C133 C136 1.358 . S
C133 H139 0.930 . S
C134 C132 1.353 . S
C134 C137 1.348 . S
C134 H172 0.929 . S
N135 Li90 1.990 . S
N135 C132 1.314 . S
N135 C133 1.279 . S
C136 C133 1.358 . S
C136 C137 1.356 . S
C136 H173 0.930 . S
C137 C134 1.348 . S
C137 C136 1.356 . S
H138 C132 0.930 . S
H139 C133 0.930 . S
C140 N141 1.314 . S
C140 C142 1.353 . S
C140 H146 0.930 . S
N141 Li91 1.990 . S
N141 C140 1.314 . S
N141 C144 1.279 . S
C142 C140 1.353 . S
C142 C145 1.348 . S
C142 H174 0.929 . S
C143 C144 1.358 . S
C143 C145 1.356 . S
C143 H175 0.930 . S
C144 N141 1.279 . S
C144 C143 1.358 . S
C144 H147 0.930 . S
C145 C142 1.348 . S
C145 C143 1.356 . S
H146 C140 0.930 . S
H147 C144 0.930 . S
O148 Li88 1.956 . S
O148 Li89 1.970 . S
O148 Li90 1.961 . S
O148 C92 1.325 . S
O149 Li88 1.970 . S
O149 Li89 1.956 . S
O149 Li91 1.961 . S
O149 C98 1.325 . S
O150 Li88 1.961 . S
O150 Li90 1.956 . S
O150 Li91 1.970 . S
O150 C120 1.325 . S
O151 Li89 1.961 . S
O151 Li90 1.970 . S
O151 Li91 1.956 . S
O151 C126 1.325 . S
H152 C94 0.929 . S
H153 C95 0.930 . S
H154 C96 0.930 . S
H155 C97 0.930 . S
H156 C99 0.930 . S
H157 C101 0.929 . S
H158 C102 0.930 . S
H159 C103 0.930 . S
H160 C106 0.930 . S
H161 C109 0.929 . S
H162 C114 0.929 . S
H163 C115 0.930 . S
H164 C122 0.929 . S
H165 C123 0.930 . S
H166 C124 0.930 . S
H167 C125 0.930 . S
H168 C127 0.929 . S
H169 C128 0.930 . S
H170 C129 0.930 . S
H171 C130 0.930 . S
H172 C134 0.929 . S
H173 C136 0.930 . S
H174 C142 0.929 . S
H175 C143 0.930 . S
Li176 N193 1.990 . S
Li176 O236 1.956 . S
Li176 O237 1.970 . S
Li176 O238 1.961 . S
Li177 N201 1.990 . S
Li177 O236 1.970 . S
Li177 O237 1.956 . S
Li177 O239 1.961 . S
Li178 N223 1.990 . S
Li178 O236 1.961 . S
Li178 O238 1.956 . S
Li178 O239 1.970 . S
Li179 N229 1.990 . S
Li179 O237 1.961 . S
Li179 O238 1.970 . S
Li179 O239 1.956 . S
C180 C182 1.348 . S
C180 C183 1.356 . S
C180 O236 1.325 . S
N181 C184 1.314 . S
N181 C185 1.279 . S
C182 C180 1.348 . S
C182 C184 1.353 . S
C182 H240 0.929 . S
C183 C180 1.356 . S
C183 C185 1.358 . S
C183 H241 0.930 . S
C184 N181 1.314 . S
C184 C182 1.353 . S
C184 H242 0.930 . S
C185 N181 1.279 . S
C185 C183 1.358 . S
C185 H243 0.930 . S
C186 C189 1.348 . S
C186 C190 1.356 . S
C186 O237 1.325 . S
C187 N188 1.279 . S
C187 C190 1.358 . S
C187 H244 0.930 . S
N188 C187 1.279 . S
N188 C191 1.314 . S
C189 C186 1.348 . S
C189 C191 1.353 . S
C189 H245 0.929 . S
C190 C186 1.356 . S
C190 C187 1.358 . S
C190 H246 0.930 . S
C191 N188 1.314 . S
C191 C189 1.353 . S
C191 H247 0.930 1_655 S
C192 N193 1.314 . S
C192 C197 1.353 . S
C192 H198 0.930 . S
N193 Li176 1.990 . S
N193 C192 1.314 . S
N193 C195 1.279 . S
C194 C195 1.358 . S
C194 C196 1.356 . S
C194 H248 0.930 . S
C195 N193 1.279 . S
C195 C194 1.358 . S
C195 H199 0.930 . S
C196 C194 1.356 . S
C196 C197 1.348 . S
C197 C192 1.353 . S
C197 C196 1.348 . S
C197 H249 0.929 1_655 S
H198 C192 0.930 . S
H199 C195 0.930 . S
C200 N201 1.314 . S
C200 C202 1.353 . S
C200 H206 0.930 . S
N201 Li177 1.990 . S
N201 C200 1.314 . S
N201 C204 1.279 . S
C202 C200 1.353 . S
C202 C205 1.348 . S
C202 H250 0.929 . S
C203 C204 1.358 . S
C203 C205 1.356 . S
C203 H251 0.930 . S
C204 N201 1.279 . S
C204 C203 1.358 . S
C204 H207 0.930 . S
C205 C202 1.348 . S
C205 C203 1.356 . S
H206 C200 0.930 . S
H207 C204 0.930 . S
C208 C210 1.348 . S
C208 C211 1.356 . S
C208 O238 1.325 . S
N209 C212 1.314 . S
N209 C213 1.279 . S
C210 C208 1.348 . S
C210 C212 1.353 . S
C210 H252 0.929 . S
C211 C208 1.356 . S
C211 C213 1.358 . S
C211 H253 0.930 . S
C212 N209 1.314 . S
C212 C210 1.353 . S
C212 H254 0.930 . S
C213 N209 1.279 . S
C213 C211 1.358 . S
C213 H255 0.930 . S
C214 C215 1.348 . S
C214 C216 1.356 . S
C214 O239 1.325 . S
C215 C214 1.348 . S
C215 C217 1.353 . S
C215 H256 0.929 . S
C216 C214 1.356 . S
C216 C218 1.358 . S
C216 H257 0.930 . S
C217 C215 1.353 . S
C217 N219 1.314 . S
C217 H258 0.930 . S
C218 C216 1.358 . S
C218 N219 1.279 . S
C218 H259 0.930 . S
N219 C217 1.314 . S
N219 C218 1.279 . S
C220 C222 1.353 . S
C220 N223 1.314 . S
C220 H226 0.930 . S
C221 N223 1.279 . S
C221 C224 1.358 . S
C221 H227 0.930 . S
C222 C220 1.353 . S
C222 C225 1.348 . S
C222 H260 0.929 . S
N223 Li178 1.990 . S
N223 C220 1.314 . S
N223 C221 1.279 . S
C224 C221 1.358 . S
C224 C225 1.356 . S
C224 H261 0.930 . S
C225 C222 1.348 . S
C225 C224 1.356 . S
H226 C220 0.930 . S
H227 C221 0.930 . S
C228 N229 1.314 . S
C228 C230 1.353 . S
C228 H234 0.930 . S
N229 Li179 1.990 . S
N229 C228 1.314 . S
N229 C232 1.279 . S
C230 C228 1.353 . S
C230 C233 1.348 . S
C230 H262 0.929 . S
C231 C232 1.358 . S
C231 C233 1.356 . S
C231 H263 0.930 . S
C232 N229 1.279 . S
C232 C231 1.358 . S
C232 H235 0.930 . S
C233 C230 1.348 . S
C233 C231 1.356 . S
H234 C228 0.930 . S
H235 C232 0.930 . S
O236 Li176 1.956 . S
O236 Li177 1.970 . S
O236 Li178 1.961 . S
O236 C180 1.325 . S
O237 Li176 1.970 . S
O237 Li177 1.956 . S
O237 Li179 1.961 . S
O237 C186 1.325 . S
O238 Li176 1.961 . S
O238 Li178 1.956 . S
O238 Li179 1.970 . S
O238 C208 1.325 . S
O239 Li177 1.961 . S
O239 Li178 1.970 . S
O239 Li179 1.956 . S
O239 C214 1.325 . S
H240 C182 0.929 . S
H241 C183 0.930 . S
H242 C184 0.930 . S
H243 C185 0.930 . S
H244 C187 0.930 . S
H245 C189 0.929 . S
H246 C190 0.930 . S
H247 C191 0.930 1_455 S
H248 C194 0.930 . S
H249 C197 0.929 1_455 S
H250 C202 0.929 . S
H251 C203 0.930 . S
H252 C210 0.929 . S
H253 C211 0.930 . S
H254 C212 0.930 . S
H255 C213 0.930 . S
H256 C215 0.929 . S
H257 C216 0.930 . S
H258 C217 0.930 . S
H259 C218 0.930 . S
H260 C222 0.929 . S
H261 C224 0.930 . S
H262 C230 0.929 . S
H263 C231 0.930 . S
Li264 N281 1.990 . S
Li264 O324 1.956 . S
Li264 O325 1.970 . S
Li264 O326 1.961 . S
Li265 N289 1.990 . S
Li265 O324 1.970 . S
Li265 O325 1.956 . S
Li265 O327 1.961 . S
Li266 N311 1.990 . S
Li266 O324 1.961 . S
Li266 O326 1.956 . S
Li266 O327 1.970 . S
Li267 N317 1.990 . S
Li267 O325 1.961 . S
Li267 O326 1.970 . S
Li267 O327 1.956 . S
C268 C270 1.348 . S
C268 C271 1.356 . S
C268 O324 1.325 . S
N269 C272 1.314 . S
N269 C273 1.279 . S
C270 C268 1.348 . S
C270 C272 1.353 . S
C270 H328 0.929 . S
C271 C268 1.356 . S
C271 C273 1.358 . S
C271 H329 0.930 . S
C272 N269 1.314 . S
C272 C270 1.353 . S
C272 H330 0.930 . S
C273 N269 1.279 . S
C273 C271 1.358 . S
C273 H331 0.930 . S
C274 C277 1.348 . S
C274 C278 1.356 . S
C274 O325 1.325 . S
C275 N276 1.279 . S
C275 C278 1.358 . S
C275 H332 0.930 . S
N276 C275 1.279 . S
N276 C279 1.314 . S
C277 C274 1.348 . S
C277 C279 1.353 . S
C277 H333 0.929 . S
C278 C274 1.356 . S
C278 C275 1.358 . S
C278 H334 0.930 . S
C279 N276 1.314 . S
C279 C277 1.353 . S
C279 H335 0.930 . S
C280 N281 1.314 . S
C280 C285 1.353 . S
C280 H286 0.930 . S
N281 Li264 1.990 . S
N281 C280 1.314 . S
N281 C283 1.279 . S
C282 C283 1.358 . S
C282 C284 1.356 . S
C282 H336 0.930 . S
C283 N281 1.279 . S
C283 C282 1.358 . S
C283 H287 0.930 . S
C284 C282 1.356 . S
C284 C285 1.348 . S
C285 C280 1.353 . S
C285 C284 1.348 . S
C285 H337 0.929 . S
H286 C280 0.930 . S
H287 C283 0.930 . S
C288 N289 1.314 . S
C288 C290 1.353 . S
C288 H294 0.930 . S
N289 Li265 1.990 . S
N289 C288 1.314 . S
N289 C292 1.279 . S
C290 C288 1.353 . S
C290 C293 1.348 . S
C290 H338 0.929 . S
C291 C292 1.358 . S
C291 C293 1.356 . S
C291 H339 0.930 . S
C292 N289 1.279 . S
C292 C291 1.358 . S
C292 H295 0.930 . S
C293 C290 1.348 . S
C293 C291 1.356 . S
H294 C288 0.930 . S
H295 C292 0.930 . S
C296 C298 1.348 . S
C296 C299 1.356 . S
C296 O326 1.325 . S
N297 C300 1.314 . S
N297 C301 1.279 . S
C298 C296 1.348 . S
C298 C300 1.353 . S
C298 H340 0.929 . S
C299 C296 1.356 . S
C299 C301 1.358 . S
C299 H341 0.930 . S
C300 N297 1.314 . S
C300 C298 1.353 . S
C300 H342 0.930 . S
C301 N297 1.279 . S
C301 C299 1.358 . S
C301 H343 0.930 . S
C302 C303 1.348 . S
C302 C304 1.356 . S
C302 O327 1.325 . S
C303 C302 1.348 . S
C303 C305 1.353 . S
C303 H344 0.929 . S
C304 C302 1.356 . S
C304 C306 1.358 . S
C304 H345 0.930 . S
C305 C303 1.353 . S
C305 N307 1.314 . S
C305 H346 0.930 . S
C306 C304 1.358 . S
C306 N307 1.279 . S
C306 H347 0.930 . S
N307 C305 1.314 . S
N307 C306 1.279 . S
C308 C310 1.353 . S
C308 N311 1.314 . S
C308 H314 0.930 . S
C309 N311 1.279 . S
C309 C312 1.358 . S
C309 H315 0.930 . S
C310 C308 1.353 . S
C310 C313 1.348 . S
C310 H348 0.929 . S
N311 Li266 1.990 . S
N311 C308 1.314 . S
N311 C309 1.279 . S
C312 C309 1.358 . S
C312 C313 1.356 . S
C312 H349 0.930 . S
C313 C310 1.348 . S
C313 C312 1.356 . S
H314 C308 0.930 . S
H315 C309 0.930 . S
C316 N317 1.314 . S
C316 C318 1.353 . S
C316 H322 0.930 . S
N317 Li267 1.990 . S
N317 C316 1.314 . S
N317 C320 1.279 . S
C318 C316 1.353 . S
C318 C321 1.348 . S
C318 H350 0.929 . S
C319 C320 1.358 . S
C319 C321 1.356 . S
C319 H351 0.930 . S
C320 N317 1.279 . S
C320 C319 1.358 . S
C320 H323 0.930 . S
C321 C318 1.348 . S
C321 C319 1.356 . S
H322 C316 0.930 . S
H323 C320 0.930 . S
O324 Li264 1.956 . S
O324 Li265 1.970 . S
O324 Li266 1.961 . S
O324 C268 1.325 . S
O325 Li264 1.970 . S
O325 Li265 1.956 . S
O325 Li267 1.961 . S
O325 C274 1.325 . S
O326 Li264 1.961 . S
O326 Li266 1.956 . S
O326 Li267 1.970 . S
O326 C296 1.325 . S
O327 Li265 1.961 . S
O327 Li266 1.970 . S
O327 Li267 1.956 . S
O327 C302 1.325 . S
H328 C270 0.929 . S
H329 C271 0.930 . S
H330 C272 0.930 . S
H331 C273 0.930 . S
H332 C275 0.930 . S
H333 C277 0.929 . S
H334 C278 0.930 . S
H335 C279 0.930 . S
H336 C282 0.930 . S
H337 C285 0.929 . S
H338 C290 0.929 . S
H339 C291 0.930 . S
H340 C298 0.929 . S
H341 C299 0.930 . S
H342 C300 0.930 . S
H343 C301 0.930 . S
H344 C303 0.929 . S
H345 C304 0.930 . S
H346 C305 0.930 . S
H347 C306 0.930 . S
H348 C310 0.929 . S
H349 C312 0.930 . S
H350 C318 0.929 . S
H351 C319 0.930 . S
Li352 N369 1.990 . S
Li352 O412 1.956 . S
Li352 O413 1.970 . S
Li352 O414 1.961 . S
Li353 N377 1.990 . S
Li353 O412 1.970 . S
Li353 O413 1.956 . S
Li353 O415 1.961 . S
Li354 N399 1.990 . S
Li354 O412 1.961 . S
Li354 O414 1.956 . S
Li354 O415 1.970 . S
Li355 N405 1.990 . S
Li355 O413 1.961 . S
Li355 O414 1.970 . S
Li355 O415 1.956 . S
C356 C358 1.348 . S
C356 C359 1.356 . S
C356 O412 1.325 . S
N357 C360 1.314 . S
N357 C361 1.279 . S
C358 C356 1.348 . S
C358 C360 1.353 . S
C358 H416 0.929 . S
C359 C356 1.356 . S
C359 C361 1.358 . S
C359 H417 0.930 . S
C360 N357 1.314 . S
C360 C358 1.353 . S
C360 H418 0.930 . S
C361 N357 1.279 . S
C361 C359 1.358 . S
C361 H419 0.930 . S
C362 C365 1.348 . S
C362 C366 1.356 . S
C362 O413 1.325 . S
C363 N364 1.279 . S
C363 C366 1.358 . S
C363 H420 0.930 . S
N364 C363 1.279 . S
N364 C367 1.314 . S
C365 C362 1.348 . S
C365 C367 1.353 . S
C365 H421 0.929 . S
C366 C362 1.356 . S
C366 C363 1.358 . S
C366 H422 0.930 . S
C367 N364 1.314 . S
C367 C365 1.353 . S
C367 H423 0.930 . S
C368 N369 1.314 . S
C368 C373 1.353 . S
C368 H374 0.930 . S
N369 Li352 1.990 . S
N369 C368 1.314 . S
N369 C371 1.279 . S
C370 C371 1.358 . S
C370 C372 1.356 . S
C370 H424 0.930 . S
C371 N369 1.279 . S
C371 C370 1.358 . S
C371 H375 0.930 . S
C372 C370 1.356 . S
C372 C373 1.348 . S
C373 C368 1.353 . S
C373 C372 1.348 . S
C373 H425 0.929 . S
H374 C368 0.930 . S
H375 C371 0.930 . S
C376 N377 1.314 . S
C376 C378 1.353 . S
C376 H382 0.930 . S
N377 Li353 1.990 . S
N377 C376 1.314 . S
N377 C380 1.279 . S
C378 C376 1.353 . S
C378 C381 1.348 . S
C378 H426 0.929 . S
C379 C380 1.358 . S
C379 C381 1.356 . S
C379 H427 0.930 . S
C380 N377 1.279 . S
C380 C379 1.358 . S
C380 H383 0.930 . S
C381 C378 1.348 . S
C381 C379 1.356 . S
H382 C376 0.930 . S
H383 C380 0.930 . S
C384 C386 1.348 . S
C384 C387 1.356 . S
C384 O414 1.325 . S
N385 C388 1.314 . S
N385 C389 1.279 . S
C386 C384 1.348 . S
C386 C388 1.353 . S
C386 H428 0.929 . S
C387 C384 1.356 . S
C387 C389 1.358 . S
C387 H429 0.930 . S
C388 N385 1.314 . S
C388 C386 1.353 . S
C388 H430 0.930 . S
C389 N385 1.279 . S
C389 C387 1.358 . S
C389 H431 0.930 . S
C390 C391 1.348 . S
C390 C392 1.356 . S
C390 O415 1.325 . S
C391 C390 1.348 . S
C391 C393 1.353 . S
C391 H432 0.929 . S
C392 C390 1.356 . S
C392 C394 1.358 . S
C392 H433 0.930 . S
C393 C391 1.353 . S
C393 N395 1.314 . S
C393 H434 0.930 . S
C394 C392 1.358 . S
C394 N395 1.279 . S
C394 H435 0.930 . S
N395 C393 1.314 . S
N395 C394 1.279 . S
C396 C398 1.353 . S
C396 N399 1.314 . S
C396 H402 0.930 . S
C397 N399 1.279 . S
C397 C400 1.358 . S
C397 H403 0.930 . S
C398 C396 1.353 . S
C398 C401 1.348 . S
C398 H436 0.929 . S
N399 Li354 1.990 . S
N399 C396 1.314 . S
N399 C397 1.279 . S
C400 C397 1.358 . S
C400 C401 1.356 . S
C400 H437 0.930 . S
C401 C398 1.348 . S
C401 C400 1.356 . S
H402 C396 0.930 . S
H403 C397 0.930 . S
C404 N405 1.314 . S
C404 C406 1.353 . S
C404 H410 0.930 . S
N405 Li355 1.990 . S
N405 C404 1.314 . S
N405 C408 1.279 . S
C406 C404 1.353 . S
C406 C409 1.348 . S
C406 H438 0.929 . S
C407 C408 1.358 . S
C407 C409 1.356 . S
C407 H439 0.930 . S
C408 N405 1.279 . S
C408 C407 1.358 . S
C408 H411 0.930 . S
C409 C406 1.348 . S
C409 C407 1.356 . S
H410 C404 0.930 . S
H411 C408 0.930 . S
O412 Li352 1.956 . S
O412 Li353 1.970 . S
O412 Li354 1.961 . S
O412 C356 1.325 . S
O413 Li352 1.970 . S
O413 Li353 1.956 . S
O413 Li355 1.961 . S
O413 C362 1.325 . S
O414 Li352 1.961 . S
O414 Li354 1.956 . S
O414 Li355 1.970 . S
O414 C384 1.325 . S
O415 Li353 1.961 . S
O415 Li354 1.970 . S
O415 Li355 1.956 . S
O415 C390 1.325 . S
H416 C358 0.929 . S
H417 C359 0.930 . S
H418 C360 0.930 . S
H419 C361 0.930 . S
H420 C363 0.930 . S
H421 C365 0.929 . S
H422 C366 0.930 . S
H423 C367 0.930 . S
H424 C370 0.930 . S
H425 C373 0.929 . S
H426 C378 0.929 . S
H427 C379 0.930 . S
H428 C386 0.929 . S
H429 C387 0.930 . S
H430 C388 0.930 . S
H431 C389 0.930 . S
H432 C391 0.929 . S
H433 C392 0.930 . S
H434 C393 0.930 . S
H435 C394 0.930 . S
H436 C398 0.929 . S
H437 C400 0.930 . S
H438 C406 0.929 . S
H439 C407 0.930 . S
Li440 N457 1.990 . S
Li440 O500 1.956 . S
Li440 O501 1.970 . S
Li440 O502 1.961 . S
Li441 N465 1.990 . S
Li441 O500 1.970 . S
Li441 O501 1.956 . S
Li441 O503 1.961 . S
Li442 N487 1.990 . S
Li442 O500 1.961 . S
Li442 O502 1.956 . S
Li442 O503 1.970 . S
Li443 N493 1.990 . S
Li443 O501 1.961 . S
Li443 O502 1.970 . S
Li443 O503 1.956 . S
C444 C446 1.348 . S
C444 C447 1.356 . S
C444 O500 1.325 . S
N445 C448 1.314 . S
N445 C449 1.279 . S
C446 C444 1.348 . S
C446 C448 1.353 . S
C446 H504 0.929 . S
C447 C444 1.356 . S
C447 C449 1.358 . S
C447 H505 0.930 . S
C448 N445 1.314 . S
C448 C446 1.353 . S
C448 H506 0.930 . S
C449 N445 1.279 . S
C449 C447 1.358 . S
C449 H507 0.930 . S
C450 C453 1.348 . S
C450 C454 1.356 . S
C450 O501 1.325 . S
C451 N452 1.279 . S
C451 C454 1.358 . S
C451 H508 0.930 . S
N452 C451 1.279 . S
N452 C455 1.314 . S
C453 C450 1.348 . S
C453 C455 1.353 . S
C453 H509 0.929 . S
C454 C450 1.356 . S
C454 C451 1.358 . S
C454 H510 0.930 . S
C455 N452 1.314 . S
C455 C453 1.353 . S
C455 H511 0.930 . S
C456 N457 1.314 . S
C456 C461 1.353 . S
C456 H462 0.930 . S
N457 Li440 1.990 . S
N457 C456 1.314 . S
N457 C459 1.279 . S
C458 C459 1.358 . S
C458 C460 1.356 . S
C458 H512 0.930 . S
C459 N457 1.279 . S
C459 C458 1.358 . S
C459 H463 0.930 . S
C460 C458 1.356 . S
C460 C461 1.348 . S
C461 C456 1.353 . S
C461 C460 1.348 . S
C461 H513 0.929 . S
H462 C456 0.930 . S
H463 C459 0.930 . S
C464 N465 1.314 . S
C464 C466 1.353 . S
C464 H470 0.930 . S
N465 Li441 1.990 . S
N465 C464 1.314 . S
N465 C468 1.279 . S
C466 C464 1.353 . S
C466 C469 1.348 . S
C466 H514 0.929 . S
C467 C468 1.358 . S
C467 C469 1.356 . S
C467 H515 0.930 . S
C468 N465 1.279 . S
C468 C467 1.358 . S
C468 H471 0.930 . S
C469 C466 1.348 . S
C469 C467 1.356 . S
H470 C464 0.930 . S
H471 C468 0.930 . S
C472 C474 1.348 . S
C472 C475 1.356 . S
C472 O502 1.325 . S
N473 C476 1.314 . S
N473 C477 1.279 . S
C474 C472 1.348 . S
C474 C476 1.353 . S
C474 H516 0.929 . S
C475 C472 1.356 . S
C475 C477 1.358 . S
C475 H517 0.930 . S
C476 N473 1.314 . S
C476 C474 1.353 . S
C476 H518 0.930 . S
C477 N473 1.279 . S
C477 C475 1.358 . S
C477 H519 0.930 . S
C478 C479 1.348 . S
C478 C480 1.356 . S
C478 O503 1.325 . S
C479 C478 1.348 . S
C479 C481 1.353 . S
C479 H520 0.929 . S
C480 C478 1.356 . S
C480 C482 1.358 . S
C480 H521 0.930 . S
C481 C479 1.353 . S
C481 N483 1.314 . S
C481 H522 0.930 . S
C482 C480 1.358 . S
C482 N483 1.279 . S
C482 H523 0.930 . S
N483 C481 1.314 . S
N483 C482 1.279 . S
C484 C486 1.353 . S
C484 N487 1.314 . S
C484 H490 0.930 . S
C485 N487 1.279 . S
C485 C488 1.358 . S
C485 H491 0.930 . S
C486 C484 1.353 . S
C486 C489 1.348 . S
C486 H524 0.929 . S
N487 Li442 1.990 . S
N487 C484 1.314 . S
N487 C485 1.279 . S
C488 C485 1.358 . S
C488 C489 1.356 . S
C488 H525 0.930 . S
C489 C486 1.348 . S
C489 C488 1.356 . S
H490 C484 0.930 . S
H491 C485 0.930 . S
C492 N493 1.314 . S
C492 C494 1.353 . S
C492 H498 0.930 . S
N493 Li443 1.990 . S
N493 C492 1.314 . S
N493 C496 1.279 . S
C494 C492 1.353 . S
C494 C497 1.348 . S
C494 H526 0.929 . S
C495 C496 1.358 . S
C495 C497 1.356 . S
C495 H527 0.930 1_545 S
C496 N493 1.279 . S
C496 C495 1.358 . S
C496 H499 0.930 . S
C497 C494 1.348 . S
C497 C495 1.356 . S
H498 C492 0.930 . S
H499 C496 0.930 . S
O500 Li440 1.956 . S
O500 Li441 1.970 . S
O500 Li442 1.961 . S
O500 C444 1.325 . S
O501 Li440 1.970 . S
O501 Li441 1.956 . S
O501 Li443 1.961 . S
O501 C450 1.325 . S
O502 Li440 1.961 . S
O502 Li442 1.956 . S
O502 Li443 1.970 . S
O502 C472 1.325 . S
O503 Li441 1.961 . S
O503 Li442 1.970 . S
O503 Li443 1.956 . S
O503 C478 1.325 . S
H504 C446 0.929 . S
H505 C447 0.930 . S
H506 C448 0.930 . S
H507 C449 0.930 . S
H508 C451 0.930 . S
H509 C453 0.929 . S
H510 C454 0.930 . S
H511 C455 0.930 . S
H512 C458 0.930 . S
H513 C461 0.929 . S
H514 C466 0.929 . S
H515 C467 0.930 . S
H516 C474 0.929 . S
H517 C475 0.930 . S
H518 C476 0.930 . S
H519 C477 0.930 . S
H520 C479 0.929 . S
H521 C480 0.930 . S
H522 C481 0.930 . S
H523 C482 0.930 . S
H524 C486 0.929 . S
H525 C488 0.930 . S
H526 C494 0.929 . S
H527 C495 0.930 1_565 S
Li528 N545 1.990 . S
Li528 O588 1.956 . S
Li528 O589 1.970 . S
Li528 O590 1.961 . S
Li529 N553 1.990 . S
Li529 O588 1.970 . S
Li529 O589 1.956 . S
Li529 O591 1.961 . S
Li530 N575 1.990 . S
Li530 O588 1.961 . S
Li530 O590 1.956 . S
Li530 O591 1.970 . S
Li531 N581 1.990 . S
Li531 O589 1.961 . S
Li531 O590 1.970 . S
Li531 O591 1.956 . S
C532 C534 1.348 . S
C532 C535 1.356 . S
C532 O588 1.325 . S
N533 C536 1.314 . S
N533 C537 1.279 . S
C534 C532 1.348 . S
C534 C536 1.353 . S
C534 H592 0.929 . S
C535 C532 1.356 . S
C535 C537 1.358 . S
C535 H593 0.930 . S
C536 N533 1.314 . S
C536 C534 1.353 . S
C536 H594 0.930 . S
C537 N533 1.279 . S
C537 C535 1.358 . S
C537 H595 0.930 . S
C538 C541 1.348 . S
C538 C542 1.356 . S
C538 O589 1.325 . S
C539 N540 1.279 . S
C539 C542 1.358 . S
C539 H596 0.930 . S
N540 C539 1.279 . S
N540 C543 1.314 . S
C541 C538 1.348 . S
C541 C543 1.353 . S
C541 H597 0.929 . S
C542 C538 1.356 . S
C542 C539 1.358 . S
C542 H598 0.930 . S
C543 N540 1.314 . S
C543 C541 1.353 . S
C543 H599 0.930 . S
C544 N545 1.314 . S
C544 C549 1.353 . S
C544 H550 0.930 . S
N545 Li528 1.990 . S
N545 C544 1.314 . S
N545 C547 1.279 . S
C546 C547 1.358 . S
C546 C548 1.356 . S
C546 H600 0.930 . S
C547 N545 1.279 . S
C547 C546 1.358 . S
C547 H551 0.930 . S
C548 C546 1.356 . S
C548 C549 1.348 . S
C549 C544 1.353 . S
C549 C548 1.348 . S
C549 H601 0.929 . S
H550 C544 0.930 . S
H551 C547 0.930 . S
C552 N553 1.314 . S
C552 C554 1.353 . S
C552 H558 0.930 . S
N553 Li529 1.990 . S
N553 C552 1.314 . S
N553 C556 1.279 . S
C554 C552 1.353 . S
C554 C557 1.348 . S
C554 H602 0.929 . S
C555 C556 1.358 . S
C555 C557 1.356 . S
C555 H603 0.930 . S
C556 N553 1.279 . S
C556 C555 1.358 . S
C556 H559 0.930 . S
C557 C554 1.348 . S
C557 C555 1.356 . S
H558 C552 0.930 . S
H559 C556 0.930 . S
C560 C562 1.348 . S
C560 C563 1.356 . S
C560 O590 1.325 . S
N561 C564 1.314 . S
N561 C565 1.279 . S
C562 C560 1.348 . S
C562 C564 1.353 . S
C562 H604 0.929 . S
C563 C560 1.356 . S
C563 C565 1.358 . S
C563 H605 0.930 . S
C564 N561 1.314 . S
C564 C562 1.353 . S
C564 H606 0.930 . S
C565 N561 1.279 . S
C565 C563 1.358 . S
C565 H607 0.930 . S
C566 C567 1.348 . S
C566 C568 1.356 . S
C566 O591 1.325 . S
C567 C566 1.348 . S
C567 C569 1.353 . S
C567 H608 0.929 . S
C568 C566 1.356 . S
C568 C570 1.358 . S
C568 H609 0.930 . S
C569 C567 1.353 . S
C569 N571 1.314 . S
C569 H610 0.930 . S
C570 C568 1.358 . S
C570 N571 1.279 . S
C570 H611 0.930 . S
N571 C569 1.314 . S
N571 C570 1.279 . S
C572 C574 1.353 . S
C572 N575 1.314 . S
C572 H578 0.930 . S
C573 N575 1.279 . S
C573 C576 1.358 . S
C573 H579 0.930 . S
C574 C572 1.353 . S
C574 C577 1.348 . S
C574 H612 0.929 . S
N575 Li530 1.990 . S
N575 C572 1.314 . S
N575 C573 1.279 . S
C576 C573 1.358 . S
C576 C577 1.356 . S
C576 H613 0.930 . S
C577 C574 1.348 . S
C577 C576 1.356 . S
H578 C572 0.930 . S
H579 C573 0.930 . S
C580 N581 1.314 . S
C580 C582 1.353 . S
C580 H586 0.930 . S
N581 Li531 1.990 . S
N581 C580 1.314 . S
N581 C584 1.279 . S
C582 C580 1.353 . S
C582 C585 1.348 . S
C582 H614 0.929 . S
C583 C584 1.358 . S
C583 C585 1.356 . S
C583 H615 0.930 . S
C584 N581 1.279 . S
C584 C583 1.358 . S
C584 H587 0.930 . S
C585 C582 1.348 . S
C585 C583 1.356 . S
H586 C580 0.930 . S
H587 C584 0.930 . S
O588 Li528 1.956 . S
O588 Li529 1.970 . S
O588 Li530 1.961 . S
O588 C532 1.325 . S
O589 Li528 1.970 . S
O589 Li529 1.956 . S
O589 Li531 1.961 . S
O589 C538 1.325 . S
O590 Li528 1.961 . S
O590 Li530 1.956 . S
O590 Li531 1.970 . S
O590 C560 1.325 . S
O591 Li529 1.961 . S
O591 Li530 1.970 . S
O591 Li531 1.956 . S
O591 C566 1.325 . S
H592 C534 0.929 . S
H593 C535 0.930 . S
H594 C536 0.930 . S
H595 C537 0.930 . S
H596 C539 0.930 . S
H597 C541 0.929 . S
H598 C542 0.930 . S
H599 C543 0.930 . S
H600 C546 0.930 . S
H601 C549 0.929 . S
H602 C554 0.929 . S
H603 C555 0.930 . S
H604 C562 0.929 . S
H605 C563 0.930 . S
H606 C564 0.930 . S
H607 C565 0.930 . S
H608 C567 0.929 . S
H609 C568 0.930 . S
H610 C569 0.930 . S
H611 C570 0.930 . S
H612 C574 0.929 . S
H613 C576 0.930 . S
H614 C582 0.929 . S
H615 C583 0.930 . S
Li616 N633 1.990 . S
Li616 O676 1.956 . S
Li616 O677 1.970 . S
Li616 O678 1.961 . S
Li617 N641 1.990 . S
Li617 O676 1.970 . S
Li617 O677 1.956 . S
Li617 O679 1.961 . S
Li618 N663 1.990 . S
Li618 O676 1.961 . S
Li618 O678 1.956 . S
Li618 O679 1.970 . S
Li619 N669 1.990 . S
Li619 O677 1.961 . S
Li619 O678 1.970 . S
Li619 O679 1.956 . S
C620 C622 1.348 . S
C620 C623 1.356 . S
C620 O676 1.325 . S
N621 C624 1.314 . S
N621 C625 1.279 . S
C622 C620 1.348 . S
C622 C624 1.353 . S
C622 H680 0.929 . S
C623 C620 1.356 . S
C623 C625 1.358 . S
C623 H681 0.930 . S
C624 N621 1.314 . S
C624 C622 1.353 . S
C624 H682 0.930 . S
C625 N621 1.279 . S
C625 C623 1.358 . S
C625 H683 0.930 . S
C626 C629 1.348 . S
C626 C630 1.356 . S
C626 O677 1.325 . S
C627 N628 1.279 . S
C627 C630 1.358 . S
C627 H684 0.930 . S
N628 C627 1.279 . S
N628 C631 1.314 . S
C629 C626 1.348 . S
C629 C631 1.353 . S
C629 H685 0.929 . S
C630 C626 1.356 . S
C630 C627 1.358 . S
C630 H686 0.930 . S
C631 N628 1.314 . S
C631 C629 1.353 . S
C631 H687 0.930 . S
C632 N633 1.314 . S
C632 C637 1.353 . S
C632 H638 0.930 . S
N633 Li616 1.990 . S
N633 C632 1.314 . S
N633 C635 1.279 . S
C634 C635 1.358 . S
C634 C636 1.356 . S
C634 H688 0.930 1_565 S
C635 N633 1.279 . S
C635 C634 1.358 . S
C635 H639 0.930 . S
C636 C634 1.356 . S
C636 C637 1.348 . S
C637 C632 1.353 . S
C637 C636 1.348 . S
C637 H689 0.929 . S
H638 C632 0.930 . S
H639 C635 0.930 . S
C640 N641 1.314 . S
C640 C642 1.353 . S
C640 H646 0.930 . S
N641 Li617 1.990 . S
N641 C640 1.314 . S
N641 C644 1.279 . S
C642 C640 1.353 . S
C642 C645 1.348 . S
C642 H690 0.929 . S
C643 C644 1.358 . S
C643 C645 1.356 . S
C643 H691 0.930 . S
C644 N641 1.279 . S
C644 C643 1.358 . S
C644 H647 0.930 . S
C645 C642 1.348 . S
C645 C643 1.356 . S
H646 C640 0.930 . S
H647 C644 0.930 . S
C648 C650 1.348 . S
C648 C651 1.356 . S
C648 O678 1.325 . S
N649 C652 1.314 . S
N649 C653 1.279 . S
C650 C648 1.348 . S
C650 C652 1.353 . S
C650 H692 0.929 . S
C651 C648 1.356 . S
C651 C653 1.358 . S
C651 H693 0.930 . S
C652 N649 1.314 . S
C652 C650 1.353 . S
C652 H694 0.930 . S
C653 N649 1.279 . S
C653 C651 1.358 . S
C653 H695 0.930 . S
C654 C655 1.348 . S
C654 C656 1.356 . S
C654 O679 1.325 . S
C655 C654 1.348 . S
C655 C657 1.353 . S
C655 H696 0.929 . S
C656 C654 1.356 . S
C656 C658 1.358 . S
C656 H697 0.930 . S
C657 C655 1.353 . S
C657 N659 1.314 . S
C657 H698 0.930 . S
C658 C656 1.358 . S
C658 N659 1.279 . S
C658 H699 0.930 . S
N659 C657 1.314 . S
N659 C658 1.279 . S
C660 C662 1.353 . S
C660 N663 1.314 . S
C660 H666 0.930 . S
C661 N663 1.279 . S
C661 C664 1.358 . S
C661 H667 0.930 . S
C662 C660 1.353 . S
C662 C665 1.348 . S
C662 H700 0.929 . S
N663 Li618 1.990 . S
N663 C660 1.314 . S
N663 C661 1.279 . S
C664 C661 1.358 . S
C664 C665 1.356 . S
C664 H701 0.930 . S
C665 C662 1.348 . S
C665 C664 1.356 . S
H666 C660 0.930 . S
H667 C661 0.930 . S
C668 N669 1.314 . S
C668 C670 1.353 . S
C668 H674 0.930 . S
N669 Li619 1.990 . S
N669 C668 1.314 . S
N669 C672 1.279 . S
C670 C668 1.353 . S
C670 C673 1.348 . S
C670 H702 0.929 . S
C671 C672 1.358 . S
C671 C673 1.356 . S
C671 H703 0.930 . S
C672 N669 1.279 . S
C672 C671 1.358 . S
C672 H675 0.930 . S
C673 C670 1.348 . S
C673 C671 1.356 . S
H674 C668 0.930 . S
H675 C672 0.930 . S
O676 Li616 1.956 . S
O676 Li617 1.970 . S
O676 Li618 1.961 . S
O676 C620 1.325 . S
O677 Li616 1.970 . S
O677 Li617 1.956 . S
O677 Li619 1.961 . S
O677 C626 1.325 . S
O678 Li616 1.961 . S
O678 Li618 1.956 . S
O678 Li619 1.970 . S
O678 C648 1.325 . S
O679 Li617 1.961 . S
O679 Li618 1.970 . S
O679 Li619 1.956 . S
O679 C654 1.325 . S
H680 C622 0.929 . S
H681 C623 0.930 . S
H682 C624 0.930 . S
H683 C625 0.930 . S
H684 C627 0.930 . S
H685 C629 0.929 . S
H686 C630 0.930 . S
H687 C631 0.930 . S
H688 C634 0.930 1_545 S
H689 C637 0.929 . S
H690 C642 0.929 . S
H691 C643 0.930 . S
H692 C650 0.929 . S
H693 C651 0.930 . S
H694 C652 0.930 . S
H695 C653 0.930 . S
H696 C655 0.929 . S
H697 C656 0.930 . S
H698 C657 0.930 . S
H699 C658 0.930 . S
H700 C662 0.929 . S
H701 C664 0.930 . S
H702 C670 0.929 . S
H703 C671 0.930 . S
H704 C712 0.929 . S
H705 C714 0.930 . S
H706 C716 0.930 . S
H707 C719 0.929 . S
H708 C722 0.930 . S
H709 C724 0.976 . S
H710 C724 0.946 1_455 S
H711 C724 0.960 1_455 S
C712 H704 0.929 . S
C712 C713 1.377 . S
C712 C714 1.384 . S
C713 C712 1.377 . S
C713 C719 1.390 . S
C714 H705 0.930 . S
C714 C712 1.384 . S
C714 C715 1.372 . S
C715 C714 1.372 . S
C715 C716 1.400 . S
C715 C720 1.490 . S
C716 H706 0.930 . S
C716 C715 1.400 . S
C716 C719 1.386 . S
H717 C733 0.930 . S
H718 C734 0.931 . S
C719 H707 0.929 . S
C719 C713 1.390 . S
C719 C716 1.386 . S
C720 C715 1.490 . S
C720 C722 1.395 1_545 S
C720 C723 1.403 . S
H721 C727 0.928 1_545 S
C722 H708 0.930 . S
C722 C720 1.395 1_565 S
C722 C725 1.403 . S
C723 C720 1.403 . S
C723 C724 1.523 1_455 S
C723 C727 1.382 1_445 S
C724 H709 0.976 . S
C724 H710 0.946 1_655 S
C724 H711 0.960 1_655 S
C724 C723 1.523 1_655 S
C725 C722 1.403 . S
C725 C726 1.392 1_455 S
C725 C729 1.495 . S
C726 C725 1.392 1_655 S
C726 C727 1.405 . S
C726 C728 1.478 . S
C727 H721 0.928 1_565 S
C727 C723 1.382 1_665 S
C727 C726 1.405 . S
C728 C726 1.478 . S
C728 C730 1.381 . S
C728 C734 1.383 . S
C729 C725 1.495 . S
C729 H735 0.959 . S
C729 H736 0.961 1_455 S
C729 H737 0.960 . S
C730 C728 1.381 . S
C730 C731 1.394 . S
C730 H738 0.930 . S
C731 C730 1.394 . S
C731 C732 1.383 . S
C731 H739 0.929 . S
C732 C731 1.383 . S
C732 C733 1.377 . S
C733 H717 0.930 . S
C733 C732 1.377 . S
C733 C734 1.379 . S
C734 H718 0.931 . S
C734 C728 1.383 . S
C734 C733 1.379 . S
H735 C729 0.959 . S
H736 C729 0.961 1_655 S
H737 C729 0.960 . S
H738 C730 0.930 . S
H739 C731 0.929 . S
H740 C748 0.929 . S
H741 C750 0.930 . S
H742 C752 0.930 . S
H743 C755 0.929 . S
H744 C758 0.930 . S
H745 C760 0.960 . S
H746 C760 0.960 . S
H747 C760 0.960 . S
C748 H740 0.929 . S
C748 C749 1.377 . S
C748 C750 1.384 . S
C749 C748 1.377 . S
C749 C755 1.390 . S
C750 H741 0.930 . S
C750 C748 1.384 . S
C750 C751 1.372 . S
C751 C750 1.372 . S
C751 C752 1.400 . S
C751 C756 1.490 . S
C752 H742 0.930 . S
C752 C751 1.400 . S
C752 C755 1.386 . S
H753 C769 0.930 . S
H754 C770 0.931 . S
C755 H743 0.929 . S
C755 C749 1.390 . S
C755 C752 1.386 . S
C756 C751 1.490 . S
C756 C758 1.395 . S
C756 C759 1.403 . S
H757 C763 0.930 . S
C758 H744 0.930 . S
C758 C756 1.395 . S
C758 C761 1.403 . S
C759 C756 1.403 . S
C759 C760 1.524 . S
C759 C763 1.400 . S
C760 H745 0.960 . S
C760 H746 0.960 . S
C760 H747 0.960 . S
C760 C759 1.524 . S
C761 C758 1.403 . S
C761 C762 1.392 . S
C761 C765 1.495 . S
C762 C761 1.392 . S
C762 C763 1.385 . S
C762 C764 1.478 . S
C763 H757 0.930 . S
C763 C759 1.400 . S
C763 C762 1.385 . S
C764 C762 1.478 . S
C764 C766 1.381 . S
C764 C770 1.383 . S
C765 C761 1.495 . S
C765 H771 0.959 . S
C765 H772 0.961 . S
C765 H773 0.960 . S
C766 C764 1.381 . S
C766 C767 1.394 . S
C766 H774 0.930 . S
C767 C766 1.394 . S
C767 C768 1.383 . S
C767 H775 0.929 . S
C768 C767 1.383 . S
C768 C769 1.377 . S
C769 H753 0.930 . S
C769 C768 1.377 . S
C769 C770 1.379 . S
C770 H754 0.931 . S
C770 C764 1.383 . S
C770 C769 1.379 . S
H771 C765 0.959 . S
H772 C765 0.961 . S
H773 C765 0.960 . S
H774 C766 0.930 . S
H775 C767 0.929 . S
H776 C784 0.929 . S
H777 C786 0.930 . S
H778 C788 0.930 . S
H779 C791 0.929 . S
H780 C794 0.930 . S
H781 C796 0.960 . S
H782 C796 0.960 . S
H783 C796 0.960 . S
C784 H776 0.929 . S
C784 C785 1.377 . S
C784 C786 1.384 . S
C785 C784 1.377 . S
C785 C791 1.390 . S
C786 H777 0.930 . S
C786 C784 1.384 . S
C786 C787 1.372 . S
C787 C786 1.372 . S
C787 C788 1.400 . S
C787 C792 1.490 . S
C788 H778 0.930 . S
C788 C787 1.400 . S
C788 C791 1.386 . S
H789 C805 0.930 . S
H790 C806 0.931 . S
C791 H779 0.929 . S
C791 C785 1.390 . S
C791 C788 1.386 . S
C792 C787 1.490 . S
C792 C794 1.395 . S
C792 C795 1.403 . S
H793 C799 0.930 . S
C794 H780 0.930 . S
C794 C792 1.395 . S
C794 C797 1.403 . S
C795 C792 1.403 . S
C795 C796 1.524 . S
C795 C799 1.400 . S
C796 H781 0.960 . S
C796 H782 0.960 . S
C796 H783 0.960 . S
C796 C795 1.524 . S
C797 C794 1.403 . S
C797 C798 1.392 . S
C797 C801 1.495 . S
C798 C797 1.392 . S
C798 C799 1.385 . S
C798 C800 1.478 . S
C799 H793 0.930 . S
C799 C795 1.400 . S
C799 C798 1.385 . S
C800 C798 1.478 . S
C800 C802 1.381 . S
C800 C806 1.383 . S
C801 C797 1.495 . S
C801 H807 0.959 . S
C801 H808 0.961 . S
C801 H809 0.960 . S
C802 C800 1.381 . S
C802 C803 1.394 . S
C802 H810 0.930 . S
C803 C802 1.394 . S
C803 C804 1.383 . S
C803 H811 0.929 . S
C804 C803 1.383 . S
C804 C805 1.377 . S
C805 H789 0.930 . S
C805 C804 1.377 . S
C805 C806 1.379 . S
C806 H790 0.931 . S
C806 C800 1.383 . S
C806 C805 1.379 . S
H807 C801 0.959 . S
H808 C801 0.961 . S
H809 C801 0.960 . S
H810 C802 0.930 . S
H811 C803 0.929 . S
H812 C820 0.929 . S
H813 C822 0.930 . S
H814 C824 0.930 . S
H815 C827 0.929 . S
H816 C830 0.930 . S
H817 C832 0.960 . S
H818 C832 0.960 . S
H819 C832 0.960 . S
C820 H812 0.929 . S
C820 C821 1.377 . S
C820 C822 1.384 . S
C821 C820 1.377 . S
C821 C827 1.390 . S
C822 H813 0.930 . S
C822 C820 1.384 . S
C822 C823 1.372 . S
C823 C822 1.372 . S
C823 C824 1.400 . S
C823 C828 1.490 . S
C824 H814 0.930 . S
C824 C823 1.400 . S
C824 C827 1.386 . S
H825 C841 0.930 . S
H826 C842 0.931 . S
C827 H815 0.929 . S
C827 C821 1.390 . S
C827 C824 1.386 . S
C828 C823 1.490 . S
C828 C830 1.395 1_455 S
C828 C831 1.403 1_545 S
H829 C835 0.930 . S
C830 H816 0.930 . S
C830 C828 1.395 1_655 S
C830 C833 1.403 . S
C831 C828 1.403 1_565 S
C831 C832 1.524 . S
C831 C835 1.400 . S
C832 H817 0.960 . S
C832 H818 0.960 . S
C832 H819 0.960 . S
C832 C831 1.524 . S
C833 C830 1.403 . S
C833 C834 1.392 1_545 S
C833 C837 1.495 . S
C834 C833 1.392 1_565 S
C834 C835 1.385 1_655 S
C834 C836 1.478 . S
C835 H829 0.930 . S
C835 C831 1.400 . S
C835 C834 1.385 1_455 S
C836 C834 1.478 . S
C836 C838 1.381 . S
C836 C842 1.383 . S
C837 C833 1.495 . S
C837 H843 0.959 . S
C837 H844 0.961 . S
C837 H845 0.960 . S
C838 C836 1.381 . S
C838 C839 1.394 . S
C838 H846 0.930 . S
C839 C838 1.394 . S
C839 C840 1.383 . S
C839 H847 0.929 . S
C840 C839 1.383 . S
C840 C841 1.377 . S
C841 H825 0.930 . S
C841 C840 1.377 . S
C841 C842 1.379 . S
C842 H826 0.931 . S
C842 C836 1.383 . S
C842 C841 1.379 . S
H843 C837 0.959 . S
H844 C837 0.961 . S
H845 C837 0.960 . S
H846 C838 0.930 . S
H847 C839 0.929 . S
H848 C856 0.929 . S
H849 C858 0.930 . S
H850 C860 0.930 . S
H851 C863 0.929 . S
H852 C866 0.930 . S
H853 C868 0.960 . S
H854 C868 0.960 . S
H855 C868 0.960 . S
C856 H848 0.929 . S
C856 C857 1.377 . S
C856 C858 1.384 . S
C857 C856 1.377 . S
C857 C863 1.390 . S
C858 H849 0.930 . S
C858 C856 1.384 . S
C858 C859 1.372 . S
C859 C858 1.372 . S
C859 C860 1.400 . S
C859 C864 1.490 . S
C860 H850 0.930 . S
C860 C859 1.400 . S
C860 C863 1.386 . S
H861 C877 0.930 . S
H862 C878 0.931 . S
C863 H851 0.929 . S
C863 C857 1.390 . S
C863 C860 1.386 . S
C864 C859 1.490 . S
C864 C866 1.395 . S
C864 C867 1.403 . S
H865 C871 0.930 . S
C866 H852 0.930 . S
C866 C864 1.395 . S
C866 C869 1.403 . S
C867 C864 1.403 . S
C867 C868 1.524 . S
C867 C871 1.400 . S
C868 H853 0.960 . S
C868 H854 0.960 . S
C868 H855 0.960 . S
C868 C867 1.524 . S
C869 C866 1.403 . S
C869 C870 1.392 . S
C869 C873 1.495 . S
C870 C869 1.392 . S
C870 C871 1.385 . S
C870 C872 1.478 . S
C871 H865 0.930 . S
C871 C867 1.400 . S
C871 C870 1.385 . S
C872 C870 1.478 . S
C872 C874 1.381 . S
C872 C878 1.383 . S
C873 C869 1.495 . S
C873 H879 0.959 . S
C873 H880 0.961 . S
C873 H881 0.960 . S
C874 C872 1.381 . S
C874 C875 1.394 . S
C874 H882 0.930 . S
C875 C874 1.394 . S
C875 C876 1.383 . S
C875 H883 0.929 . S
C876 C875 1.383 . S
C876 C877 1.377 . S
C877 H861 0.930 . S
C877 C876 1.377 . S
C877 C878 1.379 . S
C878 H862 0.931 . S
C878 C872 1.383 . S
C878 C877 1.379 . S
H879 C873 0.959 . S
H880 C873 0.961 . S
H881 C873 0.960 . S
H882 C874 0.930 . S
H883 C875 0.929 . S
H884 C892 0.929 . S
H885 C894 0.930 . S
H886 C896 0.930 . S
H887 C899 0.929 . S
H888 C902 0.930 . S
H889 C904 0.960 . S
H890 C904 0.960 . S
H891 C904 0.960 . S
C892 H884 0.929 . S
C892 C893 1.377 . S
C892 C894 1.384 . S
C893 C892 1.377 . S
C893 C899 1.390 . S
C894 H885 0.930 . S
C894 C892 1.384 . S
C894 C895 1.372 . S
C895 C894 1.372 . S
C895 C896 1.400 . S
C895 C900 1.490 . S
C896 H886 0.930 . S
C896 C895 1.400 . S
C896 C899 1.386 . S
H897 C913 0.930 . S
H898 C914 0.931 . S
C899 H887 0.929 . S
C899 C893 1.390 . S
C899 C896 1.386 . S
C900 C895 1.490 . S
C900 C902 1.395 . S
C900 C903 1.403 . S
H901 C907 0.930 . S
C902 H888 0.930 . S
C902 C900 1.395 . S
C902 C905 1.403 1_556 S
C903 C900 1.403 . S
C903 C904 1.524 . S
C903 C907 1.400 1_556 S
C904 H889 0.960 . S
C904 H890 0.960 . S
C904 H891 0.960 . S
C904 C903 1.524 . S
C905 C902 1.403 1_554 S
C905 C906 1.392 . S
C905 C909 1.495 . S
C906 C905 1.392 . S
C906 C907 1.385 . S
C906 C908 1.478 . S
C907 H901 0.930 . S
C907 C903 1.400 1_554 S
C907 C906 1.385 . S
C908 C906 1.478 . S
C908 C910 1.381 . S
C908 C914 1.383 . S
C909 C905 1.495 . S
C909 H915 0.959 . S
C909 H916 0.961 . S
C909 H917 0.960 . S
C910 C908 1.381 . S
C910 C911 1.394 . S
C910 H918 0.930 . S
C911 C910 1.394 . S
C911 C912 1.383 . S
C911 H919 0.929 . S
C912 C911 1.383 . S
C912 C913 1.377 . S
C913 H897 0.930 . S
C913 C912 1.377 . S
C913 C914 1.379 . S
C914 H898 0.931 . S
C914 C908 1.383 . S
C914 C913 1.379 . S
H915 C909 0.959 . S
H916 C909 0.961 . S
H917 C909 0.960 . S
H918 C910 0.930 . S
H919 C911 0.929 . S
H920 C928 0.929 . S
H921 C930 0.930 . S
H922 C932 0.930 . S
H923 C935 0.929 . S
H924 C938 0.930 . S
H925 C940 0.960 . S
H926 C940 0.960 . S
H927 C940 0.960 . S
C928 H920 0.929 . S
C928 C929 1.377 . S
C928 C930 1.384 . S
C929 C928 1.377 . S
C929 C935 1.390 . S
C930 H921 0.930 . S
C930 C928 1.384 . S
C930 C931 1.372 . S
C931 C930 1.372 . S
C931 C932 1.400 . S
C931 C936 1.490 . S
C932 H922 0.930 . S
C932 C931 1.400 . S
C932 C935 1.386 . S
H933 C949 0.930 . S
H934 C950 0.931 . S
C935 H923 0.929 . S
C935 C929 1.390 . S
C935 C932 1.386 . S
C936 C931 1.490 . S
C936 C938 1.395 . S
C936 C939 1.403 . S
H937 C943 0.930 . S
C938 H924 0.930 . S
C938 C936 1.395 . S
C938 C941 1.403 . S
C939 C936 1.403 . S
C939 C940 1.524 . S
C939 C943 1.400 . S
C940 H925 0.960 . S
C940 H926 0.960 . S
C940 H927 0.960 . S
C940 C939 1.524 . S
C941 C938 1.403 . S
C941 C942 1.392 . S
C941 C945 1.495 . S
C942 C941 1.392 . S
C942 C943 1.385 . S
C942 C944 1.478 . S
C943 H937 0.930 . S
C943 C939 1.400 . S
C943 C942 1.385 . S
C944 C942 1.478 . S
C944 C946 1.381 . S
C944 C950 1.383 . S
C945 C941 1.495 . S
C945 H951 0.959 . S
C945 H952 0.961 . S
C945 H953 0.960 . S
C946 C944 1.381 . S
C946 C947 1.394 . S
C946 H954 0.930 . S
C947 C946 1.394 . S
C947 C948 1.383 . S
C947 H955 0.929 . S
C948 C947 1.383 . S
C948 C949 1.377 . S
C949 H933 0.930 . S
C949 C948 1.377 . S
C949 C950 1.379 . S
C950 H934 0.931 . S
C950 C944 1.383 . S
C950 C949 1.379 . S
H951 C945 0.959 . S
H952 C945 0.961 . S
H953 C945 0.960 . S
H954 C946 0.930 . S
H955 C947 0.929 . S
H956 C964 0.929 . S
H957 C966 0.930 . S
H958 C968 0.930 . S
H959 C971 0.929 . S
H960 C974 0.930 . S
H961 C976 0.960 . S
H962 C976 0.960 . S
H963 C976 0.960 . S
C964 H956 0.929 . S
C964 C965 1.377 . S
C964 C966 1.384 . S
C965 C964 1.377 . S
C965 C971 1.390 . S
C966 H957 0.930 . S
C966 C964 1.384 . S
C966 C967 1.372 . S
C967 C966 1.372 . S
C967 C968 1.400 . S
C967 C972 1.490 . S
C968 H958 0.930 . S
C968 C967 1.400 . S
C968 C971 1.386 . S
H969 C985 0.930 . S
H970 C986 0.931 . S
C971 H959 0.929 . S
C971 C965 1.390 . S
C971 C968 1.386 . S
C972 C967 1.490 . S
C972 C974 1.395 . S
C972 C975 1.403 . S
H973 C979 0.930 . S
C974 H960 0.930 . S
C974 C972 1.395 . S
C974 C977 1.403 1_556 S
C975 C972 1.403 . S
C975 C976 1.524 . S
C975 C979 1.400 1_556 S
C976 H961 0.960 . S
C976 H962 0.960 . S
C976 H963 0.960 . S
C976 C975 1.524 . S
C977 C974 1.403 1_554 S
C977 C978 1.392 . S
C977 C981 1.495 . S
C978 C977 1.392 . S
C978 C979 1.385 . S
C978 C980 1.478 . S
C979 H973 0.930 . S
C979 C975 1.400 1_554 S
C979 C978 1.385 . S
C980 C978 1.478 . S
C980 C982 1.381 . S
C980 C986 1.383 . S
C981 C977 1.495 . S
C981 H987 0.959 . S
C981 H988 0.961 . S
C981 H989 0.960 . S
C982 C980 1.381 . S
C982 C983 1.394 . S
C982 H990 0.930 . S
C983 C982 1.394 . S
C983 C984 1.383 . S
C983 H991 0.929 . S
C984 C983 1.383 . S
C984 C985 1.377 . S
C985 H969 0.930 . S
C985 C984 1.377 . S
C985 C986 1.379 . S
C986 H970 0.931 . S
C986 C980 1.383 . S
C986 C985 1.379 . S
H987 C981 0.959 . S
H988 C981 0.961 . S
H989 C981 0.960 . S
H990 C982 0.930 . S
H991 C983 0.929 . S
H992 C1000 0.929 . S
H993 C1002 0.930 . S
H994 C1004 0.930 . S
H995 C1007 0.929 . S
H996 C1010 0.930 . S
H997 C1012 0.960 . S
H998 C1012 0.960 . S
H999 C1012 0.960 . S
C1000 H992 0.929 . S
C1000 C1001 1.377 . S
C1000 C1002 1.384 . S
C1001 C1000 1.377 . S
C1001 C1007 1.390 . S
C1002 H993 0.930 . S
C1002 C1000 1.384 . S
C1002 C1003 1.372 . S
C1003 C1002 1.372 . S
C1003 C1004 1.400 . S
C1003 C1008 1.490 . S
C1004 H994 0.930 . S
C1004 C1003 1.400 . S
C1004 C1007 1.386 . S
H1005 C1021 0.930 . S
H1006 C1022 0.931 . S
C1007 H995 0.929 . S
C1007 C1001 1.390 . S
C1007 C1004 1.386 . S
C1008 C1003 1.490 . S
C1008 C1010 1.395 . S
C1008 C1011 1.403 . S
H1009 C1015 0.930 . S
C1010 H996 0.930 . S
C1010 C1008 1.395 . S
C1010 C1013 1.403 . S
C1011 C1008 1.403 . S
C1011 C1012 1.524 . S
C1011 C1015 1.400 . S
C1012 H997 0.960 . S
C1012 H998 0.960 . S
C1012 H999 0.960 . S
C1012 C1011 1.524 . S
C1013 C1010 1.403 . S
C1013 C1014 1.392 . S
C1013 C1017 1.495 . S
C1014 C1013 1.392 . S
C1014 C1015 1.385 . S
C1014 C1016 1.478 . S
C1015 H1009 0.930 . S
C1015 C1011 1.400 . S
C1015 C1014 1.385 . S
C1016 C1014 1.478 . S
C1016 C1018 1.381 . S
C1016 C1022 1.383 . S
C1017 C1013 1.495 . S
C1017 H1023 0.959 . S
C1017 H1024 0.961 . S
C1017 H1025 0.960 . S
C1018 C1016 1.381 . S
C1018 C1019 1.394 . S
C1018 H1026 0.930 . S
C1019 C1018 1.394 . S
C1019 C1020 1.383 . S
C1019 H1027 0.929 . S
C1020 C1019 1.383 . S
C1020 C1021 1.377 . S
C1021 H1005 0.930 . S
C1021 C1020 1.377 . S
C1021 C1022 1.379 . S
C1022 H1006 0.931 . S
C1022 C1016 1.383 . S
C1022 C1021 1.379 . S
H1023 C1017 0.959 . S
H1024 C1017 0.961 . S
H1025 C1017 0.960 . S
H1026 C1018 0.930 . S
H1027 C1019 0.929 . S
H1028 C1036 0.929 . S
H1029 C1038 0.930 . S
H1030 C1040 0.930 . S
H1031 C1043 0.929 . S
H1032 C1046 0.930 . S
H1033 C1048 0.960 . S
H1034 C1048 0.960 . S
H1035 C1048 0.960 . S
C1036 H1028 0.929 . S
C1036 C1037 1.377 . S
C1036 C1038 1.384 . S
C1037 C1036 1.377 . S
C1037 C1043 1.390 . S
C1038 H1029 0.930 . S
C1038 C1036 1.384 . S
C1038 C1039 1.372 . S
C1039 C1038 1.372 . S
C1039 C1040 1.400 . S
C1039 C1044 1.490 . S
C1040 H1030 0.930 . S
C1040 C1039 1.400 . S
C1040 C1043 1.386 . S
H1041 C1057 0.930 . S
H1042 C1058 0.931 . S
C1043 H1031 0.929 . S
C1043 C1037 1.390 . S
C1043 C1040 1.386 . S
C1044 C1039 1.490 . S
C1044 C1046 1.395 . S
C1044 C1047 1.403 . S
H1045 C1051 0.930 . S
C1046 H1032 0.930 . S
C1046 C1044 1.395 . S
C1046 C1049 1.403 . S
C1047 C1044 1.403 . S
C1047 C1048 1.524 . S
C1047 C1051 1.400 . S
C1048 H1033 0.960 . S
C1048 H1034 0.960 . S
C1048 H1035 0.960 . S
C1048 C1047 1.524 . S
C1049 C1046 1.403 . S
C1049 C1050 1.392 . S
C1049 C1053 1.495 . S
C1050 C1049 1.392 . S
C1050 C1051 1.385 . S
C1050 C1052 1.478 . S
C1051 H1045 0.930 . S
C1051 C1047 1.400 . S
C1051 C1050 1.385 . S
C1052 C1050 1.478 . S
C1052 C1054 1.381 . S
C1052 C1058 1.383 . S
C1053 C1049 1.495 . S
C1053 H1059 0.959 . S
C1053 H1060 0.961 . S
C1053 H1061 0.960 . S
C1054 C1052 1.381 . S
C1054 C1055 1.394 . S
C1054 H1062 0.930 . S
C1055 C1054 1.394 . S
C1055 C1056 1.383 . S
C1055 H1063 0.929 . S
C1056 C1055 1.383 . S
C1056 C1057 1.377 . S
C1057 H1041 0.930 . S
C1057 C1056 1.377 . S
C1057 C1058 1.379 . S
C1058 H1042 0.931 . S
C1058 C1052 1.383 . S
C1058 C1057 1.379 . S
H1059 C1053 0.959 . S
H1060 C1053 0.961 . S
H1061 C1053 0.960 . S
H1062 C1054 0.930 . S
H1063 C1055 0.929 . S
H1064 C1072 0.929 . S
H1065 C1074 0.930 . S
H1066 C1076 0.930 . S
H1067 C1079 0.929 . S
H1068 C1082 0.930 . S
H1069 C1084 0.960 . S
H1070 C1084 0.960 . S
H1071 C1084 0.960 . S
C1072 H1064 0.929 . S
C1072 C1073 1.377 . S
C1072 C1074 1.384 . S
C1073 C1072 1.377 . S
C1073 C1079 1.390 . S
C1074 H1065 0.930 . S
C1074 C1072 1.384 . S
C1074 C1075 1.372 . S
C1075 C1074 1.372 . S
C1075 C1076 1.400 . S
C1075 C1080 1.490 . S
C1076 H1066 0.930 . S
C1076 C1075 1.400 . S
C1076 C1079 1.386 . S
H1077 C1093 0.930 . S
H1078 C1094 0.931 . S
C1079 H1067 0.929 . S
C1079 C1073 1.390 . S
C1079 C1076 1.386 . S
C1080 C1075 1.490 . S
C1080 C1082 1.395 . S
C1080 C1083 1.403 . S
H1081 C1087 0.930 . S
C1082 H1068 0.930 . S
C1082 C1080 1.395 . S
C1082 C1085 1.403 . S
C1083 C1080 1.403 . S
C1083 C1084 1.524 . S
C1083 C1087 1.400 . S
C1084 H1069 0.960 . S
C1084 H1070 0.960 . S
C1084 H1071 0.960 . S
C1084 C1083 1.524 . S
C1085 C1082 1.403 . S
C1085 C1086 1.392 . S
C1085 C1089 1.495 . S
C1086 C1085 1.392 . S
C1086 C1087 1.385 . S
C1086 C1088 1.478 . S
C1087 H1081 0.930 . S
C1087 C1083 1.400 . S
C1087 C1086 1.385 . S
C1088 C1086 1.478 . S
C1088 C1090 1.381 . S
C1088 C1094 1.383 . S
C1089 C1085 1.495 . S
C1089 H1095 0.959 . S
C1089 H1096 0.961 . S
C1089 H1097 0.960 . S
C1090 C1088 1.381 . S
C1090 C1091 1.394 . S
C1090 H1098 0.930 . S
C1091 C1090 1.394 . S
C1091 C1092 1.383 . S
C1091 H1099 0.929 . S
C1092 C1091 1.383 . S
C1092 C1093 1.377 . S
C1093 H1077 0.930 . S
C1093 C1092 1.377 . S
C1093 C1094 1.379 . S
C1094 H1078 0.931 . S
C1094 C1088 1.383 . S
C1094 C1093 1.379 . S
H1095 C1089 0.959 . S
H1096 C1089 0.961 . S
H1097 C1089 0.960 . S
H1098 C1090 0.930 . S
H1099 C1091 0.929 . S
H1100 C1108 0.929 . S
H1101 C1110 0.930 . S
H1102 C1112 0.930 . S
H1103 C1115 0.929 . S
H1104 C1118 0.930 . S
H1105 C1120 0.960 . S
H1106 C1120 0.960 . S
H1107 C1120 0.960 . S
C1108 H1100 0.929 . S
C1108 C1109 1.377 . S
C1108 C1110 1.384 . S
C1109 C1108 1.377 . S
C1109 C1115 1.390 . S
C1110 H1101 0.930 . S
C1110 C1108 1.384 . S
C1110 C1111 1.372 . S
C1111 C1110 1.372 . S
C1111 C1112 1.400 . S
C1111 C1116 1.490 . S
C1112 H1102 0.930 . S
C1112 C1111 1.400 . S
C1112 C1115 1.386 . S
H1113 C1129 0.930 . S
H1114 C1130 0.931 . S
C1115 H1103 0.929 . S
C1115 C1109 1.390 . S
C1115 C1112 1.386 . S
C1116 C1111 1.490 . S
C1116 C1118 1.395 . S
C1116 C1119 1.403 . S
H1117 C1123 0.930 . S
C1118 H1104 0.930 . S
C1118 C1116 1.395 . S
C1118 C1121 1.403 . S
C1119 C1116 1.403 . S
C1119 C1120 1.524 . S
C1119 C1123 1.400 . S
C1120 H1105 0.960 . S
C1120 H1106 0.960 . S
C1120 H1107 0.960 . S
C1120 C1119 1.524 . S
C1121 C1118 1.403 . S
C1121 C1122 1.392 . S
C1121 C1125 1.495 . S
C1122 C1121 1.392 . S
C1122 C1123 1.385 . S
C1122 C1124 1.478 . S
C1123 H1117 0.930 . S
C1123 C1119 1.400 . S
C1123 C1122 1.385 . S
C1124 C1122 1.478 . S
C1124 C1126 1.381 . S
C1124 C1130 1.383 . S
C1125 C1121 1.495 . S
C1125 H1131 0.959 . S
C1125 H1132 0.961 . S
C1125 H1133 0.960 . S
C1126 C1124 1.381 . S
C1126 C1127 1.394 . S
C1126 H1134 0.930 . S
C1127 C1126 1.394 . S
C1127 C1128 1.383 . S
C1127 H1135 0.929 . S
C1128 C1127 1.383 . S
C1128 C1129 1.377 . S
C1129 H1113 0.930 . S
C1129 C1128 1.377 . S
C1129 C1130 1.379 . S
C1130 H1114 0.931 . S
C1130 C1124 1.383 . S
C1130 C1129 1.379 . S
H1131 C1125 0.959 . S
H1132 C1125 0.961 . S
H1133 C1125 0.960 . S
H1134 C1126 0.930 . S
H1135 C1127 0.929 . S
H1136 C1144 0.929 . S
H1137 C1146 0.930 . S
H1138 C1148 0.930 . S
H1139 C1151 0.929 . S
H1140 C1154 0.930 . S
H1141 C1156 0.960 . S
H1142 C1156 0.960 . S
H1143 C1156 0.960 . S
C1144 H1136 0.929 . S
C1144 C1145 1.377 . S
C1144 C1146 1.384 . S
C1145 C1144 1.377 . S
C1145 C1151 1.390 . S
C1146 H1137 0.930 . S
C1146 C1144 1.384 . S
C1146 C1147 1.372 . S
C1147 C1146 1.372 . S
C1147 C1148 1.400 . S
C1147 C1152 1.490 . S
C1148 H1138 0.930 . S
C1148 C1147 1.400 . S
C1148 C1151 1.386 . S
H1149 C1165 0.930 . S
H1150 C1166 0.931 . S
C1151 H1139 0.929 . S
C1151 C1145 1.390 . S
C1151 C1148 1.386 . S
C1152 C1147 1.490 . S
C1152 C1154 1.395 . S
C1152 C1155 1.403 . S
H1153 C1159 0.930 . S
C1154 H1140 0.930 . S
C1154 C1152 1.395 . S
C1154 C1157 1.403 . S
C1155 C1152 1.403 . S
C1155 C1156 1.524 . S
C1155 C1159 1.400 . S
C1156 H1141 0.960 . S
C1156 H1142 0.960 . S
C1156 H1143 0.960 . S
C1156 C1155 1.524 . S
C1157 C1154 1.403 . S
C1157 C1158 1.392 . S
C1157 C1161 1.495 . S
C1158 C1157 1.392 . S
C1158 C1159 1.385 . S
C1158 C1160 1.478 . S
C1159 H1153 0.930 . S
C1159 C1155 1.400 . S
C1159 C1158 1.385 . S
C1160 C1158 1.478 . S
C1160 C1162 1.381 . S
C1160 C1166 1.383 . S
C1161 C1157 1.495 . S
C1161 H1167 0.959 . S
C1161 H1168 0.961 . S
C1161 H1169 0.960 . S
C1162 C1160 1.381 . S
C1162 C1163 1.394 . S
C1162 H1170 0.930 . S
C1163 C1162 1.394 . S
C1163 C1164 1.383 . S
C1163 H1171 0.929 . S
C1164 C1163 1.383 . S
C1164 C1165 1.377 . S
C1165 H1149 0.930 . S
C1165 C1164 1.377 . S
C1165 C1166 1.379 . S
C1166 H1150 0.931 . S
C1166 C1160 1.383 . S
C1166 C1165 1.379 . S
H1167 C1161 0.959 . S
H1168 C1161 0.961 . S
H1169 C1161 0.960 . S
H1170 C1162 0.930 . S
H1171 C1163 0.929 . S
H1172 C1180 0.929 . S
H1173 C1182 0.930 . S
H1174 C1184 0.930 . S
H1175 C1187 0.929 . S
H1176 C1190 0.930 . S
H1177 C1192 0.960 . S
H1178 C1192 0.960 . S
H1179 C1192 0.960 . S
C1180 H1172 0.929 . S
C1180 C1181 1.377 . S
C1180 C1182 1.384 . S
C1181 C1180 1.377 . S
C1181 C1187 1.390 . S
C1182 H1173 0.930 . S
C1182 C1180 1.384 . S
C1182 C1183 1.372 . S
C1183 C1182 1.372 . S
C1183 C1184 1.400 . S
C1183 C1188 1.490 . S
C1184 H1174 0.930 . S
C1184 C1183 1.400 . S
C1184 C1187 1.386 . S
H1185 C1201 0.930 . S
H1186 C1202 0.931 . S
C1187 H1175 0.929 . S
C1187 C1181 1.390 . S
C1187 C1184 1.386 . S
C1188 C1183 1.490 . S
C1188 C1190 1.395 . S
C1188 C1191 1.403 . S
H1189 C1195 0.930 . S
C1190 H1176 0.930 . S
C1190 C1188 1.395 . S
C1190 C1193 1.403 . S
C1191 C1188 1.403 . S
C1191 C1192 1.524 . S
C1191 C1195 1.400 . S
C1192 H1177 0.960 . S
C1192 H1178 0.960 . S
C1192 H1179 0.960 . S
C1192 C1191 1.524 . S
C1193 C1190 1.403 . S
C1193 C1194 1.392 . S
C1193 C1197 1.495 . S
C1194 C1193 1.392 . S
C1194 C1195 1.385 . S
C1194 C1196 1.478 . S
C1195 H1189 0.930 . S
C1195 C1191 1.400 . S
C1195 C1194 1.385 . S
C1196 C1194 1.478 . S
C1196 C1198 1.381 . S
C1196 C1202 1.383 . S
C1197 C1193 1.495 . S
C1197 H1203 0.959 . S
C1197 H1204 0.961 . S
C1197 H1205 0.960 . S
C1198 C1196 1.381 . S
C1198 C1199 1.394 . S
C1198 H1206 0.930 . S
C1199 C1198 1.394 . S
C1199 C1200 1.383 . S
C1199 H1207 0.929 . S
C1200 C1199 1.383 . S
C1200 C1201 1.377 . S
C1201 H1185 0.930 . S
C1201 C1200 1.377 . S
C1201 C1202 1.379 . S
C1202 H1186 0.931 . S
C1202 C1196 1.383 . S
C1202 C1201 1.379 . S
H1203 C1197 0.959 . S
H1204 C1197 0.961 . S
H1205 C1197 0.960 . S
H1206 C1198 0.930 . S
H1207 C1199 0.929 . S
H1208 C1216 0.929 . S
H1209 C1218 0.930 . S
H1210 C1220 0.930 . S
H1211 C1223 0.929 . S
H1212 C1226 0.930 . S
H1213 C1228 0.960 . S
H1214 C1228 0.960 . S
H1215 C1228 0.960 . S
C1216 H1208 0.929 . S
C1216 C1217 1.377 . S
C1216 C1218 1.384 . S
C1217 C1216 1.377 . S
C1217 C1223 1.390 . S
C1218 H1209 0.930 . S
C1218 C1216 1.384 . S
C1218 C1219 1.372 . S
C1219 C1218 1.372 . S
C1219 C1220 1.400 . S
C1219 C1224 1.490 . S
C1220 H1210 0.930 . S
C1220 C1219 1.400 . S
C1220 C1223 1.386 . S
H1221 C1237 0.930 . S
H1222 C1238 0.931 . S
C1223 H1211 0.929 . S
C1223 C1217 1.390 . S
C1223 C1220 1.386 . S
C1224 C1219 1.490 . S
C1224 C1226 1.395 . S
C1224 C1227 1.403 . S
H1225 C1231 0.930 . S
C1226 H1212 0.930 . S
C1226 C1224 1.395 . S
C1226 C1229 1.403 . S
C1227 C1224 1.403 . S
C1227 C1228 1.524 . S
C1227 C1231 1.400 . S
C1228 H1213 0.960 . S
C1228 H1214 0.960 . S
C1228 H1215 0.960 . S
C1228 C1227 1.524 . S
C1229 C1226 1.403 . S
C1229 C1230 1.392 . S
C1229 C1233 1.495 . S
C1230 C1229 1.392 . S
C1230 C1231 1.385 . S
C1230 C1232 1.478 . S
C1231 H1225 0.930 . S
C1231 C1227 1.400 . S
C1231 C1230 1.385 . S
C1232 C1230 1.478 . S
C1232 C1234 1.381 . S
C1232 C1238 1.383 . S
C1233 C1229 1.495 . S
C1233 H1239 0.959 . S
C1233 H1240 0.961 . S
C1233 H1241 0.960 . S
C1234 C1232 1.381 . S
C1234 C1235 1.394 . S
C1234 H1242 0.930 . S
C1235 C1234 1.394 . S
C1235 C1236 1.383 . S
C1235 H1243 0.929 . S
C1236 C1235 1.383 . S
C1236 C1237 1.377 . S
C1237 H1221 0.930 . S
C1237 C1236 1.377 . S
C1237 C1238 1.379 . S
C1238 H1222 0.931 . S
C1238 C1232 1.383 . S
C1238 C1237 1.379 . S
H1239 C1233 0.959 . S
H1240 C1233 0.961 . S
H1241 C1233 0.960 . S
H1242 C1234 0.930 . S
H1243 C1235 0.929 . S
H1244 C1252 0.929 . S
H1245 C1254 0.930 . S
H1246 C1256 0.930 . S
H1247 C1259 0.929 . S
H1248 C1262 0.930 . S
H1249 C1264 0.960 . S
H1250 C1264 0.960 . S
H1251 C1264 0.960 . S
C1252 H1244 0.929 . S
C1252 C1253 1.377 . S
C1252 C1254 1.384 . S
C1253 C1252 1.377 . S
C1253 C1259 1.390 . S
C1254 H1245 0.930 . S
C1254 C1252 1.384 . S
C1254 C1255 1.372 . S
C1255 C1254 1.372 . S
C1255 C1256 1.400 . S
C1255 C1260 1.490 . S
C1256 H1246 0.930 . S
C1256 C1255 1.400 . S
C1256 C1259 1.386 . S
H1257 C1273 0.930 . S
H1258 C1274 0.931 . S
C1259 H1247 0.929 . S
C1259 C1253 1.390 . S
C1259 C1256 1.386 . S
C1260 C1255 1.490 . S
C1260 C1262 1.395 . S
C1260 C1263 1.403 . S
H1261 C1267 0.930 . S
C1262 H1248 0.930 . S
C1262 C1260 1.395 . S
C1262 C1265 1.403 . S
C1263 C1260 1.403 . S
C1263 C1264 1.524 . S
C1263 C1267 1.400 . S
C1264 H1249 0.960 . S
C1264 H1250 0.960 . S
C1264 H1251 0.960 . S
C1264 C1263 1.524 . S
C1265 C1262 1.403 . S
C1265 C1266 1.392 . S
C1265 C1269 1.495 . S
C1266 C1265 1.392 . S
C1266 C1267 1.385 . S
C1266 C1268 1.478 . S
C1267 H1261 0.930 . S
C1267 C1263 1.400 . S
C1267 C1266 1.385 . S
C1268 C1266 1.478 . S
C1268 C1270 1.381 . S
C1268 C1274 1.383 . S
C1269 C1265 1.495 . S
C1269 H1275 0.959 . S
C1269 H1276 0.961 . S
C1269 H1277 0.960 . S
C1270 C1268 1.381 . S
C1270 C1271 1.394 . S
C1270 H1278 0.930 . S
C1271 C1270 1.394 . S
C1271 C1272 1.383 . S
C1271 H1279 0.929 . S
C1272 C1271 1.383 . S
C1272 C1273 1.377 . S
C1273 H1257 0.930 . S
C1273 C1272 1.377 . S
C1273 C1274 1.379 . S
C1274 H1258 0.931 . S
C1274 C1268 1.383 . S
C1274 C1273 1.379 . S
H1275 C1269 0.959 . S
H1276 C1269 0.961 . S
H1277 C1269 0.960 . S
H1278 C1270 0.930 . S
H1279 C1271 0.929 . S
C713 C57 1.051 . S
C732 C233 1.022 . S
C749 C137 1.013 . S
C768 C293 1.002 . S
C785 C372 1.043 . S
C804 C557 1.097 . S
C821 C489 1.020 . S
C840 C645 0.986 . S
C857 C29 1.747 . S
C876 C469 1.780 . S
C893 C117 1.768 . S
C912 C585 1.721 . S
C929 C665 1.767 . S
C948 C205 1.718 . S
C965 C313 1.768 . S
C984 C401 1.734 . S
C1001 C409 1.671 . S
C1020 C49 1.763 . S
C1037 C108 1.720 . S
C1056 C497 1.618 1_565 S
C1073 C225 1.756 . S
C1092 C577 1.672 . S
C1109 C321 1.719 . S
C1128 C636 1.633 1_545 S
C1145 C20 1.672 1_655 S
C1164 C381 1.742 . S
C1181 C460 1.722 . S
C1200 C145 1.664 . S
C1217 C548 1.751 . S
C1236 C196 1.673 1_455 S
C1253 C284 1.636 . S
C1272 C673 1.724 . S
