# Generated by pormake.
# Topology wiv, (6)-cn, num edge types: 1
# Building blocks:
#     Node 0, Type 0, BuildingBlock: BETGAK_clean_sbu_0, # of connection points: 6
#     Node 1, Type 0, BuildingBlock: BETGAK_clean_sbu_0, # of connection points: 6
#     Node 2, Type 0, BuildingBlock: BETGAK_clean_sbu_0, # of connection points: 6
#     Node 3, Type 0, BuildingBlock: BETGAK_clean_sbu_0, # of connection points: 6
#     Node 4, Type 0, BuildingBlock: BETGAK_clean_sbu_0, # of connection points: 6
#     Node 5, Type 0, BuildingBlock: BETGAK_clean_sbu_0, # of connection points: 6
#     Node 6, Type 0, BuildingBlock: BETGAK_clean_sbu_0, # of connection points: 6
#     Node 7, Type 0, BuildingBlock: BETGAK_clean_sbu_0, # of connection points: 6
#     Node 8, Type 0, BuildingBlock: BETGAK_clean_sbu_0, # of connection points: 6
#     Node 9, Type 0, BuildingBlock: BETGAK_clean_sbu_0, # of connection points: 6
#     Node 10, Type 0, BuildingBlock: BETGAK_clean_sbu_0, # of connection points: 6
#     Node 11, Type 0, BuildingBlock: BETGAK_clean_sbu_0, # of connection points: 6
#     Node 12, Type 0, BuildingBlock: BETGAK_clean_sbu_0, # of connection points: 6
#     Node 13, Type 0, BuildingBlock: BETGAK_clean_sbu_0, # of connection points: 6
#     Node 14, Type 0, BuildingBlock: BETGAK_clean_sbu_0, # of connection points: 6
#     Node 15, Type 0, BuildingBlock: BETGAK_clean_sbu_0, # of connection points: 6
#     Edge 16, Type (0, 0), BuildingBlock: UVAHIK_clean_linker_0, # of connection points: 2
#     Edge 17, Type (0, 0), BuildingBlock: UVAHIK_clean_linker_0, # of connection points: 2
#     Edge 18, Type (0, 0), BuildingBlock: UVAHIK_clean_linker_0, # of connection points: 2
#     Edge 19, Type (0, 0), BuildingBlock: UVAHIK_clean_linker_0, # of connection points: 2
#     Edge 20, Type (0, 0), BuildingBlock: UVAHIK_clean_linker_0, # of connection points: 2
#     Edge 21, Type (0, 0), BuildingBlock: UVAHIK_clean_linker_0, # of connection points: 2
#     Edge 22, Type (0, 0), BuildingBlock: UVAHIK_clean_linker_0, # of connection points: 2
#     Edge 23, Type (0, 0), BuildingBlock: UVAHIK_clean_linker_0, # of connection points: 2
#     Edge 24, Type (0, 0), BuildingBlock: UVAHIK_clean_linker_0, # of connection points: 2
#     Edge 25, Type (0, 0), BuildingBlock: UVAHIK_clean_linker_0, # of connection points: 2
#     Edge 26, Type (0, 0), BuildingBlock: UVAHIK_clean_linker_0, # of connection points: 2
#     Edge 27, Type (0, 0), BuildingBlock: UVAHIK_clean_linker_0, # of connection points: 2
#     Edge 28, Type (0, 0), BuildingBlock: UVAHIK_clean_linker_0, # of connection points: 2
#     Edge 29, Type (0, 0), BuildingBlock: UVAHIK_clean_linker_0, # of connection points: 2
#     Edge 30, Type (0, 0), BuildingBlock: UVAHIK_clean_linker_0, # of connection points: 2
#     Edge 31, Type (0, 0), BuildingBlock: UVAHIK_clean_linker_0, # of connection points: 2
#     Edge 32, Type (0, 0), BuildingBlock: UVAHIK_clean_linker_0, # of connection points: 2
#     Edge 33, Type (0, 0), BuildingBlock: UVAHIK_clean_linker_0, # of connection points: 2
#     Edge 34, Type (0, 0), BuildingBlock: UVAHIK_clean_linker_0, # of connection points: 2
#     Edge 35, Type (0, 0), BuildingBlock: UVAHIK_clean_linker_0, # of connection points: 2
#     Edge 36, Type (0, 0), BuildingBlock: UVAHIK_clean_linker_0, # of connection points: 2
#     Edge 37, Type (0, 0), BuildingBlock: UVAHIK_clean_linker_0, # of connection points: 2
#     Edge 38, Type (0, 0), BuildingBlock: UVAHIK_clean_linker_0, # of connection points: 2
#     Edge 39, Type (0, 0), BuildingBlock: UVAHIK_clean_linker_0, # of connection points: 2
#     Edge 40, Type (0, 0), BuildingBlock: UVAHIK_clean_linker_0, # of connection points: 2
#     Edge 41, Type (0, 0), BuildingBlock: UVAHIK_clean_linker_0, # of connection points: 2
#     Edge 42, Type (0, 0), BuildingBlock: UVAHIK_clean_linker_0, # of connection points: 2
#     Edge 43, Type (0, 0), BuildingBlock: UVAHIK_clean_linker_0, # of connection points: 2
#     Edge 44, Type (0, 0), BuildingBlock: UVAHIK_clean_linker_0, # of connection points: 2
#     Edge 45, Type (0, 0), BuildingBlock: UVAHIK_clean_linker_0, # of connection points: 2
#     Edge 46, Type (0, 0), BuildingBlock: UVAHIK_clean_linker_0, # of connection points: 2
#     Edge 47, Type (0, 0), BuildingBlock: UVAHIK_clean_linker_0, # of connection points: 2
#     Edge 48, Type (0, 0), BuildingBlock: UVAHIK_clean_linker_0, # of connection points: 2
#     Edge 49, Type (0, 0), BuildingBlock: UVAHIK_clean_linker_0, # of connection points: 2
#     Edge 50, Type (0, 0), BuildingBlock: UVAHIK_clean_linker_0, # of connection points: 2
#     Edge 51, Type (0, 0), BuildingBlock: UVAHIK_clean_linker_0, # of connection points: 2
#     Edge 52, Type (0, 0), BuildingBlock: UVAHIK_clean_linker_0, # of connection points: 2
#     Edge 53, Type (0, 0), BuildingBlock: UVAHIK_clean_linker_0, # of connection points: 2
#     Edge 54, Type (0, 0), BuildingBlock: UVAHIK_clean_linker_0, # of connection points: 2
#     Edge 55, Type (0, 0), BuildingBlock: UVAHIK_clean_linker_0, # of connection points: 2
#     Edge 56, Type (0, 0), BuildingBlock: UVAHIK_clean_linker_0, # of connection points: 2
#     Edge 57, Type (0, 0), BuildingBlock: UVAHIK_clean_linker_0, # of connection points: 2
#     Edge 58, Type (0, 0), BuildingBlock: UVAHIK_clean_linker_0, # of connection points: 2
#     Edge 59, Type (0, 0), BuildingBlock: UVAHIK_clean_linker_0, # of connection points: 2
#     Edge 60, Type (0, 0), BuildingBlock: UVAHIK_clean_linker_0, # of connection points: 2
#     Edge 61, Type (0, 0), BuildingBlock: UVAHIK_clean_linker_0, # of connection points: 2
#     Edge 62, Type (0, 0), BuildingBlock: UVAHIK_clean_linker_0, # of connection points: 2
#     Edge 63, Type (0, 0), BuildingBlock: UVAHIK_clean_linker_0, # of connection points: 2
# Relax obj value: 0.104
# Max RMSD: 0.164
# Mean RMSD: 0.164
data_MOF--net-wiv--node1-BETGAK_clean_sbu_0--edge1-UVAHIK_clean_linker_0
_symmetry_space_group_name_H-M    P1
_symmetry_Int_Tables_number       1
_symmetry_cell_setting            triclinic
loop_
_symmetry_equiv_pos_as_xyz
'x, y, z'
_cell_length_a     67.381664
_cell_length_b     67.458572
_cell_length_c     29.366442
_cell_angle_alpha  90.096988
_cell_angle_beta   89.99282
_cell_angle_gamma 90.223379
loop_
_atom_site_label
_atom_site_type_symbol
_atom_site_fract_x
_atom_site_fract_y
_atom_site_fract_z
_atom_type_partial_charge
La0 La 0.36389 0.12052 0.15971 0.0
La1 La 0.391 0.1255 0.08044 0.0
C2 C 0.348 0.11008 0.23393 0.0
C3 C 0.35251 0.11157 0.28307 0.0
C4 C 0.33754 0.11761 0.31315 0.0
C5 C 0.34133 0.11933 0.3598 0.0
C6 C 0.36024 0.11503 0.37749 0.0
C7 C 0.37524 0.1089 0.34723 0.0
C8 C 0.37141 0.10719 0.30049 0.0
C9 C 0.36579 0.15702 0.12753 0.0
C10 C 0.41055 0.12926 0.17523 0.0
C11 C 0.40693 0.13584 1.00633 0.0
C12 C 0.40231 0.13432 0.95725 0.0
C13 C 0.41728 0.12854 0.92691 0.0
C14 C 0.41334 0.12672 0.88033 0.0
C15 C 0.39429 0.13065 0.863 0.0
C16 C 0.37929 0.13651 0.89352 0.0
C17 C 0.38325 0.13833 0.94018 0.0
C18 C 0.38952 0.08948 0.11507 0.0
C19 C 0.34469 0.11678 0.06357 0.0
O20 O 0.34412 0.12675 0.21323 0.0
O21 O 0.35929 0.09854 0.20925 0.0
O22 O 0.34991 0.14866 0.14336 0.0
O23 O 0.38013 0.14521 0.13178 0.0
O24 O 0.39359 0.12227 0.19198 0.0
O25 O 0.41211 0.1345 0.13206 0.0
O26 O 0.41077 0.11915 0.02703 0.0
O27 O 0.39575 0.14751 0.03107 0.0
O28 O 0.40541 0.09752 0.09841 0.0
O29 O 0.37511 0.10103 0.10943 0.0
O30 O 0.36179 0.12349 0.04753 0.0
O31 O 0.34252 0.1121 0.10708 0.0
H32 H 0.32283 0.12099 0.3005 0.0
H33 H 0.32935 0.12378 0.38211 0.0
H34 H 0.39002 0.10567 0.35956 0.0
H35 H 0.38324 0.10247 0.27804 0.0
H36 H 0.43209 0.12544 0.93929 0.0
H37 H 0.42532 0.12246 0.8578 0.0
H38 H 0.3644 0.13944 0.88145 0.0
H39 H 0.3714 0.1428 0.96284 0.0
La40 La 0.12905 0.63694 0.97237 0.0
La41 La 0.12252 0.66365 0.89315 0.0
C42 C 0.14088 0.62168 0.04594 0.0
C43 C 0.13909 0.62592 0.09521 0.0
C44 C 0.13401 0.61051 0.12506 0.0
C45 C 0.1322 0.61406 0.17182 0.0
C46 C 0.13541 0.63315 0.18984 0.0
C47 C 0.14044 0.64861 0.15978 0.0
C48 C 0.14233 0.64503 0.11298 0.0
C49 C 0.09233 0.63765 0.94124 0.0
C50 C 0.11934 0.68299 0.98925 0.0
C51 C 0.11157 0.67906 0.81881 0.0
C52 C 0.11344 0.67471 0.76966 0.0
C53 C 0.11725 0.69031 0.73938 0.0
C54 C 0.119 0.68671 0.69263 0.0
C55 C 0.11691 0.66738 0.67503 0.0
C56 C 0.11318 0.65173 0.70561 0.0
C57 C 0.11149 0.65535 0.75244 0.0
C58 C 0.15962 0.66236 0.92276 0.0
C59 C 0.13175 0.61735 0.87765 0.0
O60 O 0.12454 0.61636 1.02514 0.0
O61 O 0.15149 0.63402 1.02149 0.0
O62 O 0.10076 0.62206 0.95797 0.0
O63 O 0.1039 0.65225 0.94504 0.0
O64 O 0.12686 0.66622 1.00492 0.0
O65 O 0.11392 0.68479 0.94607 0.0
O66 O 0.12794 0.68387 0.84 0.0
O67 O 0.10057 0.66703 0.843 0.0
O68 O 0.15089 0.67803 0.90747 0.0
O69 O 0.14778 0.64795 0.91929 0.0
O70 O 0.12345 0.63377 0.86184 0.0
O71 O 0.13836 0.61631 0.91991 0.0
H72 H 0.1314 0.59567 0.11213 0.0
H73 H 0.12803 0.60186 0.19381 0.0
H74 H 0.14324 0.66344 0.17248 0.0
H75 H 0.1464 0.65719 0.0908 0.0
H76 H 0.11892 0.70533 0.75194 0.0
H77 H 0.12221 0.69908 0.67033 0.0
H78 H 0.11127 0.6367 0.69333 0.0
H79 H 0.10855 0.64303 0.77506 0.0
La80 La 0.66116 0.90494 0.15885 0.0
La81 La 0.63414 0.89989 0.07946 0.0
C82 C 0.67677 0.91598 0.23307 0.0
C83 C 0.67202 0.91438 0.28192 0.0
C84 C 0.65809 0.9005 0.29786 0.0
C85 C 0.65408 0.89897 0.34455 0.0
C86 C 0.6639 0.91131 0.37615 0.0
C87 C 0.67771 0.9253 0.35976 0.0
C88 C 0.68171 0.9268 0.31313 0.0
C89 C 0.65859 0.86822 0.128 0.0
C90 C 0.61433 0.89675 0.17395 0.0
C91 C 0.61829 0.88938 1.00521 0.0
C92 C 0.62324 0.89082 0.9564 0.0
C93 C 0.63674 0.90509 0.94034 0.0
C94 C 0.64095 0.90649 0.89373 0.0
C95 C 0.63168 0.89368 0.86223 0.0
C96 C 0.61826 0.87932 0.87871 0.0
C97 C 0.61412 0.87792 0.9253 0.0
C98 C 0.63624 0.93615 0.11305 0.0
C99 C 0.68061 0.90763 0.06281 0.0
O100 O 0.68113 0.89943 0.21218 0.0
O101 O 0.66495 0.92706 0.20876 0.0
O102 O 0.6746 0.87633 0.14391 0.0
O103 O 0.6445 0.88036 0.13162 0.0
O104 O 0.63135 0.90355 0.19082 0.0
O105 O 0.61278 0.89138 0.13083 0.0
O106 O 0.61449 0.9061 1.02602 0.0
O107 O 0.62957 0.87781 0.02976 0.0
O108 O 0.62025 0.92828 0.09642 0.0
O109 O 0.65043 0.92428 0.10788 0.0
O110 O 0.66348 0.90081 0.04711 0.0
O111 O 0.68267 0.9129 0.10605 0.0
H112 H 0.6504 0.89081 0.27425 0.0
H113 H 0.64317 0.88821 0.35585 0.0
H114 H 0.68574 0.93486 0.38306 0.0
H115 H 0.69252 0.93759 0.30146 0.0
H116 H 0.64396 0.9152 0.96383 0.0
H117 H 0.65155 0.91754 0.88243 0.0
H118 H 0.61064 0.8694 0.85551 0.0
H119 H 0.60361 0.86685 0.93702 0.0
La120 La 0.90072 0.39074 0.97698 0.0
La121 La 0.90698 0.36422 0.89687 0.0
C122 C 0.88891 0.40597 0.05079 0.0
C123 C 0.89049 0.40135 0.09971 0.0
C124 C 0.90535 0.38873 0.11622 0.0
C125 C 0.90696 0.38494 0.16297 0.0
C126 C 0.89379 0.3938 0.19413 0.0
C127 C 0.8788 0.40628 0.1772 0.0
C128 C 0.87718 0.40998 0.13048 0.0
C129 C 0.93741 0.38942 0.94604 0.0
C130 C 0.90918 0.34437 0.99259 0.0
C131 C 0.91899 0.34923 0.82287 0.0
C132 C 0.91714 0.35374 0.77398 0.0
C133 C 0.90275 0.367 0.75794 0.0
C134 C 0.90089 0.37068 0.71118 0.0
C135 C 0.91339 0.36113 0.67958 0.0
C136 C 0.92795 0.34807 0.6961 0.0
C137 C 0.92979 0.34442 0.7428 0.0
C138 C 0.86986 0.36599 0.92565 0.0
C139 C 0.89832 0.41088 0.88253 0.0
O140 O 0.90544 0.41091 0.03032 0.0
O141 O 0.87819 0.39378 1.02617 0.0
O142 O 0.92928 0.40512 0.96311 0.0
O143 O 0.92557 0.37504 0.94949 0.0
O144 O 0.9022 0.36131 1.00875 0.0
O145 O 0.91466 0.3426 0.94942 0.0
O146 O 0.90268 0.34385 0.84364 0.0
O147 O 0.92936 0.36179 0.84719 0.0
O148 O 0.87825 0.35032 0.90914 0.0
O149 O 0.88196 0.38024 0.92328 0.0
O150 O 0.90542 0.39407 0.86556 0.0
O151 O 0.89255 0.41215 0.92544 0.0
H152 H 0.91586 0.382 0.093 0.0
H153 H 0.91879 0.37542 0.17477 0.0
H154 H 0.86822 0.41311 0.20007 0.0
H155 H 0.86557 0.41972 0.11837 0.0
H156 H 0.89282 0.37434 0.78153 0.0
H157 H 0.8894 0.38068 0.69976 0.0
H158 H 0.93806 0.34073 0.67295 0.0
H159 H 0.94106 0.33423 0.75457 0.0
La160 La 0.36351 0.40591 0.14438 0.0
La161 La 0.39027 0.40017 0.22375 0.0
C162 C 0.34802 0.41695 0.07027 0.0
C163 C 0.35246 0.41535 1.0211 0.0
C164 C 0.33742 0.40921 0.99118 0.0
C165 C 0.34116 0.40739 0.94452 0.0
C166 C 0.36007 0.4117 0.92665 0.0
C167 C 0.37513 0.41793 0.95674 0.0
C168 C 0.37137 0.41975 1.00348 0.0
C169 C 0.36496 0.36903 0.1747 0.0
C170 C 0.41004 0.39691 0.12915 0.0
C171 C 0.40587 0.3893 0.29775 0.0
C172 C 0.40132 0.39092 0.34687 0.0
C173 C 0.41637 0.3968 0.37703 0.0
C174 C 0.41251 0.39873 0.42362 0.0
C175 C 0.39346 0.3948 0.44115 0.0
C176 C 0.37838 0.38885 0.41082 0.0
C177 C 0.38227 0.38692 0.36415 0.0
C178 C 0.38937 0.43649 0.19069 0.0
C179 C 0.34407 0.40909 0.2403 0.0
O180 O 0.34345 0.40041 0.09091 0.0
O181 O 0.35977 0.42809 0.095 0.0
O182 O 0.34924 0.37762 0.15904 0.0
O183 O 0.37939 0.3809 0.17137 0.0
O184 O 0.39329 0.40426 0.11247 0.0
O185 O 0.41131 0.39122 0.17207 0.0
O186 O 0.41031 0.40588 0.27708 0.0
O187 O 0.39426 0.37798 0.27298 0.0
O188 O 0.40509 0.42821 0.20723 0.0
O189 O 0.37479 0.42497 0.1956 0.0
O190 O 0.361 0.40206 0.25628 0.0
O191 O 0.34214 0.41417 0.19699 0.0
H192 H 0.32271 0.40583 1.00395 0.0
H193 H 0.32912 0.40286 0.92234 0.0
H194 H 0.38992 0.42117 0.94427 0.0
H195 H 0.38325 0.42456 1.02578 0.0
H196 H 0.43119 0.3999 0.3645 0.0
H197 H 0.42455 0.40305 0.446 0.0
H198 H 0.36349 0.38592 0.42304 0.0
H199 H 0.37036 0.38237 0.34165 0.0
La200 La 0.40321 0.63613 0.83229 0.0
La201 La 0.40832 0.66323 0.9117 0.0
C202 C 0.39292 0.62011 0.75813 0.0
C203 C 0.39421 0.62463 0.70898 0.0
C204 C 0.3999 0.6096 0.67869 0.0
C205 C 0.40136 0.61337 0.63199 0.0
C206 C 0.39716 0.6323 0.61447 0.0
C207 C 0.39152 0.64739 0.645 0.0
C208 C 0.39002 0.64359 0.69178 0.0
C209 C 0.43915 0.63718 0.86755 0.0
C210 C 0.41214 0.68237 0.8157 0.0
C211 C 0.41895 0.67908 0.9859 0.0
C212 C 0.41766 0.67461 0.03506 0.0
C213 C 0.41205 0.6897 0.06528 0.0
C214 C 0.41062 0.686 0.112 0.0
C215 C 0.4148 0.66709 0.12964 0.0
C216 C 0.42037 0.65194 0.09919 0.0
C217 C 0.42182 0.65567 0.05237 0.0
C218 C 0.37186 0.66167 0.87864 0.0
C219 C 0.39882 0.61677 0.92716 0.0
O220 O 0.40974 0.61654 0.77865 0.0
O221 O 0.38116 0.63117 0.78295 0.0
O222 O 0.43088 0.62137 0.85107 0.0
O223 O 0.42783 0.65176 0.86173 0.0
O224 O 0.40533 0.66532 0.79954 0.0
O225 O 0.41688 0.68449 0.85921 0.0
O226 O 0.40218 0.68291 0.96546 0.0
O227 O 0.43046 0.66782 0.96103 0.0
O228 O 0.38029 0.67746 0.8948 0.0
O229 O 0.38357 0.64729 0.88333 0.0
O230 O 0.406 0.63363 0.94403 0.0
O231 O 0.39377 0.61522 0.88382 0.0
H232 H 0.40327 0.5949 0.69121 0.0
H233 H 0.40605 0.60148 0.60968 0.0
H234 H 0.38798 0.66209 0.63271 0.0
H235 H 0.38554 0.65545 0.7144 0.0
H236 H 0.4087 0.7044 0.05266 0.0
H237 H 0.40598 0.69794 0.13425 0.0
H238 H 0.4239 0.63726 0.11158 0.0
H239 H 0.42625 0.64377 0.02981 0.0
La240 La 0.66631 0.61717 0.13783 0.0
La241 La 0.63973 0.6267 0.2234 0.0
C242 C 0.67924 0.59941 0.06853 0.0
C243 C 0.67772 0.60311 1.01919 0.0
C244 C 0.66554 0.61829 1.00254 0.0
C245 C 0.66358 0.62132 0.95559 0.0
C246 C 0.6738 0.60924 0.92428 0.0
C247 C 0.68614 0.59415 0.94134 0.0
C248 C 0.68805 0.59112 0.98833 0.0
C249 C 0.66345 0.65608 0.15114 0.0
C250 C 0.62039 0.63029 0.12805 0.0
C251 C 0.62629 0.63927 0.29829 0.0
C252 C 0.6326 0.63841 0.34637 0.0
C253 C 0.64699 0.62479 0.36081 0.0
C254 C 0.65195 0.62328 0.40699 0.0
C255 C 0.64257 0.63532 0.43974 0.0
C256 C 0.62842 0.6492 0.42487 0.0
C257 C 0.6235 0.65071 0.37866 0.0
C258 C 0.63918 0.59003 0.19139 0.0
C259 C 0.68633 0.61721 0.23548 0.0
O260 O 0.68975 0.6123 0.09199 0.0
O261 O 0.66248 0.59488 0.08882 0.0
O262 O 0.67421 0.64795 0.11969 0.0
O263 O 0.65548 0.64214 0.17275 0.0
O264 O 0.63586 0.62055 0.11084 0.0
O265 O 0.62001 0.63697 0.1705 0.0
O266 O 0.62129 0.62228 0.27992 0.0
O267 O 0.6372 0.65005 0.27079 0.0
O268 O 0.62396 0.59874 0.20948 0.0
O269 O 0.65394 0.60145 0.19385 0.0
O270 O 0.66935 0.62364 0.25285 0.0
O271 O 0.68825 0.61202 0.19193 0.0
H272 H 0.65738 0.62768 1.02587 0.0
H273 H 0.65374 0.63289 0.94386 0.0
H274 H 0.69447 0.58475 0.91839 0.0
H275 H 0.69753 0.57934 1.00055 0.0
H276 H 0.65418 0.61511 0.33649 0.0
H277 H 0.66311 0.61264 0.41704 0.0
H278 H 0.62072 0.65854 0.44907 0.0
H279 H 0.61229 0.66123 0.36824 0.0
La280 La 0.62562 0.39183 0.82586 0.0
La281 La 0.62343 0.36407 0.90499 0.0
C282 C 0.63512 0.40809 0.75145 0.0
C283 C 0.63241 0.40388 0.70255 0.0
C284 C 0.61776 0.39058 0.68731 0.0
C285 C 0.61544 0.38675 0.64068 0.0
C286 C 0.62761 0.39631 0.60841 0.0
C287 C 0.64226 0.40963 0.62402 0.0
C288 C 0.64465 0.41332 0.67061 0.0
C289 C 0.59059 0.39006 0.86501 0.0
C290 C 0.6178 0.34528 0.80863 0.0
C291 C 0.61717 0.34694 0.98021 0.0
C292 C 0.61473 0.35291 0.02833 0.0
C293 C 0.62555 0.36885 0.04681 0.0
C294 C 0.62455 0.37308 0.09344 0.0
C295 C 0.61268 0.3615 0.12267 0.0
C296 C 0.60134 0.34597 0.1036 0.0
C297 C 0.60239 0.34172 0.05696 0.0
C298 C 0.65874 0.36703 0.86628 0.0
C299 C 0.62996 0.41078 0.92096 0.0
O300 O 0.61909 0.4124 0.7745 0.0
O301 O 0.64667 0.39594 0.77376 0.0
O302 O 0.59738 0.40561 0.84439 0.0
O303 O 0.60225 0.37571 0.85899 0.0
O304 O 0.62256 0.36293 0.79217 0.0
O305 O 0.61539 0.34231 0.85288 0.0
O306 O 0.63476 0.34982 0.96263 0.0
O307 O 0.60304 0.35176 0.95184 0.0
O308 O 0.65079 0.35071 0.88072 0.0
O309 O 0.64684 0.38104 0.87398 0.0
O310 O 0.62293 0.39377 0.93717 0.0
O311 O 0.6353 0.41249 0.87785 0.0
H312 H 0.60805 0.38327 0.71145 0.0
H313 H 0.6039 0.37657 0.62987 0.0
H314 H 0.65206 0.41704 0.60021 0.0
H315 H 0.65607 0.42359 0.68172 0.0
H316 H 0.63522 0.3777 1.02544 0.0
H317 H 0.63365 0.38502 0.10677 0.0
H318 H 0.59173 0.33697 0.12477 0.0
H319 H 0.59387 0.3294 0.04341 0.0
La320 La 0.86594 0.61846 0.66072 0.0
La321 La 0.89275 0.62608 0.58178 0.0
C322 C 0.85114 0.60598 0.73459 0.0
C323 C 0.85574 0.60792 0.78355 0.0
C324 C 0.86844 0.62292 0.79971 0.0
C325 C 0.8722 0.62484 0.84648 0.0
C326 C 0.86341 0.61174 0.878 0.0
C327 C 0.85091 0.59659 0.86138 0.0
C328 C 0.84712 0.59473 0.81468 0.0
C329 C 0.86732 0.65587 0.63384 0.0
C330 C 0.91236 0.62832 0.67633 0.0
C331 C 0.90772 0.63797 0.50769 0.0
C332 C 0.90257 0.63633 0.45893 0.0
C333 C 0.88926 0.62176 0.44324 0.0
C334 C 0.88506 0.62001 0.39664 0.0
C335 C 0.89401 0.63286 0.36482 0.0
C336 C 0.90708 0.64762 0.38095 0.0
C337 C 0.91132 0.6493 0.4275 0.0
C338 C 0.89198 0.58916 0.61168 0.0
C339 C 0.84658 0.61678 0.56477 0.0
O340 O 0.84543 0.62212 0.71388 0.0
O341 O 0.86381 0.59595 0.71008 0.0
O342 O 0.85163 0.64703 0.64929 0.0
O343 O 0.88172 0.64409 0.63604 0.0
O344 O 0.89593 0.61972 0.69176 0.0
O345 O 0.91342 0.63531 0.63436 0.0
O346 O 0.91273 0.62149 0.52799 0.0
O347 O 0.89584 0.64869 0.53288 0.0
O348 O 0.90769 0.59796 0.59618 0.0
O349 O 0.87739 0.6006 0.60762 0.0
O350 O 0.86323 0.62512 0.55032 0.0
O351 O 0.84499 0.61002 0.60699 0.0
H352 H 0.87536 0.63319 0.77619 0.0
H353 H 0.8821 0.63651 0.85792 0.0
H354 H 0.84371 0.58638 0.88457 0.0
H355 H 0.83729 0.58306 0.80288 0.0
H356 H 0.88224 0.61166 0.46697 0.0
H357 H 0.87472 0.60866 0.38555 0.0
H358 H 0.9144 0.65763 0.35749 0.0
H359 H 0.92162 0.66064 0.43891 0.0
La360 La 0.6283 0.13719 0.46951 0.0
La361 La 0.61882 0.16396 0.38437 0.0
C362 C 0.6416 0.1238 0.54364 0.0
C363 C 0.6399 0.12918 0.59225 0.0
C364 C 0.62398 0.14062 0.60824 0.0
C365 C 0.62214 0.14492 0.65475 0.0
C366 C 0.63612 0.13776 0.68629 0.0
C367 C 0.65219 0.12652 0.66988 0.0
C368 C 0.65405 0.1223 0.62335 0.0
C369 C 0.59153 0.13689 0.43842 0.0
C370 C 0.61826 0.18367 0.48266 0.0
C371 C 0.601 0.17692 0.3153 0.0
C372 C 0.60462 0.17513 0.26594 0.0
C373 C 0.6209 0.16433 0.2496 0.0
C374 C 0.62384 0.16194 0.2027 0.0
C375 C 0.61055 0.17029 0.17113 0.0
C376 C 0.59433 0.18125 0.18785 0.0
C377 C 0.5914 0.18362 0.23479 0.0
C378 C 0.65774 0.16085 0.39732 0.0
C379 C 0.63175 0.11815 0.37347 0.0
O380 O 0.62529 0.11745 0.52412 0.0
O381 O 0.65147 0.13615 0.51759 0.0
O382 O 0.60008 0.12168 0.45685 0.0
O383 O 0.60308 0.15155 0.44038 0.0
O384 O 0.62392 0.16646 0.50025 0.0
O385 O 0.61416 0.18595 0.4386 0.0
O386 O 0.61408 0.18733 0.33846 0.0
O387 O 0.59628 0.16032 0.33588 0.0
O388 O 0.64966 0.17168 0.36603 0.0
O389 O 0.64376 0.15291 0.41891 0.0
O390 O 0.62198 0.13365 0.35682 0.0
O391 O 0.6385 0.11763 0.41586 0.0
H392 H 0.61281 0.14599 0.58482 0.0
H393 H 0.60947 0.15343 0.6661 0.0
H394 H 0.6634 0.12101 0.69299 0.0
H395 H 0.66647 0.11348 0.61171 0.0
H396 H 0.63126 0.15763 0.27315 0.0
H397 H 0.63662 0.15363 0.1912 0.0
H398 H 0.58364 0.18766 0.16468 0.0
H399 H 0.57867 0.19188 0.24678 0.0
La400 La 0.16327 0.40465 0.66102 0.0
La401 La 0.13597 0.40032 0.58201 0.0
C402 C 0.17927 0.41427 0.73576 0.0
C403 C 0.17463 0.41238 0.78479 0.0
C404 C 0.18893 0.40441 0.81417 0.0
C405 C 0.18508 0.40259 0.86077 0.0
C406 C 0.16683 0.40878 0.8791 0.0
C407 C 0.15248 0.41673 0.84955 0.0
C408 C 0.15632 0.4185 0.80286 0.0
C409 C 0.16073 0.3683 0.62799 0.0
C410 C 0.11653 0.39657 0.6769 0.0
C411 C 0.12001 0.39031 0.50765 0.0
C412 C 0.12488 0.39178 0.45866 0.0
C413 C 0.11071 0.39947 0.42859 0.0
C414 C 0.11488 0.40117 0.38211 0.0
C415 C 0.13333 0.39514 0.3646 0.0
C416 C 0.14754 0.38741 0.39482 0.0
C417 C 0.14338 0.38578 0.4414 0.0
C418 C 0.13806 0.43633 0.61679 0.0
C419 C 0.18238 0.40835 0.56493 0.0
O420 O 0.18308 0.3978 0.71407 0.0
O421 O 0.16812 0.42612 0.71167 0.0
O422 O 0.17679 0.37637 0.64367 0.0
O423 O 0.14659 0.38031 0.63279 0.0
O424 O 0.13364 0.40322 0.69355 0.0
O425 O 0.11473 0.3916 0.63357 0.0
O426 O 0.11641 0.40705 0.52851 0.0
O427 O 0.13083 0.37839 0.5325 0.0
O428 O 0.12209 0.42858 0.59974 0.0
O429 O 0.1523 0.42452 0.61129 0.0
O430 O 0.16518 0.40175 0.5491 0.0
O431 O 0.18465 0.41306 0.60844 0.0
H432 H 0.20318 0.39967 0.80105 0.0
H433 H 0.19656 0.39664 0.88259 0.0
H434 H 0.13819 0.42143 0.86245 0.0
H435 H 0.14497 0.42466 0.78102 0.0
H436 H 0.09633 0.40415 0.44109 0.0
H437 H 0.10351 0.40695 0.35975 0.0
H438 H 0.16198 0.38284 0.38254 0.0
H439 H 0.15465 0.37986 0.46382 0.0
La440 La 0.39935 0.89091 0.47755 0.0
La441 La 0.40495 0.8638 0.3982 0.0
C442 C 0.38854 0.90659 0.55162 0.0
C443 C 0.39 0.9021 0.60077 0.0
C444 C 0.39544 0.91726 0.63105 0.0
C445 C 0.39707 0.91352 0.67772 0.0
C446 C 0.39327 0.89447 0.69527 0.0
C447 C 0.38788 0.87924 0.66475 0.0
C448 C 0.38623 0.88302 0.61799 0.0
C449 C 0.43543 0.89037 0.44313 0.0
C450 C 0.40888 0.84484 0.49437 0.0
C451 C 0.41582 0.84815 0.32404 0.0
C452 C 0.41448 0.85256 0.27484 0.0
C453 C 0.40885 0.83741 0.24469 0.0
C454 C 0.40741 0.84106 0.19794 0.0
C455 C 0.41159 0.85999 0.1802 0.0
C456 C 0.41718 0.8752 0.21058 0.0
C457 C 0.41865 0.87152 0.25741 0.0
C458 C 0.36835 0.86499 0.43053 0.0
C459 C 0.39537 0.91017 0.38252 0.0
O460 O 0.40523 0.91083 0.53106 0.0
O461 O 0.37713 0.89509 0.52679 0.0
O462 O 0.42706 0.90603 0.45978 0.0
O463 O 0.42415 0.87564 0.44854 0.0
O464 O 0.40187 0.86179 0.51038 0.0
O465 O 0.41363 0.84273 0.45087 0.0
O466 O 0.39911 0.84395 0.34449 0.0
O467 O 0.42716 0.85966 0.3489 0.0
O468 O 0.37688 0.84928 0.41458 0.0
O469 O 0.38003 0.87948 0.42605 0.0
O470 O 0.40268 0.89338 0.36589 0.0
O471 O 0.39007 0.9117 0.42571 0.0
H472 H 0.39851 0.93206 0.61852 0.0
H473 H 0.40158 0.92553 0.7 0.0
H474 H 0.38464 0.86445 0.67704 0.0
H475 H 0.38195 0.87104 0.5954 0.0
H476 H 0.4055 0.8227 0.25737 0.0
H477 H 0.40276 0.82907 0.17575 0.0
H478 H 0.42072 0.8899 0.19811 0.0
H479 H 0.42313 0.88346 0.27989 0.0
La480 La 0.86069 0.90731 0.6367 0.0
La481 La 0.88772 0.898 0.7218 0.0
C482 C 0.8477 0.92496 0.56742 0.0
C483 C 0.84942 0.92128 0.51808 0.0
C484 C 0.85991 0.9048 0.50173 0.0
C485 C 0.86231 0.90184 0.45484 0.0
C486 C 0.8543 0.91534 0.42328 0.0
C487 C 0.84365 0.93175 0.44 0.0
C488 C 0.84127 0.93469 0.48694 0.0
C489 C 0.86349 0.86848 0.6508 0.0
C490 C 0.90643 0.89402 0.62557 0.0
C491 C 0.90116 0.88474 0.79587 0.0
C492 C 0.89584 0.8865 0.8445 0.0
C493 C 0.88494 0.90274 0.86072 0.0
C494 C 0.88062 0.90458 0.90721 0.0
C495 C 0.88723 0.89025 0.93852 0.0
C496 C 0.89794 0.87387 0.92189 0.0
C497 C 0.90217 0.87202 0.87538 0.0
C498 C 0.88844 0.9345 0.68946 0.0
C499 C 0.84139 0.90872 0.73533 0.0
O500 O 0.83728 0.91196 0.5907 0.0
O501 O 0.86436 0.92966 0.58791 0.0
O502 O 0.85259 0.87644 0.61945 0.0
O503 O 0.87172 0.88252 0.6716 0.0
O504 O 0.89091 0.90375 0.60882 0.0
O505 O 0.90702 0.88745 0.66808 0.0
O506 O 0.90759 0.90097 0.77629 0.0
O507 O 0.88871 0.8749 0.76991 0.0
O508 O 0.90359 0.92588 0.70809 0.0
O509 O 0.87361 0.92317 0.69206 0.0
O510 O 0.85866 0.90314 0.75288 0.0
O511 O 0.83888 0.91236 0.69113 0.0
H512 H 0.86637 0.8943 0.52529 0.0
H513 H 0.87037 0.88891 0.44333 0.0
H514 H 0.83751 0.9426 0.41685 0.0
H515 H 0.83327 0.94759 0.49893 0.0
H516 H 0.88003 0.91418 0.8375 0.0
H517 H 0.87254 0.91749 0.91875 0.0
H518 H 0.90302 0.8624 0.94483 0.0
H519 H 0.91056 0.85934 0.86355 0.0
La520 La 0.90122 0.13377 0.32674 0.0
La521 La 0.90712 0.16051 0.40668 0.0
C522 C 0.88976 0.11825 0.25287 0.0
C523 C 0.89139 0.12288 0.20396 0.0
C524 C 0.90591 0.13606 0.18768 0.0
C525 C 0.90757 0.13987 0.14094 0.0
C526 C 0.8948 0.13046 0.10957 0.0
C527 C 0.88017 0.11741 0.12626 0.0
C528 C 0.87848 0.11369 0.17298 0.0
C529 C 0.93773 0.13527 0.35868 0.0
C530 C 0.90961 0.18023 0.31096 0.0
C531 C 0.91864 0.17588 0.48078 0.0
C532 C 0.91711 0.1712 0.52966 0.0
C533 C 0.9033 0.15726 0.5458 0.0
C534 C 0.90166 0.15349 0.59258 0.0
C535 C 0.9138 0.16363 0.62409 0.0
C536 C 0.92781 0.17736 0.60745 0.0
C537 C 0.92943 0.1811 0.56074 0.0
C538 C 0.87014 0.15816 0.37694 0.0
C539 C 0.89865 0.11382 0.42138 0.0
O540 O 0.9063 0.11365 0.27352 0.0
O541 O 0.87884 0.13025 0.27734 0.0
O542 O 0.92958 0.11952 0.34162 0.0
O543 O 0.92601 0.14965 0.35473 0.0
O544 O 0.90274 0.1632 0.29478 0.0
O545 O 0.91492 0.18211 0.3542 0.0
O546 O 0.90208 0.18048 0.46028 0.0
O547 O 0.92947 0.16391 0.45618 0.0
O548 O 0.87835 0.17406 0.39307 0.0
O549 O 0.8823 0.14411 0.38005 0.0
O550 O 0.90586 0.13069 0.43809 0.0
O551 O 0.89279 0.11248 0.37852 0.0
H552 H 0.91611 0.14322 0.21106 0.0
H553 H 0.91913 0.14984 0.12931 0.0
H554 H 0.8699 0.11015 0.10323 0.0
H555 H 0.86714 0.10351 0.18491 0.0
H556 H 0.89362 0.14946 0.5223 0.0
H557 H 0.89059 0.14296 0.60409 0.0
H558 H 0.93765 0.18518 0.63052 0.0
H559 H 0.94025 0.19184 0.54889 0.0
La560 La 0.16269 0.11937 0.64407 0.0
La561 La 0.13626 0.12573 0.72411 0.0
C562 C 0.17759 0.10733 0.57 0.0
C563 C 0.17358 0.10982 0.52105 0.0
C564 C 0.1609 0.12476 0.50522 0.0
C565 C 0.15744 0.12698 0.45845 0.0
C566 C 0.1666 0.11428 0.42666 0.0
C567 C 0.17912 0.09921 0.44298 0.0
C568 C 0.18256 0.09703 0.48967 0.0
C569 C 0.16106 0.15655 0.67237 0.0
C570 C 0.11601 0.12821 0.62977 0.0
C571 C 0.12117 0.13768 0.79793 0.0
C572 C 0.12586 0.13619 0.84683 0.0
C573 C 0.13815 0.1211 0.86354 0.0
C574 C 0.14203 0.11963 0.91028 0.0
C575 C 0.13361 0.13319 0.94122 0.0
C576 C 0.1215 0.14842 0.92407 0.0
C577 C 0.11769 0.14989 0.87736 0.0
C578 C 0.13762 0.08891 0.69356 0.0
C579 C 0.18255 0.11715 0.73985 0.0
O580 O 0.1837 0.12309 0.59191 0.0
O581 O 0.16423 0.09751 0.5931 0.0
O582 O 0.17667 0.14805 0.65581 0.0
O583 O 0.14673 0.1445 0.67042 0.0
O584 O 0.13283 0.12116 0.61268 0.0
O585 O 0.11475 0.13385 0.67276 0.0
O586 O 0.11611 0.12117 0.77755 0.0
O587 O 0.13337 0.1483 0.77321 0.0
O588 O 0.12197 0.09701 0.71094 0.0
O589 O 0.15195 0.10084 0.69675 0.0
O590 O 0.16571 0.12445 0.75574 0.0
O591 O 0.1842 0.1114 0.69682 0.0
H592 H 0.15378 0.13477 0.52899 0.0
H593 H 0.14786 0.13885 0.44718 0.0
H594 H 0.18613 0.08894 0.41969 0.0
H595 H 0.19227 0.08532 0.50131 0.0
H596 H 0.14456 0.11032 0.8405 0.0
H597 H 0.15126 0.10762 0.92226 0.0
H598 H 0.11503 0.1593 0.94674 0.0
H599 H 0.10824 0.16169 0.86509 0.0
La600 La 0.12552 0.88923 0.3357 0.0
La601 La 0.11917 0.86204 0.41429 0.0
C602 C 0.13675 0.90487 0.26189 0.0
C603 C 0.13494 0.90056 0.21259 0.0
C604 C 0.12987 0.9159 0.18266 0.0
C605 C 0.12805 0.91231 0.13588 0.0
C606 C 0.13125 0.89323 0.11789 0.0
C607 C 0.13627 0.87782 0.14805 0.0
C608 C 0.13815 0.88146 0.19487 0.0
C609 C 0.08903 0.88817 0.36812 0.0
C610 C 0.11609 0.84309 0.31784 0.0
C611 C 0.1081 0.84638 0.48835 0.0
C612 C 0.10939 0.85091 0.53757 0.0
C613 C 0.11326 0.83549 0.56822 0.0
C614 C 0.11473 0.83925 0.61497 0.0
C615 C 0.11231 0.85857 0.63227 0.0
C616 C 0.10848 0.87405 0.60134 0.0
C617 C 0.10704 0.87026 0.55448 0.0
C618 C 0.15615 0.86357 0.38397 0.0
C619 C 0.12871 0.90835 0.43075 0.0
O620 O 0.12035 0.90965 0.28295 0.0
O621 O 0.14774 0.89291 0.28622 0.0
O622 O 0.09751 0.90399 0.35235 0.0
O623 O 0.10045 0.87363 0.36304 0.0
O624 O 0.12332 0.8601 0.30253 0.0
O625 O 0.11087 0.84089 0.36105 0.0
O626 O 0.12484 0.84229 0.46806 0.0
O627 O 0.09684 0.85779 0.46338 0.0
O628 O 0.14739 0.84779 0.39906 0.0
O629 O 0.14441 0.87795 0.38803 0.0
O630 O 0.12036 0.89182 0.44624 0.0
O631 O 0.13518 0.90964 0.38839 0.0
H632 H 0.12727 0.93073 0.19552 0.0
H633 H 0.12388 0.92446 0.11387 0.0
H634 H 0.13905 0.863 0.13542 0.0
H635 H 0.1422 0.86935 0.21711 0.0
H636 H 0.11524 0.82047 0.55592 0.0
H637 H 0.11803 0.82701 0.6375 0.0
H638 H 0.10633 0.88907 0.61335 0.0
H639 H 0.10406 0.88244 0.53158 0.0
C640 C 0.38763 0.94614 0.37058 0.0
C641 C 0.39293 0.92763 0.35223 0.0
C642 C 0.38606 0.96285 0.34271 0.0
C643 C 0.40237 0.98267 0.23098 0.0
H644 H 0.36288 0.02285 0.25641 0.0
C645 C 0.40662 0.06081 0.15142 0.0
C646 C 0.38888 0.07028 0.13931 0.0
C647 C 0.40626 0.04288 0.17527 0.0
C648 C 0.37387 1.0117 0.24841 0.0
H649 H 0.40027 0.91218 0.2897 0.0
H650 H 0.39725 0.94126 0.24092 0.0
H651 H 0.36316 0.99239 0.30076 0.0
H652 H 0.35682 0.06826 0.14176 0.0
H653 H 0.35611 0.03677 0.18298 0.0
H654 H 0.41285 1.00182 0.17808 0.0
C655 C 0.39467 0.94294 0.27711 0.0
C656 C 0.3742 0.9943 0.27431 0.0
C657 C 0.39632 0.92621 0.30509 0.0
C658 C 0.37073 0.06135 0.15103 0.0
C659 C 0.37035 0.04335 0.17482 0.0
C660 C 0.402 1.00004 0.20498 0.0
C661 C 0.38964 0.96154 0.2956 0.0
C662 C 0.38859 0.97962 0.26631 0.0
C663 C 0.38813 0.03388 0.18739 0.0
C664 C 0.38788 0.01491 0.21364 0.0
H665 H 0.38501 0.94787 0.40676 0.0
H666 H 0.38248 0.97693 0.3584 0.0
H667 H 0.41379 0.97183 0.22399 0.0
H668 H 0.42083 0.0674 0.14303 0.0
H669 H 0.42025 0.03627 0.18497 0.0
C670 C 0.93283 0.6172 0.74276 0.0
C671 C 0.9297 0.63058 0.70692 0.0
C672 C 0.94981 0.61871 0.77011 0.0
C673 C 1.00018 0.64276 0.77291 0.0
H674 H 0.99958 0.62443 0.89798 0.0
C675 C 0.06483 0.65549 0.90101 0.0
C676 C 0.07265 0.63785 0.9188 0.0
C677 C 0.0469 0.6553 0.87688 0.0
C678 C 0.99991 0.6296 0.86307 0.0
H679 H 0.94143 0.65652 0.67276 0.0
H680 H 0.97035 0.6599 0.72171 0.0
H681 H 0.96908 0.62344 0.85323 0.0
H682 H 0.06733 0.60638 0.9275 0.0
H683 H 0.03557 0.60621 0.8869 0.0
H684 H 0.03097 0.64955 0.78384 0.0
C685 C 0.9603 0.64764 0.72777 0.0
C686 C 0.98247 0.62889 0.83714 0.0
C687 C 0.94358 0.64583 0.6998 0.0
C688 C 0.06173 0.62019 0.91392 0.0
C689 C 0.04356 0.62008 0.89077 0.0
C690 C 0.01747 0.64388 0.79921 0.0
C691 C 0.96389 0.63393 0.76299 0.0
C692 C 0.98235 0.63529 0.79143 0.0
C693 C 0.03615 0.63756 0.87139 0.0
C694 C 0.01754 0.63715 0.84437 0.0
H695 H 0.92245 0.60519 0.74884 0.0
H696 H 0.95205 0.6076 0.79612 0.0
H697 H 1.00102 0.64741 0.73771 0.0
H698 H 0.07269 0.66941 0.9052 0.0
H699 H 0.04137 0.66901 0.86263 0.0
C700 C 0.65539 0.96431 0.14832 0.0
C701 C 0.63714 0.95544 0.13713 0.0
C702 C 0.65598 0.98246 0.17168 0.0
C703 C 0.62439 0.02601 0.20183 0.0
H704 H 0.66466 0.03515 0.29374 0.0
C705 C 0.62996 0.10099 0.29733 0.0
C706 C 0.63454 0.1004 0.34404 0.0
C707 C 0.63164 0.08395 0.27024 0.0
C708 C 0.6532 0.03283 0.26845 0.0
H709 H 0.60523 0.9585 0.1417 0.0
H710 H 0.60617 0.98979 0.18312 0.0
H711 H 0.66451 1.00418 0.25112 0.0
H712 H 0.64469 0.08132 0.39864 0.0
H713 H 0.64713 0.05166 0.35193 0.0
H714 H 0.61254 0.05425 0.22044 0.0
C715 C 0.62009 0.9831 0.17315 0.0
C716 C 0.65328 0.01511 0.24345 0.0
C717 C 0.61953 0.96506 0.1496 0.0
C718 C 0.64113 0.08241 0.36276 0.0
C719 C 0.64265 0.06534 0.33579 0.0
C720 C 0.62422 0.04366 0.22701 0.0
C721 C 0.63832 0.99212 0.18451 0.0
C722 C 0.63878 1.01136 0.21 0.0
C723 C 0.63779 0.06579 0.28918 0.0
C724 C 0.63854 0.0473 0.26094 0.0
H725 H 0.66921 0.95726 0.13886 0.0
H726 H 0.67031 0.98901 0.17921 0.0
H727 H 0.61315 0.02388 0.1759 0.0
H728 H 0.62498 0.1146 0.28161 0.0
H729 H 0.62811 0.08504 0.23437 0.0
C730 C 0.96648 0.40687 0.91151 0.0
C731 C 0.9568 0.38904 0.92245 0.0
C732 C 0.98446 0.40673 0.88769 0.0
C733 C 0.01513 0.37497 0.81235 0.0
H734 H 0.05547 0.41464 0.83755 0.0
C735 C 0.0804 0.38932 0.6893 0.0
C736 C 0.09908 0.39434 0.70742 0.0
C737 C 0.06375 0.38774 0.71748 0.0
C738 C 0.0445 0.40329 0.83034 0.0
H739 H 0.95852 0.35706 0.91818 0.0
H740 H 0.99011 0.35671 0.87716 0.0
H741 H 0.02562 0.41335 0.88417 0.0
H742 H 0.11487 0.4013 0.7698 0.0
H743 H 0.08587 0.39823 0.81913 0.0
H744 H 0.03418 0.36465 0.75912 0.0
C745 C 0.98365 0.37086 0.88612 0.0
C746 C 0.02721 0.40272 0.85675 0.0
C747 C 0.96561 0.37103 0.90983 0.0
C748 C 0.10071 0.39753 0.75461 0.0
C749 C 0.08403 0.39586 0.7829 0.0
C750 C 0.03246 0.37549 0.78607 0.0
C751 C 0.99328 0.38873 0.87448 0.0
C752 C 1.01218 0.38869 0.84782 0.0
C753 C 0.06528 0.39102 0.76467 0.0
C754 C 0.0473 0.3898 0.79434 0.0
H755 H 0.95997 0.42099 0.92064 0.0
H756 H 0.9912 0.42079 0.87875 0.0
H757 H 1.00386 0.36407 0.8041 0.0
H758 H 0.07852 0.38687 0.65309 0.0
H759 H 0.04955 0.38434 0.70198 0.0
C760 C 0.40699 0.46535 0.15593 0.0
C761 C 0.38908 0.45586 0.16716 0.0
C762 C 0.40698 0.48344 0.13269 0.0
C763 C 0.37537 0.51511 0.0595 0.0
H764 H 0.41571 0.55464 0.08577 0.0
C765 C 0.39073 0.5808 0.93865 0.0
C766 C 0.39615 0.59926 0.95728 0.0
C767 C 0.38881 0.56406 0.96632 0.0
C768 C 0.40418 0.5439 0.07828 0.0
H769 H 0.35706 0.45801 0.16381 0.0
H770 H 0.35695 0.48978 0.12369 0.0
H771 H 0.4141 0.52449 0.13109 0.0
H772 H 0.40341 0.61458 1.0201 0.0
H773 H 0.39979 0.58542 0.06857 0.0
H774 H 0.36521 0.53468 1.00724 0.0
C775 C 0.37107 0.4831 0.13206 0.0
C776 C 0.40342 0.52643 0.10393 0.0
C777 C 0.3711 0.46494 0.15522 0.0
C778 C 0.39936 0.60059 1.00451 0.0
C779 C 0.39736 0.58382 0.0323 0.0
C780 C 0.37608 0.5326 0.03395 0.0
C781 C 0.38903 0.49257 0.12032 0.0
C782 C 0.38915 0.51168 0.09457 0.0
C783 C 0.39215 0.56528 1.01353 0.0
C784 C 0.39065 0.54716 0.0426 0.0
H785 H 0.42108 0.45865 0.16451 0.0
H786 H 0.4211 0.49005 0.12362 0.0
H787 H 0.36427 0.50406 0.05096 0.0
H788 H 0.38825 0.57914 0.9024 0.0
H789 H 0.38513 0.55003 0.95041 0.0
C790 C 0.60287 0.62974 0.05218 0.0
C791 C 0.60239 0.63302 0.09951 0.0
C792 C 0.58553 0.63143 1.02603 0.0
C793 C 0.53158 0.62677 0.03553 0.0
H794 H 0.52946 0.65591 0.92188 0.0
C795 C 0.46625 0.61973 0.90901 0.0
C796 C 0.45813 0.63751 0.89283 0.0
C797 C 0.48397 0.61982 0.9338 0.0
C798 C 0.52984 0.64778 0.95364 0.0
H799 H 0.58327 0.64084 0.15623 0.0
H800 H 0.55315 0.64344 0.11077 0.0
H801 H 0.56047 0.65505 0.96571 0.0
H802 H 0.46226 0.66931 0.88918 0.0
H803 H 0.4936 0.66946 0.93191 0.0
H804 H 0.50111 0.61925 1.02332 0.0
C805 C 0.56692 0.63963 0.09391 0.0
C806 C 0.5476 0.64717 0.97851 0.0
C807 C 0.58425 0.63824 0.11989 0.0
C808 C 0.46821 0.6554 0.90135 0.0
C809 C 0.48615 0.65547 0.92558 0.0
C810 C 0.51397 0.62711 1.01036 0.0
C811 C 0.56732 0.63611 0.04676 0.0
C812 C 0.54862 0.63671 1.01983 0.0
C813 C 0.49414 0.63768 0.94235 0.0
C814 C 0.51288 0.63763 0.96917 0.0
H815 H 0.61659 0.62573 0.03535 0.0
H816 H 0.58627 0.62854 0.98977 0.0
H817 H 0.53195 0.61848 0.06708 0.0
H818 H 0.45878 0.60572 0.903 0.0
H819 H 0.48984 0.60587 0.94598 0.0
C820 C 0.62055 0.56199 0.15501 0.0
C821 C 0.63872 0.57074 0.16728 0.0
C822 C 0.62009 0.54409 0.13077 0.0
C823 C 0.65162 0.51196 0.05751 0.0
H824 H 0.60968 0.4735 0.07812 0.0
C825 C 0.63803 0.44671 0.93381 0.0
C826 C 0.6318 0.42834 0.95143 0.0
C827 C 0.63935 0.46346 0.9618 0.0
C828 C 0.62165 0.48394 0.0722 0.0
H829 H 0.67064 0.56739 0.16516 0.0
H830 H 0.66993 0.53597 0.12369 0.0
H831 H 0.6113 0.50335 0.12479 0.0
H832 H 0.62213 0.41327 1.01277 0.0
H833 H 0.62488 0.44237 0.0619 0.0
H834 H 0.66227 0.49237 1.00574 0.0
C835 C 0.65598 0.54309 0.13171 0.0
C836 C 0.62242 0.50125 0.09862 0.0
C837 C 0.65642 0.56104 0.15575 0.0
C838 C 0.62702 0.42714 0.99799 0.0
C839 C 0.62845 0.44392 1.02613 0.0
C840 C 0.65091 0.49462 0.03128 0.0
C841 C 0.63781 0.53441 0.11854 0.0
C842 C 0.63733 0.5156 0.09144 0.0
C843 C 0.63459 0.46235 1.00839 0.0
C844 C 0.63581 0.48043 0.03791 0.0
H845 H 0.60667 0.56918 0.16336 0.0
H846 H 0.60582 0.53808 0.12075 0.0
H847 H 0.66321 0.52269 0.0505 0.0
H848 H 0.64171 0.44828 0.89809 0.0
H849 H 0.64376 0.4774 0.94656 0.0
C850 C 0.42702 0.39968 0.05284 0.0
C851 C 0.42779 0.39495 0.09945 0.0
C852 C 0.44414 0.39867 1.02577 0.0
C853 C 0.49883 0.40006 0.03507 0.0
H854 H 0.49818 0.37787 0.91322 0.0
C855 C 0.57132 0.38561 0.93682 0.0
C856 C 0.57161 0.38937 0.88993 0.0
C857 C 0.55347 0.38593 0.96105 0.0
C858 C 0.49858 0.38433 0.94698 0.0
H859 H 0.44721 0.38504 0.15378 0.0
H860 H 0.47683 0.38321 0.10676 0.0
H861 H 0.46748 0.37911 0.9575 0.0
H862 H 0.55375 0.39735 0.83168 0.0
H863 H 0.52238 0.3982 0.87397 0.0
H864 H 0.52977 0.40548 1.02472 0.0
C865 C 0.46307 0.38795 0.09116 0.0
C866 C 0.48097 0.38503 0.97237 0.0
C867 C 0.44601 0.38887 0.11809 0.0
C868 C 0.55379 0.39396 0.86773 0.0
C869 C 0.53586 0.39435 0.89194 0.0
C870 C 0.51637 0.39944 1.0097 0.0
C871 C 0.46243 0.39302 0.04478 0.0
C872 C 0.48093 0.39274 1.0169 0.0
C873 C 0.53547 0.3904 0.93903 0.0
C874 C 0.51655 0.39141 0.96545 0.0
H875 H 0.41326 0.40434 0.03729 0.0
H876 H 0.44314 0.40277 0.99021 0.0
H877 H 0.49926 0.40647 0.06889 0.0
H878 H 0.58497 0.38318 0.95521 0.0
H879 H 0.55382 0.38276 0.99718 0.0
C880 C 0.89284 0.44734 0.87222 0.0
C881 C 0.89649 0.42862 0.85286 0.0
C882 C 0.89184 0.46428 0.84493 0.0
C883 C 0.88261 0.48181 0.72844 0.0
H884 H 0.91223 0.52828 0.76729 0.0
C885 C 0.87422 0.56002 0.64619 0.0
C886 C 0.892 0.57017 0.63681 0.0
C887 C 0.87443 0.5423 0.6711 0.0
C888 C 0.90392 0.51542 0.75591 0.0
H889 H 0.9016 0.41305 0.78926 0.0
H890 H 0.89953 0.44269 0.74147 0.0
H891 H 0.91316 0.49814 0.81321 0.0
H892 H 0.92391 0.56974 0.64584 0.0
H893 H 0.92425 0.539 0.68973 0.0
H894 H 0.87328 0.49923 0.6712 0.0
C895 C 0.8975 0.44418 0.7779 0.0
C896 C 0.90433 0.4982 0.78238 0.0
C897 C 0.89878 0.42722 0.80533 0.0
C898 C 0.90997 0.56222 0.65251 0.0
C899 C 0.91016 0.54469 0.67787 0.0
C900 C 0.88197 0.49917 0.70224 0.0
C901 C 0.89423 0.46294 0.7975 0.0
C902 C 0.89373 0.48117 0.76894 0.0
C903 C 0.8924 0.53453 0.68759 0.0
C904 C 0.8927 0.51614 0.71559 0.0
H905 H 0.89104 0.44901 0.90867 0.0
H906 H 0.88911 0.47847 0.86101 0.0
H907 H 0.87419 0.46897 0.71735 0.0
H908 H 0.86016 0.56584 0.63443 0.0
H909 H 0.86049 0.53489 0.6783 0.0
C910 C 0.56264 0.1545 0.40367 0.0
C911 C 0.572 0.13667 0.41543 0.0
C912 C 0.54449 0.15432 0.38049 0.0
C913 C 0.50145 0.12183 0.35092 0.0
H914 H 0.49344 0.16054 0.25537 0.0
C915 C 0.42698 0.12776 0.25232 0.0
C916 C 0.42822 0.13132 0.20523 0.0
C917 C 0.44392 0.12911 0.27992 0.0
C918 C 0.49544 0.14953 0.28173 0.0
H919 H 0.5696 0.10468 0.41298 0.0
H920 H 0.53807 0.10428 0.37192 0.0
H921 H 0.52406 0.16107 0.29915 0.0
H922 H 0.44836 0.13912 0.15037 0.0
H923 H 0.47773 0.14116 0.19803 0.0
H924 H 0.4731 0.10985 0.33231 0.0
C925 C 0.54455 0.11845 0.38105 0.0
C926 C 0.51295 0.15 0.30733 0.0
C927 C 0.56268 0.11865 0.40438 0.0
C928 C 0.44676 0.1364 0.18653 0.0
C929 C 0.46366 0.13769 0.21401 0.0
C930 C 0.48395 0.12132 0.32518 0.0
C931 C 0.53525 0.13629 0.36849 0.0
C932 C 0.51627 0.13609 0.34215 0.0
C933 C 0.46252 0.13403 0.26108 0.0
C934 C 0.48076 0.13507 0.28998 0.0
H935 H 0.56942 0.16862 0.41219 0.0
H936 H 0.53766 0.16836 0.37216 0.0
H937 H 0.50334 0.11103 0.37781 0.0
H938 H 0.41294 0.12394 0.26795 0.0
H939 H 0.44238 0.12645 0.3161 0.0
C940 C 0.14931 0.58622 0.85491 0.0
C941 C 0.13409 0.59997 0.84726 0.0
C942 C 0.15116 0.56941 0.82728 0.0
C943 C 0.13258 0.54666 0.71809 0.0
H944 H 0.15243 0.49841 0.77309 0.0
C945 C 0.1218 0.46741 0.64387 0.0
C946 C 0.13907 0.45597 0.63928 0.0
C947 C 0.12234 0.48566 0.66654 0.0
C948 C 0.14702 0.51184 0.75723 0.0
H949 H 0.10878 0.60686 0.80483 0.0
H950 H 0.11129 0.57716 0.75804 0.0
H951 H 0.1507 0.52866 0.81827 0.0
H952 H 0.17064 0.45508 0.65308 0.0
H953 H 0.17137 0.48661 0.69496 0.0
H954 H 0.12792 0.52922 0.65776 0.0
C955 C 0.12236 0.57957 0.7842 0.0
C956 C 0.14612 0.52929 0.783 0.0
C957 C 0.12079 0.59662 0.81124 0.0
C958 C 0.157 0.46334 0.65708 0.0
C959 C 0.15745 0.48139 0.68078 0.0
C960 C 0.13307 0.52908 0.6927 0.0
C961 C 0.13753 0.56561 0.79186 0.0
C962 C 0.13887 0.54703 0.76389 0.0
C963 C 0.1401 0.49269 0.68579 0.0
C964 C 0.14029 0.51151 0.71204 0.0
H965 H 0.15993 0.58853 0.88213 0.0
H966 H 0.16338 0.55944 0.83377 0.0
H967 H 0.12733 0.55997 0.70156 0.0
H968 H 0.10778 0.46217 0.63029 0.0
H969 H 0.10875 0.49406 0.67007 0.0
C970 C 0.59804 0.89711 0.25128 0.0
C971 C 0.59661 0.89492 0.20373 0.0
C972 C 0.58103 0.89585 0.27872 0.0
C973 C 0.52713 0.90304 0.27417 0.0
H974 H 0.52527 0.87145 0.38434 0.0
C975 C 0.46269 0.90835 0.40301 0.0
C976 C 0.45442 0.89037 0.41795 0.0
C977 C 0.48034 0.90857 0.37799 0.0
C978 C 0.52558 0.88028 0.35358 0.0
H979 H 0.57613 0.88963 0.14791 0.0
H980 H 0.54664 0.88772 0.19557 0.0
H981 H 0.55575 0.87241 0.33865 0.0
H982 H 0.45829 0.85852 0.41937 0.0
H983 H 0.48942 0.85889 0.37596 0.0
H984 H 0.49708 0.91101 0.289 0.0
C985 C 0.56087 0.89037 0.21165 0.0
C986 C 0.54305 0.88096 0.32767 0.0
C987 C 0.57783 0.89137 0.18437 0.0
C988 C 0.46434 0.87259 0.40811 0.0
C989 C 0.48217 0.87281 0.38352 0.0
C990 C 0.5098 0.90258 0.30033 0.0
C991 C 0.56224 0.8927 0.25908 0.0
C992 C 0.54396 0.89226 0.28753 0.0
C993 C 0.49027 0.89081 0.36786 0.0
C994 C 0.50879 0.89116 0.34025 0.0
H995 H 0.61226 0.89986 0.26732 0.0
H996 H 0.58252 0.89781 0.31518 0.0
H997 H 0.52742 0.912 0.24359 0.0
H998 H 0.45535 0.92228 0.41011 0.0
H999 H 0.4863 0.92267 0.36676 0.0
C1000 C 0.90716 0.96247 0.6534 0.0
C1001 C 0.88896 0.95377 0.6655 0.0
C1002 C 0.9077 0.98036 0.6293 0.0
C1003 C 0.87645 1.01248 0.55588 0.0
H1004 H 0.91821 0.05101 0.57789 0.0
C1005 C 0.89066 0.07784 0.43327 0.0
C1006 C 0.89665 0.09621 0.45144 0.0
C1007 C 0.88921 0.06105 0.46097 0.0
C1008 C 0.9063 0.04055 0.57157 0.0
H1009 H 0.85705 0.95721 0.66328 0.0
H1010 H 0.85789 0.98861 0.62194 0.0
H1011 H 0.91644 0.02115 0.62423 0.0
H1012 H 0.90567 0.11128 0.51341 0.0
H1013 H 0.90275 0.08209 0.56197 0.0
H1014 H 0.86603 0.03206 0.50397 0.0
C1015 C 0.87181 0.98145 0.63002 0.0
C1016 C 0.90544 0.02323 0.5978 0.0
C1017 C 0.8713 0.96351 0.65396 0.0
C1018 C 0.90104 0.09738 0.4982 0.0
C1019 C 0.89949 0.08057 0.52603 0.0
C1020 C 0.87726 0.02982 0.5298 0.0
C1021 C 0.89002 0.99007 0.61704 0.0
C1022 C 0.89059 1.00887 0.59012 0.0
C1023 C 0.8936 0.06214 0.50776 0.0
C1024 C 0.89229 0.04403 0.53698 0.0
H1025 H 0.92102 0.95525 0.66179 0.0
H1026 H 0.922 0.98634 0.61942 0.0
H1027 H 0.86492 1.00172 0.54852 0.0
H1028 H 0.88729 0.0763 0.39737 0.0
H1029 H 0.88499 0.0471 0.44539 0.0
C1030 C 0.09971 0.12842 0.55249 0.0
C1031 C 0.09829 0.13024 0.60012 0.0
C1032 C 0.08273 0.12994 0.52508 0.0
C1033 C 0.0288 0.12273 0.52904 0.0
H1034 H 0.02734 0.15507 0.41999 0.0
C1035 C 0.96511 0.11749 0.39831 0.0
C1036 C 0.95669 0.13545 0.38404 0.0
C1037 C 0.98264 0.11739 0.42373 0.0
C1038 C 0.02754 0.14603 0.45044 0.0
H1039 H 0.07786 0.13514 0.65614 0.0
H1040 H 0.04838 0.13747 0.6085 0.0
H1041 H 0.05769 0.15394 0.4661 0.0
H1042 H 0.96019 0.16737 0.3842 0.0
H1043 H 0.99118 0.1672 0.42826 0.0
H1044 H 0.99878 0.11467 0.51338 0.0
C1045 C 0.0626 0.13493 0.59234 0.0
C1046 C 0.04493 0.14526 0.47659 0.0
C1047 C 0.07954 0.13369 0.61961 0.0
C1048 C 0.96637 0.15333 0.3949 0.0
C1049 C 0.98411 0.15321 0.41989 0.0
C1050 C 1.01156 0.12327 0.50261 0.0
C1051 C 0.06396 0.13299 0.5448 0.0
C1052 C 0.04571 0.13366 0.5163 0.0
C1053 C 0.99232 0.13523 0.43495 0.0
C1054 C 1.0107 0.13494 0.46305 0.0
H1055 H 0.11392 0.1258 0.53635 0.0
H1056 H 0.08422 0.12828 0.48855 0.0
H1057 H 0.02898 0.11355 0.55926 0.0
H1058 H 0.95796 0.10349 0.39044 0.0
H1059 H 0.9887 0.1033 0.43447 0.0
C1060 C 0.11782 0.92884 0.49752 0.0
C1061 C 0.13114 0.92562 0.46151 0.0
C1062 C 0.11946 0.94582 0.52485 0.0
C1063 C 0.14357 0.99613 0.52692 0.0
H1064 H 0.12544 0.99585 0.65223 0.0
C1065 C 0.1558 0.0617 0.65278 0.0
C1066 C 0.13815 0.06914 0.67157 0.0
C1067 C 0.15581 0.04366 0.62906 0.0
C1068 C 0.13056 0.9961 0.61726 0.0
H1069 H 0.15708 0.93722 0.42696 0.0
H1070 H 0.16066 0.96616 0.4758 0.0
H1071 H 0.12443 0.96526 0.60783 0.0
H1072 H 0.10692 0.06301 0.68251 0.0
H1073 H 0.10712 0.03111 0.6426 0.0
H1074 H 0.15027 0.02693 0.53734 0.0
C1075 C 0.14837 0.95616 0.48208 0.0
C1076 C 0.12984 0.9786 0.59153 0.0
C1077 C 0.14645 0.93942 0.45417 0.0
C1078 C 0.12072 0.05772 0.66813 0.0
C1079 C 0.12083 0.03946 0.64538 0.0
C1080 C 0.14469 0.01349 0.55299 0.0
C1081 C 0.13472 0.95983 0.51748 0.0
C1082 C 0.13615 0.97835 0.54573 0.0
C1083 C 0.13829 0.03241 0.62496 0.0
C1084 C 0.13802 0.0137 0.59825 0.0
H1085 H 0.10573 0.91857 0.50367 0.0
H1086 H 0.10839 0.94813 0.551 0.0
H1087 H 0.14816 0.99686 0.49165 0.0
H1088 H 0.16955 0.06997 0.65578 0.0
H1089 H 0.16951 0.03845 0.614 0.0
C1090 C 0.06039 0.90542 0.40473 0.0
C1091 C 0.06961 0.88768 0.39162 0.0
C1092 C 0.04225 0.9051 0.42791 0.0
C1093 C 1.00942 0.87207 0.49621 0.0
H1094 H 0.97093 0.91353 0.47441 0.0
C1095 C 0.94209 0.88433 0.61496 0.0
C1096 C 0.92417 0.89114 0.5962 0.0
C1097 C 0.9592 0.88281 0.58818 0.0
C1098 C 0.98135 0.90167 0.4806 0.0
H1099 H 0.06697 0.85569 0.39173 0.0
H1100 H 0.03506 0.85505 0.43136 0.0
H1101 H 1.00147 0.91284 0.43039 0.0
H1102 H 0.91012 0.90112 0.5339 0.0
H1103 H 0.93979 0.89802 0.48694 0.0
H1104 H 0.98906 0.8606 0.54559 0.0
C1105 C 0.042 0.86925 0.42467 0.0
C1106 C 0.99908 0.90144 0.45575 0.0
C1107 C 0.06023 0.86959 0.40171 0.0
C1108 C 0.92368 0.89595 0.54963 0.0
C1109 C 0.94078 0.89429 0.52272 0.0
C1110 C 0.99163 0.87222 0.52087 0.0
C1111 C 0.03276 0.88702 0.43824 0.0
C1112 C 1.01348 0.88676 0.46349 0.0
C1113 C 0.95885 0.88791 0.54173 0.0
C1114 C 0.9774 0.88714 0.51377 0.0
H1115 H 0.06736 0.91958 0.39766 0.0
H1116 H 0.03586 0.91908 0.43845 0.0
H1117 H 0.02017 0.86062 0.50354 0.0
H1118 H 0.9431 0.88059 0.65074 0.0
H1119 H 0.97284 0.87815 0.60435 0.0
C1120 C 0.38645 0.18817 0.12605 0.0
C1121 C 0.36778 0.17883 0.12448 0.0
C1122 C 0.38788 0.2089 0.12891 0.0
C1123 C 0.35875 0.25506 0.11185 0.0
H1124 H 0.39475 0.27786 0.20088 0.0
C1125 C 0.34975 0.33533 0.17196 0.0
C1126 C 0.36686 0.34718 0.17521 0.0
C1127 C 0.35123 0.31485 0.16599 0.0
C1128 C 0.38478 0.27175 0.17552 0.0
H1129 H 0.33605 0.18382 0.12292 0.0
H1130 H 0.33847 0.21974 0.12778 0.0
H1131 H 0.39518 0.24212 0.18649 0.0
H1132 H 0.39901 0.34676 0.17697 0.0
H1133 H 0.40164 0.31079 0.16652 0.0
H1134 H 0.34815 0.28452 0.10121 0.0
C1135 C 0.35206 0.21123 0.12663 0.0
C1136 C 0.38506 0.25127 0.16715 0.0
C1137 C 0.35065 0.1906 0.12403 0.0
C1138 C 0.38555 0.33798 0.17458 0.0
C1139 C 0.38705 0.31739 0.16861 0.0
C1140 C 0.35845 0.27545 0.12024 0.0
C1141 C 0.37066 0.22067 0.12981 0.0
C1142 C 0.3718 0.24263 0.13574 0.0
C1143 C 0.36988 0.30565 0.16308 0.0
C1144 C 0.37119 0.28403 0.15275 0.0
H1145 H 0.39992 0.17945 0.12651 0.0
H1146 H 0.40244 0.2157 0.13078 0.0
H1147 H 0.34863 0.249 0.08674 0.0
H1148 H 0.33514 0.34197 0.17274 0.0
H1149 H 0.3377 0.30622 0.16301 0.0
C1150 C 0.33831 0.67691 0.87459 0.0
C1151 C 0.35005 0.65977 0.87501 0.0
C1152 C 0.31765 0.67553 0.87669 0.0
C1153 C 0.27748 0.64251 0.91602 0.0
H1154 H 0.24432 0.67944 0.84992 0.0
C1155 C 0.19073 0.64187 0.92239 0.0
C1156 C 0.18149 0.66052 0.92315 0.0
C1157 C 0.21135 0.64043 0.91652 0.0
C1158 C 0.25337 0.66913 0.86899 0.0
H1159 H 0.34937 0.62766 0.87635 0.0
H1160 H 0.31308 0.62519 0.87975 0.0
H1161 H 0.27992 0.67902 0.83604 0.0
H1162 H 0.18662 0.69223 0.92095 0.0
H1163 H 0.22242 0.68976 0.91143 0.0
H1164 H 0.2508 0.63277 0.94924 0.0
C1165 C 0.31991 0.63973 0.87831 0.0
C1166 C 0.2738 0.66887 0.86093 0.0
C1167 C 0.34067 0.64113 0.87596 0.0
C1168 C 0.1933 0.67765 0.92008 0.0
C1169 C 0.21381 0.67622 0.91422 0.0
C1170 C 0.25697 0.64277 0.92407 0.0
C1171 C 0.30816 0.65695 0.87932 0.0
C1172 C 0.28619 0.65581 0.88488 0.0
C1173 C 0.22306 0.65761 0.91126 0.0
C1174 C 0.24472 0.65635 0.90123 0.0
H1175 H 0.34514 0.69147 0.87393 0.0
H1176 H 0.30914 0.6891 0.87791 0.0
H1177 H 0.2866 0.63239 0.9354 0.0
H1178 H 0.18198 0.62841 0.92463 0.0
H1179 H 0.21799 0.62587 0.91437 0.0
C1180 C 0.63772 0.83734 0.13398 0.0
C1181 C 0.65614 0.84646 0.12531 0.0
C1182 C 0.63624 0.81661 0.13678 0.0
C1183 C 0.66092 0.77069 0.10108 0.0
H1184 H 0.63812 0.74657 0.20902 0.0
C1185 C 0.67689 0.68987 0.14122 0.0
C1186 C 0.66161 0.67769 0.15773 0.0
C1187 C 0.67462 0.71037 0.13946 0.0
C1188 C 0.64427 0.75303 0.17836 0.0
H1189 H 0.68722 0.84116 0.11133 0.0
H1190 H 0.68454 0.80509 0.11479 0.0
H1191 H 0.6363 0.78259 0.19859 0.0
H1192 H 0.63216 0.67737 0.1871 0.0
H1193 H 0.62787 0.71356 0.18321 0.0
H1194 H 0.66879 0.74144 0.0803 0.0
C1195 C 0.67129 0.81387 0.11986 0.0
C1196 C 0.64323 0.77366 0.1724 0.0
C1197 C 0.67284 0.83451 0.1179 0.0
C1198 C 0.64422 0.68649 0.17452 0.0
C1199 C 0.64179 0.70719 0.17215 0.0
C1200 C 0.66178 0.75017 0.10672 0.0
C1201 C 0.65305 0.80468 0.12998 0.0
C1202 C 0.65198 0.78272 0.13418 0.0
C1203 C 0.65679 0.71932 0.15327 0.0
C1204 C 0.65398 0.74106 0.14603 0.0
H1205 H 0.62463 0.84622 0.14014 0.0
H1206 H 0.62198 0.80992 0.14434 0.0
H1207 H 0.66748 0.7772 0.07089 0.0
H1208 H 0.69053 0.68348 0.12843 0.0
H1209 H 0.68678 0.71919 0.12626 0.0
C1210 C 0.83598 0.35121 0.92387 0.0
C1211 C 0.84804 0.36816 0.92699 0.0
C1212 C 0.81543 0.35292 0.91965 0.0
C1213 C 0.77654 0.38749 0.88142 0.0
H1214 H 0.7418 0.34862 0.93743 0.0
C1215 C 0.68964 0.38804 0.87006 0.0
C1216 C 0.68056 0.36938 0.86453 0.0
C1217 C 0.71023 0.38951 0.87667 0.0
C1218 C 0.75131 0.3595 0.92122 0.0
H1219 H 0.84801 0.40026 0.9297 0.0
H1220 H 0.81187 0.40331 0.92281 0.0
H1221 H 0.77704 0.34854 0.95527 0.0
H1222 H 0.68599 0.33786 0.8583 0.0
H1223 H 0.72173 0.34042 0.8693 0.0
H1224 H 0.75056 0.3984 0.84738 0.0
C1225 C 0.81839 0.38867 0.92301 0.0
C1226 C 0.77154 0.35947 0.93149 0.0
C1227 C 0.83905 0.38693 0.92738 0.0
C1228 C 0.69254 0.35242 0.86292 0.0
C1229 C 0.713 0.35387 0.8696 0.0
C1230 C 0.75619 0.38759 0.87129 0.0
C1231 C 0.80635 0.37166 0.91853 0.0
C1232 C 0.78451 0.37318 0.91105 0.0
C1233 C 0.72202 0.37234 0.87798 0.0
C1234 C 0.74343 0.37331 0.89037 0.0
H1235 H 0.8425 0.33655 0.92339 0.0
H1236 H 0.80672 0.3395 0.91568 0.0
H1237 H 0.78612 0.39818 0.86476 0.0
H1238 H 0.68075 0.40137 0.8715 0.0
H1239 H 0.71675 0.40395 0.88292 0.0
C1240 C 0.85216 0.68936 0.62709 0.0
C1241 C 0.86921 0.6777 0.63202 0.0
C1242 C 0.85344 0.71003 0.62897 0.0
C1243 C 0.88241 0.75091 0.67658 0.0
H1244 H 0.85475 0.78227 0.58641 0.0
C1245 C 0.88248 0.83799 0.67426 0.0
C1246 C 0.86499 0.84693 0.65856 0.0
C1247 C 0.88447 0.81723 0.67293 0.0
C1248 C 0.86234 0.7738 0.61236 0.0
H1249 H 0.90105 0.67845 0.64252 0.0
H1250 H 0.90324 0.71477 0.64658 0.0
H1251 H 0.85565 0.74642 0.57862 0.0
H1252 H 0.83546 0.84138 0.6324 0.0
H1253 H 0.83843 0.80558 0.63226 0.0
H1254 H 0.88856 0.77834 0.71114 0.0
C1255 C 0.88891 0.70785 0.64105 0.0
C1256 C 0.86295 0.75322 0.60762 0.0
C1257 C 0.88767 0.68711 0.63836 0.0
C1258 C 0.84919 0.83486 0.64429 0.0
C1259 C 0.85101 0.81431 0.64367 0.0
C1260 C 0.8816 0.7716 0.68168 0.0
C1261 C 0.87177 0.71951 0.6365 0.0
C1262 C 0.87271 0.7415 0.63998 0.0
C1263 C 0.8689 0.80517 0.65629 0.0
C1264 C 0.87119 0.78329 0.65005 0.0
H1265 H 0.83775 0.68249 0.62231 0.0
H1266 H 0.83996 0.71862 0.62565 0.0
H1267 H 0.89 0.74222 0.70215 0.0
H1268 H 0.89494 0.84703 0.68511 0.0
H1269 H 0.89846 0.81074 0.683 0.0
C1270 C 0.83935 0.13713 0.38177 0.0
C1271 C 0.84837 0.15568 0.37437 0.0
C1272 C 0.81862 0.13548 0.38438 0.0
C1273 C 0.77263 0.16006 0.3496 0.0
H1274 H 0.74829 0.13609 0.45597 0.0
C1275 C 0.69143 0.17475 0.38889 0.0
C1276 C 0.67934 0.1592 0.40434 0.0
C1277 C 0.71198 0.17273 0.38753 0.0
C1278 C 0.75482 0.14256 0.42573 0.0
H1279 H 0.84291 0.18685 0.3625 0.0
H1280 H 0.8068 0.18389 0.36564 0.0
H1281 H 0.78442 0.13475 0.44608 0.0
H1282 H 0.67919 0.12954 0.43228 0.0
H1283 H 0.71549 0.1257 0.429 0.0
H1284 H 0.74335 0.16776 0.32868 0.0
C1285 C 0.81568 0.17067 0.36987 0.0
C1286 C 0.7755 0.1418 0.4201 0.0
C1287 C 0.83633 0.17237 0.36811 0.0
C1288 C 0.68825 0.1418 0.42051 0.0
C1289 C 0.70901 0.13962 0.41849 0.0
C1290 C 0.75206 0.16063 0.35491 0.0
C1291 C 0.80659 0.15227 0.37865 0.0
C1292 C 0.78462 0.15097 0.38248 0.0
C1293 C 0.72106 0.15491 0.40064 0.0
C1294 C 0.74287 0.1524 0.39366 0.0
H1295 H 0.84832 0.12403 0.387 0.0
H1296 H 0.81199 0.1211 0.3909 0.0
H1297 H 0.77921 0.16694 0.31986 0.0
H1298 H 0.68494 0.18841 0.37664 0.0
H1299 H 0.72073 0.1851 0.37516 0.0
C1300 C 0.17537 0.33456 0.62257 0.0
C1301 C 0.15841 0.34655 0.62428 0.0
C1302 C 0.1737 0.31395 0.62456 0.0
C1303 C 0.14071 0.27423 0.66597 0.0
H1304 H 0.1765 0.24079 0.59705 0.0
C1305 C 0.17601 0.1903 0.66855 0.0
C1306 C 0.15899 0.17837 0.67274 0.0
C1307 C 0.17436 0.21074 0.66253 0.0
C1308 C 0.1665 0.24992 0.61686 0.0
H1309 H 0.12629 0.34636 0.6279 0.0
H1310 H 0.12331 0.31012 0.63117 0.0
H1311 H 0.17609 0.27633 0.58308 0.0
H1312 H 0.12687 0.17861 0.67614 0.0
H1313 H 0.12394 0.21457 0.66566 0.0
H1314 H 0.13129 0.24767 0.70004 0.0
C1315 C 0.13794 0.31674 0.62874 0.0
C1316 C 0.16624 0.27031 0.60877 0.0
C1317 C 0.13963 0.33746 0.62647 0.0
C1318 C 0.14024 0.18746 0.673 0.0
C1319 C 0.13858 0.20803 0.667 0.0
C1320 C 0.14095 0.25374 0.67404 0.0
C1321 C 0.155 0.30475 0.6284 0.0
C1322 C 0.15364 0.28281 0.63381 0.0
C1323 C 0.15564 0.21983 0.66053 0.0
C1324 C 0.15416 0.24141 0.65022 0.0
H1325 H 0.19004 0.34116 0.62095 0.0
H1326 H 0.18717 0.30524 0.62475 0.0
H1327 H 0.13093 0.28344 0.68615 0.0
H1328 H 0.19066 0.18374 0.66864 0.0
H1329 H 0.18782 0.21943 0.65882 0.0
C1330 C 0.33477 0.84946 0.43327 0.0
C1331 C 0.34651 0.86669 0.43364 0.0
C1332 C 0.31411 0.85071 0.43072 0.0
C1333 C 0.27411 0.88371 0.39167 0.0
H1334 H 0.24066 0.84619 0.45601 0.0
C1335 C 0.18738 0.88412 0.38483 0.0
C1336 C 0.17803 0.86546 0.3834 0.0
C1337 C 0.208 0.88557 0.39072 0.0
C1338 C 0.24979 0.85666 0.43742 0.0
H1339 H 0.34585 0.8988 0.43319 0.0
H1340 H 0.30958 0.90103 0.42903 0.0
H1341 H 0.27623 0.84668 0.47038 0.0
H1342 H 0.18299 0.83375 0.38437 0.0
H1343 H 0.21881 0.83624 0.39392 0.0
H1344 H 0.24754 0.89356 0.35848 0.0
C1345 C 0.3164 0.88653 0.43018 0.0
C1346 C 0.2702 0.85697 0.44576 0.0
C1347 C 0.33714 0.88526 0.43297 0.0
C1348 C 0.18975 0.84834 0.38576 0.0
C1349 C 0.21027 0.84978 0.39164 0.0
C1350 C 0.25361 0.88342 0.38335 0.0
C1351 C 0.30465 0.86923 0.42841 0.0
C1352 C 0.28269 0.87026 0.42247 0.0
C1353 C 0.21962 0.86839 0.39534 0.0
C1354 C 0.24126 0.86963 0.40556 0.0
H1355 H 0.34158 0.83494 0.43368 0.0
H1356 H 0.3056 0.83708 0.42891 0.0
H1357 H 0.28331 0.89402 0.37279 0.0
H1358 H 0.17869 0.89758 0.38314 0.0
H1359 H 0.21472 0.90014 0.39344 0.0
C1360 C 0.21892 0.11168 0.75726 0.0
C1361 C 0.19939 0.11492 0.77231 0.0
C1362 C 0.23467 0.1107 0.7886 0.0
C1363 C 0.24732 0.12441 0.90895 0.0
H1364 H 0.29257 0.09018 0.88917 0.0
C1365 C 0.30815 0.11307 0.04644 0.0
C1366 C 0.32788 0.1143 0.03112 0.0
C1367 C 0.2924 0.11207 1.01519 0.0
C1368 C 0.28007 0.0999 0.89509 0.0
H1369 H 0.18113 0.11897 0.83248 0.0
H1370 H 0.20811 0.11658 0.88652 0.0
H1371 H 0.26552 0.09045 0.83385 0.0
H1372 H 0.34649 0.11466 0.9708 0.0
H1373 H 0.31917 0.11284 0.9167 0.0
H1374 H 0.26181 0.13366 0.97044 0.0
C1375 C 0.21157 0.11545 0.85061 0.0
C1376 C 0.26456 0.10013 0.8632 0.0
C1377 C 0.19596 0.11666 0.81941 0.0
C1378 C 0.33149 0.11392 0.9839 0.0
C1379 C 0.3158 0.1127 0.95277 0.0
C1380 C 0.26271 0.12402 0.94098 0.0
C1381 C 0.23123 0.11276 0.8358 0.0
C1382 C 0.24793 0.11242 0.8696 0.0
C1383 C 0.29603 0.112 0.96793 0.0
C1384 C 0.27932 0.11181 0.93446 0.0
H1385 H 0.22211 0.11036 0.72124 0.0
H1386 H 0.24958 0.10881 0.77566 0.0
H1387 H 0.23508 0.13444 0.91482 0.0
H1388 H 0.30483 0.11334 0.08252 0.0
H1389 H 0.27734 0.11135 0.02804 0.0
C1390 C 0.11382 0.71923 1.00684 0.0
C1391 C 0.1165 0.69965 1.02191 0.0
C1392 C 0.11226 0.73487 0.03828 0.0
C1393 C 0.10127 0.74594 0.15991 0.0
H1394 H 0.13142 0.79397 0.13759 0.0
C1395 C 0.11246 0.8067 0.29892 0.0
C1396 C 0.1136 0.82655 0.28469 0.0
C1397 C 0.11163 0.79125 0.26679 0.0
C1398 C 0.12263 0.78082 0.14421 0.0
H1399 H 0.11886 0.68117 0.08206 0.0
H1400 H 0.11623 0.70825 0.13641 0.0
H1401 H 0.1316 0.76746 0.08126 0.0
H1402 H 0.11367 0.84571 0.22546 0.0
H1403 H 0.11183 0.81908 0.16997 0.0
H1404 H 0.09221 0.75931 0.22277 0.0
C1405 C 0.11534 0.71161 0.10042 0.0
C1406 C 0.12276 0.76557 0.11176 0.0
C1407 C 0.11706 0.69606 0.0691 0.0
C1408 C 0.11322 0.83059 0.23772 0.0
C1409 C 0.11224 0.81524 0.20574 0.0
C1410 C 0.10102 0.76126 0.19227 0.0
C1411 C 0.1131 0.73126 0.08551 0.0
C1412 C 0.11218 0.74787 0.11924 0.0
C1413 C 0.11175 0.79529 0.21965 0.0
C1414 C 0.11176 0.77893 0.18501 0.0
H1415 H 0.11332 0.72253 0.97078 0.0
H1416 H 0.11034 0.7498 1.02559 0.0
H1417 H 0.09275 0.73262 0.1666 0.0
H1418 H 0.11279 0.80306 0.33482 0.0
H1419 H 0.11144 0.77611 0.27898 0.0
C1420 C 0.69407 0.90677 0.98313 0.0
C1421 C 0.69738 0.90977 0.03002 0.0
C1422 C 0.70961 0.90827 0.95175 0.0
C1423 C 0.76385 0.90426 0.94177 0.0
H1424 H 0.75602 0.93048 0.82574 0.0
C1425 C 0.82847 0.91326 0.81468 0.0
C1426 C 0.82459 0.91135 0.76778 0.0
C1427 C 0.81301 0.91439 0.84628 0.0
C1428 C 0.75843 0.92286 0.85767 0.0
H1429 H 0.71986 0.91672 0.0804 0.0
H1430 H 0.74716 0.91914 1.02541 0.0
H1431 H 0.72932 0.93015 0.8819 0.0
H1432 H 0.80118 0.9095 0.71743 0.0
H1433 H 0.77403 0.911 0.77273 0.0
H1434 H 0.79268 0.89647 0.91743 0.0
C1435 C 0.7324 0.91564 1.01311 0.0
C1436 C 0.74311 0.92275 0.89002 0.0
C1437 C 0.71674 0.91435 0.04462 0.0
C1438 C 0.80471 0.91105 0.75324 0.0
C1439 C 0.78914 0.91198 0.78507 0.0
C1440 C 0.77909 0.90421 0.90931 0.0
C1441 C 0.72901 0.91261 0.96624 0.0
C1442 C 0.74561 0.91343 0.93249 0.0
C1443 C 0.79308 0.91342 0.83218 0.0
C1444 C 0.77665 0.91352 0.86672 0.0
H1445 H 0.67944 0.90312 0.97042 0.0
H1446 H 0.70647 0.90558 0.91609 0.0
H1447 H 0.76618 0.89665 0.97375 0.0
H1448 H 0.84355 0.91383 0.82726 0.0
H1449 H 0.81677 0.91605 0.88194 0.0
C1450 C 0.91033 0.33074 0.072 0.0
C1451 C 0.91127 0.32742 1.02473 0.0
C1452 C 0.91146 0.31499 0.10281 0.0
C1453 C 0.92481 0.26122 0.11239 0.0
H1454 H 0.89412 0.26494 0.22379 0.0
C1455 C 0.90999 0.19419 0.23164 0.0
C1456 C 0.91162 0.19727 0.27895 0.0
C1457 C 0.91116 0.21009 0.20115 0.0
C1458 C 0.90295 0.26375 0.1931 0.0
H1459 H 0.91422 0.30473 0.97296 0.0
H1460 H 0.91554 0.27709 0.02658 0.0
H1461 H 0.89339 0.29206 0.16928 0.0
H1462 H 0.9158 0.21969 0.33106 0.0
H1463 H 0.91752 0.24755 0.27772 0.0
H1464 H 0.93378 0.23252 0.13596 0.0
C1465 C 0.91442 0.29199 0.04004 0.0
C1466 C 0.90261 0.27937 0.1617 0.0
C1467 C 0.91357 0.30785 1.00911 0.0
C1468 C 0.91454 0.21674 0.29492 0.0
C1469 C 0.91542 0.23272 0.26435 0.0
C1470 C 0.92493 0.24548 0.14357 0.0
C1471 C 0.91325 0.2953 0.08746 0.0
C1472 C 0.91358 0.27843 0.12083 0.0
C1473 C 0.9137 0.22959 0.21706 0.0
C1474 C 0.91403 0.24656 0.18438 0.0
H1475 H 0.90873 0.34559 0.08545 0.0
H1476 H 0.91102 0.31838 0.13884 0.0
H1477 H 0.93374 0.25995 0.08189 0.0
H1478 H 0.9077 0.17946 0.21795 0.0
H1479 H 0.90957 0.20713 0.16506 0.0
C1480 C 0.33073 0.4113 0.3199 0.0
C1481 C 0.32723 0.41151 0.27264 0.0
C1482 C 0.31501 0.41251 0.3509 0.0
C1483 C 0.26144 0.40259 0.36146 0.0
H1484 H 0.26566 0.43431 0.47132 0.0
C1485 C 0.19529 0.41025 0.485 0.0
C1486 C 0.19907 0.41072 0.53212 0.0
C1487 C 0.2108 0.41148 0.45348 0.0
C1488 C 0.2643 0.42516 0.44116 0.0
H1489 H 0.30436 0.41352 0.22105 0.0
H1490 H 0.27679 0.41556 0.27532 0.0
H1491 H 0.29264 0.43464 0.41586 0.0
H1492 H 0.22226 0.41313 0.5829 0.0
H1493 H 0.24947 0.41487 0.52788 0.0
H1494 H 0.23337 0.39271 0.38694 0.0
C1495 C 0.29178 0.41435 0.28829 0.0
C1496 C 0.27977 0.42542 0.40921 0.0
C1497 C 0.30758 0.41332 0.25717 0.0
C1498 C 0.21881 0.4128 0.54689 0.0
C1499 C 0.23441 0.41388 0.51523 0.0
C1500 C 0.24604 0.40221 0.39353 0.0
C1501 C 0.2953 0.41384 0.33558 0.0
C1502 C 0.27855 0.41413 0.36894 0.0
C1503 C 0.23064 0.41304 0.46799 0.0
C1504 C 0.2472 0.4135 0.43389 0.0
H1505 H 0.34567 0.41012 0.33313 0.0
H1506 H 0.3183 0.4119 0.38698 0.0
H1507 H 0.26013 0.39344 0.33126 0.0
H1508 H 0.18027 0.40896 0.47223 0.0
H1509 H 0.20714 0.41128 0.41757 0.0
C1510 C 0.41634 0.71888 0.79933 0.0
C1511 C 0.41444 0.69927 0.78354 0.0
C1512 C 0.41717 0.73476 0.76853 0.0
C1513 C 0.42735 0.74726 0.64746 0.0
H1514 H 0.39502 0.7934 0.67232 0.0
C1515 C 0.41361 0.8085 0.51173 0.0
C1516 C 0.41164 0.82817 0.5269 0.0
C1517 C 0.41499 0.79285 0.54307 0.0
C1518 C 0.40441 0.78081 0.665 0.0
H1519 H 0.41266 0.68104 0.72272 0.0
H1520 H 0.4141 0.70857 0.66939 0.0
H1521 H 0.39611 0.76644 0.72724 0.0
H1522 H 0.41049 0.84681 0.5871 0.0
H1523 H 0.41332 0.81984 0.64126 0.0
H1524 H 0.43577 0.76164 0.58535 0.0
C1525 C 0.41494 0.71174 0.70551 0.0
C1526 C 0.405 0.76529 0.69663 0.0
C1527 C 0.41394 0.69593 0.73622 0.0
C1528 C 0.41164 0.83184 0.57408 0.0
C1529 C 0.41317 0.81628 0.6053 0.0
C1530 C 0.42688 0.76285 0.61593 0.0
C1531 C 0.41635 0.7314 0.72119 0.0
C1532 C 0.4164 0.74826 0.68822 0.0
C1533 C 0.4146 0.7965 0.59038 0.0
C1534 C 0.41535 0.77985 0.62413 0.0
H1535 H 0.41675 0.72201 0.83551 0.0
H1536 H 0.41846 0.7497 0.7818 0.0
H1537 H 0.43647 0.73447 0.64008 0.0
H1538 H 0.41358 0.80513 0.47566 0.0
H1539 H 0.41586 0.77785 0.5301 0.0
C1540 C 0.70239 0.6247 0.31053 0.0
C1541 C 0.70338 0.61543 0.2676 0.0
C1542 C 0.71785 0.62295 0.34196 0.0
C1543 C 0.77128 0.60973 0.35243 0.0
H1544 H 0.75851 0.60976 0.48119 0.0
C1545 C 0.83131 0.62402 0.48878 0.0
C1546 C 0.82994 0.61473 0.53158 0.0
C1547 C 0.81603 0.62233 0.45681 0.0
C1548 C 0.76244 0.60946 0.44545 0.0
H1549 H 0.7217 0.59702 0.22425 0.0
H1550 H 0.74867 0.59361 0.27959 0.0
H1551 H 0.73194 0.60929 0.42529 0.0
H1552 H 0.81127 0.59614 0.57387 0.0
H1553 H 0.78465 0.5928 0.51763 0.0
H1554 H 0.80179 0.6093 0.37261 0.0
C1555 C 0.73595 0.60253 0.28866 0.0
C1556 C 0.74711 0.60951 0.41317 0.0
C1557 C 0.72045 0.60442 0.25687 0.0
C1558 C 0.8128 0.60358 0.54141 0.0
C1559 C 0.79748 0.60175 0.50911 0.0
C1560 C 0.78661 0.60951 0.38473 0.0
C1561 C 0.73483 0.61172 0.33183 0.0
C1562 C 0.75127 0.61004 0.36611 0.0
C1563 C 0.79887 0.61112 0.46626 0.0
C1564 C 0.78245 0.60974 0.4318 0.0
H1565 H 0.68966 0.63354 0.32001 0.0
H1566 H 0.71652 0.63072 0.3741 0.0
H1567 H 0.7752 0.61023 0.31669 0.0
H1568 H 0.84419 0.63286 0.47987 0.0
H1569 H 0.8176 0.63017 0.42488 0.0
C1570 C 0.61316 0.22018 0.49931 0.0
C1571 C 0.61601 0.20067 0.51484 0.0
C1572 C 0.61195 0.23603 0.53034 0.0
C1573 C 0.60219 0.24767 0.65229 0.0
H1574 H 0.63202 0.29566 0.62769 0.0
C1575 C 0.61448 0.30875 0.79005 0.0
C1576 C 0.61537 0.3286 0.77563 0.0
C1577 C 0.61348 0.29322 0.75811 0.0
C1578 C 0.62331 0.28253 0.63497 0.0
H1579 H 0.61949 0.18272 0.57566 0.0
H1580 H 0.61728 0.21007 0.62903 0.0
H1581 H 0.63162 0.26901 0.57166 0.0
H1582 H 0.6153 0.34755 0.71598 0.0
H1583 H 0.61297 0.32085 0.66101 0.0
H1584 H 0.59377 0.26116 0.71547 0.0
C1585 C 0.61588 0.2132 0.59301 0.0
C1586 C 0.62312 0.2672 0.60268 0.0
C1587 C 0.61727 0.19746 0.56215 0.0
C1588 C 0.61477 0.3325 0.72857 0.0
C1589 C 0.61361 0.31707 0.6968 0.0
C1590 C 0.60226 0.26306 0.68447 0.0
C1591 C 0.61333 0.23273 0.57763 0.0
C1592 C 0.61266 0.2495 0.611 0.0
C1593 C 0.61322 0.29716 0.71092 0.0
C1594 C 0.6129 0.28071 0.67643 0.0
H1595 H 0.61215 0.22325 0.46321 0.0
H1596 H 0.60984 0.25088 0.5173 0.0
H1597 H 0.59377 0.23434 0.65965 0.0
H1598 H 0.61502 0.30516 0.82595 0.0
H1599 H 0.61343 0.27811 0.77047 0.0
C1600 C 0.3757 0.10266 0.45021 0.0
C1601 C 0.36418 0.11685 0.42732 0.0
C1602 C 0.37897 0.10415 0.49718 0.0
C1603 C 0.35855 0.12718 0.6018 0.0
H1604 H 0.41023 0.11501 0.65229 0.0
C1605 C 0.37848 0.14277 0.79048 0.0
C1606 C 0.39021 0.12873 0.81327 0.0
C1607 C 0.37513 0.14122 0.74354 0.0
C1608 C 0.39563 0.11824 0.63886 0.0
H1609 H 0.34751 0.14404 0.43596 0.0
H1610 H 0.3532 0.14663 0.51771 0.0
H1611 H 0.40496 0.1126 0.57035 0.0
H1612 H 0.40712 0.10169 0.80456 0.0
H1613 H 0.40124 0.09896 0.72291 0.0
H1614 H 0.34921 0.1328 0.67031 0.0
C1615 C 0.35943 0.13414 0.4995 0.0
C1616 C 0.39261 0.11686 0.59181 0.0
C1617 C 0.35616 0.13265 0.45257 0.0
C1618 C 0.39831 0.11297 0.78801 0.0
C1619 C 0.39494 0.11141 0.74112 0.0
C1620 C 0.36156 0.12854 0.64887 0.0
C1621 C 0.3708 0.11986 0.52249 0.0
C1622 C 0.37403 0.12132 0.57264 0.0
C1623 C 0.3834 0.12557 0.71819 0.0
C1624 C 0.38014 0.12409 0.66804 0.0
H1625 H 0.38187 0.09015 0.43201 0.0
H1626 H 0.38758 0.09274 0.51383 0.0
H1627 H 0.34395 0.13042 0.58834 0.0
H1628 H 0.37223 0.15524 0.80872 0.0
H1629 H 0.36638 0.15255 0.72696 0.0
C1630 C 0.12818 0.64664 0.60833 0.0
C1631 C 0.11857 0.66365 0.62503 0.0
C1632 C 0.12989 0.64331 0.56141 0.0
C1633 C 0.12862 0.66925 0.45039 0.0
H1634 H 0.12067 0.61644 0.40128 0.0
C1635 C 0.1245 0.65415 0.25634 0.0
C1636 C 0.13359 0.63683 0.23978 0.0
C1637 C 0.12263 0.65745 0.30324 0.0
C1638 C 0.12318 0.63124 0.41443 0.0
H1639 H 0.10282 0.69025 0.60503 0.0
H1640 H 0.10593 0.6845 0.52343 0.0
H1641 H 0.11754 0.62202 0.48301 0.0
H1642 H 0.14824 0.60964 0.25985 0.0
H1643 H 0.14506 0.61542 0.34142 0.0
H1644 H 0.13436 0.67847 0.3819 0.0
C1645 C 0.11241 0.67388 0.54663 0.0
C1646 C 0.12137 0.63444 0.46136 0.0
C1647 C 0.11064 0.67718 0.59351 0.0
C1648 C 0.14085 0.62298 0.27134 0.0
C1649 C 0.13901 0.62629 0.3182 0.0
C1650 C 0.13048 0.66605 0.40348 0.0
C1651 C 0.12209 0.65692 0.52995 0.0
C1652 C 0.12405 0.65349 0.47996 0.0
C1653 C 0.12983 0.64355 0.33482 0.0
C1654 C 0.12779 0.647 0.38484 0.0
H1655 H 0.13472 0.63605 0.63149 0.0
H1656 H 0.13767 0.63023 0.54977 0.0
H1657 H 0.13109 0.68406 0.4636 0.0
H1658 H 0.1185 0.66501 0.23304 0.0
H1659 H 0.11522 0.67077 0.31472 0.0
C1660 C 0.65886 0.92642 0.45383 0.0
C1661 C 0.66003 0.90946 0.42601 0.0
C1662 C 0.65578 0.92468 0.50079 0.0
C1663 C 0.63777 0.88978 0.58949 0.0
H1664 H 0.66663 0.92461 0.6714 0.0
C1665 C 0.63724 0.87844 0.78482 0.0
C1666 C 0.63569 0.89545 0.81238 0.0
C1667 C 0.64042 0.8801 0.73787 0.0
C1668 C 0.65829 0.9149 0.64902 0.0
H1669 H 0.65897 0.87732 0.42618 0.0
H1670 H 0.65362 0.87429 0.508 0.0
H1671 H 0.67149 0.92759 0.58943 0.0
H1672 H 0.63623 0.9276 0.81171 0.0
H1673 H 0.64184 0.93049 0.72998 0.0
H1674 H 0.6246 0.87708 0.64911 0.0
C1675 C 0.65479 0.88898 0.4934 0.0
C1676 C 0.66106 0.91662 0.60194 0.0
C1677 C 0.65786 0.89072 0.4464 0.0
C1678 C 0.63763 0.91417 0.79175 0.0
C1679 C 0.64084 0.91583 0.74479 0.0
C1680 C 0.63502 0.88805 0.63657 0.0
C1681 C 0.6538 0.90594 0.52128 0.0
C1682 C 0.65083 0.90409 0.5715 0.0
C1683 C 0.64218 0.89882 0.71717 0.0
C1684 C 0.64523 0.9006 0.66699 0.0
H1685 H 0.66013 0.9411 0.43923 0.0
H1686 H 0.65473 0.93808 0.52099 0.0
H1687 H 0.62941 0.88008 0.56713 0.0
H1688 H 0.63617 0.86377 0.79958 0.0
H1689 H 0.64172 0.86668 0.71783 0.0
C1690 C 0.9003 0.37139 0.26113 0.0
C1691 C 0.89581 0.39033 0.24409 0.0
C1692 C 0.90214 0.3682 0.30807 0.0
C1693 C 0.91124 0.39456 0.41708 0.0
H1694 H 0.88894 0.34705 0.47111 0.0
C1695 C 0.90702 0.38358 0.6125 0.0
C1696 C 0.91114 0.36456 0.62962 0.0
C1697 C 0.90504 0.38673 0.56558 0.0
C1698 C 0.89546 0.36029 0.45656 0.0
H1699 H 0.89006 0.42083 0.26334 0.0
H1700 H 0.89296 0.41522 0.34501 0.0
H1701 H 0.88593 0.3524 0.38932 0.0
H1702 H 0.91606 0.3339 0.61043 0.0
H1703 H 0.91307 0.33948 0.52884 0.0
H1704 H 0.92083 0.40244 0.48424 0.0
C1705 C 0.89519 0.40283 0.32209 0.0
C1706 C 0.89373 0.36336 0.40958 0.0
C1707 C 0.8933 0.406 0.27522 0.0
C1708 C 0.91314 0.34879 0.59854 0.0
C1709 C 0.91117 0.35195 0.55167 0.0
C1710 C 0.913 0.39148 0.46404 0.0
C1711 C 0.89962 0.38389 0.33918 0.0
C1712 C 0.90158 0.38054 0.38921 0.0
C1713 C 0.90711 0.37096 0.53451 0.0
C1714 C 0.90513 0.37431 0.48445 0.0
H1715 H 0.90217 0.35894 0.23821 0.0
H1716 H 0.90575 0.35346 0.31995 0.0
H1717 H 0.91773 0.40782 0.40249 0.0
H1718 H 0.90555 0.39611 0.63532 0.0
H1719 H 0.9017 0.40154 0.5537 0.0
C1720 C 0.37768 0.38281 0.51393 0.0
C1721 C 0.38946 0.39683 0.49089 0.0
C1722 C 0.37438 0.38446 0.56086 0.0
C1723 C 0.37606 0.42034 0.65665 0.0
H1724 H 0.37793 0.37303 0.73128 0.0
C1725 C 0.37551 0.42392 0.85366 0.0
C1726 C 0.36394 0.40976 0.87682 0.0
C1727 C 0.37873 0.42232 0.80669 0.0
C1728 C 0.37713 0.38637 0.71092 0.0
H1729 H 0.40661 0.42387 0.49922 0.0
H1730 H 0.40112 0.42658 0.58103 0.0
H1731 H 0.38292 0.3704 0.64927 0.0
H1732 H 0.34707 0.38254 0.86861 0.0
H1733 H 0.35237 0.37994 0.78676 0.0
H1734 H 0.37025 0.43631 0.71828 0.0
C1735 C 0.39432 0.41435 0.56279 0.0
C1736 C 0.37999 0.38485 0.66383 0.0
C1737 C 0.39766 0.41267 0.51591 0.0
C1738 C 0.35585 0.39385 0.85185 0.0
C1739 C 0.35909 0.39223 0.80493 0.0
C1740 C 0.37319 0.42185 0.70374 0.0
C1741 C 0.38272 0.40022 0.58594 0.0
C1742 C 0.3795 0.40182 0.63607 0.0
C1743 C 0.37051 0.40648 0.78167 0.0
C1744 C 0.37369 0.40489 0.73151 0.0
H1745 H 0.37127 0.37033 0.49584 0.0
H1746 H 0.36519 0.37343 0.57746 0.0
H1747 H 0.37529 0.43368 0.63627 0.0
H1748 H 0.38183 0.43646 0.87168 0.0
H1749 H 0.38779 0.43344 0.79003 0.0
C1750 C 0.41983 0.67761 0.21117 0.0
C1751 C 0.41335 0.66328 0.17958 0.0
C1752 C 0.41813 0.67427 0.25802 0.0
C1753 C 0.41193 0.63434 0.34344 0.0
H1754 H 0.39532 0.6774 0.42217 0.0
C1755 C 0.3922 0.62188 0.53286 0.0
C1756 C 0.39864 0.63618 0.56456 0.0
C1757 C 0.39393 0.62527 0.48605 0.0
C1758 C 0.40019 0.66527 0.40078 0.0
H1759 H 0.39986 0.63418 0.17284 0.0
H1760 H 0.39693 0.62833 0.25454 0.0
H1761 H 0.39854 0.683 0.34049 0.0
H1762 H 0.41206 0.6653 0.57153 0.0
H1763 H 0.41505 0.67124 0.48987 0.0
H1764 H 0.41359 0.61661 0.40371 0.0
C1765 C 0.40357 0.64208 0.24303 0.0
C1766 C 0.40204 0.66848 0.35388 0.0
C1767 C 0.40527 0.64543 0.19613 0.0
C1768 C 0.4067 0.65407 0.54815 0.0
C1769 C 0.40842 0.65747 0.50127 0.0
C1770 C 0.41008 0.63113 0.39033 0.0
C1771 C 0.40992 0.65649 0.2746 0.0
C1772 C 0.40793 0.65306 0.32458 0.0
C1773 C 0.40213 0.64308 0.4696 0.0
C1774 C 0.40417 0.64655 0.41964 0.0
H1775 H 0.42646 0.69138 0.19972 0.0
H1776 H 0.4235 0.68555 0.28128 0.0
H1777 H 0.4168 0.62221 0.32205 0.0
H1778 H 0.38558 0.60809 0.5442 0.0
H1779 H 0.38859 0.61401 0.4627 0.0
C1780 C 0.67036 0.5959 0.84432 0.0
C1781 C 0.67143 0.61223 0.87415 0.0
C1782 C 0.66792 0.59868 0.79741 0.0
C1783 C 0.65048 0.63531 0.71257 0.0
H1784 H 0.67922 0.6023 0.62703 0.0
C1785 C 0.64831 0.64964 0.51814 0.0
C1786 C 0.64705 0.63301 0.48928 0.0
C1787 C 0.6519 0.64738 0.56483 0.0
C1788 C 0.6709 0.61151 0.6504 0.0
H1789 H 0.67109 0.64436 0.87739 0.0
H1790 H 0.66674 0.64917 0.79573 0.0
H1791 H 0.68421 0.59783 0.70859 0.0
H1792 H 0.64847 0.6009 0.48739 0.0
H1793 H 0.6547 0.59697 0.56856 0.0
H1794 H 0.63706 0.6489 0.65443 0.0
C1795 C 0.66753 0.63418 0.80875 0.0
C1796 C 0.67378 0.60895 0.69725 0.0
C1797 C 0.67002 0.63141 0.85566 0.0
C1798 C 0.64966 0.61407 0.50835 0.0
C1799 C 0.65324 0.61182 0.55502 0.0
C1800 C 0.64758 0.63785 0.66571 0.0
C1801 C 0.66642 0.61785 0.77898 0.0
C1802 C 0.66357 0.62078 0.72899 0.0
C1803 C 0.65432 0.62843 0.58398 0.0
C1804 C 0.65771 0.62596 0.63395 0.0
H1805 H 0.67104 0.58091 0.85729 0.0
H1806 H 0.66681 0.58574 0.77566 0.0
H1807 H 0.64214 0.64449 0.73596 0.0
H1808 H 0.64668 0.66446 0.50459 0.0
H1809 H 0.65297 0.66054 0.58587 0.0
C1810 C 0.62599 0.40826 0.52733 0.0
C1811 C 0.62504 0.39254 0.55868 0.0
C1812 C 0.62382 0.40477 0.48059 0.0
C1813 C 0.62834 0.36546 0.39351 0.0
H1814 H 0.59723 0.40125 0.31927 0.0
C1815 C 0.6123 0.34907 0.20361 0.0
C1816 C 0.61275 0.36508 0.17293 0.0
C1817 C 0.61309 0.35231 0.25067 0.0
C1818 C 0.60617 0.39123 0.33934 0.0
H1819 H 0.62113 0.36076 0.56522 0.0
H1820 H 0.61723 0.35466 0.48365 0.0
H1821 H 0.59996 0.40704 0.40103 0.0
H1822 H 0.614 0.39715 0.1683 0.0
H1823 H 0.61591 0.40276 0.25015 0.0
H1824 H 0.6348 0.34978 0.3319 0.0
C1825 C 0.61975 0.36971 0.49527 0.0
C1826 C 0.60771 0.39454 0.3863 0.0
C1827 C 0.62179 0.37323 0.54208 0.0
C1828 C 0.61384 0.38443 0.19075 0.0
C1829 C 0.61469 0.38767 0.23784 0.0
C1830 C 0.62688 0.3622 0.34653 0.0
C1831 C 0.62076 0.38544 0.46391 0.0
C1832 C 0.61884 0.38172 0.414 0.0
C1833 C 0.61442 0.37164 0.26849 0.0
C1834 C 0.61579 0.37504 0.31873 0.0
H1835 H 0.62826 0.42335 0.53894 0.0
H1836 H 0.62486 0.4172 0.45743 0.0
H1837 H 0.63728 0.35546 0.41368 0.0
H1838 H 0.61174 0.33394 0.19131 0.0
H1839 H 0.61258 0.33959 0.27311 0.0
C1840 C 0.86752 0.63287 0.94842 0.0
C1841 C 0.867 0.61399 0.92798 0.0
C1842 C 0.87037 0.63494 0.99547 0.0
C1843 C 0.86651 0.60705 0.10422 0.0
H1844 H 0.89941 0.64966 0.15128 0.0
C1845 C 0.8891 0.61183 0.29455 0.0
C1846 C 0.89005 0.6307 0.31497 0.0
C1847 C 0.88605 0.60982 0.24756 0.0
C1848 C 0.88996 0.63782 0.13884 0.0
H1849 H 0.86958 0.58249 0.94128 0.0
H1850 H 0.87461 0.58609 1.02311 0.0
H1851 H 0.89483 0.64614 0.06935 0.0
H1852 H 0.88794 0.66223 0.30181 0.0
H1853 H 0.88246 0.65875 0.22011 0.0
H1854 H 0.86162 0.59874 0.17369 0.0
C1855 C 0.87244 0.59931 1.00289 0.0
C1856 C 0.88734 0.63579 0.09172 0.0
C1857 C 0.86957 0.59725 0.95587 0.0
C1858 C 0.88762 0.64748 0.28719 0.0
C1859 C 0.88451 0.64548 0.24023 0.0
C1860 C 0.86911 0.60909 0.15134 0.0
C1861 C 0.8728 0.61818 1.02342 0.0
C1862 C 0.87559 0.62036 0.07372 0.0
C1863 C 0.88379 0.62662 0.21966 0.0
C1864 C 0.88089 0.6245 0.16936 0.0
H1865 H 0.8653 0.64608 0.92819 0.0
H1866 H 0.87026 0.64969 1.01005 0.0
H1867 H 0.85709 0.59519 0.09175 0.0
H1868 H 0.8912 0.59858 0.31473 0.0
H1869 H 0.8859 0.59507 0.23297 0.0
C1870 C 0.63778 0.12657 0.76805 0.0
C1871 C 0.63373 0.14156 0.73614 0.0
C1872 C 0.63529 0.12995 0.81474 0.0
C1873 C 0.63145 0.17003 0.90101 0.0
H1874 H 0.60864 0.12846 0.97575 0.0
C1875 C 0.60964 0.18274 0.09008 0.0
C1876 C 0.61341 0.16732 0.12109 0.0
C1877 C 0.61214 0.17984 0.04316 0.0
C1878 C 0.61526 0.14016 0.95555 0.0
H1879 H 0.62408 0.17202 0.7288 0.0
H1880 H 0.61947 0.17783 0.81021 0.0
H1881 H 0.61293 0.12303 0.89433 0.0
H1882 H 0.62264 0.13664 0.12655 0.0
H1883 H 0.62739 0.13174 0.0451 0.0
H1884 H 0.63381 0.18714 0.96232 0.0
C1885 C 0.62474 0.16347 0.79907 0.0
C1886 C 0.61771 0.13704 0.90874 0.0
C1887 C 0.62718 0.16007 0.7523 0.0
C1888 C 0.6198 0.14894 0.10385 0.0
C1889 C 0.62229 0.14604 0.05697 0.0
C1890 C 0.62901 0.17314 0.94788 0.0
C1891 C 0.6287 0.14843 0.83094 0.0
C1892 C 0.62589 0.15191 0.88081 0.0
C1893 C 0.61845 0.16143 1.02592 0.0
C1894 C 0.62093 0.15823 0.97584 0.0
H1895 H 0.64262 0.11206 0.75692 0.0
H1896 H 0.63871 0.11808 0.83822 0.0
H1897 H 0.63805 0.18172 0.88073 0.0
H1898 H 0.6049 0.19715 0.10207 0.0
H1899 H 0.60886 0.19199 1.02035 0.0
C1900 C 0.14717 0.38134 0.29154 0.0
C1901 C 0.13759 0.39678 0.31496 0.0
C1902 C 0.15056 0.38263 0.2446 0.0
C1903 C 0.15393 0.41854 0.14951 0.0
H1904 H 0.14445 0.37225 0.07403 0.0
C1905 C 0.1536 0.42261 0.95272 0.0
C1906 C 0.16294 0.40713 0.92891 0.0
C1907 C 0.15048 0.42129 0.99975 0.0
C1908 C 0.14738 0.38526 0.09465 0.0
H1909 H 0.1245 0.42591 0.30745 0.0
H1910 H 0.13021 0.42807 0.2256 0.0
H1911 H 0.13953 0.37014 0.15616 0.0
H1912 H 0.17593 0.37793 0.93588 0.0
H1913 H 0.17072 0.37574 1.0179 0.0
H1914 H 0.16178 0.43367 0.08801 0.0
C1915 C 0.13519 0.41498 0.24352 0.0
C1916 C 0.14457 0.38404 0.14178 0.0
C1917 C 0.13173 0.41366 0.29039 0.0
C1918 C 0.16888 0.39022 0.95322 0.0
C1919 C 0.1657 0.38887 1.0002 0.0
C1920 C 0.15675 0.41976 0.10238 0.0
C1921 C 0.14455 0.39944 0.21996 0.0
C1922 C 0.14779 0.40067 0.16982 0.0
C1923 C 0.15655 0.40443 1.02413 0.0
C1924 C 0.15349 0.40314 0.07432 0.0
H1925 H 0.15174 0.36807 0.30934 0.0
H1926 H 0.158 0.37048 0.22764 0.0
H1927 H 0.15684 0.43156 0.17013 0.0
H1928 H 0.149 0.43592 0.93515 0.0
H1929 H 0.14319 0.43346 1.01697 0.0
C1930 C 0.4166 0.84947 0.09866 0.0
C1931 C 0.41011 0.86375 0.13024 0.0
C1932 C 0.41489 0.85277 0.0518 0.0
C1933 C 0.40845 0.89264 0.96627 0.0
H1934 H 0.39219 0.84931 0.88757 0.0
C1935 C 0.38833 0.90478 0.77698 0.0
C1936 C 0.3949 0.89062 0.74518 0.0
C1937 C 0.39018 0.90141 0.82378 0.0
C1938 C 0.39697 0.86152 0.90896 0.0
H1939 H 0.39657 0.89273 0.13692 0.0
H1940 H 0.39359 0.8985 0.05522 0.0
H1941 H 0.39549 0.84377 0.96924 0.0
H1942 H 0.40868 0.86177 0.73809 0.0
H1943 H 0.41185 0.85587 0.81972 0.0
H1944 H 0.4099 0.91041 0.906 0.0
C1945 C 0.40027 0.88482 0.06673 0.0
C1946 C 0.39886 0.85834 0.95586 0.0
C1947 C 0.40199 0.88152 0.11364 0.0
C1948 C 0.40321 0.8729 0.76152 0.0
C1949 C 0.40504 0.86951 0.80839 0.0
C1950 C 0.40654 0.89582 0.91939 0.0
C1951 C 0.40664 0.87046 0.03517 0.0
C1952 C 0.40462 0.87386 0.98517 0.0
C1953 C 0.39862 0.88377 0.84014 0.0
C1954 C 0.40075 0.88031 0.89009 0.0
H1955 H 0.42326 0.83577 0.11014 0.0
H1956 H 0.42028 0.84153 0.02856 0.0
H1957 H 0.41322 0.90486 0.98764 0.0
H1958 H 0.38152 0.91843 0.76573 0.0
H1959 H 0.38474 0.91256 0.84718 0.0
C1960 C 0.87558 0.90569 0.35619 0.0
C1961 C 0.85731 0.91248 0.37325 0.0
C1962 C 0.87853 0.90323 0.30932 0.0
C1963 C 0.85147 0.89748 0.19969 0.0
H1964 H 0.90217 0.91235 0.14719 0.0
C1965 C 0.86504 0.89964 1.00437 0.0
C1966 C 0.8834 0.89259 0.98835 0.0
C1967 C 0.8616 0.90202 0.05114 0.0
C1968 C 0.88799 0.90791 0.16131 0.0
H1969 H 0.8277 0.92173 0.35389 0.0
H1970 H 0.83296 0.91784 0.27221 0.0
H1971 H 0.89668 0.91654 0.22861 0.0
H1972 H 0.91259 0.88272 1.00935 0.0
H1973 H 0.90651 0.88655 0.09065 0.0
H1974 H 0.8428 0.8889 0.13224 0.0
C1975 C 0.84498 0.91421 0.29516 0.0
C1976 C 0.88483 0.91031 0.20811 0.0
C1977 C 0.84204 0.91668 0.34206 0.0
C1978 C 0.8982 0.88797 1.02038 0.0
C1979 C 0.89479 0.8904 0.06707 0.0
C1980 C 0.85463 0.89511 0.15282 0.0
C1981 C 0.86329 0.90751 0.2781 0.0
C1982 C 0.86655 0.90507 0.22803 0.0
C1983 C 0.87646 0.89749 0.08314 0.0
C1984 C 0.87296 0.90023 0.133 0.0
H1985 H 0.88778 0.90251 0.37903 0.0
H1986 H 0.89275 0.89781 0.29759 0.0
H1987 H 0.83731 0.89302 0.21382 0.0
H1988 H 0.85323 0.90318 0.98076 0.0
H1989 H 0.84737 0.90767 0.06219 0.0
C1990 C 0.90079 0.15309 0.0426 0.0
C1991 C 0.89689 0.13399 0.05963 0.0
C1992 C 0.90264 0.15633 0.99567 0.0
C1993 C 0.91283 0.13034 0.88679 0.0
H1994 H 0.88891 0.17681 0.83246 0.0
C1995 C 0.90834 0.14097 0.69129 0.0
C1996 C 0.91173 0.16013 0.67408 0.0
C1997 C 0.90649 0.13776 0.73823 0.0
C1998 C 0.89589 0.16387 0.8471 0.0
H1999 H 0.89222 0.10326 0.04039 0.0
H2000 H 0.89515 0.10895 0.95874 0.0
H2001 H 0.88601 0.17139 0.91425 0.0
H2002 H 0.91549 0.19101 0.69312 0.0
H2003 H 0.91273 0.18538 0.77473 0.0
H2004 H 0.92277 0.12284 0.8197 0.0
C2005 C 0.89691 0.12143 0.98166 0.0
C2006 C 0.89422 0.16076 0.89407 0.0
C2007 C 0.89499 0.11821 0.02852 0.0
C2008 C 0.91314 0.17601 0.70508 0.0
C2009 C 0.9113 0.17281 0.75196 0.0
C2010 C 0.91453 0.13346 0.83982 0.0
C2011 C 0.90073 0.14054 0.96458 0.0
C2012 C 0.90265 0.14395 0.91455 0.0
C2013 C 0.90796 0.15365 0.76922 0.0
C2014 C 0.90608 0.15027 0.8193 0.0
H2015 H 0.90218 0.16562 0.06551 0.0
H2016 H 0.90578 0.17121 0.98379 0.0
H2017 H 0.91978 0.11739 0.90146 0.0
H2018 H 0.90734 0.12835 0.66853 0.0
H2019 H 0.90371 0.12283 0.75018 0.0
C2020 C 0.12165 0.13454 1.0224 0.0
C2021 C 0.13716 0.13133 0.99119 0.0
C2022 C 0.12489 0.1328 0.06929 0.0
C2023 C 0.16464 0.1333 0.1564 0.0
H2024 H 0.12474 0.10801 0.23192 0.0
C2025 C 0.17889 0.11412 0.34561 0.0
C2026 C 0.16322 0.11673 0.37673 0.0
C2027 C 0.17573 0.1161 0.29875 0.0
C2028 C 0.13594 0.11535 0.21147 0.0
H2029 H 0.16834 0.1239 0.98517 0.0
H2030 H 0.17391 0.12056 0.06694 0.0
H2031 H 0.11929 0.1109 0.15017 0.0
H2032 H 0.13188 0.12349 0.38252 0.0
H2033 H 0.12648 0.12739 0.30092 0.0
H2034 H 0.18128 0.13778 0.2177 0.0
C2035 C 0.15926 0.12461 0.05511 0.0
C2036 C 0.13282 0.11699 0.16451 0.0
C2037 C 0.15601 0.12631 1.00816 0.0
C2038 C 0.14434 0.12154 0.35967 0.0
C2039 C 0.14118 0.12353 0.31276 0.0
C2040 C 0.16775 0.13169 0.20339 0.0
C2041 C 0.14373 0.12782 0.08629 0.0
C2042 C 0.14713 0.12599 0.13633 0.0
C2043 C 0.15683 0.12079 0.28164 0.0
C2044 C 0.15345 0.12268 0.23158 0.0
H2045 H 0.10689 0.1382 1.0106 0.0
H2046 H 0.11263 0.13558 0.09226 0.0
H2047 H 0.17585 0.14059 0.13589 0.0
H2048 H 0.19369 0.11066 0.35746 0.0
H2049 H 0.1881 0.11368 0.27587 0.0
C2050 C 0.12322 0.87971 0.69889 0.0
C2051 C 0.11385 0.86247 0.68229 0.0
C2052 C 0.12497 0.8831 0.74581 0.0
C2053 C 0.12419 0.85708 0.857 0.0
H2054 H 0.11622 0.90979 0.90631 0.0
C2055 C 0.12046 0.87205 0.05132 0.0
C2056 C 0.12942 0.8895 0.06789 0.0
C2057 C 0.11854 0.86873 1.0044 0.0
C2058 C 0.11874 0.89501 0.89311 0.0
H2059 H 0.09849 0.83556 0.70256 0.0
H2060 H 0.10163 0.84143 0.78411 0.0
H2061 H 0.11291 0.9042 0.82461 0.0
H2062 H 0.14383 0.91692 0.04767 0.0
H2063 H 0.14056 0.91112 0.96612 0.0
H2064 H 0.1301 0.84789 0.92542 0.0
C2065 C 0.10794 0.85219 0.76083 0.0
C2066 C 0.11683 0.89181 0.84618 0.0
C2067 C 0.10614 0.84881 0.71396 0.0
C2068 C 0.13653 0.90347 0.03624 0.0
C2069 C 0.13464 0.90015 0.98936 0.0
C2070 C 0.12614 0.86029 0.90392 0.0
C2071 C 0.11743 0.86934 0.77743 0.0
C2072 C 0.11951 0.87279 0.82747 0.0
C2073 C 0.12557 0.88276 0.97275 0.0
C2074 C 0.12345 0.8793 0.92267 0.0
H2075 H 0.1296 0.89042 0.67563 0.0
H2076 H 0.13261 0.89635 0.75732 0.0
H2077 H 0.12667 0.8423 0.84376 0.0
H2078 H 0.11457 0.86108 0.07463 0.0
H2079 H 0.11122 0.8553 0.99297 0.0
loop_
_geom_bond_atom_site_label_1
_geom_bond_atom_site_label_2
_geom_bond_distance
_geom_bond_site_symmetry_2
_ccdc_geom_bond_type
La0 C2 2.928 . S
La0 O20 2.521 . S
La0 O21 2.628 . S
La0 O22 2.554 . S
La0 O23 2.757 . S
La0 O24 2.470 . S
La0 O29 2.482 . S
La0 O31 2.503 . S
La1 C11 2.928 1_554 S
La1 O23 2.482 . S
La1 O25 2.503 . S
La1 O26 2.521 1_554 S
La1 O27 2.651 . S
La1 O28 2.554 . S
La1 O29 2.757 . S
La1 O30 2.470 . S
C2 La0 2.928 . S
C2 C3 1.503 . S
C2 O20 1.261 . S
C2 O21 1.243 . S
C3 C2 1.503 . S
C3 C4 1.394 . S
C3 C8 1.373 . S
C4 C3 1.394 . S
C4 C5 1.380 . S
C4 H32 0.930 . S
C5 C4 1.380 . S
C5 C6 1.376 . S
C5 H33 0.930 . S
C6 C5 1.376 . S
C6 C7 1.370 . S
C7 C6 1.370 . S
C7 C8 1.396 . S
C7 H34 0.929 . S
C8 C3 1.373 . S
C8 C7 1.396 . S
C8 H35 0.929 . S
C9 O22 1.240 . S
C9 O23 1.289 . S
C10 O24 1.258 . S
C10 O25 1.256 . S
C11 La1 2.928 1_556 S
C11 C12 1.503 . S
C11 O26 1.261 . S
C11 O27 1.229 1_556 S
C12 C11 1.503 . S
C12 C13 1.394 . S
C12 C17 1.373 . S
C13 C12 1.394 . S
C13 C14 1.380 . S
C13 H36 0.930 . S
C14 C13 1.380 . S
C14 C15 1.376 . S
C14 H37 0.930 . S
C15 C14 1.376 . S
C15 C16 1.370 . S
C16 C15 1.370 . S
C16 C17 1.396 . S
C16 H38 0.929 . S
C17 C12 1.373 . S
C17 C16 1.396 . S
C17 H39 0.929 . S
C18 O28 1.240 . S
C18 O29 1.289 . S
C19 O30 1.258 . S
C19 O31 1.256 . S
O20 La0 2.521 . S
O20 C2 1.261 . S
O21 La0 2.628 . S
O21 C2 1.243 . S
O22 La0 2.554 . S
O22 C9 1.240 . S
O23 La0 2.757 . S
O23 La1 2.482 . S
O23 C9 1.289 . S
O24 La0 2.470 . S
O24 C10 1.258 . S
O25 La1 2.503 . S
O25 C10 1.256 . S
O26 La1 2.521 1_556 S
O26 C11 1.261 . S
O27 La1 2.651 . S
O27 C11 1.229 1_554 S
O28 La1 2.554 . S
O28 C18 1.240 . S
O29 La0 2.482 . S
O29 La1 2.757 . S
O29 C18 1.289 . S
O30 La1 2.470 . S
O30 C19 1.258 . S
O31 La0 2.503 . S
O31 C19 1.256 . S
H32 C4 0.930 . S
H33 C5 0.930 . S
H34 C7 0.929 . S
H35 C8 0.929 . S
H36 C13 0.930 . S
H37 C14 0.930 . S
H38 C16 0.929 . S
H39 C17 0.929 . S
La40 C42 2.928 1_556 S
La40 O60 2.521 1_556 S
La40 O61 2.651 . S
La40 O62 2.554 . S
La40 O63 2.757 . S
La40 O64 2.470 . S
La40 O69 2.482 . S
La40 O71 2.503 . S
La41 C51 2.928 . S
La41 O63 2.482 . S
La41 O65 2.503 . S
La41 O66 2.521 . S
La41 O67 2.628 . S
La41 O68 2.554 . S
La41 O69 2.757 . S
La41 O70 2.470 . S
C42 La40 2.928 1_554 S
C42 C43 1.503 . S
C42 O60 1.261 . S
C42 O61 1.229 1_554 S
C43 C42 1.503 . S
C43 C44 1.394 . S
C43 C48 1.373 . S
C44 C43 1.394 . S
C44 C45 1.380 . S
C44 H72 0.930 . S
C45 C44 1.380 . S
C45 C46 1.376 . S
C45 H73 0.930 . S
C46 C45 1.376 . S
C46 C47 1.370 . S
C47 C46 1.370 . S
C47 C48 1.396 . S
C47 H74 0.929 . S
C48 C43 1.373 . S
C48 C47 1.396 . S
C48 H75 0.929 . S
C49 O62 1.240 . S
C49 O63 1.289 . S
C50 O64 1.258 . S
C50 O65 1.256 . S
C51 La41 2.928 . S
C51 C52 1.503 . S
C51 O66 1.261 . S
C51 O67 1.243 . S
C52 C51 1.503 . S
C52 C53 1.394 . S
C52 C57 1.373 . S
C53 C52 1.394 . S
C53 C54 1.380 . S
C53 H76 0.930 . S
C54 C53 1.380 . S
C54 C55 1.376 . S
C54 H77 0.930 . S
C55 C54 1.376 . S
C55 C56 1.370 . S
C56 C55 1.370 . S
C56 C57 1.396 . S
C56 H78 0.929 . S
C57 C52 1.373 . S
C57 C56 1.396 . S
C57 H79 0.929 . S
C58 O68 1.240 . S
C58 O69 1.289 . S
C59 O70 1.258 . S
C59 O71 1.256 . S
O60 La40 2.521 1_554 S
O60 C42 1.261 . S
O61 La40 2.651 . S
O61 C42 1.229 1_556 S
O62 La40 2.554 . S
O62 C49 1.240 . S
O63 La40 2.757 . S
O63 La41 2.482 . S
O63 C49 1.289 . S
O64 La40 2.470 . S
O64 C50 1.258 . S
O65 La41 2.503 . S
O65 C50 1.256 . S
O66 La41 2.521 . S
O66 C51 1.261 . S
O67 La41 2.628 . S
O67 C51 1.243 . S
O68 La41 2.554 . S
O68 C58 1.240 . S
O69 La40 2.482 . S
O69 La41 2.757 . S
O69 C58 1.289 . S
O70 La41 2.470 . S
O70 C59 1.258 . S
O71 La40 2.503 . S
O71 C59 1.256 . S
H72 C44 0.930 . S
H73 C45 0.930 . S
H74 C47 0.929 . S
H75 C48 0.929 . S
H76 C53 0.930 . S
H77 C54 0.930 . S
H78 C56 0.929 . S
H79 C57 0.929 . S
La80 C82 2.928 . S
La80 O100 2.521 . S
La80 O101 2.628 . S
La80 O102 2.554 . S
La80 O103 2.757 . S
La80 O104 2.470 . S
La80 O109 2.482 . S
La80 O111 2.503 . S
La81 C91 2.928 1_554 S
La81 O103 2.482 . S
La81 O105 2.503 . S
La81 O106 2.521 1_554 S
La81 O107 2.651 . S
La81 O108 2.554 . S
La81 O109 2.757 . S
La81 O110 2.470 . S
C82 La80 2.928 . S
C82 C83 1.503 . S
C82 O100 1.261 . S
C82 O101 1.243 . S
C83 C82 1.503 . S
C83 C84 1.394 . S
C83 C88 1.373 . S
C84 C83 1.394 . S
C84 C85 1.380 . S
C84 H112 0.930 . S
C85 C84 1.380 . S
C85 C86 1.376 . S
C85 H113 0.930 . S
C86 C85 1.376 . S
C86 C87 1.370 . S
C87 C86 1.370 . S
C87 C88 1.396 . S
C87 H114 0.929 . S
C88 C83 1.373 . S
C88 C87 1.396 . S
C88 H115 0.929 . S
C89 O102 1.240 . S
C89 O103 1.289 . S
C90 O104 1.258 . S
C90 O105 1.256 . S
C91 La81 2.928 1_556 S
C91 C92 1.503 . S
C91 O106 1.261 . S
C91 O107 1.229 1_556 S
C92 C91 1.503 . S
C92 C93 1.394 . S
C92 C97 1.373 . S
C93 C92 1.394 . S
C93 C94 1.380 . S
C93 H116 0.930 . S
C94 C93 1.380 . S
C94 C95 1.376 . S
C94 H117 0.930 . S
C95 C94 1.376 . S
C95 C96 1.370 . S
C96 C95 1.370 . S
C96 C97 1.396 . S
C96 H118 0.929 . S
C97 C92 1.373 . S
C97 C96 1.396 . S
C97 H119 0.929 . S
C98 O108 1.240 . S
C98 O109 1.289 . S
C99 O110 1.258 . S
C99 O111 1.256 . S
O100 La80 2.521 . S
O100 C82 1.261 . S
O101 La80 2.628 . S
O101 C82 1.243 . S
O102 La80 2.554 . S
O102 C89 1.240 . S
O103 La80 2.757 . S
O103 La81 2.482 . S
O103 C89 1.289 . S
O104 La80 2.470 . S
O104 C90 1.258 . S
O105 La81 2.503 . S
O105 C90 1.256 . S
O106 La81 2.521 1_556 S
O106 C91 1.261 . S
O107 La81 2.651 . S
O107 C91 1.229 1_554 S
O108 La81 2.554 . S
O108 C98 1.240 . S
O109 La80 2.482 . S
O109 La81 2.757 . S
O109 C98 1.289 . S
O110 La81 2.470 . S
O110 C99 1.258 . S
O111 La80 2.503 . S
O111 C99 1.256 . S
H112 C84 0.930 . S
H113 C85 0.930 . S
H114 C87 0.929 . S
H115 C88 0.929 . S
H116 C93 0.930 . S
H117 C94 0.930 . S
H118 C96 0.929 . S
H119 C97 0.929 . S
La120 C122 2.928 1_556 S
La120 O140 2.521 1_556 S
La120 O141 2.651 . S
La120 O142 2.554 . S
La120 O143 2.757 . S
La120 O144 2.470 . S
La120 O149 2.482 . S
La120 O151 2.503 . S
La121 C131 2.928 . S
La121 O143 2.482 . S
La121 O145 2.503 . S
La121 O146 2.521 . S
La121 O147 2.628 . S
La121 O148 2.554 . S
La121 O149 2.757 . S
La121 O150 2.470 . S
C122 La120 2.928 1_554 S
C122 C123 1.503 . S
C122 O140 1.261 . S
C122 O141 1.229 1_554 S
C123 C122 1.503 . S
C123 C124 1.394 . S
C123 C128 1.373 . S
C124 C123 1.394 . S
C124 C125 1.380 . S
C124 H152 0.930 . S
C125 C124 1.380 . S
C125 C126 1.376 . S
C125 H153 0.930 . S
C126 C125 1.376 . S
C126 C127 1.370 . S
C127 C126 1.370 . S
C127 C128 1.396 . S
C127 H154 0.929 . S
C128 C123 1.373 . S
C128 C127 1.396 . S
C128 H155 0.929 . S
C129 O142 1.240 . S
C129 O143 1.289 . S
C130 O144 1.258 . S
C130 O145 1.256 . S
C131 La121 2.928 . S
C131 C132 1.503 . S
C131 O146 1.261 . S
C131 O147 1.243 . S
C132 C131 1.503 . S
C132 C133 1.394 . S
C132 C137 1.373 . S
C133 C132 1.394 . S
C133 C134 1.380 . S
C133 H156 0.930 . S
C134 C133 1.380 . S
C134 C135 1.376 . S
C134 H157 0.930 . S
C135 C134 1.376 . S
C135 C136 1.370 . S
C136 C135 1.370 . S
C136 C137 1.396 . S
C136 H158 0.929 . S
C137 C132 1.373 . S
C137 C136 1.396 . S
C137 H159 0.929 . S
C138 O148 1.240 . S
C138 O149 1.289 . S
C139 O150 1.258 . S
C139 O151 1.256 . S
O140 La120 2.521 1_554 S
O140 C122 1.261 . S
O141 La120 2.651 . S
O141 C122 1.229 1_556 S
O142 La120 2.554 . S
O142 C129 1.240 . S
O143 La120 2.757 . S
O143 La121 2.482 . S
O143 C129 1.289 . S
O144 La120 2.470 . S
O144 C130 1.258 . S
O145 La121 2.503 . S
O145 C130 1.256 . S
O146 La121 2.521 . S
O146 C131 1.261 . S
O147 La121 2.628 . S
O147 C131 1.243 . S
O148 La121 2.554 . S
O148 C138 1.240 . S
O149 La120 2.482 . S
O149 La121 2.757 . S
O149 C138 1.289 . S
O150 La121 2.470 . S
O150 C139 1.258 . S
O151 La120 2.503 . S
O151 C139 1.256 . S
H152 C124 0.930 . S
H153 C125 0.930 . S
H154 C127 0.929 . S
H155 C128 0.929 . S
H156 C133 0.930 . S
H157 C134 0.930 . S
H158 C136 0.929 . S
H159 C137 0.929 . S
La160 C162 2.928 1_554 S
La160 O180 2.521 1_554 S
La160 O181 2.628 1_554 S
La160 O182 2.554 . S
La160 O183 2.757 . S
La160 O184 2.470 . S
La160 O189 2.482 . S
La160 O191 2.503 . S
La161 C171 2.928 . S
La161 O183 2.482 . S
La161 O185 2.503 . S
La161 O186 2.521 . S
La161 O187 2.628 . S
La161 O188 2.554 . S
La161 O189 2.757 . S
La161 O190 2.470 . S
C162 La160 2.928 1_556 S
C162 C163 1.503 . S
C162 O180 1.261 . S
C162 O181 1.243 . S
C163 C162 1.503 . S
C163 C164 1.394 . S
C163 C168 1.373 . S
C164 C163 1.394 . S
C164 C165 1.380 . S
C164 H192 0.930 . S
C165 C164 1.380 . S
C165 C166 1.376 . S
C165 H193 0.930 . S
C166 C165 1.376 . S
C166 C167 1.370 . S
C167 C166 1.370 . S
C167 C168 1.396 . S
C167 H194 0.929 . S
C168 C163 1.373 . S
C168 C167 1.396 . S
C168 H195 0.929 . S
C169 O182 1.240 . S
C169 O183 1.289 . S
C170 O184 1.258 . S
C170 O185 1.256 . S
C171 La161 2.928 . S
C171 C172 1.503 . S
C171 O186 1.261 . S
C171 O187 1.243 . S
C172 C171 1.503 . S
C172 C173 1.394 . S
C172 C177 1.373 . S
C173 C172 1.394 . S
C173 C174 1.380 . S
C173 H196 0.930 . S
C174 C173 1.380 . S
C174 C175 1.376 . S
C174 H197 0.930 . S
C175 C174 1.376 . S
C175 C176 1.370 . S
C176 C175 1.370 . S
C176 C177 1.396 . S
C176 H198 0.929 . S
C177 C172 1.373 . S
C177 C176 1.396 . S
C177 H199 0.929 . S
C178 O188 1.240 . S
C178 O189 1.289 . S
C179 O190 1.258 . S
C179 O191 1.256 . S
O180 La160 2.521 1_556 S
O180 C162 1.261 . S
O181 La160 2.628 1_556 S
O181 C162 1.243 . S
O182 La160 2.554 . S
O182 C169 1.240 . S
O183 La160 2.757 . S
O183 La161 2.482 . S
O183 C169 1.289 . S
O184 La160 2.470 . S
O184 C170 1.258 . S
O185 La161 2.503 . S
O185 C170 1.256 . S
O186 La161 2.521 . S
O186 C171 1.261 . S
O187 La161 2.628 . S
O187 C171 1.243 . S
O188 La161 2.554 . S
O188 C178 1.240 . S
O189 La160 2.482 . S
O189 La161 2.757 . S
O189 C178 1.289 . S
O190 La161 2.470 . S
O190 C179 1.258 . S
O191 La160 2.503 . S
O191 C179 1.256 . S
H192 C164 0.930 . S
H193 C165 0.930 . S
H194 C167 0.929 . S
H195 C168 0.929 . S
H196 C173 0.930 . S
H197 C174 0.930 . S
H198 C176 0.929 . S
H199 C177 0.929 . S
La200 C202 2.928 . S
La200 O220 2.521 . S
La200 O221 2.628 . S
La200 O222 2.554 . S
La200 O223 2.757 . S
La200 O224 2.470 . S
La200 O229 2.482 . S
La200 O231 2.503 . S
La201 C211 2.928 1_556 S
La201 O223 2.482 . S
La201 O225 2.503 . S
La201 O226 2.521 1_556 S
La201 O227 2.628 1_556 S
La201 O228 2.554 . S
La201 O229 2.757 . S
La201 O230 2.470 . S
C202 La200 2.928 . S
C202 C203 1.503 . S
C202 O220 1.261 . S
C202 O221 1.243 . S
C203 C202 1.503 . S
C203 C204 1.394 . S
C203 C208 1.373 . S
C204 C203 1.394 . S
C204 C205 1.380 . S
C204 H232 0.930 . S
C205 C204 1.380 . S
C205 C206 1.376 . S
C205 H233 0.930 . S
C206 C205 1.376 . S
C206 C207 1.370 . S
C207 C206 1.370 . S
C207 C208 1.396 . S
C207 H234 0.929 . S
C208 C203 1.373 . S
C208 C207 1.396 . S
C208 H235 0.929 . S
C209 O222 1.240 . S
C209 O223 1.289 . S
C210 O224 1.258 . S
C210 O225 1.256 . S
C211 La201 2.928 1_554 S
C211 C212 1.503 . S
C211 O226 1.261 . S
C211 O227 1.243 . S
C212 C211 1.503 . S
C212 C213 1.394 . S
C212 C217 1.373 . S
C213 C212 1.394 . S
C213 C214 1.380 . S
C213 H236 0.930 . S
C214 C213 1.380 . S
C214 C215 1.376 . S
C214 H237 0.930 . S
C215 C214 1.376 . S
C215 C216 1.370 . S
C216 C215 1.370 . S
C216 C217 1.396 . S
C216 H238 0.929 . S
C217 C212 1.373 . S
C217 C216 1.396 . S
C217 H239 0.929 . S
C218 O228 1.240 . S
C218 O229 1.289 . S
C219 O230 1.258 . S
C219 O231 1.256 . S
O220 La200 2.521 . S
O220 C202 1.261 . S
O221 La200 2.628 . S
O221 C202 1.243 . S
O222 La200 2.554 . S
O222 C209 1.240 . S
O223 La200 2.757 . S
O223 La201 2.482 . S
O223 C209 1.289 . S
O224 La200 2.470 . S
O224 C210 1.258 . S
O225 La201 2.503 . S
O225 C210 1.256 . S
O226 La201 2.521 1_554 S
O226 C211 1.261 . S
O227 La201 2.628 1_554 S
O227 C211 1.243 . S
O228 La201 2.554 . S
O228 C218 1.240 . S
O229 La200 2.482 . S
O229 La201 2.757 . S
O229 C218 1.289 . S
O230 La201 2.470 . S
O230 C219 1.258 . S
O231 La200 2.503 . S
O231 C219 1.256 . S
H232 C204 0.930 . S
H233 C205 0.930 . S
H234 C207 0.929 . S
H235 C208 0.929 . S
H236 C213 0.930 . S
H237 C214 0.930 . S
H238 C216 0.929 . S
H239 C217 0.929 . S
La240 C242 2.928 1_554 S
La240 O260 2.521 1_554 S
La240 O261 2.628 1_554 S
La240 O262 2.554 . S
La240 O263 2.757 . S
La240 O264 2.470 . S
La240 O269 2.482 . S
La240 O271 2.503 . S
La241 C251 2.928 . S
La241 O263 2.482 . S
La241 O265 2.503 . S
La241 O266 2.521 . S
La241 O267 2.628 . S
La241 O268 2.554 . S
La241 O269 2.757 . S
La241 O270 2.470 . S
C242 La240 2.928 1_556 S
C242 C243 1.503 . S
C242 O260 1.261 . S
C242 O261 1.243 . S
C243 C242 1.503 . S
C243 C244 1.394 . S
C243 C248 1.373 . S
C244 C243 1.394 . S
C244 C245 1.380 . S
C244 H272 0.930 . S
C245 C244 1.380 . S
C245 C246 1.376 . S
C245 H273 0.930 . S
C246 C245 1.376 . S
C246 C247 1.370 . S
C247 C246 1.370 . S
C247 C248 1.396 . S
C247 H274 0.929 . S
C248 C243 1.373 . S
C248 C247 1.396 . S
C248 H275 0.929 . S
C249 O262 1.240 . S
C249 O263 1.289 . S
C250 O264 1.258 . S
C250 O265 1.256 . S
C251 La241 2.928 . S
C251 C252 1.503 . S
C251 O266 1.261 . S
C251 O267 1.243 . S
C252 C251 1.503 . S
C252 C253 1.394 . S
C252 C257 1.373 . S
C253 C252 1.394 . S
C253 C254 1.380 . S
C253 H276 0.930 . S
C254 C253 1.380 . S
C254 C255 1.376 . S
C254 H277 0.930 . S
C255 C254 1.376 . S
C255 C256 1.370 . S
C256 C255 1.370 . S
C256 C257 1.396 . S
C256 H278 0.929 . S
C257 C252 1.373 . S
C257 C256 1.396 . S
C257 H279 0.929 . S
C258 O268 1.240 . S
C258 O269 1.289 . S
C259 O270 1.258 . S
C259 O271 1.256 . S
O260 La240 2.521 1_556 S
O260 C242 1.261 . S
O261 La240 2.628 1_556 S
O261 C242 1.243 . S
O262 La240 2.554 . S
O262 C249 1.240 . S
O263 La240 2.757 . S
O263 La241 2.482 . S
O263 C249 1.289 . S
O264 La240 2.470 . S
O264 C250 1.258 . S
O265 La241 2.503 . S
O265 C250 1.256 . S
O266 La241 2.521 . S
O266 C251 1.261 . S
O267 La241 2.628 . S
O267 C251 1.243 . S
O268 La241 2.554 . S
O268 C258 1.240 . S
O269 La240 2.482 . S
O269 La241 2.757 . S
O269 C258 1.289 . S
O270 La241 2.470 . S
O270 C259 1.258 . S
O271 La240 2.503 . S
O271 C259 1.256 . S
H272 C244 0.930 . S
H273 C245 0.930 . S
H274 C247 0.929 . S
H275 C248 0.929 . S
H276 C253 0.930 . S
H277 C254 0.930 . S
H278 C256 0.929 . S
H279 C257 0.929 . S
La280 C282 2.928 . S
La280 O300 2.521 . S
La280 O301 2.628 . S
La280 O302 2.554 . S
La280 O303 2.757 . S
La280 O304 2.470 . S
La280 O309 2.482 . S
La280 O311 2.503 . S
La281 C291 2.928 1_556 S
La281 O303 2.482 . S
La281 O305 2.503 . S
La281 O306 2.521 1_556 S
La281 O307 2.628 1_556 S
La281 O308 2.554 . S
La281 O309 2.757 . S
La281 O310 2.470 . S
C282 La280 2.928 . S
C282 C283 1.503 . S
C282 O300 1.261 . S
C282 O301 1.243 . S
C283 C282 1.503 . S
C283 C284 1.394 . S
C283 C288 1.373 . S
C284 C283 1.394 . S
C284 C285 1.380 . S
C284 H312 0.930 . S
C285 C284 1.380 . S
C285 C286 1.376 . S
C285 H313 0.930 . S
C286 C285 1.376 . S
C286 C287 1.370 . S
C287 C286 1.370 . S
C287 C288 1.396 . S
C287 H314 0.929 . S
C288 C283 1.373 . S
C288 C287 1.396 . S
C288 H315 0.929 . S
C289 O302 1.240 . S
C289 O303 1.289 . S
C290 O304 1.258 . S
C290 O305 1.256 . S
C291 La281 2.928 1_554 S
C291 C292 1.503 . S
C291 O306 1.261 . S
C291 O307 1.243 . S
C292 C291 1.503 . S
C292 C293 1.394 . S
C292 C297 1.373 . S
C293 C292 1.394 . S
C293 C294 1.380 . S
C293 H316 0.930 . S
C294 C293 1.380 . S
C294 C295 1.376 . S
C294 H317 0.930 . S
C295 C294 1.376 . S
C295 C296 1.370 . S
C296 C295 1.370 . S
C296 C297 1.396 . S
C296 H318 0.929 . S
C297 C292 1.373 . S
C297 C296 1.396 . S
C297 H319 0.929 . S
C298 O308 1.240 . S
C298 O309 1.289 . S
C299 O310 1.258 . S
C299 O311 1.256 . S
O300 La280 2.521 . S
O300 C282 1.261 . S
O301 La280 2.628 . S
O301 C282 1.243 . S
O302 La280 2.554 . S
O302 C289 1.240 . S
O303 La280 2.757 . S
O303 La281 2.482 . S
O303 C289 1.289 . S
O304 La280 2.470 . S
O304 C290 1.258 . S
O305 La281 2.503 . S
O305 C290 1.256 . S
O306 La281 2.521 1_554 S
O306 C291 1.261 . S
O307 La281 2.628 1_554 S
O307 C291 1.243 . S
O308 La281 2.554 . S
O308 C298 1.240 . S
O309 La280 2.482 . S
O309 La281 2.757 . S
O309 C298 1.289 . S
O310 La281 2.470 . S
O310 C299 1.258 . S
O311 La280 2.503 . S
O311 C299 1.256 . S
H312 C284 0.930 . S
H313 C285 0.930 . S
H314 C287 0.929 . S
H315 C288 0.929 . S
H316 C293 0.930 . S
H317 C294 0.930 . S
H318 C296 0.929 . S
H319 C297 0.929 . S
La320 C322 2.928 . S
La320 O340 2.521 . S
La320 O341 2.628 . S
La320 O342 2.554 . S
La320 O343 2.757 . S
La320 O344 2.470 . S
La320 O349 2.482 . S
La320 O351 2.503 . S
La321 C331 2.928 . S
La321 O343 2.482 . S
La321 O345 2.503 . S
La321 O346 2.521 . S
La321 O347 2.628 . S
La321 O348 2.554 . S
La321 O349 2.757 . S
La321 O350 2.470 . S
C322 La320 2.928 . S
C322 C323 1.503 . S
C322 O340 1.261 . S
C322 O341 1.243 . S
C323 C322 1.503 . S
C323 C324 1.394 . S
C323 C328 1.373 . S
C324 C323 1.394 . S
C324 C325 1.380 . S
C324 H352 0.930 . S
C325 C324 1.380 . S
C325 C326 1.376 . S
C325 H353 0.930 . S
C326 C325 1.376 . S
C326 C327 1.370 . S
C327 C326 1.370 . S
C327 C328 1.396 . S
C327 H354 0.929 . S
C328 C323 1.373 . S
C328 C327 1.396 . S
C328 H355 0.929 . S
C329 O342 1.240 . S
C329 O343 1.289 . S
C330 O344 1.258 . S
C330 O345 1.256 . S
C331 La321 2.928 . S
C331 C332 1.503 . S
C331 O346 1.261 . S
C331 O347 1.243 . S
C332 C331 1.503 . S
C332 C333 1.394 . S
C332 C337 1.373 . S
C333 C332 1.394 . S
C333 C334 1.380 . S
C333 H356 0.930 . S
C334 C333 1.380 . S
C334 C335 1.376 . S
C334 H357 0.930 . S
C335 C334 1.376 . S
C335 C336 1.370 . S
C336 C335 1.370 . S
C336 C337 1.396 . S
C336 H358 0.929 . S
C337 C332 1.373 . S
C337 C336 1.396 . S
C337 H359 0.929 . S
C338 O348 1.240 . S
C338 O349 1.289 . S
C339 O350 1.258 . S
C339 O351 1.256 . S
O340 La320 2.521 . S
O340 C322 1.261 . S
O341 La320 2.628 . S
O341 C322 1.243 . S
O342 La320 2.554 . S
O342 C329 1.240 . S
O343 La320 2.757 . S
O343 La321 2.482 . S
O343 C329 1.289 . S
O344 La320 2.470 . S
O344 C330 1.258 . S
O345 La321 2.503 . S
O345 C330 1.256 . S
O346 La321 2.521 . S
O346 C331 1.261 . S
O347 La321 2.628 . S
O347 C331 1.243 . S
O348 La321 2.554 . S
O348 C338 1.240 . S
O349 La320 2.482 . S
O349 La321 2.757 . S
O349 C338 1.289 . S
O350 La321 2.470 . S
O350 C339 1.258 . S
O351 La320 2.503 . S
O351 C339 1.256 . S
H352 C324 0.930 . S
H353 C325 0.930 . S
H354 C327 0.929 . S
H355 C328 0.929 . S
H356 C333 0.930 . S
H357 C334 0.930 . S
H358 C336 0.929 . S
H359 C337 0.929 . S
La360 C362 2.928 . S
La360 O380 2.521 . S
La360 O381 2.628 . S
La360 O382 2.554 . S
La360 O383 2.757 . S
La360 O384 2.470 . S
La360 O389 2.482 . S
La360 O391 2.503 . S
La361 C371 2.928 . S
La361 O383 2.482 . S
La361 O385 2.503 . S
La361 O386 2.521 . S
La361 O387 2.628 . S
La361 O388 2.554 . S
La361 O389 2.757 . S
La361 O390 2.470 . S
C362 La360 2.928 . S
C362 C363 1.503 . S
C362 O380 1.261 . S
C362 O381 1.243 . S
C363 C362 1.503 . S
C363 C364 1.394 . S
C363 C368 1.373 . S
C364 C363 1.394 . S
C364 C365 1.380 . S
C364 H392 0.930 . S
C365 C364 1.380 . S
C365 C366 1.376 . S
C365 H393 0.930 . S
C366 C365 1.376 . S
C366 C367 1.370 . S
C367 C366 1.370 . S
C367 C368 1.396 . S
C367 H394 0.929 . S
C368 C363 1.373 . S
C368 C367 1.396 . S
C368 H395 0.929 . S
C369 O382 1.240 . S
C369 O383 1.289 . S
C370 O384 1.258 . S
C370 O385 1.256 . S
C371 La361 2.928 . S
C371 C372 1.503 . S
C371 O386 1.261 . S
C371 O387 1.243 . S
C372 C371 1.503 . S
C372 C373 1.394 . S
C372 C377 1.373 . S
C373 C372 1.394 . S
C373 C374 1.380 . S
C373 H396 0.930 . S
C374 C373 1.380 . S
C374 C375 1.376 . S
C374 H397 0.930 . S
C375 C374 1.376 . S
C375 C376 1.370 . S
C376 C375 1.370 . S
C376 C377 1.396 . S
C376 H398 0.929 . S
C377 C372 1.373 . S
C377 C376 1.396 . S
C377 H399 0.929 . S
C378 O388 1.240 . S
C378 O389 1.289 . S
C379 O390 1.258 . S
C379 O391 1.256 . S
O380 La360 2.521 . S
O380 C362 1.261 . S
O381 La360 2.628 . S
O381 C362 1.243 . S
O382 La360 2.554 . S
O382 C369 1.240 . S
O383 La360 2.757 . S
O383 La361 2.482 . S
O383 C369 1.289 . S
O384 La360 2.470 . S
O384 C370 1.258 . S
O385 La361 2.503 . S
O385 C370 1.256 . S
O386 La361 2.521 . S
O386 C371 1.261 . S
O387 La361 2.628 . S
O387 C371 1.243 . S
O388 La361 2.554 . S
O388 C378 1.240 . S
O389 La360 2.482 . S
O389 La361 2.757 . S
O389 C378 1.289 . S
O390 La361 2.470 . S
O390 C379 1.258 . S
O391 La360 2.503 . S
O391 C379 1.256 . S
H392 C364 0.930 . S
H393 C365 0.930 . S
H394 C367 0.929 . S
H395 C368 0.929 . S
H396 C373 0.930 . S
H397 C374 0.930 . S
H398 C376 0.929 . S
H399 C377 0.929 . S
La400 C402 2.928 . S
La400 O420 2.521 . S
La400 O421 2.628 . S
La400 O422 2.554 . S
La400 O423 2.757 . S
La400 O424 2.470 . S
La400 O429 2.482 . S
La400 O431 2.503 . S
La401 C411 2.928 . S
La401 O423 2.482 . S
La401 O425 2.503 . S
La401 O426 2.521 . S
La401 O427 2.628 . S
La401 O428 2.554 . S
La401 O429 2.757 . S
La401 O430 2.470 . S
C402 La400 2.928 . S
C402 C403 1.503 . S
C402 O420 1.261 . S
C402 O421 1.243 . S
C403 C402 1.503 . S
C403 C404 1.394 . S
C403 C408 1.373 . S
C404 C403 1.394 . S
C404 C405 1.380 . S
C404 H432 0.930 . S
C405 C404 1.380 . S
C405 C406 1.376 . S
C405 H433 0.930 . S
C406 C405 1.376 . S
C406 C407 1.370 . S
C407 C406 1.370 . S
C407 C408 1.396 . S
C407 H434 0.929 . S
C408 C403 1.373 . S
C408 C407 1.396 . S
C408 H435 0.929 . S
C409 O422 1.240 . S
C409 O423 1.289 . S
C410 O424 1.258 . S
C410 O425 1.256 . S
C411 La401 2.928 . S
C411 C412 1.503 . S
C411 O426 1.261 . S
C411 O427 1.243 . S
C412 C411 1.503 . S
C412 C413 1.394 . S
C412 C417 1.373 . S
C413 C412 1.394 . S
C413 C414 1.380 . S
C413 H436 0.930 . S
C414 C413 1.380 . S
C414 C415 1.376 . S
C414 H437 0.930 . S
C415 C414 1.376 . S
C415 C416 1.370 . S
C416 C415 1.370 . S
C416 C417 1.396 . S
C416 H438 0.929 . S
C417 C412 1.373 . S
C417 C416 1.396 . S
C417 H439 0.929 . S
C418 O428 1.240 . S
C418 O429 1.289 . S
C419 O430 1.258 . S
C419 O431 1.256 . S
O420 La400 2.521 . S
O420 C402 1.261 . S
O421 La400 2.628 . S
O421 C402 1.243 . S
O422 La400 2.554 . S
O422 C409 1.240 . S
O423 La400 2.757 . S
O423 La401 2.482 . S
O423 C409 1.289 . S
O424 La400 2.470 . S
O424 C410 1.258 . S
O425 La401 2.503 . S
O425 C410 1.256 . S
O426 La401 2.521 . S
O426 C411 1.261 . S
O427 La401 2.628 . S
O427 C411 1.243 . S
O428 La401 2.554 . S
O428 C418 1.240 . S
O429 La400 2.482 . S
O429 La401 2.757 . S
O429 C418 1.289 . S
O430 La401 2.470 . S
O430 C419 1.258 . S
O431 La400 2.503 . S
O431 C419 1.256 . S
H432 C404 0.930 . S
H433 C405 0.930 . S
H434 C407 0.929 . S
H435 C408 0.929 . S
H436 C413 0.930 . S
H437 C414 0.930 . S
H438 C416 0.929 . S
H439 C417 0.929 . S
La440 C442 2.928 . S
La440 O460 2.521 . S
La440 O461 2.628 . S
La440 O462 2.554 . S
La440 O463 2.757 . S
La440 O464 2.470 . S
La440 O469 2.482 . S
La440 O471 2.503 . S
La441 C451 2.928 . S
La441 O463 2.482 . S
La441 O465 2.503 . S
La441 O466 2.521 . S
La441 O467 2.628 . S
La441 O468 2.554 . S
La441 O469 2.757 . S
La441 O470 2.470 . S
C442 La440 2.928 . S
C442 C443 1.503 . S
C442 O460 1.261 . S
C442 O461 1.243 . S
C443 C442 1.503 . S
C443 C444 1.394 . S
C443 C448 1.373 . S
C444 C443 1.394 . S
C444 C445 1.380 . S
C444 H472 0.930 . S
C445 C444 1.380 . S
C445 C446 1.376 . S
C445 H473 0.930 . S
C446 C445 1.376 . S
C446 C447 1.370 . S
C447 C446 1.370 . S
C447 C448 1.396 . S
C447 H474 0.929 . S
C448 C443 1.373 . S
C448 C447 1.396 . S
C448 H475 0.929 . S
C449 O462 1.240 . S
C449 O463 1.289 . S
C450 O464 1.258 . S
C450 O465 1.256 . S
C451 La441 2.928 . S
C451 C452 1.503 . S
C451 O466 1.261 . S
C451 O467 1.243 . S
C452 C451 1.503 . S
C452 C453 1.394 . S
C452 C457 1.373 . S
C453 C452 1.394 . S
C453 C454 1.380 . S
C453 H476 0.930 . S
C454 C453 1.380 . S
C454 C455 1.376 . S
C454 H477 0.930 . S
C455 C454 1.376 . S
C455 C456 1.370 . S
C456 C455 1.370 . S
C456 C457 1.396 . S
C456 H478 0.929 . S
C457 C452 1.373 . S
C457 C456 1.396 . S
C457 H479 0.929 . S
C458 O468 1.240 . S
C458 O469 1.289 . S
C459 O470 1.258 . S
C459 O471 1.256 . S
O460 La440 2.521 . S
O460 C442 1.261 . S
O461 La440 2.628 . S
O461 C442 1.243 . S
O462 La440 2.554 . S
O462 C449 1.240 . S
O463 La440 2.757 . S
O463 La441 2.482 . S
O463 C449 1.289 . S
O464 La440 2.470 . S
O464 C450 1.258 . S
O465 La441 2.503 . S
O465 C450 1.256 . S
O466 La441 2.521 . S
O466 C451 1.261 . S
O467 La441 2.628 . S
O467 C451 1.243 . S
O468 La441 2.554 . S
O468 C458 1.240 . S
O469 La440 2.482 . S
O469 La441 2.757 . S
O469 C458 1.289 . S
O470 La441 2.470 . S
O470 C459 1.258 . S
O471 La440 2.503 . S
O471 C459 1.256 . S
H472 C444 0.930 . S
H473 C445 0.930 . S
H474 C447 0.929 . S
H475 C448 0.929 . S
H476 C453 0.930 . S
H477 C454 0.930 . S
H478 C456 0.929 . S
H479 C457 0.929 . S
La480 C482 2.928 . S
La480 O500 2.521 . S
La480 O501 2.628 . S
La480 O502 2.554 . S
La480 O503 2.757 . S
La480 O504 2.470 . S
La480 O509 2.482 . S
La480 O511 2.503 . S
La481 C491 2.928 . S
La481 O503 2.482 . S
La481 O505 2.503 . S
La481 O506 2.521 . S
La481 O507 2.628 . S
La481 O508 2.554 . S
La481 O509 2.757 . S
La481 O510 2.470 . S
C482 La480 2.928 . S
C482 C483 1.503 . S
C482 O500 1.261 . S
C482 O501 1.243 . S
C483 C482 1.503 . S
C483 C484 1.394 . S
C483 C488 1.373 . S
C484 C483 1.394 . S
C484 C485 1.380 . S
C484 H512 0.930 . S
C485 C484 1.380 . S
C485 C486 1.376 . S
C485 H513 0.930 . S
C486 C485 1.376 . S
C486 C487 1.370 . S
C487 C486 1.370 . S
C487 C488 1.396 . S
C487 H514 0.929 . S
C488 C483 1.373 . S
C488 C487 1.396 . S
C488 H515 0.929 . S
C489 O502 1.240 . S
C489 O503 1.289 . S
C490 O504 1.258 . S
C490 O505 1.256 . S
C491 La481 2.928 . S
C491 C492 1.503 . S
C491 O506 1.261 . S
C491 O507 1.243 . S
C492 C491 1.503 . S
C492 C493 1.394 . S
C492 C497 1.373 . S
C493 C492 1.394 . S
C493 C494 1.380 . S
C493 H516 0.930 . S
C494 C493 1.380 . S
C494 C495 1.376 . S
C494 H517 0.930 . S
C495 C494 1.376 . S
C495 C496 1.370 . S
C496 C495 1.370 . S
C496 C497 1.396 . S
C496 H518 0.929 . S
C497 C492 1.373 . S
C497 C496 1.396 . S
C497 H519 0.929 . S
C498 O508 1.240 . S
C498 O509 1.289 . S
C499 O510 1.258 . S
C499 O511 1.256 . S
O500 La480 2.521 . S
O500 C482 1.261 . S
O501 La480 2.628 . S
O501 C482 1.243 . S
O502 La480 2.554 . S
O502 C489 1.240 . S
O503 La480 2.757 . S
O503 La481 2.482 . S
O503 C489 1.289 . S
O504 La480 2.470 . S
O504 C490 1.258 . S
O505 La481 2.503 . S
O505 C490 1.256 . S
O506 La481 2.521 . S
O506 C491 1.261 . S
O507 La481 2.628 . S
O507 C491 1.243 . S
O508 La481 2.554 . S
O508 C498 1.240 . S
O509 La480 2.482 . S
O509 La481 2.757 . S
O509 C498 1.289 . S
O510 La481 2.470 . S
O510 C499 1.258 . S
O511 La480 2.503 . S
O511 C499 1.256 . S
H512 C484 0.930 . S
H513 C485 0.930 . S
H514 C487 0.929 . S
H515 C488 0.929 . S
H516 C493 0.930 . S
H517 C494 0.930 . S
H518 C496 0.929 . S
H519 C497 0.929 . S
La520 C522 2.928 . S
La520 O540 2.521 . S
La520 O541 2.628 . S
La520 O542 2.554 . S
La520 O543 2.757 . S
La520 O544 2.470 . S
La520 O549 2.482 . S
La520 O551 2.503 . S
La521 C531 2.928 . S
La521 O543 2.482 . S
La521 O545 2.503 . S
La521 O546 2.521 . S
La521 O547 2.628 . S
La521 O548 2.554 . S
La521 O549 2.757 . S
La521 O550 2.470 . S
C522 La520 2.928 . S
C522 C523 1.503 . S
C522 O540 1.261 . S
C522 O541 1.243 . S
C523 C522 1.503 . S
C523 C524 1.394 . S
C523 C528 1.373 . S
C524 C523 1.394 . S
C524 C525 1.380 . S
C524 H552 0.930 . S
C525 C524 1.380 . S
C525 C526 1.376 . S
C525 H553 0.930 . S
C526 C525 1.376 . S
C526 C527 1.370 . S
C527 C526 1.370 . S
C527 C528 1.396 . S
C527 H554 0.929 . S
C528 C523 1.373 . S
C528 C527 1.396 . S
C528 H555 0.929 . S
C529 O542 1.240 . S
C529 O543 1.289 . S
C530 O544 1.258 . S
C530 O545 1.256 . S
C531 La521 2.928 . S
C531 C532 1.503 . S
C531 O546 1.261 . S
C531 O547 1.243 . S
C532 C531 1.503 . S
C532 C533 1.394 . S
C532 C537 1.373 . S
C533 C532 1.394 . S
C533 C534 1.380 . S
C533 H556 0.930 . S
C534 C533 1.380 . S
C534 C535 1.376 . S
C534 H557 0.930 . S
C535 C534 1.376 . S
C535 C536 1.370 . S
C536 C535 1.370 . S
C536 C537 1.396 . S
C536 H558 0.929 . S
C537 C532 1.373 . S
C537 C536 1.396 . S
C537 H559 0.929 . S
C538 O548 1.240 . S
C538 O549 1.289 . S
C539 O550 1.258 . S
C539 O551 1.256 . S
O540 La520 2.521 . S
O540 C522 1.261 . S
O541 La520 2.628 . S
O541 C522 1.243 . S
O542 La520 2.554 . S
O542 C529 1.240 . S
O543 La520 2.757 . S
O543 La521 2.482 . S
O543 C529 1.289 . S
O544 La520 2.470 . S
O544 C530 1.258 . S
O545 La521 2.503 . S
O545 C530 1.256 . S
O546 La521 2.521 . S
O546 C531 1.261 . S
O547 La521 2.628 . S
O547 C531 1.243 . S
O548 La521 2.554 . S
O548 C538 1.240 . S
O549 La520 2.482 . S
O549 La521 2.757 . S
O549 C538 1.289 . S
O550 La521 2.470 . S
O550 C539 1.258 . S
O551 La520 2.503 . S
O551 C539 1.256 . S
H552 C524 0.930 . S
H553 C525 0.930 . S
H554 C527 0.929 . S
H555 C528 0.929 . S
H556 C533 0.930 . S
H557 C534 0.930 . S
H558 C536 0.929 . S
H559 C537 0.929 . S
La560 C562 2.928 . S
La560 O580 2.521 . S
La560 O581 2.628 . S
La560 O582 2.554 . S
La560 O583 2.757 . S
La560 O584 2.470 . S
La560 O589 2.482 . S
La560 O591 2.503 . S
La561 C571 2.928 . S
La561 O583 2.482 . S
La561 O585 2.503 . S
La561 O586 2.521 . S
La561 O587 2.628 . S
La561 O588 2.554 . S
La561 O589 2.757 . S
La561 O590 2.470 . S
C562 La560 2.928 . S
C562 C563 1.503 . S
C562 O580 1.261 . S
C562 O581 1.243 . S
C563 C562 1.503 . S
C563 C564 1.394 . S
C563 C568 1.373 . S
C564 C563 1.394 . S
C564 C565 1.380 . S
C564 H592 0.930 . S
C565 C564 1.380 . S
C565 C566 1.376 . S
C565 H593 0.930 . S
C566 C565 1.376 . S
C566 C567 1.370 . S
C567 C566 1.370 . S
C567 C568 1.396 . S
C567 H594 0.929 . S
C568 C563 1.373 . S
C568 C567 1.396 . S
C568 H595 0.929 . S
C569 O582 1.240 . S
C569 O583 1.289 . S
C570 O584 1.258 . S
C570 O585 1.256 . S
C571 La561 2.928 . S
C571 C572 1.503 . S
C571 O586 1.261 . S
C571 O587 1.243 . S
C572 C571 1.503 . S
C572 C573 1.394 . S
C572 C577 1.373 . S
C573 C572 1.394 . S
C573 C574 1.380 . S
C573 H596 0.930 . S
C574 C573 1.380 . S
C574 C575 1.376 . S
C574 H597 0.930 . S
C575 C574 1.376 . S
C575 C576 1.370 . S
C576 C575 1.370 . S
C576 C577 1.396 . S
C576 H598 0.929 . S
C577 C572 1.373 . S
C577 C576 1.396 . S
C577 H599 0.929 . S
C578 O588 1.240 . S
C578 O589 1.289 . S
C579 O590 1.258 . S
C579 O591 1.256 . S
O580 La560 2.521 . S
O580 C562 1.261 . S
O581 La560 2.628 . S
O581 C562 1.243 . S
O582 La560 2.554 . S
O582 C569 1.240 . S
O583 La560 2.757 . S
O583 La561 2.482 . S
O583 C569 1.289 . S
O584 La560 2.470 . S
O584 C570 1.258 . S
O585 La561 2.503 . S
O585 C570 1.256 . S
O586 La561 2.521 . S
O586 C571 1.261 . S
O587 La561 2.628 . S
O587 C571 1.243 . S
O588 La561 2.554 . S
O588 C578 1.240 . S
O589 La560 2.482 . S
O589 La561 2.757 . S
O589 C578 1.289 . S
O590 La561 2.470 . S
O590 C579 1.258 . S
O591 La560 2.503 . S
O591 C579 1.256 . S
H592 C564 0.930 . S
H593 C565 0.930 . S
H594 C567 0.929 . S
H595 C568 0.929 . S
H596 C573 0.930 . S
H597 C574 0.930 . S
H598 C576 0.929 . S
H599 C577 0.929 . S
La600 C602 2.928 . S
La600 O620 2.521 . S
La600 O621 2.628 . S
La600 O622 2.554 . S
La600 O623 2.757 . S
La600 O624 2.470 . S
La600 O629 2.482 . S
La600 O631 2.503 . S
La601 C611 2.928 . S
La601 O623 2.482 . S
La601 O625 2.503 . S
La601 O626 2.521 . S
La601 O627 2.628 . S
La601 O628 2.554 . S
La601 O629 2.757 . S
La601 O630 2.470 . S
C602 La600 2.928 . S
C602 C603 1.503 . S
C602 O620 1.261 . S
C602 O621 1.243 . S
C603 C602 1.503 . S
C603 C604 1.394 . S
C603 C608 1.373 . S
C604 C603 1.394 . S
C604 C605 1.380 . S
C604 H632 0.930 . S
C605 C604 1.380 . S
C605 C606 1.376 . S
C605 H633 0.930 . S
C606 C605 1.376 . S
C606 C607 1.370 . S
C607 C606 1.370 . S
C607 C608 1.396 . S
C607 H634 0.929 . S
C608 C603 1.373 . S
C608 C607 1.396 . S
C608 H635 0.929 . S
C609 O622 1.240 . S
C609 O623 1.289 . S
C610 O624 1.258 . S
C610 O625 1.256 . S
C611 La601 2.928 . S
C611 C612 1.503 . S
C611 O626 1.261 . S
C611 O627 1.243 . S
C612 C611 1.503 . S
C612 C613 1.394 . S
C612 C617 1.373 . S
C613 C612 1.394 . S
C613 C614 1.380 . S
C613 H636 0.930 . S
C614 C613 1.380 . S
C614 C615 1.376 . S
C614 H637 0.930 . S
C615 C614 1.376 . S
C615 C616 1.370 . S
C616 C615 1.370 . S
C616 C617 1.396 . S
C616 H638 0.929 . S
C617 C612 1.373 . S
C617 C616 1.396 . S
C617 H639 0.929 . S
C618 O628 1.240 . S
C618 O629 1.289 . S
C619 O630 1.258 . S
C619 O631 1.256 . S
O620 La600 2.521 . S
O620 C602 1.261 . S
O621 La600 2.628 . S
O621 C602 1.243 . S
O622 La600 2.554 . S
O622 C609 1.240 . S
O623 La600 2.757 . S
O623 La601 2.482 . S
O623 C609 1.289 . S
O624 La600 2.470 . S
O624 C610 1.258 . S
O625 La601 2.503 . S
O625 C610 1.256 . S
O626 La601 2.521 . S
O626 C611 1.261 . S
O627 La601 2.628 . S
O627 C611 1.243 . S
O628 La601 2.554 . S
O628 C618 1.240 . S
O629 La600 2.482 . S
O629 La601 2.757 . S
O629 C618 1.289 . S
O630 La601 2.470 . S
O630 C619 1.258 . S
O631 La600 2.503 . S
O631 C619 1.256 . S
H632 C604 0.930 . S
H633 C605 0.930 . S
H634 C607 0.929 . S
H635 C608 0.929 . S
H636 C613 0.930 . S
H637 C614 0.930 . S
H638 C616 0.929 . S
H639 C617 0.929 . S
C640 C641 1.349 . S
C640 C642 1.327 . S
C640 H665 0.950 . S
C641 C640 1.349 . S
C641 C657 1.349 . S
C642 C640 1.327 . S
C642 C661 1.429 . S
C642 H666 0.950 . S
C643 C660 1.574 . S
C643 C662 1.368 . S
C643 H667 0.949 . S
H644 C648 0.949 1_545 S
C645 C646 1.349 . S
C645 C647 1.327 . S
C645 H668 0.950 . S
C646 C645 1.349 . S
C646 C658 1.349 . S
C647 C645 1.327 . S
C647 C663 1.429 . S
C647 H669 0.950 . S
C648 H644 0.949 1_565 S
C648 C656 1.574 . S
C648 C664 1.368 . S
H649 C657 0.950 . S
H650 C655 0.950 . S
H651 C656 0.949 . S
H652 C658 0.950 . S
H653 C659 0.950 . S
H654 C660 0.949 . S
C655 H650 0.950 . S
C655 C657 1.327 . S
C655 C661 1.429 . S
C656 C648 1.574 . S
C656 H651 0.949 . S
C656 C662 1.368 . S
C657 C641 1.349 . S
C657 H649 0.950 . S
C657 C655 1.327 . S
C658 C646 1.349 . S
C658 H652 0.950 . S
C658 C659 1.327 . S
C659 H653 0.950 . S
C659 C658 1.327 . S
C659 C663 1.429 . S
C660 C643 1.574 . S
C660 H654 0.949 . S
C660 C664 1.368 . S
C661 C642 1.429 . S
C661 C655 1.429 . S
C661 C662 1.523 . S
C662 C643 1.368 . S
C662 C656 1.368 . S
C662 C661 1.523 . S
C663 C647 1.429 . S
C663 C659 1.429 . S
C663 C664 1.523 1_545 S
C664 C648 1.368 . S
C664 C660 1.368 . S
C664 C663 1.523 1_565 S
H665 C640 0.950 . S
H666 C642 0.950 . S
H667 C643 0.949 . S
H668 C645 0.950 . S
H669 C647 0.950 . S
C670 C671 1.349 . S
C670 C672 1.327 . S
C670 H695 0.950 . S
C671 C670 1.349 . S
C671 C687 1.349 . S
C672 C670 1.327 . S
C672 C691 1.429 . S
C672 H696 0.950 . S
C673 C690 1.574 . S
C673 C692 1.368 . S
C673 H697 0.949 . S
H674 C678 0.949 1_455 S
C675 C676 1.349 . S
C675 C677 1.327 . S
C675 H698 0.950 . S
C676 C675 1.349 . S
C676 C688 1.349 . S
C677 C675 1.327 . S
C677 C693 1.429 . S
C677 H699 0.950 . S
C678 H674 0.949 1_655 S
C678 C686 1.574 . S
C678 C694 1.368 . S
H679 C687 0.950 . S
H680 C685 0.950 . S
H681 C686 0.949 . S
H682 C688 0.950 . S
H683 C689 0.950 . S
H684 C690 0.949 . S
C685 H680 0.950 . S
C685 C687 1.327 . S
C685 C691 1.429 . S
C686 C678 1.574 . S
C686 H681 0.949 . S
C686 C692 1.368 . S
C687 C671 1.349 . S
C687 H679 0.950 . S
C687 C685 1.327 . S
C688 C676 1.349 . S
C688 H682 0.950 . S
C688 C689 1.327 . S
C689 H683 0.950 . S
C689 C688 1.327 . S
C689 C693 1.429 . S
C690 C673 1.574 . S
C690 H684 0.949 . S
C690 C694 1.368 . S
C691 C672 1.429 . S
C691 C685 1.429 . S
C691 C692 1.523 . S
C692 C673 1.368 . S
C692 C686 1.368 . S
C692 C691 1.523 . S
C693 C677 1.429 . S
C693 C689 1.429 . S
C693 C694 1.523 1_455 S
C694 C678 1.368 . S
C694 C690 1.368 . S
C694 C693 1.523 1_655 S
H695 C670 0.950 . S
H696 C672 0.950 . S
H697 C673 0.949 . S
H698 C675 0.950 . S
H699 C677 0.950 . S
C700 C701 1.349 . S
C700 C702 1.327 . S
C700 H725 0.950 . S
C701 C700 1.349 . S
C701 C717 1.349 . S
C702 C700 1.327 . S
C702 C721 1.429 . S
C702 H726 0.950 . S
C703 C720 1.574 . S
C703 C722 1.368 . S
C703 H727 0.949 . S
H704 C708 0.949 . S
C705 C706 1.349 . S
C705 C707 1.327 . S
C705 H728 0.950 . S
C706 C705 1.349 . S
C706 C718 1.349 . S
C707 C705 1.327 . S
C707 C723 1.429 . S
C707 H729 0.950 . S
C708 H704 0.949 . S
C708 C716 1.574 . S
C708 C724 1.368 . S
H709 C717 0.950 . S
H710 C715 0.950 . S
H711 C716 0.949 1_565 S
H712 C718 0.950 . S
H713 C719 0.950 . S
H714 C720 0.949 . S
C715 H710 0.950 . S
C715 C717 1.327 . S
C715 C721 1.429 . S
C716 C708 1.574 . S
C716 H711 0.949 1_545 S
C716 C722 1.368 . S
C717 C701 1.349 . S
C717 H709 0.950 . S
C717 C715 1.327 . S
C718 C706 1.349 . S
C718 H712 0.950 . S
C718 C719 1.327 . S
C719 H713 0.950 . S
C719 C718 1.327 . S
C719 C723 1.429 . S
C720 C703 1.574 . S
C720 H714 0.949 . S
C720 C724 1.368 . S
C721 C702 1.429 . S
C721 C715 1.429 . S
C721 C722 1.523 1_565 S
C722 C703 1.368 . S
C722 C716 1.368 . S
C722 C721 1.523 1_545 S
C723 C707 1.429 . S
C723 C719 1.429 . S
C723 C724 1.523 . S
C724 C708 1.368 . S
C724 C720 1.368 . S
C724 C723 1.523 . S
H725 C700 0.950 . S
H726 C702 0.950 . S
H727 C703 0.949 . S
H728 C705 0.950 . S
H729 C707 0.950 . S
C730 C731 1.349 . S
C730 C732 1.327 . S
C730 H755 0.950 . S
C731 C730 1.349 . S
C731 C747 1.349 . S
C732 C730 1.327 . S
C732 C751 1.429 . S
C732 H756 0.950 . S
C733 C750 1.574 . S
C733 C752 1.368 . S
C733 H757 0.949 1_455 S
H734 C738 0.949 . S
C735 C736 1.349 . S
C735 C737 1.327 . S
C735 H758 0.950 . S
C736 C735 1.349 . S
C736 C748 1.349 . S
C737 C735 1.327 . S
C737 C753 1.429 . S
C737 H759 0.950 . S
C738 H734 0.949 . S
C738 C746 1.574 . S
C738 C754 1.368 . S
H739 C747 0.950 . S
H740 C745 0.950 . S
H741 C746 0.949 . S
H742 C748 0.950 . S
H743 C749 0.950 . S
H744 C750 0.949 . S
C745 H740 0.950 . S
C745 C747 1.327 . S
C745 C751 1.429 . S
C746 C738 1.574 . S
C746 H741 0.949 . S
C746 C752 1.368 . S
C747 C731 1.349 . S
C747 H739 0.950 . S
C747 C745 1.327 . S
C748 C736 1.349 . S
C748 H742 0.950 . S
C748 C749 1.327 . S
C749 H743 0.950 . S
C749 C748 1.327 . S
C749 C753 1.429 . S
C750 C733 1.574 . S
C750 H744 0.949 . S
C750 C754 1.368 . S
C751 C732 1.429 . S
C751 C745 1.429 . S
C751 C752 1.523 1_655 S
C752 C733 1.368 . S
C752 C746 1.368 . S
C752 C751 1.523 1_455 S
C753 C737 1.429 . S
C753 C749 1.429 . S
C753 C754 1.523 . S
C754 C738 1.368 . S
C754 C750 1.368 . S
C754 C753 1.523 . S
H755 C730 0.950 . S
H756 C732 0.950 . S
H757 C733 0.949 1_655 S
H758 C735 0.950 . S
H759 C737 0.950 . S
C760 C761 1.349 . S
C760 C762 1.327 . S
C760 H785 0.950 . S
C761 C760 1.349 . S
C761 C777 1.349 . S
C762 C760 1.327 . S
C762 C781 1.429 . S
C762 H786 0.950 . S
C763 C780 1.574 1_554 S
C763 C782 1.368 . S
C763 H787 0.949 . S
H764 C768 0.949 . S
C765 C766 1.349 . S
C765 C767 1.327 . S
C765 H788 0.950 . S
C766 C765 1.349 . S
C766 C778 1.349 . S
C767 C765 1.327 . S
C767 C783 1.429 . S
C767 H789 0.950 . S
C768 H764 0.949 . S
C768 C776 1.574 . S
C768 C784 1.368 . S
H769 C777 0.950 . S
H770 C775 0.950 . S
H771 C776 0.949 . S
H772 C778 0.950 . S
H773 C779 0.947 1_554 S
H774 C780 0.949 . S
C775 H770 0.950 . S
C775 C777 1.327 . S
C775 C781 1.429 . S
C776 C768 1.574 . S
C776 H771 0.949 . S
C776 C782 1.368 . S
C777 C761 1.349 . S
C777 H769 0.950 . S
C777 C775 1.327 . S
C778 C766 1.349 . S
C778 H772 0.950 . S
C778 C779 1.329 . S
C779 H773 0.947 1_556 S
C779 C778 1.329 . S
C779 C783 1.429 . S
C780 C763 1.574 1_556 S
C780 H774 0.949 . S
C780 C784 1.368 1_556 S
C781 C762 1.429 . S
C781 C775 1.429 . S
C781 C782 1.523 . S
C782 C763 1.368 . S
C782 C776 1.368 . S
C782 C781 1.523 . S
C783 C767 1.429 . S
C783 C779 1.429 . S
C783 C784 1.523 1_556 S
C784 C768 1.368 . S
C784 C780 1.368 1_554 S
C784 C783 1.523 1_554 S
H785 C760 0.950 . S
H786 C762 0.950 . S
H787 C763 0.949 . S
H788 C765 0.950 . S
H789 C767 0.950 . S
C790 C791 1.349 . S
C790 C792 1.327 . S
C790 H815 0.950 . S
C791 C790 1.349 . S
C791 C807 1.349 . S
C792 C790 1.327 . S
C792 C811 1.429 . S
C792 H816 0.950 1_554 S
C793 C810 1.568 1_554 S
C793 C812 1.365 1_554 S
C793 H817 0.957 . S
H794 C798 0.949 . S
C795 C796 1.349 . S
C795 C797 1.327 . S
C795 H818 0.950 . S
C796 C795 1.349 . S
C796 C808 1.349 . S
C797 C795 1.327 . S
C797 C813 1.429 . S
C797 H819 0.950 . S
C798 H794 0.949 . S
C798 C806 1.574 . S
C798 C814 1.368 . S
H799 C807 0.950 . S
H800 C805 0.950 . S
H801 C806 0.949 . S
H802 C808 0.950 . S
H803 C809 0.950 . S
H804 C810 0.949 . S
C805 H800 0.950 . S
C805 C807 1.327 . S
C805 C811 1.429 . S
C806 C798 1.574 . S
C806 H801 0.949 . S
C806 C812 1.368 . S
C807 C791 1.349 . S
C807 H799 0.950 . S
C807 C805 1.327 . S
C808 C796 1.349 . S
C808 H802 0.950 . S
C808 C809 1.327 . S
C809 H803 0.950 . S
C809 C808 1.327 . S
C809 C813 1.429 . S
C810 C793 1.568 1_556 S
C810 H804 0.949 . S
C810 C814 1.368 . S
C811 C792 1.429 . S
C811 C805 1.429 . S
C811 C812 1.523 1_554 S
C812 C793 1.365 1_556 S
C812 C806 1.368 . S
C812 C811 1.523 1_556 S
C813 C797 1.429 . S
C813 C809 1.429 . S
C813 C814 1.523 . S
C814 C798 1.368 . S
C814 C810 1.368 . S
C814 C813 1.523 . S
H815 C790 0.950 . S
H816 C792 0.950 1_556 S
H817 C793 0.957 . S
H818 C795 0.950 . S
H819 C797 0.950 . S
C820 C821 1.349 . S
C820 C822 1.327 . S
C820 H845 0.950 . S
C821 C820 1.349 . S
C821 C837 1.349 . S
C822 C820 1.327 . S
C822 C841 1.429 . S
C822 H846 0.950 . S
C823 C840 1.574 1_554 S
C823 C842 1.368 . S
C823 H847 0.949 1_554 S
H824 C828 0.949 . S
C825 C826 1.349 . S
C825 C827 1.327 . S
C825 H848 0.950 . S
C826 C825 1.349 . S
C826 C838 1.349 . S
C827 C825 1.327 . S
C827 C843 1.429 . S
C827 H849 0.950 . S
C828 H824 0.949 . S
C828 C836 1.574 . S
C828 C844 1.368 . S
H829 C837 0.950 . S
H830 C835 0.950 . S
H831 C836 0.949 . S
H832 C838 0.950 1_554 S
H833 C839 0.950 . S
H834 C840 0.949 . S
C835 H830 0.950 . S
C835 C837 1.327 . S
C835 C841 1.429 . S
C836 C828 1.574 . S
C836 H831 0.949 . S
C836 C842 1.368 . S
C837 C821 1.349 . S
C837 H829 0.950 . S
C837 C835 1.327 . S
C838 C826 1.349 . S
C838 H832 0.950 1_556 S
C838 C839 1.327 1_556 S
C839 H833 0.950 . S
C839 C838 1.327 1_554 S
C839 C843 1.429 1_554 S
C840 C823 1.574 1_556 S
C840 H834 0.949 . S
C840 C844 1.368 1_556 S
C841 C822 1.429 . S
C841 C835 1.429 . S
C841 C842 1.523 . S
C842 C823 1.368 . S
C842 C836 1.368 . S
C842 C841 1.523 . S
C843 C827 1.429 . S
C843 C839 1.429 1_556 S
C843 C844 1.523 1_556 S
C844 C828 1.368 . S
C844 C840 1.368 1_554 S
C844 C843 1.523 1_554 S
H845 C820 0.950 . S
H846 C822 0.950 . S
H847 C823 0.949 1_556 S
H848 C825 0.950 . S
H849 C827 0.950 . S
C850 C851 1.349 . S
C850 C852 1.327 1_554 S
C850 H875 0.950 1_554 S
C851 C850 1.349 . S
C851 C867 1.349 . S
C852 C850 1.327 1_556 S
C852 C871 1.429 1_556 S
C852 H876 0.950 . S
C853 C870 1.574 1_554 S
C853 C872 1.368 1_554 S
C853 H877 0.949 . S
H854 C858 0.949 . S
C855 C856 1.349 . S
C855 C857 1.327 . S
C855 H878 0.950 . S
C856 C855 1.349 . S
C856 C868 1.349 . S
C857 C855 1.327 . S
C857 C873 1.429 . S
C857 H879 0.950 . S
C858 H854 0.949 . S
C858 C866 1.574 . S
C858 C874 1.368 . S
H859 C867 0.950 . S
H860 C865 0.950 . S
H861 C866 0.949 . S
H862 C868 0.950 . S
H863 C869 0.950 . S
H864 C870 0.949 1_554 S
C865 H860 0.950 . S
C865 C867 1.327 . S
C865 C871 1.429 . S
C866 C858 1.574 . S
C866 H861 0.949 . S
C866 C872 1.368 . S
C867 C851 1.349 . S
C867 H859 0.950 . S
C867 C865 1.327 . S
C868 C856 1.349 . S
C868 H862 0.950 . S
C868 C869 1.327 . S
C869 H863 0.950 . S
C869 C868 1.327 . S
C869 C873 1.429 . S
C870 C853 1.574 1_556 S
C870 H864 0.949 1_556 S
C870 C874 1.368 . S
C871 C852 1.429 1_554 S
C871 C865 1.429 . S
C871 C872 1.523 1_554 S
C872 C853 1.368 1_556 S
C872 C866 1.368 . S
C872 C871 1.523 1_556 S
C873 C857 1.429 . S
C873 C869 1.429 . S
C873 C874 1.523 . S
C874 C858 1.368 . S
C874 C870 1.368 . S
C874 C873 1.523 . S
H875 C850 0.950 1_556 S
H876 C852 0.950 . S
H877 C853 0.949 . S
H878 C855 0.950 . S
H879 C857 0.950 . S
C880 C881 1.349 . S
C880 C882 1.327 . S
C880 H905 0.950 . S
C881 C880 1.349 . S
C881 C897 1.349 . S
C882 C880 1.327 . S
C882 C901 1.429 . S
C882 H906 0.950 . S
C883 C900 1.574 . S
C883 C902 1.368 . S
C883 H907 0.949 . S
H884 C888 0.949 . S
C885 C886 1.349 . S
C885 C887 1.327 . S
C885 H908 0.950 . S
C886 C885 1.349 . S
C886 C898 1.349 . S
C887 C885 1.327 . S
C887 C903 1.429 . S
C887 H909 0.950 . S
C888 H884 0.949 . S
C888 C896 1.574 . S
C888 C904 1.368 . S
H889 C897 0.950 . S
H890 C895 0.950 . S
H891 C896 0.949 . S
H892 C898 0.950 . S
H893 C899 0.950 . S
H894 C900 0.949 . S
C895 H890 0.950 . S
C895 C897 1.327 . S
C895 C901 1.429 . S
C896 C888 1.574 . S
C896 H891 0.949 . S
C896 C902 1.368 . S
C897 C881 1.349 . S
C897 H889 0.950 . S
C897 C895 1.327 . S
C898 C886 1.349 . S
C898 H892 0.950 . S
C898 C899 1.327 . S
C899 H893 0.950 . S
C899 C898 1.327 . S
C899 C903 1.429 . S
C900 C883 1.574 . S
C900 H894 0.949 . S
C900 C904 1.368 . S
C901 C882 1.429 . S
C901 C895 1.429 . S
C901 C902 1.523 . S
C902 C883 1.368 . S
C902 C896 1.368 . S
C902 C901 1.523 . S
C903 C887 1.429 . S
C903 C899 1.429 . S
C903 C904 1.523 . S
C904 C888 1.368 . S
C904 C900 1.368 . S
C904 C903 1.523 . S
H905 C880 0.950 . S
H906 C882 0.950 . S
H907 C883 0.949 . S
H908 C885 0.950 . S
H909 C887 0.950 . S
C910 C911 1.349 . S
C910 C912 1.327 . S
C910 H935 0.950 . S
C911 C910 1.349 . S
C911 C927 1.349 . S
C912 C910 1.327 . S
C912 C931 1.429 . S
C912 H936 0.950 . S
C913 C930 1.574 . S
C913 C932 1.368 . S
C913 H937 0.949 . S
H914 C918 0.949 . S
C915 C916 1.349 . S
C915 C917 1.327 . S
C915 H938 0.950 . S
C916 C915 1.349 . S
C916 C928 1.349 . S
C917 C915 1.327 . S
C917 C933 1.429 . S
C917 H939 0.950 . S
C918 H914 0.949 . S
C918 C926 1.574 . S
C918 C934 1.368 . S
H919 C927 0.950 . S
H920 C925 0.950 . S
H921 C926 0.949 . S
H922 C928 0.950 . S
H923 C929 0.950 . S
H924 C930 0.949 . S
C925 H920 0.950 . S
C925 C927 1.327 . S
C925 C931 1.429 . S
C926 C918 1.574 . S
C926 H921 0.949 . S
C926 C932 1.368 . S
C927 C911 1.349 . S
C927 H919 0.950 . S
C927 C925 1.327 . S
C928 C916 1.349 . S
C928 H922 0.950 . S
C928 C929 1.327 . S
C929 H923 0.950 . S
C929 C928 1.327 . S
C929 C933 1.429 . S
C930 C913 1.574 . S
C930 H924 0.949 . S
C930 C934 1.368 . S
C931 C912 1.429 . S
C931 C925 1.429 . S
C931 C932 1.523 . S
C932 C913 1.368 . S
C932 C926 1.368 . S
C932 C931 1.523 . S
C933 C917 1.429 . S
C933 C929 1.429 . S
C933 C934 1.523 . S
C934 C918 1.368 . S
C934 C930 1.368 . S
C934 C933 1.523 . S
H935 C910 0.950 . S
H936 C912 0.950 . S
H937 C913 0.949 . S
H938 C915 0.950 . S
H939 C917 0.950 . S
C940 C941 1.349 . S
C940 C942 1.327 . S
C940 H965 0.950 . S
C941 C940 1.349 . S
C941 C957 1.349 . S
C942 C940 1.327 . S
C942 C961 1.429 . S
C942 H966 0.950 . S
C943 C960 1.574 . S
C943 C962 1.368 . S
C943 H967 0.949 . S
H944 C948 0.949 . S
C945 C946 1.349 . S
C945 C947 1.327 . S
C945 H968 0.950 . S
C946 C945 1.349 . S
C946 C958 1.349 . S
C947 C945 1.327 . S
C947 C963 1.429 . S
C947 H969 0.950 . S
C948 H944 0.949 . S
C948 C956 1.574 . S
C948 C964 1.368 . S
H949 C957 0.950 . S
H950 C955 0.950 . S
H951 C956 0.949 . S
H952 C958 0.950 . S
H953 C959 0.950 . S
H954 C960 0.949 . S
C955 H950 0.950 . S
C955 C957 1.327 . S
C955 C961 1.429 . S
C956 C948 1.574 . S
C956 H951 0.949 . S
C956 C962 1.368 . S
C957 C941 1.349 . S
C957 H949 0.950 . S
C957 C955 1.327 . S
C958 C946 1.349 . S
C958 H952 0.950 . S
C958 C959 1.327 . S
C959 H953 0.950 . S
C959 C958 1.327 . S
C959 C963 1.429 . S
C960 C943 1.574 . S
C960 H954 0.949 . S
C960 C964 1.368 . S
C961 C942 1.429 . S
C961 C955 1.429 . S
C961 C962 1.523 . S
C962 C943 1.368 . S
C962 C956 1.368 . S
C962 C961 1.523 . S
C963 C947 1.429 . S
C963 C959 1.429 . S
C963 C964 1.523 . S
C964 C948 1.368 . S
C964 C960 1.368 . S
C964 C963 1.523 . S
H965 C940 0.950 . S
H966 C942 0.950 . S
H967 C943 0.949 . S
H968 C945 0.950 . S
H969 C947 0.950 . S
C970 C971 1.349 . S
C970 C972 1.327 . S
C970 H995 0.950 . S
C971 C970 1.349 . S
C971 C987 1.349 . S
C972 C970 1.327 . S
C972 C991 1.429 . S
C972 H996 0.950 . S
C973 C990 1.574 . S
C973 C992 1.368 . S
C973 H997 0.949 . S
H974 C978 0.949 . S
C975 C976 1.349 . S
C975 C977 1.327 . S
C975 H998 0.950 . S
C976 C975 1.349 . S
C976 C988 1.349 . S
C977 C975 1.327 . S
C977 C993 1.429 . S
C977 H999 0.950 . S
C978 H974 0.949 . S
C978 C986 1.574 . S
C978 C994 1.368 . S
H979 C987 0.950 . S
H980 C985 0.950 . S
H981 C986 0.949 . S
H982 C988 0.950 . S
H983 C989 0.950 . S
H984 C990 0.949 . S
C985 H980 0.950 . S
C985 C987 1.327 . S
C985 C991 1.429 . S
C986 C978 1.574 . S
C986 H981 0.949 . S
C986 C992 1.368 . S
C987 C971 1.349 . S
C987 H979 0.950 . S
C987 C985 1.327 . S
C988 C976 1.349 . S
C988 H982 0.950 . S
C988 C989 1.327 . S
C989 H983 0.950 . S
C989 C988 1.327 . S
C989 C993 1.429 . S
C990 C973 1.574 . S
C990 H984 0.949 . S
C990 C994 1.368 . S
C991 C972 1.429 . S
C991 C985 1.429 . S
C991 C992 1.523 . S
C992 C973 1.368 . S
C992 C986 1.368 . S
C992 C991 1.523 . S
C993 C977 1.429 . S
C993 C989 1.429 . S
C993 C994 1.523 . S
C994 C978 1.368 . S
C994 C990 1.368 . S
C994 C993 1.523 . S
H995 C970 0.950 . S
H996 C972 0.950 . S
H997 C973 0.949 . S
H998 C975 0.950 . S
H999 C977 0.950 . S
C1000 C1001 1.349 . S
C1000 C1002 1.327 . S
C1000 H1025 0.950 . S
C1001 C1000 1.349 . S
C1001 C1017 1.349 . S
C1002 C1000 1.327 . S
C1002 C1021 1.429 . S
C1002 H1026 0.950 . S
C1003 C1020 1.574 . S
C1003 C1022 1.368 . S
C1003 H1027 0.949 . S
H1004 C1008 0.949 . S
C1005 C1006 1.349 . S
C1005 C1007 1.327 . S
C1005 H1028 0.950 . S
C1006 C1005 1.349 . S
C1006 C1018 1.349 . S
C1007 C1005 1.327 . S
C1007 C1023 1.429 . S
C1007 H1029 0.950 . S
C1008 H1004 0.949 . S
C1008 C1016 1.574 . S
C1008 C1024 1.368 . S
H1009 C1017 0.950 . S
H1010 C1015 0.950 . S
H1011 C1016 0.967 . S
H1012 C1018 0.950 . S
H1013 C1019 0.950 . S
H1014 C1020 0.949 . S
C1015 H1010 0.950 . S
C1015 C1017 1.327 . S
C1015 C1021 1.429 . S
C1016 C1008 1.574 . S
C1016 H1011 0.967 . S
C1016 C1022 1.368 . S
C1017 C1001 1.349 . S
C1017 H1009 0.950 . S
C1017 C1015 1.327 . S
C1018 C1006 1.349 . S
C1018 H1012 0.950 . S
C1018 C1019 1.327 . S
C1019 H1013 0.950 . S
C1019 C1018 1.327 . S
C1019 C1023 1.429 . S
C1020 C1003 1.574 . S
C1020 H1014 0.949 . S
C1020 C1024 1.368 . S
C1021 C1002 1.429 . S
C1021 C1015 1.429 . S
C1021 C1022 1.523 1_565 S
C1022 C1003 1.368 . S
C1022 C1016 1.368 . S
C1022 C1021 1.523 1_545 S
C1023 C1007 1.429 . S
C1023 C1019 1.429 . S
C1023 C1024 1.523 . S
C1024 C1008 1.368 . S
C1024 C1020 1.368 . S
C1024 C1023 1.523 . S
H1025 C1000 0.950 . S
H1026 C1002 0.950 . S
H1027 C1003 0.949 . S
H1028 C1005 0.950 . S
H1029 C1007 0.950 . S
C1030 C1031 1.349 . S
C1030 C1032 1.327 . S
C1030 H1055 0.950 . S
C1031 C1030 1.349 . S
C1031 C1047 1.349 . S
C1032 C1030 1.327 . S
C1032 C1051 1.429 . S
C1032 H1056 0.950 . S
C1033 C1050 1.574 . S
C1033 C1052 1.368 . S
C1033 H1057 0.949 . S
H1034 C1038 0.949 . S
C1035 C1036 1.349 . S
C1035 C1037 1.327 . S
C1035 H1058 0.950 . S
C1036 C1035 1.349 . S
C1036 C1048 1.349 . S
C1037 C1035 1.327 . S
C1037 C1053 1.429 . S
C1037 H1059 0.950 . S
C1038 H1034 0.949 . S
C1038 C1046 1.574 . S
C1038 C1054 1.368 . S
H1039 C1047 0.950 . S
H1040 C1045 0.950 . S
H1041 C1046 0.949 . S
H1042 C1048 0.950 . S
H1043 C1049 0.950 . S
H1044 C1050 0.949 1_655 S
C1045 H1040 0.950 . S
C1045 C1047 1.327 . S
C1045 C1051 1.429 . S
C1046 C1038 1.574 . S
C1046 H1041 0.949 . S
C1046 C1052 1.368 . S
C1047 C1031 1.349 . S
C1047 H1039 0.950 . S
C1047 C1045 1.327 . S
C1048 C1036 1.349 . S
C1048 H1042 0.950 . S
C1048 C1049 1.327 . S
C1049 H1043 0.950 . S
C1049 C1048 1.327 . S
C1049 C1053 1.429 . S
C1050 C1033 1.574 . S
C1050 H1044 0.949 1_455 S
C1050 C1054 1.368 . S
C1051 C1032 1.429 . S
C1051 C1045 1.429 . S
C1051 C1052 1.523 . S
C1052 C1033 1.368 . S
C1052 C1046 1.368 . S
C1052 C1051 1.523 . S
C1053 C1037 1.429 . S
C1053 C1049 1.429 . S
C1053 C1054 1.523 1_655 S
C1054 C1038 1.368 . S
C1054 C1050 1.368 . S
C1054 C1053 1.523 1_455 S
H1055 C1030 0.950 . S
H1056 C1032 0.950 . S
H1057 C1033 0.949 . S
H1058 C1035 0.950 . S
H1059 C1037 0.950 . S
C1060 C1061 1.349 . S
C1060 C1062 1.327 . S
C1060 H1085 0.950 . S
C1061 C1060 1.349 . S
C1061 C1077 1.349 . S
C1062 C1060 1.327 . S
C1062 C1081 1.429 . S
C1062 H1086 0.950 . S
C1063 C1080 1.574 . S
C1063 C1082 1.368 . S
C1063 H1087 0.949 . S
H1064 C1068 0.949 . S
C1065 C1066 1.349 . S
C1065 C1067 1.327 . S
C1065 H1088 0.950 . S
C1066 C1065 1.349 . S
C1066 C1078 1.349 . S
C1067 C1065 1.327 . S
C1067 C1083 1.429 . S
C1067 H1089 0.950 . S
C1068 H1064 0.949 . S
C1068 C1076 1.574 . S
C1068 C1084 1.368 . S
H1069 C1077 0.950 . S
H1070 C1075 0.950 . S
H1071 C1076 0.949 . S
H1072 C1078 0.950 . S
H1073 C1079 0.950 . S
H1074 C1080 0.949 1_545 S
C1075 H1070 0.950 . S
C1075 C1077 1.327 . S
C1075 C1081 1.429 . S
C1076 C1068 1.574 . S
C1076 H1071 0.949 . S
C1076 C1082 1.368 . S
C1077 C1061 1.349 . S
C1077 H1069 0.950 . S
C1077 C1075 1.327 . S
C1078 C1066 1.349 . S
C1078 H1072 0.950 . S
C1078 C1079 1.327 . S
C1079 H1073 0.950 . S
C1079 C1078 1.327 . S
C1079 C1083 1.429 . S
C1080 C1063 1.574 . S
C1080 H1074 0.949 1_565 S
C1080 C1084 1.368 . S
C1081 C1062 1.429 . S
C1081 C1075 1.429 . S
C1081 C1082 1.523 . S
C1082 C1063 1.368 . S
C1082 C1076 1.368 . S
C1082 C1081 1.523 . S
C1083 C1067 1.429 . S
C1083 C1079 1.429 . S
C1083 C1084 1.523 1_545 S
C1084 C1068 1.368 . S
C1084 C1080 1.368 . S
C1084 C1083 1.523 1_565 S
H1085 C1060 0.950 . S
H1086 C1062 0.950 . S
H1087 C1063 0.949 . S
H1088 C1065 0.950 . S
H1089 C1067 0.950 . S
C1090 C1091 1.349 . S
C1090 C1092 1.327 . S
C1090 H1115 0.950 . S
C1091 C1090 1.349 . S
C1091 C1107 1.349 . S
C1092 C1090 1.327 . S
C1092 C1111 1.429 . S
C1092 H1116 0.950 . S
C1093 C1110 1.574 . S
C1093 C1112 1.368 . S
C1093 H1117 0.949 1_655 S
H1094 C1098 0.949 . S
C1095 C1096 1.349 . S
C1095 C1097 1.327 . S
C1095 H1118 0.950 . S
C1096 C1095 1.349 . S
C1096 C1108 1.349 . S
C1097 C1095 1.327 . S
C1097 C1113 1.429 . S
C1097 H1119 0.950 . S
C1098 H1094 0.949 . S
C1098 C1106 1.574 . S
C1098 C1114 1.368 . S
H1099 C1107 0.950 . S
H1100 C1105 0.950 . S
H1101 C1106 0.949 . S
H1102 C1108 0.950 . S
H1103 C1109 0.950 . S
H1104 C1110 0.949 . S
C1105 H1100 0.950 . S
C1105 C1107 1.327 . S
C1105 C1111 1.429 . S
C1106 C1098 1.574 . S
C1106 H1101 0.949 . S
C1106 C1112 1.368 . S
C1107 C1091 1.349 . S
C1107 H1099 0.950 . S
C1107 C1105 1.327 . S
C1108 C1096 1.349 . S
C1108 H1102 0.950 . S
C1108 C1109 1.327 . S
C1109 H1103 0.950 . S
C1109 C1108 1.327 . S
C1109 C1113 1.429 . S
C1110 C1093 1.574 . S
C1110 H1104 0.949 . S
C1110 C1114 1.368 . S
C1111 C1092 1.429 . S
C1111 C1105 1.429 . S
C1111 C1112 1.523 1_455 S
C1112 C1093 1.368 . S
C1112 C1106 1.368 . S
C1112 C1111 1.523 1_655 S
C1113 C1097 1.429 . S
C1113 C1109 1.429 . S
C1113 C1114 1.523 . S
C1114 C1098 1.368 . S
C1114 C1110 1.368 . S
C1114 C1113 1.523 . S
H1115 C1090 0.950 . S
H1116 C1092 0.950 . S
H1117 C1093 0.949 1_455 S
H1118 C1095 0.950 . S
H1119 C1097 0.950 . S
C1120 C1121 1.349 . S
C1120 C1122 1.327 . S
C1120 H1145 0.950 . S
C1121 C1120 1.349 . S
C1121 C1137 1.349 . S
C1122 C1120 1.327 . S
C1122 C1141 1.429 . S
C1122 H1146 0.950 . S
C1123 C1140 1.574 . S
C1123 C1142 1.368 . S
C1123 H1147 0.949 . S
H1124 C1128 0.949 . S
C1125 C1126 1.349 . S
C1125 C1127 1.327 . S
C1125 H1148 0.950 . S
C1126 C1125 1.349 . S
C1126 C1138 1.349 . S
C1127 C1125 1.327 . S
C1127 C1143 1.429 . S
C1127 H1149 0.950 . S
C1128 H1124 0.949 . S
C1128 C1136 1.574 . S
C1128 C1144 1.368 . S
H1129 C1137 0.950 . S
H1130 C1135 0.950 . S
H1131 C1136 0.949 . S
H1132 C1138 0.950 . S
H1133 C1139 0.950 . S
H1134 C1140 0.949 . S
C1135 H1130 0.950 . S
C1135 C1137 1.327 . S
C1135 C1141 1.429 . S
C1136 C1128 1.574 . S
C1136 H1131 0.949 . S
C1136 C1142 1.368 . S
C1137 C1121 1.349 . S
C1137 H1129 0.950 . S
C1137 C1135 1.327 . S
C1138 C1126 1.349 . S
C1138 H1132 0.950 . S
C1138 C1139 1.327 . S
C1139 H1133 0.950 . S
C1139 C1138 1.327 . S
C1139 C1143 1.429 . S
C1140 C1123 1.574 . S
C1140 H1134 0.949 . S
C1140 C1144 1.368 . S
C1141 C1122 1.429 . S
C1141 C1135 1.429 . S
C1141 C1142 1.523 . S
C1142 C1123 1.368 . S
C1142 C1136 1.368 . S
C1142 C1141 1.523 . S
C1143 C1127 1.429 . S
C1143 C1139 1.429 . S
C1143 C1144 1.523 . S
C1144 C1128 1.368 . S
C1144 C1140 1.368 . S
C1144 C1143 1.523 . S
H1145 C1120 0.950 . S
H1146 C1122 0.950 . S
H1147 C1123 0.949 . S
H1148 C1125 0.950 . S
H1149 C1127 0.950 . S
C1150 C1151 1.349 . S
C1150 C1152 1.327 . S
C1150 H1175 0.950 . S
C1151 C1150 1.349 . S
C1151 C1167 1.349 . S
C1152 C1150 1.327 . S
C1152 C1171 1.429 . S
C1152 H1176 0.950 . S
C1153 C1170 1.574 . S
C1153 C1172 1.368 . S
C1153 H1177 0.949 . S
H1154 C1158 0.949 . S
C1155 C1156 1.349 . S
C1155 C1157 1.327 . S
C1155 H1178 0.950 . S
C1156 C1155 1.349 . S
C1156 C1168 1.349 . S
C1157 C1155 1.327 . S
C1157 C1173 1.429 . S
C1157 H1179 0.950 . S
C1158 H1154 0.949 . S
C1158 C1166 1.574 . S
C1158 C1174 1.368 . S
H1159 C1167 0.950 . S
H1160 C1165 0.950 . S
H1161 C1166 0.949 . S
H1162 C1168 0.950 . S
H1163 C1169 0.950 . S
H1164 C1170 0.949 . S
C1165 H1160 0.950 . S
C1165 C1167 1.327 . S
C1165 C1171 1.429 . S
C1166 C1158 1.574 . S
C1166 H1161 0.949 . S
C1166 C1172 1.368 . S
C1167 C1151 1.349 . S
C1167 H1159 0.950 . S
C1167 C1165 1.327 . S
C1168 C1156 1.349 . S
C1168 H1162 0.950 . S
C1168 C1169 1.327 . S
C1169 H1163 0.950 . S
C1169 C1168 1.327 . S
C1169 C1173 1.429 . S
C1170 C1153 1.574 . S
C1170 H1164 0.949 . S
C1170 C1174 1.368 . S
C1171 C1152 1.429 . S
C1171 C1165 1.429 . S
C1171 C1172 1.523 . S
C1172 C1153 1.368 . S
C1172 C1166 1.368 . S
C1172 C1171 1.523 . S
C1173 C1157 1.429 . S
C1173 C1169 1.429 . S
C1173 C1174 1.523 . S
C1174 C1158 1.368 . S
C1174 C1170 1.368 . S
C1174 C1173 1.523 . S
H1175 C1150 0.950 . S
H1176 C1152 0.950 . S
H1177 C1153 0.949 . S
H1178 C1155 0.950 . S
H1179 C1157 0.950 . S
C1180 C1181 1.349 . S
C1180 C1182 1.327 . S
C1180 H1205 0.950 . S
C1181 C1180 1.349 . S
C1181 C1197 1.349 . S
C1182 C1180 1.327 . S
C1182 C1201 1.429 . S
C1182 H1206 0.950 . S
C1183 C1200 1.574 . S
C1183 C1202 1.368 . S
C1183 H1207 0.949 . S
H1184 C1188 0.949 . S
C1185 C1186 1.349 . S
C1185 C1187 1.327 . S
C1185 H1208 0.950 . S
C1186 C1185 1.349 . S
C1186 C1198 1.349 . S
C1187 C1185 1.327 . S
C1187 C1203 1.429 . S
C1187 H1209 0.950 . S
C1188 H1184 0.949 . S
C1188 C1196 1.574 . S
C1188 C1204 1.368 . S
H1189 C1197 0.950 . S
H1190 C1195 0.950 . S
H1191 C1196 0.949 . S
H1192 C1198 0.950 . S
H1193 C1199 0.950 . S
H1194 C1200 0.949 . S
C1195 H1190 0.950 . S
C1195 C1197 1.327 . S
C1195 C1201 1.429 . S
C1196 C1188 1.574 . S
C1196 H1191 0.949 . S
C1196 C1202 1.368 . S
C1197 C1181 1.349 . S
C1197 H1189 0.950 . S
C1197 C1195 1.327 . S
C1198 C1186 1.349 . S
C1198 H1192 0.950 . S
C1198 C1199 1.327 . S
C1199 H1193 0.950 . S
C1199 C1198 1.327 . S
C1199 C1203 1.429 . S
C1200 C1183 1.574 . S
C1200 H1194 0.949 . S
C1200 C1204 1.368 . S
C1201 C1182 1.429 . S
C1201 C1195 1.429 . S
C1201 C1202 1.523 . S
C1202 C1183 1.368 . S
C1202 C1196 1.368 . S
C1202 C1201 1.523 . S
C1203 C1187 1.429 . S
C1203 C1199 1.429 . S
C1203 C1204 1.523 . S
C1204 C1188 1.368 . S
C1204 C1200 1.368 . S
C1204 C1203 1.523 . S
H1205 C1180 0.950 . S
H1206 C1182 0.950 . S
H1207 C1183 0.949 . S
H1208 C1185 0.950 . S
H1209 C1187 0.950 . S
C1210 C1211 1.349 . S
C1210 C1212 1.327 . S
C1210 H1235 0.950 . S
C1211 C1210 1.349 . S
C1211 C1227 1.349 . S
C1212 C1210 1.327 . S
C1212 C1231 1.429 . S
C1212 H1236 0.950 . S
C1213 C1230 1.574 . S
C1213 C1232 1.368 . S
C1213 H1237 0.949 . S
H1214 C1218 0.949 . S
C1215 C1216 1.349 . S
C1215 C1217 1.327 . S
C1215 H1238 0.950 . S
C1216 C1215 1.349 . S
C1216 C1228 1.349 . S
C1217 C1215 1.327 . S
C1217 C1233 1.429 . S
C1217 H1239 0.950 . S
C1218 H1214 0.949 . S
C1218 C1226 1.574 . S
C1218 C1234 1.368 . S
H1219 C1227 0.950 . S
H1220 C1225 0.950 . S
H1221 C1226 0.949 . S
H1222 C1228 0.950 . S
H1223 C1229 0.950 . S
H1224 C1230 0.949 . S
C1225 H1220 0.950 . S
C1225 C1227 1.327 . S
C1225 C1231 1.429 . S
C1226 C1218 1.574 . S
C1226 H1221 0.949 . S
C1226 C1232 1.368 . S
C1227 C1211 1.349 . S
C1227 H1219 0.950 . S
C1227 C1225 1.327 . S
C1228 C1216 1.349 . S
C1228 H1222 0.950 . S
C1228 C1229 1.327 . S
C1229 H1223 0.950 . S
C1229 C1228 1.327 . S
C1229 C1233 1.429 . S
C1230 C1213 1.574 . S
C1230 H1224 0.949 . S
C1230 C1234 1.368 . S
C1231 C1212 1.429 . S
C1231 C1225 1.429 . S
C1231 C1232 1.523 . S
C1232 C1213 1.368 . S
C1232 C1226 1.368 . S
C1232 C1231 1.523 . S
C1233 C1217 1.429 . S
C1233 C1229 1.429 . S
C1233 C1234 1.523 . S
C1234 C1218 1.368 . S
C1234 C1230 1.368 . S
C1234 C1233 1.523 . S
H1235 C1210 0.950 . S
H1236 C1212 0.950 . S
H1237 C1213 0.949 . S
H1238 C1215 0.950 . S
H1239 C1217 0.950 . S
C1240 C1241 1.349 . S
C1240 C1242 1.327 . S
C1240 H1265 0.950 . S
C1241 C1240 1.349 . S
C1241 C1257 1.349 . S
C1242 C1240 1.327 . S
C1242 C1261 1.429 . S
C1242 H1266 0.950 . S
C1243 C1260 1.574 . S
C1243 C1262 1.368 . S
C1243 H1267 0.949 . S
H1244 C1248 0.949 . S
C1245 C1246 1.349 . S
C1245 C1247 1.327 . S
C1245 H1268 0.950 . S
C1246 C1245 1.349 . S
C1246 C1258 1.349 . S
C1247 C1245 1.327 . S
C1247 C1263 1.429 . S
C1247 H1269 0.950 . S
C1248 H1244 0.949 . S
C1248 C1256 1.574 . S
C1248 C1264 1.368 . S
H1249 C1257 0.950 . S
H1250 C1255 0.950 . S
H1251 C1256 0.949 . S
H1252 C1258 0.950 . S
H1253 C1259 0.950 . S
H1254 C1260 0.949 . S
C1255 H1250 0.950 . S
C1255 C1257 1.327 . S
C1255 C1261 1.429 . S
C1256 C1248 1.574 . S
C1256 H1251 0.949 . S
C1256 C1262 1.368 . S
C1257 C1241 1.349 . S
C1257 H1249 0.950 . S
C1257 C1255 1.327 . S
C1258 C1246 1.349 . S
C1258 H1252 0.950 . S
C1258 C1259 1.327 . S
C1259 H1253 0.950 . S
C1259 C1258 1.327 . S
C1259 C1263 1.429 . S
C1260 C1243 1.574 . S
C1260 H1254 0.949 . S
C1260 C1264 1.368 . S
C1261 C1242 1.429 . S
C1261 C1255 1.429 . S
C1261 C1262 1.523 . S
C1262 C1243 1.368 . S
C1262 C1256 1.368 . S
C1262 C1261 1.523 . S
C1263 C1247 1.429 . S
C1263 C1259 1.429 . S
C1263 C1264 1.523 . S
C1264 C1248 1.368 . S
C1264 C1260 1.368 . S
C1264 C1263 1.523 . S
H1265 C1240 0.950 . S
H1266 C1242 0.950 . S
H1267 C1243 0.949 . S
H1268 C1245 0.950 . S
H1269 C1247 0.950 . S
C1270 C1271 1.349 . S
C1270 C1272 1.327 . S
C1270 H1295 0.950 . S
C1271 C1270 1.349 . S
C1271 C1287 1.349 . S
C1272 C1270 1.327 . S
C1272 C1291 1.429 . S
C1272 H1296 0.950 . S
C1273 C1290 1.574 . S
C1273 C1292 1.368 . S
C1273 H1297 0.949 . S
H1274 C1278 0.949 . S
C1275 C1276 1.349 . S
C1275 C1277 1.327 . S
C1275 H1298 0.950 . S
C1276 C1275 1.349 . S
C1276 C1288 1.349 . S
C1277 C1275 1.327 . S
C1277 C1293 1.429 . S
C1277 H1299 0.950 . S
C1278 H1274 0.949 . S
C1278 C1286 1.574 . S
C1278 C1294 1.368 . S
H1279 C1287 0.950 . S
H1280 C1285 0.950 . S
H1281 C1286 0.949 . S
H1282 C1288 0.950 . S
H1283 C1289 0.950 . S
H1284 C1290 0.949 . S
C1285 H1280 0.950 . S
C1285 C1287 1.327 . S
C1285 C1291 1.429 . S
C1286 C1278 1.574 . S
C1286 H1281 0.949 . S
C1286 C1292 1.368 . S
C1287 C1271 1.349 . S
C1287 H1279 0.950 . S
C1287 C1285 1.327 . S
C1288 C1276 1.349 . S
C1288 H1282 0.950 . S
C1288 C1289 1.327 . S
C1289 H1283 0.950 . S
C1289 C1288 1.327 . S
C1289 C1293 1.429 . S
C1290 C1273 1.574 . S
C1290 H1284 0.949 . S
C1290 C1294 1.368 . S
C1291 C1272 1.429 . S
C1291 C1285 1.429 . S
C1291 C1292 1.523 . S
C1292 C1273 1.368 . S
C1292 C1286 1.368 . S
C1292 C1291 1.523 . S
C1293 C1277 1.429 . S
C1293 C1289 1.429 . S
C1293 C1294 1.523 . S
C1294 C1278 1.368 . S
C1294 C1290 1.368 . S
C1294 C1293 1.523 . S
H1295 C1270 0.950 . S
H1296 C1272 0.950 . S
H1297 C1273 0.949 . S
H1298 C1275 0.950 . S
H1299 C1277 0.950 . S
C1300 C1301 1.349 . S
C1300 C1302 1.327 . S
C1300 H1325 0.950 . S
C1301 C1300 1.349 . S
C1301 C1317 1.349 . S
C1302 C1300 1.327 . S
C1302 C1321 1.429 . S
C1302 H1326 0.950 . S
C1303 C1320 1.574 . S
C1303 C1322 1.368 . S
C1303 H1327 0.949 . S
H1304 C1308 0.949 . S
C1305 C1306 1.349 . S
C1305 C1307 1.327 . S
C1305 H1328 0.950 . S
C1306 C1305 1.349 . S
C1306 C1318 1.349 . S
C1307 C1305 1.327 . S
C1307 C1323 1.429 . S
C1307 H1329 0.950 . S
C1308 H1304 0.949 . S
C1308 C1316 1.574 . S
C1308 C1324 1.368 . S
H1309 C1317 0.950 . S
H1310 C1315 0.950 . S
H1311 C1316 0.949 . S
H1312 C1318 0.950 . S
H1313 C1319 0.950 . S
H1314 C1320 0.949 . S
C1315 H1310 0.950 . S
C1315 C1317 1.327 . S
C1315 C1321 1.429 . S
C1316 C1308 1.574 . S
C1316 H1311 0.949 . S
C1316 C1322 1.368 . S
C1317 C1301 1.349 . S
C1317 H1309 0.950 . S
C1317 C1315 1.327 . S
C1318 C1306 1.349 . S
C1318 H1312 0.950 . S
C1318 C1319 1.327 . S
C1319 H1313 0.950 . S
C1319 C1318 1.327 . S
C1319 C1323 1.429 . S
C1320 C1303 1.574 . S
C1320 H1314 0.949 . S
C1320 C1324 1.368 . S
C1321 C1302 1.429 . S
C1321 C1315 1.429 . S
C1321 C1322 1.523 . S
C1322 C1303 1.368 . S
C1322 C1316 1.368 . S
C1322 C1321 1.523 . S
C1323 C1307 1.429 . S
C1323 C1319 1.429 . S
C1323 C1324 1.523 . S
C1324 C1308 1.368 . S
C1324 C1320 1.368 . S
C1324 C1323 1.523 . S
H1325 C1300 0.950 . S
H1326 C1302 0.950 . S
H1327 C1303 0.949 . S
H1328 C1305 0.950 . S
H1329 C1307 0.950 . S
C1330 C1331 1.349 . S
C1330 C1332 1.327 . S
C1330 H1355 0.950 . S
C1331 C1330 1.349 . S
C1331 C1347 1.349 . S
C1332 C1330 1.327 . S
C1332 C1351 1.429 . S
C1332 H1356 0.950 . S
C1333 C1350 1.574 . S
C1333 C1352 1.368 . S
C1333 H1357 0.949 . S
H1334 C1338 0.949 . S
C1335 C1336 1.349 . S
C1335 C1337 1.327 . S
C1335 H1358 0.950 . S
C1336 C1335 1.349 . S
C1336 C1348 1.349 . S
C1337 C1335 1.327 . S
C1337 C1353 1.429 . S
C1337 H1359 0.950 . S
C1338 H1334 0.949 . S
C1338 C1346 1.574 . S
C1338 C1354 1.368 . S
H1339 C1347 0.950 . S
H1340 C1345 0.950 . S
H1341 C1346 0.949 . S
H1342 C1348 0.950 . S
H1343 C1349 0.950 . S
H1344 C1350 0.949 . S
C1345 H1340 0.950 . S
C1345 C1347 1.327 . S
C1345 C1351 1.429 . S
C1346 C1338 1.574 . S
C1346 H1341 0.949 . S
C1346 C1352 1.368 . S
C1347 C1331 1.349 . S
C1347 H1339 0.950 . S
C1347 C1345 1.327 . S
C1348 C1336 1.349 . S
C1348 H1342 0.950 . S
C1348 C1349 1.327 . S
C1349 H1343 0.950 . S
C1349 C1348 1.327 . S
C1349 C1353 1.429 . S
C1350 C1333 1.574 . S
C1350 H1344 0.949 . S
C1350 C1354 1.368 . S
C1351 C1332 1.429 . S
C1351 C1345 1.429 . S
C1351 C1352 1.523 . S
C1352 C1333 1.368 . S
C1352 C1346 1.368 . S
C1352 C1351 1.523 . S
C1353 C1337 1.429 . S
C1353 C1349 1.429 . S
C1353 C1354 1.523 . S
C1354 C1338 1.368 . S
C1354 C1350 1.368 . S
C1354 C1353 1.523 . S
H1355 C1330 0.950 . S
H1356 C1332 0.950 . S
H1357 C1333 0.949 . S
H1358 C1335 0.950 . S
H1359 C1337 0.950 . S
C1360 C1361 1.349 . S
C1360 C1362 1.327 . S
C1360 H1385 0.950 . S
C1361 C1360 1.349 . S
C1361 C1377 1.349 . S
C1362 C1360 1.327 . S
C1362 C1381 1.429 . S
C1362 H1386 0.950 . S
C1363 C1380 1.574 . S
C1363 C1382 1.368 . S
C1363 H1387 0.949 . S
H1364 C1368 0.949 . S
C1365 C1366 1.349 . S
C1365 C1367 1.327 1_554 S
C1365 H1388 0.950 . S
C1366 C1365 1.349 . S
C1366 C1378 1.349 1_554 S
C1367 C1365 1.327 1_556 S
C1367 C1383 1.429 . S
C1367 H1389 0.950 . S
C1368 H1364 0.949 . S
C1368 C1376 1.574 . S
C1368 C1384 1.368 . S
H1369 C1377 0.950 . S
H1370 C1375 0.950 . S
H1371 C1376 0.949 . S
H1372 C1378 0.950 . S
H1373 C1379 0.950 . S
H1374 C1380 0.949 . S
C1375 H1370 0.950 . S
C1375 C1377 1.327 . S
C1375 C1381 1.429 . S
C1376 C1368 1.574 . S
C1376 H1371 0.949 . S
C1376 C1382 1.368 . S
C1377 C1361 1.349 . S
C1377 H1369 0.950 . S
C1377 C1375 1.327 . S
C1378 C1366 1.349 1_556 S
C1378 H1372 0.950 . S
C1378 C1379 1.327 . S
C1379 H1373 0.950 . S
C1379 C1378 1.327 . S
C1379 C1383 1.429 . S
C1380 C1363 1.574 . S
C1380 H1374 0.949 . S
C1380 C1384 1.368 . S
C1381 C1362 1.429 . S
C1381 C1375 1.429 . S
C1381 C1382 1.523 . S
C1382 C1363 1.368 . S
C1382 C1376 1.368 . S
C1382 C1381 1.523 . S
C1383 C1367 1.429 . S
C1383 C1379 1.429 . S
C1383 C1384 1.523 . S
C1384 C1368 1.368 . S
C1384 C1380 1.368 . S
C1384 C1383 1.523 . S
H1385 C1360 0.950 . S
H1386 C1362 0.950 . S
H1387 C1363 0.949 . S
H1388 C1365 0.950 . S
H1389 C1367 0.950 . S
C1390 C1391 1.349 . S
C1390 C1392 1.327 1_556 S
C1390 H1415 0.950 . S
C1391 C1390 1.349 . S
C1391 C1407 1.349 1_556 S
C1392 C1390 1.327 1_554 S
C1392 C1411 1.429 . S
C1392 H1416 0.950 . S
C1393 C1410 1.574 . S
C1393 C1412 1.368 . S
C1393 H1417 0.949 . S
H1394 C1398 0.949 . S
C1395 C1396 1.349 . S
C1395 C1397 1.327 . S
C1395 H1418 0.950 . S
C1396 C1395 1.349 . S
C1396 C1408 1.349 . S
C1397 C1395 1.327 . S
C1397 C1413 1.429 . S
C1397 H1419 0.950 . S
C1398 H1394 0.949 . S
C1398 C1406 1.574 . S
C1398 C1414 1.368 . S
H1399 C1407 0.950 . S
H1400 C1405 0.950 . S
H1401 C1406 0.949 . S
H1402 C1408 0.950 . S
H1403 C1409 0.950 . S
H1404 C1410 0.949 . S
C1405 H1400 0.950 . S
C1405 C1407 1.327 . S
C1405 C1411 1.429 . S
C1406 C1398 1.574 . S
C1406 H1401 0.949 . S
C1406 C1412 1.368 . S
C1407 C1391 1.349 1_554 S
C1407 H1399 0.950 . S
C1407 C1405 1.327 . S
C1408 C1396 1.349 . S
C1408 H1402 0.950 . S
C1408 C1409 1.327 . S
C1409 H1403 0.950 . S
C1409 C1408 1.327 . S
C1409 C1413 1.429 . S
C1410 C1393 1.574 . S
C1410 H1404 0.949 . S
C1410 C1414 1.368 . S
C1411 C1392 1.429 . S
C1411 C1405 1.429 . S
C1411 C1412 1.523 . S
C1412 C1393 1.368 . S
C1412 C1406 1.368 . S
C1412 C1411 1.523 . S
C1413 C1397 1.429 . S
C1413 C1409 1.429 . S
C1413 C1414 1.523 . S
C1414 C1398 1.368 . S
C1414 C1410 1.368 . S
C1414 C1413 1.523 . S
H1415 C1390 0.950 . S
H1416 C1392 0.950 . S
H1417 C1393 0.949 . S
H1418 C1395 0.950 . S
H1419 C1397 0.950 . S
C1420 C1421 1.349 1_556 S
C1420 C1422 1.327 . S
C1420 H1445 0.950 . S
C1421 C1420 1.349 1_554 S
C1421 C1437 1.349 . S
C1422 C1420 1.327 . S
C1422 C1441 1.429 . S
C1422 H1446 0.950 . S
C1423 C1440 1.574 . S
C1423 C1442 1.368 . S
C1423 H1447 0.949 . S
H1424 C1428 0.949 . S
C1425 C1426 1.349 . S
C1425 C1427 1.327 . S
C1425 H1448 0.950 . S
C1426 C1425 1.349 . S
C1426 C1438 1.349 . S
C1427 C1425 1.327 . S
C1427 C1443 1.429 . S
C1427 H1449 0.950 . S
C1428 H1424 0.949 . S
C1428 C1436 1.574 . S
C1428 C1444 1.368 . S
H1429 C1437 0.950 . S
H1430 C1435 0.950 . S
H1431 C1436 0.949 . S
H1432 C1438 0.950 . S
H1433 C1439 0.950 . S
H1434 C1440 0.949 . S
C1435 H1430 0.950 . S
C1435 C1437 1.327 1_556 S
C1435 C1441 1.429 . S
C1436 C1428 1.574 . S
C1436 H1431 0.949 . S
C1436 C1442 1.368 . S
C1437 C1421 1.349 . S
C1437 H1429 0.950 . S
C1437 C1435 1.327 1_554 S
C1438 C1426 1.349 . S
C1438 H1432 0.950 . S
C1438 C1439 1.327 . S
C1439 H1433 0.950 . S
C1439 C1438 1.327 . S
C1439 C1443 1.429 . S
C1440 C1423 1.574 . S
C1440 H1434 0.949 . S
C1440 C1444 1.368 . S
C1441 C1422 1.429 . S
C1441 C1435 1.429 . S
C1441 C1442 1.523 . S
C1442 C1423 1.368 . S
C1442 C1436 1.368 . S
C1442 C1441 1.523 . S
C1443 C1427 1.429 . S
C1443 C1439 1.429 . S
C1443 C1444 1.523 . S
C1444 C1428 1.368 . S
C1444 C1440 1.368 . S
C1444 C1443 1.523 . S
H1445 C1420 0.950 . S
H1446 C1422 0.950 . S
H1447 C1423 0.949 . S
H1448 C1425 0.950 . S
H1449 C1427 0.950 . S
C1450 C1451 1.349 1_554 S
C1450 C1452 1.327 . S
C1450 H1475 0.950 1_554 S
C1451 C1450 1.349 1_556 S
C1451 C1467 1.349 . S
C1452 C1450 1.327 . S
C1452 C1471 1.429 . S
C1452 H1476 0.950 . S
C1453 C1470 1.574 . S
C1453 C1472 1.368 . S
C1453 H1477 0.949 . S
H1454 C1458 0.949 . S
C1455 C1456 1.349 . S
C1455 C1457 1.327 . S
C1455 H1478 0.950 . S
C1456 C1455 1.349 . S
C1456 C1468 1.349 . S
C1457 C1455 1.327 . S
C1457 C1473 1.429 . S
C1457 H1479 0.950 . S
C1458 H1454 0.949 . S
C1458 C1466 1.574 . S
C1458 C1474 1.368 . S
H1459 C1467 0.950 . S
H1460 C1465 0.950 . S
H1461 C1466 0.949 . S
H1462 C1468 0.950 . S
H1463 C1469 0.950 . S
H1464 C1470 0.949 . S
C1465 H1460 0.950 . S
C1465 C1467 1.327 1_554 S
C1465 C1471 1.429 . S
C1466 C1458 1.574 . S
C1466 H1461 0.949 . S
C1466 C1472 1.368 . S
C1467 C1451 1.349 . S
C1467 H1459 0.950 . S
C1467 C1465 1.327 1_556 S
C1468 C1456 1.349 . S
C1468 H1462 0.950 . S
C1468 C1469 1.327 . S
C1469 H1463 0.950 . S
C1469 C1468 1.327 . S
C1469 C1473 1.429 . S
C1470 C1453 1.574 . S
C1470 H1464 0.949 . S
C1470 C1474 1.368 . S
C1471 C1452 1.429 . S
C1471 C1465 1.429 . S
C1471 C1472 1.523 . S
C1472 C1453 1.368 . S
C1472 C1466 1.368 . S
C1472 C1471 1.523 . S
C1473 C1457 1.429 . S
C1473 C1469 1.429 . S
C1473 C1474 1.523 . S
C1474 C1458 1.368 . S
C1474 C1470 1.368 . S
C1474 C1473 1.523 . S
H1475 C1450 0.950 1_556 S
H1476 C1452 0.950 . S
H1477 C1453 0.949 . S
H1478 C1455 0.950 . S
H1479 C1457 0.950 . S
C1480 C1481 1.349 . S
C1480 C1482 1.327 . S
C1480 H1505 0.950 . S
C1481 C1480 1.349 . S
C1481 C1497 1.349 . S
C1482 C1480 1.327 . S
C1482 C1501 1.429 . S
C1482 H1506 0.950 . S
C1483 C1500 1.574 . S
C1483 C1502 1.368 . S
C1483 H1507 0.949 . S
H1484 C1488 0.949 . S
C1485 C1486 1.349 . S
C1485 C1487 1.327 . S
C1485 H1508 0.950 . S
C1486 C1485 1.349 . S
C1486 C1498 1.349 . S
C1487 C1485 1.327 . S
C1487 C1503 1.429 . S
C1487 H1509 0.950 . S
C1488 H1484 0.949 . S
C1488 C1496 1.574 . S
C1488 C1504 1.368 . S
H1489 C1497 0.950 . S
H1490 C1495 0.950 . S
H1491 C1496 0.949 . S
H1492 C1498 0.950 . S
H1493 C1499 0.950 . S
H1494 C1500 0.949 . S
C1495 H1490 0.950 . S
C1495 C1497 1.327 . S
C1495 C1501 1.429 . S
C1496 C1488 1.574 . S
C1496 H1491 0.949 . S
C1496 C1502 1.368 . S
C1497 C1481 1.349 . S
C1497 H1489 0.950 . S
C1497 C1495 1.327 . S
C1498 C1486 1.349 . S
C1498 H1492 0.950 . S
C1498 C1499 1.327 . S
C1499 H1493 0.950 . S
C1499 C1498 1.327 . S
C1499 C1503 1.429 . S
C1500 C1483 1.574 . S
C1500 H1494 0.949 . S
C1500 C1504 1.368 . S
C1501 C1482 1.429 . S
C1501 C1495 1.429 . S
C1501 C1502 1.523 . S
C1502 C1483 1.368 . S
C1502 C1496 1.368 . S
C1502 C1501 1.523 . S
C1503 C1487 1.429 . S
C1503 C1499 1.429 . S
C1503 C1504 1.523 . S
C1504 C1488 1.368 . S
C1504 C1500 1.368 . S
C1504 C1503 1.523 . S
H1505 C1480 0.950 . S
H1506 C1482 0.950 . S
H1507 C1483 0.949 . S
H1508 C1485 0.950 . S
H1509 C1487 0.950 . S
C1510 C1511 1.349 . S
C1510 C1512 1.327 . S
C1510 H1535 0.950 . S
C1511 C1510 1.349 . S
C1511 C1527 1.349 . S
C1512 C1510 1.327 . S
C1512 C1531 1.429 . S
C1512 H1536 0.950 . S
C1513 C1530 1.574 . S
C1513 C1532 1.368 . S
C1513 H1537 0.949 . S
H1514 C1518 0.949 . S
C1515 C1516 1.349 . S
C1515 C1517 1.327 . S
C1515 H1538 0.950 . S
C1516 C1515 1.349 . S
C1516 C1528 1.349 . S
C1517 C1515 1.327 . S
C1517 C1533 1.429 . S
C1517 H1539 0.950 . S
C1518 H1514 0.949 . S
C1518 C1526 1.574 . S
C1518 C1534 1.368 . S
H1519 C1527 0.950 . S
H1520 C1525 0.950 . S
H1521 C1526 0.949 . S
H1522 C1528 0.950 . S
H1523 C1529 0.950 . S
H1524 C1530 0.949 . S
C1525 H1520 0.950 . S
C1525 C1527 1.327 . S
C1525 C1531 1.429 . S
C1526 C1518 1.574 . S
C1526 H1521 0.949 . S
C1526 C1532 1.368 . S
C1527 C1511 1.349 . S
C1527 H1519 0.950 . S
C1527 C1525 1.327 . S
C1528 C1516 1.349 . S
C1528 H1522 0.950 . S
C1528 C1529 1.327 . S
C1529 H1523 0.950 . S
C1529 C1528 1.327 . S
C1529 C1533 1.429 . S
C1530 C1513 1.574 . S
C1530 H1524 0.949 . S
C1530 C1534 1.368 . S
C1531 C1512 1.429 . S
C1531 C1525 1.429 . S
C1531 C1532 1.523 . S
C1532 C1513 1.368 . S
C1532 C1526 1.368 . S
C1532 C1531 1.523 . S
C1533 C1517 1.429 . S
C1533 C1529 1.429 . S
C1533 C1534 1.523 . S
C1534 C1518 1.368 . S
C1534 C1530 1.368 . S
C1534 C1533 1.523 . S
H1535 C1510 0.950 . S
H1536 C1512 0.950 . S
H1537 C1513 0.949 . S
H1538 C1515 0.950 . S
H1539 C1517 0.950 . S
C1540 C1541 1.349 . S
C1540 C1542 1.327 . S
C1540 H1565 0.950 . S
C1541 C1540 1.349 . S
C1541 C1557 1.349 . S
C1542 C1540 1.327 . S
C1542 C1561 1.429 . S
C1542 H1566 0.950 . S
C1543 C1560 1.574 . S
C1543 C1562 1.368 . S
C1543 H1567 0.949 . S
H1544 C1548 0.949 . S
C1545 C1546 1.349 . S
C1545 C1547 1.327 . S
C1545 H1568 0.950 . S
C1546 C1545 1.349 . S
C1546 C1558 1.349 . S
C1547 C1545 1.327 . S
C1547 C1563 1.429 . S
C1547 H1569 0.950 . S
C1548 H1544 0.949 . S
C1548 C1556 1.574 . S
C1548 C1564 1.368 . S
H1549 C1557 0.950 . S
H1550 C1555 0.950 . S
H1551 C1556 0.949 . S
H1552 C1558 0.950 . S
H1553 C1559 0.950 . S
H1554 C1560 0.949 . S
C1555 H1550 0.950 . S
C1555 C1557 1.327 . S
C1555 C1561 1.429 . S
C1556 C1548 1.574 . S
C1556 H1551 0.949 . S
C1556 C1562 1.368 . S
C1557 C1541 1.349 . S
C1557 H1549 0.950 . S
C1557 C1555 1.327 . S
C1558 C1546 1.349 . S
C1558 H1552 0.950 . S
C1558 C1559 1.327 . S
C1559 H1553 0.950 . S
C1559 C1558 1.327 . S
C1559 C1563 1.429 . S
C1560 C1543 1.574 . S
C1560 H1554 0.949 . S
C1560 C1564 1.368 . S
C1561 C1542 1.429 . S
C1561 C1555 1.429 . S
C1561 C1562 1.523 . S
C1562 C1543 1.368 . S
C1562 C1556 1.368 . S
C1562 C1561 1.523 . S
C1563 C1547 1.429 . S
C1563 C1559 1.429 . S
C1563 C1564 1.523 . S
C1564 C1548 1.368 . S
C1564 C1560 1.368 . S
C1564 C1563 1.523 . S
H1565 C1540 0.950 . S
H1566 C1542 0.950 . S
H1567 C1543 0.949 . S
H1568 C1545 0.950 . S
H1569 C1547 0.950 . S
C1570 C1571 1.349 . S
C1570 C1572 1.327 . S
C1570 H1595 0.950 . S
C1571 C1570 1.349 . S
C1571 C1587 1.349 . S
C1572 C1570 1.327 . S
C1572 C1591 1.429 . S
C1572 H1596 0.950 . S
C1573 C1590 1.574 . S
C1573 C1592 1.368 . S
C1573 H1597 0.949 . S
H1574 C1578 0.949 . S
C1575 C1576 1.349 . S
C1575 C1577 1.327 . S
C1575 H1598 0.950 . S
C1576 C1575 1.349 . S
C1576 C1588 1.349 . S
C1577 C1575 1.327 . S
C1577 C1593 1.429 . S
C1577 H1599 0.950 . S
C1578 H1574 0.949 . S
C1578 C1586 1.574 . S
C1578 C1594 1.368 . S
H1579 C1587 0.950 . S
H1580 C1585 0.950 . S
H1581 C1586 0.949 . S
H1582 C1588 0.950 . S
H1583 C1589 0.950 . S
H1584 C1590 0.949 . S
C1585 H1580 0.950 . S
C1585 C1587 1.327 . S
C1585 C1591 1.429 . S
C1586 C1578 1.574 . S
C1586 H1581 0.949 . S
C1586 C1592 1.368 . S
C1587 C1571 1.349 . S
C1587 H1579 0.950 . S
C1587 C1585 1.327 . S
C1588 C1576 1.349 . S
C1588 H1582 0.950 . S
C1588 C1589 1.327 . S
C1589 H1583 0.950 . S
C1589 C1588 1.327 . S
C1589 C1593 1.429 . S
C1590 C1573 1.574 . S
C1590 H1584 0.949 . S
C1590 C1594 1.368 . S
C1591 C1572 1.429 . S
C1591 C1585 1.429 . S
C1591 C1592 1.523 . S
C1592 C1573 1.368 . S
C1592 C1586 1.368 . S
C1592 C1591 1.523 . S
C1593 C1577 1.429 . S
C1593 C1589 1.429 . S
C1593 C1594 1.523 . S
C1594 C1578 1.368 . S
C1594 C1590 1.368 . S
C1594 C1593 1.523 . S
H1595 C1570 0.950 . S
H1596 C1572 0.950 . S
H1597 C1573 0.949 . S
H1598 C1575 0.950 . S
H1599 C1577 0.950 . S
C1600 C1601 1.349 . S
C1600 C1602 1.327 . S
C1600 H1625 0.950 . S
C1601 C1600 1.349 . S
C1601 C1617 1.349 . S
C1602 C1600 1.327 . S
C1602 C1621 1.429 . S
C1602 H1626 0.950 . S
C1603 C1620 1.574 . S
C1603 C1622 1.368 . S
C1603 H1627 0.949 . S
H1604 C1608 0.949 . S
C1605 C1606 1.349 . S
C1605 C1607 1.327 . S
C1605 H1628 0.950 . S
C1606 C1605 1.349 . S
C1606 C1618 1.349 . S
C1607 C1605 1.327 . S
C1607 C1623 1.429 . S
C1607 H1629 0.950 . S
C1608 H1604 0.949 . S
C1608 C1616 1.574 . S
C1608 C1624 1.368 . S
H1609 C1617 0.950 . S
H1610 C1615 0.950 . S
H1611 C1616 0.949 . S
H1612 C1618 0.950 . S
H1613 C1619 0.950 . S
H1614 C1620 0.949 . S
C1615 H1610 0.950 . S
C1615 C1617 1.327 . S
C1615 C1621 1.429 . S
C1616 C1608 1.574 . S
C1616 H1611 0.949 . S
C1616 C1622 1.368 . S
C1617 C1601 1.349 . S
C1617 H1609 0.950 . S
C1617 C1615 1.327 . S
C1618 C1606 1.349 . S
C1618 H1612 0.950 . S
C1618 C1619 1.327 . S
C1619 H1613 0.950 . S
C1619 C1618 1.327 . S
C1619 C1623 1.429 . S
C1620 C1603 1.574 . S
C1620 H1614 0.949 . S
C1620 C1624 1.368 . S
C1621 C1602 1.429 . S
C1621 C1615 1.429 . S
C1621 C1622 1.523 . S
C1622 C1603 1.368 . S
C1622 C1616 1.368 . S
C1622 C1621 1.523 . S
C1623 C1607 1.429 . S
C1623 C1619 1.429 . S
C1623 C1624 1.523 . S
C1624 C1608 1.368 . S
C1624 C1620 1.368 . S
C1624 C1623 1.523 . S
H1625 C1600 0.950 . S
H1626 C1602 0.950 . S
H1627 C1603 0.949 . S
H1628 C1605 0.950 . S
H1629 C1607 0.950 . S
C1630 C1631 1.349 . S
C1630 C1632 1.327 . S
C1630 H1655 0.950 . S
C1631 C1630 1.349 . S
C1631 C1647 1.349 . S
C1632 C1630 1.327 . S
C1632 C1651 1.429 . S
C1632 H1656 0.950 . S
C1633 C1650 1.574 . S
C1633 C1652 1.368 . S
C1633 H1657 0.949 . S
H1634 C1638 0.949 . S
C1635 C1636 1.349 . S
C1635 C1637 1.327 . S
C1635 H1658 0.950 . S
C1636 C1635 1.349 . S
C1636 C1648 1.349 . S
C1637 C1635 1.327 . S
C1637 C1653 1.429 . S
C1637 H1659 0.950 . S
C1638 H1634 0.949 . S
C1638 C1646 1.574 . S
C1638 C1654 1.368 . S
H1639 C1647 0.950 . S
H1640 C1645 0.950 . S
H1641 C1646 0.949 . S
H1642 C1648 0.950 . S
H1643 C1649 0.950 . S
H1644 C1650 0.949 . S
C1645 H1640 0.950 . S
C1645 C1647 1.327 . S
C1645 C1651 1.429 . S
C1646 C1638 1.574 . S
C1646 H1641 0.949 . S
C1646 C1652 1.368 . S
C1647 C1631 1.349 . S
C1647 H1639 0.950 . S
C1647 C1645 1.327 . S
C1648 C1636 1.349 . S
C1648 H1642 0.950 . S
C1648 C1649 1.327 . S
C1649 H1643 0.950 . S
C1649 C1648 1.327 . S
C1649 C1653 1.429 . S
C1650 C1633 1.574 . S
C1650 H1644 0.949 . S
C1650 C1654 1.368 . S
C1651 C1632 1.429 . S
C1651 C1645 1.429 . S
C1651 C1652 1.523 . S
C1652 C1633 1.368 . S
C1652 C1646 1.368 . S
C1652 C1651 1.523 . S
C1653 C1637 1.429 . S
C1653 C1649 1.429 . S
C1653 C1654 1.523 . S
C1654 C1638 1.368 . S
C1654 C1650 1.368 . S
C1654 C1653 1.523 . S
H1655 C1630 0.950 . S
H1656 C1632 0.950 . S
H1657 C1633 0.949 . S
H1658 C1635 0.950 . S
H1659 C1637 0.950 . S
C1660 C1661 1.349 . S
C1660 C1662 1.327 . S
C1660 H1685 0.950 . S
C1661 C1660 1.349 . S
C1661 C1677 1.349 . S
C1662 C1660 1.327 . S
C1662 C1681 1.429 . S
C1662 H1686 0.950 . S
C1663 C1680 1.574 . S
C1663 C1682 1.368 . S
C1663 H1687 0.949 . S
H1664 C1668 0.949 . S
C1665 C1666 1.349 . S
C1665 C1667 1.327 . S
C1665 H1688 0.950 . S
C1666 C1665 1.349 . S
C1666 C1678 1.349 . S
C1667 C1665 1.327 . S
C1667 C1683 1.429 . S
C1667 H1689 0.950 . S
C1668 H1664 0.949 . S
C1668 C1676 1.574 . S
C1668 C1684 1.368 . S
H1669 C1677 0.950 . S
H1670 C1675 0.950 . S
H1671 C1676 0.949 . S
H1672 C1678 0.950 . S
H1673 C1679 0.950 . S
H1674 C1680 0.949 . S
C1675 H1670 0.950 . S
C1675 C1677 1.327 . S
C1675 C1681 1.429 . S
C1676 C1668 1.574 . S
C1676 H1671 0.949 . S
C1676 C1682 1.368 . S
C1677 C1661 1.349 . S
C1677 H1669 0.950 . S
C1677 C1675 1.327 . S
C1678 C1666 1.349 . S
C1678 H1672 0.950 . S
C1678 C1679 1.327 . S
C1679 H1673 0.950 . S
C1679 C1678 1.327 . S
C1679 C1683 1.429 . S
C1680 C1663 1.574 . S
C1680 H1674 0.949 . S
C1680 C1684 1.368 . S
C1681 C1662 1.429 . S
C1681 C1675 1.429 . S
C1681 C1682 1.523 . S
C1682 C1663 1.368 . S
C1682 C1676 1.368 . S
C1682 C1681 1.523 . S
C1683 C1667 1.429 . S
C1683 C1679 1.429 . S
C1683 C1684 1.523 . S
C1684 C1668 1.368 . S
C1684 C1680 1.368 . S
C1684 C1683 1.523 . S
H1685 C1660 0.950 . S
H1686 C1662 0.950 . S
H1687 C1663 0.949 . S
H1688 C1665 0.950 . S
H1689 C1667 0.950 . S
C1690 C1691 1.349 . S
C1690 C1692 1.327 . S
C1690 H1715 0.950 . S
C1691 C1690 1.349 . S
C1691 C1707 1.349 . S
C1692 C1690 1.327 . S
C1692 C1711 1.429 . S
C1692 H1716 0.950 . S
C1693 C1710 1.574 . S
C1693 C1712 1.368 . S
C1693 H1717 0.949 . S
H1694 C1698 0.949 . S
C1695 C1696 1.349 . S
C1695 C1697 1.327 . S
C1695 H1718 0.950 . S
C1696 C1695 1.349 . S
C1696 C1708 1.349 . S
C1697 C1695 1.327 . S
C1697 C1713 1.429 . S
C1697 H1719 0.950 . S
C1698 H1694 0.949 . S
C1698 C1706 1.574 . S
C1698 C1714 1.368 . S
H1699 C1707 0.950 . S
H1700 C1705 0.950 . S
H1701 C1706 0.949 . S
H1702 C1708 0.950 . S
H1703 C1709 0.950 . S
H1704 C1710 0.949 . S
C1705 H1700 0.950 . S
C1705 C1707 1.327 . S
C1705 C1711 1.429 . S
C1706 C1698 1.574 . S
C1706 H1701 0.949 . S
C1706 C1712 1.368 . S
C1707 C1691 1.349 . S
C1707 H1699 0.950 . S
C1707 C1705 1.327 . S
C1708 C1696 1.349 . S
C1708 H1702 0.950 . S
C1708 C1709 1.327 . S
C1709 H1703 0.950 . S
C1709 C1708 1.327 . S
C1709 C1713 1.429 . S
C1710 C1693 1.574 . S
C1710 H1704 0.949 . S
C1710 C1714 1.368 . S
C1711 C1692 1.429 . S
C1711 C1705 1.429 . S
C1711 C1712 1.523 . S
C1712 C1693 1.368 . S
C1712 C1706 1.368 . S
C1712 C1711 1.523 . S
C1713 C1697 1.429 . S
C1713 C1709 1.429 . S
C1713 C1714 1.523 . S
C1714 C1698 1.368 . S
C1714 C1710 1.368 . S
C1714 C1713 1.523 . S
H1715 C1690 0.950 . S
H1716 C1692 0.950 . S
H1717 C1693 0.949 . S
H1718 C1695 0.950 . S
H1719 C1697 0.950 . S
C1720 C1721 1.349 . S
C1720 C1722 1.327 . S
C1720 H1745 0.950 . S
C1721 C1720 1.349 . S
C1721 C1737 1.349 . S
C1722 C1720 1.327 . S
C1722 C1741 1.429 . S
C1722 H1746 0.950 . S
C1723 C1740 1.574 . S
C1723 C1742 1.368 . S
C1723 H1747 0.949 . S
H1724 C1728 0.949 . S
C1725 C1726 1.349 . S
C1725 C1727 1.327 . S
C1725 H1748 0.950 . S
C1726 C1725 1.349 . S
C1726 C1738 1.349 . S
C1727 C1725 1.327 . S
C1727 C1743 1.429 . S
C1727 H1749 0.950 . S
C1728 H1724 0.949 . S
C1728 C1736 1.574 . S
C1728 C1744 1.368 . S
H1729 C1737 0.950 . S
H1730 C1735 0.950 . S
H1731 C1736 0.949 . S
H1732 C1738 0.950 . S
H1733 C1739 0.950 . S
H1734 C1740 0.949 . S
C1735 H1730 0.950 . S
C1735 C1737 1.327 . S
C1735 C1741 1.429 . S
C1736 C1728 1.574 . S
C1736 H1731 0.949 . S
C1736 C1742 1.368 . S
C1737 C1721 1.349 . S
C1737 H1729 0.950 . S
C1737 C1735 1.327 . S
C1738 C1726 1.349 . S
C1738 H1732 0.950 . S
C1738 C1739 1.327 . S
C1739 H1733 0.950 . S
C1739 C1738 1.327 . S
C1739 C1743 1.429 . S
C1740 C1723 1.574 . S
C1740 H1734 0.949 . S
C1740 C1744 1.368 . S
C1741 C1722 1.429 . S
C1741 C1735 1.429 . S
C1741 C1742 1.523 . S
C1742 C1723 1.368 . S
C1742 C1736 1.368 . S
C1742 C1741 1.523 . S
C1743 C1727 1.429 . S
C1743 C1739 1.429 . S
C1743 C1744 1.523 . S
C1744 C1728 1.368 . S
C1744 C1740 1.368 . S
C1744 C1743 1.523 . S
H1745 C1720 0.950 . S
H1746 C1722 0.950 . S
H1747 C1723 0.949 . S
H1748 C1725 0.950 . S
H1749 C1727 0.950 . S
C1750 C1751 1.349 . S
C1750 C1752 1.327 . S
C1750 H1775 0.950 . S
C1751 C1750 1.349 . S
C1751 C1767 1.349 . S
C1752 C1750 1.327 . S
C1752 C1771 1.429 . S
C1752 H1776 0.950 . S
C1753 C1770 1.574 . S
C1753 C1772 1.368 . S
C1753 H1777 0.949 . S
H1754 C1758 0.949 . S
C1755 C1756 1.349 . S
C1755 C1757 1.327 . S
C1755 H1778 0.950 . S
C1756 C1755 1.349 . S
C1756 C1768 1.349 . S
C1757 C1755 1.327 . S
C1757 C1773 1.429 . S
C1757 H1779 0.950 . S
C1758 H1754 0.949 . S
C1758 C1766 1.574 . S
C1758 C1774 1.368 . S
H1759 C1767 0.950 . S
H1760 C1765 0.950 . S
H1761 C1766 0.949 . S
H1762 C1768 0.950 . S
H1763 C1769 0.950 . S
H1764 C1770 0.949 . S
C1765 H1760 0.950 . S
C1765 C1767 1.327 . S
C1765 C1771 1.429 . S
C1766 C1758 1.574 . S
C1766 H1761 0.949 . S
C1766 C1772 1.368 . S
C1767 C1751 1.349 . S
C1767 H1759 0.950 . S
C1767 C1765 1.327 . S
C1768 C1756 1.349 . S
C1768 H1762 0.950 . S
C1768 C1769 1.327 . S
C1769 H1763 0.950 . S
C1769 C1768 1.327 . S
C1769 C1773 1.429 . S
C1770 C1753 1.574 . S
C1770 H1764 0.949 . S
C1770 C1774 1.368 . S
C1771 C1752 1.429 . S
C1771 C1765 1.429 . S
C1771 C1772 1.523 . S
C1772 C1753 1.368 . S
C1772 C1766 1.368 . S
C1772 C1771 1.523 . S
C1773 C1757 1.429 . S
C1773 C1769 1.429 . S
C1773 C1774 1.523 . S
C1774 C1758 1.368 . S
C1774 C1770 1.368 . S
C1774 C1773 1.523 . S
H1775 C1750 0.950 . S
H1776 C1752 0.950 . S
H1777 C1753 0.949 . S
H1778 C1755 0.950 . S
H1779 C1757 0.950 . S
C1780 C1781 1.349 . S
C1780 C1782 1.327 . S
C1780 H1805 0.950 . S
C1781 C1780 1.349 . S
C1781 C1797 1.349 . S
C1782 C1780 1.327 . S
C1782 C1801 1.429 . S
C1782 H1806 0.950 . S
C1783 C1800 1.574 . S
C1783 C1802 1.368 . S
C1783 H1807 0.949 . S
H1784 C1788 0.949 . S
C1785 C1786 1.349 . S
C1785 C1787 1.327 . S
C1785 H1808 0.950 . S
C1786 C1785 1.349 . S
C1786 C1798 1.349 . S
C1787 C1785 1.327 . S
C1787 C1803 1.429 . S
C1787 H1809 0.950 . S
C1788 H1784 0.949 . S
C1788 C1796 1.574 . S
C1788 C1804 1.368 . S
H1789 C1797 0.950 . S
H1790 C1795 0.950 . S
H1791 C1796 0.949 . S
H1792 C1798 0.950 . S
H1793 C1799 0.950 . S
H1794 C1800 0.949 . S
C1795 H1790 0.950 . S
C1795 C1797 1.327 . S
C1795 C1801 1.429 . S
C1796 C1788 1.574 . S
C1796 H1791 0.949 . S
C1796 C1802 1.368 . S
C1797 C1781 1.349 . S
C1797 H1789 0.950 . S
C1797 C1795 1.327 . S
C1798 C1786 1.349 . S
C1798 H1792 0.950 . S
C1798 C1799 1.327 . S
C1799 H1793 0.950 . S
C1799 C1798 1.327 . S
C1799 C1803 1.429 . S
C1800 C1783 1.574 . S
C1800 H1794 0.949 . S
C1800 C1804 1.368 . S
C1801 C1782 1.429 . S
C1801 C1795 1.429 . S
C1801 C1802 1.523 . S
C1802 C1783 1.368 . S
C1802 C1796 1.368 . S
C1802 C1801 1.523 . S
C1803 C1787 1.429 . S
C1803 C1799 1.429 . S
C1803 C1804 1.523 . S
C1804 C1788 1.368 . S
C1804 C1800 1.368 . S
C1804 C1803 1.523 . S
H1805 C1780 0.950 . S
H1806 C1782 0.950 . S
H1807 C1783 0.949 . S
H1808 C1785 0.950 . S
H1809 C1787 0.950 . S
C1810 C1811 1.349 . S
C1810 C1812 1.327 . S
C1810 H1835 0.950 . S
C1811 C1810 1.349 . S
C1811 C1827 1.349 . S
C1812 C1810 1.327 . S
C1812 C1831 1.429 . S
C1812 H1836 0.950 . S
C1813 C1830 1.574 . S
C1813 C1832 1.368 . S
C1813 H1837 0.949 . S
H1814 C1818 0.949 . S
C1815 C1816 1.349 . S
C1815 C1817 1.327 . S
C1815 H1838 0.950 . S
C1816 C1815 1.349 . S
C1816 C1828 1.349 . S
C1817 C1815 1.327 . S
C1817 C1833 1.429 . S
C1817 H1839 0.950 . S
C1818 H1814 0.949 . S
C1818 C1826 1.574 . S
C1818 C1834 1.368 . S
H1819 C1827 0.950 . S
H1820 C1825 0.950 . S
H1821 C1826 0.949 . S
H1822 C1828 0.950 . S
H1823 C1829 0.950 . S
H1824 C1830 0.949 . S
C1825 H1820 0.950 . S
C1825 C1827 1.327 . S
C1825 C1831 1.429 . S
C1826 C1818 1.574 . S
C1826 H1821 0.949 . S
C1826 C1832 1.368 . S
C1827 C1811 1.349 . S
C1827 H1819 0.950 . S
C1827 C1825 1.327 . S
C1828 C1816 1.349 . S
C1828 H1822 0.950 . S
C1828 C1829 1.327 . S
C1829 H1823 0.950 . S
C1829 C1828 1.327 . S
C1829 C1833 1.429 . S
C1830 C1813 1.574 . S
C1830 H1824 0.949 . S
C1830 C1834 1.368 . S
C1831 C1812 1.429 . S
C1831 C1825 1.429 . S
C1831 C1832 1.523 . S
C1832 C1813 1.368 . S
C1832 C1826 1.368 . S
C1832 C1831 1.523 . S
C1833 C1817 1.429 . S
C1833 C1829 1.429 . S
C1833 C1834 1.523 . S
C1834 C1818 1.368 . S
C1834 C1830 1.368 . S
C1834 C1833 1.523 . S
H1835 C1810 0.950 . S
H1836 C1812 0.950 . S
H1837 C1813 0.949 . S
H1838 C1815 0.950 . S
H1839 C1817 0.950 . S
C1840 C1841 1.349 . S
C1840 C1842 1.327 1_556 S
C1840 H1865 0.950 . S
C1841 C1840 1.349 . S
C1841 C1857 1.349 . S
C1842 C1840 1.327 1_554 S
C1842 C1861 1.429 . S
C1842 H1866 0.950 . S
C1843 C1860 1.574 . S
C1843 C1862 1.368 . S
C1843 H1867 0.949 . S
H1844 C1848 0.949 . S
C1845 C1846 1.349 . S
C1845 C1847 1.327 . S
C1845 H1868 0.950 . S
C1846 C1845 1.349 . S
C1846 C1858 1.349 . S
C1847 C1845 1.327 . S
C1847 C1863 1.429 . S
C1847 H1869 0.950 . S
C1848 H1844 0.949 . S
C1848 C1856 1.574 . S
C1848 C1864 1.368 . S
H1849 C1857 0.950 . S
H1850 C1855 0.950 . S
H1851 C1856 0.949 . S
H1852 C1858 0.950 . S
H1853 C1859 0.950 . S
H1854 C1860 0.949 . S
C1855 H1850 0.950 . S
C1855 C1857 1.327 1_554 S
C1855 C1861 1.429 . S
C1856 C1848 1.574 . S
C1856 H1851 0.949 . S
C1856 C1862 1.368 . S
C1857 C1841 1.349 . S
C1857 H1849 0.950 . S
C1857 C1855 1.327 1_556 S
C1858 C1846 1.349 . S
C1858 H1852 0.950 . S
C1858 C1859 1.327 . S
C1859 H1853 0.950 . S
C1859 C1858 1.327 . S
C1859 C1863 1.429 . S
C1860 C1843 1.574 . S
C1860 H1854 0.949 . S
C1860 C1864 1.368 . S
C1861 C1842 1.429 . S
C1861 C1855 1.429 . S
C1861 C1862 1.523 . S
C1862 C1843 1.368 . S
C1862 C1856 1.368 . S
C1862 C1861 1.523 . S
C1863 C1847 1.429 . S
C1863 C1859 1.429 . S
C1863 C1864 1.523 . S
C1864 C1848 1.368 . S
C1864 C1860 1.368 . S
C1864 C1863 1.523 . S
H1865 C1840 0.950 . S
H1866 C1842 0.950 . S
H1867 C1843 0.949 . S
H1868 C1845 0.950 . S
H1869 C1847 0.950 . S
C1870 C1871 1.349 . S
C1870 C1872 1.327 . S
C1870 H1895 0.950 . S
C1871 C1870 1.349 . S
C1871 C1887 1.349 . S
C1872 C1870 1.327 . S
C1872 C1891 1.429 . S
C1872 H1896 0.950 . S
C1873 C1890 1.574 . S
C1873 C1892 1.368 . S
C1873 H1897 0.949 . S
H1874 C1878 0.949 . S
C1875 C1876 1.349 . S
C1875 C1877 1.327 1_554 S
C1875 H1898 0.950 . S
C1876 C1875 1.349 . S
C1876 C1888 1.349 . S
C1877 C1875 1.327 1_556 S
C1877 C1893 1.429 . S
C1877 H1899 0.950 . S
C1878 H1874 0.949 . S
C1878 C1886 1.574 . S
C1878 C1894 1.368 . S
H1879 C1887 0.950 . S
H1880 C1885 0.950 . S
H1881 C1886 0.949 . S
H1882 C1888 0.950 . S
H1883 C1889 0.950 . S
H1884 C1890 0.949 . S
C1885 H1880 0.950 . S
C1885 C1887 1.327 . S
C1885 C1891 1.429 . S
C1886 C1878 1.574 . S
C1886 H1881 0.949 . S
C1886 C1892 1.368 . S
C1887 C1871 1.349 . S
C1887 H1879 0.950 . S
C1887 C1885 1.327 . S
C1888 C1876 1.349 . S
C1888 H1882 0.950 . S
C1888 C1889 1.327 1_554 S
C1889 H1883 0.950 . S
C1889 C1888 1.327 1_556 S
C1889 C1893 1.429 . S
C1890 C1873 1.574 . S
C1890 H1884 0.949 . S
C1890 C1894 1.368 . S
C1891 C1872 1.429 . S
C1891 C1885 1.429 . S
C1891 C1892 1.523 . S
C1892 C1873 1.368 . S
C1892 C1886 1.368 . S
C1892 C1891 1.523 . S
C1893 C1877 1.429 . S
C1893 C1889 1.429 . S
C1893 C1894 1.523 . S
C1894 C1878 1.368 . S
C1894 C1890 1.368 . S
C1894 C1893 1.523 . S
H1895 C1870 0.950 . S
H1896 C1872 0.950 . S
H1897 C1873 0.949 . S
H1898 C1875 0.950 . S
H1899 C1877 0.950 . S
C1900 C1901 1.349 . S
C1900 C1902 1.327 . S
C1900 H1925 0.950 . S
C1901 C1900 1.349 . S
C1901 C1917 1.349 . S
C1902 C1900 1.327 . S
C1902 C1921 1.429 . S
C1902 H1926 0.950 . S
C1903 C1920 1.574 . S
C1903 C1922 1.368 . S
C1903 H1927 0.949 . S
H1904 C1908 0.949 . S
C1905 C1906 1.349 . S
C1905 C1907 1.327 1_556 S
C1905 H1928 0.950 . S
C1906 C1905 1.349 . S
C1906 C1918 1.349 . S
C1907 C1905 1.327 1_554 S
C1907 C1923 1.429 . S
C1907 H1929 0.950 . S
C1908 H1904 0.949 . S
C1908 C1916 1.574 . S
C1908 C1924 1.368 . S
H1909 C1917 0.950 . S
H1910 C1915 0.950 . S
H1911 C1916 0.949 . S
H1912 C1918 0.950 . S
H1913 C1919 0.950 . S
H1914 C1920 0.949 . S
C1915 H1910 0.950 . S
C1915 C1917 1.327 . S
C1915 C1921 1.429 . S
C1916 C1908 1.574 . S
C1916 H1911 0.949 . S
C1916 C1922 1.368 . S
C1917 C1901 1.349 . S
C1917 H1909 0.950 . S
C1917 C1915 1.327 . S
C1918 C1906 1.349 . S
C1918 H1912 0.950 . S
C1918 C1919 1.327 1_556 S
C1919 H1913 0.950 . S
C1919 C1918 1.327 1_554 S
C1919 C1923 1.429 . S
C1920 C1903 1.574 . S
C1920 H1914 0.949 . S
C1920 C1924 1.368 . S
C1921 C1902 1.429 . S
C1921 C1915 1.429 . S
C1921 C1922 1.523 . S
C1922 C1903 1.368 . S
C1922 C1916 1.368 . S
C1922 C1921 1.523 . S
C1923 C1907 1.429 . S
C1923 C1919 1.429 . S
C1923 C1924 1.523 . S
C1924 C1908 1.368 . S
C1924 C1920 1.368 . S
C1924 C1923 1.523 . S
H1925 C1900 0.950 . S
H1926 C1902 0.950 . S
H1927 C1903 0.949 . S
H1928 C1905 0.950 . S
H1929 C1907 0.950 . S
C1930 C1931 1.349 . S
C1930 C1932 1.327 1_554 S
C1930 H1955 0.950 . S
C1931 C1930 1.349 . S
C1931 C1947 1.349 . S
C1932 C1930 1.327 1_556 S
C1932 C1951 1.429 . S
C1932 H1956 0.950 . S
C1933 C1950 1.574 . S
C1933 C1952 1.368 . S
C1933 H1957 0.949 . S
H1934 C1938 0.949 . S
C1935 C1936 1.349 . S
C1935 C1937 1.327 . S
C1935 H1958 0.950 . S
C1936 C1935 1.349 . S
C1936 C1948 1.349 . S
C1937 C1935 1.327 . S
C1937 C1953 1.429 . S
C1937 H1959 0.950 . S
C1938 H1934 0.949 . S
C1938 C1946 1.574 . S
C1938 C1954 1.368 . S
H1939 C1947 0.950 . S
H1940 C1945 0.950 . S
H1941 C1946 0.949 . S
H1942 C1948 0.950 . S
H1943 C1949 0.950 . S
H1944 C1950 0.949 . S
C1945 H1940 0.950 . S
C1945 C1947 1.327 1_556 S
C1945 C1951 1.429 . S
C1946 C1938 1.574 . S
C1946 H1941 0.949 . S
C1946 C1952 1.368 . S
C1947 C1931 1.349 . S
C1947 H1939 0.950 . S
C1947 C1945 1.327 1_554 S
C1948 C1936 1.349 . S
C1948 H1942 0.950 . S
C1948 C1949 1.327 . S
C1949 H1943 0.950 . S
C1949 C1948 1.327 . S
C1949 C1953 1.429 . S
C1950 C1933 1.574 . S
C1950 H1944 0.949 . S
C1950 C1954 1.368 . S
C1951 C1932 1.429 . S
C1951 C1945 1.429 . S
C1951 C1952 1.523 . S
C1952 C1933 1.368 . S
C1952 C1946 1.368 . S
C1952 C1951 1.523 . S
C1953 C1937 1.429 . S
C1953 C1949 1.429 . S
C1953 C1954 1.523 . S
C1954 C1938 1.368 . S
C1954 C1950 1.368 . S
C1954 C1953 1.523 . S
H1955 C1930 0.950 . S
H1956 C1932 0.950 . S
H1957 C1933 0.949 . S
H1958 C1935 0.950 . S
H1959 C1937 0.950 . S
C1960 C1961 1.349 . S
C1960 C1962 1.327 . S
C1960 H1985 0.950 . S
C1961 C1960 1.349 . S
C1961 C1977 1.349 . S
C1962 C1960 1.327 . S
C1962 C1981 1.429 . S
C1962 H1986 0.950 . S
C1963 C1980 1.574 . S
C1963 C1982 1.368 . S
C1963 H1987 0.949 . S
H1964 C1968 0.949 . S
C1965 C1966 1.349 . S
C1965 C1967 1.327 1_556 S
C1965 H1988 0.950 . S
C1966 C1965 1.349 . S
C1966 C1978 1.349 . S
C1967 C1965 1.327 1_554 S
C1967 C1983 1.429 . S
C1967 H1989 0.950 . S
C1968 H1964 0.949 . S
C1968 C1976 1.574 . S
C1968 C1984 1.368 . S
H1969 C1977 0.950 . S
H1970 C1975 0.950 . S
H1971 C1976 0.949 . S
H1972 C1978 0.950 . S
H1973 C1979 0.950 . S
H1974 C1980 0.949 . S
C1975 H1970 0.950 . S
C1975 C1977 1.327 . S
C1975 C1981 1.429 . S
C1976 C1968 1.574 . S
C1976 H1971 0.949 . S
C1976 C1982 1.368 . S
C1977 C1961 1.349 . S
C1977 H1969 0.950 . S
C1977 C1975 1.327 . S
C1978 C1966 1.349 . S
C1978 H1972 0.950 . S
C1978 C1979 1.327 1_556 S
C1979 H1973 0.950 . S
C1979 C1978 1.327 1_554 S
C1979 C1983 1.429 . S
C1980 C1963 1.574 . S
C1980 H1974 0.949 . S
C1980 C1984 1.368 . S
C1981 C1962 1.429 . S
C1981 C1975 1.429 . S
C1981 C1982 1.523 . S
C1982 C1963 1.368 . S
C1982 C1976 1.368 . S
C1982 C1981 1.523 . S
C1983 C1967 1.429 . S
C1983 C1979 1.429 . S
C1983 C1984 1.523 . S
C1984 C1968 1.368 . S
C1984 C1980 1.368 . S
C1984 C1983 1.523 . S
H1985 C1960 0.950 . S
H1986 C1962 0.950 . S
H1987 C1963 0.949 . S
H1988 C1965 0.950 . S
H1989 C1967 0.950 . S
C1990 C1991 1.349 . S
C1990 C1992 1.327 1_554 S
C1990 H2015 0.950 . S
C1991 C1990 1.349 . S
C1991 C2007 1.349 . S
C1992 C1990 1.327 1_556 S
C1992 C2011 1.429 . S
C1992 H2016 0.950 . S
C1993 C2010 1.574 . S
C1993 C2012 1.368 . S
C1993 H2017 0.949 . S
H1994 C1998 0.949 . S
C1995 C1996 1.349 . S
C1995 C1997 1.327 . S
C1995 H2018 0.950 . S
C1996 C1995 1.349 . S
C1996 C2008 1.349 . S
C1997 C1995 1.327 . S
C1997 C2013 1.429 . S
C1997 H2019 0.950 . S
C1998 H1994 0.949 . S
C1998 C2006 1.574 . S
C1998 C2014 1.368 . S
H1999 C2007 0.950 . S
H2000 C2005 0.950 . S
H2001 C2006 0.949 . S
H2002 C2008 0.950 . S
H2003 C2009 0.950 . S
H2004 C2010 0.949 . S
C2005 H2000 0.950 . S
C2005 C2007 1.327 1_556 S
C2005 C2011 1.429 . S
C2006 C1998 1.574 . S
C2006 H2001 0.949 . S
C2006 C2012 1.368 . S
C2007 C1991 1.349 . S
C2007 H1999 0.950 . S
C2007 C2005 1.327 1_554 S
C2008 C1996 1.349 . S
C2008 H2002 0.950 . S
C2008 C2009 1.327 . S
C2009 H2003 0.950 . S
C2009 C2008 1.327 . S
C2009 C2013 1.429 . S
C2010 C1993 1.574 . S
C2010 H2004 0.949 . S
C2010 C2014 1.368 . S
C2011 C1992 1.429 . S
C2011 C2005 1.429 . S
C2011 C2012 1.523 . S
C2012 C1993 1.368 . S
C2012 C2006 1.368 . S
C2012 C2011 1.523 . S
C2013 C1997 1.429 . S
C2013 C2009 1.429 . S
C2013 C2014 1.523 . S
C2014 C1998 1.368 . S
C2014 C2010 1.368 . S
C2014 C2013 1.523 . S
H2015 C1990 0.950 . S
H2016 C1992 0.950 . S
H2017 C1993 0.949 . S
H2018 C1995 0.950 . S
H2019 C1997 0.950 . S
C2020 C2021 1.349 . S
C2020 C2022 1.327 1_556 S
C2020 H2045 0.950 . S
C2021 C2020 1.349 . S
C2021 C2037 1.349 . S
C2022 C2020 1.327 1_554 S
C2022 C2041 1.429 . S
C2022 H2046 0.950 . S
C2023 C2040 1.574 . S
C2023 C2042 1.368 . S
C2023 H2047 0.949 . S
H2024 C2028 0.949 . S
C2025 C2026 1.349 . S
C2025 C2027 1.327 . S
C2025 H2048 0.950 . S
C2026 C2025 1.349 . S
C2026 C2038 1.349 . S
C2027 C2025 1.327 . S
C2027 C2043 1.429 . S
C2027 H2049 0.950 . S
C2028 H2024 0.949 . S
C2028 C2036 1.574 . S
C2028 C2044 1.368 . S
H2029 C2037 0.950 . S
H2030 C2035 0.950 . S
H2031 C2036 0.949 . S
H2032 C2038 0.950 . S
H2033 C2039 0.950 . S
H2034 C2040 0.949 . S
C2035 H2030 0.950 . S
C2035 C2037 1.327 1_554 S
C2035 C2041 1.429 . S
C2036 C2028 1.574 . S
C2036 H2031 0.949 . S
C2036 C2042 1.368 . S
C2037 C2021 1.349 . S
C2037 H2029 0.950 . S
C2037 C2035 1.327 1_556 S
C2038 C2026 1.349 . S
C2038 H2032 0.950 . S
C2038 C2039 1.327 . S
C2039 H2033 0.950 . S
C2039 C2038 1.327 . S
C2039 C2043 1.429 . S
C2040 C2023 1.574 . S
C2040 H2034 0.949 . S
C2040 C2044 1.368 . S
C2041 C2022 1.429 . S
C2041 C2035 1.429 . S
C2041 C2042 1.523 . S
C2042 C2023 1.368 . S
C2042 C2036 1.368 . S
C2042 C2041 1.523 . S
C2043 C2027 1.429 . S
C2043 C2039 1.429 . S
C2043 C2044 1.523 . S
C2044 C2028 1.368 . S
C2044 C2040 1.368 . S
C2044 C2043 1.523 . S
H2045 C2020 0.950 . S
H2046 C2022 0.950 . S
H2047 C2023 0.949 . S
H2048 C2025 0.950 . S
H2049 C2027 0.950 . S
C2050 C2051 1.349 . S
C2050 C2052 1.327 . S
C2050 H2075 0.950 . S
C2051 C2050 1.349 . S
C2051 C2067 1.349 . S
C2052 C2050 1.327 . S
C2052 C2071 1.429 . S
C2052 H2076 0.950 . S
C2053 C2070 1.574 . S
C2053 C2072 1.368 . S
C2053 H2077 0.949 . S
H2054 C2058 0.949 . S
C2055 C2056 1.349 . S
C2055 C2057 1.327 1_554 S
C2055 H2078 0.950 . S
C2056 C2055 1.349 . S
C2056 C2068 1.349 . S
C2057 C2055 1.327 1_556 S
C2057 C2073 1.429 . S
C2057 H2079 0.950 . S
C2058 H2054 0.949 . S
C2058 C2066 1.574 . S
C2058 C2074 1.368 . S
H2059 C2067 0.950 . S
H2060 C2065 0.950 . S
H2061 C2066 0.949 . S
H2062 C2068 0.950 . S
H2063 C2069 0.950 . S
H2064 C2070 0.949 . S
C2065 H2060 0.950 . S
C2065 C2067 1.327 . S
C2065 C2071 1.429 . S
C2066 C2058 1.574 . S
C2066 H2061 0.949 . S
C2066 C2072 1.368 . S
C2067 C2051 1.349 . S
C2067 H2059 0.950 . S
C2067 C2065 1.327 . S
C2068 C2056 1.349 . S
C2068 H2062 0.950 . S
C2068 C2069 1.327 1_554 S
C2069 H2063 0.950 . S
C2069 C2068 1.327 1_556 S
C2069 C2073 1.429 . S
C2070 C2053 1.574 . S
C2070 H2064 0.949 . S
C2070 C2074 1.368 . S
C2071 C2052 1.429 . S
C2071 C2065 1.429 . S
C2071 C2072 1.523 . S
C2072 C2053 1.368 . S
C2072 C2066 1.368 . S
C2072 C2071 1.523 . S
C2073 C2057 1.429 . S
C2073 C2069 1.429 . S
C2073 C2074 1.523 . S
C2074 C2058 1.368 . S
C2074 C2070 1.368 . S
C2074 C2073 1.523 . S
H2075 C2050 0.950 . S
H2076 C2052 0.950 . S
H2077 C2053 0.949 . S
H2078 C2055 0.950 . S
H2079 C2057 0.950 . S
C641 C459 1.700 . S
C646 C18 1.713 . S
C671 C330 1.700 . S
C676 C49 1.713 . S
C701 C98 1.713 . S
C706 C379 1.700 . S
C731 C129 1.713 . S
C736 C410 1.700 . S
C761 C178 1.713 . S
C766 C219 1.700 . S
C791 C250 1.700 . S
C796 C209 1.713 . S
C821 C258 1.713 . S
C826 C299 1.700 . S
C851 C170 1.700 . S
C856 C289 1.713 . S
C881 C139 1.700 . S
C886 C338 1.713 . S
C911 C369 1.713 . S
C916 C10 1.700 . S
C941 C59 1.700 . S
C946 C418 1.713 . S
C971 C90 1.700 . S
C976 C449 1.713 . S
C1001 C498 1.713 . S
C1006 C539 1.700 . S
C1031 C570 1.700 . S
C1036 C529 1.713 . S
C1061 C619 1.700 . S
C1066 C578 1.713 . S
C1091 C609 1.713 . S
C1096 C490 1.700 . S
C1121 C9 1.132 . S
C1126 C169 1.132 . S
C1151 C218 1.132 . S
C1156 C58 1.132 . S
C1181 C89 1.132 . S
C1186 C249 1.132 . S
C1211 C138 1.132 . S
C1216 C298 1.132 . S
C1241 C329 1.132 . S
C1246 C489 1.132 . S
C1271 C538 1.132 . S
C1276 C378 1.132 . S
C1301 C409 1.132 . S
C1306 C569 1.132 . S
C1331 C458 1.132 . S
C1336 C618 1.132 . S
C1361 C579 2.260 . S
C1366 C19 2.260 . S
C1391 C50 2.260 . S
C1396 C610 2.260 . S
C1421 C99 2.260 . S
C1426 C499 2.260 . S
C1451 C130 2.260 . S
C1456 C530 2.260 . S
C1481 C179 2.260 . S
C1486 C419 2.260 . S
C1511 C210 2.260 . S
C1516 C450 2.260 . S
C1541 C259 2.260 . S
C1546 C339 2.260 . S
C1571 C370 2.260 . S
C1576 C290 2.260 . S
C1601 C6 1.067 . S
C1606 C15 1.067 . S
C1631 C55 1.067 . S
C1636 C46 1.067 . S
C1661 C86 1.067 . S
C1666 C95 1.067 . S
C1691 C126 1.067 . S
C1696 C135 1.067 . S
C1721 C175 1.067 . S
C1726 C166 1.067 . S
C1751 C215 1.067 . S
C1756 C206 1.067 . S
C1781 C246 1.067 . S
C1786 C255 1.067 . S
C1811 C286 1.067 . S
C1816 C295 1.067 . S
C1841 C326 1.067 . S
C1846 C335 1.067 . S
C1871 C366 1.067 . S
C1876 C375 1.067 . S
C1901 C415 1.067 . S
C1906 C406 1.067 . S
C1931 C455 1.067 . S
C1936 C446 1.067 . S
C1961 C486 1.067 . S
C1966 C495 1.067 . S
C1991 C526 1.067 . S
C1996 C535 1.067 . S
C2021 C575 1.067 . S
C2026 C566 1.067 . S
C2051 C615 1.067 . S
C2056 C606 1.067 . S
