# Generated by pormake.
# Topology mon, (4)-cn, num edge types: 1
# Building blocks:
#     Node 0, Type 0, BuildingBlock: QUQFOY_clean_sbu_1, # of connection points: 4
#     Node 1, Type 0, BuildingBlock: QUQFOY_clean_sbu_1, # of connection points: 4
#     Node 2, Type 0, BuildingBlock: QUQFOY_clean_sbu_1, # of connection points: 4
#     Node 3, Type 0, BuildingBlock: QUQFOY_clean_sbu_1, # of connection points: 4
#     Node 4, Type 0, BuildingBlock: QUQFOY_clean_sbu_1, # of connection points: 4
#     Node 5, Type 0, BuildingBlock: QUQFOY_clean_sbu_1, # of connection points: 4
#     Node 6, Type 0, BuildingBlock: QUQFOY_clean_sbu_1, # of connection points: 4
#     Node 7, Type 0, BuildingBlock: QUQFOY_clean_sbu_1, # of connection points: 4
#     Node 8, Type 0, BuildingBlock: QUQFOY_clean_sbu_1, # of connection points: 4
#     Node 9, Type 0, BuildingBlock: QUQFOY_clean_sbu_1, # of connection points: 4
#     Node 10, Type 0, BuildingBlock: QUQFOY_clean_sbu_1, # of connection points: 4
#     Node 11, Type 0, BuildingBlock: QUQFOY_clean_sbu_1, # of connection points: 4
#     Node 12, Type 0, BuildingBlock: QUQFOY_clean_sbu_1, # of connection points: 4
#     Node 13, Type 0, BuildingBlock: QUQFOY_clean_sbu_1, # of connection points: 4
#     Node 14, Type 0, BuildingBlock: QUQFOY_clean_sbu_1, # of connection points: 4
#     Node 15, Type 0, BuildingBlock: QUQFOY_clean_sbu_1, # of connection points: 4
#     Edge 16, Type (0, 0), BuildingBlock: OJICUG_clean_linker_0, # of connection points: 2
#     Edge 17, Type (0, 0), BuildingBlock: OJICUG_clean_linker_0, # of connection points: 2
#     Edge 18, Type (0, 0), BuildingBlock: OJICUG_clean_linker_0, # of connection points: 2
#     Edge 19, Type (0, 0), BuildingBlock: OJICUG_clean_linker_0, # of connection points: 2
#     Edge 20, Type (0, 0), BuildingBlock: OJICUG_clean_linker_0, # of connection points: 2
#     Edge 21, Type (0, 0), BuildingBlock: OJICUG_clean_linker_0, # of connection points: 2
#     Edge 22, Type (0, 0), BuildingBlock: OJICUG_clean_linker_0, # of connection points: 2
#     Edge 23, Type (0, 0), BuildingBlock: OJICUG_clean_linker_0, # of connection points: 2
#     Edge 24, Type (0, 0), BuildingBlock: OJICUG_clean_linker_0, # of connection points: 2
#     Edge 25, Type (0, 0), BuildingBlock: OJICUG_clean_linker_0, # of connection points: 2
#     Edge 26, Type (0, 0), BuildingBlock: OJICUG_clean_linker_0, # of connection points: 2
#     Edge 27, Type (0, 0), BuildingBlock: OJICUG_clean_linker_0, # of connection points: 2
#     Edge 28, Type (0, 0), BuildingBlock: OJICUG_clean_linker_0, # of connection points: 2
#     Edge 29, Type (0, 0), BuildingBlock: OJICUG_clean_linker_0, # of connection points: 2
#     Edge 30, Type (0, 0), BuildingBlock: OJICUG_clean_linker_0, # of connection points: 2
#     Edge 31, Type (0, 0), BuildingBlock: OJICUG_clean_linker_0, # of connection points: 2
#     Edge 32, Type (0, 0), BuildingBlock: OJICUG_clean_linker_0, # of connection points: 2
#     Edge 33, Type (0, 0), BuildingBlock: OJICUG_clean_linker_0, # of connection points: 2
#     Edge 34, Type (0, 0), BuildingBlock: OJICUG_clean_linker_0, # of connection points: 2
#     Edge 35, Type (0, 0), BuildingBlock: OJICUG_clean_linker_0, # of connection points: 2
#     Edge 36, Type (0, 0), BuildingBlock: OJICUG_clean_linker_0, # of connection points: 2
#     Edge 37, Type (0, 0), BuildingBlock: OJICUG_clean_linker_0, # of connection points: 2
#     Edge 38, Type (0, 0), BuildingBlock: OJICUG_clean_linker_0, # of connection points: 2
#     Edge 39, Type (0, 0), BuildingBlock: OJICUG_clean_linker_0, # of connection points: 2
#     Edge 40, Type (0, 0), BuildingBlock: OJICUG_clean_linker_0, # of connection points: 2
#     Edge 41, Type (0, 0), BuildingBlock: OJICUG_clean_linker_0, # of connection points: 2
#     Edge 42, Type (0, 0), BuildingBlock: OJICUG_clean_linker_0, # of connection points: 2
#     Edge 43, Type (0, 0), BuildingBlock: OJICUG_clean_linker_0, # of connection points: 2
#     Edge 44, Type (0, 0), BuildingBlock: OJICUG_clean_linker_0, # of connection points: 2
#     Edge 45, Type (0, 0), BuildingBlock: OJICUG_clean_linker_0, # of connection points: 2
#     Edge 46, Type (0, 0), BuildingBlock: OJICUG_clean_linker_0, # of connection points: 2
#     Edge 47, Type (0, 0), BuildingBlock: OJICUG_clean_linker_0, # of connection points: 2
# Relax obj value: 0.196
# Max RMSD: 0.215
# Mean RMSD: 0.215
data_MOF--net-mon--node1-QUQFOY_clean_sbu_1--edge1-OJICUG_clean_linker_0
_symmetry_space_group_name_H-M    P1
_symmetry_Int_Tables_number       1
_symmetry_cell_setting            triclinic
loop_
_symmetry_equiv_pos_as_xyz
'x, y, z'
_cell_length_a     26.721439
_cell_length_b     26.738658
_cell_length_c     63.41911
_cell_angle_alpha  89.98963
_cell_angle_beta   89.968359
_cell_angle_gamma 89.992494
loop_
_atom_site_label
_atom_site_type_symbol
_atom_site_fract_x
_atom_site_fract_y
_atom_site_fract_z
_atom_type_partial_charge
O0 O 0.0241 0.05149 0.53232 0.0
Cd1 Cd 0.02295 0.0716 0.56364 0.0
Cd2 Cd 0.09612 1.00194 0.56678 0.0
O3 O 0.09723 0.01382 0.53477 0.0
O4 O 1.00148 0.14264 0.56621 0.0
O5 O 0.07787 0.116 0.5741 0.0
C6 C 0.04659 0.15269 0.57221 0.0
C7 C 0.17218 0.97708 0.58179 0.0
C8 C 0.06123 0.03007 0.52368 0.0
C9 C 0.99338 0.98047 0.58579 0.0
O10 O 0.03544 0.96412 0.57939 0.0
O11 O 0.98159 0.026 0.58298 0.0
O12 O 0.1491 0.9498 0.56828 0.0
O13 O 0.15278 0.01971 0.5867 0.0
O14 O 0.2828 0.70372 0.78223 0.0
Cd15 Cd 0.26245 0.70321 0.81353 0.0
Cd16 Cd 0.33225 0.77603 0.81654 0.0
O17 O 0.32094 0.7766 0.78449 0.0
O18 O 0.19128 0.68208 0.81615 0.0
O19 O 0.21819 0.75843 0.82385 0.0
C20 C 0.18138 0.72727 0.82206 0.0
C21 C 0.35665 0.85221 0.83153 0.0
C22 C 0.3046 0.74049 0.77349 0.0
C23 C 0.35338 0.67367 0.83584 0.0
O24 O 0.36991 0.71555 0.82935 0.0
O25 O 0.3078 0.66199 0.83301 0.0
O26 O 0.38426 0.82911 0.81812 0.0
O27 O 0.31394 0.83278 0.83632 0.0
O28 O 0.63282 0.96267 0.03195 0.0
Cd29 Cd 0.63436 0.94219 0.06323 0.0
Cd30 Cd 0.56123 0.01189 0.06672 0.0
O31 O 0.55992 1.0007 0.03467 0.0
O32 O 0.65588 0.87114 0.06566 0.0
O33 O 0.57961 0.8977 0.07382 0.0
C34 C 0.6109 0.86104 0.07183 0.0
C35 C 0.48525 0.03656 0.08189 0.0
C36 C 0.59573 0.98445 0.02345 0.0
C37 C 0.66417 0.03297 0.08557 0.0
O38 O 0.62201 0.04942 0.07936 0.0
O39 O 0.67598 0.98753 0.08255 0.0
O40 O 0.50833 0.06407 0.06844 0.0
O41 O 0.5046 0.99383 0.08665 0.0
O42 O 0.37443 0.31302 0.28217 0.0
Cd43 Cd 0.39509 0.31427 0.31342 0.0
Cd44 Cd 0.3255 0.24107 0.31684 0.0
O45 O 0.33674 0.23997 0.28479 0.0
O46 O 0.46627 0.33556 0.31581 0.0
O47 O 0.43953 0.25932 0.32383 0.0
C48 C 0.47629 0.29049 0.32185 0.0
C49 C 0.30073 0.16507 0.33194 0.0
C50 C 0.35279 0.27593 0.27362 0.0
C51 C 0.30427 0.3438 0.33585 0.0
O52 O 0.28788 0.30172 0.32955 0.0
O53 O 0.34975 0.35567 0.33286 0.0
O54 O 0.27326 0.18821 0.3185 0.0
O55 O 0.34349 0.18437 0.33672 0.0
O56 O 0.02444 0.96252 0.4264 0.0
Cd57 Cd 0.02349 0.9424 0.39509 0.0
Cd58 Cd 0.09658 0.01206 0.392 0.0
O59 O 0.09762 1.00011 0.42401 0.0
O60 O 1.00216 0.87133 0.39249 0.0
O61 O 0.07856 0.89808 0.38466 0.0
C62 C 0.04732 0.86135 0.38653 0.0
C63 C 0.17262 0.03683 0.37693 0.0
C64 C 0.06153 0.98389 0.43507 0.0
C65 C 0.99393 0.03356 0.37297 0.0
O66 O 0.03591 0.04992 0.37943 0.0
O67 O 0.98219 0.98799 0.37572 0.0
O68 O 0.14961 0.06413 0.39047 0.0
O69 O 0.15318 0.99423 0.37203 0.0
O70 O 0.3739 0.70101 0.67656 0.0
Cd71 Cd 0.3944 0.69931 0.64528 0.0
Cd72 Cd 0.32509 0.77277 0.64175 0.0
O73 O 0.33655 0.7742 0.67378 0.0
O74 O 0.46556 0.67805 0.6428 0.0
O75 O 0.43868 0.75419 0.63469 0.0
C76 C 0.47549 0.72307 0.63667 0.0
C77 C 0.30036 0.84873 0.62663 0.0
C78 C 0.3525 0.73835 0.68503 0.0
C79 C 0.30346 0.6699 0.62296 0.0
O80 O 0.28724 0.71213 0.62918 0.0
O81 O 0.34889 0.65786 0.62596 0.0
O82 O 0.27293 0.82571 0.64013 0.0
O83 O 0.34304 0.82932 0.62179 0.0
O84 O 0.63206 0.05413 0.92638 0.0
Cd85 Cd 0.63312 0.07448 0.89508 0.0
Cd86 Cd 0.5602 1.00484 0.8919 0.0
O87 O 0.55899 0.01637 0.92393 0.0
O88 O 0.65444 0.14557 0.89254 0.0
O89 O 0.57811 0.11882 0.88463 0.0
C90 C 0.60934 0.15555 0.88652 0.0
C91 C 0.48425 0.98032 0.87671 0.0
C92 C 0.59502 0.03255 0.93502 0.0
C93 C 0.66294 0.98354 0.8729 0.0
O94 O 0.62094 0.96708 0.87931 0.0
O95 O 0.6746 0.02911 0.8757 0.0
O96 O 0.50713 0.95285 0.89022 0.0
O97 O 0.50377 0.02296 0.87191 0.0
O98 O 0.28339 0.31272 0.17654 0.0
Cd99 Cd 0.26336 0.31381 0.14521 0.0
Cd100 Cd 0.33283 0.24069 0.14207 0.0
O101 O 0.32112 0.23966 0.17409 0.0
O102 O 0.1922 0.3349 0.14252 0.0
O103 O 0.21934 0.25869 0.13467 0.0
C104 C 0.18245 0.28978 0.13648 0.0
C105 C 0.35729 0.16461 0.12699 0.0
C106 C 0.30488 0.27566 0.18518 0.0
C107 C 0.35457 0.34327 0.12307 0.0
O108 O 0.37084 0.3012 0.12945 0.0
O109 O 0.30904 0.35515 0.1259 0.0
O110 O 0.38476 0.18752 0.14049 0.0
O111 O 0.31469 0.18418 0.12214 0.0
O112 O 0.87523 0.20281 0.17624 0.0
Cd113 Cd 0.89552 0.20158 0.14493 0.0
Cd114 Cd 0.82622 0.27486 0.14167 0.0
O115 O 0.83792 0.27606 0.17369 0.0
O116 O 0.96669 0.18046 0.14232 0.0
O117 O 0.93965 0.25667 0.13443 0.0
C118 C 0.97651 0.22558 0.1363 0.0
C119 C 0.8017 0.35089 0.12657 0.0
C120 C 0.85392 0.24004 0.18483 0.0
C121 C 0.80443 0.17222 0.12274 0.0
O122 O 0.78818 0.21432 0.12911 0.0
O123 O 0.84994 0.16029 0.12559 0.0
O124 O 0.77425 0.32798 0.1401 0.0
O125 O 0.84429 0.33133 0.1217 0.0
O126 O 0.78274 0.81048 0.67652 0.0
Cd127 Cd 0.76255 0.81107 0.64521 0.0
Cd128 Cd 0.83231 0.73822 0.64219 0.0
O129 O 0.82082 0.73756 0.67424 0.0
O130 O 0.69138 0.83216 0.64256 0.0
O131 O 0.71841 0.75584 0.63485 0.0
C132 C 0.68155 0.78697 0.63664 0.0
C133 C 0.85671 0.66205 0.62718 0.0
C134 C 0.80446 0.77366 0.68524 0.0
C135 C 0.85362 0.84062 0.62296 0.0
O136 O 0.87008 0.7987 0.62943 0.0
O137 O 0.80803 0.85233 0.62577 0.0
O138 O 0.88428 0.68508 0.64061 0.0
O139 O 0.81404 0.68154 0.62238 0.0
O140 O 0.7842 0.20394 0.28192 0.0
Cd141 Cd 0.76366 0.20299 0.3132 0.0
Cd142 Cd 0.83344 0.27598 0.31647 0.0
O143 O 0.82239 0.27676 0.2844 0.0
O144 O 0.69248 0.18179 0.31571 0.0
O145 O 0.71931 0.25806 0.32359 0.0
C146 C 0.68252 0.2269 0.3217 0.0
C147 C 0.85794 0.35211 0.33149 0.0
C148 C 0.80609 0.24081 0.27331 0.0
C149 C 0.85445 0.17341 0.33564 0.0
O150 O 0.87095 0.21543 0.3293 0.0
O151 O 0.80896 0.16161 0.33265 0.0
O152 O 0.88558 0.32893 0.31811 0.0
O153 O 0.81516 0.33278 0.33624 0.0
O154 O 0.87366 0.81291 0.78216 0.0
Cd155 Cd 0.89411 0.8146 0.81343 0.0
Cd156 Cd 0.82476 0.74116 0.81698 0.0
O157 O 0.83619 0.73978 0.78494 0.0
O158 O 0.96525 0.83594 0.81588 0.0
O159 O 0.93846 0.75978 0.82402 0.0
C160 C 0.97523 0.79094 0.82202 0.0
C161 C 0.80002 0.66518 0.83208 0.0
C162 C 0.8522 0.77561 0.77369 0.0
C163 C 0.80316 0.84405 0.83578 0.0
O164 O 0.78693 0.80181 0.82959 0.0
O165 O 0.84857 0.85608 0.83275 0.0
O166 O 0.77259 0.68826 0.81861 0.0
O167 O 0.84271 0.68456 0.83691 0.0
O168 O 0.52517 0.5533 0.03234 0.0
Cd169 Cd 0.52435 0.57364 0.06363 0.0
Cd170 Cd 0.59736 0.50385 0.06674 0.0
O171 O 0.59817 0.51534 0.03471 0.0
O172 O 0.50289 0.64469 0.06615 0.0
O173 O 0.57934 0.61812 0.07398 0.0
C174 C 0.54802 0.65479 0.0721 0.0
C175 C 0.67351 0.4791 0.0817 0.0
C176 C 0.5621 0.53162 0.02366 0.0
C177 C 0.49475 0.48273 0.08592 0.0
O178 O 0.53673 0.46623 0.0795 0.0
O179 O 0.48304 0.52826 0.08307 0.0
O180 O 0.65031 0.45169 0.06827 0.0
O181 O 0.65419 0.5218 0.08655 0.0
O182 O 0.13225 0.46057 0.53207 0.0
Cd183 Cd 0.1335 0.43995 0.56334 0.0
Cd184 Cd 0.06049 0.50961 0.56676 0.0
O185 O 0.05934 0.49861 0.53469 0.0
O186 O 0.15485 0.36885 0.56579 0.0
O187 O 0.07858 0.39557 0.57386 0.0
C188 C 0.1098 0.35885 0.57191 0.0
C189 C 0.98449 0.53408 0.58197 0.0
C190 C 0.09527 0.48242 0.52353 0.0
C191 C 0.1633 0.53067 0.58572 0.0
O192 O 0.12121 0.54716 0.57944 0.0
O193 O 0.17506 0.48519 0.58273 0.0
O194 O 1.0075 0.56168 0.56853 0.0
O195 O 1.00392 0.49135 0.58668 0.0
O196 O 0.52377 0.46286 0.92662 0.0
Cd197 Cd 0.52233 0.44268 0.89532 0.0
Cd198 Cd 0.59568 0.51212 0.89197 0.0
O199 O 0.59692 0.50041 0.92399 0.0
O200 O 0.50091 0.37164 0.89275 0.0
O201 O 0.57721 0.39837 0.88472 0.0
C202 C 0.54596 0.36165 0.88664 0.0
C203 C 0.67175 0.53689 0.87692 0.0
C204 C 0.56099 0.48427 0.93517 0.0
C205 C 0.49285 0.53375 0.87311 0.0
O206 O 0.53503 0.55 0.87939 0.0
O207 O 0.48091 0.4883 0.87603 0.0
O208 O 0.64866 0.56423 0.89042 0.0
O209 O 0.65234 0.49427 0.87203 0.0
O210 O 0.13299 0.55355 0.42672 0.0
Cd211 Cd 0.13456 0.57417 0.39545 0.0
Cd212 Cd 0.0614 0.5047 0.39195 0.0
O213 O 0.05995 0.51581 0.424 0.0
O214 O 0.15586 0.6453 0.39301 0.0
O215 O 0.07967 0.61851 0.38488 0.0
C216 C 0.11084 0.65526 0.38686 0.0
C217 C 0.98551 0.48019 0.37669 0.0
C218 C 0.09583 0.53186 0.43521 0.0
C219 C 0.16437 0.4834 0.37312 0.0
O220 O 0.12218 0.46703 0.37935 0.0
O221 O 0.17621 0.52885 0.3761 0.0
O222 O 0.00841 0.45264 0.39017 0.0
O223 O 1.00498 0.52289 0.37195 0.0
C224 C 0.11386 0.21747 0.57569 0.0
C225 C 0.06274 0.20522 0.57517 0.0
H226 H 0.16885 0.27571 0.57504 0.0
C227 C 0.02726 0.24406 0.57566 0.0
H228 H 0.14213 0.18844 0.57533 0.0
C229 C 0.04258 0.2941 0.57571 0.0
C230 C 0.09369 0.30634 0.57499 0.0
H231 H 0.98757 0.23585 0.57539 0.0
H232 H 0.0143 0.32313 0.57538 0.0
C233 C 0.12917 0.26751 0.57546 0.0
C234 C 0.0399 0.72366 0.82583 0.0
C235 C 0.02776 0.77476 0.82505 0.0
H236 H 0.09806 0.66855 0.82549 0.0
C237 C 0.0667 0.81013 0.82537 0.0
H238 H 0.0108 0.69547 0.82561 0.0
C239 C 0.11674 0.79471 0.82551 0.0
C240 C 0.12887 0.74358 0.82507 0.0
H241 H 0.05858 0.8498 0.82489 0.0
H242 H 0.14585 0.82288 0.82504 0.0
C243 C 0.08994 0.70823 0.8257 0.0
C244 C 0.61522 0.71966 0.07551 0.0
C245 C 0.56411 0.70734 0.07505 0.0
H246 H 0.67011 0.77799 0.07482 0.0
C247 C 0.52858 0.74612 0.07561 0.0
H248 H 0.64353 0.69068 0.07509 0.0
C249 C 0.54381 0.79618 0.07568 0.0
C250 C 0.5949 0.8085 0.0749 0.0
H251 H 0.4889 0.73785 0.07539 0.0
H252 H 0.51549 0.82516 0.07541 0.0
C253 C 0.63045 0.76972 0.0753 0.0
C254 C 0.59107 0.20778 0.32526 0.0
C255 C 0.62999 0.24315 0.32471 0.0
H256 H 0.51193 0.19498 0.32515 0.0
C257 C 0.61782 0.29426 0.32528 0.0
H258 H 0.59921 0.1681 0.32494 0.0
C259 C 0.56778 0.30966 0.32518 0.0
C260 C 0.52885 0.27428 0.32479 0.0
H261 H 0.64692 0.32246 0.32488 0.0
H262 H 0.55963 0.34934 0.3248 0.0
C263 C 0.54102 0.22318 0.32543 0.0
C264 C 0.02817 0.76995 0.38305 0.0
C265 C 0.06358 0.80883 0.38358 0.0
H266 H 0.01532 0.69087 0.3833 0.0
C267 C 0.11472 0.79665 0.38311 0.0
H268 H 0.98846 0.77811 0.38329 0.0
C269 C 0.13011 0.74663 0.38334 0.0
C270 C 0.09468 0.70775 0.38377 0.0
H271 H 0.14294 0.82571 0.3835 0.0
H272 H 0.1698 0.73848 0.3838 0.0
C273 C 0.04356 0.71993 0.383 0.0
C274 C 0.54008 0.79043 0.63287 0.0
C275 C 0.52801 0.73931 0.63363 0.0
H276 H 0.59816 0.84561 0.63324 0.0
C277 C 0.567 0.70399 0.63329 0.0
H278 H 0.51094 0.81858 0.63311 0.0
C279 C 0.61701 0.71947 0.63315 0.0
C280 C 0.62908 0.7706 0.63362 0.0
H281 H 0.55893 0.6643 0.63376 0.0
H282 H 0.64616 0.69133 0.6336 0.0
C283 C 0.59009 0.80591 0.633 0.0
C284 C 0.61323 0.29694 0.88288 0.0
C285 C 0.56211 0.30915 0.88356 0.0
H286 H 0.66828 0.23873 0.88329 0.0
C287 C 0.52666 0.2703 0.88312 0.0
H288 H 0.64148 0.32598 0.88319 0.0
C289 C 0.54201 0.22027 0.88295 0.0
C290 C 0.59314 0.20806 0.88351 0.0
H291 H 0.48697 0.27848 0.88352 0.0
H292 H 0.51377 0.19123 0.88333 0.0
C293 C 0.62859 0.24691 0.88299 0.0
C294 C 0.09097 0.30866 0.13285 0.0
C295 C 0.13001 0.2734 0.13337 0.0
H296 H 0.0118 0.32121 0.13299 0.0
C297 C 0.11802 0.22226 0.13273 0.0
H298 H 0.09898 0.34836 0.13322 0.0
C299 C 0.06803 0.2067 0.13282 0.0
C300 C 0.02899 0.24196 0.13327 0.0
H301 H 0.14721 0.19415 0.1331 0.0
H302 H 0.06002 0.167 0.13316 0.0
C303 C 0.04098 0.2931 0.13267 0.0
C304 C 0.01593 1.00021 0.46873 0.0
C305 C 0.06134 0.9939 0.45789 0.0
H306 H 0.98035 0.01825 0.49803 0.0
C307 C 0.10664 1.00079 0.46871 0.0
H308 H 0.98048 0.99573 0.46066 0.0
C309 C 0.10657 0.01314 0.49008 0.0
C310 C 0.06119 0.02005 0.50087 0.0
H311 H 0.14216 0.99636 0.46068 0.0
H312 H 0.14203 0.01755 0.49814 0.0
C313 C 0.01585 0.01375 0.49 0.0
C314 C 0.32246 0.78486 0.73976 0.0
C315 C 0.31504 0.73983 0.75071 0.0
H316 H 0.34006 0.81961 0.71027 0.0
C317 C 0.32129 0.69422 0.74005 0.0
H318 H 0.3181 0.82052 0.74765 0.0
C319 C 0.33528 0.69368 0.71882 0.0
C320 C 0.34209 0.73875 0.70782 0.0
H321 H 0.31641 0.65896 0.74822 0.0
H322 H 0.3397 0.65804 0.71092 0.0
C323 C 0.33526 0.78433 0.71843 0.0
C324 C 0.55022 1.00222 -0.01002 0.0
C325 C 0.59564 0.99496 0.00067 0.0
H326 H 0.51449 0.01973 0.9607 0.0
C327 C 0.64093 1.00143 -0.01024 0.0
H328 H 0.51479 0.99769 -0.00192 0.0
C329 C 0.64076 0.01547 0.96855 0.0
C330 C 0.5953 0.02211 0.9578 0.0
H331 H 0.67646 0.99668 -0.00227 0.0
H332 H 0.67617 0.02006 0.96045 0.0
C333 C 0.55005 0.01506 0.96866 0.0
C334 C 0.32176 0.32123 0.21877 0.0
C335 C 0.31517 0.27586 0.20797 0.0
H336 H 0.34047 0.35677 0.24799 0.0
C337 C 0.32221 0.23058 0.21879 0.0
H338 H 0.31717 0.35666 0.2107 0.0
C339 C 0.33502 0.23065 0.24011 0.0
C340 C 0.34224 0.27598 0.25085 0.0
H341 H 0.31759 0.19508 0.21079 0.0
H342 H 0.33956 0.1952 0.24816 0.0
C343 C 0.33575 0.3213 0.23999 0.0
C344 C 0.83677 0.19485 0.2185 0.0
C345 C 0.84361 0.24009 0.20763 0.0
H346 H 0.81787 0.15967 0.2478 0.0
C347 C 0.83687 0.2855 0.21838 0.0
H348 H 0.84113 0.15933 0.21049 0.0
C349 C 0.82409 0.2857 0.2397 0.0
C350 C 0.81661 0.24049 0.25052 0.0
H351 H 0.84171 0.3209 0.21031 0.0
H352 H 0.81978 0.32124 0.2477 0.0
C353 C 0.8228 0.19505 0.23973 0.0
C354 C 0.82214 0.72921 0.71897 0.0
C355 C 0.81483 0.77428 0.70803 0.0
H356 H 0.83964 0.6944 0.74845 0.0
C357 C 0.82112 0.81986 0.7187 0.0
H358 H 0.81774 0.69357 0.71107 0.0
C359 C 0.83508 0.82035 0.73992 0.0
C360 C 0.8418 0.77525 0.75091 0.0
H361 H 0.81632 0.85513 0.71053 0.0
H362 H 0.83955 0.85597 0.74783 0.0
C363 C 0.8349 0.7297 0.74029 0.0
C364 C 0.60662 0.50137 0.96866 0.0
C365 C 0.56115 0.4945 0.95797 0.0
H366 H 0.64249 0.51844 -0.00205 0.0
C367 C 0.51591 0.50112 0.9689 0.0
H368 H 0.64202 0.49671 0.96055 0.0
C369 C 0.51619 0.51497 -0.00987 0.0
C370 C 0.5617 0.52127 0.00087 0.0
H371 H 0.48034 0.49666 0.96093 0.0
H372 H 0.48082 0.51971 -0.00175 0.0
C373 C 0.6069 0.51403 -0.01001 0.0
C374 C 0.14095 0.49984 0.48999 0.0
C375 C 0.0955 0.49322 0.50077 0.0
H376 H 0.17661 0.51893 0.46082 0.0
C377 C 0.05024 0.50067 0.48998 0.0
H378 H 0.17637 0.49495 0.49803 0.0
C379 C 0.05038 0.51387 0.4687 0.0
C380 C 0.09579 0.52108 0.45798 0.0
H381 H 0.01469 0.49603 0.49798 0.0
H382 H 0.01494 0.51868 0.46066 0.0
C383 C 0.14109 0.51423 0.46882 0.0
C384 C 0.28188 0.89391 0.59333 0.0
C385 C 0.27965 0.89215 0.6154 0.0
H386 H 0.24837 0.92276 0.56513 0.0
C387 C 0.24876 0.92609 0.62621 0.0
H388 H 0.30503 0.86771 0.58468 0.0
C389 C 0.21749 0.9586 0.61506 0.0
C390 C 0.21561 0.95626 0.59299 0.0
H391 H 0.24639 0.92515 0.64327 0.0
H392 H 0.19141 0.98186 0.62372 0.0
C393 C 0.24941 0.92522 0.58218 0.0
C394 C 0.37449 0.89756 0.86484 0.0
C395 C 0.37721 0.89566 0.84278 0.0
H396 H 0.40749 0.92643 0.89314 0.0
C397 C 0.40843 0.92945 0.83205 0.0
H398 H 0.35108 0.87148 0.87344 0.0
C399 C 0.43955 0.96191 0.84329 0.0
C400 C 0.44095 0.95968 0.86537 0.0
H401 H 0.41119 0.9284 0.81501 0.0
H402 H 0.4659 0.98504 0.83471 0.0
C403 C 0.40682 0.92882 0.87609 0.0
C404 C 0.44013 0.05482 0.11524 0.0
C405 C 0.44184 0.05722 0.09317 0.0
H406 H 0.41143 0.08817 0.14351 0.0
C407 C 0.40792 0.08824 0.08243 0.0
H408 H 0.46631 0.03156 0.12384 0.0
C409 C 0.37549 0.11948 0.09365 0.0
C410 C 0.3779 0.1212 0.11572 0.0
H411 H 0.40883 0.09075 0.06538 0.0
H412 H 0.35226 0.14567 0.08504 0.0
C413 C 0.4089 0.08726 0.12646 0.0
C414 C 0.21775 0.05534 0.3436 0.0
C415 C 0.216 0.05762 0.36567 0.0
H416 H 0.24651 0.0888 0.31536 0.0
C417 C 0.24991 0.0886 0.37644 0.0
H418 H 0.19158 0.03213 0.33497 0.0
C419 C 0.28236 0.11987 0.36525 0.0
C420 C 0.28001 0.12167 0.34318 0.0
H421 H 0.24898 0.09102 0.39349 0.0
H422 H 0.3056 0.146 0.37388 0.0
C423 C 0.249 0.08782 0.33241 0.0
C424 C 0.97257 0.11819 0.35886 0.0
C425 C 0.95808 0.06867 0.36309 0.0
H426 H 0.95135 0.18991 0.34708 0.0
C427 C 0.90875 0.05391 0.35851 0.0
H428 H 0.01021 0.1309 0.36223 0.0
C429 C 0.87469 0.08805 0.34991 0.0
C430 C 0.88937 0.13753 0.34562 0.0
H431 H 0.89631 0.0161 0.36169 0.0
H432 H 0.83703 0.07553 0.34646 0.0
C433 C 0.9387 0.15213 0.3502 0.0
C434 C 0.74965 0.0531 0.09976 0.0
C435 C 0.70018 0.06788 0.09547 0.0
H436 H 0.82167 0.07456 0.11153 0.0
C437 C 0.68569 0.11726 0.09999 0.0
H438 H 0.76208 0.0154 0.09636 0.0
C439 C 0.71974 0.15107 0.10861 0.0
C440 C 0.76924 0.13646 0.11287 0.0
H441 H 0.64793 0.12999 0.09686 0.0
H442 H 0.70711 0.18874 0.11194 0.0
C443 C 0.78388 0.0871 0.10833 0.0
C444 C 0.78247 0.92943 0.8499 0.0
C445 C 0.76801 0.87987 0.84567 0.0
H446 H 0.76052 1.00135 0.8616 0.0
C447 C 0.71871 0.8651 0.85023 0.0
H448 H 0.8201 0.94208 0.84646 0.0
C449 C 0.68465 0.89896 0.85883 0.0
C450 C 0.69895 0.94855 0.86303 0.0
H451 H 0.70622 0.82726 0.84714 0.0
H452 H 0.64705 0.88611 0.86221 0.0
C453 C 0.74823 0.96348 0.85845 0.0
C454 C 0.8739 0.92589 0.60863 0.0
C455 C 0.88865 0.87649 0.61304 0.0
H456 H 0.89553 0.99777 0.59678 0.0
C457 C 0.93812 0.86199 0.60865 0.0
H458 H 0.83614 0.93834 0.61193 0.0
C459 C 0.97206 0.89595 0.60003 0.0
C460 C 0.95748 0.94538 0.59566 0.0
H461 H 0.95082 0.82428 0.61188 0.0
H462 H 0.0098 0.88331 0.5968 0.0
C463 C 0.90803 0.96004 0.60007 0.0
C464 C 0.75026 0.42835 0.12611 0.0
C465 C 0.78105 0.39431 0.11532 0.0
H466 H 0.69295 0.48417 0.12361 0.0
C467 C 0.7832 0.39595 0.09324 0.0
H468 H 0.74794 0.4275 0.14317 0.0
C469 C 0.75072 0.42723 0.08208 0.0
C470 C 0.71699 0.45836 0.09289 0.0
H471 H 0.80628 0.36967 0.08459 0.0
H472 H 0.7496 0.42466 0.06503 0.0
C473 C 0.71898 0.46083 0.11495 0.0
C474 C 0.87571 0.39753 0.36479 0.0
C475 C 0.87851 0.39556 0.34273 0.0
H476 H 0.90863 0.42644 0.3931 0.0
C477 C 0.9098 0.42929 0.33201 0.0
H478 H 0.85223 0.3715 0.37338 0.0
C479 C 0.94091 0.46176 0.34325 0.0
C480 C 0.94222 0.45959 0.36533 0.0
H481 H 0.91263 0.42819 0.31497 0.0
H482 H 0.96733 0.48483 0.33468 0.0
C483 C 0.90802 0.42879 0.37604 0.0
C484 C 0.93965 0.55235 0.61538 0.0
C485 C 0.94112 0.55464 0.5933 0.0
H486 H 0.91118 0.58579 0.64367 0.0
C487 C 0.90702 0.58554 0.5826 0.0
H488 H 0.96598 0.5292 0.62395 0.0
C489 C 0.87465 0.61677 0.59385 0.0
C490 C 0.87729 0.61861 0.61591 0.0
H491 H 0.90776 0.58798 0.56554 0.0
H492 H 0.85128 0.64287 0.58526 0.0
C493 C 0.90848 0.58479 0.62663 0.0
C494 C 0.78154 0.61991 0.86537 0.0
C495 C 0.7793 0.62174 0.84329 0.0
H496 H 0.74801 0.59103 0.89357 0.0
C497 C 0.74839 0.58786 0.83248 0.0
H498 H 0.80472 0.64606 0.87402 0.0
C499 C 0.71709 0.55536 0.84364 0.0
C500 C 0.71521 0.55764 0.86571 0.0
H501 H 0.746 0.58886 0.81543 0.0
H502 H 0.69098 0.53215 0.83498 0.0
C503 C 0.74905 0.58861 0.87652 0.0
C504 C 0.4717 0.61822 0.85877 0.0
C505 C 0.45701 0.56888 0.86324 0.0
H506 H 0.45064 0.68984 0.84682 0.0
C507 C 0.40751 0.55432 0.85889 0.0
H508 H 0.5095 0.63079 0.86195 0.0
C509 C 0.37346 0.58849 0.85031 0.0
C510 C 0.38833 0.63779 0.8458 0.0
H511 H 0.39491 0.51665 0.86226 0.0
H512 H 0.33565 0.57611 0.84705 0.0
C513 C 0.43784 0.6522 0.85013 0.0
C514 C 0.24863 0.55066 0.6001 0.0
C515 C 0.19928 0.56557 0.59564 0.0
H516 H 0.32054 0.57203 0.61203 0.0
C517 C 0.18491 0.61506 0.6 0.0
H518 H 0.26098 0.51287 0.59682 0.0
C519 C 0.21894 0.64885 0.60863 0.0
C520 C 0.26831 0.63412 0.61307 0.0
H521 H 0.14725 0.62788 0.59672 0.0
H522 H 0.20639 0.68662 0.61184 0.0
C523 C 0.28285 0.58465 0.60869 0.0
C524 C 0.18583 0.39895 0.35885 0.0
C525 C 0.20033 0.44839 0.36322 0.0
H526 H 0.20714 0.32734 0.34699 0.0
C527 C 0.24974 0.46314 0.35878 0.0
H528 H 0.14812 0.38624 0.3621 0.0
C529 C 0.2839 0.42906 0.3502 0.0
C530 C 0.26923 0.37965 0.34579 0.0
H531 H 0.26218 0.50089 0.36208 0.0
H532 H 0.32163 0.44157 0.34687 0.0
C533 C 0.2198 0.36506 0.35021 0.0
C534 C 0.40939 0.46259 0.10026 0.0
C535 C 0.4588 0.44777 0.09584 0.0
H536 H 0.33743 0.44109 0.11211 0.0
C537 C 0.47323 0.39831 0.10022 0.0
H538 H 0.397 0.50036 0.09696 0.0
C539 C 0.43919 0.36444 0.10883 0.0
C540 C 0.38976 0.37909 0.11321 0.0
H541 H 0.51094 0.38555 0.09698 0.0
H542 H 0.45178 0.3267 0.11206 0.0
C543 C 0.37516 0.42854 0.10881 0.0
loop_
_geom_bond_atom_site_label_1
_geom_bond_atom_site_label_2
_geom_bond_distance
_geom_bond_site_symmetry_2
_ccdc_geom_bond_type
O0 Cd1 2.223 . S
O0 C8 1.315 1_655 S
Cd1 O0 2.223 . S
Cd1 O4 2.297 1_655 S
Cd1 O5 2.439 1_655 S
Cd1 O11 2.240 1_545 S
Cd2 O3 2.240 1_565 S
Cd2 O10 2.222 . S
Cd2 O12 2.297 . S
Cd2 O13 2.439 . S
O3 Cd2 2.240 1_545 S
O3 C8 1.279 . S
O4 Cd1 2.297 1_455 S
O4 C6 1.247 . S
O5 Cd1 2.439 1_455 S
O5 C6 1.208 . S
C6 O4 1.247 . S
C6 O5 1.208 . S
C7 O12 1.247 . S
C7 O13 1.208 . S
C8 O0 1.315 1_455 S
C8 O3 1.279 . S
C9 O10 1.316 1_655 S
C9 O11 1.279 . S
O10 Cd2 2.222 . S
O10 C9 1.316 1_455 S
O11 Cd1 2.240 1_565 S
O11 C9 1.279 . S
O12 Cd2 2.297 . S
O12 C7 1.247 . S
O13 Cd2 2.439 . S
O13 C7 1.208 . S
O14 Cd15 2.223 . S
O14 C22 1.315 . S
Cd15 O14 2.223 . S
Cd15 O18 2.297 . S
Cd15 O19 2.439 . S
Cd15 O25 2.240 . S
Cd16 O17 2.240 . S
Cd16 O24 2.223 . S
Cd16 O26 2.297 . S
Cd16 O27 2.439 . S
O17 Cd16 2.240 . S
O17 C22 1.279 . S
O18 Cd15 2.297 . S
O18 C20 1.247 . S
O19 Cd15 2.439 . S
O19 C20 1.208 . S
C20 O18 1.247 . S
C20 O19 1.208 . S
C21 O26 1.247 . S
C21 O27 1.208 . S
C22 O14 1.315 . S
C22 O17 1.279 . S
C23 O24 1.315 . S
C23 O25 1.279 . S
O24 Cd16 2.223 . S
O24 C23 1.315 . S
O25 Cd15 2.240 . S
O25 C23 1.279 . S
O26 Cd16 2.297 . S
O26 C21 1.247 . S
O27 Cd16 2.439 . S
O27 C21 1.208 . S
O28 Cd29 2.223 . S
O28 C36 1.315 . S
Cd29 O28 2.223 . S
Cd29 O32 2.297 . S
Cd29 O33 2.439 . S
Cd29 O39 2.240 1_565 S
Cd30 O31 2.240 1_545 S
Cd30 O38 2.223 . S
Cd30 O40 2.297 . S
Cd30 O41 2.439 . S
O31 Cd30 2.240 1_565 S
O31 C36 1.279 . S
O32 Cd29 2.297 . S
O32 C34 1.247 . S
O33 Cd29 2.439 . S
O33 C34 1.208 . S
C34 O32 1.247 . S
C34 O33 1.208 . S
C35 O40 1.247 . S
C35 O41 1.208 . S
C36 O28 1.315 . S
C36 O31 1.279 . S
C37 O38 1.315 . S
C37 O39 1.279 . S
O38 Cd30 2.223 . S
O38 C37 1.315 . S
O39 Cd29 2.240 1_545 S
O39 C37 1.279 . S
O40 Cd30 2.297 . S
O40 C35 1.247 . S
O41 Cd30 2.439 . S
O41 C35 1.208 . S
O42 Cd43 2.223 . S
O42 C50 1.315 . S
Cd43 O42 2.223 . S
Cd43 O46 2.297 . S
Cd43 O47 2.439 . S
Cd43 O53 2.240 . S
Cd44 O45 2.240 . S
Cd44 O52 2.223 . S
Cd44 O54 2.297 . S
Cd44 O55 2.439 . S
O45 Cd44 2.240 . S
O45 C50 1.279 . S
O46 Cd43 2.297 . S
O46 C48 1.247 . S
O47 Cd43 2.439 . S
O47 C48 1.208 . S
C48 O46 1.247 . S
C48 O47 1.208 . S
C49 O54 1.247 . S
C49 O55 1.208 . S
C50 O42 1.315 . S
C50 O45 1.279 . S
C51 O52 1.315 . S
C51 O53 1.279 . S
O52 Cd44 2.223 . S
O52 C51 1.315 . S
O53 Cd43 2.240 . S
O53 C51 1.279 . S
O54 Cd44 2.297 . S
O54 C49 1.247 . S
O55 Cd44 2.439 . S
O55 C49 1.208 . S
O56 Cd57 2.223 . S
O56 C64 1.315 1_655 S
Cd57 O56 2.223 . S
Cd57 O60 2.297 1_655 S
Cd57 O61 2.439 1_655 S
Cd57 O67 2.240 1_565 S
Cd58 O59 2.240 1_545 S
Cd58 O66 2.222 . S
Cd58 O68 2.297 . S
Cd58 O69 2.439 . S
O59 Cd58 2.240 1_565 S
O59 C64 1.279 . S
O60 Cd57 2.297 1_455 S
O60 C62 1.247 . S
O61 Cd57 2.439 1_455 S
O61 C62 1.208 . S
C62 O60 1.247 . S
C62 O61 1.208 . S
C63 O68 1.247 . S
C63 O69 1.208 . S
C64 O56 1.315 1_455 S
C64 O59 1.279 . S
C65 O66 1.316 1_655 S
C65 O67 1.279 . S
O66 Cd58 2.222 . S
O66 C65 1.316 1_455 S
O67 Cd57 2.240 1_545 S
O67 C65 1.279 . S
O68 Cd58 2.297 . S
O68 C63 1.247 . S
O69 Cd58 2.439 . S
O69 C63 1.208 . S
O70 Cd71 2.223 . S
O70 C78 1.315 . S
Cd71 O70 2.223 . S
Cd71 O74 2.297 . S
Cd71 O75 2.439 . S
Cd71 O81 2.240 . S
Cd72 O73 2.240 . S
Cd72 O80 2.223 . S
Cd72 O82 2.297 . S
Cd72 O83 2.439 . S
O73 Cd72 2.240 . S
O73 C78 1.279 . S
O74 Cd71 2.297 . S
O74 C76 1.247 . S
O75 Cd71 2.439 . S
O75 C76 1.208 . S
C76 O74 1.247 . S
C76 O75 1.208 . S
C77 O82 1.247 . S
C77 O83 1.208 . S
C78 O70 1.315 . S
C78 O73 1.279 . S
C79 O80 1.315 . S
C79 O81 1.279 . S
O80 Cd72 2.223 . S
O80 C79 1.315 . S
O81 Cd71 2.240 . S
O81 C79 1.279 . S
O82 Cd72 2.297 . S
O82 C77 1.247 . S
O83 Cd72 2.439 . S
O83 C77 1.208 . S
O84 Cd85 2.223 . S
O84 C92 1.315 . S
Cd85 O84 2.223 . S
Cd85 O88 2.297 . S
Cd85 O89 2.439 . S
Cd85 O95 2.240 1_545 S
Cd86 O87 2.240 1_565 S
Cd86 O94 2.223 . S
Cd86 O96 2.297 . S
Cd86 O97 2.439 . S
O87 Cd86 2.240 1_545 S
O87 C92 1.279 . S
O88 Cd85 2.297 . S
O88 C90 1.247 . S
O89 Cd85 2.439 . S
O89 C90 1.208 . S
C90 O88 1.247 . S
C90 O89 1.208 . S
C91 O96 1.247 . S
C91 O97 1.208 . S
C92 O84 1.315 . S
C92 O87 1.279 . S
C93 O94 1.315 . S
C93 O95 1.279 . S
O94 Cd86 2.223 . S
O94 C93 1.315 . S
O95 Cd85 2.240 1_565 S
O95 C93 1.279 . S
O96 Cd86 2.297 . S
O96 C91 1.247 . S
O97 Cd86 2.439 . S
O97 C91 1.208 . S
O98 Cd99 2.223 . S
O98 C106 1.315 . S
Cd99 O98 2.223 . S
Cd99 O102 2.297 . S
Cd99 O103 2.439 . S
Cd99 O109 2.240 . S
Cd100 O101 2.240 . S
Cd100 O108 2.223 . S
Cd100 O110 2.297 . S
Cd100 O111 2.439 . S
O101 Cd100 2.240 . S
O101 C106 1.279 . S
O102 Cd99 2.297 . S
O102 C104 1.247 . S
O103 Cd99 2.439 . S
O103 C104 1.208 . S
C104 O102 1.247 . S
C104 O103 1.208 . S
C105 O110 1.247 . S
C105 O111 1.208 . S
C106 O98 1.315 . S
C106 O101 1.279 . S
C107 O108 1.315 . S
C107 O109 1.279 . S
O108 Cd100 2.223 . S
O108 C107 1.315 . S
O109 Cd99 2.240 . S
O109 C107 1.279 . S
O110 Cd100 2.297 . S
O110 C105 1.247 . S
O111 Cd100 2.439 . S
O111 C105 1.208 . S
O112 Cd113 2.223 . S
O112 C120 1.315 . S
Cd113 O112 2.223 . S
Cd113 O116 2.297 . S
Cd113 O117 2.439 . S
Cd113 O123 2.240 . S
Cd114 O115 2.240 . S
Cd114 O122 2.223 . S
Cd114 O124 2.297 . S
Cd114 O125 2.439 . S
O115 Cd114 2.240 . S
O115 C120 1.279 . S
O116 Cd113 2.297 . S
O116 C118 1.247 . S
O117 Cd113 2.439 . S
O117 C118 1.208 . S
C118 O116 1.247 . S
C118 O117 1.208 . S
C119 O124 1.247 . S
C119 O125 1.208 . S
C120 O112 1.315 . S
C120 O115 1.279 . S
C121 O122 1.315 . S
C121 O123 1.279 . S
O122 Cd114 2.223 . S
O122 C121 1.315 . S
O123 Cd113 2.240 . S
O123 C121 1.279 . S
O124 Cd114 2.297 . S
O124 C119 1.247 . S
O125 Cd114 2.439 . S
O125 C119 1.208 . S
O126 Cd127 2.223 . S
O126 C134 1.315 . S
Cd127 O126 2.223 . S
Cd127 O130 2.297 . S
Cd127 O131 2.439 . S
Cd127 O137 2.240 . S
Cd128 O129 2.240 . S
Cd128 O136 2.223 . S
Cd128 O138 2.297 . S
Cd128 O139 2.439 . S
O129 Cd128 2.240 . S
O129 C134 1.279 . S
O130 Cd127 2.297 . S
O130 C132 1.247 . S
O131 Cd127 2.439 . S
O131 C132 1.208 . S
C132 O130 1.247 . S
C132 O131 1.208 . S
C133 O138 1.247 . S
C133 O139 1.208 . S
C134 O126 1.315 . S
C134 O129 1.279 . S
C135 O136 1.315 . S
C135 O137 1.279 . S
O136 Cd128 2.223 . S
O136 C135 1.315 . S
O137 Cd127 2.240 . S
O137 C135 1.279 . S
O138 Cd128 2.297 . S
O138 C133 1.247 . S
O139 Cd128 2.439 . S
O139 C133 1.208 . S
O140 Cd141 2.223 . S
O140 C148 1.315 . S
Cd141 O140 2.223 . S
Cd141 O144 2.297 . S
Cd141 O145 2.439 . S
Cd141 O151 2.240 . S
Cd142 O143 2.240 . S
Cd142 O150 2.223 . S
Cd142 O152 2.297 . S
Cd142 O153 2.439 . S
O143 Cd142 2.240 . S
O143 C148 1.279 . S
O144 Cd141 2.297 . S
O144 C146 1.247 . S
O145 Cd141 2.439 . S
O145 C146 1.208 . S
C146 O144 1.247 . S
C146 O145 1.208 . S
C147 O152 1.247 . S
C147 O153 1.208 . S
C148 O140 1.315 . S
C148 O143 1.279 . S
C149 O150 1.315 . S
C149 O151 1.279 . S
O150 Cd142 2.223 . S
O150 C149 1.315 . S
O151 Cd141 2.240 . S
O151 C149 1.279 . S
O152 Cd142 2.297 . S
O152 C147 1.247 . S
O153 Cd142 2.439 . S
O153 C147 1.208 . S
O154 Cd155 2.223 . S
O154 C162 1.315 . S
Cd155 O154 2.223 . S
Cd155 O158 2.297 . S
Cd155 O159 2.439 . S
Cd155 O165 2.240 . S
Cd156 O157 2.240 . S
Cd156 O164 2.223 . S
Cd156 O166 2.297 . S
Cd156 O167 2.439 . S
O157 Cd156 2.240 . S
O157 C162 1.279 . S
O158 Cd155 2.297 . S
O158 C160 1.247 . S
O159 Cd155 2.439 . S
O159 C160 1.208 . S
C160 O158 1.247 . S
C160 O159 1.208 . S
C161 O166 1.247 . S
C161 O167 1.208 . S
C162 O154 1.315 . S
C162 O157 1.279 . S
C163 O164 1.315 . S
C163 O165 1.279 . S
O164 Cd156 2.223 . S
O164 C163 1.315 . S
O165 Cd155 2.240 . S
O165 C163 1.279 . S
O166 Cd156 2.297 . S
O166 C161 1.247 . S
O167 Cd156 2.439 . S
O167 C161 1.208 . S
O168 Cd169 2.223 . S
O168 C176 1.315 . S
Cd169 O168 2.223 . S
Cd169 O172 2.297 . S
Cd169 O173 2.439 . S
Cd169 O179 2.240 . S
Cd170 O171 2.240 . S
Cd170 O178 2.223 . S
Cd170 O180 2.297 . S
Cd170 O181 2.439 . S
O171 Cd170 2.240 . S
O171 C176 1.279 . S
O172 Cd169 2.297 . S
O172 C174 1.247 . S
O173 Cd169 2.439 . S
O173 C174 1.208 . S
C174 O172 1.247 . S
C174 O173 1.208 . S
C175 O180 1.247 . S
C175 O181 1.208 . S
C176 O168 1.315 . S
C176 O171 1.279 . S
C177 O178 1.315 . S
C177 O179 1.279 . S
O178 Cd170 2.223 . S
O178 C177 1.315 . S
O179 Cd169 2.240 . S
O179 C177 1.279 . S
O180 Cd170 2.297 . S
O180 C175 1.247 . S
O181 Cd170 2.439 . S
O181 C175 1.208 . S
O182 Cd183 2.223 . S
O182 C190 1.315 . S
Cd183 O182 2.223 . S
Cd183 O186 2.297 . S
Cd183 O187 2.439 . S
Cd183 O193 2.240 . S
Cd184 O185 2.240 . S
Cd184 O192 2.223 . S
Cd184 O194 2.297 . S
Cd184 O195 2.439 . S
O185 Cd184 2.240 . S
O185 C190 1.279 . S
O186 Cd183 2.297 . S
O186 C188 1.247 . S
O187 Cd183 2.439 . S
O187 C188 1.208 . S
C188 O186 1.247 . S
C188 O187 1.208 . S
C189 O194 1.247 . S
C189 O195 1.208 . S
C190 O182 1.315 . S
C190 O185 1.279 . S
C191 O192 1.315 . S
C191 O193 1.279 . S
O192 Cd184 2.223 . S
O192 C191 1.315 . S
O193 Cd183 2.240 . S
O193 C191 1.279 . S
O194 Cd184 2.297 . S
O194 C189 1.247 . S
O195 Cd184 2.439 . S
O195 C189 1.208 . S
O196 Cd197 2.223 . S
O196 C204 1.315 . S
Cd197 O196 2.223 . S
Cd197 O200 2.297 . S
Cd197 O201 2.439 . S
Cd197 O207 2.240 . S
Cd198 O199 2.240 . S
Cd198 O206 2.223 . S
Cd198 O208 2.297 . S
Cd198 O209 2.439 . S
O199 Cd198 2.240 . S
O199 C204 1.279 . S
O200 Cd197 2.297 . S
O200 C202 1.247 . S
O201 Cd197 2.439 . S
O201 C202 1.208 . S
C202 O200 1.247 . S
C202 O201 1.208 . S
C203 O208 1.247 . S
C203 O209 1.208 . S
C204 O196 1.315 . S
C204 O199 1.279 . S
C205 O206 1.315 . S
C205 O207 1.279 . S
O206 Cd198 2.223 . S
O206 C205 1.315 . S
O207 Cd197 2.240 . S
O207 C205 1.279 . S
O208 Cd198 2.297 . S
O208 C203 1.247 . S
O209 Cd198 2.439 . S
O209 C203 1.208 . S
O210 Cd211 2.223 . S
O210 C218 1.315 . S
Cd211 O210 2.223 . S
Cd211 O214 2.297 . S
Cd211 O215 2.439 . S
Cd211 O221 2.240 . S
Cd212 O213 2.240 . S
Cd212 O220 2.223 . S
Cd212 O222 2.297 . S
Cd212 O223 2.439 . S
O213 Cd212 2.240 . S
O213 C218 1.279 . S
O214 Cd211 2.297 . S
O214 C216 1.247 . S
O215 Cd211 2.439 . S
O215 C216 1.208 . S
C216 O214 1.247 . S
C216 O215 1.208 . S
C217 O222 1.247 . S
C217 O223 1.208 . S
C218 O210 1.315 . S
C218 O213 1.279 . S
C219 O220 1.315 . S
C219 O221 1.279 . S
O220 Cd212 2.223 . S
O220 C219 1.315 . S
O221 Cd211 2.240 . S
O221 C219 1.279 . S
O222 Cd212 2.297 . S
O222 C217 1.247 . S
O223 Cd212 2.439 . S
O223 C217 1.208 . S
C224 C225 1.387 . S
C224 H228 0.950 . S
C224 C233 1.390 . S
C225 C224 1.387 . S
C225 C227 1.387 . S
H226 C233 0.950 . S
C227 C225 1.387 . S
C227 C229 1.390 . S
C227 H231 0.950 . S
H228 C224 0.950 . S
C229 C227 1.390 . S
C229 C230 1.387 . S
C229 H232 0.950 . S
C230 C229 1.387 . S
C230 C233 1.387 . S
H231 C227 0.950 . S
H232 C229 0.950 . S
C233 C224 1.390 . S
C233 H226 0.950 . S
C233 C230 1.387 . S
C234 C235 1.387 . S
C234 H238 0.950 . S
C234 C243 1.390 . S
C235 C234 1.387 . S
C235 C237 1.387 . S
H236 C243 0.950 . S
C237 C235 1.387 . S
C237 C239 1.390 . S
C237 H241 0.950 . S
H238 C234 0.950 . S
C239 C237 1.390 . S
C239 C240 1.387 . S
C239 H242 0.950 . S
C240 C239 1.387 . S
C240 C243 1.387 . S
H241 C237 0.950 . S
H242 C239 0.950 . S
C243 C234 1.390 . S
C243 H236 0.950 . S
C243 C240 1.387 . S
C244 C245 1.387 . S
C244 H248 0.950 . S
C244 C253 1.390 . S
C245 C244 1.387 . S
C245 C247 1.387 . S
H246 C253 0.950 . S
C247 C245 1.387 . S
C247 C249 1.390 . S
C247 H251 0.950 . S
H248 C244 0.950 . S
C249 C247 1.390 . S
C249 C250 1.387 . S
C249 H252 0.950 . S
C250 C249 1.387 . S
C250 C253 1.387 . S
H251 C247 0.950 . S
H252 C249 0.950 . S
C253 C244 1.390 . S
C253 H246 0.950 . S
C253 C250 1.387 . S
C254 C255 1.387 . S
C254 H258 0.950 . S
C254 C263 1.390 . S
C255 C254 1.387 . S
C255 C257 1.387 . S
H256 C263 0.950 . S
C257 C255 1.387 . S
C257 C259 1.390 . S
C257 H261 0.950 . S
H258 C254 0.950 . S
C259 C257 1.390 . S
C259 C260 1.387 . S
C259 H262 0.950 . S
C260 C259 1.387 . S
C260 C263 1.387 . S
H261 C257 0.950 . S
H262 C259 0.950 . S
C263 C254 1.390 . S
C263 H256 0.950 . S
C263 C260 1.387 . S
C264 C265 1.387 . S
C264 H268 0.950 . S
C264 C273 1.390 . S
C265 C264 1.387 . S
C265 C267 1.387 . S
H266 C273 0.950 . S
C267 C265 1.387 . S
C267 C269 1.390 . S
C267 H271 0.950 . S
H268 C264 0.950 . S
C269 C267 1.390 . S
C269 C270 1.387 . S
C269 H272 0.950 . S
C270 C269 1.387 . S
C270 C273 1.387 . S
H271 C267 0.950 . S
H272 C269 0.950 . S
C273 C264 1.390 . S
C273 H266 0.950 . S
C273 C270 1.387 . S
C274 C275 1.387 . S
C274 H278 0.950 . S
C274 C283 1.390 . S
C275 C274 1.387 . S
C275 C277 1.387 . S
H276 C283 0.950 . S
C277 C275 1.387 . S
C277 C279 1.390 . S
C277 H281 0.950 . S
H278 C274 0.950 . S
C279 C277 1.390 . S
C279 C280 1.387 . S
C279 H282 0.950 . S
C280 C279 1.387 . S
C280 C283 1.387 . S
H281 C277 0.950 . S
H282 C279 0.950 . S
C283 C274 1.390 . S
C283 H276 0.950 . S
C283 C280 1.387 . S
C284 C285 1.387 . S
C284 H288 0.950 . S
C284 C293 1.390 . S
C285 C284 1.387 . S
C285 C287 1.387 . S
H286 C293 0.950 . S
C287 C285 1.387 . S
C287 C289 1.390 . S
C287 H291 0.950 . S
H288 C284 0.950 . S
C289 C287 1.390 . S
C289 C290 1.387 . S
C289 H292 0.950 . S
C290 C289 1.387 . S
C290 C293 1.387 . S
H291 C287 0.950 . S
H292 C289 0.950 . S
C293 C284 1.390 . S
C293 H286 0.950 . S
C293 C290 1.387 . S
C294 C295 1.387 . S
C294 H298 0.950 . S
C294 C303 1.390 . S
C295 C294 1.387 . S
C295 C297 1.387 . S
H296 C303 0.950 . S
C297 C295 1.387 . S
C297 C299 1.390 . S
C297 H301 0.950 . S
H298 C294 0.950 . S
C299 C297 1.390 . S
C299 C300 1.387 . S
C299 H302 0.950 . S
C300 C299 1.387 . S
C300 C303 1.387 . S
H301 C297 0.950 . S
H302 C299 0.950 . S
C303 C294 1.390 . S
C303 H296 0.950 . S
C303 C300 1.387 . S
C304 C305 1.390 1_655 S
C304 H308 0.950 . S
C304 C313 1.390 1_565 S
C305 C304 1.390 1_455 S
C305 C307 1.385 . S
H306 C313 0.950 . S
C307 C305 1.385 . S
C307 C309 1.390 1_565 S
C307 H311 0.950 . S
H308 C304 0.950 . S
C309 C307 1.390 1_545 S
C309 C310 1.385 . S
C309 H312 0.950 . S
C310 C309 1.385 . S
C310 C313 1.390 1_455 S
H311 C307 0.950 . S
H312 C309 0.950 . S
C313 C304 1.390 1_545 S
C313 H306 0.950 . S
C313 C310 1.390 1_655 S
C314 C315 1.387 . S
C314 H318 0.950 . S
C314 C323 1.390 . S
C315 C314 1.387 . S
C315 C317 1.387 . S
H316 C323 0.950 . S
C317 C315 1.387 . S
C317 C319 1.390 . S
C317 H321 0.950 . S
H318 C314 0.950 . S
C319 C317 1.390 . S
C319 C320 1.387 . S
C319 H322 0.950 . S
C320 C319 1.387 . S
C320 C323 1.387 . S
H321 C317 0.950 . S
H322 C319 0.950 . S
C323 C314 1.390 . S
C323 H316 0.950 . S
C323 C320 1.387 . S
C324 C325 1.387 . S
C324 H328 0.950 . S
C324 C333 1.390 1_564 S
C325 C324 1.387 . S
C325 C327 1.387 . S
H326 C333 0.950 . S
C327 C325 1.387 . S
C327 C329 1.390 1_564 S
C327 H331 0.950 . S
H328 C324 0.950 . S
C329 C327 1.390 1_546 S
C329 C330 1.387 . S
C329 H332 0.950 . S
C330 C329 1.387 . S
C330 C333 1.387 . S
H331 C327 0.950 . S
H332 C329 0.950 . S
C333 C324 1.390 1_546 S
C333 H326 0.950 . S
C333 C330 1.387 . S
C334 C335 1.387 . S
C334 H338 0.950 . S
C334 C343 1.390 . S
C335 C334 1.387 . S
C335 C337 1.387 . S
H336 C343 0.950 . S
C337 C335 1.387 . S
C337 C339 1.390 . S
C337 H341 0.950 . S
H338 C334 0.950 . S
C339 C337 1.390 . S
C339 C340 1.387 . S
C339 H342 0.950 . S
C340 C339 1.387 . S
C340 C343 1.387 . S
H341 C337 0.950 . S
H342 C339 0.950 . S
C343 C334 1.390 . S
C343 H336 0.950 . S
C343 C340 1.387 . S
C344 C345 1.387 . S
C344 H348 0.950 . S
C344 C353 1.390 . S
C345 C344 1.387 . S
C345 C347 1.387 . S
H346 C353 0.950 . S
C347 C345 1.387 . S
C347 C349 1.390 . S
C347 H351 0.950 . S
H348 C344 0.950 . S
C349 C347 1.390 . S
C349 C350 1.387 . S
C349 H352 0.950 . S
C350 C349 1.387 . S
C350 C353 1.387 . S
H351 C347 0.950 . S
H352 C349 0.950 . S
C353 C344 1.390 . S
C353 H346 0.950 . S
C353 C350 1.387 . S
C354 C355 1.387 . S
C354 H358 0.950 . S
C354 C363 1.390 . S
C355 C354 1.387 . S
C355 C357 1.387 . S
H356 C363 0.950 . S
C357 C355 1.387 . S
C357 C359 1.390 . S
C357 H361 0.950 . S
H358 C354 0.950 . S
C359 C357 1.390 . S
C359 C360 1.387 . S
C359 H362 0.950 . S
C360 C359 1.387 . S
C360 C363 1.387 . S
H361 C357 0.950 . S
H362 C359 0.950 . S
C363 C354 1.390 . S
C363 H356 0.950 . S
C363 C360 1.387 . S
C364 C365 1.387 . S
C364 H368 0.950 . S
C364 C373 1.390 1_556 S
C365 C364 1.387 . S
C365 C367 1.387 . S
H366 C373 0.950 . S
C367 C365 1.387 . S
C367 C369 1.390 1_556 S
C367 H371 0.950 . S
H368 C364 0.950 . S
C369 C367 1.390 1_554 S
C369 C370 1.387 . S
C369 H372 0.950 . S
C370 C369 1.387 . S
C370 C373 1.387 . S
H371 C367 0.950 . S
H372 C369 0.950 . S
C373 C364 1.390 1_554 S
C373 H366 0.950 . S
C373 C370 1.387 . S
C374 C375 1.387 . S
C374 H378 0.950 . S
C374 C383 1.390 . S
C375 C374 1.387 . S
C375 C377 1.387 . S
H376 C383 0.950 . S
C377 C375 1.387 . S
C377 C379 1.390 . S
C377 H381 0.950 . S
H378 C374 0.950 . S
C379 C377 1.390 . S
C379 C380 1.387 . S
C379 H382 0.950 . S
C380 C379 1.387 . S
C380 C383 1.387 . S
H381 C377 0.950 . S
H382 C379 0.950 . S
C383 C374 1.390 . S
C383 H376 0.950 . S
C383 C380 1.387 . S
C384 C385 1.387 . S
C384 H388 0.950 . S
C384 C393 1.390 . S
C385 C384 1.387 . S
C385 C387 1.387 . S
H386 C393 0.950 . S
C387 C385 1.387 . S
C387 C389 1.390 . S
C387 H391 0.950 . S
H388 C384 0.950 . S
C389 C387 1.390 . S
C389 C390 1.387 . S
C389 H392 0.950 . S
C390 C389 1.387 . S
C390 C393 1.387 . S
H391 C387 0.950 . S
H392 C389 0.950 . S
C393 C384 1.390 . S
C393 H386 0.950 . S
C393 C390 1.387 . S
C394 C395 1.387 . S
C394 H398 0.950 . S
C394 C403 1.390 . S
C395 C394 1.387 . S
C395 C397 1.387 . S
H396 C403 0.950 . S
C397 C395 1.387 . S
C397 C399 1.390 . S
C397 H401 0.950 . S
H398 C394 0.950 . S
C399 C397 1.390 . S
C399 C400 1.387 . S
C399 H402 0.950 . S
C400 C399 1.387 . S
C400 C403 1.387 . S
H401 C397 0.950 . S
H402 C399 0.950 . S
C403 C394 1.390 . S
C403 H396 0.950 . S
C403 C400 1.387 . S
C404 C405 1.387 . S
C404 H408 0.950 . S
C404 C413 1.390 . S
C405 C404 1.387 . S
C405 C407 1.387 . S
H406 C413 0.950 . S
C407 C405 1.387 . S
C407 C409 1.390 . S
C407 H411 0.950 . S
H408 C404 0.950 . S
C409 C407 1.390 . S
C409 C410 1.387 . S
C409 H412 0.950 . S
C410 C409 1.387 . S
C410 C413 1.387 . S
H411 C407 0.950 . S
H412 C409 0.950 . S
C413 C404 1.390 . S
C413 H406 0.950 . S
C413 C410 1.387 . S
C414 C415 1.387 . S
C414 H418 0.950 . S
C414 C423 1.390 . S
C415 C414 1.387 . S
C415 C417 1.387 . S
H416 C423 0.950 . S
C417 C415 1.387 . S
C417 C419 1.390 . S
C417 H421 0.950 . S
H418 C414 0.950 . S
C419 C417 1.390 . S
C419 C420 1.387 . S
C419 H422 0.950 . S
C420 C419 1.387 . S
C420 C423 1.387 . S
H421 C417 0.950 . S
H422 C419 0.950 . S
C423 C414 1.390 . S
C423 H416 0.950 . S
C423 C420 1.387 . S
C424 C425 1.387 . S
C424 H428 0.950 . S
C424 C433 1.390 . S
C425 C424 1.387 . S
C425 C427 1.387 . S
H426 C433 0.950 . S
C427 C425 1.387 . S
C427 C429 1.390 . S
C427 H431 0.950 . S
H428 C424 0.950 . S
C429 C427 1.390 . S
C429 C430 1.387 . S
C429 H432 0.950 . S
C430 C429 1.387 . S
C430 C433 1.387 . S
H431 C427 0.950 . S
H432 C429 0.950 . S
C433 C424 1.390 . S
C433 H426 0.950 . S
C433 C430 1.387 . S
C434 C435 1.387 . S
C434 H438 0.950 . S
C434 C443 1.390 . S
C435 C434 1.387 . S
C435 C437 1.387 . S
H436 C443 0.950 . S
C437 C435 1.387 . S
C437 C439 1.390 . S
C437 H441 0.950 . S
H438 C434 0.950 . S
C439 C437 1.390 . S
C439 C440 1.387 . S
C439 H442 0.950 . S
C440 C439 1.387 . S
C440 C443 1.387 . S
H441 C437 0.950 . S
H442 C439 0.950 . S
C443 C434 1.390 . S
C443 H436 0.950 . S
C443 C440 1.387 . S
C444 C445 1.387 . S
C444 H448 0.950 . S
C444 C453 1.390 . S
C445 C444 1.387 . S
C445 C447 1.387 . S
H446 C453 0.950 . S
C447 C445 1.387 . S
C447 C449 1.390 . S
C447 H451 0.950 . S
H448 C444 0.950 . S
C449 C447 1.390 . S
C449 C450 1.387 . S
C449 H452 0.950 . S
C450 C449 1.387 . S
C450 C453 1.387 . S
H451 C447 0.950 . S
H452 C449 0.950 . S
C453 C444 1.390 . S
C453 H446 0.950 . S
C453 C450 1.387 . S
C454 C455 1.387 . S
C454 H458 0.950 . S
C454 C463 1.390 . S
C455 C454 1.387 . S
C455 C457 1.387 . S
H456 C463 0.950 . S
C457 C455 1.387 . S
C457 C459 1.390 . S
C457 H461 0.950 . S
H458 C454 0.950 . S
C459 C457 1.390 . S
C459 C460 1.387 . S
C459 H462 0.950 . S
C460 C459 1.387 . S
C460 C463 1.387 . S
H461 C457 0.950 . S
H462 C459 0.950 . S
C463 C454 1.390 . S
C463 H456 0.950 . S
C463 C460 1.387 . S
C464 C465 1.387 . S
C464 H468 0.950 . S
C464 C473 1.390 . S
C465 C464 1.387 . S
C465 C467 1.387 . S
H466 C473 0.950 . S
C467 C465 1.387 . S
C467 C469 1.390 . S
C467 H471 0.950 . S
H468 C464 0.950 . S
C469 C467 1.390 . S
C469 C470 1.387 . S
C469 H472 0.950 . S
C470 C469 1.387 . S
C470 C473 1.387 . S
H471 C467 0.950 . S
H472 C469 0.950 . S
C473 C464 1.390 . S
C473 H466 0.950 . S
C473 C470 1.387 . S
C474 C475 1.387 . S
C474 H478 0.950 . S
C474 C483 1.390 . S
C475 C474 1.387 . S
C475 C477 1.387 . S
H476 C483 0.950 . S
C477 C475 1.387 . S
C477 C479 1.390 . S
C477 H481 0.950 . S
H478 C474 0.950 . S
C479 C477 1.390 . S
C479 C480 1.387 . S
C479 H482 0.950 . S
C480 C479 1.387 . S
C480 C483 1.387 . S
H481 C477 0.950 . S
H482 C479 0.950 . S
C483 C474 1.390 . S
C483 H476 0.950 . S
C483 C480 1.387 . S
C484 C485 1.387 . S
C484 H488 0.950 . S
C484 C493 1.390 . S
C485 C484 1.387 . S
C485 C487 1.387 . S
H486 C493 0.950 . S
C487 C485 1.387 . S
C487 C489 1.390 . S
C487 H491 0.950 . S
H488 C484 0.950 . S
C489 C487 1.390 . S
C489 C490 1.387 . S
C489 H492 0.950 . S
C490 C489 1.387 . S
C490 C493 1.387 . S
H491 C487 0.950 . S
H492 C489 0.950 . S
C493 C484 1.390 . S
C493 H486 0.950 . S
C493 C490 1.387 . S
C494 C495 1.387 . S
C494 H498 0.950 . S
C494 C503 1.390 . S
C495 C494 1.387 . S
C495 C497 1.387 . S
H496 C503 0.950 . S
C497 C495 1.387 . S
C497 C499 1.390 . S
C497 H501 0.950 . S
H498 C494 0.950 . S
C499 C497 1.390 . S
C499 C500 1.387 . S
C499 H502 0.950 . S
C500 C499 1.387 . S
C500 C503 1.387 . S
H501 C497 0.950 . S
H502 C499 0.950 . S
C503 C494 1.390 . S
C503 H496 0.950 . S
C503 C500 1.387 . S
C504 C505 1.387 . S
C504 H508 0.950 . S
C504 C513 1.390 . S
C505 C504 1.387 . S
C505 C507 1.387 . S
H506 C513 0.950 . S
C507 C505 1.387 . S
C507 C509 1.390 . S
C507 H511 0.950 . S
H508 C504 0.950 . S
C509 C507 1.390 . S
C509 C510 1.387 . S
C509 H512 0.950 . S
C510 C509 1.387 . S
C510 C513 1.387 . S
H511 C507 0.950 . S
H512 C509 0.950 . S
C513 C504 1.390 . S
C513 H506 0.950 . S
C513 C510 1.387 . S
C514 C515 1.387 . S
C514 H518 0.950 . S
C514 C523 1.390 . S
C515 C514 1.387 . S
C515 C517 1.387 . S
H516 C523 0.950 . S
C517 C515 1.387 . S
C517 C519 1.390 . S
C517 H521 0.950 . S
H518 C514 0.950 . S
C519 C517 1.390 . S
C519 C520 1.387 . S
C519 H522 0.950 . S
C520 C519 1.387 . S
C520 C523 1.387 . S
H521 C517 0.950 . S
H522 C519 0.950 . S
C523 C514 1.390 . S
C523 H516 0.950 . S
C523 C520 1.387 . S
C524 C525 1.387 . S
C524 H528 0.950 . S
C524 C533 1.390 . S
C525 C524 1.387 . S
C525 C527 1.387 . S
H526 C533 0.950 . S
C527 C525 1.387 . S
C527 C529 1.390 . S
C527 H531 0.950 . S
H528 C524 0.950 . S
C529 C527 1.390 . S
C529 C530 1.387 . S
C529 H532 0.950 . S
C530 C529 1.387 . S
C530 C533 1.387 . S
H531 C527 0.950 . S
H532 C529 0.950 . S
C533 C524 1.390 . S
C533 H526 0.950 . S
C533 C530 1.387 . S
C534 C535 1.387 . S
C534 H538 0.950 . S
C534 C543 1.390 . S
C535 C534 1.387 . S
C535 C537 1.387 . S
H536 C543 0.950 . S
C537 C535 1.387 . S
C537 C539 1.390 . S
C537 H541 0.950 . S
H538 C534 0.950 . S
C539 C537 1.390 . S
C539 C540 1.387 . S
C539 H542 0.950 . S
C540 C539 1.387 . S
C540 C543 1.387 . S
H541 C537 0.950 . S
H542 C539 0.950 . S
C543 C534 1.390 . S
C543 H536 0.950 . S
C543 C540 1.387 . S
C225 C6 1.414 . S
C230 C188 1.414 . S
C235 C160 1.411 1_455 S
C240 C20 1.411 . S
C245 C174 1.414 . S
C250 C34 1.414 . S
C255 C146 1.411 . S
C260 C48 1.411 . S
C265 C62 1.411 . S
C270 C216 1.411 . S
C275 C76 1.411 . S
C280 C132 1.411 . S
C285 C202 1.411 . S
C290 C90 1.411 . S
C295 C104 1.414 . S
C300 C118 1.414 1_455 S
C305 C64 1.767 . S
C310 C8 1.767 . S
C315 C22 1.767 . S
C320 C78 1.767 . S
C325 C36 1.766 . S
C330 C92 1.766 . S
C335 C106 1.767 . S
C340 C50 1.767 . S
C345 C120 1.767 . S
C350 C148 1.767 . S
C355 C134 1.767 . S
C360 C162 1.767 . S
C365 C204 1.767 . S
C370 C176 1.767 . S
C375 C190 1.767 . S
C380 C218 1.767 . S
C385 C77 1.488 . S
C390 C7 1.486 . S
C395 C21 1.488 . S
C400 C91 1.486 . S
C405 C35 1.488 . S
C410 C105 1.486 . S
C415 C63 1.488 . S
C420 C49 1.486 . S
C425 C65 1.419 . S
C430 C149 1.417 . S
C435 C37 1.416 . S
C440 C121 1.416 . S
C445 C163 1.418 . S
C450 C93 1.416 . S
C455 C135 1.419 . S
C460 C9 1.416 . S
C465 C119 1.486 . S
C470 C175 1.488 . S
C475 C147 1.488 . S
C480 C217 1.486 1_655 S
C485 C189 1.488 1_655 S
C490 C133 1.486 . S
C495 C161 1.488 . S
C500 C203 1.486 . S
C505 C205 1.419 . S
C510 C23 1.418 . S
C515 C191 1.416 . S
C520 C79 1.417 . S
C525 C219 1.419 . S
C530 C51 1.418 . S
C535 C177 1.416 . S
C540 C107 1.417 . S
