# Generated by pormake.
# Topology umc, (4)-cn, num edge types: 1
# Building blocks:
#     Node 0, Type 0, BuildingBlock: GALJAG_clean_sbu_0, # of connection points: 4
#     Node 1, Type 0, BuildingBlock: GALJAG_clean_sbu_0, # of connection points: 4
#     Node 2, Type 0, BuildingBlock: GALJAG_clean_sbu_0, # of connection points: 4
#     Node 3, Type 0, BuildingBlock: GALJAG_clean_sbu_0, # of connection points: 4
#     Node 4, Type 0, BuildingBlock: GALJAG_clean_sbu_0, # of connection points: 4
#     Node 5, Type 0, BuildingBlock: GALJAG_clean_sbu_0, # of connection points: 4
#     Node 6, Type 0, BuildingBlock: GALJAG_clean_sbu_0, # of connection points: 4
#     Node 7, Type 0, BuildingBlock: GALJAG_clean_sbu_0, # of connection points: 4
#     Node 8, Type 0, BuildingBlock: GALJAG_clean_sbu_0, # of connection points: 4
#     Node 9, Type 0, BuildingBlock: GALJAG_clean_sbu_0, # of connection points: 4
#     Node 10, Type 0, BuildingBlock: GALJAG_clean_sbu_0, # of connection points: 4
#     Node 11, Type 0, BuildingBlock: GALJAG_clean_sbu_0, # of connection points: 4
#     Node 12, Type 0, BuildingBlock: GALJAG_clean_sbu_0, # of connection points: 4
#     Node 13, Type 0, BuildingBlock: GALJAG_clean_sbu_0, # of connection points: 4
#     Node 14, Type 0, BuildingBlock: GALJAG_clean_sbu_0, # of connection points: 4
#     Node 15, Type 0, BuildingBlock: GALJAG_clean_sbu_0, # of connection points: 4
#     Edge 16, Type (0, 0), BuildingBlock: KIFKEQ_clean_linker_1, # of connection points: 2
#     Edge 17, Type (0, 0), BuildingBlock: KIFKEQ_clean_linker_1, # of connection points: 2
#     Edge 18, Type (0, 0), BuildingBlock: KIFKEQ_clean_linker_1, # of connection points: 2
#     Edge 19, Type (0, 0), BuildingBlock: KIFKEQ_clean_linker_1, # of connection points: 2
#     Edge 20, Type (0, 0), BuildingBlock: KIFKEQ_clean_linker_1, # of connection points: 2
#     Edge 21, Type (0, 0), BuildingBlock: KIFKEQ_clean_linker_1, # of connection points: 2
#     Edge 22, Type (0, 0), BuildingBlock: KIFKEQ_clean_linker_1, # of connection points: 2
#     Edge 23, Type (0, 0), BuildingBlock: KIFKEQ_clean_linker_1, # of connection points: 2
#     Edge 24, Type (0, 0), BuildingBlock: KIFKEQ_clean_linker_1, # of connection points: 2
#     Edge 25, Type (0, 0), BuildingBlock: KIFKEQ_clean_linker_1, # of connection points: 2
#     Edge 26, Type (0, 0), BuildingBlock: KIFKEQ_clean_linker_1, # of connection points: 2
#     Edge 27, Type (0, 0), BuildingBlock: KIFKEQ_clean_linker_1, # of connection points: 2
#     Edge 28, Type (0, 0), BuildingBlock: KIFKEQ_clean_linker_1, # of connection points: 2
#     Edge 29, Type (0, 0), BuildingBlock: KIFKEQ_clean_linker_1, # of connection points: 2
#     Edge 30, Type (0, 0), BuildingBlock: KIFKEQ_clean_linker_1, # of connection points: 2
#     Edge 31, Type (0, 0), BuildingBlock: KIFKEQ_clean_linker_1, # of connection points: 2
#     Edge 32, Type (0, 0), BuildingBlock: KIFKEQ_clean_linker_1, # of connection points: 2
#     Edge 33, Type (0, 0), BuildingBlock: KIFKEQ_clean_linker_1, # of connection points: 2
#     Edge 34, Type (0, 0), BuildingBlock: KIFKEQ_clean_linker_1, # of connection points: 2
#     Edge 35, Type (0, 0), BuildingBlock: KIFKEQ_clean_linker_1, # of connection points: 2
#     Edge 36, Type (0, 0), BuildingBlock: KIFKEQ_clean_linker_1, # of connection points: 2
#     Edge 37, Type (0, 0), BuildingBlock: KIFKEQ_clean_linker_1, # of connection points: 2
#     Edge 38, Type (0, 0), BuildingBlock: KIFKEQ_clean_linker_1, # of connection points: 2
#     Edge 39, Type (0, 0), BuildingBlock: KIFKEQ_clean_linker_1, # of connection points: 2
#     Edge 40, Type (0, 0), BuildingBlock: KIFKEQ_clean_linker_1, # of connection points: 2
#     Edge 41, Type (0, 0), BuildingBlock: KIFKEQ_clean_linker_1, # of connection points: 2
#     Edge 42, Type (0, 0), BuildingBlock: KIFKEQ_clean_linker_1, # of connection points: 2
#     Edge 43, Type (0, 0), BuildingBlock: KIFKEQ_clean_linker_1, # of connection points: 2
#     Edge 44, Type (0, 0), BuildingBlock: KIFKEQ_clean_linker_1, # of connection points: 2
#     Edge 45, Type (0, 0), BuildingBlock: KIFKEQ_clean_linker_1, # of connection points: 2
#     Edge 46, Type (0, 0), BuildingBlock: KIFKEQ_clean_linker_1, # of connection points: 2
#     Edge 47, Type (0, 0), BuildingBlock: KIFKEQ_clean_linker_1, # of connection points: 2
# Relax obj value: 0.064
# Max RMSD: 0.131
# Mean RMSD: 0.131
data_MOF--net-umc--node1-GALJAG_clean_sbu_0--edge1-KIFKEQ_clean_linker_1
_symmetry_space_group_name_H-M    P1
_symmetry_Int_Tables_number       1
_symmetry_cell_setting            triclinic
loop_
_symmetry_equiv_pos_as_xyz
'x, y, z'
_cell_length_a     42.118751
_cell_length_b     38.72798
_cell_length_c     57.799288
_cell_angle_alpha  89.903573
_cell_angle_beta   90.006853
_cell_angle_gamma 90.001597
loop_
_atom_site_label
_atom_site_type_symbol
_atom_site_fract_x
_atom_site_fract_y
_atom_site_fract_z
_atom_type_partial_charge
In0 In 0.33791 0.06923 0.36467 0.0
O1 O 0.34287 0.12796 0.36186 0.0
O2 O 0.29767 0.10686 0.37056 0.0
C3 C 0.3969 0.04417 0.35823 0.0
C4 C 0.3314 0.05288 0.4096 0.0
C5 C 0.31188 0.04847 0.32459 0.0
O6 O 0.39104 0.07625 0.35786 0.0
O7 O 0.373 0.02509 0.36153 0.0
O8 O 0.30682 0.03235 0.34332 0.0
O9 O 0.32967 0.07449 0.32641 0.0
C10 C 0.31396 0.13356 0.36657 0.0
O11 O 0.31144 0.04271 0.39469 0.0
O12 O 0.35393 0.07083 0.4017 0.0
In13 In 0.67975 0.92521 0.36623 0.0
O14 O 0.7023 0.95406 0.39689 0.0
O15 O 0.66711 0.9156 0.40336 0.0
C16 C 0.70497 0.94952 0.32675 0.0
C17 C 0.70661 0.86231 0.3666 0.0
C18 C 0.6199 0.94862 0.36068 0.0
O19 O 0.70987 0.96435 0.34594 0.0
O20 O 0.68792 0.92281 0.32782 0.0
O21 O 0.62681 0.91698 0.35849 0.0
O22 O 0.64307 0.96796 0.36548 0.0
C23 C 0.68595 0.93766 0.41169 0.0
O24 O 0.67736 0.86663 0.36237 0.0
O25 O 0.722 0.88968 0.37057 0.0
In26 In 0.33662 0.93705 0.12549 0.0
O27 O 0.34081 0.87828 0.12853 0.0
O28 O 0.2957 0.89999 0.12028 0.0
C29 C 0.39621 0.96125 0.13051 0.0
C30 C 0.32908 0.95257 0.08055 0.0
C31 C 0.31187 0.95854 0.16582 0.0
O32 O 0.38986 0.9293 0.1313 0.0
O33 O 0.37247 0.98071 0.12761 0.0
O34 O 0.30631 0.9744 0.14706 0.0
O35 O 0.32961 0.93248 0.16392 0.0
C36 C 0.31175 0.87307 0.12413 0.0
O37 O 0.30987 0.96376 0.09565 0.0
O38 O 0.35136 0.93412 0.0883 0.0
In39 In 0.68377 0.06883 0.12666 0.0
O40 O 0.68096 0.12754 0.12382 0.0
O41 O 0.72584 0.10456 0.13147 0.0
C42 C 0.62187 0.04996 0.12645 0.0
C43 C 0.70211 0.05022 0.0838 0.0
C44 C 0.70256 0.04629 0.16855 0.0
O45 O 0.63042 0.08064 0.13055 0.0
O46 O 0.64434 0.02946 0.12225 0.0
O47 O 0.71422 0.03421 0.15008 0.0
O48 O 0.6816 0.06913 0.16567 0.0
C49 C 0.71022 0.13193 0.12798 0.0
O50 O 0.70418 0.02968 0.10076 0.0
O51 O 0.69126 0.07967 0.08859 0.0
In52 In 0.66871 0.93749 0.62864 0.0
O53 O 0.69647 0.9639 0.59909 0.0
O54 O 0.65368 0.93678 0.59143 0.0
C55 C 0.69218 0.95857 0.66938 0.0
C56 C 0.69357 0.87357 0.62749 0.0
C57 C 0.60934 0.96133 0.63494 0.0
O58 O 0.698 0.97493 0.65084 0.0
O59 O 0.67485 0.93226 0.66704 0.0
O60 O 0.61584 0.92942 0.63579 0.0
O61 O 0.6328 0.98088 0.63118 0.0
C62 C 0.67664 0.95438 0.5839 0.0
O63 O 0.66388 0.87861 0.62818 0.0
O64 O 0.71025 0.90063 0.62702 0.0
In65 In 0.32479 0.075 0.62808 0.0
O66 O 0.32595 0.1335 0.63241 0.0
O67 O 0.28177 0.10946 0.62406 0.0
C68 C 0.38485 0.05242 0.6336 0.0
C69 C 0.31972 0.06407 0.58238 0.0
C70 C 0.29969 0.04986 0.66735 0.0
O71 O 0.3775 0.08391 0.63607 0.0
O72 O 0.36197 0.03279 0.62856 0.0
O73 O 0.29424 0.03577 0.64797 0.0
O74 O 0.31729 0.07617 0.66655 0.0
C75 C 0.29661 0.13714 0.62821 0.0
O76 O 0.30395 0.04618 0.59674 0.0
O77 O 0.33745 0.08674 0.59126 0.0
In78 In 0.66914 0.05877 0.87238 0.0
O79 O 0.66206 0.11755 0.87172 0.0
O80 O 0.70822 0.09778 0.87866 0.0
C81 C 0.60921 0.03535 0.86759 0.0
C82 C 0.6833 0.03658 0.91532 0.0
C83 C 0.69245 0.04069 0.83072 0.0
O84 O 0.61558 0.06722 0.86898 0.0
O85 O 0.63301 0.01557 0.8686 0.0
O86 O 0.69765 0.02276 0.84863 0.0
O87 O 0.67578 0.06722 0.83403 0.0
C88 C 0.69095 0.12403 0.87585 0.0
O89 O 0.70214 0.03237 0.89853 0.0
O90 O 0.65756 0.0515 0.91034 0.0
In91 In 0.32392 0.92156 0.86339 0.0
O92 O 0.30186 0.95203 0.89354 0.0
O93 O 0.33234 0.90928 0.90075 0.0
C94 C 0.30127 0.946 0.82313 0.0
C95 C 0.29567 0.85941 0.8628 0.0
C96 C 0.38441 0.94418 0.86092 0.0
O97 O 0.29347 0.95939 0.84229 0.0
O98 O 0.32019 0.92085 0.82458 0.0
O99 O 0.37726 0.91282 0.85758 0.0
O100 O 0.36114 0.96369 0.86515 0.0
C101 C 0.31523 0.93325 0.90868 0.0
O102 O 0.32528 0.8629 0.85966 0.0
O103 O 0.28063 0.88722 0.86602 0.0
In104 In 0.83664 0.56406 0.36888 0.0
O105 O 0.81044 0.53642 0.39855 0.0
O106 O 0.84955 0.56935 0.40638 0.0
C107 C 0.81161 0.54195 0.3288 0.0
C108 C 0.81126 0.62778 0.36967 0.0
C109 C 0.89654 0.54093 0.36309 0.0
O110 O 0.82852 0.56865 0.33057 0.0
O111 O 0.80693 0.5258 0.34757 0.0
O112 O 0.88957 0.57268 0.36199 0.0
O113 O 0.87335 0.52113 0.36708 0.0
C114 C 0.82798 0.54973 0.41395 0.0
O115 O 0.8405 0.6228 0.36581 0.0
O116 O 0.79524 0.60073 0.37324 0.0
In117 In 0.18258 0.43084 0.3631 0.0
O118 O 0.18104 0.37259 0.35758 0.0
O119 O 0.22497 0.39566 0.36775 0.0
C120 C 0.12212 0.45271 0.35758 0.0
C121 C 0.1884 0.44035 0.4089 0.0
C122 C 0.20984 0.4577 0.32509 0.0
O123 O 0.12987 0.42145 0.35464 0.0
O124 O 0.14481 0.47244 0.3628 0.0
O125 O 0.21044 0.47338 0.34428 0.0
O126 O 0.19579 0.42898 0.32529 0.0
C127 C 0.21008 0.36837 0.36263 0.0
O128 O 0.2043 0.4583 0.39467 0.0
O129 O 0.17014 0.41836 0.39986 0.0
In130 In 0.84003 0.4304 0.12966 0.0
O131 O 0.84456 0.37143 0.12971 0.0
O132 O 0.79834 0.39379 0.12804 0.0
C133 C 0.89902 0.4557 0.13571 0.0
C134 C 0.83185 0.44541 0.08467 0.0
C135 C 0.81571 0.45146 0.17012 0.0
O136 O 0.893 0.42374 0.13732 0.0
O137 O 0.87532 0.47454 0.13121 0.0
O138 O 0.80924 0.46694 0.15135 0.0
O139 O 0.83421 0.42602 0.16816 0.0
C140 C 0.81484 0.36661 0.12872 0.0
O141 O 0.81332 0.45746 0.09993 0.0
O142 O 0.85384 0.42645 0.0923 0.0
In143 In 0.18147 0.57501 0.12848 0.0
O144 O 0.20341 0.54695 0.09727 0.0
O145 O 0.1665 0.58374 0.09168 0.0
C146 C 0.20992 0.55019 0.16665 0.0
C147 C 0.20782 0.63812 0.12729 0.0
C148 C 0.12186 0.55173 0.13582 0.0
O149 O 0.21048 0.53388 0.1477 0.0
O150 O 0.19547 0.57867 0.1661 0.0
O151 O 0.12878 0.58345 0.13746 0.0
O152 O 0.14493 0.53235 0.13091 0.0
C153 C 0.18566 0.56242 0.0829 0.0
O154 O 0.17904 0.6335 0.13291 0.0
O155 O 0.22297 0.61095 0.12231 0.0
In156 In 0.16448 0.43396 0.62608 0.0
O157 O 0.16039 0.37516 0.62888 0.0
O158 O 0.2053 0.39708 0.62029 0.0
C159 C 0.10496 0.45799 0.63162 0.0
C160 C 0.17207 0.45064 0.58133 0.0
C161 C 0.18949 0.45454 0.66651 0.0
O162 O 0.11122 0.42601 0.63178 0.0
O163 O 0.12873 0.47751 0.62901 0.0
O164 O 0.19488 0.47086 0.6479 0.0
O165 O 0.17179 0.4285 0.66441 0.0
C166 C 0.18939 0.3701 0.62423 0.0
O167 O 0.19125 0.46139 0.5966 0.0
O168 O 0.14973 0.43202 0.58881 0.0
In169 In 0.82025 0.57388 0.63017 0.0
O170 O 0.7972 0.54218 0.60081 0.0
O171 O 0.82238 0.58837 0.59266 0.0
C172 C 0.79879 0.54949 0.6708 0.0
C173 C 0.79482 0.63734 0.63228 0.0
C174 C 0.88085 0.55114 0.63173 0.0
O175 O 0.78928 0.53712 0.65173 0.0
O176 O 0.81883 0.57356 0.66907 0.0
O177 O 0.87355 0.58205 0.63633 0.0
O178 O 0.8577 0.53211 0.62637 0.0
C179 C 0.8066 0.56301 0.58533 0.0
O180 O 0.82447 0.63253 0.63059 0.0
O181 O 0.77824 0.61017 0.63319 0.0
In182 In 0.16425 0.56221 0.86619 0.0
O183 O 0.15969 0.62101 0.86332 0.0
O184 O 0.20452 0.5996 0.87265 0.0
C185 C 0.10487 0.53799 0.86013 0.0
C186 C 0.17169 0.54478 0.91084 0.0
C187 C 0.18983 0.54176 0.82589 0.0
O188 O 0.111 0.57001 0.86029 0.0
O189 O 0.12869 0.51854 0.86268 0.0
O190 O 0.19467 0.52518 0.84447 0.0
O191 O 0.17243 0.56803 0.82795 0.0
C192 C 0.1885 0.62641 0.8684 0.0
O193 O 0.1917 0.53564 0.89568 0.0
O194 O 0.14858 0.56223 0.90332 0.0
In195 In 0.8206 0.42191 0.86677 0.0
O196 O 0.79946 0.45129 0.89778 0.0
O197 O 0.83105 0.40908 0.90377 0.0
C198 C 0.79616 0.4469 0.82721 0.0
C199 C 0.79271 0.35958 0.86668 0.0
C200 C 0.88086 0.44469 0.86232 0.0
O201 O 0.79027 0.46095 0.84653 0.0
O202 O 0.81386 0.42068 0.8282 0.0
O203 O 0.87353 0.41336 0.85909 0.0
O204 O 0.8579 0.46405 0.8676 0.0
C205 C 0.81377 0.43237 0.91238 0.0
O206 O 0.82215 0.36335 0.8629 0.0
O207 O 0.77757 0.38725 0.87021 0.0
H208 H 0.27801 0.03598 0.43463 0.0
H209 H 0.37862 0.0551 0.44107 0.0
H210 H 0.27328 0.03484 0.47705 0.0
H211 H 0.37413 0.0531 0.48292 0.0
H212 H 0.34848 0.10366 0.55011 0.0
H213 H 0.34964 0.09575 0.50862 0.0
H214 H 0.28989 0.00561 0.51513 0.0
H215 H 0.28831 0.01391 0.55734 0.0
C216 C 0.29914 0.03913 0.44509 0.0
C217 C 0.32857 0.04624 0.43465 0.0
C218 C 0.29646 0.03841 0.4693 0.0
C219 C 0.32323 0.04463 0.48327 0.0
C220 C 0.35293 0.04914 0.47264 0.0
C221 C 0.35553 0.05016 0.44865 0.0
C222 C 0.33551 0.0821 0.54282 0.0
C223 C 0.31855 0.05919 0.55704 0.0
C224 C 0.33634 0.07746 0.51899 0.0
C225 C 0.32037 0.04966 0.50863 0.0
C226 C 0.3025 0.0272 0.52268 0.0
C227 C 0.30166 0.03189 0.54677 0.0
H228 H 0.62923 0.95799 0.55277 0.0
H229 H 0.73113 0.96607 0.55877 0.0
H230 H 0.63354 0.95907 0.51089 0.0
H231 H 0.7356 0.96625 0.5163 0.0
H232 H 0.72132 0.98596 0.43555 0.0
H233 H 0.72086 0.99627 0.47759 0.0
H234 H 0.65432 0.91238 0.48617 0.0
H235 H 0.65445 0.90244 0.44487 0.0
C236 C 0.65258 0.96042 0.54507 0.0
C237 C 0.67989 0.96139 0.55894 0.0
C238 C 0.65506 0.96092 0.52108 0.0
C239 C 0.68495 0.96189 0.51034 0.0
C240 C 0.71227 0.96542 0.52415 0.0
C241 C 0.70973 0.96527 0.54839 0.0
C242 C 0.70671 0.96978 0.44653 0.0
C243 C 0.68767 0.94364 0.43691 0.0
C244 C 0.70652 0.97562 0.47052 0.0
C245 C 0.68712 0.95554 0.48508 0.0
C246 C 0.66891 0.92886 0.47537 0.0
C247 C 0.66914 0.92305 0.45165 0.0
H248 H 0.27561 0.97177 0.05623 0.0
H249 H 0.37477 0.94601 0.04823 0.0
H250 H 0.26922 0.97089 0.01387 0.0
H251 H 0.36854 0.94563 0.00649 0.0
H252 H 0.3366 0.89095 0.94238 0.0
H253 H 0.33768 0.9011 0.9837 0.0
H254 H 0.28935 0.99836 0.97399 0.0
H255 H 0.28803 0.98803 0.93193 0.0
C256 C 0.2961 0.96673 0.04544 0.0
C257 C 0.32554 0.95835 0.05545 0.0
C258 C 0.29246 0.96628 0.02128 0.0
C259 C 0.31826 0.9575 0.00701 0.0
C260 C 0.3481 0.95172 0.01711 0.0
C261 C 0.35167 0.95201 0.04102 0.0
C262 C 0.32601 0.91448 0.94893 0.0
C263 C 0.31261 0.93892 0.93387 0.0
C264 C 0.32674 0.92033 0.97263 0.0
C265 C 0.31417 0.95082 0.98197 0.0
C266 C 0.29932 0.97471 0.96715 0.0
C267 C 0.29862 0.96882 0.94317 0.0
H268 H 0.74194 0.03624 0.93536 0.0
H269 H 0.6427 0.0182 0.94956 0.0
H270 H 0.75361 0.0322 0.97693 0.0
H271 H 0.65454 0.01296 0.99084 0.0
H272 H 0.69194 0.98777 0.06335 0.0
H273 H 0.69257 0.97578 0.02159 0.0
H274 H 0.72786 0.07859 0.00857 0.0
H275 H 0.72609 0.09097 0.05001 0.0
C276 C 0.72286 0.0303 0.94729 0.0
C277 C 0.69142 0.02771 0.93939 0.0
C278 C 0.72953 0.02803 0.97097 0.0
C279 C 0.70497 0.0221 0.98693 0.0
C280 C 0.67391 0.01712 0.97881 0.0
C281 C 0.66713 0.02032 0.95527 0.0
C282 C 0.70064 0.00738 0.05156 0.0
C283 C 0.70887 0.0403 0.05974 0.0
C284 C 0.70093 0.00056 0.02777 0.0
C285 C 0.71038 0.02626 0.01202 0.0
C286 C 0.72083 0.05827 0.02042 0.0
C287 C 0.71969 0.06538 0.04406 0.0
H288 H 0.80853 0.6124 0.55255 0.0
H289 H 0.79387 0.50283 0.5616 0.0
H290 H 0.81027 0.60481 0.51088 0.0
H291 H 0.79592 0.49515 0.51929 0.0
H292 H 0.7788 0.51662 0.43644 0.0
H293 H 0.76852 0.51641 0.47843 0.0
H294 H 0.85563 0.57268 0.48953 0.0
H295 H 0.86588 0.57295 0.44826 0.0
C296 C 0.80522 0.58669 0.54558 0.0
C297 C 0.8016 0.55811 0.56029 0.0
C298 C 0.80625 0.58237 0.52172 0.0
C299 C 0.80387 0.54933 0.51197 0.0
C300 C 0.79788 0.52088 0.52647 0.0
C301 C 0.79672 0.52526 0.55059 0.0
C302 C 0.79589 0.52846 0.44797 0.0
C303 C 0.82292 0.54521 0.43907 0.0
C304 C 0.79002 0.52829 0.4719 0.0
C305 C 0.81103 0.54507 0.48707 0.0
C306 C 0.83876 0.56013 0.47816 0.0
C307 C 0.84464 0.56019 0.4545 0.0
H308 H 0.12643 0.44558 0.54882 0.0
H309 H 0.22574 0.47016 0.55746 0.0
H310 H 0.1327 0.44725 0.5071 0.0
H311 H 0.23225 0.47112 0.51515 0.0
H312 H 0.21729 0.49192 0.43422 0.0
H313 H 0.21492 0.4997 0.47647 0.0
H314 H 0.16101 0.40523 0.48244 0.0
H315 H 0.16293 0.3978 0.44089 0.0
C316 C 0.1496 0.45167 0.54175 0.0
C317 C 0.17572 0.4572 0.55634 0.0
C318 C 0.15321 0.45251 0.51785 0.0
C319 C 0.18312 0.45851 0.50789 0.0
C320 C 0.20895 0.46634 0.5224 0.0
C321 C 0.20525 0.46574 0.54654 0.0
C322 C 0.20516 0.47282 0.44469 0.0
C323 C 0.18991 0.44452 0.43427 0.0
C324 C 0.20386 0.47723 0.46879 0.0
C325 C 0.18722 0.45344 0.48265 0.0
C326 C 0.17328 0.4245 0.47217 0.0
C327 C 0.17451 0.42016 0.44833 0.0
H328 H 0.78952 0.48735 0.9371 0.0
H329 H 0.83323 0.38706 0.94487 0.0
H330 H 0.79199 0.49541 0.97935 0.0
H331 H 0.83526 0.39487 0.98641 0.0
H332 H 0.87583 0.43433 0.05161 0.0
H333 H 0.86858 0.43498 0.00999 0.0
H334 H 0.7717 0.46897 0.01877 0.0
H335 H 0.77917 0.46883 0.06104 0.0
C336 C 0.79924 0.46696 0.94781 0.0
C337 C 0.81165 0.43683 0.9377 0.0
C338 C 0.80059 0.47154 0.9719 0.0
C339 C 0.81441 0.44605 0.98605 0.0
C340 C 0.82521 0.41533 0.97589 0.0
C341 C 0.82395 0.41083 0.95207 0.0
C342 C 0.85305 0.44236 0.04475 0.0
C343 C 0.8279 0.451 0.05956 0.0
C344 C 0.84888 0.44264 0.02089 0.0
C345 C 0.81938 0.45129 0.01119 0.0
C346 C 0.79466 0.4621 0.02585 0.0
C347 C 0.79891 0.46197 0.04996 0.0
H348 H 0.15142 0.5961 0.05044 0.0
H349 H 0.22116 0.5151 0.05836 0.0
H350 H 0.14977 0.58593 0.00918 0.0
H351 H 0.21909 0.50441 0.01642 0.0
H352 H 0.22649 0.53345 0.93552 0.0
H353 H 0.23171 0.53347 0.97788 0.0
H354 H 0.1297 0.54012 0.98424 0.0
H355 H 0.12468 0.54116 0.94237 0.0
C356 C 0.16638 0.57596 0.04336 0.0
C357 C 0.18624 0.55621 0.05769 0.0
C358 C 0.16526 0.56996 0.01967 0.0
C359 C 0.18384 0.54391 0.00959 0.0
C360 C 0.20444 0.52459 0.02375 0.0
C361 C 0.20556 0.53065 0.04769 0.0
C362 C 0.20526 0.5342 0.94608 0.0
C363 C 0.17523 0.53792 0.93579 0.0
C364 C 0.20822 0.53416 0.97027 0.0
C365 C 0.18115 0.5376 0.98434 0.0
C366 C 0.15106 0.5384 0.97386 0.0
C367 C 0.14816 0.53884 0.94989 0.0
H368 H 0.56676 0.91507 0.34507 0.0
H369 H 0.59934 0.01318 0.37131 0.0
H370 H 0.51293 0.93816 0.34192 0.0
H371 H 0.54565 0.03583 0.36913 0.0
H372 H 0.45133 0.07811 0.34595 0.0
H373 H 0.50505 0.05467 0.34413 0.0
H374 H 0.46935 0.95471 0.3651 0.0
H375 H 0.41569 0.97788 0.36591 0.0
C376 C 0.56237 0.94151 0.35024 0.0
C377 C 0.58725 0.96229 0.35843 0.0
C378 C 0.5315 0.95474 0.34856 0.0
C379 C 0.52479 0.98895 0.35528 0.0
C380 C 0.54987 0.00965 0.36337 0.0
C381 C 0.5807 0.99655 0.3648 0.0
C382 C 0.45501 0.05108 0.34998 0.0
C383 C 0.42933 0.02987 0.35612 0.0
C384 C 0.48583 0.03764 0.3491 0.0
C385 C 0.49172 0.00276 0.35462 0.0
C386 C 0.46581 0.98151 0.36039 0.0
C387 C 0.435 0.99486 0.36102 0.0
H388 H 0.41568 0.02741 0.12283 0.0
H389 H 0.45077 0.926 0.14052 0.0
H390 H 0.46982 0.04947 0.12207 0.0
H391 H 0.50495 0.94826 0.14065 0.0
H392 H 0.56964 0.08526 0.142 0.0
H393 H 0.51506 0.06413 0.14463 0.0
H394 H 0.54428 0.96721 0.11432 0.0
H395 H 0.5987 0.9879 0.11253 0.0
C396 C 0.43498 0.00992 0.12686 0.0
C397 C 0.42899 0.97492 0.13163 0.0
C398 C 0.46606 0.02262 0.12655 0.0
C399 C 0.49191 0.00068 0.13118 0.0
C400 C 0.48574 0.9658 0.13653 0.0
C401 C 0.45466 0.95305 0.13664 0.0
C402 C 0.56429 0.05949 0.13588 0.0
C403 C 0.58844 0.03823 0.12711 0.0
C404 C 0.53299 0.04737 0.13731 0.0
C405 C 0.52517 0.01381 0.12982 0.0
C406 C 0.54942 0.99286 0.12074 0.0
C407 C 0.58064 0.00485 0.11951 0.0
H408 H 0.58924 0.0271 0.62699 0.0
H409 H 0.5557 0.92635 0.64775 0.0
H410 H 0.53518 0.04913 0.62814 0.0
H411 H 0.50159 0.94867 0.64985 0.0
H412 H 0.40628 0.98819 0.62296 0.0
H413 H 0.46036 0.96655 0.62489 0.0
H414 H 0.49175 0.06484 0.65192 0.0
H415 H 0.43753 0.0869 0.64907 0.0
C416 C 0.57031 0.00976 0.63211 0.0
C417 C 0.57667 0.97494 0.63715 0.0
C418 C 0.53928 0.02247 0.63294 0.0
C419 C 0.51386 0.00073 0.63904 0.0
C420 C 0.52044 0.96605 0.64467 0.0
C421 C 0.55148 0.95325 0.64361 0.0
C422 C 0.42471 0.00516 0.62939 0.0
C423 C 0.41769 0.03929 0.63579 0.0
C424 C 0.45576 0.99266 0.63067 0.0
C425 C 0.48057 0.01385 0.63861 0.0
C426 C 0.47338 0.04791 0.64538 0.0
C427 C 0.44229 0.06053 0.64389 0.0
H428 H 0.58923 0.96884 0.87262 0.0
H429 H 0.55527 0.07159 0.85753 0.0
H430 H 0.53521 0.94676 0.87032 0.0
H431 H 0.50129 0.04941 0.85412 0.0
H432 H 0.40519 0.00682 0.87564 0.0
H433 H 0.45928 0.02846 0.87663 0.0
H434 H 0.49241 0.93343 0.84573 0.0
H435 H 0.43812 0.91121 0.84578 0.0
C436 C 0.5702 0.98665 0.86855 0.0
C437 C 0.57645 0.02198 0.86537 0.0
C438 C 0.53919 0.97395 0.86705 0.0
C439 C 0.51367 0.99621 0.86205 0.0
C440 C 0.52014 0.03152 0.85845 0.0
C441 C 0.55113 0.04428 0.86026 0.0
C442 C 0.42402 0.99056 0.86901 0.0
C443 C 0.41741 0.95729 0.86066 0.0
C444 C 0.45511 0.00309 0.86941 0.0
C445 C 0.48043 0.98285 0.86118 0.0
C446 C 0.47368 0.94961 0.85256 0.0
C447 C 0.44254 0.9369 0.85243 0.0
H448 H 0.94919 0.57656 0.34909 0.0
H449 H 0.91789 0.47552 0.37099 0.0
H450 H 0.00332 0.55491 0.34533 0.0
H451 H 0.9721 0.4541 0.36816 0.0
H452 H 0.10063 0.5167 0.3687 0.0
H453 H 0.04628 0.53754 0.36876 0.0
H454 H 0.01421 0.43885 0.34283 0.0
H455 H 0.06887 0.41756 0.34366 0.0
C456 C 0.95392 0.54975 0.35318 0.0
C457 C 0.92932 0.52779 0.36039 0.0
C458 C 0.985 0.53733 0.35115 0.0
C459 C 0.99226 0.50272 0.35654 0.0
C460 C 0.96744 0.48072 0.36351 0.0
C461 C 0.93635 0.49307 0.36531 0.0
C462 C 0.08201 0.49946 0.36289 0.0
C463 C 0.08903 0.46544 0.35621 0.0
C464 C 0.05078 0.51152 0.36277 0.0
C465 C 0.02569 0.48999 0.35575 0.0
C466 C 0.03282 0.45605 0.34867 0.0
C467 C 0.06416 0.44387 0.34898 0.0
H468 H 0.06807 0.58609 0.14955 0.0
H469 H 0.10195 0.48625 0.12742 0.0
H470 H 0.01413 0.56303 0.15213 0.0
H471 H 0.04828 0.46359 0.12905 0.0
H472 H 0.95275 0.42278 0.15062 0.0
H473 H 0.0063 0.44648 0.15341 0.0
H474 H 0.9719 0.54468 0.12802 0.0
H475 H 0.91834 0.52131 0.12618 0.0
C476 C 0.06397 0.55925 0.14524 0.0
C477 C 0.08923 0.53801 0.13829 0.0
C478 C 0.03304 0.54604 0.14656 0.0
C479 C 0.02669 0.51137 0.14077 0.0
C480 C 0.05218 0.49018 0.13407 0.0
C481 C 0.08302 0.50328 0.13296 0.0
C482 C 0.95667 0.44948 0.14579 0.0
C483 C 0.93138 0.47013 0.13811 0.0
C484 C 0.9874 0.46307 0.14726 0.0
C485 C 0.99361 0.49754 0.14082 0.0
C486 C 0.96808 0.51825 0.13347 0.0
C487 C 0.93734 0.50475 0.13224 0.0
H488 H 0.90208 0.48855 0.61706 0.0
H489 H 0.93389 0.58367 0.64827 0.0
H490 H 0.95608 0.46634 0.61793 0.0
H491 H 0.98795 0.56099 0.65 0.0
H492 H 0.08577 0.52453 0.6255 0.0
H493 H 0.03186 0.54708 0.62609 0.0
H494 H 0.99635 0.44532 0.64286 0.0
H495 H 0.05036 0.42258 0.64137 0.0
C496 C 0.92063 0.50463 0.62429 0.0
C497 C 0.91377 0.53789 0.63255 0.0
C498 C 0.95161 0.49177 0.62497 0.0
C499 C 0.97649 0.51174 0.63413 0.0
C500 C 0.96952 0.54503 0.64252 0.0
C501 C 0.93851 0.55801 0.64164 0.0
C502 C 0.06645 0.507 0.62941 0.0
C503 C 0.07228 0.47174 0.63332 0.0
C504 C 0.0355 0.51999 0.62989 0.0
C505 C 0.00961 0.49808 0.63449 0.0
C506 C 0.0156 0.46288 0.63885 0.0
C507 C 0.04657 0.44983 0.63817 0.0
H508 H 0.05032 0.57312 0.84978 0.0
H509 H 0.08573 0.47145 0.8664 0.0
H510 H 0.99636 0.55031 0.84825 0.0
H511 H 0.03184 0.44884 0.86586 0.0
H512 H 0.93352 0.41153 0.84553 0.0
H513 H 0.98755 0.43417 0.84275 0.0
H514 H 0.95623 0.53019 0.87325 0.0
H515 H 0.90232 0.50805 0.87509 0.0
C516 C 0.04654 0.5459 0.85314 0.0
C517 C 0.07224 0.52411 0.85824 0.0
C518 C 0.01558 0.53281 0.85243 0.0
C519 C 0.00956 0.49768 0.85707 0.0
C520 C 0.03547 0.47587 0.86184 0.0
C521 C 0.06641 0.48889 0.86231 0.0
C522 C 0.93826 0.43751 0.85153 0.0
C523 C 0.9137 0.458 0.8605 0.0
C524 C 0.96925 0.45047 0.85007 0.0
C525 C 0.9764 0.4841 0.85776 0.0
C526 C 0.95165 0.50448 0.86672 0.0
C527 C 0.92071 0.49166 0.86795 0.0
H528 H 0.27076 0.35331 0.37548 0.0
H529 H 0.18454 0.30623 0.35018 0.0
H530 H 0.29629 0.29689 0.37673 0.0
H531 H 0.21034 0.24981 0.35083 0.0
H532 H 0.25387 0.15094 0.37917 0.0
H533 H 0.22921 0.20773 0.37816 0.0
H534 H 0.31662 0.25164 0.35226 0.0
H535 H 0.34159 0.19472 0.35389 0.0
C536 C 0.25733 0.3309 0.37003 0.0
C537 C 0.22561 0.33416 0.3628 0.0
C538 C 0.27204 0.29858 0.37062 0.0
C539 C 0.25539 0.26877 0.36391 0.0
C540 C 0.22371 0.27215 0.35646 0.0
C541 C 0.20897 0.30449 0.35595 0.0
C542 C 0.26787 0.17274 0.37335 0.0
C543 C 0.29967 0.1684 0.36661 0.0
C544 C 0.25365 0.20528 0.37259 0.0
C545 C 0.27083 0.23425 0.36497 0.0
C546 C 0.30279 0.22994 0.35844 0.0
C547 C 0.31708 0.19734 0.35929 0.0
H548 H 0.76716 0.84696 0.37952 0.0
H549 H 0.68067 0.80022 0.35446 0.0
H550 H 0.79257 0.79051 0.38058 0.0
H551 H 0.70639 0.74375 0.35478 0.0
H552 H 0.75064 0.64421 0.3816 0.0
H553 H 0.72555 0.70081 0.38101 0.0
H554 H 0.81297 0.74601 0.35609 0.0
H555 H 0.83835 0.68935 0.35742 0.0
C556 C 0.75364 0.8246 0.37409 0.0
C557 C 0.7219 0.82798 0.36695 0.0
C558 C 0.76828 0.79225 0.37455 0.0
C559 C 0.75159 0.76252 0.36774 0.0
C560 C 0.71983 0.766 0.36048 0.0
C561 C 0.70512 0.79837 0.36017 0.0
C562 C 0.76453 0.66626 0.37606 0.0
C563 C 0.79647 0.66237 0.36957 0.0
C564 C 0.75007 0.69869 0.37555 0.0
C565 C 0.76715 0.72802 0.3684 0.0
C566 C 0.7992 0.72409 0.36198 0.0
C567 C 0.81373 0.69161 0.36263 0.0
H568 H 0.2678 0.65385 0.11318 0.0
H569 H 0.18214 0.70005 0.14011 0.0
H570 H 0.29309 0.71039 0.11202 0.0
H571 H 0.20772 0.75662 0.13956 0.0
H572 H 0.2511 0.85649 0.11235 0.0
H573 H 0.22617 0.7998 0.11286 0.0
H574 H 0.314 0.7546 0.13696 0.0
H575 H 0.33921 0.8114 0.13584 0.0
C576 C 0.25442 0.6761 0.11896 0.0
C577 C 0.22296 0.67254 0.1267 0.0
C578 C 0.269 0.7085 0.11845 0.0
C579 C 0.25249 0.73809 0.12573 0.0
C580 C 0.22099 0.73445 0.13352 0.0
C581 C 0.20637 0.70203 0.13395 0.0
C582 C 0.26513 0.83443 0.11769 0.0
C583 C 0.29713 0.83837 0.12405 0.0
C584 C 0.25076 0.80194 0.11815 0.0
C585 C 0.268 0.77261 0.12506 0.0
C586 C 0.30012 0.77657 0.13129 0.0
C587 C 0.31454 0.80911 0.13074 0.0
H588 H 0.76902 0.14831 0.14415 0.0
H589 H 0.68578 0.19298 0.11242 0.0
H590 H 0.79443 0.20478 0.14466 0.0
H591 H 0.71163 0.24929 0.1119 0.0
H592 H 0.75266 0.35128 0.13563 0.0
H593 H 0.72762 0.29478 0.13597 0.0
H594 H 0.81826 0.24725 0.12108 0.0
H595 H 0.84352 0.30401 0.12183 0.0
C596 C 0.75625 0.17023 0.13713 0.0
C597 C 0.72538 0.1663 0.12831 0.0
C598 C 0.77091 0.2026 0.13724 0.0
C599 C 0.75519 0.23174 0.12828 0.0
C600 C 0.7243 0.22763 0.11934 0.0
C601 C 0.70949 0.19532 0.1195 0.0
C602 C 0.76725 0.32874 0.13244 0.0
C603 C 0.80005 0.33203 0.12868 0.0
C604 C 0.75283 0.29629 0.13247 0.0
C605 C 0.77079 0.2663 0.12842 0.0
C606 C 0.8037 0.26967 0.12461 0.0
C607 C 0.8182 0.3022 0.12488 0.0
H608 H 0.75501 0.85769 0.63684 0.0
H609 H 0.6649 0.81131 0.61955 0.0
H610 H 0.77929 0.80089 0.63887 0.0
H611 H 0.6895 0.75424 0.62034 0.0
H612 H 0.73494 0.65477 0.64561 0.0
H613 H 0.71043 0.71173 0.64485 0.0
H614 H 0.79704 0.75467 0.61665 0.0
H615 H 0.82188 0.69797 0.61864 0.0
C616 C 0.74047 0.83527 0.63319 0.0
C617 C 0.70807 0.83888 0.62802 0.0
C618 C 0.75445 0.80263 0.6342 0.0
C619 C 0.73649 0.77277 0.62968 0.0
C620 C 0.70402 0.77652 0.62432 0.0
C621 C 0.68991 0.80922 0.62368 0.0
C622 C 0.74874 0.6765 0.63939 0.0
C623 C 0.78034 0.67203 0.63228 0.0
C624 C 0.73461 0.70914 0.63875 0.0
C625 C 0.75162 0.73798 0.63061 0.0
C626 C 0.78331 0.73331 0.62344 0.0
C627 C 0.79757 0.70076 0.62446 0.0
H628 H 0.16292 0.30857 0.63738 0.0
H629 H 0.24948 0.35371 0.61106 0.0
H630 H 0.18877 0.25213 0.63896 0.0
H631 H 0.275 0.29737 0.61196 0.0
H632 H 0.32171 0.19988 0.6397 0.0
H633 H 0.29514 0.25587 0.63902 0.0
H634 H 0.20916 0.207 0.61465 0.0
H635 H 0.23547 0.15103 0.61601 0.0
C636 C 0.18736 0.30635 0.63173 0.0
C637 C 0.2042 0.33553 0.62415 0.0
C638 C 0.20215 0.27402 0.63255 0.0
C639 C 0.23404 0.27022 0.62569 0.0
C640 C 0.25063 0.29943 0.6178 0.0
C641 C 0.23592 0.33171 0.6171 0.0
C642 C 0.29711 0.20115 0.63425 0.0
C643 C 0.28067 0.17111 0.6279 0.0
C644 C 0.28193 0.23324 0.63373 0.0
C645 C 0.25001 0.23598 0.62671 0.0
C646 C 0.23359 0.20581 0.62045 0.0
C647 C 0.24873 0.17374 0.62108 0.0
H648 H 0.75012 0.14324 0.8894 0.0
H649 H 0.66227 0.18425 0.86235 0.0
H650 H 0.774 0.20035 0.88739 0.0
H651 H 0.68649 0.24146 0.85961 0.0
H652 H 0.73156 0.34537 0.87883 0.0
H653 H 0.70622 0.289 0.88194 0.0
H654 H 0.79309 0.24029 0.85916 0.0
H655 H 0.81867 0.29668 0.85678 0.0
C656 C 0.7359 0.16453 0.88302 0.0
C657 C 0.70434 0.15929 0.876 0.0
C658 C 0.74968 0.19724 0.88167 0.0
C659 C 0.73233 0.2255 0.87309 0.0
C660 C 0.70049 0.22036 0.8665 0.0
C661 C 0.6866 0.18759 0.86801 0.0
C662 C 0.74521 0.3226 0.87445 0.0
C663 C 0.77714 0.32541 0.86763 0.0
C664 C 0.73062 0.29028 0.87611 0.0
C665 C 0.7476 0.26003 0.87089 0.0
C666 C 0.77945 0.26297 0.86374 0.0
C667 C 0.79408 0.2953 0.8622 0.0
H668 H 0.24777 0.64362 0.88301 0.0
H669 H 0.16245 0.68733 0.85364 0.0
H670 H 0.27322 0.69998 0.88167 0.0
H671 H 0.18826 0.74376 0.8516 0.0
H672 H 0.23384 0.84606 0.87327 0.0
H673 H 0.20748 0.79017 0.87513 0.0
H674 H 0.29472 0.74019 0.85443 0.0
H675 H 0.32132 0.79616 0.85329 0.0
C676 C 0.23446 0.66532 0.87622 0.0
C677 C 0.20311 0.66109 0.86842 0.0
C678 C 0.24915 0.6976 0.87527 0.0
C679 C 0.23292 0.72641 0.86635 0.0
C680 C 0.20137 0.72222 0.8588 0.0
C681 C 0.18658 0.68989 0.85989 0.0
C682 C 0.24737 0.82313 0.86908 0.0
C683 C 0.27967 0.82546 0.86319 0.0
C684 C 0.2322 0.79108 0.87002 0.0
C685 C 0.24894 0.76062 0.86496 0.0
C686 C 0.28122 0.76306 0.85881 0.0
C687 C 0.29644 0.79513 0.858 0.0
H688 H 0.31621 0.08302 0.28391 0.0
H689 H 0.28188 0.98772 0.31369 0.0
H690 H 0.30622 0.0609 0.24539 0.0
H691 H 0.27102 0.96563 0.27482 0.0
H692 H 0.31728 0.92449 0.20661 0.0
H693 H 0.30717 0.94662 0.2451 0.0
H694 H 0.27051 0.04117 0.21558 0.0
H695 H 0.28147 0.01907 0.17672 0.0
C696 C 0.30582 0.05756 0.28222 0.0
C697 C 0.30036 0.03683 0.30178 0.0
C698 C 0.29977 0.04499 0.26008 0.0
C699 C 0.28807 0.01135 0.25696 0.0
C700 C 0.28048 0.99148 0.27664 0.0
C701 C 0.28656 0.00413 0.29889 0.0
C702 C 0.30659 0.9498 0.20828 0.0
C703 C 0.30068 0.97032 0.18868 0.0
C704 C 0.30044 0.96237 0.2304 0.0
C705 C 0.28823 0.99579 0.23348 0.0
C706 C 0.28034 0.01548 0.21378 0.0
C707 C 0.2865 0.00283 0.19154 0.0
H708 H 0.73964 0.99073 0.18017 0.0
H709 H 0.68596 0.07493 0.2096 0.0
H710 H 0.74979 0.96823 0.21912 0.0
H711 H 0.69577 0.05246 0.24822 0.0
H712 H 0.72717 0.01447 0.31707 0.0
H713 H 0.73535 0.0396 0.27859 0.0
H714 H 0.71381 0.94099 0.24746 0.0
H715 H 0.70601 0.91603 0.28564 0.0
C716 C 0.7304 0.00464 0.19495 0.0
C717 C 0.71169 0.0343 0.19187 0.0
C718 C 0.73616 0.99178 0.21721 0.0
C719 C 0.72354 0.00855 0.23674 0.0
C720 C 0.7062 0.03918 0.2336 0.0
C721 C 0.70028 0.05185 0.21143 0.0
C722 C 0.72497 0.99807 0.30199 0.0
C723 C 0.71557 0.96347 0.30428 0.0
C724 C 0.72949 0.01244 0.27999 0.0
C725 C 0.72494 0.99233 0.25999 0.0
C726 C 0.71776 0.95712 0.26248 0.0
C727 C 0.71303 0.94288 0.28437 0.0
H728 H 0.68453 0.07695 0.79091 0.0
H729 H 0.72345 0.98168 0.81759 0.0
H730 H 0.69382 0.05731 0.75163 0.0
H731 H 0.73358 0.96219 0.77803 0.0
H732 H 0.68799 0.92253 0.70944 0.0
H733 H 0.69724 0.94329 0.74838 0.0
H734 H 0.72994 0.04089 0.7209 0.0
H735 H 0.7199 0.02009 0.68156 0.0
C736 C 0.69571 0.05205 0.78837 0.0
C737 C 0.70277 0.03057 0.80729 0.0
C738 C 0.70135 0.04093 0.76581 0.0
C739 C 0.71422 0.00806 0.76166 0.0
C740 C 0.7232 0.98747 0.78067 0.0
C741 C 0.7175 0.99862 0.8033 0.0
C742 C 0.69762 0.94826 0.71164 0.0
C743 C 0.70276 0.96992 0.69249 0.0
C744 C 0.70326 0.96005 0.73402 0.0
C745 C 0.71417 0.99384 0.7378 0.0
C746 C 0.72115 0.01486 0.71855 0.0
C747 C 0.71555 0.00295 0.69604 0.0
H748 H 0.31083 0.91656 0.78118 0.0
H749 H 0.26852 0.00567 0.81377 0.0
H750 H 0.30089 0.94153 0.74335 0.0
H751 H 0.25793 0.03064 0.77558 0.0
H752 H 0.30261 0.08101 0.70923 0.0
H753 H 0.29381 0.05503 0.74691 0.0
H754 H 0.26326 0.96056 0.71402 0.0
H755 H 0.27274 0.98664 0.676 0.0
C756 C 0.29883 0.94127 0.78023 0.0
C757 C 0.29088 0.95943 0.80044 0.0
C758 C 0.29281 0.95543 0.75849 0.0
C759 C 0.27874 0.98817 0.75641 0.0
C760 C 0.26913 0.00552 0.77663 0.0
C761 C 0.2751 0.99122 0.79848 0.0
C762 C 0.29347 0.05489 0.71 0.0
C763 C 0.28883 0.03564 0.6897 0.0
C764 C 0.28812 0.04008 0.73164 0.0
C765 C 0.27806 0.00562 0.7335 0.0
C766 C 0.27141 0.98705 0.71313 0.0
C767 C 0.27668 0.00198 0.69139 0.0
H768 H 0.78279 0.5104 0.18096 0.0
H769 H 0.82325 0.41818 0.21102 0.0
H770 H 0.7709 0.53207 0.21979 0.0
H771 H 0.81218 0.43992 0.24948 0.0
H772 H 0.78439 0.47967 0.31794 0.0
H773 H 0.77478 0.45689 0.27907 0.0
H774 H 0.80574 0.55386 0.24959 0.0
H775 H 0.81451 0.57661 0.28811 0.0
C776 C 0.78868 0.49458 0.19582 0.0
C777 C 0.80438 0.4629 0.19301 0.0
C778 C 0.78198 0.50697 0.21803 0.0
C779 C 0.79082 0.48784 0.23776 0.0
C780 C 0.80468 0.45518 0.23475 0.0
C781 C 0.81137 0.44287 0.21265 0.0
C782 C 0.78839 0.49627 0.30313 0.0
C783 C 0.80067 0.52967 0.306 0.0
C784 C 0.78302 0.48324 0.28089 0.0
C785 C 0.78982 0.50344 0.26121 0.0
C786 C 0.79994 0.53767 0.26429 0.0
C787 C 0.8053 0.55062 0.28643 0.0
H788 H 0.20829 0.52502 0.31183 0.0
H789 H 0.23692 0.42366 0.28927 0.0
H790 H 0.21661 0.54733 0.27298 0.0
H791 H 0.24792 0.44616 0.25073 0.0
H792 H 0.21081 0.48294 0.18002 0.0
H793 H 0.21901 0.46114 0.21897 0.0
H794 H 0.24562 0.56374 0.24154 0.0
H795 H 0.23478 0.58562 0.2028 0.0
C796 C 0.21755 0.50786 0.29867 0.0
C797 C 0.22166 0.47266 0.30335 0.0
C798 C 0.22253 0.5206 0.27632 0.0
C799 C 0.23252 0.49851 0.25833 0.0
C800 C 0.23921 0.46381 0.26377 0.0
C801 C 0.2333 0.45092 0.28593 0.0
C802 C 0.21904 0.50057 0.19326 0.0
C803 C 0.22186 0.53592 0.18858 0.0
C804 C 0.22394 0.48812 0.21569 0.0
C805 C 0.23257 0.51069 0.23378 0.0
C806 C 0.23799 0.54567 0.2284 0.0
C807 C 0.23216 0.55823 0.20613 0.0
H808 H 0.1855 0.57694 0.78546 0.0
H809 H 0.21959 0.48106 0.81456 0.0
H810 H 0.19547 0.55542 0.74679 0.0
H811 H 0.23046 0.45958 0.77554 0.0
H812 H 0.18415 0.41972 0.70701 0.0
H813 H 0.19435 0.44114 0.74567 0.0
H814 H 0.23116 0.53614 0.71688 0.0
H815 H 0.22008 0.51476 0.67785 0.0
C816 C 0.19583 0.55147 0.78358 0.0
C817 C 0.20123 0.5304 0.803 0.0
C818 C 0.20188 0.53925 0.76136 0.0
C819 C 0.21352 0.50564 0.75801 0.0
C820 C 0.22104 0.48543 0.77755 0.0
C821 C 0.21495 0.49772 0.79988 0.0
C822 C 0.1949 0.44498 0.70887 0.0
C823 C 0.2008 0.46585 0.68944 0.0
C824 C 0.2011 0.45714 0.73109 0.0
C825 C 0.21336 0.49048 0.73442 0.0
C826 C 0.22128 0.5105 0.71488 0.0
C827 C 0.21505 0.49827 0.69255 0.0
H828 H 0.8104 0.57846 0.7126 0.0
H829 H 0.76481 0.4908 0.6806 0.0
H830 H 0.80043 0.55396 0.7506 0.0
H831 H 0.75436 0.46624 0.71896 0.0
H832 H 0.79879 0.41526 0.78547 0.0
H833 H 0.79056 0.44105 0.74762 0.0
H834 H 0.76167 0.53649 0.78002 0.0
H835 H 0.77042 0.51057 0.81819 0.0
C836 C 0.79773 0.55417 0.71372 0.0
C837 C 0.78876 0.53628 0.69363 0.0
C838 C 0.7917 0.54029 0.73555 0.0
C839 C 0.77668 0.5081 0.73782 0.0
C840 C 0.76624 0.49098 0.71773 0.0
C841 C 0.77214 0.50503 0.6958 0.0
C842 C 0.79012 0.44156 0.78456 0.0
C843 C 0.78568 0.46109 0.80476 0.0
C844 C 0.78511 0.45626 0.76283 0.0
C845 C 0.77568 0.49091 0.76079 0.0
C846 C 0.7693 0.50982 0.78106 0.0
C847 C 0.77416 0.49499 0.80288 0.0
loop_
_geom_bond_atom_site_label_1
_geom_bond_atom_site_label_2
_geom_bond_distance
_geom_bond_site_symmetry_2
_ccdc_geom_bond_type
In0 O1 2.294 . S
In0 O2 2.326 . S
In0 O6 2.266 . S
In0 O7 2.326 . S
In0 O8 2.266 . S
In0 O9 2.326 . S
In0 O11 2.294 . S
In0 O12 2.326 . S
O1 In0 2.294 . S
O1 C10 1.240 . S
O2 In0 2.326 . S
O2 C10 1.252 . S
C3 O6 1.252 . S
C3 O7 1.260 . S
C4 O11 1.240 . S
C4 O12 1.252 . S
C5 O8 1.252 . S
C5 O9 1.260 . S
O6 In0 2.266 . S
O6 C3 1.252 . S
O7 In0 2.326 . S
O7 C3 1.260 . S
O8 In0 2.266 . S
O8 C5 1.252 . S
O9 In0 2.326 . S
O9 C5 1.260 . S
C10 O1 1.240 . S
C10 O2 1.252 . S
O11 In0 2.294 . S
O11 C4 1.240 . S
O12 In0 2.326 . S
O12 C4 1.252 . S
In13 O14 2.294 . S
In13 O15 2.326 . S
In13 O19 2.266 . S
In13 O20 2.326 . S
In13 O21 2.266 . S
In13 O22 2.326 . S
In13 O24 2.294 . S
In13 O25 2.326 . S
O14 In13 2.294 . S
O14 C23 1.240 . S
O15 In13 2.326 . S
O15 C23 1.252 . S
C16 O19 1.252 . S
C16 O20 1.260 . S
C17 O24 1.240 . S
C17 O25 1.252 . S
C18 O21 1.252 . S
C18 O22 1.260 . S
O19 In13 2.266 . S
O19 C16 1.252 . S
O20 In13 2.326 . S
O20 C16 1.260 . S
O21 In13 2.266 . S
O21 C18 1.252 . S
O22 In13 2.326 . S
O22 C18 1.260 . S
C23 O14 1.240 . S
C23 O15 1.252 . S
O24 In13 2.294 . S
O24 C17 1.240 . S
O25 In13 2.326 . S
O25 C17 1.252 . S
In26 O27 2.294 . S
In26 O28 2.326 . S
In26 O32 2.266 . S
In26 O33 2.326 . S
In26 O34 2.266 . S
In26 O35 2.326 . S
In26 O37 2.294 . S
In26 O38 2.326 . S
O27 In26 2.294 . S
O27 C36 1.240 . S
O28 In26 2.326 . S
O28 C36 1.252 . S
C29 O32 1.252 . S
C29 O33 1.260 . S
C30 O37 1.240 . S
C30 O38 1.252 . S
C31 O34 1.252 . S
C31 O35 1.260 . S
O32 In26 2.266 . S
O32 C29 1.252 . S
O33 In26 2.326 . S
O33 C29 1.260 . S
O34 In26 2.266 . S
O34 C31 1.252 . S
O35 In26 2.326 . S
O35 C31 1.260 . S
C36 O27 1.240 . S
C36 O28 1.252 . S
O37 In26 2.294 . S
O37 C30 1.240 . S
O38 In26 2.326 . S
O38 C30 1.252 . S
In39 O40 2.294 . S
In39 O41 2.326 . S
In39 O45 2.266 . S
In39 O46 2.326 . S
In39 O47 2.266 . S
In39 O48 2.326 . S
In39 O50 2.294 . S
In39 O51 2.326 . S
O40 In39 2.294 . S
O40 C49 1.240 . S
O41 In39 2.326 . S
O41 C49 1.252 . S
C42 O45 1.252 . S
C42 O46 1.260 . S
C43 O50 1.240 . S
C43 O51 1.252 . S
C44 O47 1.252 . S
C44 O48 1.260 . S
O45 In39 2.266 . S
O45 C42 1.252 . S
O46 In39 2.326 . S
O46 C42 1.260 . S
O47 In39 2.266 . S
O47 C44 1.252 . S
O48 In39 2.326 . S
O48 C44 1.260 . S
C49 O40 1.240 . S
C49 O41 1.252 . S
O50 In39 2.294 . S
O50 C43 1.240 . S
O51 In39 2.326 . S
O51 C43 1.252 . S
In52 O53 2.294 . S
In52 O54 2.326 . S
In52 O58 2.266 . S
In52 O59 2.326 . S
In52 O60 2.266 . S
In52 O61 2.326 . S
In52 O63 2.294 . S
In52 O64 2.326 . S
O53 In52 2.294 . S
O53 C62 1.240 . S
O54 In52 2.326 . S
O54 C62 1.252 . S
C55 O58 1.252 . S
C55 O59 1.260 . S
C56 O63 1.240 . S
C56 O64 1.252 . S
C57 O60 1.252 . S
C57 O61 1.260 . S
O58 In52 2.266 . S
O58 C55 1.252 . S
O59 In52 2.326 . S
O59 C55 1.260 . S
O60 In52 2.266 . S
O60 C57 1.252 . S
O61 In52 2.326 . S
O61 C57 1.260 . S
C62 O53 1.240 . S
C62 O54 1.252 . S
O63 In52 2.294 . S
O63 C56 1.240 . S
O64 In52 2.326 . S
O64 C56 1.252 . S
In65 O66 2.294 . S
In65 O67 2.326 . S
In65 O71 2.266 . S
In65 O72 2.326 . S
In65 O73 2.266 . S
In65 O74 2.326 . S
In65 O76 2.294 . S
In65 O77 2.326 . S
O66 In65 2.294 . S
O66 C75 1.240 . S
O67 In65 2.326 . S
O67 C75 1.252 . S
C68 O71 1.252 . S
C68 O72 1.260 . S
C69 O76 1.240 . S
C69 O77 1.252 . S
C70 O73 1.252 . S
C70 O74 1.260 . S
O71 In65 2.266 . S
O71 C68 1.252 . S
O72 In65 2.326 . S
O72 C68 1.260 . S
O73 In65 2.266 . S
O73 C70 1.252 . S
O74 In65 2.326 . S
O74 C70 1.260 . S
C75 O66 1.240 . S
C75 O67 1.252 . S
O76 In65 2.294 . S
O76 C69 1.240 . S
O77 In65 2.326 . S
O77 C69 1.252 . S
In78 O79 2.294 . S
In78 O80 2.326 . S
In78 O84 2.266 . S
In78 O85 2.326 . S
In78 O86 2.266 . S
In78 O87 2.326 . S
In78 O89 2.294 . S
In78 O90 2.326 . S
O79 In78 2.294 . S
O79 C88 1.240 . S
O80 In78 2.326 . S
O80 C88 1.252 . S
C81 O84 1.252 . S
C81 O85 1.260 . S
C82 O89 1.240 . S
C82 O90 1.252 . S
C83 O86 1.252 . S
C83 O87 1.260 . S
O84 In78 2.266 . S
O84 C81 1.252 . S
O85 In78 2.326 . S
O85 C81 1.260 . S
O86 In78 2.266 . S
O86 C83 1.252 . S
O87 In78 2.326 . S
O87 C83 1.260 . S
C88 O79 1.240 . S
C88 O80 1.252 . S
O89 In78 2.294 . S
O89 C82 1.240 . S
O90 In78 2.326 . S
O90 C82 1.252 . S
In91 O92 2.294 . S
In91 O93 2.326 . S
In91 O97 2.266 . S
In91 O98 2.326 . S
In91 O99 2.266 . S
In91 O100 2.326 . S
In91 O102 2.294 . S
In91 O103 2.326 . S
O92 In91 2.294 . S
O92 C101 1.240 . S
O93 In91 2.326 . S
O93 C101 1.252 . S
C94 O97 1.252 . S
C94 O98 1.260 . S
C95 O102 1.240 . S
C95 O103 1.252 . S
C96 O99 1.252 . S
C96 O100 1.260 . S
O97 In91 2.266 . S
O97 C94 1.252 . S
O98 In91 2.326 . S
O98 C94 1.260 . S
O99 In91 2.266 . S
O99 C96 1.252 . S
O100 In91 2.326 . S
O100 C96 1.260 . S
C101 O92 1.240 . S
C101 O93 1.252 . S
O102 In91 2.294 . S
O102 C95 1.240 . S
O103 In91 2.326 . S
O103 C95 1.252 . S
In104 O105 2.294 . S
In104 O106 2.326 . S
In104 O110 2.266 . S
In104 O111 2.326 . S
In104 O112 2.266 . S
In104 O113 2.326 . S
In104 O115 2.294 . S
In104 O116 2.326 . S
O105 In104 2.294 . S
O105 C114 1.240 . S
O106 In104 2.326 . S
O106 C114 1.252 . S
C107 O110 1.252 . S
C107 O111 1.260 . S
C108 O115 1.240 . S
C108 O116 1.252 . S
C109 O112 1.252 . S
C109 O113 1.260 . S
O110 In104 2.266 . S
O110 C107 1.252 . S
O111 In104 2.326 . S
O111 C107 1.260 . S
O112 In104 2.266 . S
O112 C109 1.252 . S
O113 In104 2.326 . S
O113 C109 1.260 . S
C114 O105 1.240 . S
C114 O106 1.252 . S
O115 In104 2.294 . S
O115 C108 1.240 . S
O116 In104 2.326 . S
O116 C108 1.252 . S
In117 O118 2.294 . S
In117 O119 2.326 . S
In117 O123 2.266 . S
In117 O124 2.326 . S
In117 O125 2.266 . S
In117 O126 2.326 . S
In117 O128 2.294 . S
In117 O129 2.326 . S
O118 In117 2.294 . S
O118 C127 1.240 . S
O119 In117 2.326 . S
O119 C127 1.252 . S
C120 O123 1.252 . S
C120 O124 1.260 . S
C121 O128 1.240 . S
C121 O129 1.252 . S
C122 O125 1.252 . S
C122 O126 1.260 . S
O123 In117 2.266 . S
O123 C120 1.252 . S
O124 In117 2.326 . S
O124 C120 1.260 . S
O125 In117 2.266 . S
O125 C122 1.252 . S
O126 In117 2.326 . S
O126 C122 1.260 . S
C127 O118 1.240 . S
C127 O119 1.252 . S
O128 In117 2.294 . S
O128 C121 1.240 . S
O129 In117 2.326 . S
O129 C121 1.252 . S
In130 O131 2.294 . S
In130 O132 2.326 . S
In130 O136 2.266 . S
In130 O137 2.326 . S
In130 O138 2.266 . S
In130 O139 2.326 . S
In130 O141 2.294 . S
In130 O142 2.326 . S
O131 In130 2.294 . S
O131 C140 1.240 . S
O132 In130 2.326 . S
O132 C140 1.252 . S
C133 O136 1.252 . S
C133 O137 1.260 . S
C134 O141 1.240 . S
C134 O142 1.252 . S
C135 O138 1.252 . S
C135 O139 1.260 . S
O136 In130 2.266 . S
O136 C133 1.252 . S
O137 In130 2.326 . S
O137 C133 1.260 . S
O138 In130 2.266 . S
O138 C135 1.252 . S
O139 In130 2.326 . S
O139 C135 1.260 . S
C140 O131 1.240 . S
C140 O132 1.252 . S
O141 In130 2.294 . S
O141 C134 1.240 . S
O142 In130 2.326 . S
O142 C134 1.252 . S
In143 O144 2.294 . S
In143 O145 2.326 . S
In143 O149 2.266 . S
In143 O150 2.326 . S
In143 O151 2.266 . S
In143 O152 2.326 . S
In143 O154 2.294 . S
In143 O155 2.326 . S
O144 In143 2.294 . S
O144 C153 1.240 . S
O145 In143 2.326 . S
O145 C153 1.252 . S
C146 O149 1.252 . S
C146 O150 1.260 . S
C147 O154 1.240 . S
C147 O155 1.252 . S
C148 O151 1.252 . S
C148 O152 1.260 . S
O149 In143 2.266 . S
O149 C146 1.252 . S
O150 In143 2.326 . S
O150 C146 1.260 . S
O151 In143 2.266 . S
O151 C148 1.252 . S
O152 In143 2.326 . S
O152 C148 1.260 . S
C153 O144 1.240 . S
C153 O145 1.252 . S
O154 In143 2.294 . S
O154 C147 1.240 . S
O155 In143 2.326 . S
O155 C147 1.252 . S
In156 O157 2.294 . S
In156 O158 2.326 . S
In156 O162 2.266 . S
In156 O163 2.326 . S
In156 O164 2.266 . S
In156 O165 2.326 . S
In156 O167 2.294 . S
In156 O168 2.326 . S
O157 In156 2.294 . S
O157 C166 1.240 . S
O158 In156 2.326 . S
O158 C166 1.252 . S
C159 O162 1.252 . S
C159 O163 1.260 . S
C160 O167 1.240 . S
C160 O168 1.252 . S
C161 O164 1.252 . S
C161 O165 1.260 . S
O162 In156 2.266 . S
O162 C159 1.252 . S
O163 In156 2.326 . S
O163 C159 1.260 . S
O164 In156 2.266 . S
O164 C161 1.252 . S
O165 In156 2.326 . S
O165 C161 1.260 . S
C166 O157 1.240 . S
C166 O158 1.252 . S
O167 In156 2.294 . S
O167 C160 1.240 . S
O168 In156 2.326 . S
O168 C160 1.252 . S
In169 O170 2.294 . S
In169 O171 2.326 . S
In169 O175 2.266 . S
In169 O176 2.326 . S
In169 O177 2.266 . S
In169 O178 2.326 . S
In169 O180 2.294 . S
In169 O181 2.326 . S
O170 In169 2.294 . S
O170 C179 1.240 . S
O171 In169 2.326 . S
O171 C179 1.252 . S
C172 O175 1.252 . S
C172 O176 1.260 . S
C173 O180 1.240 . S
C173 O181 1.252 . S
C174 O177 1.252 . S
C174 O178 1.260 . S
O175 In169 2.266 . S
O175 C172 1.252 . S
O176 In169 2.326 . S
O176 C172 1.260 . S
O177 In169 2.266 . S
O177 C174 1.252 . S
O178 In169 2.326 . S
O178 C174 1.260 . S
C179 O170 1.240 . S
C179 O171 1.252 . S
O180 In169 2.294 . S
O180 C173 1.240 . S
O181 In169 2.326 . S
O181 C173 1.252 . S
In182 O183 2.294 . S
In182 O184 2.326 . S
In182 O188 2.266 . S
In182 O189 2.326 . S
In182 O190 2.266 . S
In182 O191 2.326 . S
In182 O193 2.294 . S
In182 O194 2.326 . S
O183 In182 2.294 . S
O183 C192 1.240 . S
O184 In182 2.326 . S
O184 C192 1.252 . S
C185 O188 1.252 . S
C185 O189 1.260 . S
C186 O193 1.240 . S
C186 O194 1.252 . S
C187 O190 1.252 . S
C187 O191 1.260 . S
O188 In182 2.266 . S
O188 C185 1.252 . S
O189 In182 2.326 . S
O189 C185 1.260 . S
O190 In182 2.266 . S
O190 C187 1.252 . S
O191 In182 2.326 . S
O191 C187 1.260 . S
C192 O183 1.240 . S
C192 O184 1.252 . S
O193 In182 2.294 . S
O193 C186 1.240 . S
O194 In182 2.326 . S
O194 C186 1.252 . S
In195 O196 2.294 . S
In195 O197 2.326 . S
In195 O201 2.266 . S
In195 O202 2.326 . S
In195 O203 2.266 . S
In195 O204 2.326 . S
In195 O206 2.294 . S
In195 O207 2.326 . S
O196 In195 2.294 . S
O196 C205 1.240 . S
O197 In195 2.326 . S
O197 C205 1.252 . S
C198 O201 1.252 . S
C198 O202 1.260 . S
C199 O206 1.240 . S
C199 O207 1.252 . S
C200 O203 1.252 . S
C200 O204 1.260 . S
O201 In195 2.266 . S
O201 C198 1.252 . S
O202 In195 2.326 . S
O202 C198 1.260 . S
O203 In195 2.266 . S
O203 C200 1.252 . S
O204 In195 2.326 . S
O204 C200 1.260 . S
C205 O196 1.240 . S
C205 O197 1.252 . S
O206 In195 2.294 . S
O206 C199 1.240 . S
O207 In195 2.326 . S
O207 C199 1.252 . S
H208 C216 0.950 . S
H209 C221 0.950 . S
H210 C218 0.950 . S
H211 C220 0.950 . S
H212 C222 0.950 . S
H213 C224 0.950 . S
H214 C226 0.950 . S
H215 C227 0.950 . S
C216 H208 0.950 . S
C216 C217 1.386 . S
C216 C218 1.391 . S
C217 C216 1.386 . S
C217 C221 1.393 . S
C218 H210 0.950 . S
C218 C216 1.391 . S
C218 C219 1.400 . S
C219 C218 1.400 . S
C219 C220 1.398 . S
C219 C225 1.491 . S
C220 H211 0.950 . S
C220 C219 1.398 . S
C220 C221 1.391 . S
C221 H209 0.950 . S
C221 C217 1.393 . S
C221 C220 1.391 . S
C222 H212 0.950 . S
C222 C223 1.386 . S
C222 C224 1.391 . S
C223 C222 1.386 . S
C223 C227 1.393 . S
C224 H213 0.950 . S
C224 C222 1.391 . S
C224 C225 1.400 . S
C225 C219 1.491 . S
C225 C224 1.400 . S
C225 C226 1.398 . S
C226 H214 0.950 . S
C226 C225 1.398 . S
C226 C227 1.391 . S
C227 H215 0.950 . S
C227 C223 1.393 . S
C227 C226 1.391 . S
H228 C236 0.950 . S
H229 C241 0.950 . S
H230 C238 0.950 . S
H231 C240 0.950 . S
H232 C242 0.950 . S
H233 C244 0.950 . S
H234 C246 0.950 . S
H235 C247 0.950 . S
C236 H228 0.950 . S
C236 C237 1.386 . S
C236 C238 1.391 . S
C237 C236 1.386 . S
C237 C241 1.393 . S
C238 H230 0.950 . S
C238 C236 1.391 . S
C238 C239 1.400 . S
C239 C238 1.400 . S
C239 C240 1.398 . S
C239 C245 1.491 . S
C240 H231 0.950 . S
C240 C239 1.398 . S
C240 C241 1.391 . S
C241 H229 0.950 . S
C241 C237 1.393 . S
C241 C240 1.391 . S
C242 H232 0.950 . S
C242 C243 1.386 . S
C242 C244 1.391 . S
C243 C242 1.386 . S
C243 C247 1.393 . S
C244 H233 0.950 . S
C244 C242 1.391 . S
C244 C245 1.400 . S
C245 C239 1.491 . S
C245 C244 1.400 . S
C245 C246 1.398 . S
C246 H234 0.950 . S
C246 C245 1.398 . S
C246 C247 1.391 . S
C247 H235 0.950 . S
C247 C243 1.393 . S
C247 C246 1.391 . S
H248 C256 0.950 . S
H249 C261 0.950 . S
H250 C258 0.950 . S
H251 C260 0.950 . S
H252 C262 0.950 . S
H253 C264 0.950 . S
H254 C266 0.950 . S
H255 C267 0.950 . S
C256 H248 0.950 . S
C256 C257 1.386 . S
C256 C258 1.391 . S
C257 C256 1.386 . S
C257 C261 1.393 . S
C258 H250 0.950 . S
C258 C256 1.391 . S
C258 C259 1.400 . S
C259 C258 1.400 . S
C259 C260 1.398 . S
C259 C265 1.491 1_554 S
C260 H251 0.950 . S
C260 C259 1.398 . S
C260 C261 1.391 . S
C261 H249 0.950 . S
C261 C257 1.393 . S
C261 C260 1.391 . S
C262 H252 0.950 . S
C262 C263 1.386 . S
C262 C264 1.391 . S
C263 C262 1.386 . S
C263 C267 1.393 . S
C264 H253 0.950 . S
C264 C262 1.391 . S
C264 C265 1.400 . S
C265 C259 1.491 1_556 S
C265 C264 1.400 . S
C265 C266 1.398 . S
C266 H254 0.950 . S
C266 C265 1.398 . S
C266 C267 1.391 . S
C267 H255 0.950 . S
C267 C263 1.393 . S
C267 C266 1.391 . S
H268 C276 0.950 . S
H269 C281 0.950 . S
H270 C278 0.950 . S
H271 C280 0.950 . S
H272 C282 0.950 . S
H273 C284 0.950 . S
H274 C286 0.950 . S
H275 C287 0.950 . S
C276 H268 0.950 . S
C276 C277 1.386 . S
C276 C278 1.391 . S
C277 C276 1.386 . S
C277 C281 1.393 . S
C278 H270 0.950 . S
C278 C276 1.391 . S
C278 C279 1.400 . S
C279 C278 1.400 . S
C279 C280 1.398 . S
C279 C285 1.491 1_556 S
C280 H271 0.950 . S
C280 C279 1.398 . S
C280 C281 1.391 . S
C281 H269 0.950 . S
C281 C277 1.393 . S
C281 C280 1.391 . S
C282 H272 0.950 . S
C282 C283 1.386 . S
C282 C284 1.391 . S
C283 C282 1.386 . S
C283 C287 1.393 . S
C284 H273 0.950 . S
C284 C282 1.391 . S
C284 C285 1.400 . S
C285 C279 1.491 1_554 S
C285 C284 1.400 . S
C285 C286 1.398 . S
C286 H274 0.950 . S
C286 C285 1.398 . S
C286 C287 1.391 . S
C287 H275 0.950 . S
C287 C283 1.393 . S
C287 C286 1.391 . S
H288 C296 0.950 . S
H289 C301 0.950 . S
H290 C298 0.950 . S
H291 C300 0.950 . S
H292 C302 0.950 . S
H293 C304 0.950 . S
H294 C306 0.950 . S
H295 C307 0.950 . S
C296 H288 0.950 . S
C296 C297 1.386 . S
C296 C298 1.391 . S
C297 C296 1.386 . S
C297 C301 1.393 . S
C298 H290 0.950 . S
C298 C296 1.391 . S
C298 C299 1.400 . S
C299 C298 1.400 . S
C299 C300 1.398 . S
C299 C305 1.491 . S
C300 H291 0.950 . S
C300 C299 1.398 . S
C300 C301 1.391 . S
C301 H289 0.950 . S
C301 C297 1.393 . S
C301 C300 1.391 . S
C302 H292 0.950 . S
C302 C303 1.386 . S
C302 C304 1.391 . S
C303 C302 1.386 . S
C303 C307 1.393 . S
C304 H293 0.950 . S
C304 C302 1.391 . S
C304 C305 1.400 . S
C305 C299 1.491 . S
C305 C304 1.400 . S
C305 C306 1.398 . S
C306 H294 0.950 . S
C306 C305 1.398 . S
C306 C307 1.391 . S
C307 H295 0.950 . S
C307 C303 1.393 . S
C307 C306 1.391 . S
H308 C316 0.950 . S
H309 C321 0.950 . S
H310 C318 0.950 . S
H311 C320 0.950 . S
H312 C322 0.950 . S
H313 C324 0.950 . S
H314 C326 0.950 . S
H315 C327 0.950 . S
C316 H308 0.950 . S
C316 C317 1.386 . S
C316 C318 1.391 . S
C317 C316 1.386 . S
C317 C321 1.393 . S
C318 H310 0.950 . S
C318 C316 1.391 . S
C318 C319 1.400 . S
C319 C318 1.400 . S
C319 C320 1.398 . S
C319 C325 1.491 . S
C320 H311 0.950 . S
C320 C319 1.398 . S
C320 C321 1.391 . S
C321 H309 0.950 . S
C321 C317 1.393 . S
C321 C320 1.391 . S
C322 H312 0.950 . S
C322 C323 1.386 . S
C322 C324 1.391 . S
C323 C322 1.386 . S
C323 C327 1.393 . S
C324 H313 0.950 . S
C324 C322 1.391 . S
C324 C325 1.400 . S
C325 C319 1.491 . S
C325 C324 1.400 . S
C325 C326 1.398 . S
C326 H314 0.950 . S
C326 C325 1.398 . S
C326 C327 1.391 . S
C327 H315 0.950 . S
C327 C323 1.393 . S
C327 C326 1.391 . S
H328 C336 0.950 . S
H329 C341 0.950 . S
H330 C338 0.950 . S
H331 C340 0.950 . S
H332 C342 0.950 . S
H333 C344 0.950 . S
H334 C346 0.950 . S
H335 C347 0.950 . S
C336 H328 0.950 . S
C336 C337 1.386 . S
C336 C338 1.391 . S
C337 C336 1.386 . S
C337 C341 1.393 . S
C338 H330 0.950 . S
C338 C336 1.391 . S
C338 C339 1.400 . S
C339 C338 1.400 . S
C339 C340 1.398 . S
C339 C345 1.491 1_556 S
C340 H331 0.950 . S
C340 C339 1.398 . S
C340 C341 1.391 . S
C341 H329 0.950 . S
C341 C337 1.393 . S
C341 C340 1.391 . S
C342 H332 0.950 . S
C342 C343 1.386 . S
C342 C344 1.391 . S
C343 C342 1.386 . S
C343 C347 1.393 . S
C344 H333 0.950 . S
C344 C342 1.391 . S
C344 C345 1.400 . S
C345 C339 1.491 1_554 S
C345 C344 1.400 . S
C345 C346 1.398 . S
C346 H334 0.950 . S
C346 C345 1.398 . S
C346 C347 1.391 . S
C347 H335 0.950 . S
C347 C343 1.393 . S
C347 C346 1.391 . S
H348 C356 0.950 . S
H349 C361 0.950 . S
H350 C358 0.950 . S
H351 C360 0.950 . S
H352 C362 0.950 . S
H353 C364 0.950 . S
H354 C366 0.950 . S
H355 C367 0.950 . S
C356 H348 0.950 . S
C356 C357 1.386 . S
C356 C358 1.391 . S
C357 C356 1.386 . S
C357 C361 1.393 . S
C358 H350 0.950 . S
C358 C356 1.391 . S
C358 C359 1.400 . S
C359 C358 1.400 . S
C359 C360 1.398 . S
C359 C365 1.491 1_554 S
C360 H351 0.950 . S
C360 C359 1.398 . S
C360 C361 1.391 . S
C361 H349 0.950 . S
C361 C357 1.393 . S
C361 C360 1.391 . S
C362 H352 0.950 . S
C362 C363 1.386 . S
C362 C364 1.391 . S
C363 C362 1.386 . S
C363 C367 1.393 . S
C364 H353 0.950 . S
C364 C362 1.391 . S
C364 C365 1.400 . S
C365 C359 1.491 1_556 S
C365 C364 1.400 . S
C365 C366 1.398 . S
C366 H354 0.950 . S
C366 C365 1.398 . S
C366 C367 1.391 . S
C367 H355 0.950 . S
C367 C363 1.393 . S
C367 C366 1.391 . S
H368 C376 0.950 . S
H369 C381 0.939 1_545 S
H370 C378 0.950 . S
H371 C380 0.950 . S
H372 C382 0.950 . S
H373 C384 0.950 . S
H374 C386 0.950 . S
H375 C387 0.939 1_565 S
C376 H368 0.950 . S
C376 C377 1.386 . S
C376 C378 1.391 . S
C377 C376 1.386 . S
C377 C381 1.393 . S
C378 H370 0.950 . S
C378 C376 1.391 . S
C378 C379 1.400 . S
C379 C378 1.400 . S
C379 C380 1.398 1_565 S
C379 C385 1.491 1_565 S
C380 H371 0.950 . S
C380 C379 1.398 1_545 S
C380 C381 1.391 1_545 S
C381 H369 0.939 1_565 S
C381 C377 1.393 . S
C381 C380 1.391 1_565 S
C382 H372 0.950 . S
C382 C383 1.386 . S
C382 C384 1.391 . S
C383 C382 1.386 . S
C383 C387 1.393 . S
C384 H373 0.950 . S
C384 C382 1.391 . S
C384 C385 1.400 . S
C385 C379 1.491 1_545 S
C385 C384 1.400 . S
C385 C386 1.398 1_545 S
C386 H374 0.950 . S
C386 C385 1.398 1_565 S
C386 C387 1.391 1_565 S
C387 H375 0.939 1_545 S
C387 C383 1.393 . S
C387 C386 1.391 1_545 S
H388 C396 0.950 . S
H389 C401 0.950 . S
H390 C398 0.951 . S
H391 C400 0.950 . S
H392 C402 0.950 . S
H393 C404 0.951 . S
H394 C406 0.950 . S
H395 C407 0.950 . S
C396 H388 0.950 . S
C396 C397 1.386 . S
C396 C398 1.391 . S
C397 C396 1.386 . S
C397 C401 1.393 . S
C398 H390 0.951 . S
C398 C396 1.391 . S
C398 C399 1.400 . S
C399 C398 1.400 . S
C399 C400 1.398 . S
C399 C405 1.491 1_565 S
C400 H391 0.950 . S
C400 C399 1.398 . S
C400 C401 1.391 . S
C401 H389 0.950 . S
C401 C397 1.393 . S
C401 C400 1.391 . S
C402 H392 0.950 . S
C402 C403 1.386 . S
C402 C404 1.391 . S
C403 C402 1.386 . S
C403 C407 1.393 . S
C404 H393 0.951 . S
C404 C402 1.391 . S
C404 C405 1.400 . S
C405 C399 1.491 1_545 S
C405 C404 1.400 . S
C405 C406 1.398 . S
C406 H394 0.950 . S
C406 C405 1.398 . S
C406 C407 1.391 . S
C407 H395 0.950 . S
C407 C403 1.393 . S
C407 C406 1.391 . S
H408 C416 0.959 . S
H409 C421 0.950 . S
H410 C418 0.950 . S
H411 C420 0.950 . S
H412 C422 0.959 . S
H413 C424 0.950 . S
H414 C426 0.950 . S
H415 C427 0.950 . S
C416 H408 0.959 . S
C416 C417 1.370 1_545 S
C416 C418 1.397 . S
C417 C416 1.370 1_565 S
C417 C421 1.393 . S
C418 H410 0.950 . S
C418 C416 1.397 . S
C418 C419 1.400 1_545 S
C419 C418 1.400 1_565 S
C419 C420 1.398 . S
C419 C425 1.491 1_565 S
C420 H411 0.950 . S
C420 C419 1.398 . S
C420 C421 1.391 . S
C421 H409 0.950 . S
C421 C417 1.393 . S
C421 C420 1.391 . S
C422 H412 0.959 . S
C422 C423 1.370 1_565 S
C422 C424 1.397 . S
C423 C422 1.370 1_545 S
C423 C427 1.393 . S
C424 H413 0.950 . S
C424 C422 1.397 . S
C424 C425 1.400 1_565 S
C425 C419 1.491 1_545 S
C425 C424 1.400 1_545 S
C425 C426 1.398 . S
C426 H414 0.950 . S
C426 C425 1.398 . S
C426 C427 1.391 . S
C427 H415 0.950 . S
C427 C423 1.393 . S
C427 C426 1.391 . S
H428 C436 0.950 1_565 S
H429 C441 0.950 . S
H430 C438 0.950 . S
H431 C440 0.950 . S
H432 C442 0.950 1_545 S
H433 C444 0.950 . S
H434 C446 0.950 . S
H435 C447 0.950 . S
C436 H428 0.950 1_545 S
C436 C437 1.386 . S
C436 C438 1.391 1_545 S
C437 C436 1.386 . S
C437 C441 1.393 . S
C438 H430 0.950 . S
C438 C436 1.391 1_565 S
C438 C439 1.400 1_565 S
C439 C438 1.400 1_545 S
C439 C440 1.398 . S
C439 C445 1.491 1_545 S
C440 H431 0.950 . S
C440 C439 1.398 . S
C440 C441 1.391 . S
C441 H429 0.950 . S
C441 C437 1.393 . S
C441 C440 1.391 . S
C442 H432 0.950 1_565 S
C442 C443 1.386 . S
C442 C444 1.391 1_565 S
C443 C442 1.386 . S
C443 C447 1.393 . S
C444 H433 0.950 . S
C444 C442 1.391 1_545 S
C444 C445 1.400 1_545 S
C445 C439 1.491 1_565 S
C445 C444 1.400 1_565 S
C445 C446 1.398 . S
C446 H434 0.950 . S
C446 C445 1.398 . S
C446 C447 1.391 . S
C447 H435 0.950 . S
C447 C443 1.393 . S
C447 C446 1.391 . S
H448 C456 0.950 . S
H449 C461 0.950 . S
H450 C458 0.950 . S
H451 C460 0.950 . S
H452 C462 0.950 . S
H453 C464 0.950 . S
H454 C466 0.950 . S
H455 C467 0.950 . S
C456 H448 0.950 . S
C456 C457 1.386 . S
C456 C458 1.391 . S
C457 C456 1.386 . S
C457 C461 1.393 . S
C458 H450 0.950 . S
C458 C456 1.391 . S
C458 C459 1.400 . S
C459 C458 1.400 . S
C459 C460 1.398 . S
C459 C465 1.491 1_655 S
C460 H451 0.950 . S
C460 C459 1.398 . S
C460 C461 1.391 . S
C461 H449 0.950 . S
C461 C457 1.393 . S
C461 C460 1.391 . S
C462 H452 0.950 . S
C462 C463 1.386 . S
C462 C464 1.391 . S
C463 C462 1.386 . S
C463 C467 1.393 . S
C464 H453 0.950 . S
C464 C462 1.391 . S
C464 C465 1.400 . S
C465 C459 1.491 1_455 S
C465 C464 1.400 . S
C465 C466 1.398 . S
C466 H454 0.950 . S
C466 C465 1.398 . S
C466 C467 1.391 . S
C467 H455 0.950 . S
C467 C463 1.393 . S
C467 C466 1.391 . S
H468 C476 0.950 . S
H469 C481 0.950 . S
H470 C478 0.950 . S
H471 C480 0.950 . S
H472 C482 0.950 . S
H473 C484 0.950 . S
H474 C486 0.950 . S
H475 C487 0.950 . S
C476 H468 0.950 . S
C476 C477 1.386 . S
C476 C478 1.391 . S
C477 C476 1.386 . S
C477 C481 1.393 . S
C478 H470 0.950 . S
C478 C476 1.391 . S
C478 C479 1.400 . S
C479 C478 1.400 . S
C479 C480 1.398 . S
C479 C485 1.491 1_455 S
C480 H471 0.950 . S
C480 C479 1.398 . S
C480 C481 1.391 . S
C481 H469 0.950 . S
C481 C477 1.393 . S
C481 C480 1.391 . S
C482 H472 0.950 . S
C482 C483 1.386 . S
C482 C484 1.391 . S
C483 C482 1.386 . S
C483 C487 1.393 . S
C484 H473 0.950 . S
C484 C482 1.391 . S
C484 C485 1.400 . S
C485 C479 1.491 1_655 S
C485 C484 1.400 . S
C485 C486 1.398 . S
C486 H474 0.950 . S
C486 C485 1.398 . S
C486 C487 1.391 . S
C487 H475 0.950 . S
C487 C483 1.393 . S
C487 C486 1.391 . S
H488 C496 0.950 . S
H489 C501 0.950 . S
H490 C498 0.950 . S
H491 C500 0.950 . S
H492 C502 0.950 . S
H493 C504 0.950 . S
H494 C506 0.950 . S
H495 C507 0.950 . S
C496 H488 0.950 . S
C496 C497 1.386 . S
C496 C498 1.391 . S
C497 C496 1.386 . S
C497 C501 1.393 . S
C498 H490 0.950 . S
C498 C496 1.391 . S
C498 C499 1.400 . S
C499 C498 1.400 . S
C499 C500 1.398 . S
C499 C505 1.491 1_655 S
C500 H491 0.950 . S
C500 C499 1.398 . S
C500 C501 1.391 . S
C501 H489 0.950 . S
C501 C497 1.393 . S
C501 C500 1.391 . S
C502 H492 0.950 . S
C502 C503 1.386 . S
C502 C504 1.391 . S
C503 C502 1.386 . S
C503 C507 1.393 . S
C504 H493 0.950 . S
C504 C502 1.391 . S
C504 C505 1.400 . S
C505 C499 1.491 1_455 S
C505 C504 1.400 . S
C505 C506 1.398 . S
C506 H494 0.950 . S
C506 C505 1.398 . S
C506 C507 1.391 . S
C507 H495 0.950 . S
C507 C503 1.393 . S
C507 C506 1.391 . S
H508 C516 0.950 . S
H509 C521 0.950 . S
H510 C518 0.950 . S
H511 C520 0.950 . S
H512 C522 0.950 . S
H513 C524 0.950 . S
H514 C526 0.950 . S
H515 C527 0.950 . S
C516 H508 0.950 . S
C516 C517 1.386 . S
C516 C518 1.391 . S
C517 C516 1.386 . S
C517 C521 1.393 . S
C518 H510 0.950 . S
C518 C516 1.391 . S
C518 C519 1.400 . S
C519 C518 1.400 . S
C519 C520 1.398 . S
C519 C525 1.491 1_455 S
C520 H511 0.950 . S
C520 C519 1.398 . S
C520 C521 1.391 . S
C521 H509 0.950 . S
C521 C517 1.393 . S
C521 C520 1.391 . S
C522 H512 0.950 . S
C522 C523 1.386 . S
C522 C524 1.391 . S
C523 C522 1.386 . S
C523 C527 1.393 . S
C524 H513 0.950 . S
C524 C522 1.391 . S
C524 C525 1.400 . S
C525 C519 1.491 1_655 S
C525 C524 1.400 . S
C525 C526 1.398 . S
C526 H514 0.950 . S
C526 C525 1.398 . S
C526 C527 1.391 . S
C527 H515 0.950 . S
C527 C523 1.393 . S
C527 C526 1.391 . S
H528 C536 0.950 . S
H529 C541 0.950 . S
H530 C538 0.950 . S
H531 C540 0.950 . S
H532 C542 0.950 . S
H533 C544 0.950 . S
H534 C546 0.950 . S
H535 C547 0.950 . S
C536 H528 0.950 . S
C536 C537 1.386 . S
C536 C538 1.391 . S
C537 C536 1.386 . S
C537 C541 1.393 . S
C538 H530 0.950 . S
C538 C536 1.391 . S
C538 C539 1.400 . S
C539 C538 1.400 . S
C539 C540 1.398 . S
C539 C545 1.491 . S
C540 H531 0.950 . S
C540 C539 1.398 . S
C540 C541 1.391 . S
C541 H529 0.950 . S
C541 C537 1.393 . S
C541 C540 1.391 . S
C542 H532 0.950 . S
C542 C543 1.386 . S
C542 C544 1.391 . S
C543 C542 1.386 . S
C543 C547 1.393 . S
C544 H533 0.950 . S
C544 C542 1.391 . S
C544 C545 1.400 . S
C545 C539 1.491 . S
C545 C544 1.400 . S
C545 C546 1.398 . S
C546 H534 0.950 . S
C546 C545 1.398 . S
C546 C547 1.391 . S
C547 H535 0.950 . S
C547 C543 1.393 . S
C547 C546 1.391 . S
H548 C556 0.950 . S
H549 C561 0.950 . S
H550 C558 0.950 . S
H551 C560 0.950 . S
H552 C562 0.950 . S
H553 C564 0.950 . S
H554 C566 0.950 . S
H555 C567 0.950 . S
C556 H548 0.950 . S
C556 C557 1.386 . S
C556 C558 1.391 . S
C557 C556 1.386 . S
C557 C561 1.393 . S
C558 H550 0.950 . S
C558 C556 1.391 . S
C558 C559 1.400 . S
C559 C558 1.400 . S
C559 C560 1.398 . S
C559 C565 1.491 . S
C560 H551 0.950 . S
C560 C559 1.398 . S
C560 C561 1.391 . S
C561 H549 0.950 . S
C561 C557 1.393 . S
C561 C560 1.391 . S
C562 H552 0.950 . S
C562 C563 1.386 . S
C562 C564 1.391 . S
C563 C562 1.386 . S
C563 C567 1.393 . S
C564 H553 0.950 . S
C564 C562 1.391 . S
C564 C565 1.400 . S
C565 C559 1.491 . S
C565 C564 1.400 . S
C565 C566 1.398 . S
C566 H554 0.950 . S
C566 C565 1.398 . S
C566 C567 1.391 . S
C567 H555 0.950 . S
C567 C563 1.393 . S
C567 C566 1.391 . S
H568 C576 0.950 . S
H569 C581 0.950 . S
H570 C578 0.950 . S
H571 C580 0.950 . S
H572 C582 0.950 . S
H573 C584 0.950 . S
H574 C586 0.950 . S
H575 C587 0.950 . S
C576 H568 0.950 . S
C576 C577 1.386 . S
C576 C578 1.391 . S
C577 C576 1.386 . S
C577 C581 1.393 . S
C578 H570 0.950 . S
C578 C576 1.391 . S
C578 C579 1.400 . S
C579 C578 1.400 . S
C579 C580 1.398 . S
C579 C585 1.491 . S
C580 H571 0.950 . S
C580 C579 1.398 . S
C580 C581 1.391 . S
C581 H569 0.950 . S
C581 C577 1.393 . S
C581 C580 1.391 . S
C582 H572 0.950 . S
C582 C583 1.386 . S
C582 C584 1.391 . S
C583 C582 1.386 . S
C583 C587 1.393 . S
C584 H573 0.950 . S
C584 C582 1.391 . S
C584 C585 1.400 . S
C585 C579 1.491 . S
C585 C584 1.400 . S
C585 C586 1.398 . S
C586 H574 0.950 . S
C586 C585 1.398 . S
C586 C587 1.391 . S
C587 H575 0.950 . S
C587 C583 1.393 . S
C587 C586 1.391 . S
H588 C596 0.950 . S
H589 C601 0.950 . S
H590 C598 0.950 . S
H591 C600 0.950 . S
H592 C602 0.950 . S
H593 C604 0.950 . S
H594 C606 0.950 . S
H595 C607 0.950 . S
C596 H588 0.950 . S
C596 C597 1.386 . S
C596 C598 1.391 . S
C597 C596 1.386 . S
C597 C601 1.393 . S
C598 H590 0.950 . S
C598 C596 1.391 . S
C598 C599 1.400 . S
C599 C598 1.400 . S
C599 C600 1.398 . S
C599 C605 1.491 . S
C600 H591 0.950 . S
C600 C599 1.398 . S
C600 C601 1.391 . S
C601 H589 0.950 . S
C601 C597 1.393 . S
C601 C600 1.391 . S
C602 H592 0.950 . S
C602 C603 1.386 . S
C602 C604 1.391 . S
C603 C602 1.386 . S
C603 C607 1.393 . S
C604 H593 0.950 . S
C604 C602 1.391 . S
C604 C605 1.400 . S
C605 C599 1.491 . S
C605 C604 1.400 . S
C605 C606 1.398 . S
C606 H594 0.950 . S
C606 C605 1.398 . S
C606 C607 1.391 . S
C607 H595 0.950 . S
C607 C603 1.393 . S
C607 C606 1.391 . S
H608 C616 0.950 . S
H609 C621 0.950 . S
H610 C618 0.950 . S
H611 C620 0.950 . S
H612 C622 0.950 . S
H613 C624 0.950 . S
H614 C626 0.950 . S
H615 C627 0.950 . S
C616 H608 0.950 . S
C616 C617 1.386 . S
C616 C618 1.391 . S
C617 C616 1.386 . S
C617 C621 1.393 . S
C618 H610 0.950 . S
C618 C616 1.391 . S
C618 C619 1.400 . S
C619 C618 1.400 . S
C619 C620 1.398 . S
C619 C625 1.491 . S
C620 H611 0.950 . S
C620 C619 1.398 . S
C620 C621 1.391 . S
C621 H609 0.950 . S
C621 C617 1.393 . S
C621 C620 1.391 . S
C622 H612 0.950 . S
C622 C623 1.386 . S
C622 C624 1.391 . S
C623 C622 1.386 . S
C623 C627 1.393 . S
C624 H613 0.950 . S
C624 C622 1.391 . S
C624 C625 1.400 . S
C625 C619 1.491 . S
C625 C624 1.400 . S
C625 C626 1.398 . S
C626 H614 0.950 . S
C626 C625 1.398 . S
C626 C627 1.391 . S
C627 H615 0.950 . S
C627 C623 1.393 . S
C627 C626 1.391 . S
H628 C636 0.950 . S
H629 C641 0.950 . S
H630 C638 0.950 . S
H631 C640 0.950 . S
H632 C642 0.950 . S
H633 C644 0.950 . S
H634 C646 0.950 . S
H635 C647 0.950 . S
C636 H628 0.950 . S
C636 C637 1.386 . S
C636 C638 1.391 . S
C637 C636 1.386 . S
C637 C641 1.393 . S
C638 H630 0.950 . S
C638 C636 1.391 . S
C638 C639 1.400 . S
C639 C638 1.400 . S
C639 C640 1.398 . S
C639 C645 1.491 . S
C640 H631 0.950 . S
C640 C639 1.398 . S
C640 C641 1.391 . S
C641 H629 0.950 . S
C641 C637 1.393 . S
C641 C640 1.391 . S
C642 H632 0.950 . S
C642 C643 1.386 . S
C642 C644 1.391 . S
C643 C642 1.386 . S
C643 C647 1.393 . S
C644 H633 0.950 . S
C644 C642 1.391 . S
C644 C645 1.400 . S
C645 C639 1.491 . S
C645 C644 1.400 . S
C645 C646 1.398 . S
C646 H634 0.950 . S
C646 C645 1.398 . S
C646 C647 1.391 . S
C647 H635 0.950 . S
C647 C643 1.393 . S
C647 C646 1.391 . S
H648 C656 0.950 . S
H649 C661 0.950 . S
H650 C658 0.950 . S
H651 C660 0.950 . S
H652 C662 0.950 . S
H653 C664 0.950 . S
H654 C666 0.950 . S
H655 C667 0.950 . S
C656 H648 0.950 . S
C656 C657 1.386 . S
C656 C658 1.391 . S
C657 C656 1.386 . S
C657 C661 1.393 . S
C658 H650 0.950 . S
C658 C656 1.391 . S
C658 C659 1.400 . S
C659 C658 1.400 . S
C659 C660 1.398 . S
C659 C665 1.491 . S
C660 H651 0.950 . S
C660 C659 1.398 . S
C660 C661 1.391 . S
C661 H649 0.950 . S
C661 C657 1.393 . S
C661 C660 1.391 . S
C662 H652 0.950 . S
C662 C663 1.386 . S
C662 C664 1.391 . S
C663 C662 1.386 . S
C663 C667 1.393 . S
C664 H653 0.950 . S
C664 C662 1.391 . S
C664 C665 1.400 . S
C665 C659 1.491 . S
C665 C664 1.400 . S
C665 C666 1.398 . S
C666 H654 0.950 . S
C666 C665 1.398 . S
C666 C667 1.391 . S
C667 H655 0.950 . S
C667 C663 1.393 . S
C667 C666 1.391 . S
H668 C676 0.950 . S
H669 C681 0.950 . S
H670 C678 0.950 . S
H671 C680 0.950 . S
H672 C682 0.950 . S
H673 C684 0.950 . S
H674 C686 0.950 . S
H675 C687 0.950 . S
C676 H668 0.950 . S
C676 C677 1.386 . S
C676 C678 1.391 . S
C677 C676 1.386 . S
C677 C681 1.393 . S
C678 H670 0.950 . S
C678 C676 1.391 . S
C678 C679 1.400 . S
C679 C678 1.400 . S
C679 C680 1.398 . S
C679 C685 1.491 . S
C680 H671 0.950 . S
C680 C679 1.398 . S
C680 C681 1.391 . S
C681 H669 0.950 . S
C681 C677 1.393 . S
C681 C680 1.391 . S
C682 H672 0.950 . S
C682 C683 1.386 . S
C682 C684 1.391 . S
C683 C682 1.386 . S
C683 C687 1.393 . S
C684 H673 0.950 . S
C684 C682 1.391 . S
C684 C685 1.400 . S
C685 C679 1.491 . S
C685 C684 1.400 . S
C685 C686 1.398 . S
C686 H674 0.950 . S
C686 C685 1.398 . S
C686 C687 1.391 . S
C687 H675 0.950 . S
C687 C683 1.393 . S
C687 C686 1.391 . S
H688 C696 0.950 . S
H689 C701 0.952 . S
H690 C698 0.950 . S
H691 C700 0.950 . S
H692 C702 0.950 . S
H693 C704 0.950 . S
H694 C706 0.950 . S
H695 C707 0.952 . S
C696 H688 0.950 . S
C696 C697 1.386 . S
C696 C698 1.391 . S
C697 C696 1.386 . S
C697 C701 1.389 1_545 S
C698 H690 0.950 . S
C698 C696 1.391 . S
C698 C699 1.400 . S
C699 C698 1.400 . S
C699 C700 1.398 1_545 S
C699 C705 1.491 1_545 S
C700 H691 0.950 . S
C700 C699 1.398 1_565 S
C700 C701 1.392 . S
C701 H689 0.952 . S
C701 C697 1.389 1_565 S
C701 C700 1.392 . S
C702 H692 0.950 . S
C702 C703 1.386 . S
C702 C704 1.391 . S
C703 C702 1.386 . S
C703 C707 1.389 1_565 S
C704 H693 0.950 . S
C704 C702 1.391 . S
C704 C705 1.400 . S
C705 C699 1.491 1_565 S
C705 C704 1.400 . S
C705 C706 1.398 1_565 S
C706 H694 0.950 . S
C706 C705 1.398 1_545 S
C706 C707 1.392 . S
C707 H695 0.952 . S
C707 C703 1.389 1_545 S
C707 C706 1.392 . S
H708 C716 0.950 . S
H709 C721 0.950 . S
H710 C718 0.950 1_565 S
H711 C720 0.950 . S
H712 C722 0.950 . S
H713 C724 0.950 1_545 S
H714 C726 0.950 . S
H715 C727 0.950 . S
C716 H708 0.950 . S
C716 C717 1.386 . S
C716 C718 1.391 . S
C717 C716 1.386 . S
C717 C721 1.393 . S
C718 H710 0.950 1_545 S
C718 C716 1.391 . S
C718 C719 1.400 . S
C719 C718 1.400 . S
C719 C720 1.398 . S
C719 C725 1.491 1_545 S
C720 H711 0.950 . S
C720 C719 1.398 . S
C720 C721 1.391 . S
C721 H709 0.950 . S
C721 C717 1.393 . S
C721 C720 1.391 . S
C722 H712 0.950 . S
C722 C723 1.386 . S
C722 C724 1.391 . S
C723 C722 1.386 . S
C723 C727 1.393 . S
C724 H713 0.950 1_565 S
C724 C722 1.391 . S
C724 C725 1.400 . S
C725 C719 1.491 1_565 S
C725 C724 1.400 . S
C725 C726 1.398 . S
C726 H714 0.950 . S
C726 C725 1.398 . S
C726 C727 1.391 . S
C727 H715 0.950 . S
C727 C723 1.393 . S
C727 C726 1.391 . S
H728 C736 0.950 . S
H729 C741 0.946 1_565 S
H730 C738 0.950 . S
H731 C740 0.950 . S
H732 C742 0.950 . S
H733 C744 0.950 . S
H734 C746 0.950 . S
H735 C747 0.946 1_545 S
C736 H728 0.950 . S
C736 C737 1.386 . S
C736 C738 1.391 . S
C737 C736 1.386 . S
C737 C741 1.393 . S
C738 H730 0.950 . S
C738 C736 1.391 . S
C738 C739 1.400 . S
C739 C738 1.400 . S
C739 C740 1.398 1_545 S
C739 C745 1.491 1_545 S
C740 H731 0.950 . S
C740 C739 1.398 1_565 S
C740 C741 1.391 1_565 S
C741 H729 0.946 1_545 S
C741 C737 1.393 . S
C741 C740 1.391 1_545 S
C742 H732 0.950 . S
C742 C743 1.386 . S
C742 C744 1.391 . S
C743 C742 1.386 . S
C743 C747 1.393 . S
C744 H733 0.950 . S
C744 C742 1.391 . S
C744 C745 1.400 . S
C745 C739 1.491 1_565 S
C745 C744 1.400 . S
C745 C746 1.398 1_565 S
C746 H734 0.950 . S
C746 C745 1.398 1_545 S
C746 C747 1.391 1_545 S
C747 H735 0.946 1_565 S
C747 C743 1.393 . S
C747 C746 1.391 1_565 S
H748 C756 0.950 . S
H749 C761 0.950 . S
H750 C758 0.950 . S
H751 C760 0.950 1_545 S
H752 C762 0.950 . S
H753 C764 0.950 . S
H754 C766 0.950 1_565 S
H755 C767 0.950 . S
C756 H748 0.950 . S
C756 C757 1.386 . S
C756 C758 1.391 . S
C757 C756 1.386 . S
C757 C761 1.393 . S
C758 H750 0.950 . S
C758 C756 1.391 . S
C758 C759 1.400 . S
C759 C758 1.400 . S
C759 C760 1.398 . S
C759 C765 1.491 1_565 S
C760 H751 0.950 1_565 S
C760 C759 1.398 . S
C760 C761 1.391 . S
C761 H749 0.950 . S
C761 C757 1.393 . S
C761 C760 1.391 . S
C762 H752 0.950 . S
C762 C763 1.386 . S
C762 C764 1.391 . S
C763 C762 1.386 . S
C763 C767 1.393 . S
C764 H753 0.950 . S
C764 C762 1.391 . S
C764 C765 1.400 . S
C765 C759 1.491 1_545 S
C765 C764 1.400 . S
C765 C766 1.398 . S
C766 H754 0.950 1_545 S
C766 C765 1.398 . S
C766 C767 1.391 . S
C767 H755 0.950 . S
C767 C763 1.393 . S
C767 C766 1.391 . S
H768 C776 0.950 . S
H769 C781 0.950 . S
H770 C778 0.950 . S
H771 C780 0.950 . S
H772 C782 0.950 . S
H773 C784 0.950 . S
H774 C786 0.950 . S
H775 C787 0.950 . S
C776 H768 0.950 . S
C776 C777 1.386 . S
C776 C778 1.391 . S
C777 C776 1.386 . S
C777 C781 1.393 . S
C778 H770 0.950 . S
C778 C776 1.391 . S
C778 C779 1.400 . S
C779 C778 1.400 . S
C779 C780 1.398 . S
C779 C785 1.491 . S
C780 H771 0.950 . S
C780 C779 1.398 . S
C780 C781 1.391 . S
C781 H769 0.950 . S
C781 C777 1.393 . S
C781 C780 1.391 . S
C782 H772 0.950 . S
C782 C783 1.386 . S
C782 C784 1.391 . S
C783 C782 1.386 . S
C783 C787 1.393 . S
C784 H773 0.950 . S
C784 C782 1.391 . S
C784 C785 1.400 . S
C785 C779 1.491 . S
C785 C784 1.400 . S
C785 C786 1.398 . S
C786 H774 0.950 . S
C786 C785 1.398 . S
C786 C787 1.391 . S
C787 H775 0.950 . S
C787 C783 1.393 . S
C787 C786 1.391 . S
H788 C796 0.950 . S
H789 C801 0.950 . S
H790 C798 0.950 . S
H791 C800 0.950 . S
H792 C802 0.950 . S
H793 C804 0.950 . S
H794 C806 0.950 . S
H795 C807 0.950 . S
C796 H788 0.950 . S
C796 C797 1.386 . S
C796 C798 1.391 . S
C797 C796 1.386 . S
C797 C801 1.393 . S
C798 H790 0.950 . S
C798 C796 1.391 . S
C798 C799 1.400 . S
C799 C798 1.400 . S
C799 C800 1.398 . S
C799 C805 1.491 . S
C800 H791 0.950 . S
C800 C799 1.398 . S
C800 C801 1.391 . S
C801 H789 0.950 . S
C801 C797 1.393 . S
C801 C800 1.391 . S
C802 H792 0.950 . S
C802 C803 1.386 . S
C802 C804 1.391 . S
C803 C802 1.386 . S
C803 C807 1.393 . S
C804 H793 0.950 . S
C804 C802 1.391 . S
C804 C805 1.400 . S
C805 C799 1.491 . S
C805 C804 1.400 . S
C805 C806 1.398 . S
C806 H794 0.950 . S
C806 C805 1.398 . S
C806 C807 1.391 . S
C807 H795 0.950 . S
C807 C803 1.393 . S
C807 C806 1.391 . S
H808 C816 0.950 . S
H809 C821 0.950 . S
H810 C818 0.950 . S
H811 C820 0.950 . S
H812 C822 0.950 . S
H813 C824 0.950 . S
H814 C826 0.950 . S
H815 C827 0.950 . S
C816 H808 0.950 . S
C816 C817 1.386 . S
C816 C818 1.391 . S
C817 C816 1.386 . S
C817 C821 1.393 . S
C818 H810 0.950 . S
C818 C816 1.391 . S
C818 C819 1.400 . S
C819 C818 1.400 . S
C819 C820 1.398 . S
C819 C825 1.491 . S
C820 H811 0.950 . S
C820 C819 1.398 . S
C820 C821 1.391 . S
C821 H809 0.950 . S
C821 C817 1.393 . S
C821 C820 1.391 . S
C822 H812 0.950 . S
C822 C823 1.386 . S
C822 C824 1.391 . S
C823 C822 1.386 . S
C823 C827 1.393 . S
C824 H813 0.950 . S
C824 C822 1.391 . S
C824 C825 1.400 . S
C825 C819 1.491 . S
C825 C824 1.400 . S
C825 C826 1.398 . S
C826 H814 0.950 . S
C826 C825 1.398 . S
C826 C827 1.391 . S
C827 H815 0.950 . S
C827 C823 1.393 . S
C827 C826 1.391 . S
H828 C836 0.950 . S
H829 C841 0.950 . S
H830 C838 0.950 . S
H831 C840 0.950 . S
H832 C842 0.950 . S
H833 C844 0.950 . S
H834 C846 0.950 . S
H835 C847 0.950 . S
C836 H828 0.950 . S
C836 C837 1.386 . S
C836 C838 1.391 . S
C837 C836 1.386 . S
C837 C841 1.393 . S
C838 H830 0.950 . S
C838 C836 1.391 . S
C838 C839 1.400 . S
C839 C838 1.400 . S
C839 C840 1.398 . S
C839 C845 1.491 . S
C840 H831 0.950 . S
C840 C839 1.398 . S
C840 C841 1.391 . S
C841 H829 0.950 . S
C841 C837 1.393 . S
C841 C840 1.391 . S
C842 H832 0.950 . S
C842 C843 1.386 . S
C842 C844 1.391 . S
C843 C842 1.386 . S
C843 C847 1.393 . S
C844 H833 0.950 . S
C844 C842 1.391 . S
C844 C845 1.400 . S
C845 C839 1.491 . S
C845 C844 1.400 . S
C845 C846 1.398 . S
C846 H834 0.950 . S
C846 C845 1.398 . S
C846 C847 1.391 . S
C847 H835 0.950 . S
C847 C843 1.393 . S
C847 C846 1.391 . S
C217 C4 1.369 . S
C223 C69 1.373 . S
C237 C62 1.377 . S
C243 C23 1.366 . S
C257 C30 1.364 . S
C263 C101 1.379 . S
C277 C82 1.364 . S
C283 C43 1.379 . S
C297 C179 1.364 . S
C303 C114 1.379 . S
C317 C160 1.366 . S
C323 C121 1.377 . S
C337 C205 1.376 . S
C343 C134 1.366 . S
C357 C153 1.367 . S
C363 C186 1.375 . S
C377 C18 1.513 . S
C383 C3 1.516 . S
C397 C29 1.512 . S
C403 C42 1.511 . S
C417 C57 1.512 . S
C423 C68 1.516 . S
C437 C81 1.513 . S
C443 C96 1.516 . S
C457 C109 1.515 . S
C463 C120 1.516 . S
C477 C148 1.512 . S
C483 C133 1.516 . S
C497 C174 1.513 . S
C503 C159 1.516 . S
C517 C185 1.516 . S
C523 C200 1.512 . S
C537 C127 1.501 . S
C543 C10 1.504 . S
C557 C17 1.501 . S
C563 C108 1.501 . S
C577 C147 1.502 . S
C583 C36 1.504 . S
C597 C49 1.501 . S
C603 C140 1.501 . S
C617 C56 1.502 . S
C623 C173 1.500 . S
C637 C166 1.502 . S
C643 C75 1.504 . S
C657 C88 1.504 . S
C663 C199 1.503 . S
C677 C192 1.502 . S
C683 C95 1.500 . S
C697 C5 1.297 . S
C703 C31 1.304 . S
C717 C44 1.288 . S
C723 C16 1.286 . S
C737 C83 1.303 . S
C743 C55 1.299 . S
C757 C94 1.290 . S
C763 C70 1.285 . S
C777 C135 1.288 . S
C783 C107 1.287 . S
C797 C122 1.298 . S
C803 C146 1.285 . S
C817 C187 1.297 . S
C823 C161 1.285 . S
C837 C172 1.291 . S
C843 C198 1.285 . S
