# Generated by pormake.
# Topology uoa, (4)-cn, num edge types: 1
# Building blocks:
#     Node 0, Type 0, BuildingBlock: KOZSID_clean_sbu_0, # of connection points: 4
#     Node 1, Type 0, BuildingBlock: KOZSID_clean_sbu_0, # of connection points: 4
#     Node 2, Type 0, BuildingBlock: KOZSID_clean_sbu_0, # of connection points: 4
#     Node 3, Type 0, BuildingBlock: KOZSID_clean_sbu_0, # of connection points: 4
#     Node 4, Type 0, BuildingBlock: KOZSID_clean_sbu_0, # of connection points: 4
#     Node 5, Type 0, BuildingBlock: KOZSID_clean_sbu_0, # of connection points: 4
#     Node 6, Type 0, BuildingBlock: KOZSID_clean_sbu_0, # of connection points: 4
#     Node 7, Type 0, BuildingBlock: KOZSID_clean_sbu_0, # of connection points: 4
#     Node 8, Type 0, BuildingBlock: KOZSID_clean_sbu_0, # of connection points: 4
#     Node 9, Type 0, BuildingBlock: KOZSID_clean_sbu_0, # of connection points: 4
#     Node 10, Type 0, BuildingBlock: KOZSID_clean_sbu_0, # of connection points: 4
#     Node 11, Type 0, BuildingBlock: KOZSID_clean_sbu_0, # of connection points: 4
#     Node 12, Type 0, BuildingBlock: KOZSID_clean_sbu_0, # of connection points: 4
#     Node 13, Type 0, BuildingBlock: KOZSID_clean_sbu_0, # of connection points: 4
#     Node 14, Type 0, BuildingBlock: KOZSID_clean_sbu_0, # of connection points: 4
#     Node 15, Type 0, BuildingBlock: KOZSID_clean_sbu_0, # of connection points: 4
#     Node 16, Type 0, BuildingBlock: KOZSID_clean_sbu_0, # of connection points: 4
#     Node 17, Type 0, BuildingBlock: KOZSID_clean_sbu_0, # of connection points: 4
#     Node 18, Type 0, BuildingBlock: KOZSID_clean_sbu_0, # of connection points: 4
#     Node 19, Type 0, BuildingBlock: KOZSID_clean_sbu_0, # of connection points: 4
#     Node 20, Type 0, BuildingBlock: KOZSID_clean_sbu_0, # of connection points: 4
#     Node 21, Type 0, BuildingBlock: KOZSID_clean_sbu_0, # of connection points: 4
#     Node 22, Type 0, BuildingBlock: KOZSID_clean_sbu_0, # of connection points: 4
#     Node 23, Type 0, BuildingBlock: KOZSID_clean_sbu_0, # of connection points: 4
#     Node 24, Type 0, BuildingBlock: KOZSID_clean_sbu_0, # of connection points: 4
#     Node 25, Type 0, BuildingBlock: KOZSID_clean_sbu_0, # of connection points: 4
#     Node 26, Type 0, BuildingBlock: KOZSID_clean_sbu_0, # of connection points: 4
#     Node 27, Type 0, BuildingBlock: KOZSID_clean_sbu_0, # of connection points: 4
#     Node 28, Type 0, BuildingBlock: KOZSID_clean_sbu_0, # of connection points: 4
#     Node 29, Type 0, BuildingBlock: KOZSID_clean_sbu_0, # of connection points: 4
#     Node 30, Type 0, BuildingBlock: KOZSID_clean_sbu_0, # of connection points: 4
#     Node 31, Type 0, BuildingBlock: KOZSID_clean_sbu_0, # of connection points: 4
#     Edge 32, Type (0, 0), BuildingBlock: KIFKEQ_clean_linker_1, # of connection points: 2
#     Edge 33, Type (0, 0), BuildingBlock: KIFKEQ_clean_linker_1, # of connection points: 2
#     Edge 34, Type (0, 0), BuildingBlock: KIFKEQ_clean_linker_1, # of connection points: 2
#     Edge 35, Type (0, 0), BuildingBlock: KIFKEQ_clean_linker_1, # of connection points: 2
#     Edge 36, Type (0, 0), BuildingBlock: KIFKEQ_clean_linker_1, # of connection points: 2
#     Edge 37, Type (0, 0), BuildingBlock: KIFKEQ_clean_linker_1, # of connection points: 2
#     Edge 38, Type (0, 0), BuildingBlock: KIFKEQ_clean_linker_1, # of connection points: 2
#     Edge 39, Type (0, 0), BuildingBlock: KIFKEQ_clean_linker_1, # of connection points: 2
#     Edge 40, Type (0, 0), BuildingBlock: KIFKEQ_clean_linker_1, # of connection points: 2
#     Edge 41, Type (0, 0), BuildingBlock: KIFKEQ_clean_linker_1, # of connection points: 2
#     Edge 42, Type (0, 0), BuildingBlock: KIFKEQ_clean_linker_1, # of connection points: 2
#     Edge 43, Type (0, 0), BuildingBlock: KIFKEQ_clean_linker_1, # of connection points: 2
#     Edge 44, Type (0, 0), BuildingBlock: KIFKEQ_clean_linker_1, # of connection points: 2
#     Edge 45, Type (0, 0), BuildingBlock: KIFKEQ_clean_linker_1, # of connection points: 2
#     Edge 46, Type (0, 0), BuildingBlock: KIFKEQ_clean_linker_1, # of connection points: 2
#     Edge 47, Type (0, 0), BuildingBlock: KIFKEQ_clean_linker_1, # of connection points: 2
#     Edge 48, Type (0, 0), BuildingBlock: KIFKEQ_clean_linker_1, # of connection points: 2
#     Edge 49, Type (0, 0), BuildingBlock: KIFKEQ_clean_linker_1, # of connection points: 2
#     Edge 50, Type (0, 0), BuildingBlock: KIFKEQ_clean_linker_1, # of connection points: 2
#     Edge 51, Type (0, 0), BuildingBlock: KIFKEQ_clean_linker_1, # of connection points: 2
#     Edge 52, Type (0, 0), BuildingBlock: KIFKEQ_clean_linker_1, # of connection points: 2
#     Edge 53, Type (0, 0), BuildingBlock: KIFKEQ_clean_linker_1, # of connection points: 2
#     Edge 54, Type (0, 0), BuildingBlock: KIFKEQ_clean_linker_1, # of connection points: 2
#     Edge 55, Type (0, 0), BuildingBlock: KIFKEQ_clean_linker_1, # of connection points: 2
#     Edge 56, Type (0, 0), BuildingBlock: KIFKEQ_clean_linker_1, # of connection points: 2
#     Edge 57, Type (0, 0), BuildingBlock: KIFKEQ_clean_linker_1, # of connection points: 2
#     Edge 58, Type (0, 0), BuildingBlock: KIFKEQ_clean_linker_1, # of connection points: 2
#     Edge 59, Type (0, 0), BuildingBlock: KIFKEQ_clean_linker_1, # of connection points: 2
#     Edge 60, Type (0, 0), BuildingBlock: KIFKEQ_clean_linker_1, # of connection points: 2
#     Edge 61, Type (0, 0), BuildingBlock: KIFKEQ_clean_linker_1, # of connection points: 2
#     Edge 62, Type (0, 0), BuildingBlock: KIFKEQ_clean_linker_1, # of connection points: 2
#     Edge 63, Type (0, 0), BuildingBlock: KIFKEQ_clean_linker_1, # of connection points: 2
#     Edge 64, Type (0, 0), BuildingBlock: KIFKEQ_clean_linker_1, # of connection points: 2
#     Edge 65, Type (0, 0), BuildingBlock: KIFKEQ_clean_linker_1, # of connection points: 2
#     Edge 66, Type (0, 0), BuildingBlock: KIFKEQ_clean_linker_1, # of connection points: 2
#     Edge 67, Type (0, 0), BuildingBlock: KIFKEQ_clean_linker_1, # of connection points: 2
#     Edge 68, Type (0, 0), BuildingBlock: KIFKEQ_clean_linker_1, # of connection points: 2
#     Edge 69, Type (0, 0), BuildingBlock: KIFKEQ_clean_linker_1, # of connection points: 2
#     Edge 70, Type (0, 0), BuildingBlock: KIFKEQ_clean_linker_1, # of connection points: 2
#     Edge 71, Type (0, 0), BuildingBlock: KIFKEQ_clean_linker_1, # of connection points: 2
#     Edge 72, Type (0, 0), BuildingBlock: KIFKEQ_clean_linker_1, # of connection points: 2
#     Edge 73, Type (0, 0), BuildingBlock: KIFKEQ_clean_linker_1, # of connection points: 2
#     Edge 74, Type (0, 0), BuildingBlock: KIFKEQ_clean_linker_1, # of connection points: 2
#     Edge 75, Type (0, 0), BuildingBlock: KIFKEQ_clean_linker_1, # of connection points: 2
#     Edge 76, Type (0, 0), BuildingBlock: KIFKEQ_clean_linker_1, # of connection points: 2
#     Edge 77, Type (0, 0), BuildingBlock: KIFKEQ_clean_linker_1, # of connection points: 2
#     Edge 78, Type (0, 0), BuildingBlock: KIFKEQ_clean_linker_1, # of connection points: 2
#     Edge 79, Type (0, 0), BuildingBlock: KIFKEQ_clean_linker_1, # of connection points: 2
#     Edge 80, Type (0, 0), BuildingBlock: KIFKEQ_clean_linker_1, # of connection points: 2
#     Edge 81, Type (0, 0), BuildingBlock: KIFKEQ_clean_linker_1, # of connection points: 2
#     Edge 82, Type (0, 0), BuildingBlock: KIFKEQ_clean_linker_1, # of connection points: 2
#     Edge 83, Type (0, 0), BuildingBlock: KIFKEQ_clean_linker_1, # of connection points: 2
#     Edge 84, Type (0, 0), BuildingBlock: KIFKEQ_clean_linker_1, # of connection points: 2
#     Edge 85, Type (0, 0), BuildingBlock: KIFKEQ_clean_linker_1, # of connection points: 2
#     Edge 86, Type (0, 0), BuildingBlock: KIFKEQ_clean_linker_1, # of connection points: 2
#     Edge 87, Type (0, 0), BuildingBlock: KIFKEQ_clean_linker_1, # of connection points: 2
#     Edge 88, Type (0, 0), BuildingBlock: KIFKEQ_clean_linker_1, # of connection points: 2
#     Edge 89, Type (0, 0), BuildingBlock: KIFKEQ_clean_linker_1, # of connection points: 2
#     Edge 90, Type (0, 0), BuildingBlock: KIFKEQ_clean_linker_1, # of connection points: 2
#     Edge 91, Type (0, 0), BuildingBlock: KIFKEQ_clean_linker_1, # of connection points: 2
#     Edge 92, Type (0, 0), BuildingBlock: KIFKEQ_clean_linker_1, # of connection points: 2
#     Edge 93, Type (0, 0), BuildingBlock: KIFKEQ_clean_linker_1, # of connection points: 2
#     Edge 94, Type (0, 0), BuildingBlock: KIFKEQ_clean_linker_1, # of connection points: 2
#     Edge 95, Type (0, 0), BuildingBlock: KIFKEQ_clean_linker_1, # of connection points: 2
# Relax obj value: 0.028
# Max RMSD: 0.236
# Mean RMSD: 0.236
data_MOF--net-uoa--node1-KOZSID_clean_sbu_0--edge1-KIFKEQ_clean_linker_1
_symmetry_space_group_name_H-M    P1
_symmetry_Int_Tables_number       1
_symmetry_cell_setting            triclinic
loop_
_symmetry_equiv_pos_as_xyz
'x, y, z'
_cell_length_a     99.740916
_cell_length_b     99.834888
_cell_length_c     33.307686
_cell_angle_alpha  89.959529
_cell_angle_beta   90.008905
_cell_angle_gamma 90.007473
loop_
_atom_site_label
_atom_site_type_symbol
_atom_site_fract_x
_atom_site_fract_y
_atom_site_fract_z
_atom_type_partial_charge
C0 C 0.01867 0.1126 1.00195 0.0
C1 C 1.00941 0.12019 0.98066 0.0
C2 C 1.0022 0.12727 1.00844 0.0
C3 C 1.00752 0.12372 0.04492 0.0
N4 N 0.01766 0.11491 0.04183 0.0
Co5 Co 0.02858 0.10794 0.08696 0.0
N6 N 0.01423 0.11216 0.1265 0.0
C7 C 1.00382 0.1205 0.12 0.0
C8 C 0.99544 0.12168 0.15241 0.0
C9 C 1.001 0.11377 0.18151 0.0
C10 C 0.01261 0.10827 0.16529 0.0
N11 N 0.03959 0.10155 0.13294 0.0
C12 C 0.03618 0.09919 0.17199 0.0
C13 C 0.04744 0.09579 0.1942 0.0
C14 C 0.05819 0.09618 0.16829 0.0
C15 C 0.05297 0.09984 0.13167 0.0
N16 N 0.04246 0.10349 0.04639 0.0
C17 C 0.0554 0.10095 0.05434 0.0
C18 C 0.06231 0.09702 0.02056 0.0
C19 C 0.05307 0.09711 0.98969 0.0
C20 C 0.04099 0.10117 1.00621 0.0
N21 N 0.03678 0.12604 0.09473 0.0
C22 C 0.05402 0.1484 0.10868 0.0
C23 C 0.05174 0.14338 0.06976 0.0
C24 C 0.04302 0.13243 0.0634 0.0
C25 C 0.0467 0.1424 0.13999 0.0
C26 C 0.03824 0.13134 0.1325 0.0
N27 N 0.02143 0.08952 0.07879 0.0
C28 C 0.02726 0.06613 0.07051 0.0
C29 C 0.01495 0.06322 0.05255 0.0
C30 C 1.00549 0.07372 0.05035 0.0
C31 C 1.00893 0.0868 0.06363 0.0
C32 C 0.03026 0.07909 0.08309 0.0
H33 H 1.00171 0.09478 0.06016 0.0
H34 H 0.04021 0.08065 0.09426 0.0
H35 H 0.04183 0.12875 0.03314 0.0
H36 H 0.03343 0.12668 0.15788 0.0
C37 C 1.00156 0.12608 0.08213 0.0
C38 C 0.02837 0.10348 0.98343 0.0
C39 C 0.02266 0.10111 0.18951 0.0
C40 C 0.05979 0.09987 0.09449 0.0
H41 H 1.0079 0.12045 0.94848 0.0
H42 H 0.99363 0.13366 1.00281 0.0
H43 H 0.98632 0.12751 0.15456 0.0
H44 H 0.99718 0.11261 0.21172 0.0
H45 H 0.04784 0.09343 0.2259 0.0
H46 H 0.06851 0.09377 0.17521 0.0
H47 H 0.07264 0.09376 0.01887 0.0
H48 H 0.05502 0.09437 0.95885 0.0
H49 H 0.05681 0.14778 0.0442 0.0
H50 H 0.04796 0.14579 0.17063 0.0
H51 H 0.03482 0.05843 0.07402 0.0
H52 H 0.99574 0.07199 0.03702 0.0
C53 C 0.16154 0.76738 0.2529 0.0
C54 C 0.15498 0.75716 0.23249 0.0
C55 C 0.14819 0.74987 0.26074 0.0
C56 C 0.15097 0.756 0.29664 0.0
N57 N 0.15907 0.76669 0.2928 0.0
Co58 Co 0.16544 0.77831 0.33717 0.0
N59 N 0.16195 0.76407 0.37768 0.0
C60 C 0.15369 0.75354 0.37228 0.0
C61 C 0.15222 0.74576 0.40585 0.0
C62 C 0.1599 0.75182 0.43452 0.0
C63 C 0.16575 0.76301 0.41672 0.0
N64 N 0.17151 0.78987 0.38221 0.0
C65 C 0.17457 0.78674 0.42106 0.0
C66 C 0.17806 0.79822 0.44208 0.0
C67 C 0.17677 0.80881 0.41586 0.0
C68 C 0.17265 0.8033 0.38011 0.0
N69 N 0.16892 0.79218 0.29576 0.0
C70 C 0.1704 0.80533 0.30289 0.0
C71 C 0.17315 0.8124 0.26833 0.0
C72 C 0.17338 0.80304 0.23782 0.0
C73 C 0.17078 0.79074 0.25542 0.0
N74 N 0.14697 0.78565 0.34501 0.0
C75 C 0.12431 0.80248 0.35881 0.0
C76 C 0.12901 0.7998 0.31975 0.0
C77 C 0.14012 0.79126 0.3135 0.0
C78 C 0.13073 0.79569 0.39041 0.0
C79 C 0.14193 0.78742 0.38298 0.0
N80 N 0.18419 0.77207 0.32919 0.0
C81 C 0.20725 0.77896 0.31991 0.0
C82 C 0.21134 0.76599 0.30979 0.0
C83 C 0.20129 0.75597 0.30961 0.0
C84 C 0.18778 0.75922 0.31944 0.0
C85 C 0.19397 0.78169 0.32976 0.0
H86 H 0.18024 0.75145 0.31856 0.0
H87 H 0.19165 0.79192 0.3364 0.0
H88 H 0.14358 0.78978 0.28312 0.0
H89 H 0.14695 0.7831 0.40853 0.0
C90 C 0.1485 0.75054 0.33443 0.0
C91 C 0.1694 0.77792 0.23333 0.0
C92 C 0.17326 0.77322 0.43941 0.0
C93 C 0.17168 0.80996 0.34274 0.0
H94 H 0.15512 0.75513 0.20058 0.0
H95 H 0.14249 0.74078 0.25588 0.0
H96 H 0.14631 0.73674 0.40911 0.0
H97 H 0.16061 0.74859 0.46544 0.0
H98 H 0.1811 0.79892 0.47318 0.0
H99 H 0.17895 0.81923 0.42191 0.0
H100 H 0.17537 0.82297 0.26578 0.0
H101 H 0.17528 0.80501 0.20639 0.0
H102 H 0.12428 0.80446 0.29403 0.0
H103 H 0.12759 0.79727 0.42116 0.0
H104 H 0.21419 0.78729 0.31927 0.0
H105 H 0.20379 0.74573 0.30207 0.0
C106 C 0.50715 0.91238 0.50634 0.0
C107 C 0.51748 0.90597 0.48599 0.0
C108 C 0.52505 0.89958 0.51439 0.0
C109 C 0.51896 0.90243 0.5503 0.0
N110 N 0.508 0.91018 0.54638 0.0
Co111 Co 0.49633 0.91652 0.59082 0.0
N112 N 0.51071 0.91338 0.63128 0.0
C113 C 0.52176 0.90584 0.62555 0.0
C114 C 0.53 0.9053 0.6584 0.0
C115 C 0.5237 0.91278 0.68703 0.0
C116 C 0.51183 0.91743 0.67006 0.0
N117 N 0.48469 0.92247 0.6359 0.0
C118 C 0.48769 0.92504 0.67515 0.0
C119 C 0.47611 0.9278 0.69664 0.0
C120 C 0.46557 0.92674 0.67013 0.0
C121 C 0.47123 0.92337 0.63389 0.0
N122 N 0.48237 0.91979 0.54943 0.0
C123 C 0.46921 0.92126 0.55667 0.0
C124 C 0.46206 0.92385 0.52215 0.0
C125 C 0.47137 0.92399 0.49149 0.0
C126 C 0.48372 0.9215 0.50896 0.0
N127 N 0.4892 0.89798 0.5991 0.0
C128 C 0.47215 0.87547 0.61438 0.0
C129 C 0.47469 0.88011 0.57504 0.0
C130 C 0.4833 0.89113 0.56809 0.0
C131 C 0.47941 0.88184 0.64527 0.0
C132 C 0.48775 0.89293 0.63714 0.0
N133 N 0.50235 0.9353 0.58244 0.0
C134 C 0.49541 0.9583 0.572 0.0
C135 C 0.50829 0.96213 0.56026 0.0
C136 C 0.51841 0.95224 0.56157 0.0
C137 C 0.51521 0.93885 0.5725 0.0
C138 C 0.49272 0.94509 0.58305 0.0
H139 H 0.52301 0.93134 0.57194 0.0
H140 H 0.48253 0.94279 0.59066 0.0
H141 H 0.48454 0.89458 0.53758 0.0
H142 H 0.49243 0.89783 0.6623 0.0
C143 C 0.52477 0.90056 0.58789 0.0
C144 C 0.49648 0.92002 0.48658 0.0
C145 C 0.50115 0.92384 0.69364 0.0
C146 C 0.46458 0.92244 0.59654 0.0
H147 H 0.51945 0.90601 0.45405 0.0
H148 H 0.53431 0.89417 0.5096 0.0
H149 H 0.53953 0.90019 0.66111 0.0
H150 H 0.52724 0.91423 0.71743 0.0
H151 H 0.47535 0.9301 0.72831 0.0
H152 H 0.45506 0.92842 0.67649 0.0
H153 H 0.45145 0.92596 0.51968 0.0
H154 H 0.46933 0.92574 0.46001 0.0
H155 H 0.46962 0.87572 0.54955 0.0
H156 H 0.47852 0.87853 0.67608 0.0
H157 H 0.48729 0.96551 0.57237 0.0
H158 H 0.52858 0.95471 0.55296 0.0
C159 C 0.36247 0.25501 0.75523 0.0
C160 C 0.36961 0.26469 0.7342 0.0
C161 C 0.37682 0.27176 0.76204 0.0
C162 C 0.3737 0.26603 0.79831 0.0
N163 N 0.36498 0.25581 0.7951 0.0
Co164 Co 0.35793 0.2449 0.84021 0.0
N165 N 0.36226 0.25915 0.8799 0.0
C166 C 0.3711 0.26917 0.87383 0.0
C167 C 0.37299 0.27709 0.90691 0.0
C168 C 0.36497 0.27167 0.93595 0.0
C169 C 0.35852 0.2607 0.91886 0.0
N170 N 0.35128 0.23399 0.88606 0.0
C171 C 0.3484 0.23754 0.92469 0.0
C172 C 0.34419 0.22643 0.94634 0.0
C173 C 0.34484 0.21562 0.92077 0.0
C174 C 0.34931 0.22065 0.88476 0.0
N175 N 0.35353 0.23103 0.79969 0.0
C176 C 0.35113 0.21806 0.80762 0.0
C177 C 0.34784 0.21099 0.77354 0.0
C178 C 0.34821 0.22014 0.74248 0.0
C179 C 0.3517 0.23234 0.75928 0.0
N180 N 0.37597 0.23656 0.8483 0.0
C181 C 0.39825 0.2191 0.86259 0.0
C182 C 0.39342 0.22169 0.82349 0.0
C183 C 0.38251 0.23048 0.81703 0.0
C184 C 0.39206 0.22635 0.89384 0.0
C185 C 0.38106 0.23487 0.8862 0.0
N186 N 0.33959 0.2522 0.83172 0.0
C187 C 0.31619 0.24663 0.82179 0.0
C188 C 0.31341 0.25923 0.80558 0.0
C189 C 0.32397 0.26865 0.80503 0.0
C190 C 0.33701 0.26493 0.81818 0.0
C191 C 0.3291 0.24337 0.83445 0.0
H192 H 0.34506 0.27213 0.81599 0.0
H193 H 0.33059 0.23329 0.84448 0.0
H194 H 0.37895 0.23181 0.78667 0.0
H195 H 0.37633 0.23961 0.91155 0.0
C196 C 0.37645 0.27161 0.83578 0.0
C197 C 0.35393 0.24487 0.73633 0.0
C198 C 0.35044 0.25109 0.94221 0.0
C199 C 0.34967 0.21376 0.84773 0.0
H200 H 0.36956 0.26653 0.70219 0.0
H201 H 0.38303 0.28047 0.75663 0.0
H202 H 0.37939 0.2858 0.90959 0.0
H203 H 0.36442 0.27514 0.96664 0.0
H204 H 0.34103 0.22611 0.97738 0.0
H205 H 0.34194 0.20541 0.92736 0.0
H206 H 0.3449 0.20057 0.77167 0.0
H207 H 0.34612 0.2181 0.71119 0.0
H208 H 0.39761 0.21657 0.79779 0.0
H209 H 0.39548 0.22537 0.92451 0.0
H210 H 0.30843 0.23907 0.82391 0.0
H211 H 0.32233 0.2786 0.79306 0.0
C212 C 0.01723 0.91098 0.52776 0.0
C213 C 1.00725 0.90434 0.54902 0.0
C214 C 0.99963 0.89767 0.52132 0.0
C215 C 1.00534 0.90061 0.4849 0.0
N216 N 0.01611 0.90866 0.48788 0.0
Co217 Co 0.02727 0.91516 0.44247 0.0
N218 N 0.01268 0.91156 0.40308 0.0
C219 C 1.00184 0.90382 0.40978 0.0
C220 C 0.99339 0.90299 0.37745 0.0
C221 C 0.99933 0.9105 0.34816 0.0
C222 C 1.01121 0.91546 0.36423 0.0
N223 N 0.0385 0.921 0.39625 0.0
C224 C 0.03517 0.92339 0.35716 0.0
C225 C 0.04654 0.92628 0.33479 0.0
C226 C 0.05728 0.92551 0.36063 0.0
C227 C 0.05195 0.92217 0.39736 0.0
N228 N 0.04141 0.91905 0.48274 0.0
C229 C 0.05445 0.92099 0.47462 0.0
C230 C 0.06171 0.9241 0.50853 0.0
C231 C 0.0526 0.9241 0.53972 0.0
C232 C 0.04025 0.921 0.52315 0.0
N233 N 0.03474 0.89675 0.43459 0.0
C234 C 0.05183 0.87429 0.41928 0.0
C235 C 0.04972 0.87924 0.45848 0.0
C236 C 0.04108 0.89022 0.46547 0.0
C237 C 0.04418 0.88035 0.38865 0.0
C238 C 0.03584 0.89143 0.39679 0.0
N239 N 0.0209 0.93389 0.45068 0.0
C240 C 0.02748 0.95719 0.45602 0.0
C241 C 0.01572 0.96061 0.47648 0.0
C242 C 1.00608 0.95035 0.48124 0.0
C243 C 1.00882 0.93711 0.46786 0.0
C244 C 0.02993 0.94403 0.44421 0.0
H245 H 1.00139 0.92942 0.47292 0.0
H246 H 0.03963 0.94213 0.43166 0.0
H247 H 0.04014 0.89389 0.49583 0.0
H248 H 0.03083 0.89608 0.37176 0.0
C249 C 0.99926 0.89854 0.44778 0.0
C250 C 0.02771 0.91915 0.54639 0.0
C251 C 0.02157 0.92204 0.33979 0.0
C252 C 0.05882 0.9219 0.43444 0.0
H253 H 1.0055 0.90444 0.58108 0.0
H254 H 0.99054 0.89204 0.52691 0.0
H255 H 0.98396 0.89765 0.3755 0.0
H256 H 0.99556 0.91177 0.31792 0.0
H257 H 0.04701 0.92854 0.30304 0.0
H258 H 0.06769 0.92747 0.35359 0.0
H259 H 0.07225 0.92659 0.51024 0.0
H260 H 0.05477 0.92612 0.57097 0.0
H261 H 0.05512 0.87511 0.48377 0.0
H262 H 0.04476 0.87681 0.35803 0.0
H263 H 0.03512 0.96462 0.44979 0.0
H264 H 0.99671 0.95236 0.49644 0.0
C265 C 0.36361 0.76842 0.78062 0.0
C266 C 0.3713 0.75939 0.80247 0.0
C267 C 0.37861 0.7522 0.77516 0.0
C268 C 0.37507 0.7573 0.73839 0.0
N269 N 0.36606 0.76728 0.74084 0.0
Co270 Co 0.3591 0.77791 0.69505 0.0
N271 N 0.36377 0.76352 0.65615 0.0
C272 C 0.37225 0.75329 0.66332 0.0
C273 C 0.37374 0.74484 0.63123 0.0
C274 C 0.36587 0.75016 0.60163 0.0
C275 C 0.36008 0.7617 0.61725 0.0
N276 N 0.35279 0.78865 0.64841 0.0
C277 C 0.35067 0.78508 0.60938 0.0
C278 C 0.34717 0.79618 0.58666 0.0
C279 C 0.34724 0.80701 0.61224 0.0
C280 C 0.35081 0.80199 0.64918 0.0
N281 N 0.35416 0.79182 0.73498 0.0
C282 C 0.35138 0.80466 0.72649 0.0
C283 C 0.34718 0.81161 0.75989 0.0
C284 C 0.34736 0.80251 0.7911 0.0
C285 C 0.35173 0.79046 0.77516 0.0
N286 N 0.37712 0.78639 0.68781 0.0
C287 C 0.39946 0.80372 0.67412 0.0
C288 C 0.3942 0.80163 0.71288 0.0
C289 C 0.38326 0.79287 0.71912 0.0
C290 C 0.39367 0.7962 0.64288 0.0
C291 C 0.38262 0.78771 0.65024 0.0
N292 N 0.34072 0.77046 0.70257 0.0
C293 C 0.31694 0.77543 0.70563 0.0
C294 C 0.31409 0.7632 0.72407 0.0
C295 C 0.32495 0.75443 0.73088 0.0
C296 C 0.33815 0.75816 0.71931 0.0
C297 C 0.33008 0.77888 0.69575 0.0
H298 H 0.34628 0.75127 0.72503 0.0
H299 H 0.33151 0.7888 0.68428 0.0
H300 H 0.37941 0.79181 0.74924 0.0
H301 H 0.37816 0.78273 0.62486 0.0
C302 C 0.37769 0.75126 0.70149 0.0
C303 C 0.35425 0.77801 0.79854 0.0
C304 C 0.35286 0.77153 0.59242 0.0
C305 C 0.35045 0.8089 0.68616 0.0
H306 H 0.37149 0.75802 0.83471 0.0
H307 H 0.38514 0.74378 0.7813 0.0
H308 H 0.37974 0.73582 0.62961 0.0
H309 H 0.36493 0.74623 0.57149 0.0
H310 H 0.34494 0.79644 0.55487 0.0
H311 H 0.34464 0.81725 0.60492 0.0
H312 H 0.34373 0.82188 0.76111 0.0
H313 H 0.34449 0.80452 0.82181 0.0
H314 H 0.39841 0.80686 0.7384 0.0
H315 H 0.39723 0.79732 0.61236 0.0
H316 H 0.30905 0.78269 0.7003 0.0
H317 H 0.32328 0.7448 0.74497 0.0
C318 C 0.50671 0.11088 0.02342 0.0
C319 C 0.51636 0.11811 0.04431 0.0
C320 C 0.52331 0.1254 0.0164 0.0
C321 C 0.51757 0.12223 0.9802 0.0
N322 N 0.50745 0.11339 0.9835 0.0
Co323 Co 0.49655 0.10631 0.93831 0.0
N324 N 0.51067 0.11095 0.89839 0.0
C325 C 0.52056 0.11992 0.90448 0.0
C326 C 0.52835 0.12207 0.87124 0.0
C327 C 0.52299 0.11408 0.84208 0.0
C328 C 0.51219 0.10736 0.85926 0.0
N329 N 0.48564 0.09972 0.89232 0.0
C330 C 0.48919 0.0969 0.8536 0.0
C331 C 0.47809 0.0925 0.83218 0.0
C332 C 0.46731 0.09298 0.85793 0.0
C333 C 0.47232 0.09753 0.89385 0.0
N334 N 0.48283 0.10156 0.97902 0.0
C335 C 0.46989 0.09893 0.97118 0.0
C336 C 0.46289 0.09549 1.00528 0.0
C337 C 0.47204 0.09602 0.0363 0.0
C338 C 0.48419 0.09974 0.01947 0.0
N339 N 0.48797 0.12426 0.93091 0.0
C340 C 0.47051 0.14653 0.91799 0.0
C341 C 0.47312 0.14154 0.95678 0.0
C342 C 0.48193 0.13062 0.96261 0.0
C343 C 0.47757 0.14051 0.8862 0.0
C344 C 0.48612 0.12948 0.89318 0.0
N345 N 0.50411 0.08803 0.94614 0.0
C346 C 0.49918 0.06432 0.95138 0.0
C347 C 0.51161 0.06165 0.96886 0.0
C348 C 0.52046 0.07253 0.97397 0.0
C349 C 0.51661 0.08561 0.96177 0.0
C350 C 0.49562 0.07737 0.9409 0.0
H351 H 0.52356 0.09378 0.96617 0.0
H352 H 0.48558 0.07871 0.93031 0.0
H353 H 0.4834 0.12698 0.99281 0.0
H354 H 0.49072 0.1248 0.8675 0.0
C355 C 0.52301 0.12515 0.94264 0.0
C356 C 0.49667 0.10225 0.04255 0.0
C357 C 0.50272 0.09911 0.8359 0.0
C358 C 0.46554 0.09758 0.93109 0.0
H359 H 0.51824 0.11808 0.0763 0.0
H360 H 0.53194 0.13173 0.0217 0.0
H361 H 0.53694 0.12863 0.86853 0.0
H362 H 0.52638 0.1137 0.81127 0.0
H363 H 0.47776 0.08926 0.80123 0.0
H364 H 0.45714 0.08986 0.85157 0.0
H365 H 0.4525 0.0924 1.00721 0.0
H366 H 0.47005 0.09391 0.06761 0.0
H367 H 0.46824 0.14594 0.98265 0.0
H368 H 0.47603 0.14386 0.85563 0.0
H369 H 0.49189 0.05639 0.94733 0.0
H370 H 0.53025 0.07097 0.98725 0.0
C371 C 0.16245 0.25598 0.2767 0.0
C372 C 0.15576 0.26602 0.29751 0.0
C373 C 0.14905 0.27347 0.26946 0.0
C374 C 0.15199 0.2676 0.23329 0.0
N375 N 0.1601 0.25689 0.23677 0.0
Co376 Co 0.16674 0.24561 0.19193 0.0
N377 N 0.16317 0.26002 0.15199 0.0
C378 C 0.15525 0.27077 0.15804 0.0
C379 C 0.15446 0.27909 0.12541 0.0
C380 C 0.16219 0.27315 0.09663 0.0
C381 C 0.16723 0.2614 0.11329 0.0
N382 N 0.17297 0.23431 0.14646 0.0
C383 C 0.17557 0.23755 0.10743 0.0
C384 C 0.17868 0.22616 0.08552 0.0
C385 C 0.17781 0.21549 0.11156 0.0
C386 C 0.1742 0.22088 0.14796 0.0
N387 N 0.17047 0.2316 0.23276 0.0
C388 C 0.1723 0.21853 0.22511 0.0
C389 C 0.17522 0.21137 0.25937 0.0
C390 C 0.17521 0.22058 0.29025 0.0
C391 C 0.1723 0.23289 0.27317 0.0
N392 N 0.14838 0.23802 0.18361 0.0
C393 C 0.12594 0.22087 0.16837 0.0
C394 C 0.13068 0.2233 0.20766 0.0
C395 C 0.14166 0.23195 0.2146 0.0
C396 C 0.13223 0.22824 0.1375 0.0
C397 C 0.14329 0.23661 0.14561 0.0
N398 N 0.18535 0.25214 0.20042 0.0
C399 C 0.20854 0.2458 0.21036 0.0
C400 C 0.21189 0.25853 0.2245 0.0
C401 C 0.2017 0.26834 0.22427 0.0
C402 C 0.18847 0.26493 0.21223 0.0
C403 C 0.19545 0.24286 0.19859 0.0
H404 H 0.18071 0.27246 0.21371 0.0
H405 H 0.1935 0.23273 0.18972 0.0
H406 H 0.14517 0.23312 0.24506 0.0
H407 H 0.14811 0.2414 0.12049 0.0
C408 C 0.14989 0.27347 0.19586 0.0
C409 C 0.17055 0.24554 0.29584 0.0
C410 C 0.17412 0.25107 0.08956 0.0
C411 C 0.17352 0.21407 0.1851 0.0
H412 H 0.15585 0.26788 0.3295 0.0
H413 H 0.14337 0.28254 0.27466 0.0
H414 H 0.14905 0.28845 0.12296 0.0
H415 H 0.16357 0.27685 0.06636 0.0
H416 H 0.1811 0.22562 0.05389 0.0
H417 H 0.1798 0.20507 0.10485 0.0
H418 H 0.17767 0.20083 0.26149 0.0
H419 H 0.17715 0.21851 0.32162 0.0
H420 H 0.12638 0.21812 0.23311 0.0
H421 H 0.12886 0.22741 0.10674 0.0
H422 H 0.216 0.23792 0.20903 0.0
H423 H 0.20379 0.27839 0.23471 0.0
C424 C 0.98072 0.92474 0.02588 0.0
C425 C 0.97095 0.9325 0.04412 0.0
C426 C 0.96488 0.93974 1.01428 0.0
C427 C 0.97125 0.936 0.97952 0.0
N428 N 0.98075 0.92658 0.98516 0.0
Co429 Co 0.99353 0.92016 0.94272 0.0
N430 N 0.98361 0.92932 0.89794 0.0
C431 C 0.97349 0.93809 0.90274 0.0
C432 C 0.96866 0.94305 0.8671 0.0
C433 C 0.97631 0.93719 0.8378 0.0
C434 C 0.98546 0.92898 0.85721 0.0
N435 N 1.00677 0.91415 0.90104 0.0
C436 C 1.00692 0.91558 0.8604 0.0
C437 C 0.01874 0.91061 0.84397 0.0
C438 C 0.02617 0.90575 0.87495 0.0
C439 C 0.01861 0.90811 0.90845 0.0
N440 N 1.0034 0.91058 0.98689 0.0
C441 C 0.01515 0.90404 0.98299 0.0
C442 C 0.01962 0.89814 0.01754 0.0
C443 C 1.01028 0.90129 0.04572 0.0
C444 C 1.00058 0.90903 0.02667 0.0
N445 N 0.98219 0.90383 0.93338 0.0
C446 C 0.96481 0.8816 0.91672 0.0
C447 C 0.97891 0.88016 0.91794 0.0
C448 C 0.98736 0.89131 0.92629 0.0
C449 C 0.95984 0.89446 0.92512 0.0
C450 C 0.96852 0.90523 0.93288 0.0
N451 N 1.00401 0.93697 0.95204 0.0
C452 C 1.00893 0.95469 0.99962 0.0
C453 C 1.00887 0.96444 0.96924 0.0
C454 C 1.00805 0.95976 0.92946 0.0
C455 C 1.00589 0.94604 0.92158 0.0
C456 C 1.00671 0.94114 0.9904 0.0
H457 H 1.0049 0.94303 0.89072 0.0
H458 H 1.00642 0.93428 1.01502 0.0
H459 H 0.99805 0.88976 0.92651 0.0
H460 H 0.96394 0.91476 0.93812 0.0
C461 C 0.96851 0.94097 0.94105 0.0
C462 C 0.99043 0.91666 0.04897 0.0
C463 C 0.9965 0.92205 0.83614 0.0
C464 C 0.02182 0.90368 0.9466 0.0
H465 H 0.96875 0.93317 0.07588 0.0
H466 H 0.95695 0.94705 0.01766 0.0
H467 H 0.96056 0.95012 0.86289 0.0
H468 H 0.9755 0.93901 0.80586 0.0
H469 H 0.02182 0.91057 0.81285 0.0
H470 H 0.03585 0.90089 0.8732 0.0
H471 H 0.02877 0.89249 0.02194 0.0
H472 H 1.01103 0.89872 0.07714 0.0
H473 H 0.98347 0.87055 0.91169 0.0
H474 H 0.94917 0.89636 0.926 0.0
H475 H 1.01031 0.95751 0.03073 0.0
H476 H 1.00834 0.96667 0.90445 0.0
C477 C 0.84749 0.23114 0.77493 0.0
C478 C 0.83906 0.2219 0.79308 0.0
C479 C 0.83234 0.21548 0.76288 0.0
C480 C 0.83693 0.22118 0.728 0.0
N481 N 0.84643 0.23059 0.73391 0.0
Co482 Co 0.85361 0.24286 0.69099 0.0
N483 N 0.84438 0.23302 0.6461 0.0
C484 C 0.83564 0.22286 0.65091 0.0
C485 C 0.83042 0.21824 0.61539 0.0
C486 C 0.83604 0.22609 0.58613 0.0
C487 C 0.84445 0.23509 0.60541 0.0
N488 N 0.86036 0.25569 0.64906 0.0
C489 C 0.85891 0.25586 0.60842 0.0
C490 C 0.86595 0.26641 0.5912 0.0
C491 C 0.87166 0.27338 0.62182 0.0
C492 C 0.86797 0.26665 0.65587 0.0
N493 N 0.86344 0.25247 0.73514 0.0
C494 C 0.87148 0.26322 0.73079 0.0
C495 C 0.87794 0.26698 0.76527 0.0
C496 C 0.87357 0.25823 0.79381 0.0
C497 C 0.8645 0.24974 0.77507 0.0
N498 N 0.86965 0.23089 0.68289 0.0
C499 C 0.89163 0.21291 0.66944 0.0
C500 C 0.89325 0.22692 0.66734 0.0
C501 C 0.88227 0.23565 0.67444 0.0
C502 C 0.8787 0.20826 0.67833 0.0
C503 C 0.86802 0.21724 0.68454 0.0
N504 N 0.83707 0.254 0.6991 0.0
C505 C 0.81983 0.26041 0.74689 0.0
C506 C 0.80977 0.2595 0.71757 0.0
C507 C 0.81402 0.25749 0.67782 0.0
C508 C 0.82766 0.25518 0.66918 0.0
C509 C 0.83328 0.25783 0.73697 0.0
H510 H 0.83033 0.25367 0.63831 0.0
H511 H 0.84037 0.25822 0.76086 0.0
H512 H 0.88415 0.24622 0.67287 0.0
H513 H 0.8584 0.21291 0.69027 0.0
C514 C 0.8324 0.21818 0.68927 0.0
C515 C 0.85542 0.24104 0.79781 0.0
C516 C 0.85073 0.24658 0.58466 0.0
C517 C 0.87279 0.26951 0.69395 0.0
H518 H 0.83756 0.22027 0.82485 0.0
H519 H 0.8247 0.20785 0.76606 0.0
H520 H 0.82311 0.21034 0.61131 0.0
H521 H 0.83376 0.22562 0.55441 0.0
H522 H 0.86697 0.26881 0.55966 0.0
H523 H 0.87809 0.28208 0.61947 0.0
H524 H 0.88483 0.27525 0.76932 0.0
H525 H 0.87619 0.2585 0.82534 0.0
H526 H 0.903 0.23116 0.66085 0.0
H527 H 0.87667 0.19761 0.67972 0.0
H528 H 0.8173 0.26234 0.77796 0.0
H529 H 0.80681 0.25742 0.6535 0.0
C530 C 0.54443 0.09866 0.51994 0.0
C531 C 0.55656 0.09445 0.53586 0.0
C532 C 0.56563 0.09426 0.50457 0.0
C533 C 0.55858 0.09827 0.47113 0.0
N534 N 0.5457 0.10095 0.47961 0.0
Co535 Co 0.53174 0.10564 0.43946 0.0
N536 N 0.54263 0.09955 0.39275 0.0
C537 C 0.55601 0.09774 0.39373 0.0
C538 C 0.56113 0.09422 0.3569 0.0
C539 C 0.55034 0.09402 0.33112 0.0
C540 C 0.53914 0.09737 0.35361 0.0
N541 N 0.51732 0.11009 0.40021 0.0
C542 C 0.5156 0.10643 0.36121 0.0
C543 C 0.50377 0.11174 0.34585 0.0
C544 C 0.49823 0.11939 0.37551 0.0
C545 C 0.50679 0.1182 0.40747 0.0
N546 N 0.52091 0.11238 0.48523 0.0
C547 C 0.51069 0.12112 0.48256 0.0
C548 C 0.50554 0.1247 0.5192 0.0
C549 C 0.51296 0.11773 0.54674 0.0
C550 C 0.52215 0.11015 0.52515 0.0
N551 N 0.53995 0.12379 0.43258 0.0
C552 C 0.55746 0.14617 0.42071 0.0
C553 C 0.55063 0.14006 0.38851 0.0
C554 C 0.54194 0.12909 0.39503 0.0
C555 C 0.55442 0.14124 0.45938 0.0
C556 C 0.54572 0.1302 0.46461 0.0
N557 N 0.52462 0.0871 0.44693 0.0
C558 C 0.50951 0.07105 0.47832 0.0
C559 C 0.5187 0.06046 0.47234 0.0
C560 C 0.53036 0.06353 0.4509 0.0
C561 C 0.53317 0.07664 0.43928 0.0
C562 C 0.51261 0.08425 0.46515 0.0
H563 H 0.54281 0.07818 0.42599 0.0
H564 H 0.50554 0.09218 0.47127 0.0
H565 H 0.5374 0.12448 0.36914 0.0
H566 H 0.54415 0.12648 0.49469 0.0
C567 C 0.56284 0.0974 0.43084 0.0
C568 C 0.53202 0.10116 0.54356 0.0
C569 C 0.52562 0.09952 0.33619 0.0
C570 C 0.5046 0.12353 0.44562 0.0
H571 H 0.55866 0.09171 0.56663 0.0
H572 H 0.57595 0.09095 0.50582 0.0
H573 H 0.57143 0.09175 0.34977 0.0
H574 H 0.55069 0.09183 0.29932 0.0
H575 H 0.49973 0.11057 0.31592 0.0
H576 H 0.48896 0.12501 0.37408 0.0
H577 H 0.497 0.13109 0.52513 0.0
H578 H 0.51165 0.11808 0.57897 0.0
H579 H 0.55239 0.14326 0.35793 0.0
H580 H 0.5589 0.1457 0.48576 0.0
H581 H 0.50023 0.06931 0.49433 0.0
H582 H 0.53764 0.05585 0.44378 0.0
C583 C 0.67581 0.79332 0.27721 0.0
C584 C 0.68358 0.80304 0.29566 0.0
C585 C 0.69076 0.80923 0.26593 0.0
C586 C 0.68699 0.80298 0.23102 0.0
N587 N 0.67759 0.79344 0.23648 0.0
Co588 Co 0.67115 0.78079 0.19377 0.0
N589 N 0.68023 0.79086 0.14918 0.0
C590 C 0.68895 0.80102 0.15416 0.0
C591 C 0.69386 0.80598 0.11861 0.0
C592 C 0.68799 0.79838 0.08916 0.0
C593 C 0.67986 0.78913 0.10841 0.0
N594 N 0.66515 0.76765 0.15182 0.0
C595 C 0.66659 0.7676 0.11119 0.0
C596 C 0.66166 0.75581 0.09452 0.0
C597 C 0.65681 0.7483 0.12534 0.0
C598 C 0.65913 0.75579 0.15898 0.0
N599 N 0.66158 0.77079 0.23772 0.0
C600 C 0.65503 0.75906 0.23357 0.0
C601 C 0.64913 0.7545 0.26801 0.0
C602 C 0.65229 0.76377 0.2964 0.0
C603 C 0.66004 0.77351 0.27757 0.0
N604 N 0.65477 0.7921 0.18474 0.0
C605 C 0.63245 0.80945 0.16846 0.0
C606 C 0.63106 0.79535 0.16918 0.0
C607 C 0.64225 0.78692 0.17734 0.0
C608 C 0.64529 0.81442 0.17716 0.0
C609 C 0.6561 0.80577 0.18474 0.0
N610 N 0.68801 0.77031 0.20283 0.0
C611 C 0.70551 0.76458 0.25053 0.0
C612 C 0.71538 0.76499 0.22057 0.0
C613 C 0.71093 0.76659 0.18083 0.0
C614 C 0.69724 0.76886 0.17259 0.0
C615 C 0.69201 0.76712 0.24107 0.0
H616 H 0.69438 0.77016 0.14171 0.0
H617 H 0.68508 0.76728 0.26553 0.0
H618 H 0.64074 0.77623 0.17718 0.0
H619 H 0.66562 0.81037 0.19023 0.0
C620 C 0.69189 0.80587 0.19258 0.0
C621 C 0.66771 0.78357 0.30007 0.0
C622 C 0.673 0.77811 0.08714 0.0
C623 C 0.65469 0.75248 0.19705 0.0
H624 H 0.68426 0.80515 0.32747 0.0
H625 H 0.69805 0.81717 0.26945 0.0
H626 H 0.70089 0.81412 0.11454 0.0
H627 H 0.68978 0.79929 0.05723 0.0
H628 H 0.66164 0.75279 0.06334 0.0
H629 H 0.65197 0.73861 0.12339 0.0
H630 H 0.64349 0.74535 0.27223 0.0
H631 H 0.64973 0.76294 0.32781 0.0
H632 H 0.62147 0.79077 0.16268 0.0
H633 H 0.64715 0.82509 0.17842 0.0
H634 H 0.70824 0.76307 0.28168 0.0
H635 H 0.71801 0.76639 0.1562 0.0
C636 C 0.98197 0.09746 0.50366 0.0
C637 C 0.97254 0.08937 0.48508 0.0
C638 C 0.96633 0.08223 0.51482 0.0
C639 C 0.97228 0.08634 0.54987 0.0
N640 N 0.98165 0.0959 0.54449 0.0
Co641 Co 0.99385 0.10293 0.58764 0.0
N642 N 0.9839 0.09358 0.63213 0.0
C643 C 0.97393 0.08465 0.62687 0.0
C644 C 0.96927 0.07928 0.66215 0.0
C645 C 0.97689 0.085 0.69176 0.0
C646 C 0.9858 0.0936 0.6729 0.0
N647 N 1.00651 0.10964 0.63011 0.0
C648 C 1.00634 0.10841 0.67081 0.0
C649 C 0.01677 0.11552 0.68846 0.0
C650 C 0.02405 0.12097 0.65808 0.0
C651 C 0.0176 0.11709 0.62376 0.0
N652 N 1.00372 0.11273 0.54376 0.0
C653 C 0.01497 0.12006 0.5484 0.0
C654 C 0.01953 0.1259 0.51387 0.0
C655 C 1.01078 0.12192 0.48494 0.0
C656 C 1.00129 0.11382 0.50358 0.0
N657 N 0.98187 0.11891 0.59572 0.0
C658 C 0.96372 0.14062 0.61157 0.0
C659 C 0.97777 0.14247 0.61106 0.0
C660 C 0.98658 0.13161 0.60304 0.0
C661 C 0.95919 0.12762 0.60278 0.0
C662 C 0.96824 0.11712 0.59539 0.0
N663 N 1.005 0.08644 0.57948 0.0
C664 C 1.01107 0.06893 0.53226 0.0
C665 C 1.01047 0.05912 0.56232 0.0
C666 C 1.00875 0.06359 0.60193 0.0
C667 C 1.00648 0.07727 0.6099 0.0
C668 C 1.00844 0.08242 0.54146 0.0
H669 H 1.00518 0.08016 0.64069 0.0
H670 H 1.00842 0.08931 0.51691 0.0
H671 H 0.99718 0.13358 0.60329 0.0
H672 H 0.96397 0.10746 0.58979 0.0
C673 C 0.96932 0.08153 0.58833 0.0
C674 C 0.99162 0.10571 0.48091 0.0
C675 C 0.99705 0.10011 0.69419 0.0
C676 C 0.02096 0.12143 0.58562 0.0
H677 H 0.97064 0.08847 0.4532 0.0
H678 H 0.95858 0.07473 0.51123 0.0
H679 H 0.96146 0.07185 0.66588 0.0
H680 H 0.97632 0.08268 0.72345 0.0
H681 H 0.01894 0.11666 0.72011 0.0
H682 H 0.03283 0.12729 0.66071 0.0
H683 H 0.02833 0.13213 0.51005 0.0
H684 H 1.01173 0.1243 0.45343 0.0
H685 H 0.98204 0.15219 0.61763 0.0
H686 H 0.94858 0.12541 0.6013 0.0
H687 H 0.01277 0.06614 0.50126 0.0
H688 H 1.00887 0.05653 0.62662 0.0
C689 C 0.67603 0.23087 0.25556 0.0
C690 C 0.68368 0.22105 0.23716 0.0
C691 C 0.69086 0.21486 0.26689 0.0
C692 C 0.68721 0.22121 0.30175 0.0
N693 N 0.67789 0.23082 0.29627 0.0
Co694 Co 0.67169 0.24364 0.33882 0.0
N695 N 0.68081 0.23361 0.38343 0.0
C696 C 0.68946 0.22339 0.37849 0.0
C697 C 0.69439 0.21848 0.41405 0.0
C698 C 0.68864 0.22617 0.44345 0.0
C699 C 0.68052 0.23543 0.42416 0.0
N700 N 0.66593 0.25694 0.38057 0.0
C701 C 0.66744 0.25707 0.42117 0.0
C702 C 0.6627 0.26895 0.43769 0.0
C703 C 0.65788 0.27645 0.4068 0.0
C704 C 0.66005 0.26886 0.37327 0.0
N705 N 0.66209 0.25361 0.29485 0.0
C706 C 0.65569 0.26543 0.29886 0.0
C707 C 0.64973 0.26994 0.26446 0.0
C708 C 0.65271 0.26056 0.23623 0.0
C709 C 0.66042 0.2508 0.25511 0.0
N710 N 0.65525 0.23252 0.34851 0.0
C711 C 0.63278 0.21548 0.36539 0.0
C712 C 0.63149 0.22957 0.36368 0.0
C713 C 0.64276 0.23785 0.35529 0.0
C714 C 0.64561 0.21033 0.35752 0.0
C715 C 0.65649 0.21884 0.34949 0.0
N716 N 0.68862 0.25392 0.32909 0.0
C717 C 0.70602 0.25891 0.2805 0.0
C718 C 0.71607 0.25817 0.30995 0.0
C719 C 0.71174 0.25711 0.35003 0.0
C720 C 0.69802 0.2553 0.35891 0.0
C721 C 0.6925 0.25693 0.29066 0.0
H722 H 0.69525 0.25416 0.38994 0.0
H723 H 0.68543 0.25705 0.26656 0.0
H724 H 0.64134 0.24855 0.35473 0.0
H725 H 0.66599 0.21415 0.34441 0.0
C726 C 0.69222 0.2184 0.34012 0.0
C727 C 0.66799 0.24065 0.23264 0.0
C728 C 0.67374 0.24652 0.44533 0.0
C729 C 0.65554 0.27212 0.33522 0.0
H730 H 0.68429 0.21888 0.20538 0.0
H731 H 0.69809 0.20686 0.26337 0.0
H732 H 0.70137 0.21028 0.41815 0.0
H733 H 0.69047 0.2253 0.47537 0.0
H734 H 0.66277 0.27202 0.46882 0.0
H735 H 0.65316 0.28619 0.40864 0.0
H736 H 0.64417 0.27914 0.26015 0.0
H737 H 0.65007 0.26134 0.20486 0.0
H738 H 0.62191 0.23426 0.36955 0.0
H739 H 0.64737 0.19963 0.35716 0.0
H740 H 0.70856 0.26057 0.24929 0.0
H741 H 0.71889 0.25693 0.37445 0.0
C742 C 0.54285 0.92454 1.00612 0.0
C743 C 0.5525 0.93239 0.98763 0.0
C744 C 0.55885 0.93938 0.01743 0.0
C745 C 0.55275 0.93543 0.05242 0.0
N746 N 0.54316 0.92608 0.04693 0.0
Co747 Co 0.53057 0.91955 0.08975 0.0
N748 N 0.54064 0.92864 0.13432 0.0
C749 C 0.55091 0.93725 0.12934 0.0
C750 C 0.55585 0.94217 0.16487 0.0
C751 C 0.54814 0.93645 0.19431 0.0
C752 C 0.53884 0.92837 0.17508 0.0
N753 N 0.51742 0.91355 0.13174 0.0
C754 C 0.51725 0.91517 0.17231 0.0
C755 C 0.50547 0.91018 0.18897 0.0
C756 C 0.49809 0.90509 0.15823 0.0
C757 C 0.50564 0.90735 0.12463 0.0
N758 N 0.52063 0.90989 0.04585 0.0
C759 C 0.50906 0.90307 0.05018 0.0
C760 C 0.50458 0.89709 0.01579 0.0
C761 C 0.51371 0.9005 0.98724 0.0
C762 C 0.5233 0.90847 1.00593 0.0
N763 N 0.54195 0.90321 0.09874 0.0
C764 C 0.55931 0.88077 0.11204 0.0
C765 C 0.54523 0.87951 0.11401 0.0
C766 C 0.53678 0.89075 0.10695 0.0
C767 C 0.56432 0.89359 0.1037 0.0
C768 C 0.55564 0.90449 0.09759 0.0
N769 N 0.52003 0.93637 0.08054 0.0
C770 C 0.51435 0.9535 0.03172 0.0
C771 C 0.51561 0.96372 0.06041 0.0
C772 C 0.51723 0.95962 0.10055 0.0
C773 C 0.51908 0.94595 0.10997 0.0
C774 C 0.51642 0.94005 0.04237 0.0
H775 H 0.52057 0.94339 0.141 0.0
H776 H 0.51584 0.93285 0.01872 0.0
H777 H 0.52609 0.88928 0.10821 0.0
H778 H 0.56025 0.91401 0.09221 0.0
C779 C 0.55574 0.9402 0.09091 0.0
C780 C 0.53304 0.91652 0.98329 0.0
C781 C 0.52768 0.9217 0.19634 0.0
C782 C 0.50246 0.9027 0.08669 0.0
H783 H 0.55446 0.93325 0.95577 0.0
H784 H 0.56678 0.94669 1.01391 0.0
H785 H 0.56403 0.94916 0.16892 0.0
H786 H 0.54899 0.93831 0.22622 0.0
H787 H 0.5024 0.91024 0.2201 0.0
H788 H 0.48845 0.90014 0.16021 0.0
H789 H 0.49552 0.89128 1.01168 0.0
H790 H 0.51286 0.89798 0.95582 0.0
H791 H 0.54073 0.86986 0.12025 0.0
H792 H 0.57503 0.89534 0.10253 0.0
H793 H 0.51218 0.95585 1.00065 0.0
H794 H 0.5178 0.9669 0.12452 0.0
C795 C 0.84933 0.79327 0.75365 0.0
C796 C 0.84164 0.80305 0.73509 0.0
C797 C 0.83454 0.80934 0.76475 0.0
C798 C 0.83827 0.8031 0.79974 0.0
N799 N 0.84757 0.79346 0.79438 0.0
Co800 Co 0.85392 0.78082 0.83726 0.0
N801 N 0.84501 0.79107 0.88172 0.0
C802 C 0.83639 0.8013 0.87665 0.0
C803 C 0.8316 0.80638 0.91217 0.0
C804 C 0.83744 0.79879 0.94169 0.0
C805 C 0.84545 0.78942 0.92252 0.0
N806 N 0.85981 0.76768 0.87937 0.0
C807 C 0.85846 0.76773 0.92002 0.0
C808 C 0.86325 0.75591 0.93689 0.0
C809 C 0.86793 0.74827 0.90616 0.0
C810 C 0.86563 0.75571 0.87238 0.0
N811 N 0.86335 0.77065 0.79343 0.0
C812 C 0.86975 0.75885 0.79773 0.0
C813 C 0.87558 0.75419 0.76333 0.0
C814 C 0.87252 0.76346 0.73483 0.0
C815 C 0.8649 0.77331 0.75355 0.0
N816 N 0.87044 0.79196 0.84589 0.0
C817 C 0.8931 0.80902 0.85919 0.0
C818 C 0.8942 0.79493 0.86098 0.0
C819 C 0.88285 0.78663 0.8539 0.0
C820 C 0.88033 0.81419 0.85097 0.0
C821 C 0.86931 0.80566 0.84488 0.0
N822 N 0.83695 0.7705 0.82854 0.0
C823 C 0.81941 0.76472 0.78105 0.0
C824 C 0.80955 0.76522 0.81104 0.0
C825 C 0.81402 0.76693 0.85072 0.0
C826 C 0.82772 0.76918 0.85885 0.0
C827 C 0.83291 0.76724 0.7904 0.0
H828 H 0.8306 0.77057 0.88968 0.0
H829 H 0.83983 0.76732 0.7659 0.0
H830 H 0.88418 0.77593 0.85502 0.0
H831 H 0.85983 0.81036 0.83967 0.0
C832 C 0.83345 0.80612 0.83817 0.0
C833 C 0.85732 0.78342 0.73092 0.0
C834 C 0.85226 0.77839 0.94391 0.0
C835 C 0.87001 0.7523 0.83433 0.0
H836 H 0.84097 0.80512 0.70325 0.0
H837 H 0.82734 0.81736 0.76113 0.0
H838 H 0.82467 0.81461 0.91617 0.0
H839 H 0.83573 0.79978 0.97363 0.0
H840 H 0.86331 0.75298 0.96815 0.0
H841 H 0.87264 0.73852 0.90825 0.0
H842 H 0.88111 0.74496 0.75923 0.0
H843 H 0.87506 0.76256 0.70342 0.0
H844 H 0.90381 0.79032 0.86712 0.0
H845 H 0.87871 0.82491 0.84992 0.0
H846 H 0.81666 0.76315 0.74995 0.0
H847 H 0.80694 0.7668 0.87538 0.0
C848 C 0.51757 0.61335 0.50355 0.0
C849 C 0.5077 0.62025 0.48256 0.0
C850 C 0.5004 0.62717 0.51044 0.0
C851 C 0.50617 0.62413 0.54671 0.0
N852 N 0.51668 0.61576 0.54344 0.0
Co853 Co 0.52778 0.60892 0.5885 0.0
N854 N 0.51341 0.61289 0.62825 0.0
C855 C 0.50282 0.621 0.62194 0.0
C856 C 0.49447 0.62201 0.65447 0.0
C857 C 0.50024 0.61421 0.68345 0.0
C858 C 0.51191 0.60893 0.66702 0.0
N859 N 0.53894 0.60261 0.63427 0.0
C860 C 0.53562 0.60017 0.67333 0.0
C861 C 0.54694 0.59688 0.6954 0.0
C862 C 0.55765 0.59744 0.6694 0.0
C863 C 0.55235 0.60107 0.63287 0.0
N864 N 0.5417 0.60472 0.54787 0.0
C865 C 0.55472 0.60251 0.55564 0.0
C866 C 0.5618 0.59927 0.52151 0.0
C867 C 0.55259 0.59947 0.49057 0.0
C868 C 0.54036 0.60281 0.50751 0.0
N869 N 0.53577 0.62711 0.59647 0.0
C870 C 0.55308 0.64944 0.61157 0.0
C871 C 0.55081 0.64455 0.57237 0.0
C872 C 0.54207 0.63362 0.56549 0.0
C873 C 0.54554 0.64333 0.64237 0.0
C874 C 0.5371 0.63232 0.63434 0.0
N875 N 0.52081 0.59043 0.5804 0.0
C876 C 0.5263 0.56684 0.5754 0.0
C877 C 0.51373 0.56377 0.55939 0.0
C878 C 0.50457 0.57442 0.55468 0.0
C879 C 0.50824 0.58764 0.56594 0.0
C880 C 0.52964 0.58002 0.58512 0.0
H881 H 0.50104 0.59562 0.56197 0.0
H882 H 0.53973 0.58171 0.59494 0.0
H883 H 0.54099 0.63 0.53512 0.0
H884 H 0.53215 0.62766 0.65946 0.0
C885 C 0.50028 0.62638 0.58403 0.0
C886 C 0.52778 0.6049 0.48468 0.0
C887 C 0.5221 0.60189 0.691 0.0
C888 C 0.55916 0.60136 0.5957 0.0
H889 H 0.50584 0.62015 0.45056 0.0
H890 H 0.49145 0.63305 0.50508 0.0
H891 H 0.48522 0.62761 0.65673 0.0
H892 H 0.49649 0.61296 0.71371 0.0
H893 H 0.54741 0.5945 0.72708 0.0
H894 H 0.56802 0.59519 0.6762 0.0
H895 H 0.57228 0.59653 0.51951 0.0
H896 H 0.55462 0.5974 0.45927 0.0
H897 H 0.55613 0.6487 0.54698 0.0
H898 H 0.54627 0.64682 0.67303 0.0
H899 H 0.53384 0.55912 0.57902 0.0
H900 H 0.49468 0.57257 0.5425 0.0
C901 C 0.66207 0.26742 0.75373 0.0
C902 C 0.65513 0.25764 0.73255 0.0
C903 C 0.64813 0.25033 0.76027 0.0
C904 C 0.65117 0.25601 0.79664 0.0
N905 N 0.65961 0.26648 0.79359 0.0
Co906 Co 0.66645 0.27746 0.83887 0.0
N907 N 0.66233 0.26307 0.87843 0.0
C908 C 0.65417 0.25253 0.87188 0.0
C909 C 0.65304 0.24416 0.90431 0.0
C910 C 0.66081 0.24984 0.9335 0.0
C911 C 0.66619 0.2615 0.91727 0.0
N912 N 0.67271 0.28851 0.8849 0.0
C913 C 0.67505 0.28512 0.92397 0.0
C914 C 0.67835 0.29639 0.94622 0.0
C915 C 0.6779 0.30713 0.92031 0.0
C916 C 0.67432 0.3019 0.88367 0.0
N917 N 0.67081 0.2914 0.79846 0.0
C918 C 0.67311 0.30438 0.80642 0.0
C919 C 0.67646 0.31149 0.77241 0.0
C920 C 0.67624 0.30234 0.74136 0.0
C921 C 0.67278 0.29012 0.7581 0.0
N922 N 0.64826 0.28551 0.84657 0.0
C923 C 0.62599 0.30294 0.86114 0.0
C924 C 0.63096 0.30062 0.82205 0.0
C925 C 0.64186 0.29183 0.81544 0.0
C926 C 0.63198 0.29538 0.89211 0.0
C927 C 0.64297 0.28688 0.88434 0.0
N928 N 0.68494 0.27044 0.83087 0.0
C929 C 0.70858 0.2759 0.8262 0.0
C930 C 0.71157 0.26357 0.80862 0.0
C931 C 0.70088 0.2545 0.80317 0.0
C932 C 0.68769 0.25804 0.81513 0.0
C933 C 0.69541 0.27916 0.83645 0.0
H934 H 0.67969 0.25091 0.81052 0.0
H935 H 0.69379 0.28914 0.84723 0.0
H936 H 0.64553 0.29072 0.78514 0.0
H937 H 0.64755 0.28191 0.90956 0.0
C938 C 0.64883 0.25008 0.83387 0.0
C939 C 0.67062 0.2776 0.73508 0.0
C940 C 0.67324 0.2716 0.94148 0.0
C941 C 0.67418 0.30875 0.84655 0.0
H942 H 0.65525 0.25583 0.70053 0.0
H943 H 0.6422 0.24143 0.75475 0.0
H944 H 0.64737 0.23494 0.90639 0.0
H945 H 0.66197 0.24605 0.96374 0.0
H946 H 0.68067 0.29681 0.97793 0.0
H947 H 0.6802 0.31747 0.92725 0.0
H948 H 0.67928 0.32194 0.77057 0.0
H949 H 0.67838 0.3044 0.71011 0.0
H950 H 0.62689 0.30595 0.79655 0.0
H951 H 0.62843 0.29615 0.9227 0.0
H952 H 0.71635 0.28335 0.83052 0.0
H953 H 0.70269 0.24479 0.78981 0.0
C954 C 1.00633 0.41249 1.00222 0.0
C955 C 0.01528 0.40474 0.98031 0.0
C956 C 0.02248 0.39742 1.00758 0.0
C957 C 0.01746 0.40101 0.04439 0.0
N958 N 1.00752 0.41007 0.04201 0.0
Co959 Co 0.997 0.41712 0.08787 0.0
N960 N 1.01144 0.41237 0.12665 0.0
C961 C 0.02162 0.40383 0.11939 0.0
C962 C 0.03011 0.40229 0.1514 0.0
C963 C 0.02487 0.41017 0.18105 0.0
C964 C 0.01332 0.41603 0.16553 0.0
N965 N 0.98636 0.4235 0.13461 0.0
C966 C 0.99 0.42557 0.17361 0.0
C967 C 0.97893 0.42915 0.19642 0.0
C968 C 0.96807 0.42917 0.17093 0.0
C969 C 0.97302 0.42558 0.13395 0.0
N970 N 0.98306 0.42215 0.04808 0.0
C971 C 0.97024 0.42505 0.05669 0.0
C972 C 0.96327 0.42928 0.02333 0.0
C973 C 0.97233 0.42901 0.99203 0.0
C974 C 0.98438 0.42455 1.00787 0.0
N975 N 0.98841 0.39919 0.09529 0.0
C976 C 0.97086 0.37709 0.10928 0.0
C977 C 0.97297 0.38227 0.07044 0.0
C978 C 0.98184 0.39311 0.06406 0.0
C979 C 0.97848 0.3828 0.14042 0.0
C980 C 0.98709 0.39373 0.1329 0.0
N981 N 1.00458 0.43543 0.08016 0.0
C982 C 0.99977 0.45921 0.07718 0.0
C983 C 1.01188 0.46193 0.05784 0.0
C984 C 0.02053 0.45102 0.05065 0.0
C985 C 0.0168 0.43788 0.06269 0.0
C986 C 0.99629 0.44612 0.08742 0.0
H987 H 0.0236 0.42971 0.05667 0.0
H988 H 0.98643 0.44479 0.09945 0.0
H989 H 0.98291 0.39693 0.0339 0.0
H990 H 0.99215 0.39815 0.1582 0.0
C991 C 0.02355 0.39837 0.08124 0.0
C992 C 0.99677 0.42192 0.98437 0.0
C993 C 1.00355 0.42328 0.19046 0.0
C994 C 0.96606 0.42601 0.09704 0.0
H995 H 0.01659 0.40454 0.94806 0.0
H996 H 0.03085 0.39083 1.00139 0.0
H997 H 0.0391 0.39624 0.15295 0.0
H998 H 0.02884 0.41108 0.21117 0.0
H999 H 0.97873 0.43136 0.22822 0.0
H1000 H 0.95784 0.43184 0.17834 0.0
H1001 H 0.95302 0.43281 0.0222 0.0
H1002 H 0.97029 0.43187 0.96131 0.0
H1003 H 0.96767 0.3781 0.04499 0.0
H1004 H 0.97735 0.37928 0.17099 0.0
H1005 H 0.99262 0.46716 0.08287 0.0
H1006 H 0.03006 0.4526 0.03584 0.0
C1007 C 0.86387 0.75783 0.25348 0.0
C1008 C 0.87067 0.76787 0.23299 0.0
C1009 C 0.87738 0.7752 0.26131 0.0
C1010 C 0.87431 0.76926 0.29732 0.0
N1011 N 0.86614 0.75862 0.29347 0.0
Co1012 Co 0.85931 0.74726 0.33796 0.0
N1013 N 0.8629 0.76153 0.37826 0.0
C1014 C 0.8709 0.77225 0.37255 0.0
C1015 C 0.87171 0.78046 0.40539 0.0
C1016 C 0.8639 0.77448 0.43393 0.0
C1017 C 0.85881 0.76282 0.41694 0.0
N1018 N 0.85291 0.73587 0.38315 0.0
C1019 C 0.85019 0.73904 0.42215 0.0
C1020 C 0.84692 0.72762 0.44376 0.0
C1021 C 0.8478 0.717 0.41754 0.0
C1022 C 0.85158 0.72246 0.38135 0.0
N1023 N 0.85561 0.73339 0.29683 0.0
C1024 C 0.85363 0.72032 0.3042 0.0
C1025 C 0.85072 0.71327 0.26975 0.0
C1026 C 0.85088 0.72256 0.23904 0.0
C1027 C 0.85387 0.7348 0.25642 0.0
N1028 N 0.87762 0.73959 0.34649 0.0
C1029 C 0.9004 0.72274 0.36055 0.0
C1030 C 0.89609 0.72608 0.32136 0.0
C1031 C 0.88479 0.7344 0.31506 0.0
C1032 C 0.89337 0.72895 0.39221 0.0
C1033 C 0.88231 0.73739 0.38461 0.0
N1034 N 0.84072 0.75392 0.32919 0.0
C1035 C 0.81721 0.74809 0.32321 0.0
C1036 C 0.81401 0.76066 0.30753 0.0
C1037 C 0.82455 0.76999 0.30345 0.0
C1038 C 0.83779 0.7665 0.31509 0.0
C1039 C 0.83043 0.74491 0.33316 0.0
H1040 H 0.84567 0.77384 0.3117 0.0
H1041 H 0.83224 0.73481 0.34262 0.0
H1042 H 0.88154 0.73616 0.28458 0.0
H1043 H 0.87713 0.74152 0.41012 0.0
C1044 C 0.87637 0.77502 0.3349 0.0
C1045 C 0.85572 0.7475 0.23404 0.0
C1046 C 0.85176 0.75249 0.44034 0.0
C1047 C 0.85227 0.71576 0.34408 0.0
H1048 H 0.87066 0.76982 0.20103 0.0
H1049 H 0.88313 0.78425 0.2564 0.0
H1050 H 0.8772 0.78977 0.40813 0.0
H1051 H 0.86251 0.7781 0.46427 0.0
H1052 H 0.8444 0.72702 0.47531 0.0
H1053 H 0.84568 0.70659 0.42399 0.0
H1054 H 0.84818 0.70276 0.26738 0.0
H1055 H 0.84898 0.72059 0.20761 0.0
H1056 H 0.90122 0.72218 0.29529 0.0
H1057 H 0.89591 0.72697 0.42319 0.0
H1058 H 0.80955 0.74047 0.32641 0.0
H1059 H 0.82257 0.77989 0.29154 0.0
C1060 C 0.51918 0.41214 0.02538 0.0
C1061 C 0.50942 0.40521 0.0467 0.0
C1062 C 0.5021 0.39816 0.0191 0.0
C1063 C 0.50778 0.40116 0.98265 0.0
N1064 N 0.51823 0.40962 0.98557 0.0
Co1065 Co 0.52919 0.41644 0.94018 0.0
N1066 N 0.51479 0.41226 0.90073 0.0
C1067 C 0.50429 0.40406 0.90734 0.0
C1068 C 0.49588 0.40294 0.87497 0.0
C1069 C 0.50151 0.41076 0.8458 0.0
C1070 C 0.51317 0.41617 0.86195 0.0
N1071 N 0.54019 0.42275 0.89411 0.0
C1072 C 0.53674 0.42522 0.85516 0.0
C1073 C 0.54798 0.4286 0.83283 0.0
C1074 C 0.55877 0.42808 0.85856 0.0
C1075 C 0.55359 0.42439 0.8952 0.0
N1076 N 0.54316 0.42082 0.98045 0.0
C1077 C 0.55615 0.42309 0.97239 0.0
C1078 C 0.56329 0.42644 1.00632 0.0
C1079 C 0.55416 0.42626 0.03743 0.0
C1080 C 0.5419 0.42281 0.02079 0.0
N1081 N 0.53726 0.39829 0.93258 0.0
C1082 C 0.55438 0.37582 0.91899 0.0
C1083 C 0.55201 0.38082 0.95788 0.0
C1084 C 0.54336 0.39183 0.96405 0.0
C1085 C 0.54719 0.38189 0.8875 0.0
C1086 C 0.53879 0.393 0.89482 0.0
N1087 N 0.52209 0.43487 0.94814 0.0
C1088 C 0.52744 0.45849 0.95321 0.0
C1089 C 0.51497 0.46141 0.97016 0.0
C1090 C 0.50592 0.45069 0.97513 0.0
C1091 C 0.50959 0.43754 0.9633 0.0
C1092 C 0.53081 0.44536 0.94302 0.0
H1093 H 0.50247 0.42951 0.96752 0.0
H1094 H 0.54085 0.44378 0.93262 0.0
H1095 H 0.5421 0.3955 0.99429 0.0
H1096 H 0.53408 0.39771 0.86935 0.0
C1097 C 0.50185 0.39875 0.94544 0.0
C1098 C 0.52938 0.42071 0.04387 0.0
C1099 C 0.52319 0.4234 0.83781 0.0
C1100 C 0.5605 0.4242 0.93222 0.0
H1101 H 0.50763 0.40537 0.07874 0.0
H1102 H 0.49322 0.39222 0.02474 0.0
H1103 H 0.48666 0.39727 0.87297 0.0
H1104 H 0.49765 0.41199 0.81565 0.0
H1105 H 0.54834 0.431 0.80116 0.0
H1106 H 0.5691 0.43043 0.85153 0.0
H1107 H 0.57376 0.42926 1.00807 0.0
H1108 H 0.55624 0.42841 0.06865 0.0
H1109 H 0.55697 0.37637 0.98355 0.0
H1110 H 0.54852 0.37851 0.85688 0.0
H1111 H 0.53487 0.4663 0.94926 0.0
H1112 H 0.4961 0.45244 0.98796 0.0
C1113 C 0.86374 0.26893 0.27717 0.0
C1114 C 0.87184 0.26019 0.29873 0.0
C1115 C 0.87951 0.25347 0.27117 0.0
C1116 C 0.87574 0.25855 0.23456 0.0
N1117 N 0.86623 0.26804 0.23737 0.0
Co1118 Co 0.85874 0.27846 0.19198 0.0
N1119 N 0.86382 0.26432 0.1528 0.0
C1120 C 0.87313 0.25477 0.15928 0.0
C1121 C 0.87539 0.24681 0.1265 0.0
C1122 C 0.86714 0.25173 0.09722 0.0
C1123 C 0.8602 0.26247 0.11384 0.0
N1124 N 0.85187 0.289 0.14568 0.0
C1125 C 0.84934 0.28527 0.107 0.0
C1126 C 0.84476 0.29616 0.085 0.0
C1127 C 0.8448 0.30702 0.11045 0.0
C1128 C 0.8493 0.30224 0.14674 0.0
N1129 N 0.85347 0.29211 0.23223 0.0
C1130 C 0.85021 0.30487 0.22405 0.0
C1131 C 0.84579 0.31157 0.25765 0.0
C1132 C 0.84633 0.3024 0.28865 0.0
C1133 C 0.85111 0.29056 0.27238 0.0
N1134 N 0.87642 0.28755 0.18419 0.0
C1135 C 0.89844 0.30527 0.16952 0.0
C1136 C 0.89339 0.30305 0.20857 0.0
C1137 C 0.88258 0.29414 0.21524 0.0
C1138 C 0.89257 0.29762 0.13863 0.0
C1139 C 0.8817 0.28899 0.14642 0.0
N1140 N 0.84067 0.27036 0.20002 0.0
C1141 C 0.81677 0.27456 0.20391 0.0
C1142 C 0.81442 0.2623 0.22274 0.0
C1143 C 0.82558 0.25389 0.22928 0.0
C1144 C 0.83859 0.25801 0.21704 0.0
C1145 C 0.82973 0.27841 0.19347 0.0
H1146 H 0.84697 0.2514 0.22254 0.0
H1147 H 0.83076 0.28835 0.18188 0.0
H1148 H 0.87883 0.29306 0.24548 0.0
H1149 H 0.87724 0.28391 0.12123 0.0
C1150 C 0.87875 0.2529 0.19733 0.0
C1151 C 0.85402 0.27811 0.29534 0.0
C1152 C 0.8519 0.27175 0.08994 0.0
C1153 C 0.84889 0.30909 0.18382 0.0
H1154 H 0.87209 0.25872 0.33092 0.0
H1155 H 0.88647 0.24539 0.27703 0.0
H1156 H 0.88224 0.23845 0.1241 0.0
H1157 H 0.86679 0.24814 0.06661 0.0
H1158 H 0.8417 0.29629 0.05385 0.0
H1159 H 0.84142 0.31707 0.10365 0.0
H1160 H 0.84192 0.32168 0.25912 0.0
H1161 H 0.84338 0.30421 0.3194 0.0
H1162 H 0.89735 0.30852 0.23395 0.0
H1163 H 0.89618 0.29836 0.10808 0.0
H1164 H 0.80861 0.28152 0.19874 0.0
H1165 H 0.82427 0.24426 0.24369 0.0
C1166 C 1.0084 0.61443 0.52698 0.0
C1167 C 0.01892 0.62071 0.54677 0.0
C1168 C 0.0265 0.62686 0.51788 0.0
C1169 C 0.02021 0.624 0.48226 0.0
N1170 N 1.00913 0.61649 0.48686 0.0
Co1171 Co 0.9972 0.61009 0.44315 0.0
N1172 N 1.01149 0.6127 0.40213 0.0
C1173 C 0.02266 0.62013 0.40708 0.0
C1174 C 0.03079 0.62034 0.37395 0.0
C1175 C 0.02427 0.61275 0.34597 0.0
C1176 C 1.0124 0.60838 0.36359 0.0
N1177 N 0.98532 0.60394 0.39884 0.0
C1178 C 0.98817 0.60093 0.35977 0.0
C1179 C 0.97648 0.59816 0.3388 0.0
C1180 C 0.96604 0.59969 0.36542 0.0
C1181 C 0.97185 0.60333 0.40123 0.0
N1182 N 0.98329 0.60748 0.48504 0.0
C1183 C 0.97007 0.60636 0.47823 0.0
C1184 C 0.96298 0.60414 0.5131 0.0
C1185 C 0.9724 0.60388 0.54347 0.0
C1186 C 0.98475 0.60593 0.52549 0.0
N1187 N 0.99039 0.62867 0.43378 0.0
C1188 C 0.97343 0.65112 0.4187 0.0
C1189 C 0.97701 0.64737 0.45805 0.0
C1190 C 0.98543 0.63619 0.46492 0.0
C1191 C 0.97953 0.64398 0.38728 0.0
C1192 C 0.98808 0.63307 0.39536 0.0
N1193 N 1.00291 0.59128 0.45259 0.0
C1194 C 0.99552 0.56849 0.46372 0.0
C1195 C 1.00852 0.56411 0.47262 0.0
C1196 C 0.01879 0.57389 0.47133 0.0
C1197 C 0.01578 0.58741 0.46124 0.0
C1198 C 0.99301 0.58178 0.45351 0.0
H1199 H 0.02376 0.59472 0.4609 0.0
H1200 H 0.98277 0.58437 0.44754 0.0
H1201 H 0.98728 0.63316 0.49556 0.0
H1202 H 0.99214 0.62771 0.37011 0.0
C1203 C 0.02591 0.62558 0.44438 0.0
C1204 C 0.99766 0.60706 0.54727 0.0
C1205 C 1.00159 0.60187 0.34079 0.0
C1206 C 0.9653 0.60486 0.43858 0.0
H1207 H 0.02101 0.62074 0.57865 0.0
H1208 H 0.03589 0.6321 0.52218 0.0
H1209 H 0.04038 0.62529 0.37064 0.0
H1210 H 0.0277 0.61104 0.31558 0.0
H1211 H 0.9756 0.5956 0.30734 0.0
H1212 H 0.95548 0.59819 0.35941 0.0
H1213 H 0.95234 0.60229 0.51597 0.0
H1214 H 0.97043 0.60231 0.57508 0.0
H1215 H 0.97275 0.65258 0.48354 0.0
H1216 H 0.97749 0.64663 0.35633 0.0
H1217 H 0.98703 0.56177 0.46549 0.0
H1218 H 0.02906 0.57116 0.47784 0.0
C1219 C 0.66148 0.75709 0.77851 0.0
C1220 C 0.65457 0.76694 0.79947 0.0
C1221 C 0.6476 0.77421 0.77159 0.0
C1222 C 0.65063 0.76844 0.73534 0.0
N1223 N 0.65904 0.75796 0.73862 0.0
Co1224 Co 0.66585 0.74686 0.69357 0.0
N1225 N 0.66178 0.76118 0.65374 0.0
C1226 C 0.65364 0.77174 0.66004 0.0
C1227 C 0.65255 0.78005 0.62745 0.0
C1228 C 0.66033 0.7743 0.59844 0.0
C1229 C 0.66569 0.76267 0.61492 0.0
N1230 N 0.67212 0.73571 0.64779 0.0
C1231 C 0.67453 0.73902 0.60871 0.0
C1232 C 0.67783 0.72771 0.58668 0.0
C1233 C 0.67731 0.71702 0.61275 0.0
C1234 C 0.67369 0.72232 0.64926 0.0
N1235 N 0.67015 0.73299 0.73426 0.0
C1236 C 0.6724 0.71999 0.72654 0.0
C1237 C 0.6757 0.71293 0.76069 0.0
C1238 C 0.67549 0.72214 0.79158 0.0
C1239 C 0.67209 0.73434 0.77461 0.0
N1240 N 0.64765 0.73884 0.68591 0.0
C1241 C 0.62529 0.72159 0.67189 0.0
C1242 C 0.63024 0.72396 0.71087 0.0
C1243 C 0.64119 0.73268 0.71725 0.0
C1244 C 0.63133 0.72887 0.64057 0.0
C1245 C 0.64238 0.73734 0.64809 0.0
N1246 N 0.68437 0.75386 0.70151 0.0
C1247 C 0.708 0.74839 0.70622 0.0
C1248 C 0.71103 0.7608 0.72324 0.0
C1249 C 0.70035 0.76989 0.72847 0.0
C1250 C 0.68714 0.76632 0.71677 0.0
C1251 C 0.69482 0.7451 0.69623 0.0
H1252 H 0.67916 0.77348 0.72116 0.0
H1253 H 0.69316 0.73508 0.68584 0.0
H1254 H 0.64483 0.73394 0.74755 0.0
H1255 H 0.64708 0.74209 0.62269 0.0
C1256 C 0.6483 0.77429 0.69799 0.0
C1257 C 0.66997 0.74691 0.79741 0.0
C1258 C 0.67277 0.75252 0.59098 0.0
C1259 C 0.6735 0.71554 0.68649 0.0
H1260 H 0.65469 0.76882 0.83146 0.0
H1261 H 0.6417 0.78313 0.77692 0.0
H1262 H 0.6469 0.78928 0.62518 0.0
H1263 H 0.66154 0.77804 0.56815 0.0
H1264 H 0.68019 0.72724 0.555 0.0
H1265 H 0.6796 0.70666 0.606 0.0
H1266 H 0.67847 0.70247 0.76273 0.0
H1267 H 0.6776 0.72013 0.82289 0.0
H1268 H 0.6258 0.71894 0.73645 0.0
H1269 H 0.62799 0.72756 0.60989 0.0
H1270 H 0.71576 0.74093 0.70208 0.0
H1271 H 0.70219 0.77967 0.74142 0.0
C1272 C 0.48207 0.42584 0.52261 0.0
C1273 C 0.47076 0.43151 0.5397 0.0
C1274 C 0.46255 0.43521 0.50854 0.0
C1275 C 0.46929 0.43162 0.4742 0.0
N1276 N 0.48121 0.42584 0.4816 0.0
Co1277 Co 0.49461 0.4203 0.44001 0.0
N1278 N 0.48394 0.428 0.39431 0.0
C1279 C 0.47146 0.433 0.39726 0.0
C1280 C 0.4662 0.4369 0.36096 0.0
C1281 C 0.47595 0.43414 0.33313 0.0
C1282 C 0.48665 0.4287 0.35403 0.0
N1283 N 0.50851 0.4152 0.39922 0.0
C1284 C 0.50975 0.41837 0.35961 0.0
C1285 C 0.52164 0.41342 0.34372 0.0
C1286 C 0.52785 0.40652 0.37368 0.0
C1287 C 0.51957 0.4078 0.40621 0.0
N1288 N 0.50497 0.41165 0.48488 0.0
C1289 C 0.51578 0.4037 0.48065 0.0
C1290 C 0.52047 0.39847 0.51598 0.0
C1291 C 0.51215 0.40342 0.5448 0.0
C1292 C 0.50277 0.41138 0.52523 0.0
N1293 N 0.48475 0.40299 0.4315 0.0
C1294 C 0.46661 0.38126 0.41729 0.0
C1295 C 0.4743 0.38692 0.38619 0.0
C1296 C 0.4832 0.39764 0.39381 0.0
C1297 C 0.46884 0.38638 0.45609 0.0
C1298 C 0.47794 0.39701 0.46254 0.0
N1299 N 0.50368 0.43816 0.44878 0.0
C1300 C 0.51069 0.45527 0.49653 0.0
C1301 C 0.5081 0.46561 0.46904 0.0
C1302 C 0.50473 0.46173 0.42989 0.0
C1303 C 0.50291 0.44811 0.42029 0.0
C1304 C 0.50861 0.44178 0.48575 0.0
H1305 H 0.50051 0.44595 0.38971 0.0
H1306 H 0.51072 0.43453 0.50839 0.0
H1307 H 0.48844 0.40182 0.36859 0.0
H1308 H 0.47912 0.40059 0.49281 0.0
C1309 C 0.46532 0.43442 0.43479 0.0
C1310 C 0.49294 0.41971 0.54639 0.0
C1311 C 0.49943 0.42482 0.33482 0.0
C1312 C 0.5221 0.40247 0.44385 0.0
H1313 H 0.46864 0.43269 0.57137 0.0
H1314 H 0.45292 0.44015 0.51069 0.0
H1315 H 0.45649 0.44138 0.35542 0.0
H1316 H 0.47533 0.43604 0.30118 0.0
H1317 H 0.52536 0.4144 0.31334 0.0
H1318 H 0.5373 0.40121 0.37198 0.0
H1319 H 0.52922 0.39224 0.52043 0.0
H1320 H 0.51324 0.4017 0.57667 0.0
H1321 H 0.47312 0.38346 0.3556 0.0
H1322 H 0.46353 0.38225 0.4816 0.0
H1323 H 0.51376 0.45754 0.52694 0.0
H1324 H 0.50335 0.46918 0.40662 0.0
C1325 C 0.35013 0.73073 0.27834 0.0
C1326 C 0.34232 0.72103 0.29675 0.0
C1327 C 0.3349 0.7151 0.26713 0.0
C1328 C 0.33858 0.72146 0.2323 0.0
N1329 N 0.34813 0.73084 0.23766 0.0
Co1330 Co 0.35464 0.74353 0.19499 0.0
N1331 N 0.34489 0.73399 0.15052 0.0
C1332 C 0.33597 0.72401 0.15575 0.0
C1333 C 0.33029 0.71966 0.12057 0.0
C1334 C 0.33579 0.72749 0.09109 0.0
C1335 C 0.3446 0.73621 0.10991 0.0
N1336 N 0.36089 0.7566 0.15302 0.0
C1337 C 0.3594 0.75673 0.11237 0.0
C1338 C 0.36629 0.76738 0.09508 0.0
C1339 C 0.37184 0.77449 0.12566 0.0
C1340 C 0.36826 0.76771 0.15973 0.0
N1341 N 0.36477 0.75304 0.23888 0.0
C1342 C 0.37189 0.76443 0.23462 0.0
C1343 C 0.37805 0.76869 0.26899 0.0
C1344 C 0.37447 0.7596 0.29745 0.0
C1345 C 0.36628 0.75021 0.27872 0.0
N1346 N 0.37065 0.73177 0.18477 0.0
C1347 C 0.39259 0.71397 0.16826 0.0
C1348 C 0.39433 0.728 0.17008 0.0
C1349 C 0.38335 0.73664 0.17837 0.0
C1350 C 0.37954 0.70926 0.17576 0.0
C1351 C 0.36892 0.71815 0.18349 0.0
N1352 N 0.33815 0.75446 0.20542 0.0
C1353 C 0.32097 0.75939 0.25474 0.0
C1354 C 0.31086 0.75994 0.22535 0.0
C1355 C 0.31522 0.75927 0.1851 0.0
C1356 C 0.32882 0.75669 0.17588 0.0
C1357 C 0.33438 0.75707 0.24414 0.0
H1358 H 0.33154 0.75588 0.14474 0.0
H1359 H 0.34142 0.75653 0.26816 0.0
H1360 H 0.38524 0.74724 0.17924 0.0
H1361 H 0.35925 0.71379 0.18828 0.0
C1362 C 0.33331 0.71895 0.1941 0.0
C1363 C 0.35842 0.7403 0.30129 0.0
C1364 C 0.35112 0.74749 0.0888 0.0
C1365 C 0.37286 0.77078 0.19781 0.0
H1366 H 0.34175 0.7188 0.32852 0.0
H1367 H 0.32748 0.70727 0.2707 0.0
H1368 H 0.32285 0.71186 0.11684 0.0
H1369 H 0.33324 0.72715 0.05953 0.0
H1370 H 0.36723 0.76981 0.06354 0.0
H1371 H 0.37806 0.78333 0.12328 0.0
H1372 H 0.38423 0.77751 0.27303 0.0
H1373 H 0.37719 0.76026 0.32877 0.0
H1374 H 0.40407 0.73239 0.16444 0.0
H1375 H 0.37739 0.69864 0.1761 0.0
H1376 H 0.31868 0.76002 0.28637 0.0
H1377 H 0.3082 0.76041 0.16059 0.0
C1378 C 0.04304 0.59951 0.0281 0.0
C1379 C 0.0526 0.59158 0.04673 0.0
C1380 C 0.05886 0.58444 0.01706 0.0
C1381 C 0.0528 0.58839 0.982 0.0
N1382 N 0.04333 0.59787 0.98731 0.0
Co1383 Co 0.03089 0.60452 0.94426 0.0
N1384 N 0.04103 0.59544 0.89986 0.0
C1385 C 0.0511 0.58663 0.90502 0.0
C1386 C 0.05612 0.58176 0.86953 0.0
C1387 C 0.04868 0.58775 0.83994 0.0
C1388 C 0.03944 0.59593 0.85904 0.0
N1389 N 0.01793 0.61071 0.90201 0.0
C1390 C 0.01801 0.60939 0.86136 0.0
C1391 C 1.00634 0.61449 0.84436 0.0
C1392 C 0.99876 0.61934 0.87501 0.0
C1393 C 1.0061 0.61684 0.90887 0.0
N1394 N 0.02083 0.6141 0.98805 0.0
C1395 C 1.0092 0.62082 0.98358 0.0
C1396 C 1.00459 0.62669 0.01797 0.0
C1397 C 0.01369 0.62332 0.04665 0.0
C1398 C 0.02341 0.61549 0.02804 0.0
N1399 N 0.0424 0.62078 0.93572 0.0
C1400 C 0.06008 0.6428 0.91905 0.0
C1401 C 0.04598 0.64435 0.91918 0.0
C1402 C 0.03739 0.63331 0.92756 0.0
C1403 C 0.06488 0.62997 0.92865 0.0
C1404 C 0.05607 0.61931 0.9364 0.0
N1405 N 0.02023 0.58775 0.95271 0.0
C1406 C 0.01451 0.57016 1.00005 0.0
C1407 C 0.01508 0.56034 0.96998 0.0
C1408 C 0.01667 0.56487 0.93031 0.0
C1409 C 0.01885 0.57858 0.9223 0.0
C1410 C 0.01693 0.58369 0.99078 0.0
H1411 H 0.0202 0.58151 0.89149 0.0
H1412 H 0.01693 0.59058 1.01529 0.0
H1413 H 0.02671 0.63493 0.92688 0.0
H1414 H 0.06055 0.60978 0.94247 0.0
C1415 C 0.05578 0.58357 0.94355 0.0
C1416 C 0.03325 0.6076 0.0508 0.0
C1417 C 0.02857 0.60297 0.83756 0.0
C1418 C 1.00274 0.62128 0.94687 0.0
H1419 H 0.05455 0.59075 0.07861 0.0
H1420 H 0.0667 0.57706 0.02073 0.0
H1421 H 0.06422 0.57465 0.8656 0.0
H1422 H 0.04967 0.58603 0.80801 0.0
H1423 H 1.00346 0.61465 0.81305 0.0
H1424 H 0.98914 0.6243 0.8728 0.0
H1425 H 0.99548 0.63243 0.02195 0.0
H1426 H 0.01276 0.62581 0.07808 0.0
H1427 H 0.04153 0.65394 0.91203 0.0
H1428 H 0.07553 0.62801 0.93045 0.0
H1429 H 0.01299 0.56739 0.03115 0.0
H1430 H 0.01655 0.55785 0.90556 0.0
C1431 C 0.17452 0.2925 0.77533 0.0
C1432 C 0.18014 0.30377 0.79272 0.0
C1433 C 0.18418 0.3119 0.76179 0.0
C1434 C 0.18083 0.30515 0.72727 0.0
N1435 N 0.17487 0.29329 0.7343 0.0
Co1436 Co 0.16947 0.27997 0.69226 0.0
N1437 N 0.17741 0.2907 0.64696 0.0
C1438 C 0.18267 0.30305 0.65042 0.0
C1439 C 0.18683 0.30833 0.61441 0.0
C1440 C 0.18398 0.29875 0.58621 0.0
C1441 C 0.17823 0.28811 0.60662 0.0
N1442 N 0.16437 0.26624 0.65093 0.0
C1443 C 0.16736 0.26524 0.61114 0.0
C1444 C 0.16236 0.25344 0.5948 0.0
C1445 C 0.15564 0.24702 0.62471 0.0
C1446 C 0.15706 0.2551 0.65761 0.0
N1447 N 0.16081 0.26944 0.73684 0.0
C1448 C 0.1531 0.25847 0.73228 0.0
C1449 C 0.1479 0.25358 0.76738 0.0
C1450 C 0.15259 0.26194 0.79645 0.0
C1451 C 0.16037 0.27155 0.77725 0.0
N1452 N 0.15216 0.28987 0.68374 0.0
C1453 C 0.13037 0.30812 0.67057 0.0
C1454 C 0.13658 0.30121 0.63872 0.0
C1455 C 0.14723 0.29218 0.64589 0.0
C1456 C 0.13501 0.30498 0.70943 0.0
C1457 C 0.14574 0.29595 0.7153 0.0
N1458 N 0.1873 0.27087 0.70102 0.0
C1459 C 0.20498 0.26522 0.74848 0.0
C1460 C 0.21496 0.26666 0.71917 0.0
C1461 C 0.21055 0.2687 0.67959 0.0
C1462 C 0.19681 0.27052 0.67121 0.0
C1463 C 0.19138 0.26709 0.73874 0.0
H1464 H 0.19417 0.27208 0.64044 0.0
H1465 H 0.18442 0.26576 0.76257 0.0
H1466 H 0.15171 0.28745 0.62023 0.0
H1467 H 0.14903 0.29424 0.74561 0.0
C1468 C 0.18395 0.30909 0.68808 0.0
C1469 C 0.16829 0.28162 0.79887 0.0
C1470 C 0.17397 0.27556 0.58678 0.0
C1471 C 0.15191 0.25231 0.69527 0.0
H1472 H 0.1811 0.3059 0.82445 0.0
H1473 H 0.18919 0.32148 0.76422 0.0
H1474 H 0.1915 0.31797 0.60929 0.0
H1475 H 0.18597 0.29944 0.55434 0.0
H1476 H 0.16324 0.24989 0.56424 0.0
H1477 H 0.15036 0.23757 0.62273 0.0
H1478 H 0.14179 0.24472 0.7715 0.0
H1479 H 0.15075 0.26076 0.82823 0.0
H1480 H 0.13362 0.30306 0.60798 0.0
H1481 H 0.13047 0.30953 0.73559 0.0
H1482 H 0.20762 0.2628 0.77919 0.0
H1483 H 0.21766 0.26947 0.65517 0.0
C1484 C 0.48144 0.59904 1.00466 0.0
C1485 C 0.47173 0.59126 0.98617 0.0
C1486 C 0.46554 0.58407 0.01588 0.0
C1487 C 0.47178 0.58785 0.05081 0.0
N1488 N 0.48131 0.59726 0.04539 0.0
Co1489 Co 0.49399 0.60367 0.08808 0.0
N1490 N 0.48397 0.5945 0.13262 0.0
C1491 C 0.47377 0.58583 0.12764 0.0
C1492 C 0.46884 0.5809 0.16319 0.0
C1493 C 0.47648 0.5867 0.19263 0.0
C1494 C 0.48574 0.59483 0.17338 0.0
N1495 N 0.5072 0.60958 0.12997 0.0
C1496 C 0.50733 0.60802 0.17056 0.0
C1497 C 0.51917 0.61287 0.18717 0.0
C1498 C 0.52663 0.61781 0.15636 0.0
C1499 C 0.51906 0.6156 0.12277 0.0
N1500 N 0.5039 0.61338 0.04422 0.0
C1501 C 0.51559 0.62 0.04839 0.0
C1502 C 0.52005 0.62603 1.01402 0.0
C1503 C 0.51076 0.62287 0.98567 0.0
C1504 C 0.5011 0.61499 1.00443 0.0
N1505 N 0.48266 0.61999 0.09739 0.0
C1506 C 0.46536 0.64242 0.11104 0.0
C1507 C 0.47944 0.64367 0.11269 0.0
C1508 C 0.48787 0.63244 0.10545 0.0
C1509 C 0.46031 0.62961 0.10284 0.0
C1510 C 0.46896 0.61871 0.09657 0.0
N1511 N 0.50451 0.58688 0.07856 0.0
C1512 C 0.51028 0.56978 0.02982 0.0
C1513 C 0.5094 0.55958 0.05878 0.0
C1514 C 0.50783 0.56373 0.0989 0.0
C1515 C 0.50573 0.57737 0.10812 0.0
C1516 C 0.50793 0.5832 0.04026 0.0
H1517 H 0.50428 0.57996 0.13915 0.0
H1518 H 0.50817 0.59036 0.01641 0.0
H1519 H 0.49856 0.63389 0.10643 0.0
H1520 H 0.46435 0.60919 0.09133 0.0
C1521 C 0.46889 0.58293 0.08923 0.0
C1522 C 0.49114 0.6072 0.98187 0.0
C1523 C 0.49681 0.60164 0.19462 0.0
C1524 C 0.52227 0.62022 0.08479 0.0
H1525 H 0.46963 0.59058 0.95435 0.0
H1526 H 0.45761 0.57677 1.01232 0.0
H1527 H 0.46067 0.57389 0.16725 0.0
H1528 H 0.4756 0.58489 0.22455 0.0
H1529 H 0.52224 0.61281 0.21832 0.0
H1530 H 0.53633 0.62264 0.1583 0.0
H1531 H 0.52918 0.63173 1.00981 0.0
H1532 H 0.51153 0.62549 0.95429 0.0
H1533 H 0.48396 0.65332 0.11883 0.0
H1534 H 0.4496 0.62787 0.10191 0.0
H1535 H 0.51235 0.56744 0.99871 0.0
H1536 H 0.5075 0.55649 0.12305 0.0
C1537 C 0.17705 0.73198 0.75314 0.0
C1538 C 0.18543 0.72269 0.73506 0.0
C1539 C 0.19203 0.71616 0.76532 0.0
C1540 C 0.18743 0.72185 0.80018 0.0
N1541 N 0.17802 0.73134 0.79418 0.0
Co1542 Co 0.1711 0.74379 0.83694 0.0
N1543 N 0.18009 0.73381 0.88186 0.0
C1544 C 0.18868 0.72353 0.87728 0.0
C1545 C 0.19345 0.71861 0.91305 0.0
C1546 C 0.18761 0.72634 0.9422 0.0
C1547 C 0.17964 0.73564 0.92257 0.0
N1548 N 0.16474 0.75688 0.87852 0.0
C1549 C 0.16637 0.75719 0.91906 0.0
C1550 C 0.16112 0.76888 0.93544 0.0
C1551 C 0.15576 0.77601 0.90455 0.0
C1552 C 0.15817 0.76844 0.87111 0.0
N1553 N 0.16143 0.75353 0.79278 0.0
C1554 C 0.15372 0.76451 0.79696 0.0
C1555 C 0.14715 0.76825 0.76261 0.0
C1556 C 0.15114 0.75923 0.73433 0.0
C1557 C 0.16015 0.75065 0.75304 0.0
N1558 N 0.15484 0.7322 0.84545 0.0
C1559 C 0.13274 0.71453 0.86186 0.0
C1560 C 0.13131 0.72861 0.86286 0.0
C1561 C 0.14236 0.73718 0.8546 0.0
C1562 C 0.14551 0.70974 0.8514 0.0
C1563 C 0.15622 0.71854 0.8438 0.0
N1564 N 0.18788 0.75454 0.82864 0.0
C1565 C 0.2052 0.76045 0.78061 0.0
C1566 C 0.21534 0.75913 0.80964 0.0
C1567 C 0.21107 0.75737 0.84956 0.0
C1568 C 0.19736 0.75544 0.85842 0.0
C1569 C 0.19168 0.75834 0.79078 0.0
H1570 H 0.1947 0.75388 0.88932 0.0
H1571 H 0.18452 0.75908 0.76715 0.0
H1572 H 0.14074 0.74782 0.8562 0.0
H1573 H 0.16569 0.71405 0.83702 0.0
C1574 C 0.19191 0.71879 0.83897 0.0
C1575 C 0.16926 0.74201 0.73026 0.0
C1576 C 0.17291 0.74684 0.94341 0.0
C1577 C 0.15313 0.77125 0.83324 0.0
H1578 H 0.18701 0.72111 0.70331 0.0
H1579 H 0.19962 0.70849 0.76219 0.0
H1580 H 0.20044 0.71045 0.91742 0.0
H1581 H 0.18935 0.72552 0.97418 0.0
H1582 H 0.16109 0.772 0.96652 0.0
H1583 H 0.15049 0.78547 0.90637 0.0
H1584 H 0.14055 0.77674 0.75836 0.0
H1585 H 0.14847 0.75948 0.70283 0.0
H1586 H 0.12179 0.73308 0.87081 0.0
H1587 H 0.14739 0.6991 0.84876 0.0
H1588 H 0.20765 0.76272 0.74968 0.0
H1589 H 0.21826 0.75675 0.87382 0.0
C1590 C 0.04419 0.42549 0.50483 0.0
C1591 C 0.05396 0.43323 0.4865 0.0
C1592 C 0.05988 0.44066 0.51615 0.0
C1593 C 0.05343 0.43704 0.5509 0.0
N1594 N 0.044 0.42753 0.54547 0.0
Co1595 Co 0.03123 0.42108 0.58798 0.0
N1596 N 0.04074 0.43084 0.6325 0.0
C1597 C 0.05072 0.43977 0.62733 0.0
C1598 C 0.05504 0.44546 0.66253 0.0
C1599 C 0.04718 0.43996 0.69194 0.0
C1600 C 0.03848 0.43115 0.67307 0.0
N1601 N 0.0181 0.41487 0.62982 0.0
C1602 C 0.01794 0.41635 0.67046 0.0
C1603 C 1.00725 0.4095 0.68767 0.0
C1604 C 1.00015 0.40398 0.65702 0.0
C1605 C 1.00696 0.40754 0.62301 0.0
N1606 N 0.02174 0.41098 0.54402 0.0
C1607 C 1.01029 0.40393 0.54814 0.0
C1608 C 1.00603 0.3978 0.51374 0.0
C1609 C 0.0152 0.4013 0.4854 0.0
C1610 C 0.02461 0.40944 0.50423 0.0
N1611 N 0.04295 0.40508 0.59845 0.0
C1612 C 0.06064 0.38308 0.615 0.0
C1613 C 0.04662 0.38135 0.6122 0.0
C1614 C 0.03803 0.39237 0.60398 0.0
C1615 C 0.06542 0.39615 0.60861 0.0
C1616 C 0.05657 0.4068 0.6007 0.0
N1617 N 0.02032 0.43755 0.57731 0.0
C1618 C 0.01533 0.4547 0.52796 0.0
C1619 C 0.01465 0.46477 0.5574 0.0
C1620 C 0.01532 0.46041 0.59763 0.0
C1621 C 0.01798 0.44684 0.60685 0.0
C1622 C 0.01776 0.44133 0.53855 0.0
H1623 H 0.01877 0.44411 0.638 0.0
H1624 H 0.0184 0.43432 0.51452 0.0
H1625 H 0.02743 0.3905 0.60239 0.0
H1626 H 0.06097 0.41649 0.59652 0.0
C1627 C 0.05587 0.44236 0.58905 0.0
C1628 C 0.03461 0.41725 0.48178 0.0
C1629 C 0.02718 0.42462 0.6941 0.0
C1630 C 1.0039 0.40298 0.58489 0.0
H1631 H 0.05625 0.43377 0.45477 0.0
H1632 H 0.06774 0.44804 0.51264 0.0
H1633 H 0.06284 0.45289 0.66631 0.0
H1634 H 0.04749 0.44251 0.72349 0.0
H1635 H 1.00479 0.40857 0.71918 0.0
H1636 H 0.99126 0.39779 0.65932 0.0
H1637 H 0.99719 0.39166 0.5096 0.0
H1638 H 0.01457 0.39858 0.45408 0.0
H1639 H 0.04219 0.37158 0.617 0.0
H1640 H 0.07605 0.39827 0.6092 0.0
H1641 H 0.01471 0.45704 0.49634 0.0
H1642 H 0.01412 0.46742 0.62212 0.0
C1643 C 0.34798 0.29248 0.25789 0.0
C1644 C 0.34145 0.30347 0.24163 0.0
C1645 C 0.33828 0.31175 0.27315 0.0
C1646 C 0.34293 0.30536 0.30696 0.0
N1647 N 0.34889 0.2936 0.29883 0.0
Co1648 Co 0.35532 0.28038 0.33978 0.0
N1649 N 0.34769 0.29062 0.38623 0.0
C1650 C 0.34253 0.30304 0.38407 0.0
C1651 C 0.33874 0.30801 0.42082 0.0
C1652 C 0.34174 0.29812 0.44803 0.0
C1653 C 0.3472 0.28761 0.42635 0.0
N1654 N 0.36129 0.26658 0.37964 0.0
C1655 C 0.35818 0.26487 0.41912 0.0
C1656 C 0.36402 0.25329 0.43434 0.0
C1657 C 0.3715 0.24789 0.40416 0.0
C1658 C 0.36965 0.25628 0.37209 0.0
N1659 N 0.36402 0.2706 0.29422 0.0
C1660 C 0.37327 0.26086 0.29772 0.0
C1661 C 0.37879 0.257 0.26184 0.0
C1662 C 0.37263 0.26476 0.23358 0.0
C1663 C 0.3636 0.27285 0.25399 0.0
N1664 N 0.37234 0.2908 0.34739 0.0
C1665 C 0.39402 0.30912 0.36118 0.0
C1666 C 0.38874 0.30102 0.39204 0.0
C1667 C 0.37805 0.29209 0.38467 0.0
C1668 C 0.38845 0.3072 0.32267 0.0
C1669 C 0.37783 0.29804 0.31644 0.0
N1670 N 0.33769 0.27069 0.33211 0.0
C1671 C 0.32084 0.26279 0.28472 0.0
C1672 C 0.31035 0.26571 0.31138 0.0
C1673 C 0.31404 0.26965 0.3502 0.0
C1674 C 0.32758 0.27184 0.35999 0.0
C1675 C 0.3343 0.26496 0.29603 0.0
H1676 H 0.32947 0.27484 0.39019 0.0
H1677 H 0.34177 0.26213 0.27481 0.0
H1678 H 0.37424 0.28651 0.40981 0.0
H1679 H 0.37383 0.29717 0.28649 0.0
C1680 C 0.34058 0.30923 0.34676 0.0
C1681 C 0.35381 0.28145 0.23378 0.0
C1682 C 0.35121 0.27469 0.44453 0.0
C1683 C 0.3753 0.25452 0.33432 0.0
H1684 H 0.33916 0.30532 0.2104 0.0
H1685 H 0.3328 0.32109 0.27167 0.0
H1686 H 0.33409 0.31758 0.42704 0.0
H1687 H 0.33993 0.29849 0.48005 0.0
H1688 H 0.36333 0.24932 0.4645 0.0
H1689 H 0.37759 0.23893 0.40547 0.0
H1690 H 0.38606 0.24913 0.25668 0.0
H1691 H 0.37425 0.26425 0.20148 0.0
H1692 H 0.39274 0.30155 0.42218 0.0
H1693 H 0.39192 0.31304 0.29735 0.0
H1694 H 0.31871 0.25889 0.25505 0.0
H1695 H 0.3065 0.27164 0.37279 0.0
H1696 H 0.98308 0.10586 0.76385 0.0
H1697 H 0.0197 0.08769 0.72226 0.0
H1698 H 0.99122 0.10432 0.83348 0.0
H1699 H 0.02807 0.08667 0.79143 0.0
H1700 H 0.04255 0.10864 0.91326 0.0
H1701 H 0.03473 0.10545 0.844 0.0
H1702 H 0.99871 0.08669 0.88816 0.0
H1703 H 1.00684 0.08927 0.95716 0.0
C1704 C 0.99273 0.10128 0.76962 0.0
C1705 C 1.0007 0.09689 0.73734 0.0
C1706 C 0.99746 0.10047 0.80952 0.0
C1707 C 1.01041 0.09551 0.8182 0.0
C1708 C 0.01814 0.09068 0.786 0.0
C1709 C 0.01328 0.09117 0.74634 0.0
C1710 C 0.0333 0.10324 0.9082 0.0
C1711 C 0.02553 0.09888 0.94101 0.0
C1712 C 0.02868 0.10159 0.8684 0.0
C1713 C 0.016 0.09591 0.86031 0.0
C1714 C 1.00845 0.09119 0.89308 0.0
C1715 C 0.0132 0.09254 0.93267 0.0
H1716 H 0.15283 0.74617 0.99917 0.0
H1717 H 0.19514 0.75381 0.98795 0.0
H1718 H 0.15319 0.75493 0.06784 0.0
H1719 H 0.19564 0.7624 0.05718 0.0
H1720 H 0.1904 0.76437 0.19995 0.0
H1721 H 0.19224 0.75606 0.13075 0.0
H1722 H 0.15623 0.7776 0.09938 0.0
H1723 H 0.15459 0.78601 0.16842 0.0
C1724 C 0.1623 0.74937 1.01186 0.0
C1725 C 0.17398 0.74913 0.98816 0.0
C1726 C 0.16249 0.75461 0.05106 0.0
C1727 C 0.17441 0.75963 0.06814 0.0
C1728 C 0.18627 0.75867 0.0452 0.0
C1729 C 0.18603 0.75361 1.00562 0.0
C1730 C 0.1832 0.76775 0.17779 0.0
C1731 C 0.17256 0.77616 0.18946 0.0
C1732 C 0.18416 0.76287 0.13817 0.0
C1733 C 0.1743 0.76598 0.10931 0.0
C1734 C 0.16394 0.77482 0.12074 0.0
C1735 C 0.16311 0.77987 0.16015 0.0
H1736 H 0.52822 0.90196 0.25327 0.0
H1737 H 0.52073 0.94419 0.23966 0.0
H1738 H 0.51938 0.90276 0.32185 0.0
H1739 H 0.51206 0.94512 0.30877 0.0
H1740 H 0.50983 0.94089 0.45168 0.0
H1741 H 0.51815 0.94227 0.38239 0.0
H1742 H 0.49684 0.90594 0.35351 0.0
H1743 H 0.48842 0.90475 0.42264 0.0
C1744 C 0.52503 0.91151 0.26541 0.0
C1745 C 0.52536 0.92304 0.24105 0.0
C1746 C 0.51974 0.91195 0.30456 0.0
C1747 C 0.51475 0.92397 0.32097 0.0
C1748 C 0.51577 0.93568 0.29736 0.0
C1749 C 0.52088 0.93519 0.25783 0.0
C1750 C 0.50649 0.93352 0.43002 0.0
C1751 C 0.49814 0.92292 0.44246 0.0
C1752 C 0.51139 0.93422 0.39034 0.0
C1753 C 0.50836 0.92413 0.36215 0.0
C1754 C 0.49956 0.91381 0.37431 0.0
C1755 C 0.49449 0.91325 0.41378 0.0
H1756 H 0.37144 0.27434 0.49994 0.0
H1757 H 0.32885 0.26831 0.48933 0.0
H1758 H 0.37082 0.26588 0.56897 0.0
H1759 H 0.32809 0.26003 0.55901 0.0
H1760 H 0.3335 0.25911 0.70208 0.0
H1761 H 0.33188 0.26687 0.63219 0.0
H1762 H 0.3669 0.24359 0.60221 0.0
H1763 H 0.36831 0.23573 0.67191 0.0
C1764 C 0.36188 0.27146 0.51274 0.0
C1765 C 0.35019 0.27203 0.48911 0.0
C1766 C 0.36153 0.26643 0.55219 0.0
C1767 C 0.34944 0.26201 0.56966 0.0
C1768 C 0.3376 0.26328 0.54671 0.0
C1769 C 0.338 0.26812 0.50684 0.0
C1770 C 0.34052 0.25526 0.68012 0.0
C1771 C 0.35082 0.24652 0.69236 0.0
C1772 C 0.33968 0.25981 0.64009 0.0
C1773 C 0.34934 0.25602 0.61135 0.0
C1774 C 0.35935 0.24687 0.62342 0.0
C1775 C 0.36005 0.24215 0.66324 0.0
H1776 H 1.00341 0.94443 0.79212 0.0
H1777 H 0.99607 0.90213 0.77989 0.0
H1778 H 1.01211 0.94517 0.72302 0.0
H1779 H 1.00497 0.90274 0.71137 0.0
H1780 H 0.03621 0.90459 0.61128 0.0
H1781 H 0.02779 0.9061 0.68034 0.0
H1782 H 1.0058 0.94183 0.6491 0.0
H1783 H 0.01411 0.9401 0.57985 0.0
C1784 C 1.00329 0.93537 0.77426 0.0
C1785 C 0.99885 0.92326 0.79141 0.0
C1786 C 1.00842 0.93575 0.73475 0.0
C1787 C 1.00951 0.92397 0.71157 0.0
C1788 C 1.00455 0.91198 0.72834 0.0
C1789 C 0.99923 0.91165 0.76745 0.0
C1790 C 0.03 0.91304 0.61959 0.0
C1791 C 0.02613 0.92242 0.59026 0.0
C1792 C 0.02493 0.91378 0.65902 0.0
C1793 C 0.01593 0.92401 0.67047 0.0
C1794 C 0.01272 0.93385 0.64165 0.0
C1795 C 0.01761 0.93296 0.602 0.0
H1796 H 0.34029 0.75642 0.82556 0.0
H1797 H 0.35912 0.79255 0.86818 0.0
H1798 H 0.3378 0.74853 0.89484 0.0
H1799 H 0.35605 0.78495 0.93772 0.0
H1800 H 0.33869 0.77009 0.06022 0.0
H1801 H 0.33759 0.77827 0.99083 0.0
H1802 H 0.35534 0.74139 0.94959 0.0
H1803 H 0.35695 0.73345 0.01939 0.0
C1804 C 0.34345 0.76292 0.84982 0.0
C1805 C 0.34963 0.7753 0.84104 0.0
C1806 C 0.34217 0.75831 0.88958 0.0
C1807 C 0.34677 0.76603 0.9221 0.0
C1808 C 0.35228 0.77875 0.91354 0.0
C1809 C 0.35386 0.78324 0.87358 0.0
C1810 C 0.3422 0.76364 0.03627 0.0
C1811 C 0.34797 0.7511 0.04555 0.0
C1812 C 0.34165 0.76838 0.99648 0.0
C1813 C 0.34648 0.76058 0.96441 0.0
C1814 C 0.3515 0.74769 0.97341 0.0
C1815 C 0.35235 0.74308 1.01343 0.0
H1816 H 0.51063 0.08178 0.07794 0.0
H1817 H 0.48774 0.11704 0.10654 0.0
H1818 H 0.51813 0.08021 0.14811 0.0
H1819 H 0.49535 0.11568 0.1765 0.0
H1820 H 0.52548 0.11977 0.2808 0.0
H1821 H 0.51729 0.11927 0.21145 0.0
H1822 H 0.51111 0.07662 0.22097 0.0
H1823 H 0.51911 0.07727 0.29094 0.0
C1824 C 0.50683 0.08893 0.09958 0.0
C1825 C 0.49829 0.09933 0.08677 0.0
C1826 C 0.51123 0.08812 0.13982 0.0
C1827 C 0.50751 0.0979 0.16829 0.0
C1828 C 0.49859 0.10804 0.1556 0.0
C1829 C 0.49401 0.1087 0.11558 0.0
C1830 C 0.52259 0.11025 0.26784 0.0
C1831 C 0.52304 0.09855 0.29146 0.0
C1832 C 0.51771 0.10997 0.22817 0.0
C1833 C 0.5133 0.09793 0.21037 0.0
C1834 C 0.51438 0.08609 0.23341 0.0
C1835 C 0.51906 0.08642 0.2735 0.0
H1836 H 0.19627 0.2692 0.54181 0.0
H1837 H 0.15378 0.27593 0.53143 0.0
H1838 H 0.19683 0.26085 0.47226 0.0
H1839 H 0.15421 0.26743 0.46247 0.0
H1840 H 0.156 0.23692 0.36062 0.0
H1841 H 0.15762 0.24503 0.42997 0.0
H1842 H 0.19319 0.26735 0.39899 0.0
H1843 H 0.19137 0.25933 0.32947 0.0
C1844 C 0.18712 0.26923 0.52428 0.0
C1845 C 0.17501 0.27337 0.54203 0.0
C1846 C 0.1874 0.26432 0.48452 0.0
C1847 C 0.17552 0.26319 0.4617 0.0
C1848 C 0.16352 0.26787 0.47913 0.0
C1849 C 0.16329 0.27296 0.5185 0.0
C1850 C 0.16443 0.24317 0.36902 0.0
C1851 C 0.17375 0.24719 0.33973 0.0
C1852 C 0.16524 0.24805 0.40863 0.0
C1853 C 0.17546 0.25702 0.42029 0.0
C1854 C 0.18521 0.26044 0.39141 0.0
C1855 C 0.18426 0.25573 0.3516 0.0
H1856 H 0.02614 0.90307 0.28243 0.0
H1857 H 1.01011 0.94277 0.29767 0.0
H1858 H 0.01761 0.90252 0.21341 0.0
H1859 H 1.00165 0.94238 0.22832 0.0
H1860 H 0.99998 0.93933 0.08614 0.0
H1861 H 1.00818 0.9416 0.15529 0.0
H1862 H 0.99519 0.90125 0.18067 0.0
H1863 H 0.98689 0.89912 0.11167 0.0
C1864 C 0.02113 0.91185 0.27053 0.0
C1865 C 0.01907 0.92308 0.29525 0.0
C1866 C 0.01602 0.91147 0.23115 0.0
C1867 C 1.00876 0.92235 0.21509 0.0
C1868 C 1.00721 0.93383 0.23937 0.0
C1869 C 1.01216 0.93412 0.27905 0.0
C1870 C 0.99858 0.93107 0.10679 0.0
C1871 C 0.99278 0.91903 0.09327 0.0
C1872 C 1.00336 0.93234 0.14647 0.0
C1873 C 1.00262 0.92152 0.17368 0.0
C1874 C 0.99621 0.90971 0.16055 0.0
C1875 C 0.99127 0.90853 0.12111 0.0
H1876 H 0.83794 0.25055 0.05849 0.0
H1877 H 0.86164 0.28457 0.02245 0.0
H1878 H 0.83751 0.2426 0.98871 0.0
H1879 H 0.86079 0.27695 0.95259 0.0
H1880 H 0.84659 0.26531 0.82591 0.0
H1881 H 0.84439 0.27298 0.89507 0.0
H1882 H 0.85487 0.23353 0.93747 0.0
H1883 H 0.85749 0.2259 0.86764 0.0
C1884 C 0.84273 0.25654 0.03547 0.0
C1885 C 0.84954 0.26839 0.04615 0.0
C1886 C 0.84262 0.2519 0.99551 0.0
C1887 C 0.84911 0.25909 0.96475 0.0
C1888 C 0.85553 0.27119 0.97524 0.0
C1889 C 0.8559 0.27567 0.01534 0.0
C1890 C 0.84826 0.25816 0.84983 0.0
C1891 C 0.85213 0.2449 0.84081 0.0
C1892 C 0.84709 0.26262 0.88967 0.0
C1893 C 0.84951 0.25394 0.92215 0.0
C1894 C 0.85283 0.24051 0.91332 0.0
C1895 C 0.85426 0.23609 0.87323 0.0
H1896 H 0.48971 0.10747 0.7666 0.0
H1897 H 0.52425 0.08518 0.80623 0.0
H1898 H 0.49737 0.1055 0.69685 0.0
H1899 H 0.53235 0.08394 0.73663 0.0
H1900 H 0.54698 0.10657 0.61233 0.0
H1901 H 0.53981 0.1039 0.68252 0.0
H1902 H 0.5031 0.08545 0.64271 0.0
H1903 H 0.51059 0.08739 0.57285 0.0
C1904 C 0.49872 0.1018 0.76045 0.0
C1905 C 0.50613 0.09616 0.7923 0.0
C1906 C 0.50324 0.10083 0.72038 0.0
C1907 C 0.51553 0.0946 0.71094 0.0
C1908 C 0.52287 0.08884 0.74265 0.0
C1909 C 0.51816 0.08945 0.78255 0.0
C1910 C 0.5377 0.10133 0.61853 0.0
C1911 C 0.52956 0.09688 0.58663 0.0
C1912 C 0.53347 0.09999 0.65887 0.0
C1913 C 0.5208 0.09455 0.66843 0.0
C1914 C 0.51287 0.08974 0.63662 0.0
C1915 C 0.51725 0.09073 0.59654 0.0
H1916 H 0.69352 0.76415 0.54935 0.0
H1917 H 0.65403 0.74764 0.53311 0.0
H1918 H 0.69324 0.77254 0.47989 0.0
H1919 H 0.65357 0.75612 0.46401 0.0
H1920 H 0.65009 0.78701 0.36259 0.0
H1921 H 0.65219 0.77869 0.4316 0.0
H1922 H 0.69261 0.7658 0.40658 0.0
H1923 H 0.69037 0.77399 0.33735 0.0
C1924 C 0.68494 0.76198 0.5305 0.0
C1925 C 0.67392 0.75497 0.54645 0.0
C1926 C 0.68471 0.76689 0.49076 0.0
C1927 C 0.67331 0.76519 0.46619 0.0
C1928 C 0.66246 0.75781 0.482 0.0
C1929 C 0.66279 0.75274 0.52142 0.0
C1930 C 0.65951 0.78264 0.37211 0.0
C1931 C 0.67004 0.78116 0.34436 0.0
C1932 C 0.66067 0.77769 0.41154 0.0
C1933 C 0.6725 0.77131 0.42477 0.0
C1934 C 0.68334 0.7706 0.39766 0.0
C1935 C 0.68209 0.77537 0.35796 0.0
H1936 H 1.00195 0.08335 0.44386 0.0
H1937 H 0.98775 0.12316 0.41818 0.0
H1938 H 1.01011 0.08125 0.37454 0.0
H1939 H 0.99604 0.12122 0.34913 0.0
H1940 H 0.02692 0.12011 0.24701 0.0
H1941 H 0.01853 0.12044 0.31619 0.0
H1942 H 1.00328 0.08031 0.30127 0.0
H1943 H 1.01157 0.08015 0.23169 0.0
C1944 C 1.00032 0.09155 0.42314 0.0
C1945 C 0.99419 0.10343 0.43664 0.0
C1946 C 1.00507 0.09038 0.38338 0.0
C1947 C 1.00399 0.10115 0.3561 0.0
C1948 C 0.99732 0.1128 0.36928 0.0
C1949 C 0.99239 0.11387 0.40877 0.0
C1950 C 0.02208 0.11124 0.2589 0.0
C1951 C 0.02015 0.10001 0.23407 0.0
C1952 C 0.01706 0.11149 0.29839 0.0
C1953 C 1.01005 0.10046 0.31453 0.0
C1954 C 1.00864 0.08898 0.29016 0.0
C1955 C 0.01349 0.08882 0.25033 0.0
H1956 H 0.6503 0.23731 0.17021 0.0
H1957 H 0.69071 0.25001 0.19513 0.0
H1958 H 0.65242 0.24555 0.10113 0.0
H1959 H 0.69297 0.25814 0.12586 0.0
H1960 H 0.69391 0.25988 0.98329 0.0
H1961 H 0.69355 0.25148 0.05273 0.0
H1962 H 0.65391 0.26796 0.06829 0.0
H1963 H 0.65443 0.27644 0.9992 0.0
C1964 C 0.65975 0.2416 0.16061 0.0
C1965 C 0.67031 0.24301 0.1883 0.0
C1966 C 0.66093 0.2465 0.12113 0.0
C1967 C 0.6728 0.25277 0.10778 0.0
C1968 C 0.68366 0.25342 0.13484 0.0
C1969 C 0.6824 0.24869 0.17458 0.0
C1970 C 0.68531 0.26205 1.00205 0.0
C1971 C 0.67432 0.26908 0.98601 0.0
C1972 C 0.68504 0.25714 0.0418 0.0
C1973 C 0.67363 0.25886 0.0663 0.0
C1974 C 0.6628 0.26625 0.05038 0.0
C1975 C 0.66317 0.27131 1.01095 0.0
H1976 H 0.51234 0.94441 0.73697 0.0
H1977 H 0.49618 0.90468 0.75021 0.0
H1978 H 0.52082 0.94357 0.80625 0.0
H1979 H 0.50474 0.90367 0.81915 0.0
H1980 H 0.53609 0.89945 0.91923 0.0
H1981 H 0.52736 0.9021 0.85087 0.0
H1982 H 0.51454 0.94224 0.87957 0.0
H1983 H 0.52316 0.93944 0.94813 0.0
C1984 C 0.51022 0.93567 0.75518 0.0
C1985 C 0.50329 0.92474 0.73839 0.0
C1986 C 0.51519 0.93512 0.79482 0.0
C1987 C 0.51366 0.92348 0.81846 0.0
C1988 C 0.50632 0.91274 0.8019 0.0
C1989 C 0.50118 0.91338 0.76258 0.0
C1990 C 0.53162 0.90892 0.91069 0.0
C1991 C 0.53027 0.91919 0.93931 0.0
C1992 C 0.52644 0.9104 0.87161 0.0
C1993 C 0.51996 0.92231 0.85959 0.0
C1994 C 0.51938 0.9329 0.88755 0.0
C1995 C 0.52439 0.93133 0.92689 0.0
H1996 H 0.87492 0.78656 0.66821 0.0
H1997 H 0.83452 0.77403 0.69403 0.0
H1998 H 0.87266 0.77818 0.59937 0.0
H1999 H 0.83211 0.76578 0.62496 0.0
H2000 H 0.83111 0.76421 0.48206 0.0
H2001 H 0.83152 0.77254 0.55154 0.0
H2002 H 0.87094 0.75555 0.56735 0.0
H2003 H 0.87036 0.74713 0.49823 0.0
C2004 C 0.86544 0.78229 0.65886 0.0
C2005 C 0.85492 0.78096 0.68671 0.0
C2006 C 0.86418 0.7773 0.61952 0.0
C2007 C 0.85227 0.77104 0.60651 0.0
C2008 C 0.84145 0.77048 0.63372 0.0
C2009 C 0.84279 0.77529 0.67332 0.0
C2010 C 0.83965 0.76188 0.50092 0.0
C2011 C 0.85057 0.75474 0.48493 0.0
C2012 C 0.83995 0.76676 0.54066 0.0
C2013 C 0.85134 0.7649 0.56518 0.0
C2014 C 0.86208 0.75737 0.54938 0.0
C2015 C 0.86167 0.75233 0.50996 0.0
H2016 H 0.50333 0.5793 0.23934 0.0
H2017 H 0.49643 0.62171 0.25038 0.0
H2018 H 0.51185 0.57865 0.30867 0.0
H2019 H 0.50516 0.62119 0.31911 0.0
H2020 H 0.53637 0.61922 0.41946 0.0
H2021 H 0.52794 0.61763 0.35041 0.0
H2022 H 0.50541 0.58233 0.38249 0.0
H2023 H 0.51372 0.58414 0.45175 0.0
C2024 C 0.50327 0.58841 0.25698 0.0
C2025 C 0.49901 0.60052 0.23943 0.0
C2026 C 0.50829 0.58808 0.29662 0.0
C2027 C 0.50946 0.59992 0.31952 0.0
C2028 C 0.50467 0.61191 0.30236 0.0
C2029 C 0.49945 0.61219 0.26312 0.0
C2030 C 0.53001 0.61085 0.41135 0.0
C2031 C 0.52601 0.60161 0.44089 0.0
C2032 C 0.52495 0.61007 0.37193 0.0
C2033 C 0.51582 0.59993 0.3607 0.0
C2034 C 0.51243 0.59024 0.38978 0.0
C2035 C 0.51731 0.59117 0.42942 0.0
H2036 H 0.69616 0.25294 0.4899 0.0
H2037 H 0.65367 0.24632 0.50115 0.0
H2038 H 0.69687 0.26151 0.55914 0.0
H2039 H 0.65425 0.2551 0.56978 0.0
H2040 H 0.65642 0.28633 0.66979 0.0
H2041 H 0.65797 0.27788 0.60079 0.0
H2042 H 0.69314 0.25514 0.63306 0.0
H2043 H 0.69136 0.26347 0.70227 0.0
C2044 C 0.68704 0.25295 0.50757 0.0
C2045 C 0.67488 0.24874 0.49011 0.0
C2046 C 0.68741 0.25801 0.54715 0.0
C2047 C 0.67557 0.25926 0.57007 0.0
C2048 C 0.66353 0.25454 0.553 0.0
C2049 C 0.66322 0.24928 0.51383 0.0
C2050 C 0.66476 0.27993 0.66174 0.0
C2051 C 0.67396 0.27586 0.69133 0.0
C2052 C 0.66552 0.27485 0.62234 0.0
C2053 C 0.6756 0.26565 0.61119 0.0
C2054 C 0.68528 0.26222 0.64029 0.0
C2055 C 0.68436 0.26711 0.67991 0.0
H2056 H 0.04122 0.41884 0.76359 0.0
H2057 H 1.00455 0.43704 0.72246 0.0
H2058 H 0.0333 0.42057 0.83336 0.0
H2059 H 0.99639 0.43828 0.79183 0.0
H2060 H 0.98212 0.41706 0.91493 0.0
H2061 H 0.98968 0.42001 0.84531 0.0
H2062 H 0.02625 0.43815 0.88776 0.0
H2063 H 0.0184 0.43577 0.95711 0.0
C2064 C 0.03159 0.42344 0.76948 0.0
C2065 C 0.02355 0.42779 0.73729 0.0
C2066 C 0.02699 0.42437 0.80948 0.0
C2067 C 0.0141 0.42942 0.81839 0.0
C2068 C 1.00628 0.43419 0.78625 0.0
C2069 C 1.01101 0.43357 0.74647 0.0
C2070 C 0.99145 0.42227 0.9094 0.0
C2071 C 0.99946 0.4265 0.94184 0.0
C2072 C 0.99592 0.42378 0.8694 0.0
C2073 C 1.00867 0.42922 0.86071 0.0
C2074 C 0.01645 0.43383 0.89312 0.0
C2075 C 1.01186 0.43261 0.93292 0.0
H2076 H 0.83487 0.76137 0.20092 0.0
H2077 H 0.8703 0.73922 0.16899 0.0
H2078 H 0.83304 0.76972 0.13172 0.0
H2079 H 0.86869 0.74767 0.09995 0.0
H2080 H 0.87241 0.77895 0.99948 0.0
H2081 H 0.872 0.77029 0.0683 0.0
H2082 H 0.82944 0.7634 0.0582 0.0
H2083 H 0.82997 0.77188 0.98883 0.0
C2084 C 0.84199 0.7579 0.17868 0.0
C2085 C 0.85252 0.74933 0.19023 0.0
C2086 C 0.84103 0.7628 0.13906 0.0
C2087 C 0.85081 0.75955 0.11008 0.0
C2088 C 0.86106 0.75055 0.1214 0.0
C2089 C 0.86186 0.74548 0.16081 0.0
C2090 C 0.8629 0.77592 1.01234 0.0
C2091 C 0.8512 0.7763 0.98875 0.0
C2092 C 0.86269 0.77073 0.05161 0.0
C2093 C 0.85072 0.7659 0.06889 0.0
C2094 C 0.83885 0.76699 0.04607 0.0
C2095 C 0.83911 0.772 1.00641 0.0
H2096 H 0.51503 0.44129 0.07657 0.0
H2097 H 0.53853 0.40681 0.10926 0.0
H2098 H 0.50706 0.44328 0.14612 0.0
H2099 H 0.53047 0.40859 0.17865 0.0
H2100 H 0.49962 0.4044 0.28036 0.0
H2101 H 0.50809 0.40472 0.21135 0.0
H2102 H 0.51366 0.44749 0.21928 0.0
H2103 H 0.50535 0.44704 0.28892 0.0
C2104 C 0.51887 0.43443 0.09901 0.0
C2105 C 0.5277 0.42411 0.08759 0.0
C2106 C 0.5142 0.43548 0.13885 0.0
C2107 C 0.51795 0.426 0.16818 0.0
C2108 C 0.52721 0.41599 0.15694 0.0
C2109 C 0.53204 0.41509 0.11731 0.0
C2110 C 0.50238 0.41391 0.26704 0.0
C2111 C 0.5017 0.4257 0.29007 0.0
C2112 C 0.50744 0.41408 0.22764 0.0
C2113 C 0.51182 0.4261 0.20966 0.0
C2114 C 0.51043 0.43804 0.23198 0.0
C2115 C 0.50555 0.43782 0.27179 0.0
H2116 H 0.85818 0.29255 0.36557 0.0
H2117 H 0.84082 0.2559 0.32129 0.0
H2118 H 0.85508 0.28464 0.43477 0.0
H2119 H 0.83827 0.24774 0.39025 0.0
H2120 H 0.85688 0.23276 0.51508 0.0
H2121 H 0.85533 0.24086 0.44545 0.0
H2122 H 0.83702 0.2774 0.48718 0.0
H2123 H 0.83812 0.26908 0.55639 0.0
C2124 C 0.85322 0.28304 0.37052 0.0
C2125 C 0.84941 0.27505 0.33763 0.0
C2126 C 0.85162 0.27838 0.4103 0.0
C2127 C 0.84651 0.26546 0.41833 0.0
C2128 C 0.84233 0.25767 0.38543 0.0
C2129 C 0.84365 0.26243 0.34584 0.0
C2130 C 0.85217 0.24234 0.50925 0.0
C2131 C 0.84761 0.25023 0.54145 0.0
C2132 C 0.85135 0.24705 0.46932 0.0
C2133 C 0.84619 0.2599 0.46051 0.0
C2134 C 0.8412 0.26756 0.49266 0.0
C2135 C 0.84173 0.26273 0.53236 0.0
H2136 H 0.02136 0.58093 0.79269 0.0
H2137 H 0.02985 0.62305 0.7819 0.0
H2138 H 0.01284 0.58066 0.72337 0.0
H2139 H 0.0212 0.62293 0.71307 0.0
H2140 H 0.99023 0.6223 0.61194 0.0
H2141 H 0.99867 0.62053 0.68094 0.0
H2142 H 0.01905 0.58384 0.65014 0.0
H2143 H 1.01069 0.58579 0.581 0.0
C2144 C 0.02179 0.59004 0.77508 0.0
C2145 C 0.02649 0.60197 0.79269 0.0
C2146 C 0.01676 0.58994 0.73543 0.0
C2147 C 0.01607 0.60183 0.71255 0.0
C2148 C 0.02131 0.61362 0.72978 0.0
C2149 C 0.0265 0.61366 0.76906 0.0
C2150 C 0.99611 0.61362 0.62033 0.0
C2151 C 0.99948 0.604 0.5912 0.0
C2152 C 1.00119 0.61271 0.65973 0.0
C2153 C 1.00972 0.60211 0.67133 0.0
C2154 C 0.01249 0.59211 0.64262 0.0
C2155 C 1.00758 0.59314 0.60303 0.0
H2156 H 0.6954 0.77144 0.04288 0.0
H2157 H 0.65301 0.77857 0.03101 0.0
H2158 H 0.69611 0.76286 0.97365 0.0
H2159 H 0.65359 0.76977 0.96238 0.0
H2160 H 0.65557 0.73841 0.86259 0.0
H2161 H 0.65712 0.7469 0.93154 0.0
H2162 H 0.69255 0.76927 0.89959 0.0
H2163 H 0.69078 0.7609 0.83041 0.0
C2164 C 0.68631 0.77154 0.02507 0.0
C2165 C 0.67418 0.77588 0.04236 0.0
C2166 C 0.68668 0.76648 0.98549 0.0
C2167 C 0.67486 0.76535 0.9624 0.0
C2168 C 0.66286 0.77022 0.97929 0.0
C2169 C 0.66254 0.77549 0.01846 0.0
C2170 C 0.66396 0.74474 0.87071 0.0
C2171 C 0.67325 0.74869 0.84121 0.0
C2172 C 0.66472 0.74984 0.91007 0.0
C2173 C 0.67488 0.75895 0.9213 0.0
C2174 C 0.68462 0.76227 0.8923 0.0
C2175 C 0.68371 0.75735 0.8527 0.0
H2176 H 0.51253 0.44474 0.79634 0.0
H2177 H 0.52693 0.40448 0.77983 0.0
H2178 H 0.50419 0.44498 0.72677 0.0
H2179 H 0.51848 0.40455 0.71071 0.0
H2180 H 0.48779 0.40267 0.60897 0.0
H2181 H 0.49579 0.40446 0.67836 0.0
H2182 H 0.51122 0.44395 0.65311 0.0
H2183 H 0.50333 0.44199 0.5834 0.0
C2184 C 0.51422 0.43607 0.77746 0.0
C2185 C 0.52061 0.42468 0.79336 0.0
C2186 C 0.50935 0.43616 0.73765 0.0
C2187 C 0.51047 0.42472 0.71299 0.0
C2188 C 0.51723 0.41348 0.72877 0.0
C2189 C 0.52227 0.41349 0.76822 0.0
C2190 C 0.49259 0.41187 0.61856 0.0
C2191 C 0.49485 0.42221 0.59068 0.0
C2192 C 0.49737 0.41283 0.65821 0.0
C2193 C 0.50439 0.42427 0.67146 0.0
C2194 C 0.50589 0.43498 0.64417 0.0
C2195 C 0.50128 0.43392 0.60424 0.0
H2196 H 0.33574 0.74987 0.33865 0.0
H2197 H 0.37601 0.73684 0.36405 0.0
H2198 H 0.33346 0.75799 0.40785 0.0
H2199 H 0.37387 0.74508 0.43308 0.0
H2200 H 0.37192 0.77597 0.5351 0.0
H2201 H 0.37254 0.76743 0.46611 0.0
H2202 H 0.33266 0.7514 0.48091 0.0
H2203 H 0.33222 0.75986 0.55026 0.0
C2204 C 0.34402 0.7485 0.35924 0.0
C2205 C 0.35609 0.74274 0.34562 0.0
C2206 C 0.34274 0.75322 0.39898 0.0
C2207 C 0.35356 0.75248 0.42619 0.0
C2208 C 0.3654 0.74612 0.41297 0.0
C2209 C 0.36659 0.74122 0.37348 0.0
C2210 C 0.36317 0.77091 0.52322 0.0
C2211 C 0.35192 0.76883 0.54793 0.0
C2212 C 0.36358 0.76581 0.48384 0.0
C2213 C 0.35271 0.75855 0.46771 0.0
C2214 C 0.34122 0.75696 0.49199 0.0
C2215 C 0.3409 0.7619 0.5317 0.0
H2216 H 0.02322 0.58489 0.08677 0.0
H2217 H 0.03648 0.62489 0.11422 0.0
H2218 H 0.0146 0.58243 0.15544 0.0
H2219 H 0.02774 0.62258 0.18267 0.0
H2220 H 0.99654 0.62069 0.2833 0.0
H2221 H 1.00505 0.62129 0.21426 0.0
H2222 H 0.02093 0.58139 0.22895 0.0
H2223 H 0.01252 0.58096 0.29834 0.0
C2224 C 0.02455 0.59306 0.10774 0.0
C2225 C 0.03055 0.6051 0.09489 0.0
C2226 C 0.01953 0.59169 0.14713 0.0
C2227 C 0.02019 0.60239 0.1747 0.0
C2228 C 0.02676 0.6142 0.16224 0.0
C2229 C 0.03196 0.61548 0.12312 0.0
C2230 C 1.00148 0.61189 0.2713 0.0
C2231 C 1.00356 0.60066 0.29604 0.0
C2232 C 1.00658 0.6123 0.23192 0.0
C2233 C 0.01387 0.60145 0.21585 0.0
C2234 C 0.01536 0.58993 0.24001 0.0
C2235 C 1.01041 0.58961 0.27971 0.0
H2236 H 0.15101 0.28536 0.86181 0.0
H2237 H 0.19123 0.27246 0.83539 0.0
H2238 H 0.15338 0.27716 0.93083 0.0
H2239 H 0.19376 0.26436 0.90471 0.0
H2240 H 0.19483 0.26274 0.04783 0.0
H2241 H 0.19447 0.27113 0.97835 0.0
H2242 H 0.1549 0.25448 0.96265 0.0
H2243 H 0.15543 0.246 0.03173 0.0
C2244 C 0.16049 0.28107 0.87112 0.0
C2245 C 0.17092 0.27958 0.84306 0.0
C2246 C 0.1618 0.27618 0.91055 0.0
C2247 C 0.17368 0.26983 0.92343 0.0
C2248 C 0.18445 0.26914 0.89603 0.0
C2249 C 0.18305 0.27386 0.85631 0.0
C2250 C 0.18627 0.26051 0.029 0.0
C2251 C 0.17529 0.25344 0.04499 0.0
C2252 C 0.18599 0.26542 0.98926 0.0
C2253 C 0.17458 0.26367 0.96477 0.0
C2254 C 0.16379 0.25621 0.98059 0.0
C2255 C 0.16416 0.25114 0.02 0.0
H2256 H 0.51051 0.58119 0.73291 0.0
H2257 H 0.52701 0.62068 0.74861 0.0
H2258 H 0.50217 0.58154 0.80241 0.0
H2259 H 0.51858 0.6212 0.81774 0.0
H2260 H 0.48769 0.62474 0.91914 0.0
H2261 H 0.496 0.62259 0.85016 0.0
H2262 H 0.50899 0.58225 0.87569 0.0
H2263 H 0.50082 0.58456 0.94489 0.0
C2264 C 0.51268 0.58979 0.75165 0.0
C2265 C 0.51968 0.60079 0.73554 0.0
C2266 C 0.50781 0.59005 0.79141 0.0
C2267 C 0.50952 0.60147 0.81583 0.0
C2268 C 0.51688 0.6123 0.79987 0.0
C2269 C 0.52192 0.61194 0.76043 0.0
C2270 C 0.4921 0.61533 0.90976 0.0
C2271 C 0.49361 0.60485 0.93763 0.0
C2272 C 0.49703 0.61414 0.87033 0.0
C2273 C 0.50342 0.60232 0.85725 0.0
C2274 C 0.50418 0.59152 0.8845 0.0
C2275 C 0.49943 0.59281 0.92419 0.0
H2276 H 0.18919 0.75369 0.47202 0.0
H2277 H 0.1623 0.78548 0.50604 0.0
H2278 H 0.18958 0.74566 0.54175 0.0
H2279 H 0.16318 0.77787 0.576 0.0
H2280 H 0.17783 0.7666 0.70367 0.0
H2281 H 0.18029 0.77468 0.63501 0.0
H2282 H 0.171 0.73526 0.59031 0.0
H2283 H 0.16796 0.72721 0.65962 0.0
C2284 C 0.18373 0.75925 0.49465 0.0
C2285 C 0.17595 0.77043 0.48337 0.0
C2286 C 0.18381 0.75453 0.53454 0.0
C2287 C 0.17637 0.76105 0.56464 0.0
C2288 C 0.16911 0.77263 0.55376 0.0
C2289 C 0.16875 0.77714 0.51366 0.0
C2290 C 0.17647 0.75953 0.6794 0.0
C2291 C 0.1728 0.74614 0.68763 0.0
C2292 C 0.17781 0.76424 0.63985 0.0
C2293 C 0.17581 0.75568 0.60692 0.0
C2294 C 0.17271 0.74213 0.61492 0.0
C2295 C 0.17107 0.73747 0.65471 0.0
H2296 H 0.01536 0.44376 0.23283 0.0
H2297 H 0.99902 0.40417 0.24756 0.0
H2298 H 0.0238 0.44319 0.30223 0.0
H2299 H 1.00752 0.40342 0.3166 0.0
H2300 H 0.038 0.39969 0.41901 0.0
H2301 H 0.02983 0.40193 0.34989 0.0
H2302 H 0.01715 0.44237 0.37514 0.0
H2303 H 0.02521 0.43999 0.4444 0.0
C2304 C 0.01327 0.43508 0.25131 0.0
C2305 C 1.00629 0.42412 0.23494 0.0
C2306 C 0.01819 0.43469 0.29103 0.0
C2307 C 0.01653 0.42319 0.31522 0.0
C2308 C 1.00921 0.41238 0.29895 0.0
C2309 C 1.00413 0.41287 0.25954 0.0
C2310 C 0.03368 0.40913 0.40956 0.0
C2311 C 0.0322 0.41961 0.43744 0.0
C2312 C 0.02883 0.41039 0.37002 0.0
C2313 C 0.02256 0.42227 0.35678 0.0
C2314 C 0.02186 0.43306 0.38403 0.0
C2315 C 0.02654 0.43172 0.4238 0.0
H2316 H 0.35566 0.29679 0.16407 0.0
H2317 H 0.34402 0.25762 0.20605 0.0
H2318 H 0.35278 0.2892 0.09436 0.0
H2319 H 0.34169 0.24996 0.13693 0.0
H2320 H 0.36019 0.23848 1.01011 0.0
H2321 H 0.3589 0.24611 0.07992 0.0
H2322 H 0.33493 0.27986 0.04293 0.0
H2323 H 0.33572 0.27185 0.97322 0.0
C2324 C 0.35207 0.28672 0.15864 0.0
C2325 C 0.34979 0.27796 0.19113 0.0
C2326 C 0.35057 0.2823 0.11856 0.0
C2327 C 0.34708 0.2689 0.1098 0.0
C2328 C 0.34448 0.26029 0.1423 0.0
C2329 C 0.3457 0.26476 0.18213 0.0
C2330 C 0.35418 0.24721 0.017 0.0
C2331 C 0.34775 0.25431 0.98595 0.0
C2332 C 0.35358 0.25171 0.05707 0.0
C2333 C 0.34685 0.26367 0.06728 0.0
C2334 C 0.34026 0.27067 0.03633 0.0
C2335 C 0.34058 0.26599 0.99641 0.0
H2336 H 0.03238 0.04813 1.00815 0.0
H2337 H 0.99256 0.04671 0.05835 0.0
H2338 H 0.03047 0.02491 0.98738 0.0
H2339 H 0.9904 0.02334 0.03623 0.0
H2340 H 0.99752 0.97747 0.03401 0.0
H2341 H 0.99815 1.00116 0.05106 0.0
H2342 H 0.02083 1.00918 0.94334 0.0
H2343 H 0.02073 0.98537 0.92718 0.0
C2344 C 0.02312 0.04288 1.01453 0.0
C2345 C 0.01269 0.04938 0.03551 0.0
C2346 C 0.02196 0.02949 1.00214 0.0
C2347 C 1.0103 0.02199 1.0101 0.0
C2348 C 0.99965 0.02861 0.02997 0.0
C2349 C 1.0008 0.04211 0.04229 0.0
C2350 C 1.00283 0.9842 1.01408 0.0
C2351 C 1.00922 0.97924 0.97928 0.0
C2352 C 1.00299 0.99794 0.02362 0.0
C2353 C 1.00954 1.00731 0.99878 0.0
C2354 C 0.0158 1.00238 0.96372 0.0
C2355 C 0.01563 0.98863 0.95414 0.0
H2356 H 0.22266 0.74798 0.25508 0.0
H2357 H 0.23367 0.77842 0.34091 0.0
H2358 H 0.24619 0.74591 0.23537 0.0
H2359 H 0.25643 0.77757 0.31852 0.0
H2360 H 0.29937 0.76965 0.29587 0.0
H2361 H 0.27653 0.76891 0.31735 0.0
H2362 H 0.26473 0.75309 0.20184 0.0
H2363 H 0.28812 0.75217 0.18202 0.0
C2364 C 0.23002 0.75426 0.26982 0.0
C2365 C 0.22595 0.76354 0.29932 0.0
C2366 C 0.24362 0.75326 0.25793 0.0
C2367 C 0.25364 0.76161 0.27478 0.0
C2368 C 0.24947 0.77066 0.30478 0.0
C2369 C 0.23607 0.7714 0.31724 0.0
C2370 C 0.29212 0.76566 0.27494 0.0
C2371 C 0.2961 0.76081 0.23695 0.0
C2372 C 0.27865 0.76556 0.28717 0.0
C2373 C 0.26828 0.7611 0.26155 0.0
C2374 C 0.27217 0.75647 0.22317 0.0
C2375 C 0.28577 0.75621 0.2113 0.0
H2376 H 0.53794 0.04308 0.50098 0.0
H2377 H 0.49522 0.04558 0.48171 0.0
H2378 H 0.53581 0.01985 0.51997 0.0
H2379 H 0.49289 0.02236 0.50398 0.0
H2380 H 0.4934 0.97667 0.50664 0.0
H2381 H 0.49562 1.00008 0.48755 0.0
H2382 H 0.53017 1.00365 0.5652 0.0
H2383 H 0.52817 0.97996 0.58275 0.0
C2384 C 0.528 0.03872 0.50074 0.0
C2385 C 0.5168 0.04637 0.48856 0.0
C2386 C 0.52675 0.02527 0.51253 0.0
C2387 C 0.51418 0.01885 0.51351 0.0
C2388 C 0.50285 0.02665 0.50288 0.0
C2389 C 0.50414 0.04015 0.49058 0.0
C2390 C 0.50154 0.98244 0.51947 0.0
C2391 C 0.51062 0.97632 0.54628 0.0
C2392 C 0.50275 0.99602 0.5088 0.0
C2393 C 0.513 1.00413 0.52487 0.0
C2394 C 0.52221 0.99791 0.55139 0.0
C2395 C 0.5211 0.98423 0.56164 0.0
H2396 H 0.29672 0.28127 0.81583 0.0
H2397 H 0.29866 0.2429 0.75679 0.0
H2398 H 0.27337 0.28381 0.79345 0.0
H2399 H 0.27548 0.2452 0.73546 0.0
H2400 H 0.23629 0.25651 0.67523 0.0
H2401 H 0.26002 0.25617 0.69264 0.0
H2402 H 0.2511 0.2752 0.80583 0.0
H2403 H 0.22742 0.27601 0.78775 0.0
C2404 C 0.29224 0.27345 0.79774 0.0
C2405 C 0.29964 0.26184 0.78848 0.0
C2406 C 0.27876 0.27481 0.78524 0.0
C2407 C 0.27232 0.26467 0.76269 0.0
C2408 C 0.27994 0.25332 0.75234 0.0
C2409 C 0.2933 0.25194 0.76497 0.0
C2410 C 0.23934 0.26076 0.70369 0.0
C2411 C 0.22971 0.26622 0.73 0.0
C2412 C 0.25304 0.26045 0.71395 0.0
C2413 C 0.25768 0.26562 0.75088 0.0
C2414 C 0.24808 0.27123 0.77697 0.0
C2415 C 0.23437 0.2715 0.76677 0.0
H2416 H 0.03532 0.97722 0.50687 0.0
H2417 H 0.99262 0.97619 0.48531 0.0
H2418 H 0.03372 1.00048 0.52715 0.0
H2419 H 0.99101 0.9996 0.50778 0.0
H2420 H 0.9944 0.0386 0.58959 0.0
H2421 H 0.99485 0.01484 0.57054 0.0
H2422 H 0.02847 0.02256 0.4925 0.0
H2423 H 0.02791 0.04627 0.51108 0.0
C2424 C 0.02554 0.98191 0.50603 0.0
C2425 C 0.01414 0.97467 0.49307 0.0
C2426 C 0.02465 0.99534 0.51805 0.0
C2427 C 1.01229 1.00208 0.51862 0.0
C2428 C 1.00073 0.99477 0.50767 0.0
C2429 C 1.00165 0.98128 0.49488 0.0
C2430 C 1.00196 0.03521 0.56856 0.0
C2431 C 1.01118 0.04442 0.55211 0.0
C2432 C 1.00212 0.02159 0.55732 0.0
C2433 C 1.01169 0.0167 0.52992 0.0
C2434 C 0.02099 0.02589 0.51383 0.0
C2435 C 0.02065 0.03954 0.52441 0.0
H2436 H 0.22687 0.74991 0.73956 0.0
H2437 H 0.23763 0.76786 0.85304 0.0
H2438 H 0.25031 0.74962 0.71998 0.0
H2439 H 0.26125 0.76731 0.83345 0.0
H2440 H 0.30439 0.75447 0.7975 0.0
H2441 H 0.28086 0.75294 0.81917 0.0
H2442 H 0.26804 0.76455 0.70038 0.0
H2443 H 0.29134 0.76592 0.67898 0.0
C2444 C 0.23415 0.75398 0.76034 0.0
C2445 C 0.23005 0.75909 0.7979 0.0
C2446 C 0.24773 0.75373 0.74905 0.0
C2447 C 0.25786 0.75847 0.77491 0.0
C2448 C 0.25385 0.7634 0.81275 0.0
C2449 C 0.2402 0.76373 0.82401 0.0
C2450 C 0.29652 0.75642 0.77586 0.0
C2451 C 0.29984 0.76027 0.73639 0.0
C2452 C 0.283 0.75573 0.78842 0.0
C2453 C 0.27238 0.75867 0.7617 0.0
C2454 C 0.27578 0.76207 0.72191 0.0
C2455 C 0.28923 0.76291 0.70958 0.0
H2456 H 0.50672 0.98623 0.10233 0.0
H2457 H 0.52528 0.97481 0.9903 0.0
H2458 H 0.50735 1.00971 0.08137 0.0
H2459 H 0.52564 0.9981 0.96935 0.0
H2460 H 0.50902 0.03865 0.92523 0.0
H2461 H 0.51045 0.01552 0.9482 0.0
H2462 H 0.52193 0.02923 0.06618 0.0
H2463 H 0.52037 0.05257 0.04287 0.0
C2464 C 0.511 0.98863 0.07335 0.0
C2465 C 0.51577 0.97834 0.048 0.0
C2466 C 0.51138 1.00219 0.0613 0.0
C2467 C 0.51647 1.00595 0.02342 0.0
C2468 C 0.52139 0.9957 0.99838 0.0
C2469 C 0.5211 0.98221 1.01046 0.0
C2470 C 0.51205 0.03675 0.95595 0.0
C2471 C 0.51466 0.04754 0.98205 0.0
C2472 C 0.5129 0.02343 0.9692 0.0
C2473 C 0.51627 0.02034 1.00924 0.0
C2474 C 0.51918 0.03113 0.03526 0.0
C2475 C 0.51847 0.04454 0.02177 0.0
H2476 H 0.22627 0.24267 0.27562 0.0
H2477 H 0.22937 0.27958 0.209 0.0
H2478 H 0.24959 0.24463 0.29602 0.0
H2479 H 0.25291 0.28174 0.23015 0.0
H2480 H 0.29876 0.27244 0.23872 0.0
H2481 H 0.27509 0.27164 0.2195 0.0
H2482 H 0.26501 0.25669 0.33728 0.0
H2483 H 0.2886 0.25713 0.35604 0.0
C2484 C 0.23192 0.25131 0.26552 0.0
C2485 C 0.22586 0.26093 0.24037 0.0
C2486 C 0.24536 0.25249 0.27754 0.0
C2487 C 0.25334 0.26332 0.26479 0.0
C2488 C 0.24721 0.27315 0.24028 0.0
C2489 C 0.23364 0.27201 0.22849 0.0
C2490 C 0.29153 0.26883 0.26045 0.0
C2491 C 0.29578 0.26481 0.29904 0.0
C2492 C 0.27786 0.26856 0.24955 0.0
C2493 C 0.26796 0.26413 0.27672 0.0
C2494 C 0.27223 0.26006 0.31522 0.0
C2495 C 0.28586 0.26042 0.32619 0.0
H2496 H 0.79729 0.276 0.77259 0.0
H2497 H 0.7888 0.24432 0.68841 0.0
H2498 H 0.77392 0.27614 0.79341 0.0
H2499 H 0.76542 0.24412 0.71 0.0
H2500 H 0.72088 0.25492 0.73488 0.0
H2501 H 0.74417 0.25403 0.71149 0.0
H2502 H 0.75771 0.26518 0.8301 0.0
H2503 H 0.73454 0.26655 0.85249 0.0
C2504 C 0.79046 0.26897 0.75862 0.0
C2505 C 0.7951 0.26014 0.72873 0.0
C2506 C 0.77695 0.26897 0.77081 0.0
C2507 C 0.76753 0.26001 0.75402 0.0
C2508 C 0.77215 0.25131 0.72361 0.0
C2509 C 0.78566 0.25141 0.71111 0.0
C2510 C 0.72887 0.25697 0.75603 0.0
C2511 C 0.72577 0.26082 0.7956 0.0
C2512 C 0.74231 0.25649 0.74262 0.0
C2513 C 0.75309 0.25975 0.76849 0.0
C2514 C 0.74988 0.26301 0.80858 0.0
C2515 C 0.73651 0.26363 0.82173 0.0
H2516 H 0.72799 0.7486 0.27555 0.0
H2517 H 0.73629 0.77995 0.19004 0.0
H2518 H 0.75146 0.74833 0.29536 0.0
H2519 H 0.75976 0.78011 0.21079 0.0
H2520 H 0.80435 0.76959 0.23449 0.0
H2521 H 0.78097 0.77049 0.21204 0.0
H2522 H 0.76801 0.75887 0.3309 0.0
H2523 H 0.79128 0.7574 0.3522 0.0
C2524 C 0.73481 0.75552 0.26108 0.0
C2525 C 0.7301 0.76429 0.2311 0.0
C2526 C 0.74838 0.75547 0.27272 0.0
C2527 C 0.75779 0.76434 0.25534 0.0
C2528 C 0.75307 0.77298 0.22486 0.0
C2529 C 0.7395 0.77291 0.21284 0.0
C2530 C 0.79646 0.76743 0.25588 0.0
C2531 C 0.79975 0.76343 0.29519 0.0
C2532 C 0.78296 0.76792 0.24303 0.0
C2533 C 0.7723 0.76455 0.26923 0.0
C2534 C 0.77572 0.76113 0.30909 0.0
C2535 C 0.78915 0.76047 0.32165 0.0
H2536 H 0.72768 0.24731 0.2423 0.0
H2537 H 0.73824 0.26808 0.35153 0.0
H2538 H 0.75111 0.24684 0.22267 0.0
H2539 H 0.76186 0.2674 0.33189 0.0
H2540 H 0.80519 0.25473 0.29773 0.0
H2541 H 0.78174 0.25307 0.3202 0.0
H2542 H 0.7684 0.26172 0.19964 0.0
H2543 H 0.79163 0.26323 0.17754 0.0
C2544 C 0.73492 0.25196 0.26209 0.0
C2545 C 0.73078 0.25793 0.29842 0.0
C2546 C 0.74849 0.25161 0.25079 0.0
C2547 C 0.75855 0.25714 0.27543 0.0
C2548 C 0.75451 0.26289 0.31218 0.0
C2549 C 0.74086 0.2633 0.32346 0.0
C2550 C 0.79722 0.25596 0.27593 0.0
C2551 C 0.80035 0.25901 0.23572 0.0
C2552 C 0.78375 0.25521 0.28891 0.0
C2553 C 0.77302 0.25731 0.2619 0.0
C2554 C 0.77625 0.25989 0.22143 0.0
C2555 C 0.78964 0.26078 0.20867 0.0
H2556 H 0.72055 0.76939 0.79681 0.0
H2557 H 0.73384 0.758 0.67865 0.0
H2558 H 0.7439 0.77034 0.81953 0.0
H2559 H 0.75708 0.75946 0.70032 0.0
H2560 H 0.79696 0.74885 0.75601 0.0
H2561 H 0.77351 0.7486 0.73605 0.0
H2562 H 0.76512 0.78023 0.8209 0.0
H2563 H 0.7886 0.78009 0.84171 0.0
C2564 C 0.72848 0.76741 0.7754 0.0
C2565 C 0.72525 0.76361 0.73587 0.0
C2566 C 0.74196 0.76792 0.78841 0.0
C2567 C 0.75266 0.76477 0.76217 0.0
C2568 C 0.74932 0.76156 0.72213 0.0
C2569 C 0.73591 0.76089 0.70938 0.0
C2570 C 0.79013 0.75576 0.7705 0.0
C2571 C 0.79483 0.7645 0.80054 0.0
C2572 C 0.77657 0.75571 0.75879 0.0
C2573 C 0.76715 0.76454 0.7762 0.0
C2574 C 0.77184 0.77314 0.8068 0.0
C2575 C 0.7854 0.77308 0.81885 0.0
H2576 H 0.51812 0.54087 0.60266 0.0
H2577 H 0.50317 0.55424 0.48807 0.0
H2578 H 0.51632 0.51768 0.58098 0.0
H2579 H 0.50173 0.53093 0.46544 0.0
H2580 H 0.4915 0.48634 0.4458 0.0
H2581 H 0.49172 0.50966 0.46758 0.0
H2582 H 0.5264 0.50151 0.54135 0.0
H2583 H 0.52594 0.47819 0.52023 0.0
C2584 C 0.51439 0.53884 0.57272 0.0
C2585 C 0.5108 0.54952 0.54719 0.0
C2586 C 0.51349 0.52546 0.55998 0.0
C2587 C 0.5091 0.52217 0.52094 0.0
C2588 C 0.50507 0.53287 0.49579 0.0
C2589 C 0.50586 0.54632 0.50878 0.0
C2590 C 0.49926 0.48953 0.46643 0.0
C2591 C 0.50868 0.4802 0.48119 0.0
C2592 C 0.49939 0.50301 0.47901 0.0
C2593 C 0.50901 0.50772 0.5067 0.0
C2594 C 0.51857 0.4984 0.52088 0.0
C2595 C 0.51836 0.48491 0.50855 0.0
H2596 H 0.0193 0.47138 0.98298 0.0
H2597 H 1.01036 0.48471 0.10299 0.0
H2598 H 0.02004 0.49474 0.96017 0.0
H2599 H 1.01153 0.50792 0.08104 0.0
H2600 H 0.99937 0.54754 0.02647 0.0
H2601 H 0.99959 0.5241 0.04636 0.0
H2602 H 0.03025 0.51603 0.95807 0.0
H2603 H 0.02976 0.53952 0.93757 0.0
C2604 C 0.01783 0.4793 1.00472 0.0
C2605 C 0.01475 0.4761 0.04485 0.0
C2606 C 0.0182 0.49277 0.99165 0.0
C2607 C 0.0156 0.50347 0.0184 0.0
C2608 C 0.01317 0.50015 0.05894 0.0
C2609 C 0.01267 0.48676 0.0718 0.0
C2610 C 1.00619 0.54081 1.01123 0.0
C2611 C 0.01457 0.5456 0.98037 0.0
C2612 C 1.00639 0.52726 0.02287 0.0
C2613 C 0.01509 0.51794 1.00444 0.0
C2614 C 0.0233 0.5227 0.97297 0.0
C2615 C 0.02301 0.53626 0.96109 0.0
H2616 H 0.51819 0.48434 0.92635 0.0
H2617 H 0.50569 0.47069 0.04329 0.0
H2618 H 0.51644 0.50754 0.94857 0.0
H2619 H 0.50388 0.49408 0.06584 0.0
H2620 H 0.51868 0.53735 0.10146 0.0
H2621 H 0.51855 0.51381 0.08117 0.0
H2622 H 0.50043 0.52475 0.96828 0.0
H2623 H 0.50016 0.54809 0.98864 0.0
C2624 C 0.51488 0.4863 0.95676 0.0
C2625 C 0.51202 0.47557 0.98289 0.0
C2626 C 0.51384 0.49966 0.96956 0.0
C2627 C 0.51005 0.50283 1.00917 0.0
C2628 C 0.50695 0.4921 0.03524 0.0
C2629 C 0.50782 0.47867 0.02218 0.0
C2630 C 0.51452 0.5348 0.07245 0.0
C2631 C 0.5096 0.54493 0.04671 0.0
C2632 C 0.51445 0.52121 0.06078 0.0
C2633 C 0.50955 0.51725 0.02286 0.0
C2634 C 0.50452 0.52733 0.99738 0.0
C2635 C 0.50447 0.54085 1.00912 0.0
H2636 H 1.00435 0.47618 0.48761 0.0
H2637 H 0.02277 0.48743 0.60013 0.0
H2638 H 1.00488 0.49906 0.46602 0.0
H2639 H 0.02175 0.51082 0.58023 0.0
H2640 H 0.02707 0.5526 0.52531 0.0
H2641 H 0.02907 0.5291 0.54511 0.0
H2642 H 0.99602 0.51921 0.46645 0.0
H2643 H 0.99512 0.54198 0.4439 0.0
C2644 C 1.0085 0.48345 0.50819 0.0
C2645 C 0.01367 0.4795 0.54583 0.0
C2646 C 1.00851 0.49691 0.49592 0.0
C2647 C 0.01323 0.50725 0.52117 0.0
C2648 C 0.01817 0.50338 0.55921 0.0
C2649 C 0.0185 0.48979 0.57113 0.0
C2650 C 0.02045 0.54533 0.51157 0.0
C2651 C 1.01078 0.5495 0.48326 0.0
C2652 C 0.02142 0.53176 0.52353 0.0
C2653 C 0.01267 0.52186 0.50793 0.0
C2654 C 1.00321 0.52612 0.47915 0.0
C2655 C 1.00247 0.5395 0.46663 0.0
H2656 H 0.05248 0.16983 0.16155 0.0
H2657 H 0.07905 0.15199 0.07475 0.0
H2658 H 0.06905 0.1872 0.17513 0.0
H2659 H 0.09587 0.16894 0.08926 0.0
H2660 H 0.12142 0.20622 0.09845 0.0
H2661 H 0.10412 0.19 0.08373 0.0
H2662 H 0.08854 0.19439 0.20395 0.0
H2663 H 0.10518 0.21151 0.21759 0.0
C2664 C 0.06191 0.16951 0.14549 0.0
C2665 C 0.06424 0.15939 0.11676 0.0
C2666 C 0.07157 0.17953 0.15349 0.0
C2667 C 0.0841 0.17978 0.13354 0.0
C2668 C 0.0864 0.16956 0.10493 0.0
C2669 C 0.07666 0.15967 0.09654 0.0
C2670 C 0.11419 0.20406 0.12177 0.0
C2671 C 0.11497 0.21057 0.1594 0.0
C2672 C 0.10426 0.19437 0.11343 0.0
C2673 C 0.09467 0.1905 0.14247 0.0
C2674 C 0.09544 0.19699 0.18015 0.0
C2675 C 0.10529 0.20682 0.18834 0.0
H2676 H 0.10333 0.80121 0.41341 0.0
H2677 H 0.12013 0.82709 0.32288 0.0
H2678 H 0.08595 0.81773 0.42712 0.0
H2679 H 0.10318 0.84389 0.33751 0.0
H2680 H 0.06587 0.86935 0.34844 0.0
H2681 H 0.08205 0.85206 0.33347 0.0
H2682 H 0.07888 0.83733 0.45503 0.0
H2683 H 0.06177 0.85394 0.46902 0.0
C2684 C 0.10341 0.81048 0.39652 0.0
C2685 C 0.11325 0.81263 0.36676 0.0
C2686 C 0.09338 0.82012 0.40461 0.0
C2687 C 0.09285 0.83246 0.38371 0.0
C2688 C 0.10278 0.83457 0.35399 0.0
C2689 C 0.11267 0.82484 0.34552 0.0
C2690 C 0.06829 0.86231 0.37203 0.0
C2691 C 0.06212 0.86331 0.41014 0.0
C2692 C 0.07796 0.85238 0.36352 0.0
C2693 C 0.08215 0.84303 0.39283 0.0
C2694 C 0.07601 0.84403 0.431 0.0
C2695 C 0.06619 0.85387 0.43937 0.0
H2696 H 0.40287 0.82888 0.70726 0.0
H2697 H 0.42114 0.80202 0.6221 0.0
H2698 H 0.41988 0.84565 0.69275 0.0
H2699 H 0.43854 0.81856 0.6085 0.0
H2700 H 0.46296 0.85457 0.56549 0.0
H2701 H 0.44578 0.83796 0.57914 0.0
H2702 H 0.44097 0.85391 0.69874 0.0
H2703 H 0.45725 0.87115 0.68399 0.0
C2704 C 0.41066 0.82641 0.68583 0.0
C2705 C 0.41048 0.81392 0.66607 0.0
C2706 C 0.42057 0.83613 0.67744 0.0
C2707 C 0.43092 0.83374 0.64926 0.0
C2708 C 0.43078 0.82115 0.62978 0.0
C2709 C 0.42073 0.81151 0.6378 0.0
C2710 C 0.45817 0.85476 0.5946 0.0
C2711 C 0.46182 0.86452 0.62336 0.0
C2712 C 0.44831 0.84494 0.60281 0.0
C2713 C 0.44168 0.84428 0.64032 0.0
C2714 C 0.44545 0.85395 0.66917 0.0
C2715 C 0.45517 0.86385 0.66082 0.0
H2716 H 0.44571 0.15009 0.95344 0.0
H2717 H 0.47169 0.16799 0.86511 0.0
H2718 H 0.42879 0.16704 0.93996 0.0
H2719 H 0.45506 0.18538 0.85259 0.0
H2720 H 0.41879 0.20984 0.8124 0.0
H2721 H 0.43547 0.19269 0.82503 0.0
H2722 H 0.42045 0.18801 0.94581 0.0
H2723 H 0.40308 0.20425 0.93208 0.0
C2724 C 0.44795 0.15779 0.93152 0.0
C2725 C 0.46024 0.15752 0.91056 0.0
C2726 C 0.43816 0.16768 0.92373 0.0
C2727 C 0.44026 0.17792 0.895 0.0
C2728 C 0.45266 0.17769 0.87434 0.0
C2729 C 0.46237 0.16766 0.88173 0.0
C2730 C 0.4188 0.20508 0.84156 0.0
C2731 C 0.40925 0.20875 0.87094 0.0
C2732 C 0.42869 0.19523 0.84917 0.0
C2733 C 0.42964 0.18865 0.8867 0.0
C2734 C 0.42018 0.19245 0.91619 0.0
C2735 C 0.4102 0.20214 0.90842 0.0
H2736 H 0.91344 0.80821 0.91664 0.0
H2737 H 0.89967 0.83155 0.81594 0.0
H2738 H 0.93097 0.82488 0.92972 0.0
H2739 H 0.9173 0.84783 0.82766 0.0
H2740 H 0.94024 0.88285 0.8781 0.0
H2741 H 0.92406 0.8654 0.86563 0.0
H2742 H 0.95113 0.83614 0.91604 0.0
H2743 H 0.96716 0.85402 0.93125 0.0
C2744 C 0.91424 0.81678 0.89685 0.0
C2745 C 0.90488 0.81849 0.86545 0.0
C2746 C 0.92439 0.82643 0.90431 0.0
C2747 C 0.92568 0.8381 0.88038 0.0
C2748 C 0.9166 0.83941 0.848 0.0
C2749 C 0.90642 0.82991 0.84094 0.0
C2750 C 0.94282 0.87278 0.88732 0.0
C2751 C 0.95519 0.87016 0.90649 0.0
C2752 C 0.93347 0.86254 0.87929 0.0
C2753 C 0.93603 0.84903 0.88934 0.0
C2754 C 0.9485 0.84631 0.90801 0.0
C2755 C 0.95788 0.85665 0.91636 0.0
H2756 H 0.93871 0.13877 0.64763 0.0
H2757 H 0.96579 0.16829 0.59872 0.0
H2758 H 0.92225 0.15597 0.66002 0.0
H2759 H 0.94952 0.18585 0.61397 0.0
H2760 H 0.91218 0.21376 0.6129 0.0
H2761 H 0.92959 0.19707 0.59956 0.0
H2762 H 0.91487 0.17322 0.69842 0.0
H2763 H 0.89734 0.1896 0.71048 0.0
C2764 C 0.94127 0.14893 0.63931 0.0
C2765 C 0.95379 0.15182 0.62141 0.0
C2766 C 0.93175 0.15902 0.6473 0.0
C2767 C 0.93428 0.17262 0.63846 0.0
C2768 C 0.94688 0.1756 0.62101 0.0
C2769 C 0.95641 0.16543 0.61266 0.0
C2770 C 0.9127 0.20498 0.63195 0.0
C2771 C 0.9031 0.20311 0.66259 0.0
C2772 C 0.9228 0.19532 0.62434 0.0
C2773 C 0.92381 0.18343 0.64736 0.0
C2774 C 0.91442 0.18185 0.67883 0.0
C2775 C 0.90428 0.1914 0.68605 0.0
H2776 H 0.63342 0.19125 0.40602 0.0
H2777 H 0.60544 0.21799 0.34819 0.0
H2778 H 0.61557 0.17536 0.41827 0.0
H2779 H 0.58724 0.20228 0.36264 0.0
H2780 H 0.55907 0.16541 0.3598 0.0
H2781 H 0.57653 0.18195 0.34737 0.0
H2782 H 0.59704 0.16922 0.45491 0.0
H2783 H 0.58011 0.15218 0.46593 0.0
C2784 C 0.62346 0.19384 0.39574 0.0
C2785 C 0.62117 0.20606 0.3754 0.0
C2786 C 0.61302 0.18468 0.40351 0.0
C2787 C 0.59967 0.18728 0.39171 0.0
C2788 C 0.59729 0.19962 0.37193 0.0
C2789 C 0.6078 0.20881 0.36401 0.0
C2790 C 0.56735 0.16596 0.38073 0.0
C2791 C 0.56793 0.15715 0.41398 0.0
C2792 C 0.57739 0.17571 0.37381 0.0
C2793 C 0.5885 0.17714 0.39982 0.0
C2794 C 0.58894 0.16848 0.43341 0.0
C2795 C 0.57895 0.15871 0.44023 0.0
H2796 H 0.55865 0.86028 0.16903 0.0
H2797 H 0.58204 0.87457 0.06908 0.0
H2798 H 0.57546 0.84287 0.18187 0.0
H2799 H 0.59847 0.85708 0.08059 0.0
H2800 H 0.63361 0.83418 0.13079 0.0
H2801 H 0.61606 0.85028 0.11862 0.0
H2802 H 0.58687 0.82285 0.16765 0.0
H2803 H 0.60483 0.80689 0.18255 0.0
C2804 C 0.56726 0.85963 0.14935 0.0
C2805 C 0.56893 0.86909 0.11824 0.0
C2806 C 0.57699 0.84954 0.15668 0.0
C2807 C 0.58872 0.84843 0.13289 0.0
C2808 C 0.59 0.85763 0.10082 0.0
C2809 C 0.58041 0.86774 0.09388 0.0
C2810 C 0.62353 0.8315 0.13977 0.0
C2811 C 0.62096 0.81904 0.15845 0.0
C2812 C 0.61324 0.84081 0.13192 0.0
C2813 C 0.59972 0.83813 0.14168 0.0
C2814 C 0.59705 0.82558 0.15987 0.0
C2815 C 0.60743 0.81624 0.16803 0.0
H2816 H 0.56269 0.66998 0.56201 0.0
H2817 H 0.5675 0.65415 0.68185 0.0
H2818 H 0.57976 0.68668 0.57584 0.0
H2819 H 0.58367 0.67148 0.69668 0.0
H2820 H 0.62163 0.69666 0.70639 0.0
H2821 H 0.60478 0.67976 0.6917 0.0
H2822 H 0.58673 0.70628 0.60451 0.0
H2823 H 0.604 0.72293 0.61832 0.0
C2824 C 0.56727 0.66998 0.59145 0.0
C2825 C 0.56339 0.6604 0.62054 0.0
C2826 C 0.57706 0.67986 0.59974 0.0
C2827 C 0.58339 0.68075 0.63766 0.0
C2828 C 0.57942 0.67126 0.66682 0.0
C2829 C 0.56976 0.6613 0.6584 0.0
C2830 C 0.61402 0.69897 0.68427 0.0
C2831 C 0.61433 0.71134 0.66376 0.0
C2832 C 0.60419 0.68919 0.67578 0.0
C2833 C 0.59406 0.69137 0.64672 0.0
C2834 C 0.59433 0.70384 0.62649 0.0
C2835 C 0.60429 0.71355 0.63462 0.0
H2836 H 0.57924 0.37202 0.9538 0.0
H2837 H 0.5529 0.35447 0.8658 0.0
H2838 H 0.596 0.35497 0.93973 0.0
H2839 H 0.56941 0.33701 0.85262 0.0
H2840 H 0.6056 0.3126 0.81112 0.0
H2841 H 0.58902 0.32983 0.82436 0.0
H2842 H 0.60401 0.33379 0.9454 0.0
H2843 H 0.62124 0.31745 0.93115 0.0
C2844 C 0.57689 0.36438 0.93183 0.0
C2845 C 0.56455 0.36477 0.91115 0.0
C2846 C 0.58659 0.35444 0.9237 0.0
C2847 C 0.58434 0.34428 0.89487 0.0
C2848 C 0.5719 0.34463 0.87445 0.0
C2849 C 0.56227 0.3547 0.88222 0.0
C2850 C 0.60559 0.31722 0.84048 0.0
C2851 C 0.61508 0.31332 0.8698 0.0
C2852 C 0.59578 0.3271 0.84842 0.0
C2853 C 0.59487 0.3335 0.88621 0.0
C2854 C 0.60426 0.32949 0.91562 0.0
C2855 C 0.61416 0.31974 0.90754 0.0
H2856 H 0.90307 0.31982 0.09954 0.0
H2857 H 0.91895 0.31478 0.21923 0.0
H2858 H 0.92046 0.33596 0.08481 0.0
H2859 H 0.93576 0.33179 0.20545 0.0
H2860 H 0.97228 0.35554 0.16186 0.0
H2861 H 0.95548 0.33842 0.17583 0.0
H2862 H 0.92867 0.35716 0.09079 0.0
H2863 H 0.94567 0.37391 0.07601 0.0
C2864 C 0.91025 0.32203 0.12297 0.0
C2865 C 0.90937 0.31561 0.16074 0.0
C2866 C 0.92023 0.33166 0.11461 0.0
C2867 C 0.92977 0.33553 0.14374 0.0
C2868 C 0.92888 0.32916 0.18161 0.0
C2869 C 0.91896 0.31941 0.18985 0.0
C2870 C 0.9628 0.35603 0.14608 0.0
C2871 C 0.96052 0.36623 0.11751 0.0
C2872 C 0.95302 0.34615 0.1543 0.0
C2873 C 0.94043 0.34612 0.13468 0.0
C2874 C 0.93819 0.3564 0.1062 0.0
C2875 C 0.94803 0.36616 0.09765 0.0
H2876 H 0.95253 0.65051 0.36473 0.0
H2877 H 0.97049 0.6762 0.45352 0.0
H2878 H 0.93547 0.66728 0.35145 0.0
H2879 H 0.95392 0.69348 0.43883 0.0
H2880 H 0.9169 0.71978 0.42817 0.0
H2881 H 0.93353 0.70289 0.4424 0.0
H2882 H 0.92775 0.6862 0.32404 0.0
H2883 H 0.91013 0.70222 0.3114 0.0
C2884 C 0.95299 0.65988 0.38107 0.0
C2885 C 0.96304 0.66188 0.41021 0.0
C2886 C 0.94313 0.66969 0.37323 0.0
C2887 C 0.94301 0.68213 0.39358 0.0
C2888 C 0.95321 0.68412 0.42265 0.0
C2889 C 0.9629 0.67416 0.43108 0.0
C2890 C 0.91886 0.71242 0.40516 0.0
C2891 C 0.91171 0.71266 0.36846 0.0
C2892 C 0.9288 0.70268 0.41321 0.0
C2893 C 0.93234 0.6928 0.38472 0.0
C2894 C 0.9254 0.69323 0.34766 0.0
C2895 C 0.91528 0.7028 0.33991 0.0
H2896 H 0.39946 0.3232 0.43149 0.0
H2897 H 0.41375 0.3192 0.30974 0.0
H2898 H 0.41685 0.33951 0.44503 0.0
H2899 H 0.43058 0.33628 0.32251 0.0
H2900 H 0.46753 0.35998 0.36356 0.0
H2901 H 0.4507 0.34281 0.35054 0.0
H2902 H 0.42468 0.36096 0.43871 0.0
H2903 H 0.44168 0.37782 0.45235 0.0
C2904 C 0.40628 0.32569 0.40737 0.0
C2905 C 0.40495 0.31953 0.36935 0.0
C2906 C 0.41627 0.33538 0.41506 0.0
C2907 C 0.42537 0.33955 0.38504 0.0
C2908 C 0.42405 0.33342 0.34698 0.0
C2909 C 0.41411 0.32362 0.33936 0.0
C2910 C 0.45821 0.36036 0.38018 0.0
C2911 C 0.45617 0.37044 0.40928 0.0
C2912 C 0.44841 0.35044 0.37254 0.0
C2913 C 0.43605 0.35021 0.39337 0.0
C2914 C 0.43403 0.36037 0.42235 0.0
C2915 C 0.44388 0.37019 0.43025 0.0
H2916 H 0.39123 0.68931 0.13005 0.0
H2917 H 0.42015 0.71609 0.18339 0.0
H2918 H 0.40867 0.67309 0.11775 0.0
H2919 H 0.43798 0.70008 0.16824 0.0
H2920 H 0.46605 0.66268 0.16852 0.0
H2921 H 0.44926 0.68006 0.18177 0.0
H2922 H 0.42627 0.66626 0.07997 0.0
H2923 H 0.44268 0.64876 0.06811 0.0
C2924 C 0.40131 0.69186 0.13935 0.0
C2925 C 0.40396 0.70422 0.15845 0.0
C2926 C 0.41154 0.68249 0.13142 0.0
C2927 C 0.42506 0.68503 0.1415 0.0
C2928 C 0.4278 0.69746 0.16018 0.0
C2929 C 0.41748 0.70684 0.16847 0.0
C2930 C 0.45744 0.66343 0.14882 0.0
C2931 C 0.45577 0.65408 0.11745 0.0
C2932 C 0.44772 0.67349 0.15638 0.0
C2933 C 0.43601 0.6747 0.13255 0.0
C2934 C 0.43472 0.66562 0.10023 0.0
C2935 C 0.4443 0.65552 0.09308 0.0
H2936 H 0.08497 0.64115 0.88236 0.0
H2937 H 0.05775 0.67052 0.93133 0.0
H2938 H 0.10145 0.65852 0.87033 0.0
H2939 H 0.07435 0.68813 0.91788 0.0
H2940 H 0.10495 0.71747 0.85182 0.0
H2941 H 0.08712 0.70113 0.86528 0.0
H2942 H 0.11662 0.67294 0.90768 0.0
H2943 H 0.13424 0.68916 0.89568 0.0
C2944 C 0.08243 0.65127 0.89111 0.0
C2945 C 0.06987 0.65411 0.9089 0.0
C2946 C 0.09201 0.66136 0.8839 0.0
C2947 C 0.0895 0.67488 0.89353 0.0
C2948 C 0.07677 0.67791 0.90988 0.0
C2949 C 0.06717 0.66772 0.91756 0.0
C2950 C 0.1077 0.70786 0.86446 0.0
C2951 C 0.12134 0.7048 0.87174 0.0
C2952 C 0.09738 0.69841 0.87215 0.0
C2953 C 0.10029 0.68548 0.88709 0.0
C2954 C 0.11385 0.68257 0.89524 0.0
C2955 C 0.12409 0.692 0.88804 0.0
H2956 H 0.05874 0.35586 0.59616 0.0
H2957 H 0.08484 0.38393 0.65609 0.0
H2958 H 0.07461 0.33786 0.61049 0.0
H2959 H 0.10095 0.36625 0.66816 0.0
H2960 H 0.12423 0.33074 0.7157 0.0
H2961 H 0.10721 0.34766 0.70429 0.0
H2962 H 0.09502 0.3274 0.59584 0.0
H2963 H 0.11153 0.30995 0.60865 0.0
C2964 C 0.06781 0.35829 0.61241 0.0
C2965 C 0.07031 0.37163 0.62451 0.0
C2966 C 0.07712 0.34789 0.62025 0.0
C2967 C 0.08934 0.35033 0.64059 0.0
C2968 C 0.09173 0.36365 0.65296 0.0
C2969 C 0.08244 0.374 0.6453 0.0
C2970 C 0.11783 0.32964 0.68969 0.0
C2971 C 0.11952 0.31868 0.66334 0.0
C2972 C 0.10807 0.33963 0.68266 0.0
C2973 C 0.09955 0.33924 0.64875 0.0
C2974 C 0.10114 0.32822 0.62254 0.0
C2975 C 0.11088 0.31818 0.62969 0.0
loop_
_geom_bond_atom_site_label_1
_geom_bond_atom_site_label_2
_geom_bond_distance
_geom_bond_site_symmetry_2
_ccdc_geom_bond_type
C0 C1 1.443 . S
C0 N4 1.376 1_556 S
C0 C38 1.389 1_655 S
C1 C0 1.443 . S
C1 C2 1.340 . S
C1 H41 0.951 . S
C2 C1 1.340 . S
C2 C3 1.439 1_556 S
C2 H42 0.950 . S
C3 C2 1.439 1_554 S
C3 N4 1.374 . S
C3 C37 1.395 . S
N4 C0 1.376 1_554 S
N4 C3 1.374 . S
N4 Co5 2.008 1_655 S
Co5 N4 2.008 1_455 S
Co5 N6 1.995 1_455 S
Co5 N11 2.008 . S
Co5 N16 1.995 . S
Co5 N21 2.282 . S
Co5 N27 2.282 . S
N6 Co5 1.995 1_655 S
N6 C7 1.376 . S
N6 C10 1.383 . S
C7 N6 1.376 . S
C7 C8 1.446 . S
C7 C37 1.391 . S
C8 C7 1.446 . S
C8 C9 1.339 . S
C8 H43 0.949 . S
C9 C8 1.339 . S
C9 C10 1.439 . S
C9 H44 0.950 . S
C10 N6 1.383 . S
C10 C9 1.439 . S
C10 C39 1.392 1_655 S
N11 Co5 2.008 . S
N11 C12 1.376 . S
N11 C15 1.374 . S
C12 N11 1.376 . S
C12 C13 1.443 . S
C12 C39 1.389 . S
C13 C12 1.443 . S
C13 C14 1.340 . S
C13 H45 0.951 . S
C14 C13 1.340 . S
C14 C15 1.439 . S
C14 H46 0.950 . S
C15 N11 1.374 . S
C15 C14 1.439 . S
C15 C40 1.395 . S
N16 Co5 1.995 . S
N16 C17 1.376 . S
N16 C20 1.383 1_554 S
C17 N16 1.376 . S
C17 C18 1.446 1_554 S
C17 C40 1.391 . S
C18 C17 1.446 1_556 S
C18 C19 1.339 . S
C18 H47 0.949 . S
C19 C18 1.339 . S
C19 C20 1.439 . S
C19 H48 0.950 . S
C20 N16 1.383 1_556 S
C20 C19 1.439 . S
C20 C38 1.392 . S
N21 Co5 2.282 . S
N21 C24 1.332 . S
N21 C26 1.332 . S
C22 C23 1.386 . S
C22 C25 1.388 . S
C23 C22 1.386 . S
C23 C24 1.382 . S
C23 H49 0.950 . S
C24 N21 1.332 . S
C24 C23 1.382 . S
C24 H35 0.952 . S
C25 C22 1.388 . S
C25 C26 1.382 . S
C25 H50 0.950 . S
C26 N21 1.332 . S
C26 C25 1.382 . S
C26 H36 0.948 . S
N27 Co5 2.282 . S
N27 C31 1.332 1_455 S
N27 C32 1.332 . S
C28 C29 1.388 1_455 S
C28 C32 1.382 . S
C28 H51 0.950 . S
C29 C28 1.388 1_655 S
C29 C30 1.386 . S
C30 C29 1.386 . S
C30 C31 1.382 . S
C30 H52 0.950 . S
C31 N27 1.332 1_655 S
C31 C30 1.382 . S
C31 H33 0.952 . S
C32 N27 1.332 . S
C32 C28 1.382 . S
C32 H34 0.948 . S
H33 C31 0.952 . S
H34 C32 0.948 . S
H35 C24 0.952 . S
H36 C26 0.948 . S
C37 C3 1.395 . S
C37 C7 1.391 . S
C38 C0 1.389 1_455 S
C38 C20 1.392 . S
C39 C10 1.392 1_455 S
C39 C12 1.389 . S
C40 C15 1.395 . S
C40 C17 1.391 . S
H41 C1 0.951 . S
H42 C2 0.950 . S
H43 C8 0.949 . S
H44 C9 0.950 . S
H45 C13 0.951 . S
H46 C14 0.950 . S
H47 C18 0.949 . S
H48 C19 0.950 . S
H49 C23 0.950 . S
H50 C25 0.950 . S
H51 C28 0.950 . S
H52 C30 0.950 . S
C53 C54 1.443 . S
C53 N57 1.376 . S
C53 C91 1.389 . S
C54 C53 1.443 . S
C54 C55 1.340 . S
C54 H94 0.951 . S
C55 C54 1.340 . S
C55 C56 1.439 . S
C55 H95 0.950 . S
C56 C55 1.439 . S
C56 N57 1.374 . S
C56 C90 1.395 . S
N57 C53 1.376 . S
N57 C56 1.374 . S
N57 Co58 2.008 . S
Co58 N57 2.008 . S
Co58 N59 1.995 . S
Co58 N64 2.008 . S
Co58 N69 1.995 . S
Co58 N74 2.282 . S
Co58 N80 2.282 . S
N59 Co58 1.995 . S
N59 C60 1.376 . S
N59 C63 1.383 . S
C60 N59 1.376 . S
C60 C61 1.446 . S
C60 C90 1.391 . S
C61 C60 1.446 . S
C61 C62 1.339 . S
C61 H96 0.949 . S
C62 C61 1.339 . S
C62 C63 1.439 . S
C62 H97 0.950 . S
C63 N59 1.383 . S
C63 C62 1.439 . S
C63 C92 1.392 . S
N64 Co58 2.008 . S
N64 C65 1.376 . S
N64 C68 1.374 . S
C65 N64 1.376 . S
C65 C66 1.443 . S
C65 C92 1.389 . S
C66 C65 1.443 . S
C66 C67 1.340 . S
C66 H98 0.951 . S
C67 C66 1.340 . S
C67 C68 1.439 . S
C67 H99 0.950 . S
C68 N64 1.374 . S
C68 C67 1.439 . S
C68 C93 1.395 . S
N69 Co58 1.995 . S
N69 C70 1.376 . S
N69 C73 1.383 . S
C70 N69 1.376 . S
C70 C71 1.446 . S
C70 C93 1.391 . S
C71 C70 1.446 . S
C71 C72 1.339 . S
C71 H100 0.949 . S
C72 C71 1.339 . S
C72 C73 1.439 . S
C72 H101 0.950 . S
C73 N69 1.383 . S
C73 C72 1.439 . S
C73 C91 1.392 . S
N74 Co58 2.282 . S
N74 C77 1.332 . S
N74 C79 1.332 . S
C75 C76 1.386 . S
C75 C78 1.388 . S
C76 C75 1.386 . S
C76 C77 1.382 . S
C76 H102 0.950 . S
C77 N74 1.332 . S
C77 C76 1.382 . S
C77 H88 0.952 . S
C78 C75 1.388 . S
C78 C79 1.382 . S
C78 H103 0.950 . S
C79 N74 1.332 . S
C79 C78 1.382 . S
C79 H89 0.948 . S
N80 Co58 2.282 . S
N80 C84 1.332 . S
N80 C85 1.332 . S
C81 C82 1.388 . S
C81 C85 1.382 . S
C81 H104 0.950 . S
C82 C81 1.388 . S
C82 C83 1.386 . S
C83 C82 1.386 . S
C83 C84 1.382 . S
C83 H105 0.950 . S
C84 N80 1.332 . S
C84 C83 1.382 . S
C84 H86 0.952 . S
C85 N80 1.332 . S
C85 C81 1.382 . S
C85 H87 0.948 . S
H86 C84 0.952 . S
H87 C85 0.948 . S
H88 C77 0.952 . S
H89 C79 0.948 . S
C90 C56 1.395 . S
C90 C60 1.391 . S
C91 C53 1.389 . S
C91 C73 1.392 . S
C92 C63 1.392 . S
C92 C65 1.389 . S
C93 C68 1.395 . S
C93 C70 1.391 . S
H94 C54 0.951 . S
H95 C55 0.950 . S
H96 C61 0.949 . S
H97 C62 0.950 . S
H98 C66 0.951 . S
H99 C67 0.950 . S
H100 C71 0.949 . S
H101 C72 0.950 . S
H102 C76 0.950 . S
H103 C78 0.950 . S
H104 C81 0.950 . S
H105 C83 0.950 . S
C106 C107 1.443 . S
C106 N110 1.376 . S
C106 C144 1.389 . S
C107 C106 1.443 . S
C107 C108 1.340 . S
C107 H147 0.951 . S
C108 C107 1.340 . S
C108 C109 1.439 . S
C108 H148 0.950 . S
C109 C108 1.439 . S
C109 N110 1.374 . S
C109 C143 1.395 . S
N110 C106 1.376 . S
N110 C109 1.374 . S
N110 Co111 2.008 . S
Co111 N110 2.008 . S
Co111 N112 1.995 . S
Co111 N117 2.008 . S
Co111 N122 1.995 . S
Co111 N127 2.282 . S
Co111 N133 2.282 . S
N112 Co111 1.995 . S
N112 C113 1.376 . S
N112 C116 1.383 . S
C113 N112 1.376 . S
C113 C114 1.446 . S
C113 C143 1.391 . S
C114 C113 1.446 . S
C114 C115 1.339 . S
C114 H149 0.949 . S
C115 C114 1.339 . S
C115 C116 1.439 . S
C115 H150 0.950 . S
C116 N112 1.383 . S
C116 C115 1.439 . S
C116 C145 1.392 . S
N117 Co111 2.008 . S
N117 C118 1.376 . S
N117 C121 1.374 . S
C118 N117 1.376 . S
C118 C119 1.443 . S
C118 C145 1.389 . S
C119 C118 1.443 . S
C119 C120 1.340 . S
C119 H151 0.951 . S
C120 C119 1.340 . S
C120 C121 1.439 . S
C120 H152 0.950 . S
C121 N117 1.374 . S
C121 C120 1.439 . S
C121 C146 1.395 . S
N122 Co111 1.995 . S
N122 C123 1.376 . S
N122 C126 1.383 . S
C123 N122 1.376 . S
C123 C124 1.446 . S
C123 C146 1.391 . S
C124 C123 1.446 . S
C124 C125 1.339 . S
C124 H153 0.949 . S
C125 C124 1.339 . S
C125 C126 1.439 . S
C125 H154 0.950 . S
C126 N122 1.383 . S
C126 C125 1.439 . S
C126 C144 1.392 . S
N127 Co111 2.282 . S
N127 C130 1.332 . S
N127 C132 1.332 . S
C128 C129 1.386 . S
C128 C131 1.388 . S
C129 C128 1.386 . S
C129 C130 1.382 . S
C129 H155 0.950 . S
C130 N127 1.332 . S
C130 C129 1.382 . S
C130 H141 0.952 . S
C131 C128 1.388 . S
C131 C132 1.382 . S
C131 H156 0.950 . S
C132 N127 1.332 . S
C132 C131 1.382 . S
C132 H142 0.948 . S
N133 Co111 2.282 . S
N133 C137 1.332 . S
N133 C138 1.332 . S
C134 C135 1.388 . S
C134 C138 1.382 . S
C134 H157 0.950 . S
C135 C134 1.388 . S
C135 C136 1.386 . S
C136 C135 1.386 . S
C136 C137 1.382 . S
C136 H158 0.950 . S
C137 N133 1.332 . S
C137 C136 1.382 . S
C137 H139 0.952 . S
C138 N133 1.332 . S
C138 C134 1.382 . S
C138 H140 0.948 . S
H139 C137 0.952 . S
H140 C138 0.948 . S
H141 C130 0.952 . S
H142 C132 0.948 . S
C143 C109 1.395 . S
C143 C113 1.391 . S
C144 C106 1.389 . S
C144 C126 1.392 . S
C145 C116 1.392 . S
C145 C118 1.389 . S
C146 C121 1.395 . S
C146 C123 1.391 . S
H147 C107 0.951 . S
H148 C108 0.950 . S
H149 C114 0.949 . S
H150 C115 0.950 . S
H151 C119 0.951 . S
H152 C120 0.950 . S
H153 C124 0.949 . S
H154 C125 0.950 . S
H155 C129 0.950 . S
H156 C131 0.950 . S
H157 C134 0.950 . S
H158 C136 0.950 . S
C159 C160 1.443 . S
C159 N163 1.376 . S
C159 C197 1.389 . S
C160 C159 1.443 . S
C160 C161 1.340 . S
C160 H200 0.951 . S
C161 C160 1.340 . S
C161 C162 1.439 . S
C161 H201 0.950 . S
C162 C161 1.439 . S
C162 N163 1.374 . S
C162 C196 1.395 . S
N163 C159 1.376 . S
N163 C162 1.374 . S
N163 Co164 2.008 . S
Co164 N163 2.008 . S
Co164 N165 1.995 . S
Co164 N170 2.008 . S
Co164 N175 1.995 . S
Co164 N180 2.282 . S
Co164 N186 2.282 . S
N165 Co164 1.995 . S
N165 C166 1.376 . S
N165 C169 1.383 . S
C166 N165 1.376 . S
C166 C167 1.446 . S
C166 C196 1.391 . S
C167 C166 1.446 . S
C167 C168 1.339 . S
C167 H202 0.949 . S
C168 C167 1.339 . S
C168 C169 1.439 . S
C168 H203 0.950 . S
C169 N165 1.383 . S
C169 C168 1.439 . S
C169 C198 1.392 . S
N170 Co164 2.008 . S
N170 C171 1.376 . S
N170 C174 1.374 . S
C171 N170 1.376 . S
C171 C172 1.443 . S
C171 C198 1.389 . S
C172 C171 1.443 . S
C172 C173 1.340 . S
C172 H204 0.951 . S
C173 C172 1.340 . S
C173 C174 1.439 . S
C173 H205 0.950 . S
C174 N170 1.374 . S
C174 C173 1.439 . S
C174 C199 1.395 . S
N175 Co164 1.995 . S
N175 C176 1.376 . S
N175 C179 1.383 . S
C176 N175 1.376 . S
C176 C177 1.446 . S
C176 C199 1.391 . S
C177 C176 1.446 . S
C177 C178 1.339 . S
C177 H206 0.949 . S
C178 C177 1.339 . S
C178 C179 1.439 . S
C178 H207 0.950 . S
C179 N175 1.383 . S
C179 C178 1.439 . S
C179 C197 1.392 . S
N180 Co164 2.282 . S
N180 C183 1.332 . S
N180 C185 1.332 . S
C181 C182 1.386 . S
C181 C184 1.388 . S
C182 C181 1.386 . S
C182 C183 1.382 . S
C182 H208 0.950 . S
C183 N180 1.332 . S
C183 C182 1.382 . S
C183 H194 0.952 . S
C184 C181 1.388 . S
C184 C185 1.382 . S
C184 H209 0.950 . S
C185 N180 1.332 . S
C185 C184 1.382 . S
C185 H195 0.948 . S
N186 Co164 2.282 . S
N186 C190 1.332 . S
N186 C191 1.332 . S
C187 C188 1.388 . S
C187 C191 1.382 . S
C187 H210 0.950 . S
C188 C187 1.388 . S
C188 C189 1.386 . S
C189 C188 1.386 . S
C189 C190 1.382 . S
C189 H211 0.950 . S
C190 N186 1.332 . S
C190 C189 1.382 . S
C190 H192 0.952 . S
C191 N186 1.332 . S
C191 C187 1.382 . S
C191 H193 0.948 . S
H192 C190 0.952 . S
H193 C191 0.948 . S
H194 C183 0.952 . S
H195 C185 0.948 . S
C196 C162 1.395 . S
C196 C166 1.391 . S
C197 C159 1.389 . S
C197 C179 1.392 . S
C198 C169 1.392 . S
C198 C171 1.389 . S
C199 C174 1.395 . S
C199 C176 1.391 . S
H200 C160 0.951 . S
H201 C161 0.950 . S
H202 C167 0.949 . S
H203 C168 0.950 . S
H204 C172 0.951 . S
H205 C173 0.950 . S
H206 C177 0.949 . S
H207 C178 0.950 . S
H208 C182 0.950 . S
H209 C184 0.950 . S
H210 C187 0.950 . S
H211 C189 0.950 . S
C212 C213 1.443 . S
C212 N216 1.376 . S
C212 C250 1.389 1_655 S
C213 C212 1.443 . S
C213 C214 1.340 . S
C213 H253 0.951 . S
C214 C213 1.340 . S
C214 C215 1.439 . S
C214 H254 0.950 . S
C215 C214 1.439 . S
C215 N216 1.374 . S
C215 C249 1.395 . S
N216 C212 1.376 . S
N216 C215 1.374 . S
N216 Co217 2.008 1_655 S
Co217 N216 2.008 1_455 S
Co217 N218 1.995 1_455 S
Co217 N223 2.008 . S
Co217 N228 1.995 . S
Co217 N233 2.282 . S
Co217 N239 2.282 . S
N218 Co217 1.995 1_655 S
N218 C219 1.376 . S
N218 C222 1.383 . S
C219 N218 1.376 . S
C219 C220 1.446 . S
C219 C249 1.391 . S
C220 C219 1.446 . S
C220 C221 1.339 . S
C220 H255 0.949 . S
C221 C220 1.339 . S
C221 C222 1.439 . S
C221 H256 0.950 . S
C222 N218 1.383 . S
C222 C221 1.439 . S
C222 C251 1.392 1_655 S
N223 Co217 2.008 . S
N223 C224 1.376 . S
N223 C227 1.374 . S
C224 N223 1.376 . S
C224 C225 1.443 . S
C224 C251 1.389 . S
C225 C224 1.443 . S
C225 C226 1.340 . S
C225 H257 0.951 . S
C226 C225 1.340 . S
C226 C227 1.439 . S
C226 H258 0.950 . S
C227 N223 1.374 . S
C227 C226 1.439 . S
C227 C252 1.395 . S
N228 Co217 1.995 . S
N228 C229 1.376 . S
N228 C232 1.383 . S
C229 N228 1.376 . S
C229 C230 1.446 . S
C229 C252 1.391 . S
C230 C229 1.446 . S
C230 C231 1.339 . S
C230 H259 0.949 . S
C231 C230 1.339 . S
C231 C232 1.439 . S
C231 H260 0.950 . S
C232 N228 1.383 . S
C232 C231 1.439 . S
C232 C250 1.392 . S
N233 Co217 2.282 . S
N233 C236 1.332 . S
N233 C238 1.332 . S
C234 C235 1.386 . S
C234 C237 1.388 . S
C235 C234 1.386 . S
C235 C236 1.382 . S
C235 H261 0.950 . S
C236 N233 1.332 . S
C236 C235 1.382 . S
C236 H247 0.952 . S
C237 C234 1.388 . S
C237 C238 1.382 . S
C237 H262 0.950 . S
C238 N233 1.332 . S
C238 C237 1.382 . S
C238 H248 0.948 . S
N239 Co217 2.282 . S
N239 C243 1.332 1_455 S
N239 C244 1.332 . S
C240 C241 1.388 1_455 S
C240 C244 1.382 . S
C240 H263 0.950 . S
C241 C240 1.388 1_655 S
C241 C242 1.386 . S
C242 C241 1.386 . S
C242 C243 1.382 . S
C242 H264 0.950 . S
C243 N239 1.332 1_655 S
C243 C242 1.382 . S
C243 H245 0.952 . S
C244 N239 1.332 . S
C244 C240 1.382 . S
C244 H246 0.948 . S
H245 C243 0.952 . S
H246 C244 0.948 . S
H247 C236 0.952 . S
H248 C238 0.948 . S
C249 C215 1.395 . S
C249 C219 1.391 . S
C250 C212 1.389 1_455 S
C250 C232 1.392 . S
C251 C222 1.392 1_455 S
C251 C224 1.389 . S
C252 C227 1.395 . S
C252 C229 1.391 . S
H253 C213 0.951 . S
H254 C214 0.950 . S
H255 C220 0.949 . S
H256 C221 0.950 . S
H257 C225 0.951 . S
H258 C226 0.950 . S
H259 C230 0.949 . S
H260 C231 0.950 . S
H261 C235 0.950 . S
H262 C237 0.950 . S
H263 C240 0.950 . S
H264 C242 0.950 . S
C265 C266 1.443 . S
C265 N269 1.376 . S
C265 C303 1.389 . S
C266 C265 1.443 . S
C266 C267 1.340 . S
C266 H306 0.951 . S
C267 C266 1.340 . S
C267 C268 1.439 . S
C267 H307 0.950 . S
C268 C267 1.439 . S
C268 N269 1.374 . S
C268 C302 1.395 . S
N269 C265 1.376 . S
N269 C268 1.374 . S
N269 Co270 2.008 . S
Co270 N269 2.008 . S
Co270 N271 1.995 . S
Co270 N276 2.008 . S
Co270 N281 1.995 . S
Co270 N286 2.282 . S
Co270 N292 2.282 . S
N271 Co270 1.995 . S
N271 C272 1.376 . S
N271 C275 1.383 . S
C272 N271 1.376 . S
C272 C273 1.446 . S
C272 C302 1.391 . S
C273 C272 1.446 . S
C273 C274 1.339 . S
C273 H308 0.949 . S
C274 C273 1.339 . S
C274 C275 1.439 . S
C274 H309 0.950 . S
C275 N271 1.383 . S
C275 C274 1.439 . S
C275 C304 1.392 . S
N276 Co270 2.008 . S
N276 C277 1.376 . S
N276 C280 1.374 . S
C277 N276 1.376 . S
C277 C278 1.443 . S
C277 C304 1.389 . S
C278 C277 1.443 . S
C278 C279 1.340 . S
C278 H310 0.951 . S
C279 C278 1.340 . S
C279 C280 1.439 . S
C279 H311 0.950 . S
C280 N276 1.374 . S
C280 C279 1.439 . S
C280 C305 1.395 . S
N281 Co270 1.995 . S
N281 C282 1.376 . S
N281 C285 1.383 . S
C282 N281 1.376 . S
C282 C283 1.446 . S
C282 C305 1.391 . S
C283 C282 1.446 . S
C283 C284 1.339 . S
C283 H312 0.949 . S
C284 C283 1.339 . S
C284 C285 1.439 . S
C284 H313 0.950 . S
C285 N281 1.383 . S
C285 C284 1.439 . S
C285 C303 1.392 . S
N286 Co270 2.282 . S
N286 C289 1.332 . S
N286 C291 1.332 . S
C287 C288 1.386 . S
C287 C290 1.388 . S
C288 C287 1.386 . S
C288 C289 1.382 . S
C288 H314 0.950 . S
C289 N286 1.332 . S
C289 C288 1.382 . S
C289 H300 0.952 . S
C290 C287 1.388 . S
C290 C291 1.382 . S
C290 H315 0.950 . S
C291 N286 1.332 . S
C291 C290 1.382 . S
C291 H301 0.948 . S
N292 Co270 2.282 . S
N292 C296 1.332 . S
N292 C297 1.332 . S
C293 C294 1.388 . S
C293 C297 1.382 . S
C293 H316 0.950 . S
C294 C293 1.388 . S
C294 C295 1.386 . S
C295 C294 1.386 . S
C295 C296 1.382 . S
C295 H317 0.950 . S
C296 N292 1.332 . S
C296 C295 1.382 . S
C296 H298 0.952 . S
C297 N292 1.332 . S
C297 C293 1.382 . S
C297 H299 0.948 . S
H298 C296 0.952 . S
H299 C297 0.948 . S
H300 C289 0.952 . S
H301 C291 0.948 . S
C302 C268 1.395 . S
C302 C272 1.391 . S
C303 C265 1.389 . S
C303 C285 1.392 . S
C304 C275 1.392 . S
C304 C277 1.389 . S
C305 C280 1.395 . S
C305 C282 1.391 . S
H306 C266 0.951 . S
H307 C267 0.950 . S
H308 C273 0.949 . S
H309 C274 0.950 . S
H310 C278 0.951 . S
H311 C279 0.950 . S
H312 C283 0.949 . S
H313 C284 0.950 . S
H314 C288 0.950 . S
H315 C290 0.950 . S
H316 C293 0.950 . S
H317 C295 0.950 . S
C318 C319 1.443 . S
C318 N322 1.376 1_554 S
C318 C356 1.389 . S
C319 C318 1.443 . S
C319 C320 1.340 . S
C319 H359 0.951 . S
C320 C319 1.340 . S
C320 C321 1.439 1_554 S
C320 H360 0.950 . S
C321 C320 1.439 1_556 S
C321 N322 1.374 . S
C321 C355 1.395 . S
N322 C318 1.376 1_556 S
N322 C321 1.374 . S
N322 Co323 2.008 . S
Co323 N322 2.008 . S
Co323 N324 1.995 . S
Co323 N329 2.008 . S
Co323 N334 1.995 . S
Co323 N339 2.282 . S
Co323 N345 2.282 . S
N324 Co323 1.995 . S
N324 C325 1.376 . S
N324 C328 1.383 . S
C325 N324 1.376 . S
C325 C326 1.446 . S
C325 C355 1.391 . S
C326 C325 1.446 . S
C326 C327 1.339 . S
C326 H361 0.949 . S
C327 C326 1.339 . S
C327 C328 1.439 . S
C327 H362 0.950 . S
C328 N324 1.383 . S
C328 C327 1.439 . S
C328 C357 1.392 . S
N329 Co323 2.008 . S
N329 C330 1.376 . S
N329 C333 1.374 . S
C330 N329 1.376 . S
C330 C331 1.443 . S
C330 C357 1.389 . S
C331 C330 1.443 . S
C331 C332 1.340 . S
C331 H363 0.951 . S
C332 C331 1.340 . S
C332 C333 1.439 . S
C332 H364 0.950 . S
C333 N329 1.374 . S
C333 C332 1.439 . S
C333 C358 1.395 . S
N334 Co323 1.995 . S
N334 C335 1.376 . S
N334 C338 1.383 1_556 S
C335 N334 1.376 . S
C335 C336 1.446 1_556 S
C335 C358 1.391 . S
C336 C335 1.446 1_554 S
C336 C337 1.339 . S
C336 H365 0.949 . S
C337 C336 1.339 . S
C337 C338 1.439 . S
C337 H366 0.950 . S
C338 N334 1.383 1_554 S
C338 C337 1.439 . S
C338 C356 1.392 . S
N339 Co323 2.282 . S
N339 C342 1.332 . S
N339 C344 1.332 . S
C340 C341 1.386 . S
C340 C343 1.388 . S
C341 C340 1.386 . S
C341 C342 1.382 . S
C341 H367 0.950 . S
C342 N339 1.332 . S
C342 C341 1.382 . S
C342 H353 0.952 . S
C343 C340 1.388 . S
C343 C344 1.382 . S
C343 H368 0.950 . S
C344 N339 1.332 . S
C344 C343 1.382 . S
C344 H354 0.948 . S
N345 Co323 2.282 . S
N345 C349 1.332 . S
N345 C350 1.332 . S
C346 C347 1.388 . S
C346 C350 1.382 . S
C346 H369 0.950 . S
C347 C346 1.388 . S
C347 C348 1.386 . S
C348 C347 1.386 . S
C348 C349 1.382 . S
C348 H370 0.950 . S
C349 N345 1.332 . S
C349 C348 1.382 . S
C349 H351 0.952 . S
C350 N345 1.332 . S
C350 C346 1.382 . S
C350 H352 0.948 . S
H351 C349 0.952 . S
H352 C350 0.948 . S
H353 C342 0.952 . S
H354 C344 0.948 . S
C355 C321 1.395 . S
C355 C325 1.391 . S
C356 C318 1.389 . S
C356 C338 1.392 . S
C357 C328 1.392 . S
C357 C330 1.389 . S
C358 C333 1.395 . S
C358 C335 1.391 . S
H359 C319 0.951 . S
H360 C320 0.950 . S
H361 C326 0.949 . S
H362 C327 0.950 . S
H363 C331 0.951 . S
H364 C332 0.950 . S
H365 C336 0.949 . S
H366 C337 0.950 . S
H367 C341 0.950 . S
H368 C343 0.950 . S
H369 C346 0.950 . S
H370 C348 0.950 . S
C371 C372 1.443 . S
C371 N375 1.376 . S
C371 C409 1.389 . S
C372 C371 1.443 . S
C372 C373 1.340 . S
C372 H412 0.951 . S
C373 C372 1.340 . S
C373 C374 1.439 . S
C373 H413 0.950 . S
C374 C373 1.439 . S
C374 N375 1.374 . S
C374 C408 1.395 . S
N375 C371 1.376 . S
N375 C374 1.374 . S
N375 Co376 2.008 . S
Co376 N375 2.008 . S
Co376 N377 1.995 . S
Co376 N382 2.008 . S
Co376 N387 1.995 . S
Co376 N392 2.282 . S
Co376 N398 2.282 . S
N377 Co376 1.995 . S
N377 C378 1.376 . S
N377 C381 1.383 . S
C378 N377 1.376 . S
C378 C379 1.446 . S
C378 C408 1.391 . S
C379 C378 1.446 . S
C379 C380 1.339 . S
C379 H414 0.949 . S
C380 C379 1.339 . S
C380 C381 1.439 . S
C380 H415 0.950 . S
C381 N377 1.383 . S
C381 C380 1.439 . S
C381 C410 1.392 . S
N382 Co376 2.008 . S
N382 C383 1.376 . S
N382 C386 1.374 . S
C383 N382 1.376 . S
C383 C384 1.443 . S
C383 C410 1.389 . S
C384 C383 1.443 . S
C384 C385 1.340 . S
C384 H416 0.951 . S
C385 C384 1.340 . S
C385 C386 1.439 . S
C385 H417 0.950 . S
C386 N382 1.374 . S
C386 C385 1.439 . S
C386 C411 1.395 . S
N387 Co376 1.995 . S
N387 C388 1.376 . S
N387 C391 1.383 . S
C388 N387 1.376 . S
C388 C389 1.446 . S
C388 C411 1.391 . S
C389 C388 1.446 . S
C389 C390 1.339 . S
C389 H418 0.949 . S
C390 C389 1.339 . S
C390 C391 1.439 . S
C390 H419 0.950 . S
C391 N387 1.383 . S
C391 C390 1.439 . S
C391 C409 1.392 . S
N392 Co376 2.282 . S
N392 C395 1.332 . S
N392 C397 1.332 . S
C393 C394 1.386 . S
C393 C396 1.388 . S
C394 C393 1.386 . S
C394 C395 1.382 . S
C394 H420 0.950 . S
C395 N392 1.332 . S
C395 C394 1.382 . S
C395 H406 0.952 . S
C396 C393 1.388 . S
C396 C397 1.382 . S
C396 H421 0.950 . S
C397 N392 1.332 . S
C397 C396 1.382 . S
C397 H407 0.948 . S
N398 Co376 2.282 . S
N398 C402 1.332 . S
N398 C403 1.332 . S
C399 C400 1.388 . S
C399 C403 1.382 . S
C399 H422 0.950 . S
C400 C399 1.388 . S
C400 C401 1.386 . S
C401 C400 1.386 . S
C401 C402 1.382 . S
C401 H423 0.950 . S
C402 N398 1.332 . S
C402 C401 1.382 . S
C402 H404 0.952 . S
C403 N398 1.332 . S
C403 C399 1.382 . S
C403 H405 0.948 . S
H404 C402 0.952 . S
H405 C403 0.948 . S
H406 C395 0.952 . S
H407 C397 0.948 . S
C408 C374 1.395 . S
C408 C378 1.391 . S
C409 C371 1.389 . S
C409 C391 1.392 . S
C410 C381 1.392 . S
C410 C383 1.389 . S
C411 C386 1.395 . S
C411 C388 1.391 . S
H412 C372 0.951 . S
H413 C373 0.950 . S
H414 C379 0.949 . S
H415 C380 0.950 . S
H416 C384 0.951 . S
H417 C385 0.950 . S
H418 C389 0.949 . S
H419 C390 0.950 . S
H420 C394 0.950 . S
H421 C396 0.950 . S
H422 C399 0.950 . S
H423 C401 0.950 . S
C424 C425 1.443 . S
C424 N428 1.376 1_554 S
C424 C462 1.389 . S
C425 C424 1.443 . S
C425 C426 1.340 . S
C425 H465 0.951 . S
C426 C425 1.340 . S
C426 C427 1.439 1_554 S
C426 H466 0.950 . S
C427 C426 1.439 1_556 S
C427 N428 1.374 . S
C427 C461 1.395 . S
N428 C424 1.376 1_556 S
N428 C427 1.374 . S
N428 Co429 2.008 . S
Co429 N428 2.008 . S
Co429 N430 1.995 . S
Co429 N435 2.008 1_655 S
Co429 N440 1.995 1_655 S
Co429 N445 2.282 . S
Co429 N451 2.255 1_655 S
N430 Co429 1.995 . S
N430 C431 1.376 . S
N430 C434 1.383 . S
C431 N430 1.376 . S
C431 C432 1.446 . S
C431 C461 1.391 . S
C432 C431 1.446 . S
C432 C433 1.339 . S
C432 H467 0.949 . S
C433 C432 1.339 . S
C433 C434 1.439 . S
C433 H468 0.950 . S
C434 N430 1.383 . S
C434 C433 1.439 . S
C434 C463 1.392 . S
N435 Co429 2.008 1_455 S
N435 C436 1.391 . S
N435 C439 1.374 . S
C436 N435 1.391 . S
C436 C437 1.501 . S
C436 C463 1.328 1_455 S
C437 C436 1.501 . S
C437 C438 1.340 . S
C437 H469 0.951 . S
C438 C437 1.340 . S
C438 C439 1.439 . S
C438 H470 0.950 . S
C439 N435 1.374 . S
C439 C438 1.439 . S
C439 C464 1.395 . S
N440 Co429 1.995 1_455 S
N440 C441 1.376 . S
N440 C444 1.394 1_556 S
C441 N440 1.376 . S
C441 C442 1.446 1_556 S
C441 C464 1.391 . S
C442 C441 1.446 1_554 S
C442 C443 1.339 . S
C442 H471 0.949 . S
C443 C442 1.339 . S
C443 C444 1.502 . S
C443 H472 0.950 . S
C444 N440 1.394 1_554 S
C444 C443 1.502 . S
C444 C462 1.333 1_455 S
N445 Co429 2.282 . S
N445 C448 1.332 . S
N445 C450 1.332 . S
C446 C447 1.386 . S
C446 C449 1.388 . S
C447 C446 1.386 . S
C447 C448 1.382 . S
C447 H473 0.950 . S
C448 N445 1.332 . S
C448 C447 1.382 . S
C448 H459 0.952 . S
C449 C446 1.388 . S
C449 C450 1.382 . S
C449 H474 0.950 . S
C450 N445 1.332 . S
C450 C449 1.382 . S
C450 H460 0.948 . S
N451 Co429 2.255 1_455 S
N451 C455 1.301 1_455 S
N451 C456 1.388 . S
C452 C453 1.388 . S
C452 C456 1.382 . S
C452 H475 0.950 . S
C453 C452 1.388 . S
C453 C454 1.386 1_455 S
C454 C453 1.386 1_655 S
C454 C455 1.382 . S
C454 H476 0.950 . S
C455 N451 1.301 1_655 S
C455 C454 1.382 . S
C455 H457 0.952 . S
C456 N451 1.388 . S
C456 C452 1.382 . S
C456 H458 0.948 . S
H457 C455 0.952 . S
H458 C456 0.948 . S
H459 C448 0.952 . S
H460 C450 0.948 . S
C461 C427 1.395 . S
C461 C431 1.391 . S
C462 C424 1.389 . S
C462 C444 1.333 1_655 S
C463 C434 1.392 . S
C463 C436 1.328 1_655 S
C464 C439 1.395 . S
C464 C441 1.391 . S
H465 C425 0.951 . S
H466 C426 0.950 . S
H467 C432 0.949 . S
H468 C433 0.950 . S
H469 C437 0.951 . S
H470 C438 0.950 . S
H471 C442 0.949 . S
H472 C443 0.950 . S
H473 C447 0.950 . S
H474 C449 0.950 . S
H475 C452 0.950 . S
H476 C454 0.950 . S
C477 C478 1.443 . S
C477 N481 1.376 . S
C477 C515 1.389 . S
C478 C477 1.443 . S
C478 C479 1.340 . S
C478 H518 0.951 . S
C479 C478 1.340 . S
C479 C480 1.439 . S
C479 H519 0.950 . S
C480 C479 1.439 . S
C480 N481 1.374 . S
C480 C514 1.395 . S
N481 C477 1.376 . S
N481 C480 1.374 . S
N481 Co482 2.008 . S
Co482 N481 2.008 . S
Co482 N483 1.995 . S
Co482 N488 2.008 . S
Co482 N493 1.995 . S
Co482 N498 2.282 . S
Co482 N504 2.282 . S
N483 Co482 1.995 . S
N483 C484 1.376 . S
N483 C487 1.383 . S
C484 N483 1.376 . S
C484 C485 1.446 . S
C484 C514 1.391 . S
C485 C484 1.446 . S
C485 C486 1.339 . S
C485 H520 0.949 . S
C486 C485 1.339 . S
C486 C487 1.439 . S
C486 H521 0.950 . S
C487 N483 1.383 . S
C487 C486 1.439 . S
C487 C516 1.392 . S
N488 Co482 2.008 . S
N488 C489 1.376 . S
N488 C492 1.374 . S
C489 N488 1.376 . S
C489 C490 1.443 . S
C489 C516 1.389 . S
C490 C489 1.443 . S
C490 C491 1.340 . S
C490 H522 0.951 . S
C491 C490 1.340 . S
C491 C492 1.439 . S
C491 H523 0.950 . S
C492 N488 1.374 . S
C492 C491 1.439 . S
C492 C517 1.395 . S
N493 Co482 1.995 . S
N493 C494 1.376 . S
N493 C497 1.383 . S
C494 N493 1.376 . S
C494 C495 1.446 . S
C494 C517 1.391 . S
C495 C494 1.446 . S
C495 C496 1.339 . S
C495 H524 0.949 . S
C496 C495 1.339 . S
C496 C497 1.439 . S
C496 H525 0.950 . S
C497 N493 1.383 . S
C497 C496 1.439 . S
C497 C515 1.392 . S
N498 Co482 2.282 . S
N498 C501 1.332 . S
N498 C503 1.332 . S
C499 C500 1.386 . S
C499 C502 1.388 . S
C500 C499 1.386 . S
C500 C501 1.382 . S
C500 H526 0.950 . S
C501 N498 1.332 . S
C501 C500 1.382 . S
C501 H512 0.952 . S
C502 C499 1.388 . S
C502 C503 1.382 . S
C502 H527 0.950 . S
C503 N498 1.332 . S
C503 C502 1.382 . S
C503 H513 0.948 . S
N504 Co482 2.282 . S
N504 C508 1.332 . S
N504 C509 1.332 . S
C505 C506 1.388 . S
C505 C509 1.382 . S
C505 H528 0.950 . S
C506 C505 1.388 . S
C506 C507 1.386 . S
C507 C506 1.386 . S
C507 C508 1.382 . S
C507 H529 0.950 . S
C508 N504 1.332 . S
C508 C507 1.382 . S
C508 H510 0.952 . S
C509 N504 1.332 . S
C509 C505 1.382 . S
C509 H511 0.948 . S
H510 C508 0.952 . S
H511 C509 0.948 . S
H512 C501 0.952 . S
H513 C503 0.948 . S
C514 C480 1.395 . S
C514 C484 1.391 . S
C515 C477 1.389 . S
C515 C497 1.392 . S
C516 C487 1.392 . S
C516 C489 1.389 . S
C517 C492 1.395 . S
C517 C494 1.391 . S
H518 C478 0.951 . S
H519 C479 0.950 . S
H520 C485 0.949 . S
H521 C486 0.950 . S
H522 C490 0.951 . S
H523 C491 0.950 . S
H524 C495 0.949 . S
H525 C496 0.950 . S
H526 C500 0.950 . S
H527 C502 0.950 . S
H528 C505 0.950 . S
H529 C507 0.950 . S
C530 C531 1.443 . S
C530 N534 1.376 . S
C530 C568 1.389 . S
C531 C530 1.443 . S
C531 C532 1.340 . S
C531 H571 0.951 . S
C532 C531 1.340 . S
C532 C533 1.439 . S
C532 H572 0.950 . S
C533 C532 1.439 . S
C533 N534 1.374 . S
C533 C567 1.395 . S
N534 C530 1.376 . S
N534 C533 1.374 . S
N534 Co535 2.008 . S
Co535 N534 2.008 . S
Co535 N536 1.995 . S
Co535 N541 2.008 . S
Co535 N546 1.995 . S
Co535 N551 2.282 . S
Co535 N557 2.282 . S
N536 Co535 1.995 . S
N536 C537 1.376 . S
N536 C540 1.383 . S
C537 N536 1.376 . S
C537 C538 1.446 . S
C537 C567 1.391 . S
C538 C537 1.446 . S
C538 C539 1.339 . S
C538 H573 0.949 . S
C539 C538 1.339 . S
C539 C540 1.439 . S
C539 H574 0.950 . S
C540 N536 1.383 . S
C540 C539 1.439 . S
C540 C569 1.392 . S
N541 Co535 2.008 . S
N541 C542 1.376 . S
N541 C545 1.374 . S
C542 N541 1.376 . S
C542 C543 1.443 . S
C542 C569 1.389 . S
C543 C542 1.443 . S
C543 C544 1.340 . S
C543 H575 0.951 . S
C544 C543 1.340 . S
C544 C545 1.439 . S
C544 H576 0.950 . S
C545 N541 1.374 . S
C545 C544 1.439 . S
C545 C570 1.395 . S
N546 Co535 1.995 . S
N546 C547 1.376 . S
N546 C550 1.383 . S
C547 N546 1.376 . S
C547 C548 1.446 . S
C547 C570 1.391 . S
C548 C547 1.446 . S
C548 C549 1.339 . S
C548 H577 0.949 . S
C549 C548 1.339 . S
C549 C550 1.439 . S
C549 H578 0.950 . S
C550 N546 1.383 . S
C550 C549 1.439 . S
C550 C568 1.392 . S
N551 Co535 2.282 . S
N551 C554 1.332 . S
N551 C556 1.332 . S
C552 C553 1.386 . S
C552 C555 1.388 . S
C553 C552 1.386 . S
C553 C554 1.382 . S
C553 H579 0.950 . S
C554 N551 1.332 . S
C554 C553 1.382 . S
C554 H565 0.952 . S
C555 C552 1.388 . S
C555 C556 1.382 . S
C555 H580 0.950 . S
C556 N551 1.332 . S
C556 C555 1.382 . S
C556 H566 0.948 . S
N557 Co535 2.282 . S
N557 C561 1.332 . S
N557 C562 1.332 . S
C558 C559 1.388 . S
C558 C562 1.382 . S
C558 H581 0.950 . S
C559 C558 1.388 . S
C559 C560 1.386 . S
C560 C559 1.386 . S
C560 C561 1.382 . S
C560 H582 0.950 . S
C561 N557 1.332 . S
C561 C560 1.382 . S
C561 H563 0.952 . S
C562 N557 1.332 . S
C562 C558 1.382 . S
C562 H564 0.948 . S
H563 C561 0.952 . S
H564 C562 0.948 . S
H565 C554 0.952 . S
H566 C556 0.948 . S
C567 C533 1.395 . S
C567 C537 1.391 . S
C568 C530 1.389 . S
C568 C550 1.392 . S
C569 C540 1.392 . S
C569 C542 1.389 . S
C570 C545 1.395 . S
C570 C547 1.391 . S
H571 C531 0.951 . S
H572 C532 0.950 . S
H573 C538 0.949 . S
H574 C539 0.950 . S
H575 C543 0.951 . S
H576 C544 0.950 . S
H577 C548 0.949 . S
H578 C549 0.950 . S
H579 C553 0.950 . S
H580 C555 0.950 . S
H581 C558 0.950 . S
H582 C560 0.950 . S
C583 C584 1.443 . S
C583 N587 1.376 . S
C583 C621 1.389 . S
C584 C583 1.443 . S
C584 C585 1.340 . S
C584 H624 0.951 . S
C585 C584 1.340 . S
C585 C586 1.439 . S
C585 H625 0.950 . S
C586 C585 1.439 . S
C586 N587 1.374 . S
C586 C620 1.395 . S
N587 C583 1.376 . S
N587 C586 1.374 . S
N587 Co588 2.008 . S
Co588 N587 2.008 . S
Co588 N589 1.995 . S
Co588 N594 2.008 . S
Co588 N599 1.995 . S
Co588 N604 2.282 . S
Co588 N610 2.282 . S
N589 Co588 1.995 . S
N589 C590 1.376 . S
N589 C593 1.383 . S
C590 N589 1.376 . S
C590 C591 1.446 . S
C590 C620 1.391 . S
C591 C590 1.446 . S
C591 C592 1.339 . S
C591 H626 0.949 . S
C592 C591 1.339 . S
C592 C593 1.439 . S
C592 H627 0.950 . S
C593 N589 1.383 . S
C593 C592 1.439 . S
C593 C622 1.392 . S
N594 Co588 2.008 . S
N594 C595 1.376 . S
N594 C598 1.374 . S
C595 N594 1.376 . S
C595 C596 1.443 . S
C595 C622 1.389 . S
C596 C595 1.443 . S
C596 C597 1.340 . S
C596 H628 0.951 . S
C597 C596 1.340 . S
C597 C598 1.439 . S
C597 H629 0.950 . S
C598 N594 1.374 . S
C598 C597 1.439 . S
C598 C623 1.395 . S
N599 Co588 1.995 . S
N599 C600 1.376 . S
N599 C603 1.383 . S
C600 N599 1.376 . S
C600 C601 1.446 . S
C600 C623 1.391 . S
C601 C600 1.446 . S
C601 C602 1.339 . S
C601 H630 0.949 . S
C602 C601 1.339 . S
C602 C603 1.439 . S
C602 H631 0.950 . S
C603 N599 1.383 . S
C603 C602 1.439 . S
C603 C621 1.392 . S
N604 Co588 2.282 . S
N604 C607 1.332 . S
N604 C609 1.332 . S
C605 C606 1.386 . S
C605 C608 1.388 . S
C606 C605 1.386 . S
C606 C607 1.382 . S
C606 H632 0.950 . S
C607 N604 1.332 . S
C607 C606 1.382 . S
C607 H618 0.952 . S
C608 C605 1.388 . S
C608 C609 1.382 . S
C608 H633 0.950 . S
C609 N604 1.332 . S
C609 C608 1.382 . S
C609 H619 0.948 . S
N610 Co588 2.282 . S
N610 C614 1.332 . S
N610 C615 1.332 . S
C611 C612 1.388 . S
C611 C615 1.382 . S
C611 H634 0.950 . S
C612 C611 1.388 . S
C612 C613 1.386 . S
C613 C612 1.386 . S
C613 C614 1.382 . S
C613 H635 0.950 . S
C614 N610 1.332 . S
C614 C613 1.382 . S
C614 H616 0.952 . S
C615 N610 1.332 . S
C615 C611 1.382 . S
C615 H617 0.948 . S
H616 C614 0.952 . S
H617 C615 0.948 . S
H618 C607 0.952 . S
H619 C609 0.948 . S
C620 C586 1.395 . S
C620 C590 1.391 . S
C621 C583 1.389 . S
C621 C603 1.392 . S
C622 C593 1.392 . S
C622 C595 1.389 . S
C623 C598 1.395 . S
C623 C600 1.391 . S
H624 C584 0.951 . S
H625 C585 0.950 . S
H626 C591 0.949 . S
H627 C592 0.950 . S
H628 C596 0.951 . S
H629 C597 0.950 . S
H630 C601 0.949 . S
H631 C602 0.950 . S
H632 C606 0.950 . S
H633 C608 0.950 . S
H634 C611 0.950 . S
H635 C613 0.950 . S
C636 C637 1.443 . S
C636 N640 1.376 . S
C636 C674 1.389 . S
C637 C636 1.443 . S
C637 C638 1.340 . S
C637 H677 0.951 . S
C638 C637 1.340 . S
C638 C639 1.439 . S
C638 H678 0.950 . S
C639 C638 1.439 . S
C639 N640 1.374 . S
C639 C673 1.395 . S
N640 C636 1.376 . S
N640 C639 1.374 . S
N640 Co641 2.008 . S
Co641 N640 2.008 . S
Co641 N642 1.995 . S
Co641 N647 2.008 1_655 S
Co641 N652 1.995 1_655 S
Co641 N657 2.282 . S
Co641 N663 2.255 1_655 S
N642 Co641 1.995 . S
N642 C643 1.376 . S
N642 C646 1.383 . S
C643 N642 1.376 . S
C643 C644 1.446 . S
C643 C673 1.391 . S
C644 C643 1.446 . S
C644 C645 1.339 . S
C644 H679 0.949 . S
C645 C644 1.339 . S
C645 C646 1.439 . S
C645 H680 0.950 . S
C646 N642 1.383 . S
C646 C645 1.439 . S
C646 C675 1.392 . S
N647 Co641 2.008 1_455 S
N647 C648 1.391 . S
N647 C651 1.374 . S
C648 N647 1.391 . S
C648 C649 1.502 . S
C648 C675 1.327 1_455 S
C649 C648 1.502 . S
C649 C650 1.340 . S
C649 H681 0.951 . S
C650 C649 1.340 . S
C650 C651 1.439 . S
C650 H682 0.950 . S
C651 N647 1.374 . S
C651 C650 1.439 . S
C651 C676 1.395 . S
N652 Co641 1.995 1_455 S
N652 C653 1.376 . S
N652 C656 1.394 . S
C653 N652 1.376 . S
C653 C654 1.446 . S
C653 C676 1.391 . S
C654 C653 1.446 . S
C654 C655 1.339 . S
C654 H683 0.949 . S
C655 C654 1.339 . S
C655 C656 1.502 . S
C655 H684 0.950 . S
C656 N652 1.394 . S
C656 C655 1.502 . S
C656 C674 1.333 1_455 S
N657 Co641 2.282 . S
N657 C660 1.332 . S
N657 C662 1.332 . S
C658 C659 1.386 . S
C658 C661 1.388 . S
C659 C658 1.386 . S
C659 C660 1.382 . S
C659 H685 0.950 . S
C660 N657 1.332 . S
C660 C659 1.382 . S
C660 H671 0.952 . S
C661 C658 1.388 . S
C661 C662 1.382 . S
C661 H686 0.950 . S
C662 N657 1.332 . S
C662 C661 1.382 . S
C662 H672 0.948 . S
N663 Co641 2.255 1_455 S
N663 C667 1.300 1_455 S
N663 C668 1.389 . S
C664 C665 1.388 . S
C664 C668 1.382 . S
C664 H687 0.950 . S
C665 C664 1.388 . S
C665 C666 1.386 1_455 S
C666 C665 1.386 1_655 S
C666 C667 1.382 . S
C666 H688 0.950 . S
C667 N663 1.300 1_655 S
C667 C666 1.382 . S
C667 H669 0.952 . S
C668 N663 1.389 . S
C668 C664 1.382 . S
C668 H670 0.948 . S
H669 C667 0.952 . S
H670 C668 0.948 . S
H671 C660 0.952 . S
H672 C662 0.948 . S
C673 C639 1.395 . S
C673 C643 1.391 . S
C674 C636 1.389 . S
C674 C656 1.333 1_655 S
C675 C646 1.392 . S
C675 C648 1.327 1_655 S
C676 C651 1.395 . S
C676 C653 1.391 . S
H677 C637 0.951 . S
H678 C638 0.950 . S
H679 C644 0.949 . S
H680 C645 0.950 . S
H681 C649 0.951 . S
H682 C650 0.950 . S
H683 C654 0.949 . S
H684 C655 0.950 . S
H685 C659 0.950 . S
H686 C661 0.950 . S
H687 C664 0.950 . S
H688 C666 0.950 . S
C689 C690 1.443 . S
C689 N693 1.376 . S
C689 C727 1.389 . S
C690 C689 1.443 . S
C690 C691 1.340 . S
C690 H730 0.951 . S
C691 C690 1.340 . S
C691 C692 1.439 . S
C691 H731 0.950 . S
C692 C691 1.439 . S
C692 N693 1.374 . S
C692 C726 1.395 . S
N693 C689 1.376 . S
N693 C692 1.374 . S
N693 Co694 2.008 . S
Co694 N693 2.008 . S
Co694 N695 1.995 . S
Co694 N700 2.008 . S
Co694 N705 1.995 . S
Co694 N710 2.282 . S
Co694 N716 2.282 . S
N695 Co694 1.995 . S
N695 C696 1.376 . S
N695 C699 1.383 . S
C696 N695 1.376 . S
C696 C697 1.446 . S
C696 C726 1.391 . S
C697 C696 1.446 . S
C697 C698 1.339 . S
C697 H732 0.949 . S
C698 C697 1.339 . S
C698 C699 1.439 . S
C698 H733 0.950 . S
C699 N695 1.383 . S
C699 C698 1.439 . S
C699 C728 1.392 . S
N700 Co694 2.008 . S
N700 C701 1.376 . S
N700 C704 1.374 . S
C701 N700 1.376 . S
C701 C702 1.443 . S
C701 C728 1.389 . S
C702 C701 1.443 . S
C702 C703 1.340 . S
C702 H734 0.951 . S
C703 C702 1.340 . S
C703 C704 1.439 . S
C703 H735 0.950 . S
C704 N700 1.374 . S
C704 C703 1.439 . S
C704 C729 1.395 . S
N705 Co694 1.995 . S
N705 C706 1.376 . S
N705 C709 1.383 . S
C706 N705 1.376 . S
C706 C707 1.446 . S
C706 C729 1.391 . S
C707 C706 1.446 . S
C707 C708 1.339 . S
C707 H736 0.949 . S
C708 C707 1.339 . S
C708 C709 1.439 . S
C708 H737 0.950 . S
C709 N705 1.383 . S
C709 C708 1.439 . S
C709 C727 1.392 . S
N710 Co694 2.282 . S
N710 C713 1.332 . S
N710 C715 1.332 . S
C711 C712 1.386 . S
C711 C714 1.388 . S
C712 C711 1.386 . S
C712 C713 1.382 . S
C712 H738 0.950 . S
C713 N710 1.332 . S
C713 C712 1.382 . S
C713 H724 0.952 . S
C714 C711 1.388 . S
C714 C715 1.382 . S
C714 H739 0.950 . S
C715 N710 1.332 . S
C715 C714 1.382 . S
C715 H725 0.948 . S
N716 Co694 2.282 . S
N716 C720 1.332 . S
N716 C721 1.332 . S
C717 C718 1.388 . S
C717 C721 1.382 . S
C717 H740 0.950 . S
C718 C717 1.388 . S
C718 C719 1.386 . S
C719 C718 1.386 . S
C719 C720 1.382 . S
C719 H741 0.950 . S
C720 N716 1.332 . S
C720 C719 1.382 . S
C720 H722 0.952 . S
C721 N716 1.332 . S
C721 C717 1.382 . S
C721 H723 0.948 . S
H722 C720 0.952 . S
H723 C721 0.948 . S
H724 C713 0.952 . S
H725 C715 0.948 . S
C726 C692 1.395 . S
C726 C696 1.391 . S
C727 C689 1.389 . S
C727 C709 1.392 . S
C728 C699 1.392 . S
C728 C701 1.389 . S
C729 C704 1.395 . S
C729 C706 1.391 . S
H730 C690 0.951 . S
H731 C691 0.950 . S
H732 C697 0.949 . S
H733 C698 0.950 . S
H734 C702 0.951 . S
H735 C703 0.950 . S
H736 C707 0.949 . S
H737 C708 0.950 . S
H738 C712 0.950 . S
H739 C714 0.950 . S
H740 C717 0.950 . S
H741 C719 0.950 . S
C742 C743 1.443 . S
C742 N746 1.376 1_556 S
C742 C780 1.389 . S
C743 C742 1.443 . S
C743 C744 1.340 . S
C743 H783 0.951 . S
C744 C743 1.340 . S
C744 C745 1.439 1_556 S
C744 H784 0.950 . S
C745 C744 1.439 1_554 S
C745 N746 1.374 . S
C745 C779 1.395 . S
N746 C742 1.376 1_554 S
N746 C745 1.374 . S
N746 Co747 2.008 . S
Co747 N746 2.008 . S
Co747 N748 1.995 . S
Co747 N753 2.008 . S
Co747 N758 1.995 . S
Co747 N763 2.282 . S
Co747 N769 2.282 . S
N748 Co747 1.995 . S
N748 C749 1.376 . S
N748 C752 1.383 . S
C749 N748 1.376 . S
C749 C750 1.446 . S
C749 C779 1.391 . S
C750 C749 1.446 . S
C750 C751 1.339 . S
C750 H785 0.949 . S
C751 C750 1.339 . S
C751 C752 1.439 . S
C751 H786 0.950 . S
C752 N748 1.383 . S
C752 C751 1.439 . S
C752 C781 1.392 . S
N753 Co747 2.008 . S
N753 C754 1.376 . S
N753 C757 1.374 . S
C754 N753 1.376 . S
C754 C755 1.443 . S
C754 C781 1.389 . S
C755 C754 1.443 . S
C755 C756 1.340 . S
C755 H787 0.951 . S
C756 C755 1.340 . S
C756 C757 1.439 . S
C756 H788 0.950 . S
C757 N753 1.374 . S
C757 C756 1.439 . S
C757 C782 1.395 . S
N758 Co747 1.995 . S
N758 C759 1.376 . S
N758 C762 1.383 1_554 S
C759 N758 1.376 . S
C759 C760 1.446 1_554 S
C759 C782 1.391 . S
C760 C759 1.446 1_556 S
C760 C761 1.339 . S
C760 H789 0.949 . S
C761 C760 1.339 . S
C761 C762 1.439 . S
C761 H790 0.950 . S
C762 N758 1.383 1_556 S
C762 C761 1.439 . S
C762 C780 1.392 . S
N763 Co747 2.282 . S
N763 C766 1.332 . S
N763 C768 1.332 . S
C764 C765 1.386 . S
C764 C767 1.388 . S
C765 C764 1.386 . S
C765 C766 1.382 . S
C765 H791 0.950 . S
C766 N763 1.332 . S
C766 C765 1.382 . S
C766 H777 0.952 . S
C767 C764 1.388 . S
C767 C768 1.382 . S
C767 H792 0.950 . S
C768 N763 1.332 . S
C768 C767 1.382 . S
C768 H778 0.948 . S
N769 Co747 2.282 . S
N769 C773 1.332 . S
N769 C774 1.332 . S
C770 C771 1.388 . S
C770 C774 1.382 . S
C770 H793 0.950 . S
C771 C770 1.388 . S
C771 C772 1.386 . S
C772 C771 1.386 . S
C772 C773 1.382 . S
C772 H794 0.950 . S
C773 N769 1.332 . S
C773 C772 1.382 . S
C773 H775 0.952 . S
C774 N769 1.332 . S
C774 C770 1.382 . S
C774 H776 0.948 . S
H775 C773 0.952 . S
H776 C774 0.948 . S
H777 C766 0.952 . S
H778 C768 0.948 . S
C779 C745 1.395 . S
C779 C749 1.391 . S
C780 C742 1.389 . S
C780 C762 1.392 . S
C781 C752 1.392 . S
C781 C754 1.389 . S
C782 C757 1.395 . S
C782 C759 1.391 . S
H783 C743 0.951 . S
H784 C744 0.950 . S
H785 C750 0.949 . S
H786 C751 0.950 . S
H787 C755 0.951 . S
H788 C756 0.950 . S
H789 C760 0.949 . S
H790 C761 0.950 . S
H791 C765 0.950 . S
H792 C767 0.950 . S
H793 C770 0.950 . S
H794 C772 0.950 . S
C795 C796 1.443 . S
C795 N799 1.376 . S
C795 C833 1.389 . S
C796 C795 1.443 . S
C796 C797 1.340 . S
C796 H836 0.951 . S
C797 C796 1.340 . S
C797 C798 1.439 . S
C797 H837 0.950 . S
C798 C797 1.439 . S
C798 N799 1.374 . S
C798 C832 1.395 . S
N799 C795 1.376 . S
N799 C798 1.374 . S
N799 Co800 2.008 . S
Co800 N799 2.008 . S
Co800 N801 1.995 . S
Co800 N806 2.008 . S
Co800 N811 1.995 . S
Co800 N816 2.282 . S
Co800 N822 2.282 . S
N801 Co800 1.995 . S
N801 C802 1.376 . S
N801 C805 1.383 . S
C802 N801 1.376 . S
C802 C803 1.446 . S
C802 C832 1.391 . S
C803 C802 1.446 . S
C803 C804 1.339 . S
C803 H838 0.949 . S
C804 C803 1.339 . S
C804 C805 1.439 . S
C804 H839 0.950 . S
C805 N801 1.383 . S
C805 C804 1.439 . S
C805 C834 1.392 . S
N806 Co800 2.008 . S
N806 C807 1.376 . S
N806 C810 1.374 . S
C807 N806 1.376 . S
C807 C808 1.443 . S
C807 C834 1.389 . S
C808 C807 1.443 . S
C808 C809 1.340 . S
C808 H840 0.951 . S
C809 C808 1.340 . S
C809 C810 1.439 . S
C809 H841 0.950 . S
C810 N806 1.374 . S
C810 C809 1.439 . S
C810 C835 1.395 . S
N811 Co800 1.995 . S
N811 C812 1.376 . S
N811 C815 1.383 . S
C812 N811 1.376 . S
C812 C813 1.446 . S
C812 C835 1.391 . S
C813 C812 1.446 . S
C813 C814 1.339 . S
C813 H842 0.949 . S
C814 C813 1.339 . S
C814 C815 1.439 . S
C814 H843 0.950 . S
C815 N811 1.383 . S
C815 C814 1.439 . S
C815 C833 1.392 . S
N816 Co800 2.282 . S
N816 C819 1.332 . S
N816 C821 1.332 . S
C817 C818 1.386 . S
C817 C820 1.388 . S
C818 C817 1.386 . S
C818 C819 1.382 . S
C818 H844 0.950 . S
C819 N816 1.332 . S
C819 C818 1.382 . S
C819 H830 0.952 . S
C820 C817 1.388 . S
C820 C821 1.382 . S
C820 H845 0.950 . S
C821 N816 1.332 . S
C821 C820 1.382 . S
C821 H831 0.948 . S
N822 Co800 2.282 . S
N822 C826 1.332 . S
N822 C827 1.332 . S
C823 C824 1.388 . S
C823 C827 1.382 . S
C823 H846 0.950 . S
C824 C823 1.388 . S
C824 C825 1.386 . S
C825 C824 1.386 . S
C825 C826 1.382 . S
C825 H847 0.950 . S
C826 N822 1.332 . S
C826 C825 1.382 . S
C826 H828 0.952 . S
C827 N822 1.332 . S
C827 C823 1.382 . S
C827 H829 0.948 . S
H828 C826 0.952 . S
H829 C827 0.948 . S
H830 C819 0.952 . S
H831 C821 0.948 . S
C832 C798 1.395 . S
C832 C802 1.391 . S
C833 C795 1.389 . S
C833 C815 1.392 . S
C834 C805 1.392 . S
C834 C807 1.389 . S
C835 C810 1.395 . S
C835 C812 1.391 . S
H836 C796 0.951 . S
H837 C797 0.950 . S
H838 C803 0.949 . S
H839 C804 0.950 . S
H840 C808 0.951 . S
H841 C809 0.950 . S
H842 C813 0.949 . S
H843 C814 0.950 . S
H844 C818 0.950 . S
H845 C820 0.950 . S
H846 C823 0.950 . S
H847 C825 0.950 . S
C848 C849 1.443 . S
C848 N852 1.376 . S
C848 C886 1.389 . S
C849 C848 1.443 . S
C849 C850 1.340 . S
C849 H889 0.951 . S
C850 C849 1.340 . S
C850 C851 1.439 . S
C850 H890 0.950 . S
C851 C850 1.439 . S
C851 N852 1.374 . S
C851 C885 1.395 . S
N852 C848 1.376 . S
N852 C851 1.374 . S
N852 Co853 2.008 . S
Co853 N852 2.008 . S
Co853 N854 1.995 . S
Co853 N859 2.008 . S
Co853 N864 1.995 . S
Co853 N869 2.282 . S
Co853 N875 2.282 . S
N854 Co853 1.995 . S
N854 C855 1.376 . S
N854 C858 1.383 . S
C855 N854 1.376 . S
C855 C856 1.446 . S
C855 C885 1.391 . S
C856 C855 1.446 . S
C856 C857 1.339 . S
C856 H891 0.949 . S
C857 C856 1.339 . S
C857 C858 1.439 . S
C857 H892 0.950 . S
C858 N854 1.383 . S
C858 C857 1.439 . S
C858 C887 1.392 . S
N859 Co853 2.008 . S
N859 C860 1.376 . S
N859 C863 1.374 . S
C860 N859 1.376 . S
C860 C861 1.443 . S
C860 C887 1.389 . S
C861 C860 1.443 . S
C861 C862 1.340 . S
C861 H893 0.951 . S
C862 C861 1.340 . S
C862 C863 1.439 . S
C862 H894 0.950 . S
C863 N859 1.374 . S
C863 C862 1.439 . S
C863 C888 1.395 . S
N864 Co853 1.995 . S
N864 C865 1.376 . S
N864 C868 1.383 . S
C865 N864 1.376 . S
C865 C866 1.446 . S
C865 C888 1.391 . S
C866 C865 1.446 . S
C866 C867 1.339 . S
C866 H895 0.949 . S
C867 C866 1.339 . S
C867 C868 1.439 . S
C867 H896 0.950 . S
C868 N864 1.383 . S
C868 C867 1.439 . S
C868 C886 1.392 . S
N869 Co853 2.282 . S
N869 C872 1.332 . S
N869 C874 1.332 . S
C870 C871 1.386 . S
C870 C873 1.388 . S
C871 C870 1.386 . S
C871 C872 1.382 . S
C871 H897 0.950 . S
C872 N869 1.332 . S
C872 C871 1.382 . S
C872 H883 0.952 . S
C873 C870 1.388 . S
C873 C874 1.382 . S
C873 H898 0.950 . S
C874 N869 1.332 . S
C874 C873 1.382 . S
C874 H884 0.948 . S
N875 Co853 2.282 . S
N875 C879 1.332 . S
N875 C880 1.332 . S
C876 C877 1.388 . S
C876 C880 1.382 . S
C876 H899 0.950 . S
C877 C876 1.388 . S
C877 C878 1.386 . S
C878 C877 1.386 . S
C878 C879 1.382 . S
C878 H900 0.950 . S
C879 N875 1.332 . S
C879 C878 1.382 . S
C879 H881 0.952 . S
C880 N875 1.332 . S
C880 C876 1.382 . S
C880 H882 0.948 . S
H881 C879 0.952 . S
H882 C880 0.948 . S
H883 C872 0.952 . S
H884 C874 0.948 . S
C885 C851 1.395 . S
C885 C855 1.391 . S
C886 C848 1.389 . S
C886 C868 1.392 . S
C887 C858 1.392 . S
C887 C860 1.389 . S
C888 C863 1.395 . S
C888 C865 1.391 . S
H889 C849 0.951 . S
H890 C850 0.950 . S
H891 C856 0.949 . S
H892 C857 0.950 . S
H893 C861 0.951 . S
H894 C862 0.950 . S
H895 C866 0.949 . S
H896 C867 0.950 . S
H897 C871 0.950 . S
H898 C873 0.950 . S
H899 C876 0.950 . S
H900 C878 0.950 . S
C901 C902 1.443 . S
C901 N905 1.376 . S
C901 C939 1.389 . S
C902 C901 1.443 . S
C902 C903 1.340 . S
C902 H942 0.951 . S
C903 C902 1.340 . S
C903 C904 1.439 . S
C903 H943 0.950 . S
C904 C903 1.439 . S
C904 N905 1.374 . S
C904 C938 1.395 . S
N905 C901 1.376 . S
N905 C904 1.374 . S
N905 Co906 2.008 . S
Co906 N905 2.008 . S
Co906 N907 1.995 . S
Co906 N912 2.008 . S
Co906 N917 1.995 . S
Co906 N922 2.282 . S
Co906 N928 2.282 . S
N907 Co906 1.995 . S
N907 C908 1.376 . S
N907 C911 1.383 . S
C908 N907 1.376 . S
C908 C909 1.446 . S
C908 C938 1.391 . S
C909 C908 1.446 . S
C909 C910 1.339 . S
C909 H944 0.949 . S
C910 C909 1.339 . S
C910 C911 1.439 . S
C910 H945 0.950 . S
C911 N907 1.383 . S
C911 C910 1.439 . S
C911 C940 1.392 . S
N912 Co906 2.008 . S
N912 C913 1.376 . S
N912 C916 1.374 . S
C913 N912 1.376 . S
C913 C914 1.443 . S
C913 C940 1.389 . S
C914 C913 1.443 . S
C914 C915 1.340 . S
C914 H946 0.951 . S
C915 C914 1.340 . S
C915 C916 1.439 . S
C915 H947 0.950 . S
C916 N912 1.374 . S
C916 C915 1.439 . S
C916 C941 1.395 . S
N917 Co906 1.995 . S
N917 C918 1.376 . S
N917 C921 1.383 . S
C918 N917 1.376 . S
C918 C919 1.446 . S
C918 C941 1.391 . S
C919 C918 1.446 . S
C919 C920 1.339 . S
C919 H948 0.949 . S
C920 C919 1.339 . S
C920 C921 1.439 . S
C920 H949 0.950 . S
C921 N917 1.383 . S
C921 C920 1.439 . S
C921 C939 1.392 . S
N922 Co906 2.282 . S
N922 C925 1.332 . S
N922 C927 1.332 . S
C923 C924 1.386 . S
C923 C926 1.388 . S
C924 C923 1.386 . S
C924 C925 1.382 . S
C924 H950 0.950 . S
C925 N922 1.332 . S
C925 C924 1.382 . S
C925 H936 0.952 . S
C926 C923 1.388 . S
C926 C927 1.382 . S
C926 H951 0.950 . S
C927 N922 1.332 . S
C927 C926 1.382 . S
C927 H937 0.948 . S
N928 Co906 2.282 . S
N928 C932 1.332 . S
N928 C933 1.332 . S
C929 C930 1.388 . S
C929 C933 1.382 . S
C929 H952 0.950 . S
C930 C929 1.388 . S
C930 C931 1.386 . S
C931 C930 1.386 . S
C931 C932 1.382 . S
C931 H953 0.950 . S
C932 N928 1.332 . S
C932 C931 1.382 . S
C932 H934 0.952 . S
C933 N928 1.332 . S
C933 C929 1.382 . S
C933 H935 0.948 . S
H934 C932 0.952 . S
H935 C933 0.948 . S
H936 C925 0.952 . S
H937 C927 0.948 . S
C938 C904 1.395 . S
C938 C908 1.391 . S
C939 C901 1.389 . S
C939 C921 1.392 . S
C940 C911 1.392 . S
C940 C913 1.389 . S
C941 C916 1.395 . S
C941 C918 1.391 . S
H942 C902 0.951 . S
H943 C903 0.950 . S
H944 C909 0.949 . S
H945 C910 0.950 . S
H946 C914 0.951 . S
H947 C915 0.950 . S
H948 C919 0.949 . S
H949 C920 0.950 . S
H950 C924 0.950 . S
H951 C926 0.950 . S
H952 C929 0.950 . S
H953 C931 0.950 . S
C954 C955 1.443 . S
C954 N958 1.376 1_556 S
C954 C992 1.389 1_455 S
C955 C954 1.443 . S
C955 C956 1.340 . S
C955 H995 0.951 . S
C956 C955 1.340 . S
C956 C957 1.439 1_556 S
C956 H996 0.950 . S
C957 C956 1.439 1_554 S
C957 N958 1.374 . S
C957 C991 1.395 . S
N958 C954 1.376 1_554 S
N958 C957 1.374 . S
N958 Co959 2.008 1_455 S
Co959 N958 2.008 1_655 S
Co959 N960 1.995 1_655 S
Co959 N965 2.008 . S
Co959 N970 1.995 . S
Co959 N975 2.282 . S
Co959 N981 2.282 . S
N960 Co959 1.995 1_455 S
N960 C961 1.376 . S
N960 C964 1.383 . S
C961 N960 1.376 . S
C961 C962 1.446 . S
C961 C991 1.391 . S
C962 C961 1.446 . S
C962 C963 1.339 . S
C962 H997 0.949 . S
C963 C962 1.339 . S
C963 C964 1.439 . S
C963 H998 0.950 . S
C964 N960 1.383 . S
C964 C963 1.439 . S
C964 C993 1.392 1_455 S
N965 Co959 2.008 . S
N965 C966 1.376 . S
N965 C969 1.374 . S
C966 N965 1.376 . S
C966 C967 1.443 . S
C966 C993 1.389 . S
C967 C966 1.443 . S
C967 C968 1.340 . S
C967 H999 0.951 . S
C968 C967 1.340 . S
C968 C969 1.439 . S
C968 H1000 0.950 . S
C969 N965 1.374 . S
C969 C968 1.439 . S
C969 C994 1.395 . S
N970 Co959 1.995 . S
N970 C971 1.376 . S
N970 C974 1.383 1_554 S
C971 N970 1.376 . S
C971 C972 1.446 1_554 S
C971 C994 1.391 . S
C972 C971 1.446 1_556 S
C972 C973 1.339 . S
C972 H1001 0.949 . S
C973 C972 1.339 . S
C973 C974 1.439 . S
C973 H1002 0.950 . S
C974 N970 1.383 1_556 S
C974 C973 1.439 . S
C974 C992 1.392 . S
N975 Co959 2.282 . S
N975 C978 1.332 . S
N975 C980 1.332 . S
C976 C977 1.386 . S
C976 C979 1.388 . S
C977 C976 1.386 . S
C977 C978 1.382 . S
C977 H1003 0.950 . S
C978 N975 1.332 . S
C978 C977 1.382 . S
C978 H989 0.952 . S
C979 C976 1.388 . S
C979 C980 1.382 . S
C979 H1004 0.950 . S
C980 N975 1.332 . S
C980 C979 1.382 . S
C980 H990 0.948 . S
N981 Co959 2.282 . S
N981 C985 1.332 1_655 S
N981 C986 1.332 . S
C982 C983 1.388 1_655 S
C982 C986 1.382 . S
C982 H1005 0.950 . S
C983 C982 1.388 1_455 S
C983 C984 1.386 . S
C984 C983 1.386 . S
C984 C985 1.382 . S
C984 H1006 0.950 . S
C985 N981 1.332 1_455 S
C985 C984 1.382 . S
C985 H987 0.952 . S
C986 N981 1.332 . S
C986 C982 1.382 . S
C986 H988 0.948 . S
H987 C985 0.952 . S
H988 C986 0.948 . S
H989 C978 0.952 . S
H990 C980 0.948 . S
C991 C957 1.395 . S
C991 C961 1.391 . S
C992 C954 1.389 1_655 S
C992 C974 1.392 . S
C993 C964 1.392 1_655 S
C993 C966 1.389 . S
C994 C969 1.395 . S
C994 C971 1.391 . S
H995 C955 0.951 . S
H996 C956 0.950 . S
H997 C962 0.949 . S
H998 C963 0.950 . S
H999 C967 0.951 . S
H1000 C968 0.950 . S
H1001 C972 0.949 . S
H1002 C973 0.950 . S
H1003 C977 0.950 . S
H1004 C979 0.950 . S
H1005 C982 0.950 . S
H1006 C984 0.950 . S
C1007 C1008 1.443 . S
C1007 N1011 1.376 . S
C1007 C1045 1.389 . S
C1008 C1007 1.443 . S
C1008 C1009 1.340 . S
C1008 H1048 0.951 . S
C1009 C1008 1.340 . S
C1009 C1010 1.439 . S
C1009 H1049 0.950 . S
C1010 C1009 1.439 . S
C1010 N1011 1.374 . S
C1010 C1044 1.395 . S
N1011 C1007 1.376 . S
N1011 C1010 1.374 . S
N1011 Co1012 2.008 . S
Co1012 N1011 2.008 . S
Co1012 N1013 1.995 . S
Co1012 N1018 2.008 . S
Co1012 N1023 1.995 . S
Co1012 N1028 2.282 . S
Co1012 N1034 2.282 . S
N1013 Co1012 1.995 . S
N1013 C1014 1.376 . S
N1013 C1017 1.383 . S
C1014 N1013 1.376 . S
C1014 C1015 1.446 . S
C1014 C1044 1.391 . S
C1015 C1014 1.446 . S
C1015 C1016 1.339 . S
C1015 H1050 0.949 . S
C1016 C1015 1.339 . S
C1016 C1017 1.439 . S
C1016 H1051 0.950 . S
C1017 N1013 1.383 . S
C1017 C1016 1.439 . S
C1017 C1046 1.392 . S
N1018 Co1012 2.008 . S
N1018 C1019 1.376 . S
N1018 C1022 1.374 . S
C1019 N1018 1.376 . S
C1019 C1020 1.443 . S
C1019 C1046 1.389 . S
C1020 C1019 1.443 . S
C1020 C1021 1.340 . S
C1020 H1052 0.951 . S
C1021 C1020 1.340 . S
C1021 C1022 1.439 . S
C1021 H1053 0.950 . S
C1022 N1018 1.374 . S
C1022 C1021 1.439 . S
C1022 C1047 1.395 . S
N1023 Co1012 1.995 . S
N1023 C1024 1.376 . S
N1023 C1027 1.383 . S
C1024 N1023 1.376 . S
C1024 C1025 1.446 . S
C1024 C1047 1.391 . S
C1025 C1024 1.446 . S
C1025 C1026 1.339 . S
C1025 H1054 0.949 . S
C1026 C1025 1.339 . S
C1026 C1027 1.439 . S
C1026 H1055 0.950 . S
C1027 N1023 1.383 . S
C1027 C1026 1.439 . S
C1027 C1045 1.392 . S
N1028 Co1012 2.282 . S
N1028 C1031 1.332 . S
N1028 C1033 1.332 . S
C1029 C1030 1.386 . S
C1029 C1032 1.388 . S
C1030 C1029 1.386 . S
C1030 C1031 1.382 . S
C1030 H1056 0.950 . S
C1031 N1028 1.332 . S
C1031 C1030 1.382 . S
C1031 H1042 0.952 . S
C1032 C1029 1.388 . S
C1032 C1033 1.382 . S
C1032 H1057 0.950 . S
C1033 N1028 1.332 . S
C1033 C1032 1.382 . S
C1033 H1043 0.948 . S
N1034 Co1012 2.282 . S
N1034 C1038 1.332 . S
N1034 C1039 1.332 . S
C1035 C1036 1.388 . S
C1035 C1039 1.382 . S
C1035 H1058 0.950 . S
C1036 C1035 1.388 . S
C1036 C1037 1.386 . S
C1037 C1036 1.386 . S
C1037 C1038 1.382 . S
C1037 H1059 0.950 . S
C1038 N1034 1.332 . S
C1038 C1037 1.382 . S
C1038 H1040 0.952 . S
C1039 N1034 1.332 . S
C1039 C1035 1.382 . S
C1039 H1041 0.948 . S
H1040 C1038 0.952 . S
H1041 C1039 0.948 . S
H1042 C1031 0.952 . S
H1043 C1033 0.948 . S
C1044 C1010 1.395 . S
C1044 C1014 1.391 . S
C1045 C1007 1.389 . S
C1045 C1027 1.392 . S
C1046 C1017 1.392 . S
C1046 C1019 1.389 . S
C1047 C1022 1.395 . S
C1047 C1024 1.391 . S
H1048 C1008 0.951 . S
H1049 C1009 0.950 . S
H1050 C1015 0.949 . S
H1051 C1016 0.950 . S
H1052 C1020 0.951 . S
H1053 C1021 0.950 . S
H1054 C1025 0.949 . S
H1055 C1026 0.950 . S
H1056 C1030 0.950 . S
H1057 C1032 0.950 . S
H1058 C1035 0.950 . S
H1059 C1037 0.950 . S
C1060 C1061 1.443 . S
C1060 N1064 1.376 1_554 S
C1060 C1098 1.389 . S
C1061 C1060 1.443 . S
C1061 C1062 1.340 . S
C1061 H1101 0.951 . S
C1062 C1061 1.340 . S
C1062 C1063 1.439 1_554 S
C1062 H1102 0.950 . S
C1063 C1062 1.439 1_556 S
C1063 N1064 1.374 . S
C1063 C1097 1.395 . S
N1064 C1060 1.376 1_556 S
N1064 C1063 1.374 . S
N1064 Co1065 2.008 . S
Co1065 N1064 2.008 . S
Co1065 N1066 1.995 . S
Co1065 N1071 2.008 . S
Co1065 N1076 1.995 . S
Co1065 N1081 2.282 . S
Co1065 N1087 2.282 . S
N1066 Co1065 1.995 . S
N1066 C1067 1.376 . S
N1066 C1070 1.383 . S
C1067 N1066 1.376 . S
C1067 C1068 1.446 . S
C1067 C1097 1.391 . S
C1068 C1067 1.446 . S
C1068 C1069 1.339 . S
C1068 H1103 0.949 . S
C1069 C1068 1.339 . S
C1069 C1070 1.439 . S
C1069 H1104 0.950 . S
C1070 N1066 1.383 . S
C1070 C1069 1.439 . S
C1070 C1099 1.392 . S
N1071 Co1065 2.008 . S
N1071 C1072 1.376 . S
N1071 C1075 1.374 . S
C1072 N1071 1.376 . S
C1072 C1073 1.443 . S
C1072 C1099 1.389 . S
C1073 C1072 1.443 . S
C1073 C1074 1.340 . S
C1073 H1105 0.951 . S
C1074 C1073 1.340 . S
C1074 C1075 1.439 . S
C1074 H1106 0.950 . S
C1075 N1071 1.374 . S
C1075 C1074 1.439 . S
C1075 C1100 1.395 . S
N1076 Co1065 1.995 . S
N1076 C1077 1.376 . S
N1076 C1080 1.383 1_556 S
C1077 N1076 1.376 . S
C1077 C1078 1.446 1_556 S
C1077 C1100 1.391 . S
C1078 C1077 1.446 1_554 S
C1078 C1079 1.339 . S
C1078 H1107 0.949 . S
C1079 C1078 1.339 . S
C1079 C1080 1.439 . S
C1079 H1108 0.950 . S
C1080 N1076 1.383 1_554 S
C1080 C1079 1.439 . S
C1080 C1098 1.392 . S
N1081 Co1065 2.282 . S
N1081 C1084 1.332 . S
N1081 C1086 1.332 . S
C1082 C1083 1.386 . S
C1082 C1085 1.388 . S
C1083 C1082 1.386 . S
C1083 C1084 1.382 . S
C1083 H1109 0.950 . S
C1084 N1081 1.332 . S
C1084 C1083 1.382 . S
C1084 H1095 0.952 . S
C1085 C1082 1.388 . S
C1085 C1086 1.382 . S
C1085 H1110 0.950 . S
C1086 N1081 1.332 . S
C1086 C1085 1.382 . S
C1086 H1096 0.948 . S
N1087 Co1065 2.282 . S
N1087 C1091 1.332 . S
N1087 C1092 1.332 . S
C1088 C1089 1.388 . S
C1088 C1092 1.382 . S
C1088 H1111 0.950 . S
C1089 C1088 1.388 . S
C1089 C1090 1.386 . S
C1090 C1089 1.386 . S
C1090 C1091 1.382 . S
C1090 H1112 0.950 . S
C1091 N1087 1.332 . S
C1091 C1090 1.382 . S
C1091 H1093 0.952 . S
C1092 N1087 1.332 . S
C1092 C1088 1.382 . S
C1092 H1094 0.948 . S
H1093 C1091 0.952 . S
H1094 C1092 0.948 . S
H1095 C1084 0.952 . S
H1096 C1086 0.948 . S
C1097 C1063 1.395 . S
C1097 C1067 1.391 . S
C1098 C1060 1.389 . S
C1098 C1080 1.392 . S
C1099 C1070 1.392 . S
C1099 C1072 1.389 . S
C1100 C1075 1.395 . S
C1100 C1077 1.391 . S
H1101 C1061 0.951 . S
H1102 C1062 0.950 . S
H1103 C1068 0.949 . S
H1104 C1069 0.950 . S
H1105 C1073 0.951 . S
H1106 C1074 0.950 . S
H1107 C1078 0.949 . S
H1108 C1079 0.950 . S
H1109 C1083 0.950 . S
H1110 C1085 0.950 . S
H1111 C1088 0.950 . S
H1112 C1090 0.950 . S
C1113 C1114 1.443 . S
C1113 N1117 1.376 . S
C1113 C1151 1.389 . S
C1114 C1113 1.443 . S
C1114 C1115 1.340 . S
C1114 H1154 0.951 . S
C1115 C1114 1.340 . S
C1115 C1116 1.439 . S
C1115 H1155 0.950 . S
C1116 C1115 1.439 . S
C1116 N1117 1.374 . S
C1116 C1150 1.395 . S
N1117 C1113 1.376 . S
N1117 C1116 1.374 . S
N1117 Co1118 2.008 . S
Co1118 N1117 2.008 . S
Co1118 N1119 1.995 . S
Co1118 N1124 2.008 . S
Co1118 N1129 1.995 . S
Co1118 N1134 2.282 . S
Co1118 N1140 2.282 . S
N1119 Co1118 1.995 . S
N1119 C1120 1.376 . S
N1119 C1123 1.383 . S
C1120 N1119 1.376 . S
C1120 C1121 1.446 . S
C1120 C1150 1.391 . S
C1121 C1120 1.446 . S
C1121 C1122 1.339 . S
C1121 H1156 0.949 . S
C1122 C1121 1.339 . S
C1122 C1123 1.439 . S
C1122 H1157 0.950 . S
C1123 N1119 1.383 . S
C1123 C1122 1.439 . S
C1123 C1152 1.392 . S
N1124 Co1118 2.008 . S
N1124 C1125 1.376 . S
N1124 C1128 1.374 . S
C1125 N1124 1.376 . S
C1125 C1126 1.443 . S
C1125 C1152 1.389 . S
C1126 C1125 1.443 . S
C1126 C1127 1.340 . S
C1126 H1158 0.951 . S
C1127 C1126 1.340 . S
C1127 C1128 1.439 . S
C1127 H1159 0.950 . S
C1128 N1124 1.374 . S
C1128 C1127 1.439 . S
C1128 C1153 1.395 . S
N1129 Co1118 1.995 . S
N1129 C1130 1.376 . S
N1129 C1133 1.383 . S
C1130 N1129 1.376 . S
C1130 C1131 1.446 . S
C1130 C1153 1.391 . S
C1131 C1130 1.446 . S
C1131 C1132 1.339 . S
C1131 H1160 0.949 . S
C1132 C1131 1.339 . S
C1132 C1133 1.439 . S
C1132 H1161 0.950 . S
C1133 N1129 1.383 . S
C1133 C1132 1.439 . S
C1133 C1151 1.392 . S
N1134 Co1118 2.282 . S
N1134 C1137 1.332 . S
N1134 C1139 1.332 . S
C1135 C1136 1.386 . S
C1135 C1138 1.388 . S
C1136 C1135 1.386 . S
C1136 C1137 1.382 . S
C1136 H1162 0.950 . S
C1137 N1134 1.332 . S
C1137 C1136 1.382 . S
C1137 H1148 0.952 . S
C1138 C1135 1.388 . S
C1138 C1139 1.382 . S
C1138 H1163 0.950 . S
C1139 N1134 1.332 . S
C1139 C1138 1.382 . S
C1139 H1149 0.948 . S
N1140 Co1118 2.282 . S
N1140 C1144 1.332 . S
N1140 C1145 1.332 . S
C1141 C1142 1.388 . S
C1141 C1145 1.382 . S
C1141 H1164 0.950 . S
C1142 C1141 1.388 . S
C1142 C1143 1.386 . S
C1143 C1142 1.386 . S
C1143 C1144 1.382 . S
C1143 H1165 0.950 . S
C1144 N1140 1.332 . S
C1144 C1143 1.382 . S
C1144 H1146 0.952 . S
C1145 N1140 1.332 . S
C1145 C1141 1.382 . S
C1145 H1147 0.948 . S
H1146 C1144 0.952 . S
H1147 C1145 0.948 . S
H1148 C1137 0.952 . S
H1149 C1139 0.948 . S
C1150 C1116 1.395 . S
C1150 C1120 1.391 . S
C1151 C1113 1.389 . S
C1151 C1133 1.392 . S
C1152 C1123 1.392 . S
C1152 C1125 1.389 . S
C1153 C1128 1.395 . S
C1153 C1130 1.391 . S
H1154 C1114 0.951 . S
H1155 C1115 0.950 . S
H1156 C1121 0.949 . S
H1157 C1122 0.950 . S
H1158 C1126 0.951 . S
H1159 C1127 0.950 . S
H1160 C1131 0.949 . S
H1161 C1132 0.950 . S
H1162 C1136 0.950 . S
H1163 C1138 0.950 . S
H1164 C1141 0.950 . S
H1165 C1143 0.950 . S
C1166 C1167 1.443 . S
C1166 N1170 1.376 . S
C1166 C1204 1.389 1_455 S
C1167 C1166 1.443 . S
C1167 C1168 1.340 . S
C1167 H1207 0.951 . S
C1168 C1167 1.340 . S
C1168 C1169 1.439 . S
C1168 H1208 0.950 . S
C1169 C1168 1.439 . S
C1169 N1170 1.374 . S
C1169 C1203 1.395 . S
N1170 C1166 1.376 . S
N1170 C1169 1.374 . S
N1170 Co1171 2.008 1_455 S
Co1171 N1170 2.008 1_655 S
Co1171 N1172 1.995 1_655 S
Co1171 N1177 2.008 . S
Co1171 N1182 1.995 . S
Co1171 N1187 2.282 . S
Co1171 N1193 2.282 . S
N1172 Co1171 1.995 1_455 S
N1172 C1173 1.376 . S
N1172 C1176 1.383 . S
C1173 N1172 1.376 . S
C1173 C1174 1.446 . S
C1173 C1203 1.391 . S
C1174 C1173 1.446 . S
C1174 C1175 1.339 . S
C1174 H1209 0.949 . S
C1175 C1174 1.339 . S
C1175 C1176 1.439 . S
C1175 H1210 0.950 . S
C1176 N1172 1.383 . S
C1176 C1175 1.439 . S
C1176 C1205 1.392 1_455 S
N1177 Co1171 2.008 . S
N1177 C1178 1.376 . S
N1177 C1181 1.374 . S
C1178 N1177 1.376 . S
C1178 C1179 1.443 . S
C1178 C1205 1.389 . S
C1179 C1178 1.443 . S
C1179 C1180 1.340 . S
C1179 H1211 0.951 . S
C1180 C1179 1.340 . S
C1180 C1181 1.439 . S
C1180 H1212 0.950 . S
C1181 N1177 1.374 . S
C1181 C1180 1.439 . S
C1181 C1206 1.395 . S
N1182 Co1171 1.995 . S
N1182 C1183 1.376 . S
N1182 C1186 1.383 . S
C1183 N1182 1.376 . S
C1183 C1184 1.446 . S
C1183 C1206 1.391 . S
C1184 C1183 1.446 . S
C1184 C1185 1.339 . S
C1184 H1213 0.949 . S
C1185 C1184 1.339 . S
C1185 C1186 1.439 . S
C1185 H1214 0.950 . S
C1186 N1182 1.383 . S
C1186 C1185 1.439 . S
C1186 C1204 1.392 . S
N1187 Co1171 2.282 . S
N1187 C1190 1.332 . S
N1187 C1192 1.332 . S
C1188 C1189 1.386 . S
C1188 C1191 1.388 . S
C1189 C1188 1.386 . S
C1189 C1190 1.382 . S
C1189 H1215 0.950 . S
C1190 N1187 1.332 . S
C1190 C1189 1.382 . S
C1190 H1201 0.952 . S
C1191 C1188 1.388 . S
C1191 C1192 1.382 . S
C1191 H1216 0.950 . S
C1192 N1187 1.332 . S
C1192 C1191 1.382 . S
C1192 H1202 0.948 . S
N1193 Co1171 2.282 . S
N1193 C1197 1.332 1_655 S
N1193 C1198 1.332 . S
C1194 C1195 1.388 1_655 S
C1194 C1198 1.382 . S
C1194 H1217 0.950 . S
C1195 C1194 1.388 1_455 S
C1195 C1196 1.386 . S
C1196 C1195 1.386 . S
C1196 C1197 1.382 . S
C1196 H1218 0.950 . S
C1197 N1193 1.332 1_455 S
C1197 C1196 1.382 . S
C1197 H1199 0.952 . S
C1198 N1193 1.332 . S
C1198 C1194 1.382 . S
C1198 H1200 0.948 . S
H1199 C1197 0.952 . S
H1200 C1198 0.948 . S
H1201 C1190 0.952 . S
H1202 C1192 0.948 . S
C1203 C1169 1.395 . S
C1203 C1173 1.391 . S
C1204 C1166 1.389 1_655 S
C1204 C1186 1.392 . S
C1205 C1176 1.392 1_655 S
C1205 C1178 1.389 . S
C1206 C1181 1.395 . S
C1206 C1183 1.391 . S
H1207 C1167 0.951 . S
H1208 C1168 0.950 . S
H1209 C1174 0.949 . S
H1210 C1175 0.950 . S
H1211 C1179 0.951 . S
H1212 C1180 0.950 . S
H1213 C1184 0.949 . S
H1214 C1185 0.950 . S
H1215 C1189 0.950 . S
H1216 C1191 0.950 . S
H1217 C1194 0.950 . S
H1218 C1196 0.950 . S
C1219 C1220 1.443 . S
C1219 N1223 1.376 . S
C1219 C1257 1.389 . S
C1220 C1219 1.443 . S
C1220 C1221 1.340 . S
C1220 H1260 0.951 . S
C1221 C1220 1.340 . S
C1221 C1222 1.439 . S
C1221 H1261 0.950 . S
C1222 C1221 1.439 . S
C1222 N1223 1.374 . S
C1222 C1256 1.395 . S
N1223 C1219 1.376 . S
N1223 C1222 1.374 . S
N1223 Co1224 2.008 . S
Co1224 N1223 2.008 . S
Co1224 N1225 1.995 . S
Co1224 N1230 2.008 . S
Co1224 N1235 1.995 . S
Co1224 N1240 2.282 . S
Co1224 N1246 2.282 . S
N1225 Co1224 1.995 . S
N1225 C1226 1.376 . S
N1225 C1229 1.383 . S
C1226 N1225 1.376 . S
C1226 C1227 1.446 . S
C1226 C1256 1.391 . S
C1227 C1226 1.446 . S
C1227 C1228 1.339 . S
C1227 H1262 0.949 . S
C1228 C1227 1.339 . S
C1228 C1229 1.439 . S
C1228 H1263 0.950 . S
C1229 N1225 1.383 . S
C1229 C1228 1.439 . S
C1229 C1258 1.392 . S
N1230 Co1224 2.008 . S
N1230 C1231 1.376 . S
N1230 C1234 1.374 . S
C1231 N1230 1.376 . S
C1231 C1232 1.443 . S
C1231 C1258 1.389 . S
C1232 C1231 1.443 . S
C1232 C1233 1.340 . S
C1232 H1264 0.951 . S
C1233 C1232 1.340 . S
C1233 C1234 1.439 . S
C1233 H1265 0.950 . S
C1234 N1230 1.374 . S
C1234 C1233 1.439 . S
C1234 C1259 1.395 . S
N1235 Co1224 1.995 . S
N1235 C1236 1.376 . S
N1235 C1239 1.383 . S
C1236 N1235 1.376 . S
C1236 C1237 1.446 . S
C1236 C1259 1.391 . S
C1237 C1236 1.446 . S
C1237 C1238 1.339 . S
C1237 H1266 0.949 . S
C1238 C1237 1.339 . S
C1238 C1239 1.439 . S
C1238 H1267 0.950 . S
C1239 N1235 1.383 . S
C1239 C1238 1.439 . S
C1239 C1257 1.392 . S
N1240 Co1224 2.282 . S
N1240 C1243 1.332 . S
N1240 C1245 1.332 . S
C1241 C1242 1.386 . S
C1241 C1244 1.388 . S
C1242 C1241 1.386 . S
C1242 C1243 1.382 . S
C1242 H1268 0.950 . S
C1243 N1240 1.332 . S
C1243 C1242 1.382 . S
C1243 H1254 0.952 . S
C1244 C1241 1.388 . S
C1244 C1245 1.382 . S
C1244 H1269 0.950 . S
C1245 N1240 1.332 . S
C1245 C1244 1.382 . S
C1245 H1255 0.948 . S
N1246 Co1224 2.282 . S
N1246 C1250 1.332 . S
N1246 C1251 1.332 . S
C1247 C1248 1.388 . S
C1247 C1251 1.382 . S
C1247 H1270 0.950 . S
C1248 C1247 1.388 . S
C1248 C1249 1.386 . S
C1249 C1248 1.386 . S
C1249 C1250 1.382 . S
C1249 H1271 0.950 . S
C1250 N1246 1.332 . S
C1250 C1249 1.382 . S
C1250 H1252 0.952 . S
C1251 N1246 1.332 . S
C1251 C1247 1.382 . S
C1251 H1253 0.948 . S
H1252 C1250 0.952 . S
H1253 C1251 0.948 . S
H1254 C1243 0.952 . S
H1255 C1245 0.948 . S
C1256 C1222 1.395 . S
C1256 C1226 1.391 . S
C1257 C1219 1.389 . S
C1257 C1239 1.392 . S
C1258 C1229 1.392 . S
C1258 C1231 1.389 . S
C1259 C1234 1.395 . S
C1259 C1236 1.391 . S
H1260 C1220 0.951 . S
H1261 C1221 0.950 . S
H1262 C1227 0.949 . S
H1263 C1228 0.950 . S
H1264 C1232 0.951 . S
H1265 C1233 0.950 . S
H1266 C1237 0.949 . S
H1267 C1238 0.950 . S
H1268 C1242 0.950 . S
H1269 C1244 0.950 . S
H1270 C1247 0.950 . S
H1271 C1249 0.950 . S
C1272 C1273 1.443 . S
C1272 N1276 1.376 . S
C1272 C1310 1.389 . S
C1273 C1272 1.443 . S
C1273 C1274 1.340 . S
C1273 H1313 0.951 . S
C1274 C1273 1.340 . S
C1274 C1275 1.439 . S
C1274 H1314 0.950 . S
C1275 C1274 1.439 . S
C1275 N1276 1.374 . S
C1275 C1309 1.395 . S
N1276 C1272 1.376 . S
N1276 C1275 1.374 . S
N1276 Co1277 2.008 . S
Co1277 N1276 2.008 . S
Co1277 N1278 1.995 . S
Co1277 N1283 2.008 . S
Co1277 N1288 1.995 . S
Co1277 N1293 2.282 . S
Co1277 N1299 2.282 . S
N1278 Co1277 1.995 . S
N1278 C1279 1.376 . S
N1278 C1282 1.383 . S
C1279 N1278 1.376 . S
C1279 C1280 1.446 . S
C1279 C1309 1.391 . S
C1280 C1279 1.446 . S
C1280 C1281 1.339 . S
C1280 H1315 0.949 . S
C1281 C1280 1.339 . S
C1281 C1282 1.439 . S
C1281 H1316 0.950 . S
C1282 N1278 1.383 . S
C1282 C1281 1.439 . S
C1282 C1311 1.392 . S
N1283 Co1277 2.008 . S
N1283 C1284 1.376 . S
N1283 C1287 1.374 . S
C1284 N1283 1.376 . S
C1284 C1285 1.443 . S
C1284 C1311 1.389 . S
C1285 C1284 1.443 . S
C1285 C1286 1.340 . S
C1285 H1317 0.951 . S
C1286 C1285 1.340 . S
C1286 C1287 1.439 . S
C1286 H1318 0.950 . S
C1287 N1283 1.374 . S
C1287 C1286 1.439 . S
C1287 C1312 1.395 . S
N1288 Co1277 1.995 . S
N1288 C1289 1.376 . S
N1288 C1292 1.383 . S
C1289 N1288 1.376 . S
C1289 C1290 1.446 . S
C1289 C1312 1.391 . S
C1290 C1289 1.446 . S
C1290 C1291 1.339 . S
C1290 H1319 0.949 . S
C1291 C1290 1.339 . S
C1291 C1292 1.439 . S
C1291 H1320 0.950 . S
C1292 N1288 1.383 . S
C1292 C1291 1.439 . S
C1292 C1310 1.392 . S
N1293 Co1277 2.282 . S
N1293 C1296 1.332 . S
N1293 C1298 1.332 . S
C1294 C1295 1.386 . S
C1294 C1297 1.388 . S
C1295 C1294 1.386 . S
C1295 C1296 1.382 . S
C1295 H1321 0.950 . S
C1296 N1293 1.332 . S
C1296 C1295 1.382 . S
C1296 H1307 0.952 . S
C1297 C1294 1.388 . S
C1297 C1298 1.382 . S
C1297 H1322 0.950 . S
C1298 N1293 1.332 . S
C1298 C1297 1.382 . S
C1298 H1308 0.948 . S
N1299 Co1277 2.282 . S
N1299 C1303 1.332 . S
N1299 C1304 1.332 . S
C1300 C1301 1.388 . S
C1300 C1304 1.382 . S
C1300 H1323 0.950 . S
C1301 C1300 1.388 . S
C1301 C1302 1.386 . S
C1302 C1301 1.386 . S
C1302 C1303 1.382 . S
C1302 H1324 0.950 . S
C1303 N1299 1.332 . S
C1303 C1302 1.382 . S
C1303 H1305 0.952 . S
C1304 N1299 1.332 . S
C1304 C1300 1.382 . S
C1304 H1306 0.948 . S
H1305 C1303 0.952 . S
H1306 C1304 0.948 . S
H1307 C1296 0.952 . S
H1308 C1298 0.948 . S
C1309 C1275 1.395 . S
C1309 C1279 1.391 . S
C1310 C1272 1.389 . S
C1310 C1292 1.392 . S
C1311 C1282 1.392 . S
C1311 C1284 1.389 . S
C1312 C1287 1.395 . S
C1312 C1289 1.391 . S
H1313 C1273 0.951 . S
H1314 C1274 0.950 . S
H1315 C1280 0.949 . S
H1316 C1281 0.950 . S
H1317 C1285 0.951 . S
H1318 C1286 0.950 . S
H1319 C1290 0.949 . S
H1320 C1291 0.950 . S
H1321 C1295 0.950 . S
H1322 C1297 0.950 . S
H1323 C1300 0.950 . S
H1324 C1302 0.950 . S
C1325 C1326 1.443 . S
C1325 N1329 1.376 . S
C1325 C1363 1.389 . S
C1326 C1325 1.443 . S
C1326 C1327 1.340 . S
C1326 H1366 0.951 . S
C1327 C1326 1.340 . S
C1327 C1328 1.439 . S
C1327 H1367 0.950 . S
C1328 C1327 1.439 . S
C1328 N1329 1.374 . S
C1328 C1362 1.395 . S
N1329 C1325 1.376 . S
N1329 C1328 1.374 . S
N1329 Co1330 2.008 . S
Co1330 N1329 2.008 . S
Co1330 N1331 1.995 . S
Co1330 N1336 2.008 . S
Co1330 N1341 1.995 . S
Co1330 N1346 2.282 . S
Co1330 N1352 2.282 . S
N1331 Co1330 1.995 . S
N1331 C1332 1.376 . S
N1331 C1335 1.383 . S
C1332 N1331 1.376 . S
C1332 C1333 1.446 . S
C1332 C1362 1.391 . S
C1333 C1332 1.446 . S
C1333 C1334 1.339 . S
C1333 H1368 0.949 . S
C1334 C1333 1.339 . S
C1334 C1335 1.439 . S
C1334 H1369 0.950 . S
C1335 N1331 1.383 . S
C1335 C1334 1.439 . S
C1335 C1364 1.392 . S
N1336 Co1330 2.008 . S
N1336 C1337 1.376 . S
N1336 C1340 1.374 . S
C1337 N1336 1.376 . S
C1337 C1338 1.443 . S
C1337 C1364 1.389 . S
C1338 C1337 1.443 . S
C1338 C1339 1.340 . S
C1338 H1370 0.951 . S
C1339 C1338 1.340 . S
C1339 C1340 1.439 . S
C1339 H1371 0.950 . S
C1340 N1336 1.374 . S
C1340 C1339 1.439 . S
C1340 C1365 1.395 . S
N1341 Co1330 1.995 . S
N1341 C1342 1.376 . S
N1341 C1345 1.383 . S
C1342 N1341 1.376 . S
C1342 C1343 1.446 . S
C1342 C1365 1.391 . S
C1343 C1342 1.446 . S
C1343 C1344 1.339 . S
C1343 H1372 0.949 . S
C1344 C1343 1.339 . S
C1344 C1345 1.439 . S
C1344 H1373 0.950 . S
C1345 N1341 1.383 . S
C1345 C1344 1.439 . S
C1345 C1363 1.392 . S
N1346 Co1330 2.282 . S
N1346 C1349 1.332 . S
N1346 C1351 1.332 . S
C1347 C1348 1.386 . S
C1347 C1350 1.388 . S
C1348 C1347 1.386 . S
C1348 C1349 1.382 . S
C1348 H1374 0.950 . S
C1349 N1346 1.332 . S
C1349 C1348 1.382 . S
C1349 H1360 0.952 . S
C1350 C1347 1.388 . S
C1350 C1351 1.382 . S
C1350 H1375 0.950 . S
C1351 N1346 1.332 . S
C1351 C1350 1.382 . S
C1351 H1361 0.948 . S
N1352 Co1330 2.282 . S
N1352 C1356 1.332 . S
N1352 C1357 1.332 . S
C1353 C1354 1.388 . S
C1353 C1357 1.382 . S
C1353 H1376 0.950 . S
C1354 C1353 1.388 . S
C1354 C1355 1.386 . S
C1355 C1354 1.386 . S
C1355 C1356 1.382 . S
C1355 H1377 0.950 . S
C1356 N1352 1.332 . S
C1356 C1355 1.382 . S
C1356 H1358 0.952 . S
C1357 N1352 1.332 . S
C1357 C1353 1.382 . S
C1357 H1359 0.948 . S
H1358 C1356 0.952 . S
H1359 C1357 0.948 . S
H1360 C1349 0.952 . S
H1361 C1351 0.948 . S
C1362 C1328 1.395 . S
C1362 C1332 1.391 . S
C1363 C1325 1.389 . S
C1363 C1345 1.392 . S
C1364 C1335 1.392 . S
C1364 C1337 1.389 . S
C1365 C1340 1.395 . S
C1365 C1342 1.391 . S
H1366 C1326 0.951 . S
H1367 C1327 0.950 . S
H1368 C1333 0.949 . S
H1369 C1334 0.950 . S
H1370 C1338 0.951 . S
H1371 C1339 0.950 . S
H1372 C1343 0.949 . S
H1373 C1344 0.950 . S
H1374 C1348 0.950 . S
H1375 C1350 0.950 . S
H1376 C1353 0.950 . S
H1377 C1355 0.950 . S
C1378 C1379 1.443 . S
C1378 N1382 1.376 1_554 S
C1378 C1416 1.389 . S
C1379 C1378 1.443 . S
C1379 C1380 1.340 . S
C1379 H1419 0.951 . S
C1380 C1379 1.340 . S
C1380 C1381 1.439 1_554 S
C1380 H1420 0.950 . S
C1381 C1380 1.439 1_556 S
C1381 N1382 1.374 . S
C1381 C1415 1.395 . S
N1382 C1378 1.376 1_556 S
N1382 C1381 1.374 . S
N1382 Co1383 2.008 . S
Co1383 N1382 2.008 . S
Co1383 N1384 1.995 . S
Co1383 N1389 2.008 1_455 S
Co1383 N1394 1.995 1_455 S
Co1383 N1399 2.282 . S
Co1383 N1405 2.255 1_455 S
N1384 Co1383 1.995 . S
N1384 C1385 1.376 . S
N1384 C1388 1.383 . S
C1385 N1384 1.376 . S
C1385 C1386 1.446 . S
C1385 C1415 1.391 . S
C1386 C1385 1.446 . S
C1386 C1387 1.339 . S
C1386 H1421 0.949 . S
C1387 C1386 1.339 . S
C1387 C1388 1.439 . S
C1387 H1422 0.950 . S
C1388 N1384 1.383 . S
C1388 C1387 1.439 . S
C1388 C1417 1.392 . S
N1389 Co1383 2.008 1_655 S
N1389 C1390 1.391 . S
N1389 C1393 1.374 . S
C1390 N1389 1.391 . S
C1390 C1391 1.501 . S
C1390 C1417 1.328 1_655 S
C1391 C1390 1.501 . S
C1391 C1392 1.340 . S
C1391 H1423 0.951 . S
C1392 C1391 1.340 . S
C1392 C1393 1.439 . S
C1392 H1424 0.950 . S
C1393 N1389 1.374 . S
C1393 C1392 1.439 . S
C1393 C1418 1.395 . S
N1394 Co1383 1.995 1_655 S
N1394 C1395 1.376 . S
N1394 C1398 1.394 1_556 S
C1395 N1394 1.376 . S
C1395 C1396 1.446 1_556 S
C1395 C1418 1.391 . S
C1396 C1395 1.446 1_554 S
C1396 C1397 1.339 . S
C1396 H1425 0.949 . S
C1397 C1396 1.339 . S
C1397 C1398 1.502 . S
C1397 H1426 0.950 . S
C1398 N1394 1.394 1_554 S
C1398 C1397 1.502 . S
C1398 C1416 1.333 1_655 S
N1399 Co1383 2.282 . S
N1399 C1402 1.332 . S
N1399 C1404 1.332 . S
C1400 C1401 1.386 . S
C1400 C1403 1.388 . S
C1401 C1400 1.386 . S
C1401 C1402 1.382 . S
C1401 H1427 0.950 . S
C1402 N1399 1.332 . S
C1402 C1401 1.382 . S
C1402 H1413 0.952 . S
C1403 C1400 1.388 . S
C1403 C1404 1.382 . S
C1403 H1428 0.950 . S
C1404 N1399 1.332 . S
C1404 C1403 1.382 . S
C1404 H1414 0.948 . S
N1405 Co1383 2.255 1_655 S
N1405 C1409 1.301 1_655 S
N1405 C1410 1.388 . S
C1406 C1407 1.388 . S
C1406 C1410 1.382 . S
C1406 H1429 0.950 . S
C1407 C1406 1.388 . S
C1407 C1408 1.386 1_655 S
C1408 C1407 1.386 1_455 S
C1408 C1409 1.382 . S
C1408 H1430 0.950 . S
C1409 N1405 1.301 1_455 S
C1409 C1408 1.382 . S
C1409 H1411 0.952 . S
C1410 N1405 1.388 . S
C1410 C1406 1.382 . S
C1410 H1412 0.948 . S
H1411 C1409 0.952 . S
H1412 C1410 0.948 . S
H1413 C1402 0.952 . S
H1414 C1404 0.948 . S
C1415 C1381 1.395 . S
C1415 C1385 1.391 . S
C1416 C1378 1.389 . S
C1416 C1398 1.333 1_455 S
C1417 C1388 1.392 . S
C1417 C1390 1.328 1_455 S
C1418 C1393 1.395 . S
C1418 C1395 1.391 . S
H1419 C1379 0.951 . S
H1420 C1380 0.950 . S
H1421 C1386 0.949 . S
H1422 C1387 0.950 . S
H1423 C1391 0.951 . S
H1424 C1392 0.950 . S
H1425 C1396 0.949 . S
H1426 C1397 0.950 . S
H1427 C1401 0.950 . S
H1428 C1403 0.950 . S
H1429 C1406 0.950 . S
H1430 C1408 0.950 . S
C1431 C1432 1.443 . S
C1431 N1435 1.376 . S
C1431 C1469 1.389 . S
C1432 C1431 1.443 . S
C1432 C1433 1.340 . S
C1432 H1472 0.951 . S
C1433 C1432 1.340 . S
C1433 C1434 1.439 . S
C1433 H1473 0.950 . S
C1434 C1433 1.439 . S
C1434 N1435 1.374 . S
C1434 C1468 1.395 . S
N1435 C1431 1.376 . S
N1435 C1434 1.374 . S
N1435 Co1436 2.008 . S
Co1436 N1435 2.008 . S
Co1436 N1437 1.995 . S
Co1436 N1442 2.008 . S
Co1436 N1447 1.995 . S
Co1436 N1452 2.282 . S
Co1436 N1458 2.282 . S
N1437 Co1436 1.995 . S
N1437 C1438 1.376 . S
N1437 C1441 1.383 . S
C1438 N1437 1.376 . S
C1438 C1439 1.446 . S
C1438 C1468 1.391 . S
C1439 C1438 1.446 . S
C1439 C1440 1.339 . S
C1439 H1474 0.949 . S
C1440 C1439 1.339 . S
C1440 C1441 1.439 . S
C1440 H1475 0.950 . S
C1441 N1437 1.383 . S
C1441 C1440 1.439 . S
C1441 C1470 1.392 . S
N1442 Co1436 2.008 . S
N1442 C1443 1.376 . S
N1442 C1446 1.374 . S
C1443 N1442 1.376 . S
C1443 C1444 1.443 . S
C1443 C1470 1.389 . S
C1444 C1443 1.443 . S
C1444 C1445 1.340 . S
C1444 H1476 0.951 . S
C1445 C1444 1.340 . S
C1445 C1446 1.439 . S
C1445 H1477 0.950 . S
C1446 N1442 1.374 . S
C1446 C1445 1.439 . S
C1446 C1471 1.395 . S
N1447 Co1436 1.995 . S
N1447 C1448 1.376 . S
N1447 C1451 1.383 . S
C1448 N1447 1.376 . S
C1448 C1449 1.446 . S
C1448 C1471 1.391 . S
C1449 C1448 1.446 . S
C1449 C1450 1.339 . S
C1449 H1478 0.949 . S
C1450 C1449 1.339 . S
C1450 C1451 1.439 . S
C1450 H1479 0.950 . S
C1451 N1447 1.383 . S
C1451 C1450 1.439 . S
C1451 C1469 1.392 . S
N1452 Co1436 2.282 . S
N1452 C1455 1.332 . S
N1452 C1457 1.332 . S
C1453 C1454 1.386 . S
C1453 C1456 1.388 . S
C1454 C1453 1.386 . S
C1454 C1455 1.382 . S
C1454 H1480 0.950 . S
C1455 N1452 1.332 . S
C1455 C1454 1.382 . S
C1455 H1466 0.952 . S
C1456 C1453 1.388 . S
C1456 C1457 1.382 . S
C1456 H1481 0.950 . S
C1457 N1452 1.332 . S
C1457 C1456 1.382 . S
C1457 H1467 0.948 . S
N1458 Co1436 2.282 . S
N1458 C1462 1.332 . S
N1458 C1463 1.332 . S
C1459 C1460 1.388 . S
C1459 C1463 1.382 . S
C1459 H1482 0.950 . S
C1460 C1459 1.388 . S
C1460 C1461 1.386 . S
C1461 C1460 1.386 . S
C1461 C1462 1.382 . S
C1461 H1483 0.950 . S
C1462 N1458 1.332 . S
C1462 C1461 1.382 . S
C1462 H1464 0.952 . S
C1463 N1458 1.332 . S
C1463 C1459 1.382 . S
C1463 H1465 0.948 . S
H1464 C1462 0.952 . S
H1465 C1463 0.948 . S
H1466 C1455 0.952 . S
H1467 C1457 0.948 . S
C1468 C1434 1.395 . S
C1468 C1438 1.391 . S
C1469 C1431 1.389 . S
C1469 C1451 1.392 . S
C1470 C1441 1.392 . S
C1470 C1443 1.389 . S
C1471 C1446 1.395 . S
C1471 C1448 1.391 . S
H1472 C1432 0.951 . S
H1473 C1433 0.950 . S
H1474 C1439 0.949 . S
H1475 C1440 0.950 . S
H1476 C1444 0.951 . S
H1477 C1445 0.950 . S
H1478 C1449 0.949 . S
H1479 C1450 0.950 . S
H1480 C1454 0.950 . S
H1481 C1456 0.950 . S
H1482 C1459 0.950 . S
H1483 C1461 0.950 . S
C1484 C1485 1.443 . S
C1484 N1488 1.376 1_556 S
C1484 C1522 1.389 . S
C1485 C1484 1.443 . S
C1485 C1486 1.340 . S
C1485 H1525 0.951 . S
C1486 C1485 1.340 . S
C1486 C1487 1.439 1_556 S
C1486 H1526 0.950 . S
C1487 C1486 1.439 1_554 S
C1487 N1488 1.374 . S
C1487 C1521 1.395 . S
N1488 C1484 1.376 1_554 S
N1488 C1487 1.374 . S
N1488 Co1489 2.008 . S
Co1489 N1488 2.008 . S
Co1489 N1490 1.995 . S
Co1489 N1495 2.008 . S
Co1489 N1500 1.995 . S
Co1489 N1505 2.282 . S
Co1489 N1511 2.282 . S
N1490 Co1489 1.995 . S
N1490 C1491 1.376 . S
N1490 C1494 1.383 . S
C1491 N1490 1.376 . S
C1491 C1492 1.446 . S
C1491 C1521 1.391 . S
C1492 C1491 1.446 . S
C1492 C1493 1.339 . S
C1492 H1527 0.949 . S
C1493 C1492 1.339 . S
C1493 C1494 1.439 . S
C1493 H1528 0.950 . S
C1494 N1490 1.383 . S
C1494 C1493 1.439 . S
C1494 C1523 1.392 . S
N1495 Co1489 2.008 . S
N1495 C1496 1.376 . S
N1495 C1499 1.374 . S
C1496 N1495 1.376 . S
C1496 C1497 1.443 . S
C1496 C1523 1.389 . S
C1497 C1496 1.443 . S
C1497 C1498 1.340 . S
C1497 H1529 0.951 . S
C1498 C1497 1.340 . S
C1498 C1499 1.439 . S
C1498 H1530 0.950 . S
C1499 N1495 1.374 . S
C1499 C1498 1.439 . S
C1499 C1524 1.395 . S
N1500 Co1489 1.995 . S
N1500 C1501 1.376 . S
N1500 C1504 1.383 1_554 S
C1501 N1500 1.376 . S
C1501 C1502 1.446 1_554 S
C1501 C1524 1.391 . S
C1502 C1501 1.446 1_556 S
C1502 C1503 1.339 . S
C1502 H1531 0.949 . S
C1503 C1502 1.339 . S
C1503 C1504 1.439 . S
C1503 H1532 0.950 . S
C1504 N1500 1.383 1_556 S
C1504 C1503 1.439 . S
C1504 C1522 1.392 . S
N1505 Co1489 2.282 . S
N1505 C1508 1.332 . S
N1505 C1510 1.332 . S
C1506 C1507 1.386 . S
C1506 C1509 1.388 . S
C1507 C1506 1.386 . S
C1507 C1508 1.382 . S
C1507 H1533 0.950 . S
C1508 N1505 1.332 . S
C1508 C1507 1.382 . S
C1508 H1519 0.952 . S
C1509 C1506 1.388 . S
C1509 C1510 1.382 . S
C1509 H1534 0.950 . S
C1510 N1505 1.332 . S
C1510 C1509 1.382 . S
C1510 H1520 0.948 . S
N1511 Co1489 2.282 . S
N1511 C1515 1.332 . S
N1511 C1516 1.332 . S
C1512 C1513 1.388 . S
C1512 C1516 1.382 . S
C1512 H1535 0.950 . S
C1513 C1512 1.388 . S
C1513 C1514 1.386 . S
C1514 C1513 1.386 . S
C1514 C1515 1.382 . S
C1514 H1536 0.950 . S
C1515 N1511 1.332 . S
C1515 C1514 1.382 . S
C1515 H1517 0.952 . S
C1516 N1511 1.332 . S
C1516 C1512 1.382 . S
C1516 H1518 0.948 . S
H1517 C1515 0.952 . S
H1518 C1516 0.948 . S
H1519 C1508 0.952 . S
H1520 C1510 0.948 . S
C1521 C1487 1.395 . S
C1521 C1491 1.391 . S
C1522 C1484 1.389 . S
C1522 C1504 1.392 . S
C1523 C1494 1.392 . S
C1523 C1496 1.389 . S
C1524 C1499 1.395 . S
C1524 C1501 1.391 . S
H1525 C1485 0.951 . S
H1526 C1486 0.950 . S
H1527 C1492 0.949 . S
H1528 C1493 0.950 . S
H1529 C1497 0.951 . S
H1530 C1498 0.950 . S
H1531 C1502 0.949 . S
H1532 C1503 0.950 . S
H1533 C1507 0.950 . S
H1534 C1509 0.950 . S
H1535 C1512 0.950 . S
H1536 C1514 0.950 . S
C1537 C1538 1.443 . S
C1537 N1541 1.376 . S
C1537 C1575 1.389 . S
C1538 C1537 1.443 . S
C1538 C1539 1.340 . S
C1538 H1578 0.951 . S
C1539 C1538 1.340 . S
C1539 C1540 1.439 . S
C1539 H1579 0.950 . S
C1540 C1539 1.439 . S
C1540 N1541 1.374 . S
C1540 C1574 1.395 . S
N1541 C1537 1.376 . S
N1541 C1540 1.374 . S
N1541 Co1542 2.008 . S
Co1542 N1541 2.008 . S
Co1542 N1543 1.995 . S
Co1542 N1548 2.008 . S
Co1542 N1553 1.995 . S
Co1542 N1558 2.282 . S
Co1542 N1564 2.282 . S
N1543 Co1542 1.995 . S
N1543 C1544 1.376 . S
N1543 C1547 1.383 . S
C1544 N1543 1.376 . S
C1544 C1545 1.446 . S
C1544 C1574 1.391 . S
C1545 C1544 1.446 . S
C1545 C1546 1.339 . S
C1545 H1580 0.949 . S
C1546 C1545 1.339 . S
C1546 C1547 1.439 . S
C1546 H1581 0.950 . S
C1547 N1543 1.383 . S
C1547 C1546 1.439 . S
C1547 C1576 1.392 . S
N1548 Co1542 2.008 . S
N1548 C1549 1.376 . S
N1548 C1552 1.374 . S
C1549 N1548 1.376 . S
C1549 C1550 1.443 . S
C1549 C1576 1.389 . S
C1550 C1549 1.443 . S
C1550 C1551 1.340 . S
C1550 H1582 0.951 . S
C1551 C1550 1.340 . S
C1551 C1552 1.439 . S
C1551 H1583 0.950 . S
C1552 N1548 1.374 . S
C1552 C1551 1.439 . S
C1552 C1577 1.395 . S
N1553 Co1542 1.995 . S
N1553 C1554 1.376 . S
N1553 C1557 1.383 . S
C1554 N1553 1.376 . S
C1554 C1555 1.446 . S
C1554 C1577 1.391 . S
C1555 C1554 1.446 . S
C1555 C1556 1.339 . S
C1555 H1584 0.949 . S
C1556 C1555 1.339 . S
C1556 C1557 1.439 . S
C1556 H1585 0.950 . S
C1557 N1553 1.383 . S
C1557 C1556 1.439 . S
C1557 C1575 1.392 . S
N1558 Co1542 2.282 . S
N1558 C1561 1.332 . S
N1558 C1563 1.332 . S
C1559 C1560 1.386 . S
C1559 C1562 1.388 . S
C1560 C1559 1.386 . S
C1560 C1561 1.382 . S
C1560 H1586 0.950 . S
C1561 N1558 1.332 . S
C1561 C1560 1.382 . S
C1561 H1572 0.952 . S
C1562 C1559 1.388 . S
C1562 C1563 1.382 . S
C1562 H1587 0.950 . S
C1563 N1558 1.332 . S
C1563 C1562 1.382 . S
C1563 H1573 0.948 . S
N1564 Co1542 2.282 . S
N1564 C1568 1.332 . S
N1564 C1569 1.332 . S
C1565 C1566 1.388 . S
C1565 C1569 1.382 . S
C1565 H1588 0.950 . S
C1566 C1565 1.388 . S
C1566 C1567 1.386 . S
C1567 C1566 1.386 . S
C1567 C1568 1.382 . S
C1567 H1589 0.950 . S
C1568 N1564 1.332 . S
C1568 C1567 1.382 . S
C1568 H1570 0.952 . S
C1569 N1564 1.332 . S
C1569 C1565 1.382 . S
C1569 H1571 0.948 . S
H1570 C1568 0.952 . S
H1571 C1569 0.948 . S
H1572 C1561 0.952 . S
H1573 C1563 0.948 . S
C1574 C1540 1.395 . S
C1574 C1544 1.391 . S
C1575 C1537 1.389 . S
C1575 C1557 1.392 . S
C1576 C1547 1.392 . S
C1576 C1549 1.389 . S
C1577 C1552 1.395 . S
C1577 C1554 1.391 . S
H1578 C1538 0.951 . S
H1579 C1539 0.950 . S
H1580 C1545 0.949 . S
H1581 C1546 0.950 . S
H1582 C1550 0.951 . S
H1583 C1551 0.950 . S
H1584 C1555 0.949 . S
H1585 C1556 0.950 . S
H1586 C1560 0.950 . S
H1587 C1562 0.950 . S
H1588 C1565 0.950 . S
H1589 C1567 0.950 . S
C1590 C1591 1.443 . S
C1590 N1594 1.376 . S
C1590 C1628 1.389 . S
C1591 C1590 1.443 . S
C1591 C1592 1.340 . S
C1591 H1631 0.951 . S
C1592 C1591 1.340 . S
C1592 C1593 1.439 . S
C1592 H1632 0.950 . S
C1593 C1592 1.439 . S
C1593 N1594 1.374 . S
C1593 C1627 1.395 . S
N1594 C1590 1.376 . S
N1594 C1593 1.374 . S
N1594 Co1595 2.008 . S
Co1595 N1594 2.008 . S
Co1595 N1596 1.995 . S
Co1595 N1601 2.008 1_455 S
Co1595 N1606 1.995 1_455 S
Co1595 N1611 2.282 . S
Co1595 N1617 2.255 1_455 S
N1596 Co1595 1.995 . S
N1596 C1597 1.376 . S
N1596 C1600 1.383 . S
C1597 N1596 1.376 . S
C1597 C1598 1.446 . S
C1597 C1627 1.391 . S
C1598 C1597 1.446 . S
C1598 C1599 1.339 . S
C1598 H1633 0.949 . S
C1599 C1598 1.339 . S
C1599 C1600 1.439 . S
C1599 H1634 0.950 . S
C1600 N1596 1.383 . S
C1600 C1599 1.439 . S
C1600 C1629 1.392 . S
N1601 Co1595 2.008 1_655 S
N1601 C1602 1.391 . S
N1601 C1605 1.374 . S
C1602 N1601 1.391 . S
C1602 C1603 1.502 . S
C1602 C1629 1.327 1_655 S
C1603 C1602 1.502 . S
C1603 C1604 1.340 . S
C1603 H1635 0.951 . S
C1604 C1603 1.340 . S
C1604 C1605 1.439 . S
C1604 H1636 0.950 . S
C1605 N1601 1.374 . S
C1605 C1604 1.439 . S
C1605 C1630 1.395 . S
N1606 Co1595 1.995 1_655 S
N1606 C1607 1.376 . S
N1606 C1610 1.394 . S
C1607 N1606 1.376 . S
C1607 C1608 1.446 . S
C1607 C1630 1.391 . S
C1608 C1607 1.446 . S
C1608 C1609 1.339 . S
C1608 H1637 0.949 . S
C1609 C1608 1.339 . S
C1609 C1610 1.502 . S
C1609 H1638 0.950 . S
C1610 N1606 1.394 . S
C1610 C1609 1.502 . S
C1610 C1628 1.333 1_655 S
N1611 Co1595 2.282 . S
N1611 C1614 1.332 . S
N1611 C1616 1.332 . S
C1612 C1613 1.386 . S
C1612 C1615 1.388 . S
C1613 C1612 1.386 . S
C1613 C1614 1.382 . S
C1613 H1639 0.950 . S
C1614 N1611 1.332 . S
C1614 C1613 1.382 . S
C1614 H1625 0.952 . S
C1615 C1612 1.388 . S
C1615 C1616 1.382 . S
C1615 H1640 0.950 . S
C1616 N1611 1.332 . S
C1616 C1615 1.382 . S
C1616 H1626 0.948 . S
N1617 Co1595 2.255 1_655 S
N1617 C1621 1.300 1_655 S
N1617 C1622 1.389 . S
C1618 C1619 1.388 . S
C1618 C1622 1.382 . S
C1618 H1641 0.950 . S
C1619 C1618 1.388 . S
C1619 C1620 1.386 1_655 S
C1620 C1619 1.386 1_455 S
C1620 C1621 1.382 . S
C1620 H1642 0.950 . S
C1621 N1617 1.300 1_455 S
C1621 C1620 1.382 . S
C1621 H1623 0.952 . S
C1622 N1617 1.389 . S
C1622 C1618 1.382 . S
C1622 H1624 0.948 . S
H1623 C1621 0.952 . S
H1624 C1622 0.948 . S
H1625 C1614 0.952 . S
H1626 C1616 0.948 . S
C1627 C1593 1.395 . S
C1627 C1597 1.391 . S
C1628 C1590 1.389 . S
C1628 C1610 1.333 1_455 S
C1629 C1600 1.392 . S
C1629 C1602 1.327 1_455 S
C1630 C1605 1.395 . S
C1630 C1607 1.391 . S
H1631 C1591 0.951 . S
H1632 C1592 0.950 . S
H1633 C1598 0.949 . S
H1634 C1599 0.950 . S
H1635 C1603 0.951 . S
H1636 C1604 0.950 . S
H1637 C1608 0.949 . S
H1638 C1609 0.950 . S
H1639 C1613 0.950 . S
H1640 C1615 0.950 . S
H1641 C1618 0.950 . S
H1642 C1620 0.950 . S
C1643 C1644 1.443 . S
C1643 N1647 1.376 . S
C1643 C1681 1.389 . S
C1644 C1643 1.443 . S
C1644 C1645 1.340 . S
C1644 H1684 0.951 . S
C1645 C1644 1.340 . S
C1645 C1646 1.439 . S
C1645 H1685 0.950 . S
C1646 C1645 1.439 . S
C1646 N1647 1.374 . S
C1646 C1680 1.395 . S
N1647 C1643 1.376 . S
N1647 C1646 1.374 . S
N1647 Co1648 2.008 . S
Co1648 N1647 2.008 . S
Co1648 N1649 1.995 . S
Co1648 N1654 2.008 . S
Co1648 N1659 1.995 . S
Co1648 N1664 2.282 . S
Co1648 N1670 2.282 . S
N1649 Co1648 1.995 . S
N1649 C1650 1.376 . S
N1649 C1653 1.383 . S
C1650 N1649 1.376 . S
C1650 C1651 1.446 . S
C1650 C1680 1.391 . S
C1651 C1650 1.446 . S
C1651 C1652 1.339 . S
C1651 H1686 0.949 . S
C1652 C1651 1.339 . S
C1652 C1653 1.439 . S
C1652 H1687 0.950 . S
C1653 N1649 1.383 . S
C1653 C1652 1.439 . S
C1653 C1682 1.392 . S
N1654 Co1648 2.008 . S
N1654 C1655 1.376 . S
N1654 C1658 1.374 . S
C1655 N1654 1.376 . S
C1655 C1656 1.443 . S
C1655 C1682 1.389 . S
C1656 C1655 1.443 . S
C1656 C1657 1.340 . S
C1656 H1688 0.951 . S
C1657 C1656 1.340 . S
C1657 C1658 1.439 . S
C1657 H1689 0.950 . S
C1658 N1654 1.374 . S
C1658 C1657 1.439 . S
C1658 C1683 1.395 . S
N1659 Co1648 1.995 . S
N1659 C1660 1.376 . S
N1659 C1663 1.383 . S
C1660 N1659 1.376 . S
C1660 C1661 1.446 . S
C1660 C1683 1.391 . S
C1661 C1660 1.446 . S
C1661 C1662 1.339 . S
C1661 H1690 0.949 . S
C1662 C1661 1.339 . S
C1662 C1663 1.439 . S
C1662 H1691 0.950 . S
C1663 N1659 1.383 . S
C1663 C1662 1.439 . S
C1663 C1681 1.392 . S
N1664 Co1648 2.282 . S
N1664 C1667 1.332 . S
N1664 C1669 1.332 . S
C1665 C1666 1.386 . S
C1665 C1668 1.388 . S
C1666 C1665 1.386 . S
C1666 C1667 1.382 . S
C1666 H1692 0.950 . S
C1667 N1664 1.332 . S
C1667 C1666 1.382 . S
C1667 H1678 0.952 . S
C1668 C1665 1.388 . S
C1668 C1669 1.382 . S
C1668 H1693 0.950 . S
C1669 N1664 1.332 . S
C1669 C1668 1.382 . S
C1669 H1679 0.948 . S
N1670 Co1648 2.282 . S
N1670 C1674 1.332 . S
N1670 C1675 1.332 . S
C1671 C1672 1.388 . S
C1671 C1675 1.382 . S
C1671 H1694 0.950 . S
C1672 C1671 1.388 . S
C1672 C1673 1.386 . S
C1673 C1672 1.386 . S
C1673 C1674 1.382 . S
C1673 H1695 0.950 . S
C1674 N1670 1.332 . S
C1674 C1673 1.382 . S
C1674 H1676 0.952 . S
C1675 N1670 1.332 . S
C1675 C1671 1.382 . S
C1675 H1677 0.948 . S
H1676 C1674 0.952 . S
H1677 C1675 0.948 . S
H1678 C1667 0.952 . S
H1679 C1669 0.948 . S
C1680 C1646 1.395 . S
C1680 C1650 1.391 . S
C1681 C1643 1.389 . S
C1681 C1663 1.392 . S
C1682 C1653 1.392 . S
C1682 C1655 1.389 . S
C1683 C1658 1.395 . S
C1683 C1660 1.391 . S
H1684 C1644 0.951 . S
H1685 C1645 0.950 . S
H1686 C1651 0.949 . S
H1687 C1652 0.950 . S
H1688 C1656 0.951 . S
H1689 C1657 0.950 . S
H1690 C1661 0.949 . S
H1691 C1662 0.950 . S
H1692 C1666 0.950 . S
H1693 C1668 0.950 . S
H1694 C1671 0.950 . S
H1695 C1673 0.950 . S
H1696 C1704 0.950 . S
H1697 C1709 0.950 . S
H1698 C1706 0.950 . S
H1699 C1708 0.950 . S
H1700 C1710 0.950 . S
H1701 C1712 0.950 . S
H1702 C1714 0.950 . S
H1703 C1715 0.950 . S
C1704 H1696 0.950 . S
C1704 C1705 1.386 . S
C1704 C1706 1.391 . S
C1705 C1704 1.386 . S
C1705 C1709 1.393 1_655 S
C1706 H1698 0.950 . S
C1706 C1704 1.391 . S
C1706 C1707 1.400 . S
C1707 C1706 1.400 . S
C1707 C1708 1.398 1_655 S
C1707 C1713 1.477 1_655 S
C1708 H1699 0.950 . S
C1708 C1707 1.398 1_455 S
C1708 C1709 1.391 . S
C1709 H1697 0.950 . S
C1709 C1705 1.393 1_455 S
C1709 C1708 1.391 . S
C1710 H1700 0.950 . S
C1710 C1711 1.386 . S
C1710 C1712 1.391 . S
C1711 C1710 1.386 . S
C1711 C1715 1.393 1_455 S
C1712 H1701 0.950 . S
C1712 C1710 1.391 . S
C1712 C1713 1.469 . S
C1713 C1707 1.477 1_455 S
C1713 C1712 1.469 . S
C1713 C1714 1.346 1_455 S
C1714 H1702 0.950 . S
C1714 C1713 1.346 1_655 S
C1714 C1715 1.391 . S
C1715 H1703 0.950 . S
C1715 C1711 1.393 1_655 S
C1715 C1714 1.391 . S
H1716 C1724 0.950 . S
H1717 C1729 0.950 . S
H1718 C1726 0.950 . S
H1719 C1728 0.950 . S
H1720 C1730 0.950 . S
H1721 C1732 0.950 . S
H1722 C1734 0.950 . S
H1723 C1735 0.950 . S
C1724 H1716 0.950 . S
C1724 C1725 1.386 . S
C1724 C1726 1.391 1_556 S
C1725 C1724 1.386 . S
C1725 C1729 1.393 . S
C1726 H1718 0.950 . S
C1726 C1724 1.391 1_554 S
C1726 C1727 1.400 . S
C1727 C1726 1.400 . S
C1727 C1728 1.398 . S
C1727 C1733 1.491 . S
C1728 H1719 0.950 . S
C1728 C1727 1.398 . S
C1728 C1729 1.391 1_554 S
C1729 H1717 0.950 . S
C1729 C1725 1.393 . S
C1729 C1728 1.391 1_556 S
C1730 H1720 0.950 . S
C1730 C1731 1.386 . S
C1730 C1732 1.391 . S
C1731 C1730 1.386 . S
C1731 C1735 1.393 . S
C1732 H1721 0.950 . S
C1732 C1730 1.391 . S
C1732 C1733 1.400 . S
C1733 C1727 1.491 . S
C1733 C1732 1.400 . S
C1733 C1734 1.398 . S
C1734 H1722 0.950 . S
C1734 C1733 1.398 . S
C1734 C1735 1.391 . S
C1735 H1723 0.950 . S
C1735 C1731 1.393 . S
C1735 C1734 1.391 . S
H1736 C1744 0.950 . S
H1737 C1749 0.950 . S
H1738 C1746 0.950 . S
H1739 C1748 0.950 . S
H1740 C1750 0.950 . S
H1741 C1752 0.950 . S
H1742 C1754 0.950 . S
H1743 C1755 0.950 . S
C1744 H1736 0.950 . S
C1744 C1745 1.386 . S
C1744 C1746 1.391 . S
C1745 C1744 1.386 . S
C1745 C1749 1.393 . S
C1746 H1738 0.950 . S
C1746 C1744 1.391 . S
C1746 C1747 1.400 . S
C1747 C1746 1.400 . S
C1747 C1748 1.398 . S
C1747 C1753 1.491 . S
C1748 H1739 0.950 . S
C1748 C1747 1.398 . S
C1748 C1749 1.391 . S
C1749 H1737 0.950 . S
C1749 C1745 1.393 . S
C1749 C1748 1.391 . S
C1750 H1740 0.950 . S
C1750 C1751 1.386 . S
C1750 C1752 1.391 . S
C1751 C1750 1.386 . S
C1751 C1755 1.393 . S
C1752 H1741 0.950 . S
C1752 C1750 1.391 . S
C1752 C1753 1.400 . S
C1753 C1747 1.491 . S
C1753 C1752 1.400 . S
C1753 C1754 1.398 . S
C1754 H1742 0.950 . S
C1754 C1753 1.398 . S
C1754 C1755 1.391 . S
C1755 H1743 0.950 . S
C1755 C1751 1.393 . S
C1755 C1754 1.391 . S
H1756 C1764 0.950 . S
H1757 C1769 0.950 . S
H1758 C1766 0.950 . S
H1759 C1768 0.950 . S
H1760 C1770 0.950 . S
H1761 C1772 0.950 . S
H1762 C1774 0.950 . S
H1763 C1775 0.950 . S
C1764 H1756 0.950 . S
C1764 C1765 1.386 . S
C1764 C1766 1.391 . S
C1765 C1764 1.386 . S
C1765 C1769 1.393 . S
C1766 H1758 0.950 . S
C1766 C1764 1.391 . S
C1766 C1767 1.400 . S
C1767 C1766 1.400 . S
C1767 C1768 1.398 . S
C1767 C1773 1.491 . S
C1768 H1759 0.950 . S
C1768 C1767 1.398 . S
C1768 C1769 1.391 . S
C1769 H1757 0.950 . S
C1769 C1765 1.393 . S
C1769 C1768 1.391 . S
C1770 H1760 0.950 . S
C1770 C1771 1.386 . S
C1770 C1772 1.391 . S
C1771 C1770 1.386 . S
C1771 C1775 1.393 . S
C1772 H1761 0.950 . S
C1772 C1770 1.391 . S
C1772 C1773 1.400 . S
C1773 C1767 1.491 . S
C1773 C1772 1.400 . S
C1773 C1774 1.398 . S
C1774 H1762 0.950 . S
C1774 C1773 1.398 . S
C1774 C1775 1.391 . S
C1775 H1763 0.950 . S
C1775 C1771 1.393 . S
C1775 C1774 1.391 . S
H1776 C1784 0.950 . S
H1777 C1789 0.931 1_455 S
H1778 C1786 0.950 . S
H1779 C1788 0.950 . S
H1780 C1790 0.950 . S
H1781 C1792 0.950 . S
H1782 C1794 0.950 . S
H1783 C1795 0.965 . S
C1784 H1776 0.950 . S
C1784 C1785 1.386 . S
C1784 C1786 1.391 . S
C1785 C1784 1.386 . S
C1785 C1789 1.431 . S
C1786 H1778 0.950 . S
C1786 C1784 1.391 . S
C1786 C1787 1.400 . S
C1787 C1786 1.400 . S
C1787 C1788 1.398 1_655 S
C1787 C1793 1.482 1_655 S
C1788 H1779 0.950 . S
C1788 C1787 1.398 1_455 S
C1788 C1789 1.377 1_455 S
C1789 H1777 0.931 1_655 S
C1789 C1785 1.431 . S
C1789 C1788 1.377 1_655 S
C1790 H1780 0.950 . S
C1790 C1791 1.386 . S
C1790 C1792 1.391 . S
C1791 C1790 1.386 . S
C1791 C1795 1.369 1_455 S
C1792 H1781 0.950 . S
C1792 C1790 1.391 . S
C1792 C1793 1.428 . S
C1793 C1787 1.482 1_455 S
C1793 C1792 1.428 . S
C1793 C1794 1.383 1_455 S
C1794 H1782 0.950 . S
C1794 C1793 1.383 1_655 S
C1794 C1795 1.402 . S
C1795 H1783 0.965 . S
C1795 C1791 1.369 1_655 S
C1795 C1794 1.402 . S
H1796 C1804 0.950 . S
H1797 C1809 0.950 . S
H1798 C1806 0.950 . S
H1799 C1808 0.950 . S
H1800 C1810 0.950 . S
H1801 C1812 0.950 . S
H1802 C1814 0.950 . S
H1803 C1815 0.950 . S
C1804 H1796 0.950 . S
C1804 C1805 1.386 . S
C1804 C1806 1.391 . S
C1805 C1804 1.386 . S
C1805 C1809 1.393 . S
C1806 H1798 0.950 . S
C1806 C1804 1.391 . S
C1806 C1807 1.400 . S
C1807 C1806 1.400 . S
C1807 C1808 1.398 . S
C1807 C1813 1.491 . S
C1808 H1799 0.950 . S
C1808 C1807 1.398 . S
C1808 C1809 1.391 . S
C1809 H1797 0.950 . S
C1809 C1805 1.393 . S
C1809 C1808 1.391 . S
C1810 H1800 0.950 . S
C1810 C1811 1.386 . S
C1810 C1812 1.391 1_554 S
C1811 C1810 1.386 . S
C1811 C1815 1.393 . S
C1812 H1801 0.950 . S
C1812 C1810 1.391 1_556 S
C1812 C1813 1.400 . S
C1813 C1807 1.491 . S
C1813 C1812 1.400 . S
C1813 C1814 1.398 . S
C1814 H1802 0.950 . S
C1814 C1813 1.398 . S
C1814 C1815 1.391 1_556 S
C1815 H1803 0.950 . S
C1815 C1811 1.393 . S
C1815 C1814 1.391 1_554 S
H1816 C1824 0.950 . S
H1817 C1829 0.950 . S
H1818 C1826 0.950 . S
H1819 C1828 0.950 . S
H1820 C1830 0.950 . S
H1821 C1832 0.950 . S
H1822 C1834 0.950 . S
H1823 C1835 0.950 . S
C1824 H1816 0.950 . S
C1824 C1825 1.386 . S
C1824 C1826 1.391 . S
C1825 C1824 1.386 . S
C1825 C1829 1.393 . S
C1826 H1818 0.950 . S
C1826 C1824 1.391 . S
C1826 C1827 1.400 . S
C1827 C1826 1.400 . S
C1827 C1828 1.398 . S
C1827 C1833 1.491 . S
C1828 H1819 0.950 . S
C1828 C1827 1.398 . S
C1828 C1829 1.391 . S
C1829 H1817 0.950 . S
C1829 C1825 1.393 . S
C1829 C1828 1.391 . S
C1830 H1820 0.950 . S
C1830 C1831 1.386 . S
C1830 C1832 1.391 . S
C1831 C1830 1.386 . S
C1831 C1835 1.393 . S
C1832 H1821 0.950 . S
C1832 C1830 1.391 . S
C1832 C1833 1.400 . S
C1833 C1827 1.491 . S
C1833 C1832 1.400 . S
C1833 C1834 1.398 . S
C1834 H1822 0.950 . S
C1834 C1833 1.398 . S
C1834 C1835 1.391 . S
C1835 H1823 0.950 . S
C1835 C1831 1.393 . S
C1835 C1834 1.391 . S
H1836 C1844 0.950 . S
H1837 C1849 0.950 . S
H1838 C1846 0.950 . S
H1839 C1848 0.950 . S
H1840 C1850 0.950 . S
H1841 C1852 0.950 . S
H1842 C1854 0.950 . S
H1843 C1855 0.950 . S
C1844 H1836 0.950 . S
C1844 C1845 1.386 . S
C1844 C1846 1.391 . S
C1845 C1844 1.386 . S
C1845 C1849 1.393 . S
C1846 H1838 0.950 . S
C1846 C1844 1.391 . S
C1846 C1847 1.400 . S
C1847 C1846 1.400 . S
C1847 C1848 1.398 . S
C1847 C1853 1.491 . S
C1848 H1839 0.950 . S
C1848 C1847 1.398 . S
C1848 C1849 1.391 . S
C1849 H1837 0.950 . S
C1849 C1845 1.393 . S
C1849 C1848 1.391 . S
C1850 H1840 0.950 . S
C1850 C1851 1.386 . S
C1850 C1852 1.391 . S
C1851 C1850 1.386 . S
C1851 C1855 1.393 . S
C1852 H1841 0.950 . S
C1852 C1850 1.391 . S
C1852 C1853 1.400 . S
C1853 C1847 1.491 . S
C1853 C1852 1.400 . S
C1853 C1854 1.398 . S
C1854 H1842 0.950 . S
C1854 C1853 1.398 . S
C1854 C1855 1.391 . S
C1855 H1843 0.950 . S
C1855 C1851 1.393 . S
C1855 C1854 1.391 . S
H1856 C1864 0.950 . S
H1857 C1869 0.950 . S
H1858 C1866 0.950 . S
H1859 C1868 0.934 1_655 S
H1860 C1870 0.950 . S
H1861 C1872 0.950 . S
H1862 C1874 0.947 1_455 S
H1863 C1875 0.950 . S
C1864 H1856 0.950 . S
C1864 C1865 1.386 . S
C1864 C1866 1.391 . S
C1865 C1864 1.386 . S
C1865 C1869 1.393 . S
C1866 H1858 0.950 . S
C1866 C1864 1.391 . S
C1866 C1867 1.400 . S
C1867 C1866 1.400 . S
C1867 C1868 1.398 . S
C1867 C1873 1.482 1_455 S
C1868 H1859 0.934 1_455 S
C1868 C1867 1.398 . S
C1868 C1869 1.391 . S
C1869 H1857 0.950 . S
C1869 C1865 1.393 . S
C1869 C1868 1.391 . S
C1870 H1860 0.950 . S
C1870 C1871 1.386 . S
C1870 C1872 1.391 . S
C1871 C1870 1.386 . S
C1871 C1875 1.393 . S
C1872 H1861 0.950 . S
C1872 C1870 1.391 . S
C1872 C1873 1.413 . S
C1873 C1867 1.482 1_655 S
C1873 C1872 1.413 . S
C1873 C1874 1.398 . S
C1874 H1862 0.947 1_655 S
C1874 C1873 1.398 . S
C1874 C1875 1.393 . S
C1875 H1863 0.950 . S
C1875 C1871 1.393 . S
C1875 C1874 1.393 . S
H1876 C1884 0.950 . S
H1877 C1889 0.950 . S
H1878 C1886 0.950 . S
H1879 C1888 0.950 . S
H1880 C1890 0.950 . S
H1881 C1892 0.950 . S
H1882 C1894 0.950 . S
H1883 C1895 0.950 . S
C1884 H1876 0.950 . S
C1884 C1885 1.386 . S
C1884 C1886 1.391 1_554 S
C1885 C1884 1.386 . S
C1885 C1889 1.393 . S
C1886 H1878 0.950 . S
C1886 C1884 1.391 1_556 S
C1886 C1887 1.400 . S
C1887 C1886 1.400 . S
C1887 C1888 1.398 . S
C1887 C1893 1.491 . S
C1888 H1879 0.950 . S
C1888 C1887 1.398 . S
C1888 C1889 1.391 1_556 S
C1889 H1877 0.950 . S
C1889 C1885 1.393 . S
C1889 C1888 1.391 1_554 S
C1890 H1880 0.950 . S
C1890 C1891 1.386 . S
C1890 C1892 1.391 . S
C1891 C1890 1.386 . S
C1891 C1895 1.393 . S
C1892 H1881 0.950 . S
C1892 C1890 1.391 . S
C1892 C1893 1.400 . S
C1893 C1887 1.491 . S
C1893 C1892 1.400 . S
C1893 C1894 1.398 . S
C1894 H1882 0.950 . S
C1894 C1893 1.398 . S
C1894 C1895 1.391 . S
C1895 H1883 0.950 . S
C1895 C1891 1.393 . S
C1895 C1894 1.391 . S
H1896 C1904 0.950 . S
H1897 C1909 0.950 . S
H1898 C1906 0.950 . S
H1899 C1908 0.950 . S
H1900 C1910 0.950 . S
H1901 C1912 0.950 . S
H1902 C1914 0.950 . S
H1903 C1915 0.950 . S
C1904 H1896 0.950 . S
C1904 C1905 1.386 . S
C1904 C1906 1.391 . S
C1905 C1904 1.386 . S
C1905 C1909 1.393 . S
C1906 H1898 0.950 . S
C1906 C1904 1.391 . S
C1906 C1907 1.400 . S
C1907 C1906 1.400 . S
C1907 C1908 1.398 . S
C1907 C1913 1.491 . S
C1908 H1899 0.950 . S
C1908 C1907 1.398 . S
C1908 C1909 1.391 . S
C1909 H1897 0.950 . S
C1909 C1905 1.393 . S
C1909 C1908 1.391 . S
C1910 H1900 0.950 . S
C1910 C1911 1.386 . S
C1910 C1912 1.391 . S
C1911 C1910 1.386 . S
C1911 C1915 1.393 . S
C1912 H1901 0.950 . S
C1912 C1910 1.391 . S
C1912 C1913 1.400 . S
C1913 C1907 1.491 . S
C1913 C1912 1.400 . S
C1913 C1914 1.398 . S
C1914 H1902 0.950 . S
C1914 C1913 1.398 . S
C1914 C1915 1.391 . S
C1915 H1903 0.950 . S
C1915 C1911 1.393 . S
C1915 C1914 1.391 . S
H1916 C1924 0.950 . S
H1917 C1929 0.950 . S
H1918 C1926 0.950 . S
H1919 C1928 0.950 . S
H1920 C1930 0.950 . S
H1921 C1932 0.950 . S
H1922 C1934 0.950 . S
H1923 C1935 0.950 . S
C1924 H1916 0.950 . S
C1924 C1925 1.386 . S
C1924 C1926 1.391 . S
C1925 C1924 1.386 . S
C1925 C1929 1.393 . S
C1926 H1918 0.950 . S
C1926 C1924 1.391 . S
C1926 C1927 1.400 . S
C1927 C1926 1.400 . S
C1927 C1928 1.398 . S
C1927 C1933 1.491 . S
C1928 H1919 0.950 . S
C1928 C1927 1.398 . S
C1928 C1929 1.391 . S
C1929 H1917 0.950 . S
C1929 C1925 1.393 . S
C1929 C1928 1.391 . S
C1930 H1920 0.950 . S
C1930 C1931 1.386 . S
C1930 C1932 1.391 . S
C1931 C1930 1.386 . S
C1931 C1935 1.393 . S
C1932 H1921 0.950 . S
C1932 C1930 1.391 . S
C1932 C1933 1.400 . S
C1933 C1927 1.491 . S
C1933 C1932 1.400 . S
C1933 C1934 1.398 . S
C1934 H1922 0.950 . S
C1934 C1933 1.398 . S
C1934 C1935 1.391 . S
C1935 H1923 0.950 . S
C1935 C1931 1.393 . S
C1935 C1934 1.391 . S
H1936 C1944 0.950 . S
H1937 C1949 0.950 . S
H1938 C1946 0.950 . S
H1939 C1948 0.950 . S
H1940 C1950 0.950 . S
H1941 C1952 0.950 . S
H1942 C1954 0.950 . S
H1943 C1955 0.950 . S
C1944 H1936 0.950 . S
C1944 C1945 1.386 1_455 S
C1944 C1946 1.391 . S
C1945 C1944 1.386 1_655 S
C1945 C1949 1.393 . S
C1946 H1938 0.950 . S
C1946 C1944 1.391 . S
C1946 C1947 1.343 1_455 S
C1947 C1946 1.343 1_655 S
C1947 C1948 1.479 . S
C1947 C1953 1.473 1_655 S
C1948 H1939 0.950 . S
C1948 C1947 1.479 . S
C1948 C1949 1.391 . S
C1949 H1937 0.950 . S
C1949 C1945 1.393 . S
C1949 C1948 1.391 . S
C1950 H1940 0.950 . S
C1950 C1951 1.386 1_655 S
C1950 C1952 1.391 . S
C1951 C1950 1.386 1_455 S
C1951 C1955 1.393 . S
C1952 H1941 0.950 . S
C1952 C1950 1.391 . S
C1952 C1953 1.400 1_655 S
C1953 C1947 1.473 1_455 S
C1953 C1952 1.400 1_455 S
C1953 C1954 1.398 . S
C1954 H1942 0.950 . S
C1954 C1953 1.398 . S
C1954 C1955 1.391 . S
C1955 H1943 0.950 . S
C1955 C1951 1.393 . S
C1955 C1954 1.391 . S
H1956 C1964 0.950 . S
H1957 C1969 0.950 . S
H1958 C1966 0.950 . S
H1959 C1968 0.950 . S
H1960 C1970 0.950 . S
H1961 C1972 0.950 . S
H1962 C1974 0.950 . S
H1963 C1975 0.950 . S
C1964 H1956 0.950 . S
C1964 C1965 1.386 . S
C1964 C1966 1.391 . S
C1965 C1964 1.386 . S
C1965 C1969 1.393 . S
C1966 H1958 0.950 . S
C1966 C1964 1.391 . S
C1966 C1967 1.400 . S
C1967 C1966 1.400 . S
C1967 C1968 1.398 . S
C1967 C1973 1.491 . S
C1968 H1959 0.950 . S
C1968 C1967 1.398 . S
C1968 C1969 1.391 . S
C1969 H1957 0.950 . S
C1969 C1965 1.393 . S
C1969 C1968 1.391 . S
C1970 H1960 0.950 . S
C1970 C1971 1.386 . S
C1970 C1972 1.391 1_556 S
C1971 C1970 1.386 . S
C1971 C1975 1.393 . S
C1972 H1961 0.950 . S
C1972 C1970 1.391 1_554 S
C1972 C1973 1.400 . S
C1973 C1967 1.491 . S
C1973 C1972 1.400 . S
C1973 C1974 1.398 . S
C1974 H1962 0.950 . S
C1974 C1973 1.398 . S
C1974 C1975 1.391 1_554 S
C1975 H1963 0.950 . S
C1975 C1971 1.393 . S
C1975 C1974 1.391 1_556 S
H1976 C1984 0.950 . S
H1977 C1989 0.950 . S
H1978 C1986 0.950 . S
H1979 C1988 0.950 . S
H1980 C1990 0.950 . S
H1981 C1992 0.950 . S
H1982 C1994 0.950 . S
H1983 C1995 0.950 . S
C1984 H1976 0.950 . S
C1984 C1985 1.386 . S
C1984 C1986 1.391 . S
C1985 C1984 1.386 . S
C1985 C1989 1.393 . S
C1986 H1978 0.950 . S
C1986 C1984 1.391 . S
C1986 C1987 1.400 . S
C1987 C1986 1.400 . S
C1987 C1988 1.398 . S
C1987 C1993 1.491 . S
C1988 H1979 0.950 . S
C1988 C1987 1.398 . S
C1988 C1989 1.391 . S
C1989 H1977 0.950 . S
C1989 C1985 1.393 . S
C1989 C1988 1.391 . S
C1990 H1980 0.950 . S
C1990 C1991 1.386 . S
C1990 C1992 1.391 . S
C1991 C1990 1.386 . S
C1991 C1995 1.393 . S
C1992 H1981 0.950 . S
C1992 C1990 1.391 . S
C1992 C1993 1.400 . S
C1993 C1987 1.491 . S
C1993 C1992 1.400 . S
C1993 C1994 1.398 . S
C1994 H1982 0.950 . S
C1994 C1993 1.398 . S
C1994 C1995 1.391 . S
C1995 H1983 0.950 . S
C1995 C1991 1.393 . S
C1995 C1994 1.391 . S
H1996 C2004 0.950 . S
H1997 C2009 0.950 . S
H1998 C2006 0.950 . S
H1999 C2008 0.950 . S
H2000 C2010 0.950 . S
H2001 C2012 0.950 . S
H2002 C2014 0.950 . S
H2003 C2015 0.950 . S
C2004 H1996 0.950 . S
C2004 C2005 1.386 . S
C2004 C2006 1.391 . S
C2005 C2004 1.386 . S
C2005 C2009 1.393 . S
C2006 H1998 0.950 . S
C2006 C2004 1.391 . S
C2006 C2007 1.400 . S
C2007 C2006 1.400 . S
C2007 C2008 1.398 . S
C2007 C2013 1.491 . S
C2008 H1999 0.950 . S
C2008 C2007 1.398 . S
C2008 C2009 1.391 . S
C2009 H1997 0.950 . S
C2009 C2005 1.393 . S
C2009 C2008 1.391 . S
C2010 H2000 0.950 . S
C2010 C2011 1.386 . S
C2010 C2012 1.391 . S
C2011 C2010 1.386 . S
C2011 C2015 1.393 . S
C2012 H2001 0.950 . S
C2012 C2010 1.391 . S
C2012 C2013 1.400 . S
C2013 C2007 1.491 . S
C2013 C2012 1.400 . S
C2013 C2014 1.398 . S
C2014 H2002 0.950 . S
C2014 C2013 1.398 . S
C2014 C2015 1.391 . S
C2015 H2003 0.950 . S
C2015 C2011 1.393 . S
C2015 C2014 1.391 . S
H2016 C2024 0.950 . S
H2017 C2029 0.950 . S
H2018 C2026 0.950 . S
H2019 C2028 0.950 . S
H2020 C2030 0.950 . S
H2021 C2032 0.950 . S
H2022 C2034 0.950 . S
H2023 C2035 0.950 . S
C2024 H2016 0.950 . S
C2024 C2025 1.386 . S
C2024 C2026 1.391 . S
C2025 C2024 1.386 . S
C2025 C2029 1.393 . S
C2026 H2018 0.950 . S
C2026 C2024 1.391 . S
C2026 C2027 1.400 . S
C2027 C2026 1.400 . S
C2027 C2028 1.398 . S
C2027 C2033 1.491 . S
C2028 H2019 0.950 . S
C2028 C2027 1.398 . S
C2028 C2029 1.391 . S
C2029 H2017 0.950 . S
C2029 C2025 1.393 . S
C2029 C2028 1.391 . S
C2030 H2020 0.950 . S
C2030 C2031 1.386 . S
C2030 C2032 1.391 . S
C2031 C2030 1.386 . S
C2031 C2035 1.393 . S
C2032 H2021 0.950 . S
C2032 C2030 1.391 . S
C2032 C2033 1.400 . S
C2033 C2027 1.491 . S
C2033 C2032 1.400 . S
C2033 C2034 1.398 . S
C2034 H2022 0.950 . S
C2034 C2033 1.398 . S
C2034 C2035 1.391 . S
C2035 H2023 0.950 . S
C2035 C2031 1.393 . S
C2035 C2034 1.391 . S
H2036 C2044 0.950 . S
H2037 C2049 0.950 . S
H2038 C2046 0.950 . S
H2039 C2048 0.950 . S
H2040 C2050 0.950 . S
H2041 C2052 0.950 . S
H2042 C2054 0.950 . S
H2043 C2055 0.950 . S
C2044 H2036 0.950 . S
C2044 C2045 1.386 . S
C2044 C2046 1.391 . S
C2045 C2044 1.386 . S
C2045 C2049 1.393 . S
C2046 H2038 0.950 . S
C2046 C2044 1.391 . S
C2046 C2047 1.400 . S
C2047 C2046 1.400 . S
C2047 C2048 1.398 . S
C2047 C2053 1.491 . S
C2048 H2039 0.950 . S
C2048 C2047 1.398 . S
C2048 C2049 1.391 . S
C2049 H2037 0.950 . S
C2049 C2045 1.393 . S
C2049 C2048 1.391 . S
C2050 H2040 0.950 . S
C2050 C2051 1.386 . S
C2050 C2052 1.391 . S
C2051 C2050 1.386 . S
C2051 C2055 1.393 . S
C2052 H2041 0.950 . S
C2052 C2050 1.391 . S
C2052 C2053 1.400 . S
C2053 C2047 1.491 . S
C2053 C2052 1.400 . S
C2053 C2054 1.398 . S
C2054 H2042 0.950 . S
C2054 C2053 1.398 . S
C2054 C2055 1.391 . S
C2055 H2043 0.950 . S
C2055 C2051 1.393 . S
C2055 C2054 1.391 . S
H2056 C2064 0.950 . S
H2057 C2069 0.950 . S
H2058 C2066 0.950 . S
H2059 C2068 0.950 . S
H2060 C2070 0.950 . S
H2061 C2072 0.950 . S
H2062 C2074 0.950 . S
H2063 C2075 0.950 . S
C2064 H2056 0.950 . S
C2064 C2065 1.386 . S
C2064 C2066 1.391 . S
C2065 C2064 1.386 . S
C2065 C2069 1.393 1_455 S
C2066 H2058 0.950 . S
C2066 C2064 1.391 . S
C2066 C2067 1.400 . S
C2067 C2066 1.400 . S
C2067 C2068 1.398 1_455 S
C2067 C2073 1.480 1_455 S
C2068 H2059 0.950 . S
C2068 C2067 1.398 1_655 S
C2068 C2069 1.391 . S
C2069 H2057 0.950 . S
C2069 C2065 1.393 1_655 S
C2069 C2068 1.391 . S
C2070 H2060 0.950 . S
C2070 C2071 1.386 . S
C2070 C2072 1.391 . S
C2071 C2070 1.386 . S
C2071 C2075 1.393 1_655 S
C2072 H2061 0.950 . S
C2072 C2070 1.391 . S
C2072 C2073 1.450 . S
C2073 C2067 1.480 1_655 S
C2073 C2072 1.450 . S
C2073 C2074 1.362 1_655 S
C2074 H2062 0.950 . S
C2074 C2073 1.362 1_455 S
C2074 C2075 1.391 . S
C2075 H2063 0.950 . S
C2075 C2071 1.393 1_455 S
C2075 C2074 1.391 . S
H2076 C2084 0.950 . S
H2077 C2089 0.950 . S
H2078 C2086 0.950 . S
H2079 C2088 0.950 . S
H2080 C2090 0.950 . S
H2081 C2092 0.950 . S
H2082 C2094 0.950 . S
H2083 C2095 0.950 . S
C2084 H2076 0.950 . S
C2084 C2085 1.386 . S
C2084 C2086 1.391 . S
C2085 C2084 1.386 . S
C2085 C2089 1.393 . S
C2086 H2078 0.950 . S
C2086 C2084 1.391 . S
C2086 C2087 1.400 . S
C2087 C2086 1.400 . S
C2087 C2088 1.398 . S
C2087 C2093 1.491 . S
C2088 H2079 0.950 . S
C2088 C2087 1.398 . S
C2088 C2089 1.391 . S
C2089 H2077 0.950 . S
C2089 C2085 1.393 . S
C2089 C2088 1.391 . S
C2090 H2080 0.950 . S
C2090 C2091 1.386 . S
C2090 C2092 1.391 1_556 S
C2091 C2090 1.386 . S
C2091 C2095 1.393 . S
C2092 H2081 0.950 . S
C2092 C2090 1.391 1_554 S
C2092 C2093 1.400 . S
C2093 C2087 1.491 . S
C2093 C2092 1.400 . S
C2093 C2094 1.398 . S
C2094 H2082 0.950 . S
C2094 C2093 1.398 . S
C2094 C2095 1.391 1_554 S
C2095 H2083 0.950 . S
C2095 C2091 1.393 . S
C2095 C2094 1.391 1_556 S
H2096 C2104 0.950 . S
H2097 C2109 0.950 . S
H2098 C2106 0.950 . S
H2099 C2108 0.950 . S
H2100 C2110 0.950 . S
H2101 C2112 0.950 . S
H2102 C2114 0.950 . S
H2103 C2115 0.950 . S
C2104 H2096 0.950 . S
C2104 C2105 1.386 . S
C2104 C2106 1.391 . S
C2105 C2104 1.386 . S
C2105 C2109 1.393 . S
C2106 H2098 0.950 . S
C2106 C2104 1.391 . S
C2106 C2107 1.400 . S
C2107 C2106 1.400 . S
C2107 C2108 1.398 . S
C2107 C2113 1.491 . S
C2108 H2099 0.950 . S
C2108 C2107 1.398 . S
C2108 C2109 1.391 . S
C2109 H2097 0.950 . S
C2109 C2105 1.393 . S
C2109 C2108 1.391 . S
C2110 H2100 0.950 . S
C2110 C2111 1.386 . S
C2110 C2112 1.391 . S
C2111 C2110 1.386 . S
C2111 C2115 1.393 . S
C2112 H2101 0.950 . S
C2112 C2110 1.391 . S
C2112 C2113 1.400 . S
C2113 C2107 1.491 . S
C2113 C2112 1.400 . S
C2113 C2114 1.398 . S
C2114 H2102 0.950 . S
C2114 C2113 1.398 . S
C2114 C2115 1.391 . S
C2115 H2103 0.950 . S
C2115 C2111 1.393 . S
C2115 C2114 1.391 . S
H2116 C2124 0.950 . S
H2117 C2129 0.950 . S
H2118 C2126 0.950 . S
H2119 C2128 0.950 . S
H2120 C2130 0.950 . S
H2121 C2132 0.950 . S
H2122 C2134 0.950 . S
H2123 C2135 0.950 . S
C2124 H2116 0.950 . S
C2124 C2125 1.386 . S
C2124 C2126 1.391 . S
C2125 C2124 1.386 . S
C2125 C2129 1.393 . S
C2126 H2118 0.950 . S
C2126 C2124 1.391 . S
C2126 C2127 1.400 . S
C2127 C2126 1.400 . S
C2127 C2128 1.398 . S
C2127 C2133 1.491 . S
C2128 H2119 0.950 . S
C2128 C2127 1.398 . S
C2128 C2129 1.391 . S
C2129 H2117 0.950 . S
C2129 C2125 1.393 . S
C2129 C2128 1.391 . S
C2130 H2120 0.950 . S
C2130 C2131 1.386 . S
C2130 C2132 1.391 . S
C2131 C2130 1.386 . S
C2131 C2135 1.393 . S
C2132 H2121 0.950 . S
C2132 C2130 1.391 . S
C2132 C2133 1.400 . S
C2133 C2127 1.491 . S
C2133 C2132 1.400 . S
C2133 C2134 1.398 . S
C2134 H2122 0.950 . S
C2134 C2133 1.398 . S
C2134 C2135 1.391 . S
C2135 H2123 0.950 . S
C2135 C2131 1.393 . S
C2135 C2134 1.391 . S
H2136 C2144 0.950 . S
H2137 C2149 0.950 . S
H2138 C2146 0.950 . S
H2139 C2148 0.950 . S
H2140 C2150 0.950 . S
H2141 C2152 0.950 . S
H2142 C2154 0.950 . S
H2143 C2155 0.950 . S
C2144 H2136 0.950 . S
C2144 C2145 1.386 1_655 S
C2144 C2146 1.391 . S
C2145 C2144 1.386 1_455 S
C2145 C2149 1.393 . S
C2146 H2138 0.950 . S
C2146 C2144 1.391 . S
C2146 C2147 1.400 1_655 S
C2147 C2146 1.400 1_455 S
C2147 C2148 1.398 . S
C2147 C2153 1.479 1_455 S
C2148 H2139 0.950 . S
C2148 C2147 1.398 . S
C2148 C2149 1.391 . S
C2149 H2137 0.950 . S
C2149 C2145 1.393 . S
C2149 C2148 1.391 . S
C2150 H2140 0.950 . S
C2150 C2151 1.386 1_455 S
C2150 C2152 1.391 . S
C2151 C2150 1.386 1_655 S
C2151 C2155 1.393 . S
C2152 H2141 0.950 . S
C2152 C2150 1.391 . S
C2152 C2153 1.362 1_455 S
C2153 C2147 1.479 1_655 S
C2153 C2152 1.362 1_655 S
C2153 C2154 1.452 . S
C2154 H2142 0.950 . S
C2154 C2153 1.452 . S
C2154 C2155 1.391 . S
C2155 H2143 0.950 . S
C2155 C2151 1.393 . S
C2155 C2154 1.391 . S
H2156 C2164 0.950 . S
H2157 C2169 0.950 . S
H2158 C2166 0.950 . S
H2159 C2168 0.950 . S
H2160 C2170 0.950 . S
H2161 C2172 0.950 . S
H2162 C2174 0.950 . S
H2163 C2175 0.950 . S
C2164 H2156 0.950 . S
C2164 C2165 1.386 . S
C2164 C2166 1.391 1_554 S
C2165 C2164 1.386 . S
C2165 C2169 1.393 . S
C2166 H2158 0.950 . S
C2166 C2164 1.391 1_556 S
C2166 C2167 1.400 . S
C2167 C2166 1.400 . S
C2167 C2168 1.398 . S
C2167 C2173 1.491 . S
C2168 H2159 0.950 . S
C2168 C2167 1.398 . S
C2168 C2169 1.391 1_556 S
C2169 H2157 0.950 . S
C2169 C2165 1.393 . S
C2169 C2168 1.391 1_554 S
C2170 H2160 0.950 . S
C2170 C2171 1.386 . S
C2170 C2172 1.391 . S
C2171 C2170 1.386 . S
C2171 C2175 1.393 . S
C2172 H2161 0.950 . S
C2172 C2170 1.391 . S
C2172 C2173 1.400 . S
C2173 C2167 1.491 . S
C2173 C2172 1.400 . S
C2173 C2174 1.398 . S
C2174 H2162 0.950 . S
C2174 C2173 1.398 . S
C2174 C2175 1.391 . S
C2175 H2163 0.950 . S
C2175 C2171 1.393 . S
C2175 C2174 1.391 . S
H2176 C2184 0.950 . S
H2177 C2189 0.950 . S
H2178 C2186 0.950 . S
H2179 C2188 0.950 . S
H2180 C2190 0.950 . S
H2181 C2192 0.950 . S
H2182 C2194 0.950 . S
H2183 C2195 0.950 . S
C2184 H2176 0.950 . S
C2184 C2185 1.386 . S
C2184 C2186 1.391 . S
C2185 C2184 1.386 . S
C2185 C2189 1.393 . S
C2186 H2178 0.950 . S
C2186 C2184 1.391 . S
C2186 C2187 1.400 . S
C2187 C2186 1.400 . S
C2187 C2188 1.398 . S
C2187 C2193 1.491 . S
C2188 H2179 0.950 . S
C2188 C2187 1.398 . S
C2188 C2189 1.391 . S
C2189 H2177 0.950 . S
C2189 C2185 1.393 . S
C2189 C2188 1.391 . S
C2190 H2180 0.950 . S
C2190 C2191 1.386 . S
C2190 C2192 1.391 . S
C2191 C2190 1.386 . S
C2191 C2195 1.393 . S
C2192 H2181 0.950 . S
C2192 C2190 1.391 . S
C2192 C2193 1.400 . S
C2193 C2187 1.491 . S
C2193 C2192 1.400 . S
C2193 C2194 1.398 . S
C2194 H2182 0.950 . S
C2194 C2193 1.398 . S
C2194 C2195 1.391 . S
C2195 H2183 0.950 . S
C2195 C2191 1.393 . S
C2195 C2194 1.391 . S
H2196 C2204 0.950 . S
H2197 C2209 0.950 . S
H2198 C2206 0.950 . S
H2199 C2208 0.950 . S
H2200 C2210 0.950 . S
H2201 C2212 0.950 . S
H2202 C2214 0.950 . S
H2203 C2215 0.950 . S
C2204 H2196 0.950 . S
C2204 C2205 1.386 . S
C2204 C2206 1.391 . S
C2205 C2204 1.386 . S
C2205 C2209 1.393 . S
C2206 H2198 0.950 . S
C2206 C2204 1.391 . S
C2206 C2207 1.400 . S
C2207 C2206 1.400 . S
C2207 C2208 1.398 . S
C2207 C2213 1.491 . S
C2208 H2199 0.950 . S
C2208 C2207 1.398 . S
C2208 C2209 1.391 . S
C2209 H2197 0.950 . S
C2209 C2205 1.393 . S
C2209 C2208 1.391 . S
C2210 H2200 0.950 . S
C2210 C2211 1.386 . S
C2210 C2212 1.391 . S
C2211 C2210 1.386 . S
C2211 C2215 1.393 . S
C2212 H2201 0.950 . S
C2212 C2210 1.391 . S
C2212 C2213 1.400 . S
C2213 C2207 1.491 . S
C2213 C2212 1.400 . S
C2213 C2214 1.398 . S
C2214 H2202 0.950 . S
C2214 C2213 1.398 . S
C2214 C2215 1.391 . S
C2215 H2203 0.950 . S
C2215 C2211 1.393 . S
C2215 C2214 1.391 . S
H2216 C2224 0.950 . S
H2217 C2229 0.950 . S
H2218 C2226 0.950 . S
H2219 C2228 0.950 . S
H2220 C2230 0.950 . S
H2221 C2232 0.950 . S
H2222 C2234 0.950 . S
H2223 C2235 0.950 . S
C2224 H2216 0.950 . S
C2224 C2225 1.386 . S
C2224 C2226 1.391 . S
C2225 C2224 1.386 . S
C2225 C2229 1.393 . S
C2226 H2218 0.950 . S
C2226 C2224 1.391 . S
C2226 C2227 1.400 . S
C2227 C2226 1.400 . S
C2227 C2228 1.398 . S
C2227 C2233 1.491 1_455 S
C2228 H2219 0.950 . S
C2228 C2227 1.398 . S
C2228 C2229 1.391 . S
C2229 H2217 0.950 . S
C2229 C2225 1.393 . S
C2229 C2228 1.391 . S
C2230 H2220 0.950 . S
C2230 C2231 1.386 . S
C2230 C2232 1.391 . S
C2231 C2230 1.386 . S
C2231 C2235 1.393 . S
C2232 H2221 0.950 . S
C2232 C2230 1.391 . S
C2232 C2233 1.400 . S
C2233 C2227 1.491 1_655 S
C2233 C2232 1.400 . S
C2233 C2234 1.398 . S
C2234 H2222 0.950 . S
C2234 C2233 1.398 . S
C2234 C2235 1.391 . S
C2235 H2223 0.950 . S
C2235 C2231 1.393 . S
C2235 C2234 1.391 . S
H2236 C2244 0.950 . S
H2237 C2249 0.950 . S
H2238 C2246 0.950 . S
H2239 C2248 0.950 . S
H2240 C2250 0.950 . S
H2241 C2252 0.950 . S
H2242 C2254 0.950 . S
H2243 C2255 0.950 . S
C2244 H2236 0.950 . S
C2244 C2245 1.386 . S
C2244 C2246 1.391 . S
C2245 C2244 1.386 . S
C2245 C2249 1.393 . S
C2246 H2238 0.950 . S
C2246 C2244 1.391 . S
C2246 C2247 1.400 . S
C2247 C2246 1.400 . S
C2247 C2248 1.398 . S
C2247 C2253 1.491 . S
C2248 H2239 0.950 . S
C2248 C2247 1.398 . S
C2248 C2249 1.391 . S
C2249 H2237 0.950 . S
C2249 C2245 1.393 . S
C2249 C2248 1.391 . S
C2250 H2240 0.950 . S
C2250 C2251 1.386 . S
C2250 C2252 1.391 1_554 S
C2251 C2250 1.386 . S
C2251 C2255 1.393 . S
C2252 H2241 0.950 . S
C2252 C2250 1.391 1_556 S
C2252 C2253 1.400 . S
C2253 C2247 1.491 . S
C2253 C2252 1.400 . S
C2253 C2254 1.398 . S
C2254 H2242 0.950 . S
C2254 C2253 1.398 . S
C2254 C2255 1.391 1_556 S
C2255 H2243 0.950 . S
C2255 C2251 1.393 . S
C2255 C2254 1.391 1_554 S
H2256 C2264 0.950 . S
H2257 C2269 0.950 . S
H2258 C2266 0.950 . S
H2259 C2268 0.950 . S
H2260 C2270 0.950 . S
H2261 C2272 0.950 . S
H2262 C2274 0.950 . S
H2263 C2275 0.950 . S
C2264 H2256 0.950 . S
C2264 C2265 1.386 . S
C2264 C2266 1.391 . S
C2265 C2264 1.386 . S
C2265 C2269 1.393 . S
C2266 H2258 0.950 . S
C2266 C2264 1.391 . S
C2266 C2267 1.400 . S
C2267 C2266 1.400 . S
C2267 C2268 1.398 . S
C2267 C2273 1.491 . S
C2268 H2259 0.950 . S
C2268 C2267 1.398 . S
C2268 C2269 1.391 . S
C2269 H2257 0.950 . S
C2269 C2265 1.393 . S
C2269 C2268 1.391 . S
C2270 H2260 0.950 . S
C2270 C2271 1.386 . S
C2270 C2272 1.391 . S
C2271 C2270 1.386 . S
C2271 C2275 1.393 . S
C2272 H2261 0.950 . S
C2272 C2270 1.391 . S
C2272 C2273 1.400 . S
C2273 C2267 1.491 . S
C2273 C2272 1.400 . S
C2273 C2274 1.398 . S
C2274 H2262 0.950 . S
C2274 C2273 1.398 . S
C2274 C2275 1.391 . S
C2275 H2263 0.950 . S
C2275 C2271 1.393 . S
C2275 C2274 1.391 . S
H2276 C2284 0.950 . S
H2277 C2289 0.950 . S
H2278 C2286 0.950 . S
H2279 C2288 0.950 . S
H2280 C2290 0.950 . S
H2281 C2292 0.950 . S
H2282 C2294 0.950 . S
H2283 C2295 0.950 . S
C2284 H2276 0.950 . S
C2284 C2285 1.386 . S
C2284 C2286 1.391 . S
C2285 C2284 1.386 . S
C2285 C2289 1.393 . S
C2286 H2278 0.950 . S
C2286 C2284 1.391 . S
C2286 C2287 1.400 . S
C2287 C2286 1.400 . S
C2287 C2288 1.398 . S
C2287 C2293 1.491 . S
C2288 H2279 0.950 . S
C2288 C2287 1.398 . S
C2288 C2289 1.391 . S
C2289 H2277 0.950 . S
C2289 C2285 1.393 . S
C2289 C2288 1.391 . S
C2290 H2280 0.950 . S
C2290 C2291 1.386 . S
C2290 C2292 1.391 . S
C2291 C2290 1.386 . S
C2291 C2295 1.393 . S
C2292 H2281 0.950 . S
C2292 C2290 1.391 . S
C2292 C2293 1.400 . S
C2293 C2287 1.491 . S
C2293 C2292 1.400 . S
C2293 C2294 1.398 . S
C2294 H2282 0.950 . S
C2294 C2293 1.398 . S
C2294 C2295 1.391 . S
C2295 H2283 0.950 . S
C2295 C2291 1.393 . S
C2295 C2294 1.391 . S
H2296 C2304 0.950 . S
H2297 C2309 0.950 . S
H2298 C2306 0.950 . S
H2299 C2308 0.950 . S
H2300 C2310 0.950 . S
H2301 C2312 0.950 . S
H2302 C2314 0.950 . S
H2303 C2315 0.950 . S
C2304 H2296 0.950 . S
C2304 C2305 1.386 1_455 S
C2304 C2306 1.391 . S
C2305 C2304 1.386 1_655 S
C2305 C2309 1.393 . S
C2306 H2298 0.950 . S
C2306 C2304 1.391 . S
C2306 C2307 1.400 1_455 S
C2307 C2306 1.400 1_655 S
C2307 C2308 1.398 . S
C2307 C2313 1.491 1_655 S
C2308 H2299 0.950 . S
C2308 C2307 1.398 . S
C2308 C2309 1.391 . S
C2309 H2297 0.950 . S
C2309 C2305 1.393 . S
C2309 C2308 1.391 . S
C2310 H2300 0.950 . S
C2310 C2311 1.386 1_655 S
C2310 C2312 1.391 . S
C2311 C2310 1.386 1_455 S
C2311 C2315 1.393 . S
C2312 H2301 0.950 . S
C2312 C2310 1.391 . S
C2312 C2313 1.400 1_655 S
C2313 C2307 1.491 1_455 S
C2313 C2312 1.400 1_455 S
C2313 C2314 1.398 . S
C2314 H2302 0.950 . S
C2314 C2313 1.398 . S
C2314 C2315 1.391 . S
C2315 H2303 0.950 . S
C2315 C2311 1.393 . S
C2315 C2314 1.391 . S
H2316 C2324 0.950 . S
H2317 C2329 0.950 . S
H2318 C2326 0.950 . S
H2319 C2328 0.950 . S
H2320 C2330 0.950 . S
H2321 C2332 0.950 . S
H2322 C2334 0.950 . S
H2323 C2335 0.950 . S
C2324 H2316 0.950 . S
C2324 C2325 1.386 . S
C2324 C2326 1.391 . S
C2325 C2324 1.386 . S
C2325 C2329 1.393 . S
C2326 H2318 0.950 . S
C2326 C2324 1.391 . S
C2326 C2327 1.400 . S
C2327 C2326 1.400 . S
C2327 C2328 1.398 . S
C2327 C2333 1.491 . S
C2328 H2319 0.950 . S
C2328 C2327 1.398 . S
C2328 C2329 1.391 . S
C2329 H2317 0.950 . S
C2329 C2325 1.393 . S
C2329 C2328 1.391 . S
C2330 H2320 0.950 . S
C2330 C2331 1.386 . S
C2330 C2332 1.391 1_556 S
C2331 C2330 1.386 . S
C2331 C2335 1.393 . S
C2332 H2321 0.950 . S
C2332 C2330 1.391 1_554 S
C2332 C2333 1.400 . S
C2333 C2327 1.491 . S
C2333 C2332 1.400 . S
C2333 C2334 1.398 . S
C2334 H2322 0.950 . S
C2334 C2333 1.398 . S
C2334 C2335 1.391 1_554 S
C2335 H2323 0.950 . S
C2335 C2331 1.393 . S
C2335 C2334 1.391 1_556 S
H2336 C2344 0.988 . S
H2337 C2349 0.950 . S
H2338 C2346 0.950 . S
H2339 C2348 0.950 . S
H2340 C2350 0.988 . S
H2341 C2352 0.950 . S
H2342 C2354 0.950 . S
H2343 C2355 0.950 . S
C2344 H2336 0.988 . S
C2344 C2345 1.332 1_456 S
C2344 C2346 1.413 . S
C2345 C2344 1.332 1_654 S
C2345 C2349 1.393 . S
C2346 H2338 0.950 . S
C2346 C2344 1.413 . S
C2346 C2347 1.400 1_456 S
C2347 C2346 1.400 1_654 S
C2347 C2348 1.398 . S
C2347 C2353 1.491 1_644 S
C2348 H2339 0.950 . S
C2348 C2347 1.398 . S
C2348 C2349 1.391 . S
C2349 H2337 0.950 . S
C2349 C2345 1.393 . S
C2349 C2348 1.391 . S
C2350 H2340 0.988 . S
C2350 C2351 1.332 1_654 S
C2350 C2352 1.413 . S
C2351 C2350 1.332 1_456 S
C2351 C2355 1.393 . S
C2352 H2341 0.950 . S
C2352 C2350 1.413 . S
C2352 C2353 1.400 1_654 S
C2353 C2347 1.491 1_466 S
C2353 C2352 1.400 1_456 S
C2353 C2354 1.398 . S
C2354 H2342 0.950 . S
C2354 C2353 1.398 . S
C2354 C2355 1.391 . S
C2355 H2343 0.950 . S
C2355 C2351 1.393 . S
C2355 C2354 1.391 . S
H2356 C2364 0.950 . S
H2357 C2369 0.950 . S
H2358 C2366 0.950 . S
H2359 C2368 0.950 . S
H2360 C2370 0.950 . S
H2361 C2372 0.950 . S
H2362 C2374 0.950 . S
H2363 C2375 0.950 . S
C2364 H2356 0.950 . S
C2364 C2365 1.386 . S
C2364 C2366 1.391 . S
C2365 C2364 1.386 . S
C2365 C2369 1.393 . S
C2366 H2358 0.950 . S
C2366 C2364 1.391 . S
C2366 C2367 1.400 . S
C2367 C2366 1.400 . S
C2367 C2368 1.398 . S
C2367 C2373 1.491 . S
C2368 H2359 0.950 . S
C2368 C2367 1.398 . S
C2368 C2369 1.391 . S
C2369 H2357 0.950 . S
C2369 C2365 1.393 . S
C2369 C2368 1.391 . S
C2370 H2360 0.950 . S
C2370 C2371 1.386 . S
C2370 C2372 1.391 . S
C2371 C2370 1.386 . S
C2371 C2375 1.393 . S
C2372 H2361 0.950 . S
C2372 C2370 1.391 . S
C2372 C2373 1.400 . S
C2373 C2367 1.491 . S
C2373 C2372 1.400 . S
C2373 C2374 1.398 . S
C2374 H2362 0.950 . S
C2374 C2373 1.398 . S
C2374 C2375 1.391 . S
C2375 H2363 0.950 . S
C2375 C2371 1.393 . S
C2375 C2374 1.391 . S
H2376 C2384 0.950 . S
H2377 C2389 0.950 . S
H2378 C2386 0.950 . S
H2379 C2388 0.950 . S
H2380 C2390 0.950 . S
H2381 C2392 0.950 . S
H2382 C2394 0.950 . S
H2383 C2395 0.950 . S
C2384 H2376 0.950 . S
C2384 C2385 1.386 . S
C2384 C2386 1.391 . S
C2385 C2384 1.386 . S
C2385 C2389 1.393 . S
C2386 H2378 0.950 . S
C2386 C2384 1.391 . S
C2386 C2387 1.400 . S
C2387 C2386 1.400 . S
C2387 C2388 1.398 . S
C2387 C2393 1.491 1_545 S
C2388 H2379 0.950 . S
C2388 C2387 1.398 . S
C2388 C2389 1.391 . S
C2389 H2377 0.950 . S
C2389 C2385 1.393 . S
C2389 C2388 1.391 . S
C2390 H2380 0.950 . S
C2390 C2391 1.386 . S
C2390 C2392 1.391 . S
C2391 C2390 1.386 . S
C2391 C2395 1.393 . S
C2392 H2381 0.950 . S
C2392 C2390 1.391 . S
C2392 C2393 1.400 . S
C2393 C2387 1.491 1_565 S
C2393 C2392 1.400 . S
C2393 C2394 1.398 . S
C2394 H2382 0.950 . S
C2394 C2393 1.398 . S
C2394 C2395 1.391 . S
C2395 H2383 0.950 . S
C2395 C2391 1.393 . S
C2395 C2394 1.391 . S
H2396 C2404 0.950 . S
H2397 C2409 0.950 . S
H2398 C2406 0.950 . S
H2399 C2408 0.950 . S
H2400 C2410 0.950 . S
H2401 C2412 0.950 . S
H2402 C2414 0.950 . S
H2403 C2415 0.950 . S
C2404 H2396 0.950 . S
C2404 C2405 1.386 . S
C2404 C2406 1.391 . S
C2405 C2404 1.386 . S
C2405 C2409 1.393 . S
C2406 H2398 0.950 . S
C2406 C2404 1.391 . S
C2406 C2407 1.400 . S
C2407 C2406 1.400 . S
C2407 C2408 1.398 . S
C2407 C2413 1.491 . S
C2408 H2399 0.950 . S
C2408 C2407 1.398 . S
C2408 C2409 1.391 . S
C2409 H2397 0.950 . S
C2409 C2405 1.393 . S
C2409 C2408 1.391 . S
C2410 H2400 0.950 . S
C2410 C2411 1.386 . S
C2410 C2412 1.391 . S
C2411 C2410 1.386 . S
C2411 C2415 1.393 . S
C2412 H2401 0.950 . S
C2412 C2410 1.391 . S
C2412 C2413 1.400 . S
C2413 C2407 1.491 . S
C2413 C2412 1.400 . S
C2413 C2414 1.398 . S
C2414 H2402 0.950 . S
C2414 C2413 1.398 . S
C2414 C2415 1.391 . S
C2415 H2403 0.950 . S
C2415 C2411 1.393 . S
C2415 C2414 1.391 . S
H2416 C2424 0.950 . S
H2417 C2429 0.950 . S
H2418 C2426 0.950 . S
H2419 C2428 0.950 . S
H2420 C2430 0.950 . S
H2421 C2432 0.950 . S
H2422 C2434 0.950 . S
H2423 C2435 0.950 . S
C2424 H2416 0.950 . S
C2424 C2425 1.386 1_455 S
C2424 C2426 1.391 . S
C2425 C2424 1.386 1_655 S
C2425 C2429 1.393 . S
C2426 H2418 0.950 . S
C2426 C2424 1.391 . S
C2426 C2427 1.400 1_455 S
C2427 C2426 1.400 1_655 S
C2427 C2428 1.398 . S
C2427 C2433 1.491 1_665 S
C2428 H2419 0.950 . S
C2428 C2427 1.398 . S
C2428 C2429 1.391 . S
C2429 H2417 0.950 . S
C2429 C2425 1.393 . S
C2429 C2428 1.391 . S
C2430 H2420 0.950 . S
C2430 C2431 1.386 1_655 S
C2430 C2432 1.391 . S
C2431 C2430 1.386 1_455 S
C2431 C2435 1.393 . S
C2432 H2421 0.950 . S
C2432 C2430 1.391 . S
C2432 C2433 1.400 1_655 S
C2433 C2427 1.491 1_445 S
C2433 C2432 1.400 1_455 S
C2433 C2434 1.398 . S
C2434 H2422 0.950 . S
C2434 C2433 1.398 . S
C2434 C2435 1.391 . S
C2435 H2423 0.950 . S
C2435 C2431 1.393 . S
C2435 C2434 1.391 . S
H2436 C2444 0.950 . S
H2437 C2449 0.950 . S
H2438 C2446 0.950 . S
H2439 C2448 0.950 . S
H2440 C2450 0.950 . S
H2441 C2452 0.950 . S
H2442 C2454 0.950 . S
H2443 C2455 0.950 . S
C2444 H2436 0.950 . S
C2444 C2445 1.386 . S
C2444 C2446 1.391 . S
C2445 C2444 1.386 . S
C2445 C2449 1.393 . S
C2446 H2438 0.950 . S
C2446 C2444 1.391 . S
C2446 C2447 1.400 . S
C2447 C2446 1.400 . S
C2447 C2448 1.398 . S
C2447 C2453 1.491 . S
C2448 H2439 0.950 . S
C2448 C2447 1.398 . S
C2448 C2449 1.391 . S
C2449 H2437 0.950 . S
C2449 C2445 1.393 . S
C2449 C2448 1.391 . S
C2450 H2440 0.950 . S
C2450 C2451 1.386 . S
C2450 C2452 1.391 . S
C2451 C2450 1.386 . S
C2451 C2455 1.393 . S
C2452 H2441 0.950 . S
C2452 C2450 1.391 . S
C2452 C2453 1.400 . S
C2453 C2447 1.491 . S
C2453 C2452 1.400 . S
C2453 C2454 1.398 . S
C2454 H2442 0.950 . S
C2454 C2453 1.398 . S
C2454 C2455 1.391 . S
C2455 H2443 0.950 . S
C2455 C2451 1.393 . S
C2455 C2454 1.391 . S
H2456 C2464 0.950 . S
H2457 C2469 0.950 . S
H2458 C2466 0.950 . S
H2459 C2468 0.950 . S
H2460 C2470 0.950 . S
H2461 C2472 0.950 . S
H2462 C2474 0.950 . S
H2463 C2475 0.950 . S
C2464 H2456 0.950 . S
C2464 C2465 1.386 . S
C2464 C2466 1.391 . S
C2465 C2464 1.386 . S
C2465 C2469 1.393 1_554 S
C2466 H2458 0.950 . S
C2466 C2464 1.391 . S
C2466 C2467 1.400 . S
C2467 C2466 1.400 . S
C2467 C2468 1.398 1_554 S
C2467 C2473 1.491 1_564 S
C2468 H2459 0.950 . S
C2468 C2467 1.398 1_556 S
C2468 C2469 1.391 . S
C2469 H2457 0.950 . S
C2469 C2465 1.393 1_556 S
C2469 C2468 1.391 . S
C2470 H2460 0.950 . S
C2470 C2471 1.386 . S
C2470 C2472 1.391 . S
C2471 C2470 1.386 . S
C2471 C2475 1.393 1_556 S
C2472 H2461 0.950 . S
C2472 C2470 1.391 . S
C2472 C2473 1.400 . S
C2473 C2467 1.491 1_546 S
C2473 C2472 1.400 . S
C2473 C2474 1.398 1_556 S
C2474 H2462 0.950 . S
C2474 C2473 1.398 1_554 S
C2474 C2475 1.391 . S
C2475 H2463 0.950 . S
C2475 C2471 1.393 1_554 S
C2475 C2474 1.391 . S
H2476 C2484 0.950 . S
H2477 C2489 0.950 . S
H2478 C2486 0.950 . S
H2479 C2488 0.950 . S
H2480 C2490 0.950 . S
H2481 C2492 0.950 . S
H2482 C2494 0.950 . S
H2483 C2495 0.950 . S
C2484 H2476 0.950 . S
C2484 C2485 1.386 . S
C2484 C2486 1.391 . S
C2485 C2484 1.386 . S
C2485 C2489 1.393 . S
C2486 H2478 0.950 . S
C2486 C2484 1.391 . S
C2486 C2487 1.400 . S
C2487 C2486 1.400 . S
C2487 C2488 1.398 . S
C2487 C2493 1.491 . S
C2488 H2479 0.950 . S
C2488 C2487 1.398 . S
C2488 C2489 1.391 . S
C2489 H2477 0.950 . S
C2489 C2485 1.393 . S
C2489 C2488 1.391 . S
C2490 H2480 0.950 . S
C2490 C2491 1.386 . S
C2490 C2492 1.391 . S
C2491 C2490 1.386 . S
C2491 C2495 1.393 . S
C2492 H2481 0.950 . S
C2492 C2490 1.391 . S
C2492 C2493 1.400 . S
C2493 C2487 1.491 . S
C2493 C2492 1.400 . S
C2493 C2494 1.398 . S
C2494 H2482 0.950 . S
C2494 C2493 1.398 . S
C2494 C2495 1.391 . S
C2495 H2483 0.950 . S
C2495 C2491 1.393 . S
C2495 C2494 1.391 . S
H2496 C2504 0.950 . S
H2497 C2509 0.950 . S
H2498 C2506 0.950 . S
H2499 C2508 0.950 . S
H2500 C2510 0.950 . S
H2501 C2512 0.950 . S
H2502 C2514 0.950 . S
H2503 C2515 0.950 . S
C2504 H2496 0.950 . S
C2504 C2505 1.386 . S
C2504 C2506 1.391 . S
C2505 C2504 1.386 . S
C2505 C2509 1.393 . S
C2506 H2498 0.950 . S
C2506 C2504 1.391 . S
C2506 C2507 1.400 . S
C2507 C2506 1.400 . S
C2507 C2508 1.398 . S
C2507 C2513 1.491 . S
C2508 H2499 0.950 . S
C2508 C2507 1.398 . S
C2508 C2509 1.391 . S
C2509 H2497 0.950 . S
C2509 C2505 1.393 . S
C2509 C2508 1.391 . S
C2510 H2500 0.950 . S
C2510 C2511 1.386 . S
C2510 C2512 1.391 . S
C2511 C2510 1.386 . S
C2511 C2515 1.393 . S
C2512 H2501 0.950 . S
C2512 C2510 1.391 . S
C2512 C2513 1.400 . S
C2513 C2507 1.491 . S
C2513 C2512 1.400 . S
C2513 C2514 1.398 . S
C2514 H2502 0.950 . S
C2514 C2513 1.398 . S
C2514 C2515 1.391 . S
C2515 H2503 0.950 . S
C2515 C2511 1.393 . S
C2515 C2514 1.391 . S
H2516 C2524 0.950 . S
H2517 C2529 0.950 . S
H2518 C2526 0.950 . S
H2519 C2528 0.950 . S
H2520 C2530 0.950 . S
H2521 C2532 0.950 . S
H2522 C2534 0.950 . S
H2523 C2535 0.950 . S
C2524 H2516 0.950 . S
C2524 C2525 1.386 . S
C2524 C2526 1.391 . S
C2525 C2524 1.386 . S
C2525 C2529 1.393 . S
C2526 H2518 0.950 . S
C2526 C2524 1.391 . S
C2526 C2527 1.400 . S
C2527 C2526 1.400 . S
C2527 C2528 1.398 . S
C2527 C2533 1.491 . S
C2528 H2519 0.950 . S
C2528 C2527 1.398 . S
C2528 C2529 1.391 . S
C2529 H2517 0.950 . S
C2529 C2525 1.393 . S
C2529 C2528 1.391 . S
C2530 H2520 0.950 . S
C2530 C2531 1.386 . S
C2530 C2532 1.391 . S
C2531 C2530 1.386 . S
C2531 C2535 1.393 . S
C2532 H2521 0.950 . S
C2532 C2530 1.391 . S
C2532 C2533 1.400 . S
C2533 C2527 1.491 . S
C2533 C2532 1.400 . S
C2533 C2534 1.398 . S
C2534 H2522 0.950 . S
C2534 C2533 1.398 . S
C2534 C2535 1.391 . S
C2535 H2523 0.950 . S
C2535 C2531 1.393 . S
C2535 C2534 1.391 . S
H2536 C2544 0.950 . S
H2537 C2549 0.950 . S
H2538 C2546 0.950 . S
H2539 C2548 0.950 . S
H2540 C2550 0.950 . S
H2541 C2552 0.950 . S
H2542 C2554 0.950 . S
H2543 C2555 0.950 . S
C2544 H2536 0.950 . S
C2544 C2545 1.386 . S
C2544 C2546 1.391 . S
C2545 C2544 1.386 . S
C2545 C2549 1.393 . S
C2546 H2538 0.950 . S
C2546 C2544 1.391 . S
C2546 C2547 1.400 . S
C2547 C2546 1.400 . S
C2547 C2548 1.398 . S
C2547 C2553 1.491 . S
C2548 H2539 0.950 . S
C2548 C2547 1.398 . S
C2548 C2549 1.391 . S
C2549 H2537 0.950 . S
C2549 C2545 1.393 . S
C2549 C2548 1.391 . S
C2550 H2540 0.950 . S
C2550 C2551 1.386 . S
C2550 C2552 1.391 . S
C2551 C2550 1.386 . S
C2551 C2555 1.393 . S
C2552 H2541 0.950 . S
C2552 C2550 1.391 . S
C2552 C2553 1.400 . S
C2553 C2547 1.491 . S
C2553 C2552 1.400 . S
C2553 C2554 1.398 . S
C2554 H2542 0.950 . S
C2554 C2553 1.398 . S
C2554 C2555 1.391 . S
C2555 H2543 0.950 . S
C2555 C2551 1.393 . S
C2555 C2554 1.391 . S
H2556 C2564 0.950 . S
H2557 C2569 0.950 . S
H2558 C2566 0.950 . S
H2559 C2568 0.950 . S
H2560 C2570 0.950 . S
H2561 C2572 0.950 . S
H2562 C2574 0.950 . S
H2563 C2575 0.950 . S
C2564 H2556 0.950 . S
C2564 C2565 1.386 . S
C2564 C2566 1.391 . S
C2565 C2564 1.386 . S
C2565 C2569 1.393 . S
C2566 H2558 0.950 . S
C2566 C2564 1.391 . S
C2566 C2567 1.400 . S
C2567 C2566 1.400 . S
C2567 C2568 1.398 . S
C2567 C2573 1.491 . S
C2568 H2559 0.950 . S
C2568 C2567 1.398 . S
C2568 C2569 1.391 . S
C2569 H2557 0.950 . S
C2569 C2565 1.393 . S
C2569 C2568 1.391 . S
C2570 H2560 0.950 . S
C2570 C2571 1.386 . S
C2570 C2572 1.391 . S
C2571 C2570 1.386 . S
C2571 C2575 1.393 . S
C2572 H2561 0.950 . S
C2572 C2570 1.391 . S
C2572 C2573 1.400 . S
C2573 C2567 1.491 . S
C2573 C2572 1.400 . S
C2573 C2574 1.398 . S
C2574 H2562 0.950 . S
C2574 C2573 1.398 . S
C2574 C2575 1.391 . S
C2575 H2563 0.950 . S
C2575 C2571 1.393 . S
C2575 C2574 1.391 . S
H2576 C2584 0.950 . S
H2577 C2589 0.950 . S
H2578 C2586 0.950 . S
H2579 C2588 0.950 . S
H2580 C2590 0.950 . S
H2581 C2592 0.950 . S
H2582 C2594 0.950 . S
H2583 C2595 0.950 . S
C2584 H2576 0.950 . S
C2584 C2585 1.386 . S
C2584 C2586 1.391 . S
C2585 C2584 1.386 . S
C2585 C2589 1.393 . S
C2586 H2578 0.950 . S
C2586 C2584 1.391 . S
C2586 C2587 1.400 . S
C2587 C2586 1.400 . S
C2587 C2588 1.398 . S
C2587 C2593 1.491 . S
C2588 H2579 0.950 . S
C2588 C2587 1.398 . S
C2588 C2589 1.391 . S
C2589 H2577 0.950 . S
C2589 C2585 1.393 . S
C2589 C2588 1.391 . S
C2590 H2580 0.950 . S
C2590 C2591 1.386 . S
C2590 C2592 1.391 . S
C2591 C2590 1.386 . S
C2591 C2595 1.393 . S
C2592 H2581 0.950 . S
C2592 C2590 1.391 . S
C2592 C2593 1.400 . S
C2593 C2587 1.491 . S
C2593 C2592 1.400 . S
C2593 C2594 1.398 . S
C2594 H2582 0.950 . S
C2594 C2593 1.398 . S
C2594 C2595 1.391 . S
C2595 H2583 0.950 . S
C2595 C2591 1.393 . S
C2595 C2594 1.391 . S
H2596 C2604 0.950 . S
H2597 C2609 0.950 . S
H2598 C2606 0.950 . S
H2599 C2608 0.950 . S
H2600 C2610 0.950 . S
H2601 C2612 0.950 . S
H2602 C2614 0.950 . S
H2603 C2615 0.950 . S
C2604 H2596 0.950 . S
C2604 C2605 1.386 1_556 S
C2604 C2606 1.391 . S
C2605 C2604 1.386 1_554 S
C2605 C2609 1.393 1_455 S
C2606 H2598 0.950 . S
C2606 C2604 1.391 . S
C2606 C2607 1.400 1_556 S
C2607 C2606 1.400 1_554 S
C2607 C2608 1.398 1_455 S
C2607 C2613 1.491 1_454 S
C2608 H2599 0.950 . S
C2608 C2607 1.398 1_655 S
C2608 C2609 1.391 . S
C2609 H2597 0.950 . S
C2609 C2605 1.393 1_655 S
C2609 C2608 1.391 . S
C2610 H2600 0.950 . S
C2610 C2611 1.386 1_554 S
C2610 C2612 1.391 . S
C2611 C2610 1.386 1_556 S
C2611 C2615 1.393 1_655 S
C2612 H2601 0.950 . S
C2612 C2610 1.391 . S
C2612 C2613 1.400 1_554 S
C2613 C2607 1.491 1_656 S
C2613 C2612 1.400 1_556 S
C2613 C2614 1.398 1_655 S
C2614 H2602 0.950 . S
C2614 C2613 1.398 1_455 S
C2614 C2615 1.391 . S
C2615 H2603 0.950 . S
C2615 C2611 1.393 1_455 S
C2615 C2614 1.391 . S
H2616 C2624 0.950 . S
H2617 C2629 0.950 . S
H2618 C2626 0.950 . S
H2619 C2628 0.950 . S
H2620 C2630 0.950 . S
H2621 C2632 0.950 . S
H2622 C2634 0.950 . S
H2623 C2635 0.950 . S
C2624 H2616 0.950 . S
C2624 C2625 1.386 . S
C2624 C2626 1.391 . S
C2625 C2624 1.386 . S
C2625 C2629 1.393 1_556 S
C2626 H2618 0.950 . S
C2626 C2624 1.391 . S
C2626 C2627 1.400 . S
C2627 C2626 1.400 . S
C2627 C2628 1.398 1_556 S
C2627 C2633 1.491 1_556 S
C2628 H2619 0.950 . S
C2628 C2627 1.398 1_554 S
C2628 C2629 1.391 . S
C2629 H2617 0.950 . S
C2629 C2625 1.393 1_554 S
C2629 C2628 1.391 . S
C2630 H2620 0.950 . S
C2630 C2631 1.386 . S
C2630 C2632 1.391 . S
C2631 C2630 1.386 . S
C2631 C2635 1.393 1_554 S
C2632 H2621 0.950 . S
C2632 C2630 1.391 . S
C2632 C2633 1.400 . S
C2633 C2627 1.491 1_554 S
C2633 C2632 1.400 . S
C2633 C2634 1.398 1_554 S
C2634 H2622 0.950 . S
C2634 C2633 1.398 1_556 S
C2634 C2635 1.391 . S
C2635 H2623 0.950 . S
C2635 C2631 1.393 1_556 S
C2635 C2634 1.391 . S
H2636 C2644 0.950 . S
H2637 C2649 0.950 . S
H2638 C2646 0.950 . S
H2639 C2648 0.950 . S
H2640 C2650 0.950 . S
H2641 C2652 0.950 . S
H2642 C2654 0.950 . S
H2643 C2655 0.950 . S
C2644 H2636 0.950 . S
C2644 C2645 1.386 . S
C2644 C2646 1.391 . S
C2645 C2644 1.386 . S
C2645 C2649 1.393 1_655 S
C2646 H2638 0.950 . S
C2646 C2644 1.391 . S
C2646 C2647 1.400 . S
C2647 C2646 1.400 . S
C2647 C2648 1.398 1_655 S
C2647 C2653 1.491 1_655 S
C2648 H2639 0.950 . S
C2648 C2647 1.398 1_455 S
C2648 C2649 1.391 . S
C2649 H2637 0.950 . S
C2649 C2645 1.393 1_455 S
C2649 C2648 1.391 . S
C2650 H2640 0.950 . S
C2650 C2651 1.386 . S
C2650 C2652 1.391 . S
C2651 C2650 1.386 . S
C2651 C2655 1.393 1_455 S
C2652 H2641 0.950 . S
C2652 C2650 1.391 . S
C2652 C2653 1.400 . S
C2653 C2647 1.491 1_455 S
C2653 C2652 1.400 . S
C2653 C2654 1.398 1_455 S
C2654 H2642 0.950 . S
C2654 C2653 1.398 1_655 S
C2654 C2655 1.391 . S
C2655 H2643 0.950 . S
C2655 C2651 1.393 1_655 S
C2655 C2654 1.391 . S
H2656 C2664 0.950 . S
H2657 C2669 0.950 . S
H2658 C2666 0.950 . S
H2659 C2668 0.950 . S
H2660 C2670 0.950 . S
H2661 C2672 0.950 . S
H2662 C2674 0.950 . S
H2663 C2675 0.950 . S
C2664 H2656 0.950 . S
C2664 C2665 1.386 . S
C2664 C2666 1.391 . S
C2665 C2664 1.386 . S
C2665 C2669 1.393 . S
C2666 H2658 0.950 . S
C2666 C2664 1.391 . S
C2666 C2667 1.400 . S
C2667 C2666 1.400 . S
C2667 C2668 1.398 . S
C2667 C2673 1.491 . S
C2668 H2659 0.950 . S
C2668 C2667 1.398 . S
C2668 C2669 1.391 . S
C2669 H2657 0.950 . S
C2669 C2665 1.393 . S
C2669 C2668 1.391 . S
C2670 H2660 0.950 . S
C2670 C2671 1.386 . S
C2670 C2672 1.391 . S
C2671 C2670 1.386 . S
C2671 C2675 1.393 . S
C2672 H2661 0.950 . S
C2672 C2670 1.391 . S
C2672 C2673 1.400 . S
C2673 C2667 1.491 . S
C2673 C2672 1.400 . S
C2673 C2674 1.398 . S
C2674 H2662 0.950 . S
C2674 C2673 1.398 . S
C2674 C2675 1.391 . S
C2675 H2663 0.950 . S
C2675 C2671 1.393 . S
C2675 C2674 1.391 . S
H2676 C2684 0.950 . S
H2677 C2689 0.950 . S
H2678 C2686 0.950 . S
H2679 C2688 0.950 . S
H2680 C2690 0.950 . S
H2681 C2692 0.950 . S
H2682 C2694 0.950 . S
H2683 C2695 0.950 . S
C2684 H2676 0.950 . S
C2684 C2685 1.386 . S
C2684 C2686 1.391 . S
C2685 C2684 1.386 . S
C2685 C2689 1.393 . S
C2686 H2678 0.950 . S
C2686 C2684 1.391 . S
C2686 C2687 1.400 . S
C2687 C2686 1.400 . S
C2687 C2688 1.398 . S
C2687 C2693 1.491 . S
C2688 H2679 0.950 . S
C2688 C2687 1.398 . S
C2688 C2689 1.391 . S
C2689 H2677 0.950 . S
C2689 C2685 1.393 . S
C2689 C2688 1.391 . S
C2690 H2680 0.950 . S
C2690 C2691 1.386 . S
C2690 C2692 1.391 . S
C2691 C2690 1.386 . S
C2691 C2695 1.393 . S
C2692 H2681 0.950 . S
C2692 C2690 1.391 . S
C2692 C2693 1.400 . S
C2693 C2687 1.491 . S
C2693 C2692 1.400 . S
C2693 C2694 1.398 . S
C2694 H2682 0.950 . S
C2694 C2693 1.398 . S
C2694 C2695 1.391 . S
C2695 H2683 0.950 . S
C2695 C2691 1.393 . S
C2695 C2694 1.391 . S
H2696 C2704 0.950 . S
H2697 C2709 0.950 . S
H2698 C2706 0.950 . S
H2699 C2708 0.950 . S
H2700 C2710 0.950 . S
H2701 C2712 0.950 . S
H2702 C2714 0.950 . S
H2703 C2715 0.950 . S
C2704 H2696 0.950 . S
C2704 C2705 1.386 . S
C2704 C2706 1.391 . S
C2705 C2704 1.386 . S
C2705 C2709 1.393 . S
C2706 H2698 0.950 . S
C2706 C2704 1.391 . S
C2706 C2707 1.400 . S
C2707 C2706 1.400 . S
C2707 C2708 1.398 . S
C2707 C2713 1.491 . S
C2708 H2699 0.950 . S
C2708 C2707 1.398 . S
C2708 C2709 1.391 . S
C2709 H2697 0.950 . S
C2709 C2705 1.393 . S
C2709 C2708 1.391 . S
C2710 H2700 0.950 . S
C2710 C2711 1.386 . S
C2710 C2712 1.391 . S
C2711 C2710 1.386 . S
C2711 C2715 1.393 . S
C2712 H2701 0.950 . S
C2712 C2710 1.391 . S
C2712 C2713 1.400 . S
C2713 C2707 1.491 . S
C2713 C2712 1.400 . S
C2713 C2714 1.398 . S
C2714 H2702 0.950 . S
C2714 C2713 1.398 . S
C2714 C2715 1.391 . S
C2715 H2703 0.950 . S
C2715 C2711 1.393 . S
C2715 C2714 1.391 . S
H2716 C2724 0.950 . S
H2717 C2729 0.950 . S
H2718 C2726 0.950 . S
H2719 C2728 0.950 . S
H2720 C2730 0.950 . S
H2721 C2732 0.950 . S
H2722 C2734 0.950 . S
H2723 C2735 0.950 . S
C2724 H2716 0.950 . S
C2724 C2725 1.386 . S
C2724 C2726 1.391 . S
C2725 C2724 1.386 . S
C2725 C2729 1.393 . S
C2726 H2718 0.950 . S
C2726 C2724 1.391 . S
C2726 C2727 1.400 . S
C2727 C2726 1.400 . S
C2727 C2728 1.398 . S
C2727 C2733 1.491 . S
C2728 H2719 0.950 . S
C2728 C2727 1.398 . S
C2728 C2729 1.391 . S
C2729 H2717 0.950 . S
C2729 C2725 1.393 . S
C2729 C2728 1.391 . S
C2730 H2720 0.950 . S
C2730 C2731 1.386 . S
C2730 C2732 1.391 . S
C2731 C2730 1.386 . S
C2731 C2735 1.393 . S
C2732 H2721 0.950 . S
C2732 C2730 1.391 . S
C2732 C2733 1.400 . S
C2733 C2727 1.491 . S
C2733 C2732 1.400 . S
C2733 C2734 1.398 . S
C2734 H2722 0.950 . S
C2734 C2733 1.398 . S
C2734 C2735 1.391 . S
C2735 H2723 0.950 . S
C2735 C2731 1.393 . S
C2735 C2734 1.391 . S
H2736 C2744 0.950 . S
H2737 C2749 0.950 . S
H2738 C2746 0.950 . S
H2739 C2748 0.950 . S
H2740 C2750 0.950 . S
H2741 C2752 0.950 . S
H2742 C2754 0.950 . S
H2743 C2755 0.950 . S
C2744 H2736 0.950 . S
C2744 C2745 1.386 . S
C2744 C2746 1.391 . S
C2745 C2744 1.386 . S
C2745 C2749 1.393 . S
C2746 H2738 0.950 . S
C2746 C2744 1.391 . S
C2746 C2747 1.400 . S
C2747 C2746 1.400 . S
C2747 C2748 1.398 . S
C2747 C2753 1.491 . S
C2748 H2739 0.950 . S
C2748 C2747 1.398 . S
C2748 C2749 1.391 . S
C2749 H2737 0.950 . S
C2749 C2745 1.393 . S
C2749 C2748 1.391 . S
C2750 H2740 0.950 . S
C2750 C2751 1.386 . S
C2750 C2752 1.391 . S
C2751 C2750 1.386 . S
C2751 C2755 1.393 . S
C2752 H2741 0.950 . S
C2752 C2750 1.391 . S
C2752 C2753 1.400 . S
C2753 C2747 1.491 . S
C2753 C2752 1.400 . S
C2753 C2754 1.398 . S
C2754 H2742 0.950 . S
C2754 C2753 1.398 . S
C2754 C2755 1.391 . S
C2755 H2743 0.950 . S
C2755 C2751 1.393 . S
C2755 C2754 1.391 . S
H2756 C2764 0.950 . S
H2757 C2769 0.950 . S
H2758 C2766 0.950 . S
H2759 C2768 0.950 . S
H2760 C2770 0.950 . S
H2761 C2772 0.950 . S
H2762 C2774 0.950 . S
H2763 C2775 0.950 . S
C2764 H2756 0.950 . S
C2764 C2765 1.386 . S
C2764 C2766 1.391 . S
C2765 C2764 1.386 . S
C2765 C2769 1.393 . S
C2766 H2758 0.950 . S
C2766 C2764 1.391 . S
C2766 C2767 1.400 . S
C2767 C2766 1.400 . S
C2767 C2768 1.398 . S
C2767 C2773 1.491 . S
C2768 H2759 0.950 . S
C2768 C2767 1.398 . S
C2768 C2769 1.391 . S
C2769 H2757 0.950 . S
C2769 C2765 1.393 . S
C2769 C2768 1.391 . S
C2770 H2760 0.950 . S
C2770 C2771 1.386 . S
C2770 C2772 1.391 . S
C2771 C2770 1.386 . S
C2771 C2775 1.393 . S
C2772 H2761 0.950 . S
C2772 C2770 1.391 . S
C2772 C2773 1.400 . S
C2773 C2767 1.491 . S
C2773 C2772 1.400 . S
C2773 C2774 1.398 . S
C2774 H2762 0.950 . S
C2774 C2773 1.398 . S
C2774 C2775 1.391 . S
C2775 H2763 0.950 . S
C2775 C2771 1.393 . S
C2775 C2774 1.391 . S
H2776 C2784 0.950 . S
H2777 C2789 0.950 . S
H2778 C2786 0.950 . S
H2779 C2788 0.950 . S
H2780 C2790 0.950 . S
H2781 C2792 0.950 . S
H2782 C2794 0.950 . S
H2783 C2795 0.950 . S
C2784 H2776 0.950 . S
C2784 C2785 1.386 . S
C2784 C2786 1.391 . S
C2785 C2784 1.386 . S
C2785 C2789 1.393 . S
C2786 H2778 0.950 . S
C2786 C2784 1.391 . S
C2786 C2787 1.400 . S
C2787 C2786 1.400 . S
C2787 C2788 1.398 . S
C2787 C2793 1.491 . S
C2788 H2779 0.950 . S
C2788 C2787 1.398 . S
C2788 C2789 1.391 . S
C2789 H2777 0.950 . S
C2789 C2785 1.393 . S
C2789 C2788 1.391 . S
C2790 H2780 0.950 . S
C2790 C2791 1.386 . S
C2790 C2792 1.391 . S
C2791 C2790 1.386 . S
C2791 C2795 1.393 . S
C2792 H2781 0.950 . S
C2792 C2790 1.391 . S
C2792 C2793 1.400 . S
C2793 C2787 1.491 . S
C2793 C2792 1.400 . S
C2793 C2794 1.398 . S
C2794 H2782 0.950 . S
C2794 C2793 1.398 . S
C2794 C2795 1.391 . S
C2795 H2783 0.950 . S
C2795 C2791 1.393 . S
C2795 C2794 1.391 . S
H2796 C2804 0.950 . S
H2797 C2809 0.950 . S
H2798 C2806 0.950 . S
H2799 C2808 0.950 . S
H2800 C2810 0.950 . S
H2801 C2812 0.950 . S
H2802 C2814 0.950 . S
H2803 C2815 0.950 . S
C2804 H2796 0.950 . S
C2804 C2805 1.386 . S
C2804 C2806 1.391 . S
C2805 C2804 1.386 . S
C2805 C2809 1.393 . S
C2806 H2798 0.950 . S
C2806 C2804 1.391 . S
C2806 C2807 1.400 . S
C2807 C2806 1.400 . S
C2807 C2808 1.398 . S
C2807 C2813 1.491 . S
C2808 H2799 0.950 . S
C2808 C2807 1.398 . S
C2808 C2809 1.391 . S
C2809 H2797 0.950 . S
C2809 C2805 1.393 . S
C2809 C2808 1.391 . S
C2810 H2800 0.950 . S
C2810 C2811 1.386 . S
C2810 C2812 1.391 . S
C2811 C2810 1.386 . S
C2811 C2815 1.393 . S
C2812 H2801 0.950 . S
C2812 C2810 1.391 . S
C2812 C2813 1.400 . S
C2813 C2807 1.491 . S
C2813 C2812 1.400 . S
C2813 C2814 1.398 . S
C2814 H2802 0.950 . S
C2814 C2813 1.398 . S
C2814 C2815 1.391 . S
C2815 H2803 0.950 . S
C2815 C2811 1.393 . S
C2815 C2814 1.391 . S
H2816 C2824 0.950 . S
H2817 C2829 0.950 . S
H2818 C2826 0.950 . S
H2819 C2828 0.950 . S
H2820 C2830 0.950 . S
H2821 C2832 0.950 . S
H2822 C2834 0.950 . S
H2823 C2835 0.950 . S
C2824 H2816 0.950 . S
C2824 C2825 1.386 . S
C2824 C2826 1.391 . S
C2825 C2824 1.386 . S
C2825 C2829 1.393 . S
C2826 H2818 0.950 . S
C2826 C2824 1.391 . S
C2826 C2827 1.400 . S
C2827 C2826 1.400 . S
C2827 C2828 1.398 . S
C2827 C2833 1.491 . S
C2828 H2819 0.950 . S
C2828 C2827 1.398 . S
C2828 C2829 1.391 . S
C2829 H2817 0.950 . S
C2829 C2825 1.393 . S
C2829 C2828 1.391 . S
C2830 H2820 0.950 . S
C2830 C2831 1.386 . S
C2830 C2832 1.391 . S
C2831 C2830 1.386 . S
C2831 C2835 1.393 . S
C2832 H2821 0.950 . S
C2832 C2830 1.391 . S
C2832 C2833 1.400 . S
C2833 C2827 1.491 . S
C2833 C2832 1.400 . S
C2833 C2834 1.398 . S
C2834 H2822 0.950 . S
C2834 C2833 1.398 . S
C2834 C2835 1.391 . S
C2835 H2823 0.950 . S
C2835 C2831 1.393 . S
C2835 C2834 1.391 . S
H2836 C2844 0.950 . S
H2837 C2849 0.950 . S
H2838 C2846 0.950 . S
H2839 C2848 0.950 . S
H2840 C2850 0.950 . S
H2841 C2852 0.950 . S
H2842 C2854 0.950 . S
H2843 C2855 0.950 . S
C2844 H2836 0.950 . S
C2844 C2845 1.386 . S
C2844 C2846 1.391 . S
C2845 C2844 1.386 . S
C2845 C2849 1.393 . S
C2846 H2838 0.950 . S
C2846 C2844 1.391 . S
C2846 C2847 1.400 . S
C2847 C2846 1.400 . S
C2847 C2848 1.398 . S
C2847 C2853 1.491 . S
C2848 H2839 0.950 . S
C2848 C2847 1.398 . S
C2848 C2849 1.391 . S
C2849 H2837 0.950 . S
C2849 C2845 1.393 . S
C2849 C2848 1.391 . S
C2850 H2840 0.950 . S
C2850 C2851 1.386 . S
C2850 C2852 1.391 . S
C2851 C2850 1.386 . S
C2851 C2855 1.393 . S
C2852 H2841 0.950 . S
C2852 C2850 1.391 . S
C2852 C2853 1.400 . S
C2853 C2847 1.491 . S
C2853 C2852 1.400 . S
C2853 C2854 1.398 . S
C2854 H2842 0.950 . S
C2854 C2853 1.398 . S
C2854 C2855 1.391 . S
C2855 H2843 0.950 . S
C2855 C2851 1.393 . S
C2855 C2854 1.391 . S
H2856 C2864 0.950 . S
H2857 C2869 0.950 . S
H2858 C2866 0.950 . S
H2859 C2868 0.950 . S
H2860 C2870 0.950 . S
H2861 C2872 0.950 . S
H2862 C2874 0.950 . S
H2863 C2875 0.950 . S
C2864 H2856 0.950 . S
C2864 C2865 1.386 . S
C2864 C2866 1.391 . S
C2865 C2864 1.386 . S
C2865 C2869 1.393 . S
C2866 H2858 0.950 . S
C2866 C2864 1.391 . S
C2866 C2867 1.400 . S
C2867 C2866 1.400 . S
C2867 C2868 1.398 . S
C2867 C2873 1.491 . S
C2868 H2859 0.950 . S
C2868 C2867 1.398 . S
C2868 C2869 1.391 . S
C2869 H2857 0.950 . S
C2869 C2865 1.393 . S
C2869 C2868 1.391 . S
C2870 H2860 0.950 . S
C2870 C2871 1.386 . S
C2870 C2872 1.391 . S
C2871 C2870 1.386 . S
C2871 C2875 1.393 . S
C2872 H2861 0.950 . S
C2872 C2870 1.391 . S
C2872 C2873 1.400 . S
C2873 C2867 1.491 . S
C2873 C2872 1.400 . S
C2873 C2874 1.398 . S
C2874 H2862 0.950 . S
C2874 C2873 1.398 . S
C2874 C2875 1.391 . S
C2875 H2863 0.950 . S
C2875 C2871 1.393 . S
C2875 C2874 1.391 . S
H2876 C2884 0.950 . S
H2877 C2889 0.950 . S
H2878 C2886 0.950 . S
H2879 C2888 0.950 . S
H2880 C2890 0.950 . S
H2881 C2892 0.950 . S
H2882 C2894 0.950 . S
H2883 C2895 0.950 . S
C2884 H2876 0.950 . S
C2884 C2885 1.386 . S
C2884 C2886 1.391 . S
C2885 C2884 1.386 . S
C2885 C2889 1.393 . S
C2886 H2878 0.950 . S
C2886 C2884 1.391 . S
C2886 C2887 1.400 . S
C2887 C2886 1.400 . S
C2887 C2888 1.398 . S
C2887 C2893 1.491 . S
C2888 H2879 0.950 . S
C2888 C2887 1.398 . S
C2888 C2889 1.391 . S
C2889 H2877 0.950 . S
C2889 C2885 1.393 . S
C2889 C2888 1.391 . S
C2890 H2880 0.950 . S
C2890 C2891 1.386 . S
C2890 C2892 1.391 . S
C2891 C2890 1.386 . S
C2891 C2895 1.393 . S
C2892 H2881 0.950 . S
C2892 C2890 1.391 . S
C2892 C2893 1.400 . S
C2893 C2887 1.491 . S
C2893 C2892 1.400 . S
C2893 C2894 1.398 . S
C2894 H2882 0.950 . S
C2894 C2893 1.398 . S
C2894 C2895 1.391 . S
C2895 H2883 0.950 . S
C2895 C2891 1.393 . S
C2895 C2894 1.391 . S
H2896 C2904 0.950 . S
H2897 C2909 0.950 . S
H2898 C2906 0.950 . S
H2899 C2908 0.950 . S
H2900 C2910 0.950 . S
H2901 C2912 0.950 . S
H2902 C2914 0.950 . S
H2903 C2915 0.950 . S
C2904 H2896 0.950 . S
C2904 C2905 1.386 . S
C2904 C2906 1.391 . S
C2905 C2904 1.386 . S
C2905 C2909 1.393 . S
C2906 H2898 0.950 . S
C2906 C2904 1.391 . S
C2906 C2907 1.400 . S
C2907 C2906 1.400 . S
C2907 C2908 1.398 . S
C2907 C2913 1.491 . S
C2908 H2899 0.950 . S
C2908 C2907 1.398 . S
C2908 C2909 1.391 . S
C2909 H2897 0.950 . S
C2909 C2905 1.393 . S
C2909 C2908 1.391 . S
C2910 H2900 0.950 . S
C2910 C2911 1.386 . S
C2910 C2912 1.391 . S
C2911 C2910 1.386 . S
C2911 C2915 1.393 . S
C2912 H2901 0.950 . S
C2912 C2910 1.391 . S
C2912 C2913 1.400 . S
C2913 C2907 1.491 . S
C2913 C2912 1.400 . S
C2913 C2914 1.398 . S
C2914 H2902 0.950 . S
C2914 C2913 1.398 . S
C2914 C2915 1.391 . S
C2915 H2903 0.950 . S
C2915 C2911 1.393 . S
C2915 C2914 1.391 . S
H2916 C2924 0.950 . S
H2917 C2929 0.950 . S
H2918 C2926 0.950 . S
H2919 C2928 0.950 . S
H2920 C2930 0.950 . S
H2921 C2932 0.950 . S
H2922 C2934 0.950 . S
H2923 C2935 0.950 . S
C2924 H2916 0.950 . S
C2924 C2925 1.386 . S
C2924 C2926 1.391 . S
C2925 C2924 1.386 . S
C2925 C2929 1.393 . S
C2926 H2918 0.950 . S
C2926 C2924 1.391 . S
C2926 C2927 1.400 . S
C2927 C2926 1.400 . S
C2927 C2928 1.398 . S
C2927 C2933 1.491 . S
C2928 H2919 0.950 . S
C2928 C2927 1.398 . S
C2928 C2929 1.391 . S
C2929 H2917 0.950 . S
C2929 C2925 1.393 . S
C2929 C2928 1.391 . S
C2930 H2920 0.950 . S
C2930 C2931 1.386 . S
C2930 C2932 1.391 . S
C2931 C2930 1.386 . S
C2931 C2935 1.393 . S
C2932 H2921 0.950 . S
C2932 C2930 1.391 . S
C2932 C2933 1.400 . S
C2933 C2927 1.491 . S
C2933 C2932 1.400 . S
C2933 C2934 1.398 . S
C2934 H2922 0.950 . S
C2934 C2933 1.398 . S
C2934 C2935 1.391 . S
C2935 H2923 0.950 . S
C2935 C2931 1.393 . S
C2935 C2934 1.391 . S
H2936 C2944 0.950 . S
H2937 C2949 0.950 . S
H2938 C2946 0.950 . S
H2939 C2948 0.950 . S
H2940 C2950 0.950 . S
H2941 C2952 0.950 . S
H2942 C2954 0.950 . S
H2943 C2955 0.950 . S
C2944 H2936 0.950 . S
C2944 C2945 1.386 . S
C2944 C2946 1.391 . S
C2945 C2944 1.386 . S
C2945 C2949 1.393 . S
C2946 H2938 0.950 . S
C2946 C2944 1.391 . S
C2946 C2947 1.400 . S
C2947 C2946 1.400 . S
C2947 C2948 1.398 . S
C2947 C2953 1.491 . S
C2948 H2939 0.950 . S
C2948 C2947 1.398 . S
C2948 C2949 1.391 . S
C2949 H2937 0.950 . S
C2949 C2945 1.393 . S
C2949 C2948 1.391 . S
C2950 H2940 0.950 . S
C2950 C2951 1.386 . S
C2950 C2952 1.391 . S
C2951 C2950 1.386 . S
C2951 C2955 1.393 . S
C2952 H2941 0.950 . S
C2952 C2950 1.391 . S
C2952 C2953 1.400 . S
C2953 C2947 1.491 . S
C2953 C2952 1.400 . S
C2953 C2954 1.398 . S
C2954 H2942 0.950 . S
C2954 C2953 1.398 . S
C2954 C2955 1.391 . S
C2955 H2943 0.950 . S
C2955 C2951 1.393 . S
C2955 C2954 1.391 . S
H2956 C2964 0.950 . S
H2957 C2969 0.950 . S
H2958 C2966 0.950 . S
H2959 C2968 0.950 . S
H2960 C2970 0.950 . S
H2961 C2972 0.950 . S
H2962 C2974 0.950 . S
H2963 C2975 0.950 . S
C2964 H2956 0.950 . S
C2964 C2965 1.386 . S
C2964 C2966 1.391 . S
C2965 C2964 1.386 . S
C2965 C2969 1.393 . S
C2966 H2958 0.950 . S
C2966 C2964 1.391 . S
C2966 C2967 1.400 . S
C2967 C2966 1.400 . S
C2967 C2968 1.398 . S
C2967 C2973 1.491 . S
C2968 H2959 0.950 . S
C2968 C2967 1.398 . S
C2968 C2969 1.391 . S
C2969 H2957 0.950 . S
C2969 C2965 1.393 . S
C2969 C2968 1.391 . S
C2970 H2960 0.950 . S
C2970 C2971 1.386 . S
C2970 C2972 1.391 . S
C2971 C2970 1.386 . S
C2971 C2975 1.393 . S
C2972 H2961 0.950 . S
C2972 C2970 1.391 . S
C2972 C2973 1.400 . S
C2973 C2967 1.491 . S
C2973 C2972 1.400 . S
C2973 C2974 1.398 . S
C2974 H2962 0.950 . S
C2974 C2973 1.398 . S
C2974 C2975 1.391 . S
C2975 H2963 0.950 . S
C2975 C2971 1.393 . S
C2975 C2974 1.391 . S
C1705 C675 1.710 . S
C1711 C38 1.717 . S
C1725 C1576 1.720 . S
C1731 C91 1.725 . S
C1745 C781 1.720 . S
C1751 C144 1.726 . S
C1765 C1682 1.720 . S
C1771 C197 1.726 . S
C1785 C463 1.708 . S
C1791 C250 1.716 . S
C1805 C303 1.720 . S
C1811 C1364 1.714 . S
C1825 C356 1.719 . S
C1831 C569 1.710 . S
C1845 C1470 1.710 . S
C1851 C409 1.718 . S
C1865 C251 1.712 . S
C1871 C462 1.722 . S
C1885 C1152 1.714 . S
C1891 C515 1.723 . S
C1905 C357 1.718 . S
C1911 C568 1.726 . S
C1925 C1258 1.721 . S
C1931 C621 1.727 . S
C1945 C674 1.729 . S
C1951 C39 1.722 . S
C1965 C727 1.725 . S
C1971 C940 1.716 . S
C1985 C145 1.722 . S
C1991 C780 1.728 . S
C2005 C833 1.721 . S
C2011 C1046 1.712 . S
C2025 C1523 1.708 . S
C2031 C886 1.716 . S
C2045 C728 1.708 . S
C2051 C939 1.716 . S
C2065 C1629 1.708 . S
C2071 C992 1.716 . S
C2085 C1045 1.721 . S
C2091 C834 1.713 . S
C2105 C1098 1.716 . S
C2111 C1311 1.708 . S
C2125 C1151 1.724 . S
C2131 C516 1.716 . S
C2145 C1417 1.714 . S
C2151 C1204 1.722 . S
C2165 C622 1.708 . S
C2171 C1257 1.717 . S
C2185 C1099 1.718 . S
C2191 C1310 1.725 . S
C2205 C1363 1.729 . S
C2211 C304 1.723 . S
C2225 C1416 1.728 . S
C2231 C1205 1.722 . S
C2245 C1469 1.721 . S
C2251 C410 1.712 . S
C2265 C887 1.720 . S
C2271 C1522 1.726 . S
C2285 C92 1.716 . S
C2291 C1575 1.724 . S
C2305 C993 1.718 . S
C2311 C1628 1.725 . S
C2325 C1681 1.723 . S
C2331 C198 1.715 . S
C2345 C29 2.337 . S
C2351 C453 2.351 . S
C2365 C82 2.338 . S
C2371 C1354 2.351 . S
C2385 C559 2.365 . S
C2391 C135 2.352 . S
C2405 C188 2.356 . S
C2411 C1460 2.368 . S
C2425 C241 2.342 . S
C2431 C665 2.355 . S
C2445 C1566 2.367 . S
C2451 C294 2.355 . S
C2465 C771 2.350 . S
C2471 C347 2.336 . S
C2485 C400 2.336 . S
C2491 C1672 2.349 . S
C2505 C506 2.359 . S
C2511 C930 2.346 . S
C2525 C612 2.355 . S
C2531 C1036 2.342 . S
C2545 C718 2.367 . S
C2551 C1142 2.355 . S
C2565 C1248 2.344 . S
C2571 C824 2.357 . S
C2585 C877 2.356 . S
C2591 C1301 2.369 . S
C2605 C983 2.344 . S
C2611 C1407 2.357 . S
C2625 C1089 2.356 . S
C2631 C1513 2.369 . S
C2645 C1619 2.360 . S
C2651 C1195 2.348 . S
C2665 C22 2.121 . S
C2671 C393 2.131 . S
C2685 C75 2.122 . S
C2691 C234 2.132 . S
C2705 C287 2.126 . S
C2711 C128 2.122 . S
C2725 C340 2.129 . S
C2731 C181 2.120 . S
C2745 C817 2.118 . S
C2751 C446 2.116 . S
C2765 C658 2.127 . S
C2771 C499 2.119 . S
C2785 C711 2.127 . S
C2791 C552 2.118 . S
C2805 C764 2.119 . S
C2811 C605 2.116 . S
C2825 C870 2.133 . S
C2831 C1241 2.124 . S
C2845 C1082 2.129 . S
C2851 C923 2.120 . S
C2865 C1135 2.121 . S
C2871 C976 2.127 . S
C2885 C1188 2.122 . S
C2891 C1029 2.126 . S
C2905 C1665 2.126 . S
C2911 C1294 2.114 . S
C2925 C1347 2.127 . S
C2931 C1506 2.116 . S
C2945 C1400 2.123 . S
C2951 C1559 2.124 . S
C2965 C1612 2.114 . S
C2971 C1453 2.126 . S
