# Generated by pormake.
# Topology lcv-a, (4)-cn, num edge types: 1
# Building blocks:
#     Node 0, Type 0, BuildingBlock: QUQFOY_clean_sbu_1, # of connection points: 4
#     Node 1, Type 0, BuildingBlock: QUQFOY_clean_sbu_1, # of connection points: 4
#     Node 2, Type 0, BuildingBlock: QUQFOY_clean_sbu_1, # of connection points: 4
#     Node 3, Type 0, BuildingBlock: QUQFOY_clean_sbu_1, # of connection points: 4
#     Node 4, Type 0, BuildingBlock: QUQFOY_clean_sbu_1, # of connection points: 4
#     Node 5, Type 0, BuildingBlock: QUQFOY_clean_sbu_1, # of connection points: 4
#     Node 6, Type 0, BuildingBlock: QUQFOY_clean_sbu_1, # of connection points: 4
#     Node 7, Type 0, BuildingBlock: QUQFOY_clean_sbu_1, # of connection points: 4
#     Node 8, Type 0, BuildingBlock: QUQFOY_clean_sbu_1, # of connection points: 4
#     Node 9, Type 0, BuildingBlock: QUQFOY_clean_sbu_1, # of connection points: 4
#     Node 10, Type 0, BuildingBlock: QUQFOY_clean_sbu_1, # of connection points: 4
#     Node 11, Type 0, BuildingBlock: QUQFOY_clean_sbu_1, # of connection points: 4
#     Node 12, Type 0, BuildingBlock: QUQFOY_clean_sbu_1, # of connection points: 4
#     Node 13, Type 0, BuildingBlock: QUQFOY_clean_sbu_1, # of connection points: 4
#     Node 14, Type 0, BuildingBlock: QUQFOY_clean_sbu_1, # of connection points: 4
#     Node 15, Type 0, BuildingBlock: QUQFOY_clean_sbu_1, # of connection points: 4
#     Node 16, Type 0, BuildingBlock: QUQFOY_clean_sbu_1, # of connection points: 4
#     Node 17, Type 0, BuildingBlock: QUQFOY_clean_sbu_1, # of connection points: 4
#     Node 18, Type 0, BuildingBlock: QUQFOY_clean_sbu_1, # of connection points: 4
#     Node 19, Type 0, BuildingBlock: QUQFOY_clean_sbu_1, # of connection points: 4
#     Node 20, Type 0, BuildingBlock: QUQFOY_clean_sbu_1, # of connection points: 4
#     Node 21, Type 0, BuildingBlock: QUQFOY_clean_sbu_1, # of connection points: 4
#     Node 22, Type 0, BuildingBlock: QUQFOY_clean_sbu_1, # of connection points: 4
#     Node 23, Type 0, BuildingBlock: QUQFOY_clean_sbu_1, # of connection points: 4
#     Node 24, Type 0, BuildingBlock: QUQFOY_clean_sbu_1, # of connection points: 4
#     Node 25, Type 0, BuildingBlock: QUQFOY_clean_sbu_1, # of connection points: 4
#     Node 26, Type 0, BuildingBlock: QUQFOY_clean_sbu_1, # of connection points: 4
#     Node 27, Type 0, BuildingBlock: QUQFOY_clean_sbu_1, # of connection points: 4
#     Node 28, Type 0, BuildingBlock: QUQFOY_clean_sbu_1, # of connection points: 4
#     Node 29, Type 0, BuildingBlock: QUQFOY_clean_sbu_1, # of connection points: 4
#     Node 30, Type 0, BuildingBlock: QUQFOY_clean_sbu_1, # of connection points: 4
#     Node 31, Type 0, BuildingBlock: QUQFOY_clean_sbu_1, # of connection points: 4
#     Node 32, Type 0, BuildingBlock: QUQFOY_clean_sbu_1, # of connection points: 4
#     Node 33, Type 0, BuildingBlock: QUQFOY_clean_sbu_1, # of connection points: 4
#     Node 34, Type 0, BuildingBlock: QUQFOY_clean_sbu_1, # of connection points: 4
#     Node 35, Type 0, BuildingBlock: QUQFOY_clean_sbu_1, # of connection points: 4
#     Node 36, Type 0, BuildingBlock: QUQFOY_clean_sbu_1, # of connection points: 4
#     Node 37, Type 0, BuildingBlock: QUQFOY_clean_sbu_1, # of connection points: 4
#     Node 38, Type 0, BuildingBlock: QUQFOY_clean_sbu_1, # of connection points: 4
#     Node 39, Type 0, BuildingBlock: QUQFOY_clean_sbu_1, # of connection points: 4
#     Node 40, Type 0, BuildingBlock: QUQFOY_clean_sbu_1, # of connection points: 4
#     Node 41, Type 0, BuildingBlock: QUQFOY_clean_sbu_1, # of connection points: 4
#     Node 42, Type 0, BuildingBlock: QUQFOY_clean_sbu_1, # of connection points: 4
#     Node 43, Type 0, BuildingBlock: QUQFOY_clean_sbu_1, # of connection points: 4
#     Node 44, Type 0, BuildingBlock: QUQFOY_clean_sbu_1, # of connection points: 4
#     Node 45, Type 0, BuildingBlock: QUQFOY_clean_sbu_1, # of connection points: 4
#     Node 46, Type 0, BuildingBlock: QUQFOY_clean_sbu_1, # of connection points: 4
#     Node 47, Type 0, BuildingBlock: QUQFOY_clean_sbu_1, # of connection points: 4
#     Edge 48, Type (0, 0), BuildingBlock: XIVTED_clean_linker_0, # of connection points: 2
#     Edge 49, Type (0, 0), BuildingBlock: XIVTED_clean_linker_0, # of connection points: 2
#     Edge 50, Type (0, 0), BuildingBlock: XIVTED_clean_linker_0, # of connection points: 2
#     Edge 51, Type (0, 0), BuildingBlock: XIVTED_clean_linker_0, # of connection points: 2
#     Edge 52, Type (0, 0), BuildingBlock: XIVTED_clean_linker_0, # of connection points: 2
#     Edge 53, Type (0, 0), BuildingBlock: XIVTED_clean_linker_0, # of connection points: 2
#     Edge 54, Type (0, 0), BuildingBlock: XIVTED_clean_linker_0, # of connection points: 2
#     Edge 55, Type (0, 0), BuildingBlock: XIVTED_clean_linker_0, # of connection points: 2
#     Edge 56, Type (0, 0), BuildingBlock: XIVTED_clean_linker_0, # of connection points: 2
#     Edge 57, Type (0, 0), BuildingBlock: XIVTED_clean_linker_0, # of connection points: 2
#     Edge 58, Type (0, 0), BuildingBlock: XIVTED_clean_linker_0, # of connection points: 2
#     Edge 59, Type (0, 0), BuildingBlock: XIVTED_clean_linker_0, # of connection points: 2
#     Edge 60, Type (0, 0), BuildingBlock: XIVTED_clean_linker_0, # of connection points: 2
#     Edge 61, Type (0, 0), BuildingBlock: XIVTED_clean_linker_0, # of connection points: 2
#     Edge 62, Type (0, 0), BuildingBlock: XIVTED_clean_linker_0, # of connection points: 2
#     Edge 63, Type (0, 0), BuildingBlock: XIVTED_clean_linker_0, # of connection points: 2
#     Edge 64, Type (0, 0), BuildingBlock: XIVTED_clean_linker_0, # of connection points: 2
#     Edge 65, Type (0, 0), BuildingBlock: XIVTED_clean_linker_0, # of connection points: 2
#     Edge 66, Type (0, 0), BuildingBlock: XIVTED_clean_linker_0, # of connection points: 2
#     Edge 67, Type (0, 0), BuildingBlock: XIVTED_clean_linker_0, # of connection points: 2
#     Edge 68, Type (0, 0), BuildingBlock: XIVTED_clean_linker_0, # of connection points: 2
#     Edge 69, Type (0, 0), BuildingBlock: XIVTED_clean_linker_0, # of connection points: 2
#     Edge 70, Type (0, 0), BuildingBlock: XIVTED_clean_linker_0, # of connection points: 2
#     Edge 71, Type (0, 0), BuildingBlock: XIVTED_clean_linker_0, # of connection points: 2
#     Edge 72, Type (0, 0), BuildingBlock: XIVTED_clean_linker_0, # of connection points: 2
#     Edge 73, Type (0, 0), BuildingBlock: XIVTED_clean_linker_0, # of connection points: 2
#     Edge 74, Type (0, 0), BuildingBlock: XIVTED_clean_linker_0, # of connection points: 2
#     Edge 75, Type (0, 0), BuildingBlock: XIVTED_clean_linker_0, # of connection points: 2
#     Edge 76, Type (0, 0), BuildingBlock: XIVTED_clean_linker_0, # of connection points: 2
#     Edge 77, Type (0, 0), BuildingBlock: XIVTED_clean_linker_0, # of connection points: 2
#     Edge 78, Type (0, 0), BuildingBlock: XIVTED_clean_linker_0, # of connection points: 2
#     Edge 79, Type (0, 0), BuildingBlock: XIVTED_clean_linker_0, # of connection points: 2
#     Edge 80, Type (0, 0), BuildingBlock: XIVTED_clean_linker_0, # of connection points: 2
#     Edge 81, Type (0, 0), BuildingBlock: XIVTED_clean_linker_0, # of connection points: 2
#     Edge 82, Type (0, 0), BuildingBlock: XIVTED_clean_linker_0, # of connection points: 2
#     Edge 83, Type (0, 0), BuildingBlock: XIVTED_clean_linker_0, # of connection points: 2
#     Edge 84, Type (0, 0), BuildingBlock: XIVTED_clean_linker_0, # of connection points: 2
#     Edge 85, Type (0, 0), BuildingBlock: XIVTED_clean_linker_0, # of connection points: 2
#     Edge 86, Type (0, 0), BuildingBlock: XIVTED_clean_linker_0, # of connection points: 2
#     Edge 87, Type (0, 0), BuildingBlock: XIVTED_clean_linker_0, # of connection points: 2
#     Edge 88, Type (0, 0), BuildingBlock: XIVTED_clean_linker_0, # of connection points: 2
#     Edge 89, Type (0, 0), BuildingBlock: XIVTED_clean_linker_0, # of connection points: 2
#     Edge 90, Type (0, 0), BuildingBlock: XIVTED_clean_linker_0, # of connection points: 2
#     Edge 91, Type (0, 0), BuildingBlock: XIVTED_clean_linker_0, # of connection points: 2
#     Edge 92, Type (0, 0), BuildingBlock: XIVTED_clean_linker_0, # of connection points: 2
#     Edge 93, Type (0, 0), BuildingBlock: XIVTED_clean_linker_0, # of connection points: 2
#     Edge 94, Type (0, 0), BuildingBlock: XIVTED_clean_linker_0, # of connection points: 2
#     Edge 95, Type (0, 0), BuildingBlock: XIVTED_clean_linker_0, # of connection points: 2
#     Edge 96, Type (0, 0), BuildingBlock: XIVTED_clean_linker_0, # of connection points: 2
#     Edge 97, Type (0, 0), BuildingBlock: XIVTED_clean_linker_0, # of connection points: 2
#     Edge 98, Type (0, 0), BuildingBlock: XIVTED_clean_linker_0, # of connection points: 2
#     Edge 99, Type (0, 0), BuildingBlock: XIVTED_clean_linker_0, # of connection points: 2
#     Edge 100, Type (0, 0), BuildingBlock: XIVTED_clean_linker_0, # of connection points: 2
#     Edge 101, Type (0, 0), BuildingBlock: XIVTED_clean_linker_0, # of connection points: 2
#     Edge 102, Type (0, 0), BuildingBlock: XIVTED_clean_linker_0, # of connection points: 2
#     Edge 103, Type (0, 0), BuildingBlock: XIVTED_clean_linker_0, # of connection points: 2
#     Edge 104, Type (0, 0), BuildingBlock: XIVTED_clean_linker_0, # of connection points: 2
#     Edge 105, Type (0, 0), BuildingBlock: XIVTED_clean_linker_0, # of connection points: 2
#     Edge 106, Type (0, 0), BuildingBlock: XIVTED_clean_linker_0, # of connection points: 2
#     Edge 107, Type (0, 0), BuildingBlock: XIVTED_clean_linker_0, # of connection points: 2
#     Edge 108, Type (0, 0), BuildingBlock: XIVTED_clean_linker_0, # of connection points: 2
#     Edge 109, Type (0, 0), BuildingBlock: XIVTED_clean_linker_0, # of connection points: 2
#     Edge 110, Type (0, 0), BuildingBlock: XIVTED_clean_linker_0, # of connection points: 2
#     Edge 111, Type (0, 0), BuildingBlock: XIVTED_clean_linker_0, # of connection points: 2
#     Edge 112, Type (0, 0), BuildingBlock: XIVTED_clean_linker_0, # of connection points: 2
#     Edge 113, Type (0, 0), BuildingBlock: XIVTED_clean_linker_0, # of connection points: 2
#     Edge 114, Type (0, 0), BuildingBlock: XIVTED_clean_linker_0, # of connection points: 2
#     Edge 115, Type (0, 0), BuildingBlock: XIVTED_clean_linker_0, # of connection points: 2
#     Edge 116, Type (0, 0), BuildingBlock: XIVTED_clean_linker_0, # of connection points: 2
#     Edge 117, Type (0, 0), BuildingBlock: XIVTED_clean_linker_0, # of connection points: 2
#     Edge 118, Type (0, 0), BuildingBlock: XIVTED_clean_linker_0, # of connection points: 2
#     Edge 119, Type (0, 0), BuildingBlock: XIVTED_clean_linker_0, # of connection points: 2
#     Edge 120, Type (0, 0), BuildingBlock: XIVTED_clean_linker_0, # of connection points: 2
#     Edge 121, Type (0, 0), BuildingBlock: XIVTED_clean_linker_0, # of connection points: 2
#     Edge 122, Type (0, 0), BuildingBlock: XIVTED_clean_linker_0, # of connection points: 2
#     Edge 123, Type (0, 0), BuildingBlock: XIVTED_clean_linker_0, # of connection points: 2
#     Edge 124, Type (0, 0), BuildingBlock: XIVTED_clean_linker_0, # of connection points: 2
#     Edge 125, Type (0, 0), BuildingBlock: XIVTED_clean_linker_0, # of connection points: 2
#     Edge 126, Type (0, 0), BuildingBlock: XIVTED_clean_linker_0, # of connection points: 2
#     Edge 127, Type (0, 0), BuildingBlock: XIVTED_clean_linker_0, # of connection points: 2
#     Edge 128, Type (0, 0), BuildingBlock: XIVTED_clean_linker_0, # of connection points: 2
#     Edge 129, Type (0, 0), BuildingBlock: XIVTED_clean_linker_0, # of connection points: 2
#     Edge 130, Type (0, 0), BuildingBlock: XIVTED_clean_linker_0, # of connection points: 2
#     Edge 131, Type (0, 0), BuildingBlock: XIVTED_clean_linker_0, # of connection points: 2
#     Edge 132, Type (0, 0), BuildingBlock: XIVTED_clean_linker_0, # of connection points: 2
#     Edge 133, Type (0, 0), BuildingBlock: XIVTED_clean_linker_0, # of connection points: 2
#     Edge 134, Type (0, 0), BuildingBlock: XIVTED_clean_linker_0, # of connection points: 2
#     Edge 135, Type (0, 0), BuildingBlock: XIVTED_clean_linker_0, # of connection points: 2
#     Edge 136, Type (0, 0), BuildingBlock: XIVTED_clean_linker_0, # of connection points: 2
#     Edge 137, Type (0, 0), BuildingBlock: XIVTED_clean_linker_0, # of connection points: 2
#     Edge 138, Type (0, 0), BuildingBlock: XIVTED_clean_linker_0, # of connection points: 2
#     Edge 139, Type (0, 0), BuildingBlock: XIVTED_clean_linker_0, # of connection points: 2
#     Edge 140, Type (0, 0), BuildingBlock: XIVTED_clean_linker_0, # of connection points: 2
#     Edge 141, Type (0, 0), BuildingBlock: XIVTED_clean_linker_0, # of connection points: 2
#     Edge 142, Type (0, 0), BuildingBlock: XIVTED_clean_linker_0, # of connection points: 2
#     Edge 143, Type (0, 0), BuildingBlock: XIVTED_clean_linker_0, # of connection points: 2
# Relax obj value: 0.767
# Max RMSD: 0.378
# Mean RMSD: 0.347
data_MOF--net-lcv-a--node1-QUQFOY_clean_sbu_1--edge1-XIVTED_clean_linker_0
_symmetry_space_group_name_H-M    P1
_symmetry_Int_Tables_number       1
_symmetry_cell_setting            triclinic
loop_
_symmetry_equiv_pos_as_xyz
'x, y, z'
_cell_length_a     91.162971
_cell_length_b     90.686236
_cell_length_c     90.675234
_cell_angle_alpha  89.528828
_cell_angle_beta   89.696758
_cell_angle_gamma 89.384995
loop_
_atom_site_label
_atom_site_type_symbol
_atom_site_fract_x
_atom_site_fract_y
_atom_site_fract_z
_atom_type_partial_charge
O0 O 0.99894 0.37943 0.18389 0.0
Cd1 Cd 1.00095 0.37066 0.20488 0.0
Cd2 Cd 0.98137 0.35405 0.19307 0.0
O3 O 0.97644 0.37192 0.17955 0.0
O4 O 1.0087 0.38649 0.21846 0.0
O5 O 0.98563 0.3794 0.21851 0.0
C6 C 0.99542 0.38831 0.22326 0.0
C7 C 0.97279 0.34045 0.21267 0.0
C8 C 0.98744 0.37981 0.17595 0.0
C9 C 0.00977 0.34065 0.19504 0.0
O10 O 0.99948 0.34311 0.18599 0.0
O11 O 0.01139 0.34938 0.20595 0.0
O12 O 0.96808 0.33771 0.1995 0.0
O13 O 0.9797 0.3526 0.2147 0.0
O14 O 0.01049 0.75383 0.50463 0.0
Cd15 Cd 1.00517 0.76299 0.48489 0.0
Cd16 Cd 0.03642 0.76073 0.50835 0.0
O17 O 0.02793 0.73968 0.51177 0.0
O18 O 0.98881 0.75273 0.47509 0.0
O19 O 0.98594 0.77399 0.48672 0.0
C20 C 0.98012 0.76272 0.48041 0.0
C21 C 0.03849 0.78123 0.523 0.0
C22 C 0.01545 0.74079 0.50581 0.0
C23 C 0.03722 0.7687 0.47417 0.0
O24 O 0.04253 0.76561 0.48685 0.0
O25 O 0.02336 0.76873 0.47151 0.0
O26 O 0.04887 0.77135 0.52264 0.0
O27 O 0.0262 0.7783 0.51663 0.0
O28 O 0.60681 0.77993 0.73824 0.0
Cd29 Cd 0.58886 0.77272 0.72729 0.0
Cd30 Cd 0.57694 0.78905 0.74727 0.0
O31 O 0.59366 0.77649 0.75791 0.0
O32 O 0.59307 0.75278 0.71854 0.0
O33 O 0.57834 0.75623 0.73774 0.0
C34 C 0.58508 0.74722 0.72899 0.0
C35 C 0.55178 0.78689 0.75104 0.0
C36 C 0.60617 0.77591 0.7516 0.0
C37 C 0.5795 0.80179 0.71734 0.0
O38 O 0.58072 0.80506 0.73092 0.0
O39 O 0.58009 0.78834 0.71345 0.0
O40 O 0.55952 0.79535 0.7593 0.0
O41 O 0.55862 0.77858 0.74171 0.0
O42 O 0.58456 0.36221 0.98416 0.0
Cd43 Cd 0.59238 0.34285 0.9759 0.0
Cd44 Cd 0.57529 0.33374 0.99652 0.0
O45 O 0.58718 0.35156 1.00546 0.0
O46 O 0.61241 0.34604 0.96713 0.0
O47 O 0.60861 0.3336 0.98791 0.0
C48 C 0.61774 0.33935 0.9786 0.0
C49 C 0.57721 0.30903 1.00347 0.0
C50 C 0.58789 0.36325 0.99762 0.0
C51 C 0.56405 0.33311 0.966 0.0
O52 O 0.56019 0.33594 0.97922 0.0
O53 O 0.5776 0.33278 0.96255 0.0
O54 O 0.56838 0.31791 1.01035 0.0
O55 O 0.58596 0.3146 0.99371 0.0
O56 O 0.01192 0.72531 0.40245 0.0
Cd57 Cd 0.02059 0.73344 0.38323 0.0
Cd58 Cd 0.9968 0.75039 0.38818 0.0
O59 O 0.98885 0.73277 0.40063 0.0
O60 O 0.03195 0.71622 0.3741 0.0
O61 O 0.01097 0.72475 0.36537 0.0
C62 C 0.02116 0.71486 0.365 0.0
C63 C 0.99534 0.76252 0.36571 0.0
C64 C 0.99874 0.72502 0.40711 0.0
C65 C 0.02473 0.76329 0.39559 0.0
O66 O 0.01174 0.76116 0.40007 0.0
O67 O 0.03048 0.75461 0.38598 0.0
O68 O 0.98667 0.76655 0.37636 0.0
O69 O 1.00261 0.75039 0.36732 0.0
O70 O 0.62213 0.74265 0.67751 0.0
Cd71 Cd 0.61232 0.7502 0.65845 0.0
Cd72 Cd 0.593 0.73018 0.66895 0.0
O73 O 0.61082 0.72139 0.68042 0.0
O74 O 0.62796 0.75995 0.6457 0.0
O75 O 0.61869 0.73818 0.64086 0.0
C76 C 0.62812 0.74819 0.63773 0.0
C77 C 0.58052 0.72581 0.64721 0.0
C78 C 0.621 0.73022 0.68405 0.0
C79 C 0.58379 0.76055 0.67206 0.0
O80 O 0.58418 0.74825 0.67883 0.0
O81 O 0.59277 0.76301 0.66141 0.0
O82 O 0.5762 0.71946 0.6593 0.0
O83 O 0.59274 0.73274 0.64741 0.0
O84 O 0.61954 0.37471 0.92188 0.0
Cd85 Cd 0.61054 0.36529 0.90344 0.0
Cd86 Cd 0.63184 0.34591 0.91197 0.0
O87 O 0.64096 0.3632 0.92356 0.0
O88 O 0.59935 0.38181 0.89309 0.0
O89 O 0.6199 0.37211 0.88444 0.0
C90 C 0.60981 0.3821 0.88342 0.0
C91 C 0.63548 0.33408 0.88967 0.0
C92 C 0.63219 0.37345 0.92769 0.0
C93 C 0.60188 0.33643 0.9171 0.0
O94 O 0.61459 0.33664 0.92272 0.0
O95 O 0.59835 0.34575 0.907 0.0
O96 O 0.64237 0.32936 0.90128 0.0
O97 O 0.62846 0.34642 0.89056 0.0
O98 O 1.00429 0.33889 0.09558 0.0
Cd99 Cd 0.99752 0.34019 0.11705 0.0
Cd100 Cd 0.02962 0.32839 0.09611 0.0
O101 O 0.02274 0.34582 0.08275 0.0
O102 O 0.98333 0.35657 0.11955 0.0
O103 O 0.97653 0.33332 0.12041 0.0
C104 C 0.97289 0.34715 0.12003 0.0
C105 C 0.03514 0.30414 0.09053 0.0
C106 C 0.01075 0.34936 0.08891 0.0
C107 C 0.02861 0.33794 0.13037 0.0
O108 O 0.0338 0.33396 0.11787 0.0
O109 O 0.01482 0.34026 0.13247 0.0
O110 O 0.04472 0.31441 0.08851 0.0
O111 O 0.02194 0.30798 0.09436 0.0
O112 O 0.20783 0.99482 0.33671 0.0
Cd113 Cd 0.20865 0.01636 0.34243 0.0
Cd114 Cd 0.22963 0.01398 0.32341 0.0
O115 O 0.23139 0.99584 0.33865 0.0
O116 O 0.20316 0.01887 0.36406 0.0
O117 O 0.22572 0.02126 0.35548 0.0
C118 C 0.21696 0.02077 0.36668 0.0
C119 C 0.24338 0.0357 0.32295 0.0
C120 C 0.21959 0.98868 0.34084 0.0
C121 C 0.20137 0.02513 0.31251 0.0
O122 O 0.21188 0.0164 0.30905 0.0
O123 O 0.1996 0.02906 0.32589 0.0
O124 O 0.24757 0.02439 0.31534 0.0
O125 O 0.23227 0.03412 0.3316 0.0
O126 O 0.33878 1.00514 0.59046 0.0
Cd127 Cd 0.33033 0.98635 0.59935 0.0
Cd128 Cd 0.32936 1.00421 0.56472 0.0
O129 O 0.35053 1.01026 0.57077 0.0
O130 O 0.34334 0.98065 0.6159 0.0
O131 O 0.32103 0.98926 0.61989 0.0
C132 C 0.33371 0.98542 0.62511 0.0
C133 C 0.30726 0.01604 0.56071 0.0
C134 C 0.35105 1.00515 0.58377 0.0
C135 C 0.32628 0.96995 0.56914 0.0
O136 O 0.32742 0.98193 0.56177 0.0
O137 O 0.32651 0.96956 0.58336 0.0
O138 O 0.3171 0.01536 0.55035 0.0
O139 O 0.31091 1.01179 0.57389 0.0
O140 O 0.34204 0.0863 0.84882 0.0
Cd141 Cd 0.36287 0.08533 0.8569 0.0
Cd142 Cd 0.34353 0.07586 0.82334 0.0
O143 O 0.33204 0.09486 0.82925 0.0
O144 O 0.36659 0.09994 0.87272 0.0
O145 O 0.36336 0.07627 0.87744 0.0
C146 C 0.36484 0.08955 0.88231 0.0
C147 C 0.33557 0.05248 0.81768 0.0
C148 C 0.33724 0.09751 0.84184 0.0
C149 C 0.37823 0.08095 0.82643 0.0
O150 O 0.36594 0.07853 0.82023 0.0
O151 O 0.37932 0.08323 0.84038 0.0
O152 O 0.3353 0.06297 0.8079 0.0
O153 O 0.33897 0.05576 0.8311 0.0
O154 O 0.26258 0.15366 0.12461 0.0
Cd155 Cd 0.27053 0.13382 0.11697 0.0
Cd156 Cd 0.24578 0.13989 0.1007 0.0
O157 O 0.23937 0.15388 0.11762 0.0
O158 O 0.28328 0.12562 0.13364 0.0
O159 O 0.26208 0.11611 0.12746 0.0
C160 C 0.27294 0.11633 0.13642 0.0
C161 C 0.24264 0.11646 0.09169 0.0
C162 C 0.24983 0.15953 0.12494 0.0
C163 C 0.27401 0.14412 0.08586 0.0
O164 O 0.26128 0.14947 0.08802 0.0
O165 O 0.27961 0.13501 0.09522 0.0
O166 O 0.23457 0.12715 0.08652 0.0
O167 O 0.25009 0.1189 0.10339 0.0
O168 O 0.19466 0.09938 0.23953 0.0
Cd169 Cd 0.21356 0.09197 0.24973 0.0
Cd170 Cd 0.20534 0.11728 0.26449 0.0
O171 O 0.19307 0.1228 0.24607 0.0
O172 O 0.22324 0.078 0.23499 0.0
O173 O 0.23229 0.09965 0.2406 0.0
C174 C 0.2329 0.08807 0.23252 0.0
C175 C 0.22783 0.12149 0.27489 0.0
C176 C 0.18861 0.11206 0.23831 0.0
C177 C 0.20079 0.08939 0.28017 0.0
O178 O 0.19523 0.10195 0.27726 0.0
O179 O 0.21058 0.08376 0.27164 0.0
O180 O 0.21672 0.12968 0.27874 0.0
O181 O 0.22641 0.11335 0.26345 0.0
O182 O 0.2483 0.94611 0.47659 0.0
Cd183 Cd 0.25312 0.96679 0.48408 0.0
Cd184 Cd 0.23078 0.95864 0.50098 0.0
O185 O 0.2252 0.94459 0.48395 0.0
O186 O 0.26313 0.97801 0.46727 0.0
O187 O 0.24025 0.98219 0.47416 0.0
C188 C 0.25074 0.98475 0.46497 0.0
C189 C 0.22581 0.98079 0.51244 0.0
C190 C 0.23608 0.93944 0.47656 0.0
C191 C 0.25906 0.95617 0.5146 0.0
O192 O 0.24729 0.94929 0.51233 0.0
O193 O 0.26291 0.9665 0.50566 0.0
O194 O 0.21885 0.96907 0.51669 0.0
O195 O 0.2332 0.98013 0.50034 0.0
O196 O 0.41581 0.99408 0.73396 0.0
Cd197 Cd 0.39616 1.00206 0.74221 0.0
Cd198 Cd 0.40324 0.97874 0.75995 0.0
O199 O 0.41684 0.97145 0.74308 0.0
O200 O 0.38779 0.01489 0.72573 0.0
O201 O 0.37784 0.99392 0.73268 0.0
C202 C 0.37806 1.00488 0.72359 0.0
C203 C 0.37999 0.97443 0.76917 0.0
C204 C 0.42203 0.98145 0.73459 0.0
C205 C 0.40721 1.00784 0.7728 0.0
O206 O 0.41265 0.99496 0.77185 0.0
O207 O 0.39803 0.01253 0.7631 0.0
O208 O 0.39101 0.96691 0.77436 0.0
O209 O 0.38215 0.98237 0.75755 0.0
O210 O 0.35808 0.10189 0.02071 0.0
Cd211 Cd 0.34629 0.11944 0.01302 0.0
Cd212 Cd 0.35073 0.10415 0.04728 0.0
O213 O 0.37207 0.10076 0.03934 0.0
O214 O 0.35482 0.1259 0.99385 0.0
O215 O 0.33405 0.11367 0.99536 0.0
C216 C 0.34443 0.11912 0.98726 0.0
C217 C 0.32981 0.09002 0.04945 0.0
C218 C 0.37076 0.104 0.02582 0.0
C219 C 0.34241 0.13706 0.04293 0.0
O220 O 0.34594 0.12592 0.05088 0.0
O221 O 0.34156 0.13643 0.02874 0.0
O222 O 0.33909 0.09066 0.06021 0.0
O223 O 0.33348 0.09583 0.03691 0.0
O224 O 0.36566 0.20539 0.97865 0.0
Cd225 Cd 0.36546 0.20283 1.00092 0.0
Cd226 Cd 0.33773 0.20675 0.97682 0.0
O227 O 0.35198 0.1947 0.9633 0.0
O228 O 0.38576 0.19874 1.00798 0.0
O229 O 0.37455 0.22052 1.0099 0.0
C230 C 0.38647 0.21268 1.01089 0.0
C231 C 0.33375 0.23179 0.98019 0.0
C232 C 0.36369 0.19424 0.97073 0.0
C233 C 0.3338 0.18998 1.00625 0.0
O234 O 0.32899 0.19444 0.99379 0.0
O235 O 0.34689 0.19255 1.01074 0.0
O236 O 0.3254 0.22441 0.97147 0.0
O237 O 0.34522 0.22524 0.98554 0.0
O238 O 0.86423 0.42568 0.11514 0.0
Cd239 Cd 0.85518 0.40847 0.10387 0.0
Cd240 Cd 0.83527 0.41492 0.12624 0.0
O241 O 0.85203 0.42659 0.13624 0.0
O242 O 0.87215 0.40164 0.09117 0.0
O243 O 0.86352 0.38847 0.10975 0.0
C244 C 0.87351 0.39035 0.09985 0.0
C245 C 0.82671 0.39092 0.12813 0.0
C246 C 0.86269 0.43078 0.12809 0.0
C247 C 0.82569 0.42206 0.09607 0.0
O248 O 0.82503 0.42613 0.10943 0.0
O249 O 0.8358 0.41313 0.09176 0.0
O250 O 0.82047 0.40123 0.13581 0.0
O251 O 0.83857 0.3941 0.12112 0.0
O252 O 0.9332 0.61937 0.34141 0.0
Cd253 Cd 0.95251 0.60821 0.33668 0.0
Cd254 Cd 0.94037 0.59341 0.36152 0.0
O255 O 0.92784 0.6124 0.36425 0.0
O256 O 0.96442 0.62233 0.32366 0.0
O257 O 0.97086 0.61606 0.34621 0.0
C258 C 0.97319 0.62399 0.33466 0.0
C259 C 0.9626 0.58451 0.37017 0.0
C260 C 0.92529 0.62055 0.35298 0.0
C261 C 0.93949 0.57777 0.33308 0.0
O262 O 0.93287 0.5802 0.34519 0.0
O263 O 0.94955 0.5865 0.32845 0.0
O264 O 0.95063 0.58024 0.3766 0.0
O265 O 0.96161 0.59499 0.36062 0.0
O266 O 0.75034 0.74913 0.5941 0.0
Cd267 Cd 0.74551 0.72934 0.58511 0.0
Cd268 Cd 0.77618 0.75393 0.58791 0.0
O269 O 0.76666 0.75725 0.60862 0.0
O270 O 0.72885 0.71904 0.59476 0.0
O271 O 0.72671 0.73165 0.57382 0.0
C272 C 0.72051 0.72498 0.58485 0.0
C273 C 0.77967 0.7689 0.56756 0.0
C274 C 0.75462 0.7506 0.60725 0.0
C275 C 0.77778 0.71955 0.58009 0.0
O276 O 0.78238 0.73239 0.58331 0.0
O277 O 0.76408 0.71639 0.57956 0.0
O278 O 0.78944 0.76816 0.57787 0.0
O279 O 0.76714 0.76268 0.56991 0.0
O280 O 0.13452 0.99981 0.38684 0.0
Cd281 Cd 0.13929 0.99541 0.36541 0.0
Cd282 Cd 0.13445 0.02731 0.385 0.0
O283 O 0.14358 0.0148 0.40216 0.0
O284 O 0.1453 0.9744 0.36275 0.0
O285 O 0.12316 0.98307 0.35712 0.0
C286 C 0.13187 0.97185 0.35907 0.0
C287 C 0.11083 0.03334 0.3776 0.0
C288 C 0.14414 1.00208 0.39655 0.0
C289 C 0.15297 0.02591 0.3564 0.0
O290 O 0.14914 0.03209 0.36843 0.0
O291 O 0.14924 0.01271 0.35302 0.0
O292 O 0.11809 0.04217 0.38596 0.0
O293 O 0.1163 0.02037 0.3752 0.0
O294 O 0.2603 0.84753 0.51347 0.0
Cd295 Cd 0.25257 0.86748 0.52011 0.0
Cd296 Cd 0.28599 0.84616 0.52227 0.0
O297 O 0.27906 0.84031 0.50123 0.0
O298 O 0.23716 0.87564 0.50691 0.0
O299 O 0.23214 0.86542 0.52858 0.0
C300 C 0.22753 0.87056 0.51606 0.0
C301 C 0.28904 0.83325 0.54403 0.0
C302 C 0.26613 0.84548 0.50093 0.0
C303 C 0.28318 0.88084 0.52698 0.0
O304 O 0.28973 0.86842 0.52539 0.0
O305 O 0.26917 0.88243 0.52592 0.0
O306 O 0.29959 0.83392 0.53442 0.0
O307 O 0.2762 0.83818 0.54023 0.0
O308 O 0.99563 0.51479 0.26432 0.0
Cd309 Cd 0.97386 0.51099 0.26665 0.0
Cd310 Cd 0.99731 0.54162 0.26992 0.0
O311 O 1.00575 0.53136 0.25104 0.0
O312 O 0.96669 0.49465 0.25403 0.0
O313 O 0.97167 0.49196 0.27785 0.0
C314 C 0.96855 0.48604 0.26532 0.0
C315 C 1.00644 0.54217 0.29382 0.0
C316 C 1.00096 0.51835 0.25193 0.0
C317 C 0.96284 0.54408 0.26892 0.0
O318 O 0.97582 0.54932 0.26888 0.0
O319 O 0.96032 0.53012 0.2687 0.0
O320 O 0.00958 0.55251 0.28441 0.0
O321 O 0.99942 0.53085 0.28911 0.0
O322 O 0.59193 0.60713 0.75144 0.0
Cd323 Cd 0.61132 0.6167 0.75703 0.0
Cd324 Cd 0.58994 0.58202 0.7628 0.0
O325 O 0.58349 0.58758 0.74157 0.0
O326 O 0.61629 0.63419 0.74445 0.0
O327 O 0.60743 0.63612 0.76714 0.0
C328 C 0.61095 0.64242 0.75477 0.0
C329 C 0.57828 0.57254 0.7833 0.0
C330 C 0.59045 0.5995 0.73988 0.0
C331 C 0.62539 0.58745 0.7657 0.0
O332 O 0.61245 0.58229 0.76526 0.0
O333 O 0.62781 0.60121 0.7633 0.0
O334 O 0.58216 0.56404 0.7725 0.0
O335 O 0.5794 0.58668 0.78148 0.0
O336 O 0.50275 0.87768 0.69026 0.0
Cd337 Cd 0.50287 0.86845 0.71121 0.0
Cd338 Cd 0.48318 0.85353 0.6978 0.0
O339 O 0.48001 0.87199 0.68463 0.0
O340 O 0.50988 0.88362 0.72598 0.0
O341 O 0.48679 0.8769 0.72412 0.0
C342 C 0.49635 0.88535 0.73004 0.0
C343 C 0.47259 0.83899 0.7155 0.0
C344 C 0.49179 0.87895 0.68165 0.0
C345 C 0.51076 0.83851 0.70094 0.0
O346 O 0.50116 0.84196 0.69143 0.0
O347 O 0.51223 0.84671 0.71228 0.0
O348 O 0.46878 0.83749 0.70183 0.0
O349 O 0.47957 0.85073 0.71905 0.0
O350 O 0.49019 0.24848 0.94055 0.0
Cd351 Cd 0.49901 0.25373 0.9607 0.0
Cd352 Cd 0.51634 0.2325 0.95123 0.0
O353 O 0.49873 0.22571 0.93873 0.0
O354 O 0.48283 0.26373 0.97249 0.0
O355 O 0.49099 0.24119 0.97721 0.0
C356 C 0.4816 0.25155 0.97989 0.0
C357 C 0.52948 0.22629 0.97198 0.0
C358 C 0.49025 0.23605 0.93413 0.0
C359 C 0.52855 0.26148 0.94934 0.0
O360 O 0.52677 0.24986 0.94191 0.0
O361 O 0.51961 0.26452 0.95986 0.0
O362 O 0.53277 0.22011 0.95952 0.0
O363 O 0.51725 0.23352 0.97287 0.0
O364 O 0.1062 0.28015 0.23631 0.0
Cd365 Cd 0.08754 0.27313 0.22647 0.0
Cd366 Cd 0.07724 0.29039 0.24617 0.0
O367 O 0.09384 0.27744 0.25657 0.0
O368 O 0.09117 0.25297 0.21809 0.0
O369 O 0.07712 0.25702 0.23768 0.0
C370 C 0.08352 0.24773 0.22896 0.0
C371 C 0.05212 0.28939 0.25079 0.0
C372 C 0.10606 0.27643 0.24976 0.0
C373 C 0.07935 0.30207 0.21574 0.0
O374 O 0.08124 0.30567 0.22915 0.0
O375 O 0.07891 0.28851 0.21229 0.0
O376 O 0.06047 0.29772 0.25856 0.0
O377 O 0.05832 0.28057 0.24148 0.0
O378 O 0.10644 0.87392 0.46278 0.0
Cd379 Cd 0.10871 0.8517 0.46135 0.0
Cd380 Cd 0.07859 0.87331 0.46164 0.0
O381 O 0.09238 0.88783 0.45026 0.0
O382 O 0.12968 0.84717 0.45715 0.0
O383 O 0.11933 0.84432 0.47922 0.0
C384 C 0.13111 0.84482 0.47118 0.0
C385 C 0.07301 0.86921 0.48632 0.0
C386 C 0.10475 0.88142 0.45114 0.0
C387 C 0.07882 0.84334 0.44614 0.0
O388 O 0.07267 0.85565 0.4491 0.0
O389 O 0.09187 0.83986 0.45043 0.0
O390 O 0.0644 0.87725 0.47817 0.0
O391 O 0.0855 0.86513 0.48085 0.0
O392 O 0.52861 0.24983 0.85094 0.0
Cd393 Cd 0.52869 0.24399 0.87269 0.0
Cd394 Cd 0.53735 0.27556 0.84945 0.0
O395 O 0.51972 0.26728 0.8377 0.0
O396 O 0.51429 0.22851 0.87803 0.0
O397 O 0.53798 0.22372 0.87509 0.0
C398 C 0.52479 0.21895 0.87708 0.0
C399 C 0.56127 0.28093 0.84302 0.0
C400 C 0.51748 0.25527 0.84449 0.0
C401 C 0.53007 0.27595 0.88428 0.0
O402 O 0.53271 0.28068 0.87122 0.0
O403 O 0.52892 0.26212 0.8873 0.0
O404 O 0.55076 0.29035 0.84054 0.0
O405 O 0.55782 0.26782 0.84756 0.0
O406 O 0.12256 0.24418 0.17461 0.0
Cd407 Cd 0.11388 0.2539 0.15584 0.0
Cd408 Cd 0.09415 0.23301 0.1637 0.0
O409 O 0.11042 0.22331 0.17647 0.0
O410 O 0.13093 0.26548 0.14768 0.0
O411 O 0.12199 0.24604 0.13654 0.0
C412 C 0.13199 0.25592 0.13724 0.0
C413 C 0.08443 0.2289 0.1406 0.0
C414 C 0.12077 0.23162 0.18068 0.0
C415 C 0.08448 0.26356 0.16789 0.0
O416 O 0.08394 0.25065 0.17337 0.0
O417 O 0.09458 0.2669 0.15861 0.0
O418 O 0.07884 0.22233 0.15202 0.0
O419 O 0.0965 0.23593 0.14229 0.0
O420 O 0.10909 0.83742 0.35894 0.0
Cd421 Cd 0.0962 0.84369 0.37622 0.0
Cd422 Cd 0.10218 0.81082 0.35879 0.0
O423 O 0.12348 0.819 0.35674 0.0
O424 O 0.10524 0.86124 0.38496 0.0
O425 O 0.08512 0.86295 0.37173 0.0
C426 C 0.09569 0.86946 0.37845 0.0
C427 C 0.08176 0.80925 0.34393 0.0
C428 C 0.12179 0.8321 0.36116 0.0
C429 C 0.09273 0.81247 0.39164 0.0
O430 O 0.09686 0.80555 0.38012 0.0
O431 O 0.09138 0.82664 0.39197 0.0
O432 O 0.09139 0.79862 0.34432 0.0
O433 O 0.08488 0.82149 0.35039 0.0
O434 O 0.50191 0.83944 0.59876 0.0
Cd435 Cd 0.49434 0.84216 0.61982 0.0
Cd436 Cd 0.5258 0.82596 0.60046 0.0
O437 O 0.52143 0.84362 0.58635 0.0
O438 O 0.48063 0.85919 0.62094 0.0
O439 O 0.47302 0.83619 0.62229 0.0
C440 C 0.46987 0.85011 0.62121 0.0
C441 C 0.53108 0.80139 0.59611 0.0
C442 C 0.50995 0.84887 0.5923 0.0
C443 C 0.5244 0.83744 0.63429 0.0
O444 O 0.52915 0.83223 0.62209 0.0
O445 O 0.51094 0.84143 0.63607 0.0
O446 O 0.541 0.81137 0.59435 0.0
O447 O 0.51774 0.80564 0.59892 0.0
O448 O 0.71048 0.49487 0.83591 0.0
Cd449 Cd 0.71174 0.51637 0.8416 0.0
Cd450 Cd 0.73124 0.51418 0.82141 0.0
O451 O 0.73418 0.49571 0.83595 0.0
O452 O 0.70664 0.51879 0.86326 0.0
O453 O 0.72914 0.5209 0.85433 0.0
C454 C 0.72053 0.52035 0.86567 0.0
C455 C 0.74473 0.53594 0.81992 0.0
C456 C 0.72252 0.48854 0.83881 0.0
C457 C 0.70247 0.52534 0.81236 0.0
O458 O 0.71266 0.51657 0.80817 0.0
O459 O 0.7017 0.52923 0.82582 0.0
O460 O 0.74838 0.52466 0.812 0.0
O461 O 0.73451 0.53423 0.82964 0.0
O462 O 0.85689 0.48265 0.07994 0.0
Cd463 Cd 0.83738 0.47392 0.08629 0.0
Cd464 Cd 0.82866 0.49357 0.06756 0.0
O465 O 0.84532 0.50367 0.08016 0.0
O466 O 0.83897 0.46613 0.1071 0.0
O467 O 0.82641 0.48633 0.10118 0.0
C468 C 0.83157 0.47762 0.11129 0.0
C469 C 0.80395 0.50025 0.06691 0.0
C470 C 0.85714 0.49636 0.08229 0.0
C471 C 0.82992 0.46271 0.05731 0.0
O472 O 0.83223 0.47594 0.05314 0.0
O473 O 0.82932 0.45962 0.07102 0.0
O474 O 0.81345 0.50689 0.05862 0.0
O475 O 0.8088 0.49095 0.07664 0.0
O476 O 0.84147 0.58864 0.34102 0.0
Cd477 Cd 0.86235 0.58944 0.34896 0.0
Cd478 Cd 0.84241 0.5765 0.31636 0.0
O479 O 0.83008 0.59519 0.32146 0.0
O480 O 0.86438 0.60535 0.36375 0.0
O481 O 0.86389 0.58183 0.3701 0.0
C482 C 0.86376 0.59552 0.37405 0.0
C483 C 0.83545 0.55295 0.31001 0.0
C484 C 0.83593 0.59908 0.3334 0.0
C485 C 0.87711 0.58405 0.31869 0.0
O486 O 0.86467 0.58032 0.31354 0.0
O487 O 0.87876 0.58763 0.33229 0.0
O488 O 0.83515 0.56361 0.30042 0.0
O489 O 0.83835 0.55607 0.3236 0.0
O490 O 0.75623 0.64947 0.61376 0.0
Cd491 Cd 0.76785 0.6318 0.60555 0.0
Cd492 Cd 0.74466 0.63465 0.5878 0.0
O493 O 0.73407 0.6456 0.6049 0.0
O494 O 0.78053 0.62492 0.62268 0.0
O495 O 0.76144 0.61258 0.61473 0.0
C496 C 0.77145 0.61418 0.62453 0.0
C497 C 0.74653 0.61219 0.57619 0.0
C498 C 0.74257 0.6525 0.61355 0.0
C499 C 0.77209 0.64446 0.57549 0.0
O500 O 0.75875 0.64816 0.57716 0.0
O501 O 0.77813 0.63542 0.58462 0.0
O502 O 0.73673 0.62171 0.57179 0.0
O503 O 0.75287 0.61452 0.58859 0.0
O504 O 0.69666 0.59748 0.73159 0.0
Cd505 Cd 0.71632 0.59075 0.7408 0.0
Cd506 Cd 0.70947 0.61605 0.7544 0.0
O507 O 0.69655 0.62135 0.73639 0.0
O508 O 0.72606 0.57681 0.72609 0.0
O509 O 0.73384 0.59931 0.73025 0.0
C510 C 0.73483 0.58743 0.72264 0.0
C511 C 0.73147 0.6204 0.76559 0.0
C512 C 0.69106 0.61031 0.72982 0.0
C513 C 0.70516 0.58946 0.7716 0.0
O514 O 0.69917 0.60155 0.76776 0.0
O515 O 0.71494 0.58354 0.76326 0.0
O516 O 0.72027 0.62879 0.76869 0.0
O517 O 0.73064 0.61215 0.75414 0.0
O518 O 0.75449 0.44149 0.97489 0.0
Cd519 Cd 0.7557 0.46299 0.98241 0.0
Cd520 Cd 0.73455 0.45207 0.99737 0.0
O521 O 0.73114 0.43786 0.9801 0.0
O522 O 0.76483 0.47597 0.96649 0.0
O523 O 0.74125 0.47653 0.97201 0.0
C524 C 0.7518 0.48097 0.96362 0.0
C525 C 0.72504 0.47132 1.01046 0.0
C526 C 0.74305 0.43359 0.9739 0.0
C527 C 0.76127 0.45415 0.01327 0.0
O528 O 0.7515 0.44498 1.00986 0.0
O529 O 0.76385 0.46493 1.00445 0.0
O530 O 0.72009 0.45813 0.01284 0.0
O531 O 0.73243 0.47366 0.99849 0.0
O532 O 0.91049 0.4966 0.21804 0.0
Cd533 Cd 0.89038 0.50321 0.22631 0.0
Cd534 Cd 0.8986 0.48097 0.24403 0.0
O535 O 0.91183 0.47384 0.22681 0.0
O536 O 0.87922 0.51408 0.20994 0.0
O537 O 0.87349 0.49182 0.21775 0.0
C538 C 0.87126 0.50245 0.20852 0.0
C539 C 0.87664 0.47609 0.2558 0.0
C540 C 0.917 0.4841 0.21862 0.0
C541 C 0.90217 0.51006 0.25618 0.0
O542 O 0.90835 0.49757 0.25476 0.0
O543 O 0.89202 0.51406 0.24718 0.0
O544 O 0.88843 0.46909 0.25991 0.0
O545 O 0.87721 0.48377 0.2438 0.0
O546 O 0.86792 0.64289 0.50521 0.0
Cd547 Cd 0.84658 0.63845 0.50137 0.0
Cd548 Cd 0.85374 0.61886 0.52012 0.0
O549 O 0.87077 0.61922 0.50378 0.0
O550 O 0.84137 0.64367 0.48023 0.0
O551 O 0.84393 0.62075 0.4884 0.0
C552 C 0.842 0.62968 0.47743 0.0
C553 C 0.83354 0.60323 0.52287 0.0
C554 C 0.87572 0.63209 0.50111 0.0
C555 C 0.84018 0.64567 0.53148 0.0
O556 O 0.85083 0.63682 0.53403 0.0
O557 O 0.83414 0.64593 0.51881 0.0
O558 O 0.84569 0.6003 0.52967 0.0
O559 O 0.8335 0.61399 0.51353 0.0
O560 O 0.85245 0.71795 0.46595 0.0
Cd561 Cd 0.85764 0.71169 0.48687 0.0
Cd562 Cd 0.82503 0.71675 0.4683 0.0
O563 O 0.83753 0.70891 0.45053 0.0
O564 O 0.87893 0.7074 0.48969 0.0
O565 O 0.86817 0.72839 0.49633 0.0
C566 C 0.8801 0.7208 0.49429 0.0
C567 C 0.81781 0.74011 0.47578 0.0
C568 C 0.8505 0.70913 0.45541 0.0
C569 C 0.8281 0.69669 0.49614 0.0
O570 O 0.82118 0.70146 0.48483 0.0
O571 O 0.84142 0.70015 0.49895 0.0
O572 O 0.80932 0.73231 0.46757 0.0
O573 O 0.83102 0.73532 0.47805 0.0
O574 O 0.34948 0.9048 0.62939 0.0
Cd575 Cd 0.34881 0.90368 0.607 0.0
Cd576 Cd 0.32115 0.90456 0.6306 0.0
O577 O 0.33534 0.91799 0.64249 0.0
O578 O 0.36899 0.90673 0.59923 0.0
O579 O 0.35855 0.88476 0.60126 0.0
C580 C 0.37023 0.89248 0.59898 0.0
C581 C 0.31831 0.87917 0.62856 0.0
C582 C 0.34745 0.917 0.63564 0.0
C583 C 0.31712 0.91657 0.59951 0.0
O584 O 0.31232 0.9152 0.61267 0.0
O585 O 0.33002 0.91215 0.59554 0.0
O586 O 0.30951 0.88678 0.63687 0.0
O587 O 0.32953 0.88574 0.62295 0.0
O588 O 0.43349 0.11896 0.85762 0.0
Cd589 Cd 0.45345 0.10859 0.85465 0.0
Cd590 Cd 0.44105 0.09295 0.87728 0.0
O591 O 0.42852 0.11192 0.88051 0.0
O592 O 0.46741 0.12297 0.84434 0.0
O593 O 0.46884 0.11714 0.86791 0.0
C594 C 0.47343 0.12505 0.85703 0.0
C595 C 0.46198 0.0816 0.88642 0.0
C596 C 0.42561 0.11996 0.86922 0.0
C597 C 0.44128 0.07839 0.84891 0.0
O598 O 0.43355 0.08088 0.86031 0.0
O599 O 0.45199 0.08691 0.8456 0.0
O600 O 0.44936 0.07828 0.89213 0.0
O601 O 0.46249 0.09257 0.87739 0.0
O602 O 0.26194 0.25542 0.09373 0.0
Cd603 Cd 0.25434 0.23539 0.08766 0.0
Cd604 Cd 0.28752 0.25756 0.08418 0.0
O605 O 0.28063 0.26333 0.10525 0.0
O606 O 0.23904 0.22824 0.10151 0.0
O607 O 0.23387 0.23657 0.07911 0.0
C608 C 0.2293 0.2323 0.09198 0.0
C609 C 0.29397 0.27154 0.06392 0.0
C610 C 0.2682 0.2573 0.10601 0.0
C611 C 0.28494 0.22238 0.07991 0.0
O612 O 0.29075 0.23512 0.08073 0.0
O613 O 0.27116 0.22024 0.08198 0.0
O614 O 0.30332 0.26891 0.07436 0.0
O615 O 0.28046 0.26768 0.06599 0.0
O616 O 0.64085 0.50142 0.88091 0.0
Cd617 Cd 0.64668 0.50098 0.8591 0.0
Cd618 Cd 0.64055 0.5297 0.88101 0.0
O619 O 0.65003 0.51566 0.89689 0.0
O620 O 0.65271 0.48084 0.8526 0.0
O621 O 0.63058 0.49053 0.84876 0.0
C622 C 0.63923 0.47911 0.84862 0.0
C623 C 0.61664 0.53341 0.87266 0.0
C624 C 0.64993 0.50294 0.89124 0.0
C625 C 0.65953 0.53283 0.85354 0.0
O626 O 0.65532 0.53788 0.86596 0.0
O627 O 0.65634 0.51982 0.84913 0.0
O628 O 0.62215 0.54211 0.8824 0.0
O629 O 0.6241 0.52181 0.86908 0.0
O630 O 0.75341 0.34488 0.01437 0.0
Cd631 Cd 0.74487 0.36576 0.01405 0.0
Cd632 Cd 0.77758 0.34567 0.02688 0.0
O633 O 0.77317 0.3337 1.00799 0.0
O634 O 0.73003 0.36854 0.99818 0.0
O635 O 0.7239 0.36596 0.02166 0.0
C636 C 0.71992 0.36666 1.00798 0.0
C637 C 0.78316 0.33923 0.0509 0.0
C638 C 0.76133 0.33988 1.00397 0.0
C639 C 0.77462 0.38058 0.01921 0.0
O640 O 0.77996 0.36797 0.02273 0.0
O641 O 0.76094 0.38243 0.0162 0.0
O642 O 0.79309 0.33871 0.04064 0.0
O643 O 0.76968 0.34175 0.04707 0.0
O644 O 0.49778 1.00835 0.78052 0.0
Cd645 Cd 0.47579 1.00507 0.78077 0.0
Cd646 Cd 0.49997 0.0349 0.78656 0.0
O647 O 0.51 0.02448 0.76858 0.0
O648 O 0.46942 0.98961 0.76675 0.0
O649 O 0.47201 0.98559 0.79077 0.0
C650 C 0.46988 0.98043 0.77771 0.0
C651 C 0.50692 0.0355 0.81118 0.0
C652 C 0.5045 1.01174 0.76876 0.0
C653 C 0.46569 0.03838 0.78245 0.0
O654 O 0.47884 0.04307 0.78345 0.0
O655 O 0.46265 0.02454 0.78203 0.0
O656 O 0.51108 0.04568 0.80202 0.0
O657 O 0.50011 0.02428 0.80595 0.0
O658 O 0.09073 0.10855 0.25459 0.0
Cd659 Cd 0.11035 0.11795 0.25967 0.0
Cd660 Cd 0.08896 0.08365 0.26653 0.0
O661 O 0.08222 0.08877 0.24528 0.0
O662 O 0.11531 0.13523 0.24682 0.0
O663 O 0.10689 0.13757 0.26962 0.0
C664 C 0.11028 0.14367 0.25711 0.0
C665 C 0.0771 0.07469 0.28719 0.0
C666 C 0.08909 0.10068 0.24322 0.0
C667 C 0.12448 0.0887 0.26867 0.0
O668 O 0.11154 0.08347 0.26871 0.0
O669 O 0.12687 0.10234 0.26566 0.0
O670 O 0.08086 0.06596 0.27654 0.0
O671 O 0.07858 0.08877 0.2852 0.0
H672 H 0.97412 0.31078 0.20751 0.0
H673 H 0.0355 0.30772 0.26826 0.0
H674 H 0.97868 0.34272 0.24209 0.0
H675 H 0.032 0.27684 0.23252 0.0
H676 H 0.01043 0.31613 0.26341 0.0
H677 H 0.98998 0.29381 0.22125 0.0
C678 C 0.97785 0.31398 0.21833 0.0
C679 C 0.97537 0.32837 0.22347 0.0
C680 C 0.01501 0.30727 0.25684 0.0
C681 C 0.99393 0.30914 0.23906 0.0
C682 C 0.02934 0.30243 0.25964 0.0
C683 C 0.03599 0.29174 0.25062 0.0
C684 C 1.0073 0.30152 0.24483 0.0
C685 C 0.0274 0.28523 0.23967 0.0
C686 C 0.98714 0.30434 0.22609 0.0
C687 C 0.98054 0.33184 0.23757 0.0
N688 N 0.01363 0.29043 0.23688 0.0
N689 N 0.98992 0.32248 0.24468 0.0
H690 H 0.08899 0.85419 0.50713 0.0
H691 H 0.02005 0.80533 0.52247 0.0
H692 H 0.04463 0.86705 0.49625 0.0
H693 H 0.06458 0.79239 0.53259 0.0
H694 H 0.02783 0.83094 0.52052 0.0
H695 H 0.07944 0.83535 0.52384 0.0
C696 C 0.07722 0.85338 0.50861 0.0
C697 C 0.0676 0.86198 0.49999 0.0
C698 C 0.03584 0.82256 0.52356 0.0
C699 C 0.05657 0.8401 0.51882 0.0
C700 C 0.03138 0.8079 0.52477 0.0
C701 C 0.04176 0.7966 0.52726 0.0
C702 C 0.05081 0.82592 0.52473 0.0
C703 C 0.05624 0.80068 0.53033 0.0
C704 C 0.07176 0.84253 0.51811 0.0
C705 C 0.05247 0.86053 0.50251 0.0
N706 N 0.0604 0.81495 0.5286 0.0
N707 N 0.04742 0.84951 0.51139 0.0
H708 H 0.53257 0.77235 0.73328 0.0
H709 H 0.47314 0.8099 0.7076 0.0
H710 H 0.53406 0.80552 0.76704 0.0
H711 H 0.47795 0.83823 0.74515 0.0
H712 H 0.48869 0.79163 0.71947 0.0
H713 H 0.50745 0.77954 0.72796 0.0
C714 C 0.52748 0.78097 0.73981 0.0
C715 C 0.53558 0.78854 0.75042 0.0
C716 C 0.48617 0.8016 0.72544 0.0
C717 C 0.50667 0.79732 0.74406 0.0
C718 C 0.47693 0.81202 0.71868 0.0
C719 C 0.47463 0.82587 0.72515 0.0
C720 C 0.49315 0.80511 0.73878 0.0
C721 C 0.47975 0.82785 0.73957 0.0
C722 C 0.51304 0.78523 0.73666 0.0
C723 C 0.52834 0.79951 0.7586 0.0
N724 N 0.48913 0.81782 0.74568 0.0
N725 N 0.51444 0.80374 0.75505 0.0
H726 H 0.52577 0.23405 1.0008 0.0
H727 H 0.59197 0.28746 0.98822 0.0
H728 H 0.55909 0.2279 0.96746 0.0
H729 H 0.55817 0.29359 0.02117 0.0
H730 H 0.58442 0.26189 0.98549 0.0
H731 H 0.54186 0.25098 0.01358 0.0
C732 C 0.53674 0.23574 0.99651 0.0
C733 C 0.54094 0.2298 0.98285 0.0
C734 C 0.57888 0.2687 0.99359 0.0
C735 C 0.55923 0.24966 0.99711 0.0
C736 C 0.58322 0.28333 0.9952 0.0
C737 C 0.57551 0.29281 1.00474 0.0
C738 C 0.56665 0.26351 1.00149 0.0
C739 C 0.56431 0.28677 0.01352 0.0
C740 C 0.54588 0.24559 1.00372 0.0
C741 C 0.55532 0.23234 0.97787 0.0
N742 N 0.56003 0.27261 1.01147 0.0
N743 N 0.56377 0.24246 0.98473 0.0
H744 H 1.00745 0.75616 0.33895 0.0
H745 H 0.05724 0.82641 0.34847 0.0
H746 H 0.99693 0.79259 0.36748 0.0
H747 H 0.07128 0.78523 0.3292 0.0
H748 H 0.03184 0.81811 0.34758 0.0
H749 H 0.02653 0.77093 0.32722 0.0
C750 C 1.00868 0.76752 0.34229 0.0
C751 C 1.00076 0.77304 0.35442 0.0
C752 C 0.04044 0.81106 0.34318 0.0
C753 C 0.02294 0.78986 0.34135 0.0
C754 C 0.05498 0.81581 0.34359 0.0
C755 C 0.06649 0.80638 0.33915 0.0
C756 C 0.03737 0.7968 0.33822 0.0
C757 C 0.06281 0.7928 0.33293 0.0
C758 C 0.01974 0.77589 0.33571 0.0
C759 C 1.00283 0.78784 0.35824 0.0
N760 N 0.04861 0.78831 0.33289 0.0
N761 N 0.01402 0.79561 0.35203 0.0
H762 H 0.55044 0.72694 0.64733 0.0
H763 H 0.55631 0.78814 0.58616 0.0
H764 H 0.58802 0.73238 0.61882 0.0
H765 H 0.51612 0.77891 0.60962 0.0
H766 H 0.56609 0.76421 0.59404 0.0
H767 H 0.5357 0.74156 0.62997 0.0
C768 C 0.55544 0.73063 0.63711 0.0
C769 C 0.57055 0.72866 0.63464 0.0
C770 C 0.555 0.76723 0.59722 0.0
C771 C 0.55388 0.7458 0.61497 0.0
C772 C 0.5494 0.78091 0.59268 0.0
C773 C 0.53546 0.78564 0.59741 0.0
C774 C 0.54675 0.75831 0.60687 0.0
C775 C 0.52697 0.77576 0.60578 0.0
C776 C 0.54705 0.73917 0.62726 0.0
C777 C 0.57645 0.73383 0.62126 0.0
N778 N 0.53287 0.76272 0.61055 0.0
N779 N 0.56822 0.74245 0.61212 0.0
H780 H 0.62677 0.34225 0.86205 0.0
H781 H 0.5852 0.26638 0.85453 0.0
H782 H 0.63578 0.30384 0.88896 0.0
H783 H 0.57249 0.3071 0.83296 0.0
H784 H 0.60853 0.27749 0.86128 0.0
H785 H 0.61247 0.32707 0.84545 0.0
C786 C 0.62619 0.3305 0.86418 0.0
C787 C 0.63229 0.32436 0.87706 0.0
C788 C 0.60079 0.28388 0.85476 0.0
C789 C 0.61551 0.30696 0.85832 0.0
C790 C 0.58747 0.27751 0.85081 0.0
C791 C 0.57672 0.28591 0.84339 0.0
C792 C 0.6034 0.29874 0.85123 0.0
C793 C 0.58034 0.30027 0.83887 0.0
C794 C 0.61789 0.32184 0.85476 0.0
C795 C 0.63121 0.30905 0.87921 0.0
N796 N 0.59325 0.30629 0.84307 0.0
N797 N 0.62264 0.30094 0.87015 0.0
H798 H 0.01982 0.28032 0.10096 0.0
H799 H 0.09457 0.23731 0.11348 0.0
H800 H 0.06144 0.29223 0.08165 0.0
H801 H 0.05458 0.22824 0.13733 0.0
H802 H 0.0805 0.25162 0.09547 0.0
H803 H 0.03026 0.25634 0.108 0.0
C804 C 0.03103 0.27775 0.0978 0.0
C805 C 0.03986 0.28844 0.09098 0.0
C806 C 0.07471 0.24617 0.1044 0.0
C807 C 0.05192 0.26105 0.09915 0.0
C808 C 0.08274 0.23786 0.11463 0.0
C809 C 0.07578 0.23183 0.12711 0.0
C810 C 0.05965 0.24864 0.10677 0.0
C811 C 0.06042 0.23282 0.12796 0.0
C812 C 0.037 0.26405 0.10189 0.0
C813 C 0.05429 0.28443 0.08712 0.0
N814 N 0.0529 0.24145 0.11817 0.0
N815 N 0.05993 0.27118 0.0915 0.0
H816 H 0.22663 0.12302 0.30501 0.0
H817 H 0.26249 0.04474 0.30118 0.0
H818 H 0.25432 0.10828 0.26926 0.0
H819 H 0.23718 0.06092 0.3381 0.0
H820 H 0.26605 0.07018 0.29286 0.0
H821 H 0.23729 0.10389 0.32079 0.0
C822 C 0.2355 0.11627 0.30066 0.0
C823 C 0.23921 0.11691 0.28563 0.0
C824 C 0.26004 0.0682 0.303 0.0
C825 C 0.25106 0.09458 0.30347 0.0
C826 C 0.25805 0.05364 0.30779 0.0
C827 C 0.24924 0.05066 0.32017 0.0
C828 C 0.25303 0.07983 0.31057 0.0
C829 C 0.24382 0.06267 0.32832 0.0
C830 C 0.24144 0.10512 0.30964 0.0
C831 C 0.25085 0.1079 0.2807 0.0
N832 N 0.24552 0.07668 0.32321 0.0
N833 N 0.25598 0.09675 0.28942 0.0
H834 H 0.2959 0.02873 0.53565 0.0
H835 H 0.22683 0.9795 0.54261 0.0
H836 H 0.28297 1.00803 0.57662 0.0
H837 H 0.2347 1.00865 0.5057 0.0
H838 H 0.24376 0.99391 0.55736 0.0
H839 H 0.27099 0.02577 0.52649 0.0
C840 C 0.28771 0.02395 0.54289 0.0
C841 C 0.29161 0.01845 0.55685 0.0
C842 C 0.24141 0.9975 0.54619 0.0
C843 C 0.26308 0.01458 0.54625 0.0
C844 C 0.23153 0.98937 0.53781 0.0
C845 C 0.22954 0.99271 0.5228 0.0
C846 C 0.24939 1.00895 0.53945 0.0
C847 C 0.23608 1.00555 0.51717 0.0
C848 C 0.27345 0.0222 0.53763 0.0
C849 C 0.2805 0.01237 0.56575 0.0
N850 N 0.24602 0.01294 0.52534 0.0
N851 N 0.26685 1.01025 0.56017 0.0
H852 H 0.37683 0.97275 0.7992 0.0
H853 H 0.32513 0.04176 0.79166 0.0
H854 H 0.35341 0.98454 0.75957 0.0
H855 H 0.34452 0.0277 0.83279 0.0
H856 H 0.33009 0.01735 0.78156 0.0
H857 H 0.35995 0.98831 0.81337 0.0
C858 C 0.36773 0.97805 0.79356 0.0
C859 C 0.36673 0.9776 0.77812 0.0
C860 C 0.33297 0.01944 0.79292 0.0
C861 C 0.34766 0.99584 0.79419 0.0
C862 C 0.3301 0.03341 0.7987 0.0
C863 C 0.33466 0.03688 0.813 0.0
C864 C 0.34076 1.00893 0.80137 0.0
C865 C 0.34094 0.02557 0.82165 0.0
C866 C 0.35818 0.98713 0.80164 0.0
C867 C 0.35474 0.98478 0.77143 0.0
N868 N 0.34414 0.01222 0.81559 0.0
N869 N 0.34593 0.99391 0.77942 0.0
H870 H 0.2535 0.08981 0.10075 0.0
H871 H 0.30611 0.09379 0.0313 0.0
H872 H 0.24465 0.11556 0.06159 0.0
H873 H 0.31815 0.07695 0.07425 0.0
H874 H 0.28034 0.09361 0.03886 0.0
H875 H 0.27284 0.07656 0.08747 0.0
C876 C 0.25512 0.09218 0.08912 0.0
C877 C 0.24766 0.10405 0.08238 0.0
C878 C 0.28858 0.08957 0.04649 0.0
C879 C 0.27014 0.08926 0.06725 0.0
C880 C 0.30333 0.08959 0.04216 0.0
C881 C 0.31438 0.08564 0.05226 0.0
C882 C 0.28483 0.08552 0.061 0.0
C883 C 0.31005 0.08029 0.06616 0.0
C884 C 0.26634 0.08475 0.0816 0.0
C885 C 0.25021 0.1066 0.06729 0.0
N886 N 0.29565 0.08063 0.07021 0.0
N887 N 0.26156 0.0996 0.06035 0.0
H888 H 0.32164 0.27982 0.05556 0.0
H889 H 0.30656 0.24494 0.97832 0.0
H890 H 0.27854 0.27196 0.03804 0.0
H891 H 0.34945 0.25069 0.99718 0.0
H892 H 0.29655 0.26271 0.99591 0.0
H893 H 0.33188 0.27753 0.03077 0.0
C894 C 0.31425 0.27807 0.04644 0.0
C895 C 0.29926 0.27561 0.04897 0.0
C896 C 0.30823 0.26041 0.99593 0.0
C897 C 0.31098 0.27261 0.02058 0.0
C898 C 0.31399 0.25033 0.98579 0.0
C899 C 0.3288 0.24599 0.98656 0.0
C900 C 0.31734 0.26611 1.00693 0.0
C901 C 0.33789 0.25344 0.99642 0.0
C902 C 0.32013 0.27668 0.03226 0.0
C903 C 0.29021 0.27362 0.03668 0.0
N904 N 0.33196 0.26285 1.00645 0.0
N905 N 0.29626 0.27175 0.02307 0.0
H906 H 0.76657 0.34782 0.07474 0.0
H907 H 0.83909 0.36516 0.11878 0.0
H908 H 0.80997 0.33249 0.06286 0.0
H909 H 0.79714 0.3857 0.12766 0.0
H910 H 0.82693 0.34685 0.10369 0.0
H911 H 0.77594 0.35539 0.09872 0.0
C912 C 0.77797 0.34562 0.07732 0.0
C913 C 0.78756 0.33975 0.06663 0.0
C914 C 0.82029 0.3551 0.10924 0.0
C915 C 0.79838 0.34856 0.09404 0.0
C916 C 0.82723 0.36549 0.11799 0.0
C917 C 0.81914 0.37711 0.12431 0.0
C918 C 0.80517 0.35644 0.1066 0.0
C919 C 0.80381 0.37697 0.12295 0.0
C920 C 0.78333 0.35004 0.09101 0.0
C921 C 0.80222 0.33717 0.07065 0.0
N922 N 0.79735 0.36703 0.11392 0.0
N923 N 0.80722 0.34181 0.08391 0.0
H924 H 0.01982 0.56513 0.3078 0.0
H925 H 0.96475 0.55451 0.37229 0.0
H926 H 0.99656 0.52478 0.31655 0.0
H927 H 0.99069 0.59344 0.36552 0.0
H928 H 0.98252 0.54042 0.35776 0.0
H929 H 0.01567 0.57246 0.33332 0.0
C930 C 0.0142 0.55761 0.31518 0.0
C931 C 1.00818 0.54451 0.30988 0.0
C932 C 0.98467 0.55192 0.3599 0.0
C933 C 1.00304 0.553 0.3391 0.0
C934 C 0.97461 0.55994 0.36846 0.0
C935 C 0.97602 0.57527 0.36971 0.0
C936 C 0.99608 0.55937 0.35256 0.0
C937 C 0.98903 0.58168 0.3645 0.0
C938 C 0.01179 0.56182 0.3298 0.0
C939 C 1.00115 0.53513 0.32005 0.0
N940 N 0.9983 0.57383 0.35571 0.0
N941 N 0.99843 0.53973 0.33405 0.0
H942 H 0.78916 0.74946 0.47829 0.0
H943 H 0.80617 0.7794 0.55787 0.0
H944 H 0.83258 0.75807 0.49463 0.0
H945 H 0.76292 0.76851 0.54253 0.0
H946 H 0.81505 0.77898 0.53243 0.0
H947 H 0.77879 0.76349 0.49882 0.0
C948 C 0.79655 0.75468 0.48592 0.0
C949 C 0.81177 0.75228 0.4849 0.0
C950 C 0.80353 0.77703 0.53457 0.0
C951 C 0.79994 0.76814 0.50862 0.0
C952 C 0.79842 0.77737 0.54913 0.0
C953 C 0.78385 0.77362 0.55241 0.0
C954 C 0.79404 0.7728 0.52323 0.0
C955 C 0.77431 0.77121 0.54057 0.0
C956 C 0.79061 0.76263 0.49772 0.0
C957 C 0.82077 0.7594 0.49509 0.0
N958 N 0.77964 0.7705 0.52655 0.0
N959 N 0.81472 0.76673 0.50669 0.0
H960 H 0.07244 0.04584 0.29501 0.0
H961 H 0.09953 0.06152 0.37583 0.0
H962 H 0.07534 0.08943 0.31344 0.0
H963 H 0.09437 0.01796 0.35791 0.0
H964 H 0.08499 0.07162 0.35548 0.0
H965 H 0.07458 0.03533 0.31978 0.0
C966 C 0.07314 0.05324 0.3043 0.0
C967 C 0.074 0.06854 0.30208 0.0
C968 C 0.08673 0.05981 0.35618 0.0
C969 C 0.0768 0.05654 0.33052 0.0
C970 C 0.09497 0.054 0.36788 0.0
C971 C 0.09846 0.03889 0.36844 0.0
C972 C 0.08205 0.05044 0.34489 0.0
C973 C 0.09218 0.02971 0.35783 0.0
C974 C 0.07443 0.04721 0.31848 0.0
C975 C 0.07479 0.07756 0.31458 0.0
N976 N 0.08456 0.03567 0.34634 0.0
N977 N 0.07651 0.07141 0.32822 0.0
H978 H 0.29114 0.86645 0.62849 0.0
H979 H 0.31533 0.82498 0.55632 0.0
H980 H 0.33593 0.85903 0.61466 0.0
H981 H 0.2705 0.83567 0.56784 0.0
H982 H 0.32244 0.82936 0.5818 0.0
H983 H 0.28327 0.84764 0.61115 0.0
C984 C 0.29939 0.86048 0.62224 0.0
C985 C 0.31418 0.86458 0.62276 0.0
C986 C 0.31098 0.83038 0.57886 0.0
C987 C 0.30522 0.84326 0.60267 0.0
C988 C 0.30688 0.82778 0.56429 0.0
C989 C 0.29236 0.8304 0.5598 0.0
C990 C 0.30051 0.83577 0.58897 0.0
C991 C 0.28189 0.83383 0.57071 0.0
C992 C 0.29487 0.8498 0.61222 0.0
C993 C 0.32437 0.85643 0.61439 0.0
N994 N 0.28623 0.8368 0.58469 0.0
N995 N 0.31967 0.84641 0.60446 0.0
H996 H 0.57526 0.54342 0.791 0.0
H997 H 0.60249 0.56032 0.87172 0.0
H998 H 0.57607 0.58701 0.80968 0.0
H999 H 0.60192 0.51697 0.8525 0.0
H1000 H 0.58675 0.56937 0.85176 0.0
H1001 H 0.57864 0.5329 0.81561 0.0
C1002 C 0.57574 0.55079 0.80032 0.0
C1003 C 0.57568 0.56615 0.79819 0.0
C1004 C 0.58977 0.5578 0.8521 0.0
C1005 C 0.57992 0.55414 0.82645 0.0
C1006 C 0.5987 0.55259 0.86357 0.0
C1007 C 0.60378 0.53792 0.86364 0.0
C1008 C 0.58598 0.54828 0.84059 0.0
C1009 C 0.59847 0.52843 0.85278 0.0
C1010 C 0.57776 0.54476 0.8144 0.0
C1011 C 0.57624 0.57511 0.81074 0.0
N1012 N 0.59012 0.53383 0.84155 0.0
N1013 N 0.57867 0.56899 0.82428 0.0
H1014 H 0.7378 0.56174 0.83387 0.0
H1015 H 0.75805 0.60669 0.76196 0.0
H1016 H 0.76315 0.54458 0.79741 0.0
H1017 H 0.72795 0.62181 0.79554 0.0
H1018 H 0.76727 0.58787 0.77901 0.0
H1019 H 0.74094 0.58662 0.82402 0.0
C1020 C 0.74439 0.56321 0.82401 0.0
C1021 C 0.75001 0.55098 0.81632 0.0
C1022 C 0.75899 0.59561 0.78285 0.0
C1023 C 0.75351 0.57955 0.80488 0.0
C1024 C 0.75387 0.60654 0.77317 0.0
C1025 C 0.74191 0.6156 0.77717 0.0
C1026 C 0.7521 0.59374 0.79661 0.0
C1027 C 0.73702 0.61494 0.79187 0.0
C1028 C 0.74614 0.57746 0.81836 0.0
C1029 C 0.75849 0.55364 0.80363 0.0
N1030 N 0.74179 0.60386 0.80091 0.0
N1031 N 0.75975 0.5676 0.79816 0.0
H1032 H 0.73242 0.50046 1.0094 0.0
H1033 H 0.7815 0.48442 0.07931 0.0
H1034 H 0.72538 0.46449 0.03993 0.0
H1035 H 0.79015 0.51806 0.04658 0.0
H1036 H 0.75687 0.48168 0.0693 0.0
H1037 H 0.74841 0.51197 0.02735 0.0
C1038 C 0.73369 0.49529 0.02014 0.0
C1039 C 0.72782 0.48129 0.02299 0.0
C1040 C 0.76401 0.48993 0.06453 0.0
C1041 C 0.74657 0.49417 0.04342 0.0
C1042 C 0.77811 0.49154 0.07028 0.0
C1043 C 0.78804 0.50131 0.06361 0.0
C1044 C 0.7598 0.49815 0.05203 0.0
C1045 C 0.78296 0.51025 0.05196 0.0
C1046 C 0.74303 0.50178 0.03033 0.0
C1047 C 0.72981 0.47519 0.03714 0.0
N1048 N 0.7693 0.50828 0.04639 0.0
N1049 N 0.73939 0.48142 0.04665 0.0
H1050 H 0.84505 0.5281 0.32461 0.0
H1051 H 0.84876 0.48477 0.24901 0.0
H1052 H 0.82527 0.54251 0.28378 0.0
H1053 H 0.87701 0.4756 0.28602 0.0
H1054 H 0.83323 0.50007 0.26483 0.0
H1055 H 0.8501 0.50398 0.31361 0.0
C1056 C 0.84135 0.52606 0.31349 0.0
C1057 C 0.83493 0.53743 0.30502 0.0
C1058 C 0.84258 0.49436 0.26963 0.0
C1059 C 0.84074 0.50987 0.29237 0.0
C1060 C 0.85136 0.48547 0.26063 0.0
C1061 C 0.86437 0.47913 0.26612 0.0
C1062 C 0.84688 0.49703 0.2842 0.0
C1063 C 0.86715 0.48037 0.28128 0.0
C1064 C 0.84432 0.5123 0.30719 0.0
C1065 C 0.83042 0.53414 0.29065 0.0
N1066 N 0.85871 0.48952 0.28971 0.0
N1067 N 0.83359 0.52075 0.28473 0.0
H1068 H 0.82776 0.58542 0.54688 0.0
H1069 H 0.74553 0.61261 0.54595 0.0
H1070 H 0.80689 0.60641 0.5095 0.0
H1071 H 0.76546 0.58948 0.58257 0.0
H1072 H 0.76555 0.60411 0.53007 0.0
H1073 H 0.80353 0.58082 0.55761 0.0
C1074 C 0.81809 0.58867 0.54071 0.0
C1075 C 0.8194 0.59656 0.52739 0.0
C1076 C 0.76535 0.60051 0.54148 0.0
C1077 C 0.79159 0.5916 0.53975 0.0
C1078 C 0.75375 0.60521 0.55054 0.0
C1079 C 0.75398 0.60206 0.56572 0.0
C1080 C 0.77726 0.59269 0.54769 0.0
C1081 C 0.76499 0.59242 0.57099 0.0
C1082 C 0.80423 0.58612 0.54688 0.0
C1083 C 0.80645 0.6005 0.51991 0.0
N1084 N 0.77639 0.58843 0.5621 0.0
N1085 N 0.79313 0.59825 0.52632 0.0
H1086 H 0.46094 0.05151 0.88723 0.0
H1087 H 0.5206 0.05763 0.82613 0.0
H1088 H 0.49101 0.08766 0.88314 0.0
H1089 H 0.49387 0.01919 0.83306 0.0
H1090 H 0.51516 0.06534 0.85131 0.0
H1091 H 0.47792 0.03611 0.87307 0.0
C1092 C 0.47148 0.056 0.88406 0.0
C1093 C 0.47439 0.07101 0.886 0.0
C1094 C 0.51076 0.05501 0.84748 0.0
C1095 C 0.49362 0.05366 0.86927 0.0
C1096 C 0.5139 0.05059 0.83307 0.0
C1097 C 0.5074 0.03793 0.82733 0.0
C1098 C 0.5008 0.04688 0.85613 0.0
C1099 C 0.49894 0.02918 0.83692 0.0
C1100 C 0.48111 0.04725 0.87572 0.0
C1101 C 0.48822 0.0762 0.8816 0.0
N1102 N 0.49557 0.03401 0.8507 0.0
N1103 N 0.4971 0.0677 0.87301 0.0
H1104 H 1.0091 0.39765 0.16511 0.0
H1105 H 0.03067 0.36333 0.10572 0.0
H1106 H 0.96853 0.3773 0.15246 0.0
H1107 H 0.98753 0.36868 0.08724 0.0
H1108 H 0.02452 0.38141 0.12437 0.0
H1109 H 0.01561 0.40047 0.13912 0.0
C1110 C 1.00134 0.39413 0.15688 0.0
C1111 C 0.98856 0.38654 0.16101 0.0
C1112 C 0.01658 0.37937 0.11582 0.0
C1113 C 0.99614 0.38951 0.13125 0.0
C1114 C 0.02013 0.36892 0.10514 0.0
C1115 C 0.00939 0.36419 0.09532 0.0
C1116 C 1.00213 0.38497 0.1167 0.0
C1117 C 0.99596 0.37185 0.09492 0.0
C1118 C 1.00513 0.39571 0.14202 0.0
C1119 C 0.97874 0.38275 0.14984 0.0
N1120 N 0.99254 0.38163 0.10577 0.0
N1121 N 0.98291 0.38396 0.13545 0.0
H1122 H 0.97555 0.72926 0.42644 0.0
H1123 H 0.98807 0.73045 0.50022 0.0
H1124 H 0.01681 0.70596 0.4219 0.0
H1125 H 0.03298 0.72711 0.48551 0.0
H1126 H 0.98021 0.71872 0.47731 0.0
H1127 H 0.97689 0.72548 0.45307 0.0
C1128 C 0.98464 0.72295 0.43097 0.0
C1129 C 0.99632 0.71838 0.42193 0.0
C1130 C 0.9918 0.72032 0.47918 0.0
C1131 C 0.99823 0.71463 0.45254 0.0
C1132 C 0.99629 0.72685 0.49233 0.0
C1133 C 0.01114 0.72999 0.49457 0.0
C1134 C 1.00227 0.71725 0.46815 0.0
C1135 C 0.0214 0.72504 0.48412 0.0
C1136 C 0.98548 0.7209 0.44628 0.0
C1137 C 1.00776 0.71012 0.42848 0.0
N1138 N 0.01674 0.7192 0.47123 0.0
N1139 N 1.0087 0.709 0.44338 0.0
H1140 H 0.636 0.77814 0.75032 0.0
H1141 H 0.61648 0.70997 0.70646 0.0
H1142 H 0.60183 0.74773 0.76151 0.0
H1143 H 0.64475 0.74556 0.69367 0.0
H1144 H 0.62145 0.71537 0.73251 0.0
H1145 H 0.64955 0.7583 0.7383 0.0
C1146 C 0.63172 0.76705 0.75104 0.0
C1147 C 0.61728 0.76475 0.75592 0.0
C1148 C 0.62689 0.7217 0.72397 0.0
C1149 C 0.6323 0.74224 0.74153 0.0
C1150 C 0.62402 0.71865 0.70913 0.0
C1151 C 0.62921 0.72813 0.69803 0.0
C1152 C 0.63508 0.73424 0.72751 0.0
C1153 C 0.63977 0.73852 0.70195 0.0
C1154 C 0.63935 0.75573 0.74389 0.0
C1155 C 0.61256 0.75011 0.75701 0.0
N1156 N 0.64198 0.74164 0.71638 0.0
N1157 N 0.61961 0.73949 0.74906 0.0
H1158 H 0.5849 0.39295 0.99318 0.0
H1159 H 0.65139 0.36733 0.95046 0.0
H1160 H 0.61576 0.36012 1.00816 0.0
H1161 H 0.61881 0.39905 0.93632 0.0
H1162 H 0.64662 0.37452 0.97616 0.0
H1163 H 0.60448 0.40525 0.97972 0.0
C1164 C 0.59602 0.38878 0.99436 0.0
C1165 C 0.59857 0.37489 1.00084 0.0
C1166 C 0.64078 0.38011 0.96737 0.0
C1167 C 0.62081 0.38833 0.98478 0.0
C1168 C 0.64357 0.37609 0.95271 0.0
C1169 C 0.63478 0.3819 0.94137 0.0
C1170 C 0.62898 0.38971 0.97056 0.0
C1171 C 0.6253 0.3937 0.94483 0.0
C1172 C 0.60721 0.39565 0.98637 0.0
C1173 C 0.61322 0.37033 1.00245 0.0
N1174 N 0.62225 0.39684 0.95913 0.0
N1175 N 0.62372 0.37649 0.99371 0.0
H1176 H 0.14909 0.97276 0.39205 0.0
H1177 H 0.20324 0.96381 0.3423 0.0
H1178 H 0.17187 0.01361 0.39821 0.0
H1179 H 0.23032 0.99141 0.36884 0.0
H1180 H 0.18598 0.9616 0.36259 0.0
H1181 H 0.17215 0.9612 0.38385 0.0
C1182 C 0.15901 0.97923 0.39187 0.0
C1183 C 0.15847 0.99428 0.39528 0.0
C1184 C 0.19598 0.96762 0.3644 0.0
C1185 C 0.18485 0.98124 0.38582 0.0
C1186 C 0.20607 0.96865 0.35279 0.0
C1187 C 0.21772 0.97862 0.35358 0.0
C1188 C 0.19778 0.9765 0.3769 0.0
C1189 C 0.22097 0.98431 0.36751 0.0
C1190 C 0.17216 0.97264 0.38715 0.0
C1191 C 0.1717 1.00204 0.39539 0.0
N1192 N 0.2106 0.98394 0.37838 0.0
N1193 N 0.18426 0.9955 0.39043 0.0
H1194 H 0.33109 0.93582 0.6191 0.0
H1195 H 0.37005 1.00143 0.60701 0.0
H1196 H 0.37556 0.92748 0.63292 0.0
H1197 H 0.35508 0.98004 0.56781 0.0
H1198 H 0.37649 0.97713 0.61755 0.0
H1199 H 0.33989 0.95464 0.60212 0.0
C1200 C 0.3427 0.93808 0.61866 0.0
C1201 C 0.35258 0.93012 0.62742 0.0
C1202 C 0.37228 0.97779 0.60641 0.0
C1203 C 0.3627 0.95222 0.60838 0.0
C1204 C 0.36863 0.99167 0.60038 0.0
C1205 C 0.36117 0.99261 0.58689 0.0
C1206 C 0.36729 0.96507 0.59934 0.0
C1207 C 0.35984 0.97967 0.57869 0.0
C1208 C 0.34775 0.94875 0.60887 0.0
C1209 C 0.36758 0.93359 0.62644 0.0
N1210 N 0.362 0.96635 0.58537 0.0
N1211 N 0.37221 0.94472 0.61733 0.0
H1212 H 0.35603 0.11101 0.82289 0.0
H1213 H 0.41692 0.13956 0.84777 0.0
H1214 H 0.33665 0.11513 0.86608 0.0
H1215 H 0.40138 0.11804 0.88741 0.0
H1216 H 0.39156 0.1442 0.84044 0.0
H1217 H 0.37588 0.12686 0.83038 0.0
C1218 C 0.35555 0.11595 0.83373 0.0
C1219 C 0.34495 0.11151 0.84403 0.0
C1220 C 0.3937 0.13877 0.8509 0.0
C1221 C 0.36776 0.1296 0.85285 0.0
C1222 C 0.40819 0.13618 0.85517 0.0
C1223 C 0.41129 0.12777 0.86792 0.0
C1224 C 0.38226 0.13279 0.85937 0.0
C1225 C 0.39955 0.12416 0.87726 0.0
C1226 C 0.36694 0.12507 0.83806 0.0
C1227 C 0.34483 0.11815 0.85793 0.0
N1228 N 0.38553 0.12635 0.8726 0.0
N1229 N 0.35634 0.12658 0.86211 0.0
H1230 H 0.22831 0.18079 0.12045 0.0
H1231 H 0.24401 0.25413 0.12372 0.0
H1232 H 0.2691 0.17284 0.14328 0.0
H1233 H 0.28638 0.23486 0.11416 0.0
H1234 H 0.23723 0.23127 0.13697 0.0
H1235 H 0.23169 0.20731 0.12372 0.0
C1236 C 0.23766 0.18454 0.12665 0.0
C1237 C 0.24862 0.17456 0.13124 0.0
C1238 C 0.24805 0.23222 0.13213 0.0
C1239 C 0.25268 0.20486 0.13476 0.0
C1240 C 0.25201 0.24527 0.1248 0.0
C1241 C 0.26566 0.24619 0.11767 0.0
C1242 C 0.25768 0.22005 0.13181 0.0
C1243 C 0.27568 0.23449 0.11939 0.0
C1244 C 0.2396 0.19972 0.12853 0.0
C1245 C 0.26053 0.18014 0.13921 0.0
N1246 N 0.27136 0.22174 0.12598 0.0
N1247 N 0.26253 0.1949 0.14022 0.0
H1248 H 0.10818 0.0785 0.23618 0.0
H1249 H 0.17851 0.09283 0.21783 0.0
H1250 H 0.09773 0.12388 0.22617 0.0
H1251 H 0.16656 0.13304 0.24026 0.0
H1252 H 0.15292 0.08975 0.21078 0.0
H1253 H 0.13307 0.08235 0.22715 0.0
C1254 C 0.11092 0.0891 0.23136 0.0
C1255 C 0.10106 0.10103 0.23223 0.0
C1256 C 0.15598 0.09941 0.21695 0.0
C1257 C 0.12959 0.10562 0.22215 0.0
C1258 C 0.17059 0.10125 0.22094 0.0
C1259 C 0.17463 0.11301 0.23005 0.0
C1260 C 0.14533 0.1094 0.22208 0.0
C1261 C 0.16392 0.1237 0.23345 0.0
C1262 C 0.1252 0.09134 0.22625 0.0
C1263 C 0.1052 0.11453 0.22594 0.0
N1264 N 0.14967 0.12148 0.22971 0.0
N1265 N 0.11936 0.11666 0.22166 0.0
H1266 H 0.25443 0.92757 0.45586 0.0
H1267 H 0.28277 0.86574 0.48635 0.0
H1268 H 0.21876 0.91616 0.48509 0.0
H1269 H 0.23914 0.84804 0.48827 0.0
H1270 H 0.27338 0.88693 0.47252 0.0
H1271 H 0.26122 0.90148 0.45426 0.0
C1272 C 0.24771 0.91953 0.46157 0.0
C1273 C 0.23625 0.92411 0.47099 0.0
C1274 C 0.26591 0.87814 0.47533 0.0
C1275 C 0.24422 0.8943 0.46944 0.0
C1276 C 0.27131 0.866 0.48326 0.0
C1277 C 0.26165 0.8553 0.48864 0.0
C1278 C 0.25072 0.87961 0.4729 0.0
C1279 C 0.24688 0.85621 0.48442 0.0
C1280 C 0.25171 0.90465 0.46074 0.0
C1281 C 0.22779 0.91319 0.47787 0.0
N1282 N 0.24176 0.8684 0.47714 0.0
N1283 N 0.23218 0.89881 0.47723 0.0
H1284 H 0.44262 0.95912 0.73852 0.0
H1285 H 0.50632 0.9828 0.76126 0.0
H1286 H 0.43643 1.00122 0.71693 0.0
H1287 H 0.49127 0.02509 0.74518 0.0
H1288 H 0.49106 0.97071 0.74306 0.0
H1289 H 0.46902 0.96298 0.73801 0.0
C1290 C 0.44682 0.96903 0.73337 0.0
C1291 C 0.43722 0.98028 0.72866 0.0
C1292 C 0.49118 0.98262 0.74321 0.0
C1293 C 0.46744 0.98521 0.72878 0.0
C1294 C 0.50009 0.98953 0.75355 0.0
C1295 C 0.49972 1.00492 0.75492 0.0
C1296 C 0.48133 0.99123 0.73476 0.0
C1297 C 0.49165 0.01317 0.74462 0.0
C1298 C 0.462 0.97137 0.73323 0.0
C1299 C 0.44336 0.99256 0.72145 0.0
N1300 N 0.48245 1.00622 0.73527 0.0
N1301 N 0.458 0.99497 0.72227 0.0
H1302 H 0.38555 0.10653 0.9997 0.0
H1303 H 0.34614 0.17313 0.98241 0.0
H1304 H 0.37266 0.13123 0.03806 0.0
H1305 H 0.39159 0.18356 0.9749 0.0
H1306 H 0.35375 0.15283 0.99854 0.0
H1307 H 0.3887 0.12985 0.98603 0.0
C1308 C 0.38404 0.11687 1.00544 0.0
C1309 C 0.37856 0.117 0.01993 0.0
C1310 C 0.36206 0.15924 0.99294 0.0
C1311 C 0.38133 0.1434 1.00422 0.0
C1312 C 0.35772 0.17083 0.98376 0.0
C1313 C 0.36825 0.17996 0.97727 0.0
C1314 C 0.37701 0.15612 0.9949 0.0
C1315 C 0.38317 0.17658 0.97957 0.0
C1316 C 0.3858 0.13015 0.99762 0.0
C1317 C 0.37656 0.13068 0.0268 0.0
N1318 N 0.38718 0.16471 0.98806 0.0
N1319 N 0.37727 0.14334 0.01869 0.0
H1320 H 0.85667 0.45333 0.14754 0.0
H1321 H 0.887 0.49297 0.08147 0.0
H1322 H 0.88966 0.43792 0.11716 0.0
H1323 H 0.85212 0.50913 0.10907 0.0
H1324 H 0.89811 0.48095 0.10278 0.0
H1325 H 0.86475 0.47882 0.14289 0.0
C1326 C 0.86586 0.45529 0.14023 0.0
C1327 C 0.8717 0.44375 0.1318 0.0
C1328 C 0.88828 0.48757 0.10442 0.0
C1329 C 0.8808 0.47253 0.12632 0.0
C1330 C 0.88208 0.49474 0.09222 0.0
C1331 C 0.86795 0.50094 0.09337 0.0
C1332 C 0.88006 0.4865 0.11757 0.0
C1333 C 0.86249 0.50343 0.10762 0.0
C1334 C 0.87045 0.46979 0.13756 0.0
C1335 C 0.88424 0.44667 0.12324 0.0
N1336 N 0.868 0.4954 0.11911 0.0
N1337 N 0.88803 0.46081 0.12028 0.0
H1338 H 0.90349 0.62451 0.37392 0.0
H1339 H 0.83477 0.62006 0.35496 0.0
H1340 H 0.91475 0.63558 0.32892 0.0
H1341 H 0.85472 0.61025 0.31299 0.0
H1342 H 0.85482 0.63714 0.36007 0.0
H1343 H 0.87798 0.63048 0.36857 0.0
C1344 C 0.90069 0.62859 0.36303 0.0
C1345 C 0.91123 0.6289 0.35171 0.0
C1346 C 0.85464 0.63152 0.34959 0.0
C1347 C 0.88183 0.63519 0.34528 0.0
C1348 C 0.84309 0.62193 0.3466 0.0
C1349 C 0.84346 0.61337 0.33379 0.0
C1350 C 0.86686 0.63174 0.34005 0.0
C1351 C 0.85431 0.61632 0.32321 0.0
C1352 C 0.88601 0.63202 0.35992 0.0
C1353 C 0.90694 0.63462 0.3379 0.0
N1354 N 0.86588 0.62486 0.3268 0.0
N1355 N 0.89252 0.63695 0.33491 0.0
H1356 H 0.75318 0.66296 0.6393 0.0
H1357 H 0.77279 0.73156 0.62194 0.0
H1358 H 0.72195 0.67323 0.60509 0.0
H1359 H 0.72717 0.74304 0.61636 0.0
H1360 H 0.76565 0.70754 0.6316 0.0
H1361 H 0.75331 0.68895 0.64622 0.0
C1362 C 0.74591 0.6706 0.63361 0.0
C1363 C 0.73783 0.66602 0.62134 0.0
C1364 C 0.75711 0.71552 0.62896 0.0
C1365 C 0.73825 0.69576 0.62898 0.0
C1366 C 0.76123 0.72928 0.62344 0.0
C1367 C 0.75053 0.73911 0.61807 0.0
C1368 C 0.74223 0.71155 0.62892 0.0
C1369 C 0.73572 0.73559 0.6202 0.0
C1370 C 0.7461 0.68544 0.6375 0.0
C1371 C 0.72847 0.67633 0.61449 0.0
N1372 N 0.73197 0.72187 0.62503 0.0
N1373 N 0.72923 0.69084 0.61816 0.0
H1374 H 1.00253 0.48917 0.24546 0.0
H1375 H 0.93839 0.46296 0.22423 0.0
H1376 H 0.98586 0.53066 0.22887 0.0
H1377 H 0.93117 0.50407 0.20102 0.0
H1378 H 0.96456 0.46788 0.22432 0.0
H1379 H 0.98658 0.47621 0.22851 0.0
C1380 C 0.99577 0.49553 0.23789 0.0
C1381 C 0.99525 0.51097 0.23874 0.0
C1382 C 0.95738 0.47581 0.21904 0.0
C1383 C 0.97614 0.49628 0.21999 0.0
C1384 C 0.94233 0.47284 0.21879 0.0
C1385 C 0.93244 0.48347 0.2133 0.0
C1386 C 0.96241 0.48969 0.21423 0.0
C1387 C 0.9383 0.49583 0.206 0.0
C1388 C 0.98646 0.48813 0.2283 0.0
C1389 C 0.98644 0.51873 0.22868 0.0
N1390 N 0.95279 0.49888 0.2072 0.0
N1391 N 0.97694 0.5113 0.22002 0.0
H1392 H 0.67922 0.59079 0.71066 0.0
H1393 H 0.60937 0.57739 0.73217 0.0
H1394 H 0.6695 0.63165 0.73292 0.0
H1395 H 0.5994 0.62317 0.72366 0.0
H1396 H 0.63404 0.58105 0.72244 0.0
H1397 H 0.65313 0.58797 0.70554 0.0
C1398 C 0.67165 0.59939 0.71414 0.0
C1399 C 0.67652 0.61129 0.7226 0.0
C1400 C 0.62632 0.5902 0.72207 0.0
C1401 C 0.64663 0.60794 0.71696 0.0
C1402 C 0.61217 0.58807 0.72759 0.0
C1403 C 0.6025 0.60011 0.72898 0.0
C1404 C 0.63082 0.60449 0.71808 0.0
C1405 C 0.60674 0.61372 0.72302 0.0
C1406 C 0.65675 0.59769 0.71129 0.0
C1407 C 0.66623 0.62221 0.72654 0.0
N1408 N 0.62079 0.61572 0.7183 0.0
N1409 N 0.65169 0.62011 0.72395 0.0
H1410 H 0.48987 0.87149 0.5905 0.0
H1411 H 0.47175 0.88345 0.65934 0.0
H1412 H 0.53144 0.85963 0.60976 0.0
H1413 H 0.51753 0.88878 0.66967 0.0
H1414 H 0.47769 0.88637 0.63331 0.0
H1415 H 0.48623 0.89001 0.6098 0.0
C1416 C 0.49844 0.87313 0.59852 0.0
C1417 C 0.51065 0.86361 0.599 0.0
C1418 C 0.48644 0.88735 0.6412 0.0
C1419 C 0.50595 0.88359 0.62173 0.0
C1420 C 0.483 0.88566 0.65617 0.0
C1421 C 0.4942 0.88535 0.66671 0.0
C1422 C 0.50123 0.88825 0.63672 0.0
C1423 C 0.50854 0.88851 0.66193 0.0
C1424 C 0.49627 0.88354 0.60969 0.0
C1425 C 0.52157 0.86636 0.6094 0.0
N1426 N 0.51171 0.88929 0.64729 0.0
N1427 N 0.51872 0.87569 0.62072 0.0
H1428 H 0.47031 0.25534 0.92194 0.0
H1429 H 0.50099 0.27505 0.85974 0.0
H1430 H 0.49404 0.21512 0.91263 0.0
H1431 H 0.50186 0.22977 0.84586 0.0
H1432 H 0.48405 0.26862 0.87939 0.0
H1433 H 0.46686 0.25936 0.89555 0.0
C1434 C 0.47451 0.24713 0.91435 0.0
C1435 C 0.48322 0.23526 0.91943 0.0
C1436 C 0.48719 0.26012 0.87165 0.0
C1437 C 0.47971 0.2401 0.88921 0.0
C1438 C 0.49694 0.26386 0.86035 0.0
C1439 C 0.50306 0.25283 0.85146 0.0
C1440 C 0.48371 0.2452 0.87412 0.0
C1441 C 0.49752 0.23852 0.85273 0.0
C1442 C 0.47262 0.24951 0.89925 0.0
C1443 C 0.48781 0.22472 0.90914 0.0
N1444 N 0.48842 0.235 0.86415 0.0
N1445 N 0.48638 0.2276 0.89445 0.0
H1446 H 0.14654 0.24346 0.19003 0.0
H1447 H 0.13598 0.27839 0.24874 0.0
H1448 H 0.11302 0.21326 0.20363 0.0
H1449 H 0.10148 0.24809 0.25888 0.0
H1450 H 0.14946 0.25886 0.23645 0.0
H1451 H 0.15218 0.24812 0.21553 0.0
C1452 C 0.14054 0.23751 0.19849 0.0
C1453 C 0.12852 0.22878 0.19478 0.0
C1454 C 0.13901 0.2562 0.24139 0.0
C1455 C 0.13427 0.23476 0.22434 0.0
C1456 C 0.13151 0.26736 0.24894 0.0
C1457 C 0.11707 0.26509 0.25379 0.0
C1458 C 0.1317 0.24293 0.2384 0.0
C1459 C 0.11219 0.25049 0.25436 0.0
C1460 C 0.14364 0.24032 0.21325 0.0
C1461 C 0.12172 0.22082 0.20613 0.0
N1462 N 0.11903 0.24012 0.24593 0.0
N1463 N 0.12421 0.22447 0.22044 0.0
H1464 H 0.09049 0.86665 0.42979 0.0
H1465 H 0.13678 0.85746 0.36668 0.0
H1466 H 0.13358 0.88097 0.44213 0.0
H1467 H 0.12271 0.81709 0.3873 0.0
H1468 H 0.13849 0.86876 0.39117 0.0
H1469 H 0.10154 0.85094 0.41098 0.0
C1470 C 0.10226 0.8667 0.42833 0.0
C1471 C 0.11112 0.87501 0.43758 0.0
C1472 C 0.1356 0.85724 0.39037 0.0
C1473 C 0.12378 0.85799 0.41522 0.0
C1474 C 0.13464 0.85078 0.3764 0.0
C1475 C 0.12906 0.83649 0.37499 0.0
C1476 C 0.12998 0.84962 0.40267 0.0
C1477 C 0.12644 0.82834 0.38791 0.0
C1478 C 0.10857 0.85777 0.41759 0.0
C1479 C 0.12637 0.87482 0.43506 0.0
N1480 N 0.12615 0.83523 0.40117 0.0
N1481 N 0.13227 0.86668 0.42383 0.0
H1482 H 0.73574 0.48936 0.86586 0.0
H1483 H 0.67716 0.50906 0.90289 0.0
H1484 H 0.70622 0.4635 0.84023 0.0
H1485 H 0.65344 0.47506 0.88062 0.0
H1486 H 0.69998 0.49613 0.89724 0.0
H1487 H 0.71976 0.48628 0.88727 0.0
C1488 C 0.72621 0.48242 0.8649 0.0
C1489 C 0.72164 0.47769 0.85099 0.0
C1490 C 0.6899 0.49144 0.89348 0.0
C1491 C 0.70283 0.47477 0.87509 0.0
C1492 C 0.67675 0.49881 0.89687 0.0
C1493 C 0.66342 0.49361 0.89139 0.0
C1494 C 0.68976 0.47914 0.8841 0.0
C1495 C 0.66357 0.47995 0.88423 0.0
C1496 C 0.71676 0.48106 0.87707 0.0
C1497 C 0.70972 0.46804 0.85064 0.0
N1498 N 0.67653 0.47348 0.88031 0.0
N1499 N 0.70026 0.46755 0.86226 0.0
H1500 H 0.73997 0.34054 0.98294 0.0
H1501 H 0.72238 0.41163 0.97303 0.0
H1502 H 0.78194 0.35884 0.9936 0.0
H1503 H 0.76795 0.42012 0.96342 0.0
H1504 H 0.72759 0.38527 0.9718 0.0
H1505 H 0.73531 0.36151 0.96625 0.0
C1506 C 0.74842 0.34871 0.98135 0.0
C1507 C 0.76113 0.34827 0.98997 0.0
C1508 C 0.73638 0.39284 0.96943 0.0
C1509 C 0.75548 0.37267 0.97191 0.0
C1510 C 0.73338 0.40798 0.97018 0.0
C1511 C 0.7448 0.41816 0.96872 0.0
C1512 C 0.75094 0.38784 0.96746 0.0
C1513 C 0.75883 0.41271 0.96496 0.0
C1514 C 0.74568 0.3608 0.972 0.0
C1515 C 0.77181 0.35901 0.98743 0.0
N1516 N 0.76159 0.39795 0.96493 0.0
N1517 N 0.76855 0.37104 0.97899 0.0
H1518 H 0.84328 0.68138 0.44584 0.0
H1519 H 0.87412 0.6212 0.47308 0.0
H1520 H 0.87972 0.7066 0.46149 0.0
H1521 H 0.89819 0.65169 0.49936 0.0
H1522 H 0.87274 0.63963 0.45332 0.0
H1523 H 0.85756 0.65891 0.44959 0.0
C1524 C 0.85441 0.68221 0.44984 0.0
C1525 C 0.86007 0.69584 0.4541 0.0
C1526 C 0.87854 0.64229 0.46331 0.0
C1527 C 0.87652 0.66992 0.45869 0.0
C1528 C 0.87975 0.63154 0.47444 0.0
C1529 C 0.88521 0.63541 0.4883 0.0
C1530 C 0.88313 0.65676 0.46618 0.0
C1531 C 0.89314 0.64857 0.48908 0.0
C1532 C 0.86265 0.66927 0.45198 0.0
C1533 C 0.87468 0.69621 0.45886 0.0
N1534 N 0.89119 0.65914 0.47852 0.0
N1535 N 0.88222 0.68343 0.46151 0.0
H1536 H 0.02824 0.32546 0.21442 0.0
H1537 H 0.07206 0.28565 0.15105 0.0
H1538 H 0.0125 0.32523 0.16962 0.0
H1539 H 0.06979 0.26527 0.19412 0.0
H1540 H 0.0517 0.30213 0.1581 0.0
H1541 H 0.04449 0.30436 0.20835 0.0
C1542 C 0.02834 0.32117 0.20331 0.0
C1543 C 0.01947 0.32761 0.19235 0.0
C1544 C 0.05575 0.29411 0.16603 0.0
C1545 C 0.03841 0.3041 0.18523 0.0
C1546 C 0.06744 0.28481 0.16205 0.0
C1547 C 0.07281 0.27428 0.1721 0.0
C1548 C 0.04983 0.29334 0.18038 0.0
C1549 C 0.06611 0.2734 0.1861 0.0
C1550 C 0.03754 0.30912 0.19987 0.0
C1551 C 0.01955 0.32108 0.17831 0.0
N1552 N 0.05517 0.28299 0.18995 0.0
N1553 N 0.02917 0.31005 0.17504 0.0
H1554 H 0.08012 0.7855 0.39127 0.0
H1555 H 0.06178 0.78509 0.47739 0.0
H1556 H 0.09684 0.81775 0.42132 0.0
H1557 H 0.03722 0.76167 0.44471 0.0
H1558 H 0.07938 0.79251 0.4583 0.0
H1559 H 0.07024 0.77156 0.41212 0.0
C1560 C 0.08186 0.78959 0.40231 0.0
C1561 C 0.08859 0.80325 0.40455 0.0
C1562 C 0.07026 0.78559 0.45533 0.0
C1563 C 0.07734 0.78724 0.4285 0.0
C1564 C 0.06015 0.78143 0.46618 0.0
C1565 C 0.04784 0.77302 0.46254 0.0
C1566 C 0.0682 0.78113 0.44072 0.0
C1567 C 0.04636 0.76844 0.44791 0.0
C1568 C 0.07622 0.78158 0.41422 0.0
C1569 C 0.09102 0.80767 0.4191 0.0
N1570 N 0.05643 0.77256 0.43755 0.0
N1571 N 0.08516 0.79981 0.43055 0.0
H1572 H 0.56313 0.82738 0.72025 0.0
H1573 H 0.55312 0.82895 0.63335 0.0
H1574 H 0.58802 0.80205 0.68864 0.0
H1575 H 0.52101 0.84787 0.66306 0.0
H1576 H 0.57009 0.82631 0.65351 0.0
H1577 H 0.55228 0.84178 0.6998 0.0
C1578 C 0.5667 0.8252 0.70906 0.0
C1579 C 0.57613 0.81321 0.70606 0.0
C1580 C 0.55941 0.83119 0.6557 0.0
C1581 C 0.56388 0.82958 0.68278 0.0
C1582 C 0.54957 0.83267 0.64413 0.0
C1583 C 0.53523 0.83805 0.64655 0.0
C1584 C 0.55502 0.83495 0.67002 0.0
C1585 C 0.53173 0.84316 0.66075 0.0
C1586 C 0.56043 0.83336 0.69741 0.0
C1587 C 0.58047 0.81092 0.69142 0.0
N1588 N 0.54147 0.84122 0.67205 0.0
N1589 N 0.5742 0.81888 0.68036 0.0
H1590 H 0.53878 0.31687 0.96894 0.0
H1591 H 0.54023 0.30398 0.88253 0.0
H1592 H 0.56449 0.34105 0.93713 0.0
H1593 H 0.51881 0.27417 0.9129 0.0
H1594 H 0.54259 0.32175 0.90205 0.0
H1595 H 0.52484 0.30602 0.94856 0.0
C1596 C 0.54119 0.32023 0.9577 0.0
C1597 C 0.55311 0.32947 0.95463 0.0
C1598 C 0.5372 0.31143 0.90451 0.0
C1599 C 0.53739 0.3171 0.93143 0.0
C1600 C 0.53585 0.30116 0.89331 0.0
C1601 C 0.52974 0.28724 0.89614 0.0
C1602 C 0.53254 0.30788 0.91885 0.0
C1603 C 0.52401 0.28456 0.91031 0.0
C1604 C 0.53327 0.314 0.94609 0.0
C1605 C 0.55569 0.3336 0.93994 0.0
N1606 N 0.52576 0.2947 0.92124 0.0
N1607 N 0.54805 0.32726 0.92892 0.0
H1608 H 0.07458 0.84273 0.41632 0.0
H1609 H 0.01983 0.77476 0.42248 0.0
H1610 H 0.06215 0.8212 0.45692 0.0
H1611 H 0.04616 0.78157 0.38337 0.0
H1612 H 0.03036 0.79653 0.43334 0.0
H1613 H 0.05947 0.82506 0.40257 0.0
C1614 C 0.0687 0.83423 0.42229 0.0
C1615 C 0.07012 0.83283 0.43766 0.0
C1616 C 0.03383 0.79335 0.42236 0.0
C1617 C 0.05244 0.81326 0.42223 0.0
C1618 C 0.02792 0.78082 0.41614 0.0
C1619 C 0.0324 0.77603 0.4021 0.0
C1620 C 0.04446 0.80133 0.41461 0.0
C1621 C 0.04274 0.78456 0.3944 0.0
C1622 C 0.06002 0.82429 0.41448 0.0
C1623 C 0.06182 0.82218 0.44502 0.0
N1624 N 0.04845 0.79685 0.40078 0.0
N1625 N 0.05336 0.8128 0.43724 0.0
H1626 H 0.57144 0.7831 0.65559 0.0
H1627 H 0.52887 0.82252 0.7201 0.0
H1628 H 0.56942 0.76222 0.69847 0.0
H1629 H 0.51259 0.82304 0.67549 0.0
H1630 H 0.54482 0.80134 0.71355 0.0
H1631 H 0.55153 0.79989 0.66319 0.0
C1632 C 0.56695 0.78216 0.66663 0.0
C1633 C 0.57229 0.7714 0.67647 0.0
C1634 C 0.53779 0.80625 0.70522 0.0
C1635 C 0.54971 0.7907 0.68533 0.0
C1636 C 0.52876 0.81835 0.70894 0.0
C1637 C 0.51992 0.82512 0.69814 0.0
C1638 C 0.53846 0.80147 0.69049 0.0
C1639 C 0.51971 0.81873 0.68404 0.0
C1640 C 0.55549 0.79162 0.67093 0.0
C1641 C 0.56576 0.77047 0.69056 0.0
N1642 N 0.52916 0.80765 0.6805 0.0
N1643 N 0.555 0.78014 0.69467 0.0
H1644 H 0.54377 0.26181 0.92346 0.0
H1645 H 0.6014 0.32294 0.94398 0.0
H1646 H 0.54256 0.28231 0.96624 0.0
H1647 H 0.57986 0.32284 0.90173 0.0
H1648 H 0.58536 0.30299 0.95238 0.0
H1649 H 0.56282 0.27895 0.91568 0.0
C1650 C 0.54758 0.26984 0.9313 0.0
C1651 C 0.54103 0.2711 0.94533 0.0
C1652 C 0.58423 0.30732 0.94127 0.0
C1653 C 0.56347 0.29016 0.93665 0.0
C1654 C 0.59328 0.31872 0.93646 0.0
C1655 C 0.59173 0.32479 0.92222 0.0
C1656 C 0.57382 0.30164 0.93164 0.0
C1657 C 0.5812 0.31874 0.91289 0.0
C1658 C 0.55849 0.27957 0.92681 0.0
C1659 C 0.54686 0.28135 0.95514 0.0
N1660 N 0.5727 0.30739 0.91773 0.0
N1661 N 0.55782 0.29049 0.95062 0.0
H1662 H 0.05731 0.32914 0.13025 0.0
H1663 H 0.06391 0.3283 0.21757 0.0
H1664 H 0.02458 0.34876 0.15878 0.0
H1665 H 0.0889 0.30139 0.18738 0.0
H1666 H 0.05456 0.34284 0.19648 0.0
H1667 H 0.07364 0.32642 0.15107 0.0
C1668 C 0.05353 0.33304 0.14088 0.0
C1669 C 0.0392 0.33861 0.14282 0.0
C1670 C 0.06243 0.33404 0.19455 0.0
C1671 C 0.05812 0.33539 0.16697 0.0
C1672 C 0.06782 0.32578 0.20656 0.0
C1673 C 0.07681 0.31335 0.20411 0.0
C1674 C 0.06631 0.3299 0.18012 0.0
C1675 C 0.08164 0.31062 0.1897 0.0
C1676 C 0.06297 0.33151 0.15282 0.0
C1677 C 0.0353 0.34387 0.15685 0.0
N1678 N 0.07621 0.3187 0.17827 0.0
N1679 N 0.04461 0.34187 0.16849 0.0
H1680 H 0.12157 0.0631 0.28384 0.0
H1681 H 0.20662 0.04152 0.28734 0.0
H1682 H 0.15457 0.08953 0.26225 0.0
H1683 H 0.17209 0.02108 0.31249 0.0
H1684 H 0.18796 0.05557 0.27324 0.0
H1685 H 0.14002 0.04487 0.29002 0.0
C1686 C 0.13275 0.06512 0.28034 0.0
C1687 C 0.13647 0.07809 0.27264 0.0
C1688 C 0.18448 0.04777 0.28162 0.0
C1689 C 0.15801 0.0568 0.2798 0.0
C1690 C 0.1951 0.03967 0.28956 0.0
C1691 C 0.19081 0.03049 0.30134 0.0
C1692 C 0.16958 0.04642 0.28543 0.0
C1693 C 0.17583 0.02833 0.30372 0.0
C1694 C 0.14335 0.05457 0.28386 0.0
C1695 C 0.15122 0.07986 0.26843 0.0
N1696 N 0.1658 0.03631 0.29595 0.0
N1697 N 0.16149 0.06934 0.27211 0.0
H1698 H 0.31447 0.96811 0.54178 0.0
H1699 H 0.30759 0.88061 0.5442 0.0
H1700 H 0.33412 0.94099 0.57578 0.0
H1701 H 0.28032 0.90977 0.51814 0.0
H1702 H 0.32251 0.90166 0.55138 0.0
H1703 H 0.30809 0.94603 0.52832 0.0
C1704 C 0.31758 0.95748 0.5464 0.0
C1705 C 0.32413 0.95638 0.56038 0.0
C1706 C 0.31341 0.90343 0.54391 0.0
C1707 C 0.31686 0.93093 0.54482 0.0
C1708 C 0.30482 0.89145 0.53988 0.0
C1709 C 0.29246 0.89354 0.53085 0.0
C1710 C 0.30975 0.9176 0.53873 0.0
C1711 C 0.28949 0.90776 0.52544 0.0
C1712 C 0.31394 0.94485 0.53863 0.0
C1713 C 0.32839 0.94232 0.56542 0.0
N1714 N 0.29805 0.91924 0.52949 0.0
N1715 N 0.32441 0.93009 0.55778 0.0
H1716 H 0.40616 0.09164 0.8313 0.0
H1717 H 0.46702 0.06596 0.79446 0.0
H1718 H 0.38062 0.06823 0.79933 0.0
H1719 H 0.43701 0.03686 0.77291 0.0
H1720 H 0.44656 0.08184 0.80146 0.0
H1721 H 0.42809 0.08691 0.81645 0.0
C1722 C 0.40514 0.08561 0.8211 0.0
C1723 C 0.39157 0.07991 0.81689 0.0
C1724 C 0.44431 0.07202 0.79523 0.0
C1725 C 0.41676 0.07425 0.79968 0.0
C1726 C 0.45609 0.06295 0.79105 0.0
C1727 C 0.45365 0.04954 0.78378 0.0
C1728 C 0.4299 0.06762 0.79222 0.0
C1729 C 0.43931 0.04661 0.77925 0.0
C1730 C 0.41772 0.08297 0.81246 0.0
C1731 C 0.39088 0.07256 0.80329 0.0
N1732 N 0.42797 0.05542 0.78376 0.0
N1733 N 0.40329 0.06969 0.7954 0.0
H1734 H 0.31308 0.20242 0.02363 0.0
H1735 H 0.29478 0.12948 0.06853 0.0
H1736 H 0.33002 0.16022 1.00986 0.0
H1737 H 0.27016 0.17022 0.07191 0.0
H1738 H 0.30637 0.13908 0.04575 0.0
H1739 H 0.2959 0.18994 0.04016 0.0
C1740 C 0.31317 0.19047 0.02418 0.0
C1741 C 0.32335 0.1823 0.01597 0.0
C1742 C 0.29843 0.14588 0.05155 0.0
C1743 C 0.30374 0.16782 0.03481 0.0
C1744 C 0.29197 0.14046 0.06462 0.0
C1745 C 0.28184 0.14923 0.0724 0.0
C1746 C 0.29519 0.16035 0.04671 0.0
C1747 C 0.27813 0.16315 0.06649 0.0
C1748 C 0.30329 0.18331 0.03351 0.0
C1749 C 0.32268 0.16685 0.01654 0.0
N1750 N 0.28497 0.16834 0.05424 0.0
N1751 N 0.31323 0.16006 0.02607 0.0
H1752 H 0.21523 0.07081 0.29989 0.0
H1753 H 0.14168 0.03878 0.33188 0.0
H1754 H 0.17308 0.09079 0.29081 0.0
H1755 H 0.18099 0.03594 0.35781 0.0
H1756 H 0.15346 0.0572 0.31595 0.0
H1757 H 0.20411 0.05759 0.32098 0.0
C1758 C 0.20364 0.07226 0.30222 0.0
C1759 C 0.19491 0.0814 0.29321 0.0
C1760 C 0.15962 0.0524 0.325 0.0
C1761 C 0.18209 0.06605 0.31684 0.0
C1762 C 0.15298 0.04173 0.33391 0.0
C1763 C 0.16071 0.0353 0.34563 0.0
C1764 C 0.17432 0.05624 0.32746 0.0
C1765 C 0.17502 0.04011 0.34836 0.0
C1766 C 0.19731 0.06482 0.31429 0.0
C1767 C 0.1801 0.08342 0.29712 0.0
N1768 N 0.1815 0.0501 0.33918 0.0
N1769 N 0.17408 0.07552 0.30834 0.0
H1770 H 0.27654 0.97286 0.53326 0.0
H1771 H 0.3017 0.9019 0.57902 0.0
H1772 H 0.25967 0.92911 0.52688 0.0
H1773 H 0.30865 0.94545 0.59598 0.0
H1774 H 0.28494 0.91232 0.56067 0.0
H1775 H 0.28784 0.96415 0.55658 0.0
C1776 C 0.27544 0.96143 0.53659 0.0
C1777 C 0.26749 0.95161 0.52788 0.0
C1778 C 0.29015 0.9197 0.56831 0.0
C1779 C 0.28021 0.94164 0.55439 0.0
C1780 C 0.29978 0.91371 0.57871 0.0
C1781 C 0.30697 0.92292 0.58852 0.0
C1782 C 0.28822 0.93511 0.56723 0.0
C1783 C 0.30363 0.93809 0.58818 0.0
C1784 C 0.28166 0.95652 0.54999 0.0
C1785 C 0.2659 0.93705 0.53305 0.0
N1786 N 0.29481 0.94382 0.57739 0.0
N1787 N 0.27226 0.93254 0.5458 0.0
H1788 H 0.45846 0.06151 0.83003 0.0
H1789 H 0.39129 0.02888 0.78801 0.0
H1790 H 0.41438 0.06594 0.8471 0.0
H1791 H 0.43343 1.00682 0.78698 0.0
H1792 H 0.39941 0.0428 0.80959 0.0
H1793 H 0.45009 0.04124 0.81434 0.0
C1794 C 0.44704 0.05835 0.83038 0.0
C1795 C 0.43703 0.06575 0.83956 0.0
C1796 C 0.4069 0.03501 0.80452 0.0
C1797 C 0.42728 0.0432 0.82114 0.0
C1798 C 0.4023 0.02715 0.79216 0.0
C1799 C 0.41181 0.01695 0.78546 0.0
C1800 C 0.42134 0.0332 0.80974 0.0
C1801 C 0.4258 0.01475 0.79167 0.0
C1802 C 0.44227 0.04677 0.82147 0.0
C1803 C 0.42245 0.06078 0.83995 0.0
N1804 N 0.43027 0.02303 0.80322 0.0
N1805 N 0.41792 0.05017 0.83057 0.0
H1806 H 0.28441 0.19369 0.09013 0.0
H1807 H 0.34766 0.16622 0.03567 0.0
H1808 H 0.30872 0.22304 0.0617 0.0
H1809 H 0.32804 0.13872 0.06916 0.0
H1810 H 0.33643 0.18796 0.04746 0.0
H1811 H 0.30225 0.17399 0.08456 0.0
C1812 C 0.2934 0.19593 0.08259 0.0
C1813 C 0.29496 0.20994 0.0762 0.0
C1814 C 0.33464 0.17716 0.05227 0.0
C1815 C 0.3153 0.18745 0.06959 0.0
C1816 C 0.34097 0.16478 0.04548 0.0
C1817 C 0.33798 0.15062 0.05091 0.0
C1818 C 0.32509 0.17525 0.0644 0.0
C1819 C 0.33011 0.14941 0.06423 0.0
C1820 C 0.30367 0.18475 0.07953 0.0
C1821 C 0.30703 0.21234 0.06678 0.0
N1822 N 0.32358 0.16149 0.07027 0.0
N1823 N 0.31658 0.20118 0.0636 0.0
H1824 H 0.7801 0.47273 0.02852 0.0
H1825 H 0.81201 0.44906 0.09636 0.0
H1826 H 0.7591 0.43037 0.03142 0.0
H1827 H 0.81314 0.40802 0.07271 0.0
H1828 H 0.79449 0.45909 0.07821 0.0
H1829 H 0.79332 0.46667 0.05156 0.0
C1830 C 0.77836 0.46216 0.03385 0.0
C1831 C 0.769 0.45176 0.02756 0.0
C1832 C 0.79856 0.4479 0.07706 0.0
C1833 C 0.78427 0.44466 0.05351 0.0
C1834 C 0.8085 0.44213 0.0874 0.0
C1835 C 0.81447 0.42786 0.08568 0.0
C1836 C 0.79409 0.43908 0.06532 0.0
C1837 C 0.80923 0.41923 0.07414 0.0
C1838 C 0.78577 0.45876 0.04705 0.0
C1839 C 0.7667 0.43849 0.03537 0.0
N1840 N 0.79926 0.42495 0.06447 0.0
N1841 N 0.77461 0.43514 0.04758 0.0
H1842 H 0.88628 0.53006 0.27305 0.0
H1843 H 0.95574 0.55985 0.31464 0.0
H1844 H 0.92922 0.51015 0.26834 0.0
H1845 H 0.91204 0.56625 0.33197 0.0
H1846 H 0.94638 0.54031 0.29874 0.0
H1847 H 0.8951 0.54322 0.29491 0.0
C1848 C 0.89758 0.52864 0.27646 0.0
C1849 C 0.90709 0.51925 0.26866 0.0
C1850 C 0.93881 0.54612 0.30591 0.0
C1851 C 0.91727 0.53425 0.29353 0.0
C1852 C 0.94417 0.55726 0.31497 0.0
C1853 C 0.93456 0.56512 0.32416 0.0
C1854 C 0.92362 0.54349 0.30537 0.0
C1855 C 0.91977 0.56081 0.32466 0.0
C1856 C 0.90256 0.53598 0.28904 0.0
C1857 C 0.92152 0.51742 0.2739 0.0
N1858 N 0.91464 0.55069 0.31502 0.0
N1859 N 0.9262 0.52497 0.28582 0.0
H1860 H 0.82757 0.64031 0.55851 0.0
H1861 H 0.80327 0.72497 0.5657 0.0
H1862 H 0.84199 0.67536 0.52978 0.0
H1863 H 0.77846 0.68935 0.58488 0.0
H1864 H 0.82201 0.70735 0.55782 0.0
H1865 H 0.81468 0.65867 0.57394 0.0
C1866 C 0.82835 0.65191 0.55572 0.0
C1867 C 0.83538 0.6564 0.54267 0.0
C1868 C 0.81257 0.70335 0.5639 0.0
C1869 C 0.82092 0.67728 0.56013 0.0
C1870 C 0.80182 0.7134 0.56836 0.0
C1871 C 0.78912 0.70858 0.57571 0.0
C1872 C 0.8108 0.68829 0.56691 0.0
C1873 C 0.78791 0.69348 0.57895 0.0
C1874 C 0.82096 0.66235 0.56445 0.0
C1875 C 0.83627 0.67149 0.53955 0.0
N1876 N 0.79863 0.68384 0.57451 0.0
N1877 N 0.82901 0.68138 0.54813 0.0
H1878 H 0.93462 0.54257 0.25848 0.0
H1879 H 0.90514 0.59592 0.32093 0.0
H1880 H 0.96301 0.57012 0.28395 0.0
H1881 H 0.87794 0.5704 0.29208 0.0
H1882 H 0.92602 0.59144 0.3041 0.0
H1883 H 0.91362 0.55761 0.26643 0.0
C1884 C 0.93643 0.55185 0.26567 0.0
C1885 C 0.95047 0.55468 0.27106 0.0
C1886 C 0.9154 0.58702 0.3014 0.0
C1887 C 0.92645 0.57173 0.28064 0.0
C1888 C 0.9035 0.58949 0.31107 0.0
C1889 C 0.88982 0.58312 0.30826 0.0
C1890 C 0.91364 0.57786 0.28904 0.0
C1891 C 0.8883 0.57525 0.29503 0.0
C1892 C 0.92445 0.5605 0.2702 0.0
C1893 C 0.95228 0.56728 0.27983 0.0
N1894 N 0.90005 0.57265 0.28615 0.0
N1895 N 0.94037 0.57507 0.28471 0.0
H1896 H 0.67311 0.52311 0.81542 0.0
H1897 H 0.62236 0.55826 0.77211 0.0
H1898 H 0.70619 0.54024 0.78608 0.0
H1899 H 0.6557 0.59153 0.76763 0.0
H1900 H 0.64085 0.54062 0.7799 0.0
H1901 H 0.65433 0.53611 0.80121 0.0
C1902 C 0.67635 0.52941 0.80575 0.0
C1903 C 0.69117 0.53079 0.80199 0.0
C1904 C 0.64417 0.55177 0.77731 0.0
C1905 C 0.66977 0.54614 0.78583 0.0
C1906 C 0.63359 0.56197 0.77278 0.0
C1907 C 0.63732 0.57669 0.76954 0.0
C1908 C 0.65876 0.55615 0.77877 0.0
C1909 C 0.65221 0.58046 0.77031 0.0
C1910 C 0.66563 0.53681 0.79757 0.0
C1911 C 0.69482 0.53902 0.78934 0.0
N1912 N 0.66239 0.57025 0.77493 0.0
N1913 N 0.68422 0.54682 0.78194 0.0
H1914 H 0.83763 0.43375 0.05888 0.0
H1915 H 0.8044 0.37896 0.02166 0.0
H1916 H 0.81441 0.46504 0.03143 0.0
H1917 H 0.76926 0.41079 0.01651 0.0
H1918 H 0.82139 0.3988 0.02583 0.0
H1919 H 0.82714 0.41372 0.04494 0.0
C1920 C 0.83057 0.43639 0.04963 0.0
C1921 C 0.82661 0.45103 0.04653 0.0
C1922 C 0.80996 0.40153 0.02393 0.0
C1923 C 0.81411 0.42806 0.03057 0.0
C1924 C 0.80016 0.39016 0.02146 0.0
C1925 C 0.7851 0.39312 0.01943 0.0
C1926 C 0.80479 0.41612 0.02458 0.0
C1927 C 0.78062 0.40795 0.01862 0.0
C1928 C 0.82459 0.42492 0.04155 0.0
C1929 C 0.81755 0.45384 0.03431 0.0
N1930 N 0.79039 0.41891 0.02142 0.0
N1931 N 0.81115 0.44244 0.02709 0.0
H1932 H 0.79323 0.63182 0.55731 0.0
H1933 H 0.81158 0.70787 0.51821 0.0
H1934 H 0.76777 0.67159 0.56385 0.0
H1935 H 0.82415 0.66684 0.49798 0.0
H1936 H 0.79592 0.69437 0.53554 0.0
H1937 H 0.80475 0.64345 0.53546 0.0
C1938 C 0.79029 0.64306 0.55433 0.0
C1939 C 0.77999 0.65099 0.56275 0.0
C1940 C 0.80206 0.68825 0.52733 0.0
C1941 C 0.79326 0.66438 0.53817 0.0
C1942 C 0.81113 0.69595 0.51759 0.0
C1943 C 0.81951 0.68834 0.50709 0.0
C1944 C 0.80154 0.67277 0.52674 0.0
C1945 C 0.81819 0.67298 0.5063 0.0
C1946 C 0.7967 0.64962 0.54178 0.0
C1947 C 0.77602 0.66524 0.55797 0.0
N1948 N 0.80951 0.66563 0.51616 0.0
N1949 N 0.78287 0.67158 0.54626 0.0
H1950 H 0.64703 0.54887 0.83171 0.0
H1951 H 0.71966 0.56985 0.79056 0.0
H1952 H 0.68838 0.54096 0.85318 0.0
H1953 H 0.67937 0.59473 0.78541 0.0
H1954 H 0.70963 0.55913 0.81362 0.0
H1955 H 0.65911 0.56581 0.81449 0.0
C1956 C 0.65871 0.55067 0.83268 0.0
C1957 C 0.6669 0.54311 0.84337 0.0
C1958 C 0.70308 0.56702 0.80741 0.0
C1959 C 0.68089 0.56227 0.82368 0.0
C1960 C 0.70872 0.57295 0.79417 0.0
C1961 C 0.7001 0.58273 0.7857 0.0
C1962 C 0.68859 0.57048 0.81175 0.0
C1963 C 0.68625 0.58686 0.79126 0.0
C1964 C 0.6656 0.56045 0.823 0.0
C1965 C 0.68187 0.54622 0.84465 0.0
N1966 N 0.68081 0.58047 0.80365 0.0
N1967 N 0.68851 0.55535 0.83467 0.0
H1968 H 0.0132 0.40764 0.238 0.0
H1969 H 0.95022 0.46734 0.25081 0.0
H1970 H 0.9677 0.39838 0.22957 0.0
H1971 H 0.99125 0.46856 0.274 0.0
H1972 H 0.95621 0.44213 0.24273 0.0
H1973 H 1.00558 0.43016 0.25093 0.0
C1974 C 1.00162 0.41023 0.23901 0.0
C1975 C 0.9911 0.40107 0.23266 0.0
C1976 C 0.96379 0.4478 0.24982 0.0
C1977 C 0.9823 0.42701 0.24722 0.0
C1978 C 0.96034 0.46215 0.25443 0.0
C1979 C 0.97022 0.46996 0.2631 0.0
C1980 C 0.97741 0.44139 0.25359 0.0
C1981 C 0.98326 0.46281 0.26745 0.0
C1982 C 0.99727 0.42309 0.24641 0.0
C1983 C 0.97622 0.40506 0.2343 0.0
N1984 N 0.9866 0.44905 0.26245 0.0
N1985 N 0.97229 0.41779 0.24122 0.0
H1986 H 0.95944 0.77588 0.49846 0.0
H1987 H 0.88679 0.74894 0.5031 0.0
H1988 H 0.96443 0.74262 0.46517 0.0
H1989 H 0.9066 0.70912 0.48602 0.0
H1990 H 0.91024 0.76153 0.49974 0.0
H1991 H 0.93464 0.76692 0.50363 0.0
C1992 C 0.9552 0.76692 0.49196 0.0
C1993 C 0.96412 0.75988 0.4814 0.0
C1994 C 0.90955 0.74997 0.49703 0.0
C1995 C 0.9358 0.74941 0.48738 0.0
C1996 C 0.89614 0.74275 0.49896 0.0
C1997 C 0.8947 0.7279 0.49492 0.0
C1998 C 0.92156 0.7423 0.49087 0.0
C1999 C 0.90716 0.72052 0.4894 0.0
C2000 C 0.94103 0.76175 0.49497 0.0
C2001 C 0.95809 0.74819 0.47352 0.0
N2002 N 0.91996 0.72783 0.48739 0.0
N2003 N 0.94445 0.74321 0.47679 0.0
H2004 H 0.5986 0.66301 0.77346 0.0
H2005 H 0.59027 0.72457 0.7097 0.0
H2006 H 0.6141 0.65761 0.72876 0.0
H2007 H 0.58051 0.73311 0.75541 0.0
H2008 H 0.595 0.69858 0.71607 0.0
H2009 H 0.58982 0.68789 0.76694 0.0
C2010 C 0.60032 0.66709 0.76233 0.0
C2011 C 0.60722 0.65818 0.75169 0.0
C2012 C 0.59193 0.70618 0.72472 0.0
C2013 C 0.59683 0.68656 0.74405 0.0
C2014 C 0.58908 0.72097 0.72106 0.0
C2015 C 0.58534 0.7311 0.73209 0.0
C2016 C 0.59159 0.7016 0.73957 0.0
C2017 C 0.58366 0.72575 0.74659 0.0
C2018 C 0.59519 0.68127 0.75859 0.0
C2019 C 0.60897 0.66406 0.73739 0.0
N2020 N 0.5871 0.71146 0.74997 0.0
N2021 N 0.60377 0.6778 0.734 0.0
H2022 H 0.70819 0.36941 0.98039 0.0
H2023 H 0.64079 0.34206 0.95928 0.0
H2024 H 0.69692 0.35603 0.02471 0.0
H2025 H 0.63097 0.33829 1.00566 0.0
H2026 H 0.66613 0.34774 0.96528 0.0
H2027 H 0.68442 0.36135 0.97204 0.0
C2028 C 0.70066 0.36481 0.98841 0.0
C2029 C 0.70464 0.36348 1.00331 0.0
C2030 C 0.6585 0.34596 0.97424 0.0
C2031 C 0.67725 0.35331 0.99363 0.0
C2032 C 0.644 0.34246 0.97075 0.0
C2033 C 0.63364 0.3401 0.98196 0.0
C2034 C 0.66257 0.34767 0.98912 0.0
C2035 C 0.63851 0.34038 0.99664 0.0
C2036 C 0.68705 0.3599 0.98356 0.0
C2037 C 0.69434 0.35738 0.01314 0.0
N2038 N 0.6525 0.34439 0.99979 0.0
N2039 N 0.68118 0.35249 1.00812 0.0
H2040 H 0.99674 0.62584 0.35302 0.0
H2041 H 1.00411 0.7119 0.34056 0.0
H2042 H 0.97486 0.64929 0.31775 0.0
H2043 H 0.03241 0.68696 0.36967 0.0
H2044 H 0.99556 0.68887 0.32995 0.0
H2045 H 0.01196 0.6474 0.35724 0.0
C2046 C 0.99533 0.63544 0.34596 0.0
C2047 C 0.98441 0.63577 0.33507 0.0
C2048 C 1.00386 0.68839 0.33844 0.0
C2049 C 1.00168 0.66072 0.34008 0.0
C2050 C 1.00881 0.70157 0.34448 0.0
C2051 C 0.01895 0.70138 0.3561 0.0
C2052 C 1.00886 0.67484 0.34423 0.0
C2053 C 0.02462 0.68765 0.36072 0.0
C2054 C 1.00404 0.64778 0.3484 0.0
C2055 C 0.98313 0.64852 0.32625 0.0
N2056 N 0.01929 0.67494 0.35498 0.0
N2057 N 0.99147 0.66056 0.32912 0.0
H2058 H 0.70198 0.74673 0.57483 0.0
H2059 H 0.64697 0.76797 0.62454 0.0
H2060 H 0.7031 0.70794 0.60266 0.0
H2061 H 0.63595 0.72182 0.62561 0.0
H2062 H 0.66781 0.76212 0.60824 0.0
H2063 H 0.6778 0.75315 0.58508 0.0
C2064 C 0.69697 0.73933 0.58278 0.0
C2065 C 0.7046 0.72678 0.58792 0.0
C2066 C 0.66061 0.75334 0.61178 0.0
C2067 C 0.6771 0.73423 0.59988 0.0
C2068 C 0.64877 0.75667 0.62115 0.0
C2069 C 0.63967 0.74539 0.62643 0.0
C2070 C 0.66353 0.73859 0.60793 0.0
C2071 C 0.64262 0.73089 0.62177 0.0
C2072 C 0.68328 0.74315 0.58879 0.0
C2073 C 0.69762 0.71772 0.59839 0.0
N2074 N 0.65443 0.72788 0.61303 0.0
N2075 N 0.68429 0.72164 0.60405 0.0
H2076 H 0.63174 0.38619 0.86318 0.0
H2077 H 0.61042 0.47079 0.84894 0.0
H2078 H 0.59218 0.40674 0.8799 0.0
H2079 H 0.6544 0.45303 0.84556 0.0
H2080 H 0.60127 0.44583 0.85326 0.0
H2081 H 0.63748 0.40893 0.84987 0.0
C2082 C 0.62408 0.39537 0.86382 0.0
C2083 C 0.61155 0.39459 0.87288 0.0
C2084 C 0.61288 0.44738 0.85126 0.0
C2085 C 0.61815 0.42075 0.85765 0.0
C2086 C 0.61812 0.46162 0.84865 0.0
C2087 C 0.63324 0.46406 0.84704 0.0
C2088 C 0.62282 0.43547 0.85211 0.0
C2089 C 0.64267 0.45171 0.84686 0.0
C2090 C 0.62742 0.40839 0.85624 0.0
C2091 C 0.60202 0.40686 0.87316 0.0
N2092 N 0.63733 0.43799 0.84954 0.0
N2093 N 0.6056 0.4195 0.86582 0.0
H2094 H 0.94711 0.3313 0.12252 0.0
H2095 H 0.89947 0.3961 0.08586 0.0
H2096 H 0.96351 0.37473 0.11249 0.0
H2097 H 0.87916 0.36466 0.1153 0.0
H2098 H 0.92327 0.3845 0.09077 0.0
H2099 H 0.92217 0.34019 0.11631 0.0
C2100 C 0.94548 0.34269 0.11918 0.0
C2101 C 0.95746 0.35228 0.11812 0.0
C2102 C 0.91357 0.38003 0.09601 0.0
C2103 C 0.92921 0.36229 0.11053 0.0
C2104 C 0.89994 0.38655 0.09309 0.0
C2105 C 0.88727 0.38143 0.10024 0.0
C2106 C 0.9146 0.36816 0.10603 0.0
C2107 C 0.88865 0.36902 0.1096 0.0
C2108 C 0.9313 0.34771 0.11557 0.0
C2109 C 0.9547 0.36691 0.11359 0.0
N2110 N 0.90208 0.36283 0.11229 0.0
N2111 N 0.94096 0.37138 0.10984 0.0
H2112 H 0.26881 0.9893 0.44094 0.0
H2113 H 0.24579 0.02137 0.37496 0.0
H2114 H 0.22578 1.00022 0.45783 0.0
H2115 H 0.20217 0.01846 0.39323 0.0
H2116 H 0.25591 0.01559 0.39909 0.0
H2117 H 0.26219 1.0007 0.41743 0.0
C2118 C 0.25808 0.99442 0.43982 0.0
C2119 C 0.24787 0.99375 0.45144 0.0
C2120 C 0.24412 0.01601 0.39793 0.0
C2121 C 0.24006 1.00707 0.42435 0.0
C2122 C 0.23829 0.01959 0.3841 0.0
C2123 C 0.22303 0.02006 0.38191 0.0
C2124 C 0.23465 0.01273 0.40978 0.0
C2125 C 0.21397 0.01784 0.39428 0.0
C2126 C 0.25425 1.00102 0.42632 0.0
C2127 C 0.23404 1.00042 0.44922 0.0
N2128 N 0.21989 0.01411 0.4076 0.0
N2129 N 0.23052 1.00663 0.43596 0.0
H2130 H 0.31704 0.9862 0.65099 0.0
H2131 H 0.3823 0.0201 0.69777 0.0
H2132 H 0.36087 0.99243 0.63413 0.0
H2133 H 0.35308 0.98896 0.71846 0.0
H2134 H 0.36986 0.01621 0.67427 0.0
H2135 H 0.32599 0.9925 0.67592 0.0
C2136 C 0.32849 0.98884 0.65252 0.0
C2137 C 0.33827 0.98855 0.64049 0.0
C2138 C 0.36603 1.01042 0.68403 0.0
C2139 C 0.34835 0.99628 0.66861 0.0
C2140 C 0.37305 0.01271 0.69747 0.0
C2141 C 0.36881 1.00478 0.71011 0.0
C2142 C 0.35449 1.00031 0.68319 0.0
C2143 C 0.35677 0.99525 0.70896 0.0
C2144 C 0.33356 0.99243 0.66668 0.0
C2145 C 0.35298 0.9922 0.64307 0.0
N2146 N 0.35004 0.99323 0.69573 0.0
N2147 N 0.3575 0.99602 0.65673 0.0
H2148 H 0.36097 0.13383 0.96683 0.0
H2149 H 0.35363 0.07221 0.90469 0.0
H2150 H 0.33158 0.09709 0.97132 0.0
H2151 H 0.37095 0.11551 0.89606 0.0
H2152 H 0.34763 0.07986 0.92997 0.0
H2153 H 0.3663 0.12643 0.94147 0.0
C2154 C 0.35545 0.12433 0.9624 0.0
C2155 C 0.34572 0.11614 0.97121 0.0
C2156 C 0.35282 0.08764 0.92254 0.0
C2157 C 0.35214 0.10731 0.94222 0.0
C2158 C 0.3564 0.08324 0.90815 0.0
C2159 C 0.36291 0.0932 0.8982 0.0
C2160 C 0.35593 0.10206 0.92709 0.0
C2161 C 0.36604 0.10741 0.9033 0.0
C2162 C 0.35857 0.12006 0.94793 0.0
C2163 C 0.33901 0.10383 0.96489 0.0
N2164 N 0.36256 0.11139 0.91734 0.0
N2165 N 0.34247 0.0997 0.95085 0.0
H2166 H 0.23169 0.0703 0.20812 0.0
H2167 H 0.28738 0.12125 0.16246 0.0
H2168 H 0.2568 0.10533 0.22716 0.0
H2169 H 0.2559 0.09245 0.14259 0.0
H2170 H 0.28094 0.11099 0.18674 0.0
H2171 H 0.24504 0.0738 0.18482 0.0
C2172 C 0.24026 0.07847 0.20753 0.0
C2173 C 0.243 0.08764 0.21959 0.0
C2174 C 0.27565 0.10671 0.17703 0.0
C2175 C 0.25823 0.09183 0.19288 0.0
C2176 C 0.27943 0.11248 0.16314 0.0
C2177 C 0.27207 0.10781 0.15047 0.0
C2178 C 0.26448 0.09616 0.17825 0.0
C2179 C 0.26175 0.09649 0.15207 0.0
C2180 C 0.24781 0.08054 0.19418 0.0
C2181 C 0.2542 0.0981 0.21812 0.0
N2182 N 0.25816 0.09118 0.16568 0.0
N2183 N 0.26127 0.10002 0.205 0.0
H2184 H 0.39223 0.24218 0.01403 0.0
H2185 H 0.45715 0.26897 0.98459 0.0
H2186 H 0.41379 0.19972 1.01095 0.0
H2187 H 0.47648 0.22704 0.99686 0.0
H2188 H 0.43425 0.26151 0.99629 0.0
H2189 H 0.4159 0.25409 1.01076 0.0
C2190 C 0.40198 0.23534 0.01289 0.0
C2191 C 0.40093 0.21989 0.01253 0.0
C2192 C 0.44356 0.25405 0.99688 0.0
C2193 C 0.42816 0.23351 1.00811 0.0
C2194 C 0.4567 0.25835 0.99011 0.0
C2195 C 0.46876 0.2486 0.98961 0.0
C2196 C 0.44243 0.23986 1.0032 0.0
C2197 C 0.46746 0.23491 0.99686 0.0
C2198 C 0.41554 0.24218 1.01077 0.0
C2199 C 0.41399 0.21165 1.01115 0.0
N2200 N 0.45451 0.23089 1.00313 0.0
N2201 N 0.42698 0.21855 1.00881 0.0
H2202 H 0.11553 0.88554 0.39359 0.0
H2203 H 0.10467 0.96184 0.35062 0.0
H2204 H 0.08268 0.88999 0.35972 0.0
H2205 H 0.1457 0.94708 0.36948 0.0
H2206 H 0.09437 0.93731 0.35569 0.0
H2207 H 0.124 0.91029 0.3878 0.0
C2208 C 0.10993 0.89179 0.38505 0.0
C2209 C 0.09845 0.88555 0.37703 0.0
C2210 C 0.10567 0.93945 0.35855 0.0
C2211 C 0.10823 0.91409 0.37027 0.0
C2212 C 0.11159 0.95341 0.35559 0.0
C2213 C 0.12612 0.95656 0.35957 0.0
C2214 C 0.11423 0.9287 0.36583 0.0
C2215 C 0.13449 0.9452 0.36611 0.0
C2216 C 0.11487 0.90592 0.38167 0.0
C2217 C 0.09155 0.89435 0.3662 0.0
N2218 N 0.12839 0.93191 0.36918 0.0
N2219 N 0.0966 0.90817 0.36307 0.0
H2220 H 0.15766 0.84785 0.4574 0.0
H2221 H 0.21452 0.88189 0.49143 0.0
H2222 H 0.13817 0.84408 0.50073 0.0
H2223 H 0.20562 0.85388 0.52895 0.0
H2224 H 0.19152 0.87448 0.48045 0.0
H2225 H 0.18084 0.85444 0.46873 0.0
C2226 C 0.15828 0.84821 0.46932 0.0
C2227 C 0.14584 0.84554 0.47809 0.0
C2228 C 0.1946 0.86984 0.49104 0.0
C2229 C 0.17235 0.85369 0.49118 0.0
C2230 C 0.20768 0.87427 0.49744 0.0
C2231 C 0.21218 0.86842 0.51106 0.0
C2232 C 0.18583 0.85937 0.49826 0.0
C2233 C 0.20264 0.85867 0.51841 0.0
C2234 C 0.17149 0.85223 0.47579 0.0
C2235 C 0.14744 0.84611 0.49352 0.0
N2236 N 0.18991 0.8544 0.51189 0.0
N2237 N 0.16042 0.8502 0.49958 0.0
H2238 H 0.46854 0.89161 0.73996 0.0
H2239 H 0.44984 0.96183 0.7655 0.0
H2240 H 0.51309 0.90682 0.743 0.0
H2241 H 0.49384 0.96328 0.78226 0.0
H2242 H 0.45496 0.93717 0.75573 0.0
H2243 H 0.46029 0.91289 0.75413 0.0
C2244 C 0.47663 0.89941 0.74365 0.0
C2245 C 0.49156 0.89743 0.7401 0.0
C2246 C 0.46341 0.94259 0.76193 0.0
C2247 C 0.48205 0.92227 0.75612 0.0
C2248 C 0.46045 0.95672 0.76746 0.0
C2249 C 0.47139 0.96448 0.77476 0.0
C2250 C 0.47754 0.93629 0.76353 0.0
C2251 C 0.48505 0.95753 0.77686 0.0
C2252 C 0.47185 0.91171 0.75164 0.0
C2253 C 0.50147 0.90788 0.74536 0.0
N2254 N 0.48782 0.94396 0.77106 0.0
N2255 N 0.49654 0.91985 0.75303 0.0
H2256 H 0.09781 0.16455 0.27544 0.0
H2257 H 0.08929 0.22474 0.21039 0.0
H2258 H 0.11393 0.15857 0.23103 0.0
H2259 H 0.07876 0.23415 0.25573 0.0
H2260 H 0.09513 0.19919 0.2175 0.0
H2261 H 0.08912 0.18936 0.26847 0.0
C2262 C 0.0997 0.1685 0.26429 0.0
C2263 C 0.10671 0.15943 0.25384 0.0
C2264 C 0.09161 0.20686 0.22591 0.0
C2265 C 0.09643 0.18771 0.24569 0.0
C2266 C 0.08816 0.2214 0.22184 0.0
C2267 C 0.08396 0.2317 0.23252 0.0
C2268 C 0.09106 0.2026 0.24085 0.0
C2269 C 0.08223 0.22666 0.24714 0.0
C2270 C 0.09462 0.18263 0.26029 0.0
C2271 C 0.10868 0.16513 0.23951 0.0
N2272 N 0.08604 0.21255 0.25092 0.0
N2273 N 0.10352 0.17881 0.23587 0.0
H2274 H 0.48728 0.14329 0.83679 0.0
H2275 H 0.50915 0.20201 0.89636 0.0
H2276 H 0.48367 0.13445 0.8835 0.0
H2277 H 0.53128 0.20052 0.85437 0.0
H2278 H 0.49872 0.1777 0.89155 0.0
H2279 H 0.50254 0.16479 0.84229 0.0
C2280 C 0.48983 0.14573 0.84816 0.0
C2281 C 0.48412 0.13704 0.85968 0.0
C2282 C 0.50607 0.18255 0.88348 0.0
C2283 C 0.50129 0.16173 0.86604 0.0
C2284 C 0.51201 0.1964 0.88626 0.0
C2285 C 0.52117 0.20316 0.87585 0.0
C2286 C 0.50894 0.1756 0.86994 0.0
C2287 C 0.52446 0.19552 0.86281 0.0
C2288 C 0.49854 0.15799 0.85129 0.0
C2289 C 0.48777 0.14079 0.87423 0.0
N2290 N 0.51815 0.18225 0.86009 0.0
N2291 N 0.49591 0.15293 0.87698 0.0
H2292 H 0.20475 0.23849 0.07494 0.0
H2293 H 0.1589 0.26745 0.14265 0.0
H2294 H 0.21836 0.23114 0.1199 0.0
H2295 H 0.13577 0.24128 0.11096 0.0
H2296 H 0.18198 0.26135 0.13008 0.0
H2297 H 0.18003 0.24532 0.08415 0.0
C2298 C 0.20255 0.23812 0.08668 0.0
C2299 C 0.21372 0.23422 0.09666 0.0
C2300 C 0.17179 0.25717 0.12575 0.0
C2301 C 0.18586 0.24256 0.10715 0.0
C2302 C 0.15861 0.26074 0.13282 0.0
C2303 C 0.14538 0.25481 0.12789 0.0
C2304 C 0.17177 0.24787 0.11346 0.0
C2305 C 0.14574 0.24603 0.11515 0.0
C2306 C 0.1885 0.24207 0.09189 0.0
C2307 C 0.21022 0.23404 0.11177 0.0
N2308 N 0.15876 0.24279 0.10835 0.0
N2309 N 0.19674 0.23839 0.11654 0.0
H2310 H 0.39688 0.90559 0.59503 0.0
H2311 H 0.44395 0.83452 0.62051 0.0
H2312 H 0.37728 0.86323 0.60354 0.0
H2313 H 0.46128 0.8783 0.61485 0.0
H2314 H 0.41964 0.84406 0.61323 0.0
H2315 H 0.42093 0.89481 0.60018 0.0
C2316 C 0.39764 0.89394 0.5977 0.0
C2317 C 0.38498 0.88535 0.59888 0.0
C2318 C 0.42878 0.85156 0.61369 0.0
C2319 C 0.41262 0.87292 0.60517 0.0
C2320 C 0.44263 0.84614 0.61794 0.0
C2321 C 0.4547 0.85563 0.6185 0.0
C2322 C 0.42703 0.86655 0.60986 0.0
C2323 C 0.45234 0.87057 0.61486 0.0
C2324 C 0.41141 0.8878 0.60079 0.0
C2325 C 0.38673 0.8703 0.60247 0.0
N2326 N 0.43887 0.87551 0.61068 0.0
N2327 N 0.40026 0.8646 0.60562 0.0
H2328 H 0.77131 0.49229 0.94327 0.0
H2329 H 0.74909 0.51543 0.87347 0.0
H2330 H 0.72511 0.49099 0.95358 0.0
H2331 H 0.70617 0.52233 0.89247 0.0
H2332 H 0.75836 0.50836 0.89753 0.0
H2333 H 0.76563 0.50528 0.92034 0.0
C2334 C 0.75996 0.49478 0.94073 0.0
C2335 C 0.7487 0.49036 0.95037 0.0
C2336 C 0.747 0.51174 0.89672 0.0
C2337 C 0.74189 0.50491 0.9236 0.0
C2338 C 0.74166 0.51583 0.88282 0.0
C2339 C 0.72673 0.51926 0.88083 0.0
C2340 C 0.73739 0.51117 0.90892 0.0
C2341 C 0.7177 0.51954 0.89342 0.0
C2342 C 0.75664 0.5021 0.92745 0.0
C2343 C 0.73419 0.49405 0.94648 0.0
N2344 N 0.7231 0.51532 0.90684 0.0
N2345 N 0.73122 0.50096 0.93341 0.0
H2346 H 0.86458 0.52196 0.18588 0.0
H2347 H 0.83143 0.45954 0.13573 0.0
H2348 H 0.85474 0.47831 0.20214 0.0
H2349 H 0.8307 0.50538 0.12298 0.0
H2350 H 0.83675 0.46678 0.16115 0.0
H2351 H 0.85035 0.51684 0.16363 0.0
C2352 C 0.85925 0.5114 0.18491 0.0
C2353 C 0.86099 0.50053 0.19592 0.0
C2354 C 0.83533 0.4753 0.15283 0.0
C2355 C 0.84477 0.49452 0.17033 0.0
C2356 C 0.83223 0.47115 0.13832 0.0
C2357 C 0.83112 0.48183 0.12711 0.0
C2358 C 0.838 0.49019 0.15601 0.0
C2359 C 0.83196 0.49673 0.13116 0.0
C2360 C 0.85111 0.50847 0.17218 0.0
C2361 C 0.85381 0.48703 0.19397 0.0
N2362 N 0.8358 0.50045 0.14515 0.0
N2363 N 0.84623 0.48435 0.18139 0.0
H2364 H 0.86349 0.57823 0.39931 0.0
H2365 H 0.83619 0.64457 0.45147 0.0
H2366 H 0.85754 0.62315 0.38432 0.0
H2367 H 0.84954 0.60191 0.46825 0.0
H2368 H 0.84177 0.63616 0.42639 0.0
H2369 H 0.85688 0.58605 0.42439 0.0
C2370 C 0.86096 0.58975 0.40129 0.0
C2371 C 0.86126 0.60005 0.38964 0.0
C2372 C 0.84342 0.62861 0.43555 0.0
C2373 C 0.85335 0.60904 0.41829 0.0
C2374 C 0.8402 0.63341 0.44988 0.0
C2375 C 0.84266 0.62407 0.46204 0.0
C2376 C 0.84896 0.61424 0.43331 0.0
C2377 C 0.84753 0.60956 0.45925 0.0
C2378 C 0.85712 0.5942 0.41561 0.0
C2379 C 0.85771 0.61482 0.39291 0.0
N2380 N 0.85061 0.60515 0.44524 0.0
N2381 N 0.85386 0.61883 0.40684 0.0
H2382 H 0.75576 0.58922 0.63022 0.0
H2383 H 0.73591 0.56665 0.70061 0.0
H2384 H 0.78471 0.61997 0.651 0.0
H2385 H 0.75531 0.60757 0.71397 0.0
H2386 H 0.74821 0.569 0.6767 0.0
H2387 H 0.74957 0.57903 0.65428 0.0
C2388 C 0.76117 0.59355 0.63984 0.0
C2389 C 0.77071 0.60556 0.63853 0.0
C2390 C 0.74979 0.57752 0.68479 0.0
C2391 C 0.76363 0.59387 0.66647 0.0
C2392 C 0.7429 0.57604 0.69858 0.0
C2393 C 0.74435 0.58705 0.70926 0.0
C2394 C 0.75808 0.5902 0.68158 0.0
C2395 C 0.75366 0.59891 0.70602 0.0
C2396 C 0.75764 0.58766 0.6537 0.0
C2397 C 0.77731 0.61072 0.65144 0.0
N2398 N 0.76001 0.60024 0.69247 0.0
N2399 N 0.77343 0.60505 0.66485 0.0
loop_
_geom_bond_atom_site_label_1
_geom_bond_atom_site_label_2
_geom_bond_distance
_geom_bond_site_symmetry_2
_ccdc_geom_bond_type
O0 Cd1 2.223 1_655 S
O0 C8 1.315 . S
Cd1 O0 2.223 1_455 S
Cd1 O4 2.297 1_455 S
Cd1 O5 2.439 1_455 S
Cd1 O11 2.240 . S
Cd2 O3 2.240 . S
Cd2 O10 2.223 1_655 S
Cd2 O12 2.297 1_655 S
Cd2 O13 2.439 1_655 S
O3 Cd2 2.240 . S
O3 C8 1.279 . S
O4 Cd1 2.297 1_655 S
O4 C6 1.247 . S
O5 Cd1 2.439 1_655 S
O5 C6 1.208 . S
C6 O4 1.247 . S
C6 O5 1.208 . S
C7 O12 1.247 . S
C7 O13 1.208 . S
C8 O0 1.315 . S
C8 O3 1.279 . S
C9 O10 1.315 . S
C9 O11 1.279 . S
O10 Cd2 2.223 1_455 S
O10 C9 1.315 . S
O11 Cd1 2.240 . S
O11 C9 1.279 . S
O12 Cd2 2.297 1_455 S
O12 C7 1.247 . S
O13 Cd2 2.439 1_455 S
O13 C7 1.208 . S
O14 Cd15 2.223 . S
O14 C22 1.315 . S
Cd15 O14 2.223 . S
Cd15 O18 2.297 . S
Cd15 O19 2.439 . S
Cd15 O25 2.240 1_655 S
Cd16 O17 2.245 1_455 S
Cd16 O24 2.223 . S
Cd16 O26 2.297 . S
Cd16 O27 2.439 . S
O17 Cd16 2.245 1_655 S
O17 C22 1.278 . S
O18 Cd15 2.297 . S
O18 C20 1.247 . S
O19 Cd15 2.439 . S
O19 C20 1.208 . S
C20 O18 1.247 . S
C20 O19 1.208 . S
C21 O26 1.247 . S
C21 O27 1.208 . S
C22 O14 1.315 . S
C22 O17 1.278 . S
C23 O24 1.315 . S
C23 O25 1.279 . S
O24 Cd16 2.223 . S
O24 C23 1.315 . S
O25 Cd15 2.240 1_455 S
O25 C23 1.279 . S
O26 Cd16 2.297 . S
O26 C21 1.247 . S
O27 Cd16 2.439 . S
O27 C21 1.208 . S
O28 Cd29 2.223 . S
O28 C36 1.315 . S
Cd29 O28 2.223 . S
Cd29 O32 2.297 . S
Cd29 O33 2.439 . S
Cd29 O39 2.240 . S
Cd30 O31 2.240 . S
Cd30 O38 2.223 . S
Cd30 O40 2.297 . S
Cd30 O41 2.439 . S
O31 Cd30 2.240 . S
O31 C36 1.279 . S
O32 Cd29 2.297 . S
O32 C34 1.247 . S
O33 Cd29 2.439 . S
O33 C34 1.208 . S
C34 O32 1.247 . S
C34 O33 1.208 . S
C35 O40 1.247 . S
C35 O41 1.208 . S
C36 O28 1.315 . S
C36 O31 1.279 . S
C37 O38 1.315 . S
C37 O39 1.279 . S
O38 Cd30 2.223 . S
O38 C37 1.315 . S
O39 Cd29 2.240 . S
O39 C37 1.279 . S
O40 Cd30 2.297 . S
O40 C35 1.247 . S
O41 Cd30 2.439 . S
O41 C35 1.208 . S
O42 Cd43 2.223 . S
O42 C50 1.315 . S
Cd43 O42 2.223 . S
Cd43 O46 2.297 . S
Cd43 O47 2.439 . S
Cd43 O53 2.240 . S
Cd44 O45 2.240 . S
Cd44 O52 2.223 . S
Cd44 O54 2.297 . S
Cd44 O55 2.439 . S
O45 Cd44 2.240 . S
O45 C50 1.279 . S
O46 Cd43 2.297 . S
O46 C48 1.247 . S
O47 Cd43 2.439 . S
O47 C48 1.208 . S
C48 O46 1.247 . S
C48 O47 1.208 . S
C49 O54 1.242 . S
C49 O55 1.208 . S
C50 O42 1.315 . S
C50 O45 1.279 . S
C51 O52 1.315 . S
C51 O53 1.279 . S
O52 Cd44 2.223 . S
O52 C51 1.315 . S
O53 Cd43 2.240 . S
O53 C51 1.279 . S
O54 Cd44 2.297 . S
O54 C49 1.242 . S
O55 Cd44 2.439 . S
O55 C49 1.208 . S
O56 Cd57 2.223 1_655 S
O56 C64 1.315 . S
Cd57 O56 2.223 1_455 S
Cd57 O60 2.297 1_455 S
Cd57 O61 2.439 1_455 S
Cd57 O67 2.240 . S
Cd58 O59 2.240 . S
Cd58 O66 2.223 1_655 S
Cd58 O68 2.297 1_655 S
Cd58 O69 2.439 1_655 S
O59 Cd58 2.240 . S
O59 C64 1.279 . S
O60 Cd57 2.297 1_655 S
O60 C62 1.247 . S
O61 Cd57 2.439 1_655 S
O61 C62 1.208 . S
C62 O60 1.247 . S
C62 O61 1.208 . S
C63 O68 1.247 . S
C63 O69 1.208 . S
C64 O56 1.315 . S
C64 O59 1.279 . S
C65 O66 1.315 . S
C65 O67 1.279 . S
O66 Cd58 2.223 1_455 S
O66 C65 1.315 . S
O67 Cd57 2.240 . S
O67 C65 1.279 . S
O68 Cd58 2.297 1_455 S
O68 C63 1.247 . S
O69 Cd58 2.439 1_455 S
O69 C63 1.208 . S
O70 Cd71 2.223 . S
O70 C78 1.315 . S
Cd71 O70 2.223 . S
Cd71 O74 2.297 . S
Cd71 O75 2.439 . S
Cd71 O81 2.240 . S
Cd72 O73 2.240 . S
Cd72 O80 2.223 . S
Cd72 O82 2.297 . S
Cd72 O83 2.439 . S
O73 Cd72 2.240 . S
O73 C78 1.279 . S
O74 Cd71 2.297 . S
O74 C76 1.247 . S
O75 Cd71 2.439 . S
O75 C76 1.208 . S
C76 O74 1.247 . S
C76 O75 1.208 . S
C77 O82 1.247 . S
C77 O83 1.208 . S
C78 O70 1.315 . S
C78 O73 1.279 . S
C79 O80 1.315 . S
C79 O81 1.279 . S
O80 Cd72 2.223 . S
O80 C79 1.315 . S
O81 Cd71 2.240 . S
O81 C79 1.279 . S
O82 Cd72 2.297 . S
O82 C77 1.247 . S
O83 Cd72 2.439 . S
O83 C77 1.208 . S
O84 Cd85 2.223 . S
O84 C92 1.315 . S
Cd85 O84 2.223 . S
Cd85 O88 2.297 . S
Cd85 O89 2.439 . S
Cd85 O95 2.240 . S
Cd86 O87 2.240 . S
Cd86 O94 2.223 . S
Cd86 O96 2.297 . S
Cd86 O97 2.439 . S
O87 Cd86 2.240 . S
O87 C92 1.279 . S
O88 Cd85 2.297 . S
O88 C90 1.247 . S
O89 Cd85 2.439 . S
O89 C90 1.208 . S
C90 O88 1.247 . S
C90 O89 1.208 . S
C91 O96 1.247 . S
C91 O97 1.208 . S
C92 O84 1.315 . S
C92 O87 1.279 . S
C93 O94 1.315 . S
C93 O95 1.279 . S
O94 Cd86 2.223 . S
O94 C93 1.315 . S
O95 Cd85 2.240 . S
O95 C93 1.279 . S
O96 Cd86 2.297 . S
O96 C91 1.247 . S
O97 Cd86 2.439 . S
O97 C91 1.208 . S
O98 Cd99 2.223 . S
O98 C106 1.315 . S
Cd99 O98 2.223 . S
Cd99 O102 2.297 . S
Cd99 O103 2.439 . S
Cd99 O109 2.240 1_655 S
Cd100 O101 2.248 . S
Cd100 O108 2.223 . S
Cd100 O110 2.297 . S
Cd100 O111 2.439 . S
O101 Cd100 2.248 . S
O101 C106 1.277 1_455 S
O102 Cd99 2.297 . S
O102 C104 1.247 . S
O103 Cd99 2.439 . S
O103 C104 1.208 . S
C104 O102 1.247 . S
C104 O103 1.208 . S
C105 O110 1.247 . S
C105 O111 1.208 . S
C106 O98 1.315 . S
C106 O101 1.277 1_655 S
C107 O108 1.315 . S
C107 O109 1.279 . S
O108 Cd100 2.223 . S
O108 C107 1.315 . S
O109 Cd99 2.240 1_455 S
O109 C107 1.279 . S
O110 Cd100 2.297 . S
O110 C105 1.247 . S
O111 Cd100 2.439 . S
O111 C105 1.208 . S
O112 Cd113 2.223 1_565 S
O112 C120 1.315 . S
Cd113 O112 2.223 1_545 S
Cd113 O116 2.297 1_545 S
Cd113 O117 2.439 1_545 S
Cd113 O123 2.240 . S
Cd114 O115 2.240 . S
Cd114 O122 2.223 1_565 S
Cd114 O124 2.297 1_565 S
Cd114 O125 2.439 1_565 S
O115 Cd114 2.240 . S
O115 C120 1.279 . S
O116 Cd113 2.297 1_565 S
O116 C118 1.247 . S
O117 Cd113 2.439 1_565 S
O117 C118 1.208 . S
C118 O116 1.247 . S
C118 O117 1.208 . S
C119 O124 1.247 . S
C119 O125 1.208 . S
C120 O112 1.315 . S
C120 O115 1.279 . S
C121 O122 1.315 . S
C121 O123 1.279 . S
O122 Cd114 2.223 1_545 S
O122 C121 1.315 . S
O123 Cd113 2.240 . S
O123 C121 1.279 . S
O124 Cd114 2.297 1_545 S
O124 C119 1.247 . S
O125 Cd114 2.439 1_545 S
O125 C119 1.208 . S
O126 Cd127 2.223 . S
O126 C134 1.315 . S
Cd127 O126 2.223 . S
Cd127 O130 2.297 . S
Cd127 O131 2.439 . S
Cd127 O137 2.240 . S
Cd128 O129 2.240 . S
Cd128 O136 2.223 . S
Cd128 O138 2.297 . S
Cd128 O139 2.439 . S
O129 Cd128 2.240 . S
O129 C134 1.279 . S
O130 Cd127 2.297 . S
O130 C132 1.247 . S
O131 Cd127 2.439 . S
O131 C132 1.208 . S
C132 O130 1.247 . S
C132 O131 1.208 . S
C133 O138 1.242 . S
C133 O139 1.208 . S
C134 O126 1.315 . S
C134 O129 1.279 . S
C135 O136 1.315 . S
C135 O137 1.279 . S
O136 Cd128 2.223 . S
O136 C135 1.315 . S
O137 Cd127 2.240 . S
O137 C135 1.279 . S
O138 Cd128 2.297 . S
O138 C133 1.242 . S
O139 Cd128 2.439 . S
O139 C133 1.208 . S
O140 Cd141 2.223 . S
O140 C148 1.315 . S
Cd141 O140 2.223 . S
Cd141 O144 2.297 . S
Cd141 O145 2.439 . S
Cd141 O151 2.240 . S
Cd142 O143 2.240 . S
Cd142 O150 2.223 . S
Cd142 O152 2.297 . S
Cd142 O153 2.439 . S
O143 Cd142 2.240 . S
O143 C148 1.279 . S
O144 Cd141 2.297 . S
O144 C146 1.247 . S
O145 Cd141 2.439 . S
O145 C146 1.208 . S
C146 O144 1.247 . S
C146 O145 1.208 . S
C147 O152 1.247 . S
C147 O153 1.208 . S
C148 O140 1.315 . S
C148 O143 1.279 . S
C149 O150 1.315 . S
C149 O151 1.279 . S
O150 Cd142 2.223 . S
O150 C149 1.315 . S
O151 Cd141 2.240 . S
O151 C149 1.279 . S
O152 Cd142 2.297 . S
O152 C147 1.247 . S
O153 Cd142 2.439 . S
O153 C147 1.208 . S
O154 Cd155 2.223 . S
O154 C162 1.315 . S
Cd155 O154 2.223 . S
Cd155 O158 2.297 . S
Cd155 O159 2.439 . S
Cd155 O165 2.240 . S
Cd156 O157 2.240 . S
Cd156 O164 2.223 . S
Cd156 O166 2.297 . S
Cd156 O167 2.439 . S
O157 Cd156 2.240 . S
O157 C162 1.279 . S
O158 Cd155 2.297 . S
O158 C160 1.247 . S
O159 Cd155 2.439 . S
O159 C160 1.208 . S
C160 O158 1.247 . S
C160 O159 1.208 . S
C161 O166 1.247 . S
C161 O167 1.208 . S
C162 O154 1.315 . S
C162 O157 1.279 . S
C163 O164 1.315 . S
C163 O165 1.279 . S
O164 Cd156 2.223 . S
O164 C163 1.315 . S
O165 Cd155 2.240 . S
O165 C163 1.279 . S
O166 Cd156 2.297 . S
O166 C161 1.247 . S
O167 Cd156 2.439 . S
O167 C161 1.208 . S
O168 Cd169 2.223 . S
O168 C176 1.315 . S
Cd169 O168 2.223 . S
Cd169 O172 2.297 . S
Cd169 O173 2.439 . S
Cd169 O179 2.240 . S
Cd170 O171 2.240 . S
Cd170 O178 2.223 . S
Cd170 O180 2.297 . S
Cd170 O181 2.439 . S
O171 Cd170 2.240 . S
O171 C176 1.279 . S
O172 Cd169 2.297 . S
O172 C174 1.247 . S
O173 Cd169 2.439 . S
O173 C174 1.208 . S
C174 O172 1.247 . S
C174 O173 1.208 . S
C175 O180 1.247 . S
C175 O181 1.208 . S
C176 O168 1.315 . S
C176 O171 1.279 . S
C177 O178 1.315 . S
C177 O179 1.279 . S
O178 Cd170 2.223 . S
O178 C177 1.315 . S
O179 Cd169 2.240 . S
O179 C177 1.279 . S
O180 Cd170 2.297 . S
O180 C175 1.247 . S
O181 Cd170 2.439 . S
O181 C175 1.208 . S
O182 Cd183 2.223 . S
O182 C190 1.315 . S
Cd183 O182 2.223 . S
Cd183 O186 2.297 . S
Cd183 O187 2.439 . S
Cd183 O193 2.240 . S
Cd184 O185 2.240 . S
Cd184 O192 2.223 . S
Cd184 O194 2.297 . S
Cd184 O195 2.481 . S
O185 Cd184 2.240 . S
O185 C190 1.279 . S
O186 Cd183 2.297 . S
O186 C188 1.247 . S
O187 Cd183 2.439 . S
O187 C188 1.208 . S
C188 O186 1.247 . S
C188 O187 1.208 . S
C189 O194 1.247 1_545 S
C189 O195 1.202 1_545 S
C190 O182 1.315 . S
C190 O185 1.279 . S
C191 O192 1.315 . S
C191 O193 1.279 . S
O192 Cd184 2.223 . S
O192 C191 1.315 . S
O193 Cd183 2.240 . S
O193 C191 1.279 . S
O194 Cd184 2.297 . S
O194 C189 1.247 1_565 S
O195 Cd184 2.481 . S
O195 C189 1.202 1_565 S
O196 Cd197 2.223 1_565 S
O196 C204 1.315 . S
Cd197 O196 2.223 1_545 S
Cd197 O200 2.297 1_545 S
Cd197 O201 2.439 1_545 S
Cd197 O207 2.240 . S
Cd198 O199 2.240 . S
Cd198 O206 2.223 1_565 S
Cd198 O208 2.297 1_565 S
Cd198 O209 2.439 1_565 S
O199 Cd198 2.240 . S
O199 C204 1.279 . S
O200 Cd197 2.297 1_565 S
O200 C202 1.247 . S
O201 Cd197 2.439 1_565 S
O201 C202 1.208 . S
C202 O200 1.247 . S
C202 O201 1.208 . S
C203 O208 1.247 . S
C203 O209 1.208 . S
C204 O196 1.315 . S
C204 O199 1.279 . S
C205 O206 1.315 . S
C205 O207 1.279 . S
O206 Cd198 2.223 1_545 S
O206 C205 1.315 . S
O207 Cd197 2.240 . S
O207 C205 1.279 . S
O208 Cd198 2.297 1_545 S
O208 C203 1.247 . S
O209 Cd198 2.439 1_545 S
O209 C203 1.208 . S
O210 Cd211 2.223 . S
O210 C218 1.315 . S
Cd211 O210 2.223 . S
Cd211 O214 2.297 . S
Cd211 O215 2.439 . S
Cd211 O221 2.240 1_556 S
Cd212 O213 2.248 . S
Cd212 O220 2.223 . S
Cd212 O222 2.297 . S
Cd212 O223 2.439 . S
O213 Cd212 2.248 . S
O213 C218 1.277 1_554 S
O214 Cd211 2.297 . S
O214 C216 1.247 . S
O215 Cd211 2.439 . S
O215 C216 1.208 . S
C216 O214 1.247 . S
C216 O215 1.208 . S
C217 O222 1.247 . S
C217 O223 1.208 . S
C218 O210 1.315 . S
C218 O213 1.277 1_556 S
C219 O220 1.315 . S
C219 O221 1.279 . S
O220 Cd212 2.223 . S
O220 C219 1.315 . S
O221 Cd211 2.240 1_554 S
O221 C219 1.279 . S
O222 Cd212 2.297 . S
O222 C217 1.247 . S
O223 Cd212 2.439 . S
O223 C217 1.208 . S
O224 Cd225 2.223 1_556 S
O224 C232 1.315 . S
Cd225 O224 2.223 1_554 S
Cd225 O228 2.297 1_554 S
Cd225 O229 2.439 1_554 S
Cd225 O235 2.240 . S
Cd226 O227 2.240 . S
Cd226 O234 2.223 1_556 S
Cd226 O236 2.297 1_556 S
Cd226 O237 2.439 1_556 S
O227 Cd226 2.240 . S
O227 C232 1.279 . S
O228 Cd225 2.297 1_556 S
O228 C230 1.247 . S
O229 Cd225 2.439 1_556 S
O229 C230 1.208 . S
C230 O228 1.247 . S
C230 O229 1.208 . S
C231 O236 1.247 . S
C231 O237 1.208 . S
C232 O224 1.315 . S
C232 O227 1.279 . S
C233 O234 1.315 . S
C233 O235 1.279 . S
O234 Cd226 2.223 1_554 S
O234 C233 1.315 . S
O235 Cd225 2.240 . S
O235 C233 1.279 . S
O236 Cd226 2.297 1_554 S
O236 C231 1.247 . S
O237 Cd226 2.439 1_554 S
O237 C231 1.208 . S
O238 Cd239 2.223 . S
O238 C246 1.315 . S
Cd239 O238 2.223 . S
Cd239 O242 2.297 . S
Cd239 O243 2.439 . S
Cd239 O249 2.240 . S
Cd240 O241 2.240 . S
Cd240 O248 2.223 . S
Cd240 O250 2.297 . S
Cd240 O251 2.439 . S
O241 Cd240 2.240 . S
O241 C246 1.279 . S
O242 Cd239 2.297 . S
O242 C244 1.247 . S
O243 Cd239 2.439 . S
O243 C244 1.208 . S
C244 O242 1.247 . S
C244 O243 1.208 . S
C245 O250 1.247 . S
C245 O251 1.208 . S
C246 O238 1.315 . S
C246 O241 1.279 . S
C247 O248 1.315 . S
C247 O249 1.279 . S
O248 Cd240 2.223 . S
O248 C247 1.315 . S
O249 Cd239 2.240 . S
O249 C247 1.279 . S
O250 Cd240 2.297 . S
O250 C245 1.247 . S
O251 Cd240 2.439 . S
O251 C245 1.208 . S
O252 Cd253 2.223 . S
O252 C260 1.315 . S
Cd253 O252 2.223 . S
Cd253 O256 2.297 . S
Cd253 O257 2.439 . S
Cd253 O263 2.240 . S
Cd254 O255 2.240 . S
Cd254 O262 2.223 . S
Cd254 O264 2.297 . S
Cd254 O265 2.439 . S
O255 Cd254 2.240 . S
O255 C260 1.279 . S
O256 Cd253 2.297 . S
O256 C258 1.247 . S
O257 Cd253 2.439 . S
O257 C258 1.208 . S
C258 O256 1.247 . S
C258 O257 1.208 . S
C259 O264 1.242 . S
C259 O265 1.208 . S
C260 O252 1.315 . S
C260 O255 1.279 . S
C261 O262 1.315 . S
C261 O263 1.279 . S
O262 Cd254 2.223 . S
O262 C261 1.315 . S
O263 Cd253 2.240 . S
O263 C261 1.279 . S
O264 Cd254 2.297 . S
O264 C259 1.242 . S
O265 Cd254 2.439 . S
O265 C259 1.208 . S
O266 Cd267 2.223 . S
O266 C274 1.315 . S
Cd267 O266 2.223 . S
Cd267 O270 2.297 . S
Cd267 O271 2.439 . S
Cd267 O277 2.240 . S
Cd268 O269 2.240 . S
Cd268 O276 2.223 . S
Cd268 O278 2.297 . S
Cd268 O279 2.439 . S
O269 Cd268 2.240 . S
O269 C274 1.279 . S
O270 Cd267 2.297 . S
O270 C272 1.247 . S
O271 Cd267 2.439 . S
O271 C272 1.208 . S
C272 O270 1.247 . S
C272 O271 1.208 . S
C273 O278 1.247 . S
C273 O279 1.208 . S
C274 O266 1.315 . S
C274 O269 1.279 . S
C275 O276 1.315 . S
C275 O277 1.279 . S
O276 Cd268 2.223 . S
O276 C275 1.315 . S
O277 Cd267 2.240 . S
O277 C275 1.279 . S
O278 Cd268 2.297 . S
O278 C273 1.247 . S
O279 Cd268 2.439 . S
O279 C273 1.208 . S
O280 Cd281 2.223 . S
O280 C288 1.315 . S
Cd281 O280 2.223 . S
Cd281 O284 2.297 . S
Cd281 O285 2.439 . S
Cd281 O291 2.240 1_565 S
Cd282 O283 2.248 . S
Cd282 O290 2.223 . S
Cd282 O292 2.297 . S
Cd282 O293 2.439 . S
O283 Cd282 2.248 . S
O283 C288 1.277 1_545 S
O284 Cd281 2.297 . S
O284 C286 1.247 . S
O285 Cd281 2.439 . S
O285 C286 1.208 . S
C286 O284 1.247 . S
C286 O285 1.208 . S
C287 O292 1.247 . S
C287 O293 1.208 . S
C288 O280 1.315 . S
C288 O283 1.277 1_565 S
C289 O290 1.315 . S
C289 O291 1.279 . S
O290 Cd282 2.223 . S
O290 C289 1.315 . S
O291 Cd281 2.240 1_545 S
O291 C289 1.279 . S
O292 Cd282 2.297 . S
O292 C287 1.247 . S
O293 Cd282 2.439 . S
O293 C287 1.208 . S
O294 Cd295 2.223 . S
O294 C302 1.315 . S
Cd295 O294 2.223 . S
Cd295 O298 2.297 . S
Cd295 O299 2.439 . S
Cd295 O305 2.240 . S
Cd296 O297 2.240 . S
Cd296 O304 2.223 . S
Cd296 O306 2.297 . S
Cd296 O307 2.439 . S
O297 Cd296 2.240 . S
O297 C302 1.279 . S
O298 Cd295 2.297 . S
O298 C300 1.247 . S
O299 Cd295 2.439 . S
O299 C300 1.208 . S
C300 O298 1.247 . S
C300 O299 1.208 . S
C301 O306 1.247 . S
C301 O307 1.208 . S
C302 O294 1.315 . S
C302 O297 1.279 . S
C303 O304 1.315 . S
C303 O305 1.279 . S
O304 Cd296 2.223 . S
O304 C303 1.315 . S
O305 Cd295 2.240 . S
O305 C303 1.279 . S
O306 Cd296 2.297 . S
O306 C301 1.247 . S
O307 Cd296 2.439 . S
O307 C301 1.208 . S
O308 Cd309 2.223 . S
O308 C316 1.315 . S
Cd309 O308 2.223 . S
Cd309 O312 2.297 . S
Cd309 O313 2.439 . S
Cd309 O319 2.240 . S
Cd310 O311 2.240 . S
Cd310 O318 2.223 . S
Cd310 O320 2.297 . S
Cd310 O321 2.481 . S
O311 Cd310 2.240 . S
O311 C316 1.279 . S
O312 Cd309 2.297 . S
O312 C314 1.247 . S
O313 Cd309 2.439 . S
O313 C314 1.208 . S
C314 O312 1.247 . S
C314 O313 1.208 . S
C315 O320 1.247 1_455 S
C315 O321 1.202 1_455 S
C316 O308 1.315 . S
C316 O311 1.279 . S
C317 O318 1.315 . S
C317 O319 1.279 . S
O318 Cd310 2.223 . S
O318 C317 1.315 . S
O319 Cd309 2.240 . S
O319 C317 1.279 . S
O320 Cd310 2.297 . S
O320 C315 1.247 1_655 S
O321 Cd310 2.481 . S
O321 C315 1.202 1_655 S
O322 Cd323 2.223 . S
O322 C330 1.315 . S
Cd323 O322 2.223 . S
Cd323 O326 2.297 . S
Cd323 O327 2.439 . S
Cd323 O333 2.240 . S
Cd324 O325 2.240 . S
Cd324 O332 2.223 . S
Cd324 O334 2.297 . S
Cd324 O335 2.439 . S
O325 Cd324 2.240 . S
O325 C330 1.279 . S
O326 Cd323 2.297 . S
O326 C328 1.247 . S
O327 Cd323 2.439 . S
O327 C328 1.208 . S
C328 O326 1.247 . S
C328 O327 1.208 . S
C329 O334 1.247 . S
C329 O335 1.208 . S
C330 O322 1.315 . S
C330 O325 1.279 . S
C331 O332 1.315 . S
C331 O333 1.279 . S
O332 Cd324 2.223 . S
O332 C331 1.315 . S
O333 Cd323 2.240 . S
O333 C331 1.279 . S
O334 Cd324 2.297 . S
O334 C329 1.247 . S
O335 Cd324 2.439 . S
O335 C329 1.208 . S
O336 Cd337 2.223 . S
O336 C344 1.315 . S
Cd337 O336 2.223 . S
Cd337 O340 2.297 . S
Cd337 O341 2.439 . S
Cd337 O347 2.240 . S
Cd338 O339 2.240 . S
Cd338 O346 2.223 . S
Cd338 O348 2.297 . S
Cd338 O349 2.439 . S
O339 Cd338 2.240 . S
O339 C344 1.279 . S
O340 Cd337 2.297 . S
O340 C342 1.247 . S
O341 Cd337 2.439 . S
O341 C342 1.208 . S
C342 O340 1.247 . S
C342 O341 1.208 . S
C343 O348 1.247 . S
C343 O349 1.208 . S
C344 O336 1.315 . S
C344 O339 1.279 . S
C345 O346 1.315 . S
C345 O347 1.279 . S
O346 Cd338 2.223 . S
O346 C345 1.315 . S
O347 Cd337 2.240 . S
O347 C345 1.279 . S
O348 Cd338 2.297 . S
O348 C343 1.247 . S
O349 Cd338 2.439 . S
O349 C343 1.208 . S
O350 Cd351 2.223 . S
O350 C358 1.315 . S
Cd351 O350 2.223 . S
Cd351 O354 2.297 . S
Cd351 O355 2.439 . S
Cd351 O361 2.240 . S
Cd352 O353 2.240 . S
Cd352 O360 2.223 . S
Cd352 O362 2.297 . S
Cd352 O363 2.481 . S
O353 Cd352 2.240 . S
O353 C358 1.279 . S
O354 Cd351 2.297 . S
O354 C356 1.247 . S
O355 Cd351 2.439 . S
O355 C356 1.208 . S
C356 O354 1.247 . S
C356 O355 1.208 . S
C357 O362 1.247 1_554 S
C357 O363 1.202 1_554 S
C358 O350 1.315 . S
C358 O353 1.279 . S
C359 O360 1.315 . S
C359 O361 1.279 . S
O360 Cd352 2.223 . S
O360 C359 1.315 . S
O361 Cd351 2.240 . S
O361 C359 1.279 . S
O362 Cd352 2.297 . S
O362 C357 1.247 1_556 S
O363 Cd352 2.481 . S
O363 C357 1.202 1_556 S
O364 Cd365 2.223 . S
O364 C372 1.315 . S
Cd365 O364 2.223 . S
Cd365 O368 2.297 . S
Cd365 O369 2.439 . S
Cd365 O375 2.240 . S
Cd366 O367 2.240 . S
Cd366 O374 2.223 . S
Cd366 O376 2.297 . S
Cd366 O377 2.439 . S
O367 Cd366 2.240 . S
O367 C372 1.279 . S
O368 Cd365 2.297 . S
O368 C370 1.247 . S
O369 Cd365 2.439 . S
O369 C370 1.208 . S
C370 O368 1.247 . S
C370 O369 1.208 . S
C371 O376 1.247 . S
C371 O377 1.208 . S
C372 O364 1.315 . S
C372 O367 1.279 . S
C373 O374 1.315 . S
C373 O375 1.279 . S
O374 Cd366 2.223 . S
O374 C373 1.315 . S
O375 Cd365 2.240 . S
O375 C373 1.279 . S
O376 Cd366 2.297 . S
O376 C371 1.247 . S
O377 Cd366 2.439 . S
O377 C371 1.208 . S
O378 Cd379 2.223 . S
O378 C386 1.315 . S
Cd379 O378 2.223 . S
Cd379 O382 2.297 . S
Cd379 O383 2.439 . S
Cd379 O389 2.240 . S
Cd380 O381 2.240 . S
Cd380 O388 2.223 . S
Cd380 O390 2.297 . S
Cd380 O391 2.439 . S
O381 Cd380 2.240 . S
O381 C386 1.279 . S
O382 Cd379 2.297 . S
O382 C384 1.247 . S
O383 Cd379 2.439 . S
O383 C384 1.208 . S
C384 O382 1.247 . S
C384 O383 1.208 . S
C385 O390 1.247 . S
C385 O391 1.208 . S
C386 O378 1.315 . S
C386 O381 1.279 . S
C387 O388 1.315 . S
C387 O389 1.279 . S
O388 Cd380 2.223 . S
O388 C387 1.315 . S
O389 Cd379 2.240 . S
O389 C387 1.279 . S
O390 Cd380 2.297 . S
O390 C385 1.247 . S
O391 Cd380 2.439 . S
O391 C385 1.208 . S
O392 Cd393 2.223 . S
O392 C400 1.315 . S
Cd393 O392 2.223 . S
Cd393 O396 2.297 . S
Cd393 O397 2.439 . S
Cd393 O403 2.240 . S
Cd394 O395 2.240 . S
Cd394 O402 2.223 . S
Cd394 O404 2.297 . S
Cd394 O405 2.439 . S
O395 Cd394 2.240 . S
O395 C400 1.279 . S
O396 Cd393 2.297 . S
O396 C398 1.247 . S
O397 Cd393 2.439 . S
O397 C398 1.208 . S
C398 O396 1.247 . S
C398 O397 1.208 . S
C399 O404 1.247 . S
C399 O405 1.208 . S
C400 O392 1.315 . S
C400 O395 1.279 . S
C401 O402 1.315 . S
C401 O403 1.279 . S
O402 Cd394 2.223 . S
O402 C401 1.315 . S
O403 Cd393 2.240 . S
O403 C401 1.279 . S
O404 Cd394 2.297 . S
O404 C399 1.247 . S
O405 Cd394 2.439 . S
O405 C399 1.208 . S
O406 Cd407 2.223 . S
O406 C414 1.315 . S
Cd407 O406 2.223 . S
Cd407 O410 2.297 . S
Cd407 O411 2.439 . S
Cd407 O417 2.240 . S
Cd408 O409 2.240 . S
Cd408 O416 2.223 . S
Cd408 O418 2.297 . S
Cd408 O419 2.439 . S
O409 Cd408 2.240 . S
O409 C414 1.279 . S
O410 Cd407 2.297 . S
O410 C412 1.247 . S
O411 Cd407 2.439 . S
O411 C412 1.208 . S
C412 O410 1.247 . S
C412 O411 1.208 . S
C413 O418 1.247 . S
C413 O419 1.208 . S
C414 O406 1.315 . S
C414 O409 1.279 . S
C415 O416 1.315 . S
C415 O417 1.279 . S
O416 Cd408 2.223 . S
O416 C415 1.315 . S
O417 Cd407 2.240 . S
O417 C415 1.279 . S
O418 Cd408 2.297 . S
O418 C413 1.247 . S
O419 Cd408 2.439 . S
O419 C413 1.208 . S
O420 Cd421 2.223 . S
O420 C428 1.315 . S
Cd421 O420 2.223 . S
Cd421 O424 2.297 . S
Cd421 O425 2.439 . S
Cd421 O431 2.240 . S
Cd422 O423 2.240 . S
Cd422 O430 2.223 . S
Cd422 O432 2.297 . S
Cd422 O433 2.439 . S
O423 Cd422 2.240 . S
O423 C428 1.279 . S
O424 Cd421 2.297 . S
O424 C426 1.247 . S
O425 Cd421 2.439 . S
O425 C426 1.208 . S
C426 O424 1.247 . S
C426 O425 1.208 . S
C427 O432 1.247 . S
C427 O433 1.208 . S
C428 O420 1.315 . S
C428 O423 1.279 . S
C429 O430 1.315 . S
C429 O431 1.279 . S
O430 Cd422 2.223 . S
O430 C429 1.315 . S
O431 Cd421 2.240 . S
O431 C429 1.279 . S
O432 Cd422 2.297 . S
O432 C427 1.247 . S
O433 Cd422 2.439 . S
O433 C427 1.208 . S
O434 Cd435 2.223 . S
O434 C442 1.315 . S
Cd435 O434 2.223 . S
Cd435 O438 2.297 . S
Cd435 O439 2.439 . S
Cd435 O445 2.240 . S
Cd436 O437 2.240 . S
Cd436 O444 2.223 . S
Cd436 O446 2.297 . S
Cd436 O447 2.439 . S
O437 Cd436 2.240 . S
O437 C442 1.279 . S
O438 Cd435 2.297 . S
O438 C440 1.247 . S
O439 Cd435 2.439 . S
O439 C440 1.208 . S
C440 O438 1.247 . S
C440 O439 1.208 . S
C441 O446 1.247 . S
C441 O447 1.208 . S
C442 O434 1.315 . S
C442 O437 1.279 . S
C443 O444 1.315 . S
C443 O445 1.279 . S
O444 Cd436 2.223 . S
O444 C443 1.315 . S
O445 Cd435 2.240 . S
O445 C443 1.279 . S
O446 Cd436 2.297 . S
O446 C441 1.247 . S
O447 Cd436 2.439 . S
O447 C441 1.208 . S
O448 Cd449 2.223 . S
O448 C456 1.315 . S
Cd449 O448 2.223 . S
Cd449 O452 2.297 . S
Cd449 O453 2.439 . S
Cd449 O459 2.240 . S
Cd450 O451 2.240 . S
Cd450 O458 2.223 . S
Cd450 O460 2.297 . S
Cd450 O461 2.439 . S
O451 Cd450 2.240 . S
O451 C456 1.279 . S
O452 Cd449 2.297 . S
O452 C454 1.247 . S
O453 Cd449 2.439 . S
O453 C454 1.208 . S
C454 O452 1.247 . S
C454 O453 1.208 . S
C455 O460 1.247 . S
C455 O461 1.208 . S
C456 O448 1.315 . S
C456 O451 1.279 . S
C457 O458 1.315 . S
C457 O459 1.279 . S
O458 Cd450 2.223 . S
O458 C457 1.315 . S
O459 Cd449 2.240 . S
O459 C457 1.279 . S
O460 Cd450 2.297 . S
O460 C455 1.247 . S
O461 Cd450 2.439 . S
O461 C455 1.208 . S
O462 Cd463 2.223 . S
O462 C470 1.315 . S
Cd463 O462 2.223 . S
Cd463 O466 2.297 . S
Cd463 O467 2.439 . S
Cd463 O473 2.240 . S
Cd464 O465 2.240 . S
Cd464 O472 2.223 . S
Cd464 O474 2.297 . S
Cd464 O475 2.439 . S
O465 Cd464 2.240 . S
O465 C470 1.279 . S
O466 Cd463 2.297 . S
O466 C468 1.247 . S
O467 Cd463 2.439 . S
O467 C468 1.208 . S
C468 O466 1.247 . S
C468 O467 1.208 . S
C469 O474 1.247 . S
C469 O475 1.208 . S
C470 O462 1.315 . S
C470 O465 1.279 . S
C471 O472 1.315 . S
C471 O473 1.279 . S
O472 Cd464 2.223 . S
O472 C471 1.315 . S
O473 Cd463 2.240 . S
O473 C471 1.279 . S
O474 Cd464 2.297 . S
O474 C469 1.247 . S
O475 Cd464 2.439 . S
O475 C469 1.208 . S
O476 Cd477 2.223 . S
O476 C484 1.315 . S
Cd477 O476 2.223 . S
Cd477 O480 2.297 . S
Cd477 O481 2.439 . S
Cd477 O487 2.240 . S
Cd478 O479 2.240 . S
Cd478 O486 2.223 . S
Cd478 O488 2.297 . S
Cd478 O489 2.439 . S
O479 Cd478 2.240 . S
O479 C484 1.279 . S
O480 Cd477 2.297 . S
O480 C482 1.247 . S
O481 Cd477 2.439 . S
O481 C482 1.208 . S
C482 O480 1.247 . S
C482 O481 1.208 . S
C483 O488 1.247 . S
C483 O489 1.208 . S
C484 O476 1.315 . S
C484 O479 1.279 . S
C485 O486 1.315 . S
C485 O487 1.279 . S
O486 Cd478 2.223 . S
O486 C485 1.315 . S
O487 Cd477 2.240 . S
O487 C485 1.279 . S
O488 Cd478 2.297 . S
O488 C483 1.247 . S
O489 Cd478 2.439 . S
O489 C483 1.208 . S
O490 Cd491 2.223 . S
O490 C498 1.315 . S
Cd491 O490 2.223 . S
Cd491 O494 2.297 . S
Cd491 O495 2.439 . S
Cd491 O501 2.240 . S
Cd492 O493 2.240 . S
Cd492 O500 2.223 . S
Cd492 O502 2.297 . S
Cd492 O503 2.439 . S
O493 Cd492 2.240 . S
O493 C498 1.279 . S
O494 Cd491 2.297 . S
O494 C496 1.247 . S
O495 Cd491 2.439 . S
O495 C496 1.208 . S
C496 O494 1.247 . S
C496 O495 1.208 . S
C497 O502 1.247 . S
C497 O503 1.208 . S
C498 O490 1.315 . S
C498 O493 1.279 . S
C499 O500 1.315 . S
C499 O501 1.279 . S
O500 Cd492 2.223 . S
O500 C499 1.315 . S
O501 Cd491 2.240 . S
O501 C499 1.279 . S
O502 Cd492 2.297 . S
O502 C497 1.247 . S
O503 Cd492 2.439 . S
O503 C497 1.208 . S
O504 Cd505 2.223 . S
O504 C512 1.315 . S
Cd505 O504 2.223 . S
Cd505 O508 2.297 . S
Cd505 O509 2.439 . S
Cd505 O515 2.240 . S
Cd506 O507 2.240 . S
Cd506 O514 2.223 . S
Cd506 O516 2.297 . S
Cd506 O517 2.439 . S
O507 Cd506 2.240 . S
O507 C512 1.279 . S
O508 Cd505 2.297 . S
O508 C510 1.247 . S
O509 Cd505 2.439 . S
O509 C510 1.208 . S
C510 O508 1.247 . S
C510 O509 1.208 . S
C511 O516 1.247 . S
C511 O517 1.208 . S
C512 O504 1.315 . S
C512 O507 1.279 . S
C513 O514 1.315 . S
C513 O515 1.279 . S
O514 Cd506 2.223 . S
O514 C513 1.315 . S
O515 Cd505 2.240 . S
O515 C513 1.279 . S
O516 Cd506 2.297 . S
O516 C511 1.247 . S
O517 Cd506 2.439 . S
O517 C511 1.208 . S
O518 Cd519 2.223 . S
O518 C526 1.315 . S
Cd519 O518 2.223 . S
Cd519 O522 2.297 . S
Cd519 O523 2.439 . S
Cd519 O529 2.240 1_556 S
Cd520 O521 2.245 1_554 S
Cd520 O528 2.223 . S
Cd520 O530 2.297 . S
Cd520 O531 2.439 . S
O521 Cd520 2.245 1_556 S
O521 C526 1.278 . S
O522 Cd519 2.297 . S
O522 C524 1.247 . S
O523 Cd519 2.439 . S
O523 C524 1.208 . S
C524 O522 1.247 . S
C524 O523 1.208 . S
C525 O530 1.247 . S
C525 O531 1.208 . S
C526 O518 1.315 . S
C526 O521 1.278 . S
C527 O528 1.315 . S
C527 O529 1.279 . S
O528 Cd520 2.223 . S
O528 C527 1.315 . S
O529 Cd519 2.240 1_554 S
O529 C527 1.279 . S
O530 Cd520 2.297 . S
O530 C525 1.247 . S
O531 Cd520 2.439 . S
O531 C525 1.208 . S
O532 Cd533 2.223 . S
O532 C540 1.315 . S
Cd533 O532 2.223 . S
Cd533 O536 2.297 . S
Cd533 O537 2.439 . S
Cd533 O543 2.240 . S
Cd534 O535 2.240 . S
Cd534 O542 2.223 . S
Cd534 O544 2.297 . S
Cd534 O545 2.439 . S
O535 Cd534 2.240 . S
O535 C540 1.279 . S
O536 Cd533 2.297 . S
O536 C538 1.247 . S
O537 Cd533 2.439 . S
O537 C538 1.208 . S
C538 O536 1.247 . S
C538 O537 1.208 . S
C539 O544 1.247 . S
C539 O545 1.208 . S
C540 O532 1.315 . S
C540 O535 1.279 . S
C541 O542 1.315 . S
C541 O543 1.279 . S
O542 Cd534 2.223 . S
O542 C541 1.315 . S
O543 Cd533 2.240 . S
O543 C541 1.279 . S
O544 Cd534 2.297 . S
O544 C539 1.247 . S
O545 Cd534 2.439 . S
O545 C539 1.208 . S
O546 Cd547 2.223 . S
O546 C554 1.315 . S
Cd547 O546 2.223 . S
Cd547 O550 2.297 . S
Cd547 O551 2.439 . S
Cd547 O557 2.240 . S
Cd548 O549 2.240 . S
Cd548 O556 2.223 . S
Cd548 O558 2.297 . S
Cd548 O559 2.439 . S
O549 Cd548 2.240 . S
O549 C554 1.279 . S
O550 Cd547 2.297 . S
O550 C552 1.247 . S
O551 Cd547 2.439 . S
O551 C552 1.208 . S
C552 O550 1.247 . S
C552 O551 1.208 . S
C553 O558 1.247 . S
C553 O559 1.208 . S
C554 O546 1.315 . S
C554 O549 1.279 . S
C555 O556 1.315 . S
C555 O557 1.279 . S
O556 Cd548 2.223 . S
O556 C555 1.315 . S
O557 Cd547 2.240 . S
O557 C555 1.279 . S
O558 Cd548 2.297 . S
O558 C553 1.247 . S
O559 Cd548 2.439 . S
O559 C553 1.208 . S
O560 Cd561 2.223 . S
O560 C568 1.315 . S
Cd561 O560 2.223 . S
Cd561 O564 2.297 . S
Cd561 O565 2.439 . S
Cd561 O571 2.240 . S
Cd562 O563 2.240 . S
Cd562 O570 2.223 . S
Cd562 O572 2.297 . S
Cd562 O573 2.439 . S
O563 Cd562 2.240 . S
O563 C568 1.279 . S
O564 Cd561 2.297 . S
O564 C566 1.247 . S
O565 Cd561 2.439 . S
O565 C566 1.208 . S
C566 O564 1.247 . S
C566 O565 1.208 . S
C567 O572 1.247 . S
C567 O573 1.208 . S
C568 O560 1.315 . S
C568 O563 1.279 . S
C569 O570 1.315 . S
C569 O571 1.279 . S
O570 Cd562 2.223 . S
O570 C569 1.315 . S
O571 Cd561 2.240 . S
O571 C569 1.279 . S
O572 Cd562 2.297 . S
O572 C567 1.247 . S
O573 Cd562 2.439 . S
O573 C567 1.208 . S
O574 Cd575 2.223 . S
O574 C582 1.315 . S
Cd575 O574 2.223 . S
Cd575 O578 2.297 . S
Cd575 O579 2.439 . S
Cd575 O585 2.240 . S
Cd576 O577 2.240 . S
Cd576 O584 2.223 . S
Cd576 O586 2.297 . S
Cd576 O587 2.439 . S
O577 Cd576 2.240 . S
O577 C582 1.279 . S
O578 Cd575 2.297 . S
O578 C580 1.247 . S
O579 Cd575 2.439 . S
O579 C580 1.208 . S
C580 O578 1.247 . S
C580 O579 1.208 . S
C581 O586 1.247 . S
C581 O587 1.208 . S
C582 O574 1.315 . S
C582 O577 1.279 . S
C583 O584 1.315 . S
C583 O585 1.279 . S
O584 Cd576 2.223 . S
O584 C583 1.315 . S
O585 Cd575 2.240 . S
O585 C583 1.279 . S
O586 Cd576 2.297 . S
O586 C581 1.247 . S
O587 Cd576 2.439 . S
O587 C581 1.208 . S
O588 Cd589 2.223 . S
O588 C596 1.315 . S
Cd589 O588 2.223 . S
Cd589 O592 2.297 . S
Cd589 O593 2.439 . S
Cd589 O599 2.240 . S
Cd590 O591 2.240 . S
Cd590 O598 2.223 . S
Cd590 O600 2.297 . S
Cd590 O601 2.439 . S
O591 Cd590 2.240 . S
O591 C596 1.279 . S
O592 Cd589 2.297 . S
O592 C594 1.247 . S
O593 Cd589 2.439 . S
O593 C594 1.208 . S
C594 O592 1.247 . S
C594 O593 1.208 . S
C595 O600 1.247 . S
C595 O601 1.208 . S
C596 O588 1.315 . S
C596 O591 1.279 . S
C597 O598 1.315 . S
C597 O599 1.279 . S
O598 Cd590 2.223 . S
O598 C597 1.315 . S
O599 Cd589 2.240 . S
O599 C597 1.279 . S
O600 Cd590 2.297 . S
O600 C595 1.247 . S
O601 Cd590 2.439 . S
O601 C595 1.208 . S
O602 Cd603 2.223 . S
O602 C610 1.315 . S
Cd603 O602 2.223 . S
Cd603 O606 2.297 . S
Cd603 O607 2.439 . S
Cd603 O613 2.240 . S
Cd604 O605 2.240 . S
Cd604 O612 2.223 . S
Cd604 O614 2.297 . S
Cd604 O615 2.439 . S
O605 Cd604 2.240 . S
O605 C610 1.279 . S
O606 Cd603 2.297 . S
O606 C608 1.247 . S
O607 Cd603 2.439 . S
O607 C608 1.208 . S
C608 O606 1.247 . S
C608 O607 1.208 . S
C609 O614 1.247 . S
C609 O615 1.208 . S
C610 O602 1.315 . S
C610 O605 1.279 . S
C611 O612 1.315 . S
C611 O613 1.279 . S
O612 Cd604 2.223 . S
O612 C611 1.315 . S
O613 Cd603 2.240 . S
O613 C611 1.279 . S
O614 Cd604 2.297 . S
O614 C609 1.247 . S
O615 Cd604 2.439 . S
O615 C609 1.208 . S
O616 Cd617 2.223 . S
O616 C624 1.315 . S
Cd617 O616 2.223 . S
Cd617 O620 2.297 . S
Cd617 O621 2.439 . S
Cd617 O627 2.240 . S
Cd618 O619 2.240 . S
Cd618 O626 2.223 . S
Cd618 O628 2.297 . S
Cd618 O629 2.439 . S
O619 Cd618 2.240 . S
O619 C624 1.279 . S
O620 Cd617 2.297 . S
O620 C622 1.247 . S
O621 Cd617 2.439 . S
O621 C622 1.208 . S
C622 O620 1.247 . S
C622 O621 1.208 . S
C623 O628 1.247 . S
C623 O629 1.208 . S
C624 O616 1.315 . S
C624 O619 1.279 . S
C625 O626 1.315 . S
C625 O627 1.279 . S
O626 Cd618 2.223 . S
O626 C625 1.315 . S
O627 Cd617 2.240 . S
O627 C625 1.279 . S
O628 Cd618 2.297 . S
O628 C623 1.247 . S
O629 Cd618 2.439 . S
O629 C623 1.208 . S
O630 Cd631 2.223 1_556 S
O630 C638 1.315 . S
Cd631 O630 2.223 1_554 S
Cd631 O634 2.297 1_554 S
Cd631 O635 2.439 1_554 S
Cd631 O641 2.240 . S
Cd632 O633 2.240 . S
Cd632 O640 2.223 1_556 S
Cd632 O642 2.297 1_556 S
Cd632 O643 2.439 1_556 S
O633 Cd632 2.240 . S
O633 C638 1.279 . S
O634 Cd631 2.297 1_556 S
O634 C636 1.247 . S
O635 Cd631 2.439 1_556 S
O635 C636 1.208 . S
C636 O634 1.247 . S
C636 O635 1.208 . S
C637 O642 1.247 . S
C637 O643 1.208 . S
C638 O630 1.315 . S
C638 O633 1.279 . S
C639 O640 1.315 . S
C639 O641 1.279 . S
O640 Cd632 2.223 1_554 S
O640 C639 1.315 . S
O641 Cd631 2.240 . S
O641 C639 1.279 . S
O642 Cd632 2.297 1_554 S
O642 C637 1.247 . S
O643 Cd632 2.439 1_554 S
O643 C637 1.208 . S
O644 Cd645 2.223 . S
O644 C652 1.315 . S
Cd645 O644 2.223 . S
Cd645 O648 2.297 . S
Cd645 O649 2.439 . S
Cd645 O655 2.240 1_565 S
Cd646 O647 2.245 1_545 S
Cd646 O654 2.223 . S
Cd646 O656 2.297 . S
Cd646 O657 2.439 . S
O647 Cd646 2.245 1_565 S
O647 C652 1.278 . S
O648 Cd645 2.297 . S
O648 C650 1.247 . S
O649 Cd645 2.439 . S
O649 C650 1.208 . S
C650 O648 1.247 . S
C650 O649 1.208 . S
C651 O656 1.247 . S
C651 O657 1.208 . S
C652 O644 1.315 . S
C652 O647 1.278 . S
C653 O654 1.315 . S
C653 O655 1.279 . S
O654 Cd646 2.223 . S
O654 C653 1.315 . S
O655 Cd645 2.240 1_545 S
O655 C653 1.279 . S
O656 Cd646 2.297 . S
O656 C651 1.247 . S
O657 Cd646 2.439 . S
O657 C651 1.208 . S
O658 Cd659 2.223 . S
O658 C666 1.315 . S
Cd659 O658 2.223 . S
Cd659 O662 2.297 . S
Cd659 O663 2.439 . S
Cd659 O669 2.240 . S
Cd660 O661 2.240 . S
Cd660 O668 2.223 . S
Cd660 O670 2.297 . S
Cd660 O671 2.439 . S
O661 Cd660 2.240 . S
O661 C666 1.279 . S
O662 Cd659 2.297 . S
O662 C664 1.247 . S
O663 Cd659 2.439 . S
O663 C664 1.208 . S
C664 O662 1.247 . S
C664 O663 1.208 . S
C665 O670 1.247 . S
C665 O671 1.208 . S
C666 O658 1.315 . S
C666 O661 1.279 . S
C667 O668 1.315 . S
C667 O669 1.279 . S
O668 Cd660 2.223 . S
O668 C667 1.315 . S
O669 Cd659 2.240 . S
O669 C667 1.279 . S
O670 Cd660 2.297 . S
O670 C665 1.247 . S
O671 Cd660 2.439 . S
O671 C665 1.208 . S
H672 C678 0.930 . S
H673 C682 0.930 . S
H674 C687 0.929 . S
H675 C685 0.929 . S
H676 C680 0.929 . S
H677 C686 0.929 . S
C678 H672 0.930 . S
C678 C679 1.367 . S
C678 C686 1.378 . S
C679 C678 1.367 . S
C679 C687 1.433 . S
C680 H676 0.929 . S
C680 C682 1.378 . S
C680 C684 1.350 . S
C681 C684 1.463 . S
C681 C686 1.350 . S
C681 N689 1.427 . S
C682 H673 0.930 . S
C682 C680 1.378 . S
C682 C683 1.367 . S
C683 C682 1.367 . S
C683 C685 1.433 . S
C684 C680 1.350 . S
C684 C681 1.463 . S
C684 N688 1.427 . S
C685 H675 0.929 . S
C685 C683 1.433 . S
C685 N688 1.384 . S
C686 H677 0.929 . S
C686 C678 1.378 . S
C686 C681 1.350 . S
C687 H674 0.929 . S
C687 C679 1.433 . S
C687 N689 1.384 . S
N688 C684 1.427 . S
N688 C685 1.384 . S
N689 C681 1.427 . S
N689 C687 1.384 . S
H690 C696 0.930 . S
H691 C700 0.930 . S
H692 C705 0.929 . S
H693 C703 0.929 . S
H694 C698 0.929 . S
H695 C704 0.929 . S
C696 H690 0.930 . S
C696 C697 1.367 . S
C696 C704 1.378 . S
C697 C696 1.367 . S
C697 C705 1.433 . S
C698 H694 0.929 . S
C698 C700 1.378 . S
C698 C702 1.350 . S
C699 C702 1.463 . S
C699 C704 1.350 . S
C699 N707 1.427 . S
C700 H691 0.930 . S
C700 C698 1.378 . S
C700 C701 1.367 . S
C701 C700 1.367 . S
C701 C703 1.433 . S
C702 C698 1.350 . S
C702 C699 1.463 . S
C702 N706 1.427 . S
C703 H693 0.929 . S
C703 C701 1.433 . S
C703 N706 1.384 . S
C704 H695 0.929 . S
C704 C696 1.378 . S
C704 C699 1.350 . S
C705 H692 0.929 . S
C705 C697 1.433 . S
C705 N707 1.384 . S
N706 C702 1.427 . S
N706 C703 1.384 . S
N707 C699 1.427 . S
N707 C705 1.384 . S
H708 C714 0.930 . S
H709 C718 0.930 . S
H710 C723 0.929 . S
H711 C721 0.929 . S
H712 C716 0.929 . S
H713 C722 0.929 . S
C714 H708 0.930 . S
C714 C715 1.367 . S
C714 C722 1.378 . S
C715 C714 1.367 . S
C715 C723 1.433 . S
C716 H712 0.929 . S
C716 C718 1.378 . S
C716 C720 1.350 . S
C717 C720 1.463 . S
C717 C722 1.350 . S
C717 N725 1.427 . S
C718 H709 0.930 . S
C718 C716 1.378 . S
C718 C719 1.367 . S
C719 C718 1.367 . S
C719 C721 1.433 . S
C720 C716 1.350 . S
C720 C717 1.463 . S
C720 N724 1.427 . S
C721 H711 0.929 . S
C721 C719 1.433 . S
C721 N724 1.384 . S
C722 H713 0.929 . S
C722 C714 1.378 . S
C722 C717 1.350 . S
C723 H710 0.929 . S
C723 C715 1.433 . S
C723 N725 1.384 . S
N724 C720 1.427 . S
N724 C721 1.384 . S
N725 C717 1.427 . S
N725 C723 1.384 . S
H726 C732 0.930 . S
H727 C736 0.930 . S
H728 C741 0.929 . S
H729 C739 0.929 . S
H730 C734 0.929 . S
H731 C740 0.929 . S
C732 H726 0.930 . S
C732 C733 1.367 . S
C732 C740 1.378 . S
C733 C732 1.367 . S
C733 C741 1.433 1_554 S
C734 H730 0.929 . S
C734 C736 1.378 . S
C734 C738 1.350 1_556 S
C735 C738 1.463 . S
C735 C740 1.350 . S
C735 N743 1.427 1_554 S
C736 H727 0.930 . S
C736 C734 1.378 . S
C736 C737 1.367 1_556 S
C737 C736 1.367 1_554 S
C737 C739 1.433 . S
C738 C734 1.350 1_554 S
C738 C735 1.463 . S
C738 N742 1.427 . S
C739 H729 0.929 . S
C739 C737 1.433 . S
C739 N742 1.384 . S
C740 H731 0.929 . S
C740 C732 1.378 . S
C740 C735 1.350 . S
C741 H728 0.929 . S
C741 C733 1.433 1_556 S
C741 N743 1.384 . S
N742 C738 1.427 . S
N742 C739 1.384 . S
N743 C735 1.427 1_556 S
N743 C741 1.384 . S
H744 C750 0.930 . S
H745 C754 0.930 . S
H746 C759 0.929 . S
H747 C757 0.929 . S
H748 C752 0.929 . S
H749 C758 0.929 . S
C750 H744 0.930 . S
C750 C751 1.367 . S
C750 C758 1.378 . S
C751 C750 1.367 . S
C751 C759 1.433 . S
C752 H748 0.929 . S
C752 C754 1.378 . S
C752 C756 1.350 . S
C753 C756 1.463 . S
C753 C758 1.350 . S
C753 N761 1.427 . S
C754 H745 0.930 . S
C754 C752 1.378 . S
C754 C755 1.367 . S
C755 C754 1.367 . S
C755 C757 1.433 . S
C756 C752 1.350 . S
C756 C753 1.463 . S
C756 N760 1.427 . S
C757 H747 0.929 . S
C757 C755 1.433 . S
C757 N760 1.384 . S
C758 H749 0.929 . S
C758 C750 1.378 . S
C758 C753 1.350 . S
C759 H746 0.929 . S
C759 C751 1.433 . S
C759 N761 1.384 . S
N760 C756 1.427 . S
N760 C757 1.384 . S
N761 C753 1.427 . S
N761 C759 1.384 . S
H762 C768 0.930 . S
H763 C772 0.930 . S
H764 C777 0.929 . S
H765 C775 0.929 . S
H766 C770 0.929 . S
H767 C776 0.929 . S
C768 H762 0.930 . S
C768 C769 1.367 . S
C768 C776 1.378 . S
C769 C768 1.367 . S
C769 C777 1.433 . S
C770 H766 0.929 . S
C770 C772 1.378 . S
C770 C774 1.350 . S
C771 C774 1.463 . S
C771 C776 1.350 . S
C771 N779 1.427 . S
C772 H763 0.930 . S
C772 C770 1.378 . S
C772 C773 1.367 . S
C773 C772 1.367 . S
C773 C775 1.433 . S
C774 C770 1.350 . S
C774 C771 1.463 . S
C774 N778 1.427 . S
C775 H765 0.929 . S
C775 C773 1.433 . S
C775 N778 1.384 . S
C776 H767 0.929 . S
C776 C768 1.378 . S
C776 C771 1.350 . S
C777 H764 0.929 . S
C777 C769 1.433 . S
C777 N779 1.384 . S
N778 C774 1.427 . S
N778 C775 1.384 . S
N779 C771 1.427 . S
N779 C777 1.384 . S
H780 C786 0.930 . S
H781 C790 0.930 . S
H782 C795 0.929 . S
H783 C793 0.929 . S
H784 C788 0.929 . S
H785 C794 0.929 . S
C786 H780 0.930 . S
C786 C787 1.367 . S
C786 C794 1.378 . S
C787 C786 1.367 . S
C787 C795 1.433 . S
C788 H784 0.929 . S
C788 C790 1.378 . S
C788 C792 1.350 . S
C789 C792 1.463 . S
C789 C794 1.350 . S
C789 N797 1.427 . S
C790 H781 0.930 . S
C790 C788 1.378 . S
C790 C791 1.367 . S
C791 C790 1.367 . S
C791 C793 1.433 . S
C792 C788 1.350 . S
C792 C789 1.463 . S
C792 N796 1.427 . S
C793 H783 0.929 . S
C793 C791 1.433 . S
C793 N796 1.384 . S
C794 H785 0.929 . S
C794 C786 1.378 . S
C794 C789 1.350 . S
C795 H782 0.929 . S
C795 C787 1.433 . S
C795 N797 1.384 . S
N796 C792 1.427 . S
N796 C793 1.384 . S
N797 C789 1.427 . S
N797 C795 1.384 . S
H798 C804 0.930 . S
H799 C808 0.930 . S
H800 C813 0.929 . S
H801 C811 0.929 . S
H802 C806 0.929 . S
H803 C812 0.929 . S
C804 H798 0.930 . S
C804 C805 1.367 . S
C804 C812 1.378 . S
C805 C804 1.367 . S
C805 C813 1.433 . S
C806 H802 0.929 . S
C806 C808 1.378 . S
C806 C810 1.350 . S
C807 C810 1.463 . S
C807 C812 1.350 . S
C807 N815 1.427 . S
C808 H799 0.930 . S
C808 C806 1.378 . S
C808 C809 1.367 . S
C809 C808 1.367 . S
C809 C811 1.433 . S
C810 C806 1.350 . S
C810 C807 1.463 . S
C810 N814 1.427 . S
C811 H801 0.929 . S
C811 C809 1.433 . S
C811 N814 1.384 . S
C812 H803 0.929 . S
C812 C804 1.378 . S
C812 C807 1.350 . S
C813 H800 0.929 . S
C813 C805 1.433 . S
C813 N815 1.384 . S
N814 C810 1.427 . S
N814 C811 1.384 . S
N815 C807 1.427 . S
N815 C813 1.384 . S
H816 C822 0.930 . S
H817 C826 0.930 . S
H818 C831 0.929 . S
H819 C829 0.929 . S
H820 C824 0.929 . S
H821 C830 0.929 . S
C822 H816 0.930 . S
C822 C823 1.367 . S
C822 C830 1.378 . S
C823 C822 1.367 . S
C823 C831 1.433 . S
C824 H820 0.929 . S
C824 C826 1.378 . S
C824 C828 1.350 . S
C825 C828 1.463 . S
C825 C830 1.350 . S
C825 N833 1.427 . S
C826 H817 0.930 . S
C826 C824 1.378 . S
C826 C827 1.367 . S
C827 C826 1.367 . S
C827 C829 1.433 . S
C828 C824 1.350 . S
C828 C825 1.463 . S
C828 N832 1.427 . S
C829 H819 0.929 . S
C829 C827 1.433 . S
C829 N832 1.384 . S
C830 H821 0.929 . S
C830 C822 1.378 . S
C830 C825 1.350 . S
C831 H818 0.929 . S
C831 C823 1.433 . S
C831 N833 1.384 . S
N832 C828 1.427 . S
N832 C829 1.384 . S
N833 C825 1.427 . S
N833 C831 1.384 . S
H834 C840 0.930 . S
H835 C844 0.930 . S
H836 C849 0.929 . S
H837 C847 0.929 . S
H838 C842 0.929 . S
H839 C848 0.929 . S
C840 H834 0.930 . S
C840 C841 1.367 . S
C840 C848 1.378 . S
C841 C840 1.367 . S
C841 C849 1.433 1_545 S
C842 H838 0.929 . S
C842 C844 1.378 . S
C842 C846 1.350 1_565 S
C843 C846 1.463 . S
C843 C848 1.350 . S
C843 N851 1.427 1_545 S
C844 H835 0.930 . S
C844 C842 1.378 . S
C844 C845 1.367 1_565 S
C845 C844 1.367 1_545 S
C845 C847 1.433 . S
C846 C842 1.350 1_545 S
C846 C843 1.463 . S
C846 N850 1.427 . S
C847 H837 0.929 . S
C847 C845 1.433 . S
C847 N850 1.384 . S
C848 H839 0.929 . S
C848 C840 1.378 . S
C848 C843 1.350 . S
C849 H836 0.929 . S
C849 C841 1.433 1_565 S
C849 N851 1.384 . S
N850 C846 1.427 . S
N850 C847 1.384 . S
N851 C843 1.427 1_565 S
N851 C849 1.384 . S
H852 C858 0.930 . S
H853 C862 0.930 . S
H854 C867 0.929 . S
H855 C865 0.929 . S
H856 C860 0.929 . S
H857 C866 0.929 . S
C858 H852 0.930 . S
C858 C859 1.367 . S
C858 C866 1.378 . S
C859 C858 1.367 . S
C859 C867 1.433 . S
C860 H856 0.929 . S
C860 C862 1.378 . S
C860 C864 1.350 . S
C861 C864 1.463 . S
C861 C866 1.350 . S
C861 N869 1.427 . S
C862 H853 0.930 . S
C862 C860 1.378 . S
C862 C863 1.367 . S
C863 C862 1.367 . S
C863 C865 1.433 . S
C864 C860 1.350 . S
C864 C861 1.463 . S
C864 N868 1.427 . S
C865 H855 0.929 . S
C865 C863 1.433 . S
C865 N868 1.384 . S
C866 H857 0.929 . S
C866 C858 1.378 . S
C866 C861 1.350 . S
C867 H854 0.929 . S
C867 C859 1.433 . S
C867 N869 1.384 . S
N868 C864 1.427 . S
N868 C865 1.384 . S
N869 C861 1.427 . S
N869 C867 1.384 . S
H870 C876 0.930 . S
H871 C880 0.930 . S
H872 C885 0.929 . S
H873 C883 0.929 . S
H874 C878 0.929 . S
H875 C884 0.929 . S
C876 H870 0.930 . S
C876 C877 1.367 . S
C876 C884 1.378 . S
C877 C876 1.367 . S
C877 C885 1.433 . S
C878 H874 0.929 . S
C878 C880 1.378 . S
C878 C882 1.350 . S
C879 C882 1.463 . S
C879 C884 1.350 . S
C879 N887 1.427 . S
C880 H871 0.930 . S
C880 C878 1.378 . S
C880 C881 1.367 . S
C881 C880 1.367 . S
C881 C883 1.433 . S
C882 C878 1.350 . S
C882 C879 1.463 . S
C882 N886 1.427 . S
C883 H873 0.929 . S
C883 C881 1.433 . S
C883 N886 1.384 . S
C884 H875 0.929 . S
C884 C876 1.378 . S
C884 C879 1.350 . S
C885 H872 0.929 . S
C885 C877 1.433 . S
C885 N887 1.384 . S
N886 C882 1.427 . S
N886 C883 1.384 . S
N887 C879 1.427 . S
N887 C885 1.384 . S
H888 C894 0.930 . S
H889 C898 0.930 . S
H890 C903 0.929 . S
H891 C901 0.929 . S
H892 C896 0.929 . S
H893 C902 0.929 . S
C894 H888 0.930 . S
C894 C895 1.367 . S
C894 C902 1.378 . S
C895 C894 1.367 . S
C895 C903 1.433 . S
C896 H892 0.929 . S
C896 C898 1.378 . S
C896 C900 1.350 . S
C897 C900 1.463 . S
C897 C902 1.350 . S
C897 N905 1.427 . S
C898 H889 0.930 . S
C898 C896 1.378 . S
C898 C899 1.367 . S
C899 C898 1.367 . S
C899 C901 1.433 . S
C900 C896 1.350 . S
C900 C897 1.463 . S
C900 N904 1.427 . S
C901 H891 0.929 . S
C901 C899 1.433 . S
C901 N904 1.384 . S
C902 H893 0.929 . S
C902 C894 1.378 . S
C902 C897 1.350 . S
C903 H890 0.929 . S
C903 C895 1.433 . S
C903 N905 1.384 . S
N904 C900 1.427 . S
N904 C901 1.384 . S
N905 C897 1.427 . S
N905 C903 1.384 . S
H906 C912 0.930 . S
H907 C916 0.930 . S
H908 C921 0.929 . S
H909 C919 0.929 . S
H910 C914 0.929 . S
H911 C920 0.929 . S
C912 H906 0.930 . S
C912 C913 1.367 . S
C912 C920 1.378 . S
C913 C912 1.367 . S
C913 C921 1.433 . S
C914 H910 0.929 . S
C914 C916 1.378 . S
C914 C918 1.350 . S
C915 C918 1.463 . S
C915 C920 1.350 . S
C915 N923 1.427 . S
C916 H907 0.930 . S
C916 C914 1.378 . S
C916 C917 1.367 . S
C917 C916 1.367 . S
C917 C919 1.433 . S
C918 C914 1.350 . S
C918 C915 1.463 . S
C918 N922 1.427 . S
C919 H909 0.929 . S
C919 C917 1.433 . S
C919 N922 1.384 . S
C920 H911 0.929 . S
C920 C912 1.378 . S
C920 C915 1.350 . S
C921 H908 0.929 . S
C921 C913 1.433 . S
C921 N923 1.384 . S
N922 C918 1.427 . S
N922 C919 1.384 . S
N923 C915 1.427 . S
N923 C921 1.384 . S
H924 C930 0.930 . S
H925 C934 0.930 . S
H926 C939 0.929 . S
H927 C937 0.929 . S
H928 C932 0.929 . S
H929 C938 0.929 . S
C930 H924 0.930 . S
C930 C931 1.367 1_655 S
C930 C938 1.378 . S
C931 C930 1.367 1_455 S
C931 C939 1.433 . S
C932 H928 0.929 . S
C932 C934 1.378 . S
C932 C936 1.350 . S
C933 C936 1.463 . S
C933 C938 1.350 1_455 S
C933 N941 1.427 . S
C934 H925 0.930 . S
C934 C932 1.378 . S
C934 C935 1.367 . S
C935 C934 1.367 . S
C935 C937 1.433 1_455 S
C936 C932 1.350 . S
C936 C933 1.463 . S
C936 N940 1.427 1_455 S
C937 H927 0.929 . S
C937 C935 1.433 1_655 S
C937 N940 1.384 . S
C938 H929 0.929 . S
C938 C930 1.378 . S
C938 C933 1.350 1_655 S
C939 H926 0.929 . S
C939 C931 1.433 . S
C939 N941 1.384 . S
N940 C936 1.427 1_655 S
N940 C937 1.384 . S
N941 C933 1.427 . S
N941 C939 1.384 . S
H942 C948 0.930 . S
H943 C952 0.930 . S
H944 C957 0.929 . S
H945 C955 0.929 . S
H946 C950 0.929 . S
H947 C956 0.929 . S
C948 H942 0.930 . S
C948 C949 1.367 . S
C948 C956 1.378 . S
C949 C948 1.367 . S
C949 C957 1.433 . S
C950 H946 0.929 . S
C950 C952 1.378 . S
C950 C954 1.350 . S
C951 C954 1.463 . S
C951 C956 1.350 . S
C951 N959 1.427 . S
C952 H943 0.930 . S
C952 C950 1.378 . S
C952 C953 1.367 . S
C953 C952 1.367 . S
C953 C955 1.433 . S
C954 C950 1.350 . S
C954 C951 1.463 . S
C954 N958 1.427 . S
C955 H945 0.929 . S
C955 C953 1.433 . S
C955 N958 1.384 . S
C956 H947 0.929 . S
C956 C948 1.378 . S
C956 C951 1.350 . S
C957 H944 0.929 . S
C957 C949 1.433 . S
C957 N959 1.384 . S
N958 C954 1.427 . S
N958 C955 1.384 . S
N959 C951 1.427 . S
N959 C957 1.384 . S
H960 C966 0.930 . S
H961 C970 0.930 . S
H962 C975 0.929 . S
H963 C973 0.929 . S
H964 C968 0.929 . S
H965 C974 0.929 . S
C966 H960 0.930 . S
C966 C967 1.367 . S
C966 C974 1.378 . S
C967 C966 1.367 . S
C967 C975 1.433 . S
C968 H964 0.929 . S
C968 C970 1.378 . S
C968 C972 1.350 . S
C969 C972 1.463 . S
C969 C974 1.350 . S
C969 N977 1.427 . S
C970 H961 0.930 . S
C970 C968 1.378 . S
C970 C971 1.367 . S
C971 C970 1.367 . S
C971 C973 1.433 . S
C972 C968 1.350 . S
C972 C969 1.463 . S
C972 N976 1.427 . S
C973 H963 0.929 . S
C973 C971 1.433 . S
C973 N976 1.384 . S
C974 H965 0.929 . S
C974 C966 1.378 . S
C974 C969 1.350 . S
C975 H962 0.929 . S
C975 C967 1.433 . S
C975 N977 1.384 . S
N976 C972 1.427 . S
N976 C973 1.384 . S
N977 C969 1.427 . S
N977 C975 1.384 . S
H978 C984 0.930 . S
H979 C988 0.930 . S
H980 C993 0.929 . S
H981 C991 0.929 . S
H982 C986 0.929 . S
H983 C992 0.929 . S
C984 H978 0.930 . S
C984 C985 1.367 . S
C984 C992 1.378 . S
C985 C984 1.367 . S
C985 C993 1.433 . S
C986 H982 0.929 . S
C986 C988 1.378 . S
C986 C990 1.350 . S
C987 C990 1.463 . S
C987 C992 1.350 . S
C987 N995 1.427 . S
C988 H979 0.930 . S
C988 C986 1.378 . S
C988 C989 1.367 . S
C989 C988 1.367 . S
C989 C991 1.433 . S
C990 C986 1.350 . S
C990 C987 1.463 . S
C990 N994 1.427 . S
C991 H981 0.929 . S
C991 C989 1.433 . S
C991 N994 1.384 . S
C992 H983 0.929 . S
C992 C984 1.378 . S
C992 C987 1.350 . S
C993 H980 0.929 . S
C993 C985 1.433 . S
C993 N995 1.384 . S
N994 C990 1.427 . S
N994 C991 1.384 . S
N995 C987 1.427 . S
N995 C993 1.384 . S
H996 C1002 0.930 . S
H997 C1006 0.930 . S
H998 C1011 0.929 . S
H999 C1009 0.929 . S
H1000 C1004 0.929 . S
H1001 C1010 0.929 . S
C1002 H996 0.930 . S
C1002 C1003 1.367 . S
C1002 C1010 1.378 . S
C1003 C1002 1.367 . S
C1003 C1011 1.433 . S
C1004 H1000 0.929 . S
C1004 C1006 1.378 . S
C1004 C1008 1.350 . S
C1005 C1008 1.463 . S
C1005 C1010 1.350 . S
C1005 N1013 1.427 . S
C1006 H997 0.930 . S
C1006 C1004 1.378 . S
C1006 C1007 1.367 . S
C1007 C1006 1.367 . S
C1007 C1009 1.433 . S
C1008 C1004 1.350 . S
C1008 C1005 1.463 . S
C1008 N1012 1.427 . S
C1009 H999 0.929 . S
C1009 C1007 1.433 . S
C1009 N1012 1.384 . S
C1010 H1001 0.929 . S
C1010 C1002 1.378 . S
C1010 C1005 1.350 . S
C1011 H998 0.929 . S
C1011 C1003 1.433 . S
C1011 N1013 1.384 . S
N1012 C1008 1.427 . S
N1012 C1009 1.384 . S
N1013 C1005 1.427 . S
N1013 C1011 1.384 . S
H1014 C1020 0.930 . S
H1015 C1024 0.930 . S
H1016 C1029 0.929 . S
H1017 C1027 0.929 . S
H1018 C1022 0.929 . S
H1019 C1028 0.929 . S
C1020 H1014 0.930 . S
C1020 C1021 1.367 . S
C1020 C1028 1.378 . S
C1021 C1020 1.367 . S
C1021 C1029 1.433 . S
C1022 H1018 0.929 . S
C1022 C1024 1.378 . S
C1022 C1026 1.350 . S
C1023 C1026 1.463 . S
C1023 C1028 1.350 . S
C1023 N1031 1.427 . S
C1024 H1015 0.930 . S
C1024 C1022 1.378 . S
C1024 C1025 1.367 . S
C1025 C1024 1.367 . S
C1025 C1027 1.433 . S
C1026 C1022 1.350 . S
C1026 C1023 1.463 . S
C1026 N1030 1.427 . S
C1027 H1017 0.929 . S
C1027 C1025 1.433 . S
C1027 N1030 1.384 . S
C1028 H1019 0.929 . S
C1028 C1020 1.378 . S
C1028 C1023 1.350 . S
C1029 H1016 0.929 . S
C1029 C1021 1.433 . S
C1029 N1031 1.384 . S
N1030 C1026 1.427 . S
N1030 C1027 1.384 . S
N1031 C1023 1.427 . S
N1031 C1029 1.384 . S
H1032 C1038 0.930 . S
H1033 C1042 0.930 . S
H1034 C1047 0.929 . S
H1035 C1045 0.929 . S
H1036 C1040 0.929 . S
H1037 C1046 0.929 . S
C1038 H1032 0.930 . S
C1038 C1039 1.367 . S
C1038 C1046 1.378 . S
C1039 C1038 1.367 . S
C1039 C1047 1.433 . S
C1040 H1036 0.929 . S
C1040 C1042 1.378 . S
C1040 C1044 1.350 . S
C1041 C1044 1.463 . S
C1041 C1046 1.350 . S
C1041 N1049 1.427 . S
C1042 H1033 0.930 . S
C1042 C1040 1.378 . S
C1042 C1043 1.367 . S
C1043 C1042 1.367 . S
C1043 C1045 1.433 . S
C1044 C1040 1.350 . S
C1044 C1041 1.463 . S
C1044 N1048 1.427 . S
C1045 H1035 0.929 . S
C1045 C1043 1.433 . S
C1045 N1048 1.384 . S
C1046 H1037 0.929 . S
C1046 C1038 1.378 . S
C1046 C1041 1.350 . S
C1047 H1034 0.929 . S
C1047 C1039 1.433 . S
C1047 N1049 1.384 . S
N1048 C1044 1.427 . S
N1048 C1045 1.384 . S
N1049 C1041 1.427 . S
N1049 C1047 1.384 . S
H1050 C1056 0.930 . S
H1051 C1060 0.930 . S
H1052 C1065 0.929 . S
H1053 C1063 0.929 . S
H1054 C1058 0.929 . S
H1055 C1064 0.929 . S
C1056 H1050 0.930 . S
C1056 C1057 1.367 . S
C1056 C1064 1.378 . S
C1057 C1056 1.367 . S
C1057 C1065 1.433 . S
C1058 H1054 0.929 . S
C1058 C1060 1.378 . S
C1058 C1062 1.350 . S
C1059 C1062 1.463 . S
C1059 C1064 1.350 . S
C1059 N1067 1.427 . S
C1060 H1051 0.930 . S
C1060 C1058 1.378 . S
C1060 C1061 1.367 . S
C1061 C1060 1.367 . S
C1061 C1063 1.433 . S
C1062 C1058 1.350 . S
C1062 C1059 1.463 . S
C1062 N1066 1.427 . S
C1063 H1053 0.929 . S
C1063 C1061 1.433 . S
C1063 N1066 1.384 . S
C1064 H1055 0.929 . S
C1064 C1056 1.378 . S
C1064 C1059 1.350 . S
C1065 H1052 0.929 . S
C1065 C1057 1.433 . S
C1065 N1067 1.384 . S
N1066 C1062 1.427 . S
N1066 C1063 1.384 . S
N1067 C1059 1.427 . S
N1067 C1065 1.384 . S
H1068 C1074 0.930 . S
H1069 C1078 0.930 . S
H1070 C1083 0.929 . S
H1071 C1081 0.929 . S
H1072 C1076 0.929 . S
H1073 C1082 0.929 . S
C1074 H1068 0.930 . S
C1074 C1075 1.367 . S
C1074 C1082 1.378 . S
C1075 C1074 1.367 . S
C1075 C1083 1.433 . S
C1076 H1072 0.929 . S
C1076 C1078 1.378 . S
C1076 C1080 1.350 . S
C1077 C1080 1.463 . S
C1077 C1082 1.350 . S
C1077 N1085 1.427 . S
C1078 H1069 0.930 . S
C1078 C1076 1.378 . S
C1078 C1079 1.367 . S
C1079 C1078 1.367 . S
C1079 C1081 1.433 . S
C1080 C1076 1.350 . S
C1080 C1077 1.463 . S
C1080 N1084 1.427 . S
C1081 H1071 0.929 . S
C1081 C1079 1.433 . S
C1081 N1084 1.384 . S
C1082 H1073 0.929 . S
C1082 C1074 1.378 . S
C1082 C1077 1.350 . S
C1083 H1070 0.929 . S
C1083 C1075 1.433 . S
C1083 N1085 1.384 . S
N1084 C1080 1.427 . S
N1084 C1081 1.384 . S
N1085 C1077 1.427 . S
N1085 C1083 1.384 . S
H1086 C1092 0.930 . S
H1087 C1096 0.930 . S
H1088 C1101 0.929 . S
H1089 C1099 0.929 . S
H1090 C1094 0.929 . S
H1091 C1100 0.929 . S
C1092 H1086 0.930 . S
C1092 C1093 1.367 . S
C1092 C1100 1.378 . S
C1093 C1092 1.367 . S
C1093 C1101 1.433 . S
C1094 H1090 0.929 . S
C1094 C1096 1.378 . S
C1094 C1098 1.350 . S
C1095 C1098 1.463 . S
C1095 C1100 1.350 . S
C1095 N1103 1.427 . S
C1096 H1087 0.930 . S
C1096 C1094 1.378 . S
C1096 C1097 1.367 . S
C1097 C1096 1.367 . S
C1097 C1099 1.433 . S
C1098 C1094 1.350 . S
C1098 C1095 1.463 . S
C1098 N1102 1.427 . S
C1099 H1089 0.929 . S
C1099 C1097 1.433 . S
C1099 N1102 1.384 . S
C1100 H1091 0.929 . S
C1100 C1092 1.378 . S
C1100 C1095 1.350 . S
C1101 H1088 0.929 . S
C1101 C1093 1.433 . S
C1101 N1103 1.384 . S
N1102 C1098 1.427 . S
N1102 C1099 1.384 . S
N1103 C1095 1.427 . S
N1103 C1101 1.384 . S
H1104 C1110 0.930 . S
H1105 C1114 0.930 . S
H1106 C1119 0.929 . S
H1107 C1117 0.925 1_455 S
H1108 C1112 0.929 . S
H1109 C1118 0.929 . S
C1110 H1104 0.930 . S
C1110 C1111 1.367 . S
C1110 C1118 1.378 . S
C1111 C1110 1.367 . S
C1111 C1119 1.433 . S
C1112 H1108 0.929 . S
C1112 C1114 1.378 . S
C1112 C1116 1.350 . S
C1113 C1116 1.463 . S
C1113 C1118 1.350 . S
C1113 N1121 1.427 . S
C1114 H1105 0.930 . S
C1114 C1112 1.378 . S
C1114 C1115 1.370 . S
C1115 C1114 1.370 . S
C1115 C1117 1.433 . S
C1116 C1112 1.350 . S
C1116 C1113 1.463 . S
C1116 N1120 1.427 . S
C1117 H1107 0.925 1_655 S
C1117 C1115 1.433 . S
C1117 N1120 1.387 . S
C1118 H1109 0.929 . S
C1118 C1110 1.378 . S
C1118 C1113 1.350 . S
C1119 H1106 0.929 . S
C1119 C1111 1.433 . S
C1119 N1121 1.384 . S
N1120 C1116 1.427 . S
N1120 C1117 1.387 . S
N1121 C1113 1.427 . S
N1121 C1119 1.384 . S
H1122 C1128 0.930 . S
H1123 C1132 0.930 . S
H1124 C1137 0.929 . S
H1125 C1135 0.929 . S
H1126 C1130 0.945 . S
H1127 C1136 0.929 . S
C1128 H1122 0.930 . S
C1128 C1129 1.367 . S
C1128 C1136 1.378 . S
C1129 C1128 1.367 . S
C1129 C1137 1.433 . S
C1130 H1126 0.945 . S
C1130 C1132 1.378 1_655 S
C1130 C1134 1.350 . S
C1131 C1134 1.463 . S
C1131 C1136 1.350 . S
C1131 N1139 1.427 . S
C1132 H1123 0.930 . S
C1132 C1130 1.378 1_455 S
C1132 C1133 1.361 1_455 S
C1133 C1132 1.361 1_655 S
C1133 C1135 1.450 . S
C1134 C1130 1.350 . S
C1134 C1131 1.463 . S
C1134 N1138 1.427 . S
C1135 H1125 0.929 . S
C1135 C1133 1.450 . S
C1135 N1138 1.384 . S
C1136 H1127 0.929 . S
C1136 C1128 1.378 . S
C1136 C1131 1.350 . S
C1137 H1124 0.929 . S
C1137 C1129 1.433 . S
C1137 N1139 1.384 . S
N1138 C1134 1.427 . S
N1138 C1135 1.384 . S
N1139 C1131 1.427 . S
N1139 C1137 1.384 . S
H1140 C1146 0.930 . S
H1141 C1150 0.930 . S
H1142 C1155 0.929 . S
H1143 C1153 0.929 . S
H1144 C1148 0.929 . S
H1145 C1154 0.929 . S
C1146 H1140 0.930 . S
C1146 C1147 1.367 . S
C1146 C1154 1.378 . S
C1147 C1146 1.367 . S
C1147 C1155 1.433 . S
C1148 H1144 0.929 . S
C1148 C1150 1.378 . S
C1148 C1152 1.350 . S
C1149 C1152 1.463 . S
C1149 C1154 1.350 . S
C1149 N1157 1.427 . S
C1150 H1141 0.930 . S
C1150 C1148 1.378 . S
C1150 C1151 1.367 . S
C1151 C1150 1.367 . S
C1151 C1153 1.433 . S
C1152 C1148 1.350 . S
C1152 C1149 1.463 . S
C1152 N1156 1.427 . S
C1153 H1143 0.929 . S
C1153 C1151 1.433 . S
C1153 N1156 1.384 . S
C1154 H1145 0.929 . S
C1154 C1146 1.378 . S
C1154 C1149 1.350 . S
C1155 H1142 0.929 . S
C1155 C1147 1.433 . S
C1155 N1157 1.384 . S
N1156 C1152 1.427 . S
N1156 C1153 1.384 . S
N1157 C1149 1.427 . S
N1157 C1155 1.384 . S
H1158 C1164 0.930 . S
H1159 C1168 0.930 . S
H1160 C1173 0.929 . S
H1161 C1171 0.929 . S
H1162 C1166 0.929 . S
H1163 C1172 0.929 . S
C1164 H1158 0.930 . S
C1164 C1165 1.367 . S
C1164 C1172 1.378 . S
C1165 C1164 1.367 . S
C1165 C1173 1.433 . S
C1166 H1162 0.929 . S
C1166 C1168 1.378 . S
C1166 C1170 1.350 . S
C1167 C1170 1.463 . S
C1167 C1172 1.350 . S
C1167 N1175 1.427 . S
C1168 H1159 0.930 . S
C1168 C1166 1.378 . S
C1168 C1169 1.367 . S
C1169 C1168 1.367 . S
C1169 C1171 1.433 . S
C1170 C1166 1.350 . S
C1170 C1167 1.463 . S
C1170 N1174 1.427 . S
C1171 H1161 0.929 . S
C1171 C1169 1.433 . S
C1171 N1174 1.384 . S
C1172 H1163 0.929 . S
C1172 C1164 1.378 . S
C1172 C1167 1.350 . S
C1173 H1160 0.929 . S
C1173 C1165 1.433 . S
C1173 N1175 1.384 . S
N1174 C1170 1.427 . S
N1174 C1171 1.384 . S
N1175 C1167 1.427 . S
N1175 C1173 1.384 . S
H1176 C1182 0.930 . S
H1177 C1186 0.930 . S
H1178 C1191 0.963 . S
H1179 C1189 0.929 . S
H1180 C1184 0.929 . S
H1181 C1190 0.929 . S
C1182 H1176 0.930 . S
C1182 C1183 1.379 . S
C1182 C1190 1.378 . S
C1183 C1182 1.379 . S
C1183 C1191 1.429 1_565 S
C1184 H1180 0.929 . S
C1184 C1186 1.378 . S
C1184 C1188 1.350 . S
C1185 C1188 1.463 . S
C1185 C1190 1.350 . S
C1185 N1193 1.427 . S
C1186 H1177 0.930 . S
C1186 C1184 1.378 . S
C1186 C1187 1.367 . S
C1187 C1186 1.367 . S
C1187 C1189 1.433 . S
C1188 C1184 1.350 . S
C1188 C1185 1.463 . S
C1188 N1192 1.427 . S
C1189 H1179 0.929 . S
C1189 C1187 1.433 . S
C1189 N1192 1.384 . S
C1190 H1181 0.929 . S
C1190 C1182 1.378 . S
C1190 C1185 1.350 . S
C1191 H1178 0.963 . S
C1191 C1183 1.429 1_545 S
C1191 N1193 1.360 1_545 S
N1192 C1188 1.427 . S
N1192 C1189 1.384 . S
N1193 C1185 1.427 . S
N1193 C1191 1.360 1_565 S
H1194 C1200 0.930 . S
H1195 C1204 0.930 . S
H1196 C1209 0.929 . S
H1197 C1207 0.929 . S
H1198 C1202 0.929 . S
H1199 C1208 0.929 . S
C1200 H1194 0.930 . S
C1200 C1201 1.367 . S
C1200 C1208 1.378 . S
C1201 C1200 1.367 . S
C1201 C1209 1.433 . S
C1202 H1198 0.929 . S
C1202 C1204 1.378 . S
C1202 C1206 1.350 . S
C1203 C1206 1.463 . S
C1203 C1208 1.350 . S
C1203 N1211 1.427 . S
C1204 H1195 0.930 . S
C1204 C1202 1.378 . S
C1204 C1205 1.367 . S
C1205 C1204 1.367 . S
C1205 C1207 1.433 . S
C1206 C1202 1.350 . S
C1206 C1203 1.463 . S
C1206 N1210 1.427 . S
C1207 H1197 0.929 . S
C1207 C1205 1.433 . S
C1207 N1210 1.384 . S
C1208 H1199 0.929 . S
C1208 C1200 1.378 . S
C1208 C1203 1.350 . S
C1209 H1196 0.929 . S
C1209 C1201 1.433 . S
C1209 N1211 1.384 . S
N1210 C1206 1.427 . S
N1210 C1207 1.384 . S
N1211 C1203 1.427 . S
N1211 C1209 1.384 . S
H1212 C1218 0.930 . S
H1213 C1222 0.930 . S
H1214 C1227 0.929 . S
H1215 C1225 0.929 . S
H1216 C1220 0.929 . S
H1217 C1226 0.929 . S
C1218 H1212 0.930 . S
C1218 C1219 1.367 . S
C1218 C1226 1.378 . S
C1219 C1218 1.367 . S
C1219 C1227 1.433 . S
C1220 H1216 0.929 . S
C1220 C1222 1.378 . S
C1220 C1224 1.350 . S
C1221 C1224 1.463 . S
C1221 C1226 1.350 . S
C1221 N1229 1.427 . S
C1222 H1213 0.930 . S
C1222 C1220 1.378 . S
C1222 C1223 1.367 . S
C1223 C1222 1.367 . S
C1223 C1225 1.433 . S
C1224 C1220 1.350 . S
C1224 C1221 1.463 . S
C1224 N1228 1.427 . S
C1225 H1215 0.929 . S
C1225 C1223 1.433 . S
C1225 N1228 1.384 . S
C1226 H1217 0.929 . S
C1226 C1218 1.378 . S
C1226 C1221 1.350 . S
C1227 H1214 0.929 . S
C1227 C1219 1.433 . S
C1227 N1229 1.384 . S
N1228 C1224 1.427 . S
N1228 C1225 1.384 . S
N1229 C1221 1.427 . S
N1229 C1227 1.384 . S
H1230 C1236 0.930 . S
H1231 C1240 0.930 . S
H1232 C1245 0.929 . S
H1233 C1243 0.929 . S
H1234 C1238 0.929 . S
H1235 C1244 0.929 . S
C1236 H1230 0.930 . S
C1236 C1237 1.367 . S
C1236 C1244 1.378 . S
C1237 C1236 1.367 . S
C1237 C1245 1.433 . S
C1238 H1234 0.929 . S
C1238 C1240 1.378 . S
C1238 C1242 1.350 . S
C1239 C1242 1.463 . S
C1239 C1244 1.350 . S
C1239 N1247 1.427 . S
C1240 H1231 0.930 . S
C1240 C1238 1.378 . S
C1240 C1241 1.367 . S
C1241 C1240 1.367 . S
C1241 C1243 1.433 . S
C1242 C1238 1.350 . S
C1242 C1239 1.463 . S
C1242 N1246 1.427 . S
C1243 H1233 0.929 . S
C1243 C1241 1.433 . S
C1243 N1246 1.384 . S
C1244 H1235 0.929 . S
C1244 C1236 1.378 . S
C1244 C1239 1.350 . S
C1245 H1232 0.929 . S
C1245 C1237 1.433 . S
C1245 N1247 1.384 . S
N1246 C1242 1.427 . S
N1246 C1243 1.384 . S
N1247 C1239 1.427 . S
N1247 C1245 1.384 . S
H1248 C1254 0.930 . S
H1249 C1258 0.930 . S
H1250 C1263 0.929 . S
H1251 C1261 0.929 . S
H1252 C1256 0.929 . S
H1253 C1262 0.929 . S
C1254 H1248 0.930 . S
C1254 C1255 1.367 . S
C1254 C1262 1.378 . S
C1255 C1254 1.367 . S
C1255 C1263 1.433 . S
C1256 H1252 0.929 . S
C1256 C1258 1.378 . S
C1256 C1260 1.350 . S
C1257 C1260 1.463 . S
C1257 C1262 1.350 . S
C1257 N1265 1.427 . S
C1258 H1249 0.930 . S
C1258 C1256 1.378 . S
C1258 C1259 1.367 . S
C1259 C1258 1.367 . S
C1259 C1261 1.433 . S
C1260 C1256 1.350 . S
C1260 C1257 1.463 . S
C1260 N1264 1.427 . S
C1261 H1251 0.929 . S
C1261 C1259 1.433 . S
C1261 N1264 1.384 . S
C1262 H1253 0.929 . S
C1262 C1254 1.378 . S
C1262 C1257 1.350 . S
C1263 H1250 0.929 . S
C1263 C1255 1.433 . S
C1263 N1265 1.384 . S
N1264 C1260 1.427 . S
N1264 C1261 1.384 . S
N1265 C1257 1.427 . S
N1265 C1263 1.384 . S
H1266 C1272 0.930 . S
H1267 C1276 0.930 . S
H1268 C1281 0.929 . S
H1269 C1279 0.929 . S
H1270 C1274 0.929 . S
H1271 C1280 0.929 . S
C1272 H1266 0.930 . S
C1272 C1273 1.367 . S
C1272 C1280 1.378 . S
C1273 C1272 1.367 . S
C1273 C1281 1.433 . S
C1274 H1270 0.929 . S
C1274 C1276 1.378 . S
C1274 C1278 1.350 . S
C1275 C1278 1.463 . S
C1275 C1280 1.350 . S
C1275 N1283 1.427 . S
C1276 H1267 0.930 . S
C1276 C1274 1.378 . S
C1276 C1277 1.367 . S
C1277 C1276 1.367 . S
C1277 C1279 1.433 . S
C1278 C1274 1.350 . S
C1278 C1275 1.463 . S
C1278 N1282 1.427 . S
C1279 H1269 0.929 . S
C1279 C1277 1.433 . S
C1279 N1282 1.384 . S
C1280 H1271 0.929 . S
C1280 C1272 1.378 . S
C1280 C1275 1.350 . S
C1281 H1268 0.929 . S
C1281 C1273 1.433 . S
C1281 N1283 1.384 . S
N1282 C1278 1.427 . S
N1282 C1279 1.384 . S
N1283 C1275 1.427 . S
N1283 C1281 1.384 . S
H1284 C1290 0.930 . S
H1285 C1294 0.930 . S
H1286 C1299 0.929 . S
H1287 C1297 0.929 . S
H1288 C1292 0.929 . S
H1289 C1298 0.929 . S
C1290 H1284 0.930 . S
C1290 C1291 1.367 . S
C1290 C1298 1.378 . S
C1291 C1290 1.367 . S
C1291 C1299 1.433 . S
C1292 H1288 0.929 . S
C1292 C1294 1.378 . S
C1292 C1296 1.350 . S
C1293 C1296 1.463 . S
C1293 C1298 1.350 . S
C1293 N1301 1.427 . S
C1294 H1285 0.930 . S
C1294 C1292 1.378 . S
C1294 C1295 1.412 . S
C1295 C1294 1.412 . S
C1295 C1297 1.409 1_565 S
C1296 C1292 1.350 . S
C1296 C1293 1.463 . S
C1296 N1300 1.413 1_565 S
C1297 H1287 0.929 . S
C1297 C1295 1.409 1_545 S
C1297 N1300 1.391 . S
C1298 H1289 0.929 . S
C1298 C1290 1.378 . S
C1298 C1293 1.350 . S
C1299 H1286 0.929 . S
C1299 C1291 1.433 . S
C1299 N1301 1.384 . S
N1300 C1296 1.413 1_545 S
N1300 C1297 1.391 . S
N1301 C1293 1.427 . S
N1301 C1299 1.384 . S
H1302 C1308 0.930 . S
H1303 C1312 0.930 . S
H1304 C1317 0.929 . S
H1305 C1315 0.929 . S
H1306 C1310 0.929 1_554 S
H1307 C1316 0.929 . S
C1308 H1302 0.930 . S
C1308 C1309 1.407 . S
C1308 C1316 1.378 . S
C1309 C1308 1.407 . S
C1309 C1317 1.407 1_556 S
C1310 H1306 0.929 1_556 S
C1310 C1312 1.378 . S
C1310 C1314 1.350 . S
C1311 C1314 1.463 . S
C1311 C1316 1.350 . S
C1311 N1319 1.427 1_556 S
C1312 H1303 0.930 . S
C1312 C1310 1.378 . S
C1312 C1313 1.367 . S
C1313 C1312 1.367 . S
C1313 C1315 1.433 . S
C1314 C1310 1.350 . S
C1314 C1311 1.463 . S
C1314 N1318 1.427 . S
C1315 H1305 0.929 . S
C1315 C1313 1.433 . S
C1315 N1318 1.384 . S
C1316 H1307 0.929 . S
C1316 C1308 1.378 . S
C1316 C1311 1.350 . S
C1317 H1304 0.929 . S
C1317 C1309 1.407 1_554 S
C1317 N1319 1.384 . S
N1318 C1314 1.427 . S
N1318 C1315 1.384 . S
N1319 C1311 1.427 1_554 S
N1319 C1317 1.384 . S
H1320 C1326 0.930 . S
H1321 C1330 0.930 . S
H1322 C1335 0.929 . S
H1323 C1333 0.929 . S
H1324 C1328 0.929 . S
H1325 C1334 0.929 . S
C1326 H1320 0.930 . S
C1326 C1327 1.367 . S
C1326 C1334 1.378 . S
C1327 C1326 1.367 . S
C1327 C1335 1.433 . S
C1328 H1324 0.929 . S
C1328 C1330 1.378 . S
C1328 C1332 1.350 . S
C1329 C1332 1.463 . S
C1329 C1334 1.350 . S
C1329 N1337 1.427 . S
C1330 H1321 0.930 . S
C1330 C1328 1.378 . S
C1330 C1331 1.367 . S
C1331 C1330 1.367 . S
C1331 C1333 1.433 . S
C1332 C1328 1.350 . S
C1332 C1329 1.463 . S
C1332 N1336 1.427 . S
C1333 H1323 0.929 . S
C1333 C1331 1.433 . S
C1333 N1336 1.384 . S
C1334 H1325 0.929 . S
C1334 C1326 1.378 . S
C1334 C1329 1.350 . S
C1335 H1322 0.929 . S
C1335 C1327 1.433 . S
C1335 N1337 1.384 . S
N1336 C1332 1.427 . S
N1336 C1333 1.384 . S
N1337 C1329 1.427 . S
N1337 C1335 1.384 . S
H1338 C1344 0.930 . S
H1339 C1348 0.930 . S
H1340 C1353 0.929 . S
H1341 C1351 0.929 . S
H1342 C1346 0.929 . S
H1343 C1352 0.929 . S
C1344 H1338 0.930 . S
C1344 C1345 1.367 . S
C1344 C1352 1.378 . S
C1345 C1344 1.367 . S
C1345 C1353 1.433 . S
C1346 H1342 0.929 . S
C1346 C1348 1.378 . S
C1346 C1350 1.350 . S
C1347 C1350 1.463 . S
C1347 C1352 1.350 . S
C1347 N1355 1.427 . S
C1348 H1339 0.930 . S
C1348 C1346 1.378 . S
C1348 C1349 1.367 . S
C1349 C1348 1.367 . S
C1349 C1351 1.433 . S
C1350 C1346 1.350 . S
C1350 C1347 1.463 . S
C1350 N1354 1.427 . S
C1351 H1341 0.929 . S
C1351 C1349 1.433 . S
C1351 N1354 1.384 . S
C1352 H1343 0.929 . S
C1352 C1344 1.378 . S
C1352 C1347 1.350 . S
C1353 H1340 0.929 . S
C1353 C1345 1.433 . S
C1353 N1355 1.384 . S
N1354 C1350 1.427 . S
N1354 C1351 1.384 . S
N1355 C1347 1.427 . S
N1355 C1353 1.384 . S
H1356 C1362 0.930 . S
H1357 C1366 0.930 . S
H1358 C1371 0.929 . S
H1359 C1369 0.929 . S
H1360 C1364 0.929 . S
H1361 C1370 0.929 . S
C1362 H1356 0.930 . S
C1362 C1363 1.367 . S
C1362 C1370 1.378 . S
C1363 C1362 1.367 . S
C1363 C1371 1.433 . S
C1364 H1360 0.929 . S
C1364 C1366 1.378 . S
C1364 C1368 1.350 . S
C1365 C1368 1.463 . S
C1365 C1370 1.350 . S
C1365 N1373 1.427 . S
C1366 H1357 0.930 . S
C1366 C1364 1.378 . S
C1366 C1367 1.367 . S
C1367 C1366 1.367 . S
C1367 C1369 1.433 . S
C1368 C1364 1.350 . S
C1368 C1365 1.463 . S
C1368 N1372 1.427 . S
C1369 H1359 0.929 . S
C1369 C1367 1.433 . S
C1369 N1372 1.384 . S
C1370 H1361 0.929 . S
C1370 C1362 1.378 . S
C1370 C1365 1.350 . S
C1371 H1358 0.929 . S
C1371 C1363 1.433 . S
C1371 N1373 1.384 . S
N1372 C1368 1.427 . S
N1372 C1369 1.384 . S
N1373 C1365 1.427 . S
N1373 C1371 1.384 . S
H1374 C1380 0.930 . S
H1375 C1384 0.930 . S
H1376 C1389 0.929 . S
H1377 C1387 0.929 . S
H1378 C1382 0.929 . S
H1379 C1388 0.929 . S
C1380 H1374 0.930 . S
C1380 C1381 1.367 . S
C1380 C1388 1.378 . S
C1381 C1380 1.367 . S
C1381 C1389 1.433 . S
C1382 H1378 0.929 . S
C1382 C1384 1.378 . S
C1382 C1386 1.350 . S
C1383 C1386 1.463 . S
C1383 C1388 1.350 . S
C1383 N1391 1.427 . S
C1384 H1375 0.930 . S
C1384 C1382 1.378 . S
C1384 C1385 1.367 . S
C1385 C1384 1.367 . S
C1385 C1387 1.433 . S
C1386 C1382 1.350 . S
C1386 C1383 1.463 . S
C1386 N1390 1.427 . S
C1387 H1377 0.929 . S
C1387 C1385 1.433 . S
C1387 N1390 1.384 . S
C1388 H1379 0.929 . S
C1388 C1380 1.378 . S
C1388 C1383 1.350 . S
C1389 H1376 0.929 . S
C1389 C1381 1.433 . S
C1389 N1391 1.384 . S
N1390 C1386 1.427 . S
N1390 C1387 1.384 . S
N1391 C1383 1.427 . S
N1391 C1389 1.384 . S
H1392 C1398 0.930 . S
H1393 C1402 0.930 . S
H1394 C1407 0.929 . S
H1395 C1405 0.929 . S
H1396 C1400 0.929 . S
H1397 C1406 0.929 . S
C1398 H1392 0.930 . S
C1398 C1399 1.367 . S
C1398 C1406 1.378 . S
C1399 C1398 1.367 . S
C1399 C1407 1.433 . S
C1400 H1396 0.929 . S
C1400 C1402 1.378 . S
C1400 C1404 1.350 . S
C1401 C1404 1.463 . S
C1401 C1406 1.350 . S
C1401 N1409 1.427 . S
C1402 H1393 0.930 . S
C1402 C1400 1.378 . S
C1402 C1403 1.367 . S
C1403 C1402 1.367 . S
C1403 C1405 1.433 . S
C1404 C1400 1.350 . S
C1404 C1401 1.463 . S
C1404 N1408 1.427 . S
C1405 H1395 0.929 . S
C1405 C1403 1.433 . S
C1405 N1408 1.384 . S
C1406 H1397 0.929 . S
C1406 C1398 1.378 . S
C1406 C1401 1.350 . S
C1407 H1394 0.929 . S
C1407 C1399 1.433 . S
C1407 N1409 1.384 . S
N1408 C1404 1.427 . S
N1408 C1405 1.384 . S
N1409 C1401 1.427 . S
N1409 C1407 1.384 . S
H1410 C1416 0.930 . S
H1411 C1420 0.930 . S
H1412 C1425 0.929 . S
H1413 C1423 0.929 . S
H1414 C1418 0.929 . S
H1415 C1424 0.929 . S
C1416 H1410 0.930 . S
C1416 C1417 1.367 . S
C1416 C1424 1.378 . S
C1417 C1416 1.367 . S
C1417 C1425 1.433 . S
C1418 H1414 0.929 . S
C1418 C1420 1.378 . S
C1418 C1422 1.350 . S
C1419 C1422 1.463 . S
C1419 C1424 1.350 . S
C1419 N1427 1.427 . S
C1420 H1411 0.930 . S
C1420 C1418 1.378 . S
C1420 C1421 1.367 . S
C1421 C1420 1.367 . S
C1421 C1423 1.433 . S
C1422 C1418 1.350 . S
C1422 C1419 1.463 . S
C1422 N1426 1.427 . S
C1423 H1413 0.929 . S
C1423 C1421 1.433 . S
C1423 N1426 1.384 . S
C1424 H1415 0.929 . S
C1424 C1416 1.378 . S
C1424 C1419 1.350 . S
C1425 H1412 0.929 . S
C1425 C1417 1.433 . S
C1425 N1427 1.384 . S
N1426 C1422 1.427 . S
N1426 C1423 1.384 . S
N1427 C1419 1.427 . S
N1427 C1425 1.384 . S
H1428 C1434 0.930 . S
H1429 C1438 0.930 . S
H1430 C1443 0.929 . S
H1431 C1441 0.929 . S
H1432 C1436 0.929 . S
H1433 C1442 0.929 . S
C1434 H1428 0.930 . S
C1434 C1435 1.367 . S
C1434 C1442 1.378 . S
C1435 C1434 1.367 . S
C1435 C1443 1.433 . S
C1436 H1432 0.929 . S
C1436 C1438 1.378 . S
C1436 C1440 1.350 . S
C1437 C1440 1.463 . S
C1437 C1442 1.350 . S
C1437 N1445 1.427 . S
C1438 H1429 0.930 . S
C1438 C1436 1.378 . S
C1438 C1439 1.367 . S
C1439 C1438 1.367 . S
C1439 C1441 1.433 . S
C1440 C1436 1.350 . S
C1440 C1437 1.463 . S
C1440 N1444 1.427 . S
C1441 H1431 0.929 . S
C1441 C1439 1.433 . S
C1441 N1444 1.384 . S
C1442 H1433 0.929 . S
C1442 C1434 1.378 . S
C1442 C1437 1.350 . S
C1443 H1430 0.929 . S
C1443 C1435 1.433 . S
C1443 N1445 1.384 . S
N1444 C1440 1.427 . S
N1444 C1441 1.384 . S
N1445 C1437 1.427 . S
N1445 C1443 1.384 . S
H1446 C1452 0.930 . S
H1447 C1456 0.930 . S
H1448 C1461 0.929 . S
H1449 C1459 0.929 . S
H1450 C1454 0.929 . S
H1451 C1460 0.929 . S
C1452 H1446 0.930 . S
C1452 C1453 1.367 . S
C1452 C1460 1.378 . S
C1453 C1452 1.367 . S
C1453 C1461 1.433 . S
C1454 H1450 0.929 . S
C1454 C1456 1.378 . S
C1454 C1458 1.350 . S
C1455 C1458 1.463 . S
C1455 C1460 1.350 . S
C1455 N1463 1.427 . S
C1456 H1447 0.930 . S
C1456 C1454 1.378 . S
C1456 C1457 1.367 . S
C1457 C1456 1.367 . S
C1457 C1459 1.433 . S
C1458 C1454 1.350 . S
C1458 C1455 1.463 . S
C1458 N1462 1.427 . S
C1459 H1449 0.929 . S
C1459 C1457 1.433 . S
C1459 N1462 1.384 . S
C1460 H1451 0.929 . S
C1460 C1452 1.378 . S
C1460 C1455 1.350 . S
C1461 H1448 0.929 . S
C1461 C1453 1.433 . S
C1461 N1463 1.384 . S
N1462 C1458 1.427 . S
N1462 C1459 1.384 . S
N1463 C1455 1.427 . S
N1463 C1461 1.384 . S
H1464 C1470 0.930 . S
H1465 C1474 0.930 . S
H1466 C1479 0.929 . S
H1467 C1477 0.929 . S
H1468 C1472 0.929 . S
H1469 C1478 0.929 . S
C1470 H1464 0.930 . S
C1470 C1471 1.367 . S
C1470 C1478 1.378 . S
C1471 C1470 1.367 . S
C1471 C1479 1.433 . S
C1472 H1468 0.929 . S
C1472 C1474 1.378 . S
C1472 C1476 1.350 . S
C1473 C1476 1.463 . S
C1473 C1478 1.350 . S
C1473 N1481 1.427 . S
C1474 H1465 0.930 . S
C1474 C1472 1.378 . S
C1474 C1475 1.367 . S
C1475 C1474 1.367 . S
C1475 C1477 1.433 . S
C1476 C1472 1.350 . S
C1476 C1473 1.463 . S
C1476 N1480 1.427 . S
C1477 H1467 0.929 . S
C1477 C1475 1.433 . S
C1477 N1480 1.384 . S
C1478 H1469 0.929 . S
C1478 C1470 1.378 . S
C1478 C1473 1.350 . S
C1479 H1466 0.929 . S
C1479 C1471 1.433 . S
C1479 N1481 1.384 . S
N1480 C1476 1.427 . S
N1480 C1477 1.384 . S
N1481 C1473 1.427 . S
N1481 C1479 1.384 . S
H1482 C1488 0.930 . S
H1483 C1492 0.930 . S
H1484 C1497 0.929 . S
H1485 C1495 0.929 . S
H1486 C1490 0.929 . S
H1487 C1496 0.929 . S
C1488 H1482 0.930 . S
C1488 C1489 1.367 . S
C1488 C1496 1.378 . S
C1489 C1488 1.367 . S
C1489 C1497 1.433 . S
C1490 H1486 0.929 . S
C1490 C1492 1.378 . S
C1490 C1494 1.350 . S
C1491 C1494 1.463 . S
C1491 C1496 1.350 . S
C1491 N1499 1.427 . S
C1492 H1483 0.930 . S
C1492 C1490 1.378 . S
C1492 C1493 1.367 . S
C1493 C1492 1.367 . S
C1493 C1495 1.433 . S
C1494 C1490 1.350 . S
C1494 C1491 1.463 . S
C1494 N1498 1.427 . S
C1495 H1485 0.929 . S
C1495 C1493 1.433 . S
C1495 N1498 1.384 . S
C1496 H1487 0.929 . S
C1496 C1488 1.378 . S
C1496 C1491 1.350 . S
C1497 H1484 0.929 . S
C1497 C1489 1.433 . S
C1497 N1499 1.384 . S
N1498 C1494 1.427 . S
N1498 C1495 1.384 . S
N1499 C1491 1.427 . S
N1499 C1497 1.384 . S
H1500 C1506 0.930 . S
H1501 C1510 0.930 . S
H1502 C1515 0.929 . S
H1503 C1513 0.929 . S
H1504 C1508 0.929 . S
H1505 C1514 0.929 . S
C1506 H1500 0.930 . S
C1506 C1507 1.367 . S
C1506 C1514 1.378 . S
C1507 C1506 1.367 . S
C1507 C1515 1.433 . S
C1508 H1504 0.929 . S
C1508 C1510 1.378 . S
C1508 C1512 1.350 1_554 S
C1509 C1512 1.463 . S
C1509 C1514 1.350 . S
C1509 N1517 1.427 . S
C1510 H1501 0.930 . S
C1510 C1508 1.378 . S
C1510 C1511 1.355 1_554 S
C1511 C1510 1.355 1_556 S
C1511 C1513 1.453 . S
C1512 C1508 1.350 1_556 S
C1512 C1509 1.463 . S
C1512 N1516 1.427 . S
C1513 H1503 0.929 . S
C1513 C1511 1.453 . S
C1513 N1516 1.384 . S
C1514 H1505 0.929 . S
C1514 C1506 1.378 . S
C1514 C1509 1.350 . S
C1515 H1502 0.929 . S
C1515 C1507 1.433 . S
C1515 N1517 1.384 . S
N1516 C1512 1.427 . S
N1516 C1513 1.384 . S
N1517 C1509 1.427 . S
N1517 C1515 1.384 . S
H1518 C1524 0.930 . S
H1519 C1528 0.930 . S
H1520 C1533 0.929 . S
H1521 C1531 0.929 . S
H1522 C1526 0.929 . S
H1523 C1532 0.929 . S
C1524 H1518 0.930 . S
C1524 C1525 1.367 . S
C1524 C1532 1.378 . S
C1525 C1524 1.367 . S
C1525 C1533 1.433 . S
C1526 H1522 0.929 . S
C1526 C1528 1.378 . S
C1526 C1530 1.350 . S
C1527 C1530 1.463 . S
C1527 C1532 1.350 . S
C1527 N1535 1.427 . S
C1528 H1519 0.930 . S
C1528 C1526 1.378 . S
C1528 C1529 1.367 . S
C1529 C1528 1.367 . S
C1529 C1531 1.433 . S
C1530 C1526 1.350 . S
C1530 C1527 1.463 . S
C1530 N1534 1.427 . S
C1531 H1521 0.929 . S
C1531 C1529 1.433 . S
C1531 N1534 1.384 . S
C1532 H1523 0.929 . S
C1532 C1524 1.378 . S
C1532 C1527 1.350 . S
C1533 H1520 0.929 . S
C1533 C1525 1.433 . S
C1533 N1535 1.384 . S
N1534 C1530 1.427 . S
N1534 C1531 1.384 . S
N1535 C1527 1.427 . S
N1535 C1533 1.384 . S
H1536 C1542 0.930 . S
H1537 C1546 0.930 . S
H1538 C1551 0.929 . S
H1539 C1549 0.929 . S
H1540 C1544 0.929 . S
H1541 C1550 0.929 . S
C1542 H1536 0.930 . S
C1542 C1543 1.367 . S
C1542 C1550 1.378 . S
C1543 C1542 1.367 . S
C1543 C1551 1.433 . S
C1544 H1540 0.929 . S
C1544 C1546 1.378 . S
C1544 C1548 1.350 . S
C1545 C1548 1.463 . S
C1545 C1550 1.350 . S
C1545 N1553 1.427 . S
C1546 H1537 0.930 . S
C1546 C1544 1.378 . S
C1546 C1547 1.367 . S
C1547 C1546 1.367 . S
C1547 C1549 1.433 . S
C1548 C1544 1.350 . S
C1548 C1545 1.463 . S
C1548 N1552 1.427 . S
C1549 H1539 0.929 . S
C1549 C1547 1.433 . S
C1549 N1552 1.384 . S
C1550 H1541 0.929 . S
C1550 C1542 1.378 . S
C1550 C1545 1.350 . S
C1551 H1538 0.929 . S
C1551 C1543 1.433 . S
C1551 N1553 1.384 . S
N1552 C1548 1.427 . S
N1552 C1549 1.384 . S
N1553 C1545 1.427 . S
N1553 C1551 1.384 . S
H1554 C1560 0.930 . S
H1555 C1564 0.930 . S
H1556 C1569 0.929 . S
H1557 C1567 0.929 . S
H1558 C1562 0.929 . S
H1559 C1568 0.929 . S
C1560 H1554 0.930 . S
C1560 C1561 1.367 . S
C1560 C1568 1.378 . S
C1561 C1560 1.367 . S
C1561 C1569 1.433 . S
C1562 H1558 0.929 . S
C1562 C1564 1.378 . S
C1562 C1566 1.350 . S
C1563 C1566 1.463 . S
C1563 C1568 1.350 . S
C1563 N1571 1.427 . S
C1564 H1555 0.930 . S
C1564 C1562 1.378 . S
C1564 C1565 1.367 . S
C1565 C1564 1.367 . S
C1565 C1567 1.433 . S
C1566 C1562 1.350 . S
C1566 C1563 1.463 . S
C1566 N1570 1.427 . S
C1567 H1557 0.929 . S
C1567 C1565 1.433 . S
C1567 N1570 1.384 . S
C1568 H1559 0.929 . S
C1568 C1560 1.378 . S
C1568 C1563 1.350 . S
C1569 H1556 0.929 . S
C1569 C1561 1.433 . S
C1569 N1571 1.384 . S
N1570 C1566 1.427 . S
N1570 C1567 1.384 . S
N1571 C1563 1.427 . S
N1571 C1569 1.384 . S
H1572 C1578 0.930 . S
H1573 C1582 0.930 . S
H1574 C1587 0.929 . S
H1575 C1585 0.929 . S
H1576 C1580 0.929 . S
H1577 C1586 0.929 . S
C1578 H1572 0.930 . S
C1578 C1579 1.367 . S
C1578 C1586 1.378 . S
C1579 C1578 1.367 . S
C1579 C1587 1.433 . S
C1580 H1576 0.929 . S
C1580 C1582 1.378 . S
C1580 C1584 1.350 . S
C1581 C1584 1.463 . S
C1581 C1586 1.350 . S
C1581 N1589 1.427 . S
C1582 H1573 0.930 . S
C1582 C1580 1.378 . S
C1582 C1583 1.367 . S
C1583 C1582 1.367 . S
C1583 C1585 1.433 . S
C1584 C1580 1.350 . S
C1584 C1581 1.463 . S
C1584 N1588 1.427 . S
C1585 H1575 0.929 . S
C1585 C1583 1.433 . S
C1585 N1588 1.384 . S
C1586 H1577 0.929 . S
C1586 C1578 1.378 . S
C1586 C1581 1.350 . S
C1587 H1574 0.929 . S
C1587 C1579 1.433 . S
C1587 N1589 1.384 . S
N1588 C1584 1.427 . S
N1588 C1585 1.384 . S
N1589 C1581 1.427 . S
N1589 C1587 1.384 . S
H1590 C1596 0.930 . S
H1591 C1600 0.930 . S
H1592 C1605 0.929 . S
H1593 C1603 0.929 . S
H1594 C1598 0.929 . S
H1595 C1604 0.929 . S
C1596 H1590 0.930 . S
C1596 C1597 1.367 . S
C1596 C1604 1.378 . S
C1597 C1596 1.367 . S
C1597 C1605 1.433 . S
C1598 H1594 0.929 . S
C1598 C1600 1.378 . S
C1598 C1602 1.350 . S
C1599 C1602 1.463 . S
C1599 C1604 1.350 . S
C1599 N1607 1.427 . S
C1600 H1591 0.930 . S
C1600 C1598 1.378 . S
C1600 C1601 1.367 . S
C1601 C1600 1.367 . S
C1601 C1603 1.433 . S
C1602 C1598 1.350 . S
C1602 C1599 1.463 . S
C1602 N1606 1.427 . S
C1603 H1593 0.929 . S
C1603 C1601 1.433 . S
C1603 N1606 1.384 . S
C1604 H1595 0.929 . S
C1604 C1596 1.378 . S
C1604 C1599 1.350 . S
C1605 H1592 0.929 . S
C1605 C1597 1.433 . S
C1605 N1607 1.384 . S
N1606 C1602 1.427 . S
N1606 C1603 1.384 . S
N1607 C1599 1.427 . S
N1607 C1605 1.384 . S
H1608 C1614 0.930 . S
H1609 C1618 0.930 . S
H1610 C1623 0.929 . S
H1611 C1621 0.929 . S
H1612 C1616 0.929 . S
H1613 C1622 0.929 . S
C1614 H1608 0.930 . S
C1614 C1615 1.367 . S
C1614 C1622 1.378 . S
C1615 C1614 1.367 . S
C1615 C1623 1.433 . S
C1616 H1612 0.929 . S
C1616 C1618 1.378 . S
C1616 C1620 1.350 . S
C1617 C1620 1.463 . S
C1617 C1622 1.350 . S
C1617 N1625 1.427 . S
C1618 H1609 0.930 . S
C1618 C1616 1.378 . S
C1618 C1619 1.367 . S
C1619 C1618 1.367 . S
C1619 C1621 1.433 . S
C1620 C1616 1.350 . S
C1620 C1617 1.463 . S
C1620 N1624 1.427 . S
C1621 H1611 0.929 . S
C1621 C1619 1.433 . S
C1621 N1624 1.384 . S
C1622 H1613 0.929 . S
C1622 C1614 1.378 . S
C1622 C1617 1.350 . S
C1623 H1610 0.929 . S
C1623 C1615 1.433 . S
C1623 N1625 1.384 . S
N1624 C1620 1.427 . S
N1624 C1621 1.384 . S
N1625 C1617 1.427 . S
N1625 C1623 1.384 . S
H1626 C1632 0.930 . S
H1627 C1636 0.930 . S
H1628 C1641 0.929 . S
H1629 C1639 0.929 . S
H1630 C1634 0.929 . S
H1631 C1640 0.929 . S
C1632 H1626 0.930 . S
C1632 C1633 1.367 . S
C1632 C1640 1.378 . S
C1633 C1632 1.367 . S
C1633 C1641 1.433 . S
C1634 H1630 0.929 . S
C1634 C1636 1.378 . S
C1634 C1638 1.350 . S
C1635 C1638 1.463 . S
C1635 C1640 1.350 . S
C1635 N1643 1.427 . S
C1636 H1627 0.930 . S
C1636 C1634 1.378 . S
C1636 C1637 1.367 . S
C1637 C1636 1.367 . S
C1637 C1639 1.433 . S
C1638 C1634 1.350 . S
C1638 C1635 1.463 . S
C1638 N1642 1.427 . S
C1639 H1629 0.929 . S
C1639 C1637 1.433 . S
C1639 N1642 1.384 . S
C1640 H1631 0.929 . S
C1640 C1632 1.378 . S
C1640 C1635 1.350 . S
C1641 H1628 0.929 . S
C1641 C1633 1.433 . S
C1641 N1643 1.384 . S
N1642 C1638 1.427 . S
N1642 C1639 1.384 . S
N1643 C1635 1.427 . S
N1643 C1641 1.384 . S
H1644 C1650 0.930 . S
H1645 C1654 0.930 . S
H1646 C1659 0.929 . S
H1647 C1657 0.929 . S
H1648 C1652 0.929 . S
H1649 C1658 0.929 . S
C1650 H1644 0.930 . S
C1650 C1651 1.367 . S
C1650 C1658 1.378 . S
C1651 C1650 1.367 . S
C1651 C1659 1.433 . S
C1652 H1648 0.929 . S
C1652 C1654 1.378 . S
C1652 C1656 1.350 . S
C1653 C1656 1.463 . S
C1653 C1658 1.350 . S
C1653 N1661 1.427 . S
C1654 H1645 0.930 . S
C1654 C1652 1.378 . S
C1654 C1655 1.367 . S
C1655 C1654 1.367 . S
C1655 C1657 1.433 . S
C1656 C1652 1.350 . S
C1656 C1653 1.463 . S
C1656 N1660 1.427 . S
C1657 H1647 0.929 . S
C1657 C1655 1.433 . S
C1657 N1660 1.384 . S
C1658 H1649 0.929 . S
C1658 C1650 1.378 . S
C1658 C1653 1.350 . S
C1659 H1646 0.929 . S
C1659 C1651 1.433 . S
C1659 N1661 1.384 . S
N1660 C1656 1.427 . S
N1660 C1657 1.384 . S
N1661 C1653 1.427 . S
N1661 C1659 1.384 . S
H1662 C1668 0.930 . S
H1663 C1672 0.930 . S
H1664 C1677 0.929 . S
H1665 C1675 0.929 . S
H1666 C1670 0.929 . S
H1667 C1676 0.929 . S
C1668 H1662 0.930 . S
C1668 C1669 1.367 . S
C1668 C1676 1.378 . S
C1669 C1668 1.367 . S
C1669 C1677 1.433 . S
C1670 H1666 0.929 . S
C1670 C1672 1.378 . S
C1670 C1674 1.350 . S
C1671 C1674 1.463 . S
C1671 C1676 1.350 . S
C1671 N1679 1.427 . S
C1672 H1663 0.930 . S
C1672 C1670 1.378 . S
C1672 C1673 1.367 . S
C1673 C1672 1.367 . S
C1673 C1675 1.433 . S
C1674 C1670 1.350 . S
C1674 C1671 1.463 . S
C1674 N1678 1.427 . S
C1675 H1665 0.929 . S
C1675 C1673 1.433 . S
C1675 N1678 1.384 . S
C1676 H1667 0.929 . S
C1676 C1668 1.378 . S
C1676 C1671 1.350 . S
C1677 H1664 0.929 . S
C1677 C1669 1.433 . S
C1677 N1679 1.384 . S
N1678 C1674 1.427 . S
N1678 C1675 1.384 . S
N1679 C1671 1.427 . S
N1679 C1677 1.384 . S
H1680 C1686 0.930 . S
H1681 C1690 0.930 . S
H1682 C1695 0.929 . S
H1683 C1693 0.929 . S
H1684 C1688 0.929 . S
H1685 C1694 0.929 . S
C1686 H1680 0.930 . S
C1686 C1687 1.367 . S
C1686 C1694 1.378 . S
C1687 C1686 1.367 . S
C1687 C1695 1.433 . S
C1688 H1684 0.929 . S
C1688 C1690 1.378 . S
C1688 C1692 1.350 . S
C1689 C1692 1.463 . S
C1689 C1694 1.350 . S
C1689 N1697 1.427 . S
C1690 H1681 0.930 . S
C1690 C1688 1.378 . S
C1690 C1691 1.367 . S
C1691 C1690 1.367 . S
C1691 C1693 1.433 . S
C1692 C1688 1.350 . S
C1692 C1689 1.463 . S
C1692 N1696 1.427 . S
C1693 H1683 0.929 . S
C1693 C1691 1.433 . S
C1693 N1696 1.384 . S
C1694 H1685 0.929 . S
C1694 C1686 1.378 . S
C1694 C1689 1.350 . S
C1695 H1682 0.929 . S
C1695 C1687 1.433 . S
C1695 N1697 1.384 . S
N1696 C1692 1.427 . S
N1696 C1693 1.384 . S
N1697 C1689 1.427 . S
N1697 C1695 1.384 . S
H1698 C1704 0.930 . S
H1699 C1708 0.930 . S
H1700 C1713 0.929 . S
H1701 C1711 0.929 . S
H1702 C1706 0.929 . S
H1703 C1712 0.929 . S
C1704 H1698 0.930 . S
C1704 C1705 1.367 . S
C1704 C1712 1.378 . S
C1705 C1704 1.367 . S
C1705 C1713 1.433 . S
C1706 H1702 0.929 . S
C1706 C1708 1.378 . S
C1706 C1710 1.350 . S
C1707 C1710 1.463 . S
C1707 C1712 1.350 . S
C1707 N1715 1.427 . S
C1708 H1699 0.930 . S
C1708 C1706 1.378 . S
C1708 C1709 1.367 . S
C1709 C1708 1.367 . S
C1709 C1711 1.433 . S
C1710 C1706 1.350 . S
C1710 C1707 1.463 . S
C1710 N1714 1.427 . S
C1711 H1701 0.929 . S
C1711 C1709 1.433 . S
C1711 N1714 1.384 . S
C1712 H1703 0.929 . S
C1712 C1704 1.378 . S
C1712 C1707 1.350 . S
C1713 H1700 0.929 . S
C1713 C1705 1.433 . S
C1713 N1715 1.384 . S
N1714 C1710 1.427 . S
N1714 C1711 1.384 . S
N1715 C1707 1.427 . S
N1715 C1713 1.384 . S
H1716 C1722 0.930 . S
H1717 C1726 0.930 . S
H1718 C1731 0.929 . S
H1719 C1729 0.929 . S
H1720 C1724 0.929 . S
H1721 C1730 0.929 . S
C1722 H1716 0.930 . S
C1722 C1723 1.367 . S
C1722 C1730 1.378 . S
C1723 C1722 1.367 . S
C1723 C1731 1.433 . S
C1724 H1720 0.929 . S
C1724 C1726 1.378 . S
C1724 C1728 1.350 . S
C1725 C1728 1.463 . S
C1725 C1730 1.350 . S
C1725 N1733 1.427 . S
C1726 H1717 0.930 . S
C1726 C1724 1.378 . S
C1726 C1727 1.367 . S
C1727 C1726 1.367 . S
C1727 C1729 1.433 . S
C1728 C1724 1.350 . S
C1728 C1725 1.463 . S
C1728 N1732 1.427 . S
C1729 H1719 0.929 . S
C1729 C1727 1.433 . S
C1729 N1732 1.384 . S
C1730 H1721 0.929 . S
C1730 C1722 1.378 . S
C1730 C1725 1.350 . S
C1731 H1718 0.929 . S
C1731 C1723 1.433 . S
C1731 N1733 1.384 . S
N1732 C1728 1.427 . S
N1732 C1729 1.384 . S
N1733 C1725 1.427 . S
N1733 C1731 1.384 . S
H1734 C1740 0.930 . S
H1735 C1744 0.930 . S
H1736 C1749 0.929 . S
H1737 C1747 0.929 . S
H1738 C1742 0.929 . S
H1739 C1748 0.929 . S
C1740 H1734 0.930 . S
C1740 C1741 1.367 . S
C1740 C1748 1.378 . S
C1741 C1740 1.367 . S
C1741 C1749 1.433 . S
C1742 H1738 0.929 . S
C1742 C1744 1.378 . S
C1742 C1746 1.350 . S
C1743 C1746 1.463 . S
C1743 C1748 1.350 . S
C1743 N1751 1.427 . S
C1744 H1735 0.930 . S
C1744 C1742 1.378 . S
C1744 C1745 1.367 . S
C1745 C1744 1.367 . S
C1745 C1747 1.433 . S
C1746 C1742 1.350 . S
C1746 C1743 1.463 . S
C1746 N1750 1.427 . S
C1747 H1737 0.929 . S
C1747 C1745 1.433 . S
C1747 N1750 1.384 . S
C1748 H1739 0.929 . S
C1748 C1740 1.378 . S
C1748 C1743 1.350 . S
C1749 H1736 0.929 . S
C1749 C1741 1.433 . S
C1749 N1751 1.384 . S
N1750 C1746 1.427 . S
N1750 C1747 1.384 . S
N1751 C1743 1.427 . S
N1751 C1749 1.384 . S
H1752 C1758 0.930 . S
H1753 C1762 0.930 . S
H1754 C1767 0.929 . S
H1755 C1765 0.929 . S
H1756 C1760 0.929 . S
H1757 C1766 0.929 . S
C1758 H1752 0.930 . S
C1758 C1759 1.367 . S
C1758 C1766 1.378 . S
C1759 C1758 1.367 . S
C1759 C1767 1.433 . S
C1760 H1756 0.929 . S
C1760 C1762 1.378 . S
C1760 C1764 1.350 . S
C1761 C1764 1.463 . S
C1761 C1766 1.350 . S
C1761 N1769 1.427 . S
C1762 H1753 0.930 . S
C1762 C1760 1.378 . S
C1762 C1763 1.367 . S
C1763 C1762 1.367 . S
C1763 C1765 1.433 . S
C1764 C1760 1.350 . S
C1764 C1761 1.463 . S
C1764 N1768 1.427 . S
C1765 H1755 0.929 . S
C1765 C1763 1.433 . S
C1765 N1768 1.384 . S
C1766 H1757 0.929 . S
C1766 C1758 1.378 . S
C1766 C1761 1.350 . S
C1767 H1754 0.929 . S
C1767 C1759 1.433 . S
C1767 N1769 1.384 . S
N1768 C1764 1.427 . S
N1768 C1765 1.384 . S
N1769 C1761 1.427 . S
N1769 C1767 1.384 . S
H1770 C1776 0.930 . S
H1771 C1780 0.930 . S
H1772 C1785 0.929 . S
H1773 C1783 0.929 . S
H1774 C1778 0.929 . S
H1775 C1784 0.929 . S
C1776 H1770 0.930 . S
C1776 C1777 1.367 . S
C1776 C1784 1.378 . S
C1777 C1776 1.367 . S
C1777 C1785 1.433 . S
C1778 H1774 0.929 . S
C1778 C1780 1.378 . S
C1778 C1782 1.350 . S
C1779 C1782 1.463 . S
C1779 C1784 1.350 . S
C1779 N1787 1.427 . S
C1780 H1771 0.930 . S
C1780 C1778 1.378 . S
C1780 C1781 1.367 . S
C1781 C1780 1.367 . S
C1781 C1783 1.433 . S
C1782 C1778 1.350 . S
C1782 C1779 1.463 . S
C1782 N1786 1.427 . S
C1783 H1773 0.929 . S
C1783 C1781 1.433 . S
C1783 N1786 1.384 . S
C1784 H1775 0.929 . S
C1784 C1776 1.378 . S
C1784 C1779 1.350 . S
C1785 H1772 0.929 . S
C1785 C1777 1.433 . S
C1785 N1787 1.384 . S
N1786 C1782 1.427 . S
N1786 C1783 1.384 . S
N1787 C1779 1.427 . S
N1787 C1785 1.384 . S
H1788 C1794 0.930 . S
H1789 C1798 0.930 . S
H1790 C1803 0.929 . S
H1791 C1801 0.929 . S
H1792 C1796 0.929 . S
H1793 C1802 0.929 . S
C1794 H1788 0.930 . S
C1794 C1795 1.367 . S
C1794 C1802 1.378 . S
C1795 C1794 1.367 . S
C1795 C1803 1.433 . S
C1796 H1792 0.929 . S
C1796 C1798 1.378 . S
C1796 C1800 1.350 . S
C1797 C1800 1.463 . S
C1797 C1802 1.350 . S
C1797 N1805 1.427 . S
C1798 H1789 0.930 . S
C1798 C1796 1.378 . S
C1798 C1799 1.367 . S
C1799 C1798 1.367 . S
C1799 C1801 1.433 . S
C1800 C1796 1.350 . S
C1800 C1797 1.463 . S
C1800 N1804 1.427 . S
C1801 H1791 0.929 . S
C1801 C1799 1.433 . S
C1801 N1804 1.384 . S
C1802 H1793 0.929 . S
C1802 C1794 1.378 . S
C1802 C1797 1.350 . S
C1803 H1790 0.929 . S
C1803 C1795 1.433 . S
C1803 N1805 1.384 . S
N1804 C1800 1.427 . S
N1804 C1801 1.384 . S
N1805 C1797 1.427 . S
N1805 C1803 1.384 . S
H1806 C1812 0.930 . S
H1807 C1816 0.930 . S
H1808 C1821 0.929 . S
H1809 C1819 0.929 . S
H1810 C1814 0.929 . S
H1811 C1820 0.929 . S
C1812 H1806 0.930 . S
C1812 C1813 1.367 . S
C1812 C1820 1.378 . S
C1813 C1812 1.367 . S
C1813 C1821 1.433 . S
C1814 H1810 0.929 . S
C1814 C1816 1.378 . S
C1814 C1818 1.350 . S
C1815 C1818 1.463 . S
C1815 C1820 1.350 . S
C1815 N1823 1.427 . S
C1816 H1807 0.930 . S
C1816 C1814 1.378 . S
C1816 C1817 1.367 . S
C1817 C1816 1.367 . S
C1817 C1819 1.433 . S
C1818 C1814 1.350 . S
C1818 C1815 1.463 . S
C1818 N1822 1.427 . S
C1819 H1809 0.929 . S
C1819 C1817 1.433 . S
C1819 N1822 1.384 . S
C1820 H1811 0.929 . S
C1820 C1812 1.378 . S
C1820 C1815 1.350 . S
C1821 H1808 0.929 . S
C1821 C1813 1.433 . S
C1821 N1823 1.384 . S
N1822 C1818 1.427 . S
N1822 C1819 1.384 . S
N1823 C1815 1.427 . S
N1823 C1821 1.384 . S
H1824 C1830 0.930 . S
H1825 C1834 0.930 . S
H1826 C1839 0.929 . S
H1827 C1837 0.929 . S
H1828 C1832 0.929 . S
H1829 C1838 0.929 . S
C1830 H1824 0.930 . S
C1830 C1831 1.367 . S
C1830 C1838 1.378 . S
C1831 C1830 1.367 . S
C1831 C1839 1.433 . S
C1832 H1828 0.929 . S
C1832 C1834 1.378 . S
C1832 C1836 1.350 . S
C1833 C1836 1.463 . S
C1833 C1838 1.350 . S
C1833 N1841 1.427 . S
C1834 H1825 0.930 . S
C1834 C1832 1.378 . S
C1834 C1835 1.367 . S
C1835 C1834 1.367 . S
C1835 C1837 1.433 . S
C1836 C1832 1.350 . S
C1836 C1833 1.463 . S
C1836 N1840 1.427 . S
C1837 H1827 0.929 . S
C1837 C1835 1.433 . S
C1837 N1840 1.384 . S
C1838 H1829 0.929 . S
C1838 C1830 1.378 . S
C1838 C1833 1.350 . S
C1839 H1826 0.929 . S
C1839 C1831 1.433 . S
C1839 N1841 1.384 . S
N1840 C1836 1.427 . S
N1840 C1837 1.384 . S
N1841 C1833 1.427 . S
N1841 C1839 1.384 . S
H1842 C1848 0.930 . S
H1843 C1852 0.930 . S
H1844 C1857 0.929 . S
H1845 C1855 0.929 . S
H1846 C1850 0.929 . S
H1847 C1856 0.929 . S
C1848 H1842 0.930 . S
C1848 C1849 1.367 . S
C1848 C1856 1.378 . S
C1849 C1848 1.367 . S
C1849 C1857 1.433 . S
C1850 H1846 0.929 . S
C1850 C1852 1.378 . S
C1850 C1854 1.350 . S
C1851 C1854 1.463 . S
C1851 C1856 1.350 . S
C1851 N1859 1.427 . S
C1852 H1843 0.930 . S
C1852 C1850 1.378 . S
C1852 C1853 1.367 . S
C1853 C1852 1.367 . S
C1853 C1855 1.433 . S
C1854 C1850 1.350 . S
C1854 C1851 1.463 . S
C1854 N1858 1.427 . S
C1855 H1845 0.929 . S
C1855 C1853 1.433 . S
C1855 N1858 1.384 . S
C1856 H1847 0.929 . S
C1856 C1848 1.378 . S
C1856 C1851 1.350 . S
C1857 H1844 0.929 . S
C1857 C1849 1.433 . S
C1857 N1859 1.384 . S
N1858 C1854 1.427 . S
N1858 C1855 1.384 . S
N1859 C1851 1.427 . S
N1859 C1857 1.384 . S
H1860 C1866 0.930 . S
H1861 C1870 0.930 . S
H1862 C1875 0.929 . S
H1863 C1873 0.929 . S
H1864 C1868 0.929 . S
H1865 C1874 0.929 . S
C1866 H1860 0.930 . S
C1866 C1867 1.367 . S
C1866 C1874 1.378 . S
C1867 C1866 1.367 . S
C1867 C1875 1.433 . S
C1868 H1864 0.929 . S
C1868 C1870 1.378 . S
C1868 C1872 1.350 . S
C1869 C1872 1.463 . S
C1869 C1874 1.350 . S
C1869 N1877 1.427 . S
C1870 H1861 0.930 . S
C1870 C1868 1.378 . S
C1870 C1871 1.367 . S
C1871 C1870 1.367 . S
C1871 C1873 1.433 . S
C1872 C1868 1.350 . S
C1872 C1869 1.463 . S
C1872 N1876 1.427 . S
C1873 H1863 0.929 . S
C1873 C1871 1.433 . S
C1873 N1876 1.384 . S
C1874 H1865 0.929 . S
C1874 C1866 1.378 . S
C1874 C1869 1.350 . S
C1875 H1862 0.929 . S
C1875 C1867 1.433 . S
C1875 N1877 1.384 . S
N1876 C1872 1.427 . S
N1876 C1873 1.384 . S
N1877 C1869 1.427 . S
N1877 C1875 1.384 . S
H1878 C1884 0.930 . S
H1879 C1888 0.930 . S
H1880 C1893 0.929 . S
H1881 C1891 0.929 . S
H1882 C1886 0.929 . S
H1883 C1892 0.929 . S
C1884 H1878 0.930 . S
C1884 C1885 1.367 . S
C1884 C1892 1.378 . S
C1885 C1884 1.367 . S
C1885 C1893 1.433 . S
C1886 H1882 0.929 . S
C1886 C1888 1.378 . S
C1886 C1890 1.350 . S
C1887 C1890 1.463 . S
C1887 C1892 1.350 . S
C1887 N1895 1.427 . S
C1888 H1879 0.930 . S
C1888 C1886 1.378 . S
C1888 C1889 1.367 . S
C1889 C1888 1.367 . S
C1889 C1891 1.433 . S
C1890 C1886 1.350 . S
C1890 C1887 1.463 . S
C1890 N1894 1.427 . S
C1891 H1881 0.929 . S
C1891 C1889 1.433 . S
C1891 N1894 1.384 . S
C1892 H1883 0.929 . S
C1892 C1884 1.378 . S
C1892 C1887 1.350 . S
C1893 H1880 0.929 . S
C1893 C1885 1.433 . S
C1893 N1895 1.384 . S
N1894 C1890 1.427 . S
N1894 C1891 1.384 . S
N1895 C1887 1.427 . S
N1895 C1893 1.384 . S
H1896 C1902 0.930 . S
H1897 C1906 0.930 . S
H1898 C1911 0.929 . S
H1899 C1909 0.929 . S
H1900 C1904 0.929 . S
H1901 C1910 0.929 . S
C1902 H1896 0.930 . S
C1902 C1903 1.367 . S
C1902 C1910 1.378 . S
C1903 C1902 1.367 . S
C1903 C1911 1.433 . S
C1904 H1900 0.929 . S
C1904 C1906 1.378 . S
C1904 C1908 1.350 . S
C1905 C1908 1.463 . S
C1905 C1910 1.350 . S
C1905 N1913 1.427 . S
C1906 H1897 0.930 . S
C1906 C1904 1.378 . S
C1906 C1907 1.367 . S
C1907 C1906 1.367 . S
C1907 C1909 1.433 . S
C1908 C1904 1.350 . S
C1908 C1905 1.463 . S
C1908 N1912 1.427 . S
C1909 H1899 0.929 . S
C1909 C1907 1.433 . S
C1909 N1912 1.384 . S
C1910 H1901 0.929 . S
C1910 C1902 1.378 . S
C1910 C1905 1.350 . S
C1911 H1898 0.929 . S
C1911 C1903 1.433 . S
C1911 N1913 1.384 . S
N1912 C1908 1.427 . S
N1912 C1909 1.384 . S
N1913 C1905 1.427 . S
N1913 C1911 1.384 . S
H1914 C1920 0.930 . S
H1915 C1924 0.930 . S
H1916 C1929 0.929 . S
H1917 C1927 0.929 . S
H1918 C1922 0.929 . S
H1919 C1928 0.929 . S
C1920 H1914 0.930 . S
C1920 C1921 1.367 . S
C1920 C1928 1.378 . S
C1921 C1920 1.367 . S
C1921 C1929 1.433 . S
C1922 H1918 0.929 . S
C1922 C1924 1.378 . S
C1922 C1926 1.350 . S
C1923 C1926 1.463 . S
C1923 C1928 1.350 . S
C1923 N1931 1.427 . S
C1924 H1915 0.930 . S
C1924 C1922 1.378 . S
C1924 C1925 1.367 . S
C1925 C1924 1.367 . S
C1925 C1927 1.433 . S
C1926 C1922 1.350 . S
C1926 C1923 1.463 . S
C1926 N1930 1.427 . S
C1927 H1917 0.929 . S
C1927 C1925 1.433 . S
C1927 N1930 1.384 . S
C1928 H1919 0.929 . S
C1928 C1920 1.378 . S
C1928 C1923 1.350 . S
C1929 H1916 0.929 . S
C1929 C1921 1.433 . S
C1929 N1931 1.384 . S
N1930 C1926 1.427 . S
N1930 C1927 1.384 . S
N1931 C1923 1.427 . S
N1931 C1929 1.384 . S
H1932 C1938 0.930 . S
H1933 C1942 0.930 . S
H1934 C1947 0.929 . S
H1935 C1945 0.929 . S
H1936 C1940 0.929 . S
H1937 C1946 0.929 . S
C1938 H1932 0.930 . S
C1938 C1939 1.367 . S
C1938 C1946 1.378 . S
C1939 C1938 1.367 . S
C1939 C1947 1.433 . S
C1940 H1936 0.929 . S
C1940 C1942 1.378 . S
C1940 C1944 1.350 . S
C1941 C1944 1.463 . S
C1941 C1946 1.350 . S
C1941 N1949 1.427 . S
C1942 H1933 0.930 . S
C1942 C1940 1.378 . S
C1942 C1943 1.367 . S
C1943 C1942 1.367 . S
C1943 C1945 1.433 . S
C1944 C1940 1.350 . S
C1944 C1941 1.463 . S
C1944 N1948 1.427 . S
C1945 H1935 0.929 . S
C1945 C1943 1.433 . S
C1945 N1948 1.384 . S
C1946 H1937 0.929 . S
C1946 C1938 1.378 . S
C1946 C1941 1.350 . S
C1947 H1934 0.929 . S
C1947 C1939 1.433 . S
C1947 N1949 1.384 . S
N1948 C1944 1.427 . S
N1948 C1945 1.384 . S
N1949 C1941 1.427 . S
N1949 C1947 1.384 . S
H1950 C1956 0.930 . S
H1951 C1960 0.930 . S
H1952 C1965 0.929 . S
H1953 C1963 0.929 . S
H1954 C1958 0.929 . S
H1955 C1964 0.929 . S
C1956 H1950 0.930 . S
C1956 C1957 1.367 . S
C1956 C1964 1.378 . S
C1957 C1956 1.367 . S
C1957 C1965 1.433 . S
C1958 H1954 0.929 . S
C1958 C1960 1.378 . S
C1958 C1962 1.350 . S
C1959 C1962 1.463 . S
C1959 C1964 1.350 . S
C1959 N1967 1.427 . S
C1960 H1951 0.930 . S
C1960 C1958 1.378 . S
C1960 C1961 1.367 . S
C1961 C1960 1.367 . S
C1961 C1963 1.433 . S
C1962 C1958 1.350 . S
C1962 C1959 1.463 . S
C1962 N1966 1.427 . S
C1963 H1953 0.929 . S
C1963 C1961 1.433 . S
C1963 N1966 1.384 . S
C1964 H1955 0.929 . S
C1964 C1956 1.378 . S
C1964 C1959 1.350 . S
C1965 H1952 0.929 . S
C1965 C1957 1.433 . S
C1965 N1967 1.384 . S
N1966 C1962 1.427 . S
N1966 C1963 1.384 . S
N1967 C1959 1.427 . S
N1967 C1965 1.384 . S
H1968 C1974 0.930 . S
H1969 C1978 0.930 . S
H1970 C1983 0.929 . S
H1971 C1981 0.929 . S
H1972 C1976 0.929 . S
H1973 C1982 0.929 . S
C1974 H1968 0.930 . S
C1974 C1975 1.367 1_455 S
C1974 C1982 1.378 . S
C1975 C1974 1.367 1_655 S
C1975 C1983 1.433 . S
C1976 H1972 0.929 . S
C1976 C1978 1.378 . S
C1976 C1980 1.350 . S
C1977 C1980 1.463 . S
C1977 C1982 1.350 1_655 S
C1977 N1985 1.427 . S
C1978 H1969 0.930 . S
C1978 C1976 1.378 . S
C1978 C1979 1.367 . S
C1979 C1978 1.367 . S
C1979 C1981 1.433 1_655 S
C1980 C1976 1.350 . S
C1980 C1977 1.463 . S
C1980 N1984 1.427 1_655 S
C1981 H1971 0.929 . S
C1981 C1979 1.433 1_455 S
C1981 N1984 1.384 . S
C1982 H1973 0.929 . S
C1982 C1974 1.378 . S
C1982 C1977 1.350 1_455 S
C1983 H1970 0.929 . S
C1983 C1975 1.433 . S
C1983 N1985 1.384 . S
N1984 C1980 1.427 1_455 S
N1984 C1981 1.384 . S
N1985 C1977 1.427 . S
N1985 C1983 1.384 . S
H1986 C1992 0.930 . S
H1987 C1996 0.930 . S
H1988 C2001 0.929 . S
H1989 C1999 0.929 . S
H1990 C1994 0.929 . S
H1991 C2000 0.929 . S
C1992 H1986 0.930 . S
C1992 C1993 1.367 . S
C1992 C2000 1.378 . S
C1993 C1992 1.367 . S
C1993 C2001 1.433 . S
C1994 H1990 0.929 . S
C1994 C1996 1.378 . S
C1994 C1998 1.350 . S
C1995 C1998 1.463 . S
C1995 C2000 1.350 . S
C1995 N2003 1.427 . S
C1996 H1987 0.930 . S
C1996 C1994 1.378 . S
C1996 C1997 1.367 . S
C1997 C1996 1.367 . S
C1997 C1999 1.433 . S
C1998 C1994 1.350 . S
C1998 C1995 1.463 . S
C1998 N2002 1.427 . S
C1999 H1989 0.929 . S
C1999 C1997 1.433 . S
C1999 N2002 1.384 . S
C2000 H1991 0.929 . S
C2000 C1992 1.378 . S
C2000 C1995 1.350 . S
C2001 H1988 0.929 . S
C2001 C1993 1.433 . S
C2001 N2003 1.384 . S
N2002 C1998 1.427 . S
N2002 C1999 1.384 . S
N2003 C1995 1.427 . S
N2003 C2001 1.384 . S
H2004 C2010 0.930 . S
H2005 C2014 0.930 . S
H2006 C2019 0.929 . S
H2007 C2017 0.929 . S
H2008 C2012 0.929 . S
H2009 C2018 0.929 . S
C2010 H2004 0.930 . S
C2010 C2011 1.367 . S
C2010 C2018 1.378 . S
C2011 C2010 1.367 . S
C2011 C2019 1.433 . S
C2012 H2008 0.929 . S
C2012 C2014 1.378 . S
C2012 C2016 1.350 . S
C2013 C2016 1.463 . S
C2013 C2018 1.350 . S
C2013 N2021 1.427 . S
C2014 H2005 0.930 . S
C2014 C2012 1.378 . S
C2014 C2015 1.367 . S
C2015 C2014 1.367 . S
C2015 C2017 1.433 . S
C2016 C2012 1.350 . S
C2016 C2013 1.463 . S
C2016 N2020 1.427 . S
C2017 H2007 0.929 . S
C2017 C2015 1.433 . S
C2017 N2020 1.384 . S
C2018 H2009 0.929 . S
C2018 C2010 1.378 . S
C2018 C2013 1.350 . S
C2019 H2006 0.929 . S
C2019 C2011 1.433 . S
C2019 N2021 1.384 . S
N2020 C2016 1.427 . S
N2020 C2017 1.384 . S
N2021 C2013 1.427 . S
N2021 C2019 1.384 . S
H2022 C2028 0.930 . S
H2023 C2032 0.930 . S
H2024 C2037 0.929 . S
H2025 C2035 0.929 . S
H2026 C2030 0.929 . S
H2027 C2036 0.929 . S
C2028 H2022 0.930 . S
C2028 C2029 1.367 1_554 S
C2028 C2036 1.378 . S
C2029 C2028 1.367 1_556 S
C2029 C2037 1.433 . S
C2030 H2026 0.929 . S
C2030 C2032 1.378 . S
C2030 C2034 1.350 . S
C2031 C2034 1.463 . S
C2031 C2036 1.350 1_556 S
C2031 N2039 1.427 . S
C2032 H2023 0.930 . S
C2032 C2030 1.378 . S
C2032 C2033 1.367 . S
C2033 C2032 1.367 . S
C2033 C2035 1.433 1_556 S
C2034 C2030 1.350 . S
C2034 C2031 1.463 . S
C2034 N2038 1.427 1_556 S
C2035 H2025 0.929 . S
C2035 C2033 1.433 1_554 S
C2035 N2038 1.384 . S
C2036 H2027 0.929 . S
C2036 C2028 1.378 . S
C2036 C2031 1.350 1_554 S
C2037 H2024 0.929 . S
C2037 C2029 1.433 . S
C2037 N2039 1.384 . S
N2038 C2034 1.427 1_554 S
N2038 C2035 1.384 . S
N2039 C2031 1.427 . S
N2039 C2037 1.384 . S
H2040 C2046 0.938 . S
H2041 C2050 0.930 . S
H2042 C2055 0.929 . S
H2043 C2053 0.929 . S
H2044 C2048 0.929 . S
H2045 C2054 0.976 . S
C2046 H2040 0.938 . S
C2046 C2047 1.359 1_455 S
C2046 C2054 1.376 . S
C2047 C2046 1.359 1_655 S
C2047 C2055 1.433 . S
C2048 H2044 0.929 . S
C2048 C2050 1.378 . S
C2048 C2052 1.350 . S
C2049 C2052 1.463 . S
C2049 C2054 1.307 1_655 S
C2049 N2057 1.427 . S
C2050 H2041 0.930 . S
C2050 C2048 1.378 . S
C2050 C2051 1.367 . S
C2051 C2050 1.367 . S
C2051 C2053 1.433 1_655 S
C2052 C2048 1.350 . S
C2052 C2049 1.463 . S
C2052 N2056 1.427 1_655 S
C2053 H2043 0.929 . S
C2053 C2051 1.433 1_455 S
C2053 N2056 1.384 . S
C2054 H2045 0.976 . S
C2054 C2046 1.376 . S
C2054 C2049 1.307 1_455 S
C2055 H2042 0.929 . S
C2055 C2047 1.433 . S
C2055 N2057 1.384 . S
N2056 C2052 1.427 1_455 S
N2056 C2053 1.384 . S
N2057 C2049 1.427 . S
N2057 C2055 1.384 . S
H2058 C2064 0.930 . S
H2059 C2068 0.930 . S
H2060 C2073 0.929 . S
H2061 C2071 0.929 . S
H2062 C2066 0.929 . S
H2063 C2072 0.929 . S
C2064 H2058 0.930 . S
C2064 C2065 1.367 . S
C2064 C2072 1.378 . S
C2065 C2064 1.367 . S
C2065 C2073 1.433 . S
C2066 H2062 0.929 . S
C2066 C2068 1.378 . S
C2066 C2070 1.350 . S
C2067 C2070 1.463 . S
C2067 C2072 1.350 . S
C2067 N2075 1.427 . S
C2068 H2059 0.930 . S
C2068 C2066 1.378 . S
C2068 C2069 1.367 . S
C2069 C2068 1.367 . S
C2069 C2071 1.433 . S
C2070 C2066 1.350 . S
C2070 C2067 1.463 . S
C2070 N2074 1.427 . S
C2071 H2061 0.929 . S
C2071 C2069 1.433 . S
C2071 N2074 1.384 . S
C2072 H2063 0.929 . S
C2072 C2064 1.378 . S
C2072 C2067 1.350 . S
C2073 H2060 0.929 . S
C2073 C2065 1.433 . S
C2073 N2075 1.384 . S
N2074 C2070 1.427 . S
N2074 C2071 1.384 . S
N2075 C2067 1.427 . S
N2075 C2073 1.384 . S
H2076 C2082 0.930 . S
H2077 C2086 0.930 . S
H2078 C2091 0.929 . S
H2079 C2089 0.929 . S
H2080 C2084 0.929 . S
H2081 C2090 0.929 . S
C2082 H2076 0.930 . S
C2082 C2083 1.367 . S
C2082 C2090 1.378 . S
C2083 C2082 1.367 . S
C2083 C2091 1.433 . S
C2084 H2080 0.929 . S
C2084 C2086 1.378 . S
C2084 C2088 1.350 . S
C2085 C2088 1.463 . S
C2085 C2090 1.350 . S
C2085 N2093 1.427 . S
C2086 H2077 0.930 . S
C2086 C2084 1.378 . S
C2086 C2087 1.367 . S
C2087 C2086 1.367 . S
C2087 C2089 1.433 . S
C2088 C2084 1.350 . S
C2088 C2085 1.463 . S
C2088 N2092 1.427 . S
C2089 H2079 0.929 . S
C2089 C2087 1.433 . S
C2089 N2092 1.384 . S
C2090 H2081 0.929 . S
C2090 C2082 1.378 . S
C2090 C2085 1.350 . S
C2091 H2078 0.929 . S
C2091 C2083 1.433 . S
C2091 N2093 1.384 . S
N2092 C2088 1.427 . S
N2092 C2089 1.384 . S
N2093 C2085 1.427 . S
N2093 C2091 1.384 . S
H2094 C2100 0.930 . S
H2095 C2104 0.930 . S
H2096 C2109 0.929 . S
H2097 C2107 0.929 . S
H2098 C2102 0.929 . S
H2099 C2108 0.929 . S
C2100 H2094 0.930 . S
C2100 C2101 1.367 . S
C2100 C2108 1.378 . S
C2101 C2100 1.367 . S
C2101 C2109 1.433 . S
C2102 H2098 0.929 . S
C2102 C2104 1.378 . S
C2102 C2106 1.350 . S
C2103 C2106 1.463 . S
C2103 C2108 1.350 . S
C2103 N2111 1.427 . S
C2104 H2095 0.930 . S
C2104 C2102 1.378 . S
C2104 C2105 1.367 . S
C2105 C2104 1.367 . S
C2105 C2107 1.433 . S
C2106 C2102 1.350 . S
C2106 C2103 1.463 . S
C2106 N2110 1.427 . S
C2107 H2097 0.929 . S
C2107 C2105 1.433 . S
C2107 N2110 1.384 . S
C2108 H2099 0.929 . S
C2108 C2100 1.378 . S
C2108 C2103 1.350 . S
C2109 H2096 0.929 . S
C2109 C2101 1.433 . S
C2109 N2111 1.384 . S
N2110 C2106 1.427 . S
N2110 C2107 1.384 . S
N2111 C2103 1.427 . S
N2111 C2109 1.384 . S
H2112 C2118 0.930 . S
H2113 C2122 0.930 . S
H2114 C2127 0.985 . S
H2115 C2125 0.929 . S
H2116 C2120 0.929 . S
H2117 C2126 0.929 . S
C2118 H2112 0.930 . S
C2118 C2119 1.367 . S
C2118 C2126 1.378 . S
C2119 C2118 1.367 . S
C2119 C2127 1.376 1_565 S
C2120 H2116 0.929 . S
C2120 C2122 1.378 . S
C2120 C2124 1.350 1_545 S
C2121 C2124 1.463 . S
C2121 C2126 1.350 . S
C2121 N2129 1.427 1_565 S
C2122 H2113 0.930 . S
C2122 C2120 1.378 . S
C2122 C2123 1.367 1_545 S
C2123 C2122 1.367 1_565 S
C2123 C2125 1.433 . S
C2124 C2120 1.350 1_565 S
C2124 C2121 1.463 . S
C2124 N2128 1.427 . S
C2125 H2115 0.929 . S
C2125 C2123 1.433 . S
C2125 N2128 1.384 . S
C2126 H2117 0.929 . S
C2126 C2118 1.378 . S
C2126 C2121 1.350 . S
C2127 H2114 0.985 . S
C2127 C2119 1.376 1_545 S
C2127 N2129 1.388 . S
N2128 C2124 1.427 . S
N2128 C2125 1.384 . S
N2129 C2121 1.427 1_545 S
N2129 C2127 1.388 . S
H2130 C2136 0.930 . S
H2131 C2140 0.930 . S
H2132 C2145 0.929 . S
H2133 C2143 0.929 . S
H2134 C2138 0.929 . S
H2135 C2144 0.929 . S
C2136 H2130 0.930 . S
C2136 C2137 1.367 1_545 S
C2136 C2144 1.378 . S
C2137 C2136 1.367 1_565 S
C2137 C2145 1.433 . S
C2138 H2134 0.929 . S
C2138 C2140 1.378 . S
C2138 C2142 1.350 . S
C2139 C2142 1.463 . S
C2139 C2144 1.350 1_565 S
C2139 N2147 1.427 . S
C2140 H2131 0.930 . S
C2140 C2138 1.378 . S
C2140 C2141 1.367 . S
C2141 C2140 1.367 . S
C2141 C2143 1.433 1_565 S
C2142 C2138 1.350 . S
C2142 C2139 1.463 . S
C2142 N2146 1.427 1_565 S
C2143 H2133 0.929 . S
C2143 C2141 1.433 1_545 S
C2143 N2146 1.384 . S
C2144 H2135 0.929 . S
C2144 C2136 1.378 . S
C2144 C2139 1.350 1_545 S
C2145 H2132 0.929 . S
C2145 C2137 1.433 . S
C2145 N2147 1.384 . S
N2146 C2142 1.427 1_545 S
N2146 C2143 1.384 . S
N2147 C2139 1.427 . S
N2147 C2145 1.384 . S
H2148 C2154 0.930 . S
H2149 C2158 0.930 . S
H2150 C2163 0.929 . S
H2151 C2161 0.929 . S
H2152 C2156 0.929 . S
H2153 C2162 0.929 . S
C2154 H2148 0.930 . S
C2154 C2155 1.367 . S
C2154 C2162 1.378 . S
C2155 C2154 1.367 . S
C2155 C2163 1.433 . S
C2156 H2152 0.929 . S
C2156 C2158 1.378 . S
C2156 C2160 1.350 . S
C2157 C2160 1.463 . S
C2157 C2162 1.350 . S
C2157 N2165 1.427 . S
C2158 H2149 0.930 . S
C2158 C2156 1.378 . S
C2158 C2159 1.367 . S
C2159 C2158 1.367 . S
C2159 C2161 1.433 . S
C2160 C2156 1.350 . S
C2160 C2157 1.463 . S
C2160 N2164 1.427 . S
C2161 H2151 0.929 . S
C2161 C2159 1.433 . S
C2161 N2164 1.384 . S
C2162 H2153 0.929 . S
C2162 C2154 1.378 . S
C2162 C2157 1.350 . S
C2163 H2150 0.929 . S
C2163 C2155 1.433 . S
C2163 N2165 1.384 . S
N2164 C2160 1.427 . S
N2164 C2161 1.384 . S
N2165 C2157 1.427 . S
N2165 C2163 1.384 . S
H2166 C2172 0.930 . S
H2167 C2176 0.930 . S
H2168 C2181 0.929 . S
H2169 C2179 0.929 . S
H2170 C2174 0.929 . S
H2171 C2180 0.929 . S
C2172 H2166 0.930 . S
C2172 C2173 1.367 . S
C2172 C2180 1.378 . S
C2173 C2172 1.367 . S
C2173 C2181 1.433 . S
C2174 H2170 0.929 . S
C2174 C2176 1.378 . S
C2174 C2178 1.350 . S
C2175 C2178 1.463 . S
C2175 C2180 1.350 . S
C2175 N2183 1.427 . S
C2176 H2167 0.930 . S
C2176 C2174 1.378 . S
C2176 C2177 1.367 . S
C2177 C2176 1.367 . S
C2177 C2179 1.433 . S
C2178 C2174 1.350 . S
C2178 C2175 1.463 . S
C2178 N2182 1.427 . S
C2179 H2169 0.929 . S
C2179 C2177 1.433 . S
C2179 N2182 1.384 . S
C2180 H2171 0.929 . S
C2180 C2172 1.378 . S
C2180 C2175 1.350 . S
C2181 H2168 0.929 . S
C2181 C2173 1.433 . S
C2181 N2183 1.384 . S
N2182 C2178 1.427 . S
N2182 C2179 1.384 . S
N2183 C2175 1.427 . S
N2183 C2181 1.384 . S
H2184 C2190 0.930 . S
H2185 C2194 0.930 . S
H2186 C2199 0.929 . S
H2187 C2197 0.929 . S
H2188 C2192 0.929 . S
H2189 C2198 0.929 . S
C2190 H2184 0.930 . S
C2190 C2191 1.367 1_554 S
C2190 C2198 1.378 . S
C2191 C2190 1.367 1_556 S
C2191 C2199 1.433 . S
C2192 H2188 0.929 . S
C2192 C2194 1.378 . S
C2192 C2196 1.350 . S
C2193 C2196 1.463 . S
C2193 C2198 1.350 1_556 S
C2193 N2201 1.427 . S
C2194 H2185 0.930 . S
C2194 C2192 1.378 . S
C2194 C2195 1.367 . S
C2195 C2194 1.367 . S
C2195 C2197 1.433 1_556 S
C2196 C2192 1.350 . S
C2196 C2193 1.463 . S
C2196 N2200 1.427 1_556 S
C2197 H2187 0.929 . S
C2197 C2195 1.433 1_554 S
C2197 N2200 1.384 . S
C2198 H2189 0.929 . S
C2198 C2190 1.378 . S
C2198 C2193 1.350 1_554 S
C2199 H2186 0.929 . S
C2199 C2191 1.433 . S
C2199 N2201 1.384 . S
N2200 C2196 1.427 1_554 S
N2200 C2197 1.384 . S
N2201 C2193 1.427 . S
N2201 C2199 1.384 . S
H2202 C2208 0.930 . S
H2203 C2212 0.930 . S
H2204 C2217 0.929 . S
H2205 C2215 0.929 . S
H2206 C2210 0.929 . S
H2207 C2216 0.929 . S
C2208 H2202 0.930 . S
C2208 C2209 1.367 . S
C2208 C2216 1.378 . S
C2209 C2208 1.367 . S
C2209 C2217 1.433 . S
C2210 H2206 0.929 . S
C2210 C2212 1.378 . S
C2210 C2214 1.350 . S
C2211 C2214 1.463 . S
C2211 C2216 1.350 . S
C2211 N2219 1.427 . S
C2212 H2203 0.930 . S
C2212 C2210 1.378 . S
C2212 C2213 1.367 . S
C2213 C2212 1.367 . S
C2213 C2215 1.433 . S
C2214 C2210 1.350 . S
C2214 C2211 1.463 . S
C2214 N2218 1.427 . S
C2215 H2205 0.929 . S
C2215 C2213 1.433 . S
C2215 N2218 1.384 . S
C2216 H2207 0.929 . S
C2216 C2208 1.378 . S
C2216 C2211 1.350 . S
C2217 H2204 0.929 . S
C2217 C2209 1.433 . S
C2217 N2219 1.384 . S
N2218 C2214 1.427 . S
N2218 C2215 1.384 . S
N2219 C2211 1.427 . S
N2219 C2217 1.384 . S
H2220 C2226 0.930 . S
H2221 C2230 0.930 . S
H2222 C2235 0.929 . S
H2223 C2233 0.929 . S
H2224 C2228 0.929 . S
H2225 C2234 0.929 . S
C2226 H2220 0.930 . S
C2226 C2227 1.367 . S
C2226 C2234 1.378 . S
C2227 C2226 1.367 . S
C2227 C2235 1.433 . S
C2228 H2224 0.929 . S
C2228 C2230 1.378 . S
C2228 C2232 1.350 . S
C2229 C2232 1.463 . S
C2229 C2234 1.350 . S
C2229 N2237 1.427 . S
C2230 H2221 0.930 . S
C2230 C2228 1.378 . S
C2230 C2231 1.367 . S
C2231 C2230 1.367 . S
C2231 C2233 1.433 . S
C2232 C2228 1.350 . S
C2232 C2229 1.463 . S
C2232 N2236 1.427 . S
C2233 H2223 0.929 . S
C2233 C2231 1.433 . S
C2233 N2236 1.384 . S
C2234 H2225 0.929 . S
C2234 C2226 1.378 . S
C2234 C2229 1.350 . S
C2235 H2222 0.929 . S
C2235 C2227 1.433 . S
C2235 N2237 1.384 . S
N2236 C2232 1.427 . S
N2236 C2233 1.384 . S
N2237 C2229 1.427 . S
N2237 C2235 1.384 . S
H2238 C2244 0.930 . S
H2239 C2248 0.930 . S
H2240 C2253 0.929 . S
H2241 C2251 0.929 . S
H2242 C2246 0.929 . S
H2243 C2252 0.929 . S
C2244 H2238 0.930 . S
C2244 C2245 1.367 . S
C2244 C2252 1.378 . S
C2245 C2244 1.367 . S
C2245 C2253 1.433 . S
C2246 H2242 0.929 . S
C2246 C2248 1.378 . S
C2246 C2250 1.350 . S
C2247 C2250 1.463 . S
C2247 C2252 1.350 . S
C2247 N2255 1.427 . S
C2248 H2239 0.930 . S
C2248 C2246 1.378 . S
C2248 C2249 1.367 . S
C2249 C2248 1.367 . S
C2249 C2251 1.433 . S
C2250 C2246 1.350 . S
C2250 C2247 1.463 . S
C2250 N2254 1.427 . S
C2251 H2241 0.929 . S
C2251 C2249 1.433 . S
C2251 N2254 1.384 . S
C2252 H2243 0.929 . S
C2252 C2244 1.378 . S
C2252 C2247 1.350 . S
C2253 H2240 0.929 . S
C2253 C2245 1.433 . S
C2253 N2255 1.384 . S
N2254 C2250 1.427 . S
N2254 C2251 1.384 . S
N2255 C2247 1.427 . S
N2255 C2253 1.384 . S
H2256 C2262 0.930 . S
H2257 C2266 0.930 . S
H2258 C2271 0.929 . S
H2259 C2269 0.929 . S
H2260 C2264 0.929 . S
H2261 C2270 0.929 . S
C2262 H2256 0.930 . S
C2262 C2263 1.367 . S
C2262 C2270 1.378 . S
C2263 C2262 1.367 . S
C2263 C2271 1.433 . S
C2264 H2260 0.929 . S
C2264 C2266 1.378 . S
C2264 C2268 1.350 . S
C2265 C2268 1.463 . S
C2265 C2270 1.350 . S
C2265 N2273 1.427 . S
C2266 H2257 0.930 . S
C2266 C2264 1.378 . S
C2266 C2267 1.367 . S
C2267 C2266 1.367 . S
C2267 C2269 1.433 . S
C2268 C2264 1.350 . S
C2268 C2265 1.463 . S
C2268 N2272 1.427 . S
C2269 H2259 0.929 . S
C2269 C2267 1.433 . S
C2269 N2272 1.384 . S
C2270 H2261 0.929 . S
C2270 C2262 1.378 . S
C2270 C2265 1.350 . S
C2271 H2258 0.929 . S
C2271 C2263 1.433 . S
C2271 N2273 1.384 . S
N2272 C2268 1.427 . S
N2272 C2269 1.384 . S
N2273 C2265 1.427 . S
N2273 C2271 1.384 . S
H2274 C2280 0.930 . S
H2275 C2284 0.930 . S
H2276 C2289 0.929 . S
H2277 C2287 0.929 . S
H2278 C2282 0.929 . S
H2279 C2288 0.929 . S
C2280 H2274 0.930 . S
C2280 C2281 1.367 . S
C2280 C2288 1.378 . S
C2281 C2280 1.367 . S
C2281 C2289 1.433 . S
C2282 H2278 0.929 . S
C2282 C2284 1.378 . S
C2282 C2286 1.350 . S
C2283 C2286 1.463 . S
C2283 C2288 1.350 . S
C2283 N2291 1.427 . S
C2284 H2275 0.930 . S
C2284 C2282 1.378 . S
C2284 C2285 1.367 . S
C2285 C2284 1.367 . S
C2285 C2287 1.433 . S
C2286 C2282 1.350 . S
C2286 C2283 1.463 . S
C2286 N2290 1.427 . S
C2287 H2277 0.929 . S
C2287 C2285 1.433 . S
C2287 N2290 1.384 . S
C2288 H2279 0.929 . S
C2288 C2280 1.378 . S
C2288 C2283 1.350 . S
C2289 H2276 0.929 . S
C2289 C2281 1.433 . S
C2289 N2291 1.384 . S
N2290 C2286 1.427 . S
N2290 C2287 1.384 . S
N2291 C2283 1.427 . S
N2291 C2289 1.384 . S
H2292 C2298 0.930 . S
H2293 C2302 0.930 . S
H2294 C2307 0.929 . S
H2295 C2305 0.929 . S
H2296 C2300 0.929 . S
H2297 C2306 0.929 . S
C2298 H2292 0.930 . S
C2298 C2299 1.367 . S
C2298 C2306 1.378 . S
C2299 C2298 1.367 . S
C2299 C2307 1.433 . S
C2300 H2296 0.929 . S
C2300 C2302 1.378 . S
C2300 C2304 1.350 . S
C2301 C2304 1.463 . S
C2301 C2306 1.350 . S
C2301 N2309 1.427 . S
C2302 H2293 0.930 . S
C2302 C2300 1.378 . S
C2302 C2303 1.367 . S
C2303 C2302 1.367 . S
C2303 C2305 1.433 . S
C2304 C2300 1.350 . S
C2304 C2301 1.463 . S
C2304 N2308 1.427 . S
C2305 H2295 0.929 . S
C2305 C2303 1.433 . S
C2305 N2308 1.384 . S
C2306 H2297 0.929 . S
C2306 C2298 1.378 . S
C2306 C2301 1.350 . S
C2307 H2294 0.929 . S
C2307 C2299 1.433 . S
C2307 N2309 1.384 . S
N2308 C2304 1.427 . S
N2308 C2305 1.384 . S
N2309 C2301 1.427 . S
N2309 C2307 1.384 . S
H2310 C2316 0.930 . S
H2311 C2320 0.930 . S
H2312 C2325 0.929 . S
H2313 C2323 0.929 . S
H2314 C2318 0.929 . S
H2315 C2324 0.929 . S
C2316 H2310 0.930 . S
C2316 C2317 1.367 . S
C2316 C2324 1.378 . S
C2317 C2316 1.367 . S
C2317 C2325 1.433 . S
C2318 H2314 0.929 . S
C2318 C2320 1.378 . S
C2318 C2322 1.350 . S
C2319 C2322 1.463 . S
C2319 C2324 1.350 . S
C2319 N2327 1.427 . S
C2320 H2311 0.930 . S
C2320 C2318 1.378 . S
C2320 C2321 1.367 . S
C2321 C2320 1.367 . S
C2321 C2323 1.433 . S
C2322 C2318 1.350 . S
C2322 C2319 1.463 . S
C2322 N2326 1.427 . S
C2323 H2313 0.929 . S
C2323 C2321 1.433 . S
C2323 N2326 1.384 . S
C2324 H2315 0.929 . S
C2324 C2316 1.378 . S
C2324 C2319 1.350 . S
C2325 H2312 0.929 . S
C2325 C2317 1.433 . S
C2325 N2327 1.384 . S
N2326 C2322 1.427 . S
N2326 C2323 1.384 . S
N2327 C2319 1.427 . S
N2327 C2325 1.384 . S
H2328 C2334 0.930 . S
H2329 C2338 0.930 . S
H2330 C2343 0.929 . S
H2331 C2341 0.929 . S
H2332 C2336 0.929 . S
H2333 C2342 0.929 . S
C2334 H2328 0.930 . S
C2334 C2335 1.367 . S
C2334 C2342 1.378 . S
C2335 C2334 1.367 . S
C2335 C2343 1.433 . S
C2336 H2332 0.929 . S
C2336 C2338 1.378 . S
C2336 C2340 1.350 . S
C2337 C2340 1.463 . S
C2337 C2342 1.350 . S
C2337 N2345 1.427 . S
C2338 H2329 0.930 . S
C2338 C2336 1.378 . S
C2338 C2339 1.367 . S
C2339 C2338 1.367 . S
C2339 C2341 1.433 . S
C2340 C2336 1.350 . S
C2340 C2337 1.463 . S
C2340 N2344 1.427 . S
C2341 H2331 0.929 . S
C2341 C2339 1.433 . S
C2341 N2344 1.384 . S
C2342 H2333 0.929 . S
C2342 C2334 1.378 . S
C2342 C2337 1.350 . S
C2343 H2330 0.929 . S
C2343 C2335 1.433 . S
C2343 N2345 1.384 . S
N2344 C2340 1.427 . S
N2344 C2341 1.384 . S
N2345 C2337 1.427 . S
N2345 C2343 1.384 . S
H2346 C2352 0.930 . S
H2347 C2356 0.930 . S
H2348 C2361 0.929 . S
H2349 C2359 0.929 . S
H2350 C2354 0.929 . S
H2351 C2360 0.929 . S
C2352 H2346 0.930 . S
C2352 C2353 1.367 . S
C2352 C2360 1.378 . S
C2353 C2352 1.367 . S
C2353 C2361 1.433 . S
C2354 H2350 0.929 . S
C2354 C2356 1.378 . S
C2354 C2358 1.350 . S
C2355 C2358 1.463 . S
C2355 C2360 1.350 . S
C2355 N2363 1.427 . S
C2356 H2347 0.930 . S
C2356 C2354 1.378 . S
C2356 C2357 1.367 . S
C2357 C2356 1.367 . S
C2357 C2359 1.433 . S
C2358 C2354 1.350 . S
C2358 C2355 1.463 . S
C2358 N2362 1.427 . S
C2359 H2349 0.929 . S
C2359 C2357 1.433 . S
C2359 N2362 1.384 . S
C2360 H2351 0.929 . S
C2360 C2352 1.378 . S
C2360 C2355 1.350 . S
C2361 H2348 0.929 . S
C2361 C2353 1.433 . S
C2361 N2363 1.384 . S
N2362 C2358 1.427 . S
N2362 C2359 1.384 . S
N2363 C2355 1.427 . S
N2363 C2361 1.384 . S
H2364 C2370 0.930 . S
H2365 C2374 0.930 . S
H2366 C2379 0.929 . S
H2367 C2377 0.929 . S
H2368 C2372 0.929 . S
H2369 C2378 0.929 . S
C2370 H2364 0.930 . S
C2370 C2371 1.367 . S
C2370 C2378 1.378 . S
C2371 C2370 1.367 . S
C2371 C2379 1.433 . S
C2372 H2368 0.929 . S
C2372 C2374 1.378 . S
C2372 C2376 1.350 . S
C2373 C2376 1.463 . S
C2373 C2378 1.350 . S
C2373 N2381 1.427 . S
C2374 H2365 0.930 . S
C2374 C2372 1.378 . S
C2374 C2375 1.367 . S
C2375 C2374 1.367 . S
C2375 C2377 1.433 . S
C2376 C2372 1.350 . S
C2376 C2373 1.463 . S
C2376 N2380 1.427 . S
C2377 H2367 0.929 . S
C2377 C2375 1.433 . S
C2377 N2380 1.384 . S
C2378 H2369 0.929 . S
C2378 C2370 1.378 . S
C2378 C2373 1.350 . S
C2379 H2366 0.929 . S
C2379 C2371 1.433 . S
C2379 N2381 1.384 . S
N2380 C2376 1.427 . S
N2380 C2377 1.384 . S
N2381 C2373 1.427 . S
N2381 C2379 1.384 . S
H2382 C2388 0.930 . S
H2383 C2392 0.930 . S
H2384 C2397 0.929 . S
H2385 C2395 0.929 . S
H2386 C2390 0.929 . S
H2387 C2396 0.929 . S
C2388 H2382 0.930 . S
C2388 C2389 1.367 . S
C2388 C2396 1.378 . S
C2389 C2388 1.367 . S
C2389 C2397 1.433 . S
C2390 H2386 0.929 . S
C2390 C2392 1.378 . S
C2390 C2394 1.350 . S
C2391 C2394 1.463 . S
C2391 C2396 1.350 . S
C2391 N2399 1.427 . S
C2392 H2383 0.930 . S
C2392 C2390 1.378 . S
C2392 C2393 1.367 . S
C2393 C2392 1.367 . S
C2393 C2395 1.433 . S
C2394 C2390 1.350 . S
C2394 C2391 1.463 . S
C2394 N2398 1.427 . S
C2395 H2385 0.929 . S
C2395 C2393 1.433 . S
C2395 N2398 1.384 . S
C2396 H2387 0.929 . S
C2396 C2388 1.378 . S
C2396 C2391 1.350 . S
C2397 H2384 0.929 . S
C2397 C2389 1.433 . S
C2397 N2399 1.384 . S
N2398 C2394 1.427 . S
N2398 C2395 1.384 . S
N2399 C2391 1.427 . S
N2399 C2397 1.384 . S
C679 C7 0.739 . S
C683 C371 0.700 . S
C697 C385 0.857 . S
C701 C21 0.902 . S
C715 C35 0.967 . S
C719 C343 0.931 . S
C733 C357 1.025 . S
C737 C49 0.995 1_554 S
C751 C63 0.808 . S
C755 C427 0.780 . S
C769 C77 0.948 . S
C773 C441 0.918 . S
C787 C91 0.999 . S
C791 C399 1.021 . S
C805 C105 0.749 . S
C809 C413 0.792 . S
C823 C175 0.718 . S
C827 C119 0.723 . S
C841 C133 1.032 1_545 S
C845 C189 0.999 . S
C859 C203 0.806 . S
C863 C147 0.806 . S
C877 C161 0.782 . S
C881 C217 0.755 . S
C895 C609 0.738 . S
C899 C231 0.697 . S
C913 C637 0.777 . S
C917 C245 0.814 . S
C931 C315 0.996 . S
C935 C259 1.033 1_455 S
C949 C567 0.968 . S
C953 C273 0.933 . S
C967 C665 0.759 . S
C971 C287 0.794 . S
C985 C581 1.035 . S
C989 C301 0.999 . S
C1003 C329 0.927 . S
C1007 C623 0.942 . S
C1021 C455 0.945 . S
C1025 C511 0.941 . S
C1039 C525 0.887 . S
C1043 C469 0.867 . S
C1057 C483 1.014 . S
C1061 C539 1.003 . S
C1075 C553 0.946 . S
C1079 C497 0.921 . S
C1093 C595 0.861 . S
C1097 C651 0.905 . S
C1111 C8 0.731 . S
C1115 C106 0.731 . S
C1129 C64 0.795 . S
C1133 C22 0.811 . S
C1147 C36 0.817 . S
C1151 C78 0.812 . S
C1165 C50 0.852 . S
C1169 C92 0.849 . S
C1183 C288 0.782 . S
C1187 C120 0.770 . S
C1201 C582 0.801 . S
C1205 C134 0.813 . S
C1219 C148 0.750 . S
C1223 C596 0.771 . S
C1237 C162 0.762 . S
C1241 C610 0.776 . S
C1255 C666 0.728 . S
C1259 C176 0.745 . S
C1273 C190 0.811 . S
C1277 C302 0.814 . S
C1291 C204 0.768 . S
C1295 C652 0.804 . S
C1309 C218 0.743 . S
C1313 C232 0.736 . S
C1327 C246 0.791 . S
C1331 C470 0.795 . S
C1345 C260 0.838 . S
C1349 C484 0.849 . S
C1363 C498 0.793 . S
C1367 C274 0.779 . S
C1381 C316 0.843 . S
C1385 C540 0.836 . S
C1399 C512 0.777 . S
C1403 C330 0.761 . S
C1417 C442 0.817 . S
C1421 C344 0.796 . S
C1435 C358 0.813 . S
C1439 C400 0.815 . S
C1453 C414 0.751 . S
C1457 C372 0.733 . S
C1471 C386 0.741 . S
C1475 C428 0.745 . S
C1489 C456 0.781 . S
C1493 C624 0.773 . S
C1507 C638 0.785 . S
C1511 C526 0.776 . S
C1525 C568 0.777 . S
C1529 C554 0.804 . S
C1543 C9 1.622 . S
C1547 C415 1.641 . S
C1561 C429 1.676 . S
C1565 C23 1.670 . S
C1579 C37 1.647 . S
C1583 C443 1.649 . S
C1597 C51 1.655 . S
C1601 C401 1.655 . S
C1615 C387 1.653 . S
C1619 C65 1.648 . S
C1633 C79 1.677 . S
C1637 C345 1.672 . S
C1651 C359 1.654 . S
C1655 C93 1.656 . S
C1669 C107 1.638 . S
C1673 C373 1.657 . S
C1687 C667 1.640 . S
C1691 C121 1.619 . S
C1705 C135 1.657 . S
C1709 C303 1.652 . S
C1723 C149 1.685 . S
C1727 C653 1.661 . S
C1741 C233 1.627 . S
C1745 C163 1.634 . S
C1759 C177 1.652 . S
C1763 C289 1.641 . S
C1777 C191 1.650 . S
C1781 C583 1.654 . S
C1795 C597 1.650 . S
C1799 C205 1.644 . S
C1813 C611 1.652 . S
C1817 C219 1.648 . S
C1831 C527 1.657 . S
C1835 C247 1.691 . S
C1849 C541 1.647 . S
C1853 C261 1.662 . S
C1867 C555 1.648 . S
C1871 C275 1.647 . S
C1885 C317 1.651 . S
C1889 C485 1.657 . S
C1903 C457 1.682 . S
C1907 C331 1.670 . S
C1921 C471 1.649 . S
C1925 C639 1.647 . S
C1939 C499 1.668 . S
C1943 C569 1.681 . S
C1957 C625 1.652 . S
C1961 C513 1.644 . S
C1975 C6 1.573 . S
C1979 C314 1.581 . S
C1993 C20 1.632 . S
C1997 C566 1.610 . S
C2011 C328 1.642 . S
C2015 C34 1.635 . S
C2029 C636 1.562 . S
C2033 C48 1.561 . S
C2047 C258 1.576 . S
C2051 C62 1.577 . S
C2065 C272 1.638 . S
C2069 C76 1.637 . S
C2083 C90 1.627 . S
C2087 C622 1.627 . S
C2101 C104 1.561 . S
C2105 C244 1.540 . S
C2119 C188 1.583 . S
C2123 C118 1.580 . S
C2137 C132 1.572 . S
C2141 C202 1.567 . S
C2155 C216 1.556 . S
C2159 C146 1.544 . S
C2173 C174 1.611 . S
C2177 C160 1.602 . S
C2191 C230 1.574 . S
C2195 C356 1.582 . S
C2209 C426 1.550 . S
C2213 C286 1.554 . S
C2227 C384 1.622 . S
C2231 C300 1.639 . S
C2245 C342 1.616 . S
C2249 C650 1.614 . S
C2263 C664 1.603 . S
C2267 C370 1.611 . S
C2281 C594 1.620 . S
C2285 C398 1.639 . S
C2299 C608 1.624 . S
C2303 C412 1.609 . S
C2317 C580 1.624 . S
C2321 C440 1.625 . S
C2335 C524 1.619 . S
C2339 C454 1.602 . S
C2353 C538 1.642 . S
C2357 C468 1.619 . S
C2371 C482 1.618 . S
C2375 C552 1.614 . S
C2389 C496 1.649 . S
C2393 C510 1.641 . S
