# Generated by pormake.
# Topology una, (4)-cn, num edge types: 1
# Building blocks:
#     Node 0, Type 0, BuildingBlock: ICAMEG_clean_sbu_1, # of connection points: 4
#     Node 1, Type 0, BuildingBlock: ICAMEG_clean_sbu_1, # of connection points: 4
#     Node 2, Type 0, BuildingBlock: ICAMEG_clean_sbu_1, # of connection points: 4
#     Node 3, Type 0, BuildingBlock: ICAMEG_clean_sbu_1, # of connection points: 4
#     Node 4, Type 0, BuildingBlock: ICAMEG_clean_sbu_1, # of connection points: 4
#     Node 5, Type 0, BuildingBlock: ICAMEG_clean_sbu_1, # of connection points: 4
#     Node 6, Type 0, BuildingBlock: ICAMEG_clean_sbu_1, # of connection points: 4
#     Node 7, Type 0, BuildingBlock: ICAMEG_clean_sbu_1, # of connection points: 4
#     Node 8, Type 0, BuildingBlock: ICAMEG_clean_sbu_1, # of connection points: 4
#     Node 9, Type 0, BuildingBlock: ICAMEG_clean_sbu_1, # of connection points: 4
#     Node 10, Type 0, BuildingBlock: ICAMEG_clean_sbu_1, # of connection points: 4
#     Node 11, Type 0, BuildingBlock: ICAMEG_clean_sbu_1, # of connection points: 4
#     Edge 12, Type (0, 0), BuildingBlock: UVAHIK_clean_linker_0, # of connection points: 2
#     Edge 13, Type (0, 0), BuildingBlock: UVAHIK_clean_linker_0, # of connection points: 2
#     Edge 14, Type (0, 0), BuildingBlock: UVAHIK_clean_linker_0, # of connection points: 2
#     Edge 15, Type (0, 0), BuildingBlock: UVAHIK_clean_linker_0, # of connection points: 2
#     Edge 16, Type (0, 0), BuildingBlock: UVAHIK_clean_linker_0, # of connection points: 2
#     Edge 17, Type (0, 0), BuildingBlock: UVAHIK_clean_linker_0, # of connection points: 2
#     Edge 18, Type (0, 0), BuildingBlock: UVAHIK_clean_linker_0, # of connection points: 2
#     Edge 19, Type (0, 0), BuildingBlock: UVAHIK_clean_linker_0, # of connection points: 2
#     Edge 20, Type (0, 0), BuildingBlock: UVAHIK_clean_linker_0, # of connection points: 2
#     Edge 21, Type (0, 0), BuildingBlock: UVAHIK_clean_linker_0, # of connection points: 2
#     Edge 22, Type (0, 0), BuildingBlock: UVAHIK_clean_linker_0, # of connection points: 2
#     Edge 23, Type (0, 0), BuildingBlock: UVAHIK_clean_linker_0, # of connection points: 2
#     Edge 24, Type (0, 0), BuildingBlock: UVAHIK_clean_linker_0, # of connection points: 2
#     Edge 25, Type (0, 0), BuildingBlock: UVAHIK_clean_linker_0, # of connection points: 2
#     Edge 26, Type (0, 0), BuildingBlock: UVAHIK_clean_linker_0, # of connection points: 2
#     Edge 27, Type (0, 0), BuildingBlock: UVAHIK_clean_linker_0, # of connection points: 2
#     Edge 28, Type (0, 0), BuildingBlock: UVAHIK_clean_linker_0, # of connection points: 2
#     Edge 29, Type (0, 0), BuildingBlock: UVAHIK_clean_linker_0, # of connection points: 2
#     Edge 30, Type (0, 0), BuildingBlock: UVAHIK_clean_linker_0, # of connection points: 2
#     Edge 31, Type (0, 0), BuildingBlock: UVAHIK_clean_linker_0, # of connection points: 2
#     Edge 32, Type (0, 0), BuildingBlock: UVAHIK_clean_linker_0, # of connection points: 2
#     Edge 33, Type (0, 0), BuildingBlock: UVAHIK_clean_linker_0, # of connection points: 2
#     Edge 34, Type (0, 0), BuildingBlock: UVAHIK_clean_linker_0, # of connection points: 2
#     Edge 35, Type (0, 0), BuildingBlock: UVAHIK_clean_linker_0, # of connection points: 2
# Relax obj value: 0.052
# Max RMSD: 0.084
# Mean RMSD: 0.084
data_MOF--net-una--node1-ICAMEG_clean_sbu_1--edge1-UVAHIK_clean_linker_0
_symmetry_space_group_name_H-M    P1
_symmetry_Int_Tables_number       1
_symmetry_cell_setting            triclinic
loop_
_symmetry_equiv_pos_as_xyz
'x, y, z'
_cell_length_a     80.314065
_cell_length_b     80.333238
_cell_length_c     28.231167
_cell_angle_alpha  89.959342
_cell_angle_beta   90.006503
_cell_angle_gamma 119.9916
loop_
_atom_site_label
_atom_site_type_symbol
_atom_site_fract_x
_atom_site_fract_y
_atom_site_fract_z
_atom_type_partial_charge
Co0 Co 0.16245 0.46931 0.03231 0.0
Co1 Co 0.13069 0.42234 0.05958 0.0
O2 O 0.13618 0.44832 0.04305 0.0
C3 C 0.14604 0.48733 0.09584 0.0
O4 O 0.13792 0.47173 0.12201 0.0
C5 C 0.10346 0.4158 0.9808 0.0
O6 O 0.11788 0.42947 0.95707 0.0
O7 O 0.14493 0.42149 1.00248 0.0
O8 O 0.17013 0.4514 0.00376 0.0
H9 H 0.14709 0.37026 0.08447 0.0
H10 H 0.12973 0.47288 0.99641 0.0
O11 O 0.15588 0.48827 0.05958 0.0
H12 H 0.16827 0.47829 0.85521 0.0
H13 H 0.21272 0.53642 0.98497 0.0
H14 H 0.20117 0.47414 0.0471 0.0
H15 H 0.1785 0.47406 0.93448 0.0
H16 H 0.17966 0.50959 0.99663 0.0
O17 O 0.10624 0.41111 0.02192 0.0
H18 H 0.15385 0.40301 0.06515 0.0
H19 H 0.09518 0.38611 0.08713 0.0
H20 H 0.23446 0.50053 0.03563 0.0
H21 H 0.11908 0.47733 0.91782 0.0
H22 H 0.24041 0.53195 0.00436 0.0
H23 H 0.13838 0.48 0.84651 0.0
O24 O 0.17022 0.46504 0.09608 0.0
H25 H 0.08351 0.43499 0.14634 0.0
H26 H 0.13084 0.4133 0.16218 0.0
H27 H 0.11381 0.41493 0.23309 0.0
H28 H 0.0899 0.42579 0.22541 0.0
H29 H 0.10104 0.43336 0.07641 0.0
H30 H 0.08774 0.35314 0.10631 0.0
H31 H 0.11383 0.34505 0.10523 0.0
O32 O 0.15481 0.43282 0.09865 0.0
C33 C 0.16174 0.4341 0.98896 0.0
C34 C 0.13561 0.37362 0.08519 0.0
C35 C 0.1023 0.364 0.09739 0.0
N36 N 0.12496 0.3965 0.07532 0.0
C37 C 0.13936 0.39215 0.0744 0.0
C38 C 0.10659 0.38268 0.08638 0.0
C39 C 0.11694 0.35948 0.09679 0.0
C40 C 0.1383 0.47422 0.9656 0.0
N41 N 0.15474 0.47326 0.97008 0.0
C42 C 0.13216 0.47666 0.92117 0.0
C43 C 0.14298 0.47812 0.88116 0.0
C44 C 0.15974 0.47715 0.88601 0.0
C45 C 0.16542 0.47468 0.931 0.0
C46 C 0.21032 0.52279 0.99857 0.0
C47 C 0.20364 0.48774 0.03328 0.0
C48 C 0.19163 0.50756 0.00536 0.0
N49 N 0.18848 0.49028 0.02232 0.0
C50 C 0.22252 0.50264 0.02695 0.0
C51 C 0.22585 0.52027 0.00944 0.0
C52 C 0.16751 0.4493 0.11413 0.0
C53 C 0.09386 0.43019 0.15013 0.0
C54 C 0.12055 0.41815 0.15856 0.0
C55 C 0.1109 0.41898 0.19884 0.0
C56 C 0.09747 0.42506 0.19449 0.0
N57 N 0.11692 0.4232 0.11516 0.0
C58 C 0.10378 0.42917 0.11063 0.0
Co59 Co 0.69776 0.15917 0.20214 0.0
Co60 Co 0.71284 0.12718 0.22975 0.0
O61 O 0.69249 0.13297 0.21407 0.0
C62 C 0.6636 0.14237 0.26699 0.0
O63 O 0.67015 0.13249 0.28931 0.0
C64 C 0.69246 0.10029 0.15025 0.0
O65 O 0.69489 0.1151 0.12512 0.0
O66 O 0.72781 0.14122 0.17234 0.0
O67 O 0.72263 0.16614 0.17032 0.0
H68 H 0.78113 0.1426 0.25261 0.0
H69 H 0.66091 0.12585 0.17123 0.0
O70 O 0.6729 0.15333 0.23258 0.0
H71 H 0.69072 0.16275 0.0256 0.0
H72 H 0.68049 0.20928 0.15617 0.0
H73 H 0.73221 0.19786 0.21124 0.0
H74 H 0.70677 0.17407 0.10285 0.0
H75 H 0.67417 0.17628 0.16953 0.0
O76 O 0.699 0.10271 0.19233 0.0
H77 H 0.75538 0.14984 0.23424 0.0
H78 H 0.71309 0.09137 0.25649 0.0
H79 H 0.73919 0.23109 0.19796 0.0
H80 H 0.64424 0.11408 0.09477 0.0
H81 H 0.71322 0.23696 0.17022 0.0
H82 H 0.65919 0.13256 0.02122 0.0
O83 O 0.71108 0.16773 0.26425 0.0
H84 H 0.65347 0.07989 0.31809 0.0
H85 H 0.72243 0.12765 0.33212 0.0
H86 H 0.70414 0.11064 0.40349 0.0
H87 H 0.66941 0.08651 0.39672 0.0
H88 H 0.67224 0.09745 0.24772 0.0
H89 H 0.73839 0.08346 0.27475 0.0
H90 H 0.77268 0.1092 0.27304 0.0
O91 O 0.72694 0.15135 0.2684 0.0
C92 C 0.73159 0.15764 0.15664 0.0
C93 C 0.76623 0.13127 0.25362 0.0
C94 C 0.74224 0.09808 0.26598 0.0
N95 N 0.73276 0.12108 0.24466 0.0
C96 C 0.75159 0.1353 0.24337 0.0
C97 C 0.72799 0.10263 0.25551 0.0
C98 C 0.76149 0.11253 0.26503 0.0
C99 C 0.66742 0.13405 0.13945 0.0
N100 N 0.68477 0.15066 0.14156 0.0
C101 C 0.65795 0.12728 0.09622 0.0
C102 C 0.66636 0.13764 0.05497 0.0
C103 C 0.68406 0.15457 0.05739 0.0
C104 C 0.69312 0.16088 0.10123 0.0
C105 C 0.69193 0.2069 0.16817 0.0
C106 C 0.72086 0.20029 0.19892 0.0
C107 C 0.68843 0.18825 0.17589 0.0
N108 N 0.70284 0.18513 0.19084 0.0
C109 C 0.72489 0.21914 0.19157 0.0
C110 C 0.7103 0.22243 0.17605 0.0
C111 C 0.72382 0.16466 0.28264 0.0
C112 C 0.6686 0.09035 0.32148 0.0
C113 C 0.70729 0.11731 0.32891 0.0
C114 C 0.69702 0.10765 0.36944 0.0
C115 C 0.67754 0.09409 0.3656 0.0
N116 N 0.69842 0.11357 0.28575 0.0
C117 C 0.67933 0.10028 0.28172 0.0
Co118 Co 0.58798 0.71158 0.39495 0.0
Co119 Co 0.54183 0.69876 0.36459 0.0
O120 O 0.56189 0.69214 0.37621 0.0
C121 C 0.59425 0.69076 0.31611 0.0
O122 O 0.58122 0.69239 0.2917 0.0
C123 C 0.52266 0.66358 0.42496 0.0
O124 O 0.53843 0.67013 0.45015 0.0
O125 O 0.54582 0.71016 0.42887 0.0
O126 O 0.578 0.72582 0.43366 0.0
H127 H 0.51344 0.74207 0.36732 0.0
H128 H 0.5754 0.67045 0.41024 0.0
O129 O 0.59871 0.69779 0.35768 0.0
H130 H 0.59251 0.70008 0.56872 0.0
H131 H 0.65609 0.73454 0.44653 0.0
H132 H 0.60889 0.75406 0.40242 0.0
H133 H 0.59573 0.71966 0.49834 0.0
H134 H 0.62294 0.71023 0.42478 0.0
O135 O 0.52181 0.67327 0.39029 0.0
H136 H 0.5387 0.7336 0.37984 0.0
H137 H 0.50174 0.67736 0.32707 0.0
H138 H 0.64185 0.77884 0.42433 0.0
H139 H 0.57222 0.65038 0.47961 0.0
H140 H 0.66571 0.76912 0.44658 0.0
H141 H 0.58074 0.66518 0.55958 0.0
O142 O 0.59019 0.72731 0.33818 0.0
H143 H 0.5327 0.64775 0.24767 0.0
H144 H 0.539 0.71166 0.26711 0.0
H145 H 0.53505 0.69792 0.18707 0.0
H146 H 0.53183 0.66572 0.17697 0.0
H147 H 0.53689 0.66213 0.32706 0.0
H148 H 0.47603 0.68518 0.31433 0.0
H149 H 0.48183 0.71776 0.33434 0.0
O150 O 0.56097 0.72444 0.33773 0.0
C151 C 0.56155 0.72257 0.44813 0.0
C152 C 0.51076 0.72785 0.35831 0.0
C153 C 0.48976 0.69591 0.32862 0.0
N154 N 0.52176 0.70507 0.35382 0.0
C155 C 0.52503 0.72299 0.36519 0.0
C156 C 0.50436 0.69156 0.33599 0.0
C157 C 0.49302 0.7142 0.33985 0.0
C158 C 0.57932 0.67703 0.44485 0.0
N159 N 0.58576 0.6962 0.45018 0.0
C160 C 0.57741 0.66558 0.48403 0.0
C161 C 0.58216 0.67388 0.5289 0.0
C162 C 0.58874 0.69346 0.53406 0.0
C163 C 0.59046 0.70446 0.49409 0.0
C164 C 0.64582 0.73895 0.43698 0.0
C165 C 0.61916 0.74972 0.41232 0.0
C166 C 0.62703 0.72525 0.42452 0.0
N167 N 0.61396 0.73072 0.41264 0.0
C168 C 0.63781 0.76381 0.42458 0.0
C169 C 0.6512 0.75835 0.43702 0.0
C170 C 0.57843 0.73254 0.32403 0.0
C171 C 0.53403 0.66177 0.25163 0.0
C172 C 0.53769 0.69767 0.26302 0.0
C173 C 0.5354 0.68994 0.2176 0.0
C174 C 0.53357 0.67187 0.21197 0.0
N175 N 0.53811 0.68767 0.30176 0.0
C176 C 0.53632 0.66994 0.29651 0.0
Co177 Co 0.84991 0.53962 0.53945 0.0
Co178 Co 0.88008 0.58759 0.56483 0.0
O179 O 0.87557 0.56161 0.55188 0.0
C180 C 0.86951 0.52396 0.60233 0.0
O181 O 0.88297 0.54126 0.6145 0.0
C182 C 0.90758 0.59343 0.48759 0.0
O183 O 0.89337 0.57894 0.46538 0.0
O184 O 0.8658 0.5871 0.50656 0.0
O185 O 0.84243 0.55628 0.50332 0.0
H186 H 0.86116 0.63822 0.58099 0.0
H187 H 0.88489 0.53787 0.51382 0.0
O188 O 0.85602 0.52154 0.57442 0.0
H189 H 0.84869 0.52608 0.36483 0.0
H190 H 0.80228 0.47093 0.49735 0.0
H191 H 0.81049 0.53386 0.54289 0.0
H192 H 0.83604 0.53133 0.43938 0.0
H193 H 0.83463 0.49863 0.51133 0.0
O194 O 0.90462 0.59894 0.52744 0.0
H195 H 0.85565 0.60561 0.56577 0.0
H196 H 0.91475 0.62493 0.5899 0.0
H197 H 0.77789 0.50656 0.52883 0.0
H198 H 0.89794 0.53242 0.44026 0.0
H199 H 0.77363 0.47482 0.50589 0.0
H200 H 0.87984 0.52653 0.36497 0.0
O201 O 0.84006 0.54465 0.59926 0.0
H202 H 0.92983 0.58061 0.65695 0.0
H203 H 0.8786 0.59729 0.66627 0.0
H204 H 0.89613 0.5981 0.73867 0.0
H205 H 0.92201 0.58979 0.73428 0.0
H206 H 0.91169 0.57964 0.58554 0.0
H207 H 0.92093 0.65778 0.60502 0.0
H208 H 0.89401 0.66457 0.60077 0.0
O209 O 0.85577 0.5769 0.60307 0.0
C210 C 0.85006 0.5737 0.48969 0.0
C211 C 0.873 0.63543 0.58308 0.0
C212 C 0.90655 0.64641 0.59651 0.0
N213 N 0.88483 0.61334 0.57728 0.0
C214 C 0.86996 0.61698 0.57462 0.0
C215 C 0.90297 0.62779 0.58781 0.0
C216 C 0.89144 0.65021 0.59414 0.0
C217 C 0.87677 0.53506 0.48144 0.0
N218 N 0.85963 0.53479 0.48111 0.0
C219 C 0.88431 0.53209 0.43977 0.0
C220 C 0.87417 0.52884 0.39753 0.0
C221 C 0.8567 0.5286 0.39742 0.0
C222 C 0.84964 0.53165 0.43975 0.0
C223 C 0.80395 0.4847 0.50724 0.0
C224 C 0.80877 0.52012 0.53264 0.0
C225 C 0.82224 0.50043 0.51531 0.0
N226 N 0.82447 0.5179 0.52759 0.0
C227 C 0.79027 0.5047 0.52485 0.0
C228 C 0.78789 0.48689 0.51202 0.0
C229 C 0.84257 0.56036 0.61698 0.0
C230 C 0.91859 0.58427 0.65932 0.0
C231 C 0.88966 0.59342 0.66411 0.0
C232 C 0.89963 0.59402 0.70521 0.0
C233 C 0.91417 0.58939 0.70271 0.0
N234 N 0.89403 0.58832 0.62169 0.0
C235 C 0.90832 0.58383 0.61895 0.0
Co236 Co 0.3096 0.84485 0.70262 0.0
Co237 Co 0.29807 0.87879 0.7354 0.0
O238 O 0.3168 0.87157 0.71469 0.0
C239 C 0.34441 0.85933 0.76319 0.0
O240 O 0.33685 0.86662 0.79188 0.0
C241 C 0.31719 0.90547 0.65454 0.0
O242 O 0.31302 0.89044 0.62807 0.0
O243 O 0.28149 0.86542 0.67963 0.0
O244 O 0.28379 0.83872 0.67767 0.0
H245 H 0.23181 0.86726 0.7705 0.0
H246 H 0.34595 0.87639 0.66321 0.0
O247 O 0.33531 0.85017 0.72635 0.0
H248 H 0.30854 0.83887 0.5249 0.0
H249 H 0.32181 0.79208 0.64933 0.0
H250 H 0.27456 0.80712 0.71904 0.0
H251 H 0.29564 0.82914 0.60572 0.0
H252 H 0.33019 0.82572 0.66276 0.0
O253 O 0.31214 0.90325 0.69792 0.0
H254 H 0.25569 0.85819 0.74607 0.0
H255 H 0.30085 0.91563 0.76606 0.0
H256 H 0.26553 0.77328 0.70588 0.0
H257 H 0.35948 0.88653 0.58299 0.0
H258 H 0.28925 0.76558 0.67079 0.0
H259 H 0.3407 0.86774 0.51314 0.0
O260 O 0.29868 0.83748 0.7675 0.0
H261 H 0.36074 0.92249 0.81656 0.0
H262 H 0.29119 0.8789 0.83934 0.0
H263 H 0.31176 0.89472 0.90867 0.0
H264 H 0.3468 0.91674 0.89749 0.0
H265 H 0.33967 0.9062 0.74824 0.0
H266 H 0.27745 0.92537 0.79032 0.0
H267 H 0.24265 0.90107 0.79283 0.0
O268 O 0.28376 0.85466 0.77437 0.0
C269 C 0.27583 0.84837 0.66515 0.0
C270 C 0.24693 0.87797 0.76969 0.0
C271 C 0.27255 0.91058 0.78075 0.0
N272 N 0.27964 0.88633 0.75501 0.0
C273 C 0.26052 0.8729 0.75601 0.0
C274 C 0.28573 0.90499 0.76689 0.0
C275 C 0.25303 0.89694 0.78217 0.0
C276 C 0.33778 0.86804 0.63301 0.0
N277 N 0.32008 0.85214 0.63918 0.0
C278 C 0.34547 0.87389 0.58767 0.0
C279 C 0.33492 0.86336 0.54849 0.0
C280 C 0.31687 0.84717 0.55506 0.0
C281 C 0.30962 0.84175 0.60092 0.0
C282 C 0.31134 0.79525 0.66456 0.0
C283 C 0.28492 0.80389 0.70349 0.0
C284 C 0.31602 0.81427 0.67235 0.0
N285 N 0.30283 0.81838 0.69135 0.0
C286 C 0.27974 0.7847 0.69624 0.0
C287 C 0.29306 0.78039 0.6766 0.0
C288 C 0.28671 0.84115 0.78792 0.0
C289 C 0.34548 0.91297 0.82187 0.0
C290 C 0.30644 0.88838 0.83419 0.0
C291 C 0.318 0.89734 0.87358 0.0
C292 C 0.33766 0.90971 0.86728 0.0
N293 N 0.31422 0.89166 0.78975 0.0
C294 C 0.33347 0.90377 0.7833 0.0
Co295 Co 0.41811 0.29305 0.89579 0.0
Co296 Co 0.46629 0.31125 0.87155 0.0
O297 O 0.44409 0.31463 0.8835 0.0
C298 C 0.41256 0.31455 0.81769 0.0
O299 O 0.4271 0.31469 0.79602 0.0
C300 C 0.48121 0.34606 0.93556 0.0
O301 O 0.46375 0.342 0.94678 0.0
O302 O 0.461 0.29599 0.93086 0.0
O303 O 0.42873 0.27953 0.93471 0.0
H304 H 0.49991 0.27283 0.86066 0.0
H305 H 0.42559 0.33248 0.91602 0.0
O306 O 0.40687 0.30617 0.85762 0.0
H307 H 0.40658 0.29837 0.06908 0.0
H308 H 0.34764 0.26334 0.93357 0.0
H309 H 0.40031 0.25063 0.89696 0.0
H310 H 0.40795 0.28179 0.99706 0.0
H311 H 0.38052 0.29013 0.91925 0.0
O312 O 0.48401 0.33525 0.90762 0.0
H313 H 0.47235 0.27778 0.87418 0.0
H314 H 0.50743 0.33739 0.84515 0.0
H315 H 0.36768 0.2234 0.9114 0.0
H316 H 0.42404 0.3495 0.98703 0.0
H317 H 0.34108 0.22969 0.92986 0.0
H318 H 0.41459 0.33246 0.06433 0.0
O319 O 0.419 0.27933 0.83786 0.0
H320 H 0.47349 0.36686 0.77383 0.0
H321 H 0.47538 0.30648 0.7716 0.0
H322 H 0.48092 0.3248 0.6976 0.0
H323 H 0.48005 0.35528 0.69842 0.0
H324 H 0.46778 0.34794 0.84682 0.0
H325 H 0.53539 0.33311 0.83174 0.0
H326 H 0.53171 0.30063 0.83929 0.0
O327 O 0.44999 0.28733 0.83442 0.0
C328 C 0.44526 0.28282 0.94858 0.0
C329 C 0.50168 0.28705 0.85712 0.0
C330 C 0.5216 0.32088 0.84095 0.0
N331 N 0.48822 0.30782 0.86011 0.0
C332 C 0.48611 0.28993 0.8646 0.0
C333 C 0.50572 0.32322 0.8487 0.0
C334 C 0.51952 0.30265 0.84517 0.0
C335 C 0.42127 0.32489 0.9494 0.0
N336 N 0.41696 0.30618 0.95235 0.0
C337 C 0.42051 0.33464 0.98956 0.0
C338 C 0.41524 0.32509 0.03293 0.0
C339 C 0.41078 0.30597 0.03563 0.0
C340 C 0.41171 0.29669 0.99475 0.0
C341 C 0.35912 0.26041 0.92564 0.0
C342 C 0.38883 0.25347 0.90524 0.0
C343 C 0.37776 0.27553 0.9174 0.0
N344 N 0.39234 0.27194 0.9076 0.0
C345 C 0.37037 0.238 0.91326 0.0
C346 C 0.35545 0.24154 0.92357 0.0
C347 C 0.43258 0.27731 0.82084 0.0
C348 C 0.474 0.35365 0.77305 0.0
C349 C 0.47489 0.31966 0.77227 0.0
C350 C 0.4781 0.33002 0.73025 0.0
C351 C 0.47763 0.34712 0.73074 0.0
N352 N 0.47138 0.32616 0.8137 0.0
C353 C 0.47089 0.34292 0.8144 0.0
Co354 Co 0.54185 0.84621 0.91489 0.0
Co355 Co 0.58737 0.88002 0.88227 0.0
O356 O 0.56141 0.87291 0.90268 0.0
C357 C 0.52146 0.86055 0.85395 0.0
O358 O 0.53623 0.86769 0.82497 0.0
C359 C 0.59498 0.90698 0.96249 0.0
O360 O 0.58415 0.89208 0.98939 0.0
O361 O 0.59046 0.86674 0.9385 0.0
O362 O 0.56148 0.84002 0.93994 0.0
H363 H 0.64204 0.86824 0.84853 0.0
H364 H 0.5371 0.8778 0.95403 0.0
O365 O 0.5215 0.85156 0.89106 0.0
H366 H 0.53687 0.84029 0.09264 0.0
H367 H 0.47681 0.79353 0.96832 0.0
H368 H 0.53908 0.80843 0.89871 0.0
H369 H 0.54003 0.83051 0.0119 0.0
H370 H 0.50213 0.82715 0.95477 0.0
O371 O 0.59777 0.90458 0.91921 0.0
H372 H 0.60907 0.8593 0.87259 0.0
H373 H 0.62152 0.91674 0.85125 0.0
H374 H 0.51422 0.77462 0.912 0.0
H375 H 0.53373 0.888 0.03416 0.0
H376 H 0.48282 0.76699 0.94704 0.0
H377 H 0.53365 0.86921 0.10416 0.0
O378 O 0.54542 0.83881 0.85009 0.0
H379 H 0.56857 0.92357 0.79946 0.0
H380 H 0.59452 0.87989 0.77848 0.0
H381 H 0.58991 0.89557 0.70861 0.0
H382 H 0.57689 0.91763 0.71888 0.0
H383 H 0.57323 0.90742 0.86834 0.0
H384 H 0.65467 0.92634 0.82734 0.0
H385 H 0.66509 0.90198 0.82569 0.0
O386 O 0.57755 0.85579 0.84379 0.0
C387 C 0.57904 0.84967 0.95281 0.0
C388 C 0.63765 0.87897 0.84896 0.0
C389 C 0.64475 0.91159 0.83713 0.0
N390 N 0.61334 0.88745 0.86297 0.0
C391 C 0.61899 0.87399 0.86244 0.0
C392 C 0.62598 0.90608 0.8508 0.0
C393 C 0.65058 0.89791 0.8362 0.0
C394 C 0.5369 0.86946 0.9843 0.0
N395 N 0.53865 0.85353 0.97826 0.0
C396 C 0.53506 0.87534 0.02959 0.0
C397 C 0.53504 0.86481 0.06885 0.0
C398 C 0.53686 0.84859 0.06242 0.0
C399 C 0.53869 0.84314 0.01661 0.0
C400 C 0.49045 0.79667 0.95311 0.0
C401 C 0.52549 0.80524 0.91424 0.0
C402 C 0.50482 0.81568 0.94526 0.0
N403 N 0.52211 0.81976 0.92628 0.0
C404 C 0.51145 0.78606 0.92156 0.0
C405 C 0.49383 0.78179 0.94118 0.0
C406 C 0.5611 0.84236 0.83004 0.0
C407 C 0.5743 0.91402 0.79455 0.0
C408 C 0.58876 0.88939 0.78324 0.0
C409 C 0.58623 0.89828 0.74354 0.0
C410 C 0.57894 0.91066 0.74933 0.0
N411 N 0.58419 0.89277 0.82749 0.0
C412 C 0.57704 0.9049 0.83344 0.0
Co413 Co 0.69414 0.53924 0.07457 0.0
Co414 Co 0.71141 0.5871 0.05068 0.0
O415 O 0.69007 0.56112 0.06443 0.0
C416 C 0.65723 0.52318 0.01773 0.0
O417 O 0.66041 0.54041 0.00705 0.0
C418 C 0.69023 0.59305 0.12909 0.0
O419 O 0.69011 0.57864 0.15134 0.0
O420 O 0.72556 0.58657 0.10821 0.0
O421 O 0.71914 0.55607 0.10715 0.0
H422 H 0.78082 0.63778 0.032 0.0
H423 H 0.65792 0.53709 0.10725 0.0
O424 O 0.66916 0.52097 0.04287 0.0
H425 H 0.6866 0.52644 0.25021 0.0
H426 H 0.67442 0.47076 0.11564 0.0
H427 H 0.72771 0.5336 0.06399 0.0
H428 H 0.7026 0.5317 0.17273 0.0
H429 H 0.66932 0.49834 0.10468 0.0
O430 O 0.69844 0.59845 0.08891 0.0
H431 H 0.75385 0.60517 0.04793 0.0
H432 H 0.71386 0.62441 0.02618 0.0
H433 H 0.73347 0.50643 0.07491 0.0
H434 H 0.64131 0.53163 0.18386 0.0
H435 H 0.70671 0.47473 0.10092 0.0
H436 H 0.65567 0.5263 0.25613 0.0
O437 O 0.7075 0.54422 0.01251 0.0
H438 H 0.65398 0.57984 0.96139 0.0
H439 H 0.72193 0.59691 0.94891 0.0
H440 H 0.7047 0.59763 0.87743 0.0
H441 H 0.67048 0.58912 0.8834 0.0
H442 H 0.67167 0.57899 0.03187 0.0
H443 H 0.7404 0.65727 0.01037 0.0
H444 H 0.77417 0.66411 0.01306 0.0
O445 O 0.72484 0.57646 0.01133 0.0
C446 C 0.72867 0.57329 0.12228 0.0
C447 C 0.76617 0.63497 0.03059 0.0
C448 C 0.74349 0.64591 0.01851 0.0
N449 N 0.73231 0.61286 0.03766 0.0
C450 C 0.75084 0.61652 0.03946 0.0
C451 C 0.72852 0.62729 0.0276 0.0
C452 C 0.76243 0.64974 0.02001 0.0
C453 C 0.66414 0.5345 0.13829 0.0
N454 N 0.68112 0.53451 0.13527 0.0
C455 C 0.65472 0.53154 0.1817 0.0
C456 C 0.66281 0.5286 0.22225 0.0
C457 C 0.68016 0.52868 0.21896 0.0
C458 C 0.68918 0.53172 0.17496 0.0
C459 C 0.68621 0.48451 0.10439 0.0
C460 C 0.71601 0.51988 0.07557 0.0
C461 C 0.6834 0.50018 0.09802 0.0
N462 N 0.69825 0.51762 0.08403 0.0
C463 C 0.71935 0.50454 0.08158 0.0
C464 C 0.70433 0.48675 0.09613 0.0
C465 C 0.7209 0.55997 0.99548 0.0
C466 C 0.66889 0.58358 0.95832 0.0
C467 C 0.70698 0.59295 0.95176 0.0
C468 C 0.69733 0.5935 0.91118 0.0
C469 C 0.67814 0.58876 0.91457 0.0
N470 N 0.69779 0.58778 0.99455 0.0
C471 C 0.679 0.58319 0.99816 0.0
Co472 Co 0.12879 0.7112 0.22291 0.0
Co473 Co 0.16209 0.69884 0.25592 0.0
O474 O 0.13546 0.69199 0.24341 0.0
C475 C 0.10147 0.69085 0.30163 0.0
O476 O 0.11613 0.69289 0.32678 0.0
C477 C 0.14718 0.66356 0.19649 0.0
O478 O 0.13969 0.67079 0.16736 0.0
O479 O 0.16958 0.70957 0.19092 0.0
O480 O 0.15318 0.72531 0.18472 0.0
H481 H 0.2338 0.74214 0.25261 0.0
H482 H 0.10085 0.66985 0.20862 0.0
O483 O 0.1041 0.69749 0.25961 0.0
H484 H 0.11361 0.69865 0.04902 0.0
H485 H 0.0836 0.73349 0.16703 0.0
H486 H 0.15021 0.75363 0.21376 0.0
H487 H 0.12937 0.71872 0.1191 0.0
H488 H 0.09252 0.70944 0.19102 0.0
O489 O 0.15652 0.67301 0.23276 0.0
H490 H 0.20008 0.73351 0.23917 0.0
H491 H 0.18078 0.67796 0.29683 0.0
H492 H 0.14196 0.77815 0.18962 0.0
H493 H 0.08461 0.64928 0.13953 0.0
H494 H 0.10844 0.76812 0.16605 0.0
H495 H 0.091 0.66367 0.05901 0.0
O496 O 0.142 0.72727 0.27944 0.0
H497 H 0.12019 0.64917 0.37574 0.0
H498 H 0.17771 0.71291 0.35288 0.0
H499 H 0.16788 0.70011 0.43375 0.0
H500 H 0.13895 0.668 0.44558 0.0
H501 H 0.13041 0.66261 0.29548 0.0
H502 H 0.2143 0.68594 0.31056 0.0
H503 H 0.24108 0.71826 0.28854 0.0
O504 O 0.1686 0.72482 0.28046 0.0
C505 C 0.16637 0.72193 0.17088 0.0
C506 C 0.22225 0.72803 0.26249 0.0
C507 C 0.21131 0.69648 0.29495 0.0
N508 N 0.18847 0.7053 0.26749 0.0
C509 C 0.20313 0.72308 0.25507 0.0
C510 C 0.19235 0.69203 0.28699 0.0
C511 C 0.22633 0.71462 0.2826 0.0
C512 C 0.10357 0.67624 0.17374 0.0
N513 N 0.11599 0.69547 0.16794 0.0
C514 C 0.09439 0.66451 0.13474 0.0
C515 C 0.09801 0.67259 0.08956 0.0
C516 C 0.1107 0.69221 0.08393 0.0
C517 C 0.11963 0.70349 0.12374 0.0
C518 C 0.09826 0.73804 0.17716 0.0
C519 C 0.13562 0.74915 0.2033 0.0
C520 C 0.10339 0.72449 0.19089 0.0
N521 N 0.1219 0.73013 0.20348 0.0
C522 C 0.13102 0.7631 0.18978 0.0
C523 C 0.11221 0.75746 0.1766 0.0
C524 C 0.15905 0.73279 0.29365 0.0
C525 C 0.13286 0.66316 0.37104 0.0
C526 C 0.16505 0.69896 0.35771 0.0
C527 C 0.15959 0.69177 0.4036 0.0
C528 C 0.14337 0.67374 0.41021 0.0
N529 N 0.15467 0.68849 0.31946 0.0
C530 C 0.13876 0.6708 0.32566 0.0
Co531 Co 0.46712 0.15563 0.40543 0.0
Co532 Co 0.41923 0.12497 0.38263 0.0
O533 O 0.44521 0.1297 0.3963 0.0
C534 C 0.48294 0.1337 0.35218 0.0
O535 O 0.46577 0.11866 0.34699 0.0
C536 C 0.41263 0.09826 0.46286 0.0
O537 O 0.42561 0.11297 0.4872 0.0
O538 O 0.41986 0.13984 0.43983 0.0
O539 O 0.45038 0.16394 0.43802 0.0
H540 H 0.36819 0.14322 0.36389 0.0
H541 H 0.4684 0.12123 0.44051 0.0
O542 O 0.48524 0.14871 0.37339 0.0
H543 H 0.48111 0.16249 0.58045 0.0
H544 H 0.53586 0.20457 0.44347 0.0
H545 H 0.47269 0.19477 0.39398 0.0
H546 H 0.47564 0.17261 0.50236 0.0
H547 H 0.5082 0.17184 0.43398 0.0
O548 O 0.4082 0.10072 0.42113 0.0
H549 H 0.40092 0.14913 0.37953 0.0
H550 H 0.38198 0.08991 0.35917 0.0
H551 H 0.49994 0.22774 0.40346 0.0
H552 H 0.47402 0.11069 0.5177 0.0
H553 H 0.5318 0.2328 0.42837 0.0
H554 H 0.4804 0.13135 0.5885 0.0
O555 O 0.4619 0.16369 0.34317 0.0
H556 H 0.42652 0.07473 0.29383 0.0
H557 H 0.40925 0.12545 0.28093 0.0
H558 H 0.40851 0.10742 0.20963 0.0
H559 H 0.41713 0.0818 0.21581 0.0
H560 H 0.42736 0.09331 0.36413 0.0
H561 H 0.34901 0.08334 0.34363 0.0
H562 H 0.34196 0.11012 0.34577 0.0
O563 O 0.42968 0.14894 0.34291 0.0
C564 C 0.43318 0.15628 0.45347 0.0
C565 C 0.37109 0.13144 0.3627 0.0
C566 C 0.36032 0.09782 0.3514 0.0
N567 N 0.39339 0.11991 0.3699 0.0
C568 C 0.38961 0.1347 0.37141 0.0
C569 C 0.37901 0.10163 0.36032 0.0
C570 C 0.35638 0.11286 0.35259 0.0
C571 C 0.47149 0.13049 0.47077 0.0
N572 N 0.47204 0.1477 0.46649 0.0
C573 C 0.47452 0.12436 0.51458 0.0
C574 C 0.47805 0.13593 0.55431 0.0
C575 C 0.47844 0.1534 0.54982 0.0
C576 C 0.47533 0.15905 0.50545 0.0
C577 C 0.52204 0.20255 0.43269 0.0
C578 C 0.48648 0.19685 0.40511 0.0
C579 C 0.50633 0.18405 0.42714 0.0
N580 N 0.4888 0.18139 0.41378 0.0
C581 C 0.50187 0.21556 0.4103 0.0
C582 C 0.51975 0.21839 0.42423 0.0
C583 C 0.44611 0.16138 0.32653 0.0
C584 C 0.42275 0.08587 0.29066 0.0
C585 C 0.41327 0.11451 0.28387 0.0
C586 C 0.4127 0.10426 0.24338 0.0
C587 C 0.4175 0.08986 0.24689 0.0
N588 N 0.41852 0.11057 0.32667 0.0
C589 C 0.42315 0.09642 0.33039 0.0
Co590 Co 0.31544 0.46708 0.57166 0.0
Co591 Co 0.29723 0.41904 0.54527 0.0
O592 O 0.31877 0.44491 0.55879 0.0
C593 C 0.35137 0.48252 0.51096 0.0
O594 O 0.34893 0.46529 0.50448 0.0
C595 C 0.31826 0.41278 0.62337 0.0
O596 O 0.31835 0.42716 0.64567 0.0
O597 O 0.28325 0.41953 0.60309 0.0
O598 O 0.2915 0.45055 0.6087 0.0
H599 H 0.22763 0.36878 0.52737 0.0
H600 H 0.35184 0.46771 0.59719 0.0
O601 O 0.33943 0.48498 0.53541 0.0
H602 H 0.32875 0.4814 0.74568 0.0
H603 H 0.33734 0.53604 0.6128 0.0
H604 H 0.28195 0.47311 0.57022 0.0
H605 H 0.31071 0.47618 0.67144 0.0
H606 H 0.34163 0.50813 0.5985 0.0
O607 O 0.31014 0.40749 0.58306 0.0
H608 H 0.25481 0.40129 0.54324 0.0
H609 H 0.29439 0.38164 0.52017 0.0
H610 H 0.277 0.50061 0.58466 0.0
H611 H 0.37047 0.47312 0.67035 0.0
H612 H 0.30483 0.53236 0.60611 0.0
H613 H 0.35894 0.47997 0.74546 0.0
O614 O 0.30024 0.46215 0.51241 0.0
H615 H 0.35412 0.42569 0.45456 0.0
H616 H 0.28644 0.40969 0.44353 0.0
H617 H 0.30338 0.40891 0.37153 0.0
H618 H 0.33745 0.41689 0.37677 0.0
H619 H 0.33673 0.4266 0.52558 0.0
H620 H 0.26764 0.3489 0.5044 0.0
H621 H 0.23398 0.34232 0.5078 0.0
O622 O 0.28391 0.42995 0.50673 0.0
C623 C 0.28131 0.433 0.62114 0.0
C624 C 0.24224 0.37148 0.52565 0.0
C625 C 0.2647 0.36032 0.51282 0.0
N626 N 0.27616 0.39338 0.53229 0.0
C627 C 0.25768 0.38987 0.53447 0.0
C628 C 0.27978 0.37888 0.52187 0.0
C629 C 0.24581 0.35664 0.51471 0.0
C630 C 0.34685 0.47101 0.62932 0.0
N631 N 0.33028 0.47188 0.62962 0.0
C632 C 0.35741 0.47392 0.67085 0.0
C633 C 0.35091 0.47771 0.713 0.0
C634 C 0.33398 0.47849 0.71315 0.0
C635 C 0.32378 0.47548 0.67096 0.0
C636 C 0.3251 0.52227 0.60358 0.0
C637 C 0.29411 0.48685 0.57986 0.0
C638 C 0.32744 0.50642 0.59531 0.0
N639 N 0.31202 0.48896 0.58389 0.0
C640 C 0.29123 0.50238 0.58785 0.0
C641 C 0.30685 0.52019 0.59983 0.0
C642 C 0.2872 0.44658 0.49379 0.0
C643 C 0.33927 0.42219 0.45181 0.0
C644 C 0.30134 0.41342 0.44607 0.0
C645 C 0.31082 0.41284 0.40519 0.0
C646 C 0.32992 0.41728 0.40816 0.0
N647 N 0.31062 0.41832 0.48874 0.0
C648 C 0.32933 0.42261 0.49195 0.0
Co649 Co 0.88256 0.2949 0.71638 0.0
Co650 Co 0.85178 0.3119 0.74088 0.0
O651 O 0.87776 0.3161 0.73038 0.0
C652 C 0.90965 0.31614 0.7947 0.0
O653 O 0.89525 0.316 0.81708 0.0
C654 C 0.87236 0.34862 0.68342 0.0
O655 O 0.88631 0.34532 0.67254 0.0
O656 O 0.84333 0.2985 0.67893 0.0
O657 O 0.85844 0.28137 0.67718 0.0
H658 H 0.77967 0.2723 0.74213 0.0
H659 H 0.91408 0.3347 0.69755 0.0
O660 O 0.90692 0.30799 0.75448 0.0
H661 H 0.89956 0.30184 0.54297 0.0
H662 H 0.92409 0.26637 0.67546 0.0
H663 H 0.85843 0.25245 0.7135 0.0
H664 H 0.88173 0.28451 0.61451 0.0
H665 H 0.91755 0.29274 0.69156 0.0
O666 O 0.85831 0.33683 0.70902 0.0
H667 H 0.81264 0.27821 0.73082 0.0
H668 H 0.83558 0.33657 0.77116 0.0
H669 H 0.8643 0.22565 0.69729 0.0
H670 H 0.9325 0.35247 0.62702 0.0
H671 H 0.89734 0.23254 0.6781 0.0
H672 H 0.92521 0.33606 0.54896 0.0
O673 O 0.86801 0.28066 0.77392 0.0
H674 H 0.89704 0.36491 0.84958 0.0
H675 H 0.83604 0.30339 0.83925 0.0
H676 H 0.84689 0.31944 0.91661 0.0
H677 H 0.87757 0.35047 0.92212 0.0
H678 H 0.88577 0.34825 0.77308 0.0
H679 H 0.80285 0.33132 0.78253 0.0
H680 H 0.77462 0.29897 0.76817 0.0
O681 O 0.84381 0.28693 0.77356 0.0
C682 C 0.84576 0.2852 0.66167 0.0
C683 C 0.79186 0.28644 0.74865 0.0
C684 C 0.80487 0.31957 0.77127 0.0
N685 N 0.82603 0.30767 0.75068 0.0
C686 C 0.81056 0.28986 0.74242 0.0
C687 C 0.82337 0.32247 0.76468 0.0
C688 C 0.78903 0.30142 0.76322 0.0
C689 C 0.91092 0.3274 0.66381 0.0
N690 N 0.89675 0.30861 0.6602 0.0
C691 C 0.92136 0.33756 0.62394 0.0
C692 C 0.91724 0.32836 0.58015 0.0
C693 C 0.90283 0.30917 0.57675 0.0
C694 C 0.89269 0.29946 0.61737 0.0
C695 C 0.90963 0.26318 0.6837 0.0
C696 C 0.87282 0.25556 0.70492 0.0
C697 C 0.90585 0.27805 0.69295 0.0
N698 N 0.8876 0.27413 0.70314 0.0
C699 C 0.87607 0.24033 0.69589 0.0
C700 C 0.89461 0.24421 0.68517 0.0
C701 C 0.85163 0.27745 0.78834 0.0
C702 C 0.88358 0.35145 0.84759 0.0
C703 C 0.84942 0.31686 0.84131 0.0
C704 C 0.85547 0.32591 0.88523 0.0
C705 C 0.87268 0.34332 0.8883 0.0
N706 N 0.86015 0.32496 0.80146 0.0
C707 C 0.87706 0.342 0.80425 0.0
C708 C 0.19469 0.46757 0.17186 0.0
C709 C 0.18001 0.44996 0.15388 0.0
C710 C 0.20664 0.46796 0.20857 0.0
C711 C 0.22378 0.43777 0.26597 0.0
H712 H 0.23789 0.47388 0.3699 0.0
C713 C 0.26048 0.43082 0.43428 0.0
C714 C 0.27521 0.4477 0.45509 0.0
C715 C 0.24929 0.43174 0.39754 0.0
C716 C 0.23429 0.46386 0.34085 0.0
H717 H 0.16637 0.41894 0.16117 0.0
H718 H 0.18701 0.4197 0.22499 0.0
H719 H 0.21771 0.47443 0.30586 0.0
H720 H 0.2895 0.47886 0.45347 0.0
H721 H 0.2701 0.48043 0.38898 0.0
H722 H 0.24031 0.42719 0.30069 0.0
C723 C 0.18948 0.43321 0.21035 0.0
C724 C 0.2227 0.46417 0.30412 0.0
C725 C 0.17753 0.4328 0.17384 0.0
C726 C 0.27832 0.46555 0.43834 0.0
C727 C 0.2671 0.46646 0.40149 0.0
C728 C 0.23536 0.43748 0.30256 0.0
C729 C 0.20426 0.45077 0.22805 0.0
C730 C 0.21716 0.45101 0.26642 0.0
C731 C 0.25249 0.44956 0.38045 0.0
C732 C 0.24065 0.45039 0.34074 0.0
H733 H 0.19708 0.48107 0.15733 0.0
H734 H 0.21799 0.48174 0.22109 0.0
H735 H 0.22012 0.42768 0.23704 0.0
H736 H 0.2575 0.41679 0.44633 0.0
H737 H 0.23796 0.41842 0.38284 0.0
C738 C 0.81876 0.27668 0.6038 0.0
C739 C 0.8331 0.27332 0.62222 0.0
C740 C 0.80685 0.2654 0.56678 0.0
C741 C 0.80392 0.23253 0.47052 0.0
H742 H 0.74957 0.21607 0.47157 0.0
C743 C 0.75034 0.17455 0.34234 0.0
C744 C 0.73595 0.17733 0.32177 0.0
C745 C 0.76202 0.18659 0.37857 0.0
C746 C 0.76476 0.22072 0.47044 0.0
H747 H 0.84593 0.25517 0.61605 0.0
H748 H 0.82513 0.2355 0.55216 0.0
H749 H 0.77024 0.23645 0.53531 0.0
H750 H 0.72263 0.1951 0.32364 0.0
H751 H 0.74308 0.21615 0.38678 0.0
H752 H 0.79845 0.21673 0.40587 0.0
C753 C 0.82327 0.24707 0.56575 0.0
C754 C 0.77663 0.23243 0.507 0.0
C755 C 0.83516 0.25833 0.6027 0.0
C756 C 0.7335 0.19245 0.33868 0.0
C757 C 0.74518 0.20449 0.37507 0.0
C758 C 0.79207 0.22082 0.43406 0.0
C759 C 0.80897 0.25045 0.5472 0.0
C760 C 0.79635 0.2384 0.50768 0.0
C761 C 0.75965 0.20176 0.39533 0.0
C762 C 0.77231 0.21466 0.43366 0.0
H763 H 0.81671 0.28808 0.61789 0.0
H764 H 0.79614 0.26856 0.55308 0.0
H765 H 0.8191 0.23713 0.46931 0.0
H766 H 0.75268 0.16306 0.33045 0.0
H767 H 0.77281 0.18387 0.3938 0.0
C768 C 0.54318 0.73122 0.50597 0.0
C769 C 0.56085 0.73423 0.48819 0.0
C770 C 0.54264 0.74243 0.54329 0.0
C771 C 0.57259 0.77466 0.64076 0.0
H772 H 0.53525 0.79183 0.63936 0.0
C773 C 0.57753 0.83286 0.76889 0.0
C774 C 0.56042 0.82994 0.79014 0.0
C775 C 0.57707 0.8209 0.73236 0.0
C776 C 0.54563 0.78699 0.64054 0.0
H777 H 0.59184 0.75159 0.49592 0.0
H778 H 0.59087 0.7712 0.56015 0.0
H779 H 0.53541 0.77147 0.57541 0.0
H780 H 0.52933 0.81211 0.78894 0.0
H781 H 0.52857 0.79124 0.72506 0.0
H782 H 0.58295 0.79035 0.70557 0.0
C783 C 0.57739 0.75995 0.5459 0.0
C784 C 0.54572 0.77528 0.60389 0.0
C785 C 0.57794 0.74874 0.50874 0.0
C786 C 0.5428 0.81484 0.77341 0.0
C787 C 0.54234 0.80291 0.73663 0.0
C788 C 0.57256 0.78642 0.67723 0.0
C789 C 0.55975 0.75696 0.56375 0.0
C790 C 0.55927 0.76904 0.60337 0.0
C791 C 0.55949 0.80571 0.71589 0.0
C792 C 0.55915 0.79282 0.67748 0.0
H793 H 0.52972 0.72019 0.49111 0.0
H794 H 0.52878 0.73954 0.55645 0.0
H795 H 0.583 0.76984 0.64214 0.0
H796 H 0.59139 0.84435 0.78061 0.0
H797 H 0.59053 0.82366 0.71673 0.0
C798 C 0.83173 0.57658 0.67547 0.0
C799 C 0.82948 0.55954 0.65539 0.0
C800 C 0.81946 0.57595 0.71141 0.0
C801 C 0.78564 0.54419 0.80349 0.0
H802 H 0.76835 0.58142 0.80224 0.0
C803 C 0.72946 0.54158 0.93744 0.0
C804 C 0.73276 0.55925 0.95588 0.0
C805 C 0.74073 0.54103 0.90024 0.0
C806 C 0.77319 0.57104 0.80345 0.0
H807 H 0.81233 0.5284 0.65767 0.0
H808 H 0.79084 0.52735 0.72022 0.0
H809 H 0.78885 0.58148 0.73861 0.0
H810 H 0.75077 0.59023 0.94958 0.0
H811 H 0.77037 0.58924 0.88533 0.0
H812 H 0.77004 0.53382 0.86855 0.0
C813 C 0.80229 0.54121 0.70841 0.0
C814 C 0.78496 0.57107 0.76689 0.0
C815 C 0.81458 0.54183 0.67234 0.0
C816 C 0.74766 0.57633 0.93622 0.0
C817 C 0.75888 0.57578 0.89907 0.0
C818 C 0.77386 0.54416 0.84012 0.0
C819 C 0.80455 0.55827 0.72833 0.0
C820 C 0.79147 0.55775 0.76658 0.0
C821 C 0.75556 0.55814 0.88049 0.0
C822 C 0.7676 0.55769 0.84077 0.0
H823 H 0.84302 0.59051 0.66352 0.0
H824 H 0.82182 0.58937 0.72636 0.0
H825 H 0.79056 0.53386 0.8047 0.0
H826 H 0.71815 0.52812 0.95167 0.0
H827 H 0.73765 0.52719 0.88654 0.0
C828 C 0.26111 0.8319 0.8499 0.0
C829 C 0.27517 0.82888 0.82828 0.0
C830 C 0.24995 0.82022 0.88728 0.0
C831 C 0.23374 0.77286 0.94433 0.0
H832 H 0.21993 0.79557 0.04725 0.0
C833 C 0.1937 0.73054 0.11393 0.0
C834 C 0.17894 0.73354 0.13098 0.0
C835 C 0.20578 0.74189 0.07716 0.0
C836 C 0.22351 0.78896 0.01858 0.0
H837 H 0.28849 0.81111 0.82956 0.0
H838 H 0.26924 0.79096 0.89534 0.0
H839 H 0.2406 0.81596 0.98377 0.0
H840 H 0.16529 0.75085 0.12203 0.0
H841 H 0.18626 0.77049 0.05821 0.0
H842 H 0.21667 0.74585 0.97956 0.0
C843 C 0.26665 0.80221 0.88283 0.0
C844 C 0.23536 0.80066 0.98206 0.0
C845 C 0.2778 0.81388 0.84526 0.0
C846 C 0.17651 0.7481 0.11006 0.0
C847 C 0.18863 0.75948 0.07356 0.0
C848 C 0.22194 0.76116 0.98104 0.0
C849 C 0.25256 0.80522 0.90434 0.0
C850 C 0.24051 0.79276 0.94417 0.0
C851 C 0.20348 0.7566 0.05677 0.0
C852 C 0.21654 0.76905 0.0184 0.0
H853 H 0.25854 0.84321 0.83774 0.0
H854 H 0.23903 0.82279 0.90229 0.0
H855 H 0.23717 0.76621 0.91549 0.0
H856 H 0.19605 0.71951 0.12918 0.0
H857 H 0.21717 0.73939 0.06531 0.0
C858 C 0.42959 0.17171 0.26753 0.0
C859 C 0.44673 0.1739 0.28687 0.0
C860 C 0.43004 0.18348 0.23044 0.0
C861 C 0.46156 0.23009 0.17124 0.0
H862 H 0.42396 0.20787 0.07038 0.0
C863 C 0.46376 0.27325 0.00377 0.0
C864 C 0.44605 0.27051 0.98697 0.0
C865 C 0.46436 0.26155 0.03979 0.0
C866 C 0.43444 0.21437 0.09849 0.0
H867 H 0.47785 0.19041 0.28206 0.0
H868 H 0.47861 0.21081 0.21704 0.0
H869 H 0.42411 0.18739 0.13381 0.0
H870 H 0.41508 0.25317 0.99532 0.0
H871 H 0.41619 0.23303 0.05809 0.0
H872 H 0.47185 0.2571 0.13586 0.0
C873 C 0.4648 0.20006 0.23097 0.0
C874 C 0.43453 0.2026 0.13493 0.0
C875 C 0.46435 0.18826 0.26811 0.0
C876 C 0.429 0.25575 0.00716 0.0
C877 C 0.42962 0.24407 0.04306 0.0
C878 C 0.46148 0.24187 0.13473 0.0
C879 C 0.44764 0.1978 0.21158 0.0
C880 C 0.448 0.21031 0.172 0.0
C881 C 0.4473 0.24677 0.05983 0.0
C882 C 0.44782 0.23419 0.09804 0.0
H883 H 0.41572 0.16093 0.28114 0.0
H884 H 0.41655 0.18151 0.21699 0.0
H885 H 0.47199 0.23658 0.19949 0.0
H886 H 0.47719 0.2844 0.98901 0.0
H887 H 0.47823 0.26391 0.05146 0.0
C888 C 0.15666 0.52211 0.08615 0.0
C889 C 0.14442 0.5044 0.10823 0.0
C890 C 0.15561 0.53846 0.09728 0.0
C891 C 0.12448 0.55568 0.14344 0.0
H892 H 0.17275 0.6024 0.16796 0.0
C893 C 0.13354 0.63249 0.15079 0.0
C894 C 0.1451 0.6444 0.18773 0.0
C895 C 0.13206 0.61455 0.14281 0.0
C896 C 0.15913 0.58947 0.16145 0.0
H897 H 0.12121 0.48997 0.15886 0.0
H898 H 0.11927 0.51879 0.17812 0.0
H899 H 0.17266 0.57256 0.15211 0.0
H900 H 0.16386 0.64657 0.24579 0.0
H901 H 0.16136 0.6156 0.23161 0.0
H902 H 0.11101 0.57281 0.15247 0.0
C903 C 0.12969 0.51985 0.15221 0.0
C904 C 0.1591 0.57241 0.15208 0.0
C905 C 0.13089 0.50341 0.14142 0.0
C906 C 0.1549 0.63788 0.21681 0.0
C907 C 0.15353 0.62011 0.20863 0.0
C908 C 0.12453 0.57289 0.15234 0.0
C909 C 0.14221 0.53757 0.13052 0.0
C910 C 0.14181 0.55534 0.14278 0.0
C911 C 0.14225 0.60831 0.17134 0.0
C912 C 0.14188 0.58996 0.16148 0.0
H913 H 0.16727 0.52347 0.06042 0.0
H914 H 0.16529 0.55185 0.0796 0.0
H915 H 0.11096 0.54276 0.13607 0.0
H916 H 0.12573 0.63704 0.12792 0.0
H917 H 0.12333 0.60579 0.11362 0.0
C918 C 0.62997 0.12342 0.29929 0.0
C919 C 0.64484 0.14045 0.27958 0.0
C920 C 0.61168 0.12122 0.30624 0.0
C921 C 0.58191 0.14256 0.26669 0.0
H922 H 0.54939 0.11415 0.37274 0.0
C923 C 0.51772 0.14986 0.33053 0.0
C924 C 0.50022 0.13279 0.33818 0.0
C925 C 0.53447 0.1493 0.32073 0.0
C926 C 0.55828 0.12195 0.3427 0.0
H927 H 0.65258 0.16889 0.25417 0.0
H928 H 0.62126 0.1655 0.26831 0.0
H929 H 0.58072 0.11639 0.36318 0.0
H930 H 0.48655 0.10173 0.34156 0.0
H931 H 0.51612 0.10082 0.32545 0.0
H932 H 0.55978 0.14879 0.24757 0.0
C933 C 0.62325 0.15344 0.27652 0.0
C934 C 0.57622 0.12321 0.33709 0.0
C935 C 0.64132 0.15548 0.26883 0.0
C936 C 0.4998 0.11511 0.33543 0.0
C937 C 0.5167 0.11458 0.32659 0.0
C938 C 0.56419 0.14156 0.27279 0.0
C939 C 0.608 0.13613 0.29425 0.0
C940 C 0.58841 0.13378 0.29933 0.0
C941 C 0.53419 0.13169 0.31928 0.0
C942 C 0.55229 0.13142 0.31108 0.0
H943 H 0.63227 0.11155 0.30762 0.0
H944 H 0.60031 0.10764 0.31968 0.0
H945 H 0.59055 0.15032 0.23633 0.0
H946 H 0.51851 0.16371 0.33249 0.0
H947 H 0.5478 0.1627 0.31551 0.0
C948 C 0.36951 0.51709 0.48731 0.0
C949 C 0.36928 0.49969 0.49518 0.0
C950 C 0.38669 0.53384 0.4765 0.0
C951 C 0.43754 0.55821 0.49849 0.0
H952 H 0.44195 0.58935 0.38915 0.0
C953 C 0.50767 0.62993 0.45701 0.0
C954 C 0.50572 0.64458 0.43523 0.0
C955 C 0.49161 0.61157 0.46314 0.0
C956 C 0.44093 0.58105 0.42034 0.0
H957 H 0.38682 0.48618 0.49784 0.0
H958 H 0.41709 0.51578 0.4802 0.0
H959 H 0.41276 0.55855 0.40094 0.0
H960 H 0.48537 0.6518 0.4047 0.0
H961 H 0.4574 0.62038 0.41752 0.0
H962 H 0.46521 0.58101 0.51949 0.0
C963 C 0.40386 0.51625 0.48177 0.0
C964 C 0.42424 0.5633 0.42672 0.0
C965 C 0.38656 0.49935 0.49149 0.0
C966 C 0.48737 0.64072 0.42109 0.0
C967 C 0.47132 0.62257 0.42804 0.0
C968 C 0.45413 0.57618 0.49267 0.0
C969 C 0.40406 0.53365 0.4744 0.0
C970 C 0.42233 0.55179 0.466 0.0
C971 C 0.4732 0.60758 0.44836 0.0
C972 C 0.45598 0.58798 0.45374 0.0
H973 H 0.35642 0.51779 0.49003 0.0
H974 H 0.3865 0.54711 0.47119 0.0
H975 H 0.43631 0.54963 0.52932 0.0
H976 H 0.52169 0.63248 0.46795 0.0
H977 H 0.49375 0.60042 0.47846 0.0
C978 C 0.88864 0.50838 0.6268 0.0
C979 C 0.87087 0.50687 0.6159 0.0
C980 C 0.89001 0.4918 0.63353 0.0
C981 C 0.86304 0.43936 0.60627 0.0
H982 H 0.89816 0.43673 0.69615 0.0
C983 C 0.85663 0.36823 0.66921 0.0
C984 C 0.87345 0.36694 0.66992 0.0
C985 C 0.85752 0.38572 0.65985 0.0
C986 C 0.88845 0.43737 0.67054 0.0
H987 H 0.84044 0.48692 0.60621 0.0
H988 H 0.84262 0.45825 0.61992 0.0
H989 H 0.89714 0.46653 0.68815 0.0
H990 H 0.90441 0.38299 0.66126 0.0
H991 H 0.90598 0.41383 0.64572 0.0
H992 H 0.85389 0.40998 0.59002 0.0
C993 C 0.8557 0.47208 0.62143 0.0
C994 C 0.88786 0.45444 0.66587 0.0
C995 C 0.85439 0.48856 0.61404 0.0
C996 C 0.8912 0.38352 0.6606 0.0
C997 C 0.89212 0.40117 0.65208 0.0
C998 C 0.86345 0.42228 0.61144 0.0
C999 C 0.87358 0.4734 0.63004 0.0
C1000 C 0.87495 0.45558 0.63407 0.0
C1001 C 0.87527 0.40241 0.65175 0.0
C1002 C 0.876 0.42104 0.64393 0.0
H1003 H 0.90161 0.52231 0.62814 0.0
H1004 H 0.90405 0.49344 0.63981 0.0
H1005 H 0.85332 0.43979 0.58038 0.0
H1006 H 0.84273 0.35572 0.67628 0.0
H1007 H 0.84432 0.3863 0.66014 0.0
C1008 C 0.37537 0.87379 0.80932 0.0
C1009 C 0.36364 0.86172 0.77284 0.0
C1010 C 0.39357 0.87597 0.81768 0.0
C1011 C 0.43104 0.8679 0.76162 0.0
H1012 H 0.44768 0.8693 0.8911 0.0
C1013 C 0.48812 0.85343 0.87308 0.0
C1014 C 0.50454 0.86279 0.84418 0.0
C1015 C 0.47202 0.85531 0.86438 0.0
C1016 C 0.44322 0.86883 0.85469 0.0
H1017 H 0.36184 0.84242 0.71671 0.0
H1018 H 0.39313 0.84586 0.73194 0.0
H1019 H 0.41746 0.86847 0.87576 0.0
H1020 H 0.51696 0.8817 0.7837 0.0
H1021 H 0.48887 0.88521 0.76882 0.0
H1022 H 0.45636 0.86737 0.74061 0.0
C1023 C 0.38858 0.85402 0.75347 0.0
C1024 C 0.42598 0.86862 0.84587 0.0
C1025 C 0.37051 0.85192 0.74498 0.0
C1026 C 0.5045 0.87421 0.80646 0.0
C1027 C 0.48837 0.87616 0.79785 0.0
C1028 C 0.44823 0.868 0.77044 0.0
C1029 C 0.4004 0.86609 0.78985 0.0
C1030 C 0.41949 0.86784 0.79923 0.0
C1031 C 0.4719 0.8667 0.82671 0.0
C1032 C 0.4544 0.86816 0.81712 0.0
H1033 H 0.37057 0.88164 0.83122 0.0
H1034 H 0.40235 0.88555 0.84568 0.0
H1035 H 0.42669 0.86765 0.72519 0.0
H1036 H 0.48756 0.84444 0.90234 0.0
H1037 H 0.45951 0.84748 0.88678 0.0
C1038 C 0.4963 0.38044 0.96223 0.0
C1039 C 0.49806 0.36434 0.95089 0.0
C1040 C 0.5127 0.39822 0.97175 0.0
C1041 C 0.56286 0.4203 0.01059 0.0
H1042 H 0.5716 0.46483 0.93737 0.0
C1043 C 0.63736 0.48775 0.00588 0.0
C1044 C 0.63875 0.50589 0.00548 0.0
C1045 C 0.61967 0.47107 0.99925 0.0
C1046 C 0.56929 0.45265 0.95871 0.0
H1047 H 0.51825 0.35408 0.94217 0.0
H1048 H 0.54668 0.38487 0.96003 0.0
H1049 H 0.54119 0.43461 0.92935 0.0
H1050 H 0.62271 0.52079 0.99673 0.0
H1051 H 0.59159 0.49154 0.98635 0.0
H1052 H 0.59063 0.43812 0.04062 0.0
C1053 C 0.5327 0.38383 0.96116 0.0
C1054 C 0.55186 0.43534 0.95404 0.0
C1055 C 0.51642 0.36621 0.95081 0.0
C1056 C 0.6221 0.50701 0.99693 0.0
C1057 C 0.60427 0.49022 0.99093 0.0
C1058 C 0.58012 0.4376 0.01576 0.0
C1059 C 0.53106 0.40007 0.97107 0.0
C1060 C 0.54864 0.41891 0.97931 0.0
C1061 C 0.60278 0.47199 0.99284 0.0
C1062 C 0.58378 0.45394 0.98917 0.0
H1063 H 0.48235 0.37946 0.9622 0.0
H1064 H 0.51106 0.41052 0.97951 0.0
H1065 H 0.56064 0.40792 0.03098 0.0
H1066 H 0.64996 0.48641 0.01186 0.0
H1067 H 0.61927 0.45739 0.99949 0.0
C1068 C 0.25355 0.40933 0.67192 0.0
C1069 C 0.26695 0.42844 0.65942 0.0
C1070 C 0.24048 0.40543 0.70909 0.0
C1071 C 0.23617 0.42476 0.82006 0.0
H1072 H 0.18128 0.40257 0.80094 0.0
C1073 C 0.19148 0.44276 0.94271 0.0
C1074 C 0.17247 0.42896 0.9546 0.0
C1075 C 0.20178 0.43873 0.90954 0.0
C1076 C 0.1965 0.40837 0.8072 0.0
H1077 H 0.27654 0.45835 0.67565 0.0
H1078 H 0.2544 0.45148 0.74096 0.0
H1079 H 0.20154 0.40233 0.73605 0.0
H1080 H 0.1495 0.39988 0.9408 0.0
H1081 H 0.16775 0.39276 0.88235 0.0
H1082 H 0.23149 0.43118 0.89052 0.0
C1083 C 0.254 0.43958 0.72193 0.0
C1084 C 0.20805 0.40826 0.77005 0.0
C1085 C 0.26673 0.44347 0.68448 0.0
C1086 C 0.1641 0.41084 0.93251 0.0
C1087 C 0.17452 0.40679 0.89893 0.0
C1088 C 0.22467 0.42468 0.85718 0.0
C1089 C 0.24087 0.42058 0.7348 0.0
C1090 C 0.22806 0.41708 0.77581 0.0
C1091 C 0.19352 0.42073 0.88717 0.0
C1092 C 0.20482 0.41723 0.85066 0.0
H1093 H 0.2532 0.3974 0.65313 0.0
H1094 H 0.23039 0.39066 0.71844 0.0
H1095 H 0.25156 0.4315 0.82537 0.0
H1096 H 0.1985 0.45691 0.95867 0.0
H1097 H 0.21618 0.45 0.90067 0.0
C1098 C 0.74969 0.1849 0.10031 0.0
C1099 C 0.74651 0.16735 0.11945 0.0
C1100 C 0.76249 0.19363 0.06297 0.0
C1101 C 0.80521 0.20454 0.00663 0.0
H1102 H 0.78087 0.20734 0.89054 0.0
C1103 C 0.84834 0.25106 0.84332 0.0
C1104 C 0.84078 0.26201 0.82367 0.0
C1105 C 0.83779 0.23669 0.87699 0.0
C1106 C 0.78794 0.2067 0.92262 0.0
H1107 H 0.75518 0.14576 0.11538 0.0
H1108 H 0.77812 0.16153 0.04998 0.0
H1109 H 0.76112 0.18734 0.95589 0.0
H1110 H 0.8161 0.26628 0.82431 0.0
H1111 H 0.79813 0.24176 0.8826 0.0
H1112 H 0.832 0.22494 0.97452 0.0
C1113 C 0.7703 0.16818 0.06409 0.0
C1114 C 0.77662 0.19511 0.95977 0.0
C1115 C 0.75718 0.15919 0.10134 0.0
C1116 C 0.82246 0.25818 0.83834 0.0
C1117 C 0.812 0.24392 0.87165 0.0
C1118 C 0.81661 0.21634 0.96943 0.0
C1119 C 0.77273 0.18528 0.04421 0.0
C1120 C 0.78511 0.19434 1.00248 0.0
C1121 C 0.81943 0.23292 0.89135 0.0
C1122 C 0.80801 0.21805 0.92762 0.0
H1123 H 0.74202 0.19185 0.11347 0.0
H1124 H 0.76426 0.2069 0.0483 0.0
H1125 H 0.812 0.20426 0.03955 0.0
H1126 H 0.86239 0.25359 0.83282 0.0
H1127 H 0.8439 0.22844 0.89146 0.0
C1128 C 0.60044 0.75328 0.25883 0.0
C1129 C 0.58487 0.74848 0.28946 0.0
C1130 C 0.60505 0.76705 0.2231 0.0
C1131 C 0.5978 0.8071 0.18476 0.0
H1132 H 0.59966 0.79032 0.05711 0.0
C1133 C 0.60063 0.8513 0.01939 0.0
C1134 C 0.58589 0.8404 0.98689 0.0
C1135 C 0.60517 0.84218 0.05537 0.0
C1136 C 0.59938 0.79529 0.09259 0.0
H1137 H 0.56253 0.75502 0.30798 0.0
H1138 H 0.57071 0.77907 0.24643 0.0
H1139 H 0.59916 0.771 0.12464 0.0
H1140 H 0.56507 0.81141 0.96503 0.0
H1141 H 0.57317 0.79561 0.02695 0.0
H1142 H 0.59722 0.83098 0.15265 0.0
C1143 C 0.57934 0.77221 0.2498 0.0
C1144 C 0.59923 0.78431 0.13124 0.0
C1145 C 0.57456 0.7583 0.28489 0.0
C1146 C 0.57646 0.82024 0.98963 0.0
C1147 C 0.5812 0.81116 0.02494 0.0
C1148 C 0.59816 0.81819 0.14612 0.0
C1149 C 0.5944 0.77652 0.21796 0.0
C1150 C 0.59784 0.78979 0.17768 0.0
C1151 C 0.5953 0.822 0.05884 0.0
C1152 C 0.59835 0.81209 0.09958 0.0
H1153 H 0.60861 0.74592 0.26137 0.0
H1154 H 0.61676 0.77013 0.19911 0.0
H1155 H 0.59687 0.81174 0.22019 0.0
H1156 H 0.60807 0.86686 0.01828 0.0
H1157 H 0.61615 0.85088 0.08098 0.0
C1158 C 0.84645 0.59707 0.43634 0.0
C1159 C 0.8401 0.57809 0.45143 0.0
C1160 C 0.83711 0.60068 0.39901 0.0
C1161 C 0.81061 0.57888 0.29196 0.0
H1162 H 0.78221 0.60586 0.30753 0.0
C1163 C 0.74748 0.56289 0.17241 0.0
C1164 C 0.74406 0.57763 0.15758 0.0
C1165 C 0.7617 0.56642 0.20555 0.0
C1166 C 0.7904 0.59865 0.30222 0.0
H1167 H 0.81843 0.54817 0.4398 0.0
H1168 H 0.80284 0.55449 0.37438 0.0
H1169 H 0.80312 0.60629 0.37162 0.0
H1170 H 0.75314 0.60782 0.16637 0.0
H1171 H 0.77829 0.61405 0.22465 0.0
H1172 H 0.79789 0.5709 0.2233 0.0
C1173 C 0.81501 0.56652 0.39136 0.0
C1174 C 0.80233 0.59889 0.33891 0.0
C1175 C 0.82403 0.56294 0.42891 0.0
C1176 C 0.75536 0.59612 0.17699 0.0
C1177 C 0.76973 0.59968 0.21046 0.0
C1178 C 0.79894 0.5788 0.2553 0.0
C1179 C 0.82152 0.58535 0.37578 0.0
C1180 C 0.81197 0.58843 0.33458 0.0
C1181 C 0.77311 0.58485 0.22488 0.0
C1182 C 0.78807 0.58802 0.26064 0.0
H1183 H 0.85867 0.60908 0.45313 0.0
H1184 H 0.84231 0.61533 0.38758 0.0
H1185 H 0.81808 0.57086 0.28767 0.0
H1186 H 0.73911 0.54843 0.15859 0.0
H1187 H 0.76355 0.55452 0.21658 0.0
C1188 C 0.18857 0.75916 0.33151 0.0
C1189 C 0.16841 0.74885 0.32785 0.0
C1190 C 0.19763 0.77297 0.36678 0.0
C1191 C 0.19002 0.78368 0.48683 0.0
H1192 H 0.23813 0.83105 0.466 0.0
C1193 C 0.25549 0.85021 0.59981 0.0
C1194 C 0.25968 0.83918 0.63114 0.0
C1195 C 0.24174 0.84125 0.56398 0.0
C1196 C 0.22456 0.81805 0.4724 0.0
H1197 H 0.14197 0.74535 0.35761 0.0
H1198 H 0.15792 0.76941 0.42019 0.0
H1199 H 0.21908 0.81228 0.39819 0.0
H1200 H 0.25202 0.81011 0.65102 0.0
H1201 H 0.22798 0.7946 0.58934 0.0
H1202 H 0.19592 0.78902 0.56104 0.0
C1203 C 0.16663 0.76679 0.39535 0.0
C1204 C 0.21373 0.80723 0.43359 0.0
C1205 C 0.15753 0.75312 0.35943 0.0
C1206 C 0.2492 0.81904 0.62735 0.0
C1207 C 0.2353 0.81012 0.59218 0.0
C1208 C 0.20095 0.79439 0.52564 0.0
C1209 C 0.18679 0.77668 0.3997 0.0
C1210 C 0.1966 0.78968 0.44039 0.0
C1211 C 0.23168 0.82111 0.55947 0.0
C1212 C 0.21858 0.81144 0.51883 0.0
H1213 H 0.19739 0.75628 0.30765 0.0
H1214 H 0.21316 0.78016 0.3695 0.0
H1215 H 0.17696 0.77016 0.49323 0.0
H1216 H 0.26339 0.86576 0.60172 0.0
H1217 H 0.23918 0.85007 0.53931 0.0
C1218 C 0.40946 0.25008 0.76791 0.0
C1219 C 0.42841 0.26308 0.78246 0.0
C1220 C 0.40601 0.23718 0.7306 0.0
C1221 C 0.42802 0.23286 0.62305 0.0
H1222 H 0.40104 0.1775 0.639 0.0
C1223 C 0.44373 0.1856 0.50317 0.0
C1224 C 0.42894 0.1674 0.48872 0.0
C1225 C 0.44029 0.19634 0.53635 0.0
C1226 C 0.40826 0.1929 0.63359 0.0
H1227 H 0.45847 0.27211 0.76982 0.0
H1228 H 0.45241 0.25029 0.70444 0.0
H1229 H 0.40064 0.19801 0.70297 0.0
H1230 H 0.39878 0.1463 0.4982 0.0
H1231 H 0.39272 0.16532 0.5565 0.0
H1232 H 0.43594 0.22808 0.55436 0.0
C1233 C 0.44028 0.25008 0.72181 0.0
C1234 C 0.40803 0.2046 0.67022 0.0
C1235 C 0.44371 0.26263 0.75936 0.0
C1236 C 0.41051 0.16025 0.50852 0.0
C1237 C 0.40705 0.1711 0.54201 0.0
C1238 C 0.42807 0.22125 0.58644 0.0
C1239 C 0.42146 0.23735 0.7068 0.0
C1240 C 0.41848 0.2247 0.66575 0.0
C1241 C 0.42192 0.18935 0.55609 0.0
C1242 C 0.41885 0.20117 0.59191 0.0
H1243 H 0.39733 0.24992 0.78516 0.0
H1244 H 0.39136 0.22741 0.71964 0.0
H1245 H 0.436 0.24833 0.61861 0.0
H1246 H 0.45814 0.19167 0.48904 0.0
H1247 H 0.45222 0.2101 0.5471 0.0
C1248 C 0.06887 0.38981 0.98368 0.0
C1249 C 0.08374 0.40595 0.9607 0.0
C1250 C 0.05016 0.38062 0.96564 0.0
C1251 C 0.02213 0.37528 0.85635 0.0
H1252 H 0.97917 0.35428 0.94389 0.0
C1253 C 0.94429 0.3248 0.79351 0.0
C1254 C 0.92935 0.32642 0.81491 0.0
C1255 C 0.96301 0.33485 0.81144 0.0
C1256 C 0.99096 0.36022 0.91884 0.0
H1257 H 0.09048 0.42511 0.90066 0.0
H1258 H 0.05773 0.40928 0.86955 0.0
H1259 H 0.01186 0.37166 0.97433 0.0
H1260 H 0.92247 0.34002 0.87197 0.0
H1261 H 0.9552 0.35784 0.90282 0.0
H1262 H 1.00122 0.36429 0.80081 0.0
C1263 C 0.06062 0.4035 0.90115 0.0
C1264 C 0.00978 0.36998 0.93637 0.0
C1265 C 0.07941 0.41265 0.91909 0.0
C1266 C 0.9336 0.33832 0.85483 0.0
C1267 C 0.95238 0.34849 0.87263 0.0
C1268 C 1.00331 0.36559 0.83881 0.0
C1269 C 0.04572 0.38737 0.92427 0.0
C1270 C 0.02564 0.37752 0.9054 0.0
C1271 C 0.96737 0.34694 0.85108 0.0
C1272 C 0.98745 0.35778 0.86981 0.0
H1273 H 0.07168 0.38416 0.01567 0.0
H1274 H 0.03922 0.36804 0.98396 0.0
H1275 H 0.03393 0.38071 0.83136 0.0
H1276 H 0.94154 0.31569 0.76283 0.0
H1277 H 0.97403 0.33297 0.7944 0.0
C1278 C 0.61239 0.94272 0.95137 0.0
C1279 C 0.60414 0.92677 0.98199 0.0
C1280 C 0.62131 0.96144 0.96932 0.0
C1281 C 0.62574 0.98955 0.07861 0.0
H1282 H 0.67092 0.02919 0.0143 0.0
C1283 C 0.67596 0.0645 0.16007 0.0
C1284 C 0.68186 0.08056 0.13035 0.0
C1285 C 0.66597 0.04585 0.14171 0.0
C1286 C 0.65821 0.01832 0.03239 0.0
H1287 H 0.5988 0.91804 0.05563 0.0
H1288 H 0.61489 0.95068 0.08714 0.0
H1289 H 0.65476 0.99648 0.98363 0.0
H1290 H 0.68186 0.08955 0.05791 0.0
H1291 H 0.66464 0.05691 0.02571 0.0
H1292 H 0.62964 0.01145 0.12811 0.0
C1293 C 0.61409 0.94877 0.0491 0.0
C1294 C 0.64887 0.99953 0.01475 0.0
C1295 C 0.60495 0.93001 0.03106 0.0
C1296 C 0.67754 0.07751 0.08177 0.0
C1297 C 0.66776 0.05882 0.06328 0.0
C1298 C 0.63524 0.00831 0.09655 0.0
C1299 C 0.62246 0.96478 0.01847 0.0
C1300 C 0.63246 0.98485 0.03752 0.0
C1301 C 0.66183 0.04279 0.09309 0.0
C1302 C 0.65156 0.02291 0.07361 0.0
H1303 H 0.61186 0.94077 0.91332 0.0
H1304 H 0.62716 0.97329 0.94447 0.0
H1305 H 0.61298 0.9788 0.09672 0.0
H1306 H 0.67898 0.06631 0.19771 0.0
H1307 H 0.66176 0.03381 0.16551 0.0
C1308 C 0.66812 0.59509 0.18904 0.0
C1309 C 0.68026 0.60275 0.14946 0.0
C1310 C 0.65827 0.60401 0.20698 0.0
C1311 C 0.64267 0.63913 0.17396 0.0
H1312 H 0.63592 0.64083 0.30942 0.0
C1313 C 0.59701 0.6698 0.25399 0.0
C1314 C 0.60366 0.68042 0.29615 0.0
C1315 C 0.60575 0.65976 0.23604 0.0
C1316 C 0.6378 0.64065 0.27148 0.0
H1317 H 0.69175 0.62601 0.0982 0.0
H1318 H 0.67505 0.64176 0.13006 0.0
H1319 H 0.6527 0.62494 0.27879 0.0
H1320 H 0.6249 0.68901 0.35214 0.0
H1321 H 0.64035 0.67201 0.32041 0.0
H1322 H 0.6284 0.65546 0.16675 0.0
C1323 C 0.67271 0.62861 0.14668 0.0
C1324 C 0.64722 0.63127 0.25383 0.0
C1325 C 0.68244 0.61964 0.12858 0.0
C1326 C 0.61931 0.68088 0.31972 0.0
C1327 C 0.62811 0.67098 0.30165 0.0
C1328 C 0.63335 0.64861 0.19162 0.0
C1329 C 0.66039 0.62088 0.18595 0.0
C1330 C 0.64989 0.63046 0.20482 0.0
C1331 C 0.62142 0.6602 0.25967 0.0
C1332 C 0.63087 0.64961 0.24067 0.0
H1333 H 0.666 0.58203 0.20576 0.0
H1334 H 0.64872 0.59748 0.23687 0.0
H1335 H 0.64416 0.63857 0.13596 0.0
H1336 H 0.5849 0.66903 0.2351 0.0
H1337 H 0.60001 0.65142 0.20398 0.0
C1338 C 0.07771 0.67025 0.36413 0.0
C1339 C 0.08169 0.68055 0.3214 0.0
C1340 C 0.05892 0.66027 0.382 0.0
C1341 C 0.0201 0.64925 0.42567 0.0
H1342 H 0.97716 0.62477 0.33855 0.0
C1343 C 0.94189 0.62015 0.48792 0.0
C1344 C 0.9273 0.60311 0.46747 0.0
C1345 C 0.96062 0.62912 0.46994 0.0
C1346 C 0.98895 0.63133 0.3635 0.0
H1347 H 0.06904 0.6886 0.26426 0.0
H1348 H 0.03654 0.6717 0.29586 0.0
H1349 H 0.00986 0.6406 0.30803 0.0
H1350 H 0.92103 0.58209 0.41212 0.0
H1351 H 0.95379 0.59754 0.38126 0.0
H1352 H 0.9992 0.63948 0.48124 0.0
C1353 C 0.04777 0.67088 0.31514 0.0
C1354 C 0.00776 0.64068 0.3459 0.0
C1355 C 0.06649 0.68073 0.29715 0.0
C1356 C 0.93189 0.59528 0.42849 0.0
C1357 C 0.95069 0.6042 0.41067 0.0
C1358 C 1.00128 0.63979 0.44329 0.0
C1359 C 0.04367 0.66044 0.35772 0.0
C1360 C 0.02361 0.64991 0.37669 0.0
C1361 C 0.96534 0.62124 0.43123 0.0
C1362 C 0.98542 0.63082 0.41244 0.0
H1363 H 0.08906 0.6697 0.38354 0.0
H1364 H 0.05632 0.65218 0.41452 0.0
H1365 H 0.03187 0.65632 0.45051 0.0
H1366 H 0.93886 0.62665 0.51785 0.0
H1367 H 0.97135 0.6424 0.48617 0.0
C1368 C 0.39285 0.06253 0.45351 0.0
C1369 C 0.40331 0.07856 0.483 0.0
C1370 C 0.38406 0.04388 0.47194 0.0
C1371 C 0.38385 0.01571 0.57747 0.0
H1372 H 0.33515 0.97701 0.52458 0.0
C1373 C 0.33559 0.94128 0.66444 0.0
C1374 C 0.32775 0.92516 0.63437 0.0
C1375 C 0.34532 0.9599 0.64576 0.0
C1376 C 0.34883 0.98762 0.53942 0.0
H1377 H 0.41268 0.08752 0.55516 0.0
H1378 H 0.39681 0.05502 0.58775 0.0
H1379 H 0.35074 0.00967 0.49354 0.0
H1380 H 0.32407 0.91602 0.561 0.0
H1381 H 0.34084 0.94862 0.52835 0.0
H1382 H 0.38153 0.9936 0.62427 0.0
C1383 C 0.39576 0.05679 0.55005 0.0
C1384 C 0.35785 0.00638 0.52154 0.0
C1385 C 0.40478 0.07548 0.53145 0.0
C1386 C 0.32993 0.92811 0.58514 0.0
C1387 C 0.33945 0.94678 0.56642 0.0
C1388 C 0.37469 0.99699 0.59573 0.0
C1389 C 0.38526 0.0407 0.52054 0.0
C1390 C 0.37554 0.02071 0.54015 0.0
C1391 C 0.34725 0.96287 0.59655 0.0
C1392 C 0.35711 0.98272 0.57682 0.0
H1393 H 0.3916 0.06434 0.41589 0.0
H1394 H 0.37651 0.03195 0.44777 0.0
H1395 H 0.3976 0.02617 0.59225 0.0
H1396 H 0.33423 0.93954 0.70255 0.0
H1397 H 0.35103 0.972 0.66986 0.0
C1398 C 0.33936 0.41006 0.68515 0.0
C1399 C 0.32805 0.40295 0.64409 0.0
C1400 C 0.34891 0.40094 0.70383 0.0
C1401 C 0.35887 0.37291 0.751 0.0
H1402 H 0.38057 0.351 0.6655 0.0
C1403 C 0.38648 0.32308 0.81788 0.0
C1404 C 0.40309 0.32467 0.79683 0.0
C1405 C 0.37771 0.33292 0.7991 0.0
C1406 C 0.37477 0.35718 0.68996 0.0
H1407 H 0.31779 0.38052 0.59079 0.0
H1408 H 0.33403 0.36447 0.6238 0.0
H1409 H 0.36514 0.36805 0.63344 0.0
H1410 H 0.42355 0.33798 0.73953 0.0
H1411 H 0.40842 0.35537 0.70714 0.0
H1412 H 0.36892 0.36246 0.80753 0.0
C1413 C 0.33589 0.37731 0.64113 0.0
C1414 C 0.36567 0.36677 0.67153 0.0
C1415 C 0.32644 0.38646 0.62236 0.0
C1416 C 0.41069 0.33632 0.75644 0.0
C1417 C 0.40196 0.34624 0.73775 0.0
C1418 C 0.36803 0.36338 0.76943 0.0
C1419 C 0.34733 0.38445 0.68202 0.0
C1420 C 0.35748 0.37466 0.70177 0.0
C1421 C 0.38536 0.34471 0.75889 0.0
C1422 C 0.37601 0.35528 0.73918 0.0
H1423 H 0.34104 0.42281 0.7026 0.0
H1424 H 0.35778 0.40702 0.73499 0.0
H1425 H 0.3526 0.37862 0.77544 0.0
H1426 H 0.38017 0.31418 0.84893 0.0
H1427 H 0.36478 0.33108 0.81589 0.0
loop_
_geom_bond_atom_site_label_1
_geom_bond_atom_site_label_2
_geom_bond_distance
_geom_bond_site_symmetry_2
_ccdc_geom_bond_type
Co0 O2 2.143 . S
Co0 O8 2.074 . S
Co0 O11 2.093 . S
Co0 O24 2.097 . S
Co0 N41 2.151 1_554 S
Co0 N49 2.214 . S
Co1 O2 2.160 . S
Co1 O7 2.058 1_554 S
Co1 O17 2.057 . S
Co1 O32 2.037 . S
Co1 N36 2.145 . S
Co1 N57 2.257 . S
O2 Co0 2.143 . S
O2 Co1 2.160 . S
C3 O4 1.278 . S
C3 O11 1.224 . S
O4 C3 1.278 . S
C5 O6 1.245 . S
C5 O17 1.232 1_556 S
O6 C5 1.245 . S
O7 Co1 2.058 1_556 S
O7 C33 1.269 . S
O8 Co0 2.074 . S
O8 C33 1.257 1_554 S
H9 C34 0.930 . S
H10 C40 0.930 1_554 S
O11 Co0 2.093 . S
O11 C3 1.224 . S
H12 C44 0.929 . S
H13 C46 0.930 . S
H14 C47 0.930 . S
H15 C45 0.929 . S
H16 C48 0.928 . S
O17 Co1 2.057 . S
O17 C5 1.232 1_554 S
H18 C37 0.929 . S
H19 C38 0.929 . S
H20 C50 0.931 . S
H21 C42 0.929 . S
H22 C51 0.930 . S
H23 C43 0.931 . S
O24 Co0 2.097 . S
O24 C52 1.214 . S
H25 C53 0.929 . S
H26 C54 0.929 . S
H27 C55 0.930 . S
H28 C56 0.929 . S
H29 C58 0.930 . S
H30 C35 0.930 . S
H31 C39 0.930 . S
O32 Co1 2.037 . S
O32 C52 1.234 . S
C33 O7 1.269 . S
C33 O8 1.257 1_556 S
C34 H9 0.930 . S
C34 C37 1.388 . S
C34 C39 1.418 . S
C35 H30 0.930 . S
C35 C38 1.404 . S
C35 C39 1.353 . S
N36 Co1 2.145 . S
N36 C37 1.397 . S
N36 C38 1.334 . S
C37 H18 0.929 . S
C37 C34 1.388 . S
C37 N36 1.397 . S
C38 H19 0.929 . S
C38 C35 1.404 . S
C38 N36 1.334 . S
C39 H31 0.930 . S
C39 C34 1.418 . S
C39 C35 1.353 . S
C40 H10 0.930 1_556 S
C40 N41 1.330 . S
C40 C42 1.446 . S
N41 Co0 2.151 1_556 S
N41 C40 1.330 . S
N41 C45 1.418 . S
C42 H21 0.929 . S
C42 C40 1.446 . S
C42 C43 1.332 . S
C43 H23 0.931 . S
C43 C42 1.332 . S
C43 C44 1.267 . S
C44 H12 0.929 . S
C44 C43 1.267 . S
C44 C45 1.251 . S
C45 H15 0.929 . S
C45 N41 1.418 . S
C45 C44 1.251 . S
C46 H13 0.930 . S
C46 C48 1.406 . S
C46 C51 1.261 . S
C47 H14 0.930 . S
C47 N49 1.325 . S
C47 C50 1.357 . S
C48 H16 0.928 . S
C48 C46 1.406 . S
C48 N49 1.261 . S
N49 Co0 2.214 . S
N49 C47 1.325 . S
N49 C48 1.261 . S
C50 H20 0.931 . S
C50 C47 1.357 . S
C50 C51 1.312 . S
C51 H22 0.930 . S
C51 C46 1.261 . S
C51 C50 1.312 . S
C52 O24 1.214 . S
C52 O32 1.234 . S
C53 H25 0.929 . S
C53 C56 1.391 . S
C53 C58 1.391 . S
C54 H26 0.929 . S
C54 C55 1.390 . S
C54 N57 1.391 . S
C55 H27 0.930 . S
C55 C54 1.390 . S
C55 C56 1.392 . S
C56 H28 0.929 . S
C56 C53 1.391 . S
C56 C55 1.392 . S
N57 Co1 2.257 . S
N57 C54 1.391 . S
N57 C58 1.388 . S
C58 H29 0.930 . S
C58 C53 1.391 . S
C58 N57 1.388 . S
Co59 O61 2.143 . S
Co59 O67 2.074 . S
Co59 O70 2.093 . S
Co59 O83 2.097 . S
Co59 N100 2.151 . S
Co59 N108 2.214 . S
Co60 O61 2.160 . S
Co60 O66 2.058 . S
Co60 O76 2.057 . S
Co60 O91 2.037 . S
Co60 N95 2.145 . S
Co60 N116 2.257 . S
O61 Co59 2.143 . S
O61 Co60 2.160 . S
C62 O63 1.278 . S
C62 O70 1.224 . S
O63 C62 1.278 . S
C64 O65 1.245 . S
C64 O76 1.232 . S
O65 C64 1.245 . S
O66 Co60 2.058 . S
O66 C92 1.269 . S
O67 Co59 2.074 . S
O67 C92 1.257 . S
H68 C93 0.930 . S
H69 C99 0.930 . S
O70 Co59 2.093 . S
O70 C62 1.224 . S
H71 C103 0.929 . S
H72 C105 0.930 . S
H73 C106 0.930 . S
H74 C104 0.929 . S
H75 C107 0.928 . S
O76 Co60 2.057 . S
O76 C64 1.232 . S
H77 C96 0.929 . S
H78 C97 0.929 . S
H79 C109 0.931 . S
H80 C101 0.929 . S
H81 C110 0.930 . S
H82 C102 0.931 . S
O83 Co59 2.097 . S
O83 C111 1.214 . S
H84 C112 0.929 . S
H85 C113 0.929 . S
H86 C114 0.930 . S
H87 C115 0.929 . S
H88 C117 0.930 . S
H89 C94 0.930 . S
H90 C98 0.930 . S
O91 Co60 2.037 . S
O91 C111 1.234 . S
C92 O66 1.269 . S
C92 O67 1.257 . S
C93 H68 0.930 . S
C93 C96 1.388 . S
C93 C98 1.418 . S
C94 H89 0.930 . S
C94 C97 1.404 . S
C94 C98 1.353 . S
N95 Co60 2.145 . S
N95 C96 1.397 . S
N95 C97 1.334 . S
C96 H77 0.929 . S
C96 C93 1.388 . S
C96 N95 1.397 . S
C97 H78 0.929 . S
C97 C94 1.404 . S
C97 N95 1.334 . S
C98 H90 0.930 . S
C98 C93 1.418 . S
C98 C94 1.353 . S
C99 H69 0.930 . S
C99 N100 1.330 . S
C99 C101 1.446 . S
N100 Co59 2.151 . S
N100 C99 1.330 . S
N100 C104 1.418 . S
C101 H80 0.929 . S
C101 C99 1.446 . S
C101 C102 1.332 . S
C102 H82 0.931 . S
C102 C101 1.332 . S
C102 C103 1.267 . S
C103 H71 0.929 . S
C103 C102 1.267 . S
C103 C104 1.251 . S
C104 H74 0.929 . S
C104 N100 1.418 . S
C104 C103 1.251 . S
C105 H72 0.930 . S
C105 C107 1.406 . S
C105 C110 1.261 . S
C106 H73 0.930 . S
C106 N108 1.325 . S
C106 C109 1.357 . S
C107 H75 0.928 . S
C107 C105 1.406 . S
C107 N108 1.261 . S
N108 Co59 2.214 . S
N108 C106 1.325 . S
N108 C107 1.261 . S
C109 H79 0.931 . S
C109 C106 1.357 . S
C109 C110 1.312 . S
C110 H81 0.930 . S
C110 C105 1.261 . S
C110 C109 1.312 . S
C111 O83 1.214 . S
C111 O91 1.234 . S
C112 H84 0.929 . S
C112 C115 1.391 . S
C112 C117 1.391 . S
C113 H85 0.929 . S
C113 C114 1.390 . S
C113 N116 1.391 . S
C114 H86 0.930 . S
C114 C113 1.390 . S
C114 C115 1.392 . S
C115 H87 0.929 . S
C115 C112 1.391 . S
C115 C114 1.392 . S
N116 Co60 2.257 . S
N116 C113 1.391 . S
N116 C117 1.388 . S
C117 H88 0.930 . S
C117 C112 1.391 . S
C117 N116 1.388 . S
Co118 O120 2.143 . S
Co118 O126 2.074 . S
Co118 O129 2.093 . S
Co118 O142 2.097 . S
Co118 N159 2.151 . S
Co118 N167 2.214 . S
Co119 O120 2.160 . S
Co119 O125 2.058 . S
Co119 O135 2.057 . S
Co119 O150 2.037 . S
Co119 N154 2.145 . S
Co119 N175 2.257 . S
O120 Co118 2.143 . S
O120 Co119 2.160 . S
C121 O122 1.278 . S
C121 O129 1.224 . S
O122 C121 1.278 . S
C123 O124 1.245 . S
C123 O135 1.232 . S
O124 C123 1.245 . S
O125 Co119 2.058 . S
O125 C151 1.269 . S
O126 Co118 2.074 . S
O126 C151 1.257 . S
H127 C152 0.930 . S
H128 C158 0.930 . S
O129 Co118 2.093 . S
O129 C121 1.224 . S
H130 C162 0.929 . S
H131 C164 0.930 . S
H132 C165 0.930 . S
H133 C163 0.929 . S
H134 C166 0.928 . S
O135 Co119 2.057 . S
O135 C123 1.232 . S
H136 C155 0.929 . S
H137 C156 0.929 . S
H138 C168 0.931 . S
H139 C160 0.929 . S
H140 C169 0.930 . S
H141 C161 0.931 . S
O142 Co118 2.097 . S
O142 C170 1.214 . S
H143 C171 0.929 . S
H144 C172 0.929 . S
H145 C173 0.930 . S
H146 C174 0.929 . S
H147 C176 0.930 . S
H148 C153 0.930 . S
H149 C157 0.930 . S
O150 Co119 2.037 . S
O150 C170 1.234 . S
C151 O125 1.269 . S
C151 O126 1.257 . S
C152 H127 0.930 . S
C152 C155 1.388 . S
C152 C157 1.418 . S
C153 H148 0.930 . S
C153 C156 1.404 . S
C153 C157 1.353 . S
N154 Co119 2.145 . S
N154 C155 1.397 . S
N154 C156 1.334 . S
C155 H136 0.929 . S
C155 C152 1.388 . S
C155 N154 1.397 . S
C156 H137 0.929 . S
C156 C153 1.404 . S
C156 N154 1.334 . S
C157 H149 0.930 . S
C157 C152 1.418 . S
C157 C153 1.353 . S
C158 H128 0.930 . S
C158 N159 1.330 . S
C158 C160 1.446 . S
N159 Co118 2.151 . S
N159 C158 1.330 . S
N159 C163 1.418 . S
C160 H139 0.929 . S
C160 C158 1.446 . S
C160 C161 1.332 . S
C161 H141 0.931 . S
C161 C160 1.332 . S
C161 C162 1.267 . S
C162 H130 0.929 . S
C162 C161 1.267 . S
C162 C163 1.251 . S
C163 H133 0.929 . S
C163 N159 1.418 . S
C163 C162 1.251 . S
C164 H131 0.930 . S
C164 C166 1.406 . S
C164 C169 1.261 . S
C165 H132 0.930 . S
C165 N167 1.325 . S
C165 C168 1.357 . S
C166 H134 0.928 . S
C166 C164 1.406 . S
C166 N167 1.261 . S
N167 Co118 2.214 . S
N167 C165 1.325 . S
N167 C166 1.261 . S
C168 H138 0.931 . S
C168 C165 1.357 . S
C168 C169 1.312 . S
C169 H140 0.930 . S
C169 C164 1.261 . S
C169 C168 1.312 . S
C170 O142 1.214 . S
C170 O150 1.234 . S
C171 H143 0.929 . S
C171 C174 1.391 . S
C171 C176 1.391 . S
C172 H144 0.929 . S
C172 C173 1.390 . S
C172 N175 1.391 . S
C173 H145 0.930 . S
C173 C172 1.390 . S
C173 C174 1.392 . S
C174 H146 0.929 . S
C174 C171 1.391 . S
C174 C173 1.392 . S
N175 Co119 2.257 . S
N175 C172 1.391 . S
N175 C176 1.388 . S
C176 H147 0.930 . S
C176 C171 1.391 . S
C176 N175 1.388 . S
Co177 O179 2.143 . S
Co177 O185 2.074 . S
Co177 O188 2.093 . S
Co177 O201 2.097 . S
Co177 N218 2.151 . S
Co177 N226 2.214 . S
Co178 O179 2.160 . S
Co178 O184 2.058 . S
Co178 O194 2.057 . S
Co178 O209 2.037 . S
Co178 N213 2.145 . S
Co178 N234 2.257 . S
O179 Co177 2.143 . S
O179 Co178 2.160 . S
C180 O181 1.278 . S
C180 O188 1.224 . S
O181 C180 1.278 . S
C182 O183 1.245 . S
C182 O194 1.232 . S
O183 C182 1.245 . S
O184 Co178 2.058 . S
O184 C210 1.269 . S
O185 Co177 2.074 . S
O185 C210 1.257 . S
H186 C211 0.930 . S
H187 C217 0.930 . S
O188 Co177 2.093 . S
O188 C180 1.224 . S
H189 C221 0.929 . S
H190 C223 0.930 . S
H191 C224 0.930 . S
H192 C222 0.929 . S
H193 C225 0.928 . S
O194 Co178 2.057 . S
O194 C182 1.232 . S
H195 C214 0.929 . S
H196 C215 0.929 . S
H197 C227 0.931 . S
H198 C219 0.929 . S
H199 C228 0.930 . S
H200 C220 0.931 . S
O201 Co177 2.097 . S
O201 C229 1.214 . S
H202 C230 0.929 . S
H203 C231 0.929 . S
H204 C232 0.930 . S
H205 C233 0.929 . S
H206 C235 0.930 . S
H207 C212 0.930 . S
H208 C216 0.930 . S
O209 Co178 2.037 . S
O209 C229 1.234 . S
C210 O184 1.269 . S
C210 O185 1.257 . S
C211 H186 0.930 . S
C211 C214 1.388 . S
C211 C216 1.418 . S
C212 H207 0.930 . S
C212 C215 1.404 . S
C212 C216 1.353 . S
N213 Co178 2.145 . S
N213 C214 1.397 . S
N213 C215 1.334 . S
C214 H195 0.929 . S
C214 C211 1.388 . S
C214 N213 1.397 . S
C215 H196 0.929 . S
C215 C212 1.404 . S
C215 N213 1.334 . S
C216 H208 0.930 . S
C216 C211 1.418 . S
C216 C212 1.353 . S
C217 H187 0.930 . S
C217 N218 1.330 . S
C217 C219 1.446 . S
N218 Co177 2.151 . S
N218 C217 1.330 . S
N218 C222 1.418 . S
C219 H198 0.929 . S
C219 C217 1.446 . S
C219 C220 1.332 . S
C220 H200 0.931 . S
C220 C219 1.332 . S
C220 C221 1.267 . S
C221 H189 0.929 . S
C221 C220 1.267 . S
C221 C222 1.251 . S
C222 H192 0.929 . S
C222 N218 1.418 . S
C222 C221 1.251 . S
C223 H190 0.930 . S
C223 C225 1.406 . S
C223 C228 1.261 . S
C224 H191 0.930 . S
C224 N226 1.325 . S
C224 C227 1.357 . S
C225 H193 0.928 . S
C225 C223 1.406 . S
C225 N226 1.261 . S
N226 Co177 2.214 . S
N226 C224 1.325 . S
N226 C225 1.261 . S
C227 H197 0.931 . S
C227 C224 1.357 . S
C227 C228 1.312 . S
C228 H199 0.930 . S
C228 C223 1.261 . S
C228 C227 1.312 . S
C229 O201 1.214 . S
C229 O209 1.234 . S
C230 H202 0.929 . S
C230 C233 1.391 . S
C230 C235 1.391 . S
C231 H203 0.929 . S
C231 C232 1.390 . S
C231 N234 1.391 . S
C232 H204 0.930 . S
C232 C231 1.390 . S
C232 C233 1.392 . S
C233 H205 0.929 . S
C233 C230 1.391 . S
C233 C232 1.392 . S
N234 Co178 2.257 . S
N234 C231 1.391 . S
N234 C235 1.388 . S
C235 H206 0.930 . S
C235 C230 1.391 . S
C235 N234 1.388 . S
Co236 O238 2.143 . S
Co236 O244 2.074 . S
Co236 O247 2.093 . S
Co236 O260 2.097 . S
Co236 N277 2.151 . S
Co236 N285 2.214 . S
Co237 O238 2.160 . S
Co237 O243 2.058 . S
Co237 O253 2.057 . S
Co237 O268 2.037 . S
Co237 N272 2.145 . S
Co237 N293 2.257 . S
O238 Co236 2.143 . S
O238 Co237 2.160 . S
C239 O240 1.278 . S
C239 O247 1.224 . S
O240 C239 1.278 . S
C241 O242 1.245 . S
C241 O253 1.232 . S
O242 C241 1.245 . S
O243 Co237 2.058 . S
O243 C269 1.269 . S
O244 Co236 2.074 . S
O244 C269 1.257 . S
H245 C270 0.930 . S
H246 C276 0.930 . S
O247 Co236 2.093 . S
O247 C239 1.224 . S
H248 C280 0.929 . S
H249 C282 0.930 . S
H250 C283 0.930 . S
H251 C281 0.929 . S
H252 C284 0.928 . S
O253 Co237 2.057 . S
O253 C241 1.232 . S
H254 C273 0.929 . S
H255 C274 0.929 . S
H256 C286 0.931 . S
H257 C278 0.929 . S
H258 C287 0.930 . S
H259 C279 0.931 . S
O260 Co236 2.097 . S
O260 C288 1.214 . S
H261 C289 0.929 . S
H262 C290 0.929 . S
H263 C291 0.930 . S
H264 C292 0.929 . S
H265 C294 0.930 . S
H266 C271 0.930 . S
H267 C275 0.930 . S
O268 Co237 2.037 . S
O268 C288 1.234 . S
C269 O243 1.269 . S
C269 O244 1.257 . S
C270 H245 0.930 . S
C270 C273 1.388 . S
C270 C275 1.418 . S
C271 H266 0.930 . S
C271 C274 1.404 . S
C271 C275 1.353 . S
N272 Co237 2.145 . S
N272 C273 1.397 . S
N272 C274 1.334 . S
C273 H254 0.929 . S
C273 C270 1.388 . S
C273 N272 1.397 . S
C274 H255 0.929 . S
C274 C271 1.404 . S
C274 N272 1.334 . S
C275 H267 0.930 . S
C275 C270 1.418 . S
C275 C271 1.353 . S
C276 H246 0.930 . S
C276 N277 1.330 . S
C276 C278 1.446 . S
N277 Co236 2.151 . S
N277 C276 1.330 . S
N277 C281 1.418 . S
C278 H257 0.929 . S
C278 C276 1.446 . S
C278 C279 1.332 . S
C279 H259 0.931 . S
C279 C278 1.332 . S
C279 C280 1.267 . S
C280 H248 0.929 . S
C280 C279 1.267 . S
C280 C281 1.251 . S
C281 H251 0.929 . S
C281 N277 1.418 . S
C281 C280 1.251 . S
C282 H249 0.930 . S
C282 C284 1.406 . S
C282 C287 1.261 . S
C283 H250 0.930 . S
C283 N285 1.325 . S
C283 C286 1.357 . S
C284 H252 0.928 . S
C284 C282 1.406 . S
C284 N285 1.261 . S
N285 Co236 2.214 . S
N285 C283 1.325 . S
N285 C284 1.261 . S
C286 H256 0.931 . S
C286 C283 1.357 . S
C286 C287 1.312 . S
C287 H258 0.930 . S
C287 C282 1.261 . S
C287 C286 1.312 . S
C288 O260 1.214 . S
C288 O268 1.234 . S
C289 H261 0.929 . S
C289 C292 1.391 . S
C289 C294 1.391 . S
C290 H262 0.929 . S
C290 C291 1.390 . S
C290 N293 1.391 . S
C291 H263 0.930 . S
C291 C290 1.390 . S
C291 C292 1.392 . S
C292 H264 0.929 . S
C292 C289 1.391 . S
C292 C291 1.392 . S
N293 Co237 2.257 . S
N293 C290 1.391 . S
N293 C294 1.388 . S
C294 H265 0.930 . S
C294 C289 1.391 . S
C294 N293 1.388 . S
Co295 O297 2.143 . S
Co295 O303 2.074 . S
Co295 O306 2.093 . S
Co295 O319 2.097 . S
Co295 N336 2.151 . S
Co295 N344 2.214 . S
Co296 O297 2.160 . S
Co296 O302 2.058 . S
Co296 O312 2.057 . S
Co296 O327 2.037 . S
Co296 N331 2.145 . S
Co296 N352 2.257 . S
O297 Co295 2.143 . S
O297 Co296 2.160 . S
C298 O299 1.278 . S
C298 O306 1.224 . S
O299 C298 1.278 . S
C300 O301 1.245 . S
C300 O312 1.232 . S
O301 C300 1.245 . S
O302 Co296 2.058 . S
O302 C328 1.269 . S
O303 Co295 2.074 . S
O303 C328 1.257 . S
H304 C329 0.930 . S
H305 C335 0.930 . S
O306 Co295 2.093 . S
O306 C298 1.224 . S
H307 C339 0.929 . S
H308 C341 0.930 . S
H309 C342 0.930 . S
H310 C340 0.929 . S
H311 C343 0.928 . S
O312 Co296 2.057 . S
O312 C300 1.232 . S
H313 C332 0.929 . S
H314 C333 0.929 . S
H315 C345 0.931 . S
H316 C337 0.929 . S
H317 C346 0.930 . S
H318 C338 0.931 . S
O319 Co295 2.097 . S
O319 C347 1.214 . S
H320 C348 0.929 . S
H321 C349 0.929 . S
H322 C350 0.930 . S
H323 C351 0.929 . S
H324 C353 0.930 . S
H325 C330 0.930 . S
H326 C334 0.930 . S
O327 Co296 2.037 . S
O327 C347 1.234 . S
C328 O302 1.269 . S
C328 O303 1.257 . S
C329 H304 0.930 . S
C329 C332 1.388 . S
C329 C334 1.418 . S
C330 H325 0.930 . S
C330 C333 1.404 . S
C330 C334 1.353 . S
N331 Co296 2.145 . S
N331 C332 1.397 . S
N331 C333 1.334 . S
C332 H313 0.929 . S
C332 C329 1.388 . S
C332 N331 1.397 . S
C333 H314 0.929 . S
C333 C330 1.404 . S
C333 N331 1.334 . S
C334 H326 0.930 . S
C334 C329 1.418 . S
C334 C330 1.353 . S
C335 H305 0.930 . S
C335 N336 1.330 . S
C335 C337 1.446 . S
N336 Co295 2.151 . S
N336 C335 1.330 . S
N336 C340 1.418 . S
C337 H316 0.929 . S
C337 C335 1.446 . S
C337 C338 1.332 1_556 S
C338 H318 0.931 . S
C338 C337 1.332 1_554 S
C338 C339 1.267 . S
C339 H307 0.929 . S
C339 C338 1.267 . S
C339 C340 1.251 1_554 S
C340 H310 0.929 . S
C340 N336 1.418 . S
C340 C339 1.251 1_556 S
C341 H308 0.930 . S
C341 C343 1.406 . S
C341 C346 1.261 . S
C342 H309 0.930 . S
C342 N344 1.325 . S
C342 C345 1.357 . S
C343 H311 0.928 . S
C343 C341 1.406 . S
C343 N344 1.261 . S
N344 Co295 2.214 . S
N344 C342 1.325 . S
N344 C343 1.261 . S
C345 H315 0.931 . S
C345 C342 1.357 . S
C345 C346 1.312 . S
C346 H317 0.930 . S
C346 C341 1.261 . S
C346 C345 1.312 . S
C347 O319 1.214 . S
C347 O327 1.234 . S
C348 H320 0.929 . S
C348 C351 1.391 . S
C348 C353 1.391 . S
C349 H321 0.929 . S
C349 C350 1.390 . S
C349 N352 1.391 . S
C350 H322 0.930 . S
C350 C349 1.390 . S
C350 C351 1.392 . S
C351 H323 0.929 . S
C351 C348 1.391 . S
C351 C350 1.392 . S
N352 Co296 2.257 . S
N352 C349 1.391 . S
N352 C353 1.388 . S
C353 H324 0.930 . S
C353 C348 1.391 . S
C353 N352 1.388 . S
Co354 O356 2.143 . S
Co354 O362 2.074 . S
Co354 O365 2.093 . S
Co354 O378 2.097 . S
Co354 N395 2.151 . S
Co354 N403 2.214 . S
Co355 O356 2.160 . S
Co355 O361 2.058 . S
Co355 O371 2.057 . S
Co355 O386 2.037 . S
Co355 N390 2.145 . S
Co355 N411 2.257 . S
O356 Co354 2.143 . S
O356 Co355 2.160 . S
C357 O358 1.278 . S
C357 O365 1.224 . S
O358 C357 1.278 . S
C359 O360 1.245 . S
C359 O371 1.232 . S
O360 C359 1.245 . S
O361 Co355 2.058 . S
O361 C387 1.269 . S
O362 Co354 2.074 . S
O362 C387 1.257 . S
H363 C388 0.930 . S
H364 C394 0.930 . S
O365 Co354 2.093 . S
O365 C357 1.224 . S
H366 C398 0.929 . S
H367 C400 0.930 . S
H368 C401 0.930 . S
H369 C399 0.929 . S
H370 C402 0.928 . S
O371 Co355 2.057 . S
O371 C359 1.232 . S
H372 C391 0.929 . S
H373 C392 0.929 . S
H374 C404 0.931 . S
H375 C396 0.929 . S
H376 C405 0.930 . S
H377 C397 0.931 . S
O378 Co354 2.097 . S
O378 C406 1.214 . S
H379 C407 0.929 . S
H380 C408 0.929 . S
H381 C409 0.930 . S
H382 C410 0.929 . S
H383 C412 0.930 . S
H384 C389 0.930 . S
H385 C393 0.930 . S
O386 Co355 2.037 . S
O386 C406 1.234 . S
C387 O361 1.269 . S
C387 O362 1.257 . S
C388 H363 0.930 . S
C388 C391 1.388 . S
C388 C393 1.418 . S
C389 H384 0.930 . S
C389 C392 1.404 . S
C389 C393 1.353 . S
N390 Co355 2.145 . S
N390 C391 1.397 . S
N390 C392 1.334 . S
C391 H372 0.929 . S
C391 C388 1.388 . S
C391 N390 1.397 . S
C392 H373 0.929 . S
C392 C389 1.404 . S
C392 N390 1.334 . S
C393 H385 0.930 . S
C393 C388 1.418 . S
C393 C389 1.353 . S
C394 H364 0.930 . S
C394 N395 1.330 . S
C394 C396 1.446 1_556 S
N395 Co354 2.151 . S
N395 C394 1.330 . S
N395 C399 1.418 . S
C396 H375 0.929 . S
C396 C394 1.446 1_554 S
C396 C397 1.332 . S
C397 H377 0.931 . S
C397 C396 1.332 . S
C397 C398 1.267 . S
C398 H366 0.929 . S
C398 C397 1.267 . S
C398 C399 1.251 1_554 S
C399 H369 0.929 . S
C399 N395 1.418 . S
C399 C398 1.251 1_556 S
C400 H367 0.930 . S
C400 C402 1.406 . S
C400 C405 1.261 . S
C401 H368 0.930 . S
C401 N403 1.325 . S
C401 C404 1.357 . S
C402 H370 0.928 . S
C402 C400 1.406 . S
C402 N403 1.261 . S
N403 Co354 2.214 . S
N403 C401 1.325 . S
N403 C402 1.261 . S
C404 H374 0.931 . S
C404 C401 1.357 . S
C404 C405 1.312 . S
C405 H376 0.930 . S
C405 C400 1.261 . S
C405 C404 1.312 . S
C406 O378 1.214 . S
C406 O386 1.234 . S
C407 H379 0.929 . S
C407 C410 1.391 . S
C407 C412 1.391 . S
C408 H380 0.929 . S
C408 C409 1.390 . S
C408 N411 1.391 . S
C409 H381 0.930 . S
C409 C408 1.390 . S
C409 C410 1.392 . S
C410 H382 0.929 . S
C410 C407 1.391 . S
C410 C409 1.392 . S
N411 Co355 2.257 . S
N411 C408 1.391 . S
N411 C412 1.388 . S
C412 H383 0.930 . S
C412 C407 1.391 . S
C412 N411 1.388 . S
Co413 O415 2.143 . S
Co413 O421 2.074 . S
Co413 O424 2.093 . S
Co413 O437 2.097 1_554 S
Co413 N454 2.151 . S
Co413 N462 2.214 . S
Co414 O415 2.160 . S
Co414 O420 2.058 . S
Co414 O430 2.057 . S
Co414 O445 2.037 . S
Co414 N449 2.145 . S
Co414 N470 2.257 1_554 S
O415 Co413 2.143 . S
O415 Co414 2.160 . S
C416 O417 1.281 . S
C416 O424 1.224 . S
O417 C416 1.281 . S
C418 O419 1.245 . S
C418 O430 1.232 . S
O419 C418 1.245 . S
O420 Co414 2.058 . S
O420 C446 1.269 . S
O421 Co413 2.074 . S
O421 C446 1.257 . S
H422 C447 0.930 . S
H423 C453 0.930 . S
O424 Co413 2.093 . S
O424 C416 1.224 . S
H425 C457 0.929 . S
H426 C459 0.930 . S
H427 C460 0.930 . S
H428 C458 0.929 . S
H429 C461 0.928 . S
O430 Co414 2.057 . S
O430 C418 1.232 . S
H431 C450 0.929 . S
H432 C451 0.929 . S
H433 C463 0.931 . S
H434 C455 0.929 . S
H435 C464 0.930 . S
H436 C456 0.931 . S
O437 Co413 2.097 1_556 S
O437 C465 1.214 . S
H438 C466 0.929 . S
H439 C467 0.929 . S
H440 C468 0.930 . S
H441 C469 0.929 . S
H442 C471 0.930 1_554 S
H443 C448 0.930 . S
H444 C452 0.930 . S
O445 Co414 2.037 . S
O445 C465 1.234 1_554 S
C446 O420 1.269 . S
C446 O421 1.257 . S
C447 H422 0.930 . S
C447 C450 1.388 . S
C447 C452 1.418 . S
C448 H443 0.930 . S
C448 C451 1.404 . S
C448 C452 1.353 . S
N449 Co414 2.145 . S
N449 C450 1.397 . S
N449 C451 1.334 . S
C450 H431 0.929 . S
C450 C447 1.388 . S
C450 N449 1.397 . S
C451 H432 0.929 . S
C451 C448 1.404 . S
C451 N449 1.334 . S
C452 H444 0.930 . S
C452 C447 1.418 . S
C452 C448 1.353 . S
C453 H423 0.930 . S
C453 N454 1.330 . S
C453 C455 1.446 . S
N454 Co413 2.151 . S
N454 C453 1.330 . S
N454 C458 1.418 . S
C455 H434 0.929 . S
C455 C453 1.446 . S
C455 C456 1.332 . S
C456 H436 0.931 . S
C456 C455 1.332 . S
C456 C457 1.267 . S
C457 H425 0.929 . S
C457 C456 1.267 . S
C457 C458 1.251 . S
C458 H428 0.929 . S
C458 N454 1.418 . S
C458 C457 1.251 . S
C459 H426 0.930 . S
C459 C461 1.406 . S
C459 C464 1.261 . S
C460 H427 0.930 . S
C460 N462 1.325 . S
C460 C463 1.357 . S
C461 H429 0.928 . S
C461 C459 1.406 . S
C461 N462 1.261 . S
N462 Co413 2.214 . S
N462 C460 1.325 . S
N462 C461 1.261 . S
C463 H433 0.931 . S
C463 C460 1.357 . S
C463 C464 1.312 . S
C464 H435 0.930 . S
C464 C459 1.261 . S
C464 C463 1.312 . S
C465 O437 1.214 . S
C465 O445 1.234 1_556 S
C466 H438 0.929 . S
C466 C469 1.391 . S
C466 C471 1.391 . S
C467 H439 0.929 . S
C467 C468 1.390 . S
C467 N470 1.391 . S
C468 H440 0.930 . S
C468 C467 1.390 . S
C468 C469 1.392 . S
C469 H441 0.929 . S
C469 C466 1.391 . S
C469 C468 1.392 . S
N470 Co414 2.257 1_556 S
N470 C467 1.391 . S
N470 C471 1.388 . S
C471 H442 0.930 1_556 S
C471 C466 1.391 . S
C471 N470 1.388 . S
Co472 O474 2.143 . S
Co472 O480 2.074 . S
Co472 O483 2.093 . S
Co472 O496 2.097 . S
Co472 N513 2.151 . S
Co472 N521 2.214 . S
Co473 O474 2.160 . S
Co473 O479 2.058 . S
Co473 O489 2.057 . S
Co473 O504 2.037 . S
Co473 N508 2.145 . S
Co473 N529 2.257 . S
O474 Co472 2.143 . S
O474 Co473 2.160 . S
C475 O476 1.278 . S
C475 O483 1.224 . S
O476 C475 1.278 . S
C477 O478 1.245 . S
C477 O489 1.232 . S
O478 C477 1.245 . S
O479 Co473 2.058 . S
O479 C505 1.269 . S
O480 Co472 2.074 . S
O480 C505 1.257 . S
H481 C506 0.930 . S
H482 C512 0.930 . S
O483 Co472 2.093 . S
O483 C475 1.224 . S
H484 C516 0.929 . S
H485 C518 0.930 . S
H486 C519 0.930 . S
H487 C517 0.929 . S
H488 C520 0.928 . S
O489 Co473 2.057 . S
O489 C477 1.232 . S
H490 C509 0.929 . S
H491 C510 0.929 . S
H492 C522 0.931 . S
H493 C514 0.929 . S
H494 C523 0.930 . S
H495 C515 0.931 . S
O496 Co472 2.097 . S
O496 C524 1.214 . S
H497 C525 0.929 . S
H498 C526 0.929 . S
H499 C527 0.930 . S
H500 C528 0.929 . S
H501 C530 0.930 . S
H502 C507 0.930 . S
H503 C511 0.930 . S
O504 Co473 2.037 . S
O504 C524 1.234 . S
C505 O479 1.269 . S
C505 O480 1.257 . S
C506 H481 0.930 . S
C506 C509 1.388 . S
C506 C511 1.418 . S
C507 H502 0.930 . S
C507 C510 1.404 . S
C507 C511 1.353 . S
N508 Co473 2.145 . S
N508 C509 1.397 . S
N508 C510 1.334 . S
C509 H490 0.929 . S
C509 C506 1.388 . S
C509 N508 1.397 . S
C510 H491 0.929 . S
C510 C507 1.404 . S
C510 N508 1.334 . S
C511 H503 0.930 . S
C511 C506 1.418 . S
C511 C507 1.353 . S
C512 H482 0.930 . S
C512 N513 1.330 . S
C512 C514 1.446 . S
N513 Co472 2.151 . S
N513 C512 1.330 . S
N513 C517 1.418 . S
C514 H493 0.929 . S
C514 C512 1.446 . S
C514 C515 1.332 . S
C515 H495 0.931 . S
C515 C514 1.332 . S
C515 C516 1.267 . S
C516 H484 0.929 . S
C516 C515 1.267 . S
C516 C517 1.251 . S
C517 H487 0.929 . S
C517 N513 1.418 . S
C517 C516 1.251 . S
C518 H485 0.930 . S
C518 C520 1.406 . S
C518 C523 1.261 . S
C519 H486 0.930 . S
C519 N521 1.325 . S
C519 C522 1.357 . S
C520 H488 0.928 . S
C520 C518 1.406 . S
C520 N521 1.261 . S
N521 Co472 2.214 . S
N521 C519 1.325 . S
N521 C520 1.261 . S
C522 H492 0.931 . S
C522 C519 1.357 . S
C522 C523 1.312 . S
C523 H494 0.930 . S
C523 C518 1.261 . S
C523 C522 1.312 . S
C524 O496 1.214 . S
C524 O504 1.234 . S
C525 H497 0.929 . S
C525 C528 1.391 . S
C525 C530 1.391 . S
C526 H498 0.929 . S
C526 C527 1.390 . S
C526 N529 1.391 . S
C527 H499 0.930 . S
C527 C526 1.390 . S
C527 C528 1.392 . S
C528 H500 0.929 . S
C528 C525 1.391 . S
C528 C527 1.392 . S
N529 Co473 2.257 . S
N529 C526 1.391 . S
N529 C530 1.388 . S
C530 H501 0.930 . S
C530 C525 1.391 . S
C530 N529 1.388 . S
Co531 O533 2.143 . S
Co531 O539 2.074 . S
Co531 O542 2.093 . S
Co531 O555 2.097 . S
Co531 N572 2.151 . S
Co531 N580 2.214 . S
Co532 O533 2.160 . S
Co532 O538 2.058 . S
Co532 O548 2.057 . S
Co532 O563 2.037 . S
Co532 N567 2.145 . S
Co532 N588 2.257 . S
O533 Co531 2.143 . S
O533 Co532 2.160 . S
C534 O535 1.278 . S
C534 O542 1.224 . S
O535 C534 1.278 . S
C536 O537 1.245 . S
C536 O548 1.232 . S
O537 C536 1.245 . S
O538 Co532 2.058 . S
O538 C564 1.269 . S
O539 Co531 2.074 . S
O539 C564 1.257 . S
H540 C565 0.930 . S
H541 C571 0.930 . S
O542 Co531 2.093 . S
O542 C534 1.224 . S
H543 C575 0.929 . S
H544 C577 0.930 . S
H545 C578 0.930 . S
H546 C576 0.929 . S
H547 C579 0.928 . S
O548 Co532 2.057 . S
O548 C536 1.232 . S
H549 C568 0.929 . S
H550 C569 0.929 . S
H551 C581 0.931 . S
H552 C573 0.929 . S
H553 C582 0.930 . S
H554 C574 0.931 . S
O555 Co531 2.097 . S
O555 C583 1.214 . S
H556 C584 0.929 . S
H557 C585 0.929 . S
H558 C586 0.930 . S
H559 C587 0.929 . S
H560 C589 0.930 . S
H561 C566 0.930 . S
H562 C570 0.930 . S
O563 Co532 2.037 . S
O563 C583 1.234 . S
C564 O538 1.269 . S
C564 O539 1.257 . S
C565 H540 0.930 . S
C565 C568 1.388 . S
C565 C570 1.418 . S
C566 H561 0.930 . S
C566 C569 1.404 . S
C566 C570 1.353 . S
N567 Co532 2.145 . S
N567 C568 1.397 . S
N567 C569 1.334 . S
C568 H549 0.929 . S
C568 C565 1.388 . S
C568 N567 1.397 . S
C569 H550 0.929 . S
C569 C566 1.404 . S
C569 N567 1.334 . S
C570 H562 0.930 . S
C570 C565 1.418 . S
C570 C566 1.353 . S
C571 H541 0.930 . S
C571 N572 1.330 . S
C571 C573 1.446 . S
N572 Co531 2.151 . S
N572 C571 1.330 . S
N572 C576 1.418 . S
C573 H552 0.929 . S
C573 C571 1.446 . S
C573 C574 1.332 . S
C574 H554 0.931 . S
C574 C573 1.332 . S
C574 C575 1.267 . S
C575 H543 0.929 . S
C575 C574 1.267 . S
C575 C576 1.251 . S
C576 H546 0.929 . S
C576 N572 1.418 . S
C576 C575 1.251 . S
C577 H544 0.930 . S
C577 C579 1.406 . S
C577 C582 1.261 . S
C578 H545 0.930 . S
C578 N580 1.325 . S
C578 C581 1.357 . S
C579 H547 0.928 . S
C579 C577 1.406 . S
C579 N580 1.261 . S
N580 Co531 2.214 . S
N580 C578 1.325 . S
N580 C579 1.261 . S
C581 H551 0.931 . S
C581 C578 1.357 . S
C581 C582 1.312 . S
C582 H553 0.930 . S
C582 C577 1.261 . S
C582 C581 1.312 . S
C583 O555 1.214 . S
C583 O563 1.234 . S
C584 H556 0.929 . S
C584 C587 1.391 . S
C584 C589 1.391 . S
C585 H557 0.929 . S
C585 C586 1.390 . S
C585 N588 1.391 . S
C586 H558 0.930 . S
C586 C585 1.390 . S
C586 C587 1.392 . S
C587 H559 0.929 . S
C587 C584 1.391 . S
C587 C586 1.392 . S
N588 Co532 2.257 . S
N588 C585 1.391 . S
N588 C589 1.388 . S
C589 H560 0.930 . S
C589 C584 1.391 . S
C589 N588 1.388 . S
Co590 O592 2.143 . S
Co590 O598 2.074 . S
Co590 O601 2.093 . S
Co590 O614 2.097 . S
Co590 N631 2.151 . S
Co590 N639 2.214 . S
Co591 O592 2.160 . S
Co591 O597 2.058 . S
Co591 O607 2.057 . S
Co591 O622 2.037 . S
Co591 N626 2.145 . S
Co591 N647 2.257 . S
O592 Co590 2.143 . S
O592 Co591 2.160 . S
C593 O594 1.278 . S
C593 O601 1.224 . S
O594 C593 1.278 . S
C595 O596 1.245 . S
C595 O607 1.232 . S
O596 C595 1.245 . S
O597 Co591 2.058 . S
O597 C623 1.269 . S
O598 Co590 2.074 . S
O598 C623 1.257 . S
H599 C624 0.930 . S
H600 C630 0.930 . S
O601 Co590 2.093 . S
O601 C593 1.224 . S
H602 C634 0.929 . S
H603 C636 0.930 . S
H604 C637 0.930 . S
H605 C635 0.929 . S
H606 C638 0.928 . S
O607 Co591 2.057 . S
O607 C595 1.232 . S
H608 C627 0.929 . S
H609 C628 0.929 . S
H610 C640 0.931 . S
H611 C632 0.929 . S
H612 C641 0.930 . S
H613 C633 0.931 . S
O614 Co590 2.097 . S
O614 C642 1.214 . S
H615 C643 0.929 . S
H616 C644 0.929 . S
H617 C645 0.930 . S
H618 C646 0.929 . S
H619 C648 0.930 . S
H620 C625 0.930 . S
H621 C629 0.930 . S
O622 Co591 2.037 . S
O622 C642 1.234 . S
C623 O597 1.269 . S
C623 O598 1.257 . S
C624 H599 0.930 . S
C624 C627 1.388 . S
C624 C629 1.418 . S
C625 H620 0.930 . S
C625 C628 1.404 . S
C625 C629 1.353 . S
N626 Co591 2.145 . S
N626 C627 1.397 . S
N626 C628 1.334 . S
C627 H608 0.929 . S
C627 C624 1.388 . S
C627 N626 1.397 . S
C628 H609 0.929 . S
C628 C625 1.404 . S
C628 N626 1.334 . S
C629 H621 0.930 . S
C629 C624 1.418 . S
C629 C625 1.353 . S
C630 H600 0.930 . S
C630 N631 1.330 . S
C630 C632 1.446 . S
N631 Co590 2.151 . S
N631 C630 1.330 . S
N631 C635 1.418 . S
C632 H611 0.929 . S
C632 C630 1.446 . S
C632 C633 1.332 . S
C633 H613 0.931 . S
C633 C632 1.332 . S
C633 C634 1.267 . S
C634 H602 0.929 . S
C634 C633 1.267 . S
C634 C635 1.251 . S
C635 H605 0.929 . S
C635 N631 1.418 . S
C635 C634 1.251 . S
C636 H603 0.930 . S
C636 C638 1.406 . S
C636 C641 1.261 . S
C637 H604 0.930 . S
C637 N639 1.325 . S
C637 C640 1.357 . S
C638 H606 0.928 . S
C638 C636 1.406 . S
C638 N639 1.261 . S
N639 Co590 2.214 . S
N639 C637 1.325 . S
N639 C638 1.261 . S
C640 H610 0.931 . S
C640 C637 1.357 . S
C640 C641 1.312 . S
C641 H612 0.930 . S
C641 C636 1.261 . S
C641 C640 1.312 . S
C642 O614 1.214 . S
C642 O622 1.234 . S
C643 H615 0.929 . S
C643 C646 1.391 . S
C643 C648 1.391 . S
C644 H616 0.929 . S
C644 C645 1.390 . S
C644 N647 1.391 . S
C645 H617 0.930 . S
C645 C644 1.390 . S
C645 C646 1.392 . S
C646 H618 0.929 . S
C646 C643 1.391 . S
C646 C645 1.392 . S
N647 Co591 2.257 . S
N647 C644 1.391 . S
N647 C648 1.388 . S
C648 H619 0.930 . S
C648 C643 1.391 . S
C648 N647 1.388 . S
Co649 O651 2.143 . S
Co649 O657 2.074 . S
Co649 O660 2.093 . S
Co649 O673 2.097 . S
Co649 N690 2.151 . S
Co649 N698 2.214 . S
Co650 O651 2.160 . S
Co650 O656 2.058 . S
Co650 O666 2.057 . S
Co650 O681 2.037 . S
Co650 N685 2.145 . S
Co650 N706 2.257 . S
O651 Co649 2.143 . S
O651 Co650 2.160 . S
C652 O653 1.278 . S
C652 O660 1.224 . S
O653 C652 1.278 . S
C654 O655 1.245 . S
C654 O666 1.232 . S
O655 C654 1.245 . S
O656 Co650 2.058 . S
O656 C682 1.269 . S
O657 Co649 2.074 . S
O657 C682 1.257 . S
H658 C683 0.930 . S
H659 C689 0.930 . S
O660 Co649 2.093 . S
O660 C652 1.224 . S
H661 C693 0.929 . S
H662 C695 0.930 . S
H663 C696 0.930 . S
H664 C694 0.929 . S
H665 C697 0.928 . S
O666 Co650 2.057 . S
O666 C654 1.232 . S
H667 C686 0.929 . S
H668 C687 0.929 . S
H669 C699 0.931 . S
H670 C691 0.929 . S
H671 C700 0.930 . S
H672 C692 0.931 . S
O673 Co649 2.097 . S
O673 C701 1.214 . S
H674 C702 0.929 . S
H675 C703 0.929 . S
H676 C704 0.930 . S
H677 C705 0.929 . S
H678 C707 0.930 . S
H679 C684 0.930 . S
H680 C688 0.930 . S
O681 Co650 2.037 . S
O681 C701 1.234 . S
C682 O656 1.269 . S
C682 O657 1.257 . S
C683 H658 0.930 . S
C683 C686 1.388 . S
C683 C688 1.418 . S
C684 H679 0.930 . S
C684 C687 1.404 . S
C684 C688 1.353 . S
N685 Co650 2.145 . S
N685 C686 1.397 . S
N685 C687 1.334 . S
C686 H667 0.929 . S
C686 C683 1.388 . S
C686 N685 1.397 . S
C687 H668 0.929 . S
C687 C684 1.404 . S
C687 N685 1.334 . S
C688 H680 0.930 . S
C688 C683 1.418 . S
C688 C684 1.353 . S
C689 H659 0.930 . S
C689 N690 1.330 . S
C689 C691 1.446 . S
N690 Co649 2.151 . S
N690 C689 1.330 . S
N690 C694 1.418 . S
C691 H670 0.929 . S
C691 C689 1.446 . S
C691 C692 1.332 . S
C692 H672 0.931 . S
C692 C691 1.332 . S
C692 C693 1.267 . S
C693 H661 0.929 . S
C693 C692 1.267 . S
C693 C694 1.251 . S
C694 H664 0.929 . S
C694 N690 1.418 . S
C694 C693 1.251 . S
C695 H662 0.930 . S
C695 C697 1.406 . S
C695 C700 1.261 . S
C696 H663 0.930 . S
C696 N698 1.325 . S
C696 C699 1.357 . S
C697 H665 0.928 . S
C697 C695 1.406 . S
C697 N698 1.261 . S
N698 Co649 2.214 . S
N698 C696 1.325 . S
N698 C697 1.261 . S
C699 H669 0.931 . S
C699 C696 1.357 . S
C699 C700 1.312 . S
C700 H671 0.930 . S
C700 C695 1.261 . S
C700 C699 1.312 . S
C701 O673 1.214 . S
C701 O681 1.234 . S
C702 H674 0.929 . S
C702 C705 1.391 . S
C702 C707 1.391 . S
C703 H675 0.929 . S
C703 C704 1.390 . S
C703 N706 1.391 . S
C704 H676 0.930 . S
C704 C703 1.390 . S
C704 C705 1.392 . S
C705 H677 0.929 . S
C705 C702 1.391 . S
C705 C704 1.392 . S
N706 Co650 2.257 . S
N706 C703 1.391 . S
N706 C707 1.388 . S
C707 H678 0.930 . S
C707 C702 1.391 . S
C707 N706 1.388 . S
C708 C709 1.349 . S
C708 C710 1.327 . S
C708 H733 0.950 . S
C709 C708 1.349 . S
C709 C725 1.349 . S
C710 C708 1.327 . S
C710 C729 1.429 . S
C710 H734 0.950 . S
C711 C728 1.574 . S
C711 C730 1.368 . S
C711 H735 0.949 . S
H712 C716 0.949 . S
C713 C714 1.349 . S
C713 C715 1.327 . S
C713 H736 0.950 . S
C714 C713 1.349 . S
C714 C726 1.349 . S
C715 C713 1.327 . S
C715 C731 1.429 . S
C715 H737 0.950 . S
C716 H712 0.949 . S
C716 C724 1.574 . S
C716 C732 1.368 . S
H717 C725 0.950 . S
H718 C723 0.950 . S
H719 C724 0.949 . S
H720 C726 0.950 . S
H721 C727 0.950 . S
H722 C728 0.949 . S
C723 H718 0.950 . S
C723 C725 1.327 . S
C723 C729 1.429 . S
C724 C716 1.574 . S
C724 H719 0.949 . S
C724 C730 1.368 . S
C725 C709 1.349 . S
C725 H717 0.950 . S
C725 C723 1.327 . S
C726 C714 1.349 . S
C726 H720 0.950 . S
C726 C727 1.327 . S
C727 H721 0.950 . S
C727 C726 1.327 . S
C727 C731 1.429 . S
C728 C711 1.574 . S
C728 H722 0.949 . S
C728 C732 1.368 . S
C729 C710 1.429 . S
C729 C723 1.429 . S
C729 C730 1.523 . S
C730 C711 1.368 . S
C730 C724 1.368 . S
C730 C729 1.523 . S
C731 C715 1.429 . S
C731 C727 1.429 . S
C731 C732 1.523 . S
C732 C716 1.368 . S
C732 C728 1.368 . S
C732 C731 1.523 . S
H733 C708 0.950 . S
H734 C710 0.950 . S
H735 C711 0.949 . S
H736 C713 0.950 . S
H737 C715 0.950 . S
C738 C739 1.349 . S
C738 C740 1.327 . S
C738 H763 0.950 . S
C739 C738 1.349 . S
C739 C755 1.349 . S
C740 C738 1.327 . S
C740 C759 1.429 . S
C740 H764 0.950 . S
C741 C758 1.574 . S
C741 C760 1.368 . S
C741 H765 0.949 . S
H742 C746 0.949 . S
C743 C744 1.349 . S
C743 C745 1.327 . S
C743 H766 0.950 . S
C744 C743 1.349 . S
C744 C756 1.349 . S
C745 C743 1.327 . S
C745 C761 1.429 . S
C745 H767 0.950 . S
C746 H742 0.949 . S
C746 C754 1.574 . S
C746 C762 1.368 . S
H747 C755 0.950 . S
H748 C753 0.950 . S
H749 C754 0.949 . S
H750 C756 0.950 . S
H751 C757 0.950 . S
H752 C758 0.949 . S
C753 H748 0.950 . S
C753 C755 1.327 . S
C753 C759 1.429 . S
C754 C746 1.574 . S
C754 H749 0.949 . S
C754 C760 1.368 . S
C755 C739 1.349 . S
C755 H747 0.950 . S
C755 C753 1.327 . S
C756 C744 1.349 . S
C756 H750 0.950 . S
C756 C757 1.327 . S
C757 H751 0.950 . S
C757 C756 1.327 . S
C757 C761 1.429 . S
C758 C741 1.574 . S
C758 H752 0.949 . S
C758 C762 1.368 . S
C759 C740 1.429 . S
C759 C753 1.429 . S
C759 C760 1.523 . S
C760 C741 1.368 . S
C760 C754 1.368 . S
C760 C759 1.523 . S
C761 C745 1.429 . S
C761 C757 1.429 . S
C761 C762 1.523 . S
C762 C746 1.368 . S
C762 C758 1.368 . S
C762 C761 1.523 . S
H763 C738 0.950 . S
H764 C740 0.950 . S
H765 C741 0.949 . S
H766 C743 0.950 . S
H767 C745 0.950 . S
C768 C769 1.349 . S
C768 C770 1.327 . S
C768 H793 0.950 . S
C769 C768 1.349 . S
C769 C785 1.349 . S
C770 C768 1.327 . S
C770 C789 1.429 . S
C770 H794 0.950 . S
C771 C788 1.574 . S
C771 C790 1.368 . S
C771 H795 0.949 . S
H772 C776 0.949 . S
C773 C774 1.349 . S
C773 C775 1.327 . S
C773 H796 0.950 . S
C774 C773 1.349 . S
C774 C786 1.349 . S
C775 C773 1.327 . S
C775 C791 1.429 . S
C775 H797 0.950 . S
C776 H772 0.949 . S
C776 C784 1.574 . S
C776 C792 1.368 . S
H777 C785 0.950 . S
H778 C783 0.950 . S
H779 C784 0.949 . S
H780 C786 0.950 . S
H781 C787 0.950 . S
H782 C788 0.949 . S
C783 H778 0.950 . S
C783 C785 1.327 . S
C783 C789 1.429 . S
C784 C776 1.574 . S
C784 H779 0.949 . S
C784 C790 1.368 . S
C785 C769 1.349 . S
C785 H777 0.950 . S
C785 C783 1.327 . S
C786 C774 1.349 . S
C786 H780 0.950 . S
C786 C787 1.327 . S
C787 H781 0.950 . S
C787 C786 1.327 . S
C787 C791 1.429 . S
C788 C771 1.574 . S
C788 H782 0.949 . S
C788 C792 1.368 . S
C789 C770 1.429 . S
C789 C783 1.429 . S
C789 C790 1.523 . S
C790 C771 1.368 . S
C790 C784 1.368 . S
C790 C789 1.523 . S
C791 C775 1.429 . S
C791 C787 1.429 . S
C791 C792 1.523 . S
C792 C776 1.368 . S
C792 C788 1.368 . S
C792 C791 1.523 . S
H793 C768 0.950 . S
H794 C770 0.950 . S
H795 C771 0.949 . S
H796 C773 0.950 . S
H797 C775 0.950 . S
C798 C799 1.349 . S
C798 C800 1.327 . S
C798 H823 0.950 . S
C799 C798 1.349 . S
C799 C815 1.349 . S
C800 C798 1.327 . S
C800 C819 1.429 . S
C800 H824 0.950 . S
C801 C818 1.574 . S
C801 C820 1.368 . S
C801 H825 0.949 . S
H802 C806 0.949 . S
C803 C804 1.349 . S
C803 C805 1.327 . S
C803 H826 0.950 . S
C804 C803 1.349 . S
C804 C816 1.349 . S
C805 C803 1.327 . S
C805 C821 1.429 . S
C805 H827 0.950 . S
C806 H802 0.949 . S
C806 C814 1.574 . S
C806 C822 1.368 . S
H807 C815 0.950 . S
H808 C813 0.950 . S
H809 C814 0.949 . S
H810 C816 0.950 . S
H811 C817 0.950 . S
H812 C818 0.949 . S
C813 H808 0.950 . S
C813 C815 1.327 . S
C813 C819 1.429 . S
C814 C806 1.574 . S
C814 H809 0.949 . S
C814 C820 1.368 . S
C815 C799 1.349 . S
C815 H807 0.950 . S
C815 C813 1.327 . S
C816 C804 1.349 . S
C816 H810 0.950 . S
C816 C817 1.327 . S
C817 H811 0.950 . S
C817 C816 1.327 . S
C817 C821 1.429 . S
C818 C801 1.574 . S
C818 H812 0.949 . S
C818 C822 1.368 . S
C819 C800 1.429 . S
C819 C813 1.429 . S
C819 C820 1.523 . S
C820 C801 1.368 . S
C820 C814 1.368 . S
C820 C819 1.523 . S
C821 C805 1.429 . S
C821 C817 1.429 . S
C821 C822 1.523 . S
C822 C806 1.368 . S
C822 C818 1.368 . S
C822 C821 1.523 . S
H823 C798 0.950 . S
H824 C800 0.950 . S
H825 C801 0.949 . S
H826 C803 0.950 . S
H827 C805 0.950 . S
C828 C829 1.349 . S
C828 C830 1.327 . S
C828 H853 0.950 . S
C829 C828 1.349 . S
C829 C845 1.349 . S
C830 C828 1.327 . S
C830 C849 1.429 . S
C830 H854 0.950 . S
C831 C848 1.574 . S
C831 C850 1.368 . S
C831 H855 0.949 . S
H832 C836 0.949 . S
C833 C834 1.349 . S
C833 C835 1.327 . S
C833 H856 0.950 . S
C834 C833 1.349 . S
C834 C846 1.349 . S
C835 C833 1.327 . S
C835 C851 1.429 . S
C835 H857 0.950 . S
C836 H832 0.949 . S
C836 C844 1.574 1_554 S
C836 C852 1.368 . S
H837 C845 0.950 . S
H838 C843 0.950 . S
H839 C844 0.949 . S
H840 C846 0.950 . S
H841 C847 0.950 . S
H842 C848 0.949 . S
C843 H838 0.950 . S
C843 C845 1.327 . S
C843 C849 1.429 . S
C844 C836 1.574 1_556 S
C844 H839 0.949 . S
C844 C850 1.368 . S
C845 C829 1.349 . S
C845 H837 0.950 . S
C845 C843 1.327 . S
C846 C834 1.349 . S
C846 H840 0.950 . S
C846 C847 1.327 . S
C847 H841 0.950 . S
C847 C846 1.327 . S
C847 C851 1.429 . S
C848 C831 1.574 . S
C848 H842 0.949 . S
C848 C852 1.368 1_556 S
C849 C830 1.429 . S
C849 C843 1.429 . S
C849 C850 1.523 . S
C850 C831 1.368 . S
C850 C844 1.368 . S
C850 C849 1.523 . S
C851 C835 1.429 . S
C851 C847 1.429 . S
C851 C852 1.523 . S
C852 C836 1.368 . S
C852 C848 1.368 1_554 S
C852 C851 1.523 . S
H853 C828 0.950 . S
H854 C830 0.950 . S
H855 C831 0.949 . S
H856 C833 0.950 . S
H857 C835 0.950 . S
C858 C859 1.349 . S
C858 C860 1.327 . S
C858 H883 0.950 . S
C859 C858 1.349 . S
C859 C875 1.349 . S
C860 C858 1.327 . S
C860 C879 1.429 . S
C860 H884 0.950 . S
C861 C878 1.574 . S
C861 C880 1.368 . S
C861 H885 0.949 . S
H862 C866 0.949 . S
C863 C864 1.349 1_554 S
C863 C865 1.327 . S
C863 H886 0.950 . S
C864 C863 1.349 1_556 S
C864 C876 1.349 . S
C865 C863 1.327 . S
C865 C881 1.429 . S
C865 H887 0.950 . S
C866 H862 0.949 . S
C866 C874 1.574 . S
C866 C882 1.368 . S
H867 C875 0.950 . S
H868 C873 0.950 . S
H869 C874 0.949 . S
H870 C876 0.950 . S
H871 C877 0.950 . S
H872 C878 0.949 . S
C873 H868 0.950 . S
C873 C875 1.327 . S
C873 C879 1.429 . S
C874 C866 1.574 . S
C874 H869 0.949 . S
C874 C880 1.368 . S
C875 C859 1.349 . S
C875 H867 0.950 . S
C875 C873 1.327 . S
C876 C864 1.349 . S
C876 H870 0.950 . S
C876 C877 1.327 1_556 S
C877 H871 0.950 . S
C877 C876 1.327 1_554 S
C877 C881 1.429 . S
C878 C861 1.574 . S
C878 H872 0.949 . S
C878 C882 1.368 . S
C879 C860 1.429 . S
C879 C873 1.429 . S
C879 C880 1.523 . S
C880 C861 1.368 . S
C880 C874 1.368 . S
C880 C879 1.523 . S
C881 C865 1.429 . S
C881 C877 1.429 . S
C881 C882 1.523 . S
C882 C866 1.368 . S
C882 C878 1.368 . S
C882 C881 1.523 . S
H883 C858 0.950 . S
H884 C860 0.950 . S
H885 C861 0.949 . S
H886 C863 0.950 . S
H887 C865 0.950 . S
C888 C889 1.349 . S
C888 C890 1.327 . S
C888 H913 0.950 . S
C889 C888 1.349 . S
C889 C905 1.349 . S
C890 C888 1.327 . S
C890 C909 1.429 . S
C890 H914 0.950 . S
C891 C908 1.574 . S
C891 C910 1.368 . S
C891 H915 0.949 . S
H892 C896 0.949 . S
C893 C894 1.349 . S
C893 C895 1.327 . S
C893 H916 0.950 . S
C894 C893 1.349 . S
C894 C906 1.349 . S
C895 C893 1.327 . S
C895 C911 1.429 . S
C895 H917 0.950 . S
C896 H892 0.949 . S
C896 C904 1.574 . S
C896 C912 1.368 . S
H897 C905 0.950 . S
H898 C903 0.950 . S
H899 C904 0.949 . S
H900 C906 0.950 . S
H901 C907 0.950 . S
H902 C908 0.949 . S
C903 H898 0.950 . S
C903 C905 1.327 . S
C903 C909 1.429 . S
C904 C896 1.574 . S
C904 H899 0.949 . S
C904 C910 1.368 . S
C905 C889 1.349 . S
C905 H897 0.950 . S
C905 C903 1.327 . S
C906 C894 1.349 . S
C906 H900 0.950 . S
C906 C907 1.327 . S
C907 H901 0.950 . S
C907 C906 1.327 . S
C907 C911 1.429 . S
C908 C891 1.574 . S
C908 H902 0.949 . S
C908 C912 1.368 . S
C909 C890 1.429 . S
C909 C903 1.429 . S
C909 C910 1.523 . S
C910 C891 1.368 . S
C910 C904 1.368 . S
C910 C909 1.523 . S
C911 C895 1.429 . S
C911 C907 1.429 . S
C911 C912 1.523 . S
C912 C896 1.368 . S
C912 C908 1.368 . S
C912 C911 1.523 . S
H913 C888 0.950 . S
H914 C890 0.950 . S
H915 C891 0.949 . S
H916 C893 0.950 . S
H917 C895 0.950 . S
C918 C919 1.349 . S
C918 C920 1.327 . S
C918 H943 0.950 . S
C919 C918 1.349 . S
C919 C935 1.349 . S
C920 C918 1.327 . S
C920 C939 1.429 . S
C920 H944 0.950 . S
C921 C938 1.574 . S
C921 C940 1.368 . S
C921 H945 0.949 . S
H922 C926 0.949 . S
C923 C924 1.349 . S
C923 C925 1.327 . S
C923 H946 0.950 . S
C924 C923 1.349 . S
C924 C936 1.349 . S
C925 C923 1.327 . S
C925 C941 1.429 . S
C925 H947 0.950 . S
C926 H922 0.949 . S
C926 C934 1.574 . S
C926 C942 1.368 . S
H927 C935 0.950 . S
H928 C933 0.950 . S
H929 C934 0.949 . S
H930 C936 0.950 . S
H931 C937 0.950 . S
H932 C938 0.949 . S
C933 H928 0.950 . S
C933 C935 1.327 . S
C933 C939 1.429 . S
C934 C926 1.574 . S
C934 H929 0.949 . S
C934 C940 1.368 . S
C935 C919 1.349 . S
C935 H927 0.950 . S
C935 C933 1.327 . S
C936 C924 1.349 . S
C936 H930 0.950 . S
C936 C937 1.327 . S
C937 H931 0.950 . S
C937 C936 1.327 . S
C937 C941 1.429 . S
C938 C921 1.574 . S
C938 H932 0.949 . S
C938 C942 1.368 . S
C939 C920 1.429 . S
C939 C933 1.429 . S
C939 C940 1.523 . S
C940 C921 1.368 . S
C940 C934 1.368 . S
C940 C939 1.523 . S
C941 C925 1.429 . S
C941 C937 1.429 . S
C941 C942 1.523 . S
C942 C926 1.368 . S
C942 C938 1.368 . S
C942 C941 1.523 . S
H943 C918 0.950 . S
H944 C920 0.950 . S
H945 C921 0.949 . S
H946 C923 0.950 . S
H947 C925 0.950 . S
C948 C949 1.349 . S
C948 C950 1.327 . S
C948 H973 0.950 . S
C949 C948 1.349 . S
C949 C965 1.349 . S
C950 C948 1.327 . S
C950 C969 1.429 . S
C950 H974 0.950 . S
C951 C968 1.574 . S
C951 C970 1.368 . S
C951 H975 0.949 . S
H952 C956 0.949 . S
C953 C954 1.349 . S
C953 C955 1.327 . S
C953 H976 0.950 . S
C954 C953 1.349 . S
C954 C966 1.349 . S
C955 C953 1.327 . S
C955 C971 1.429 . S
C955 H977 0.950 . S
C956 H952 0.949 . S
C956 C964 1.574 . S
C956 C972 1.368 . S
H957 C965 0.950 . S
H958 C963 0.950 . S
H959 C964 0.949 . S
H960 C966 0.950 . S
H961 C967 0.950 . S
H962 C968 0.949 . S
C963 H958 0.950 . S
C963 C965 1.327 . S
C963 C969 1.429 . S
C964 C956 1.574 . S
C964 H959 0.949 . S
C964 C970 1.368 . S
C965 C949 1.349 . S
C965 H957 0.950 . S
C965 C963 1.327 . S
C966 C954 1.349 . S
C966 H960 0.950 . S
C966 C967 1.327 . S
C967 H961 0.950 . S
C967 C966 1.327 . S
C967 C971 1.429 . S
C968 C951 1.574 . S
C968 H962 0.949 . S
C968 C972 1.368 . S
C969 C950 1.429 . S
C969 C963 1.429 . S
C969 C970 1.523 . S
C970 C951 1.368 . S
C970 C964 1.368 . S
C970 C969 1.523 . S
C971 C955 1.429 . S
C971 C967 1.429 . S
C971 C972 1.523 . S
C972 C956 1.368 . S
C972 C968 1.368 . S
C972 C971 1.523 . S
H973 C948 0.950 . S
H974 C950 0.950 . S
H975 C951 0.949 . S
H976 C953 0.950 . S
H977 C955 0.950 . S
C978 C979 1.349 . S
C978 C980 1.327 . S
C978 H1003 0.950 . S
C979 C978 1.349 . S
C979 C995 1.349 . S
C980 C978 1.327 . S
C980 C999 1.429 . S
C980 H1004 0.950 . S
C981 C998 1.574 . S
C981 C1000 1.368 . S
C981 H1005 0.949 . S
H982 C986 0.949 . S
C983 C984 1.349 . S
C983 C985 1.327 . S
C983 H1006 0.950 . S
C984 C983 1.349 . S
C984 C996 1.349 . S
C985 C983 1.327 . S
C985 C1001 1.429 . S
C985 H1007 0.950 . S
C986 H982 0.949 . S
C986 C994 1.574 . S
C986 C1002 1.368 . S
H987 C995 0.950 . S
H988 C993 0.950 . S
H989 C994 0.949 . S
H990 C996 0.950 . S
H991 C997 0.950 . S
H992 C998 0.949 . S
C993 H988 0.950 . S
C993 C995 1.327 . S
C993 C999 1.429 . S
C994 C986 1.574 . S
C994 H989 0.949 . S
C994 C1000 1.368 . S
C995 C979 1.349 . S
C995 H987 0.950 . S
C995 C993 1.327 . S
C996 C984 1.349 . S
C996 H990 0.950 . S
C996 C997 1.327 . S
C997 H991 0.950 . S
C997 C996 1.327 . S
C997 C1001 1.429 . S
C998 C981 1.574 . S
C998 H992 0.949 . S
C998 C1002 1.368 . S
C999 C980 1.429 . S
C999 C993 1.429 . S
C999 C1000 1.523 . S
C1000 C981 1.368 . S
C1000 C994 1.368 . S
C1000 C999 1.523 . S
C1001 C985 1.429 . S
C1001 C997 1.429 . S
C1001 C1002 1.523 . S
C1002 C986 1.368 . S
C1002 C998 1.368 . S
C1002 C1001 1.523 . S
H1003 C978 0.950 . S
H1004 C980 0.950 . S
H1005 C981 0.949 . S
H1006 C983 0.950 . S
H1007 C985 0.950 . S
C1008 C1009 1.349 . S
C1008 C1010 1.327 . S
C1008 H1033 0.950 . S
C1009 C1008 1.349 . S
C1009 C1025 1.349 . S
C1010 C1008 1.327 . S
C1010 C1029 1.429 . S
C1010 H1034 0.950 . S
C1011 C1028 1.574 . S
C1011 C1030 1.368 . S
C1011 H1035 0.949 . S
H1012 C1016 0.949 . S
C1013 C1014 1.349 . S
C1013 C1015 1.327 . S
C1013 H1036 0.950 . S
C1014 C1013 1.349 . S
C1014 C1026 1.349 . S
C1015 C1013 1.327 . S
C1015 C1031 1.429 . S
C1015 H1037 0.950 . S
C1016 H1012 0.949 . S
C1016 C1024 1.574 . S
C1016 C1032 1.368 . S
H1017 C1025 0.950 . S
H1018 C1023 0.950 . S
H1019 C1024 0.949 . S
H1020 C1026 0.950 . S
H1021 C1027 0.950 . S
H1022 C1028 0.949 . S
C1023 H1018 0.950 . S
C1023 C1025 1.327 . S
C1023 C1029 1.429 . S
C1024 C1016 1.574 . S
C1024 H1019 0.949 . S
C1024 C1030 1.368 . S
C1025 C1009 1.349 . S
C1025 H1017 0.950 . S
C1025 C1023 1.327 . S
C1026 C1014 1.349 . S
C1026 H1020 0.950 . S
C1026 C1027 1.327 . S
C1027 H1021 0.950 . S
C1027 C1026 1.327 . S
C1027 C1031 1.429 . S
C1028 C1011 1.574 . S
C1028 H1022 0.949 . S
C1028 C1032 1.368 . S
C1029 C1010 1.429 . S
C1029 C1023 1.429 . S
C1029 C1030 1.523 . S
C1030 C1011 1.368 . S
C1030 C1024 1.368 . S
C1030 C1029 1.523 . S
C1031 C1015 1.429 . S
C1031 C1027 1.429 . S
C1031 C1032 1.523 . S
C1032 C1016 1.368 . S
C1032 C1028 1.368 . S
C1032 C1031 1.523 . S
H1033 C1008 0.950 . S
H1034 C1010 0.950 . S
H1035 C1011 0.949 . S
H1036 C1013 0.950 . S
H1037 C1015 0.950 . S
C1038 C1039 1.349 . S
C1038 C1040 1.327 . S
C1038 H1063 0.950 . S
C1039 C1038 1.349 . S
C1039 C1055 1.349 . S
C1040 C1038 1.327 . S
C1040 C1059 1.429 . S
C1040 H1064 0.950 . S
C1041 C1058 1.574 . S
C1041 C1060 1.368 . S
C1041 H1065 0.949 . S
H1042 C1046 0.949 . S
C1043 C1044 1.349 1_554 S
C1043 C1045 1.327 1_554 S
C1043 H1066 0.950 . S
C1044 C1043 1.349 1_556 S
C1044 C1056 1.349 . S
C1045 C1043 1.327 1_556 S
C1045 C1061 1.429 . S
C1045 H1067 0.949 1_556 S
C1046 H1042 0.949 . S
C1046 C1054 1.574 . S
C1046 C1062 1.368 . S
H1047 C1055 0.950 . S
H1048 C1053 0.950 . S
H1049 C1054 0.949 . S
H1050 C1056 0.950 . S
H1051 C1057 0.950 . S
H1052 C1058 0.949 . S
C1053 H1048 0.950 . S
C1053 C1055 1.327 . S
C1053 C1059 1.429 . S
C1054 C1046 1.574 . S
C1054 H1049 0.949 . S
C1054 C1060 1.368 . S
C1055 C1039 1.349 . S
C1055 H1047 0.950 . S
C1055 C1053 1.327 . S
C1056 C1044 1.349 . S
C1056 H1050 0.950 . S
C1056 C1057 1.327 . S
C1057 H1051 0.950 . S
C1057 C1056 1.327 . S
C1057 C1061 1.429 . S
C1058 C1041 1.574 . S
C1058 H1052 0.949 . S
C1058 C1062 1.368 . S
C1059 C1040 1.429 . S
C1059 C1053 1.429 . S
C1059 C1060 1.523 . S
C1060 C1041 1.368 . S
C1060 C1054 1.368 . S
C1060 C1059 1.523 . S
C1061 C1045 1.429 . S
C1061 C1057 1.429 . S
C1061 C1062 1.523 . S
C1062 C1046 1.368 . S
C1062 C1058 1.368 . S
C1062 C1061 1.523 . S
H1063 C1038 0.950 . S
H1064 C1040 0.950 . S
H1065 C1041 0.949 . S
H1066 C1043 0.950 . S
H1067 C1045 0.949 1_554 S
C1068 C1069 1.349 . S
C1068 C1070 1.327 . S
C1068 H1093 0.950 . S
C1069 C1068 1.349 . S
C1069 C1085 1.349 . S
C1070 C1068 1.327 . S
C1070 C1089 1.429 . S
C1070 H1094 0.950 . S
C1071 C1088 1.574 . S
C1071 C1090 1.368 . S
C1071 H1095 0.949 . S
H1072 C1076 0.949 . S
C1073 C1074 1.349 . S
C1073 C1075 1.327 . S
C1073 H1096 0.950 . S
C1074 C1073 1.349 . S
C1074 C1086 1.349 . S
C1075 C1073 1.327 . S
C1075 C1091 1.429 . S
C1075 H1097 0.950 . S
C1076 H1072 0.949 . S
C1076 C1084 1.574 . S
C1076 C1092 1.368 . S
H1077 C1085 0.950 . S
H1078 C1083 0.950 . S
H1079 C1084 0.949 . S
H1080 C1086 0.950 . S
H1081 C1087 0.950 . S
H1082 C1088 0.949 . S
C1083 H1078 0.950 . S
C1083 C1085 1.327 . S
C1083 C1089 1.429 . S
C1084 C1076 1.574 . S
C1084 H1079 0.949 . S
C1084 C1090 1.368 . S
C1085 C1069 1.349 . S
C1085 H1077 0.950 . S
C1085 C1083 1.327 . S
C1086 C1074 1.349 . S
C1086 H1080 0.950 . S
C1086 C1087 1.327 . S
C1087 H1081 0.950 . S
C1087 C1086 1.327 . S
C1087 C1091 1.429 . S
C1088 C1071 1.574 . S
C1088 H1082 0.949 . S
C1088 C1092 1.368 . S
C1089 C1070 1.429 . S
C1089 C1083 1.429 . S
C1089 C1090 1.523 . S
C1090 C1071 1.368 . S
C1090 C1084 1.368 . S
C1090 C1089 1.523 . S
C1091 C1075 1.429 . S
C1091 C1087 1.429 . S
C1091 C1092 1.523 . S
C1092 C1076 1.368 . S
C1092 C1088 1.368 . S
C1092 C1091 1.523 . S
H1093 C1068 0.950 . S
H1094 C1070 0.950 . S
H1095 C1071 0.949 . S
H1096 C1073 0.950 . S
H1097 C1075 0.950 . S
C1098 C1099 1.349 . S
C1098 C1100 1.327 . S
C1098 H1123 0.950 . S
C1099 C1098 1.349 . S
C1099 C1115 1.349 . S
C1100 C1098 1.327 . S
C1100 C1119 1.429 . S
C1100 H1124 0.950 . S
C1101 C1118 1.574 1_554 S
C1101 C1120 1.368 . S
C1101 H1125 0.949 . S
H1102 C1106 0.949 . S
C1103 C1104 1.349 . S
C1103 C1105 1.327 . S
C1103 H1126 0.950 . S
C1104 C1103 1.349 . S
C1104 C1116 1.349 . S
C1105 C1103 1.327 . S
C1105 C1121 1.429 . S
C1105 H1127 0.950 . S
C1106 H1102 0.949 . S
C1106 C1114 1.574 . S
C1106 C1122 1.368 . S
H1107 C1115 0.950 . S
H1108 C1113 0.950 . S
H1109 C1114 0.949 . S
H1110 C1116 0.950 . S
H1111 C1117 0.950 . S
H1112 C1118 0.949 . S
C1113 H1108 0.950 . S
C1113 C1115 1.327 . S
C1113 C1119 1.429 . S
C1114 C1106 1.574 . S
C1114 H1109 0.949 . S
C1114 C1120 1.368 1_556 S
C1115 C1099 1.349 . S
C1115 H1107 0.950 . S
C1115 C1113 1.327 . S
C1116 C1104 1.349 . S
C1116 H1110 0.950 . S
C1116 C1117 1.327 . S
C1117 H1111 0.950 . S
C1117 C1116 1.327 . S
C1117 C1121 1.429 . S
C1118 C1101 1.574 1_556 S
C1118 H1112 0.949 . S
C1118 C1122 1.368 . S
C1119 C1100 1.429 . S
C1119 C1113 1.429 . S
C1119 C1120 1.523 . S
C1120 C1101 1.368 . S
C1120 C1114 1.368 1_554 S
C1120 C1119 1.523 . S
C1121 C1105 1.429 . S
C1121 C1117 1.429 . S
C1121 C1122 1.523 . S
C1122 C1106 1.368 . S
C1122 C1118 1.368 . S
C1122 C1121 1.523 . S
H1123 C1098 0.950 . S
H1124 C1100 0.950 . S
H1125 C1101 0.949 . S
H1126 C1103 0.950 . S
H1127 C1105 0.950 . S
C1128 C1129 1.349 . S
C1128 C1130 1.327 . S
C1128 H1153 0.950 . S
C1129 C1128 1.349 . S
C1129 C1145 1.349 . S
C1130 C1128 1.327 . S
C1130 C1149 1.429 . S
C1130 H1154 0.950 . S
C1131 C1148 1.574 . S
C1131 C1150 1.368 . S
C1131 H1155 0.949 . S
H1132 C1136 0.949 . S
C1133 C1134 1.349 1_554 S
C1133 C1135 1.327 . S
C1133 H1156 0.950 . S
C1134 C1133 1.349 1_556 S
C1134 C1146 1.349 . S
C1135 C1133 1.327 . S
C1135 C1151 1.429 . S
C1135 H1157 0.950 . S
C1136 H1132 0.949 . S
C1136 C1144 1.574 . S
C1136 C1152 1.368 . S
H1137 C1145 0.950 . S
H1138 C1143 0.950 . S
H1139 C1144 0.949 . S
H1140 C1146 0.950 . S
H1141 C1147 0.950 . S
H1142 C1148 0.949 . S
C1143 H1138 0.950 . S
C1143 C1145 1.327 . S
C1143 C1149 1.429 . S
C1144 C1136 1.574 . S
C1144 H1139 0.949 . S
C1144 C1150 1.368 . S
C1145 C1129 1.349 . S
C1145 H1137 0.950 . S
C1145 C1143 1.327 . S
C1146 C1134 1.349 . S
C1146 H1140 0.950 . S
C1146 C1147 1.327 1_556 S
C1147 H1141 0.950 . S
C1147 C1146 1.327 1_554 S
C1147 C1151 1.429 . S
C1148 C1131 1.574 . S
C1148 H1142 0.949 . S
C1148 C1152 1.368 . S
C1149 C1130 1.429 . S
C1149 C1143 1.429 . S
C1149 C1150 1.523 . S
C1150 C1131 1.368 . S
C1150 C1144 1.368 . S
C1150 C1149 1.523 . S
C1151 C1135 1.429 . S
C1151 C1147 1.429 . S
C1151 C1152 1.523 . S
C1152 C1136 1.368 . S
C1152 C1148 1.368 . S
C1152 C1151 1.523 . S
H1153 C1128 0.950 . S
H1154 C1130 0.950 . S
H1155 C1131 0.949 . S
H1156 C1133 0.950 . S
H1157 C1135 0.950 . S
C1158 C1159 1.349 . S
C1158 C1160 1.327 . S
C1158 H1183 0.950 . S
C1159 C1158 1.349 . S
C1159 C1175 1.349 . S
C1160 C1158 1.327 . S
C1160 C1179 1.429 . S
C1160 H1184 0.950 . S
C1161 C1178 1.574 . S
C1161 C1180 1.368 . S
C1161 H1185 0.949 . S
H1162 C1166 0.949 . S
C1163 C1164 1.349 . S
C1163 C1165 1.327 . S
C1163 H1186 0.950 . S
C1164 C1163 1.349 . S
C1164 C1176 1.349 . S
C1165 C1163 1.327 . S
C1165 C1181 1.429 . S
C1165 H1187 0.950 . S
C1166 H1162 0.949 . S
C1166 C1174 1.574 . S
C1166 C1182 1.368 . S
H1167 C1175 0.950 . S
H1168 C1173 0.950 . S
H1169 C1174 0.949 . S
H1170 C1176 0.950 . S
H1171 C1177 0.950 . S
H1172 C1178 0.949 . S
C1173 H1168 0.950 . S
C1173 C1175 1.327 . S
C1173 C1179 1.429 . S
C1174 C1166 1.574 . S
C1174 H1169 0.949 . S
C1174 C1180 1.368 . S
C1175 C1159 1.349 . S
C1175 H1167 0.950 . S
C1175 C1173 1.327 . S
C1176 C1164 1.349 . S
C1176 H1170 0.950 . S
C1176 C1177 1.327 . S
C1177 H1171 0.950 . S
C1177 C1176 1.327 . S
C1177 C1181 1.429 . S
C1178 C1161 1.574 . S
C1178 H1172 0.949 . S
C1178 C1182 1.368 . S
C1179 C1160 1.429 . S
C1179 C1173 1.429 . S
C1179 C1180 1.523 . S
C1180 C1161 1.368 . S
C1180 C1174 1.368 . S
C1180 C1179 1.523 . S
C1181 C1165 1.429 . S
C1181 C1177 1.429 . S
C1181 C1182 1.523 . S
C1182 C1166 1.368 . S
C1182 C1178 1.368 . S
C1182 C1181 1.523 . S
H1183 C1158 0.950 . S
H1184 C1160 0.950 . S
H1185 C1161 0.949 . S
H1186 C1163 0.950 . S
H1187 C1165 0.950 . S
C1188 C1189 1.349 . S
C1188 C1190 1.327 . S
C1188 H1213 0.950 . S
C1189 C1188 1.349 . S
C1189 C1205 1.349 . S
C1190 C1188 1.327 . S
C1190 C1209 1.429 . S
C1190 H1214 0.950 . S
C1191 C1208 1.574 . S
C1191 C1210 1.368 . S
C1191 H1215 0.949 . S
H1192 C1196 0.949 . S
C1193 C1194 1.349 . S
C1193 C1195 1.327 . S
C1193 H1216 0.950 . S
C1194 C1193 1.349 . S
C1194 C1206 1.349 . S
C1195 C1193 1.327 . S
C1195 C1211 1.429 . S
C1195 H1217 0.950 . S
C1196 H1192 0.949 . S
C1196 C1204 1.574 . S
C1196 C1212 1.368 . S
H1197 C1205 0.950 . S
H1198 C1203 0.950 . S
H1199 C1204 0.949 . S
H1200 C1206 0.950 . S
H1201 C1207 0.950 . S
H1202 C1208 0.949 . S
C1203 H1198 0.950 . S
C1203 C1205 1.327 . S
C1203 C1209 1.429 . S
C1204 C1196 1.574 . S
C1204 H1199 0.949 . S
C1204 C1210 1.368 . S
C1205 C1189 1.349 . S
C1205 H1197 0.950 . S
C1205 C1203 1.327 . S
C1206 C1194 1.349 . S
C1206 H1200 0.950 . S
C1206 C1207 1.327 . S
C1207 H1201 0.950 . S
C1207 C1206 1.327 . S
C1207 C1211 1.429 . S
C1208 C1191 1.574 . S
C1208 H1202 0.949 . S
C1208 C1212 1.368 . S
C1209 C1190 1.429 . S
C1209 C1203 1.429 . S
C1209 C1210 1.523 . S
C1210 C1191 1.368 . S
C1210 C1204 1.368 . S
C1210 C1209 1.523 . S
C1211 C1195 1.429 . S
C1211 C1207 1.429 . S
C1211 C1212 1.523 . S
C1212 C1196 1.368 . S
C1212 C1208 1.368 . S
C1212 C1211 1.523 . S
H1213 C1188 0.950 . S
H1214 C1190 0.950 . S
H1215 C1191 0.949 . S
H1216 C1193 0.950 . S
H1217 C1195 0.950 . S
C1218 C1219 1.349 . S
C1218 C1220 1.327 . S
C1218 H1243 0.950 . S
C1219 C1218 1.349 . S
C1219 C1235 1.349 . S
C1220 C1218 1.327 . S
C1220 C1239 1.429 . S
C1220 H1244 0.950 . S
C1221 C1238 1.574 . S
C1221 C1240 1.368 . S
C1221 H1245 0.949 . S
H1222 C1226 0.949 . S
C1223 C1224 1.349 . S
C1223 C1225 1.327 . S
C1223 H1246 0.950 . S
C1224 C1223 1.349 . S
C1224 C1236 1.349 . S
C1225 C1223 1.327 . S
C1225 C1241 1.429 . S
C1225 H1247 0.950 . S
C1226 H1222 0.949 . S
C1226 C1234 1.574 . S
C1226 C1242 1.368 . S
H1227 C1235 0.950 . S
H1228 C1233 0.950 . S
H1229 C1234 0.949 . S
H1230 C1236 0.950 . S
H1231 C1237 0.950 . S
H1232 C1238 0.949 . S
C1233 H1228 0.950 . S
C1233 C1235 1.327 . S
C1233 C1239 1.429 . S
C1234 C1226 1.574 . S
C1234 H1229 0.949 . S
C1234 C1240 1.368 . S
C1235 C1219 1.349 . S
C1235 H1227 0.950 . S
C1235 C1233 1.327 . S
C1236 C1224 1.349 . S
C1236 H1230 0.950 . S
C1236 C1237 1.327 . S
C1237 H1231 0.950 . S
C1237 C1236 1.327 . S
C1237 C1241 1.429 . S
C1238 C1221 1.574 . S
C1238 H1232 0.949 . S
C1238 C1242 1.368 . S
C1239 C1220 1.429 . S
C1239 C1233 1.429 . S
C1239 C1240 1.523 . S
C1240 C1221 1.368 . S
C1240 C1234 1.368 . S
C1240 C1239 1.523 . S
C1241 C1225 1.429 . S
C1241 C1237 1.429 . S
C1241 C1242 1.523 . S
C1242 C1226 1.368 . S
C1242 C1238 1.368 . S
C1242 C1241 1.523 . S
H1243 C1218 0.950 . S
H1244 C1220 0.950 . S
H1245 C1221 0.949 . S
H1246 C1223 0.950 . S
H1247 C1225 0.950 . S
C1248 C1249 1.349 1_554 S
C1248 C1250 1.327 1_554 S
C1248 H1273 0.950 . S
C1249 C1248 1.349 1_556 S
C1249 C1265 1.349 . S
C1250 C1248 1.327 1_556 S
C1250 C1269 1.429 . S
C1250 H1274 0.945 1_556 S
C1251 C1268 1.574 1_455 S
C1251 C1270 1.368 . S
C1251 H1275 0.949 . S
H1252 C1256 0.949 . S
C1253 C1254 1.349 . S
C1253 C1255 1.327 . S
C1253 H1276 0.950 . S
C1254 C1253 1.349 . S
C1254 C1266 1.349 . S
C1255 C1253 1.327 . S
C1255 C1271 1.429 . S
C1255 H1277 0.950 . S
C1256 H1252 0.949 . S
C1256 C1264 1.574 1_655 S
C1256 C1272 1.368 . S
H1257 C1265 0.950 . S
H1258 C1263 0.950 . S
H1259 C1264 0.949 . S
H1260 C1266 0.950 . S
H1261 C1267 0.950 . S
H1262 C1268 0.949 . S
C1263 H1258 0.950 . S
C1263 C1265 1.327 . S
C1263 C1269 1.429 . S
C1264 C1256 1.574 1_455 S
C1264 H1259 0.949 . S
C1264 C1270 1.368 . S
C1265 C1249 1.349 . S
C1265 H1257 0.950 . S
C1265 C1263 1.327 . S
C1266 C1254 1.349 . S
C1266 H1260 0.950 . S
C1266 C1267 1.327 . S
C1267 H1261 0.950 . S
C1267 C1266 1.327 . S
C1267 C1271 1.429 . S
C1268 C1251 1.574 1_655 S
C1268 H1262 0.949 . S
C1268 C1272 1.368 . S
C1269 C1250 1.429 . S
C1269 C1263 1.429 . S
C1269 C1270 1.523 . S
C1270 C1251 1.368 . S
C1270 C1264 1.368 . S
C1270 C1269 1.523 . S
C1271 C1255 1.429 . S
C1271 C1267 1.429 . S
C1271 C1272 1.523 . S
C1272 C1256 1.368 . S
C1272 C1268 1.368 . S
C1272 C1271 1.523 . S
H1273 C1248 0.950 . S
H1274 C1250 0.945 1_554 S
H1275 C1251 0.949 . S
H1276 C1253 0.950 . S
H1277 C1255 0.950 . S
C1278 C1279 1.349 . S
C1278 C1280 1.327 . S
C1278 H1303 0.950 . S
C1279 C1278 1.349 . S
C1279 C1295 1.349 1_556 S
C1280 C1278 1.327 . S
C1280 C1299 1.429 1_556 S
C1280 H1304 0.950 . S
C1281 C1298 1.574 1_565 S
C1281 C1300 1.368 . S
C1281 H1305 0.949 . S
H1282 C1286 0.949 . S
C1283 C1284 1.349 . S
C1283 C1285 1.327 . S
C1283 H1306 0.950 . S
C1284 C1283 1.349 . S
C1284 C1296 1.349 . S
C1285 C1283 1.327 . S
C1285 C1301 1.429 . S
C1285 H1307 0.950 . S
C1286 H1282 0.949 . S
C1286 C1294 1.574 1_545 S
C1286 C1302 1.368 . S
H1287 C1295 0.950 . S
H1288 C1293 0.950 . S
H1289 C1294 0.949 1_556 S
H1290 C1296 0.950 . S
H1291 C1297 0.950 . S
H1292 C1298 0.949 . S
C1293 H1288 0.950 . S
C1293 C1295 1.327 . S
C1293 C1299 1.429 . S
C1294 C1286 1.574 1_565 S
C1294 H1289 0.949 1_554 S
C1294 C1300 1.368 . S
C1295 C1279 1.349 1_554 S
C1295 H1287 0.950 . S
C1295 C1293 1.327 . S
C1296 C1284 1.349 . S
C1296 H1290 0.950 . S
C1296 C1297 1.327 . S
C1297 H1291 0.950 . S
C1297 C1296 1.327 . S
C1297 C1301 1.429 . S
C1298 C1281 1.574 1_545 S
C1298 H1292 0.949 . S
C1298 C1302 1.368 . S
C1299 C1280 1.429 1_554 S
C1299 C1293 1.429 . S
C1299 C1300 1.523 . S
C1300 C1281 1.368 . S
C1300 C1294 1.368 . S
C1300 C1299 1.523 . S
C1301 C1285 1.429 . S
C1301 C1297 1.429 . S
C1301 C1302 1.523 . S
C1302 C1286 1.368 . S
C1302 C1298 1.368 . S
C1302 C1301 1.523 . S
H1303 C1278 0.950 . S
H1304 C1280 0.950 . S
H1305 C1281 0.949 . S
H1306 C1283 0.950 . S
H1307 C1285 0.950 . S
C1308 C1309 1.349 . S
C1308 C1310 1.327 . S
C1308 H1333 0.950 . S
C1309 C1308 1.349 . S
C1309 C1325 1.349 . S
C1310 C1308 1.327 . S
C1310 C1329 1.429 . S
C1310 H1334 0.950 . S
C1311 C1328 1.574 . S
C1311 C1330 1.368 . S
C1311 H1335 0.949 . S
H1312 C1316 0.949 . S
C1313 C1314 1.349 . S
C1313 C1315 1.327 . S
C1313 H1336 0.950 . S
C1314 C1313 1.349 . S
C1314 C1326 1.349 . S
C1315 C1313 1.327 . S
C1315 C1331 1.429 . S
C1315 H1337 0.950 . S
C1316 H1312 0.949 . S
C1316 C1324 1.574 . S
C1316 C1332 1.368 . S
H1317 C1325 0.950 . S
H1318 C1323 0.950 . S
H1319 C1324 0.949 . S
H1320 C1326 0.950 . S
H1321 C1327 0.950 . S
H1322 C1328 0.949 . S
C1323 H1318 0.950 . S
C1323 C1325 1.327 . S
C1323 C1329 1.429 . S
C1324 C1316 1.574 . S
C1324 H1319 0.949 . S
C1324 C1330 1.368 . S
C1325 C1309 1.349 . S
C1325 H1317 0.950 . S
C1325 C1323 1.327 . S
C1326 C1314 1.349 . S
C1326 H1320 0.950 . S
C1326 C1327 1.327 . S
C1327 H1321 0.950 . S
C1327 C1326 1.327 . S
C1327 C1331 1.429 . S
C1328 C1311 1.574 . S
C1328 H1322 0.949 . S
C1328 C1332 1.368 . S
C1329 C1310 1.429 . S
C1329 C1323 1.429 . S
C1329 C1330 1.523 . S
C1330 C1311 1.368 . S
C1330 C1324 1.368 . S
C1330 C1329 1.523 . S
C1331 C1315 1.429 . S
C1331 C1327 1.429 . S
C1331 C1332 1.523 . S
C1332 C1316 1.368 . S
C1332 C1328 1.368 . S
C1332 C1331 1.523 . S
H1333 C1308 0.950 . S
H1334 C1310 0.950 . S
H1335 C1311 0.949 . S
H1336 C1313 0.950 . S
H1337 C1315 0.950 . S
C1338 C1339 1.349 . S
C1338 C1340 1.327 . S
C1338 H1363 0.950 . S
C1339 C1338 1.349 . S
C1339 C1355 1.349 . S
C1340 C1338 1.327 . S
C1340 C1359 1.429 . S
C1340 H1364 0.950 . S
C1341 C1358 1.574 1_455 S
C1341 C1360 1.368 . S
C1341 H1365 0.949 . S
H1342 C1346 0.949 . S
C1343 C1344 1.349 . S
C1343 C1345 1.327 . S
C1343 H1366 0.950 . S
C1344 C1343 1.349 . S
C1344 C1356 1.349 . S
C1345 C1343 1.327 . S
C1345 C1361 1.429 . S
C1345 H1367 0.950 . S
C1346 H1342 0.949 . S
C1346 C1354 1.574 1_655 S
C1346 C1362 1.368 . S
H1347 C1355 0.950 . S
H1348 C1353 0.950 . S
H1349 C1354 0.949 . S
H1350 C1356 0.950 . S
H1351 C1357 0.950 . S
H1352 C1358 0.949 . S
C1353 H1348 0.950 . S
C1353 C1355 1.327 . S
C1353 C1359 1.429 . S
C1354 C1346 1.574 1_455 S
C1354 H1349 0.949 . S
C1354 C1360 1.368 . S
C1355 C1339 1.349 . S
C1355 H1347 0.950 . S
C1355 C1353 1.327 . S
C1356 C1344 1.349 . S
C1356 H1350 0.950 . S
C1356 C1357 1.327 . S
C1357 H1351 0.950 . S
C1357 C1356 1.327 . S
C1357 C1361 1.429 . S
C1358 C1341 1.574 1_655 S
C1358 H1352 0.949 . S
C1358 C1362 1.368 . S
C1359 C1340 1.429 . S
C1359 C1353 1.429 . S
C1359 C1360 1.523 . S
C1360 C1341 1.368 . S
C1360 C1354 1.368 . S
C1360 C1359 1.523 . S
C1361 C1345 1.429 . S
C1361 C1357 1.429 . S
C1361 C1362 1.523 . S
C1362 C1346 1.368 . S
C1362 C1358 1.368 . S
C1362 C1361 1.523 . S
H1363 C1338 0.950 . S
H1364 C1340 0.950 . S
H1365 C1341 0.949 . S
H1366 C1343 0.950 . S
H1367 C1345 0.950 . S
C1368 C1369 1.349 . S
C1368 C1370 1.327 . S
C1368 H1393 0.950 . S
C1369 C1368 1.349 . S
C1369 C1385 1.349 . S
C1370 C1368 1.327 . S
C1370 C1389 1.429 . S
C1370 H1394 0.950 . S
C1371 C1388 1.574 1_545 S
C1371 C1390 1.368 . S
C1371 H1395 0.949 . S
H1372 C1376 0.949 . S
C1373 C1374 1.349 . S
C1373 C1375 1.327 . S
C1373 H1396 0.950 . S
C1374 C1373 1.349 . S
C1374 C1386 1.349 . S
C1375 C1373 1.327 . S
C1375 C1391 1.429 . S
C1375 H1397 0.950 . S
C1376 H1372 0.949 . S
C1376 C1384 1.574 1_565 S
C1376 C1392 1.368 . S
H1377 C1385 0.950 . S
H1378 C1383 0.950 . S
H1379 C1384 0.949 . S
H1380 C1386 0.950 . S
H1381 C1387 0.950 . S
H1382 C1388 0.949 . S
C1383 H1378 0.950 . S
C1383 C1385 1.327 . S
C1383 C1389 1.429 . S
C1384 C1376 1.574 1_545 S
C1384 H1379 0.949 . S
C1384 C1390 1.368 . S
C1385 C1369 1.349 . S
C1385 H1377 0.950 . S
C1385 C1383 1.327 . S
C1386 C1374 1.349 . S
C1386 H1380 0.950 . S
C1386 C1387 1.327 . S
C1387 H1381 0.950 . S
C1387 C1386 1.327 . S
C1387 C1391 1.429 . S
C1388 C1371 1.574 1_565 S
C1388 H1382 0.949 . S
C1388 C1392 1.368 . S
C1389 C1370 1.429 . S
C1389 C1383 1.429 . S
C1389 C1390 1.523 . S
C1390 C1371 1.368 . S
C1390 C1384 1.368 . S
C1390 C1389 1.523 . S
C1391 C1375 1.429 . S
C1391 C1387 1.429 . S
C1391 C1392 1.523 . S
C1392 C1376 1.368 . S
C1392 C1388 1.368 . S
C1392 C1391 1.523 . S
H1393 C1368 0.950 . S
H1394 C1370 0.950 . S
H1395 C1371 0.949 . S
H1396 C1373 0.950 . S
H1397 C1375 0.950 . S
C1398 C1399 1.349 . S
C1398 C1400 1.327 . S
C1398 H1423 0.950 . S
C1399 C1398 1.349 . S
C1399 C1415 1.349 . S
C1400 C1398 1.327 . S
C1400 C1419 1.429 . S
C1400 H1424 0.950 . S
C1401 C1418 1.574 . S
C1401 C1420 1.368 . S
C1401 H1425 0.949 . S
H1402 C1406 0.949 . S
C1403 C1404 1.349 . S
C1403 C1405 1.327 . S
C1403 H1426 0.950 . S
C1404 C1403 1.349 . S
C1404 C1416 1.349 . S
C1405 C1403 1.327 . S
C1405 C1421 1.429 . S
C1405 H1427 0.950 . S
C1406 H1402 0.949 . S
C1406 C1414 1.574 . S
C1406 C1422 1.368 . S
H1407 C1415 0.950 . S
H1408 C1413 0.950 . S
H1409 C1414 0.949 . S
H1410 C1416 0.950 . S
H1411 C1417 0.950 . S
H1412 C1418 0.949 . S
C1413 H1408 0.950 . S
C1413 C1415 1.327 . S
C1413 C1419 1.429 . S
C1414 C1406 1.574 . S
C1414 H1409 0.949 . S
C1414 C1420 1.368 . S
C1415 C1399 1.349 . S
C1415 H1407 0.950 . S
C1415 C1413 1.327 . S
C1416 C1404 1.349 . S
C1416 H1410 0.950 . S
C1416 C1417 1.327 . S
C1417 H1411 0.950 . S
C1417 C1416 1.327 . S
C1417 C1421 1.429 . S
C1418 C1401 1.574 . S
C1418 H1412 0.949 . S
C1418 C1422 1.368 . S
C1419 C1400 1.429 . S
C1419 C1413 1.429 . S
C1419 C1420 1.523 . S
C1420 C1401 1.368 . S
C1420 C1414 1.368 . S
C1420 C1419 1.523 . S
C1421 C1405 1.429 . S
C1421 C1417 1.429 . S
C1421 C1422 1.523 . S
C1422 C1406 1.368 . S
C1422 C1418 1.368 . S
C1422 C1421 1.523 . S
H1423 C1398 0.950 . S
H1424 C1400 0.950 . S
H1425 C1401 0.949 . S
H1426 C1403 0.950 . S
H1427 C1405 0.950 . S
C709 C52 1.736 . S
C714 C642 1.736 . S
C739 C682 1.735 . S
C744 C111 1.736 . S
C769 C151 1.735 . S
C774 C406 1.736 . S
C799 C229 1.736 . S
C804 C465 1.736 . S
C829 C288 1.736 . S
C834 C505 1.735 . S
C859 C583 1.736 . S
C864 C328 1.735 . S
C889 C3 1.745 . S
C894 C477 1.749 . S
C919 C62 1.745 . S
C924 C534 1.745 . S
C949 C593 1.745 . S
C954 C123 1.749 . S
C979 C180 1.745 . S
C984 C654 1.749 . S
C1009 C239 1.745 . S
C1014 C357 1.745 . S
C1039 C300 1.749 . S
C1044 C416 1.745 1_556 S
C1069 C623 1.669 . S
C1074 C33 1.669 . S
C1099 C92 1.668 . S
C1104 C701 1.662 . S
C1129 C170 1.662 . S
C1134 C387 1.668 . S
C1159 C210 1.669 . S
C1164 C446 1.669 . S
C1189 C524 1.662 . S
C1194 C269 1.668 . S
C1219 C347 1.662 . S
C1224 C564 1.668 . S
C1249 C5 1.238 . S
C1254 C652 1.235 . S
C1279 C359 1.238 . S
C1284 C64 1.238 . S
C1309 C418 1.238 . S
C1314 C121 1.235 . S
C1339 C475 1.235 . S
C1344 C182 1.238 . S
C1369 C536 1.238 . S
C1374 C241 1.238 . S
C1399 C595 1.238 . S
C1404 C298 1.234 . S
