# Generated by pormake.
# Topology rob, (6)-cn, num edge types: 1
# Building blocks:
#     Node 0, Type 0, BuildingBlock: FUNLAD_clean_sbu_0, # of connection points: 6
#     Node 1, Type 0, BuildingBlock: FUNLAD_clean_sbu_0, # of connection points: 6
#     Node 2, Type 0, BuildingBlock: FUNLAD_clean_sbu_0, # of connection points: 6
#     Node 3, Type 0, BuildingBlock: FUNLAD_clean_sbu_0, # of connection points: 6
#     Edge 4, Type (0, 0), BuildingBlock: FUNLAD_clean_linker_1, # of connection points: 2
#     Edge 5, Type (0, 0), BuildingBlock: FUNLAD_clean_linker_1, # of connection points: 2
#     Edge 6, Type (0, 0), BuildingBlock: FUNLAD_clean_linker_1, # of connection points: 2
#     Edge 7, Type (0, 0), BuildingBlock: FUNLAD_clean_linker_1, # of connection points: 2
#     Edge 8, Type (0, 0), BuildingBlock: FUNLAD_clean_linker_1, # of connection points: 2
#     Edge 9, Type (0, 0), BuildingBlock: FUNLAD_clean_linker_1, # of connection points: 2
#     Edge 10, Type (0, 0), BuildingBlock: FUNLAD_clean_linker_1, # of connection points: 2
#     Edge 11, Type (0, 0), BuildingBlock: FUNLAD_clean_linker_1, # of connection points: 2
#     Edge 12, Type (0, 0), BuildingBlock: FUNLAD_clean_linker_1, # of connection points: 2
#     Edge 13, Type (0, 0), BuildingBlock: FUNLAD_clean_linker_1, # of connection points: 2
#     Edge 14, Type (0, 0), BuildingBlock: FUNLAD_clean_linker_1, # of connection points: 2
#     Edge 15, Type (0, 0), BuildingBlock: FUNLAD_clean_linker_1, # of connection points: 2
# Relax obj value: 0.141
# Max RMSD: 0.159
# Mean RMSD: 0.159
data_MOF--net-rob--node1-FUNLAD_clean_sbu_0--edge1-FUNLAD_clean_linker_1
_symmetry_space_group_name_H-M    P1
_symmetry_Int_Tables_number       1
_symmetry_cell_setting            triclinic
loop_
_symmetry_equiv_pos_as_xyz
'x, y, z'
_cell_length_a     16.658611
_cell_length_b     41.229163
_cell_length_c     24.521458
_cell_angle_alpha  91.898964
_cell_angle_beta   90.043516
_cell_angle_gamma 89.753286
loop_
_atom_site_label
_atom_site_type_symbol
_atom_site_fract_x
_atom_site_fract_y
_atom_site_fract_z
_atom_type_partial_charge
C0 C 0.33967 0.24211 0.89058 0.0
N1 N 0.33782 0.32935 0.98472 0.0
C2 C 0.4167 0.33381 0.97278 0.0
C3 C 0.44946 0.36498 0.97438 0.0
C4 C 0.40061 0.3919 -0.0123 0.0
C5 C 0.31926 0.38659 -0.00027 0.0
C6 C 0.28909 0.35499 -0.00203 0.0
Zn7 Zn 0.29226 0.28321 0.9862 0.0
C8 C 0.13414 0.27793 0.93303 0.0
N9 N 0.19862 0.18689 -0.0074 0.0
C10 C 0.2511 0.16184 0.98422 0.0
C11 C 0.11937 0.18142 0.00188 0.0
C12 C 0.09016 0.14969 0.00278 0.0
C13 C 0.1433 0.1234 -0.00587 0.0
C14 C 0.22466 0.12983 0.98526 0.0
Zn15 Zn 0.24232 0.23314 -0.00924 0.0
O16 O 0.34582 0.27097 0.9101 0.0
C17 C 0.40104 0.23904 0.04392 0.0
O18 O 0.3013 0.22112 0.91666 0.0
H19 H 0.07878 0.20168 0.00884 0.0
H20 H 0.45459 0.31312 0.96262 0.0
H21 H 0.31379 0.16667 0.97669 0.0
O22 O 0.39533 0.26761 0.02657 0.0
O23 O 0.34418 0.21909 0.03586 0.0
H24 H 0.22684 0.35091 0.00804 0.0
O25 O 0.18437 0.24551 0.06411 0.0
O26 O 0.23688 0.29435 0.06306 0.0
O27 O 0.14073 0.24854 0.94664 0.0
O28 O 0.18922 0.29806 0.94505 0.0
C29 C 0.194 0.27343 0.08635 0.0
H30 H 0.51257 0.36802 0.96531 0.0
H31 H 0.27946 0.40633 0.01182 0.0
H32 H 0.02719 0.14596 0.01121 0.0
H33 H 0.26747 0.11023 0.97871 0.0
C34 C 0.83142 0.74219 0.92522 0.0
N35 N 0.78952 0.83776 0.97851 0.0
C36 C 0.86961 0.84166 -0.01266 0.0
C37 C 0.90466 0.87228 0.98376 0.0
C38 C 0.85646 0.89921 0.97133 0.0
C39 C 0.77438 0.89423 0.96171 0.0
C40 C 0.74201 0.86328 0.96552 0.0
Zn41 Zn 0.73748 0.79309 0.98302 0.0
C42 C 0.6283 0.78017 0.88914 0.0
N43 N 0.62479 0.70004 -0.01021 0.0
C44 C 0.67248 0.67399 -0.00047 0.0
C45 C 0.54463 0.69643 0.98112 0.0
C46 C 0.50977 0.66564 0.9815 0.0
C47 C 0.55751 0.6382 -0.00913 0.0
C48 C 0.64021 0.64278 0.00016 0.0
Zn49 Zn 0.67687 0.74498 0.98641 0.0
O50 O 0.83339 0.77186 0.94061 0.0
C51 C 0.78692 0.75806 0.0802 0.0
O52 O 0.77171 0.72483 0.93748 0.0
H53 H 0.50772 0.71743 0.97336 0.0
H54 H 0.90647 0.82097 -0.00296 0.0
H55 H 0.73611 0.67736 0.00625 0.0
O56 O 0.79643 0.78477 0.05682 0.0
O57 O 0.74125 0.73642 0.05916 0.0
H58 H 0.67864 0.85965 0.95808 0.0
O59 O 0.58345 0.76621 0.03381 0.0
O60 O 0.63982 0.81397 0.02627 0.0
O61 O 0.613 0.75459 0.91455 0.0
O62 O 0.67885 0.80044 0.90842 0.0
C63 C 0.58311 0.7967 0.04368 0.0
H64 H 0.96859 0.87439 -0.0097 0.0
H65 H 0.73522 0.91422 0.95164 0.0
H66 H 0.44592 0.66329 0.97402 0.0
H67 H 0.68067 0.62282 0.00712 0.0
C68 C 0.35764 0.79344 0.52702 0.0
N69 N 0.29692 0.70142 0.46544 0.0
C70 C 0.37336 0.69958 0.44605 0.0
C71 C 0.41356 0.66985 0.44248 0.0
C72 C 0.3747 0.64161 0.45837 0.0
C73 C 0.29515 0.64405 0.47742 0.0
C74 C 0.25727 0.67439 0.48062 0.0
Zn75 Zn 0.24479 0.74626 0.47539 0.0
C76 C 0.16636 0.75501 0.58363 0.0
N77 N 0.14094 0.84107 0.49783 0.0
C78 C 0.18665 0.86695 0.48469 0.0
C79 C 0.06447 0.84521 0.51635 0.0
C80 C 0.03114 0.87635 0.52189 0.0
C81 C 0.07711 0.90349 0.50895 0.0
C82 C 0.15592 0.89845 0.4899 0.0
Zn83 Zn 0.18994 0.79553 0.48786 0.0
O84 O 0.35292 0.76452 0.50816 0.0
C85 C 0.269 0.78604 0.37958 0.0
O86 O 0.29728 0.81223 0.52464 0.0
H87 H 0.02905 0.82432 0.52646 0.0
H88 H 0.40396 0.72134 0.43429 0.0
H89 H 0.24701 0.86315 0.46952 0.0
O90 O 0.28158 0.75806 0.39769 0.0
O91 O 0.23281 0.80747 0.40897 0.0
H92 H 0.19679 0.67646 0.4964 0.0
O93 O 0.08325 0.77789 0.45246 0.0
O94 O 0.13558 0.72896 0.44134 0.0
O95 O 0.14823 0.78255 0.56513 0.0
O96 O 0.20754 0.73492 0.55487 0.0
C97 C 0.07685 0.74845 0.43632 0.0
H98 H 0.47495 0.669 0.42791 0.0
H99 H 0.26316 0.62316 0.49152 0.0
H100 H 0.9699 0.8792 0.53617 0.0
H101 H 0.19311 0.91838 0.47767 0.0
C102 C 0.82006 0.29816 0.59032 0.0
N103 N 0.85901 0.21178 0.49995 0.0
C104 C 0.93351 0.20928 0.52226 0.0
C105 C 0.96856 0.17875 0.529 0.0
C106 C 0.9265 0.15056 0.51295 0.0
C107 C 0.8499 0.154 0.48958 0.0
C108 C 0.81716 0.18488 0.48378 0.0
Zn109 Zn 0.80483 0.25601 0.49056 0.0
C110 C 0.63556 0.25558 0.53192 0.0
N111 N 0.68475 0.34708 0.47444 0.0
C112 C 0.72064 0.37496 0.49265 0.0
C113 C 0.6108 0.34754 0.45089 0.0
C114 C 0.56984 0.37683 0.4452 0.0
C115 C 0.60512 0.40602 0.46367 0.0
C116 C 0.68174 0.40482 0.48787 0.0
Zn117 Zn 0.74138 0.3035 0.48364 0.0
O118 O 0.84291 0.27148 0.56795 0.0
C119 C 0.9101 0.30461 0.44265 0.0
O120 O 0.77489 0.31724 0.56458 0.0
H121 H 0.58314 0.3251 0.43684 0.0
H122 H 0.9658 0.23097 0.53489 0.0
H123 H 0.77929 0.374 0.51149 0.0
O124 O 0.909 0.27498 0.45553 0.0
O125 O 0.84905 0.32251 0.45201 0.0
H126 H 0.75808 0.18735 0.46607 0.0
O127 O 0.70793 0.28858 0.40368 0.0
O128 O 0.76774 0.24135 0.41187 0.0
O129 O 0.63565 0.28424 0.51482 0.0
O130 O 0.69813 0.23799 0.52643 0.0
C131 C 0.72786 0.26089 0.3836 0.0
H132 H 0.02797 0.17719 0.54674 0.0
H133 H 0.81563 0.13332 0.47476 0.0
H134 H 0.51079 0.37664 0.42663 0.0
H135 H 0.71125 0.42634 0.5041 0.0
H136 H 0.45573 0.60439 0.97761 0.0
C137 C 0.51883 0.60557 -0.01103 0.0
H138 H 0.61839 0.57714 0.01346 0.0
H139 H 0.41627 0.45851 0.09065 0.0
H140 H 0.46054 0.48185 0.1775 0.0
H141 H 0.52993 0.53461 0.18259 0.0
H142 H 0.55506 0.56445 0.10068 0.0
C143 C 0.55671 0.57752 -0.00043 0.0
C144 C 0.51407 0.54578 -0.00386 0.0
C145 C 0.50079 0.52846 0.04433 0.0
C146 C 0.46125 0.49793 0.04145 0.0
C147 C 0.44713 0.48154 0.09037 0.0
C148 C 0.47198 0.49473 0.14058 0.0
C149 C 0.51097 0.52444 0.14341 0.0
C150 C 0.5252 0.54126 0.09604 0.0
H151 H 0.50209 0.4263 -0.00435 0.0
C152 C 0.43725 0.42476 -0.00907 0.0
H153 H 0.33116 0.45217 0.97849 0.0
H154 H 0.53647 0.57094 0.89504 0.0
H155 H 0.49041 0.54778 0.80854 0.0
H156 H 0.41803 0.49569 0.80415 0.0
H157 H 0.39197 0.46629 0.88636 0.0
C158 C 0.39506 0.4525 -0.01297 0.0
C159 C 0.43559 0.48462 -0.00966 0.0
C160 C 0.44836 0.50197 0.9422 0.0
C161 C 0.4886 0.53237 0.94493 0.0
C162 C 0.50397 0.54832 0.89575 0.0
C163 C 0.47836 0.53517 0.84567 0.0
C164 C 0.43772 0.50582 0.84318 0.0
C165 C 0.42302 0.48923 0.8907 0.0
H166 H 0.48604 0.61222 0.45766 0.0
C167 C 0.42083 0.6107 0.45775 0.0
H168 H 0.32249 0.57816 0.45378 0.0
H169 H 0.56303 0.46751 0.36078 0.0
H170 H 0.50456 0.48428 0.27561 0.0
H171 H 0.41408 0.53177 0.27325 0.0
H172 H 0.38207 0.56294 0.35633 0.0
C173 C 0.38699 0.58118 0.45701 0.0
C174 C 0.43792 0.55156 0.45887 0.0
C175 C 0.45422 0.53317 0.41028 0.0
C176 C 0.50533 0.50548 0.41174 0.0
C177 C 0.52308 0.48826 0.36226 0.0
C178 C 0.49022 0.49775 0.31299 0.0
C179 C 0.43939 0.52451 0.31168 0.0
C180 C 0.42149 0.54216 0.35962 0.0
H181 H 0.49497 0.4347 0.44933 0.0
C182 C 0.55867 0.43669 0.45868 0.0
H183 H 0.65346 0.47014 0.47349 0.0
H184 H 0.41605 0.58083 0.55971 0.0
H185 H 0.47533 0.56432 0.64488 0.0
H186 H 0.56422 0.51638 0.64742 0.0
H187 H 0.59431 0.48463 0.56482 0.0
C188 C 0.59041 0.46655 0.4644 0.0
C189 C 0.5387 0.49596 0.46202 0.0
C190 C 0.52256 0.51444 0.51057 0.0
C191 C 0.47173 0.54218 0.50906 0.0
C192 C 0.45519 0.55982 0.55837 0.0
C193 C 0.48856 0.55053 0.6076 0.0
C194 C 0.53858 0.52353 0.60904 0.0
C195 C 0.55543 0.50555 0.56128 0.0
H196 H 0.16228 0.0708 0.00411 0.0
C197 C 0.11705 0.0891 -0.00434 0.0
H198 H -0.00403 0.09632 0.9722 0.0
H199 H 0.97946 0.9496 0.88124 0.0
H200 H -0.00483 0.97752 0.79637 0.0
H201 H 0.02196 0.03633 0.79675 0.0
H202 H 0.03404 0.06752 0.88202 0.0
C203 C 0.04176 0.07931 0.98476 0.0
C204 C 0.02103 0.04429 0.98485 0.0
C205 C 0.01206 0.0266 0.9347 0.0
C206 C -0.00511 0.99284 0.93451 0.0
C207 C 0.98988 0.97548 0.88379 0.0
C208 C -0.00062 0.99116 0.83475 0.0
C209 C 0.01463 0.02426 0.83495 0.0
C210 C 0.02128 0.04188 0.8842 0.0
H211 H 0.84801 0.95111 0.95203 0.0
C212 C 0.88818 0.93276 0.96781 0.0
H213 H 0.00227 0.92553 0.00407 0.0
H214 H 0.03139 0.07146 0.08803 0.0
H215 H 0.01547 0.04369 0.173 0.0
H216 H 0.98506 0.98519 0.17285 0.0
H217 H 0.97034 0.9541 0.08778 0.0
C218 C 0.96136 0.94224 0.98501 0.0
C219 C 0.98456 0.97706 0.98459 0.0
C220 C -0.00595 0.99475 0.03476 0.0
C221 C 0.01198 0.02844 0.03489 0.0
C222 C 0.01911 0.04571 0.08556 0.0
C223 C 0.00973 0.03011 0.13466 0.0
C224 C 0.99256 0.99717 0.13457 0.0
C225 C 0.98445 0.9796 0.08538 0.0
H226 H 0.03035 0.1175 0.52354 0.0
C227 C 0.96544 0.11827 0.51881 0.0
H228 H 0.85985 0.08965 0.51483 0.0
H229 H 0.04596 0.96697 0.41587 0.0
H230 H 0.98802 0.98779 0.3333 0.0
H231 H 0.91922 0.0409 0.33443 0.0
H232 H 0.90849 0.07364 0.41816 0.0
C233 C 0.92468 0.09013 0.51847 0.0
C234 C 0.96681 0.05825 0.51849 0.0
C235 C 0.9711 0.0391 0.46947 0.0
C236 C 0.00968 1.00825 0.46901 0.0
C237 C 0.01562 0.9902 0.41897 0.0
C238 C 0.98301 1.00195 0.37113 0.0
C239 C 0.94434 0.03186 0.37175 0.0
C240 C 0.93847 0.05037 0.42015 0.0
H241 H 0.97472 0.93799 0.51126 0.0
C242 C 0.03987 0.93634 0.51271 0.0
H243 H 0.14709 0.96336 0.52319 0.0
H244 H 0.96644 0.08835 0.61966 0.0
H245 H 0.02409 0.06751 0.70249 0.0
H246 H 0.09083 1.01395 0.70181 0.0
H247 H 0.10035 0.98088 0.61823 0.0
C248 C 0.08248 0.96395 0.51766 0.0
C249 C 0.04248 0.99632 0.51791 0.0
C250 C 0.03858 1.01555 0.56686 0.0
C251 C 0.00041 0.04652 0.56721 0.0
C252 C -0.00436 0.06486 0.61696 0.0
C253 C 0.02824 0.05314 0.66484 0.0
C254 C 0.06582 0.02298 0.66445 0.0
C255 C 0.071 1.00427 0.61619 0.0
H256 H 0.75077 0.23628 0.30419 0.0
C257 C 0.70945 0.25221 0.32667 0.0
H258 H 0.60349 0.27995 0.32543 0.0
H259 H 0.56032 0.3102 0.08359 0.0
H260 H 0.58102 0.36331 0.12511 0.0
H261 H 0.62824 0.36969 0.22018 0.0
H262 H 0.65297 0.32273 0.27455 0.0
C263 C 0.64395 0.26388 0.30243 0.0
C264 C 0.62912 0.25896 0.24305 0.0
C265 C 0.61927 0.28667 0.21086 0.0
C266 C 0.59485 0.28293 0.15552 0.0
C267 C 0.58022 0.3112 0.12549 0.0
C268 C 0.59203 0.34206 0.14884 0.0
C269 C 0.61844 0.34565 0.20236 0.0
C270 C 0.63199 0.31842 0.23319 0.0
H271 H 0.45124 0.2158 0.11494 0.0
C272 C 0.46612 0.23124 0.08136 0.0
H273 H 0.54953 0.26238 0.04659 0.0
H274 H 0.63753 0.19987 0.29302 0.0
H275 H 0.6355 0.14683 0.24786 0.0
H276 H 0.61623 0.14105 0.1482 0.0
H277 H 0.59515 0.18871 0.09371 0.0
C278 C 0.53585 0.24745 0.08099 0.0
C279 C 0.58335 0.25133 0.13214 0.0
C280 C 0.60407 0.22377 0.1622 0.0
C281 C 0.62227 0.22736 0.21861 0.0
C282 C 0.63027 0.19897 0.24925 0.0
C283 C 0.6281 0.16822 0.22389 0.0
C284 C 0.6168 0.16495 0.16786 0.0
C285 C 0.60443 0.19234 0.13719 0.0
H286 H 0.52458 0.83811 0.08681 0.0
C287 C 0.52232 0.81196 0.07961 0.0
H288 H 0.46953 0.76801 0.10264 0.0
H289 H 0.42395 0.84981 0.33341 0.0
H290 H 0.56986 0.85297 0.33662 0.0
H291 H 0.65137 0.83468 0.25737 0.0
H292 H 0.58854 0.81384 0.17475 0.0
C293 C 0.47291 0.79415 0.10943 0.0
C294 C 0.42536 0.80879 0.1551 0.0
C295 C 0.46449 0.82067 0.20326 0.0
C296 C 0.41809 0.82995 0.24975 0.0
C297 C 0.45735 0.84186 0.29749 0.0
C298 C 0.5407 0.84385 0.29978 0.0
C299 C 0.58656 0.83365 0.2551 0.0
C300 C 0.54937 0.82199 0.20749 0.0
H301 H 0.33163 0.77327 0.30379 0.0
C302 C 0.29925 0.79285 0.32518 0.0
H303 H 0.2611 0.84199 0.32143 0.0
H304 H 0.33172 0.79148 0.06719 0.0
H305 H 0.18586 0.78835 0.0658 0.0
H306 H 0.10661 0.80244 0.14836 0.0
H307 H 0.173 0.8201 0.23285 0.0
C308 C 0.29228 0.82161 0.30171 0.0
C309 C 0.33403 0.82548 0.24907 0.0
C310 C 0.29464 0.81616 0.20004 0.0
C311 C 0.34039 0.80782 0.15278 0.0
C312 C 0.29967 0.79783 0.10445 0.0
C313 C 0.21611 0.796 0.10311 0.0
C314 C 0.17146 0.80393 0.1496 0.0
C315 C 0.21004 0.81387 0.19773 0.0
H316 H 0.53581 0.77134 0.8268 0.0
C317 C 0.58904 0.78552 0.83677 0.0
H318 H 0.67336 0.81955 0.80933 0.0
H319 H 0.4369 0.75092 0.61393 0.0
H320 H 0.50273 0.70065 0.6349 0.0
H321 H 0.61115 0.69945 0.70346 0.0
H322 H 0.65081 0.74874 0.75328 0.0
C323 C 0.61995 0.80539 0.7999 0.0
C324 C 0.58065 0.8086 0.74593 0.0
C325 C 0.56527 0.78048 0.71286 0.0
C326 C 0.50916 0.78186 0.66949 0.0
C327 C 0.48482 0.75223 0.64349 0.0
C328 C 0.52133 0.7229 0.65582 0.0
C329 C 0.58189 0.72218 0.69465 0.0
C330 C 0.6036 0.75055 0.72317 0.0
H331 H 0.48551 0.79251 0.54907 0.0
C332 C 0.42716 0.80248 0.56053 0.0
H333 H 0.35579 0.8231 0.62369 0.0
H334 H 0.60743 0.86787 0.79647 0.0
H335 H 0.55537 0.91976 0.7684 0.0
H336 H 0.46894 0.92328 0.68703 0.0
H337 H 0.43311 0.87481 0.63367 0.0
C338 C 0.41494 0.81427 0.61145 0.0
C339 C 0.47707 0.8124 0.65468 0.0
C340 C 0.49977 0.84108 0.68413 0.0
C341 C 0.55089 0.83914 0.73034 0.0
C342 C 0.56955 0.86797 0.76064 0.0
C343 C 0.54011 0.89793 0.74495 0.0
C344 C 0.49139 0.89992 0.69917 0.0
C345 C 0.47115 0.87191 0.66899 0.0
H346 H 0.51929 0.26303 0.57194 0.0
C347 C 0.56934 0.2461 0.56749 0.0
H348 H 0.63143 0.2073 0.60246 0.0
H349 H 0.55083 0.26573 0.83702 0.0
H350 H 0.69499 0.27273 0.83171 0.0
H351 H 0.76782 0.25906 0.74672 0.0
H352 H 0.69827 0.23818 0.66662 0.0
C353 C 0.57923 0.2232 0.60456 0.0
C354 C 0.53599 0.22683 0.65736 0.0
C355 C 0.57846 0.23886 0.70395 0.0
C356 C 0.53618 0.24727 0.75268 0.0
C357 C 0.57981 0.25933 0.79866 0.0
C358 C 0.6626 0.26343 0.79627 0.0
C359 C 0.70373 0.2557 0.7484 0.0
C360 C 0.6627 0.24363 0.70266 0.0
H361 H 0.37787 0.20685 0.82612 0.0
C362 C 0.37671 0.23248 0.83811 0.0
H363 H 0.40918 0.27987 0.81704 0.0
H364 H 0.43883 0.20114 0.57745 0.0
H365 H 0.29378 0.19525 0.58197 0.0
H366 H 0.21933 0.21219 0.66517 0.0
H367 H 0.28923 0.23478 0.74443 0.0
C368 C 0.40842 0.25425 0.80509 0.0
C369 C 0.45174 0.24377 0.75467 0.0
C370 C 0.40944 0.23102 0.70857 0.0
C371 C 0.45193 0.22213 0.66004 0.0
C372 C 0.40888 0.20894 0.61481 0.0
C373 C 0.32584 0.20532 0.61697 0.0
C374 C 0.28395 0.21479 0.66387 0.0
C375 C 0.32489 0.22757 0.70922 0.0
H376 H 0.88044 0.76799 0.14114 0.0
C377 C 0.82851 0.75289 0.13183 0.0
H378 H 0.74919 0.71735 0.16035 0.0
H379 H 0.00288 0.66625 0.33158 0.0
H380 H 0.96788 0.61707 0.27994 0.0
H381 H 0.87656 0.61902 0.20084 0.0
H382 H 0.81867 0.67004 0.17341 0.0
C383 C 0.80136 0.73239 0.16903 0.0
C384 C 0.84339 0.72989 0.22232 0.0
C385 C 0.87666 0.69985 0.23755 0.0
C386 C 0.93065 0.69883 0.28242 0.0
C387 C 0.96259 0.66848 0.29725 0.0
C388 C 0.94287 0.64006 0.26804 0.0
C389 C 0.8914 0.64115 0.22354 0.0
C390 C 0.85864 0.67063 0.20818 0.0
H391 H 0.94828 0.74867 0.4162 0.0
C392 C 0.00655 0.73903 0.40382 0.0
H393 H 0.07625 0.71863 0.33965 0.0
H394 H 0.76738 0.78868 0.21657 0.0
H395 H 0.80653 0.8388 0.26422 0.0
H396 H 0.91945 0.83941 0.3294 0.0
H397 H 0.99059 0.7901 0.34929 0.0
C398 C 0.01719 0.72709 0.3528 0.0
C399 C 0.95278 0.72795 0.31086 0.0
C400 C 0.91727 0.75795 0.29644 0.0
C401 C 0.85831 0.75835 0.25472 0.0
C402 C 0.81675 0.78769 0.24521 0.0
C403 C 0.83809 0.81649 0.27254 0.0
C404 C 0.90126 0.81679 0.30947 0.0
C405 C 0.94088 0.78802 0.32121 0.0
H406 H 0.97032 0.3418 0.39525 0.0
C407 C 0.97392 0.31669 0.40731 0.0
H408 H 0.02441 0.27044 0.38948 0.0
H409 H 0.01682 0.31829 0.14168 0.0
H410 H 0.87261 0.31107 0.15003 0.0
H411 H 0.81179 0.29939 0.23894 0.0
H412 H 0.89379 0.29582 0.31986 0.0
C413 C 0.02189 0.29589 0.37938 0.0
C414 C 0.05768 0.30474 0.32661 0.0
C415 C 0.00826 0.30581 0.27945 0.0
C416 C 0.04351 0.31079 0.22776 0.0
C417 C 0.99301 0.31321 0.18154 0.0
C418 C 0.91025 0.30933 0.18583 0.0
C419 C 0.87599 0.3029 0.2359 0.0
C420 C 0.92402 0.30109 0.28224 0.0
H421 H 0.11904 0.2616 0.15616 0.0
C422 C 0.15592 0.28056 0.13935 0.0
H423 H 0.20486 0.32742 0.15331 0.0
H424 H 0.16716 0.3071 0.40955 0.0
H425 H 0.31155 0.31378 0.40052 0.0
H426 H 0.37335 0.31996 0.31003 0.0
H427 H 0.29131 0.31977 0.22807 0.0
C428 C 0.16591 0.30855 0.16807 0.0
C429 C 0.12815 0.31252 0.22281 0.0
C430 C 0.17694 0.31335 0.27019 0.0
C431 C 0.14149 0.30948 0.32228 0.0
C432 C 0.19141 0.30975 0.36901 0.0
C433 C 0.27419 0.31359 0.36437 0.0
C434 C 0.30899 0.31708 0.31341 0.0
C435 C 0.26125 0.3169 0.26669 0.0
H436 H 0.79263 0.31461 0.67454 0.0
C437 C 0.83928 0.30468 0.64784 0.0
H438 H 0.95378 0.28371 0.64018 0.0
H439 H 0.93006 0.32616 0.9059 0.0
H440 H 0.89649 0.38124 0.88043 0.0
H441 H 0.8786 0.39434 0.78364 0.0
H442 H 0.89132 0.35256 0.71226 0.0
C443 C 0.9087 0.29382 0.66808 0.0
C444 C 0.9191 0.28748 0.72679 0.0
C445 C 0.91522 0.31282 0.76723 0.0
C446 C 0.93086 0.30583 0.82252 0.0
C447 C 0.9221 0.33082 0.86303 0.0
C448 C 0.90255 0.36234 0.84897 0.0
C449 C 0.89212 0.36967 0.79451 0.0
C450 C 0.89878 0.34534 0.7539 0.0
H451 H 0.08222 0.30856 0.87133 0.0
C452 C 0.07001 0.28783 0.8963 0.0
H453 H 0.99219 0.24931 0.91234 0.0
H454 H 0.9127 0.232 0.66139 0.0
H455 H 0.94401 0.17741 0.68801 0.0
H456 H 0.98256 0.16636 0.78277 0.0
H457 H 0.98855 0.2097 0.85141 0.0
C458 C 0.00388 0.27 0.88731 0.0
C459 C 0.95738 0.27444 0.8363 0.0
C460 C 0.9541 0.24856 0.79691 0.0
C461 C 0.93424 0.25507 0.74205 0.0
C462 C 0.93012 0.22874 0.70337 0.0
C463 C 0.9474 0.19716 0.71814 0.0
C464 C 0.96898 0.19094 0.77147 0.0
C465 C 0.97248 0.2162 0.81053 0.0
H466 H 0.17986 0.72996 0.6611 0.0
C467 C 0.14242 0.74671 0.63896 0.0
H468 H 0.03889 0.77603 0.63925 0.0
H469 H 0.00341 0.68339 0.85825 0.0
H470 H 0.0191 0.63614 0.79712 0.0
H471 H 0.04455 0.6426 0.69895 0.0
H472 H 0.05762 0.69599 0.66187 0.0
C473 C 0.07584 0.75933 0.66194 0.0
C474 C 0.05496 0.7544 0.72001 0.0
C475 C 0.04202 0.72285 0.73984 0.0
C476 C 0.02082 0.71911 0.7954 0.0
C477 C 0.01502 0.68744 0.81561 0.0
C478 C 0.02439 0.66019 0.78109 0.0
C479 C 0.03917 0.66383 0.72591 0.0
C480 C 0.04754 0.69471 0.70524 0.0
H481 H 0.86768 0.71536 0.85089 0.0
C482 C 0.89023 0.73027 0.88488 0.0
H483 H 0.98481 0.75798 0.91773 0.0
H484 H 0.08514 0.81797 0.69718 0.0
H485 H 0.06146 0.86494 0.75684 0.0
H486 H 0.00865 0.8588 0.84983 0.0
H487 H 0.98133 0.80589 0.88403 0.0
C488 C 0.9635 0.7436 0.88277 0.0
C489 C 0.00459 0.74683 0.82939 0.0
C490 C 0.01862 0.77837 0.80985 0.0
C491 C 0.04564 0.78205 0.75548 0.0
C492 C 0.06197 0.81372 0.7375 0.0
C493 C 0.049 0.84097 0.77142 0.0
C494 C 0.01952 0.83751 0.82377 0.0
C495 C 0.00431 0.80673 0.84296 0.0
loop_
_geom_bond_atom_site_label_1
_geom_bond_atom_site_label_2
_geom_bond_distance
_geom_bond_site_symmetry_2
_ccdc_geom_bond_type
C0 O16 1.251 . S
C0 O18 1.254 . S
N1 C2 1.333 1_554 S
N1 C6 1.307 . S
N1 Zn7 2.020 . S
C2 N1 1.333 1_556 S
C2 C3 1.379 . S
C2 H20 0.952 . S
C3 C2 1.379 . S
C3 C4 1.390 1_556 S
C3 H30 0.949 . S
C4 C3 1.390 1_554 S
C4 C5 1.357 . S
C5 C4 1.357 . S
C5 C6 1.370 . S
C5 H31 0.950 . S
C6 N1 1.307 . S
C6 C5 1.370 . S
C6 H24 0.948 . S
Zn7 N1 2.020 . S
Zn7 O16 2.039 1_554 S
Zn7 O22 2.034 . S
Zn7 O26 2.025 . S
Zn7 O28 2.024 1_554 S
C8 O27 1.246 . S
C8 O28 1.249 . S
N9 C10 1.307 . S
N9 C11 1.333 1_556 S
N9 Zn15 2.020 . S
C10 N9 1.307 . S
C10 C14 1.370 . S
C10 H21 0.948 . S
C11 N9 1.333 1_554 S
C11 C12 1.379 . S
C11 H19 0.952 . S
C12 C11 1.379 . S
C12 C13 1.390 1_554 S
C12 H32 0.949 . S
C13 C12 1.390 1_556 S
C13 C14 1.357 . S
C14 C10 1.370 . S
C14 C13 1.357 . S
C14 H33 0.950 . S
Zn15 N9 2.020 . S
Zn15 O18 2.040 . S
Zn15 O23 2.010 1_556 S
Zn15 O25 2.024 1_556 S
Zn15 O27 2.048 . S
O16 C0 1.251 . S
O16 Zn7 2.039 1_556 S
C17 O22 1.246 . S
C17 O23 1.249 . S
O18 C0 1.254 . S
O18 Zn15 2.040 . S
H19 C11 0.952 . S
H20 C2 0.952 . S
H21 C10 0.948 . S
O22 Zn7 2.034 . S
O22 C17 1.246 . S
O23 Zn15 2.010 1_554 S
O23 C17 1.249 . S
H24 C6 0.948 . S
O25 Zn15 2.024 1_554 S
O25 C29 1.251 . S
O26 Zn7 2.025 . S
O26 C29 1.254 . S
O27 C8 1.246 . S
O27 Zn15 2.048 . S
O28 Zn7 2.024 1_556 S
O28 C8 1.249 . S
C29 O25 1.251 . S
C29 O26 1.254 . S
H30 C3 0.949 . S
H31 C5 0.950 . S
H32 C12 0.949 . S
H33 C14 0.950 . S
C34 O50 1.251 . S
C34 O52 1.254 . S
N35 C36 1.333 1_554 S
N35 C40 1.307 . S
N35 Zn41 2.020 . S
C36 N35 1.333 1_556 S
C36 C37 1.379 . S
C36 H54 0.952 . S
C37 C36 1.379 . S
C37 C38 1.390 1_556 S
C37 H64 0.949 . S
C38 C37 1.390 1_554 S
C38 C39 1.357 . S
C39 C38 1.357 . S
C39 C40 1.370 . S
C39 H65 0.950 . S
C40 N35 1.307 . S
C40 C39 1.370 . S
C40 H58 0.948 . S
Zn41 N35 2.020 . S
Zn41 O50 2.039 1_554 S
Zn41 O56 2.034 . S
Zn41 O60 2.025 . S
Zn41 O62 2.024 1_554 S
C42 O61 1.246 . S
C42 O62 1.249 . S
N43 C44 1.307 . S
N43 C45 1.333 1_556 S
N43 Zn49 2.020 . S
C44 N43 1.307 . S
C44 C48 1.370 . S
C44 H55 0.948 . S
C45 N43 1.333 1_554 S
C45 C46 1.379 . S
C45 H53 0.952 . S
C46 C45 1.379 . S
C46 C47 1.390 1_554 S
C46 H66 0.949 . S
C47 C46 1.390 1_556 S
C47 C48 1.357 . S
C48 C44 1.370 . S
C48 C47 1.357 . S
C48 H67 0.950 . S
Zn49 N43 2.020 . S
Zn49 O52 2.040 . S
Zn49 O57 2.010 1_556 S
Zn49 O59 2.024 1_556 S
Zn49 O61 2.048 . S
O50 C34 1.251 . S
O50 Zn41 2.039 1_556 S
C51 O56 1.246 . S
C51 O57 1.249 . S
O52 C34 1.254 . S
O52 Zn49 2.040 . S
H53 C45 0.952 . S
H54 C36 0.952 . S
H55 C44 0.948 . S
O56 Zn41 2.034 . S
O56 C51 1.246 . S
O57 Zn49 2.010 1_554 S
O57 C51 1.249 . S
H58 C40 0.948 . S
O59 Zn49 2.024 1_554 S
O59 C63 1.251 . S
O60 Zn41 2.025 . S
O60 C63 1.254 . S
O61 C42 1.246 . S
O61 Zn49 2.048 . S
O62 Zn41 2.024 1_556 S
O62 C42 1.249 . S
C63 O59 1.251 . S
C63 O60 1.254 . S
H64 C37 0.949 . S
H65 C39 0.950 . S
H66 C46 0.949 . S
H67 C48 0.950 . S
C68 O84 1.251 . S
C68 O86 1.254 . S
N69 C70 1.333 . S
N69 C74 1.307 . S
N69 Zn75 2.020 . S
C70 N69 1.333 . S
C70 C71 1.379 . S
C70 H88 0.952 . S
C71 C70 1.379 . S
C71 C72 1.390 . S
C71 H98 0.949 . S
C72 C71 1.390 . S
C72 C73 1.357 . S
C73 C72 1.357 . S
C73 C74 1.370 . S
C73 H99 0.950 . S
C74 N69 1.307 . S
C74 C73 1.370 . S
C74 H92 0.948 . S
Zn75 N69 2.020 . S
Zn75 O84 2.039 . S
Zn75 O90 2.034 . S
Zn75 O94 2.025 . S
Zn75 O96 2.024 . S
C76 O95 1.246 . S
C76 O96 1.249 . S
N77 C78 1.307 . S
N77 C79 1.333 . S
N77 Zn83 2.020 . S
C78 N77 1.307 . S
C78 C82 1.370 . S
C78 H89 0.948 . S
C79 N77 1.333 . S
C79 C80 1.379 . S
C79 H87 0.952 . S
C80 C79 1.379 . S
C80 C81 1.390 . S
C80 H100 0.949 . S
C81 C80 1.390 . S
C81 C82 1.357 . S
C82 C78 1.370 . S
C82 C81 1.357 . S
C82 H101 0.950 . S
Zn83 N77 2.020 . S
Zn83 O86 2.025 . S
Zn83 O91 2.024 . S
Zn83 O93 2.039 . S
Zn83 O95 2.034 . S
O84 C68 1.251 . S
O84 Zn75 2.039 . S
C85 O90 1.246 . S
C85 O91 1.249 . S
O86 C68 1.254 . S
O86 Zn83 2.025 . S
H87 C79 0.952 . S
H88 C70 0.952 . S
H89 C78 0.948 . S
O90 Zn75 2.034 . S
O90 C85 1.246 . S
O91 Zn83 2.024 . S
O91 C85 1.249 . S
H92 C74 0.948 . S
O93 Zn83 2.039 . S
O93 C97 1.251 . S
O94 Zn75 2.025 . S
O94 C97 1.254 . S
O95 C76 1.246 . S
O95 Zn83 2.034 . S
O96 Zn75 2.024 . S
O96 C76 1.249 . S
C97 O93 1.251 . S
C97 O94 1.254 . S
H98 C71 0.949 . S
H99 C73 0.950 . S
H100 C80 0.949 . S
H101 C82 0.950 . S
C102 O118 1.251 . S
C102 O120 1.254 . S
N103 C104 1.333 . S
N103 C108 1.307 . S
N103 Zn109 2.020 . S
C104 N103 1.333 . S
C104 C105 1.379 . S
C104 H122 0.952 . S
C105 C104 1.379 . S
C105 C106 1.390 . S
C105 H132 0.949 . S
C106 C105 1.390 . S
C106 C107 1.357 . S
C107 C106 1.357 . S
C107 C108 1.370 . S
C107 H133 0.950 . S
C108 N103 1.307 . S
C108 C107 1.370 . S
C108 H126 0.948 . S
Zn109 N103 2.020 . S
Zn109 O118 2.039 . S
Zn109 O124 2.034 . S
Zn109 O128 2.025 . S
Zn109 O130 2.024 . S
C110 O129 1.246 . S
C110 O130 1.249 . S
N111 C112 1.307 . S
N111 C113 1.333 . S
N111 Zn117 2.020 . S
C112 N111 1.307 . S
C112 C116 1.370 . S
C112 H123 0.948 . S
C113 N111 1.333 . S
C113 C114 1.379 . S
C113 H121 0.952 . S
C114 C113 1.379 . S
C114 C115 1.390 . S
C114 H134 0.949 . S
C115 C114 1.390 . S
C115 C116 1.357 . S
C116 C112 1.370 . S
C116 C115 1.357 . S
C116 H135 0.950 . S
Zn117 N111 2.020 . S
Zn117 O120 2.025 . S
Zn117 O125 2.024 . S
Zn117 O127 2.039 . S
Zn117 O129 2.034 . S
O118 C102 1.251 . S
O118 Zn109 2.039 . S
C119 O124 1.246 . S
C119 O125 1.249 . S
O120 C102 1.254 . S
O120 Zn117 2.025 . S
H121 C113 0.952 . S
H122 C104 0.952 . S
H123 C112 0.948 . S
O124 Zn109 2.034 . S
O124 C119 1.246 . S
O125 Zn117 2.024 . S
O125 C119 1.249 . S
H126 C108 0.948 . S
O127 Zn117 2.039 . S
O127 C131 1.251 . S
O128 Zn109 2.025 . S
O128 C131 1.254 . S
O129 C110 1.246 . S
O129 Zn117 2.034 . S
O130 Zn109 2.024 . S
O130 C110 1.249 . S
C131 O127 1.251 . S
C131 O128 1.254 . S
H132 C105 0.949 . S
H133 C107 0.950 . S
H134 C114 0.949 . S
H135 C116 0.950 . S
H136 C137 0.951 . S
C137 H136 0.951 . S
C137 C143 1.265 1_556 S
H138 C143 0.950 . S
H139 C147 0.949 . S
H140 C148 0.950 . S
H141 C149 0.951 . S
H142 C150 0.951 . S
C143 C137 1.265 1_554 S
C143 H138 0.950 . S
C143 C144 1.478 . S
C144 C143 1.478 . S
C144 C145 1.397 . S
C144 C161 1.394 1_554 S
C145 C144 1.397 . S
C145 C146 1.438 . S
C145 C150 1.429 . S
C146 C145 1.438 . S
C146 C147 1.428 . S
C146 C159 1.394 1_554 S
C147 H139 0.949 . S
C147 C146 1.428 . S
C147 C148 1.345 . S
C148 H140 0.950 . S
C148 C147 1.345 . S
C148 C149 1.424 . S
C149 H141 0.951 . S
C149 C148 1.424 . S
C149 C150 1.347 . S
C150 H142 0.951 . S
C150 C145 1.429 . S
C150 C149 1.347 . S
H151 C152 0.951 . S
C152 H151 0.951 . S
C152 C158 1.265 1_554 S
H153 C158 0.950 . S
H154 C162 0.949 . S
H155 C163 0.950 . S
H156 C164 0.951 . S
H157 C165 0.951 . S
C158 C152 1.265 1_556 S
C158 H153 0.950 . S
C158 C159 1.478 . S
C159 C146 1.394 1_556 S
C159 C158 1.478 . S
C159 C160 1.397 . S
C160 C159 1.397 . S
C160 C161 1.438 . S
C160 C165 1.429 . S
C161 C144 1.394 1_556 S
C161 C160 1.438 . S
C161 C162 1.428 . S
C162 H154 0.949 . S
C162 C161 1.428 . S
C162 C163 1.345 . S
C163 H155 0.950 . S
C163 C162 1.345 . S
C163 C164 1.424 . S
C164 H156 0.951 . S
C164 C163 1.424 . S
C164 C165 1.347 . S
C165 H157 0.951 . S
C165 C160 1.429 . S
C165 C164 1.347 . S
H166 C167 0.951 . S
C167 H166 0.951 . S
C167 C173 1.265 . S
H168 C173 0.950 . S
H169 C177 0.949 . S
H170 C178 0.950 . S
H171 C179 0.951 . S
H172 C180 0.951 . S
C173 C167 1.265 . S
C173 H168 0.950 . S
C173 C174 1.478 . S
C174 C173 1.478 . S
C174 C175 1.397 . S
C174 C191 1.394 . S
C175 C174 1.397 . S
C175 C176 1.438 . S
C175 C180 1.429 . S
C176 C175 1.438 . S
C176 C177 1.428 . S
C176 C189 1.394 . S
C177 H169 0.949 . S
C177 C176 1.428 . S
C177 C178 1.345 . S
C178 H170 0.950 . S
C178 C177 1.345 . S
C178 C179 1.424 . S
C179 H171 0.951 . S
C179 C178 1.424 . S
C179 C180 1.347 . S
C180 H172 0.951 . S
C180 C175 1.429 . S
C180 C179 1.347 . S
H181 C182 0.951 . S
C182 H181 0.951 . S
C182 C188 1.265 . S
H183 C188 0.950 . S
H184 C192 0.949 . S
H185 C193 0.950 . S
H186 C194 0.951 . S
H187 C195 0.951 . S
C188 C182 1.265 . S
C188 H183 0.950 . S
C188 C189 1.478 . S
C189 C176 1.394 . S
C189 C188 1.478 . S
C189 C190 1.397 . S
C190 C189 1.397 . S
C190 C191 1.438 . S
C190 C195 1.429 . S
C191 C174 1.394 . S
C191 C190 1.438 . S
C191 C192 1.428 . S
C192 H184 0.949 . S
C192 C191 1.428 . S
C192 C193 1.345 . S
C193 H185 0.950 . S
C193 C192 1.345 . S
C193 C194 1.424 . S
C194 H186 0.951 . S
C194 C193 1.424 . S
C194 C195 1.347 . S
C195 H187 0.951 . S
C195 C190 1.429 . S
C195 C194 1.347 . S
H196 C197 0.951 . S
C197 H196 0.951 . S
C197 C203 1.265 1_554 S
H198 C203 0.950 . S
H199 C207 0.949 . S
H200 C208 0.950 . S
H201 C209 0.951 . S
H202 C210 0.951 . S
C203 C197 1.265 1_556 S
C203 H198 0.950 . S
C203 C204 1.478 . S
C204 C203 1.478 . S
C204 C205 1.397 . S
C204 C221 1.394 1_556 S
C205 C204 1.397 . S
C205 C206 1.438 1_445 S
C205 C210 1.429 . S
C206 C205 1.438 1_665 S
C206 C207 1.428 . S
C206 C219 1.394 1_556 S
C207 H199 0.949 . S
C207 C206 1.428 . S
C207 C208 1.345 . S
C208 H200 0.950 . S
C208 C207 1.345 . S
C208 C209 1.424 1_565 S
C209 H201 0.951 . S
C209 C208 1.424 1_545 S
C209 C210 1.347 1_655 S
C210 H202 0.951 . S
C210 C205 1.429 . S
C210 C209 1.347 1_455 S
H211 C212 0.951 . S
C212 H211 0.951 . S
C212 C218 1.265 1_556 S
H213 C218 0.950 . S
H214 C222 0.949 . S
H215 C223 0.950 . S
H216 C224 0.951 . S
H217 C225 0.951 . S
C218 C212 1.265 1_554 S
C218 H213 0.950 . S
C218 C219 1.478 . S
C219 C206 1.394 1_554 S
C219 C218 1.478 . S
C219 C220 1.397 . S
C220 C219 1.397 . S
C220 C221 1.438 1_665 S
C220 C225 1.429 . S
C221 C204 1.394 1_554 S
C221 C220 1.438 1_445 S
C221 C222 1.428 . S
C222 H214 0.949 . S
C222 C221 1.428 . S
C222 C223 1.345 . S
C223 H215 0.950 . S
C223 C222 1.345 . S
C223 C224 1.424 1_545 S
C224 H216 0.951 . S
C224 C223 1.424 1_565 S
C224 C225 1.347 1_455 S
C225 H217 0.951 . S
C225 C220 1.429 . S
C225 C224 1.347 1_655 S
H226 C227 0.951 . S
C227 H226 0.951 . S
C227 C233 1.265 . S
H228 C233 0.950 . S
H229 C237 0.949 . S
H230 C238 0.950 . S
H231 C239 0.951 . S
H232 C240 0.951 . S
C233 C227 1.265 . S
C233 H228 0.950 . S
C233 C234 1.478 . S
C234 C233 1.478 . S
C234 C235 1.397 . S
C234 C251 1.394 . S
C235 C234 1.397 . S
C235 C236 1.438 1_645 S
C235 C240 1.429 . S
C236 C235 1.438 1_465 S
C236 C237 1.428 . S
C236 C249 1.394 . S
C237 H229 0.949 . S
C237 C236 1.428 . S
C237 C238 1.345 1_455 S
C238 H230 0.950 . S
C238 C237 1.345 1_655 S
C238 C239 1.424 . S
C239 H231 0.951 . S
C239 C238 1.424 . S
C239 C240 1.347 1_565 S
C240 H232 0.951 . S
C240 C235 1.429 . S
C240 C239 1.347 1_545 S
H241 C242 0.951 . S
C242 H241 0.951 . S
C242 C248 1.265 . S
H243 C248 0.950 . S
H244 C252 0.949 . S
H245 C253 0.950 . S
H246 C254 0.951 . S
H247 C255 0.951 . S
C248 C242 1.265 . S
C248 H243 0.950 . S
C248 C249 1.478 . S
C249 C236 1.394 . S
C249 C248 1.478 . S
C249 C250 1.397 . S
C250 C249 1.397 . S
C250 C251 1.438 1_465 S
C250 C255 1.429 . S
C251 C234 1.394 . S
C251 C250 1.438 1_645 S
C251 C252 1.428 . S
C252 H244 0.949 . S
C252 C251 1.428 . S
C252 C253 1.345 1_655 S
C253 H245 0.950 . S
C253 C252 1.345 1_455 S
C253 C254 1.424 . S
C254 H246 0.951 . S
C254 C253 1.424 . S
C254 C255 1.347 1_545 S
C255 H247 0.951 . S
C255 C250 1.429 . S
C255 C254 1.347 1_565 S
H256 C257 0.951 . S
C257 H256 0.951 . S
C257 C263 1.265 . S
H258 C263 0.950 . S
H259 C267 0.949 . S
H260 C268 0.950 . S
H261 C269 0.951 . S
H262 C270 0.951 . S
C263 C257 1.265 . S
C263 H258 0.950 . S
C263 C264 1.478 . S
C264 C263 1.478 . S
C264 C265 1.397 . S
C264 C281 1.394 . S
C265 C264 1.397 . S
C265 C266 1.438 . S
C265 C270 1.429 . S
C266 C265 1.438 . S
C266 C267 1.428 . S
C266 C279 1.394 . S
C267 H259 0.949 . S
C267 C266 1.428 . S
C267 C268 1.345 . S
C268 H260 0.950 . S
C268 C267 1.345 . S
C268 C269 1.424 . S
C269 H261 0.951 . S
C269 C268 1.424 . S
C269 C270 1.347 . S
C270 H262 0.951 . S
C270 C265 1.429 . S
C270 C269 1.347 . S
H271 C272 0.951 . S
C272 H271 0.951 . S
C272 C278 1.265 . S
H273 C278 0.950 . S
H274 C282 0.949 . S
H275 C283 0.950 . S
H276 C284 0.951 . S
H277 C285 0.951 . S
C278 C272 1.265 . S
C278 H273 0.950 . S
C278 C279 1.478 . S
C279 C266 1.394 . S
C279 C278 1.478 . S
C279 C280 1.397 . S
C280 C279 1.397 . S
C280 C281 1.438 . S
C280 C285 1.429 . S
C281 C264 1.394 . S
C281 C280 1.438 . S
C281 C282 1.428 . S
C282 H274 0.949 . S
C282 C281 1.428 . S
C282 C283 1.345 . S
C283 H275 0.950 . S
C283 C282 1.345 . S
C283 C284 1.424 . S
C284 H276 0.951 . S
C284 C283 1.424 . S
C284 C285 1.347 . S
C285 H277 0.951 . S
C285 C280 1.429 . S
C285 C284 1.347 . S
H286 C287 0.951 . S
C287 H286 0.951 . S
C287 C293 1.265 . S
H288 C293 0.950 . S
H289 C297 0.949 . S
H290 C298 0.950 . S
H291 C299 0.951 . S
H292 C300 0.951 . S
C293 C287 1.265 . S
C293 H288 0.950 . S
C293 C294 1.478 . S
C294 C293 1.478 . S
C294 C295 1.397 . S
C294 C311 1.394 . S
C295 C294 1.397 . S
C295 C296 1.438 . S
C295 C300 1.429 . S
C296 C295 1.438 . S
C296 C297 1.428 . S
C296 C309 1.394 . S
C297 H289 0.949 . S
C297 C296 1.428 . S
C297 C298 1.345 . S
C298 H290 0.950 . S
C298 C297 1.345 . S
C298 C299 1.424 . S
C299 H291 0.951 . S
C299 C298 1.424 . S
C299 C300 1.347 . S
C300 H292 0.951 . S
C300 C295 1.429 . S
C300 C299 1.347 . S
H301 C302 0.951 . S
C302 H301 0.951 . S
C302 C308 1.265 . S
H303 C308 0.950 . S
H304 C312 0.949 . S
H305 C313 0.950 . S
H306 C314 0.951 . S
H307 C315 0.951 . S
C308 C302 1.265 . S
C308 H303 0.950 . S
C308 C309 1.478 . S
C309 C296 1.394 . S
C309 C308 1.478 . S
C309 C310 1.397 . S
C310 C309 1.397 . S
C310 C311 1.438 . S
C310 C315 1.429 . S
C311 C294 1.394 . S
C311 C310 1.438 . S
C311 C312 1.428 . S
C312 H304 0.949 . S
C312 C311 1.428 . S
C312 C313 1.345 . S
C313 H305 0.950 . S
C313 C312 1.345 . S
C313 C314 1.424 . S
C314 H306 0.951 . S
C314 C313 1.424 . S
C314 C315 1.347 . S
C315 H307 0.951 . S
C315 C310 1.429 . S
C315 C314 1.347 . S
H316 C317 0.951 . S
C317 H316 0.951 . S
C317 C323 1.265 . S
H318 C323 0.950 . S
H319 C327 0.949 . S
H320 C328 0.950 . S
H321 C329 0.951 . S
H322 C330 0.951 . S
C323 C317 1.265 . S
C323 H318 0.950 . S
C323 C324 1.478 . S
C324 C323 1.478 . S
C324 C325 1.397 . S
C324 C341 1.394 . S
C325 C324 1.397 . S
C325 C326 1.438 . S
C325 C330 1.429 . S
C326 C325 1.438 . S
C326 C327 1.428 . S
C326 C339 1.394 . S
C327 H319 0.949 . S
C327 C326 1.428 . S
C327 C328 1.345 . S
C328 H320 0.950 . S
C328 C327 1.345 . S
C328 C329 1.424 . S
C329 H321 0.951 . S
C329 C328 1.424 . S
C329 C330 1.347 . S
C330 H322 0.951 . S
C330 C325 1.429 . S
C330 C329 1.347 . S
H331 C332 0.951 . S
C332 H331 0.951 . S
C332 C338 1.265 . S
H333 C338 0.950 . S
H334 C342 0.949 . S
H335 C343 0.950 . S
H336 C344 0.951 . S
H337 C345 0.951 . S
C338 C332 1.265 . S
C338 H333 0.950 . S
C338 C339 1.478 . S
C339 C326 1.394 . S
C339 C338 1.478 . S
C339 C340 1.397 . S
C340 C339 1.397 . S
C340 C341 1.438 . S
C340 C345 1.429 . S
C341 C324 1.394 . S
C341 C340 1.438 . S
C341 C342 1.428 . S
C342 H334 0.949 . S
C342 C341 1.428 . S
C342 C343 1.345 . S
C343 H335 0.950 . S
C343 C342 1.345 . S
C343 C344 1.424 . S
C344 H336 0.951 . S
C344 C343 1.424 . S
C344 C345 1.347 . S
C345 H337 0.951 . S
C345 C340 1.429 . S
C345 C344 1.347 . S
H346 C347 0.951 . S
C347 H346 0.951 . S
C347 C353 1.265 . S
H348 C353 0.950 . S
H349 C357 0.949 . S
H350 C358 0.950 . S
H351 C359 0.951 . S
H352 C360 0.951 . S
C353 C347 1.265 . S
C353 H348 0.950 . S
C353 C354 1.478 . S
C354 C353 1.478 . S
C354 C355 1.397 . S
C354 C371 1.394 . S
C355 C354 1.397 . S
C355 C356 1.438 . S
C355 C360 1.429 . S
C356 C355 1.438 . S
C356 C357 1.428 . S
C356 C369 1.394 . S
C357 H349 0.949 . S
C357 C356 1.428 . S
C357 C358 1.345 . S
C358 H350 0.950 . S
C358 C357 1.345 . S
C358 C359 1.424 . S
C359 H351 0.951 . S
C359 C358 1.424 . S
C359 C360 1.347 . S
C360 H352 0.951 . S
C360 C355 1.429 . S
C360 C359 1.347 . S
H361 C362 0.951 . S
C362 H361 0.951 . S
C362 C368 1.265 . S
H363 C368 0.950 . S
H364 C372 0.949 . S
H365 C373 0.950 . S
H366 C374 0.951 . S
H367 C375 0.951 . S
C368 C362 1.265 . S
C368 H363 0.950 . S
C368 C369 1.478 . S
C369 C356 1.394 . S
C369 C368 1.478 . S
C369 C370 1.397 . S
C370 C369 1.397 . S
C370 C371 1.438 . S
C370 C375 1.429 . S
C371 C354 1.394 . S
C371 C370 1.438 . S
C371 C372 1.428 . S
C372 H364 0.949 . S
C372 C371 1.428 . S
C372 C373 1.345 . S
C373 H365 0.950 . S
C373 C372 1.345 . S
C373 C374 1.424 . S
C374 H366 0.951 . S
C374 C373 1.424 . S
C374 C375 1.347 . S
C375 H367 0.951 . S
C375 C370 1.429 . S
C375 C374 1.347 . S
H376 C377 0.951 . S
C377 H376 0.951 . S
C377 C383 1.265 . S
H378 C383 0.950 . S
H379 C387 0.949 . S
H380 C388 0.950 . S
H381 C389 0.951 . S
H382 C390 0.951 . S
C383 C377 1.265 . S
C383 H378 0.950 . S
C383 C384 1.478 . S
C384 C383 1.478 . S
C384 C385 1.397 . S
C384 C401 1.394 . S
C385 C384 1.397 . S
C385 C386 1.438 1_655 S
C385 C390 1.429 . S
C386 C385 1.438 1_455 S
C386 C387 1.428 . S
C386 C399 1.394 . S
C387 H379 0.949 . S
C387 C386 1.428 . S
C387 C388 1.345 1_455 S
C388 H380 0.950 . S
C388 C387 1.345 1_655 S
C388 C389 1.424 . S
C389 H381 0.951 . S
C389 C388 1.424 . S
C389 C390 1.347 . S
C390 H382 0.951 . S
C390 C385 1.429 . S
C390 C389 1.347 . S
H391 C392 0.951 . S
C392 H391 0.951 . S
C392 C398 1.265 . S
H393 C398 0.950 . S
H394 C402 0.949 . S
H395 C403 0.950 . S
H396 C404 0.951 . S
H397 C405 0.951 . S
C398 C392 1.265 . S
C398 H393 0.950 . S
C398 C399 1.478 . S
C399 C386 1.394 . S
C399 C398 1.478 . S
C399 C400 1.397 . S
C400 C399 1.397 . S
C400 C401 1.438 1_455 S
C400 C405 1.429 . S
C401 C384 1.394 . S
C401 C400 1.438 1_655 S
C401 C402 1.428 . S
C402 H394 0.949 . S
C402 C401 1.428 . S
C402 C403 1.345 1_655 S
C403 H395 0.950 . S
C403 C402 1.345 1_455 S
C403 C404 1.424 . S
C404 H396 0.951 . S
C404 C403 1.424 . S
C404 C405 1.347 . S
C405 H397 0.951 . S
C405 C400 1.429 . S
C405 C404 1.347 . S
H406 C407 0.951 . S
C407 H406 0.951 . S
C407 C413 1.265 . S
H408 C413 0.950 . S
H409 C417 0.949 1_455 S
H410 C418 0.950 . S
H411 C419 0.951 . S
H412 C420 0.951 . S
C413 C407 1.265 . S
C413 H408 0.950 . S
C413 C414 1.478 . S
C414 C413 1.478 . S
C414 C415 1.397 . S
C414 C431 1.393 1_655 S
C415 C414 1.397 . S
C415 C416 1.438 . S
C415 C420 1.429 . S
C416 C415 1.438 . S
C416 C417 1.428 . S
C416 C429 1.394 1_655 S
C417 H409 0.949 1_655 S
C417 C416 1.428 . S
C417 C418 1.345 . S
C418 H410 0.950 . S
C418 C417 1.345 . S
C418 C419 1.424 . S
C419 H411 0.951 . S
C419 C418 1.424 . S
C419 C420 1.347 . S
C420 H412 0.951 . S
C420 C415 1.429 . S
C420 C419 1.347 . S
H421 C422 0.951 . S
C422 H421 0.951 . S
C422 C428 1.265 . S
H423 C428 0.950 . S
H424 C432 0.949 1_655 S
H425 C433 0.950 . S
H426 C434 0.951 . S
H427 C435 0.951 . S
C428 C422 1.265 . S
C428 H423 0.950 . S
C428 C429 1.478 . S
C429 C416 1.394 1_455 S
C429 C428 1.478 . S
C429 C430 1.397 . S
C430 C429 1.397 . S
C430 C431 1.438 . S
C430 C435 1.429 . S
C431 C414 1.393 1_455 S
C431 C430 1.438 . S
C431 C432 1.428 . S
C432 H424 0.949 1_455 S
C432 C431 1.428 . S
C432 C433 1.345 . S
C433 H425 0.950 . S
C433 C432 1.345 . S
C433 C434 1.424 . S
C434 H426 0.951 . S
C434 C433 1.424 . S
C434 C435 1.347 . S
C435 H427 0.951 . S
C435 C430 1.429 . S
C435 C434 1.347 . S
H436 C437 0.951 . S
C437 H436 0.951 . S
C437 C443 1.265 . S
H438 C443 0.950 . S
H439 C447 0.949 . S
H440 C448 0.950 . S
H441 C449 0.951 . S
H442 C450 0.951 . S
C443 C437 1.265 . S
C443 H438 0.950 . S
C443 C444 1.478 . S
C444 C443 1.478 . S
C444 C445 1.397 1_655 S
C444 C461 1.394 . S
C445 C444 1.397 1_455 S
C445 C446 1.438 . S
C445 C450 1.429 . S
C446 C445 1.438 . S
C446 C447 1.428 . S
C446 C459 1.394 . S
C447 H439 0.949 . S
C447 C446 1.428 . S
C447 C448 1.345 . S
C448 H440 0.950 . S
C448 C447 1.345 . S
C448 C449 1.424 . S
C449 H441 0.951 . S
C449 C448 1.424 . S
C449 C450 1.347 . S
C450 H442 0.951 . S
C450 C445 1.429 . S
C450 C449 1.347 . S
H451 C452 0.951 . S
C452 H451 0.951 . S
C452 C458 1.265 . S
H453 C458 0.950 . S
H454 C462 0.949 . S
H455 C463 0.950 . S
H456 C464 0.951 . S
H457 C465 0.951 . S
C458 C452 1.265 . S
C458 H453 0.950 . S
C458 C459 1.478 . S
C459 C446 1.394 . S
C459 C458 1.478 . S
C459 C460 1.397 1_455 S
C460 C459 1.397 1_655 S
C460 C461 1.438 . S
C460 C465 1.429 . S
C461 C444 1.394 . S
C461 C460 1.438 . S
C461 C462 1.428 . S
C462 H454 0.949 . S
C462 C461 1.428 . S
C462 C463 1.345 . S
C463 H455 0.950 . S
C463 C462 1.345 . S
C463 C464 1.424 . S
C464 H456 0.951 . S
C464 C463 1.424 . S
C464 C465 1.347 . S
C465 H457 0.951 . S
C465 C460 1.429 . S
C465 C464 1.347 . S
H466 C467 0.951 . S
C467 H466 0.951 . S
C467 C473 1.265 . S
H468 C473 0.950 . S
H469 C477 0.949 . S
H470 C478 0.950 . S
H471 C479 0.951 . S
H472 C480 0.951 . S
C473 C467 1.265 . S
C473 H468 0.950 . S
C473 C474 1.478 . S
C474 C473 1.478 . S
C474 C475 1.397 1_455 S
C474 C491 1.394 . S
C475 C474 1.397 1_655 S
C475 C476 1.438 . S
C475 C480 1.429 . S
C476 C475 1.438 . S
C476 C477 1.428 . S
C476 C489 1.394 . S
C477 H469 0.949 . S
C477 C476 1.428 . S
C477 C478 1.345 . S
C478 H470 0.950 . S
C478 C477 1.345 . S
C478 C479 1.424 . S
C479 H471 0.951 . S
C479 C478 1.424 . S
C479 C480 1.347 . S
C480 H472 0.951 . S
C480 C475 1.429 . S
C480 C479 1.347 . S
H481 C482 0.951 . S
C482 H481 0.951 . S
C482 C488 1.265 . S
H483 C488 0.950 . S
H484 C492 0.949 . S
H485 C493 0.950 . S
H486 C494 0.951 . S
H487 C495 0.951 . S
C488 C482 1.265 . S
C488 H483 0.950 . S
C488 C489 1.478 . S
C489 C476 1.394 . S
C489 C488 1.478 . S
C489 C490 1.397 1_655 S
C490 C489 1.397 1_455 S
C490 C491 1.438 . S
C490 C495 1.429 . S
C491 C474 1.394 . S
C491 C490 1.438 . S
C491 C492 1.428 . S
C492 H484 0.949 . S
C492 C491 1.428 . S
C492 C493 1.345 . S
C493 H485 0.950 . S
C493 C492 1.345 . S
C493 C494 1.424 . S
C494 H486 0.951 . S
C494 C493 1.424 . S
C494 C495 1.347 . S
C495 H487 0.951 . S
C495 C490 1.429 . S
C495 C494 1.347 . S
C137 C47 1.600 . S
C152 C4 1.600 . S
C167 C72 1.600 . S
C182 C115 1.600 . S
C197 C13 1.645 1_554 S
C212 C38 1.645 1_556 S
C227 C106 1.601 . S
C242 C81 1.601 . S
C257 C131 0.957 . S
C272 C17 0.969 . S
C287 C63 0.989 . S
C302 C85 0.974 . S
C317 C42 1.005 . S
C332 C68 1.012 . S
C347 C110 1.005 . S
C362 C0 1.014 . S
C377 C51 1.005 . S
C392 C97 1.012 . S
C407 C119 1.005 . S
C422 C29 1.010 . S
C437 C102 0.956 . S
C452 C8 0.972 . S
C467 C76 0.970 . S
C482 C34 0.959 . S
