# Generated by pormake.
# Topology ukr, (4)-cn, num edge types: 1
# Building blocks:
#     Node 0, Type 0, BuildingBlock: QUQFOY_clean_sbu_1, # of connection points: 4
#     Node 1, Type 0, BuildingBlock: QUQFOY_clean_sbu_1, # of connection points: 4
#     Node 2, Type 0, BuildingBlock: QUQFOY_clean_sbu_1, # of connection points: 4
#     Node 3, Type 0, BuildingBlock: QUQFOY_clean_sbu_1, # of connection points: 4
#     Node 4, Type 0, BuildingBlock: QUQFOY_clean_sbu_1, # of connection points: 4
#     Node 5, Type 0, BuildingBlock: QUQFOY_clean_sbu_1, # of connection points: 4
#     Node 6, Type 0, BuildingBlock: QUQFOY_clean_sbu_1, # of connection points: 4
#     Node 7, Type 0, BuildingBlock: QUQFOY_clean_sbu_1, # of connection points: 4
#     Node 8, Type 0, BuildingBlock: QUQFOY_clean_sbu_1, # of connection points: 4
#     Node 9, Type 0, BuildingBlock: QUQFOY_clean_sbu_1, # of connection points: 4
#     Node 10, Type 0, BuildingBlock: QUQFOY_clean_sbu_1, # of connection points: 4
#     Node 11, Type 0, BuildingBlock: QUQFOY_clean_sbu_1, # of connection points: 4
#     Node 12, Type 0, BuildingBlock: QUQFOY_clean_sbu_1, # of connection points: 4
#     Node 13, Type 0, BuildingBlock: QUQFOY_clean_sbu_1, # of connection points: 4
#     Node 14, Type 0, BuildingBlock: QUQFOY_clean_sbu_1, # of connection points: 4
#     Node 15, Type 0, BuildingBlock: QUQFOY_clean_sbu_1, # of connection points: 4
#     Node 16, Type 0, BuildingBlock: QUQFOY_clean_sbu_1, # of connection points: 4
#     Node 17, Type 0, BuildingBlock: QUQFOY_clean_sbu_1, # of connection points: 4
#     Node 18, Type 0, BuildingBlock: QUQFOY_clean_sbu_1, # of connection points: 4
#     Node 19, Type 0, BuildingBlock: QUQFOY_clean_sbu_1, # of connection points: 4
#     Node 20, Type 0, BuildingBlock: QUQFOY_clean_sbu_1, # of connection points: 4
#     Node 21, Type 0, BuildingBlock: QUQFOY_clean_sbu_1, # of connection points: 4
#     Node 22, Type 0, BuildingBlock: QUQFOY_clean_sbu_1, # of connection points: 4
#     Node 23, Type 0, BuildingBlock: QUQFOY_clean_sbu_1, # of connection points: 4
#     Node 24, Type 0, BuildingBlock: QUQFOY_clean_sbu_1, # of connection points: 4
#     Node 25, Type 0, BuildingBlock: QUQFOY_clean_sbu_1, # of connection points: 4
#     Node 26, Type 0, BuildingBlock: QUQFOY_clean_sbu_1, # of connection points: 4
#     Node 27, Type 0, BuildingBlock: QUQFOY_clean_sbu_1, # of connection points: 4
#     Node 28, Type 0, BuildingBlock: QUQFOY_clean_sbu_1, # of connection points: 4
#     Node 29, Type 0, BuildingBlock: QUQFOY_clean_sbu_1, # of connection points: 4
#     Node 30, Type 0, BuildingBlock: QUQFOY_clean_sbu_1, # of connection points: 4
#     Node 31, Type 0, BuildingBlock: QUQFOY_clean_sbu_1, # of connection points: 4
#     Node 32, Type 0, BuildingBlock: QUQFOY_clean_sbu_1, # of connection points: 4
#     Node 33, Type 0, BuildingBlock: QUQFOY_clean_sbu_1, # of connection points: 4
#     Node 34, Type 0, BuildingBlock: QUQFOY_clean_sbu_1, # of connection points: 4
#     Node 35, Type 0, BuildingBlock: QUQFOY_clean_sbu_1, # of connection points: 4
#     Node 36, Type 0, BuildingBlock: QUQFOY_clean_sbu_1, # of connection points: 4
#     Node 37, Type 0, BuildingBlock: QUQFOY_clean_sbu_1, # of connection points: 4
#     Node 38, Type 0, BuildingBlock: QUQFOY_clean_sbu_1, # of connection points: 4
#     Node 39, Type 0, BuildingBlock: QUQFOY_clean_sbu_1, # of connection points: 4
#     Node 40, Type 0, BuildingBlock: QUQFOY_clean_sbu_1, # of connection points: 4
#     Node 41, Type 0, BuildingBlock: QUQFOY_clean_sbu_1, # of connection points: 4
#     Node 42, Type 0, BuildingBlock: QUQFOY_clean_sbu_1, # of connection points: 4
#     Node 43, Type 0, BuildingBlock: QUQFOY_clean_sbu_1, # of connection points: 4
#     Node 44, Type 0, BuildingBlock: QUQFOY_clean_sbu_1, # of connection points: 4
#     Node 45, Type 0, BuildingBlock: QUQFOY_clean_sbu_1, # of connection points: 4
#     Node 46, Type 0, BuildingBlock: QUQFOY_clean_sbu_1, # of connection points: 4
#     Node 47, Type 0, BuildingBlock: QUQFOY_clean_sbu_1, # of connection points: 4
#     Edge 48, Type (0, 0), BuildingBlock: AJUNOK_clean_linker_0, # of connection points: 2
#     Edge 49, Type (0, 0), BuildingBlock: AJUNOK_clean_linker_0, # of connection points: 2
#     Edge 50, Type (0, 0), BuildingBlock: AJUNOK_clean_linker_0, # of connection points: 2
#     Edge 51, Type (0, 0), BuildingBlock: AJUNOK_clean_linker_0, # of connection points: 2
#     Edge 52, Type (0, 0), BuildingBlock: AJUNOK_clean_linker_0, # of connection points: 2
#     Edge 53, Type (0, 0), BuildingBlock: AJUNOK_clean_linker_0, # of connection points: 2
#     Edge 54, Type (0, 0), BuildingBlock: AJUNOK_clean_linker_0, # of connection points: 2
#     Edge 55, Type (0, 0), BuildingBlock: AJUNOK_clean_linker_0, # of connection points: 2
#     Edge 56, Type (0, 0), BuildingBlock: AJUNOK_clean_linker_0, # of connection points: 2
#     Edge 57, Type (0, 0), BuildingBlock: AJUNOK_clean_linker_0, # of connection points: 2
#     Edge 58, Type (0, 0), BuildingBlock: AJUNOK_clean_linker_0, # of connection points: 2
#     Edge 59, Type (0, 0), BuildingBlock: AJUNOK_clean_linker_0, # of connection points: 2
#     Edge 60, Type (0, 0), BuildingBlock: AJUNOK_clean_linker_0, # of connection points: 2
#     Edge 61, Type (0, 0), BuildingBlock: AJUNOK_clean_linker_0, # of connection points: 2
#     Edge 62, Type (0, 0), BuildingBlock: AJUNOK_clean_linker_0, # of connection points: 2
#     Edge 63, Type (0, 0), BuildingBlock: AJUNOK_clean_linker_0, # of connection points: 2
#     Edge 64, Type (0, 0), BuildingBlock: AJUNOK_clean_linker_0, # of connection points: 2
#     Edge 65, Type (0, 0), BuildingBlock: AJUNOK_clean_linker_0, # of connection points: 2
#     Edge 66, Type (0, 0), BuildingBlock: AJUNOK_clean_linker_0, # of connection points: 2
#     Edge 67, Type (0, 0), BuildingBlock: AJUNOK_clean_linker_0, # of connection points: 2
#     Edge 68, Type (0, 0), BuildingBlock: AJUNOK_clean_linker_0, # of connection points: 2
#     Edge 69, Type (0, 0), BuildingBlock: AJUNOK_clean_linker_0, # of connection points: 2
#     Edge 70, Type (0, 0), BuildingBlock: AJUNOK_clean_linker_0, # of connection points: 2
#     Edge 71, Type (0, 0), BuildingBlock: AJUNOK_clean_linker_0, # of connection points: 2
#     Edge 72, Type (0, 0), BuildingBlock: AJUNOK_clean_linker_0, # of connection points: 2
#     Edge 73, Type (0, 0), BuildingBlock: AJUNOK_clean_linker_0, # of connection points: 2
#     Edge 74, Type (0, 0), BuildingBlock: AJUNOK_clean_linker_0, # of connection points: 2
#     Edge 75, Type (0, 0), BuildingBlock: AJUNOK_clean_linker_0, # of connection points: 2
#     Edge 76, Type (0, 0), BuildingBlock: AJUNOK_clean_linker_0, # of connection points: 2
#     Edge 77, Type (0, 0), BuildingBlock: AJUNOK_clean_linker_0, # of connection points: 2
#     Edge 78, Type (0, 0), BuildingBlock: AJUNOK_clean_linker_0, # of connection points: 2
#     Edge 79, Type (0, 0), BuildingBlock: AJUNOK_clean_linker_0, # of connection points: 2
#     Edge 80, Type (0, 0), BuildingBlock: AJUNOK_clean_linker_0, # of connection points: 2
#     Edge 81, Type (0, 0), BuildingBlock: AJUNOK_clean_linker_0, # of connection points: 2
#     Edge 82, Type (0, 0), BuildingBlock: AJUNOK_clean_linker_0, # of connection points: 2
#     Edge 83, Type (0, 0), BuildingBlock: AJUNOK_clean_linker_0, # of connection points: 2
#     Edge 84, Type (0, 0), BuildingBlock: AJUNOK_clean_linker_0, # of connection points: 2
#     Edge 85, Type (0, 0), BuildingBlock: AJUNOK_clean_linker_0, # of connection points: 2
#     Edge 86, Type (0, 0), BuildingBlock: AJUNOK_clean_linker_0, # of connection points: 2
#     Edge 87, Type (0, 0), BuildingBlock: AJUNOK_clean_linker_0, # of connection points: 2
#     Edge 88, Type (0, 0), BuildingBlock: AJUNOK_clean_linker_0, # of connection points: 2
#     Edge 89, Type (0, 0), BuildingBlock: AJUNOK_clean_linker_0, # of connection points: 2
#     Edge 90, Type (0, 0), BuildingBlock: AJUNOK_clean_linker_0, # of connection points: 2
#     Edge 91, Type (0, 0), BuildingBlock: AJUNOK_clean_linker_0, # of connection points: 2
#     Edge 92, Type (0, 0), BuildingBlock: AJUNOK_clean_linker_0, # of connection points: 2
#     Edge 93, Type (0, 0), BuildingBlock: AJUNOK_clean_linker_0, # of connection points: 2
#     Edge 94, Type (0, 0), BuildingBlock: AJUNOK_clean_linker_0, # of connection points: 2
#     Edge 95, Type (0, 0), BuildingBlock: AJUNOK_clean_linker_0, # of connection points: 2
#     Edge 96, Type (0, 0), BuildingBlock: AJUNOK_clean_linker_0, # of connection points: 2
#     Edge 97, Type (0, 0), BuildingBlock: AJUNOK_clean_linker_0, # of connection points: 2
#     Edge 98, Type (0, 0), BuildingBlock: AJUNOK_clean_linker_0, # of connection points: 2
#     Edge 99, Type (0, 0), BuildingBlock: AJUNOK_clean_linker_0, # of connection points: 2
#     Edge 100, Type (0, 0), BuildingBlock: AJUNOK_clean_linker_0, # of connection points: 2
#     Edge 101, Type (0, 0), BuildingBlock: AJUNOK_clean_linker_0, # of connection points: 2
#     Edge 102, Type (0, 0), BuildingBlock: AJUNOK_clean_linker_0, # of connection points: 2
#     Edge 103, Type (0, 0), BuildingBlock: AJUNOK_clean_linker_0, # of connection points: 2
#     Edge 104, Type (0, 0), BuildingBlock: AJUNOK_clean_linker_0, # of connection points: 2
#     Edge 105, Type (0, 0), BuildingBlock: AJUNOK_clean_linker_0, # of connection points: 2
#     Edge 106, Type (0, 0), BuildingBlock: AJUNOK_clean_linker_0, # of connection points: 2
#     Edge 107, Type (0, 0), BuildingBlock: AJUNOK_clean_linker_0, # of connection points: 2
#     Edge 108, Type (0, 0), BuildingBlock: AJUNOK_clean_linker_0, # of connection points: 2
#     Edge 109, Type (0, 0), BuildingBlock: AJUNOK_clean_linker_0, # of connection points: 2
#     Edge 110, Type (0, 0), BuildingBlock: AJUNOK_clean_linker_0, # of connection points: 2
#     Edge 111, Type (0, 0), BuildingBlock: AJUNOK_clean_linker_0, # of connection points: 2
#     Edge 112, Type (0, 0), BuildingBlock: AJUNOK_clean_linker_0, # of connection points: 2
#     Edge 113, Type (0, 0), BuildingBlock: AJUNOK_clean_linker_0, # of connection points: 2
#     Edge 114, Type (0, 0), BuildingBlock: AJUNOK_clean_linker_0, # of connection points: 2
#     Edge 115, Type (0, 0), BuildingBlock: AJUNOK_clean_linker_0, # of connection points: 2
#     Edge 116, Type (0, 0), BuildingBlock: AJUNOK_clean_linker_0, # of connection points: 2
#     Edge 117, Type (0, 0), BuildingBlock: AJUNOK_clean_linker_0, # of connection points: 2
#     Edge 118, Type (0, 0), BuildingBlock: AJUNOK_clean_linker_0, # of connection points: 2
#     Edge 119, Type (0, 0), BuildingBlock: AJUNOK_clean_linker_0, # of connection points: 2
#     Edge 120, Type (0, 0), BuildingBlock: AJUNOK_clean_linker_0, # of connection points: 2
#     Edge 121, Type (0, 0), BuildingBlock: AJUNOK_clean_linker_0, # of connection points: 2
#     Edge 122, Type (0, 0), BuildingBlock: AJUNOK_clean_linker_0, # of connection points: 2
#     Edge 123, Type (0, 0), BuildingBlock: AJUNOK_clean_linker_0, # of connection points: 2
#     Edge 124, Type (0, 0), BuildingBlock: AJUNOK_clean_linker_0, # of connection points: 2
#     Edge 125, Type (0, 0), BuildingBlock: AJUNOK_clean_linker_0, # of connection points: 2
#     Edge 126, Type (0, 0), BuildingBlock: AJUNOK_clean_linker_0, # of connection points: 2
#     Edge 127, Type (0, 0), BuildingBlock: AJUNOK_clean_linker_0, # of connection points: 2
#     Edge 128, Type (0, 0), BuildingBlock: AJUNOK_clean_linker_0, # of connection points: 2
#     Edge 129, Type (0, 0), BuildingBlock: AJUNOK_clean_linker_0, # of connection points: 2
#     Edge 130, Type (0, 0), BuildingBlock: AJUNOK_clean_linker_0, # of connection points: 2
#     Edge 131, Type (0, 0), BuildingBlock: AJUNOK_clean_linker_0, # of connection points: 2
#     Edge 132, Type (0, 0), BuildingBlock: AJUNOK_clean_linker_0, # of connection points: 2
#     Edge 133, Type (0, 0), BuildingBlock: AJUNOK_clean_linker_0, # of connection points: 2
#     Edge 134, Type (0, 0), BuildingBlock: AJUNOK_clean_linker_0, # of connection points: 2
#     Edge 135, Type (0, 0), BuildingBlock: AJUNOK_clean_linker_0, # of connection points: 2
#     Edge 136, Type (0, 0), BuildingBlock: AJUNOK_clean_linker_0, # of connection points: 2
#     Edge 137, Type (0, 0), BuildingBlock: AJUNOK_clean_linker_0, # of connection points: 2
#     Edge 138, Type (0, 0), BuildingBlock: AJUNOK_clean_linker_0, # of connection points: 2
#     Edge 139, Type (0, 0), BuildingBlock: AJUNOK_clean_linker_0, # of connection points: 2
#     Edge 140, Type (0, 0), BuildingBlock: AJUNOK_clean_linker_0, # of connection points: 2
#     Edge 141, Type (0, 0), BuildingBlock: AJUNOK_clean_linker_0, # of connection points: 2
#     Edge 142, Type (0, 0), BuildingBlock: AJUNOK_clean_linker_0, # of connection points: 2
#     Edge 143, Type (0, 0), BuildingBlock: AJUNOK_clean_linker_0, # of connection points: 2
# Relax obj value: 0.368
# Max RMSD: 0.186
# Mean RMSD: 0.186
data_MOF--net-ukr--node1-QUQFOY_clean_sbu_1--edge1-AJUNOK_clean_linker_0
_symmetry_space_group_name_H-M    P1
_symmetry_Int_Tables_number       1
_symmetry_cell_setting            triclinic
loop_
_symmetry_equiv_pos_as_xyz
'x, y, z'
_cell_length_a     55.536237
_cell_length_b     55.550164
_cell_length_c     55.555197
_cell_angle_alpha  89.996076
_cell_angle_beta   90.002584
_cell_angle_gamma 89.997088
loop_
_atom_site_label
_atom_site_type_symbol
_atom_site_fract_x
_atom_site_fract_y
_atom_site_fract_z
_atom_type_partial_charge
O0 O 0.09722 0.22142 0.19835 0.0
Cd1 Cd 0.09153 0.2456 0.17085 0.0
Cd2 Cd 0.12468 0.2729 0.19531 0.0
O3 O 0.12238 0.24416 0.21879 0.0
O4 O 0.06132 0.23498 0.15542 0.0
O5 O 0.06515 0.27031 0.17344 0.0
C6 C 0.05179 0.25507 0.16202 0.0
C7 C 0.13768 0.3087 0.21335 0.0
C8 C 0.11078 0.22459 0.21649 0.0
C9 C 0.13703 0.25458 0.14491 0.0
O10 O 0.14278 0.26651 0.16352 0.0
O11 O 0.11644 0.2448 0.14356 0.0
O12 O 0.1515 0.29042 0.21075 0.0
O13 O 0.11568 0.30692 0.20621 0.0
O14 O 0.27788 0.59465 0.69501 0.0
Cd15 Cd 0.25276 0.58993 0.6682 0.0
Cd16 Cd 0.22609 0.6224 0.69493 0.0
O17 O 0.25525 0.61801 0.71761 0.0
O18 O 0.2617 0.55965 0.65192 0.0
O19 O 0.2274 0.56439 0.67174 0.0
C20 C 0.24162 0.55073 0.65939 0.0
C21 C 0.19212 0.63826 0.71437 0.0
C22 C 0.27493 0.60689 0.71409 0.0
C23 C 0.24341 0.63616 0.64423 0.0
O24 O 0.23231 0.64123 0.66353 0.0
O25 O 0.25286 0.61555 0.64159 0.0
O26 O 0.21152 0.65033 0.71135 0.0
O27 O 0.19172 0.61629 0.70695 0.0
O28 O 0.9006 0.77614 0.19597 0.0
Cd29 Cd 0.90421 0.74772 0.17248 0.0
Cd30 Cd 0.87644 0.72407 0.20411 0.0
O31 O 0.88351 0.75447 0.22421 0.0
O32 O 0.93317 0.75524 0.15331 0.0
O33 O 0.93091 0.72402 0.178 0.0
C34 C 0.94351 0.73706 0.16341 0.0
C35 C 0.86908 0.69035 0.22816 0.0
C36 C 0.89209 0.77439 0.2171 0.0
C37 C 0.8557 0.73595 0.1548 0.0
O38 O 0.85228 0.72823 0.17606 0.0
O39 O 0.87644 0.74324 0.14853 0.0
O40 O 0.855 0.70863 0.2279 0.0
O41 O 0.88772 0.69059 0.21436 0.0
O42 O 0.71951 0.40543 0.69099 0.0
Cd43 Cd 0.74572 0.40943 0.66521 0.0
Cd44 Cd 0.77028 0.3742 0.69283 0.0
O45 O 0.74029 0.38066 0.71389 0.0
O46 O 0.73727 0.43965 0.6486 0.0
O47 O 0.77096 0.43506 0.6694 0.0
C48 C 0.75703 0.44869 0.6567 0.0
C49 C 0.80065 0.35469 0.71513 0.0
C50 C 0.72138 0.39291 0.71001 0.0
C51 C 0.75466 0.36312 0.64073 0.0
O52 O 0.76491 0.35701 0.66024 0.0
O53 O 0.74587 0.38405 0.63842 0.0
O54 O 0.78059 0.34465 0.7098 0.0
O55 O 0.80393 0.37649 0.70792 0.0
O56 O 0.09093 0.77988 0.80567 0.0
Cd57 Cd 0.0878 0.75128 0.82902 0.0
Cd58 Cd 0.11725 0.72805 0.79686 0.0
O59 O 0.10822 0.75837 0.77739 0.0
O60 O 0.05845 0.75738 0.84815 0.0
O61 O 0.0622 0.72647 0.8232 0.0
C62 C 0.04911 0.73863 0.83812 0.0
C63 C 0.13092 0.6977 0.77078 0.0
C64 C 0.09938 0.7782 0.78453 0.0
C65 C 0.13641 0.74078 0.84706 0.0
O66 O 0.14015 0.73298 0.82587 0.0
O67 O 0.11549 0.74763 0.85314 0.0
O68 O 0.14194 0.71776 0.77347 0.0
O69 O 0.11178 0.6941 0.78336 0.0
O70 O 0.72139 0.59792 0.29897 0.0
Cd71 Cd 0.74615 0.5926 0.32603 0.0
Cd72 Cd 0.77272 0.62438 0.30122 0.0
O73 O 0.74422 0.62202 0.27744 0.0
O74 O 0.73635 0.56222 0.34162 0.0
O75 O 0.77119 0.56666 0.32277 0.0
C76 C 0.75638 0.55299 0.33441 0.0
C77 C 0.80975 0.63329 0.28339 0.0
C78 C 0.72449 0.61082 0.28037 0.0
C79 C 0.75471 0.63864 0.35098 0.0
O80 O 0.76629 0.64414 0.33204 0.0
O81 O 0.74563 0.61781 0.35305 0.0
O82 O 0.79254 0.64865 0.28442 0.0
O83 O 0.80621 0.61214 0.29226 0.0
O84 O 0.90539 0.21722 0.81455 0.0
Cd85 Cd 0.90858 0.2459 0.8377 0.0
Cd86 Cd 0.87745 0.26865 0.80484 0.0
O87 O 0.88792 0.23833 0.78604 0.0
O88 O 0.93825 0.23967 0.85629 0.0
O89 O 0.93424 0.27054 0.83137 0.0
C90 C 0.94759 0.25821 0.84591 0.0
C91 C 0.85984 0.29631 0.77786 0.0
C92 C 0.89713 0.21872 0.79332 0.0
C93 C 0.86023 0.25621 0.85631 0.0
O94 O 0.85612 0.26377 0.83509 0.0
O95 O 0.88124 0.24949 0.86219 0.0
O96 O 0.85051 0.27579 0.78267 0.0
O97 O 0.87952 0.3019 0.7888 0.0
O98 O 0.27943 0.40299 0.30613 0.0
Cd99 Cd 0.25024 0.40636 0.32869 0.0
Cd100 Cd 0.22762 0.37812 0.296 0.0
O101 O 0.25845 0.38645 0.27702 0.0
O102 O 0.25623 0.43573 0.34783 0.0
O103 O 0.226 0.43229 0.32204 0.0
C104 C 0.23809 0.4454 0.337 0.0
C105 C 0.19596 0.36818 0.26996 0.0
C106 C 0.27821 0.39488 0.28482 0.0
C107 C 0.23868 0.35771 0.34588 0.0
O108 O 0.2316 0.35427 0.32439 0.0
O109 O 0.24546 0.37852 0.35247 0.0
O110 O 0.21511 0.35543 0.27162 0.0
O111 O 0.19402 0.38683 0.28359 0.0
O112 O 0.18754 0.09265 0.21887 0.0
Cd113 Cd 0.16574 0.09062 0.24875 0.0
Cd114 Cd 0.20065 0.11837 0.26968 0.0
O115 O 0.2183 0.10727 0.23891 0.0
O116 O 0.14526 0.06194 0.24387 0.0
O117 O 0.17219 0.0648 0.27316 0.0
C118 C 0.15624 0.05216 0.26184 0.0
C119 C 0.2282 0.13031 0.29943 0.0
C120 C 0.20942 0.0992 0.21946 0.0
C121 C 0.15098 0.14014 0.25937 0.0
O122 O 0.17291 0.14293 0.2653 0.0
O123 O 0.1432 0.11942 0.25373 0.0
O124 O 0.22611 0.14133 0.27928 0.0
O125 O 0.21422 0.11223 0.30341 0.0
O126 O 0.40566 0.68652 0.71744 0.0
Cd127 Cd 0.40806 0.66385 0.74662 0.0
Cd128 Cd 0.37856 0.69753 0.76868 0.0
O129 O 0.3894 0.71593 0.73824 0.0
O130 O 0.43754 0.64461 0.74168 0.0
O131 O 0.43312 0.67043 0.77175 0.0
C132 C 0.44659 0.6554 0.76016 0.0
C133 C 0.36321 0.72476 0.79727 0.0
C134 C 0.39816 0.70805 0.71866 0.0
C135 C 0.3592 0.64689 0.75703 0.0
O136 O 0.35569 0.66841 0.76396 0.0
O137 O 0.38006 0.64018 0.75058 0.0
O138 O 0.35331 0.72127 0.77676 0.0
O139 O 0.38221 0.71242 0.80229 0.0
O140 O 0.80999 0.90389 0.2163 0.0
Cd141 Cd 0.83282 0.90759 0.2451 0.0
Cd142 Cd 0.80048 0.87656 0.26825 0.0
O143 O 0.78177 0.88603 0.23748 0.0
O144 O 0.85063 0.9377 0.23917 0.0
O145 O 0.82553 0.93287 0.26978 0.0
C146 C 0.83969 0.94672 0.25756 0.0
C147 C 0.77355 0.85931 0.29614 0.0
C148 C 0.78892 0.89523 0.21781 0.0
C149 C 0.85235 0.86002 0.25669 0.0
O150 O 0.83121 0.8557 0.26435 0.0
O151 O 0.8578 0.88083 0.24905 0.0
O152 O 0.77862 0.84953 0.27589 0.0
O153 O 0.78418 0.87926 0.30133 0.0
O154 O 0.59222 0.31044 0.71408 0.0
Cd155 Cd 0.58877 0.33477 0.74177 0.0
Cd156 Cd 0.61937 0.30356 0.76655 0.0
O157 O 0.61102 0.28366 0.73629 0.0
O158 O 0.55898 0.35299 0.73514 0.0
O159 O 0.56341 0.32919 0.76686 0.0
C160 C 0.54992 0.34334 0.75422 0.0
C161 C 0.63543 0.27789 0.79619 0.0
C162 C 0.60155 0.28972 0.71641 0.0
C163 C 0.6367 0.35437 0.75283 0.0
O164 O 0.64074 0.33368 0.7617 0.0
O165 O 0.616 0.3595 0.74463 0.0
O166 O 0.64583 0.28179 0.77601 0.0
O167 O 0.61549 0.28901 0.80032 0.0
O168 O 0.18754 0.90721 0.7808 0.0
Cd169 Cd 0.16343 0.90976 0.75286 0.0
Cd170 Cd 0.19418 0.87562 0.72986 0.0
O171 O 0.21314 0.88491 0.76044 0.0
O172 O 0.14493 0.93938 0.75952 0.0
O173 O 0.16839 0.93518 0.72758 0.0
C174 C 0.15418 0.94851 0.74031 0.0
C175 C 0.22119 0.85772 0.70248 0.0
C176 C 0.20763 0.89646 0.77937 0.0
C177 C 0.14217 0.86174 0.74333 0.0
O178 O 0.16255 0.85627 0.73438 0.0
O179 O 0.13825 0.88288 0.75099 0.0
O180 O 0.21533 0.84786 0.72247 0.0
O181 O 0.21086 0.87775 0.69696 0.0
O182 O 0.59251 0.68832 0.2773 0.0
Cd183 Cd 0.59059 0.66645 0.24746 0.0
Cd184 Cd 0.61817 0.7006 0.22653 0.0
O185 O 0.60753 0.71879 0.25715 0.0
O186 O 0.56169 0.64631 0.25221 0.0
O187 O 0.56504 0.67306 0.22283 0.0
C188 C 0.55209 0.65743 0.23422 0.0
C189 C 0.62856 0.72736 0.1956 0.0
C190 C 0.59926 0.71012 0.27661 0.0
C191 C 0.64006 0.65124 0.23738 0.0
O192 O 0.64298 0.67309 0.23119 0.0
O193 O 0.61921 0.64365 0.24279 0.0
O194 O 0.64036 0.7261 0.21538 0.0
O195 O 0.61062 0.71296 0.19264 0.0
O196 O 0.80434 0.09354 0.78255 0.0
Cd197 Cd 0.83049 0.09004 0.75663 0.0
Cd198 Cd 0.80355 0.12588 0.73229 0.0
O199 O 0.78202 0.11891 0.76183 0.0
O200 O 0.84718 0.05974 0.76465 0.0
O201 O 0.82688 0.06497 0.73074 0.0
C202 C 0.83958 0.05117 0.74449 0.0
C203 C 0.78171 0.14572 0.70174 0.0
C204 C 0.78547 0.10627 0.78057 0.0
C205 C 0.85528 0.13652 0.74926 0.0
O206 O 0.83608 0.14293 0.7386 0.0
O207 O 0.85728 0.11536 0.75753 0.0
O208 O 0.78659 0.15551 0.72203 0.0
O209 O 0.78915 0.12402 0.69832 0.0
O210 O 0.40724 0.30714 0.28218 0.0
Cd211 Cd 0.41039 0.33134 0.2544 0.0
Cd212 Cd 0.37633 0.3006 0.23119 0.0
O213 O 0.38553 0.2812 0.26156 0.0
O214 O 0.44025 0.34933 0.26136 0.0
O215 O 0.43585 0.32619 0.22921 0.0
C216 C 0.44933 0.34011 0.24211 0.0
C217 C 0.35687 0.27498 0.20337 0.0
C218 C 0.39671 0.28693 0.28066 0.0
C219 C 0.36272 0.3528 0.24486 0.0
O220 O 0.35735 0.33235 0.23607 0.0
O221 O 0.38385 0.35687 0.25247 0.0
O222 O 0.3478 0.28051 0.22383 0.0
O223 O 0.37741 0.28434 0.198 0.0
O224 O 0.21589 0.18896 0.09188 0.0
Cd225 Cd 0.24213 0.16317 0.08816 0.0
Cd226 Cd 0.2668 0.19136 0.12324 0.0
O227 O 0.23731 0.21266 0.11533 0.0
O228 O 0.23461 0.1468 0.05754 0.0
O229 O 0.26803 0.16773 0.06333 0.0
C230 C 0.2545 0.15527 0.04908 0.0
C231 C 0.29646 0.21389 0.14376 0.0
C232 C 0.2182 0.20849 0.1035 0.0
C233 C 0.25036 0.13939 0.13483 0.0
O234 O 0.26056 0.15902 0.14072 0.0
O235 O 0.24211 0.1366 0.11374 0.0
O236 O 0.2759 0.20889 0.15292 0.0
O237 O 0.30069 0.20614 0.12231 0.0
O238 O 0.21736 0.8025 0.90172 0.0
Cd239 Cd 0.24223 0.82939 0.90707 0.0
Cd240 Cd 0.26888 0.80391 0.87269 0.0
O241 O 0.23944 0.78144 0.87646 0.0
O242 O 0.23246 0.8449 0.9375 0.0
O243 O 0.26727 0.82602 0.93303 0.0
C244 C 0.25251 0.8377 0.9467 0.0
C245 C 0.302 0.78404 0.85534 0.0
C246 C 0.22007 0.7842 0.88832 0.0
C247 C 0.25146 0.8553 0.86168 0.0
O248 O 0.26298 0.83647 0.85574 0.0
O249 O 0.24169 0.85672 0.88225 0.0
O250 O 0.28259 0.7885 0.8437 0.0
O251 O 0.30296 0.79052 0.87759 0.0
O252 O 0.68844 0.71749 0.40419 0.0
Cd253 Cd 0.66229 0.74336 0.40804 0.0
Cd254 Cd 0.68998 0.76863 0.3738 0.0
O255 O 0.71171 0.73917 0.38058 0.0
O256 O 0.64579 0.73523 0.43842 0.0
O257 O 0.66624 0.76905 0.43321 0.0
C258 C 0.65382 0.75517 0.44715 0.0
C259 C 0.71175 0.7996 0.35462 0.0
C260 C 0.70777 0.71989 0.39225 0.0
C261 C 0.63847 0.7517 0.36147 0.0
O262 O 0.65791 0.76238 0.35586 0.0
O263 O 0.63577 0.74307 0.38241 0.0
O264 O 0.70715 0.7794 0.34452 0.0
O265 O 0.70418 0.80267 0.37633 0.0
O266 O 0.77692 0.19457 0.90682 0.0
Cd267 Cd 0.75037 0.16897 0.91046 0.0
Cd268 Cd 0.72594 0.19827 0.87708 0.0
O269 O 0.75581 0.21931 0.88419 0.0
O270 O 0.75812 0.15144 0.94039 0.0
O271 O 0.72491 0.17307 0.93586 0.0
C272 C 0.73833 0.15964 0.94931 0.0
C273 C 0.695 0.21999 0.85801 0.0
C274 C 0.77508 0.21433 0.89549 0.0
C275 C 0.74126 0.14663 0.86339 0.0
O276 O 0.73164 0.16671 0.85828 0.0
O277 O 0.74964 0.14295 0.88429 0.0
O278 O 0.7154 0.21592 0.84808 0.0
O279 O 0.69186 0.21236 0.87968 0.0
O280 O 0.29978 0.27755 0.4016 0.0
Cd281 Cd 0.32729 0.25348 0.40758 0.0
Cd282 Cd 0.30315 0.22584 0.37356 0.0
O283 O 0.27994 0.25485 0.3759 0.0
O284 O 0.34245 0.26386 0.43799 0.0
O285 O 0.32434 0.22858 0.43371 0.0
C286 C 0.33588 0.24361 0.44721 0.0
C287 C 0.28498 0.19102 0.3581 0.0
C288 C 0.28191 0.27434 0.3877 0.0
C289 C 0.35415 0.24402 0.36273 0.0
O290 O 0.33572 0.23191 0.35675 0.0
O291 O 0.35493 0.25432 0.38307 0.0
O292 O 0.28852 0.20988 0.34533 0.0
O293 O 0.29111 0.19168 0.38046 0.0
O294 O 0.77618 0.7968 0.09764 0.0
Cd295 Cd 0.75272 0.82477 0.09154 0.0
Cd296 Cd 0.72495 0.8023 0.12561 0.0
O297 O 0.75351 0.77846 0.12444 0.0
O298 O 0.76381 0.83944 0.06117 0.0
O299 O 0.72794 0.82251 0.0652 0.0
C300 C 0.74346 0.83348 0.05179 0.0
C301 C 0.68884 0.78476 0.13857 0.0
C302 C 0.77285 0.77955 0.11228 0.0
C303 C 0.74445 0.85257 0.13618 0.0
O304 O 0.73149 0.83481 0.14244 0.0
O305 O 0.75461 0.85258 0.11576 0.0
O306 O 0.70679 0.78803 0.15269 0.0
O307 O 0.6911 0.79107 0.11636 0.0
O308 O 0.69038 0.28301 0.58854 0.0
Cd309 Cd 0.66561 0.25564 0.58605 0.0
Cd310 Cd 0.69582 0.23213 0.62037 0.0
O311 O 0.71556 0.26222 0.61096 0.0
O312 O 0.6475 0.26191 0.55611 0.0
O313 O 0.67047 0.22971 0.5613 0.0
C314 C 0.65651 0.2423 0.54759 0.0
C315 C 0.72132 0.20437 0.64001 0.0
C316 C 0.71043 0.28122 0.59934 0.0
C317 C 0.64389 0.24663 0.6338 0.0
O318 O 0.66409 0.23736 0.63929 0.0
O319 O 0.64018 0.25461 0.61274 0.0
O320 O 0.71592 0.22493 0.64891 0.0
O321 O 0.71181 0.1988 0.6196 0.0
O322 O 0.30726 0.71757 0.593 0.0
Cd323 Cd 0.33302 0.7438 0.58896 0.0
Cd324 Cd 0.30513 0.76771 0.62478 0.0
O325 O 0.28369 0.73822 0.61731 0.0
O326 O 0.34929 0.73519 0.55854 0.0
O327 O 0.32875 0.76898 0.56326 0.0
C328 C 0.34101 0.75485 0.54944 0.0
C329 C 0.28377 0.7985 0.64469 0.0
C330 C 0.28793 0.71938 0.60505 0.0
C331 C 0.35727 0.75134 0.63555 0.0
O332 O 0.33762 0.7612 0.64187 0.0
O333 O 0.35993 0.74366 0.61422 0.0
O334 O 0.28829 0.77813 0.65448 0.0
O335 O 0.29091 0.80174 0.62286 0.0
O336 O 0.90408 0.77906 0.80745 0.0
Cd337 Cd 0.90719 0.74993 0.83011 0.0
Cd338 Cd 0.87777 0.72746 0.79734 0.0
O339 O 0.88668 0.75833 0.77866 0.0
O340 O 0.93643 0.75592 0.84944 0.0
O341 O 0.9331 0.72556 0.82379 0.0
C342 C 0.94605 0.7376 0.83894 0.0
C343 C 0.86552 0.69711 0.77065 0.0
C344 C 0.89563 0.77792 0.78627 0.0
C345 C 0.85855 0.73869 0.84779 0.0
O346 O 0.85475 0.73151 0.8264 0.0
O347 O 0.87943 0.74555 0.85403 0.0
O348 O 0.85373 0.71674 0.77338 0.0
O349 O 0.88448 0.69389 0.78362 0.0
O350 O 0.71929 0.40541 0.30308 0.0
Cd351 Cd 0.74516 0.40991 0.32913 0.0
Cd352 Cd 0.76958 0.37376 0.3022 0.0
O353 O 0.74028 0.38064 0.28031 0.0
O354 O 0.7364 0.44062 0.34474 0.0
O355 O 0.77046 0.43546 0.32476 0.0
C356 C 0.75622 0.44953 0.3366 0.0
C357 C 0.80057 0.35346 0.28155 0.0
C358 C 0.72136 0.39296 0.28404 0.0
C359 C 0.75272 0.36383 0.35433 0.0
O360 O 0.76291 0.35725 0.33493 0.0
O361 O 0.74476 0.38511 0.35646 0.0
O362 O 0.78017 0.34374 0.28611 0.0
O363 O 0.80373 0.37546 0.2882 0.0
O364 O 0.09265 0.21977 0.8048 0.0
Cd365 Cd 0.08937 0.24589 0.83089 0.0
Cd366 Cd 0.12162 0.27063 0.80194 0.0
O367 O 0.11513 0.24118 0.78016 0.0
O368 O 0.05985 0.23749 0.84889 0.0
O369 O 0.06359 0.27116 0.82787 0.0
C370 C 0.05055 0.25734 0.84129 0.0
C371 C 0.13647 0.30445 0.78152 0.0
C372 C 0.10385 0.22187 0.78498 0.0
C373 C 0.13705 0.25431 0.85247 0.0
O374 O 0.14183 0.26434 0.8325 0.0
O375 O 0.11607 0.24624 0.85642 0.0
O376 O 0.14857 0.28493 0.78359 0.0
O377 O 0.11503 0.30501 0.79036 0.0
O378 O 0.2813 0.59101 0.30629 0.0
Cd379 Cd 0.25307 0.58765 0.33001 0.0
Cd380 Cd 0.22961 0.61852 0.29811 0.0
O381 O 0.25966 0.60887 0.27841 0.0
O382 O 0.25888 0.5575 0.34795 0.0
O383 O 0.22774 0.56273 0.32358 0.0
C384 C 0.23997 0.54879 0.33765 0.0
C385 C 0.20048 0.63574 0.27254 0.0
C386 C 0.27944 0.59965 0.28523 0.0
C387 C 0.24287 0.63571 0.34922 0.0
O388 O 0.23496 0.63988 0.32817 0.0
O389 O 0.25002 0.61476 0.35485 0.0
O390 O 0.22114 0.64527 0.27626 0.0
O391 O 0.19569 0.61593 0.28362 0.0
O392 O 0.90561 0.21332 0.18799 0.0
Cd393 Cd 0.90926 0.24108 0.1639 0.0
Cd394 Cd 0.87641 0.26549 0.19409 0.0
O395 O 0.88475 0.23501 0.21368 0.0
O396 O 0.93974 0.23462 0.14682 0.0
O397 O 0.93423 0.26636 0.1703 0.0
C398 C 0.94842 0.25363 0.15695 0.0
C399 C 0.85929 0.29385 0.22052 0.0
C400 C 0.8953 0.21549 0.20823 0.0
C401 C 0.86199 0.25192 0.14225 0.0
O402 O 0.85685 0.26107 0.1626 0.0
O403 O 0.88285 0.2435 0.13828 0.0
O404 O 0.84888 0.27403 0.21506 0.0
O405 O 0.87947 0.29864 0.21012 0.0
O406 O 0.27879 0.40505 0.69399 0.0
Cd407 Cd 0.25152 0.40862 0.66921 0.0
Cd408 Cd 0.22679 0.37666 0.69841 0.0
O409 O 0.25718 0.3831 0.71877 0.0
O410 O 0.25966 0.43799 0.65095 0.0
O411 O 0.22693 0.43481 0.67348 0.0
C412 C 0.24046 0.44771 0.65963 0.0
C413 C 0.19545 0.36372 0.72356 0.0
C414 C 0.27668 0.39389 0.7138 0.0
C415 C 0.24111 0.36093 0.64767 0.0
O416 O 0.23138 0.35592 0.66778 0.0
O417 O 0.24948 0.38184 0.6439 0.0
O418 O 0.21452 0.35123 0.72006 0.0
O419 O 0.19323 0.38371 0.71201 0.0
O420 O 0.09063 0.78138 0.19541 0.0
Cd421 Cd 0.08584 0.7554 0.16947 0.0
Cd422 Cd 0.11963 0.72986 0.19671 0.0
O423 O 0.11395 0.75936 0.21867 0.0
O424 O 0.05465 0.76256 0.15401 0.0
O425 O 0.06155 0.72915 0.17466 0.0
C426 C 0.04679 0.74245 0.16254 0.0
C427 C 0.13893 0.69813 0.21709 0.0
C428 C 0.10275 0.7789 0.21463 0.0
C429 C 0.13171 0.74632 0.14501 0.0
O430 O 0.13731 0.73595 0.16458 0.0
O431 O 0.11088 0.75528 0.14236 0.0
O432 O 0.14908 0.71842 0.21304 0.0
O433 O 0.11694 0.69554 0.21016 0.0
O434 O 0.71956 0.5946 0.69597 0.0
Cd435 Cd 0.74451 0.59046 0.66891 0.0
Cd436 Cd 0.77028 0.62396 0.69479 0.0
O437 O 0.74131 0.61957 0.71772 0.0
O438 O 0.73552 0.56028 0.65251 0.0
O439 O 0.77019 0.56505 0.67167 0.0
C440 C 0.75586 0.55147 0.65936 0.0
C441 C 0.80501 0.63874 0.71362 0.0
C442 C 0.72211 0.60751 0.71467 0.0
C443 C 0.75244 0.63669 0.64418 0.0
O444 O 0.7637 0.64242 0.66322 0.0
O445 O 0.74339 0.61584 0.64212 0.0
O446 O 0.78592 0.65144 0.71109 0.0
O447 O 0.80463 0.61681 0.70608 0.0
O448 O 0.80693 0.90606 0.7825 0.0
Cd449 Cd 0.83141 0.90941 0.75498 0.0
Cd450 Cd 0.80129 0.87491 0.73189 0.0
O451 O 0.7815 0.88344 0.76223 0.0
O452 O 0.84923 0.93917 0.76254 0.0
O453 O 0.82665 0.93512 0.72995 0.0
C454 C 0.84039 0.94842 0.7432 0.0
C455 C 0.77707 0.85476 0.70334 0.0
C456 C 0.78702 0.89495 0.78122 0.0
C457 C 0.85368 0.86216 0.74587 0.0
O458 O 0.83339 0.85657 0.73688 0.0
O459 O 0.85739 0.8833 0.75358 0.0
O460 O 0.78259 0.84567 0.72379 0.0
O461 O 0.78521 0.87596 0.69861 0.0
O462 O 0.5972 0.3032 0.27482 0.0
Cd463 Cd 0.59201 0.32964 0.24939 0.0
Cd464 Cd 0.62398 0.30239 0.22309 0.0
O465 O 0.61992 0.27981 0.25234 0.0
O466 O 0.56224 0.34634 0.25934 0.0
O467 O 0.5654 0.32619 0.22508 0.0
C468 C 0.55244 0.33881 0.23971 0.0
C469 C 0.63772 0.28316 0.18821 0.0
C470 C 0.60916 0.28391 0.2721 0.0
C471 C 0.63844 0.35307 0.23951 0.0
O472 O 0.64347 0.33343 0.229 0.0
O473 O 0.61773 0.35617 0.2486 0.0
O474 O 0.65078 0.2854 0.20708 0.0
O475 O 0.61596 0.29117 0.18892 0.0
O476 O 0.19074 0.09359 0.77784 0.0
Cd477 Cd 0.16475 0.09022 0.75166 0.0
Cd478 Cd 0.19402 0.12196 0.72633 0.0
O479 O 0.21548 0.11553 0.75602 0.0
O480 O 0.14699 0.0605 0.75967 0.0
O481 O 0.16847 0.06468 0.72631 0.0
C482 C 0.1551 0.05137 0.73994 0.0
C483 C 0.21555 0.13786 0.69364 0.0
C484 C 0.21067 0.10454 0.77549 0.0
C485 C 0.14319 0.13758 0.74201 0.0
O486 O 0.1632 0.14205 0.73191 0.0
O487 O 0.13922 0.11692 0.75085 0.0
O488 O 0.21232 0.14949 0.71327 0.0
O489 O 0.20709 0.11631 0.69225 0.0
O490 O 0.40771 0.68651 0.27864 0.0
Cd491 Cd 0.41032 0.66288 0.2503 0.0
Cd492 Cd 0.3756 0.69369 0.22872 0.0
O493 O 0.38583 0.71295 0.25888 0.0
O494 O 0.44086 0.64543 0.25554 0.0
O495 O 0.43457 0.66932 0.22426 0.0
C496 C 0.44898 0.65557 0.2363 0.0
C497 C 0.35512 0.71929 0.20157 0.0
C498 C 0.39728 0.7068 0.2777 0.0
C499 C 0.3626 0.64125 0.24226 0.0
O500 O 0.35687 0.66187 0.23412 0.0
O501 O 0.38406 0.63703 0.24883 0.0
O502 O 0.34675 0.71368 0.2223 0.0
O503 O 0.37555 0.71008 0.19557 0.0
O504 O 0.79908 0.0943 0.22082 0.0
Cd505 Cd 0.82636 0.08922 0.24533 0.0
Cd506 Cd 0.80184 0.12369 0.27184 0.0
O507 O 0.77888 0.12038 0.24274 0.0
O508 O 0.84168 0.05858 0.23598 0.0
O509 O 0.82333 0.06384 0.27098 0.0
C510 C 0.83485 0.04988 0.25636 0.0
C511 C 0.78294 0.14038 0.30574 0.0
C512 C 0.78109 0.10814 0.22356 0.0
C513 C 0.85283 0.13446 0.25358 0.0
O514 O 0.83431 0.14061 0.26547 0.0
O515 O 0.85385 0.11383 0.2439 0.0
O516 O 0.78692 0.15244 0.2865 0.0
O517 O 0.78924 0.11806 0.30606 0.0
O518 O 0.40447 0.30569 0.71729 0.0
Cd519 Cd 0.40791 0.33072 0.74435 0.0
Cd520 Cd 0.37603 0.301 0.7698 0.0
O521 O 0.38261 0.28106 0.73918 0.0
O522 O 0.4371 0.34935 0.73623 0.0
O523 O 0.43416 0.32674 0.76893 0.0
C524 C 0.44689 0.3408 0.75545 0.0
C525 C 0.36204 0.275 0.8 0.0
C526 C 0.39335 0.28588 0.71962 0.0
C527 C 0.36015 0.35187 0.75579 0.0
O528 O 0.35546 0.33182 0.76578 0.0
O529 O 0.38074 0.35564 0.74664 0.0
O530 O 0.38211 0.2862 0.80306 0.0
O531 O 0.35001 0.2794 0.78084 0.0
O532 O 0.18814 0.90841 0.21836 0.0
Cd533 Cd 0.1647 0.91075 0.24695 0.0
Cd534 Cd 0.19668 0.87843 0.26961 0.0
O535 O 0.21512 0.88794 0.23881 0.0
O536 O 0.14575 0.94037 0.24149 0.0
O537 O 0.17061 0.93579 0.27235 0.0
C538 C 0.15582 0.94924 0.26043 0.0
C539 C 0.22427 0.86176 0.29709 0.0
C540 C 0.20874 0.8986 0.21965 0.0
C541 C 0.14521 0.86221 0.25713 0.0
O542 O 0.16604 0.85758 0.26543 0.0
O543 O 0.14021 0.88324 0.24976 0.0
O544 O 0.21315 0.88136 0.30255 0.0
O545 O 0.21899 0.85168 0.27706 0.0
O546 O 0.59107 0.68538 0.71828 0.0
Cd547 Cd 0.58844 0.66249 0.74725 0.0
Cd548 Cd 0.61719 0.69606 0.76992 0.0
O549 O 0.60643 0.71483 0.73968 0.0
O550 O 0.55881 0.64351 0.74223 0.0
O551 O 0.56341 0.6693 0.77232 0.0
C552 C 0.54981 0.65444 0.76065 0.0
C553 C 0.63212 0.72308 0.79889 0.0
C554 C 0.59815 0.70703 0.71987 0.0
C555 C 0.63722 0.64577 0.7579 0.0
O556 O 0.64043 0.66729 0.76497 0.0
O557 O 0.61646 0.63886 0.75131 0.0
O558 O 0.64216 0.7199 0.7784 0.0
O559 O 0.61322 0.71051 0.80369 0.0
O560 O 0.77812 0.79973 0.90321 0.0
Cd561 Cd 0.75338 0.82667 0.90891 0.0
Cd562 Cd 0.72631 0.80164 0.87466 0.0
O563 O 0.75569 0.77905 0.87795 0.0
O564 O 0.76357 0.84201 0.93927 0.0
O565 O 0.72865 0.82323 0.93514 0.0
C566 C 0.74358 0.83491 0.94863 0.0
C567 C 0.69307 0.78195 0.8574 0.0
C568 C 0.77516 0.78155 0.88969 0.0
C569 C 0.74386 0.85296 0.86374 0.0
O570 O 0.7321 0.83428 0.85781 0.0
O571 O 0.75375 0.85416 0.88427 0.0
O572 O 0.7124 0.78646 0.84568 0.0
O573 O 0.69225 0.78826 0.87971 0.0
O574 O 0.77928 0.18938 0.09341 0.0
Cd575 Cd 0.75043 0.16628 0.09074 0.0
Cd576 Cd 0.72712 0.19874 0.119 0.0
O577 O 0.75791 0.21775 0.1107 0.0
O578 O 0.75605 0.14695 0.06148 0.0
O579 O 0.72563 0.17251 0.06527 0.0
C580 C 0.73755 0.15742 0.05213 0.0
C581 C 0.69609 0.22529 0.12949 0.0
C582 C 0.77767 0.21058 0.10177 0.0
C583 C 0.73869 0.14898 0.13942 0.0
O584 O 0.73089 0.17024 0.14272 0.0
O585 O 0.74624 0.14266 0.11881 0.0
O586 O 0.71527 0.22302 0.14209 0.0
O587 O 0.69368 0.21186 0.11074 0.0
O588 O 0.30449 0.28083 0.59401 0.0
Cd589 Cd 0.32922 0.25365 0.58972 0.0
Cd590 Cd 0.30016 0.22834 0.62137 0.0
O591 O 0.27946 0.25855 0.61497 0.0
O592 O 0.34684 0.26197 0.56003 0.0
O593 O 0.32431 0.22926 0.56349 0.0
C594 C 0.33787 0.24288 0.55036 0.0
C595 C 0.2752 0.19722 0.63529 0.0
C596 C 0.28453 0.27838 0.60482 0.0
C597 C 0.35109 0.24267 0.63695 0.0
O598 O 0.33092 0.23306 0.64193 0.0
O599 O 0.35488 0.25127 0.61613 0.0
O600 O 0.27888 0.21655 0.64729 0.0
O601 O 0.28642 0.19463 0.61516 0.0
O602 O 0.21314 0.80961 0.09347 0.0
Cd603 Cd 0.24037 0.83426 0.08944 0.0
Cd604 Cd 0.26426 0.80489 0.12401 0.0
O605 O 0.23397 0.78468 0.11617 0.0
O606 O 0.23299 0.85079 0.05887 0.0
O607 O 0.26558 0.82846 0.06416 0.0
C608 C 0.25226 0.84132 0.05006 0.0
C609 C 0.29363 0.78128 0.14373 0.0
C610 C 0.21484 0.78981 0.10472 0.0
C611 C 0.25016 0.85744 0.13605 0.0
O612 O 0.25932 0.83728 0.1418 0.0
O613 O 0.24185 0.86077 0.11504 0.0
O614 O 0.27334 0.78664 0.15328 0.0
O615 O 0.29771 0.78927 0.12234 0.0
O616 O 0.68653 0.71595 0.59236 0.0
Cd617 Cd 0.66125 0.74275 0.58925 0.0
Cd618 Cd 0.69021 0.7668 0.624 0.0
O619 O 0.71097 0.73728 0.61505 0.0
O620 O 0.64415 0.73551 0.55898 0.0
O621 O 0.66589 0.76849 0.56426 0.0
C622 C 0.65293 0.75515 0.55028 0.0
C623 C 0.7147 0.7952 0.64402 0.0
C624 C 0.70639 0.71816 0.60341 0.0
C625 C 0.63844 0.75076 0.63654 0.0
O626 O 0.65831 0.76054 0.64236 0.0
O627 O 0.63517 0.7431 0.6153 0.0
O628 O 0.7094 0.77463 0.65297 0.0
O629 O 0.70557 0.80043 0.62335 0.0
O630 O 0.21894 0.19022 0.90248 0.0
Cd631 Cd 0.24557 0.16481 0.90648 0.0
Cd632 Cd 0.27015 0.19447 0.87464 0.0
O633 O 0.24059 0.21597 0.88158 0.0
O634 O 0.23719 0.14751 0.93637 0.0
O635 O 0.27042 0.16917 0.93241 0.0
C636 C 0.25657 0.15613 0.94581 0.0
C637 C 0.3031 0.21539 0.85853 0.0
C638 C 0.22101 0.21045 0.89206 0.0
C639 C 0.25488 0.14337 0.85925 0.0
O640 O 0.26409 0.16375 0.85457 0.0
O641 O 0.24693 0.13895 0.88018 0.0
O642 O 0.28323 0.21282 0.84711 0.0
O643 O 0.30449 0.20683 0.88004 0.0
O644 O 0.30493 0.71729 0.40203 0.0
Cd645 Cd 0.33155 0.74262 0.40661 0.0
Cd646 Cd 0.30539 0.76804 0.37155 0.0
O647 O 0.28314 0.73867 0.37676 0.0
O648 O 0.34727 0.73371 0.43722 0.0
O649 O 0.32789 0.76813 0.43207 0.0
C650 C 0.33973 0.75379 0.44605 0.0
C651 C 0.28536 0.80068 0.35347 0.0
C652 C 0.2863 0.71961 0.389 0.0
C653 C 0.35688 0.75061 0.36064 0.0
O654 O 0.33782 0.76165 0.35447 0.0
O655 O 0.35873 0.74183 0.38162 0.0
O656 O 0.28942 0.78088 0.34239 0.0
O657 O 0.29214 0.80225 0.3756 0.0
O658 O 0.68808 0.28252 0.40361 0.0
Cd659 Cd 0.66558 0.2532 0.40626 0.0
Cd660 Cd 0.69924 0.23101 0.37819 0.0
O661 O 0.71791 0.26145 0.38854 0.0
O662 O 0.64572 0.25877 0.43518 0.0
O663 O 0.67179 0.22871 0.43205 0.0
C664 C 0.65629 0.24048 0.44483 0.0
C665 C 0.7259 0.20071 0.36554 0.0
C666 C 0.70978 0.28123 0.39661 0.0
C667 C 0.64942 0.2425 0.35726 0.0
O668 O 0.67107 0.23576 0.35415 0.0
O669 O 0.64228 0.24862 0.37806 0.0
O670 O 0.72385 0.22089 0.35459 0.0
O671 O 0.71245 0.19704 0.38408 0.0
C672 C 0.98865 0.24457 0.1396 0.0
C673 C 0.97455 0.25868 0.1552 0.0
C674 C 0.01374 0.24479 0.14096 0.0
C675 C 0.02582 0.25922 0.15787 0.0
H676 H 0.98028 0.23226 0.12701 0.0
H677 H 0.02369 0.23269 0.12934 0.0
S678 S 0.99751 0.30231 0.20032 0.0
N679 N 0.9746 0.28965 0.18622 0.0
N680 N 0.022 0.29012 0.18866 0.0
C681 C 0.01212 0.27499 0.17218 0.0
C682 C 0.9864 0.27471 0.17086 0.0
C683 C 0.223 0.5121 0.67297 0.0
C684 C 0.23657 0.52489 0.65584 0.0
C685 C 0.2227 0.48684 0.67302 0.0
C686 C 0.23594 0.47366 0.65591 0.0
H687 H 0.21396 0.52156 0.68743 0.0
H688 H 0.21344 0.47767 0.68753 0.0
S689 S 0.26968 0.49884 0.60403 0.0
N690 N 0.26015 0.52265 0.61904 0.0
N691 N 0.25953 0.47528 0.61904 0.0
C692 C 0.24754 0.48631 0.63731 0.0
C693 C 0.24788 0.51193 0.6373 0.0
C694 C 0.00709 0.74894 0.14301 0.0
C695 C 0.02101 0.73628 0.15993 0.0
C696 C 0.98199 0.74751 0.14312 0.0
C697 C 0.96974 0.73343 0.16023 0.0
H698 H 0.01556 0.76102 0.13025 0.0
H699 H 0.97214 0.75859 0.13045 0.0
S700 S 0.99797 0.69378 0.20602 0.0
N701 N 0.02092 0.70685 0.19237 0.0
N702 N 0.97353 0.7042 0.19266 0.0
C703 C 0.98347 0.71901 0.17592 0.0
C704 C 0.00918 0.72043 0.17575 0.0
C705 C 0.775 0.48731 0.67119 0.0
C706 C 0.76183 0.47464 0.65364 0.0
C707 C 0.77467 0.51257 0.67187 0.0
C708 C 0.76115 0.52581 0.65505 0.0
H709 H 0.78414 0.47771 0.68549 0.0
H710 H 0.78358 0.52163 0.68667 0.0
S711 S 0.72839 0.50125 0.60231 0.0
N712 N 0.73847 0.47728 0.6167 0.0
N713 N 0.73781 0.52463 0.61804 0.0
C714 C 0.74998 0.5134 0.63606 0.0
C715 C 0.75034 0.4878 0.63534 0.0
C716 C 0.98501 0.72098 0.82371 0.0
C717 C 0.97202 0.73263 0.84207 0.0
C718 C 0.01027 0.72125 0.8235 0.0
C719 C 0.0233 0.7332 0.84164 0.0
H720 H 0.97567 0.71309 0.80851 0.0
H721 H 0.01952 0.71356 0.80815 0.0
S722 S 0.99783 0.76148 0.89652 0.0
N723 N 0.97409 0.75278 0.8809 0.0
N724 N 0.02147 0.75331 0.88048 0.0
C725 C 0.01055 0.74276 0.86129 0.0
C726 C 0.9849 0.74247 0.86151 0.0
C727 C 0.74622 0.51423 0.35419 0.0
C728 C 0.76082 0.52697 0.33791 0.0
C729 C 0.74624 0.48912 0.35478 0.0
C730 C 0.76082 0.47565 0.33907 0.0
H731 H 0.73379 0.52368 0.36589 0.0
H732 H 0.7338 0.48022 0.36689 0.0
S733 S 0.80496 0.50035 0.29541 0.0
N734 N 0.79231 0.52435 0.30756 0.0
N735 N 0.79231 0.47691 0.30863 0.0
C736 C 0.77699 0.48811 0.32407 0.0
C737 C 0.777 0.51385 0.32349 0.0
C738 C 0.01123 0.27543 0.82899 0.0
C739 C 0.02489 0.2625 0.84594 0.0
C740 C 0.98599 0.27568 0.83016 0.0
C741 C 0.97367 0.26305 0.84836 0.0
H742 H 0.01995 0.28395 0.81376 0.0
H743 H 0.97612 0.28439 0.81577 0.0
S744 S 0.0015 0.23125 0.90012 0.0
N745 N 0.02453 0.24026 0.88363 0.0
N746 N 0.9772 0.24083 0.88594 0.0
C747 C 0.98727 0.25217 0.86673 0.0
C748 C 0.01288 0.25186 0.86549 0.0
C749 C 0.24612 0.48427 0.3577 0.0
C750 C 0.23341 0.47149 0.33992 0.0
C751 C 0.24661 0.50941 0.35784 0.0
C752 C 0.23437 0.52285 0.34023 0.0
H753 H 0.2569 0.47482 0.37093 0.0
H754 H 0.25773 0.5183 0.37117 0.0
S755 S 0.19508 0.49821 0.29212 0.0
N756 N 0.20572 0.4742 0.30606 0.0
N757 N 0.20661 0.52162 0.30635 0.0
C758 C 0.21978 0.51042 0.32366 0.0
C759 C 0.2193 0.48468 0.3235 0.0
C760 C 0.17115 0.98776 0.27787 0.0
C761 C 0.1526 0.975 0.26627 0.0
C762 C 0.17125 0.01303 0.27822 0.0
C763 C 0.15278 0.02627 0.26701 0.0
H764 H 0.18658 0.9783 0.28514 0.0
H765 H 0.18675 0.02214 0.28576 0.0
S766 S 0.09735 0.00119 0.23939 0.0
N767 N 0.11331 0.97734 0.2471 0.0
N768 N 0.11343 0.02472 0.24782 0.0
C769 C 0.13293 0.01365 0.25764 0.0
C770 C 0.13286 0.98801 0.25724 0.0
C771 C 0.51061 0.63385 0.75413 0.0
C772 C 0.52383 0.65184 0.76607 0.0
C773 C 0.48546 0.6341 0.75399 0.0
C774 C 0.47247 0.65234 0.76578 0.0
H775 H 0.51971 0.62017 0.74362 0.0
H776 H 0.47621 0.62059 0.74338 0.0
S777 S 0.49843 0.70118 0.80329 0.0
N778 N 0.52206 0.68653 0.79277 0.0
N779 N 0.47462 0.687 0.79251 0.0
C780 C 0.48537 0.66911 0.77974 0.0
C781 C 0.51111 0.66885 0.77989 0.0
C782 C 0.85654 0.0117 0.24834 0.0
C783 C 0.83888 0.02411 0.26153 0.0
C784 C 0.85785 0.98662 0.2488 0.0
C785 C 0.84143 0.97288 0.26232 0.0
H786 H 0.86879 0.02137 0.23664 0.0
H787 H 0.87105 0.97795 0.23735 0.0
S788 S 0.79409 0.99692 0.30292 0.0
N789 N 0.80648 0.02109 0.29082 0.0
N790 N 0.8088 0.9737 0.29159 0.0
C791 C 0.82499 0.98512 0.27724 0.0
C792 C 0.82374 0.01083 0.27686 0.0
C793 C 0.51158 0.32832 0.7724 0.0
C794 C 0.524 0.34626 0.75952 0.0
C795 C 0.48633 0.32769 0.7727 0.0
C796 C 0.47274 0.34496 0.7601 0.0
H797 H 0.52135 0.31373 0.78089 0.0
H798 H 0.47749 0.31263 0.7814 0.0
S799 S 0.49665 0.39867 0.7284 0.0
N800 N 0.52083 0.38393 0.73739 0.0
N801 N 0.47346 0.3827 0.73791 0.0
C802 C 0.48495 0.36427 0.74922 0.0
C803 C 0.51058 0.36493 0.74894 0.0
C804 C 0.16875 0.0124 0.72212 0.0
C805 C 0.15125 0.02558 0.73483 0.0
C806 C 0.16852 0.98713 0.72221 0.0
C807 C 0.15077 0.97434 0.73499 0.0
H808 H 0.1837 0.02155 0.71357 0.0
H809 H 0.18331 0.97767 0.71372 0.0
S810 S 0.09785 0.00059 0.76619 0.0
N811 N 0.11348 0.0241 0.7569 0.0
N812 N 0.11299 0.97672 0.75702 0.0
C813 C 0.13184 0.98737 0.7456 0.0
C814 C 0.1321 0.01299 0.74553 0.0
C815 C 0.48846 0.63523 0.24158 0.0
C816 C 0.4748 0.65323 0.23016 0.0
C817 C 0.51359 0.63565 0.24102 0.0
C818 C 0.52613 0.65413 0.22909 0.0
H819 H 0.47972 0.6214 0.2522 0.0
H820 H 0.52322 0.62212 0.25126 0.0
S821 S 0.49879 0.70316 0.19282 0.0
N822 N 0.47555 0.6882 0.2038 0.0
N823 N 0.52299 0.68905 0.20279 0.0
C824 C 0.51273 0.67093 0.21564 0.0
C825 C 0.48699 0.67047 0.21617 0.0
C826 C 0.82589 0.01256 0.72595 0.0
C827 C 0.84338 0.02549 0.73892 0.0
C828 C 0.8261 0.9873 0.72563 0.0
C829 C 0.84382 0.9743 0.73825 0.0
H830 H 0.81096 0.02189 0.71754 0.0
H831 H 0.81132 0.97797 0.71697 0.0
S832 S 0.8967 -3e-05 0.76998 0.0
N833 N 0.8811 0.02364 0.76104 0.0
N834 N 0.88156 0.97627 0.76038 0.0
C835 C 0.86274 0.98712 0.74909 0.0
C836 C 0.8625 0.01273 0.74945 0.0
C837 C 0.51295 0.3256 0.22266 0.0
C838 C 0.52645 0.34264 0.23564 0.0
C839 C 0.48768 0.32593 0.22325 0.0
C840 C 0.47521 0.34333 0.2368 0.0
H841 H 0.52187 0.31095 0.21338 0.0
H842 H 0.47799 0.31151 0.21439 0.0
S843 S 0.50232 0.39501 0.26932 0.0
N844 N 0.52557 0.37959 0.25907 0.0
N845 N 0.4782 0.3803 0.26009 0.0
C846 C 0.48854 0.36179 0.24785 0.0
C847 C 0.51416 0.36142 0.2473 0.0
C848 C 0.24655 0.13577 0.00967 0.0
C849 C 0.25996 0.15245 0.02318 0.0
C850 C 0.24707 0.13597 0.98455 0.0
C851 C 0.261 0.15287 0.97187 0.0
H852 H 0.23455 0.12318 0.01851 0.0
H853 H 0.23544 0.12353 0.97504 0.0
S854 S 0.30233 0.19796 -0.00125 0.0
N855 N 0.28988 0.18444 0.02211 0.0
N856 N 0.29085 0.18483 0.97468 0.0
C857 C 0.27616 0.16827 0.9851 0.0
C858 C 0.27564 0.16806 0.01083 0.0
C859 C 0.24313 0.85941 0.01022 0.0
C860 C 0.25709 0.84334 0.02393 0.0
C861 C 0.24309 0.85844 0.98511 0.0
C862 C 0.25706 0.84143 0.97265 0.0
H863 H 0.23114 0.87211 0.01891 0.0
H864 H 0.23111 0.87044 0.97547 0.0
S865 S 0.29956 0.79769 -0.0001 0.0
N866 N 0.28742 0.81171 0.02313 0.0
N867 N 0.28738 0.80997 0.97571 0.0
C868 C 0.2727 0.82662 0.98598 0.0
C869 C 0.2727 0.82756 0.0117 0.0
C870 C 0.63305 0.74708 0.5111 0.0
C871 C 0.65003 0.76038 0.52434 0.0
C872 C 0.6333 0.74704 0.48598 0.0
C873 C 0.65052 0.76034 0.47305 0.0
H874 H 0.62023 0.73551 0.52016 0.0
H875 H 0.62066 0.73546 0.47667 0.0
S876 S 0.69645 0.80126 0.49908 0.0
N877 N 0.68264 0.78961 0.52269 0.0
N878 N 0.68308 0.78956 0.47524 0.0
C879 C 0.66618 0.77549 0.48595 0.0
C880 C 0.66595 0.7755 0.51169 0.0
C881 C 0.72034 0.17281 0.01351 0.0
C882 C 0.73236 0.15446 0.02621 0.0
C883 C 0.72056 0.17338 0.98825 0.0
C884 C 0.73284 0.15566 0.97499 0.0
H885 H 0.71223 0.18775 0.02306 0.0
H886 H 0.71262 0.18873 0.9792 0.0
S887 S 0.76206 0.10087 -0.00045 0.0
N888 N 0.7531 0.11596 0.02354 0.0
N889 N 0.75362 0.11716 0.97617 0.0
C890 C 0.74275 0.13599 0.98742 0.0
C891 C 0.74246 0.13535 0.01304 0.0
C892 C 0.32377 0.22497 0.51153 0.0
C893 C 0.34094 0.23855 0.52429 0.0
C894 C 0.32324 0.22518 0.48626 0.0
C895 C 0.33982 0.23904 0.47307 0.0
H896 H 0.30969 0.21541 0.52104 0.0
H897 H 0.3088 0.21578 0.47714 0.0
S898 S 0.3915 0.27333 0.49783 0.0
N899 N 0.37726 0.26293 0.52175 0.0
N900 N 0.37613 0.26344 0.4744 0.0
C901 C 0.35837 0.25083 0.48558 0.0
C902 C 0.35897 0.25055 0.51119 0.0
C903 C 0.72479 0.8214 0.01266 0.0
C904 C 0.73927 0.83743 0.02586 0.0
C905 C 0.72482 0.82176 0.98739 0.0
C906 C 0.73931 0.83818 0.97466 0.0
H907 H 0.71464 0.80748 0.0218 0.0
H908 H 0.71468 0.8081 0.97786 0.0
S909 S 0.77614 0.88727 0.00104 0.0
N910 N 0.76533 0.87258 0.02449 0.0
N911 N 0.76534 0.87332 0.97713 0.0
C912 C 0.75204 0.85571 0.98773 0.0
C913 C 0.75203 0.85531 0.01334 0.0
C914 C 0.67128 0.2243 0.50914 0.0
C915 C 0.65302 0.2363 0.52194 0.0
C916 C 0.67122 0.22386 0.48388 0.0
C917 C 0.65289 0.23539 0.47072 0.0
H918 H 0.68663 0.21681 0.51856 0.0
H919 H 0.68654 0.21603 0.4747 0.0
S920 S 0.5981 0.26407 0.49601 0.0
N921 N 0.61408 0.25618 0.5198 0.0
N922 N 0.61389 0.25527 0.47242 0.0
C923 C 0.63328 0.24514 0.48341 0.0
C924 C 0.63337 0.24563 0.50903 0.0
C925 C 0.35955 0.74467 0.48504 0.0
C926 C 0.34304 0.75873 0.47201 0.0
C927 C 0.35992 0.74499 0.51016 0.0
C928 C 0.34375 0.75934 0.52332 0.0
H929 H 0.37159 0.73239 0.47584 0.0
H930 H 0.37221 0.73291 0.51931 0.0
S931 S 0.29934 0.80222 0.49774 0.0
N932 N 0.31198 0.78958 0.47399 0.0
N933 N 0.31263 0.79014 0.52144 0.0
C934 C 0.32852 0.77506 0.51055 0.0
C935 C 0.32817 0.77476 0.48481 0.0
C936 C 0.15438 0.35375 0.26088 0.0
C937 C 0.17732 0.36077 0.25274 0.0
C938 C 0.1397 0.33879 0.24663 0.0
C939 C 0.14773 0.33066 0.22403 0.0
H940 H 0.14882 0.35783 0.27912 0.0
H941 H 0.1232 0.33171 0.25426 0.0
S942 S 0.20428 0.34778 0.19318 0.0
N943 N 0.20572 0.36143 0.21955 0.0
N944 N 0.17823 0.33345 0.19289 0.0
C945 C 0.16942 0.33972 0.21485 0.0
C946 C 0.18423 0.35479 0.22922 0.0
C947 C 0.15224 0.68905 0.73296 0.0
C948 C 0.14074 0.68007 0.7536 0.0
C949 C 0.16725 0.67448 0.71915 0.0
C950 C 0.17131 0.65034 0.72539 0.0
H951 H 0.1508 0.70793 0.72825 0.0
H952 H 0.17691 0.6826 0.70426 0.0
S953 S 0.14303 0.61725 0.77588 0.0
N954 N 0.1323 0.64492 0.77827 0.0
N955 N 0.16078 0.61725 0.75198 0.0
C956 C 0.15828 0.64044 0.74466 0.0
C957 C 0.14287 0.65542 0.75889 0.0
C958 C 0.83729 0.63482 0.24834 0.0
C959 C 0.83257 0.64075 0.27248 0.0
C960 C 0.85245 0.64938 0.23423 0.0
C961 C 0.86308 0.67015 0.24404 0.0
H962 H 0.82723 0.62054 0.23965 0.0
H963 H 0.85364 0.64592 0.21508 0.0
S964 S 0.85932 0.69089 0.30722 0.0
N965 N 0.84211 0.66665 0.30629 0.0
N966 N 0.87048 0.694 0.27984 0.0
C967 C 0.86055 0.67458 0.26874 0.0
C968 C 0.84526 0.65983 0.283 0.0
C969 C 0.83085 0.3017 0.74453 0.0
C970 C 0.84773 0.31217 0.76021 0.0
C971 C 0.81667 0.31573 0.72938 0.0
C972 C 0.81864 0.34094 0.72913 0.0
H973 H 0.82808 0.28239 0.74429 0.0
H974 H 0.80356 0.30664 0.71815 0.0
S975 S 0.86151 0.37731 0.76516 0.0
N976 N 0.86689 0.34925 0.77347 0.0
N977 N 0.83994 0.37589 0.7447 0.0
C978 C 0.83633 0.35174 0.74371 0.0
C979 C 0.85094 0.33728 0.75933 0.0
C980 C 0.25305 0.1593 0.35561 0.0
C981 C 0.27429 0.16973 0.34659 0.0
C982 C 0.23891 0.14416 0.34097 0.0
C983 C 0.2458 0.13926 0.31708 0.0
H984 H 0.24629 0.16448 0.37315 0.0
H985 H 0.22162 0.13806 0.34761 0.0
S986 S 0.3023 0.15835 0.28716 0.0
N987 N 0.30331 0.17118 0.31395 0.0
N988 N 0.27692 0.14289 0.28657 0.0
C989 C 0.2682 0.14764 0.30895 0.0
C990 C 0.28244 0.16288 0.32371 0.0
C991 C 0.32428 0.7759 0.81788 0.0
C992 C 0.32193 0.77188 0.84272 0.0
C993 C 0.33915 0.76148 0.80377 0.0
C994 C 0.35231 0.74239 0.81387 0.0
H995 H 0.31364 0.78965 0.80901 0.0
H996 H 0.33946 0.76466 0.78452 0.0
S997 S 0.35463 0.72605 0.87852 0.0
N998 N 0.33565 0.74896 0.87738 0.0
N999 N 0.36388 0.72155 0.85059 0.0
C1000 C 0.35167 0.73927 0.83899 0.0
C1001 C 0.33638 0.75412 0.85351 0.0
C1002 C 0.72474 0.81669 0.31573 0.0
C1003 C 0.72525 0.81801 0.34098 0.0
C1004 C 0.73968 0.83104 0.30164 0.0
C1005 C 0.75589 0.84741 0.3121 0.0
H1006 H 0.71312 0.80391 0.30666 0.0
H1007 H 0.73893 0.82874 0.28229 0.0
S1008 S 0.76286 0.85943 0.37739 0.0
N1009 N 0.74205 0.8382 0.37601 0.0
N1010 N 0.77043 0.86546 0.34925 0.0
C1011 C 0.7557 0.85005 0.33729 0.0
C1012 C 0.74029 0.83527 0.35181 0.0
C1013 C 0.6765 0.22927 0.81883 0.0
C1014 C 0.6762 0.23234 0.84391 0.0
C1015 C 0.66205 0.24324 0.80387 0.0
C1016 C 0.64668 0.26097 0.81331 0.0
H1017 H 0.68866 0.21646 0.81052 0.0
H1018 H 0.66363 0.24065 0.7846 0.0
S1019 S 0.63735 0.27454 0.87797 0.0
N1020 N 0.65786 0.25297 0.87787 0.0
N1021 N 0.63046 0.27959 0.84946 0.0
C1022 C 0.6449 0.26322 0.83847 0.0
C1023 C 0.65975 0.24879 0.85387 0.0
C1024 C 0.25323 0.83186 0.64774 0.0
C1025 C 0.27066 0.81698 0.65859 0.0
C1026 C 0.23785 0.84628 0.66187 0.0
C1027 C 0.23955 0.8461 0.68716 0.0
H1028 H 0.25059 0.83136 0.62843 0.0
H1029 H 0.22379 0.85654 0.65309 0.0
S1030 S 0.28535 0.81395 0.72368 0.0
N1031 N 0.2909 0.80565 0.6957 0.0
N1032 N 0.26225 0.83256 0.72205 0.0
C1033 C 0.25814 0.83272 0.69791 0.0
C1034 C 0.27364 0.81819 0.68367 0.0
C1035 C 0.65885 0.75132 0.14001 0.0
C1036 C 0.66686 0.77384 0.14838 0.0
C1037 C 0.64372 0.73689 0.15435 0.0
C1038 C 0.63641 0.74476 0.17728 0.0
H1039 H 0.66613 0.74389 0.12352 0.0
H1040 H 0.63972 0.71871 0.14852 0.0
S1041 S 0.64873 0.80417 0.20489 0.0
N1042 N 0.66349 0.80471 0.17909 0.0
N1043 N 0.63518 0.77773 0.20592 0.0
C1044 C 0.64223 0.76823 0.18449 0.0
C1045 C 0.65748 0.78278 0.17003 0.0
C1046 C 0.76676 0.18474 0.68638 0.0
C1047 C 0.76799 0.15963 0.68361 0.0
C1048 C 0.7522 0.19881 0.67161 0.0
C1049 C 0.7381 0.18849 0.6533 0.0
H1050 H 0.77685 0.19374 0.70045 0.0
H1051 H 0.75175 0.21802 0.67494 0.0
S1052 S 0.73592 0.12368 0.63736 0.0
N1053 N 0.75483 0.12496 0.66031 0.0
N1054 N 0.72719 0.15166 0.63226 0.0
C1055 C 0.73985 0.1635 0.6495 0.0
C1056 C 0.75486 0.14901 0.66472 0.0
C1057 C 0.30961 0.23078 0.18283 0.0
C1058 C 0.31395 0.22809 0.15805 0.0
C1059 C 0.32405 0.24548 0.1971 0.0
C1060 C 0.34359 0.25829 0.18735 0.0
H1061 H 0.29464 0.22169 0.19141 0.0
H1062 H 0.31953 0.24699 0.21601 0.0
S1063 S 0.36364 0.25655 0.12366 0.0
N1064 N 0.33989 0.23863 0.12437 0.0
N1065 N 0.3673 0.26653 0.15145 0.0
C1066 C 0.3488 0.2552 0.16274 0.0
C1067 C 0.33393 0.24005 0.14804 0.0
C1068 C 0.83648 0.64101 0.74578 0.0
C1069 C 0.82637 0.65001 0.72438 0.0
C1070 C 0.85158 0.65559 0.76001 0.0
C1071 C 0.85675 0.6794 0.75305 0.0
H1072 H 0.83105 0.62355 0.75256 0.0
H1073 H 0.85743 0.649 0.77741 0.0
S1074 S 0.8383 0.70933 0.69638 0.0
N1075 N 0.82534 0.6826 0.6953 0.0
N1076 N 0.85357 0.70987 0.72188 0.0
C1077 C 0.84864 0.68752 0.73057 0.0
C1078 C 0.83344 0.67282 0.71623 0.0
C1079 C 0.84819 0.33499 0.23603 0.0
C1080 C 0.84809 0.30978 0.2386 0.0
C1081 C 0.83386 0.34959 0.25105 0.0
C1082 C 0.81917 0.33927 0.26895 0.0
H1083 H 0.85825 0.34331 0.22155 0.0
H1084 H 0.83321 0.36879 0.24773 0.0
S1085 S 0.81647 0.27471 0.28584 0.0
N1086 N 0.83489 0.27561 0.26255 0.0
N1087 N 0.80814 0.30284 0.29054 0.0
C1088 C 0.82052 0.31432 0.2728 0.0
C1089 C 0.83496 0.29961 0.25766 0.0
C1090 C 0.1391 0.33539 0.74885 0.0
C1091 C 0.14807 0.3254 0.77032 0.0
C1092 C 0.15382 0.35015 0.73438 0.0
C1093 C 0.17771 0.35509 0.74118 0.0
H1094 H 0.1215 0.33018 0.74225 0.0
H1095 H 0.1472 0.35598 0.71698 0.0
S1096 S 0.20784 0.33658 0.79772 0.0
N1097 N 0.18091 0.32405 0.79912 0.0
N1098 N 0.2084 0.35164 0.7721 0.0
C1099 C 0.1859 0.347 0.76364 0.0
C1100 C 0.17108 0.33214 0.77821 0.0
C1101 C 0.19301 0.66428 0.23935 0.0
C1102 C 0.18347 0.64799 0.25617 0.0
C1103 C 0.17814 0.6794 0.22601 0.0
C1104 C 0.15302 0.6789 0.22882 0.0
H1105 H 0.2123 0.66602 0.23697 0.0
H1106 H 0.18656 0.69217 0.21389 0.0
S1107 S 0.11866 0.63782 0.26861 0.0
N1108 N 0.14715 0.63076 0.27358 0.0
N1109 N 0.11891 0.65944 0.24816 0.0
C1110 C 0.14296 0.66163 0.24434 0.0
C1111 C 0.15828 0.64609 0.25812 0.0
C1112 C 0.75865 0.816 0.6914 0.0
C1113 C 0.76204 0.84058 0.68646 0.0
C1114 C 0.74364 0.80177 0.67727 0.0
C1115 C 0.73119 0.81135 0.65742 0.0
H1116 H 0.76756 0.8075 0.70653 0.0
H1117 H 0.74174 0.78299 0.68218 0.0
S1118 S 0.73433 0.87457 0.63607 0.0
N1119 N 0.75222 0.87395 0.65984 0.0
N1120 N 0.72373 0.84694 0.63299 0.0
C1121 C 0.73476 0.8358 0.65175 0.0
C1122 C 0.75024 0.85046 0.66632 0.0
C1123 C 0.63976 0.25033 0.15756 0.0
C1124 C 0.64847 0.27227 0.16669 0.0
C1125 C 0.65442 0.2358 0.14283 0.0
C1126 C 0.67801 0.24302 0.13709 0.0
H1127 H 0.62257 0.24336 0.1636 0.0
H1128 H 0.64816 0.21801 0.13788 0.0
S1129 S 0.70714 0.30085 0.153 0.0
N1130 N 0.68052 0.30197 0.16619 0.0
N1131 N 0.70795 0.27483 0.13866 0.0
C1132 C 0.68577 0.26599 0.14411 0.0
C1133 C 0.67099 0.28062 0.15893 0.0
C1134 C 0.23672 0.18892 0.65542 0.0
C1135 C 0.25762 0.17974 0.64458 0.0
C1136 C 0.22208 0.17437 0.66965 0.0
C1137 C 0.22775 0.15008 0.67359 0.0
H1138 H 0.23236 0.20789 0.654 0.0
H1139 H 0.20691 0.18259 0.67879 0.0
S1140 S 0.27905 0.11665 0.64719 0.0
N1141 N 0.28222 0.14439 0.63684 0.0
N1142 N 0.2544 0.11677 0.66389 0.0
C1143 C 0.24747 0.14006 0.66132 0.0
C1144 C 0.26253 0.15501 0.64669 0.0
C1145 C 0.30643 0.76249 0.18209 0.0
C1146 C 0.31104 0.76646 0.15753 0.0
C1147 C 0.32112 0.74761 0.19592 0.0
C1148 C 0.34121 0.73588 0.18594 0.0
H1149 H 0.29113 0.7708 0.19088 0.0
H1150 H 0.3164 0.74519 0.21468 0.0
S1151 S 0.36194 0.74088 0.12263 0.0
N1152 N 0.33767 0.75805 0.12378 0.0
N1153 N 0.36554 0.72982 0.15001 0.0
C1154 C 0.34655 0.74008 0.16151 0.0
C1155 C 0.33142 0.75542 0.14727 0.0
C1156 C 0.76415 0.19155 0.34513 0.0
C1157 C 0.74312 0.18286 0.35616 0.0
C1158 C 0.77813 0.17676 0.33046 0.0
C1159 C 0.77166 0.1527 0.32629 0.0
H1160 H 0.76907 0.21037 0.34664 0.0
H1161 H 0.79334 0.18467 0.32113 0.0
S1162 S 0.72005 0.12034 0.35342 0.0
N1163 N 0.7178 0.14805 0.36405 0.0
N1164 N 0.74437 0.11999 0.33625 0.0
C1165 C 0.75196 0.14308 0.3389 0.0
C1166 C 0.73757 0.15827 0.35395 0.0
C1167 C 0.33492 0.24734 0.85601 0.0
C1168 C 0.32341 0.22702 0.84619 0.0
C1169 C 0.34952 0.26216 0.84147 0.0
C1170 C 0.35279 0.25686 0.81692 0.0
H1171 H 0.33114 0.25281 0.87434 0.0
H1172 H 0.35666 0.27869 0.84894 0.0
S1173 S 0.33019 0.20326 0.78424 0.0
N1174 N 0.31902 0.2006 0.81165 0.0
N1175 N 0.34629 0.22825 0.78451 0.0
C1176 C 0.34315 0.23542 0.80771 0.0
C1177 C 0.32846 0.22051 0.82234 0.0
C1178 C 0.25475 0.83397 0.35157 0.0
C1179 C 0.27312 0.82039 0.34058 0.0
C1180 C 0.23969 0.84897 0.3377 0.0
C1181 C 0.24272 0.85065 0.31261 0.0
H1182 H 0.25101 0.83179 0.37058 0.0
H1183 H 0.22472 0.85797 0.34638 0.0
S1184 S 0.29129 0.82258 0.27638 0.0
N1185 N 0.29568 0.81243 0.30395 0.0
N1186 N 0.2676 0.84045 0.27809 0.0
C1187 C 0.26233 0.83878 0.30195 0.0
C1188 C 0.2775 0.82367 0.31591 0.0
C1189 C 0.65566 0.76001 0.80581 0.0
C1190 C 0.64277 0.74064 0.8157 0.0
C1191 C 0.67049 0.77434 0.82005 0.0
C1192 C 0.67305 0.76995 0.8448 0.0
H1193 H 0.65523 0.76345 0.78661 0.0
H1194 H 0.68098 0.78829 0.81132 0.0
S1195 S 0.64092 0.72336 0.88011 0.0
N1196 N 0.63155 0.71918 0.85217 0.0
N1197 N 0.6597 0.74644 0.87921 0.0
C1198 C 0.65879 0.75194 0.85542 0.0
C1199 C 0.64354 0.73717 0.84076 0.0
C1200 C 0.10739 0.18088 0.22696 0.0
C1201 C 0.11623 0.20396 0.23267 0.0
C1202 C 0.1171 0.16018 0.23761 0.0
C1203 C 0.13608 0.16174 0.25432 0.0
H1204 H 0.09411 0.17857 0.21287 0.0
H1205 H 0.11099 0.14282 0.23116 0.0
S1206 S 0.16124 0.21799 0.28014 0.0
N1207 N 0.14173 0.22725 0.25972 0.0
N1208 N 0.16005 0.18831 0.27955 0.0
C1209 C 0.14306 0.18475 0.26229 0.0
C1210 C 0.13311 0.20587 0.25152 0.0
C1211 C 0.33972 0.61373 0.73377 0.0
C1212 C 0.33806 0.63144 0.75181 0.0
C1213 C 0.319 0.60406 0.72309 0.0
C1214 C 0.29584 0.61168 0.73011 0.0
H1215 H 0.35706 0.60875 0.72636 0.0
H1216 H 0.3213 0.59192 0.70801 0.0
S1217 S 0.28189 0.65265 0.7811 0.0
N1218 N 0.31157 0.65258 0.77951 0.0
N1219 N 0.27261 0.63431 0.75964 0.0
C1220 C 0.29399 0.62707 0.75019 0.0
C1221 C 0.31511 0.63699 0.76099 0.0
C1222 C 0.8841 0.8403 0.23186 0.0
C1223 C 0.8686 0.83945 0.25187 0.0
C1224 C 0.89366 0.81917 0.22193 0.0
C1225 C 0.88818 0.79644 0.23176 0.0
H1226 H 0.88715 0.8571 0.22243 0.0
H1227 H 0.90386 0.8206 0.20538 0.0
S1228 S 0.85394 0.78537 0.28817 0.0
N1229 N 0.85213 0.81474 0.28399 0.0
N1230 N 0.87036 0.77501 0.26567 0.0
C1231 C 0.87531 0.79574 0.25363 0.0
C1232 C 0.86542 0.81726 0.26359 0.0
C1233 C 0.65608 0.38628 0.72781 0.0
C1234 C 0.65747 0.37022 0.74737 0.0
C1235 C 0.67697 0.39556 0.71711 0.0
C1236 C 0.69998 0.38915 0.72561 0.0
H1237 H 0.63894 0.39006 0.7193 0.0
H1238 H 0.675 0.4062 0.70089 0.0
S1239 S 0.71294 0.35338 0.78059 0.0
N1240 N 0.68335 0.35246 0.77789 0.0
N1241 N 0.7226 0.36996 0.7579 0.0
C1242 C 0.70142 0.37569 0.74705 0.0
C1243 C 0.68015 0.36622 0.75791 0.0
C1244 C 0.11836 0.79854 0.74922 0.0
C1245 C 0.1036 0.80015 0.76979 0.0
C1246 C 0.12892 0.81904 0.7391 0.0
C1247 C 0.12498 0.84203 0.74896 0.0
H1248 H 0.12347 0.78117 0.74198 0.0
H1249 H 0.14167 0.81659 0.72454 0.0
S1250 S 0.08257 0.85667 0.79857 0.0
N1251 N 0.08173 0.82704 0.79659 0.0
N1252 N 0.10142 0.86566 0.77742 0.0
C1253 C 0.10773 0.84423 0.76744 0.0
C1254 C 0.09708 0.82325 0.7779 0.0
C1255 C 0.68469 0.64565 0.23766 0.0
C1256 C 0.66165 0.63629 0.2426 0.0
C1257 C 0.70534 0.63581 0.24824 0.0
C1258 C 0.70381 0.61624 0.26428 0.0
H1259 H 0.68672 0.66178 0.22688 0.0
H1260 H 0.72236 0.64482 0.24516 0.0
S1261 S 0.64858 0.58128 0.27833 0.0
N1262 N 0.63912 0.60344 0.26094 0.0
N1263 N 0.67796 0.585 0.28088 0.0
C1264 C 0.68128 0.60494 0.26709 0.0
C1265 C 0.6602 0.61493 0.25622 0.0
C1266 C 0.88129 0.19859 0.75642 0.0
C1267 C 0.89374 0.19674 0.77844 0.0
C1268 C 0.87103 0.17835 0.74551 0.0
C1269 C 0.87292 0.15541 0.75608 0.0
H1270 H 0.87768 0.21602 0.74847 0.0
H1271 H 0.85994 0.18106 0.7297 0.0
S1272 S 0.90938 0.13989 0.80994 0.0
N1273 N 0.91166 0.16944 0.80767 0.0
N1274 N 0.89245 0.13132 0.78708 0.0
C1275 C 0.88813 0.15282 0.77622 0.0
C1276 C 0.89852 0.17352 0.78744 0.0
C1277 C 0.3201 0.36598 0.23992 0.0
C1278 C 0.34288 0.36986 0.25031 0.0
C1279 C 0.29935 0.37631 0.24977 0.0
C1280 C 0.3005 0.39078 0.27057 0.0
H1281 H 0.318 0.35344 0.22513 0.0
H1282 H 0.28215 0.37125 0.2421 0.0
S1283 S 0.35637 0.4115 0.30086 0.0
N1284 N 0.36585 0.393 0.27962 0.0
N1285 N 0.32677 0.4123 0.29826 0.0
C1286 C 0.32342 0.39724 0.27927 0.0
C1287 C 0.34464 0.38682 0.26909 0.0
C1288 C 0.25573 0.12416 0.17665 0.0
C1289 C 0.24413 0.12212 0.15423 0.0
C1290 C 0.24561 0.11428 0.19749 0.0
C1291 C 0.22334 0.10214 0.19678 0.0
H1292 H 0.2718 0.13506 0.17849 0.0
H1293 H 0.25438 0.118 0.2145 0.0
S1294 S 0.18902 0.08643 0.14162 0.0
N1295 N 0.21175 0.10288 0.13181 0.0
N1296 N 0.19261 0.08441 0.17105 0.0
C1297 C 0.21321 0.09727 0.17405 0.0
C1298 C 0.22365 0.10723 0.15274 0.0
C1299 C 0.37269 0.75552 0.67744 0.0
C1300 C 0.37475 0.74469 0.65465 0.0
C1301 C 0.38271 0.7448 0.6979 0.0
C1302 C 0.39504 0.72268 0.69644 0.0
H1303 H 0.36164 0.77142 0.67984 0.0
H1304 H 0.37898 0.75299 0.7152 0.0
S1305 S 0.41091 0.69036 0.64013 0.0
N1306 N 0.39422 0.71324 0.63112 0.0
N1307 N 0.41298 0.69299 0.66966 0.0
C1308 C 0.39995 0.71336 0.67338 0.0
C1309 C 0.38983 0.72441 0.65244 0.0
C1310 C 0.75187 0.8795 0.19784 0.0
C1311 C 0.77408 0.89158 0.19585 0.0
C1312 C 0.74082 0.86913 0.17773 0.0
C1313 C 0.75151 0.87043 0.1548 0.0
H1314 H 0.74382 0.87631 0.21531 0.0
H1315 H 0.72481 0.85837 0.18061 0.0
S1316 S 0.80584 0.906 0.13883 0.0
N1317 N 0.80358 0.90871 0.16833 0.0
N1318 N 0.78278 0.88923 0.13047 0.0
C1319 C 0.77187 0.88531 0.15202 0.0
C1320 C 0.78319 0.89588 0.17258 0.0
C1321 C 0.60186 0.28394 0.67172 0.0
C1322 C 0.6057 0.27437 0.69489 0.0
C1323 C 0.61219 0.27322 0.65134 0.0
C1324 C 0.62682 0.25262 0.65341 0.0
H1325 H 0.5925 0.30089 0.66944 0.0
H1326 H 0.61045 0.28243 0.63424 0.0
S1327 S 0.63685 0.21683 0.70887 0.0
N1328 N 0.62083 0.24019 0.71787 0.0
N1329 N 0.64048 0.22034 0.67959 0.0
C1330 C 0.62824 0.24122 0.67595 0.0
C1331 C 0.61759 0.25201 0.69669 0.0
C1332 C 0.21256 0.8961 0.82412 0.0
C1333 C 0.22282 0.89329 0.80111 0.0
C1334 C 0.22351 0.88607 0.84453 0.0
C1335 C 0.24507 0.87285 0.84261 0.0
H1336 H 0.19491 0.90417 0.82615 0.0
H1337 H 0.21381 0.88676 0.86143 0.0
S1338 S 0.28258 0.8665 0.7877 0.0
N1339 N 0.25832 0.88101 0.77853 0.0
N1340 N 0.27882 0.86211 0.81684 0.0
C1341 C 0.25707 0.87281 0.82031 0.0
C1342 C 0.24595 0.88304 0.79955 0.0
C1343 C 0.6143 0.7464 0.29847 0.0
C1344 C 0.60205 0.7242 0.2992 0.0
C1345 C 0.62387 0.7567 0.31935 0.0
C1346 C 0.62145 0.74534 0.34186 0.0
H1347 H 0.6183 0.75499 0.28142 0.0
H1348 H 0.63485 0.77272 0.31751 0.0
S1349 S 0.58529 0.69053 0.35446 0.0
N1350 N 0.58377 0.69382 0.32496 0.0
N1351 N 0.6017 0.71327 0.3643 0.0
C1352 C 0.60646 0.72493 0.34332 0.0
C1353 C 0.59679 0.71432 0.32195 0.0
C1354 C 0.77834 0.10486 0.825 0.0
C1355 C 0.76962 0.11001 0.80176 0.0
C1356 C 0.76732 0.11465 0.84549 0.0
C1357 C 0.7472 0.12993 0.84343 0.0
H1358 H 0.79498 0.09496 0.82737 0.0
H1359 H 0.77598 0.11197 0.86276 0.0
S1360 S 0.71342 0.1432 0.78733 0.0
N1361 N 0.7367 0.12704 0.77837 0.0
N1362 N 0.71603 0.14543 0.81685 0.0
C1363 C 0.73649 0.13254 0.82062 0.0
C1364 C 0.74771 0.12259 0.79978 0.0
C1365 C 0.39553 0.28256 0.32542 0.0
C1366 C 0.39321 0.27198 0.30251 0.0
C1367 C 0.3851 0.27188 0.34578 0.0
C1368 C 0.372 0.25026 0.34389 0.0
H1369 H 0.40349 0.30026 0.32739 0.0
H1370 H 0.38542 0.28182 0.36255 0.0
S1371 S 0.36702 0.21189 0.28943 0.0
N1372 N 0.38159 0.2361 0.28019 0.0
N1373 N 0.36199 0.21607 0.31842 0.0
C1374 C 0.37249 0.23792 0.32177 0.0
C1375 C 0.3831 0.24878 0.30107 0.0
C1376 C 0.1737 0.21521 0.10371 0.0
C1377 C 0.19707 0.22443 0.10711 0.0
C1378 C 0.1536 0.22669 0.11378 0.0
C1379 C 0.15619 0.24779 0.12759 0.0
H1380 H 0.17104 0.19792 0.09509 0.0
H1381 H 0.13633 0.21773 0.11254 0.0
S1382 S 0.21251 0.28289 0.13556 0.0
N1383 N 0.22091 0.25861 0.12062 0.0
N1384 N 0.18316 0.28021 0.13948 0.0
C1385 C 0.17898 0.25887 0.12824 0.0
C1386 C 0.19943 0.24717 0.11803 0.0
C1387 C 0.20119 0.751 0.86456 0.0
C1388 C 0.19927 0.76815 0.88312 0.0
C1389 C 0.18072 0.74025 0.85456 0.0
C1390 C 0.15746 0.74618 0.8627 0.0
H1391 H 0.21847 0.74707 0.85641 0.0
H1392 H 0.18316 0.72856 0.83914 0.0
S1393 S 0.14307 0.78503 0.91519 0.0
N1394 N 0.17261 0.78686 0.91246 0.0
N1395 N 0.13409 0.76664 0.89364 0.0
C1396 C 0.15549 0.76093 0.88324 0.0
C1397 C 0.17641 0.77195 0.89343 0.0
C1398 C 0.74435 0.7017 0.37351 0.0
C1399 C 0.72395 0.69894 0.3883 0.0
C1400 C 0.75602 0.68174 0.36354 0.0
C1401 C 0.74775 0.65818 0.36789 0.0
H1402 H 0.75035 0.71944 0.36807 0.0
H1403 H 0.77043 0.685 0.35081 0.0
S1404 S 0.69937 0.64093 0.41071 0.0
N1405 N 0.69918 0.67065 0.41084 0.0
N1406 N 0.72112 0.63308 0.39204 0.0
C1407 C 0.72946 0.65504 0.38519 0.0
C1408 C 0.71754 0.67544 0.39539 0.0
C1409 C 0.79545 0.24877 0.87495 0.0
C1410 C 0.79669 0.22968 0.89159 0.0
C1411 C 0.81635 0.25913 0.86541 0.0
C1412 C 0.83935 0.25093 0.87219 0.0
H1413 H 0.77829 0.25458 0.86774 0.0
H1414 H 0.81435 0.27243 0.85128 0.0
S1415 S 0.85242 0.20599 0.91995 0.0
N1416 N 0.82277 0.20639 0.91803 0.0
N1417 N 0.86207 0.22591 0.90012 0.0
C1418 C 0.84084 0.2341 0.89111 0.0
C1419 C 0.81949 0.22344 0.90079 0.0
C1420 C 0.27168 0.31816 0.39008 0.0
C1421 C 0.26566 0.29487 0.38207 0.0
C1422 C 0.26092 0.33862 0.37998 0.0
C1423 C 0.24378 0.33658 0.36142 0.0
H1424 H 0.2861 0.3208 0.40295 0.0
H1425 H 0.26762 0.35611 0.38541 0.0
S1426 S 0.21701 0.27972 0.33873 0.0
N1427 N 0.23787 0.27095 0.358 0.0
N1428 N 0.21779 0.30942 0.33896 0.0
C1429 C 0.23549 0.31342 0.35539 0.0
C1430 C 0.2464 0.29255 0.36572 0.0
C1431 C 0.81651 0.76872 0.11006 0.0
C1432 C 0.79314 0.76315 0.1182 0.0
C1433 C 0.83683 0.75789 0.12036 0.0
C1434 C 0.83459 0.74111 0.13921 0.0
H1435 H 0.81933 0.78286 0.09694 0.0
H1436 H 0.85441 0.76425 0.11478 0.0
S1437 S 0.77735 0.71548 0.16234 0.0
N1438 N 0.76886 0.73613 0.14273 0.0
N1439 N 0.80707 0.71584 0.1621 0.0
C1440 C 0.81131 0.73321 0.14538 0.0
C1441 C 0.79058 0.74422 0.13488 0.0
C1442 C 0.72714 0.3462 0.60949 0.0
C1443 C 0.74838 0.34404 0.62318 0.0
C1444 C 0.71609 0.32589 0.59937 0.0
C1445 C 0.72593 0.30274 0.60256 0.0
H1446 H 0.71771 0.36325 0.60851 0.0
H1447 H 0.69864 0.32814 0.59095 0.0
S1448 S 0.78499 0.28868 0.63056 0.0
N1449 N 0.78153 0.31789 0.63476 0.0
N1450 N 0.76089 0.27974 0.61562 0.0
C1451 C 0.74885 0.30092 0.61326 0.0
C1452 C 0.76005 0.32158 0.62361 0.0
C1453 C 0.27061 0.65422 0.61333 0.0
C1454 C 0.24973 0.65604 0.62758 0.0
C1455 C 0.28173 0.67482 0.60389 0.0
C1456 C 0.27234 0.69795 0.60838 0.0
H1457 H 0.27972 0.6371 0.61125 0.0
H1458 H 0.29886 0.67267 0.59484 0.0
S1459 S 0.21428 0.71163 0.6385 0.0
N1460 N 0.2173 0.68219 0.64116 0.0
N1461 N 0.23821 0.72088 0.62349 0.0
C1462 C 0.24981 0.69965 0.61983 0.0
C1463 C 0.23847 0.67868 0.62939 0.0
C1464 C 0.86742 0.81975 0.7409 0.0
C1465 C 0.87091 0.8425 0.75145 0.0
C1466 C 0.87772 0.79905 0.75088 0.0
C1467 C 0.89176 0.80022 0.77197 0.0
H1468 H 0.85517 0.81761 0.72587 0.0
H1469 H 0.87294 0.78184 0.74305 0.0
S1470 S 0.91147 0.85613 0.80283 0.0
N1471 N 0.89332 0.86555 0.78127 0.0
N1472 N 0.91257 0.82655 0.80014 0.0
C1473 C 0.89791 0.82315 0.78085 0.0
C1474 C 0.88751 0.84433 0.77055 0.0
C1475 C 0.65639 0.38462 0.26601 0.0
C1476 C 0.65839 0.36972 0.24562 0.0
C1477 C 0.6769 0.39424 0.27713 0.0
C1478 C 0.70013 0.38928 0.26824 0.0
H1479 H 0.63915 0.38713 0.27478 0.0
H1480 H 0.67457 0.40386 0.29393 0.0
S1481 S 0.71441 0.35724 0.21136 0.0
N1482 N 0.68489 0.35491 0.21403 0.0
N1483 N 0.72344 0.37292 0.23494 0.0
C1484 C 0.70206 0.37712 0.2461 0.0
C1485 C 0.68118 0.36737 0.23477 0.0
C1486 C 0.11174 0.15649 0.76801 0.0
C1487 C 0.12695 0.15799 0.74781 0.0
C1488 C 0.10222 0.17729 0.77869 0.0
C1489 C 0.10755 0.20033 0.76953 0.0
H1490 H 0.10885 0.13941 0.77697 0.0
H1491 H 0.0923 0.1753 0.79535 0.0
S1492 S 0.14073 0.21331 0.71295 0.0
N1493 N 0.14266 0.18383 0.71613 0.0
N1494 N 0.12475 0.22289 0.73611 0.0
C1495 C 0.1201 0.20176 0.74755 0.0
C1496 C 0.1298 0.18058 0.7367 0.0
C1497 C 0.31988 0.62803 0.2387 0.0
C1498 C 0.34297 0.62415 0.24834 0.0
C1499 C 0.29944 0.61782 0.2493 0.0
C1500 C 0.30124 0.60347 0.27015 0.0
H1501 H 0.31732 0.64052 0.22393 0.0
H1502 H 0.28201 0.62289 0.24218 0.0
S1503 S 0.35806 0.58279 0.29866 0.0
N1504 N 0.36687 0.60113 0.27699 0.0
N1505 N 0.32839 0.58203 0.29705 0.0
C1506 C 0.32443 0.59697 0.27808 0.0
C1507 C 0.34533 0.60728 0.26713 0.0
C1508 C 0.88372 0.15079 0.22528 0.0
C1509 C 0.87048 0.15329 0.24676 0.0
C1510 C 0.89404 0.17085 0.21397 0.0
C1511 C 0.8915 0.19408 0.22376 0.0
H1512 H 0.88427 0.13368 0.21594 0.0
H1513 H 0.90219 0.16834 0.19643 0.0
S1514 S 0.86466 0.20904 0.28313 0.0
N1515 N 0.85992 0.17987 0.27993 0.0
N1516 N 0.87937 0.21753 0.25875 0.0
C1517 C 0.88117 0.19624 0.2468 0.0
C1518 C 0.87065 0.17584 0.2583 0.0
C1519 C 0.32131 0.39438 0.71993 0.0
C1520 C 0.29818 0.38952 0.72911 0.0
C1521 C 0.34187 0.38415 0.73039 0.0
C1522 C 0.34005 0.36861 0.75034 0.0
H1523 H 0.32348 0.40452 0.70342 0.0
H1524 H 0.35899 0.38679 0.72142 0.0
S1525 S 0.28452 0.35575 0.78519 0.0
N1526 N 0.2753 0.37241 0.76238 0.0
N1527 N 0.31393 0.35302 0.78183 0.0
C1528 C 0.31744 0.36616 0.76148 0.0
C1529 C 0.2965 0.37666 0.75092 0.0
C1530 C 0.13516 0.81846 0.25934 0.0
C1531 C 0.12872 0.84179 0.2518 0.0
C1532 C 0.12481 0.79804 0.24884 0.0
C1533 C 0.10763 0.80007 0.23029 0.0
H1534 H 0.1496 0.81583 0.27218 0.0
H1535 H 0.13175 0.78059 0.25409 0.0
S1536 S 0.07988 0.85694 0.20869 0.0
N1537 N 0.10054 0.86568 0.22817 0.0
N1538 N 0.08112 0.82725 0.20839 0.0
C1539 C 0.09881 0.82321 0.22481 0.0
C1540 C 0.10933 0.84408 0.23559 0.0
C1541 C 0.6781 0.60384 0.72367 0.0
C1542 C 0.70113 0.61182 0.73072 0.0
C1543 C 0.65722 0.61306 0.73443 0.0
C1544 C 0.65859 0.63066 0.7526 0.0
H1545 H 0.67601 0.59179 0.70849 0.0
H1546 H 0.63997 0.60785 0.72698 0.0
S1547 S 0.71442 0.65256 0.78206 0.0
N1548 N 0.724 0.63458 0.76043 0.0
N1549 N 0.68474 0.652 0.78049 0.0
C1550 C 0.68145 0.63652 0.76182 0.0
C1551 C 0.70273 0.62707 0.75093 0.0
C1552 C 0.73977 0.86793 0.82164 0.0
C1553 C 0.75007 0.87064 0.84464 0.0
C1554 C 0.75053 0.87811 0.80128 0.0
C1555 C 0.772 0.89146 0.80309 0.0
H1556 H 0.72441 0.85621 0.81897 0.0
H1557 H 0.74294 0.87383 0.78383 0.0
S1558 S 0.80214 0.90971 0.85991 0.0
N1559 N 0.7799 0.89201 0.86862 0.0
N1560 N 0.80013 0.91122 0.8303 0.0
C1561 C 0.78051 0.89715 0.82629 0.0
C1562 C 0.76952 0.88673 0.8471 0.0
C1563 C 0.63316 0.25147 0.29195 0.0
C1564 C 0.61424 0.26829 0.29322 0.0
C1565 C 0.64299 0.2413 0.3128 0.0
C1566 C 0.63423 0.24743 0.33578 0.0
H1567 H 0.64176 0.24745 0.27491 0.0
H1568 H 0.65867 0.22986 0.31089 0.0
S1569 S 0.58078 0.2856 0.34844 0.0
N1570 N 0.58406 0.28695 0.31894 0.0
N1571 N 0.60247 0.26776 0.35817 0.0
C1572 C 0.6134 0.26185 0.33709 0.0
C1573 C 0.60343 0.27232 0.3158 0.0
C1574 C 0.21768 0.1026 0.81995 0.0
C1575 C 0.22644 0.10816 0.7968 0.0
C1576 C 0.22872 0.11193 0.84064 0.0
C1577 C 0.24887 0.12718 0.83891 0.0
H1578 H 0.20107 0.09262 0.82213 0.0
H1579 H 0.22006 0.1089 0.85785 0.0
S1580 S 0.28273 0.14162 0.78316 0.0
N1581 N 0.25945 0.12566 0.77383 0.0
N1582 N 0.28006 0.14324 0.81271 0.0
C1583 C 0.25958 0.13028 0.81617 0.0
C1584 C 0.24839 0.12075 0.7951 0.0
C1585 C 0.3721 0.7546 0.31864 0.0
C1586 C 0.37435 0.74395 0.34152 0.0
C1587 C 0.38193 0.7437 0.29819 0.0
C1588 C 0.39439 0.72168 0.29976 0.0
H1589 H 0.36099 0.77044 0.31616 0.0
H1590 H 0.37802 0.75168 0.28083 0.0
S1591 S 0.411 0.68999 0.35623 0.0
N1592 N 0.39427 0.71287 0.36517 0.0
N1593 N 0.41277 0.69235 0.32666 0.0
C1594 C 0.39962 0.71264 0.32287 0.0
C1595 C 0.3896 0.7238 0.34379 0.0
C1596 C 0.76112 0.11523 0.15894 0.0
C1597 C 0.74361 0.13349 0.16064 0.0
C1598 C 0.77164 0.10533 0.17962 0.0
C1599 C 0.76504 0.11327 0.20277 0.0
H1600 H 0.76825 0.10993 0.14159 0.0
H1601 H 0.78636 0.09275 0.17727 0.0
S1602 S 0.71527 0.15564 0.21695 0.0
N1603 N 0.71664 0.15543 0.18726 0.0
N1604 N 0.73632 0.13677 0.22613 0.0
C1605 C 0.74541 0.12922 0.2047 0.0
C1606 C 0.73472 0.13935 0.18362 0.0
C1607 C 0.39366 0.2792 0.67507 0.0
C1608 C 0.38895 0.2703 0.69832 0.0
C1609 C 0.38338 0.26843 0.6547 0.0
C1610 C 0.36793 0.24843 0.65686 0.0
H1611 H 0.40371 0.29573 0.67264 0.0
H1612 H 0.38588 0.27719 0.63746 0.0
S1613 S 0.35542 0.21427 0.71288 0.0
N1614 N 0.37207 0.23724 0.72171 0.0
N1615 N 0.35256 0.21724 0.68345 0.0
C1616 C 0.36562 0.23758 0.67961 0.0
C1617 C 0.37619 0.24846 0.70035 0.0
C1618 C 0.21306 0.89877 0.17479 0.0
C1619 C 0.22353 0.89528 0.19761 0.0
C1620 C 0.22343 0.88873 0.15406 0.0
C1621 C 0.24455 0.87479 0.1555 0.0
H1622 H 0.19567 0.90744 0.1731 0.0
H1623 H 0.21355 0.88999 0.1373 0.0
S1624 S 0.28256 0.86621 0.20972 0.0
N1625 N 0.25898 0.88147 0.21946 0.0
N1626 N 0.27818 0.86236 0.18058 0.0
C1627 C 0.2568 0.87391 0.17762 0.0
C1628 C 0.24636 0.88424 0.19867 0.0
C1629 C 0.62436 0.75441 0.67898 0.0
C1630 C 0.62138 0.74414 0.65603 0.0
C1631 C 0.61448 0.74359 0.69946 0.0
C1632 C 0.60138 0.72193 0.69786 0.0
H1633 H 0.63596 0.7699 0.68143 0.0
H1634 H 0.6189 0.75129 0.71682 0.0
S1635 S 0.58305 0.69134 0.64135 0.0
N1636 N 0.60027 0.71384 0.63238 0.0
N1637 N 0.58183 0.6934 0.67097 0.0
C1638 C 0.59565 0.71324 0.67475 0.0
C1639 C 0.6056 0.72439 0.6538 0.0
C1640 C 0.8397 0.76159 0.88156 0.0
C1641 C 0.83765 0.74381 0.86362 0.0
C1642 C 0.8192 0.77227 0.89169 0.0
C1643 C 0.7959 0.76551 0.88432 0.0
H1644 H 0.85715 0.76883 0.88639 0.0
H1645 H 0.82178 0.78718 0.90399 0.0
S1646 S 0.78095 0.71512 0.84297 0.0
N1647 N 0.81064 0.71653 0.84257 0.0
N1648 N 0.77211 0.73642 0.86171 0.0
C1649 C 0.79368 0.74565 0.86869 0.0
C1650 C 0.81456 0.73485 0.85832 0.0
C1651 C 0.84336 0.22539 0.1112 0.0
C1652 C 0.84208 0.24633 0.12541 0.0
C1653 C 0.82252 0.21503 0.10141 0.0
C1654 C 0.7997 0.22535 0.10536 0.0
H1655 H 0.86016 0.21563 0.10946 0.0
H1656 H 0.82418 0.19782 0.0924 0.0
S1657 S 0.78782 0.28394 0.1354 0.0
N1658 N 0.81705 0.27964 0.13872 0.0
N1659 N 0.77792 0.26053 0.12001 0.0
C1660 C 0.79871 0.24802 0.11674 0.0
C1661 C 0.8199 0.25842 0.12687 0.0
C1662 C 0.23878 0.31756 0.63617 0.0
C1663 C 0.24693 0.34095 0.63083 0.0
C1664 C 0.24953 0.29733 0.62572 0.0
C1665 C 0.26896 0.29962 0.60958 0.0
H1666 H 0.22521 0.31468 0.64988 0.0
H1667 H 0.24371 0.27975 0.63186 0.0
S1668 S 0.29256 0.35694 0.58461 0.0
N1669 N 0.27218 0.36534 0.60453 0.0
N1670 N 0.29248 0.32723 0.585 0.0
C1671 C 0.27516 0.32291 0.60174 0.0
C1672 C 0.2641 0.3436 0.61233 0.0
C1673 C 0.17012 0.78445 0.10435 0.0
C1674 C 0.19316 0.77457 0.1082 0.0
C1675 C 0.14951 0.77357 0.11404 0.0
C1676 C 0.15126 0.75245 0.12793 0.0
H1677 H 0.16811 0.80177 0.09561 0.0
H1678 H 0.13252 0.78302 0.11251 0.0
S1679 S 0.20636 0.71582 0.13719 0.0
N1680 N 0.21575 0.73976 0.12229 0.0
N1681 N 0.17704 0.71937 0.14052 0.0
C1682 C 0.1737 0.74076 0.1291 0.0
C1683 C 0.19467 0.75182 0.11924 0.0
C1684 C 0.72449 0.65348 0.61324 0.0
C1685 C 0.7456 0.65597 0.62704 0.0
C1686 C 0.71302 0.67364 0.60328 0.0
C1687 C 0.72231 0.69697 0.60678 0.0
H1688 H 0.71549 0.63623 0.61193 0.0
H1689 H 0.69571 0.67107 0.59467 0.0
S1690 S 0.78082 0.71213 0.63536 0.0
N1691 N 0.77805 0.68278 0.63914 0.0
N1692 N 0.75659 0.72066 0.6204 0.0
C1693 C 0.74508 0.69922 0.6177 0.0
C1694 C 0.75672 0.67871 0.62784 0.0
C1695 C 0.18053 0.25687 0.86342 0.0
C1696 C 0.15736 0.24805 0.86873 0.0
C1697 C 0.20114 0.24601 0.87301 0.0
C1698 C 0.19944 0.22586 0.88829 0.0
H1699 H 0.18295 0.27112 0.85032 0.0
H1700 H 0.21852 0.2524 0.86688 0.0
S1701 S 0.14288 0.20004 0.91293 0.0
N1702 N 0.13381 0.22114 0.89408 0.0
N1703 N 0.17258 0.20074 0.91217 0.0
C1704 C 0.17636 0.21889 0.8962 0.0
C1705 C 0.1553 0.23001 0.88642 0.0
C1706 C 0.27826 0.67535 0.39136 0.0
C1707 C 0.27041 0.69853 0.3847 0.0
C1708 C 0.26743 0.65467 0.38176 0.0
C1709 C 0.2484 0.65643 0.36512 0.0
H1710 H 0.29409 0.67307 0.40251 0.0
H1711 H 0.27546 0.63736 0.3858 0.0
S1712 S 0.21687 0.71252 0.34716 0.0
N1713 N 0.23921 0.72175 0.36445 0.0
N1714 N 0.21899 0.68289 0.34636 0.0
C1715 C 0.23847 0.67931 0.36075 0.0
C1716 C 0.24945 0.70037 0.37055 0.0
C1717 C 0.75708 0.32223 0.37048 0.0
C1718 C 0.74611 0.345 0.3721 0.0
C1719 C 0.74646 0.30189 0.38086 0.0
C1720 C 0.72431 0.30345 0.39313 0.0
H1721 H 0.77302 0.3197 0.35951 0.0
H1722 H 0.75474 0.28456 0.37744 0.0
S1723 S 0.69168 0.35987 0.40796 0.0
N1724 N 0.71452 0.36871 0.39112 0.0
N1725 N 0.69446 0.3304 0.41056 0.0
C1726 C 0.71486 0.32655 0.3976 0.0
C1727 C 0.7258 0.34737 0.38711 0.0
loop_
_geom_bond_atom_site_label_1
_geom_bond_atom_site_label_2
_geom_bond_distance
_geom_bond_site_symmetry_2
_ccdc_geom_bond_type
O0 Cd1 2.223 . S
O0 C8 1.315 . S
Cd1 O0 2.223 . S
Cd1 O4 2.297 . S
Cd1 O5 2.439 . S
Cd1 O11 2.240 . S
Cd2 O3 2.240 . S
Cd2 O10 2.223 . S
Cd2 O12 2.297 . S
Cd2 O13 2.439 . S
O3 Cd2 2.240 . S
O3 C8 1.279 . S
O4 Cd1 2.297 . S
O4 C6 1.247 . S
O5 Cd1 2.439 . S
O5 C6 1.208 . S
C6 O4 1.247 . S
C6 O5 1.208 . S
C7 O12 1.247 . S
C7 O13 1.208 . S
C8 O0 1.315 . S
C8 O3 1.279 . S
C9 O10 1.315 . S
C9 O11 1.279 . S
O10 Cd2 2.223 . S
O10 C9 1.315 . S
O11 Cd1 2.240 . S
O11 C9 1.279 . S
O12 Cd2 2.297 . S
O12 C7 1.247 . S
O13 Cd2 2.439 . S
O13 C7 1.208 . S
O14 Cd15 2.223 . S
O14 C22 1.315 . S
Cd15 O14 2.223 . S
Cd15 O18 2.297 . S
Cd15 O19 2.439 . S
Cd15 O25 2.240 . S
Cd16 O17 2.240 . S
Cd16 O24 2.223 . S
Cd16 O26 2.297 . S
Cd16 O27 2.439 . S
O17 Cd16 2.240 . S
O17 C22 1.279 . S
O18 Cd15 2.297 . S
O18 C20 1.247 . S
O19 Cd15 2.439 . S
O19 C20 1.208 . S
C20 O18 1.247 . S
C20 O19 1.208 . S
C21 O26 1.247 . S
C21 O27 1.208 . S
C22 O14 1.315 . S
C22 O17 1.279 . S
C23 O24 1.315 . S
C23 O25 1.279 . S
O24 Cd16 2.223 . S
O24 C23 1.315 . S
O25 Cd15 2.240 . S
O25 C23 1.279 . S
O26 Cd16 2.297 . S
O26 C21 1.247 . S
O27 Cd16 2.439 . S
O27 C21 1.208 . S
O28 Cd29 2.223 . S
O28 C36 1.315 . S
Cd29 O28 2.223 . S
Cd29 O32 2.297 . S
Cd29 O33 2.439 . S
Cd29 O39 2.240 . S
Cd30 O31 2.240 . S
Cd30 O38 2.223 . S
Cd30 O40 2.297 . S
Cd30 O41 2.439 . S
O31 Cd30 2.240 . S
O31 C36 1.279 . S
O32 Cd29 2.297 . S
O32 C34 1.247 . S
O33 Cd29 2.439 . S
O33 C34 1.208 . S
C34 O32 1.247 . S
C34 O33 1.208 . S
C35 O40 1.247 . S
C35 O41 1.208 . S
C36 O28 1.315 . S
C36 O31 1.279 . S
C37 O38 1.315 . S
C37 O39 1.279 . S
O38 Cd30 2.223 . S
O38 C37 1.315 . S
O39 Cd29 2.240 . S
O39 C37 1.279 . S
O40 Cd30 2.297 . S
O40 C35 1.247 . S
O41 Cd30 2.439 . S
O41 C35 1.208 . S
O42 Cd43 2.223 . S
O42 C50 1.315 . S
Cd43 O42 2.223 . S
Cd43 O46 2.297 . S
Cd43 O47 2.439 . S
Cd43 O53 2.240 . S
Cd44 O45 2.240 . S
Cd44 O52 2.223 . S
Cd44 O54 2.297 . S
Cd44 O55 2.439 . S
O45 Cd44 2.240 . S
O45 C50 1.279 . S
O46 Cd43 2.297 . S
O46 C48 1.247 . S
O47 Cd43 2.439 . S
O47 C48 1.208 . S
C48 O46 1.247 . S
C48 O47 1.208 . S
C49 O54 1.247 . S
C49 O55 1.208 . S
C50 O42 1.315 . S
C50 O45 1.279 . S
C51 O52 1.315 . S
C51 O53 1.279 . S
O52 Cd44 2.223 . S
O52 C51 1.315 . S
O53 Cd43 2.240 . S
O53 C51 1.279 . S
O54 Cd44 2.297 . S
O54 C49 1.247 . S
O55 Cd44 2.439 . S
O55 C49 1.208 . S
O56 Cd57 2.223 . S
O56 C64 1.315 . S
Cd57 O56 2.223 . S
Cd57 O60 2.297 . S
Cd57 O61 2.439 . S
Cd57 O67 2.240 . S
Cd58 O59 2.240 . S
Cd58 O66 2.223 . S
Cd58 O68 2.297 . S
Cd58 O69 2.439 . S
O59 Cd58 2.240 . S
O59 C64 1.279 . S
O60 Cd57 2.297 . S
O60 C62 1.247 . S
O61 Cd57 2.439 . S
O61 C62 1.208 . S
C62 O60 1.247 . S
C62 O61 1.208 . S
C63 O68 1.247 . S
C63 O69 1.208 . S
C64 O56 1.315 . S
C64 O59 1.279 . S
C65 O66 1.315 . S
C65 O67 1.279 . S
O66 Cd58 2.223 . S
O66 C65 1.315 . S
O67 Cd57 2.240 . S
O67 C65 1.279 . S
O68 Cd58 2.297 . S
O68 C63 1.247 . S
O69 Cd58 2.439 . S
O69 C63 1.208 . S
O70 Cd71 2.223 . S
O70 C78 1.315 . S
Cd71 O70 2.223 . S
Cd71 O74 2.297 . S
Cd71 O75 2.439 . S
Cd71 O81 2.240 . S
Cd72 O73 2.240 . S
Cd72 O80 2.223 . S
Cd72 O82 2.297 . S
Cd72 O83 2.439 . S
O73 Cd72 2.240 . S
O73 C78 1.279 . S
O74 Cd71 2.297 . S
O74 C76 1.247 . S
O75 Cd71 2.439 . S
O75 C76 1.208 . S
C76 O74 1.247 . S
C76 O75 1.208 . S
C77 O82 1.247 . S
C77 O83 1.208 . S
C78 O70 1.315 . S
C78 O73 1.279 . S
C79 O80 1.315 . S
C79 O81 1.279 . S
O80 Cd72 2.223 . S
O80 C79 1.315 . S
O81 Cd71 2.240 . S
O81 C79 1.279 . S
O82 Cd72 2.297 . S
O82 C77 1.247 . S
O83 Cd72 2.439 . S
O83 C77 1.208 . S
O84 Cd85 2.223 . S
O84 C92 1.315 . S
Cd85 O84 2.223 . S
Cd85 O88 2.297 . S
Cd85 O89 2.439 . S
Cd85 O95 2.240 . S
Cd86 O87 2.240 . S
Cd86 O94 2.223 . S
Cd86 O96 2.297 . S
Cd86 O97 2.439 . S
O87 Cd86 2.240 . S
O87 C92 1.279 . S
O88 Cd85 2.297 . S
O88 C90 1.247 . S
O89 Cd85 2.439 . S
O89 C90 1.208 . S
C90 O88 1.247 . S
C90 O89 1.208 . S
C91 O96 1.247 . S
C91 O97 1.208 . S
C92 O84 1.315 . S
C92 O87 1.279 . S
C93 O94 1.315 . S
C93 O95 1.279 . S
O94 Cd86 2.223 . S
O94 C93 1.315 . S
O95 Cd85 2.240 . S
O95 C93 1.279 . S
O96 Cd86 2.297 . S
O96 C91 1.247 . S
O97 Cd86 2.439 . S
O97 C91 1.208 . S
O98 Cd99 2.223 . S
O98 C106 1.315 . S
Cd99 O98 2.223 . S
Cd99 O102 2.297 . S
Cd99 O103 2.439 . S
Cd99 O109 2.240 . S
Cd100 O101 2.240 . S
Cd100 O108 2.223 . S
Cd100 O110 2.297 . S
Cd100 O111 2.439 . S
O101 Cd100 2.240 . S
O101 C106 1.279 . S
O102 Cd99 2.297 . S
O102 C104 1.247 . S
O103 Cd99 2.439 . S
O103 C104 1.208 . S
C104 O102 1.247 . S
C104 O103 1.208 . S
C105 O110 1.247 . S
C105 O111 1.208 . S
C106 O98 1.315 . S
C106 O101 1.279 . S
C107 O108 1.315 . S
C107 O109 1.279 . S
O108 Cd100 2.223 . S
O108 C107 1.315 . S
O109 Cd99 2.240 . S
O109 C107 1.279 . S
O110 Cd100 2.297 . S
O110 C105 1.247 . S
O111 Cd100 2.439 . S
O111 C105 1.208 . S
O112 Cd113 2.223 . S
O112 C120 1.315 . S
Cd113 O112 2.223 . S
Cd113 O116 2.297 . S
Cd113 O117 2.439 . S
Cd113 O123 2.240 . S
Cd114 O115 2.240 . S
Cd114 O122 2.223 . S
Cd114 O124 2.297 . S
Cd114 O125 2.439 . S
O115 Cd114 2.240 . S
O115 C120 1.279 . S
O116 Cd113 2.297 . S
O116 C118 1.247 . S
O117 Cd113 2.439 . S
O117 C118 1.208 . S
C118 O116 1.247 . S
C118 O117 1.208 . S
C119 O124 1.247 . S
C119 O125 1.208 . S
C120 O112 1.315 . S
C120 O115 1.279 . S
C121 O122 1.315 . S
C121 O123 1.279 . S
O122 Cd114 2.223 . S
O122 C121 1.315 . S
O123 Cd113 2.240 . S
O123 C121 1.279 . S
O124 Cd114 2.297 . S
O124 C119 1.247 . S
O125 Cd114 2.439 . S
O125 C119 1.208 . S
O126 Cd127 2.223 . S
O126 C134 1.315 . S
Cd127 O126 2.223 . S
Cd127 O130 2.297 . S
Cd127 O131 2.439 . S
Cd127 O137 2.240 . S
Cd128 O129 2.240 . S
Cd128 O136 2.223 . S
Cd128 O138 2.297 . S
Cd128 O139 2.439 . S
O129 Cd128 2.240 . S
O129 C134 1.279 . S
O130 Cd127 2.297 . S
O130 C132 1.247 . S
O131 Cd127 2.439 . S
O131 C132 1.208 . S
C132 O130 1.247 . S
C132 O131 1.208 . S
C133 O138 1.247 . S
C133 O139 1.208 . S
C134 O126 1.315 . S
C134 O129 1.279 . S
C135 O136 1.315 . S
C135 O137 1.279 . S
O136 Cd128 2.223 . S
O136 C135 1.315 . S
O137 Cd127 2.240 . S
O137 C135 1.279 . S
O138 Cd128 2.297 . S
O138 C133 1.247 . S
O139 Cd128 2.439 . S
O139 C133 1.208 . S
O140 Cd141 2.223 . S
O140 C148 1.315 . S
Cd141 O140 2.223 . S
Cd141 O144 2.297 . S
Cd141 O145 2.439 . S
Cd141 O151 2.240 . S
Cd142 O143 2.240 . S
Cd142 O150 2.223 . S
Cd142 O152 2.297 . S
Cd142 O153 2.439 . S
O143 Cd142 2.240 . S
O143 C148 1.279 . S
O144 Cd141 2.297 . S
O144 C146 1.247 . S
O145 Cd141 2.439 . S
O145 C146 1.208 . S
C146 O144 1.247 . S
C146 O145 1.208 . S
C147 O152 1.247 . S
C147 O153 1.208 . S
C148 O140 1.315 . S
C148 O143 1.279 . S
C149 O150 1.315 . S
C149 O151 1.279 . S
O150 Cd142 2.223 . S
O150 C149 1.315 . S
O151 Cd141 2.240 . S
O151 C149 1.279 . S
O152 Cd142 2.297 . S
O152 C147 1.247 . S
O153 Cd142 2.439 . S
O153 C147 1.208 . S
O154 Cd155 2.223 . S
O154 C162 1.315 . S
Cd155 O154 2.223 . S
Cd155 O158 2.297 . S
Cd155 O159 2.439 . S
Cd155 O165 2.240 . S
Cd156 O157 2.240 . S
Cd156 O164 2.223 . S
Cd156 O166 2.297 . S
Cd156 O167 2.439 . S
O157 Cd156 2.240 . S
O157 C162 1.279 . S
O158 Cd155 2.297 . S
O158 C160 1.247 . S
O159 Cd155 2.439 . S
O159 C160 1.208 . S
C160 O158 1.247 . S
C160 O159 1.208 . S
C161 O166 1.247 . S
C161 O167 1.208 . S
C162 O154 1.315 . S
C162 O157 1.279 . S
C163 O164 1.315 . S
C163 O165 1.279 . S
O164 Cd156 2.223 . S
O164 C163 1.315 . S
O165 Cd155 2.240 . S
O165 C163 1.279 . S
O166 Cd156 2.297 . S
O166 C161 1.247 . S
O167 Cd156 2.439 . S
O167 C161 1.208 . S
O168 Cd169 2.223 . S
O168 C176 1.315 . S
Cd169 O168 2.223 . S
Cd169 O172 2.297 . S
Cd169 O173 2.439 . S
Cd169 O179 2.240 . S
Cd170 O171 2.240 . S
Cd170 O178 2.223 . S
Cd170 O180 2.297 . S
Cd170 O181 2.439 . S
O171 Cd170 2.240 . S
O171 C176 1.279 . S
O172 Cd169 2.297 . S
O172 C174 1.247 . S
O173 Cd169 2.439 . S
O173 C174 1.208 . S
C174 O172 1.247 . S
C174 O173 1.208 . S
C175 O180 1.247 . S
C175 O181 1.208 . S
C176 O168 1.315 . S
C176 O171 1.279 . S
C177 O178 1.315 . S
C177 O179 1.279 . S
O178 Cd170 2.223 . S
O178 C177 1.315 . S
O179 Cd169 2.240 . S
O179 C177 1.279 . S
O180 Cd170 2.297 . S
O180 C175 1.247 . S
O181 Cd170 2.439 . S
O181 C175 1.208 . S
O182 Cd183 2.223 . S
O182 C190 1.315 . S
Cd183 O182 2.223 . S
Cd183 O186 2.297 . S
Cd183 O187 2.439 . S
Cd183 O193 2.240 . S
Cd184 O185 2.240 . S
Cd184 O192 2.223 . S
Cd184 O194 2.297 . S
Cd184 O195 2.439 . S
O185 Cd184 2.240 . S
O185 C190 1.279 . S
O186 Cd183 2.297 . S
O186 C188 1.247 . S
O187 Cd183 2.439 . S
O187 C188 1.208 . S
C188 O186 1.247 . S
C188 O187 1.208 . S
C189 O194 1.247 . S
C189 O195 1.208 . S
C190 O182 1.315 . S
C190 O185 1.279 . S
C191 O192 1.315 . S
C191 O193 1.279 . S
O192 Cd184 2.223 . S
O192 C191 1.315 . S
O193 Cd183 2.240 . S
O193 C191 1.279 . S
O194 Cd184 2.297 . S
O194 C189 1.247 . S
O195 Cd184 2.439 . S
O195 C189 1.208 . S
O196 Cd197 2.223 . S
O196 C204 1.315 . S
Cd197 O196 2.223 . S
Cd197 O200 2.297 . S
Cd197 O201 2.439 . S
Cd197 O207 2.240 . S
Cd198 O199 2.240 . S
Cd198 O206 2.223 . S
Cd198 O208 2.297 . S
Cd198 O209 2.439 . S
O199 Cd198 2.240 . S
O199 C204 1.279 . S
O200 Cd197 2.297 . S
O200 C202 1.247 . S
O201 Cd197 2.439 . S
O201 C202 1.208 . S
C202 O200 1.247 . S
C202 O201 1.208 . S
C203 O208 1.247 . S
C203 O209 1.208 . S
C204 O196 1.315 . S
C204 O199 1.279 . S
C205 O206 1.315 . S
C205 O207 1.279 . S
O206 Cd198 2.223 . S
O206 C205 1.315 . S
O207 Cd197 2.240 . S
O207 C205 1.279 . S
O208 Cd198 2.297 . S
O208 C203 1.247 . S
O209 Cd198 2.439 . S
O209 C203 1.208 . S
O210 Cd211 2.223 . S
O210 C218 1.315 . S
Cd211 O210 2.223 . S
Cd211 O214 2.297 . S
Cd211 O215 2.439 . S
Cd211 O221 2.240 . S
Cd212 O213 2.240 . S
Cd212 O220 2.223 . S
Cd212 O222 2.297 . S
Cd212 O223 2.439 . S
O213 Cd212 2.240 . S
O213 C218 1.279 . S
O214 Cd211 2.297 . S
O214 C216 1.247 . S
O215 Cd211 2.439 . S
O215 C216 1.208 . S
C216 O214 1.247 . S
C216 O215 1.208 . S
C217 O222 1.247 . S
C217 O223 1.208 . S
C218 O210 1.315 . S
C218 O213 1.279 . S
C219 O220 1.315 . S
C219 O221 1.279 . S
O220 Cd212 2.223 . S
O220 C219 1.315 . S
O221 Cd211 2.240 . S
O221 C219 1.279 . S
O222 Cd212 2.297 . S
O222 C217 1.247 . S
O223 Cd212 2.439 . S
O223 C217 1.208 . S
O224 Cd225 2.223 . S
O224 C232 1.315 . S
Cd225 O224 2.223 . S
Cd225 O228 2.297 . S
Cd225 O229 2.439 . S
Cd225 O235 2.240 . S
Cd226 O227 2.240 . S
Cd226 O234 2.223 . S
Cd226 O236 2.297 . S
Cd226 O237 2.439 . S
O227 Cd226 2.240 . S
O227 C232 1.279 . S
O228 Cd225 2.297 . S
O228 C230 1.247 . S
O229 Cd225 2.439 . S
O229 C230 1.208 . S
C230 O228 1.247 . S
C230 O229 1.208 . S
C231 O236 1.247 . S
C231 O237 1.208 . S
C232 O224 1.315 . S
C232 O227 1.279 . S
C233 O234 1.315 . S
C233 O235 1.279 . S
O234 Cd226 2.223 . S
O234 C233 1.315 . S
O235 Cd225 2.240 . S
O235 C233 1.279 . S
O236 Cd226 2.297 . S
O236 C231 1.247 . S
O237 Cd226 2.439 . S
O237 C231 1.208 . S
O238 Cd239 2.223 . S
O238 C246 1.315 . S
Cd239 O238 2.223 . S
Cd239 O242 2.297 . S
Cd239 O243 2.439 . S
Cd239 O249 2.240 . S
Cd240 O241 2.240 . S
Cd240 O248 2.223 . S
Cd240 O250 2.297 . S
Cd240 O251 2.439 . S
O241 Cd240 2.240 . S
O241 C246 1.279 . S
O242 Cd239 2.297 . S
O242 C244 1.247 . S
O243 Cd239 2.439 . S
O243 C244 1.208 . S
C244 O242 1.247 . S
C244 O243 1.208 . S
C245 O250 1.247 . S
C245 O251 1.208 . S
C246 O238 1.315 . S
C246 O241 1.279 . S
C247 O248 1.315 . S
C247 O249 1.279 . S
O248 Cd240 2.223 . S
O248 C247 1.315 . S
O249 Cd239 2.240 . S
O249 C247 1.279 . S
O250 Cd240 2.297 . S
O250 C245 1.247 . S
O251 Cd240 2.439 . S
O251 C245 1.208 . S
O252 Cd253 2.223 . S
O252 C260 1.315 . S
Cd253 O252 2.223 . S
Cd253 O256 2.297 . S
Cd253 O257 2.439 . S
Cd253 O263 2.240 . S
Cd254 O255 2.240 . S
Cd254 O262 2.223 . S
Cd254 O264 2.297 . S
Cd254 O265 2.439 . S
O255 Cd254 2.240 . S
O255 C260 1.279 . S
O256 Cd253 2.297 . S
O256 C258 1.247 . S
O257 Cd253 2.439 . S
O257 C258 1.208 . S
C258 O256 1.247 . S
C258 O257 1.208 . S
C259 O264 1.247 . S
C259 O265 1.208 . S
C260 O252 1.315 . S
C260 O255 1.279 . S
C261 O262 1.315 . S
C261 O263 1.279 . S
O262 Cd254 2.223 . S
O262 C261 1.315 . S
O263 Cd253 2.240 . S
O263 C261 1.279 . S
O264 Cd254 2.297 . S
O264 C259 1.247 . S
O265 Cd254 2.439 . S
O265 C259 1.208 . S
O266 Cd267 2.223 . S
O266 C274 1.315 . S
Cd267 O266 2.223 . S
Cd267 O270 2.297 . S
Cd267 O271 2.439 . S
Cd267 O277 2.240 . S
Cd268 O269 2.240 . S
Cd268 O276 2.223 . S
Cd268 O278 2.297 . S
Cd268 O279 2.439 . S
O269 Cd268 2.240 . S
O269 C274 1.279 . S
O270 Cd267 2.297 . S
O270 C272 1.247 . S
O271 Cd267 2.439 . S
O271 C272 1.208 . S
C272 O270 1.247 . S
C272 O271 1.208 . S
C273 O278 1.247 . S
C273 O279 1.208 . S
C274 O266 1.315 . S
C274 O269 1.279 . S
C275 O276 1.315 . S
C275 O277 1.279 . S
O276 Cd268 2.223 . S
O276 C275 1.315 . S
O277 Cd267 2.240 . S
O277 C275 1.279 . S
O278 Cd268 2.297 . S
O278 C273 1.247 . S
O279 Cd268 2.439 . S
O279 C273 1.208 . S
O280 Cd281 2.223 . S
O280 C288 1.315 . S
Cd281 O280 2.223 . S
Cd281 O284 2.297 . S
Cd281 O285 2.439 . S
Cd281 O291 2.240 . S
Cd282 O283 2.240 . S
Cd282 O290 2.223 . S
Cd282 O292 2.297 . S
Cd282 O293 2.439 . S
O283 Cd282 2.240 . S
O283 C288 1.279 . S
O284 Cd281 2.297 . S
O284 C286 1.247 . S
O285 Cd281 2.439 . S
O285 C286 1.208 . S
C286 O284 1.247 . S
C286 O285 1.208 . S
C287 O292 1.247 . S
C287 O293 1.208 . S
C288 O280 1.315 . S
C288 O283 1.279 . S
C289 O290 1.315 . S
C289 O291 1.279 . S
O290 Cd282 2.223 . S
O290 C289 1.315 . S
O291 Cd281 2.240 . S
O291 C289 1.279 . S
O292 Cd282 2.297 . S
O292 C287 1.247 . S
O293 Cd282 2.439 . S
O293 C287 1.208 . S
O294 Cd295 2.223 . S
O294 C302 1.315 . S
Cd295 O294 2.223 . S
Cd295 O298 2.297 . S
Cd295 O299 2.439 . S
Cd295 O305 2.240 . S
Cd296 O297 2.240 . S
Cd296 O304 2.223 . S
Cd296 O306 2.297 . S
Cd296 O307 2.439 . S
O297 Cd296 2.240 . S
O297 C302 1.279 . S
O298 Cd295 2.297 . S
O298 C300 1.247 . S
O299 Cd295 2.439 . S
O299 C300 1.208 . S
C300 O298 1.247 . S
C300 O299 1.208 . S
C301 O306 1.247 . S
C301 O307 1.208 . S
C302 O294 1.315 . S
C302 O297 1.279 . S
C303 O304 1.315 . S
C303 O305 1.279 . S
O304 Cd296 2.223 . S
O304 C303 1.315 . S
O305 Cd295 2.240 . S
O305 C303 1.279 . S
O306 Cd296 2.297 . S
O306 C301 1.247 . S
O307 Cd296 2.439 . S
O307 C301 1.208 . S
O308 Cd309 2.223 . S
O308 C316 1.315 . S
Cd309 O308 2.223 . S
Cd309 O312 2.297 . S
Cd309 O313 2.439 . S
Cd309 O319 2.240 . S
Cd310 O311 2.240 . S
Cd310 O318 2.223 . S
Cd310 O320 2.297 . S
Cd310 O321 2.439 . S
O311 Cd310 2.240 . S
O311 C316 1.279 . S
O312 Cd309 2.297 . S
O312 C314 1.247 . S
O313 Cd309 2.439 . S
O313 C314 1.208 . S
C314 O312 1.247 . S
C314 O313 1.208 . S
C315 O320 1.247 . S
C315 O321 1.208 . S
C316 O308 1.315 . S
C316 O311 1.279 . S
C317 O318 1.315 . S
C317 O319 1.279 . S
O318 Cd310 2.223 . S
O318 C317 1.315 . S
O319 Cd309 2.240 . S
O319 C317 1.279 . S
O320 Cd310 2.297 . S
O320 C315 1.247 . S
O321 Cd310 2.439 . S
O321 C315 1.208 . S
O322 Cd323 2.223 . S
O322 C330 1.315 . S
Cd323 O322 2.223 . S
Cd323 O326 2.297 . S
Cd323 O327 2.439 . S
Cd323 O333 2.240 . S
Cd324 O325 2.240 . S
Cd324 O332 2.223 . S
Cd324 O334 2.297 . S
Cd324 O335 2.439 . S
O325 Cd324 2.240 . S
O325 C330 1.279 . S
O326 Cd323 2.297 . S
O326 C328 1.247 . S
O327 Cd323 2.439 . S
O327 C328 1.208 . S
C328 O326 1.247 . S
C328 O327 1.208 . S
C329 O334 1.247 . S
C329 O335 1.208 . S
C330 O322 1.315 . S
C330 O325 1.279 . S
C331 O332 1.315 . S
C331 O333 1.279 . S
O332 Cd324 2.223 . S
O332 C331 1.315 . S
O333 Cd323 2.240 . S
O333 C331 1.279 . S
O334 Cd324 2.297 . S
O334 C329 1.247 . S
O335 Cd324 2.439 . S
O335 C329 1.208 . S
O336 Cd337 2.223 . S
O336 C344 1.315 . S
Cd337 O336 2.223 . S
Cd337 O340 2.297 . S
Cd337 O341 2.439 . S
Cd337 O347 2.240 . S
Cd338 O339 2.240 . S
Cd338 O346 2.223 . S
Cd338 O348 2.297 . S
Cd338 O349 2.439 . S
O339 Cd338 2.240 . S
O339 C344 1.279 . S
O340 Cd337 2.297 . S
O340 C342 1.247 . S
O341 Cd337 2.439 . S
O341 C342 1.208 . S
C342 O340 1.247 . S
C342 O341 1.208 . S
C343 O348 1.247 . S
C343 O349 1.208 . S
C344 O336 1.315 . S
C344 O339 1.279 . S
C345 O346 1.315 . S
C345 O347 1.279 . S
O346 Cd338 2.223 . S
O346 C345 1.315 . S
O347 Cd337 2.240 . S
O347 C345 1.279 . S
O348 Cd338 2.297 . S
O348 C343 1.247 . S
O349 Cd338 2.439 . S
O349 C343 1.208 . S
O350 Cd351 2.223 . S
O350 C358 1.315 . S
Cd351 O350 2.223 . S
Cd351 O354 2.297 . S
Cd351 O355 2.439 . S
Cd351 O361 2.240 . S
Cd352 O353 2.240 . S
Cd352 O360 2.223 . S
Cd352 O362 2.297 . S
Cd352 O363 2.439 . S
O353 Cd352 2.240 . S
O353 C358 1.279 . S
O354 Cd351 2.297 . S
O354 C356 1.247 . S
O355 Cd351 2.439 . S
O355 C356 1.208 . S
C356 O354 1.247 . S
C356 O355 1.208 . S
C357 O362 1.247 . S
C357 O363 1.208 . S
C358 O350 1.315 . S
C358 O353 1.279 . S
C359 O360 1.315 . S
C359 O361 1.279 . S
O360 Cd352 2.223 . S
O360 C359 1.315 . S
O361 Cd351 2.240 . S
O361 C359 1.279 . S
O362 Cd352 2.297 . S
O362 C357 1.247 . S
O363 Cd352 2.439 . S
O363 C357 1.208 . S
O364 Cd365 2.223 . S
O364 C372 1.315 . S
Cd365 O364 2.223 . S
Cd365 O368 2.297 . S
Cd365 O369 2.439 . S
Cd365 O375 2.240 . S
Cd366 O367 2.240 . S
Cd366 O374 2.223 . S
Cd366 O376 2.297 . S
Cd366 O377 2.439 . S
O367 Cd366 2.240 . S
O367 C372 1.279 . S
O368 Cd365 2.297 . S
O368 C370 1.247 . S
O369 Cd365 2.439 . S
O369 C370 1.208 . S
C370 O368 1.247 . S
C370 O369 1.208 . S
C371 O376 1.247 . S
C371 O377 1.208 . S
C372 O364 1.315 . S
C372 O367 1.279 . S
C373 O374 1.315 . S
C373 O375 1.279 . S
O374 Cd366 2.223 . S
O374 C373 1.315 . S
O375 Cd365 2.240 . S
O375 C373 1.279 . S
O376 Cd366 2.297 . S
O376 C371 1.247 . S
O377 Cd366 2.439 . S
O377 C371 1.208 . S
O378 Cd379 2.223 . S
O378 C386 1.315 . S
Cd379 O378 2.223 . S
Cd379 O382 2.297 . S
Cd379 O383 2.439 . S
Cd379 O389 2.240 . S
Cd380 O381 2.240 . S
Cd380 O388 2.223 . S
Cd380 O390 2.297 . S
Cd380 O391 2.439 . S
O381 Cd380 2.240 . S
O381 C386 1.279 . S
O382 Cd379 2.297 . S
O382 C384 1.247 . S
O383 Cd379 2.439 . S
O383 C384 1.208 . S
C384 O382 1.247 . S
C384 O383 1.208 . S
C385 O390 1.247 . S
C385 O391 1.208 . S
C386 O378 1.315 . S
C386 O381 1.279 . S
C387 O388 1.315 . S
C387 O389 1.279 . S
O388 Cd380 2.223 . S
O388 C387 1.315 . S
O389 Cd379 2.240 . S
O389 C387 1.279 . S
O390 Cd380 2.297 . S
O390 C385 1.247 . S
O391 Cd380 2.439 . S
O391 C385 1.208 . S
O392 Cd393 2.223 . S
O392 C400 1.315 . S
Cd393 O392 2.223 . S
Cd393 O396 2.297 . S
Cd393 O397 2.439 . S
Cd393 O403 2.240 . S
Cd394 O395 2.240 . S
Cd394 O402 2.223 . S
Cd394 O404 2.297 . S
Cd394 O405 2.439 . S
O395 Cd394 2.240 . S
O395 C400 1.279 . S
O396 Cd393 2.297 . S
O396 C398 1.247 . S
O397 Cd393 2.439 . S
O397 C398 1.208 . S
C398 O396 1.247 . S
C398 O397 1.208 . S
C399 O404 1.247 . S
C399 O405 1.208 . S
C400 O392 1.315 . S
C400 O395 1.279 . S
C401 O402 1.315 . S
C401 O403 1.279 . S
O402 Cd394 2.223 . S
O402 C401 1.315 . S
O403 Cd393 2.240 . S
O403 C401 1.279 . S
O404 Cd394 2.297 . S
O404 C399 1.247 . S
O405 Cd394 2.439 . S
O405 C399 1.208 . S
O406 Cd407 2.223 . S
O406 C414 1.315 . S
Cd407 O406 2.223 . S
Cd407 O410 2.297 . S
Cd407 O411 2.439 . S
Cd407 O417 2.240 . S
Cd408 O409 2.240 . S
Cd408 O416 2.223 . S
Cd408 O418 2.297 . S
Cd408 O419 2.439 . S
O409 Cd408 2.240 . S
O409 C414 1.279 . S
O410 Cd407 2.297 . S
O410 C412 1.247 . S
O411 Cd407 2.439 . S
O411 C412 1.208 . S
C412 O410 1.247 . S
C412 O411 1.208 . S
C413 O418 1.247 . S
C413 O419 1.208 . S
C414 O406 1.315 . S
C414 O409 1.279 . S
C415 O416 1.315 . S
C415 O417 1.279 . S
O416 Cd408 2.223 . S
O416 C415 1.315 . S
O417 Cd407 2.240 . S
O417 C415 1.279 . S
O418 Cd408 2.297 . S
O418 C413 1.247 . S
O419 Cd408 2.439 . S
O419 C413 1.208 . S
O420 Cd421 2.223 . S
O420 C428 1.315 . S
Cd421 O420 2.223 . S
Cd421 O424 2.297 . S
Cd421 O425 2.439 . S
Cd421 O431 2.240 . S
Cd422 O423 2.240 . S
Cd422 O430 2.223 . S
Cd422 O432 2.297 . S
Cd422 O433 2.439 . S
O423 Cd422 2.240 . S
O423 C428 1.279 . S
O424 Cd421 2.297 . S
O424 C426 1.247 . S
O425 Cd421 2.439 . S
O425 C426 1.208 . S
C426 O424 1.247 . S
C426 O425 1.208 . S
C427 O432 1.247 . S
C427 O433 1.208 . S
C428 O420 1.315 . S
C428 O423 1.279 . S
C429 O430 1.315 . S
C429 O431 1.279 . S
O430 Cd422 2.223 . S
O430 C429 1.315 . S
O431 Cd421 2.240 . S
O431 C429 1.279 . S
O432 Cd422 2.297 . S
O432 C427 1.247 . S
O433 Cd422 2.439 . S
O433 C427 1.208 . S
O434 Cd435 2.223 . S
O434 C442 1.315 . S
Cd435 O434 2.223 . S
Cd435 O438 2.297 . S
Cd435 O439 2.439 . S
Cd435 O445 2.240 . S
Cd436 O437 2.240 . S
Cd436 O444 2.223 . S
Cd436 O446 2.297 . S
Cd436 O447 2.439 . S
O437 Cd436 2.240 . S
O437 C442 1.279 . S
O438 Cd435 2.297 . S
O438 C440 1.247 . S
O439 Cd435 2.439 . S
O439 C440 1.208 . S
C440 O438 1.247 . S
C440 O439 1.208 . S
C441 O446 1.247 . S
C441 O447 1.208 . S
C442 O434 1.315 . S
C442 O437 1.279 . S
C443 O444 1.315 . S
C443 O445 1.279 . S
O444 Cd436 2.223 . S
O444 C443 1.315 . S
O445 Cd435 2.240 . S
O445 C443 1.279 . S
O446 Cd436 2.297 . S
O446 C441 1.247 . S
O447 Cd436 2.439 . S
O447 C441 1.208 . S
O448 Cd449 2.223 . S
O448 C456 1.315 . S
Cd449 O448 2.223 . S
Cd449 O452 2.297 . S
Cd449 O453 2.439 . S
Cd449 O459 2.240 . S
Cd450 O451 2.240 . S
Cd450 O458 2.223 . S
Cd450 O460 2.297 . S
Cd450 O461 2.439 . S
O451 Cd450 2.240 . S
O451 C456 1.279 . S
O452 Cd449 2.297 . S
O452 C454 1.247 . S
O453 Cd449 2.439 . S
O453 C454 1.208 . S
C454 O452 1.247 . S
C454 O453 1.208 . S
C455 O460 1.247 . S
C455 O461 1.208 . S
C456 O448 1.315 . S
C456 O451 1.279 . S
C457 O458 1.315 . S
C457 O459 1.279 . S
O458 Cd450 2.223 . S
O458 C457 1.315 . S
O459 Cd449 2.240 . S
O459 C457 1.279 . S
O460 Cd450 2.297 . S
O460 C455 1.247 . S
O461 Cd450 2.439 . S
O461 C455 1.208 . S
O462 Cd463 2.223 . S
O462 C470 1.315 . S
Cd463 O462 2.223 . S
Cd463 O466 2.297 . S
Cd463 O467 2.439 . S
Cd463 O473 2.240 . S
Cd464 O465 2.240 . S
Cd464 O472 2.223 . S
Cd464 O474 2.297 . S
Cd464 O475 2.439 . S
O465 Cd464 2.240 . S
O465 C470 1.279 . S
O466 Cd463 2.297 . S
O466 C468 1.247 . S
O467 Cd463 2.439 . S
O467 C468 1.208 . S
C468 O466 1.247 . S
C468 O467 1.208 . S
C469 O474 1.247 . S
C469 O475 1.208 . S
C470 O462 1.315 . S
C470 O465 1.279 . S
C471 O472 1.315 . S
C471 O473 1.279 . S
O472 Cd464 2.223 . S
O472 C471 1.315 . S
O473 Cd463 2.240 . S
O473 C471 1.279 . S
O474 Cd464 2.297 . S
O474 C469 1.247 . S
O475 Cd464 2.439 . S
O475 C469 1.208 . S
O476 Cd477 2.223 . S
O476 C484 1.315 . S
Cd477 O476 2.223 . S
Cd477 O480 2.297 . S
Cd477 O481 2.439 . S
Cd477 O487 2.240 . S
Cd478 O479 2.240 . S
Cd478 O486 2.223 . S
Cd478 O488 2.297 . S
Cd478 O489 2.439 . S
O479 Cd478 2.240 . S
O479 C484 1.279 . S
O480 Cd477 2.297 . S
O480 C482 1.247 . S
O481 Cd477 2.439 . S
O481 C482 1.208 . S
C482 O480 1.247 . S
C482 O481 1.208 . S
C483 O488 1.247 . S
C483 O489 1.208 . S
C484 O476 1.315 . S
C484 O479 1.279 . S
C485 O486 1.315 . S
C485 O487 1.279 . S
O486 Cd478 2.223 . S
O486 C485 1.315 . S
O487 Cd477 2.240 . S
O487 C485 1.279 . S
O488 Cd478 2.297 . S
O488 C483 1.247 . S
O489 Cd478 2.439 . S
O489 C483 1.208 . S
O490 Cd491 2.223 . S
O490 C498 1.315 . S
Cd491 O490 2.223 . S
Cd491 O494 2.297 . S
Cd491 O495 2.439 . S
Cd491 O501 2.240 . S
Cd492 O493 2.240 . S
Cd492 O500 2.223 . S
Cd492 O502 2.297 . S
Cd492 O503 2.439 . S
O493 Cd492 2.240 . S
O493 C498 1.279 . S
O494 Cd491 2.297 . S
O494 C496 1.247 . S
O495 Cd491 2.439 . S
O495 C496 1.208 . S
C496 O494 1.247 . S
C496 O495 1.208 . S
C497 O502 1.247 . S
C497 O503 1.208 . S
C498 O490 1.315 . S
C498 O493 1.279 . S
C499 O500 1.315 . S
C499 O501 1.279 . S
O500 Cd492 2.223 . S
O500 C499 1.315 . S
O501 Cd491 2.240 . S
O501 C499 1.279 . S
O502 Cd492 2.297 . S
O502 C497 1.247 . S
O503 Cd492 2.439 . S
O503 C497 1.208 . S
O504 Cd505 2.223 . S
O504 C512 1.315 . S
Cd505 O504 2.223 . S
Cd505 O508 2.297 . S
Cd505 O509 2.439 . S
Cd505 O515 2.240 . S
Cd506 O507 2.240 . S
Cd506 O514 2.223 . S
Cd506 O516 2.297 . S
Cd506 O517 2.439 . S
O507 Cd506 2.240 . S
O507 C512 1.279 . S
O508 Cd505 2.297 . S
O508 C510 1.247 . S
O509 Cd505 2.439 . S
O509 C510 1.208 . S
C510 O508 1.247 . S
C510 O509 1.208 . S
C511 O516 1.247 . S
C511 O517 1.208 . S
C512 O504 1.315 . S
C512 O507 1.279 . S
C513 O514 1.315 . S
C513 O515 1.279 . S
O514 Cd506 2.223 . S
O514 C513 1.315 . S
O515 Cd505 2.240 . S
O515 C513 1.279 . S
O516 Cd506 2.297 . S
O516 C511 1.247 . S
O517 Cd506 2.439 . S
O517 C511 1.208 . S
O518 Cd519 2.223 . S
O518 C526 1.315 . S
Cd519 O518 2.223 . S
Cd519 O522 2.297 . S
Cd519 O523 2.439 . S
Cd519 O529 2.240 . S
Cd520 O521 2.240 . S
Cd520 O528 2.223 . S
Cd520 O530 2.297 . S
Cd520 O531 2.439 . S
O521 Cd520 2.240 . S
O521 C526 1.279 . S
O522 Cd519 2.297 . S
O522 C524 1.247 . S
O523 Cd519 2.439 . S
O523 C524 1.208 . S
C524 O522 1.247 . S
C524 O523 1.208 . S
C525 O530 1.247 . S
C525 O531 1.208 . S
C526 O518 1.315 . S
C526 O521 1.279 . S
C527 O528 1.315 . S
C527 O529 1.279 . S
O528 Cd520 2.223 . S
O528 C527 1.315 . S
O529 Cd519 2.240 . S
O529 C527 1.279 . S
O530 Cd520 2.297 . S
O530 C525 1.247 . S
O531 Cd520 2.439 . S
O531 C525 1.208 . S
O532 Cd533 2.223 . S
O532 C540 1.315 . S
Cd533 O532 2.223 . S
Cd533 O536 2.297 . S
Cd533 O537 2.439 . S
Cd533 O543 2.240 . S
Cd534 O535 2.240 . S
Cd534 O542 2.223 . S
Cd534 O544 2.297 . S
Cd534 O545 2.439 . S
O535 Cd534 2.240 . S
O535 C540 1.279 . S
O536 Cd533 2.297 . S
O536 C538 1.247 . S
O537 Cd533 2.439 . S
O537 C538 1.208 . S
C538 O536 1.247 . S
C538 O537 1.208 . S
C539 O544 1.247 . S
C539 O545 1.208 . S
C540 O532 1.315 . S
C540 O535 1.279 . S
C541 O542 1.315 . S
C541 O543 1.279 . S
O542 Cd534 2.223 . S
O542 C541 1.315 . S
O543 Cd533 2.240 . S
O543 C541 1.279 . S
O544 Cd534 2.297 . S
O544 C539 1.247 . S
O545 Cd534 2.439 . S
O545 C539 1.208 . S
O546 Cd547 2.223 . S
O546 C554 1.315 . S
Cd547 O546 2.223 . S
Cd547 O550 2.297 . S
Cd547 O551 2.439 . S
Cd547 O557 2.240 . S
Cd548 O549 2.240 . S
Cd548 O556 2.223 . S
Cd548 O558 2.297 . S
Cd548 O559 2.439 . S
O549 Cd548 2.240 . S
O549 C554 1.279 . S
O550 Cd547 2.297 . S
O550 C552 1.247 . S
O551 Cd547 2.439 . S
O551 C552 1.208 . S
C552 O550 1.247 . S
C552 O551 1.208 . S
C553 O558 1.247 . S
C553 O559 1.208 . S
C554 O546 1.315 . S
C554 O549 1.279 . S
C555 O556 1.315 . S
C555 O557 1.279 . S
O556 Cd548 2.223 . S
O556 C555 1.315 . S
O557 Cd547 2.240 . S
O557 C555 1.279 . S
O558 Cd548 2.297 . S
O558 C553 1.247 . S
O559 Cd548 2.439 . S
O559 C553 1.208 . S
O560 Cd561 2.223 . S
O560 C568 1.315 . S
Cd561 O560 2.223 . S
Cd561 O564 2.297 . S
Cd561 O565 2.439 . S
Cd561 O571 2.240 . S
Cd562 O563 2.240 . S
Cd562 O570 2.223 . S
Cd562 O572 2.297 . S
Cd562 O573 2.439 . S
O563 Cd562 2.240 . S
O563 C568 1.279 . S
O564 Cd561 2.297 . S
O564 C566 1.247 . S
O565 Cd561 2.439 . S
O565 C566 1.208 . S
C566 O564 1.247 . S
C566 O565 1.208 . S
C567 O572 1.247 . S
C567 O573 1.208 . S
C568 O560 1.315 . S
C568 O563 1.279 . S
C569 O570 1.315 . S
C569 O571 1.279 . S
O570 Cd562 2.223 . S
O570 C569 1.315 . S
O571 Cd561 2.240 . S
O571 C569 1.279 . S
O572 Cd562 2.297 . S
O572 C567 1.247 . S
O573 Cd562 2.439 . S
O573 C567 1.208 . S
O574 Cd575 2.223 . S
O574 C582 1.315 . S
Cd575 O574 2.223 . S
Cd575 O578 2.297 . S
Cd575 O579 2.439 . S
Cd575 O585 2.240 . S
Cd576 O577 2.240 . S
Cd576 O584 2.223 . S
Cd576 O586 2.297 . S
Cd576 O587 2.439 . S
O577 Cd576 2.240 . S
O577 C582 1.279 . S
O578 Cd575 2.297 . S
O578 C580 1.247 . S
O579 Cd575 2.439 . S
O579 C580 1.208 . S
C580 O578 1.247 . S
C580 O579 1.208 . S
C581 O586 1.247 . S
C581 O587 1.208 . S
C582 O574 1.315 . S
C582 O577 1.279 . S
C583 O584 1.315 . S
C583 O585 1.279 . S
O584 Cd576 2.223 . S
O584 C583 1.315 . S
O585 Cd575 2.240 . S
O585 C583 1.279 . S
O586 Cd576 2.297 . S
O586 C581 1.247 . S
O587 Cd576 2.439 . S
O587 C581 1.208 . S
O588 Cd589 2.223 . S
O588 C596 1.315 . S
Cd589 O588 2.223 . S
Cd589 O592 2.297 . S
Cd589 O593 2.439 . S
Cd589 O599 2.240 . S
Cd590 O591 2.240 . S
Cd590 O598 2.223 . S
Cd590 O600 2.297 . S
Cd590 O601 2.439 . S
O591 Cd590 2.240 . S
O591 C596 1.279 . S
O592 Cd589 2.297 . S
O592 C594 1.247 . S
O593 Cd589 2.439 . S
O593 C594 1.208 . S
C594 O592 1.247 . S
C594 O593 1.208 . S
C595 O600 1.247 . S
C595 O601 1.208 . S
C596 O588 1.315 . S
C596 O591 1.279 . S
C597 O598 1.315 . S
C597 O599 1.279 . S
O598 Cd590 2.223 . S
O598 C597 1.315 . S
O599 Cd589 2.240 . S
O599 C597 1.279 . S
O600 Cd590 2.297 . S
O600 C595 1.247 . S
O601 Cd590 2.439 . S
O601 C595 1.208 . S
O602 Cd603 2.223 . S
O602 C610 1.315 . S
Cd603 O602 2.223 . S
Cd603 O606 2.297 . S
Cd603 O607 2.439 . S
Cd603 O613 2.240 . S
Cd604 O605 2.240 . S
Cd604 O612 2.223 . S
Cd604 O614 2.297 . S
Cd604 O615 2.439 . S
O605 Cd604 2.240 . S
O605 C610 1.279 . S
O606 Cd603 2.297 . S
O606 C608 1.247 . S
O607 Cd603 2.439 . S
O607 C608 1.208 . S
C608 O606 1.247 . S
C608 O607 1.208 . S
C609 O614 1.247 . S
C609 O615 1.208 . S
C610 O602 1.315 . S
C610 O605 1.279 . S
C611 O612 1.315 . S
C611 O613 1.279 . S
O612 Cd604 2.223 . S
O612 C611 1.315 . S
O613 Cd603 2.240 . S
O613 C611 1.279 . S
O614 Cd604 2.297 . S
O614 C609 1.247 . S
O615 Cd604 2.439 . S
O615 C609 1.208 . S
O616 Cd617 2.223 . S
O616 C624 1.315 . S
Cd617 O616 2.223 . S
Cd617 O620 2.297 . S
Cd617 O621 2.439 . S
Cd617 O627 2.240 . S
Cd618 O619 2.240 . S
Cd618 O626 2.223 . S
Cd618 O628 2.297 . S
Cd618 O629 2.439 . S
O619 Cd618 2.240 . S
O619 C624 1.279 . S
O620 Cd617 2.297 . S
O620 C622 1.247 . S
O621 Cd617 2.439 . S
O621 C622 1.208 . S
C622 O620 1.247 . S
C622 O621 1.208 . S
C623 O628 1.247 . S
C623 O629 1.208 . S
C624 O616 1.315 . S
C624 O619 1.279 . S
C625 O626 1.315 . S
C625 O627 1.279 . S
O626 Cd618 2.223 . S
O626 C625 1.315 . S
O627 Cd617 2.240 . S
O627 C625 1.279 . S
O628 Cd618 2.297 . S
O628 C623 1.247 . S
O629 Cd618 2.439 . S
O629 C623 1.208 . S
O630 Cd631 2.223 . S
O630 C638 1.315 . S
Cd631 O630 2.223 . S
Cd631 O634 2.297 . S
Cd631 O635 2.439 . S
Cd631 O641 2.240 . S
Cd632 O633 2.240 . S
Cd632 O640 2.223 . S
Cd632 O642 2.297 . S
Cd632 O643 2.439 . S
O633 Cd632 2.240 . S
O633 C638 1.279 . S
O634 Cd631 2.297 . S
O634 C636 1.247 . S
O635 Cd631 2.439 . S
O635 C636 1.208 . S
C636 O634 1.247 . S
C636 O635 1.208 . S
C637 O642 1.247 . S
C637 O643 1.208 . S
C638 O630 1.315 . S
C638 O633 1.279 . S
C639 O640 1.315 . S
C639 O641 1.279 . S
O640 Cd632 2.223 . S
O640 C639 1.315 . S
O641 Cd631 2.240 . S
O641 C639 1.279 . S
O642 Cd632 2.297 . S
O642 C637 1.247 . S
O643 Cd632 2.439 . S
O643 C637 1.208 . S
O644 Cd645 2.223 . S
O644 C652 1.315 . S
Cd645 O644 2.223 . S
Cd645 O648 2.297 . S
Cd645 O649 2.439 . S
Cd645 O655 2.240 . S
Cd646 O647 2.240 . S
Cd646 O654 2.223 . S
Cd646 O656 2.297 . S
Cd646 O657 2.439 . S
O647 Cd646 2.240 . S
O647 C652 1.279 . S
O648 Cd645 2.297 . S
O648 C650 1.247 . S
O649 Cd645 2.439 . S
O649 C650 1.208 . S
C650 O648 1.247 . S
C650 O649 1.208 . S
C651 O656 1.247 . S
C651 O657 1.208 . S
C652 O644 1.315 . S
C652 O647 1.279 . S
C653 O654 1.315 . S
C653 O655 1.279 . S
O654 Cd646 2.223 . S
O654 C653 1.315 . S
O655 Cd645 2.240 . S
O655 C653 1.279 . S
O656 Cd646 2.297 . S
O656 C651 1.247 . S
O657 Cd646 2.439 . S
O657 C651 1.208 . S
O658 Cd659 2.223 . S
O658 C666 1.315 . S
Cd659 O658 2.223 . S
Cd659 O662 2.297 . S
Cd659 O663 2.439 . S
Cd659 O669 2.240 . S
Cd660 O661 2.240 . S
Cd660 O668 2.223 . S
Cd660 O670 2.297 . S
Cd660 O671 2.439 . S
O661 Cd660 2.240 . S
O661 C666 1.279 . S
O662 Cd659 2.297 . S
O662 C664 1.247 . S
O663 Cd659 2.439 . S
O663 C664 1.208 . S
C664 O662 1.247 . S
C664 O663 1.208 . S
C665 O670 1.247 . S
C665 O671 1.208 . S
C666 O658 1.315 . S
C666 O661 1.279 . S
C667 O668 1.315 . S
C667 O669 1.279 . S
O668 Cd660 2.223 . S
O668 C667 1.315 . S
O669 Cd659 2.240 . S
O669 C667 1.279 . S
O670 Cd660 2.297 . S
O670 C665 1.247 . S
O671 Cd660 2.439 . S
O671 C665 1.208 . S
C672 C673 1.369 . S
C672 C674 1.419 1_655 S
C672 H676 0.930 . S
C673 C672 1.369 . S
C673 C682 1.429 . S
C674 C672 1.419 1_455 S
C674 C675 1.363 . S
C674 H677 0.929 . S
C675 C674 1.363 . S
C675 C681 1.428 . S
H676 C672 0.930 . S
H677 C674 0.929 . S
S678 N679 1.617 1_455 S
S678 N680 1.607 . S
N679 S678 1.617 1_655 S
N679 C682 1.350 . S
N680 S678 1.607 . S
N680 C681 1.351 . S
C681 C675 1.428 . S
C681 N680 1.351 . S
C681 C682 1.434 1_455 S
C682 C673 1.429 . S
C682 N679 1.350 . S
C682 C681 1.434 1_655 S
C683 C684 1.369 . S
C683 C685 1.419 . S
C683 H687 0.930 . S
C684 C683 1.369 . S
C684 C693 1.429 . S
C685 C683 1.419 . S
C685 C686 1.363 . S
C685 H688 0.929 . S
C686 C685 1.363 . S
C686 C692 1.428 . S
H687 C683 0.930 . S
H688 C685 0.929 . S
S689 N690 1.613 . S
S689 N691 1.610 . S
N690 S689 1.613 . S
N690 C693 1.350 . S
N691 S689 1.610 . S
N691 C692 1.351 . S
C692 C686 1.428 . S
C692 N691 1.351 . S
C692 C693 1.434 . S
C693 C684 1.429 . S
C693 N690 1.350 . S
C693 C692 1.434 . S
C694 C695 1.369 . S
C694 C696 1.419 1_455 S
C694 H698 0.930 . S
C695 C694 1.369 . S
C695 C704 1.429 . S
C696 C694 1.419 1_655 S
C696 C697 1.363 . S
C696 H699 0.929 . S
C697 C696 1.363 . S
C697 C703 1.428 . S
H698 C694 0.930 . S
H699 C696 0.929 . S
S700 N701 1.617 1_655 S
S700 N702 1.607 . S
N701 S700 1.617 1_455 S
N701 C704 1.350 . S
N702 S700 1.607 . S
N702 C703 1.351 . S
C703 C697 1.428 . S
C703 N702 1.351 . S
C703 C704 1.434 1_655 S
C704 C695 1.429 . S
C704 N701 1.350 . S
C704 C703 1.434 1_455 S
C705 C706 1.369 . S
C705 C707 1.419 . S
C705 H709 0.930 . S
C706 C705 1.369 . S
C706 C715 1.429 . S
C707 C705 1.419 . S
C707 C708 1.363 . S
C707 H710 0.929 . S
C708 C707 1.363 . S
C708 C714 1.428 . S
H709 C705 0.930 . S
H710 C707 0.929 . S
S711 N712 1.613 . S
S711 N713 1.610 . S
N712 S711 1.613 . S
N712 C715 1.350 . S
N713 S711 1.610 . S
N713 C714 1.351 . S
C714 C708 1.428 . S
C714 N713 1.351 . S
C714 C715 1.434 . S
C715 C706 1.429 . S
C715 N712 1.350 . S
C715 C714 1.434 . S
C716 C717 1.369 . S
C716 C718 1.419 1_655 S
C716 H720 0.930 . S
C717 C716 1.369 . S
C717 C726 1.429 . S
C718 C716 1.419 1_455 S
C718 C719 1.363 . S
C718 H721 0.929 . S
C719 C718 1.363 . S
C719 C725 1.428 . S
H720 C716 0.930 . S
H721 C718 0.929 . S
S722 N723 1.617 1_455 S
S722 N724 1.607 . S
N723 S722 1.617 1_655 S
N723 C726 1.350 . S
N724 S722 1.607 . S
N724 C725 1.351 . S
C725 C719 1.428 . S
C725 N724 1.351 . S
C725 C726 1.434 1_455 S
C726 C717 1.429 . S
C726 N723 1.350 . S
C726 C725 1.434 1_655 S
C727 C728 1.369 . S
C727 C729 1.419 . S
C727 H731 0.930 . S
C728 C727 1.369 . S
C728 C737 1.429 . S
C729 C727 1.419 . S
C729 C730 1.363 . S
C729 H732 0.929 . S
C730 C729 1.363 . S
C730 C736 1.428 . S
H731 C727 0.930 . S
H732 C729 0.929 . S
S733 N734 1.613 . S
S733 N735 1.610 . S
N734 S733 1.613 . S
N734 C737 1.350 . S
N735 S733 1.610 . S
N735 C736 1.351 . S
C736 C730 1.428 . S
C736 N735 1.351 . S
C736 C737 1.434 . S
C737 C728 1.429 . S
C737 N734 1.350 . S
C737 C736 1.434 . S
C738 C739 1.369 . S
C738 C740 1.419 1_455 S
C738 H742 0.930 . S
C739 C738 1.369 . S
C739 C748 1.429 . S
C740 C738 1.419 1_655 S
C740 C741 1.363 . S
C740 H743 0.929 . S
C741 C740 1.363 . S
C741 C747 1.428 . S
H742 C738 0.930 . S
H743 C740 0.929 . S
S744 N745 1.617 1_655 S
S744 N746 1.607 . S
N745 S744 1.617 1_455 S
N745 C748 1.350 . S
N746 S744 1.607 . S
N746 C747 1.351 . S
C747 C741 1.428 . S
C747 N746 1.351 . S
C747 C748 1.434 1_655 S
C748 C739 1.429 . S
C748 N745 1.350 . S
C748 C747 1.434 1_455 S
C749 C750 1.369 . S
C749 C751 1.419 . S
C749 H753 0.930 . S
C750 C749 1.369 . S
C750 C759 1.429 . S
C751 C749 1.419 . S
C751 C752 1.363 . S
C751 H754 0.929 . S
C752 C751 1.363 . S
C752 C758 1.428 . S
H753 C749 0.930 . S
H754 C751 0.929 . S
S755 N756 1.613 . S
S755 N757 1.610 . S
N756 S755 1.613 . S
N756 C759 1.350 . S
N757 S755 1.610 . S
N757 C758 1.351 . S
C758 C752 1.428 . S
C758 N757 1.351 . S
C758 C759 1.434 . S
C759 C750 1.429 . S
C759 N756 1.350 . S
C759 C758 1.434 . S
C760 C761 1.369 . S
C760 C762 1.419 1_565 S
C760 H764 0.930 . S
C761 C760 1.369 . S
C761 C770 1.429 . S
C762 C760 1.419 1_545 S
C762 C763 1.363 . S
C762 H765 0.929 . S
C763 C762 1.363 . S
C763 C769 1.428 . S
H764 C760 0.930 . S
H765 C762 0.929 . S
S766 N767 1.617 1_545 S
S766 N768 1.607 . S
N767 S766 1.617 1_565 S
N767 C770 1.350 . S
N768 S766 1.607 . S
N768 C769 1.351 . S
C769 C763 1.428 . S
C769 N768 1.351 . S
C769 C770 1.434 1_545 S
C770 C761 1.429 . S
C770 N767 1.350 . S
C770 C769 1.434 1_565 S
C771 C772 1.369 . S
C771 C773 1.419 . S
C771 H775 0.930 . S
C772 C771 1.369 . S
C772 C781 1.429 . S
C773 C771 1.419 . S
C773 C774 1.363 . S
C773 H776 0.929 . S
C774 C773 1.363 . S
C774 C780 1.428 . S
H775 C771 0.930 . S
H776 C773 0.929 . S
S777 N778 1.613 . S
S777 N779 1.610 . S
N778 S777 1.613 . S
N778 C781 1.350 . S
N779 S777 1.610 . S
N779 C780 1.351 . S
C780 C774 1.428 . S
C780 N779 1.351 . S
C780 C781 1.434 . S
C781 C772 1.429 . S
C781 N778 1.350 . S
C781 C780 1.434 . S
C782 C783 1.369 . S
C782 C784 1.419 1_545 S
C782 H786 0.930 . S
C783 C782 1.369 . S
C783 C792 1.429 . S
C784 C782 1.419 1_565 S
C784 C785 1.363 . S
C784 H787 0.929 . S
C785 C784 1.363 . S
C785 C791 1.428 . S
H786 C782 0.930 . S
H787 C784 0.929 . S
S788 N789 1.617 1_565 S
S788 N790 1.607 . S
N789 S788 1.617 1_545 S
N789 C792 1.350 . S
N790 S788 1.607 . S
N790 C791 1.351 . S
C791 C785 1.428 . S
C791 N790 1.351 . S
C791 C792 1.434 1_565 S
C792 C783 1.429 . S
C792 N789 1.350 . S
C792 C791 1.434 1_545 S
C793 C794 1.369 . S
C793 C795 1.419 . S
C793 H797 0.930 . S
C794 C793 1.369 . S
C794 C803 1.429 . S
C795 C793 1.419 . S
C795 C796 1.363 . S
C795 H798 0.929 . S
C796 C795 1.363 . S
C796 C802 1.428 . S
H797 C793 0.930 . S
H798 C795 0.929 . S
S799 N800 1.613 . S
S799 N801 1.610 . S
N800 S799 1.613 . S
N800 C803 1.350 . S
N801 S799 1.610 . S
N801 C802 1.351 . S
C802 C796 1.428 . S
C802 N801 1.351 . S
C802 C803 1.434 . S
C803 C794 1.429 . S
C803 N800 1.350 . S
C803 C802 1.434 . S
C804 C805 1.369 . S
C804 C806 1.419 1_545 S
C804 H808 0.930 . S
C805 C804 1.369 . S
C805 C814 1.429 . S
C806 C804 1.419 1_565 S
C806 C807 1.363 . S
C806 H809 0.929 . S
C807 C806 1.363 . S
C807 C813 1.428 . S
H808 C804 0.930 . S
H809 C806 0.929 . S
S810 N811 1.617 1_565 S
S810 N812 1.607 . S
N811 S810 1.617 1_545 S
N811 C814 1.350 . S
N812 S810 1.607 . S
N812 C813 1.351 . S
C813 C807 1.428 . S
C813 N812 1.351 . S
C813 C814 1.434 1_565 S
C814 C805 1.429 . S
C814 N811 1.350 . S
C814 C813 1.434 1_545 S
C815 C816 1.369 . S
C815 C817 1.419 . S
C815 H819 0.930 . S
C816 C815 1.369 . S
C816 C825 1.429 . S
C817 C815 1.419 . S
C817 C818 1.363 . S
C817 H820 0.929 . S
C818 C817 1.363 . S
C818 C824 1.428 . S
H819 C815 0.930 . S
H820 C817 0.929 . S
S821 N822 1.613 . S
S821 N823 1.610 . S
N822 S821 1.613 . S
N822 C825 1.350 . S
N823 S821 1.610 . S
N823 C824 1.351 . S
C824 C818 1.428 . S
C824 N823 1.351 . S
C824 C825 1.434 . S
C825 C816 1.429 . S
C825 N822 1.350 . S
C825 C824 1.434 . S
C826 C827 1.369 . S
C826 C828 1.419 1_545 S
C826 H830 0.930 . S
C827 C826 1.369 . S
C827 C836 1.429 . S
C828 C826 1.419 1_565 S
C828 C829 1.363 . S
C828 H831 0.929 . S
C829 C828 1.363 . S
C829 C835 1.428 . S
H830 C826 0.930 . S
H831 C828 0.929 . S
S832 N833 1.617 1_565 S
S832 N834 1.607 . S
N833 S832 1.617 1_545 S
N833 C836 1.350 . S
N834 S832 1.607 . S
N834 C835 1.351 . S
C835 C829 1.428 . S
C835 N834 1.351 . S
C835 C836 1.434 1_565 S
C836 C827 1.429 . S
C836 N833 1.350 . S
C836 C835 1.434 1_545 S
C837 C838 1.369 . S
C837 C839 1.419 . S
C837 H841 0.930 . S
C838 C837 1.369 . S
C838 C847 1.429 . S
C839 C837 1.419 . S
C839 C840 1.363 . S
C839 H842 0.929 . S
C840 C839 1.363 . S
C840 C846 1.428 . S
H841 C837 0.930 . S
H842 C839 0.929 . S
S843 N844 1.613 . S
S843 N845 1.610 . S
N844 S843 1.613 . S
N844 C847 1.350 . S
N845 S843 1.610 . S
N845 C846 1.351 . S
C846 C840 1.428 . S
C846 N845 1.351 . S
C846 C847 1.434 . S
C847 C838 1.429 . S
C847 N844 1.350 . S
C847 C846 1.434 . S
C848 C849 1.369 . S
C848 C850 1.419 1_554 S
C848 H852 0.930 . S
C849 C848 1.369 . S
C849 C858 1.429 . S
C850 C848 1.419 1_556 S
C850 C851 1.363 . S
C850 H853 0.929 . S
C851 C850 1.363 . S
C851 C857 1.428 . S
H852 C848 0.930 . S
H853 C850 0.929 . S
S854 N855 1.617 1_556 S
S854 N856 1.607 . S
N855 S854 1.617 1_554 S
N855 C858 1.350 . S
N856 S854 1.607 . S
N856 C857 1.351 . S
C857 C851 1.428 . S
C857 N856 1.351 . S
C857 C858 1.434 1_556 S
C858 C849 1.429 . S
C858 N855 1.350 . S
C858 C857 1.434 1_554 S
C859 C860 1.369 . S
C859 C861 1.419 1_554 S
C859 H863 0.930 . S
C860 C859 1.369 . S
C860 C869 1.429 . S
C861 C859 1.419 1_556 S
C861 C862 1.363 . S
C861 H864 0.929 . S
C862 C861 1.363 . S
C862 C868 1.428 . S
H863 C859 0.930 . S
H864 C861 0.929 . S
S865 N866 1.617 1_556 S
S865 N867 1.607 . S
N866 S865 1.617 1_554 S
N866 C869 1.350 . S
N867 S865 1.607 . S
N867 C868 1.351 . S
C868 C862 1.428 . S
C868 N867 1.351 . S
C868 C869 1.434 1_556 S
C869 C860 1.429 . S
C869 N866 1.350 . S
C869 C868 1.434 1_554 S
C870 C871 1.369 . S
C870 C872 1.419 . S
C870 H874 0.930 . S
C871 C870 1.369 . S
C871 C880 1.429 . S
C872 C870 1.419 . S
C872 C873 1.363 . S
C872 H875 0.929 . S
C873 C872 1.363 . S
C873 C879 1.428 . S
H874 C870 0.930 . S
H875 C872 0.929 . S
S876 N877 1.613 . S
S876 N878 1.610 . S
N877 S876 1.613 . S
N877 C880 1.350 . S
N878 S876 1.610 . S
N878 C879 1.351 . S
C879 C873 1.428 . S
C879 N878 1.351 . S
C879 C880 1.434 . S
C880 C871 1.429 . S
C880 N877 1.350 . S
C880 C879 1.434 . S
C881 C882 1.369 . S
C881 C883 1.419 1_554 S
C881 H885 0.930 . S
C882 C881 1.369 . S
C882 C891 1.429 . S
C883 C881 1.419 1_556 S
C883 C884 1.363 . S
C883 H886 0.929 . S
C884 C883 1.363 . S
C884 C890 1.428 . S
H885 C881 0.930 . S
H886 C883 0.929 . S
S887 N888 1.617 1_556 S
S887 N889 1.607 . S
N888 S887 1.617 1_554 S
N888 C891 1.350 . S
N889 S887 1.607 . S
N889 C890 1.351 . S
C890 C884 1.428 . S
C890 N889 1.351 . S
C890 C891 1.434 1_556 S
C891 C882 1.429 . S
C891 N888 1.350 . S
C891 C890 1.434 1_554 S
C892 C893 1.369 . S
C892 C894 1.419 . S
C892 H896 0.930 . S
C893 C892 1.369 . S
C893 C902 1.429 . S
C894 C892 1.419 . S
C894 C895 1.363 . S
C894 H897 0.929 . S
C895 C894 1.363 . S
C895 C901 1.428 . S
H896 C892 0.930 . S
H897 C894 0.929 . S
S898 N899 1.613 . S
S898 N900 1.610 . S
N899 S898 1.613 . S
N899 C902 1.350 . S
N900 S898 1.610 . S
N900 C901 1.351 . S
C901 C895 1.428 . S
C901 N900 1.351 . S
C901 C902 1.434 . S
C902 C893 1.429 . S
C902 N899 1.350 . S
C902 C901 1.434 . S
C903 C904 1.369 . S
C903 C905 1.419 1_554 S
C903 H907 0.930 . S
C904 C903 1.369 . S
C904 C913 1.429 . S
C905 C903 1.419 1_556 S
C905 C906 1.363 . S
C905 H908 0.929 . S
C906 C905 1.363 . S
C906 C912 1.428 . S
H907 C903 0.930 . S
H908 C905 0.929 . S
S909 N910 1.617 1_556 S
S909 N911 1.607 . S
N910 S909 1.617 1_554 S
N910 C913 1.350 . S
N911 S909 1.607 . S
N911 C912 1.351 . S
C912 C906 1.428 . S
C912 N911 1.351 . S
C912 C913 1.434 1_556 S
C913 C904 1.429 . S
C913 N910 1.350 . S
C913 C912 1.434 1_554 S
C914 C915 1.369 . S
C914 C916 1.419 . S
C914 H918 0.930 . S
C915 C914 1.369 . S
C915 C924 1.429 . S
C916 C914 1.419 . S
C916 C917 1.363 . S
C916 H919 0.929 . S
C917 C916 1.363 . S
C917 C923 1.428 . S
H918 C914 0.930 . S
H919 C916 0.929 . S
S920 N921 1.613 . S
S920 N922 1.610 . S
N921 S920 1.613 . S
N921 C924 1.350 . S
N922 S920 1.610 . S
N922 C923 1.351 . S
C923 C917 1.428 . S
C923 N922 1.351 . S
C923 C924 1.434 . S
C924 C915 1.429 . S
C924 N921 1.350 . S
C924 C923 1.434 . S
C925 C926 1.369 . S
C925 C927 1.419 . S
C925 H929 0.930 . S
C926 C925 1.369 . S
C926 C935 1.429 . S
C927 C925 1.419 . S
C927 C928 1.363 . S
C927 H930 0.929 . S
C928 C927 1.363 . S
C928 C934 1.428 . S
H929 C925 0.930 . S
H930 C927 0.929 . S
S931 N932 1.613 . S
S931 N933 1.610 . S
N932 S931 1.613 . S
N932 C935 1.350 . S
N933 S931 1.610 . S
N933 C934 1.351 . S
C934 C928 1.428 . S
C934 N933 1.351 . S
C934 C935 1.434 . S
C935 C926 1.429 . S
C935 N932 1.350 . S
C935 C934 1.434 . S
C936 C937 1.369 . S
C936 C938 1.419 . S
C936 H940 0.930 . S
C937 C936 1.369 . S
C937 C946 1.429 . S
C938 C936 1.419 . S
C938 C939 1.363 . S
C938 H941 0.929 . S
C939 C938 1.363 . S
C939 C945 1.428 . S
H940 C936 0.930 . S
H941 C938 0.929 . S
S942 N943 1.613 . S
S942 N944 1.610 . S
N943 S942 1.613 . S
N943 C946 1.350 . S
N944 S942 1.610 . S
N944 C945 1.351 . S
C945 C939 1.428 . S
C945 N944 1.351 . S
C945 C946 1.434 . S
C946 C937 1.429 . S
C946 N943 1.350 . S
C946 C945 1.434 . S
C947 C948 1.369 . S
C947 C949 1.419 . S
C947 H951 0.930 . S
C948 C947 1.369 . S
C948 C957 1.429 . S
C949 C947 1.419 . S
C949 C950 1.363 . S
C949 H952 0.929 . S
C950 C949 1.363 . S
C950 C956 1.428 . S
H951 C947 0.930 . S
H952 C949 0.929 . S
S953 N954 1.613 . S
S953 N955 1.610 . S
N954 S953 1.613 . S
N954 C957 1.350 . S
N955 S953 1.610 . S
N955 C956 1.351 . S
C956 C950 1.428 . S
C956 N955 1.351 . S
C956 C957 1.434 . S
C957 C948 1.429 . S
C957 N954 1.350 . S
C957 C956 1.434 . S
C958 C959 1.369 . S
C958 C960 1.419 . S
C958 H962 0.930 . S
C959 C958 1.369 . S
C959 C968 1.429 . S
C960 C958 1.419 . S
C960 C961 1.363 . S
C960 H963 0.929 . S
C961 C960 1.363 . S
C961 C967 1.428 . S
H962 C958 0.930 . S
H963 C960 0.929 . S
S964 N965 1.613 . S
S964 N966 1.610 . S
N965 S964 1.613 . S
N965 C968 1.350 . S
N966 S964 1.610 . S
N966 C967 1.351 . S
C967 C961 1.428 . S
C967 N966 1.351 . S
C967 C968 1.434 . S
C968 C959 1.429 . S
C968 N965 1.350 . S
C968 C967 1.434 . S
C969 C970 1.369 . S
C969 C971 1.419 . S
C969 H973 0.930 . S
C970 C969 1.369 . S
C970 C979 1.429 . S
C971 C969 1.419 . S
C971 C972 1.363 . S
C971 H974 0.929 . S
C972 C971 1.363 . S
C972 C978 1.428 . S
H973 C969 0.930 . S
H974 C971 0.929 . S
S975 N976 1.613 . S
S975 N977 1.610 . S
N976 S975 1.613 . S
N976 C979 1.350 . S
N977 S975 1.610 . S
N977 C978 1.351 . S
C978 C972 1.428 . S
C978 N977 1.351 . S
C978 C979 1.434 . S
C979 C970 1.429 . S
C979 N976 1.350 . S
C979 C978 1.434 . S
C980 C981 1.369 . S
C980 C982 1.419 . S
C980 H984 0.930 . S
C981 C980 1.369 . S
C981 C990 1.429 . S
C982 C980 1.419 . S
C982 C983 1.363 . S
C982 H985 0.929 . S
C983 C982 1.363 . S
C983 C989 1.428 . S
H984 C980 0.930 . S
H985 C982 0.929 . S
S986 N987 1.613 . S
S986 N988 1.610 . S
N987 S986 1.613 . S
N987 C990 1.350 . S
N988 S986 1.610 . S
N988 C989 1.351 . S
C989 C983 1.428 . S
C989 N988 1.351 . S
C989 C990 1.434 . S
C990 C981 1.429 . S
C990 N987 1.350 . S
C990 C989 1.434 . S
C991 C992 1.369 . S
C991 C993 1.419 . S
C991 H995 0.930 . S
C992 C991 1.369 . S
C992 C1001 1.429 . S
C993 C991 1.419 . S
C993 C994 1.363 . S
C993 H996 0.929 . S
C994 C993 1.363 . S
C994 C1000 1.428 . S
H995 C991 0.930 . S
H996 C993 0.929 . S
S997 N998 1.613 . S
S997 N999 1.610 . S
N998 S997 1.613 . S
N998 C1001 1.350 . S
N999 S997 1.610 . S
N999 C1000 1.351 . S
C1000 C994 1.428 . S
C1000 N999 1.351 . S
C1000 C1001 1.434 . S
C1001 C992 1.429 . S
C1001 N998 1.350 . S
C1001 C1000 1.434 . S
C1002 C1003 1.369 . S
C1002 C1004 1.419 . S
C1002 H1006 0.930 . S
C1003 C1002 1.369 . S
C1003 C1012 1.429 . S
C1004 C1002 1.419 . S
C1004 C1005 1.363 . S
C1004 H1007 0.929 . S
C1005 C1004 1.363 . S
C1005 C1011 1.428 . S
H1006 C1002 0.930 . S
H1007 C1004 0.929 . S
S1008 N1009 1.613 . S
S1008 N1010 1.610 . S
N1009 S1008 1.613 . S
N1009 C1012 1.350 . S
N1010 S1008 1.610 . S
N1010 C1011 1.351 . S
C1011 C1005 1.428 . S
C1011 N1010 1.351 . S
C1011 C1012 1.434 . S
C1012 C1003 1.429 . S
C1012 N1009 1.350 . S
C1012 C1011 1.434 . S
C1013 C1014 1.369 . S
C1013 C1015 1.419 . S
C1013 H1017 0.930 . S
C1014 C1013 1.369 . S
C1014 C1023 1.429 . S
C1015 C1013 1.419 . S
C1015 C1016 1.363 . S
C1015 H1018 0.929 . S
C1016 C1015 1.363 . S
C1016 C1022 1.428 . S
H1017 C1013 0.930 . S
H1018 C1015 0.929 . S
S1019 N1020 1.613 . S
S1019 N1021 1.610 . S
N1020 S1019 1.613 . S
N1020 C1023 1.350 . S
N1021 S1019 1.610 . S
N1021 C1022 1.351 . S
C1022 C1016 1.428 . S
C1022 N1021 1.351 . S
C1022 C1023 1.434 . S
C1023 C1014 1.429 . S
C1023 N1020 1.350 . S
C1023 C1022 1.434 . S
C1024 C1025 1.369 . S
C1024 C1026 1.419 . S
C1024 H1028 0.930 . S
C1025 C1024 1.369 . S
C1025 C1034 1.429 . S
C1026 C1024 1.419 . S
C1026 C1027 1.363 . S
C1026 H1029 0.929 . S
C1027 C1026 1.363 . S
C1027 C1033 1.428 . S
H1028 C1024 0.930 . S
H1029 C1026 0.929 . S
S1030 N1031 1.613 . S
S1030 N1032 1.610 . S
N1031 S1030 1.613 . S
N1031 C1034 1.350 . S
N1032 S1030 1.610 . S
N1032 C1033 1.351 . S
C1033 C1027 1.428 . S
C1033 N1032 1.351 . S
C1033 C1034 1.434 . S
C1034 C1025 1.429 . S
C1034 N1031 1.350 . S
C1034 C1033 1.434 . S
C1035 C1036 1.369 . S
C1035 C1037 1.419 . S
C1035 H1039 0.930 . S
C1036 C1035 1.369 . S
C1036 C1045 1.429 . S
C1037 C1035 1.419 . S
C1037 C1038 1.363 . S
C1037 H1040 0.929 . S
C1038 C1037 1.363 . S
C1038 C1044 1.428 . S
H1039 C1035 0.930 . S
H1040 C1037 0.929 . S
S1041 N1042 1.613 . S
S1041 N1043 1.610 . S
N1042 S1041 1.613 . S
N1042 C1045 1.350 . S
N1043 S1041 1.610 . S
N1043 C1044 1.351 . S
C1044 C1038 1.428 . S
C1044 N1043 1.351 . S
C1044 C1045 1.434 . S
C1045 C1036 1.429 . S
C1045 N1042 1.350 . S
C1045 C1044 1.434 . S
C1046 C1047 1.369 . S
C1046 C1048 1.419 . S
C1046 H1050 0.930 . S
C1047 C1046 1.369 . S
C1047 C1056 1.429 . S
C1048 C1046 1.419 . S
C1048 C1049 1.363 . S
C1048 H1051 0.929 . S
C1049 C1048 1.363 . S
C1049 C1055 1.428 . S
H1050 C1046 0.930 . S
H1051 C1048 0.929 . S
S1052 N1053 1.613 . S
S1052 N1054 1.610 . S
N1053 S1052 1.613 . S
N1053 C1056 1.350 . S
N1054 S1052 1.610 . S
N1054 C1055 1.351 . S
C1055 C1049 1.428 . S
C1055 N1054 1.351 . S
C1055 C1056 1.434 . S
C1056 C1047 1.429 . S
C1056 N1053 1.350 . S
C1056 C1055 1.434 . S
C1057 C1058 1.369 . S
C1057 C1059 1.419 . S
C1057 H1061 0.930 . S
C1058 C1057 1.369 . S
C1058 C1067 1.429 . S
C1059 C1057 1.419 . S
C1059 C1060 1.363 . S
C1059 H1062 0.929 . S
C1060 C1059 1.363 . S
C1060 C1066 1.428 . S
H1061 C1057 0.930 . S
H1062 C1059 0.929 . S
S1063 N1064 1.613 . S
S1063 N1065 1.610 . S
N1064 S1063 1.613 . S
N1064 C1067 1.350 . S
N1065 S1063 1.610 . S
N1065 C1066 1.351 . S
C1066 C1060 1.428 . S
C1066 N1065 1.351 . S
C1066 C1067 1.434 . S
C1067 C1058 1.429 . S
C1067 N1064 1.350 . S
C1067 C1066 1.434 . S
C1068 C1069 1.369 . S
C1068 C1070 1.419 . S
C1068 H1072 0.930 . S
C1069 C1068 1.369 . S
C1069 C1078 1.429 . S
C1070 C1068 1.419 . S
C1070 C1071 1.363 . S
C1070 H1073 0.929 . S
C1071 C1070 1.363 . S
C1071 C1077 1.428 . S
H1072 C1068 0.930 . S
H1073 C1070 0.929 . S
S1074 N1075 1.613 . S
S1074 N1076 1.610 . S
N1075 S1074 1.613 . S
N1075 C1078 1.350 . S
N1076 S1074 1.610 . S
N1076 C1077 1.351 . S
C1077 C1071 1.428 . S
C1077 N1076 1.351 . S
C1077 C1078 1.434 . S
C1078 C1069 1.429 . S
C1078 N1075 1.350 . S
C1078 C1077 1.434 . S
C1079 C1080 1.369 . S
C1079 C1081 1.419 . S
C1079 H1083 0.930 . S
C1080 C1079 1.369 . S
C1080 C1089 1.429 . S
C1081 C1079 1.419 . S
C1081 C1082 1.363 . S
C1081 H1084 0.929 . S
C1082 C1081 1.363 . S
C1082 C1088 1.428 . S
H1083 C1079 0.930 . S
H1084 C1081 0.929 . S
S1085 N1086 1.613 . S
S1085 N1087 1.610 . S
N1086 S1085 1.613 . S
N1086 C1089 1.350 . S
N1087 S1085 1.610 . S
N1087 C1088 1.351 . S
C1088 C1082 1.428 . S
C1088 N1087 1.351 . S
C1088 C1089 1.434 . S
C1089 C1080 1.429 . S
C1089 N1086 1.350 . S
C1089 C1088 1.434 . S
C1090 C1091 1.369 . S
C1090 C1092 1.419 . S
C1090 H1094 0.930 . S
C1091 C1090 1.369 . S
C1091 C1100 1.429 . S
C1092 C1090 1.419 . S
C1092 C1093 1.363 . S
C1092 H1095 0.929 . S
C1093 C1092 1.363 . S
C1093 C1099 1.428 . S
H1094 C1090 0.930 . S
H1095 C1092 0.929 . S
S1096 N1097 1.613 . S
S1096 N1098 1.610 . S
N1097 S1096 1.613 . S
N1097 C1100 1.350 . S
N1098 S1096 1.610 . S
N1098 C1099 1.351 . S
C1099 C1093 1.428 . S
C1099 N1098 1.351 . S
C1099 C1100 1.434 . S
C1100 C1091 1.429 . S
C1100 N1097 1.350 . S
C1100 C1099 1.434 . S
C1101 C1102 1.369 . S
C1101 C1103 1.419 . S
C1101 H1105 0.930 . S
C1102 C1101 1.369 . S
C1102 C1111 1.429 . S
C1103 C1101 1.419 . S
C1103 C1104 1.363 . S
C1103 H1106 0.929 . S
C1104 C1103 1.363 . S
C1104 C1110 1.428 . S
H1105 C1101 0.930 . S
H1106 C1103 0.929 . S
S1107 N1108 1.613 . S
S1107 N1109 1.610 . S
N1108 S1107 1.613 . S
N1108 C1111 1.350 . S
N1109 S1107 1.610 . S
N1109 C1110 1.351 . S
C1110 C1104 1.428 . S
C1110 N1109 1.351 . S
C1110 C1111 1.434 . S
C1111 C1102 1.429 . S
C1111 N1108 1.350 . S
C1111 C1110 1.434 . S
C1112 C1113 1.369 . S
C1112 C1114 1.419 . S
C1112 H1116 0.930 . S
C1113 C1112 1.369 . S
C1113 C1122 1.429 . S
C1114 C1112 1.419 . S
C1114 C1115 1.363 . S
C1114 H1117 0.929 . S
C1115 C1114 1.363 . S
C1115 C1121 1.428 . S
H1116 C1112 0.930 . S
H1117 C1114 0.929 . S
S1118 N1119 1.613 . S
S1118 N1120 1.610 . S
N1119 S1118 1.613 . S
N1119 C1122 1.350 . S
N1120 S1118 1.610 . S
N1120 C1121 1.351 . S
C1121 C1115 1.428 . S
C1121 N1120 1.351 . S
C1121 C1122 1.434 . S
C1122 C1113 1.429 . S
C1122 N1119 1.350 . S
C1122 C1121 1.434 . S
C1123 C1124 1.369 . S
C1123 C1125 1.419 . S
C1123 H1127 0.930 . S
C1124 C1123 1.369 . S
C1124 C1133 1.429 . S
C1125 C1123 1.419 . S
C1125 C1126 1.363 . S
C1125 H1128 0.929 . S
C1126 C1125 1.363 . S
C1126 C1132 1.428 . S
H1127 C1123 0.930 . S
H1128 C1125 0.929 . S
S1129 N1130 1.613 . S
S1129 N1131 1.610 . S
N1130 S1129 1.613 . S
N1130 C1133 1.350 . S
N1131 S1129 1.610 . S
N1131 C1132 1.351 . S
C1132 C1126 1.428 . S
C1132 N1131 1.351 . S
C1132 C1133 1.434 . S
C1133 C1124 1.429 . S
C1133 N1130 1.350 . S
C1133 C1132 1.434 . S
C1134 C1135 1.369 . S
C1134 C1136 1.419 . S
C1134 H1138 0.930 . S
C1135 C1134 1.369 . S
C1135 C1144 1.429 . S
C1136 C1134 1.419 . S
C1136 C1137 1.363 . S
C1136 H1139 0.929 . S
C1137 C1136 1.363 . S
C1137 C1143 1.428 . S
H1138 C1134 0.930 . S
H1139 C1136 0.929 . S
S1140 N1141 1.613 . S
S1140 N1142 1.610 . S
N1141 S1140 1.613 . S
N1141 C1144 1.350 . S
N1142 S1140 1.610 . S
N1142 C1143 1.351 . S
C1143 C1137 1.428 . S
C1143 N1142 1.351 . S
C1143 C1144 1.434 . S
C1144 C1135 1.429 . S
C1144 N1141 1.350 . S
C1144 C1143 1.434 . S
C1145 C1146 1.369 . S
C1145 C1147 1.419 . S
C1145 H1149 0.930 . S
C1146 C1145 1.369 . S
C1146 C1155 1.429 . S
C1147 C1145 1.419 . S
C1147 C1148 1.363 . S
C1147 H1150 0.929 . S
C1148 C1147 1.363 . S
C1148 C1154 1.428 . S
H1149 C1145 0.930 . S
H1150 C1147 0.929 . S
S1151 N1152 1.613 . S
S1151 N1153 1.610 . S
N1152 S1151 1.613 . S
N1152 C1155 1.350 . S
N1153 S1151 1.610 . S
N1153 C1154 1.351 . S
C1154 C1148 1.428 . S
C1154 N1153 1.351 . S
C1154 C1155 1.434 . S
C1155 C1146 1.429 . S
C1155 N1152 1.350 . S
C1155 C1154 1.434 . S
C1156 C1157 1.369 . S
C1156 C1158 1.419 . S
C1156 H1160 0.930 . S
C1157 C1156 1.369 . S
C1157 C1166 1.429 . S
C1158 C1156 1.419 . S
C1158 C1159 1.363 . S
C1158 H1161 0.929 . S
C1159 C1158 1.363 . S
C1159 C1165 1.428 . S
H1160 C1156 0.930 . S
H1161 C1158 0.929 . S
S1162 N1163 1.613 . S
S1162 N1164 1.610 . S
N1163 S1162 1.613 . S
N1163 C1166 1.350 . S
N1164 S1162 1.610 . S
N1164 C1165 1.351 . S
C1165 C1159 1.428 . S
C1165 N1164 1.351 . S
C1165 C1166 1.434 . S
C1166 C1157 1.429 . S
C1166 N1163 1.350 . S
C1166 C1165 1.434 . S
C1167 C1168 1.369 . S
C1167 C1169 1.419 . S
C1167 H1171 0.930 . S
C1168 C1167 1.369 . S
C1168 C1177 1.429 . S
C1169 C1167 1.419 . S
C1169 C1170 1.363 . S
C1169 H1172 0.929 . S
C1170 C1169 1.363 . S
C1170 C1176 1.428 . S
H1171 C1167 0.930 . S
H1172 C1169 0.929 . S
S1173 N1174 1.613 . S
S1173 N1175 1.610 . S
N1174 S1173 1.613 . S
N1174 C1177 1.350 . S
N1175 S1173 1.610 . S
N1175 C1176 1.351 . S
C1176 C1170 1.428 . S
C1176 N1175 1.351 . S
C1176 C1177 1.434 . S
C1177 C1168 1.429 . S
C1177 N1174 1.350 . S
C1177 C1176 1.434 . S
C1178 C1179 1.369 . S
C1178 C1180 1.419 . S
C1178 H1182 0.930 . S
C1179 C1178 1.369 . S
C1179 C1188 1.429 . S
C1180 C1178 1.419 . S
C1180 C1181 1.363 . S
C1180 H1183 0.929 . S
C1181 C1180 1.363 . S
C1181 C1187 1.428 . S
H1182 C1178 0.930 . S
H1183 C1180 0.929 . S
S1184 N1185 1.613 . S
S1184 N1186 1.610 . S
N1185 S1184 1.613 . S
N1185 C1188 1.350 . S
N1186 S1184 1.610 . S
N1186 C1187 1.351 . S
C1187 C1181 1.428 . S
C1187 N1186 1.351 . S
C1187 C1188 1.434 . S
C1188 C1179 1.429 . S
C1188 N1185 1.350 . S
C1188 C1187 1.434 . S
C1189 C1190 1.369 . S
C1189 C1191 1.419 . S
C1189 H1193 0.930 . S
C1190 C1189 1.369 . S
C1190 C1199 1.429 . S
C1191 C1189 1.419 . S
C1191 C1192 1.363 . S
C1191 H1194 0.929 . S
C1192 C1191 1.363 . S
C1192 C1198 1.428 . S
H1193 C1189 0.930 . S
H1194 C1191 0.929 . S
S1195 N1196 1.613 . S
S1195 N1197 1.610 . S
N1196 S1195 1.613 . S
N1196 C1199 1.350 . S
N1197 S1195 1.610 . S
N1197 C1198 1.351 . S
C1198 C1192 1.428 . S
C1198 N1197 1.351 . S
C1198 C1199 1.434 . S
C1199 C1190 1.429 . S
C1199 N1196 1.350 . S
C1199 C1198 1.434 . S
C1200 C1201 1.369 . S
C1200 C1202 1.419 . S
C1200 H1204 0.930 . S
C1201 C1200 1.369 . S
C1201 C1210 1.429 . S
C1202 C1200 1.419 . S
C1202 C1203 1.363 . S
C1202 H1205 0.929 . S
C1203 C1202 1.363 . S
C1203 C1209 1.428 . S
H1204 C1200 0.930 . S
H1205 C1202 0.929 . S
S1206 N1207 1.613 . S
S1206 N1208 1.610 . S
N1207 S1206 1.613 . S
N1207 C1210 1.350 . S
N1208 S1206 1.610 . S
N1208 C1209 1.351 . S
C1209 C1203 1.428 . S
C1209 N1208 1.351 . S
C1209 C1210 1.434 . S
C1210 C1201 1.429 . S
C1210 N1207 1.350 . S
C1210 C1209 1.434 . S
C1211 C1212 1.369 . S
C1211 C1213 1.419 . S
C1211 H1215 0.930 . S
C1212 C1211 1.369 . S
C1212 C1221 1.429 . S
C1213 C1211 1.419 . S
C1213 C1214 1.363 . S
C1213 H1216 0.929 . S
C1214 C1213 1.363 . S
C1214 C1220 1.428 . S
H1215 C1211 0.930 . S
H1216 C1213 0.929 . S
S1217 N1218 1.613 . S
S1217 N1219 1.610 . S
N1218 S1217 1.613 . S
N1218 C1221 1.350 . S
N1219 S1217 1.610 . S
N1219 C1220 1.351 . S
C1220 C1214 1.428 . S
C1220 N1219 1.351 . S
C1220 C1221 1.434 . S
C1221 C1212 1.429 . S
C1221 N1218 1.350 . S
C1221 C1220 1.434 . S
C1222 C1223 1.369 . S
C1222 C1224 1.419 . S
C1222 H1226 0.930 . S
C1223 C1222 1.369 . S
C1223 C1232 1.429 . S
C1224 C1222 1.419 . S
C1224 C1225 1.363 . S
C1224 H1227 0.929 . S
C1225 C1224 1.363 . S
C1225 C1231 1.428 . S
H1226 C1222 0.930 . S
H1227 C1224 0.929 . S
S1228 N1229 1.613 . S
S1228 N1230 1.610 . S
N1229 S1228 1.613 . S
N1229 C1232 1.350 . S
N1230 S1228 1.610 . S
N1230 C1231 1.351 . S
C1231 C1225 1.428 . S
C1231 N1230 1.351 . S
C1231 C1232 1.434 . S
C1232 C1223 1.429 . S
C1232 N1229 1.350 . S
C1232 C1231 1.434 . S
C1233 C1234 1.369 . S
C1233 C1235 1.419 . S
C1233 H1237 0.930 . S
C1234 C1233 1.369 . S
C1234 C1243 1.429 . S
C1235 C1233 1.419 . S
C1235 C1236 1.363 . S
C1235 H1238 0.929 . S
C1236 C1235 1.363 . S
C1236 C1242 1.428 . S
H1237 C1233 0.930 . S
H1238 C1235 0.929 . S
S1239 N1240 1.613 . S
S1239 N1241 1.610 . S
N1240 S1239 1.613 . S
N1240 C1243 1.350 . S
N1241 S1239 1.610 . S
N1241 C1242 1.351 . S
C1242 C1236 1.428 . S
C1242 N1241 1.351 . S
C1242 C1243 1.434 . S
C1243 C1234 1.429 . S
C1243 N1240 1.350 . S
C1243 C1242 1.434 . S
C1244 C1245 1.369 . S
C1244 C1246 1.419 . S
C1244 H1248 0.930 . S
C1245 C1244 1.369 . S
C1245 C1254 1.429 . S
C1246 C1244 1.419 . S
C1246 C1247 1.363 . S
C1246 H1249 0.929 . S
C1247 C1246 1.363 . S
C1247 C1253 1.428 . S
H1248 C1244 0.930 . S
H1249 C1246 0.929 . S
S1250 N1251 1.613 . S
S1250 N1252 1.610 . S
N1251 S1250 1.613 . S
N1251 C1254 1.350 . S
N1252 S1250 1.610 . S
N1252 C1253 1.351 . S
C1253 C1247 1.428 . S
C1253 N1252 1.351 . S
C1253 C1254 1.434 . S
C1254 C1245 1.429 . S
C1254 N1251 1.350 . S
C1254 C1253 1.434 . S
C1255 C1256 1.369 . S
C1255 C1257 1.419 . S
C1255 H1259 0.930 . S
C1256 C1255 1.369 . S
C1256 C1265 1.429 . S
C1257 C1255 1.419 . S
C1257 C1258 1.363 . S
C1257 H1260 0.929 . S
C1258 C1257 1.363 . S
C1258 C1264 1.428 . S
H1259 C1255 0.930 . S
H1260 C1257 0.929 . S
S1261 N1262 1.613 . S
S1261 N1263 1.610 . S
N1262 S1261 1.613 . S
N1262 C1265 1.350 . S
N1263 S1261 1.610 . S
N1263 C1264 1.351 . S
C1264 C1258 1.428 . S
C1264 N1263 1.351 . S
C1264 C1265 1.434 . S
C1265 C1256 1.429 . S
C1265 N1262 1.350 . S
C1265 C1264 1.434 . S
C1266 C1267 1.369 . S
C1266 C1268 1.419 . S
C1266 H1270 0.930 . S
C1267 C1266 1.369 . S
C1267 C1276 1.429 . S
C1268 C1266 1.419 . S
C1268 C1269 1.363 . S
C1268 H1271 0.929 . S
C1269 C1268 1.363 . S
C1269 C1275 1.428 . S
H1270 C1266 0.930 . S
H1271 C1268 0.929 . S
S1272 N1273 1.613 . S
S1272 N1274 1.610 . S
N1273 S1272 1.613 . S
N1273 C1276 1.350 . S
N1274 S1272 1.610 . S
N1274 C1275 1.351 . S
C1275 C1269 1.428 . S
C1275 N1274 1.351 . S
C1275 C1276 1.434 . S
C1276 C1267 1.429 . S
C1276 N1273 1.350 . S
C1276 C1275 1.434 . S
C1277 C1278 1.369 . S
C1277 C1279 1.419 . S
C1277 H1281 0.930 . S
C1278 C1277 1.369 . S
C1278 C1287 1.429 . S
C1279 C1277 1.419 . S
C1279 C1280 1.363 . S
C1279 H1282 0.929 . S
C1280 C1279 1.363 . S
C1280 C1286 1.428 . S
H1281 C1277 0.930 . S
H1282 C1279 0.929 . S
S1283 N1284 1.613 . S
S1283 N1285 1.610 . S
N1284 S1283 1.613 . S
N1284 C1287 1.350 . S
N1285 S1283 1.610 . S
N1285 C1286 1.351 . S
C1286 C1280 1.428 . S
C1286 N1285 1.351 . S
C1286 C1287 1.434 . S
C1287 C1278 1.429 . S
C1287 N1284 1.350 . S
C1287 C1286 1.434 . S
C1288 C1289 1.369 . S
C1288 C1290 1.419 . S
C1288 H1292 0.930 . S
C1289 C1288 1.369 . S
C1289 C1298 1.429 . S
C1290 C1288 1.419 . S
C1290 C1291 1.363 . S
C1290 H1293 0.929 . S
C1291 C1290 1.363 . S
C1291 C1297 1.428 . S
H1292 C1288 0.930 . S
H1293 C1290 0.929 . S
S1294 N1295 1.613 . S
S1294 N1296 1.610 . S
N1295 S1294 1.613 . S
N1295 C1298 1.350 . S
N1296 S1294 1.610 . S
N1296 C1297 1.351 . S
C1297 C1291 1.428 . S
C1297 N1296 1.351 . S
C1297 C1298 1.434 . S
C1298 C1289 1.429 . S
C1298 N1295 1.350 . S
C1298 C1297 1.434 . S
C1299 C1300 1.369 . S
C1299 C1301 1.419 . S
C1299 H1303 0.930 . S
C1300 C1299 1.369 . S
C1300 C1309 1.429 . S
C1301 C1299 1.419 . S
C1301 C1302 1.363 . S
C1301 H1304 0.929 . S
C1302 C1301 1.363 . S
C1302 C1308 1.428 . S
H1303 C1299 0.930 . S
H1304 C1301 0.929 . S
S1305 N1306 1.613 . S
S1305 N1307 1.610 . S
N1306 S1305 1.613 . S
N1306 C1309 1.350 . S
N1307 S1305 1.610 . S
N1307 C1308 1.351 . S
C1308 C1302 1.428 . S
C1308 N1307 1.351 . S
C1308 C1309 1.434 . S
C1309 C1300 1.429 . S
C1309 N1306 1.350 . S
C1309 C1308 1.434 . S
C1310 C1311 1.369 . S
C1310 C1312 1.419 . S
C1310 H1314 0.930 . S
C1311 C1310 1.369 . S
C1311 C1320 1.429 . S
C1312 C1310 1.419 . S
C1312 C1313 1.363 . S
C1312 H1315 0.929 . S
C1313 C1312 1.363 . S
C1313 C1319 1.428 . S
H1314 C1310 0.930 . S
H1315 C1312 0.929 . S
S1316 N1317 1.613 . S
S1316 N1318 1.610 . S
N1317 S1316 1.613 . S
N1317 C1320 1.350 . S
N1318 S1316 1.610 . S
N1318 C1319 1.351 . S
C1319 C1313 1.428 . S
C1319 N1318 1.351 . S
C1319 C1320 1.434 . S
C1320 C1311 1.429 . S
C1320 N1317 1.350 . S
C1320 C1319 1.434 . S
C1321 C1322 1.369 . S
C1321 C1323 1.419 . S
C1321 H1325 0.930 . S
C1322 C1321 1.369 . S
C1322 C1331 1.429 . S
C1323 C1321 1.419 . S
C1323 C1324 1.363 . S
C1323 H1326 0.929 . S
C1324 C1323 1.363 . S
C1324 C1330 1.428 . S
H1325 C1321 0.930 . S
H1326 C1323 0.929 . S
S1327 N1328 1.613 . S
S1327 N1329 1.610 . S
N1328 S1327 1.613 . S
N1328 C1331 1.350 . S
N1329 S1327 1.610 . S
N1329 C1330 1.351 . S
C1330 C1324 1.428 . S
C1330 N1329 1.351 . S
C1330 C1331 1.434 . S
C1331 C1322 1.429 . S
C1331 N1328 1.350 . S
C1331 C1330 1.434 . S
C1332 C1333 1.369 . S
C1332 C1334 1.419 . S
C1332 H1336 0.930 . S
C1333 C1332 1.369 . S
C1333 C1342 1.429 . S
C1334 C1332 1.419 . S
C1334 C1335 1.363 . S
C1334 H1337 0.929 . S
C1335 C1334 1.363 . S
C1335 C1341 1.428 . S
H1336 C1332 0.930 . S
H1337 C1334 0.929 . S
S1338 N1339 1.613 . S
S1338 N1340 1.610 . S
N1339 S1338 1.613 . S
N1339 C1342 1.350 . S
N1340 S1338 1.610 . S
N1340 C1341 1.351 . S
C1341 C1335 1.428 . S
C1341 N1340 1.351 . S
C1341 C1342 1.434 . S
C1342 C1333 1.429 . S
C1342 N1339 1.350 . S
C1342 C1341 1.434 . S
C1343 C1344 1.369 . S
C1343 C1345 1.419 . S
C1343 H1347 0.930 . S
C1344 C1343 1.369 . S
C1344 C1353 1.429 . S
C1345 C1343 1.419 . S
C1345 C1346 1.363 . S
C1345 H1348 0.929 . S
C1346 C1345 1.363 . S
C1346 C1352 1.428 . S
H1347 C1343 0.930 . S
H1348 C1345 0.929 . S
S1349 N1350 1.613 . S
S1349 N1351 1.610 . S
N1350 S1349 1.613 . S
N1350 C1353 1.350 . S
N1351 S1349 1.610 . S
N1351 C1352 1.351 . S
C1352 C1346 1.428 . S
C1352 N1351 1.351 . S
C1352 C1353 1.434 . S
C1353 C1344 1.429 . S
C1353 N1350 1.350 . S
C1353 C1352 1.434 . S
C1354 C1355 1.369 . S
C1354 C1356 1.419 . S
C1354 H1358 0.930 . S
C1355 C1354 1.369 . S
C1355 C1364 1.429 . S
C1356 C1354 1.419 . S
C1356 C1357 1.363 . S
C1356 H1359 0.929 . S
C1357 C1356 1.363 . S
C1357 C1363 1.428 . S
H1358 C1354 0.930 . S
H1359 C1356 0.929 . S
S1360 N1361 1.613 . S
S1360 N1362 1.610 . S
N1361 S1360 1.613 . S
N1361 C1364 1.350 . S
N1362 S1360 1.610 . S
N1362 C1363 1.351 . S
C1363 C1357 1.428 . S
C1363 N1362 1.351 . S
C1363 C1364 1.434 . S
C1364 C1355 1.429 . S
C1364 N1361 1.350 . S
C1364 C1363 1.434 . S
C1365 C1366 1.369 . S
C1365 C1367 1.419 . S
C1365 H1369 0.930 . S
C1366 C1365 1.369 . S
C1366 C1375 1.429 . S
C1367 C1365 1.419 . S
C1367 C1368 1.363 . S
C1367 H1370 0.929 . S
C1368 C1367 1.363 . S
C1368 C1374 1.428 . S
H1369 C1365 0.930 . S
H1370 C1367 0.929 . S
S1371 N1372 1.613 . S
S1371 N1373 1.610 . S
N1372 S1371 1.613 . S
N1372 C1375 1.350 . S
N1373 S1371 1.610 . S
N1373 C1374 1.351 . S
C1374 C1368 1.428 . S
C1374 N1373 1.351 . S
C1374 C1375 1.434 . S
C1375 C1366 1.429 . S
C1375 N1372 1.350 . S
C1375 C1374 1.434 . S
C1376 C1377 1.369 . S
C1376 C1378 1.419 . S
C1376 H1380 0.930 . S
C1377 C1376 1.369 . S
C1377 C1386 1.429 . S
C1378 C1376 1.419 . S
C1378 C1379 1.363 . S
C1378 H1381 0.929 . S
C1379 C1378 1.363 . S
C1379 C1385 1.428 . S
H1380 C1376 0.930 . S
H1381 C1378 0.929 . S
S1382 N1383 1.613 . S
S1382 N1384 1.610 . S
N1383 S1382 1.613 . S
N1383 C1386 1.350 . S
N1384 S1382 1.610 . S
N1384 C1385 1.351 . S
C1385 C1379 1.428 . S
C1385 N1384 1.351 . S
C1385 C1386 1.434 . S
C1386 C1377 1.429 . S
C1386 N1383 1.350 . S
C1386 C1385 1.434 . S
C1387 C1388 1.369 . S
C1387 C1389 1.419 . S
C1387 H1391 0.930 . S
C1388 C1387 1.369 . S
C1388 C1397 1.429 . S
C1389 C1387 1.419 . S
C1389 C1390 1.363 . S
C1389 H1392 0.929 . S
C1390 C1389 1.363 . S
C1390 C1396 1.428 . S
H1391 C1387 0.930 . S
H1392 C1389 0.929 . S
S1393 N1394 1.613 . S
S1393 N1395 1.610 . S
N1394 S1393 1.613 . S
N1394 C1397 1.350 . S
N1395 S1393 1.610 . S
N1395 C1396 1.351 . S
C1396 C1390 1.428 . S
C1396 N1395 1.351 . S
C1396 C1397 1.434 . S
C1397 C1388 1.429 . S
C1397 N1394 1.350 . S
C1397 C1396 1.434 . S
C1398 C1399 1.369 . S
C1398 C1400 1.419 . S
C1398 H1402 0.930 . S
C1399 C1398 1.369 . S
C1399 C1408 1.429 . S
C1400 C1398 1.419 . S
C1400 C1401 1.363 . S
C1400 H1403 0.929 . S
C1401 C1400 1.363 . S
C1401 C1407 1.428 . S
H1402 C1398 0.930 . S
H1403 C1400 0.929 . S
S1404 N1405 1.613 . S
S1404 N1406 1.610 . S
N1405 S1404 1.613 . S
N1405 C1408 1.350 . S
N1406 S1404 1.610 . S
N1406 C1407 1.351 . S
C1407 C1401 1.428 . S
C1407 N1406 1.351 . S
C1407 C1408 1.434 . S
C1408 C1399 1.429 . S
C1408 N1405 1.350 . S
C1408 C1407 1.434 . S
C1409 C1410 1.369 . S
C1409 C1411 1.419 . S
C1409 H1413 0.930 . S
C1410 C1409 1.369 . S
C1410 C1419 1.429 . S
C1411 C1409 1.419 . S
C1411 C1412 1.363 . S
C1411 H1414 0.929 . S
C1412 C1411 1.363 . S
C1412 C1418 1.428 . S
H1413 C1409 0.930 . S
H1414 C1411 0.929 . S
S1415 N1416 1.613 . S
S1415 N1417 1.610 . S
N1416 S1415 1.613 . S
N1416 C1419 1.350 . S
N1417 S1415 1.610 . S
N1417 C1418 1.351 . S
C1418 C1412 1.428 . S
C1418 N1417 1.351 . S
C1418 C1419 1.434 . S
C1419 C1410 1.429 . S
C1419 N1416 1.350 . S
C1419 C1418 1.434 . S
C1420 C1421 1.369 . S
C1420 C1422 1.419 . S
C1420 H1424 0.930 . S
C1421 C1420 1.369 . S
C1421 C1430 1.429 . S
C1422 C1420 1.419 . S
C1422 C1423 1.363 . S
C1422 H1425 0.929 . S
C1423 C1422 1.363 . S
C1423 C1429 1.428 . S
H1424 C1420 0.930 . S
H1425 C1422 0.929 . S
S1426 N1427 1.613 . S
S1426 N1428 1.610 . S
N1427 S1426 1.613 . S
N1427 C1430 1.350 . S
N1428 S1426 1.610 . S
N1428 C1429 1.351 . S
C1429 C1423 1.428 . S
C1429 N1428 1.351 . S
C1429 C1430 1.434 . S
C1430 C1421 1.429 . S
C1430 N1427 1.350 . S
C1430 C1429 1.434 . S
C1431 C1432 1.369 . S
C1431 C1433 1.419 . S
C1431 H1435 0.930 . S
C1432 C1431 1.369 . S
C1432 C1441 1.429 . S
C1433 C1431 1.419 . S
C1433 C1434 1.363 . S
C1433 H1436 0.929 . S
C1434 C1433 1.363 . S
C1434 C1440 1.428 . S
H1435 C1431 0.930 . S
H1436 C1433 0.929 . S
S1437 N1438 1.613 . S
S1437 N1439 1.610 . S
N1438 S1437 1.613 . S
N1438 C1441 1.350 . S
N1439 S1437 1.610 . S
N1439 C1440 1.351 . S
C1440 C1434 1.428 . S
C1440 N1439 1.351 . S
C1440 C1441 1.434 . S
C1441 C1432 1.429 . S
C1441 N1438 1.350 . S
C1441 C1440 1.434 . S
C1442 C1443 1.369 . S
C1442 C1444 1.419 . S
C1442 H1446 0.930 . S
C1443 C1442 1.369 . S
C1443 C1452 1.429 . S
C1444 C1442 1.419 . S
C1444 C1445 1.363 . S
C1444 H1447 0.929 . S
C1445 C1444 1.363 . S
C1445 C1451 1.428 . S
H1446 C1442 0.930 . S
H1447 C1444 0.929 . S
S1448 N1449 1.613 . S
S1448 N1450 1.610 . S
N1449 S1448 1.613 . S
N1449 C1452 1.350 . S
N1450 S1448 1.610 . S
N1450 C1451 1.351 . S
C1451 C1445 1.428 . S
C1451 N1450 1.351 . S
C1451 C1452 1.434 . S
C1452 C1443 1.429 . S
C1452 N1449 1.350 . S
C1452 C1451 1.434 . S
C1453 C1454 1.369 . S
C1453 C1455 1.419 . S
C1453 H1457 0.930 . S
C1454 C1453 1.369 . S
C1454 C1463 1.429 . S
C1455 C1453 1.419 . S
C1455 C1456 1.363 . S
C1455 H1458 0.929 . S
C1456 C1455 1.363 . S
C1456 C1462 1.428 . S
H1457 C1453 0.930 . S
H1458 C1455 0.929 . S
S1459 N1460 1.613 . S
S1459 N1461 1.610 . S
N1460 S1459 1.613 . S
N1460 C1463 1.350 . S
N1461 S1459 1.610 . S
N1461 C1462 1.351 . S
C1462 C1456 1.428 . S
C1462 N1461 1.351 . S
C1462 C1463 1.434 . S
C1463 C1454 1.429 . S
C1463 N1460 1.350 . S
C1463 C1462 1.434 . S
C1464 C1465 1.369 . S
C1464 C1466 1.419 . S
C1464 H1468 0.930 . S
C1465 C1464 1.369 . S
C1465 C1474 1.429 . S
C1466 C1464 1.419 . S
C1466 C1467 1.363 . S
C1466 H1469 0.929 . S
C1467 C1466 1.363 . S
C1467 C1473 1.428 . S
H1468 C1464 0.930 . S
H1469 C1466 0.929 . S
S1470 N1471 1.613 . S
S1470 N1472 1.610 . S
N1471 S1470 1.613 . S
N1471 C1474 1.350 . S
N1472 S1470 1.610 . S
N1472 C1473 1.351 . S
C1473 C1467 1.428 . S
C1473 N1472 1.351 . S
C1473 C1474 1.434 . S
C1474 C1465 1.429 . S
C1474 N1471 1.350 . S
C1474 C1473 1.434 . S
C1475 C1476 1.369 . S
C1475 C1477 1.419 . S
C1475 H1479 0.930 . S
C1476 C1475 1.369 . S
C1476 C1485 1.429 . S
C1477 C1475 1.419 . S
C1477 C1478 1.363 . S
C1477 H1480 0.929 . S
C1478 C1477 1.363 . S
C1478 C1484 1.428 . S
H1479 C1475 0.930 . S
H1480 C1477 0.929 . S
S1481 N1482 1.613 . S
S1481 N1483 1.610 . S
N1482 S1481 1.613 . S
N1482 C1485 1.350 . S
N1483 S1481 1.610 . S
N1483 C1484 1.351 . S
C1484 C1478 1.428 . S
C1484 N1483 1.351 . S
C1484 C1485 1.434 . S
C1485 C1476 1.429 . S
C1485 N1482 1.350 . S
C1485 C1484 1.434 . S
C1486 C1487 1.369 . S
C1486 C1488 1.419 . S
C1486 H1490 0.930 . S
C1487 C1486 1.369 . S
C1487 C1496 1.429 . S
C1488 C1486 1.419 . S
C1488 C1489 1.363 . S
C1488 H1491 0.929 . S
C1489 C1488 1.363 . S
C1489 C1495 1.428 . S
H1490 C1486 0.930 . S
H1491 C1488 0.929 . S
S1492 N1493 1.613 . S
S1492 N1494 1.610 . S
N1493 S1492 1.613 . S
N1493 C1496 1.350 . S
N1494 S1492 1.610 . S
N1494 C1495 1.351 . S
C1495 C1489 1.428 . S
C1495 N1494 1.351 . S
C1495 C1496 1.434 . S
C1496 C1487 1.429 . S
C1496 N1493 1.350 . S
C1496 C1495 1.434 . S
C1497 C1498 1.369 . S
C1497 C1499 1.419 . S
C1497 H1501 0.930 . S
C1498 C1497 1.369 . S
C1498 C1507 1.429 . S
C1499 C1497 1.419 . S
C1499 C1500 1.363 . S
C1499 H1502 0.929 . S
C1500 C1499 1.363 . S
C1500 C1506 1.428 . S
H1501 C1497 0.930 . S
H1502 C1499 0.929 . S
S1503 N1504 1.613 . S
S1503 N1505 1.610 . S
N1504 S1503 1.613 . S
N1504 C1507 1.350 . S
N1505 S1503 1.610 . S
N1505 C1506 1.351 . S
C1506 C1500 1.428 . S
C1506 N1505 1.351 . S
C1506 C1507 1.434 . S
C1507 C1498 1.429 . S
C1507 N1504 1.350 . S
C1507 C1506 1.434 . S
C1508 C1509 1.369 . S
C1508 C1510 1.419 . S
C1508 H1512 0.930 . S
C1509 C1508 1.369 . S
C1509 C1518 1.429 . S
C1510 C1508 1.419 . S
C1510 C1511 1.363 . S
C1510 H1513 0.929 . S
C1511 C1510 1.363 . S
C1511 C1517 1.428 . S
H1512 C1508 0.930 . S
H1513 C1510 0.929 . S
S1514 N1515 1.613 . S
S1514 N1516 1.610 . S
N1515 S1514 1.613 . S
N1515 C1518 1.350 . S
N1516 S1514 1.610 . S
N1516 C1517 1.351 . S
C1517 C1511 1.428 . S
C1517 N1516 1.351 . S
C1517 C1518 1.434 . S
C1518 C1509 1.429 . S
C1518 N1515 1.350 . S
C1518 C1517 1.434 . S
C1519 C1520 1.369 . S
C1519 C1521 1.419 . S
C1519 H1523 0.930 . S
C1520 C1519 1.369 . S
C1520 C1529 1.429 . S
C1521 C1519 1.419 . S
C1521 C1522 1.363 . S
C1521 H1524 0.929 . S
C1522 C1521 1.363 . S
C1522 C1528 1.428 . S
H1523 C1519 0.930 . S
H1524 C1521 0.929 . S
S1525 N1526 1.613 . S
S1525 N1527 1.610 . S
N1526 S1525 1.613 . S
N1526 C1529 1.350 . S
N1527 S1525 1.610 . S
N1527 C1528 1.351 . S
C1528 C1522 1.428 . S
C1528 N1527 1.351 . S
C1528 C1529 1.434 . S
C1529 C1520 1.429 . S
C1529 N1526 1.350 . S
C1529 C1528 1.434 . S
C1530 C1531 1.369 . S
C1530 C1532 1.419 . S
C1530 H1534 0.930 . S
C1531 C1530 1.369 . S
C1531 C1540 1.429 . S
C1532 C1530 1.419 . S
C1532 C1533 1.363 . S
C1532 H1535 0.929 . S
C1533 C1532 1.363 . S
C1533 C1539 1.428 . S
H1534 C1530 0.930 . S
H1535 C1532 0.929 . S
S1536 N1537 1.613 . S
S1536 N1538 1.610 . S
N1537 S1536 1.613 . S
N1537 C1540 1.350 . S
N1538 S1536 1.610 . S
N1538 C1539 1.351 . S
C1539 C1533 1.428 . S
C1539 N1538 1.351 . S
C1539 C1540 1.434 . S
C1540 C1531 1.429 . S
C1540 N1537 1.350 . S
C1540 C1539 1.434 . S
C1541 C1542 1.369 . S
C1541 C1543 1.419 . S
C1541 H1545 0.930 . S
C1542 C1541 1.369 . S
C1542 C1551 1.429 . S
C1543 C1541 1.419 . S
C1543 C1544 1.363 . S
C1543 H1546 0.929 . S
C1544 C1543 1.363 . S
C1544 C1550 1.428 . S
H1545 C1541 0.930 . S
H1546 C1543 0.929 . S
S1547 N1548 1.613 . S
S1547 N1549 1.610 . S
N1548 S1547 1.613 . S
N1548 C1551 1.350 . S
N1549 S1547 1.610 . S
N1549 C1550 1.351 . S
C1550 C1544 1.428 . S
C1550 N1549 1.351 . S
C1550 C1551 1.434 . S
C1551 C1542 1.429 . S
C1551 N1548 1.350 . S
C1551 C1550 1.434 . S
C1552 C1553 1.369 . S
C1552 C1554 1.419 . S
C1552 H1556 0.930 . S
C1553 C1552 1.369 . S
C1553 C1562 1.429 . S
C1554 C1552 1.419 . S
C1554 C1555 1.363 . S
C1554 H1557 0.929 . S
C1555 C1554 1.363 . S
C1555 C1561 1.428 . S
H1556 C1552 0.930 . S
H1557 C1554 0.929 . S
S1558 N1559 1.613 . S
S1558 N1560 1.610 . S
N1559 S1558 1.613 . S
N1559 C1562 1.350 . S
N1560 S1558 1.610 . S
N1560 C1561 1.351 . S
C1561 C1555 1.428 . S
C1561 N1560 1.351 . S
C1561 C1562 1.434 . S
C1562 C1553 1.429 . S
C1562 N1559 1.350 . S
C1562 C1561 1.434 . S
C1563 C1564 1.369 . S
C1563 C1565 1.419 . S
C1563 H1567 0.930 . S
C1564 C1563 1.369 . S
C1564 C1573 1.429 . S
C1565 C1563 1.419 . S
C1565 C1566 1.363 . S
C1565 H1568 0.929 . S
C1566 C1565 1.363 . S
C1566 C1572 1.428 . S
H1567 C1563 0.930 . S
H1568 C1565 0.929 . S
S1569 N1570 1.613 . S
S1569 N1571 1.610 . S
N1570 S1569 1.613 . S
N1570 C1573 1.350 . S
N1571 S1569 1.610 . S
N1571 C1572 1.351 . S
C1572 C1566 1.428 . S
C1572 N1571 1.351 . S
C1572 C1573 1.434 . S
C1573 C1564 1.429 . S
C1573 N1570 1.350 . S
C1573 C1572 1.434 . S
C1574 C1575 1.369 . S
C1574 C1576 1.419 . S
C1574 H1578 0.930 . S
C1575 C1574 1.369 . S
C1575 C1584 1.429 . S
C1576 C1574 1.419 . S
C1576 C1577 1.363 . S
C1576 H1579 0.929 . S
C1577 C1576 1.363 . S
C1577 C1583 1.428 . S
H1578 C1574 0.930 . S
H1579 C1576 0.929 . S
S1580 N1581 1.613 . S
S1580 N1582 1.610 . S
N1581 S1580 1.613 . S
N1581 C1584 1.350 . S
N1582 S1580 1.610 . S
N1582 C1583 1.351 . S
C1583 C1577 1.428 . S
C1583 N1582 1.351 . S
C1583 C1584 1.434 . S
C1584 C1575 1.429 . S
C1584 N1581 1.350 . S
C1584 C1583 1.434 . S
C1585 C1586 1.369 . S
C1585 C1587 1.419 . S
C1585 H1589 0.930 . S
C1586 C1585 1.369 . S
C1586 C1595 1.429 . S
C1587 C1585 1.419 . S
C1587 C1588 1.363 . S
C1587 H1590 0.929 . S
C1588 C1587 1.363 . S
C1588 C1594 1.428 . S
H1589 C1585 0.930 . S
H1590 C1587 0.929 . S
S1591 N1592 1.613 . S
S1591 N1593 1.610 . S
N1592 S1591 1.613 . S
N1592 C1595 1.350 . S
N1593 S1591 1.610 . S
N1593 C1594 1.351 . S
C1594 C1588 1.428 . S
C1594 N1593 1.351 . S
C1594 C1595 1.434 . S
C1595 C1586 1.429 . S
C1595 N1592 1.350 . S
C1595 C1594 1.434 . S
C1596 C1597 1.369 . S
C1596 C1598 1.419 . S
C1596 H1600 0.930 . S
C1597 C1596 1.369 . S
C1597 C1606 1.429 . S
C1598 C1596 1.419 . S
C1598 C1599 1.363 . S
C1598 H1601 0.929 . S
C1599 C1598 1.363 . S
C1599 C1605 1.428 . S
H1600 C1596 0.930 . S
H1601 C1598 0.929 . S
S1602 N1603 1.613 . S
S1602 N1604 1.610 . S
N1603 S1602 1.613 . S
N1603 C1606 1.350 . S
N1604 S1602 1.610 . S
N1604 C1605 1.351 . S
C1605 C1599 1.428 . S
C1605 N1604 1.351 . S
C1605 C1606 1.434 . S
C1606 C1597 1.429 . S
C1606 N1603 1.350 . S
C1606 C1605 1.434 . S
C1607 C1608 1.369 . S
C1607 C1609 1.419 . S
C1607 H1611 0.930 . S
C1608 C1607 1.369 . S
C1608 C1617 1.429 . S
C1609 C1607 1.419 . S
C1609 C1610 1.363 . S
C1609 H1612 0.929 . S
C1610 C1609 1.363 . S
C1610 C1616 1.428 . S
H1611 C1607 0.930 . S
H1612 C1609 0.929 . S
S1613 N1614 1.613 . S
S1613 N1615 1.610 . S
N1614 S1613 1.613 . S
N1614 C1617 1.350 . S
N1615 S1613 1.610 . S
N1615 C1616 1.351 . S
C1616 C1610 1.428 . S
C1616 N1615 1.351 . S
C1616 C1617 1.434 . S
C1617 C1608 1.429 . S
C1617 N1614 1.350 . S
C1617 C1616 1.434 . S
C1618 C1619 1.369 . S
C1618 C1620 1.419 . S
C1618 H1622 0.930 . S
C1619 C1618 1.369 . S
C1619 C1628 1.429 . S
C1620 C1618 1.419 . S
C1620 C1621 1.363 . S
C1620 H1623 0.929 . S
C1621 C1620 1.363 . S
C1621 C1627 1.428 . S
H1622 C1618 0.930 . S
H1623 C1620 0.929 . S
S1624 N1625 1.613 . S
S1624 N1626 1.610 . S
N1625 S1624 1.613 . S
N1625 C1628 1.350 . S
N1626 S1624 1.610 . S
N1626 C1627 1.351 . S
C1627 C1621 1.428 . S
C1627 N1626 1.351 . S
C1627 C1628 1.434 . S
C1628 C1619 1.429 . S
C1628 N1625 1.350 . S
C1628 C1627 1.434 . S
C1629 C1630 1.369 . S
C1629 C1631 1.419 . S
C1629 H1633 0.930 . S
C1630 C1629 1.369 . S
C1630 C1639 1.429 . S
C1631 C1629 1.419 . S
C1631 C1632 1.363 . S
C1631 H1634 0.929 . S
C1632 C1631 1.363 . S
C1632 C1638 1.428 . S
H1633 C1629 0.930 . S
H1634 C1631 0.929 . S
S1635 N1636 1.613 . S
S1635 N1637 1.610 . S
N1636 S1635 1.613 . S
N1636 C1639 1.350 . S
N1637 S1635 1.610 . S
N1637 C1638 1.351 . S
C1638 C1632 1.428 . S
C1638 N1637 1.351 . S
C1638 C1639 1.434 . S
C1639 C1630 1.429 . S
C1639 N1636 1.350 . S
C1639 C1638 1.434 . S
C1640 C1641 1.369 . S
C1640 C1642 1.419 . S
C1640 H1644 0.930 . S
C1641 C1640 1.369 . S
C1641 C1650 1.429 . S
C1642 C1640 1.419 . S
C1642 C1643 1.363 . S
C1642 H1645 0.929 . S
C1643 C1642 1.363 . S
C1643 C1649 1.428 . S
H1644 C1640 0.930 . S
H1645 C1642 0.929 . S
S1646 N1647 1.613 . S
S1646 N1648 1.610 . S
N1647 S1646 1.613 . S
N1647 C1650 1.350 . S
N1648 S1646 1.610 . S
N1648 C1649 1.351 . S
C1649 C1643 1.428 . S
C1649 N1648 1.351 . S
C1649 C1650 1.434 . S
C1650 C1641 1.429 . S
C1650 N1647 1.350 . S
C1650 C1649 1.434 . S
C1651 C1652 1.369 . S
C1651 C1653 1.419 . S
C1651 H1655 0.930 . S
C1652 C1651 1.369 . S
C1652 C1661 1.429 . S
C1653 C1651 1.419 . S
C1653 C1654 1.363 . S
C1653 H1656 0.929 . S
C1654 C1653 1.363 . S
C1654 C1660 1.428 . S
H1655 C1651 0.930 . S
H1656 C1653 0.929 . S
S1657 N1658 1.613 . S
S1657 N1659 1.610 . S
N1658 S1657 1.613 . S
N1658 C1661 1.350 . S
N1659 S1657 1.610 . S
N1659 C1660 1.351 . S
C1660 C1654 1.428 . S
C1660 N1659 1.351 . S
C1660 C1661 1.434 . S
C1661 C1652 1.429 . S
C1661 N1658 1.350 . S
C1661 C1660 1.434 . S
C1662 C1663 1.369 . S
C1662 C1664 1.419 . S
C1662 H1666 0.930 . S
C1663 C1662 1.369 . S
C1663 C1672 1.429 . S
C1664 C1662 1.419 . S
C1664 C1665 1.363 . S
C1664 H1667 0.929 . S
C1665 C1664 1.363 . S
C1665 C1671 1.428 . S
H1666 C1662 0.930 . S
H1667 C1664 0.929 . S
S1668 N1669 1.613 . S
S1668 N1670 1.610 . S
N1669 S1668 1.613 . S
N1669 C1672 1.350 . S
N1670 S1668 1.610 . S
N1670 C1671 1.351 . S
C1671 C1665 1.428 . S
C1671 N1670 1.351 . S
C1671 C1672 1.434 . S
C1672 C1663 1.429 . S
C1672 N1669 1.350 . S
C1672 C1671 1.434 . S
C1673 C1674 1.369 . S
C1673 C1675 1.419 . S
C1673 H1677 0.930 . S
C1674 C1673 1.369 . S
C1674 C1683 1.429 . S
C1675 C1673 1.419 . S
C1675 C1676 1.363 . S
C1675 H1678 0.929 . S
C1676 C1675 1.363 . S
C1676 C1682 1.428 . S
H1677 C1673 0.930 . S
H1678 C1675 0.929 . S
S1679 N1680 1.613 . S
S1679 N1681 1.610 . S
N1680 S1679 1.613 . S
N1680 C1683 1.350 . S
N1681 S1679 1.610 . S
N1681 C1682 1.351 . S
C1682 C1676 1.428 . S
C1682 N1681 1.351 . S
C1682 C1683 1.434 . S
C1683 C1674 1.429 . S
C1683 N1680 1.350 . S
C1683 C1682 1.434 . S
C1684 C1685 1.369 . S
C1684 C1686 1.419 . S
C1684 H1688 0.930 . S
C1685 C1684 1.369 . S
C1685 C1694 1.429 . S
C1686 C1684 1.419 . S
C1686 C1687 1.363 . S
C1686 H1689 0.929 . S
C1687 C1686 1.363 . S
C1687 C1693 1.428 . S
H1688 C1684 0.930 . S
H1689 C1686 0.929 . S
S1690 N1691 1.613 . S
S1690 N1692 1.610 . S
N1691 S1690 1.613 . S
N1691 C1694 1.350 . S
N1692 S1690 1.610 . S
N1692 C1693 1.351 . S
C1693 C1687 1.428 . S
C1693 N1692 1.351 . S
C1693 C1694 1.434 . S
C1694 C1685 1.429 . S
C1694 N1691 1.350 . S
C1694 C1693 1.434 . S
C1695 C1696 1.369 . S
C1695 C1697 1.419 . S
C1695 H1699 0.930 . S
C1696 C1695 1.369 . S
C1696 C1705 1.429 . S
C1697 C1695 1.419 . S
C1697 C1698 1.363 . S
C1697 H1700 0.929 . S
C1698 C1697 1.363 . S
C1698 C1704 1.428 . S
H1699 C1695 0.930 . S
H1700 C1697 0.929 . S
S1701 N1702 1.613 . S
S1701 N1703 1.610 . S
N1702 S1701 1.613 . S
N1702 C1705 1.350 . S
N1703 S1701 1.610 . S
N1703 C1704 1.351 . S
C1704 C1698 1.428 . S
C1704 N1703 1.351 . S
C1704 C1705 1.434 . S
C1705 C1696 1.429 . S
C1705 N1702 1.350 . S
C1705 C1704 1.434 . S
C1706 C1707 1.369 . S
C1706 C1708 1.419 . S
C1706 H1710 0.930 . S
C1707 C1706 1.369 . S
C1707 C1716 1.429 . S
C1708 C1706 1.419 . S
C1708 C1709 1.363 . S
C1708 H1711 0.929 . S
C1709 C1708 1.363 . S
C1709 C1715 1.428 . S
H1710 C1706 0.930 . S
H1711 C1708 0.929 . S
S1712 N1713 1.613 . S
S1712 N1714 1.610 . S
N1713 S1712 1.613 . S
N1713 C1716 1.350 . S
N1714 S1712 1.610 . S
N1714 C1715 1.351 . S
C1715 C1709 1.428 . S
C1715 N1714 1.351 . S
C1715 C1716 1.434 . S
C1716 C1707 1.429 . S
C1716 N1713 1.350 . S
C1716 C1715 1.434 . S
C1717 C1718 1.369 . S
C1717 C1719 1.419 . S
C1717 H1721 0.930 . S
C1718 C1717 1.369 . S
C1718 C1727 1.429 . S
C1719 C1717 1.419 . S
C1719 C1720 1.363 . S
C1719 H1722 0.929 . S
C1720 C1719 1.363 . S
C1720 C1726 1.428 . S
H1721 C1717 0.930 . S
H1722 C1719 0.929 . S
S1723 N1724 1.613 . S
S1723 N1725 1.610 . S
N1724 S1723 1.613 . S
N1724 C1727 1.350 . S
N1725 S1723 1.610 . S
N1725 C1726 1.351 . S
C1726 C1720 1.428 . S
C1726 N1725 1.351 . S
C1726 C1727 1.434 . S
C1727 C1718 1.429 . S
C1727 N1724 1.350 . S
C1727 C1726 1.434 . S
C673 C398 1.201 . S
C675 C6 1.200 . S
C684 C20 1.193 . S
C686 C412 1.194 . S
C695 C426 1.200 . S
C697 C34 1.199 . S
C706 C48 1.194 . S
C708 C440 1.194 . S
C717 C342 1.196 . S
C719 C62 1.196 . S
C728 C76 1.201 . S
C730 C356 1.200 . S
C739 C370 1.193 . S
C741 C90 1.194 . S
C750 C104 1.200 . S
C752 C384 1.199 . S
C761 C538 1.195 . S
C763 C118 1.196 . S
C772 C552 1.201 . S
C774 C132 1.200 . S
C783 C510 1.201 . S
C785 C146 1.200 . S
C794 C160 1.198 . S
C796 C524 1.197 . S
C805 C482 1.194 . S
C807 C174 1.194 . S
C816 C496 1.199 . S
C818 C188 1.198 . S
C827 C202 1.194 . S
C829 C454 1.195 . S
C838 C468 1.193 . S
C840 C216 1.194 . S
C849 C230 1.200 . S
C851 C636 1.200 . S
C860 C608 1.200 . S
C862 C244 1.199 . S
C871 C622 1.201 . S
C873 C258 1.200 . S
C882 C580 1.194 . S
C884 C272 1.195 . S
C893 C594 1.195 . S
C895 C286 1.195 . S
C904 C300 1.195 . S
C906 C566 1.195 . S
C915 C314 1.195 . S
C917 C664 1.196 . S
C926 C650 1.197 . S
C928 C328 1.197 . S
C937 C105 1.637 . S
C939 C7 1.645 . S
C948 C63 1.648 . S
C950 C21 1.641 . S
C959 C77 1.643 . S
C961 C35 1.638 . S
C970 C91 1.650 . S
C972 C49 1.643 . S
C981 C287 1.641 . S
C983 C119 1.639 . S
C992 C245 1.645 . S
C994 C133 1.649 . S
C1003 C259 1.644 . S
C1005 C147 1.649 . S
C1014 C273 1.649 . S
C1016 C161 1.647 . S
C1025 C329 1.638 . S
C1027 C175 1.640 . S
C1036 C301 1.645 . S
C1038 C189 1.639 . S
C1047 C203 1.640 . S
C1049 C315 1.647 . S
C1058 C231 1.649 . S
C1060 C217 1.647 . S
C1069 C441 1.648 . S
C1071 C343 1.640 . S
C1080 C399 1.639 . S
C1082 C357 1.639 . S
C1091 C371 1.645 . S
C1093 C413 1.638 . S
C1102 C385 1.650 . S
C1104 C427 1.645 . S
C1113 C455 1.640 . S
C1115 C623 1.648 . S
C1124 C469 1.646 . S
C1126 C581 1.639 . S
C1135 C595 1.650 . S
C1137 C483 1.644 . S
C1146 C609 1.646 . S
C1148 C497 1.648 . S
C1157 C665 1.650 . S
C1159 C511 1.643 . S
C1168 C637 1.643 . S
C1170 C525 1.638 . S
C1179 C651 1.641 . S
C1181 C539 1.639 . S
C1190 C553 1.648 . S
C1192 C567 1.648 . S
C1201 C8 1.434 . S
C1203 C121 1.395 . S
C1212 C135 1.400 . S
C1214 C22 1.433 . S
C1223 C149 1.398 . S
C1225 C36 1.433 . S
C1234 C163 1.403 . S
C1236 C50 1.434 . S
C1245 C64 1.437 . S
C1247 C177 1.397 . S
C1256 C191 1.396 . S
C1258 C78 1.436 . S
C1267 C92 1.436 . S
C1269 C205 1.396 . S
C1278 C219 1.396 . S
C1280 C106 1.436 . S
C1289 C233 1.397 . S
C1291 C120 1.437 . S
C1300 C331 1.403 . S
C1302 C134 1.437 . S
C1311 C148 1.438 . S
C1313 C303 1.399 . S
C1322 C162 1.434 . S
C1324 C317 1.395 . S
C1333 C176 1.432 . S
C1335 C247 1.397 . S
C1344 C190 1.438 . S
C1346 C261 1.401 . S
C1355 C204 1.435 . S
C1357 C275 1.396 . S
C1366 C218 1.434 . S
C1368 C289 1.395 . S
C1377 C232 1.433 . S
C1379 C9 1.396 . S
C1388 C246 1.438 . S
C1390 C65 1.401 . S
C1399 C260 1.438 . S
C1401 C79 1.401 . S
C1410 C274 1.437 . S
C1412 C93 1.403 . S
C1421 C288 1.433 . S
C1423 C107 1.400 . S
C1432 C302 1.433 . S
C1434 C37 1.396 . S
C1443 C51 1.403 . S
C1445 C316 1.435 . S
C1454 C23 1.403 . S
C1456 C330 1.435 . S
C1465 C457 1.404 . S
C1467 C344 1.437 . S
C1476 C471 1.398 . S
C1478 C358 1.433 . S
C1487 C485 1.398 . S
C1489 C372 1.433 . S
C1498 C499 1.404 . S
C1500 C386 1.436 . S
C1509 C513 1.394 . S
C1511 C400 1.434 . S
C1520 C414 1.432 . S
C1522 C527 1.399 . S
C1531 C541 1.396 . S
C1533 C428 1.436 . S
C1542 C442 1.434 . S
C1544 C555 1.402 . S
C1553 C569 1.403 . S
C1555 C456 1.437 . S
C1564 C470 1.438 . S
C1566 C667 1.402 . S
C1575 C484 1.433 . S
C1577 C639 1.399 . S
C1586 C653 1.399 . S
C1588 C498 1.437 . S
C1597 C583 1.398 . S
C1599 C512 1.433 . S
C1608 C526 1.433 . S
C1610 C597 1.400 . S
C1619 C540 1.433 . S
C1621 C611 1.400 . S
C1630 C625 1.404 . S
C1632 C554 1.437 . S
C1641 C345 1.400 . S
C1643 C568 1.433 . S
C1652 C401 1.403 . S
C1654 C582 1.435 . S
C1663 C415 1.404 . S
C1665 C596 1.435 . S
C1674 C610 1.433 . S
C1676 C429 1.395 . S
C1685 C443 1.402 . S
C1687 C624 1.434 . S
C1696 C373 1.401 . S
C1698 C638 1.437 . S
C1707 C652 1.436 . S
C1709 C387 1.403 . S
C1718 C359 1.403 . S
C1720 C666 1.435 . S
