# Generated by pormake.
# Topology bcg, (8)-cn, num edge types: 1
# Building blocks:
#     Node 0, Type 0, BuildingBlock: NUHRAL_clean_sbu_3, # of connection points: 8
#     Node 1, Type 0, BuildingBlock: NUHRAL_clean_sbu_3, # of connection points: 8
#     Node 2, Type 0, BuildingBlock: NUHRAL_clean_sbu_3, # of connection points: 8
#     Node 3, Type 0, BuildingBlock: NUHRAL_clean_sbu_3, # of connection points: 8
#     Edge 4, Type (0, 0), BuildingBlock: UVAHIK_clean_linker_0, # of connection points: 2
#     Edge 5, Type (0, 0), BuildingBlock: UVAHIK_clean_linker_0, # of connection points: 2
#     Edge 6, Type (0, 0), BuildingBlock: UVAHIK_clean_linker_0, # of connection points: 2
#     Edge 7, Type (0, 0), BuildingBlock: UVAHIK_clean_linker_0, # of connection points: 2
#     Edge 8, Type (0, 0), BuildingBlock: UVAHIK_clean_linker_0, # of connection points: 2
#     Edge 9, Type (0, 0), BuildingBlock: UVAHIK_clean_linker_0, # of connection points: 2
#     Edge 10, Type (0, 0), BuildingBlock: UVAHIK_clean_linker_0, # of connection points: 2
#     Edge 11, Type (0, 0), BuildingBlock: UVAHIK_clean_linker_0, # of connection points: 2
#     Edge 12, Type (0, 0), BuildingBlock: UVAHIK_clean_linker_0, # of connection points: 2
#     Edge 13, Type (0, 0), BuildingBlock: UVAHIK_clean_linker_0, # of connection points: 2
#     Edge 14, Type (0, 0), BuildingBlock: UVAHIK_clean_linker_0, # of connection points: 2
#     Edge 15, Type (0, 0), BuildingBlock: UVAHIK_clean_linker_0, # of connection points: 2
#     Edge 16, Type (0, 0), BuildingBlock: UVAHIK_clean_linker_0, # of connection points: 2
#     Edge 17, Type (0, 0), BuildingBlock: UVAHIK_clean_linker_0, # of connection points: 2
#     Edge 18, Type (0, 0), BuildingBlock: UVAHIK_clean_linker_0, # of connection points: 2
#     Edge 19, Type (0, 0), BuildingBlock: UVAHIK_clean_linker_0, # of connection points: 2
# Relax obj value: 0.149
# Max RMSD: 0.213
# Mean RMSD: 0.213
data_MOF--net-bcg--node1-NUHRAL_clean_sbu_3--edge1-UVAHIK_clean_linker_0
_symmetry_space_group_name_H-M    P1
_symmetry_Int_Tables_number       1
_symmetry_cell_setting            triclinic
loop_
_symmetry_equiv_pos_as_xyz
'x, y, z'
_cell_length_a     26.860415
_cell_length_b     26.409935
_cell_length_c     40.588161
_cell_angle_alpha  81.218316
_cell_angle_beta   89.954949
_cell_angle_gamma 89.91362
loop_
_atom_site_label
_atom_site_type_symbol
_atom_site_fract_x
_atom_site_fract_y
_atom_site_fract_z
_atom_type_partial_charge
C0 C 0.10953 0.25975 0.03698 0.0
C1 C 0.06639 0.25019 0.01909 0.0
C2 C 0.0237 0.22949 0.03615 0.0
C3 C 0.02478 0.21797 0.07099 0.0
C4 C 0.06681 0.22836 0.08921 0.0
C5 C 0.10924 0.24911 0.07204 0.0
O6 O 0.2339 0.19643 0.97283 0.0
Tb7 Tb 0.2127 0.27535 0.97349 0.0
O8 O 0.17372 0.2752 0.92664 0.0
O9 O 0.24889 0.16645 0.02699 0.0
Eu10 Eu 0.31429 0.21997 0.02307 0.0
O11 O 0.14839 0.30908 0.98963 0.0
C12 C 0.37402 0.20791 0.97449 0.0
O13 O 0.19595 0.25895 0.02452 0.0
O14 O 0.29584 0.30306 0.02344 0.0
O15 O 0.27371 0.32953 0.96924 0.0
C16 C 0.15394 0.28468 0.02019 0.0
C17 C 0.37909 0.17921 0.08718 0.0
O18 O 0.37861 0.13602 0.07486 0.0
C19 C 0.2252 0.16245 -0.00076 0.0
C20 C 0.29809 0.33695 0.99619 0.0
O21 O 0.35525 0.21934 0.07156 0.0
C22 C 0.42008 0.22859 0.95766 0.0
C23 C 0.46452 0.25608 0.90551 0.0
C24 C 0.42102 0.23811 0.92256 0.0
C25 C 0.46365 0.23607 0.97571 0.0
C26 C 0.5073 0.25406 0.95873 0.0
C27 C 0.50698 0.2646 0.92387 0.0
C28 C 0.1521 0.31607 0.91015 0.0
O29 O 0.15496 0.35992 0.92158 0.0
O30 O 0.37809 0.18188 0.00471 0.0
O31 O 0.3344 0.23748 0.9705 0.0
H32 H 0.06547 0.25989 0.99217 0.0
H33 H 0.99105 0.2046 0.08423 0.0
H34 H 0.14161 0.25816 0.08597 0.0
H35 H 0.38816 0.23074 0.90854 0.0
H36 H 0.46395 0.22725 0.00267 0.0
H37 H 0.54137 0.27609 0.9108 0.0
C38 C 0.60561 0.78116 0.03602 0.0
C39 C 0.56122 0.76932 0.02015 0.0
C40 C 0.51902 0.75199 0.03927 0.0
C41 C 0.5217 0.7467 0.07414 0.0
C42 C 0.56492 0.75979 0.09018 0.0
C43 C 0.60683 0.77661 0.07097 0.0
O44 O 0.72135 0.70161 0.97617 0.0
Tb45 Tb 0.71088 0.78336 0.97391 0.0
O46 O 0.67597 0.7904 0.92522 0.0
O47 O 0.73687 0.67797 0.03128 0.0
Eu48 Eu 0.80528 0.72755 0.02578 0.0
O49 O 0.64482 0.81937 0.98511 0.0
C50 C 0.86578 0.70571 0.97992 0.0
O51 O 0.69249 0.77884 0.02451 0.0
O52 O 0.79545 0.81244 0.02353 0.0
O53 O 0.77468 0.8343 0.96871 0.0
C54 C 0.64997 0.80268 0.01717 0.0
C55 C 0.86375 0.68477 0.09219 0.0
O56 O 0.86027 0.64081 0.08098 0.0
C57 C 0.7134 0.67058 0.00406 0.0
C58 C 0.79833 0.84415 0.99537 0.0
O59 O 0.84374 0.7261 0.07515 0.0
C60 C 0.91201 0.72169 0.96133 0.0
C61 C 0.95472 0.73661 0.9076 0.0
C62 C 0.91155 0.72381 0.92649 0.0
C63 C 0.95686 0.73144 0.97743 0.0
C64 C 1.00029 0.74467 0.95856 0.0
C65 C 0.99844 0.74777 0.92379 0.0
C66 C 0.69364 0.76454 0.90257 0.0
O67 O 0.73474 0.7378 0.9089 0.0
O68 O 0.86961 0.68558 0.01152 0.0
O69 O 0.82642 0.73523 0.97336 0.0
H70 H 0.55911 0.77432 0.99319 0.0
H71 H 0.4886 0.73582 0.08883 0.0
H72 H 0.64019 0.78738 0.08324 0.0
H73 H 0.8777 0.71469 0.91409 0.0
H74 H 0.95818 0.72838 0.00435 0.0
H75 H 0.0323 0.75582 0.90936 0.0
C76 C 0.10554 0.7224 0.46229 0.0
C77 C 0.06338 0.73939 0.47825 0.0
C78 C 0.02204 0.75966 0.45933 0.0
C79 C 0.0236 0.76335 0.42449 0.0
C80 C 0.06465 0.7453 0.40837 0.0
C81 C 0.10573 0.72541 0.42743 0.0
O82 O 0.22792 0.79125 0.52201 0.0
Tb83 Tb 0.20804 0.71145 0.52617 0.0
O84 O 0.17145 0.71364 0.57366 0.0
O85 O 0.24239 0.81856 0.46782 0.0
Eu86 Eu 0.31103 0.7693 0.47462 0.0
O87 O 0.14155 0.67864 0.51268 0.0
C88 C 0.36946 0.78727 0.52245 0.0
O89 O 0.19171 0.71971 0.47512 0.0
O90 O 0.29507 0.68505 0.4769 0.0
O91 O 0.27071 0.65876 0.53097 0.0
C92 C 0.14829 0.69734 0.48107 0.0
C93 C 0.37558 0.80917 0.41059 0.0
O94 O 0.37248 0.85307 0.42193 0.0
C95 C 0.21566 0.82126 0.49453 0.0
C96 C 0.29734 0.6521 0.50466 0.0
O97 O 0.35338 0.76852 0.42682 0.0
C98 C 0.41684 0.76947 0.53887 0.0
C99 C 0.46221 0.74205 0.59061 0.0
C100 C 0.41793 0.7582 0.57392 0.0
C101 C 0.46115 0.76575 0.52057 0.0
C102 C 0.50564 0.74958 0.53724 0.0
C103 C 0.50542 0.73735 0.57204 0.0
C104 C 0.1504 0.67321 0.59105 0.0
O105 O 0.15297 0.62881 0.58028 0.0
O106 O 0.3718 0.8127 0.49198 0.0
O107 O 0.33154 0.75554 0.52722 0.0
H108 H 0.06205 0.73559 0.5052 0.0
H109 H 0.99078 0.77628 0.41005 0.0
H110 H 0.13741 0.71081 0.41519 0.0
H111 H 0.38446 0.7625 0.5882 0.0
H112 H 0.46123 0.77563 0.49365 0.0
H113 H 0.54015 0.72703 0.58499 0.0
C114 C 0.61144 0.21351 0.46108 0.0
C115 C 0.56775 0.22695 0.47718 0.0
C116 C 0.52537 0.24461 0.45832 0.0
C117 C 0.5272 0.24858 0.42347 0.0
C118 C 0.56968 0.23394 0.40721 0.0
C119 C 0.6118 0.21687 0.42616 0.0
O120 O 0.72659 0.28879 0.52385 0.0
Tb121 Tb 0.71692 0.20756 0.52358 0.0
O122 O 0.68234 0.19781 0.57253 0.0
O123 O 0.74028 0.31638 0.46917 0.0
Eu124 Eu 0.81069 0.26938 0.47332 0.0
O125 O 0.65061 0.17307 0.51149 0.0
C126 C 0.87091 0.29204 0.51901 0.0
O127 O 0.69836 0.21539 0.47284 0.0
O128 O 0.80631 0.18436 0.47305 0.0
O129 O 0.78066 0.15624 0.52669 0.0
C130 C 0.65584 0.19136 0.47966 0.0
C131 C 0.8314 0.25425 0.4001 0.0
O132 O 0.79108 0.22629 0.40627 0.0
C133 C 0.7166 0.32096 0.49684 0.0
C134 C 0.805 0.14901 0.49961 0.0
O135 O 0.84801 0.28006 0.42306 0.0
C136 C 0.91772 0.27761 0.53741 0.0
C137 C 0.96063 0.26358 0.59105 0.0
C138 C 0.91718 0.27522 0.57227 0.0
C139 C 0.96301 0.26945 0.52117 0.0
C140 C 1.00677 0.25739 0.53997 0.0
C141 C 1.0048 0.25401 0.57475 0.0
C142 C 0.70031 0.22229 0.59577 0.0
O143 O 0.74178 0.24844 0.58991 0.0
O144 O 0.87396 0.31273 0.48747 0.0
O145 O 0.83256 0.26118 0.52562 0.0
H146 H 0.56631 0.2229 0.50414 0.0
H147 H 0.4939 0.25968 0.40904 0.0
H148 H 0.64461 0.20494 0.41376 0.0
H149 H 0.88297 0.28305 0.5848 0.0
H150 H 0.96435 0.27264 0.49425 0.0
H151 H 0.03877 0.24667 0.58915 0.0
C152 C 0.5759 0.21175 0.99434 0.0
C153 C 0.55568 0.25633 0.97592 0.0
C154 C 0.6267 0.20926 0.00218 0.0
C155 C 0.74425 0.26697 0.96837 0.0
H156 H 0.80208 0.19335 0.04919 0.0
C157 C 0.9547 0.26984 -0.00011 0.0
C158 C 0.97518 0.22614 0.0192 0.0
C159 C 0.90395 0.27159 0.99193 0.0
C160 C 0.78653 0.21334 0.02621 0.0
H161 H 0.57122 0.33463 0.95389 0.0
H162 H 0.65954 0.33083 0.96828 0.0
H163 H 0.71198 0.20314 0.04483 0.0
H164 H 0.95979 0.14858 0.0428 0.0
H165 H 0.87191 0.15073 0.02783 0.0
H166 H 0.81876 0.27709 0.9497 0.0
C167 C 0.63669 0.29732 0.97588 0.0
C168 C 0.73485 0.21919 0.02383 0.0
C169 C 0.58606 0.29974 0.96802 0.0
C170 C 0.94499 0.18271 0.02784 0.0
C171 C 0.89448 0.18428 0.01971 0.0
C172 C 0.79593 0.26105 0.97072 0.0
C173 C 0.65804 0.25137 0.99175 0.0
C174 C 0.71308 0.24623 0.99493 0.0
C175 C 0.87285 0.22952 0.00299 0.0
C176 C 0.81775 0.23415 -0.00033 0.0
H177 H 0.5534 0.17757 0.00034 0.0
H178 H 0.64194 0.17326 0.0144 0.0
H179 H 0.72865 0.28708 0.94544 0.0
H180 H 0.97693 0.30409 0.99327 0.0
H181 H 0.88856 0.3071 0.97907 0.0
C182 C 0.07043 0.71045 0.99632 0.0
C183 C 0.0495 0.75085 0.97412 0.0
C184 C 0.12124 0.71077 0.00427 0.0
C185 C 0.23936 0.76661 0.96812 0.0
H186 H 0.29499 0.71052 0.05401 0.0
C187 C 0.44806 0.78494 0.00187 0.0
C188 C 0.46979 0.74484 0.02391 0.0
C189 C 0.39736 0.78353 0.99388 0.0
C190 C 0.28012 0.72564 0.02969 0.0
H191 H 0.06415 0.82496 0.94488 0.0
H192 H 0.15219 0.82641 0.95947 0.0
H193 H 0.20487 0.71515 0.04697 0.0
H194 H 0.45665 0.67003 0.05271 0.0
H195 H 0.36862 0.6669 0.03818 0.0
H196 H 0.31458 0.77722 0.95086 0.0
C197 C 0.13001 0.79369 0.97001 0.0
C198 C 0.22834 0.72846 0.02571 0.0
C199 C 0.07944 0.79322 0.96198 0.0
C200 C 0.44073 0.70166 0.03583 0.0
C201 C 0.39019 0.70016 0.0278 0.0
C202 C 0.29111 0.76382 0.9721 0.0
C203 C 0.15205 0.75163 0.99024 0.0
C204 C 0.20722 0.74917 0.9949 0.0
C205 C 0.36739 0.74188 0.0077 0.0
C206 C 0.31223 0.74333 0.00295 0.0
H207 H 0.04836 0.67702 0.00566 0.0
H208 H 0.13688 0.67765 0.01987 0.0
H209 H 0.22454 0.78176 0.9438 0.0
H210 H 0.46938 0.81896 0.99265 0.0
H211 H 0.38111 0.81643 0.9784 0.0
C212 C 0.58612 0.707 0.52758 0.0
C213 C 0.5543 0.74945 0.51993 0.0
C214 C 0.6367 0.71114 0.51977 0.0
C215 C 0.73327 0.7888 0.47117 0.0
H216 H 0.81704 0.73663 0.54665 0.0
C217 C 0.94587 0.81334 0.46307 0.0
C218 C 0.97382 0.76937 0.4751 0.0
C219 C 0.89545 0.81641 0.47122 0.0
C220 C 0.79436 0.75106 0.52521 0.0
H221 H 0.54959 0.82824 0.49576 0.0
H222 H 0.63829 0.83531 0.48141 0.0
H223 H 0.72699 0.72795 0.55138 0.0
H224 H 0.97178 0.69554 0.50666 0.0
H225 H 0.88395 0.7003 0.52058 0.0
H226 H 0.80061 0.81078 0.44466 0.0
C227 C 0.62403 0.79892 0.49367 0.0
C228 C 0.74267 0.74599 0.52791 0.0
C229 C 0.57321 0.7948 0.50163 0.0
C230 C 0.95135 0.73019 0.49739 0.0
C231 C 0.9008 0.73295 0.50526 0.0
C232 C 0.7851 0.79349 0.46834 0.0
C233 C 0.65663 0.75777 0.504 0.0
C234 C 0.71154 0.76425 0.50082 0.0
C235 C 0.8717 0.77524 0.49124 0.0
C236 C 0.81641 0.77423 0.49524 0.0
H237 H 0.57239 0.67151 0.54155 0.0
H238 H 0.66065 0.67838 0.52732 0.0
H239 H 0.71028 0.80314 0.44986 0.0
H240 H 0.96245 0.84426 0.44598 0.0
H241 H 0.87467 0.85022 0.46076 0.0
C242 C 0.07702 0.29262 0.50248 0.0
C243 C 0.05623 0.25186 0.52443 0.0
C244 C 0.12795 0.29265 0.49461 0.0
C245 C 0.24635 0.2367 0.53059 0.0
H246 H 0.30205 0.29194 0.44456 0.0
C247 C 0.45445 0.21432 0.49651 0.0
C248 C 0.47666 0.25344 0.47397 0.0
C249 C 0.40389 0.21708 0.50471 0.0
C250 C 0.2872 0.2771 0.46893 0.0
H251 H 0.07136 0.17763 0.5534 0.0
H252 H 0.1595 0.17683 0.53899 0.0
H253 H 0.21192 0.28846 0.45181 0.0
H254 H 0.46451 0.32791 0.44446 0.0
H255 H 0.37685 0.33353 0.45946 0.0
H256 H 0.32154 0.22519 0.54771 0.0
C257 C 0.13713 0.20952 0.52855 0.0
C258 C 0.23539 0.27494 0.47302 0.0
C259 C 0.08649 0.20961 0.53647 0.0
C260 C 0.44827 0.29706 0.46178 0.0
C261 C 0.39788 0.29995 0.47006 0.0
C262 C 0.29812 0.23887 0.5265 0.0
C263 C 0.159 0.25184 0.50852 0.0
C264 C 0.21422 0.25437 0.50386 0.0
C265 C 0.3745 0.25914 0.49064 0.0
C266 C 0.31932 0.25892 0.49559 0.0
H267 H 0.05472 0.32598 0.49324 0.0
H268 H 0.14344 0.32594 0.47916 0.0
H269 H 0.23151 0.22167 0.55493 0.0
H270 H 0.47521 0.17996 0.50594 0.0
H271 H 0.38724 0.18482 0.52054 0.0
C272 C 0.6504 0.61099 0.03443 0.0
C273 C 0.67396 0.63188 0.00457 0.0
C274 C 0.60854 0.57972 0.03377 0.0
C275 C 0.54124 0.50103 0.98066 0.0
H276 H 0.42632 0.52807 0.03327 0.0
C277 C 0.35292 0.4048 0.96558 0.0
C278 C 0.33248 0.38037 0.99568 0.0
C279 C 0.39179 0.43983 0.96592 0.0
C280 C 0.45822 0.52009 0.01852 0.0
H281 H 0.67358 0.63508 0.95078 0.0
H282 H 0.60107 0.58074 0.9497 0.0
H283 H 0.50297 0.57669 0.03693 0.0
H284 H 0.33414 0.37569 0.04953 0.0
H285 H 0.40155 0.43689 0.05004 0.0
H286 H 0.49662 0.44446 0.96227 0.0
C287 C 0.61476 0.58816 0.9736 0.0
C288 C 0.50211 0.54757 0.0208 0.0
C289 C 0.65621 0.61948 0.97424 0.0
C290 C 0.34939 0.3938 0.02593 0.0
C291 C 0.3878 0.42906 0.02625 0.0
C292 C 0.49737 0.4737 0.97831 0.0
C293 C 0.59001 0.56861 0.00326 0.0
C294 C 0.54406 0.53822 0.00192 0.0
C295 C 0.41032 0.45128 0.99633 0.0
C296 C 0.45548 0.48291 0.99725 0.0
H297 H 0.66312 0.62027 0.05811 0.0
H298 H 0.59038 0.56467 0.05704 0.0
H299 H 0.57318 0.49261 0.96609 0.0
H300 H 0.34067 0.395 0.94193 0.0
H301 H 0.40827 0.45692 0.94248 0.0
C302 C 0.65102 0.37937 0.46804 0.0
C303 C 0.67435 0.35648 0.49753 0.0
C304 C 0.60773 0.4085 0.46949 0.0
C305 C 0.53673 0.47975 0.52534 0.0
H306 H 0.4256 0.46068 0.46756 0.0
C307 C 0.34958 0.58222 0.53617 0.0
C308 C 0.33166 0.60824 0.50573 0.0
C309 C 0.38772 0.54598 0.53654 0.0
C310 C 0.45639 0.46644 0.4838 0.0
H311 H 0.6714 0.34691 0.55161 0.0
H312 H 0.59642 0.39758 0.55405 0.0
H313 H 0.50204 0.41139 0.4643 0.0
H314 H 0.33734 0.6146 0.45188 0.0
H315 H 0.40344 0.55171 0.4526 0.0
H316 H 0.49149 0.53521 0.54456 0.0
C317 C 0.61147 0.3934 0.52984 0.0
C318 C 0.50018 0.43847 0.48179 0.0
C319 C 0.65439 0.36421 0.5284 0.0
C320 C 0.35055 0.59538 0.47578 0.0
C321 C 0.38823 0.55904 0.47615 0.0
C322 C 0.493 0.50766 0.52735 0.0
C323 C 0.58738 0.41547 0.50046 0.0
C324 C 0.54091 0.44513 0.50239 0.0
C325 C 0.40811 0.5349 0.50649 0.0
C326 C 0.45253 0.50161 0.50643 0.0
H327 H 0.66538 0.37368 0.44393 0.0
H328 H 0.59015 0.42553 0.44643 0.0
H329 H 0.5677 0.4861 0.54128 0.0
H330 H 0.33578 0.59147 0.55962 0.0
H331 H 0.40207 0.52751 0.5603 0.0
C332 C 0.16079 0.12223 0.96788 0.0
C333 C 0.18228 0.12802 -0.00137 0.0
C334 C 0.11706 0.09441 0.9667 0.0
C335 C 1.00694 0.05144 0.01633 0.0
H336 H 0.99108 0.95848 0.95178 0.0
C337 C 0.85198 0.90121 0.02341 0.0
C338 C 0.83249 0.88806 0.99373 0.0
C339 C 0.89025 0.93685 0.0225 0.0
C340 C 0.9945 0.98515 0.96945 0.0
H341 H 0.17538 0.1086 0.05229 0.0
H342 H 0.09879 0.05908 0.05023 0.0
H343 H 0.06923 0.00428 0.95428 0.0
H344 H 0.83553 0.90427 0.93978 0.0
H345 H 0.90247 0.96734 0.93815 0.0
H346 H 0.93223 0.03213 0.03161 0.0
C347 C 0.11575 0.07661 0.02706 0.0
C348 C 0.03939 0.01108 0.97104 0.0
C349 C 0.1598 0.10441 0.02825 0.0
C350 C 0.84994 0.91359 0.96303 0.0
C351 C 0.88847 0.94933 0.96212 0.0
C352 C 0.96187 0.02577 0.01459 0.0
C353 C 0.09378 0.07178 0.99624 0.0
C354 C 0.04618 0.04417 0.99467 0.0
C355 C 0.9099 0.9602 0.99188 0.0
C356 C 0.95539 0.9919 0.99137 0.0
H357 H 0.17718 0.14014 0.9446 0.0
H358 H 0.10072 0.09186 0.94261 0.0
H359 H 1.01105 0.07715 0.03451 0.0
H360 H 0.83909 0.88245 0.0475 0.0
H361 H 0.90617 0.94397 0.04586 0.0
C362 C 0.84418 0.08755 0.46676 0.0
C363 C 0.83209 0.1008 0.49805 0.0
C364 C 0.87614 0.04677 0.46429 0.0
C365 C 0.9421 0.93524 0.51118 0.0
H366 H 0.04769 0.97871 0.44792 0.0
C367 C 0.13859 0.8482 0.52132 0.0
C368 C 0.16587 0.84524 0.49212 0.0
C369 C 0.09139 0.87041 0.51961 0.0
C370 C 0.01807 0.96527 0.46517 0.0
H371 H 0.84119 0.07966 0.5514 0.0
H372 H 0.89827 0.00851 0.54708 0.0
H373 H 0.97518 0.03279 0.45002 0.0
H374 H 0.16399 0.86067 0.43811 0.0
H375 H 0.08111 0.89936 0.43508 0.0
H376 H 0.9861 0.86815 0.52688 0.0
C377 C 0.88246 0.02948 0.52449 0.0
C378 C 0.97643 -0.00362 0.46643 0.0
C379 C 0.84997 0.07028 0.52699 0.0
C380 C 0.1443 0.86345 0.46107 0.0
C381 C 0.0968 0.88543 0.45935 0.0
C382 C 0.9839 0.90392 0.50988 0.0
C383 C 0.89717 0.01855 0.49301 0.0
C384 C 0.93841 0.98223 0.48982 0.0
C385 C 0.07022 0.88999 0.48865 0.0
C386 C 0.02282 0.91917 0.48729 0.0
H387 H 0.83024 0.1098 0.44398 0.0
H388 H 0.88593 0.03857 0.43974 0.0
H389 H 0.91305 0.92307 0.52916 0.0
H390 H 0.15405 0.8341 0.54564 0.0
H391 H 0.07231 0.87389 0.54268 0.0
C392 C 0.54507 0.27143 0.34899 0.0
C393 C 0.56718 0.23141 0.37094 0.0
C394 C 0.53473 0.26558 0.31605 0.0
C395 C 0.50584 0.16441 0.26667 0.0
H396 H 0.51309 0.27505 0.19214 0.0
C397 C 0.43413 0.14199 0.13496 0.0
C398 C 0.4068 0.18355 0.1182 0.0
C399 C 0.46024 0.14669 0.1642 0.0
C400 C 0.51052 0.24384 0.21274 0.0
H401 H 0.59793 0.15477 0.37512 0.0
H402 H 0.58037 0.14474 0.31738 0.0
H403 H 0.54955 0.28619 0.2456 0.0
H404 H 0.38564 0.2627 0.11906 0.0
H405 H 0.43026 0.27055 0.17005 0.0
H406 H 0.46558 0.12257 0.23418 0.0
C407 C 0.5706 0.18046 0.32579 0.0
C408 C 0.53155 0.2502 0.24335 0.0
C409 C 0.5812 0.18644 0.35873 0.0
C410 C 0.40635 0.2299 0.13125 0.0
C411 C 0.43236 0.23457 0.1604 0.0
C412 C 0.48468 0.15809 0.23609 0.0
C413 C 0.54608 0.21947 0.30433 0.0
C414 C 0.52873 0.21088 0.27083 0.0
C415 C 0.45963 0.19307 0.17729 0.0
C416 C 0.48596 0.19807 0.20891 0.0
H417 H 0.5341 0.30661 0.35769 0.0
H418 H 0.51553 0.29627 0.30029 0.0
H419 H 0.50237 0.13361 0.28746 0.0
H420 H 0.43544 0.10582 0.12551 0.0
H421 H 0.48123 0.11411 0.17641 0.0
C422 C 0.54156 0.72086 0.14831 0.0
C423 C 0.56346 0.7612 0.12657 0.0
C424 C 0.532 0.7259 0.18149 0.0
C425 C 0.50355 0.8258 0.23166 0.0
H426 H 0.51225 0.71459 0.30576 0.0
C427 C 0.43085 0.8468 0.36315 0.0
C428 C 0.40409 0.80488 0.37988 0.0
C429 C 0.45749 0.84235 0.33407 0.0
C430 C 0.50928 0.74594 0.28528 0.0
H431 H 0.59473 0.83746 0.1229 0.0
H432 H 0.5784 0.84613 0.18104 0.0
H433 H 0.54848 0.70425 0.25201 0.0
H434 H 0.38455 0.72532 0.37924 0.0
H435 H 0.42993 0.71793 0.3284 0.0
H436 H 0.46291 0.86689 0.26443 0.0
C437 C 0.56829 0.81076 0.17231 0.0
C438 C 0.5302 0.74005 0.25454 0.0
C439 C 0.57815 0.80558 0.13915 0.0
C440 C 0.40483 0.75838 0.36704 0.0
C441 C 0.43127 0.75399 0.33798 0.0
C442 C 0.48243 0.83161 0.26234 0.0
C443 C 0.54389 0.77152 0.19359 0.0
C444 C 0.52685 0.7796 0.22723 0.0
C445 C 0.45786 0.79591 0.32106 0.0
C446 C 0.48424 0.79142 0.28937 0.0
H447 H 0.53007 0.68614 0.13929 0.0
H448 H 0.51288 0.69508 0.19715 0.0
H449 H 0.49967 0.85673 0.21098 0.0
H450 H 0.43129 0.88308 0.3725 0.0
H451 H 0.47799 0.87524 0.32188 0.0
C452 C 0.49242 0.69223 0.64402 0.0
C453 C 0.46626 0.73472 0.62744 0.0
C454 C 0.509 0.69167 0.67662 0.0
C455 C 0.50201 0.75235 0.75233 0.0
H456 H 0.64462 0.72874 0.75496 0.0
C457 C 0.62536 0.7951 0.86216 0.0
C458 C 0.66536 0.7617 0.87165 0.0
C459 C 0.59775 0.79091 0.83346 0.0
C460 C 0.60471 0.73458 0.75503 0.0
H461 H 0.43287 0.80768 0.63289 0.0
H462 H 0.46142 0.80637 0.69036 0.0
H463 H 0.59817 0.71912 0.70506 0.0
H464 H 0.70718 0.69712 0.85888 0.0
H465 H 0.65849 0.68883 0.80966 0.0
H466 H 0.50854 0.76723 0.80258 0.0
C467 C 0.46921 0.77367 0.67799 0.0
C468 C 0.57809 0.72913 0.72632 0.0
C469 C 0.4527 0.77433 0.64519 0.0
C470 C 0.67701 0.72392 0.85201 0.0
C471 C 0.64911 0.71931 0.82364 0.0
C472 C 0.52864 0.75719 0.78137 0.0
C473 C 0.49956 0.73346 0.69335 0.0
C474 C 0.5265 0.7378 0.72466 0.0
C475 C 0.60923 0.75287 0.81384 0.0
C476 C 0.5804 0.74828 0.78307 0.0
H477 H 0.5029 0.66097 0.63097 0.0
H478 H 0.53153 0.65974 0.68813 0.0
H479 H 0.46225 0.75933 0.75164 0.0
H480 H 0.61549 0.82463 0.87681 0.0
H481 H 0.56781 0.8179 0.82647 0.0
C482 C 0.49421 0.30292 0.85095 0.0
C483 C 0.46902 0.26076 0.86873 0.0
C484 C 0.51128 0.30144 0.81866 0.0
C485 C 0.50668 0.23618 0.74507 0.0
H486 H 0.64915 0.2602 0.74282 0.0
C487 C 0.63158 0.19189 0.63597 0.0
C488 C 0.67169 0.2251 0.6266 0.0
C489 C 0.6036 0.19632 0.66454 0.0
C490 C 0.60929 0.25422 0.74262 0.0
H491 H 0.43779 0.18607 0.86553 0.0
H492 H 0.467 0.18391 0.80852 0.0
H493 H 0.60185 0.27169 0.79209 0.0
H494 H 0.71321 0.2897 0.63942 0.0
H495 H 0.66386 0.29854 0.68825 0.0
H496 H 0.51401 0.2196 0.69523 0.0
C497 C 0.47374 0.21788 0.8198 0.0
C498 C 0.58219 0.2607 0.77098 0.0
C499 C 0.45684 0.21923 0.85233 0.0
C500 C 0.68303 0.26297 0.64621 0.0
C501 C 0.65473 0.26788 0.67439 0.0
C502 C 0.53377 0.23041 0.71632 0.0
C503 C 0.50317 0.25794 0.80336 0.0
C504 C 0.53064 0.25197 0.77249 0.0
C505 C 0.61478 0.23448 0.68412 0.0
C506 C 0.58549 0.23954 0.7147 0.0
H507 H 0.50357 0.33567 0.86288 0.0
H508 H 0.53314 0.33322 0.80628 0.0
H509 H 0.46695 0.2291 0.74568 0.0
H510 H 0.62192 0.16233 0.62131 0.0
H511 H 0.5736 0.16945 0.67143 0.0
C512 C 0.04063 0.78156 0.34981 0.0
C513 C 0.06102 0.74123 0.37238 0.0
C514 C 0.02893 0.77457 0.31728 0.0
C515 C 0.9924 0.6721 0.27097 0.0
H516 H 1.00424 0.77813 0.19403 0.0
C517 C 0.9164 0.64633 0.1409 0.0
C518 C 0.89138 0.68881 0.12325 0.0
C519 C 0.94318 0.65104 0.16986 0.0
C520 C 1.00038 0.74823 0.21533 0.0
H521 H 0.08726 0.6627 0.37807 0.0
H522 H 0.06745 0.65072 0.32106 0.0
H523 H 0.0429 0.79028 0.24663 0.0
H524 H 0.87468 0.76947 0.12235 0.0
H525 H 0.92041 0.77736 0.17288 0.0
H526 H 0.94869 0.63066 0.24002 0.0
C527 C 0.06007 0.68758 0.32866 0.0
C528 C 0.02265 0.75517 0.24542 0.0
C529 C 0.07199 0.69465 0.36117 0.0
C530 C 0.89364 0.73596 0.13522 0.0
C531 C 0.92027 0.74064 0.1641 0.0
C532 C 0.96999 0.66522 0.2409 0.0
C533 C 0.03719 0.72701 0.30664 0.0
C534 C 0.01824 0.71754 0.27373 0.0
C535 C 0.94551 0.69833 0.18176 0.0
C536 C 0.97294 0.70361 0.21288 0.0
H537 H 0.032 0.81794 0.35773 0.0
H538 H 1.01106 0.80564 0.30102 0.0
H539 H 0.98768 0.64267 0.29244 0.0
H540 H 0.91558 0.60952 0.13226 0.0
H541 H 0.96252 0.61779 0.18272 0.0
C542 C 0.85014 0.21387 0.34978 0.0
C543 C 0.8601 0.25234 0.36919 0.0
C544 C 0.87841 0.20998 0.32144 0.0
C545 C 0.99755 0.25194 0.27867 0.0
H546 H 0.93049 0.20773 0.20345 0.0
C547 C 0.07339 0.26535 0.14238 0.0
C548 C 0.06251 0.22344 0.12602 0.0
C549 C 0.0566 0.2661 0.17499 0.0
C550 C 0.94988 0.21954 0.22441 0.0
H551 H 0.90736 0.31727 0.37397 0.0
H552 H 0.95565 0.31182 0.32356 0.0
H553 H 0.8831 0.21781 0.25296 0.0
H554 H 0.03047 0.14733 0.13204 0.0
H555 H 1.00103 0.14876 0.1888 0.0
H556 H 0.06411 0.25546 0.24894 0.0
C557 C 0.92676 0.28375 0.33074 0.0
C558 C 0.92274 0.22523 0.2529 0.0
C559 C 0.89881 0.28719 0.35948 0.0
C560 C 0.03878 0.1804 0.14391 0.0
C561 C 0.02179 0.18129 0.1763 0.0
C562 C 0.02466 0.24694 0.2498 0.0
C563 C 0.91695 0.245 0.31136 0.0
C564 C 0.94619 0.24093 0.28061 0.0
C565 C 0.02857 0.22504 0.19157 0.0
C566 C 1.00109 0.23009 0.22259 0.0
H567 H 0.82106 0.18592 0.35683 0.0
H568 H 0.87039 0.17886 0.30771 0.0
H569 H 0.01703 0.26361 0.2996 0.0
H570 H 0.09127 0.2992 0.12912 0.0
H571 H 0.06229 0.30029 0.18624 0.0
C572 C 0.1232 0.26538 0.86651 0.0
C573 C 0.12386 0.31189 0.87933 0.0
C574 C 0.09657 0.2609 0.83757 0.0
C575 C 0.04333 0.33816 0.76223 0.0
H576 H 0.97877 0.20992 0.7527 0.0
C577 C 0.94595 0.30936 0.6399 0.0
C578 C 0.96204 0.26538 0.62737 0.0
C579 C 0.95603 0.31516 0.67295 0.0
C580 C 0.99657 0.24598 0.75502 0.0
H581 H 0.09645 0.39008 0.87195 0.0
H582 H 0.04937 0.38209 0.82156 0.0
H583 H 0.01573 0.22086 0.80605 0.0
H584 H 0.99824 0.19165 0.63993 0.0
H585 H 0.01543 0.20143 0.69763 0.0
H586 H 0.02472 0.36293 0.71102 0.0
C587 C 0.07009 0.34925 0.83367 0.0
C588 C 0.01797 0.25222 0.78553 0.0
C589 C 0.09696 0.35379 0.86262 0.0
C590 C 0.98553 0.22596 0.649 0.0
C591 C 0.99515 0.23151 0.68206 0.0
C592 C 0.02165 0.33202 0.73178 0.0
C593 C 0.06964 0.30273 0.82074 0.0
C594 C 0.04262 0.29797 0.78931 0.0
C595 C 0.98186 0.27681 0.69413 0.0
C596 C 0.99895 0.28548 0.72764 0.0
H597 H 0.14358 0.23232 0.87869 0.0
H598 H 0.09791 0.22479 0.82804 0.0
H599 H 0.06245 0.37369 0.76407 0.0
H600 H 0.92811 0.34048 0.62365 0.0
H601 H 0.94493 0.35028 0.68167 0.0
C602 C 0.09576 0.6371 0.63921 0.0
C603 C 0.12247 0.67854 0.62183 0.0
C604 C 0.06878 0.64278 0.66794 0.0
C605 C 0.01556 0.74194 0.71399 0.0
H606 H 0.02199 0.63369 0.79001 0.0
C607 C 0.97971 0.77295 0.8494 0.0
C608 C 0.95655 0.7338 0.87141 0.0
C609 C 0.99002 0.7664 0.81659 0.0
C610 C 0.01901 0.66392 0.76882 0.0
H611 H 0.1418 0.75847 0.62108 0.0
H612 H 0.09591 0.76799 0.6714 0.0
H613 H 0.06077 0.62109 0.73761 0.0
H614 H 0.9238 0.65815 0.87597 0.0
H615 H 0.9417 0.64667 0.81841 0.0
H616 H 0.9753 0.78539 0.74574 0.0
C617 C 0.09483 0.73135 0.66255 0.0
C618 C 0.0413 0.65672 0.73874 0.0
C619 C 0.12159 0.72573 0.63381 0.0
C620 C 0.94136 0.68909 0.85945 0.0
C621 C 0.95209 0.68232 0.82665 0.0
C622 C 0.99352 0.74923 0.74414 0.0
C623 C 0.06801 0.68999 0.67999 0.0
C624 C 0.04065 0.69599 0.71111 0.0
C625 C 0.97773 0.72036 0.80515 0.0
C626 C 0.99572 0.71062 0.77205 0.0
H627 H 0.0954 0.6003 0.63053 0.0
H628 H 0.04814 0.61027 0.68053 0.0
H629 H 0.01338 0.77259 0.69303 0.0
H630 H 0.9917 0.80783 0.85802 0.0
H631 H 1.0101 0.7963 0.80076 0.0
loop_
_geom_bond_atom_site_label_1
_geom_bond_atom_site_label_2
_geom_bond_distance
_geom_bond_site_symmetry_2
_ccdc_geom_bond_type
C0 C1 1.387 . S
C0 C5 1.380 . S
C0 C16 1.494 . S
C1 C0 1.387 . S
C1 C2 1.386 . S
C1 H32 0.930 . S
C2 C1 1.386 . S
C2 C3 1.397 . S
C3 C2 1.397 . S
C3 C4 1.393 . S
C3 H33 0.930 1_455 S
C4 C3 1.393 . S
C4 C5 1.395 . S
C5 C0 1.380 . S
C5 C4 1.395 . S
C5 H34 0.930 . S
O6 Tb7 2.295 . S
O6 C19 1.242 . S
Tb7 O6 2.295 . S
Tb7 O8 2.312 . S
Tb7 O11 2.438 . S
Tb7 O13 2.472 1_556 S
Tb7 O15 2.308 . S
Tb7 C16 2.821 1_556 S
O8 Tb7 2.312 . S
O8 C28 1.264 . S
O9 Eu10 2.308 . S
O9 C19 1.243 1_554 S
Eu10 O9 2.308 . S
Eu10 C12 2.821 1_554 S
Eu10 O14 2.295 . S
Eu10 O21 2.312 . S
Eu10 O30 2.438 . S
Eu10 O31 2.472 1_554 S
O11 Tb7 2.438 . S
O11 C16 1.263 1_556 S
C12 Eu10 2.821 1_556 S
C12 C22 1.494 . S
C12 O30 1.263 1_556 S
C12 O31 1.264 . S
O13 Tb7 2.472 1_554 S
O13 C16 1.264 . S
O14 Eu10 2.295 . S
O14 C20 1.242 . S
O15 Tb7 2.308 . S
O15 C20 1.243 1_556 S
C16 C0 1.494 . S
C16 Tb7 2.821 1_554 S
C16 O11 1.263 1_554 S
C16 O13 1.264 . S
C17 O18 1.260 . S
C17 O21 1.264 . S
O18 C17 1.260 . S
C19 O6 1.242 . S
C19 O9 1.243 1_556 S
C20 O14 1.242 . S
C20 O15 1.243 1_554 S
O21 Eu10 2.312 . S
O21 C17 1.264 . S
C22 C12 1.494 . S
C22 C24 1.380 . S
C22 C25 1.387 . S
C23 C24 1.395 . S
C23 C27 1.393 . S
C24 C22 1.380 . S
C24 C23 1.395 . S
C24 H35 0.930 . S
C25 C22 1.387 . S
C25 C26 1.386 . S
C25 H36 0.930 . S
C26 C25 1.386 . S
C26 C27 1.397 . S
C27 C23 1.393 . S
C27 C26 1.397 . S
C27 H37 0.930 . S
C28 O8 1.264 . S
C28 O29 1.260 . S
O29 C28 1.260 . S
O30 Eu10 2.438 . S
O30 C12 1.263 1_554 S
O31 Eu10 2.472 1_556 S
O31 C12 1.264 . S
H32 C1 0.930 . S
H33 C3 0.930 1_655 S
H34 C5 0.930 . S
H35 C24 0.930 . S
H36 C25 0.930 . S
H37 C27 0.930 . S
C38 C39 1.387 . S
C38 C43 1.380 . S
C38 C54 1.494 . S
C39 C38 1.387 . S
C39 C40 1.386 . S
C39 H70 0.930 . S
C40 C39 1.386 . S
C40 C41 1.397 . S
C41 C40 1.397 . S
C41 C42 1.393 . S
C41 H71 0.930 . S
C42 C41 1.393 . S
C42 C43 1.395 . S
C43 C38 1.380 . S
C43 C42 1.395 . S
C43 H72 0.930 . S
O44 Tb45 2.295 . S
O44 C57 1.242 . S
Tb45 O44 2.295 . S
Tb45 O46 2.312 . S
Tb45 O49 2.438 . S
Tb45 O51 2.472 1_556 S
Tb45 O53 2.308 . S
Tb45 C54 2.821 1_556 S
O46 Tb45 2.312 . S
O46 C66 1.264 . S
O47 Eu48 2.308 . S
O47 C57 1.243 1_554 S
Eu48 O47 2.308 . S
Eu48 C50 2.821 1_554 S
Eu48 O52 2.295 . S
Eu48 O59 2.312 . S
Eu48 O68 2.438 . S
Eu48 O69 2.472 1_554 S
O49 Tb45 2.438 . S
O49 C54 1.263 1_556 S
C50 Eu48 2.821 1_556 S
C50 C60 1.494 . S
C50 O68 1.263 1_556 S
C50 O69 1.264 . S
O51 Tb45 2.472 1_554 S
O51 C54 1.264 . S
O52 Eu48 2.295 . S
O52 C58 1.242 . S
O53 Tb45 2.308 . S
O53 C58 1.243 1_556 S
C54 C38 1.494 . S
C54 Tb45 2.821 1_554 S
C54 O49 1.263 1_554 S
C54 O51 1.264 . S
C55 O56 1.260 . S
C55 O59 1.264 . S
O56 C55 1.260 . S
C57 O44 1.242 . S
C57 O47 1.243 1_556 S
C58 O52 1.242 . S
C58 O53 1.243 1_554 S
O59 Eu48 2.312 . S
O59 C55 1.264 . S
C60 C50 1.494 . S
C60 C62 1.380 . S
C60 C63 1.387 . S
C61 C62 1.395 . S
C61 C65 1.393 . S
C62 C60 1.380 . S
C62 C61 1.395 . S
C62 H73 0.930 . S
C63 C60 1.387 . S
C63 C64 1.386 . S
C63 H74 0.930 . S
C64 C63 1.386 . S
C64 C65 1.397 . S
C65 C61 1.393 . S
C65 C64 1.397 . S
C65 H75 0.930 1_655 S
C66 O46 1.264 . S
C66 O67 1.260 . S
O67 C66 1.260 . S
O68 Eu48 2.438 . S
O68 C50 1.263 1_554 S
O69 Eu48 2.472 1_556 S
O69 C50 1.264 . S
H70 C39 0.930 . S
H71 C41 0.930 . S
H72 C43 0.930 . S
H73 C62 0.930 . S
H74 C63 0.930 . S
H75 C65 0.930 1_455 S
C76 C77 1.387 . S
C76 C81 1.380 . S
C76 C92 1.494 . S
C77 C76 1.387 . S
C77 C78 1.386 . S
C77 H108 0.930 . S
C78 C77 1.386 . S
C78 C79 1.397 . S
C79 C78 1.397 . S
C79 C80 1.393 . S
C79 H109 0.930 1_455 S
C80 C79 1.393 . S
C80 C81 1.395 . S
C81 C76 1.380 . S
C81 C80 1.395 . S
C81 H110 0.930 . S
O82 Tb83 2.295 . S
O82 C95 1.242 . S
Tb83 O82 2.295 . S
Tb83 O84 2.312 . S
Tb83 O87 2.438 . S
Tb83 O89 2.472 . S
Tb83 O91 2.308 . S
Tb83 C92 2.821 . S
O84 Tb83 2.312 . S
O84 C104 1.264 . S
O85 Eu86 2.308 . S
O85 C95 1.243 . S
Eu86 O85 2.308 . S
Eu86 C88 2.821 . S
Eu86 O90 2.295 . S
Eu86 O97 2.312 . S
Eu86 O106 2.438 . S
Eu86 O107 2.472 . S
O87 Tb83 2.438 . S
O87 C92 1.263 . S
C88 Eu86 2.821 . S
C88 C98 1.494 . S
C88 O106 1.263 . S
C88 O107 1.264 . S
O89 Tb83 2.472 . S
O89 C92 1.264 . S
O90 Eu86 2.295 . S
O90 C96 1.242 . S
O91 Tb83 2.308 . S
O91 C96 1.243 . S
C92 C76 1.494 . S
C92 Tb83 2.821 . S
C92 O87 1.263 . S
C92 O89 1.264 . S
C93 O94 1.260 . S
C93 O97 1.264 . S
O94 C93 1.260 . S
C95 O82 1.242 . S
C95 O85 1.243 . S
C96 O90 1.242 . S
C96 O91 1.243 . S
O97 Eu86 2.312 . S
O97 C93 1.264 . S
C98 C88 1.494 . S
C98 C100 1.380 . S
C98 C101 1.387 . S
C99 C100 1.395 . S
C99 C103 1.393 . S
C100 C98 1.380 . S
C100 C99 1.395 . S
C100 H111 0.930 . S
C101 C98 1.387 . S
C101 C102 1.386 . S
C101 H112 0.930 . S
C102 C101 1.386 . S
C102 C103 1.397 . S
C103 C99 1.393 . S
C103 C102 1.397 . S
C103 H113 0.930 . S
C104 O84 1.264 . S
C104 O105 1.260 . S
O105 C104 1.260 . S
O106 Eu86 2.438 . S
O106 C88 1.263 . S
O107 Eu86 2.472 . S
O107 C88 1.264 . S
H108 C77 0.930 . S
H109 C79 0.930 1_655 S
H110 C81 0.930 . S
H111 C100 0.930 . S
H112 C101 0.930 . S
H113 C103 0.930 . S
C114 C115 1.387 . S
C114 C119 1.380 . S
C114 C130 1.494 . S
C115 C114 1.387 . S
C115 C116 1.386 . S
C115 H146 0.930 . S
C116 C115 1.386 . S
C116 C117 1.397 . S
C117 C116 1.397 . S
C117 C118 1.393 . S
C117 H147 0.930 . S
C118 C117 1.393 . S
C118 C119 1.395 . S
C119 C114 1.380 . S
C119 C118 1.395 . S
C119 H148 0.930 . S
O120 Tb121 2.295 . S
O120 C133 1.242 . S
Tb121 O120 2.295 . S
Tb121 O122 2.312 . S
Tb121 O125 2.438 . S
Tb121 O127 2.472 . S
Tb121 O129 2.308 . S
Tb121 C130 2.821 . S
O122 Tb121 2.312 . S
O122 C142 1.264 . S
O123 Eu124 2.308 . S
O123 C133 1.243 . S
Eu124 O123 2.308 . S
Eu124 C126 2.821 . S
Eu124 O128 2.295 . S
Eu124 O135 2.312 . S
Eu124 O144 2.438 . S
Eu124 O145 2.472 . S
O125 Tb121 2.438 . S
O125 C130 1.263 . S
C126 Eu124 2.821 . S
C126 C136 1.494 . S
C126 O144 1.263 . S
C126 O145 1.264 . S
O127 Tb121 2.472 . S
O127 C130 1.264 . S
O128 Eu124 2.295 . S
O128 C134 1.242 . S
O129 Tb121 2.308 . S
O129 C134 1.243 . S
C130 C114 1.494 . S
C130 Tb121 2.821 . S
C130 O125 1.263 . S
C130 O127 1.264 . S
C131 O132 1.260 . S
C131 O135 1.264 . S
O132 C131 1.260 . S
C133 O120 1.242 . S
C133 O123 1.243 . S
C134 O128 1.242 . S
C134 O129 1.243 . S
O135 Eu124 2.312 . S
O135 C131 1.264 . S
C136 C126 1.494 . S
C136 C138 1.380 . S
C136 C139 1.387 . S
C137 C138 1.395 . S
C137 C141 1.393 . S
C138 C136 1.380 . S
C138 C137 1.395 . S
C138 H149 0.930 . S
C139 C136 1.387 . S
C139 C140 1.386 . S
C139 H150 0.930 . S
C140 C139 1.386 . S
C140 C141 1.397 . S
C141 C137 1.393 . S
C141 C140 1.397 . S
C141 H151 0.930 1_655 S
C142 O122 1.264 . S
C142 O143 1.260 . S
O143 C142 1.260 . S
O144 Eu124 2.438 . S
O144 C126 1.263 . S
O145 Eu124 2.472 . S
O145 C126 1.264 . S
H146 C115 0.930 . S
H147 C117 0.930 . S
H148 C119 0.930 . S
H149 C138 0.930 . S
H150 C139 0.930 . S
H151 C141 0.930 1_455 S
C152 C153 1.349 . S
C152 C154 1.327 . S
C152 H177 0.966 . S
C153 C152 1.349 . S
C153 C169 1.349 . S
C154 C152 1.327 . S
C154 C173 1.429 . S
C154 H178 0.950 1_556 S
C155 C172 1.574 . S
C155 C174 1.368 . S
C155 H179 0.949 . S
H156 C160 0.949 . S
C157 C158 1.349 . S
C157 C159 1.327 . S
C157 H180 0.950 . S
C158 C157 1.349 . S
C158 C170 1.349 . S
C159 C157 1.327 . S
C159 C175 1.429 . S
C159 H181 0.950 1_554 S
C160 H156 0.949 . S
C160 C168 1.574 . S
C160 C176 1.368 . S
H161 C169 0.950 . S
H162 C167 0.950 . S
H163 C168 0.949 . S
H164 C170 0.950 . S
H165 C171 0.950 . S
H166 C172 0.949 . S
C167 H162 0.950 . S
C167 C169 1.327 . S
C167 C173 1.429 . S
C168 C160 1.574 . S
C168 H163 0.949 . S
C168 C174 1.368 1_554 S
C169 C153 1.349 . S
C169 H161 0.950 . S
C169 C167 1.327 . S
C170 C158 1.349 . S
C170 H164 0.950 . S
C170 C171 1.327 . S
C171 H165 0.950 . S
C171 C170 1.327 . S
C171 C175 1.429 . S
C172 C155 1.574 . S
C172 H166 0.949 . S
C172 C176 1.368 1_556 S
C173 C154 1.429 . S
C173 C167 1.429 . S
C173 C174 1.523 . S
C174 C155 1.368 . S
C174 C168 1.368 1_556 S
C174 C173 1.523 . S
C175 C159 1.429 . S
C175 C171 1.429 . S
C175 C176 1.523 . S
C176 C160 1.368 . S
C176 C172 1.368 1_554 S
C176 C175 1.523 . S
H177 C152 0.966 . S
H178 C154 0.950 1_554 S
H179 C155 0.949 . S
H180 C157 0.950 . S
H181 C159 0.950 1_556 S
C182 C183 1.349 . S
C182 C184 1.327 . S
C182 H207 0.950 . S
C183 C182 1.349 . S
C183 C199 1.349 . S
C184 C182 1.327 . S
C184 C203 1.429 . S
C184 H208 0.950 . S
C185 C202 1.574 . S
C185 C204 1.368 1_554 S
C185 H209 0.949 . S
H186 C190 0.947 . S
C187 C188 1.349 . S
C187 C189 1.327 . S
C187 H210 0.950 . S
C188 C187 1.349 . S
C188 C200 1.349 . S
C189 C187 1.327 . S
C189 C205 1.429 . S
C189 H211 0.950 . S
C190 H186 0.947 . S
C190 C198 1.577 . S
C190 C206 1.364 1_556 S
H191 C199 0.950 . S
H192 C197 0.950 . S
H193 C198 0.949 . S
H194 C200 0.950 . S
H195 C201 0.950 . S
H196 C202 0.949 . S
C197 H192 0.950 . S
C197 C199 1.327 . S
C197 C203 1.429 . S
C198 C190 1.577 . S
C198 H193 0.949 . S
C198 C204 1.368 . S
C199 C183 1.349 . S
C199 H191 0.950 . S
C199 C197 1.327 . S
C200 C188 1.349 . S
C200 H194 0.950 . S
C200 C201 1.327 . S
C201 H195 0.950 . S
C201 C200 1.327 . S
C201 C205 1.429 . S
C202 C185 1.574 . S
C202 H196 0.949 . S
C202 C206 1.368 . S
C203 C184 1.429 . S
C203 C197 1.429 . S
C203 C204 1.523 . S
C204 C185 1.368 1_556 S
C204 C198 1.368 . S
C204 C203 1.523 . S
C205 C189 1.429 . S
C205 C201 1.429 . S
C205 C206 1.523 . S
C206 C190 1.364 1_554 S
C206 C202 1.368 . S
C206 C205 1.523 . S
H207 C182 0.950 . S
H208 C184 0.950 . S
H209 C185 0.949 . S
H210 C187 0.950 . S
H211 C189 0.950 . S
C212 C213 1.349 . S
C212 C214 1.327 . S
C212 H237 0.950 . S
C213 C212 1.349 . S
C213 C229 1.349 . S
C214 C212 1.327 . S
C214 C233 1.429 . S
C214 H238 0.950 . S
C215 C232 1.574 . S
C215 C234 1.368 . S
C215 H239 0.949 . S
H216 C220 0.949 . S
C217 C218 1.349 . S
C217 C219 1.327 . S
C217 H240 0.950 . S
C218 C217 1.349 . S
C218 C230 1.349 . S
C219 C217 1.327 . S
C219 C235 1.429 . S
C219 H241 0.950 . S
C220 H216 0.949 . S
C220 C228 1.574 . S
C220 C236 1.368 . S
H221 C229 0.950 . S
H222 C227 0.950 . S
H223 C228 0.949 . S
H224 C230 0.950 . S
H225 C231 0.950 . S
H226 C232 0.949 . S
C227 H222 0.950 . S
C227 C229 1.327 . S
C227 C233 1.429 . S
C228 C220 1.574 . S
C228 H223 0.949 . S
C228 C234 1.368 . S
C229 C213 1.349 . S
C229 H221 0.950 . S
C229 C227 1.327 . S
C230 C218 1.349 . S
C230 H224 0.950 . S
C230 C231 1.327 . S
C231 H225 0.950 . S
C231 C230 1.327 . S
C231 C235 1.429 . S
C232 C215 1.574 . S
C232 H226 0.949 . S
C232 C236 1.368 . S
C233 C214 1.429 . S
C233 C227 1.429 . S
C233 C234 1.523 . S
C234 C215 1.368 . S
C234 C228 1.368 . S
C234 C233 1.523 . S
C235 C219 1.429 . S
C235 C231 1.429 . S
C235 C236 1.523 . S
C236 C220 1.368 . S
C236 C232 1.368 . S
C236 C235 1.523 . S
H237 C212 0.950 . S
H238 C214 0.950 . S
H239 C215 0.949 . S
H240 C217 0.950 . S
H241 C219 0.950 . S
C242 C243 1.349 . S
C242 C244 1.327 . S
C242 H267 0.950 . S
C243 C242 1.349 . S
C243 C259 1.349 . S
C244 C242 1.327 . S
C244 C263 1.429 . S
C244 H268 0.950 . S
C245 C262 1.574 . S
C245 C264 1.368 . S
C245 H269 0.949 . S
H246 C250 0.949 . S
C247 C248 1.349 . S
C247 C249 1.327 . S
C247 H270 0.950 . S
C248 C247 1.349 . S
C248 C260 1.349 . S
C249 C247 1.327 . S
C249 C265 1.429 . S
C249 H271 0.950 . S
C250 H246 0.949 . S
C250 C258 1.574 . S
C250 C266 1.368 . S
H251 C259 0.950 . S
H252 C257 0.950 . S
H253 C258 0.949 . S
H254 C260 0.950 . S
H255 C261 0.950 . S
H256 C262 0.949 . S
C257 H252 0.950 . S
C257 C259 1.327 . S
C257 C263 1.429 . S
C258 C250 1.574 . S
C258 H253 0.949 . S
C258 C264 1.368 . S
C259 C243 1.349 . S
C259 H251 0.950 . S
C259 C257 1.327 . S
C260 C248 1.349 . S
C260 H254 0.950 . S
C260 C261 1.327 . S
C261 H255 0.950 . S
C261 C260 1.327 . S
C261 C265 1.429 . S
C262 C245 1.574 . S
C262 H256 0.949 . S
C262 C266 1.368 . S
C263 C244 1.429 . S
C263 C257 1.429 . S
C263 C264 1.523 . S
C264 C245 1.368 . S
C264 C258 1.368 . S
C264 C263 1.523 . S
C265 C249 1.429 . S
C265 C261 1.429 . S
C265 C266 1.523 . S
C266 C250 1.368 . S
C266 C262 1.368 . S
C266 C265 1.523 . S
H267 C242 0.950 . S
H268 C244 0.950 . S
H269 C245 0.949 . S
H270 C247 0.950 . S
H271 C249 0.950 . S
C272 C273 1.349 1_554 S
C272 C274 1.327 . S
C272 H297 0.950 . S
C273 C272 1.349 1_556 S
C273 C289 1.349 . S
C274 C272 1.327 . S
C274 C293 1.414 1_554 S
C274 H298 0.950 . S
C275 C292 1.574 . S
C275 C294 1.369 1_556 S
C275 H299 0.949 . S
H276 C280 0.949 . S
C277 C278 1.349 1_556 S
C277 C279 1.327 . S
C277 H300 0.950 . S
C278 C277 1.349 1_554 S
C278 C290 1.349 . S
C279 C277 1.327 . S
C279 C295 1.429 1_556 S
C279 H301 0.950 . S
C280 H276 0.949 . S
C280 C288 1.574 . S
C280 C296 1.368 . S
H281 C289 0.950 . S
H282 C287 0.950 . S
H283 C288 0.949 . S
H284 C290 0.950 . S
H285 C291 0.950 . S
H286 C292 0.949 . S
C287 H282 0.950 . S
C287 C289 1.327 . S
C287 C293 1.442 . S
C288 C280 1.574 . S
C288 H283 0.949 . S
C288 C294 1.368 . S
C289 C273 1.349 . S
C289 H281 0.950 . S
C289 C287 1.327 . S
C290 C278 1.349 . S
C290 H284 0.950 . S
C290 C291 1.327 . S
C291 H285 0.950 . S
C291 C290 1.327 . S
C291 C295 1.429 . S
C292 C275 1.574 . S
C292 H286 0.949 . S
C292 C296 1.368 1_556 S
C293 C274 1.414 1_556 S
C293 C287 1.442 . S
C293 C294 1.525 1_556 S
C294 C275 1.369 1_554 S
C294 C288 1.368 . S
C294 C293 1.525 1_554 S
C295 C279 1.429 1_554 S
C295 C291 1.429 . S
C295 C296 1.523 . S
C296 C280 1.368 . S
C296 C292 1.368 1_554 S
C296 C295 1.523 . S
H297 C272 0.950 . S
H298 C274 0.950 . S
H299 C275 0.949 . S
H300 C277 0.950 . S
H301 C279 0.950 . S
C302 C303 1.349 . S
C302 C304 1.327 . S
C302 H327 0.950 . S
C303 C302 1.349 . S
C303 C319 1.349 . S
C304 C302 1.327 . S
C304 C323 1.429 . S
C304 H328 0.950 . S
C305 C322 1.574 . S
C305 C324 1.368 . S
C305 H329 0.949 . S
H306 C310 0.949 . S
C307 C308 1.349 . S
C307 C309 1.327 . S
C307 H330 0.950 . S
C308 C307 1.349 . S
C308 C320 1.349 . S
C309 C307 1.327 . S
C309 C325 1.429 . S
C309 H331 0.950 . S
C310 H306 0.949 . S
C310 C318 1.574 . S
C310 C326 1.368 . S
H311 C319 0.950 . S
H312 C317 0.950 . S
H313 C318 0.949 . S
H314 C320 0.950 . S
H315 C321 0.950 . S
H316 C322 0.949 . S
C317 H312 0.950 . S
C317 C319 1.327 . S
C317 C323 1.429 . S
C318 C310 1.574 . S
C318 H313 0.949 . S
C318 C324 1.368 . S
C319 C303 1.349 . S
C319 H311 0.950 . S
C319 C317 1.327 . S
C320 C308 1.349 . S
C320 H314 0.950 . S
C320 C321 1.327 . S
C321 H315 0.950 . S
C321 C320 1.327 . S
C321 C325 1.429 . S
C322 C305 1.574 . S
C322 H316 0.949 . S
C322 C326 1.368 . S
C323 C304 1.429 . S
C323 C317 1.429 . S
C323 C324 1.523 . S
C324 C305 1.368 . S
C324 C318 1.368 . S
C324 C323 1.523 . S
C325 C309 1.429 . S
C325 C321 1.429 . S
C325 C326 1.523 . S
C326 C310 1.368 . S
C326 C322 1.368 . S
C326 C325 1.523 . S
H327 C302 0.950 . S
H328 C304 0.950 . S
H329 C305 0.949 . S
H330 C307 0.950 . S
H331 C309 0.950 . S
C332 C333 1.349 . S
C332 C334 1.327 . S
C332 H357 0.950 . S
C333 C332 1.349 . S
C333 C349 1.349 1_556 S
C334 C332 1.327 . S
C334 C353 1.441 . S
C334 H358 0.950 . S
C335 C352 1.577 1_455 S
C335 C354 1.368 . S
C335 H359 0.949 . S
H336 C340 0.949 . S
C337 C338 1.349 . S
C337 C339 1.327 . S
C337 H360 0.950 . S
C338 C337 1.349 . S
C338 C350 1.349 1_554 S
C339 C337 1.327 . S
C339 C355 1.429 . S
C339 H361 0.950 . S
C340 H336 0.949 . S
C340 C348 1.577 1_655 S
C340 C356 1.368 1_556 S
H341 C349 0.950 . S
H342 C347 0.950 . S
H343 C348 0.950 1_545 S
H344 C350 0.950 . S
H345 C351 0.950 . S
H346 C352 0.950 1_565 S
C347 H342 0.950 . S
C347 C349 1.327 . S
C347 C353 1.414 1_554 S
C348 C340 1.577 1_455 S
C348 H343 0.950 1_565 S
C348 C354 1.365 1_566 S
C349 C333 1.349 1_554 S
C349 H341 0.950 . S
C349 C347 1.327 . S
C350 C338 1.349 1_556 S
C350 H344 0.950 . S
C350 C351 1.327 . S
C351 H345 0.950 . S
C351 C350 1.327 . S
C351 C355 1.429 1_556 S
C352 C335 1.577 1_655 S
C352 H346 0.950 1_545 S
C352 C356 1.364 1_545 S
C353 C334 1.441 . S
C353 C347 1.414 1_556 S
C353 C354 1.525 1_556 S
C354 C335 1.368 . S
C354 C348 1.365 1_544 S
C354 C353 1.525 1_554 S
C355 C339 1.429 . S
C355 C351 1.429 1_554 S
C355 C356 1.523 . S
C356 C340 1.368 1_554 S
C356 C352 1.364 1_565 S
C356 C355 1.523 . S
H357 C332 0.950 . S
H358 C334 0.950 . S
H359 C335 0.949 . S
H360 C337 0.950 . S
H361 C339 0.950 . S
C362 C363 1.349 . S
C362 C364 1.327 . S
C362 H387 0.950 . S
C363 C362 1.349 . S
C363 C379 1.349 . S
C364 C362 1.327 . S
C364 C383 1.429 . S
C364 H388 0.950 . S
C365 C382 1.574 1_655 S
C365 C384 1.368 1_565 S
C365 H389 0.949 . S
H366 C370 0.949 . S
C367 C368 1.349 . S
C367 C369 1.327 . S
C367 H390 0.950 . S
C368 C367 1.349 . S
C368 C380 1.349 . S
C369 C367 1.327 . S
C369 C385 1.429 . S
C369 H391 0.950 . S
C370 H366 0.949 . S
C370 C378 1.574 1_455 S
C370 C386 1.368 1_545 S
H371 C379 0.950 . S
H372 C377 0.950 . S
H373 C378 0.949 . S
H374 C380 0.950 . S
H375 C381 0.950 . S
H376 C382 0.949 . S
C377 H372 0.950 . S
C377 C379 1.327 . S
C377 C383 1.429 . S
C378 C370 1.574 1_655 S
C378 H373 0.949 . S
C378 C384 1.368 . S
C379 C363 1.349 . S
C379 H371 0.950 . S
C379 C377 1.327 . S
C380 C368 1.349 . S
C380 H374 0.950 . S
C380 C381 1.327 . S
C381 H375 0.950 . S
C381 C380 1.327 . S
C381 C385 1.429 . S
C382 C365 1.574 1_455 S
C382 H376 0.949 . S
C382 C386 1.368 . S
C383 C364 1.429 . S
C383 C377 1.429 . S
C383 C384 1.523 . S
C384 C365 1.368 1_545 S
C384 C378 1.368 . S
C384 C383 1.523 . S
C385 C369 1.429 . S
C385 C381 1.429 . S
C385 C386 1.523 . S
C386 C370 1.368 1_565 S
C386 C382 1.368 . S
C386 C385 1.523 . S
H387 C362 0.950 . S
H388 C364 0.950 . S
H389 C365 0.949 . S
H390 C367 0.950 . S
H391 C369 0.950 . S
C392 C393 1.349 . S
C392 C394 1.327 . S
C392 H417 0.950 . S
C393 C392 1.349 . S
C393 C409 1.349 . S
C394 C392 1.327 . S
C394 C413 1.429 . S
C394 H418 0.950 . S
C395 C412 1.574 . S
C395 C414 1.368 . S
C395 H419 0.949 . S
H396 C400 0.949 . S
C397 C398 1.349 . S
C397 C399 1.327 . S
C397 H420 0.950 . S
C398 C397 1.349 . S
C398 C410 1.349 . S
C399 C397 1.327 . S
C399 C415 1.429 . S
C399 H421 0.950 . S
C400 H396 0.949 . S
C400 C408 1.574 . S
C400 C416 1.368 . S
H401 C409 0.950 . S
H402 C407 0.950 . S
H403 C408 0.949 . S
H404 C410 0.950 . S
H405 C411 0.950 . S
H406 C412 0.949 . S
C407 H402 0.950 . S
C407 C409 1.327 . S
C407 C413 1.429 . S
C408 C400 1.574 . S
C408 H403 0.949 . S
C408 C414 1.368 . S
C409 C393 1.349 . S
C409 H401 0.950 . S
C409 C407 1.327 . S
C410 C398 1.349 . S
C410 H404 0.950 . S
C410 C411 1.327 . S
C411 H405 0.950 . S
C411 C410 1.327 . S
C411 C415 1.429 . S
C412 C395 1.574 . S
C412 H406 0.949 . S
C412 C416 1.368 . S
C413 C394 1.429 . S
C413 C407 1.429 . S
C413 C414 1.523 . S
C414 C395 1.368 . S
C414 C408 1.368 . S
C414 C413 1.523 . S
C415 C399 1.429 . S
C415 C411 1.429 . S
C415 C416 1.523 . S
C416 C400 1.368 . S
C416 C412 1.368 . S
C416 C415 1.523 . S
H417 C392 0.950 . S
H418 C394 0.950 . S
H419 C395 0.949 . S
H420 C397 0.950 . S
H421 C399 0.950 . S
C422 C423 1.349 . S
C422 C424 1.327 . S
C422 H447 0.950 . S
C423 C422 1.349 . S
C423 C439 1.349 . S
C424 C422 1.327 . S
C424 C443 1.429 . S
C424 H448 0.950 . S
C425 C442 1.574 . S
C425 C444 1.368 . S
C425 H449 0.949 . S
H426 C430 0.949 . S
C427 C428 1.349 . S
C427 C429 1.327 . S
C427 H450 0.950 . S
C428 C427 1.349 . S
C428 C440 1.349 . S
C429 C427 1.327 . S
C429 C445 1.429 . S
C429 H451 0.950 . S
C430 H426 0.949 . S
C430 C438 1.574 . S
C430 C446 1.368 . S
H431 C439 0.950 . S
H432 C437 0.950 . S
H433 C438 0.949 . S
H434 C440 0.950 . S
H435 C441 0.950 . S
H436 C442 0.949 . S
C437 H432 0.950 . S
C437 C439 1.327 . S
C437 C443 1.429 . S
C438 C430 1.574 . S
C438 H433 0.949 . S
C438 C444 1.368 . S
C439 C423 1.349 . S
C439 H431 0.950 . S
C439 C437 1.327 . S
C440 C428 1.349 . S
C440 H434 0.950 . S
C440 C441 1.327 . S
C441 H435 0.950 . S
C441 C440 1.327 . S
C441 C445 1.429 . S
C442 C425 1.574 . S
C442 H436 0.949 . S
C442 C446 1.368 . S
C443 C424 1.429 . S
C443 C437 1.429 . S
C443 C444 1.523 . S
C444 C425 1.368 . S
C444 C438 1.368 . S
C444 C443 1.523 . S
C445 C429 1.429 . S
C445 C441 1.429 . S
C445 C446 1.523 . S
C446 C430 1.368 . S
C446 C442 1.368 . S
C446 C445 1.523 . S
H447 C422 0.950 . S
H448 C424 0.950 . S
H449 C425 0.949 . S
H450 C427 0.950 . S
H451 C429 0.950 . S
C452 C453 1.349 . S
C452 C454 1.327 . S
C452 H477 0.950 . S
C453 C452 1.349 . S
C453 C469 1.349 . S
C454 C452 1.327 . S
C454 C473 1.429 . S
C454 H478 0.950 . S
C455 C472 1.574 . S
C455 C474 1.368 . S
C455 H479 0.949 . S
H456 C460 0.949 . S
C457 C458 1.349 . S
C457 C459 1.327 . S
C457 H480 0.950 . S
C458 C457 1.349 . S
C458 C470 1.349 . S
C459 C457 1.327 . S
C459 C475 1.429 . S
C459 H481 0.950 . S
C460 H456 0.949 . S
C460 C468 1.574 . S
C460 C476 1.368 . S
H461 C469 0.950 . S
H462 C467 0.950 . S
H463 C468 0.949 . S
H464 C470 0.950 . S
H465 C471 0.950 . S
H466 C472 0.949 . S
C467 H462 0.950 . S
C467 C469 1.327 . S
C467 C473 1.429 . S
C468 C460 1.574 . S
C468 H463 0.949 . S
C468 C474 1.368 . S
C469 C453 1.349 . S
C469 H461 0.950 . S
C469 C467 1.327 . S
C470 C458 1.349 . S
C470 H464 0.950 . S
C470 C471 1.327 . S
C471 H465 0.950 . S
C471 C470 1.327 . S
C471 C475 1.429 . S
C472 C455 1.574 . S
C472 H466 0.949 . S
C472 C476 1.368 . S
C473 C454 1.429 . S
C473 C467 1.429 . S
C473 C474 1.523 . S
C474 C455 1.368 . S
C474 C468 1.368 . S
C474 C473 1.523 . S
C475 C459 1.429 . S
C475 C471 1.429 . S
C475 C476 1.523 . S
C476 C460 1.368 . S
C476 C472 1.368 . S
C476 C475 1.523 . S
H477 C452 0.950 . S
H478 C454 0.950 . S
H479 C455 0.949 . S
H480 C457 0.950 . S
H481 C459 0.950 . S
C482 C483 1.349 . S
C482 C484 1.327 . S
C482 H507 0.950 . S
C483 C482 1.349 . S
C483 C499 1.349 . S
C484 C482 1.327 . S
C484 C503 1.429 . S
C484 H508 0.950 . S
C485 C502 1.574 . S
C485 C504 1.368 . S
C485 H509 0.949 . S
H486 C490 0.949 . S
C487 C488 1.349 . S
C487 C489 1.327 . S
C487 H510 0.950 . S
C488 C487 1.349 . S
C488 C500 1.349 . S
C489 C487 1.327 . S
C489 C505 1.429 . S
C489 H511 0.950 . S
C490 H486 0.949 . S
C490 C498 1.574 . S
C490 C506 1.368 . S
H491 C499 0.950 . S
H492 C497 0.950 . S
H493 C498 0.949 . S
H494 C500 0.950 . S
H495 C501 0.950 . S
H496 C502 0.949 . S
C497 H492 0.950 . S
C497 C499 1.327 . S
C497 C503 1.429 . S
C498 C490 1.574 . S
C498 H493 0.949 . S
C498 C504 1.368 . S
C499 C483 1.349 . S
C499 H491 0.950 . S
C499 C497 1.327 . S
C500 C488 1.349 . S
C500 H494 0.950 . S
C500 C501 1.327 . S
C501 H495 0.950 . S
C501 C500 1.327 . S
C501 C505 1.429 . S
C502 C485 1.574 . S
C502 H496 0.949 . S
C502 C506 1.368 . S
C503 C484 1.429 . S
C503 C497 1.429 . S
C503 C504 1.523 . S
C504 C485 1.368 . S
C504 C498 1.368 . S
C504 C503 1.523 . S
C505 C489 1.429 . S
C505 C501 1.429 . S
C505 C506 1.523 . S
C506 C490 1.368 . S
C506 C502 1.368 . S
C506 C505 1.523 . S
H507 C482 0.950 . S
H508 C484 0.950 . S
H509 C485 0.949 . S
H510 C487 0.950 . S
H511 C489 0.950 . S
C512 C513 1.349 . S
C512 C514 1.327 . S
C512 H537 0.950 . S
C513 C512 1.349 . S
C513 C529 1.349 . S
C514 C512 1.327 . S
C514 C533 1.429 . S
C514 H538 0.950 . S
C515 C532 1.574 . S
C515 C534 1.368 . S
C515 H539 0.949 . S
H516 C520 0.949 . S
C517 C518 1.349 . S
C517 C519 1.327 . S
C517 H540 0.950 . S
C518 C517 1.349 . S
C518 C530 1.349 . S
C519 C517 1.327 . S
C519 C535 1.429 . S
C519 H541 0.950 . S
C520 H516 0.949 . S
C520 C528 1.574 1_655 S
C520 C536 1.368 . S
H521 C529 0.950 . S
H522 C527 0.950 1_655 S
H523 C528 0.949 . S
H524 C530 0.950 . S
H525 C531 0.950 . S
H526 C532 0.949 . S
C527 H522 0.950 1_455 S
C527 C529 1.327 . S
C527 C533 1.429 . S
C528 C520 1.574 1_455 S
C528 H523 0.949 . S
C528 C534 1.368 1_455 S
C529 C513 1.349 . S
C529 H521 0.950 . S
C529 C527 1.327 . S
C530 C518 1.349 . S
C530 H524 0.950 . S
C530 C531 1.327 . S
C531 H525 0.950 . S
C531 C530 1.327 . S
C531 C535 1.429 . S
C532 C515 1.574 . S
C532 H526 0.949 . S
C532 C536 1.368 . S
C533 C514 1.429 . S
C533 C527 1.429 . S
C533 C534 1.523 1_455 S
C534 C515 1.368 . S
C534 C528 1.368 1_655 S
C534 C533 1.523 1_655 S
C535 C519 1.429 . S
C535 C531 1.429 . S
C535 C536 1.523 . S
C536 C520 1.368 . S
C536 C532 1.368 . S
C536 C535 1.523 . S
H537 C512 0.950 . S
H538 C514 0.950 . S
H539 C515 0.949 . S
H540 C517 0.950 . S
H541 C519 0.950 . S
C542 C543 1.349 . S
C542 C544 1.327 . S
C542 H567 0.950 . S
C543 C542 1.349 . S
C543 C559 1.349 . S
C544 C542 1.327 . S
C544 C563 1.429 . S
C544 H568 0.950 . S
C545 C562 1.574 1_655 S
C545 C564 1.368 . S
C545 H569 0.949 . S
H546 C550 0.949 . S
C547 C548 1.349 . S
C547 C549 1.327 . S
C547 H570 0.950 . S
C548 C547 1.349 . S
C548 C560 1.349 . S
C549 C547 1.327 . S
C549 C565 1.429 . S
C549 H571 0.950 . S
C550 H546 0.949 . S
C550 C558 1.574 . S
C550 C566 1.368 . S
H551 C559 0.950 . S
H552 C557 0.950 . S
H553 C558 0.949 . S
H554 C560 0.950 . S
H555 C561 0.950 1_655 S
H556 C562 0.949 . S
C557 H552 0.950 . S
C557 C559 1.327 . S
C557 C563 1.429 . S
C558 C550 1.574 . S
C558 H553 0.949 . S
C558 C564 1.368 . S
C559 C543 1.349 . S
C559 H551 0.950 . S
C559 C557 1.327 . S
C560 C548 1.349 . S
C560 H554 0.950 . S
C560 C561 1.327 . S
C561 H555 0.950 1_455 S
C561 C560 1.327 . S
C561 C565 1.429 . S
C562 C545 1.574 1_455 S
C562 H556 0.949 . S
C562 C566 1.368 1_455 S
C563 C544 1.429 . S
C563 C557 1.429 . S
C563 C564 1.523 . S
C564 C545 1.368 . S
C564 C558 1.368 . S
C564 C563 1.523 . S
C565 C549 1.429 . S
C565 C561 1.429 . S
C565 C566 1.523 1_455 S
C566 C550 1.368 . S
C566 C562 1.368 1_655 S
C566 C565 1.523 1_655 S
H567 C542 0.950 . S
H568 C544 0.950 . S
H569 C545 0.949 . S
H570 C547 0.950 . S
H571 C549 0.950 . S
C572 C573 1.349 . S
C572 C574 1.327 . S
C572 H597 0.950 . S
C573 C572 1.349 . S
C573 C589 1.349 . S
C574 C572 1.327 . S
C574 C593 1.429 . S
C574 H598 0.950 . S
C575 C592 1.574 . S
C575 C594 1.368 . S
C575 H599 0.949 . S
H576 C580 0.949 . S
C577 C578 1.349 . S
C577 C579 1.327 . S
C577 H600 0.950 . S
C578 C577 1.349 . S
C578 C590 1.349 . S
C579 C577 1.327 . S
C579 C595 1.429 . S
C579 H601 0.950 1_655 S
C580 H576 0.949 . S
C580 C588 1.574 1_655 S
C580 C596 1.368 1_655 S
H581 C589 0.950 . S
H582 C587 0.950 . S
H583 C588 0.949 . S
H584 C590 0.950 . S
H585 C591 0.950 . S
H586 C592 0.949 . S
C587 H582 0.950 . S
C587 C589 1.327 . S
C587 C593 1.429 . S
C588 C580 1.574 1_455 S
C588 H583 0.949 . S
C588 C594 1.368 . S
C589 C573 1.349 . S
C589 H581 0.950 . S
C589 C587 1.327 . S
C590 C578 1.349 . S
C590 H584 0.950 . S
C590 C591 1.327 . S
C591 H585 0.950 . S
C591 C590 1.327 . S
C591 C595 1.429 . S
C592 C575 1.574 . S
C592 H586 0.949 . S
C592 C596 1.368 . S
C593 C574 1.429 . S
C593 C587 1.429 . S
C593 C594 1.523 . S
C594 C575 1.368 . S
C594 C588 1.368 . S
C594 C593 1.523 . S
C595 C579 1.429 . S
C595 C591 1.429 . S
C595 C596 1.523 1_655 S
C596 C580 1.368 1_455 S
C596 C592 1.368 . S
C596 C595 1.523 1_455 S
H597 C572 0.950 . S
H598 C574 0.950 . S
H599 C575 0.949 . S
H600 C577 0.950 . S
H601 C579 0.950 1_455 S
C602 C603 1.349 . S
C602 C604 1.327 . S
C602 H627 0.950 . S
C603 C602 1.349 . S
C603 C619 1.349 . S
C604 C602 1.327 . S
C604 C623 1.429 . S
C604 H628 0.950 . S
C605 C622 1.574 1_455 S
C605 C624 1.368 . S
C605 H629 0.949 . S
H606 C610 0.949 . S
C607 C608 1.349 . S
C607 C609 1.327 . S
C607 H630 0.950 . S
C608 C607 1.349 . S
C608 C620 1.349 . S
C609 C607 1.327 . S
C609 C625 1.429 . S
C609 H631 0.950 . S
C610 H606 0.949 . S
C610 C618 1.574 . S
C610 C626 1.368 . S
H611 C619 0.950 . S
H612 C617 0.950 . S
H613 C618 0.949 . S
H614 C620 0.950 . S
H615 C621 0.950 1_455 S
H616 C622 0.949 . S
C617 H612 0.950 . S
C617 C619 1.327 . S
C617 C623 1.429 . S
C618 C610 1.574 . S
C618 H613 0.949 . S
C618 C624 1.368 . S
C619 C603 1.349 . S
C619 H611 0.950 . S
C619 C617 1.327 . S
C620 C608 1.349 . S
C620 H614 0.950 . S
C620 C621 1.327 . S
C621 H615 0.950 1_655 S
C621 C620 1.327 . S
C621 C625 1.429 . S
C622 C605 1.574 1_655 S
C622 H616 0.949 . S
C622 C626 1.368 1_655 S
C623 C604 1.429 . S
C623 C617 1.429 . S
C623 C624 1.523 . S
C624 C605 1.368 . S
C624 C618 1.368 . S
C624 C623 1.523 . S
C625 C609 1.429 . S
C625 C621 1.429 . S
C625 C626 1.523 1_655 S
C626 C610 1.368 . S
C626 C622 1.368 1_455 S
C626 C625 1.523 1_455 S
H627 C602 0.950 . S
H628 C604 0.950 . S
H629 C605 0.949 . S
H630 C607 0.950 . S
H631 C609 0.950 . S
C153 C26 1.866 . S
C158 C2 1.866 1_655 S
C183 C64 1.866 1_455 S
C188 C40 1.866 . S
C213 C102 1.866 . S
C218 C78 1.866 1_655 S
C243 C140 1.866 1_455 S
C248 C116 1.866 . S
C273 C57 1.580 . S
C278 C20 1.580 . S
C303 C133 1.580 . S
C308 C96 1.580 . S
C333 C19 1.580 . S
C338 C58 1.580 . S
C363 C134 1.580 . S
C368 C95 1.580 . S
C393 C118 1.084 . S
C398 C17 1.118 . S
C423 C42 1.084 . S
C428 C93 1.118 . S
C453 C99 1.084 . S
C458 C66 1.118 . S
C483 C23 1.084 . S
C488 C142 1.118 . S
C513 C80 1.084 . S
C518 C55 1.118 . S
C543 C131 1.118 . S
C548 C4 1.084 . S
C573 C28 1.118 . S
C578 C137 1.084 . S
C603 C104 1.118 . S
C608 C61 1.084 . S
