# Generated by pormake.
# Topology upb, (4)-cn, num edge types: 1
# Building blocks:
#     Node 0, Type 0, BuildingBlock: NAHDIM_clean_sbu_0, # of connection points: 4
#     Node 1, Type 0, BuildingBlock: NAHDIM_clean_sbu_0, # of connection points: 4
#     Node 2, Type 0, BuildingBlock: NAHDIM_clean_sbu_0, # of connection points: 4
#     Node 3, Type 0, BuildingBlock: NAHDIM_clean_sbu_0, # of connection points: 4
#     Node 4, Type 0, BuildingBlock: NAHDIM_clean_sbu_0, # of connection points: 4
#     Node 5, Type 0, BuildingBlock: NAHDIM_clean_sbu_0, # of connection points: 4
#     Node 6, Type 0, BuildingBlock: NAHDIM_clean_sbu_0, # of connection points: 4
#     Node 7, Type 0, BuildingBlock: NAHDIM_clean_sbu_0, # of connection points: 4
#     Node 8, Type 0, BuildingBlock: NAHDIM_clean_sbu_0, # of connection points: 4
#     Node 9, Type 0, BuildingBlock: NAHDIM_clean_sbu_0, # of connection points: 4
#     Node 10, Type 0, BuildingBlock: NAHDIM_clean_sbu_0, # of connection points: 4
#     Node 11, Type 0, BuildingBlock: NAHDIM_clean_sbu_0, # of connection points: 4
#     Node 12, Type 0, BuildingBlock: NAHDIM_clean_sbu_0, # of connection points: 4
#     Node 13, Type 0, BuildingBlock: NAHDIM_clean_sbu_0, # of connection points: 4
#     Node 14, Type 0, BuildingBlock: NAHDIM_clean_sbu_0, # of connection points: 4
#     Node 15, Type 0, BuildingBlock: NAHDIM_clean_sbu_0, # of connection points: 4
#     Edge 16, Type (0, 0), BuildingBlock: KIFKEQ_clean_linker_1, # of connection points: 2
#     Edge 17, Type (0, 0), BuildingBlock: KIFKEQ_clean_linker_1, # of connection points: 2
#     Edge 18, Type (0, 0), BuildingBlock: KIFKEQ_clean_linker_1, # of connection points: 2
#     Edge 19, Type (0, 0), BuildingBlock: KIFKEQ_clean_linker_1, # of connection points: 2
#     Edge 20, Type (0, 0), BuildingBlock: KIFKEQ_clean_linker_1, # of connection points: 2
#     Edge 21, Type (0, 0), BuildingBlock: KIFKEQ_clean_linker_1, # of connection points: 2
#     Edge 22, Type (0, 0), BuildingBlock: KIFKEQ_clean_linker_1, # of connection points: 2
#     Edge 23, Type (0, 0), BuildingBlock: KIFKEQ_clean_linker_1, # of connection points: 2
#     Edge 24, Type (0, 0), BuildingBlock: KIFKEQ_clean_linker_1, # of connection points: 2
#     Edge 25, Type (0, 0), BuildingBlock: KIFKEQ_clean_linker_1, # of connection points: 2
#     Edge 26, Type (0, 0), BuildingBlock: KIFKEQ_clean_linker_1, # of connection points: 2
#     Edge 27, Type (0, 0), BuildingBlock: KIFKEQ_clean_linker_1, # of connection points: 2
#     Edge 28, Type (0, 0), BuildingBlock: KIFKEQ_clean_linker_1, # of connection points: 2
#     Edge 29, Type (0, 0), BuildingBlock: KIFKEQ_clean_linker_1, # of connection points: 2
#     Edge 30, Type (0, 0), BuildingBlock: KIFKEQ_clean_linker_1, # of connection points: 2
#     Edge 31, Type (0, 0), BuildingBlock: KIFKEQ_clean_linker_1, # of connection points: 2
#     Edge 32, Type (0, 0), BuildingBlock: KIFKEQ_clean_linker_1, # of connection points: 2
#     Edge 33, Type (0, 0), BuildingBlock: KIFKEQ_clean_linker_1, # of connection points: 2
#     Edge 34, Type (0, 0), BuildingBlock: KIFKEQ_clean_linker_1, # of connection points: 2
#     Edge 35, Type (0, 0), BuildingBlock: KIFKEQ_clean_linker_1, # of connection points: 2
#     Edge 36, Type (0, 0), BuildingBlock: KIFKEQ_clean_linker_1, # of connection points: 2
#     Edge 37, Type (0, 0), BuildingBlock: KIFKEQ_clean_linker_1, # of connection points: 2
#     Edge 38, Type (0, 0), BuildingBlock: KIFKEQ_clean_linker_1, # of connection points: 2
#     Edge 39, Type (0, 0), BuildingBlock: KIFKEQ_clean_linker_1, # of connection points: 2
#     Edge 40, Type (0, 0), BuildingBlock: KIFKEQ_clean_linker_1, # of connection points: 2
#     Edge 41, Type (0, 0), BuildingBlock: KIFKEQ_clean_linker_1, # of connection points: 2
#     Edge 42, Type (0, 0), BuildingBlock: KIFKEQ_clean_linker_1, # of connection points: 2
#     Edge 43, Type (0, 0), BuildingBlock: KIFKEQ_clean_linker_1, # of connection points: 2
#     Edge 44, Type (0, 0), BuildingBlock: KIFKEQ_clean_linker_1, # of connection points: 2
#     Edge 45, Type (0, 0), BuildingBlock: KIFKEQ_clean_linker_1, # of connection points: 2
#     Edge 46, Type (0, 0), BuildingBlock: KIFKEQ_clean_linker_1, # of connection points: 2
#     Edge 47, Type (0, 0), BuildingBlock: KIFKEQ_clean_linker_1, # of connection points: 2
# Relax obj value: 0.223
# Max RMSD: 0.104
# Mean RMSD: 0.104
data_MOF--net-upb--node1-NAHDIM_clean_sbu_0--edge1-KIFKEQ_clean_linker_1
_symmetry_space_group_name_H-M    P1
_symmetry_Int_Tables_number       1
_symmetry_cell_setting            triclinic
loop_
_symmetry_equiv_pos_as_xyz
'x, y, z'
_cell_length_a     40.083838
_cell_length_b     40.078146
_cell_length_c     45.848092
_cell_angle_alpha  90.089566
_cell_angle_beta   89.927347
_cell_angle_gamma 89.97156
loop_
_atom_site_label
_atom_site_type_symbol
_atom_site_fract_x
_atom_site_fract_y
_atom_site_fract_z
_atom_type_partial_charge
C0 C 0.02738 0.33766 0.3194 0.0
O1 O 0.03914 0.33612 0.34608 0.0
O2 O 0.00121 0.28417 0.37741 0.0
Zn3 Zn 0.00453 0.27242 0.3347 0.0
O4 O 0.04498 0.2433 0.32842 0.0
C5 C 0.93753 0.24752 0.33964 0.0
O6 O 0.9366 0.26915 0.36118 0.0
O7 O 0.01 0.31351 0.30978 0.0
C8 C 0.04331 0.212 0.33255 0.0
O9 O 0.01492 0.19889 0.34114 0.0
C10 C 0.02585 0.2847 0.39482 0.0
O11 O 0.05595 0.27848 0.38481 0.0
O12 O 0.96353 0.24585 0.32379 0.0
C13 C 0.66409 0.02584 0.31484 0.0
O14 O 0.66435 0.0356 0.34218 0.0
O15 O 0.71864 0.99888 0.37225 0.0
Zn16 Zn 0.73039 0.00503 0.32966 0.0
O17 O 0.75886 0.04615 0.32523 0.0
C18 C 0.75554 0.93735 0.32798 0.0
O19 O 0.73147 0.93194 0.34686 0.0
O20 O 0.68939 0.0106 0.30467 0.0
C21 C 0.78453 0.04928 0.34123 0.0
O22 O 0.79163 0.02572 0.36013 0.0
C23 C 0.7171 0.02318 0.39008 0.0
O24 O 0.72165 0.05369 0.38045 0.0
O25 O 0.75858 0.96619 0.31681 0.0
C26 C 0.96226 0.66038 0.31692 0.0
O27 O 0.94589 0.66839 0.34075 0.0
O28 O 0.99727 0.71411 0.37321 0.0
Zn29 Zn 0.99147 0.7226 0.33014 0.0
O30 O 0.95052 0.75102 0.32416 0.0
C31 C 0.05925 0.74743 0.32826 0.0
O32 O 0.0639 0.72547 0.34911 0.0
O33 O 0.98515 0.67975 0.30792 0.0
C34 C 0.95243 0.78239 0.32785 0.0
O35 O 0.98117 0.79557 0.33537 0.0
C36 C 0.97354 0.718 0.39133 0.0
O37 O 0.94385 0.72641 0.38173 0.0
O38 O 0.03097 0.74897 0.31583 0.0
C39 C 0.33678 0.98467 0.30874 0.0
O40 O 0.34245 0.9909 0.33642 0.0
O41 O 0.2772 0.99852 0.36682 0.0
Zn42 Zn 0.26609 0.99056 0.3246 0.0
O43 O 0.23914 0.94819 0.32186 0.0
C44 C 0.24079 0.05785 0.32163 0.0
O45 O 0.26603 0.06382 0.33913 0.0
O46 O 0.30694 0.9848 0.29935 0.0
C47 C 0.2077 0.94904 0.32537 0.0
O48 O 0.1932 0.97773 0.33106 0.0
C49 C 0.28749 0.97582 0.3839 0.0
O50 O 0.29292 0.94569 0.37358 0.0
O51 O 0.23714 0.02868 0.3112 0.0
C52 C 0.02958 0.66906 0.68137 0.0
O53 O 0.04475 0.67604 0.6567 0.0
O54 O 0.99765 0.72225 0.62577 0.0
Zn55 Zn 0.00308 0.73219 0.66876 0.0
O56 O 0.04517 0.75902 0.67501 0.0
C57 C 0.93582 0.7584 0.66943 0.0
O58 O 0.93136 0.73665 0.64832 0.0
O59 O 0.00819 0.68958 0.69129 0.0
C60 C 0.04455 0.79033 0.67943 0.0
O61 O 0.01568 0.8058 0.6805 0.0
C62 C 0.01794 0.73348 0.60685 0.0
O63 O 0.04351 0.75143 0.61543 0.0
O64 O 0.96381 0.75945 0.68237 0.0
C65 C 0.33979 0.02682 0.67479 0.0
O66 O 0.3373 0.03868 0.64821 0.0
O67 O 0.2842 0.99527 0.61841 0.0
Zn68 Zn 0.27443 0.00217 0.66123 0.0
O69 O 0.2459 0.04323 0.66623 0.0
C70 C 0.2473 0.93522 0.66306 0.0
O71 O 0.26706 0.93055 0.64054 0.0
O72 O 0.31633 0.00882 0.6848 0.0
C73 C 0.21485 0.04163 0.66086 0.0
O74 O 0.20219 0.01329 0.6516 0.0
C75 C 0.28488 0.01933 0.60038 0.0
O76 O 0.28015 0.04992 0.60988 0.0
O77 O 0.24766 0.96322 0.67611 0.0
C78 C 0.98866 0.33438 0.68826 0.0
O79 O 0.99764 0.34156 0.66144 0.0
O80 O 0.00419 0.27869 0.62783 0.0
Zn81 Zn 0.99332 0.26486 0.66888 0.0
O82 O 0.95052 0.23875 0.66758 0.0
C83 C 0.05964 0.23836 0.6741 0.0
O84 O 0.06708 0.26545 0.65936 0.0
O85 O 0.9868 0.30399 0.69605 0.0
C86 C 0.9362 0.22904 0.6908 0.0
O87 O 0.94955 0.2365 0.71614 0.0
C88 C 0.98277 0.29135 0.61071 0.0
O89 O 0.95258 0.29767 0.62047 0.0
O90 O 0.02964 0.23373 0.68215 0.0
C91 C 0.66355 0.9674 0.68109 0.0
O92 O 0.67073 0.95228 0.65642 0.0
O93 O 0.71493 0.00241 0.62439 0.0
Zn94 Zn 0.72511 0.99753 0.66737 0.0
O95 O 0.75423 0.95709 0.67352 0.0
C96 C 0.74734 0.06622 0.66861 0.0
O97 O 0.72571 0.06949 0.6473 0.0
O98 O 0.68305 0.99005 0.69034 0.0
C99 C 0.78587 0.95902 0.67364 0.0
O100 O 0.80012 0.98823 0.66998 0.0
C101 C 0.72241 0.97973 0.60608 0.0
O102 O 0.7362 0.95199 0.61538 0.0
O103 O 0.75014 0.03815 0.68124 0.0
C104 C 0.53488 0.82882 0.81932 0.0
O105 O 0.55002 0.82324 0.84424 0.0
O106 O 0.50339 0.77757 0.8766 0.0
Zn107 Zn 0.50855 0.76593 0.83398 0.0
O108 O 0.55046 0.73835 0.82825 0.0
C109 C 0.44059 0.74083 0.83357 0.0
O110 O 0.43591 0.76333 0.85404 0.0
O111 O 0.51381 0.80758 0.81014 0.0
C112 C 0.54915 0.70726 0.82277 0.0
O113 O 0.51992 0.6926 0.82101 0.0
C114 C 0.51319 0.75703 0.89586 0.0
O115 O 0.52677 0.72874 0.88754 0.0
O116 O 0.46889 0.73885 0.82118 0.0
C117 C 0.16281 0.53134 0.81594 0.0
O118 O 0.1681 0.54506 0.84156 0.0
O119 O 0.21651 0.49826 0.8717 0.0
Zn120 Zn 0.22648 0.50455 0.82887 0.0
O121 O 0.25495 0.54564 0.82386 0.0
C122 C 0.25182 0.4369 0.82685 0.0
O123 O 0.22984 0.43202 0.8477 0.0
O124 O 0.18436 0.51113 0.8058 0.0
C125 C 0.28635 0.54368 0.82728 0.0
O126 O 0.29969 0.51469 0.83379 0.0
C127 C 0.2208 0.52167 0.89007 0.0
O128 O 0.23071 0.55105 0.88085 0.0
O129 O 0.25325 0.46527 0.81456 0.0
C130 C 0.46565 0.16662 0.81384 0.0
O131 O 0.44931 0.17394 0.83788 0.0
O132 O 0.49871 0.219 0.87086 0.0
Zn133 Zn 0.49349 0.22898 0.82795 0.0
O134 O 0.45204 0.2567 0.82189 0.0
C135 C 0.56124 0.25393 0.8271 0.0
O136 O 0.56576 0.23119 0.84733 0.0
O137 O 0.48807 0.18658 0.80495 0.0
C138 C 0.45322 0.28832 0.82373 0.0
O139 O 0.48187 0.30281 0.82943 0.0
C140 C 0.47533 0.22413 0.88909 0.0
O141 O 0.44643 0.23523 0.87975 0.0
O142 O 0.533 0.25606 0.81468 0.0
C143 C 0.84587 0.47904 0.81223 0.0
O144 O 0.84971 0.48217 0.84054 0.0
O145 O 0.78477 0.49836 0.86753 0.0
Zn146 Zn 0.77532 0.49082 0.82491 0.0
O147 O 0.74681 0.44959 0.82138 0.0
C148 C 0.75055 0.55832 0.8228 0.0
O149 O 0.77293 0.56272 0.84336 0.0
O150 O 0.81709 0.48323 0.80116 0.0
C151 C 0.71542 0.45155 0.82498 0.0
O152 O 0.70203 0.48067 0.83107 0.0
C153 C 0.79149 0.47498 0.88526 0.0
O154 O 0.79422 0.44427 0.87548 0.0
O155 O 0.74852 0.53003 0.81034 0.0
C156 C 0.53336 0.16464 0.17877 0.0
O157 O 0.54942 0.17364 0.15506 0.0
O158 O 0.497 0.21715 0.12331 0.0
Zn159 Zn 0.50291 0.22607 0.16638 0.0
O160 O 0.5437 0.2547 0.17234 0.0
C161 C 0.43511 0.25087 0.16844 0.0
O162 O 0.43066 0.2295 0.14704 0.0
O163 O 0.51 0.1832 0.18823 0.0
C164 C 0.5418 0.28614 0.16922 0.0
O165 O 0.51296 0.29957 0.16232 0.0
C166 C 0.52012 0.22284 0.10497 0.0
O167 O 0.54907 0.23386 0.11428 0.0
O168 O 0.46329 0.25208 0.18107 0.0
C169 C 0.83425 0.52496 0.17649 0.0
O170 O 0.8339 0.53571 0.14946 0.0
O171 O 0.77826 0.49723 0.11925 0.0
Zn172 Zn 0.7675 0.50493 0.16173 0.0
O173 O 0.74076 0.54736 0.16596 0.0
C174 C 0.74097 0.43791 0.16498 0.0
O175 O 0.76471 0.43149 0.14599 0.0
O176 O 0.80894 0.50948 0.18629 0.0
C177 C 0.70945 0.54674 0.16167 0.0
O178 O 0.69531 0.51852 0.15393 0.0
C179 C 0.7813 0.52105 0.10117 0.0
O180 O 0.77836 0.55196 0.11041 0.0
O181 O 0.73865 0.46709 0.17567 0.0
C182 C 0.48134 0.84257 0.18493 0.0
O183 O 0.48316 0.8463 0.15652 0.0
O184 O 0.49915 0.78201 0.12896 0.0
Zn185 Zn 0.49203 0.77222 0.17158 0.0
O186 O 0.45031 0.74447 0.17542 0.0
C187 C 0.55952 0.7473 0.17372 0.0
O188 O 0.56485 0.7718 0.15528 0.0
O189 O 0.48589 0.81379 0.19586 0.0
C190 C 0.45161 0.7133 0.17045 0.0
O191 O 0.48023 0.69985 0.16282 0.0
C192 C 0.47518 0.78618 0.11123 0.0
O193 O 0.44442 0.78632 0.12117 0.0
O194 O 0.53075 0.74414 0.18507 0.0
C195 C 0.16559 0.46491 0.18041 0.0
O196 O 0.17345 0.44865 0.15646 0.0
O197 O 0.21819 0.49869 0.1241 0.0
Zn198 Zn 0.22787 0.49305 0.16702 0.0
O199 O 0.25539 0.45142 0.17304 0.0
C200 C 0.25277 0.56088 0.1688 0.0
O201 O 0.22988 0.56587 0.14878 0.0
O202 O 0.18522 0.48749 0.18959 0.0
C203 C 0.28706 0.45253 0.17216 0.0
O204 O 0.30186 0.48126 0.16743 0.0
C205 C 0.22384 0.47562 0.10568 0.0
O206 O 0.23547 0.44683 0.1148 0.0
O207 O 0.25494 0.53237 0.18074 0.0
H208 H 0.10703 0.23135 0.319 0.0
H209 H 0.04665 0.14409 0.33565 0.0
H210 H 0.15594 0.19573 0.31229 0.0
H211 H 0.0955 0.1087 0.3293 0.0
H212 H 0.18186 0.05096 0.29221 0.0
H213 H 0.13488 0.08958 0.29173 0.0
H214 H 0.19177 0.15997 0.34287 0.0
H215 H 0.23897 0.12157 0.34306 0.0
C216 C 0.10416 0.20459 0.32117 0.0
C217 C 0.07295 0.19056 0.32793 0.0
C218 C 0.13221 0.18423 0.31742 0.0
C219 C 0.12958 0.1494 0.32017 0.0
C220 C 0.09827 0.13539 0.32659 0.0
C221 C 0.07031 0.15573 0.33047 0.0
C222 C 0.18458 0.07488 0.30298 0.0
C223 C 0.2141 0.08306 0.31788 0.0
C224 C 0.15755 0.0969 0.30287 0.0
C225 C 0.15946 0.12765 0.31756 0.0
C226 C 0.18956 0.13655 0.33122 0.0
C227 C 0.21658 0.11446 0.33141 0.0
H228 H 0.88808 0.23369 0.37862 0.0
H229 H 0.92762 0.20304 0.29499 0.0
H230 H 0.84928 0.18687 0.37767 0.0
H231 H 0.88823 0.15634 0.294 0.0
H232 H 0.78804 0.0946 0.29672 0.0
H233 H 0.82281 0.14487 0.29439 0.0
H234 H 0.86212 0.12282 0.37981 0.0
H235 H 0.82798 0.07248 0.38204 0.0
C236 C 0.88813 0.21733 0.35979 0.0
C237 C 0.9111 0.22195 0.33695 0.0
C238 C 0.86602 0.19045 0.35936 0.0
C239 C 0.86603 0.16794 0.33589 0.0
C240 C 0.88773 0.17345 0.31231 0.0
C241 C 0.91028 0.20009 0.31294 0.0
C242 C 0.80413 0.10053 0.31498 0.0
C243 C 0.80535 0.07962 0.33956 0.0
C244 C 0.82403 0.12917 0.31357 0.0
C245 C 0.84491 0.1377 0.33698 0.0
C246 C 0.84595 0.11692 0.36159 0.0
C247 C 0.82658 0.08803 0.36277 0.0
H248 H 0.8113 0.94269 0.29393 0.0
H249 H 0.75916 0.87442 0.3509 0.0
H250 H 0.85774 0.90364 0.29059 0.0
H251 H 0.8059 0.83556 0.34778 0.0
H252 H 0.88774 0.76285 0.31882 0.0
H253 H 0.83844 0.7985 0.31491 0.0
H254 H 0.90046 0.88572 0.32582 0.0
H255 H 0.94961 0.85032 0.32942 0.0
C256 C 0.80954 0.9192 0.30548 0.0
C257 C 0.78163 0.91182 0.32292 0.0
C258 C 0.83627 0.89692 0.30369 0.0
C259 C 0.83565 0.86671 0.3192 0.0
C260 C 0.80704 0.85856 0.33546 0.0
C261 C 0.78032 0.88091 0.33733 0.0
C262 C 0.89085 0.78966 0.32019 0.0
C263 C 0.92258 0.80377 0.3245 0.0
C264 C 0.8626 0.81003 0.31807 0.0
C265 C 0.86558 0.8449 0.31998 0.0
C266 C 0.89739 0.85897 0.32383 0.0
C267 C 0.92554 0.83864 0.32612 0.0
H268 H 0.12115 0.75378 0.35279 0.0
H269 H 0.05408 0.80095 0.29166 0.0
H270 H 0.15873 0.8015 0.34932 0.0
H271 H 0.09183 0.84838 0.28803 0.0
H272 H 0.1399 0.94371 0.32578 0.0
H273 H 0.10647 0.89316 0.32287 0.0
H274 H 0.19622 0.8339 0.31649 0.0
H275 H 0.22989 0.88464 0.31964 0.0
C276 C 0.1147 0.77402 0.33822 0.0
C277 C 0.08444 0.77369 0.32274 0.0
C278 C 0.1363 0.80131 0.33616 0.0
C279 C 0.12801 0.82886 0.31868 0.0
C280 C 0.09859 0.82776 0.30207 0.0
C281 C 0.07708 0.80045 0.30402 0.0
C282 C 0.15257 0.91995 0.32367 0.0
C283 C 0.18756 0.91821 0.32301 0.0
C284 C 0.13338 0.89098 0.32176 0.0
C285 C 0.14871 0.85956 0.31929 0.0
C286 C 0.18372 0.85776 0.31853 0.0
C287 C 0.20296 0.88682 0.32024 0.0
H288 H 0.10852 0.76679 0.6749 0.0
H289 H 0.05179 0.85723 0.68855 0.0
H290 H 0.16011 0.79913 0.67535 0.0
H291 H 0.10314 0.8895 0.68841 0.0
H292 H 0.2012 0.93809 0.70703 0.0
H293 H 0.15418 0.90068 0.71505 0.0
H294 H 0.18719 0.83908 0.64316 0.0
H295 H 0.23459 0.87603 0.63553 0.0
C296 C 0.10705 0.79353 0.67816 0.0
C297 C 0.07602 0.80947 0.68153 0.0
C298 C 0.13661 0.81206 0.67828 0.0
C299 C 0.13576 0.84689 0.68186 0.0
C300 C 0.10476 0.86265 0.68601 0.0
C301 C 0.07525 0.84416 0.68587 0.0
C302 C 0.19874 0.91628 0.69322 0.0
C303 C 0.22149 0.91022 0.67045 0.0
C304 C 0.17166 0.89496 0.69771 0.0
C305 C 0.1667 0.86713 0.67953 0.0
C306 C 0.19039 0.86015 0.65771 0.0
C307 C 0.21751 0.88145 0.65324 0.0
H308 H 0.2331 0.10467 0.67768 0.0
H309 H 0.14732 0.0452 0.6541 0.0
H310 H 0.19692 0.15307 0.68481 0.0
H311 H 0.11139 0.09357 0.66079 0.0
H312 H 0.05097 0.17721 0.69942 0.0
H313 H 0.08964 0.13027 0.69905 0.0
H314 H 0.16299 0.19092 0.65491 0.0
H315 H 0.12456 0.23807 0.65566 0.0
C316 C 0.20656 0.10191 0.67401 0.0
C317 C 0.1931 0.07108 0.66528 0.0
C318 C 0.18586 0.12967 0.67801 0.0
C319 C 0.15127 0.12714 0.67348 0.0
C320 C 0.13786 0.09623 0.66493 0.0
C321 C 0.15852 0.06855 0.66085 0.0
C322 C 0.07551 0.18071 0.69 0.0
C323 C 0.08456 0.21133 0.67734 0.0
C324 C 0.09758 0.15372 0.68961 0.0
C325 C 0.12922 0.15674 0.67662 0.0
C326 C 0.13887 0.18782 0.66522 0.0
C327 C 0.11677 0.21482 0.66556 0.0
H328 H 0.90131 0.201 0.7359 0.0
H329 H 0.90192 0.21028 0.64199 0.0
H330 H 0.85249 0.16478 0.73287 0.0
H331 H 0.85358 0.17373 0.63898 0.0
H332 H 0.75125 0.12778 0.64316 0.0
H333 H 0.79418 0.17007 0.65042 0.0
H334 H 0.84071 0.10813 0.71582 0.0
H335 H 0.79755 0.06612 0.70895 0.0
C336 C 0.89098 0.19544 0.71463 0.0
C337 C 0.90563 0.2084 0.68918 0.0
C338 C 0.86309 0.17457 0.7129 0.0
C339 C 0.84917 0.16633 0.68569 0.0
C340 C 0.86339 0.17993 0.66031 0.0
C341 C 0.89129 0.2007 0.66203 0.0
C342 C 0.77037 0.12336 0.65936 0.0
C343 C 0.77109 0.09346 0.67532 0.0
C344 C 0.79509 0.14752 0.66339 0.0
C345 C 0.82103 0.14234 0.6835 0.0
C346 C 0.82093 0.11304 0.70033 0.0
C347 C 0.79625 0.08887 0.69628 0.0
H348 H 0.76447 0.89426 0.6768 0.0
H349 H 0.85372 0.95475 0.67724 0.0
H350 H 0.79862 0.84393 0.67978 0.0
H351 H 0.88774 0.9045 0.67982 0.0
H352 H 0.93998 0.81061 0.70773 0.0
H353 H 0.90202 0.85788 0.71212 0.0
H354 H 0.83732 0.81367 0.64748 0.0
H355 H 0.87498 0.76613 0.64334 0.0
C356 C 0.79135 0.89685 0.67766 0.0
C357 C 0.8064 0.92853 0.67669 0.0
C358 C 0.81089 0.868 0.67924 0.0
C359 C 0.84587 0.87023 0.68005 0.0
C360 C 0.86084 0.90194 0.67964 0.0
C361 C 0.84134 0.93075 0.67794 0.0
C362 C 0.91741 0.81069 0.69476 0.0
C363 C 0.91065 0.7847 0.67499 0.0
C364 C 0.89578 0.83791 0.69715 0.0
C365 C 0.86688 0.83969 0.67991 0.0
C366 C 0.85928 0.81294 0.6612 0.0
C367 C 0.88095 0.78574 0.65875 0.0
H368 H 0.61384 0.72943 0.8241 0.0
H369 H 0.55451 0.64023 0.81352 0.0
H370 H 0.66466 0.69616 0.81973 0.0
H371 H 0.60507 0.60703 0.80989 0.0
H372 H 0.69961 0.55662 0.78313 0.0
H373 H 0.6526 0.59496 0.77952 0.0
H374 H 0.69489 0.65551 0.84821 0.0
H375 H 0.74229 0.61773 0.85127 0.0
C376 C 0.61163 0.70275 0.82081 0.0
C377 C 0.58011 0.68747 0.81926 0.0
C378 C 0.64075 0.68368 0.81841 0.0
C379 C 0.63899 0.64891 0.81443 0.0
C380 C 0.60742 0.63379 0.81244 0.0
C381 C 0.57836 0.65283 0.81478 0.0
C382 C 0.69916 0.57841 0.79712 0.0
C383 C 0.72457 0.58393 0.81767 0.0
C384 C 0.67208 0.60027 0.7952 0.0
C385 C 0.66971 0.62808 0.81385 0.0
C386 C 0.69599 0.6345 0.83336 0.0
C387 C 0.72314 0.61271 0.8352 0.0
H388 H 0.44512 0.68738 0.79671 0.0
H389 H 0.37841 0.73544 0.8579 0.0
H390 H 0.40619 0.64104 0.79205 0.0
H391 H 0.33962 0.6888 0.85339 0.0
H392 H 0.26641 0.60875 0.82157 0.0
H393 H 0.3018 0.65837 0.81942 0.0
H394 H 0.38943 0.59607 0.82584 0.0
H395 H 0.35428 0.54662 0.82775 0.0
C396 C 0.42198 0.68829 0.80891 0.0
C397 C 0.41502 0.715 0.82789 0.0
C398 C 0.39978 0.66162 0.80636 0.0
C399 C 0.37005 0.66111 0.82261 0.0
C400 C 0.36227 0.68857 0.84048 0.0
C401 C 0.38457 0.71523 0.84314 0.0
C402 C 0.29324 0.60566 0.82233 0.0
C403 C 0.30755 0.57375 0.82489 0.0
C404 C 0.31346 0.63407 0.82122 0.0
C405 C 0.34837 0.6311 0.82238 0.0
C406 C 0.36263 0.59915 0.82448 0.0
C407 C 0.34246 0.57082 0.82579 0.0
H408 H 0.25867 0.37507 0.85137 0.0
H409 H 0.30489 0.44216 0.78963 0.0
H410 H 0.30637 0.33755 0.84732 0.0
H411 H 0.35231 0.4044 0.78536 0.0
H412 H 0.44819 0.35616 0.82223 0.0
H413 H 0.39769 0.3897 0.81911 0.0
H414 H 0.33823 0.29999 0.81458 0.0
H415 H 0.38887 0.26625 0.81803 0.0
C416 C 0.27869 0.38153 0.83654 0.0
C417 C 0.27811 0.41178 0.82106 0.0
C418 C 0.30598 0.35995 0.83413 0.0
C419 C 0.33327 0.36821 0.81627 0.0
C420 C 0.3319 0.39764 0.79969 0.0
C421 C 0.3046 0.41915 0.802 0.0
C422 C 0.42439 0.34353 0.82041 0.0
C423 C 0.42256 0.30854 0.82048 0.0
C424 C 0.39545 0.36278 0.8184 0.0
C425 C 0.36397 0.34748 0.81652 0.0
C426 C 0.36212 0.31247 0.81622 0.0
C427 C 0.39113 0.29318 0.81807 0.0
H428 H 0.64746 0.44854 0.82598 0.0
H429 H 0.73531 0.38652 0.81846 0.0
H430 H 0.61229 0.39915 0.82315 0.0
H431 H 0.69992 0.33699 0.81536 0.0
H432 H 0.6234 0.25861 0.85142 0.0
H433 H 0.66206 0.30547 0.84827 0.0
H434 H 0.59551 0.35518 0.7884 0.0
H435 H 0.55666 0.30859 0.79173 0.0
C436 C 0.65928 0.42438 0.82358 0.0
C437 C 0.69419 0.42148 0.82252 0.0
C438 C 0.6391 0.39608 0.82172 0.0
C439 C 0.65333 0.36418 0.81891 0.0
C440 C 0.68825 0.36123 0.8177 0.0
C441 C 0.70848 0.38961 0.81937 0.0
C442 C 0.61721 0.27931 0.83725 0.0
C443 C 0.58679 0.27998 0.82204 0.0
C444 C 0.63945 0.30611 0.83538 0.0
C445 C 0.63164 0.33416 0.81833 0.0
C446 C 0.60194 0.33414 0.80209 0.0
C447 C 0.57979 0.30732 0.80386 0.0
H448 H 0.68553 0.44542 0.19915 0.0
H449 H 0.73599 0.37444 0.14335 0.0
H450 H 0.63845 0.40734 0.20362 0.0
H451 H 0.68862 0.33658 0.14753 0.0
H452 H 0.60632 0.26603 0.17805 0.0
H453 H 0.65604 0.30109 0.18106 0.0
H454 H 0.59492 0.3889 0.16963 0.0
H455 H 0.54531 0.35406 0.167 0.0
C456 C 0.68677 0.42154 0.18809 0.0
C457 C 0.71442 0.41309 0.17068 0.0
C458 C 0.65968 0.39983 0.19052 0.0
C459 C 0.65965 0.36913 0.17567 0.0
C460 C 0.68797 0.35997 0.15939 0.0
C461 C 0.71506 0.38174 0.15689 0.0
C462 C 0.60349 0.29284 0.17639 0.0
C463 C 0.57186 0.30727 0.1722 0.0
C464 C 0.63198 0.31288 0.17799 0.0
C465 C 0.62941 0.34775 0.17562 0.0
C466 C 0.59771 0.36215 0.17195 0.0
C467 C 0.56928 0.34214 0.17022 0.0
H468 H 0.55327 0.68919 0.20443 0.0
H469 H 0.6224 0.74437 0.1505 0.0
H470 H 0.59121 0.64167 0.20427 0.0
H471 H 0.66014 0.6966 0.15012 0.0
H472 H 0.73086 0.61034 0.17339 0.0
H473 H 0.69663 0.66028 0.18021 0.0
H474 H 0.6077 0.60169 0.16596 0.0
H475 H 0.64167 0.55191 0.15944 0.0
C476 C 0.57675 0.69139 0.19287 0.0
C477 C 0.58466 0.7205 0.17725 0.0
C478 C 0.59838 0.66405 0.19262 0.0
C479 C 0.62845 0.66523 0.17686 0.0
C480 C 0.63721 0.69496 0.16256 0.0
C481 C 0.61551 0.7223 0.16271 0.0
C482 C 0.70399 0.60813 0.1718 0.0
C483 C 0.68899 0.57715 0.16584 0.0
C484 C 0.68442 0.63675 0.17562 0.0
C485 C 0.64947 0.63489 0.17379 0.0
C486 C 0.63453 0.60386 0.16799 0.0
C487 C 0.65405 0.57536 0.164 0.0
H488 H 0.44774 0.64546 0.16758 0.0
H489 H 0.38706 0.73369 0.17914 0.0
H490 H 0.39806 0.61075 0.1707 0.0
H491 H 0.33722 0.69873 0.18246 0.0
H492 H 0.25716 0.62377 0.14588 0.0
H493 H 0.30434 0.66208 0.14904 0.0
H494 H 0.35504 0.59349 0.20646 0.0
H495 H 0.30813 0.55505 0.20316 0.0
C496 C 0.42382 0.65746 0.17092 0.0
C497 C 0.42136 0.69235 0.17305 0.0
C498 C 0.39536 0.63753 0.17294 0.0
C499 C 0.36374 0.65201 0.17697 0.0
C500 C 0.36124 0.6869 0.1792 0.0
C501 C 0.38979 0.70687 0.1774 0.0
C502 C 0.27814 0.61707 0.15952 0.0
C503 C 0.27899 0.5862 0.17404 0.0
C504 C 0.30512 0.63909 0.16141 0.0
C505 C 0.33354 0.6306 0.17773 0.0
C506 C 0.3337 0.60046 0.19333 0.0
C507 C 0.3067 0.57854 0.19158 0.0
H508 H 0.3548 0.44717 0.17525 0.0
H509 H 0.26458 0.38816 0.17636 0.0
H510 H 0.38803 0.39647 0.17834 0.0
H511 H 0.298 0.3373 0.1798 0.0
H512 H 0.37377 0.25832 0.14315 0.0
H513 H 0.33625 0.30597 0.14745 0.0
H514 H 0.40173 0.35027 0.21143 0.0
H515 H 0.43952 0.3029 0.2069 0.0
C516 C 0.34203 0.42339 0.17639 0.0
C517 C 0.30705 0.42171 0.17544 0.0
C518 C 0.36109 0.39433 0.1784 0.0
C519 C 0.34563 0.36287 0.1794 0.0
C520 C 0.31062 0.36117 0.17885 0.0
C521 C 0.29151 0.3903 0.177 0.0
C522 C 0.37992 0.27795 0.15848 0.0
C523 C 0.40983 0.27695 0.17443 0.0
C524 C 0.35833 0.30522 0.16103 0.0
C525 C 0.36624 0.33206 0.17953 0.0
C526 C 0.39526 0.33022 0.19661 0.0
C527 C 0.41679 0.30295 0.19414 0.0
H528 H 0.07377 0.38568 0.33047 0.0
H529 H 0.00737 0.34974 0.26324 0.0
H530 H 0.10031 0.4225 0.2956 0.0
H531 H 0.03312 0.38779 0.22838 0.0
H532 H 0.1253 0.41136 0.17068 0.0
H533 H 0.08504 0.3871 0.20388 0.0
H534 H 0.10005 0.46903 0.26391 0.0
H535 H 0.14159 0.49271 0.23096 0.0
C536 C 0.06423 0.38626 0.30838 0.0
C537 C 0.03888 0.3643 0.29949 0.0
C538 C 0.07932 0.40766 0.28835 0.0
C539 C 0.06919 0.40788 0.25899 0.0
C540 C 0.04207 0.38772 0.25065 0.0
C541 C 0.02717 0.36603 0.27066 0.0
C542 C 0.11969 0.42453 0.19075 0.0
C543 C 0.13711 0.45365 0.19842 0.0
C544 C 0.09628 0.41073 0.20975 0.0
C545 C 0.08946 0.42588 0.2368 0.0
C546 C 0.1052 0.45632 0.24354 0.0
C547 C 0.12889 0.46999 0.2246 0.0
H548 H 0.61439 0.07015 0.32702 0.0
H549 H 0.65334 0.00777 0.25797 0.0
H550 H 0.57704 0.09686 0.29269 0.0
H551 H 0.61476 0.03358 0.22364 0.0
H552 H 0.50609 0.13823 0.22855 0.0
H553 H 0.53095 0.09648 0.26057 0.0
H554 H 0.61389 0.08627 0.2008 0.0
H555 H 0.58848 0.12668 0.1685 0.0
C556 C 0.61437 0.0615 0.30462 0.0
C557 C 0.63729 0.03729 0.2951 0.0
C558 C 0.59267 0.07668 0.2849 0.0
C559 C 0.59313 0.06774 0.25522 0.0
C560 C 0.6143 0.04165 0.24619 0.0
C561 C 0.63629 0.02672 0.26589 0.0
C562 C 0.5293 0.12654 0.22204 0.0
C563 C 0.54555 0.13612 0.1962 0.0
C564 C 0.54366 0.10274 0.24045 0.0
C565 C 0.57468 0.08825 0.23352 0.0
C566 C 0.58983 0.09649 0.2068 0.0
C567 C 0.57535 0.12 0.18832 0.0
H568 H 0.84518 0.50469 0.2327 0.0
H569 H 0.8837 0.56998 0.16575 0.0
H570 H 0.88336 0.52955 0.26793 0.0
H571 H 0.92065 0.59573 0.20101 0.0
H572 H 0.99042 0.63592 0.26669 0.0
H573 H 0.96651 0.59486 0.23338 0.0
H574 H 0.88334 0.58138 0.29235 0.0
H575 H 0.90782 0.6211 0.32591 0.0
C576 C 0.86207 0.52406 0.22542 0.0
C577 C 0.86103 0.53575 0.19656 0.0
C578 C 0.88384 0.53846 0.24564 0.0
C579 C 0.90472 0.5651 0.23751 0.0
C580 C 0.90522 0.57512 0.20812 0.0
C581 C 0.88376 0.56048 0.18786 0.0
C582 C 0.96737 0.62364 0.27275 0.0
C583 C 0.95077 0.63213 0.29873 0.0
C584 C 0.95356 0.60023 0.25359 0.0
C585 C 0.92273 0.58506 0.25992 0.0
C586 C 0.90727 0.59216 0.28679 0.0
C587 C 0.92121 0.61526 0.30601 0.0
H588 H 0.40096 0.96904 0.32399 0.0
H589 H 0.33407 0.97247 0.2502 0.0
H590 H 0.44275 0.94095 0.29389 0.0
H591 H 0.37554 0.94413 0.22037 0.0
H592 H 0.4599 0.90435 0.16777 0.0
H593 H 0.43084 0.94582 0.19743 0.0
H594 H 0.4446 0.88413 0.27365 0.0
H595 H 0.47399 0.84297 0.24421 0.0
C596 C 0.39537 0.96434 0.30125 0.0
C597 C 0.36402 0.97261 0.28958 0.0
C598 C 0.41926 0.94811 0.28406 0.0
C599 C 0.41236 0.94005 0.25482 0.0
C600 C 0.3818 0.95022 0.24273 0.0
C601 C 0.35789 0.96627 0.25991 0.0
C602 C 0.45732 0.89994 0.19096 0.0
C603 C 0.46884 0.87011 0.20354 0.0
C604 C 0.44054 0.92364 0.20791 0.0
C605 C 0.43509 0.9181 0.23781 0.0
C606 C 0.44858 0.88931 0.25073 0.0
C607 C 0.46525 0.86558 0.23378 0.0
H608 H 0.14467 0.50913 0.76166 0.0
H609 H 0.11833 0.58084 0.82831 0.0
H610 H 0.10477 0.53497 0.72849 0.0
H611 H 0.07955 0.60729 0.79504 0.0
H612 H 0.005 0.64795 0.73404 0.0
H613 H 0.02985 0.60686 0.76668 0.0
H614 H 0.10584 0.58606 0.70215 0.0
H615 H 0.08042 0.62602 0.66935 0.0
C616 C 0.13008 0.53012 0.76936 0.0
C617 C 0.13506 0.54327 0.79745 0.0
C618 C 0.10732 0.54505 0.75031 0.0
C619 C 0.08927 0.57354 0.7589 0.0
C620 C 0.09272 0.58523 0.78768 0.0
C621 C 0.11525 0.57018 0.80675 0.0
C622 C 0.0266 0.63408 0.72663 0.0
C623 C 0.04105 0.64064 0.6993 0.0
C624 C 0.04095 0.61064 0.74539 0.0
C625 C 0.07015 0.59345 0.73725 0.0
C626 C 0.08321 0.59851 0.70912 0.0
C627 C 0.06876 0.62173 0.69034 0.0
H628 H 0.41312 0.12498 0.8235 0.0
H629 H 0.49314 0.1443 0.76258 0.0
H630 H 0.38937 0.0847 0.79001 0.0
H631 H 0.46994 0.10281 0.72928 0.0
H632 H 0.35379 0.00639 0.73044 0.0
H633 H 0.3916 0.03295 0.76503 0.0
H634 H 0.42267 0.10225 0.69813 0.0
H635 H 0.38603 0.07497 0.66347 0.0
C636 C 0.42611 0.12006 0.80321 0.0
C637 C 0.45471 0.13828 0.7955 0.0
C638 C 0.41261 0.09665 0.78404 0.0
C639 C 0.42753 0.09064 0.75675 0.0
C640 C 0.45743 0.10729 0.74987 0.0
C641 C 0.47083 0.13095 0.76901 0.0
C642 C 0.36924 0.02685 0.723 0.0
C643 C 0.36652 0.03892 0.69434 0.0
C644 C 0.39079 0.0422 0.74287 0.0
C645 C 0.40981 0.07013 0.73456 0.0
C646 C 0.40868 0.08067 0.70533 0.0
C647 C 0.38741 0.06513 0.68543 0.0
H648 H 0.9726 0.32887 0.74595 0.0
H649 H 0.97561 0.39965 0.67496 0.0
H650 H 0.9439 0.36979 0.77622 0.0
H651 H 0.94697 0.44071 0.70545 0.0
H652 H 0.84747 0.4726 0.75289 0.0
H653 H 0.88853 0.44254 0.72378 0.0
H654 H 0.94744 0.42486 0.80104 0.0
H655 H 0.90621 0.4548 0.83032 0.0
C656 C 0.9677 0.35337 0.73697 0.0
C657 C 0.97606 0.36086 0.70793 0.0
C658 C 0.95143 0.37692 0.75441 0.0
C659 C 0.94299 0.4084 0.74314 0.0
C660 C 0.95286 0.41651 0.7146 0.0
C661 C 0.96939 0.39303 0.69721 0.0
C662 C 0.86945 0.46283 0.76363 0.0
C663 C 0.87334 0.46572 0.79399 0.0
C664 C 0.89312 0.44578 0.74689 0.0
C665 C 0.92108 0.4311 0.76017 0.0
C666 C 0.92592 0.43559 0.79028 0.0
C667 C 0.90236 0.45286 0.807 0.0
H668 H 0.6223 0.91484 0.6701 0.0
H669 H 0.64352 0.99062 0.7346 0.0
H670 H 0.58471 0.88754 0.70399 0.0
H671 H 0.60489 0.96377 0.76838 0.0
H672 H 0.51048 0.84661 0.76572 0.0
H673 H 0.53426 0.88714 0.73192 0.0
H674 H 0.60858 0.91342 0.7962 0.0
H675 H 0.58427 0.87388 0.83012 0.0
C676 C 0.61834 0.92614 0.6913 0.0
C677 C 0.63636 0.95458 0.69983 0.0
C678 C 0.59651 0.91059 0.71071 0.0
C679 C 0.59201 0.92323 0.73908 0.0
C680 C 0.60829 0.95302 0.74689 0.0
C681 C 0.63029 0.96851 0.72748 0.0
C682 C 0.5315 0.86153 0.7728 0.0
C683 C 0.5458 0.85667 0.80045 0.0
C684 C 0.54522 0.88464 0.75338 0.0
C685 C 0.5736 0.90326 0.76117 0.0
C686 C 0.58655 0.89981 0.7895 0.0
C687 C 0.57274 0.87686 0.80893 0.0
H688 H 0.07257 0.29741 0.4368 0.0
H689 H 0.96649 0.2854 0.42395 0.0
H690 H 0.06339 0.30448 0.48903 0.0
H691 H 0.9574 0.29106 0.4761 0.0
H692 H 0.9461 0.32365 0.56911 0.0
H693 H 0.95775 0.32714 0.51698 0.0
H694 H 0.04894 0.27137 0.5297 0.0
H695 H 0.03797 0.26914 0.58175 0.0
C696 C 0.04731 0.29627 0.44514 0.0
C697 C 0.02029 0.2907 0.42627 0.0
C698 C 0.04203 0.30016 0.4751 0.0
C699 C 0.00965 0.29818 0.4869 0.0
C700 C 0.98261 0.2933 0.46784 0.0
C701 C 0.98785 0.28979 0.43789 0.0
C702 C 0.96882 0.3125 0.56077 0.0
C703 C 0.99099 0.29596 0.57953 0.0
C704 C 0.97541 0.3143 0.53086 0.0
C705 C 0.00416 0.29929 0.51901 0.0
C706 C 0.0268 0.28363 0.538 0.0
C707 C 0.02038 0.28216 0.5679 0.0
H708 H 0.69132 0.03232 0.57943 0.0
H709 H 0.74217 0.93946 0.56125 0.0
H710 H 0.68549 0.04232 0.52723 0.0
H711 H 0.73731 0.94993 0.50923 0.0
H712 H 0.70246 0.96408 0.41693 0.0
H713 H 0.69937 0.95315 0.46914 0.0
H714 H 0.72034 0.05702 0.48675 0.0
H715 H 0.72236 0.06812 0.43463 0.0
C716 C 0.70121 0.01402 0.56431 0.0
C717 C 0.71731 0.98515 0.57449 0.0
C718 C 0.69803 0.01984 0.53438 0.0
C719 C 0.71103 0.997 0.51399 0.0
C720 C 0.72655 0.96782 0.52426 0.0
C721 C 0.72955 0.96192 0.55414 0.0
C722 C 0.70607 0.98464 0.43196 0.0
C723 C 0.71281 0.01693 0.42164 0.0
C724 C 0.7045 0.97834 0.4619 0.0
C725 C 0.70984 0.00415 0.48219 0.0
C726 C 0.71568 0.03662 0.47179 0.0
C727 C 0.71703 0.04296 0.44186 0.0
H728 H 0.9669 0.69869 0.58132 0.0
H729 H 0.0559 0.75506 0.56121 0.0
H730 H 0.95652 0.69099 0.52929 0.0
H731 H 0.04517 0.74788 0.50936 0.0
H732 H 0.03287 0.70561 0.41865 0.0
H733 H 0.04395 0.7057 0.47092 0.0
H734 H 0.93981 0.72576 0.48794 0.0
H735 H 0.92857 0.72509 0.43574 0.0
C736 C 0.98429 0.70936 0.56583 0.0
C737 C 0.01219 0.72755 0.57541 0.0
C738 C 0.97825 0.70507 0.53603 0.0
C739 C 1e-05 0.71884 0.51521 0.0
C740 C 0.02818 0.73655 0.52484 0.0
C741 C 0.0342 0.74086 0.55458 0.0
C742 C 0.01227 0.70971 0.43355 0.0
C743 C 0.97987 0.71553 0.42303 0.0
C744 C 0.01867 0.70995 0.46349 0.0
C745 C 0.99281 0.71596 0.48356 0.0
C746 C 0.96023 0.72075 0.47306 0.0
C747 C 0.95383 0.72056 0.44312 0.0
H748 H 0.28091 0.95952 0.57194 0.0
H749 H 0.29912 0.06445 0.55762 0.0
H750 H 0.28442 0.94944 0.51966 0.0
H751 H 0.30404 0.05424 0.50543 0.0
H752 H 0.26706 0.03133 0.41338 0.0
H753 H 0.26924 0.04159 0.46552 0.0
H754 H 0.31942 0.94716 0.478 0.0
H755 H 0.31596 0.93631 0.42572 0.0
C756 C 0.28617 0.98037 0.55764 0.0
C757 C 0.28948 0.01283 0.56888 0.0
C758 C 0.28841 0.97456 0.52764 0.0
C759 C 0.29437 0.00104 0.5082 0.0
C760 C 0.29873 0.03335 0.51963 0.0
C761 C 0.2961 0.0392 0.5496 0.0
C762 C 0.27876 0.01282 0.4272 0.0
C763 C 0.2912 0.98291 0.41541 0.0
C764 C 0.28022 0.01881 0.45716 0.0
C765 C 0.29451 0.99522 0.4761 0.0
C766 C 0.30773 0.96565 0.46417 0.0
C767 C 0.30595 0.95949 0.43416 0.0
H768 H 0.47819 0.80845 0.92084 0.0
H769 H 0.5383 0.72223 0.94189 0.0
H770 H 0.47003 0.81938 0.97287 0.0
H771 H 0.52999 0.7331 0.99365 0.0
H772 H 0.53511 0.77898 0.08352 0.0
H773 H 0.5453 0.77518 0.03122 0.0
H774 H 0.44054 0.79162 0.01468 0.0
H775 H 0.43024 0.79566 0.06708 0.0
C776 C 0.48977 0.79193 0.93654 0.0
C777 C 0.50886 0.76444 0.92725 0.0
C778 C 0.48496 0.79813 0.96629 0.0
C779 C 0.49945 0.77716 0.9873 0.0
C780 C 0.51888 0.74996 0.97798 0.0
C781 C 0.52344 0.74361 0.9483 0.0
C782 C 0.51426 0.78217 0.06876 0.0
C783 C 0.48179 0.78736 0.07949 0.0
C784 C 0.52011 0.77981 0.03881 0.0
C785 C 0.49368 0.7828 0.01889 0.0
C786 C 0.46143 0.7894 0.02952 0.0
C787 C 0.45553 0.79156 0.05953 0.0
H788 H 0.19942 0.46439 0.91659 0.0
H789 H 0.23313 0.56465 0.935 0.0
H790 H 0.19598 0.45313 0.96876 0.0
H791 H 0.23055 0.55312 0.98702 0.0
H792 H 0.1985 0.53142 0.07947 0.0
H793 H 0.1935 0.5424 0.02737 0.0
H794 H 0.23437 0.44489 0.00857 0.0
H795 H 0.23853 0.43358 0.06055 0.0
C796 C 0.20599 0.48406 0.93175 0.0
C797 C 0.21669 0.51537 0.92164 0.0
C798 C 0.2042 0.47754 0.96165 0.0
C799 C 0.21315 0.50216 0.98207 0.0
C800 C 0.22306 0.53373 0.97192 0.0
C801 C 0.22474 0.54027 0.94205 0.0
C802 C 0.20616 0.51223 0.06421 0.0
C803 C 0.21905 0.48168 0.07415 0.0
C804 C 0.20346 0.51859 0.03435 0.0
C805 C 0.21368 0.49459 0.01378 0.0
C806 C 0.22585 0.46376 0.02378 0.0
C807 C 0.22845 0.45736 0.05362 0.0
H808 H 0.46359 0.19983 0.07824 0.0
H809 H 0.56272 0.23691 0.06018 0.0
H810 H 0.45268 0.19604 0.02602 0.0
H811 H 0.55151 0.23393 0.00812 0.0
H812 H 0.53158 0.20046 0.91574 0.0
H813 H 0.54229 0.19608 0.96793 0.0
H814 H 0.44346 0.23406 0.98598 0.0
H815 H 0.43244 0.23762 0.9339 0.0
C816 C 0.48308 0.20709 0.06314 0.0
C817 C 0.51399 0.2188 0.07336 0.0
C818 C 0.47676 0.20508 0.03322 0.0
C819 C 0.50117 0.2148 0.01289 0.0
C820 C 0.53231 0.22582 0.02316 0.0
C821 C 0.53866 0.22774 0.05305 0.0
C822 C 0.51204 0.2076 0.93086 0.0
C823 C 0.48121 0.21954 0.92067 0.0
C824 C 0.51825 0.20526 0.96076 0.0
C825 C 0.4938 0.21489 0.98114 0.0
C826 C 0.46269 0.22604 0.9709 0.0
C827 C 0.45645 0.22829 0.94101 0.0
H828 H 0.77431 0.53244 0.91343 0.0
H829 H 0.81426 0.43382 0.92846 0.0
H830 H 0.77456 0.5432 0.96555 0.0
H831 H 0.81589 0.44507 0.98073 0.0
H832 H 0.77391 0.46153 0.07286 0.0
H833 H 0.7792 0.45068 0.02083 0.0
H834 H 0.80779 0.55346 0.00686 0.0
H835 H 0.80103 0.56456 0.05878 0.0
C836 C 0.78366 0.51321 0.92786 0.0
C837 C 0.79411 0.48219 0.91682 0.0
C838 C 0.78402 0.51947 0.95781 0.0
C839 C 0.79522 0.49502 0.97749 0.0
C840 C 0.80653 0.46428 0.96631 0.0
C841 C 0.80581 0.45788 0.93632 0.0
C842 C 0.7815 0.48176 0.05868 0.0
C843 C 0.7868 0.51397 0.06988 0.0
C844 C 0.78477 0.4755 0.02882 0.0
C845 C 0.79381 0.50121 0.00951 0.0
C846 C 0.80011 0.5332 0.02094 0.0
C847 C 0.79643 0.53955 0.05075 0.0
loop_
_geom_bond_atom_site_label_1
_geom_bond_atom_site_label_2
_geom_bond_distance
_geom_bond_site_symmetry_2
_ccdc_geom_bond_type
C0 O1 1.160 . S
C0 O7 1.185 . S
O1 C0 1.160 . S
O2 Zn3 1.899 . S
O2 C10 1.284 . S
Zn3 O2 1.899 . S
Zn3 O4 2.032 . S
Zn3 O7 2.086 . S
Zn3 O12 1.977 1_455 S
O4 Zn3 2.032 . S
O4 C8 1.278 . S
C5 O6 1.203 . S
C5 O12 1.267 . S
O6 C5 1.203 . S
O7 C0 1.185 . S
O7 Zn3 2.086 . S
C8 O4 1.278 . S
C8 O9 1.211 . S
O9 C8 1.211 . S
C10 O2 1.284 . S
C10 O11 1.273 . S
O11 C10 1.273 . S
O12 Zn3 1.977 1_655 S
O12 C5 1.267 . S
C13 O14 1.160 . S
C13 O20 1.185 . S
O14 C13 1.160 . S
O15 Zn16 1.899 . S
O15 C23 1.284 . S
Zn16 O15 1.899 . S
Zn16 O17 2.032 . S
Zn16 O20 2.086 . S
Zn16 O25 1.977 1_545 S
O17 Zn16 2.032 . S
O17 C21 1.278 . S
C18 O19 1.203 . S
C18 O25 1.267 . S
O19 C18 1.203 . S
O20 C13 1.185 . S
O20 Zn16 2.086 . S
C21 O17 1.278 . S
C21 O22 1.211 . S
O22 C21 1.211 . S
C23 O15 1.284 . S
C23 O24 1.273 . S
O24 C23 1.273 . S
O25 Zn16 1.977 1_565 S
O25 C18 1.267 . S
C26 O27 1.160 . S
C26 O33 1.185 . S
O27 C26 1.160 . S
O28 Zn29 1.899 . S
O28 C36 1.284 . S
Zn29 O28 1.899 . S
Zn29 O30 2.032 . S
Zn29 O33 2.086 . S
Zn29 O38 1.977 1_655 S
O30 Zn29 2.032 . S
O30 C34 1.278 . S
C31 O32 1.203 . S
C31 O38 1.267 . S
O32 C31 1.203 . S
O33 C26 1.185 . S
O33 Zn29 2.086 . S
C34 O30 1.278 . S
C34 O35 1.211 . S
O35 C34 1.211 . S
C36 O28 1.284 . S
C36 O37 1.273 . S
O37 C36 1.273 . S
O38 Zn29 1.977 1_455 S
O38 C31 1.267 . S
C39 O40 1.160 . S
C39 O46 1.185 . S
O40 C39 1.160 . S
O41 Zn42 1.899 . S
O41 C49 1.284 . S
Zn42 O41 1.899 . S
Zn42 O43 2.032 . S
Zn42 O46 2.086 . S
Zn42 O51 1.977 1_565 S
O43 Zn42 2.032 . S
O43 C47 1.278 . S
C44 O45 1.203 . S
C44 O51 1.267 . S
O45 C44 1.203 . S
O46 C39 1.185 . S
O46 Zn42 2.086 . S
C47 O43 1.278 . S
C47 O48 1.211 . S
O48 C47 1.211 . S
C49 O41 1.284 . S
C49 O50 1.273 . S
O50 C49 1.273 . S
O51 Zn42 1.977 1_545 S
O51 C44 1.267 . S
C52 O53 1.160 . S
C52 O59 1.185 . S
O53 C52 1.160 . S
O54 Zn55 1.899 . S
O54 C62 1.284 . S
Zn55 O54 1.899 . S
Zn55 O56 2.032 . S
Zn55 O59 2.086 . S
Zn55 O64 1.977 1_455 S
O56 Zn55 2.032 . S
O56 C60 1.278 . S
C57 O58 1.203 . S
C57 O64 1.267 . S
O58 C57 1.203 . S
O59 C52 1.185 . S
O59 Zn55 2.086 . S
C60 O56 1.278 . S
C60 O61 1.211 . S
O61 C60 1.211 . S
C62 O54 1.284 . S
C62 O63 1.273 . S
O63 C62 1.273 . S
O64 Zn55 1.977 1_655 S
O64 C57 1.267 . S
C65 O66 1.160 . S
C65 O72 1.185 . S
O66 C65 1.160 . S
O67 Zn68 1.899 . S
O67 C75 1.284 . S
Zn68 O67 1.899 . S
Zn68 O69 2.032 . S
Zn68 O72 2.086 . S
Zn68 O77 1.977 1_545 S
O69 Zn68 2.032 . S
O69 C73 1.278 . S
C70 O71 1.203 . S
C70 O77 1.267 . S
O71 C70 1.203 . S
O72 C65 1.185 . S
O72 Zn68 2.086 . S
C73 O69 1.278 . S
C73 O74 1.211 . S
O74 C73 1.211 . S
C75 O67 1.284 . S
C75 O76 1.273 . S
O76 C75 1.273 . S
O77 Zn68 1.977 1_565 S
O77 C70 1.267 . S
C78 O79 1.160 . S
C78 O85 1.185 . S
O79 C78 1.160 . S
O80 Zn81 1.899 . S
O80 C88 1.284 . S
Zn81 O80 1.899 . S
Zn81 O82 2.032 . S
Zn81 O85 2.086 . S
Zn81 O90 1.977 1_655 S
O82 Zn81 2.032 . S
O82 C86 1.278 . S
C83 O84 1.203 . S
C83 O90 1.267 . S
O84 C83 1.203 . S
O85 C78 1.185 . S
O85 Zn81 2.086 . S
C86 O82 1.278 . S
C86 O87 1.211 . S
O87 C86 1.211 . S
C88 O80 1.284 . S
C88 O89 1.273 . S
O89 C88 1.273 . S
O90 Zn81 1.977 1_455 S
O90 C83 1.267 . S
C91 O92 1.160 . S
C91 O98 1.185 . S
O92 C91 1.160 . S
O93 Zn94 1.899 . S
O93 C101 1.284 . S
Zn94 O93 1.899 . S
Zn94 O95 2.032 . S
Zn94 O98 2.086 . S
Zn94 O103 1.977 1_565 S
O95 Zn94 2.032 . S
O95 C99 1.278 . S
C96 O97 1.203 . S
C96 O103 1.267 . S
O97 C96 1.203 . S
O98 C91 1.185 . S
O98 Zn94 2.086 . S
C99 O95 1.278 . S
C99 O100 1.211 . S
O100 C99 1.211 . S
C101 O93 1.284 . S
C101 O102 1.273 . S
O102 C101 1.273 . S
O103 Zn94 1.977 1_545 S
O103 C96 1.267 . S
C104 O105 1.160 . S
C104 O111 1.185 . S
O105 C104 1.160 . S
O106 Zn107 1.899 . S
O106 C114 1.284 . S
Zn107 O106 1.899 . S
Zn107 O108 2.032 . S
Zn107 O111 2.086 . S
Zn107 O116 1.977 . S
O108 Zn107 2.032 . S
O108 C112 1.278 . S
C109 O110 1.203 . S
C109 O116 1.267 . S
O110 C109 1.203 . S
O111 C104 1.185 . S
O111 Zn107 2.086 . S
C112 O108 1.278 . S
C112 O113 1.211 . S
O113 C112 1.211 . S
C114 O106 1.284 . S
C114 O115 1.273 . S
O115 C114 1.273 . S
O116 Zn107 1.977 . S
O116 C109 1.267 . S
C117 O118 1.160 . S
C117 O124 1.185 . S
O118 C117 1.160 . S
O119 Zn120 1.899 . S
O119 C127 1.284 . S
Zn120 O119 1.899 . S
Zn120 O121 2.032 . S
Zn120 O124 2.086 . S
Zn120 O129 1.977 . S
O121 Zn120 2.032 . S
O121 C125 1.278 . S
C122 O123 1.203 . S
C122 O129 1.267 . S
O123 C122 1.203 . S
O124 C117 1.185 . S
O124 Zn120 2.086 . S
C125 O121 1.278 . S
C125 O126 1.211 . S
O126 C125 1.211 . S
C127 O119 1.284 . S
C127 O128 1.273 . S
O128 C127 1.273 . S
O129 Zn120 1.977 . S
O129 C122 1.267 . S
C130 O131 1.160 . S
C130 O137 1.185 . S
O131 C130 1.160 . S
O132 Zn133 1.899 . S
O132 C140 1.284 . S
Zn133 O132 1.899 . S
Zn133 O134 2.032 . S
Zn133 O137 2.086 . S
Zn133 O142 1.977 . S
O134 Zn133 2.032 . S
O134 C138 1.278 . S
C135 O136 1.203 . S
C135 O142 1.267 . S
O136 C135 1.203 . S
O137 C130 1.185 . S
O137 Zn133 2.086 . S
C138 O134 1.278 . S
C138 O139 1.211 . S
O139 C138 1.211 . S
C140 O132 1.284 . S
C140 O141 1.273 . S
O141 C140 1.273 . S
O142 Zn133 1.977 . S
O142 C135 1.267 . S
C143 O144 1.160 . S
C143 O150 1.185 . S
O144 C143 1.160 . S
O145 Zn146 1.899 . S
O145 C153 1.284 . S
Zn146 O145 1.899 . S
Zn146 O147 2.032 . S
Zn146 O150 2.086 . S
Zn146 O155 1.977 . S
O147 Zn146 2.032 . S
O147 C151 1.278 . S
C148 O149 1.203 . S
C148 O155 1.267 . S
O149 C148 1.203 . S
O150 C143 1.185 . S
O150 Zn146 2.086 . S
C151 O147 1.278 . S
C151 O152 1.211 . S
O152 C151 1.211 . S
C153 O145 1.284 . S
C153 O154 1.273 . S
O154 C153 1.273 . S
O155 Zn146 1.977 . S
O155 C148 1.267 . S
C156 O157 1.160 . S
C156 O163 1.185 . S
O157 C156 1.160 . S
O158 Zn159 1.899 . S
O158 C166 1.284 . S
Zn159 O158 1.899 . S
Zn159 O160 2.032 . S
Zn159 O163 2.086 . S
Zn159 O168 1.977 . S
O160 Zn159 2.032 . S
O160 C164 1.278 . S
C161 O162 1.203 . S
C161 O168 1.267 . S
O162 C161 1.203 . S
O163 C156 1.185 . S
O163 Zn159 2.086 . S
C164 O160 1.278 . S
C164 O165 1.211 . S
O165 C164 1.211 . S
C166 O158 1.284 . S
C166 O167 1.273 . S
O167 C166 1.273 . S
O168 Zn159 1.977 . S
O168 C161 1.267 . S
C169 O170 1.160 . S
C169 O176 1.185 . S
O170 C169 1.160 . S
O171 Zn172 1.899 . S
O171 C179 1.284 . S
Zn172 O171 1.899 . S
Zn172 O173 2.032 . S
Zn172 O176 2.086 . S
Zn172 O181 1.977 . S
O173 Zn172 2.032 . S
O173 C177 1.278 . S
C174 O175 1.203 . S
C174 O181 1.267 . S
O175 C174 1.203 . S
O176 C169 1.185 . S
O176 Zn172 2.086 . S
C177 O173 1.278 . S
C177 O178 1.211 . S
O178 C177 1.211 . S
C179 O171 1.284 . S
C179 O180 1.273 . S
O180 C179 1.273 . S
O181 Zn172 1.977 . S
O181 C174 1.267 . S
C182 O183 1.160 . S
C182 O189 1.185 . S
O183 C182 1.160 . S
O184 Zn185 1.899 . S
O184 C192 1.284 . S
Zn185 O184 1.899 . S
Zn185 O186 2.032 . S
Zn185 O189 2.086 . S
Zn185 O194 1.977 . S
O186 Zn185 2.032 . S
O186 C190 1.278 . S
C187 O188 1.203 . S
C187 O194 1.267 . S
O188 C187 1.203 . S
O189 C182 1.185 . S
O189 Zn185 2.086 . S
C190 O186 1.278 . S
C190 O191 1.211 . S
O191 C190 1.211 . S
C192 O184 1.284 . S
C192 O193 1.273 . S
O193 C192 1.273 . S
O194 Zn185 1.977 . S
O194 C187 1.267 . S
C195 O196 1.160 . S
C195 O202 1.185 . S
O196 C195 1.160 . S
O197 Zn198 1.899 . S
O197 C205 1.284 . S
Zn198 O197 1.899 . S
Zn198 O199 2.032 . S
Zn198 O202 2.086 . S
Zn198 O207 1.977 . S
O199 Zn198 2.032 . S
O199 C203 1.278 . S
C200 O201 1.203 . S
C200 O207 1.267 . S
O201 C200 1.203 . S
O202 C195 1.185 . S
O202 Zn198 2.086 . S
C203 O199 1.278 . S
C203 O204 1.211 . S
O204 C203 1.211 . S
C205 O197 1.284 . S
C205 O206 1.273 . S
O206 C205 1.273 . S
O207 Zn198 1.977 . S
O207 C200 1.267 . S
H208 C216 0.950 . S
H209 C221 0.950 . S
H210 C218 0.950 . S
H211 C220 0.950 . S
H212 C222 0.950 . S
H213 C224 0.950 . S
H214 C226 0.950 . S
H215 C227 0.950 . S
C216 H208 0.950 . S
C216 C217 1.386 . S
C216 C218 1.391 . S
C217 C216 1.386 . S
C217 C221 1.393 . S
C218 H210 0.950 . S
C218 C216 1.391 . S
C218 C219 1.400 . S
C219 C218 1.400 . S
C219 C220 1.398 . S
C219 C225 1.491 . S
C220 H211 0.950 . S
C220 C219 1.398 . S
C220 C221 1.391 . S
C221 H209 0.950 . S
C221 C217 1.393 . S
C221 C220 1.391 . S
C222 H212 0.950 . S
C222 C223 1.386 . S
C222 C224 1.391 . S
C223 C222 1.386 . S
C223 C227 1.393 . S
C224 H213 0.950 . S
C224 C222 1.391 . S
C224 C225 1.400 . S
C225 C219 1.491 . S
C225 C224 1.400 . S
C225 C226 1.398 . S
C226 H214 0.950 . S
C226 C225 1.398 . S
C226 C227 1.391 . S
C227 H215 0.950 . S
C227 C223 1.393 . S
C227 C226 1.391 . S
H228 C236 0.950 . S
H229 C241 0.950 . S
H230 C238 0.950 . S
H231 C240 0.950 . S
H232 C242 0.950 . S
H233 C244 0.950 . S
H234 C246 0.950 . S
H235 C247 0.950 . S
C236 H228 0.950 . S
C236 C237 1.386 . S
C236 C238 1.391 . S
C237 C236 1.386 . S
C237 C241 1.393 . S
C238 H230 0.950 . S
C238 C236 1.391 . S
C238 C239 1.400 . S
C239 C238 1.400 . S
C239 C240 1.398 . S
C239 C245 1.491 . S
C240 H231 0.950 . S
C240 C239 1.398 . S
C240 C241 1.391 . S
C241 H229 0.950 . S
C241 C237 1.393 . S
C241 C240 1.391 . S
C242 H232 0.950 . S
C242 C243 1.386 . S
C242 C244 1.391 . S
C243 C242 1.386 . S
C243 C247 1.393 . S
C244 H233 0.950 . S
C244 C242 1.391 . S
C244 C245 1.400 . S
C245 C239 1.491 . S
C245 C244 1.400 . S
C245 C246 1.398 . S
C246 H234 0.950 . S
C246 C245 1.398 . S
C246 C247 1.391 . S
C247 H235 0.950 . S
C247 C243 1.393 . S
C247 C246 1.391 . S
H248 C256 0.950 . S
H249 C261 0.950 . S
H250 C258 0.950 . S
H251 C260 0.950 . S
H252 C262 0.950 . S
H253 C264 0.950 . S
H254 C266 0.950 . S
H255 C267 0.950 . S
C256 H248 0.950 . S
C256 C257 1.386 . S
C256 C258 1.391 . S
C257 C256 1.386 . S
C257 C261 1.393 . S
C258 H250 0.950 . S
C258 C256 1.391 . S
C258 C259 1.400 . S
C259 C258 1.400 . S
C259 C260 1.398 . S
C259 C265 1.491 . S
C260 H251 0.950 . S
C260 C259 1.398 . S
C260 C261 1.391 . S
C261 H249 0.950 . S
C261 C257 1.393 . S
C261 C260 1.391 . S
C262 H252 0.950 . S
C262 C263 1.386 . S
C262 C264 1.391 . S
C263 C262 1.386 . S
C263 C267 1.393 . S
C264 H253 0.950 . S
C264 C262 1.391 . S
C264 C265 1.400 . S
C265 C259 1.491 . S
C265 C264 1.400 . S
C265 C266 1.398 . S
C266 H254 0.950 . S
C266 C265 1.398 . S
C266 C267 1.391 . S
C267 H255 0.950 . S
C267 C263 1.393 . S
C267 C266 1.391 . S
H268 C276 0.950 . S
H269 C281 0.950 . S
H270 C278 0.950 . S
H271 C280 0.950 . S
H272 C282 0.950 . S
H273 C284 0.950 . S
H274 C286 0.950 . S
H275 C287 0.950 . S
C276 H268 0.950 . S
C276 C277 1.386 . S
C276 C278 1.391 . S
C277 C276 1.386 . S
C277 C281 1.393 . S
C278 H270 0.950 . S
C278 C276 1.391 . S
C278 C279 1.400 . S
C279 C278 1.400 . S
C279 C280 1.398 . S
C279 C285 1.491 . S
C280 H271 0.950 . S
C280 C279 1.398 . S
C280 C281 1.391 . S
C281 H269 0.950 . S
C281 C277 1.393 . S
C281 C280 1.391 . S
C282 H272 0.950 . S
C282 C283 1.386 . S
C282 C284 1.391 . S
C283 C282 1.386 . S
C283 C287 1.393 . S
C284 H273 0.950 . S
C284 C282 1.391 . S
C284 C285 1.400 . S
C285 C279 1.491 . S
C285 C284 1.400 . S
C285 C286 1.398 . S
C286 H274 0.950 . S
C286 C285 1.398 . S
C286 C287 1.391 . S
C287 H275 0.950 . S
C287 C283 1.393 . S
C287 C286 1.391 . S
H288 C296 0.950 . S
H289 C301 0.950 . S
H290 C298 0.950 . S
H291 C300 0.950 . S
H292 C302 0.950 . S
H293 C304 0.950 . S
H294 C306 0.950 . S
H295 C307 0.950 . S
C296 H288 0.950 . S
C296 C297 1.386 . S
C296 C298 1.391 . S
C297 C296 1.386 . S
C297 C301 1.393 . S
C298 H290 0.950 . S
C298 C296 1.391 . S
C298 C299 1.400 . S
C299 C298 1.400 . S
C299 C300 1.398 . S
C299 C305 1.491 . S
C300 H291 0.950 . S
C300 C299 1.398 . S
C300 C301 1.391 . S
C301 H289 0.950 . S
C301 C297 1.393 . S
C301 C300 1.391 . S
C302 H292 0.950 . S
C302 C303 1.386 . S
C302 C304 1.391 . S
C303 C302 1.386 . S
C303 C307 1.393 . S
C304 H293 0.950 . S
C304 C302 1.391 . S
C304 C305 1.400 . S
C305 C299 1.491 . S
C305 C304 1.400 . S
C305 C306 1.398 . S
C306 H294 0.950 . S
C306 C305 1.398 . S
C306 C307 1.391 . S
C307 H295 0.950 . S
C307 C303 1.393 . S
C307 C306 1.391 . S
H308 C316 0.950 . S
H309 C321 0.950 . S
H310 C318 0.950 . S
H311 C320 0.950 . S
H312 C322 0.950 . S
H313 C324 0.950 . S
H314 C326 0.950 . S
H315 C327 0.950 . S
C316 H308 0.950 . S
C316 C317 1.386 . S
C316 C318 1.391 . S
C317 C316 1.386 . S
C317 C321 1.393 . S
C318 H310 0.950 . S
C318 C316 1.391 . S
C318 C319 1.400 . S
C319 C318 1.400 . S
C319 C320 1.398 . S
C319 C325 1.491 . S
C320 H311 0.950 . S
C320 C319 1.398 . S
C320 C321 1.391 . S
C321 H309 0.950 . S
C321 C317 1.393 . S
C321 C320 1.391 . S
C322 H312 0.950 . S
C322 C323 1.386 . S
C322 C324 1.391 . S
C323 C322 1.386 . S
C323 C327 1.393 . S
C324 H313 0.950 . S
C324 C322 1.391 . S
C324 C325 1.400 . S
C325 C319 1.491 . S
C325 C324 1.400 . S
C325 C326 1.398 . S
C326 H314 0.950 . S
C326 C325 1.398 . S
C326 C327 1.391 . S
C327 H315 0.950 . S
C327 C323 1.393 . S
C327 C326 1.391 . S
H328 C336 0.950 . S
H329 C341 0.950 . S
H330 C338 0.950 . S
H331 C340 0.950 . S
H332 C342 0.950 . S
H333 C344 0.950 . S
H334 C346 0.950 . S
H335 C347 0.950 . S
C336 H328 0.950 . S
C336 C337 1.386 . S
C336 C338 1.391 . S
C337 C336 1.386 . S
C337 C341 1.393 . S
C338 H330 0.950 . S
C338 C336 1.391 . S
C338 C339 1.400 . S
C339 C338 1.400 . S
C339 C340 1.398 . S
C339 C345 1.491 . S
C340 H331 0.950 . S
C340 C339 1.398 . S
C340 C341 1.391 . S
C341 H329 0.950 . S
C341 C337 1.393 . S
C341 C340 1.391 . S
C342 H332 0.950 . S
C342 C343 1.386 . S
C342 C344 1.391 . S
C343 C342 1.386 . S
C343 C347 1.393 . S
C344 H333 0.950 . S
C344 C342 1.391 . S
C344 C345 1.400 . S
C345 C339 1.491 . S
C345 C344 1.400 . S
C345 C346 1.398 . S
C346 H334 0.950 . S
C346 C345 1.398 . S
C346 C347 1.391 . S
C347 H335 0.950 . S
C347 C343 1.393 . S
C347 C346 1.391 . S
H348 C356 0.950 . S
H349 C361 0.950 . S
H350 C358 0.950 . S
H351 C360 0.950 . S
H352 C362 0.950 . S
H353 C364 0.950 . S
H354 C366 0.950 . S
H355 C367 0.950 . S
C356 H348 0.950 . S
C356 C357 1.386 . S
C356 C358 1.391 . S
C357 C356 1.386 . S
C357 C361 1.393 . S
C358 H350 0.950 . S
C358 C356 1.391 . S
C358 C359 1.400 . S
C359 C358 1.400 . S
C359 C360 1.398 . S
C359 C365 1.491 . S
C360 H351 0.950 . S
C360 C359 1.398 . S
C360 C361 1.391 . S
C361 H349 0.950 . S
C361 C357 1.393 . S
C361 C360 1.391 . S
C362 H352 0.950 . S
C362 C363 1.386 . S
C362 C364 1.391 . S
C363 C362 1.386 . S
C363 C367 1.393 . S
C364 H353 0.950 . S
C364 C362 1.391 . S
C364 C365 1.400 . S
C365 C359 1.491 . S
C365 C364 1.400 . S
C365 C366 1.398 . S
C366 H354 0.950 . S
C366 C365 1.398 . S
C366 C367 1.391 . S
C367 H355 0.950 . S
C367 C363 1.393 . S
C367 C366 1.391 . S
H368 C376 0.950 . S
H369 C381 0.950 . S
H370 C378 0.950 . S
H371 C380 0.950 . S
H372 C382 0.950 . S
H373 C384 0.950 . S
H374 C386 0.950 . S
H375 C387 0.950 . S
C376 H368 0.950 . S
C376 C377 1.386 . S
C376 C378 1.391 . S
C377 C376 1.386 . S
C377 C381 1.393 . S
C378 H370 0.950 . S
C378 C376 1.391 . S
C378 C379 1.400 . S
C379 C378 1.400 . S
C379 C380 1.398 . S
C379 C385 1.491 . S
C380 H371 0.950 . S
C380 C379 1.398 . S
C380 C381 1.391 . S
C381 H369 0.950 . S
C381 C377 1.393 . S
C381 C380 1.391 . S
C382 H372 0.950 . S
C382 C383 1.386 . S
C382 C384 1.391 . S
C383 C382 1.386 . S
C383 C387 1.393 . S
C384 H373 0.950 . S
C384 C382 1.391 . S
C384 C385 1.400 . S
C385 C379 1.491 . S
C385 C384 1.400 . S
C385 C386 1.398 . S
C386 H374 0.950 . S
C386 C385 1.398 . S
C386 C387 1.391 . S
C387 H375 0.950 . S
C387 C383 1.393 . S
C387 C386 1.391 . S
H388 C396 0.950 . S
H389 C401 0.950 . S
H390 C398 0.950 . S
H391 C400 0.950 . S
H392 C402 0.950 . S
H393 C404 0.950 . S
H394 C406 0.950 . S
H395 C407 0.950 . S
C396 H388 0.950 . S
C396 C397 1.386 . S
C396 C398 1.391 . S
C397 C396 1.386 . S
C397 C401 1.393 . S
C398 H390 0.950 . S
C398 C396 1.391 . S
C398 C399 1.400 . S
C399 C398 1.400 . S
C399 C400 1.398 . S
C399 C405 1.491 . S
C400 H391 0.950 . S
C400 C399 1.398 . S
C400 C401 1.391 . S
C401 H389 0.950 . S
C401 C397 1.393 . S
C401 C400 1.391 . S
C402 H392 0.950 . S
C402 C403 1.386 . S
C402 C404 1.391 . S
C403 C402 1.386 . S
C403 C407 1.393 . S
C404 H393 0.950 . S
C404 C402 1.391 . S
C404 C405 1.400 . S
C405 C399 1.491 . S
C405 C404 1.400 . S
C405 C406 1.398 . S
C406 H394 0.950 . S
C406 C405 1.398 . S
C406 C407 1.391 . S
C407 H395 0.950 . S
C407 C403 1.393 . S
C407 C406 1.391 . S
H408 C416 0.950 . S
H409 C421 0.950 . S
H410 C418 0.950 . S
H411 C420 0.950 . S
H412 C422 0.950 . S
H413 C424 0.950 . S
H414 C426 0.950 . S
H415 C427 0.950 . S
C416 H408 0.950 . S
C416 C417 1.386 . S
C416 C418 1.391 . S
C417 C416 1.386 . S
C417 C421 1.393 . S
C418 H410 0.950 . S
C418 C416 1.391 . S
C418 C419 1.400 . S
C419 C418 1.400 . S
C419 C420 1.398 . S
C419 C425 1.491 . S
C420 H411 0.950 . S
C420 C419 1.398 . S
C420 C421 1.391 . S
C421 H409 0.950 . S
C421 C417 1.393 . S
C421 C420 1.391 . S
C422 H412 0.950 . S
C422 C423 1.386 . S
C422 C424 1.391 . S
C423 C422 1.386 . S
C423 C427 1.393 . S
C424 H413 0.950 . S
C424 C422 1.391 . S
C424 C425 1.400 . S
C425 C419 1.491 . S
C425 C424 1.400 . S
C425 C426 1.398 . S
C426 H414 0.950 . S
C426 C425 1.398 . S
C426 C427 1.391 . S
C427 H415 0.950 . S
C427 C423 1.393 . S
C427 C426 1.391 . S
H428 C436 0.950 . S
H429 C441 0.950 . S
H430 C438 0.950 . S
H431 C440 0.950 . S
H432 C442 0.950 . S
H433 C444 0.950 . S
H434 C446 0.950 . S
H435 C447 0.950 . S
C436 H428 0.950 . S
C436 C437 1.386 . S
C436 C438 1.391 . S
C437 C436 1.386 . S
C437 C441 1.393 . S
C438 H430 0.950 . S
C438 C436 1.391 . S
C438 C439 1.400 . S
C439 C438 1.400 . S
C439 C440 1.398 . S
C439 C445 1.491 . S
C440 H431 0.950 . S
C440 C439 1.398 . S
C440 C441 1.391 . S
C441 H429 0.950 . S
C441 C437 1.393 . S
C441 C440 1.391 . S
C442 H432 0.950 . S
C442 C443 1.386 . S
C442 C444 1.391 . S
C443 C442 1.386 . S
C443 C447 1.393 . S
C444 H433 0.950 . S
C444 C442 1.391 . S
C444 C445 1.400 . S
C445 C439 1.491 . S
C445 C444 1.400 . S
C445 C446 1.398 . S
C446 H434 0.950 . S
C446 C445 1.398 . S
C446 C447 1.391 . S
C447 H435 0.950 . S
C447 C443 1.393 . S
C447 C446 1.391 . S
H448 C456 0.950 . S
H449 C461 0.950 . S
H450 C458 0.950 . S
H451 C460 0.950 . S
H452 C462 0.950 . S
H453 C464 0.950 . S
H454 C466 0.950 . S
H455 C467 0.950 . S
C456 H448 0.950 . S
C456 C457 1.386 . S
C456 C458 1.391 . S
C457 C456 1.386 . S
C457 C461 1.393 . S
C458 H450 0.950 . S
C458 C456 1.391 . S
C458 C459 1.400 . S
C459 C458 1.400 . S
C459 C460 1.398 . S
C459 C465 1.491 . S
C460 H451 0.950 . S
C460 C459 1.398 . S
C460 C461 1.391 . S
C461 H449 0.950 . S
C461 C457 1.393 . S
C461 C460 1.391 . S
C462 H452 0.950 . S
C462 C463 1.386 . S
C462 C464 1.391 . S
C463 C462 1.386 . S
C463 C467 1.393 . S
C464 H453 0.950 . S
C464 C462 1.391 . S
C464 C465 1.400 . S
C465 C459 1.491 . S
C465 C464 1.400 . S
C465 C466 1.398 . S
C466 H454 0.950 . S
C466 C465 1.398 . S
C466 C467 1.391 . S
C467 H455 0.950 . S
C467 C463 1.393 . S
C467 C466 1.391 . S
H468 C476 0.950 . S
H469 C481 0.950 . S
H470 C478 0.950 . S
H471 C480 0.950 . S
H472 C482 0.950 . S
H473 C484 0.950 . S
H474 C486 0.950 . S
H475 C487 0.950 . S
C476 H468 0.950 . S
C476 C477 1.386 . S
C476 C478 1.391 . S
C477 C476 1.386 . S
C477 C481 1.393 . S
C478 H470 0.950 . S
C478 C476 1.391 . S
C478 C479 1.400 . S
C479 C478 1.400 . S
C479 C480 1.398 . S
C479 C485 1.491 . S
C480 H471 0.950 . S
C480 C479 1.398 . S
C480 C481 1.391 . S
C481 H469 0.950 . S
C481 C477 1.393 . S
C481 C480 1.391 . S
C482 H472 0.950 . S
C482 C483 1.386 . S
C482 C484 1.391 . S
C483 C482 1.386 . S
C483 C487 1.393 . S
C484 H473 0.950 . S
C484 C482 1.391 . S
C484 C485 1.400 . S
C485 C479 1.491 . S
C485 C484 1.400 . S
C485 C486 1.398 . S
C486 H474 0.950 . S
C486 C485 1.398 . S
C486 C487 1.391 . S
C487 H475 0.950 . S
C487 C483 1.393 . S
C487 C486 1.391 . S
H488 C496 0.950 . S
H489 C501 0.950 . S
H490 C498 0.950 . S
H491 C500 0.950 . S
H492 C502 0.950 . S
H493 C504 0.950 . S
H494 C506 0.950 . S
H495 C507 0.950 . S
C496 H488 0.950 . S
C496 C497 1.386 . S
C496 C498 1.391 . S
C497 C496 1.386 . S
C497 C501 1.393 . S
C498 H490 0.950 . S
C498 C496 1.391 . S
C498 C499 1.400 . S
C499 C498 1.400 . S
C499 C500 1.398 . S
C499 C505 1.491 . S
C500 H491 0.950 . S
C500 C499 1.398 . S
C500 C501 1.391 . S
C501 H489 0.950 . S
C501 C497 1.393 . S
C501 C500 1.391 . S
C502 H492 0.950 . S
C502 C503 1.386 . S
C502 C504 1.391 . S
C503 C502 1.386 . S
C503 C507 1.393 . S
C504 H493 0.950 . S
C504 C502 1.391 . S
C504 C505 1.400 . S
C505 C499 1.491 . S
C505 C504 1.400 . S
C505 C506 1.398 . S
C506 H494 0.950 . S
C506 C505 1.398 . S
C506 C507 1.391 . S
C507 H495 0.950 . S
C507 C503 1.393 . S
C507 C506 1.391 . S
H508 C516 0.950 . S
H509 C521 0.950 . S
H510 C518 0.950 . S
H511 C520 0.950 . S
H512 C522 0.950 . S
H513 C524 0.950 . S
H514 C526 0.950 . S
H515 C527 0.950 . S
C516 H508 0.950 . S
C516 C517 1.386 . S
C516 C518 1.391 . S
C517 C516 1.386 . S
C517 C521 1.393 . S
C518 H510 0.950 . S
C518 C516 1.391 . S
C518 C519 1.400 . S
C519 C518 1.400 . S
C519 C520 1.398 . S
C519 C525 1.491 . S
C520 H511 0.950 . S
C520 C519 1.398 . S
C520 C521 1.391 . S
C521 H509 0.950 . S
C521 C517 1.393 . S
C521 C520 1.391 . S
C522 H512 0.950 . S
C522 C523 1.386 . S
C522 C524 1.391 . S
C523 C522 1.386 . S
C523 C527 1.393 . S
C524 H513 0.950 . S
C524 C522 1.391 . S
C524 C525 1.400 . S
C525 C519 1.491 . S
C525 C524 1.400 . S
C525 C526 1.398 . S
C526 H514 0.950 . S
C526 C525 1.398 . S
C526 C527 1.391 . S
C527 H515 0.950 . S
C527 C523 1.393 . S
C527 C526 1.391 . S
H528 C536 0.950 . S
H529 C541 0.950 . S
H530 C538 0.950 . S
H531 C540 0.950 . S
H532 C542 0.950 . S
H533 C544 0.950 . S
H534 C546 0.950 . S
H535 C547 0.950 . S
C536 H528 0.950 . S
C536 C537 1.386 . S
C536 C538 1.391 . S
C537 C536 1.386 . S
C537 C541 1.393 . S
C538 H530 0.950 . S
C538 C536 1.391 . S
C538 C539 1.400 . S
C539 C538 1.400 . S
C539 C540 1.398 . S
C539 C545 1.491 . S
C540 H531 0.950 . S
C540 C539 1.398 . S
C540 C541 1.391 . S
C541 H529 0.950 . S
C541 C537 1.393 . S
C541 C540 1.391 . S
C542 H532 0.950 . S
C542 C543 1.386 . S
C542 C544 1.391 . S
C543 C542 1.386 . S
C543 C547 1.393 . S
C544 H533 0.950 . S
C544 C542 1.391 . S
C544 C545 1.400 . S
C545 C539 1.491 . S
C545 C544 1.400 . S
C545 C546 1.398 . S
C546 H534 0.950 . S
C546 C545 1.398 . S
C546 C547 1.391 . S
C547 H535 0.950 . S
C547 C543 1.393 . S
C547 C546 1.391 . S
H548 C556 0.950 . S
H549 C561 0.950 . S
H550 C558 0.950 . S
H551 C560 0.950 . S
H552 C562 0.950 . S
H553 C564 0.950 . S
H554 C566 0.950 . S
H555 C567 0.950 . S
C556 H548 0.950 . S
C556 C557 1.386 . S
C556 C558 1.391 . S
C557 C556 1.386 . S
C557 C561 1.393 . S
C558 H550 0.950 . S
C558 C556 1.391 . S
C558 C559 1.400 . S
C559 C558 1.400 . S
C559 C560 1.398 . S
C559 C565 1.491 . S
C560 H551 0.950 . S
C560 C559 1.398 . S
C560 C561 1.391 . S
C561 H549 0.950 . S
C561 C557 1.393 . S
C561 C560 1.391 . S
C562 H552 0.950 . S
C562 C563 1.386 . S
C562 C564 1.391 . S
C563 C562 1.386 . S
C563 C567 1.393 . S
C564 H553 0.950 . S
C564 C562 1.391 . S
C564 C565 1.400 . S
C565 C559 1.491 . S
C565 C564 1.400 . S
C565 C566 1.398 . S
C566 H554 0.950 . S
C566 C565 1.398 . S
C566 C567 1.391 . S
C567 H555 0.950 . S
C567 C563 1.393 . S
C567 C566 1.391 . S
H568 C576 0.950 . S
H569 C581 0.950 . S
H570 C578 0.950 . S
H571 C580 0.950 . S
H572 C582 0.950 . S
H573 C584 0.950 . S
H574 C586 0.950 . S
H575 C587 0.950 . S
C576 H568 0.950 . S
C576 C577 1.386 . S
C576 C578 1.391 . S
C577 C576 1.386 . S
C577 C581 1.393 . S
C578 H570 0.950 . S
C578 C576 1.391 . S
C578 C579 1.400 . S
C579 C578 1.400 . S
C579 C580 1.398 . S
C579 C585 1.491 . S
C580 H571 0.950 . S
C580 C579 1.398 . S
C580 C581 1.391 . S
C581 H569 0.950 . S
C581 C577 1.393 . S
C581 C580 1.391 . S
C582 H572 0.950 . S
C582 C583 1.386 . S
C582 C584 1.391 . S
C583 C582 1.386 . S
C583 C587 1.393 . S
C584 H573 0.950 . S
C584 C582 1.391 . S
C584 C585 1.400 . S
C585 C579 1.491 . S
C585 C584 1.400 . S
C585 C586 1.398 . S
C586 H574 0.950 . S
C586 C585 1.398 . S
C586 C587 1.391 . S
C587 H575 0.950 . S
C587 C583 1.393 . S
C587 C586 1.391 . S
H588 C596 0.950 . S
H589 C601 0.950 . S
H590 C598 0.950 . S
H591 C600 0.950 . S
H592 C602 0.950 . S
H593 C604 0.950 . S
H594 C606 0.950 . S
H595 C607 0.950 . S
C596 H588 0.950 . S
C596 C597 1.386 . S
C596 C598 1.391 . S
C597 C596 1.386 . S
C597 C601 1.393 . S
C598 H590 0.950 . S
C598 C596 1.391 . S
C598 C599 1.400 . S
C599 C598 1.400 . S
C599 C600 1.398 . S
C599 C605 1.491 . S
C600 H591 0.950 . S
C600 C599 1.398 . S
C600 C601 1.391 . S
C601 H589 0.950 . S
C601 C597 1.393 . S
C601 C600 1.391 . S
C602 H592 0.950 . S
C602 C603 1.386 . S
C602 C604 1.391 . S
C603 C602 1.386 . S
C603 C607 1.393 . S
C604 H593 0.950 . S
C604 C602 1.391 . S
C604 C605 1.400 . S
C605 C599 1.491 . S
C605 C604 1.400 . S
C605 C606 1.398 . S
C606 H594 0.950 . S
C606 C605 1.398 . S
C606 C607 1.391 . S
C607 H595 0.950 . S
C607 C603 1.393 . S
C607 C606 1.391 . S
H608 C616 0.950 . S
H609 C621 0.950 . S
H610 C618 0.950 . S
H611 C620 0.950 . S
H612 C622 0.950 . S
H613 C624 0.950 . S
H614 C626 0.950 . S
H615 C627 0.950 . S
C616 H608 0.950 . S
C616 C617 1.386 . S
C616 C618 1.391 . S
C617 C616 1.386 . S
C617 C621 1.393 . S
C618 H610 0.950 . S
C618 C616 1.391 . S
C618 C619 1.400 . S
C619 C618 1.400 . S
C619 C620 1.398 . S
C619 C625 1.491 . S
C620 H611 0.950 . S
C620 C619 1.398 . S
C620 C621 1.391 . S
C621 H609 0.950 . S
C621 C617 1.393 . S
C621 C620 1.391 . S
C622 H612 0.950 . S
C622 C623 1.386 . S
C622 C624 1.391 . S
C623 C622 1.386 . S
C623 C627 1.393 . S
C624 H613 0.950 . S
C624 C622 1.391 . S
C624 C625 1.400 . S
C625 C619 1.491 . S
C625 C624 1.400 . S
C625 C626 1.398 . S
C626 H614 0.950 . S
C626 C625 1.398 . S
C626 C627 1.391 . S
C627 H615 0.950 . S
C627 C623 1.393 . S
C627 C626 1.391 . S
H628 C636 0.950 . S
H629 C641 0.950 . S
H630 C638 0.950 . S
H631 C640 0.950 . S
H632 C642 0.950 . S
H633 C644 0.950 . S
H634 C646 0.950 . S
H635 C647 0.950 . S
C636 H628 0.950 . S
C636 C637 1.386 . S
C636 C638 1.391 . S
C637 C636 1.386 . S
C637 C641 1.393 . S
C638 H630 0.950 . S
C638 C636 1.391 . S
C638 C639 1.400 . S
C639 C638 1.400 . S
C639 C640 1.398 . S
C639 C645 1.491 . S
C640 H631 0.950 . S
C640 C639 1.398 . S
C640 C641 1.391 . S
C641 H629 0.950 . S
C641 C637 1.393 . S
C641 C640 1.391 . S
C642 H632 0.950 . S
C642 C643 1.386 . S
C642 C644 1.391 . S
C643 C642 1.386 . S
C643 C647 1.393 . S
C644 H633 0.950 . S
C644 C642 1.391 . S
C644 C645 1.400 . S
C645 C639 1.491 . S
C645 C644 1.400 . S
C645 C646 1.398 . S
C646 H634 0.950 . S
C646 C645 1.398 . S
C646 C647 1.391 . S
C647 H635 0.950 . S
C647 C643 1.393 . S
C647 C646 1.391 . S
H648 C656 0.950 . S
H649 C661 0.950 . S
H650 C658 0.950 . S
H651 C660 0.950 . S
H652 C662 0.950 . S
H653 C664 0.950 . S
H654 C666 0.950 . S
H655 C667 0.950 . S
C656 H648 0.950 . S
C656 C657 1.386 . S
C656 C658 1.391 . S
C657 C656 1.386 . S
C657 C661 1.393 . S
C658 H650 0.950 . S
C658 C656 1.391 . S
C658 C659 1.400 . S
C659 C658 1.400 . S
C659 C660 1.398 . S
C659 C665 1.491 . S
C660 H651 0.950 . S
C660 C659 1.398 . S
C660 C661 1.391 . S
C661 H649 0.950 . S
C661 C657 1.393 . S
C661 C660 1.391 . S
C662 H652 0.950 . S
C662 C663 1.386 . S
C662 C664 1.391 . S
C663 C662 1.386 . S
C663 C667 1.393 . S
C664 H653 0.950 . S
C664 C662 1.391 . S
C664 C665 1.400 . S
C665 C659 1.491 . S
C665 C664 1.400 . S
C665 C666 1.398 . S
C666 H654 0.950 . S
C666 C665 1.398 . S
C666 C667 1.391 . S
C667 H655 0.950 . S
C667 C663 1.393 . S
C667 C666 1.391 . S
H668 C676 0.950 . S
H669 C681 0.950 . S
H670 C678 0.950 . S
H671 C680 0.950 . S
H672 C682 0.950 . S
H673 C684 0.950 . S
H674 C686 0.950 . S
H675 C687 0.950 . S
C676 H668 0.950 . S
C676 C677 1.386 . S
C676 C678 1.391 . S
C677 C676 1.386 . S
C677 C681 1.393 . S
C678 H670 0.950 . S
C678 C676 1.391 . S
C678 C679 1.400 . S
C679 C678 1.400 . S
C679 C680 1.398 . S
C679 C685 1.491 . S
C680 H671 0.950 . S
C680 C679 1.398 . S
C680 C681 1.391 . S
C681 H669 0.950 . S
C681 C677 1.393 . S
C681 C680 1.391 . S
C682 H672 0.950 . S
C682 C683 1.386 . S
C682 C684 1.391 . S
C683 C682 1.386 . S
C683 C687 1.393 . S
C684 H673 0.950 . S
C684 C682 1.391 . S
C684 C685 1.400 . S
C685 C679 1.491 . S
C685 C684 1.400 . S
C685 C686 1.398 . S
C686 H674 0.950 . S
C686 C685 1.398 . S
C686 C687 1.391 . S
C687 H675 0.950 . S
C687 C683 1.393 . S
C687 C686 1.391 . S
H688 C696 0.950 . S
H689 C701 0.950 . S
H690 C698 0.950 . S
H691 C700 0.950 . S
H692 C702 0.950 . S
H693 C704 0.950 . S
H694 C706 0.950 . S
H695 C707 0.950 . S
C696 H688 0.950 . S
C696 C697 1.386 . S
C696 C698 1.391 . S
C697 C696 1.386 . S
C697 C701 1.393 1_455 S
C698 H690 0.950 . S
C698 C696 1.391 . S
C698 C699 1.400 . S
C699 C698 1.400 . S
C699 C700 1.398 1_455 S
C699 C705 1.491 1_455 S
C700 H691 0.950 . S
C700 C699 1.398 1_655 S
C700 C701 1.391 . S
C701 H689 0.950 . S
C701 C697 1.393 1_655 S
C701 C700 1.391 . S
C702 H692 0.950 . S
C702 C703 1.386 . S
C702 C704 1.391 . S
C703 C702 1.386 . S
C703 C707 1.393 1_655 S
C704 H693 0.950 . S
C704 C702 1.391 . S
C704 C705 1.400 . S
C705 C699 1.491 1_655 S
C705 C704 1.400 . S
C705 C706 1.398 1_655 S
C706 H694 0.950 . S
C706 C705 1.398 1_455 S
C706 C707 1.391 . S
C707 H695 0.950 . S
C707 C703 1.393 1_455 S
C707 C706 1.391 . S
H708 C716 0.950 . S
H709 C721 0.950 . S
H710 C718 0.950 . S
H711 C720 0.950 . S
H712 C722 0.950 . S
H713 C724 0.950 . S
H714 C726 0.950 . S
H715 C727 0.950 . S
C716 H708 0.950 . S
C716 C717 1.386 1_545 S
C716 C718 1.391 . S
C717 C716 1.386 1_565 S
C717 C721 1.393 . S
C718 H710 0.950 . S
C718 C716 1.391 . S
C718 C719 1.383 1_545 S
C719 C718 1.383 1_565 S
C719 C720 1.417 . S
C719 C725 1.489 1_565 S
C720 H711 0.950 . S
C720 C719 1.417 . S
C720 C721 1.391 . S
C721 H709 0.950 . S
C721 C717 1.393 . S
C721 C720 1.391 . S
C722 H712 0.950 . S
C722 C723 1.386 1_565 S
C722 C724 1.391 . S
C723 C722 1.386 1_545 S
C723 C727 1.393 . S
C724 H713 0.950 . S
C724 C722 1.391 . S
C724 C725 1.383 1_565 S
C725 C719 1.489 1_545 S
C725 C724 1.383 1_545 S
C725 C726 1.417 . S
C726 H714 0.950 . S
C726 C725 1.417 . S
C726 C727 1.391 . S
C727 H715 0.950 . S
C727 C723 1.393 . S
C727 C726 1.391 . S
H728 C736 0.950 . S
H729 C741 0.950 . S
H730 C738 0.950 . S
H731 C740 0.950 . S
H732 C742 0.950 . S
H733 C744 0.950 . S
H734 C746 0.950 . S
H735 C747 0.950 . S
C736 H728 0.950 . S
C736 C737 1.386 1_655 S
C736 C738 1.391 . S
C737 C736 1.386 1_455 S
C737 C741 1.393 . S
C738 H730 0.950 . S
C738 C736 1.391 . S
C738 C739 1.396 1_655 S
C739 C738 1.396 1_455 S
C739 C740 1.403 . S
C739 C745 1.490 1_455 S
C740 H731 0.950 . S
C740 C739 1.403 . S
C740 C741 1.391 . S
C741 H729 0.950 . S
C741 C737 1.393 . S
C741 C740 1.391 . S
C742 H732 0.950 . S
C742 C743 1.386 1_455 S
C742 C744 1.391 . S
C743 C742 1.386 1_655 S
C743 C747 1.393 . S
C744 H733 0.950 . S
C744 C742 1.391 . S
C744 C745 1.396 1_455 S
C745 C739 1.490 1_655 S
C745 C744 1.396 1_655 S
C745 C746 1.403 . S
C746 H734 0.950 . S
C746 C745 1.403 . S
C746 C747 1.391 . S
C747 H735 0.950 . S
C747 C743 1.393 . S
C747 C746 1.391 . S
H748 C756 0.950 . S
H749 C761 0.950 . S
H750 C758 0.950 . S
H751 C760 0.950 . S
H752 C762 0.950 . S
H753 C764 0.950 . S
H754 C766 0.950 . S
H755 C767 0.950 . S
C756 H748 0.950 . S
C756 C757 1.386 1_565 S
C756 C758 1.391 . S
C757 C756 1.386 1_545 S
C757 C761 1.393 . S
C758 H750 0.950 . S
C758 C756 1.391 . S
C758 C759 1.400 1_565 S
C759 C758 1.400 1_545 S
C759 C760 1.398 . S
C759 C765 1.491 1_545 S
C760 H751 0.950 . S
C760 C759 1.398 . S
C760 C761 1.391 . S
C761 H749 0.950 . S
C761 C757 1.393 . S
C761 C760 1.391 . S
C762 H752 0.950 . S
C762 C763 1.386 1_545 S
C762 C764 1.391 . S
C763 C762 1.386 1_565 S
C763 C767 1.393 . S
C764 H753 0.950 . S
C764 C762 1.391 . S
C764 C765 1.400 1_545 S
C765 C759 1.491 1_565 S
C765 C764 1.400 1_565 S
C765 C766 1.398 . S
C766 H754 0.950 . S
C766 C765 1.398 . S
C766 C767 1.391 . S
C767 H755 0.950 . S
C767 C763 1.393 . S
C767 C766 1.391 . S
H768 C776 0.950 . S
H769 C781 0.950 . S
H770 C778 0.950 . S
H771 C780 0.950 . S
H772 C782 0.950 . S
H773 C784 0.950 . S
H774 C786 0.950 . S
H775 C787 0.950 . S
C776 H768 0.950 . S
C776 C777 1.386 . S
C776 C778 1.391 . S
C777 C776 1.386 . S
C777 C781 1.393 . S
C778 H770 0.950 . S
C778 C776 1.391 . S
C778 C779 1.400 . S
C779 C778 1.400 . S
C779 C780 1.398 . S
C779 C785 1.491 1_556 S
C780 H771 0.950 . S
C780 C779 1.398 . S
C780 C781 1.391 . S
C781 H769 0.950 . S
C781 C777 1.393 . S
C781 C780 1.391 . S
C782 H772 0.950 . S
C782 C783 1.386 . S
C782 C784 1.391 . S
C783 C782 1.386 . S
C783 C787 1.393 . S
C784 H773 0.950 . S
C784 C782 1.391 . S
C784 C785 1.400 . S
C785 C779 1.491 1_554 S
C785 C784 1.400 . S
C785 C786 1.398 . S
C786 H774 0.950 . S
C786 C785 1.398 . S
C786 C787 1.391 . S
C787 H775 0.950 . S
C787 C783 1.393 . S
C787 C786 1.391 . S
H788 C796 0.950 . S
H789 C801 0.950 . S
H790 C798 0.950 . S
H791 C800 0.950 . S
H792 C802 0.950 . S
H793 C804 0.950 . S
H794 C806 0.950 . S
H795 C807 0.950 . S
C796 H788 0.950 . S
C796 C797 1.386 . S
C796 C798 1.391 . S
C797 C796 1.386 . S
C797 C801 1.393 . S
C798 H790 0.950 . S
C798 C796 1.391 . S
C798 C799 1.400 . S
C799 C798 1.400 . S
C799 C800 1.398 . S
C799 C805 1.491 1_556 S
C800 H791 0.950 . S
C800 C799 1.398 . S
C800 C801 1.391 . S
C801 H789 0.950 . S
C801 C797 1.393 . S
C801 C800 1.391 . S
C802 H792 0.950 . S
C802 C803 1.386 . S
C802 C804 1.391 . S
C803 C802 1.386 . S
C803 C807 1.393 . S
C804 H793 0.950 . S
C804 C802 1.391 . S
C804 C805 1.400 . S
C805 C799 1.491 1_554 S
C805 C804 1.400 . S
C805 C806 1.398 . S
C806 H794 0.950 . S
C806 C805 1.398 . S
C806 C807 1.391 . S
C807 H795 0.950 . S
C807 C803 1.393 . S
C807 C806 1.391 . S
H808 C816 0.950 . S
H809 C821 0.950 . S
H810 C818 0.950 . S
H811 C820 0.950 . S
H812 C822 0.950 . S
H813 C824 0.950 . S
H814 C826 0.950 . S
H815 C827 0.950 . S
C816 H808 0.950 . S
C816 C817 1.386 . S
C816 C818 1.391 . S
C817 C816 1.386 . S
C817 C821 1.393 . S
C818 H810 0.950 . S
C818 C816 1.391 . S
C818 C819 1.400 . S
C819 C818 1.400 . S
C819 C820 1.398 . S
C819 C825 1.491 1_554 S
C820 H811 0.950 . S
C820 C819 1.398 . S
C820 C821 1.391 . S
C821 H809 0.950 . S
C821 C817 1.393 . S
C821 C820 1.391 . S
C822 H812 0.950 . S
C822 C823 1.386 . S
C822 C824 1.391 . S
C823 C822 1.386 . S
C823 C827 1.393 . S
C824 H813 0.950 . S
C824 C822 1.391 . S
C824 C825 1.400 . S
C825 C819 1.491 1_556 S
C825 C824 1.400 . S
C825 C826 1.398 . S
C826 H814 0.950 . S
C826 C825 1.398 . S
C826 C827 1.391 . S
C827 H815 0.950 . S
C827 C823 1.393 . S
C827 C826 1.391 . S
H828 C836 0.950 . S
H829 C841 0.950 . S
H830 C838 0.950 . S
H831 C840 0.950 . S
H832 C842 0.950 . S
H833 C844 0.950 . S
H834 C846 0.950 . S
H835 C847 0.950 . S
C836 H828 0.950 . S
C836 C837 1.386 . S
C836 C838 1.391 . S
C837 C836 1.386 . S
C837 C841 1.393 . S
C838 H830 0.950 . S
C838 C836 1.391 . S
C838 C839 1.400 . S
C839 C838 1.400 . S
C839 C840 1.398 . S
C839 C845 1.491 1_556 S
C840 H831 0.950 . S
C840 C839 1.398 . S
C840 C841 1.391 . S
C841 H829 0.950 . S
C841 C837 1.393 . S
C841 C840 1.391 . S
C842 H832 0.950 . S
C842 C843 1.386 . S
C842 C844 1.391 . S
C843 C842 1.386 . S
C843 C847 1.393 . S
C844 H833 0.950 . S
C844 C842 1.391 . S
C844 C845 1.400 . S
C845 C839 1.491 1_554 S
C845 C844 1.400 . S
C845 C846 1.398 . S
C846 H834 0.950 . S
C846 C845 1.398 . S
C846 C847 1.391 . S
C847 H835 0.950 . S
C847 C843 1.393 . S
C847 C846 1.391 . S
C217 C8 1.398 . S
C223 C44 1.328 . S
C237 C5 1.322 . S
C243 C21 1.387 . S
C257 C18 1.297 . S
C263 C34 1.394 . S
C277 C31 1.329 . S
C283 C47 1.397 . S
C297 C60 1.393 . S
C303 C70 1.331 . S
C317 C73 1.404 . S
C323 C83 1.312 . S
C337 C86 1.405 . S
C343 C96 1.297 . S
C357 C99 1.392 . S
C363 C57 1.332 . S
C377 C112 1.393 . S
C383 C148 1.332 . S
C397 C109 1.308 . S
C403 C125 1.389 . S
C417 C122 1.329 . S
C423 C138 1.397 . S
C437 C151 1.402 . S
C443 C135 1.293 . S
C457 C174 1.314 . S
C463 C164 1.388 . S
C477 C187 1.299 . S
C483 C177 1.393 . S
C497 C190 1.394 . S
C503 C200 1.298 . S
C517 C203 1.391 . S
C523 C161 1.304 . S
C537 C0 1.035 . S
C543 C195 1.041 . S
C557 C13 1.044 . S
C563 C156 1.042 . S
C577 C169 1.043 . S
C583 C26 1.038 . S
C597 C39 1.023 . S
C603 C182 1.031 . S
C617 C117 1.017 . S
C623 C52 1.012 . S
C637 C130 1.044 . S
C643 C65 1.042 . S
C657 C78 1.026 . S
C663 C143 1.018 . S
C677 C91 1.044 . S
C683 C104 1.043 . S
C697 C10 1.395 . S
C703 C88 1.378 . S
C717 C101 1.385 . S
C723 C23 1.404 . S
C737 C62 1.392 . S
C743 C36 1.401 . S
C757 C75 1.379 . S
C763 C49 1.393 . S
C777 C114 1.393 . S
C783 C192 1.400 . S
C797 C127 1.383 . S
C803 C205 1.387 . S
C817 C166 1.395 . S
C823 C140 1.399 . S
C837 C153 1.379 . S
C843 C179 1.395 . S
