# Generated by pormake.
# Topology wje, (4)-cn, num edge types: 1
# Building blocks:
#     Node 0, Type 0, BuildingBlock: KUFVIS_clean_sbu_0, # of connection points: 4
#     Node 1, Type 0, BuildingBlock: KUFVIS_clean_sbu_0, # of connection points: 4
#     Node 2, Type 0, BuildingBlock: KUFVIS_clean_sbu_0, # of connection points: 4
#     Node 3, Type 0, BuildingBlock: KUFVIS_clean_sbu_0, # of connection points: 4
#     Node 4, Type 0, BuildingBlock: KUFVIS_clean_sbu_0, # of connection points: 4
#     Node 5, Type 0, BuildingBlock: KUFVIS_clean_sbu_0, # of connection points: 4
#     Node 6, Type 0, BuildingBlock: KUFVIS_clean_sbu_0, # of connection points: 4
#     Node 7, Type 0, BuildingBlock: KUFVIS_clean_sbu_0, # of connection points: 4
#     Node 8, Type 0, BuildingBlock: KUFVIS_clean_sbu_0, # of connection points: 4
#     Node 9, Type 0, BuildingBlock: KUFVIS_clean_sbu_0, # of connection points: 4
#     Node 10, Type 0, BuildingBlock: KUFVIS_clean_sbu_0, # of connection points: 4
#     Node 11, Type 0, BuildingBlock: KUFVIS_clean_sbu_0, # of connection points: 4
#     Edge 12, Type (0, 0), BuildingBlock: UVAHIK_clean_linker_0, # of connection points: 2
#     Edge 13, Type (0, 0), BuildingBlock: UVAHIK_clean_linker_0, # of connection points: 2
#     Edge 14, Type (0, 0), BuildingBlock: UVAHIK_clean_linker_0, # of connection points: 2
#     Edge 15, Type (0, 0), BuildingBlock: UVAHIK_clean_linker_0, # of connection points: 2
#     Edge 16, Type (0, 0), BuildingBlock: UVAHIK_clean_linker_0, # of connection points: 2
#     Edge 17, Type (0, 0), BuildingBlock: UVAHIK_clean_linker_0, # of connection points: 2
#     Edge 18, Type (0, 0), BuildingBlock: UVAHIK_clean_linker_0, # of connection points: 2
#     Edge 19, Type (0, 0), BuildingBlock: UVAHIK_clean_linker_0, # of connection points: 2
#     Edge 20, Type (0, 0), BuildingBlock: UVAHIK_clean_linker_0, # of connection points: 2
#     Edge 21, Type (0, 0), BuildingBlock: UVAHIK_clean_linker_0, # of connection points: 2
#     Edge 22, Type (0, 0), BuildingBlock: UVAHIK_clean_linker_0, # of connection points: 2
#     Edge 23, Type (0, 0), BuildingBlock: UVAHIK_clean_linker_0, # of connection points: 2
#     Edge 24, Type (0, 0), BuildingBlock: UVAHIK_clean_linker_0, # of connection points: 2
#     Edge 25, Type (0, 0), BuildingBlock: UVAHIK_clean_linker_0, # of connection points: 2
#     Edge 26, Type (0, 0), BuildingBlock: UVAHIK_clean_linker_0, # of connection points: 2
#     Edge 27, Type (0, 0), BuildingBlock: UVAHIK_clean_linker_0, # of connection points: 2
#     Edge 28, Type (0, 0), BuildingBlock: UVAHIK_clean_linker_0, # of connection points: 2
#     Edge 29, Type (0, 0), BuildingBlock: UVAHIK_clean_linker_0, # of connection points: 2
#     Edge 30, Type (0, 0), BuildingBlock: UVAHIK_clean_linker_0, # of connection points: 2
#     Edge 31, Type (0, 0), BuildingBlock: UVAHIK_clean_linker_0, # of connection points: 2
#     Edge 32, Type (0, 0), BuildingBlock: UVAHIK_clean_linker_0, # of connection points: 2
#     Edge 33, Type (0, 0), BuildingBlock: UVAHIK_clean_linker_0, # of connection points: 2
#     Edge 34, Type (0, 0), BuildingBlock: UVAHIK_clean_linker_0, # of connection points: 2
#     Edge 35, Type (0, 0), BuildingBlock: UVAHIK_clean_linker_0, # of connection points: 2
# Relax obj value: 0.164
# Max RMSD: 0.107
# Mean RMSD: 0.107
data_MOF--net-wje--node1-KUFVIS_clean_sbu_0--edge1-UVAHIK_clean_linker_0
_symmetry_space_group_name_H-M    P1
_symmetry_Int_Tables_number       1
_symmetry_cell_setting            triclinic
loop_
_symmetry_equiv_pos_as_xyz
'x, y, z'
_cell_length_a     51.091109
_cell_length_b     51.105613
_cell_length_c     49.146494
_cell_angle_alpha  90.019758
_cell_angle_beta   90.003158
_cell_angle_gamma 120.01277
loop_
_atom_site_label
_atom_site_type_symbol
_atom_site_fract_x
_atom_site_fract_y
_atom_site_fract_z
_atom_type_partial_charge
Mn0 Mn 0.31818 0.01821 0.31489 0.0
Mn1 Mn 0.29536 0.97791 0.25697 0.0
C2 C 0.26735 0.98932 0.30536 0.0
C3 C 0.33047 0.01838 0.36083 0.0
C4 C 0.32177 0.04605 0.25905 0.0
O5 O 0.35535 0.01703 0.30252 0.0
O6 O 0.3373 0.98699 0.2655 0.0
C7 C 0.2927 0.92159 0.27569 0.0
N8 N 0.27862 0.93596 0.26512 0.0
C9 C 0.23086 0.88958 0.26387 0.0
C10 C 0.2449 0.87425 0.27455 0.0
C11 C 0.27596 0.89034 0.28048 0.0
C12 C 0.24879 0.92067 0.25915 0.0
H13 H 0.3165 0.93392 0.28056 0.0
C14 C 0.35829 0.00248 0.28278 0.0
O15 O 0.33985 0.04365 0.34769 0.0
O16 O 0.3149 0.99378 0.34714 0.0
N17 N 0.25501 0.96751 0.2472 0.0
C18 C 0.24449 0.986 0.23891 0.0
C19 C 0.2136 0.97363 0.23317 0.0
C20 C 0.19386 0.94241 0.23606 0.0
C21 C 0.20521 0.92382 0.24459 0.0
C22 C 0.23626 0.93738 0.24971 0.0
H23 H 0.25951 0.01006 0.23693 0.0
O24 O 0.27692 0.01164 0.32239 0.0
O25 O 0.28811 0.98522 0.2943 0.0
O26 O 0.32495 0.04928 0.28491 0.0
O27 O 0.31155 0.0206 0.24699 0.0
C28 C 0.18681 0.89249 0.24882 0.0
C29 C 0.19962 0.87538 0.25842 0.0
H30 H 0.23199 0.85021 0.27859 0.0
H31 H 0.28691 0.87871 0.2889 0.0
H32 H 0.20499 0.98814 0.22671 0.0
H33 H 0.16999 0.933 0.23191 0.0
H34 H 0.16269 0.8814 0.24511 0.0
H35 H 0.18517 0.85138 0.26195 0.0
Mn36 Mn 0.29552 0.32343 0.64959 0.0
Mn37 Mn 0.31348 0.3021 0.59094 0.0
C38 C 0.27473 0.27283 0.63962 0.0
C39 C 0.30793 0.33628 0.69527 0.0
C40 C 0.27021 0.32664 0.59417 0.0
O41 O 0.33307 0.36141 0.63709 0.0
O42 O 0.3457 0.34404 0.60001 0.0
C43 C 0.36801 0.30044 0.60865 0.0
N44 N 0.33959 0.28614 0.59799 0.0
C45 C 0.34017 0.23954 0.59358 0.0
C46 C 0.36953 0.25382 0.60434 0.0
C47 C 0.38348 0.2844 0.61193 0.0
C48 C 0.32599 0.25677 0.5905 0.0
H49 H 0.37873 0.32388 0.61468 0.0
C50 C 0.35075 0.3648 0.61738 0.0
O51 O 0.29087 0.34438 0.68237 0.0
O52 O 0.31776 0.32133 0.68165 0.0
N53 N 0.2842 0.26179 0.58043 0.0
C54 C 0.25498 0.25076 0.57252 0.0
C55 C 0.23732 0.22013 0.56543 0.0
C56 C 0.2499 0.20121 0.56649 0.0
C57 C 0.28006 0.2131 0.57462 0.0
C58 C 0.29663 0.24385 0.58125 0.0
H59 H 0.24513 0.26515 0.57182 0.0
O60 O 0.26184 0.28166 0.65721 0.0
O61 O 0.29929 0.29403 0.62848 0.0
O62 O 0.27013 0.32929 0.62009 0.0
O63 O 0.28614 0.31748 0.58177 0.0
C64 C 0.2941 0.19549 0.57701 0.0
C65 C 0.32413 0.20869 0.58649 0.0
H66 H 0.38143 0.24145 0.60716 0.0
H67 H 0.40606 0.29553 0.62041 0.0
H68 H 0.21403 0.2111 0.55928 0.0
H69 H 0.23612 0.17753 0.56126 0.0
H70 H 0.28184 0.17164 0.57204 0.0
H71 H 0.33449 0.19478 0.5887 0.0
Mn72 Mn 0.97651 0.29792 0.97897 0.0
Mn73 Mn 0.01486 0.31643 0.91982 0.0
C74 C 0.00563 0.2767 0.96759 0.0
C75 C 0.97715 0.30921 0.02523 0.0
C76 C 0.94689 0.27423 0.92357 0.0
O77 O 0.97691 0.33626 0.96773 0.0
O78 O 0.00594 0.34892 0.92998 0.0
C79 C 0.07181 0.37012 0.93747 0.0
N80 N 0.05712 0.34185 0.92653 0.0
C81 C 0.10378 0.34151 0.92128 0.0
C82 C 0.11943 0.3707 0.93233 0.0
C83 C 0.10336 0.38505 0.94048 0.0
C84 C 0.07237 0.3279 0.91847 0.0
H85 H 0.05953 0.38115 0.94394 0.0
C86 C 0.9909 0.35408 0.948 0.0
O87 O 0.95168 0.29331 0.01236 0.0
O88 O 0.00157 0.31875 0.0111 0.0
N89 N 0.02507 0.28684 0.90835 0.0
C90 C 0.00636 0.2578 0.90023 0.0
C91 C 0.01873 0.23977 0.8926 0.0
C92 C 0.05018 0.25178 0.89339 0.0
C93 C 0.06899 0.28174 0.90177 0.0
C94 C 0.05539 0.29872 0.90892 0.0
H95 H 0.98215 0.24839 0.89978 0.0
O96 O 0.98395 0.26352 0.98519 0.0
O97 O 0.00905 0.30154 0.95708 0.0
O98 O 0.94455 0.27369 0.94954 0.0
O99 O 0.97189 0.28987 0.91097 0.0
C100 C 0.10062 0.2952 0.90393 0.0
C101 C 0.11801 0.32507 0.91365 0.0
H102 H 0.14373 0.38216 0.93496 0.0
H103 H 0.11526 0.4075 0.94919 0.0
H104 H 0.00406 0.21662 0.88627 0.0
H105 H 0.05961 0.23771 0.88774 0.0
H106 H 0.11177 0.28261 0.89859 0.0
H107 H 0.14226 0.33498 0.91566 0.0
Mn108 Mn 0.67164 0.9728 0.3142 0.0
Mn109 Mn 0.69516 0.01214 0.25584 0.0
C110 C 0.72257 0.00057 0.30459 0.0
C111 C 0.65956 0.97373 0.36004 0.0
C112 C 0.66716 0.94383 0.25876 0.0
O113 O 0.63502 0.97489 0.30157 0.0
O114 O 0.65366 0.00438 0.26429 0.0
C115 C 0.69959 0.06951 0.27377 0.0
N116 N 0.71297 0.05433 0.2635 0.0
C117 C 0.76143 0.09989 0.26192 0.0
C118 C 0.74812 0.11605 0.2723 0.0
C119 C 0.71707 0.10079 0.27824 0.0
C120 C 0.74279 0.06882 0.25752 0.0
H121 H 0.67579 0.05783 0.27865 0.0
C122 C 0.63256 0.98955 0.28166 0.0
O123 O 0.64961 0.94816 0.34724 0.0
O124 O 0.67561 -0.00201 0.34608 0.0
N125 N 0.73517 0.02129 0.24617 0.0
C126 C 0.74491 0.00205 0.23821 0.0
C127 C 0.77568 0.01356 0.23251 0.0
C128 C 0.7961 0.04467 0.23509 0.0
C129 C 0.78554 0.06402 0.24329 0.0
C130 C 0.75457 0.05132 0.24839 0.0
H131 H 0.72937 0.97808 0.23647 0.0
O132 O 0.71255 0.97848 0.32189 0.0
O133 O 0.70217 0.00508 0.29331 0.0
O134 O 0.66408 0.94104 0.28465 0.0
O135 O 0.67785 0.96915 0.24638 0.0
C136 C 0.80465 0.09531 0.24722 0.0
C137 C 0.7926 0.11324 0.25649 0.0
H138 H 0.76159 0.14011 0.27608 0.0
H139 H 0.70667 0.11307 0.28643 0.0
H140 H 0.78368 -0.00155 0.22631 0.0
H141 H 0.81988 0.0534 0.23098 0.0
H142 H 0.82872 0.10575 0.24352 0.0
H143 H 0.80758 0.13719 0.25979 0.0
Mn144 Mn 0.69646 0.67811 0.64592 0.0
Mn145 Mn 0.67886 0.6983 0.58652 0.0
C146 C 0.71897 0.72844 0.63424 0.0
C147 C 0.68439 0.66802 0.69214 0.0
C148 C 0.71968 0.67096 0.59075 0.0
O149 O 0.65768 0.64068 0.6347 0.0
O150 O 0.64556 0.65728 0.5968 0.0
C151 C 0.62607 0.70331 0.60391 0.0
N152 N 0.65434 0.71619 0.59301 0.0
C153 C 0.65625 0.76393 0.58779 0.0
C154 C 0.62708 0.75112 0.59879 0.0
C155 C 0.61194 0.72068 0.60689 0.0
C156 C 0.66903 0.74541 0.58497 0.0
H157 H 0.61446 0.67999 0.61038 0.0
C158 C 0.63996 0.63711 0.61497 0.0
O159 O 0.69997 0.65774 0.67979 0.0
O160 O 0.67577 0.68334 0.67757 0.0
N161 N 0.70922 0.73773 0.57493 0.0
C162 C 0.73813 0.74728 0.56686 0.0
C163 C 0.75687 0.77759 0.55927 0.0
C164 C 0.74572 0.79773 0.56007 0.0
C165 C 0.71587 0.78737 0.56841 0.0
C166 C 0.69815 0.75685 0.57548 0.0
H167 H 0.7469 0.73196 0.56643 0.0
O168 O 0.73158 0.71954 0.65206 0.0
O169 O 0.69389 0.70738 0.62373 0.0
O170 O 0.72021 0.66933 0.61675 0.0
O171 O 0.70453 0.68079 0.578 0.0
C172 C 0.70327 0.8063 0.57062 0.0
C173 C 0.67347 0.79458 0.58027 0.0
H174 H 0.61624 0.76453 0.60142 0.0
H175 H 0.5895 0.71068 0.61556 0.0
H176 H 0.77992 0.78545 0.55297 0.0
H177 H 0.76035 0.82117 0.55448 0.0
H178 H 0.71647 0.83002 0.56537 0.0
H179 H 0.66421 0.80948 0.58231 0.0
Mn180 Mn 0.0189 0.69785 0.97991 0.0
Mn181 Mn 0.9821 0.68034 0.91994 0.0
C182 C 0.99049 0.71961 0.96794 0.0
C183 C 0.01711 0.6859 0.0261 0.0
C184 C 0.04992 0.72256 0.92516 0.0
O185 O 0.01859 0.6596 0.96864 0.0
O186 O 0.99093 0.64774 0.93008 0.0
C187 C 0.92489 0.62628 0.93646 0.0
N188 N 0.93972 0.65469 0.92584 0.0
C189 C 0.89309 0.65495 0.91996 0.0
C190 C 0.8773 0.62562 0.93066 0.0
C191 C 0.89328 0.61123 0.93896 0.0
C192 C 0.92455 0.66867 0.91763 0.0
H193 H 0.9371 0.61523 0.94308 0.0
C194 C 0.0053 0.64219 0.9485 0.0
O195 O 0.04289 0.70184 0.01373 0.0
O196 O 0.99303 0.67671 0.01153 0.0
N197 N 0.97198 0.70996 0.90837 0.0
C198 C 0.99078 0.7391 0.90059 0.0
C199 C 0.97847 0.75714 0.89283 0.0
C200 C 0.947 0.74504 0.89313 0.0
C201 C 0.92811 0.71497 0.90116 0.0
C202 C 0.94165 0.69798 0.90843 0.0
H203 H 0.015 0.74859 0.90052 0.0
O204 O 0.0117 0.73235 0.98604 0.0
O205 O 0.98698 0.69475 0.95736 0.0
O206 O 0.05158 0.72233 0.95116 0.0
O207 O 0.02526 0.70723 0.91197 0.0
C208 C 0.89643 0.70142 0.90286 0.0
C209 C 0.87893 0.67143 0.91223 0.0
H210 H 0.85295 0.61406 0.9329 0.0
H211 H 0.88127 0.58867 0.94741 0.0
H212 H 0.99321 0.78037 0.88677 0.0
H213 H 0.93761 0.75913 0.88741 0.0
H214 H 0.88533 0.71402 0.89743 0.0
H215 H 0.85464 0.66144 0.91388 0.0
Mn216 Mn 0.97251 0.67306 0.36194 0.0
Mn217 Mn 0.00926 0.69221 0.42192 0.0
C218 C 0.00099 0.72321 0.37398 0.0
C219 C 0.97467 0.66308 0.31573 0.0
C220 C 0.94143 0.66665 0.41666 0.0
O221 O 0.97267 0.63505 0.37319 0.0
O222 O 0.00048 0.65083 0.41166 0.0
C223 C 0.06653 0.69548 0.40541 0.0
N224 N 0.05166 0.70902 0.41606 0.0
C225 C 0.09824 0.75597 0.42195 0.0
C226 C 0.11408 0.74247 0.41123 0.0
C227 C 0.09814 0.7121 0.40291 0.0
C228 C 0.06678 0.73817 0.42429 0.0
H229 H 0.05436 0.67222 0.39878 0.0
C230 C 0.98602 0.63091 0.39326 0.0
O231 O 0.94877 0.65327 0.32788 0.0
O232 O -0.00142 0.67782 0.33052 0.0
N233 N 0.01931 0.73192 0.43356 0.0
C234 C 0.00047 0.74222 0.44134 0.0
C235 C 0.01274 0.77257 0.44911 0.0
C236 C 0.0442 0.79199 0.4488 0.0
C237 C 0.06313 0.78086 0.44076 0.0
C238 C 0.04964 0.75033 0.4335 0.0
H239 H 0.97626 0.72746 0.4414 0.0
O240 O 0.97984 0.71482 0.35585 0.0
O241 O 0.00439 0.7018 0.38455 0.0
O242 O 0.93975 0.66487 0.39064 0.0
O243 O 0.96609 0.67589 0.42982 0.0
C244 C 0.09481 0.79905 0.43905 0.0
C245 C 0.11235 0.7866 0.42967 0.0
H246 H 0.13842 0.7553 0.40897 0.0
H247 H 0.11018 0.70158 0.39445 0.0
H248 H -0.00203 0.78103 0.45516 0.0
H249 H 0.05355 0.81547 0.45452 0.0
H250 H 0.10587 0.82276 0.44447 0.0
H251 H 0.13663 0.80095 0.42801 0.0
Mn252 Mn 0.29716 0.97805 0.69668 0.0
Mn253 Mn 0.31361 0.01684 0.75542 0.0
C254 C 0.27426 0.00587 0.70709 0.0
C255 C 0.30979 0.9796 0.65063 0.0
C256 C 0.27322 0.94855 0.75202 0.0
O257 O 0.33595 0.97995 0.70874 0.0
O258 O 0.3472 0.00911 0.74632 0.0
C259 C 0.36647 0.07437 0.73767 0.0
N260 N 0.33798 0.0591 0.74811 0.0
C261 C 0.33519 0.10468 0.75054 0.0
C262 C 0.36458 0.12092 0.73999 0.0
C263 C 0.38028 0.1057 0.73353 0.0
C264 C 0.32275 0.07356 0.75459 0.0
H265 H 0.3785 0.06272 0.73239 0.0
C266 C 0.35325 0.99438 0.72864 0.0
O267 O 0.29424 0.95384 0.66315 0.0
O268 O 0.31815 0.00364 0.66497 0.0
N269 N 0.28286 0.02592 0.7657 0.0
C270 C 0.25392 0.00661 0.77374 0.0
C271 C 0.23474 0.01808 0.77992 0.0
C272 C 0.24546 0.04923 0.77773 0.0
C273 C 0.27534 0.06865 0.76943 0.0
C274 C 0.29353 0.05598 0.76385 0.0
H275 H 0.24546 0.98261 0.77518 0.0
O276 O 0.26192 0.98392 0.68965 0.0
O277 O 0.29919 0.01012 0.71808 0.0
O278 O 0.27323 0.94597 0.72607 0.0
O279 O 0.28796 0.97378 0.76453 0.0
C280 C 0.28754 0.09999 0.76587 0.0
C281 C 0.31746 0.11799 0.75647 0.0
H282 H 0.37518 0.14502 0.73645 0.0
H283 H 0.40289 0.11805 0.72521 0.0
H284 H 0.21166 0.00292 0.78619 0.0
H285 H 0.23048 0.05794 0.78222 0.0
H286 H 0.27398 0.11041 0.76995 0.0
H287 H 0.32644 0.14199 0.75344 0.0
Mn288 Mn 0.32454 0.2963 0.02535 0.0
Mn289 Mn 0.30134 0.31413 0.08289 0.0
C290 C 0.27365 0.27631 0.03354 0.0
C291 C 0.339 0.30877 0.97998 0.0
C292 C 0.32484 0.26995 0.08105 0.0
O293 O 0.36235 0.33335 0.03891 0.0
O294 O 0.34401 0.34588 0.07538 0.0
C295 C 0.3019 0.36958 0.06457 0.0
N296 N 0.28651 0.34095 0.07467 0.0
C297 C 0.23994 0.34199 0.07536 0.0
C298 C 0.25534 0.37156 0.06515 0.0
C299 C 0.28646 0.3854 0.05974 0.0
C300 C 0.2566 0.32748 0.08013 0.0
H301 H 0.32576 0.3802 0.06011 0.0
C302 C 0.36534 0.35083 0.05869 0.0
O303 O 0.3463 0.29137 0.99335 0.0
O304 O 0.32407 0.31904 0.99301 0.0
N305 N 0.26029 0.28528 0.09169 0.0
C306 C 0.24838 0.25593 0.09956 0.0
C307 C 0.21725 0.23845 0.10474 0.0
C308 C 0.19869 0.25129 0.10175 0.0
C309 C 0.21147 0.28156 0.09369 0.0
C310 C 0.2427 0.29798 0.08911 0.0
H311 H 0.26248 0.24585 0.10163 0.0
O312 O 0.28284 0.26319 0.01655 0.0
O313 O 0.29473 0.30052 0.04522 0.0
O314 O 0.32865 0.27031 0.05526 0.0
O315 O 0.31548 0.28595 0.09304 0.0
C316 C 0.19433 0.29585 0.0894 0.0
C317 C 0.20856 0.32605 0.08027 0.0
H318 H 0.24344 0.38372 0.06109 0.0
H319 H 0.29846 0.40815 0.05168 0.0
H320 H 0.20753 0.21507 0.11084 0.0
H321 H 0.17463 0.23763 0.10546 0.0
H322 H 0.17012 0.28369 0.09269 0.0
H323 H 0.19507 0.33666 0.07668 0.0
Mn324 Mn 0.01645 0.31656 0.36171 0.0
Mn325 Mn 0.97877 0.29632 0.42119 0.0
C326 C 0.98859 0.26621 0.37337 0.0
C327 C 0.01467 0.32675 0.31549 0.0
C328 C 0.04692 0.32372 0.41681 0.0
O329 O 0.01514 0.35403 0.37302 0.0
O330 O 0.98641 0.33727 0.41091 0.0
C331 C 0.92084 0.29115 0.40402 0.0
N332 N 0.93631 0.27834 0.41486 0.0
C333 C 0.89049 0.23065 0.42051 0.0
C334 C 0.87405 0.24338 0.40957 0.0
C335 C 0.8893 0.27376 0.40127 0.0
C336 C 0.92185 0.24919 0.42307 0.0
H337 H 0.93251 0.31443 0.39742 0.0
C338 C 0.00099 0.35752 0.3928 0.0
O339 O 0.04047 0.33698 0.32795 0.0
O340 O 0.99062 0.31146 0.32998 0.0
N341 N 0.9698 0.25693 0.43281 0.0
C342 C 0.98923 0.24745 0.44079 0.0
C343 C 0.97772 0.2172 0.44854 0.0
C344 C 0.9464 0.19705 0.44801 0.0
C345 C 0.92685 0.20735 0.43976 0.0
C346 C 0.9396 0.23781 0.4325 0.0
H347 H 0.01334 0.26278 0.44104 0.0
O348 O 0.01007 0.27512 0.3555 0.0
O349 O 0.98458 0.28725 0.38392 0.0
O350 O 0.049 0.32526 0.39081 0.0
O351 O 0.02198 0.31392 0.42962 0.0
C352 C 0.89528 0.18843 0.43784 0.0
C353 C 0.87711 0.20007 0.42825 0.0
H354 H 0.84976 0.22995 0.40713 0.0
H355 H 0.87679 0.2837 0.39265 0.0
H356 H 0.99297 0.20938 0.45477 0.0
H357 H 0.93764 0.17366 0.45374 0.0
H358 H 0.88479 0.16476 0.44327 0.0
H359 H 0.85293 0.18516 0.42643 0.0
Mn360 Mn 0.69532 0.02073 0.69502 0.0
Mn361 Mn 0.67929 0.98325 0.75442 0.0
C362 C 0.71806 0.99292 0.70589 0.0
C363 C 0.68215 0.01837 0.64903 0.0
C364 C 0.72057 0.0513 0.74983 0.0
O365 O 0.65695 0.01959 0.70713 0.0
O366 O 0.64606 0.99163 0.74541 0.0
C367 C 0.62546 0.92593 0.73768 0.0
N368 N 0.65412 0.94093 0.74779 0.0
C369 C 0.65583 0.89482 0.75089 0.0
C370 C 0.62625 0.87885 0.74069 0.0
C371 C 0.61102 0.89449 0.73406 0.0
C372 C 0.66892 0.92608 0.75442 0.0
H373 H 0.61377 0.93789 0.73228 0.0
C374 C 0.63995 0.006 0.72741 0.0
O375 O 0.69808 0.04435 0.66113 0.0
O376 O 0.67377 0.99458 0.66374 0.0
N377 N 0.7096 0.97356 0.76473 0.0
C378 C 0.73873 0.99256 0.77245 0.0
C379 C 0.75749 0.98063 0.77878 0.0
C380 C 0.74613 0.94933 0.77707 0.0
C381 C 0.71606 0.93022 0.7691 0.0
C382 C 0.69832 0.94336 0.76334 0.0
H383 H 0.74767 0.01666 0.77354 0.0
O384 O 0.73024 0.01444 0.68805 0.0
O385 O 0.69322 0.98893 0.71692 0.0
O386 O 0.71986 0.05332 0.72387 0.0
O387 O 0.70583 0.02639 0.7628 0.0
C388 C 0.7032 0.89874 0.76607 0.0
C389 C 0.6731 0.88104 0.757 0.0
H390 H 0.61516 0.85465 0.73757 0.0
H391 H 0.58826 0.88236 0.72601 0.0
H392 H 0.78071 0.99554 0.7848 0.0
H393 H 0.76077 0.94026 0.78168 0.0
H394 H 0.71639 0.88795 0.77032 0.0
H395 H 0.6636 0.85692 0.7544 0.0
Mn396 Mn 0.6736 0.69688 0.02755 0.0
Mn397 Mn 0.69812 0.68174 0.08568 0.0
C398 C 0.72467 0.72011 0.03654 0.0
C399 C 0.66091 0.68391 0.9818 0.0
C400 C 0.67015 0.72208 0.08302 0.0
O401 O 0.63724 0.65815 0.04052 0.0
O402 O 0.65642 0.64799 0.07783 0.0
C403 C 0.70196 0.62842 0.06789 0.0
N404 N 0.71563 0.65713 0.07787 0.0
C405 C 0.76403 0.65985 0.07877 0.0
C406 C 0.75042 0.63025 0.06867 0.0
C407 C 0.71925 0.61447 0.06322 0.0
C408 C 0.74557 0.67244 0.08339 0.0
H409 H 0.67807 0.61632 0.06338 0.0
C410 C 0.63511 0.64135 0.06059 0.0
O411 O 0.65109 0.69946 0.9949 0.0
O412 O 0.67712 0.67563 0.99545 0.0
N413 N 0.73835 0.71261 0.09473 0.0
C414 C 0.74836 0.74171 0.10247 0.0
C415 C 0.77926 0.76095 0.10769 0.0
C416 C 0.79953 0.75012 0.10484 0.0
C417 C 0.78871 0.72009 0.09687 0.0
C418 C 0.75762 0.70184 0.09226 0.0
H419 H 0.73293 0.75025 0.10441 0.0
O420 O 0.71437 0.73213 0.01945 0.0
O421 O 0.70446 0.6953 0.04806 0.0
O422 O 0.66634 0.72114 0.0572 0.0
O423 O 0.6812 0.70774 0.09532 0.0
C424 C 0.80764 0.70775 0.09271 0.0
C425 C 0.79531 0.67765 0.0837 0.0
H426 H 0.76374 0.61953 0.06473 0.0
H427 H 0.70862 0.59168 0.05526 0.0
H428 H 0.78746 0.78415 0.11371 0.0
H429 H 0.8234 0.76514 0.10858 0.0
H430 H 0.83178 0.72135 0.09603 0.0
H431 H 0.81015 0.66855 0.08021 0.0
C432 C 0.33025 0.09865 0.25194 0.0
C433 C 0.32916 0.07251 0.24153 0.0
C434 C 0.334 0.12192 0.23436 0.0
C435 C 0.32236 0.13392 0.16209 0.0
H436 H 0.36839 0.21889 0.1808 0.0
C437 C 0.3353 0.22696 0.08713 0.0
C438 C 0.33062 0.24958 0.09842 0.0
C439 C 0.33869 0.20675 0.10402 0.0
C440 C 0.35534 0.19522 0.17533 0.0
H441 H 0.33307 0.05122 0.20468 0.0
H442 H 0.34015 0.09171 0.17445 0.0
H443 H 0.36769 0.18132 0.21198 0.0
H444 H 0.32687 0.26915 0.13649 0.0
H445 H 0.33256 0.23405 0.16557 0.0
H446 H 0.30968 0.1477 0.12565 0.0
C447 C 0.33721 0.094 0.19598 0.0
C448 C 0.35488 0.1737 0.19324 0.0
C449 C 0.3333 0.0708 0.21341 0.0
C450 C 0.33031 0.25199 0.12696 0.0
C451 C 0.33383 0.23197 0.14375 0.0
C452 C 0.32286 0.1554 0.14419 0.0
C453 C 0.3369 0.11954 0.20608 0.0
C454 C 0.33823 0.14275 0.18691 0.0
C455 C 0.3377 0.20887 0.13254 0.0
C456 C 0.33914 0.1863 0.15068 0.0
H457 H 0.32706 0.10065 0.27347 0.0
H458 H 0.33351 0.14124 0.24282 0.0
H459 H 0.30883 0.11026 0.15674 0.0
H460 H 0.33571 0.22445 0.06528 0.0
H461 H 0.34194 0.18934 0.09475 0.0
C462 C 0.22828 0.33882 0.58837 0.0
C463 C 0.25041 0.33345 0.57699 0.0
C464 C 0.2085 0.343 0.57152 0.0
C465 C 0.19721 0.35938 0.49979 0.0
H466 H 0.11235 0.3154 0.51912 0.0
C467 C 0.09959 0.33213 0.42347 0.0
C468 C 0.07411 0.33249 0.43375 0.0
C469 C 0.12321 0.33661 0.44096 0.0
C470 C 0.13601 0.32821 0.51356 0.0
H471 H 0.26961 0.32935 0.5388 0.0
H472 H 0.23521 0.33617 0.50989 0.0
H473 H 0.14954 0.31602 0.55039 0.0
H474 H 0.0545 0.34001 0.47006 0.0
H475 H 0.09555 0.34819 0.50011 0.0
H476 H 0.18344 0.37097 0.46262 0.0
C477 C 0.2332 0.33751 0.53172 0.0
C478 C 0.15736 0.32862 0.53157 0.0
C479 C 0.25283 0.3333 0.54844 0.0
C480 C 0.07354 0.33904 0.46149 0.0
C481 C 0.09704 0.34361 0.47882 0.0
C482 C 0.1758 0.35891 0.48171 0.0
C483 C 0.21054 0.34203 0.54298 0.0
C484 C 0.18821 0.34395 0.52483 0.0
C485 C 0.12177 0.34164 0.46899 0.0
C486 C 0.14492 0.34314 0.48832 0.0
H487 H 0.22581 0.33916 0.61023 0.0
H488 H 0.19146 0.34676 0.58086 0.0
H489 H 0.22085 0.37175 0.4941 0.0
H490 H 0.10069 0.32709 0.40223 0.0
H491 H 0.14195 0.33487 0.43276 0.0
C492 C 0.76294 0.10533 0.75437 0.0
C493 C 0.74024 0.07857 0.76634 0.0
C494 C 0.78313 0.12964 0.77069 0.0
C495 C 0.79547 0.16008 0.84152 0.0
H496 H 0.88019 0.19665 0.82249 0.0
C497 C 0.89382 0.23044 0.91719 0.0
C498 C 0.91992 0.25532 0.90648 0.0
C499 C 0.87004 0.21112 0.89992 0.0
C500 C 0.8566 0.18702 0.82795 0.0
H501 H 0.72019 0.05706 0.80492 0.0
H502 H 0.75526 0.09891 0.833 0.0
H503 H 0.84208 0.16001 0.79187 0.0
H504 H 0.94056 0.28041 0.86941 0.0
H505 H 0.89929 0.24725 0.83974 0.0
H506 H 0.81021 0.18675 0.87794 0.0
C507 C 0.75749 0.10139 0.8111 0.0
C508 C 0.83472 0.16605 0.81031 0.0
C509 C 0.73747 0.0772 0.79489 0.0
C510 C 0.92106 0.2612 0.87839 0.0
C511 C 0.89741 0.24208 0.86127 0.0
C512 C 0.81741 0.18107 0.85922 0.0
C513 C 0.7809 0.12773 0.79929 0.0
C514 C 0.80389 0.15208 0.81696 0.0
C515 C 0.87191 0.21641 0.87165 0.0
C516 C 0.84826 0.19465 0.85272 0.0
H517 H 0.76569 0.1072 0.73248 0.0
H518 H 0.80073 0.14978 0.76094 0.0
H519 H 0.77189 0.15001 0.84713 0.0
H520 H 0.89223 0.22526 0.9387 0.0
H521 H 0.85073 0.19145 0.90856 0.0
C522 C 0.66273 0.73924 0.12862 0.0
C523 C 0.66257 0.7414 0.10006 0.0
C524 C 0.65801 0.7587 0.14514 0.0
C525 C 0.666 0.83407 0.14464 0.0
H526 H 0.62217 0.80798 0.21289 0.0
C527 C 0.65428 0.91813 0.21355 0.0
C528 C 0.65926 0.91701 0.24157 0.0
C529 C 0.65031 0.89478 0.19627 0.0
C530 C 0.63467 0.81565 0.194 0.0
H531 H 0.65629 0.76533 0.06656 0.0
H532 H 0.64791 0.79942 0.09555 0.0
H533 H 0.62246 0.77064 0.182 0.0
H534 H 0.66268 0.88972 0.27357 0.0
H535 H 0.65616 0.84887 0.2432 0.0
H536 H 0.67881 0.87906 0.15676 0.0
C537 C 0.65201 0.78269 0.10506 0.0
C538 C 0.63478 0.79426 0.17626 0.0
C539 C 0.65663 0.76304 0.08844 0.0
C540 C 0.65882 0.89123 0.25211 0.0
C541 C 0.65503 0.86782 0.23468 0.0
C542 C 0.66593 0.85542 0.16236 0.0
C543 C 0.65303 0.78097 0.13362 0.0
C544 C 0.65069 0.80326 0.15147 0.0
C545 C 0.65143 0.86969 0.20644 0.0
C546 C 0.65044 0.84654 0.18735 0.0
H547 H 0.6671 0.72281 0.1384 0.0
H548 H 0.65933 0.75695 0.167 0.0
H549 H 0.67896 0.84187 0.126 0.0
H550 H 0.65398 0.93742 0.20476 0.0
H551 H 0.64681 0.89664 0.17478 0.0
C552 C 0.91525 0.65709 0.46159 0.0
C553 C 0.91409 0.659 0.43307 0.0
C554 C 0.89104 0.65285 0.47779 0.0
C555 C 0.82659 0.66583 0.47726 0.0
H556 H 0.80593 0.6203 0.54471 0.0
C557 C 0.73183 0.65704 0.54574 0.0
C558 C 0.73811 0.66223 0.57374 0.0
C559 C 0.75071 0.65224 0.52855 0.0
C560 C 0.81159 0.63325 0.52603 0.0
H561 H 0.88577 0.65664 0.39923 0.0
H562 H 0.8431 0.6489 0.42765 0.0
H563 H 0.84246 0.61867 0.51367 0.0
H564 H 0.76853 0.665 0.60579 0.0
H565 H 0.8019 0.65677 0.57551 0.0
H566 H 0.7961 0.68072 0.4897 0.0
C567 C 0.86313 0.65114 0.43741 0.0
C568 C 0.83247 0.63229 0.5082 0.0
C569 C 0.88748 0.65536 0.4211 0.0
C570 C 0.76306 0.66106 0.58435 0.0
C571 C 0.78212 0.6563 0.567 0.0
C572 C 0.80569 0.6667 0.49501 0.0
C573 C 0.86485 0.65032 0.466 0.0
C574 C 0.8405 0.64886 0.48373 0.0
C575 C 0.7765 0.65257 0.53878 0.0
C576 C 0.7981 0.65063 0.51972 0.0
H577 H 0.93525 0.65961 0.47165 0.0
H578 H 0.8934 0.65274 0.49968 0.0
H579 H 0.83263 0.67934 0.45891 0.0
H580 H 0.71254 0.65726 0.53686 0.0
H581 H 0.74531 0.64871 0.50706 0.0
C582 C 0.26044 0.923 0.79728 0.0
C583 C 0.25465 0.92158 0.76916 0.0
C584 C 0.24144 0.89936 0.81446 0.0
C585 C 0.18084 0.81919 0.81673 0.0
H586 H 0.15887 0.84412 0.88343 0.0
C587 C 0.07631 0.7394 0.88031 0.0
C588 C 0.07733 0.7423 0.90885 0.0
C589 C 0.10067 0.7594 0.86427 0.0
C590 C 0.16516 0.83669 0.86519 0.0
H591 H 0.22495 0.89344 0.73692 0.0
H592 H 0.19133 0.85199 0.76715 0.0
H593 H 0.19573 0.88211 0.8529 0.0
H594 H 0.10551 0.76801 0.94287 0.0
H595 H 0.14838 0.803 0.9147 0.0
H596 H 0.14978 0.77372 0.8289 0.0
C597 C 0.21085 0.87148 0.77579 0.0
C598 C 0.18627 0.8585 0.8476 0.0
C599 C 0.23005 0.89523 0.75846 0.0
C600 C 0.1039 0.76515 0.92099 0.0
C601 C 0.12838 0.78531 0.90482 0.0
C602 C 0.15971 0.79732 0.83438 0.0
C603 C 0.21598 0.87363 0.80409 0.0
C604 C 0.19421 0.85006 0.82304 0.0
C605 C 0.12683 0.78292 0.87623 0.0
C606 C 0.15136 0.80584 0.85869 0.0
H607 H 0.27946 0.94271 0.80623 0.0
H608 H 0.2465 0.90147 0.83602 0.0
H609 H 0.18676 0.81191 0.79818 0.0
H610 H 0.05633 0.72202 0.87015 0.0
H611 H 0.09846 0.75705 0.84236 0.0
C612 C 0.3965 0.99661 0.25542 0.0
C613 C 0.38725 0.00273 0.28038 0.0
C614 C 0.42384 0.99665 0.25347 0.0
C615 C 0.49592 0.02112 0.29124 0.0
H616 H 0.50152 0.96296 0.24446 0.0
C617 C 0.58683 0.9869 0.30267 0.0
C618 C 0.6043 0.99063 0.27935 0.0
C619 C 0.56091 0.98938 0.30099 0.0
C620 C 0.50024 0.97945 0.25741 0.0
H621 H 0.399 0.01299 0.32298 0.0
H622 H 0.44575 0.01181 0.31992 0.0
H623 H 0.45495 0.96538 0.24515 0.0
H624 H 0.60793 -0.00085 0.2359 0.0
H625 H 0.56175 0.00251 0.2329 0.0
H626 H 0.54075 0.034 0.3044 0.0
C627 C 0.43269 0.00813 0.30153 0.0
C628 C 0.47368 0.98101 0.25774 0.0
C629 C 0.40571 0.00862 0.30336 0.0
C630 C 0.59493 0.99625 0.2542 0.0
C631 C 0.56856 -0.00192 0.25244 0.0
C632 C 0.52216 0.01912 0.29127 0.0
C633 C 0.44225 0.0023 0.27655 0.0
C634 C 0.47105 0.00167 0.2749 0.0
C635 C 0.5516 0.99502 0.2759 0.0
C636 C 0.52443 -0.00188 0.27454 0.0
H637 H 0.3828 0.99213 0.23732 0.0
H638 H 0.43062 0.9925 0.23381 0.0
H639 H 0.49514 0.03788 0.30416 0.0
H640 H 0.59357 0.98275 0.32237 0.0
H641 H 0.54803 0.98679 0.31931 0.0
C642 C 0.59515 0.59818 0.58894 0.0
C643 C 0.61082 0.60851 0.61365 0.0
C644 C 0.56729 0.57138 0.588 0.0
C645 C 0.51797 0.50225 0.62871 0.0
H646 H 0.45543 0.49623 0.58 0.0
C647 C 0.39243 0.41138 0.63878 0.0
C648 C 0.37951 0.39371 0.61538 0.0
C649 C 0.42067 0.43758 0.63746 0.0
C650 C 0.47282 0.49764 0.59356 0.0
H651 H 0.6094 0.59924 0.65685 0.0
H652 H 0.56046 0.55339 0.65549 0.0
H653 H 0.505 0.54205 0.58001 0.0
H654 H 0.38557 0.39008 0.57213 0.0
H655 H 0.43476 0.43661 0.56975 0.0
H656 H 0.48512 0.45825 0.64298 0.0
C657 C 0.57 0.56519 0.63658 0.0
C658 C 0.50128 0.52375 0.59349 0.0
C659 C 0.59805 0.59164 0.63741 0.0
C660 C 0.39502 0.40323 0.59048 0.0
C661 C 0.42304 0.42982 0.58908 0.0
C662 C 0.48938 0.47645 0.62913 0.0
C663 C 0.55424 0.55461 0.61185 0.0
C664 C 0.52421 0.52646 0.61117 0.0
C665 C 0.43624 0.4469 0.61264 0.0
C666 C 0.46658 0.474 0.61164 0.0
H667 H 0.60455 0.61066 0.57026 0.0
H668 H 0.55613 0.56373 0.56851 0.0
H669 H 0.53518 0.50309 0.64213 0.0
H670 H 0.38113 0.40452 0.65829 0.0
H671 H 0.43043 0.45056 0.65585 0.0
C672 C 0.00962 0.60056 0.97068 0.0
C673 C 0.00544 0.61339 0.94699 0.0
C674 C 0.00844 0.57271 0.96966 0.0
C675 C 0.98191 0.50446 0.92613 0.0
H676 H 0.03143 0.48838 0.9755 0.0
C677 C 0.99657 0.39867 0.92182 0.0
C678 C 0.99097 0.38298 0.94658 0.0
C679 C -0.00206 0.42666 0.92083 0.0
C680 C 0.01743 0.4926 0.96168 0.0
H681 H -0.0026 0.60744 0.90352 0.0
H682 H 0.99662 0.5594 0.90148 0.0
H683 H 0.03618 0.53824 0.97506 0.0
H684 H 0.98245 0.38428 0.98968 0.0
H685 H 0.98558 0.43354 0.98796 0.0
H686 H 0.96398 0.45881 0.91228 0.0
C687 C -0.00014 0.57035 0.92104 0.0
C688 C 0.01997 0.52109 0.9615 0.0
C689 C 0.00052 0.598 0.92215 0.0
C690 C 0.98662 0.39574 0.97028 0.0
C691 C 0.98859 0.42396 0.96936 0.0
C692 C 0.97981 0.47612 0.92598 0.0
C693 C 0.00358 0.55721 0.94484 0.0
C694 C 0.00196 0.5273 0.94398 0.0
C695 C 0.99437 0.43967 0.94467 0.0
C696 C -0.00271 0.4699 0.944 0.0
H697 H 0.01306 0.61167 0.9902 0.0
H698 H 0.01071 0.56309 0.98853 0.0
H699 H 0.96731 0.50816 0.91267 0.0
H700 H -6e-05 0.38935 0.90322 0.0
H701 H 0.00251 0.43849 0.90158 0.0
C702 C 0.99083 0.59146 0.41947 0.0
C703 C 0.98584 0.60194 0.39469 0.0
C704 C 0.9914 0.56442 0.42051 0.0
C705 C 0.97089 0.49497 0.37998 0.0
H706 H 0.02707 0.48857 0.42883 0.0
C707 C 0.00432 0.40306 0.37061 0.0
C708 C 0.00034 0.38604 0.39429 0.0
C709 C 0.00213 0.42918 0.37164 0.0
C710 C 0.01117 0.49007 0.41524 0.0
H711 H 0.97803 0.59261 0.35148 0.0
H712 H 0.98023 0.5463 0.35303 0.0
H713 H 0.02387 0.53466 0.42862 0.0
H714 H 0.99171 0.38343 0.43771 0.0
H715 H 0.98873 0.42977 0.43955 0.0
H716 H 0.95925 0.45077 0.3659 0.0
C717 C 0.98262 0.55821 0.37191 0.0
C718 C 0.00915 0.51635 0.41519 0.0
C719 C 0.98152 0.58492 0.37097 0.0
C720 C 0.99479 0.39605 0.41913 0.0
C721 C 0.99319 0.42254 0.42023 0.0
C722 C 0.97335 0.46898 0.3797 0.0
C723 C 0.98752 0.54754 0.39669 0.0
C724 C 0.98905 0.5192 0.39746 0.0
C725 C 0.99649 0.43908 0.39643 0.0
C726 C 0.99356 0.46638 0.39726 0.0
H727 H 0.99406 0.60403 0.43812 0.0
H728 H 0.99469 0.55669 0.44003 0.0
H729 H 0.95464 0.49596 0.36651 0.0
H730 H 0.00845 0.39584 0.35115 0.0
H731 H 0.00492 0.44173 0.35307 0.0
C732 C 0.59809 0.0107 0.70629 0.0
C733 C 0.61113 0.00603 0.72959 0.0
C734 C 0.57058 0.01014 0.70792 0.0
C735 C 0.50319 0.98505 0.75224 0.0
H736 H 0.4887 0.03641 0.70382 0.0
C737 C 0.39778 0.00094 0.75568 0.0
C738 C 0.3825 0.99521 0.73066 0.0
C739 C 0.42585 0.00247 0.7572 0.0
C740 C 0.49251 0.02196 0.71743 0.0
H741 H 0.60573 0.99746 0.773 0.0
H742 H 0.55818 0.9977 0.77613 0.0
H743 H 0.53804 0.03994 0.70404 0.0
H744 H 0.3847 0.98682 0.68765 0.0
H745 H 0.43404 0.99028 0.69031 0.0
H746 H 0.45759 0.96778 0.766 0.0
C747 C 0.56879 0.00095 0.7564 0.0
C748 C 0.52067 0.02377 0.71746 0.0
C749 C 0.59614 0.00099 0.75466 0.0
C750 C 0.39582 0.99108 0.70725 0.0
C751 C 0.42409 0.99322 0.7087 0.0
C752 C 0.47516 0.98366 0.75254 0.0
C753 C 0.55561 0.00546 0.73301 0.0
C754 C 0.52624 0.00494 0.73449 0.0
C755 C 0.43933 -0.00103 0.73365 0.0
C756 C 0.46948 0.00175 0.7348 0.0
H757 H 0.60885 0.0142 0.68658 0.0
H758 H 0.56085 0.01291 0.68933 0.0
H759 H 0.50644 0.96991 0.76537 0.0
H760 H 0.38801 0.00414 0.77405 0.0
H761 H 0.43732 0.007 0.77664 0.0
C762 C 0.41356 0.39172 0.03893 0.0
C763 C 0.39456 0.37917 0.06159 0.0
C764 C 0.44033 0.41938 0.04101 0.0
C765 C 0.47876 0.48802 0.08456 0.0
H766 H 0.54718 0.50439 0.03883 0.0
C767 C 0.59824 0.59679 0.08828 0.0
C768 C 0.60715 0.61176 0.06308 0.0
C769 C 0.57244 0.56815 0.09011 0.0
C770 C 0.5282 0.50002 0.05172 0.0
H771 H 0.3891 0.38539 0.10442 0.0
H772 H 0.43654 0.43312 0.10842 0.0
H773 H 0.50279 0.45397 0.0391 0.0
H774 H 0.59617 0.60842 0.02008 0.0
H775 H 0.55167 0.55809 0.02329 0.0
H776 H 0.50499 0.53421 0.09757 0.0
C777 C 0.43034 0.42208 0.08878 0.0
C778 C 0.50266 0.47124 0.05176 0.0
C779 C 0.40323 0.3946 0.08656 0.0
C780 C 0.58977 0.59758 0.03982 0.0
C781 C 0.56444 0.56875 0.04158 0.0
C782 C 0.50463 0.51668 0.0849 0.0
C783 C 0.44912 0.435 0.06594 0.0
C784 C 0.4773 0.46498 0.06774 0.0
C785 C 0.55566 0.55379 0.06669 0.0
C786 C 0.52927 0.523 0.06809 0.0
H787 H 0.40733 0.3806 0.01929 0.0
H788 H 0.45369 0.42883 0.02279 0.0
H789 H 0.45962 0.48429 0.09685 0.0
H790 H 0.61119 0.60721 0.10653 0.0
H791 H 0.56601 0.5569 0.10967 0.0
C792 C 0.05514 0.76019 0.36866 0.0
C793 C 0.0258 0.75461 0.37366 0.0
C794 C 0.07879 0.78954 0.36506 0.0
C795 C 0.09693 0.86013 0.33623 0.0
H796 H 0.1731 0.88785 0.37378 0.0
C797 C 0.21171 0.96906 0.30913 0.0
C798 C 0.23639 0.96416 0.3087 0.0
C799 C 0.18331 0.94609 0.31785 0.0
C800 C 0.15196 0.88044 0.36313 0.0
H801 H -0.00256 0.77478 0.37698 0.0
H802 H 0.03926 0.82689 0.3698 0.0
H803 H 0.12768 0.84347 0.39048 0.0
H804 H 0.25126 0.93213 0.3175 0.0
H805 H 0.20184 0.89188 0.33159 0.0
H806 H 0.12179 0.89626 0.30791 0.0
C807 C 0.0439 0.8084 0.36984 0.0
C808 C 0.12601 0.85527 0.37284 0.0
C809 C 0.02018 0.77883 0.37401 0.0
C810 C 0.23231 0.93605 0.31668 0.0
C811 C 0.20416 0.91325 0.32527 0.0
C812 C 0.12308 0.88539 0.32637 0.0
C813 C 0.07337 0.81386 0.36536 0.0
C814 C 0.09855 0.84427 0.35891 0.0
C815 C 0.17962 0.91832 0.3268 0.0
C816 C 0.15102 0.89495 0.33917 0.0
H817 H 0.05968 0.74171 0.36673 0.0
H818 H 0.10118 0.79312 0.36095 0.0
H819 H 0.07596 0.85182 0.32508 0.0
H820 H 0.21466 0.9909 0.30363 0.0
H821 H 0.1647 0.95053 0.31887 0.0
C822 C 0.23828 0.21725 0.64028 0.0
C823 C 0.26815 0.24146 0.64066 0.0
C824 C 0.23238 0.18771 0.64474 0.0
C825 C 0.26743 0.14088 0.64171 0.0
H826 H 0.22169 0.09904 0.70615 0.0
C827 C 0.29234 0.05926 0.69663 0.0
C828 C 0.26828 0.03094 0.70411 0.0
C829 C 0.28702 0.08219 0.68849 0.0
C830 C 0.23399 0.11016 0.68781 0.0
H831 H 0.31487 0.25446 0.64802 0.0
H832 H 0.30487 0.20304 0.65439 0.0
H833 H 0.22071 0.14391 0.68958 0.0
H834 H 0.21975 0.00396 0.70873 0.0
H835 H 0.21019 0.04458 0.69421 0.0
H836 H 0.28162 0.1081 0.64025 0.0
C837 C 0.28609 0.20662 0.65004 0.0
C838 C 0.23335 0.13567 0.67831 0.0
C839 C 0.29186 0.23595 0.64612 0.0
C840 C 0.23866 0.02594 0.70362 0.0
C841 C 0.23324 0.04905 0.69532 0.0
C842 C 0.26793 0.11545 0.65104 0.0
C843 C 0.25634 0.18228 0.64957 0.0
C844 C 0.25103 0.15181 0.65581 0.0
C845 C 0.25739 0.07706 0.68687 0.0
C846 C 0.25228 0.10063 0.67483 0.0
H847 H 0.21962 0.22126 0.63695 0.0
H848 H 0.20924 0.16921 0.64461 0.0
H849 H 0.28105 0.15289 0.62421 0.0
H850 H 0.31526 0.0633 0.69585 0.0
H851 H 0.30611 0.10373 0.68255 0.0
C852 C 0.21786 0.24188 0.02991 0.0
C853 C 0.24294 0.27122 0.03027 0.0
C854 C 0.18952 0.2371 0.02177 0.0
C855 C 0.15806 0.27309 0.97842 0.0
H856 H 0.08246 0.22416 0.01662 0.0
C857 C 0.05977 0.29463 0.9743 0.0
C858 C 0.03076 0.27061 0.9686 0.0
C859 C 0.08374 0.28944 0.97808 0.0
C860 C 0.10334 0.23731 0.00545 0.0
H861 H 0.25865 0.31835 0.02182 0.0
H862 H 0.20932 0.31034 0.00875 0.0
H863 H 0.12864 0.22552 0.03273 0.0
H864 H 0.00325 0.22207 0.96436 0.0
H865 H 0.04564 0.2127 0.9718 0.0
H866 H 0.1333 0.28619 0.95211 0.0
C867 C 0.21127 0.29097 0.01466 0.0
C868 C 0.12969 0.23819 0.0147 0.0
C869 C 0.23938 0.29565 0.02266 0.0
C870 C 0.02574 0.24098 0.96789 0.0
C871 C 0.04979 0.23565 0.97221 0.0
C872 C 0.13191 0.27235 0.96935 0.0
C873 C 0.18624 0.26159 0.01334 0.0
C874 C 0.15747 0.25697 1.00181 0.0
C875 C 0.07897 0.25995 0.97724 0.0
C876 C 0.10457 0.25526 0.98329 0.0
H877 H 0.2204 0.22268 0.03513 0.0
H878 H 0.17058 0.21423 0.02087 0.0
H879 H 0.17902 0.28713 0.96765 0.0
H880 H 0.06383 0.31746 0.97646 0.0
H881 H 0.10589 0.30846 0.98259 0.0
C882 C 0.93471 0.22876 0.36726 0.0
C883 C 0.96409 0.23467 0.37264 0.0
C884 C 0.91132 0.1993 0.36353 0.0
C885 C 0.89356 0.12883 0.33502 0.0
H886 H 0.81763 0.10083 0.37305 0.0
C887 C 0.77808 0.01996 0.30847 0.0
C888 C 0.75372 0.02537 0.30787 0.0
C889 C 0.80666 0.0427 0.31711 0.0
C890 C 0.83871 0.10828 0.3623 0.0
H891 H 0.99284 0.21498 0.3764 0.0
H892 H 0.95146 0.16265 0.369 0.0
H893 H 0.86309 0.14524 0.38964 0.0
H894 H 0.73963 0.0581 0.31624 0.0
H895 H 0.78933 0.09789 0.33029 0.0
H896 H 0.86854 0.09272 0.30668 0.0
C897 C 0.94658 0.18098 0.36885 0.0
C898 C 0.86469 0.13348 0.37194 0.0
C899 C 0.97006 0.21067 0.37314 0.0
C900 C 0.75831 0.05375 0.31558 0.0
C901 C 0.78662 0.07631 0.32412 0.0
C902 C 0.86737 0.10352 0.32524 0.0
C903 C 0.91705 0.17519 0.36409 0.0
C904 C 0.89204 0.14462 0.35782 0.0
C905 C 0.81082 0.07074 0.32583 0.0
C906 C 0.83953 0.09388 0.33822 0.0
H907 H 0.92991 0.24705 0.36522 0.0
H908 H 0.88887 0.19546 0.35921 0.0
H909 H 0.91445 0.13726 0.32372 0.0
H910 H 0.77473 -0.00208 0.30318 0.0
H911 H 0.82501 0.03791 0.31827 0.0
C912 C 0.7557 0.78403 0.63486 0.0
C913 C 0.7258 0.75989 0.63523 0.0
C914 C 0.76173 0.81359 0.63961 0.0
C915 C 0.72654 0.86052 0.63827 0.0
H916 H 0.77217 0.90062 0.70332 0.0
C917 C 0.70035 0.93933 0.69656 0.0
C918 C 0.72428 0.96796 0.7035 0.0
C919 C 0.706 0.9167 0.68807 0.0
C920 C 0.75987 0.88997 0.68484 0.0
H921 H 0.67914 0.74707 0.64282 0.0
H922 H 0.68934 0.79841 0.64964 0.0
H923 H 0.77369 0.85659 0.68511 0.0
H924 H 0.77287 0.99566 0.70711 0.0
H925 H 0.78297 0.95557 0.69207 0.0
H926 H 0.71164 0.89279 0.63844 0.0
C927 C 0.70807 0.79482 0.64506 0.0
C928 C 0.76085 0.86498 0.67438 0.0
C929 C 0.70219 0.76551 0.64087 0.0
C930 C 0.75407 0.97344 0.70243 0.0
C931 C 0.7598 0.95065 0.6938 0.0
C932 C 0.72561 0.88538 0.64861 0.0
C933 C 0.73785 0.81908 0.64471 0.0
C934 C 0.74321 0.84943 0.65165 0.0
C935 C 0.73579 0.92245 0.68563 0.0
C936 C 0.7412 0.89951 0.67264 0.0
H937 H 0.77429 0.77994 0.6314 0.0
H938 H 0.7849 0.83202 0.63961 0.0
H939 H 0.71294 0.84897 0.6206 0.0
H940 H 0.67728 0.9349 0.6962 0.0
H941 H 0.68704 0.89499 0.6823 0.0
C942 C 0.75997 0.70227 0.02501 0.0
C943 C 0.7557 0.72626 0.03271 0.0
C944 C 0.78809 0.70772 0.01622 0.0
C945 C 0.86896 0.76103 0.01464 0.0
H946 H 0.86421 0.71383 0.95098 0.0
C947 C 0.97165 0.75632 0.96776 0.0
C948 C 0.96582 0.7264 0.9682 0.0
C949 C 0.94803 0.76237 0.97177 0.0
C950 C 0.86593 0.72749 0.96849 0.0
H951 H 0.77707 0.7748 0.03705 0.0
H952 H 0.82703 0.78458 0.02151 0.0
H953 H 0.81887 0.71312 0.96745 0.0
H954 H 0.93169 0.67972 0.97511 0.0
H955 H 0.89039 0.68998 0.98065 0.0
H956 H 0.91603 0.77439 0.01609 0.0
C957 C 0.80857 0.76149 0.02287 0.0
C958 C 0.84002 0.72692 0.97805 0.0
C959 C 0.78017 0.75595 0.03176 0.0
C960 C 0.9364 0.70279 0.97314 0.0
C961 C 0.91286 0.7087 0.97659 0.0
C962 C 0.89506 0.76171 0.00493 0.0
C963 C 0.81243 0.7374 0.01425 0.0
C964 C 0.84102 0.74262 1.00187 0.0
C965 C 0.91847 0.73851 0.97618 0.0
C966 C 0.89339 0.74397 0.98242 0.0
H967 H 0.74118 0.67929 0.02462 0.0
H968 H 0.79055 0.68868 0.01015 0.0
H969 H 0.87028 0.77336 0.033 0.0
H970 H 0.99445 0.7749 0.96483 0.0
H971 H 0.95283 0.78555 0.97173 0.0
C972 C 0.32484 0.98805 0.40231 0.0
C973 C 0.3352 0.01659 0.39037 0.0
C974 C 0.32603 0.98501 0.43038 0.0
C975 C 0.32905 0.0239 0.49451 0.0
H976 H 0.34116 0.96122 0.52628 0.0
C977 C 0.33446 0.01161 0.61001 0.0
C978 C 0.31675 0.98253 0.62112 0.0
C979 C 0.33914 0.01572 0.58205 0.0
C980 C 0.33751 0.97864 0.51766 0.0
H981 H 0.35606 0.06452 0.39859 0.0
H982 H 0.35875 0.05934 0.44798 0.0
H983 H 0.34724 0.9703 0.47729 0.0
H984 H 0.29099 0.93481 0.61153 0.0
H985 H 0.29944 0.94202 0.56217 0.0
H986 H 0.31952 0.03234 0.53493 0.0
C987 C 0.34915 0.0392 0.43547 0.0
C988 C 0.341 0.98391 0.48959 0.0
C989 C 0.34786 0.04225 0.40718 0.0
C990 C 0.30474 0.95746 0.60359 0.0
C991 C 0.30961 0.96161 0.57538 0.0
C992 C 0.32582 0.0188 0.52256 0.0
C993 C 0.33779 0.01043 0.44745 0.0
C994 C 0.33655 0.00644 0.47759 0.0
C995 C 0.32637 0.99089 0.56433 0.0
C996 C 0.32985 0.99601 0.53445 0.0
H997 H 0.31494 0.96773 0.39001 0.0
H998 H 0.31663 0.96247 0.43874 0.0
H999 H 0.32482 0.04099 0.48603 0.0
H1000 H 0.34432 0.03149 0.62288 0.0
H1001 H 0.35262 0.03849 0.57425 0.0
C1002 C 0.34126 0.29285 0.93223 0.0
C1003 C 0.34501 0.31541 0.95071 0.0
C1004 C 0.34052 0.29746 0.90417 0.0
C1005 C 0.36138 0.35475 0.85086 0.0
H1006 H 0.28818 0.29544 0.8143 0.0
C1007 C 0.34269 0.34585 0.7341 0.0
C1008 C 0.31502 0.34188 0.72453 0.0
C1009 C 0.34807 0.34605 0.76197 0.0
C1010 C 0.30863 0.31225 0.82432 0.0
H1011 H 0.35275 0.36097 0.95458 0.0
H1012 H 0.35271 0.36945 0.90568 0.0
H1013 H 0.29667 0.28776 0.86197 0.0
H1014 H 0.27155 0.33581 0.73645 0.0
H1015 H 0.28067 0.33538 0.78555 0.0
H1016 H 0.37356 0.37896 0.81302 0.0
C1017 C 0.34991 0.34812 0.91275 0.0
C1018 C 0.31366 0.30767 0.85143 0.0
C1019 C 0.34994 0.34326 0.9407 0.0
C1020 C 0.29317 0.33923 0.74336 0.0
C1021 C 0.29829 0.33871 0.77134 0.0
C1022 C 0.35662 0.35904 0.82357 0.0
C1023 C 0.34424 0.32496 0.89425 0.0
C1024 C 0.34003 0.32892 0.86499 0.0
C1025 C 0.3256 0.3416 0.78084 0.0
C1026 C 0.33011 0.33791 0.8101 0.0
H1027 H 0.33704 0.27106 0.93948 0.0
H1028 H 0.33625 0.27931 0.89026 0.0
H1029 H 0.38184 0.37152 0.86089 0.0
H1030 H 0.35988 0.34787 0.71996 0.0
H1031 H 0.36924 0.34818 0.76872 0.0
C1032 C 0.03696 0.34333 0.2685 0.0
C1033 C 0.01179 0.33047 0.28593 0.0
C1034 C 0.03299 0.34398 0.24028 0.0
C1035 C 0.97582 0.30344 0.18716 0.0
H1036 H 0.02616 0.37277 0.1419 0.0
C1037 C 0.9535 0.30282 0.07162 0.0
C1038 C 0.97922 0.31524 0.05488 0.0
C1039 C 0.95654 0.30698 0.09992 0.0
C1040 C 0.01203 0.3531 0.15421 0.0
H1041 H 0.96285 0.30938 0.28746 0.0
H1042 H 0.95614 0.31062 0.23874 0.0
H1043 H 0.03462 0.37578 0.191 0.0
H1044 H 0.02822 0.34243 0.05469 0.0
H1045 H 0.03345 0.34909 0.10351 0.0
H1046 H 0.95366 0.28043 0.15053 0.0
C1047 C 0.97885 0.31976 0.24666 0.0
C1048 C 0.01694 0.35486 0.18234 0.0
C1049 C 0.98279 0.31922 0.27467 0.0
C1050 C 0.00786 0.33252 0.06693 0.0
C1051 C 0.0109 0.33658 0.09504 0.0
C1052 C 0.97105 0.30159 0.15906 0.0
C1053 C 0.00379 0.33164 0.22906 0.0
C1054 C -0.00109 0.33003 0.19913 0.0
C1055 C 0.98536 0.32361 0.112 0.0
C1056 C 0.98917 0.32633 0.14215 0.0
H1057 H 0.05956 0.35214 0.27656 0.0
H1058 H 0.05266 0.35322 0.22718 0.0
H1059 H 0.96179 0.28375 0.1995 0.0
H1060 H 0.93114 0.28945 0.06294 0.0
H1061 H 0.93633 0.29699 0.11234 0.0
C1062 C 0.64169 0.9508 0.40664 0.0
C1063 C 0.65489 0.97617 0.38949 0.0
C1064 C 0.64042 0.95441 0.43485 0.0
C1065 C 0.64981 0.01115 0.48799 0.0
H1066 H 0.6699 0.96251 0.53447 0.0
C1067 C 0.68703 0.03955 0.60162 0.0
C1068 C 0.67479 0.01488 0.61961 0.0
C1069 C 0.6818 0.03481 0.5735 0.0
C1070 C 0.66398 0.97611 0.52179 0.0
H1071 H 0.67613 0.0251 0.38844 0.0
H1072 H 0.67446 0.03132 0.43703 0.0
H1073 H 0.66432 0.95288 0.48571 0.0
H1074 H 0.64637 0.96607 0.62225 0.0
H1075 H 0.63745 0.95805 0.57375 0.0
H1076 H 0.65034 0.03488 0.52422 0.0
C1077 C 0.66463 0.0086 0.429 0.0
C1078 C 0.66059 0.97046 0.49382 0.0
C1079 C 0.66581 0.005 0.401 0.0
C1080 C 0.65644 0.98564 0.60902 0.0
C1081 C 0.6514 0.98094 0.58114 0.0
C1082 C 0.65346 0.01697 0.51599 0.0
C1083 C 0.65233 0.98346 0.44641 0.0
C1084 C 0.65362 0.988 0.47648 0.0
C1085 C 0.66443 0.00533 0.56297 0.0
C1086 C 0.66065 -0.00046 0.53318 0.0
H1087 H 0.63305 0.92831 0.39838 0.0
H1088 H 0.6304 0.93448 0.44762 0.0
H1089 H 0.64398 0.02485 0.47536 0.0
H1090 H 0.70125 0.06232 0.60915 0.0
H1091 H 0.69219 0.05407 0.55993 0.0
C1092 C 0.64347 0.69021 0.93547 0.0
C1093 C 0.6561 0.67721 0.9523 0.0
C1094 C 0.64243 0.68605 0.90717 0.0
C1095 C 0.65136 0.63968 0.8528 0.0
H1096 H 0.67387 0.71039 0.8083 0.0
C1097 C 0.689 0.65071 0.73918 0.0
C1098 C 0.67748 0.66423 0.72165 0.0
C1099 C 0.68384 0.64976 0.76734 0.0
C1100 C 0.66727 0.69033 0.82041 0.0
H1101 H 0.67641 0.64867 0.95272 0.0
H1102 H 0.67508 0.64197 0.90393 0.0
H1103 H 0.66776 0.71297 0.85716 0.0
H1104 H 0.65055 0.6863 0.71986 0.0
H1105 H 0.64171 0.68457 0.76843 0.0
H1106 H 0.65168 0.61737 0.8159 0.0
C1107 C 0.66558 0.65502 0.91229 0.0
C1108 C 0.66358 0.69176 0.84845 0.0
C1109 C 0.66655 0.65909 0.94039 0.0
C1110 C 0.66003 0.67592 0.73273 0.0
C1111 C 0.65505 0.6751 0.76066 0.0
C1112 C 0.65528 0.63833 0.82474 0.0
C1113 C 0.65398 0.66881 0.8952 0.0
C1114 C 0.65571 0.66651 0.86507 0.0
C1115 C 0.66726 0.66248 0.77837 0.0
C1116 C 0.66331 0.66367 0.80824 0.0
H1117 H 0.63521 0.70424 0.94405 0.0
H1118 H 0.63293 0.69667 0.89465 0.0
H1119 H 0.64488 0.61964 0.86488 0.0
H1120 H 0.70252 0.64153 0.73126 0.0
H1121 H 0.69361 0.63993 0.78055 0.0
C1122 C 0.00692 0.67023 0.27529 0.0
C1123 C 0.97786 0.65961 0.28618 0.0
C1124 C 0.01125 0.67011 0.24731 0.0
C1125 C 0.97381 0.63728 0.18218 0.0
H1126 H 0.03888 0.71169 0.15207 0.0
C1127 C 0.98542 0.66242 0.06725 0.0
C1128 C 0.01436 0.67937 0.05567 0.0
C1129 C 0.98182 0.65778 0.09527 0.0
C1130 C 0.02098 0.69053 0.16012 0.0
H1131 H 0.93034 0.63943 0.27618 0.0
H1132 H 0.93794 0.63909 0.22684 0.0
H1133 H 0.02995 0.70733 0.20094 0.0
H1134 H 0.06232 0.70395 0.06446 0.0
H1135 H 0.05611 0.69537 0.11368 0.0
H1136 H 0.96489 0.6204 0.14137 0.0
C1137 C 0.95735 0.64751 0.2402 0.0
C1138 C 0.01575 0.68809 0.18816 0.0
C1139 C 0.95298 0.64774 0.2684 0.0
C1140 C 0.03975 0.69087 0.07277 0.0
C1141 C 0.03613 0.68611 0.10098 0.0
C1142 C 0.97917 0.63964 0.15411 0.0
C1143 C 0.98665 0.6593 0.22937 0.0
C1144 C 0.99202 0.66151 0.19951 0.0
C1145 C 0.00705 0.6698 0.1126 0.0
C1146 C 0.00269 0.6664 0.14267 0.0
H1147 H 0.02661 0.67929 0.28836 0.0
H1148 H 0.03401 0.67879 0.23968 0.0
H1149 H 0.95562 0.61639 0.19036 0.0
H1150 H 0.9653 0.65323 0.05472 0.0
H1151 H 0.95909 0.64556 0.10339 0.0
loop_
_geom_bond_atom_site_label_1
_geom_bond_atom_site_label_2
_geom_bond_distance
_geom_bond_site_symmetry_2
_ccdc_geom_bond_type
Mn0 O5 2.095 . S
Mn0 O15 2.162 . S
Mn0 O16 2.279 1_545 S
Mn0 O24 2.385 1_545 S
Mn0 O25 2.209 1_545 S
Mn0 O26 2.094 . S
Mn1 O6 2.121 . S
Mn1 N8 2.257 . S
Mn1 N17 2.282 . S
Mn1 O25 2.215 . S
Mn1 O27 2.117 1_565 S
C2 O24 1.234 . S
C2 O25 1.283 . S
C3 O15 1.281 . S
C3 O16 1.204 1_545 S
C4 O26 1.240 . S
C4 O27 1.264 . S
O5 Mn0 2.095 . S
O5 C14 1.250 . S
O6 Mn1 2.121 . S
O6 C14 1.258 1_565 S
C7 N8 1.326 . S
C7 C11 1.460 . S
C7 H13 0.929 . S
N8 Mn1 2.257 . S
N8 C7 1.326 . S
N8 C12 1.362 . S
C9 C10 1.258 . S
C9 C12 1.431 . S
C9 C29 1.449 . S
C10 C9 1.258 . S
C10 C11 1.477 . S
C10 H30 0.931 . S
C11 C7 1.460 . S
C11 C10 1.477 . S
C11 H31 0.930 . S
C12 N8 1.362 . S
C12 C9 1.431 . S
C12 C22 1.476 . S
H13 C7 0.929 . S
C14 O5 1.250 . S
C14 O6 1.258 1_545 S
O15 Mn0 2.162 . S
O15 C3 1.281 . S
O16 Mn0 2.279 1_565 S
O16 C3 1.204 1_565 S
N17 Mn1 2.282 . S
N17 C18 1.328 . S
N17 C22 1.318 . S
C18 N17 1.328 . S
C18 C19 1.457 . S
C18 H23 0.929 . S
C19 C18 1.457 . S
C19 C20 1.291 . S
C19 H32 0.931 . S
C20 C19 1.291 . S
C20 C21 1.373 . S
C20 H33 0.929 . S
C21 C20 1.373 . S
C21 C22 1.396 . S
C21 C28 1.403 . S
C22 C12 1.476 . S
C22 N17 1.318 . S
C22 C21 1.396 . S
H23 C18 0.929 . S
O24 Mn0 2.385 1_565 S
O24 C2 1.234 . S
O25 Mn0 2.209 1_565 S
O25 Mn1 2.215 . S
O25 C2 1.283 . S
O26 Mn0 2.094 . S
O26 C4 1.240 . S
O27 Mn1 2.117 1_545 S
O27 C4 1.264 . S
C28 C21 1.403 . S
C28 C29 1.399 . S
C28 H34 0.929 . S
C29 C9 1.449 . S
C29 C28 1.399 . S
C29 H35 0.930 . S
H30 C10 0.931 . S
H31 C11 0.930 . S
H32 C19 0.931 . S
H33 C20 0.929 . S
H34 C28 0.929 . S
H35 C29 0.930 . S
Mn36 O41 2.095 . S
Mn36 O51 2.162 . S
Mn36 O52 2.297 . S
Mn36 O60 2.385 . S
Mn36 O61 2.209 . S
Mn36 O62 2.094 . S
Mn37 O42 2.121 . S
Mn37 N44 2.257 . S
Mn37 N53 2.282 . S
Mn37 O61 2.215 . S
Mn37 O63 2.117 . S
C38 O60 1.234 . S
C38 O61 1.283 . S
C39 O51 1.281 . S
C39 O52 1.236 . S
C40 O62 1.240 . S
C40 O63 1.264 . S
O41 Mn36 2.095 . S
O41 C50 1.250 . S
O42 Mn37 2.121 . S
O42 C50 1.258 . S
C43 N44 1.326 . S
C43 C47 1.460 . S
C43 H49 0.929 . S
N44 Mn37 2.257 . S
N44 C43 1.326 . S
N44 C48 1.362 . S
C45 C46 1.258 . S
C45 C48 1.431 . S
C45 C65 1.449 . S
C46 C45 1.258 . S
C46 C47 1.477 . S
C46 H66 0.931 . S
C47 C43 1.460 . S
C47 C46 1.477 . S
C47 H67 0.930 . S
C48 N44 1.362 . S
C48 C45 1.431 . S
C48 C58 1.476 . S
H49 C43 0.929 . S
C50 O41 1.250 . S
C50 O42 1.258 . S
O51 Mn36 2.162 . S
O51 C39 1.281 . S
O52 Mn36 2.297 . S
O52 C39 1.236 . S
N53 Mn37 2.282 . S
N53 C54 1.328 . S
N53 C58 1.318 . S
C54 N53 1.328 . S
C54 C55 1.457 . S
C54 H59 0.929 . S
C55 C54 1.457 . S
C55 C56 1.291 . S
C55 H68 0.931 . S
C56 C55 1.291 . S
C56 C57 1.373 . S
C56 H69 0.929 . S
C57 C56 1.373 . S
C57 C58 1.396 . S
C57 C64 1.403 . S
C58 C48 1.476 . S
C58 N53 1.318 . S
C58 C57 1.396 . S
H59 C54 0.929 . S
O60 Mn36 2.385 . S
O60 C38 1.234 . S
O61 Mn36 2.209 . S
O61 Mn37 2.215 . S
O61 C38 1.283 . S
O62 Mn36 2.094 . S
O62 C40 1.240 . S
O63 Mn37 2.117 . S
O63 C40 1.264 . S
C64 C57 1.403 . S
C64 C65 1.399 . S
C64 H70 0.929 . S
C65 C45 1.449 . S
C65 C64 1.399 . S
C65 H71 0.930 . S
H66 C46 0.931 . S
H67 C47 0.930 . S
H68 C55 0.931 . S
H69 C56 0.929 . S
H70 C64 0.929 . S
H71 C65 0.930 . S
Mn72 O77 2.095 . S
Mn72 O87 2.162 1_556 S
Mn72 O88 2.288 1_656 S
Mn72 O96 2.385 1_655 S
Mn72 O97 2.209 1_655 S
Mn72 O98 2.094 . S
Mn73 O78 2.121 . S
Mn73 N80 2.257 . S
Mn73 N89 2.282 . S
Mn73 O97 2.215 . S
Mn73 O99 2.117 1_455 S
C74 O96 1.234 . S
C74 O97 1.283 . S
C75 O87 1.281 . S
C75 O88 1.217 1_655 S
C76 O98 1.240 . S
C76 O99 1.264 . S
O77 Mn72 2.095 . S
O77 C86 1.250 . S
O78 Mn73 2.121 . S
O78 C86 1.258 1_455 S
C79 N80 1.326 . S
C79 C83 1.460 . S
C79 H85 0.929 . S
N80 Mn73 2.257 . S
N80 C79 1.326 . S
N80 C84 1.362 . S
C81 C82 1.258 . S
C81 C84 1.431 . S
C81 C101 1.449 . S
C82 C81 1.258 . S
C82 C83 1.477 . S
C82 H102 0.931 . S
C83 C79 1.460 . S
C83 C82 1.477 . S
C83 H103 0.930 . S
C84 N80 1.362 . S
C84 C81 1.431 . S
C84 C94 1.476 . S
H85 C79 0.929 . S
C86 O77 1.250 . S
C86 O78 1.258 1_655 S
O87 Mn72 2.162 1_554 S
O87 C75 1.281 . S
O88 Mn72 2.288 1_454 S
O88 C75 1.217 1_455 S
N89 Mn73 2.282 . S
N89 C90 1.328 . S
N89 C94 1.318 . S
C90 N89 1.328 . S
C90 C91 1.457 . S
C90 H95 0.929 . S
C91 C90 1.457 . S
C91 C92 1.291 . S
C91 H104 0.931 . S
C92 C91 1.291 . S
C92 C93 1.373 . S
C92 H105 0.929 . S
C93 C92 1.373 . S
C93 C94 1.396 . S
C93 C100 1.403 . S
C94 C84 1.476 . S
C94 N89 1.318 . S
C94 C93 1.396 . S
H95 C90 0.929 . S
O96 Mn72 2.385 1_455 S
O96 C74 1.234 . S
O97 Mn72 2.209 1_455 S
O97 Mn73 2.215 . S
O97 C74 1.283 . S
O98 Mn72 2.094 . S
O98 C76 1.240 . S
O99 Mn73 2.117 1_655 S
O99 C76 1.264 . S
C100 C93 1.403 . S
C100 C101 1.399 . S
C100 H106 0.929 . S
C101 C81 1.449 . S
C101 C100 1.399 . S
C101 H107 0.930 . S
H102 C82 0.931 . S
H103 C83 0.930 . S
H104 C91 0.931 . S
H105 C92 0.929 . S
H106 C100 0.929 . S
H107 C101 0.930 . S
Mn108 O113 2.095 . S
Mn108 O123 2.162 . S
Mn108 O124 2.279 1_565 S
Mn108 O132 2.385 1_565 S
Mn108 O133 2.209 1_565 S
Mn108 O134 2.094 . S
Mn109 O114 2.121 . S
Mn109 N116 2.257 . S
Mn109 N125 2.282 . S
Mn109 O133 2.215 . S
Mn109 O135 2.117 1_545 S
C110 O132 1.234 . S
C110 O133 1.283 . S
C111 O123 1.281 . S
C111 O124 1.204 1_565 S
C112 O134 1.240 . S
C112 O135 1.264 . S
O113 Mn108 2.095 . S
O113 C122 1.250 . S
O114 Mn109 2.121 . S
O114 C122 1.258 1_545 S
C115 N116 1.326 . S
C115 C119 1.460 . S
C115 H121 0.929 . S
N116 Mn109 2.257 . S
N116 C115 1.326 . S
N116 C120 1.362 . S
C117 C118 1.258 . S
C117 C120 1.431 . S
C117 C137 1.449 . S
C118 C117 1.258 . S
C118 C119 1.477 . S
C118 H138 0.931 . S
C119 C115 1.460 . S
C119 C118 1.477 . S
C119 H139 0.930 . S
C120 N116 1.362 . S
C120 C117 1.431 . S
C120 C130 1.476 . S
H121 C115 0.929 . S
C122 O113 1.250 . S
C122 O114 1.258 1_565 S
O123 Mn108 2.162 . S
O123 C111 1.281 . S
O124 Mn108 2.279 1_545 S
O124 C111 1.204 1_545 S
N125 Mn109 2.282 . S
N125 C126 1.328 . S
N125 C130 1.318 . S
C126 N125 1.328 . S
C126 C127 1.457 . S
C126 H131 0.929 . S
C127 C126 1.457 . S
C127 C128 1.291 . S
C127 H140 0.931 . S
C128 C127 1.291 . S
C128 C129 1.373 . S
C128 H141 0.929 . S
C129 C128 1.373 . S
C129 C130 1.396 . S
C129 C136 1.403 . S
C130 C120 1.476 . S
C130 N125 1.318 . S
C130 C129 1.396 . S
H131 C126 0.929 . S
O132 Mn108 2.385 1_545 S
O132 C110 1.234 . S
O133 Mn108 2.209 1_545 S
O133 Mn109 2.215 . S
O133 C110 1.283 . S
O134 Mn108 2.094 . S
O134 C112 1.240 . S
O135 Mn109 2.117 1_565 S
O135 C112 1.264 . S
C136 C129 1.403 . S
C136 C137 1.399 . S
C136 H142 0.929 . S
C137 C117 1.449 . S
C137 C136 1.399 . S
C137 H143 0.930 . S
H138 C118 0.931 . S
H139 C119 0.930 . S
H140 C127 0.931 . S
H141 C128 0.929 . S
H142 C136 0.929 . S
H143 C137 0.930 . S
Mn144 O149 2.095 . S
Mn144 O159 2.162 . S
Mn144 O160 2.297 . S
Mn144 O168 2.385 . S
Mn144 O169 2.209 . S
Mn144 O170 2.094 . S
Mn145 O150 2.121 . S
Mn145 N152 2.257 . S
Mn145 N161 2.282 . S
Mn145 O169 2.215 . S
Mn145 O171 2.117 . S
C146 O168 1.234 . S
C146 O169 1.283 . S
C147 O159 1.281 . S
C147 O160 1.236 . S
C148 O170 1.240 . S
C148 O171 1.264 . S
O149 Mn144 2.095 . S
O149 C158 1.250 . S
O150 Mn145 2.121 . S
O150 C158 1.258 . S
C151 N152 1.326 . S
C151 C155 1.460 . S
C151 H157 0.929 . S
N152 Mn145 2.257 . S
N152 C151 1.326 . S
N152 C156 1.362 . S
C153 C154 1.258 . S
C153 C156 1.431 . S
C153 C173 1.449 . S
C154 C153 1.258 . S
C154 C155 1.477 . S
C154 H174 0.931 . S
C155 C151 1.460 . S
C155 C154 1.477 . S
C155 H175 0.930 . S
C156 N152 1.362 . S
C156 C153 1.431 . S
C156 C166 1.476 . S
H157 C151 0.929 . S
C158 O149 1.250 . S
C158 O150 1.258 . S
O159 Mn144 2.162 . S
O159 C147 1.281 . S
O160 Mn144 2.297 . S
O160 C147 1.236 . S
N161 Mn145 2.282 . S
N161 C162 1.328 . S
N161 C166 1.318 . S
C162 N161 1.328 . S
C162 C163 1.457 . S
C162 H167 0.929 . S
C163 C162 1.457 . S
C163 C164 1.291 . S
C163 H176 0.931 . S
C164 C163 1.291 . S
C164 C165 1.373 . S
C164 H177 0.929 . S
C165 C164 1.373 . S
C165 C166 1.396 . S
C165 C172 1.403 . S
C166 C156 1.476 . S
C166 N161 1.318 . S
C166 C165 1.396 . S
H167 C162 0.929 . S
O168 Mn144 2.385 . S
O168 C146 1.234 . S
O169 Mn144 2.209 . S
O169 Mn145 2.215 . S
O169 C146 1.283 . S
O170 Mn144 2.094 . S
O170 C148 1.240 . S
O171 Mn145 2.117 . S
O171 C148 1.264 . S
C172 C165 1.403 . S
C172 C173 1.399 . S
C172 H178 0.929 . S
C173 C153 1.449 . S
C173 C172 1.399 . S
C173 H179 0.930 . S
H174 C154 0.931 . S
H175 C155 0.930 . S
H176 C163 0.931 . S
H177 C164 0.929 . S
H178 C172 0.929 . S
H179 C173 0.930 . S
Mn180 O185 2.095 . S
Mn180 O195 2.162 1_556 S
Mn180 O196 2.288 1_456 S
Mn180 O204 2.385 1_455 S
Mn180 O205 2.209 1_455 S
Mn180 O206 2.094 . S
Mn181 O186 2.121 . S
Mn181 N188 2.257 . S
Mn181 N197 2.282 . S
Mn181 O205 2.215 . S
Mn181 O207 2.117 1_655 S
C182 O204 1.234 . S
C182 O205 1.283 . S
C183 O195 1.281 . S
C183 O196 1.217 1_455 S
C184 O206 1.240 . S
C184 O207 1.264 . S
O185 Mn180 2.095 . S
O185 C194 1.250 . S
O186 Mn181 2.121 . S
O186 C194 1.258 1_655 S
C187 N188 1.326 . S
C187 C191 1.460 . S
C187 H193 0.929 . S
N188 Mn181 2.257 . S
N188 C187 1.326 . S
N188 C192 1.362 . S
C189 C190 1.258 . S
C189 C192 1.431 . S
C189 C209 1.449 . S
C190 C189 1.258 . S
C190 C191 1.477 . S
C190 H210 0.931 . S
C191 C187 1.460 . S
C191 C190 1.477 . S
C191 H211 0.930 . S
C192 N188 1.362 . S
C192 C189 1.431 . S
C192 C202 1.476 . S
H193 C187 0.929 . S
C194 O185 1.250 . S
C194 O186 1.258 1_455 S
O195 Mn180 2.162 1_554 S
O195 C183 1.281 . S
O196 Mn180 2.288 1_654 S
O196 C183 1.217 1_655 S
N197 Mn181 2.282 . S
N197 C198 1.328 . S
N197 C202 1.318 . S
C198 N197 1.328 . S
C198 C199 1.457 . S
C198 H203 0.929 . S
C199 C198 1.457 . S
C199 C200 1.291 . S
C199 H212 0.931 . S
C200 C199 1.291 . S
C200 C201 1.373 . S
C200 H213 0.929 . S
C201 C200 1.373 . S
C201 C202 1.396 . S
C201 C208 1.403 . S
C202 C192 1.476 . S
C202 N197 1.318 . S
C202 C201 1.396 . S
H203 C198 0.929 . S
O204 Mn180 2.385 1_655 S
O204 C182 1.234 . S
O205 Mn180 2.209 1_655 S
O205 Mn181 2.215 . S
O205 C182 1.283 . S
O206 Mn180 2.094 . S
O206 C184 1.240 . S
O207 Mn181 2.117 1_455 S
O207 C184 1.264 . S
C208 C201 1.403 . S
C208 C209 1.399 . S
C208 H214 0.929 . S
C209 C189 1.449 . S
C209 C208 1.399 . S
C209 H215 0.930 . S
H210 C190 0.931 . S
H211 C191 0.930 . S
H212 C199 0.931 . S
H213 C200 0.929 . S
H214 C208 0.929 . S
H215 C209 0.930 . S
Mn216 O221 2.095 . S
Mn216 O231 2.162 . S
Mn216 O232 2.279 1_655 S
Mn216 O240 2.385 1_655 S
Mn216 O241 2.209 1_655 S
Mn216 O242 2.094 . S
Mn217 O222 2.121 . S
Mn217 N224 2.257 . S
Mn217 N233 2.282 . S
Mn217 O241 2.215 . S
Mn217 O243 2.117 1_455 S
C218 O240 1.234 . S
C218 O241 1.283 . S
C219 O231 1.281 . S
C219 O232 1.204 1_655 S
C220 O242 1.240 . S
C220 O243 1.264 . S
O221 Mn216 2.095 . S
O221 C230 1.250 . S
O222 Mn217 2.121 . S
O222 C230 1.258 1_455 S
C223 N224 1.326 . S
C223 C227 1.460 . S
C223 H229 0.929 . S
N224 Mn217 2.257 . S
N224 C223 1.326 . S
N224 C228 1.362 . S
C225 C226 1.258 . S
C225 C228 1.431 . S
C225 C245 1.449 . S
C226 C225 1.258 . S
C226 C227 1.477 . S
C226 H246 0.931 . S
C227 C223 1.460 . S
C227 C226 1.477 . S
C227 H247 0.930 . S
C228 N224 1.362 . S
C228 C225 1.431 . S
C228 C238 1.476 . S
H229 C223 0.929 . S
C230 O221 1.250 . S
C230 O222 1.258 1_655 S
O231 Mn216 2.162 . S
O231 C219 1.281 . S
O232 Mn216 2.279 1_455 S
O232 C219 1.204 1_455 S
N233 Mn217 2.282 . S
N233 C234 1.328 . S
N233 C238 1.318 . S
C234 N233 1.328 . S
C234 C235 1.457 . S
C234 H239 0.929 . S
C235 C234 1.457 . S
C235 C236 1.291 . S
C235 H248 0.931 . S
C236 C235 1.291 . S
C236 C237 1.373 . S
C236 H249 0.929 . S
C237 C236 1.373 . S
C237 C238 1.396 . S
C237 C244 1.403 . S
C238 C228 1.476 . S
C238 N233 1.318 . S
C238 C237 1.396 . S
H239 C234 0.929 . S
O240 Mn216 2.385 1_455 S
O240 C218 1.234 . S
O241 Mn216 2.209 1_455 S
O241 Mn217 2.215 . S
O241 C218 1.283 . S
O242 Mn216 2.094 . S
O242 C220 1.240 . S
O243 Mn217 2.117 1_655 S
O243 C220 1.264 . S
C244 C237 1.403 . S
C244 C245 1.399 . S
C244 H250 0.929 . S
C245 C225 1.449 . S
C245 C244 1.399 . S
C245 H251 0.930 . S
H246 C226 0.931 . S
H247 C227 0.930 . S
H248 C235 0.931 . S
H249 C236 0.929 . S
H250 C244 0.929 . S
H251 C245 0.930 . S
Mn252 O257 2.095 . S
Mn252 O267 2.162 . S
Mn252 O268 2.288 1_565 S
Mn252 O276 2.385 1_565 S
Mn252 O277 2.209 1_565 S
Mn252 O278 2.094 . S
Mn253 O258 2.121 . S
Mn253 N260 2.257 . S
Mn253 N269 2.282 . S
Mn253 O277 2.215 . S
Mn253 O279 2.117 1_545 S
C254 O276 1.234 . S
C254 O277 1.283 . S
C255 O267 1.281 . S
C255 O268 1.217 1_565 S
C256 O278 1.240 . S
C256 O279 1.264 . S
O257 Mn252 2.095 . S
O257 C266 1.250 . S
O258 Mn253 2.121 . S
O258 C266 1.258 1_545 S
C259 N260 1.326 . S
C259 C263 1.460 . S
C259 H265 0.929 . S
N260 Mn253 2.257 . S
N260 C259 1.326 . S
N260 C264 1.362 . S
C261 C262 1.258 . S
C261 C264 1.431 . S
C261 C281 1.449 . S
C262 C261 1.258 . S
C262 C263 1.477 . S
C262 H282 0.931 . S
C263 C259 1.460 . S
C263 C262 1.477 . S
C263 H283 0.930 . S
C264 N260 1.362 . S
C264 C261 1.431 . S
C264 C274 1.476 . S
H265 C259 0.929 . S
C266 O257 1.250 . S
C266 O258 1.258 1_565 S
O267 Mn252 2.162 . S
O267 C255 1.281 . S
O268 Mn252 2.288 1_545 S
O268 C255 1.217 1_545 S
N269 Mn253 2.282 . S
N269 C270 1.328 . S
N269 C274 1.318 . S
C270 N269 1.328 . S
C270 C271 1.457 . S
C270 H275 0.929 . S
C271 C270 1.457 . S
C271 C272 1.291 . S
C271 H284 0.931 . S
C272 C271 1.291 . S
C272 C273 1.373 . S
C272 H285 0.929 . S
C273 C272 1.373 . S
C273 C274 1.396 . S
C273 C280 1.403 . S
C274 C264 1.476 . S
C274 N269 1.318 . S
C274 C273 1.396 . S
H275 C270 0.929 . S
O276 Mn252 2.385 1_545 S
O276 C254 1.234 . S
O277 Mn252 2.209 1_545 S
O277 Mn253 2.215 . S
O277 C254 1.283 . S
O278 Mn252 2.094 . S
O278 C256 1.240 . S
O279 Mn253 2.117 1_565 S
O279 C256 1.264 . S
C280 C273 1.403 . S
C280 C281 1.399 . S
C280 H286 0.929 . S
C281 C261 1.449 . S
C281 C280 1.399 . S
C281 H287 0.930 . S
H282 C262 0.931 . S
H283 C263 0.930 . S
H284 C271 0.931 . S
H285 C272 0.929 . S
H286 C280 0.929 . S
H287 C281 0.930 . S
Mn288 O293 2.095 . S
Mn288 O303 2.162 1_554 S
Mn288 O304 2.297 1_554 S
Mn288 O312 2.385 . S
Mn288 O313 2.209 . S
Mn288 O314 2.094 . S
Mn289 O294 2.121 . S
Mn289 N296 2.257 . S
Mn289 N305 2.282 . S
Mn289 O313 2.215 . S
Mn289 O315 2.117 . S
C290 O312 1.234 . S
C290 O313 1.283 . S
C291 O303 1.281 . S
C291 O304 1.236 . S
C292 O314 1.240 . S
C292 O315 1.264 . S
O293 Mn288 2.095 . S
O293 C302 1.250 . S
O294 Mn289 2.121 . S
O294 C302 1.258 . S
C295 N296 1.326 . S
C295 C299 1.460 . S
C295 H301 0.929 . S
N296 Mn289 2.257 . S
N296 C295 1.326 . S
N296 C300 1.362 . S
C297 C298 1.258 . S
C297 C300 1.431 . S
C297 C317 1.449 . S
C298 C297 1.258 . S
C298 C299 1.477 . S
C298 H318 0.931 . S
C299 C295 1.460 . S
C299 C298 1.477 . S
C299 H319 0.930 . S
C300 N296 1.362 . S
C300 C297 1.431 . S
C300 C310 1.476 . S
H301 C295 0.929 . S
C302 O293 1.250 . S
C302 O294 1.258 . S
O303 Mn288 2.162 1_556 S
O303 C291 1.281 . S
O304 Mn288 2.297 1_556 S
O304 C291 1.236 . S
N305 Mn289 2.282 . S
N305 C306 1.328 . S
N305 C310 1.318 . S
C306 N305 1.328 . S
C306 C307 1.457 . S
C306 H311 0.929 . S
C307 C306 1.457 . S
C307 C308 1.291 . S
C307 H320 0.931 . S
C308 C307 1.291 . S
C308 C309 1.373 . S
C308 H321 0.929 . S
C309 C308 1.373 . S
C309 C310 1.396 . S
C309 C316 1.403 . S
C310 C300 1.476 . S
C310 N305 1.318 . S
C310 C309 1.396 . S
H311 C306 0.929 . S
O312 Mn288 2.385 . S
O312 C290 1.234 . S
O313 Mn288 2.209 . S
O313 Mn289 2.215 . S
O313 C290 1.283 . S
O314 Mn288 2.094 . S
O314 C292 1.240 . S
O315 Mn289 2.117 . S
O315 C292 1.264 . S
C316 C309 1.403 . S
C316 C317 1.399 . S
C316 H322 0.929 . S
C317 C297 1.449 . S
C317 C316 1.399 . S
C317 H323 0.930 . S
H318 C298 0.931 . S
H319 C299 0.930 . S
H320 C307 0.931 . S
H321 C308 0.929 . S
H322 C316 0.929 . S
H323 C317 0.930 . S
Mn324 O329 2.095 . S
Mn324 O339 2.162 . S
Mn324 O340 2.279 1_455 S
Mn324 O348 2.385 1_455 S
Mn324 O349 2.209 1_455 S
Mn324 O350 2.094 . S
Mn325 O330 2.121 . S
Mn325 N332 2.257 . S
Mn325 N341 2.282 . S
Mn325 O349 2.215 . S
Mn325 O351 2.117 1_655 S
C326 O348 1.234 . S
C326 O349 1.283 . S
C327 O339 1.281 . S
C327 O340 1.204 1_455 S
C328 O350 1.240 . S
C328 O351 1.264 . S
O329 Mn324 2.095 . S
O329 C338 1.250 . S
O330 Mn325 2.121 . S
O330 C338 1.258 1_655 S
C331 N332 1.326 . S
C331 C335 1.460 . S
C331 H337 0.929 . S
N332 Mn325 2.257 . S
N332 C331 1.326 . S
N332 C336 1.362 . S
C333 C334 1.258 . S
C333 C336 1.431 . S
C333 C353 1.449 . S
C334 C333 1.258 . S
C334 C335 1.477 . S
C334 H354 0.931 . S
C335 C331 1.460 . S
C335 C334 1.477 . S
C335 H355 0.930 . S
C336 N332 1.362 . S
C336 C333 1.431 . S
C336 C346 1.476 . S
H337 C331 0.929 . S
C338 O329 1.250 . S
C338 O330 1.258 1_455 S
O339 Mn324 2.162 . S
O339 C327 1.281 . S
O340 Mn324 2.279 1_655 S
O340 C327 1.204 1_655 S
N341 Mn325 2.282 . S
N341 C342 1.328 . S
N341 C346 1.318 . S
C342 N341 1.328 . S
C342 C343 1.457 . S
C342 H347 0.929 . S
C343 C342 1.457 . S
C343 C344 1.291 . S
C343 H356 0.931 . S
C344 C343 1.291 . S
C344 C345 1.373 . S
C344 H357 0.929 . S
C345 C344 1.373 . S
C345 C346 1.396 . S
C345 C352 1.403 . S
C346 C336 1.476 . S
C346 N341 1.318 . S
C346 C345 1.396 . S
H347 C342 0.929 . S
O348 Mn324 2.385 1_655 S
O348 C326 1.234 . S
O349 Mn324 2.209 1_655 S
O349 Mn325 2.215 . S
O349 C326 1.283 . S
O350 Mn324 2.094 . S
O350 C328 1.240 . S
O351 Mn325 2.117 1_455 S
O351 C328 1.264 . S
C352 C345 1.403 . S
C352 C353 1.399 . S
C352 H358 0.929 . S
C353 C333 1.449 . S
C353 C352 1.399 . S
C353 H359 0.930 . S
H354 C334 0.931 . S
H355 C335 0.930 . S
H356 C343 0.931 . S
H357 C344 0.929 . S
H358 C352 0.929 . S
H359 C353 0.930 . S
Mn360 O365 2.095 . S
Mn360 O375 2.162 . S
Mn360 O376 2.288 1_545 S
Mn360 O384 2.385 1_545 S
Mn360 O385 2.209 1_545 S
Mn360 O386 2.094 . S
Mn361 O366 2.121 . S
Mn361 N368 2.257 . S
Mn361 N377 2.282 . S
Mn361 O385 2.215 . S
Mn361 O387 2.117 1_565 S
C362 O384 1.234 . S
C362 O385 1.283 . S
C363 O375 1.281 . S
C363 O376 1.217 1_545 S
C364 O386 1.240 . S
C364 O387 1.264 . S
O365 Mn360 2.095 . S
O365 C374 1.250 . S
O366 Mn361 2.121 . S
O366 C374 1.258 1_565 S
C367 N368 1.326 . S
C367 C371 1.460 . S
C367 H373 0.929 . S
N368 Mn361 2.257 . S
N368 C367 1.326 . S
N368 C372 1.362 . S
C369 C370 1.258 . S
C369 C372 1.431 . S
C369 C389 1.449 . S
C370 C369 1.258 . S
C370 C371 1.477 . S
C370 H390 0.931 . S
C371 C367 1.460 . S
C371 C370 1.477 . S
C371 H391 0.930 . S
C372 N368 1.362 . S
C372 C369 1.431 . S
C372 C382 1.476 . S
H373 C367 0.929 . S
C374 O365 1.250 . S
C374 O366 1.258 1_545 S
O375 Mn360 2.162 . S
O375 C363 1.281 . S
O376 Mn360 2.288 1_565 S
O376 C363 1.217 1_565 S
N377 Mn361 2.282 . S
N377 C378 1.328 . S
N377 C382 1.318 . S
C378 N377 1.328 . S
C378 C379 1.457 . S
C378 H383 0.929 . S
C379 C378 1.457 . S
C379 C380 1.291 . S
C379 H392 0.931 . S
C380 C379 1.291 . S
C380 C381 1.373 . S
C380 H393 0.929 . S
C381 C380 1.373 . S
C381 C382 1.396 . S
C381 C388 1.403 . S
C382 C372 1.476 . S
C382 N377 1.318 . S
C382 C381 1.396 . S
H383 C378 0.929 . S
O384 Mn360 2.385 1_565 S
O384 C362 1.234 . S
O385 Mn360 2.209 1_565 S
O385 Mn361 2.215 . S
O385 C362 1.283 . S
O386 Mn360 2.094 . S
O386 C364 1.240 . S
O387 Mn361 2.117 1_545 S
O387 C364 1.264 . S
C388 C381 1.403 . S
C388 C389 1.399 . S
C388 H394 0.929 . S
C389 C369 1.449 . S
C389 C388 1.399 . S
C389 H395 0.930 . S
H390 C370 0.931 . S
H391 C371 0.930 . S
H392 C379 0.931 . S
H393 C380 0.929 . S
H394 C388 0.929 . S
H395 C389 0.930 . S
Mn396 O401 2.095 . S
Mn396 O411 2.162 1_554 S
Mn396 O412 2.297 1_554 S
Mn396 O420 2.385 . S
Mn396 O421 2.209 . S
Mn396 O422 2.094 . S
Mn397 O402 2.121 . S
Mn397 N404 2.257 . S
Mn397 N413 2.282 . S
Mn397 O421 2.215 . S
Mn397 O423 2.117 . S
C398 O420 1.234 . S
C398 O421 1.283 . S
C399 O411 1.281 . S
C399 O412 1.236 . S
C400 O422 1.240 . S
C400 O423 1.264 . S
O401 Mn396 2.095 . S
O401 C410 1.250 . S
O402 Mn397 2.121 . S
O402 C410 1.258 . S
C403 N404 1.326 . S
C403 C407 1.460 . S
C403 H409 0.929 . S
N404 Mn397 2.257 . S
N404 C403 1.326 . S
N404 C408 1.362 . S
C405 C406 1.258 . S
C405 C408 1.431 . S
C405 C425 1.449 . S
C406 C405 1.258 . S
C406 C407 1.477 . S
C406 H426 0.931 . S
C407 C403 1.460 . S
C407 C406 1.477 . S
C407 H427 0.930 . S
C408 N404 1.362 . S
C408 C405 1.431 . S
C408 C418 1.476 . S
H409 C403 0.929 . S
C410 O401 1.250 . S
C410 O402 1.258 . S
O411 Mn396 2.162 1_556 S
O411 C399 1.281 . S
O412 Mn396 2.297 1_556 S
O412 C399 1.236 . S
N413 Mn397 2.282 . S
N413 C414 1.328 . S
N413 C418 1.318 . S
C414 N413 1.328 . S
C414 C415 1.457 . S
C414 H419 0.929 . S
C415 C414 1.457 . S
C415 C416 1.291 . S
C415 H428 0.931 . S
C416 C415 1.291 . S
C416 C417 1.373 . S
C416 H429 0.929 . S
C417 C416 1.373 . S
C417 C418 1.396 . S
C417 C424 1.403 . S
C418 C408 1.476 . S
C418 N413 1.318 . S
C418 C417 1.396 . S
H419 C414 0.929 . S
O420 Mn396 2.385 . S
O420 C398 1.234 . S
O421 Mn396 2.209 . S
O421 Mn397 2.215 . S
O421 C398 1.283 . S
O422 Mn396 2.094 . S
O422 C400 1.240 . S
O423 Mn397 2.117 . S
O423 C400 1.264 . S
C424 C417 1.403 . S
C424 C425 1.399 . S
C424 H430 0.929 . S
C425 C405 1.449 . S
C425 C424 1.399 . S
C425 H431 0.930 . S
H426 C406 0.931 . S
H427 C407 0.930 . S
H428 C415 0.931 . S
H429 C416 0.929 . S
H430 C424 0.929 . S
H431 C425 0.930 . S
C432 C433 1.349 . S
C432 C434 1.327 . S
C432 H457 0.950 . S
C433 C432 1.349 . S
C433 C449 1.349 . S
C434 C432 1.327 . S
C434 C453 1.429 . S
C434 H458 0.950 . S
C435 C452 1.574 . S
C435 C454 1.368 . S
C435 H459 0.949 . S
H436 C440 0.949 . S
C437 C438 1.349 . S
C437 C439 1.327 . S
C437 H460 0.950 . S
C438 C437 1.349 . S
C438 C450 1.349 . S
C439 C437 1.327 . S
C439 C455 1.429 . S
C439 H461 0.950 . S
C440 H436 0.949 . S
C440 C448 1.574 . S
C440 C456 1.368 . S
H441 C449 0.950 . S
H442 C447 0.950 . S
H443 C448 0.949 . S
H444 C450 0.950 . S
H445 C451 0.950 . S
H446 C452 0.949 . S
C447 H442 0.950 . S
C447 C449 1.327 . S
C447 C453 1.429 . S
C448 C440 1.574 . S
C448 H443 0.949 . S
C448 C454 1.368 . S
C449 C433 1.349 . S
C449 H441 0.950 . S
C449 C447 1.327 . S
C450 C438 1.349 . S
C450 H444 0.950 . S
C450 C451 1.327 . S
C451 H445 0.950 . S
C451 C450 1.327 . S
C451 C455 1.429 . S
C452 C435 1.574 . S
C452 H446 0.949 . S
C452 C456 1.368 . S
C453 C434 1.429 . S
C453 C447 1.429 . S
C453 C454 1.523 . S
C454 C435 1.368 . S
C454 C448 1.368 . S
C454 C453 1.523 . S
C455 C439 1.429 . S
C455 C451 1.429 . S
C455 C456 1.523 . S
C456 C440 1.368 . S
C456 C452 1.368 . S
C456 C455 1.523 . S
H457 C432 0.950 . S
H458 C434 0.950 . S
H459 C435 0.949 . S
H460 C437 0.950 . S
H461 C439 0.950 . S
C462 C463 1.349 . S
C462 C464 1.327 . S
C462 H487 0.950 . S
C463 C462 1.349 . S
C463 C479 1.349 . S
C464 C462 1.327 . S
C464 C483 1.429 . S
C464 H488 0.950 . S
C465 C482 1.574 . S
C465 C484 1.368 . S
C465 H489 0.949 . S
H466 C470 0.949 . S
C467 C468 1.349 . S
C467 C469 1.327 . S
C467 H490 0.950 . S
C468 C467 1.349 . S
C468 C480 1.349 . S
C469 C467 1.327 . S
C469 C485 1.429 . S
C469 H491 0.950 . S
C470 H466 0.949 . S
C470 C478 1.574 . S
C470 C486 1.368 . S
H471 C479 0.950 . S
H472 C477 0.950 . S
H473 C478 0.949 . S
H474 C480 0.950 . S
H475 C481 0.950 . S
H476 C482 0.949 . S
C477 H472 0.950 . S
C477 C479 1.327 . S
C477 C483 1.429 . S
C478 C470 1.574 . S
C478 H473 0.949 . S
C478 C484 1.368 . S
C479 C463 1.349 . S
C479 H471 0.950 . S
C479 C477 1.327 . S
C480 C468 1.349 . S
C480 H474 0.950 . S
C480 C481 1.327 . S
C481 H475 0.950 . S
C481 C480 1.327 . S
C481 C485 1.429 . S
C482 C465 1.574 . S
C482 H476 0.949 . S
C482 C486 1.368 . S
C483 C464 1.429 . S
C483 C477 1.429 . S
C483 C484 1.523 . S
C484 C465 1.368 . S
C484 C478 1.368 . S
C484 C483 1.523 . S
C485 C469 1.429 . S
C485 C481 1.429 . S
C485 C486 1.523 . S
C486 C470 1.368 . S
C486 C482 1.368 . S
C486 C485 1.523 . S
H487 C462 0.950 . S
H488 C464 0.950 . S
H489 C465 0.949 . S
H490 C467 0.950 . S
H491 C469 0.950 . S
C492 C493 1.349 . S
C492 C494 1.327 . S
C492 H517 0.950 . S
C493 C492 1.349 . S
C493 C509 1.349 . S
C494 C492 1.327 . S
C494 C513 1.429 . S
C494 H518 0.950 . S
C495 C512 1.574 . S
C495 C514 1.368 . S
C495 H519 0.949 . S
H496 C500 0.949 . S
C497 C498 1.349 . S
C497 C499 1.327 . S
C497 H520 0.950 . S
C498 C497 1.349 . S
C498 C510 1.349 . S
C499 C497 1.327 . S
C499 C515 1.429 . S
C499 H521 0.950 . S
C500 H496 0.949 . S
C500 C508 1.574 . S
C500 C516 1.368 . S
H501 C509 0.950 . S
H502 C507 0.950 . S
H503 C508 0.949 . S
H504 C510 0.950 . S
H505 C511 0.950 . S
H506 C512 0.949 . S
C507 H502 0.950 . S
C507 C509 1.327 . S
C507 C513 1.429 . S
C508 C500 1.574 . S
C508 H503 0.949 . S
C508 C514 1.368 . S
C509 C493 1.349 . S
C509 H501 0.950 . S
C509 C507 1.327 . S
C510 C498 1.349 . S
C510 H504 0.950 . S
C510 C511 1.327 . S
C511 H505 0.950 . S
C511 C510 1.327 . S
C511 C515 1.429 . S
C512 C495 1.574 . S
C512 H506 0.949 . S
C512 C516 1.368 . S
C513 C494 1.429 . S
C513 C507 1.429 . S
C513 C514 1.523 . S
C514 C495 1.368 . S
C514 C508 1.368 . S
C514 C513 1.523 . S
C515 C499 1.429 . S
C515 C511 1.429 . S
C515 C516 1.523 . S
C516 C500 1.368 . S
C516 C512 1.368 . S
C516 C515 1.523 . S
H517 C492 0.950 . S
H518 C494 0.950 . S
H519 C495 0.949 . S
H520 C497 0.950 . S
H521 C499 0.950 . S
C522 C523 1.349 . S
C522 C524 1.327 . S
C522 H547 0.950 . S
C523 C522 1.349 . S
C523 C539 1.349 . S
C524 C522 1.327 . S
C524 C543 1.429 . S
C524 H548 0.950 . S
C525 C542 1.574 . S
C525 C544 1.368 . S
C525 H549 0.949 . S
H526 C530 0.949 . S
C527 C528 1.349 . S
C527 C529 1.327 . S
C527 H550 0.950 . S
C528 C527 1.349 . S
C528 C540 1.349 . S
C529 C527 1.327 . S
C529 C545 1.429 . S
C529 H551 0.950 . S
C530 H526 0.949 . S
C530 C538 1.574 . S
C530 C546 1.368 . S
H531 C539 0.950 . S
H532 C537 0.950 . S
H533 C538 0.949 . S
H534 C540 0.950 . S
H535 C541 0.950 . S
H536 C542 0.949 . S
C537 H532 0.950 . S
C537 C539 1.327 . S
C537 C543 1.429 . S
C538 C530 1.574 . S
C538 H533 0.949 . S
C538 C544 1.368 . S
C539 C523 1.349 . S
C539 H531 0.950 . S
C539 C537 1.327 . S
C540 C528 1.349 . S
C540 H534 0.950 . S
C540 C541 1.327 . S
C541 H535 0.950 . S
C541 C540 1.327 . S
C541 C545 1.429 . S
C542 C525 1.574 . S
C542 H536 0.949 . S
C542 C546 1.368 . S
C543 C524 1.429 . S
C543 C537 1.429 . S
C543 C544 1.523 . S
C544 C525 1.368 . S
C544 C538 1.368 . S
C544 C543 1.523 . S
C545 C529 1.429 . S
C545 C541 1.429 . S
C545 C546 1.523 . S
C546 C530 1.368 . S
C546 C542 1.368 . S
C546 C545 1.523 . S
H547 C522 0.950 . S
H548 C524 0.950 . S
H549 C525 0.949 . S
H550 C527 0.950 . S
H551 C529 0.950 . S
C552 C553 1.349 . S
C552 C554 1.327 . S
C552 H577 0.950 . S
C553 C552 1.349 . S
C553 C569 1.349 . S
C554 C552 1.327 . S
C554 C573 1.429 . S
C554 H578 0.950 . S
C555 C572 1.574 . S
C555 C574 1.368 . S
C555 H579 0.949 . S
H556 C560 0.949 . S
C557 C558 1.349 . S
C557 C559 1.327 . S
C557 H580 0.950 . S
C558 C557 1.349 . S
C558 C570 1.349 . S
C559 C557 1.327 . S
C559 C575 1.429 . S
C559 H581 0.950 . S
C560 H556 0.949 . S
C560 C568 1.574 . S
C560 C576 1.368 . S
H561 C569 0.950 . S
H562 C567 0.950 . S
H563 C568 0.949 . S
H564 C570 0.950 . S
H565 C571 0.950 . S
H566 C572 0.949 . S
C567 H562 0.950 . S
C567 C569 1.327 . S
C567 C573 1.429 . S
C568 C560 1.574 . S
C568 H563 0.949 . S
C568 C574 1.368 . S
C569 C553 1.349 . S
C569 H561 0.950 . S
C569 C567 1.327 . S
C570 C558 1.349 . S
C570 H564 0.950 . S
C570 C571 1.327 . S
C571 H565 0.950 . S
C571 C570 1.327 . S
C571 C575 1.429 . S
C572 C555 1.574 . S
C572 H566 0.949 . S
C572 C576 1.368 . S
C573 C554 1.429 . S
C573 C567 1.429 . S
C573 C574 1.523 . S
C574 C555 1.368 . S
C574 C568 1.368 . S
C574 C573 1.523 . S
C575 C559 1.429 . S
C575 C571 1.429 . S
C575 C576 1.523 . S
C576 C560 1.368 . S
C576 C572 1.368 . S
C576 C575 1.523 . S
H577 C552 0.950 . S
H578 C554 0.950 . S
H579 C555 0.949 . S
H580 C557 0.950 . S
H581 C559 0.950 . S
C582 C583 1.349 . S
C582 C584 1.327 . S
C582 H607 0.950 . S
C583 C582 1.349 . S
C583 C599 1.349 . S
C584 C582 1.327 . S
C584 C603 1.429 . S
C584 H608 0.950 . S
C585 C602 1.574 . S
C585 C604 1.368 . S
C585 H609 0.949 . S
H586 C590 0.949 . S
C587 C588 1.349 . S
C587 C589 1.327 . S
C587 H610 0.950 . S
C588 C587 1.349 . S
C588 C600 1.349 . S
C589 C587 1.327 . S
C589 C605 1.429 . S
C589 H611 0.950 . S
C590 H586 0.949 . S
C590 C598 1.574 . S
C590 C606 1.368 . S
H591 C599 0.950 . S
H592 C597 0.950 . S
H593 C598 0.949 . S
H594 C600 0.950 . S
H595 C601 0.950 . S
H596 C602 0.949 . S
C597 H592 0.950 . S
C597 C599 1.327 . S
C597 C603 1.429 . S
C598 C590 1.574 . S
C598 H593 0.949 . S
C598 C604 1.368 . S
C599 C583 1.349 . S
C599 H591 0.950 . S
C599 C597 1.327 . S
C600 C588 1.349 . S
C600 H594 0.950 . S
C600 C601 1.327 . S
C601 H595 0.950 . S
C601 C600 1.327 . S
C601 C605 1.429 . S
C602 C585 1.574 . S
C602 H596 0.949 . S
C602 C606 1.368 . S
C603 C584 1.429 . S
C603 C597 1.429 . S
C603 C604 1.523 . S
C604 C585 1.368 . S
C604 C598 1.368 . S
C604 C603 1.523 . S
C605 C589 1.429 . S
C605 C601 1.429 . S
C605 C606 1.523 . S
C606 C590 1.368 . S
C606 C602 1.368 . S
C606 C605 1.523 . S
H607 C582 0.950 . S
H608 C584 0.950 . S
H609 C585 0.949 . S
H610 C587 0.950 . S
H611 C589 0.950 . S
C612 C613 1.349 . S
C612 C614 1.327 . S
C612 H637 0.950 . S
C613 C612 1.349 . S
C613 C629 1.349 1_545 S
C614 C612 1.327 . S
C614 C633 1.429 . S
C614 H638 0.950 . S
C615 C632 1.574 . S
C615 C634 1.368 1_565 S
C615 H639 0.949 . S
H616 C620 0.949 . S
C617 C618 1.349 . S
C617 C619 1.327 . S
C617 H640 0.950 . S
C618 C617 1.349 . S
C618 C630 1.349 1_565 S
C619 C617 1.327 . S
C619 C635 1.429 . S
C619 H641 0.950 . S
C620 H616 0.949 . S
C620 C628 1.574 . S
C620 C636 1.368 1_545 S
H621 C629 0.950 . S
H622 C627 0.950 . S
H623 C628 0.949 . S
H624 C630 0.950 . S
H625 C631 0.950 . S
H626 C632 0.949 . S
C627 H622 0.950 . S
C627 C629 1.327 . S
C627 C633 1.429 1_565 S
C628 C620 1.574 . S
C628 H623 0.949 . S
C628 C634 1.368 . S
C629 C613 1.349 1_565 S
C629 H621 0.950 . S
C629 C627 1.327 . S
C630 C618 1.349 1_545 S
C630 H624 0.950 . S
C630 C631 1.327 . S
C631 H625 0.950 . S
C631 C630 1.327 . S
C631 C635 1.429 1_545 S
C632 C615 1.574 . S
C632 H626 0.949 . S
C632 C636 1.368 . S
C633 C614 1.429 . S
C633 C627 1.429 1_545 S
C633 C634 1.523 . S
C634 C615 1.368 1_545 S
C634 C628 1.368 . S
C634 C633 1.523 . S
C635 C619 1.429 . S
C635 C631 1.429 1_565 S
C635 C636 1.523 . S
C636 C620 1.368 1_565 S
C636 C632 1.368 . S
C636 C635 1.523 . S
H637 C612 0.950 . S
H638 C614 0.950 . S
H639 C615 0.949 . S
H640 C617 0.950 . S
H641 C619 0.950 . S
C642 C643 1.349 . S
C642 C644 1.327 . S
C642 H667 0.950 . S
C643 C642 1.349 . S
C643 C659 1.349 . S
C644 C642 1.327 . S
C644 C663 1.429 . S
C644 H668 0.950 . S
C645 C662 1.574 . S
C645 C664 1.368 . S
C645 H669 0.949 . S
H646 C650 0.949 . S
C647 C648 1.349 . S
C647 C649 1.327 . S
C647 H670 0.950 . S
C648 C647 1.349 . S
C648 C660 1.349 . S
C649 C647 1.327 . S
C649 C665 1.429 . S
C649 H671 0.950 . S
C650 H646 0.949 . S
C650 C658 1.574 . S
C650 C666 1.368 . S
H651 C659 0.950 . S
H652 C657 0.950 . S
H653 C658 0.949 . S
H654 C660 0.950 . S
H655 C661 0.950 . S
H656 C662 0.949 . S
C657 H652 0.950 . S
C657 C659 1.327 . S
C657 C663 1.429 . S
C658 C650 1.574 . S
C658 H653 0.949 . S
C658 C664 1.368 . S
C659 C643 1.349 . S
C659 H651 0.950 . S
C659 C657 1.327 . S
C660 C648 1.349 . S
C660 H654 0.950 . S
C660 C661 1.327 . S
C661 H655 0.950 . S
C661 C660 1.327 . S
C661 C665 1.429 . S
C662 C645 1.574 . S
C662 H656 0.949 . S
C662 C666 1.368 . S
C663 C644 1.429 . S
C663 C657 1.429 . S
C663 C664 1.523 . S
C664 C645 1.368 . S
C664 C658 1.368 . S
C664 C663 1.523 . S
C665 C649 1.429 . S
C665 C661 1.429 . S
C665 C666 1.523 . S
C666 C650 1.368 . S
C666 C662 1.368 . S
C666 C665 1.523 . S
H667 C642 0.950 . S
H668 C644 0.950 . S
H669 C645 0.949 . S
H670 C647 0.950 . S
H671 C649 0.950 . S
C672 C673 1.349 1_655 S
C672 C674 1.327 . S
C672 H697 0.944 1_556 S
C673 C672 1.349 1_455 S
C673 C689 1.349 . S
C674 C672 1.327 . S
C674 C693 1.429 1_655 S
C674 H698 0.950 1_556 S
C675 C692 1.574 . S
C675 C694 1.368 . S
C675 H699 0.949 . S
H676 C680 0.949 1_554 S
C677 C678 1.349 1_455 S
C677 C679 1.327 . S
C677 H700 0.950 . S
C678 C677 1.349 1_655 S
C678 C690 1.349 . S
C679 C677 1.327 . S
C679 C695 1.429 1_455 S
C679 H701 0.950 . S
C680 H676 0.949 1_556 S
C680 C688 1.574 . S
C680 C696 1.368 . S
H681 C689 0.950 . S
H682 C687 0.950 . S
H683 C688 0.949 1_554 S
H684 C690 0.944 1_554 S
H685 C691 0.950 1_554 S
H686 C692 0.949 . S
C687 H682 0.950 . S
C687 C689 1.327 . S
C687 C693 1.429 . S
C688 C680 1.574 . S
C688 H683 0.949 1_556 S
C688 C694 1.368 1_655 S
C689 C673 1.349 . S
C689 H681 0.950 . S
C689 C687 1.327 . S
C690 C678 1.349 . S
C690 H684 0.944 1_556 S
C690 C691 1.327 . S
C691 H685 0.950 1_556 S
C691 C690 1.327 . S
C691 C695 1.429 . S
C692 C675 1.574 . S
C692 H686 0.949 . S
C692 C696 1.368 1_455 S
C693 C674 1.429 1_455 S
C693 C687 1.429 . S
C693 C694 1.523 . S
C694 C675 1.368 . S
C694 C688 1.368 1_455 S
C694 C693 1.523 . S
C695 C679 1.429 1_655 S
C695 C691 1.429 . S
C695 C696 1.523 . S
C696 C680 1.368 . S
C696 C692 1.368 1_655 S
C696 C695 1.523 . S
H697 C672 0.944 1_554 S
H698 C674 0.950 1_554 S
H699 C675 0.949 . S
H700 C677 0.950 . S
H701 C679 0.950 . S
C702 C703 1.349 . S
C702 C704 1.327 . S
C702 H727 0.950 . S
C703 C702 1.349 . S
C703 C719 1.349 1_655 S
C704 C702 1.327 . S
C704 C723 1.429 . S
C704 H728 0.950 . S
C705 C722 1.574 . S
C705 C724 1.368 1_455 S
C705 H729 0.949 . S
H706 C710 0.949 . S
C707 C708 1.349 . S
C707 C709 1.327 . S
C707 H730 0.950 . S
C708 C707 1.349 . S
C708 C720 1.349 1_455 S
C709 C707 1.327 . S
C709 C725 1.429 . S
C709 H731 0.950 . S
C710 H706 0.949 . S
C710 C718 1.574 . S
C710 C726 1.368 1_655 S
H711 C719 0.950 . S
H712 C717 0.950 . S
H713 C718 0.949 . S
H714 C720 0.950 . S
H715 C721 0.950 . S
H716 C722 0.949 . S
C717 H712 0.950 . S
C717 C719 1.327 . S
C717 C723 1.429 1_455 S
C718 C710 1.574 . S
C718 H713 0.949 . S
C718 C724 1.368 . S
C719 C703 1.349 1_455 S
C719 H711 0.950 . S
C719 C717 1.327 . S
C720 C708 1.349 1_655 S
C720 H714 0.950 . S
C720 C721 1.327 . S
C721 H715 0.950 . S
C721 C720 1.327 . S
C721 C725 1.429 1_655 S
C722 C705 1.574 . S
C722 H716 0.949 . S
C722 C726 1.368 . S
C723 C704 1.429 . S
C723 C717 1.429 1_655 S
C723 C724 1.523 . S
C724 C705 1.368 1_655 S
C724 C718 1.368 . S
C724 C723 1.523 . S
C725 C709 1.429 . S
C725 C721 1.429 1_455 S
C725 C726 1.523 . S
C726 C710 1.368 1_455 S
C726 C722 1.368 . S
C726 C725 1.523 . S
H727 C702 0.950 . S
H728 C704 0.950 . S
H729 C705 0.949 . S
H730 C707 0.950 . S
H731 C709 0.950 . S
C732 C733 1.349 1_565 S
C732 C734 1.327 . S
C732 H757 0.950 . S
C733 C732 1.349 1_545 S
C733 C749 1.349 . S
C734 C732 1.327 . S
C734 C753 1.429 1_565 S
C734 H758 0.950 . S
C735 C752 1.574 . S
C735 C754 1.368 . S
C735 H759 0.949 . S
H736 C740 0.949 . S
C737 C738 1.349 1_545 S
C737 C739 1.327 . S
C737 H760 0.950 . S
C738 C737 1.349 1_565 S
C738 C750 1.349 . S
C739 C737 1.327 . S
C739 C755 1.429 1_545 S
C739 H761 0.950 . S
C740 H736 0.949 . S
C740 C748 1.574 . S
C740 C756 1.368 . S
H741 C749 0.950 . S
H742 C747 0.950 . S
H743 C748 0.949 . S
H744 C750 0.950 . S
H745 C751 0.950 . S
H746 C752 0.949 . S
C747 H742 0.950 . S
C747 C749 1.327 . S
C747 C753 1.429 . S
C748 C740 1.574 . S
C748 H743 0.949 . S
C748 C754 1.368 1_565 S
C749 C733 1.349 . S
C749 H741 0.950 . S
C749 C747 1.327 . S
C750 C738 1.349 . S
C750 H744 0.950 . S
C750 C751 1.327 . S
C751 H745 0.950 . S
C751 C750 1.327 . S
C751 C755 1.429 . S
C752 C735 1.574 . S
C752 H746 0.949 . S
C752 C756 1.368 1_545 S
C753 C734 1.429 1_545 S
C753 C747 1.429 . S
C753 C754 1.523 . S
C754 C735 1.368 . S
C754 C748 1.368 1_545 S
C754 C753 1.523 . S
C755 C739 1.429 1_565 S
C755 C751 1.429 . S
C755 C756 1.523 . S
C756 C740 1.368 . S
C756 C752 1.368 1_565 S
C756 C755 1.523 . S
H757 C732 0.950 . S
H758 C734 0.950 . S
H759 C735 0.949 . S
H760 C737 0.950 . S
H761 C739 0.950 . S
C762 C763 1.349 . S
C762 C764 1.327 . S
C762 H787 0.943 1_554 S
C763 C762 1.349 . S
C763 C779 1.349 . S
C764 C762 1.327 . S
C764 C783 1.429 . S
C764 H788 0.950 1_554 S
C765 C782 1.574 . S
C765 C784 1.368 . S
C765 H789 0.949 . S
H766 C770 0.949 1_556 S
C767 C768 1.349 . S
C767 C769 1.327 . S
C767 H790 0.950 . S
C768 C767 1.349 . S
C768 C780 1.349 . S
C769 C767 1.327 . S
C769 C785 1.429 . S
C769 H791 0.950 . S
C770 H766 0.949 1_554 S
C770 C778 1.574 . S
C770 C786 1.368 . S
H771 C779 0.950 . S
H772 C777 0.950 . S
H773 C778 0.949 1_556 S
H774 C780 0.943 1_556 S
H775 C781 0.950 1_556 S
H776 C782 0.949 . S
C777 H772 0.950 . S
C777 C779 1.327 . S
C777 C783 1.429 . S
C778 C770 1.574 . S
C778 H773 0.949 1_554 S
C778 C784 1.368 . S
C779 C763 1.349 . S
C779 H771 0.950 . S
C779 C777 1.327 . S
C780 C768 1.349 . S
C780 H774 0.943 1_554 S
C780 C781 1.327 . S
C781 H775 0.950 1_554 S
C781 C780 1.327 . S
C781 C785 1.429 . S
C782 C765 1.574 . S
C782 H776 0.949 . S
C782 C786 1.368 . S
C783 C764 1.429 . S
C783 C777 1.429 . S
C783 C784 1.523 . S
C784 C765 1.368 . S
C784 C778 1.368 . S
C784 C783 1.523 . S
C785 C769 1.429 . S
C785 C781 1.429 . S
C785 C786 1.523 . S
C786 C770 1.368 . S
C786 C782 1.368 . S
C786 C785 1.523 . S
H787 C762 0.943 1_556 S
H788 C764 0.950 1_556 S
H789 C765 0.949 . S
H790 C767 0.950 . S
H791 C769 0.950 . S
C792 C793 1.349 . S
C792 C794 1.327 . S
C792 H817 0.950 . S
C793 C792 1.349 . S
C793 C809 1.349 . S
C794 C792 1.327 . S
C794 C813 1.429 . S
C794 H818 0.950 . S
C795 C812 1.574 . S
C795 C814 1.368 . S
C795 H819 0.949 . S
H796 C800 0.949 . S
C797 C798 1.349 . S
C797 C799 1.327 . S
C797 H820 0.950 . S
C798 C797 1.349 . S
C798 C810 1.349 . S
C799 C797 1.327 . S
C799 C815 1.429 . S
C799 H821 0.950 . S
C800 H796 0.949 . S
C800 C808 1.574 . S
C800 C816 1.368 . S
H801 C809 0.950 . S
H802 C807 0.950 . S
H803 C808 0.949 . S
H804 C810 0.950 . S
H805 C811 0.950 . S
H806 C812 0.949 . S
C807 H802 0.950 . S
C807 C809 1.327 . S
C807 C813 1.429 . S
C808 C800 1.574 . S
C808 H803 0.949 . S
C808 C814 1.368 . S
C809 C793 1.349 . S
C809 H801 0.950 . S
C809 C807 1.327 . S
C810 C798 1.349 . S
C810 H804 0.950 . S
C810 C811 1.327 . S
C811 H805 0.950 . S
C811 C810 1.327 . S
C811 C815 1.429 . S
C812 C795 1.574 . S
C812 H806 0.949 . S
C812 C816 1.368 . S
C813 C794 1.429 . S
C813 C807 1.429 . S
C813 C814 1.523 . S
C814 C795 1.368 . S
C814 C808 1.368 . S
C814 C813 1.523 . S
C815 C799 1.429 . S
C815 C811 1.429 . S
C815 C816 1.523 . S
C816 C800 1.368 . S
C816 C812 1.368 . S
C816 C815 1.523 . S
H817 C792 0.950 . S
H818 C794 0.950 . S
H819 C795 0.949 . S
H820 C797 0.950 . S
H821 C799 0.950 . S
C822 C823 1.349 . S
C822 C824 1.327 . S
C822 H847 0.950 . S
C823 C822 1.349 . S
C823 C839 1.349 . S
C824 C822 1.327 . S
C824 C843 1.429 . S
C824 H848 0.950 . S
C825 C842 1.574 . S
C825 C844 1.368 . S
C825 H849 0.949 . S
H826 C830 0.949 . S
C827 C828 1.349 . S
C827 C829 1.327 . S
C827 H850 0.950 . S
C828 C827 1.349 . S
C828 C840 1.349 . S
C829 C827 1.327 . S
C829 C845 1.429 . S
C829 H851 0.950 . S
C830 H826 0.949 . S
C830 C838 1.574 . S
C830 C846 1.368 . S
H831 C839 0.950 . S
H832 C837 0.950 . S
H833 C838 0.949 . S
H834 C840 0.950 . S
H835 C841 0.950 . S
H836 C842 0.949 . S
C837 H832 0.950 . S
C837 C839 1.327 . S
C837 C843 1.429 . S
C838 C830 1.574 . S
C838 H833 0.949 . S
C838 C844 1.368 . S
C839 C823 1.349 . S
C839 H831 0.950 . S
C839 C837 1.327 . S
C840 C828 1.349 . S
C840 H834 0.950 . S
C840 C841 1.327 . S
C841 H835 0.950 . S
C841 C840 1.327 . S
C841 C845 1.429 . S
C842 C825 1.574 . S
C842 H836 0.949 . S
C842 C846 1.368 . S
C843 C824 1.429 . S
C843 C837 1.429 . S
C843 C844 1.523 . S
C844 C825 1.368 . S
C844 C838 1.368 . S
C844 C843 1.523 . S
C845 C829 1.429 . S
C845 C841 1.429 . S
C845 C846 1.523 . S
C846 C830 1.368 . S
C846 C842 1.368 . S
C846 C845 1.523 . S
H847 C822 0.950 . S
H848 C824 0.950 . S
H849 C825 0.949 . S
H850 C827 0.950 . S
H851 C829 0.950 . S
C852 C853 1.349 . S
C852 C854 1.327 . S
C852 H877 0.950 . S
C853 C852 1.349 . S
C853 C869 1.349 . S
C854 C852 1.327 . S
C854 C873 1.429 . S
C854 H878 0.950 . S
C855 C872 1.574 . S
C855 C874 1.368 1_556 S
C855 H879 0.949 . S
H856 C860 0.949 . S
C857 C858 1.349 . S
C857 C859 1.327 . S
C857 H880 0.950 . S
C858 C857 1.349 . S
C858 C870 1.349 . S
C859 C857 1.327 . S
C859 C875 1.429 . S
C859 H881 0.950 . S
C860 H856 0.949 . S
C860 C868 1.574 . S
C860 C876 1.368 1_554 S
H861 C869 0.950 . S
H862 C867 0.950 1_556 S
H863 C868 0.949 . S
H864 C870 0.950 . S
H865 C871 0.950 1_554 S
H866 C872 0.949 . S
C867 H862 0.950 1_554 S
C867 C869 1.327 . S
C867 C873 1.429 . S
C868 C860 1.574 . S
C868 H863 0.949 . S
C868 C874 1.368 . S
C869 C853 1.349 . S
C869 H861 0.950 . S
C869 C867 1.327 . S
C870 C858 1.349 . S
C870 H864 0.950 . S
C870 C871 1.327 . S
C871 H865 0.950 1_556 S
C871 C870 1.327 . S
C871 C875 1.429 . S
C872 C855 1.574 . S
C872 H866 0.949 . S
C872 C876 1.368 . S
C873 C854 1.429 . S
C873 C867 1.429 . S
C873 C874 1.523 . S
C874 C855 1.368 1_554 S
C874 C868 1.368 . S
C874 C873 1.523 . S
C875 C859 1.429 . S
C875 C871 1.429 . S
C875 C876 1.523 . S
C876 C860 1.368 1_556 S
C876 C872 1.368 . S
C876 C875 1.523 . S
H877 C852 0.950 . S
H878 C854 0.950 . S
H879 C855 0.949 . S
H880 C857 0.950 . S
H881 C859 0.950 . S
C882 C883 1.349 . S
C882 C884 1.327 . S
C882 H907 0.950 . S
C883 C882 1.349 . S
C883 C899 1.349 . S
C884 C882 1.327 . S
C884 C903 1.429 . S
C884 H908 0.950 . S
C885 C902 1.574 . S
C885 C904 1.368 . S
C885 H909 0.949 . S
H886 C890 0.949 . S
C887 C888 1.349 . S
C887 C889 1.327 . S
C887 H910 0.950 . S
C888 C887 1.349 . S
C888 C900 1.349 . S
C889 C887 1.327 . S
C889 C905 1.429 . S
C889 H911 0.950 . S
C890 H886 0.949 . S
C890 C898 1.574 . S
C890 C906 1.368 . S
H891 C899 0.950 . S
H892 C897 0.950 . S
H893 C898 0.949 . S
H894 C900 0.950 . S
H895 C901 0.950 . S
H896 C902 0.949 . S
C897 H892 0.950 . S
C897 C899 1.327 . S
C897 C903 1.429 . S
C898 C890 1.574 . S
C898 H893 0.949 . S
C898 C904 1.368 . S
C899 C883 1.349 . S
C899 H891 0.950 . S
C899 C897 1.327 . S
C900 C888 1.349 . S
C900 H894 0.950 . S
C900 C901 1.327 . S
C901 H895 0.950 . S
C901 C900 1.327 . S
C901 C905 1.429 . S
C902 C885 1.574 . S
C902 H896 0.949 . S
C902 C906 1.368 . S
C903 C884 1.429 . S
C903 C897 1.429 . S
C903 C904 1.523 . S
C904 C885 1.368 . S
C904 C898 1.368 . S
C904 C903 1.523 . S
C905 C889 1.429 . S
C905 C901 1.429 . S
C905 C906 1.523 . S
C906 C890 1.368 . S
C906 C902 1.368 . S
C906 C905 1.523 . S
H907 C882 0.950 . S
H908 C884 0.950 . S
H909 C885 0.949 . S
H910 C887 0.950 . S
H911 C889 0.950 . S
C912 C913 1.349 . S
C912 C914 1.327 . S
C912 H937 0.950 . S
C913 C912 1.349 . S
C913 C929 1.349 . S
C914 C912 1.327 . S
C914 C933 1.429 . S
C914 H938 0.950 . S
C915 C932 1.574 . S
C915 C934 1.368 . S
C915 H939 0.949 . S
H916 C920 0.949 . S
C917 C918 1.349 . S
C917 C919 1.327 . S
C917 H940 0.950 . S
C918 C917 1.349 . S
C918 C930 1.349 . S
C919 C917 1.327 . S
C919 C935 1.429 . S
C919 H941 0.950 . S
C920 H916 0.949 . S
C920 C928 1.574 . S
C920 C936 1.368 . S
H921 C929 0.950 . S
H922 C927 0.950 . S
H923 C928 0.949 . S
H924 C930 0.950 . S
H925 C931 0.950 . S
H926 C932 0.949 . S
C927 H922 0.950 . S
C927 C929 1.327 . S
C927 C933 1.429 . S
C928 C920 1.574 . S
C928 H923 0.949 . S
C928 C934 1.368 . S
C929 C913 1.349 . S
C929 H921 0.950 . S
C929 C927 1.327 . S
C930 C918 1.349 . S
C930 H924 0.950 . S
C930 C931 1.327 . S
C931 H925 0.950 . S
C931 C930 1.327 . S
C931 C935 1.429 . S
C932 C915 1.574 . S
C932 H926 0.949 . S
C932 C936 1.368 . S
C933 C914 1.429 . S
C933 C927 1.429 . S
C933 C934 1.523 . S
C934 C915 1.368 . S
C934 C928 1.368 . S
C934 C933 1.523 . S
C935 C919 1.429 . S
C935 C931 1.429 . S
C935 C936 1.523 . S
C936 C920 1.368 . S
C936 C932 1.368 . S
C936 C935 1.523 . S
H937 C912 0.950 . S
H938 C914 0.950 . S
H939 C915 0.949 . S
H940 C917 0.950 . S
H941 C919 0.950 . S
C942 C943 1.349 . S
C942 C944 1.327 . S
C942 H967 0.950 . S
C943 C942 1.349 . S
C943 C959 1.349 . S
C944 C942 1.327 . S
C944 C963 1.429 . S
C944 H968 0.950 1_554 S
C945 C962 1.574 . S
C945 C964 1.368 . S
C945 H969 0.949 . S
H946 C950 0.949 . S
C947 C948 1.349 . S
C947 C949 1.327 . S
C947 H970 0.950 . S
C948 C947 1.349 . S
C948 C960 1.349 . S
C949 C947 1.327 . S
C949 C965 1.429 . S
C949 H971 0.950 1_556 S
C950 H946 0.949 . S
C950 C958 1.574 . S
C950 C966 1.368 . S
H951 C959 0.950 . S
H952 C957 0.950 . S
H953 C958 0.949 . S
H954 C960 0.950 . S
H955 C961 0.950 . S
H956 C962 0.949 . S
C957 H952 0.950 . S
C957 C959 1.327 . S
C957 C963 1.429 . S
C958 C950 1.574 . S
C958 H953 0.949 . S
C958 C964 1.368 1_556 S
C959 C943 1.349 . S
C959 H951 0.950 . S
C959 C957 1.327 . S
C960 C948 1.349 . S
C960 H954 0.950 . S
C960 C961 1.327 . S
C961 H955 0.950 . S
C961 C960 1.327 . S
C961 C965 1.429 . S
C962 C945 1.574 . S
C962 H956 0.949 . S
C962 C966 1.368 1_554 S
C963 C944 1.429 . S
C963 C957 1.429 . S
C963 C964 1.523 . S
C964 C945 1.368 . S
C964 C958 1.368 1_554 S
C964 C963 1.523 . S
C965 C949 1.429 . S
C965 C961 1.429 . S
C965 C966 1.523 . S
C966 C950 1.368 . S
C966 C962 1.368 1_556 S
C966 C965 1.523 . S
H967 C942 0.950 . S
H968 C944 0.950 1_556 S
H969 C945 0.949 . S
H970 C947 0.950 . S
H971 C949 0.950 1_554 S
C972 C973 1.349 . S
C972 C974 1.327 1_545 S
C972 H997 0.950 1_545 S
C973 C972 1.349 . S
C973 C989 1.349 . S
C974 C972 1.327 1_565 S
C974 C993 1.429 1_565 S
C974 H998 0.950 . S
C975 C992 1.574 . S
C975 C994 1.368 . S
C975 H999 0.949 . S
H976 C980 0.949 . S
C977 C978 1.349 . S
C977 C979 1.327 1_565 S
C977 H1000 0.950 1_565 S
C978 C977 1.349 . S
C978 C990 1.349 . S
C979 C977 1.327 1_545 S
C979 C995 1.429 1_545 S
C979 H1001 0.950 . S
C980 H976 0.949 . S
C980 C988 1.574 . S
C980 C996 1.368 . S
H981 C989 0.950 . S
H982 C987 0.950 . S
H983 C988 0.949 . S
H984 C990 0.950 . S
H985 C991 0.950 . S
H986 C992 0.949 . S
C987 H982 0.950 . S
C987 C989 1.327 . S
C987 C993 1.429 . S
C988 C980 1.574 . S
C988 H983 0.949 . S
C988 C994 1.368 1_565 S
C989 C973 1.349 . S
C989 H981 0.950 . S
C989 C987 1.327 . S
C990 C978 1.349 . S
C990 H984 0.950 . S
C990 C991 1.327 . S
C991 H985 0.950 . S
C991 C990 1.327 . S
C991 C995 1.429 . S
C992 C975 1.574 . S
C992 H986 0.949 . S
C992 C996 1.368 1_545 S
C993 C974 1.429 1_545 S
C993 C987 1.429 . S
C993 C994 1.523 . S
C994 C975 1.368 . S
C994 C988 1.368 1_545 S
C994 C993 1.523 . S
C995 C979 1.429 1_565 S
C995 C991 1.429 . S
C995 C996 1.523 . S
C996 C980 1.368 . S
C996 C992 1.368 1_565 S
C996 C995 1.523 . S
H997 C972 0.950 1_565 S
H998 C974 0.950 . S
H999 C975 0.949 . S
H1000 C977 0.950 1_545 S
H1001 C979 0.950 . S
C1002 C1003 1.349 . S
C1002 C1004 1.327 . S
C1002 H1027 0.950 . S
C1003 C1002 1.349 . S
C1003 C1019 1.349 . S
C1004 C1002 1.327 . S
C1004 C1023 1.429 . S
C1004 H1028 0.950 . S
C1005 C1022 1.574 . S
C1005 C1024 1.368 . S
C1005 H1029 0.949 . S
H1006 C1010 0.949 . S
C1007 C1008 1.349 . S
C1007 C1009 1.327 . S
C1007 H1030 0.950 . S
C1008 C1007 1.349 . S
C1008 C1020 1.349 . S
C1009 C1007 1.327 . S
C1009 C1025 1.429 . S
C1009 H1031 0.950 . S
C1010 H1006 0.949 . S
C1010 C1018 1.574 . S
C1010 C1026 1.368 . S
H1011 C1019 0.950 . S
H1012 C1017 0.950 . S
H1013 C1018 0.949 . S
H1014 C1020 0.950 . S
H1015 C1021 0.950 . S
H1016 C1022 0.949 . S
C1017 H1012 0.950 . S
C1017 C1019 1.327 . S
C1017 C1023 1.429 . S
C1018 C1010 1.574 . S
C1018 H1013 0.949 . S
C1018 C1024 1.368 . S
C1019 C1003 1.349 . S
C1019 H1011 0.950 . S
C1019 C1017 1.327 . S
C1020 C1008 1.349 . S
C1020 H1014 0.950 . S
C1020 C1021 1.327 . S
C1021 H1015 0.950 . S
C1021 C1020 1.327 . S
C1021 C1025 1.429 . S
C1022 C1005 1.574 . S
C1022 H1016 0.949 . S
C1022 C1026 1.368 . S
C1023 C1004 1.429 . S
C1023 C1017 1.429 . S
C1023 C1024 1.523 . S
C1024 C1005 1.368 . S
C1024 C1018 1.368 . S
C1024 C1023 1.523 . S
C1025 C1009 1.429 . S
C1025 C1021 1.429 . S
C1025 C1026 1.523 . S
C1026 C1010 1.368 . S
C1026 C1022 1.368 . S
C1026 C1025 1.523 . S
H1027 C1002 0.950 . S
H1028 C1004 0.950 . S
H1029 C1005 0.949 . S
H1030 C1007 0.950 . S
H1031 C1009 0.950 . S
C1032 C1033 1.349 . S
C1032 C1034 1.327 . S
C1032 H1057 0.950 . S
C1033 C1032 1.349 . S
C1033 C1049 1.349 1_455 S
C1034 C1032 1.327 . S
C1034 C1053 1.429 . S
C1034 H1058 0.950 . S
C1035 C1052 1.574 . S
C1035 C1054 1.368 1_655 S
C1035 H1059 0.949 . S
H1036 C1040 0.949 . S
C1037 C1038 1.349 . S
C1037 C1039 1.327 . S
C1037 H1060 0.950 . S
C1038 C1037 1.349 . S
C1038 C1050 1.349 1_655 S
C1039 C1037 1.327 . S
C1039 C1055 1.429 . S
C1039 H1061 0.950 . S
C1040 H1036 0.949 . S
C1040 C1048 1.574 . S
C1040 C1056 1.368 1_455 S
H1041 C1049 0.950 . S
H1042 C1047 0.950 . S
H1043 C1048 0.949 . S
H1044 C1050 0.950 . S
H1045 C1051 0.950 . S
H1046 C1052 0.949 . S
C1047 H1042 0.950 . S
C1047 C1049 1.327 . S
C1047 C1053 1.429 1_655 S
C1048 C1040 1.574 . S
C1048 H1043 0.949 . S
C1048 C1054 1.368 . S
C1049 C1033 1.349 1_655 S
C1049 H1041 0.950 . S
C1049 C1047 1.327 . S
C1050 C1038 1.349 1_455 S
C1050 H1044 0.950 . S
C1050 C1051 1.327 . S
C1051 H1045 0.950 . S
C1051 C1050 1.327 . S
C1051 C1055 1.429 1_455 S
C1052 C1035 1.574 . S
C1052 H1046 0.949 . S
C1052 C1056 1.368 . S
C1053 C1034 1.429 . S
C1053 C1047 1.429 1_455 S
C1053 C1054 1.523 . S
C1054 C1035 1.368 1_455 S
C1054 C1048 1.368 . S
C1054 C1053 1.523 . S
C1055 C1039 1.429 . S
C1055 C1051 1.429 1_655 S
C1055 C1056 1.523 . S
C1056 C1040 1.368 1_655 S
C1056 C1052 1.368 . S
C1056 C1055 1.523 . S
H1057 C1032 0.950 . S
H1058 C1034 0.950 . S
H1059 C1035 0.949 . S
H1060 C1037 0.950 . S
H1061 C1039 0.950 . S
C1062 C1063 1.349 . S
C1062 C1064 1.327 . S
C1062 H1087 0.950 . S
C1063 C1062 1.349 . S
C1063 C1079 1.349 . S
C1064 C1062 1.327 . S
C1064 C1083 1.429 . S
C1064 H1088 0.950 . S
C1065 C1082 1.574 . S
C1065 C1084 1.368 1_545 S
C1065 H1089 0.949 . S
H1066 C1070 0.949 . S
C1067 C1068 1.349 . S
C1067 C1069 1.327 . S
C1067 H1090 0.950 . S
C1068 C1067 1.349 . S
C1068 C1080 1.349 . S
C1069 C1067 1.327 . S
C1069 C1085 1.429 . S
C1069 H1091 0.950 . S
C1070 H1066 0.949 . S
C1070 C1078 1.574 . S
C1070 C1086 1.368 1_565 S
H1071 C1079 0.971 . S
H1072 C1077 0.950 1_545 S
H1073 C1078 0.949 . S
H1074 C1080 0.970 . S
H1075 C1081 0.950 1_565 S
H1076 C1082 0.949 . S
C1077 H1072 0.950 1_565 S
C1077 C1079 1.327 . S
C1077 C1083 1.429 . S
C1078 C1070 1.574 . S
C1078 H1073 0.949 . S
C1078 C1084 1.368 . S
C1079 C1063 1.349 . S
C1079 H1071 0.971 . S
C1079 C1077 1.327 . S
C1080 C1068 1.349 . S
C1080 H1074 0.970 . S
C1080 C1081 1.327 . S
C1081 H1075 0.950 1_545 S
C1081 C1080 1.327 . S
C1081 C1085 1.429 . S
C1082 C1065 1.574 . S
C1082 H1076 0.949 . S
C1082 C1086 1.368 . S
C1083 C1064 1.429 . S
C1083 C1077 1.429 . S
C1083 C1084 1.523 . S
C1084 C1065 1.368 1_565 S
C1084 C1078 1.368 . S
C1084 C1083 1.523 . S
C1085 C1069 1.429 . S
C1085 C1081 1.429 . S
C1085 C1086 1.523 . S
C1086 C1070 1.368 1_545 S
C1086 C1082 1.368 . S
C1086 C1085 1.523 . S
H1087 C1062 0.950 . S
H1088 C1064 0.950 . S
H1089 C1065 0.949 . S
H1090 C1067 0.950 . S
H1091 C1069 0.950 . S
C1092 C1093 1.349 . S
C1092 C1094 1.327 . S
C1092 H1117 0.950 . S
C1093 C1092 1.349 . S
C1093 C1109 1.349 . S
C1094 C1092 1.327 . S
C1094 C1113 1.429 . S
C1094 H1118 0.950 . S
C1095 C1112 1.574 . S
C1095 C1114 1.368 . S
C1095 H1119 0.949 . S
H1096 C1100 0.949 . S
C1097 C1098 1.349 . S
C1097 C1099 1.327 . S
C1097 H1120 0.950 . S
C1098 C1097 1.349 . S
C1098 C1110 1.349 . S
C1099 C1097 1.327 . S
C1099 C1115 1.429 . S
C1099 H1121 0.950 . S
C1100 H1096 0.949 . S
C1100 C1108 1.574 . S
C1100 C1116 1.368 . S
H1101 C1109 0.950 . S
H1102 C1107 0.950 . S
H1103 C1108 0.949 . S
H1104 C1110 0.950 . S
H1105 C1111 0.950 . S
H1106 C1112 0.949 . S
C1107 H1102 0.950 . S
C1107 C1109 1.327 . S
C1107 C1113 1.429 . S
C1108 C1100 1.574 . S
C1108 H1103 0.949 . S
C1108 C1114 1.368 . S
C1109 C1093 1.349 . S
C1109 H1101 0.950 . S
C1109 C1107 1.327 . S
C1110 C1098 1.349 . S
C1110 H1104 0.950 . S
C1110 C1111 1.327 . S
C1111 H1105 0.950 . S
C1111 C1110 1.327 . S
C1111 C1115 1.429 . S
C1112 C1095 1.574 . S
C1112 H1106 0.949 . S
C1112 C1116 1.368 . S
C1113 C1094 1.429 . S
C1113 C1107 1.429 . S
C1113 C1114 1.523 . S
C1114 C1095 1.368 . S
C1114 C1108 1.368 . S
C1114 C1113 1.523 . S
C1115 C1099 1.429 . S
C1115 C1111 1.429 . S
C1115 C1116 1.523 . S
C1116 C1100 1.368 . S
C1116 C1112 1.368 . S
C1116 C1115 1.523 . S
H1117 C1092 0.950 . S
H1118 C1094 0.950 . S
H1119 C1095 0.949 . S
H1120 C1097 0.950 . S
H1121 C1099 0.950 . S
C1122 C1123 1.349 1_455 S
C1122 C1124 1.327 . S
C1122 H1147 0.950 . S
C1123 C1122 1.349 1_655 S
C1123 C1139 1.349 . S
C1124 C1122 1.327 . S
C1124 C1143 1.429 1_455 S
C1124 H1148 0.950 . S
C1125 C1142 1.574 . S
C1125 C1144 1.368 . S
C1125 H1149 0.949 . S
H1126 C1130 0.949 . S
C1127 C1128 1.349 1_655 S
C1127 C1129 1.327 . S
C1127 H1150 0.950 . S
C1128 C1127 1.349 1_455 S
C1128 C1140 1.349 . S
C1129 C1127 1.327 . S
C1129 C1145 1.429 1_655 S
C1129 H1151 0.950 . S
C1130 H1126 0.949 . S
C1130 C1138 1.574 . S
C1130 C1146 1.368 . S
H1131 C1139 0.950 . S
H1132 C1137 0.950 . S
H1133 C1138 0.949 . S
H1134 C1140 0.950 . S
H1135 C1141 0.950 . S
H1136 C1142 0.949 . S
C1137 H1132 0.950 . S
C1137 C1139 1.327 . S
C1137 C1143 1.429 . S
C1138 C1130 1.574 . S
C1138 H1133 0.949 . S
C1138 C1144 1.368 1_455 S
C1139 C1123 1.349 . S
C1139 H1131 0.950 . S
C1139 C1137 1.327 . S
C1140 C1128 1.349 . S
C1140 H1134 0.950 . S
C1140 C1141 1.327 . S
C1141 H1135 0.950 . S
C1141 C1140 1.327 . S
C1141 C1145 1.429 . S
C1142 C1125 1.574 . S
C1142 H1136 0.949 . S
C1142 C1146 1.368 1_655 S
C1143 C1124 1.429 1_655 S
C1143 C1137 1.429 . S
C1143 C1144 1.523 . S
C1144 C1125 1.368 . S
C1144 C1138 1.368 1_655 S
C1144 C1143 1.523 . S
C1145 C1129 1.429 1_455 S
C1145 C1141 1.429 . S
C1145 C1146 1.523 . S
C1146 C1130 1.368 . S
C1146 C1142 1.368 1_455 S
C1146 C1145 1.523 . S
H1147 C1122 0.950 . S
H1148 C1124 0.950 . S
H1149 C1125 0.949 . S
H1150 C1127 0.950 . S
H1151 C1129 0.950 . S
C433 C4 1.835 . S
C438 C292 1.835 . S
C463 C40 1.835 . S
C468 C328 1.835 . S
C493 C364 1.835 . S
C498 C76 1.835 . S
C523 C400 1.835 . S
C528 C112 1.835 . S
C553 C220 1.835 . S
C558 C148 1.835 . S
C583 C256 1.835 . S
C588 C184 1.835 . S
C613 C14 1.509 . S
C618 C122 1.509 . S
C643 C158 1.508 . S
C648 C50 1.508 . S
C673 C194 1.508 . S
C678 C86 1.508 . S
C703 C230 1.509 . S
C708 C338 1.509 . S
C733 C374 1.508 . S
C738 C266 1.508 . S
C763 C302 1.508 . S
C768 C410 1.508 . S
C793 C218 0.632 . S
C798 C2 0.632 . S
C823 C38 0.631 . S
C828 C254 0.631 . S
C853 C290 0.631 . S
C858 C74 0.631 . S
C883 C326 0.632 . S
C888 C110 0.632 . S
C913 C146 0.631 . S
C918 C362 0.631 . S
C943 C398 0.631 . S
C948 C182 0.631 . S
C973 C3 0.843 . S
C978 C255 0.843 . S
C1003 C291 0.843 . S
C1008 C39 0.843 . S
C1033 C327 0.843 . S
C1038 C75 0.843 . S
C1063 C111 0.843 . S
C1068 C363 0.843 . S
C1093 C399 0.843 . S
C1098 C147 0.843 . S
C1123 C219 0.843 . S
C1128 C183 0.843 . S
