# Generated by pormake.
# Topology wmt, (6)-cn, num edge types: 1
# Building blocks:
#     Node 0, Type 0, BuildingBlock: KUMBUR_clean_sbu_0, # of connection points: 6
#     Node 1, Type 0, BuildingBlock: KUMBUR_clean_sbu_0, # of connection points: 6
#     Node 2, Type 0, BuildingBlock: KUMBUR_clean_sbu_0, # of connection points: 6
#     Node 3, Type 0, BuildingBlock: KUMBUR_clean_sbu_0, # of connection points: 6
#     Node 4, Type 0, BuildingBlock: KUMBUR_clean_sbu_0, # of connection points: 6
#     Node 5, Type 0, BuildingBlock: KUMBUR_clean_sbu_0, # of connection points: 6
#     Node 6, Type 0, BuildingBlock: KUMBUR_clean_sbu_0, # of connection points: 6
#     Node 7, Type 0, BuildingBlock: KUMBUR_clean_sbu_0, # of connection points: 6
#     Node 8, Type 0, BuildingBlock: KUMBUR_clean_sbu_0, # of connection points: 6
#     Node 9, Type 0, BuildingBlock: KUMBUR_clean_sbu_0, # of connection points: 6
#     Node 10, Type 0, BuildingBlock: KUMBUR_clean_sbu_0, # of connection points: 6
#     Node 11, Type 0, BuildingBlock: KUMBUR_clean_sbu_0, # of connection points: 6
#     Node 12, Type 0, BuildingBlock: KUMBUR_clean_sbu_0, # of connection points: 6
#     Node 13, Type 0, BuildingBlock: KUMBUR_clean_sbu_0, # of connection points: 6
#     Node 14, Type 0, BuildingBlock: KUMBUR_clean_sbu_0, # of connection points: 6
#     Node 15, Type 0, BuildingBlock: KUMBUR_clean_sbu_0, # of connection points: 6
#     Node 16, Type 0, BuildingBlock: KUMBUR_clean_sbu_0, # of connection points: 6
#     Node 17, Type 0, BuildingBlock: KUMBUR_clean_sbu_0, # of connection points: 6
#     Node 18, Type 0, BuildingBlock: KUMBUR_clean_sbu_0, # of connection points: 6
#     Node 19, Type 0, BuildingBlock: KUMBUR_clean_sbu_0, # of connection points: 6
#     Node 20, Type 0, BuildingBlock: KUMBUR_clean_sbu_0, # of connection points: 6
#     Node 21, Type 0, BuildingBlock: KUMBUR_clean_sbu_0, # of connection points: 6
#     Node 22, Type 0, BuildingBlock: KUMBUR_clean_sbu_0, # of connection points: 6
#     Node 23, Type 0, BuildingBlock: KUMBUR_clean_sbu_0, # of connection points: 6
#     Node 24, Type 0, BuildingBlock: KUMBUR_clean_sbu_0, # of connection points: 6
#     Node 25, Type 0, BuildingBlock: KUMBUR_clean_sbu_0, # of connection points: 6
#     Node 26, Type 0, BuildingBlock: KUMBUR_clean_sbu_0, # of connection points: 6
#     Node 27, Type 0, BuildingBlock: KUMBUR_clean_sbu_0, # of connection points: 6
#     Node 28, Type 0, BuildingBlock: KUMBUR_clean_sbu_0, # of connection points: 6
#     Node 29, Type 0, BuildingBlock: KUMBUR_clean_sbu_0, # of connection points: 6
#     Node 30, Type 0, BuildingBlock: KUMBUR_clean_sbu_0, # of connection points: 6
#     Node 31, Type 0, BuildingBlock: KUMBUR_clean_sbu_0, # of connection points: 6
#     Node 32, Type 0, BuildingBlock: KUMBUR_clean_sbu_0, # of connection points: 6
#     Node 33, Type 0, BuildingBlock: KUMBUR_clean_sbu_0, # of connection points: 6
#     Node 34, Type 0, BuildingBlock: KUMBUR_clean_sbu_0, # of connection points: 6
#     Node 35, Type 0, BuildingBlock: KUMBUR_clean_sbu_0, # of connection points: 6
#     Edge 36, Type (0, 0), BuildingBlock: XIVTED_clean_linker_0, # of connection points: 2
#     Edge 37, Type (0, 0), BuildingBlock: XIVTED_clean_linker_0, # of connection points: 2
#     Edge 38, Type (0, 0), BuildingBlock: XIVTED_clean_linker_0, # of connection points: 2
#     Edge 39, Type (0, 0), BuildingBlock: XIVTED_clean_linker_0, # of connection points: 2
#     Edge 40, Type (0, 0), BuildingBlock: XIVTED_clean_linker_0, # of connection points: 2
#     Edge 41, Type (0, 0), BuildingBlock: XIVTED_clean_linker_0, # of connection points: 2
#     Edge 42, Type (0, 0), BuildingBlock: XIVTED_clean_linker_0, # of connection points: 2
#     Edge 43, Type (0, 0), BuildingBlock: XIVTED_clean_linker_0, # of connection points: 2
#     Edge 44, Type (0, 0), BuildingBlock: XIVTED_clean_linker_0, # of connection points: 2
#     Edge 45, Type (0, 0), BuildingBlock: XIVTED_clean_linker_0, # of connection points: 2
#     Edge 46, Type (0, 0), BuildingBlock: XIVTED_clean_linker_0, # of connection points: 2
#     Edge 47, Type (0, 0), BuildingBlock: XIVTED_clean_linker_0, # of connection points: 2
#     Edge 48, Type (0, 0), BuildingBlock: XIVTED_clean_linker_0, # of connection points: 2
#     Edge 49, Type (0, 0), BuildingBlock: XIVTED_clean_linker_0, # of connection points: 2
#     Edge 50, Type (0, 0), BuildingBlock: XIVTED_clean_linker_0, # of connection points: 2
#     Edge 51, Type (0, 0), BuildingBlock: XIVTED_clean_linker_0, # of connection points: 2
#     Edge 52, Type (0, 0), BuildingBlock: XIVTED_clean_linker_0, # of connection points: 2
#     Edge 53, Type (0, 0), BuildingBlock: XIVTED_clean_linker_0, # of connection points: 2
#     Edge 54, Type (0, 0), BuildingBlock: XIVTED_clean_linker_0, # of connection points: 2
#     Edge 55, Type (0, 0), BuildingBlock: XIVTED_clean_linker_0, # of connection points: 2
#     Edge 56, Type (0, 0), BuildingBlock: XIVTED_clean_linker_0, # of connection points: 2
#     Edge 57, Type (0, 0), BuildingBlock: XIVTED_clean_linker_0, # of connection points: 2
#     Edge 58, Type (0, 0), BuildingBlock: XIVTED_clean_linker_0, # of connection points: 2
#     Edge 59, Type (0, 0), BuildingBlock: XIVTED_clean_linker_0, # of connection points: 2
#     Edge 60, Type (0, 0), BuildingBlock: XIVTED_clean_linker_0, # of connection points: 2
#     Edge 61, Type (0, 0), BuildingBlock: XIVTED_clean_linker_0, # of connection points: 2
#     Edge 62, Type (0, 0), BuildingBlock: XIVTED_clean_linker_0, # of connection points: 2
#     Edge 63, Type (0, 0), BuildingBlock: XIVTED_clean_linker_0, # of connection points: 2
#     Edge 64, Type (0, 0), BuildingBlock: XIVTED_clean_linker_0, # of connection points: 2
#     Edge 65, Type (0, 0), BuildingBlock: XIVTED_clean_linker_0, # of connection points: 2
#     Edge 66, Type (0, 0), BuildingBlock: XIVTED_clean_linker_0, # of connection points: 2
#     Edge 67, Type (0, 0), BuildingBlock: XIVTED_clean_linker_0, # of connection points: 2
#     Edge 68, Type (0, 0), BuildingBlock: XIVTED_clean_linker_0, # of connection points: 2
#     Edge 69, Type (0, 0), BuildingBlock: XIVTED_clean_linker_0, # of connection points: 2
#     Edge 70, Type (0, 0), BuildingBlock: XIVTED_clean_linker_0, # of connection points: 2
#     Edge 71, Type (0, 0), BuildingBlock: XIVTED_clean_linker_0, # of connection points: 2
#     Edge 72, Type (0, 0), BuildingBlock: XIVTED_clean_linker_0, # of connection points: 2
#     Edge 73, Type (0, 0), BuildingBlock: XIVTED_clean_linker_0, # of connection points: 2
#     Edge 74, Type (0, 0), BuildingBlock: XIVTED_clean_linker_0, # of connection points: 2
#     Edge 75, Type (0, 0), BuildingBlock: XIVTED_clean_linker_0, # of connection points: 2
#     Edge 76, Type (0, 0), BuildingBlock: XIVTED_clean_linker_0, # of connection points: 2
#     Edge 77, Type (0, 0), BuildingBlock: XIVTED_clean_linker_0, # of connection points: 2
#     Edge 78, Type (0, 0), BuildingBlock: XIVTED_clean_linker_0, # of connection points: 2
#     Edge 79, Type (0, 0), BuildingBlock: XIVTED_clean_linker_0, # of connection points: 2
#     Edge 80, Type (0, 0), BuildingBlock: XIVTED_clean_linker_0, # of connection points: 2
#     Edge 81, Type (0, 0), BuildingBlock: XIVTED_clean_linker_0, # of connection points: 2
#     Edge 82, Type (0, 0), BuildingBlock: XIVTED_clean_linker_0, # of connection points: 2
#     Edge 83, Type (0, 0), BuildingBlock: XIVTED_clean_linker_0, # of connection points: 2
#     Edge 84, Type (0, 0), BuildingBlock: XIVTED_clean_linker_0, # of connection points: 2
#     Edge 85, Type (0, 0), BuildingBlock: XIVTED_clean_linker_0, # of connection points: 2
#     Edge 86, Type (0, 0), BuildingBlock: XIVTED_clean_linker_0, # of connection points: 2
#     Edge 87, Type (0, 0), BuildingBlock: XIVTED_clean_linker_0, # of connection points: 2
#     Edge 88, Type (0, 0), BuildingBlock: XIVTED_clean_linker_0, # of connection points: 2
#     Edge 89, Type (0, 0), BuildingBlock: XIVTED_clean_linker_0, # of connection points: 2
#     Edge 90, Type (0, 0), BuildingBlock: XIVTED_clean_linker_0, # of connection points: 2
#     Edge 91, Type (0, 0), BuildingBlock: XIVTED_clean_linker_0, # of connection points: 2
#     Edge 92, Type (0, 0), BuildingBlock: XIVTED_clean_linker_0, # of connection points: 2
#     Edge 93, Type (0, 0), BuildingBlock: XIVTED_clean_linker_0, # of connection points: 2
#     Edge 94, Type (0, 0), BuildingBlock: XIVTED_clean_linker_0, # of connection points: 2
#     Edge 95, Type (0, 0), BuildingBlock: XIVTED_clean_linker_0, # of connection points: 2
#     Edge 96, Type (0, 0), BuildingBlock: XIVTED_clean_linker_0, # of connection points: 2
#     Edge 97, Type (0, 0), BuildingBlock: XIVTED_clean_linker_0, # of connection points: 2
#     Edge 98, Type (0, 0), BuildingBlock: XIVTED_clean_linker_0, # of connection points: 2
#     Edge 99, Type (0, 0), BuildingBlock: XIVTED_clean_linker_0, # of connection points: 2
#     Edge 100, Type (0, 0), BuildingBlock: XIVTED_clean_linker_0, # of connection points: 2
#     Edge 101, Type (0, 0), BuildingBlock: XIVTED_clean_linker_0, # of connection points: 2
#     Edge 102, Type (0, 0), BuildingBlock: XIVTED_clean_linker_0, # of connection points: 2
#     Edge 103, Type (0, 0), BuildingBlock: XIVTED_clean_linker_0, # of connection points: 2
#     Edge 104, Type (0, 0), BuildingBlock: XIVTED_clean_linker_0, # of connection points: 2
#     Edge 105, Type (0, 0), BuildingBlock: XIVTED_clean_linker_0, # of connection points: 2
#     Edge 106, Type (0, 0), BuildingBlock: XIVTED_clean_linker_0, # of connection points: 2
#     Edge 107, Type (0, 0), BuildingBlock: XIVTED_clean_linker_0, # of connection points: 2
#     Edge 108, Type (0, 0), BuildingBlock: XIVTED_clean_linker_0, # of connection points: 2
#     Edge 109, Type (0, 0), BuildingBlock: XIVTED_clean_linker_0, # of connection points: 2
#     Edge 110, Type (0, 0), BuildingBlock: XIVTED_clean_linker_0, # of connection points: 2
#     Edge 111, Type (0, 0), BuildingBlock: XIVTED_clean_linker_0, # of connection points: 2
#     Edge 112, Type (0, 0), BuildingBlock: XIVTED_clean_linker_0, # of connection points: 2
#     Edge 113, Type (0, 0), BuildingBlock: XIVTED_clean_linker_0, # of connection points: 2
#     Edge 114, Type (0, 0), BuildingBlock: XIVTED_clean_linker_0, # of connection points: 2
#     Edge 115, Type (0, 0), BuildingBlock: XIVTED_clean_linker_0, # of connection points: 2
#     Edge 116, Type (0, 0), BuildingBlock: XIVTED_clean_linker_0, # of connection points: 2
#     Edge 117, Type (0, 0), BuildingBlock: XIVTED_clean_linker_0, # of connection points: 2
#     Edge 118, Type (0, 0), BuildingBlock: XIVTED_clean_linker_0, # of connection points: 2
#     Edge 119, Type (0, 0), BuildingBlock: XIVTED_clean_linker_0, # of connection points: 2
#     Edge 120, Type (0, 0), BuildingBlock: XIVTED_clean_linker_0, # of connection points: 2
#     Edge 121, Type (0, 0), BuildingBlock: XIVTED_clean_linker_0, # of connection points: 2
#     Edge 122, Type (0, 0), BuildingBlock: XIVTED_clean_linker_0, # of connection points: 2
#     Edge 123, Type (0, 0), BuildingBlock: XIVTED_clean_linker_0, # of connection points: 2
#     Edge 124, Type (0, 0), BuildingBlock: XIVTED_clean_linker_0, # of connection points: 2
#     Edge 125, Type (0, 0), BuildingBlock: XIVTED_clean_linker_0, # of connection points: 2
#     Edge 126, Type (0, 0), BuildingBlock: XIVTED_clean_linker_0, # of connection points: 2
#     Edge 127, Type (0, 0), BuildingBlock: XIVTED_clean_linker_0, # of connection points: 2
#     Edge 128, Type (0, 0), BuildingBlock: XIVTED_clean_linker_0, # of connection points: 2
#     Edge 129, Type (0, 0), BuildingBlock: XIVTED_clean_linker_0, # of connection points: 2
#     Edge 130, Type (0, 0), BuildingBlock: XIVTED_clean_linker_0, # of connection points: 2
#     Edge 131, Type (0, 0), BuildingBlock: XIVTED_clean_linker_0, # of connection points: 2
#     Edge 132, Type (0, 0), BuildingBlock: XIVTED_clean_linker_0, # of connection points: 2
#     Edge 133, Type (0, 0), BuildingBlock: XIVTED_clean_linker_0, # of connection points: 2
#     Edge 134, Type (0, 0), BuildingBlock: XIVTED_clean_linker_0, # of connection points: 2
#     Edge 135, Type (0, 0), BuildingBlock: XIVTED_clean_linker_0, # of connection points: 2
#     Edge 136, Type (0, 0), BuildingBlock: XIVTED_clean_linker_0, # of connection points: 2
#     Edge 137, Type (0, 0), BuildingBlock: XIVTED_clean_linker_0, # of connection points: 2
#     Edge 138, Type (0, 0), BuildingBlock: XIVTED_clean_linker_0, # of connection points: 2
#     Edge 139, Type (0, 0), BuildingBlock: XIVTED_clean_linker_0, # of connection points: 2
#     Edge 140, Type (0, 0), BuildingBlock: XIVTED_clean_linker_0, # of connection points: 2
#     Edge 141, Type (0, 0), BuildingBlock: XIVTED_clean_linker_0, # of connection points: 2
#     Edge 142, Type (0, 0), BuildingBlock: XIVTED_clean_linker_0, # of connection points: 2
#     Edge 143, Type (0, 0), BuildingBlock: XIVTED_clean_linker_0, # of connection points: 2
# Relax obj value: 0.338
# Max RMSD: 0.237
# Mean RMSD: 0.237
data_MOF--net-wmt--node1-KUMBUR_clean_sbu_0--edge1-XIVTED_clean_linker_0
_symmetry_space_group_name_H-M    P1
_symmetry_Int_Tables_number       1
_symmetry_cell_setting            triclinic
loop_
_symmetry_equiv_pos_as_xyz
'x, y, z'
_cell_length_a     82.384777
_cell_length_b     82.409961
_cell_length_c     32.970498
_cell_angle_alpha  90.047445
_cell_angle_beta   90.061806
_cell_angle_gamma 119.94836
loop_
_atom_site_label
_atom_site_type_symbol
_atom_site_fract_x
_atom_site_fract_y
_atom_site_fract_z
_atom_type_partial_charge
Tb0 Tb 0.06387 0.48221 0.20136 0.0
C1 C 0.98896 0.41124 0.18993 0.0
C2 C -0.00162 0.38944 0.21376 0.0
C3 C 0.96574 0.38126 0.21826 0.0
C4 C 0.00282 0.40663 0.19527 0.0
C5 C 0.97026 0.39858 0.20124 0.0
C6 C 0.97978 0.37673 0.22465 0.0
C7 C 0.96157 0.4208 0.17727 0.0
N8 N 0.99379 0.42818 0.17389 0.0
C9 C 0.98019 0.4328 0.16648 0.0
C10 C 0.95656 0.40361 0.19487 0.0
Tb11 Tb 0.02404 0.44566 0.15096 0.0
N12 N 0.02069 0.41923 0.184 0.0
C13 C 0.03493 0.41593 0.19452 0.0
C14 C 0.01279 0.38565 0.2217 0.0
C15 C 0.03117 0.39911 0.21275 0.0
H16 H 0.98342 0.44559 0.15117 0.0
H17 H 0.04254 0.39666 0.22046 0.0
H18 H 0.97614 0.36342 0.23848 0.0
H19 H 0.95105 0.42472 0.17134 0.0
H20 H 0.04943 0.42636 0.19079 0.0
H21 H 0.07601 0.54422 0.11827 0.0
H22 H 0.00995 0.37265 0.23598 0.0
H23 H 0.09311 0.46876 0.23337 0.0
H24 H 0.05759 0.51542 0.15593 0.0
H25 H 0.1267 0.47857 0.22527 0.0
H26 H 0.95146 0.37135 0.2269 0.0
H27 H 0.10921 0.55512 0.10264 0.0
H28 H 0.13693 0.55048 0.10991 0.0
H29 H 0.94206 0.39423 0.20296 0.0
H30 H 0.15074 0.53253 0.13867 0.0
N31 N 0.07975 0.5094 0.16388 0.0
C32 C 0.07204 0.5199 0.15112 0.0
C33 C 0.10114 0.54237 0.11991 0.0
C34 C 0.10921 0.53199 0.13387 0.0
C35 C 0.08248 0.53634 0.12887 0.0
C36 C 0.09802 0.51542 0.15608 0.0
H37 H 0.14706 0.50577 0.18203 0.0
N38 N 0.09446 0.48974 0.19384 0.0
C39 C 0.12091 0.4861 0.20977 0.0
C40 C 0.10568 0.50527 0.17178 0.0
C41 C 0.10195 0.48058 0.2143 0.0
C42 C 0.13237 0.50147 0.18532 0.0
C43 C 0.12486 0.51144 0.16641 0.0
O44 O 0.07147 0.4847 0.26336 0.0
O45 O 0.03645 0.45758 0.2081 0.0
O46 O 0.01479 0.46247 0.18577 0.0
O47 O 0.04225 0.49032 0.19885 0.0
O48 O 0.05646 0.45898 0.24495 0.0
O49 O 0.06661 0.50528 0.23525 0.0
O50 O 0.00932 0.45227 0.10838 0.0
O51 O 0.04597 0.4748 0.14853 0.0
O52 O 0.07445 0.46762 0.15814 0.0
O53 O 0.04731 0.44118 0.13291 0.0
O54 O 0.04081 0.45904 0.097 0.0
O55 O 0.00768 0.42515 0.10807 0.0
C56 C 0.03861 0.44973 0.23869 0.0
C57 C 0.08343 0.51394 0.29804 0.0
C58 C 0.08912 0.53115 0.36254 0.0
C59 C 0.07669 0.51749 0.3347 0.0
C60 C 0.10831 0.54102 0.35329 0.0
C61 C 0.10267 0.52396 0.28985 0.0
C62 C 0.115 0.53738 0.31741 0.0
C63 C 0.02374 0.4803 0.19734 0.0
C64 C 0.07019 0.49963 0.26914 0.0
C65 C 0.13599 0.52762 0.14338 0.0
C66 C 0.12815 0.53786 0.12705 0.0
C67 C 0.05075 0.47557 0.11167 0.0
C68 C 0.0043 0.43705 0.04492 0.0
C69 C 0.00558 0.42307 1.02291 0.0
C70 C 0.00591 0.42355 0.98052 0.0
C71 C 0.00473 0.43787 0.96001 0.0
C72 C 0.00295 0.45118 1.02392 0.0
C73 C 0.0032 0.45157 0.98167 0.0
C74 C 0.06596 0.45191 0.13516 0.0
C75 C 0.00307 0.4363 0.08948 0.0
H76 H 0.06184 0.50971 0.34143 0.0
H77 H 0.11818 0.55146 0.37416 0.0
H78 H 0.10813 0.52137 0.26222 0.0
H79 H 0.12986 0.54502 0.31095 0.0
H80 H 0.00608 0.41175 0.03846 0.0
H81 H 0.0045 0.43814 0.92715 0.0
H82 H 0.00148 0.46181 0.04014 0.0
H83 H 0.00197 0.46237 0.96568 0.0
Tb84 Tb 0.51051 0.58005 0.2055 0.0
C85 C 0.57869 0.56983 0.18656 0.0
C86 C 0.6029 0.59928 0.21395 0.0
C87 C 0.60816 0.57283 0.20908 0.0
C88 C 0.58494 0.58822 0.19688 0.0
C89 C 0.59027 0.56192 0.19205 0.0
C90 C 0.61444 0.59146 0.22016 0.0
C91 C 0.56622 0.5336 0.16043 0.0
N92 N 0.56158 0.55995 0.16922 0.0
C93 C 0.55546 0.54224 0.15502 0.0
C94 C 0.58372 0.54349 0.17913 0.0
Tb95 Tb 0.54627 0.57594 0.15522 0.0
N96 N 0.57364 0.59541 0.18896 0.0
C97 C 0.57954 0.61378 0.19776 0.0
C98 C 0.60886 0.61797 0.22345 0.0
C99 C 0.5971 0.62523 0.21539 0.0
H100 H 0.54257 0.53512 0.13798 0.0
H101 H 0.60155 0.63966 0.22268 0.0
H102 H 0.62834 0.59978 0.23297 0.0
H103 H 0.56125 0.51957 0.14908 0.0
H104 H 0.57068 0.61972 0.19226 0.0
H105 H 0.44544 0.52574 0.13949 0.0
H106 H 0.62253 0.62693 0.23674 0.0
H107 H 0.52533 0.62423 0.22826 0.0
H108 H 0.47746 0.5391 0.16421 0.0
H109 H 0.51351 0.64654 0.22257 0.0
H110 H 0.61733 0.56707 0.21335 0.0
H111 H 0.43083 0.54553 0.13393 0.0
H112 H 0.43375 0.57715 0.1418 0.0
H113 H 0.59225 0.53695 0.18252 0.0
H114 H 0.45251 0.61015 0.16263 0.0
N115 N 0.48133 0.56627 0.17585 0.0
C116 C 0.47139 0.54793 0.16376 0.0
C117 C 0.44496 0.55148 0.14568 0.0
C118 C 0.45522 0.57031 0.15718 0.0
C119 C 0.45313 0.54027 0.14888 0.0
C120 C 0.47354 0.57735 0.17257 0.0
H121 H 0.48234 0.6362 0.19225 0.0
N122 N 0.50151 0.602 0.19947 0.0
C123 C 0.50513 0.63235 0.21152 0.0
C124 C 0.48407 0.59588 0.18427 0.0
C125 C 0.5118 0.61976 0.21463 0.0
C126 C 0.48752 0.62646 0.19439 0.0
C127 C 0.47661 0.60794 0.18109 0.0
O128 O 0.5091 0.58723 0.26589 0.0
O129 O 0.53579 0.57894 0.21172 0.0
O130 O 0.53295 0.55213 0.19692 0.0
O131 O 0.50415 0.55064 0.20454 0.0
O132 O 0.53421 0.59709 0.24807 0.0
O133 O 0.48956 0.55953 0.24319 0.0
O134 O 0.54778 0.56446 0.09938 0.0
O135 O 0.51959 0.57477 0.14717 0.0
O136 O 0.52156 0.60284 0.1576 0.0
O137 O 0.54922 0.60349 0.13979 0.0
O138 O 0.52242 0.55345 0.12399 0.0
O139 O 0.56486 0.59418 0.11178 0.0
C140 C 0.54413 0.5892 0.24172 0.0
C141 C 0.4808 0.57006 0.3025 0.0
C142 C 0.46363 0.55914 0.36695 0.0
C143 C 0.47561 0.55843 0.33712 0.0
C144 C 0.45699 0.57178 0.36092 0.0
C145 C 0.47367 0.58219 0.2972 0.0
C146 C 0.46182 0.58299 0.32627 0.0
C147 C 0.51483 0.54276 0.20624 0.0
C148 C 0.4951 0.57067 0.27466 0.0
C149 C 0.45846 0.60108 0.16541 0.0
C150 C 0.44777 0.58229 0.15363 0.0
C151 C 0.51151 0.56047 0.12406 0.0
C152 C 0.57668 0.58133 0.06478 0.0
C153 C 0.58544 0.59517 0.0354 0.0
C154 C 0.59884 0.59503 1.00965 0.0
C155 C 0.60465 0.58182 1.01597 0.0
C156 C 0.58212 0.56782 0.06999 0.0
C157 C 0.59637 0.56836 0.04627 0.0
C158 C 0.53771 0.61039 0.13685 0.0
C159 C 0.56084 0.58064 0.08614 0.0
H160 H 0.4811 0.54901 0.34082 0.0
H161 H 0.4483 0.57337 0.38335 0.0
H162 H 0.47764 0.59137 0.27117 0.0
H163 H 0.45663 0.59264 0.32234 0.0
H164 H 0.58076 0.60522 1.03045 0.0
H165 H 0.61458 0.58103 0.99574 0.0
H166 H 0.57515 0.55659 0.09125 0.0
H167 H 0.60035 0.55776 0.05005 0.0
Tb168 Tb 0.41387 0.92809 0.20401 0.0
C169 C 0.42268 0.00642 0.18637 0.0
C170 C 0.39452 0.00236 0.21893 0.0
C171 C 0.42135 0.03358 0.21113 0.0
C172 C 0.40443 0.99473 0.19932 0.0
C173 C 0.43129 0.026 0.19208 0.0
C174 C 0.40302 0.0218 0.22449 0.0
C175 C 0.45824 0.02952 0.15565 0.0
N176 N 0.43176 -0.00126 0.16695 0.0
C177 C 0.44895 0.01016 0.14968 0.0
C178 C 0.44941 0.03749 0.17718 0.0
Tb179 Tb 0.41398 0.96721 0.15404 0.0
N180 N 0.39641 0.97597 0.19273 0.0
C181 C 0.37867 0.96409 0.20679 0.0
C182 C 0.3763 0.99026 0.23236 0.0
C183 C 0.36845 0.97105 0.22668 0.0
H184 H 0.45547 0.00429 0.13087 0.0
H185 H 0.35446 0.96153 0.23759 0.0
H186 H 0.39551 0.02788 0.23905 0.0
H187 H 0.47197 0.03832 0.14265 0.0
H188 H 0.37219 0.94912 0.20388 0.0
H189 H 0.46591 0.91956 0.12069 0.0
H190 H 0.36825 0.99559 0.2475 0.0
H191 H 0.37129 0.89757 0.23397 0.0
H192 H 0.45403 0.9367 0.15907 0.0
H193 H 0.34867 0.86371 0.22453 0.0
H194 H 0.42766 0.04858 0.21532 0.0
H195 H 0.44495 0.88612 0.10439 0.0
H196 H 0.41323 0.85739 0.11083 0.0
H197 H 0.45645 0.05255 0.18095 0.0
H198 H 0.38125 0.84219 0.13869 0.0
N199 N 0.42657 0.91351 0.16679 0.0
C200 C 0.44481 0.92211 0.15407 0.0
C201 C 0.4397 0.89361 0.12208 0.0
C202 C 0.4212 0.88467 0.13595 0.0
C203 C 0.45159 0.91241 0.13142 0.0
C204 C 0.41502 0.89512 0.15856 0.0
H205 H 0.3571 0.84441 0.18144 0.0
N206 N 0.39182 0.89729 0.19556 0.0
C207 C 0.36219 0.87006 0.20976 0.0
C208 C 0.39704 0.88669 0.17366 0.0
C209 C 0.37496 0.88916 0.21506 0.0
C210 C 0.36699 0.8592 0.18541 0.0
C211 C 0.3847 0.86743 0.16738 0.0
O212 O 0.40885 0.91982 0.26539 0.0
O213 O 0.41424 0.95441 0.21043 0.0
O214 O 0.44155 0.97827 0.18298 0.0
O215 O 0.44295 0.95156 0.2016 0.0
O216 O 0.39776 0.93444 0.24924 0.0
O217 O 0.43508 0.92676 0.2375 0.0
O218 O 0.42565 0.98023 0.09872 0.0
O219 O 0.42213 0.94587 0.15167 0.0
O220 O 0.38979 0.9166 0.15857 0.0
O221 O 0.38579 0.94239 0.15112 0.0
O222 O 0.41656 0.95406 0.09847 0.0
O223 O 0.39661 0.97166 0.11493 0.0
C224 C 0.40503 0.95215 0.24247 0.0
C225 C 0.42683 0.90819 0.29768 0.0
C226 C 0.43754 0.90115 0.36202 0.0
C227 C 0.43621 0.91403 0.33553 0.0
C228 C 0.42924 0.88233 0.34921 0.0
C229 C 0.41859 0.88936 0.28639 0.0
C230 C 0.4198 0.87654 0.31206 0.0
C231 C 0.45074 0.97 0.19723 0.0
C232 C 0.42544 0.9219 0.27102 0.0
C233 C 0.39058 0.85699 0.14413 0.0
C234 C 0.40879 0.86562 0.12833 0.0
C235 C 0.42083 0.94256 0.11388 0.0
C236 C 0.41117 0.99478 0.06403 0.0
C237 C 0.40389 0.99064 1.02489 0.0
C238 C 0.40468 0.00475 1.00017 0.0
C239 C 0.41312 0.02323 1.01458 0.0
C240 C 0.41941 0.0132 0.07855 0.0
C241 C 0.42052 0.02742 0.05372 0.0
C242 C 0.38065 0.92475 0.14246 0.0
C243 C 0.40993 0.97929 0.08766 0.0
H244 H 0.44215 0.92856 0.34438 0.0
H245 H 0.4302 0.87195 0.3675 0.0
H246 H 0.41121 0.88457 0.25778 0.0
H247 H 0.41346 0.862 0.30301 0.0
H248 H 0.39753 0.97637 1.0136 0.0
H249 H 0.41426 0.03441 0.99536 0.0
H250 H 0.42487 0.01672 0.1087 0.0
H251 H 0.42711 0.04168 0.06482 0.0
Tb252 Tb 0.48583 0.07119 0.51804 0.0
C253 C 0.4192 0.99021 0.54306 0.0
C254 C 0.39352 0.99376 0.51849 0.0
C255 C 0.3897 0.96265 0.52503 0.0
C256 C 0.41199 0.00158 0.53331 0.0
C257 C 0.40824 0.97061 0.53894 0.0
C258 C 0.38236 0.97422 0.51475 0.0
C259 C 0.4346 0.96829 0.56366 0.0
N260 N 0.43711 -0.00154 0.55629 0.0
C261 C 0.44476 0.9878 0.5676 0.0
C262 C 0.41622 0.95964 0.54924 0.0
Tb263 Tb 0.45166 0.02986 0.56911 0.0
N264 N 0.42326 0.02034 0.53762 0.0
C265 C 0.41679 0.03216 0.52677 0.0
C266 C 0.38688 0.0058 0.50776 0.0
C267 C 0.39863 0.02509 0.51162 0.0
H268 H 0.45825 0.99436 0.58222 0.0
H269 H 0.3937 0.03457 0.50303 0.0
H270 H 0.36807 0.96794 0.50377 0.0
H271 H 0.44072 0.95994 0.57308 0.0
H272 H 0.42555 0.04715 0.52889 0.0
H273 H 0.55329 0.08615 0.57882 0.0
H274 H 0.37278 0.00037 0.4962 0.0
H275 H 0.47228 0.10179 0.4935 0.0
H276 H 0.52618 0.07062 0.53357 0.0
H277 H 0.47942 0.13347 0.51567 0.0
H278 H 0.38096 0.94761 0.52198 0.0
H279 H 0.55869 0.11407 0.61788 0.0
H280 H 0.54972 0.13878 0.63005 0.0
H281 H 0.40823 0.94451 0.54681 0.0
H282 H 0.52999 0.15229 0.61115 0.0
N283 N 0.51438 0.08735 0.55077 0.0
C284 C 0.52748 0.08179 0.55222 0.0
C285 C 0.54635 0.10681 0.5989 0.0
C286 C 0.53415 0.11382 0.59338 0.0
C287 C 0.54332 0.09105 0.57704 0.0
C288 C 0.51828 0.10374 0.56837 0.0
H289 H 0.50414 0.15074 0.56703 0.0
N290 N 0.49289 0.10141 0.53173 0.0
C291 C 0.48731 0.12732 0.52791 0.0
C292 C 0.50733 0.11129 0.55777 0.0
C293 C 0.48343 0.10951 0.51509 0.0
C294 C 0.50124 0.13701 0.55703 0.0
C295 C 0.51168 0.12915 0.57186 0.0
O296 O 0.4883 0.08296 0.45999 0.0
O297 O 0.46145 0.04377 0.51219 0.0
O298 O 0.46647 0.02133 0.52656 0.0
O299 O 0.49442 0.04957 0.51922 0.0
O300 O 0.46175 0.06324 0.47614 0.0
O301 O 0.50534 0.07092 0.47724 0.0
O302 O 0.45205 0.01712 0.62386 0.0
O303 O 0.47749 0.05623 0.57498 0.0
O304 O 0.47206 0.08048 0.5647 0.0
O305 O 0.4458 0.0525 0.58344 0.0
O306 O 0.47639 0.03325 0.60134 0.0
O307 O 0.43467 0.02982 0.61642 0.0
C308 C 0.45287 0.04539 0.48218 0.0
C309 C 0.51547 0.09101 0.41982 0.0
C310 C 0.53262 0.09483 0.35657 0.0
C311 C 0.51861 0.08333 0.38439 0.0
C312 C 0.54335 0.11411 0.36447 0.0
C313 C 0.52624 0.11031 0.42701 0.0
C314 C 0.54009 0.12178 0.3993 0.0
C315 C 0.48462 0.03093 0.51769 0.0
C316 C 0.50068 0.07849 0.44816 0.0
C317 C 0.52661 0.1387 0.59928 0.0
C318 C 0.53781 0.13099 0.61015 0.0
C319 C 0.48672 0.05108 0.59712 0.0
C320 C 0.42354 0.00394 0.66015 0.0
C321 C 0.4133 0.00774 0.68843 0.0
C322 C 0.39998 0.9934 0.71289 0.0
C323 C 0.39561 0.97481 0.70589 0.0
C324 C 0.41974 0.98545 0.65501 0.0
C325 C 0.40543 0.9709 0.67684 0.0
C326 C 0.45598 0.071 0.58507 0.0
C327 C 0.43912 0.01983 0.63969 0.0
H328 H 0.51024 0.06841 0.37861 0.0
H329 H 0.55413 0.12326 0.3434 0.0
H330 H 0.52392 0.11645 0.45389 0.0
H331 H 0.54834 0.1367 0.40484 0.0
H332 H 0.41678 0.02213 0.69368 0.0
H333 H 0.38571 0.9635 0.72497 0.0
H334 H 0.42809 0.98218 0.63544 0.0
H335 H 0.40265 0.9567 0.67283 0.0
Tb336 Tb 0.92503 0.41156 0.5205 0.0
C337 C 0.00301 0.42084 0.53744 0.0
C338 C 0.9956 0.38973 0.5167 0.0
C339 C 0.02788 0.4152 0.51502 0.0
C340 C 0.98996 0.40219 0.53165 0.0
C341 C 0.02212 0.42762 0.529 0.0
C342 C 0.01464 0.3963 0.50884 0.0
C343 C 0.02856 0.4583 0.55006 0.0
N344 N 0.99691 0.43239 0.551 0.0
C345 C 0.00954 0.45086 0.55838 0.0
C346 C 0.03491 0.44663 0.53525 0.0
Tb347 Tb 0.96624 0.41806 0.57172 0.0
N348 N 0.97173 0.39633 0.54014 0.0
C349 C 0.9583 0.37814 0.53274 0.0
C350 C 0.98195 0.37106 0.51 0.0
C351 C 0.96319 0.36531 0.51761 0.0
H352 H 0.00504 0.45967 0.57267 0.0
H353 H 0.95247 0.35095 0.51189 0.0
H354 H 0.01926 0.38688 0.49779 0.0
H355 H 0.03835 0.47293 0.5561 0.0
H356 H 0.94367 0.37337 0.53748 0.0
H357 H 0.90955 0.46555 0.56928 0.0
H358 H 0.9857 0.36105 0.49853 0.0
H359 H 0.89318 0.36742 0.49772 0.0
H360 H 0.92493 0.45277 0.52716 0.0
H361 H 0.8617 0.34366 0.52228 0.0
H362 H 0.04252 0.4201 0.50878 0.0
H363 H 0.88262 0.44443 0.61231 0.0
H364 H 0.85854 0.41127 0.63031 0.0
H365 H 0.04971 0.45235 0.52932 0.0
H366 H 0.84485 0.37759 0.61595 0.0
N367 N 0.90916 0.42497 0.55045 0.0
C368 C 0.91422 0.44349 0.54776 0.0
C369 C 0.88984 0.43882 0.59486 0.0
C370 C 0.88315 0.41955 0.59318 0.0
C371 C 0.90505 0.45077 0.57073 0.0
C372 C 0.89308 0.41303 0.56981 0.0
H373 H 0.84555 0.35226 0.57406 0.0
N374 N 0.89468 0.3891 0.53544 0.0
C375 C 0.86827 0.35785 0.53373 0.0
C376 C 0.88535 0.3943 0.56148 0.0
C377 C 0.88595 0.37136 0.51951 0.0
C378 C 0.85923 0.36273 0.56315 0.0
C379 C 0.86756 0.38128 0.57665 0.0
O380 O 0.91207 0.40184 0.46334 0.0
O381 O 0.95265 0.41482 0.51418 0.0
O382 O 0.97432 0.44184 0.53062 0.0
O383 O 0.94609 0.44161 0.52516 0.0
O384 O 0.93266 0.39512 0.47925 0.0
O385 O 0.92748 0.43132 0.47684 0.0
O386 O 0.98403 0.43434 0.61811 0.0
O387 O 0.93982 0.41745 0.57788 0.0
O388 O 0.91565 0.38797 0.56597 0.0
O389 O 0.94307 0.391 0.59437 0.0
O390 O 0.96216 0.4381 0.60792 0.0
O391 O 0.97159 0.40414 0.61908 0.0
C392 C 0.95058 0.40435 0.48438 0.0
C393 C 0.90604 0.42216 0.42177 0.0
C394 C 0.9025 0.43625 0.35904 0.0
C395 C 0.91372 0.43269 0.38589 0.0
C396 C 0.88349 0.42901 0.36839 0.0
C397 C 0.88701 0.41503 0.43026 0.0
C398 C 0.87582 0.4184 0.40357 0.0
C399 C 0.96468 0.45054 0.52375 0.0
C400 C 0.91818 0.41872 0.44935 0.0
C401 C 0.85837 0.38741 0.60324 0.0
C402 C 0.86619 0.40658 0.61154 0.0
C403 C 0.94452 0.43113 0.60186 0.0
C404 C 0.98084 0.42053 0.68211 0.0
C405 C 0.98179 0.40681 0.70549 0.0
C406 C 0.98289 0.40842 0.7477 0.0
C407 C 0.98324 0.42387 0.76664 0.0
C408 C 0.98109 0.43591 0.70145 0.0
C409 C 0.98233 0.43754 0.74355 0.0
C410 C 0.92451 0.38203 0.59073 0.0
C411 C 0.98237 0.41995 0.6379 0.0
H412 H 0.92842 0.43819 0.37901 0.0
H413 H 0.87452 0.43138 0.34815 0.0
H414 H 0.88083 0.40685 0.45742 0.0
H415 H 0.8611 0.41277 0.41017 0.0
H416 H 0.98219 0.39522 0.69091 0.0
H417 H 0.98463 0.42553 0.79929 0.0
H418 H 0.98087 0.44698 0.68417 0.0
H419 H 0.98292 0.44958 0.75824 0.0
Tb420 Tb 0.58036 0.51147 0.52236 0.0
C421 C 0.56704 0.57811 0.53992 0.0
C422 C 0.59563 0.60363 0.51252 0.0
C423 C 0.56775 0.60653 0.51719 0.0
C424 C 0.58556 0.58549 0.52922 0.0
C425 C 0.55802 0.58872 0.53505 0.0
C426 C 0.58653 0.61396 0.5059 0.0
C427 C 0.53172 0.56487 0.57236 0.0
N428 N 0.55858 0.56149 0.55959 0.0
C429 C 0.54145 0.55513 0.5772 0.0
C430 C 0.53996 0.58166 0.55077 0.0
Tb431 Tb 0.57627 0.54783 0.57225 0.0
N432 N 0.59406 0.57545 0.53804 0.0
C433 C 0.61281 0.58289 0.53067 0.0
C434 C 0.61473 0.61116 0.50466 0.0
C435 C 0.62336 0.60077 0.51396 0.0
H436 H 0.53538 0.54258 0.59544 0.0
H437 H 0.63816 0.60648 0.50815 0.0
H438 H 0.59406 0.62795 0.49327 0.0
H439 H 0.51807 0.55964 0.58605 0.0
H440 H 0.61987 0.57515 0.53699 0.0
H441 H 0.52742 0.44798 0.59546 0.0
H442 H 0.62298 0.62508 0.49204 0.0
H443 H 0.62372 0.52476 0.49507 0.0
H444 H 0.53909 0.47719 0.55772 0.0
H445 H 0.64702 0.51458 0.5071 0.0
H446 H 0.56111 0.61493 0.51332 0.0
H447 H 0.54918 0.43703 0.61624 0.0
H448 H 0.58171 0.44163 0.6145 0.0
H449 H 0.53261 0.58944 0.54795 0.0
H450 H 0.61425 0.45966 0.59023 0.0
N451 N 0.56746 0.4834 0.55652 0.0
C452 C 0.54884 0.47271 0.5657 0.0
C453 C 0.55442 0.44995 0.59931 0.0
C454 C 0.57328 0.46038 0.58815 0.0
C455 C 0.5421 0.45604 0.58752 0.0
C456 C 0.57938 0.47715 0.56623 0.0
H457 H 0.63866 0.48675 0.54961 0.0
N458 N 0.60268 0.50303 0.53085 0.0
C459 C 0.63318 0.50683 0.52026 0.0
C460 C 0.59759 0.48723 0.55264 0.0
C461 C 0.61999 0.51252 0.51337 0.0
C462 C 0.62842 0.4911 0.54431 0.0
C463 C 0.61036 0.48095 0.56048 0.0
O464 O 0.58692 0.50879 0.46205 0.0
O465 O 0.58027 0.53729 0.51669 0.0
O466 O 0.55295 0.5348 0.52905 0.0
O467 O 0.55118 0.50578 0.52185 0.0
O468 O 0.59753 0.53484 0.47948 0.0
O469 O 0.55932 0.49021 0.48607 0.0
O470 O 0.56656 0.55003 0.62985 0.0
O471 O 0.57431 0.52086 0.57899 0.0
O472 O 0.60306 0.52304 0.56997 0.0
O473 O 0.60431 0.55128 0.5839 0.0
O474 O 0.55391 0.52443 0.6056 0.0
O475 O 0.59588 0.56644 0.61386 0.0
C476 C 0.59046 0.54545 0.48652 0.0
C477 C 0.56838 0.4803 0.42645 0.0
C478 C 0.55641 0.46274 0.36267 0.0
C479 C 0.5575 0.47626 0.39067 0.0
C480 C 0.56667 0.45363 0.37113 0.0
C481 C 0.57823 0.47086 0.43414 0.0
C482 C 0.57739 0.45764 0.40649 0.0
C483 C 0.54359 0.51671 0.51928 0.0
C484 C 0.57005 0.49513 0.45407 0.0
C485 C 0.6046 0.46463 0.58354 0.0
C486 C 0.58608 0.45437 0.59739 0.0
C487 C 0.55992 0.51281 0.60155 0.0
C488 C 0.58466 0.57929 0.66178 0.0
C489 C 0.59344 0.58404 0.69947 0.0
C490 C 0.59505 0.59947 0.72071 0.0
C491 C 0.58836 0.61055 0.70336 0.0
C492 C 0.57768 0.5902 0.64491 0.0
C493 C 0.57968 0.60588 0.66549 0.0
C494 C 0.61091 0.53964 0.58877 0.0
C495 C 0.5832 0.56295 0.64127 0.0
H496 H 0.54984 0.48355 0.38488 0.0
H497 H 0.5666 0.4435 0.35011 0.0
H498 H 0.58674 0.47389 0.46121 0.0
H499 H 0.5852 0.45052 0.41234 0.0
H500 H 0.59861 0.57543 0.71281 0.0
H501 H 0.58909 0.62228 0.71983 0.0
H502 H 0.57061 0.58668 0.6163 0.0
H503 H 0.57414 0.61418 0.65246 0.0
Tb504 Tb 0.96801 0.54595 0.07382 0.0
C505 C 0.88638 0.48652 0.05048 0.0
C506 C 0.88346 0.45869 0.08214 0.0
C507 C 0.85663 0.46338 0.07973 0.0
C508 C 0.89437 0.47605 0.06242 0.0
C509 C 0.86733 0.48017 0.0583 0.0
C510 C 0.86468 0.45263 0.09154 0.0
C511 C 0.87046 0.50659 1.02006 0.0
N512 N 0.89714 0.50261 1.02963 0.0
C513 C 0.88928 0.51224 1.01278 0.0
C514 C 0.8595 0.49063 0.04339 0.0
Tb515 Tb 0.92792 0.51105 1.02072 0.0
N516 N 0.91252 0.48236 0.05259 0.0
C517 C 0.92016 0.47119 0.05935 0.0
C518 C 0.89157 0.44767 0.09061 0.0
C519 C 0.90992 0.45384 0.07853 0.0
H520 H 0.8978 0.52466 0.99499 0.0
H521 H 0.91629 0.4453 0.08421 0.0
H522 H 0.85615 0.43944 0.10705 0.0
H523 H 0.86441 0.51455 1.0077 0.0
H524 H 0.9343 0.47561 0.05105 0.0
H525 H 0.95981 0.60203 1.01052 0.0
H526 H 0.88366 0.43423 0.10551 0.0
H527 H 0.00499 0.54152 0.08807 0.0
H528 H 0.94877 0.57022 0.03587 0.0
H529 H 0.03934 0.5606 0.0795 0.0
H530 H 0.842 0.45834 0.08639 0.0
H531 H 0.99377 0.62432 1.00392 0.0
H532 H 0.0269 0.63079 1.0117 0.0
H533 H 0.84491 0.48626 0.04884 0.0
H534 H 0.04854 0.61943 1.02964 0.0
N535 N 0.97621 0.57405 0.04344 0.0
C536 C 0.96365 0.57966 0.03332 0.0
C537 C 0.98901 0.61029 1.01503 0.0
C538 C 0.00181 0.60453 1.02554 0.0
C539 C 0.96984 0.59775 1.01872 0.0
C540 C 0.99485 0.58612 0.03976 0.0
H541 H 0.05332 0.59308 0.05378 0.0
N542 N -0.00047 0.56185 0.06228 0.0
C543 C 0.03041 0.56608 0.07022 0.0
C544 C 0.00697 0.57976 0.04947 0.0
C545 C 0.01095 0.55509 0.07394 0.0
C546 C 0.03824 0.58444 0.05601 0.0
C547 C 0.02649 0.59156 0.04576 0.0
O548 O 0.98142 0.54714 0.12893 0.0
O549 O 0.94261 0.51916 0.07839 0.0
O550 O 0.91672 0.52313 0.06745 0.0
O551 O 0.94392 0.54934 0.09078 0.0
O552 O 0.96624 0.52147 0.10402 0.0
O553 O 0.96633 0.56223 0.12041 0.0
O554 O 0.91778 0.50863 0.96098 0.0
O555 O 0.95446 0.5364 1.01632 0.0
O556 O 0.97848 0.53331 1.03008 0.0
O557 O 0.95115 0.5048 1.01916 0.0
O558 O 0.93484 0.53493 0.97932 0.0
O559 O 0.92813 0.4907 0.98226 0.0
C560 C 0.94852 0.51033 0.09973 0.0
C561 C 0.99184 0.57556 0.16496 0.0
C562 C -5e-05 0.59747 0.22062 0.0
C563 C 0.98643 0.58311 0.19642 0.0
C564 C 0.01899 0.60556 0.21038 0.0
C565 C 0.01092 0.58325 0.15597 0.0
C566 C 0.02439 0.59853 0.17788 0.0
C567 C 0.92541 0.53859 0.09045 0.0
C568 C 0.9771 0.55909 0.14423 0.0
C569 C 0.03358 0.61005 1.03237 0.0
C570 C 0.02126 0.61653 1.02222 0.0
C571 C 0.95266 0.54462 0.98583 0.0
C572 C 0.90824 0.48029 0.92434 0.0
C573 C 0.91482 0.47668 0.88773 0.0
C574 C 0.9025 0.4621 0.86163 0.0
C575 C 0.88353 0.45141 0.87243 0.0
C576 C 0.88923 0.46952 0.93427 0.0
C577 C 0.87695 0.4552 0.90828 0.0
C578 C 0.96973 0.51554 1.01793 0.0
C579 C 0.92147 0.49543 0.95141 0.0
H580 H 0.97168 0.57687 0.20392 0.0
H581 H 0.02979 0.61638 0.22907 0.0
H582 H 0.01558 0.57737 0.13299 0.0
H583 H 0.0391 0.60431 0.17092 0.0
H584 H 0.92951 0.48503 0.87982 0.0
H585 H 0.87373 0.44025 0.85279 0.0
H586 H 0.8839 0.47218 0.96201 0.0
H587 H 0.86226 0.44696 0.91599 0.0
Tb588 Tb 0.44508 0.41512 0.07278 0.0
C589 C 0.50803 0.39813 0.05541 0.0
C590 C 0.53347 0.42215 0.09501 0.0
C591 C 0.5309 0.39166 0.08698 0.0
C592 C 0.51715 0.41598 0.07123 0.0
C593 C 0.515 0.38586 0.0623 0.0
C594 C 0.5401 0.40978 0.10336 0.0
C595 C 0.49097 0.3637 1.01726 0.0
N596 N 0.49267 0.39304 1.03193 0.0
C597 C 0.48462 0.37642 1.01126 0.0
C598 C 0.50606 0.36833 0.04332 0.0
Tb599 Tb 0.48346 0.41482 1.02339 0.0
N600 N 0.51034 0.42748 0.06224 0.0
C601 C 0.51976 0.44571 0.07524 0.0
C602 C 0.54281 0.44063 0.10908 0.0
C603 C 0.53598 0.4525 0.09883 0.0
H604 H 0.47295 0.37286 0.9911 0.0
H605 H 0.54302 0.46684 0.10958 0.0
H606 H 0.55252 0.41421 0.12179 0.0
H607 H 0.48425 0.35034 1.0017 0.0
H608 H 0.51447 0.45497 0.06961 0.0
H609 H 0.39576 0.351 0.99298 0.0
H610 H 0.55534 0.44589 0.12751 0.0
H611 H 0.44581 0.45611 0.08315 0.0
H612 H 0.42514 0.37179 1.02705 0.0
H613 H 0.42545 0.46882 0.06711 0.0
H614 H 0.53639 0.38238 0.09293 0.0
H615 H 0.37303 0.36142 0.97824 0.0
H616 H 0.36472 0.38665 0.98075 0.0
H617 H 0.51099 0.35849 0.0478 0.0
H618 H 0.373 0.4187 0.99959 0.0
N619 N 0.41927 0.39421 0.03518 0.0
C620 C 0.41535 0.3767 1.02285 0.0
C621 C 0.38595 0.37074 0.99397 0.0
C622 C 0.39019 0.3888 1.00499 0.0
C623 C 0.3987 0.36479 1.00243 0.0
C624 C 0.40725 0.40046 1.02531 0.0
H625 H 0.3956 0.44939 1.0309 0.0
N626 N 0.42879 0.42982 0.05343 0.0
C627 C 0.42159 0.45481 0.05733 0.0
C628 C 0.4121 0.41873 0.03494 0.0
C629 C 0.43329 0.44752 0.0658 0.0
C630 C 0.40477 0.44378 0.0371 0.0
C631 C 0.39976 0.4255 1.02589 0.0
O632 O 0.44772 0.4326 0.12181 0.0
O633 O 0.47476 0.42402 0.07637 0.0
O634 O 0.46978 0.38947 0.0656 0.0
O635 O 0.44123 0.38716 0.08461 0.0
O636 O 0.45883 0.4124 0.12693 0.0
O637 O 0.42258 0.40455 0.11345 0.0
O638 O 0.48668 0.40992 0.96181 0.0
O639 O 0.45791 0.41579 1.0163 0.0
O640 O 0.4616 0.44244 0.04286 0.0
O641 O 0.48963 0.44398 1.02443 0.0
O642 O 0.461 0.39866 0.97815 0.0
O643 O 0.50625 0.43584 0.99031 0.0
C644 C 0.47551 0.41981 0.11305 0.0
C645 C 0.42277 0.42294 0.17059 0.0
C646 C 0.4048 0.4104 0.23178 0.0
C647 C 0.41445 0.40854 0.19908 0.0
C648 C 0.40361 0.42675 0.2361 0.0
C649 C 0.42189 0.43939 0.17529 0.0
C650 C 0.41221 0.44121 0.20799 0.0
C651 C 0.4531 0.38062 0.08467 0.0
C652 C 0.43103 0.42012 0.13441 0.0
C653 C 0.38266 0.41377 1.00655 0.0
C654 C 0.37792 0.3955 0.99598 0.0
C655 C 0.45082 0.40626 0.98472 0.0
C656 C 0.51583 0.4283 0.92805 0.0
C657 C 0.51916 0.43871 0.89172 0.0
C658 C 0.53315 0.44064 0.86406 0.0
C659 C 0.54347 0.4317 0.87334 0.0
C660 C 0.52631 0.41957 0.93626 0.0
C661 C 0.54001 0.42125 0.90894 0.0
C662 C 0.47896 0.45171 1.02845 0.0
C663 C 0.50112 0.4265 0.95642 0.0
H664 H 0.41543 0.39595 0.1958 0.0
H665 H 0.39645 0.42848 0.26185 0.0
H666 H 0.42826 0.45059 0.15327 0.0
H667 H 0.41137 0.45383 0.21157 0.0
H668 H 0.51103 0.44546 0.88531 0.0
H669 H 0.55408 0.43257 0.85268 0.0
H670 H 0.52386 0.41143 0.96368 0.0
H671 H 0.54801 0.41438 0.91534 0.0
Tb672 Tb 0.5754 0.02746 0.07309 0.0
C673 C 0.59697 0.10867 0.05003 0.0
C674 C 0.57253 0.11177 0.08358 0.0
C675 C 0.60414 0.13837 0.08072 0.0
C676 C 0.57864 0.10083 0.06267 0.0
C677 C 0.60988 0.12763 0.05818 0.0
C678 C 0.58547 0.13045 0.09338 0.0
C679 C 0.6327 0.12427 1.01854 0.0
N680 N 0.60199 0.09781 1.02848 0.0
C681 C 0.61935 0.1055 1.01119 0.0
C682 C 0.62802 0.13531 0.0426 0.0
Tb683 Tb 0.57943 0.0671 1.0199 0.0
N684 N 0.56658 0.08277 0.05249 0.0
C685 C 0.54785 0.07534 0.05973 0.0
C686 C 0.55351 0.10381 0.09286 0.0
C687 C 0.54106 0.08561 0.08018 0.0
H688 H 0.62302 0.0969 0.99293 0.0
H689 H 0.52624 0.07938 0.08642 0.0
H690 H 0.58109 0.139 0.10982 0.0
H691 H 0.64659 0.1302 1.00572 0.0
H692 H 0.538 0.06133 0.05093 0.0
H693 H 0.63897 0.03593 1.00411 0.0
H694 H 0.54823 0.11174 0.10879 0.0
H695 H 0.53453 0.9903 0.08886 0.0
H696 H 0.61864 0.04681 1.03227 0.0
H697 H 0.51936 0.95598 0.07977 0.0
H698 H 0.6139 0.15292 0.08769 0.0
H699 H 0.6273 0.00204 0.99594 0.0
H700 H 0.60085 0.96892 1.00358 0.0
H701 H 0.63838 0.14983 0.0482 0.0
H702 H 0.56822 0.94714 1.02357 0.0
N703 N 0.59524 0.01933 0.04131 0.0
C704 C 0.61319 0.03194 1.02984 0.0
C705 C 0.61822 0.00672 1.00873 0.0
C706 C 0.5999 0.99387 1.02036 0.0
C707 C 0.62485 0.02584 1.01333 0.0
C708 C 0.58868 0.00073 0.03673 0.0
H709 H 0.53758 0.94217 0.0513 0.0
N710 N 0.56011 0.9959 0.06185 0.0
C711 C 0.53365 0.96497 0.06988 0.0
C712 C 0.57042 0.98854 0.04754 0.0
C713 C 0.54206 0.98441 0.07402 0.0
C714 C 0.54402 0.95724 0.05416 0.0
C715 C 0.56269 0.96906 0.04289 0.0
O716 O 0.5632 0.01538 0.1289 0.0
O717 O 0.57373 0.05274 0.07755 0.0
O718 O 0.60254 0.07849 0.06701 0.0
O719 O 0.60334 0.05174 0.08675 0.0
O720 O 0.55278 0.02909 0.10392 0.0
O721 O 0.59321 0.02864 0.11999 0.0
O722 O 0.58664 0.07696 0.96001 0.0
O723 O 0.57842 0.0406 1.01556 0.0
O724 O 0.55151 0.01667 1.03131 0.0
O725 O 0.55 0.0438 1.01961 0.0
O726 O 0.59604 0.06003 0.97747 0.0
O727 O 0.55861 0.067 0.98248 0.0
C728 C 0.55909 0.04672 0.09916 0.0
C729 C 0.57953 0.00351 0.16603 0.0
C730 C 0.59333 0.99443 0.21999 0.0
C731 C 0.59374 0.00818 0.19445 0.0
C732 C 0.57952 0.97558 0.21423 0.0
C733 C 0.5652 0.98477 0.1622 0.0
C734 C 0.56555 0.97082 0.18526 0.0
C735 C 0.6104 0.07015 0.08753 0.0
C736 C 0.57916 0.01881 0.14426 0.0
C737 C 0.57385 0.96207 1.02724 0.0
C738 C 0.59242 0.97446 1.01591 0.0
C739 C 0.58824 0.04232 0.98481 0.0
C740 C 0.56796 0.08706 0.92494 0.0
C741 C 0.55779 0.08087 0.88816 0.0
C742 C 0.55599 0.09355 0.86223 0.0
C743 C 0.56475 0.11252 0.87377 0.0
C744 C 0.57649 0.10601 0.93557 0.0
C745 C 0.5749 0.11865 0.91 0.0
C746 C 0.54226 0.02522 1.01938 0.0
C747 C 0.56974 0.07354 0.95124 0.0
H748 H 0.60427 0.02277 0.19901 0.0
H749 H 0.57857 0.96474 0.23427 0.0
H750 H 0.55337 0.98086 0.14281 0.0
H751 H 0.5544 0.95643 0.18227 0.0
H752 H 0.55117 0.06618 0.87998 0.0
H753 H 0.56402 0.12275 0.8544 0.0
H754 H 0.58443 0.11103 0.96347 0.0
H755 H 0.58165 0.13332 0.9182 0.0
Tb756 Tb 0.54492 0.9656 0.65623 0.0
C757 C 0.48684 0.88361 0.67264 0.0
C758 C 0.45865 0.87967 0.64068 0.0
C759 C 0.46591 0.85454 0.63763 0.0
C760 C 0.47542 0.89072 0.66246 0.0
C761 C 0.48198 0.86523 0.66147 0.0
C762 C 0.45428 0.86179 0.62716 0.0
C763 C 0.50832 0.86892 0.70113 0.0
N764 N 0.50233 0.89449 0.69527 0.0
C765 C 0.5126 0.88715 0.71128 0.0
C766 C 0.49314 0.85803 0.67553 0.0
Tb767 Tb 0.5093 0.92479 0.70622 0.0
N768 N 0.48009 0.90795 0.67656 0.0
C769 C 0.46714 0.9137 0.6747 0.0
C770 C 0.44643 0.88662 0.63473 0.0
C771 C 0.45047 0.9035 0.65288 0.0
H772 H 0.52456 0.8957 0.73038 0.0
H773 H 0.44054 0.90845 0.651 0.0
H774 H 0.44161 0.8532 0.6099 0.0
H775 H 0.51679 0.86332 0.71282 0.0
H776 H 0.46894 0.92554 0.69167 0.0
H777 H 0.60224 0.96187 0.72804 0.0
H778 H 0.43341 0.8786 0.61823 0.0
H779 H 0.53893 0.00106 0.63627 0.0
H780 H 0.571 0.94895 0.69846 0.0
H781 H 0.55568 0.03538 0.64633 0.0
H782 H 0.46208 0.84048 0.62816 0.0
H783 H 0.6221 0.99602 0.73831 0.0
H784 H 0.62601 0.02818 0.73201 0.0
H785 H 0.48989 0.84396 0.66766 0.0
H786 H 0.61303 0.04815 0.71146 0.0
N787 N 0.57257 0.9755 0.69118 0.0
C788 C 0.57929 0.96391 0.70216 0.0
C789 C 0.60823 0.99043 0.7253 0.0
C790 C 0.60132 0.00223 0.7144 0.0
C791 C 0.59709 0.97117 0.71944 0.0
C792 C 0.58321 0.99421 0.69747 0.0
H793 H 0.58657 0.05093 0.68049 0.0
N794 N 0.55874 0.997 0.66909 0.0
C795 C 0.56142 0.0271 0.65845 0.0
C796 C 0.57592 0.00535 0.68649 0.0
C797 C 0.55172 0.00763 0.65365 0.0
C798 C 0.57887 0.03582 0.6776 0.0
C799 C 0.5865 0.02497 0.69127 0.0
O800 O 0.54687 0.97843 0.59999 0.0
O801 O 0.51846 0.93971 0.64871 0.0
O802 O 0.522 0.91477 0.65798 0.0
O803 O 0.54999 0.94201 0.64513 0.0
O804 O 0.52167 0.96338 0.62086 0.0
O805 O 0.56292 0.96474 0.61263 0.0
O806 O 0.5078 0.91464 0.76543 0.0
O807 O 0.53391 0.95202 0.71273 0.0
O808 O 0.52918 0.97444 0.69542 0.0
O809 O 0.50095 0.94642 0.70149 0.0
O810 O 0.53307 0.93238 0.74902 0.0
O811 O 0.48966 0.92518 0.74698 0.0
C812 C 0.51042 0.94566 0.62467 0.0
C813 C 0.57577 0.98968 0.56659 0.0
C814 C 0.59628 -0.00029 0.50837 0.0
C815 C 0.58109 0.98565 0.5296 0.0
C816 C 0.60666 0.01771 0.52513 0.0
C817 C 0.5858 0.00788 0.58247 0.0
C818 C 0.60137 0.02175 0.56216 0.0
C819 C 0.53877 0.92375 0.63982 0.0
C820 C 0.55948 0.97462 0.58683 0.0
C821 C 0.60458 0.0331 0.70792 0.0
C822 C 0.61199 0.02174 0.71947 0.0
C823 C 0.54213 0.95024 0.74317 0.0
C824 C 0.48051 0.90543 0.80556 0.0
C825 C 0.47577 0.91254 0.83998 0.0
C826 C 0.46317 0.90032 0.86971 0.0
C827 C 0.4557 0.8809 0.86412 0.0
C828 C 0.47253 0.88605 0.80079 0.0
C829 C 0.46025 0.8739 0.82999 0.0
C830 C 0.51081 0.96505 0.70202 0.0
C831 C 0.49489 0.91846 0.7768 0.0
H832 H 0.57301 0.97173 0.51655 0.0
H833 H 0.61818 0.02886 0.50861 0.0
H834 H 0.5816 0.0116 0.60988 0.0
H835 H 0.60898 0.03578 0.57455 0.0
H836 H 0.48193 0.92755 0.84349 0.0
H837 H 0.44651 0.87098 0.88651 0.0
H838 H 0.47607 0.88033 0.77488 0.0
H839 H 0.45437 0.85894 0.82644 0.0
Tb840 Tb 0.02936 0.57574 0.65717 0.0
C841 C 0.11079 0.60083 0.67083 0.0
C842 C 0.11374 0.57592 0.63949 0.0
C843 C 0.13854 0.6082 0.63141 0.0
C844 C 0.10336 0.58214 0.66217 0.0
C845 C 0.12877 0.61405 0.65695 0.0
C846 C 0.13099 0.58911 0.62258 0.0
C847 C 0.12676 0.6373 0.69805 0.0
N848 N 0.10079 0.60584 0.69535 0.0
C849 C 0.10886 0.62363 0.71078 0.0
C850 C 0.13661 0.63258 0.67037 0.0
Tb851 Tb 0.07054 0.58293 0.70919 0.0
N852 N 0.08696 0.56995 0.68012 0.0
C853 C 0.08183 0.5514 0.68186 0.0
C854 C 0.10708 0.55667 0.63681 0.0
C855 C 0.09141 0.54441 0.65939 0.0
H856 H 0.10104 0.62741 0.73127 0.0
H857 H 0.08687 0.52962 0.66011 0.0
H858 H 0.13901 0.58464 0.60441 0.0
H859 H 0.13289 0.6515 0.70927 0.0
H860 H 0.07084 0.54189 0.70155 0.0
H861 H 0.03114 0.6366 0.72565 0.0
H862 H 0.11461 0.55128 0.61978 0.0
H863 H 0.99467 0.53357 0.63895 0.0
H864 H 0.04488 0.61893 0.69696 0.0
H865 H 0.96035 0.5154 0.64889 0.0
H866 H 0.15224 0.61818 0.6197 0.0
H867 H 0.99697 0.62138 0.7366 0.0
H868 H 0.96529 0.59248 0.73143 0.0
H869 H 0.15042 0.64319 0.66049 0.0
H870 H 0.94608 0.55932 0.71198 0.0
N871 N 0.01877 0.59332 0.69055 0.0
C872 C 0.0299 0.61183 0.70073 0.0
C873 C 0.00292 0.61339 0.72386 0.0
C874 C 0.99158 0.59452 0.71367 0.0
C875 C 0.02219 0.62203 0.7176 0.0
C876 C 5e-05 0.58477 0.69713 0.0
H877 H 0.94414 0.53032 0.68197 0.0
N878 N -0.00195 0.55758 0.6701 0.0
C879 C 0.96834 0.52957 0.66039 0.0
C880 C 0.98932 0.56617 0.68685 0.0
C881 C 0.98779 0.53971 0.65555 0.0
C882 C 0.95925 0.53806 0.67892 0.0
C883 C 0.9697 0.55669 0.69187 0.0
O884 O 0.01623 0.564 0.60149 0.0
O885 O 0.05583 0.5764 0.65165 0.0
O886 O 0.0799 0.6054 0.66135 0.0
O887 O 0.05209 0.60456 0.64532 0.0
O888 O 0.03341 0.55528 0.62264 0.0
O889 O 0.02999 0.59389 0.61224 0.0
O890 O 0.08225 0.59314 0.76687 0.0
O891 O 0.04294 0.57952 0.71444 0.0
O892 O 0.02098 0.55183 0.69767 0.0
O893 O 0.04949 0.55274 0.70595 0.0
O894 O 0.06231 0.59924 0.74984 0.0
O895 O 0.06948 0.5637 0.75261 0.0
C896 C 0.05115 0.56247 0.62823 0.0
C897 C 0.00472 0.58136 0.56725 0.0
C898 C 0.99496 0.59308 0.51066 0.0
C899 C 0.00897 0.59172 0.53162 0.0
C900 C 0.97675 0.58472 0.52652 0.0
C901 C 0.98635 0.57248 0.58225 0.0
C902 C 0.97249 0.57443 0.56231 0.0
C903 C 0.0705 0.61235 0.64186 0.0
C904 C 0.01989 0.58023 0.58735 0.0
C905 C 0.96114 0.56629 0.70818 0.0
C906 C 0.97207 0.58518 0.71911 0.0
C907 C 0.04444 0.58986 0.74402 0.0
C908 C 0.09059 0.57468 0.80822 0.0
C909 C 0.0834 0.56314 0.84282 0.0
C910 C 0.09548 0.56132 0.87046 0.0
C911 C 0.1149 0.57153 0.86301 0.0
C912 C 0.10994 0.58453 0.8014 0.0
C913 C 0.12201 0.58299 0.82885 0.0
C914 C 0.03085 0.54355 0.7063 0.0
C915 C 0.07758 0.57649 0.78045 0.0
H916 H 0.02306 0.59815 0.51929 0.0
H917 H 0.96563 0.58525 0.5101 0.0
H918 H 0.98251 0.56386 0.60869 0.0
H919 H 0.95832 0.56749 0.57395 0.0
H920 H 0.06839 0.55542 0.84785 0.0
H921 H 0.12468 0.57079 0.88386 0.0
H922 H 0.1157 0.59348 0.77508 0.0
H923 H 0.13698 0.59075 0.82367 0.0
Tb924 Tb 0.41543 0.44623 0.6548 0.0
C925 C 0.39948 0.51028 0.67432 0.0
C926 C 0.42353 0.53603 0.63564 0.0
C927 C 0.39351 0.53418 0.64671 0.0
C928 C 0.41722 0.51933 0.65797 0.0
C929 C 0.3875 0.51775 0.66953 0.0
C930 C 0.41149 0.54329 0.62973 0.0
C931 C 0.36517 0.49306 0.71288 0.0
N932 N 0.39419 0.49445 0.69616 0.0
C933 C 0.37763 0.48626 0.71697 0.0
C934 C 0.37004 0.50875 0.68871 0.0
Tb935 Tb 0.41597 0.48516 0.70344 0.0
N936 N 0.42844 0.51194 0.66463 0.0
C937 C 0.4464 0.52093 0.65004 0.0
C938 C 0.44177 0.54505 0.62029 0.0
C939 C 0.45327 0.53745 0.62761 0.0
H940 H 0.37395 0.47423 0.73597 0.0
H941 H 0.46737 0.54417 0.6156 0.0
H942 H 0.41605 0.55605 0.61257 0.0
H943 H 0.35188 0.48627 0.72859 0.0
H944 H 0.45534 0.51508 0.65356 0.0
H945 H 0.35082 0.39735 0.73337 0.0
H946 H 0.44711 0.55784 0.60285 0.0
H947 H 0.45596 0.44613 0.64495 0.0
H948 H 0.37247 0.42718 0.70215 0.0
H949 H 0.46777 0.42479 0.65826 0.0
H950 H 0.38448 0.5401 0.64252 0.0
H951 H 0.35989 0.37328 0.74364 0.0
H952 H 0.38419 0.36374 0.73808 0.0
H953 H 0.36042 0.51406 0.68582 0.0
H954 H 0.41604 0.3714 0.71904 0.0
N955 N 0.39406 0.42033 0.69141 0.0
C956 C 0.37683 0.41688 0.70462 0.0
C957 C 0.36961 0.38643 0.72928 0.0
C958 C 0.38745 0.39022 0.71768 0.0
C959 C 0.36442 0.39994 0.72335 0.0
C960 C 0.39963 0.40759 0.6992 0.0
H961 H 0.4473 0.39416 0.69041 0.0
N962 N 0.42934 0.42904 0.6729 0.0
C963 C 0.45376 0.42108 0.66779 0.0
C964 C 0.41775 0.41203 0.68944 0.0
C965 C 0.44705 0.43338 0.66108 0.0
C966 C 0.44215 0.40381 0.68568 0.0
C967 C 0.4239 0.39904 0.69655 0.0
O968 O 0.43318 0.44914 0.60626 0.0
O969 O 0.42466 0.47594 0.65057 0.0
O970 O 0.39077 0.47195 0.66145 0.0
O971 O 0.38757 0.44284 0.64398 0.0
O972 O 0.41269 0.45982 0.60039 0.0
O973 O 0.40491 0.42413 0.61291 0.0
O974 O 0.41202 0.48835 0.76537 0.0
O975 O 0.41655 0.4594 0.71124 0.0
O976 O 0.44255 0.46211 0.68638 0.0
O977 O 0.44493 0.49091 0.70058 0.0
O978 O 0.39952 0.46298 0.74873 0.0
O979 O 0.43703 0.50862 0.73511 0.0
C980 C 0.42029 0.47659 0.61393 0.0
C981 C 0.42374 0.42463 0.5563 0.0
C982 C 0.41128 0.40608 0.49557 0.0
C983 C 0.40922 0.41574 0.52808 0.0
C984 C 0.42792 0.40546 0.4912 0.0
C985 C 0.44048 0.42431 0.55144 0.0
C986 C 0.4425 0.41462 0.51897 0.0
C987 C 0.38152 0.4551 0.64335 0.0
C988 C 0.42068 0.43261 0.5927 0.0
C989 C 0.41161 0.38159 0.71372 0.0
C990 C 0.39346 0.37721 0.7244 0.0
C991 C 0.40681 0.45249 0.74259 0.0
C992 C 0.42881 0.5181 0.79654 0.0
C993 C 0.43945 0.5226 0.83265 0.0
C994 C 0.43912 0.53527 0.86112 0.0
C995 C 0.4281 0.54349 0.85231 0.0
C996 C 0.41803 0.52654 0.78853 0.0
C997 C 0.41774 0.5392 0.8163 0.0
C998 C 0.45235 0.4799 0.69816 0.0
C999 C 0.42815 0.50352 0.76948 0.0
H1000 H 0.39638 0.41625 0.53148 0.0
H1001 H 0.42982 0.3983 0.46563 0.0
H1002 H 0.45177 0.4311 0.57323 0.0
H1003 H 0.45533 0.41421 0.51533 0.0
H1004 H 0.44752 0.51578 0.83909 0.0
H1005 H 0.42762 0.55342 0.8731 0.0
H1006 H 0.40967 0.52315 0.76117 0.0
H1007 H 0.40933 0.54564 0.81003 0.0
Tb1008 Tb 0.73232 0.81813 0.54003 0.0
C1009 C 0.65574 0.74755 0.51872 0.0
C1010 C 0.66101 0.72381 0.54922 0.0
C1011 C 0.62932 0.71838 0.54289 0.0
C1012 C 0.668 0.74146 0.53046 0.0
C1013 C 0.63626 0.73608 0.52513 0.0
C1014 C 0.64165 0.71226 0.55487 0.0
C1015 C 0.63158 0.75988 0.49392 0.0
N1016 N 0.66282 0.76464 0.50106 0.0
C1017 C 0.65084 0.77046 0.48698 0.0
C1018 C 0.62424 0.74258 0.51305 0.0
Tb1019 Tb 0.69443 0.77952 0.48725 0.0
N1020 N 0.6867 0.75289 0.52426 0.0
C1021 C 0.69911 0.74762 0.53811 0.0
C1022 C 0.67366 0.71827 0.56213 0.0
C1023 C 0.69278 0.73034 0.55702 0.0
H1024 H 0.65609 0.78312 0.4693 0.0
H1025 H 0.70272 0.72635 0.56777 0.0
H1026 H 0.63608 0.6986 0.56879 0.0
H1027 H 0.62237 0.7648 0.48319 0.0
H1028 H 0.71404 0.75667 0.53605 0.0
H1029 H 0.73868 0.8781 0.45821 0.0
H1030 H 0.66883 0.70485 0.57668 0.0
H1031 H 0.76374 0.80711 0.56972 0.0
H1032 H 0.72204 0.84819 0.49359 0.0
H1033 H 0.79798 0.81989 0.56234 0.0
H1034 H 0.61442 0.70932 0.54756 0.0
H1035 H 0.77273 0.89269 0.44598 0.0
H1036 H 0.80237 0.89139 0.45444 0.0
H1037 H 0.60924 0.73418 0.51754 0.0
H1038 H 0.81844 0.87536 0.48189 0.0
N1039 N 0.7462 0.84571 0.50414 0.0
C1040 C 0.7369 0.85455 0.49059 0.0
C1041 C 0.76548 0.87961 0.46251 0.0
C1042 C 0.77502 0.87069 0.47675 0.0
C1043 C 0.74631 0.8715 0.46955 0.0
C1044 C 0.76486 0.85358 0.49778 0.0
H1045 H 0.81692 0.8487 0.52226 0.0
N1046 N 0.76346 0.82808 0.53283 0.0
C1047 C 0.79131 0.82684 0.5479 0.0
C1048 C 0.77381 0.84445 0.51263 0.0
C1049 C 0.77199 0.81962 0.55199 0.0
C1050 C 0.80197 0.84312 0.52527 0.0
C1051 C 0.79329 0.85229 0.50771 0.0
O1052 O 0.73936 0.82009 0.60192 0.0
O1053 O 0.70624 0.7919 0.54467 0.0
O1054 O 0.68303 0.79593 0.51579 0.0
O1055 O 0.70879 0.82342 0.54003 0.0
O1056 O 0.72626 0.79511 0.58334 0.0
O1057 O 0.73403 0.84061 0.57469 0.0
O1058 O 0.68034 0.7787 0.43351 0.0
O1059 O 0.71489 0.80941 0.48635 0.0
O1060 O 0.74481 0.8065 0.49512 0.0
O1061 O 0.71955 0.77658 0.48351 0.0
O1062 O 0.70973 0.79519 0.4336 0.0
O1063 O 0.6901 0.75877 0.4451 0.0
C1064 C 0.70858 0.78462 0.57607 0.0
C1065 C 0.75181 0.84913 0.6363 0.0
C1066 C 0.75901 0.86633 0.70127 0.0
C1067 C 0.74582 0.85388 0.67252 0.0
C1068 C 0.77819 0.87358 0.69286 0.0
C1069 C 0.77098 0.85694 0.62881 0.0
C1070 C 0.78405 0.86903 0.65701 0.0
C1071 C 0.69058 0.81272 0.53332 0.0
C1072 C 0.73795 0.83493 0.60822 0.0
C1073 C 0.80347 0.86917 0.48624 0.0
C1074 C 0.79434 0.87833 0.4707 0.0
C1075 C 0.71967 0.81133 0.44928 0.0
C1076 C 0.66625 0.75017 0.39586 0.0
C1077 C 0.67079 0.74531 0.35878 0.0
C1078 C 0.65669 0.73223 0.33342 0.0
C1079 C 0.63787 0.72404 0.34546 0.0
C1080 C 0.64747 0.74159 0.40795 0.0
C1081 C 0.63333 0.72869 0.38269 0.0
C1082 C 0.73739 0.78945 0.47815 0.0
C1083 C 0.6817 0.76449 0.41987 0.0
H1084 H 0.73096 0.84786 0.67817 0.0
H1085 H 0.78884 0.88262 0.71434 0.0
H1086 H 0.77585 0.85339 0.60155 0.0
H1087 H 0.79886 0.87476 0.65131 0.0
H1088 H 0.68535 0.75188 0.34949 0.0
H1089 H 0.62666 0.71439 0.32573 0.0
H1090 H 0.64354 0.74458 0.43655 0.0
H1091 H 0.61882 0.72239 0.39188 0.0
Tb1092 Tb 0.17956 0.92015 0.54223 0.0
C1093 C 0.25045 0.91475 0.52928 0.0
C1094 C 0.2746 0.94436 0.55654 0.0
C1095 C 0.27924 0.9175 0.55649 0.0
C1096 C 0.2569 0.93349 0.53787 0.0
C1097 C 0.26165 0.90663 0.53832 0.0
C1098 C 0.28569 0.9363 0.56558 0.0
C1099 C 0.23803 0.87783 0.50809 0.0
N1100 N 0.23353 0.90458 0.511 0.0
C1101 C 0.22767 0.88654 0.49895 0.0
C1102 C 0.2551 0.88791 0.52801 0.0
Tb1103 Tb 0.21884 0.92102 0.49299 0.0
N1104 N 0.24594 0.94105 0.52828 0.0
C1105 C 0.25168 0.9592 0.53954 0.0
C1106 C 0.28073 0.96306 0.56581 0.0
C1107 C 0.26914 0.97043 0.55768 0.0
H1108 H 0.21522 0.87895 0.48086 0.0
H1109 H 0.27352 0.98474 0.56602 0.0
H1110 H 0.29932 0.94451 0.57965 0.0
H1111 H 0.23307 0.86353 0.49859 0.0
H1112 H 0.24296 0.96541 0.53624 0.0
H1113 H 0.1173 0.86471 0.46779 0.0
H1114 H 0.29422 0.97182 0.58007 0.0
H1115 H 0.18867 0.96206 0.57199 0.0
H1116 H 0.14446 0.87698 0.51172 0.0
H1117 H 0.17698 0.98402 0.55771 0.0
H1118 H 0.28802 0.91152 0.5634 0.0
H1119 H 0.10628 0.88557 0.44138 0.0
H1120 H 0.10946 0.91745 0.44088 0.0
H1121 H 0.26333 0.88126 0.53437 0.0
H1122 H 0.12554 0.94996 0.46579 0.0
N1123 N 0.15142 0.90575 0.50697 0.0
C1124 C 0.14106 0.88689 0.49892 0.0
C1125 C 0.11881 0.89132 0.45993 0.0
C1126 C 0.12838 0.91022 0.47095 0.0
C1127 C 0.12503 0.87955 0.4746 0.0
C1128 C 0.14478 0.91706 0.49484 0.0
H1129 H 0.15053 0.97481 0.51007 0.0
N1130 N 0.16932 0.94107 0.53198 0.0
C1131 C 0.17049 0.97041 0.54326 0.0
C1132 C 0.15397 0.93533 0.50812 0.0
C1133 C 0.17702 0.95798 0.55142 0.0
C1134 C 0.15557 0.96518 0.5163 0.0
C1135 C 0.14688 0.94731 0.49889 0.0
O1136 O 0.17608 0.92522 0.60339 0.0
O1137 O 0.20598 0.92097 0.54862 0.0
O1138 O 0.20445 0.89596 0.53124 0.0
O1139 O 0.17488 0.89195 0.53203 0.0
O1140 O 0.20182 0.93602 0.58871 0.0
O1141 O 0.15892 0.89802 0.57748 0.0
O1142 O 0.21649 0.90433 0.44263 0.0
O1143 O 0.18885 0.91194 0.48821 0.0
O1144 O 0.19261 0.94513 0.49944 0.0
O1145 O 0.22227 0.94899 0.48751 0.0
O1146 O 0.20455 0.92284 0.4384 0.0
O1147 O 0.23964 0.93343 0.44919 0.0
C1148 C 0.21325 0.93004 0.58063 0.0
C1149 C 0.14745 0.90528 0.63702 0.0
C1150 C 0.12895 0.8918 0.69913 0.0
C1151 C 0.14332 0.89406 0.67225 0.0
C1152 C 0.1191 0.90126 0.69014 0.0
C1153 C 0.13724 0.91431 0.62883 0.0
C1154 C 0.12319 0.91234 0.65538 0.0
C1155 C 0.18618 0.88491 0.53306 0.0
C1156 C 0.163 0.90806 0.61027 0.0
C1157 C 0.13105 0.94088 0.4737 0.0
C1158 C 0.12187 0.92238 0.45958 0.0
C1159 C 0.18778 0.91586 0.45121 0.0
C1160 C 0.24358 0.91462 0.40041 0.0
C1161 C 0.252 0.92717 0.36858 0.0
C1162 C 0.26224 0.92393 0.33947 0.0
C1163 C 0.26488 0.90845 0.34309 0.0
C1164 C 0.2455 0.89866 0.40313 0.0
C1165 C 0.25653 0.89586 0.375 0.0
C1166 C 0.20975 0.95448 0.48272 0.0
C1167 C 0.23157 0.91827 0.42664 0.0
H1168 H 0.15119 0.88701 0.67846 0.0
H1169 H 0.10828 0.90031 0.7103 0.0
H1170 H 0.14029 0.92305 0.60218 0.0
H1171 H 0.11548 0.91952 0.64914 0.0
H1172 H 0.24961 0.93892 0.36494 0.0
H1173 H 0.27237 0.90548 0.31992 0.0
H1174 H 0.2382 0.8881 0.42569 0.0
H1175 H 0.25795 0.88351 0.37692 0.0
Tb1176 Tb 0.07457 0.2564 0.54285 0.0
C1177 C 0.08549 0.33487 0.52372 0.0
C1178 C 0.05894 0.33338 0.55901 0.0
C1179 C 0.0872 0.36342 0.54929 0.0
C1180 C 0.0673 0.3244 0.53842 0.0
C1181 C 0.09547 0.35455 0.52846 0.0
C1182 C 0.06899 0.35288 0.56445 0.0
C1183 C 0.11977 0.35574 0.48554 0.0
N1184 N 0.09275 0.32605 0.50172 0.0
C1185 C 0.10917 0.33635 0.48069 0.0
C1186 C 0.113 0.36487 0.50993 0.0
Tb1187 Tb 0.07298 0.29462 0.49211 0.0
N1188 N 0.05764 0.30559 0.53161 0.0
C1189 C 0.03971 0.29498 0.54578 0.0
C1190 C 0.04056 0.32258 0.57297 0.0
C1191 C 0.03098 0.3033 0.56658 0.0
H1192 H 0.11428 0.32943 0.46081 0.0
H1193 H 0.01677 0.29481 0.57747 0.0
H1194 H 0.06269 0.35999 0.57984 0.0
H1195 H 0.133 0.36367 0.46988 0.0
H1196 H 0.03182 0.28004 0.5417 0.0
H1197 H 0.12954 0.24751 0.47326 0.0
H1198 H 0.03363 0.32899 0.58868 0.0
H1199 H 0.03215 0.22437 0.5718 0.0
H1200 H 0.1174 0.26274 0.51716 0.0
H1201 H 0.00949 0.19102 0.55642 0.0
H1202 H 0.0946 0.3785 0.5529 0.0
H1203 H 0.10811 0.21627 0.44436 0.0
H1204 H 0.07565 0.18835 0.44143 0.0
H1205 H 0.12105 0.37998 0.51285 0.0
H1206 H 0.04291 0.17268 0.46487 0.0
N1207 N 0.08856 0.24196 0.50919 0.0
C1208 C 0.10747 0.24984 0.50284 0.0
C1209 C 0.10251 0.22326 0.4627 0.0
C1210 C 0.08347 0.21445 0.47239 0.0
C1211 C 0.11462 0.2409 0.47876 0.0
C1212 C 0.0769 0.22426 0.49613 0.0
H1213 H 0.01822 0.17343 0.50868 0.0
N1214 N 0.05311 0.22544 0.53262 0.0
C1215 C 0.02321 0.19784 0.54253 0.0
C1216 C 0.05856 0.21558 0.50877 0.0
C1217 C 0.03604 0.21662 0.55135 0.0
C1218 C 0.02817 0.18795 0.5155 0.0
C1219 C 0.04616 0.19671 0.49876 0.0
O1220 O 0.06923 0.24837 0.6041 0.0
O1221 O 0.0741 0.28238 0.54868 0.0
O1222 O 0.09992 0.30634 0.52306 0.0
O1223 O 0.10284 0.27989 0.53135 0.0
O1224 O 0.05849 0.26274 0.58849 0.0
O1225 O 0.09649 0.25771 0.57898 0.0
O1226 O 0.08196 0.30571 0.43422 0.0
O1227 O 0.0813 0.27338 0.48923 0.0
O1228 O 0.05059 0.24466 0.49802 0.0
O1229 O 0.0452 0.26954 0.49566 0.0
O1230 O 0.07642 0.28193 0.43649 0.0
O1231 O 0.05421 0.29882 0.45676 0.0
C1232 C 0.06522 0.28034 0.58115 0.0
C1233 C 0.08834 0.23899 0.63888 0.0
C1234 C 0.10074 0.23355 0.70241 0.0
C1235 C 0.09991 0.24593 0.67373 0.0
C1236 C 0.08954 0.21413 0.69525 0.0
C1237 C 0.07775 0.21964 0.63244 0.0
C1238 C 0.07834 0.20732 0.66057 0.0
C1239 C 0.11008 0.29832 0.53009 0.0
C1240 C 0.08626 0.25203 0.61152 0.0
C1241 C 0.05231 0.18712 0.47344 0.0
C1242 C 0.07094 0.19602 0.46011 0.0
C1243 C 0.08053 0.27018 0.45138 0.0
C1244 C 0.06813 0.32181 0.40491 0.0
C1245 C 0.06377 0.31961 0.36372 0.0
C1246 C 0.06583 0.33481 0.34107 0.0
C1247 C 0.07287 0.35246 0.35915 0.0
C1248 C 0.07483 0.33941 0.42309 0.0
C1249 C 0.07746 0.35475 0.40016 0.0
C1250 C 0.0408 0.25244 0.48426 0.0
C1251 C 0.06629 0.30558 0.42677 0.0
H1252 H 0.10815 0.26092 0.67841 0.0
H1253 H 0.08913 0.20404 0.71681 0.0
H1254 H 0.06871 0.21406 0.60613 0.0
H1255 H 0.06986 0.19237 0.65578 0.0
H1256 H 0.05873 0.30608 0.34925 0.0
H1257 H 0.07495 0.36442 0.34143 0.0
H1258 H 0.07791 0.34146 0.45464 0.0
H1259 H 0.08296 0.36836 0.41426 0.0
Tb1260 Tb 0.15077 0.39999 0.85374 0.0
C1261 C 0.08028 0.32156 0.87976 0.0
C1262 C 0.05607 0.32647 0.85115 0.0
C1263 C 0.05037 0.29479 0.86075 0.0
C1264 C 0.07416 0.33357 0.86763 0.0
C1265 C 0.06855 0.30202 0.87641 0.0
C1266 C 0.04415 0.307 0.84806 0.0
C1267 C 0.09355 0.29836 0.90493 0.0
N1268 N 0.09793 0.32914 0.89434 0.0
C1269 C 0.10452 0.31785 0.90793 0.0
C1270 C 0.07544 0.29039 0.88908 0.0
Tb1271 Tb 0.11386 0.36077 0.90452 0.0
N1272 N 0.08617 0.35224 0.87113 0.0
C1273 C 0.08077 0.36466 0.8585 0.0
C1274 C 0.05055 0.33913 0.83817 0.0
C1275 C 0.06301 0.35832 0.84167 0.0
H1276 H 0.1179 0.32395 0.92306 0.0
H1277 H 0.05893 0.36826 0.83153 0.0
H1278 H 0.03014 0.30126 0.83575 0.0
H1279 H 0.09886 0.28953 0.91593 0.0
H1280 H 0.09011 0.37957 0.86052 0.0
H1281 H 0.21316 0.40857 0.92955 0.0
H1282 H 0.03678 0.33426 0.82525 0.0
H1283 H 0.13833 0.43055 0.8254 0.0
H1284 H 0.18309 0.39115 0.89491 0.0
H1285 H 0.15053 0.46469 0.83248 0.0
H1286 H 0.04107 0.27981 0.85816 0.0
H1287 H 0.22676 0.44243 0.94278 0.0
H1288 H 0.22444 0.47149 0.93512 0.0
H1289 H 0.06684 0.27529 0.88725 0.0
H1290 H 0.20742 0.48676 0.90896 0.0
N1291 N 0.17896 0.41454 0.88773 0.0
C1292 C 0.18867 0.40585 0.8995 0.0
C1293 C 0.21343 0.43479 0.9272 0.0
C1294 C 0.20382 0.44381 0.91407 0.0
C1295 C 0.20585 0.41572 0.91967 0.0
C1296 C 0.18643 0.43318 0.89412 0.0
H1297 H 0.17989 0.48435 0.87053 0.0
N1298 N 0.16028 0.43104 0.8602 0.0
C1299 C 0.15798 0.45837 0.84614 0.0
C1300 C 0.1768 0.44173 0.87978 0.0
C1301 C 0.15112 0.43911 0.84217 0.0
C1302 C 0.17457 0.46943 0.86766 0.0
C1303 C 0.18432 0.46119 0.88444 0.0
O1304 O 0.15373 0.40896 0.79307 0.0
O1305 O 0.12489 0.37391 0.84773 0.0
O1306 O 0.12696 0.34954 0.86372 0.0
O1307 O 0.15606 0.37628 0.85418 0.0
O1308 O 0.12771 0.39379 0.80978 0.0
O1309 O 0.17222 0.40008 0.81828 0.0
O1310 O 0.11304 0.3493 0.9617 0.0
O1311 O 0.1411 0.38572 0.9118 0.0
O1312 O 0.13927 0.41205 0.89997 0.0
O1313 O 0.11071 0.38561 0.9152 0.0
O1314 O 0.13708 0.36122 0.93665 0.0
O1315 O 0.09618 0.36211 0.94862 0.0
C1316 C 0.11726 0.37609 0.81667 0.0
C1317 C 0.18262 0.41919 0.7586 0.0
C1318 C 0.19993 0.42562 0.69391 0.0
C1319 C 0.18646 0.41284 0.72172 0.0
C1320 C 0.20956 0.44476 0.70446 0.0
C1321 C 0.19245 0.43832 0.76777 0.0
C1322 C 0.20584 0.45098 0.74087 0.0
C1323 C 0.14489 0.3578 0.85286 0.0
C1324 C 0.16752 0.40584 0.78579 0.0
C1325 C 0.20145 0.4718 0.90491 0.0
C1326 C 0.21116 0.46312 0.91977 0.0
C1327 C 0.14876 0.37891 0.93453 0.0
C1328 C 0.08422 0.33742 0.99594 0.0
C1329 C 0.07469 0.34222 1.02403 0.0
C1330 C 0.06168 0.32865 0.05032 0.0
C1331 C 0.05664 0.30977 0.04508 0.0
C1332 C 0.07984 0.31867 0.99264 0.0
C1333 C 0.06566 0.30483 1.01609 0.0
C1334 C 0.12254 0.40388 0.9185 0.0
C1335 C 0.1001 0.35265 0.97468 0.0
H1336 H 0.17862 0.39806 0.71435 0.0
H1337 H 0.22025 0.45504 0.68477 0.0
H1338 H 0.18963 0.4435 0.79553 0.0
H1339 H 0.21337 0.46576 0.74822 0.0
H1340 H 0.07878 0.35684 1.02827 0.0
H1341 H 0.047 0.29907 0.0657 0.0
H1342 H 0.08774 0.31467 0.97353 0.0
H1343 H 0.06252 0.29045 1.01359 0.0
Tb1344 Tb 0.58848 0.74326 0.84997 0.0
C1345 C 0.66623 0.75284 0.86717 0.0
C1346 C 0.66061 0.72291 0.84167 0.0
C1347 C 0.69234 0.74936 0.84372 0.0
C1348 C 0.65386 0.73409 0.85897 0.0
C1349 C 0.68561 0.76064 0.85963 0.0
C1350 C 0.67987 0.73056 0.83462 0.0
C1351 C 0.69056 0.79018 0.88513 0.0
N1352 N 0.65933 0.76346 0.88248 0.0
C1353 C 0.67138 0.78188 0.89227 0.0
C1354 C 0.69774 0.77953 0.86871 0.0
Tb1355 Tb 0.62836 0.7472 0.90154 0.0
N1356 N 0.63528 0.72694 0.86704 0.0
C1357 C 0.62266 0.70903 0.85494 0.0
C1358 C 0.6478 0.70438 0.83146 0.0
C1359 C 0.62874 0.69754 0.83745 0.0
H1360 H 0.66638 0.79017 0.90717 0.0
H1361 H 0.61866 0.68338 0.82839 0.0
H1362 H 0.68527 0.72208 0.82185 0.0
H1363 H 0.69983 0.80471 0.89317 0.0
H1364 H 0.60777 0.70342 0.85743 0.0
H1365 H 0.57224 0.7956 0.90763 0.0
H1366 H 0.65243 0.69538 0.81805 0.0
H1367 H 0.55789 0.69946 0.82347 0.0
H1368 H 0.58872 0.78458 0.86467 0.0
H1369 H 0.52612 0.67477 0.84456 0.0
H1370 H 0.70717 0.75507 0.8381 0.0
H1371 H 0.54373 0.77298 0.94449 0.0
H1372 H 0.5192 0.73938 0.95629 0.0
H1373 H 0.71269 0.78594 0.86361 0.0
H1374 H 0.50627 0.70613 0.9384 0.0
N1375 N 0.57167 0.75561 0.88075 0.0
C1376 C 0.57714 0.77431 0.88225 0.0
C1377 C 0.55135 0.76798 0.9265 0.0
C1378 C 0.5446 0.74883 0.92129 0.0
C1379 C 0.56744 0.78076 0.90591 0.0
C1380 C 0.55513 0.74309 0.89765 0.0
H1381 H 0.50851 0.68193 0.89553 0.0
N1382 N 0.55819 0.72006 0.86285 0.0
C1383 C 0.5322 0.68871 0.85726 0.0
C1384 C 0.54799 0.72457 0.88795 0.0
C1385 C 0.55005 0.70271 0.84509 0.0
C1386 C 0.52232 0.69277 0.88617 0.0
C1387 C 0.52998 0.71104 0.9011 0.0
O1388 O 0.57908 0.73559 0.78976 0.0
O1389 O 0.61636 0.74686 0.84383 0.0
O1390 O 0.63681 0.77302 0.86656 0.0
O1391 O 0.60877 0.77271 0.86244 0.0
O1392 O 0.5969 0.72794 0.80691 0.0
O1393 O 0.58925 0.7637 0.80989 0.0
O1394 O 0.6424 0.76659 0.94852 0.0
O1395 O 0.60555 0.75319 0.90387 0.0
O1396 O 0.57887 0.71875 0.89361 0.0
O1397 O 0.60594 0.71852 0.91486 0.0
O1398 O 0.61146 0.74421 0.95557 0.0
O1399 O 0.64224 0.73964 0.94394 0.0
C1400 C 0.61473 0.73705 0.81315 0.0
C1401 C 0.5699 0.75398 0.75099 0.0
C1402 C 0.56474 0.76678 0.68782 0.0
C1403 C 0.57699 0.76588 0.71675 0.0
C1404 C 0.54529 0.75527 0.69392 0.0
C1405 C 0.55051 0.74302 0.75637 0.0
C1406 C 0.53832 0.74364 0.72787 0.0
C1407 C 0.62726 0.78186 0.86111 0.0
C1408 C 0.58293 0.75234 0.77925 0.0
C1409 C 0.51998 0.71638 0.92723 0.0
C1410 C 0.52733 0.73529 0.93742 0.0
C1411 C 0.60062 0.74966 0.94067 0.0
C1412 C 0.65982 0.76017 0.99888 0.0
C1413 C 0.65577 0.74607 1.02717 0.0
C1414 C 0.66808 0.74938 0.05919 0.0
C1415 C 0.68446 0.76689 0.06302 0.0
C1416 C 0.67592 0.77779 1.00313 0.0
C1417 C 0.68828 0.78109 0.03515 0.0
C1418 C 0.58743 0.71099 0.91399 0.0
C1419 C 0.64837 0.75567 0.9627 0.0
H1420 H 0.59201 0.77443 0.71284 0.0
H1421 H 0.53534 0.755 0.6721 0.0
H1422 H 0.54482 0.73376 0.78225 0.0
H1423 H 0.52334 0.73492 0.73187 0.0
H1424 H 0.64316 0.73251 1.02416 0.0
H1425 H 0.69396 0.76973 0.08823 0.0
H1426 H 0.67923 0.78876 0.98112 0.0
H1427 H 0.70083 0.79461 0.03832 0.0
Tb1428 Tb 0.24634 0.84398 0.85358 0.0
C1429 C 0.23421 0.91112 0.87354 0.0
C1430 C 0.26259 0.93622 0.84441 0.0
C1431 C 0.23511 0.93969 0.85133 0.0
C1432 C 0.25255 0.91821 0.86172 0.0
C1433 C 0.22534 0.92191 0.86931 0.0
C1434 C 0.2537 0.94682 0.83885 0.0
C1435 C 0.19906 0.8981 0.90681 0.0
N1436 N 0.22572 0.89448 0.89316 0.0
C1437 C 0.20867 0.88822 0.91114 0.0
C1438 C 0.20738 0.91498 0.88551 0.0
Tb1439 Tb 0.24331 0.88062 0.90481 0.0
N1440 N 0.26089 0.90794 0.86957 0.0
C1441 C 0.27941 0.91492 0.86037 0.0
C1442 C 0.28145 0.9433 0.83463 0.0
C1443 C 0.28988 0.93259 0.84266 0.0
H1444 H 0.2026 0.87566 0.92934 0.0
H1445 H 0.30449 0.93794 0.83531 0.0
H1446 H 0.26123 0.96074 0.82589 0.0
H1447 H 0.18545 0.89292 0.92071 0.0
H1448 H 0.28628 0.90693 0.8659 0.0
H1449 H 0.1941 0.78084 0.92917 0.0
H1450 H 0.28967 0.95709 0.82138 0.0
H1451 H 0.28934 0.85704 0.82388 0.0
H1452 H 0.20532 0.80978 0.89065 0.0
H1453 H 0.31277 0.84693 0.83493 0.0
H1454 H 0.22861 0.94826 0.84805 0.0
H1455 H 0.21611 0.77009 0.94913 0.0
H1456 H 0.24862 0.77472 0.94596 0.0
H1457 H 0.20015 0.92289 0.88313 0.0
H1458 H 0.2809 0.7926 0.9201 0.0
N1459 N 0.23371 0.81605 0.8882 0.0
C1460 C 0.21518 0.8054 0.89827 0.0
C1461 C 0.22116 0.78289 0.93183 0.0
C1462 C 0.23989 0.79326 0.91975 0.0
C1463 C 0.2087 0.78887 0.92052 0.0
C1464 C 0.24575 0.80987 0.89741 0.0
H1465 H 0.30487 0.8194 0.87812 0.0
N1466 N 0.26872 0.83557 0.86087 0.0
C1467 C 0.29908 0.83927 0.84879 0.0
C1468 C 0.26384 0.81988 0.88294 0.0
C1469 C 0.28583 0.84492 0.84245 0.0
C1470 C 0.29458 0.82372 0.87322 0.0
C1471 C 0.27669 0.81367 0.89028 0.0
O1472 O 0.25203 0.84117 0.79264 0.0
O1473 O 0.24619 0.86984 0.84838 0.0
O1474 O 0.21929 0.86743 0.86345 0.0
O1475 O 0.21717 0.8383 0.85509 0.0
O1476 O 0.26283 0.86717 0.80952 0.0
O1477 O 0.22507 0.82212 0.81843 0.0
O1478 O 0.23419 0.88329 0.96262 0.0
O1479 O 0.24111 0.8535 0.9111 0.0
O1480 O 0.26971 0.85566 0.90038 0.0
O1481 O 0.27141 0.884 0.91572 0.0
O1482 O 0.22125 0.85749 0.93928 0.0
O1483 O 0.26346 0.89931 0.94568 0.0
C1484 C 0.25593 0.87785 0.81754 0.0
C1485 C 0.23395 0.81221 0.758 0.0
C1486 C 0.22218 0.79396 0.69436 0.0
C1487 C 0.22225 0.8069 0.72306 0.0
C1488 C 0.23433 0.78683 0.70162 0.0
C1489 C 0.24542 0.80441 0.76434 0.0
C1490 C 0.24561 0.79186 0.73625 0.0
C1491 C 0.20968 0.84935 0.85374 0.0
C1492 C 0.23528 0.82706 0.78563 0.0
C1493 C 0.27117 0.79751 0.91376 0.0
C1494 C 0.2528 0.78734 0.92851 0.0
C1495 C 0.22695 0.84566 0.93449 0.0
C1496 C 0.25268 0.91277 0.99339 0.0
C1497 C 0.26259 0.91834 1.02972 0.0
C1498 C 0.26355 0.93331 0.05176 0.0
C1499 C 0.25544 0.94343 0.03588 0.0
C1500 C 0.24427 0.92269 0.97818 0.0
C1501 C 0.24589 0.93813 0.99906 0.0
C1502 C 0.27794 0.87225 0.91952 0.0
C1503 C 0.25096 0.8962 0.97333 0.0
H1504 H 0.21333 0.81291 0.71836 0.0
H1505 H 0.23546 0.77751 0.68013 0.0
H1506 H 0.25455 0.80835 0.79058 0.0
H1507 H 0.25481 0.78618 0.74103 0.0
H1508 H 0.26879 0.91042 0.04189 0.0
H1509 H 0.25557 0.95473 0.05294 0.0
H1510 H 0.23624 0.91851 0.95084 0.0
H1511 H 0.23919 0.9456 0.98736 0.0
Tb1512 Tb 0.63406 0.88243 0.40488 0.0
C1513 C 0.55399 0.82044 0.38477 0.0
C1514 C 0.55244 0.79467 0.42327 0.0
C1515 C 0.52455 0.7973 0.41528 0.0
C1516 C 0.56267 0.81116 0.40015 0.0
C1517 C 0.53472 0.8134 0.39134 0.0
C1518 C 0.53342 0.78798 0.4313 0.0
C1519 C 0.5367 0.83777 0.34737 0.0
N1520 N 0.56432 0.83601 0.36202 0.0
C1521 C 0.55581 0.8442 0.3417 0.0
C1522 C 0.52617 0.82246 0.37274 0.0
Tb1523 Tb 0.59526 0.84511 0.35348 0.0
N1524 N 0.58101 0.81802 0.39149 0.0
C1525 C 0.58979 0.80853 0.40435 0.0
C1526 C 0.56155 0.78526 0.43711 0.0
C1527 C 0.5803 0.79217 0.42732 0.0
H1528 H 0.56396 0.856 0.32198 0.0
H1529 H 0.58758 0.78511 0.43804 0.0
H1530 H 0.52538 0.77544 0.44921 0.0
H1531 H 0.53009 0.84458 0.33206 0.0
H1532 H 0.6044 0.81391 0.39934 0.0
H1533 H 0.62114 0.93457 0.33248 0.0
H1534 H 0.55423 0.77262 0.4551 0.0
H1535 H 0.67364 0.88042 0.41465 0.0
H1536 H 0.61164 0.90449 0.36366 0.0
H1537 H 0.70675 0.90013 0.39856 0.0
H1538 H 0.50976 0.79176 0.42097 0.0
H1539 H 0.65435 0.95623 0.31634 0.0
H1540 H 0.68738 0.96296 0.31596 0.0
H1541 H 0.51138 0.81748 0.37696 0.0
H1542 H 0.71041 0.95334 0.33235 0.0
N1543 N 0.63953 0.9088 0.36901 0.0
C1544 C 0.62639 0.91373 0.35892 0.0
C1545 C 0.65036 0.94295 0.33078 0.0
C1546 C 0.66366 0.93767 0.33941 0.0
C1547 C 0.63163 0.93083 0.34012 0.0
C1548 C 0.65777 0.92019 0.35816 0.0
H1549 H 0.71773 0.93002 0.36241 0.0
N1550 N 0.66484 0.89772 0.38435 0.0
C1551 C 0.6968 0.90424 0.3886 0.0
C1552 C 0.67075 0.91451 0.36613 0.0
C1553 C 0.6778 0.89292 0.39706 0.0
C1554 C 0.70291 0.92108 0.36835 0.0
C1555 C 0.68994 0.92654 0.35732 0.0
O1556 O 0.64881 0.87956 0.45398 0.0
O1557 O 0.61284 0.85286 0.40721 0.0
O1558 O 0.58364 0.85866 0.39615 0.0
O1559 O 0.61011 0.88647 0.41766 0.0
O1560 O 0.61747 0.86842 0.45858 0.0
O1561 O 0.64641 0.90499 0.44537 0.0
O1562 O 0.58811 0.84307 0.29159 0.0
O1563 O 0.62201 0.87046 0.34779 0.0
O1564 O 0.64441 0.86573 0.37364 0.0
O1565 O 0.61774 0.83826 0.35337 0.0
O1566 O 0.60242 0.86831 0.30944 0.0
O1567 O 0.59203 0.8218 0.31948 0.0
C1568 C 0.60779 0.85191 0.44398 0.0
C1569 C 0.66438 0.90467 0.50271 0.0
C1570 C 0.66937 0.92215 0.56476 0.0
C1571 C 0.65797 0.91249 0.53179 0.0
C1572 C 0.6872 0.92398 0.56847 0.0
C1573 C 0.68199 0.90614 0.50693 0.0
C1574 C 0.69343 0.91591 0.53971 0.0
C1575 C 0.59165 0.87498 0.41674 0.0
C1576 C 0.65336 0.8964 0.46638 0.0
C1577 C 0.69575 0.94394 0.33912 0.0
C1578 C 0.68265 0.94945 0.33 0.0
C1579 C 0.62011 0.87837 0.31704 0.0
C1580 C 0.57485 0.81395 0.25702 0.0
C1581 C 0.58092 0.80877 0.22149 0.0
C1582 C 0.56785 0.79674 0.19201 0.0
C1583 C 0.5487 0.79033 0.19906 0.0
C1584 C 0.55569 0.80695 0.26318 0.0
C1585 C 0.54275 0.79526 0.23428 0.0
C1586 C 0.63609 0.8485 0.35833 0.0
C1587 C 0.58872 0.82777 0.28568 0.0
H1588 H 0.64418 0.91103 0.52886 0.0
H1589 H 0.69605 0.93112 0.59433 0.0
H1590 H 0.68707 0.90015 0.48447 0.0
H1591 H 0.70709 0.91718 0.54291 0.0
H1592 H 0.59576 0.81414 0.21697 0.0
H1593 H 0.53816 0.78169 0.177 0.0
H1594 H 0.55078 0.81082 0.28994 0.0
H1595 H 0.52797 0.79017 0.23893 0.0
Tb1596 Tb 0.10771 0.74117 0.40463 0.0
C1597 C 0.17453 0.73022 0.3866 0.0
C1598 C 0.19892 0.7558 0.42524 0.0
C1599 C 0.19873 0.72633 0.41991 0.0
C1600 C 0.1825 0.74827 0.40125 0.0
C1601 C 0.18278 0.71917 0.39493 0.0
C1602 C 0.20678 0.74462 0.43507 0.0
C1603 C 0.15979 0.69541 0.35063 0.0
N1604 N 0.159 0.7237 0.36301 0.0
C1605 C 0.15214 0.70694 0.34323 0.0
C1606 C 0.175 0.70142 0.37712 0.0
Tb1607 Tb 0.14716 0.74326 0.35339 0.0
N1608 N 0.17433 0.75851 0.39154 0.0
C1609 C 0.18256 0.77688 0.40392 0.0
C1610 C 0.20696 0.77433 0.43862 0.0
C1611 C 0.19881 0.78494 0.42761 0.0
H1612 H 0.14032 0.70228 0.3229 0.0
H1613 H 0.20494 0.79934 0.43761 0.0
H1614 H 0.21922 0.75008 0.45386 0.0
H1615 H 0.15397 0.6819 0.33592 0.0
H1616 H 0.1768 0.78569 0.3968 0.0
H1617 H 0.05545 0.67596 0.33232 0.0
H1618 H 0.2195 0.78059 0.45721 0.0
H1619 H 0.1096 0.78283 0.41416 0.0
H1620 H 0.08597 0.69689 0.36109 0.0
H1621 H 0.08909 0.79565 0.40031 0.0
H1622 H 0.20514 0.71797 0.42709 0.0
H1623 H 0.03293 0.68684 0.31986 0.0
H1624 H 0.02568 0.71275 0.32119 0.0
H1625 H 0.18091 0.69248 0.38278 0.0
H1626 H 0.03508 0.74529 0.33784 0.0
N1627 N 0.08102 0.71996 0.36991 0.0
C1628 C 0.07637 0.70211 0.35843 0.0
C1629 C 0.04636 0.69625 0.33365 0.0
C1630 C 0.05142 0.71471 0.34304 0.0
C1631 C 0.05898 0.69003 0.34088 0.0
C1632 C 0.06912 0.72648 0.36095 0.0
H1633 H 0.05855 0.77614 0.36676 0.0
N1634 N 0.09165 0.75622 0.38645 0.0
C1635 C 0.08491 0.78149 0.39097 0.0
C1636 C 0.0746 0.74507 0.36938 0.0
C1637 C 0.09659 0.77411 0.39847 0.0
C1638 C 0.0677 0.77043 0.37215 0.0
C1639 C 0.06226 0.75199 0.36144 0.0
O1640 O 0.11046 0.75812 0.45355 0.0
O1641 O 0.13793 0.75124 0.40807 0.0
O1642 O 0.13469 0.71797 0.39484 0.0
O1643 O 0.10519 0.71372 0.41246 0.0
O1644 O 0.12234 0.73912 0.45825 0.0
O1645 O 0.0857 0.73002 0.44848 0.0
O1646 O 0.151 0.7383 0.2922 0.0
O1647 O 0.12036 0.74169 0.34808 0.0
O1648 O 0.12154 0.76672 0.36679 0.0
O1649 O 0.15124 0.77132 0.3564 0.0
O1650 O 0.12463 0.72628 0.30881 0.0
O1651 O 0.1682 0.76534 0.31878 0.0
C1652 C 0.1391 0.74695 0.44476 0.0
C1653 C 0.08798 0.74997 0.50655 0.0
C1654 C 0.0713 0.74052 0.57053 0.0
C1655 C 0.07657 0.73578 0.53395 0.0
C1656 C 0.07763 0.75943 0.57966 0.0
C1657 C 0.09418 0.7688 0.51616 0.0
C1658 C 0.08902 0.77347 0.55258 0.0
C1659 C 0.11787 0.70826 0.41277 0.0
C1660 C 0.09473 0.74562 0.46935 0.0
C1661 C 0.04468 0.74021 0.34403 0.0
C1662 C 0.0393 0.72166 0.33475 0.0
C1663 C 0.11307 0.73214 0.31662 0.0
C1664 C 0.17981 0.75852 0.25868 0.0
C1665 C 0.18314 0.76889 0.22224 0.0
C1666 C 0.19789 0.77176 0.19568 0.0
C1667 C 0.20898 0.76381 0.20643 0.0
C1668 C 0.19121 0.75095 0.26837 0.0
C1669 C 0.20566 0.75357 0.2423 0.0
C1670 C 0.13961 0.77783 0.3592 0.0
C1671 C 0.16417 0.75547 0.2857 0.0
H1672 H 0.07218 0.72127 0.52735 0.0
H1673 H 0.0741 0.76336 0.6083 0.0
H1674 H 0.10321 0.77997 0.49569 0.0
H1675 H 0.09403 0.78801 0.56005 0.0
H1676 H 0.17436 0.77482 0.21488 0.0
H1677 H 0.22012 0.76521 0.18673 0.0
H1678 H 0.18885 0.74294 0.29594 0.0
H1679 H 0.21431 0.74753 0.24983 0.0
Tb1680 Tb 0.25335 0.36665 0.40063 0.0
C1681 C 0.26789 0.44702 0.37597 0.0
C1682 C 0.24263 0.44894 0.40893 0.0
C1683 C 0.27268 0.47714 0.39911 0.0
C1684 C 0.2497 0.43835 0.39001 0.0
C1685 C 0.27954 0.46655 0.37988 0.0
C1686 C 0.25425 0.46835 0.41358 0.0
C1687 C 0.30342 0.46386 0.34298 0.0
N1688 N 0.27403 0.43635 0.35752 0.0
C1689 C 0.29125 0.44454 0.33945 0.0
C1690 C 0.29761 0.47489 0.36361 0.0
Tb1691 Tb 0.25282 0.40524 0.35074 0.0
N1692 N 0.23898 0.41954 0.38537 0.0
C1693 C 0.22079 0.41054 0.39899 0.0
C1694 C 0.22413 0.43974 0.42269 0.0
C1695 C 0.21317 0.42046 0.41765 0.0
H1696 H 0.29564 0.43601 0.32312 0.0
H1697 H 0.19885 0.41314 0.42843 0.0
H1698 H 0.24909 0.47669 0.42813 0.0
H1699 H 0.31723 0.47024 0.32955 0.0
H1700 H 0.21179 0.39565 0.39663 0.0
H1701 H 0.31626 0.37176 0.33364 0.0
H1702 H 0.2182 0.44737 0.43737 0.0
H1703 H 0.20958 0.32932 0.41186 0.0
H1704 H 0.29771 0.38469 0.35955 0.0
H1705 H 0.19322 0.29597 0.39544 0.0
H1706 H 0.28144 0.49216 0.40255 0.0
H1707 H 0.30207 0.33779 0.32226 0.0
H1708 H 0.27389 0.30604 0.32359 0.0
H1709 H 0.30702 0.48985 0.36608 0.0
H1710 H 0.24046 0.28577 0.33791 0.0
N1711 N 0.27229 0.35814 0.36612 0.0
C1712 C 0.29082 0.36973 0.3565 0.0
C1713 C 0.29358 0.34333 0.3343 0.0
C1714 C 0.27457 0.33157 0.34245 0.0
C1715 C 0.30165 0.36248 0.34089 0.0
C1716 C 0.26405 0.33942 0.35823 0.0
H1717 H 0.21031 0.28199 0.3629 0.0
N1718 N 0.23527 0.33549 0.38301 0.0
C1719 C 0.20767 0.30479 0.3864 0.0
C1720 C 0.24503 0.32789 0.36616 0.0
C1721 C 0.21697 0.32393 0.39486 0.0
C1722 C 0.21739 0.29696 0.3682 0.0
C1723 C 0.23633 0.30839 0.35868 0.0
O1724 O 0.23909 0.35153 0.45256 0.0
O1725 O 0.24451 0.38782 0.40537 0.0
O1726 O 0.27681 0.4173 0.39557 0.0
O1727 O 0.28126 0.39173 0.40274 0.0
O1728 O 0.25399 0.38175 0.45572 0.0
O1729 O 0.2686 0.36023 0.44171 0.0
O1730 O 0.2576 0.41364 0.28939 0.0
O1731 O 0.25387 0.37971 0.3449 0.0
O1732 O 0.2279 0.35641 0.36301 0.0
O1733 O 0.22434 0.38227 0.35737 0.0
O1734 O 0.26915 0.39898 0.30555 0.0
O1735 O 0.23059 0.40398 0.31616 0.0
C1736 C 0.24786 0.39227 0.44289 0.0
C1737 C 0.25217 0.3356 0.48835 0.0
C1738 C 0.259 0.3241 0.54997 0.0
C1739 C 0.26106 0.339 0.52595 0.0
C1740 C 0.24825 0.30567 0.53558 0.0
C1741 C 0.2415 0.31717 0.47421 0.0
C1742 C 0.23958 0.30226 0.49775 0.0
C1743 C 0.2861 0.4093 0.41136 0.0
C1744 C 0.25419 0.35183 0.46615 0.0
C1745 C 0.24688 0.3007 0.3433 0.0
C1746 C 0.26593 0.31224 0.3353 0.0
C1747 C 0.26314 0.38154 0.31327 0.0
C1748 C 0.23759 0.42276 0.25673 0.0
C1749 C 0.22742 0.41611 0.21997 0.0
C1750 C 0.22477 0.42826 0.19371 0.0
C1751 C 0.23251 0.44714 0.20566 0.0
C1752 C 0.2452 0.44162 0.26724 0.0
C1753 C 0.24264 0.4537 0.24183 0.0
C1754 C 0.21714 0.364 0.35879 0.0
C1755 C 0.24045 0.40986 0.2831 0.0
H1756 H 0.26922 0.35328 0.53704 0.0
H1757 H 0.24596 0.29388 0.55418 0.0
H1758 H 0.23462 0.31414 0.44545 0.0
H1759 H 0.23109 0.28803 0.48697 0.0
H1760 H 0.22191 0.40157 0.21167 0.0
H1761 H 0.23055 0.45693 0.1874 0.0
H1762 H 0.25314 0.44702 0.29503 0.0
H1763 H 0.24851 0.46826 0.25026 0.0
Tb1764 Tb 0.21426 0.30153 0.9896 0.0
C1765 C 0.15188 0.22158 1.01188 0.0
C1766 C 0.12584 0.21937 0.97314 0.0
C1767 C 0.12863 0.19167 0.98314 0.0
C1768 C 0.14245 0.22996 0.99578 0.0
C1769 C 0.14492 0.20225 1.00642 0.0
C1770 C 0.11913 0.20023 0.96648 0.0
C1771 C 0.16986 0.20507 0.04983 0.0
N1772 N 0.16763 0.2323 0.03394 0.0
C1773 C 0.17619 0.2242 0.05448 0.0
C1774 C 0.1543 0.19409 1.0253 0.0
Tb1775 Tb 0.17644 0.26325 0.04098 0.0
N1776 N 0.14937 0.24845 1.00297 0.0
C1777 C 0.13994 0.25707 0.98887 0.0
C1778 C 0.11639 0.22826 0.9582 0.0
C1779 C 0.12346 0.24721 0.96627 0.0
H1780 H 0.18817 0.23269 0.07358 0.0
H1781 H 0.11641 0.25434 0.95458 0.0
H1782 H 0.10647 0.19189 0.94899 0.0
H1783 H 0.17694 0.19878 0.06528 0.0
H1784 H 0.14547 0.27177 0.99268 0.0
H1785 H 0.26451 0.28652 0.06495 0.0
H1786 H 0.10366 0.22066 0.94054 0.0
H1787 H 0.21365 0.34177 0.98018 0.0
H1788 H 0.23482 0.27796 1.03257 0.0
H1789 H 0.23403 0.37473 0.99659 0.0
H1790 H 0.12313 0.17682 0.97835 0.0
H1791 H 0.28712 0.31958 0.08049 0.0
H1792 H 0.29516 0.35302 0.07966 0.0
H1793 H 0.1494 0.17928 1.02188 0.0
H1794 H 0.28661 0.37677 0.06266 0.0
N1795 N 0.24027 0.3062 1.02625 0.0
C1796 C 0.24449 0.29264 0.03715 0.0
C1797 C 0.27401 0.31599 0.06564 0.0
C1798 C 0.26946 0.32975 0.05618 0.0
C1799 C 0.26134 0.29735 0.05666 0.0
C1800 C 0.25215 0.32437 0.03698 0.0
H1801 H 0.26387 0.38496 1.03263 0.0
N1802 N 0.23032 0.33226 1.01059 0.0
C1803 C 0.23776 0.36451 1.00655 0.0
C1804 C 0.24706 0.33775 1.02878 0.0
C1805 C 0.226 0.34557 0.99805 0.0
C1806 C 0.25459 0.37019 1.02668 0.0
C1807 C 0.25954 0.35685 0.03763 0.0
O1808 O 0.21207 0.31668 0.94054 0.0
O1809 O 0.18461 0.28064 0.98702 0.0
O1810 O 0.18943 0.25121 0.99817 0.0
O1811 O 0.21772 0.27722 0.97719 0.0
O1812 O 0.20006 0.28512 0.93566 0.0
O1813 O 0.23694 0.31334 0.94951 0.0
O1814 O 0.17447 0.257 0.10335 0.0
O1815 O 0.20194 0.28993 0.04659 0.0
O1816 O 0.19743 0.31224 1.01854 0.0
O1817 O 0.1698 0.2859 0.03937 0.0
O1818 O 0.19964 0.27007 0.0849 0.0
O1819 O 0.15293 0.26003 0.07419 0.0
C1820 C 0.18352 0.2756 0.95018 0.0
C1821 C 0.23743 0.3318 0.89255 0.0
C1822 C 0.25467 0.33612 0.83065 0.0
C1823 C 0.24468 0.32488 0.86336 0.0
C1824 C 0.25743 0.35432 0.8272 0.0
C1825 C 0.23981 0.34979 0.88871 0.0
C1826 C 0.24993 0.36108 0.85611 0.0
C1827 C 0.20581 0.25886 0.97803 0.0
C1828 C 0.22884 0.32082 0.92858 0.0
C1829 C 0.27685 0.36219 0.05592 0.0
C1830 C 0.28175 0.34867 0.06539 0.0
C1831 C 0.20966 0.28774 0.07729 0.0
C1832 C 0.1452 0.24323 0.13716 0.0
C1833 C 0.13952 0.24906 0.17241 0.0
C1834 C 0.12763 0.23584 0.20181 0.0
C1835 C 0.12197 0.21683 0.19502 0.0
C1836 C 0.13886 0.22417 0.13134 0.0
C1837 C 0.1274 0.21111 0.16016 0.0
C1838 C 0.1802 0.3042 0.03374 0.0
C1839 C 0.15894 0.25722 0.10853 0.0
H1840 H 0.24247 0.31079 0.86593 0.0
H1841 H 0.26483 0.36302 0.80141 0.0
H1842 H 0.23426 0.35526 0.91131 0.0
H1843 H 0.2519 0.37503 0.85315 0.0
H1844 H 0.1444 0.26381 0.17678 0.0
H1845 H 0.11352 0.20621 0.21703 0.0
H1846 H 0.14311 0.21941 0.1049 0.0
H1847 H 0.12286 0.19644 0.15575 0.0
Tb1848 Tb 0.69897 0.91503 0.99143 0.0
C1849 C 0.77965 0.93736 1.00594 0.0
C1850 C 0.78254 0.91273 0.97299 0.0
C1851 C 0.80727 0.94508 0.96573 0.0
C1852 C 0.7723 0.91876 0.99677 0.0
C1853 C 0.79756 0.95071 0.99202 0.0
C1854 C 0.79972 0.92607 0.95609 0.0
C1855 C 0.7957 0.97351 0.03497 0.0
N1856 N 0.76965 0.94215 1.03095 0.0
C1857 C 0.77787 0.95969 0.04775 0.0
C1858 C 0.80539 0.96912 1.00621 0.0
Tb1859 Tb 0.73937 0.9192 0.04459 0.0
N1860 N 0.75585 0.90646 1.0143 0.0
C1861 C 0.7503 0.88775 1.01376 0.0
C1862 C 0.77559 0.89351 0.96838 0.0
C1863 C 0.75967 0.88098 0.9899 0.0
H1864 H 0.77015 0.9632 0.06915 0.0
H1865 H 0.75476 0.86611 0.98874 0.0
H1866 H 0.80762 0.92177 0.93704 0.0
H1867 H 0.80188 0.98758 0.04701 0.0
H1868 H 0.73892 0.87779 1.03221 0.0
H1869 H 0.70231 0.97675 0.06143 0.0
H1870 H 0.78294 0.88827 0.95022 0.0
H1871 H 0.66315 0.87112 0.98175 0.0
H1872 H 0.71583 0.95882 0.0344 0.0
H1873 H 0.62953 0.85376 0.99687 0.0
H1874 H 0.82091 0.95518 0.95393 0.0
H1875 H 0.66818 0.96203 0.07138 0.0
H1876 H 0.63656 0.9335 0.06762 0.0
H1877 H 0.81915 0.97984 0.99629 0.0
H1878 H 0.61697 0.90007 0.05171 0.0
N1879 N 0.68948 0.9335 1.02521 0.0
C1880 C 0.7008 0.95187 0.03647 0.0
C1881 C 0.67399 0.95388 0.05872 0.0
C1882 C 0.66251 0.93499 0.04913 0.0
C1883 C 0.69322 0.96227 0.0529 0.0
C1884 C 0.67076 0.92494 1.03278 0.0
H1885 H 0.61429 0.87023 1.02688 0.0
N1886 N 0.66793 0.89665 1.00882 0.0
C1887 C 0.63785 0.86835 1.00552 0.0
C1888 C 0.6597 0.90598 1.02451 0.0
C1889 C 0.65708 0.87815 0.99806 0.0
C1890 C 0.62931 0.87772 1.02214 0.0
C1891 C 0.64016 0.89677 1.03142 0.0
O1892 O 0.68492 0.89854 0.94054 0.0
O1893 O 0.72202 0.90915 0.99133 0.0
O1894 O 0.74896 0.94275 0.99912 0.0
O1895 O 0.72185 0.94388 0.98431 0.0
O1896 O 0.71463 0.91489 0.93775 0.0
O1897 O 0.69199 0.9279 0.94555 0.0
O1898 O 0.75051 0.92728 0.10366 0.0
O1899 O 0.7123 0.91726 0.04819 0.0
O1900 O 0.69055 0.88927 1.02661 0.0
O1901 O 0.71872 0.8897 0.03368 0.0
O1902 O 0.7308 0.93453 0.08769 0.0
O1903 O 0.73652 0.89843 0.08589 0.0
C1904 C 0.72633 0.91111 0.95413 0.0
C1905 C 0.66802 0.90901 0.89912 0.0
C1906 C 0.65627 0.91754 0.84013 0.0
C1907 C 0.67109 0.92072 0.86589 0.0
C1908 C 0.63813 0.90286 0.84861 0.0
C1909 C 0.64999 0.89392 0.90625 0.0
C1910 C 0.63506 0.89109 0.88154 0.0
C1911 C 0.74014 0.95071 0.98103 0.0
C1912 C 0.68439 0.91262 0.9234 0.0
C1913 C 0.63195 0.90687 0.04668 0.0
C1914 C 0.6431 0.92591 0.05559 0.0
C1915 C 0.71323 0.92671 0.07892 0.0
C1916 C 0.75749 0.90683 0.1412 0.0
C1917 C 0.75083 0.89735 0.17852 0.0
C1918 C 0.76259 0.89395 0.20423 0.0
C1919 C 0.78109 0.90018 0.19124 0.0
C1920 C 0.77595 0.91292 0.12938 0.0
C1921 C 0.78767 0.9096 0.15437 0.0
C1922 C 0.7002 0.8807 0.03452 0.0
C1923 C 0.74487 0.91018 0.11525 0.0
H1924 H 0.68516 0.93196 0.85924 0.0
H1925 H 0.62653 0.89987 0.82859 0.0
H1926 H 0.64734 0.88406 0.92995 0.0
H1927 H 0.62117 0.8794 0.88719 0.0
H1928 H 0.73659 0.8929 0.18764 0.0
H1929 H 0.79053 0.89756 0.20926 0.0
H1930 H 0.78127 0.9202 0.10087 0.0
H1931 H 0.80192 0.91428 0.14504 0.0
Tb1932 Tb 0.08646 0.78019 0.98752 0.0
C1933 C 0.06326 0.83906 1.00796 0.0
C1934 C 0.08597 0.86571 0.9692 0.0
C1935 C 0.05466 0.86088 0.97897 0.0
C1936 C 0.08096 0.84933 0.99187 0.0
C1937 C 0.04997 0.84488 1.0024 0.0
C1938 C 0.07263 0.87126 0.96232 0.0
C1939 C 0.02897 0.81946 0.046 0.0
N1940 N 0.05927 0.82367 1.03027 0.0
C1941 C 0.04267 0.81427 0.05066 0.0
C1942 C 0.03256 0.8347 1.02139 0.0
Tb1943 Tb 0.0827 0.81663 0.03754 0.0
N1944 N 0.09346 0.84361 0.99965 0.0
C1945 C 0.11157 0.85424 0.98648 0.0
C1946 C 0.10431 0.87621 0.9548 0.0
C1947 C 0.1172 0.8705 0.96377 0.0
H1948 H 0.03992 0.80253 0.06982 0.0
H1949 H 0.13146 0.87848 0.95285 0.0
H1950 H 0.07618 0.88372 0.94483 0.0
H1951 H 0.01568 0.81176 0.0615 0.0
H1952 H 0.12172 0.84998 0.99139 0.0
H1953 H 0.01831 0.7298 0.05266 0.0
H1954 H 0.1087 0.88882 0.93717 0.0
H1955 H 0.12718 0.78076 0.98936 0.0
H1956 H 0.04095 0.75982 1.02441 0.0
H1957 H 0.13893 0.76008 1.00959 0.0
H1958 H 0.04461 0.86552 0.97412 0.0
H1959 H 0.02746 0.70629 0.06934 0.0
H1960 H 0.05247 0.69772 0.07357 0.0
H1961 H 0.02197 0.83874 1.01796 0.0
H1962 H 0.08534 0.70627 0.06379 0.0
N1963 N 0.06329 0.75356 1.01994 0.0
C1964 C 0.04541 0.74971 1.02881 0.0
C1965 C 0.03763 0.7195 0.05591 0.0
C1966 C 0.0561 0.72382 0.04965 0.0
C1967 C 0.03239 0.73267 0.04624 0.0
C1968 C 0.06886 0.74131 1.03233 0.0
H1969 H 0.11761 0.72951 0.04099 0.0
N1970 N 0.09961 0.76346 1.01301 0.0
C1971 C 0.12453 0.75615 1.01589 0.0
C1972 C 0.08755 0.74641 1.02862 0.0
C1973 C 0.1178 0.7681 1.00528 0.0
C1974 C 0.11244 0.73891 0.03335 0.0
C1975 C 0.0937 0.73376 0.03961 0.0
O1976 O 0.10744 0.7861 0.94452 0.0
O1977 O 0.09353 0.80938 0.9847 0.0
O1978 O 0.05797 0.80235 0.9934 0.0
O1979 O 0.05887 0.77585 0.96934 0.0
O1980 O 0.0835 0.79355 0.93303 0.0
O1981 O 0.08187 0.75911 0.9458 0.0
O1982 O 0.07847 0.81848 0.10016 0.0
O1983 O 0.08538 0.79197 0.04405 0.0
O1984 O 0.11235 0.79724 1.02269 0.0
O1985 O 0.11239 0.82501 0.03474 0.0
O1986 O 0.06656 0.793 0.08052 0.0
O1987 O 0.10246 0.84047 0.07096 0.0
C1988 C 0.08977 0.81007 0.94749 0.0
C1989 C 0.09681 0.76995 0.88196 0.0
C1990 C 0.08148 0.75556 0.81821 0.0
C1991 C 0.08124 0.756 0.86063 0.0
C1992 C 0.09724 0.76904 0.79704 0.0
C1993 C 0.11255 0.78325 0.86025 0.0
C1994 C 0.1127 0.7828 0.81801 0.0
C1995 C 0.05102 0.78664 0.97057 0.0
C1996 C 0.09752 0.76989 0.92663 0.0
C1997 C 0.08089 0.71617 0.05547 0.0
C1998 C 0.06217 0.71127 0.06076 0.0
C1999 C 0.07502 0.78364 0.07375 0.0
C2000 C 0.09384 0.84762 0.13543 0.0
C2001 C 0.1061 0.85368 0.16966 0.0
C2002 C 0.10494 0.86534 0.20022 0.0
C2003 C 0.09096 0.87033 0.19542 0.0
C2004 C 0.08056 0.85339 0.13173 0.0
C2005 C 0.07914 0.8646 0.16158 0.0
C2006 C 0.12104 0.81513 0.03384 0.0
C2007 C 0.09401 0.83418 0.10546 0.0
H2008 H 0.06914 0.74533 0.87672 0.0
H2009 H 0.09771 0.76866 0.76421 0.0
H2010 H 0.12488 0.79384 0.87596 0.0
H2011 H 0.12492 0.79297 0.80151 0.0
H2012 H 0.11643 0.84928 0.17233 0.0
H2013 H 0.08877 0.87848 0.21826 0.0
H2014 H 0.07102 0.84889 0.10614 0.0
H2015 H 0.06857 0.86868 0.15878 0.0
Tb2016 Tb 0.4028 0.14918 0.87403 0.0
C2017 C 0.32763 0.07599 0.86105 0.0
C2018 C 0.33762 0.05432 0.88212 0.0
C2019 C 0.30459 0.04487 0.88442 0.0
C2020 C 0.34179 0.07186 0.86596 0.0
C2021 C 0.30889 0.06264 0.87054 0.0
C2022 C 0.31895 0.04074 0.89035 0.0
C2023 C 0.29997 0.08544 0.85276 0.0
N2024 N 0.33231 0.09335 0.84804 0.0
C2025 C 0.31866 0.09813 0.84384 0.0
C2026 C 0.29501 0.06755 0.86604 0.0
Tb2027 Tb 0.36264 0.11215 0.82613 0.0
N2028 N 0.3597 0.08541 0.85751 0.0
C2029 C 0.37415 0.08278 0.86992 0.0
C2030 C 0.35237 0.05116 0.891 0.0
C2031 C 0.37071 0.06562 0.88582 0.0
H2032 H 0.32187 0.11138 0.83135 0.0
H2033 H 0.38228 0.06367 0.89466 0.0
H2034 H 0.31551 0.02713 0.90221 0.0
H2035 H 0.28936 0.0894 0.8486 0.0
H2036 H 0.3885 0.0939 0.86897 0.0
H2037 H 0.41526 0.21586 0.81262 0.0
H2038 H 0.34976 0.03793 0.90358 0.0
H2039 H 0.4353 0.13868 0.90053 0.0
H2040 H 0.40054 0.18899 0.85778 0.0
H2041 H 0.46755 0.14739 0.87949 0.0
H2042 H 0.29028 0.03439 0.89144 0.0
H2043 H 0.4434 0.22221 0.77351 0.0
H2044 H 0.469 0.21462 0.76163 0.0
H2045 H 0.28047 0.05766 0.87273 0.0
H2046 H 0.48385 0.19622 0.78126 0.0
N2047 N 0.41798 0.17769 0.84037 0.0
C2048 C 0.41188 0.19044 0.83911 0.0
C2049 C 0.43646 0.20979 0.79226 0.0
C2050 C 0.44402 0.19807 0.79748 0.0
C2051 C 0.4206 0.20625 0.81422 0.0
C2052 C 0.43437 0.18203 0.82218 0.0
H2053 H 0.48372 0.17153 0.82665 0.0
N2054 N 0.43324 0.15736 0.85918 0.0
C2055 C 0.46058 0.15419 0.86575 0.0
C2056 C 0.44252 0.17163 0.83262 0.0
C2057 C 0.44242 0.14939 0.87782 0.0
C2058 C 0.46964 0.16777 0.83578 0.0
C2059 C 0.46079 0.17702 0.8195 0.0
O2060 O 0.41446 0.15364 0.93292 0.0
O2061 O 0.37554 0.12441 0.88266 0.0
O2062 O 0.35491 0.12834 0.86697 0.0
O2063 O 0.38139 0.15687 0.86207 0.0
O2064 O 0.3956 0.12656 0.91966 0.0
O2065 O 0.40075 0.16841 0.91319 0.0
O2066 O 0.34846 0.12124 0.78711 0.0
O2067 O 0.38509 0.14111 0.82058 0.0
O2068 O 0.41224 0.13326 0.83246 0.0
O2069 O 0.38508 0.10671 0.80753 0.0
O2070 O 0.37914 0.12425 0.77073 0.0
O2071 O 0.34424 0.09297 0.78397 0.0
C2072 C 0.37776 0.11692 0.91383 0.0
C2073 C 0.42155 0.1815 0.96915 0.0
C2074 C 0.42627 0.19999 1.03142 0.0
C2075 C 0.41446 0.18513 1.00504 0.0
C2076 C 0.44531 0.21103 1.02081 0.0
C2077 C 0.44049 0.19286 0.95941 0.0
C2078 C 0.45227 0.20752 0.98519 0.0
C2079 C 0.36318 0.14678 0.86824 0.0
C2080 C 0.40901 0.16539 0.94324 0.0
C2081 C 0.46994 0.19206 0.79232 0.0
C2082 C 0.46148 0.20252 0.78111 0.0
C2083 C 0.38952 0.14116 0.78354 0.0
C2084 C 0.33743 0.10468 0.72498 0.0
C2085 C 0.34239 0.09408 0.69995 0.0
C2086 C 0.33642 0.09089 0.65977 0.0
C2087 C 0.326 0.0987 0.64401 0.0
C2088 C 0.32709 0.11254 0.7091 0.0
C2089 C 0.32148 0.10962 0.6686 0.0
C2090 C 0.40369 0.11731 0.81049 0.0
C2091 C 0.34 0.10502 0.76874 0.0
H2092 H 0.39975 0.17638 1.01221 0.0
H2093 H 0.45503 0.22223 0.04044 0.0
H2094 H 0.44617 0.19027 0.93212 0.0
H2095 H 0.46696 0.21612 0.97774 0.0
H2096 H 0.35011 0.08766 0.71193 0.0
H2097 H 0.32117 0.09609 0.61283 0.0
H2098 H 0.32278 0.12035 0.72842 0.0
H2099 H 0.31323 0.11542 0.65655 0.0
Tb2100 Tb 0.84296 0.24609 0.86895 0.0
C2101 C 0.91197 0.2358 0.84949 0.0
C2102 C 0.93616 0.26383 0.88188 0.0
C2103 C 0.94057 0.23701 0.87257 0.0
C2104 C 0.91851 0.25384 0.86291 0.0
C2105 C 0.923 0.22721 0.85354 0.0
C2106 C 0.94713 0.25529 0.88679 0.0
C2107 C 0.89946 0.20089 0.81539 0.0
N2108 N 0.89526 0.22713 0.83001 0.0
C2109 C 0.88923 0.21019 0.81161 0.0
C2110 C 0.91637 0.20939 0.83672 0.0
Tb2111 Tb 0.88072 0.24422 0.81987 0.0
N2112 N 0.90762 0.26166 0.85678 0.0
C2113 C 0.91379 0.27973 0.86868 0.0
C2114 C 0.94236 0.28219 0.8947 0.0
C2115 C 0.93108 0.29015 0.88813 0.0
H2116 H 0.87655 0.2039 0.79371 0.0
H2117 H 0.93578 0.30438 0.89775 0.0
H2118 H 0.9608 0.26278 0.90102 0.0
H2119 H 0.89444 0.18736 0.80122 0.0
H2120 H 0.90538 0.28623 0.8638 0.0
H2121 H 0.78102 0.19176 0.79304 0.0
H2122 H 0.95584 0.29037 0.90937 0.0
H2123 H 0.85492 0.28903 0.89675 0.0
H2124 H 0.81104 0.20471 0.82811 0.0
H2125 H 0.84247 0.31074 0.88885 0.0
H2126 H 0.94933 0.23072 0.87579 0.0
H2127 H 0.7672 0.21177 0.77892 0.0
H2128 H 0.7692 0.24306 0.78578 0.0
H2129 H 0.92446 0.20233 0.83897 0.0
H2130 H 0.78591 0.27541 0.81161 0.0
N2131 N 0.81487 0.23216 0.83466 0.0
C2132 C 0.80534 0.21373 0.82312 0.0
C2133 C 0.78049 0.2176 0.79469 0.0
C2134 C 0.78993 0.23627 0.80759 0.0
C2135 C 0.78821 0.20626 0.80272 0.0
C2136 C 0.80726 0.24319 0.82784 0.0
H2137 H 0.8132 0.30074 0.8502 0.0
N2138 N 0.8332 0.2674 0.86181 0.0
C2139 C 0.83516 0.29693 0.87532 0.0
C2140 C 0.81671 0.2614 0.84201 0.0
C2141 C 0.84216 0.28466 0.87975 0.0
C2142 C 0.81862 0.29124 0.85346 0.0
C2143 C 0.80905 0.2732 0.83686 0.0
O2144 O 0.84047 0.25227 0.92956 0.0
O2145 O 0.86895 0.24621 0.8759 0.0
O2146 O 0.86709 0.21939 0.85855 0.0
O2147 O 0.83803 0.21724 0.86891 0.0
O2148 O 0.8657 0.26338 0.91294 0.0
O2149 O 0.82119 0.22503 0.90446 0.0
O2150 O 0.88377 0.23616 0.76108 0.0
O2151 O 0.8533 0.24138 0.81189 0.0
O2152 O 0.85432 0.26939 0.82285 0.0
O2153 O 0.88334 0.27206 0.81027 0.0
O2154 O 0.85833 0.22198 0.78464 0.0
O2155 O 0.90004 0.26494 0.78118 0.0
C2156 C 0.87624 0.25613 0.907 0.0
C2157 C 0.81211 0.2343 0.96565 0.0
C2158 C 0.79653 0.22372 1.03163 0.0
C2159 C 0.80809 0.22311 1.00082 0.0
C2160 C 0.78881 0.2354 1.02649 0.0
C2161 C 0.80406 0.24568 0.96104 0.0
C2162 C 0.79243 0.24615 0.99131 0.0
C2163 C 0.84923 0.20993 0.86987 0.0
C2164 C 0.82645 0.23555 0.93693 0.0
C2165 C 0.79198 0.26652 0.81606 0.0
C2166 C 0.78246 0.2481 0.80138 0.0
C2167 C 0.8461 0.22727 0.78813 0.0
C2168 C 0.91334 0.25506 0.73105 0.0
C2169 C 0.91804 0.26425 0.69381 0.0
C2170 C 0.9335 0.26613 0.67219 0.0
C2171 C 0.94468 0.25938 0.68883 0.0
C2172 C 0.92429 0.24792 0.74689 0.0
C2173 C 0.94003 0.25027 0.72611 0.0
C2174 C 0.8711 0.2779 0.80481 0.0
C2175 C 0.89683 0.25306 0.75194 0.0
H2176 H 0.81442 0.21441 1.00481 0.0
H2177 H 0.77989 0.23612 0.0497 0.0
H2178 H 0.80711 0.2545 0.93456 0.0
H2179 H 0.78638 0.2551 0.98774 0.0
H2180 H 0.90929 0.26935 0.68093 0.0
H2181 H 0.95638 0.26024 0.67204 0.0
H2182 H 0.92073 0.24035 0.77474 0.0
H2183 H 0.94833 0.24459 0.73842 0.0
Tb2184 Tb 0.74204 0.5887 0.8787 0.0
C2185 C 0.7565 0.66886 0.85879 0.0
C2186 C 0.72768 0.66709 0.88138 0.0
C2187 C 0.75646 0.69715 0.87988 0.0
C2188 C 0.73749 0.65831 0.86666 0.0
C2189 C 0.76612 0.68846 0.86472 0.0
C2190 C 0.73728 0.6865 0.88814 0.0
C2191 C 0.79333 0.69001 0.83343 0.0
N2192 N 0.76518 0.66024 0.84171 0.0
C2193 C 0.78303 0.6707 0.82692 0.0
C2194 C 0.78489 0.69893 0.85283 0.0
Tb2195 Tb 0.74626 0.62939 0.82539 0.0
N2196 N 0.72846 0.63967 0.85834 0.0
C2197 C 0.70963 0.6289 0.86587 0.0
C2198 C 0.70841 0.6562 0.88799 0.0
C2199 C 0.69938 0.63701 0.88043 0.0
H2200 H 0.78914 0.66407 0.80921 0.0
H2201 H 0.68451 0.6284 0.88608 0.0
H2202 H 0.72993 0.69346 0.89911 0.0
H2203 H 0.80752 0.69808 0.82221 0.0
H2204 H 0.70218 0.61397 0.86156 0.0
H2205 H 0.79543 0.57389 0.8222 0.0
H2206 H 0.70039 0.66244 0.89908 0.0
H2207 H 0.69808 0.55815 0.90325 0.0
H2208 H 0.78369 0.58973 0.86578 0.0
H2209 H 0.67377 0.52624 0.88168 0.0
H2210 H 0.76357 0.71219 0.88426 0.0
H2211 H 0.77319 0.54533 0.78461 0.0
H2212 H 0.73969 0.52028 0.77254 0.0
H2213 H 0.7927 0.71399 0.85671 0.0
H2214 H 0.70633 0.50682 0.79 0.0
N2215 N 0.75502 0.57249 0.84843 0.0
C2216 C 0.77376 0.57824 0.84751 0.0
C2217 C 0.76796 0.55269 0.80277 0.0
C2218 C 0.74873 0.54554 0.80793 0.0
C2219 C 0.78053 0.56884 0.82373 0.0
C2220 C 0.74269 0.5558 0.83168 0.0
H2221 H 0.68166 0.50867 0.83201 0.0
N2222 N 0.71923 0.55835 0.86606 0.0
C2223 C 0.68788 0.53235 0.86993 0.0
C2224 C 0.7241 0.54828 0.84139 0.0
C2225 C 0.70164 0.55028 0.88242 0.0
C2226 C 0.69236 0.52249 0.84177 0.0
C2227 C 0.71078 0.53028 0.82774 0.0
O2228 O 0.73411 0.57773 0.93781 0.0
O2229 O 0.74387 0.61589 0.88228 0.0
O2230 O 0.77127 0.63796 0.8629 0.0
O2231 O 0.77137 0.60984 0.86741 0.0
O2232 O 0.72705 0.59753 0.92227 0.0
O2233 O 0.76297 0.59119 0.9195 0.0
O2234 O 0.75911 0.6426 0.77109 0.0
O2235 O 0.74805 0.60414 0.82325 0.0
O2236 O 0.71892 0.57866 0.8319 0.0
O2237 O 0.71777 0.60567 0.81652 0.0
O2238 O 0.75913 0.62189 0.77616 0.0
O2239 O 0.72955 0.63313 0.78257 0.0
C2240 C 0.73448 0.61504 0.91309 0.0
C2241 C 0.75411 0.56954 0.97413 0.0
C2242 C 0.7671 0.56312 0.03585 0.0
C2243 C 0.76445 0.57566 1.01083 0.0
C2244 C 0.75912 0.54437 1.02284 0.0
C2245 C 0.74637 0.55079 0.96245 0.0
C2246 C 0.74885 0.53832 0.98674 0.0
C2247 C 0.7801 0.62838 0.8686 0.0
C2248 C 0.75121 0.5828 0.94894 0.0
C2249 C 0.71642 0.52053 0.80157 0.0
C2250 C 0.7354 0.52819 0.79157 0.0
C2251 C 0.75571 0.60585 0.78883 0.0
C2252 C 0.74573 0.65779 0.73549 0.0
C2253 C 0.7385 0.65471 0.69632 0.0
C2254 C 0.74038 0.66966 0.67293 0.0
C2255 C 0.74964 0.68789 0.68883 0.0
C2256 C 0.75519 0.67607 0.75118 0.0
C2257 C 0.75712 0.69106 0.7279 0.0
C2258 C 0.71099 0.58738 0.81317 0.0
C2259 C 0.74372 0.64155 0.75752 0.0
H2260 H 0.77012 0.59012 1.02004 0.0
H2261 H 0.76103 0.5343 0.04014 0.0
H2262 H 0.73837 0.54579 0.9346 0.0
H2263 H 0.74283 0.52385 0.97743 0.0
H2264 H 0.7315 0.64063 0.68382 0.0
H2265 H 0.75152 0.69966 0.67069 0.0
H2266 H 0.76114 0.67889 0.78097 0.0
H2267 H 0.76453 0.70515 0.74001 0.0
Tb2268 Tb 0.81665 0.7383 0.18304 0.0
C2269 C 0.75322 0.65814 0.20587 0.0
C2270 C 0.72728 0.66148 0.18198 0.0
C2271 C 0.72428 0.63062 0.18472 0.0
C2272 C 0.74562 0.66935 0.19754 0.0
C2273 C 0.74264 0.63861 0.19982 0.0
C2274 C 0.71663 0.64205 0.1757 0.0
C2275 C 0.76859 0.63619 0.22701 0.0
N2276 N 0.77073 0.6663 0.22158 0.0
C2277 C 0.77828 0.65555 0.23333 0.0
C2278 C 0.75064 0.62766 0.21019 0.0
Tb2279 Tb 0.78418 0.69735 0.23752 0.0
N2280 N 0.7561 0.68793 0.20548 0.0
C2281 C 0.74911 0.69958 0.19749 0.0
C2282 C 0.72009 0.67333 0.17377 0.0
C2283 C 0.73113 0.69249 0.18126 0.0
H2284 H 0.79149 0.66191 0.24931 0.0
H2285 H 0.72576 0.70182 0.17478 0.0
H2286 H 0.70243 0.6357 0.1642 0.0
H2287 H 0.7747 0.62783 0.23641 0.0
H2288 H 0.7574 0.71445 0.20271 0.0
H2289 H 0.88568 0.7548 0.23776 0.0
H2290 H 0.70607 0.66785 0.1617 0.0
H2291 H 0.80372 0.76931 0.15688 0.0
H2292 H 0.85844 0.73927 0.19314 0.0
H2293 H 0.81124 0.80119 0.17831 0.0
H2294 H 0.71585 0.61563 0.18021 0.0
H2295 H 0.89068 0.78205 0.27883 0.0
H2296 H 0.88131 0.8063 0.29283 0.0
H2297 H 0.74293 0.61259 0.20624 0.0
H2298 H 0.86138 0.81969 0.27474 0.0
N2299 N 0.84577 0.7549 0.21365 0.0
C2300 C 0.85935 0.74993 0.21314 0.0
C2301 C 0.87816 0.77467 0.26042 0.0
C2302 C 0.8656 0.78131 0.25633 0.0
C2303 C 0.87536 0.75928 0.23743 0.0
C2304 C 0.8495 0.77108 0.23202 0.0
H2305 H 0.83572 0.81828 0.23024 0.0
N2306 N 0.8239 0.76864 0.19609 0.0
C2307 C 0.81888 0.79488 0.19108 0.0
C2308 C 0.83835 0.7785 0.2221 0.0
C2309 C 0.81479 0.77695 0.17868 0.0
C2310 C 0.83265 0.80447 0.22057 0.0
C2311 C 0.84287 0.79644 0.2359 0.0
O2312 O 0.81743 0.74873 0.12423 0.0
O2313 O 0.79309 0.71023 0.17944 0.0
O2314 O 0.79984 0.68907 0.19773 0.0
O2315 O 0.8267 0.71781 0.18632 0.0
O2316 O 0.7919 0.72828 0.14149 0.0
O2317 O 0.83608 0.73862 0.14072 0.0
O2318 O 0.78407 0.68384 0.29159 0.0
O2319 O 0.80942 0.72433 0.24157 0.0
O2320 O 0.80222 0.74801 0.22823 0.0
O2321 O 0.77902 0.72008 0.2562 0.0
O2322 O 0.80918 0.70216 0.27047 0.0
O2323 O 0.76575 0.69547 0.2831 0.0
C2324 C 0.78382 0.7106 0.14934 0.0
C2325 C 0.84469 0.75871 0.083 0.0
C2326 C 0.86297 0.76477 1.01983 0.0
C2327 C 0.85006 0.75209 0.04858 0.0
C2328 C 0.86996 0.78407 1.02618 0.0
C2329 C 0.85227 0.77801 0.0885 0.0
C2330 C 0.86475 0.79055 0.06013 0.0
C2331 C 0.81773 0.69919 0.18734 0.0
C2332 C 0.83046 0.74531 0.11165 0.0
C2333 C 0.85791 0.80604 0.26304 0.0
C2334 C 0.86923 0.79841 0.27342 0.0
C2335 C 0.81907 0.71993 0.26452 0.0
C2336 C 0.75532 0.67 0.32742 0.0
C2337 C 0.74656 0.67393 0.35894 0.0
C2338 C 0.73359 0.65952 0.38374 0.0
C2339 C 0.72821 0.64085 0.37439 0.0
C2340 C 0.75022 0.65138 0.31894 0.0
C2341 C 0.73641 0.63684 0.34183 0.0
C2342 C 0.78781 0.7386 0.25383 0.0
C2343 C 0.77063 0.68594 0.30674 0.0
H2344 H 0.84428 0.73716 0.04444 0.0
H2345 H 0.87939 0.79431 1.00454 0.0
H2346 H 0.84834 0.78336 0.11445 0.0
H2347 H 0.87034 0.80544 0.06429 0.0
H2348 H 0.75082 0.68839 0.36594 0.0
H2349 H 0.71859 0.62946 0.39367 0.0
H2350 H 0.75707 0.64797 0.2956 0.0
H2351 H 0.73269 0.6225 0.33548 0.0
Tb2352 Tb 0.26151 0.08317 0.18857 0.0
C2353 C 0.34107 0.09447 0.21326 0.0
C2354 C 0.33892 0.06778 0.17781 0.0
C2355 C 0.36942 0.09512 0.19042 0.0
C2356 C 0.33036 0.07673 0.19758 0.0
C2357 C 0.36077 0.10377 0.2107 0.0
C2358 C 0.35851 0.07714 0.17398 0.0
C2359 C 0.36187 0.12817 0.25322 0.0
N2360 N 0.33218 0.10185 0.23433 0.0
C2361 C 0.34231 0.11813 0.25563 0.0
C2362 C 0.37115 0.12104 0.23034 0.0
Tb2363 Tb 0.30034 0.08396 0.24036 0.0
N2364 N 0.31155 0.06804 0.20297 0.0
C2365 C 0.30047 0.05007 0.18936 0.0
C2366 C 0.32759 0.04955 0.16335 0.0
C2367 C 0.30827 0.04067 0.16914 0.0
H2368 H 0.33526 0.12345 0.27435 0.0
H2369 H 0.29935 0.02652 0.15829 0.0
H2370 H 0.36536 0.07046 0.15907 0.0
H2371 H 0.36977 0.14125 0.2695 0.0
H2372 H 0.2855 0.04279 0.19328 0.0
H2373 H 0.25163 0.13603 0.26444 0.0
H2374 H 0.33361 0.04214 0.1481 0.0
H2375 H 0.23135 0.04006 0.15966 0.0
H2376 H 0.26906 0.12431 0.22611 0.0
H2377 H 0.19775 0.017 0.17057 0.0
H2378 H 0.38455 0.10199 0.18818 0.0
H2379 H 0.21868 0.11448 0.28361 0.0
H2380 H 0.19046 0.08221 0.27999 0.0
H2381 H 0.38632 0.12864 0.22916 0.0
H2382 H 0.17573 0.04985 0.25426 0.0
N2383 N 0.24655 0.09619 0.22299 0.0
C2384 C 0.25473 0.1147 0.2334 0.0
C2385 C 0.22629 0.10924 0.26639 0.0
C2386 C 0.21768 0.0905 0.25409 0.0
C2387 C 0.24485 0.12144 0.25553 0.0
C2388 C 0.22827 0.08439 0.23187 0.0
H2389 H 0.17828 0.02547 0.21293 0.0
N2390 N 0.23069 0.06107 0.19581 0.0
C2391 C 0.20388 0.03079 0.1841 0.0
C2392 C 0.21999 0.06625 0.21747 0.0
C2393 C 0.22282 0.04384 0.17784 0.0
C2394 C 0.19292 0.03562 0.20806 0.0
C2395 C 0.2009 0.05361 0.22477 0.0
O2396 O 0.25241 0.07729 0.12789 0.0
O2397 O 0.28737 0.08278 0.18345 0.0
O2398 O 0.3122 0.10941 0.20375 0.0
O2399 O 0.28563 0.11201 0.19064 0.0
O2400 O 0.26745 0.06618 0.14465 0.0
O2401 O 0.26164 0.10468 0.15329 0.0
O2402 O 0.3088 0.08985 0.3014 0.0
O2403 O 0.27613 0.08746 0.24576 0.0
O2404 O 0.24964 0.06051 0.23623 0.0
O2405 O 0.27491 0.05588 0.24179 0.0
O2406 O 0.29959 0.10564 0.27733 0.0
O2407 O 0.29758 0.06199 0.27713 0.0
C2408 C 0.28506 0.07308 0.1522 0.0
C2409 C 0.24224 0.09613 0.09391 0.0
C2410 C 0.23553 0.10702 1.0294 0.0
C2411 C 0.24835 0.10588 0.05653 0.0
C2412 C 0.21655 0.09824 0.04109 0.0
C2413 C 0.22326 0.08753 0.10415 0.0
C2414 C 0.21054 0.08861 0.07788 0.0
C2415 C 0.30413 0.11913 0.19172 0.0
C2416 C 0.25566 0.09424 0.12075 0.0
C2417 C 0.1904 0.05941 0.24798 0.0
C2418 C 0.19878 0.07782 0.26265 0.0
C2419 C 0.28247 0.10113 0.27048 0.0
C2420 C 0.31959 0.07087 0.32979 0.0
C2421 C 0.3168 0.06541 0.37042 0.0
C2422 C 0.33072 0.0639 0.39187 0.0
C2423 C 0.34749 0.06804 0.37227 0.0
C2424 C 0.33621 0.07453 0.31048 0.0
C2425 C 0.35016 0.07329 0.33167 0.0
C2426 C 0.25743 0.05097 0.25136 0.0
C2427 C 0.30508 0.07281 0.30848 0.0
H2428 H 0.263 0.11221 0.04838 0.0
H2429 H 0.20624 0.09904 1.02215 0.0
H2430 H 0.21826 0.07988 0.13234 0.0
H2431 H 0.19589 0.08195 0.0861 0.0
H2432 H 0.30388 0.06246 0.38532 0.0
H2433 H 0.35871 0.06764 0.38854 0.0
H2434 H 0.33844 0.07821 0.27917 0.0
H2435 H 0.3631 0.0765 0.31664 0.0
Tb2436 Tb 0.91208 0.17748 0.18917 0.0
C2437 C 0.90665 0.24862 0.20421 0.0
C2438 C 0.93693 0.27141 0.17737 0.0
C2439 C 0.91198 0.27894 0.18102 0.0
C2440 C 0.92504 0.25377 0.19512 0.0
C2441 C 0.89997 0.2612 0.19738 0.0
C2442 C 0.93037 0.28399 0.17083 0.0
C2443 C 0.8701 0.23814 0.22444 0.0
N2444 N 0.89532 0.23133 0.21979 0.0
C2445 C 0.87729 0.2262 0.23068 0.0
C2446 C 0.88148 0.25574 0.20766 0.0
Tb2447 Tb 0.90998 0.21489 0.23797 0.0
N2448 N 0.93114 0.24144 0.20282 0.0
C2449 C 0.94867 0.24559 0.19016 0.0
C2450 C 0.95504 0.27588 0.16626 0.0
C2451 C 0.9608 0.26279 0.17206 0.0
H2452 H 0.86843 0.21305 0.24561 0.0
H2453 H 0.97461 0.26591 0.16242 0.0
H2454 H 0.93941 0.29765 0.15771 0.0
H2455 H 0.85588 0.23387 0.23334 0.0
H2456 H 0.95348 0.23563 0.19257 0.0
H2457 H 0.86079 0.11646 0.27225 0.0
H2458 H 0.96453 0.28924 0.1524 0.0
H2459 H 0.95468 0.1895 0.15845 0.0
H2460 H 0.87181 0.14474 0.23179 0.0
H2461 H 0.97816 0.17955 0.17064 0.0
H2462 H 0.90713 0.28881 0.17589 0.0
H2463 H 0.88281 0.10581 0.2928 0.0
H2464 H 0.91521 0.11022 0.28937 0.0
H2465 H 0.87593 0.26508 0.2032 0.0
H2466 H 0.94724 0.12746 0.26197 0.0
N2467 N 0.90005 0.15059 0.22766 0.0
C2468 C 0.88166 0.14032 0.23912 0.0
C2469 C 0.88776 0.11829 0.27444 0.0
C2470 C 0.90639 0.12839 0.26159 0.0
C2471 C 0.87529 0.12419 0.26273 0.0
C2472 C 0.91212 0.1446 0.2378 0.0
H2473 H 0.9708 0.15324 0.21729 0.0
N2474 N 0.93472 0.16948 0.199 0.0
C2475 C 0.96472 0.17243 0.18575 0.0
C2476 C 0.93007 0.15431 0.22273 0.0
C2477 C 0.95145 0.17801 0.17885 0.0
C2478 C 0.96053 0.15758 0.21214 0.0
C2479 C 0.9429 0.1481 0.2305 0.0
O2480 O 0.91748 0.17471 0.12785 0.0
O2481 O 0.91036 0.2026 0.18152 0.0
O2482 O 0.88353 0.19857 0.20442 0.0
O2483 O 0.88269 0.17056 0.18933 0.0
O2484 O 0.92812 0.20013 0.14434 0.0
O2485 O 0.89192 0.15409 0.15592 0.0
O2486 O 0.89114 0.21041 0.28579 0.0
O2487 O 0.90171 0.18535 0.24155 0.0
O2488 O 0.93693 0.1916 0.23231 0.0
O2489 O 0.93821 0.21972 0.25055 0.0
O2490 O 0.91337 0.2015 0.29193 0.0
O2491 O 0.91882 0.23633 0.28045 0.0
C2492 C 0.92017 0.21 0.15051 0.0
C2493 C 0.90073 0.14542 0.09425 0.0
C2494 C 0.89028 0.12889 1.02889 0.0
C2495 C 0.89054 0.14176 0.05766 0.0
C2496 C 0.90037 0.11968 0.03808 0.0
C2497 C 0.91072 0.13617 0.10233 0.0
C2498 C 0.91049 0.12334 0.07432 0.0
C2499 C 0.87462 0.181 0.19103 0.0
C2500 C 0.90137 0.15965 0.12231 0.0
C2501 C 0.93754 0.13237 0.25534 0.0
C2502 C 0.91931 0.12254 0.27092 0.0
C2503 C 0.90605 0.18478 0.27827 0.0
C2504 C 0.89978 0.23447 0.33709 0.0
C2505 C 0.91476 0.24442 0.36361 0.0
C2506 C 0.91249 0.25323 0.39734 0.0
C2507 C 0.89511 0.25199 0.40472 0.0
C2508 C 0.88231 0.23289 0.34475 0.0
C2509 C 0.88004 0.24176 0.37854 0.0
C2510 C 0.9452 0.20825 0.25141 0.0
C2511 C 0.90297 0.22702 0.30011 0.0
H2512 H 0.8832 0.14933 0.05132 0.0
H2513 H 0.90032 0.10941 1.01751 0.0
H2514 H 0.91875 0.13896 0.13008 0.0
H2515 H 0.91821 0.11618 0.08068 0.0
H2516 H 0.92816 0.24528 0.35814 0.0
H2517 H 0.89305 0.25844 0.43141 0.0
H2518 H 0.87064 0.22521 0.32422 0.0
H2519 H 0.86662 0.24066 0.38452 0.0
Tb2520 Tb 0.29661 0.21805 0.73355 0.0
C2521 C 0.21515 0.15471 0.71324 0.0
C2522 C 0.21268 0.12772 0.74815 0.0
C2523 C 0.18507 0.13078 0.73974 0.0
C2524 C 0.22346 0.14489 0.72754 0.0
C2525 C 0.1958 0.14766 0.71867 0.0
C2526 C 0.1935 0.12081 0.75441 0.0
C2527 C 0.19888 0.1739 0.67982 0.0
N2528 N 0.22597 0.17105 0.69332 0.0
C2529 C 0.21801 0.18025 0.675 0.0
C2530 C 0.18777 0.15765 0.70215 0.0
Tb2531 Tb 0.25689 0.18013 0.68578 0.0
N2532 N 0.24214 0.15228 0.72178 0.0
C2533 C 0.25073 0.14269 0.73574 0.0
C2534 C 0.22149 0.11805 0.76216 0.0
C2535 C 0.24059 0.12558 0.75581 0.0
H2536 H 0.22661 0.19278 0.65758 0.0
H2537 H 0.24763 0.1183 0.76678 0.0
H2538 H 0.18506 0.10776 0.77043 0.0
H2539 H 0.19271 0.1815 0.66621 0.0
H2540 H 0.26547 0.14789 0.73271 0.0
H2541 H 0.2883 0.27439 0.66885 0.0
H2542 H 0.21372 0.10487 0.77811 0.0
H2543 H 0.33397 0.21124 0.73571 0.0
H2544 H 0.27647 0.24274 0.69362 0.0
H2545 H 0.36737 0.22974 0.72055 0.0
H2546 H 0.17021 0.1252 0.74449 0.0
H2547 H 0.32208 0.29505 0.65649 0.0
H2548 H 0.3543 0.29959 0.65586 0.0
H2549 H 0.17296 0.15273 0.70576 0.0
H2550 H 0.37549 0.28727 0.6682 0.0
N2551 N 0.30356 0.24503 0.69896 0.0
C2552 C 0.2914 0.25139 0.69028 0.0
C2553 C 0.31705 0.28103 0.66802 0.0
C2554 C 0.32934 0.27426 0.67477 0.0
C2555 C 0.29799 0.26945 0.67522 0.0
C2556 C 0.32213 0.25588 0.68985 0.0
H2557 H 0.38045 0.26137 0.6914 0.0
N2558 N 0.3271 0.23119 0.71135 0.0
C2559 C 0.35819 0.23516 0.71292 0.0
C2560 C 0.33416 0.24875 0.69605 0.0
C2561 C 0.33906 0.22458 0.72083 0.0
C2562 C 0.3655 0.25301 0.69663 0.0
C2563 C 0.35356 0.26009 0.68835 0.0
O2564 O 0.31313 0.21685 0.78077 0.0
O2565 O 0.2744 0.18873 0.74042 0.0
O2566 O 0.24596 0.19375 0.72976 0.0
O2567 O 0.27281 0.22253 0.74386 0.0
O2568 O 0.28141 0.20532 0.78969 0.0
O2569 O 0.30903 0.24133 0.77219 0.0
O2570 O 0.2479 0.17623 0.62472 0.0
O2571 O 0.28331 0.20572 0.67807 0.0
O2572 O 0.30516 0.20167 0.69497 0.0
O2573 O 0.2787 0.17292 0.69188 0.0
O2574 O 0.26373 0.20268 0.63992 0.0
O2575 O 0.25741 0.15873 0.65149 0.0
C2576 C 0.2702 0.18856 0.77793 0.0
C2577 C 0.32944 0.243 0.82622 0.0
C2578 C 0.33428 0.25928 0.88963 0.0
C2579 C 0.32233 0.24841 0.85855 0.0
C2580 C 0.35338 0.26474 0.88834 0.0
C2581 C 0.34841 0.24814 0.82507 0.0
C2582 C 0.36039 0.2591 0.85615 0.0
C2583 C 0.25457 0.21063 0.74805 0.0
C2584 C 0.31745 0.23379 0.79184 0.0
C2585 C 0.36064 0.27838 0.67388 0.0
C2586 C 0.34858 0.28542 0.66703 0.0
C2587 C 0.28138 0.21339 0.64698 0.0
C2588 C 0.23928 0.14739 0.59104 0.0
C2589 C 0.2466 0.1441 0.55506 0.0
C2590 C 0.23495 0.12947 0.52804 0.0
C2591 C 0.21583 0.1184 0.53794 0.0
C2592 C 0.22025 0.13604 0.59999 0.0
C2593 C 0.20863 0.12165 0.57349 0.0
C2594 C 0.29703 0.18327 0.69226 0.0
C2595 C 0.25174 0.1629 0.61837 0.0
H2596 H 0.30756 0.24415 0.85962 0.0
H2597 H 0.36268 0.27282 0.91291 0.0
H2598 H 0.35402 0.24412 0.79978 0.0
H2599 H 0.37507 0.26318 0.85535 0.0
H2600 H 0.26138 0.15283 0.54843 0.0
H2601 H 0.20626 0.10734 0.51783 0.0
H2602 H 0.2144 0.13837 0.6273 0.0
H2603 H 0.19388 0.11302 0.5804 0.0
Tb2604 Tb 0.77831 0.0828 0.7423 0.0
C2605 C 0.8425 0.0666 0.71391 0.0
C2606 C 0.86945 0.09212 0.74696 0.0
C2607 C 0.86866 0.06267 0.73491 0.0
C2608 C 0.85164 0.08466 0.72855 0.0
C2609 C 0.85098 0.05542 0.71647 0.0
C2610 C 0.87788 0.081 0.75014 0.0
C2611 C 0.82449 0.03127 0.6798 0.0
N2612 N 0.82553 0.06018 0.69603 0.0
C2613 C 0.81679 0.04302 0.67756 0.0
C2614 C 0.8416 0.03745 0.69958 0.0
Tb2615 Tb 0.81509 0.08107 0.68955 0.0
N2616 N 0.84304 0.09493 0.72475 0.0
C2617 C 0.85161 0.11289 0.73949 0.0
C2618 C 0.87825 0.11051 0.76155 0.0
C2619 C 0.86922 0.1209 0.75796 0.0
H2620 H 0.80373 0.03839 0.66159 0.0
H2621 H 0.87567 0.13502 0.76992 0.0
H2622 H 0.89154 0.08647 0.76411 0.0
H2623 H 0.81733 0.01754 0.66589 0.0
H2624 H 0.84464 0.12091 0.73946 0.0
H2625 H 0.72392 0.01818 0.67137 0.0
H2626 H 0.89189 0.11673 0.77597 0.0
H2627 H 0.78088 0.12436 0.75537 0.0
H2628 H 0.75452 0.03812 0.70061 0.0
H2629 H 0.76138 0.13835 0.74214 0.0
H2630 H 0.87541 0.05429 0.73717 0.0
H2631 H 0.70256 0.03038 0.65789 0.0
H2632 H 0.69651 0.05708 0.65947 0.0
H2633 H 0.84763 0.0284 0.70093 0.0
H2634 H 0.70691 0.08977 0.67707 0.0
N2635 N 0.75092 0.0621 0.70849 0.0
C2636 C 0.74547 0.04397 0.69754 0.0
C2637 C 0.71607 0.0394 0.6718 0.0
C2638 C 0.72182 0.05801 0.68114 0.0
C2639 C 0.72802 0.03243 0.67968 0.0
C2640 C 0.7396 0.06926 0.69917 0.0
H2641 H 0.73097 0.12005 0.70727 0.0
N2642 N 0.76275 0.09847 0.72523 0.0
C2643 C 0.75687 0.12425 0.73175 0.0
C2644 C 0.74568 0.08792 0.70786 0.0
C2645 C 0.76802 0.11622 0.73874 0.0
C2646 C 0.73974 0.11388 0.71219 0.0
C2647 C 0.73382 0.09544 0.70046 0.0
O2648 O 0.78361 0.10092 0.79151 0.0
O2649 O 0.8079 0.09099 0.74379 0.0
O2650 O 0.80232 0.05631 0.73298 0.0
O2651 O 0.77408 0.05466 0.75159 0.0
O2652 O 0.79253 0.07938 0.7947 0.0
O2653 O 0.75735 0.07365 0.78698 0.0
O2654 O 0.81664 0.07507 0.62791 0.0
O2655 O 0.78961 0.08223 0.68467 0.0
O2656 O 0.79398 0.10926 0.70862 0.0
O2657 O 0.82171 0.11029 0.68973 0.0
O2658 O 0.79114 0.06385 0.64832 0.0
O2659 O 0.83658 0.10168 0.65317 0.0
C2660 C 0.80908 0.08654 0.78019 0.0
C2661 C 0.76125 0.09301 0.84607 0.0
C2662 C 0.74243 0.08213 0.90714 0.0
C2663 C 0.74848 0.07823 0.87066 0.0
C2664 C 0.74939 0.10084 0.91911 0.0
C2665 C 0.76824 0.11163 0.85854 0.0
C2666 C 0.76228 0.11549 0.89495 0.0
C2667 C 0.78579 0.04797 0.75262 0.0
C2668 C 0.76749 0.08909 0.80769 0.0
C2669 C 0.71616 0.08422 0.68285 0.0
C2670 C 0.71022 0.06559 0.67304 0.0
C2671 C 0.78125 0.07174 0.65502 0.0
C2672 C 0.84518 0.09265 0.59191 0.0
C2673 C 0.84917 0.1035 0.55616 0.0
C2674 C 0.86289 0.10482 0.52859 0.0
C2675 C 0.87224 0.09483 0.53712 0.0
C2676 C 0.85469 0.08286 0.59952 0.0
C2677 C 0.86809 0.08391 0.57213 0.0
C2678 C 0.81132 0.11829 0.69408 0.0
C2679 C 0.83086 0.09156 0.62039 0.0
H2680 H 0.74338 0.06381 0.86172 0.0
H2681 H 0.74518 0.10409 0.94771 0.0
H2682 H 0.77823 0.12318 0.84006 0.0
H2683 H 0.76773 0.12985 0.90458 0.0
H2684 H 0.84187 0.11115 0.55022 0.0
H2685 H 0.88273 0.09541 0.51647 0.0
H2686 H 0.85173 0.07438 0.62652 0.0
H2687 H 0.87536 0.07626 0.57809 0.0
Tb2688 Tb 0.9144 0.70067 0.74133 0.0
C2689 C 0.93615 0.78003 0.72017 0.0
C2690 C 0.91191 0.78338 0.75363 0.0
C2691 C 0.94429 0.80837 0.7582 0.0
C2692 C 0.91768 0.77276 0.73043 0.0
C2693 C 0.94961 0.79824 0.73241 0.0
C2694 C 0.92542 0.80091 0.76891 0.0
C2695 C 0.97177 0.79586 0.68836 0.0
N2696 N 0.94061 0.76969 0.69541 0.0
C2697 C 0.95783 0.7778 0.67711 0.0
C2698 C 0.96777 0.80594 0.71692 0.0
Tb2699 Tb 0.91756 0.73914 0.68407 0.0
N2700 N 0.90519 0.756 0.71423 0.0
C2701 C 0.88647 0.75037 0.71576 0.0
C2702 C 0.89274 0.77646 0.75914 0.0
C2703 C 0.87997 0.76012 0.73908 0.0
H2704 H 0.96104 0.76983 0.65579 0.0
H2705 H 0.8651 0.7552 0.7409 0.0
H2706 H 0.92132 0.80912 0.78744 0.0
H2707 H 0.98562 0.80195 0.67524 0.0
H2708 H 0.87629 0.73867 0.69832 0.0
H2709 H 0.97547 0.70536 0.66411 0.0
H2710 H 0.8877 0.78413 0.77681 0.0
H2711 H 0.87147 0.66399 0.75499 0.0
H2712 H 0.95733 0.71819 0.69343 0.0
H2713 H 0.8554 0.62999 0.74537 0.0
H2714 H 0.95449 0.82225 0.76867 0.0
H2715 H 0.96194 0.67121 0.65728 0.0
H2716 H 0.93451 0.63912 0.66545 0.0
H2717 H 0.97857 0.81991 0.72556 0.0
H2718 H 0.90184 0.61873 0.68618 0.0
N2719 N 0.93332 0.6915 0.70783 0.0
C2720 C 0.95105 0.70318 0.69318 0.0
C2721 C 0.95379 0.67672 0.67128 0.0
C2722 C 0.93545 0.6648 0.68413 0.0
C2723 C 0.96149 0.69597 0.67527 0.0
C2724 C 0.92536 0.67267 0.70206 0.0
H2725 H 0.87227 0.61521 0.71513 0.0
N2726 N 0.89717 0.66908 0.7284 0.0
C2727 C 0.86979 0.63855 0.73566 0.0
C2728 C 0.90679 0.66114 0.71283 0.0
C2729 C 0.87897 0.65794 0.74065 0.0
C2730 C 0.87937 0.63028 0.71879 0.0
C2731 C 0.89808 0.64154 0.70724 0.0
O2732 O 0.89711 0.68936 0.79244 0.0
O2733 O 0.9077 0.72318 0.73918 0.0
O2734 O 0.94239 0.74976 0.72747 0.0
O2735 O 0.94341 0.72312 0.74773 0.0
O2736 O 0.91809 0.71979 0.79152 0.0
O2737 O 0.92474 0.69181 0.78933 0.0
O2738 O 0.92495 0.74876 0.62377 0.0
O2739 O 0.91468 0.71153 0.68203 0.0
O2740 O 0.88803 0.69075 0.70765 0.0
O2741 O 0.888 0.71838 0.69523 0.0
O2742 O 0.93281 0.73003 0.64273 0.0
O2743 O 0.89665 0.73693 0.64353 0.0
C2744 C 0.91174 0.72949 0.77498 0.0
C2745 C 0.90338 0.67028 0.83746 0.0
C2746 C 0.91085 0.65614 0.89418 0.0
C2747 C 0.91644 0.67021 0.86475 0.0
C2748 C 0.89206 0.64161 0.89494 0.0
C2749 C 0.88451 0.65616 0.84007 0.0
C2750 C 0.87902 0.64165 0.86799 0.0
C2751 C 0.95065 0.74152 0.74706 0.0
C2752 C 0.90962 0.68668 0.81103 0.0
C2753 C 0.90827 0.63373 0.69051 0.0
C2754 C 0.92689 0.64534 0.67886 0.0
C2755 C 0.92421 0.71243 0.65136 0.0
C2756 C 0.90542 0.75732 0.58693 0.0
C2757 C 0.89435 0.75078 0.55121 0.0
C2758 C 0.89186 0.76323 0.52571 0.0
C2759 C 0.90089 0.7823 0.53665 0.0
C2760 C 0.91406 0.77636 0.59689 0.0
C2761 C 0.91184 0.78874 0.57177 0.0
C2762 C 0.87919 0.69987 0.69741 0.0
C2763 C 0.90798 0.74417 0.61315 0.0
H2764 H 0.93084 0.68161 0.86426 0.0
H2765 H 0.8872 0.63077 0.91784 0.0
H2766 H 0.87385 0.65652 0.82168 0.0
H2767 H 0.86446 0.6308 0.86984 0.0
H2768 H 0.8876 0.73603 0.54359 0.0
H2769 H 0.89977 0.7924 0.51761 0.0
H2770 H 0.9226 0.78166 0.62398 0.0
H2771 H 0.91872 0.80347 0.57947 0.0
Tb2772 Tb 0.87864 0.63192 0.3225 0.0
C2773 C 0.82193 0.55109 0.34447 0.0
C2774 C 0.79379 0.5474 0.31283 0.0
C2775 C 0.80091 0.52219 0.30901 0.0
C2776 C 0.81062 0.55834 0.33449 0.0
C2777 C 0.8169 0.53268 0.33319 0.0
C2778 C 0.78937 0.52957 0.29877 0.0
C2779 C 0.84255 0.53572 0.37441 0.0
N2780 N 0.83727 0.56174 0.36767 0.0
C2781 C 0.84697 0.55397 0.38476 0.0
C2782 C 0.82771 0.52518 0.3478 0.0
Tb2783 Tb 0.84493 0.5924 0.37744 0.0
N2784 N 0.81537 0.57553 0.349 0.0
C2785 C 0.80233 0.5812 0.34812 0.0
C2786 C 0.78155 0.55436 0.3076 0.0
C2787 C 0.78559 0.5711 0.32647 0.0
H2788 H 0.85875 0.56228 0.40452 0.0
H2789 H 0.77564 0.57603 0.32519 0.0
H2790 H 0.77669 0.5211 0.28144 0.0
H2791 H 0.85068 0.52985 0.3867 0.0
H2792 H 0.80415 0.59303 0.36543 0.0
H2793 H 0.93203 0.61815 0.38193 0.0
H2794 H 0.76848 0.54643 0.2912 0.0
H2795 H 0.87697 0.67104 0.31566 0.0
H2796 H 0.9005 0.60943 0.358 0.0
H2797 H 0.89787 0.7047 0.32723 0.0
H2798 H 0.79698 0.50813 0.29935 0.0
H2799 H 0.95602 0.65151 0.39044 0.0
H2800 H 0.96456 0.68533 0.38681 0.0
H2801 H 0.82433 0.51107 0.33982 0.0
H2802 H 0.95514 0.70883 0.37304 0.0
N2803 N 0.90638 0.63761 0.35156 0.0
C2804 C 0.91077 0.62407 0.3607 0.0
C2805 C 0.94216 0.64778 0.37962 0.0
C2806 C 0.93752 0.66158 0.37109 0.0
C2807 C 0.92867 0.62894 0.37479 0.0
C2808 C 0.91928 0.65596 0.35714 0.0
H2809 H 0.93018 0.71618 0.35197 0.0
N2810 N 0.89608 0.66305 0.33826 0.0
C2811 C 0.90254 0.69487 0.33444 0.0
C2812 C 0.914 0.66916 0.34983 0.0
C2813 C 0.89048 0.67568 0.32903 0.0
C2814 C 0.92078 0.70128 0.34804 0.0
C2815 C 0.92678 0.6884 0.35563 0.0
O2816 O 0.87613 0.64617 0.27358 0.0
O2817 O 0.85259 0.60522 0.31726 0.0
O2818 O 0.85866 0.58171 0.3329 0.0
O2819 O 0.88175 0.60832 0.29976 0.0
O2820 O 0.85426 0.62835 0.29013 0.0
O2821 O 0.89784 0.63807 0.2735 0.0
O2822 O 0.84376 0.58262 0.43709 0.0
O2823 O 0.86911 0.62026 0.38196 0.0
O2824 O 0.86446 0.6413 0.36514 0.0
O2825 O 0.83622 0.6137 0.37085 0.0
O2826 O 0.8695 0.60106 0.41781 0.0
O2827 O 0.82589 0.59337 0.41918 0.0
C2828 C 0.84374 0.61054 0.2939 0.0
C2829 C 0.89648 0.65678 0.21633 0.0
C2830 C 0.91521 0.66491 0.15505 0.0
C2831 C 0.90869 0.65433 0.19071 0.0
C2832 C 0.90913 0.6776 0.14484 0.0
C2833 C 0.89053 0.66951 0.20558 0.0
C2834 C 0.89681 0.6798 0.16993 0.0
C2835 C 0.87267 0.58995 0.30585 0.0
C2836 C 0.8903 0.64676 0.25495 0.0
C2837 C 0.94508 0.69412 0.36864 0.0
C2838 C 0.95044 0.68073 0.37641 0.0
C2839 C 0.87794 0.61892 0.412 0.0
C2840 C 0.81626 0.57315 0.47698 0.0
C2841 C 0.81119 0.57962 0.51219 0.0
C2842 C 0.79789 0.5668 0.54036 0.0
C2843 C 0.79025 0.54751 0.53252 0.0
C2844 C 0.80795 0.55386 0.47011 0.0
C2845 C 0.79513 0.54119 0.49781 0.0
C2846 C 0.846 0.63229 0.37038 0.0
C2847 C 0.83098 0.58653 0.44893 0.0
H2848 H 0.91315 0.64437 0.19846 0.0
H2849 H 0.91359 0.68549 0.11682 0.0
H2850 H 0.88112 0.67166 0.22486 0.0
H2851 H 0.89208 0.68948 0.16169 0.0
H2852 H 0.81756 0.59455 0.51743 0.0
H2853 H 0.78063 0.53712 0.55363 0.0
H2854 H 0.81162 0.54859 0.44362 0.0
H2855 H 0.78904 0.52631 0.49258 0.0
Tb2856 Tb 0.35935 0.24209 0.32065 0.0
C2857 C 0.44146 0.26524 0.34329 0.0
C2858 C 0.44482 0.24177 0.30597 0.0
C2859 C 0.47135 0.27328 0.31242 0.0
C2860 C 0.43377 0.24723 0.32852 0.0
C2861 C 0.46044 0.2784 0.33615 0.0
C2862 C 0.46353 0.25499 0.2973 0.0
C2863 C 0.45666 0.30026 0.37846 0.0
N2864 N 0.43041 0.26972 0.36563 0.0
C2865 C 0.43786 0.28672 0.38457 0.0
C2866 C 0.46794 0.29617 0.35372 0.0
Tb2867 Tb 0.39974 0.24693 0.37249 0.0
N2868 N 0.41567 0.23488 0.33772 0.0
C2869 C 0.40827 0.2164 0.32746 0.0
C2870 C 0.43689 0.2231 0.29363 0.0
C2871 C 0.41859 0.21031 0.30497 0.0
H2872 H 0.42908 0.28994 0.40334 0.0
H2873 H 0.41233 0.19575 0.2961 0.0
H2874 H 0.47218 0.25111 0.27969 0.0
H2875 H 0.46244 0.31387 0.39272 0.0
H2876 H 0.39414 0.20626 0.33476 0.0
H2877 H 0.36595 0.30462 0.38975 0.0
H2878 H 0.44486 0.21835 0.27615 0.0
H2879 H 0.32281 0.20085 0.30196 0.0
H2880 H 0.37755 0.28543 0.35809 0.0
H2881 H 0.28865 0.18439 0.31379 0.0
H2882 H 0.48592 0.28325 0.30622 0.0
H2883 H 0.33221 0.2909 0.40478 0.0
H2884 H 0.29965 0.26308 0.4015 0.0
H2885 H 0.48247 0.30669 0.349 0.0
H2886 H 0.27865 0.23024 0.38169 0.0
N2887 N 0.35073 0.26062 0.35577 0.0
C2888 C 0.36279 0.27908 0.36444 0.0
C2889 C 0.33726 0.28226 0.39128 0.0
C2890 C 0.32494 0.26346 0.38189 0.0
C2891 C 0.35629 0.29007 0.38269 0.0
C2892 C 0.33225 0.25285 0.36437 0.0
H2893 H 0.27443 0.20065 0.34965 0.0
N2894 N 0.32813 0.22511 0.33527 0.0
C2895 C 0.29745 0.19835 0.32579 0.0
C2896 C 0.32054 0.23439 0.35391 0.0
C2897 C 0.31683 0.20755 0.31984 0.0
C2898 C 0.2895 0.20759 0.34598 0.0
C2899 C 0.30102 0.22596 0.35969 0.0
O2900 O 0.34634 0.23143 0.26435 0.0
O2901 O 0.38499 0.24121 0.31471 0.0
O2902 O 0.41105 0.27078 0.32686 0.0
O2903 O 0.38363 0.26969 0.30496 0.0
O2904 O 0.36142 0.22061 0.2864 0.0
O2905 O 0.35919 0.26097 0.27868 0.0
O2906 O 0.40857 0.25315 0.43341 0.0
O2907 O 0.37291 0.24519 0.37751 0.0
O2908 O 0.34949 0.21729 0.3586 0.0
O2909 O 0.37739 0.21727 0.37121 0.0
O2910 O 0.3921 0.26292 0.41606 0.0
O2911 O 0.40047 0.226 0.40832 0.0
C2912 C 0.3791 0.22706 0.29126 0.0
C2913 C 0.33439 0.2489 0.23222 0.0
C2914 C 0.32449 0.25998 0.17451 0.0
C2915 C 0.33873 0.25977 0.1973 0.0
C2916 C 0.30592 0.25009 0.18849 0.0
C2917 C 0.31579 0.23892 0.24571 0.0
C2918 C 0.30165 0.23971 0.22415 0.0
C2919 C 0.40218 0.27759 0.30444 0.0
C2920 C 0.34961 0.24785 0.25229 0.0
C2921 C 0.29361 0.23639 0.37729 0.0
C2922 C 0.30556 0.2551 0.38846 0.0
C2923 C 0.3744 0.25491 0.40829 0.0
C2924 C 0.41869 0.23461 0.46943 0.0
C2925 C 0.41182 0.22357 0.50518 0.0
C2926 C 0.42422 0.22196 0.53261 0.0
C2927 C 0.4435 0.23186 0.52387 0.0
C2928 C 0.43799 0.24426 0.46188 0.0
C2929 C 0.45027 0.24293 0.48906 0.0
C2930 C 0.35879 0.2088 0.37056 0.0
C2931 C 0.40567 0.23635 0.44098 0.0
H2932 H 0.35312 0.26732 0.18672 0.0
H2933 H 0.29456 0.24953 0.17082 0.0
H2934 H 0.31203 0.23035 0.27226 0.0
H2935 H 0.28728 0.23175 0.23437 0.0
H2936 H 0.3969 0.21607 0.51125 0.0
H2937 H 0.45343 0.23113 0.54429 0.0
H2938 H 0.44354 0.25288 0.43505 0.0
H2939 H 0.46518 0.25051 0.4831 0.0
Tb2940 Tb 0.75083 0.11216 0.31852 0.0
C2941 C 0.72919 0.172 0.3356 0.0
C2942 C 0.75309 0.19917 0.30026 0.0
C2943 C 0.72157 0.19427 0.30515 0.0
C2944 C 0.74731 0.18237 0.32194 0.0
C2945 C 0.71619 0.17806 0.32833 0.0
C2946 C 0.74001 0.20481 0.2911 0.0
C2947 C 0.69429 0.15287 0.37122 0.0
N2948 N 0.72461 0.15654 0.35819 0.0
C2949 C 0.70773 0.14748 0.37771 0.0
C2950 C 0.69843 0.16804 0.34589 0.0
Tb2951 Tb 0.7475 0.14886 0.36808 0.0
N2952 N 0.75955 0.17661 0.33219 0.0
C2953 C 0.77817 0.18786 0.32334 0.0
C2954 C 0.77195 0.21016 0.28977 0.0
C2955 C 0.7846 0.2046 0.30195 0.0
H2956 H 0.70453 0.13575 0.39732 0.0
H2957 H 0.79932 0.21311 0.29465 0.0
H2958 H 0.74415 0.21758 0.27425 0.0
H2959 H 0.68075 0.14535 0.38581 0.0
H2960 H 0.78836 0.18406 0.33143 0.0
H2961 H 0.68265 0.06255 0.38417 0.0
H2962 H 0.77697 0.22316 0.27325 0.0
H2963 H 0.79137 0.11223 0.31994 0.0
H2964 H 0.70544 0.09232 0.35504 0.0
H2965 H 0.80279 0.09127 0.34025 0.0
H2966 H 0.71174 0.19907 0.29893 0.0
H2967 H 0.69157 0.03898 0.4019 0.0
H2968 H 0.71639 0.03015 0.40671 0.0
H2969 H 0.68804 0.17225 0.3411 0.0
H2970 H 0.74911 0.03826 0.39657 0.0
N2971 N 0.72756 0.08576 0.35108 0.0
C2972 C 0.70976 0.08213 0.35985 0.0
C2973 C 0.70178 0.05205 0.38803 0.0
C2974 C 0.72019 0.05616 0.38178 0.0
C2975 C 0.69666 0.06525 0.37776 0.0
C2976 C 0.73303 0.07348 0.36393 0.0
H2977 H 0.78133 0.06099 0.37263 0.0
N2978 N 0.76382 0.09526 0.34398 0.0
C2979 C 0.78846 0.08756 0.34677 0.0
C2980 C 0.75167 0.07836 0.3601 0.0
C2981 C 0.78192 0.09964 0.33602 0.0
C2982 C 0.7763 0.07049 0.3648 0.0
C2983 C 0.75765 0.06562 0.37141 0.0
O2984 O 0.77194 0.11819 0.27557 0.0
O2985 O 0.75843 0.14156 0.31565 0.0
O2986 O 0.7227 0.13436 0.3242 0.0
O2987 O 0.72336 0.10788 0.2991 0.0
O2988 O 0.74812 0.12571 0.26404 0.0
O2989 O 0.74656 0.09094 0.27769 0.0
O2990 O 0.74131 0.15129 0.42928 0.0
O2991 O 0.74966 0.12397 0.37501 0.0
O2992 O 0.77626 0.12832 0.35572 0.0
O2993 O 0.77711 0.15655 0.366 0.0
O2994 O 0.73143 0.12557 0.4117 0.0
O2995 O 0.76779 0.17108 0.40378 0.0
C2996 C 0.75473 0.14229 0.27846 0.0
C2997 C 0.76243 0.10056 0.21443 0.0
C2998 C 0.7476 0.08515 0.15114 0.0
C2999 C 0.74631 0.0878 0.19267 0.0
C3000 C 0.76483 0.09553 0.13114 0.0
C3001 C 0.77956 0.11083 0.19396 0.0
C3002 C 0.78071 0.10837 0.15246 0.0
C3003 C 0.71557 0.11871 0.30117 0.0
C3004 C 0.76235 0.10163 0.25892 0.0
C3005 C 0.74477 0.04822 0.38792 0.0
C3006 C 0.72613 0.04356 0.39341 0.0
C3007 C 0.73953 0.11587 0.40521 0.0
C3008 C 0.75881 0.18037 0.46425 0.0
C3009 C 0.76895 0.18412 0.50109 0.0
C3010 C 0.77036 0.19811 0.5284 0.0
C3011 C 0.7613 0.20816 0.51744 0.0
C3012 C 0.74985 0.19049 0.45473 0.0
C3013 C 0.7511 0.20429 0.48125 0.0
C3014 C 0.78531 0.14625 0.36643 0.0
C3015 C 0.75771 0.16572 0.43651 0.0
H3016 H 0.73301 0.07953 0.20795 0.0
H3017 H 0.766 0.09354 0.09899 0.0
H3018 H 0.7922 0.12042 0.21029 0.0
H3019 H 0.79399 0.11618 0.13695 0.0
H3020 H 0.77547 0.17589 0.5085 0.0
H3021 H 0.76225 0.21932 0.53642 0.0
H3022 H 0.74195 0.18776 0.4268 0.0
H3023 H 0.74421 0.21215 0.47361 0.0
H3024 H 0.08694 0.39698 0.93177 0.0
H3025 H 0.10529 0.46642 0.12333 0.0
H3026 H 0.14326 0.43423 0.97267 0.0
H3027 H 0.05158 0.42531 0.07505 0.0
H3028 H 0.12056 0.45699 0.07047 0.0
H3029 H 0.07517 0.40956 0.98342 0.0
C3030 C 0.09699 0.40804 0.95128 0.0
C3031 C 0.11627 0.41449 0.94681 0.0
C3032 C 0.10543 0.45006 0.07163 0.0
C3033 C 0.10244 0.4291 1.00879 0.0
C3034 C 0.09662 0.45542 0.10214 0.0
C3035 C 0.07684 0.44662 0.10495 0.0
C3036 C 0.09449 0.43592 0.04293 0.0
C3037 C 0.06673 0.43257 0.07556 0.0
C3038 C 0.09015 0.41523 0.98136 0.0
C3039 C 0.12831 0.42888 0.974 0.0
N3040 N 0.07552 0.42787 0.04655 0.0
N3041 N 0.12125 0.43554 1.00375 0.0
H3042 H 0.55664 0.70266 0.96381 0.0
H3043 H 0.5567 0.61387 0.06679 0.0
H3044 H 0.59402 0.68231 0.93264 0.0
H3045 H 0.52943 0.64006 0.12748 0.0
H3046 H 0.56658 0.6369 1.0134 0.0
H3047 H 0.54328 0.67887 1.0184 0.0
C3048 C 0.56181 0.693 0.9677 0.0
C3049 C 0.57652 0.69461 0.94279 0.0
C3050 C 0.55858 0.6379 0.03834 0.0
C3051 C 0.56109 0.66701 1.00591 0.0
C3052 C 0.55294 0.62463 0.06958 0.0
C3053 C 0.54254 0.62495 0.10329 0.0
C3054 C 0.55393 0.65212 0.0394 0.0
C3055 C 0.53756 0.63911 0.10278 0.0
C3056 C 0.55425 0.67947 0.99932 0.0
C3057 C 0.58271 0.68175 0.95042 0.0
N3058 N 0.54337 0.65212 0.0717 0.0
N3059 N 0.575 0.66868 0.98065 0.0
H3060 H 0.36404 0.94032 0.0968 0.0
H3061 H 0.29102 0.8509 0.96185 0.0
H3062 H 0.36098 0.88697 0.11303 0.0
H3063 H 0.30241 0.90761 0.94802 0.0
H3064 H 0.31533 0.86188 1.01591 0.0
H3065 H 0.34085 0.92701 0.04339 0.0
C3066 C 0.35845 0.92566 0.0897 0.0
C3067 C 0.36487 0.91499 0.11076 0.0
C3068 C 0.3126 0.87193 1.00078 0.0
C3069 C 0.33715 0.89906 0.04705 0.0
C3070 C 0.29872 0.86566 0.96944 0.0
C3071 C 0.29436 0.87822 0.94937 0.0
C3072 C 0.32243 0.89101 1.01265 0.0
C3073 C 0.30489 0.89714 0.9619 0.0
C3074 C 0.345 0.91798 0.05848 0.0
C3075 C 0.35667 0.89598 0.09844 0.0
N3076 N 0.31807 0.90275 0.9921 0.0
N3077 N 0.34333 0.88869 0.06783 0.0
H3078 H 0.42102 0.05676 0.61762 0.0
H3079 H 0.4394 0.13921 0.77535 0.0
H3080 H 0.47547 0.10644 0.62353 0.0
H3081 H 0.39252 0.08289 0.77745 0.0
H3082 H 0.45332 0.12987 0.7197 0.0
H3083 H 0.41053 0.06866 0.67286 0.0
C3084 C 0.43086 0.07034 0.63016 0.0
C3085 C 0.44931 0.08044 0.61516 0.0
C3086 C 0.44009 0.11954 0.73271 0.0
C3087 C 0.43703 0.09447 0.68058 0.0
C3088 C 0.43219 0.12482 0.76496 0.0
C3089 C 0.41465 0.11187 0.78183 0.0
C3090 C 0.43035 0.10116 0.71675 0.0
C3091 C 0.40596 0.09354 0.76589 0.0
C3092 C 0.42479 0.07715 0.66227 0.0
C3093 C 0.46109 0.09809 0.63341 0.0
N3094 N 0.41373 0.08891 0.73463 0.0
N3095 N 0.45481 0.10449 0.66507 0.0
H3096 H 0.89504 0.37481 0.64306 0.0
H3097 H 0.88753 0.28009 0.73194 0.0
H3098 H 0.92948 0.35194 0.60501 0.0
H3099 H 0.86584 0.30951 0.80058 0.0
H3100 H 0.89869 0.30426 0.6804 0.0
H3101 H 0.88067 0.34994 0.69522 0.0
C3102 C 0.89934 0.36438 0.645 0.0
C3103 C 0.91351 0.36554 0.61898 0.0
C3104 C 0.89163 0.30568 0.7067 0.0
C3105 C 0.89685 0.33669 0.67897 0.0
C3106 C 0.8853 0.29178 0.73675 0.0
C3107 C 0.87615 0.29274 0.77204 0.0
C3108 C 0.88887 0.3211 0.71077 0.0
C3109 C 0.87295 0.30805 0.77444 0.0
C3110 C 0.8912 0.35023 0.67516 0.0
C3111 C 0.91864 0.35173 0.62393 0.0
N3112 N 0.87938 0.32162 0.74455 0.0
N3113 N 0.91031 0.338 0.65271 0.0
H3114 H 0.62927 0.57274 0.63095 0.0
H3115 H 0.69834 0.55338 0.77075 0.0
H3116 H 0.62887 0.52039 0.61989 0.0
H3117 H 0.68671 0.59853 0.78587 0.0
H3118 H 0.67453 0.54054 0.7158 0.0
H3119 H 0.65166 0.58189 0.68558 0.0
C3120 C 0.63386 0.56302 0.63962 0.0
C3121 C 0.62667 0.54554 0.61994 0.0
C3122 C 0.67709 0.55314 0.73148 0.0
C3123 C 0.65349 0.55651 0.68454 0.0
C3124 C 0.69064 0.56045 0.76324 0.0
C3125 C 0.69474 0.57718 0.78366 0.0
C3126 C 0.6675 0.56262 0.71967 0.0
C3127 C 0.68433 0.58571 0.77151 0.0
C3128 C 0.64687 0.56839 0.67141 0.0
C3129 C 0.63383 0.53402 0.63357 0.0
N3130 N 0.67152 0.57847 0.74076 0.0
N3131 N 0.64678 0.53968 0.66476 0.0
H3132 H 0.86184 0.58189 0.22608 0.0
H3133 H 0.9359 0.54904 0.16906 0.0
H3134 H 0.89473 0.57328 0.31568 0.0
H3135 H 0.89131 0.53931 0.08677 0.0
H3136 H 0.92169 0.55907 0.2211 0.0
H3137 H 0.87253 0.56769 0.1743 0.0
C3138 C 0.87099 0.57663 0.23518 0.0
C3139 C 0.87693 0.57847 0.27598 0.0
C3140 C 0.91487 0.55472 0.19184 0.0
C3141 C 0.89003 0.56262 0.21557 0.0
C3142 C 0.92308 0.54901 0.16165 0.0
C3143 C 0.91505 0.54332 0.12267 0.0
C3144 C 0.8984 0.5553 0.18366 0.0
C3145 C 0.89816 0.54346 0.11602 0.0
C3146 C 0.87721 0.56858 0.20534 0.0
C3147 C 0.88936 0.57188 0.28513 0.0
N3148 N 0.89062 0.54955 0.14576 0.0
N3149 N 0.89552 0.56448 0.25543 0.0
H3150 H 0.44115 0.30197 0.28744 0.0
H3151 H 0.41771 0.35319 0.10438 0.0
H3152 H 0.38636 0.28965 0.24701 0.0
H3153 H 0.47503 0.36941 0.13094 0.0
H3154 H 0.40735 0.32927 0.15651 0.0
H3155 H 0.45503 0.32614 0.23318 0.0
C3156 C 0.43195 0.30421 0.26766 0.0
C3157 C 0.41228 0.29342 0.27311 0.0
C3158 C 0.42225 0.33788 0.15122 0.0
C3159 C 0.42829 0.32116 0.20953 0.0
C3160 C 0.42826 0.35167 0.12084 0.0
C3161 C 0.4474 0.36369 0.1124 0.0
C3162 C 0.43527 0.33567 0.17495 0.0
C3163 C 0.46012 0.3606 0.1357 0.0
C3164 C 0.43995 0.31806 0.23633 0.0
C3165 C 0.40145 0.29727 0.24549 0.0
N3166 N 0.45389 0.34713 0.16588 0.0
N3167 N 0.40947 0.31046 0.21571 0.0
H3168 H 0.64206 0.06743 0.09236 0.0
H3169 H 0.68576 0.12694 0.29975 0.0
H3170 H 0.6171 0.0969 0.14822 0.0
H3171 H 0.70933 0.09946 0.23003 0.0
H3172 H 0.66086 0.11735 0.24738 0.0
H3173 H 0.66708 0.08056 0.14298 0.0
C3174 C 0.64191 0.07688 0.11503 0.0
C3175 C 0.62733 0.08108 0.11514 0.0
C3176 C 0.67155 0.1135 0.2436 0.0
C3177 C 0.65619 0.09596 0.17586 0.0
C3178 C 0.68585 0.11899 0.27371 0.0
C3179 C 0.69982 0.11385 0.27038 0.0
C3180 C 0.67121 0.10296 0.20928 0.0
C3181 C 0.6989 0.10355 0.23525 0.0
C3182 C 0.65626 0.08434 0.14445 0.0
C3183 C 0.62807 0.09336 0.14615 0.0
N3184 N 0.68512 0.09858 0.20679 0.0
N3185 N 0.64202 0.10015 0.17528 0.0
H3186 H 0.55639 0.85291 0.45509 0.0
H3187 H 0.57273 0.93894 0.60097 0.0
H3188 H 0.60173 0.90985 0.44641 0.0
H3189 H 0.52014 0.88705 0.60524 0.0
H3190 H 0.58302 0.92652 0.5466 0.0
H3191 H 0.54236 0.86291 0.5095 0.0
C3192 C 0.56329 0.86753 0.46383 0.0
C3193 C 0.58047 0.88045 0.4453 0.0
C3194 C 0.56922 0.91764 0.5592 0.0
C3195 C 0.56446 0.89205 0.50897 0.0
C3196 C 0.56319 0.92481 0.59086 0.0
C3197 C 0.54529 0.9143 0.60867 0.0
C3198 C 0.5576 0.8994 0.54415 0.0
C3199 C 0.53405 0.89588 0.59317 0.0
C3200 C 0.55529 0.87323 0.49536 0.0
C3201 C 0.58862 0.89915 0.45916 0.0
N3202 N 0.54035 0.88908 0.56213 0.0
N3203 N 0.58073 0.90419 0.48962 0.0
H3204 H 0.05446 0.62884 0.59752 0.0
H3205 H 0.14145 0.70004 0.45963 0.0
H3206 H 0.10767 0.63126 0.61182 0.0
H3207 H 0.08321 0.67973 0.43299 0.0
H3208 H 0.13175 0.67731 0.5164 0.0
H3209 H 0.06693 0.65012 0.54087 0.0
C3210 C 0.06889 0.63386 0.58918 0.0
C3211 C 0.0798 0.62778 0.61021 0.0
C3212 C 0.12114 0.67769 0.49768 0.0
C3213 C 0.09466 0.65318 0.54353 0.0
C3214 C 0.12668 0.69059 0.4649 0.0
C3215 C 0.11319 0.692 0.44099 0.0
C3216 C 0.10195 0.66615 0.50694 0.0
C3217 C 0.09425 0.67942 0.45019 0.0
C3218 C 0.07607 0.64617 0.55626 0.0
C3219 C 0.09858 0.63541 0.59709 0.0
N3220 N 0.08934 0.66738 0.48215 0.0
N3221 N 0.1054 0.64768 0.56483 0.0
H3222 H 0.3528 0.42018 0.62476 0.0
H3223 H 0.30979 0.44756 0.4325 0.0
H3224 H 0.37286 0.47799 0.59495 0.0
H3225 H 0.29469 0.39177 0.47062 0.0
H3226 H 0.33197 0.46009 0.49072 0.0
H3227 H 0.32999 0.4107 0.57008 0.0
C3228 C 0.35233 0.431 0.60699 0.0
C3229 C 0.3651 0.45 0.61496 0.0
C3230 C 0.32372 0.4451 0.48622 0.0
C3231 C 0.33872 0.43899 0.54981 0.0
C3232 C 0.31105 0.43791 0.45279 0.0
C3233 C 0.30032 0.41843 0.44556 0.0
C3234 C 0.32547 0.43274 0.51335 0.0
C3235 C 0.30267 0.40682 0.47361 0.0
C3236 C 0.33926 0.42552 0.57521 0.0
C3237 C 0.36348 0.46318 0.59027 0.0
N3238 N 0.31471 0.41406 0.50563 0.0
N3239 N 0.35078 0.45747 0.5587 0.0
H3240 H 0.76675 0.72286 0.32199 0.0
H3241 H 0.76664 0.81209 0.42416 0.0
H3242 H 0.79561 0.77659 0.26283 0.0
H3243 H 0.73254 0.75465 0.46114 0.0
H3244 H 0.77974 0.80163 0.36884 0.0
H3245 H 0.75698 0.73616 0.37502 0.0
C3246 C 0.77098 0.7375 0.31934 0.0
C3247 C 0.78195 0.74824 0.28616 0.0
C3248 C 0.76953 0.79134 0.38931 0.0
C3249 C 0.7704 0.76422 0.34999 0.0
C3250 C 0.7621 0.79735 0.42137 0.0
C3251 C 0.74836 0.78434 0.44822 0.0
C3252 C 0.76348 0.77211 0.38399 0.0
C3253 C 0.74304 0.76539 0.44188 0.0
C3254 C 0.76531 0.74522 0.3505 0.0
C3255 C 0.78709 0.76745 0.28696 0.0
N3256 N 0.75053 0.76002 0.4111 0.0
N3257 N 0.78125 0.77473 0.31797 0.0
H3258 H 0.18868 0.96982 0.44812 0.0
H3259 H 0.26832 0.02651 0.27929 0.0
H3260 H 0.24327 0.97471 0.44327 0.0
H3261 H 0.2242 0.03953 0.29658 0.0
H3262 H 0.25592 0.0044 0.33499 0.0
H3263 H 0.19824 0.99261 0.39128 0.0
C3264 C 0.20268 0.97574 0.43581 0.0
C3265 C 0.2151 0.97012 0.45157 0.0
C3266 C 0.24878 0.01196 0.32685 0.0
C3267 C 0.226 0.99599 0.38499 0.0
C3268 C 0.25591 0.02474 0.29454 0.0
C3269 C 0.24758 0.03535 0.28262 0.0
C3270 C 0.23285 0.0092 0.34841 0.0
C3271 C 0.23125 0.03181 0.30417 0.0
C3272 C 0.2081 0.98872 0.403 0.0
C3273 C 0.23298 0.97832 0.43316 0.0
N3274 N 0.22448 0.01916 0.33585 0.0
N3275 N 0.23766 0.99044 0.40134 0.0
H3276 H 0.96702 0.24249 0.28682 0.0
H3277 H 0.02863 0.21878 0.44057 0.0
H3278 H 0.95999 0.18701 0.28723 0.0
H3279 H 0.01848 0.2651 0.45171 0.0
H3280 H 0.00631 0.20688 0.38273 0.0
H3281 H 0.98898 0.25119 0.34259 0.0
C3282 C 0.97019 0.23205 0.29814 0.0
C3283 C 0.96128 0.21384 0.28144 0.0
C3284 C 0.00891 0.21957 0.3981 0.0
C3285 C 0.9872 0.22409 0.34756 0.0
C3286 C 0.02164 0.22637 0.43143 0.0
C3287 C 0.02566 0.2431 0.45182 0.0
C3288 C 0.00024 0.22966 0.38436 0.0
C3289 C 0.01613 0.25224 0.43763 0.0
C3290 C 0.98283 0.2371 0.33061 0.0
C3291 C 0.96643 0.20125 0.29841 0.0
N3292 N 0.00421 0.24555 0.4052 0.0
N3293 N 0.97894 0.20656 0.33038 0.0
H3294 H 0.27194 0.23457 0.81106 0.0
H3295 H 0.18271 0.22719 0.92995 0.0
H3296 H 0.21606 0.19798 0.76605 0.0
H3297 H 0.24068 0.26493 0.95855 0.0
H3298 H 0.19274 0.2142 0.87366 0.0
H3299 H 0.25917 0.24326 0.86726 0.0
C3300 C 0.25687 0.22846 0.81229 0.0
C3301 C 0.24528 0.2157 0.78217 0.0
C3302 C 0.20325 0.22517 0.89259 0.0
C3303 C 0.23008 0.22598 0.84924 0.0
C3304 C 0.1975 0.23257 0.92508 0.0
C3305 C 0.21078 0.24742 0.94952 0.0
C3306 C 0.2225 0.23237 0.88457 0.0
C3307 C 0.22977 0.25363 0.94101 0.0
C3308 C 0.2495 0.23347 0.84517 0.0
C3309 C 0.22575 0.20803 0.78771 0.0
N3310 N 0.2349 0.24619 0.9098 0.0
N3311 N 0.21882 0.21339 0.82017 0.0
H3312 H 0.80308 0.02648 0.77358 0.0
H3313 H 0.73076 0.97703 0.96013 0.0
H3314 H 0.75698 0.03461 0.80705 0.0
H3315 H 0.77203 0.96113 0.93256 0.0
H3316 H 0.74291 -0.0002 0.90553 0.0
H3317 H 0.7942 0.00365 0.83028 0.0
C3318 C 0.7911 0.0235 0.79225 0.0
C3319 C 0.78076 0.03264 0.78431 0.0
C3320 C 0.74952 0.99149 0.91115 0.0
C3321 C 0.7708 0.00675 0.85048 0.0
C3322 C 0.74257 0.97842 0.94289 0.0
C3323 C 0.75024 0.96692 0.95162 0.0
C3324 C 0.76435 0.99334 0.8866 0.0
C3325 C 0.76564 0.96968 0.9275 0.0
C3326 C 0.78609 0.01049 0.82492 0.0
C3327 C 0.76548 0.02808 0.81055 0.0
N3328 N 0.77206 0.98242 0.89604 0.0
N3329 N 0.76119 0.0158 0.84179 0.0
H3330 H 0.04073 0.76078 0.90973 0.0
H3331 H 0.96014 0.77277 0.79714 0.0
H3332 H 0.02623 0.80101 0.95531 0.0
H3333 H 0.97865 0.73403 0.76458 0.0
H3334 H 0.9839 0.78504 0.85232 0.0
H3335 H 0.01834 0.75275 0.85588 0.0
C3336 C 0.0327 0.76791 0.90918 0.0
C3337 C 0.03562 0.78157 0.93867 0.0
C3338 C 0.98292 0.77404 0.83272 0.0
C3339 C 0.00889 0.77198 0.87408 0.0
C3340 C 0.96944 0.76713 0.80074 0.0
C3341 C 0.9673 0.75233 0.77532 0.0
C3342 C 0.99457 0.76622 0.83948 0.0
C3343 C 0.97961 0.74544 0.78271 0.0
C3344 C 0.01973 0.76324 0.87757 0.0
C3345 C 0.02458 0.79027 0.93408 0.0
N3346 N 0.99242 0.75233 0.81356 0.0
N3347 N 0.01172 0.78529 0.90275 0.0
H3348 H 0.97755 0.38762 0.97331 0.0
H3349 H 0.01415 0.40559 0.7568 0.0
H3350 H 0.03359 0.42555 0.93232 0.0
H3351 H 0.95703 0.38166 0.79676 0.0
H3352 H 0.02167 0.39472 0.81931 0.0
H3353 H 0.97227 0.36844 0.9127 0.0
C3354 C 0.98904 0.39136 0.95248 0.0
C3355 C 0.00577 0.40843 0.9566 0.0
C3356 C 0.00727 0.39102 0.81359 0.0
C3357 C -0.00029 0.38711 0.8872 0.0
C3358 C 0.00299 0.39719 0.7779 0.0
C3359 C 0.98514 0.39501 0.77284 0.0
C3360 C 0.99369 0.38327 0.84435 0.0
C3361 C 0.9711 0.38399 0.80051 0.0
C3362 C 0.98604 0.38045 0.91788 0.0
C3363 C 0.02031 0.41269 0.92925 0.0
N3364 N 0.97578 0.37895 0.83583 0.0
N3365 N 0.01678 0.40236 0.89496 0.0
H3366 H 0.63278 0.61433 0.97088 0.0
H3367 H 0.58258 0.57314 0.77924 0.0
H3368 H 0.57428 0.5979 0.95972 0.0
H3369 H 0.62058 0.63201 0.75823 0.0
H3370 H 0.58783 0.57861 0.85197 0.0
H3371 H 0.63634 0.62029 0.89737 0.0
C3372 C 0.62094 0.61269 0.95331 0.0
C3373 C 0.60315 0.60521 0.97101 0.0
C3374 C 0.59525 0.59022 0.83119 0.0
C3375 C 0.60713 0.6118 0.88858 0.0
C3376 C 0.59241 0.58712 0.78994 0.0
C3377 C 0.60106 0.60225 0.76315 0.0
C3378 C 0.60684 0.60845 0.84542 0.0
C3379 C 0.61352 0.62015 0.77843 0.0
C3380 C 0.62301 0.61614 0.91172 0.0
C3381 C 0.58823 0.60355 0.94733 0.0
N3382 N 0.61598 0.62289 0.8191 0.0
N3383 N 0.59043 0.60623 0.9069 0.0
H3384 H 0.41321 0.98606 0.94434 0.0
H3385 H 0.36549 0.97576 0.7499 0.0
H3386 H 0.38072 0.01348 0.96193 0.0
H3387 H 0.42232 0.0213 0.76457 0.0
H3388 H 0.36073 0.97692 0.82335 0.0
H3389 H 0.40559 0.9831 0.872 0.0
C3390 C 0.40408 0.991 0.93307 0.0
C3391 C 0.3978 0.00035 0.95847 0.0
C3392 C 0.3739 0.98705 0.80974 0.0
C3393 C 0.38908 0.99686 0.87703 0.0
C3394 C 0.37665 0.98642 0.7682 0.0
C3395 C 0.3944 -0.00183 0.75143 0.0
C3396 C 0.38902 -0.0005 0.83372 0.0
C3397 C 0.4084 0.01194 0.7761 0.0
C3398 C 0.39973 0.98926 0.89214 0.0
C3399 C 0.38609 0.0066 0.94265 0.0
N3400 N 0.40556 0.01187 0.8164 0.0
N3401 N 0.38232 0.00508 0.90234 0.0
H3402 H 0.97534 0.57122 0.27249 0.0
H3403 H 0.98746 0.61888 0.47623 0.0
H3404 H 0.01316 0.63087 0.26154 0.0
H3405 H 0.0096 0.58224 0.4508 0.0
H3406 H 0.98692 0.62422 0.40261 0.0
H3407 H 0.97424 0.57498 0.34507 0.0
C3408 C 0.98279 0.58526 0.28496 0.0
C3409 C 0.99467 0.60079 0.26105 0.0
C3410 C 0.99227 0.61542 0.41368 0.0
C3411 C 0.99361 0.60487 0.34387 0.0
C3412 C 0.99257 0.61237 0.45518 0.0
C3413 C -0.00159 0.60002 0.46902 0.0
C3414 C -0.00258 0.60565 0.38687 0.0
C3415 C 0.00504 0.59189 0.44114 0.0
C3416 C 0.98224 0.5873 0.32642 0.0
C3417 C 0.00421 0.61855 0.27929 0.0
N3418 N 0.00397 0.59454 0.40109 0.0
N3419 N 0.00387 0.62012 0.32023 0.0
H3420 H 0.36852 0.38833 0.2543 0.0
H3421 H 0.40108 0.42522 0.44519 0.0
H3422 H 0.42496 0.40209 0.28365 0.0
H3423 H 0.39094 0.36973 0.47181 0.0
H3424 H 0.38964 0.41504 0.37619 0.0
H3425 H 0.3591 0.37761 0.32439 0.0
C3426 C 0.37864 0.38816 0.27503 0.0
C3427 C 0.39755 0.39648 0.26417 0.0
C3428 C 0.38889 0.40481 0.39793 0.0
C3429 C 0.38701 0.38438 0.34266 0.0
C3430 C 0.39538 0.4106 0.43715 0.0
C3431 C 0.39721 0.39828 0.46336 0.0
C3432 C 0.38457 0.38681 0.38538 0.0
C3433 C 0.39001 0.37959 0.45161 0.0
C3434 C 0.37327 0.38207 0.31468 0.0
C3435 C 0.41027 0.39589 0.29136 0.0
N3436 N 0.38471 0.37453 0.41256 0.0
N3437 N 0.40487 0.39048 0.3301 0.0
H3438 H 0.61223 0.97906 0.25763 0.0
H3439 H 0.57018 0.98588 0.44933 0.0
H3440 H 0.59672 0.02173 0.27081 0.0
H3441 H 0.62905 0.00709 0.47186 0.0
H3442 H 0.57608 0.98688 0.3766 0.0
H3443 H 0.61762 0.98043 0.33129 0.0
C3444 C 0.61075 0.98923 0.2757 0.0
C3445 C 0.60368 1e-05 0.25848 0.0
C3446 C 0.58758 0.99092 0.39771 0.0
C3447 C 0.60956 0.00141 0.34109 0.0
C3448 C 0.58424 0.99021 0.43892 0.0
C3449 C 0.59926 0.99657 0.46611 0.0
C3450 C 0.60593 -0.00215 0.38401 0.0
C3451 C 0.61727 0.00231 0.45131 0.0
C3452 C 0.61383 0.98998 0.31739 0.0
C3453 C 0.6021 0.01311 0.28284 0.0
N3454 N 0.62025 0.00301 0.41072 0.0
N3455 N 0.60441 0.013 0.32335 0.0
H3456 H 0.681 0.75771 0.27951 0.0
H3457 H 0.68741 0.73236 0.084 0.0
H3458 H 0.64262 0.69848 0.29478 0.0
H3459 H 0.6377 0.73569 0.10763 0.0
H3460 H 0.6851 0.71952 0.15241 0.0
H3461 H 0.68317 0.7523 0.20757 0.0
C3462 C 0.67358 0.74348 0.26807 0.0
C3463 C 0.66135 0.7285 0.29276 0.0
C3464 C 0.67425 0.72222 0.14163 0.0
C3465 C 0.66366 0.72245 0.21111 0.0
C3466 C 0.6756 0.7296 0.10305 0.0
C3467 C 0.66304 0.73549 0.09129 0.0
C3468 C 0.66034 0.72097 0.1678 0.0
C3469 C 0.64775 0.73146 0.11618 0.0
C3470 C 0.67486 0.74044 0.22718 0.0
C3471 C 0.65179 0.71039 0.27618 0.0
N3472 N 0.64714 0.72495 0.15413 0.0
N3473 N 0.65263 0.70789 0.23573 0.0
H3474 H 0.25405 0.9062 0.10791 0.0
H3475 H 0.29644 0.94592 0.30464 0.0
H3476 H 0.28596 0.96625 0.0921 0.0
H3477 H 0.23719 0.92412 0.28772 0.0
H3478 H 0.30138 0.95433 0.23213 0.0
H3479 H 0.25747 0.91066 0.18094 0.0
C3480 C 0.2623 0.92031 0.11972 0.0
C3481 C 0.2696 0.93596 0.09421 0.0
C3482 C 0.28747 0.94838 0.24498 0.0
C3483 C 0.2731 0.94095 0.17705 0.0
C3484 C 0.28466 0.94352 0.28584 0.0
C3485 C 0.26642 0.93405 0.30122 0.0
C3486 C 0.27184 0.94316 0.22022 0.0
C3487 C 0.25145 0.9313 0.27647 0.0
C3488 C 0.26401 0.92279 0.16122 0.0
C3489 C 0.27991 0.95394 0.1112 0.0
N3490 N 0.25442 0.93529 0.23656 0.0
N3491 N 0.28121 0.95605 0.15212 0.0
H3492 H 0.083 0.32576 0.2831 0.0
H3493 H 0.02834 0.31379 0.09159 0.0
H3494 H 0.0389 0.33869 0.30255 0.0
H3495 H 0.08687 0.35611 0.09892 0.0
H3496 H 0.02621 0.3155 0.16579 0.0
H3497 H 0.07865 0.32658 0.20965 0.0
C3498 C 0.07224 0.32848 0.27168 0.0
C3499 C 0.06148 0.33254 0.29802 0.0
C3500 C 0.03924 0.32482 0.15056 0.0
C3501 C 0.05649 0.3334 0.21572 0.0
C3502 C 0.04046 0.32393 0.10856 0.0
C3503 C 0.05785 0.33454 0.08944 0.0
C3504 C 0.05559 0.33612 0.17261 0.0
C3505 C 0.0732 0.3476 0.11242 0.0
C3506 C 0.06985 0.32905 0.23024 0.0
C3507 C 0.04758 0.33586 0.28246 0.0
N3508 N 0.07186 0.34758 0.15317 0.0
N3509 N 0.04544 0.33629 0.24179 0.0
H3510 H 0.68373 0.9575 0.59457 0.0
H3511 H 0.68293 0.92283 0.78524 0.0
H3512 H 0.63923 0.90062 0.61154 0.0
H3513 H 0.6376 0.93384 0.80624 0.0
H3514 H 0.68364 0.93155 0.71428 0.0
H3515 H 0.67969 0.96448 0.66511 0.0
C3516 C 0.67255 0.94678 0.61265 0.0
C3517 C 0.66212 0.9284 0.59817 0.0
C3518 C 0.67409 0.93279 0.73499 0.0
C3519 C 0.6575 0.93622 0.67729 0.0
C3520 C 0.67367 0.92786 0.77533 0.0
C3521 C 0.66004 0.92749 0.80126 0.0
C3522 C 0.66072 0.93718 0.72074 0.0
C3523 C 0.64805 0.93368 0.78665 0.0
C3524 C 0.67025 0.95078 0.65254 0.0
C3525 C 0.64764 0.91493 0.62207 0.0
N3526 N 0.64824 0.93776 0.74671 0.0
N3527 N 0.64614 0.91896 0.66124 0.0
H3528 H 0.0826 0.7201 0.6147 0.0
H3529 H 0.05358 0.75706 0.77776 0.0
H3530 H 0.03652 0.73017 0.59865 0.0
H3531 H 0.07567 0.72064 0.80393 0.0
H3532 H 0.0383 0.73857 0.7175 0.0
H3533 H 0.07237 0.71001 0.68408 0.0
C3534 C 0.06971 0.7192 0.62519 0.0
C3535 C 0.06065 0.72646 0.60176 0.0
C3536 C 0.04576 0.73398 0.73719 0.0
C3537 C 0.04935 0.71583 0.68126 0.0
C3538 C 0.05442 0.74457 0.77171 0.0
C3539 C 0.06616 0.7405 0.79491 0.0
C3540 C 0.04971 0.71992 0.72508 0.0
C3541 C 0.06694 0.7243 0.78602 0.0
C3542 C 0.06387 0.71352 0.66496 0.0
C3543 C 0.04408 0.72507 0.61652 0.0
N3544 N 0.0594 0.71492 0.75085 0.0
N3545 N 0.03927 0.72052 0.65593 0.0
H3546 H 0.28984 0.34683 0.80378 0.0
H3547 H 0.25525 0.34655 0.60475 0.0
H3548 H 0.23135 0.30851 0.7805 0.0
H3549 H 0.27735 0.30907 0.59093 0.0
H3550 H 0.25949 0.34641 0.67787 0.0
H3551 H 0.29699 0.34256 0.73341 0.0
C3552 C 0.27869 0.3369 0.78429 0.0
C3553 C 0.26001 0.32828 0.79698 0.0
C3554 C 0.26388 0.33866 0.65849 0.0
C3555 C 0.26794 0.32362 0.71816 0.0
C3556 C 0.26159 0.3388 0.61694 0.0
C3557 C 0.2657 0.32753 0.59209 0.0
C3558 C 0.27025 0.32721 0.67497 0.0
C3559 C 0.27364 0.31755 0.60954 0.0
C3560 C 0.28276 0.33447 0.74453 0.0
C3561 C 0.24591 0.31545 0.77133 0.0
N3562 N 0.27532 0.31725 0.65047 0.0
N3563 N 0.2501 0.31398 0.73235 0.0
H3564 H 0.31403 0.05363 0.64862 0.0
H3565 H 0.31747 0.07818 0.44881 0.0
H3566 H 0.36614 0.10107 0.61063 0.0
H3567 H 0.33984 0.04097 0.43418 0.0
H3568 H 0.32023 0.07655 0.52211 0.0
H3569 H 0.31212 0.03827 0.58359 0.0
C3570 C 0.3256 0.06026 0.62749 0.0
C3571 C 0.34002 0.0787 0.63385 0.0
C3572 C 0.32403 0.06836 0.50263 0.0
C3573 C 0.33785 0.06153 0.56083 0.0
C3574 C 0.3224 0.0692 0.46099 0.0
C3575 C 0.32869 0.05987 0.43558 0.0
C3576 C 0.3321 0.0583 0.51866 0.0
C3577 C 0.33528 0.04868 0.45306 0.0
C3578 C 0.32451 0.05152 0.59065 0.0
C3579 C 0.35471 0.0869 0.60609 0.0
N3580 N 0.3373 0.04854 0.49391 0.0
N3581 N 0.35295 0.07848 0.56981 0.0
H3582 H 0.92664 0.23567 0.4415 0.0
H3583 H 0.9658 0.29143 0.63361 0.0
H3584 H 0.93101 0.28948 0.4229 0.0
H3585 H 0.90682 0.25313 0.61429 0.0
H3586 H 0.97029 0.2943 0.55928 0.0
H3587 H 0.94051 0.24593 0.50879 0.0
C3588 C 0.93151 0.25 0.45078 0.0
C3589 C 0.92729 0.26168 0.42779 0.0
C3590 C 0.95643 0.28562 0.57181 0.0
C3591 C 0.94294 0.27327 0.50351 0.0
C3592 C 0.95382 0.28401 0.61372 0.0
C3593 C 0.93598 0.2719 0.62964 0.0
C3594 C 0.94107 0.27486 0.54671 0.0
C3595 C 0.92078 0.26266 0.60315 0.0
C3596 C 0.93946 0.25585 0.48892 0.0
C3597 C 0.93369 0.28005 0.4408 0.0
N3598 N 0.92374 0.26408 0.56276 0.0
N3599 N 0.94068 0.28517 0.47882 0.0
H3600 H 0.7486 0.65143 0.61556 0.0
H3601 H 0.69986 0.64231 0.42387 0.0
H3602 H 0.71771 0.68035 0.63547 0.0
H3603 H 0.75739 0.68684 0.43509 0.0
H3604 H 0.69618 0.64412 0.49758 0.0
H3605 H 0.7411 0.64937 0.54326 0.0
C3606 C 0.73987 0.65694 0.60475 0.0
C3607 C 0.73391 0.66631 0.63087 0.0
C3608 C 0.70928 0.65389 0.48317 0.0
C3609 C 0.72533 0.66385 0.54948 0.0
C3610 C 0.71145 0.65284 0.44151 0.0
C3611 C 0.72903 0.66416 0.42363 0.0
C3612 C 0.72482 0.66631 0.50621 0.0
C3613 C 0.74358 0.67781 0.44747 0.0
C3614 C 0.73561 0.65572 0.56386 0.0
C3615 C 0.72277 0.67337 0.61566 0.0
N3616 N 0.74128 0.67816 0.4879 0.0
N3617 N 0.71901 0.67227 0.57536 0.0
H3618 H 0.34107 0.29279 0.92046 0.0
H3619 H 0.34639 0.25568 0.11915 0.0
H3620 H 0.31094 0.23327 0.94217 0.0
H3621 H 0.31089 0.28003 0.13477 0.0
H3622 H 0.34552 0.25943 0.04634 0.0
H3623 H 0.33754 0.29812 0.9927 0.0
C3624 C 0.3331 0.28092 0.94022 0.0
C3625 C 0.3266 0.26264 0.92633 0.0
C3626 C 0.33832 0.26435 0.066 0.0
C3627 C 0.32296 0.26857 1.00706 0.0
C3628 C 0.33896 0.26245 0.10749 0.0
C3629 C 0.32835 0.26724 0.13286 0.0
C3630 C 0.32704 0.27103 0.05004 0.0
C3631 C 0.31882 0.27575 0.11583 0.0
C3632 C 0.33109 0.28396 0.981 0.0
C3633 C 0.31623 0.24756 0.95228 0.0
N3634 N 0.31802 0.27706 0.07492 0.0
N3635 N 0.31527 0.25087 0.99207 0.0
H3636 H 0.74995 0.05762 0.94639 0.0
H3637 H 0.7208 0.09002 0.11489 0.0
H3638 H 0.70753 0.07316 0.93245 0.0
H3639 H 0.73879 0.04965 0.132 0.0
H3640 H 0.70522 0.07431 0.05227 0.0
H3641 H 0.73669 0.04377 1.01195 0.0
C3642 C 0.73725 0.05727 0.95636 0.0
C3643 C 0.73016 0.0671 0.93515 0.0
C3644 C 0.71177 0.06821 0.07045 0.0
C3645 C 0.71539 0.05208 1.0105 0.0
C3646 C 0.72059 0.07721 0.1064 0.0
C3647 C 0.73145 0.07135 0.12756 0.0
C3648 C 0.71473 0.05394 0.05505 0.0
C3649 C 0.73086 0.05476 0.11556 0.0
C3650 C 0.72963 0.04939 0.99393 0.0
C3651 C 0.71368 0.0662 0.94898 0.0
N3652 N 0.72323 0.04696 0.07916 0.0
N3653 N 0.70715 0.05939 0.98654 0.0
H3654 H 0.91613 0.62875 0.92814 0.0
H3655 H 0.94883 0.69086 0.12386 0.0
H3656 H 0.93438 0.68765 0.93725 0.0
H3657 H 0.90758 0.63218 0.11862 0.0
H3658 H 0.95981 0.68851 0.05637 0.0
H3659 H 0.9292 0.63012 0.99572 0.0
C3660 C 0.92337 0.64207 0.94384 0.0
C3661 C 0.92361 0.65794 0.92776 0.0
C3662 C 0.94892 0.67597 0.07073 0.0
C3663 C 0.9386 0.65959 1.00439 0.0
C3664 C 0.94268 0.6773 0.10916 0.0
C3665 C 0.92688 0.66184 0.12575 0.0
C3666 C 0.93905 0.65914 0.04902 0.0
C3667 C 0.91956 0.64449 0.10623 0.0
C3668 C 0.93092 0.64286 0.98216 0.0
C3669 C 0.93364 0.67498 0.94869 0.0
N3670 N 0.92534 0.64371 0.0681 0.0
N3671 N 0.94034 0.67526 0.98644 0.0
H3672 H 0.10692 0.53757 0.89939 0.0
H3673 H 0.03566 0.4968 0.08632 0.0
H3674 H 0.06727 0.55601 0.92413 0.0
H3675 H 0.08328 0.48921 0.07027 0.0
H3676 H 0.04611 0.51834 1.02795 0.0
H3677 H 0.09695 0.51875 0.96083 0.0
C3678 C 0.09617 0.53778 0.91791 0.0
C3679 C 0.0882 0.54872 0.9067 0.0
C3680 C 0.05449 0.51228 0.03768 0.0
C3681 C 0.07651 0.52687 0.97779 0.0
C3682 C 0.04866 0.5002 0.07127 0.0
C3683 C 0.05904 0.49181 0.08394 0.0
C3684 C 0.07053 0.51552 1.01594 0.0
C3685 C 0.07521 0.49584 0.0622 0.0
C3686 C 0.09045 0.52697 0.95313 0.0
C3687 C 0.07386 0.54785 0.9315 0.0
N3688 N 0.08041 0.50733 1.02934 0.0
N3689 N 0.06852 0.53719 0.96594 0.0
H3690 H 0.51523 0.54592 0.05279 0.0
H3691 H 0.42824 0.53936 0.93772 0.0
H3692 H 0.48733 0.57419 0.10104 0.0
H3693 H 0.47495 0.54163 0.87363 0.0
H3694 H 0.44671 0.54792 1.00058 0.0
H3695 H 0.49903 0.54172 0.98912 0.0
C3696 C 0.50534 0.5509 0.05083 0.0
C3697 C 0.50187 0.55941 0.08439 0.0
C3698 C 0.45296 0.54675 0.97263 0.0
C3699 C 0.48256 0.55389 1.01024 0.0
C3700 C 0.44243 0.54184 0.93668 0.0
C3701 C 0.45004 0.53988 0.9 0.0
C3702 C 0.47122 0.54957 0.97223 0.0
C3703 C 0.46837 0.54278 0.90104 0.0
C3704 C 0.49609 0.54847 1.01396 0.0
C3705 C 0.48949 0.56627 0.07796 0.0
N3706 N 0.47825 0.5474 0.93646 0.0
N3707 N 0.47987 0.56288 0.04215 0.0
H3708 H 0.40294 0.90789 0.07927 0.0
H3709 H 0.48469 0.93254 0.91572 0.0
H3710 H 0.45623 0.95881 0.084 0.0
H3711 H 0.42914 0.88428 0.90893 0.0
H3712 H 0.47565 0.942 0.97862 0.0
H3713 H 0.41386 0.89771 1.02053 0.0
C3714 C 0.41721 0.9166 0.06882 0.0
C3715 C 0.42897 0.93383 0.08768 0.0
C3716 C 0.46549 0.92929 0.9634 0.0
C3717 C 0.44128 0.92289 1.01848 0.0
C3718 C 0.47059 0.92394 0.92714 0.0
C3719 C 0.45781 0.90734 0.90681 0.0
C3720 C 0.44746 0.91798 0.97974 0.0
C3721 C 0.43976 0.89687 0.92369 0.0
C3722 C 0.42337 0.91097 0.03479 0.0
C3723 C 0.44699 0.94508 0.07134 0.0
N3724 N 0.43522 0.90228 0.95892 0.0
N3725 N 0.45257 0.93947 0.03771 0.0
H3726 H 0.51547 0.04683 0.62256 0.0
H3727 H 0.53154 0.10373 0.83006 0.0
H3728 H 0.48805 0.07845 0.64807 0.0
H3729 H 0.55627 0.06945 0.80426 0.0
H3730 H 0.51647 0.09583 0.76326 0.0
H3731 H 0.53244 0.05724 0.68648 0.0
C3732 C 0.51337 0.05636 0.64121 0.0
C3733 C 0.50051 0.06193 0.62948 0.0
C3734 C 0.52521 0.09006 0.77212 0.0
C3735 C 0.51945 0.0735 0.70434 0.0
C3736 C 0.53386 0.09456 0.81033 0.0
C3737 C 0.54541 0.08742 0.82288 0.0
C3738 C 0.52816 0.07838 0.74577 0.0
C3739 C 0.54749 0.07528 0.79615 0.0
C3740 C 0.52294 0.06218 0.67809 0.0
C3741 C 0.49814 0.07412 0.6554 0.0
N3742 N 0.53908 0.07127 0.75894 0.0
N3743 N 0.50737 0.07936 0.69178 0.0
H3744 H 0.92437 0.40619 0.66164 0.0
H3745 H 0.91742 0.48455 0.79482 0.0
H3746 H 0.94108 0.46157 0.61883 0.0
H3747 H 0.90187 0.42971 0.84022 0.0
H3748 H 0.92506 0.47595 0.72907 0.0
H3749 H 0.91392 0.41349 0.72543 0.0
C3750 C 0.92503 0.41958 0.66485 0.0
C3751 C 0.93299 0.43305 0.63404 0.0
C3752 C 0.92009 0.4658 0.75343 0.0
C3753 C 0.9219 0.44193 0.70782 0.0
C3754 C 0.91588 0.47079 0.79105 0.0
C3755 C 0.90905 0.45784 0.82298 0.0
C3756 C 0.91758 0.44774 0.74767 0.0
C3757 C 0.90703 0.44008 0.81628 0.0
C3758 C 0.91942 0.42391 0.70163 0.0
C3759 C 0.93464 0.45062 0.64107 0.0
N3760 N 0.9113 0.43556 0.77953 0.0
N3761 N 0.92918 0.45454 0.67697 0.0
H3762 H 0.56738 0.46601 0.83224 0.0
H3763 H 0.52629 0.48761 0.63141 0.0
H3764 H 0.50826 0.44051 0.80734 0.0
H3765 H 0.58504 0.50817 0.6497 0.0
H3766 H 0.51935 0.4698 0.69469 0.0
H3767 H 0.57409 0.48197 0.76662 0.0
C3768 C 0.55577 0.46371 0.81293 0.0
C3769 C 0.53719 0.4517 0.82544 0.0
C3770 C 0.53377 0.478 0.68486 0.0
C3771 C 0.54486 0.46999 0.7495 0.0
C3772 C 0.53769 0.48806 0.64855 0.0
C3773 C 0.55618 0.49918 0.63493 0.0
C3774 C 0.54854 0.47936 0.70872 0.0
C3775 C 0.57054 0.49951 0.65854 0.0
C3776 C 0.55964 0.47284 0.77533 0.0
C3777 C 0.52279 0.44965 0.79925 0.0
N3778 N 0.56643 0.48991 0.69443 0.0
N3779 N 0.52692 0.45859 0.76261 0.0
H3780 H 0.92542 0.51278 0.15656 0.0
H3781 H 0.91289 0.42561 0.28953 0.0
H3782 H 0.95046 0.47972 0.1232 0.0
H3783 H 0.90867 0.47135 0.34121 0.0
H3784 H 0.92246 0.44256 0.2246 0.0
H3785 H 0.91469 0.4951 0.22048 0.0
C3786 C 0.92804 0.50134 0.16196 0.0
C3787 C 0.93831 0.4973 0.13378 0.0
C3788 C 0.91965 0.449 0.25025 0.0
C3789 C 0.92628 0.47711 0.20714 0.0
C3790 C 0.9143 0.43937 0.28733 0.0
C3791 C 0.91017 0.44718 0.32085 0.0
C3792 C 0.9208 0.46656 0.24647 0.0
C3793 C 0.91176 0.46487 0.31608 0.0
C3794 C 0.92216 0.49142 0.19872 0.0
C3795 C 0.94218 0.48297 0.14351 0.0
N3796 N 0.91691 0.47394 0.27968 0.0
N3797 N 0.93601 0.47328 0.17896 0.0
H3798 H 0.55135 0.48604 0.30935 0.0
H3799 H 0.49036 0.4019 0.15382 0.0
H3800 H 0.5345 0.428 0.32931 0.0
H3801 H 0.49507 0.45604 0.14093 0.0
H3802 H 0.51063 0.41322 0.21354 0.0
H3803 H 0.5337 0.47709 0.24498 0.0
C3804 C 0.54389 0.47143 0.30046 0.0
C3805 C 0.54471 0.4578 0.32479 0.0
C3806 C 0.50755 0.42281 0.19743 0.0
C3807 C 0.52474 0.44753 0.25076 0.0
C3808 C 0.49615 0.41637 0.16297 0.0
C3809 C 0.49151 0.42817 0.14171 0.0
C3810 C 0.51413 0.44117 0.21156 0.0
C3811 C 0.49881 0.44665 0.15586 0.0
C3812 C 0.53393 0.46636 0.26353 0.0
C3813 C 0.53476 0.43912 0.31136 0.0
N3814 N 0.50974 0.4526 0.18994 0.0
N3815 N 0.52536 0.43462 0.27547 0.0
H3816 H 0.52599 0.04333 0.12196 0.0
H3817 H 0.56304 0.09123 0.33873 0.0
H3818 H 0.58432 0.07143 0.15439 0.0
H3819 H 0.51038 0.08101 0.28914 0.0
H3820 H 0.56992 0.08075 0.27439 0.0
H3821 H 0.51913 0.05489 0.18442 0.0
C3822 C 0.53741 0.0523 0.14193 0.0
C3823 C 0.55583 0.05699 0.13224 0.0
C3824 C 0.55691 0.08089 0.27746 0.0
C3825 C 0.54801 0.06942 0.20526 0.0
C3826 C 0.55294 0.08675 0.3142 0.0
C3827 C 0.53615 0.08699 0.31909 0.0
C3828 C 0.54404 0.07534 0.24519 0.0
C3829 C 0.52343 0.0809 0.2866 0.0
C3830 C 0.53349 0.0588 0.17772 0.0
C3831 C 0.57007 0.06817 0.15983 0.0
N3832 N 0.52765 0.07538 0.25102 0.0
N3833 N 0.56585 0.07383 0.19527 0.0
H3834 H 0.49519 0.90898 0.59356 0.0
H3835 H 0.4677 0.93553 0.38486 0.0
H3836 H 0.49554 0.96095 0.57664 0.0
H3837 H 0.43057 0.88035 0.43296 0.0
H3838 H 0.48364 0.94449 0.45053 0.0
H3839 H 0.47612 0.89689 0.53095 0.0
C3840 C 0.49068 0.91756 0.57787 0.0
C3841 C 0.49628 0.93575 0.5918 0.0
C3842 C 0.47202 0.93038 0.44647 0.0
C3843 C 0.47597 0.92268 0.5185 0.0
C3844 C 0.46273 0.92526 0.40894 0.0
C3845 C 0.44755 0.90706 0.40253 0.0
C3846 C 0.4665 0.91721 0.47803 0.0
C3847 C 0.44237 0.8944 0.43546 0.0
C3848 C 0.48012 0.91081 0.54171 0.0
C3849 C 0.49103 0.94665 0.56825 0.0
N3850 N 0.45185 0.89965 0.47147 0.0
N3851 N 0.48152 0.94013 0.53283 0.0
H3852 H 0.07892 0.51038 0.43235 0.0
H3853 H 0.06968 0.58734 0.56677 0.0
H3854 H 0.08581 0.5617 0.38258 0.0
H3855 H 0.05562 0.53268 0.61021 0.0
H3856 H 0.07878 0.57983 0.50127 0.0
H3857 H 0.07246 0.51929 0.49905 0.0
C3858 C 0.07871 0.52337 0.43536 0.0
C3859 C 0.08266 0.53519 0.40174 0.0
C3860 C 0.07414 0.56963 0.5255 0.0
C3861 C 0.07566 0.54579 0.47843 0.0
C3862 C 0.06929 0.57407 0.56323 0.0
C3863 C 0.06242 0.56084 0.59477 0.0
C3864 C 0.07211 0.55179 0.5191 0.0
C3865 C 0.06125 0.54349 0.58744 0.0
C3866 C 0.07519 0.52856 0.47353 0.0
C3867 C 0.08269 0.55212 0.40765 0.0
N3868 N 0.06601 0.53949 0.55069 0.0
N3869 N 0.07925 0.5569 0.44508 0.0
H3870 H 0.48412 0.54645 0.41053 0.0
H3871 H 0.40487 0.496 0.58125 0.0
H3872 H 0.43059 0.5442 0.41009 0.0
H3873 H 0.45465 0.49147 0.57801 0.0
H3874 H 0.4162 0.51683 0.52248 0.0
H3875 H 0.47508 0.52817 0.47341 0.0
C3876 C 0.47046 0.54214 0.4233 0.0
C3877 C 0.45825 0.54723 0.40462 0.0
C3878 C 0.42482 0.5115 0.53473 0.0
C3879 C 0.44802 0.52659 0.4777 0.0
C3880 C 0.41839 0.49975 0.56859 0.0
C3881 C 0.42903 0.49242 0.58511 0.0
C3882 C 0.44184 0.51557 0.51628 0.0
C3883 C 0.44627 0.49729 0.5668 0.0
C3884 C 0.4654 0.53182 0.45958 0.0
C3885 C 0.44081 0.54122 0.42343 0.0
N3886 N 0.45212 0.50849 0.53326 0.0
N3887 N 0.43633 0.53138 0.4587 0.0
H3888 H 0.78257 0.89988 0.27531 0.0
H3889 H 0.69905 0.82422 0.4115 0.0
H3890 H 0.7271 0.86527 0.22568 0.0
H3891 H 0.75528 0.83387 0.42138 0.0
H3892 H 0.70877 0.84557 0.3529 0.0
H3893 H 0.77231 0.88198 0.33827 0.0
C3894 C 0.76825 0.88849 0.27732 0.0
C3895 C 0.75586 0.88398 0.24427 0.0
C3896 C 0.71908 0.84339 0.36861 0.0
C3897 C 0.74386 0.86376 0.31763 0.0
C3898 C 0.71363 0.83145 0.40237 0.0
C3899 C 0.7266 0.82791 0.4225 0.0
C3900 C 0.73771 0.85199 0.35502 0.0
C3901 C 0.74505 0.83679 0.4079 0.0
C3902 C 0.7624 0.87837 0.31357 0.0
C3903 C 0.73724 0.86945 0.25001 0.0
N3904 N 0.7501 0.84855 0.37541 0.0
N3905 N 0.73183 0.85987 0.28584 0.0
H3906 H 0.12226 0.84857 0.24266 0.0
H3907 H 0.1631 0.92624 0.42122 0.0
H3908 H 0.11727 0.8983 0.24385 0.0
H3909 H 0.1808 0.88579 0.40434 0.0
H3910 H 0.14256 0.91336 0.36159 0.0
H3911 H 0.14093 0.85956 0.30527 0.0
C3912 C 0.12502 0.86177 0.25566 0.0
C3913 C 0.11763 0.8722 0.23745 0.0
C3914 C 0.15042 0.9068 0.37174 0.0
C3915 C 0.13886 0.88474 0.31062 0.0
C3916 C 0.16177 0.91386 0.40665 0.0
C3917 C 0.17218 0.90578 0.42101 0.0
C3918 C 0.14991 0.89188 0.34963 0.0
C3919 C 0.17165 0.89126 0.39718 0.0
C3920 C 0.13562 0.86799 0.29184 0.0
C3921 C 0.12189 0.88923 0.25675 0.0
N3922 N 0.16064 0.88469 0.3633 0.0
N3923 N 0.13196 0.89479 0.29199 0.0
H3924 H 0.09391 0.21594 0.24212 0.0
H3925 H 0.11379 0.29147 0.41507 0.0
H3926 H 0.14607 0.26833 0.24911 0.0
H3927 H 0.06803 0.23493 0.41993 0.0
H3928 H 0.12637 0.2835 0.35617 0.0
H3929 H 0.08444 0.22305 0.30648 0.0
C3930 C 0.10355 0.22892 0.25716 0.0
C3931 C 0.12113 0.24129 0.23984 0.0
C3932 C 0.11401 0.27256 0.37096 0.0
C3933 C 0.10986 0.24981 0.31449 0.0
C3934 C 0.10713 0.27698 0.40563 0.0
C3935 C 0.09079 0.26345 0.42537 0.0
C3936 C 0.10405 0.25452 0.35417 0.0
C3937 C 0.0814 0.24548 0.40792 0.0
C3938 C 0.098 0.233 0.29415 0.0
C3939 C 0.13243 0.25824 0.26076 0.0
N3940 N 0.08812 0.24157 0.37352 0.0
N3941 N 0.12662 0.26195 0.29678 0.0
H3942 H 0.23023 0.44781 0.12171 0.0
H3943 H 0.16044 0.36193 0.9871 0.0
H3944 H 0.19469 0.39325 0.17418 0.0
H3945 H 0.16508 0.41569 0.96585 0.0
H3946 H 0.17833 0.37391 0.04958 0.0
H3947 H 0.21188 0.43714 0.05906 0.0
C3948 C 0.21851 0.43366 0.12055 0.0
C3949 C 0.21407 0.42156 0.15419 0.0
C3950 C 0.17568 0.3832 1.03105 0.0
C3951 C 0.19329 0.40912 0.08114 0.0
C3952 C 0.16557 0.37644 0.99504 0.0
C3953 C 0.16153 0.38788 0.97021 0.0
C3954 C 0.1824 0.40183 0.04253 0.0
C3955 C 0.16825 0.40646 0.9831 0.0
C3956 C 0.20808 0.4276 0.08446 0.0
C3957 C 0.199 0.40315 0.14942 0.0
N3958 N 0.17857 0.41294 1.01809 0.0
N3959 N 0.18931 0.39751 0.1137 0.0
H3960 H 0.5663 0.73519 0.97598 0.0
H3961 H 0.60008 0.81657 0.14482 0.0
H3962 H 0.6206 0.7847 0.97276 0.0
H3963 H 0.54904 0.76311 0.151 0.0
H3964 H 0.60746 0.80686 0.08006 0.0
H3965 H 0.55848 0.7475 0.03582 0.0
C3966 C 0.57628 0.74906 0.98678 0.0
C3967 C 0.59373 0.75936 0.96779 0.0
C3968 C 0.59459 0.79734 0.09557 0.0
C3969 C 0.58548 0.77317 0.0387 0.0
C3970 C 0.59042 0.80281 0.13289 0.0
C3971 C 0.57366 0.79086 0.15367 0.0
C3972 C 0.58192 0.77978 0.07854 0.0
C3973 C 0.56182 0.77319 0.13604 0.0
C3974 C 0.57199 0.75598 1.02157 0.0
C3975 C 0.60659 0.7768 0.98493 0.0
N3976 N 0.5661 0.76832 0.09979 0.0
N3977 N 0.60228 0.78311 1.01939 0.0
H3978 H 0.1728 0.77239 0.14036 0.0
H3979 H 0.25176 0.83885 0.97863 0.0
H3980 H 0.23209 0.79607 0.16106 0.0
H3981 H 0.1934 0.822 0.96767 0.0
H3982 H 0.24464 0.82062 0.04196 0.0
H3983 H 0.17981 0.78862 0.07486 0.0
C3984 C 0.18729 0.78108 0.13144 0.0
C3985 C 0.20182 0.78263 0.15658 0.0
C3986 C 0.23333 0.82068 1.02536 0.0
C3987 C 0.21001 0.80116 0.08065 0.0
C3988 C 0.23739 0.83092 0.98891 0.0
C3989 C 0.22309 0.83178 0.96752 0.0
C3990 C 0.21483 0.81118 0.04049 0.0
C3991 C 0.20479 0.8216 0.98302 0.0
C3992 C 0.1913 0.79026 0.09373 0.0
C3993 C 0.22034 0.79405 0.14266 0.0
N3994 N 0.20119 0.8118 1.0183 0.0
N3995 N 0.22386 0.80276 0.10588 0.0
H3996 H 0.54954 0.78631 0.65224 0.0
H3997 H 0.62485 0.83301 0.47309 0.0
H3998 H 0.59609 0.77652 0.63956 0.0
H3999 H 0.57433 0.83601 0.48282 0.0
H4000 H 0.61493 0.81191 0.53221 0.0
H4001 H 0.55904 0.80461 0.59021 0.0
C4002 C 0.56172 0.78786 0.63635 0.0
C4003 C 0.57174 0.77941 0.65125 0.0
C4004 C 0.60582 0.81686 0.52095 0.0
C4005 C 0.58306 0.80099 0.5794 0.0
C4006 C 0.61138 0.82872 0.48692 0.0
C4007 C 0.60005 0.83573 0.47217 0.0
C4008 C 0.589 0.81232 0.54101 0.0
C4009 C 0.5832 0.83049 0.49242 0.0
C4010 C 0.56721 0.79846 0.60076 0.0
C4011 C 0.58785 0.78267 0.62954 0.0
N4012 N 0.57822 0.81917 0.52562 0.0
N4013 N 0.59296 0.79313 0.59476 0.0
H4014 H 0.16172 0.73415 0.47488 0.0
H4015 H 0.21006 0.81399 0.64693 0.0
H4016 H 0.14923 0.77847 0.49073 0.0
H4017 H 0.20607 0.7598 0.65462 0.0
H4018 H 0.19183 0.80391 0.5837 0.0
H4019 H 0.18276 0.74617 0.53398 0.0
C4020 C 0.16415 0.74701 0.48911 0.0
C4021 C 0.15499 0.75635 0.47447 0.0
C4022 C 0.19507 0.79429 0.59923 0.0
C4023 C 0.17824 0.76966 0.54429 0.0
C4024 C 0.20538 0.79999 0.63571 0.0
C4025 C 0.21003 0.78793 0.65658 0.0
C4026 C 0.18941 0.77642 0.58293 0.0
C4027 C 0.20351 0.76996 0.63957 0.0
C4028 C 0.17593 0.75371 0.52341 0.0
C4029 C 0.15745 0.77199 0.49701 0.0
N4030 N 0.19374 0.76488 0.60398 0.0
N4031 N 0.16887 0.7782 0.53019 0.0
H4032 H 0.253 0.42724 0.46386 0.0
H4033 H 0.20134 0.39338 0.67656 0.0
H4034 H 0.22298 0.36947 0.49965 0.0
H4035 H 0.20856 0.44372 0.61974 0.0
H4036 H 0.21096 0.38517 0.613 0.0
H4037 H 0.23881 0.43482 0.52123 0.0
C4038 C 0.2424 0.41596 0.4817 0.0
C4039 C 0.23734 0.39732 0.47299 0.0
C4040 C 0.21035 0.39798 0.6144 0.0
C4041 C 0.22289 0.40613 0.54254 0.0
C4042 C 0.20473 0.40265 0.65078 0.0
C4043 C 0.20428 0.41944 0.65419 0.0
C4044 C 0.21578 0.41023 0.58095 0.0
C4045 C 0.20913 0.43089 0.61932 0.0
C4046 C 0.23471 0.42034 0.51536 0.0
C4047 C 0.22576 0.38372 0.50174 0.0
N4048 N 0.21482 0.42619 0.58455 0.0
N4049 N 0.219 0.38834 0.53475 0.0
H4050 H 0.11929 0.21786 0.74084 0.0
H4051 H 0.16734 0.29449 0.91676 0.0
H4052 H 0.11041 0.26513 0.75016 0.0
H4053 H 0.16473 0.24107 0.91571 0.0
H4054 H 0.14666 0.28483 0.85677 0.0
H4055 H 0.13665 0.22719 0.80413 0.0
C4056 C 0.12079 0.23015 0.75622 0.0
C4057 C 0.11285 0.24041 0.73994 0.0
C4058 C 0.15027 0.27506 0.87019 0.0
C4059 C 0.1335 0.25159 0.81323 0.0
C4060 C 0.16188 0.28048 0.9047 0.0
C4061 C 0.16733 0.26831 0.92194 0.0
C4062 C 0.14437 0.25746 0.85226 0.0
C4063 C 0.16061 0.2507 0.90395 0.0
C4064 C 0.13088 0.23554 0.79256 0.0
C4065 C 0.11617 0.25668 0.76112 0.0
N4066 N 0.14957 0.24584 0.87024 0.0
N4067 N 0.12619 0.26174 0.79657 0.0
H4068 H 0.76046 0.92724 0.91795 0.0
H4069 H 0.72818 0.8452 0.75133 0.0
H4070 H 0.7085 0.87529 0.92671 0.0
H4071 H 0.77674 0.90033 0.74075 0.0
H4072 H 0.72131 0.85439 0.81735 0.0
H4073 H 0.76837 0.91549 0.85733 0.0
C4074 C 0.75115 0.91295 0.90837 0.0
C4075 C 0.73431 0.90183 0.9291 0.0
C4076 C 0.73354 0.8644 0.8006 0.0
C4077 C 0.74251 0.88864 0.8572 0.0
C4078 C 0.73739 0.85922 0.76258 0.0
C4079 C 0.75334 0.87182 0.74024 0.0
C4080 C 0.74573 0.88232 0.81669 0.0
C4081 C 0.76464 0.88981 0.75695 0.0
C4082 C 0.75544 0.90635 0.87307 0.0
C4083 C 0.72217 0.88385 0.91335 0.0
N4084 N 0.7607 0.8944 0.79388 0.0
N4085 N 0.72639 0.87787 0.87832 0.0
H4086 H 0.12601 0.83183 0.92227 0.0
H4087 H 0.09394 0.86794 0.72909 0.0
H4088 H 0.07035 0.82278 0.90447 0.0
H4089 H 0.15226 0.88783 0.75456 0.0
H4090 H 0.08554 0.85044 0.79237 0.0
H4091 H 0.1366 0.85238 0.86224 0.0
C4092 C 0.1162 0.83476 0.90656 0.0
C4093 C 0.09744 0.82622 0.9193 0.0
C4094 C 0.1002 0.85868 0.78441 0.0
C4095 C 0.10912 0.84875 0.84915 0.0
C4096 C 0.10505 0.86874 0.74809 0.0
C4097 C 0.1239 0.87973 0.73644 0.0
C4098 C 0.11423 0.85934 0.80981 0.0
C4099 C 0.13754 0.8796 0.76209 0.0
C4100 C 0.12217 0.84625 0.87195 0.0
C4101 C 0.08505 0.82958 0.8965 0.0
N4102 N 0.13246 0.86965 0.79756 0.0
N4103 N 0.09107 0.84047 0.86264 0.0
H4104 H 0.41396 0.14503 0.72451 0.0
H4105 H 0.4027 0.22245 0.59701 0.0
H4106 H 0.38404 0.17122 0.77074 0.0
H4107 H 0.43156 0.19429 0.55417 0.0
H4108 H 0.3961 0.20493 0.6614 0.0
H4109 H 0.42204 0.16467 0.66396 0.0
C4110 C 0.40967 0.15547 0.72272 0.0
C4111 C 0.39885 0.15693 0.75388 0.0
C4112 C 0.40378 0.2025 0.6378 0.0
C4113 C 0.4073 0.17912 0.68293 0.0
C4114 C 0.40739 0.21238 0.60085 0.0
C4115 C 0.41772 0.20987 0.56997 0.0
C4116 C 0.41046 0.1899 0.64394 0.0
C4117 C 0.42366 0.1968 0.57706 0.0
C4118 C 0.41405 0.16654 0.6877 0.0
C4119 C 0.39302 0.17017 0.74867 0.0
N4120 N 0.41998 0.18742 0.61297 0.0
N4121 N 0.39719 0.18065 0.714 0.0
H4122 H 0.83011 0.24797 0.75735 0.0
H4123 H 0.80153 0.19479 0.54693 0.0
H4124 H 0.83286 0.19768 0.73765 0.0
H4125 H 0.76437 0.2115 0.60116 0.0
H4126 H 0.81873 0.20192 0.61108 0.0
H4127 H 0.8108 0.24078 0.69521 0.0
C4128 C 0.82641 0.2353 0.74058 0.0
C4129 C 0.83275 0.22316 0.75356 0.0
C4130 C 0.80681 0.20405 0.6087 0.0
C4131 C 0.81189 0.21562 0.68105 0.0
C4132 C 0.7968 0.19982 0.57205 0.0
C4133 C 0.78122 0.20241 0.56783 0.0
C4134 C 0.80161 0.21136 0.64153 0.0
C4135 C 0.77641 0.20957 0.60195 0.0
C4136 C 0.81558 0.23131 0.70489 0.0
C4137 C 0.8281 0.20732 0.72934 0.0
N4138 N 0.78658 0.21389 0.63703 0.0
N4139 N 0.81826 0.20418 0.69425 0.0
H4140 H 0.81868 0.59757 0.59098 0.0
H4141 H 0.73552 0.57037 0.7534 0.0
H4142 H 0.7631 0.54998 0.57702 0.0
H4143 H 0.79036 0.61886 0.76252 0.0
H4144 H 0.74604 0.56048 0.69289 0.0
H4145 H 0.80888 0.60482 0.65558 0.0
C4146 C 0.80442 0.58865 0.60117 0.0
C4147 C 0.79191 0.57284 0.5783 0.0
C4148 C 0.75596 0.57302 0.70899 0.0
C4149 C 0.7806 0.58088 0.65349 0.0
C4150 C 0.75007 0.57839 0.74429 0.0
C4151 C 0.76248 0.59496 0.7651 0.0
C4152 C 0.77421 0.58459 0.69356 0.0
C4153 C 0.78076 0.60539 0.7496 0.0
C4154 C 0.79886 0.59269 0.63849 0.0
C4155 C 0.77356 0.56194 0.59377 0.0
N4156 N 0.78598 0.60022 0.71499 0.0
N4157 N 0.76855 0.56607 0.63014 0.0
H4158 H 0.86775 0.77431 0.49489 0.0
H4159 H 0.84886 0.71707 0.28694 0.0
H4160 H 0.88974 0.73773 0.46814 0.0
H4161 H 0.82039 0.74725 0.31616 0.0
H4162 H 0.86639 0.72753 0.3501 0.0
H4163 H 0.85182 0.76647 0.42902 0.0
C4164 C 0.86928 0.76463 0.47522 0.0
C4165 C 0.88042 0.75689 0.48726 0.0
C4166 C 0.85657 0.7322 0.34269 0.0
C4167 C 0.86207 0.74787 0.41109 0.0
C4168 C 0.84673 0.72642 0.30611 0.0
C4169 C 0.83339 0.73153 0.29553 0.0
C4170 C 0.85295 0.7431 0.3699 0.0
C4171 C 0.83088 0.74334 0.32242 0.0
C4172 C 0.86011 0.76015 0.43752 0.0
C4173 C 0.88138 0.74409 0.46055 0.0
N4174 N 0.84044 0.7486 0.35851 0.0
N4175 N 0.8725 0.74013 0.42383 0.0
H4176 H 0.24978 0.07675 0.31116 0.0
H4177 H 0.26163 0.15478 0.47485 0.0
H4178 H 0.29291 0.13463 0.3048 0.0
H4179 H 0.22508 0.09544 0.49233 0.0
H4180 H 0.27164 0.14811 0.40997 0.0
H4181 H 0.238 0.08375 0.37358 0.0
C4182 C 0.25642 0.09103 0.32217 0.0
C4183 C 0.2722 0.10522 0.30234 0.0
C4184 C 0.26139 0.13654 0.42799 0.0
C4185 C 0.25912 0.11331 0.37434 0.0
C4186 C 0.25577 0.14035 0.46535 0.0
C4187 C 0.24228 0.12571 0.48936 0.0
C4188 C 0.2535 0.11793 0.41414 0.0
C4189 C 0.23515 0.10728 0.47475 0.0
C4190 C 0.24987 0.09501 0.35814 0.0
C4191 C 0.28061 0.12336 0.31884 0.0
N4192 N 0.24077 0.10396 0.43829 0.0
N4193 N 0.27403 0.12689 0.35366 0.0
H4194 H 0.89783 0.1315 0.50519 0.0
H4195 H 0.86906 0.1624 0.29946 0.0
H4196 H 0.84012 0.10551 0.46734 0.0
H4197 H 0.92472 0.17338 0.327 0.0
H4198 H 0.85733 0.14234 0.36025 0.0
H4199 H 0.90726 0.14906 0.44177 0.0
C4200 C 0.88712 0.12948 0.48341 0.0
C4201 C 0.86818 0.11686 0.4915 0.0
C4202 C 0.87204 0.14882 0.35253 0.0
C4203 C 0.87893 0.1369 0.41795 0.0
C4204 C 0.87868 0.16005 0.31756 0.0
C4205 C 0.89779 0.16896 0.30735 0.0
C4206 C 0.88475 0.14709 0.37823 0.0
C4207 C 0.90982 0.16628 0.33302 0.0
C4208 C 0.89251 0.13947 0.44703 0.0
C4209 C 0.85488 0.11513 0.46238 0.0
N4210 N 0.90315 0.15573 0.36719 0.0
N4211 N 0.8605 0.12495 0.4268 0.0
H4212 H 0.23467 0.16003 0.80016 0.0
H4213 H 0.26898 0.13905 1.01004 0.0
H4214 H 0.29244 0.18601 0.83546 0.0
H4215 H 0.216 0.09903 0.95658 0.0
H4216 H 0.27728 0.15692 0.9468 0.0
H4217 H 0.22652 0.13807 0.85736 0.0
C4218 C 0.24578 0.16024 0.81791 0.0
C4219 C 0.26456 0.1733 0.80909 0.0
C4220 C 0.26384 0.14418 0.94886 0.0
C4221 C 0.25522 0.14985 0.87839 0.0
C4222 C 0.25911 0.13384 0.98509 0.0
C4223 C 0.24159 0.11747 0.98951 0.0
C4224 C 0.25095 0.13838 0.91649 0.0
C4225 C 0.22944 0.11178 0.95558 0.0
C4226 C 0.2411 0.14808 0.85149 0.0
C4227 C 0.27802 0.17492 0.83787 0.0
N4228 N 0.23424 0.12225 0.92093 0.0
N4229 N 0.27316 0.1634 0.87065 0.0
H4230 H 0.85676 0.12808 1.01323 0.0
H4231 H 0.83357 0.07532 0.80577 0.0
H4232 H 0.89942 0.12083 0.95377 0.0
H4233 H 0.81873 0.11802 0.82407 0.0
H4234 H 0.85525 0.08793 0.86379 0.0
H4235 H 0.83934 0.12043 0.94906 0.0
C4236 C 0.86264 0.1251 0.98682 0.0
C4237 C 0.87966 0.12502 0.9895 0.0
C4238 C 0.84749 0.09473 0.85458 0.0
C4239 C 0.85938 0.11575 0.91599 0.0
C4240 C 0.83536 0.08773 0.82113 0.0
C4241 C 0.82505 0.09621 0.8088 0.0
C4242 C 0.84837 0.10954 0.87753 0.0
C4243 C 0.82693 0.11149 0.83165 0.0
C4244 C 0.8526 0.12067 0.95019 0.0
C4245 C 0.88619 0.12063 0.95393 0.0
N4246 N 0.83811 0.11748 0.86525 0.0
N4247 N 0.87597 0.11596 0.91898 0.0
H4248 H 0.87553 0.71019 0.80124 0.0
H4249 H 0.89812 0.78148 0.98634 0.0
H4250 H 0.92646 0.76288 0.81405 0.0
H4251 H 0.84295 0.73367 0.96922 0.0
H4252 H 0.90816 0.7739 0.92345 0.0
H4253 H 0.86238 0.71802 0.86015 0.0
C4254 C 0.88353 0.72387 0.81503 0.0
C4255 C 0.90173 0.73636 0.80113 0.0
C4256 C 0.89382 0.76503 0.93315 0.0
C4257 C 0.8874 0.74491 0.8708 0.0
C4258 C 0.88799 0.7694 0.9693 0.0
C4259 C 0.86945 0.75852 0.98317 0.0
C4260 C 0.88119 0.74945 0.91007 0.0
C4261 C 0.85735 0.74259 0.95996 0.0
C4262 C 0.87621 0.72815 0.84938 0.0
C4263 C 0.91213 0.75317 0.82258 0.0
N4264 N 0.86339 0.73859 0.92458 0.0
N4265 N 0.90488 0.7569 0.85614 0.0
H4266 H 0.82883 0.57352 0.2639 0.0
H4267 H 0.79757 0.5977 0.05541 0.0
H4268 H 0.83011 0.62566 0.24185 0.0
H4269 H 0.76229 0.54279 0.10664 0.0
H4270 H 0.81529 0.60729 0.11891 0.0
H4271 H 0.8092 0.56054 0.20217 0.0
C4272 C 0.82442 0.58198 0.24737 0.0
C4273 C 0.83023 0.60039 0.25999 0.0
C4274 C 0.80369 0.5931 0.11606 0.0
C4275 C 0.80936 0.5863 0.18753 0.0
C4276 C 0.79339 0.58762 0.0798 0.0
C4277 C 0.77818 0.56934 0.07501 0.0
C4278 C 0.7991 0.58023 0.14799 0.0
C4279 C 0.77402 0.55692 0.10808 0.0
C4280 C 0.81354 0.57471 0.21168 0.0
C4281 C 0.82528 0.61114 0.23501 0.0
N4282 N 0.78441 0.56254 0.14294 0.0
N4283 N 0.81544 0.60409 0.20022 0.0
H4284 H 0.39939 0.17482 0.08438 0.0
H4285 H 0.41131 0.25235 0.24955 0.0
H4286 H 0.43686 0.2341 0.06801 0.0
H4287 H 0.36932 0.19403 0.25595 0.0
H4288 H 0.42312 0.24585 0.18638 0.0
H4289 H 0.38952 0.18149 0.14922 0.0
C4290 C 0.4055 0.18926 0.09409 0.0
C4291 C 0.41918 0.20385 0.07033 0.0
C4292 C 0.41148 0.23442 0.20199 0.0
C4293 C 0.40813 0.21163 0.14575 0.0
C4294 C 0.4049 0.23812 0.23831 0.0
C4295 C 0.38943 0.22363 0.25837 0.0
C4296 C 0.40253 0.21612 0.1857 0.0
C4297 C 0.38137 0.20553 0.24174 0.0
C4298 C 0.39996 0.19306 0.13149 0.0
C4299 C 0.42662 0.22227 0.08535 0.0
N4300 N 0.38793 0.2023 0.2066 0.0
N4301 N 0.42107 0.22559 0.12191 0.0
H4302 H 0.77261 0.18619 0.04043 0.0
H4303 H 0.79122 0.16998 0.26509 0.0
H4304 H 0.81035 0.23547 0.1084 0.0
H4305 H 0.73472 0.14899 0.22312 0.0
H4306 H 0.80275 0.19129 0.20616 0.0
H4307 H 0.76294 0.16822 0.10418 0.0
C4308 C 0.77904 0.19313 0.06873 0.0
C4309 C 0.7923 0.21229 0.06924 0.0
C4310 C 0.78782 0.18232 0.2105 0.0
C4311 C 0.78143 0.19187 0.14202 0.0
C4312 C 0.78122 0.17043 0.24443 0.0
C4313 C 0.7619 0.15848 0.25032 0.0
C4314 C 0.77505 0.18135 0.18095 0.0
C4315 C 0.74965 0.15855 0.22072 0.0
C4316 C 0.77344 0.18295 0.10501 0.0
C4317 C 0.80013 0.22068 0.10681 0.0
N4318 N 0.75641 0.16957 0.18717 0.0
N4319 N 0.79468 0.21041 0.14174 0.0
H4320 H 0.00133 0.44157 0.24401 0.0
H4321 H 0.98852 0.43145 0.47908 0.0
H4322 H 0.04452 0.44088 0.316 0.0
H4323 H 0.94286 0.39263 0.40426 0.0
H4324 H 0.00941 0.44064 0.42104 0.0
H4325 H 0.97991 0.4292 0.30135 0.0
C4326 C 0.00629 0.43828 0.27111 0.0
C4327 C 0.02473 0.44141 0.27351 0.0
C4328 C 0.99488 0.4299 0.41735 0.0
C4329 C 0.0003 0.42862 0.3419 0.0
C4330 C 0.98287 0.42428 0.45115 0.0
C4331 C 0.96392 0.41021 0.44832 0.0
C4332 C 0.98781 0.4223 0.37895 0.0
C4333 C 0.95743 0.40299 0.40899 0.0
C4334 C 0.99399 0.43147 0.30446 0.0
C4335 C 0.03038 0.43823 0.31173 0.0
N4336 N 0.9692 0.40922 0.37606 0.0
N4337 N 0.01839 0.43228 0.34423 0.0
H4338 H 0.60932 0.57943 0.44524 0.0
H4339 H 0.52826 0.55424 0.27821 0.0
H4340 H 0.55719 0.52735 0.44329 0.0
H4341 H 0.57581 0.60962 0.29011 0.0
H4342 H 0.53957 0.54389 0.33547 0.0
H4343 H 0.59828 0.5905 0.38795 0.0
C4344 C 0.59536 0.57046 0.43369 0.0
C4345 C 0.58388 0.55276 0.45134 0.0
C4346 C 0.54775 0.55828 0.32546 0.0
C4347 C 0.57136 0.565 0.38282 0.0
C4348 C 0.54143 0.56419 0.29177 0.0
C4349 C 0.55146 0.58274 0.27714 0.0
C4350 C 0.56429 0.57099 0.34598 0.0
C4351 C 0.56778 0.59508 0.29901 0.0
C4352 C 0.5891 0.57673 0.40035 0.0
C4353 C 0.5663 0.54143 0.43257 0.0
N4354 N 0.57368 0.58902 0.33181 0.0
N4355 N 0.56069 0.54766 0.39972 0.0
H4356 H 0.39437 0.94582 0.32298 0.0
H4357 H 0.44816 0.0521 0.40194 0.0
H4358 H 0.43201 0.99041 0.24463 0.0
H4359 H 0.44034 0.00677 0.47907 0.0
H4360 H 0.43727 0.03028 0.34393 0.0
H4361 H 0.40596 0.96781 0.38057 0.0
C4362 C 0.40465 0.96033 0.31731 0.0
C4363 C 0.41136 0.96622 0.27754 0.0
C4364 C 0.43767 0.02505 0.37381 0.0
C4365 C 0.42468 0.99194 0.34445 0.0
C4366 C 0.44381 0.03752 0.40728 0.0
C4367 C 0.44475 0.03145 0.44684 0.0
C4368 C 0.43184 0.00596 0.37942 0.0
C4369 C 0.43929 0.0123 0.4505 0.0
C4370 C 0.41137 0.97292 0.35051 0.0
C4371 C 0.42535 0.98523 0.27342 0.0
N4372 N 0.4329 0.00035 0.41784 0.0
N4373 N 0.43123 0.99734 0.30586 0.0
H4374 H 0.9448 0.54275 0.90376 0.0
H4375 H 0.05043 0.6039 0.82234 0.0
H4376 H 0.99194 0.56123 0.9837 0.0
H4377 H 0.00678 0.56118 0.74919 0.0
H4378 H 0.0289 0.59292 0.88071 0.0
H4379 H 0.96639 0.55302 0.84574 0.0
C4380 C 0.9597 0.54947 0.90966 0.0
C4381 C 0.96635 0.55189 0.95003 0.0
C4382 C 0.02396 0.58611 0.85159 0.0
C4383 C 0.99159 0.56419 0.88238 0.0
C4384 C 0.03627 0.59247 0.81793 0.0
C4385 C 0.03057 0.58397 0.77937 0.0
C4386 C 0.0054 0.57125 0.84714 0.0
C4387 C 0.01198 0.56884 0.77689 0.0
C4388 C 0.97208 0.55526 0.87617 0.0
C4389 C 0.98594 0.56001 0.95438 0.0
N4390 N 0.00016 0.5632 0.80966 0.0
N4391 N -0.00225 0.56611 0.92154 0.0
H4392 H 0.43241 0.43972 0.74509 0.0
H4393 H 0.44162 0.43459 0.98166 0.0
H4394 H 0.39568 0.44848 0.82286 0.0
H4395 H 0.44332 0.39298 0.90592 0.0
H4396 H 0.42963 0.44439 0.92469 0.0
H4397 H 0.44133 0.42705 0.80232 0.0
C4398 C 0.42565 0.43842 0.77361 0.0
C4399 C 0.41227 0.4442 0.7777 0.0
C4400 C 0.43236 0.43293 0.9206 0.0
C4401 C 0.42402 0.43121 0.8457 0.0
C4402 C 0.43896 0.42702 0.95368 0.0
C4403 C 0.44266 0.41212 0.95005 0.0
C4404 C 0.43024 0.4246 0.88231 0.0
C4405 C 0.44022 0.40412 0.91105 0.0
C4406 C 0.43111 0.43149 0.80682 0.0
C4407 C 0.40551 0.44365 0.81734 0.0
N4408 N 0.4344 0.41054 0.8789 0.0
N4409 N 0.41156 0.43751 0.84959 0.0
H4410 H 0.5637 0.00327 0.98429 0.0
H4411 H 0.55287 0.98833 0.74643 0.0
H4412 H 0.59767 0.04849 0.90343 0.0
H4413 H 0.54796 0.94412 0.82347 0.0
H4414 H 0.56511 0.01011 0.80305 0.0
H4415 H 0.55377 0.98138 0.92774 0.0
C4416 C 0.56953 0.00874 0.9552 0.0
C4417 C 0.58232 0.02802 0.95017 0.0
C4418 C 0.56158 0.9957 0.80764 0.0
C4419 C 0.56974 0.00255 0.88278 0.0
C4420 C 0.55477 0.98312 0.77464 0.0
C4421 C 0.55014 0.96424 0.77842 0.0
C4422 C 0.56302 0.9894 0.84632 0.0
C4423 C 0.55181 0.95855 0.81795 0.0
C4424 C 0.56358 0.99605 0.92232 0.0
C4425 C 0.58821 0.03384 0.90985 0.0
N4426 N 0.55788 0.97089 0.85007 0.0
N4427 N 0.5818 0.02134 0.87808 0.0
H4428 H 0.60913 0.72374 0.73429 0.0
H4429 H 0.71483 0.77983 0.65643 0.0
H4430 H 0.65216 0.766 0.80938 0.0
H4431 H 0.6703 0.77295 0.5775 0.0
H4432 H 0.6926 0.76886 0.71353 0.0
H4433 H 0.63114 0.73513 0.67665 0.0
C4434 C 0.6233 0.73507 0.73931 0.0
C4435 C 0.62877 0.74322 0.77822 0.0
C4436 C 0.68758 0.76929 0.68341 0.0
C4437 C 0.65444 0.75627 0.71151 0.0
C4438 C 0.70028 0.77548 0.65052 0.0
C4439 C 0.69446 0.77648 0.61076 0.0
C4440 C 0.66853 0.76341 0.67694 0.0
C4441 C 0.67541 0.77129 0.60627 0.0
C4442 C 0.63586 0.74164 0.70611 0.0
C4443 C 0.64732 0.75834 0.78153 0.0
N4444 N 0.66318 0.76471 0.63838 0.0
N4445 N 0.65943 0.76408 0.74926 0.0
H4446 H 0.22082 0.86326 0.78152 0.0
H4447 H 0.24722 0.94764 0.62263 0.0
H4448 H 0.27666 0.91012 0.77109 0.0
H4449 H 0.19508 0.89557 0.61896 0.0
H4450 H 0.25785 0.93526 0.67829 0.0
H4451 H 0.21072 0.87584 0.726 0.0
C4452 C 0.23092 0.87656 0.76878 0.0
C4453 C 0.24954 0.88602 0.78341 0.0
C4454 C 0.24411 0.92644 0.66524 0.0
C4455 C 0.23803 0.9004 0.71666 0.0
C4456 C 0.23807 0.9335 0.63292 0.0
C4457 C 0.22039 0.92256 0.61453 0.0
C4458 C 0.23223 0.90834 0.6809 0.0
C4459 C 0.20899 0.9045 0.63104 0.0
C4460 C 0.22515 0.88362 0.73609 0.0
C4461 C 0.26205 0.90255 0.76245 0.0
N4462 N 0.21501 0.89809 0.66297 0.0
N4463 N 0.2561 0.90921 0.73079 0.0
H4464 H 0.11396 0.38244 0.73531 0.0
H4465 H 0.05462 0.27499 0.66203 0.0
H4466 H 0.10162 0.33686 0.81604 0.0
H4467 H 0.09303 0.31845 0.58251 0.0
H4468 H 0.06692 0.2975 0.7188 0.0
H4469 H 0.10177 0.35991 0.67863 0.0
C4470 C 0.10834 0.36772 0.74174 0.0
C4471 C 0.10841 0.36183 0.78196 0.0
C4472 C 0.07235 0.30223 0.68857 0.0
C4473 C 0.09397 0.33548 0.71604 0.0
C4474 C 0.06523 0.28934 0.65584 0.0
C4475 C 0.07194 0.29472 0.61586 0.0
C4476 C 0.08615 0.32106 0.68181 0.0
C4477 C 0.08635 0.31354 0.6112 0.0
C4478 C 0.10144 0.3548 0.70903 0.0
C4479 C 0.10133 0.34239 0.78697 0.0
N4480 N 0.09264 0.32593 0.6431 0.0
N4481 N 0.09426 0.33007 0.75504 0.0
H4482 H 0.69443 0.89124 0.11231 0.0
H4483 H 0.62971 0.90935 0.26838 0.0
H4484 H 0.69931 0.94547 0.12475 0.0
H4485 H 0.6425 0.86519 0.28504 0.0
H4486 H 0.65208 0.92135 0.21144 0.0
H4487 H 0.67244 0.8799 0.16963 0.0
C4488 C 0.69059 0.90072 0.12635 0.0
C4489 C 0.69855 0.91933 0.11238 0.0
C4490 C 0.65013 0.90911 0.22775 0.0
C4491 C 0.67311 0.90628 0.17945 0.0
C4492 C 0.63736 0.90228 0.26058 0.0
C4493 C 0.63445 0.88649 0.28296 0.0
C4494 C 0.65974 0.89975 0.21562 0.0
C4495 C 0.64454 0.8777 0.27003 0.0
C4496 C 0.67811 0.89424 0.15962 0.0
C4497 C 0.69336 0.93095 0.13343 0.0
N4498 N 0.65646 0.88428 0.23741 0.0
N4499 N 0.68095 0.92425 0.16529 0.0
H4500 H 0.0781 0.71624 0.27909 0.0
H4501 H 0.11033 0.7913 0.09835 0.0
H4502 H 0.13326 0.76453 0.27261 0.0
H4503 H 0.05217 0.75655 0.12931 0.0
H4504 H 0.11903 0.77909 0.15674 0.0
H4505 H 0.06836 0.72844 0.22164 0.0
C4506 C 0.08811 0.72955 0.26625 0.0
C4507 C 0.10641 0.73953 0.28207 0.0
C4508 C 0.10433 0.77397 0.15075 0.0
C4509 C 0.0956 0.75324 0.2137 0.0
C4510 C 0.09926 0.78081 0.11673 0.0
C4511 C 0.08035 0.77483 0.10784 0.0
C4512 C 0.09046 0.76071 0.17656 0.0
C4513 C 0.0669 0.76156 0.13446 0.0
C4514 C 0.08257 0.73646 0.23292 0.0
C4515 C 0.11891 0.75641 0.26227 0.0
N4516 N 0.07216 0.75489 0.16717 0.0
N4517 N 0.11337 0.76258 0.22928 0.0
H4518 H 0.23075 0.28736 0.14219 0.0
H4519 H 0.23268 0.37269 0.26438 0.0
H4520 H 0.20982 0.32123 0.09008 0.0
H4521 H 0.27587 0.35851 0.28086 0.0
H4522 H 0.22057 0.35087 0.20654 0.0
H4523 H 0.24382 0.30977 0.19915 0.0
C4524 C 0.22899 0.29954 0.14238 0.0
C4525 C 0.21922 0.30229 0.11052 0.0
C4526 C 0.23255 0.35232 0.22321 0.0
C4527 C 0.23377 0.32795 0.17694 0.0
C4528 C 0.23952 0.36483 0.25643 0.0
C4529 C 0.25521 0.36733 0.27886 0.0
C4530 C 0.24095 0.34165 0.21233 0.0
C4531 C 0.26341 0.3567 0.26621 0.0
C4532 C 0.23645 0.31235 0.17506 0.0
C4533 C 0.21732 0.31838 0.11317 0.0
N4534 N 0.25612 0.34427 0.2345 0.0
N4535 N 0.22428 0.33035 0.14565 0.0
H4536 H 0.32364 0.09944 0.15081 0.0
H4537 H 0.33932 0.10468 0.91604 0.0
H4538 H 0.27948 0.06077 0.07243 0.0
H4539 H 0.38414 0.11258 0.99496 0.0
H4540 H 0.31754 0.09255 0.97163 0.0
H4541 H 0.34579 0.10824 0.09562 0.0
C4542 C 0.31844 0.09231 0.12267 0.0
C4543 C 0.29943 0.07848 0.11807 0.0
C4544 C 0.33207 0.09662 0.97687 0.0
C4545 C 0.3252 0.08988 0.05184 0.0
C4546 C 0.34471 0.10333 0.94428 0.0
C4547 C 0.36378 0.10881 0.94883 0.0
C4548 C 0.33846 0.09615 1.01597 0.0
C4549 C 0.36957 0.10804 0.98883 0.0
C4550 C 0.33131 0.09763 0.0905 0.0
C4551 C 0.29396 0.07104 0.07858 0.0
N4552 N 0.35712 0.10208 1.02064 0.0
N4553 N 0.30661 0.07693 0.04722 0.0
H4554 H 0.88964 0.23079 0.91033 0.0
H4555 H 0.89316 0.22103 0.14754 0.0
H4556 H 0.87938 0.26656 0.988 0.0
H4557 H 0.93276 0.21623 0.07116 0.0
H4558 H 0.88403 0.23368 0.09071 0.0
H4559 H 0.90129 0.22128 0.96768 0.0
C4560 C 0.8902 0.23714 0.93885 0.0
C4561 C 0.8842 0.25039 0.94265 0.0
C4562 C 0.89492 0.23014 0.08643 0.0
C4563 C 0.89653 0.23812 1.01124 0.0
C4564 C 0.90046 0.22316 0.11947 0.0
C4565 C 0.91464 0.21842 0.1157 0.0
C4566 C 0.90284 0.23159 0.04795 0.0
C4567 C 0.92223 0.22018 0.07649 0.0
C4568 C 0.89672 0.2314 0.97226 0.0
C4569 C 0.88431 0.2568 0.98252 0.0
N4570 N 0.91615 0.22637 0.04439 0.0
N4571 N 0.89014 0.25053 1.01499 0.0
H4572 H 0.71812 0.63456 0.94687 0.0
H4573 H 0.79209 0.6824 0.12834 0.0
H4574 H 0.76702 0.62892 0.95864 0.0
H4575 H 0.75751 0.705 0.08968 0.0
H4576 H 0.7805 0.6604 0.07231 0.0
H4577 H 0.73012 0.65824 1.00104 0.0
C4578 C 0.73157 0.63851 0.96003 0.0
C4579 C 0.74179 0.63005 0.94627 0.0
C4580 C 0.77526 0.67003 0.07605 0.0
C4581 C 0.75514 0.65648 1.01208 0.0
C4582 C 0.7817 0.68262 0.10916 0.0
C4583 C 0.77555 0.69566 0.11574 0.0
C4584 C 0.76229 0.67002 0.04826 0.0
C4585 C 0.76261 0.69523 0.08689 0.0
C4586 C 0.73834 0.65195 0.99172 0.0
C4587 C 0.75872 0.63524 0.96708 0.0
N4588 N 0.75639 0.68269 0.05501 0.0
N4589 N 0.76466 0.6478 0.99881 0.0
H4590 H 0.34403 0.21948 0.42771 0.0
H4591 H 0.30143 0.24896 0.61232 0.0
H4592 H 0.37148 0.27652 0.46966 0.0
H4593 H 0.29297 0.19335 0.59972 0.0
H4594 H 0.32457 0.25961 0.55735 0.0
H4595 H 0.3225 0.21019 0.48396 0.0
C4596 C 0.34547 0.23034 0.44768 0.0
C4597 C 0.35974 0.24913 0.442 0.0
C4598 C 0.31775 0.24509 0.56666 0.0
C4599 C 0.33456 0.23803 0.50969 0.0
C4600 C 0.30461 0.239 0.59872 0.0
C4601 C 0.29553 0.22031 0.61239 0.0
C4602 C 0.32133 0.23225 0.54599 0.0
C4603 C 0.29973 0.20797 0.59114 0.0
C4604 C 0.33311 0.2248 0.48091 0.0
C4605 C 0.36073 0.26194 0.4718 0.0
N4606 N 0.31203 0.21405 0.5591 0.0
N4607 N 0.34836 0.25625 0.50384 0.0
H4608 H 0.74872 0.05161 0.60991 0.0
H4609 H 0.77469 0.13121 0.44014 0.0
H4610 H 0.79815 0.10601 0.61618 0.0
H4611 H 0.71879 0.08461 0.45345 0.0
H4612 H 0.78448 0.12065 0.49991 0.0
H4613 H 0.73832 0.0619 0.55011 0.0
C4614 C 0.75726 0.06582 0.59932 0.0
C4615 C 0.77405 0.07807 0.61953 0.0
C4616 C 0.77009 0.11255 0.48966 0.0
C4617 C 0.76262 0.08983 0.54889 0.0
C4618 C 0.7645 0.11846 0.45484 0.0
C4619 C 0.74591 0.10854 0.4404 0.0
C4620 C 0.75708 0.09643 0.51088 0.0
C4621 C 0.73332 0.09258 0.46266 0.0
C4622 C 0.75137 0.07168 0.56477 0.0
C4623 C 0.78481 0.09617 0.60283 0.0
N4624 N 0.73911 0.08699 0.4963 0.0
N4625 N 0.77902 0.10139 0.5687 0.0
H4626 H 0.93857 0.71617 0.57447 0.0
H4627 H 0.87342 0.6107 0.49445 0.0
H4628 H 0.89454 0.67496 0.64933 0.0
H4629 H 0.89554 0.65808 0.41492 0.0
H4630 H 0.88364 0.63227 0.55287 0.0
H4631 H 0.92695 0.69385 0.51768 0.0
C4632 C 0.92665 0.70235 0.57948 0.0
C4633 C 0.91792 0.69763 0.61785 0.0
C4634 C 0.88673 0.63799 0.52249 0.0
C4635 C 0.90436 0.67149 0.55168 0.0
C4636 C 0.88096 0.62563 0.48877 0.0
C4637 C 0.88454 0.63237 0.4484 0.0
C4638 C 0.89683 0.65753 0.51651 0.0
C4639 C 0.89358 0.65199 0.44427 0.0
C4640 C 0.91992 0.68958 0.54669 0.0
C4641 C 0.90226 0.67937 0.62136 0.0
N4642 N 0.89969 0.66372 0.47731 0.0
N4643 N 0.89616 0.66706 0.58918 0.0
H4644 H 0.03634 0.51864 0.19187 0.0
H4645 H 0.95861 0.47742 1.01912 0.0
H4646 H 0.98516 0.46669 0.20151 0.0
H4647 H 0.00847 0.53071 1.01084 0.0
H4648 H 0.97073 0.47052 0.08058 0.0
H4649 H 0.02595 0.52464 0.12675 0.0
C4650 C 0.02272 0.50846 0.18013 0.0
C4651 C 0.01309 0.49031 0.19608 0.0
C4652 C 0.97909 0.48382 0.06546 0.0
C4653 C 0.00048 0.49733 0.12525 0.0
C4654 C 0.97229 0.48768 1.03025 0.0
C4655 C 0.98107 0.50619 1.01629 0.0
C4656 C 0.99567 0.49818 0.08265 0.0
C4657 C 0.00016 0.51724 1.02533 0.0
C4658 C 0.01698 0.51173 0.14274 0.0
C4659 C 0.99418 0.47955 0.18546 0.0
N4660 N 0.00663 0.51372 0.06017 0.0
N4661 N 0.98875 0.48238 0.14856 0.0
H4662 H 0.52988 0.51913 0.21262 0.0
H4663 H 0.46338 0.47483 1.02155 0.0
H4664 H 0.47682 0.51621 0.20089 0.0
H4665 H 0.51687 0.4788 0.03307 0.0
H4666 H 0.4694 0.49328 0.08363 0.0
H4667 H 0.52268 0.49905 0.15274 0.0
C4668 C 0.5165 0.51402 0.19762 0.0
C4669 C 0.50541 0.52211 0.20579 0.0
C4670 C 0.47983 0.48996 0.07298 0.0
C4671 C 0.49712 0.49965 0.13906 0.0
C4672 C 0.47666 0.47993 0.037 0.0
C4673 C 0.4881 0.4723 1.02817 0.0
C4674 C 0.49545 0.49349 0.09667 0.0
C4675 C 0.50626 0.48176 0.04409 0.0
C4676 C 0.51264 0.50301 0.16288 0.0
C4677 C 0.48715 0.51279 0.19029 0.0
N4678 N 0.50906 0.49082 0.07998 0.0
N4679 N 0.48393 0.50309 0.15516 0.0
H4680 H 0.5191 0.98653 1.01344 0.0
H4681 H 0.47414 0.00865 0.20317 0.0
H4682 H 0.51514 0.03612 1.024 0.0
H4683 H 0.47778 0.95894 0.19229 0.0
H4684 H 0.49284 0.02095 0.14158 0.0
H4685 H 0.49889 0.97353 0.07291 0.0
C4686 C 0.51372 0.99466 1.02801 0.0
C4687 C 0.52159 0.0138 1.01963 0.0
C4688 C 0.48939 0.00717 0.15221 0.0
C4689 C 0.49906 -0.00051 0.08621 0.0
C4690 C 0.47916 0.00036 0.18792 0.0
C4691 C 0.47138 0.9813 0.19677 0.0
C4692 C 0.49281 0.99501 0.12857 0.0
C4693 C 0.48071 0.97244 0.18098 0.0
C4694 C 0.50266 0.98745 0.06261 0.0
C4695 C 0.51204 0.02254 0.03491 0.0
N4696 N 0.48992 0.97866 0.14527 0.0
N4697 N 0.50226 0.01599 0.06987 0.0
H4698 H 0.52269 0.00258 0.7127 0.0
H4699 H 0.47217 0.99353 0.50224 0.0
H4700 H 0.47568 0.95176 0.66831 0.0
H4701 H 0.52129 0.04334 0.54242 0.0
H4702 H 0.47619 0.97645 0.55816 0.0
H4703 H 0.51924 0.01919 0.65483 0.0
C4704 C 0.51121 0.99494 0.69168 0.0
C4705 C 0.50086 0.97532 0.69262 0.0
C4706 C 0.48613 0.99124 0.55477 0.0
C4707 C 0.49743 0.99372 0.62644 0.0
C4708 C 0.4842 0.00088 0.52205 0.0
C4709 C 0.4948 0.02049 0.52163 0.0
C4710 C 0.49885 0.00161 0.58575 0.0
C4711 C 0.51113 0.02879 0.54522 0.0
C4712 C 0.50962 0.00432 0.658 0.0
C4713 C 0.48528 0.96649 0.66679 0.0
N4714 N 0.5121 0.01963 0.57834 0.0
N4715 N 0.48455 0.97553 0.63329 0.0
H4716 H 0.0019 0.47624 0.50937 0.0
H4717 H 0.99379 0.51754 0.72092 0.0
H4718 H 0.95149 0.47309 0.55372 0.0
H4719 H 0.04457 0.5216 0.67595 0.0
H4720 H 0.97672 0.49625 0.66505 0.0
H4721 H 0.01898 0.49656 0.56657 0.0
C4722 C 0.99445 0.48025 0.5305 0.0
C4723 C 0.97484 0.47093 0.5304 0.0
C4724 C 0.9917 0.50188 0.66748 0.0
C4725 C 0.99373 0.49323 0.59549 0.0
C4726 C 0.00135 0.51351 0.70014 0.0
C4727 C 0.02099 0.52314 0.69996 0.0
C4728 C 0.00208 0.50019 0.63563 0.0
C4729 C 0.02975 0.51622 0.67457 0.0
C4730 C 0.00408 0.49135 0.56381 0.0
C4731 C 0.96624 0.47807 0.55568 0.0
N4732 N 0.02049 0.50606 0.64155 0.0
N4733 N 0.97547 0.48793 0.58907 0.0
H4734 H 0.52027 0.5321 0.5133 0.0
H4735 H 0.47542 0.46416 0.70143 0.0
H4736 H 0.51695 0.47873 0.52196 0.0
H4737 H 0.47937 0.51767 0.69141 0.0
H4738 H 0.49215 0.46958 0.6372 0.0
H4739 H 0.49896 0.52384 0.57115 0.0
C4740 C 0.5148 0.51843 0.52709 0.0
C4741 C 0.52294 0.5074 0.51877 0.0
C4742 C 0.4893 0.48021 0.64874 0.0
C4743 C 0.49917 0.498 0.58336 0.0
C4744 C 0.48018 0.47732 0.68582 0.0
C4745 C 0.47291 0.48891 0.69605 0.0
C4746 C 0.49284 0.49596 0.62566 0.0
C4747 C 0.48212 0.507 0.67983 0.0
C4748 C 0.50306 0.51395 0.56068 0.0
C4749 C 0.51329 0.48889 0.53268 0.0
N4750 N 0.49063 0.50968 0.64331 0.0
N4751 N 0.50288 0.48506 0.56683 0.0
H4752 H 0.62442 0.81037 0.35873 0.0
H4753 H 0.7012 0.85057 0.53336 0.0
H4754 H 0.67481 0.86322 0.35218 0.0
H4755 H 0.65169 0.79694 0.539 0.0
H4756 H 0.68985 0.85744 0.47075 0.0
H4757 H 0.6354 0.80336 0.42176 0.0
C4758 C 0.63805 0.8205 0.37052 0.0
C4759 C 0.64721 0.83901 0.35664 0.0
C4760 C 0.6814 0.84404 0.48545 0.0
C4761 C 0.66051 0.83091 0.42485 0.0
C4762 C 0.68768 0.84023 0.52147 0.0
C4763 C 0.67893 0.82166 0.53495 0.0
C4764 C 0.66517 0.82958 0.46722 0.0
C4765 C 0.66007 0.81039 0.52455 0.0
C4766 C 0.64412 0.81663 0.40678 0.0
C4767 C 0.66614 0.84991 0.36695 0.0
N4768 N 0.65407 0.81383 0.48898 0.0
N4769 N 0.67191 0.84646 0.4028 0.0
H4770 H 0.19341 0.85631 0.54926 0.0
H4771 H 0.16293 0.81359 0.32763 0.0
H4772 H 0.16419 0.87406 0.46835 0.0
H4773 H 0.13844 0.78208 0.43539 0.0
H4774 H 0.18112 0.8419 0.37098 0.0
H4775 H 0.18936 0.83242 0.49834 0.0
C4776 C 0.18599 0.85502 0.52121 0.0
C4777 C 0.17918 0.86713 0.51248 0.0
C4778 C 0.17191 0.82843 0.3847 0.0
C4779 C 0.17655 0.84207 0.45397 0.0
C4780 C 0.1612 0.81269 0.36026 0.0
C4781 C 0.14827 0.79589 0.37883 0.0
C4782 C 0.17029 0.82641 0.42714 0.0
C4783 C 0.14727 0.79494 0.42077 0.0
C4784 C 0.18444 0.84213 0.49184 0.0
C4785 C 0.16983 0.86518 0.47587 0.0
N4786 N 0.15812 0.80984 0.44375 0.0
N4787 N 0.16901 0.85308 0.44758 0.0
H4788 H 0.18013 0.34852 0.33284 0.0
H4789 H 0.13544 0.3347 0.5495 0.0
H4790 H 0.21574 0.3607 0.43656 0.0
H4791 H 0.12744 0.28738 0.47798 0.0
H4792 H 0.16032 0.35545 0.50175 0.0
H4793 H 0.15281 0.3361 0.37966 0.0
C4794 C 0.18219 0.34886 0.36534 0.0
C4795 C 0.19998 0.35524 0.38182 0.0
C4796 C 0.15275 0.34044 0.49689 0.0
C4797 C 0.17015 0.34351 0.43381 0.0
C4798 C 0.13929 0.32868 0.52466 0.0
C4799 C 0.12937 0.30935 0.51727 0.0
C4800 C 0.15544 0.33254 0.46173 0.0
C4801 C 0.13471 0.3021 0.48491 0.0
C4802 C 0.16692 0.34236 0.39171 0.0
C4803 C 0.20229 0.35617 0.42367 0.0
N4804 N 0.14711 0.31377 0.45756 0.0
N4805 N 0.1876 0.35036 0.44853 0.0
H4806 H 0.19518 0.34288 0.03922 0.0
H4807 H 0.12891 0.31899 0.84739 0.0
H4808 H 0.14215 0.29295 1.02828 0.0
H4809 H 0.18268 0.36842 0.8568 0.0
H4810 H 0.13619 0.3062 0.90722 0.0
H4811 H 0.1896 0.35417 0.97498 0.0
C4812 C 0.18209 0.33436 1.02335 0.0
C4813 C 0.1708 0.31542 0.03317 0.0
C4814 C 0.1464 0.32 0.89647 0.0
C4815 C 0.16376 0.32805 0.96248 0.0
C4816 C 0.1425 0.32708 0.8617 0.0
C4817 C 0.15387 0.34614 0.85288 0.0
C4818 C 0.16215 0.3321 0.91976 0.0
C4819 C 0.17224 0.35479 0.86775 0.0
C4820 C 0.1792 0.34053 0.98616 0.0
C4821 C 0.15275 0.30637 1.01666 0.0
N4822 N 0.17547 0.34846 0.90303 0.0
N4823 N 0.15012 0.31202 0.97982 0.0
H4824 H 0.6643 0.85449 0.05551 0.0
H4825 H 0.6633 0.80848 0.8434 0.0
H4826 H 0.71338 0.8607 0.99496 0.0
H4827 H 0.61377 0.8004 0.9053 0.0
H4828 H 0.68239 0.83057 0.89626 0.0
H4829 H 0.64485 0.83112 1.0049 0.0
C4830 C 0.67098 0.8503 1.03276 0.0
C4831 C 0.6904 0.86052 1.0273 0.0
C4832 C 0.66729 0.82415 0.89783 0.0
C4833 C 0.66875 0.8349 0.96928 0.0
C4834 C 0.65645 0.81201 0.86704 0.0
C4835 C 0.63701 0.80169 0.87174 0.0
C4836 C 0.65828 0.82592 0.93232 0.0
C4837 C 0.62874 0.80735 0.90151 0.0
C4838 C 0.65993 0.83739 1.00325 0.0
C4839 C 0.69844 0.85394 0.99903 0.0
N4840 N 0.63944 0.81859 0.93192 0.0
N4841 N 0.68757 0.8421 0.96962 0.0
H4842 H 0.14633 0.85354 1.02805 0.0
H4843 H 0.18261 0.81152 0.8572 0.0
H4844 H 0.1465 0.8021 0.03922 0.0
H4845 H 0.18674 0.86519 0.84745 0.0
H4846 H 0.16324 0.80493 0.91771 0.0
H4847 H 0.16231 0.85927 0.96256 0.0
C4848 C 0.14991 0.84342 1.01658 0.0
C4849 C 0.14168 0.82537 0.03301 0.0
C4850 C 0.16837 0.81823 0.9024 0.0
C4851 C 0.16085 0.83212 0.96184 0.0
C4852 C 0.17919 0.82189 0.8676 0.0
C4853 C 0.18906 0.84035 0.85335 0.0
C4854 C 0.16642 0.8328 0.9193 0.0
C4855 C 0.18139 0.85174 0.86217 0.0
C4856 C 0.15865 0.84652 0.97896 0.0
C4857 C 0.15003 0.81478 1.02271 0.0
N4858 N 0.17138 0.84844 0.89684 0.0
N4859 N 0.15799 0.8174 0.98558 0.0
H4860 H 0.29842 0.18373 0.77036 0.0
H4861 H 0.37352 0.17878 0.82534 0.0
H4862 H 0.31405 0.16268 0.66795 0.0
H4863 H 0.32608 0.13385 0.88528 0.0
H4864 H 0.35337 0.17744 0.77027 0.0
H4865 H 0.30667 0.16646 0.81582 0.0
C4866 C 0.30332 0.17518 0.75761 0.0
C4867 C 0.30541 0.17463 0.716 0.0
C4868 C 0.34753 0.16748 0.79497 0.0
C4869 C 0.31662 0.15598 0.76758 0.0
C4870 C 0.35884 0.16862 0.82697 0.0
C4871 C 0.35166 0.15483 0.8569 0.0
C4872 C 0.32862 0.15386 0.79591 0.0
C4873 C 0.33222 0.14382 0.86073 0.0
C4874 C 0.30783 0.16512 0.78337 0.0
C4875 C 0.3127 0.16383 0.70033 0.0
N4876 N 0.32114 0.14338 0.82987 0.0
N4877 N 0.31909 0.15554 0.72668 0.0
H4878 H 0.81141 0.18282 0.86987 0.0
H4879 H 0.84943 0.14439 0.69491 0.0
H4880 H 0.86534 0.18717 0.87317 0.0
H4881 H 0.79658 0.14228 0.69038 0.0
H4882 H 0.85719 0.16283 0.75732 0.0
H4883 H 0.80376 0.16378 0.80843 0.0
C4884 C 0.8216 0.17943 0.85793 0.0
C4885 C 0.84031 0.18934 0.87067 0.0
C4886 C 0.84378 0.15828 0.74288 0.0
C4887 C 0.8316 0.16697 0.80373 0.0
C4888 C 0.8395 0.14814 0.70681 0.0
C4889 C 0.82086 0.13891 0.69344 0.0
C4890 C 0.82974 0.16057 0.76154 0.0
C4891 C 0.81006 0.14695 0.70449 0.0
C4892 C 0.81736 0.1689 0.82247 0.0
C4893 C 0.85161 0.18181 0.85971 0.0
N4894 N 0.81395 0.15634 0.74019 0.0
N4895 N 0.8477 0.17197 0.8246 0.0
H4896 H 0.85361 0.66337 0.68032 0.0
H4897 H 0.80561 0.66499 0.88743 0.0
H4898 H 0.85875 0.71329 0.73447 0.0
H4899 H 0.80167 0.61555 0.83362 0.0
H4900 H 0.82909 0.68392 0.83665 0.0
H4901 H 0.83156 0.6449 0.73357 0.0
C4902 C 0.84941 0.67038 0.70224 0.0
C4903 C 0.85906 0.68993 0.70506 0.0
C4904 C 0.82321 0.66887 0.83645 0.0
C4905 C 0.83499 0.66941 0.76629 0.0
C4906 C 0.81019 0.65813 0.86601 0.0
C4907 C 0.80041 0.63861 0.86202 0.0
C4908 C 0.82627 0.65965 0.80406 0.0
C4909 C 0.80782 0.63048 0.83612 0.0
C4910 C 0.83734 0.65993 0.73339 0.0
C4911 C 0.85248 0.69831 0.73247 0.0
N4912 N 0.81977 0.64099 0.80657 0.0
N4913 N 0.84143 0.68807 0.76349 0.0
H4914 H 0.8121 0.61777 0.3308 0.0
H4915 H 0.85442 0.71294 0.21244 0.0
H4916 H 0.85741 0.66976 0.37606 0.0
H4917 H 0.80646 0.6623 0.17071 0.0
H4918 H 0.85929 0.6956 0.26532 0.0
H4919 H 0.80802 0.63404 0.27506 0.0
C4920 C 0.82084 0.63271 0.3303 0.0
C4921 C 0.83622 0.64218 0.35658 0.0
C4922 C 0.84766 0.68823 0.24454 0.0
C4923 C 0.83244 0.66066 0.29067 0.0
C4924 C 0.84512 0.69809 0.21336 0.0
C4925 C 0.82855 0.68942 0.19053 0.0
C4926 C 0.83372 0.66969 0.25142 0.0
C4927 C 0.81846 0.66979 0.19051 0.0
C4928 C 0.81886 0.64197 0.29723 0.0
C4929 C 0.84623 0.66174 0.35469 0.0
N4930 N 0.82045 0.66052 0.22239 0.0
N4931 N 0.84482 0.67037 0.3209 0.0
H4932 H 0.37123 0.18278 0.36864 0.0
H4933 H 0.29426 0.14694 0.1945 0.0
H4934 H 0.32027 0.18423 0.37659 0.0
H4935 H 0.34299 0.14116 0.18894 0.0
H4936 H 0.30603 0.16507 0.25712 0.0
H4937 H 0.36019 0.16468 0.30565 0.0
C4938 C 0.35753 0.17912 0.35705 0.0
C4939 C 0.3481 0.18813 0.37154 0.0
C4940 C 0.31419 0.15977 0.24235 0.0
C4941 C 0.33481 0.16669 0.30326 0.0
C4942 C 0.30766 0.14973 0.2063 0.0
C4943 C 0.31611 0.13969 0.19222 0.0
C4944 C 0.33013 0.16091 0.2607 0.0
C4945 C 0.33488 0.14667 0.20308 0.0
C4946 C 0.35137 0.16903 0.32095 0.0
C4947 C 0.32908 0.17976 0.36165 0.0
N4948 N 0.34094 0.15588 0.23889 0.0
N4949 N 0.3233 0.17054 0.32579 0.0
H4950 H 0.84826 0.14291 0.19294 0.0
H4951 H 0.81197 0.18452 0.36486 0.0
H4952 H 0.85073 0.19576 0.18359 0.0
H4953 H 0.80962 0.13184 0.37437 0.0
H4954 H 0.82955 0.19082 0.30141 0.0
H4955 H 0.8302 0.13641 0.25559 0.0
C4956 C 0.84469 0.1531 0.20392 0.0
C4957 C 0.85401 0.1715 0.18929 0.0
C4958 C 0.825 0.17767 0.31698 0.0
C4959 C 0.83264 0.16399 0.25723 0.0
C4960 C 0.81525 0.17421 0.35336 0.0
C4961 C 0.80595 0.15584 0.3681 0.0
C4962 C 0.82694 0.16315 0.29964 0.0
C4963 C 0.81401 0.14489 0.35861 0.0
C4964 C 0.83473 0.14954 0.24001 0.0
C4965 C 0.84599 0.18251 0.19874 0.0
N4966 N 0.82295 0.14786 0.32256 0.0
N4967 N 0.83679 0.17936 0.23448 0.0
loop_
_geom_bond_atom_site_label_1
_geom_bond_atom_site_label_2
_geom_bond_distance
_geom_bond_site_symmetry_2
_ccdc_geom_bond_type
Tb0 N31 2.660 . S
Tb0 N38 2.600 . S
Tb0 O44 2.546 . S
Tb0 O45 2.610 . S
Tb0 O47 2.320 . S
Tb0 O48 2.552 . S
Tb0 O49 2.413 . S
Tb0 O51 2.362 . S
Tb0 O52 2.421 . S
Tb0 C64 2.833 . S
C1 C4 1.432 1_655 S
C1 C5 1.414 . S
C1 N8 1.359 . S
C2 C4 1.417 1_655 S
C2 C6 1.432 . S
C2 C14 1.410 1_655 S
C3 C5 1.444 . S
C3 C6 1.317 . S
C3 H26 0.929 . S
C4 C1 1.432 1_455 S
C4 C2 1.417 1_455 S
C4 N12 1.360 . S
C5 C1 1.414 . S
C5 C3 1.444 . S
C5 C10 1.385 . S
C6 C2 1.432 . S
C6 C3 1.317 . S
C6 H18 0.930 . S
C7 C9 1.392 . S
C7 C10 1.370 . S
C7 H19 0.931 . S
N8 C1 1.359 . S
N8 C9 1.327 . S
N8 Tb11 2.600 1_655 S
C9 C7 1.392 . S
C9 N8 1.327 . S
C9 H16 0.930 . S
C10 C5 1.385 . S
C10 C7 1.370 . S
C10 H29 0.930 . S
Tb11 N8 2.600 1_455 S
Tb11 N12 2.660 . S
Tb11 O45 2.362 . S
Tb11 O46 2.421 . S
Tb11 O50 2.546 . S
Tb11 O51 2.610 . S
Tb11 O53 2.320 . S
Tb11 O54 2.552 . S
Tb11 O55 2.413 . S
Tb11 C75 2.833 . S
N12 C4 1.360 . S
N12 Tb11 2.660 . S
N12 C13 1.305 . S
C13 N12 1.305 . S
C13 C15 1.407 . S
C13 H20 0.930 . S
C14 C2 1.410 1_455 S
C14 C15 1.345 . S
C14 H22 0.930 . S
C15 C13 1.407 . S
C15 C14 1.345 . S
C15 H17 0.930 . S
H16 C9 0.930 . S
H17 C15 0.930 . S
H18 C6 0.930 . S
H19 C7 0.931 . S
H20 C13 0.930 . S
H21 C35 0.930 . S
H22 C14 0.930 . S
H23 C41 0.930 . S
H24 C32 0.930 . S
H25 C39 0.931 . S
H26 C3 0.929 . S
H27 C33 0.930 . S
H28 C66 0.930 . S
H29 C10 0.930 . S
H30 C65 0.929 . S
N31 Tb0 2.660 . S
N31 C32 1.305 . S
N31 C36 1.360 . S
C32 H24 0.930 . S
C32 N31 1.305 . S
C32 C35 1.407 . S
C33 H27 0.930 . S
C33 C34 1.410 . S
C33 C35 1.345 . S
C34 C33 1.410 . S
C34 C36 1.417 . S
C34 C66 1.432 . S
C35 H21 0.930 . S
C35 C32 1.407 . S
C35 C33 1.345 . S
C36 N31 1.360 . S
C36 C34 1.417 . S
C36 C40 1.432 . S
H37 C42 0.930 . S
N38 Tb0 2.600 . S
N38 C40 1.359 . S
N38 C41 1.327 . S
C39 H25 0.931 . S
C39 C41 1.392 . S
C39 C42 1.370 . S
C40 C36 1.432 . S
C40 N38 1.359 . S
C40 C43 1.414 . S
C41 H23 0.930 . S
C41 N38 1.327 . S
C41 C39 1.392 . S
C42 H37 0.930 . S
C42 C39 1.370 . S
C42 C43 1.385 . S
C43 C40 1.414 . S
C43 C42 1.385 . S
C43 C65 1.444 . S
O44 Tb0 2.546 . S
O44 C64 1.251 . S
O45 Tb0 2.610 . S
O45 Tb11 2.362 . S
O45 C56 1.283 . S
O46 Tb11 2.421 . S
O46 C63 1.262 . S
O47 Tb0 2.320 . S
O47 C63 1.260 . S
O48 Tb0 2.552 . S
O48 C56 1.243 . S
O49 Tb0 2.413 . S
O49 C64 1.256 . S
O50 Tb11 2.546 . S
O50 C75 1.251 . S
O51 Tb0 2.362 . S
O51 Tb11 2.610 . S
O51 C67 1.283 . S
O52 Tb0 2.421 . S
O52 C74 1.262 . S
O53 Tb11 2.320 . S
O53 C74 1.260 . S
O54 Tb11 2.552 . S
O54 C67 1.243 . S
O55 Tb11 2.413 . S
O55 C75 1.256 . S
C56 O45 1.283 . S
C56 O48 1.243 . S
C57 C59 1.382 . S
C57 C61 1.393 . S
C57 C64 1.500 . S
C58 C59 1.400 . S
C58 C60 1.384 . S
C59 C57 1.382 . S
C59 C58 1.400 . S
C59 H76 0.930 . S
C60 C58 1.384 . S
C60 C62 1.392 . S
C60 H77 0.931 . S
C61 C57 1.393 . S
C61 C62 1.401 . S
C61 H78 0.930 . S
C62 C60 1.392 . S
C62 C61 1.401 . S
C62 H79 0.930 . S
C63 O46 1.262 . S
C63 O47 1.260 . S
C64 Tb0 2.833 . S
C64 O44 1.251 . S
C64 O49 1.256 . S
C64 C57 1.500 . S
C65 H30 0.929 . S
C65 C43 1.444 . S
C65 C66 1.317 . S
C66 H28 0.930 . S
C66 C34 1.432 . S
C66 C65 1.317 . S
C67 O51 1.283 . S
C67 O54 1.243 . S
C68 C69 1.382 . S
C68 C72 1.393 1_455 S
C68 C75 1.500 1_556 S
C69 C68 1.382 . S
C69 C70 1.400 . S
C69 H80 0.930 . S
C70 C69 1.400 . S
C70 C71 1.384 1_455 S
C71 C70 1.384 1_655 S
C71 C73 1.392 . S
C71 H81 0.931 . S
C72 C68 1.393 1_655 S
C72 C73 1.401 . S
C72 H82 0.930 . S
C73 C71 1.392 . S
C73 C72 1.401 . S
C73 H83 0.930 . S
C74 O52 1.262 . S
C74 O53 1.260 . S
C75 Tb11 2.833 . S
C75 O50 1.251 . S
C75 O55 1.256 . S
C75 C68 1.500 1_554 S
H76 C59 0.930 . S
H77 C60 0.931 . S
H78 C61 0.930 . S
H79 C62 0.930 . S
H80 C69 0.930 . S
H81 C71 0.931 . S
H82 C72 0.930 . S
H83 C73 0.930 . S
Tb84 N115 2.660 . S
Tb84 N122 2.600 . S
Tb84 O128 2.546 . S
Tb84 O129 2.610 . S
Tb84 O131 2.320 . S
Tb84 O132 2.552 . S
Tb84 O133 2.413 . S
Tb84 O135 2.362 . S
Tb84 O136 2.421 . S
Tb84 C148 2.833 . S
C85 C88 1.432 . S
C85 C89 1.414 . S
C85 N92 1.359 . S
C86 C88 1.417 . S
C86 C90 1.432 . S
C86 C98 1.410 . S
C87 C89 1.444 . S
C87 C90 1.317 . S
C87 H110 0.929 . S
C88 C85 1.432 . S
C88 C86 1.417 . S
C88 N96 1.360 . S
C89 C85 1.414 . S
C89 C87 1.444 . S
C89 C94 1.385 . S
C90 C86 1.432 . S
C90 C87 1.317 . S
C90 H102 0.930 . S
C91 C93 1.392 . S
C91 C94 1.370 . S
C91 H103 0.931 . S
N92 C85 1.359 . S
N92 C93 1.327 . S
N92 Tb95 2.600 . S
C93 C91 1.392 . S
C93 N92 1.327 . S
C93 H100 0.930 . S
C94 C89 1.385 . S
C94 C91 1.370 . S
C94 H113 0.930 . S
Tb95 N92 2.600 . S
Tb95 N96 2.660 . S
Tb95 O129 2.362 . S
Tb95 O130 2.421 . S
Tb95 O134 2.546 . S
Tb95 O135 2.610 . S
Tb95 O137 2.320 . S
Tb95 O138 2.552 . S
Tb95 O139 2.413 . S
Tb95 C159 2.833 . S
N96 C88 1.360 . S
N96 Tb95 2.660 . S
N96 C97 1.305 . S
C97 N96 1.305 . S
C97 C99 1.407 . S
C97 H104 0.930 . S
C98 C86 1.410 . S
C98 C99 1.345 . S
C98 H106 0.930 . S
C99 C97 1.407 . S
C99 C98 1.345 . S
C99 H101 0.930 . S
H100 C93 0.930 . S
H101 C99 0.930 . S
H102 C90 0.930 . S
H103 C91 0.931 . S
H104 C97 0.930 . S
H105 C119 0.930 . S
H106 C98 0.930 . S
H107 C125 0.930 . S
H108 C116 0.930 . S
H109 C123 0.931 . S
H110 C87 0.929 . S
H111 C117 0.930 . S
H112 C150 0.930 . S
H113 C94 0.930 . S
H114 C149 0.929 . S
N115 Tb84 2.660 . S
N115 C116 1.305 . S
N115 C120 1.360 . S
C116 H108 0.930 . S
C116 N115 1.305 . S
C116 C119 1.407 . S
C117 H111 0.930 . S
C117 C118 1.410 . S
C117 C119 1.345 . S
C118 C117 1.410 . S
C118 C120 1.417 . S
C118 C150 1.432 . S
C119 H105 0.930 . S
C119 C116 1.407 . S
C119 C117 1.345 . S
C120 N115 1.360 . S
C120 C118 1.417 . S
C120 C124 1.432 . S
H121 C126 0.930 . S
N122 Tb84 2.600 . S
N122 C124 1.359 . S
N122 C125 1.327 . S
C123 H109 0.931 . S
C123 C125 1.392 . S
C123 C126 1.370 . S
C124 C120 1.432 . S
C124 N122 1.359 . S
C124 C127 1.414 . S
C125 H107 0.930 . S
C125 N122 1.327 . S
C125 C123 1.392 . S
C126 H121 0.930 . S
C126 C123 1.370 . S
C126 C127 1.385 . S
C127 C124 1.414 . S
C127 C126 1.385 . S
C127 C149 1.444 . S
O128 Tb84 2.546 . S
O128 C148 1.251 . S
O129 Tb84 2.610 . S
O129 Tb95 2.362 . S
O129 C140 1.283 . S
O130 Tb95 2.421 . S
O130 C147 1.262 . S
O131 Tb84 2.320 . S
O131 C147 1.260 . S
O132 Tb84 2.552 . S
O132 C140 1.243 . S
O133 Tb84 2.413 . S
O133 C148 1.256 . S
O134 Tb95 2.546 . S
O134 C159 1.251 . S
O135 Tb84 2.362 . S
O135 Tb95 2.610 . S
O135 C151 1.283 . S
O136 Tb84 2.421 . S
O136 C158 1.262 . S
O137 Tb95 2.320 . S
O137 C158 1.260 . S
O138 Tb95 2.552 . S
O138 C151 1.243 . S
O139 Tb95 2.413 . S
O139 C159 1.256 . S
C140 O129 1.283 . S
C140 O132 1.243 . S
C141 C143 1.382 . S
C141 C145 1.393 . S
C141 C148 1.500 . S
C142 C143 1.400 . S
C142 C144 1.384 . S
C143 C141 1.382 . S
C143 C142 1.400 . S
C143 H160 0.930 . S
C144 C142 1.384 . S
C144 C146 1.392 . S
C144 H161 0.931 . S
C145 C141 1.393 . S
C145 C146 1.401 . S
C145 H162 0.930 . S
C146 C144 1.392 . S
C146 C145 1.401 . S
C146 H163 0.930 . S
C147 O130 1.262 . S
C147 O131 1.260 . S
C148 Tb84 2.833 . S
C148 O128 1.251 . S
C148 O133 1.256 . S
C148 C141 1.500 . S
C149 H114 0.929 . S
C149 C127 1.444 . S
C149 C150 1.317 . S
C150 H112 0.930 . S
C150 C118 1.432 . S
C150 C149 1.317 . S
C151 O135 1.283 . S
C151 O138 1.243 . S
C152 C153 1.382 . S
C152 C156 1.393 . S
C152 C159 1.500 1_556 S
C153 C152 1.382 . S
C153 C154 1.400 . S
C153 H164 0.930 . S
C154 C153 1.400 . S
C154 C155 1.384 . S
C155 C154 1.384 . S
C155 C157 1.392 . S
C155 H165 0.931 . S
C156 C152 1.393 . S
C156 C157 1.401 . S
C156 H166 0.930 . S
C157 C155 1.392 . S
C157 C156 1.401 . S
C157 H167 0.930 . S
C158 O136 1.262 . S
C158 O137 1.260 . S
C159 Tb95 2.833 . S
C159 O134 1.251 . S
C159 O139 1.256 . S
C159 C152 1.500 1_554 S
H160 C143 0.930 . S
H161 C144 0.931 . S
H162 C145 0.930 . S
H163 C146 0.930 . S
H164 C153 0.930 . S
H165 C155 0.931 . S
H166 C156 0.930 . S
H167 C157 0.930 . S
Tb168 N199 2.660 . S
Tb168 N206 2.600 . S
Tb168 O212 2.546 . S
Tb168 O213 2.610 . S
Tb168 O215 2.320 . S
Tb168 O216 2.552 . S
Tb168 O217 2.413 . S
Tb168 O219 2.362 . S
Tb168 O220 2.421 . S
Tb168 C232 2.833 . S
C169 C172 1.432 1_545 S
C169 C173 1.414 . S
C169 N176 1.359 . S
C170 C172 1.417 1_545 S
C170 C174 1.432 . S
C170 C182 1.410 1_545 S
C171 C173 1.444 . S
C171 C174 1.317 . S
C171 H194 0.929 . S
C172 C169 1.432 1_565 S
C172 C170 1.417 1_565 S
C172 N180 1.360 . S
C173 C169 1.414 . S
C173 C171 1.444 . S
C173 C178 1.385 . S
C174 C170 1.432 . S
C174 C171 1.317 . S
C174 H186 0.930 . S
C175 C177 1.392 . S
C175 C178 1.370 . S
C175 H187 0.931 . S
N176 C169 1.359 . S
N176 C177 1.327 . S
N176 Tb179 2.600 1_545 S
C177 C175 1.392 . S
C177 N176 1.327 . S
C177 H184 0.930 . S
C178 C173 1.385 . S
C178 C175 1.370 . S
C178 H197 0.930 . S
Tb179 N176 2.600 1_565 S
Tb179 N180 2.660 . S
Tb179 O213 2.362 . S
Tb179 O214 2.421 . S
Tb179 O218 2.546 . S
Tb179 O219 2.610 . S
Tb179 O221 2.320 . S
Tb179 O222 2.552 . S
Tb179 O223 2.413 . S
Tb179 C243 2.833 . S
N180 C172 1.360 . S
N180 Tb179 2.660 . S
N180 C181 1.305 . S
C181 N180 1.305 . S
C181 C183 1.407 . S
C181 H188 0.930 . S
C182 C170 1.410 1_565 S
C182 C183 1.345 . S
C182 H190 0.930 . S
C183 C181 1.407 . S
C183 C182 1.345 . S
C183 H185 0.930 . S
H184 C177 0.930 . S
H185 C183 0.930 . S
H186 C174 0.930 . S
H187 C175 0.931 . S
H188 C181 0.930 . S
H189 C203 0.930 . S
H190 C182 0.930 . S
H191 C209 0.930 . S
H192 C200 0.930 . S
H193 C207 0.931 . S
H194 C171 0.929 . S
H195 C201 0.930 . S
H196 C234 0.930 . S
H197 C178 0.930 . S
H198 C233 0.929 . S
N199 Tb168 2.660 . S
N199 C200 1.305 . S
N199 C204 1.360 . S
C200 H192 0.930 . S
C200 N199 1.305 . S
C200 C203 1.407 . S
C201 H195 0.930 . S
C201 C202 1.410 . S
C201 C203 1.345 . S
C202 C201 1.410 . S
C202 C204 1.417 . S
C202 C234 1.432 . S
C203 H189 0.930 . S
C203 C200 1.407 . S
C203 C201 1.345 . S
C204 N199 1.360 . S
C204 C202 1.417 . S
C204 C208 1.432 . S
H205 C210 0.930 . S
N206 Tb168 2.600 . S
N206 C208 1.359 . S
N206 C209 1.327 . S
C207 H193 0.931 . S
C207 C209 1.392 . S
C207 C210 1.370 . S
C208 C204 1.432 . S
C208 N206 1.359 . S
C208 C211 1.414 . S
C209 H191 0.930 . S
C209 N206 1.327 . S
C209 C207 1.392 . S
C210 H205 0.930 . S
C210 C207 1.370 . S
C210 C211 1.385 . S
C211 C208 1.414 . S
C211 C210 1.385 . S
C211 C233 1.444 . S
O212 Tb168 2.546 . S
O212 C232 1.251 . S
O213 Tb168 2.610 . S
O213 Tb179 2.362 . S
O213 C224 1.283 . S
O214 Tb179 2.421 . S
O214 C231 1.262 . S
O215 Tb168 2.320 . S
O215 C231 1.260 . S
O216 Tb168 2.552 . S
O216 C224 1.243 . S
O217 Tb168 2.413 . S
O217 C232 1.256 . S
O218 Tb179 2.546 . S
O218 C243 1.251 . S
O219 Tb168 2.362 . S
O219 Tb179 2.610 . S
O219 C235 1.283 . S
O220 Tb168 2.421 . S
O220 C242 1.262 . S
O221 Tb179 2.320 . S
O221 C242 1.260 . S
O222 Tb179 2.552 . S
O222 C235 1.243 . S
O223 Tb179 2.413 . S
O223 C243 1.256 . S
C224 O213 1.283 . S
C224 O216 1.243 . S
C225 C227 1.382 . S
C225 C229 1.393 . S
C225 C232 1.500 . S
C226 C227 1.400 . S
C226 C228 1.384 . S
C227 C225 1.382 . S
C227 C226 1.400 . S
C227 H244 0.930 . S
C228 C226 1.384 . S
C228 C230 1.392 . S
C228 H245 0.931 . S
C229 C225 1.393 . S
C229 C230 1.401 . S
C229 H246 0.930 . S
C230 C228 1.392 . S
C230 C229 1.401 . S
C230 H247 0.930 . S
C231 O214 1.262 . S
C231 O215 1.260 . S
C232 Tb168 2.833 . S
C232 O212 1.251 . S
C232 O217 1.256 . S
C232 C225 1.500 . S
C233 H198 0.929 . S
C233 C211 1.444 . S
C233 C234 1.317 . S
C234 H196 0.930 . S
C234 C202 1.432 . S
C234 C233 1.317 . S
C235 O219 1.283 . S
C235 O222 1.243 . S
C236 C237 1.382 . S
C236 C240 1.393 1_565 S
C236 C243 1.500 1_556 S
C237 C236 1.382 . S
C237 C238 1.400 . S
C237 H248 0.930 . S
C238 C237 1.400 . S
C238 C239 1.384 1_565 S
C239 C238 1.384 1_545 S
C239 C241 1.392 . S
C239 H249 0.931 . S
C240 C236 1.393 1_545 S
C240 C241 1.401 . S
C240 H250 0.930 . S
C241 C239 1.392 . S
C241 C240 1.401 . S
C241 H251 0.930 . S
C242 O220 1.262 . S
C242 O221 1.260 . S
C243 Tb179 2.833 . S
C243 O218 1.251 . S
C243 O223 1.256 . S
C243 C236 1.500 1_554 S
H244 C227 0.930 . S
H245 C228 0.931 . S
H246 C229 0.930 . S
H247 C230 0.930 . S
H248 C237 0.930 . S
H249 C239 0.931 . S
H250 C240 0.930 . S
H251 C241 0.930 . S
Tb252 N283 2.660 . S
Tb252 N290 2.600 . S
Tb252 O296 2.546 . S
Tb252 O297 2.610 . S
Tb252 O299 2.320 . S
Tb252 O300 2.552 . S
Tb252 O301 2.413 . S
Tb252 O303 2.362 . S
Tb252 O304 2.421 . S
Tb252 C316 2.833 . S
C253 C256 1.432 1_565 S
C253 C257 1.414 . S
C253 N260 1.359 . S
C254 C256 1.417 1_565 S
C254 C258 1.432 . S
C254 C266 1.410 1_565 S
C255 C257 1.444 . S
C255 C258 1.317 . S
C255 H278 0.929 . S
C256 C253 1.432 1_545 S
C256 C254 1.417 1_545 S
C256 N264 1.360 . S
C257 C253 1.414 . S
C257 C255 1.444 . S
C257 C262 1.385 . S
C258 C254 1.432 . S
C258 C255 1.317 . S
C258 H270 0.930 . S
C259 C261 1.392 . S
C259 C262 1.370 . S
C259 H271 0.931 . S
N260 C253 1.359 . S
N260 C261 1.327 . S
N260 Tb263 2.600 1_565 S
C261 C259 1.392 . S
C261 N260 1.327 . S
C261 H268 0.930 . S
C262 C257 1.385 . S
C262 C259 1.370 . S
C262 H281 0.930 . S
Tb263 N260 2.600 1_545 S
Tb263 N264 2.660 . S
Tb263 O297 2.362 . S
Tb263 O298 2.421 . S
Tb263 O302 2.546 . S
Tb263 O303 2.610 . S
Tb263 O305 2.320 . S
Tb263 O306 2.552 . S
Tb263 O307 2.413 . S
Tb263 C327 2.833 . S
N264 C256 1.360 . S
N264 Tb263 2.660 . S
N264 C265 1.305 . S
C265 N264 1.305 . S
C265 C267 1.407 . S
C265 H272 0.930 . S
C266 C254 1.410 1_545 S
C266 C267 1.345 . S
C266 H274 0.930 . S
C267 C265 1.407 . S
C267 C266 1.345 . S
C267 H269 0.930 . S
H268 C261 0.930 . S
H269 C267 0.930 . S
H270 C258 0.930 . S
H271 C259 0.931 . S
H272 C265 0.930 . S
H273 C287 0.930 . S
H274 C266 0.930 . S
H275 C293 0.930 . S
H276 C284 0.930 . S
H277 C291 0.931 . S
H278 C255 0.929 . S
H279 C285 0.930 . S
H280 C318 0.930 . S
H281 C262 0.930 . S
H282 C317 0.929 . S
N283 Tb252 2.660 . S
N283 C284 1.305 . S
N283 C288 1.360 . S
C284 H276 0.930 . S
C284 N283 1.305 . S
C284 C287 1.407 . S
C285 H279 0.930 . S
C285 C286 1.410 . S
C285 C287 1.345 . S
C286 C285 1.410 . S
C286 C288 1.417 . S
C286 C318 1.432 . S
C287 H273 0.930 . S
C287 C284 1.407 . S
C287 C285 1.345 . S
C288 N283 1.360 . S
C288 C286 1.417 . S
C288 C292 1.432 . S
H289 C294 0.930 . S
N290 Tb252 2.600 . S
N290 C292 1.359 . S
N290 C293 1.327 . S
C291 H277 0.931 . S
C291 C293 1.392 . S
C291 C294 1.370 . S
C292 C288 1.432 . S
C292 N290 1.359 . S
C292 C295 1.414 . S
C293 H275 0.930 . S
C293 N290 1.327 . S
C293 C291 1.392 . S
C294 H289 0.930 . S
C294 C291 1.370 . S
C294 C295 1.385 . S
C295 C292 1.414 . S
C295 C294 1.385 . S
C295 C317 1.444 . S
O296 Tb252 2.546 . S
O296 C316 1.251 . S
O297 Tb252 2.610 . S
O297 Tb263 2.362 . S
O297 C308 1.283 . S
O298 Tb263 2.421 . S
O298 C315 1.262 . S
O299 Tb252 2.320 . S
O299 C315 1.260 . S
O300 Tb252 2.552 . S
O300 C308 1.243 . S
O301 Tb252 2.413 . S
O301 C316 1.256 . S
O302 Tb263 2.546 . S
O302 C327 1.251 . S
O303 Tb252 2.362 . S
O303 Tb263 2.610 . S
O303 C319 1.283 . S
O304 Tb252 2.421 . S
O304 C326 1.262 . S
O305 Tb263 2.320 . S
O305 C326 1.260 . S
O306 Tb263 2.552 . S
O306 C319 1.243 . S
O307 Tb263 2.413 . S
O307 C327 1.256 . S
C308 O297 1.283 . S
C308 O300 1.243 . S
C309 C311 1.382 . S
C309 C313 1.393 . S
C309 C316 1.500 . S
C310 C311 1.400 . S
C310 C312 1.384 . S
C311 C309 1.382 . S
C311 C310 1.400 . S
C311 H328 0.930 . S
C312 C310 1.384 . S
C312 C314 1.392 . S
C312 H329 0.931 . S
C313 C309 1.393 . S
C313 C314 1.401 . S
C313 H330 0.930 . S
C314 C312 1.392 . S
C314 C313 1.401 . S
C314 H331 0.930 . S
C315 O298 1.262 . S
C315 O299 1.260 . S
C316 Tb252 2.833 . S
C316 O296 1.251 . S
C316 O301 1.256 . S
C316 C309 1.500 . S
C317 H282 0.929 . S
C317 C295 1.444 . S
C317 C318 1.317 . S
C318 H280 0.930 . S
C318 C286 1.432 . S
C318 C317 1.317 . S
C319 O303 1.283 . S
C319 O306 1.243 . S
C320 C321 1.382 . S
C320 C324 1.393 1_545 S
C320 C327 1.500 . S
C321 C320 1.382 . S
C321 C322 1.400 . S
C321 H332 0.930 . S
C322 C321 1.400 . S
C322 C323 1.384 1_545 S
C323 C322 1.384 1_565 S
C323 C325 1.392 . S
C323 H333 0.931 . S
C324 C320 1.393 1_565 S
C324 C325 1.401 . S
C324 H334 0.930 . S
C325 C323 1.392 . S
C325 C324 1.401 . S
C325 H335 0.930 . S
C326 O304 1.262 . S
C326 O305 1.260 . S
C327 Tb263 2.833 . S
C327 O302 1.251 . S
C327 O307 1.256 . S
C327 C320 1.500 . S
H328 C311 0.930 . S
H329 C312 0.931 . S
H330 C313 0.930 . S
H331 C314 0.930 . S
H332 C321 0.930 . S
H333 C323 0.931 . S
H334 C324 0.930 . S
H335 C325 0.930 . S
Tb336 N367 2.660 . S
Tb336 N374 2.600 . S
Tb336 O380 2.546 . S
Tb336 O381 2.610 . S
Tb336 O383 2.320 . S
Tb336 O384 2.552 . S
Tb336 O385 2.413 . S
Tb336 O387 2.362 . S
Tb336 O388 2.421 . S
Tb336 C400 2.833 . S
C337 C340 1.432 1_455 S
C337 C341 1.414 . S
C337 N344 1.359 . S
C338 C340 1.417 1_455 S
C338 C342 1.432 . S
C338 C350 1.410 1_455 S
C339 C341 1.444 . S
C339 C342 1.317 . S
C339 H362 0.929 . S
C340 C337 1.432 1_655 S
C340 C338 1.417 1_655 S
C340 N348 1.360 . S
C341 C337 1.414 . S
C341 C339 1.444 . S
C341 C346 1.385 . S
C342 C338 1.432 . S
C342 C339 1.317 . S
C342 H354 0.930 . S
C343 C345 1.392 . S
C343 C346 1.370 . S
C343 H355 0.931 . S
N344 C337 1.359 . S
N344 C345 1.327 . S
N344 Tb347 2.600 1_455 S
C345 C343 1.392 . S
C345 N344 1.327 . S
C345 H352 0.930 . S
C346 C341 1.385 . S
C346 C343 1.370 . S
C346 H365 0.930 . S
Tb347 N344 2.600 1_655 S
Tb347 N348 2.660 . S
Tb347 O381 2.362 . S
Tb347 O382 2.421 . S
Tb347 O386 2.546 . S
Tb347 O387 2.610 . S
Tb347 O389 2.320 . S
Tb347 O390 2.552 . S
Tb347 O391 2.413 . S
Tb347 C411 2.833 . S
N348 C340 1.360 . S
N348 Tb347 2.660 . S
N348 C349 1.305 . S
C349 N348 1.305 . S
C349 C351 1.407 . S
C349 H356 0.930 . S
C350 C338 1.410 1_655 S
C350 C351 1.345 . S
C350 H358 0.930 . S
C351 C349 1.407 . S
C351 C350 1.345 . S
C351 H353 0.930 . S
H352 C345 0.930 . S
H353 C351 0.930 . S
H354 C342 0.930 . S
H355 C343 0.931 . S
H356 C349 0.930 . S
H357 C371 0.930 . S
H358 C350 0.930 . S
H359 C377 0.930 . S
H360 C368 0.930 . S
H361 C375 0.931 . S
H362 C339 0.929 . S
H363 C369 0.930 . S
H364 C402 0.930 . S
H365 C346 0.930 . S
H366 C401 0.929 . S
N367 Tb336 2.660 . S
N367 C368 1.305 . S
N367 C372 1.360 . S
C368 H360 0.930 . S
C368 N367 1.305 . S
C368 C371 1.407 . S
C369 H363 0.930 . S
C369 C370 1.410 . S
C369 C371 1.345 . S
C370 C369 1.410 . S
C370 C372 1.417 . S
C370 C402 1.432 . S
C371 H357 0.930 . S
C371 C368 1.407 . S
C371 C369 1.345 . S
C372 N367 1.360 . S
C372 C370 1.417 . S
C372 C376 1.432 . S
H373 C378 0.930 . S
N374 Tb336 2.600 . S
N374 C376 1.359 . S
N374 C377 1.327 . S
C375 H361 0.931 . S
C375 C377 1.392 . S
C375 C378 1.370 . S
C376 C372 1.432 . S
C376 N374 1.359 . S
C376 C379 1.414 . S
C377 H359 0.930 . S
C377 N374 1.327 . S
C377 C375 1.392 . S
C378 H373 0.930 . S
C378 C375 1.370 . S
C378 C379 1.385 . S
C379 C376 1.414 . S
C379 C378 1.385 . S
C379 C401 1.444 . S
O380 Tb336 2.546 . S
O380 C400 1.251 . S
O381 Tb336 2.610 . S
O381 Tb347 2.362 . S
O381 C392 1.283 . S
O382 Tb347 2.421 . S
O382 C399 1.262 . S
O383 Tb336 2.320 . S
O383 C399 1.260 . S
O384 Tb336 2.552 . S
O384 C392 1.243 . S
O385 Tb336 2.413 . S
O385 C400 1.256 . S
O386 Tb347 2.546 . S
O386 C411 1.251 . S
O387 Tb336 2.362 . S
O387 Tb347 2.610 . S
O387 C403 1.283 . S
O388 Tb336 2.421 . S
O388 C410 1.262 . S
O389 Tb347 2.320 . S
O389 C410 1.260 . S
O390 Tb347 2.552 . S
O390 C403 1.243 . S
O391 Tb347 2.413 . S
O391 C411 1.256 . S
C392 O381 1.283 . S
C392 O384 1.243 . S
C393 C395 1.382 . S
C393 C397 1.393 . S
C393 C400 1.500 . S
C394 C395 1.400 . S
C394 C396 1.384 . S
C395 C393 1.382 . S
C395 C394 1.400 . S
C395 H412 0.930 . S
C396 C394 1.384 . S
C396 C398 1.392 . S
C396 H413 0.931 . S
C397 C393 1.393 . S
C397 C398 1.401 . S
C397 H414 0.930 . S
C398 C396 1.392 . S
C398 C397 1.401 . S
C398 H415 0.930 . S
C399 O382 1.262 . S
C399 O383 1.260 . S
C400 Tb336 2.833 . S
C400 O380 1.251 . S
C400 O385 1.256 . S
C400 C393 1.500 . S
C401 H366 0.929 . S
C401 C379 1.444 . S
C401 C402 1.317 . S
C402 H364 0.930 . S
C402 C370 1.432 . S
C402 C401 1.317 . S
C403 O387 1.283 . S
C403 O390 1.243 . S
C404 C405 1.382 . S
C404 C408 1.393 1_655 S
C404 C411 1.500 . S
C405 C404 1.382 . S
C405 C406 1.400 . S
C405 H416 0.930 . S
C406 C405 1.400 . S
C406 C407 1.384 1_655 S
C407 C406 1.384 1_455 S
C407 C409 1.392 . S
C407 H417 0.931 . S
C408 C404 1.393 1_455 S
C408 C409 1.401 . S
C408 H418 0.930 . S
C409 C407 1.392 . S
C409 C408 1.401 . S
C409 H419 0.930 . S
C410 O388 1.262 . S
C410 O389 1.260 . S
C411 Tb347 2.833 . S
C411 O386 1.251 . S
C411 O391 1.256 . S
C411 C404 1.500 . S
H412 C395 0.930 . S
H413 C396 0.931 . S
H414 C397 0.930 . S
H415 C398 0.930 . S
H416 C405 0.930 . S
H417 C407 0.931 . S
H418 C408 0.930 . S
H419 C409 0.930 . S
Tb420 N451 2.660 . S
Tb420 N458 2.600 . S
Tb420 O464 2.546 . S
Tb420 O465 2.610 . S
Tb420 O467 2.320 . S
Tb420 O468 2.552 . S
Tb420 O469 2.413 . S
Tb420 O471 2.362 . S
Tb420 O472 2.421 . S
Tb420 C484 2.833 . S
C421 C424 1.432 . S
C421 C425 1.414 . S
C421 N428 1.359 . S
C422 C424 1.417 . S
C422 C426 1.432 . S
C422 C434 1.410 . S
C423 C425 1.444 . S
C423 C426 1.317 . S
C423 H446 0.929 . S
C424 C421 1.432 . S
C424 C422 1.417 . S
C424 N432 1.360 . S
C425 C421 1.414 . S
C425 C423 1.444 . S
C425 C430 1.385 . S
C426 C422 1.432 . S
C426 C423 1.317 . S
C426 H438 0.930 . S
C427 C429 1.392 . S
C427 C430 1.370 . S
C427 H439 0.931 . S
N428 C421 1.359 . S
N428 C429 1.327 . S
N428 Tb431 2.600 . S
C429 C427 1.392 . S
C429 N428 1.327 . S
C429 H436 0.930 . S
C430 C425 1.385 . S
C430 C427 1.370 . S
C430 H449 0.930 . S
Tb431 N428 2.600 . S
Tb431 N432 2.660 . S
Tb431 O465 2.362 . S
Tb431 O466 2.421 . S
Tb431 O470 2.546 . S
Tb431 O471 2.610 . S
Tb431 O473 2.320 . S
Tb431 O474 2.552 . S
Tb431 O475 2.413 . S
Tb431 C495 2.833 . S
N432 C424 1.360 . S
N432 Tb431 2.660 . S
N432 C433 1.305 . S
C433 N432 1.305 . S
C433 C435 1.407 . S
C433 H440 0.930 . S
C434 C422 1.410 . S
C434 C435 1.345 . S
C434 H442 0.930 . S
C435 C433 1.407 . S
C435 C434 1.345 . S
C435 H437 0.930 . S
H436 C429 0.930 . S
H437 C435 0.930 . S
H438 C426 0.930 . S
H439 C427 0.931 . S
H440 C433 0.930 . S
H441 C455 0.930 . S
H442 C434 0.930 . S
H443 C461 0.930 . S
H444 C452 0.930 . S
H445 C459 0.931 . S
H446 C423 0.929 . S
H447 C453 0.930 . S
H448 C486 0.930 . S
H449 C430 0.930 . S
H450 C485 0.929 . S
N451 Tb420 2.660 . S
N451 C452 1.305 . S
N451 C456 1.360 . S
C452 H444 0.930 . S
C452 N451 1.305 . S
C452 C455 1.407 . S
C453 H447 0.930 . S
C453 C454 1.410 . S
C453 C455 1.345 . S
C454 C453 1.410 . S
C454 C456 1.417 . S
C454 C486 1.432 . S
C455 H441 0.930 . S
C455 C452 1.407 . S
C455 C453 1.345 . S
C456 N451 1.360 . S
C456 C454 1.417 . S
C456 C460 1.432 . S
H457 C462 0.930 . S
N458 Tb420 2.600 . S
N458 C460 1.359 . S
N458 C461 1.327 . S
C459 H445 0.931 . S
C459 C461 1.392 . S
C459 C462 1.370 . S
C460 C456 1.432 . S
C460 N458 1.359 . S
C460 C463 1.414 . S
C461 H443 0.930 . S
C461 N458 1.327 . S
C461 C459 1.392 . S
C462 H457 0.930 . S
C462 C459 1.370 . S
C462 C463 1.385 . S
C463 C460 1.414 . S
C463 C462 1.385 . S
C463 C485 1.444 . S
O464 Tb420 2.546 . S
O464 C484 1.251 . S
O465 Tb420 2.610 . S
O465 Tb431 2.362 . S
O465 C476 1.283 . S
O466 Tb431 2.421 . S
O466 C483 1.262 . S
O467 Tb420 2.320 . S
O467 C483 1.260 . S
O468 Tb420 2.552 . S
O468 C476 1.243 . S
O469 Tb420 2.413 . S
O469 C484 1.256 . S
O470 Tb431 2.546 . S
O470 C495 1.251 . S
O471 Tb420 2.362 . S
O471 Tb431 2.610 . S
O471 C487 1.283 . S
O472 Tb420 2.421 . S
O472 C494 1.262 . S
O473 Tb431 2.320 . S
O473 C494 1.260 . S
O474 Tb431 2.552 . S
O474 C487 1.243 . S
O475 Tb431 2.413 . S
O475 C495 1.256 . S
C476 O465 1.283 . S
C476 O468 1.243 . S
C477 C479 1.382 . S
C477 C481 1.393 . S
C477 C484 1.500 . S
C478 C479 1.400 . S
C478 C480 1.384 . S
C479 C477 1.382 . S
C479 C478 1.400 . S
C479 H496 0.930 . S
C480 C478 1.384 . S
C480 C482 1.392 . S
C480 H497 0.931 . S
C481 C477 1.393 . S
C481 C482 1.401 . S
C481 H498 0.930 . S
C482 C480 1.392 . S
C482 C481 1.401 . S
C482 H499 0.930 . S
C483 O466 1.262 . S
C483 O467 1.260 . S
C484 Tb420 2.833 . S
C484 O464 1.251 . S
C484 O469 1.256 . S
C484 C477 1.500 . S
C485 H450 0.929 . S
C485 C463 1.444 . S
C485 C486 1.317 . S
C486 H448 0.930 . S
C486 C454 1.432 . S
C486 C485 1.317 . S
C487 O471 1.283 . S
C487 O474 1.243 . S
C488 C489 1.382 . S
C488 C492 1.393 . S
C488 C495 1.500 . S
C489 C488 1.382 . S
C489 C490 1.400 . S
C489 H500 0.930 . S
C490 C489 1.400 . S
C490 C491 1.384 . S
C491 C490 1.384 . S
C491 C493 1.392 . S
C491 H501 0.931 . S
C492 C488 1.393 . S
C492 C493 1.401 . S
C492 H502 0.930 . S
C493 C491 1.392 . S
C493 C492 1.401 . S
C493 H503 0.930 . S
C494 O472 1.262 . S
C494 O473 1.260 . S
C495 Tb431 2.833 . S
C495 O470 1.251 . S
C495 O475 1.256 . S
C495 C488 1.500 . S
H496 C479 0.930 . S
H497 C480 0.931 . S
H498 C481 0.930 . S
H499 C482 0.930 . S
H500 C489 0.930 . S
H501 C491 0.931 . S
H502 C492 0.930 . S
H503 C493 0.930 . S
Tb504 N535 2.660 . S
Tb504 N542 2.600 1_655 S
Tb504 O548 2.546 . S
Tb504 O549 2.610 . S
Tb504 O551 2.320 . S
Tb504 O552 2.552 . S
Tb504 O553 2.413 . S
Tb504 O555 2.362 . S
Tb504 O556 2.421 . S
Tb504 C568 2.833 . S
C505 C508 1.432 . S
C505 C509 1.414 . S
C505 N512 1.359 . S
C506 C508 1.417 . S
C506 C510 1.432 . S
C506 C518 1.410 . S
C507 C509 1.444 . S
C507 C510 1.317 . S
C507 H530 0.929 . S
C508 C505 1.432 . S
C508 C506 1.417 . S
C508 N516 1.360 . S
C509 C505 1.414 . S
C509 C507 1.444 . S
C509 C514 1.385 . S
C510 C506 1.432 . S
C510 C507 1.317 . S
C510 H522 0.930 . S
C511 C513 1.392 . S
C511 C514 1.370 . S
C511 H523 0.931 . S
N512 C505 1.359 . S
N512 C513 1.327 . S
N512 Tb515 2.600 . S
C513 C511 1.392 . S
C513 N512 1.327 . S
C513 H520 0.930 . S
C514 C509 1.385 . S
C514 C511 1.370 . S
C514 H533 0.930 . S
Tb515 N512 2.600 . S
Tb515 N516 2.660 . S
Tb515 O549 2.362 . S
Tb515 O550 2.421 . S
Tb515 O554 2.546 1_554 S
Tb515 O555 2.610 . S
Tb515 O557 2.320 . S
Tb515 O558 2.552 1_554 S
Tb515 O559 2.413 1_554 S
Tb515 C579 2.833 1_554 S
N516 C508 1.360 . S
N516 Tb515 2.660 . S
N516 C517 1.305 . S
C517 N516 1.305 . S
C517 C519 1.407 . S
C517 H524 0.930 . S
C518 C506 1.410 . S
C518 C519 1.345 . S
C518 H526 0.930 . S
C519 C517 1.407 . S
C519 C518 1.345 . S
C519 H521 0.930 . S
H520 C513 0.930 . S
H521 C519 0.930 . S
H522 C510 0.930 . S
H523 C511 0.931 . S
H524 C517 0.930 . S
H525 C539 0.930 . S
H526 C518 0.930 . S
H527 C545 0.930 . S
H528 C536 0.930 . S
H529 C543 0.931 . S
H530 C507 0.929 . S
H531 C537 0.930 1_556 S
H532 C570 0.930 1_556 S
H533 C514 0.930 . S
H534 C569 0.929 . S
N535 Tb504 2.660 . S
N535 C536 1.305 . S
N535 C540 1.360 . S
C536 H528 0.930 . S
C536 N535 1.305 . S
C536 C539 1.407 . S
C537 H531 0.930 1_554 S
C537 C538 1.410 1_655 S
C537 C539 1.345 . S
C538 C537 1.410 1_455 S
C538 C540 1.417 1_455 S
C538 C570 1.432 . S
C539 H525 0.930 . S
C539 C536 1.407 . S
C539 C537 1.345 . S
C540 N535 1.360 . S
C540 C538 1.417 1_655 S
C540 C544 1.432 1_655 S
H541 C546 0.930 . S
N542 Tb504 2.600 1_455 S
N542 C544 1.359 . S
N542 C545 1.327 . S
C543 H529 0.931 . S
C543 C545 1.392 . S
C543 C546 1.370 . S
C544 C540 1.432 1_455 S
C544 N542 1.359 . S
C544 C547 1.414 . S
C545 H527 0.930 . S
C545 N542 1.327 . S
C545 C543 1.392 . S
C546 H541 0.930 . S
C546 C543 1.370 . S
C546 C547 1.385 . S
C547 C544 1.414 . S
C547 C546 1.385 . S
C547 C569 1.444 . S
O548 Tb504 2.546 . S
O548 C568 1.251 . S
O549 Tb504 2.610 . S
O549 Tb515 2.362 . S
O549 C560 1.283 . S
O550 Tb515 2.421 . S
O550 C567 1.262 . S
O551 Tb504 2.320 . S
O551 C567 1.260 . S
O552 Tb504 2.552 . S
O552 C560 1.243 . S
O553 Tb504 2.413 . S
O553 C568 1.256 . S
O554 Tb515 2.546 1_556 S
O554 C579 1.251 . S
O555 Tb504 2.362 . S
O555 Tb515 2.610 . S
O555 C571 1.283 1_554 S
O556 Tb504 2.421 . S
O556 C578 1.262 . S
O557 Tb515 2.320 . S
O557 C578 1.260 . S
O558 Tb515 2.552 1_556 S
O558 C571 1.243 . S
O559 Tb515 2.413 1_556 S
O559 C579 1.256 . S
C560 O549 1.283 . S
C560 O552 1.243 . S
C561 C563 1.382 . S
C561 C565 1.393 1_655 S
C561 C568 1.500 . S
C562 C563 1.400 . S
C562 C564 1.384 1_655 S
C563 C561 1.382 . S
C563 C562 1.400 . S
C563 H580 0.930 . S
C564 C562 1.384 1_455 S
C564 C566 1.392 . S
C564 H581 0.931 . S
C565 C561 1.393 1_455 S
C565 C566 1.401 . S
C565 H582 0.930 . S
C566 C564 1.392 . S
C566 C565 1.401 . S
C566 H583 0.930 . S
C567 O550 1.262 . S
C567 O551 1.260 . S
C568 Tb504 2.833 . S
C568 O548 1.251 . S
C568 O553 1.256 . S
C568 C561 1.500 . S
C569 H534 0.929 . S
C569 C547 1.444 . S
C569 C570 1.317 . S
C570 H532 0.930 1_554 S
C570 C538 1.432 . S
C570 C569 1.317 . S
C571 O555 1.283 1_556 S
C571 O558 1.243 . S
C572 C573 1.382 . S
C572 C576 1.393 . S
C572 C579 1.500 . S
C573 C572 1.382 . S
C573 C574 1.400 . S
C573 H584 0.930 . S
C574 C573 1.400 . S
C574 C575 1.384 . S
C575 C574 1.384 . S
C575 C577 1.392 . S
C575 H585 0.931 . S
C576 C572 1.393 . S
C576 C577 1.401 . S
C576 H586 0.930 . S
C577 C575 1.392 . S
C577 C576 1.401 . S
C577 H587 0.930 . S
C578 O556 1.262 . S
C578 O557 1.260 . S
C579 Tb515 2.833 1_556 S
C579 O554 1.251 . S
C579 O559 1.256 . S
C579 C572 1.500 . S
H580 C563 0.930 . S
H581 C564 0.931 . S
H582 C565 0.930 . S
H583 C566 0.930 . S
H584 C573 0.930 . S
H585 C575 0.931 . S
H586 C576 0.930 . S
H587 C577 0.930 . S
Tb588 N619 2.660 . S
Tb588 N626 2.600 . S
Tb588 O632 2.546 . S
Tb588 O633 2.610 . S
Tb588 O635 2.320 . S
Tb588 O636 2.552 . S
Tb588 O637 2.413 . S
Tb588 O639 2.362 . S
Tb588 O640 2.421 . S
Tb588 C652 2.833 . S
C589 C592 1.432 . S
C589 C593 1.414 . S
C589 N596 1.359 . S
C590 C592 1.417 . S
C590 C594 1.432 . S
C590 C602 1.410 . S
C591 C593 1.444 . S
C591 C594 1.317 . S
C591 H614 0.929 . S
C592 C589 1.432 . S
C592 C590 1.417 . S
C592 N600 1.360 . S
C593 C589 1.414 . S
C593 C591 1.444 . S
C593 C598 1.385 . S
C594 C590 1.432 . S
C594 C591 1.317 . S
C594 H606 0.930 . S
C595 C597 1.392 . S
C595 C598 1.370 . S
C595 H607 0.931 . S
N596 C589 1.359 . S
N596 C597 1.327 . S
N596 Tb599 2.600 . S
C597 C595 1.392 . S
C597 N596 1.327 . S
C597 H604 0.930 . S
C598 C593 1.385 . S
C598 C595 1.370 . S
C598 H617 0.930 . S
Tb599 N596 2.600 . S
Tb599 N600 2.660 . S
Tb599 O633 2.362 . S
Tb599 O634 2.421 . S
Tb599 O638 2.546 1_554 S
Tb599 O639 2.610 . S
Tb599 O641 2.320 . S
Tb599 O642 2.552 1_554 S
Tb599 O643 2.413 1_554 S
Tb599 C663 2.833 1_554 S
N600 C592 1.360 . S
N600 Tb599 2.660 . S
N600 C601 1.305 . S
C601 N600 1.305 . S
C601 C603 1.407 . S
C601 H608 0.930 . S
C602 C590 1.410 . S
C602 C603 1.345 . S
C602 H610 0.930 . S
C603 C601 1.407 . S
C603 C602 1.345 . S
C603 H605 0.930 . S
H604 C597 0.930 . S
H605 C603 0.930 . S
H606 C594 0.930 . S
H607 C595 0.931 . S
H608 C601 0.930 . S
H609 C623 0.930 . S
H610 C602 0.930 . S
H611 C629 0.930 . S
H612 C620 0.930 . S
H613 C627 0.931 . S
H614 C591 0.929 . S
H615 C621 0.930 1_556 S
H616 C654 0.930 1_556 S
H617 C598 0.930 . S
H618 C653 0.929 . S
N619 Tb588 2.660 . S
N619 C620 1.305 . S
N619 C624 1.360 . S
C620 H612 0.930 . S
C620 N619 1.305 . S
C620 C623 1.407 . S
C621 H615 0.930 1_554 S
C621 C622 1.410 . S
C621 C623 1.345 . S
C622 C621 1.410 . S
C622 C624 1.417 . S
C622 C654 1.432 . S
C623 H609 0.930 . S
C623 C620 1.407 . S
C623 C621 1.345 . S
C624 N619 1.360 . S
C624 C622 1.417 . S
C624 C628 1.432 . S
H625 C630 0.930 . S
N626 Tb588 2.600 . S
N626 C628 1.359 . S
N626 C629 1.327 . S
C627 H613 0.931 . S
C627 C629 1.392 . S
C627 C630 1.370 . S
C628 C624 1.432 . S
C628 N626 1.359 . S
C628 C631 1.414 . S
C629 H611 0.930 . S
C629 N626 1.327 . S
C629 C627 1.392 . S
C630 H625 0.930 . S
C630 C627 1.370 . S
C630 C631 1.385 . S
C631 C628 1.414 . S
C631 C630 1.385 . S
C631 C653 1.444 . S
O632 Tb588 2.546 . S
O632 C652 1.251 . S
O633 Tb588 2.610 . S
O633 Tb599 2.362 . S
O633 C644 1.283 . S
O634 Tb599 2.421 . S
O634 C651 1.262 . S
O635 Tb588 2.320 . S
O635 C651 1.260 . S
O636 Tb588 2.552 . S
O636 C644 1.243 . S
O637 Tb588 2.413 . S
O637 C652 1.256 . S
O638 Tb599 2.546 1_556 S
O638 C663 1.251 . S
O639 Tb588 2.362 . S
O639 Tb599 2.610 . S
O639 C655 1.283 1_554 S
O640 Tb588 2.421 . S
O640 C662 1.262 . S
O641 Tb599 2.320 . S
O641 C662 1.260 . S
O642 Tb599 2.552 1_556 S
O642 C655 1.243 . S
O643 Tb599 2.413 1_556 S
O643 C663 1.256 . S
C644 O633 1.283 . S
C644 O636 1.243 . S
C645 C647 1.382 . S
C645 C649 1.393 . S
C645 C652 1.500 . S
C646 C647 1.400 . S
C646 C648 1.384 . S
C647 C645 1.382 . S
C647 C646 1.400 . S
C647 H664 0.930 . S
C648 C646 1.384 . S
C648 C650 1.392 . S
C648 H665 0.931 . S
C649 C645 1.393 . S
C649 C650 1.401 . S
C649 H666 0.930 . S
C650 C648 1.392 . S
C650 C649 1.401 . S
C650 H667 0.930 . S
C651 O634 1.262 . S
C651 O635 1.260 . S
C652 Tb588 2.833 . S
C652 O632 1.251 . S
C652 O637 1.256 . S
C652 C645 1.500 . S
C653 H618 0.929 . S
C653 C631 1.444 . S
C653 C654 1.317 . S
C654 H616 0.930 1_554 S
C654 C622 1.432 . S
C654 C653 1.317 . S
C655 O639 1.283 1_556 S
C655 O642 1.243 . S
C656 C657 1.382 . S
C656 C660 1.393 . S
C656 C663 1.500 . S
C657 C656 1.382 . S
C657 C658 1.400 . S
C657 H668 0.930 . S
C658 C657 1.400 . S
C658 C659 1.384 . S
C659 C658 1.384 . S
C659 C661 1.392 . S
C659 H669 0.931 . S
C660 C656 1.393 . S
C660 C661 1.401 . S
C660 H670 0.930 . S
C661 C659 1.392 . S
C661 C660 1.401 . S
C661 H671 0.930 . S
C662 O640 1.262 . S
C662 O641 1.260 . S
C663 Tb599 2.833 1_556 S
C663 O638 1.251 . S
C663 O643 1.256 . S
C663 C656 1.500 . S
H664 C647 0.930 . S
H665 C648 0.931 . S
H666 C649 0.930 . S
H667 C650 0.930 . S
H668 C657 0.930 . S
H669 C659 0.931 . S
H670 C660 0.930 . S
H671 C661 0.930 . S
Tb672 N703 2.660 . S
Tb672 N710 2.600 1_545 S
Tb672 O716 2.546 . S
Tb672 O717 2.610 . S
Tb672 O719 2.320 . S
Tb672 O720 2.552 . S
Tb672 O721 2.413 . S
Tb672 O723 2.362 . S
Tb672 O724 2.421 . S
Tb672 C736 2.833 . S
C673 C676 1.432 . S
C673 C677 1.414 . S
C673 N680 1.359 . S
C674 C676 1.417 . S
C674 C678 1.432 . S
C674 C686 1.410 . S
C675 C677 1.444 . S
C675 C678 1.317 . S
C675 H698 0.929 . S
C676 C673 1.432 . S
C676 C674 1.417 . S
C676 N684 1.360 . S
C677 C673 1.414 . S
C677 C675 1.444 . S
C677 C682 1.385 . S
C678 C674 1.432 . S
C678 C675 1.317 . S
C678 H690 0.930 . S
C679 C681 1.392 . S
C679 C682 1.370 . S
C679 H691 0.931 . S
N680 C673 1.359 . S
N680 C681 1.327 . S
N680 Tb683 2.600 . S
C681 C679 1.392 . S
C681 N680 1.327 . S
C681 H688 0.930 . S
C682 C677 1.385 . S
C682 C679 1.370 . S
C682 H701 0.930 . S
Tb683 N680 2.600 . S
Tb683 N684 2.660 . S
Tb683 O717 2.362 . S
Tb683 O718 2.421 . S
Tb683 O722 2.546 1_554 S
Tb683 O723 2.610 . S
Tb683 O725 2.320 . S
Tb683 O726 2.552 1_554 S
Tb683 O727 2.413 1_554 S
Tb683 C747 2.833 1_554 S
N684 C676 1.360 . S
N684 Tb683 2.660 . S
N684 C685 1.305 . S
C685 N684 1.305 . S
C685 C687 1.407 . S
C685 H692 0.930 . S
C686 C674 1.410 . S
C686 C687 1.345 . S
C686 H694 0.930 . S
C687 C685 1.407 . S
C687 C686 1.345 . S
C687 H689 0.930 . S
H688 C681 0.930 . S
H689 C687 0.930 . S
H690 C678 0.930 . S
H691 C679 0.931 . S
H692 C685 0.930 . S
H693 C707 0.930 . S
H694 C686 0.930 . S
H695 C713 0.930 . S
H696 C704 0.930 . S
H697 C711 0.931 . S
H698 C675 0.929 . S
H699 C705 0.930 1_556 S
H700 C738 0.930 1_556 S
H701 C682 0.930 . S
H702 C737 0.929 . S
N703 Tb672 2.660 . S
N703 C704 1.305 . S
N703 C708 1.360 . S
C704 H696 0.930 . S
C704 N703 1.305 . S
C704 C707 1.407 . S
C705 H699 0.930 1_554 S
C705 C706 1.410 1_545 S
C705 C707 1.345 . S
C706 C705 1.410 1_565 S
C706 C708 1.417 1_565 S
C706 C738 1.432 . S
C707 H693 0.930 . S
C707 C704 1.407 . S
C707 C705 1.345 . S
C708 N703 1.360 . S
C708 C706 1.417 1_545 S
C708 C712 1.432 1_545 S
H709 C714 0.930 . S
N710 Tb672 2.600 1_565 S
N710 C712 1.359 . S
N710 C713 1.327 . S
C711 H697 0.931 . S
C711 C713 1.392 . S
C711 C714 1.370 . S
C712 C708 1.432 1_565 S
C712 N710 1.359 . S
C712 C715 1.414 . S
C713 H695 0.930 . S
C713 N710 1.327 . S
C713 C711 1.392 . S
C714 H709 0.930 . S
C714 C711 1.370 . S
C714 C715 1.385 . S
C715 C712 1.414 . S
C715 C714 1.385 . S
C715 C737 1.444 . S
O716 Tb672 2.546 . S
O716 C736 1.251 . S
O717 Tb672 2.610 . S
O717 Tb683 2.362 . S
O717 C728 1.283 . S
O718 Tb683 2.421 . S
O718 C735 1.262 . S
O719 Tb672 2.320 . S
O719 C735 1.260 . S
O720 Tb672 2.552 . S
O720 C728 1.243 . S
O721 Tb672 2.413 . S
O721 C736 1.256 . S
O722 Tb683 2.546 1_556 S
O722 C747 1.251 . S
O723 Tb672 2.362 . S
O723 Tb683 2.610 . S
O723 C739 1.283 1_554 S
O724 Tb672 2.421 . S
O724 C746 1.262 . S
O725 Tb683 2.320 . S
O725 C746 1.260 . S
O726 Tb683 2.552 1_556 S
O726 C739 1.243 . S
O727 Tb683 2.413 1_556 S
O727 C747 1.256 . S
C728 O717 1.283 . S
C728 O720 1.243 . S
C729 C731 1.382 . S
C729 C733 1.393 1_545 S
C729 C736 1.500 . S
C730 C731 1.400 . S
C730 C732 1.384 1_545 S
C731 C729 1.382 . S
C731 C730 1.400 . S
C731 H748 0.930 . S
C732 C730 1.384 1_565 S
C732 C734 1.392 . S
C732 H749 0.931 . S
C733 C729 1.393 1_565 S
C733 C734 1.401 . S
C733 H750 0.930 . S
C734 C732 1.392 . S
C734 C733 1.401 . S
C734 H751 0.930 . S
C735 O718 1.262 . S
C735 O719 1.260 . S
C736 Tb672 2.833 . S
C736 O716 1.251 . S
C736 O721 1.256 . S
C736 C729 1.500 . S
C737 H702 0.929 . S
C737 C715 1.444 . S
C737 C738 1.317 . S
C738 H700 0.930 1_554 S
C738 C706 1.432 . S
C738 C737 1.317 . S
C739 O723 1.283 1_556 S
C739 O726 1.243 . S
C740 C741 1.382 . S
C740 C744 1.393 . S
C740 C747 1.500 . S
C741 C740 1.382 . S
C741 C742 1.400 . S
C741 H752 0.930 . S
C742 C741 1.400 . S
C742 C743 1.384 . S
C743 C742 1.384 . S
C743 C745 1.392 . S
C743 H753 0.931 . S
C744 C740 1.393 . S
C744 C745 1.401 . S
C744 H754 0.930 . S
C745 C743 1.392 . S
C745 C744 1.401 . S
C745 H755 0.930 . S
C746 O724 1.262 . S
C746 O725 1.260 . S
C747 Tb683 2.833 1_556 S
C747 O722 1.251 . S
C747 O727 1.256 . S
C747 C740 1.500 . S
H748 C731 0.930 . S
H749 C732 0.931 . S
H750 C733 0.930 . S
H751 C734 0.930 . S
H752 C741 0.930 . S
H753 C743 0.931 . S
H754 C744 0.930 . S
H755 C745 0.930 . S
Tb756 N787 2.660 . S
Tb756 N794 2.600 1_565 S
Tb756 O800 2.546 . S
Tb756 O801 2.610 . S
Tb756 O803 2.320 . S
Tb756 O804 2.552 . S
Tb756 O805 2.413 . S
Tb756 O807 2.362 . S
Tb756 O808 2.421 . S
Tb756 C820 2.833 . S
C757 C760 1.432 . S
C757 C761 1.414 . S
C757 N764 1.359 . S
C758 C760 1.417 . S
C758 C762 1.432 . S
C758 C770 1.410 . S
C759 C761 1.444 . S
C759 C762 1.317 . S
C759 H782 0.929 . S
C760 C757 1.432 . S
C760 C758 1.417 . S
C760 N768 1.360 . S
C761 C757 1.414 . S
C761 C759 1.444 . S
C761 C766 1.385 . S
C762 C758 1.432 . S
C762 C759 1.317 . S
C762 H774 0.930 . S
C763 C765 1.392 . S
C763 C766 1.370 . S
C763 H775 0.931 . S
N764 C757 1.359 . S
N764 C765 1.327 . S
N764 Tb767 2.600 . S
C765 C763 1.392 . S
C765 N764 1.327 . S
C765 H772 0.930 . S
C766 C761 1.385 . S
C766 C763 1.370 . S
C766 H785 0.930 . S
Tb767 N764 2.600 . S
Tb767 N768 2.660 . S
Tb767 O801 2.362 . S
Tb767 O802 2.421 . S
Tb767 O806 2.546 . S
Tb767 O807 2.610 . S
Tb767 O809 2.320 . S
Tb767 O810 2.552 . S
Tb767 O811 2.413 . S
Tb767 C831 2.833 . S
N768 C760 1.360 . S
N768 Tb767 2.660 . S
N768 C769 1.305 . S
C769 N768 1.305 . S
C769 C771 1.407 . S
C769 H776 0.930 . S
C770 C758 1.410 . S
C770 C771 1.345 . S
C770 H778 0.930 . S
C771 C769 1.407 . S
C771 C770 1.345 . S
C771 H773 0.930 . S
H772 C765 0.930 . S
H773 C771 0.930 . S
H774 C762 0.930 . S
H775 C763 0.931 . S
H776 C769 0.930 . S
H777 C791 0.930 . S
H778 C770 0.930 . S
H779 C797 0.930 . S
H780 C788 0.930 . S
H781 C795 0.931 . S
H782 C759 0.929 . S
H783 C789 0.930 . S
H784 C822 0.930 . S
H785 C766 0.930 . S
H786 C821 0.929 . S
N787 Tb756 2.660 . S
N787 C788 1.305 . S
N787 C792 1.360 . S
C788 H780 0.930 . S
C788 N787 1.305 . S
C788 C791 1.407 . S
C789 H783 0.930 . S
C789 C790 1.410 1_565 S
C789 C791 1.345 . S
C790 C789 1.410 1_545 S
C790 C792 1.417 1_545 S
C790 C822 1.432 . S
C791 H777 0.930 . S
C791 C788 1.407 . S
C791 C789 1.345 . S
C792 N787 1.360 . S
C792 C790 1.417 1_565 S
C792 C796 1.432 1_565 S
H793 C798 0.930 . S
N794 Tb756 2.600 1_545 S
N794 C796 1.359 . S
N794 C797 1.327 . S
C795 H781 0.931 . S
C795 C797 1.392 . S
C795 C798 1.370 . S
C796 C792 1.432 1_545 S
C796 N794 1.359 . S
C796 C799 1.414 . S
C797 H779 0.930 . S
C797 N794 1.327 . S
C797 C795 1.392 . S
C798 H793 0.930 . S
C798 C795 1.370 . S
C798 C799 1.385 . S
C799 C796 1.414 . S
C799 C798 1.385 . S
C799 C821 1.444 . S
O800 Tb756 2.546 . S
O800 C820 1.251 . S
O801 Tb756 2.610 . S
O801 Tb767 2.362 . S
O801 C812 1.283 . S
O802 Tb767 2.421 . S
O802 C819 1.262 . S
O803 Tb756 2.320 . S
O803 C819 1.260 . S
O804 Tb756 2.552 . S
O804 C812 1.243 . S
O805 Tb756 2.413 . S
O805 C820 1.256 . S
O806 Tb767 2.546 . S
O806 C831 1.251 . S
O807 Tb756 2.362 . S
O807 Tb767 2.610 . S
O807 C823 1.283 . S
O808 Tb756 2.421 . S
O808 C830 1.262 . S
O809 Tb767 2.320 . S
O809 C830 1.260 . S
O810 Tb767 2.552 . S
O810 C823 1.243 . S
O811 Tb767 2.413 . S
O811 C831 1.256 . S
C812 O801 1.283 . S
C812 O804 1.243 . S
C813 C815 1.382 . S
C813 C817 1.393 1_565 S
C813 C820 1.500 . S
C814 C815 1.400 . S
C814 C816 1.384 1_565 S
C815 C813 1.382 . S
C815 C814 1.400 . S
C815 H832 0.930 . S
C816 C814 1.384 1_545 S
C816 C818 1.392 . S
C816 H833 0.931 . S
C817 C813 1.393 1_545 S
C817 C818 1.401 . S
C817 H834 0.930 . S
C818 C816 1.392 . S
C818 C817 1.401 . S
C818 H835 0.930 . S
C819 O802 1.262 . S
C819 O803 1.260 . S
C820 Tb756 2.833 . S
C820 O800 1.251 . S
C820 O805 1.256 . S
C820 C813 1.500 . S
C821 H786 0.929 . S
C821 C799 1.444 . S
C821 C822 1.317 . S
C822 H784 0.930 . S
C822 C790 1.432 . S
C822 C821 1.317 . S
C823 O807 1.283 . S
C823 O810 1.243 . S
C824 C825 1.382 . S
C824 C828 1.393 . S
C824 C831 1.500 . S
C825 C824 1.382 . S
C825 C826 1.400 . S
C825 H836 0.930 . S
C826 C825 1.400 . S
C826 C827 1.384 . S
C827 C826 1.384 . S
C827 C829 1.392 . S
C827 H837 0.931 . S
C828 C824 1.393 . S
C828 C829 1.401 . S
C828 H838 0.930 . S
C829 C827 1.392 . S
C829 C828 1.401 . S
C829 H839 0.930 . S
C830 O808 1.262 . S
C830 O809 1.260 . S
C831 Tb767 2.833 . S
C831 O806 1.251 . S
C831 O811 1.256 . S
C831 C824 1.500 . S
H832 C815 0.930 . S
H833 C816 0.931 . S
H834 C817 0.930 . S
H835 C818 0.930 . S
H836 C825 0.930 . S
H837 C827 0.931 . S
H838 C828 0.930 . S
H839 C829 0.930 . S
Tb840 N871 2.660 . S
Tb840 N878 2.600 1_455 S
Tb840 O884 2.546 . S
Tb840 O885 2.610 . S
Tb840 O887 2.320 . S
Tb840 O888 2.552 . S
Tb840 O889 2.413 . S
Tb840 O891 2.362 . S
Tb840 O892 2.421 . S
Tb840 C904 2.833 . S
C841 C844 1.432 . S
C841 C845 1.414 . S
C841 N848 1.359 . S
C842 C844 1.417 . S
C842 C846 1.432 . S
C842 C854 1.410 . S
C843 C845 1.444 . S
C843 C846 1.317 . S
C843 H866 0.929 . S
C844 C841 1.432 . S
C844 C842 1.417 . S
C844 N852 1.360 . S
C845 C841 1.414 . S
C845 C843 1.444 . S
C845 C850 1.385 . S
C846 C842 1.432 . S
C846 C843 1.317 . S
C846 H858 0.930 . S
C847 C849 1.392 . S
C847 C850 1.370 . S
C847 H859 0.931 . S
N848 C841 1.359 . S
N848 C849 1.327 . S
N848 Tb851 2.600 . S
C849 C847 1.392 . S
C849 N848 1.327 . S
C849 H856 0.930 . S
C850 C845 1.385 . S
C850 C847 1.370 . S
C850 H869 0.930 . S
Tb851 N848 2.600 . S
Tb851 N852 2.660 . S
Tb851 O885 2.362 . S
Tb851 O886 2.421 . S
Tb851 O890 2.546 . S
Tb851 O891 2.610 . S
Tb851 O893 2.320 . S
Tb851 O894 2.552 . S
Tb851 O895 2.413 . S
Tb851 C915 2.833 . S
N852 C844 1.360 . S
N852 Tb851 2.660 . S
N852 C853 1.305 . S
C853 N852 1.305 . S
C853 C855 1.407 . S
C853 H860 0.930 . S
C854 C842 1.410 . S
C854 C855 1.345 . S
C854 H862 0.930 . S
C855 C853 1.407 . S
C855 C854 1.345 . S
C855 H857 0.930 . S
H856 C849 0.930 . S
H857 C855 0.930 . S
H858 C846 0.930 . S
H859 C847 0.931 . S
H860 C853 0.930 . S
H861 C875 0.930 . S
H862 C854 0.930 . S
H863 C881 0.930 . S
H864 C872 0.930 . S
H865 C879 0.931 . S
H866 C843 0.929 . S
H867 C873 0.930 . S
H868 C906 0.930 . S
H869 C850 0.930 . S
H870 C905 0.929 . S
N871 Tb840 2.660 . S
N871 C872 1.305 . S
N871 C876 1.360 . S
C872 H864 0.930 . S
C872 N871 1.305 . S
C872 C875 1.407 . S
C873 H867 0.930 . S
C873 C874 1.410 1_455 S
C873 C875 1.345 . S
C874 C873 1.410 1_655 S
C874 C876 1.417 1_655 S
C874 C906 1.432 . S
C875 H861 0.930 . S
C875 C872 1.407 . S
C875 C873 1.345 . S
C876 N871 1.360 . S
C876 C874 1.417 1_455 S
C876 C880 1.432 1_455 S
H877 C882 0.930 . S
N878 Tb840 2.600 1_655 S
N878 C880 1.359 . S
N878 C881 1.327 . S
C879 H865 0.931 . S
C879 C881 1.392 . S
C879 C882 1.370 . S
C880 C876 1.432 1_655 S
C880 N878 1.359 . S
C880 C883 1.414 . S
C881 H863 0.930 . S
C881 N878 1.327 . S
C881 C879 1.392 . S
C882 H877 0.930 . S
C882 C879 1.370 . S
C882 C883 1.385 . S
C883 C880 1.414 . S
C883 C882 1.385 . S
C883 C905 1.444 . S
O884 Tb840 2.546 . S
O884 C904 1.251 . S
O885 Tb840 2.610 . S
O885 Tb851 2.362 . S
O885 C896 1.283 . S
O886 Tb851 2.421 . S
O886 C903 1.262 . S
O887 Tb840 2.320 . S
O887 C903 1.260 . S
O888 Tb840 2.552 . S
O888 C896 1.243 . S
O889 Tb840 2.413 . S
O889 C904 1.256 . S
O890 Tb851 2.546 . S
O890 C915 1.251 . S
O891 Tb840 2.362 . S
O891 Tb851 2.610 . S
O891 C907 1.283 . S
O892 Tb840 2.421 . S
O892 C914 1.262 . S
O893 Tb851 2.320 . S
O893 C914 1.260 . S
O894 Tb851 2.552 . S
O894 C907 1.243 . S
O895 Tb851 2.413 . S
O895 C915 1.256 . S
C896 O885 1.283 . S
C896 O888 1.243 . S
C897 C899 1.382 . S
C897 C901 1.393 1_455 S
C897 C904 1.500 . S
C898 C899 1.400 . S
C898 C900 1.384 1_455 S
C899 C897 1.382 . S
C899 C898 1.400 . S
C899 H916 0.930 . S
C900 C898 1.384 1_655 S
C900 C902 1.392 . S
C900 H917 0.931 . S
C901 C897 1.393 1_655 S
C901 C902 1.401 . S
C901 H918 0.930 . S
C902 C900 1.392 . S
C902 C901 1.401 . S
C902 H919 0.930 . S
C903 O886 1.262 . S
C903 O887 1.260 . S
C904 Tb840 2.833 . S
C904 O884 1.251 . S
C904 O889 1.256 . S
C904 C897 1.500 . S
C905 H870 0.929 . S
C905 C883 1.444 . S
C905 C906 1.317 . S
C906 H868 0.930 . S
C906 C874 1.432 . S
C906 C905 1.317 . S
C907 O891 1.283 . S
C907 O894 1.243 . S
C908 C909 1.382 . S
C908 C912 1.393 . S
C908 C915 1.500 . S
C909 C908 1.382 . S
C909 C910 1.400 . S
C909 H920 0.930 . S
C910 C909 1.400 . S
C910 C911 1.384 . S
C911 C910 1.384 . S
C911 C913 1.392 . S
C911 H921 0.931 . S
C912 C908 1.393 . S
C912 C913 1.401 . S
C912 H922 0.930 . S
C913 C911 1.392 . S
C913 C912 1.401 . S
C913 H923 0.930 . S
C914 O892 1.262 . S
C914 O893 1.260 . S
C915 Tb851 2.833 . S
C915 O890 1.251 . S
C915 O895 1.256 . S
C915 C908 1.500 . S
H916 C899 0.930 . S
H917 C900 0.931 . S
H918 C901 0.930 . S
H919 C902 0.930 . S
H920 C909 0.930 . S
H921 C911 0.931 . S
H922 C912 0.930 . S
H923 C913 0.930 . S
Tb924 N955 2.660 . S
Tb924 N962 2.600 . S
Tb924 O968 2.546 . S
Tb924 O969 2.610 . S
Tb924 O971 2.320 . S
Tb924 O972 2.552 . S
Tb924 O973 2.413 . S
Tb924 O975 2.362 . S
Tb924 O976 2.421 . S
Tb924 C988 2.833 . S
C925 C928 1.432 . S
C925 C929 1.414 . S
C925 N932 1.359 . S
C926 C928 1.417 . S
C926 C930 1.432 . S
C926 C938 1.410 . S
C927 C929 1.444 . S
C927 C930 1.317 . S
C927 H950 0.929 . S
C928 C925 1.432 . S
C928 C926 1.417 . S
C928 N936 1.360 . S
C929 C925 1.414 . S
C929 C927 1.444 . S
C929 C934 1.385 . S
C930 C926 1.432 . S
C930 C927 1.317 . S
C930 H942 0.930 . S
C931 C933 1.392 . S
C931 C934 1.370 . S
C931 H943 0.931 . S
N932 C925 1.359 . S
N932 C933 1.327 . S
N932 Tb935 2.600 . S
C933 C931 1.392 . S
C933 N932 1.327 . S
C933 H940 0.930 . S
C934 C929 1.385 . S
C934 C931 1.370 . S
C934 H953 0.930 . S
Tb935 N932 2.600 . S
Tb935 N936 2.660 . S
Tb935 O969 2.362 . S
Tb935 O970 2.421 . S
Tb935 O974 2.546 . S
Tb935 O975 2.610 . S
Tb935 O977 2.320 . S
Tb935 O978 2.552 . S
Tb935 O979 2.413 . S
Tb935 C999 2.833 . S
N936 C928 1.360 . S
N936 Tb935 2.660 . S
N936 C937 1.305 . S
C937 N936 1.305 . S
C937 C939 1.407 . S
C937 H944 0.930 . S
C938 C926 1.410 . S
C938 C939 1.345 . S
C938 H946 0.930 . S
C939 C937 1.407 . S
C939 C938 1.345 . S
C939 H941 0.930 . S
H940 C933 0.930 . S
H941 C939 0.930 . S
H942 C930 0.930 . S
H943 C931 0.931 . S
H944 C937 0.930 . S
H945 C959 0.930 . S
H946 C938 0.930 . S
H947 C965 0.930 . S
H948 C956 0.930 . S
H949 C963 0.931 . S
H950 C927 0.929 . S
H951 C957 0.930 . S
H952 C990 0.930 . S
H953 C934 0.930 . S
H954 C989 0.929 . S
N955 Tb924 2.660 . S
N955 C956 1.305 . S
N955 C960 1.360 . S
C956 H948 0.930 . S
C956 N955 1.305 . S
C956 C959 1.407 . S
C957 H951 0.930 . S
C957 C958 1.410 . S
C957 C959 1.345 . S
C958 C957 1.410 . S
C958 C960 1.417 . S
C958 C990 1.432 . S
C959 H945 0.930 . S
C959 C956 1.407 . S
C959 C957 1.345 . S
C960 N955 1.360 . S
C960 C958 1.417 . S
C960 C964 1.432 . S
H961 C966 0.930 . S
N962 Tb924 2.600 . S
N962 C964 1.359 . S
N962 C965 1.327 . S
C963 H949 0.931 . S
C963 C965 1.392 . S
C963 C966 1.370 . S
C964 C960 1.432 . S
C964 N962 1.359 . S
C964 C967 1.414 . S
C965 H947 0.930 . S
C965 N962 1.327 . S
C965 C963 1.392 . S
C966 H961 0.930 . S
C966 C963 1.370 . S
C966 C967 1.385 . S
C967 C964 1.414 . S
C967 C966 1.385 . S
C967 C989 1.444 . S
O968 Tb924 2.546 . S
O968 C988 1.251 . S
O969 Tb924 2.610 . S
O969 Tb935 2.362 . S
O969 C980 1.283 . S
O970 Tb935 2.421 . S
O970 C987 1.262 . S
O971 Tb924 2.320 . S
O971 C987 1.260 . S
O972 Tb924 2.552 . S
O972 C980 1.243 . S
O973 Tb924 2.413 . S
O973 C988 1.256 . S
O974 Tb935 2.546 . S
O974 C999 1.251 . S
O975 Tb924 2.362 . S
O975 Tb935 2.610 . S
O975 C991 1.283 . S
O976 Tb924 2.421 . S
O976 C998 1.262 . S
O977 Tb935 2.320 . S
O977 C998 1.260 . S
O978 Tb935 2.552 . S
O978 C991 1.243 . S
O979 Tb935 2.413 . S
O979 C999 1.256 . S
C980 O969 1.283 . S
C980 O972 1.243 . S
C981 C983 1.382 . S
C981 C985 1.393 . S
C981 C988 1.500 . S
C982 C983 1.400 . S
C982 C984 1.384 . S
C983 C981 1.382 . S
C983 C982 1.400 . S
C983 H1000 0.930 . S
C984 C982 1.384 . S
C984 C986 1.392 . S
C984 H1001 0.931 . S
C985 C981 1.393 . S
C985 C986 1.401 . S
C985 H1002 0.930 . S
C986 C984 1.392 . S
C986 C985 1.401 . S
C986 H1003 0.930 . S
C987 O970 1.262 . S
C987 O971 1.260 . S
C988 Tb924 2.833 . S
C988 O968 1.251 . S
C988 O973 1.256 . S
C988 C981 1.500 . S
C989 H954 0.929 . S
C989 C967 1.444 . S
C989 C990 1.317 . S
C990 H952 0.930 . S
C990 C958 1.432 . S
C990 C989 1.317 . S
C991 O975 1.283 . S
C991 O978 1.243 . S
C992 C993 1.382 . S
C992 C996 1.393 . S
C992 C999 1.500 . S
C993 C992 1.382 . S
C993 C994 1.400 . S
C993 H1004 0.930 . S
C994 C993 1.400 . S
C994 C995 1.384 . S
C995 C994 1.384 . S
C995 C997 1.392 . S
C995 H1005 0.931 . S
C996 C992 1.393 . S
C996 C997 1.401 . S
C996 H1006 0.930 . S
C997 C995 1.392 . S
C997 C996 1.401 . S
C997 H1007 0.930 . S
C998 O976 1.262 . S
C998 O977 1.260 . S
C999 Tb935 2.833 . S
C999 O974 1.251 . S
C999 O979 1.256 . S
C999 C992 1.500 . S
H1000 C983 0.930 . S
H1001 C984 0.931 . S
H1002 C985 0.930 . S
H1003 C986 0.930 . S
H1004 C993 0.930 . S
H1005 C995 0.931 . S
H1006 C996 0.930 . S
H1007 C997 0.930 . S
Tb1008 N1039 2.660 . S
Tb1008 N1046 2.600 . S
Tb1008 O1052 2.546 . S
Tb1008 O1053 2.610 . S
Tb1008 O1055 2.320 . S
Tb1008 O1056 2.552 . S
Tb1008 O1057 2.413 . S
Tb1008 O1059 2.362 . S
Tb1008 O1060 2.421 . S
Tb1008 C1072 2.833 . S
C1009 C1012 1.432 . S
C1009 C1013 1.414 . S
C1009 N1016 1.359 . S
C1010 C1012 1.417 . S
C1010 C1014 1.432 . S
C1010 C1022 1.410 . S
C1011 C1013 1.444 . S
C1011 C1014 1.317 . S
C1011 H1034 0.929 . S
C1012 C1009 1.432 . S
C1012 C1010 1.417 . S
C1012 N1020 1.360 . S
C1013 C1009 1.414 . S
C1013 C1011 1.444 . S
C1013 C1018 1.385 . S
C1014 C1010 1.432 . S
C1014 C1011 1.317 . S
C1014 H1026 0.930 . S
C1015 C1017 1.392 . S
C1015 C1018 1.370 . S
C1015 H1027 0.931 . S
N1016 C1009 1.359 . S
N1016 C1017 1.327 . S
N1016 Tb1019 2.600 . S
C1017 C1015 1.392 . S
C1017 N1016 1.327 . S
C1017 H1024 0.930 . S
C1018 C1013 1.385 . S
C1018 C1015 1.370 . S
C1018 H1037 0.930 . S
Tb1019 N1016 2.600 . S
Tb1019 N1020 2.660 . S
Tb1019 O1053 2.362 . S
Tb1019 O1054 2.421 . S
Tb1019 O1058 2.546 . S
Tb1019 O1059 2.610 . S
Tb1019 O1061 2.320 . S
Tb1019 O1062 2.552 . S
Tb1019 O1063 2.413 . S
Tb1019 C1083 2.833 . S
N1020 C1012 1.360 . S
N1020 Tb1019 2.660 . S
N1020 C1021 1.305 . S
C1021 N1020 1.305 . S
C1021 C1023 1.407 . S
C1021 H1028 0.930 . S
C1022 C1010 1.410 . S
C1022 C1023 1.345 . S
C1022 H1030 0.930 . S
C1023 C1021 1.407 . S
C1023 C1022 1.345 . S
C1023 H1025 0.930 . S
H1024 C1017 0.930 . S
H1025 C1023 0.930 . S
H1026 C1014 0.930 . S
H1027 C1015 0.931 . S
H1028 C1021 0.930 . S
H1029 C1043 0.930 . S
H1030 C1022 0.930 . S
H1031 C1049 0.930 . S
H1032 C1040 0.930 . S
H1033 C1047 0.931 . S
H1034 C1011 0.929 . S
H1035 C1041 0.930 . S
H1036 C1074 0.930 . S
H1037 C1018 0.930 . S
H1038 C1073 0.929 . S
N1039 Tb1008 2.660 . S
N1039 C1040 1.305 . S
N1039 C1044 1.360 . S
C1040 H1032 0.930 . S
C1040 N1039 1.305 . S
C1040 C1043 1.407 . S
C1041 H1035 0.930 . S
C1041 C1042 1.410 . S
C1041 C1043 1.345 . S
C1042 C1041 1.410 . S
C1042 C1044 1.417 . S
C1042 C1074 1.432 . S
C1043 H1029 0.930 . S
C1043 C1040 1.407 . S
C1043 C1041 1.345 . S
C1044 N1039 1.360 . S
C1044 C1042 1.417 . S
C1044 C1048 1.432 . S
H1045 C1050 0.930 . S
N1046 Tb1008 2.600 . S
N1046 C1048 1.359 . S
N1046 C1049 1.327 . S
C1047 H1033 0.931 . S
C1047 C1049 1.392 . S
C1047 C1050 1.370 . S
C1048 C1044 1.432 . S
C1048 N1046 1.359 . S
C1048 C1051 1.414 . S
C1049 H1031 0.930 . S
C1049 N1046 1.327 . S
C1049 C1047 1.392 . S
C1050 H1045 0.930 . S
C1050 C1047 1.370 . S
C1050 C1051 1.385 . S
C1051 C1048 1.414 . S
C1051 C1050 1.385 . S
C1051 C1073 1.444 . S
O1052 Tb1008 2.546 . S
O1052 C1072 1.251 . S
O1053 Tb1008 2.610 . S
O1053 Tb1019 2.362 . S
O1053 C1064 1.283 . S
O1054 Tb1019 2.421 . S
O1054 C1071 1.262 . S
O1055 Tb1008 2.320 . S
O1055 C1071 1.260 . S
O1056 Tb1008 2.552 . S
O1056 C1064 1.243 . S
O1057 Tb1008 2.413 . S
O1057 C1072 1.256 . S
O1058 Tb1019 2.546 . S
O1058 C1083 1.251 . S
O1059 Tb1008 2.362 . S
O1059 Tb1019 2.610 . S
O1059 C1075 1.283 . S
O1060 Tb1008 2.421 . S
O1060 C1082 1.262 . S
O1061 Tb1019 2.320 . S
O1061 C1082 1.260 . S
O1062 Tb1019 2.552 . S
O1062 C1075 1.243 . S
O1063 Tb1019 2.413 . S
O1063 C1083 1.256 . S
C1064 O1053 1.283 . S
C1064 O1056 1.243 . S
C1065 C1067 1.382 . S
C1065 C1069 1.393 . S
C1065 C1072 1.500 . S
C1066 C1067 1.400 . S
C1066 C1068 1.384 . S
C1067 C1065 1.382 . S
C1067 C1066 1.400 . S
C1067 H1084 0.930 . S
C1068 C1066 1.384 . S
C1068 C1070 1.392 . S
C1068 H1085 0.931 . S
C1069 C1065 1.393 . S
C1069 C1070 1.401 . S
C1069 H1086 0.930 . S
C1070 C1068 1.392 . S
C1070 C1069 1.401 . S
C1070 H1087 0.930 . S
C1071 O1054 1.262 . S
C1071 O1055 1.260 . S
C1072 Tb1008 2.833 . S
C1072 O1052 1.251 . S
C1072 O1057 1.256 . S
C1072 C1065 1.500 . S
C1073 H1038 0.929 . S
C1073 C1051 1.444 . S
C1073 C1074 1.317 . S
C1074 H1036 0.930 . S
C1074 C1042 1.432 . S
C1074 C1073 1.317 . S
C1075 O1059 1.283 . S
C1075 O1062 1.243 . S
C1076 C1077 1.382 . S
C1076 C1080 1.393 . S
C1076 C1083 1.500 . S
C1077 C1076 1.382 . S
C1077 C1078 1.400 . S
C1077 H1088 0.930 . S
C1078 C1077 1.400 . S
C1078 C1079 1.384 . S
C1079 C1078 1.384 . S
C1079 C1081 1.392 . S
C1079 H1089 0.931 . S
C1080 C1076 1.393 . S
C1080 C1081 1.401 . S
C1080 H1090 0.930 . S
C1081 C1079 1.392 . S
C1081 C1080 1.401 . S
C1081 H1091 0.930 . S
C1082 O1060 1.262 . S
C1082 O1061 1.260 . S
C1083 Tb1019 2.833 . S
C1083 O1058 1.251 . S
C1083 O1063 1.256 . S
C1083 C1076 1.500 . S
H1084 C1067 0.930 . S
H1085 C1068 0.931 . S
H1086 C1069 0.930 . S
H1087 C1070 0.930 . S
H1088 C1077 0.930 . S
H1089 C1079 0.931 . S
H1090 C1080 0.930 . S
H1091 C1081 0.930 . S
Tb1092 N1123 2.660 . S
Tb1092 N1130 2.600 . S
Tb1092 O1136 2.546 . S
Tb1092 O1137 2.610 . S
Tb1092 O1139 2.320 . S
Tb1092 O1140 2.552 . S
Tb1092 O1141 2.413 . S
Tb1092 O1143 2.362 . S
Tb1092 O1144 2.421 . S
Tb1092 C1156 2.833 . S
C1093 C1096 1.432 . S
C1093 C1097 1.414 . S
C1093 N1100 1.359 . S
C1094 C1096 1.417 . S
C1094 C1098 1.432 . S
C1094 C1106 1.410 . S
C1095 C1097 1.444 . S
C1095 C1098 1.317 . S
C1095 H1118 0.929 . S
C1096 C1093 1.432 . S
C1096 C1094 1.417 . S
C1096 N1104 1.360 . S
C1097 C1093 1.414 . S
C1097 C1095 1.444 . S
C1097 C1102 1.385 . S
C1098 C1094 1.432 . S
C1098 C1095 1.317 . S
C1098 H1110 0.930 . S
C1099 C1101 1.392 . S
C1099 C1102 1.370 . S
C1099 H1111 0.931 . S
N1100 C1093 1.359 . S
N1100 C1101 1.327 . S
N1100 Tb1103 2.600 . S
C1101 C1099 1.392 . S
C1101 N1100 1.327 . S
C1101 H1108 0.930 . S
C1102 C1097 1.385 . S
C1102 C1099 1.370 . S
C1102 H1121 0.930 . S
Tb1103 N1100 2.600 . S
Tb1103 N1104 2.660 . S
Tb1103 O1137 2.362 . S
Tb1103 O1138 2.421 . S
Tb1103 O1142 2.546 . S
Tb1103 O1143 2.610 . S
Tb1103 O1145 2.320 . S
Tb1103 O1146 2.552 . S
Tb1103 O1147 2.413 . S
Tb1103 C1167 2.833 . S
N1104 C1096 1.360 . S
N1104 Tb1103 2.660 . S
N1104 C1105 1.305 . S
C1105 N1104 1.305 . S
C1105 C1107 1.407 . S
C1105 H1112 0.930 . S
C1106 C1094 1.410 . S
C1106 C1107 1.345 . S
C1106 H1114 0.930 . S
C1107 C1105 1.407 . S
C1107 C1106 1.345 . S
C1107 H1109 0.930 . S
H1108 C1101 0.930 . S
H1109 C1107 0.930 . S
H1110 C1098 0.930 . S
H1111 C1099 0.931 . S
H1112 C1105 0.930 . S
H1113 C1127 0.930 . S
H1114 C1106 0.930 . S
H1115 C1133 0.930 . S
H1116 C1124 0.930 . S
H1117 C1131 0.931 . S
H1118 C1095 0.929 . S
H1119 C1125 0.930 . S
H1120 C1158 0.930 . S
H1121 C1102 0.930 . S
H1122 C1157 0.929 . S
N1123 Tb1092 2.660 . S
N1123 C1124 1.305 . S
N1123 C1128 1.360 . S
C1124 H1116 0.930 . S
C1124 N1123 1.305 . S
C1124 C1127 1.407 . S
C1125 H1119 0.930 . S
C1125 C1126 1.410 . S
C1125 C1127 1.345 . S
C1126 C1125 1.410 . S
C1126 C1128 1.417 . S
C1126 C1158 1.432 . S
C1127 H1113 0.930 . S
C1127 C1124 1.407 . S
C1127 C1125 1.345 . S
C1128 N1123 1.360 . S
C1128 C1126 1.417 . S
C1128 C1132 1.432 . S
H1129 C1134 0.930 . S
N1130 Tb1092 2.600 . S
N1130 C1132 1.359 . S
N1130 C1133 1.327 . S
C1131 H1117 0.931 . S
C1131 C1133 1.392 . S
C1131 C1134 1.370 . S
C1132 C1128 1.432 . S
C1132 N1130 1.359 . S
C1132 C1135 1.414 . S
C1133 H1115 0.930 . S
C1133 N1130 1.327 . S
C1133 C1131 1.392 . S
C1134 H1129 0.930 . S
C1134 C1131 1.370 . S
C1134 C1135 1.385 . S
C1135 C1132 1.414 . S
C1135 C1134 1.385 . S
C1135 C1157 1.444 . S
O1136 Tb1092 2.546 . S
O1136 C1156 1.251 . S
O1137 Tb1092 2.610 . S
O1137 Tb1103 2.362 . S
O1137 C1148 1.283 . S
O1138 Tb1103 2.421 . S
O1138 C1155 1.262 . S
O1139 Tb1092 2.320 . S
O1139 C1155 1.260 . S
O1140 Tb1092 2.552 . S
O1140 C1148 1.243 . S
O1141 Tb1092 2.413 . S
O1141 C1156 1.256 . S
O1142 Tb1103 2.546 . S
O1142 C1167 1.251 . S
O1143 Tb1092 2.362 . S
O1143 Tb1103 2.610 . S
O1143 C1159 1.283 . S
O1144 Tb1092 2.421 . S
O1144 C1166 1.262 . S
O1145 Tb1103 2.320 . S
O1145 C1166 1.260 . S
O1146 Tb1103 2.552 . S
O1146 C1159 1.243 . S
O1147 Tb1103 2.413 . S
O1147 C1167 1.256 . S
C1148 O1137 1.283 . S
C1148 O1140 1.243 . S
C1149 C1151 1.382 . S
C1149 C1153 1.393 . S
C1149 C1156 1.500 . S
C1150 C1151 1.400 . S
C1150 C1152 1.384 . S
C1151 C1149 1.382 . S
C1151 C1150 1.400 . S
C1151 H1168 0.930 . S
C1152 C1150 1.384 . S
C1152 C1154 1.392 . S
C1152 H1169 0.931 . S
C1153 C1149 1.393 . S
C1153 C1154 1.401 . S
C1153 H1170 0.930 . S
C1154 C1152 1.392 . S
C1154 C1153 1.401 . S
C1154 H1171 0.930 . S
C1155 O1138 1.262 . S
C1155 O1139 1.260 . S
C1156 Tb1092 2.833 . S
C1156 O1136 1.251 . S
C1156 O1141 1.256 . S
C1156 C1149 1.500 . S
C1157 H1122 0.929 . S
C1157 C1135 1.444 . S
C1157 C1158 1.317 . S
C1158 H1120 0.930 . S
C1158 C1126 1.432 . S
C1158 C1157 1.317 . S
C1159 O1143 1.283 . S
C1159 O1146 1.243 . S
C1160 C1161 1.382 . S
C1160 C1164 1.393 . S
C1160 C1167 1.500 . S
C1161 C1160 1.382 . S
C1161 C1162 1.400 . S
C1161 H1172 0.930 . S
C1162 C1161 1.400 . S
C1162 C1163 1.384 . S
C1163 C1162 1.384 . S
C1163 C1165 1.392 . S
C1163 H1173 0.931 . S
C1164 C1160 1.393 . S
C1164 C1165 1.401 . S
C1164 H1174 0.930 . S
C1165 C1163 1.392 . S
C1165 C1164 1.401 . S
C1165 H1175 0.930 . S
C1166 O1144 1.262 . S
C1166 O1145 1.260 . S
C1167 Tb1103 2.833 . S
C1167 O1142 1.251 . S
C1167 O1147 1.256 . S
C1167 C1160 1.500 . S
H1168 C1151 0.930 . S
H1169 C1152 0.931 . S
H1170 C1153 0.930 . S
H1171 C1154 0.930 . S
H1172 C1161 0.930 . S
H1173 C1163 0.931 . S
H1174 C1164 0.930 . S
H1175 C1165 0.930 . S
Tb1176 N1207 2.660 . S
Tb1176 N1214 2.600 . S
Tb1176 O1220 2.546 . S
Tb1176 O1221 2.610 . S
Tb1176 O1223 2.320 . S
Tb1176 O1224 2.552 . S
Tb1176 O1225 2.413 . S
Tb1176 O1227 2.362 . S
Tb1176 O1228 2.421 . S
Tb1176 C1240 2.833 . S
C1177 C1180 1.432 . S
C1177 C1181 1.414 . S
C1177 N1184 1.359 . S
C1178 C1180 1.417 . S
C1178 C1182 1.432 . S
C1178 C1190 1.410 . S
C1179 C1181 1.444 . S
C1179 C1182 1.317 . S
C1179 H1202 0.929 . S
C1180 C1177 1.432 . S
C1180 C1178 1.417 . S
C1180 N1188 1.360 . S
C1181 C1177 1.414 . S
C1181 C1179 1.444 . S
C1181 C1186 1.385 . S
C1182 C1178 1.432 . S
C1182 C1179 1.317 . S
C1182 H1194 0.930 . S
C1183 C1185 1.392 . S
C1183 C1186 1.370 . S
C1183 H1195 0.931 . S
N1184 C1177 1.359 . S
N1184 C1185 1.327 . S
N1184 Tb1187 2.600 . S
C1185 C1183 1.392 . S
C1185 N1184 1.327 . S
C1185 H1192 0.930 . S
C1186 C1181 1.385 . S
C1186 C1183 1.370 . S
C1186 H1205 0.930 . S
Tb1187 N1184 2.600 . S
Tb1187 N1188 2.660 . S
Tb1187 O1221 2.362 . S
Tb1187 O1222 2.421 . S
Tb1187 O1226 2.546 . S
Tb1187 O1227 2.610 . S
Tb1187 O1229 2.320 . S
Tb1187 O1230 2.552 . S
Tb1187 O1231 2.413 . S
Tb1187 C1251 2.833 . S
N1188 C1180 1.360 . S
N1188 Tb1187 2.660 . S
N1188 C1189 1.305 . S
C1189 N1188 1.305 . S
C1189 C1191 1.407 . S
C1189 H1196 0.930 . S
C1190 C1178 1.410 . S
C1190 C1191 1.345 . S
C1190 H1198 0.930 . S
C1191 C1189 1.407 . S
C1191 C1190 1.345 . S
C1191 H1193 0.930 . S
H1192 C1185 0.930 . S
H1193 C1191 0.930 . S
H1194 C1182 0.930 . S
H1195 C1183 0.931 . S
H1196 C1189 0.930 . S
H1197 C1211 0.930 . S
H1198 C1190 0.930 . S
H1199 C1217 0.930 . S
H1200 C1208 0.930 . S
H1201 C1215 0.931 . S
H1202 C1179 0.929 . S
H1203 C1209 0.930 . S
H1204 C1242 0.930 . S
H1205 C1186 0.930 . S
H1206 C1241 0.929 . S
N1207 Tb1176 2.660 . S
N1207 C1208 1.305 . S
N1207 C1212 1.360 . S
C1208 H1200 0.930 . S
C1208 N1207 1.305 . S
C1208 C1211 1.407 . S
C1209 H1203 0.930 . S
C1209 C1210 1.410 . S
C1209 C1211 1.345 . S
C1210 C1209 1.410 . S
C1210 C1212 1.417 . S
C1210 C1242 1.432 . S
C1211 H1197 0.930 . S
C1211 C1208 1.407 . S
C1211 C1209 1.345 . S
C1212 N1207 1.360 . S
C1212 C1210 1.417 . S
C1212 C1216 1.432 . S
H1213 C1218 0.930 . S
N1214 Tb1176 2.600 . S
N1214 C1216 1.359 . S
N1214 C1217 1.327 . S
C1215 H1201 0.931 . S
C1215 C1217 1.392 . S
C1215 C1218 1.370 . S
C1216 C1212 1.432 . S
C1216 N1214 1.359 . S
C1216 C1219 1.414 . S
C1217 H1199 0.930 . S
C1217 N1214 1.327 . S
C1217 C1215 1.392 . S
C1218 H1213 0.930 . S
C1218 C1215 1.370 . S
C1218 C1219 1.385 . S
C1219 C1216 1.414 . S
C1219 C1218 1.385 . S
C1219 C1241 1.444 . S
O1220 Tb1176 2.546 . S
O1220 C1240 1.251 . S
O1221 Tb1176 2.610 . S
O1221 Tb1187 2.362 . S
O1221 C1232 1.283 . S
O1222 Tb1187 2.421 . S
O1222 C1239 1.262 . S
O1223 Tb1176 2.320 . S
O1223 C1239 1.260 . S
O1224 Tb1176 2.552 . S
O1224 C1232 1.243 . S
O1225 Tb1176 2.413 . S
O1225 C1240 1.256 . S
O1226 Tb1187 2.546 . S
O1226 C1251 1.251 . S
O1227 Tb1176 2.362 . S
O1227 Tb1187 2.610 . S
O1227 C1243 1.283 . S
O1228 Tb1176 2.421 . S
O1228 C1250 1.262 . S
O1229 Tb1187 2.320 . S
O1229 C1250 1.260 . S
O1230 Tb1187 2.552 . S
O1230 C1243 1.243 . S
O1231 Tb1187 2.413 . S
O1231 C1251 1.256 . S
C1232 O1221 1.283 . S
C1232 O1224 1.243 . S
C1233 C1235 1.382 . S
C1233 C1237 1.393 . S
C1233 C1240 1.500 . S
C1234 C1235 1.400 . S
C1234 C1236 1.384 . S
C1235 C1233 1.382 . S
C1235 C1234 1.400 . S
C1235 H1252 0.930 . S
C1236 C1234 1.384 . S
C1236 C1238 1.392 . S
C1236 H1253 0.931 . S
C1237 C1233 1.393 . S
C1237 C1238 1.401 . S
C1237 H1254 0.930 . S
C1238 C1236 1.392 . S
C1238 C1237 1.401 . S
C1238 H1255 0.930 . S
C1239 O1222 1.262 . S
C1239 O1223 1.260 . S
C1240 Tb1176 2.833 . S
C1240 O1220 1.251 . S
C1240 O1225 1.256 . S
C1240 C1233 1.500 . S
C1241 H1206 0.929 . S
C1241 C1219 1.444 . S
C1241 C1242 1.317 . S
C1242 H1204 0.930 . S
C1242 C1210 1.432 . S
C1242 C1241 1.317 . S
C1243 O1227 1.283 . S
C1243 O1230 1.243 . S
C1244 C1245 1.382 . S
C1244 C1248 1.393 . S
C1244 C1251 1.500 . S
C1245 C1244 1.382 . S
C1245 C1246 1.400 . S
C1245 H1256 0.930 . S
C1246 C1245 1.400 . S
C1246 C1247 1.384 . S
C1247 C1246 1.384 . S
C1247 C1249 1.392 . S
C1247 H1257 0.931 . S
C1248 C1244 1.393 . S
C1248 C1249 1.401 . S
C1248 H1258 0.930 . S
C1249 C1247 1.392 . S
C1249 C1248 1.401 . S
C1249 H1259 0.930 . S
C1250 O1228 1.262 . S
C1250 O1229 1.260 . S
C1251 Tb1187 2.833 . S
C1251 O1226 1.251 . S
C1251 O1231 1.256 . S
C1251 C1244 1.500 . S
H1252 C1235 0.930 . S
H1253 C1236 0.931 . S
H1254 C1237 0.930 . S
H1255 C1238 0.930 . S
H1256 C1245 0.930 . S
H1257 C1247 0.931 . S
H1258 C1248 0.930 . S
H1259 C1249 0.930 . S
Tb1260 N1291 2.660 . S
Tb1260 N1298 2.600 . S
Tb1260 O1304 2.546 . S
Tb1260 O1305 2.610 . S
Tb1260 O1307 2.320 . S
Tb1260 O1308 2.552 . S
Tb1260 O1309 2.413 . S
Tb1260 O1311 2.362 . S
Tb1260 O1312 2.421 . S
Tb1260 C1324 2.833 . S
C1261 C1264 1.432 . S
C1261 C1265 1.414 . S
C1261 N1268 1.359 . S
C1262 C1264 1.417 . S
C1262 C1266 1.432 . S
C1262 C1274 1.410 . S
C1263 C1265 1.444 . S
C1263 C1266 1.317 . S
C1263 H1286 0.929 . S
C1264 C1261 1.432 . S
C1264 C1262 1.417 . S
C1264 N1272 1.360 . S
C1265 C1261 1.414 . S
C1265 C1263 1.444 . S
C1265 C1270 1.385 . S
C1266 C1262 1.432 . S
C1266 C1263 1.317 . S
C1266 H1278 0.930 . S
C1267 C1269 1.392 . S
C1267 C1270 1.370 . S
C1267 H1279 0.931 . S
N1268 C1261 1.359 . S
N1268 C1269 1.327 . S
N1268 Tb1271 2.600 . S
C1269 C1267 1.392 . S
C1269 N1268 1.327 . S
C1269 H1276 0.930 . S
C1270 C1265 1.385 . S
C1270 C1267 1.370 . S
C1270 H1289 0.930 . S
Tb1271 N1268 2.600 . S
Tb1271 N1272 2.660 . S
Tb1271 O1305 2.362 . S
Tb1271 O1306 2.421 . S
Tb1271 O1310 2.546 . S
Tb1271 O1311 2.610 . S
Tb1271 O1313 2.320 . S
Tb1271 O1314 2.552 . S
Tb1271 O1315 2.413 . S
Tb1271 C1335 2.833 . S
N1272 C1264 1.360 . S
N1272 Tb1271 2.660 . S
N1272 C1273 1.305 . S
C1273 N1272 1.305 . S
C1273 C1275 1.407 . S
C1273 H1280 0.930 . S
C1274 C1262 1.410 . S
C1274 C1275 1.345 . S
C1274 H1282 0.930 . S
C1275 C1273 1.407 . S
C1275 C1274 1.345 . S
C1275 H1277 0.930 . S
H1276 C1269 0.930 . S
H1277 C1275 0.930 . S
H1278 C1266 0.930 . S
H1279 C1267 0.931 . S
H1280 C1273 0.930 . S
H1281 C1295 0.930 . S
H1282 C1274 0.930 . S
H1283 C1301 0.930 . S
H1284 C1292 0.930 . S
H1285 C1299 0.931 . S
H1286 C1263 0.929 . S
H1287 C1293 0.930 . S
H1288 C1326 0.930 . S
H1289 C1270 0.930 . S
H1290 C1325 0.929 . S
N1291 Tb1260 2.660 . S
N1291 C1292 1.305 . S
N1291 C1296 1.360 . S
C1292 H1284 0.930 . S
C1292 N1291 1.305 . S
C1292 C1295 1.407 . S
C1293 H1287 0.930 . S
C1293 C1294 1.410 . S
C1293 C1295 1.345 . S
C1294 C1293 1.410 . S
C1294 C1296 1.417 . S
C1294 C1326 1.432 . S
C1295 H1281 0.930 . S
C1295 C1292 1.407 . S
C1295 C1293 1.345 . S
C1296 N1291 1.360 . S
C1296 C1294 1.417 . S
C1296 C1300 1.432 . S
H1297 C1302 0.930 . S
N1298 Tb1260 2.600 . S
N1298 C1300 1.359 . S
N1298 C1301 1.327 . S
C1299 H1285 0.931 . S
C1299 C1301 1.392 . S
C1299 C1302 1.370 . S
C1300 C1296 1.432 . S
C1300 N1298 1.359 . S
C1300 C1303 1.414 . S
C1301 H1283 0.930 . S
C1301 N1298 1.327 . S
C1301 C1299 1.392 . S
C1302 H1297 0.930 . S
C1302 C1299 1.370 . S
C1302 C1303 1.385 . S
C1303 C1300 1.414 . S
C1303 C1302 1.385 . S
C1303 C1325 1.444 . S
O1304 Tb1260 2.546 . S
O1304 C1324 1.251 . S
O1305 Tb1260 2.610 . S
O1305 Tb1271 2.362 . S
O1305 C1316 1.283 . S
O1306 Tb1271 2.421 . S
O1306 C1323 1.262 . S
O1307 Tb1260 2.320 . S
O1307 C1323 1.260 . S
O1308 Tb1260 2.552 . S
O1308 C1316 1.243 . S
O1309 Tb1260 2.413 . S
O1309 C1324 1.256 . S
O1310 Tb1271 2.546 . S
O1310 C1335 1.251 . S
O1311 Tb1260 2.362 . S
O1311 Tb1271 2.610 . S
O1311 C1327 1.283 . S
O1312 Tb1260 2.421 . S
O1312 C1334 1.262 . S
O1313 Tb1271 2.320 . S
O1313 C1334 1.260 . S
O1314 Tb1271 2.552 . S
O1314 C1327 1.243 . S
O1315 Tb1271 2.413 . S
O1315 C1335 1.256 . S
C1316 O1305 1.283 . S
C1316 O1308 1.243 . S
C1317 C1319 1.382 . S
C1317 C1321 1.393 . S
C1317 C1324 1.500 . S
C1318 C1319 1.400 . S
C1318 C1320 1.384 . S
C1319 C1317 1.382 . S
C1319 C1318 1.400 . S
C1319 H1336 0.930 . S
C1320 C1318 1.384 . S
C1320 C1322 1.392 . S
C1320 H1337 0.931 . S
C1321 C1317 1.393 . S
C1321 C1322 1.401 . S
C1321 H1338 0.930 . S
C1322 C1320 1.392 . S
C1322 C1321 1.401 . S
C1322 H1339 0.930 . S
C1323 O1306 1.262 . S
C1323 O1307 1.260 . S
C1324 Tb1260 2.833 . S
C1324 O1304 1.251 . S
C1324 O1309 1.256 . S
C1324 C1317 1.500 . S
C1325 H1290 0.929 . S
C1325 C1303 1.444 . S
C1325 C1326 1.317 . S
C1326 H1288 0.930 . S
C1326 C1294 1.432 . S
C1326 C1325 1.317 . S
C1327 O1311 1.283 . S
C1327 O1314 1.243 . S
C1328 C1329 1.382 . S
C1328 C1332 1.393 . S
C1328 C1335 1.500 1_554 S
C1329 C1328 1.382 . S
C1329 C1330 1.400 . S
C1329 H1340 0.930 . S
C1330 C1329 1.400 . S
C1330 C1331 1.384 . S
C1331 C1330 1.384 . S
C1331 C1333 1.392 . S
C1331 H1341 0.931 . S
C1332 C1328 1.393 . S
C1332 C1333 1.401 . S
C1332 H1342 0.930 . S
C1333 C1331 1.392 . S
C1333 C1332 1.401 . S
C1333 H1343 0.930 . S
C1334 O1312 1.262 . S
C1334 O1313 1.260 . S
C1335 Tb1271 2.833 . S
C1335 O1310 1.251 . S
C1335 O1315 1.256 . S
C1335 C1328 1.500 1_556 S
H1336 C1319 0.930 . S
H1337 C1320 0.931 . S
H1338 C1321 0.930 . S
H1339 C1322 0.930 . S
H1340 C1329 0.930 . S
H1341 C1331 0.931 . S
H1342 C1332 0.930 . S
H1343 C1333 0.930 . S
Tb1344 N1375 2.660 . S
Tb1344 N1382 2.600 . S
Tb1344 O1388 2.546 . S
Tb1344 O1389 2.610 . S
Tb1344 O1391 2.320 . S
Tb1344 O1392 2.552 . S
Tb1344 O1393 2.413 . S
Tb1344 O1395 2.362 . S
Tb1344 O1396 2.421 . S
Tb1344 C1408 2.833 . S
C1345 C1348 1.432 . S
C1345 C1349 1.414 . S
C1345 N1352 1.359 . S
C1346 C1348 1.417 . S
C1346 C1350 1.432 . S
C1346 C1358 1.410 . S
C1347 C1349 1.444 . S
C1347 C1350 1.317 . S
C1347 H1370 0.929 . S
C1348 C1345 1.432 . S
C1348 C1346 1.417 . S
C1348 N1356 1.360 . S
C1349 C1345 1.414 . S
C1349 C1347 1.444 . S
C1349 C1354 1.385 . S
C1350 C1346 1.432 . S
C1350 C1347 1.317 . S
C1350 H1362 0.930 . S
C1351 C1353 1.392 . S
C1351 C1354 1.370 . S
C1351 H1363 0.931 . S
N1352 C1345 1.359 . S
N1352 C1353 1.327 . S
N1352 Tb1355 2.600 . S
C1353 C1351 1.392 . S
C1353 N1352 1.327 . S
C1353 H1360 0.930 . S
C1354 C1349 1.385 . S
C1354 C1351 1.370 . S
C1354 H1373 0.930 . S
Tb1355 N1352 2.600 . S
Tb1355 N1356 2.660 . S
Tb1355 O1389 2.362 . S
Tb1355 O1390 2.421 . S
Tb1355 O1394 2.546 . S
Tb1355 O1395 2.610 . S
Tb1355 O1397 2.320 . S
Tb1355 O1398 2.552 . S
Tb1355 O1399 2.413 . S
Tb1355 C1419 2.833 . S
N1356 C1348 1.360 . S
N1356 Tb1355 2.660 . S
N1356 C1357 1.305 . S
C1357 N1356 1.305 . S
C1357 C1359 1.407 . S
C1357 H1364 0.930 . S
C1358 C1346 1.410 . S
C1358 C1359 1.345 . S
C1358 H1366 0.930 . S
C1359 C1357 1.407 . S
C1359 C1358 1.345 . S
C1359 H1361 0.930 . S
H1360 C1353 0.930 . S
H1361 C1359 0.930 . S
H1362 C1350 0.930 . S
H1363 C1351 0.931 . S
H1364 C1357 0.930 . S
H1365 C1379 0.930 . S
H1366 C1358 0.930 . S
H1367 C1385 0.930 . S
H1368 C1376 0.930 . S
H1369 C1383 0.931 . S
H1370 C1347 0.929 . S
H1371 C1377 0.930 . S
H1372 C1410 0.930 . S
H1373 C1354 0.930 . S
H1374 C1409 0.929 . S
N1375 Tb1344 2.660 . S
N1375 C1376 1.305 . S
N1375 C1380 1.360 . S
C1376 H1368 0.930 . S
C1376 N1375 1.305 . S
C1376 C1379 1.407 . S
C1377 H1371 0.930 . S
C1377 C1378 1.410 . S
C1377 C1379 1.345 . S
C1378 C1377 1.410 . S
C1378 C1380 1.417 . S
C1378 C1410 1.432 . S
C1379 H1365 0.930 . S
C1379 C1376 1.407 . S
C1379 C1377 1.345 . S
C1380 N1375 1.360 . S
C1380 C1378 1.417 . S
C1380 C1384 1.432 . S
H1381 C1386 0.930 . S
N1382 Tb1344 2.600 . S
N1382 C1384 1.359 . S
N1382 C1385 1.327 . S
C1383 H1369 0.931 . S
C1383 C1385 1.392 . S
C1383 C1386 1.370 . S
C1384 C1380 1.432 . S
C1384 N1382 1.359 . S
C1384 C1387 1.414 . S
C1385 H1367 0.930 . S
C1385 N1382 1.327 . S
C1385 C1383 1.392 . S
C1386 H1381 0.930 . S
C1386 C1383 1.370 . S
C1386 C1387 1.385 . S
C1387 C1384 1.414 . S
C1387 C1386 1.385 . S
C1387 C1409 1.444 . S
O1388 Tb1344 2.546 . S
O1388 C1408 1.251 . S
O1389 Tb1344 2.610 . S
O1389 Tb1355 2.362 . S
O1389 C1400 1.283 . S
O1390 Tb1355 2.421 . S
O1390 C1407 1.262 . S
O1391 Tb1344 2.320 . S
O1391 C1407 1.260 . S
O1392 Tb1344 2.552 . S
O1392 C1400 1.243 . S
O1393 Tb1344 2.413 . S
O1393 C1408 1.256 . S
O1394 Tb1355 2.546 . S
O1394 C1419 1.251 . S
O1395 Tb1344 2.362 . S
O1395 Tb1355 2.610 . S
O1395 C1411 1.283 . S
O1396 Tb1344 2.421 . S
O1396 C1418 1.262 . S
O1397 Tb1355 2.320 . S
O1397 C1418 1.260 . S
O1398 Tb1355 2.552 . S
O1398 C1411 1.243 . S
O1399 Tb1355 2.413 . S
O1399 C1419 1.256 . S
C1400 O1389 1.283 . S
C1400 O1392 1.243 . S
C1401 C1403 1.382 . S
C1401 C1405 1.393 . S
C1401 C1408 1.500 . S
C1402 C1403 1.400 . S
C1402 C1404 1.384 . S
C1403 C1401 1.382 . S
C1403 C1402 1.400 . S
C1403 H1420 0.930 . S
C1404 C1402 1.384 . S
C1404 C1406 1.392 . S
C1404 H1421 0.931 . S
C1405 C1401 1.393 . S
C1405 C1406 1.401 . S
C1405 H1422 0.930 . S
C1406 C1404 1.392 . S
C1406 C1405 1.401 . S
C1406 H1423 0.930 . S
C1407 O1390 1.262 . S
C1407 O1391 1.260 . S
C1408 Tb1344 2.833 . S
C1408 O1388 1.251 . S
C1408 O1393 1.256 . S
C1408 C1401 1.500 . S
C1409 H1374 0.929 . S
C1409 C1387 1.444 . S
C1409 C1410 1.317 . S
C1410 H1372 0.930 . S
C1410 C1378 1.432 . S
C1410 C1409 1.317 . S
C1411 O1395 1.283 . S
C1411 O1398 1.243 . S
C1412 C1413 1.382 . S
C1412 C1416 1.393 . S
C1412 C1419 1.500 1_554 S
C1413 C1412 1.382 . S
C1413 C1414 1.400 . S
C1413 H1424 0.930 . S
C1414 C1413 1.400 . S
C1414 C1415 1.384 . S
C1415 C1414 1.384 . S
C1415 C1417 1.392 . S
C1415 H1425 0.931 . S
C1416 C1412 1.393 . S
C1416 C1417 1.401 . S
C1416 H1426 0.930 . S
C1417 C1415 1.392 . S
C1417 C1416 1.401 . S
C1417 H1427 0.930 . S
C1418 O1396 1.262 . S
C1418 O1397 1.260 . S
C1419 Tb1355 2.833 . S
C1419 O1394 1.251 . S
C1419 O1399 1.256 . S
C1419 C1412 1.500 1_556 S
H1420 C1403 0.930 . S
H1421 C1404 0.931 . S
H1422 C1405 0.930 . S
H1423 C1406 0.930 . S
H1424 C1413 0.930 . S
H1425 C1415 0.931 . S
H1426 C1416 0.930 . S
H1427 C1417 0.930 . S
Tb1428 N1459 2.660 . S
Tb1428 N1466 2.600 . S
Tb1428 O1472 2.546 . S
Tb1428 O1473 2.610 . S
Tb1428 O1475 2.320 . S
Tb1428 O1476 2.552 . S
Tb1428 O1477 2.413 . S
Tb1428 O1479 2.362 . S
Tb1428 O1480 2.421 . S
Tb1428 C1492 2.833 . S
C1429 C1432 1.432 . S
C1429 C1433 1.414 . S
C1429 N1436 1.359 . S
C1430 C1432 1.417 . S
C1430 C1434 1.432 . S
C1430 C1442 1.410 . S
C1431 C1433 1.444 . S
C1431 C1434 1.317 . S
C1431 H1454 0.929 . S
C1432 C1429 1.432 . S
C1432 C1430 1.417 . S
C1432 N1440 1.360 . S
C1433 C1429 1.414 . S
C1433 C1431 1.444 . S
C1433 C1438 1.385 . S
C1434 C1430 1.432 . S
C1434 C1431 1.317 . S
C1434 H1446 0.930 . S
C1435 C1437 1.392 . S
C1435 C1438 1.370 . S
C1435 H1447 0.931 . S
N1436 C1429 1.359 . S
N1436 C1437 1.327 . S
N1436 Tb1439 2.600 . S
C1437 C1435 1.392 . S
C1437 N1436 1.327 . S
C1437 H1444 0.930 . S
C1438 C1433 1.385 . S
C1438 C1435 1.370 . S
C1438 H1457 0.930 . S
Tb1439 N1436 2.600 . S
Tb1439 N1440 2.660 . S
Tb1439 O1473 2.362 . S
Tb1439 O1474 2.421 . S
Tb1439 O1478 2.546 . S
Tb1439 O1479 2.610 . S
Tb1439 O1481 2.320 . S
Tb1439 O1482 2.552 . S
Tb1439 O1483 2.413 . S
Tb1439 C1503 2.833 . S
N1440 C1432 1.360 . S
N1440 Tb1439 2.660 . S
N1440 C1441 1.305 . S
C1441 N1440 1.305 . S
C1441 C1443 1.407 . S
C1441 H1448 0.930 . S
C1442 C1430 1.410 . S
C1442 C1443 1.345 . S
C1442 H1450 0.930 . S
C1443 C1441 1.407 . S
C1443 C1442 1.345 . S
C1443 H1445 0.930 . S
H1444 C1437 0.930 . S
H1445 C1443 0.930 . S
H1446 C1434 0.930 . S
H1447 C1435 0.931 . S
H1448 C1441 0.930 . S
H1449 C1463 0.930 . S
H1450 C1442 0.930 . S
H1451 C1469 0.930 . S
H1452 C1460 0.930 . S
H1453 C1467 0.931 . S
H1454 C1431 0.929 . S
H1455 C1461 0.930 . S
H1456 C1494 0.930 . S
H1457 C1438 0.930 . S
H1458 C1493 0.929 . S
N1459 Tb1428 2.660 . S
N1459 C1460 1.305 . S
N1459 C1464 1.360 . S
C1460 H1452 0.930 . S
C1460 N1459 1.305 . S
C1460 C1463 1.407 . S
C1461 H1455 0.930 . S
C1461 C1462 1.410 . S
C1461 C1463 1.345 . S
C1462 C1461 1.410 . S
C1462 C1464 1.417 . S
C1462 C1494 1.432 . S
C1463 H1449 0.930 . S
C1463 C1460 1.407 . S
C1463 C1461 1.345 . S
C1464 N1459 1.360 . S
C1464 C1462 1.417 . S
C1464 C1468 1.432 . S
H1465 C1470 0.930 . S
N1466 Tb1428 2.600 . S
N1466 C1468 1.359 . S
N1466 C1469 1.327 . S
C1467 H1453 0.931 . S
C1467 C1469 1.392 . S
C1467 C1470 1.370 . S
C1468 C1464 1.432 . S
C1468 N1466 1.359 . S
C1468 C1471 1.414 . S
C1469 H1451 0.930 . S
C1469 N1466 1.327 . S
C1469 C1467 1.392 . S
C1470 H1465 0.930 . S
C1470 C1467 1.370 . S
C1470 C1471 1.385 . S
C1471 C1468 1.414 . S
C1471 C1470 1.385 . S
C1471 C1493 1.444 . S
O1472 Tb1428 2.546 . S
O1472 C1492 1.251 . S
O1473 Tb1428 2.610 . S
O1473 Tb1439 2.362 . S
O1473 C1484 1.283 . S
O1474 Tb1439 2.421 . S
O1474 C1491 1.262 . S
O1475 Tb1428 2.320 . S
O1475 C1491 1.260 . S
O1476 Tb1428 2.552 . S
O1476 C1484 1.243 . S
O1477 Tb1428 2.413 . S
O1477 C1492 1.256 . S
O1478 Tb1439 2.546 . S
O1478 C1503 1.251 . S
O1479 Tb1428 2.362 . S
O1479 Tb1439 2.610 . S
O1479 C1495 1.283 . S
O1480 Tb1428 2.421 . S
O1480 C1502 1.262 . S
O1481 Tb1439 2.320 . S
O1481 C1502 1.260 . S
O1482 Tb1439 2.552 . S
O1482 C1495 1.243 . S
O1483 Tb1439 2.413 . S
O1483 C1503 1.256 . S
C1484 O1473 1.283 . S
C1484 O1476 1.243 . S
C1485 C1487 1.382 . S
C1485 C1489 1.393 . S
C1485 C1492 1.500 . S
C1486 C1487 1.400 . S
C1486 C1488 1.384 . S
C1487 C1485 1.382 . S
C1487 C1486 1.400 . S
C1487 H1504 0.930 . S
C1488 C1486 1.384 . S
C1488 C1490 1.392 . S
C1488 H1505 0.931 . S
C1489 C1485 1.393 . S
C1489 C1490 1.401 . S
C1489 H1506 0.930 . S
C1490 C1488 1.392 . S
C1490 C1489 1.401 . S
C1490 H1507 0.930 . S
C1491 O1474 1.262 . S
C1491 O1475 1.260 . S
C1492 Tb1428 2.833 . S
C1492 O1472 1.251 . S
C1492 O1477 1.256 . S
C1492 C1485 1.500 . S
C1493 H1458 0.929 . S
C1493 C1471 1.444 . S
C1493 C1494 1.317 . S
C1494 H1456 0.930 . S
C1494 C1462 1.432 . S
C1494 C1493 1.317 . S
C1495 O1479 1.283 . S
C1495 O1482 1.243 . S
C1496 C1497 1.382 . S
C1496 C1500 1.393 . S
C1496 C1503 1.500 1_554 S
C1497 C1496 1.382 . S
C1497 C1498 1.400 . S
C1497 H1508 0.930 . S
C1498 C1497 1.400 . S
C1498 C1499 1.384 . S
C1499 C1498 1.384 . S
C1499 C1501 1.392 . S
C1499 H1509 0.931 . S
C1500 C1496 1.393 . S
C1500 C1501 1.401 . S
C1500 H1510 0.930 . S
C1501 C1499 1.392 . S
C1501 C1500 1.401 . S
C1501 H1511 0.930 . S
C1502 O1480 1.262 . S
C1502 O1481 1.260 . S
C1503 Tb1439 2.833 . S
C1503 O1478 1.251 . S
C1503 O1483 1.256 . S
C1503 C1496 1.500 1_556 S
H1504 C1487 0.930 . S
H1505 C1488 0.931 . S
H1506 C1489 0.930 . S
H1507 C1490 0.930 . S
H1508 C1497 0.930 . S
H1509 C1499 0.931 . S
H1510 C1500 0.930 . S
H1511 C1501 0.930 . S
Tb1512 N1543 2.660 . S
Tb1512 N1550 2.600 . S
Tb1512 O1556 2.546 . S
Tb1512 O1557 2.610 . S
Tb1512 O1559 2.320 . S
Tb1512 O1560 2.552 . S
Tb1512 O1561 2.413 . S
Tb1512 O1563 2.362 . S
Tb1512 O1564 2.421 . S
Tb1512 C1576 2.833 . S
C1513 C1516 1.432 . S
C1513 C1517 1.414 . S
C1513 N1520 1.359 . S
C1514 C1516 1.417 . S
C1514 C1518 1.432 . S
C1514 C1526 1.410 . S
C1515 C1517 1.444 . S
C1515 C1518 1.317 . S
C1515 H1538 0.929 . S
C1516 C1513 1.432 . S
C1516 C1514 1.417 . S
C1516 N1524 1.360 . S
C1517 C1513 1.414 . S
C1517 C1515 1.444 . S
C1517 C1522 1.385 . S
C1518 C1514 1.432 . S
C1518 C1515 1.317 . S
C1518 H1530 0.930 . S
C1519 C1521 1.392 . S
C1519 C1522 1.370 . S
C1519 H1531 0.931 . S
N1520 C1513 1.359 . S
N1520 C1521 1.327 . S
N1520 Tb1523 2.600 . S
C1521 C1519 1.392 . S
C1521 N1520 1.327 . S
C1521 H1528 0.930 . S
C1522 C1517 1.385 . S
C1522 C1519 1.370 . S
C1522 H1541 0.930 . S
Tb1523 N1520 2.600 . S
Tb1523 N1524 2.660 . S
Tb1523 O1557 2.362 . S
Tb1523 O1558 2.421 . S
Tb1523 O1562 2.546 . S
Tb1523 O1563 2.610 . S
Tb1523 O1565 2.320 . S
Tb1523 O1566 2.552 . S
Tb1523 O1567 2.413 . S
Tb1523 C1587 2.833 . S
N1524 C1516 1.360 . S
N1524 Tb1523 2.660 . S
N1524 C1525 1.305 . S
C1525 N1524 1.305 . S
C1525 C1527 1.407 . S
C1525 H1532 0.930 . S
C1526 C1514 1.410 . S
C1526 C1527 1.345 . S
C1526 H1534 0.930 . S
C1527 C1525 1.407 . S
C1527 C1526 1.345 . S
C1527 H1529 0.930 . S
H1528 C1521 0.930 . S
H1529 C1527 0.930 . S
H1530 C1518 0.930 . S
H1531 C1519 0.931 . S
H1532 C1525 0.930 . S
H1533 C1547 0.930 . S
H1534 C1526 0.930 . S
H1535 C1553 0.930 . S
H1536 C1544 0.930 . S
H1537 C1551 0.931 . S
H1538 C1515 0.929 . S
H1539 C1545 0.930 . S
H1540 C1578 0.930 . S
H1541 C1522 0.930 . S
H1542 C1577 0.929 . S
N1543 Tb1512 2.660 . S
N1543 C1544 1.305 . S
N1543 C1548 1.360 . S
C1544 H1536 0.930 . S
C1544 N1543 1.305 . S
C1544 C1547 1.407 . S
C1545 H1539 0.930 . S
C1545 C1546 1.410 . S
C1545 C1547 1.345 . S
C1546 C1545 1.410 . S
C1546 C1548 1.417 . S
C1546 C1578 1.432 . S
C1547 H1533 0.930 . S
C1547 C1544 1.407 . S
C1547 C1545 1.345 . S
C1548 N1543 1.360 . S
C1548 C1546 1.417 . S
C1548 C1552 1.432 . S
H1549 C1554 0.930 . S
N1550 Tb1512 2.600 . S
N1550 C1552 1.359 . S
N1550 C1553 1.327 . S
C1551 H1537 0.931 . S
C1551 C1553 1.392 . S
C1551 C1554 1.370 . S
C1552 C1548 1.432 . S
C1552 N1550 1.359 . S
C1552 C1555 1.414 . S
C1553 H1535 0.930 . S
C1553 N1550 1.327 . S
C1553 C1551 1.392 . S
C1554 H1549 0.930 . S
C1554 C1551 1.370 . S
C1554 C1555 1.385 . S
C1555 C1552 1.414 . S
C1555 C1554 1.385 . S
C1555 C1577 1.444 . S
O1556 Tb1512 2.546 . S
O1556 C1576 1.251 . S
O1557 Tb1512 2.610 . S
O1557 Tb1523 2.362 . S
O1557 C1568 1.283 . S
O1558 Tb1523 2.421 . S
O1558 C1575 1.262 . S
O1559 Tb1512 2.320 . S
O1559 C1575 1.260 . S
O1560 Tb1512 2.552 . S
O1560 C1568 1.243 . S
O1561 Tb1512 2.413 . S
O1561 C1576 1.256 . S
O1562 Tb1523 2.546 . S
O1562 C1587 1.251 . S
O1563 Tb1512 2.362 . S
O1563 Tb1523 2.610 . S
O1563 C1579 1.283 . S
O1564 Tb1512 2.421 . S
O1564 C1586 1.262 . S
O1565 Tb1523 2.320 . S
O1565 C1586 1.260 . S
O1566 Tb1523 2.552 . S
O1566 C1579 1.243 . S
O1567 Tb1523 2.413 . S
O1567 C1587 1.256 . S
C1568 O1557 1.283 . S
C1568 O1560 1.243 . S
C1569 C1571 1.382 . S
C1569 C1573 1.393 . S
C1569 C1576 1.500 . S
C1570 C1571 1.400 . S
C1570 C1572 1.384 . S
C1571 C1569 1.382 . S
C1571 C1570 1.400 . S
C1571 H1588 0.930 . S
C1572 C1570 1.384 . S
C1572 C1574 1.392 . S
C1572 H1589 0.931 . S
C1573 C1569 1.393 . S
C1573 C1574 1.401 . S
C1573 H1590 0.930 . S
C1574 C1572 1.392 . S
C1574 C1573 1.401 . S
C1574 H1591 0.930 . S
C1575 O1558 1.262 . S
C1575 O1559 1.260 . S
C1576 Tb1512 2.833 . S
C1576 O1556 1.251 . S
C1576 O1561 1.256 . S
C1576 C1569 1.500 . S
C1577 H1542 0.929 . S
C1577 C1555 1.444 . S
C1577 C1578 1.317 . S
C1578 H1540 0.930 . S
C1578 C1546 1.432 . S
C1578 C1577 1.317 . S
C1579 O1563 1.283 . S
C1579 O1566 1.243 . S
C1580 C1581 1.382 . S
C1580 C1584 1.393 . S
C1580 C1587 1.500 . S
C1581 C1580 1.382 . S
C1581 C1582 1.400 . S
C1581 H1592 0.930 . S
C1582 C1581 1.400 . S
C1582 C1583 1.384 . S
C1583 C1582 1.384 . S
C1583 C1585 1.392 . S
C1583 H1593 0.931 . S
C1584 C1580 1.393 . S
C1584 C1585 1.401 . S
C1584 H1594 0.930 . S
C1585 C1583 1.392 . S
C1585 C1584 1.401 . S
C1585 H1595 0.930 . S
C1586 O1564 1.262 . S
C1586 O1565 1.260 . S
C1587 Tb1523 2.833 . S
C1587 O1562 1.251 . S
C1587 O1567 1.256 . S
C1587 C1580 1.500 . S
H1588 C1571 0.930 . S
H1589 C1572 0.931 . S
H1590 C1573 0.930 . S
H1591 C1574 0.930 . S
H1592 C1581 0.930 . S
H1593 C1583 0.931 . S
H1594 C1584 0.930 . S
H1595 C1585 0.930 . S
Tb1596 N1627 2.660 . S
Tb1596 N1634 2.600 . S
Tb1596 O1640 2.546 . S
Tb1596 O1641 2.610 . S
Tb1596 O1643 2.320 . S
Tb1596 O1644 2.552 . S
Tb1596 O1645 2.413 . S
Tb1596 O1647 2.362 . S
Tb1596 O1648 2.421 . S
Tb1596 C1660 2.833 . S
C1597 C1600 1.432 . S
C1597 C1601 1.414 . S
C1597 N1604 1.359 . S
C1598 C1600 1.417 . S
C1598 C1602 1.432 . S
C1598 C1610 1.410 . S
C1599 C1601 1.444 . S
C1599 C1602 1.317 . S
C1599 H1622 0.929 . S
C1600 C1597 1.432 . S
C1600 C1598 1.417 . S
C1600 N1608 1.360 . S
C1601 C1597 1.414 . S
C1601 C1599 1.444 . S
C1601 C1606 1.385 . S
C1602 C1598 1.432 . S
C1602 C1599 1.317 . S
C1602 H1614 0.930 . S
C1603 C1605 1.392 . S
C1603 C1606 1.370 . S
C1603 H1615 0.931 . S
N1604 C1597 1.359 . S
N1604 C1605 1.327 . S
N1604 Tb1607 2.600 . S
C1605 C1603 1.392 . S
C1605 N1604 1.327 . S
C1605 H1612 0.930 . S
C1606 C1601 1.385 . S
C1606 C1603 1.370 . S
C1606 H1625 0.930 . S
Tb1607 N1604 2.600 . S
Tb1607 N1608 2.660 . S
Tb1607 O1641 2.362 . S
Tb1607 O1642 2.421 . S
Tb1607 O1646 2.546 . S
Tb1607 O1647 2.610 . S
Tb1607 O1649 2.320 . S
Tb1607 O1650 2.552 . S
Tb1607 O1651 2.413 . S
Tb1607 C1671 2.833 . S
N1608 C1600 1.360 . S
N1608 Tb1607 2.660 . S
N1608 C1609 1.305 . S
C1609 N1608 1.305 . S
C1609 C1611 1.407 . S
C1609 H1616 0.930 . S
C1610 C1598 1.410 . S
C1610 C1611 1.345 . S
C1610 H1618 0.930 . S
C1611 C1609 1.407 . S
C1611 C1610 1.345 . S
C1611 H1613 0.930 . S
H1612 C1605 0.930 . S
H1613 C1611 0.930 . S
H1614 C1602 0.930 . S
H1615 C1603 0.931 . S
H1616 C1609 0.930 . S
H1617 C1631 0.930 . S
H1618 C1610 0.930 . S
H1619 C1637 0.930 . S
H1620 C1628 0.930 . S
H1621 C1635 0.931 . S
H1622 C1599 0.929 . S
H1623 C1629 0.930 . S
H1624 C1662 0.930 . S
H1625 C1606 0.930 . S
H1626 C1661 0.929 . S
N1627 Tb1596 2.660 . S
N1627 C1628 1.305 . S
N1627 C1632 1.360 . S
C1628 H1620 0.930 . S
C1628 N1627 1.305 . S
C1628 C1631 1.407 . S
C1629 H1623 0.930 . S
C1629 C1630 1.410 . S
C1629 C1631 1.345 . S
C1630 C1629 1.410 . S
C1630 C1632 1.417 . S
C1630 C1662 1.432 . S
C1631 H1617 0.930 . S
C1631 C1628 1.407 . S
C1631 C1629 1.345 . S
C1632 N1627 1.360 . S
C1632 C1630 1.417 . S
C1632 C1636 1.432 . S
H1633 C1638 0.930 . S
N1634 Tb1596 2.600 . S
N1634 C1636 1.359 . S
N1634 C1637 1.327 . S
C1635 H1621 0.931 . S
C1635 C1637 1.392 . S
C1635 C1638 1.370 . S
C1636 C1632 1.432 . S
C1636 N1634 1.359 . S
C1636 C1639 1.414 . S
C1637 H1619 0.930 . S
C1637 N1634 1.327 . S
C1637 C1635 1.392 . S
C1638 H1633 0.930 . S
C1638 C1635 1.370 . S
C1638 C1639 1.385 . S
C1639 C1636 1.414 . S
C1639 C1638 1.385 . S
C1639 C1661 1.444 . S
O1640 Tb1596 2.546 . S
O1640 C1660 1.251 . S
O1641 Tb1596 2.610 . S
O1641 Tb1607 2.362 . S
O1641 C1652 1.283 . S
O1642 Tb1607 2.421 . S
O1642 C1659 1.262 . S
O1643 Tb1596 2.320 . S
O1643 C1659 1.260 . S
O1644 Tb1596 2.552 . S
O1644 C1652 1.243 . S
O1645 Tb1596 2.413 . S
O1645 C1660 1.256 . S
O1646 Tb1607 2.546 . S
O1646 C1671 1.251 . S
O1647 Tb1596 2.362 . S
O1647 Tb1607 2.610 . S
O1647 C1663 1.283 . S
O1648 Tb1596 2.421 . S
O1648 C1670 1.262 . S
O1649 Tb1607 2.320 . S
O1649 C1670 1.260 . S
O1650 Tb1607 2.552 . S
O1650 C1663 1.243 . S
O1651 Tb1607 2.413 . S
O1651 C1671 1.256 . S
C1652 O1641 1.283 . S
C1652 O1644 1.243 . S
C1653 C1655 1.382 . S
C1653 C1657 1.393 . S
C1653 C1660 1.500 . S
C1654 C1655 1.400 . S
C1654 C1656 1.384 . S
C1655 C1653 1.382 . S
C1655 C1654 1.400 . S
C1655 H1672 0.930 . S
C1656 C1654 1.384 . S
C1656 C1658 1.392 . S
C1656 H1673 0.931 . S
C1657 C1653 1.393 . S
C1657 C1658 1.401 . S
C1657 H1674 0.930 . S
C1658 C1656 1.392 . S
C1658 C1657 1.401 . S
C1658 H1675 0.930 . S
C1659 O1642 1.262 . S
C1659 O1643 1.260 . S
C1660 Tb1596 2.833 . S
C1660 O1640 1.251 . S
C1660 O1645 1.256 . S
C1660 C1653 1.500 . S
C1661 H1626 0.929 . S
C1661 C1639 1.444 . S
C1661 C1662 1.317 . S
C1662 H1624 0.930 . S
C1662 C1630 1.432 . S
C1662 C1661 1.317 . S
C1663 O1647 1.283 . S
C1663 O1650 1.243 . S
C1664 C1665 1.382 . S
C1664 C1668 1.393 . S
C1664 C1671 1.500 . S
C1665 C1664 1.382 . S
C1665 C1666 1.400 . S
C1665 H1676 0.930 . S
C1666 C1665 1.400 . S
C1666 C1667 1.384 . S
C1667 C1666 1.384 . S
C1667 C1669 1.392 . S
C1667 H1677 0.931 . S
C1668 C1664 1.393 . S
C1668 C1669 1.401 . S
C1668 H1678 0.930 . S
C1669 C1667 1.392 . S
C1669 C1668 1.401 . S
C1669 H1679 0.930 . S
C1670 O1648 1.262 . S
C1670 O1649 1.260 . S
C1671 Tb1607 2.833 . S
C1671 O1646 1.251 . S
C1671 O1651 1.256 . S
C1671 C1664 1.500 . S
H1672 C1655 0.930 . S
H1673 C1656 0.931 . S
H1674 C1657 0.930 . S
H1675 C1658 0.930 . S
H1676 C1665 0.930 . S
H1677 C1667 0.931 . S
H1678 C1668 0.930 . S
H1679 C1669 0.930 . S
Tb1680 N1711 2.660 . S
Tb1680 N1718 2.600 . S
Tb1680 O1724 2.546 . S
Tb1680 O1725 2.610 . S
Tb1680 O1727 2.320 . S
Tb1680 O1728 2.552 . S
Tb1680 O1729 2.413 . S
Tb1680 O1731 2.362 . S
Tb1680 O1732 2.421 . S
Tb1680 C1744 2.833 . S
C1681 C1684 1.432 . S
C1681 C1685 1.414 . S
C1681 N1688 1.359 . S
C1682 C1684 1.417 . S
C1682 C1686 1.432 . S
C1682 C1694 1.410 . S
C1683 C1685 1.444 . S
C1683 C1686 1.317 . S
C1683 H1706 0.929 . S
C1684 C1681 1.432 . S
C1684 C1682 1.417 . S
C1684 N1692 1.360 . S
C1685 C1681 1.414 . S
C1685 C1683 1.444 . S
C1685 C1690 1.385 . S
C1686 C1682 1.432 . S
C1686 C1683 1.317 . S
C1686 H1698 0.930 . S
C1687 C1689 1.392 . S
C1687 C1690 1.370 . S
C1687 H1699 0.931 . S
N1688 C1681 1.359 . S
N1688 C1689 1.327 . S
N1688 Tb1691 2.600 . S
C1689 C1687 1.392 . S
C1689 N1688 1.327 . S
C1689 H1696 0.930 . S
C1690 C1685 1.385 . S
C1690 C1687 1.370 . S
C1690 H1709 0.930 . S
Tb1691 N1688 2.600 . S
Tb1691 N1692 2.660 . S
Tb1691 O1725 2.362 . S
Tb1691 O1726 2.421 . S
Tb1691 O1730 2.546 . S
Tb1691 O1731 2.610 . S
Tb1691 O1733 2.320 . S
Tb1691 O1734 2.552 . S
Tb1691 O1735 2.413 . S
Tb1691 C1755 2.833 . S
N1692 C1684 1.360 . S
N1692 Tb1691 2.660 . S
N1692 C1693 1.305 . S
C1693 N1692 1.305 . S
C1693 C1695 1.407 . S
C1693 H1700 0.930 . S
C1694 C1682 1.410 . S
C1694 C1695 1.345 . S
C1694 H1702 0.930 . S
C1695 C1693 1.407 . S
C1695 C1694 1.345 . S
C1695 H1697 0.930 . S
H1696 C1689 0.930 . S
H1697 C1695 0.930 . S
H1698 C1686 0.930 . S
H1699 C1687 0.931 . S
H1700 C1693 0.930 . S
H1701 C1715 0.930 . S
H1702 C1694 0.930 . S
H1703 C1721 0.930 . S
H1704 C1712 0.930 . S
H1705 C1719 0.931 . S
H1706 C1683 0.929 . S
H1707 C1713 0.930 . S
H1708 C1746 0.930 . S
H1709 C1690 0.930 . S
H1710 C1745 0.929 . S
N1711 Tb1680 2.660 . S
N1711 C1712 1.305 . S
N1711 C1716 1.360 . S
C1712 H1704 0.930 . S
C1712 N1711 1.305 . S
C1712 C1715 1.407 . S
C1713 H1707 0.930 . S
C1713 C1714 1.410 . S
C1713 C1715 1.345 . S
C1714 C1713 1.410 . S
C1714 C1716 1.417 . S
C1714 C1746 1.432 . S
C1715 H1701 0.930 . S
C1715 C1712 1.407 . S
C1715 C1713 1.345 . S
C1716 N1711 1.360 . S
C1716 C1714 1.417 . S
C1716 C1720 1.432 . S
H1717 C1722 0.930 . S
N1718 Tb1680 2.600 . S
N1718 C1720 1.359 . S
N1718 C1721 1.327 . S
C1719 H1705 0.931 . S
C1719 C1721 1.392 . S
C1719 C1722 1.370 . S
C1720 C1716 1.432 . S
C1720 N1718 1.359 . S
C1720 C1723 1.414 . S
C1721 H1703 0.930 . S
C1721 N1718 1.327 . S
C1721 C1719 1.392 . S
C1722 H1717 0.930 . S
C1722 C1719 1.370 . S
C1722 C1723 1.385 . S
C1723 C1720 1.414 . S
C1723 C1722 1.385 . S
C1723 C1745 1.444 . S
O1724 Tb1680 2.546 . S
O1724 C1744 1.251 . S
O1725 Tb1680 2.610 . S
O1725 Tb1691 2.362 . S
O1725 C1736 1.283 . S
O1726 Tb1691 2.421 . S
O1726 C1743 1.262 . S
O1727 Tb1680 2.320 . S
O1727 C1743 1.260 . S
O1728 Tb1680 2.552 . S
O1728 C1736 1.243 . S
O1729 Tb1680 2.413 . S
O1729 C1744 1.256 . S
O1730 Tb1691 2.546 . S
O1730 C1755 1.251 . S
O1731 Tb1680 2.362 . S
O1731 Tb1691 2.610 . S
O1731 C1747 1.283 . S
O1732 Tb1680 2.421 . S
O1732 C1754 1.262 . S
O1733 Tb1691 2.320 . S
O1733 C1754 1.260 . S
O1734 Tb1691 2.552 . S
O1734 C1747 1.243 . S
O1735 Tb1691 2.413 . S
O1735 C1755 1.256 . S
C1736 O1725 1.283 . S
C1736 O1728 1.243 . S
C1737 C1739 1.382 . S
C1737 C1741 1.393 . S
C1737 C1744 1.500 . S
C1738 C1739 1.400 . S
C1738 C1740 1.384 . S
C1739 C1737 1.382 . S
C1739 C1738 1.400 . S
C1739 H1756 0.930 . S
C1740 C1738 1.384 . S
C1740 C1742 1.392 . S
C1740 H1757 0.931 . S
C1741 C1737 1.393 . S
C1741 C1742 1.401 . S
C1741 H1758 0.930 . S
C1742 C1740 1.392 . S
C1742 C1741 1.401 . S
C1742 H1759 0.930 . S
C1743 O1726 1.262 . S
C1743 O1727 1.260 . S
C1744 Tb1680 2.833 . S
C1744 O1724 1.251 . S
C1744 O1729 1.256 . S
C1744 C1737 1.500 . S
C1745 H1710 0.929 . S
C1745 C1723 1.444 . S
C1745 C1746 1.317 . S
C1746 H1708 0.930 . S
C1746 C1714 1.432 . S
C1746 C1745 1.317 . S
C1747 O1731 1.283 . S
C1747 O1734 1.243 . S
C1748 C1749 1.382 . S
C1748 C1752 1.393 . S
C1748 C1755 1.500 . S
C1749 C1748 1.382 . S
C1749 C1750 1.400 . S
C1749 H1760 0.930 . S
C1750 C1749 1.400 . S
C1750 C1751 1.384 . S
C1751 C1750 1.384 . S
C1751 C1753 1.392 . S
C1751 H1761 0.931 . S
C1752 C1748 1.393 . S
C1752 C1753 1.401 . S
C1752 H1762 0.930 . S
C1753 C1751 1.392 . S
C1753 C1752 1.401 . S
C1753 H1763 0.930 . S
C1754 O1732 1.262 . S
C1754 O1733 1.260 . S
C1755 Tb1691 2.833 . S
C1755 O1730 1.251 . S
C1755 O1735 1.256 . S
C1755 C1748 1.500 . S
H1756 C1739 0.930 . S
H1757 C1740 0.931 . S
H1758 C1741 0.930 . S
H1759 C1742 0.930 . S
H1760 C1749 0.930 . S
H1761 C1751 0.931 . S
H1762 C1752 0.930 . S
H1763 C1753 0.930 . S
Tb1764 N1795 2.660 . S
Tb1764 N1802 2.600 . S
Tb1764 O1808 2.546 . S
Tb1764 O1809 2.610 . S
Tb1764 O1811 2.320 . S
Tb1764 O1812 2.552 . S
Tb1764 O1813 2.413 . S
Tb1764 O1815 2.362 . S
Tb1764 O1816 2.421 . S
Tb1764 C1828 2.833 . S
C1765 C1768 1.432 . S
C1765 C1769 1.414 . S
C1765 N1772 1.359 . S
C1766 C1768 1.417 . S
C1766 C1770 1.432 . S
C1766 C1778 1.410 . S
C1767 C1769 1.444 . S
C1767 C1770 1.317 . S
C1767 H1790 0.929 . S
C1768 C1765 1.432 . S
C1768 C1766 1.417 . S
C1768 N1776 1.360 . S
C1769 C1765 1.414 . S
C1769 C1767 1.444 . S
C1769 C1774 1.385 . S
C1770 C1766 1.432 . S
C1770 C1767 1.317 . S
C1770 H1782 0.930 . S
C1771 C1773 1.392 . S
C1771 C1774 1.370 . S
C1771 H1783 0.931 . S
N1772 C1765 1.359 . S
N1772 C1773 1.327 . S
N1772 Tb1775 2.600 . S
C1773 C1771 1.392 . S
C1773 N1772 1.327 . S
C1773 H1780 0.930 . S
C1774 C1769 1.385 . S
C1774 C1771 1.370 . S
C1774 H1793 0.930 . S
Tb1775 N1772 2.600 . S
Tb1775 N1776 2.660 . S
Tb1775 O1809 2.362 . S
Tb1775 O1810 2.421 . S
Tb1775 O1814 2.546 1_556 S
Tb1775 O1815 2.610 . S
Tb1775 O1817 2.320 . S
Tb1775 O1818 2.552 1_556 S
Tb1775 O1819 2.413 1_556 S
Tb1775 C1839 2.833 1_556 S
N1776 C1768 1.360 . S
N1776 Tb1775 2.660 . S
N1776 C1777 1.305 . S
C1777 N1776 1.305 . S
C1777 C1779 1.407 . S
C1777 H1784 0.930 . S
C1778 C1766 1.410 . S
C1778 C1779 1.345 . S
C1778 H1786 0.930 . S
C1779 C1777 1.407 . S
C1779 C1778 1.345 . S
C1779 H1781 0.930 . S
H1780 C1773 0.930 . S
H1781 C1779 0.930 . S
H1782 C1770 0.930 . S
H1783 C1771 0.931 . S
H1784 C1777 0.930 . S
H1785 C1799 0.930 . S
H1786 C1778 0.930 . S
H1787 C1805 0.930 . S
H1788 C1796 0.930 . S
H1789 C1803 0.931 . S
H1790 C1767 0.929 . S
H1791 C1797 0.930 1_554 S
H1792 C1830 0.924 1_554 S
H1793 C1774 0.930 . S
H1794 C1829 0.929 . S
N1795 Tb1764 2.660 . S
N1795 C1796 1.305 . S
N1795 C1800 1.360 . S
C1796 H1788 0.930 . S
C1796 N1795 1.305 . S
C1796 C1799 1.407 . S
C1797 H1791 0.930 1_556 S
C1797 C1798 1.410 . S
C1797 C1799 1.345 . S
C1798 C1797 1.410 . S
C1798 C1800 1.417 . S
C1798 C1830 1.432 . S
C1799 H1785 0.930 . S
C1799 C1796 1.407 . S
C1799 C1797 1.345 . S
C1800 N1795 1.360 . S
C1800 C1798 1.417 . S
C1800 C1804 1.432 . S
H1801 C1806 0.930 . S
N1802 Tb1764 2.600 . S
N1802 C1804 1.359 . S
N1802 C1805 1.327 . S
C1803 H1789 0.931 . S
C1803 C1805 1.392 . S
C1803 C1806 1.370 . S
C1804 C1800 1.432 . S
C1804 N1802 1.359 . S
C1804 C1807 1.414 . S
C1805 H1787 0.930 . S
C1805 N1802 1.327 . S
C1805 C1803 1.392 . S
C1806 H1801 0.930 . S
C1806 C1803 1.370 . S
C1806 C1807 1.385 . S
C1807 C1804 1.414 . S
C1807 C1806 1.385 . S
C1807 C1829 1.444 . S
O1808 Tb1764 2.546 . S
O1808 C1828 1.251 . S
O1809 Tb1764 2.610 . S
O1809 Tb1775 2.362 . S
O1809 C1820 1.283 . S
O1810 Tb1775 2.421 . S
O1810 C1827 1.262 . S
O1811 Tb1764 2.320 . S
O1811 C1827 1.260 . S
O1812 Tb1764 2.552 . S
O1812 C1820 1.243 . S
O1813 Tb1764 2.413 . S
O1813 C1828 1.256 . S
O1814 Tb1775 2.546 1_554 S
O1814 C1839 1.251 . S
O1815 Tb1764 2.362 . S
O1815 Tb1775 2.610 . S
O1815 C1831 1.283 1_556 S
O1816 Tb1764 2.421 . S
O1816 C1838 1.262 . S
O1817 Tb1775 2.320 . S
O1817 C1838 1.260 . S
O1818 Tb1775 2.552 1_554 S
O1818 C1831 1.243 . S
O1819 Tb1775 2.413 1_554 S
O1819 C1839 1.256 . S
C1820 O1809 1.283 . S
C1820 O1812 1.243 . S
C1821 C1823 1.382 . S
C1821 C1825 1.393 . S
C1821 C1828 1.500 . S
C1822 C1823 1.400 . S
C1822 C1824 1.384 . S
C1823 C1821 1.382 . S
C1823 C1822 1.400 . S
C1823 H1840 0.930 . S
C1824 C1822 1.384 . S
C1824 C1826 1.392 . S
C1824 H1841 0.931 . S
C1825 C1821 1.393 . S
C1825 C1826 1.401 . S
C1825 H1842 0.930 . S
C1826 C1824 1.392 . S
C1826 C1825 1.401 . S
C1826 H1843 0.930 . S
C1827 O1810 1.262 . S
C1827 O1811 1.260 . S
C1828 Tb1764 2.833 . S
C1828 O1808 1.251 . S
C1828 O1813 1.256 . S
C1828 C1821 1.500 . S
C1829 H1794 0.929 . S
C1829 C1807 1.444 . S
C1829 C1830 1.317 . S
C1830 H1792 0.924 1_556 S
C1830 C1798 1.432 . S
C1830 C1829 1.317 . S
C1831 O1815 1.283 1_554 S
C1831 O1818 1.243 . S
C1832 C1833 1.382 . S
C1832 C1836 1.393 . S
C1832 C1839 1.500 . S
C1833 C1832 1.382 . S
C1833 C1834 1.400 . S
C1833 H1844 0.930 . S
C1834 C1833 1.400 . S
C1834 C1835 1.384 . S
C1835 C1834 1.384 . S
C1835 C1837 1.392 . S
C1835 H1845 0.931 . S
C1836 C1832 1.393 . S
C1836 C1837 1.401 . S
C1836 H1846 0.930 . S
C1837 C1835 1.392 . S
C1837 C1836 1.401 . S
C1837 H1847 0.930 . S
C1838 O1816 1.262 . S
C1838 O1817 1.260 . S
C1839 Tb1775 2.833 1_554 S
C1839 O1814 1.251 . S
C1839 O1819 1.256 . S
C1839 C1832 1.500 . S
H1840 C1823 0.930 . S
H1841 C1824 0.931 . S
H1842 C1825 0.930 . S
H1843 C1826 0.930 . S
H1844 C1833 0.930 . S
H1845 C1835 0.931 . S
H1846 C1836 0.930 . S
H1847 C1837 0.930 . S
Tb1848 N1879 2.660 . S
Tb1848 N1886 2.600 . S
Tb1848 O1892 2.546 . S
Tb1848 O1893 2.610 . S
Tb1848 O1895 2.320 . S
Tb1848 O1896 2.552 . S
Tb1848 O1897 2.413 . S
Tb1848 O1899 2.362 . S
Tb1848 O1900 2.421 . S
Tb1848 C1912 2.833 . S
C1849 C1852 1.432 . S
C1849 C1853 1.414 . S
C1849 N1856 1.359 . S
C1850 C1852 1.417 . S
C1850 C1854 1.432 . S
C1850 C1862 1.410 . S
C1851 C1853 1.444 . S
C1851 C1854 1.317 . S
C1851 H1874 0.929 . S
C1852 C1849 1.432 . S
C1852 C1850 1.417 . S
C1852 N1860 1.360 . S
C1853 C1849 1.414 . S
C1853 C1851 1.444 . S
C1853 C1858 1.385 . S
C1854 C1850 1.432 . S
C1854 C1851 1.317 . S
C1854 H1866 0.930 . S
C1855 C1857 1.392 . S
C1855 C1858 1.370 . S
C1855 H1867 0.931 . S
N1856 C1849 1.359 . S
N1856 C1857 1.327 . S
N1856 Tb1859 2.600 . S
C1857 C1855 1.392 . S
C1857 N1856 1.327 . S
C1857 H1864 0.930 . S
C1858 C1853 1.385 . S
C1858 C1855 1.370 . S
C1858 H1877 0.930 . S
Tb1859 N1856 2.600 . S
Tb1859 N1860 2.660 . S
Tb1859 O1893 2.362 . S
Tb1859 O1894 2.421 . S
Tb1859 O1898 2.546 1_556 S
Tb1859 O1899 2.610 . S
Tb1859 O1901 2.320 . S
Tb1859 O1902 2.552 1_556 S
Tb1859 O1903 2.413 1_556 S
Tb1859 C1923 2.833 1_556 S
N1860 C1852 1.360 . S
N1860 Tb1859 2.660 . S
N1860 C1861 1.305 . S
C1861 N1860 1.305 . S
C1861 C1863 1.407 . S
C1861 H1868 0.930 . S
C1862 C1850 1.410 . S
C1862 C1863 1.345 . S
C1862 H1870 0.930 . S
C1863 C1861 1.407 . S
C1863 C1862 1.345 . S
C1863 H1865 0.930 . S
H1864 C1857 0.930 . S
H1865 C1863 0.930 . S
H1866 C1854 0.930 . S
H1867 C1855 0.931 . S
H1868 C1861 0.930 . S
H1869 C1883 0.930 . S
H1870 C1862 0.930 . S
H1871 C1889 0.930 . S
H1872 C1880 0.930 . S
H1873 C1887 0.931 . S
H1874 C1851 0.929 . S
H1875 C1881 0.930 1_554 S
H1876 C1914 0.924 1_554 S
H1877 C1858 0.930 . S
H1878 C1913 0.929 . S
N1879 Tb1848 2.660 . S
N1879 C1880 1.305 . S
N1879 C1884 1.360 . S
C1880 H1872 0.930 . S
C1880 N1879 1.305 . S
C1880 C1883 1.407 . S
C1881 H1875 0.930 1_556 S
C1881 C1882 1.410 . S
C1881 C1883 1.345 . S
C1882 C1881 1.410 . S
C1882 C1884 1.417 . S
C1882 C1914 1.432 . S
C1883 H1869 0.930 . S
C1883 C1880 1.407 . S
C1883 C1881 1.345 . S
C1884 N1879 1.360 . S
C1884 C1882 1.417 . S
C1884 C1888 1.432 . S
H1885 C1890 0.930 . S
N1886 Tb1848 2.600 . S
N1886 C1888 1.359 . S
N1886 C1889 1.327 . S
C1887 H1873 0.931 . S
C1887 C1889 1.392 . S
C1887 C1890 1.370 . S
C1888 C1884 1.432 . S
C1888 N1886 1.359 . S
C1888 C1891 1.414 . S
C1889 H1871 0.930 . S
C1889 N1886 1.327 . S
C1889 C1887 1.392 . S
C1890 H1885 0.930 . S
C1890 C1887 1.370 . S
C1890 C1891 1.385 . S
C1891 C1888 1.414 . S
C1891 C1890 1.385 . S
C1891 C1913 1.444 . S
O1892 Tb1848 2.546 . S
O1892 C1912 1.251 . S
O1893 Tb1848 2.610 . S
O1893 Tb1859 2.362 . S
O1893 C1904 1.283 . S
O1894 Tb1859 2.421 . S
O1894 C1911 1.262 . S
O1895 Tb1848 2.320 . S
O1895 C1911 1.260 . S
O1896 Tb1848 2.552 . S
O1896 C1904 1.243 . S
O1897 Tb1848 2.413 . S
O1897 C1912 1.256 . S
O1898 Tb1859 2.546 1_554 S
O1898 C1923 1.251 . S
O1899 Tb1848 2.362 . S
O1899 Tb1859 2.610 . S
O1899 C1915 1.283 1_556 S
O1900 Tb1848 2.421 . S
O1900 C1922 1.262 . S
O1901 Tb1859 2.320 . S
O1901 C1922 1.260 . S
O1902 Tb1859 2.552 1_554 S
O1902 C1915 1.243 . S
O1903 Tb1859 2.413 1_554 S
O1903 C1923 1.256 . S
C1904 O1893 1.283 . S
C1904 O1896 1.243 . S
C1905 C1907 1.382 . S
C1905 C1909 1.393 . S
C1905 C1912 1.500 . S
C1906 C1907 1.400 . S
C1906 C1908 1.384 . S
C1907 C1905 1.382 . S
C1907 C1906 1.400 . S
C1907 H1924 0.930 . S
C1908 C1906 1.384 . S
C1908 C1910 1.392 . S
C1908 H1925 0.931 . S
C1909 C1905 1.393 . S
C1909 C1910 1.401 . S
C1909 H1926 0.930 . S
C1910 C1908 1.392 . S
C1910 C1909 1.401 . S
C1910 H1927 0.930 . S
C1911 O1894 1.262 . S
C1911 O1895 1.260 . S
C1912 Tb1848 2.833 . S
C1912 O1892 1.251 . S
C1912 O1897 1.256 . S
C1912 C1905 1.500 . S
C1913 H1878 0.929 . S
C1913 C1891 1.444 . S
C1913 C1914 1.317 . S
C1914 H1876 0.924 1_556 S
C1914 C1882 1.432 . S
C1914 C1913 1.317 . S
C1915 O1899 1.283 1_554 S
C1915 O1902 1.243 . S
C1916 C1917 1.382 . S
C1916 C1920 1.393 . S
C1916 C1923 1.500 . S
C1917 C1916 1.382 . S
C1917 C1918 1.400 . S
C1917 H1928 0.930 . S
C1918 C1917 1.400 . S
C1918 C1919 1.384 . S
C1919 C1918 1.384 . S
C1919 C1921 1.392 . S
C1919 H1929 0.931 . S
C1920 C1916 1.393 . S
C1920 C1921 1.401 . S
C1920 H1930 0.930 . S
C1921 C1919 1.392 . S
C1921 C1920 1.401 . S
C1921 H1931 0.930 . S
C1922 O1900 1.262 . S
C1922 O1901 1.260 . S
C1923 Tb1859 2.833 1_554 S
C1923 O1898 1.251 . S
C1923 O1903 1.256 . S
C1923 C1916 1.500 . S
H1924 C1907 0.930 . S
H1925 C1908 0.931 . S
H1926 C1909 0.930 . S
H1927 C1910 0.930 . S
H1928 C1917 0.930 . S
H1929 C1919 0.931 . S
H1930 C1920 0.930 . S
H1931 C1921 0.930 . S
Tb1932 N1963 2.660 . S
Tb1932 N1970 2.600 . S
Tb1932 O1976 2.546 . S
Tb1932 O1977 2.610 . S
Tb1932 O1979 2.320 . S
Tb1932 O1980 2.552 . S
Tb1932 O1981 2.413 . S
Tb1932 O1983 2.362 . S
Tb1932 O1984 2.421 . S
Tb1932 C1996 2.833 . S
C1933 C1936 1.432 . S
C1933 C1937 1.414 . S
C1933 N1940 1.359 . S
C1934 C1936 1.417 . S
C1934 C1938 1.432 . S
C1934 C1946 1.410 . S
C1935 C1937 1.444 . S
C1935 C1938 1.317 . S
C1935 H1958 0.929 . S
C1936 C1933 1.432 . S
C1936 C1934 1.417 . S
C1936 N1944 1.360 . S
C1937 C1933 1.414 . S
C1937 C1935 1.444 . S
C1937 C1942 1.385 . S
C1938 C1934 1.432 . S
C1938 C1935 1.317 . S
C1938 H1950 0.930 . S
C1939 C1941 1.392 . S
C1939 C1942 1.370 . S
C1939 H1951 0.931 . S
N1940 C1933 1.359 . S
N1940 C1941 1.327 . S
N1940 Tb1943 2.600 . S
C1941 C1939 1.392 . S
C1941 N1940 1.327 . S
C1941 H1948 0.930 . S
C1942 C1937 1.385 . S
C1942 C1939 1.370 . S
C1942 H1961 0.930 . S
Tb1943 N1940 2.600 . S
Tb1943 N1944 2.660 . S
Tb1943 O1977 2.362 . S
Tb1943 O1978 2.421 . S
Tb1943 O1982 2.546 1_556 S
Tb1943 O1983 2.610 . S
Tb1943 O1985 2.320 . S
Tb1943 O1986 2.552 1_556 S
Tb1943 O1987 2.413 1_556 S
Tb1943 C2007 2.833 1_556 S
N1944 C1936 1.360 . S
N1944 Tb1943 2.660 . S
N1944 C1945 1.305 . S
C1945 N1944 1.305 . S
C1945 C1947 1.407 . S
C1945 H1952 0.930 . S
C1946 C1934 1.410 . S
C1946 C1947 1.345 . S
C1946 H1954 0.930 . S
C1947 C1945 1.407 . S
C1947 C1946 1.345 . S
C1947 H1949 0.930 . S
H1948 C1941 0.930 . S
H1949 C1947 0.930 . S
H1950 C1938 0.930 . S
H1951 C1939 0.931 . S
H1952 C1945 0.930 . S
H1953 C1967 0.930 . S
H1954 C1946 0.930 . S
H1955 C1973 0.930 . S
H1956 C1964 0.930 . S
H1957 C1971 0.931 . S
H1958 C1935 0.929 . S
H1959 C1965 0.930 1_554 S
H1960 C1998 0.923 1_554 S
H1961 C1942 0.930 . S
H1962 C1997 0.929 . S
N1963 Tb1932 2.660 . S
N1963 C1964 1.305 . S
N1963 C1968 1.360 . S
C1964 H1956 0.930 . S
C1964 N1963 1.305 . S
C1964 C1967 1.407 . S
C1965 H1959 0.930 1_556 S
C1965 C1966 1.410 . S
C1965 C1967 1.345 . S
C1966 C1965 1.410 . S
C1966 C1968 1.417 . S
C1966 C1998 1.432 . S
C1967 H1953 0.930 . S
C1967 C1964 1.407 . S
C1967 C1965 1.345 . S
C1968 N1963 1.360 . S
C1968 C1966 1.417 . S
C1968 C1972 1.432 . S
H1969 C1974 0.930 . S
N1970 Tb1932 2.600 . S
N1970 C1972 1.359 . S
N1970 C1973 1.327 . S
C1971 H1957 0.931 . S
C1971 C1973 1.392 . S
C1971 C1974 1.370 . S
C1972 C1968 1.432 . S
C1972 N1970 1.359 . S
C1972 C1975 1.414 . S
C1973 H1955 0.930 . S
C1973 N1970 1.327 . S
C1973 C1971 1.392 . S
C1974 H1969 0.930 . S
C1974 C1971 1.370 . S
C1974 C1975 1.385 . S
C1975 C1972 1.414 . S
C1975 C1974 1.385 . S
C1975 C1997 1.444 . S
O1976 Tb1932 2.546 . S
O1976 C1996 1.251 . S
O1977 Tb1932 2.610 . S
O1977 Tb1943 2.362 . S
O1977 C1988 1.283 . S
O1978 Tb1943 2.421 . S
O1978 C1995 1.262 . S
O1979 Tb1932 2.320 . S
O1979 C1995 1.260 . S
O1980 Tb1932 2.552 . S
O1980 C1988 1.243 . S
O1981 Tb1932 2.413 . S
O1981 C1996 1.256 . S
O1982 Tb1943 2.546 1_554 S
O1982 C2007 1.251 . S
O1983 Tb1932 2.362 . S
O1983 Tb1943 2.610 . S
O1983 C1999 1.283 1_556 S
O1984 Tb1932 2.421 . S
O1984 C2006 1.262 . S
O1985 Tb1943 2.320 . S
O1985 C2006 1.260 . S
O1986 Tb1943 2.552 1_554 S
O1986 C1999 1.243 . S
O1987 Tb1943 2.413 1_554 S
O1987 C2007 1.256 . S
C1988 O1977 1.283 . S
C1988 O1980 1.243 . S
C1989 C1991 1.382 . S
C1989 C1993 1.393 . S
C1989 C1996 1.500 . S
C1990 C1991 1.400 . S
C1990 C1992 1.384 . S
C1991 C1989 1.382 . S
C1991 C1990 1.400 . S
C1991 H2008 0.930 . S
C1992 C1990 1.384 . S
C1992 C1994 1.392 . S
C1992 H2009 0.931 . S
C1993 C1989 1.393 . S
C1993 C1994 1.401 . S
C1993 H2010 0.930 . S
C1994 C1992 1.392 . S
C1994 C1993 1.401 . S
C1994 H2011 0.930 . S
C1995 O1978 1.262 . S
C1995 O1979 1.260 . S
C1996 Tb1932 2.833 . S
C1996 O1976 1.251 . S
C1996 O1981 1.256 . S
C1996 C1989 1.500 . S
C1997 H1962 0.929 . S
C1997 C1975 1.444 . S
C1997 C1998 1.317 . S
C1998 H1960 0.923 1_556 S
C1998 C1966 1.432 . S
C1998 C1997 1.317 . S
C1999 O1983 1.283 1_554 S
C1999 O1986 1.243 . S
C2000 C2001 1.382 . S
C2000 C2004 1.393 . S
C2000 C2007 1.500 . S
C2001 C2000 1.382 . S
C2001 C2002 1.400 . S
C2001 H2012 0.930 . S
C2002 C2001 1.400 . S
C2002 C2003 1.384 . S
C2003 C2002 1.384 . S
C2003 C2005 1.392 . S
C2003 H2013 0.931 . S
C2004 C2000 1.393 . S
C2004 C2005 1.401 . S
C2004 H2014 0.930 . S
C2005 C2003 1.392 . S
C2005 C2004 1.401 . S
C2005 H2015 0.930 . S
C2006 O1984 1.262 . S
C2006 O1985 1.260 . S
C2007 Tb1943 2.833 1_554 S
C2007 O1982 1.251 . S
C2007 O1987 1.256 . S
C2007 C2000 1.500 . S
H2008 C1991 0.930 . S
H2009 C1992 0.931 . S
H2010 C1993 0.930 . S
H2011 C1994 0.930 . S
H2012 C2001 0.930 . S
H2013 C2003 0.931 . S
H2014 C2004 0.930 . S
H2015 C2005 0.930 . S
Tb2016 N2047 2.660 . S
Tb2016 N2054 2.600 . S
Tb2016 O2060 2.546 . S
Tb2016 O2061 2.610 . S
Tb2016 O2063 2.320 . S
Tb2016 O2064 2.552 . S
Tb2016 O2065 2.413 . S
Tb2016 O2067 2.362 . S
Tb2016 O2068 2.421 . S
Tb2016 C2080 2.833 . S
C2017 C2020 1.432 . S
C2017 C2021 1.414 . S
C2017 N2024 1.359 . S
C2018 C2020 1.417 . S
C2018 C2022 1.432 . S
C2018 C2030 1.410 . S
C2019 C2021 1.444 . S
C2019 C2022 1.317 . S
C2019 H2042 0.929 . S
C2020 C2017 1.432 . S
C2020 C2018 1.417 . S
C2020 N2028 1.360 . S
C2021 C2017 1.414 . S
C2021 C2019 1.444 . S
C2021 C2026 1.385 . S
C2022 C2018 1.432 . S
C2022 C2019 1.317 . S
C2022 H2034 0.930 . S
C2023 C2025 1.392 . S
C2023 C2026 1.370 . S
C2023 H2035 0.931 . S
N2024 C2017 1.359 . S
N2024 C2025 1.327 . S
N2024 Tb2027 2.600 . S
C2025 C2023 1.392 . S
C2025 N2024 1.327 . S
C2025 H2032 0.930 . S
C2026 C2021 1.385 . S
C2026 C2023 1.370 . S
C2026 H2045 0.930 . S
Tb2027 N2024 2.600 . S
Tb2027 N2028 2.660 . S
Tb2027 O2061 2.362 . S
Tb2027 O2062 2.421 . S
Tb2027 O2066 2.546 . S
Tb2027 O2067 2.610 . S
Tb2027 O2069 2.320 . S
Tb2027 O2070 2.552 . S
Tb2027 O2071 2.413 . S
Tb2027 C2091 2.833 . S
N2028 C2020 1.360 . S
N2028 Tb2027 2.660 . S
N2028 C2029 1.305 . S
C2029 N2028 1.305 . S
C2029 C2031 1.407 . S
C2029 H2036 0.930 . S
C2030 C2018 1.410 . S
C2030 C2031 1.345 . S
C2030 H2038 0.930 . S
C2031 C2029 1.407 . S
C2031 C2030 1.345 . S
C2031 H2033 0.930 . S
H2032 C2025 0.930 . S
H2033 C2031 0.930 . S
H2034 C2022 0.930 . S
H2035 C2023 0.931 . S
H2036 C2029 0.930 . S
H2037 C2051 0.930 . S
H2038 C2030 0.930 . S
H2039 C2057 0.930 . S
H2040 C2048 0.930 . S
H2041 C2055 0.931 . S
H2042 C2019 0.929 . S
H2043 C2049 0.930 . S
H2044 C2082 0.930 . S
H2045 C2026 0.930 . S
H2046 C2081 0.929 . S
N2047 Tb2016 2.660 . S
N2047 C2048 1.305 . S
N2047 C2052 1.360 . S
C2048 H2040 0.930 . S
C2048 N2047 1.305 . S
C2048 C2051 1.407 . S
C2049 H2043 0.930 . S
C2049 C2050 1.410 . S
C2049 C2051 1.345 . S
C2050 C2049 1.410 . S
C2050 C2052 1.417 . S
C2050 C2082 1.432 . S
C2051 H2037 0.930 . S
C2051 C2048 1.407 . S
C2051 C2049 1.345 . S
C2052 N2047 1.360 . S
C2052 C2050 1.417 . S
C2052 C2056 1.432 . S
H2053 C2058 0.930 . S
N2054 Tb2016 2.600 . S
N2054 C2056 1.359 . S
N2054 C2057 1.327 . S
C2055 H2041 0.931 . S
C2055 C2057 1.392 . S
C2055 C2058 1.370 . S
C2056 C2052 1.432 . S
C2056 N2054 1.359 . S
C2056 C2059 1.414 . S
C2057 H2039 0.930 . S
C2057 N2054 1.327 . S
C2057 C2055 1.392 . S
C2058 H2053 0.930 . S
C2058 C2055 1.370 . S
C2058 C2059 1.385 . S
C2059 C2056 1.414 . S
C2059 C2058 1.385 . S
C2059 C2081 1.444 . S
O2060 Tb2016 2.546 . S
O2060 C2080 1.251 . S
O2061 Tb2016 2.610 . S
O2061 Tb2027 2.362 . S
O2061 C2072 1.283 . S
O2062 Tb2027 2.421 . S
O2062 C2079 1.262 . S
O2063 Tb2016 2.320 . S
O2063 C2079 1.260 . S
O2064 Tb2016 2.552 . S
O2064 C2072 1.243 . S
O2065 Tb2016 2.413 . S
O2065 C2080 1.256 . S
O2066 Tb2027 2.546 . S
O2066 C2091 1.251 . S
O2067 Tb2016 2.362 . S
O2067 Tb2027 2.610 . S
O2067 C2083 1.283 . S
O2068 Tb2016 2.421 . S
O2068 C2090 1.262 . S
O2069 Tb2027 2.320 . S
O2069 C2090 1.260 . S
O2070 Tb2027 2.552 . S
O2070 C2083 1.243 . S
O2071 Tb2027 2.413 . S
O2071 C2091 1.256 . S
C2072 O2061 1.283 . S
C2072 O2064 1.243 . S
C2073 C2075 1.382 . S
C2073 C2077 1.393 . S
C2073 C2080 1.500 . S
C2074 C2075 1.400 . S
C2074 C2076 1.384 . S
C2075 C2073 1.382 . S
C2075 C2074 1.400 . S
C2075 H2092 0.930 . S
C2076 C2074 1.384 . S
C2076 C2078 1.392 . S
C2076 H2093 0.931 1_556 S
C2077 C2073 1.393 . S
C2077 C2078 1.401 . S
C2077 H2094 0.930 . S
C2078 C2076 1.392 . S
C2078 C2077 1.401 . S
C2078 H2095 0.930 . S
C2079 O2062 1.262 . S
C2079 O2063 1.260 . S
C2080 Tb2016 2.833 . S
C2080 O2060 1.251 . S
C2080 O2065 1.256 . S
C2080 C2073 1.500 . S
C2081 H2046 0.929 . S
C2081 C2059 1.444 . S
C2081 C2082 1.317 . S
C2082 H2044 0.930 . S
C2082 C2050 1.432 . S
C2082 C2081 1.317 . S
C2083 O2067 1.283 . S
C2083 O2070 1.243 . S
C2084 C2085 1.382 . S
C2084 C2088 1.393 . S
C2084 C2091 1.500 . S
C2085 C2084 1.382 . S
C2085 C2086 1.400 . S
C2085 H2096 0.930 . S
C2086 C2085 1.400 . S
C2086 C2087 1.384 . S
C2087 C2086 1.384 . S
C2087 C2089 1.392 . S
C2087 H2097 0.931 . S
C2088 C2084 1.393 . S
C2088 C2089 1.401 . S
C2088 H2098 0.930 . S
C2089 C2087 1.392 . S
C2089 C2088 1.401 . S
C2089 H2099 0.930 . S
C2090 O2068 1.262 . S
C2090 O2069 1.260 . S
C2091 Tb2027 2.833 . S
C2091 O2066 1.251 . S
C2091 O2071 1.256 . S
C2091 C2084 1.500 . S
H2092 C2075 0.930 . S
H2093 C2076 0.931 1_554 S
H2094 C2077 0.930 . S
H2095 C2078 0.930 . S
H2096 C2085 0.930 . S
H2097 C2087 0.931 . S
H2098 C2088 0.930 . S
H2099 C2089 0.930 . S
Tb2100 N2131 2.660 . S
Tb2100 N2138 2.600 . S
Tb2100 O2144 2.546 . S
Tb2100 O2145 2.610 . S
Tb2100 O2147 2.320 . S
Tb2100 O2148 2.552 . S
Tb2100 O2149 2.413 . S
Tb2100 O2151 2.362 . S
Tb2100 O2152 2.421 . S
Tb2100 C2164 2.833 . S
C2101 C2104 1.432 . S
C2101 C2105 1.414 . S
C2101 N2108 1.359 . S
C2102 C2104 1.417 . S
C2102 C2106 1.432 . S
C2102 C2114 1.410 . S
C2103 C2105 1.444 . S
C2103 C2106 1.317 . S
C2103 H2126 0.929 . S
C2104 C2101 1.432 . S
C2104 C2102 1.417 . S
C2104 N2112 1.360 . S
C2105 C2101 1.414 . S
C2105 C2103 1.444 . S
C2105 C2110 1.385 . S
C2106 C2102 1.432 . S
C2106 C2103 1.317 . S
C2106 H2118 0.930 . S
C2107 C2109 1.392 . S
C2107 C2110 1.370 . S
C2107 H2119 0.931 . S
N2108 C2101 1.359 . S
N2108 C2109 1.327 . S
N2108 Tb2111 2.600 . S
C2109 C2107 1.392 . S
C2109 N2108 1.327 . S
C2109 H2116 0.930 . S
C2110 C2105 1.385 . S
C2110 C2107 1.370 . S
C2110 H2129 0.930 . S
Tb2111 N2108 2.600 . S
Tb2111 N2112 2.660 . S
Tb2111 O2145 2.362 . S
Tb2111 O2146 2.421 . S
Tb2111 O2150 2.546 . S
Tb2111 O2151 2.610 . S
Tb2111 O2153 2.320 . S
Tb2111 O2154 2.552 . S
Tb2111 O2155 2.413 . S
Tb2111 C2175 2.833 . S
N2112 C2104 1.360 . S
N2112 Tb2111 2.660 . S
N2112 C2113 1.305 . S
C2113 N2112 1.305 . S
C2113 C2115 1.407 . S
C2113 H2120 0.930 . S
C2114 C2102 1.410 . S
C2114 C2115 1.345 . S
C2114 H2122 0.930 . S
C2115 C2113 1.407 . S
C2115 C2114 1.345 . S
C2115 H2117 0.930 . S
H2116 C2109 0.930 . S
H2117 C2115 0.930 . S
H2118 C2106 0.930 . S
H2119 C2107 0.931 . S
H2120 C2113 0.930 . S
H2121 C2135 0.930 . S
H2122 C2114 0.930 . S
H2123 C2141 0.930 . S
H2124 C2132 0.930 . S
H2125 C2139 0.931 . S
H2126 C2103 0.929 . S
H2127 C2133 0.930 . S
H2128 C2166 0.930 . S
H2129 C2110 0.930 . S
H2130 C2165 0.929 . S
N2131 Tb2100 2.660 . S
N2131 C2132 1.305 . S
N2131 C2136 1.360 . S
C2132 H2124 0.930 . S
C2132 N2131 1.305 . S
C2132 C2135 1.407 . S
C2133 H2127 0.930 . S
C2133 C2134 1.410 . S
C2133 C2135 1.345 . S
C2134 C2133 1.410 . S
C2134 C2136 1.417 . S
C2134 C2166 1.432 . S
C2135 H2121 0.930 . S
C2135 C2132 1.407 . S
C2135 C2133 1.345 . S
C2136 N2131 1.360 . S
C2136 C2134 1.417 . S
C2136 C2140 1.432 . S
H2137 C2142 0.930 . S
N2138 Tb2100 2.600 . S
N2138 C2140 1.359 . S
N2138 C2141 1.327 . S
C2139 H2125 0.931 . S
C2139 C2141 1.392 . S
C2139 C2142 1.370 . S
C2140 C2136 1.432 . S
C2140 N2138 1.359 . S
C2140 C2143 1.414 . S
C2141 H2123 0.930 . S
C2141 N2138 1.327 . S
C2141 C2139 1.392 . S
C2142 H2137 0.930 . S
C2142 C2139 1.370 . S
C2142 C2143 1.385 . S
C2143 C2140 1.414 . S
C2143 C2142 1.385 . S
C2143 C2165 1.444 . S
O2144 Tb2100 2.546 . S
O2144 C2164 1.251 . S
O2145 Tb2100 2.610 . S
O2145 Tb2111 2.362 . S
O2145 C2156 1.283 . S
O2146 Tb2111 2.421 . S
O2146 C2163 1.262 . S
O2147 Tb2100 2.320 . S
O2147 C2163 1.260 . S
O2148 Tb2100 2.552 . S
O2148 C2156 1.243 . S
O2149 Tb2100 2.413 . S
O2149 C2164 1.256 . S
O2150 Tb2111 2.546 . S
O2150 C2175 1.251 . S
O2151 Tb2100 2.362 . S
O2151 Tb2111 2.610 . S
O2151 C2167 1.283 . S
O2152 Tb2100 2.421 . S
O2152 C2174 1.262 . S
O2153 Tb2111 2.320 . S
O2153 C2174 1.260 . S
O2154 Tb2111 2.552 . S
O2154 C2167 1.243 . S
O2155 Tb2111 2.413 . S
O2155 C2175 1.256 . S
C2156 O2145 1.283 . S
C2156 O2148 1.243 . S
C2157 C2159 1.382 . S
C2157 C2161 1.393 . S
C2157 C2164 1.500 . S
C2158 C2159 1.400 . S
C2158 C2160 1.384 . S
C2159 C2157 1.382 . S
C2159 C2158 1.400 . S
C2159 H2176 0.930 . S
C2160 C2158 1.384 . S
C2160 C2162 1.392 . S
C2160 H2177 0.931 1_556 S
C2161 C2157 1.393 . S
C2161 C2162 1.401 . S
C2161 H2178 0.930 . S
C2162 C2160 1.392 . S
C2162 C2161 1.401 . S
C2162 H2179 0.930 . S
C2163 O2146 1.262 . S
C2163 O2147 1.260 . S
C2164 Tb2100 2.833 . S
C2164 O2144 1.251 . S
C2164 O2149 1.256 . S
C2164 C2157 1.500 . S
C2165 H2130 0.929 . S
C2165 C2143 1.444 . S
C2165 C2166 1.317 . S
C2166 H2128 0.930 . S
C2166 C2134 1.432 . S
C2166 C2165 1.317 . S
C2167 O2151 1.283 . S
C2167 O2154 1.243 . S
C2168 C2169 1.382 . S
C2168 C2172 1.393 . S
C2168 C2175 1.500 . S
C2169 C2168 1.382 . S
C2169 C2170 1.400 . S
C2169 H2180 0.930 . S
C2170 C2169 1.400 . S
C2170 C2171 1.384 . S
C2171 C2170 1.384 . S
C2171 C2173 1.392 . S
C2171 H2181 0.931 . S
C2172 C2168 1.393 . S
C2172 C2173 1.401 . S
C2172 H2182 0.930 . S
C2173 C2171 1.392 . S
C2173 C2172 1.401 . S
C2173 H2183 0.930 . S
C2174 O2152 1.262 . S
C2174 O2153 1.260 . S
C2175 Tb2111 2.833 . S
C2175 O2150 1.251 . S
C2175 O2155 1.256 . S
C2175 C2168 1.500 . S
H2176 C2159 0.930 . S
H2177 C2160 0.931 1_554 S
H2178 C2161 0.930 . S
H2179 C2162 0.930 . S
H2180 C2169 0.930 . S
H2181 C2171 0.931 . S
H2182 C2172 0.930 . S
H2183 C2173 0.930 . S
Tb2184 N2215 2.660 . S
Tb2184 N2222 2.600 . S
Tb2184 O2228 2.546 . S
Tb2184 O2229 2.610 . S
Tb2184 O2231 2.320 . S
Tb2184 O2232 2.552 . S
Tb2184 O2233 2.413 . S
Tb2184 O2235 2.362 . S
Tb2184 O2236 2.421 . S
Tb2184 C2248 2.833 . S
C2185 C2188 1.432 . S
C2185 C2189 1.414 . S
C2185 N2192 1.359 . S
C2186 C2188 1.417 . S
C2186 C2190 1.432 . S
C2186 C2198 1.410 . S
C2187 C2189 1.444 . S
C2187 C2190 1.317 . S
C2187 H2210 0.929 . S
C2188 C2185 1.432 . S
C2188 C2186 1.417 . S
C2188 N2196 1.360 . S
C2189 C2185 1.414 . S
C2189 C2187 1.444 . S
C2189 C2194 1.385 . S
C2190 C2186 1.432 . S
C2190 C2187 1.317 . S
C2190 H2202 0.930 . S
C2191 C2193 1.392 . S
C2191 C2194 1.370 . S
C2191 H2203 0.931 . S
N2192 C2185 1.359 . S
N2192 C2193 1.327 . S
N2192 Tb2195 2.600 . S
C2193 C2191 1.392 . S
C2193 N2192 1.327 . S
C2193 H2200 0.930 . S
C2194 C2189 1.385 . S
C2194 C2191 1.370 . S
C2194 H2213 0.930 . S
Tb2195 N2192 2.600 . S
Tb2195 N2196 2.660 . S
Tb2195 O2229 2.362 . S
Tb2195 O2230 2.421 . S
Tb2195 O2234 2.546 . S
Tb2195 O2235 2.610 . S
Tb2195 O2237 2.320 . S
Tb2195 O2238 2.552 . S
Tb2195 O2239 2.413 . S
Tb2195 C2259 2.833 . S
N2196 C2188 1.360 . S
N2196 Tb2195 2.660 . S
N2196 C2197 1.305 . S
C2197 N2196 1.305 . S
C2197 C2199 1.407 . S
C2197 H2204 0.930 . S
C2198 C2186 1.410 . S
C2198 C2199 1.345 . S
C2198 H2206 0.930 . S
C2199 C2197 1.407 . S
C2199 C2198 1.345 . S
C2199 H2201 0.930 . S
H2200 C2193 0.930 . S
H2201 C2199 0.930 . S
H2202 C2190 0.930 . S
H2203 C2191 0.931 . S
H2204 C2197 0.930 . S
H2205 C2219 0.930 . S
H2206 C2198 0.930 . S
H2207 C2225 0.930 . S
H2208 C2216 0.930 . S
H2209 C2223 0.931 . S
H2210 C2187 0.929 . S
H2211 C2217 0.930 . S
H2212 C2250 0.930 . S
H2213 C2194 0.930 . S
H2214 C2249 0.929 . S
N2215 Tb2184 2.660 . S
N2215 C2216 1.305 . S
N2215 C2220 1.360 . S
C2216 H2208 0.930 . S
C2216 N2215 1.305 . S
C2216 C2219 1.407 . S
C2217 H2211 0.930 . S
C2217 C2218 1.410 . S
C2217 C2219 1.345 . S
C2218 C2217 1.410 . S
C2218 C2220 1.417 . S
C2218 C2250 1.432 . S
C2219 H2205 0.930 . S
C2219 C2216 1.407 . S
C2219 C2217 1.345 . S
C2220 N2215 1.360 . S
C2220 C2218 1.417 . S
C2220 C2224 1.432 . S
H2221 C2226 0.930 . S
N2222 Tb2184 2.600 . S
N2222 C2224 1.359 . S
N2222 C2225 1.327 . S
C2223 H2209 0.931 . S
C2223 C2225 1.392 . S
C2223 C2226 1.370 . S
C2224 C2220 1.432 . S
C2224 N2222 1.359 . S
C2224 C2227 1.414 . S
C2225 H2207 0.930 . S
C2225 N2222 1.327 . S
C2225 C2223 1.392 . S
C2226 H2221 0.930 . S
C2226 C2223 1.370 . S
C2226 C2227 1.385 . S
C2227 C2224 1.414 . S
C2227 C2226 1.385 . S
C2227 C2249 1.444 . S
O2228 Tb2184 2.546 . S
O2228 C2248 1.251 . S
O2229 Tb2184 2.610 . S
O2229 Tb2195 2.362 . S
O2229 C2240 1.283 . S
O2230 Tb2195 2.421 . S
O2230 C2247 1.262 . S
O2231 Tb2184 2.320 . S
O2231 C2247 1.260 . S
O2232 Tb2184 2.552 . S
O2232 C2240 1.243 . S
O2233 Tb2184 2.413 . S
O2233 C2248 1.256 . S
O2234 Tb2195 2.546 . S
O2234 C2259 1.251 . S
O2235 Tb2184 2.362 . S
O2235 Tb2195 2.610 . S
O2235 C2251 1.283 . S
O2236 Tb2184 2.421 . S
O2236 C2258 1.262 . S
O2237 Tb2195 2.320 . S
O2237 C2258 1.260 . S
O2238 Tb2195 2.552 . S
O2238 C2251 1.243 . S
O2239 Tb2195 2.413 . S
O2239 C2259 1.256 . S
C2240 O2229 1.283 . S
C2240 O2232 1.243 . S
C2241 C2243 1.382 . S
C2241 C2245 1.393 . S
C2241 C2248 1.500 . S
C2242 C2243 1.400 . S
C2242 C2244 1.384 . S
C2243 C2241 1.382 . S
C2243 C2242 1.400 . S
C2243 H2260 0.930 . S
C2244 C2242 1.384 . S
C2244 C2246 1.392 . S
C2244 H2261 0.931 1_556 S
C2245 C2241 1.393 . S
C2245 C2246 1.401 . S
C2245 H2262 0.930 . S
C2246 C2244 1.392 . S
C2246 C2245 1.401 . S
C2246 H2263 0.930 . S
C2247 O2230 1.262 . S
C2247 O2231 1.260 . S
C2248 Tb2184 2.833 . S
C2248 O2228 1.251 . S
C2248 O2233 1.256 . S
C2248 C2241 1.500 . S
C2249 H2214 0.929 . S
C2249 C2227 1.444 . S
C2249 C2250 1.317 . S
C2250 H2212 0.930 . S
C2250 C2218 1.432 . S
C2250 C2249 1.317 . S
C2251 O2235 1.283 . S
C2251 O2238 1.243 . S
C2252 C2253 1.382 . S
C2252 C2256 1.393 . S
C2252 C2259 1.500 . S
C2253 C2252 1.382 . S
C2253 C2254 1.400 . S
C2253 H2264 0.930 . S
C2254 C2253 1.400 . S
C2254 C2255 1.384 . S
C2255 C2254 1.384 . S
C2255 C2257 1.392 . S
C2255 H2265 0.931 . S
C2256 C2252 1.393 . S
C2256 C2257 1.401 . S
C2256 H2266 0.930 . S
C2257 C2255 1.392 . S
C2257 C2256 1.401 . S
C2257 H2267 0.930 . S
C2258 O2236 1.262 . S
C2258 O2237 1.260 . S
C2259 Tb2195 2.833 . S
C2259 O2234 1.251 . S
C2259 O2239 1.256 . S
C2259 C2252 1.500 . S
H2260 C2243 0.930 . S
H2261 C2244 0.931 1_554 S
H2262 C2245 0.930 . S
H2263 C2246 0.930 . S
H2264 C2253 0.930 . S
H2265 C2255 0.931 . S
H2266 C2256 0.930 . S
H2267 C2257 0.930 . S
Tb2268 N2299 2.660 . S
Tb2268 N2306 2.600 . S
Tb2268 O2312 2.546 . S
Tb2268 O2313 2.610 . S
Tb2268 O2315 2.320 . S
Tb2268 O2316 2.552 . S
Tb2268 O2317 2.413 . S
Tb2268 O2319 2.362 . S
Tb2268 O2320 2.421 . S
Tb2268 C2332 2.833 . S
C2269 C2272 1.432 . S
C2269 C2273 1.414 . S
C2269 N2276 1.359 . S
C2270 C2272 1.417 . S
C2270 C2274 1.432 . S
C2270 C2282 1.410 . S
C2271 C2273 1.444 . S
C2271 C2274 1.317 . S
C2271 H2294 0.929 . S
C2272 C2269 1.432 . S
C2272 C2270 1.417 . S
C2272 N2280 1.360 . S
C2273 C2269 1.414 . S
C2273 C2271 1.444 . S
C2273 C2278 1.385 . S
C2274 C2270 1.432 . S
C2274 C2271 1.317 . S
C2274 H2286 0.930 . S
C2275 C2277 1.392 . S
C2275 C2278 1.370 . S
C2275 H2287 0.931 . S
N2276 C2269 1.359 . S
N2276 C2277 1.327 . S
N2276 Tb2279 2.600 . S
C2277 C2275 1.392 . S
C2277 N2276 1.327 . S
C2277 H2284 0.930 . S
C2278 C2273 1.385 . S
C2278 C2275 1.370 . S
C2278 H2297 0.930 . S
Tb2279 N2276 2.600 . S
Tb2279 N2280 2.660 . S
Tb2279 O2313 2.362 . S
Tb2279 O2314 2.421 . S
Tb2279 O2318 2.546 . S
Tb2279 O2319 2.610 . S
Tb2279 O2321 2.320 . S
Tb2279 O2322 2.552 . S
Tb2279 O2323 2.413 . S
Tb2279 C2343 2.833 . S
N2280 C2272 1.360 . S
N2280 Tb2279 2.660 . S
N2280 C2281 1.305 . S
C2281 N2280 1.305 . S
C2281 C2283 1.407 . S
C2281 H2288 0.930 . S
C2282 C2270 1.410 . S
C2282 C2283 1.345 . S
C2282 H2290 0.930 . S
C2283 C2281 1.407 . S
C2283 C2282 1.345 . S
C2283 H2285 0.930 . S
H2284 C2277 0.930 . S
H2285 C2283 0.930 . S
H2286 C2274 0.930 . S
H2287 C2275 0.931 . S
H2288 C2281 0.930 . S
H2289 C2303 0.930 . S
H2290 C2282 0.930 . S
H2291 C2309 0.930 . S
H2292 C2300 0.930 . S
H2293 C2307 0.931 . S
H2294 C2271 0.929 . S
H2295 C2301 0.930 . S
H2296 C2334 0.930 . S
H2297 C2278 0.930 . S
H2298 C2333 0.929 . S
N2299 Tb2268 2.660 . S
N2299 C2300 1.305 . S
N2299 C2304 1.360 . S
C2300 H2292 0.930 . S
C2300 N2299 1.305 . S
C2300 C2303 1.407 . S
C2301 H2295 0.930 . S
C2301 C2302 1.410 . S
C2301 C2303 1.345 . S
C2302 C2301 1.410 . S
C2302 C2304 1.417 . S
C2302 C2334 1.432 . S
C2303 H2289 0.930 . S
C2303 C2300 1.407 . S
C2303 C2301 1.345 . S
C2304 N2299 1.360 . S
C2304 C2302 1.417 . S
C2304 C2308 1.432 . S
H2305 C2310 0.930 . S
N2306 Tb2268 2.600 . S
N2306 C2308 1.359 . S
N2306 C2309 1.327 . S
C2307 H2293 0.931 . S
C2307 C2309 1.392 . S
C2307 C2310 1.370 . S
C2308 C2304 1.432 . S
C2308 N2306 1.359 . S
C2308 C2311 1.414 . S
C2309 H2291 0.930 . S
C2309 N2306 1.327 . S
C2309 C2307 1.392 . S
C2310 H2305 0.930 . S
C2310 C2307 1.370 . S
C2310 C2311 1.385 . S
C2311 C2308 1.414 . S
C2311 C2310 1.385 . S
C2311 C2333 1.444 . S
O2312 Tb2268 2.546 . S
O2312 C2332 1.251 . S
O2313 Tb2268 2.610 . S
O2313 Tb2279 2.362 . S
O2313 C2324 1.283 . S
O2314 Tb2279 2.421 . S
O2314 C2331 1.262 . S
O2315 Tb2268 2.320 . S
O2315 C2331 1.260 . S
O2316 Tb2268 2.552 . S
O2316 C2324 1.243 . S
O2317 Tb2268 2.413 . S
O2317 C2332 1.256 . S
O2318 Tb2279 2.546 . S
O2318 C2343 1.251 . S
O2319 Tb2268 2.362 . S
O2319 Tb2279 2.610 . S
O2319 C2335 1.283 . S
O2320 Tb2268 2.421 . S
O2320 C2342 1.262 . S
O2321 Tb2279 2.320 . S
O2321 C2342 1.260 . S
O2322 Tb2279 2.552 . S
O2322 C2335 1.243 . S
O2323 Tb2279 2.413 . S
O2323 C2343 1.256 . S
C2324 O2313 1.283 . S
C2324 O2316 1.243 . S
C2325 C2327 1.382 . S
C2325 C2329 1.393 . S
C2325 C2332 1.500 . S
C2326 C2327 1.400 . S
C2326 C2328 1.384 . S
C2327 C2325 1.382 . S
C2327 C2326 1.400 . S
C2327 H2344 0.930 . S
C2328 C2326 1.384 . S
C2328 C2330 1.392 . S
C2328 H2345 0.931 1_554 S
C2329 C2325 1.393 . S
C2329 C2330 1.401 . S
C2329 H2346 0.930 . S
C2330 C2328 1.392 . S
C2330 C2329 1.401 . S
C2330 H2347 0.930 . S
C2331 O2314 1.262 . S
C2331 O2315 1.260 . S
C2332 Tb2268 2.833 . S
C2332 O2312 1.251 . S
C2332 O2317 1.256 . S
C2332 C2325 1.500 . S
C2333 H2298 0.929 . S
C2333 C2311 1.444 . S
C2333 C2334 1.317 . S
C2334 H2296 0.930 . S
C2334 C2302 1.432 . S
C2334 C2333 1.317 . S
C2335 O2319 1.283 . S
C2335 O2322 1.243 . S
C2336 C2337 1.382 . S
C2336 C2340 1.393 . S
C2336 C2343 1.500 . S
C2337 C2336 1.382 . S
C2337 C2338 1.400 . S
C2337 H2348 0.930 . S
C2338 C2337 1.400 . S
C2338 C2339 1.384 . S
C2339 C2338 1.384 . S
C2339 C2341 1.392 . S
C2339 H2349 0.931 . S
C2340 C2336 1.393 . S
C2340 C2341 1.401 . S
C2340 H2350 0.930 . S
C2341 C2339 1.392 . S
C2341 C2340 1.401 . S
C2341 H2351 0.930 . S
C2342 O2320 1.262 . S
C2342 O2321 1.260 . S
C2343 Tb2279 2.833 . S
C2343 O2318 1.251 . S
C2343 O2323 1.256 . S
C2343 C2336 1.500 . S
H2344 C2327 0.930 . S
H2345 C2328 0.931 1_556 S
H2346 C2329 0.930 . S
H2347 C2330 0.930 . S
H2348 C2337 0.930 . S
H2349 C2339 0.931 . S
H2350 C2340 0.930 . S
H2351 C2341 0.930 . S
Tb2352 N2383 2.660 . S
Tb2352 N2390 2.600 . S
Tb2352 O2396 2.546 . S
Tb2352 O2397 2.610 . S
Tb2352 O2399 2.320 . S
Tb2352 O2400 2.552 . S
Tb2352 O2401 2.413 . S
Tb2352 O2403 2.362 . S
Tb2352 O2404 2.421 . S
Tb2352 C2416 2.833 . S
C2353 C2356 1.432 . S
C2353 C2357 1.414 . S
C2353 N2360 1.359 . S
C2354 C2356 1.417 . S
C2354 C2358 1.432 . S
C2354 C2366 1.410 . S
C2355 C2357 1.444 . S
C2355 C2358 1.317 . S
C2355 H2378 0.929 . S
C2356 C2353 1.432 . S
C2356 C2354 1.417 . S
C2356 N2364 1.360 . S
C2357 C2353 1.414 . S
C2357 C2355 1.444 . S
C2357 C2362 1.385 . S
C2358 C2354 1.432 . S
C2358 C2355 1.317 . S
C2358 H2370 0.930 . S
C2359 C2361 1.392 . S
C2359 C2362 1.370 . S
C2359 H2371 0.931 . S
N2360 C2353 1.359 . S
N2360 C2361 1.327 . S
N2360 Tb2363 2.600 . S
C2361 C2359 1.392 . S
C2361 N2360 1.327 . S
C2361 H2368 0.930 . S
C2362 C2357 1.385 . S
C2362 C2359 1.370 . S
C2362 H2381 0.930 . S
Tb2363 N2360 2.600 . S
Tb2363 N2364 2.660 . S
Tb2363 O2397 2.362 . S
Tb2363 O2398 2.421 . S
Tb2363 O2402 2.546 . S
Tb2363 O2403 2.610 . S
Tb2363 O2405 2.320 . S
Tb2363 O2406 2.552 . S
Tb2363 O2407 2.413 . S
Tb2363 C2427 2.833 . S
N2364 C2356 1.360 . S
N2364 Tb2363 2.660 . S
N2364 C2365 1.305 . S
C2365 N2364 1.305 . S
C2365 C2367 1.407 . S
C2365 H2372 0.930 . S
C2366 C2354 1.410 . S
C2366 C2367 1.345 . S
C2366 H2374 0.930 . S
C2367 C2365 1.407 . S
C2367 C2366 1.345 . S
C2367 H2369 0.930 . S
H2368 C2361 0.930 . S
H2369 C2367 0.930 . S
H2370 C2358 0.930 . S
H2371 C2359 0.931 . S
H2372 C2365 0.930 . S
H2373 C2387 0.930 . S
H2374 C2366 0.930 . S
H2375 C2393 0.930 . S
H2376 C2384 0.930 . S
H2377 C2391 0.931 . S
H2378 C2355 0.929 . S
H2379 C2385 0.930 . S
H2380 C2418 0.930 . S
H2381 C2362 0.930 . S
H2382 C2417 0.929 . S
N2383 Tb2352 2.660 . S
N2383 C2384 1.305 . S
N2383 C2388 1.360 . S
C2384 H2376 0.930 . S
C2384 N2383 1.305 . S
C2384 C2387 1.407 . S
C2385 H2379 0.930 . S
C2385 C2386 1.410 . S
C2385 C2387 1.345 . S
C2386 C2385 1.410 . S
C2386 C2388 1.417 . S
C2386 C2418 1.432 . S
C2387 H2373 0.930 . S
C2387 C2384 1.407 . S
C2387 C2385 1.345 . S
C2388 N2383 1.360 . S
C2388 C2386 1.417 . S
C2388 C2392 1.432 . S
H2389 C2394 0.930 . S
N2390 Tb2352 2.600 . S
N2390 C2392 1.359 . S
N2390 C2393 1.327 . S
C2391 H2377 0.931 . S
C2391 C2393 1.392 . S
C2391 C2394 1.370 . S
C2392 C2388 1.432 . S
C2392 N2390 1.359 . S
C2392 C2395 1.414 . S
C2393 H2375 0.930 . S
C2393 N2390 1.327 . S
C2393 C2391 1.392 . S
C2394 H2389 0.930 . S
C2394 C2391 1.370 . S
C2394 C2395 1.385 . S
C2395 C2392 1.414 . S
C2395 C2394 1.385 . S
C2395 C2417 1.444 . S
O2396 Tb2352 2.546 . S
O2396 C2416 1.251 . S
O2397 Tb2352 2.610 . S
O2397 Tb2363 2.362 . S
O2397 C2408 1.283 . S
O2398 Tb2363 2.421 . S
O2398 C2415 1.262 . S
O2399 Tb2352 2.320 . S
O2399 C2415 1.260 . S
O2400 Tb2352 2.552 . S
O2400 C2408 1.243 . S
O2401 Tb2352 2.413 . S
O2401 C2416 1.256 . S
O2402 Tb2363 2.546 . S
O2402 C2427 1.251 . S
O2403 Tb2352 2.362 . S
O2403 Tb2363 2.610 . S
O2403 C2419 1.283 . S
O2404 Tb2352 2.421 . S
O2404 C2426 1.262 . S
O2405 Tb2363 2.320 . S
O2405 C2426 1.260 . S
O2406 Tb2363 2.552 . S
O2406 C2419 1.243 . S
O2407 Tb2363 2.413 . S
O2407 C2427 1.256 . S
C2408 O2397 1.283 . S
C2408 O2400 1.243 . S
C2409 C2411 1.382 . S
C2409 C2413 1.393 . S
C2409 C2416 1.500 . S
C2410 C2411 1.400 . S
C2410 C2412 1.384 . S
C2411 C2409 1.382 . S
C2411 C2410 1.400 . S
C2411 H2428 0.930 . S
C2412 C2410 1.384 . S
C2412 C2414 1.392 . S
C2412 H2429 0.931 1_554 S
C2413 C2409 1.393 . S
C2413 C2414 1.401 . S
C2413 H2430 0.930 . S
C2414 C2412 1.392 . S
C2414 C2413 1.401 . S
C2414 H2431 0.930 . S
C2415 O2398 1.262 . S
C2415 O2399 1.260 . S
C2416 Tb2352 2.833 . S
C2416 O2396 1.251 . S
C2416 O2401 1.256 . S
C2416 C2409 1.500 . S
C2417 H2382 0.929 . S
C2417 C2395 1.444 . S
C2417 C2418 1.317 . S
C2418 H2380 0.930 . S
C2418 C2386 1.432 . S
C2418 C2417 1.317 . S
C2419 O2403 1.283 . S
C2419 O2406 1.243 . S
C2420 C2421 1.382 . S
C2420 C2424 1.393 . S
C2420 C2427 1.500 . S
C2421 C2420 1.382 . S
C2421 C2422 1.400 . S
C2421 H2432 0.930 . S
C2422 C2421 1.400 . S
C2422 C2423 1.384 . S
C2423 C2422 1.384 . S
C2423 C2425 1.392 . S
C2423 H2433 0.931 . S
C2424 C2420 1.393 . S
C2424 C2425 1.401 . S
C2424 H2434 0.930 . S
C2425 C2423 1.392 . S
C2425 C2424 1.401 . S
C2425 H2435 0.930 . S
C2426 O2404 1.262 . S
C2426 O2405 1.260 . S
C2427 Tb2363 2.833 . S
C2427 O2402 1.251 . S
C2427 O2407 1.256 . S
C2427 C2420 1.500 . S
H2428 C2411 0.930 . S
H2429 C2412 0.931 1_556 S
H2430 C2413 0.930 . S
H2431 C2414 0.930 . S
H2432 C2421 0.930 . S
H2433 C2423 0.931 . S
H2434 C2424 0.930 . S
H2435 C2425 0.930 . S
Tb2436 N2467 2.660 . S
Tb2436 N2474 2.600 . S
Tb2436 O2480 2.546 . S
Tb2436 O2481 2.610 . S
Tb2436 O2483 2.320 . S
Tb2436 O2484 2.552 . S
Tb2436 O2485 2.413 . S
Tb2436 O2487 2.362 . S
Tb2436 O2488 2.421 . S
Tb2436 C2500 2.833 . S
C2437 C2440 1.432 . S
C2437 C2441 1.414 . S
C2437 N2444 1.359 . S
C2438 C2440 1.417 . S
C2438 C2442 1.432 . S
C2438 C2450 1.410 . S
C2439 C2441 1.444 . S
C2439 C2442 1.317 . S
C2439 H2462 0.929 . S
C2440 C2437 1.432 . S
C2440 C2438 1.417 . S
C2440 N2448 1.360 . S
C2441 C2437 1.414 . S
C2441 C2439 1.444 . S
C2441 C2446 1.385 . S
C2442 C2438 1.432 . S
C2442 C2439 1.317 . S
C2442 H2454 0.930 . S
C2443 C2445 1.392 . S
C2443 C2446 1.370 . S
C2443 H2455 0.931 . S
N2444 C2437 1.359 . S
N2444 C2445 1.327 . S
N2444 Tb2447 2.600 . S
C2445 C2443 1.392 . S
C2445 N2444 1.327 . S
C2445 H2452 0.930 . S
C2446 C2441 1.385 . S
C2446 C2443 1.370 . S
C2446 H2465 0.930 . S
Tb2447 N2444 2.600 . S
Tb2447 N2448 2.660 . S
Tb2447 O2481 2.362 . S
Tb2447 O2482 2.421 . S
Tb2447 O2486 2.546 . S
Tb2447 O2487 2.610 . S
Tb2447 O2489 2.320 . S
Tb2447 O2490 2.552 . S
Tb2447 O2491 2.413 . S
Tb2447 C2511 2.833 . S
N2448 C2440 1.360 . S
N2448 Tb2447 2.660 . S
N2448 C2449 1.305 . S
C2449 N2448 1.305 . S
C2449 C2451 1.407 . S
C2449 H2456 0.930 . S
C2450 C2438 1.410 . S
C2450 C2451 1.345 . S
C2450 H2458 0.930 . S
C2451 C2449 1.407 . S
C2451 C2450 1.345 . S
C2451 H2453 0.930 . S
H2452 C2445 0.930 . S
H2453 C2451 0.930 . S
H2454 C2442 0.930 . S
H2455 C2443 0.931 . S
H2456 C2449 0.930 . S
H2457 C2471 0.930 . S
H2458 C2450 0.930 . S
H2459 C2477 0.930 . S
H2460 C2468 0.930 . S
H2461 C2475 0.931 . S
H2462 C2439 0.929 . S
H2463 C2469 0.930 . S
H2464 C2502 0.930 . S
H2465 C2446 0.930 . S
H2466 C2501 0.929 . S
N2467 Tb2436 2.660 . S
N2467 C2468 1.305 . S
N2467 C2472 1.360 . S
C2468 H2460 0.930 . S
C2468 N2467 1.305 . S
C2468 C2471 1.407 . S
C2469 H2463 0.930 . S
C2469 C2470 1.410 . S
C2469 C2471 1.345 . S
C2470 C2469 1.410 . S
C2470 C2472 1.417 . S
C2470 C2502 1.432 . S
C2471 H2457 0.930 . S
C2471 C2468 1.407 . S
C2471 C2469 1.345 . S
C2472 N2467 1.360 . S
C2472 C2470 1.417 . S
C2472 C2476 1.432 . S
H2473 C2478 0.930 . S
N2474 Tb2436 2.600 . S
N2474 C2476 1.359 . S
N2474 C2477 1.327 . S
C2475 H2461 0.931 . S
C2475 C2477 1.392 . S
C2475 C2478 1.370 . S
C2476 C2472 1.432 . S
C2476 N2474 1.359 . S
C2476 C2479 1.414 . S
C2477 H2459 0.930 . S
C2477 N2474 1.327 . S
C2477 C2475 1.392 . S
C2478 H2473 0.930 . S
C2478 C2475 1.370 . S
C2478 C2479 1.385 . S
C2479 C2476 1.414 . S
C2479 C2478 1.385 . S
C2479 C2501 1.444 . S
O2480 Tb2436 2.546 . S
O2480 C2500 1.251 . S
O2481 Tb2436 2.610 . S
O2481 Tb2447 2.362 . S
O2481 C2492 1.283 . S
O2482 Tb2447 2.421 . S
O2482 C2499 1.262 . S
O2483 Tb2436 2.320 . S
O2483 C2499 1.260 . S
O2484 Tb2436 2.552 . S
O2484 C2492 1.243 . S
O2485 Tb2436 2.413 . S
O2485 C2500 1.256 . S
O2486 Tb2447 2.546 . S
O2486 C2511 1.251 . S
O2487 Tb2436 2.362 . S
O2487 Tb2447 2.610 . S
O2487 C2503 1.283 . S
O2488 Tb2436 2.421 . S
O2488 C2510 1.262 . S
O2489 Tb2447 2.320 . S
O2489 C2510 1.260 . S
O2490 Tb2447 2.552 . S
O2490 C2503 1.243 . S
O2491 Tb2447 2.413 . S
O2491 C2511 1.256 . S
C2492 O2481 1.283 . S
C2492 O2484 1.243 . S
C2493 C2495 1.382 . S
C2493 C2497 1.393 . S
C2493 C2500 1.500 . S
C2494 C2495 1.400 . S
C2494 C2496 1.384 . S
C2495 C2493 1.382 . S
C2495 C2494 1.400 . S
C2495 H2512 0.930 . S
C2496 C2494 1.384 . S
C2496 C2498 1.392 . S
C2496 H2513 0.931 1_554 S
C2497 C2493 1.393 . S
C2497 C2498 1.401 . S
C2497 H2514 0.930 . S
C2498 C2496 1.392 . S
C2498 C2497 1.401 . S
C2498 H2515 0.930 . S
C2499 O2482 1.262 . S
C2499 O2483 1.260 . S
C2500 Tb2436 2.833 . S
C2500 O2480 1.251 . S
C2500 O2485 1.256 . S
C2500 C2493 1.500 . S
C2501 H2466 0.929 . S
C2501 C2479 1.444 . S
C2501 C2502 1.317 . S
C2502 H2464 0.930 . S
C2502 C2470 1.432 . S
C2502 C2501 1.317 . S
C2503 O2487 1.283 . S
C2503 O2490 1.243 . S
C2504 C2505 1.382 . S
C2504 C2508 1.393 . S
C2504 C2511 1.500 . S
C2505 C2504 1.382 . S
C2505 C2506 1.400 . S
C2505 H2516 0.930 . S
C2506 C2505 1.400 . S
C2506 C2507 1.384 . S
C2507 C2506 1.384 . S
C2507 C2509 1.392 . S
C2507 H2517 0.931 . S
C2508 C2504 1.393 . S
C2508 C2509 1.401 . S
C2508 H2518 0.930 . S
C2509 C2507 1.392 . S
C2509 C2508 1.401 . S
C2509 H2519 0.930 . S
C2510 O2488 1.262 . S
C2510 O2489 1.260 . S
C2511 Tb2447 2.833 . S
C2511 O2486 1.251 . S
C2511 O2491 1.256 . S
C2511 C2504 1.500 . S
H2512 C2495 0.930 . S
H2513 C2496 0.931 1_556 S
H2514 C2497 0.930 . S
H2515 C2498 0.930 . S
H2516 C2505 0.930 . S
H2517 C2507 0.931 . S
H2518 C2508 0.930 . S
H2519 C2509 0.930 . S
Tb2520 N2551 2.660 . S
Tb2520 N2558 2.600 . S
Tb2520 O2564 2.546 . S
Tb2520 O2565 2.610 . S
Tb2520 O2567 2.320 . S
Tb2520 O2568 2.552 . S
Tb2520 O2569 2.413 . S
Tb2520 O2571 2.362 . S
Tb2520 O2572 2.421 . S
Tb2520 C2584 2.833 . S
C2521 C2524 1.432 . S
C2521 C2525 1.414 . S
C2521 N2528 1.359 . S
C2522 C2524 1.417 . S
C2522 C2526 1.432 . S
C2522 C2534 1.410 . S
C2523 C2525 1.444 . S
C2523 C2526 1.317 . S
C2523 H2546 0.929 . S
C2524 C2521 1.432 . S
C2524 C2522 1.417 . S
C2524 N2532 1.360 . S
C2525 C2521 1.414 . S
C2525 C2523 1.444 . S
C2525 C2530 1.385 . S
C2526 C2522 1.432 . S
C2526 C2523 1.317 . S
C2526 H2538 0.930 . S
C2527 C2529 1.392 . S
C2527 C2530 1.370 . S
C2527 H2539 0.931 . S
N2528 C2521 1.359 . S
N2528 C2529 1.327 . S
N2528 Tb2531 2.600 . S
C2529 C2527 1.392 . S
C2529 N2528 1.327 . S
C2529 H2536 0.930 . S
C2530 C2525 1.385 . S
C2530 C2527 1.370 . S
C2530 H2549 0.930 . S
Tb2531 N2528 2.600 . S
Tb2531 N2532 2.660 . S
Tb2531 O2565 2.362 . S
Tb2531 O2566 2.421 . S
Tb2531 O2570 2.546 . S
Tb2531 O2571 2.610 . S
Tb2531 O2573 2.320 . S
Tb2531 O2574 2.552 . S
Tb2531 O2575 2.413 . S
Tb2531 C2595 2.833 . S
N2532 C2524 1.360 . S
N2532 Tb2531 2.660 . S
N2532 C2533 1.305 . S
C2533 N2532 1.305 . S
C2533 C2535 1.407 . S
C2533 H2540 0.930 . S
C2534 C2522 1.410 . S
C2534 C2535 1.345 . S
C2534 H2542 0.930 . S
C2535 C2533 1.407 . S
C2535 C2534 1.345 . S
C2535 H2537 0.930 . S
H2536 C2529 0.930 . S
H2537 C2535 0.930 . S
H2538 C2526 0.930 . S
H2539 C2527 0.931 . S
H2540 C2533 0.930 . S
H2541 C2555 0.930 . S
H2542 C2534 0.930 . S
H2543 C2561 0.930 . S
H2544 C2552 0.930 . S
H2545 C2559 0.931 . S
H2546 C2523 0.929 . S
H2547 C2553 0.930 . S
H2548 C2586 0.930 . S
H2549 C2530 0.930 . S
H2550 C2585 0.929 . S
N2551 Tb2520 2.660 . S
N2551 C2552 1.305 . S
N2551 C2556 1.360 . S
C2552 H2544 0.930 . S
C2552 N2551 1.305 . S
C2552 C2555 1.407 . S
C2553 H2547 0.930 . S
C2553 C2554 1.410 . S
C2553 C2555 1.345 . S
C2554 C2553 1.410 . S
C2554 C2556 1.417 . S
C2554 C2586 1.432 . S
C2555 H2541 0.930 . S
C2555 C2552 1.407 . S
C2555 C2553 1.345 . S
C2556 N2551 1.360 . S
C2556 C2554 1.417 . S
C2556 C2560 1.432 . S
H2557 C2562 0.930 . S
N2558 Tb2520 2.600 . S
N2558 C2560 1.359 . S
N2558 C2561 1.327 . S
C2559 H2545 0.931 . S
C2559 C2561 1.392 . S
C2559 C2562 1.370 . S
C2560 C2556 1.432 . S
C2560 N2558 1.359 . S
C2560 C2563 1.414 . S
C2561 H2543 0.930 . S
C2561 N2558 1.327 . S
C2561 C2559 1.392 . S
C2562 H2557 0.930 . S
C2562 C2559 1.370 . S
C2562 C2563 1.385 . S
C2563 C2560 1.414 . S
C2563 C2562 1.385 . S
C2563 C2585 1.444 . S
O2564 Tb2520 2.546 . S
O2564 C2584 1.251 . S
O2565 Tb2520 2.610 . S
O2565 Tb2531 2.362 . S
O2565 C2576 1.283 . S
O2566 Tb2531 2.421 . S
O2566 C2583 1.262 . S
O2567 Tb2520 2.320 . S
O2567 C2583 1.260 . S
O2568 Tb2520 2.552 . S
O2568 C2576 1.243 . S
O2569 Tb2520 2.413 . S
O2569 C2584 1.256 . S
O2570 Tb2531 2.546 . S
O2570 C2595 1.251 . S
O2571 Tb2520 2.362 . S
O2571 Tb2531 2.610 . S
O2571 C2587 1.283 . S
O2572 Tb2520 2.421 . S
O2572 C2594 1.262 . S
O2573 Tb2531 2.320 . S
O2573 C2594 1.260 . S
O2574 Tb2531 2.552 . S
O2574 C2587 1.243 . S
O2575 Tb2531 2.413 . S
O2575 C2595 1.256 . S
C2576 O2565 1.283 . S
C2576 O2568 1.243 . S
C2577 C2579 1.382 . S
C2577 C2581 1.393 . S
C2577 C2584 1.500 . S
C2578 C2579 1.400 . S
C2578 C2580 1.384 . S
C2579 C2577 1.382 . S
C2579 C2578 1.400 . S
C2579 H2596 0.930 . S
C2580 C2578 1.384 . S
C2580 C2582 1.392 . S
C2580 H2597 0.931 . S
C2581 C2577 1.393 . S
C2581 C2582 1.401 . S
C2581 H2598 0.930 . S
C2582 C2580 1.392 . S
C2582 C2581 1.401 . S
C2582 H2599 0.930 . S
C2583 O2566 1.262 . S
C2583 O2567 1.260 . S
C2584 Tb2520 2.833 . S
C2584 O2564 1.251 . S
C2584 O2569 1.256 . S
C2584 C2577 1.500 . S
C2585 H2550 0.929 . S
C2585 C2563 1.444 . S
C2585 C2586 1.317 . S
C2586 H2548 0.930 . S
C2586 C2554 1.432 . S
C2586 C2585 1.317 . S
C2587 O2571 1.283 . S
C2587 O2574 1.243 . S
C2588 C2589 1.382 . S
C2588 C2592 1.393 . S
C2588 C2595 1.500 . S
C2589 C2588 1.382 . S
C2589 C2590 1.400 . S
C2589 H2600 0.930 . S
C2590 C2589 1.400 . S
C2590 C2591 1.384 . S
C2591 C2590 1.384 . S
C2591 C2593 1.392 . S
C2591 H2601 0.931 . S
C2592 C2588 1.393 . S
C2592 C2593 1.401 . S
C2592 H2602 0.930 . S
C2593 C2591 1.392 . S
C2593 C2592 1.401 . S
C2593 H2603 0.930 . S
C2594 O2572 1.262 . S
C2594 O2573 1.260 . S
C2595 Tb2531 2.833 . S
C2595 O2570 1.251 . S
C2595 O2575 1.256 . S
C2595 C2588 1.500 . S
H2596 C2579 0.930 . S
H2597 C2580 0.931 . S
H2598 C2581 0.930 . S
H2599 C2582 0.930 . S
H2600 C2589 0.930 . S
H2601 C2591 0.931 . S
H2602 C2592 0.930 . S
H2603 C2593 0.930 . S
Tb2604 N2635 2.660 . S
Tb2604 N2642 2.600 . S
Tb2604 O2648 2.546 . S
Tb2604 O2649 2.610 . S
Tb2604 O2651 2.320 . S
Tb2604 O2652 2.552 . S
Tb2604 O2653 2.413 . S
Tb2604 O2655 2.362 . S
Tb2604 O2656 2.421 . S
Tb2604 C2668 2.833 . S
C2605 C2608 1.432 . S
C2605 C2609 1.414 . S
C2605 N2612 1.359 . S
C2606 C2608 1.417 . S
C2606 C2610 1.432 . S
C2606 C2618 1.410 . S
C2607 C2609 1.444 . S
C2607 C2610 1.317 . S
C2607 H2630 0.929 . S
C2608 C2605 1.432 . S
C2608 C2606 1.417 . S
C2608 N2616 1.360 . S
C2609 C2605 1.414 . S
C2609 C2607 1.444 . S
C2609 C2614 1.385 . S
C2610 C2606 1.432 . S
C2610 C2607 1.317 . S
C2610 H2622 0.930 . S
C2611 C2613 1.392 . S
C2611 C2614 1.370 . S
C2611 H2623 0.931 . S
N2612 C2605 1.359 . S
N2612 C2613 1.327 . S
N2612 Tb2615 2.600 . S
C2613 C2611 1.392 . S
C2613 N2612 1.327 . S
C2613 H2620 0.930 . S
C2614 C2609 1.385 . S
C2614 C2611 1.370 . S
C2614 H2633 0.930 . S
Tb2615 N2612 2.600 . S
Tb2615 N2616 2.660 . S
Tb2615 O2649 2.362 . S
Tb2615 O2650 2.421 . S
Tb2615 O2654 2.546 . S
Tb2615 O2655 2.610 . S
Tb2615 O2657 2.320 . S
Tb2615 O2658 2.552 . S
Tb2615 O2659 2.413 . S
Tb2615 C2679 2.833 . S
N2616 C2608 1.360 . S
N2616 Tb2615 2.660 . S
N2616 C2617 1.305 . S
C2617 N2616 1.305 . S
C2617 C2619 1.407 . S
C2617 H2624 0.930 . S
C2618 C2606 1.410 . S
C2618 C2619 1.345 . S
C2618 H2626 0.930 . S
C2619 C2617 1.407 . S
C2619 C2618 1.345 . S
C2619 H2621 0.930 . S
H2620 C2613 0.930 . S
H2621 C2619 0.930 . S
H2622 C2610 0.930 . S
H2623 C2611 0.931 . S
H2624 C2617 0.930 . S
H2625 C2639 0.930 . S
H2626 C2618 0.930 . S
H2627 C2645 0.930 . S
H2628 C2636 0.930 . S
H2629 C2643 0.931 . S
H2630 C2607 0.929 . S
H2631 C2637 0.930 . S
H2632 C2670 0.930 . S
H2633 C2614 0.930 . S
H2634 C2669 0.929 . S
N2635 Tb2604 2.660 . S
N2635 C2636 1.305 . S
N2635 C2640 1.360 . S
C2636 H2628 0.930 . S
C2636 N2635 1.305 . S
C2636 C2639 1.407 . S
C2637 H2631 0.930 . S
C2637 C2638 1.410 . S
C2637 C2639 1.345 . S
C2638 C2637 1.410 . S
C2638 C2640 1.417 . S
C2638 C2670 1.432 . S
C2639 H2625 0.930 . S
C2639 C2636 1.407 . S
C2639 C2637 1.345 . S
C2640 N2635 1.360 . S
C2640 C2638 1.417 . S
C2640 C2644 1.432 . S
H2641 C2646 0.930 . S
N2642 Tb2604 2.600 . S
N2642 C2644 1.359 . S
N2642 C2645 1.327 . S
C2643 H2629 0.931 . S
C2643 C2645 1.392 . S
C2643 C2646 1.370 . S
C2644 C2640 1.432 . S
C2644 N2642 1.359 . S
C2644 C2647 1.414 . S
C2645 H2627 0.930 . S
C2645 N2642 1.327 . S
C2645 C2643 1.392 . S
C2646 H2641 0.930 . S
C2646 C2643 1.370 . S
C2646 C2647 1.385 . S
C2647 C2644 1.414 . S
C2647 C2646 1.385 . S
C2647 C2669 1.444 . S
O2648 Tb2604 2.546 . S
O2648 C2668 1.251 . S
O2649 Tb2604 2.610 . S
O2649 Tb2615 2.362 . S
O2649 C2660 1.283 . S
O2650 Tb2615 2.421 . S
O2650 C2667 1.262 . S
O2651 Tb2604 2.320 . S
O2651 C2667 1.260 . S
O2652 Tb2604 2.552 . S
O2652 C2660 1.243 . S
O2653 Tb2604 2.413 . S
O2653 C2668 1.256 . S
O2654 Tb2615 2.546 . S
O2654 C2679 1.251 . S
O2655 Tb2604 2.362 . S
O2655 Tb2615 2.610 . S
O2655 C2671 1.283 . S
O2656 Tb2604 2.421 . S
O2656 C2678 1.262 . S
O2657 Tb2615 2.320 . S
O2657 C2678 1.260 . S
O2658 Tb2615 2.552 . S
O2658 C2671 1.243 . S
O2659 Tb2615 2.413 . S
O2659 C2679 1.256 . S
C2660 O2649 1.283 . S
C2660 O2652 1.243 . S
C2661 C2663 1.382 . S
C2661 C2665 1.393 . S
C2661 C2668 1.500 . S
C2662 C2663 1.400 . S
C2662 C2664 1.384 . S
C2663 C2661 1.382 . S
C2663 C2662 1.400 . S
C2663 H2680 0.930 . S
C2664 C2662 1.384 . S
C2664 C2666 1.392 . S
C2664 H2681 0.931 . S
C2665 C2661 1.393 . S
C2665 C2666 1.401 . S
C2665 H2682 0.930 . S
C2666 C2664 1.392 . S
C2666 C2665 1.401 . S
C2666 H2683 0.930 . S
C2667 O2650 1.262 . S
C2667 O2651 1.260 . S
C2668 Tb2604 2.833 . S
C2668 O2648 1.251 . S
C2668 O2653 1.256 . S
C2668 C2661 1.500 . S
C2669 H2634 0.929 . S
C2669 C2647 1.444 . S
C2669 C2670 1.317 . S
C2670 H2632 0.930 . S
C2670 C2638 1.432 . S
C2670 C2669 1.317 . S
C2671 O2655 1.283 . S
C2671 O2658 1.243 . S
C2672 C2673 1.382 . S
C2672 C2676 1.393 . S
C2672 C2679 1.500 . S
C2673 C2672 1.382 . S
C2673 C2674 1.400 . S
C2673 H2684 0.930 . S
C2674 C2673 1.400 . S
C2674 C2675 1.384 . S
C2675 C2674 1.384 . S
C2675 C2677 1.392 . S
C2675 H2685 0.931 . S
C2676 C2672 1.393 . S
C2676 C2677 1.401 . S
C2676 H2686 0.930 . S
C2677 C2675 1.392 . S
C2677 C2676 1.401 . S
C2677 H2687 0.930 . S
C2678 O2656 1.262 . S
C2678 O2657 1.260 . S
C2679 Tb2615 2.833 . S
C2679 O2654 1.251 . S
C2679 O2659 1.256 . S
C2679 C2672 1.500 . S
H2680 C2663 0.930 . S
H2681 C2664 0.931 . S
H2682 C2665 0.930 . S
H2683 C2666 0.930 . S
H2684 C2673 0.930 . S
H2685 C2675 0.931 . S
H2686 C2676 0.930 . S
H2687 C2677 0.930 . S
Tb2688 N2719 2.660 . S
Tb2688 N2726 2.600 . S
Tb2688 O2732 2.546 . S
Tb2688 O2733 2.610 . S
Tb2688 O2735 2.320 . S
Tb2688 O2736 2.552 . S
Tb2688 O2737 2.413 . S
Tb2688 O2739 2.362 . S
Tb2688 O2740 2.421 . S
Tb2688 C2752 2.833 . S
C2689 C2692 1.432 . S
C2689 C2693 1.414 . S
C2689 N2696 1.359 . S
C2690 C2692 1.417 . S
C2690 C2694 1.432 . S
C2690 C2702 1.410 . S
C2691 C2693 1.444 . S
C2691 C2694 1.317 . S
C2691 H2714 0.929 . S
C2692 C2689 1.432 . S
C2692 C2690 1.417 . S
C2692 N2700 1.360 . S
C2693 C2689 1.414 . S
C2693 C2691 1.444 . S
C2693 C2698 1.385 . S
C2694 C2690 1.432 . S
C2694 C2691 1.317 . S
C2694 H2706 0.930 . S
C2695 C2697 1.392 . S
C2695 C2698 1.370 . S
C2695 H2707 0.931 . S
N2696 C2689 1.359 . S
N2696 C2697 1.327 . S
N2696 Tb2699 2.600 . S
C2697 C2695 1.392 . S
C2697 N2696 1.327 . S
C2697 H2704 0.930 . S
C2698 C2693 1.385 . S
C2698 C2695 1.370 . S
C2698 H2717 0.930 . S
Tb2699 N2696 2.600 . S
Tb2699 N2700 2.660 . S
Tb2699 O2733 2.362 . S
Tb2699 O2734 2.421 . S
Tb2699 O2738 2.546 . S
Tb2699 O2739 2.610 . S
Tb2699 O2741 2.320 . S
Tb2699 O2742 2.552 . S
Tb2699 O2743 2.413 . S
Tb2699 C2763 2.833 . S
N2700 C2692 1.360 . S
N2700 Tb2699 2.660 . S
N2700 C2701 1.305 . S
C2701 N2700 1.305 . S
C2701 C2703 1.407 . S
C2701 H2708 0.930 . S
C2702 C2690 1.410 . S
C2702 C2703 1.345 . S
C2702 H2710 0.930 . S
C2703 C2701 1.407 . S
C2703 C2702 1.345 . S
C2703 H2705 0.930 . S
H2704 C2697 0.930 . S
H2705 C2703 0.930 . S
H2706 C2694 0.930 . S
H2707 C2695 0.931 . S
H2708 C2701 0.930 . S
H2709 C2723 0.930 . S
H2710 C2702 0.930 . S
H2711 C2729 0.930 . S
H2712 C2720 0.930 . S
H2713 C2727 0.931 . S
H2714 C2691 0.929 . S
H2715 C2721 0.930 . S
H2716 C2754 0.930 . S
H2717 C2698 0.930 . S
H2718 C2753 0.929 . S
N2719 Tb2688 2.660 . S
N2719 C2720 1.305 . S
N2719 C2724 1.360 . S
C2720 H2712 0.930 . S
C2720 N2719 1.305 . S
C2720 C2723 1.407 . S
C2721 H2715 0.930 . S
C2721 C2722 1.410 . S
C2721 C2723 1.345 . S
C2722 C2721 1.410 . S
C2722 C2724 1.417 . S
C2722 C2754 1.432 . S
C2723 H2709 0.930 . S
C2723 C2720 1.407 . S
C2723 C2721 1.345 . S
C2724 N2719 1.360 . S
C2724 C2722 1.417 . S
C2724 C2728 1.432 . S
H2725 C2730 0.930 . S
N2726 Tb2688 2.600 . S
N2726 C2728 1.359 . S
N2726 C2729 1.327 . S
C2727 H2713 0.931 . S
C2727 C2729 1.392 . S
C2727 C2730 1.370 . S
C2728 C2724 1.432 . S
C2728 N2726 1.359 . S
C2728 C2731 1.414 . S
C2729 H2711 0.930 . S
C2729 N2726 1.327 . S
C2729 C2727 1.392 . S
C2730 H2725 0.930 . S
C2730 C2727 1.370 . S
C2730 C2731 1.385 . S
C2731 C2728 1.414 . S
C2731 C2730 1.385 . S
C2731 C2753 1.444 . S
O2732 Tb2688 2.546 . S
O2732 C2752 1.251 . S
O2733 Tb2688 2.610 . S
O2733 Tb2699 2.362 . S
O2733 C2744 1.283 . S
O2734 Tb2699 2.421 . S
O2734 C2751 1.262 . S
O2735 Tb2688 2.320 . S
O2735 C2751 1.260 . S
O2736 Tb2688 2.552 . S
O2736 C2744 1.243 . S
O2737 Tb2688 2.413 . S
O2737 C2752 1.256 . S
O2738 Tb2699 2.546 . S
O2738 C2763 1.251 . S
O2739 Tb2688 2.362 . S
O2739 Tb2699 2.610 . S
O2739 C2755 1.283 . S
O2740 Tb2688 2.421 . S
O2740 C2762 1.262 . S
O2741 Tb2699 2.320 . S
O2741 C2762 1.260 . S
O2742 Tb2699 2.552 . S
O2742 C2755 1.243 . S
O2743 Tb2699 2.413 . S
O2743 C2763 1.256 . S
C2744 O2733 1.283 . S
C2744 O2736 1.243 . S
C2745 C2747 1.382 . S
C2745 C2749 1.393 . S
C2745 C2752 1.500 . S
C2746 C2747 1.400 . S
C2746 C2748 1.384 . S
C2747 C2745 1.382 . S
C2747 C2746 1.400 . S
C2747 H2764 0.930 . S
C2748 C2746 1.384 . S
C2748 C2750 1.392 . S
C2748 H2765 0.931 . S
C2749 C2745 1.393 . S
C2749 C2750 1.401 . S
C2749 H2766 0.930 . S
C2750 C2748 1.392 . S
C2750 C2749 1.401 . S
C2750 H2767 0.930 . S
C2751 O2734 1.262 . S
C2751 O2735 1.260 . S
C2752 Tb2688 2.833 . S
C2752 O2732 1.251 . S
C2752 O2737 1.256 . S
C2752 C2745 1.500 . S
C2753 H2718 0.929 . S
C2753 C2731 1.444 . S
C2753 C2754 1.317 . S
C2754 H2716 0.930 . S
C2754 C2722 1.432 . S
C2754 C2753 1.317 . S
C2755 O2739 1.283 . S
C2755 O2742 1.243 . S
C2756 C2757 1.382 . S
C2756 C2760 1.393 . S
C2756 C2763 1.500 . S
C2757 C2756 1.382 . S
C2757 C2758 1.400 . S
C2757 H2768 0.930 . S
C2758 C2757 1.400 . S
C2758 C2759 1.384 . S
C2759 C2758 1.384 . S
C2759 C2761 1.392 . S
C2759 H2769 0.931 . S
C2760 C2756 1.393 . S
C2760 C2761 1.401 . S
C2760 H2770 0.930 . S
C2761 C2759 1.392 . S
C2761 C2760 1.401 . S
C2761 H2771 0.930 . S
C2762 O2740 1.262 . S
C2762 O2741 1.260 . S
C2763 Tb2699 2.833 . S
C2763 O2738 1.251 . S
C2763 O2743 1.256 . S
C2763 C2756 1.500 . S
H2764 C2747 0.930 . S
H2765 C2748 0.931 . S
H2766 C2749 0.930 . S
H2767 C2750 0.930 . S
H2768 C2757 0.930 . S
H2769 C2759 0.931 . S
H2770 C2760 0.930 . S
H2771 C2761 0.930 . S
Tb2772 N2803 2.660 . S
Tb2772 N2810 2.600 . S
Tb2772 O2816 2.546 . S
Tb2772 O2817 2.610 . S
Tb2772 O2819 2.320 . S
Tb2772 O2820 2.552 . S
Tb2772 O2821 2.413 . S
Tb2772 O2823 2.362 . S
Tb2772 O2824 2.421 . S
Tb2772 C2836 2.833 . S
C2773 C2776 1.432 . S
C2773 C2777 1.414 . S
C2773 N2780 1.359 . S
C2774 C2776 1.417 . S
C2774 C2778 1.432 . S
C2774 C2786 1.410 . S
C2775 C2777 1.444 . S
C2775 C2778 1.317 . S
C2775 H2798 0.929 . S
C2776 C2773 1.432 . S
C2776 C2774 1.417 . S
C2776 N2784 1.360 . S
C2777 C2773 1.414 . S
C2777 C2775 1.444 . S
C2777 C2782 1.385 . S
C2778 C2774 1.432 . S
C2778 C2775 1.317 . S
C2778 H2790 0.930 . S
C2779 C2781 1.392 . S
C2779 C2782 1.370 . S
C2779 H2791 0.931 . S
N2780 C2773 1.359 . S
N2780 C2781 1.327 . S
N2780 Tb2783 2.600 . S
C2781 C2779 1.392 . S
C2781 N2780 1.327 . S
C2781 H2788 0.930 . S
C2782 C2777 1.385 . S
C2782 C2779 1.370 . S
C2782 H2801 0.930 . S
Tb2783 N2780 2.600 . S
Tb2783 N2784 2.660 . S
Tb2783 O2817 2.362 . S
Tb2783 O2818 2.421 . S
Tb2783 O2822 2.546 . S
Tb2783 O2823 2.610 . S
Tb2783 O2825 2.320 . S
Tb2783 O2826 2.552 . S
Tb2783 O2827 2.413 . S
Tb2783 C2847 2.833 . S
N2784 C2776 1.360 . S
N2784 Tb2783 2.660 . S
N2784 C2785 1.305 . S
C2785 N2784 1.305 . S
C2785 C2787 1.407 . S
C2785 H2792 0.930 . S
C2786 C2774 1.410 . S
C2786 C2787 1.345 . S
C2786 H2794 0.930 . S
C2787 C2785 1.407 . S
C2787 C2786 1.345 . S
C2787 H2789 0.930 . S
H2788 C2781 0.930 . S
H2789 C2787 0.930 . S
H2790 C2778 0.930 . S
H2791 C2779 0.931 . S
H2792 C2785 0.930 . S
H2793 C2807 0.930 . S
H2794 C2786 0.930 . S
H2795 C2813 0.930 . S
H2796 C2804 0.930 . S
H2797 C2811 0.931 . S
H2798 C2775 0.929 . S
H2799 C2805 0.930 . S
H2800 C2838 0.930 . S
H2801 C2782 0.930 . S
H2802 C2837 0.929 . S
N2803 Tb2772 2.660 . S
N2803 C2804 1.305 . S
N2803 C2808 1.360 . S
C2804 H2796 0.930 . S
C2804 N2803 1.305 . S
C2804 C2807 1.407 . S
C2805 H2799 0.930 . S
C2805 C2806 1.410 . S
C2805 C2807 1.345 . S
C2806 C2805 1.410 . S
C2806 C2808 1.417 . S
C2806 C2838 1.432 . S
C2807 H2793 0.930 . S
C2807 C2804 1.407 . S
C2807 C2805 1.345 . S
C2808 N2803 1.360 . S
C2808 C2806 1.417 . S
C2808 C2812 1.432 . S
H2809 C2814 0.930 . S
N2810 Tb2772 2.600 . S
N2810 C2812 1.359 . S
N2810 C2813 1.327 . S
C2811 H2797 0.931 . S
C2811 C2813 1.392 . S
C2811 C2814 1.370 . S
C2812 C2808 1.432 . S
C2812 N2810 1.359 . S
C2812 C2815 1.414 . S
C2813 H2795 0.930 . S
C2813 N2810 1.327 . S
C2813 C2811 1.392 . S
C2814 H2809 0.930 . S
C2814 C2811 1.370 . S
C2814 C2815 1.385 . S
C2815 C2812 1.414 . S
C2815 C2814 1.385 . S
C2815 C2837 1.444 . S
O2816 Tb2772 2.546 . S
O2816 C2836 1.251 . S
O2817 Tb2772 2.610 . S
O2817 Tb2783 2.362 . S
O2817 C2828 1.283 . S
O2818 Tb2783 2.421 . S
O2818 C2835 1.262 . S
O2819 Tb2772 2.320 . S
O2819 C2835 1.260 . S
O2820 Tb2772 2.552 . S
O2820 C2828 1.243 . S
O2821 Tb2772 2.413 . S
O2821 C2836 1.256 . S
O2822 Tb2783 2.546 . S
O2822 C2847 1.251 . S
O2823 Tb2772 2.362 . S
O2823 Tb2783 2.610 . S
O2823 C2839 1.283 . S
O2824 Tb2772 2.421 . S
O2824 C2846 1.262 . S
O2825 Tb2783 2.320 . S
O2825 C2846 1.260 . S
O2826 Tb2783 2.552 . S
O2826 C2839 1.243 . S
O2827 Tb2783 2.413 . S
O2827 C2847 1.256 . S
C2828 O2817 1.283 . S
C2828 O2820 1.243 . S
C2829 C2831 1.382 . S
C2829 C2833 1.393 . S
C2829 C2836 1.500 . S
C2830 C2831 1.400 . S
C2830 C2832 1.384 . S
C2831 C2829 1.382 . S
C2831 C2830 1.400 . S
C2831 H2848 0.930 . S
C2832 C2830 1.384 . S
C2832 C2834 1.392 . S
C2832 H2849 0.931 . S
C2833 C2829 1.393 . S
C2833 C2834 1.401 . S
C2833 H2850 0.930 . S
C2834 C2832 1.392 . S
C2834 C2833 1.401 . S
C2834 H2851 0.930 . S
C2835 O2818 1.262 . S
C2835 O2819 1.260 . S
C2836 Tb2772 2.833 . S
C2836 O2816 1.251 . S
C2836 O2821 1.256 . S
C2836 C2829 1.500 . S
C2837 H2802 0.929 . S
C2837 C2815 1.444 . S
C2837 C2838 1.317 . S
C2838 H2800 0.930 . S
C2838 C2806 1.432 . S
C2838 C2837 1.317 . S
C2839 O2823 1.283 . S
C2839 O2826 1.243 . S
C2840 C2841 1.382 . S
C2840 C2844 1.393 . S
C2840 C2847 1.500 . S
C2841 C2840 1.382 . S
C2841 C2842 1.400 . S
C2841 H2852 0.930 . S
C2842 C2841 1.400 . S
C2842 C2843 1.384 . S
C2843 C2842 1.384 . S
C2843 C2845 1.392 . S
C2843 H2853 0.931 . S
C2844 C2840 1.393 . S
C2844 C2845 1.401 . S
C2844 H2854 0.930 . S
C2845 C2843 1.392 . S
C2845 C2844 1.401 . S
C2845 H2855 0.930 . S
C2846 O2824 1.262 . S
C2846 O2825 1.260 . S
C2847 Tb2783 2.833 . S
C2847 O2822 1.251 . S
C2847 O2827 1.256 . S
C2847 C2840 1.500 . S
H2848 C2831 0.930 . S
H2849 C2832 0.931 . S
H2850 C2833 0.930 . S
H2851 C2834 0.930 . S
H2852 C2841 0.930 . S
H2853 C2843 0.931 . S
H2854 C2844 0.930 . S
H2855 C2845 0.930 . S
Tb2856 N2887 2.660 . S
Tb2856 N2894 2.600 . S
Tb2856 O2900 2.546 . S
Tb2856 O2901 2.610 . S
Tb2856 O2903 2.320 . S
Tb2856 O2904 2.552 . S
Tb2856 O2905 2.413 . S
Tb2856 O2907 2.362 . S
Tb2856 O2908 2.421 . S
Tb2856 C2920 2.833 . S
C2857 C2860 1.432 . S
C2857 C2861 1.414 . S
C2857 N2864 1.359 . S
C2858 C2860 1.417 . S
C2858 C2862 1.432 . S
C2858 C2870 1.410 . S
C2859 C2861 1.444 . S
C2859 C2862 1.317 . S
C2859 H2882 0.929 . S
C2860 C2857 1.432 . S
C2860 C2858 1.417 . S
C2860 N2868 1.360 . S
C2861 C2857 1.414 . S
C2861 C2859 1.444 . S
C2861 C2866 1.385 . S
C2862 C2858 1.432 . S
C2862 C2859 1.317 . S
C2862 H2874 0.930 . S
C2863 C2865 1.392 . S
C2863 C2866 1.370 . S
C2863 H2875 0.931 . S
N2864 C2857 1.359 . S
N2864 C2865 1.327 . S
N2864 Tb2867 2.600 . S
C2865 C2863 1.392 . S
C2865 N2864 1.327 . S
C2865 H2872 0.930 . S
C2866 C2861 1.385 . S
C2866 C2863 1.370 . S
C2866 H2885 0.930 . S
Tb2867 N2864 2.600 . S
Tb2867 N2868 2.660 . S
Tb2867 O2901 2.362 . S
Tb2867 O2902 2.421 . S
Tb2867 O2906 2.546 . S
Tb2867 O2907 2.610 . S
Tb2867 O2909 2.320 . S
Tb2867 O2910 2.552 . S
Tb2867 O2911 2.413 . S
Tb2867 C2931 2.833 . S
N2868 C2860 1.360 . S
N2868 Tb2867 2.660 . S
N2868 C2869 1.305 . S
C2869 N2868 1.305 . S
C2869 C2871 1.407 . S
C2869 H2876 0.930 . S
C2870 C2858 1.410 . S
C2870 C2871 1.345 . S
C2870 H2878 0.930 . S
C2871 C2869 1.407 . S
C2871 C2870 1.345 . S
C2871 H2873 0.930 . S
H2872 C2865 0.930 . S
H2873 C2871 0.930 . S
H2874 C2862 0.930 . S
H2875 C2863 0.931 . S
H2876 C2869 0.930 . S
H2877 C2891 0.930 . S
H2878 C2870 0.930 . S
H2879 C2897 0.930 . S
H2880 C2888 0.930 . S
H2881 C2895 0.931 . S
H2882 C2859 0.929 . S
H2883 C2889 0.930 . S
H2884 C2922 0.930 . S
H2885 C2866 0.930 . S
H2886 C2921 0.929 . S
N2887 Tb2856 2.660 . S
N2887 C2888 1.305 . S
N2887 C2892 1.360 . S
C2888 H2880 0.930 . S
C2888 N2887 1.305 . S
C2888 C2891 1.407 . S
C2889 H2883 0.930 . S
C2889 C2890 1.410 . S
C2889 C2891 1.345 . S
C2890 C2889 1.410 . S
C2890 C2892 1.417 . S
C2890 C2922 1.432 . S
C2891 H2877 0.930 . S
C2891 C2888 1.407 . S
C2891 C2889 1.345 . S
C2892 N2887 1.360 . S
C2892 C2890 1.417 . S
C2892 C2896 1.432 . S
H2893 C2898 0.930 . S
N2894 Tb2856 2.600 . S
N2894 C2896 1.359 . S
N2894 C2897 1.327 . S
C2895 H2881 0.931 . S
C2895 C2897 1.392 . S
C2895 C2898 1.370 . S
C2896 C2892 1.432 . S
C2896 N2894 1.359 . S
C2896 C2899 1.414 . S
C2897 H2879 0.930 . S
C2897 N2894 1.327 . S
C2897 C2895 1.392 . S
C2898 H2893 0.930 . S
C2898 C2895 1.370 . S
C2898 C2899 1.385 . S
C2899 C2896 1.414 . S
C2899 C2898 1.385 . S
C2899 C2921 1.444 . S
O2900 Tb2856 2.546 . S
O2900 C2920 1.251 . S
O2901 Tb2856 2.610 . S
O2901 Tb2867 2.362 . S
O2901 C2912 1.283 . S
O2902 Tb2867 2.421 . S
O2902 C2919 1.262 . S
O2903 Tb2856 2.320 . S
O2903 C2919 1.260 . S
O2904 Tb2856 2.552 . S
O2904 C2912 1.243 . S
O2905 Tb2856 2.413 . S
O2905 C2920 1.256 . S
O2906 Tb2867 2.546 . S
O2906 C2931 1.251 . S
O2907 Tb2856 2.362 . S
O2907 Tb2867 2.610 . S
O2907 C2923 1.283 . S
O2908 Tb2856 2.421 . S
O2908 C2930 1.262 . S
O2909 Tb2867 2.320 . S
O2909 C2930 1.260 . S
O2910 Tb2867 2.552 . S
O2910 C2923 1.243 . S
O2911 Tb2867 2.413 . S
O2911 C2931 1.256 . S
C2912 O2901 1.283 . S
C2912 O2904 1.243 . S
C2913 C2915 1.382 . S
C2913 C2917 1.393 . S
C2913 C2920 1.500 . S
C2914 C2915 1.400 . S
C2914 C2916 1.384 . S
C2915 C2913 1.382 . S
C2915 C2914 1.400 . S
C2915 H2932 0.930 . S
C2916 C2914 1.384 . S
C2916 C2918 1.392 . S
C2916 H2933 0.931 . S
C2917 C2913 1.393 . S
C2917 C2918 1.401 . S
C2917 H2934 0.930 . S
C2918 C2916 1.392 . S
C2918 C2917 1.401 . S
C2918 H2935 0.930 . S
C2919 O2902 1.262 . S
C2919 O2903 1.260 . S
C2920 Tb2856 2.833 . S
C2920 O2900 1.251 . S
C2920 O2905 1.256 . S
C2920 C2913 1.500 . S
C2921 H2886 0.929 . S
C2921 C2899 1.444 . S
C2921 C2922 1.317 . S
C2922 H2884 0.930 . S
C2922 C2890 1.432 . S
C2922 C2921 1.317 . S
C2923 O2907 1.283 . S
C2923 O2910 1.243 . S
C2924 C2925 1.382 . S
C2924 C2928 1.393 . S
C2924 C2931 1.500 . S
C2925 C2924 1.382 . S
C2925 C2926 1.400 . S
C2925 H2936 0.930 . S
C2926 C2925 1.400 . S
C2926 C2927 1.384 . S
C2927 C2926 1.384 . S
C2927 C2929 1.392 . S
C2927 H2937 0.931 . S
C2928 C2924 1.393 . S
C2928 C2929 1.401 . S
C2928 H2938 0.930 . S
C2929 C2927 1.392 . S
C2929 C2928 1.401 . S
C2929 H2939 0.930 . S
C2930 O2908 1.262 . S
C2930 O2909 1.260 . S
C2931 Tb2867 2.833 . S
C2931 O2906 1.251 . S
C2931 O2911 1.256 . S
C2931 C2924 1.500 . S
H2932 C2915 0.930 . S
H2933 C2916 0.931 . S
H2934 C2917 0.930 . S
H2935 C2918 0.930 . S
H2936 C2925 0.930 . S
H2937 C2927 0.931 . S
H2938 C2928 0.930 . S
H2939 C2929 0.930 . S
Tb2940 N2971 2.660 . S
Tb2940 N2978 2.600 . S
Tb2940 O2984 2.546 . S
Tb2940 O2985 2.610 . S
Tb2940 O2987 2.320 . S
Tb2940 O2988 2.552 . S
Tb2940 O2989 2.413 . S
Tb2940 O2991 2.362 . S
Tb2940 O2992 2.421 . S
Tb2940 C3004 2.833 . S
C2941 C2944 1.432 . S
C2941 C2945 1.414 . S
C2941 N2948 1.359 . S
C2942 C2944 1.417 . S
C2942 C2946 1.432 . S
C2942 C2954 1.410 . S
C2943 C2945 1.444 . S
C2943 C2946 1.317 . S
C2943 H2966 0.929 . S
C2944 C2941 1.432 . S
C2944 C2942 1.417 . S
C2944 N2952 1.360 . S
C2945 C2941 1.414 . S
C2945 C2943 1.444 . S
C2945 C2950 1.385 . S
C2946 C2942 1.432 . S
C2946 C2943 1.317 . S
C2946 H2958 0.930 . S
C2947 C2949 1.392 . S
C2947 C2950 1.370 . S
C2947 H2959 0.931 . S
N2948 C2941 1.359 . S
N2948 C2949 1.327 . S
N2948 Tb2951 2.600 . S
C2949 C2947 1.392 . S
C2949 N2948 1.327 . S
C2949 H2956 0.930 . S
C2950 C2945 1.385 . S
C2950 C2947 1.370 . S
C2950 H2969 0.930 . S
Tb2951 N2948 2.600 . S
Tb2951 N2952 2.660 . S
Tb2951 O2985 2.362 . S
Tb2951 O2986 2.421 . S
Tb2951 O2990 2.546 . S
Tb2951 O2991 2.610 . S
Tb2951 O2993 2.320 . S
Tb2951 O2994 2.552 . S
Tb2951 O2995 2.413 . S
Tb2951 C3015 2.833 . S
N2952 C2944 1.360 . S
N2952 Tb2951 2.660 . S
N2952 C2953 1.305 . S
C2953 N2952 1.305 . S
C2953 C2955 1.407 . S
C2953 H2960 0.930 . S
C2954 C2942 1.410 . S
C2954 C2955 1.345 . S
C2954 H2962 0.930 . S
C2955 C2953 1.407 . S
C2955 C2954 1.345 . S
C2955 H2957 0.930 . S
H2956 C2949 0.930 . S
H2957 C2955 0.930 . S
H2958 C2946 0.930 . S
H2959 C2947 0.931 . S
H2960 C2953 0.930 . S
H2961 C2975 0.930 . S
H2962 C2954 0.930 . S
H2963 C2981 0.930 . S
H2964 C2972 0.930 . S
H2965 C2979 0.931 . S
H2966 C2943 0.929 . S
H2967 C2973 0.930 . S
H2968 C3006 0.930 . S
H2969 C2950 0.930 . S
H2970 C3005 0.929 . S
N2971 Tb2940 2.660 . S
N2971 C2972 1.305 . S
N2971 C2976 1.360 . S
C2972 H2964 0.930 . S
C2972 N2971 1.305 . S
C2972 C2975 1.407 . S
C2973 H2967 0.930 . S
C2973 C2974 1.410 . S
C2973 C2975 1.345 . S
C2974 C2973 1.410 . S
C2974 C2976 1.417 . S
C2974 C3006 1.432 . S
C2975 H2961 0.930 . S
C2975 C2972 1.407 . S
C2975 C2973 1.345 . S
C2976 N2971 1.360 . S
C2976 C2974 1.417 . S
C2976 C2980 1.432 . S
H2977 C2982 0.930 . S
N2978 Tb2940 2.600 . S
N2978 C2980 1.359 . S
N2978 C2981 1.327 . S
C2979 H2965 0.931 . S
C2979 C2981 1.392 . S
C2979 C2982 1.370 . S
C2980 C2976 1.432 . S
C2980 N2978 1.359 . S
C2980 C2983 1.414 . S
C2981 H2963 0.930 . S
C2981 N2978 1.327 . S
C2981 C2979 1.392 . S
C2982 H2977 0.930 . S
C2982 C2979 1.370 . S
C2982 C2983 1.385 . S
C2983 C2980 1.414 . S
C2983 C2982 1.385 . S
C2983 C3005 1.444 . S
O2984 Tb2940 2.546 . S
O2984 C3004 1.251 . S
O2985 Tb2940 2.610 . S
O2985 Tb2951 2.362 . S
O2985 C2996 1.283 . S
O2986 Tb2951 2.421 . S
O2986 C3003 1.262 . S
O2987 Tb2940 2.320 . S
O2987 C3003 1.260 . S
O2988 Tb2940 2.552 . S
O2988 C2996 1.243 . S
O2989 Tb2940 2.413 . S
O2989 C3004 1.256 . S
O2990 Tb2951 2.546 . S
O2990 C3015 1.251 . S
O2991 Tb2940 2.362 . S
O2991 Tb2951 2.610 . S
O2991 C3007 1.283 . S
O2992 Tb2940 2.421 . S
O2992 C3014 1.262 . S
O2993 Tb2951 2.320 . S
O2993 C3014 1.260 . S
O2994 Tb2951 2.552 . S
O2994 C3007 1.243 . S
O2995 Tb2951 2.413 . S
O2995 C3015 1.256 . S
C2996 O2985 1.283 . S
C2996 O2988 1.243 . S
C2997 C2999 1.382 . S
C2997 C3001 1.393 . S
C2997 C3004 1.500 . S
C2998 C2999 1.400 . S
C2998 C3000 1.384 . S
C2999 C2997 1.382 . S
C2999 C2998 1.400 . S
C2999 H3016 0.930 . S
C3000 C2998 1.384 . S
C3000 C3002 1.392 . S
C3000 H3017 0.931 . S
C3001 C2997 1.393 . S
C3001 C3002 1.401 . S
C3001 H3018 0.930 . S
C3002 C3000 1.392 . S
C3002 C3001 1.401 . S
C3002 H3019 0.930 . S
C3003 O2986 1.262 . S
C3003 O2987 1.260 . S
C3004 Tb2940 2.833 . S
C3004 O2984 1.251 . S
C3004 O2989 1.256 . S
C3004 C2997 1.500 . S
C3005 H2970 0.929 . S
C3005 C2983 1.444 . S
C3005 C3006 1.317 . S
C3006 H2968 0.930 . S
C3006 C2974 1.432 . S
C3006 C3005 1.317 . S
C3007 O2991 1.283 . S
C3007 O2994 1.243 . S
C3008 C3009 1.382 . S
C3008 C3012 1.393 . S
C3008 C3015 1.500 . S
C3009 C3008 1.382 . S
C3009 C3010 1.400 . S
C3009 H3020 0.930 . S
C3010 C3009 1.400 . S
C3010 C3011 1.384 . S
C3011 C3010 1.384 . S
C3011 C3013 1.392 . S
C3011 H3021 0.931 . S
C3012 C3008 1.393 . S
C3012 C3013 1.401 . S
C3012 H3022 0.930 . S
C3013 C3011 1.392 . S
C3013 C3012 1.401 . S
C3013 H3023 0.930 . S
C3014 O2992 1.262 . S
C3014 O2993 1.260 . S
C3015 Tb2951 2.833 . S
C3015 O2990 1.251 . S
C3015 O2995 1.256 . S
C3015 C3008 1.500 . S
H3016 C2999 0.930 . S
H3017 C3000 0.931 . S
H3018 C3001 0.930 . S
H3019 C3002 0.930 . S
H3020 C3009 0.930 . S
H3021 C3011 0.931 . S
H3022 C3012 0.930 . S
H3023 C3013 0.930 . S
H3024 C3030 0.930 . S
H3025 C3034 0.930 . S
H3026 C3039 0.929 . S
H3027 C3037 0.929 . S
H3028 C3032 0.929 . S
H3029 C3038 0.929 . S
C3030 H3024 0.930 . S
C3030 C3031 1.367 . S
C3030 C3038 1.378 . S
C3031 C3030 1.367 . S
C3031 C3039 1.433 . S
C3032 H3028 0.929 . S
C3032 C3034 1.378 . S
C3032 C3036 1.350 . S
C3033 C3036 1.463 1_556 S
C3033 C3038 1.350 . S
C3033 N3041 1.427 . S
C3034 H3025 0.930 . S
C3034 C3032 1.378 . S
C3034 C3035 1.367 . S
C3035 C3034 1.367 . S
C3035 C3037 1.433 . S
C3036 C3032 1.350 . S
C3036 C3033 1.463 1_554 S
C3036 N3040 1.427 . S
C3037 H3027 0.929 . S
C3037 C3035 1.433 . S
C3037 N3040 1.384 . S
C3038 H3029 0.929 . S
C3038 C3030 1.378 . S
C3038 C3033 1.350 . S
C3039 H3026 0.929 . S
C3039 C3031 1.433 . S
C3039 N3041 1.384 . S
N3040 C3036 1.427 . S
N3040 C3037 1.384 . S
N3041 C3033 1.427 . S
N3041 C3039 1.384 . S
H3042 C3048 0.930 . S
H3043 C3052 0.930 . S
H3044 C3057 0.929 . S
H3045 C3055 0.929 . S
H3046 C3050 0.929 1_556 S
H3047 C3056 0.929 1_554 S
C3048 H3042 0.930 . S
C3048 C3049 1.367 . S
C3048 C3056 1.378 . S
C3049 C3048 1.367 . S
C3049 C3057 1.433 . S
C3050 H3046 0.929 1_554 S
C3050 C3052 1.378 . S
C3050 C3054 1.350 . S
C3051 C3054 1.463 1_556 S
C3051 C3056 1.350 . S
C3051 N3059 1.427 . S
C3052 H3043 0.930 . S
C3052 C3050 1.378 . S
C3052 C3053 1.367 . S
C3053 C3052 1.367 . S
C3053 C3055 1.433 . S
C3054 C3050 1.350 . S
C3054 C3051 1.463 1_554 S
C3054 N3058 1.427 . S
C3055 H3045 0.929 . S
C3055 C3053 1.433 . S
C3055 N3058 1.384 . S
C3056 H3047 0.929 1_556 S
C3056 C3048 1.378 . S
C3056 C3051 1.350 . S
C3057 H3044 0.929 . S
C3057 C3049 1.433 . S
C3057 N3059 1.384 . S
N3058 C3054 1.427 . S
N3058 C3055 1.384 . S
N3059 C3051 1.427 . S
N3059 C3057 1.384 . S
H3060 C3066 0.930 . S
H3061 C3070 0.930 . S
H3062 C3075 0.929 . S
H3063 C3073 0.929 . S
H3064 C3068 0.929 1_554 S
H3065 C3074 0.929 1_556 S
C3066 H3060 0.930 . S
C3066 C3067 1.367 . S
C3066 C3074 1.378 . S
C3067 C3066 1.367 . S
C3067 C3075 1.433 . S
C3068 H3064 0.929 1_556 S
C3068 C3070 1.378 . S
C3068 C3072 1.350 . S
C3069 C3072 1.463 1_554 S
C3069 C3074 1.350 . S
C3069 N3077 1.427 . S
C3070 H3061 0.930 . S
C3070 C3068 1.378 . S
C3070 C3071 1.367 . S
C3071 C3070 1.367 . S
C3071 C3073 1.433 . S
C3072 C3068 1.350 . S
C3072 C3069 1.463 1_556 S
C3072 N3076 1.427 . S
C3073 H3063 0.929 . S
C3073 C3071 1.433 . S
C3073 N3076 1.384 . S
C3074 H3065 0.929 1_554 S
C3074 C3066 1.378 . S
C3074 C3069 1.350 . S
C3075 H3062 0.929 . S
C3075 C3067 1.433 . S
C3075 N3077 1.384 . S
N3076 C3072 1.427 . S
N3076 C3073 1.384 . S
N3077 C3069 1.427 . S
N3077 C3075 1.384 . S
H3078 C3084 0.930 . S
H3079 C3088 0.930 . S
H3080 C3093 0.929 . S
H3081 C3091 0.929 . S
H3082 C3086 0.929 . S
H3083 C3092 0.929 . S
C3084 H3078 0.930 . S
C3084 C3085 1.367 . S
C3084 C3092 1.378 . S
C3085 C3084 1.367 . S
C3085 C3093 1.433 . S
C3086 H3082 0.929 . S
C3086 C3088 1.378 . S
C3086 C3090 1.350 . S
C3087 C3090 1.463 . S
C3087 C3092 1.350 . S
C3087 N3095 1.427 . S
C3088 H3079 0.930 . S
C3088 C3086 1.378 . S
C3088 C3089 1.367 . S
C3089 C3088 1.367 . S
C3089 C3091 1.433 . S
C3090 C3086 1.350 . S
C3090 C3087 1.463 . S
C3090 N3094 1.427 . S
C3091 H3081 0.929 . S
C3091 C3089 1.433 . S
C3091 N3094 1.384 . S
C3092 H3083 0.929 . S
C3092 C3084 1.378 . S
C3092 C3087 1.350 . S
C3093 H3080 0.929 . S
C3093 C3085 1.433 . S
C3093 N3095 1.384 . S
N3094 C3090 1.427 . S
N3094 C3091 1.384 . S
N3095 C3087 1.427 . S
N3095 C3093 1.384 . S
H3096 C3102 0.930 . S
H3097 C3106 0.930 . S
H3098 C3111 0.929 . S
H3099 C3109 0.929 . S
H3100 C3104 0.929 . S
H3101 C3110 0.929 . S
C3102 H3096 0.930 . S
C3102 C3103 1.367 . S
C3102 C3110 1.378 . S
C3103 C3102 1.367 . S
C3103 C3111 1.433 . S
C3104 H3100 0.929 . S
C3104 C3106 1.378 . S
C3104 C3108 1.350 . S
C3105 C3108 1.463 . S
C3105 C3110 1.350 . S
C3105 N3113 1.427 . S
C3106 H3097 0.930 . S
C3106 C3104 1.378 . S
C3106 C3107 1.367 . S
C3107 C3106 1.367 . S
C3107 C3109 1.433 . S
C3108 C3104 1.350 . S
C3108 C3105 1.463 . S
C3108 N3112 1.427 . S
C3109 H3099 0.929 . S
C3109 C3107 1.433 . S
C3109 N3112 1.384 . S
C3110 H3101 0.929 . S
C3110 C3102 1.378 . S
C3110 C3105 1.350 . S
C3111 H3098 0.929 . S
C3111 C3103 1.433 . S
C3111 N3113 1.384 . S
N3112 C3108 1.427 . S
N3112 C3109 1.384 . S
N3113 C3105 1.427 . S
N3113 C3111 1.384 . S
H3114 C3120 0.930 . S
H3115 C3124 0.930 . S
H3116 C3129 0.929 . S
H3117 C3127 0.929 . S
H3118 C3122 0.929 . S
H3119 C3128 0.929 . S
C3120 H3114 0.930 . S
C3120 C3121 1.367 . S
C3120 C3128 1.378 . S
C3121 C3120 1.367 . S
C3121 C3129 1.433 . S
C3122 H3118 0.929 . S
C3122 C3124 1.378 . S
C3122 C3126 1.350 . S
C3123 C3126 1.463 . S
C3123 C3128 1.350 . S
C3123 N3131 1.427 . S
C3124 H3115 0.930 . S
C3124 C3122 1.378 . S
C3124 C3125 1.367 . S
C3125 C3124 1.367 . S
C3125 C3127 1.433 . S
C3126 C3122 1.350 . S
C3126 C3123 1.463 . S
C3126 N3130 1.427 . S
C3127 H3117 0.929 . S
C3127 C3125 1.433 . S
C3127 N3130 1.384 . S
C3128 H3119 0.929 . S
C3128 C3120 1.378 . S
C3128 C3123 1.350 . S
C3129 H3116 0.929 . S
C3129 C3121 1.433 . S
C3129 N3131 1.384 . S
N3130 C3126 1.427 . S
N3130 C3127 1.384 . S
N3131 C3123 1.427 . S
N3131 C3129 1.384 . S
H3132 C3138 0.930 . S
H3133 C3142 0.930 . S
H3134 C3147 0.929 . S
H3135 C3145 0.929 . S
H3136 C3140 0.929 . S
H3137 C3146 0.929 . S
C3138 H3132 0.930 . S
C3138 C3139 1.367 . S
C3138 C3146 1.378 . S
C3139 C3138 1.367 . S
C3139 C3147 1.433 . S
C3140 H3136 0.929 . S
C3140 C3142 1.378 . S
C3140 C3144 1.350 . S
C3141 C3144 1.463 . S
C3141 C3146 1.350 . S
C3141 N3149 1.427 . S
C3142 H3133 0.930 . S
C3142 C3140 1.378 . S
C3142 C3143 1.367 . S
C3143 C3142 1.367 . S
C3143 C3145 1.433 . S
C3144 C3140 1.350 . S
C3144 C3141 1.463 . S
C3144 N3148 1.427 . S
C3145 H3135 0.929 . S
C3145 C3143 1.433 . S
C3145 N3148 1.384 . S
C3146 H3137 0.929 . S
C3146 C3138 1.378 . S
C3146 C3141 1.350 . S
C3147 H3134 0.929 . S
C3147 C3139 1.433 . S
C3147 N3149 1.384 . S
N3148 C3144 1.427 . S
N3148 C3145 1.384 . S
N3149 C3141 1.427 . S
N3149 C3147 1.384 . S
H3150 C3156 0.930 . S
H3151 C3160 0.930 . S
H3152 C3165 0.929 . S
H3153 C3163 0.929 . S
H3154 C3158 0.929 . S
H3155 C3164 0.929 . S
C3156 H3150 0.930 . S
C3156 C3157 1.367 . S
C3156 C3164 1.378 . S
C3157 C3156 1.367 . S
C3157 C3165 1.433 . S
C3158 H3154 0.929 . S
C3158 C3160 1.378 . S
C3158 C3162 1.350 . S
C3159 C3162 1.463 . S
C3159 C3164 1.350 . S
C3159 N3167 1.427 . S
C3160 H3151 0.930 . S
C3160 C3158 1.378 . S
C3160 C3161 1.367 . S
C3161 C3160 1.367 . S
C3161 C3163 1.433 . S
C3162 C3158 1.350 . S
C3162 C3159 1.463 . S
C3162 N3166 1.427 . S
C3163 H3153 0.929 . S
C3163 C3161 1.433 . S
C3163 N3166 1.384 . S
C3164 H3155 0.929 . S
C3164 C3156 1.378 . S
C3164 C3159 1.350 . S
C3165 H3152 0.929 . S
C3165 C3157 1.433 . S
C3165 N3167 1.384 . S
N3166 C3162 1.427 . S
N3166 C3163 1.384 . S
N3167 C3159 1.427 . S
N3167 C3165 1.384 . S
H3168 C3174 0.930 . S
H3169 C3178 0.930 . S
H3170 C3183 0.929 . S
H3171 C3181 0.929 . S
H3172 C3176 0.929 . S
H3173 C3182 0.929 . S
C3174 H3168 0.930 . S
C3174 C3175 1.367 . S
C3174 C3182 1.378 . S
C3175 C3174 1.367 . S
C3175 C3183 1.433 . S
C3176 H3172 0.929 . S
C3176 C3178 1.378 . S
C3176 C3180 1.350 . S
C3177 C3180 1.463 . S
C3177 C3182 1.350 . S
C3177 N3185 1.427 . S
C3178 H3169 0.930 . S
C3178 C3176 1.378 . S
C3178 C3179 1.367 . S
C3179 C3178 1.367 . S
C3179 C3181 1.433 . S
C3180 C3176 1.350 . S
C3180 C3177 1.463 . S
C3180 N3184 1.427 . S
C3181 H3171 0.929 . S
C3181 C3179 1.433 . S
C3181 N3184 1.384 . S
C3182 H3173 0.929 . S
C3182 C3174 1.378 . S
C3182 C3177 1.350 . S
C3183 H3170 0.929 . S
C3183 C3175 1.433 . S
C3183 N3185 1.384 . S
N3184 C3180 1.427 . S
N3184 C3181 1.384 . S
N3185 C3177 1.427 . S
N3185 C3183 1.384 . S
H3186 C3192 0.930 . S
H3187 C3196 0.930 . S
H3188 C3201 0.929 . S
H3189 C3199 0.929 . S
H3190 C3194 0.929 . S
H3191 C3200 0.929 . S
C3192 H3186 0.930 . S
C3192 C3193 1.367 . S
C3192 C3200 1.378 . S
C3193 C3192 1.367 . S
C3193 C3201 1.433 . S
C3194 H3190 0.929 . S
C3194 C3196 1.378 . S
C3194 C3198 1.350 . S
C3195 C3198 1.463 . S
C3195 C3200 1.350 . S
C3195 N3203 1.427 . S
C3196 H3187 0.930 . S
C3196 C3194 1.378 . S
C3196 C3197 1.367 . S
C3197 C3196 1.367 . S
C3197 C3199 1.433 . S
C3198 C3194 1.350 . S
C3198 C3195 1.463 . S
C3198 N3202 1.427 . S
C3199 H3189 0.929 . S
C3199 C3197 1.433 . S
C3199 N3202 1.384 . S
C3200 H3191 0.929 . S
C3200 C3192 1.378 . S
C3200 C3195 1.350 . S
C3201 H3188 0.929 . S
C3201 C3193 1.433 . S
C3201 N3203 1.384 . S
N3202 C3198 1.427 . S
N3202 C3199 1.384 . S
N3203 C3195 1.427 . S
N3203 C3201 1.384 . S
H3204 C3210 0.930 . S
H3205 C3214 0.930 . S
H3206 C3219 0.929 . S
H3207 C3217 0.929 . S
H3208 C3212 0.929 . S
H3209 C3218 0.929 . S
C3210 H3204 0.930 . S
C3210 C3211 1.367 . S
C3210 C3218 1.378 . S
C3211 C3210 1.367 . S
C3211 C3219 1.433 . S
C3212 H3208 0.929 . S
C3212 C3214 1.378 . S
C3212 C3216 1.350 . S
C3213 C3216 1.463 . S
C3213 C3218 1.350 . S
C3213 N3221 1.427 . S
C3214 H3205 0.930 . S
C3214 C3212 1.378 . S
C3214 C3215 1.367 . S
C3215 C3214 1.367 . S
C3215 C3217 1.433 . S
C3216 C3212 1.350 . S
C3216 C3213 1.463 . S
C3216 N3220 1.427 . S
C3217 H3207 0.929 . S
C3217 C3215 1.433 . S
C3217 N3220 1.384 . S
C3218 H3209 0.929 . S
C3218 C3210 1.378 . S
C3218 C3213 1.350 . S
C3219 H3206 0.929 . S
C3219 C3211 1.433 . S
C3219 N3221 1.384 . S
N3220 C3216 1.427 . S
N3220 C3217 1.384 . S
N3221 C3213 1.427 . S
N3221 C3219 1.384 . S
H3222 C3228 0.930 . S
H3223 C3232 0.930 . S
H3224 C3237 0.929 . S
H3225 C3235 0.929 . S
H3226 C3230 0.929 . S
H3227 C3236 0.929 . S
C3228 H3222 0.930 . S
C3228 C3229 1.367 . S
C3228 C3236 1.378 . S
C3229 C3228 1.367 . S
C3229 C3237 1.433 . S
C3230 H3226 0.929 . S
C3230 C3232 1.378 . S
C3230 C3234 1.350 . S
C3231 C3234 1.463 . S
C3231 C3236 1.350 . S
C3231 N3239 1.427 . S
C3232 H3223 0.930 . S
C3232 C3230 1.378 . S
C3232 C3233 1.367 . S
C3233 C3232 1.367 . S
C3233 C3235 1.433 . S
C3234 C3230 1.350 . S
C3234 C3231 1.463 . S
C3234 N3238 1.427 . S
C3235 H3225 0.929 . S
C3235 C3233 1.433 . S
C3235 N3238 1.384 . S
C3236 H3227 0.929 . S
C3236 C3228 1.378 . S
C3236 C3231 1.350 . S
C3237 H3224 0.929 . S
C3237 C3229 1.433 . S
C3237 N3239 1.384 . S
N3238 C3234 1.427 . S
N3238 C3235 1.384 . S
N3239 C3231 1.427 . S
N3239 C3237 1.384 . S
H3240 C3246 0.930 . S
H3241 C3250 0.930 . S
H3242 C3255 0.929 . S
H3243 C3253 0.929 . S
H3244 C3248 0.929 . S
H3245 C3254 0.929 . S
C3246 H3240 0.930 . S
C3246 C3247 1.367 . S
C3246 C3254 1.378 . S
C3247 C3246 1.367 . S
C3247 C3255 1.433 . S
C3248 H3244 0.929 . S
C3248 C3250 1.378 . S
C3248 C3252 1.350 . S
C3249 C3252 1.463 . S
C3249 C3254 1.350 . S
C3249 N3257 1.427 . S
C3250 H3241 0.930 . S
C3250 C3248 1.378 . S
C3250 C3251 1.367 . S
C3251 C3250 1.367 . S
C3251 C3253 1.433 . S
C3252 C3248 1.350 . S
C3252 C3249 1.463 . S
C3252 N3256 1.427 . S
C3253 H3243 0.929 . S
C3253 C3251 1.433 . S
C3253 N3256 1.384 . S
C3254 H3245 0.929 . S
C3254 C3246 1.378 . S
C3254 C3249 1.350 . S
C3255 H3242 0.929 . S
C3255 C3247 1.433 . S
C3255 N3257 1.384 . S
N3256 C3252 1.427 . S
N3256 C3253 1.384 . S
N3257 C3249 1.427 . S
N3257 C3255 1.384 . S
H3258 C3264 0.930 . S
H3259 C3268 0.930 . S
H3260 C3273 0.929 . S
H3261 C3271 0.929 . S
H3262 C3266 0.929 . S
H3263 C3272 0.929 . S
C3264 H3258 0.930 . S
C3264 C3265 1.367 . S
C3264 C3272 1.378 . S
C3265 C3264 1.367 . S
C3265 C3273 1.433 . S
C3266 H3262 0.929 . S
C3266 C3268 1.378 . S
C3266 C3270 1.350 . S
C3267 C3270 1.463 1_565 S
C3267 C3272 1.350 . S
C3267 N3275 1.427 . S
C3268 H3259 0.930 . S
C3268 C3266 1.378 . S
C3268 C3269 1.367 . S
C3269 C3268 1.367 . S
C3269 C3271 1.433 . S
C3270 C3266 1.350 . S
C3270 C3267 1.463 1_545 S
C3270 N3274 1.427 . S
C3271 H3261 0.929 . S
C3271 C3269 1.433 . S
C3271 N3274 1.384 . S
C3272 H3263 0.929 . S
C3272 C3264 1.378 . S
C3272 C3267 1.350 . S
C3273 H3260 0.929 . S
C3273 C3265 1.433 . S
C3273 N3275 1.384 . S
N3274 C3270 1.427 . S
N3274 C3271 1.384 . S
N3275 C3267 1.427 . S
N3275 C3273 1.384 . S
H3276 C3282 0.930 . S
H3277 C3286 0.930 . S
H3278 C3291 0.929 . S
H3279 C3289 0.929 . S
H3280 C3284 0.929 . S
H3281 C3290 0.929 . S
C3282 H3276 0.930 . S
C3282 C3283 1.367 . S
C3282 C3290 1.378 . S
C3283 C3282 1.367 . S
C3283 C3291 1.433 . S
C3284 H3280 0.929 . S
C3284 C3286 1.378 . S
C3284 C3288 1.350 . S
C3285 C3288 1.463 1_655 S
C3285 C3290 1.350 . S
C3285 N3293 1.427 . S
C3286 H3277 0.930 . S
C3286 C3284 1.378 . S
C3286 C3287 1.367 . S
C3287 C3286 1.367 . S
C3287 C3289 1.433 . S
C3288 C3284 1.350 . S
C3288 C3285 1.463 1_455 S
C3288 N3292 1.427 . S
C3289 H3279 0.929 . S
C3289 C3287 1.433 . S
C3289 N3292 1.384 . S
C3290 H3281 0.929 . S
C3290 C3282 1.378 . S
C3290 C3285 1.350 . S
C3291 H3278 0.929 . S
C3291 C3283 1.433 . S
C3291 N3293 1.384 . S
N3292 C3288 1.427 . S
N3292 C3289 1.384 . S
N3293 C3285 1.427 . S
N3293 C3291 1.384 . S
H3294 C3300 0.930 . S
H3295 C3304 0.930 . S
H3296 C3309 0.929 . S
H3297 C3307 0.929 . S
H3298 C3302 0.929 . S
H3299 C3308 0.929 . S
C3300 H3294 0.930 . S
C3300 C3301 1.367 . S
C3300 C3308 1.378 . S
C3301 C3300 1.367 . S
C3301 C3309 1.433 . S
C3302 H3298 0.929 . S
C3302 C3304 1.378 . S
C3302 C3306 1.350 . S
C3303 C3306 1.463 . S
C3303 C3308 1.350 . S
C3303 N3311 1.427 . S
C3304 H3295 0.930 . S
C3304 C3302 1.378 . S
C3304 C3305 1.367 . S
C3305 C3304 1.367 . S
C3305 C3307 1.433 . S
C3306 C3302 1.350 . S
C3306 C3303 1.463 . S
C3306 N3310 1.427 . S
C3307 H3297 0.929 . S
C3307 C3305 1.433 . S
C3307 N3310 1.384 . S
C3308 H3299 0.929 . S
C3308 C3300 1.378 . S
C3308 C3303 1.350 . S
C3309 H3296 0.929 . S
C3309 C3301 1.433 . S
C3309 N3311 1.384 . S
N3310 C3306 1.427 . S
N3310 C3307 1.384 . S
N3311 C3303 1.427 . S
N3311 C3309 1.384 . S
H3312 C3318 0.930 . S
H3313 C3322 0.930 . S
H3314 C3327 0.929 . S
H3315 C3325 0.929 . S
H3316 C3320 0.929 1_545 S
H3317 C3326 0.929 1_565 S
C3318 H3312 0.930 . S
C3318 C3319 1.367 . S
C3318 C3326 1.378 . S
C3319 C3318 1.367 . S
C3319 C3327 1.433 . S
C3320 H3316 0.929 1_565 S
C3320 C3322 1.378 . S
C3320 C3324 1.350 . S
C3321 C3324 1.463 1_545 S
C3321 C3326 1.350 . S
C3321 N3329 1.427 . S
C3322 H3313 0.930 . S
C3322 C3320 1.378 . S
C3322 C3323 1.367 . S
C3323 C3322 1.367 . S
C3323 C3325 1.433 . S
C3324 C3320 1.350 . S
C3324 C3321 1.463 1_565 S
C3324 N3328 1.427 . S
C3325 H3315 0.929 . S
C3325 C3323 1.433 . S
C3325 N3328 1.384 . S
C3326 H3317 0.929 1_545 S
C3326 C3318 1.378 . S
C3326 C3321 1.350 . S
C3327 H3314 0.929 . S
C3327 C3319 1.433 . S
C3327 N3329 1.384 . S
N3328 C3324 1.427 . S
N3328 C3325 1.384 . S
N3329 C3321 1.427 . S
N3329 C3327 1.384 . S
H3330 C3336 0.930 . S
H3331 C3340 0.930 . S
H3332 C3345 0.929 . S
H3333 C3343 0.929 . S
H3334 C3338 0.929 . S
H3335 C3344 0.929 . S
C3336 H3330 0.930 . S
C3336 C3337 1.367 . S
C3336 C3344 1.378 . S
C3337 C3336 1.367 . S
C3337 C3345 1.433 . S
C3338 H3334 0.929 . S
C3338 C3340 1.378 . S
C3338 C3342 1.350 . S
C3339 C3342 1.463 1_455 S
C3339 C3344 1.350 . S
C3339 N3347 1.427 . S
C3340 H3331 0.930 . S
C3340 C3338 1.378 . S
C3340 C3341 1.367 . S
C3341 C3340 1.367 . S
C3341 C3343 1.433 . S
C3342 C3338 1.350 . S
C3342 C3339 1.463 1_655 S
C3342 N3346 1.427 . S
C3343 H3333 0.929 . S
C3343 C3341 1.433 . S
C3343 N3346 1.384 . S
C3344 H3335 0.929 . S
C3344 C3336 1.378 . S
C3344 C3339 1.350 . S
C3345 H3332 0.929 . S
C3345 C3337 1.433 . S
C3345 N3347 1.384 . S
N3346 C3342 1.427 . S
N3346 C3343 1.384 . S
N3347 C3339 1.427 . S
N3347 C3345 1.384 . S
H3348 C3354 0.930 1_655 S
H3349 C3358 0.930 1_455 S
H3350 C3363 0.929 . S
H3351 C3361 0.929 . S
H3352 C3356 0.929 . S
H3353 C3362 0.929 . S
C3354 H3348 0.930 1_455 S
C3354 C3355 1.367 . S
C3354 C3362 1.378 1_455 S
C3355 C3354 1.367 . S
C3355 C3363 1.433 . S
C3356 H3352 0.929 . S
C3356 C3358 1.378 1_455 S
C3356 C3360 1.350 1_455 S
C3357 C3360 1.463 1_455 S
C3357 C3362 1.350 1_455 S
C3357 N3365 1.427 . S
C3358 H3349 0.930 1_655 S
C3358 C3356 1.378 1_655 S
C3358 C3359 1.367 . S
C3359 C3358 1.367 . S
C3359 C3361 1.433 . S
C3360 C3356 1.350 1_655 S
C3360 C3357 1.463 1_655 S
C3360 N3364 1.427 . S
C3361 H3351 0.929 . S
C3361 C3359 1.433 . S
C3361 N3364 1.384 . S
C3362 H3353 0.929 . S
C3362 C3354 1.378 1_655 S
C3362 C3357 1.350 1_655 S
C3363 H3350 0.929 . S
C3363 C3355 1.433 . S
C3363 N3365 1.384 . S
N3364 C3360 1.427 . S
N3364 C3361 1.384 . S
N3365 C3357 1.427 . S
N3365 C3363 1.384 . S
H3366 C3372 0.930 . S
H3367 C3376 0.930 . S
H3368 C3381 0.929 . S
H3369 C3379 0.929 . S
H3370 C3374 0.929 . S
H3371 C3380 0.929 . S
C3372 H3366 0.930 . S
C3372 C3373 1.367 . S
C3372 C3380 1.378 . S
C3373 C3372 1.367 . S
C3373 C3381 1.433 . S
C3374 H3370 0.929 . S
C3374 C3376 1.378 . S
C3374 C3378 1.350 . S
C3375 C3378 1.463 . S
C3375 C3380 1.350 . S
C3375 N3383 1.427 . S
C3376 H3367 0.930 . S
C3376 C3374 1.378 . S
C3376 C3377 1.367 . S
C3377 C3376 1.367 . S
C3377 C3379 1.433 . S
C3378 C3374 1.350 . S
C3378 C3375 1.463 . S
C3378 N3382 1.427 . S
C3379 H3369 0.929 . S
C3379 C3377 1.433 . S
C3379 N3382 1.384 . S
C3380 H3371 0.929 . S
C3380 C3372 1.378 . S
C3380 C3375 1.350 . S
C3381 H3368 0.929 . S
C3381 C3373 1.433 . S
C3381 N3383 1.384 . S
N3382 C3378 1.427 . S
N3382 C3379 1.384 . S
N3383 C3375 1.427 . S
N3383 C3381 1.384 . S
H3384 C3390 0.930 . S
H3385 C3394 0.930 . S
H3386 C3399 0.929 . S
H3387 C3397 0.929 . S
H3388 C3392 0.929 . S
H3389 C3398 0.929 . S
C3390 H3384 0.930 . S
C3390 C3391 1.367 . S
C3390 C3398 1.378 1_565 S
C3391 C3390 1.367 . S
C3391 C3399 1.433 . S
C3392 H3388 0.929 . S
C3392 C3394 1.378 1_565 S
C3392 C3396 1.350 1_565 S
C3393 C3396 1.463 1_565 S
C3393 C3398 1.350 1_565 S
C3393 N3401 1.427 . S
C3394 H3385 0.930 . S
C3394 C3392 1.378 1_545 S
C3394 C3395 1.367 . S
C3395 C3394 1.367 . S
C3395 C3397 1.433 . S
C3396 C3392 1.350 1_545 S
C3396 C3393 1.463 1_545 S
C3396 N3400 1.427 . S
C3397 H3387 0.929 . S
C3397 C3395 1.433 . S
C3397 N3400 1.384 . S
C3398 H3389 0.929 . S
C3398 C3390 1.378 1_545 S
C3398 C3393 1.350 1_545 S
C3399 H3386 0.929 . S
C3399 C3391 1.433 . S
C3399 N3401 1.384 . S
N3400 C3396 1.427 . S
N3400 C3397 1.384 . S
N3401 C3393 1.427 . S
N3401 C3399 1.384 . S
H3402 C3408 0.930 . S
H3403 C3412 0.930 . S
H3404 C3417 0.929 . S
H3405 C3415 0.929 . S
H3406 C3410 0.929 . S
H3407 C3416 0.929 . S
C3408 H3402 0.930 . S
C3408 C3409 1.367 . S
C3408 C3416 1.378 . S
C3409 C3408 1.367 . S
C3409 C3417 1.433 . S
C3410 H3406 0.929 . S
C3410 C3412 1.378 . S
C3410 C3414 1.350 . S
C3411 C3414 1.463 1_655 S
C3411 C3416 1.350 . S
C3411 N3419 1.427 . S
C3412 H3403 0.930 . S
C3412 C3410 1.378 . S
C3412 C3413 1.367 . S
C3413 C3412 1.367 . S
C3413 C3415 1.433 . S
C3414 C3410 1.350 . S
C3414 C3411 1.463 1_455 S
C3414 N3418 1.427 . S
C3415 H3405 0.929 . S
C3415 C3413 1.433 . S
C3415 N3418 1.384 . S
C3416 H3407 0.929 . S
C3416 C3408 1.378 . S
C3416 C3411 1.350 . S
C3417 H3404 0.929 . S
C3417 C3409 1.433 . S
C3417 N3419 1.384 . S
N3418 C3414 1.427 . S
N3418 C3415 1.384 . S
N3419 C3411 1.427 . S
N3419 C3417 1.384 . S
H3420 C3426 0.930 . S
H3421 C3430 0.930 . S
H3422 C3435 0.929 . S
H3423 C3433 0.929 . S
H3424 C3428 0.929 . S
H3425 C3434 0.929 . S
C3426 H3420 0.930 . S
C3426 C3427 1.367 . S
C3426 C3434 1.378 . S
C3427 C3426 1.367 . S
C3427 C3435 1.433 . S
C3428 H3424 0.929 . S
C3428 C3430 1.378 . S
C3428 C3432 1.350 . S
C3429 C3432 1.463 . S
C3429 C3434 1.350 . S
C3429 N3437 1.427 . S
C3430 H3421 0.930 . S
C3430 C3428 1.378 . S
C3430 C3431 1.367 . S
C3431 C3430 1.367 . S
C3431 C3433 1.433 . S
C3432 C3428 1.350 . S
C3432 C3429 1.463 . S
C3432 N3436 1.427 . S
C3433 H3423 0.929 . S
C3433 C3431 1.433 . S
C3433 N3436 1.384 . S
C3434 H3425 0.929 . S
C3434 C3426 1.378 . S
C3434 C3429 1.350 . S
C3435 H3422 0.929 . S
C3435 C3427 1.433 . S
C3435 N3437 1.384 . S
N3436 C3432 1.427 . S
N3436 C3433 1.384 . S
N3437 C3429 1.427 . S
N3437 C3435 1.384 . S
H3438 C3444 0.930 . S
H3439 C3448 0.930 . S
H3440 C3453 0.929 . S
H3441 C3451 0.929 . S
H3442 C3446 0.986 . S
H3443 C3452 0.982 . S
C3444 H3438 0.930 . S
C3444 C3445 1.367 . S
C3444 C3452 1.356 1_545 S
C3445 C3444 1.367 . S
C3445 C3453 1.433 . S
C3446 H3442 0.986 . S
C3446 C3448 1.354 1_545 S
C3446 C3450 1.318 1_545 S
C3447 C3450 1.463 1_545 S
C3447 C3452 1.320 1_545 S
C3447 N3455 1.427 . S
C3448 H3439 0.930 . S
C3448 C3446 1.354 1_565 S
C3448 C3449 1.367 . S
C3449 C3448 1.367 . S
C3449 C3451 1.433 . S
C3450 C3446 1.318 1_565 S
C3450 C3447 1.463 1_565 S
C3450 N3454 1.427 . S
C3451 H3441 0.929 . S
C3451 C3449 1.433 . S
C3451 N3454 1.384 . S
C3452 H3443 0.982 . S
C3452 C3444 1.356 1_565 S
C3452 C3447 1.320 1_565 S
C3453 H3440 0.929 . S
C3453 C3445 1.433 . S
C3453 N3455 1.384 . S
N3454 C3450 1.427 . S
N3454 C3451 1.384 . S
N3455 C3447 1.427 . S
N3455 C3453 1.384 . S
H3456 C3462 0.930 . S
H3457 C3466 0.930 . S
H3458 C3471 0.929 . S
H3459 C3469 0.929 . S
H3460 C3464 0.929 . S
H3461 C3470 0.929 . S
C3462 H3456 0.930 . S
C3462 C3463 1.367 . S
C3462 C3470 1.378 . S
C3463 C3462 1.367 . S
C3463 C3471 1.433 . S
C3464 H3460 0.929 . S
C3464 C3466 1.378 . S
C3464 C3468 1.350 . S
C3465 C3468 1.463 . S
C3465 C3470 1.350 . S
C3465 N3473 1.427 . S
C3466 H3457 0.930 . S
C3466 C3464 1.378 . S
C3466 C3467 1.367 . S
C3467 C3466 1.367 . S
C3467 C3469 1.433 . S
C3468 C3464 1.350 . S
C3468 C3465 1.463 . S
C3468 N3472 1.427 . S
C3469 H3459 0.929 . S
C3469 C3467 1.433 . S
C3469 N3472 1.384 . S
C3470 H3461 0.929 . S
C3470 C3462 1.378 . S
C3470 C3465 1.350 . S
C3471 H3458 0.929 . S
C3471 C3463 1.433 . S
C3471 N3473 1.384 . S
N3472 C3468 1.427 . S
N3472 C3469 1.384 . S
N3473 C3465 1.427 . S
N3473 C3471 1.384 . S
H3474 C3480 0.930 . S
H3475 C3484 0.930 . S
H3476 C3489 0.929 . S
H3477 C3487 0.929 . S
H3478 C3482 0.929 . S
H3479 C3488 0.929 . S
C3480 H3474 0.930 . S
C3480 C3481 1.367 . S
C3480 C3488 1.378 . S
C3481 C3480 1.367 . S
C3481 C3489 1.433 . S
C3482 H3478 0.929 . S
C3482 C3484 1.378 . S
C3482 C3486 1.350 . S
C3483 C3486 1.463 . S
C3483 C3488 1.350 . S
C3483 N3491 1.427 . S
C3484 H3475 0.930 . S
C3484 C3482 1.378 . S
C3484 C3485 1.367 . S
C3485 C3484 1.367 . S
C3485 C3487 1.433 . S
C3486 C3482 1.350 . S
C3486 C3483 1.463 . S
C3486 N3490 1.427 . S
C3487 H3477 0.929 . S
C3487 C3485 1.433 . S
C3487 N3490 1.384 . S
C3488 H3479 0.929 . S
C3488 C3480 1.378 . S
C3488 C3483 1.350 . S
C3489 H3476 0.929 . S
C3489 C3481 1.433 . S
C3489 N3491 1.384 . S
N3490 C3486 1.427 . S
N3490 C3487 1.384 . S
N3491 C3483 1.427 . S
N3491 C3489 1.384 . S
H3492 C3498 0.930 . S
H3493 C3502 0.930 . S
H3494 C3507 0.929 . S
H3495 C3505 0.929 . S
H3496 C3500 0.929 . S
H3497 C3506 0.929 . S
C3498 H3492 0.930 . S
C3498 C3499 1.367 . S
C3498 C3506 1.378 . S
C3499 C3498 1.367 . S
C3499 C3507 1.433 . S
C3500 H3496 0.929 . S
C3500 C3502 1.378 . S
C3500 C3504 1.350 . S
C3501 C3504 1.463 . S
C3501 C3506 1.350 . S
C3501 N3509 1.427 . S
C3502 H3493 0.930 . S
C3502 C3500 1.378 . S
C3502 C3503 1.367 . S
C3503 C3502 1.367 . S
C3503 C3505 1.433 . S
C3504 C3500 1.350 . S
C3504 C3501 1.463 . S
C3504 N3508 1.427 . S
C3505 H3495 0.929 . S
C3505 C3503 1.433 . S
C3505 N3508 1.384 . S
C3506 H3497 0.929 . S
C3506 C3498 1.378 . S
C3506 C3501 1.350 . S
C3507 H3494 0.929 . S
C3507 C3499 1.433 . S
C3507 N3509 1.384 . S
N3508 C3504 1.427 . S
N3508 C3505 1.384 . S
N3509 C3501 1.427 . S
N3509 C3507 1.384 . S
H3510 C3516 0.930 . S
H3511 C3520 0.930 . S
H3512 C3525 0.929 . S
H3513 C3523 0.929 . S
H3514 C3518 0.929 . S
H3515 C3524 0.929 . S
C3516 H3510 0.930 . S
C3516 C3517 1.367 . S
C3516 C3524 1.378 . S
C3517 C3516 1.367 . S
C3517 C3525 1.433 . S
C3518 H3514 0.929 . S
C3518 C3520 1.378 . S
C3518 C3522 1.350 . S
C3519 C3522 1.463 . S
C3519 C3524 1.350 . S
C3519 N3527 1.427 . S
C3520 H3511 0.930 . S
C3520 C3518 1.378 . S
C3520 C3521 1.367 . S
C3521 C3520 1.367 . S
C3521 C3523 1.433 . S
C3522 C3518 1.350 . S
C3522 C3519 1.463 . S
C3522 N3526 1.427 . S
C3523 H3513 0.929 . S
C3523 C3521 1.433 . S
C3523 N3526 1.384 . S
C3524 H3515 0.929 . S
C3524 C3516 1.378 . S
C3524 C3519 1.350 . S
C3525 H3512 0.929 . S
C3525 C3517 1.433 . S
C3525 N3527 1.384 . S
N3526 C3522 1.427 . S
N3526 C3523 1.384 . S
N3527 C3519 1.427 . S
N3527 C3525 1.384 . S
H3528 C3534 0.930 . S
H3529 C3538 0.930 . S
H3530 C3543 0.929 . S
H3531 C3541 0.929 . S
H3532 C3536 0.929 . S
H3533 C3542 0.929 . S
C3534 H3528 0.930 . S
C3534 C3535 1.367 . S
C3534 C3542 1.378 . S
C3535 C3534 1.367 . S
C3535 C3543 1.433 . S
C3536 H3532 0.929 . S
C3536 C3538 1.378 . S
C3536 C3540 1.350 . S
C3537 C3540 1.463 . S
C3537 C3542 1.350 . S
C3537 N3545 1.427 . S
C3538 H3529 0.930 . S
C3538 C3536 1.378 . S
C3538 C3539 1.367 . S
C3539 C3538 1.367 . S
C3539 C3541 1.433 . S
C3540 C3536 1.350 . S
C3540 C3537 1.463 . S
C3540 N3544 1.427 . S
C3541 H3531 0.929 . S
C3541 C3539 1.433 . S
C3541 N3544 1.384 . S
C3542 H3533 0.929 . S
C3542 C3534 1.378 . S
C3542 C3537 1.350 . S
C3543 H3530 0.929 . S
C3543 C3535 1.433 . S
C3543 N3545 1.384 . S
N3544 C3540 1.427 . S
N3544 C3541 1.384 . S
N3545 C3537 1.427 . S
N3545 C3543 1.384 . S
H3546 C3552 0.930 . S
H3547 C3556 0.930 . S
H3548 C3561 0.929 . S
H3549 C3559 0.929 . S
H3550 C3554 0.929 . S
H3551 C3560 0.929 . S
C3552 H3546 0.930 . S
C3552 C3553 1.367 . S
C3552 C3560 1.378 . S
C3553 C3552 1.367 . S
C3553 C3561 1.433 . S
C3554 H3550 0.929 . S
C3554 C3556 1.378 . S
C3554 C3558 1.350 . S
C3555 C3558 1.463 . S
C3555 C3560 1.350 . S
C3555 N3563 1.427 . S
C3556 H3547 0.930 . S
C3556 C3554 1.378 . S
C3556 C3557 1.367 . S
C3557 C3556 1.367 . S
C3557 C3559 1.433 . S
C3558 C3554 1.350 . S
C3558 C3555 1.463 . S
C3558 N3562 1.427 . S
C3559 H3549 0.929 . S
C3559 C3557 1.433 . S
C3559 N3562 1.384 . S
C3560 H3551 0.929 . S
C3560 C3552 1.378 . S
C3560 C3555 1.350 . S
C3561 H3548 0.929 . S
C3561 C3553 1.433 . S
C3561 N3563 1.384 . S
N3562 C3558 1.427 . S
N3562 C3559 1.384 . S
N3563 C3555 1.427 . S
N3563 C3561 1.384 . S
H3564 C3570 0.930 . S
H3565 C3574 0.930 . S
H3566 C3579 0.929 . S
H3567 C3577 0.929 . S
H3568 C3572 0.929 . S
H3569 C3578 0.929 . S
C3570 H3564 0.930 . S
C3570 C3571 1.367 . S
C3570 C3578 1.378 . S
C3571 C3570 1.367 . S
C3571 C3579 1.433 . S
C3572 H3568 0.929 . S
C3572 C3574 1.378 . S
C3572 C3576 1.350 . S
C3573 C3576 1.463 . S
C3573 C3578 1.350 . S
C3573 N3581 1.427 . S
C3574 H3565 0.930 . S
C3574 C3572 1.378 . S
C3574 C3575 1.367 . S
C3575 C3574 1.367 . S
C3575 C3577 1.433 . S
C3576 C3572 1.350 . S
C3576 C3573 1.463 . S
C3576 N3580 1.427 . S
C3577 H3567 0.929 . S
C3577 C3575 1.433 . S
C3577 N3580 1.384 . S
C3578 H3569 0.929 . S
C3578 C3570 1.378 . S
C3578 C3573 1.350 . S
C3579 H3566 0.929 . S
C3579 C3571 1.433 . S
C3579 N3581 1.384 . S
N3580 C3576 1.427 . S
N3580 C3577 1.384 . S
N3581 C3573 1.427 . S
N3581 C3579 1.384 . S
H3582 C3588 0.930 . S
H3583 C3592 0.930 . S
H3584 C3597 0.929 . S
H3585 C3595 0.929 . S
H3586 C3590 0.929 . S
H3587 C3596 0.929 . S
C3588 H3582 0.930 . S
C3588 C3589 1.367 . S
C3588 C3596 1.378 . S
C3589 C3588 1.367 . S
C3589 C3597 1.433 . S
C3590 H3586 0.929 . S
C3590 C3592 1.378 . S
C3590 C3594 1.350 . S
C3591 C3594 1.463 . S
C3591 C3596 1.350 . S
C3591 N3599 1.427 . S
C3592 H3583 0.930 . S
C3592 C3590 1.378 . S
C3592 C3593 1.367 . S
C3593 C3592 1.367 . S
C3593 C3595 1.433 . S
C3594 C3590 1.350 . S
C3594 C3591 1.463 . S
C3594 N3598 1.427 . S
C3595 H3585 0.929 . S
C3595 C3593 1.433 . S
C3595 N3598 1.384 . S
C3596 H3587 0.929 . S
C3596 C3588 1.378 . S
C3596 C3591 1.350 . S
C3597 H3584 0.929 . S
C3597 C3589 1.433 . S
C3597 N3599 1.384 . S
N3598 C3594 1.427 . S
N3598 C3595 1.384 . S
N3599 C3591 1.427 . S
N3599 C3597 1.384 . S
H3600 C3606 0.930 . S
H3601 C3610 0.930 . S
H3602 C3615 0.929 . S
H3603 C3613 0.929 . S
H3604 C3608 0.929 . S
H3605 C3614 0.929 . S
C3606 H3600 0.930 . S
C3606 C3607 1.367 . S
C3606 C3614 1.378 . S
C3607 C3606 1.367 . S
C3607 C3615 1.433 . S
C3608 H3604 0.929 . S
C3608 C3610 1.378 . S
C3608 C3612 1.350 . S
C3609 C3612 1.463 . S
C3609 C3614 1.350 . S
C3609 N3617 1.427 . S
C3610 H3601 0.930 . S
C3610 C3608 1.378 . S
C3610 C3611 1.367 . S
C3611 C3610 1.367 . S
C3611 C3613 1.433 . S
C3612 C3608 1.350 . S
C3612 C3609 1.463 . S
C3612 N3616 1.427 . S
C3613 H3603 0.929 . S
C3613 C3611 1.433 . S
C3613 N3616 1.384 . S
C3614 H3605 0.929 . S
C3614 C3606 1.378 . S
C3614 C3609 1.350 . S
C3615 H3602 0.929 . S
C3615 C3607 1.433 . S
C3615 N3617 1.384 . S
N3616 C3612 1.427 . S
N3616 C3613 1.384 . S
N3617 C3609 1.427 . S
N3617 C3615 1.384 . S
H3618 C3624 0.930 . S
H3619 C3628 0.930 . S
H3620 C3633 0.929 . S
H3621 C3631 0.929 . S
H3622 C3626 0.929 . S
H3623 C3632 0.929 . S
C3624 H3618 0.930 . S
C3624 C3625 1.367 . S
C3624 C3632 1.378 . S
C3625 C3624 1.367 . S
C3625 C3633 1.433 . S
C3626 H3622 0.929 . S
C3626 C3628 1.378 . S
C3626 C3630 1.350 . S
C3627 C3630 1.463 1_556 S
C3627 C3632 1.350 . S
C3627 N3635 1.427 . S
C3628 H3619 0.930 . S
C3628 C3626 1.378 . S
C3628 C3629 1.367 . S
C3629 C3628 1.367 . S
C3629 C3631 1.433 . S
C3630 C3626 1.350 . S
C3630 C3627 1.463 1_554 S
C3630 N3634 1.427 . S
C3631 H3621 0.929 . S
C3631 C3629 1.433 . S
C3631 N3634 1.384 . S
C3632 H3623 0.929 . S
C3632 C3624 1.378 . S
C3632 C3627 1.350 . S
C3633 H3620 0.929 . S
C3633 C3625 1.433 . S
C3633 N3635 1.384 . S
N3634 C3630 1.427 . S
N3634 C3631 1.384 . S
N3635 C3627 1.427 . S
N3635 C3633 1.384 . S
H3636 C3642 0.930 . S
H3637 C3646 0.930 . S
H3638 C3651 0.929 . S
H3639 C3649 0.929 . S
H3640 C3644 0.929 1_556 S
H3641 C3650 0.914 1_554 S
C3642 H3636 0.930 . S
C3642 C3643 1.367 . S
C3642 C3650 1.378 . S
C3643 C3642 1.367 . S
C3643 C3651 1.433 . S
C3644 H3640 0.929 1_554 S
C3644 C3646 1.378 . S
C3644 C3648 1.350 . S
C3645 C3648 1.463 1_556 S
C3645 C3650 1.350 . S
C3645 N3653 1.427 . S
C3646 H3637 0.930 . S
C3646 C3644 1.378 . S
C3646 C3647 1.367 . S
C3647 C3646 1.367 . S
C3647 C3649 1.433 . S
C3648 C3644 1.350 . S
C3648 C3645 1.463 1_554 S
C3648 N3652 1.427 . S
C3649 H3639 0.929 . S
C3649 C3647 1.433 . S
C3649 N3652 1.384 . S
C3650 H3641 0.914 1_556 S
C3650 C3642 1.378 . S
C3650 C3645 1.350 . S
C3651 H3638 0.929 . S
C3651 C3643 1.433 . S
C3651 N3653 1.384 . S
N3652 C3648 1.427 . S
N3652 C3649 1.384 . S
N3653 C3645 1.427 . S
N3653 C3651 1.384 . S
H3654 C3660 0.930 . S
H3655 C3664 0.930 . S
H3656 C3669 0.929 . S
H3657 C3667 0.929 . S
H3658 C3662 0.929 . S
H3659 C3668 0.929 . S
C3660 H3654 0.930 . S
C3660 C3661 1.367 . S
C3660 C3668 1.378 . S
C3661 C3660 1.367 . S
C3661 C3669 1.433 . S
C3662 H3658 0.929 . S
C3662 C3664 1.378 . S
C3662 C3666 1.350 . S
C3663 C3666 1.463 1_556 S
C3663 C3668 1.350 . S
C3663 N3671 1.427 . S
C3664 H3655 0.930 . S
C3664 C3662 1.378 . S
C3664 C3665 1.367 . S
C3665 C3664 1.367 . S
C3665 C3667 1.433 . S
C3666 C3662 1.350 . S
C3666 C3663 1.463 1_554 S
C3666 N3670 1.427 . S
C3667 H3657 0.929 . S
C3667 C3665 1.433 . S
C3667 N3670 1.384 . S
C3668 H3659 0.929 . S
C3668 C3660 1.378 . S
C3668 C3663 1.350 . S
C3669 H3656 0.929 . S
C3669 C3661 1.433 . S
C3669 N3671 1.384 . S
N3670 C3666 1.427 . S
N3670 C3667 1.384 . S
N3671 C3663 1.427 . S
N3671 C3669 1.384 . S
H3672 C3678 0.930 . S
H3673 C3682 0.930 . S
H3674 C3687 0.929 . S
H3675 C3685 0.929 . S
H3676 C3680 0.929 . S
H3677 C3686 0.929 . S
C3678 H3672 0.930 . S
C3678 C3679 1.367 . S
C3678 C3686 1.378 . S
C3679 C3678 1.367 . S
C3679 C3687 1.433 . S
C3680 H3676 0.929 . S
C3680 C3682 1.378 1_556 S
C3680 C3684 1.350 . S
C3681 C3684 1.463 . S
C3681 C3686 1.350 . S
C3681 N3689 1.427 . S
C3682 H3673 0.930 . S
C3682 C3680 1.378 1_554 S
C3682 C3683 1.367 . S
C3683 C3682 1.367 . S
C3683 C3685 1.433 1_554 S
C3684 C3680 1.350 . S
C3684 C3681 1.463 . S
C3684 N3688 1.427 . S
C3685 H3675 0.929 . S
C3685 C3683 1.433 1_556 S
C3685 N3688 1.384 . S
C3686 H3677 0.929 . S
C3686 C3678 1.378 . S
C3686 C3681 1.350 . S
C3687 H3674 0.929 . S
C3687 C3679 1.433 . S
C3687 N3689 1.384 . S
N3688 C3684 1.427 . S
N3688 C3685 1.384 . S
N3689 C3681 1.427 . S
N3689 C3687 1.384 . S
H3690 C3696 0.930 . S
H3691 C3700 0.930 . S
H3692 C3705 0.929 . S
H3693 C3703 0.929 . S
H3694 C3698 0.929 . S
H3695 C3704 0.929 . S
C3696 H3690 0.930 . S
C3696 C3697 1.367 1_556 S
C3696 C3704 1.378 . S
C3697 C3696 1.367 1_554 S
C3697 C3705 1.433 . S
C3698 H3694 0.929 . S
C3698 C3700 1.378 . S
C3698 C3702 1.350 . S
C3699 C3702 1.463 . S
C3699 C3704 1.350 . S
C3699 N3707 1.427 . S
C3700 H3691 0.930 . S
C3700 C3698 1.378 . S
C3700 C3701 1.367 . S
C3701 C3700 1.367 . S
C3701 C3703 1.433 . S
C3702 C3698 1.350 . S
C3702 C3699 1.463 . S
C3702 N3706 1.427 . S
C3703 H3693 0.929 . S
C3703 C3701 1.433 . S
C3703 N3706 1.384 . S
C3704 H3695 0.929 . S
C3704 C3696 1.378 . S
C3704 C3699 1.350 . S
C3705 H3692 0.929 . S
C3705 C3697 1.433 . S
C3705 N3707 1.384 1_554 S
N3706 C3702 1.427 . S
N3706 C3703 1.384 . S
N3707 C3699 1.427 . S
N3707 C3705 1.384 1_556 S
H3708 C3714 0.930 1_554 S
H3709 C3718 0.930 . S
H3710 C3723 0.929 1_554 S
H3711 C3721 0.929 . S
H3712 C3716 0.929 . S
H3713 C3722 0.929 . S
C3714 H3708 0.930 1_556 S
C3714 C3715 1.367 1_556 S
C3714 C3722 1.378 . S
C3715 C3714 1.367 1_554 S
C3715 C3723 1.433 1_554 S
C3716 H3712 0.929 . S
C3716 C3718 1.378 . S
C3716 C3720 1.350 . S
C3717 C3720 1.463 . S
C3717 C3722 1.350 . S
C3717 N3725 1.427 . S
C3718 H3709 0.930 . S
C3718 C3716 1.378 . S
C3718 C3719 1.367 . S
C3719 C3718 1.367 . S
C3719 C3721 1.433 . S
C3720 C3716 1.350 . S
C3720 C3717 1.463 . S
C3720 N3724 1.427 . S
C3721 H3711 0.929 . S
C3721 C3719 1.433 . S
C3721 N3724 1.384 . S
C3722 H3713 0.929 . S
C3722 C3714 1.378 . S
C3722 C3717 1.350 . S
C3723 H3710 0.929 1_556 S
C3723 C3715 1.433 1_556 S
C3723 N3725 1.384 . S
N3724 C3720 1.427 . S
N3724 C3721 1.384 . S
N3725 C3717 1.427 . S
N3725 C3723 1.384 . S
H3726 C3732 0.930 . S
H3727 C3736 0.930 . S
H3728 C3741 0.929 . S
H3729 C3739 0.929 . S
H3730 C3734 0.929 . S
H3731 C3740 0.929 . S
C3732 H3726 0.930 . S
C3732 C3733 1.367 . S
C3732 C3740 1.378 . S
C3733 C3732 1.367 . S
C3733 C3741 1.433 . S
C3734 H3730 0.929 . S
C3734 C3736 1.378 . S
C3734 C3738 1.350 . S
C3735 C3738 1.463 . S
C3735 C3740 1.350 . S
C3735 N3743 1.427 . S
C3736 H3727 0.930 . S
C3736 C3734 1.378 . S
C3736 C3737 1.367 . S
C3737 C3736 1.367 . S
C3737 C3739 1.433 . S
C3738 C3734 1.350 . S
C3738 C3735 1.463 . S
C3738 N3742 1.427 . S
C3739 H3729 0.929 . S
C3739 C3737 1.433 . S
C3739 N3742 1.384 . S
C3740 H3731 0.929 . S
C3740 C3732 1.378 . S
C3740 C3735 1.350 . S
C3741 H3728 0.929 . S
C3741 C3733 1.433 . S
C3741 N3743 1.384 . S
N3742 C3738 1.427 . S
N3742 C3739 1.384 . S
N3743 C3735 1.427 . S
N3743 C3741 1.384 . S
H3744 C3750 0.930 . S
H3745 C3754 0.930 . S
H3746 C3759 0.929 . S
H3747 C3757 0.929 . S
H3748 C3752 0.929 . S
H3749 C3758 0.929 . S
C3750 H3744 0.930 . S
C3750 C3751 1.367 . S
C3750 C3758 1.378 . S
C3751 C3750 1.367 . S
C3751 C3759 1.433 . S
C3752 H3748 0.929 . S
C3752 C3754 1.378 . S
C3752 C3756 1.350 . S
C3753 C3756 1.463 . S
C3753 C3758 1.350 . S
C3753 N3761 1.427 . S
C3754 H3745 0.930 . S
C3754 C3752 1.378 . S
C3754 C3755 1.367 . S
C3755 C3754 1.367 . S
C3755 C3757 1.433 . S
C3756 C3752 1.350 . S
C3756 C3753 1.463 . S
C3756 N3760 1.427 . S
C3757 H3747 0.929 . S
C3757 C3755 1.433 . S
C3757 N3760 1.384 . S
C3758 H3749 0.929 . S
C3758 C3750 1.378 . S
C3758 C3753 1.350 . S
C3759 H3746 0.929 . S
C3759 C3751 1.433 . S
C3759 N3761 1.384 . S
N3760 C3756 1.427 . S
N3760 C3757 1.384 . S
N3761 C3753 1.427 . S
N3761 C3759 1.384 . S
H3762 C3768 0.930 . S
H3763 C3772 0.930 . S
H3764 C3777 0.929 . S
H3765 C3775 0.929 . S
H3766 C3770 0.929 . S
H3767 C3776 0.929 . S
C3768 H3762 0.930 . S
C3768 C3769 1.367 . S
C3768 C3776 1.378 . S
C3769 C3768 1.367 . S
C3769 C3777 1.433 . S
C3770 H3766 0.929 . S
C3770 C3772 1.378 . S
C3770 C3774 1.350 . S
C3771 C3774 1.463 . S
C3771 C3776 1.350 . S
C3771 N3779 1.427 . S
C3772 H3763 0.930 . S
C3772 C3770 1.378 . S
C3772 C3773 1.367 . S
C3773 C3772 1.367 . S
C3773 C3775 1.433 . S
C3774 C3770 1.350 . S
C3774 C3771 1.463 . S
C3774 N3778 1.427 . S
C3775 H3765 0.929 . S
C3775 C3773 1.433 . S
C3775 N3778 1.384 . S
C3776 H3767 0.929 . S
C3776 C3768 1.378 . S
C3776 C3771 1.350 . S
C3777 H3764 0.929 . S
C3777 C3769 1.433 . S
C3777 N3779 1.384 . S
N3778 C3774 1.427 . S
N3778 C3775 1.384 . S
N3779 C3771 1.427 . S
N3779 C3777 1.384 . S
H3780 C3786 0.930 . S
H3781 C3790 0.930 . S
H3782 C3795 0.929 . S
H3783 C3793 0.929 . S
H3784 C3788 0.929 . S
H3785 C3794 0.929 . S
C3786 H3780 0.930 . S
C3786 C3787 1.367 . S
C3786 C3794 1.378 . S
C3787 C3786 1.367 . S
C3787 C3795 1.433 . S
C3788 H3784 0.929 . S
C3788 C3790 1.378 . S
C3788 C3792 1.350 . S
C3789 C3792 1.463 . S
C3789 C3794 1.350 . S
C3789 N3797 1.427 . S
C3790 H3781 0.930 . S
C3790 C3788 1.378 . S
C3790 C3791 1.367 . S
C3791 C3790 1.367 . S
C3791 C3793 1.433 . S
C3792 C3788 1.350 . S
C3792 C3789 1.463 . S
C3792 N3796 1.427 . S
C3793 H3783 0.929 . S
C3793 C3791 1.433 . S
C3793 N3796 1.384 . S
C3794 H3785 0.929 . S
C3794 C3786 1.378 . S
C3794 C3789 1.350 . S
C3795 H3782 0.929 . S
C3795 C3787 1.433 . S
C3795 N3797 1.384 . S
N3796 C3792 1.427 . S
N3796 C3793 1.384 . S
N3797 C3789 1.427 . S
N3797 C3795 1.384 . S
H3798 C3804 0.930 . S
H3799 C3808 0.930 . S
H3800 C3813 0.929 . S
H3801 C3811 0.929 . S
H3802 C3806 0.929 . S
H3803 C3812 0.929 . S
C3804 H3798 0.930 . S
C3804 C3805 1.367 . S
C3804 C3812 1.378 . S
C3805 C3804 1.367 . S
C3805 C3813 1.433 . S
C3806 H3802 0.929 . S
C3806 C3808 1.378 . S
C3806 C3810 1.350 . S
C3807 C3810 1.463 . S
C3807 C3812 1.350 . S
C3807 N3815 1.427 . S
C3808 H3799 0.930 . S
C3808 C3806 1.378 . S
C3808 C3809 1.367 . S
C3809 C3808 1.367 . S
C3809 C3811 1.433 . S
C3810 C3806 1.350 . S
C3810 C3807 1.463 . S
C3810 N3814 1.427 . S
C3811 H3801 0.929 . S
C3811 C3809 1.433 . S
C3811 N3814 1.384 . S
C3812 H3803 0.929 . S
C3812 C3804 1.378 . S
C3812 C3807 1.350 . S
C3813 H3800 0.929 . S
C3813 C3805 1.433 . S
C3813 N3815 1.384 . S
N3814 C3810 1.427 . S
N3814 C3811 1.384 . S
N3815 C3807 1.427 . S
N3815 C3813 1.384 . S
H3816 C3822 0.930 . S
H3817 C3826 0.930 . S
H3818 C3831 0.929 . S
H3819 C3829 0.929 . S
H3820 C3824 0.929 . S
H3821 C3830 0.929 . S
C3822 H3816 0.930 . S
C3822 C3823 1.367 . S
C3822 C3830 1.378 . S
C3823 C3822 1.367 . S
C3823 C3831 1.433 . S
C3824 H3820 0.929 . S
C3824 C3826 1.378 . S
C3824 C3828 1.350 . S
C3825 C3828 1.463 . S
C3825 C3830 1.350 . S
C3825 N3833 1.427 . S
C3826 H3817 0.930 . S
C3826 C3824 1.378 . S
C3826 C3827 1.367 . S
C3827 C3826 1.367 . S
C3827 C3829 1.433 . S
C3828 C3824 1.350 . S
C3828 C3825 1.463 . S
C3828 N3832 1.427 . S
C3829 H3819 0.929 . S
C3829 C3827 1.433 . S
C3829 N3832 1.384 . S
C3830 H3821 0.929 . S
C3830 C3822 1.378 . S
C3830 C3825 1.350 . S
C3831 H3818 0.929 . S
C3831 C3823 1.433 . S
C3831 N3833 1.384 . S
N3832 C3828 1.427 . S
N3832 C3829 1.384 . S
N3833 C3825 1.427 . S
N3833 C3831 1.384 . S
H3834 C3840 0.930 . S
H3835 C3844 0.930 . S
H3836 C3849 0.929 . S
H3837 C3847 0.929 . S
H3838 C3842 0.929 . S
H3839 C3848 0.929 . S
C3840 H3834 0.930 . S
C3840 C3841 1.367 . S
C3840 C3848 1.378 . S
C3841 C3840 1.367 . S
C3841 C3849 1.433 . S
C3842 H3838 0.929 . S
C3842 C3844 1.378 . S
C3842 C3846 1.350 . S
C3843 C3846 1.463 . S
C3843 C3848 1.350 . S
C3843 N3851 1.427 . S
C3844 H3835 0.930 . S
C3844 C3842 1.378 . S
C3844 C3845 1.367 . S
C3845 C3844 1.367 . S
C3845 C3847 1.433 . S
C3846 C3842 1.350 . S
C3846 C3843 1.463 . S
C3846 N3850 1.427 . S
C3847 H3837 0.929 . S
C3847 C3845 1.433 . S
C3847 N3850 1.384 . S
C3848 H3839 0.929 . S
C3848 C3840 1.378 . S
C3848 C3843 1.350 . S
C3849 H3836 0.929 . S
C3849 C3841 1.433 . S
C3849 N3851 1.384 . S
N3850 C3846 1.427 . S
N3850 C3847 1.384 . S
N3851 C3843 1.427 . S
N3851 C3849 1.384 . S
H3852 C3858 0.930 . S
H3853 C3862 0.930 . S
H3854 C3867 0.929 . S
H3855 C3865 0.929 . S
H3856 C3860 0.929 . S
H3857 C3866 0.929 . S
C3858 H3852 0.930 . S
C3858 C3859 1.367 . S
C3858 C3866 1.378 . S
C3859 C3858 1.367 . S
C3859 C3867 1.433 . S
C3860 H3856 0.929 . S
C3860 C3862 1.378 . S
C3860 C3864 1.350 . S
C3861 C3864 1.463 . S
C3861 C3866 1.350 . S
C3861 N3869 1.427 . S
C3862 H3853 0.930 . S
C3862 C3860 1.378 . S
C3862 C3863 1.367 . S
C3863 C3862 1.367 . S
C3863 C3865 1.433 . S
C3864 C3860 1.350 . S
C3864 C3861 1.463 . S
C3864 N3868 1.427 . S
C3865 H3855 0.929 . S
C3865 C3863 1.433 . S
C3865 N3868 1.384 . S
C3866 H3857 0.929 . S
C3866 C3858 1.378 . S
C3866 C3861 1.350 . S
C3867 H3854 0.929 . S
C3867 C3859 1.433 . S
C3867 N3869 1.384 . S
N3868 C3864 1.427 . S
N3868 C3865 1.384 . S
N3869 C3861 1.427 . S
N3869 C3867 1.384 . S
H3870 C3876 0.930 . S
H3871 C3880 0.930 . S
H3872 C3885 0.929 . S
H3873 C3883 0.929 . S
H3874 C3878 0.929 . S
H3875 C3884 0.929 . S
C3876 H3870 0.930 . S
C3876 C3877 1.367 . S
C3876 C3884 1.378 . S
C3877 C3876 1.367 . S
C3877 C3885 1.433 . S
C3878 H3874 0.929 . S
C3878 C3880 1.378 . S
C3878 C3882 1.350 . S
C3879 C3882 1.463 . S
C3879 C3884 1.350 . S
C3879 N3887 1.427 . S
C3880 H3871 0.930 . S
C3880 C3878 1.378 . S
C3880 C3881 1.367 . S
C3881 C3880 1.367 . S
C3881 C3883 1.433 . S
C3882 C3878 1.350 . S
C3882 C3879 1.463 . S
C3882 N3886 1.427 . S
C3883 H3873 0.929 . S
C3883 C3881 1.433 . S
C3883 N3886 1.384 . S
C3884 H3875 0.929 . S
C3884 C3876 1.378 . S
C3884 C3879 1.350 . S
C3885 H3872 0.929 . S
C3885 C3877 1.433 . S
C3885 N3887 1.384 . S
N3886 C3882 1.427 . S
N3886 C3883 1.384 . S
N3887 C3879 1.427 . S
N3887 C3885 1.384 . S
H3888 C3894 0.930 . S
H3889 C3898 0.930 . S
H3890 C3903 0.929 . S
H3891 C3901 0.929 . S
H3892 C3896 0.929 . S
H3893 C3902 0.929 . S
C3894 H3888 0.930 . S
C3894 C3895 1.367 . S
C3894 C3902 1.378 . S
C3895 C3894 1.367 . S
C3895 C3903 1.433 . S
C3896 H3892 0.929 . S
C3896 C3898 1.378 . S
C3896 C3900 1.350 . S
C3897 C3900 1.463 . S
C3897 C3902 1.350 . S
C3897 N3905 1.427 . S
C3898 H3889 0.930 . S
C3898 C3896 1.378 . S
C3898 C3899 1.367 . S
C3899 C3898 1.367 . S
C3899 C3901 1.433 . S
C3900 C3896 1.350 . S
C3900 C3897 1.463 . S
C3900 N3904 1.427 . S
C3901 H3891 0.929 . S
C3901 C3899 1.433 . S
C3901 N3904 1.384 . S
C3902 H3893 0.929 . S
C3902 C3894 1.378 . S
C3902 C3897 1.350 . S
C3903 H3890 0.929 . S
C3903 C3895 1.433 . S
C3903 N3905 1.384 . S
N3904 C3900 1.427 . S
N3904 C3901 1.384 . S
N3905 C3897 1.427 . S
N3905 C3903 1.384 . S
H3906 C3912 0.930 . S
H3907 C3916 0.930 . S
H3908 C3921 0.929 . S
H3909 C3919 0.929 . S
H3910 C3914 0.929 . S
H3911 C3920 0.929 . S
C3912 H3906 0.930 . S
C3912 C3913 1.367 . S
C3912 C3920 1.378 . S
C3913 C3912 1.367 . S
C3913 C3921 1.433 . S
C3914 H3910 0.929 . S
C3914 C3916 1.378 . S
C3914 C3918 1.350 . S
C3915 C3918 1.463 . S
C3915 C3920 1.350 . S
C3915 N3923 1.427 . S
C3916 H3907 0.930 . S
C3916 C3914 1.378 . S
C3916 C3917 1.367 . S
C3917 C3916 1.367 . S
C3917 C3919 1.433 . S
C3918 C3914 1.350 . S
C3918 C3915 1.463 . S
C3918 N3922 1.427 . S
C3919 H3909 0.929 . S
C3919 C3917 1.433 . S
C3919 N3922 1.384 . S
C3920 H3911 0.929 . S
C3920 C3912 1.378 . S
C3920 C3915 1.350 . S
C3921 H3908 0.929 . S
C3921 C3913 1.433 . S
C3921 N3923 1.384 . S
N3922 C3918 1.427 . S
N3922 C3919 1.384 . S
N3923 C3915 1.427 . S
N3923 C3921 1.384 . S
H3924 C3930 0.930 . S
H3925 C3934 0.930 . S
H3926 C3939 0.929 . S
H3927 C3937 0.929 . S
H3928 C3932 0.929 . S
H3929 C3938 0.929 . S
C3930 H3924 0.930 . S
C3930 C3931 1.367 . S
C3930 C3938 1.378 . S
C3931 C3930 1.367 . S
C3931 C3939 1.433 . S
C3932 H3928 0.929 . S
C3932 C3934 1.378 . S
C3932 C3936 1.350 . S
C3933 C3936 1.463 . S
C3933 C3938 1.350 . S
C3933 N3941 1.427 . S
C3934 H3925 0.930 . S
C3934 C3932 1.378 . S
C3934 C3935 1.367 . S
C3935 C3934 1.367 . S
C3935 C3937 1.433 . S
C3936 C3932 1.350 . S
C3936 C3933 1.463 . S
C3936 N3940 1.427 . S
C3937 H3927 0.929 . S
C3937 C3935 1.433 . S
C3937 N3940 1.384 . S
C3938 H3929 0.929 . S
C3938 C3930 1.378 . S
C3938 C3933 1.350 . S
C3939 H3926 0.929 . S
C3939 C3931 1.433 . S
C3939 N3941 1.384 . S
N3940 C3936 1.427 . S
N3940 C3937 1.384 . S
N3941 C3933 1.427 . S
N3941 C3939 1.384 . S
H3942 C3948 0.930 . S
H3943 C3952 0.930 . S
H3944 C3957 0.929 . S
H3945 C3955 0.929 . S
H3946 C3950 0.929 . S
H3947 C3956 0.929 . S
C3948 H3942 0.930 . S
C3948 C3949 1.367 . S
C3948 C3956 1.378 . S
C3949 C3948 1.367 . S
C3949 C3957 1.433 . S
C3950 H3946 0.929 . S
C3950 C3952 1.378 . S
C3950 C3954 1.350 . S
C3951 C3954 1.463 . S
C3951 C3956 1.350 . S
C3951 N3959 1.427 . S
C3952 H3943 0.930 . S
C3952 C3950 1.378 . S
C3952 C3953 1.367 1_554 S
C3953 C3952 1.367 1_556 S
C3953 C3955 1.433 . S
C3954 C3950 1.350 . S
C3954 C3951 1.463 . S
C3954 N3958 1.427 . S
C3955 H3945 0.929 . S
C3955 C3953 1.433 . S
C3955 N3958 1.384 1_556 S
C3956 H3947 0.929 . S
C3956 C3948 1.378 . S
C3956 C3951 1.350 . S
C3957 H3944 0.929 . S
C3957 C3949 1.433 . S
C3957 N3959 1.384 . S
N3958 C3954 1.427 . S
N3958 C3955 1.384 1_554 S
N3959 C3951 1.427 . S
N3959 C3957 1.384 . S
H3960 C3966 0.930 . S
H3961 C3970 0.930 . S
H3962 C3975 0.929 1_556 S
H3963 C3973 0.929 . S
H3964 C3968 0.929 . S
H3965 C3974 0.929 . S
C3966 H3960 0.930 . S
C3966 C3967 1.367 . S
C3966 C3974 1.378 1_556 S
C3967 C3966 1.367 . S
C3967 C3975 1.433 1_556 S
C3968 H3964 0.929 . S
C3968 C3970 1.378 . S
C3968 C3972 1.350 . S
C3969 C3972 1.463 . S
C3969 C3974 1.350 . S
C3969 N3977 1.427 . S
C3970 H3961 0.930 . S
C3970 C3968 1.378 . S
C3970 C3971 1.367 . S
C3971 C3970 1.367 . S
C3971 C3973 1.433 . S
C3972 C3968 1.350 . S
C3972 C3969 1.463 . S
C3972 N3976 1.427 . S
C3973 H3963 0.929 . S
C3973 C3971 1.433 . S
C3973 N3976 1.384 . S
C3974 H3965 0.929 . S
C3974 C3966 1.378 1_554 S
C3974 C3969 1.350 . S
C3975 H3962 0.929 1_554 S
C3975 C3967 1.433 1_554 S
C3975 N3977 1.384 . S
N3976 C3972 1.427 . S
N3976 C3973 1.384 . S
N3977 C3969 1.427 . S
N3977 C3975 1.384 . S
H3978 C3984 0.930 . S
H3979 C3988 0.930 . S
H3980 C3993 0.929 . S
H3981 C3991 0.929 . S
H3982 C3986 0.929 . S
H3983 C3992 0.929 . S
C3984 H3978 0.930 . S
C3984 C3985 1.367 . S
C3984 C3992 1.378 . S
C3985 C3984 1.367 . S
C3985 C3993 1.433 . S
C3986 H3982 0.929 . S
C3986 C3988 1.378 . S
C3986 C3990 1.350 . S
C3987 C3990 1.463 . S
C3987 C3992 1.350 . S
C3987 N3995 1.427 . S
C3988 H3979 0.930 . S
C3988 C3986 1.378 . S
C3988 C3989 1.367 1_554 S
C3989 C3988 1.367 1_556 S
C3989 C3991 1.433 . S
C3990 C3986 1.350 . S
C3990 C3987 1.463 . S
C3990 N3994 1.427 . S
C3991 H3981 0.929 . S
C3991 C3989 1.433 . S
C3991 N3994 1.384 1_556 S
C3992 H3983 0.929 . S
C3992 C3984 1.378 . S
C3992 C3987 1.350 . S
C3993 H3980 0.929 . S
C3993 C3985 1.433 . S
C3993 N3995 1.384 . S
N3994 C3990 1.427 . S
N3994 C3991 1.384 1_554 S
N3995 C3987 1.427 . S
N3995 C3993 1.384 . S
H3996 C4002 0.930 . S
H3997 C4006 0.930 . S
H3998 C4011 0.929 . S
H3999 C4009 0.929 . S
H4000 C4004 0.929 . S
H4001 C4010 0.929 . S
C4002 H3996 0.930 . S
C4002 C4003 1.367 . S
C4002 C4010 1.378 . S
C4003 C4002 1.367 . S
C4003 C4011 1.433 . S
C4004 H4000 0.929 . S
C4004 C4006 1.378 . S
C4004 C4008 1.350 . S
C4005 C4008 1.463 . S
C4005 C4010 1.350 . S
C4005 N4013 1.427 . S
C4006 H3997 0.930 . S
C4006 C4004 1.378 . S
C4006 C4007 1.367 . S
C4007 C4006 1.367 . S
C4007 C4009 1.433 . S
C4008 C4004 1.350 . S
C4008 C4005 1.463 . S
C4008 N4012 1.427 . S
C4009 H3999 0.929 . S
C4009 C4007 1.433 . S
C4009 N4012 1.384 . S
C4010 H4001 0.929 . S
C4010 C4002 1.378 . S
C4010 C4005 1.350 . S
C4011 H3998 0.929 . S
C4011 C4003 1.433 . S
C4011 N4013 1.384 . S
N4012 C4008 1.427 . S
N4012 C4009 1.384 . S
N4013 C4005 1.427 . S
N4013 C4011 1.384 . S
H4014 C4020 0.930 . S
H4015 C4024 0.930 . S
H4016 C4029 0.929 . S
H4017 C4027 0.929 . S
H4018 C4022 0.929 . S
H4019 C4028 0.929 . S
C4020 H4014 0.930 . S
C4020 C4021 1.367 . S
C4020 C4028 1.378 . S
C4021 C4020 1.367 . S
C4021 C4029 1.433 . S
C4022 H4018 0.929 . S
C4022 C4024 1.378 . S
C4022 C4026 1.350 . S
C4023 C4026 1.463 . S
C4023 C4028 1.350 . S
C4023 N4031 1.427 . S
C4024 H4015 0.930 . S
C4024 C4022 1.378 . S
C4024 C4025 1.367 . S
C4025 C4024 1.367 . S
C4025 C4027 1.433 . S
C4026 C4022 1.350 . S
C4026 C4023 1.463 . S
C4026 N4030 1.427 . S
C4027 H4017 0.929 . S
C4027 C4025 1.433 . S
C4027 N4030 1.384 . S
C4028 H4019 0.929 . S
C4028 C4020 1.378 . S
C4028 C4023 1.350 . S
C4029 H4016 0.929 . S
C4029 C4021 1.433 . S
C4029 N4031 1.384 . S
N4030 C4026 1.427 . S
N4030 C4027 1.384 . S
N4031 C4023 1.427 . S
N4031 C4029 1.384 . S
H4032 C4038 0.930 . S
H4033 C4042 0.930 . S
H4034 C4047 0.929 . S
H4035 C4045 0.929 . S
H4036 C4040 0.929 . S
H4037 C4046 0.929 . S
C4038 H4032 0.930 . S
C4038 C4039 1.367 . S
C4038 C4046 1.378 . S
C4039 C4038 1.367 . S
C4039 C4047 1.433 . S
C4040 H4036 0.929 . S
C4040 C4042 1.378 . S
C4040 C4044 1.350 . S
C4041 C4044 1.463 . S
C4041 C4046 1.350 . S
C4041 N4049 1.427 . S
C4042 H4033 0.930 . S
C4042 C4040 1.378 . S
C4042 C4043 1.367 . S
C4043 C4042 1.367 . S
C4043 C4045 1.433 . S
C4044 C4040 1.350 . S
C4044 C4041 1.463 . S
C4044 N4048 1.427 . S
C4045 H4035 0.929 . S
C4045 C4043 1.433 . S
C4045 N4048 1.384 . S
C4046 H4037 0.929 . S
C4046 C4038 1.378 . S
C4046 C4041 1.350 . S
C4047 H4034 0.929 . S
C4047 C4039 1.433 . S
C4047 N4049 1.384 . S
N4048 C4044 1.427 . S
N4048 C4045 1.384 . S
N4049 C4041 1.427 . S
N4049 C4047 1.384 . S
H4050 C4056 0.930 . S
H4051 C4060 0.930 . S
H4052 C4065 0.929 . S
H4053 C4063 0.929 . S
H4054 C4058 0.929 . S
H4055 C4064 0.929 . S
C4056 H4050 0.930 . S
C4056 C4057 1.367 . S
C4056 C4064 1.378 . S
C4057 C4056 1.367 . S
C4057 C4065 1.433 . S
C4058 H4054 0.929 . S
C4058 C4060 1.378 . S
C4058 C4062 1.350 . S
C4059 C4062 1.463 . S
C4059 C4064 1.350 . S
C4059 N4067 1.427 . S
C4060 H4051 0.930 . S
C4060 C4058 1.378 . S
C4060 C4061 1.367 . S
C4061 C4060 1.367 . S
C4061 C4063 1.433 . S
C4062 C4058 1.350 . S
C4062 C4059 1.463 . S
C4062 N4066 1.427 . S
C4063 H4053 0.929 . S
C4063 C4061 1.433 . S
C4063 N4066 1.384 . S
C4064 H4055 0.929 . S
C4064 C4056 1.378 . S
C4064 C4059 1.350 . S
C4065 H4052 0.929 . S
C4065 C4057 1.433 . S
C4065 N4067 1.384 . S
N4066 C4062 1.427 . S
N4066 C4063 1.384 . S
N4067 C4059 1.427 . S
N4067 C4065 1.384 . S
H4068 C4074 0.930 . S
H4069 C4078 0.930 . S
H4070 C4083 0.929 . S
H4071 C4081 0.929 . S
H4072 C4076 0.929 . S
H4073 C4082 0.929 . S
C4074 H4068 0.930 . S
C4074 C4075 1.367 . S
C4074 C4082 1.378 . S
C4075 C4074 1.367 . S
C4075 C4083 1.433 . S
C4076 H4072 0.929 . S
C4076 C4078 1.378 . S
C4076 C4080 1.350 . S
C4077 C4080 1.463 . S
C4077 C4082 1.350 . S
C4077 N4085 1.427 . S
C4078 H4069 0.930 . S
C4078 C4076 1.378 . S
C4078 C4079 1.367 . S
C4079 C4078 1.367 . S
C4079 C4081 1.433 . S
C4080 C4076 1.350 . S
C4080 C4077 1.463 . S
C4080 N4084 1.427 . S
C4081 H4071 0.929 . S
C4081 C4079 1.433 . S
C4081 N4084 1.384 . S
C4082 H4073 0.929 . S
C4082 C4074 1.378 . S
C4082 C4077 1.350 . S
C4083 H4070 0.929 . S
C4083 C4075 1.433 . S
C4083 N4085 1.384 . S
N4084 C4080 1.427 . S
N4084 C4081 1.384 . S
N4085 C4077 1.427 . S
N4085 C4083 1.384 . S
H4086 C4092 0.930 . S
H4087 C4096 0.930 . S
H4088 C4101 0.929 . S
H4089 C4099 0.929 . S
H4090 C4094 0.929 . S
H4091 C4100 0.929 . S
C4092 H4086 0.930 . S
C4092 C4093 1.367 . S
C4092 C4100 1.378 . S
C4093 C4092 1.367 . S
C4093 C4101 1.433 . S
C4094 H4090 0.929 . S
C4094 C4096 1.378 . S
C4094 C4098 1.350 . S
C4095 C4098 1.463 . S
C4095 C4100 1.350 . S
C4095 N4103 1.427 . S
C4096 H4087 0.930 . S
C4096 C4094 1.378 . S
C4096 C4097 1.367 . S
C4097 C4096 1.367 . S
C4097 C4099 1.433 . S
C4098 C4094 1.350 . S
C4098 C4095 1.463 . S
C4098 N4102 1.427 . S
C4099 H4089 0.929 . S
C4099 C4097 1.433 . S
C4099 N4102 1.384 . S
C4100 H4091 0.929 . S
C4100 C4092 1.378 . S
C4100 C4095 1.350 . S
C4101 H4088 0.929 . S
C4101 C4093 1.433 . S
C4101 N4103 1.384 . S
N4102 C4098 1.427 . S
N4102 C4099 1.384 . S
N4103 C4095 1.427 . S
N4103 C4101 1.384 . S
H4104 C4110 0.930 . S
H4105 C4114 0.930 . S
H4106 C4119 0.929 . S
H4107 C4117 0.929 . S
H4108 C4112 0.929 . S
H4109 C4118 0.929 . S
C4110 H4104 0.930 . S
C4110 C4111 1.367 . S
C4110 C4118 1.378 . S
C4111 C4110 1.367 . S
C4111 C4119 1.433 . S
C4112 H4108 0.929 . S
C4112 C4114 1.378 . S
C4112 C4116 1.350 . S
C4113 C4116 1.463 . S
C4113 C4118 1.350 . S
C4113 N4121 1.427 . S
C4114 H4105 0.930 . S
C4114 C4112 1.378 . S
C4114 C4115 1.367 . S
C4115 C4114 1.367 . S
C4115 C4117 1.433 . S
C4116 C4112 1.350 . S
C4116 C4113 1.463 . S
C4116 N4120 1.427 . S
C4117 H4107 0.929 . S
C4117 C4115 1.433 . S
C4117 N4120 1.384 . S
C4118 H4109 0.929 . S
C4118 C4110 1.378 . S
C4118 C4113 1.350 . S
C4119 H4106 0.929 . S
C4119 C4111 1.433 . S
C4119 N4121 1.384 . S
N4120 C4116 1.427 . S
N4120 C4117 1.384 . S
N4121 C4113 1.427 . S
N4121 C4119 1.384 . S
H4122 C4128 0.930 . S
H4123 C4132 0.930 . S
H4124 C4137 0.929 . S
H4125 C4135 0.929 . S
H4126 C4130 0.929 . S
H4127 C4136 0.929 . S
C4128 H4122 0.930 . S
C4128 C4129 1.367 . S
C4128 C4136 1.378 . S
C4129 C4128 1.367 . S
C4129 C4137 1.433 . S
C4130 H4126 0.929 . S
C4130 C4132 1.378 . S
C4130 C4134 1.350 . S
C4131 C4134 1.463 . S
C4131 C4136 1.350 . S
C4131 N4139 1.427 . S
C4132 H4123 0.930 . S
C4132 C4130 1.378 . S
C4132 C4133 1.367 . S
C4133 C4132 1.367 . S
C4133 C4135 1.433 . S
C4134 C4130 1.350 . S
C4134 C4131 1.463 . S
C4134 N4138 1.427 . S
C4135 H4125 0.929 . S
C4135 C4133 1.433 . S
C4135 N4138 1.384 . S
C4136 H4127 0.929 . S
C4136 C4128 1.378 . S
C4136 C4131 1.350 . S
C4137 H4124 0.929 . S
C4137 C4129 1.433 . S
C4137 N4139 1.384 . S
N4138 C4134 1.427 . S
N4138 C4135 1.384 . S
N4139 C4131 1.427 . S
N4139 C4137 1.384 . S
H4140 C4146 0.930 . S
H4141 C4150 0.930 . S
H4142 C4155 0.929 . S
H4143 C4153 0.929 . S
H4144 C4148 0.929 . S
H4145 C4154 0.929 . S
C4146 H4140 0.930 . S
C4146 C4147 1.367 . S
C4146 C4154 1.378 . S
C4147 C4146 1.367 . S
C4147 C4155 1.433 . S
C4148 H4144 0.929 . S
C4148 C4150 1.378 . S
C4148 C4152 1.350 . S
C4149 C4152 1.463 . S
C4149 C4154 1.350 . S
C4149 N4157 1.427 . S
C4150 H4141 0.930 . S
C4150 C4148 1.378 . S
C4150 C4151 1.367 . S
C4151 C4150 1.367 . S
C4151 C4153 1.433 . S
C4152 C4148 1.350 . S
C4152 C4149 1.463 . S
C4152 N4156 1.427 . S
C4153 H4143 0.929 . S
C4153 C4151 1.433 . S
C4153 N4156 1.384 . S
C4154 H4145 0.929 . S
C4154 C4146 1.378 . S
C4154 C4149 1.350 . S
C4155 H4142 0.929 . S
C4155 C4147 1.433 . S
C4155 N4157 1.384 . S
N4156 C4152 1.427 . S
N4156 C4153 1.384 . S
N4157 C4149 1.427 . S
N4157 C4155 1.384 . S
H4158 C4164 0.930 . S
H4159 C4168 0.930 . S
H4160 C4173 0.929 . S
H4161 C4171 0.929 . S
H4162 C4166 0.929 . S
H4163 C4172 0.929 . S
C4164 H4158 0.930 . S
C4164 C4165 1.367 . S
C4164 C4172 1.378 . S
C4165 C4164 1.367 . S
C4165 C4173 1.433 . S
C4166 H4162 0.929 . S
C4166 C4168 1.378 . S
C4166 C4170 1.350 . S
C4167 C4170 1.463 . S
C4167 C4172 1.350 . S
C4167 N4175 1.427 . S
C4168 H4159 0.930 . S
C4168 C4166 1.378 . S
C4168 C4169 1.367 . S
C4169 C4168 1.367 . S
C4169 C4171 1.433 . S
C4170 C4166 1.350 . S
C4170 C4167 1.463 . S
C4170 N4174 1.427 . S
C4171 H4161 0.929 . S
C4171 C4169 1.433 . S
C4171 N4174 1.384 . S
C4172 H4163 0.929 . S
C4172 C4164 1.378 . S
C4172 C4167 1.350 . S
C4173 H4160 0.929 . S
C4173 C4165 1.433 . S
C4173 N4175 1.384 . S
N4174 C4170 1.427 . S
N4174 C4171 1.384 . S
N4175 C4167 1.427 . S
N4175 C4173 1.384 . S
H4176 C4182 0.930 . S
H4177 C4186 0.930 . S
H4178 C4191 0.929 . S
H4179 C4189 0.929 . S
H4180 C4184 0.929 . S
H4181 C4190 0.929 . S
C4182 H4176 0.930 . S
C4182 C4183 1.367 . S
C4182 C4190 1.378 . S
C4183 C4182 1.367 . S
C4183 C4191 1.433 . S
C4184 H4180 0.929 . S
C4184 C4186 1.378 . S
C4184 C4188 1.350 . S
C4185 C4188 1.463 . S
C4185 C4190 1.350 . S
C4185 N4193 1.427 . S
C4186 H4177 0.930 . S
C4186 C4184 1.378 . S
C4186 C4187 1.367 . S
C4187 C4186 1.367 . S
C4187 C4189 1.433 . S
C4188 C4184 1.350 . S
C4188 C4185 1.463 . S
C4188 N4192 1.427 . S
C4189 H4179 0.929 . S
C4189 C4187 1.433 . S
C4189 N4192 1.384 . S
C4190 H4181 0.929 . S
C4190 C4182 1.378 . S
C4190 C4185 1.350 . S
C4191 H4178 0.929 . S
C4191 C4183 1.433 . S
C4191 N4193 1.384 . S
N4192 C4188 1.427 . S
N4192 C4189 1.384 . S
N4193 C4185 1.427 . S
N4193 C4191 1.384 . S
H4194 C4200 0.930 . S
H4195 C4204 0.930 . S
H4196 C4209 0.929 . S
H4197 C4207 0.929 . S
H4198 C4202 0.929 . S
H4199 C4208 0.929 . S
C4200 H4194 0.930 . S
C4200 C4201 1.367 . S
C4200 C4208 1.378 . S
C4201 C4200 1.367 . S
C4201 C4209 1.433 . S
C4202 H4198 0.929 . S
C4202 C4204 1.378 . S
C4202 C4206 1.350 . S
C4203 C4206 1.463 . S
C4203 C4208 1.350 . S
C4203 N4211 1.427 . S
C4204 H4195 0.930 . S
C4204 C4202 1.378 . S
C4204 C4205 1.367 . S
C4205 C4204 1.367 . S
C4205 C4207 1.433 . S
C4206 C4202 1.350 . S
C4206 C4203 1.463 . S
C4206 N4210 1.427 . S
C4207 H4197 0.929 . S
C4207 C4205 1.433 . S
C4207 N4210 1.384 . S
C4208 H4199 0.929 . S
C4208 C4200 1.378 . S
C4208 C4203 1.350 . S
C4209 H4196 0.929 . S
C4209 C4201 1.433 . S
C4209 N4211 1.384 . S
N4210 C4206 1.427 . S
N4210 C4207 1.384 . S
N4211 C4203 1.427 . S
N4211 C4209 1.384 . S
H4212 C4218 0.930 . S
H4213 C4222 0.930 . S
H4214 C4227 0.929 . S
H4215 C4225 0.929 . S
H4216 C4220 0.929 . S
H4217 C4226 0.929 . S
C4218 H4212 0.930 . S
C4218 C4219 1.367 . S
C4218 C4226 1.378 . S
C4219 C4218 1.367 . S
C4219 C4227 1.433 . S
C4220 H4216 0.929 . S
C4220 C4222 1.378 . S
C4220 C4224 1.350 . S
C4221 C4224 1.463 . S
C4221 C4226 1.350 . S
C4221 N4229 1.427 . S
C4222 H4213 0.930 . S
C4222 C4220 1.378 . S
C4222 C4223 1.367 . S
C4223 C4222 1.367 . S
C4223 C4225 1.433 . S
C4224 C4220 1.350 . S
C4224 C4221 1.463 . S
C4224 N4228 1.427 . S
C4225 H4215 0.929 . S
C4225 C4223 1.433 . S
C4225 N4228 1.384 . S
C4226 H4217 0.929 . S
C4226 C4218 1.378 . S
C4226 C4221 1.350 . S
C4227 H4214 0.929 . S
C4227 C4219 1.433 . S
C4227 N4229 1.384 . S
N4228 C4224 1.427 . S
N4228 C4225 1.384 . S
N4229 C4221 1.427 . S
N4229 C4227 1.384 . S
H4230 C4236 0.930 1_554 S
H4231 C4240 0.930 . S
H4232 C4245 0.929 . S
H4233 C4243 0.929 . S
H4234 C4238 0.929 . S
H4235 C4244 0.929 . S
C4236 H4230 0.930 1_556 S
C4236 C4237 1.367 . S
C4236 C4244 1.378 . S
C4237 C4236 1.367 . S
C4237 C4245 1.433 . S
C4238 H4234 0.929 . S
C4238 C4240 1.378 . S
C4238 C4242 1.350 . S
C4239 C4242 1.463 . S
C4239 C4244 1.350 . S
C4239 N4247 1.427 . S
C4240 H4231 0.930 . S
C4240 C4238 1.378 . S
C4240 C4241 1.367 . S
C4241 C4240 1.367 . S
C4241 C4243 1.433 . S
C4242 C4238 1.350 . S
C4242 C4239 1.463 . S
C4242 N4246 1.427 . S
C4243 H4233 0.929 . S
C4243 C4241 1.433 . S
C4243 N4246 1.384 . S
C4244 H4235 0.929 . S
C4244 C4236 1.378 . S
C4244 C4239 1.350 . S
C4245 H4232 0.929 . S
C4245 C4237 1.433 . S
C4245 N4247 1.384 . S
N4246 C4242 1.427 . S
N4246 C4243 1.384 . S
N4247 C4239 1.427 . S
N4247 C4245 1.384 . S
H4248 C4254 0.930 . S
H4249 C4258 0.930 . S
H4250 C4263 0.929 . S
H4251 C4261 0.929 . S
H4252 C4256 0.929 . S
H4253 C4262 0.929 . S
C4254 H4248 0.930 . S
C4254 C4255 1.367 . S
C4254 C4262 1.378 . S
C4255 C4254 1.367 . S
C4255 C4263 1.433 . S
C4256 H4252 0.929 . S
C4256 C4258 1.378 . S
C4256 C4260 1.350 . S
C4257 C4260 1.463 . S
C4257 C4262 1.350 . S
C4257 N4265 1.427 . S
C4258 H4249 0.930 . S
C4258 C4256 1.378 . S
C4258 C4259 1.367 . S
C4259 C4258 1.367 . S
C4259 C4261 1.433 . S
C4260 C4256 1.350 . S
C4260 C4257 1.463 . S
C4260 N4264 1.427 . S
C4261 H4251 0.929 . S
C4261 C4259 1.433 . S
C4261 N4264 1.384 . S
C4262 H4253 0.929 . S
C4262 C4254 1.378 . S
C4262 C4257 1.350 . S
C4263 H4250 0.929 . S
C4263 C4255 1.433 . S
C4263 N4265 1.384 . S
N4264 C4260 1.427 . S
N4264 C4261 1.384 . S
N4265 C4257 1.427 . S
N4265 C4263 1.384 . S
H4266 C4272 0.930 . S
H4267 C4276 0.930 1_556 S
H4268 C4281 0.929 . S
H4269 C4279 0.929 . S
H4270 C4274 0.929 . S
H4271 C4280 0.929 . S
C4272 H4266 0.930 . S
C4272 C4273 1.367 . S
C4272 C4280 1.378 . S
C4273 C4272 1.367 . S
C4273 C4281 1.433 . S
C4274 H4270 0.929 . S
C4274 C4276 1.378 . S
C4274 C4278 1.350 . S
C4275 C4278 1.463 . S
C4275 C4280 1.350 . S
C4275 N4283 1.427 . S
C4276 H4267 0.930 1_554 S
C4276 C4274 1.378 . S
C4276 C4277 1.367 . S
C4277 C4276 1.367 . S
C4277 C4279 1.433 . S
C4278 C4274 1.350 . S
C4278 C4275 1.463 . S
C4278 N4282 1.427 . S
C4279 H4269 0.929 . S
C4279 C4277 1.433 . S
C4279 N4282 1.384 . S
C4280 H4271 0.929 . S
C4280 C4272 1.378 . S
C4280 C4275 1.350 . S
C4281 H4268 0.929 . S
C4281 C4273 1.433 . S
C4281 N4283 1.384 . S
N4282 C4278 1.427 . S
N4282 C4279 1.384 . S
N4283 C4275 1.427 . S
N4283 C4281 1.384 . S
H4284 C4290 0.930 . S
H4285 C4294 0.930 . S
H4286 C4299 0.929 1_556 S
H4287 C4297 0.929 . S
H4288 C4292 0.929 . S
H4289 C4298 0.929 . S
C4290 H4284 0.930 . S
C4290 C4291 1.367 . S
C4290 C4298 1.378 . S
C4291 C4290 1.367 . S
C4291 C4299 1.433 . S
C4292 H4288 0.929 . S
C4292 C4294 1.378 . S
C4292 C4296 1.350 . S
C4293 C4296 1.463 . S
C4293 C4298 1.350 . S
C4293 N4301 1.427 . S
C4294 H4285 0.930 . S
C4294 C4292 1.378 . S
C4294 C4295 1.367 . S
C4295 C4294 1.367 . S
C4295 C4297 1.433 . S
C4296 C4292 1.350 . S
C4296 C4293 1.463 . S
C4296 N4300 1.427 . S
C4297 H4287 0.929 . S
C4297 C4295 1.433 . S
C4297 N4300 1.384 . S
C4298 H4289 0.929 . S
C4298 C4290 1.378 . S
C4298 C4293 1.350 . S
C4299 H4286 0.929 1_554 S
C4299 C4291 1.433 . S
C4299 N4301 1.384 . S
N4300 C4296 1.427 . S
N4300 C4297 1.384 . S
N4301 C4293 1.427 . S
N4301 C4299 1.384 . S
H4302 C4308 0.930 1_556 S
H4303 C4312 0.930 . S
H4304 C4317 0.929 . S
H4305 C4315 0.929 . S
H4306 C4310 0.929 . S
H4307 C4316 0.929 . S
C4308 H4302 0.930 1_554 S
C4308 C4309 1.367 . S
C4308 C4316 1.378 . S
C4309 C4308 1.367 . S
C4309 C4317 1.433 . S
C4310 H4306 0.929 . S
C4310 C4312 1.378 . S
C4310 C4314 1.350 . S
C4311 C4314 1.463 . S
C4311 C4316 1.350 . S
C4311 N4319 1.427 . S
C4312 H4303 0.930 . S
C4312 C4310 1.378 . S
C4312 C4313 1.367 . S
C4313 C4312 1.367 . S
C4313 C4315 1.433 . S
C4314 C4310 1.350 . S
C4314 C4311 1.463 . S
C4314 N4318 1.427 . S
C4315 H4305 0.929 . S
C4315 C4313 1.433 . S
C4315 N4318 1.384 . S
C4316 H4307 0.929 . S
C4316 C4308 1.378 . S
C4316 C4311 1.350 . S
C4317 H4304 0.929 . S
C4317 C4309 1.433 . S
C4317 N4319 1.384 . S
N4318 C4314 1.427 . S
N4318 C4315 1.384 . S
N4319 C4311 1.427 . S
N4319 C4317 1.384 . S
H4320 C4326 0.930 1_655 S
H4321 C4330 0.930 1_455 S
H4322 C4335 0.929 . S
H4323 C4333 0.929 . S
H4324 C4328 0.929 . S
H4325 C4334 0.929 . S
C4326 H4320 0.930 1_455 S
C4326 C4327 1.367 . S
C4326 C4334 1.378 1_455 S
C4327 C4326 1.367 . S
C4327 C4335 1.433 . S
C4328 H4324 0.929 . S
C4328 C4330 1.378 1_455 S
C4328 C4332 1.350 1_455 S
C4329 C4332 1.463 1_455 S
C4329 C4334 1.350 1_455 S
C4329 N4337 1.427 . S
C4330 H4321 0.930 1_655 S
C4330 C4328 1.378 1_655 S
C4330 C4331 1.367 . S
C4331 C4330 1.367 . S
C4331 C4333 1.433 . S
C4332 C4328 1.350 1_655 S
C4332 C4329 1.463 1_655 S
C4332 N4336 1.427 . S
C4333 H4323 0.929 . S
C4333 C4331 1.433 . S
C4333 N4336 1.384 . S
C4334 H4325 0.929 . S
C4334 C4326 1.378 1_655 S
C4334 C4329 1.350 1_655 S
C4335 H4322 0.929 . S
C4335 C4327 1.433 . S
C4335 N4337 1.384 . S
N4336 C4332 1.427 . S
N4336 C4333 1.384 . S
N4337 C4329 1.427 . S
N4337 C4335 1.384 . S
H4338 C4344 0.930 . S
H4339 C4348 0.930 . S
H4340 C4353 0.929 . S
H4341 C4351 0.929 . S
H4342 C4346 0.929 . S
H4343 C4352 0.929 . S
C4344 H4338 0.930 . S
C4344 C4345 1.367 . S
C4344 C4352 1.378 . S
C4345 C4344 1.367 . S
C4345 C4353 1.433 . S
C4346 H4342 0.929 . S
C4346 C4348 1.378 . S
C4346 C4350 1.350 . S
C4347 C4350 1.463 . S
C4347 C4352 1.350 . S
C4347 N4355 1.427 . S
C4348 H4339 0.930 . S
C4348 C4346 1.378 . S
C4348 C4349 1.367 . S
C4349 C4348 1.367 . S
C4349 C4351 1.433 . S
C4350 C4346 1.350 . S
C4350 C4347 1.463 . S
C4350 N4354 1.427 . S
C4351 H4341 0.929 . S
C4351 C4349 1.433 . S
C4351 N4354 1.384 . S
C4352 H4343 0.929 . S
C4352 C4344 1.378 . S
C4352 C4347 1.350 . S
C4353 H4340 0.929 . S
C4353 C4345 1.433 . S
C4353 N4355 1.384 . S
N4354 C4350 1.427 . S
N4354 C4351 1.384 . S
N4355 C4347 1.427 . S
N4355 C4353 1.384 . S
H4356 C4362 0.930 . S
H4357 C4366 0.930 . S
H4358 C4371 0.929 1_545 S
H4359 C4369 0.929 1_565 S
H4360 C4364 0.929 . S
H4361 C4370 0.929 . S
C4362 H4356 0.930 . S
C4362 C4363 1.367 . S
C4362 C4370 1.378 . S
C4363 C4362 1.367 . S
C4363 C4371 1.433 . S
C4364 H4360 0.929 . S
C4364 C4366 1.378 . S
C4364 C4368 1.350 . S
C4365 C4368 1.463 1_565 S
C4365 C4370 1.350 . S
C4365 N4373 1.427 1_565 S
C4366 H4357 0.930 . S
C4366 C4364 1.378 . S
C4366 C4367 1.367 . S
C4367 C4366 1.367 . S
C4367 C4369 1.433 . S
C4368 C4364 1.350 . S
C4368 C4365 1.463 1_545 S
C4368 N4372 1.427 1_545 S
C4369 H4359 0.929 1_545 S
C4369 C4367 1.433 . S
C4369 N4372 1.384 1_545 S
C4370 H4361 0.929 . S
C4370 C4362 1.378 . S
C4370 C4365 1.350 . S
C4371 H4358 0.929 1_565 S
C4371 C4363 1.433 . S
C4371 N4373 1.384 1_565 S
N4372 C4368 1.427 1_565 S
N4372 C4369 1.384 1_565 S
N4373 C4365 1.427 1_545 S
N4373 C4371 1.384 1_545 S
H4374 C4380 0.930 . S
H4375 C4384 0.930 . S
H4376 C4389 0.929 . S
H4377 C4387 0.929 . S
H4378 C4382 0.929 . S
H4379 C4388 0.929 . S
C4380 H4374 0.930 . S
C4380 C4381 1.367 . S
C4380 C4388 1.378 . S
C4381 C4380 1.367 . S
C4381 C4389 1.433 . S
C4382 H4378 0.929 . S
C4382 C4384 1.378 . S
C4382 C4386 1.350 . S
C4383 C4386 1.463 1_655 S
C4383 C4388 1.350 . S
C4383 N4391 1.427 1_655 S
C4384 H4375 0.930 . S
C4384 C4382 1.378 . S
C4384 C4385 1.367 . S
C4385 C4384 1.367 . S
C4385 C4387 1.433 . S
C4386 C4382 1.350 . S
C4386 C4383 1.463 1_455 S
C4386 N4390 1.427 1_455 S
C4387 H4377 0.929 . S
C4387 C4385 1.433 . S
C4387 N4390 1.384 1_455 S
C4388 H4379 0.929 . S
C4388 C4380 1.378 . S
C4388 C4383 1.350 . S
C4389 H4376 0.929 . S
C4389 C4381 1.433 . S
C4389 N4391 1.384 1_655 S
N4390 C4386 1.427 1_655 S
N4390 C4387 1.384 1_655 S
N4391 C4383 1.427 1_455 S
N4391 C4389 1.384 1_455 S
H4392 C4398 0.930 . S
H4393 C4402 0.930 . S
H4394 C4407 0.929 . S
H4395 C4405 0.929 . S
H4396 C4400 0.929 . S
H4397 C4406 0.929 . S
C4398 H4392 0.930 . S
C4398 C4399 1.367 . S
C4398 C4406 1.378 . S
C4399 C4398 1.367 . S
C4399 C4407 1.433 . S
C4400 H4396 0.929 . S
C4400 C4402 1.378 . S
C4400 C4404 1.350 . S
C4401 C4404 1.463 . S
C4401 C4406 1.350 . S
C4401 N4409 1.427 . S
C4402 H4393 0.930 . S
C4402 C4400 1.378 . S
C4402 C4403 1.367 . S
C4403 C4402 1.367 . S
C4403 C4405 1.433 . S
C4404 C4400 1.350 . S
C4404 C4401 1.463 . S
C4404 N4408 1.427 . S
C4405 H4395 0.929 . S
C4405 C4403 1.433 . S
C4405 N4408 1.384 . S
C4406 H4397 0.929 . S
C4406 C4398 1.378 . S
C4406 C4401 1.350 . S
C4407 H4394 0.929 . S
C4407 C4399 1.433 . S
C4407 N4409 1.384 . S
N4408 C4404 1.427 . S
N4408 C4405 1.384 . S
N4409 C4401 1.427 . S
N4409 C4407 1.384 . S
H4410 C4416 0.930 1_565 S
H4411 C4420 0.930 1_545 S
H4412 C4425 0.929 . S
H4413 C4423 0.929 . S
H4414 C4418 0.929 . S
H4415 C4424 0.929 . S
C4416 H4410 0.930 1_545 S
C4416 C4417 1.367 . S
C4416 C4424 1.378 1_545 S
C4417 C4416 1.367 . S
C4417 C4425 1.433 . S
C4418 H4414 0.929 . S
C4418 C4420 1.378 1_545 S
C4418 C4422 1.350 1_545 S
C4419 C4422 1.463 1_545 S
C4419 C4424 1.350 1_545 S
C4419 N4427 1.427 . S
C4420 H4411 0.930 1_565 S
C4420 C4418 1.378 1_565 S
C4420 C4421 1.367 . S
C4421 C4420 1.367 . S
C4421 C4423 1.433 . S
C4422 C4418 1.350 1_565 S
C4422 C4419 1.463 1_565 S
C4422 N4426 1.427 . S
C4423 H4413 0.929 . S
C4423 C4421 1.433 . S
C4423 N4426 1.384 . S
C4424 H4415 0.929 . S
C4424 C4416 1.378 1_565 S
C4424 C4419 1.350 1_565 S
C4425 H4412 0.929 . S
C4425 C4417 1.433 . S
C4425 N4427 1.384 . S
N4426 C4422 1.427 . S
N4426 C4423 1.384 . S
N4427 C4419 1.427 . S
N4427 C4425 1.384 . S
H4428 C4434 0.930 . S
H4429 C4438 0.930 . S
H4430 C4443 0.929 . S
H4431 C4441 0.929 . S
H4432 C4436 0.929 . S
H4433 C4442 0.929 . S
C4434 H4428 0.930 . S
C4434 C4435 1.367 . S
C4434 C4442 1.378 . S
C4435 C4434 1.367 . S
C4435 C4443 1.433 . S
C4436 H4432 0.929 . S
C4436 C4438 1.378 . S
C4436 C4440 1.350 . S
C4437 C4440 1.463 . S
C4437 C4442 1.350 . S
C4437 N4445 1.427 . S
C4438 H4429 0.930 . S
C4438 C4436 1.378 . S
C4438 C4439 1.367 . S
C4439 C4438 1.367 . S
C4439 C4441 1.433 . S
C4440 C4436 1.350 . S
C4440 C4437 1.463 . S
C4440 N4444 1.427 . S
C4441 H4431 0.929 . S
C4441 C4439 1.433 . S
C4441 N4444 1.384 . S
C4442 H4433 0.929 . S
C4442 C4434 1.378 . S
C4442 C4437 1.350 . S
C4443 H4430 0.929 . S
C4443 C4435 1.433 . S
C4443 N4445 1.384 . S
N4444 C4440 1.427 . S
N4444 C4441 1.384 . S
N4445 C4437 1.427 . S
N4445 C4443 1.384 . S
H4446 C4452 0.930 . S
H4447 C4456 0.930 . S
H4448 C4461 0.929 . S
H4449 C4459 0.929 . S
H4450 C4454 0.929 . S
H4451 C4460 0.929 . S
C4452 H4446 0.930 . S
C4452 C4453 1.367 . S
C4452 C4460 1.378 . S
C4453 C4452 1.367 . S
C4453 C4461 1.433 . S
C4454 H4450 0.929 . S
C4454 C4456 1.378 . S
C4454 C4458 1.350 . S
C4455 C4458 1.463 . S
C4455 C4460 1.350 . S
C4455 N4463 1.427 . S
C4456 H4447 0.930 . S
C4456 C4454 1.378 . S
C4456 C4457 1.367 . S
C4457 C4456 1.367 . S
C4457 C4459 1.433 . S
C4458 C4454 1.350 . S
C4458 C4455 1.463 . S
C4458 N4462 1.427 . S
C4459 H4449 0.929 . S
C4459 C4457 1.433 . S
C4459 N4462 1.384 . S
C4460 H4451 0.929 . S
C4460 C4452 1.378 . S
C4460 C4455 1.350 . S
C4461 H4448 0.929 . S
C4461 C4453 1.433 . S
C4461 N4463 1.384 . S
N4462 C4458 1.427 . S
N4462 C4459 1.384 . S
N4463 C4455 1.427 . S
N4463 C4461 1.384 . S
H4464 C4470 0.930 . S
H4465 C4474 0.930 . S
H4466 C4479 0.929 . S
H4467 C4477 0.929 . S
H4468 C4472 0.929 . S
H4469 C4478 0.929 . S
C4470 H4464 0.930 . S
C4470 C4471 1.367 . S
C4470 C4478 1.378 . S
C4471 C4470 1.367 . S
C4471 C4479 1.433 . S
C4472 H4468 0.929 . S
C4472 C4474 1.378 . S
C4472 C4476 1.350 . S
C4473 C4476 1.463 . S
C4473 C4478 1.350 . S
C4473 N4481 1.427 . S
C4474 H4465 0.930 . S
C4474 C4472 1.378 . S
C4474 C4475 1.367 . S
C4475 C4474 1.367 . S
C4475 C4477 1.433 . S
C4476 C4472 1.350 . S
C4476 C4473 1.463 . S
C4476 N4480 1.427 . S
C4477 H4467 0.929 . S
C4477 C4475 1.433 . S
C4477 N4480 1.384 . S
C4478 H4469 0.929 . S
C4478 C4470 1.378 . S
C4478 C4473 1.350 . S
C4479 H4466 0.929 . S
C4479 C4471 1.433 . S
C4479 N4481 1.384 . S
N4480 C4476 1.427 . S
N4480 C4477 1.384 . S
N4481 C4473 1.427 . S
N4481 C4479 1.384 . S
H4482 C4488 0.930 . S
H4483 C4492 0.930 . S
H4484 C4497 0.929 . S
H4485 C4495 0.929 . S
H4486 C4490 0.929 . S
H4487 C4496 0.929 . S
C4488 H4482 0.930 . S
C4488 C4489 1.367 . S
C4488 C4496 1.378 . S
C4489 C4488 1.367 . S
C4489 C4497 1.433 . S
C4490 H4486 0.929 . S
C4490 C4492 1.378 . S
C4490 C4494 1.350 . S
C4491 C4494 1.463 . S
C4491 C4496 1.350 . S
C4491 N4499 1.427 . S
C4492 H4483 0.930 . S
C4492 C4490 1.378 . S
C4492 C4493 1.367 . S
C4493 C4492 1.367 . S
C4493 C4495 1.433 . S
C4494 C4490 1.350 . S
C4494 C4491 1.463 . S
C4494 N4498 1.427 . S
C4495 H4485 0.929 . S
C4495 C4493 1.433 . S
C4495 N4498 1.384 . S
C4496 H4487 0.929 . S
C4496 C4488 1.378 . S
C4496 C4491 1.350 . S
C4497 H4484 0.929 . S
C4497 C4489 1.433 . S
C4497 N4499 1.384 . S
N4498 C4494 1.427 . S
N4498 C4495 1.384 . S
N4499 C4491 1.427 . S
N4499 C4497 1.384 . S
H4500 C4506 0.930 . S
H4501 C4510 0.930 . S
H4502 C4515 0.929 . S
H4503 C4513 0.929 . S
H4504 C4508 0.929 . S
H4505 C4514 0.929 . S
C4506 H4500 0.930 . S
C4506 C4507 1.367 . S
C4506 C4514 1.378 . S
C4507 C4506 1.367 . S
C4507 C4515 1.433 . S
C4508 H4504 0.929 . S
C4508 C4510 1.378 . S
C4508 C4512 1.350 . S
C4509 C4512 1.463 . S
C4509 C4514 1.350 . S
C4509 N4517 1.427 . S
C4510 H4501 0.930 . S
C4510 C4508 1.378 . S
C4510 C4511 1.367 . S
C4511 C4510 1.367 . S
C4511 C4513 1.433 . S
C4512 C4508 1.350 . S
C4512 C4509 1.463 . S
C4512 N4516 1.427 . S
C4513 H4503 0.929 . S
C4513 C4511 1.433 . S
C4513 N4516 1.384 . S
C4514 H4505 0.929 . S
C4514 C4506 1.378 . S
C4514 C4509 1.350 . S
C4515 H4502 0.929 . S
C4515 C4507 1.433 . S
C4515 N4517 1.384 . S
N4516 C4512 1.427 . S
N4516 C4513 1.384 . S
N4517 C4509 1.427 . S
N4517 C4515 1.384 . S
H4518 C4524 0.930 . S
H4519 C4528 0.930 . S
H4520 C4533 0.929 . S
H4521 C4531 0.929 . S
H4522 C4526 0.929 . S
H4523 C4532 0.929 . S
C4524 H4518 0.930 . S
C4524 C4525 1.367 . S
C4524 C4532 1.378 . S
C4525 C4524 1.367 . S
C4525 C4533 1.433 . S
C4526 H4522 0.929 . S
C4526 C4528 1.378 . S
C4526 C4530 1.350 . S
C4527 C4530 1.463 . S
C4527 C4532 1.350 . S
C4527 N4535 1.427 . S
C4528 H4519 0.930 . S
C4528 C4526 1.378 . S
C4528 C4529 1.367 . S
C4529 C4528 1.367 . S
C4529 C4531 1.433 . S
C4530 C4526 1.350 . S
C4530 C4527 1.463 . S
C4530 N4534 1.427 . S
C4531 H4521 0.929 . S
C4531 C4529 1.433 . S
C4531 N4534 1.384 . S
C4532 H4523 0.929 . S
C4532 C4524 1.378 . S
C4532 C4527 1.350 . S
C4533 H4520 0.929 . S
C4533 C4525 1.433 . S
C4533 N4535 1.384 . S
N4534 C4530 1.427 . S
N4534 C4531 1.384 . S
N4535 C4527 1.427 . S
N4535 C4533 1.384 . S
H4536 C4542 0.930 . S
H4537 C4546 0.930 . S
H4538 C4551 0.929 . S
H4539 C4549 0.929 . S
H4540 C4544 0.929 . S
H4541 C4550 0.929 . S
C4542 H4536 0.930 . S
C4542 C4543 1.367 . S
C4542 C4550 1.378 . S
C4543 C4542 1.367 . S
C4543 C4551 1.433 . S
C4544 H4540 0.929 . S
C4544 C4546 1.378 . S
C4544 C4548 1.350 . S
C4545 C4548 1.463 1_554 S
C4545 C4550 1.350 . S
C4545 N4553 1.427 . S
C4546 H4537 0.930 . S
C4546 C4544 1.378 . S
C4546 C4547 1.367 . S
C4547 C4546 1.367 . S
C4547 C4549 1.433 . S
C4548 C4544 1.350 . S
C4548 C4545 1.463 1_556 S
C4548 N4552 1.427 . S
C4549 H4539 0.929 . S
C4549 C4547 1.433 . S
C4549 N4552 1.384 . S
C4550 H4541 0.929 . S
C4550 C4542 1.378 . S
C4550 C4545 1.350 . S
C4551 H4538 0.929 . S
C4551 C4543 1.433 . S
C4551 N4553 1.384 . S
N4552 C4548 1.427 . S
N4552 C4549 1.384 . S
N4553 C4545 1.427 . S
N4553 C4551 1.384 . S
H4554 C4560 0.930 . S
H4555 C4564 0.930 . S
H4556 C4569 0.929 . S
H4557 C4567 0.929 . S
H4558 C4562 0.929 . S
H4559 C4568 0.929 . S
C4560 H4554 0.930 . S
C4560 C4561 1.367 . S
C4560 C4568 1.378 . S
C4561 C4560 1.367 . S
C4561 C4569 1.433 . S
C4562 H4558 0.929 . S
C4562 C4564 1.378 . S
C4562 C4566 1.350 . S
C4563 C4566 1.463 1_556 S
C4563 C4568 1.350 . S
C4563 N4571 1.427 . S
C4564 H4555 0.930 . S
C4564 C4562 1.378 . S
C4564 C4565 1.367 . S
C4565 C4564 1.367 . S
C4565 C4567 1.433 . S
C4566 C4562 1.350 . S
C4566 C4563 1.463 1_554 S
C4566 N4570 1.427 . S
C4567 H4557 0.929 . S
C4567 C4565 1.433 . S
C4567 N4570 1.384 . S
C4568 H4559 0.929 . S
C4568 C4560 1.378 . S
C4568 C4563 1.350 . S
C4569 H4556 0.929 . S
C4569 C4561 1.433 . S
C4569 N4571 1.384 . S
N4570 C4566 1.427 . S
N4570 C4567 1.384 . S
N4571 C4563 1.427 . S
N4571 C4569 1.384 . S
H4572 C4578 0.930 . S
H4573 C4582 0.930 . S
H4574 C4587 0.929 . S
H4575 C4585 0.929 . S
H4576 C4580 0.929 . S
H4577 C4586 0.929 . S
C4578 H4572 0.930 . S
C4578 C4579 1.367 . S
C4578 C4586 1.378 . S
C4579 C4578 1.367 . S
C4579 C4587 1.433 . S
C4580 H4576 0.929 . S
C4580 C4582 1.378 . S
C4580 C4584 1.350 . S
C4581 C4584 1.463 1_556 S
C4581 C4586 1.350 . S
C4581 N4589 1.427 . S
C4582 H4573 0.930 . S
C4582 C4580 1.378 . S
C4582 C4583 1.367 . S
C4583 C4582 1.367 . S
C4583 C4585 1.433 . S
C4584 C4580 1.350 . S
C4584 C4581 1.463 1_554 S
C4584 N4588 1.427 . S
C4585 H4575 0.929 . S
C4585 C4583 1.433 . S
C4585 N4588 1.384 . S
C4586 H4577 0.929 . S
C4586 C4578 1.378 . S
C4586 C4581 1.350 . S
C4587 H4574 0.929 . S
C4587 C4579 1.433 . S
C4587 N4589 1.384 . S
N4588 C4584 1.427 . S
N4588 C4585 1.384 . S
N4589 C4581 1.427 . S
N4589 C4587 1.384 . S
H4590 C4596 0.930 . S
H4591 C4600 0.930 . S
H4592 C4605 0.929 . S
H4593 C4603 0.929 . S
H4594 C4598 0.929 . S
H4595 C4604 0.929 . S
C4596 H4590 0.930 . S
C4596 C4597 1.367 . S
C4596 C4604 1.378 . S
C4597 C4596 1.367 . S
C4597 C4605 1.433 . S
C4598 H4594 0.929 . S
C4598 C4600 1.378 . S
C4598 C4602 1.350 . S
C4599 C4602 1.463 . S
C4599 C4604 1.350 . S
C4599 N4607 1.427 . S
C4600 H4591 0.930 . S
C4600 C4598 1.378 . S
C4600 C4601 1.367 . S
C4601 C4600 1.367 . S
C4601 C4603 1.433 . S
C4602 C4598 1.350 . S
C4602 C4599 1.463 . S
C4602 N4606 1.427 . S
C4603 H4593 0.929 . S
C4603 C4601 1.433 . S
C4603 N4606 1.384 . S
C4604 H4595 0.929 . S
C4604 C4596 1.378 . S
C4604 C4599 1.350 . S
C4605 H4592 0.929 . S
C4605 C4597 1.433 . S
C4605 N4607 1.384 . S
N4606 C4602 1.427 . S
N4606 C4603 1.384 . S
N4607 C4599 1.427 . S
N4607 C4605 1.384 . S
H4608 C4614 0.930 . S
H4609 C4618 0.930 . S
H4610 C4623 0.929 . S
H4611 C4621 0.929 . S
H4612 C4616 0.929 . S
H4613 C4622 0.929 . S
C4614 H4608 0.930 . S
C4614 C4615 1.367 . S
C4614 C4622 1.378 . S
C4615 C4614 1.367 . S
C4615 C4623 1.433 . S
C4616 H4612 0.929 . S
C4616 C4618 1.378 . S
C4616 C4620 1.350 . S
C4617 C4620 1.463 . S
C4617 C4622 1.350 . S
C4617 N4625 1.427 . S
C4618 H4609 0.930 . S
C4618 C4616 1.378 . S
C4618 C4619 1.367 . S
C4619 C4618 1.367 . S
C4619 C4621 1.433 . S
C4620 C4616 1.350 . S
C4620 C4617 1.463 . S
C4620 N4624 1.427 . S
C4621 H4611 0.929 . S
C4621 C4619 1.433 . S
C4621 N4624 1.384 . S
C4622 H4613 0.929 . S
C4622 C4614 1.378 . S
C4622 C4617 1.350 . S
C4623 H4610 0.929 . S
C4623 C4615 1.433 . S
C4623 N4625 1.384 . S
N4624 C4620 1.427 . S
N4624 C4621 1.384 . S
N4625 C4617 1.427 . S
N4625 C4623 1.384 . S
H4626 C4632 0.930 . S
H4627 C4636 0.930 . S
H4628 C4641 0.929 . S
H4629 C4639 0.929 . S
H4630 C4634 0.929 . S
H4631 C4640 0.929 . S
C4632 H4626 0.930 . S
C4632 C4633 1.367 . S
C4632 C4640 1.378 . S
C4633 C4632 1.367 . S
C4633 C4641 1.433 . S
C4634 H4630 0.929 . S
C4634 C4636 1.378 . S
C4634 C4638 1.350 . S
C4635 C4638 1.463 . S
C4635 C4640 1.350 . S
C4635 N4643 1.427 . S
C4636 H4627 0.930 . S
C4636 C4634 1.378 . S
C4636 C4637 1.367 . S
C4637 C4636 1.367 . S
C4637 C4639 1.433 . S
C4638 C4634 1.350 . S
C4638 C4635 1.463 . S
C4638 N4642 1.427 . S
C4639 H4629 0.929 . S
C4639 C4637 1.433 . S
C4639 N4642 1.384 . S
C4640 H4631 0.929 . S
C4640 C4632 1.378 . S
C4640 C4635 1.350 . S
C4641 H4628 0.929 . S
C4641 C4633 1.433 . S
C4641 N4643 1.384 . S
N4642 C4638 1.427 . S
N4642 C4639 1.384 . S
N4643 C4635 1.427 . S
N4643 C4641 1.384 . S
H4644 C4650 0.930 . S
H4645 C4654 0.930 . S
H4646 C4659 0.929 . S
H4647 C4657 0.929 . S
H4648 C4652 0.929 . S
H4649 C4658 0.929 . S
C4650 H4644 0.930 . S
C4650 C4651 1.367 . S
C4650 C4658 1.378 . S
C4651 C4650 1.367 . S
C4651 C4659 1.433 . S
C4652 H4648 0.929 . S
C4652 C4654 1.378 . S
C4652 C4656 1.350 . S
C4653 C4656 1.463 1_455 S
C4653 C4658 1.350 . S
C4653 N4661 1.427 1_455 S
C4654 H4645 0.930 . S
C4654 C4652 1.378 . S
C4654 C4655 1.367 . S
C4655 C4654 1.367 . S
C4655 C4657 1.433 . S
C4656 C4652 1.350 . S
C4656 C4653 1.463 1_655 S
C4656 N4660 1.427 1_655 S
C4657 H4647 0.929 . S
C4657 C4655 1.433 . S
C4657 N4660 1.384 1_655 S
C4658 H4649 0.929 . S
C4658 C4650 1.378 . S
C4658 C4653 1.350 . S
C4659 H4646 0.929 . S
C4659 C4651 1.433 . S
C4659 N4661 1.384 1_455 S
N4660 C4656 1.427 1_455 S
N4660 C4657 1.384 1_455 S
N4661 C4653 1.427 1_655 S
N4661 C4659 1.384 1_655 S
H4662 C4668 0.930 . S
H4663 C4672 0.930 . S
H4664 C4677 0.929 . S
H4665 C4675 0.929 1_556 S
H4666 C4670 0.929 . S
H4667 C4676 0.929 . S
C4668 H4662 0.930 . S
C4668 C4669 1.367 . S
C4668 C4676 1.378 . S
C4669 C4668 1.367 . S
C4669 C4677 1.433 . S
C4670 H4666 0.929 . S
C4670 C4672 1.378 . S
C4670 C4674 1.350 . S
C4671 C4674 1.463 . S
C4671 C4676 1.350 . S
C4671 N4679 1.427 . S
C4672 H4663 0.930 . S
C4672 C4670 1.378 . S
C4672 C4673 1.367 . S
C4673 C4672 1.367 . S
C4673 C4675 1.433 . S
C4674 C4670 1.350 . S
C4674 C4671 1.463 . S
C4674 N4678 1.427 . S
C4675 H4665 0.929 1_554 S
C4675 C4673 1.433 . S
C4675 N4678 1.384 . S
C4676 H4667 0.929 . S
C4676 C4668 1.378 . S
C4676 C4671 1.350 . S
C4677 H4664 0.929 . S
C4677 C4669 1.433 . S
C4677 N4679 1.384 . S
N4678 C4674 1.427 . S
N4678 C4675 1.384 . S
N4679 C4671 1.427 . S
N4679 C4677 1.384 . S
H4680 C4686 0.930 . S
H4681 C4690 0.930 . S
H4682 C4695 0.929 . S
H4683 C4693 0.929 . S
H4684 C4688 0.929 . S
H4685 C4694 0.929 . S
C4686 H4680 0.930 . S
C4686 C4687 1.367 . S
C4686 C4694 1.378 1_545 S
C4687 C4686 1.367 . S
C4687 C4695 1.433 . S
C4688 H4684 0.929 . S
C4688 C4690 1.378 1_545 S
C4688 C4692 1.350 1_545 S
C4689 C4692 1.463 1_545 S
C4689 C4694 1.350 1_545 S
C4689 N4697 1.427 . S
C4690 H4681 0.930 . S
C4690 C4688 1.378 1_565 S
C4690 C4691 1.367 . S
C4691 C4690 1.367 . S
C4691 C4693 1.433 . S
C4692 C4688 1.350 1_565 S
C4692 C4689 1.463 1_565 S
C4692 N4696 1.427 . S
C4693 H4683 0.929 . S
C4693 C4691 1.433 . S
C4693 N4696 1.384 . S
C4694 H4685 0.929 . S
C4694 C4686 1.378 1_565 S
C4694 C4689 1.350 1_565 S
C4695 H4682 0.929 . S
C4695 C4687 1.433 . S
C4695 N4697 1.384 . S
N4696 C4692 1.427 . S
N4696 C4693 1.384 . S
N4697 C4689 1.427 . S
N4697 C4695 1.384 . S
H4698 C4704 0.930 . S
H4699 C4708 0.930 . S
H4700 C4713 0.929 . S
H4701 C4711 0.929 . S
H4702 C4706 0.929 . S
H4703 C4712 0.929 . S
C4704 H4698 0.930 . S
C4704 C4705 1.367 . S
C4704 C4712 1.378 1_565 S
C4705 C4704 1.367 . S
C4705 C4713 1.433 . S
C4706 H4702 0.929 . S
C4706 C4708 1.378 1_565 S
C4706 C4710 1.350 1_565 S
C4707 C4710 1.463 1_565 S
C4707 C4712 1.350 1_565 S
C4707 N4715 1.427 . S
C4708 H4699 0.930 . S
C4708 C4706 1.378 1_545 S
C4708 C4709 1.367 . S
C4709 C4708 1.367 . S
C4709 C4711 1.433 . S
C4710 C4706 1.350 1_545 S
C4710 C4707 1.463 1_545 S
C4710 N4714 1.427 . S
C4711 H4701 0.929 . S
C4711 C4709 1.433 . S
C4711 N4714 1.384 . S
C4712 H4703 0.929 . S
C4712 C4704 1.378 1_545 S
C4712 C4707 1.350 1_545 S
C4713 H4700 0.929 . S
C4713 C4705 1.433 . S
C4713 N4715 1.384 . S
N4714 C4710 1.427 . S
N4714 C4711 1.384 . S
N4715 C4707 1.427 . S
N4715 C4713 1.384 . S
H4716 C4722 0.930 . S
H4717 C4726 0.930 . S
H4718 C4731 0.929 . S
H4719 C4729 0.929 . S
H4720 C4724 0.925 . S
H4721 C4730 0.928 1_455 S
C4722 H4716 0.930 . S
C4722 C4723 1.367 . S
C4722 C4730 1.378 . S
C4723 C4722 1.367 . S
C4723 C4731 1.433 . S
C4724 H4720 0.925 . S
C4724 C4726 1.379 1_655 S
C4724 C4728 1.352 1_655 S
C4725 C4728 1.463 1_655 S
C4725 C4730 1.350 . S
C4725 N4733 1.427 . S
C4726 H4717 0.930 . S
C4726 C4724 1.379 1_455 S
C4726 C4727 1.367 . S
C4727 C4726 1.367 . S
C4727 C4729 1.433 . S
C4728 C4724 1.352 1_455 S
C4728 C4725 1.463 1_455 S
C4728 N4732 1.427 . S
C4729 H4719 0.929 . S
C4729 C4727 1.433 . S
C4729 N4732 1.384 . S
C4730 H4721 0.928 1_655 S
C4730 C4722 1.378 . S
C4730 C4725 1.350 . S
C4731 H4718 0.929 . S
C4731 C4723 1.433 . S
C4731 N4733 1.384 . S
N4732 C4728 1.427 . S
N4732 C4729 1.384 . S
N4733 C4725 1.427 . S
N4733 C4731 1.384 . S
H4734 C4740 0.930 . S
H4735 C4744 0.930 . S
H4736 C4749 0.929 . S
H4737 C4747 0.929 . S
H4738 C4742 0.929 . S
H4739 C4748 0.929 . S
C4740 H4734 0.930 . S
C4740 C4741 1.367 . S
C4740 C4748 1.378 . S
C4741 C4740 1.367 . S
C4741 C4749 1.433 . S
C4742 H4738 0.929 . S
C4742 C4744 1.378 . S
C4742 C4746 1.350 . S
C4743 C4746 1.463 . S
C4743 C4748 1.350 . S
C4743 N4751 1.427 . S
C4744 H4735 0.930 . S
C4744 C4742 1.378 . S
C4744 C4745 1.367 . S
C4745 C4744 1.367 . S
C4745 C4747 1.433 . S
C4746 C4742 1.350 . S
C4746 C4743 1.463 . S
C4746 N4750 1.427 . S
C4747 H4737 0.929 . S
C4747 C4745 1.433 . S
C4747 N4750 1.384 . S
C4748 H4739 0.929 . S
C4748 C4740 1.378 . S
C4748 C4743 1.350 . S
C4749 H4736 0.929 . S
C4749 C4741 1.433 . S
C4749 N4751 1.384 . S
N4750 C4746 1.427 . S
N4750 C4747 1.384 . S
N4751 C4743 1.427 . S
N4751 C4749 1.384 . S
H4752 C4758 0.930 . S
H4753 C4762 0.930 . S
H4754 C4767 0.929 . S
H4755 C4765 0.929 . S
H4756 C4760 0.929 . S
H4757 C4766 0.929 . S
C4758 H4752 0.930 . S
C4758 C4759 1.367 . S
C4758 C4766 1.378 . S
C4759 C4758 1.367 . S
C4759 C4767 1.433 . S
C4760 H4756 0.929 . S
C4760 C4762 1.378 . S
C4760 C4764 1.350 . S
C4761 C4764 1.463 . S
C4761 C4766 1.350 . S
C4761 N4769 1.427 . S
C4762 H4753 0.930 . S
C4762 C4760 1.378 . S
C4762 C4763 1.367 . S
C4763 C4762 1.367 . S
C4763 C4765 1.433 . S
C4764 C4760 1.350 . S
C4764 C4761 1.463 . S
C4764 N4768 1.427 . S
C4765 H4755 0.929 . S
C4765 C4763 1.433 . S
C4765 N4768 1.384 . S
C4766 H4757 0.929 . S
C4766 C4758 1.378 . S
C4766 C4761 1.350 . S
C4767 H4754 0.929 . S
C4767 C4759 1.433 . S
C4767 N4769 1.384 . S
N4768 C4764 1.427 . S
N4768 C4765 1.384 . S
N4769 C4761 1.427 . S
N4769 C4767 1.384 . S
H4770 C4776 0.930 . S
H4771 C4780 0.930 . S
H4772 C4785 0.929 . S
H4773 C4783 0.929 . S
H4774 C4778 0.929 . S
H4775 C4784 0.929 . S
C4776 H4770 0.930 . S
C4776 C4777 1.367 . S
C4776 C4784 1.378 . S
C4777 C4776 1.367 . S
C4777 C4785 1.433 . S
C4778 H4774 0.929 . S
C4778 C4780 1.378 . S
C4778 C4782 1.350 . S
C4779 C4782 1.463 . S
C4779 C4784 1.350 . S
C4779 N4787 1.427 . S
C4780 H4771 0.930 . S
C4780 C4778 1.378 . S
C4780 C4781 1.367 . S
C4781 C4780 1.367 . S
C4781 C4783 1.433 . S
C4782 C4778 1.350 . S
C4782 C4779 1.463 . S
C4782 N4786 1.427 . S
C4783 H4773 0.929 . S
C4783 C4781 1.433 . S
C4783 N4786 1.384 . S
C4784 H4775 0.929 . S
C4784 C4776 1.378 . S
C4784 C4779 1.350 . S
C4785 H4772 0.929 . S
C4785 C4777 1.433 . S
C4785 N4787 1.384 . S
N4786 C4782 1.427 . S
N4786 C4783 1.384 . S
N4787 C4779 1.427 . S
N4787 C4785 1.384 . S
H4788 C4794 0.930 . S
H4789 C4798 0.930 . S
H4790 C4803 0.929 . S
H4791 C4801 0.929 . S
H4792 C4796 0.929 . S
H4793 C4802 0.929 . S
C4794 H4788 0.930 . S
C4794 C4795 1.367 . S
C4794 C4802 1.378 . S
C4795 C4794 1.367 . S
C4795 C4803 1.433 . S
C4796 H4792 0.929 . S
C4796 C4798 1.378 . S
C4796 C4800 1.350 . S
C4797 C4800 1.463 . S
C4797 C4802 1.350 . S
C4797 N4805 1.427 . S
C4798 H4789 0.930 . S
C4798 C4796 1.378 . S
C4798 C4799 1.367 . S
C4799 C4798 1.367 . S
C4799 C4801 1.433 . S
C4800 C4796 1.350 . S
C4800 C4797 1.463 . S
C4800 N4804 1.427 . S
C4801 H4791 0.929 . S
C4801 C4799 1.433 . S
C4801 N4804 1.384 . S
C4802 H4793 0.929 . S
C4802 C4794 1.378 . S
C4802 C4797 1.350 . S
C4803 H4790 0.929 . S
C4803 C4795 1.433 . S
C4803 N4805 1.384 . S
N4804 C4800 1.427 . S
N4804 C4801 1.384 . S
N4805 C4797 1.427 . S
N4805 C4803 1.384 . S
H4806 C4812 0.930 . S
H4807 C4816 0.930 . S
H4808 C4821 0.929 . S
H4809 C4819 0.929 . S
H4810 C4814 0.929 . S
H4811 C4820 0.929 . S
C4812 H4806 0.930 . S
C4812 C4813 1.367 . S
C4812 C4820 1.378 . S
C4813 C4812 1.367 . S
C4813 C4821 1.433 . S
C4814 H4810 0.929 . S
C4814 C4816 1.378 . S
C4814 C4818 1.350 . S
C4815 C4818 1.463 . S
C4815 C4820 1.350 . S
C4815 N4823 1.427 . S
C4816 H4807 0.930 . S
C4816 C4814 1.378 . S
C4816 C4817 1.367 . S
C4817 C4816 1.367 . S
C4817 C4819 1.433 . S
C4818 C4814 1.350 . S
C4818 C4815 1.463 . S
C4818 N4822 1.427 . S
C4819 H4809 0.929 . S
C4819 C4817 1.433 . S
C4819 N4822 1.384 . S
C4820 H4811 0.929 . S
C4820 C4812 1.378 . S
C4820 C4815 1.350 . S
C4821 H4808 0.929 . S
C4821 C4813 1.433 . S
C4821 N4823 1.384 . S
N4822 C4818 1.427 . S
N4822 C4819 1.384 . S
N4823 C4815 1.427 . S
N4823 C4821 1.384 . S
H4824 C4830 0.930 1_554 S
H4825 C4834 0.930 . S
H4826 C4839 0.929 . S
H4827 C4837 0.929 . S
H4828 C4832 0.929 . S
H4829 C4838 0.929 . S
C4830 H4824 0.930 1_556 S
C4830 C4831 1.367 . S
C4830 C4838 1.378 . S
C4831 C4830 1.367 . S
C4831 C4839 1.433 . S
C4832 H4828 0.929 . S
C4832 C4834 1.378 . S
C4832 C4836 1.350 . S
C4833 C4836 1.463 . S
C4833 C4838 1.350 . S
C4833 N4841 1.427 . S
C4834 H4825 0.930 . S
C4834 C4832 1.378 . S
C4834 C4835 1.367 . S
C4835 C4834 1.367 . S
C4835 C4837 1.433 . S
C4836 C4832 1.350 . S
C4836 C4833 1.463 . S
C4836 N4840 1.427 . S
C4837 H4827 0.929 . S
C4837 C4835 1.433 . S
C4837 N4840 1.384 . S
C4838 H4829 0.929 . S
C4838 C4830 1.378 . S
C4838 C4833 1.350 . S
C4839 H4826 0.929 . S
C4839 C4831 1.433 . S
C4839 N4841 1.384 . S
N4840 C4836 1.427 . S
N4840 C4837 1.384 . S
N4841 C4833 1.427 . S
N4841 C4839 1.384 . S
H4842 C4848 0.930 . S
H4843 C4852 0.930 . S
H4844 C4857 0.929 . S
H4845 C4855 0.929 . S
H4846 C4850 0.929 . S
H4847 C4856 0.929 . S
C4848 H4842 0.930 . S
C4848 C4849 1.367 . S
C4848 C4856 1.378 . S
C4849 C4848 1.367 . S
C4849 C4857 1.433 . S
C4850 H4846 0.929 . S
C4850 C4852 1.378 . S
C4850 C4854 1.350 . S
C4851 C4854 1.463 . S
C4851 C4856 1.350 . S
C4851 N4859 1.427 . S
C4852 H4843 0.930 . S
C4852 C4850 1.378 . S
C4852 C4853 1.367 . S
C4853 C4852 1.367 . S
C4853 C4855 1.433 . S
C4854 C4850 1.350 . S
C4854 C4851 1.463 . S
C4854 N4858 1.427 . S
C4855 H4845 0.929 . S
C4855 C4853 1.433 . S
C4855 N4858 1.384 . S
C4856 H4847 0.929 . S
C4856 C4848 1.378 . S
C4856 C4851 1.350 . S
C4857 H4844 0.929 . S
C4857 C4849 1.433 . S
C4857 N4859 1.384 . S
N4858 C4854 1.427 . S
N4858 C4855 1.384 . S
N4859 C4851 1.427 . S
N4859 C4857 1.384 . S
H4860 C4866 0.930 . S
H4861 C4870 0.930 . S
H4862 C4875 0.929 . S
H4863 C4873 0.929 . S
H4864 C4868 0.929 . S
H4865 C4874 0.929 . S
C4866 H4860 0.930 . S
C4866 C4867 1.367 . S
C4866 C4874 1.378 . S
C4867 C4866 1.367 . S
C4867 C4875 1.433 . S
C4868 H4864 0.929 . S
C4868 C4870 1.378 . S
C4868 C4872 1.350 . S
C4869 C4872 1.463 . S
C4869 C4874 1.350 . S
C4869 N4877 1.427 . S
C4870 H4861 0.930 . S
C4870 C4868 1.378 . S
C4870 C4871 1.367 . S
C4871 C4870 1.367 . S
C4871 C4873 1.433 . S
C4872 C4868 1.350 . S
C4872 C4869 1.463 . S
C4872 N4876 1.427 . S
C4873 H4863 0.929 . S
C4873 C4871 1.433 . S
C4873 N4876 1.384 . S
C4874 H4865 0.929 . S
C4874 C4866 1.378 . S
C4874 C4869 1.350 . S
C4875 H4862 0.929 . S
C4875 C4867 1.433 . S
C4875 N4877 1.384 . S
N4876 C4872 1.427 . S
N4876 C4873 1.384 . S
N4877 C4869 1.427 . S
N4877 C4875 1.384 . S
H4878 C4884 0.930 . S
H4879 C4888 0.930 . S
H4880 C4893 0.929 . S
H4881 C4891 0.929 . S
H4882 C4886 0.929 . S
H4883 C4892 0.929 . S
C4884 H4878 0.930 . S
C4884 C4885 1.367 . S
C4884 C4892 1.378 . S
C4885 C4884 1.367 . S
C4885 C4893 1.433 . S
C4886 H4882 0.929 . S
C4886 C4888 1.378 . S
C4886 C4890 1.350 . S
C4887 C4890 1.463 . S
C4887 C4892 1.350 . S
C4887 N4895 1.427 . S
C4888 H4879 0.930 . S
C4888 C4886 1.378 . S
C4888 C4889 1.367 . S
C4889 C4888 1.367 . S
C4889 C4891 1.433 . S
C4890 C4886 1.350 . S
C4890 C4887 1.463 . S
C4890 N4894 1.427 . S
C4891 H4881 0.929 . S
C4891 C4889 1.433 . S
C4891 N4894 1.384 . S
C4892 H4883 0.929 . S
C4892 C4884 1.378 . S
C4892 C4887 1.350 . S
C4893 H4880 0.929 . S
C4893 C4885 1.433 . S
C4893 N4895 1.384 . S
N4894 C4890 1.427 . S
N4894 C4891 1.384 . S
N4895 C4887 1.427 . S
N4895 C4893 1.384 . S
H4896 C4902 0.930 . S
H4897 C4906 0.930 . S
H4898 C4911 0.929 . S
H4899 C4909 0.929 . S
H4900 C4904 0.929 . S
H4901 C4910 0.929 . S
C4902 H4896 0.930 . S
C4902 C4903 1.367 . S
C4902 C4910 1.378 . S
C4903 C4902 1.367 . S
C4903 C4911 1.433 . S
C4904 H4900 0.929 . S
C4904 C4906 1.378 . S
C4904 C4908 1.350 . S
C4905 C4908 1.463 . S
C4905 C4910 1.350 . S
C4905 N4913 1.427 . S
C4906 H4897 0.930 . S
C4906 C4904 1.378 . S
C4906 C4907 1.367 . S
C4907 C4906 1.367 . S
C4907 C4909 1.433 . S
C4908 C4904 1.350 . S
C4908 C4905 1.463 . S
C4908 N4912 1.427 . S
C4909 H4899 0.929 . S
C4909 C4907 1.433 . S
C4909 N4912 1.384 . S
C4910 H4901 0.929 . S
C4910 C4902 1.378 . S
C4910 C4905 1.350 . S
C4911 H4898 0.929 . S
C4911 C4903 1.433 . S
C4911 N4913 1.384 . S
N4912 C4908 1.427 . S
N4912 C4909 1.384 . S
N4913 C4905 1.427 . S
N4913 C4911 1.384 . S
H4914 C4920 0.930 . S
H4915 C4924 0.930 . S
H4916 C4929 0.929 . S
H4917 C4927 0.929 . S
H4918 C4922 0.929 . S
H4919 C4928 0.929 . S
C4920 H4914 0.930 . S
C4920 C4921 1.367 . S
C4920 C4928 1.378 . S
C4921 C4920 1.367 . S
C4921 C4929 1.433 . S
C4922 H4918 0.929 . S
C4922 C4924 1.378 . S
C4922 C4926 1.350 . S
C4923 C4926 1.463 . S
C4923 C4928 1.350 . S
C4923 N4931 1.427 . S
C4924 H4915 0.930 . S
C4924 C4922 1.378 . S
C4924 C4925 1.367 . S
C4925 C4924 1.367 . S
C4925 C4927 1.433 . S
C4926 C4922 1.350 . S
C4926 C4923 1.463 . S
C4926 N4930 1.427 . S
C4927 H4917 0.929 . S
C4927 C4925 1.433 . S
C4927 N4930 1.384 . S
C4928 H4919 0.929 . S
C4928 C4920 1.378 . S
C4928 C4923 1.350 . S
C4929 H4916 0.929 . S
C4929 C4921 1.433 . S
C4929 N4931 1.384 . S
N4930 C4926 1.427 . S
N4930 C4927 1.384 . S
N4931 C4923 1.427 . S
N4931 C4929 1.384 . S
H4932 C4938 0.930 . S
H4933 C4942 0.930 . S
H4934 C4947 0.929 . S
H4935 C4945 0.929 . S
H4936 C4940 0.929 . S
H4937 C4946 0.929 . S
C4938 H4932 0.930 . S
C4938 C4939 1.367 . S
C4938 C4946 1.378 . S
C4939 C4938 1.367 . S
C4939 C4947 1.433 . S
C4940 H4936 0.929 . S
C4940 C4942 1.378 . S
C4940 C4944 1.350 . S
C4941 C4944 1.463 . S
C4941 C4946 1.350 . S
C4941 N4949 1.427 . S
C4942 H4933 0.930 . S
C4942 C4940 1.378 . S
C4942 C4943 1.367 . S
C4943 C4942 1.367 . S
C4943 C4945 1.433 . S
C4944 C4940 1.350 . S
C4944 C4941 1.463 . S
C4944 N4948 1.427 . S
C4945 H4935 0.929 . S
C4945 C4943 1.433 . S
C4945 N4948 1.384 . S
C4946 H4937 0.929 . S
C4946 C4938 1.378 . S
C4946 C4941 1.350 . S
C4947 H4934 0.929 . S
C4947 C4939 1.433 . S
C4947 N4949 1.384 . S
N4948 C4944 1.427 . S
N4948 C4945 1.384 . S
N4949 C4941 1.427 . S
N4949 C4947 1.384 . S
H4950 C4956 0.930 . S
H4951 C4960 0.930 . S
H4952 C4965 0.929 . S
H4953 C4963 0.929 . S
H4954 C4958 0.929 . S
H4955 C4964 0.929 . S
C4956 H4950 0.930 . S
C4956 C4957 1.367 . S
C4956 C4964 1.378 . S
C4957 C4956 1.367 . S
C4957 C4965 1.433 . S
C4958 H4954 0.929 . S
C4958 C4960 1.378 . S
C4958 C4962 1.350 . S
C4959 C4962 1.463 . S
C4959 C4964 1.350 . S
C4959 N4967 1.427 . S
C4960 H4951 0.930 . S
C4960 C4958 1.378 . S
C4960 C4961 1.367 . S
C4961 C4960 1.367 . S
C4961 C4963 1.433 . S
C4962 C4958 1.350 . S
C4962 C4959 1.463 . S
C4962 N4966 1.427 . S
C4963 H4953 0.929 . S
C4963 C4961 1.433 . S
C4963 N4966 1.384 . S
C4964 H4955 0.929 . S
C4964 C4956 1.378 . S
C4964 C4959 1.350 . S
C4965 H4952 0.929 . S
C4965 C4957 1.433 . S
C4965 N4967 1.384 . S
N4966 C4962 1.427 . S
N4966 C4963 1.384 . S
N4967 C4959 1.427 . S
N4967 C4965 1.384 . S
C3031 C1334 1.382 . S
C3035 C74 1.387 . S
C3049 C1418 1.384 . S
C3053 C158 1.380 . S
C3067 C242 1.381 . S
C3071 C1502 1.387 . S
C3085 C326 1.380 . S
C3089 C2090 1.387 . S
C3103 C410 1.384 . S
C3107 C2174 1.381 . S
C3121 C494 1.381 . S
C3125 C2258 1.386 . S
C3139 C2835 1.382 . S
C3143 C567 1.381 . S
C3157 C2919 1.387 . S
C3161 C651 1.383 . S
C3175 C735 1.384 . S
C3179 C3003 1.385 . S
C3193 C1575 1.386 . S
C3197 C819 1.380 . S
C3211 C903 1.381 . S
C3215 C1659 1.386 . S
C3229 C987 1.383 . S
C3233 C1743 1.386 . S
C3247 C2342 1.381 . S
C3251 C1082 1.384 . S
C3265 C1166 1.389 . S
C3269 C2426 1.382 . S
C3283 C2510 1.379 . S
C3287 C1250 1.386 . S
C3301 C2583 1.381 . S
C3305 C1827 1.384 . S
C3319 C2667 1.387 . S
C3323 C1911 1.382 . S
C3337 C1995 1.382 . S
C3341 C2751 1.386 . S
C3355 C70 0.776 . S
C3359 C406 0.776 . S
C3373 C154 0.793 . S
C3377 C490 0.774 . S
C3391 C238 0.773 . S
C3395 C322 0.790 . S
C3409 C562 0.796 . S
C3413 C898 0.819 . S
C3427 C646 0.812 . S
C3431 C982 0.786 . S
C3445 C730 0.792 . S
C3449 C814 0.773 . S
C3463 C1078 0.778 . S
C3467 C1414 0.802 . S
C3481 C1498 0.783 . S
C3485 C1162 0.809 . S
C3499 C1246 0.773 . S
C3503 C1330 0.789 . S
C3517 C1570 0.810 . S
C3521 C1906 0.785 . S
C3535 C1654 0.820 . S
C3539 C1990 0.821 . S
C3553 C1822 0.813 . S
C3557 C1738 0.788 . S
C3571 C2086 0.785 . S
C3575 C2422 0.772 . S
C3589 C2506 0.802 . S
C3593 C2170 0.822 . S
C3607 C2254 0.774 . S
C3611 C2338 0.793 . S
C3625 C2578 0.817 . S
C3629 C2914 0.793 . S
C3643 C2662 0.823 . S
C3647 C2998 0.815 . S
C3661 C2746 0.773 . S
C3665 C2830 0.782 . S
C3679 C910 1.636 . S
C3683 C67 1.557 . S
C3697 C151 1.554 . S
C3701 C994 1.633 . S
C3715 C235 1.569 . S
C3719 C826 1.643 . S
C3733 C319 1.557 . S
C3737 C742 1.636 . S
C3751 C403 1.558 . S
C3755 C574 1.635 . S
C3769 C658 1.638 . S
C3773 C487 1.560 . S
C3787 C560 1.556 . S
C3791 C394 1.635 . S
C3805 C478 1.638 . S
C3809 C644 1.562 . S
C3823 C728 1.562 . S
C3827 C310 1.639 . S
C3841 C812 1.568 . S
C3845 C226 1.643 . S
C3859 C58 1.635 . S
C3863 C896 1.556 . S
C3877 C142 1.644 . S
C3881 C980 1.569 . S
C3895 C1918 1.631 . S
C3899 C1075 1.550 . S
C3913 C2002 1.644 . S
C3917 C1159 1.570 . S
C3931 C1834 1.630 . S
C3935 C1243 1.549 . S
C3949 C1750 1.631 . S
C3953 C1327 1.551 . S
C3967 C1411 1.569 . S
C3971 C1582 1.644 . S
C3985 C1666 1.636 . S
C3989 C1495 1.559 . S
C4003 C1402 1.631 . S
C4007 C1568 1.550 . S
C4021 C1652 1.568 . S
C4025 C1486 1.643 . S
C4039 C1736 1.566 . S
C4043 C1318 1.642 . S
C4057 C1234 1.631 . S
C4061 C1820 1.550 . S
C4075 C1904 1.568 . S
C4079 C1066 1.643 . S
C4093 C1988 1.558 . S
C4097 C1150 1.637 . S
C4111 C2083 1.560 . S
C4115 C2926 1.637 . S
C4129 C2167 1.568 . S
C4133 C3010 1.643 . S
C4147 C2842 1.644 . S
C4151 C2251 1.569 . S
C4165 C2758 1.633 . S
C4169 C2335 1.553 . S
C4183 C2419 1.559 . S
C4187 C2590 1.636 . S
C4201 C2674 1.638 . S
C4205 C2503 1.561 . S
C4219 C2576 1.569 . S
C4223 C2410 1.644 1_556 S
C4237 C2494 1.642 1_556 S
C4241 C2660 1.566 . S
C4255 C2744 1.550 . S
C4259 C2326 1.630 1_556 S
C4273 C2828 1.569 . S
C4277 C2242 1.644 1_554 S
C4291 C2074 1.637 1_554 S
C4295 C2912 1.560 . S
C4309 C2158 1.640 1_554 S
C4313 C2996 1.563 . S
C4327 C56 2.711 . S
C4331 C392 2.713 . S
C4345 C476 2.712 . S
C4349 C140 2.706 . S
C4363 C224 2.703 . S
C4367 C308 2.706 . S
C4381 C571 2.703 . S
C4385 C907 2.706 . S
C4399 C991 2.713 . S
C4403 C655 2.710 . S
C4417 C739 2.711 . S
C4421 C823 2.712 . S
C4435 C1400 2.705 . S
C4439 C1064 2.703 . S
C4453 C1484 2.706 . S
C4457 C1148 2.711 . S
C4471 C1316 2.703 . S
C4475 C1232 2.704 . S
C4489 C1915 2.705 . S
C4493 C1579 2.710 . S
C4507 C1663 2.712 . S
C4511 C1999 2.706 . S
C4525 C1831 2.708 . S
C4529 C1747 2.703 . S
C4543 C2408 2.711 . S
C4547 C2072 2.713 . S
C4561 C2156 2.711 . S
C4565 C2492 2.713 . S
C4579 C2240 2.712 . S
C4583 C2324 2.707 . S
C4597 C2923 2.707 . S
C4601 C2587 2.712 . S
C4615 C2671 2.711 . S
C4619 C3007 2.705 . S
C4633 C2755 2.706 . S
C4637 C2839 2.703 . S
C4651 C63 0.792 . S
C4655 C578 0.792 . S
C4669 C147 0.784 . S
C4673 C662 0.784 . S
C4687 C746 0.806 . S
C4691 C231 0.806 . S
C4705 C830 0.817 . S
C4709 C315 0.817 . S
C4723 C399 0.824 . S
C4727 C914 0.824 . S
C4741 C483 0.801 . S
C4745 C998 0.801 . S
C4759 C1586 0.806 . S
C4763 C1071 0.806 . S
C4777 C1155 0.820 . S
C4781 C1670 0.820 . S
C4795 C1754 0.821 . S
C4799 C1239 0.821 . S
C4813 C1838 0.791 . S
C4817 C1323 0.791 . S
C4831 C1922 0.821 . S
C4835 C1407 0.821 . S
C4849 C2006 0.793 . S
C4853 C1491 0.793 . S
C4867 C2594 0.775 . S
C4871 C2079 0.775 . S
C4885 C2163 0.817 . S
C4889 C2678 0.817 . S
C4903 C2762 0.819 . S
C4907 C2247 0.819 . S
C4921 C2846 0.772 . S
C4925 C2331 0.772 . S
C4939 C2930 0.796 . S
C4943 C2415 0.796 . S
C4957 C2499 0.814 . S
C4961 C3014 0.814 . S
