# Generated by pormake.
# Topology uni, (4)-cn, num edge types: 1
# Building blocks:
#     Node 0, Type 0, BuildingBlock: QUQFOY_clean_sbu_1, # of connection points: 4
#     Node 1, Type 0, BuildingBlock: QUQFOY_clean_sbu_1, # of connection points: 4
#     Node 2, Type 0, BuildingBlock: QUQFOY_clean_sbu_1, # of connection points: 4
#     Node 3, Type 0, BuildingBlock: QUQFOY_clean_sbu_1, # of connection points: 4
#     Node 4, Type 0, BuildingBlock: QUQFOY_clean_sbu_1, # of connection points: 4
#     Node 5, Type 0, BuildingBlock: QUQFOY_clean_sbu_1, # of connection points: 4
#     Edge 6, Type (0, 0), BuildingBlock: XIVTED_clean_linker_0, # of connection points: 2
#     Edge 7, Type (0, 0), BuildingBlock: XIVTED_clean_linker_0, # of connection points: 2
#     Edge 8, Type (0, 0), BuildingBlock: XIVTED_clean_linker_0, # of connection points: 2
#     Edge 9, Type (0, 0), BuildingBlock: XIVTED_clean_linker_0, # of connection points: 2
#     Edge 10, Type (0, 0), BuildingBlock: XIVTED_clean_linker_0, # of connection points: 2
#     Edge 11, Type (0, 0), BuildingBlock: XIVTED_clean_linker_0, # of connection points: 2
#     Edge 12, Type (0, 0), BuildingBlock: XIVTED_clean_linker_0, # of connection points: 2
#     Edge 13, Type (0, 0), BuildingBlock: XIVTED_clean_linker_0, # of connection points: 2
#     Edge 14, Type (0, 0), BuildingBlock: XIVTED_clean_linker_0, # of connection points: 2
#     Edge 15, Type (0, 0), BuildingBlock: XIVTED_clean_linker_0, # of connection points: 2
#     Edge 16, Type (0, 0), BuildingBlock: XIVTED_clean_linker_0, # of connection points: 2
#     Edge 17, Type (0, 0), BuildingBlock: XIVTED_clean_linker_0, # of connection points: 2
# Relax obj value: 0.074
# Max RMSD: 0.155
# Mean RMSD: 0.155
data_MOF--net-uni--node1-QUQFOY_clean_sbu_1--edge1-XIVTED_clean_linker_0
_symmetry_space_group_name_H-M    P1
_symmetry_Int_Tables_number       1
_symmetry_cell_setting            triclinic
loop_
_symmetry_equiv_pos_as_xyz
'x, y, z'
_cell_length_a     43.150786
_cell_length_b     43.166594
_cell_length_c     22.828043
_cell_angle_alpha  89.908656
_cell_angle_beta   90.064029
_cell_angle_gamma 119.99285
loop_
_atom_site_label
_atom_site_type_symbol
_atom_site_fract_x
_atom_site_fract_y
_atom_site_fract_z
_atom_type_partial_charge
O0 O 0.62334 0.04559 0.97535 0.0
Cd1 Cd 0.65642 0.05792 0.04676 0.0
Cd2 Cd 0.61915 0.9828 0.05253 0.0
O3 O 0.5988 0.98691 0.97318 0.0
O4 O 0.68521 0.11054 0.03772 0.0
O5 O 0.70943 0.0761 0.03484 0.0
C6 C 0.7132 0.10763 0.03082 0.0
C7 C 0.62626 0.93302 0.06739 0.0
C8 C 0.60251 0.01567 0.95154 0.0
C9 C 0.60781 0.02486 0.14847 0.0
O10 O 0.59885 0.99499 0.12463 0.0
O11 O 0.6325 0.05374 0.12653 0.0
O12 O 0.59533 0.93016 0.06126 0.0
O13 O 0.65401 0.96455 0.06335 0.0
O14 O 0.6014 0.62286 0.13242 0.0
Cd15 Cd 0.62064 0.65437 0.20578 0.0
Cd16 Cd 0.65765 0.61668 0.21142 0.0
O17 O 0.63523 0.59796 0.13037 0.0
O18 O 0.59708 0.68342 0.19663 0.0
O19 O 0.65576 0.70754 0.19694 0.0
C20 C 0.62812 0.71147 0.19182 0.0
C21 C 0.71469 0.62517 0.23032 0.0
C22 C 0.61077 0.60241 0.10806 0.0
C23 C 0.60229 0.60334 0.30474 0.0
O24 O 0.62338 0.59455 0.28109 0.0
O25 O 0.59904 0.62887 0.28395 0.0
O26 O 0.68741 0.59398 0.22174 0.0
O27 O 0.71009 0.65242 0.22598 0.0
O28 O 0.99709 0.59816 0.3069 0.0
Cd29 Cd 0.98562 0.61899 0.37908 0.0
Cd30 Cd 0.06035 0.65669 0.38273 0.0
O31 O 0.0557 0.63272 0.30288 0.0
O32 O 0.93287 0.5953 0.37221 0.0
O33 O 0.96746 0.65391 0.36821 0.0
C34 C 0.93581 0.62623 0.36552 0.0
C35 C 0.10933 0.71401 0.39769 0.0
C36 C 0.02678 0.6075 0.282 0.0
C37 C 0.01972 0.60313 0.47903 0.0
O38 O 0.04933 0.62389 0.45427 0.0
O39 O 0.99067 0.59927 0.4584 0.0
O40 O 0.11299 0.6865 0.39026 0.0
O41 O 0.07744 0.70943 0.39465 0.0
O42 O 0.42068 0.99699 0.47493 0.0
Cd43 Cd 0.3875 0.98436 0.54621 0.0
Cd44 Cd 0.42443 0.05919 0.55177 0.0
O45 O 0.44491 0.05563 0.47232 0.0
O46 O 0.35885 0.93177 0.53687 0.0
O47 O 0.33449 0.96609 0.53407 0.0
C48 C 0.33082 0.93462 0.52988 0.0
C49 C 0.41618 0.10811 0.56803 0.0
C50 C 0.44137 0.02691 0.45093 0.0
C51 C 0.43613 0.01726 0.64774 0.0
O52 O 0.44509 0.04709 0.62362 0.0
O53 O 0.41134 0.98837 0.62608 0.0
O54 O 0.44738 0.11168 0.5615 0.0
O55 O 0.3888 0.0764 0.56313 0.0
O56 O 0.44217 0.41809 0.63276 0.0
Cd57 Cd 0.42275 0.38674 0.70641 0.0
Cd58 Cd 0.3858 0.42448 0.71114 0.0
O59 O 0.40821 0.44286 0.62997 0.0
O60 O 0.44656 0.35785 0.6989 0.0
O61 O 0.38786 0.33348 0.69798 0.0
C62 C 0.41561 0.32968 0.69418 0.0
C63 C 0.32876 0.41604 0.7296 0.0
C64 C 0.43274 0.43845 0.608 0.0
C65 C 0.44105 0.43808 0.80476 0.0
O66 O 0.4201 0.44696 0.7807 0.0
O67 O 0.44413 0.4124 0.78446 0.0
O68 O 0.356 0.44719 0.72056 0.0
O69 O 0.33339 0.38878 0.72598 0.0
O70 O 0.04717 0.44401 0.80758 0.0
Cd71 Cd 0.05871 0.42316 0.87981 0.0
Cd72 Cd 0.98396 0.38548 0.88347 0.0
O73 O 0.98856 0.40944 0.8035 0.0
O74 O 0.11143 0.44677 0.87268 0.0
O75 O 0.07675 0.38817 0.86897 0.0
C76 C 0.10841 0.41582 0.866 0.0
C77 C 0.9349 0.32823 0.89879 0.0
C78 C 0.01748 0.43467 0.78262 0.0
C79 C 0.02474 0.43905 -0.02038 0.0
O80 O 0.99512 0.41831 0.95486 0.0
O81 O 0.05378 0.44289 0.95906 0.0
O82 O 0.93132 0.35578 0.89121 0.0
O83 O 0.96675 0.33271 0.89566 0.0
H84 H 0.55559 0.9683 0.20898 0.0
H85 H 0.49658 0.08607 0.39806 0.0
H86 H 0.61019 0.08365 0.19956 0.0
H87 H 0.43922 0.97056 0.39332 0.0
H88 H 0.53901 0.08657 0.32633 0.0
H89 H 0.51462 0.96953 0.28066 0.0
C90 C 0.55923 0.99396 0.22242 0.0
C91 C 0.5863 0.02592 0.19793 0.0
C92 C 0.51699 0.06117 0.34083 0.0
C93 C 0.53898 0.02748 0.27972 0.0
C94 C 0.49262 0.06085 0.38144 0.0
C95 C 0.46436 0.02821 0.40196 0.0
C96 C 0.51305 0.02863 0.32081 0.0
C97 C 0.46065 0.99638 0.37906 0.0
C98 C 0.53563 0.99463 0.26318 0.0
C99 C 0.58971 0.05836 0.21729 0.0
N100 N 0.48481 0.99741 0.34004 0.0
N101 N 0.56614 0.0583 0.25686 0.0
H102 H 0.60394 0.54855 0.3616 0.0
H103 H 0.42912 0.49354 0.554 0.0
H104 H 0.54635 0.60649 0.35624 0.0
H105 H 0.48507 0.43399 0.54816 0.0
H106 H 0.47065 0.53481 0.48065 0.0
H107 H 0.56081 0.50725 0.43201 0.0
C108 C 0.58238 0.55281 0.37561 0.0
C109 C 0.57874 0.58102 0.35278 0.0
C110 C 0.47361 0.51254 0.49519 0.0
C111 C 0.52881 0.53336 0.43319 0.0
C112 C 0.44977 0.48882 0.53674 0.0
C113 C 0.45374 0.46036 0.55756 0.0
C114 C 0.50158 0.50775 0.47452 0.0
C115 C 0.48107 0.45565 0.53375 0.0
C116 C 0.55759 0.52903 0.41566 0.0
C117 C 0.55024 0.58516 0.37275 0.0
N118 N 0.50404 0.47922 0.49387 0.0
N119 N 0.52624 0.56145 0.4117 0.0
H120 H 0.95867 0.43033 0.7279 0.0
H121 H 0.07676 0.60633 0.53651 0.0
H122 H 0.07424 0.4891 0.72571 0.0
H123 H 0.96122 0.54747 0.53214 0.0
H124 H 0.07572 0.56401 0.60804 0.0
H125 H 0.95846 0.47208 0.65546 0.0
C126 C 0.98398 0.45169 0.71168 0.0
C127 C 0.01653 0.4563 0.73314 0.0
C128 C 0.05054 0.56037 0.5917 0.0
C129 C 0.01644 0.50439 0.65107 0.0
C130 C 0.05111 0.58469 0.55102 0.0
C131 C 0.01902 0.5804 0.52807 0.0
C132 C 0.01765 0.53141 0.60965 0.0
C133 C 0.98661 0.55184 0.54869 0.0
C134 C 0.98383 0.47566 0.67065 0.0
C135 C 0.04849 0.48455 0.71069 0.0
N136 N 0.98676 0.52828 0.58812 0.0
N137 N 0.04761 0.50759 0.67118 0.0
H138 H 0.54761 0.95653 0.89833 0.0
H139 H 0.48829 0.07392 0.70798 0.0
H140 H 0.6044 0.07204 0.894 0.0
H141 H 0.43394 0.95858 0.69925 0.0
H142 H 0.52928 0.07286 0.78 0.0
H143 H 0.50526 0.95593 0.82622 0.0
C144 C 0.55146 0.98173 0.88174 0.0
C145 C 0.57954 0.01439 0.90246 0.0
C146 C 0.50832 0.04772 0.7626 0.0
C147 C 0.53094 0.01386 0.82084 0.0
C148 C 0.48472 0.04829 0.72164 0.0
C149 C 0.4577 0.01629 0.69726 0.0
C150 C 0.50503 0.01492 0.77945 0.0
C151 C 0.45438 0.9839 0.7169 0.0
C152 C 0.52713 0.98136 0.84089 0.0
C153 C 0.58312 0.04621 0.87956 0.0
N154 N 0.47794 0.98405 0.75666 0.0
N155 N 0.559 0.04512 0.8403 0.0
H156 H 0.61359 0.54657 0.05559 0.0
H157 H 0.44032 0.49376 0.85987 0.0
H158 H 0.55934 0.6077 0.0467 0.0
H159 H 0.49619 0.43408 0.85777 0.0
H160 H 0.48355 0.53491 0.93027 0.0
H161 H 0.57204 0.50548 -0.01786 0.0
C162 C 0.59332 0.55167 0.03763 0.0
C163 C 0.58982 0.58052 0.05763 0.0
C164 C 0.48637 0.51278 0.91463 0.0
C165 C 0.54195 0.53336 0.97448 0.0
C166 C 0.46151 0.48908 0.8746 0.0
C167 C 0.46465 0.46042 0.8527 0.0
C168 C 0.51469 0.5079 0.93309 0.0
C169 C 0.49271 0.45578 0.87354 0.0
C170 C 0.56946 0.52805 -0.00397 0.0
C171 C 0.56295 0.58572 0.03296 0.0
N172 N 0.51677 0.4794 0.91246 0.0
N173 N 0.53996 0.56225 -0.00696 0.0
H174 H 0.96771 0.43567 0.03715 0.0
H175 H 0.08561 0.61198 0.22737 0.0
H176 H 0.08324 0.49487 0.03238 0.0
H177 H 0.97004 0.55294 0.22533 0.0
H178 H 0.08589 0.57024 0.15525 0.0
H179 H 0.9687 0.47799 0.10837 0.0
C180 C 0.99335 0.45739 0.05151 0.0
C181 C 0.02545 0.46178 0.02853 0.0
C182 C 0.06051 0.5666 0.1704 0.0
C183 C 0.02675 0.51077 0.10976 0.0
C184 C 0.06031 0.59056 0.21125 0.0
C185 C 0.02775 0.58588 0.23266 0.0
C186 C 0.02791 0.53779 0.15097 0.0
C187 C 0.99581 0.55755 0.21035 0.0
C188 C 0.99388 0.48171 0.09201 0.0
C189 C 0.05784 0.49043 0.04896 0.0
N190 N 0.99672 0.53452 0.17102 0.0
N191 N 0.05766 0.51399 0.08822 0.0
H192 H 0.68876 0.77634 0.16819 0.0
H193 H 0.57187 0.86439 0.07215 0.0
H194 H 0.57377 0.72555 0.18174 0.0
H195 H 0.68624 0.92852 0.09565 0.0
H196 H 0.57425 0.812 0.10333 0.0
H197 H 0.69055 0.83171 0.13593 0.0
C198 C 0.66401 0.7769 0.16488 0.0
C199 C 0.63105 0.74623 0.17741 0.0
C200 C 0.59894 0.83745 0.10178 0.0
C201 C 0.63289 0.80889 0.14004 0.0
C202 C 0.59762 0.86747 0.08365 0.0
C203 C 0.62888 0.901 0.08163 0.0
C204 C 0.63178 0.84066 0.11813 0.0
C205 C 0.66149 0.90314 0.09672 0.0
C206 C 0.66505 0.8084 0.14636 0.0
C207 C 0.5998 0.74838 0.17231 0.0
N208 N 0.66212 0.8733 0.11459 0.0
N209 N 0.60152 0.77899 0.15378 0.0
H210 H 0.86679 0.57252 0.36769 0.0
H211 H 0.77884 0.68641 0.25501 0.0
H212 H 0.93157 0.68552 0.33166 0.0
H213 H 0.72895 0.57135 0.24707 0.0
H214 H 0.83394 0.68918 0.29158 0.0
H215 H 0.81421 0.57439 0.33561 0.0
C216 C 0.86997 0.59787 0.35329 0.0
C217 C 0.90373 0.62886 0.35184 0.0
C218 C 0.81087 0.66345 0.28148 0.0
C219 C 0.84324 0.63111 0.31426 0.0
C220 C 0.77952 0.66184 0.26055 0.0
C221 C 0.74922 0.62859 0.24808 0.0
C222 C 0.81152 0.63157 0.29046 0.0
C223 C 0.75152 0.59759 0.25614 0.0
C224 C 0.83985 0.59888 0.33467 0.0
C225 C 0.90601 0.66099 0.33326 0.0
N226 N 0.78195 0.59987 0.27704 0.0
N227 N 0.87609 0.6613 0.31481 0.0
H228 H 0.11225 0.77756 0.42699 0.0
H229 H 0.31727 0.86633 0.52138 0.0
H230 H 0.17838 0.72953 0.40369 0.0
H231 H 0.26621 0.93 0.50222 0.0
H232 H 0.26295 0.81429 0.48795 0.0
H233 H 0.16538 0.83276 0.46089 0.0
C234 C 0.13789 0.77871 0.42847 0.0
C235 C 0.14085 0.74882 0.41281 0.0
C236 C 0.26344 0.83957 0.49095 0.0
C237 C 0.20114 0.81125 0.45205 0.0
C238 C 0.29451 0.86938 0.51039 0.0
C239 C 0.29642 0.90269 0.51429 0.0
C240 C 0.23372 0.84277 0.47523 0.0
C241 C 0.26586 0.90479 0.4997 0.0
C242 C 0.16808 0.81011 0.44791 0.0
C243 C 0.17466 0.75172 0.41562 0.0
N244 N 0.23564 0.87515 0.4806 0.0
N245 N 0.20328 0.78218 0.43517 0.0
H246 H 0.46949 0.31463 0.69636 0.0
H247 H 0.35498 0.11157 0.59051 0.0
H248 H 0.35611 0.26566 0.66287 0.0
H249 H 0.47016 0.17623 0.58328 0.0
H250 H 0.35236 0.16434 0.62472 0.0
H251 H 0.46754 0.25991 0.66628 0.0
C252 C 0.44404 0.29223 0.6829 0.0
C253 C 0.41297 0.29487 0.68161 0.0
C254 C 0.37809 0.16679 0.6153 0.0
C255 C 0.41061 0.23178 0.6463 0.0
C256 C 0.37961 0.1368 0.59568 0.0
C257 C 0.41285 0.13947 0.58416 0.0
C258 C 0.41004 0.19931 0.62384 0.0
C259 C 0.44392 0.17275 0.5917 0.0
C260 C 0.44298 0.26094 0.66543 0.0
C261 C 0.38071 0.26474 0.66432 0.0
N262 N 0.44172 0.20116 0.61128 0.0
N263 N 0.38035 0.23434 0.64694 0.0
H264 H 0.17742 0.46963 0.86596 0.0
H265 H 0.2649 0.35497 0.75645 0.0
H266 H 0.11246 0.35628 0.83339 0.0
H267 H 0.31423 0.46985 0.74367 0.0
H268 H 0.20997 0.35244 0.79308 0.0
H269 H 0.22973 0.46755 0.83324 0.0
C270 C 0.17414 0.44415 0.8522 0.0
C271 C 0.1404 0.41313 0.85191 0.0
C272 C 0.23287 0.37807 0.78188 0.0
C273 C 0.20059 0.41063 0.81362 0.0
C274 C 0.26412 0.37954 0.76091 0.0
C275 C 0.29424 0.41268 0.74714 0.0
C276 C 0.23214 0.40999 0.78958 0.0
C277 C 0.29182 0.44369 0.75382 0.0
C278 C 0.20411 0.44303 0.8332 0.0
C279 C 0.13801 0.38085 0.83408 0.0
N280 N 0.26149 0.44156 0.77481 0.0
N281 N 0.16778 0.38042 0.81528 0.0
H282 H 0.93178 0.26444 0.92744 0.0
H283 H 0.72713 0.17611 0.02371 0.0
H284 H 0.86601 0.31307 0.90605 0.0
H285 H 0.77761 0.11207 0.00251 0.0
H286 H 0.78155 0.2282 -0.00941 0.0
H287 H 0.87864 0.20928 0.96154 0.0
C288 C 0.90622 0.26344 0.9294 0.0
C289 C 0.90336 0.29347 0.91417 0.0
C290 C 0.7809 0.20283 -0.00693 0.0
C291 C 0.84306 0.23108 0.95366 0.0
C292 C 0.74978 0.17299 0.01233 0.0
C293 C 0.74768 0.13956 0.01554 0.0
C294 C 0.81048 0.19954 0.97683 0.0
C295 C 0.77811 0.13737 0.00052 0.0
C296 C 0.87602 0.23206 0.94896 0.0
C297 C 0.86965 0.29076 0.91759 0.0
N298 N 0.80838 0.16704 -0.01843 0.0
N299 N 0.84102 0.2603 0.93725 0.0
loop_
_geom_bond_atom_site_label_1
_geom_bond_atom_site_label_2
_geom_bond_distance
_geom_bond_site_symmetry_2
_ccdc_geom_bond_type
O0 Cd1 2.223 . S
O0 C8 1.315 1_554 S
Cd1 O0 2.223 . S
Cd1 O4 2.297 . S
Cd1 O5 2.439 . S
Cd1 O11 2.240 . S
Cd2 O3 2.240 1_564 S
Cd2 O10 2.223 . S
Cd2 O12 2.297 . S
Cd2 O13 2.439 . S
O3 Cd2 2.240 1_546 S
O3 C8 1.279 . S
O4 Cd1 2.297 . S
O4 C6 1.247 . S
O5 Cd1 2.439 . S
O5 C6 1.208 . S
C6 O4 1.247 . S
C6 O5 1.208 . S
C7 O12 1.247 . S
C7 O13 1.208 . S
C8 O0 1.315 1_556 S
C8 O3 1.279 . S
C9 O10 1.315 1_545 S
C9 O11 1.279 . S
O10 Cd2 2.223 . S
O10 C9 1.315 1_565 S
O11 Cd1 2.240 . S
O11 C9 1.279 . S
O12 Cd2 2.297 . S
O12 C7 1.247 . S
O13 Cd2 2.439 . S
O13 C7 1.208 . S
O14 Cd15 2.223 . S
O14 C22 1.315 . S
Cd15 O14 2.223 . S
Cd15 O18 2.297 . S
Cd15 O19 2.439 . S
Cd15 O25 2.240 . S
Cd16 O17 2.240 . S
Cd16 O24 2.223 . S
Cd16 O26 2.297 . S
Cd16 O27 2.439 . S
O17 Cd16 2.240 . S
O17 C22 1.279 . S
O18 Cd15 2.297 . S
O18 C20 1.247 . S
O19 Cd15 2.439 . S
O19 C20 1.208 . S
C20 O18 1.247 . S
C20 O19 1.208 . S
C21 O26 1.247 . S
C21 O27 1.208 . S
C22 O14 1.315 . S
C22 O17 1.279 . S
C23 O24 1.315 . S
C23 O25 1.279 . S
O24 Cd16 2.223 . S
O24 C23 1.315 . S
O25 Cd15 2.240 . S
O25 C23 1.279 . S
O26 Cd16 2.297 . S
O26 C21 1.247 . S
O27 Cd16 2.439 . S
O27 C21 1.208 . S
O28 Cd29 2.223 . S
O28 C36 1.315 1_655 S
Cd29 O28 2.223 . S
Cd29 O32 2.297 . S
Cd29 O33 2.439 . S
Cd29 O39 2.240 1_655 S
Cd30 O31 2.240 . S
Cd30 O38 2.223 . S
Cd30 O40 2.297 . S
Cd30 O41 2.439 . S
O31 Cd30 2.240 . S
O31 C36 1.279 . S
O32 Cd29 2.297 . S
O32 C34 1.247 . S
O33 Cd29 2.439 . S
O33 C34 1.208 . S
C34 O32 1.247 . S
C34 O33 1.208 . S
C35 O40 1.247 . S
C35 O41 1.208 . S
C36 O28 1.315 1_455 S
C36 O31 1.279 . S
C37 O38 1.315 . S
C37 O39 1.279 . S
O38 Cd30 2.223 . S
O38 C37 1.315 . S
O39 Cd29 2.240 1_455 S
O39 C37 1.279 . S
O40 Cd30 2.297 . S
O40 C35 1.247 . S
O41 Cd30 2.439 . S
O41 C35 1.208 . S
O42 Cd43 2.223 . S
O42 C50 1.315 1_565 S
Cd43 O42 2.223 . S
Cd43 O46 2.297 . S
Cd43 O47 2.439 . S
Cd43 O53 2.240 1_565 S
Cd44 O45 2.240 . S
Cd44 O52 2.223 . S
Cd44 O54 2.297 . S
Cd44 O55 2.439 . S
O45 Cd44 2.240 . S
O45 C50 1.279 . S
O46 Cd43 2.297 . S
O46 C48 1.247 . S
O47 Cd43 2.439 . S
O47 C48 1.208 . S
C48 O46 1.247 . S
C48 O47 1.208 . S
C49 O54 1.247 . S
C49 O55 1.208 . S
C50 O42 1.315 1_545 S
C50 O45 1.279 . S
C51 O52 1.315 . S
C51 O53 1.279 . S
O52 Cd44 2.223 . S
O52 C51 1.315 . S
O53 Cd43 2.240 1_545 S
O53 C51 1.279 . S
O54 Cd44 2.297 . S
O54 C49 1.247 . S
O55 Cd44 2.439 . S
O55 C49 1.208 . S
O56 Cd57 2.223 . S
O56 C64 1.315 . S
Cd57 O56 2.223 . S
Cd57 O60 2.297 . S
Cd57 O61 2.439 . S
Cd57 O67 2.240 . S
Cd58 O59 2.240 . S
Cd58 O66 2.223 . S
Cd58 O68 2.297 . S
Cd58 O69 2.439 . S
O59 Cd58 2.240 . S
O59 C64 1.279 . S
O60 Cd57 2.297 . S
O60 C62 1.247 . S
O61 Cd57 2.439 . S
O61 C62 1.208 . S
C62 O60 1.247 . S
C62 O61 1.208 . S
C63 O68 1.247 . S
C63 O69 1.208 . S
C64 O56 1.315 . S
C64 O59 1.279 . S
C65 O66 1.315 . S
C65 O67 1.279 . S
O66 Cd58 2.223 . S
O66 C65 1.315 . S
O67 Cd57 2.240 . S
O67 C65 1.279 . S
O68 Cd58 2.297 . S
O68 C63 1.247 . S
O69 Cd58 2.439 . S
O69 C63 1.208 . S
O70 Cd71 2.223 . S
O70 C78 1.315 . S
Cd71 O70 2.223 . S
Cd71 O74 2.297 . S
Cd71 O75 2.439 . S
Cd71 O81 2.240 . S
Cd72 O73 2.240 1_655 S
Cd72 O80 2.223 . S
Cd72 O82 2.297 . S
Cd72 O83 2.439 . S
O73 Cd72 2.240 1_455 S
O73 C78 1.279 . S
O74 Cd71 2.297 . S
O74 C76 1.247 . S
O75 Cd71 2.439 . S
O75 C76 1.208 . S
C76 O74 1.247 . S
C76 O75 1.208 . S
C77 O82 1.247 . S
C77 O83 1.208 . S
C78 O70 1.315 . S
C78 O73 1.279 . S
C79 O80 1.315 1_455 S
C79 O81 1.279 . S
O80 Cd72 2.223 . S
O80 C79 1.315 1_655 S
O81 Cd71 2.240 . S
O81 C79 1.279 . S
O82 Cd72 2.297 . S
O82 C77 1.247 . S
O83 Cd72 2.439 . S
O83 C77 1.208 . S
H84 C90 0.930 . S
H85 C94 0.930 . S
H86 C99 0.929 . S
H87 C97 0.929 . S
H88 C92 0.929 . S
H89 C98 0.929 . S
C90 H84 0.930 . S
C90 C91 1.367 1_565 S
C90 C98 1.378 . S
C91 C90 1.367 1_545 S
C91 C99 1.433 . S
C92 H88 0.929 . S
C92 C94 1.378 . S
C92 C96 1.350 . S
C93 C96 1.463 . S
C93 C98 1.350 1_545 S
C93 N101 1.427 . S
C94 H85 0.930 . S
C94 C92 1.378 . S
C94 C95 1.367 . S
C95 C94 1.367 . S
C95 C97 1.433 1_545 S
C96 C92 1.350 . S
C96 C93 1.463 . S
C96 N100 1.427 1_545 S
C97 H87 0.929 . S
C97 C95 1.433 1_565 S
C97 N100 1.384 . S
C98 H89 0.929 . S
C98 C90 1.378 . S
C98 C93 1.350 1_565 S
C99 H86 0.929 . S
C99 C91 1.433 . S
C99 N101 1.384 . S
N100 C96 1.427 1_565 S
N100 C97 1.384 . S
N101 C93 1.427 . S
N101 C99 1.384 . S
H102 C108 0.930 . S
H103 C112 0.930 . S
H104 C117 0.929 . S
H105 C115 0.929 . S
H106 C110 0.929 . S
H107 C116 0.929 . S
C108 H102 0.930 . S
C108 C109 1.367 . S
C108 C116 1.378 . S
C109 C108 1.367 . S
C109 C117 1.433 . S
C110 H106 0.929 . S
C110 C112 1.378 . S
C110 C114 1.350 . S
C111 C114 1.463 . S
C111 C116 1.350 . S
C111 N119 1.427 . S
C112 H103 0.930 . S
C112 C110 1.378 . S
C112 C113 1.367 . S
C113 C112 1.367 . S
C113 C115 1.433 . S
C114 C110 1.350 . S
C114 C111 1.463 . S
C114 N118 1.427 . S
C115 H105 0.929 . S
C115 C113 1.433 . S
C115 N118 1.384 . S
C116 H107 0.929 . S
C116 C108 1.378 . S
C116 C111 1.350 . S
C117 H104 0.929 . S
C117 C109 1.433 . S
C117 N119 1.384 . S
N118 C114 1.427 . S
N118 C115 1.384 . S
N119 C111 1.427 . S
N119 C117 1.384 . S
H120 C126 0.930 1_655 S
H121 C130 0.930 . S
H122 C135 0.929 . S
H123 C133 0.929 1_655 S
H124 C128 0.929 . S
H125 C134 0.929 1_655 S
C126 H120 0.930 1_455 S
C126 C127 1.367 . S
C126 C134 1.378 . S
C127 C126 1.367 . S
C127 C135 1.433 . S
C128 H124 0.929 . S
C128 C130 1.378 . S
C128 C132 1.350 . S
C129 C132 1.463 . S
C129 C134 1.350 . S
C129 N137 1.427 . S
C130 H121 0.930 . S
C130 C128 1.378 . S
C130 C131 1.367 . S
C131 C130 1.367 . S
C131 C133 1.433 . S
C132 C128 1.350 . S
C132 C129 1.463 . S
C132 N136 1.427 . S
C133 H123 0.929 1_455 S
C133 C131 1.433 . S
C133 N136 1.384 . S
C134 H125 0.929 1_455 S
C134 C126 1.378 . S
C134 C129 1.350 . S
C135 H122 0.929 . S
C135 C127 1.433 . S
C135 N137 1.384 . S
N136 C132 1.427 . S
N136 C133 1.384 . S
N137 C129 1.427 . S
N137 C135 1.384 . S
H138 C144 0.930 1_565 S
H139 C148 0.930 . S
H140 C153 0.929 . S
H141 C151 0.929 1_565 S
H142 C146 0.929 . S
H143 C152 0.929 1_565 S
C144 H138 0.930 1_545 S
C144 C145 1.367 . S
C144 C152 1.378 . S
C145 C144 1.367 . S
C145 C153 1.433 . S
C146 H142 0.929 . S
C146 C148 1.378 . S
C146 C150 1.350 . S
C147 C150 1.463 . S
C147 C152 1.350 . S
C147 N155 1.427 . S
C148 H139 0.930 . S
C148 C146 1.378 . S
C148 C149 1.367 . S
C149 C148 1.367 . S
C149 C151 1.433 . S
C150 C146 1.350 . S
C150 C147 1.463 . S
C150 N154 1.427 . S
C151 H141 0.929 1_545 S
C151 C149 1.433 . S
C151 N154 1.384 . S
C152 H143 0.929 1_545 S
C152 C144 1.378 . S
C152 C147 1.350 . S
C153 H140 0.929 . S
C153 C145 1.433 . S
C153 N155 1.384 . S
N154 C150 1.427 . S
N154 C151 1.384 . S
N155 C147 1.427 . S
N155 C153 1.384 . S
H156 C162 0.930 . S
H157 C166 0.930 . S
H158 C171 0.929 . S
H159 C169 0.929 . S
H160 C164 0.929 . S
H161 C170 0.929 . S
C162 H156 0.930 . S
C162 C163 1.367 . S
C162 C170 1.378 . S
C163 C162 1.367 . S
C163 C171 1.433 . S
C164 H160 0.929 . S
C164 C166 1.378 . S
C164 C168 1.350 . S
C165 C168 1.463 1_554 S
C165 C170 1.350 . S
C165 N173 1.427 1_554 S
C166 H157 0.930 . S
C166 C164 1.378 . S
C166 C167 1.367 . S
C167 C166 1.367 . S
C167 C169 1.433 . S
C168 C164 1.350 . S
C168 C165 1.463 1_556 S
C168 N172 1.427 . S
C169 H159 0.929 . S
C169 C167 1.433 . S
C169 N172 1.384 . S
C170 H161 0.929 . S
C170 C162 1.378 . S
C170 C165 1.350 . S
C171 H158 0.929 . S
C171 C163 1.433 . S
C171 N173 1.384 1_554 S
N172 C168 1.427 . S
N172 C169 1.384 . S
N173 C165 1.427 1_556 S
N173 C171 1.384 1_556 S
H174 C180 0.930 1_556 S
H175 C184 0.930 . S
H176 C189 0.929 . S
H177 C187 0.929 . S
H178 C182 0.929 . S
H179 C188 0.929 . S
C180 H174 0.930 1_554 S
C180 C181 1.367 1_655 S
C180 C188 1.378 . S
C181 C180 1.367 1_455 S
C181 C189 1.433 . S
C182 H178 0.929 . S
C182 C184 1.378 . S
C182 C186 1.350 . S
C183 C186 1.463 . S
C183 C188 1.350 1_455 S
C183 N191 1.427 . S
C184 H175 0.930 . S
C184 C182 1.378 . S
C184 C185 1.367 . S
C185 C184 1.367 . S
C185 C187 1.433 1_455 S
C186 C182 1.350 . S
C186 C183 1.463 . S
C186 N190 1.427 1_455 S
C187 H177 0.929 . S
C187 C185 1.433 1_655 S
C187 N190 1.384 . S
C188 H179 0.929 . S
C188 C180 1.378 . S
C188 C183 1.350 1_655 S
C189 H176 0.929 . S
C189 C181 1.433 . S
C189 N191 1.384 . S
N190 C186 1.427 1_655 S
N190 C187 1.384 . S
N191 C183 1.427 . S
N191 C189 1.384 . S
H192 C198 0.930 . S
H193 C202 0.930 . S
H194 C207 0.929 . S
H195 C205 0.929 . S
H196 C200 0.929 . S
H197 C206 0.929 . S
C198 H192 0.930 . S
C198 C199 1.367 . S
C198 C206 1.378 . S
C199 C198 1.367 . S
C199 C207 1.433 . S
C200 H196 0.929 . S
C200 C202 1.378 . S
C200 C204 1.350 . S
C201 C204 1.463 . S
C201 C206 1.350 . S
C201 N209 1.427 . S
C202 H193 0.930 . S
C202 C200 1.378 . S
C202 C203 1.367 . S
C203 C202 1.367 . S
C203 C205 1.433 . S
C204 C200 1.350 . S
C204 C201 1.463 . S
C204 N208 1.427 . S
C205 H195 0.929 . S
C205 C203 1.433 . S
C205 N208 1.384 . S
C206 H197 0.929 . S
C206 C198 1.378 . S
C206 C201 1.350 . S
C207 H194 0.929 . S
C207 C199 1.433 . S
C207 N209 1.384 . S
N208 C204 1.427 . S
N208 C205 1.384 . S
N209 C201 1.427 . S
N209 C207 1.384 . S
H210 C216 0.930 . S
H211 C220 0.930 . S
H212 C225 0.929 . S
H213 C223 0.929 . S
H214 C218 0.929 . S
H215 C224 0.929 . S
C216 H210 0.930 . S
C216 C217 1.367 . S
C216 C224 1.378 . S
C217 C216 1.367 . S
C217 C225 1.433 . S
C218 H214 0.929 . S
C218 C220 1.378 . S
C218 C222 1.350 . S
C219 C222 1.463 . S
C219 C224 1.350 . S
C219 N227 1.427 . S
C220 H211 0.930 . S
C220 C218 1.378 . S
C220 C221 1.367 . S
C221 C220 1.367 . S
C221 C223 1.433 . S
C222 C218 1.350 . S
C222 C219 1.463 . S
C222 N226 1.427 . S
C223 H213 0.929 . S
C223 C221 1.433 . S
C223 N226 1.384 . S
C224 H215 0.929 . S
C224 C216 1.378 . S
C224 C219 1.350 . S
C225 H212 0.929 . S
C225 C217 1.433 . S
C225 N227 1.384 . S
N226 C222 1.427 . S
N226 C223 1.384 . S
N227 C219 1.427 . S
N227 C225 1.384 . S
H228 C234 0.930 . S
H229 C238 0.930 . S
H230 C243 0.929 . S
H231 C241 0.929 . S
H232 C236 0.929 . S
H233 C242 0.929 . S
C234 H228 0.930 . S
C234 C235 1.367 . S
C234 C242 1.378 . S
C235 C234 1.367 . S
C235 C243 1.433 . S
C236 H232 0.929 . S
C236 C238 1.378 . S
C236 C240 1.350 . S
C237 C240 1.463 . S
C237 C242 1.350 . S
C237 N245 1.427 . S
C238 H229 0.930 . S
C238 C236 1.378 . S
C238 C239 1.367 . S
C239 C238 1.367 . S
C239 C241 1.433 . S
C240 C236 1.350 . S
C240 C237 1.463 . S
C240 N244 1.427 . S
C241 H231 0.929 . S
C241 C239 1.433 . S
C241 N244 1.384 . S
C242 H233 0.929 . S
C242 C234 1.378 . S
C242 C237 1.350 . S
C243 H230 0.929 . S
C243 C235 1.433 . S
C243 N245 1.384 . S
N244 C240 1.427 . S
N244 C241 1.384 . S
N245 C237 1.427 . S
N245 C243 1.384 . S
H246 C252 0.930 . S
H247 C256 0.930 . S
H248 C261 0.929 . S
H249 C259 0.929 . S
H250 C254 0.929 . S
H251 C260 0.929 . S
C252 H246 0.930 . S
C252 C253 1.367 . S
C252 C260 1.378 . S
C253 C252 1.367 . S
C253 C261 1.433 . S
C254 H250 0.929 . S
C254 C256 1.378 . S
C254 C258 1.350 . S
C255 C258 1.463 . S
C255 C260 1.350 . S
C255 N263 1.427 . S
C256 H247 0.930 . S
C256 C254 1.378 . S
C256 C257 1.367 . S
C257 C256 1.367 . S
C257 C259 1.433 . S
C258 C254 1.350 . S
C258 C255 1.463 . S
C258 N262 1.427 . S
C259 H249 0.929 . S
C259 C257 1.433 . S
C259 N262 1.384 . S
C260 H251 0.929 . S
C260 C252 1.378 . S
C260 C255 1.350 . S
C261 H248 0.929 . S
C261 C253 1.433 . S
C261 N263 1.384 . S
N262 C258 1.427 . S
N262 C259 1.384 . S
N263 C255 1.427 . S
N263 C261 1.384 . S
H264 C270 0.930 . S
H265 C274 0.930 . S
H266 C279 0.929 . S
H267 C277 0.929 . S
H268 C272 0.929 . S
H269 C278 0.929 . S
C270 H264 0.930 . S
C270 C271 1.367 . S
C270 C278 1.378 . S
C271 C270 1.367 . S
C271 C279 1.433 . S
C272 H268 0.929 . S
C272 C274 1.378 . S
C272 C276 1.350 . S
C273 C276 1.463 . S
C273 C278 1.350 . S
C273 N281 1.427 . S
C274 H265 0.930 . S
C274 C272 1.378 . S
C274 C275 1.367 . S
C275 C274 1.367 . S
C275 C277 1.433 . S
C276 C272 1.350 . S
C276 C273 1.463 . S
C276 N280 1.427 . S
C277 H267 0.929 . S
C277 C275 1.433 . S
C277 N280 1.384 . S
C278 H269 0.929 . S
C278 C270 1.378 . S
C278 C273 1.350 . S
C279 H266 0.929 . S
C279 C271 1.433 . S
C279 N281 1.384 . S
N280 C276 1.427 . S
N280 C277 1.384 . S
N281 C273 1.427 . S
N281 C279 1.384 . S
H282 C288 0.930 . S
H283 C292 0.930 . S
H284 C297 0.929 . S
H285 C295 0.929 . S
H286 C290 0.929 . S
H287 C296 0.929 . S
C288 H282 0.930 . S
C288 C289 1.367 . S
C288 C296 1.378 . S
C289 C288 1.367 . S
C289 C297 1.433 . S
C290 H286 0.929 . S
C290 C292 1.378 . S
C290 C294 1.350 . S
C291 C294 1.463 . S
C291 C296 1.350 . S
C291 N299 1.427 . S
C292 H283 0.930 . S
C292 C290 1.378 . S
C292 C293 1.367 1_556 S
C293 C292 1.367 1_554 S
C293 C295 1.433 . S
C294 C290 1.350 . S
C294 C291 1.463 . S
C294 N298 1.426 1_556 S
C295 H285 0.929 . S
C295 C293 1.433 . S
C295 N298 1.385 . S
C296 H287 0.929 . S
C296 C288 1.378 . S
C296 C291 1.350 . S
C297 H284 0.929 . S
C297 C289 1.433 . S
C297 N299 1.384 . S
N298 C294 1.426 1_554 S
N298 C295 1.385 . S
N299 C291 1.427 . S
N299 C297 1.384 . S
C91 C9 1.817 . S
C95 C50 1.820 . S
C109 C23 1.817 . S
C113 C64 1.821 . S
C127 C78 1.821 . S
C131 C37 1.816 . S
C145 C8 1.821 . S
C149 C51 1.817 . S
C163 C22 1.820 . S
C167 C65 1.819 . S
C181 C79 1.818 1_554 S
C185 C36 1.821 . S
C199 C20 1.431 . S
C203 C7 1.426 . S
C217 C34 1.425 . S
C221 C21 1.434 . S
C235 C35 1.441 . S
C239 C48 1.429 . S
C253 C62 1.427 . S
C257 C49 1.430 . S
C271 C76 1.428 . S
C275 C63 1.440 . S
C289 C77 1.441 . S
C293 C6 1.429 . S
