# Generated by pormake.
# Topology uom, (4)-cn, num edge types: 1
# Building blocks:
#     Node 0, Type 0, BuildingBlock: NAWXER_clean_sbu_0, # of connection points: 4
#     Node 1, Type 0, BuildingBlock: NAWXER_clean_sbu_0, # of connection points: 4
#     Node 2, Type 0, BuildingBlock: NAWXER_clean_sbu_0, # of connection points: 4
#     Node 3, Type 0, BuildingBlock: NAWXER_clean_sbu_0, # of connection points: 4
#     Node 4, Type 0, BuildingBlock: NAWXER_clean_sbu_0, # of connection points: 4
#     Node 5, Type 0, BuildingBlock: NAWXER_clean_sbu_0, # of connection points: 4
#     Edge 6, Type (0, 0), BuildingBlock: ZUJKAS_clean_linker_0, # of connection points: 2
#     Edge 7, Type (0, 0), BuildingBlock: ZUJKAS_clean_linker_0, # of connection points: 2
#     Edge 8, Type (0, 0), BuildingBlock: ZUJKAS_clean_linker_0, # of connection points: 2
#     Edge 9, Type (0, 0), BuildingBlock: ZUJKAS_clean_linker_0, # of connection points: 2
#     Edge 10, Type (0, 0), BuildingBlock: ZUJKAS_clean_linker_0, # of connection points: 2
#     Edge 11, Type (0, 0), BuildingBlock: ZUJKAS_clean_linker_0, # of connection points: 2
#     Edge 12, Type (0, 0), BuildingBlock: ZUJKAS_clean_linker_0, # of connection points: 2
#     Edge 13, Type (0, 0), BuildingBlock: ZUJKAS_clean_linker_0, # of connection points: 2
#     Edge 14, Type (0, 0), BuildingBlock: ZUJKAS_clean_linker_0, # of connection points: 2
#     Edge 15, Type (0, 0), BuildingBlock: ZUJKAS_clean_linker_0, # of connection points: 2
#     Edge 16, Type (0, 0), BuildingBlock: ZUJKAS_clean_linker_0, # of connection points: 2
#     Edge 17, Type (0, 0), BuildingBlock: ZUJKAS_clean_linker_0, # of connection points: 2
# Relax obj value: 0.104
# Max RMSD: 0.115
# Mean RMSD: 0.115
data_MOF--net-uom--node1-NAWXER_clean_sbu_0--edge1-ZUJKAS_clean_linker_0
_symmetry_space_group_name_H-M    P1
_symmetry_Int_Tables_number       1
_symmetry_cell_setting            triclinic
loop_
_symmetry_equiv_pos_as_xyz
'x, y, z'
_cell_length_a     37.454293
_cell_length_b     37.46195
_cell_length_c     50.739143
_cell_angle_alpha  90.008045
_cell_angle_beta   89.990408
_cell_angle_gamma 120.01241
loop_
_atom_site_label
_atom_site_type_symbol
_atom_site_fract_x
_atom_site_fract_y
_atom_site_fract_z
_atom_type_partial_charge
C0 C 0.24032 0.96604 1.01074 0.0
C1 C 0.2906 0.03999 0.09485 0.0
O2 O 0.26883 0.00371 1.0079 0.0
Zn3 Zn 0.30718 0.05622 0.03236 0.0
O4 O 0.22964 0.95138 0.03386 0.0
Zn5 Zn 0.26707 0.00145 0.05314 0.0
O6 O 0.24259 0.04025 0.04255 0.0
O7 O 0.29001 0.09408 0.02037 0.0
O8 O 0.26429 0.00213 0.09132 0.0
O9 O 0.3087 0.06289 0.07479 0.0
O10 O 0.36159 0.0688 0.02347 0.0
O11 O 0.32713 0.00988 0.04491 0.0
C12 C 0.25399 0.07399 0.03006 0.0
C13 C 0.36015 0.03701 0.03336 0.0
C14 C 0.34795 0.35884 0.36576 0.0
C15 C 0.21537 0.23364 0.36766 0.0
O16 O 0.34997 0.32893 0.37653 0.0
Zn17 Zn 0.30898 0.26549 0.38558 0.0
O18 O 0.31362 0.35312 0.35726 0.0
Zn19 Zn 0.28082 0.29625 0.36702 0.0
O20 O 0.28025 0.29733 0.40951 0.0
O21 O 0.31082 0.2638 0.42391 0.0
O22 O 0.22313 0.2683 0.35835 0.0
O23 O 0.24404 0.2293 0.37826 0.0
O24 O 0.32966 0.23637 0.36386 0.0
O25 O 0.3005 0.26462 0.34067 0.0
C26 C 0.29239 0.28383 0.42878 0.0
C27 C 0.31792 0.24265 0.34167 0.0
C28 C 0.129 0.31907 0.67725 0.0
C29 C 0.05797 0.29944 0.76221 0.0
O30 O 0.09138 0.3103 0.6749 0.0
Zn31 Zn 0.04019 0.29855 0.69988 0.0
O32 O 0.14455 0.32413 0.70018 0.0
Zn33 Zn 0.0952 0.31259 0.72009 0.0
O34 O 0.05475 0.24899 0.71029 0.0
O35 O 0.00084 0.24359 0.68872 0.0
O36 O 0.09552 0.30996 0.75832 0.0
O37 O 0.03473 0.29472 0.74237 0.0
O38 O 0.02872 0.34107 0.69078 0.0
O39 O 0.08783 0.36489 0.71187 0.0
C40 C 0.02039 0.22702 0.6983 0.0
C41 C 0.06093 0.37123 0.70043 0.0
C42 C 0.74066 0.03687 0.03317 0.0
C43 C 0.86766 0.03298 0.03281 0.0
O44 O 0.77034 0.06914 0.04383 0.0
Zn45 Zn 0.83433 0.09289 0.05214 0.0
O46 O 0.74705 0.00892 0.02426 0.0
Zn47 Zn 0.80413 0.0341 0.03348 0.0
O48 O 0.80378 0.03212 0.07594 0.0
O49 O 0.83687 0.09613 0.0905 0.0
O50 O 0.83279 0.00541 0.02417 0.0
O51 O 0.87156 0.06565 0.04369 0.0
O52 O 0.86207 0.14295 0.03056 0.0
O53 O 0.83412 0.08574 1.00716 0.0
C54 C 0.8173 0.05763 0.09528 0.0
C55 C 0.85551 0.12518 1.00826 0.0
C56 C 0.87481 0.84372 0.36496 0.0
C57 C 0.73132 0.7381 0.36629 0.0
O58 O 0.85223 0.85548 0.37686 0.0
Zn59 Zn 0.78809 0.831 0.38621 0.0
O60 O 0.85896 0.80772 0.35525 0.0
Zn61 Zn 0.80378 0.79114 0.36619 0.0
O62 O 0.79174 0.83022 0.34104 0.0
O63 O 0.77599 0.86829 0.36618 0.0
O64 O 0.76203 0.73669 0.35701 0.0
O65 O 0.73683 0.77111 0.3776 0.0
O66 O 0.78946 0.83331 0.42447 0.0
O67 O 0.80801 0.79018 0.4087 0.0
C68 C 0.78212 0.85847 0.34331 0.0
C69 C 0.80191 0.80781 0.42851 0.0
C70 C 0.06218 0.75268 0.69902 0.0
C71 C 0.06407 0.88276 0.69914 0.0
O72 O 0.03 0.74986 0.70999 0.0
Zn73 Zn 0.00592 0.78958 0.719 0.0
O74 O 0.0898 0.78712 0.68997 0.0
Zn75 Zn 0.06405 0.81854 0.69938 0.0
O76 O 0.06753 0.82114 0.7418 0.0
O77 O 0.0041 0.78875 0.75741 0.0
O78 O 0.09133 0.8758 0.68951 0.0
O79 O 0.0322 0.85386 0.71062 0.0
O80 O 0.95513 0.767 0.6982 0.0
O81 O 0.01137 0.79507 0.67385 0.0
C82 C 0.04278 0.80878 0.76155 0.0
C83 C 0.97198 0.77695 0.67556 0.0
H84 H 0.24126 0.01135 0.1386 0.0
H85 H 0.25179 0.04589 0.18123 0.0
H86 H 0.36987 0.14396 0.15473 0.0
H87 H 0.35852 0.11062 0.11169 0.0
H88 H 0.30505 0.06824 0.21999 0.0
H89 H 0.31886 0.2101 0.17636 0.0
H90 H 0.30376 0.16428 0.15717 0.0
H91 H 0.3574 0.19934 0.16417 0.0
C92 C 0.26955 0.0402 0.14191 0.0
C93 C 0.29881 0.05849 0.12163 0.0
C94 C 0.27557 0.05996 0.16632 0.0
C95 C 0.31117 0.09821 0.1711 0.0
C96 C 0.34147 0.11529 0.15133 0.0
H97 H 0.3656 0.20681 0.33168 0.0
H98 H 0.36772 0.17254 0.29088 0.0
C99 C 0.3351 0.09599 0.12676 0.0
C100 C 0.31596 0.12056 0.19644 0.0
H101 H 0.33311 0.21231 0.22189 0.0
C102 C 0.31115 0.09974 0.22041 0.0
C103 C 0.32338 0.16156 0.19712 0.0
C104 C 0.32572 0.18498 0.17234 0.0
C105 C 0.31316 0.11851 0.24486 0.0
C106 C 0.32164 0.15987 0.24551 0.0
C107 C 0.32701 0.18079 0.22154 0.0
C108 C 0.32176 0.18117 0.27047 0.0
C109 C 0.30449 0.09318 0.26963 0.0
C110 C 0.2965 0.19886 0.27243 0.0
C111 C 0.29611 0.2193 0.29534 0.0
C112 C 0.32067 0.22235 0.31716 0.0
C113 C 0.34617 0.20482 0.31529 0.0
C114 C 0.34708 0.18485 0.29204 0.0
H115 H 0.28772 0.0596 0.26532 0.0
H116 H 0.33412 0.10085 0.27919 0.0
H117 H 0.28594 0.09978 0.2838 0.0
H118 H 0.27661 0.19653 0.25623 0.0
H119 H 0.27579 0.23207 0.29607 0.0
H120 H 0.30169 0.24989 0.4746 0.0
H121 H 0.28184 0.25795 0.51938 0.0
H122 H 0.24241 0.34062 0.48998 0.0
H123 H 0.26209 0.33289 0.44537 0.0
H124 H 0.29 0.36698 0.53838 0.0
H125 H 0.15872 0.20575 0.54245 0.0
H126 H 0.20836 0.21234 0.53414 0.0
H127 H 0.18351 0.23029 0.51189 0.0
C128 C 0.28909 0.27003 0.4777 0.0
C129 C 0.28325 0.29051 0.45631 0.0
C130 C 0.27761 0.27448 0.50329 0.0
C131 C 0.26025 0.29958 0.50799 0.0
C132 C 0.25567 0.32105 0.48683 0.0
H133 H 0.10207 0.30648 0.62634 0.0
H134 H 0.13766 0.30307 0.58705 0.0
C135 C 0.26685 0.31645 0.46129 0.0
C136 C 0.24526 0.30249 0.53463 0.0
H137 H 0.16885 0.24768 0.57938 0.0
C138 C 0.26381 0.34083 0.54753 0.0
C139 C 0.2108 0.26842 0.54637 0.0
C140 C 0.18885 0.22686 0.53303 0.0
C141 C 0.24846 0.34609 0.57168 0.0
C142 C 0.21374 0.3121 0.58326 0.0
C143 C 0.19563 0.27365 0.57055 0.0
C144 C 0.19365 0.31631 0.60744 0.0
C145 C 0.26845 0.38826 0.58417 0.0
C146 C 0.21339 0.3252 0.63209 0.0
C147 C 0.193 0.32716 0.65482 0.0
C148 C 0.15248 0.32027 0.65326 0.0
C149 C 0.13324 0.31206 0.6284 0.0
C150 C 0.15351 0.30996 0.60584 0.0
H151 H 0.29084 0.41258 0.57072 0.0
H152 H 0.24471 0.3962 0.59006 0.0
H153 H 0.28513 0.38821 0.60223 0.0
H154 H 0.24422 0.32976 0.63385 0.0
H155 H 0.20866 0.33332 0.67363 0.0
H156 H 0.8947 0.20933 0.9998 0.0
H157 H 0.92821 0.2465 0.959 0.0
H158 H 0.89606 0.1311 0.92124 0.0
H159 H 0.86153 0.09407 0.96112 0.0
H160 H 0.99203 0.25375 0.93185 0.0
H161 H 0.85604 0.179 0.86687 0.0
H162 H 0.85181 0.17324 0.9022 0.0
H163 H 0.86434 0.14091 0.88251 0.0
C164 C 0.89432 0.19193 0.98265 0.0
C165 C 0.87482 0.14865 0.98368 0.0
C166 C 0.9136 0.2132 0.95936 0.0
C167 C 0.91388 0.19161 0.93671 0.0
C168 C 0.8951 0.14851 0.938 0.0
H169 H 0.08543 0.27693 0.80571 0.0
H170 H 0.05162 0.25503 0.84864 0.0
C171 C 0.87547 0.12732 0.961 0.0
C172 C 0.93491 0.21367 0.91194 0.0
H173 H 0.92203 0.21088 0.84518 0.0
C174 C 0.97656 0.24479 0.91292 0.0
C175 C 0.91471 0.2028 0.88718 0.0
C176 C 0.86915 0.1725 0.88466 0.0
C177 C -0.00112 0.26397 0.88984 0.0
C178 C 0.97948 0.25074 0.86492 0.0
C179 C 0.93738 0.22079 0.8641 0.0
C180 C 0.00194 0.26681 0.8394 0.0
C181 C 0.04287 0.29853 0.89258 0.0
C182 C 0.98505 0.27987 0.81941 0.0
C183 C 0.00374 0.29126 0.79458 0.0
C184 C 0.04015 0.29045 0.78919 0.0
C185 C 0.05773 0.27846 0.80935 0.0
C186 C 0.03852 0.26621 0.83404 0.0
H187 H 0.04793 0.31445 0.91185 0.0
H188 H 0.06381 0.28561 0.89171 0.0
H189 H 0.05143 0.32166 0.87661 0.0
H190 H 0.95689 0.28062 0.82287 0.0
H191 H 0.98943 0.30039 0.7795 0.0
H192 H 0.76952 0.97793 0.11163 0.0
H193 H 0.76105 0.95053 0.15624 0.0
H194 H 0.84168 0.07291 0.18607 0.0
H195 H 0.85052 0.10081 0.14123 0.0
H196 H 0.86164 0.01363 0.20364 0.0
H197 H 0.69557 0.95851 0.21874 0.0
H198 H 0.70625 0.9408 0.18847 0.0
H199 H 0.7256 0.99499 0.19328 0.0
C200 C 0.78524 -0.00078 0.12765 0.0
C201 C 0.81071 0.04167 0.12277 0.0
C202 C 0.78009 0.98345 0.15323 0.0
C203 C 0.80021 0.00968 0.17461 0.0
C204 C 0.82557 0.05212 0.1699 0.0
H205 H 0.76362 0.92098 0.33937 0.0
H206 H 0.76791 0.96085 0.29979 0.0
C207 C 0.83055 0.06802 0.14426 0.0
C208 C 0.79659 0.99217 0.20148 0.0
H209 H 0.72645 0.93165 0.24823 0.0
C210 C 0.83216 0.99618 0.21353 0.0
C211 C 0.7582 0.9697 0.21457 0.0
C212 C 0.71926 0.96601 0.20325 0.0
C213 C 0.83007 0.97677 0.23767 0.0
C214 C 0.79136 0.95244 0.25002 0.0
C215 C 0.75605 0.94998 0.23863 0.0
C216 C 0.78686 0.92748 0.27391 0.0
C217 C 0.86928 0.98198 0.24962 0.0
C218 C 0.79505 0.89489 0.27234 0.0
C219 C 0.79236 0.87198 0.29474 0.0
C220 C 0.78141 0.88108 0.31935 0.0
C221 C 0.77216 0.91314 0.32078 0.0
C222 C 0.77464 0.93598 0.29819 0.0
H223 H 0.89699 0.00943 0.24155 0.0
H224 H 0.86907 0.98502 0.27139 0.0
H225 H 0.87184 0.95437 0.24508 0.0
H226 H 0.80388 0.88735 0.25373 0.0
H227 H 0.79963 0.84752 0.29278 0.0
H228 H 0.88981 0.7542 0.67107 0.0
H229 H 0.85339 0.75471 0.63091 0.0
H230 H 0.96286 0.78916 0.58511 0.0
H231 H -0.00067 0.78903 0.62481 0.0
H232 H 0.92978 0.84036 0.57691 0.0
H233 H 0.80964 0.67519 0.56735 0.0
H234 H 0.81267 0.69863 0.59883 0.0
H235 H 0.85471 0.69224 0.58786 0.0
C236 C 0.90586 0.76113 0.65237 0.0
C237 C 0.94756 0.77163 0.65124 0.0
C238 C 0.88498 0.76137 0.62941 0.0
C239 C 0.90535 0.77185 0.60493 0.0
C240 C 0.9465 0.78105 0.60373 0.0
H241 H 0.82828 0.75463 0.44348 0.0
H242 H 0.84963 0.74562 0.48731 0.0
C243 C 0.9673 0.78086 0.62653 0.0
C244 C 0.88515 0.77584 0.58069 0.0
H245 H 0.80809 0.72131 0.53621 0.0
C246 C 0.90299 0.81438 0.56811 0.0
C247 C 0.8504 0.74187 0.5691 0.0
C248 C 0.83077 0.69951 0.58128 0.0
C249 C 0.88748 0.8198 0.54414 0.0
C250 C 0.85267 0.78588 0.53253 0.0
C251 C 0.83453 0.74738 0.54522 0.0
C252 C 0.83644 0.78934 0.50642 0.0
C253 C 0.90945 0.86151 0.53096 0.0
C254 C 0.82098 0.81628 0.5026 0.0
C255 C 0.80876 0.82161 0.47746 0.0
C256 C 0.81162 0.79997 0.45562 0.0
C257 C 0.82578 0.77196 0.45976 0.0
C258 C 0.83793 0.76665 0.48486 0.0
H259 H 0.94062 0.8816 0.53943 0.0
H260 H 0.91266 0.8583 0.50946 0.0
H261 H 0.8912 0.87715 0.53373 0.0
H262 H 0.8189 0.83364 0.51901 0.0
H263 H 0.79783 0.84327 0.47507 0.0
H264 H 0.26505 0.98326 0.9595 0.0
H265 H 0.22654 0.94741 0.91996 0.0
H266 H 0.12713 0.85819 0.96816 0.0
H267 H 0.16572 0.89382 1.0081 0.0
H268 H 0.18851 0.85549 0.90645 0.0
H269 H 0.07805 0.91355 0.91578 0.0
H270 H 0.12825 0.93965 0.9312 0.0
H271 H 0.08856 0.89169 0.94435 0.0
C272 C 0.23517 0.95577 0.96179 0.0
C273 C 0.21845 0.94148 0.98702 0.0
C274 C 0.21322 0.93532 0.93913 0.0
C275 C 0.17387 0.9004 0.94112 0.0
C276 C 0.15738 0.88528 0.96622 0.0
H277 H 0.00103 0.784 0.80881 0.0
H278 H 0.03028 0.80129 0.8534 0.0
C279 C 0.17957 0.90554 0.989 0.0
C280 C 0.15001 0.88085 0.91676 0.0
H281 H 0.0729 0.87528 0.87786 0.0
C282 C 0.16296 0.85942 0.90028 0.0
C283 C 0.11655 0.88582 0.90886 0.0
C284 C 0.10187 0.90902 0.9258 0.0
C285 C 0.14375 0.84338 0.87589 0.0
C286 C 0.1115 0.85003 0.86734 0.0
C287 C 0.09767 0.87028 0.88428 0.0
C288 C 0.09349 0.83845 0.84034 0.0
C289 C 0.15822 0.81935 0.85957 0.0
C290 C 0.11907 0.85401 0.81811 0.0
C291 C 0.10253 0.84403 0.7927 0.0
C292 C 0.05981 0.81864 0.78879 0.0
C293 C 0.03405 0.80349 0.81107 0.0
C294 C 0.05074 0.81337 0.83658 0.0
H295 H 0.17203 0.80513 0.87215 0.0
H296 H 0.13252 0.79465 0.84806 0.0
H297 H 0.18235 0.84059 0.84562 0.0
H298 H 0.15196 0.8744 0.82039 0.0
H299 H 0.12334 0.85666 0.77609 0.0
H300 H 0.23869 0.09993 0.98347 0.0
H301 H 0.17369 0.09754 0.97187 0.0
H302 H 0.13375 0.06958 0.05274 0.0
H303 H 0.19778 0.0711 0.06422 0.0
H304 H 0.08532 0.00763 1.00725 0.0
H305 H 0.11475 0.16829 0.99697 0.0
H306 H 0.15092 0.15355 0.98483 0.0
H307 H 0.14554 0.15775 1.0196 0.0
C308 C 0.21665 0.09498 0.99887 0.0
C309 C 0.22283 0.08564 0.02469 0.0
C310 C 0.17959 0.09333 0.9922 0.0
C311 C 0.14916 0.08303 1.01147 0.0
C312 C 0.15704 0.07743 0.03768 0.0
H313 H 0.93715 0.06781 0.06202 0.0
H314 H 0.00389 0.07628 0.04983 0.0
C315 C 0.19357 0.07852 0.04423 0.0
C316 C 0.10703 0.07265 1.00446 0.0
H317 H 0.04551 0.11528 1.00221 0.0
C318 C 0.07635 0.03093 1.00535 0.0
C319 C 0.09606 0.10334 1.00189 0.0
C320 C 0.12838 0.14836 1.00068 0.0
C321 C 0.03455 0.01924 1.00629 0.0
C322 C 0.02362 0.05023 1.00596 0.0
C323 C 0.05424 0.0917 1.00257 0.0
C324 C 0.98207 0.04136 1.01361 0.0
C325 C 0.00273 0.97435 1.00994 0.0
C326 C 0.9475 0.01751 0.99772 0.0
C327 C 0.909 0.01196 1.00494 0.0
C328 C 0.90508 0.03077 0.02788 0.0
C329 C 0.93944 0.05309 0.04422 0.0
C330 C 0.97756 0.05821 0.03718 0.0
H331 H 0.01696 0.95469 1.01243 0.0
H332 H 0.98332 0.97041 0.02746 0.0
H333 H 0.9822 0.96322 0.99246 0.0
H334 H 0.95057 0.00448 0.97939 0.0
H335 H 0.88298 0.99508 0.99187 0.0
H336 H 0.91592 0.86186 0.31841 0.0
H337 H 0.98019 0.92624 0.30846 0.0
H338 H 0.99347 0.95925 0.39076 0.0
H339 H 0.92893 0.89597 0.4006 0.0
H340 H 0.97932 0.00777 0.33343 0.0
H341 H 0.11339 0.98614 0.35298 0.0
H342 H 0.06481 0.94537 0.3403 0.0
H343 H 0.06936 0.95963 0.37441 0.0
C344 C 0.93359 0.88218 0.33443 0.0
C345 C 0.91798 0.87434 0.36024 0.0
C346 C 0.96995 0.91885 0.32871 0.0
C347 C 0.99119 0.94708 0.34893 0.0
C348 C 0.97741 0.93746 0.37502 0.0
H349 H 0.17485 0.17169 0.40226 0.0
H350 H 0.11789 0.10281 0.39231 0.0
C351 C 0.94077 0.90144 0.38062 0.0
C352 C 0.02373 0.98933 0.34302 0.0
H353 H 0.12564 0.05495 0.35415 0.0
C354 C 0.01161 0.01833 0.33719 0.0
C355 C 0.06539 0.00237 0.34812 0.0
C356 C 0.07932 0.97184 0.35416 0.0
C357 C 0.03984 0.06071 0.33859 0.0
C358 C 0.08115 0.07387 0.34547 0.0
C359 C 0.09378 0.04464 0.34913 0.0
C360 C 0.11081 0.11719 0.35199 0.0
C361 C 0.02466 0.09083 0.3347 0.0
C362 C 0.12418 0.14849 0.33296 0.0
C363 C 0.15607 0.18824 0.33889 0.0
C364 C 0.17524 0.1966 0.36368 0.0
C365 C 0.16028 0.16584 0.38306 0.0
C366 C 0.1281 0.12653 0.37731 0.0
H367 H 0.99046 0.07523 0.33409 0.0
H368 H 0.03596 0.11408 0.35077 0.0
H369 H 0.03676 0.10739 0.31578 0.0
H370 H 0.11156 0.14171 0.31321 0.0
H371 H 0.16779 0.21143 0.32352 0.0
H372 H 0.99494 0.1857 0.65184 0.0
H373 H 0.99367 0.12091 0.6413 0.0
H374 H 0.0167 0.10768 0.72298 0.0
H375 H 0.0192 0.1726 0.7334 0.0
H376 H 0.07785 0.12064 0.66744 0.0
H377 H 0.91927 0.9883 0.68218 0.0
H378 H 0.92909 0.03769 0.66973 0.0
H379 H 0.93665 0.03188 0.70401 0.0
C380 C -0.00197 0.16796 0.66763 0.0
C381 C 0.0071 0.1837 0.6934 0.0
C382 C -0.00245 0.13129 0.66157 0.0
C383 C 0.00514 0.10994 0.68142 0.0
C384 C 0.01059 0.12387 0.70752 0.0
H385 H 0.03834 0.92085 0.73281 0.0
H386 H 0.02651 0.97778 0.72276 0.0
C387 C 0.0119 0.16074 0.71345 0.0
C388 C 0.014 0.07697 0.67502 0.0
H389 H 0.97434 0.97393 0.68338 0.0
C390 C 0.0552 0.08831 0.67015 0.0
C391 C 0.98419 0.03527 0.67874 0.0
C392 C 0.93966 0.02223 0.68383 0.0
C393 C 0.06811 0.0591 0.67116 0.0
C394 C 0.03867 0.0176 0.67666 0.0
C395 C -0.00314 0.0059 0.67936 0.0
C396 C 0.05086 0.98676 0.68308 0.0
C397 C 0.11342 0.07336 0.66841 0.0
C398 C 0.0701 0.97424 0.66445 0.0
C399 C 0.07785 0.9423 0.67046 0.0
C400 C 0.06562 0.92218 0.69492 0.0
C401 C 0.04808 0.93603 0.71385 0.0
C402 C 0.04101 0.96822 0.70804 0.0
H403 H 0.1328 0.1075 0.66875 0.0
H404 H 0.12374 0.0605 0.68448 0.0
H405 H 0.11878 0.0622 0.64938 0.0
H406 H 0.07745 0.98785 0.64497 0.0
H407 H 0.09076 0.93153 0.65542 0.0
H408 H 0.71705 0.09044 0.05127 0.0
H409 H 0.64823 0.08221 0.05015 0.0
H410 H 0.60139 0.96477 1.0113 0.0
H411 H 0.67044 0.97279 1.0121 0.0
H412 H 0.5762 0.01803 0.98839 0.0
H413 H 0.54992 0.00171 0.09637 0.0
H414 H 0.59778 0.04624 0.08712 0.0
H415 H 0.58965 0.99555 0.08045 0.0
C416 C 0.69218 0.0628 0.04248 0.0
C417 C 0.69915 0.03214 0.03189 0.0
C418 C 0.65285 0.05808 0.04201 0.0
C419 C 0.61978 0.02259 0.03107 0.0
C420 C 0.62662 0.99223 0.02002 0.0
H421 H 0.36736 0.9724 0.05194 0.0
H422 H 0.42792 0.96388 0.04963 0.0
C423 C 0.66602 0.99688 0.0205 0.0
C424 C 0.57827 0.01784 0.0308 0.0
H425 H 0.50467 0.01611 0.07117 0.0
C426 C 0.56023 0.01709 1.00644 0.0
C427 C 0.55741 0.01601 0.05442 0.0
C428 C 0.57445 0.0145 0.08108 0.0
C429 C 0.52254 0.01646 1.0051 0.0
C430 C 0.50292 0.01715 0.02875 0.0
C431 C 0.52006 0.01598 0.05309 0.0
C432 C 0.46566 0.0211 0.02878 0.0
C433 C 0.50423 0.01538 0.97843 0.0
C434 C 0.46712 0.05626 1.01802 0.0
C435 C 0.43269 0.06127 1.01931 0.0
C436 C 0.39629 0.03129 0.03159 0.0
C437 C 0.39493 0.99603 0.04234 0.0
C438 C 0.42942 0.99106 0.04101 0.0
H439 H 0.51606 0.00276 0.9631 0.0
H440 H 0.47006 0.9965 0.97891 0.0
H441 H 0.51283 0.04723 0.97257 0.0
H442 H 0.49516 0.08024 1.00905 0.0
H443 H 0.4348 0.08885 1.01093 0.0
H444 H 0.65884 0.73084 0.38364 0.0
H445 H 0.59009 0.66971 0.38166 0.0
H446 H 0.6406 0.60232 0.34289 0.0
H447 H 0.70932 0.66326 0.34446 0.0
H448 H 0.56622 0.59155 0.3202 0.0
H449 H 0.55537 0.56754 0.42882 0.0
H450 H 0.56644 0.61768 0.41784 0.0
H451 H 0.60344 0.60129 0.4124 0.0
C452 C 0.65532 0.70305 0.37462 0.0
C453 C 0.68957 0.70177 0.36439 0.0
C454 C 0.61607 0.66819 0.37357 0.0
C455 C 0.61053 0.63153 0.36241 0.0
C456 C 0.6444 0.63041 0.35162 0.0
H457 H 0.42555 0.38019 0.38169 0.0
H458 H 0.4874 0.44799 0.37965 0.0
C459 C 0.68362 0.66521 0.35262 0.0
C460 C 0.56969 0.5938 0.36257 0.0
H461 H 0.49807 0.52107 0.40352 0.0
C462 C 0.55107 0.5762 0.33838 0.0
C463 C 0.55044 0.57388 0.38638 0.0
C464 C 0.56997 0.59076 0.41287 0.0
C465 C 0.51373 0.5387 0.33735 0.0
C466 C 0.49457 0.51878 0.36116 0.0
C467 C 0.51289 0.53671 0.38534 0.0
C468 C 0.45693 0.47786 0.36151 0.0
C469 C 0.49582 0.51994 0.31088 0.0
C470 C 0.41938 0.47238 0.35198 0.0
C471 C 0.38384 0.43355 0.35306 0.0
C472 C 0.38543 0.39977 0.36382 0.0
C473 C 0.42324 0.40552 0.37327 0.0
C474 C 0.45862 0.44424 0.37216 0.0
H475 H 0.51825 0.53531 0.2946 0.0
H476 H 0.48575 0.48657 0.31072 0.0
H477 H 0.46838 0.52308 0.30696 0.0
H478 H 0.41746 0.49821 0.34403 0.0
H479 H 0.35514 0.43012 0.34572 0.0
H480 H 0.1275 0.74743 0.67911 0.0
H481 H 0.13551 0.68639 0.67798 0.0
H482 H 0.0161 0.61436 0.71427 0.0
H483 H 0.00794 0.67492 0.71577 0.0
H484 H 0.07968 0.60568 0.73795 0.0
H485 H 0.07359 0.58496 0.62905 0.0
H486 H 0.11063 0.63511 0.64134 0.0
H487 H 0.05654 0.61685 0.6451 0.0
C488 C 0.10288 0.71853 0.68673 0.0
C489 C 0.06705 0.71598 0.69749 0.0
C490 C 0.10747 0.68373 0.68598 0.0
C491 C 0.07623 0.64594 0.69585 0.0
C492 C 0.04052 0.64333 0.70655 0.0
H493 H 0.00921 0.39464 0.67863 0.0
H494 H 0.01815 0.46377 0.67724 0.0
C495 C 0.0359 0.67797 0.70734 0.0
C496 C 0.0806 0.60892 0.69558 0.0
H497 H 0.08208 0.53734 0.65474 0.0
C498 C 0.08061 0.59086 0.71979 0.0
C499 C 0.0815 0.58975 0.6718 0.0
C500 C 0.08028 0.60735 0.64529 0.0
C501 C 0.08049 0.55343 0.72089 0.0
C502 C 0.08102 0.53404 0.69711 0.0
C503 C 0.08195 0.55257 0.67289 0.0
C504 C 0.07728 0.49291 0.69697 0.0
C505 C 0.078 0.53407 0.74742 0.0
C506 C 0.1079 0.48666 0.70823 0.0
C507 C 0.10282 0.44712 0.70918 0.0
C508 C 0.06711 0.4133 0.69875 0.0
C509 C 0.037 0.41997 0.68693 0.0
C510 C 0.04209 0.45945 0.68603 0.0
H511 H 0.06971 0.54891 0.76339 0.0
H512 H 0.05487 0.50065 0.74708 0.0
H513 H 0.10841 0.53741 0.75225 0.0
H514 H 0.13556 0.51231 0.71642 0.0
H515 H 0.12672 0.44303 0.71825 0.0
loop_
_geom_bond_atom_site_label_1
_geom_bond_atom_site_label_2
_geom_bond_distance
_geom_bond_site_symmetry_2
_ccdc_geom_bond_type
C0 O2 1.247 . S
C0 O4 1.258 . S
C1 O8 1.247 . S
C1 O9 1.258 . S
O2 C0 1.247 . S
O2 Zn3 2.028 1_556 S
Zn3 O2 2.028 1_554 S
Zn3 O7 2.035 . S
Zn3 O9 2.035 . S
Zn3 O10 2.028 . S
O4 C0 1.258 . S
O4 Zn5 2.035 1_556 S
Zn5 O4 2.035 1_554 S
Zn5 O6 2.028 . S
Zn5 O8 2.028 . S
Zn5 O11 2.035 . S
O6 Zn5 2.028 . S
O6 C12 1.247 . S
O7 Zn3 2.035 . S
O7 C12 1.258 . S
O8 C1 1.247 . S
O8 Zn5 2.028 . S
O9 C1 1.258 . S
O9 Zn3 2.035 . S
O10 Zn3 2.028 . S
O10 C13 1.247 . S
O11 Zn5 2.035 . S
O11 C13 1.258 . S
C12 O6 1.247 . S
C12 O7 1.258 . S
C13 O10 1.247 . S
C13 O11 1.258 . S
C14 O16 1.247 . S
C14 O18 1.258 . S
C15 O22 1.247 . S
C15 O23 1.258 . S
O16 C14 1.247 . S
O16 Zn17 2.028 . S
Zn17 O16 2.028 . S
Zn17 O21 2.035 . S
Zn17 O23 2.035 . S
Zn17 O24 2.028 . S
O18 C14 1.258 . S
O18 Zn19 2.035 . S
Zn19 O18 2.035 . S
Zn19 O20 2.028 . S
Zn19 O22 2.028 . S
Zn19 O25 2.035 . S
O20 Zn19 2.028 . S
O20 C26 1.247 . S
O21 Zn17 2.035 . S
O21 C26 1.258 . S
O22 C15 1.247 . S
O22 Zn19 2.028 . S
O23 C15 1.258 . S
O23 Zn17 2.035 . S
O24 Zn17 2.028 . S
O24 C27 1.247 . S
O25 Zn19 2.035 . S
O25 C27 1.258 . S
C26 O20 1.247 . S
C26 O21 1.258 . S
C27 O24 1.247 . S
C27 O25 1.258 . S
C28 O30 1.247 1_455 S
C28 O32 1.258 . S
C29 O36 1.247 1_655 S
C29 O37 1.258 . S
O30 C28 1.247 1_655 S
O30 Zn31 2.028 . S
Zn31 O30 2.028 . S
Zn31 O35 2.035 . S
Zn31 O37 2.035 . S
Zn31 O38 2.028 . S
O32 C28 1.258 . S
O32 Zn33 2.035 . S
Zn33 O32 2.035 . S
Zn33 O34 2.028 . S
Zn33 O36 2.028 . S
Zn33 O39 2.035 . S
O34 Zn33 2.028 . S
O34 C40 1.247 . S
O35 Zn31 2.035 . S
O35 C40 1.258 1_655 S
O36 C29 1.247 1_455 S
O36 Zn33 2.028 . S
O37 C29 1.258 . S
O37 Zn31 2.035 . S
O38 Zn31 2.028 . S
O38 C41 1.247 1_655 S
O39 Zn33 2.035 . S
O39 C41 1.258 . S
C40 O34 1.247 . S
C40 O35 1.258 1_455 S
C41 O38 1.247 1_455 S
C41 O39 1.258 . S
C42 O44 1.247 . S
C42 O46 1.258 1_545 S
C43 O50 1.247 1_545 S
C43 O51 1.258 . S
O44 C42 1.247 . S
O44 Zn45 2.028 . S
Zn45 O44 2.028 . S
Zn45 O49 2.035 . S
Zn45 O51 2.035 . S
Zn45 O52 2.028 1_554 S
O46 C42 1.258 1_565 S
O46 Zn47 2.035 . S
Zn47 O46 2.035 . S
Zn47 O48 2.028 . S
Zn47 O50 2.028 . S
Zn47 O53 2.035 1_554 S
O48 Zn47 2.028 . S
O48 C54 1.247 . S
O49 Zn45 2.035 . S
O49 C54 1.258 1_545 S
O50 C43 1.247 1_565 S
O50 Zn47 2.028 . S
O51 C43 1.258 . S
O51 Zn45 2.035 . S
O52 Zn45 2.028 1_556 S
O52 C55 1.247 . S
O53 Zn47 2.035 1_556 S
O53 C55 1.258 1_565 S
C54 O48 1.247 . S
C54 O49 1.258 1_565 S
C55 O52 1.247 . S
C55 O53 1.258 1_545 S
C56 O58 1.247 . S
C56 O60 1.258 . S
C57 O64 1.247 . S
C57 O65 1.258 . S
O58 C56 1.247 . S
O58 Zn59 2.028 . S
Zn59 O58 2.028 . S
Zn59 O63 2.035 . S
Zn59 O65 2.035 . S
Zn59 O66 2.028 . S
O60 C56 1.258 . S
O60 Zn61 2.035 . S
Zn61 O60 2.035 . S
Zn61 O62 2.028 . S
Zn61 O64 2.028 . S
Zn61 O67 2.035 . S
O62 Zn61 2.028 . S
O62 C68 1.247 . S
O63 Zn59 2.035 . S
O63 C68 1.258 . S
O64 C57 1.247 . S
O64 Zn61 2.028 . S
O65 C57 1.258 . S
O65 Zn59 2.035 . S
O66 Zn59 2.028 . S
O66 C69 1.247 . S
O67 Zn61 2.035 . S
O67 C69 1.258 . S
C68 O62 1.247 . S
C68 O63 1.258 . S
C69 O66 1.247 . S
C69 O67 1.258 . S
C70 O72 1.247 . S
C70 O74 1.258 . S
C71 O78 1.247 . S
C71 O79 1.258 . S
O72 C70 1.247 . S
O72 Zn73 2.028 . S
Zn73 O72 2.028 . S
Zn73 O77 2.035 . S
Zn73 O79 2.035 . S
Zn73 O80 2.028 . S
O74 C70 1.258 . S
O74 Zn75 2.035 . S
Zn75 O74 2.035 . S
Zn75 O76 2.028 . S
Zn75 O78 2.028 . S
Zn75 O81 2.035 . S
O76 Zn75 2.028 . S
O76 C82 1.247 . S
O77 Zn73 2.035 . S
O77 C82 1.258 . S
O78 C71 1.247 . S
O78 Zn75 2.028 . S
O79 C71 1.258 . S
O79 Zn73 2.035 . S
O80 Zn73 2.028 . S
O80 C83 1.247 . S
O81 Zn75 2.035 . S
O81 C83 1.258 . S
C82 O76 1.247 . S
C82 O77 1.258 . S
C83 O80 1.247 . S
C83 O81 1.258 . S
H84 C92 0.929 . S
H85 C94 0.930 . S
H86 C96 0.930 . S
H87 C99 0.929 . S
H88 C102 0.930 . S
H89 C104 0.960 . S
H90 C104 0.960 . S
H91 C104 0.960 . S
C92 H84 0.929 . S
C92 C93 1.377 . S
C92 C94 1.384 . S
C93 C92 1.377 . S
C93 C99 1.390 . S
C94 H85 0.930 . S
C94 C92 1.384 . S
C94 C95 1.372 . S
C95 C94 1.372 . S
C95 C96 1.400 . S
C95 C100 1.490 . S
C96 H86 0.930 . S
C96 C95 1.400 . S
C96 C99 1.386 . S
H97 C113 0.930 . S
H98 C114 0.931 . S
C99 H87 0.929 . S
C99 C93 1.390 . S
C99 C96 1.386 . S
C100 C95 1.490 . S
C100 C102 1.395 . S
C100 C103 1.403 . S
H101 C107 0.930 . S
C102 H88 0.930 . S
C102 C100 1.395 . S
C102 C105 1.403 . S
C103 C100 1.403 . S
C103 C104 1.524 . S
C103 C107 1.400 . S
C104 H89 0.960 . S
C104 H90 0.960 . S
C104 H91 0.960 . S
C104 C103 1.524 . S
C105 C102 1.403 . S
C105 C106 1.392 . S
C105 C109 1.495 . S
C106 C105 1.392 . S
C106 C107 1.385 . S
C106 C108 1.478 . S
C107 H101 0.930 . S
C107 C103 1.400 . S
C107 C106 1.385 . S
C108 C106 1.478 . S
C108 C110 1.381 . S
C108 C114 1.383 . S
C109 C105 1.495 . S
C109 H115 0.959 . S
C109 H116 0.961 . S
C109 H117 0.960 . S
C110 C108 1.381 . S
C110 C111 1.394 . S
C110 H118 0.930 . S
C111 C110 1.394 . S
C111 C112 1.383 . S
C111 H119 0.929 . S
C112 C111 1.383 . S
C112 C113 1.377 . S
C113 H97 0.930 . S
C113 C112 1.377 . S
C113 C114 1.379 . S
C114 H98 0.931 . S
C114 C108 1.383 . S
C114 C113 1.379 . S
H115 C109 0.959 . S
H116 C109 0.961 . S
H117 C109 0.960 . S
H118 C110 0.930 . S
H119 C111 0.929 . S
H120 C128 0.929 . S
H121 C130 0.930 . S
H122 C132 0.930 . S
H123 C135 0.929 . S
H124 C138 0.930 . S
H125 C140 0.960 . S
H126 C140 0.960 . S
H127 C140 0.960 . S
C128 H120 0.929 . S
C128 C129 1.377 . S
C128 C130 1.384 . S
C129 C128 1.377 . S
C129 C135 1.390 . S
C130 H121 0.930 . S
C130 C128 1.384 . S
C130 C131 1.372 . S
C131 C130 1.372 . S
C131 C132 1.400 . S
C131 C136 1.490 . S
C132 H122 0.930 . S
C132 C131 1.400 . S
C132 C135 1.386 . S
H133 C149 0.930 . S
H134 C150 0.931 . S
C135 H123 0.929 . S
C135 C129 1.390 . S
C135 C132 1.386 . S
C136 C131 1.490 . S
C136 C138 1.395 . S
C136 C139 1.403 . S
H137 C143 0.930 . S
C138 H124 0.930 . S
C138 C136 1.395 . S
C138 C141 1.403 . S
C139 C136 1.403 . S
C139 C140 1.524 . S
C139 C143 1.400 . S
C140 H125 0.960 . S
C140 H126 0.960 . S
C140 H127 0.960 . S
C140 C139 1.524 . S
C141 C138 1.403 . S
C141 C142 1.392 . S
C141 C145 1.495 . S
C142 C141 1.392 . S
C142 C143 1.385 . S
C142 C144 1.478 . S
C143 H137 0.930 . S
C143 C139 1.400 . S
C143 C142 1.385 . S
C144 C142 1.478 . S
C144 C146 1.381 . S
C144 C150 1.383 . S
C145 C141 1.495 . S
C145 H151 0.959 . S
C145 H152 0.961 . S
C145 H153 0.960 . S
C146 C144 1.381 . S
C146 C147 1.394 . S
C146 H154 0.930 . S
C147 C146 1.394 . S
C147 C148 1.383 . S
C147 H155 0.929 . S
C148 C147 1.383 . S
C148 C149 1.377 . S
C149 H133 0.930 . S
C149 C148 1.377 . S
C149 C150 1.379 . S
C150 H134 0.931 . S
C150 C144 1.383 . S
C150 C149 1.379 . S
H151 C145 0.959 . S
H152 C145 0.961 . S
H153 C145 0.960 . S
H154 C146 0.930 . S
H155 C147 0.929 . S
H156 C164 0.929 . S
H157 C166 0.930 . S
H158 C168 0.930 . S
H159 C171 0.929 . S
H160 C174 0.930 . S
H161 C176 0.960 . S
H162 C176 0.960 . S
H163 C176 0.960 . S
C164 H156 0.929 . S
C164 C165 1.377 . S
C164 C166 1.384 . S
C165 C164 1.377 . S
C165 C171 1.390 . S
C166 H157 0.930 . S
C166 C164 1.384 . S
C166 C167 1.372 . S
C167 C166 1.372 . S
C167 C168 1.400 . S
C167 C172 1.490 . S
C168 H158 0.930 . S
C168 C167 1.400 . S
C168 C171 1.386 . S
H169 C185 0.930 . S
H170 C186 0.931 . S
C171 H159 0.929 . S
C171 C165 1.390 . S
C171 C168 1.386 . S
C172 C167 1.490 . S
C172 C174 1.395 . S
C172 C175 1.403 . S
H173 C179 0.930 . S
C174 H160 0.930 . S
C174 C172 1.395 . S
C174 C177 1.403 . S
C175 C172 1.403 . S
C175 C176 1.524 . S
C175 C179 1.400 . S
C176 H161 0.960 . S
C176 H162 0.960 . S
C176 H163 0.960 . S
C176 C175 1.524 . S
C177 C174 1.403 . S
C177 C178 1.392 . S
C177 C181 1.495 . S
C178 C177 1.392 . S
C178 C179 1.385 . S
C178 C180 1.478 . S
C179 H173 0.930 . S
C179 C175 1.400 . S
C179 C178 1.385 . S
C180 C178 1.478 . S
C180 C182 1.381 . S
C180 C186 1.383 . S
C181 C177 1.495 . S
C181 H187 0.959 . S
C181 H188 0.961 . S
C181 H189 0.960 . S
C182 C180 1.381 . S
C182 C183 1.394 . S
C182 H190 0.930 . S
C183 C182 1.394 . S
C183 C184 1.383 . S
C183 H191 0.929 . S
C184 C183 1.383 . S
C184 C185 1.377 . S
C185 H169 0.930 . S
C185 C184 1.377 . S
C185 C186 1.379 . S
C186 H170 0.931 . S
C186 C180 1.383 . S
C186 C185 1.379 . S
H187 C181 0.959 . S
H188 C181 0.961 . S
H189 C181 0.960 . S
H190 C182 0.930 . S
H191 C183 0.929 . S
H192 C200 0.929 . S
H193 C202 0.930 . S
H194 C204 0.930 . S
H195 C207 0.911 1_545 S
H196 C210 0.930 . S
H197 C212 0.960 . S
H198 C212 0.960 . S
H199 C212 0.960 . S
C200 H192 0.929 . S
C200 C201 1.377 . S
C200 C202 1.384 . S
C201 C200 1.377 . S
C201 C207 1.390 . S
C202 H193 0.930 . S
C202 C200 1.384 . S
C202 C203 1.372 . S
C203 C202 1.372 . S
C203 C204 1.400 . S
C203 C208 1.490 . S
C204 H194 0.930 . S
C204 C203 1.400 . S
C204 C207 1.386 . S
H205 C221 0.930 . S
H206 C222 0.931 . S
C207 H195 0.911 1_565 S
C207 C201 1.390 . S
C207 C204 1.386 . S
C208 C203 1.490 . S
C208 C210 1.395 . S
C208 C211 1.403 . S
H209 C215 0.930 . S
C210 H196 0.930 . S
C210 C208 1.395 . S
C210 C213 1.403 . S
C211 C208 1.403 . S
C211 C212 1.524 . S
C211 C215 1.400 . S
C212 H197 0.960 . S
C212 H198 0.960 . S
C212 H199 0.960 . S
C212 C211 1.524 . S
C213 C210 1.403 . S
C213 C214 1.392 . S
C213 C217 1.495 . S
C214 C213 1.392 . S
C214 C215 1.385 . S
C214 C216 1.478 . S
C215 H209 0.930 . S
C215 C211 1.400 . S
C215 C214 1.385 . S
C216 C214 1.478 . S
C216 C218 1.381 . S
C216 C222 1.383 . S
C217 C213 1.495 . S
C217 H223 0.959 . S
C217 H224 0.961 . S
C217 H225 0.960 . S
C218 C216 1.381 . S
C218 C219 1.394 . S
C218 H226 0.930 . S
C219 C218 1.394 . S
C219 C220 1.383 . S
C219 H227 0.929 . S
C220 C219 1.383 . S
C220 C221 1.377 . S
C221 H205 0.930 . S
C221 C220 1.377 . S
C221 C222 1.379 . S
C222 H206 0.931 . S
C222 C216 1.383 . S
C222 C221 1.379 . S
H223 C217 0.959 . S
H224 C217 0.961 . S
H225 C217 0.960 . S
H226 C218 0.930 . S
H227 C219 0.929 . S
H228 C236 0.929 . S
H229 C238 0.906 1_655 S
H230 C240 0.930 . S
H231 C243 0.929 . S
H232 C246 0.930 1_455 S
H233 C248 0.960 . S
H234 C248 0.960 . S
H235 C248 0.960 . S
C236 H228 0.929 . S
C236 C237 1.377 . S
C236 C238 1.398 . S
C237 C236 1.377 . S
C237 C243 1.390 . S
C238 H229 0.906 1_455 S
C238 C236 1.398 . S
C238 C239 1.382 . S
C239 C238 1.382 . S
C239 C240 1.400 . S
C239 C244 1.490 1_455 S
C240 H230 0.930 . S
C240 C239 1.400 . S
C240 C243 1.386 . S
H241 C257 0.930 . S
H242 C258 0.931 . S
C243 H231 0.929 . S
C243 C237 1.390 . S
C243 C240 1.386 . S
C244 C239 1.490 1_655 S
C244 C246 1.395 . S
C244 C247 1.403 . S
H245 C251 0.930 . S
C246 H232 0.930 1_655 S
C246 C244 1.395 . S
C246 C249 1.403 . S
C247 C244 1.403 . S
C247 C248 1.524 . S
C247 C251 1.400 . S
C248 H233 0.960 . S
C248 H234 0.960 . S
C248 H235 0.960 . S
C248 C247 1.524 . S
C249 C246 1.403 . S
C249 C250 1.392 . S
C249 C253 1.495 . S
C250 C249 1.392 . S
C250 C251 1.385 . S
C250 C252 1.478 . S
C251 H245 0.930 . S
C251 C247 1.400 . S
C251 C250 1.385 . S
C252 C250 1.478 . S
C252 C254 1.381 . S
C252 C258 1.383 . S
C253 C249 1.495 . S
C253 H259 0.959 1_655 S
C253 H260 0.961 . S
C253 H261 0.960 . S
C254 C252 1.381 . S
C254 C255 1.394 . S
C254 H262 0.930 . S
C255 C254 1.394 . S
C255 C256 1.383 . S
C255 H263 0.929 . S
C256 C255 1.383 . S
C256 C257 1.377 . S
C257 H241 0.930 . S
C257 C256 1.377 . S
C257 C258 1.379 . S
C258 H242 0.931 . S
C258 C252 1.383 . S
C258 C257 1.379 . S
H259 C253 0.959 1_455 S
H260 C253 0.961 . S
H261 C253 0.960 . S
H262 C254 0.930 . S
H263 C255 0.929 . S
H264 C272 0.929 . S
H265 C274 0.930 . S
H266 C276 0.930 . S
H267 C279 0.929 1_565 S
H268 C282 0.930 . S
H269 C284 0.960 . S
H270 C284 0.960 . S
H271 C284 0.960 . S
C272 H264 0.929 . S
C272 C273 1.377 . S
C272 C274 1.384 . S
C273 C272 1.377 . S
C273 C279 1.390 . S
C274 H265 0.930 . S
C274 C272 1.384 . S
C274 C275 1.372 . S
C275 C274 1.372 . S
C275 C276 1.400 1_545 S
C275 C280 1.490 1_545 S
C276 H266 0.930 . S
C276 C275 1.400 1_565 S
C276 C279 1.386 1_565 S
H277 C293 0.930 . S
H278 C294 0.931 . S
C279 H267 0.929 1_545 S
C279 C273 1.390 . S
C279 C276 1.386 1_545 S
C280 C275 1.490 1_565 S
C280 C282 1.395 . S
C280 C283 1.403 . S
H281 C287 0.930 . S
C282 H268 0.930 . S
C282 C280 1.395 . S
C282 C285 1.403 . S
C283 C280 1.403 . S
C283 C284 1.524 . S
C283 C287 1.400 . S
C284 H269 0.960 . S
C284 H270 0.960 . S
C284 H271 0.960 . S
C284 C283 1.524 . S
C285 C282 1.403 . S
C285 C286 1.392 . S
C285 C289 1.495 . S
C286 C285 1.392 . S
C286 C287 1.385 . S
C286 C288 1.478 . S
C287 H281 0.930 . S
C287 C283 1.400 . S
C287 C286 1.385 . S
C288 C286 1.478 . S
C288 C290 1.381 . S
C288 C294 1.383 . S
C289 C285 1.495 . S
C289 H295 0.959 . S
C289 H296 0.961 . S
C289 H297 0.960 . S
C290 C288 1.381 . S
C290 C291 1.394 . S
C290 H298 0.930 . S
C291 C290 1.394 . S
C291 C292 1.383 . S
C291 H299 0.929 . S
C292 C291 1.383 . S
C292 C293 1.377 . S
C293 H277 0.930 . S
C293 C292 1.377 . S
C293 C294 1.379 . S
C294 H278 0.931 . S
C294 C288 1.383 . S
C294 C293 1.379 . S
H295 C289 0.959 . S
H296 C289 0.961 . S
H297 C289 0.960 . S
H298 C290 0.930 . S
H299 C291 0.929 . S
H300 C308 0.929 . S
H301 C310 0.930 . S
H302 C312 0.930 . S
H303 C315 0.929 . S
H304 C318 0.930 . S
H305 C320 0.960 . S
H306 C320 0.960 . S
H307 C320 0.960 . S
C308 H300 0.929 . S
C308 C309 1.377 . S
C308 C310 1.384 . S
C309 C308 1.377 . S
C309 C315 1.390 . S
C310 H301 0.930 . S
C310 C308 1.384 . S
C310 C311 1.372 . S
C311 C310 1.372 . S
C311 C312 1.400 . S
C311 C316 1.490 . S
C312 H302 0.930 . S
C312 C311 1.400 . S
C312 C315 1.386 . S
H313 C329 0.930 . S
H314 C330 0.931 . S
C315 H303 0.929 . S
C315 C309 1.390 . S
C315 C312 1.386 . S
C316 C311 1.490 . S
C316 C318 1.395 . S
C316 C319 1.403 . S
H317 C323 0.935 . S
C318 H304 0.930 . S
C318 C316 1.395 . S
C318 C321 1.403 . S
C319 C316 1.403 . S
C319 C320 1.524 1_554 S
C319 C323 1.400 . S
C320 H305 0.960 . S
C320 H306 0.960 . S
C320 H307 0.960 . S
C320 C319 1.524 1_556 S
C321 C318 1.403 . S
C321 C322 1.392 . S
C321 C325 1.495 1_445 S
C322 C321 1.392 . S
C322 C323 1.385 . S
C322 C324 1.478 1_455 S
C323 H317 0.935 . S
C323 C319 1.400 . S
C323 C322 1.385 . S
C324 C322 1.478 1_655 S
C324 C326 1.381 1_545 S
C324 C330 1.383 . S
C325 C321 1.495 1_665 S
C325 H331 0.959 1_655 S
C325 H332 0.961 . S
C325 H333 0.960 . S
C326 C324 1.381 1_565 S
C326 C327 1.394 . S
C326 H334 0.930 . S
C327 C326 1.394 . S
C327 C328 1.383 1_565 S
C327 H335 0.929 . S
C328 C327 1.383 1_545 S
C328 C329 1.377 . S
C329 H313 0.930 . S
C329 C328 1.377 . S
C329 C330 1.379 . S
C330 H314 0.931 . S
C330 C324 1.383 . S
C330 C329 1.379 . S
H331 C325 0.959 1_455 S
H332 C325 0.961 . S
H333 C325 0.960 . S
H334 C326 0.930 . S
H335 C327 0.929 . S
H336 C344 0.929 . S
H337 C346 0.930 . S
H338 C348 0.930 1_455 S
H339 C351 0.929 . S
H340 C354 0.930 1_655 S
H341 C356 0.960 1_545 S
H342 C356 0.960 . S
H343 C356 0.960 . S
C344 H336 0.929 . S
C344 C345 1.377 . S
C344 C346 1.384 . S
C345 C344 1.377 . S
C345 C351 1.390 . S
C346 H337 0.930 . S
C346 C344 1.384 . S
C346 C347 1.372 . S
C347 C346 1.372 . S
C347 C348 1.400 . S
C347 C352 1.490 1_665 S
C348 H338 0.930 1_655 S
C348 C347 1.400 . S
C348 C351 1.386 . S
H349 C365 0.930 . S
H350 C366 0.931 . S
C351 H339 0.929 . S
C351 C345 1.390 . S
C351 C348 1.386 . S
C352 C347 1.490 1_445 S
C352 C354 1.395 . S
C352 C355 1.403 . S
H353 C359 0.930 . S
C354 H340 0.930 1_455 S
C354 C352 1.395 . S
C354 C357 1.403 . S
C355 C352 1.403 . S
C355 C356 1.524 1_545 S
C355 C359 1.400 . S
C356 H341 0.960 1_565 S
C356 H342 0.960 . S
C356 H343 0.960 . S
C356 C355 1.524 1_565 S
C357 C354 1.403 . S
C357 C358 1.392 . S
C357 C361 1.495 . S
C358 C357 1.392 . S
C358 C359 1.385 . S
C358 C360 1.478 . S
C359 H353 0.930 . S
C359 C355 1.400 . S
C359 C358 1.385 . S
C360 C358 1.478 . S
C360 C362 1.381 . S
C360 C366 1.383 . S
C361 C357 1.495 . S
C361 H367 0.959 1_455 S
C361 H368 0.961 . S
C361 H369 0.960 . S
C362 C360 1.381 . S
C362 C363 1.394 . S
C362 H370 0.930 . S
C363 C362 1.394 . S
C363 C364 1.383 . S
C363 H371 0.929 . S
C364 C363 1.383 . S
C364 C365 1.377 . S
C365 H349 0.930 . S
C365 C364 1.377 . S
C365 C366 1.379 . S
C366 H350 0.931 . S
C366 C360 1.383 . S
C366 C365 1.379 . S
H367 C361 0.959 1_655 S
H368 C361 0.961 . S
H369 C361 0.960 . S
H370 C362 0.930 . S
H371 C363 0.929 . S
H372 C380 0.929 . S
H373 C382 0.930 . S
H374 C384 0.930 . S
H375 C387 0.929 . S
H376 C390 0.930 . S
H377 C392 0.960 1_565 S
H378 C392 0.960 . S
H379 C392 0.960 . S
C380 H372 0.929 . S
C380 C381 1.377 . S
C380 C382 1.384 . S
C381 C380 1.377 . S
C381 C387 1.390 . S
C382 H373 0.930 . S
C382 C380 1.384 . S
C382 C383 1.372 . S
C383 C382 1.372 . S
C383 C384 1.400 . S
C383 C388 1.490 . S
C384 H374 0.930 . S
C384 C383 1.400 . S
C384 C387 1.386 . S
H385 C401 0.930 . S
H386 C402 0.931 . S
C387 H375 0.929 . S
C387 C381 1.390 . S
C387 C384 1.386 . S
C388 C383 1.490 . S
C388 C390 1.395 . S
C388 C391 1.403 . S
H389 C395 0.930 1_565 S
C390 H376 0.930 . S
C390 C388 1.395 . S
C390 C393 1.403 . S
C391 C388 1.403 . S
C391 C392 1.524 1_455 S
C391 C395 1.400 . S
C392 H377 0.960 1_545 S
C392 H378 0.960 . S
C392 H379 0.960 . S
C392 C391 1.524 1_655 S
C393 C390 1.403 . S
C393 C394 1.392 . S
C393 C397 1.495 . S
C394 C393 1.392 . S
C394 C395 1.385 . S
C394 C396 1.478 1_545 S
C395 H389 0.930 1_545 S
C395 C391 1.400 . S
C395 C394 1.385 . S
C396 C394 1.478 1_565 S
C396 C398 1.381 . S
C396 C402 1.383 . S
C397 C393 1.495 . S
C397 H403 0.959 . S
C397 H404 0.961 . S
C397 H405 0.960 . S
C398 C396 1.381 . S
C398 C399 1.394 . S
C398 H406 0.930 . S
C399 C398 1.394 . S
C399 C400 1.383 . S
C399 H407 0.929 . S
C400 C399 1.383 . S
C400 C401 1.377 . S
C401 H385 0.930 . S
C401 C400 1.377 . S
C401 C402 1.379 . S
C402 H386 0.931 . S
C402 C396 1.383 . S
C402 C401 1.379 . S
H403 C397 0.959 . S
H404 C397 0.961 . S
H405 C397 0.960 . S
H406 C398 0.930 . S
H407 C399 0.929 . S
H408 C416 0.929 . S
H409 C418 0.930 . S
H410 C420 0.930 1_556 S
H411 C423 0.929 1_556 S
H412 C426 0.930 . S
H413 C428 0.960 . S
H414 C428 0.960 . S
H415 C428 0.960 . S
C416 H408 0.929 . S
C416 C417 1.377 . S
C416 C418 1.384 . S
C417 C416 1.377 . S
C417 C423 1.390 1_545 S
C418 H409 0.930 . S
C418 C416 1.384 . S
C418 C419 1.372 . S
C419 C418 1.372 . S
C419 C420 1.400 1_545 S
C419 C424 1.490 . S
C420 H410 0.930 1_554 S
C420 C419 1.400 1_565 S
C420 C423 1.386 . S
H421 C437 0.930 1_556 S
H422 C438 0.931 1_556 S
C423 H411 0.929 1_554 S
C423 C417 1.390 1_565 S
C423 C420 1.386 . S
C424 C419 1.490 . S
C424 C426 1.395 . S
C424 C427 1.403 . S
H425 C431 0.930 . S
C426 H412 0.930 . S
C426 C424 1.395 . S
C426 C429 1.403 . S
C427 C424 1.403 . S
C427 C428 1.524 1_545 S
C427 C431 1.400 . S
C428 H413 0.960 . S
C428 H414 0.960 . S
C428 H415 0.960 . S
C428 C427 1.524 1_565 S
C429 C426 1.403 . S
C429 C430 1.392 . S
C429 C433 1.495 1_554 S
C430 C429 1.392 . S
C430 C431 1.385 . S
C430 C432 1.478 . S
C431 H425 0.930 . S
C431 C427 1.400 . S
C431 C430 1.385 . S
C432 C430 1.478 . S
C432 C434 1.381 . S
C432 C438 1.383 . S
C433 C429 1.495 1_556 S
C433 H439 0.959 . S
C433 H440 0.961 . S
C433 H441 0.960 1_556 S
C434 C432 1.381 . S
C434 C435 1.394 . S
C434 H442 0.930 . S
C435 C434 1.394 . S
C435 C436 1.383 . S
C435 H443 0.929 . S
C436 C435 1.383 . S
C436 C437 1.377 . S
C437 H421 0.930 1_554 S
C437 C436 1.377 . S
C437 C438 1.379 . S
C438 H422 0.931 1_554 S
C438 C432 1.383 . S
C438 C437 1.379 . S
H439 C433 0.959 . S
H440 C433 0.961 . S
H441 C433 0.960 1_554 S
H442 C434 0.930 . S
H443 C435 0.929 . S
H444 C452 0.929 . S
H445 C454 0.930 . S
H446 C456 0.930 . S
H447 C459 0.929 . S
H448 C462 0.930 . S
H449 C464 0.960 . S
H450 C464 0.960 . S
H451 C464 0.960 . S
C452 H444 0.929 . S
C452 C453 1.377 . S
C452 C454 1.384 . S
C453 C452 1.377 . S
C453 C459 1.390 . S
C454 H445 0.930 . S
C454 C452 1.384 . S
C454 C455 1.372 . S
C455 C454 1.372 . S
C455 C456 1.400 . S
C455 C460 1.490 . S
C456 H446 0.930 . S
C456 C455 1.400 . S
C456 C459 1.386 . S
H457 C473 0.930 . S
H458 C474 0.931 . S
C459 H447 0.929 . S
C459 C453 1.390 . S
C459 C456 1.386 . S
C460 C455 1.490 . S
C460 C462 1.395 . S
C460 C463 1.403 . S
H461 C467 0.930 . S
C462 H448 0.930 . S
C462 C460 1.395 . S
C462 C465 1.403 . S
C463 C460 1.403 . S
C463 C464 1.524 . S
C463 C467 1.400 . S
C464 H449 0.960 . S
C464 H450 0.960 . S
C464 H451 0.960 . S
C464 C463 1.524 . S
C465 C462 1.403 . S
C465 C466 1.392 . S
C465 C469 1.495 . S
C466 C465 1.392 . S
C466 C467 1.385 . S
C466 C468 1.478 . S
C467 H461 0.930 . S
C467 C463 1.400 . S
C467 C466 1.385 . S
C468 C466 1.478 . S
C468 C470 1.381 . S
C468 C474 1.383 . S
C469 C465 1.495 . S
C469 H475 0.959 . S
C469 H476 0.961 . S
C469 H477 0.960 . S
C470 C468 1.381 . S
C470 C471 1.394 . S
C470 H478 0.930 . S
C471 C470 1.394 . S
C471 C472 1.383 . S
C471 H479 0.929 . S
C472 C471 1.383 . S
C472 C473 1.377 . S
C473 H457 0.930 . S
C473 C472 1.377 . S
C473 C474 1.379 . S
C474 H458 0.931 . S
C474 C468 1.383 . S
C474 C473 1.379 . S
H475 C469 0.959 . S
H476 C469 0.961 . S
H477 C469 0.960 . S
H478 C470 0.930 . S
H479 C471 0.929 . S
H480 C488 0.929 . S
H481 C490 0.930 . S
H482 C492 0.930 . S
H483 C495 0.929 . S
H484 C498 0.930 . S
H485 C500 0.951 1_655 S
H486 C500 0.966 . S
H487 C500 0.943 1_655 S
C488 H480 0.929 . S
C488 C489 1.377 . S
C488 C490 1.384 . S
C489 C488 1.377 . S
C489 C495 1.390 . S
C490 H481 0.930 . S
C490 C488 1.384 . S
C490 C491 1.372 . S
C491 C490 1.372 . S
C491 C492 1.400 . S
C491 C496 1.490 . S
C492 H482 0.930 . S
C492 C491 1.400 . S
C492 C495 1.386 . S
H493 C509 0.930 . S
H494 C510 0.931 1_655 S
C495 H483 0.929 . S
C495 C489 1.390 . S
C495 C492 1.386 . S
C496 C491 1.490 . S
C496 C498 1.395 . S
C496 C499 1.403 . S
H497 C503 0.929 . S
C498 H484 0.930 . S
C498 C496 1.395 . S
C498 C501 1.403 . S
C499 C496 1.403 . S
C499 C500 1.546 . S
C499 C503 1.400 . S
C500 H485 0.951 1_455 S
C500 H486 0.966 . S
C500 H487 0.943 1_455 S
C500 C499 1.546 . S
C501 C498 1.403 . S
C501 C502 1.392 . S
C501 C505 1.495 . S
C502 C501 1.392 . S
C502 C503 1.385 . S
C502 C504 1.478 . S
C503 H497 0.929 . S
C503 C499 1.400 . S
C503 C502 1.385 . S
C504 C502 1.478 . S
C504 C506 1.381 . S
C504 C510 1.383 . S
C505 C501 1.495 . S
C505 H511 0.959 . S
C505 H512 0.961 . S
C505 H513 0.960 . S
C506 C504 1.381 . S
C506 C507 1.394 . S
C506 H514 0.930 . S
C507 C506 1.394 . S
C507 C508 1.383 . S
C507 H515 0.929 . S
C508 C507 1.383 . S
C508 C509 1.377 1_455 S
C509 H493 0.930 . S
C509 C508 1.377 1_655 S
C509 C510 1.379 1_655 S
C510 H494 0.931 1_455 S
C510 C504 1.383 . S
C510 C509 1.379 1_455 S
H511 C505 0.959 . S
H512 C505 0.961 . S
H513 C505 0.960 . S
H514 C506 0.930 . S
H515 C507 0.929 . S
C93 C1 1.772 . S
C112 C27 1.728 . S
C129 C26 1.772 . S
C148 C28 1.733 . S
C165 C55 1.747 . S
C184 C29 1.774 . S
C201 C54 1.774 . S
C220 C68 1.739 . S
C237 C83 1.743 . S
C256 C69 1.765 . S
C273 C0 1.743 . S
C292 C82 1.771 . S
C309 C12 0.973 . S
C328 C43 0.998 . S
C345 C56 0.977 . S
C364 C15 1.000 . S
C381 C40 0.979 . S
C400 C71 0.995 . S
C417 C42 1.553 . S
C436 C13 1.562 . S
C453 C57 1.553 . S
C472 C14 1.555 . S
C489 C70 1.555 . S
C508 C41 1.541 . S
