# Generated by pormake.
# Topology ukx, (4)-cn, num edge types: 1
# Building blocks:
#     Node 0, Type 0, BuildingBlock: TATPOV_clean_sbu_0, # of connection points: 4
#     Node 1, Type 0, BuildingBlock: TATPOV_clean_sbu_0, # of connection points: 4
#     Node 2, Type 0, BuildingBlock: TATPOV_clean_sbu_0, # of connection points: 4
#     Node 3, Type 0, BuildingBlock: TATPOV_clean_sbu_0, # of connection points: 4
#     Node 4, Type 0, BuildingBlock: TATPOV_clean_sbu_0, # of connection points: 4
#     Node 5, Type 0, BuildingBlock: TATPOV_clean_sbu_0, # of connection points: 4
#     Node 6, Type 0, BuildingBlock: TATPOV_clean_sbu_0, # of connection points: 4
#     Node 7, Type 0, BuildingBlock: TATPOV_clean_sbu_0, # of connection points: 4
#     Node 8, Type 0, BuildingBlock: TATPOV_clean_sbu_0, # of connection points: 4
#     Node 9, Type 0, BuildingBlock: TATPOV_clean_sbu_0, # of connection points: 4
#     Node 10, Type 0, BuildingBlock: TATPOV_clean_sbu_0, # of connection points: 4
#     Node 11, Type 0, BuildingBlock: TATPOV_clean_sbu_0, # of connection points: 4
#     Node 12, Type 0, BuildingBlock: TATPOV_clean_sbu_0, # of connection points: 4
#     Node 13, Type 0, BuildingBlock: TATPOV_clean_sbu_0, # of connection points: 4
#     Node 14, Type 0, BuildingBlock: TATPOV_clean_sbu_0, # of connection points: 4
#     Node 15, Type 0, BuildingBlock: TATPOV_clean_sbu_0, # of connection points: 4
#     Node 16, Type 0, BuildingBlock: TATPOV_clean_sbu_0, # of connection points: 4
#     Node 17, Type 0, BuildingBlock: TATPOV_clean_sbu_0, # of connection points: 4
#     Node 18, Type 0, BuildingBlock: TATPOV_clean_sbu_0, # of connection points: 4
#     Node 19, Type 0, BuildingBlock: TATPOV_clean_sbu_0, # of connection points: 4
#     Node 20, Type 0, BuildingBlock: TATPOV_clean_sbu_0, # of connection points: 4
#     Node 21, Type 0, BuildingBlock: TATPOV_clean_sbu_0, # of connection points: 4
#     Node 22, Type 0, BuildingBlock: TATPOV_clean_sbu_0, # of connection points: 4
#     Node 23, Type 0, BuildingBlock: TATPOV_clean_sbu_0, # of connection points: 4
#     Node 24, Type 0, BuildingBlock: TATPOV_clean_sbu_0, # of connection points: 4
#     Node 25, Type 0, BuildingBlock: TATPOV_clean_sbu_0, # of connection points: 4
#     Node 26, Type 0, BuildingBlock: TATPOV_clean_sbu_0, # of connection points: 4
#     Node 27, Type 0, BuildingBlock: TATPOV_clean_sbu_0, # of connection points: 4
#     Node 28, Type 0, BuildingBlock: TATPOV_clean_sbu_0, # of connection points: 4
#     Node 29, Type 0, BuildingBlock: TATPOV_clean_sbu_0, # of connection points: 4
#     Node 30, Type 0, BuildingBlock: TATPOV_clean_sbu_0, # of connection points: 4
#     Node 31, Type 0, BuildingBlock: TATPOV_clean_sbu_0, # of connection points: 4
#     Node 32, Type 0, BuildingBlock: TATPOV_clean_sbu_0, # of connection points: 4
#     Node 33, Type 0, BuildingBlock: TATPOV_clean_sbu_0, # of connection points: 4
#     Node 34, Type 0, BuildingBlock: TATPOV_clean_sbu_0, # of connection points: 4
#     Node 35, Type 0, BuildingBlock: TATPOV_clean_sbu_0, # of connection points: 4
#     Node 36, Type 0, BuildingBlock: TATPOV_clean_sbu_0, # of connection points: 4
#     Node 37, Type 0, BuildingBlock: TATPOV_clean_sbu_0, # of connection points: 4
#     Node 38, Type 0, BuildingBlock: TATPOV_clean_sbu_0, # of connection points: 4
#     Node 39, Type 0, BuildingBlock: TATPOV_clean_sbu_0, # of connection points: 4
#     Node 40, Type 0, BuildingBlock: TATPOV_clean_sbu_0, # of connection points: 4
#     Node 41, Type 0, BuildingBlock: TATPOV_clean_sbu_0, # of connection points: 4
#     Node 42, Type 0, BuildingBlock: TATPOV_clean_sbu_0, # of connection points: 4
#     Node 43, Type 0, BuildingBlock: TATPOV_clean_sbu_0, # of connection points: 4
#     Node 44, Type 0, BuildingBlock: TATPOV_clean_sbu_0, # of connection points: 4
#     Node 45, Type 0, BuildingBlock: TATPOV_clean_sbu_0, # of connection points: 4
#     Node 46, Type 0, BuildingBlock: TATPOV_clean_sbu_0, # of connection points: 4
#     Node 47, Type 0, BuildingBlock: TATPOV_clean_sbu_0, # of connection points: 4
#     Node 48, Type 0, BuildingBlock: TATPOV_clean_sbu_0, # of connection points: 4
#     Node 49, Type 0, BuildingBlock: TATPOV_clean_sbu_0, # of connection points: 4
#     Node 50, Type 0, BuildingBlock: TATPOV_clean_sbu_0, # of connection points: 4
#     Node 51, Type 0, BuildingBlock: TATPOV_clean_sbu_0, # of connection points: 4
#     Node 52, Type 0, BuildingBlock: TATPOV_clean_sbu_0, # of connection points: 4
#     Node 53, Type 0, BuildingBlock: TATPOV_clean_sbu_0, # of connection points: 4
#     Node 54, Type 0, BuildingBlock: TATPOV_clean_sbu_0, # of connection points: 4
#     Node 55, Type 0, BuildingBlock: TATPOV_clean_sbu_0, # of connection points: 4
#     Node 56, Type 0, BuildingBlock: TATPOV_clean_sbu_0, # of connection points: 4
#     Node 57, Type 0, BuildingBlock: TATPOV_clean_sbu_0, # of connection points: 4
#     Node 58, Type 0, BuildingBlock: TATPOV_clean_sbu_0, # of connection points: 4
#     Node 59, Type 0, BuildingBlock: TATPOV_clean_sbu_0, # of connection points: 4
#     Node 60, Type 0, BuildingBlock: TATPOV_clean_sbu_0, # of connection points: 4
#     Node 61, Type 0, BuildingBlock: TATPOV_clean_sbu_0, # of connection points: 4
#     Node 62, Type 0, BuildingBlock: TATPOV_clean_sbu_0, # of connection points: 4
#     Node 63, Type 0, BuildingBlock: TATPOV_clean_sbu_0, # of connection points: 4
#     Node 64, Type 0, BuildingBlock: TATPOV_clean_sbu_0, # of connection points: 4
#     Node 65, Type 0, BuildingBlock: TATPOV_clean_sbu_0, # of connection points: 4
#     Node 66, Type 0, BuildingBlock: TATPOV_clean_sbu_0, # of connection points: 4
#     Node 67, Type 0, BuildingBlock: TATPOV_clean_sbu_0, # of connection points: 4
#     Node 68, Type 0, BuildingBlock: TATPOV_clean_sbu_0, # of connection points: 4
#     Node 69, Type 0, BuildingBlock: TATPOV_clean_sbu_0, # of connection points: 4
#     Node 70, Type 0, BuildingBlock: TATPOV_clean_sbu_0, # of connection points: 4
#     Node 71, Type 0, BuildingBlock: TATPOV_clean_sbu_0, # of connection points: 4
#     Node 72, Type 0, BuildingBlock: TATPOV_clean_sbu_0, # of connection points: 4
#     Node 73, Type 0, BuildingBlock: TATPOV_clean_sbu_0, # of connection points: 4
#     Node 74, Type 0, BuildingBlock: TATPOV_clean_sbu_0, # of connection points: 4
#     Node 75, Type 0, BuildingBlock: TATPOV_clean_sbu_0, # of connection points: 4
#     Node 76, Type 0, BuildingBlock: TATPOV_clean_sbu_0, # of connection points: 4
#     Node 77, Type 0, BuildingBlock: TATPOV_clean_sbu_0, # of connection points: 4
#     Node 78, Type 0, BuildingBlock: TATPOV_clean_sbu_0, # of connection points: 4
#     Node 79, Type 0, BuildingBlock: TATPOV_clean_sbu_0, # of connection points: 4
#     Node 80, Type 0, BuildingBlock: TATPOV_clean_sbu_0, # of connection points: 4
#     Node 81, Type 0, BuildingBlock: TATPOV_clean_sbu_0, # of connection points: 4
#     Node 82, Type 0, BuildingBlock: TATPOV_clean_sbu_0, # of connection points: 4
#     Node 83, Type 0, BuildingBlock: TATPOV_clean_sbu_0, # of connection points: 4
#     Node 84, Type 0, BuildingBlock: TATPOV_clean_sbu_0, # of connection points: 4
#     Node 85, Type 0, BuildingBlock: TATPOV_clean_sbu_0, # of connection points: 4
#     Node 86, Type 0, BuildingBlock: TATPOV_clean_sbu_0, # of connection points: 4
#     Node 87, Type 0, BuildingBlock: TATPOV_clean_sbu_0, # of connection points: 4
#     Node 88, Type 0, BuildingBlock: TATPOV_clean_sbu_0, # of connection points: 4
#     Node 89, Type 0, BuildingBlock: TATPOV_clean_sbu_0, # of connection points: 4
#     Node 90, Type 0, BuildingBlock: TATPOV_clean_sbu_0, # of connection points: 4
#     Node 91, Type 0, BuildingBlock: TATPOV_clean_sbu_0, # of connection points: 4
#     Node 92, Type 0, BuildingBlock: TATPOV_clean_sbu_0, # of connection points: 4
#     Node 93, Type 0, BuildingBlock: TATPOV_clean_sbu_0, # of connection points: 4
#     Node 94, Type 0, BuildingBlock: TATPOV_clean_sbu_0, # of connection points: 4
#     Node 95, Type 0, BuildingBlock: TATPOV_clean_sbu_0, # of connection points: 4
#     Edge 96, Type (0, 0), BuildingBlock: OJICUG_clean_linker_0, # of connection points: 2
#     Edge 97, Type (0, 0), BuildingBlock: OJICUG_clean_linker_0, # of connection points: 2
#     Edge 98, Type (0, 0), BuildingBlock: OJICUG_clean_linker_0, # of connection points: 2
#     Edge 99, Type (0, 0), BuildingBlock: OJICUG_clean_linker_0, # of connection points: 2
#     Edge 100, Type (0, 0), BuildingBlock: OJICUG_clean_linker_0, # of connection points: 2
#     Edge 101, Type (0, 0), BuildingBlock: OJICUG_clean_linker_0, # of connection points: 2
#     Edge 102, Type (0, 0), BuildingBlock: OJICUG_clean_linker_0, # of connection points: 2
#     Edge 103, Type (0, 0), BuildingBlock: OJICUG_clean_linker_0, # of connection points: 2
#     Edge 104, Type (0, 0), BuildingBlock: OJICUG_clean_linker_0, # of connection points: 2
#     Edge 105, Type (0, 0), BuildingBlock: OJICUG_clean_linker_0, # of connection points: 2
#     Edge 106, Type (0, 0), BuildingBlock: OJICUG_clean_linker_0, # of connection points: 2
#     Edge 107, Type (0, 0), BuildingBlock: OJICUG_clean_linker_0, # of connection points: 2
#     Edge 108, Type (0, 0), BuildingBlock: OJICUG_clean_linker_0, # of connection points: 2
#     Edge 109, Type (0, 0), BuildingBlock: OJICUG_clean_linker_0, # of connection points: 2
#     Edge 110, Type (0, 0), BuildingBlock: OJICUG_clean_linker_0, # of connection points: 2
#     Edge 111, Type (0, 0), BuildingBlock: OJICUG_clean_linker_0, # of connection points: 2
#     Edge 112, Type (0, 0), BuildingBlock: OJICUG_clean_linker_0, # of connection points: 2
#     Edge 113, Type (0, 0), BuildingBlock: OJICUG_clean_linker_0, # of connection points: 2
#     Edge 114, Type (0, 0), BuildingBlock: OJICUG_clean_linker_0, # of connection points: 2
#     Edge 115, Type (0, 0), BuildingBlock: OJICUG_clean_linker_0, # of connection points: 2
#     Edge 116, Type (0, 0), BuildingBlock: OJICUG_clean_linker_0, # of connection points: 2
#     Edge 117, Type (0, 0), BuildingBlock: OJICUG_clean_linker_0, # of connection points: 2
#     Edge 118, Type (0, 0), BuildingBlock: OJICUG_clean_linker_0, # of connection points: 2
#     Edge 119, Type (0, 0), BuildingBlock: OJICUG_clean_linker_0, # of connection points: 2
#     Edge 120, Type (0, 0), BuildingBlock: OJICUG_clean_linker_0, # of connection points: 2
#     Edge 121, Type (0, 0), BuildingBlock: OJICUG_clean_linker_0, # of connection points: 2
#     Edge 122, Type (0, 0), BuildingBlock: OJICUG_clean_linker_0, # of connection points: 2
#     Edge 123, Type (0, 0), BuildingBlock: OJICUG_clean_linker_0, # of connection points: 2
#     Edge 124, Type (0, 0), BuildingBlock: OJICUG_clean_linker_0, # of connection points: 2
#     Edge 125, Type (0, 0), BuildingBlock: OJICUG_clean_linker_0, # of connection points: 2
#     Edge 126, Type (0, 0), BuildingBlock: OJICUG_clean_linker_0, # of connection points: 2
#     Edge 127, Type (0, 0), BuildingBlock: OJICUG_clean_linker_0, # of connection points: 2
#     Edge 128, Type (0, 0), BuildingBlock: OJICUG_clean_linker_0, # of connection points: 2
#     Edge 129, Type (0, 0), BuildingBlock: OJICUG_clean_linker_0, # of connection points: 2
#     Edge 130, Type (0, 0), BuildingBlock: OJICUG_clean_linker_0, # of connection points: 2
#     Edge 131, Type (0, 0), BuildingBlock: OJICUG_clean_linker_0, # of connection points: 2
#     Edge 132, Type (0, 0), BuildingBlock: OJICUG_clean_linker_0, # of connection points: 2
#     Edge 133, Type (0, 0), BuildingBlock: OJICUG_clean_linker_0, # of connection points: 2
#     Edge 134, Type (0, 0), BuildingBlock: OJICUG_clean_linker_0, # of connection points: 2
#     Edge 135, Type (0, 0), BuildingBlock: OJICUG_clean_linker_0, # of connection points: 2
#     Edge 136, Type (0, 0), BuildingBlock: OJICUG_clean_linker_0, # of connection points: 2
#     Edge 137, Type (0, 0), BuildingBlock: OJICUG_clean_linker_0, # of connection points: 2
#     Edge 138, Type (0, 0), BuildingBlock: OJICUG_clean_linker_0, # of connection points: 2
#     Edge 139, Type (0, 0), BuildingBlock: OJICUG_clean_linker_0, # of connection points: 2
#     Edge 140, Type (0, 0), BuildingBlock: OJICUG_clean_linker_0, # of connection points: 2
#     Edge 141, Type (0, 0), BuildingBlock: OJICUG_clean_linker_0, # of connection points: 2
#     Edge 142, Type (0, 0), BuildingBlock: OJICUG_clean_linker_0, # of connection points: 2
#     Edge 143, Type (0, 0), BuildingBlock: OJICUG_clean_linker_0, # of connection points: 2
#     Edge 144, Type (0, 0), BuildingBlock: OJICUG_clean_linker_0, # of connection points: 2
#     Edge 145, Type (0, 0), BuildingBlock: OJICUG_clean_linker_0, # of connection points: 2
#     Edge 146, Type (0, 0), BuildingBlock: OJICUG_clean_linker_0, # of connection points: 2
#     Edge 147, Type (0, 0), BuildingBlock: OJICUG_clean_linker_0, # of connection points: 2
#     Edge 148, Type (0, 0), BuildingBlock: OJICUG_clean_linker_0, # of connection points: 2
#     Edge 149, Type (0, 0), BuildingBlock: OJICUG_clean_linker_0, # of connection points: 2
#     Edge 150, Type (0, 0), BuildingBlock: OJICUG_clean_linker_0, # of connection points: 2
#     Edge 151, Type (0, 0), BuildingBlock: OJICUG_clean_linker_0, # of connection points: 2
#     Edge 152, Type (0, 0), BuildingBlock: OJICUG_clean_linker_0, # of connection points: 2
#     Edge 153, Type (0, 0), BuildingBlock: OJICUG_clean_linker_0, # of connection points: 2
#     Edge 154, Type (0, 0), BuildingBlock: OJICUG_clean_linker_0, # of connection points: 2
#     Edge 155, Type (0, 0), BuildingBlock: OJICUG_clean_linker_0, # of connection points: 2
#     Edge 156, Type (0, 0), BuildingBlock: OJICUG_clean_linker_0, # of connection points: 2
#     Edge 157, Type (0, 0), BuildingBlock: OJICUG_clean_linker_0, # of connection points: 2
#     Edge 158, Type (0, 0), BuildingBlock: OJICUG_clean_linker_0, # of connection points: 2
#     Edge 159, Type (0, 0), BuildingBlock: OJICUG_clean_linker_0, # of connection points: 2
#     Edge 160, Type (0, 0), BuildingBlock: OJICUG_clean_linker_0, # of connection points: 2
#     Edge 161, Type (0, 0), BuildingBlock: OJICUG_clean_linker_0, # of connection points: 2
#     Edge 162, Type (0, 0), BuildingBlock: OJICUG_clean_linker_0, # of connection points: 2
#     Edge 163, Type (0, 0), BuildingBlock: OJICUG_clean_linker_0, # of connection points: 2
#     Edge 164, Type (0, 0), BuildingBlock: OJICUG_clean_linker_0, # of connection points: 2
#     Edge 165, Type (0, 0), BuildingBlock: OJICUG_clean_linker_0, # of connection points: 2
#     Edge 166, Type (0, 0), BuildingBlock: OJICUG_clean_linker_0, # of connection points: 2
#     Edge 167, Type (0, 0), BuildingBlock: OJICUG_clean_linker_0, # of connection points: 2
#     Edge 168, Type (0, 0), BuildingBlock: OJICUG_clean_linker_0, # of connection points: 2
#     Edge 169, Type (0, 0), BuildingBlock: OJICUG_clean_linker_0, # of connection points: 2
#     Edge 170, Type (0, 0), BuildingBlock: OJICUG_clean_linker_0, # of connection points: 2
#     Edge 171, Type (0, 0), BuildingBlock: OJICUG_clean_linker_0, # of connection points: 2
#     Edge 172, Type (0, 0), BuildingBlock: OJICUG_clean_linker_0, # of connection points: 2
#     Edge 173, Type (0, 0), BuildingBlock: OJICUG_clean_linker_0, # of connection points: 2
#     Edge 174, Type (0, 0), BuildingBlock: OJICUG_clean_linker_0, # of connection points: 2
#     Edge 175, Type (0, 0), BuildingBlock: OJICUG_clean_linker_0, # of connection points: 2
#     Edge 176, Type (0, 0), BuildingBlock: OJICUG_clean_linker_0, # of connection points: 2
#     Edge 177, Type (0, 0), BuildingBlock: OJICUG_clean_linker_0, # of connection points: 2
#     Edge 178, Type (0, 0), BuildingBlock: OJICUG_clean_linker_0, # of connection points: 2
#     Edge 179, Type (0, 0), BuildingBlock: OJICUG_clean_linker_0, # of connection points: 2
#     Edge 180, Type (0, 0), BuildingBlock: OJICUG_clean_linker_0, # of connection points: 2
#     Edge 181, Type (0, 0), BuildingBlock: OJICUG_clean_linker_0, # of connection points: 2
#     Edge 182, Type (0, 0), BuildingBlock: OJICUG_clean_linker_0, # of connection points: 2
#     Edge 183, Type (0, 0), BuildingBlock: OJICUG_clean_linker_0, # of connection points: 2
#     Edge 184, Type (0, 0), BuildingBlock: OJICUG_clean_linker_0, # of connection points: 2
#     Edge 185, Type (0, 0), BuildingBlock: OJICUG_clean_linker_0, # of connection points: 2
#     Edge 186, Type (0, 0), BuildingBlock: OJICUG_clean_linker_0, # of connection points: 2
#     Edge 187, Type (0, 0), BuildingBlock: OJICUG_clean_linker_0, # of connection points: 2
#     Edge 188, Type (0, 0), BuildingBlock: OJICUG_clean_linker_0, # of connection points: 2
#     Edge 189, Type (0, 0), BuildingBlock: OJICUG_clean_linker_0, # of connection points: 2
#     Edge 190, Type (0, 0), BuildingBlock: OJICUG_clean_linker_0, # of connection points: 2
#     Edge 191, Type (0, 0), BuildingBlock: OJICUG_clean_linker_0, # of connection points: 2
#     Edge 192, Type (0, 0), BuildingBlock: OJICUG_clean_linker_0, # of connection points: 2
#     Edge 193, Type (0, 0), BuildingBlock: OJICUG_clean_linker_0, # of connection points: 2
#     Edge 194, Type (0, 0), BuildingBlock: OJICUG_clean_linker_0, # of connection points: 2
#     Edge 195, Type (0, 0), BuildingBlock: OJICUG_clean_linker_0, # of connection points: 2
#     Edge 196, Type (0, 0), BuildingBlock: OJICUG_clean_linker_0, # of connection points: 2
#     Edge 197, Type (0, 0), BuildingBlock: OJICUG_clean_linker_0, # of connection points: 2
#     Edge 198, Type (0, 0), BuildingBlock: OJICUG_clean_linker_0, # of connection points: 2
#     Edge 199, Type (0, 0), BuildingBlock: OJICUG_clean_linker_0, # of connection points: 2
#     Edge 200, Type (0, 0), BuildingBlock: OJICUG_clean_linker_0, # of connection points: 2
#     Edge 201, Type (0, 0), BuildingBlock: OJICUG_clean_linker_0, # of connection points: 2
#     Edge 202, Type (0, 0), BuildingBlock: OJICUG_clean_linker_0, # of connection points: 2
#     Edge 203, Type (0, 0), BuildingBlock: OJICUG_clean_linker_0, # of connection points: 2
#     Edge 204, Type (0, 0), BuildingBlock: OJICUG_clean_linker_0, # of connection points: 2
#     Edge 205, Type (0, 0), BuildingBlock: OJICUG_clean_linker_0, # of connection points: 2
#     Edge 206, Type (0, 0), BuildingBlock: OJICUG_clean_linker_0, # of connection points: 2
#     Edge 207, Type (0, 0), BuildingBlock: OJICUG_clean_linker_0, # of connection points: 2
#     Edge 208, Type (0, 0), BuildingBlock: OJICUG_clean_linker_0, # of connection points: 2
#     Edge 209, Type (0, 0), BuildingBlock: OJICUG_clean_linker_0, # of connection points: 2
#     Edge 210, Type (0, 0), BuildingBlock: OJICUG_clean_linker_0, # of connection points: 2
#     Edge 211, Type (0, 0), BuildingBlock: OJICUG_clean_linker_0, # of connection points: 2
#     Edge 212, Type (0, 0), BuildingBlock: OJICUG_clean_linker_0, # of connection points: 2
#     Edge 213, Type (0, 0), BuildingBlock: OJICUG_clean_linker_0, # of connection points: 2
#     Edge 214, Type (0, 0), BuildingBlock: OJICUG_clean_linker_0, # of connection points: 2
#     Edge 215, Type (0, 0), BuildingBlock: OJICUG_clean_linker_0, # of connection points: 2
#     Edge 216, Type (0, 0), BuildingBlock: OJICUG_clean_linker_0, # of connection points: 2
#     Edge 217, Type (0, 0), BuildingBlock: OJICUG_clean_linker_0, # of connection points: 2
#     Edge 218, Type (0, 0), BuildingBlock: OJICUG_clean_linker_0, # of connection points: 2
#     Edge 219, Type (0, 0), BuildingBlock: OJICUG_clean_linker_0, # of connection points: 2
#     Edge 220, Type (0, 0), BuildingBlock: OJICUG_clean_linker_0, # of connection points: 2
#     Edge 221, Type (0, 0), BuildingBlock: OJICUG_clean_linker_0, # of connection points: 2
#     Edge 222, Type (0, 0), BuildingBlock: OJICUG_clean_linker_0, # of connection points: 2
#     Edge 223, Type (0, 0), BuildingBlock: OJICUG_clean_linker_0, # of connection points: 2
#     Edge 224, Type (0, 0), BuildingBlock: OJICUG_clean_linker_0, # of connection points: 2
#     Edge 225, Type (0, 0), BuildingBlock: OJICUG_clean_linker_0, # of connection points: 2
#     Edge 226, Type (0, 0), BuildingBlock: OJICUG_clean_linker_0, # of connection points: 2
#     Edge 227, Type (0, 0), BuildingBlock: OJICUG_clean_linker_0, # of connection points: 2
#     Edge 228, Type (0, 0), BuildingBlock: OJICUG_clean_linker_0, # of connection points: 2
#     Edge 229, Type (0, 0), BuildingBlock: OJICUG_clean_linker_0, # of connection points: 2
#     Edge 230, Type (0, 0), BuildingBlock: OJICUG_clean_linker_0, # of connection points: 2
#     Edge 231, Type (0, 0), BuildingBlock: OJICUG_clean_linker_0, # of connection points: 2
#     Edge 232, Type (0, 0), BuildingBlock: OJICUG_clean_linker_0, # of connection points: 2
#     Edge 233, Type (0, 0), BuildingBlock: OJICUG_clean_linker_0, # of connection points: 2
#     Edge 234, Type (0, 0), BuildingBlock: OJICUG_clean_linker_0, # of connection points: 2
#     Edge 235, Type (0, 0), BuildingBlock: OJICUG_clean_linker_0, # of connection points: 2
#     Edge 236, Type (0, 0), BuildingBlock: OJICUG_clean_linker_0, # of connection points: 2
#     Edge 237, Type (0, 0), BuildingBlock: OJICUG_clean_linker_0, # of connection points: 2
#     Edge 238, Type (0, 0), BuildingBlock: OJICUG_clean_linker_0, # of connection points: 2
#     Edge 239, Type (0, 0), BuildingBlock: OJICUG_clean_linker_0, # of connection points: 2
#     Edge 240, Type (0, 0), BuildingBlock: OJICUG_clean_linker_0, # of connection points: 2
#     Edge 241, Type (0, 0), BuildingBlock: OJICUG_clean_linker_0, # of connection points: 2
#     Edge 242, Type (0, 0), BuildingBlock: OJICUG_clean_linker_0, # of connection points: 2
#     Edge 243, Type (0, 0), BuildingBlock: OJICUG_clean_linker_0, # of connection points: 2
#     Edge 244, Type (0, 0), BuildingBlock: OJICUG_clean_linker_0, # of connection points: 2
#     Edge 245, Type (0, 0), BuildingBlock: OJICUG_clean_linker_0, # of connection points: 2
#     Edge 246, Type (0, 0), BuildingBlock: OJICUG_clean_linker_0, # of connection points: 2
#     Edge 247, Type (0, 0), BuildingBlock: OJICUG_clean_linker_0, # of connection points: 2
#     Edge 248, Type (0, 0), BuildingBlock: OJICUG_clean_linker_0, # of connection points: 2
#     Edge 249, Type (0, 0), BuildingBlock: OJICUG_clean_linker_0, # of connection points: 2
#     Edge 250, Type (0, 0), BuildingBlock: OJICUG_clean_linker_0, # of connection points: 2
#     Edge 251, Type (0, 0), BuildingBlock: OJICUG_clean_linker_0, # of connection points: 2
#     Edge 252, Type (0, 0), BuildingBlock: OJICUG_clean_linker_0, # of connection points: 2
#     Edge 253, Type (0, 0), BuildingBlock: OJICUG_clean_linker_0, # of connection points: 2
#     Edge 254, Type (0, 0), BuildingBlock: OJICUG_clean_linker_0, # of connection points: 2
#     Edge 255, Type (0, 0), BuildingBlock: OJICUG_clean_linker_0, # of connection points: 2
#     Edge 256, Type (0, 0), BuildingBlock: OJICUG_clean_linker_0, # of connection points: 2
#     Edge 257, Type (0, 0), BuildingBlock: OJICUG_clean_linker_0, # of connection points: 2
#     Edge 258, Type (0, 0), BuildingBlock: OJICUG_clean_linker_0, # of connection points: 2
#     Edge 259, Type (0, 0), BuildingBlock: OJICUG_clean_linker_0, # of connection points: 2
#     Edge 260, Type (0, 0), BuildingBlock: OJICUG_clean_linker_0, # of connection points: 2
#     Edge 261, Type (0, 0), BuildingBlock: OJICUG_clean_linker_0, # of connection points: 2
#     Edge 262, Type (0, 0), BuildingBlock: OJICUG_clean_linker_0, # of connection points: 2
#     Edge 263, Type (0, 0), BuildingBlock: OJICUG_clean_linker_0, # of connection points: 2
#     Edge 264, Type (0, 0), BuildingBlock: OJICUG_clean_linker_0, # of connection points: 2
#     Edge 265, Type (0, 0), BuildingBlock: OJICUG_clean_linker_0, # of connection points: 2
#     Edge 266, Type (0, 0), BuildingBlock: OJICUG_clean_linker_0, # of connection points: 2
#     Edge 267, Type (0, 0), BuildingBlock: OJICUG_clean_linker_0, # of connection points: 2
#     Edge 268, Type (0, 0), BuildingBlock: OJICUG_clean_linker_0, # of connection points: 2
#     Edge 269, Type (0, 0), BuildingBlock: OJICUG_clean_linker_0, # of connection points: 2
#     Edge 270, Type (0, 0), BuildingBlock: OJICUG_clean_linker_0, # of connection points: 2
#     Edge 271, Type (0, 0), BuildingBlock: OJICUG_clean_linker_0, # of connection points: 2
#     Edge 272, Type (0, 0), BuildingBlock: OJICUG_clean_linker_0, # of connection points: 2
#     Edge 273, Type (0, 0), BuildingBlock: OJICUG_clean_linker_0, # of connection points: 2
#     Edge 274, Type (0, 0), BuildingBlock: OJICUG_clean_linker_0, # of connection points: 2
#     Edge 275, Type (0, 0), BuildingBlock: OJICUG_clean_linker_0, # of connection points: 2
#     Edge 276, Type (0, 0), BuildingBlock: OJICUG_clean_linker_0, # of connection points: 2
#     Edge 277, Type (0, 0), BuildingBlock: OJICUG_clean_linker_0, # of connection points: 2
#     Edge 278, Type (0, 0), BuildingBlock: OJICUG_clean_linker_0, # of connection points: 2
#     Edge 279, Type (0, 0), BuildingBlock: OJICUG_clean_linker_0, # of connection points: 2
#     Edge 280, Type (0, 0), BuildingBlock: OJICUG_clean_linker_0, # of connection points: 2
#     Edge 281, Type (0, 0), BuildingBlock: OJICUG_clean_linker_0, # of connection points: 2
#     Edge 282, Type (0, 0), BuildingBlock: OJICUG_clean_linker_0, # of connection points: 2
#     Edge 283, Type (0, 0), BuildingBlock: OJICUG_clean_linker_0, # of connection points: 2
#     Edge 284, Type (0, 0), BuildingBlock: OJICUG_clean_linker_0, # of connection points: 2
#     Edge 285, Type (0, 0), BuildingBlock: OJICUG_clean_linker_0, # of connection points: 2
#     Edge 286, Type (0, 0), BuildingBlock: OJICUG_clean_linker_0, # of connection points: 2
#     Edge 287, Type (0, 0), BuildingBlock: OJICUG_clean_linker_0, # of connection points: 2
# Relax obj value: 0.323
# Max RMSD: 0.255
# Mean RMSD: 0.255
data_MOF--net-ukx--node1-TATPOV_clean_sbu_0--edge1-OJICUG_clean_linker_0
_symmetry_space_group_name_H-M    P1
_symmetry_Int_Tables_number       1
_symmetry_cell_setting            triclinic
loop_
_symmetry_equiv_pos_as_xyz
'x, y, z'
_cell_length_a     56.633633
_cell_length_b     56.695086
_cell_length_c     56.694399
_cell_angle_alpha  89.952537
_cell_angle_beta   90.018612
_cell_angle_gamma 89.996025
loop_
_atom_site_label
_atom_site_type_symbol
_atom_site_fract_x
_atom_site_fract_y
_atom_site_fract_z
_atom_type_partial_charge
Zn0 Zn 0.05045 0.20852 0.29461 0.0
Zn1 Zn 0.07248 0.17084 0.30985 0.0
O2 O 0.05824 0.16066 0.27851 0.0
O3 O 0.03858 0.19132 0.26537 0.0
O4 O 0.09482 0.14514 0.31821 0.0
O5 O 0.07854 0.23066 0.29577 0.0
O6 O 0.09215 0.20046 0.31556 0.0
C7 C 0.04462 0.1699 0.26325 0.0
C8 C 0.03406 0.18725 0.34003 0.0
O9 O 0.04774 0.17008 0.33553 0.0
O10 O 0.03292 0.20487 0.32621 0.0
C11 C 0.08828 0.12391 0.32103 0.0
O12 O 0.06605 0.11829 0.3175 0.0
C13 C 0.09357 0.22216 0.30998 0.0
Zn14 Zn 0.0754 0.75051 0.57191 0.0
Zn15 Zn 0.08767 0.79371 0.5774 0.0
O16 O 0.10009 0.78379 0.54446 0.0
O17 O 0.08243 0.75011 0.53721 0.0
O18 O 0.09459 0.82811 0.57945 0.0
O19 O 0.04277 0.75658 0.58464 0.0
O20 O 0.05241 0.79403 0.58577 0.0
C21 C 0.0957 0.76674 0.53049 0.0
C22 C 0.10971 0.75734 0.60917 0.0
O23 O 0.10571 0.77905 0.60501 0.0
O24 O 0.10074 0.74169 0.59593 0.0
C25 C 0.10988 0.83955 0.56773 0.0
O26 O 0.12369 0.8284 0.55284 0.0
C27 C 0.03743 0.77771 0.58945 0.0
Zn28 Zn 0.44084 0.79417 0.78212 0.0
Zn29 Zn 0.42604 0.83178 0.80559 0.0
O30 O 0.43786 0.84431 0.77422 0.0
O31 O 0.44996 0.814 0.75346 0.0
O32 O 0.40904 0.85915 0.81941 0.0
O33 O 0.41028 0.77568 0.78601 0.0
O34 O 0.40213 0.80533 0.80933 0.0
C35 C 0.44717 0.83608 0.75557 0.0
C36 C 0.46586 0.80636 0.82712 0.0
O37 O 0.45302 0.82474 0.82787 0.0
O38 O 0.46371 0.79179 0.81022 0.0
C39 C 0.38967 0.86555 0.8101 0.0
O40 O 0.38198 0.85449 0.79125 0.0
C41 C 0.39734 0.78474 0.80182 0.0
Zn42 Zn 0.4339 0.21557 0.05342 0.0
Zn43 Zn 0.40366 0.18284 0.06497 0.0
O44 O 0.39237 0.19757 0.0338 0.0
O45 O 0.42024 0.22121 0.02105 0.0
O46 O 0.38366 0.15412 0.0679 0.0
O47 O 0.46284 0.19546 0.05955 0.0
O48 O 0.43659 0.16973 0.07154 0.0
C49 C 0.40018 0.21179 0.01826 0.0
C50 C 0.40434 0.22412 0.09621 0.0
O51 O 0.39573 0.2037 0.09283 0.0
O52 O 0.41942 0.23269 0.08199 0.0
C53 C 0.39004 0.13535 0.05744 0.0
O54 O 0.40924 0.13551 0.04444 0.0
C55 C 0.45804 0.17598 0.06937 0.0
Zn56 Zn 0.05352 0.79014 0.20958 0.0
Zn57 Zn 0.06976 0.82758 0.18662 0.0
O58 O 0.05876 0.84019 0.21821 0.0
O59 O 0.04537 0.81004 0.23847 0.0
O60 O 0.08743 0.85448 0.17282 0.0
O61 O 0.08351 0.77078 0.20539 0.0
O62 O 0.09292 0.80056 0.18266 0.0
C63 C 0.04918 0.83201 0.23677 0.0
C64 C 0.02897 0.80388 0.16476 0.0
O65 O 0.0425 0.82177 0.1643 0.0
O66 O 0.03055 0.78898 0.18146 0.0
C67 C 0.10788 0.85936 0.18061 0.0
O68 O 0.11656 0.84704 0.19823 0.0
C69 C 0.09696 0.77972 0.18993 0.0
Zn70 Zn 0.42303 0.75091 0.42477 0.0
Zn71 Zn 0.40786 0.7934 0.41847 0.0
O72 O 0.39547 0.78274 0.45105 0.0
O73 O 0.41456 0.75006 0.45922 0.0
O74 O 0.39862 0.82719 0.41678 0.0
O75 O 0.45569 0.75939 0.41328 0.0
O76 O 0.44311 0.79589 0.41059 0.0
C77 C 0.40021 0.76602 0.4653 0.0
C78 C 0.38866 0.75588 0.38668 0.0
O79 O 0.39097 0.77782 0.39076 0.0
O80 O 0.39888 0.74093 0.39987 0.0
C81 C 0.38126 0.83651 0.42741 0.0
O82 O 0.36725 0.82333 0.44035 0.0
C83 C 0.45948 0.78075 0.40797 0.0
Zn84 Zn 0.4481 0.20721 0.69018 0.0
Zn85 Zn 0.42325 0.17094 0.67729 0.0
O86 O 0.4398 0.16054 0.70757 0.0
O87 O 0.46112 0.19066 0.71922 0.0
O88 O 0.39774 0.14732 0.67271 0.0
O89 O 0.42196 0.23159 0.69033 0.0
O90 O 0.40579 0.20199 0.67168 0.0
C91 C 0.45457 0.16947 0.72192 0.0
C92 C 0.45984 0.18385 0.64396 0.0
O93 O 0.4455 0.16753 0.64955 0.0
O94 O 0.46297 0.20143 0.65752 0.0
C95 C 0.40154 0.12536 0.67082 0.0
O96 O 0.42328 0.11738 0.67223 0.0
C97 C 0.40593 0.22383 0.67684 0.0
Zn98 Zn 0.0556 0.23688 0.91762 0.0
Zn99 Zn 0.07423 0.19552 0.91355 0.0
O100 O 0.08576 0.20863 0.94567 0.0
O101 O 0.06425 0.24027 0.95173 0.0
O102 O 0.08568 0.16244 0.91351 0.0
O103 O 0.02333 0.22554 0.90781 0.0
O104 O 0.03925 0.19035 0.90543 0.0
C105 C 0.07973 0.22584 0.95882 0.0
C106 C 0.09136 0.23256 0.88028 0.0
O107 O 0.09091 0.21075 0.88549 0.0
O108 O 0.0791 0.24715 0.89205 0.0
C109 C 0.10688 0.15661 0.91772 0.0
O110 O 0.12244 0.17302 0.92282 0.0
C111 C 0.02141 0.2038 0.90312 0.0
Zn112 Zn 0.30053 0.01644 0.17432 0.0
Zn113 Zn 0.32089 0.03522 0.1359 0.0
O114 O 0.28618 0.03046 0.12743 0.0
O115 O 0.26803 0.01734 0.15902 0.0
O116 O 0.33207 0.05478 0.10907 0.0
O117 O 0.31316 0.04317 0.19501 0.0
O118 O 0.33065 0.05622 0.16302 0.0
C119 C 0.26732 0.02384 0.13766 0.0
C120 C 0.33909 0.9886 0.15193 0.0
O121 O 0.34097 0.00561 0.13741 0.0
O122 O 0.32321 0.9888 0.16776 0.0
C123 C 0.34929 0.0514 0.09519 0.0
O124 O 0.36168 0.03188 0.0968 0.0
C125 C 0.32706 0.05761 0.18508 0.0
Zn126 Zn 0.19654 0.0463 0.45527 0.0
Zn127 Zn 0.18325 0.06528 0.41484 0.0
O128 O 0.19378 0.03206 0.40618 0.0
O129 O 0.20599 0.01572 0.43911 0.0
O130 O 0.16772 0.07713 0.38569 0.0
O131 O 0.16531 0.05174 0.47185 0.0
O132 O 0.15876 0.07279 0.44012 0.0
C133 C 0.20291 0.01465 0.41701 0.0
C134 C 0.22243 0.08921 0.4391 0.0
O135 O 0.21082 0.08734 0.42 0.0
O136 O 0.21918 0.07461 0.4558 0.0
C137 C 0.14914 0.06717 0.37809 0.0
O138 O 0.14114 0.04834 0.389 0.0
C139 C 0.15317 0.06714 0.46113 0.0
Zn140 Zn 0.17922 0.98579 0.65947 0.0
Zn141 Zn 0.15989 0.96301 0.62339 0.0
O142 O 0.19435 0.96921 0.61382 0.0
O143 O 0.21169 0.98482 0.64474 0.0
O144 O 0.149 0.94094 0.59837 0.0
O145 O 0.16833 0.96116 0.68328 0.0
O146 O 0.15109 0.9442 0.65303 0.0
C147 C 0.21279 0.9774 0.62371 0.0
C148 C 0.14038 0.01039 0.63395 0.0
O149 O 0.13889 0.99186 0.62142 0.0
O150 O 0.156 0.01204 0.64996 0.0
C151 C 0.12784 0.93371 0.59932 0.0
O152 O 0.11342 0.94325 0.61476 0.0
C153 C 0.1551 0.94513 0.67509 0.0
Zn154 Zn 0.29255 0.95178 0.9523 0.0
Zn155 Zn 0.31463 0.93666 0.91385 0.0
O156 O 0.29991 0.96761 0.90315 0.0
O157 O 0.28066 0.98049 0.93421 0.0
O158 O 0.33549 0.92729 0.8873 0.0
O159 O 0.32216 0.95187 0.9725 0.0
O160 O 0.33744 0.93446 0.94161 0.0
C161 C 0.28641 0.98277 0.91272 0.0
C162 C 0.27632 0.90605 0.9326 0.0
O163 O 0.29043 0.91022 0.91569 0.0
O164 O 0.27469 0.92021 0.94987 0.0
C165 C 0.32799 0.92196 0.8669 0.0
O166 O 0.3053 0.92352 0.86231 0.0
C167 C 0.33906 0.94066 0.96313 0.0
Zn168 Zn 0.30312 0.96873 0.32513 0.0
Zn169 Zn 0.32186 0.95011 0.36431 0.0
O170 O 0.28749 0.95747 0.37267 0.0
O171 O 0.27079 0.97075 0.3403 0.0
O172 O 0.33303 0.93172 0.39201 0.0
O173 O 0.31354 0.94045 0.30552 0.0
O174 O 0.33033 0.92738 0.3379 0.0
C175 C 0.26934 0.9652 0.36189 0.0
C176 C 0.34296 0.99496 0.34668 0.0
O177 O 0.34344 0.97848 0.36187 0.0
O178 O 0.32747 0.99512 0.33047 0.0
C179 C 0.35493 0.92719 0.39303 0.0
O180 O 0.36917 0.93734 0.3778 0.0
C181 C 0.32647 0.92545 0.31591 0.0
Zn182 Zn 0.29575 0.0537 0.53304 0.0
Zn183 Zn 0.3157 0.06455 0.5736 0.0
O184 O 0.29877 0.03367 0.58054 0.0
O185 O 0.28024 0.02475 0.54772 0.0
O186 O 0.33587 0.06954 0.60191 0.0
O187 O 0.32645 0.05275 0.51462 0.0
O188 O 0.33988 0.0686 0.54715 0.0
C189 C 0.28477 0.02033 0.56917 0.0
C190 C 0.28095 0.09895 0.55506 0.0
O191 O 0.29288 0.09232 0.57287 0.0
O192 O 0.28025 0.08641 0.53652 0.0
C193 C 0.32843 0.07832 0.62109 0.0
O194 O 0.30599 0.08378 0.6232 0.0
C195 C 0.34276 0.06351 0.52548 0.0
Zn196 Zn 0.18206 0.00999 0.82221 0.0
Zn197 Zn 0.16467 0.03905 0.85314 0.0
O198 O 0.1991 0.03263 0.86283 0.0
O199 O 0.21561 0.01335 0.83365 0.0
O200 O 0.15527 0.06335 0.8767 0.0
O201 O 0.16797 0.02955 0.79585 0.0
O202 O 0.1563 0.05558 0.82206 0.0
C203 C 0.21728 0.02318 0.8536 0.0
C204 C 0.14371 0.9904 0.84968 0.0
O205 O 0.14205 0.01135 0.85748 0.0
O206 O 0.16064 0.98476 0.83617 0.0
C207 C 0.1343 0.06558 0.88421 0.0
O208 O 0.11807 0.05056 0.87727 0.0
C209 C 0.15738 0.04861 0.80076 0.0
Zn210 Zn 0.19057 0.95791 0.03651 0.0
Zn211 Zn 0.17561 0.93606 0.07495 0.0
O212 O 0.18765 0.96759 0.08683 0.0
O213 O 0.20042 0.98674 0.05569 0.0
O214 O 0.15781 0.92304 0.1021 0.0
O215 O 0.15992 0.95431 0.01808 0.0
O216 O 0.15191 0.93186 0.04844 0.0
C217 C 0.19748 0.98563 0.07783 0.0
C218 C 0.21484 0.91296 0.05028 0.0
O219 O 0.20239 0.91326 0.06893 0.0
O220 O 0.21264 0.92917 0.03493 0.0
C221 C 0.16676 0.91669 0.1216 0.0
O222 O 0.18961 0.91879 0.12499 0.0
C223 C 0.14696 0.93883 0.02769 0.0
Zn224 Zn 0.16168 0.32232 0.00055 0.0
Zn225 Zn 0.14395 0.32845 0.04081 0.0
O226 O 0.13266 0.29585 0.02846 0.0
O227 O 0.15571 0.28756 -0.00145 0.0
O228 O 0.13082 0.32927 0.07337 0.0
O229 O 0.19283 0.33575 0.01071 0.0
O230 O 0.17886 0.3367 0.04679 0.0
C231 C 0.13946 0.28148 0.01256 0.0
C232 C 0.1274 0.35984 0.00162 0.0
O233 O 0.12886 0.35648 0.02378 0.0
O234 O 0.13765 0.34574 0.98761 0.0
C235 C 0.1093 0.32482 0.07769 0.0
O236 O 0.09494 0.31984 0.06018 0.0
C237 C 0.19556 0.34069 0.03231 0.0
Zn238 Zn 0.66505 0.16911 0.99564 0.0
Zn239 Zn 0.64494 0.15907 0.95652 0.0
O240 O 0.63362 0.19241 0.96556 0.0
O241 O 0.65696 0.20374 0.99427 0.0
O242 O 0.6314 0.15598 0.92443 0.0
O243 O 0.69606 0.15574 0.98406 0.0
O244 O 0.67958 0.15169 0.94926 0.0
C245 C 0.64054 0.20829 0.97984 0.0
C246 C 0.63176 0.1304 -0.00098 0.0
O247 O 0.63143 0.1322 0.97662 0.0
O248 O 0.64265 0.14568 0.01123 0.0
C249 C 0.60981 0.1531 0.9193 0.0
O250 O 0.59413 0.15068 0.9362 0.0
C251 C 0.69742 0.14943 0.96268 0.0
Zn252 Zn 0.05874 0.40695 0.2368 0.0
Zn253 Zn 0.07922 0.37274 0.21239 0.0
O254 O 0.045 0.36208 0.21901 0.0
O255 O 0.02637 0.39194 0.23511 0.0
O256 O 0.08992 0.35031 0.18737 0.0
O257 O 0.06928 0.43287 0.21417 0.0
O258 O 0.08777 0.40392 0.19636 0.0
C259 C 0.02611 0.37106 0.22723 0.0
C260 C 0.09857 0.38073 0.25992 0.0
O261 O 0.10063 0.3692 0.24078 0.0
O262 O 0.08236 0.39609 0.26224 0.0
C263 C 0.07571 0.34787 0.17017 0.0
O264 O 0.05489 0.35803 0.17126 0.0
C265 C 0.08335 0.42582 0.19832 0.0
Zn266 Zn 0.82509 0.81625 0.48988 0.0
Zn267 Zn 0.84739 0.82585 0.45174 0.0
O268 O 0.85855 0.793 0.46283 0.0
O269 O 0.83381 0.78187 0.49041 0.0
O270 O 0.8634 0.82876 0.42071 0.0
O271 O 0.79441 0.82817 0.47626 0.0
O272 O 0.81305 0.83333 0.44273 0.0
C273 C 0.85131 0.77741 0.47732 0.0
C274 C 0.85868 0.85497 0.4942 0.0
O275 O 0.86019 0.85284 0.47192 0.0
O276 O 0.84648 0.84038 0.50602 0.0
C277 C 0.88481 0.83493 0.41854 0.0
O278 O 0.89729 0.83989 0.43743 0.0
C279 C 0.79424 0.83481 0.45493 0.0
Zn280 Zn 0.93641 0.08347 0.24336 0.0
Zn281 Zn 0.92394 0.10536 0.20559 0.0
O282 O 0.95753 0.11703 0.21349 0.0
O283 O 0.97062 0.093 0.24086 0.0
O284 O 0.91845 0.12079 0.17452 0.0
O285 O 0.92361 0.05266 0.2307 0.0
O286 O 0.91678 0.07086 0.1972 0.0
C287 C 0.97417 0.11004 0.22688 0.0
C288 C 0.89693 0.11514 0.25024 0.0
O289 O 0.89798 0.11691 0.22787 0.0
O290 O 0.9129 0.10394 0.26126 0.0
C291 C 0.90674 0.13952 0.17098 0.0
O292 O 0.89689 0.15046 0.18887 0.0
C293 C 0.91589 0.05226 0.20974 0.0
Zn294 Zn 0.3087 0.68319 0.51932 0.0
Zn295 Zn 0.33083 0.67794 0.55846 0.0
O296 O 0.34292 0.70851 0.54269 0.0
O297 O 0.31884 0.71663 0.51351 0.0
O298 O 0.34625 0.67891 0.5899 0.0
O299 O 0.27725 0.67484 0.53364 0.0
O300 O 0.29634 0.67097 0.56708 0.0
C301 C 0.33655 0.72208 0.52594 0.0
C302 C 0.34203 0.64332 0.52096 0.0
O303 O 0.3441 0.6486 0.54264 0.0
O304 O 0.3294 0.65597 0.50742 0.0
C305 C 0.36837 0.68188 0.59177 0.0
O306 O 0.38117 0.68446 0.57261 0.0
C307 C 0.27729 0.66935 0.55528 0.0
Zn308 Zn 0.0521 0.57718 0.26092 0.0
Zn309 Zn 0.06966 0.6058 0.29207 0.0
O310 O 0.03594 0.61739 0.28519 0.0
O311 O 0.01887 0.58945 0.2646 0.0
O312 O 0.07938 0.62735 0.31808 0.0
O313 O 0.06524 0.54924 0.27891 0.0
O314 O 0.07626 0.57355 0.30698 0.0
C315 C 0.01766 0.60911 0.27508 0.0
C316 C 0.09177 0.60426 0.2438 0.0
O317 O 0.09325 0.61058 0.26528 0.0
O318 O 0.07434 0.59201 0.23692 0.0
C319 C 0.09477 0.64356 0.31683 0.0
O320 O 0.10572 0.64753 0.2968 0.0
C321 C 0.07516 0.55276 0.29862 0.0
Zn322 Zn 0.44239 0.42479 0.77203 0.0
Zn323 Zn 0.42594 0.38895 0.79773 0.0
O324 O 0.45924 0.37971 0.78748 0.0
O325 O 0.47497 0.41006 0.7693 0.0
O326 O 0.41842 0.36396 0.8212 0.0
O327 O 0.43333 0.44854 0.79751 0.0
O328 O 0.41893 0.4183 0.81695 0.0
C329 C 0.47669 0.38915 0.77699 0.0
C330 C 0.40054 0.39955 0.75303 0.0
O331 O 0.40134 0.3873 0.77179 0.0
O332 O 0.41611 0.41515 0.74889 0.0
C333 C 0.40076 0.35025 0.8204 0.0
O334 O 0.3864 0.35113 0.80223 0.0
C335 C 0.42196 0.44042 0.81497 0.0
Zn336 Zn 0.94776 0.77691 0.70716 0.0
Zn337 Zn 0.92963 0.8154 0.68802 0.0
O338 O 0.94344 0.82657 0.71919 0.0
O339 O 0.9593 0.79531 0.73573 0.0
O340 O 0.90852 0.84144 0.67755 0.0
O341 O 0.91804 0.75685 0.70573 0.0
O342 O 0.90798 0.78717 0.68412 0.0
C343 C 0.95521 0.81729 0.7359 0.0
C344 C 0.96796 0.79375 0.66114 0.0
O345 O 0.95519 0.81209 0.66327 0.0
O346 O 0.9672 0.7775 0.67658 0.0
C347 C 0.91377 0.86314 0.67607 0.0
O348 O 0.93519 0.87017 0.68156 0.0
C349 C 0.9042 0.76609 0.69079 0.0
Zn350 Zn 0.92891 0.22588 0.42861 0.0
Zn351 Zn 0.9165 0.18278 0.42613 0.0
O352 O 0.90333 0.19539 0.45808 0.0
O353 O 0.9216 0.2292 0.4629 0.0
O354 O 0.90791 0.1487 0.42559 0.0
O355 O 0.96173 0.21894 0.41743 0.0
O356 O 0.95196 0.1815 0.41804 0.0
C357 C 0.90785 0.21347 0.47069 0.0
C358 C 0.89511 0.21691 0.39152 0.0
O359 O 0.89905 0.19559 0.39727 0.0
O360 O 0.90408 0.23348 0.40359 0.0
C361 C 0.88757 0.14136 0.43143 0.0
O362 O 0.87211 0.15643 0.43986 0.0
C363 C 0.9671 0.19758 0.41386 0.0
Zn364 Zn 0.52769 0.19285 0.18769 0.0
Zn365 Zn 0.5613 0.16365 0.17636 0.0
O366 O 0.54789 0.1524 0.20826 0.0
O367 O 0.52369 0.18001 0.22047 0.0
O368 O 0.58895 0.14257 0.1716 0.0
O369 O 0.54758 0.22147 0.18036 0.0
O370 O 0.57539 0.19637 0.17058 0.0
C371 C 0.53385 0.16043 0.22384 0.0
C372 C 0.51869 0.16361 0.14573 0.0
O373 O 0.53967 0.15629 0.14874 0.0
O374 O 0.50944 0.17791 0.16026 0.0
C375 C 0.58765 0.12049 0.17505 0.0
O376 O 0.56758 0.11124 0.1821 0.0
C377 C 0.56787 0.21749 0.17191 0.0
Zn378 Zn 0.57314 0.75715 0.91622 0.0
Zn379 Zn 0.58523 0.79954 0.91232 0.0
O380 O 0.59787 0.78808 0.94488 0.0
O381 O 0.57747 0.75583 0.95132 0.0
O382 O 0.59287 0.83379 0.91048 0.0
O383 O 0.54175 0.76315 0.90078 0.0
O384 O 0.54989 0.80082 0.90391 0.0
C385 C 0.59209 0.77108 0.95846 0.0
C386 C 0.60817 0.76376 0.88062 0.0
O387 O 0.60293 0.78528 0.88423 0.0
O388 O 0.60007 0.74801 0.8943 0.0
C389 C 0.60803 0.84556 0.92201 0.0
O390 O 0.62143 0.83491 0.93765 0.0
C391 C 0.53589 0.78445 0.89761 0.0
Zn392 Zn 0.93692 0.20935 0.78717 0.0
Zn393 Zn 0.91578 0.17053 0.80068 0.0
O394 O 0.93134 0.16082 0.76968 0.0
O395 O 0.9507 0.19257 0.75875 0.0
O396 O 0.89395 0.14425 0.80876 0.0
O397 O 0.9077 0.22987 0.78605 0.0
O398 O 0.89392 0.19896 0.80455 0.0
C399 C 0.94544 0.17109 0.75553 0.0
C400 C 0.95259 0.18859 0.83269 0.0
O401 O 0.93977 0.171 0.82731 0.0
O402 O 0.95341 0.20661 0.8194 0.0
C403 C 0.90025 0.12302 0.81198 0.0
O404 O 0.92249 0.11714 0.80895 0.0
C405 C 0.89175 0.2205 0.79857 0.0
Zn406 Zn 0.56274 0.22419 0.55639 0.0
Zn407 Zn 0.57885 0.18327 0.56543 0.0
O408 O 0.59501 0.19458 0.53438 0.0
O409 O 0.57433 0.22532 0.52314 0.0
O410 O 0.59012 0.15025 0.5702 0.0
O411 O 0.52946 0.21528 0.56435 0.0
O412 O 0.54294 0.1794 0.56968 0.0
C413 C 0.59078 0.21077 0.51931 0.0
C414 C 0.59244 0.22245 0.59806 0.0
O415 O 0.59141 0.20034 0.5945 0.0
O416 O 0.58334 0.2366 0.58328 0.0
C417 C 0.61089 0.14334 0.56546 0.0
O418 O 0.62587 0.15816 0.55579 0.0
C419 C 0.52588 0.19403 0.57017 0.0
Zn420 Zn 0.54749 0.78023 0.29036 0.0
Zn421 Zn 0.56534 0.81925 0.30772 0.0
O422 O 0.55069 0.82939 0.27638 0.0
O423 O 0.53501 0.7973 0.2614 0.0
O424 O 0.58688 0.84551 0.31687 0.0
O425 O 0.57712 0.76016 0.29143 0.0
O426 O 0.58683 0.79085 0.3126 0.0
C427 C 0.53871 0.81932 0.26028 0.0
C428 C 0.52806 0.79831 0.33625 0.0
O429 O 0.54022 0.8169 0.33304 0.0
O430 O 0.52893 0.78145 0.32151 0.0
C431 C 0.58111 0.86671 0.32104 0.0
O432 O 0.55889 0.87312 0.31917 0.0
C433 C 0.59073 0.76964 0.3064 0.0
Zn434 Zn 0.92268 0.75772 0.07297 0.0
Zn435 Zn 0.91139 0.80025 0.076 0.0
O436 O 0.89935 0.78857 0.0432 0.0
O437 O 0.91913 0.75576 0.03783 0.0
O438 O 0.90392 0.83457 0.07732 0.0
O439 O 0.9538 0.76333 0.08903 0.0
O440 O 0.94651 0.80114 0.08559 0.0
C441 C 0.90501 0.77119 0.03006 0.0
C442 C 0.88715 0.7652 0.10775 0.0
O443 O 0.89277 0.78657 0.10381 0.0
O444 O 0.89524 0.74911 0.0945 0.0
C445 C 0.88547 0.84464 0.06961 0.0
O446 O 0.86939 0.8321 0.05858 0.0
C447 C 0.95998 0.7845 0.09239 0.0
Zn448 Zn 0.69283 0.95337 0.80359 0.0
Zn449 Zn 0.67005 0.94627 0.84442 0.0
O450 O 0.70372 0.95404 0.85411 0.0
O451 O 0.72306 0.96174 0.82142 0.0
O452 O 0.65602 0.93463 0.87448 0.0
O453 O 0.68585 0.92026 0.79164 0.0
O454 O 0.66331 0.91823 0.82299 0.0
C455 C 0.72266 0.96008 0.84371 0.0
C456 C 0.65067 0.98365 0.8132 0.0
O457 O 0.65033 0.97431 0.83362 0.0
O458 O 0.6663 0.97762 0.79828 0.0
C459 C 0.63412 0.93002 0.87494 0.0
O460 O 0.621 0.93638 0.85689 0.0
C461 C 0.67017 0.90957 0.80347 0.0
Zn462 Zn 0.79945 0.95173 0.55472 0.0
Zn463 Zn 0.81164 0.92804 0.59327 0.0
O464 O 0.80067 0.95993 0.60589 0.0
O465 O 0.79014 0.98014 0.57453 0.0
O466 O 0.82792 0.91301 0.6206 0.0
O467 O 0.83104 0.94823 0.53814 0.0
O468 O 0.83695 0.92445 0.56798 0.0
C469 C 0.79226 0.97863 0.59673 0.0
C470 C 0.77299 0.90721 0.5652 0.0
O471 O 0.78433 0.90647 0.58458 0.0
O472 O 0.77659 0.92387 0.55063 0.0
C473 C 0.84738 0.92208 0.62712 0.0
O474 O 0.85457 0.94168 0.61704 0.0
C475 C 0.84333 0.93236 0.54797 0.0
Zn476 Zn 0.80167 0.04032 0.30086 0.0
Zn477 Zn 0.82238 0.0505 0.34229 0.0
O478 O 0.78921 0.04008 0.35103 0.0
O479 O 0.77168 0.02981 0.31804 0.0
O480 O 0.8345 0.06327 0.37279 0.0
O481 O 0.80658 0.07365 0.28836 0.0
O482 O 0.82766 0.07859 0.32043 0.0
C483 C 0.77125 0.03201 0.34028 0.0
C484 C 0.84544 0.01366 0.31274 0.0
O485 O 0.84429 0.02371 0.33276 0.0
O486 O 0.83007 0.01801 0.297 0.0
C487 C 0.85596 0.06218 0.37914 0.0
O488 O 0.87107 0.05046 0.36604 0.0
C489 C 0.82083 0.08601 0.30037 0.0
Zn490 Zn 0.70192 0.03615 0.05507 0.0
Zn491 Zn 0.69073 0.06017 0.09391 0.0
O492 O 0.70238 0.0286 0.10644 0.0
O493 O 0.71198 0.008 0.07508 0.0
O494 O 0.67638 0.07557 0.12191 0.0
O495 O 0.6694 0.03961 0.04017 0.0
O496 O 0.66348 0.06279 0.07049 0.0
C497 C 0.71053 0.00982 0.09732 0.0
C498 C 0.72834 0.08087 0.06413 0.0
O499 O 0.71728 0.08184 0.08362 0.0
O500 O 0.72465 0.06394 0.0499 0.0
C501 C 0.65974 0.06465 0.13221 0.0
O502 O 0.6546 0.04308 0.12546 0.0
C503 C 0.65664 0.05459 0.05075 0.0
Zn504 Zn 0.69988 0.04022 0.69446 0.0
Zn505 Zn 0.67921 0.05046 0.6529 0.0
O506 O 0.7125 0.0405 0.64401 0.0
O507 O 0.72995 0.03022 0.67709 0.0
O508 O 0.6666 0.06365 0.62274 0.0
O509 O 0.69457 0.0734 0.70724 0.0
O510 O 0.67385 0.07829 0.67493 0.0
C511 C 0.73048 0.03257 0.65486 0.0
C512 C 0.65642 0.01317 0.6822 0.0
O513 O 0.65754 0.02334 0.66222 0.0
O514 O 0.67169 0.0176 0.69803 0.0
C515 C 0.64453 0.06511 0.61914 0.0
O516 O 0.62997 0.05561 0.63449 0.0
C517 C 0.68042 0.08572 0.69506 0.0
Zn518 Zn 0.70229 0.94959 0.43983 0.0
Zn519 Zn 0.68764 0.92791 0.40099 0.0
O520 O 0.69959 0.95961 0.38871 0.0
O521 O 0.7129 0.97775 0.42026 0.0
O522 O 0.66973 0.91424 0.37392 0.0
O523 O 0.67093 0.94811 0.45701 0.0
O524 O 0.66293 0.92507 0.4271 0.0
C525 C 0.70962 0.97733 0.39815 0.0
C526 C 0.72585 0.90412 0.42732 0.0
O527 O 0.71437 0.90494 0.40804 0.0
O528 O 0.72317 0.92007 0.44282 0.0
C529 C 0.64995 0.92362 0.36892 0.0
O530 O 0.64338 0.94271 0.3803 0.0
C531 C 0.65749 0.93314 0.44733 0.0
Zn532 Zn 0.80538 0.95259 0.19474 0.0
Zn533 Zn 0.82665 0.94393 0.15344 0.0
O534 O 0.7928 0.95217 0.14494 0.0
O535 O 0.77463 0.96113 0.17795 0.0
O536 O 0.83889 0.93136 0.12297 0.0
O537 O 0.81227 0.9197 0.20735 0.0
O538 O 0.83382 0.91637 0.17542 0.0
C539 C 0.77432 0.9589 0.15572 0.0
C540 C 0.84753 0.98201 0.18268 0.0
O541 O 0.84713 0.97202 0.16259 0.0
O542 O 0.83239 0.9766 0.19832 0.0
C543 C 0.86077 0.92754 0.12015 0.0
O544 O 0.87561 0.93472 0.13646 0.0
C545 C 0.82742 0.90841 0.19541 0.0
Zn546 Zn 0.79504 0.03757 0.94381 0.0
Zn547 Zn 0.80561 0.06126 0.90458 0.0
O548 O 0.7945 0.0292 0.89292 0.0
O549 O 0.78533 0.0088 0.92456 0.0
O550 O 0.81971 0.07584 0.87587 0.0
O551 O 0.82745 0.0421 0.95866 0.0
O552 O 0.8326 0.06512 0.92805 0.0
C553 C 0.78666 0.0104 0.90231 0.0
C554 C 0.76741 0.08146 0.93399 0.0
O555 O 0.77844 0.08251 0.91446 0.0
O556 O 0.77161 0.06484 0.94846 0.0
C557 C 0.83803 0.06594 0.86753 0.0
O558 O 0.84557 0.04626 0.87722 0.0
C559 C 0.83968 0.05742 0.94792 0.0
Zn560 Zn 0.82403 0.67571 0.99098 0.0
Zn561 Zn 0.83801 0.66943 0.94941 0.0
O562 O 0.85099 0.70223 0.95995 0.0
O563 O 0.82959 0.71067 0.99106 0.0
O564 O 0.84654 0.66591 0.91544 0.0
O565 O 0.79239 0.66106 0.9844 0.0
O566 O 0.80261 0.66147 0.94711 0.0
C567 C 0.84501 0.71672 0.9761 0.0
C568 C 0.85827 0.63872 0.98766 0.0
O569 O 0.85448 0.64166 0.96572 0.0
O570 O 0.84961 0.65317 0.00236 0.0
C571 C 0.85706 0.68004 0.90159 0.0
O572 O 0.86541 0.70011 0.90959 0.0
C573 C 0.7876 0.65657 0.96307 0.0
Zn574 Zn 0.32258 0.8255 0.00225 0.0
Zn575 Zn 0.33502 0.82894 0.04464 0.0
O576 O 0.34827 0.79718 0.0319 0.0
O577 O 0.32834 0.79077 -0.00063 0.0
O578 O 0.34253 0.82861 0.07898 0.0
O579 O 0.29045 0.83905 0.00841 0.0
O580 O 0.29962 0.83719 0.04594 0.0
C581 C 0.34312 0.78383 0.01456 0.0
C582 C 0.35688 0.86221 0.01004 0.0
O583 O 0.35237 0.85771 0.03157 0.0
O584 O 0.34853 0.84901 0.99403 0.0
C585 C 0.35817 0.81633 0.0893 0.0
O586 O 0.37191 0.80239 0.07691 0.0
C587 C 0.28497 0.84253 0.02976 0.0
Zn588 Zn 0.94388 0.5703 0.79118 0.0
Zn589 Zn 0.91928 0.61044 0.79646 0.0
O590 O 0.95268 0.6216 0.7894 0.0
O591 O 0.97346 0.58938 0.78365 0.0
O592 O 0.90326 0.63956 0.80799 0.0
O593 O 0.93675 0.55843 0.82421 0.0
O594 O 0.91282 0.58878 0.82445 0.0
C595 C 0.9722 0.61169 0.78446 0.0
C596 C 0.9023 0.57787 0.75932 0.0
O597 O 0.90096 0.59853 0.76798 0.0
O598 O 0.91815 0.56362 0.76635 0.0
C599 C 0.88188 0.63717 0.81419 0.0
O600 O 0.87077 0.61766 0.80838 0.0
C601 C 0.92017 0.56982 0.83394 0.0
Zn602 Zn 0.17976 0.18891 0.51104 0.0
Zn603 Zn 0.16043 0.17931 0.55134 0.0
O604 O 0.14678 0.2116 0.54081 0.0
O605 O 0.16844 0.22255 0.51062 0.0
O606 O 0.1495 0.17451 0.58445 0.0
O607 O 0.21258 0.17963 0.52165 0.0
O608 O 0.19574 0.17226 0.55566 0.0
C609 C 0.15192 0.2268 0.52501 0.0
C610 C 0.14627 0.14911 0.51074 0.0
O611 O 0.14563 0.15225 0.53294 0.0
O612 O 0.15828 0.16293 0.4978 0.0
C613 C 0.13574 0.18712 0.59682 0.0
O614 O 0.12573 0.20587 0.58756 0.0
C615 C 0.21404 0.17219 0.54265 0.0
Zn616 Zn 0.05097 0.92105 0.7732 0.0
Zn617 Zn 0.07596 0.88318 0.78815 0.0
O618 O 0.04257 0.87108 0.78106 0.0
O619 O 0.02075 0.90185 0.7721 0.0
O620 O 0.09157 0.8562 0.80496 0.0
O621 O 0.06058 0.9398 0.80243 0.0
O622 O 0.0808 0.9085 0.81287 0.0
C623 C 0.02261 0.87987 0.77567 0.0
C624 C 0.0919 0.90683 0.74359 0.0
O625 O 0.09584 0.89114 0.75919 0.0
O626 O 0.07404 0.92031 0.74518 0.0
C627 C 0.07928 0.84571 0.82053 0.0
O628 O 0.05674 0.85084 0.82235 0.0
C629 C 0.07456 0.92968 0.81666 0.0
Zn630 Zn 0.68231 0.30616 0.48685 0.0
Zn631 Zn 0.66155 0.31425 0.44685 0.0
O632 O 0.65084 0.28114 0.45765 0.0
O633 O 0.67292 0.27187 0.48807 0.0
O634 O 0.64759 0.31674 0.41479 0.0
O635 O 0.71385 0.3172 0.47409 0.0
O636 O 0.6961 0.32282 0.44015 0.0
C637 C 0.65697 0.26636 0.47346 0.0
C638 C 0.64751 0.34453 0.48772 0.0
O639 O 0.64646 0.34104 0.46558 0.0
O640 O 0.66017 0.33124 0.50058 0.0
C641 C 0.62563 0.31466 0.41092 0.0
O642 O 0.61122 0.31077 0.42866 0.0
C643 C 0.71458 0.32409 0.45284 0.0
Zn644 Zn 0.94642 0.43374 0.70396 0.0
Zn645 Zn 0.92152 0.3934 0.69692 0.0
O646 O 0.95523 0.3829 0.70388 0.0
O647 O 0.9764 0.41472 0.71028 0.0
O648 O 0.90557 0.36446 0.68411 0.0
O649 O 0.93866 0.44653 0.67135 0.0
O650 O 0.91526 0.41579 0.66964 0.0
C651 C 0.97495 0.39248 0.70866 0.0
C652 C 0.90467 0.42468 0.73544 0.0
O653 O 0.90298 0.40453 0.72566 0.0
O654 O 0.92077 0.43903 0.72922 0.0
C655 C 0.9176 0.35087 0.67091 0.0
O656 O 0.94044 0.35434 0.66905 0.0
C657 C 0.92246 0.43518 0.66095 0.0
Zn658 Zn 0.56033 0.56876 0.22585 0.0
Zn659 Zn 0.57733 0.60566 0.20237 0.0
O660 O 0.54311 0.61347 0.21099 0.0
O661 O 0.52725 0.58224 0.22747 0.0
O662 O 0.58446 0.63195 0.18019 0.0
O663 O 0.57075 0.54612 0.19997 0.0
O664 O 0.58612 0.57706 0.18242 0.0
C665 C 0.52534 0.60326 0.22016 0.0
C666 C 0.6005 0.59439 0.24801 0.0
O667 O 0.60051 0.60734 0.22969 0.0
O668 O 0.58515 0.57825 0.25059 0.0
C669 C 0.60378 0.64312 0.17871 0.0
O670 O 0.62091 0.63833 0.1936 0.0
C671 C 0.58293 0.55487 0.18339 0.0
Zn672 Zn 0.54951 0.70336 0.78865 0.0
Zn673 Zn 0.57056 0.66562 0.80654 0.0
O674 O 0.55735 0.65357 0.77548 0.0
O675 O 0.53895 0.68407 0.7602 0.0
O676 O 0.59119 0.63961 0.8176 0.0
O677 O 0.57898 0.72374 0.78914 0.0
O678 O 0.59298 0.69366 0.80892 0.0
C679 C 0.54472 0.66248 0.75922 0.0
C680 C 0.53128 0.68565 0.8346 0.0
O681 O 0.54528 0.66837 0.83179 0.0
O682 O 0.53046 0.70227 0.81959 0.0
C683 C 0.58399 0.61897 0.82239 0.0
O684 O 0.56158 0.61372 0.81947 0.0
C685 C 0.59504 0.7149 0.80193 0.0
Zn686 Zn 0.5483 0.28122 0.05217 0.0
Zn687 Zn 0.57978 0.31347 0.05928 0.0
O688 O 0.58992 0.29494 0.02981 0.0
O689 O 0.56098 0.27093 0.02062 0.0
O690 O 0.59976 0.34225 0.05884 0.0
O691 O 0.51978 0.30223 0.05643 0.0
O692 O 0.54731 0.32749 0.06624 0.0
C693 C 0.58134 0.2791 0.01639 0.0
C694 C 0.57921 0.2761 0.09474 0.0
O695 O 0.58889 0.29539 0.08868 0.0
O696 O 0.56284 0.2671 0.08234 0.0
C697 C 0.62202 0.34165 0.06103 0.0
O698 O 0.63271 0.32116 0.06293 0.0
C699 C 0.52558 0.32196 0.0651 0.0
Zn700 Zn 0.94588 0.27391 0.29697 0.0
Zn701 Zn 0.92198 0.31173 0.30803 0.0
O702 O 0.9394 0.32117 0.27794 0.0
O703 O 0.96075 0.29023 0.26863 0.0
O704 O 0.89774 0.33673 0.31276 0.0
O705 O 0.91823 0.25124 0.29549 0.0
O706 O 0.90235 0.28188 0.31264 0.0
C707 C 0.95478 0.31143 0.2648 0.0
C708 C 0.95732 0.29712 0.34286 0.0
O709 O 0.94402 0.31392 0.33619 0.0
O710 O 0.95996 0.27891 0.33009 0.0
C711 C 0.90285 0.35805 0.31719 0.0
O712 O 0.92513 0.36449 0.31785 0.0
C713 C 0.90165 0.26001 0.30763 0.0
Zn714 Zn 0.93609 0.72745 0.56997 0.0
Zn715 Zn 0.91714 0.6863 0.57192 0.0
O716 O 0.90599 0.70184 0.54076 0.0
O717 O 0.92786 0.73344 0.53614 0.0
O718 O 0.90312 0.6543 0.56978 0.0
O719 O 0.96791 0.71474 0.5794 0.0
O720 O 0.9519 0.67946 0.58004 0.0
C721 C 0.9121 0.71965 0.52847 0.0
C722 C 0.90089 0.72169 0.60732 0.0
O723 O 0.90129 0.7002 0.60101 0.0
O724 O 0.91287 0.73691 0.59606 0.0
C725 C 0.8808 0.65255 0.56915 0.0
O726 O 0.86791 0.67183 0.56915 0.0
C727 C 0.9697 0.69281 0.58323 0.0
Zn728 Zn 0.53958 0.29298 0.69295 0.0
Zn729 Zn 0.56825 0.32769 0.68161 0.0
O730 O 0.55374 0.33773 0.71305 0.0
O731 O 0.53052 0.30864 0.72377 0.0
O732 O 0.59367 0.35113 0.6762 0.0
O733 O 0.5643 0.26738 0.68997 0.0
O734 O 0.58529 0.29649 0.67561 0.0
C735 C 0.53906 0.32892 0.72758 0.0
C736 C 0.52858 0.31949 0.64895 0.0
O737 O 0.54582 0.33277 0.65425 0.0
O738 O 0.52299 0.30219 0.66205 0.0
C739 C 0.58991 0.37318 0.67642 0.0
O740 O 0.56863 0.38104 0.68128 0.0
C741 C 0.58245 0.27448 0.67903 0.0
Zn742 Zn 0.92123 0.25733 0.9136 0.0
Zn743 Zn 0.90886 0.29984 0.91187 0.0
O744 O 0.89798 0.28724 0.94449 0.0
O745 O 0.91801 0.25439 0.94863 0.0
O746 O 0.90055 0.3338 0.91273 0.0
O747 O 0.95234 0.26425 0.89825 0.0
O748 O 0.94372 0.30175 0.90184 0.0
C749 C 0.90415 0.26965 0.9571 0.0
C750 C 0.88445 0.2656 0.87975 0.0
O751 O 0.88955 0.28698 0.88423 0.0
O752 O 0.89367 0.24925 0.89194 0.0
C753 C 0.87991 0.34106 0.91737 0.0
O754 O 0.86334 0.32569 0.92261 0.0
C755 C 0.95792 0.28564 0.8953 0.0
Zn756 Zn 0.94506 0.70861 0.2018 0.0
Zn757 Zn 0.92387 0.66986 0.18679 0.0
O758 O 0.93763 0.66025 0.21841 0.0
O759 O 0.9568 0.69136 0.23119 0.0
O760 O 0.90381 0.64256 0.17815 0.0
O761 O 0.91525 0.72851 0.20063 0.0
O762 O 0.90111 0.69743 0.18259 0.0
C763 C 0.95082 0.66996 0.23372 0.0
C764 C 0.96242 0.68823 0.15669 0.0
O765 O 0.94873 0.67103 0.16102 0.0
O766 O 0.96336 0.70583 0.1705 0.0
C767 C 0.91209 0.62221 0.17387 0.0
O768 O 0.93492 0.61854 0.17569 0.0
C769 C 0.89913 0.71902 0.18838 0.0
Zn770 Zn 0.55866 0.72978 0.42771 0.0
Zn771 Zn 0.57821 0.68885 0.42522 0.0
O772 O 0.58963 0.7045 0.45616 0.0
O773 O 0.56745 0.73576 0.46147 0.0
O774 O 0.59153 0.65652 0.42764 0.0
O775 O 0.52671 0.71712 0.4184 0.0
O776 O 0.54344 0.68223 0.41707 0.0
C777 C 0.58363 0.72217 0.46866 0.0
C778 C 0.59399 0.72444 0.39004 0.0
O779 O 0.59412 0.70288 0.3962 0.0
O780 O 0.58163 0.73928 0.40138 0.0
C781 C 0.61309 0.65329 0.43281 0.0
O782 O 0.62669 0.67163 0.43683 0.0
C783 C 0.52534 0.69524 0.41415 0.0
Zn784 Zn 0.8108 0.50473 0.6673 0.0
Zn785 Zn 0.82502 0.5383 0.63952 0.0
O786 O 0.79054 0.53172 0.63041 0.0
O787 O 0.77654 0.50877 0.65824 0.0
O788 O 0.83282 0.56517 0.61828 0.0
O789 O 0.82608 0.52135 0.69505 0.0
O790 O 0.83384 0.55159 0.67204 0.0
C791 C 0.7733 0.52064 0.6396 0.0
C792 C 0.84775 0.49032 0.63551 0.0
O793 O 0.84833 0.51227 0.63095 0.0
O794 O 0.83172 0.48212 0.6488 0.0
C795 C 0.84511 0.5637 0.59962 0.0
O796 O 0.85374 0.54323 0.59306 0.0
C797 C 0.83477 0.54174 0.69221 0.0
Zn798 Zn 0.69473 0.5393 0.95509 0.0
Zn799 Zn 0.68024 0.56129 0.91635 0.0
O800 O 0.69272 0.52978 0.90501 0.0
O801 O 0.70491 0.51034 0.93619 0.0
O802 O 0.6639 0.574 0.88811 0.0
O803 O 0.66342 0.54309 0.97241 0.0
O804 O 0.65525 0.56511 0.94173 0.0
C805 C 0.70231 0.51162 0.91402 0.0
C806 C 0.71906 0.58443 0.94209 0.0
O807 O 0.70661 0.58431 0.92342 0.0
O808 O 0.71693 0.56796 0.95719 0.0
C809 C 0.64499 0.56408 0.88129 0.0
O810 O 0.63737 0.5453 0.89255 0.0
C811 C 0.65011 0.55802 0.96239 0.0
Zn812 Zn 0.69442 0.46934 0.181 0.0
Zn813 Zn 0.67679 0.44533 0.14497 0.0
O814 O 0.71038 0.45465 0.13585 0.0
O815 O 0.72719 0.47099 0.16662 0.0
O816 O 0.66907 0.42217 0.1199 0.0
O817 O 0.68413 0.44428 0.20473 0.0
O818 O 0.66872 0.42624 0.17417 0.0
C819 C 0.72838 0.46403 0.14544 0.0
C820 C 0.6536 0.49088 0.15561 0.0
O821 O 0.65321 0.47225 0.14312 0.0
O822 O 0.6694 0.4938 0.17127 0.0
C823 C 0.65943 0.42597 0.10008 0.0
O824 O 0.65275 0.44742 0.09437 0.0
C825 C 0.6718 0.42764 0.19632 0.0
Zn826 Zn 0.80071 0.44163 0.45351 0.0
Zn827 Zn 0.81887 0.42656 0.41329 0.0
O828 O 0.80454 0.45845 0.40479 0.0
O829 O 0.78802 0.47119 0.43741 0.0
O830 O 0.8387 0.4185 0.38539 0.0
O831 O 0.83149 0.44046 0.4718 0.0
O832 O 0.84273 0.42184 0.43993 0.0
C833 C 0.79236 0.47385 0.41565 0.0
C834 C 0.78176 0.39647 0.43419 0.0
O835 O 0.79392 0.4008 0.41583 0.0
O836 O 0.78239 0.4103 0.45179 0.0
C837 C 0.83128 0.40833 0.3669 0.0
O838 O 0.80875 0.40317 0.36496 0.0
C839 C 0.84647 0.42766 0.46129 0.0
Zn840 Zn 0.81095 0.49551 0.82749 0.0
Zn841 Zn 0.82712 0.46326 0.85611 0.0
O842 O 0.79215 0.46747 0.86457 0.0
O843 O 0.77694 0.48994 0.83698 0.0
O844 O 0.83601 0.43723 0.87788 0.0
O845 O 0.8269 0.47887 0.80003 0.0
O846 O 0.83717 0.45004 0.82388 0.0
C847 C 0.77432 0.47764 0.85544 0.0
C848 C 0.84697 0.51254 0.85949 0.0
O849 O 0.84848 0.49084 0.865 0.0
O850 O 0.83097 0.51941 0.8454 0.0
C851 C 0.85711 0.43366 0.88445 0.0
O852 O 0.87385 0.44803 0.87731 0.0
C853 C 0.8371 0.45926 0.80339 0.0
Zn854 Zn 0.79593 0.54427 0.04543 0.0
Zn855 Zn 0.81446 0.56218 0.08465 0.0
O856 O 0.80246 0.53011 0.09501 0.0
O857 O 0.78565 0.51486 0.06363 0.0
O858 O 0.83216 0.57333 0.11266 0.0
O859 O 0.82673 0.54672 0.02717 0.0
O860 O 0.83865 0.56629 0.0583 0.0
C861 C 0.79093 0.5135 0.08532 0.0
C862 C 0.77523 0.58918 0.06282 0.0
O863 O 0.7884 0.58643 0.08075 0.0
O864 O 0.77571 0.5745 0.04593 0.0
C865 C 0.85173 0.56398 0.1183 0.0
O866 O 0.85983 0.54619 0.10586 0.0
C867 C 0.84192 0.55982 0.03705 0.0
Zn868 Zn 0.69148 0.52239 0.32483 0.0
Zn869 Zn 0.67512 0.54576 0.36212 0.0
O870 O 0.70869 0.53522 0.37089 0.0
O871 O 0.72395 0.51881 0.33931 0.0
O872 O 0.66672 0.56749 0.38847 0.0
O873 O 0.68274 0.54916 0.30252 0.0
O874 O 0.66788 0.56666 0.33369 0.0
C875 C 0.72599 0.52523 0.36059 0.0
C876 C 0.65002 0.50153 0.34883 0.0
O877 O 0.65086 0.51946 0.36221 0.0
O878 O 0.66541 0.49849 0.33284 0.0
C879 C 0.64921 0.56506 0.40221 0.0
O880 O 0.63587 0.54619 0.40053 0.0
C881 C 0.67117 0.56603 0.31151 0.0
Zn882 Zn 0.69923 0.44807 0.54296 0.0
Zn883 Zn 0.6864 0.42734 0.58296 0.0
O884 O 0.69671 0.46028 0.59226 0.0
O885 O 0.70789 0.47858 0.56004 0.0
O886 O 0.67142 0.41506 0.61215 0.0
O887 O 0.66794 0.44174 0.5265 0.0
O888 O 0.66148 0.42036 0.55805 0.0
C889 C 0.70513 0.47847 0.58222 0.0
C890 C 0.72597 0.40499 0.55787 0.0
O891 O 0.71403 0.40568 0.57683 0.0
O892 O 0.72271 0.42038 0.54187 0.0
C893 C 0.65515 0.42688 0.62201 0.0
O894 O 0.64929 0.44755 0.61328 0.0
C895 C 0.65579 0.42626 0.53714 0.0
Zn896 Zn 0.67174 0.81843 0.50424 0.0
Zn897 Zn 0.65178 0.82797 0.54317 0.0
O898 O 0.6397 0.79534 0.53248 0.0
O899 O 0.66374 0.7838 0.50448 0.0
O900 O 0.63734 0.83088 0.5749 0.0
O901 O 0.70272 0.8317 0.51579 0.0
O902 O 0.68648 0.83515 0.55075 0.0
C903 C 0.64646 0.77959 0.51797 0.0
C904 C 0.63839 0.85707 0.50127 0.0
O905 O 0.6385 0.85526 0.52364 0.0
O906 O 0.64918 0.84189 0.48885 0.0
C907 C 0.61561 0.83517 0.57806 0.0
O908 O 0.60173 0.83822 0.55974 0.0
C909 C 0.70419 0.83777 0.53722 0.0
Zn910 Zn 0.18679 0.68457 0.4795 0.0
Zn911 Zn 0.16686 0.67783 0.43981 0.0
O912 O 0.15329 0.70872 0.45404 0.0
O913 O 0.17651 0.7181 0.48353 0.0
O914 O 0.15235 0.67682 0.40786 0.0
O915 O 0.21886 0.67605 0.46716 0.0
O916 O 0.20196 0.67185 0.43261 0.0
C917 C 0.15911 0.72296 0.47045 0.0
C918 C 0.15492 0.64404 0.47818 0.0
O919 O 0.15412 0.64848 0.45622 0.0
O920 O 0.16608 0.65768 0.49199 0.0
C921 C 0.13008 0.67569 0.40579 0.0
O922 O 0.1169 0.67572 0.42486 0.0
C923 C 0.22026 0.67049 0.4456 0.0
Zn924 Zn 0.55731 0.91964 0.74085 0.0
Zn925 Zn 0.57053 0.896 0.70415 0.0
O926 O 0.5358 0.88718 0.70994 0.0
O927 O 0.5227 0.9122 0.73633 0.0
O928 O 0.57685 0.87886 0.67421 0.0
O929 O 0.57326 0.94892 0.7279 0.0
O930 O 0.58063 0.92954 0.69519 0.0
C931 C 0.51887 0.89534 0.72222 0.0
C932 C 0.5939 0.88556 0.75084 0.0
O933 O 0.594 0.88338 0.7285 0.0
O934 O 0.57819 0.8981 0.76069 0.0
C935 C 0.58862 0.85995 0.6722 0.0
O936 O 0.59794 0.85009 0.691 0.0
C937 C 0.58219 0.94828 0.70742 0.0
Zn938 Zn 0.31218 0.31396 0.98637 0.0
Zn939 Zn 0.33417 0.32225 0.94711 0.0
O940 O 0.34467 0.28922 0.95798 0.0
O941 O 0.32151 0.27966 0.98748 0.0
O942 O 0.34838 0.32424 0.91524 0.0
O943 O 0.28095 0.32508 0.97287 0.0
O944 O 0.29986 0.33079 0.9396 0.0
C945 C 0.33796 0.2743 0.97337 0.0
C946 C 0.34727 0.35224 0.98825 0.0
O947 O 0.34898 0.34895 0.96612 0.0
O948 O 0.33414 0.33891 0.00059 0.0
C949 C 0.36984 0.31957 0.91094 0.0
O950 O 0.38409 0.31388 0.92832 0.0
C951 C 0.28095 0.33201 0.95163 0.0
Zn952 Zn 0.44359 0.56782 0.72175 0.0
Zn953 Zn 0.4268 0.60409 0.69694 0.0
O954 O 0.46091 0.61216 0.70525 0.0
O955 O 0.47671 0.58148 0.7228 0.0
O956 O 0.41889 0.62973 0.67438 0.0
O957 O 0.43242 0.54451 0.69667 0.0
O958 O 0.41785 0.57513 0.67791 0.0
C959 C 0.47864 0.60227 0.71483 0.0
C960 C 0.40357 0.59417 0.74295 0.0
O961 O 0.40366 0.60634 0.72412 0.0
O962 O 0.41895 0.5782 0.7463 0.0
C963 C 0.40534 0.64715 0.67804 0.0
O964 O 0.3951 0.64964 0.69867 0.0
C965 C 0.42039 0.55293 0.6798 0.0
Zn966 Zn 0.82525 0.17241 0.00036 0.0
Zn967 Zn 0.84599 0.16519 0.03913 0.0
O968 O 0.85599 0.19824 0.02735 0.0
O969 O 0.83066 0.20743 -0.0004 0.0
O970 O 0.86073 0.16398 0.07092 0.0
O971 O 0.79525 0.15766 0.01231 0.0
O972 O 0.81176 0.15641 0.0473 0.0
C973 C 0.84784 0.21317 0.01264 0.0
C974 C 0.86021 0.13547 -0.00217 0.0
O975 O 0.86021 0.13792 0.02015 0.0
O976 O 0.84884 0.14997 0.98509 0.0
C977 C 0.88215 0.1588 0.07476 0.0
O978 O 0.89607 0.15359 0.05697 0.0
C979 C 0.7942 0.15227 0.03395 0.0
Zn980 Zn 0.56304 0.0829 0.74697 0.0
Zn981 Zn 0.57321 0.10512 0.78519 0.0
O982 O 0.54017 0.1166 0.77511 0.0
O983 O 0.52863 0.09225 0.74738 0.0
O984 O 0.57662 0.12038 0.8166 0.0
O985 O 0.57556 0.05227 0.76048 0.0
O986 O 0.58028 0.07077 0.79414 0.0
C987 C 0.52433 0.10949 0.76086 0.0
C988 C 0.60262 0.1149 0.74217 0.0
O989 O 0.60038 0.11676 0.76444 0.0
O990 O 0.58733 0.10357 0.73037 0.0
C991 C 0.58987 0.13775 0.82136 0.0
O992 O 0.60251 0.14749 0.80455 0.0
C993 C 0.58218 0.05213 0.78182 0.0
Zn994 Zn 0.9422 0.91802 0.25456 0.0
Zn995 Zn 0.9296 0.8957 0.29224 0.0
O996 O 0.96385 0.88573 0.28561 0.0
O997 O 0.97673 0.90995 0.25834 0.0
O998 O 0.92359 0.87967 0.32285 0.0
O999 O 0.92729 0.94806 0.26688 0.0
O1000 O 0.92055 0.92972 0.30035 0.0
C1001 C 0.98058 0.89324 0.27264 0.0
C1002 C 0.90464 0.88442 0.24668 0.0
O1003 O 0.90511 0.88289 0.26908 0.0
O1004 O 0.92032 0.89633 0.23603 0.0
C1005 C 0.91435 0.85942 0.32507 0.0
O1006 O 0.90785 0.84762 0.30623 0.0
C1007 C 0.91898 0.94815 0.28762 0.0
Zn1008 Zn 0.46243 0.30635 0.18623 0.0
Zn1009 Zn 0.42947 0.33745 0.1776 0.0
O1010 O 0.4445 0.34731 0.20929 0.0
O1011 O 0.46879 0.31867 0.21885 0.0
O1012 O 0.40226 0.35924 0.17392 0.0
O1013 O 0.44086 0.2787 0.17975 0.0
O1014 O 0.4141 0.30541 0.17137 0.0
C1015 C 0.45928 0.33828 0.22364 0.0
C1016 C 0.4702 0.33636 0.14449 0.0
O1017 O 0.45002 0.34489 0.14923 0.0
O1018 O 0.47946 0.32092 0.15781 0.0
C1019 C 0.40446 0.3815 0.17462 0.0
O1020 O 0.42528 0.39071 0.17907 0.0
C1021 C 0.42053 0.28391 0.17205 0.0
Zn1022 Zn 0.42947 0.73962 0.92014 0.0
Zn1023 Zn 0.40974 0.69875 0.916 0.0
O1024 O 0.39867 0.71259 0.94785 0.0
O1025 O 0.42082 0.74366 0.95434 0.0
O1026 O 0.39794 0.66582 0.9173 0.0
O1027 O 0.46151 0.72762 0.90991 0.0
O1028 O 0.44442 0.69301 0.90719 0.0
C1029 C 0.40485 0.72962 0.96113 0.0
C1030 C 0.39327 0.73568 0.88275 0.0
O1031 O 0.39307 0.71386 0.88794 0.0
O1032 O 0.40599 0.74991 0.8945 0.0
C1033 C 0.3774 0.66002 0.92406 0.0
O1034 O 0.3623 0.67646 0.93033 0.0
C1035 C 0.46263 0.70593 0.90473 0.0
Zn1036 Zn 0.0497 0.70286 0.70138 0.0
Zn1037 Zn 0.07086 0.66298 0.69099 0.0
O1038 O 0.05455 0.65593 0.7222 0.0
O1039 O 0.03501 0.68828 0.73066 0.0
O1040 O 0.09169 0.63518 0.68603 0.0
O1041 O 0.07957 0.72248 0.7017 0.0
O1042 O 0.09387 0.69033 0.68586 0.0
C1043 C 0.04029 0.66709 0.73544 0.0
C1044 C 0.03519 0.67968 0.65673 0.0
O1045 O 0.04775 0.66239 0.66351 0.0
O1046 O 0.034 0.69839 0.66896 0.0
C1047 C 0.08413 0.61572 0.67799 0.0
O1048 O 0.06149 0.61319 0.67363 0.0
C1049 C 0.09596 0.7122 0.69053 0.0
Zn1050 Zn 0.06109 0.26116 0.43225 0.0
Zn1051 Zn 0.07487 0.30426 0.42696 0.0
O1052 O 0.08876 0.29291 0.45899 0.0
O1053 O 0.07094 0.25928 0.4662 0.0
O1054 O 0.08266 0.33852 0.42502 0.0
O1055 O 0.0276 0.2685 0.42266 0.0
O1056 O 0.03936 0.30522 0.41945 0.0
C1057 C 0.08503 0.27536 0.47257 0.0
C1058 C 0.0946 0.26843 0.39359 0.0
O1059 O 0.09199 0.29013 0.39862 0.0
O1060 O 0.08464 0.25276 0.40612 0.0
C1061 C 0.09806 0.34969 0.43684 0.0
O1062 O 0.11096 0.33844 0.45248 0.0
C1063 C 0.02319 0.28975 0.41741 0.0
Zn1064 Zn 0.4451 0.69752 0.29458 0.0
Zn1065 Zn 0.42443 0.65836 0.30827 0.0
O1066 O 0.44072 0.64923 0.27761 0.0
O1067 O 0.45935 0.68115 0.26601 0.0
O1068 O 0.40305 0.63129 0.31483 0.0
O1069 O 0.41542 0.71743 0.29362 0.0
O1070 O 0.402 0.68633 0.31213 0.0
C1071 C 0.45448 0.65952 0.26317 0.0
C1072 C 0.46023 0.67726 0.34077 0.0
O1073 O 0.44771 0.65941 0.33553 0.0
O1074 O 0.46117 0.69498 0.32708 0.0
C1075 C 0.40998 0.61188 0.32356 0.0
O1076 O 0.43253 0.60876 0.32802 0.0
C1077 C 0.3996 0.70786 0.30617 0.0
Zn1078 Zn 0.06636 0.73523 0.07088 0.0
Zn1079 Zn 0.08452 0.69366 0.07607 0.0
O1080 O 0.09723 0.70588 0.04384 0.0
O1081 O 0.07597 0.73757 0.03688 0.0
O1082 O 0.09347 0.65976 0.07824 0.0
O1083 O 0.03346 0.72542 0.08057 0.0
O1084 O 0.04934 0.69035 0.08418 0.0
C1085 C 0.09157 0.72301 0.03035 0.0
C1086 C 0.10162 0.73089 0.10887 0.0
O1087 O 0.10122 0.70902 0.10394 0.0
O1088 O 0.08957 0.74538 0.09674 0.0
C1089 C 0.10812 0.6475 0.0666 0.0
O1090 O 0.1211 0.65744 0.05017 0.0
C1091 C 0.03152 0.70388 0.08609 0.0
Zn1092 Zn 0.04999 0.29094 0.77869 0.0
Zn1093 Zn 0.06572 0.32919 0.79946 0.0
O1094 O 0.05314 0.34048 0.76783 0.0
O1095 O 0.0394 0.30919 0.74968 0.0
O1096 O 0.08461 0.35629 0.81118 0.0
O1097 O 0.07998 0.27154 0.78164 0.0
O1098 O 0.08795 0.30143 0.80466 0.0
C1099 C 0.04267 0.33128 0.75026 0.0
C1100 C 0.02679 0.30601 0.82382 0.0
O1101 O 0.0391 0.32474 0.82276 0.0
O1102 O 0.0288 0.29022 0.80804 0.0
C1103 C 0.10504 0.35982 0.80263 0.0
O1104 O 0.11274 0.34606 0.78566 0.0
C1105 C 0.09249 0.28054 0.79783 0.0
Zn1106 Zn 0.43626 0.27316 0.55596 0.0
Zn1107 Zn 0.41485 0.31267 0.5612 0.0
O1108 O 0.40351 0.29803 0.52979 0.0
O1109 O 0.42718 0.26841 0.5221 0.0
O1110 O 0.39989 0.34433 0.56072 0.0
O1111 O 0.46769 0.28663 0.56548 0.0
O1112 O 0.44924 0.32043 0.56944 0.0
C1113 C 0.41007 0.28144 0.51613 0.0
C1114 C 0.40201 0.27466 0.5949 0.0
O1115 O 0.40051 0.29644 0.58984 0.0
O1116 O 0.41464 0.26104 0.58237 0.0
C1117 C 0.37777 0.3463 0.55779 0.0
O1118 O 0.36499 0.32722 0.55462 0.0
C1119 C 0.46795 0.30814 0.57141 0.0
Zn1120 Zn 0.18859 0.45877 0.32325 0.0
Zn1121 Zn 0.1651 0.45087 0.36337 0.0
O1122 O 0.19844 0.45891 0.37413 0.0
O1123 O 0.21819 0.46745 0.3419 0.0
O1124 O 0.15015 0.4383 0.39259 0.0
O1125 O 0.18288 0.42577 0.31055 0.0
O1126 O 0.1589 0.42346 0.34081 0.0
C1127 C 0.21745 0.46549 0.36415 0.0
C1128 C 0.14571 0.48817 0.3326 0.0
O1129 O 0.14549 0.47902 0.35308 0.0
O1130 O 0.16136 0.48223 0.31768 0.0
C1131 C 0.12814 0.43421 0.39217 0.0
O1132 O 0.11578 0.44148 0.37393 0.0
C1133 C 0.16658 0.41506 0.32147 0.0
Zn1134 Zn 0.29254 0.45366 0.04355 0.0
Zn1135 Zn 0.30402 0.43219 0.08354 0.0
O1136 O 0.29304 0.4649 0.09306 0.0
O1137 O 0.28291 0.48367 0.06073 0.0
O1138 O 0.31897 0.41976 0.11278 0.0
O1139 O 0.32436 0.44831 0.0279 0.0
O1140 O 0.32961 0.42605 0.05904 0.0
C1141 C 0.28486 0.48319 0.08299 0.0
C1142 C 0.26543 0.41019 0.05686 0.0
O1143 O 0.27663 0.41045 0.0763 0.0
O1144 O 0.26938 0.42585 0.04129 0.0
C1145 C 0.33484 0.43214 0.12263 0.0
O1146 O 0.3397 0.45312 0.11405 0.0
C1147 C 0.33616 0.43262 0.0386 0.0
Zn1148 Zn 0.30888 0.52423 0.81636 0.0
Zn1149 Zn 0.32452 0.54702 0.85449 0.0
O1150 O 0.29047 0.53731 0.86166 0.0
O1151 O 0.27592 0.52079 0.82982 0.0
O1152 O 0.33162 0.56865 0.88121 0.0
O1153 O 0.31851 0.55126 0.79474 0.0
O1154 O 0.33328 0.56777 0.8265 0.0
C1155 C 0.27332 0.52757 0.85093 0.0
C1156 C 0.3495 0.50274 0.84171 0.0
O1157 O 0.34828 0.52029 0.85557 0.0
O1158 O 0.33478 0.50031 0.82499 0.0
C1159 C 0.35074 0.56872 0.89285 0.0
O1160 O 0.36675 0.55251 0.88856 0.0
C1161 C 0.33043 0.5676 0.80426 0.0
Zn1162 Zn 0.20406 0.54838 0.54743 0.0
Zn1163 Zn 0.17722 0.56083 0.58282 0.0
O1164 O 0.19248 0.52982 0.59314 0.0
O1165 O 0.2145 0.51819 0.56353 0.0
O1166 O 0.15173 0.56555 0.60641 0.0
O1167 O 0.17878 0.55014 0.52229 0.0
O1168 O 0.16 0.56668 0.55166 0.0
C1169 C 0.20687 0.51506 0.58428 0.0
C1170 C 0.21568 0.59358 0.57218 0.0
O1171 O 0.19957 0.58847 0.58692 0.0
O1172 O 0.22015 0.58001 0.55494 0.0
C1173 C 0.15597 0.56686 0.62833 0.0
O1174 O 0.17783 0.56488 0.63586 0.0
C1175 C 0.16163 0.56239 0.52968 0.0
Zn1176 Zn 0.1876 0.52649 0.18103 0.0
Zn1177 Zn 0.16502 0.54015 0.14143 0.0
O1178 O 0.1991 0.53389 0.13163 0.0
O1179 O 0.21891 0.52478 0.16369 0.0
O1180 O 0.15178 0.55457 0.11222 0.0
O1181 O 0.17674 0.55648 0.19774 0.0
O1182 O 0.15811 0.56603 0.16514 0.0
C1183 C 0.21845 0.52844 0.14165 0.0
C1184 C 0.14789 0.49618 0.16551 0.0
O1185 O 0.14507 0.51118 0.14903 0.0
O1186 O 0.16473 0.49831 0.18016 0.0
C1187 C 0.13023 0.56062 0.11202 0.0
O1188 O 0.11665 0.55413 0.12967 0.0
C1189 C 0.16326 0.57038 0.18651 0.0
Zn1190 Zn 0.19525 0.45007 0.94599 0.0
Zn1191 Zn 0.17786 0.43308 0.90604 0.0
O1192 O 0.19234 0.46426 0.89586 0.0
O1193 O 0.20832 0.47849 0.92816 0.0
O1194 O 0.15932 0.4228 0.87816 0.0
O1195 O 0.16386 0.45008 0.96329 0.0
O1196 O 0.1529 0.43052 0.93187 0.0
C1197 C 0.20444 0.48007 0.90619 0.0
C1198 C 0.21441 0.40404 0.92951 0.0
O1199 O 0.2026 0.40756 0.91077 0.0
O1200 O 0.21351 0.41863 0.94647 0.0
C1201 C 0.16792 0.41515 0.85898 0.0
O1202 O 0.19095 0.41428 0.8563 0.0
C1203 C 0.14871 0.43744 0.9528 0.0
Zn1204 Zn 0.30504 0.4703 0.67975 0.0
Zn1205 Zn 0.3216 0.4465 0.64268 0.0
O1206 O 0.28809 0.45655 0.63436 0.0
O1207 O 0.27221 0.47327 0.66541 0.0
O1208 O 0.32913 0.42518 0.61598 0.0
O1209 O 0.315 0.44363 0.70194 0.0
O1210 O 0.32917 0.42563 0.67074 0.0
C1211 C 0.27051 0.46637 0.64424 0.0
C1212 C 0.34634 0.49109 0.65508 0.0
O1213 O 0.3458 0.47281 0.64214 0.0
O1214 O 0.3308 0.49436 0.67089 0.0
C1215 C 0.34147 0.43014 0.59799 0.0
O1216 O 0.35081 0.45124 0.59584 0.0
C1217 C 0.32642 0.42664 0.69296 0.0
Zn1218 Zn 0.29248 0.54843 0.45695 0.0
Zn1219 Zn 0.31664 0.55863 0.4195 0.0
O1220 O 0.29934 0.52806 0.41102 0.0
O1221 O 0.27803 0.51934 0.44215 0.0
O1222 O 0.34152 0.56181 0.39495 0.0
O1223 O 0.31928 0.54789 0.48047 0.0
O1224 O 0.33524 0.56502 0.44983 0.0
C1225 C 0.28425 0.51488 0.42118 0.0
C1226 C 0.28168 0.5939 0.43209 0.0
O1227 O 0.29507 0.58694 0.41551 0.0
O1228 O 0.27875 0.58135 0.45043 0.0
C1229 C 0.33687 0.56452 0.37324 0.0
O1230 O 0.31474 0.56461 0.36626 0.0
C1231 C 0.3355 0.5606 0.47185 0.0
Zn1232 Zn 0.32775 0.18038 0.48514 0.0
Zn1233 Zn 0.34153 0.17462 0.44281 0.0
O1234 O 0.35353 0.20751 0.45304 0.0
O1235 O 0.33422 0.21522 0.48566 0.0
O1236 O 0.35029 0.17293 0.40899 0.0
O1237 O 0.29568 0.16684 0.47792 0.0
O1238 O 0.30648 0.16583 0.4408 0.0
C1239 C 0.34835 0.22169 0.46965 0.0
C1240 C 0.36223 0.14317 0.48009 0.0
O1241 O 0.35889 0.14706 0.45823 0.0
O1242 O 0.35299 0.15677 0.49527 0.0
C1243 C 0.36935 0.1807 0.40021 0.0
O1244 O 0.38517 0.19057 0.41399 0.0
C1245 C 0.29114 0.16174 0.45667 0.0
Zn1246 Zn 0.82827 0.31151 0.50786 0.0
Zn1247 Zn 0.8443 0.31785 0.54909 0.0
O1248 O 0.85473 0.28439 0.53815 0.0
O1249 O 0.83301 0.27648 0.50713 0.0
O1250 O 0.85653 0.32031 0.58208 0.0
O1251 O 0.79738 0.32655 0.51648 0.0
O1252 O 0.8095 0.32743 0.55325 0.0
C1253 C 0.84817 0.26999 0.52217 0.0
C1254 C 0.86335 0.34789 0.50953 0.0
O1255 O 0.86076 0.34487 0.53162 0.0
O1256 O 0.85352 0.33376 0.49523 0.0
C1257 C 0.87556 0.31067 0.58897 0.0
O1258 O 0.88803 0.29812 0.57401 0.0
C1259 C 0.7938 0.33198 0.53783 0.0
Zn1260 Zn 0.43953 0.06498 0.27167 0.0
Zn1261 Zn 0.42153 0.10423 0.29097 0.0
O1262 O 0.45589 0.11108 0.28296 0.0
O1263 O 0.47251 0.07898 0.26916 0.0
O1264 O 0.41289 0.13265 0.30953 0.0
O1265 O 0.4282 0.04544 0.29981 0.0
O1266 O 0.41198 0.07795 0.31327 0.0
C1267 C 0.47398 0.1005 0.27495 0.0
C1268 C 0.39971 0.088 0.24624 0.0
O1269 O 0.39951 0.1029 0.26296 0.0
O1270 O 0.41501 0.07162 0.24568 0.0
C1271 C 0.3917 0.13948 0.3117 0.0
O1272 O 0.37504 0.12866 0.29974 0.0
C1273 C 0.4152 0.05582 0.31475 0.0
Zn1274 Zn 0.67642 0.67669 0.00654 0.0
Zn1275 Zn 0.65536 0.67271 0.04671 0.0
O1276 O 0.64451 0.70467 0.03262 0.0
O1277 O 0.66771 0.71084 0.00222 0.0
O1278 O 0.64403 0.67353 0.07983 0.0
O1279 O 0.70832 0.66644 0.01897 0.0
O1280 O 0.68979 0.66335 0.05277 0.0
C1281 C 0.65131 0.71781 0.01566 0.0
C1282 C 0.64014 0.6392 0.00964 0.0
O1283 O 0.63895 0.64468 0.03136 0.0
O1284 O 0.65341 0.65083 0.99582 0.0
C1285 C 0.62354 0.67891 0.08701 0.0
O1286 O 0.60711 0.68465 0.07168 0.0
C1287 C 0.70847 0.66085 0.04059 0.0
Zn1288 Zn 0.55592 0.42899 0.2767 0.0
Zn1289 Zn 0.57066 0.3912 0.30081 0.0
O1290 O 0.53713 0.38381 0.28941 0.0
O1291 O 0.52304 0.41557 0.27226 0.0
O1292 O 0.57725 0.36496 0.32338 0.0
O1293 O 0.5649 0.45118 0.30348 0.0
O1294 O 0.57856 0.41957 0.3212 0.0
C1295 C 0.52033 0.3944 0.27887 0.0
C1296 C 0.59717 0.40318 0.25713 0.0
O1297 O 0.59546 0.38982 0.27505 0.0
O1298 O 0.58245 0.41975 0.25374 0.0
C1299 C 0.59488 0.35121 0.32226 0.0
O1300 O 0.60946 0.3528 0.30431 0.0
C1301 C 0.57606 0.44184 0.32045 0.0
Zn1302 Zn 0.17625 0.81897 0.98389 0.0
Zn1303 Zn 0.15588 0.82288 0.94325 0.0
O1304 O 0.14524 0.79081 0.95776 0.0
O1305 O 0.16777 0.78494 0.98872 0.0
O1306 O 0.14234 0.82247 0.91068 0.0
O1307 O 0.20802 0.82891 0.97121 0.0
O1308 O 0.19057 0.83175 0.93675 0.0
C1309 C 0.15171 0.77781 0.97498 0.0
C1310 C 0.14069 0.85661 0.98065 0.0
O1311 O 0.14001 0.85111 0.95892 0.0
O1312 O 0.15345 0.84484 0.99482 0.0
C1313 C 0.12217 0.81393 0.90596 0.0
O1314 O 0.10951 0.80459 0.92299 0.0
C1315 C 0.20892 0.83416 0.94953 0.0
Zn1316 Zn 0.43397 0.91288 0.22555 0.0
Zn1317 Zn 0.41389 0.87462 0.20681 0.0
O1318 O 0.44864 0.86589 0.21235 0.0
O1319 O 0.46637 0.89772 0.22549 0.0
O1320 O 0.40215 0.84761 0.18773 0.0
O1321 O 0.4222 0.93377 0.19866 0.0
O1322 O 0.40433 0.90202 0.18554 0.0
C1323 C 0.46731 0.87627 0.21936 0.0
C1324 C 0.39522 0.89073 0.25311 0.0
O1325 O 0.39359 0.87611 0.23619 0.0
O1326 O 0.41099 0.90667 0.25293 0.0
C1327 C 0.38043 0.84744 0.18226 0.0
O1328 O 0.3663 0.86293 0.19215 0.0
C1329 C 0.40827 0.92404 0.18412 0.0
Zn1330 Zn 0.04507 0.07403 0.70593 0.0
Zn1331 Zn 0.0684 0.11448 0.69918 0.0
O1332 O 0.03438 0.12464 0.70517 0.0
O1333 O 0.01475 0.0921 0.71283 0.0
O1334 O 0.08348 0.1436 0.68642 0.0
O1335 O 0.05264 0.06097 0.67349 0.0
O1336 O 0.07649 0.09139 0.67278 0.0
C1337 C 0.0152 0.11434 0.71066 0.0
C1338 C 0.08651 0.08435 0.73734 0.0
O1339 O 0.08686 0.10492 0.72838 0.0
O1340 O 0.07136 0.06926 0.73057 0.0
C1341 C 0.10531 0.1422 0.68162 0.0
O1342 O 0.1171 0.12353 0.68874 0.0
C1343 C 0.06965 0.07193 0.66399 0.0
C1344 C 0.11661 0.22787 0.34684 0.0
C1345 C 0.10553 0.23806 0.32704 0.0
H1346 H 0.12128 0.22962 0.38429 0.0
C1347 C 0.0987 0.2619 0.32834 0.0
H1348 H 0.12275 0.20978 0.34635 0.0
C1349 C 0.09838 0.27349 0.35016 0.0
C1350 C 0.10483 0.26129 0.37076 0.0
H1351 H 0.09053 0.27053 0.31336 0.0
H1352 H 0.09016 0.29071 0.35125 0.0
C1353 C 0.11573 0.23919 0.36868 0.0
C1354 C 0.99374 0.80967 0.6287 0.0
C1355 C 0.9832 0.79048 0.64032 0.0
H1356 H 0.01935 0.82074 0.60307 0.0
C1357 C 0.98801 0.76752 0.63249 0.0
H1358 H 0.99013 0.82757 0.6343 0.0
C1359 C 0.00415 0.76367 0.61443 0.0
C1360 C 0.01623 0.78259 0.60395 0.0
H1361 H 0.97978 0.7524 0.6408 0.0
H1362 H 0.00825 0.7457 0.60982 0.0
C1363 C 0.01034 0.80574 0.61077 0.0
C1364 C 0.37364 0.76714 0.85947 0.0
C1365 C 0.38281 0.7442 0.86052 0.0
H1366 H 0.36893 0.79797 0.83842 0.0
C1367 C 0.38795 0.73235 0.83939 0.0
H1368 H 0.36914 0.77648 0.87552 0.0
C1369 C 0.38836 0.74484 0.81806 0.0
C1370 C 0.38363 0.76923 0.81785 0.0
H1371 H 0.39483 0.71452 0.83974 0.0
H1372 H 0.39573 0.73624 0.80268 0.0
C1373 C 0.37347 0.7794 0.83811 0.0
C1374 C 0.48314 0.1498 0.12432 0.0
C1375 C 0.50612 0.15883 0.12362 0.0
H1376 H 0.45009 0.14672 0.10663 0.0
C1377 C 0.51489 0.16822 0.10245 0.0
H1378 H 0.47609 0.14254 0.14054 0.0
C1379 C 0.49983 0.17135 0.08312 0.0
C1380 C 0.47596 0.16469 0.08469 0.0
H1381 H 0.5326 0.17542 0.10167 0.0
H1382 H 0.50626 0.18092 0.06788 0.0
C1383 C 0.46832 0.15221 0.1048 0.0
C1384 C 0.10557 0.73977 0.17364 0.0
C1385 C 0.11061 0.76408 0.17398 0.0
H1386 H 0.0991 0.70962 0.15182 0.0
C1387 C 0.12122 0.77422 0.15391 0.0
H1388 H 0.09786 0.73121 0.18889 0.0
C1389 C 0.12124 0.76204 0.13253 0.0
C1390 C 0.11181 0.73922 0.13128 0.0
H1391 H 0.12602 0.79273 0.15373 0.0
H1392 H 0.12613 0.77139 0.11657 0.0
C1393 C 0.10619 0.72736 0.1523 0.0
C1394 C 0.48372 0.80987 0.3848 0.0
C1395 C 0.48072 0.78695 0.39399 0.0
H1396 H 0.50142 0.83159 0.35919 0.0
C1397 C 0.49581 0.76894 0.38616 0.0
H1398 H 0.47244 0.8242 0.39049 0.0
C1399 C 0.51177 0.77303 0.36795 0.0
C1400 C 0.51348 0.79541 0.35755 0.0
H1401 H 0.49429 0.75123 0.39296 0.0
H1402 H 0.52228 0.75842 0.36146 0.0
C1403 C 0.50018 0.81411 0.36682 0.0
C1404 C 0.39988 0.27694 0.63858 0.0
C1405 C 0.39311 0.26569 0.61758 0.0
H1406 H 0.40872 0.27231 0.67501 0.0
C1407 C 0.38324 0.24308 0.61869 0.0
H1408 H 0.40749 0.29447 0.63812 0.0
C1409 C 0.38317 0.23064 0.63994 0.0
C1410 C 0.39417 0.24022 0.66009 0.0
H1411 H 0.37766 0.23418 0.60272 0.0
H1412 H 0.37753 0.21238 0.63962 0.0
C1413 C 0.40051 0.26422 0.65977 0.0
C1414 C 0.98027 0.20996 0.88883 0.0
C1415 C 0.0003 0.19545 0.89021 0.0
H1416 H 0.9496 0.21947 0.86878 0.0
C1417 C 0.00177 0.17563 0.87532 0.0
H1418 H 0.97833 0.22487 0.90058 0.0
C1419 C 0.98492 0.17212 0.85757 0.0
C1420 C 0.96667 0.18852 0.85442 0.0
H1421 H 0.01691 0.16398 0.87603 0.0
H1422 H 0.98728 0.15778 0.84517 0.0
C1423 C 0.96384 0.20685 0.87074 0.0
C1424 C 0.33872 0.07652 0.22336 0.0
C1425 C 0.34343 0.07193 0.19948 0.0
H1426 H 0.35319 0.08625 0.25695 0.0
C1427 C 0.36602 0.07713 0.19045 0.0
H1428 H 0.32152 0.07266 0.23079 0.0
C1429 C 0.38421 0.08411 0.2055 0.0
C1430 C 0.37988 0.08698 0.22961 0.0
H1431 H 0.3703 0.07373 0.17214 0.0
H1432 H 0.40193 0.08598 0.19854 0.0
C1433 C 0.35679 0.08433 0.23828 0.0
C1434 C 0.13993 0.10566 0.51237 0.0
C1435 C 0.13719 0.1271 0.50023 0.0
H1436 H 0.14637 0.06862 0.50917 0.0
C1437 C 0.13123 0.1266 0.47622 0.0
H1438 H 0.14423 0.10552 0.53099 0.0
C1439 C 0.13185 0.10538 0.46378 0.0
C1440 C 0.13941 0.08454 0.47504 0.0
H1441 H 0.1285 0.14288 0.46657 0.0
H1442 H 0.12973 0.10602 0.4448 0.0
C1443 C 0.14106 0.08443 0.49981 0.0
C1444 C 0.14856 0.92576 0.71441 0.0
C1445 C 0.1408 0.93055 0.69135 0.0
H1446 H 0.13909 0.91348 0.74898 0.0
C1447 C 0.11763 0.9243 0.68491 0.0
H1448 H 0.16628 0.93048 0.71985 0.0
C1449 C 0.10196 0.91532 0.7017 0.0
C1450 C 0.10941 0.91158 0.72498 0.0
H1451 H 0.11105 0.92796 0.66734 0.0
H1452 H 0.08375 0.91218 0.69673 0.0
C1453 C 0.13306 0.91598 0.73101 0.0
C1454 C 0.35169 0.92647 0.00282 0.0
C1455 C 0.35589 0.92762 0.97838 0.0
H1456 H 0.34962 0.90383 0.03292 0.0
C1457 C 0.37004 0.91002 0.96804 0.0
H1458 H 0.34151 0.94007 0.01158 0.0
C1459 C 0.37434 0.88903 0.9802 0.0
C1460 C 0.36518 0.88586 0.00298 0.0
H1461 H 0.37443 0.91072 0.94946 0.0
H1462 H 0.38178 0.87424 0.97064 0.0
C1463 C 0.3564 0.90559 0.01513 0.0
C1464 C 0.33565 0.90371 0.27854 0.0
C1465 C 0.3417 0.90967 0.30181 0.0
H1466 H 0.34817 0.8919 0.24486 0.0
C1467 C 0.36462 0.90457 0.31 0.0
H1468 H 0.31816 0.90748 0.27178 0.0
C1469 C 0.3819 0.89643 0.29445 0.0
C1470 C 0.3763 0.89233 0.27075 0.0
H1471 H 0.36989 0.90904 0.32782 0.0
H1472 H 0.39995 0.89478 0.30058 0.0
C1473 C 0.35279 0.89475 0.26319 0.0
C1474 C 0.35811 0.07863 0.48708 0.0
C1475 C 0.36017 0.07749 0.51178 0.0
H1476 H 0.3581 0.10125 0.4569 0.0
C1477 C 0.37261 0.09559 0.5234 0.0
H1478 H 0.3493 0.0647 0.47741 0.0
C1479 C 0.37727 0.11677 0.51169 0.0
C1480 C 0.37021 0.11969 0.48814 0.0
H1481 H 0.37535 0.09497 0.54231 0.0
H1482 H 0.38333 0.13175 0.5219 0.0
C1483 C 0.36321 0.0997 0.47526 0.0
C1484 C 0.1327 0.08253 0.78592 0.0
C1485 C 0.14201 0.05971 0.78278 0.0
H1486 H 0.10787 0.10858 0.77362 0.0
C1487 C 0.13367 0.04589 0.76398 0.0
H1488 H 0.13868 0.09351 0.80036 0.0
C1489 C 0.11558 0.05408 0.74949 0.0
C1490 C 0.10581 0.07655 0.75297 0.0
H1491 H 0.14023 0.02817 0.76115 0.0
H1492 H 0.10914 0.04273 0.73553 0.0
C1493 C 0.11499 0.09107 0.77081 0.0
C1494 C 0.12269 0.90262 0.0237 0.0
C1495 C 0.13293 0.92248 0.0128 0.0
H1496 H 0.11768 0.86523 0.02183 0.0
C1497 C 0.13725 0.9216 0.98837 0.0
H1498 H 0.11848 0.90284 0.04235 0.0
C1499 C 0.13621 0.89999 0.97644 0.0
C1500 C 0.13091 0.87923 0.9889 0.0
H1501 H 0.14471 0.93665 0.97925 0.0
H1502 H 0.14272 0.89911 0.95849 0.0
C1503 C 0.12227 0.88097 0.01199 0.0
C1504 C 0.24467 0.38506 0.02772 0.0
C1505 C 0.24888 0.39085 0.05138 0.0
H1506 H 0.22504 0.36445 0.00346 0.0
C1507 C 0.23722 0.37808 0.06918 0.0
H1508 H 0.25363 0.3943 0.01358 0.0
C1509 C 0.2206 0.36069 0.06323 0.0
C1510 C 0.21586 0.35553 0.03942 0.0
H1511 H 0.2403 0.3821 0.0876 0.0
H1512 H 0.21098 0.35186 0.07718 0.0
C1513 C 0.22853 0.36757 0.02187 0.0
C1514 C 0.72936 0.12094 0.97169 0.0
C1515 C 0.71754 0.13476 0.95491 0.0
H1516 H 0.7538 0.09299 0.97812 0.0
C1517 C 0.72282 0.13158 0.93087 0.0
H1518 H 0.72525 0.12257 0.99026 0.0
C1519 C 0.73949 0.11465 0.92386 0.0
C1520 C 0.75056 0.10021 0.94076 0.0
H1521 H 0.71371 0.14179 0.91752 0.0
H1522 H 0.74313 0.11235 0.90525 0.0
C1523 C 0.74546 0.10374 0.9647 0.0
C1524 C 0.12165 0.43689 0.17977 0.0
C1525 C 0.09823 0.443 0.18545 0.0
H1526 H 0.15592 0.44923 0.16939 0.0
C1527 C 0.09068 0.46631 0.18171 0.0
H1528 H 0.1281 0.41913 0.1827 0.0
C1529 C 0.10653 0.48336 0.17333 0.0
C1530 C 0.13029 0.47748 0.16935 0.0
H1531 H 0.0728 0.47152 0.18605 0.0
H1532 H 0.1006 0.50144 0.17146 0.0
C1533 C 0.13763 0.45407 0.17223 0.0
C1534 C 0.74095 0.87438 0.45559 0.0
C1535 C 0.74126 0.88388 0.43276 0.0
H1536 H 0.75672 0.85047 0.48004 0.0
C1537 C 0.75694 0.87457 0.41601 0.0
H1538 H 0.72869 0.881 0.46868 0.0
C1539 C 0.77341 0.85729 0.42265 0.0
C1540 C 0.77395 0.84871 0.44598 0.0
H1541 H 0.75734 0.88155 0.39822 0.0
H1542 H 0.78634 0.85145 0.40986 0.0
C1543 C 0.75686 0.85676 0.46202 0.0
C1544 C 0.89465 0.02952 0.178 0.0
C1545 C 0.90143 0.032 0.20176 0.0
H1546 H 0.87236 0.01147 0.15316 0.0
C1547 C 0.89131 0.01697 0.21869 0.0
H1548 H 0.90203 0.04095 0.16457 0.0
C1549 C 0.87393 0.00078 0.2123 0.0
C1550 C 0.86657 -0.0012 0.18874 0.0
H1551 H 0.8959 0.01856 0.23716 0.0
H1552 H 0.86604 0.98993 0.22592 0.0
C1553 C 0.87758 0.01281 0.17149 0.0
C1554 C 0.24588 0.6212 0.58839 0.0
C1555 C 0.22728 0.61669 0.57277 0.0
H1556 H 0.27631 0.64242 0.59553 0.0
C1557 C 0.22226 0.63285 0.55474 0.0
H1558 H 0.24999 0.60883 0.60238 0.0
C1559 C 0.23706 0.65212 0.55086 0.0
C1560 C 0.25738 0.65528 0.56473 0.0
H1561 H 0.20784 0.62962 0.54257 0.0
H1562 H 0.23374 0.66324 0.53566 0.0
C1563 C 0.26084 0.6405 0.58446 0.0
C1564 C 0.09947 0.51653 0.29413 0.0
C1565 C 0.09013 0.53404 0.30898 0.0
H1566 H 0.12482 0.48894 0.28987 0.0
C1567 C 0.09836 0.53554 0.33237 0.0
H1568 H 0.09375 0.51502 0.27595 0.0
C1569 C 0.11604 0.52021 0.34047 0.0
C1570 C 0.12628 0.50376 0.32504 0.0
H1571 H 0.09161 0.54897 0.34415 0.0
H1572 H 0.12234 0.52183 0.35844 0.0
C1573 C 0.11755 0.50181 0.30197 0.0
C1574 C 0.36728 0.46287 0.84465 0.0
C1575 C 0.37022 0.48723 0.84218 0.0
H1576 H 0.38219 0.42877 0.83922 0.0
C1577 C 0.39225 0.49625 0.83529 0.0
H1578 H 0.35033 0.45563 0.84979 0.0
C1579 C 0.41039 0.48092 0.82849 0.0
C1580 C 0.40681 0.45639 0.82902 0.0
H1581 H 0.39471 0.51507 0.83306 0.0
H1582 H 0.42647 0.48824 0.82119 0.0
C1583 C 0.38561 0.44756 0.83861 0.0
C1584 C 0.88036 0.75084 0.63269 0.0
C1585 C 0.89065 0.72852 0.63018 0.0
H1586 H 0.87428 0.77998 0.65564 0.0
C1587 C 0.89669 0.71566 0.65049 0.0
H1588 H 0.87514 0.76089 0.61728 0.0
C1589 C 0.8968 0.72681 0.67253 0.0
C1590 C 0.89084 0.75085 0.67424 0.0
H1591 H 0.90443 0.69825 0.64899 0.0
H1592 H 0.90487 0.71768 0.68726 0.0
C1593 C 0.8798 0.76169 0.65477 0.0
C1594 C 0.00668 0.16828 0.36909 0.0
C1595 C 0.0203 0.18769 0.36198 0.0
H1596 H 0.97888 0.15606 0.39166 0.0
C1597 C 0.01963 0.20851 0.37525 0.0
H1598 H 0.0072 0.15195 0.35919 0.0
C1599 C 0.00419 0.2106 0.39423 0.0
C1600 C 0.98846 0.19226 0.39978 0.0
H1601 H 0.03051 0.22349 0.37044 0.0
H1602 H 0.00351 0.2272 0.40352 0.0
C1603 C 0.99066 0.17061 0.38779 0.0
C1604 C 0.57023 0.25905 0.15743 0.0
C1605 C 0.57907 0.23587 0.1571 0.0
H1606 H 0.56392 0.29051 0.13736 0.0
C1607 C 0.59355 0.22888 0.13814 0.0
H1608 H 0.55911 0.26501 0.17179 0.0
C1609 C 0.59585 0.24332 0.1183 0.0
C1610 C 0.5845 0.26523 0.11757 0.0
H1611 H 0.60073 0.21119 0.1373 0.0
H1612 H 0.60469 0.2365 0.10279 0.0
C1613 C 0.57296 0.27367 0.13774 0.0
C1614 C 0.50659 0.813 0.88006 0.0
C1615 C 0.51553 0.78994 0.88217 0.0
H1616 H 0.48364 0.83639 0.86096 0.0
C1617 C 0.50722 0.7725 0.8667 0.0
H1618 H 0.51286 0.8269 0.89156 0.0
C1619 C 0.49103 0.77793 0.84909 0.0
C1620 C 0.48253 0.80101 0.84647 0.0
H1621 H 0.51421 0.75484 0.86726 0.0
H1622 H 0.48546 0.76399 0.83726 0.0
C1623 C 0.49002 0.81845 0.86247 0.0
C1624 C 0.86463 0.22521 0.83261 0.0
C1625 C 0.87675 0.23576 0.81365 0.0
H1626 H 0.85772 0.22685 0.86968 0.0
C1627 C 0.88177 0.26004 0.81496 0.0
H1628 H 0.85962 0.20678 0.83193 0.0
C1629 C 0.88021 0.27173 0.83663 0.0
C1630 C 0.87363 0.25914 0.85697 0.0
H1631 H 0.8904 0.269 0.80044 0.0
H1632 H 0.88763 0.28928 0.83804 0.0
C1633 C 0.86352 0.23671 0.85435 0.0
C1634 C 0.48623 0.16427 0.61447 0.0
C1635 C 0.47226 0.18353 0.62122 0.0
H1636 H 0.51436 0.15229 0.59222 0.0
C1637 C 0.47237 0.20406 0.60744 0.0
H1638 H 0.48622 0.14821 0.62484 0.0
C1639 C 0.48788 0.20624 0.5885 0.0
C1640 C 0.50411 0.18817 0.58345 0.0
H1641 H 0.46136 0.21898 0.61215 0.0
H1642 H 0.48858 0.22298 0.57928 0.0
C1643 C 0.50221 0.16661 0.59573 0.0
C1644 C 0.61423 0.76559 0.34311 0.0
C1645 C 0.60383 0.75461 0.32338 0.0
H1646 H 0.61858 0.7645 0.38062 0.0
C1647 C 0.59845 0.73041 0.32487 0.0
H1648 H 0.61926 0.78402 0.34245 0.0
C1649 C 0.59863 0.71903 0.34681 0.0
C1650 C 0.60417 0.73181 0.3673 0.0
H1651 H 0.59085 0.72121 0.30995 0.0
H1652 H 0.59138 0.70139 0.34808 0.0
C1653 C 0.61379 0.75447 0.36508 0.0
C1654 C 0.98762 0.77168 0.12391 0.0
C1655 C 0.97997 0.7895 0.1085 0.0
H1656 H 0.00855 0.76221 0.15365 0.0
C1657 C 0.98922 0.81237 0.11124 0.0
H1658 H 0.98041 0.75416 0.12287 0.0
C1659 C 0.00551 0.8172 0.12929 0.0
C1660 C 0.01238 0.79933 0.14514 0.0
H1661 H 0.98346 0.82659 0.09983 0.0
H1662 H 0.01222 0.83498 0.13122 0.0
C1663 C 0.00348 0.77648 0.14197 0.0
C1664 C 0.63367 0.88508 0.80287 0.0
C1665 C 0.6548 0.89195 0.79171 0.0
H1666 H 0.59703 0.8772 0.79817 0.0
C1667 C 0.65723 0.88777 0.76738 0.0
H1668 H 0.63137 0.88737 0.8217 0.0
C1669 C 0.6375 0.8815 0.75391 0.0
C1670 C 0.61521 0.87958 0.76466 0.0
H1671 H 0.67342 0.89231 0.75829 0.0
H1672 H 0.63916 0.88148 0.73487 0.0
C1673 C 0.61391 0.87919 0.78938 0.0
C1674 C 0.87155 0.87646 0.53011 0.0
C1675 C 0.86625 0.8769 0.50595 0.0
H1676 H 0.87006 0.89506 0.56275 0.0
C1677 C 0.86183 0.8987 0.49501 0.0
H1678 H 0.87548 0.85992 0.53888 0.0
C1679 C 0.85823 0.91888 0.50877 0.0
C1680 C 0.85913 0.91732 0.53353 0.0
H1681 H 0.85794 0.89957 0.47632 0.0
H1682 H 0.8516 0.93464 0.50022 0.0
C1683 C 0.86846 0.89669 0.54378 0.0
C1684 C 0.83339 0.10755 0.26395 0.0
C1685 C 0.83503 0.10457 0.28854 0.0
H1686 H 0.85235 0.11428 0.23203 0.0
C1687 C 0.85483 0.1139 0.3003 0.0
H1688 H 0.81817 0.10109 0.25435 0.0
C1689 C 0.87456 0.12119 0.28745 0.0
C1690 C 0.87451 0.11972 0.26274 0.0
H1691 H 0.85643 0.11256 0.3193 0.0
H1692 H 0.89073 0.12514 0.29689 0.0
C1693 C 0.85305 0.11521 0.2511 0.0
C1694 C 0.63165 0.08658 -0.00075 0.0
C1695 C 0.62578 0.10782 0.01061 0.0
H1696 H 0.64581 0.05186 0.00354 0.0
C1697 C 0.62175 0.10752 0.03504 0.0
H1698 H 0.63459 0.08617 0.98038 0.0
C1699 C 0.6279 0.08771 0.04835 0.0
C1700 C 0.63868 0.06822 0.03739 0.0
H1701 H 0.61674 0.12353 0.04419 0.0
H1702 H 0.62734 0.0891 0.0674 0.0
C1703 C 0.63814 0.06683 0.01261 0.0
C1704 C 0.64693 0.11416 0.69412 0.0
C1705 C 0.66603 0.10428 0.7066 0.0
H1706 H 0.61107 0.12586 0.6961 0.0
C1707 C 0.66658 0.10674 0.73128 0.0
H1708 H 0.64619 0.11322 0.67505 0.0
C1709 C 0.64646 0.11445 0.74337 0.0
C1710 C 0.62563 0.11954 0.73084 0.0
H1711 H 0.68123 0.09982 0.74145 0.0
H1712 H 0.64625 0.1131 0.76243 0.0
C1713 C 0.62674 0.1215 0.70619 0.0
C1714 C 0.63007 0.89921 0.45192 0.0
C1715 C 0.64091 0.91916 0.46198 0.0
H1716 H 0.6206 0.86304 0.45703 0.0
C1717 C 0.64213 0.92072 0.48673 0.0
H1718 H 0.62817 0.89768 0.43296 0.0
C1719 C 0.63733 0.90086 0.50061 0.0
C1720 C 0.6314 0.87936 0.48979 0.0
H1721 H 0.64989 0.93601 0.49514 0.0
H1722 H 0.64155 0.9015 0.51923 0.0
C1723 C 0.62569 0.87928 0.46571 0.0
C1724 C 0.86348 0.88329 0.19576 0.0
C1725 C 0.8428 0.89086 0.20727 0.0
H1726 H 0.90008 0.87482 0.19973 0.0
C1727 C 0.84094 0.88739 0.23176 0.0
H1728 H 0.86532 0.88502 0.17682 0.0
C1729 C 0.8609 0.88111 0.2449 0.0
C1730 C 0.88286 0.87847 0.23362 0.0
H1731 H 0.82508 0.89247 0.24115 0.0
H1732 H 0.85976 0.88165 0.26396 0.0
C1733 C 0.88348 0.87737 0.2089 0.0
C1734 C 0.87191 0.11212 0.96268 0.0
C1735 C 0.86733 0.11289 0.98699 0.0
H1736 H 0.86793 0.09257 0.93078 0.0
C1737 C 0.86226 0.09171 -0.00113 0.0
H1738 H 0.87634 0.12811 0.95316 0.0
C1739 C 0.857 0.07131 0.98598 0.0
C1740 C 0.85691 0.07201 0.96117 0.0
H1741 H 0.85895 0.09168 0.01769 0.0
H1742 H 0.84984 0.05626 0.99533 0.0
C1743 C 0.86703 0.09168 0.94986 0.0
C1744 C 0.74312 0.6196 0.92919 0.0
C1745 C 0.73524 0.60427 0.94708 0.0
H1746 H 0.76597 0.64854 0.92015 0.0
C1747 C 0.74297 0.60799 0.97028 0.0
H1748 H 0.73735 0.61722 0.91113 0.0
C1749 C 0.75879 0.62601 0.9754 0.0
C1750 C 0.76748 0.64083 0.95757 0.0
H1751 H 0.73713 0.59669 0.98456 0.0
H1752 H 0.76531 0.62738 0.99318 0.0
C1753 C 0.75933 0.63761 0.93436 0.0
C1754 C 0.23736 0.88813 0.02214 0.0
C1755 C 0.23108 0.89316 0.04552 0.0
H1756 H 0.25874 0.86796 -0.00095 0.0
C1757 C 0.24054 0.87928 0.0638 0.0
H1758 H 0.23009 0.89822 0.00761 0.0
C1759 C 0.25717 0.86164 0.05875 0.0
C1760 C 0.26417 0.85735 0.03532 0.0
H1761 H 0.23582 0.88267 0.082 0.0
H1762 H 0.26515 0.85199 0.0732 0.0
C1763 C 0.25354 0.8704 0.01715 0.0
C1764 C 0.86354 0.55305 0.86236 0.0
C1765 C 0.86691 0.52861 0.86421 0.0
H1766 H 0.87868 0.58604 0.85248 0.0
C1767 C 0.89006 0.51963 0.86395 0.0
H1768 H 0.84592 0.56049 0.86299 0.0
C1769 C 0.90888 0.5342 0.8574 0.0
C1770 C 0.90471 0.55789 0.85134 0.0
H1771 H 0.89324 0.50086 0.86564 0.0
H1772 H 0.92598 0.5262 0.8543 0.0
C1773 C 0.8824 0.56769 0.8563 0.0
C1774 C 0.25433 0.15612 0.5346 0.0
C1775 C 0.23503 0.15834 0.55 0.0
H1776 H 0.28406 0.13509 0.52416 0.0
C1777 C 0.23389 0.14344 0.56989 0.0
H1778 H 0.25609 0.16771 0.5195 0.0
C1779 C 0.25015 0.12503 0.57272 0.0
C1780 C 0.26757 0.12118 0.5556 0.0
H1781 H 0.21938 0.14476 0.58226 0.0
H1782 H 0.24793 0.11273 0.58719 0.0
C1783 C 0.27027 0.13748 0.53719 0.0
C1784 C 0.08332 0.9679 0.83706 0.0
C1785 C 0.08827 0.94382 0.83383 0.0
H1786 H 0.09736 0.00184 0.84581 0.0
C1787 C 0.10963 0.93469 0.84271 0.0
H1788 H 0.06692 0.97542 0.8307 0.0
C1789 C 0.12721 0.94989 0.85086 0.0
C1790 C 0.12339 0.9743 0.85101 0.0
H1791 H 0.11392 0.91617 0.84089 0.0
H1792 H 0.1445 0.94276 0.8549 0.0
C1793 C 0.10073 0.98303 0.84585 0.0
C1794 C 0.73365 0.3516 0.42371 0.0
C1795 C 0.73507 0.33819 0.44462 0.0
H1796 H 0.74769 0.38076 0.40384 0.0
C1797 C 0.75434 0.34181 0.45979 0.0
H1798 H 0.71909 0.34921 0.41154 0.0
C1799 C 0.77023 0.36017 0.45561 0.0
C1800 C 0.76755 0.37482 0.43588 0.0
H1801 H 0.75627 0.33145 0.47573 0.0
H1802 H 0.78417 0.36351 0.46828 0.0
C1803 C 0.74991 0.36973 0.4193 0.0
C1804 C 0.89123 0.48546 0.63236 0.0
C1805 C 0.86857 0.47547 0.63072 0.0
H1806 H 0.92704 0.48002 0.64308 0.0
C1807 C 0.86628 0.45084 0.63113 0.0
H1808 H 0.89356 0.50442 0.63177 0.0
C1809 C 0.88558 0.43678 0.63716 0.0
C1810 C 0.90719 0.4473 0.64353 0.0
H1811 H 0.84907 0.44267 0.62941 0.0
H1812 H 0.88261 0.4181 0.63984 0.0
C1813 C 0.91047 0.47144 0.63887 0.0
C1814 C 0.6203 0.5476 0.16147 0.0
C1815 C 0.59815 0.53924 0.16906 0.0
H1816 H 0.65564 0.53847 0.15146 0.0
C1817 C 0.59321 0.51502 0.16718 0.0
H1818 H 0.62474 0.56614 0.16277 0.0
C1819 C 0.61081 0.49927 0.15992 0.0
C1820 C 0.63369 0.50749 0.15509 0.0
H1821 H 0.57634 0.50808 0.1729 0.0
H1822 H 0.60717 0.48051 0.16035 0.0
C1823 C 0.63806 0.5318 0.155 0.0
C1824 C 0.62696 0.73348 0.8552 0.0
C1825 C 0.61727 0.75614 0.85745 0.0
H1826 H 0.62888 0.70243 0.83409 0.0
C1827 C 0.60922 0.76777 0.83706 0.0
H1828 H 0.63384 0.72433 0.87052 0.0
C1829 C 0.60593 0.75505 0.81617 0.0
C1830 C 0.61075 0.73071 0.81566 0.0
H1831 H 0.60206 0.78545 0.83813 0.0
H1832 H 0.59633 0.7634 0.80189 0.0
C1833 C 0.62407 0.72092 0.83422 0.0
C1834 C 0.50438 0.34973 0.12071 0.0
C1835 C 0.4813 0.34101 0.1216 0.0
H1836 H 0.53627 0.35208 0.10094 0.0
C1837 C 0.47103 0.33157 0.10114 0.0
H1838 H 0.51257 0.35701 0.13637 0.0
C1839 C 0.48477 0.32801 0.08093 0.0
C1840 C 0.5088 0.33423 0.08093 0.0
H1841 H 0.45322 0.32461 0.10159 0.0
H1842 H 0.47724 0.31832 0.06629 0.0
C1843 C 0.51787 0.3469 0.10031 0.0
C1844 C 0.89457 0.22071 0.32621 0.0
C1845 C 0.88795 0.24451 0.32371 0.0
H1846 H 0.90158 0.19272 0.35058 0.0
C1847 C 0.87516 0.25515 0.34219 0.0
H1848 H 0.9039 0.2117 0.31218 0.0
C1849 C 0.87447 0.24452 0.36441 0.0
C1850 C 0.88549 0.22267 0.36803 0.0
H1851 H 0.86903 0.27319 0.34067 0.0
H1852 H 0.86784 0.25457 0.37924 0.0
C1853 C 0.8933 0.2098 0.34834 0.0
C1854 C 0.02615 0.69591 0.61718 0.0
C1855 C 0.02216 0.67859 0.63437 0.0
H1856 H 0.0134 0.71261 0.5858 0.0
C1857 C 0.00375 0.66236 0.63126 0.0
H1858 H 0.04055 0.70836 0.6191 0.0
C1859 C 0.98781 0.66521 0.61257 0.0
C1860 C 0.99033 0.68421 0.59675 0.0
H1861 H 0.00053 0.64878 0.64433 0.0
H1862 H 0.97239 0.65392 0.61188 0.0
C1863 C 0.01063 0.69835 0.59821 0.0
C1864 C 0.58842 0.23392 0.66267 0.0
C1865 C 0.595 0.25785 0.66318 0.0
H1866 H 0.58303 0.20341 0.64107 0.0
C1867 C 0.60768 0.26708 0.64389 0.0
H1868 H 0.57894 0.22612 0.67733 0.0
C1869 C 0.60939 0.25429 0.62293 0.0
C1870 C 0.5994 0.23174 0.62131 0.0
H1871 H 0.61348 0.28529 0.64376 0.0
H1872 H 0.61646 0.26289 0.60738 0.0
C1873 C 0.59074 0.22088 0.64184 0.0
C1874 C 0.00631 0.27816 0.85054 0.0
C1875 C 0.01109 0.30154 0.84406 0.0
H1876 H 0.98646 0.25498 0.87214 0.0
C1877 C 0.00057 0.32 0.8568 0.0
H1878 H 0.01455 0.26354 0.84139 0.0
C1879 C 0.9842 0.315 0.87469 0.0
C1880 C 0.9785 0.29148 0.88029 0.0
H1881 H 0.00419 0.33821 0.85227 0.0
H1882 H 0.97532 0.3295 0.8834 0.0
C1883 C 0.99038 0.27322 0.8685 0.0
C1884 C 0.87077 0.72362 0.15524 0.0
C1885 C 0.88353 0.73417 0.17377 0.0
H1886 H 0.86177 0.72571 0.11864 0.0
C1887 C 0.88802 0.75855 0.17253 0.0
H1888 H 0.86618 0.70508 0.15591 0.0
C1889 C 0.88504 0.77055 0.15115 0.0
C1890 C 0.87764 0.75817 0.13098 0.0
H1891 H 0.89716 0.76749 0.18674 0.0
H1892 H 0.89198 0.7883 0.14966 0.0
C1893 C 0.86819 0.73546 0.13378 0.0
C1894 C 0.49134 0.66183 0.3679 0.0
C1895 C 0.47334 0.67811 0.36311 0.0
H1896 H 0.5222 0.65436 0.38843 0.0
C1897 C 0.46964 0.69704 0.37857 0.0
H1898 H 0.49433 0.64703 0.3562 0.0
C1899 C 0.48497 0.70078 0.39747 0.0
C1900 C 0.50487 0.68631 0.40055 0.0
H1901 H 0.45551 0.70955 0.3754 0.0
H1902 H 0.48222 0.71598 0.40865 0.0
C1903 C 0.50715 0.66598 0.38645 0.0
C1904 C 0.87285 0.58473 0.72676 0.0
C1905 C 0.8841 0.56939 0.74268 0.0
H1906 H 0.84834 0.58799 0.69799 0.0
C1907 C 0.87744 0.54554 0.74313 0.0
H1908 H 0.87754 0.60324 0.72621 0.0
C1909 C 0.86028 0.53703 0.7277 0.0
C1910 C 0.84974 0.55204 0.71098 0.0
H1911 H 0.88551 0.53337 0.75549 0.0
H1912 H 0.85603 0.5184 0.72822 0.0
C1913 C 0.85607 0.57604 0.71076 0.0
C1914 C 0.63821 0.57439 0.00147 0.0
C1915 C 0.63493 0.5737 0.97687 0.0
H1916 H 0.64194 0.59667 0.03175 0.0
C1917 C 0.62442 0.59333 0.9658 0.0
H1918 H 0.64579 0.55947 0.01071 0.0
C1919 C 0.62285 0.6148 0.97773 0.0
C1920 C 0.63066 0.61655 0.00113 0.0
H1921 H 0.62094 0.59321 0.94701 0.0
H1922 H 0.61821 0.63052 0.96788 0.0
C1923 C 0.63605 0.59581 0.01358 0.0
C1924 C 0.61569 0.39983 0.21766 0.0
C1925 C 0.6182 0.40216 0.24208 0.0
H1926 H 0.63145 0.40476 0.18388 0.0
C1927 C 0.64028 0.40827 0.25156 0.0
H1928 H 0.59874 0.39525 0.21006 0.0
C1929 C 0.65895 0.41447 0.2366 0.0
C1930 C 0.65585 0.41412 0.212 0.0
H1931 H 0.64244 0.41036 0.27043 0.0
H1932 H 0.67513 0.4212 0.24427 0.0
C1933 C 0.63452 0.40527 0.20274 0.0
C1934 C 0.86087 0.41245 0.50008 0.0
C1935 C 0.86285 0.41279 0.47534 0.0
H1936 H 0.86032 0.39081 0.53098 0.0
C1937 C 0.87416 0.39371 0.46417 0.0
H1938 H 0.85283 0.42707 0.50939 0.0
C1939 C 0.87805 0.37273 0.4765 0.0
C1940 C 0.87137 0.3709 0.50027 0.0
H1941 H 0.87671 0.39362 0.44523 0.0
H1942 H 0.88339 0.35719 0.46675 0.0
C1943 C 0.86521 0.39156 0.51252 0.0
C1944 C 0.87928 0.45637 0.75199 0.0
C1945 C 0.8865 0.43267 0.75235 0.0
H1946 H 0.85743 0.48301 0.76718 0.0
C1947 C 0.87595 0.41712 0.76853 0.0
H1948 H 0.88684 0.46868 0.73947 0.0
C1949 C 0.85927 0.42547 0.78484 0.0
C1950 C 0.8523 0.4493 0.78462 0.0
H1951 H 0.88113 0.39873 0.76904 0.0
H1952 H 0.85206 0.41339 0.79778 0.0
C1953 C 0.86218 0.46451 0.76769 0.0
C1954 C 0.8552 0.57428 -0.00237 0.0
C1955 C 0.85815 0.57411 0.02227 0.0
H1956 H 0.8537 0.5957 0.9666 0.0
C1957 C 0.87028 0.59304 0.03282 0.0
H1958 H 0.84651 0.55975 0.98877 0.0
C1959 C 0.87406 0.61384 0.02015 0.0
C1960 C 0.86637 0.61563 -0.00333 0.0
H1961 H 0.8736 0.59322 0.05164 0.0
H1962 H 0.88011 0.62934 0.02955 0.0
C1963 C 0.85936 0.595 0.98484 0.0
C1964 C 0.64333 0.59015 0.25619 0.0
C1965 C 0.62049 0.59498 0.26453 0.0
H1966 H 0.6778 0.577 0.2648 0.0
C1967 C 0.61628 0.59511 0.28886 0.0
H1968 H 0.64685 0.58972 0.2374 0.0
C1969 C 0.63413 0.5886 0.30457 0.0
C1970 C 0.65619 0.58088 0.29609 0.0
H1971 H 0.59873 0.59866 0.29561 0.0
H1972 H 0.62976 0.58726 0.32312 0.0
C1973 C 0.66101 0.58283 0.27184 0.0
C1974 C 0.64162 0.38801 0.48591 0.0
C1975 C 0.63845 0.36664 0.49807 0.0
H1976 H 0.64893 0.42489 0.48909 0.0
C1977 C 0.63252 0.36728 0.52207 0.0
H1978 H 0.64596 0.38803 0.4673 0.0
C1979 C 0.63361 0.38851 0.5345 0.0
C1980 C 0.64164 0.40917 0.52323 0.0
H1981 H 0.62952 0.35107 0.53175 0.0
H1982 H 0.6315 0.38792 0.55348 0.0
C1983 C 0.64325 0.40922 0.49845 0.0
C1984 C 0.75179 0.88392 0.53469 0.0
C1985 C 0.75661 0.88799 0.55863 0.0
H1986 H 0.73172 0.8647 0.50943 0.0
C1987 C 0.74569 0.87365 0.57571 0.0
H1988 H 0.76007 0.89446 0.52106 0.0
C1989 C 0.72933 0.85634 0.56889 0.0
C1990 C 0.72416 0.85274 0.54489 0.0
H1991 H 0.74918 0.87635 0.5943 0.0
H1992 H 0.72031 0.84621 0.58236 0.0
C1993 C 0.73589 0.86647 0.52795 0.0
C1994 C 0.25441 0.62338 0.41374 0.0
C1995 C 0.27062 0.61731 0.43141 0.0
H1996 H 0.22559 0.64589 0.40411 0.0
C1997 C 0.27381 0.63241 0.45071 0.0
H1998 H 0.25183 0.61194 0.39866 0.0
C1999 C 0.25929 0.65202 0.45365 0.0
C2000 C 0.24086 0.65648 0.43764 0.0
H2001 H 0.28654 0.62816 0.46436 0.0
H2002 H 0.26109 0.66228 0.46966 0.0
C2003 C 0.23951 0.64288 0.41686 0.0
C2004 C 0.60584 0.96948 0.67633 0.0
C2005 C 0.59862 0.96718 0.69997 0.0
H2006 H 0.62973 0.98616 0.65202 0.0
C2007 C 0.60992 0.98082 0.71729 0.0
H2008 H 0.59759 0.95904 0.66263 0.0
C2009 C 0.62869 0.99559 0.71137 0.0
C2010 C 0.63631 -0.00247 0.6879 0.0
H2011 H 0.60506 0.97918 0.73568 0.0
H2012 H 0.63734 0.00546 0.72526 0.0
C2013 C 0.62432 0.98483 0.67029 0.0
C2014 C 0.24107 0.34996 0.95714 0.0
C2015 C 0.26076 0.34604 0.94262 0.0
H2016 H 0.21101 0.37186 0.96429 0.0
C2017 C 0.26283 0.35906 0.92152 0.0
H2018 H 0.23865 0.33984 0.97316 0.0
C2019 C 0.24675 0.37711 0.9163 0.0
C2020 C 0.22864 0.38253 0.93224 0.0
H2021 H 0.2777 0.3564 0.90982 0.0
H2022 H 0.24941 0.38781 0.90068 0.0
C2023 C 0.22534 0.36828 0.95217 0.0
C2024 C 0.38944 0.49766 0.6596 0.0
C2025 C 0.36694 0.50679 0.65453 0.0
H2026 H 0.4245 0.50534 0.67175 0.0
C2027 C 0.36374 0.53123 0.65338 0.0
H2028 H 0.39216 0.47878 0.66079 0.0
C2029 C 0.38236 0.5464 0.65882 0.0
C2030 C 0.40422 0.53733 0.66651 0.0
H2031 H 0.34648 0.53857 0.6496 0.0
H2032 H 0.37885 0.56518 0.6592 0.0
C2033 C 0.4079 0.51283 0.66587 0.0
C2034 C 0.75469 0.11545 0.07365 0.0
C2035 C 0.74432 0.10022 0.05701 0.0
H2036 H 0.77887 0.14414 0.07944 0.0
C2037 C 0.74902 0.10375 0.03299 0.0
H2038 H 0.75129 0.11317 0.09231 0.0
C2039 C 0.76402 0.12176 0.02568 0.0
C2040 C 0.77514 0.13647 0.04218 0.0
H2041 H 0.74114 0.09245 0.01977 0.0
H2042 H 0.76785 0.12342 0.00706 0.0
C2043 C 0.77028 0.13325 0.0663 0.0
C2044 C 0.61937 0.01388 0.82239 0.0
C2045 C 0.63181 0.00018 0.80589 0.0
H2046 H 0.59367 0.04123 0.82775 0.0
C2047 C 0.62584 0.00199 0.78192 0.0
H2048 H 0.62347 0.01267 0.84102 0.0
C2049 C 0.60838 0.01766 0.77445 0.0
C2050 C 0.59675 0.0323 0.7907 0.0
H2051 H 0.63482 0.99138 0.76883 0.0
H2052 H 0.60487 0.01915 0.75574 0.0
C2053 C 0.6022 0.03005 0.81483 0.0
C2054 C 0.87311 0.99606 0.28353 0.0
C2055 C 0.86559 -0.00189 0.30703 0.0
H2056 H 0.89651 0.97936 0.25921 0.0
C2057 C 0.87765 0.9855 0.32467 0.0
H2058 H 0.86442 0.00588 0.26962 0.0
C2059 C 0.89601 0.97004 0.31865 0.0
C2060 C 0.90303 0.96747 0.29498 0.0
H2061 H 0.87233 0.98694 0.34296 0.0
H2062 H 0.90425 0.95961 0.3324 0.0
C2063 C 0.89177 0.98114 0.27762 0.0
C2064 C 0.39539 0.27467 0.13736 0.0
C2065 C 0.40799 0.26652 0.15718 0.0
H2066 H 0.38471 0.26733 0.10182 0.0
C2067 C 0.41377 0.24245 0.15861 0.0
H2068 H 0.39069 0.29312 0.13562 0.0
C2069 C 0.40965 0.22754 0.13939 0.0
C2070 C 0.40012 0.23667 0.11843 0.0
H2071 H 0.42348 0.23566 0.17363 0.0
H2072 H 0.41627 0.20962 0.14 0.0
C2073 C 0.39197 0.25997 0.11791 0.0
C2074 C 0.48106 0.67665 0.87718 0.0
C2075 C 0.48321 0.69699 0.89131 0.0
H2076 H 0.49492 0.65706 0.84781 0.0
C2077 C 0.50356 0.71097 0.88908 0.0
H2078 H 0.46564 0.66543 0.87848 0.0
C2079 C 0.52008 0.70623 0.87141 0.0
C2080 C 0.51665 0.68732 0.8559 0.0
H2081 H 0.50594 0.72648 0.89997 0.0
H2082 H 0.535 0.71798 0.86912 0.0
C2083 C 0.49772 0.67186 0.85956 0.0
C2084 C 0.10861 0.75103 0.67406 0.0
C2085 C 0.11198 0.72648 0.6755 0.0
H2086 H 0.10596 0.78077 0.651 0.0
C2087 C 0.12402 0.71516 0.65694 0.0
H2088 H 0.10005 0.7605 0.68828 0.0
C2089 C 0.12699 0.7267 0.63537 0.0
C2090 C 0.11871 0.74986 0.63247 0.0
H2091 H 0.12771 0.69643 0.65771 0.0
H2092 H 0.13283 0.71656 0.62027 0.0
C2093 C 0.11201 0.76271 0.65258 0.0
C2094 C 0.98469 0.27753 0.39989 0.0
C2095 C 0.00168 0.2952 0.40353 0.0
H2096 H 0.95765 0.26405 0.37717 0.0
C2097 C 0.00056 0.31585 0.3897 0.0
H2098 H 0.98445 0.26191 0.41082 0.0
C2099 C 0.9846 0.31744 0.37088 0.0
C2100 C 0.96989 0.2983 0.36551 0.0
H2101 H 0.01326 0.32992 0.39212 0.0
H2102 H 0.98515 0.33273 0.35941 0.0
C2103 C 0.9693 0.2788 0.38073 0.0
C2104 C 0.37077 0.72456 0.36183 0.0
C2105 C 0.37947 0.74763 0.36377 0.0
H2106 H 0.36858 0.69376 0.3404 0.0
C2107 C 0.38595 0.75976 0.34313 0.0
H2108 H 0.36516 0.71499 0.37741 0.0
C2109 C 0.38845 0.74743 0.3219 0.0
C2110 C 0.3844 0.72295 0.32125 0.0
H2111 H 0.39241 0.77772 0.34405 0.0
H2112 H 0.39682 0.75632 0.30718 0.0
C2113 C 0.37274 0.71241 0.34051 0.0
C2114 C 0.97374 0.70656 0.11869 0.0
C2115 C 0.97686 0.68844 0.13519 0.0
H2116 H 0.98845 0.72535 0.08938 0.0
C2117 C 0.99548 0.67245 0.13233 0.0
H2118 H 0.95897 0.71861 0.12031 0.0
C2119 C 0.01225 0.6761 0.11456 0.0
C2120 C 0.01058 0.69586 0.09953 0.0
H2121 H -0.00199 0.6582 0.14482 0.0
H2122 H 0.02747 0.66455 0.11388 0.0
C2123 C 0.99046 0.71027 0.10095 0.0
C2124 C 0.09793 0.22868 0.83707 0.0
C2125 C 0.10242 0.24076 0.85822 0.0
H2126 H 0.09221 0.23202 0.79992 0.0
C2127 C 0.11221 0.26345 0.85721 0.0
H2128 H 0.0906 0.21103 0.83739 0.0
C2129 C 0.11389 0.27525 0.83566 0.0
C2130 C 0.10459 0.26493 0.81505 0.0
H2131 H 0.11624 0.27294 0.8733 0.0
H2132 H 0.11901 0.29367 0.83585 0.0
C2133 C 0.09901 0.24073 0.81551 0.0
C2134 C 0.49799 0.33716 0.62275 0.0
C2135 C 0.51701 0.32172 0.62596 0.0
H2136 H 0.46763 0.34556 0.60192 0.0
C2137 C 0.52268 0.30545 0.60826 0.0
H2138 H 0.49339 0.34978 0.63633 0.0
C2139 C 0.50813 0.30302 0.58855 0.0
C2140 C 0.48752 0.31667 0.58644 0.0
H2141 H 0.53741 0.29344 0.6105 0.0
H2142 H 0.51189 0.28903 0.5761 0.0
C2143 C 0.48338 0.33478 0.60297 0.0
C2144 C 0.12909 0.39252 0.31705 0.0
C2145 C 0.15207 0.39734 0.30886 0.0
H2146 H 0.09367 0.3834 0.3075 0.0
C2147 C 0.15835 0.38995 0.28603 0.0
H2148 H 0.12367 0.39762 0.33464 0.0
C2149 C 0.14113 0.38119 0.27063 0.0
C2150 C 0.11742 0.3801 0.27781 0.0
H2151 H 0.17596 0.39314 0.27927 0.0
H2152 H 0.1459 0.37798 0.25241 0.0
C2153 C 0.11182 0.38434 0.30151 0.0
C2154 C 0.35284 0.39573 0.98721 0.0
C2155 C 0.35601 0.37421 -0.0009 0.0
H2156 H 0.34469 0.43239 0.99081 0.0
C2157 C 0.36125 0.37453 0.02327 0.0
H2158 H 0.34902 0.396 0.96848 0.0
C2159 C 0.35933 0.39549 0.03603 0.0
C2160 C 0.3512 0.41616 0.02488 0.0
H2161 H 0.36423 0.35819 0.03275 0.0
H2162 H 0.36084 0.3946 0.05506 0.0
C2163 C 0.35041 0.41667 7e-05 0.0
C2164 C 0.3684 0.58888 0.79859 0.0
C2165 C 0.34628 0.58213 0.78945 0.0
H2166 H 0.40436 0.59768 0.79067 0.0
C2167 C 0.34211 0.5846 0.76514 0.0
H2168 H 0.37225 0.58713 0.81723 0.0
C2169 C 0.36043 0.59144 0.75004 0.0
C2170 C 0.38324 0.59522 0.75901 0.0
H2171 H 0.32528 0.57952 0.75761 0.0
H2172 H 0.35734 0.59142 0.73118 0.0
C2173 C 0.38687 0.59488 0.78343 0.0
C2174 C 0.13782 0.59856 0.52252 0.0
C2175 C 0.14961 0.57878 0.51314 0.0
H2176 H 0.13076 0.63548 0.51863 0.0
C2177 C 0.15618 0.57921 0.4892 0.0
H2178 H 0.13203 0.59878 0.54073 0.0
C2179 C 0.15479 0.60026 0.47632 0.0
C2180 C 0.14706 0.62105 0.48735 0.0
H2181 H 0.165 0.56424 0.48128 0.0
H2182 H 0.1625 0.60088 0.45884 0.0
C2183 C 0.13708 0.61969 0.50991 0.0
C2184 C 0.13508 0.60096 0.23795 0.0
C2185 C 0.11264 0.6055 0.22835 0.0
H2186 H 0.16931 0.58609 0.23191 0.0
C2187 C 0.10968 0.60468 0.20381 0.0
H2188 H 0.13787 0.60153 0.25685 0.0
C2189 C 0.12782 0.59626 0.18945 0.0
C2190 C 0.14895 0.58791 0.19956 0.0
H2191 H 0.09261 0.60833 0.19597 0.0
H2192 H 0.12416 0.59378 0.17086 0.0
C2193 C 0.15308 0.59199 0.22366 0.0
C2194 C 0.11375 0.38488 0.96839 0.0
C2195 C 0.12019 0.38303 0.99222 0.0
H2196 H 0.11651 0.4052 0.93684 0.0
C2197 C 0.12728 0.4035 0.00428 0.0
H2198 H 0.10773 0.36949 0.9588 0.0
C2199 C 0.13282 0.42395 0.9916 0.0
C2200 C 0.13116 0.42399 0.96683 0.0
H2201 H 0.13201 0.40271 0.02279 0.0
H2202 H 0.1416 0.43822 0.00079 0.0
C2203 C 0.11886 0.40544 0.95581 0.0
C2204 C 0.33884 0.41161 0.73272 0.0
C2205 C 0.34203 0.41217 0.70814 0.0
H2206 H 0.35518 0.40618 0.76644 0.0
C2207 C 0.36329 0.40343 0.69863 0.0
H2208 H 0.3227 0.41822 0.74055 0.0
C2209 C 0.38204 0.39734 0.71342 0.0
C2210 C 0.3795 0.39887 0.73791 0.0
H2211 H 0.36642 0.40362 0.67978 0.0
H2212 H 0.39899 0.39295 0.70571 0.0
C2213 C 0.3574 0.4047 0.74751 0.0
C2214 C 0.34397 0.59965 0.52396 0.0
C2215 C 0.35038 0.62042 0.51206 0.0
H2216 H 0.33478 0.56321 0.52035 0.0
C2217 C 0.35933 0.61888 0.48909 0.0
H2218 H 0.3371 0.60044 0.54177 0.0
C2219 C 0.35874 0.59744 0.47703 0.0
C2220 C 0.34805 0.57753 0.48741 0.0
H2221 H 0.36464 0.63466 0.47969 0.0
H2222 H 0.36361 0.59744 0.45855 0.0
C2223 C 0.34272 0.57827 0.51166 0.0
C2224 C 0.26571 0.13916 0.42805 0.0
C2225 C 0.27063 0.14645 0.45128 0.0
H2226 H 0.24643 0.1152 0.40586 0.0
C2227 C 0.25828 0.13583 0.46993 0.0
H2228 H 0.275 0.1469 0.41325 0.0
C2229 C 0.24261 0.1174 0.46581 0.0
C2230 C 0.23848 0.10937 0.4428 0.0
H2231 H 0.26165 0.14083 0.48793 0.0
H2232 H 0.23395 0.10923 0.48077 0.0
C2233 C 0.24955 0.1209 0.42383 0.0
C2234 C 0.76831 0.35377 0.56706 0.0
C2235 C 0.77402 0.34805 0.54361 0.0
H2236 H 0.74839 0.37636 0.59011 0.0
C2237 C 0.76305 0.36059 0.52526 0.0
H2238 H 0.77663 0.34457 0.58161 0.0
C2239 C 0.74758 0.37901 0.53005 0.0
C2240 C 0.74232 0.38522 0.55339 0.0
H2241 H 0.76733 0.35703 0.50708 0.0
H2242 H 0.73986 0.38852 0.51536 0.0
C2243 C 0.75234 0.37206 0.57192 0.0
C2244 C 0.35816 0.03574 0.34162 0.0
C2245 C 0.36266 0.01173 0.34519 0.0
H2246 H 0.37187 0.06893 0.33038 0.0
C2247 C 0.38585 0.00321 0.34297 0.0
H2248 H 0.34036 0.0426 0.34315 0.0
C2249 C 0.40385 0.01807 0.33488 0.0
C2250 C 0.39898 0.04179 0.32961 0.0
H2251 H 0.3896 0.98463 0.34544 0.0
H2252 H 0.42112 0.01068 0.33131 0.0
C2253 C 0.37628 0.05077 0.33438 0.0
C2254 C 0.72472 0.63188 0.0698 0.0
C2255 C 0.7283 0.64671 0.05014 0.0
H2256 H 0.73701 0.60168 0.08923 0.0
C2257 C 0.74937 0.6446 0.03728 0.0
H2258 H 0.7087 0.63307 0.08015 0.0
C2259 C 0.76533 0.6265 0.04241 0.0
C2260 C 0.76058 0.61042 0.06056 0.0
H2261 H 0.75285 0.65606 0.02239 0.0
H2262 H 0.78098 0.62446 0.03162 0.0
C2263 C 0.7408 0.61383 0.07497 0.0
C2264 C 0.63191 0.4617 0.34962 0.0
C2265 C 0.62914 0.48621 0.34896 0.0
H2266 H 0.61646 0.42819 0.34242 0.0
C2267 C 0.60692 0.49585 0.34365 0.0
H2268 H 0.64896 0.45398 0.35359 0.0
C2269 C 0.5884 0.48116 0.33647 0.0
C2270 C 0.59176 0.45665 0.33513 0.0
H2271 H 0.60454 0.5148 0.34286 0.0
H2272 H 0.57212 0.48909 0.3303 0.0
C2273 C 0.6132 0.447 0.34327 0.0
C2274 C 0.22655 0.86348 0.92151 0.0
C2275 C 0.22934 0.84792 0.9407 0.0
H2276 H 0.23959 0.89445 0.90387 0.0
C2277 C 0.25008 0.84925 0.95423 0.0
H2278 H 0.21079 0.86293 0.91069 0.0
C2279 C 0.2663 0.86744 0.95045 0.0
C2280 C 0.26221 0.88432 0.93287 0.0
H2281 H 0.25294 0.83726 0.96885 0.0
H2282 H 0.2814 0.86907 0.96208 0.0
C2283 C 0.24292 0.8816 0.91764 0.0
C2284 C 0.39866 0.96205 0.16355 0.0
C2285 C 0.39246 0.93881 0.16952 0.0
H2286 H 0.38637 0.996 0.1522 0.0
C2287 C 0.36919 0.93113 0.16531 0.0
H2288 H 0.41642 0.96845 0.16665 0.0
C2289 C 0.35192 0.94704 0.1578 0.0
C2290 C 0.35779 0.97064 0.15345 0.0
H2291 H 0.36378 0.91337 0.16985 0.0
H2292 H 0.33372 0.94123 0.15668 0.0
C2293 C 0.3815 0.97776 0.15521 0.0
C2294 C 0.10907 0.06737 0.64512 0.0
C2295 C 0.0857 0.05927 0.64771 0.0
H2296 H 0.14511 0.05779 0.63888 0.0
C2297 C 0.07999 0.03653 0.63962 0.0
H2298 H 0.1141 0.08488 0.65085 0.0
C2299 C 0.09784 0.02119 0.63213 0.0
C2300 C 0.12159 0.02831 0.63308 0.0
H2301 H 0.06214 0.02984 0.64115 0.0
H2302 H 0.0933 0.00308 0.62812 0.0
C2303 C 0.12692 0.05187 0.63828 0.0
C2304 C 0.12863 0.11319 0.33482 0.0
C2305 C 0.10482 0.10693 0.33178 0.0
H2306 H 0.16142 0.1053 0.35161 0.0
C2307 C 0.09665 0.08556 0.34132 0.0
H2308 H 0.13557 0.12938 0.32739 0.0
C2309 C 0.11154 0.0717 0.35527 0.0
C2310 C 0.13481 0.07902 0.35986 0.0
H2311 H 0.07843 0.08019 0.33911 0.0
H2312 H 0.10443 0.05597 0.36347 0.0
C2313 C 0.14347 0.09938 0.34872 0.0
C2314 C 0.13345 0.87682 0.5652 0.0
C2315 C 0.11296 0.86494 0.57243 0.0
H2316 H 0.15419 0.90825 0.56786 0.0
C2317 C 0.09594 0.87714 0.58572 0.0
H2318 H 0.14677 0.86793 0.55478 0.0
C2319 C 0.10005 0.90023 0.59304 0.0
C2320 C 0.12136 0.91152 0.58737 0.0
H2321 H 0.07975 0.86856 0.59123 0.0
H2322 H 0.08706 0.90871 0.60419 0.0
C2323 C 0.13766 0.89992 0.57267 0.0
C2324 C 0.33585 0.89985 0.82948 0.0
C2325 C 0.34434 0.91079 0.85002 0.0
H2326 H 0.34368 0.87693 0.80052 0.0
C2327 C 0.36846 0.90904 0.85557 0.0
H2328 H 0.31738 0.90101 0.82467 0.0
C2329 C 0.38345 0.89525 0.84184 0.0
C2330 C 0.37466 0.88299 0.82222 0.0
H2331 H 0.37564 0.91751 0.87112 0.0
H2332 H 0.40174 0.89351 0.84717 0.0
C2333 C 0.35092 0.88605 0.81566 0.0
C2334 C 0.3552 0.11349 0.07262 0.0
C2335 C 0.37785 0.11303 0.06269 0.0
H2336 H 0.32809 0.09415 0.09004 0.0
C2337 C 0.38955 0.09131 0.06013 0.0
H2338 H 0.34561 0.12993 0.07444 0.0
C2339 C 0.3796 0.07069 0.06933 0.0
C2340 C 0.35773 0.07153 0.08099 0.0
H2341 H 0.40701 0.09046 0.05238 0.0
H2342 H 0.3896 0.05443 0.06846 0.0
C2343 C 0.34516 0.09293 0.08153 0.0
C2344 C 0.16138 0.89234 0.15814 0.0
C2345 C 0.1516 0.90472 0.13903 0.0
H2346 H 0.15508 0.8682 0.18654 0.0
C2347 C 0.12705 0.9041 0.13547 0.0
H2348 H 0.18022 0.8926 0.16138 0.0
C2349 C 0.11274 0.89021 0.14978 0.0
C2350 C 0.12264 0.87664 0.16797 0.0
H2351 H 0.11891 0.91372 0.12109 0.0
H2352 H 0.09399 0.8895 0.14601 0.0
C2353 C 0.14698 0.87838 0.17253 0.0
C2354 C 0.39251 0.87597 0.41179 0.0
C2355 C 0.37576 0.8615 0.42297 0.0
H2356 H 0.3992 0.90849 0.39404 0.0
C2357 C 0.35324 0.87059 0.42785 0.0
H2358 H 0.41019 0.86959 0.40821 0.0
C2359 C 0.34692 0.89297 0.4197 0.0
C2360 C 0.36307 0.90657 0.40664 0.0
H2361 H 0.34006 0.85992 0.43668 0.0
H2362 H 0.32896 0.89896 0.42241 0.0
C2363 C 0.38625 0.89833 0.40377 0.0
C2364 C 0.35862 0.1176 0.66505 0.0
C2365 C 0.38215 0.10999 0.66288 0.0
H2366 H 0.32285 0.11306 0.65383 0.0
C2367 C 0.38704 0.08928 0.65028 0.0
H2368 H 0.35433 0.13336 0.67495 0.0
C2369 C 0.36905 0.0778 0.63801 0.0
C2370 C 0.34587 0.08668 0.63844 0.0
H2371 H 0.40499 0.08293 0.64845 0.0
H2372 H 0.37353 0.06278 0.62708 0.0
C2373 C 0.34057 0.10591 0.65306 0.0
C2374 C 0.14488 0.10407 0.90291 0.0
C2375 C 0.12764 0.08718 0.89709 0.0
H2376 H 0.15182 0.13938 0.91428 0.0
C2377 C 0.10378 0.09229 0.90134 0.0
H2378 H 0.16346 0.10055 0.90009 0.0
C2379 C 0.09715 0.11454 0.90941 0.0
C2380 C 0.11426 0.13205 0.91347 0.0
H2381 H 0.09011 0.07957 0.89727 0.0
H2382 H 0.07851 0.11833 0.91145 0.0
C2383 C 0.13824 0.12632 0.91109 0.0
C2384 C 0.10809 0.33432 0.14356 0.0
C2385 C 0.0839 0.33791 0.14759 0.0
H2386 H 0.1351 0.32742 0.11817 0.0
C2387 C 0.06789 0.33458 0.12893 0.0
H2388 H 0.12086 0.3367 0.15759 0.0
C2389 C 0.07604 0.32916 0.10634 0.0
C2390 C 0.10035 0.32722 0.10199 0.0
H2391 H 0.04911 0.33707 0.13156 0.0
H2392 H 0.06337 0.3276 0.09211 0.0
C2393 C 0.11625 0.32914 0.12094 0.0
C2394 C 0.58216 0.14021 0.88747 0.0
C2395 C 0.603 0.15167 0.89429 0.0
H2396 H 0.56164 0.1268 0.85879 0.0
C2397 C 0.6182 0.16069 0.87688 0.0
H2398 H 0.57011 0.13319 0.90054 0.0
C2399 C 0.61326 0.15731 0.85303 0.0
C2400 C 0.59319 0.14456 0.8462 0.0
H2401 H 0.63426 0.16989 0.88167 0.0
H2402 H 0.62571 0.16376 0.84005 0.0
C2403 C 0.57738 0.13653 0.86359 0.0
C2404 C 0.89092 0.83402 0.35232 0.0
C2405 C 0.90897 0.85058 0.34887 0.0
H2406 H 0.869 0.81613 0.3773 0.0
C2407 C 0.92064 0.86013 0.36857 0.0
H2408 H 0.88167 0.82636 0.33745 0.0
C2409 C 0.91362 0.85407 0.39135 0.0
C2410 C 0.89455 0.83867 0.39478 0.0
H2411 H 0.9348 0.8728 0.36637 0.0
H2412 H 0.92237 0.86229 0.40621 0.0
C2413 C 0.88362 0.82826 0.37511 0.0
C2414 C 0.88319 0.16192 0.14124 0.0
C2415 C 0.90237 0.1472 0.14655 0.0
H2416 H 0.86171 0.1771 0.11418 0.0
C2417 C 0.91631 0.13829 0.12806 0.0
H2418 H 0.87219 0.16909 0.15513 0.0
C2419 C 0.91046 0.14305 0.10462 0.0
C2420 C 0.8904 0.15652 0.0993 0.0
H2421 H 0.93137 0.12707 0.13167 0.0
H2422 H 0.92103 0.13528 0.09073 0.0
C2423 C 0.87715 0.16641 0.1178 0.0
C2424 C 0.4122 0.6621 0.63737 0.0
C2425 C 0.39796 0.66142 0.65766 0.0
H2426 H 0.41405 0.66964 0.60047 0.0
C2427 C 0.3753 0.67135 0.65694 0.0
H2428 H 0.42988 0.65477 0.63758 0.0
C2429 C 0.36613 0.67956 0.63561 0.0
C2430 C 0.37966 0.67829 0.61486 0.0
H2431 H 0.36401 0.67113 0.67235 0.0
H2432 H 0.34803 0.68572 0.63512 0.0
C2433 C 0.40317 0.67065 0.61615 0.0
C2434 C 0.12447 0.66633 0.34012 0.0
C2435 C 0.10227 0.65543 0.33869 0.0
H2436 H 0.15076 0.68132 0.36268 0.0
C2437 C 0.08817 0.65391 0.35903 0.0
H2438 H 0.13568 0.66782 0.32471 0.0
C2439 C 0.09669 0.66181 0.38071 0.0
C2440 C 0.11959 0.6711 0.38246 0.0
H2441 H 0.07085 0.64582 0.35839 0.0
H2442 H 0.0858 0.65951 0.39624 0.0
C2443 C 0.13313 0.67396 0.36187 0.0
C2444 C 0.37051 0.33057 0.84548 0.0
C2445 C 0.39403 0.33748 0.84199 0.0
H2446 H 0.34439 0.3195 0.87032 0.0
C2447 C 0.41029 0.33509 0.86061 0.0
H2448 H 0.35761 0.3321 0.83145 0.0
C2449 C 0.40275 0.32772 0.88285 0.0
C2450 C 0.3788 0.32292 0.88683 0.0
H2451 H 0.42862 0.34007 0.85831 0.0
H2452 H 0.41538 0.32722 0.8972 0.0
C2453 C 0.36292 0.32351 0.86778 0.0
C2454 C 0.90271 0.90242 0.65896 0.0
C2455 C 0.89615 0.87973 0.66642 0.0
H2456 H 0.89227 0.93382 0.64073 0.0
C2457 C 0.8727 0.87227 0.66319 0.0
H2458 H 0.92062 0.9087 0.66134 0.0
C2459 C 0.8565 0.88662 0.65153 0.0
C2460 C 0.86339 0.90872 0.64275 0.0
H2461 H 0.86699 0.85499 0.66904 0.0
H2462 H 0.83881 0.87995 0.64861 0.0
C2463 C 0.88646 0.9168 0.64718 0.0
C2464 C 0.88868 0.0828 0.40025 0.0
C2465 C 0.86443 0.07843 0.39764 0.0
H2466 H 0.91514 0.10619 0.41344 0.0
C2467 C 0.84822 0.0923 0.41032 0.0
H2468 H 0.90163 0.07224 0.39099 0.0
C2469 C 0.85596 0.11178 0.42322 0.0
C2470 C 0.88002 0.11771 0.42358 0.0
H2471 H 0.82941 0.08911 0.40899 0.0
H2472 H 0.84292 0.1231 0.4314 0.0
C2473 C 0.89641 0.10231 0.4131 0.0
C2474 C 0.64708 0.10188 0.15185 0.0
C2475 C 0.64337 0.07776 0.1476 0.0
H2476 H 0.63233 0.1343 0.16403 0.0
C2477 C 0.62241 0.06716 0.15559 0.0
H2478 H 0.66316 0.11053 0.14616 0.0
C2479 C 0.60468 0.08084 0.16589 0.0
C2480 C 0.60765 0.10532 0.16827 0.0
H2481 H 0.61913 0.04856 0.15276 0.0
H2482 H 0.58822 0.07244 0.17077 0.0
C2483 C 0.62937 0.11553 0.16203 0.0
C2484 C 0.59632 0.8819 0.90029 0.0
C2485 C 0.61264 0.87013 0.91482 0.0
H2486 H 0.59014 0.91057 0.87664 0.0
C2487 C 0.63438 0.88092 0.91976 0.0
H2488 H 0.57921 0.87424 0.89654 0.0
C2489 C 0.64067 0.90184 0.90832 0.0
C2490 C 0.62527 0.91226 0.89183 0.0
H2491 H 0.6472 0.87238 0.9311 0.0
H2492 H 0.65822 0.90888 0.91115 0.0
C2493 C 0.60255 0.90281 0.88895 0.0
C2494 C 0.87558 0.07043 0.84471 0.0
C2495 C 0.85262 0.07834 0.84989 0.0
H2496 H 0.90877 0.07837 0.82844 0.0
C2497 C 0.84461 0.0995 0.83985 0.0
H2498 H 0.88221 0.05408 0.85206 0.0
C2499 C 0.85977 0.11333 0.8263 0.0
C2500 C 0.88329 0.10632 0.82258 0.0
H2501 H 0.82692 0.10593 0.84327 0.0
H2502 H 0.85331 0.13005 0.81965 0.0
C2503 C 0.89081 0.08433 0.83117 0.0
C2504 C 0.64316 0.11467 0.57475 0.0
C2505 C 0.61904 0.1204 0.57476 0.0
H2506 H 0.6702 0.0923 0.58861 0.0
C2507 C 0.60306 0.10527 0.58623 0.0
H2508 H 0.65589 0.12581 0.56585 0.0
C2509 C 0.61124 0.08607 0.59929 0.0
C2510 C 0.63556 0.08164 0.60111 0.0
H2511 H 0.58429 0.10899 0.58625 0.0
H2512 H 0.59859 0.07559 0.60906 0.0
C2513 C 0.65135 0.09544 0.58781 0.0
C2514 C 0.63973 0.88991 0.34257 0.0
C2515 C 0.63308 0.91107 0.35353 0.0
H2516 H 0.62855 0.85944 0.32354 0.0
C2517 C 0.60957 0.91885 0.3515 0.0
H2518 H 0.65773 0.88352 0.34362 0.0
C2519 C 0.59274 0.90497 0.33996 0.0
C2520 C 0.59915 0.88309 0.3303 0.0
H2521 H 0.60392 0.93516 0.35967 0.0
H2522 H 0.57457 0.91093 0.3395 0.0
C2523 C 0.62295 0.87607 0.33109 0.0
C2524 C 0.85753 0.87828 0.07568 0.0
C2525 C 0.88043 0.86897 0.07739 0.0
H2526 H 0.83334 0.90461 0.08767 0.0
C2527 C 0.89782 0.88186 0.08955 0.0
H2528 H 0.84382 0.86893 0.0662 0.0
C2529 C 0.89184 0.90227 0.10189 0.0
C2530 C 0.86837 0.91018 0.10228 0.0
H2531 H 0.91577 0.87538 0.09082 0.0
H2532 H 0.9053 0.91088 0.11239 0.0
C2533 C 0.85155 0.89875 0.08802 0.0
C2534 C 0.88578 0.67117 0.84216 0.0
C2535 C 0.87249 0.65213 0.83332 0.0
H2536 H 0.8912 0.69518 0.87088 0.0
C2537 C 0.8521 0.64502 0.84547 0.0
H2538 H 0.90151 0.67717 0.83309 0.0
C2539 C 0.84646 0.65509 0.86714 0.0
C2540 C 0.86088 0.6727 0.87696 0.0
H2541 H 0.84135 0.63056 0.8391 0.0
H2542 H 0.83134 0.64833 0.87671 0.0
C2543 C 0.87994 0.68147 0.8638 0.0
C2544 C 0.38366 0.81342 0.12524 0.0
C2545 C 0.3622 0.81995 0.11473 0.0
H2546 H 0.40624 0.81678 0.1553 0.0
C2547 C 0.34528 0.83204 0.12823 0.0
H2548 H 0.39693 0.80389 0.11532 0.0
C2549 C 0.3505 0.83926 0.15114 0.0
C2550 C 0.37281 0.83469 0.16089 0.0
H2551 H 0.32837 0.83692 0.12073 0.0
H2552 H 0.33757 0.84971 0.16056 0.0
C2553 C 0.38896 0.82079 0.14815 0.0
C2554 C 0.10893 0.18643 0.63195 0.0
C2555 C 0.12989 0.17922 0.6209 0.0
H2556 H 0.0847 0.18045 0.6603 0.0
C2557 C 0.14446 0.16264 0.6322 0.0
H2558 H 0.09748 0.19934 0.62372 0.0
C2559 C 0.13733 0.15203 0.65319 0.0
C2560 C 0.11535 0.15761 0.66316 0.0
H2561 H 0.16096 0.15708 0.62431 0.0
H2562 H 0.14841 0.1384 0.66074 0.0
C2563 C 0.10166 0.17563 0.65291 0.0
C2564 C 0.1259 0.82674 0.86394 0.0
C2565 C 0.11193 0.81758 0.88229 0.0
H2566 H 0.12657 0.84238 0.82963 0.0
C2567 C 0.08769 0.81414 0.87841 0.0
H2568 H 0.14472 0.82927 0.86627 0.0
C2569 C 0.07728 0.82169 0.85739 0.0
C2570 C 0.09095 0.83268 0.83985 0.0
H2571 H 0.07649 0.80689 0.8921 0.0
H2572 H 0.05831 0.8201 0.85546 0.0
C2573 C 0.11552 0.83413 0.84287 0.0
C2574 C 0.6244 0.32877 0.34599 0.0
C2575 C 0.6013 0.33728 0.34328 0.0
H2576 H 0.65024 0.31486 0.3697 0.0
C2577 C 0.5853 0.33506 0.36213 0.0
H2578 H 0.6371 0.33008 0.33176 0.0
C2579 C 0.59279 0.32621 0.38386 0.0
C2580 C 0.61646 0.31966 0.38712 0.0
H2581 H 0.56727 0.34125 0.36046 0.0
H2582 H 0.58042 0.32584 0.39842 0.0
C2583 C 0.63195 0.32016 0.36776 0.0
C2584 C 0.9088 0.31185 0.61797 0.0
C2585 C 0.88508 0.31654 0.61248 0.0
H2586 H 0.93771 0.31883 0.64121 0.0
C2587 C 0.87119 0.32908 0.62875 0.0
H2588 H 0.91989 0.302 0.60593 0.0
C2589 C 0.88134 0.33857 0.64907 0.0
C2590 C 0.90561 0.33583 0.65336 0.0
H2591 H 0.85273 0.33265 0.62519 0.0
H2592 H 0.87049 0.34939 0.66048 0.0
C2593 C 0.919 0.32148 0.63821 0.0
C2594 C 0.59441 0.67125 0.11919 0.0
C2595 C 0.61781 0.67499 0.11206 0.0
H2596 H 0.57154 0.65837 0.14627 0.0
C2597 C 0.63615 0.67208 0.12855 0.0
H2598 H 0.57992 0.67355 0.10693 0.0
C2599 C 0.63138 0.66349 0.15111 0.0
C2600 C 0.60822 0.65749 0.15747 0.0
H2601 H 0.65436 0.67523 0.12363 0.0
H2602 H 0.64603 0.66008 0.16292 0.0
C2603 C 0.58966 0.6625 0.14172 0.0
C2604 C 0.63909 0.59503 0.85072 0.0
C2605 C 0.63027 0.57554 0.86317 0.0
H2606 H 0.63141 0.62382 0.82776 0.0
C2607 C 0.6067 0.56858 0.85966 0.0
H2608 H 0.65727 0.60063 0.85279 0.0
C2609 C 0.59178 0.58196 0.84527 0.0
C2610 C 0.60025 0.60244 0.83419 0.0
H2611 H 0.59946 0.55351 0.86892 0.0
H2612 H 0.57339 0.5769 0.84378 0.0
C2613 C 0.62425 0.60833 0.83637 0.0
C2614 C 0.63307 0.40639 0.07076 0.0
C2615 C 0.65293 0.40552 0.0855 0.0
H2616 H 0.60763 0.38649 0.05124 0.0
C2617 C 0.66483 0.38398 0.08864 0.0
H2618 H 0.62366 0.42279 0.06796 0.0
C2619 C 0.65585 0.36327 0.0789 0.0
C2620 C 0.63463 0.36377 0.06616 0.0
H2621 H 0.68042 0.38292 0.09968 0.0
H2622 H 0.6646 0.34674 0.08281 0.0
C2623 C 0.62388 0.38561 0.06128 0.0
C2624 C 0.8723 0.40637 0.35097 0.0
C2625 C 0.84869 0.39873 0.35011 0.0
H2626 H 0.90804 0.39966 0.34081 0.0
C2627 C 0.84264 0.3799 0.33525 0.0
H2628 H 0.87743 0.42106 0.36206 0.0
C2629 C 0.86022 0.36754 0.32322 0.0
C2630 C 0.88408 0.37397 0.32566 0.0
H2631 H 0.82458 0.37371 0.33411 0.0
H2632 H 0.85522 0.35221 0.31297 0.0
C2633 C 0.88984 0.39416 0.33875 0.0
C2634 C 0.84715 0.62775 0.58255 0.0
C2635 C 0.86977 0.62934 0.5726 0.0
H2636 H 0.82159 0.60542 0.59905 0.0
C2637 C 0.88276 0.60862 0.56853 0.0
H2638 H 0.83671 0.64342 0.58581 0.0
C2639 C 0.87394 0.58681 0.57579 0.0
C2640 C 0.85222 0.58554 0.5876 0.0
H2641 H 0.90018 0.60938 0.56067 0.0
H2642 H 0.8848 0.57124 0.57353 0.0
C2643 C 0.83854 0.60603 0.5902 0.0
C2644 C 0.63096 0.38034 0.66257 0.0
C2645 C 0.60822 0.38912 0.66711 0.0
H2646 H 0.66383 0.38563 0.64497 0.0
C2647 C 0.60251 0.41216 0.65999 0.0
H2648 H 0.63604 0.36279 0.6682 0.0
C2649 C 0.61852 0.42531 0.64661 0.0
C2650 C 0.64042 0.41557 0.64021 0.0
H2651 H 0.58518 0.41947 0.66343 0.0
H2652 H 0.61314 0.44245 0.6401 0.0
C2653 C 0.64691 0.39344 0.64924 0.0
C2654 C 0.85046 0.37339 0.91191 0.0
C2655 C 0.87408 0.36604 0.91318 0.0
H2656 H 0.82654 0.40077 0.90193 0.0
C2657 C 0.89213 0.38227 0.90798 0.0
H2658 H 0.83619 0.36135 0.91598 0.0
C2659 C 0.88663 0.40486 0.89995 0.0
C2660 C 0.86299 0.41159 0.8969 0.0
H2661 H 0.91054 0.3772 0.9091 0.0
H2662 H 0.90091 0.41658 0.89503 0.0
C2663 C 0.84496 0.39597 0.9038 0.0
C2664 C 0.90571 0.58482 0.15131 0.0
C2665 C 0.89642 0.60427 0.1635 0.0
H2666 H 0.89867 0.5565 0.12734 0.0
C2667 C 0.8719 0.608 0.16349 0.0
H2668 H 0.92453 0.58143 0.15114 0.0
C2669 C 0.85717 0.59381 0.14994 0.0
C2670 C 0.86666 0.5756 0.13612 0.0
H2671 H 0.86417 0.62262 0.17306 0.0
H2672 H 0.83849 0.59787 0.14943 0.0
C2673 C 0.8909 0.57055 0.13768 0.0
C2674 C 0.60837 0.60974 0.42907 0.0
C2675 C 0.62326 0.62952 0.43039 0.0
H2676 H 0.60511 0.5734 0.4196 0.0
C2677 C 0.64757 0.62668 0.42656 0.0
H2678 H 0.58959 0.61138 0.43231 0.0
C2679 C 0.65643 0.60497 0.41913 0.0
C2680 C 0.64115 0.58573 0.41569 0.0
H2681 H 0.6595 0.64157 0.42767 0.0
H2682 H 0.675 0.60364 0.41473 0.0
C2683 C 0.61727 0.58795 0.42192 0.0
C2684 C 0.57986 0.8581 0.62916 0.0
C2685 C 0.59366 0.8508 0.64845 0.0
H2686 H 0.57581 0.85853 0.59163 0.0
C2687 C 0.61334 0.83632 0.64453 0.0
H2688 H 0.56443 0.8691 0.63173 0.0
C2689 C 0.61998 0.83052 0.62157 0.0
C2690 C 0.60684 0.83879 0.60221 0.0
H2691 H 0.62424 0.8304 0.65908 0.0
H2692 H 0.63579 0.82008 0.61895 0.0
C2693 C 0.58629 0.85199 0.60622 0.0
C2694 C 0.34576 0.39839 0.14861 0.0
C2695 C 0.35047 0.42127 0.14038 0.0
H2696 H 0.35911 0.36796 0.16632 0.0
C2697 C 0.37164 0.43238 0.14703 0.0
H2698 H 0.32945 0.38949 0.14411 0.0
C2699 C 0.38873 0.41999 0.1598 0.0
C2700 C 0.38486 0.39634 0.16608 0.0
H2701 H 0.37566 0.45011 0.14116 0.0
H2702 H 0.40548 0.42847 0.16342 0.0
C2703 C 0.36279 0.38604 0.16135 0.0
C2704 C 0.346 0.62961 0.91876 0.0
C2705 C 0.36994 0.6353 0.92151 0.0
H2706 H 0.32102 0.60361 0.90767 0.0
C2707 C 0.38704 0.6175 0.91902 0.0
H2708 H 0.33245 0.64293 0.92079 0.0
C2709 C 0.38052 0.59495 0.91173 0.0
C2710 C 0.35683 0.58995 0.90654 0.0
H2711 H 0.40562 0.62134 0.92147 0.0
H2712 H 0.39426 0.58205 0.90851 0.0
C2713 C 0.33949 0.6071 0.91122 0.0
C2714 C 0.1425 0.58701 0.66498 0.0
C2715 C 0.13702 0.57461 0.64429 0.0
H2716 H 0.1297 0.60989 0.6921 0.0
C2717 C 0.11329 0.57238 0.63737 0.0
H2718 H 0.16063 0.58888 0.67079 0.0
C2719 C 0.09555 0.58411 0.64976 0.0
C2720 C 0.10138 0.59854 0.66898 0.0
H2721 H 0.10858 0.56263 0.62163 0.0
H2722 H 0.07762 0.58331 0.64316 0.0
C2723 C 0.12482 0.59907 0.67713 0.0
C2724 C 0.09542 0.40747 0.4043 0.0
C2725 C 0.11823 0.4163 0.40826 0.0
H2726 H 0.07106 0.3794 0.41048 0.0
C2727 C 0.1327 0.40522 0.42515 0.0
H2728 H 0.08371 0.41576 0.39165 0.0
C2729 C 0.12542 0.38431 0.43598 0.0
C2730 C 0.10361 0.37417 0.43003 0.0
H2731 H 0.15029 0.41177 0.42881 0.0
H2732 H 0.13755 0.3753 0.4477 0.0
C2733 C 0.08821 0.38656 0.41503 0.0
C2734 C 0.37967 0.5688 0.36384 0.0
C2735 C 0.35595 0.57194 0.35721 0.0
H2736 H 0.41564 0.57869 0.35795 0.0
C2737 C 0.35071 0.58501 0.33685 0.0
H2738 H 0.38421 0.55853 0.37932 0.0
C2739 C 0.36869 0.59673 0.32476 0.0
C2740 C 0.39217 0.59528 0.33267 0.0
H2741 H 0.33262 0.5876 0.33122 0.0
H2742 H 0.36402 0.60798 0.31002 0.0
C2743 C 0.39768 0.58026 0.35156 0.0
C2744 C 0.13849 0.58972 0.07977 0.0
C2745 C 0.1225 0.57958 0.09589 0.0
H2746 H 0.14641 0.61934 0.05761 0.0
C2747 C 0.10031 0.59011 0.09904 0.0
H2748 H 0.15567 0.58189 0.07678 0.0
C2749 C 0.09512 0.61154 0.08817 0.0
C2750 C 0.11195 0.6228 0.07383 0.0
H2751 H 0.08749 0.58263 0.11109 0.0
H2752 H 0.07834 0.61987 0.092 0.0
C2753 C 0.13322 0.61117 0.06877 0.0
C2754 C 0.16077 0.39005 0.82331 0.0
C2755 C 0.15193 0.40418 0.84163 0.0
H2756 H 0.15271 0.36489 0.79633 0.0
C2757 C 0.12738 0.40589 0.84481 0.0
H2758 H 0.1796 0.3885 0.82035 0.0
C2759 C 0.11206 0.39239 0.83117 0.0
C2760 C 0.12095 0.37694 0.81402 0.0
H2761 H 0.11997 0.4169 0.85855 0.0
H2762 H 0.0933 0.39337 0.83477 0.0
C2763 C 0.14537 0.37653 0.80957 0.0
C2764 C 0.37087 0.41076 0.57175 0.0
C2765 C 0.34848 0.41078 0.5823 0.0
H2766 H 0.39785 0.38991 0.55556 0.0
C2767 C 0.33427 0.39052 0.58079 0.0
H2768 H 0.38212 0.42619 0.57262 0.0
C2769 C 0.34312 0.36989 0.5708 0.0
C2770 C 0.36645 0.36914 0.56257 0.0
H2771 H 0.3168 0.39023 0.58858 0.0
H2772 H 0.33232 0.35412 0.57122 0.0
C2773 C 0.37989 0.38999 0.56212 0.0
C2774 C 0.36199 0.15772 0.33845 0.0
C2775 C 0.3856 0.15526 0.33143 0.0
H2776 H 0.33832 0.16798 0.3659 0.0
C2777 C 0.40354 0.16511 0.34551 0.0
H2778 H 0.34775 0.1506 0.32787 0.0
C2779 C 0.39813 0.17511 0.36733 0.0
C2780 C 0.37472 0.17531 0.37539 0.0
H2781 H 0.42192 0.16377 0.34038 0.0
H2782 H 0.41241 0.18118 0.37849 0.0
C2783 C 0.3566 0.16759 0.3603 0.0
C2784 C 0.01332 0.16331 0.23267 0.0
C2785 C 0.03144 0.15421 0.247 0.0
H2786 H 0.98095 0.15616 0.21454 0.0
C2787 C 0.03331 0.12959 0.24968 0.0
H2788 H 0.01151 0.18215 0.23002 0.0
C2789 C 0.0156 0.11476 0.24113 0.0
C2790 C 0.99595 0.1242 0.22935 0.0
H2791 H 0.04722 0.12189 0.26031 0.0
H2792 H 0.01643 0.09612 0.24529 0.0
C2793 C 0.99577 0.14838 0.2238 0.0
C2794 C 0.14999 0.75891 0.49409 0.0
C2795 C 0.14234 0.7412 0.47852 0.0
H2796 H 0.14063 0.7818 0.52256 0.0
C2797 C 0.11798 0.73724 0.47589 0.0
H2798 H 0.16867 0.76247 0.49631 0.0
C2799 C 0.10198 0.74793 0.49129 0.0
C2800 C 0.11007 0.76316 0.50908 0.0
H2801 H 0.11151 0.72379 0.46398 0.0
H2802 H 0.08362 0.74255 0.49073 0.0
C2803 C 0.13391 0.77003 0.50912 0.0
C2804 C 0.49495 0.85881 0.71581 0.0
C2805 C 0.49626 0.88233 0.7236 0.0
H2806 H 0.47775 0.82542 0.71957 0.0
C2807 C 0.47737 0.89165 0.73664 0.0
H2808 H 0.50906 0.85118 0.70541 0.0
C2809 C 0.45926 0.87692 0.74452 0.0
C2810 C 0.45991 0.85257 0.73977 0.0
H2811 H 0.47758 0.90983 0.74247 0.0
H2812 H 0.44609 0.88424 0.75631 0.0
C2813 C 0.47692 0.844 0.72388 0.0
C2814 C 0.34375 0.23533 0.99307 0.0
C2815 C 0.35244 0.25316 0.97823 0.0
H2816 H 0.35221 0.20736 0.01685 0.0
C2817 C 0.3765 0.25303 0.97211 0.0
H2818 H 0.32523 0.23478 -0.00219 0.0
C2819 C 0.39209 0.23752 0.98331 0.0
C2820 C 0.38378 0.22169 0.0005 0.0
H2821 H 0.38372 0.26642 0.96054 0.0
H2822 H 0.41085 0.23937 0.98003 0.0
C2823 C 0.35927 0.21955 0.00394 0.0
C2824 C 0.02154 0.88835 0.25715 0.0
C2825 C 0.00272 0.87954 0.27064 0.0
H2826 H 0.05193 0.88011 0.23649 0.0
C2827 C 0.0034 0.85589 0.27815 0.0
H2828 H 0.02179 0.90661 0.25151 0.0
C2829 C 0.02062 0.84055 0.26936 0.0
C2830 C 0.03745 0.84872 0.25306 0.0
H2831 H 0.98932 0.84863 0.28886 0.0
H2832 H 0.01925 0.82195 0.27349 0.0
C2833 C 0.03886 0.8731 0.24857 0.0
C2834 C 0.39345 0.74755 0.50463 0.0
C2835 C 0.3853 0.76204 0.48626 0.0
H2836 H 0.38409 0.72416 0.53265 0.0
C2837 C 0.36124 0.7681 0.48545 0.0
H2838 H 0.41195 0.7428 0.50577 0.0
C2839 C 0.34517 0.75702 0.50053 0.0
C2840 C 0.35303 0.74017 0.51693 0.0
H2841 H 0.35447 0.7793 0.47152 0.0
H2842 H 0.32645 0.76 0.49787 0.0
C2843 C 0.37745 0.73694 0.52009 0.0
C2844 C 0.46635 0.12907 0.73497 0.0
C2845 C 0.46787 0.15367 0.73797 0.0
H2846 H 0.4832 0.09564 0.73995 0.0
C2847 C 0.48544 0.16278 0.75293 0.0
H2848 H 0.45292 0.12138 0.72376 0.0
C2849 C 0.50267 0.14788 0.76249 0.0
C2850 C 0.50278 0.1237 0.75697 0.0
H2851 H 0.48698 0.18161 0.75579 0.0
H2852 H 0.517 0.15567 0.77245 0.0
C2853 C 0.48377 0.11426 0.74419 0.0
C2854 C 0.11892 0.22898 0.97829 0.0
C2855 C 0.0944 0.23263 0.97922 0.0
H2856 H 0.15292 0.24194 0.98858 0.0
C2857 C 0.08519 0.24794 -0.00362 0.0
H2858 H 0.12653 0.21723 0.96529 0.0
C2859 C 0.10032 0.26177 0.01008 0.0
C2860 C 0.12483 0.26084 0.00635 0.0
H2861 H 0.06632 0.25091 -0.00241 0.0
H2862 H 0.09267 0.27509 0.02143 0.0
C2863 C 0.13406 0.2432 0.99159 0.0
C2864 C 0.2455 0.02586 0.0993 0.0
C2865 C 0.24562 0.02032 0.1235 0.0
H2866 H 0.22957 0.01967 0.06567 0.0
C2867 C 0.22624 0.00816 0.13305 0.0
H2868 H 0.25994 0.03562 0.09143 0.0
C2869 C 0.20873 -0.00091 0.11825 0.0
C2870 C 0.21031 0.002 0.09364 0.0
H2871 H 0.22554 0.00396 0.15167 0.0
H2872 H 0.19512 0.98808 0.12593 0.0
C2873 C 0.22797 0.01682 0.08449 0.0
C2874 C 0.21293 0.99614 0.37832 0.0
C2875 C 0.21451 0.99586 0.40308 0.0
H2876 H 0.22899 0.98627 0.34568 0.0
C2877 C 0.231 0.98076 0.41385 0.0
H2878 H 0.20015 0.00726 0.36945 0.0
C2879 C 0.24762 0.96873 0.40017 0.0
C2880 C 0.24797 0.97157 0.37552 0.0
H2881 H 0.2325 0.97986 0.43287 0.0
H2882 H 0.26133 0.95882 0.40909 0.0
C2883 C 0.22952 0.9841 0.36466 0.0
C2884 C 0.25469 0.99094 0.62048 0.0
C2885 C 0.2343 0.98199 0.60958 0.0
H2886 H 0.28717 0.00955 0.6161 0.0
C2887 C 0.2334 0.98112 0.5848 0.0
H2888 H 0.25614 0.9915 0.63953 0.0
C2889 C 0.2512 0.9916 0.57129 0.0
C2890 C 0.27025 0.00302 0.58235 0.0
H2891 H 0.21806 0.97408 0.57582 0.0
H2892 H 0.24903 0.99236 0.55232 0.0
C2893 C 0.27254 0.00127 0.607 0.0
C2894 C 0.23833 0.02376 0.8924 0.0
C2895 C 0.23885 0.01962 0.86795 0.0
H2896 H 0.25343 0.01555 0.926 0.0
C2897 C 0.25854 0.00813 0.85821 0.0
H2898 H 0.22358 0.03287 0.90046 0.0
C2899 C 0.27577 -0.00167 0.87287 0.0
C2900 C 0.2735 -0.00031 0.89754 0.0
H2901 H 0.25971 0.00503 0.83939 0.0
H2902 H 0.28965 0.9879 0.86487 0.0
C2903 C 0.25549 0.01382 0.90709 0.0
C2904 C 0.58801 0.24843 0.98539 0.0
C2905 C 0.59717 0.26603 0.00025 0.0
H2906 H 0.59489 0.21639 0.9667 0.0
C2907 C 0.62175 0.26727 0.00363 0.0
H2908 H 0.56918 0.24714 0.98227 0.0
C2909 C 0.63641 0.24939 0.99511 0.0
C2910 C 0.62682 0.23029 0.98262 0.0
H2911 H 0.62945 0.28069 0.01483 0.0
H2912 H 0.65497 0.24965 -0.00022 0.0
C2913 C 0.60277 0.23079 0.97648 0.0
C2914 C 0.98421 0.36571 0.24036 0.0
C2915 C 0.00498 0.35604 0.23086 0.0
H2916 H 0.95152 0.35908 0.25794 0.0
C2917 C 0.00648 0.33144 0.22804 0.0
H2918 H 0.9823 0.3846 0.24242 0.0
C2919 C 0.98881 0.31672 0.23703 0.0
C2920 C 0.96926 0.32635 0.2489 0.0
H2921 H 0.02211 0.32341 0.22049 0.0
H2922 H 0.9914 0.29781 0.23625 0.0
C2923 C 0.96648 0.35101 0.24918 0.0
C2924 C 0.85742 0.73838 0.49686 0.0
C2925 C 0.86639 0.75692 0.48305 0.0
H2926 H 0.86531 0.71108 0.52169 0.0
C2927 C 0.89091 0.75845 0.47948 0.0
H2928 H 0.83858 0.73661 0.49969 0.0
C2929 C 0.90624 0.74411 0.49243 0.0
C2930 C 0.89724 0.7277 0.50866 0.0
H2931 H 0.89839 0.77243 0.4688 0.0
H2932 H 0.92506 0.74738 0.49135 0.0
C2933 C 0.87276 0.72368 0.5094 0.0
C2934 C 0.98177 0.66396 0.26473 0.0
C2935 C 0.96318 0.65482 0.25109 0.0
H2936 H 0.01361 0.65644 0.28357 0.0
C2937 C 0.95977 0.63023 0.25053 0.0
H2938 H 0.98472 0.68281 0.26581 0.0
C2939 C 0.97645 0.61511 0.26052 0.0
C2940 C 0.9967 0.62428 0.27148 0.0
H2941 H 0.94539 0.62256 0.24053 0.0
H2942 H 0.97441 0.59627 0.25799 0.0
C2943 C -0.00163 0.6488 0.27492 0.0
C2944 C 0.49626 0.34976 0.77376 0.0
C2945 C 0.49707 0.3743 0.77011 0.0
H2946 H 0.5093 0.31595 0.76329 0.0
C2947 C 0.51551 0.38375 0.75648 0.0
H2948 H 0.48252 0.34189 0.78447 0.0
C2949 C 0.53106 0.36882 0.74452 0.0
C2950 C 0.52828 0.34419 0.74581 0.0
H2951 H 0.51686 0.40259 0.7536 0.0
H2952 H 0.54388 0.37664 0.73268 0.0
C2953 C 0.51165 0.33484 0.76163 0.0
C2954 C 0.96486 0.85748 0.75115 0.0
C2955 C 0.96839 0.83293 0.75213 0.0
H2956 H 0.97921 0.89167 0.75802 0.0
C2957 C 0.98773 0.82413 0.76496 0.0
H2958 H 0.95 0.86485 0.74164 0.0
C2959 C 0.0046 0.83955 0.77421 0.0
C2960 C 0.00237 0.86404 0.77093 0.0
H2961 H 0.99091 0.80533 0.76621 0.0
H2962 H 0.02014 0.83217 0.78258 0.0
C2963 C 0.98168 0.87289 0.76049 0.0
C2964 C 0.85314 0.23117 0.50205 0.0
C2965 C 0.8623 0.24868 0.51703 0.0
H2966 H 0.86095 0.20505 0.47596 0.0
C2967 C 0.88666 0.24891 0.52171 0.0
H2968 H 0.83438 0.23045 0.49831 0.0
C2969 C 0.9019 0.23468 0.50856 0.0
C2970 C 0.8929 0.21963 0.49105 0.0
H2971 H 0.89426 0.26211 0.53325 0.0
H2972 H 0.92078 0.23729 0.5103 0.0
C2973 C 0.86837 0.21651 0.48932 0.0
C2974 C 0.51217 0.1052 0.25313 0.0
C2975 C 0.49488 0.11466 0.26818 0.0
H2976 H 0.53882 0.11255 0.22744 0.0
C2977 C 0.49522 0.139 0.27295 0.0
H2978 H 0.51263 0.08649 0.24935 0.0
C2979 C 0.51014 0.15396 0.26032 0.0
C2980 C 0.5251 0.14481 0.24282 0.0
H2981 H 0.48248 0.14682 0.28487 0.0
H2982 H 0.50842 0.17282 0.26278 0.0
C2983 C 0.52725 0.12019 0.24059 0.0
C2984 C 0.64611 0.75489 0.9924 0.0
C2985 C 0.63671 0.73803 0.00798 0.0
H2986 H 0.63889 0.7797 0.96487 0.0
C2987 C 0.61215 0.73735 0.01149 0.0
H2988 H 0.66499 0.75593 0.9895 0.0
C2989 C 0.59718 0.75062 -0.00296 0.0
C2990 C 0.60658 0.76518 0.97931 0.0
H2991 H 0.60436 0.7246 0.02342 0.0
H2992 H 0.57829 0.74776 -0.00179 0.0
C2993 C 0.63113 0.76861 0.97836 0.0
C2994 C 0.97776 0.16731 0.72574 0.0
C2995 C 0.95935 0.15683 0.73863 0.0
H2996 H 0.00982 0.16205 0.7066 0.0
C2997 C 0.95725 0.13209 0.73853 0.0
H2998 H 0.97977 0.18632 0.72522 0.0
C2999 C 0.97459 0.11815 0.72789 0.0
C3000 C 0.99432 0.12867 0.71715 0.0
H3001 H 0.94319 0.12342 0.74812 0.0
H3002 H 0.97329 0.09913 0.72946 0.0
C3003 C 0.99509 0.15338 0.71513 0.0
C3004 C 0.63252 0.21427 0.50622 0.0
C3005 C 0.60839 0.21693 0.50112 0.0
H3006 H 0.66732 0.22812 0.50115 0.0
C3007 C 0.60168 0.2313 0.48205 0.0
H3008 H 0.63824 0.20327 0.52078 0.0
C3009 C 0.61839 0.24533 0.47058 0.0
C3010 C 0.64197 0.24553 0.47836 0.0
H3011 H 0.58319 0.23349 0.47761 0.0
H3012 H 0.61228 0.25791 0.45755 0.0
C3013 C 0.64919 0.22865 0.49506 0.0
C3014 C 0.50693 0.8238 0.22989 0.0
C3015 C 0.52489 0.83403 0.24362 0.0
H3016 H 0.47461 0.82924 0.21116 0.0
C3017 C 0.52628 0.85877 0.24488 0.0
H3018 H 0.50546 0.80481 0.22831 0.0
C3019 C 0.50851 0.8728 0.23509 0.0
C3020 C 0.48902 0.86236 0.22383 0.0
H3021 H 0.54006 0.86728 0.25504 0.0
H3022 H 0.5092 0.89168 0.23792 0.0
C3023 C 0.48914 0.83784 0.22011 0.0
C3024 C 0.86628 0.76946 0.00946 0.0
C3025 C 0.8907 0.7651 0.00911 0.0
H3026 H 0.83214 0.75721 -0.00125 0.0
C3027 C 0.89979 0.74934 0.99226 0.0
H3028 H 0.85875 0.78152 0.02222 0.0
C3029 C 0.88452 0.73574 0.97843 0.0
C3030 C 0.85998 0.73734 0.98171 0.0
H3031 H 0.91857 0.74576 0.99151 0.0
H3032 H 0.892 0.72199 0.96747 0.0
C3033 C 0.851 0.75547 0.99604 0.0
C3034 C 0.76062 0.98234 0.84798 0.0
C3035 C 0.74298 0.96811 0.85802 0.0
H3036 H 0.78872 0.00675 0.85425 0.0
C3037 C 0.74316 0.96431 0.88254 0.0
H3038 H 0.76111 0.98544 0.82913 0.0
C3039 C 0.7591 0.97638 0.89695 0.0
C3040 C 0.77502 0.99265 0.88711 0.0
H3041 H 0.73003 0.95313 0.89079 0.0
H3042 H 0.75766 0.97431 0.91589 0.0
C3043 C 0.77645 0.99457 0.8624 0.0
C3044 C 0.76695 0.01435 0.6023 0.0
C3045 C 0.78121 -0.00339 0.61214 0.0
H3046 H 0.73981 0.03987 0.60821 0.0
C3047 C 0.7817 0.99397 0.63682 0.0
H3048 H 0.7663 0.01705 0.58338 0.0
C3049 C 0.76651 0.00716 0.65111 0.0
C3050 C 0.75048 0.02312 0.64095 0.0
H3051 H 0.79268 0.98064 0.64502 0.0
H3052 H 0.76617 0.00359 0.66988 0.0
C3053 C 0.75168 0.02741 0.61654 0.0
C3054 C 0.73554 0.01269 0.39299 0.0
C3055 C 0.72088 0.99539 0.38297 0.0
H3056 H 0.7628 0.03809 0.38725 0.0
C3057 C 0.71998 0.99337 0.35824 0.0
H3058 H 0.73648 0.01493 0.41194 0.0
C3059 C 0.73511 0.00673 0.34402 0.0
C3060 C 0.75145 0.02229 0.35429 0.0
H3061 H 0.7087 0.98039 0.34991 0.0
H3062 H 0.73509 0.00365 0.32517 0.0
C3063 C 0.75069 0.02596 0.37881 0.0
C3064 C 0.72131 0.99475 0.13742 0.0
C3065 C 0.7221 0.99219 0.11274 0.0
H3066 H 0.7371 0.98588 0.17057 0.0
C3067 C 0.73718 0.97511 0.10298 0.0
H3068 H 0.70966 0.00755 0.14553 0.0
C3069 C 0.75298 0.9628 0.11734 0.0
C3070 C 0.75388 0.96718 0.14174 0.0
H3071 H 0.73807 0.9725 0.08408 0.0
H3072 H 0.76549 0.95094 0.10909 0.0
C3073 C 0.73702 0.98229 0.15181 0.0
C3074 C 0.36542 0.73215 0.98028 0.0
C3075 C 0.38983 0.73659 0.98125 0.0
H3076 H 0.331 0.74401 0.99052 0.0
C3077 C 0.39851 0.75229 -0.00166 0.0
H3078 H 0.35819 0.7201 0.96735 0.0
C3079 C 0.3829 0.76555 0.01208 0.0
C3080 C 0.35842 0.7637 0.00841 0.0
H3081 H 0.41726 0.75588 -0.00042 0.0
H3082 H 0.39004 0.77915 0.02342 0.0
C3083 C 0.34981 0.74586 0.99355 0.0
C3084 C 0.99049 0.65106 0.77643 0.0
C3085 C 0.99249 0.62632 0.77693 0.0
H3086 H 0.00444 0.68359 0.76328 0.0
C3087 C 0.0129 0.61579 0.76763 0.0
H3088 H 0.97522 0.65978 0.78378 0.0
C3089 C 0.02978 0.62943 0.75593 0.0
C3090 C 0.02652 0.65392 0.7533 0.0
H3091 H 0.01516 0.59676 0.76802 0.0
H3092 H 0.04444 0.62058 0.74758 0.0
C3093 C 0.00737 0.66471 0.76474 0.0
C3094 C 0.12499 0.27655 0.49084 0.0
C3095 C 0.10101 0.27041 0.49259 0.0
H3096 H 0.16045 0.26733 0.50023 0.0
C3097 C 0.09399 0.2545 0.51027 0.0
H3098 H 0.13093 0.28881 0.47744 0.0
C3099 C 0.11089 0.24253 0.52369 0.0
C3100 C 0.13507 0.24589 0.51918 0.0
H3101 H 0.07558 0.24962 0.51214 0.0
H3102 H 0.105 0.22867 0.53546 0.0
C3103 C 0.14193 0.26418 0.50388 0.0
C3104 C 0.01531 0.38662 0.72585 0.0
C3105 C 0.99543 0.37731 0.71435 0.0
H3106 H 0.04644 0.37919 0.74587 0.0
C3107 C 0.9942 0.35283 0.7105 0.0
H3108 H 0.01696 0.40543 0.72881 0.0
C3109 C 0.01123 0.33779 0.72006 0.0
C3110 C 0.02969 0.34692 0.73385 0.0
H3111 H 0.97935 0.34511 0.70128 0.0
H3112 H 0.00878 0.31892 0.71823 0.0
C3113 C 0.03227 0.37156 0.73556 0.0
C3114 C 0.48621 0.6556 0.23268 0.0
C3115 C 0.46841 0.64512 0.24641 0.0
H3116 H 0.5181 0.65046 0.21321 0.0
C3117 C 0.467 0.62035 0.24728 0.0
H3118 H 0.48765 0.6746 0.2314 0.0
C3119 C 0.4846 0.60647 0.23702 0.0
C3120 C 0.50383 0.6171 0.22553 0.0
H3121 H 0.45335 0.61164 0.25746 0.0
H3122 H 0.48393 0.58754 0.23949 0.0
C3123 C 0.50372 0.6417 0.22228 0.0
C3124 C 0.53451 0.62201 0.74498 0.0
C3125 C 0.53285 0.64663 0.74218 0.0
H3126 H 0.51865 0.58844 0.73826 0.0
C3127 C 0.5164 0.65574 0.72602 0.0
H3128 H 0.5472 0.61434 0.75705 0.0
C3129 C 0.50007 0.64083 0.71515 0.0
C3130 C 0.49982 0.61655 0.72035 0.0
H3131 H 0.51488 0.67458 0.72317 0.0
H3132 H 0.48649 0.64865 0.7042 0.0
C3133 C 0.51809 0.60711 0.73421 0.0
C3134 C 0.90081 0.24795 0.99505 0.0
C3135 C 0.89067 0.26323 0.97838 0.0
H3136 H 0.89479 0.22041 0.02005 0.0
C3137 C 0.8661 0.26661 0.97851 0.0
H3138 H 0.91975 0.24519 0.9954 0.0
C3139 C 0.85172 0.25199 0.99222 0.0
C3140 C 0.86181 0.23424 0.00631 0.0
H3141 H 0.8578 0.27833 0.96588 0.0
H3142 H 0.83274 0.25298 0.98994 0.0
C3143 C 0.88646 0.23374 0.00917 0.0
C3144 C 0.6235 0.72601 0.48672 0.0
C3145 C 0.59909 0.73035 0.48797 0.0
H3146 H 0.65808 0.7385 0.49555 0.0
C3147 C 0.5907 0.74705 0.50422 0.0
H3148 H 0.6305 0.71318 0.47443 0.0
C3149 C 0.60652 0.76125 0.51669 0.0
C3150 C 0.63094 0.75932 0.51263 0.0
H3151 H 0.57195 0.75059 0.5057 0.0
H3152 H 0.59949 0.7754 0.52741 0.0
C3153 C 0.63933 0.74058 0.49877 0.0
C3154 C 0.71504 0.49481 0.62181 0.0
C3155 C 0.71669 0.49655 0.5971 0.0
H3156 H 0.73178 0.50147 0.65493 0.0
C3157 C 0.73358 0.51185 0.58732 0.0
H3158 H 0.70188 0.48358 0.62997 0.0
C3159 C 0.75071 0.52225 0.60173 0.0
C3160 C 0.75119 0.5174 0.62607 0.0
H3161 H 0.73513 0.51387 0.56838 0.0
H3162 H 0.76488 0.53205 0.59343 0.0
C3163 C 0.73222 0.50505 0.63617 0.0
C3164 C 0.71422 0.49887 0.87365 0.0
C3165 C 0.71541 0.49546 0.89821 0.0
H3166 H 0.73205 0.49562 0.84057 0.0
C3167 C 0.73313 0.48069 0.90735 0.0
H3168 H 0.70051 0.50975 0.86592 0.0
C3169 C 0.75122 0.47247 0.89271 0.0
C3170 C 0.75187 0.47898 0.86876 0.0
H3171 H 0.7344 0.47743 0.92614 0.0
H3172 H 0.7658 0.463 0.90068 0.0
C3173 C 0.73235 0.4908 0.85906 0.0
C3174 C 0.78281 0.49626 0.12511 0.0
C3175 C 0.77992 0.49527 0.10047 0.0
H3176 H 0.76883 0.48683 0.15887 0.0
C3177 C 0.76321 0.47957 0.09105 0.0
H3178 H 0.79579 0.50787 0.13298 0.0
C3179 C 0.7478 0.46738 0.10595 0.0
C3180 C 0.74877 0.47077 0.13053 0.0
H3181 H 0.76074 0.47811 0.07216 0.0
H3182 H 0.73394 0.45685 0.09806 0.0
C3183 C 0.76733 0.48417 0.14001 0.0
C3184 C 0.78159 0.49259 0.37715 0.0
C3185 C 0.77977 0.49221 0.4019 0.0
H3186 H 0.76609 0.50363 0.34457 0.0
C3187 C 0.76293 0.50677 0.41283 0.0
H3188 H 0.79456 0.48184 0.36813 0.0
C3189 C 0.7466 0.51936 0.39926 0.0
C3190 C 0.74677 0.51756 0.37451 0.0
H3191 H 0.76122 0.50712 0.43185 0.0
H3192 H 0.73281 0.52906 0.40825 0.0
C3193 C 0.76522 0.50509 0.36359 0.0
C3194 C 0.49937 0.35602 0.27335 0.0
C3195 C 0.49974 0.38066 0.27046 0.0
H3196 H 0.48582 0.3231 0.26088 0.0
C3197 C 0.48256 0.39125 0.25599 0.0
H3198 H 0.51208 0.34727 0.28464 0.0
C3199 C 0.4673 0.37732 0.2425 0.0
C3200 C 0.46912 0.35259 0.24312 0.0
H3201 H 0.48213 0.41021 0.25362 0.0
H3202 H 0.45565 0.38596 0.23003 0.0
C3203 C 0.48427 0.34212 0.25972 0.0
C3204 C 0.13125 0.72672 0.01185 0.0
C3205 C 0.10667 0.72964 0.01014 0.0
H3206 H 0.16519 0.73999 0.0017 0.0
C3207 C 0.09754 0.74418 0.99223 0.0
H3208 H 0.13881 0.71567 0.02551 0.0
C3209 C 0.11268 0.75778 0.97826 0.0
C3210 C 0.13714 0.75746 0.98242 0.0
H3211 H 0.07865 0.74666 0.99047 0.0
H3212 H 0.10501 0.77042 0.96615 0.0
C3213 C 0.14638 0.74074 -0.00172 0.0
C3214 C 0.36976 0.27635 0.49961 0.0
C3215 C 0.39426 0.27325 0.49712 0.0
H3216 H 0.33551 0.26198 0.49254 0.0
C3217 C 0.40267 0.25731 0.48011 0.0
H3218 H 0.36272 0.28858 0.51247 0.0
C3219 C 0.38699 0.24241 0.46828 0.0
C3220 C 0.36279 0.24294 0.47376 0.0
H3221 H 0.42148 0.25474 0.47768 0.0
H3222 H 0.39415 0.2287 0.45709 0.0
C3223 C 0.35414 0.26106 0.48823 0.0
C3224 C 0.25242 0.48449 0.41759 0.0
C3225 C 0.27085 0.49738 0.40714 0.0
H3226 H 0.2212 0.46405 0.41218 0.0
C3227 C 0.27375 0.49628 0.38251 0.0
H3228 H 0.24981 0.48475 0.43651 0.0
C3229 C 0.25723 0.48447 0.36849 0.0
C3230 C 0.23754 0.47349 0.37884 0.0
H3231 H 0.28786 0.50586 0.37387 0.0
H3232 H 0.25915 0.48519 0.3495 0.0
C3233 C 0.23595 0.47267 0.40359 0.0
C3234 C 0.25885 0.51128 0.1369 0.0
C3235 C 0.23936 0.52299 0.127 0.0
H3236 H 0.28919 0.48981 0.13046 0.0
C3237 C 0.23852 0.52621 0.10241 0.0
H3238 H 0.26027 0.50883 0.1558 0.0
C3239 C 0.25523 0.51543 0.08786 0.0
C3240 C 0.27293 0.50111 0.09768 0.0
H3241 H 0.22396 0.53556 0.09425 0.0
H3242 H 0.25291 0.51653 0.06892 0.0
C3243 C 0.27549 0.50041 0.12235 0.0
C3244 C 0.23393 0.50766 0.85342 0.0
C3245 C 0.25191 0.5208 0.86431 0.0
H3246 H 0.20431 0.48481 0.85818 0.0
C3247 C 0.25093 0.52433 0.88885 0.0
H3248 H 0.23394 0.50488 0.83452 0.0
C3249 C 0.23395 0.51275 0.90248 0.0
C3250 C 0.21758 0.49749 0.89181 0.0
H3251 H 0.26431 0.53465 0.8978 0.0
H3252 H 0.23478 0.51443 0.92149 0.0
C3253 C 0.21689 0.49616 0.86703 0.0
C3254 C 0.23462 0.48128 0.59033 0.0
C3255 C 0.21821 0.49729 0.59972 0.0
H3256 H 0.26377 0.45839 0.5972 0.0
C3257 C 0.21599 0.49904 0.62439 0.0
H3258 H 0.23654 0.47926 0.57144 0.0
C3259 C 0.23179 0.48723 0.63923 0.0
C3260 C 0.24994 0.47332 0.62966 0.0
H3261 H 0.20336 0.51105 0.63225 0.0
H3262 H 0.23083 0.49042 0.65804 0.0
C3263 C 0.25026 0.46932 0.60517 0.0
loop_
_geom_bond_atom_site_label_1
_geom_bond_atom_site_label_2
_geom_bond_distance
_geom_bond_site_symmetry_2
_ccdc_geom_bond_type
Zn0 O3 2.031 . S
Zn0 O5 2.049 . S
Zn0 O10 2.067 . S
Zn1 O2 1.962 . S
Zn1 O4 1.986 . S
Zn1 O6 1.996 . S
Zn1 O9 1.943 . S
O2 Zn1 1.962 . S
O2 C7 1.254 . S
O3 Zn0 2.031 . S
O3 C7 1.269 . S
O4 Zn1 1.986 . S
O4 C11 1.262 . S
O5 Zn0 2.049 . S
O5 C13 1.260 . S
O6 Zn1 1.996 . S
O6 C13 1.257 . S
C7 O2 1.254 . S
C7 O3 1.269 . S
C8 O9 1.249 . S
C8 O10 1.270 . S
O9 Zn1 1.943 . S
O9 C8 1.249 . S
O10 Zn0 2.067 . S
O10 C8 1.270 . S
C11 O4 1.262 . S
C11 O12 1.232 . S
O12 C11 1.232 . S
C13 O5 1.260 . S
C13 O6 1.257 . S
Zn14 O17 2.031 . S
Zn14 O19 2.049 . S
Zn14 O24 2.067 . S
Zn15 O16 1.962 . S
Zn15 O18 1.986 . S
Zn15 O20 1.996 . S
Zn15 O23 1.943 . S
O16 Zn15 1.962 . S
O16 C21 1.254 . S
O17 Zn14 2.031 . S
O17 C21 1.269 . S
O18 Zn15 1.986 . S
O18 C25 1.262 . S
O19 Zn14 2.049 . S
O19 C27 1.260 . S
O20 Zn15 1.996 . S
O20 C27 1.257 . S
C21 O16 1.254 . S
C21 O17 1.269 . S
C22 O23 1.249 . S
C22 O24 1.270 . S
O23 Zn15 1.943 . S
O23 C22 1.249 . S
O24 Zn14 2.067 . S
O24 C22 1.270 . S
C25 O18 1.262 . S
C25 O26 1.232 . S
O26 C25 1.232 . S
C27 O19 1.260 . S
C27 O20 1.257 . S
Zn28 O31 2.031 . S
Zn28 O33 2.049 . S
Zn28 O38 2.067 . S
Zn29 O30 1.962 . S
Zn29 O32 1.986 . S
Zn29 O34 1.996 . S
Zn29 O37 1.943 . S
O30 Zn29 1.962 . S
O30 C35 1.254 . S
O31 Zn28 2.031 . S
O31 C35 1.269 . S
O32 Zn29 1.986 . S
O32 C39 1.262 . S
O33 Zn28 2.049 . S
O33 C41 1.260 . S
O34 Zn29 1.996 . S
O34 C41 1.257 . S
C35 O30 1.254 . S
C35 O31 1.269 . S
C36 O37 1.249 . S
C36 O38 1.270 . S
O37 Zn29 1.943 . S
O37 C36 1.249 . S
O38 Zn28 2.067 . S
O38 C36 1.270 . S
C39 O32 1.262 . S
C39 O40 1.232 . S
O40 C39 1.232 . S
C41 O33 1.260 . S
C41 O34 1.257 . S
Zn42 O45 2.031 . S
Zn42 O47 2.049 . S
Zn42 O52 2.067 . S
Zn43 O44 1.962 . S
Zn43 O46 1.986 . S
Zn43 O48 1.996 . S
Zn43 O51 1.943 . S
O44 Zn43 1.962 . S
O44 C49 1.254 . S
O45 Zn42 2.031 . S
O45 C49 1.269 . S
O46 Zn43 1.986 . S
O46 C53 1.262 . S
O47 Zn42 2.049 . S
O47 C55 1.260 . S
O48 Zn43 1.996 . S
O48 C55 1.257 . S
C49 O44 1.254 . S
C49 O45 1.269 . S
C50 O51 1.249 . S
C50 O52 1.270 . S
O51 Zn43 1.943 . S
O51 C50 1.249 . S
O52 Zn42 2.067 . S
O52 C50 1.270 . S
C53 O46 1.262 . S
C53 O54 1.232 . S
O54 C53 1.232 . S
C55 O47 1.260 . S
C55 O48 1.257 . S
Zn56 O59 2.031 . S
Zn56 O61 2.049 . S
Zn56 O66 2.067 . S
Zn57 O58 1.962 . S
Zn57 O60 1.986 . S
Zn57 O62 1.996 . S
Zn57 O65 1.943 . S
O58 Zn57 1.962 . S
O58 C63 1.254 . S
O59 Zn56 2.031 . S
O59 C63 1.269 . S
O60 Zn57 1.986 . S
O60 C67 1.262 . S
O61 Zn56 2.049 . S
O61 C69 1.260 . S
O62 Zn57 1.996 . S
O62 C69 1.257 . S
C63 O58 1.254 . S
C63 O59 1.269 . S
C64 O65 1.249 . S
C64 O66 1.270 . S
O65 Zn57 1.943 . S
O65 C64 1.249 . S
O66 Zn56 2.067 . S
O66 C64 1.270 . S
C67 O60 1.262 . S
C67 O68 1.232 . S
O68 C67 1.232 . S
C69 O61 1.260 . S
C69 O62 1.257 . S
Zn70 O73 2.031 . S
Zn70 O75 2.049 . S
Zn70 O80 2.067 . S
Zn71 O72 1.962 . S
Zn71 O74 1.986 . S
Zn71 O76 1.996 . S
Zn71 O79 1.943 . S
O72 Zn71 1.962 . S
O72 C77 1.254 . S
O73 Zn70 2.031 . S
O73 C77 1.269 . S
O74 Zn71 1.986 . S
O74 C81 1.262 . S
O75 Zn70 2.049 . S
O75 C83 1.260 . S
O76 Zn71 1.996 . S
O76 C83 1.257 . S
C77 O72 1.254 . S
C77 O73 1.269 . S
C78 O79 1.249 . S
C78 O80 1.270 . S
O79 Zn71 1.943 . S
O79 C78 1.249 . S
O80 Zn70 2.067 . S
O80 C78 1.270 . S
C81 O74 1.262 . S
C81 O82 1.232 . S
O82 C81 1.232 . S
C83 O75 1.260 . S
C83 O76 1.257 . S
Zn84 O87 2.031 . S
Zn84 O89 2.049 . S
Zn84 O94 2.067 . S
Zn85 O86 1.962 . S
Zn85 O88 1.986 . S
Zn85 O90 1.996 . S
Zn85 O93 1.943 . S
O86 Zn85 1.962 . S
O86 C91 1.254 . S
O87 Zn84 2.031 . S
O87 C91 1.269 . S
O88 Zn85 1.986 . S
O88 C95 1.262 . S
O89 Zn84 2.049 . S
O89 C97 1.260 . S
O90 Zn85 1.996 . S
O90 C97 1.257 . S
C91 O86 1.254 . S
C91 O87 1.269 . S
C92 O93 1.249 . S
C92 O94 1.270 . S
O93 Zn85 1.943 . S
O93 C92 1.249 . S
O94 Zn84 2.067 . S
O94 C92 1.270 . S
C95 O88 1.262 . S
C95 O96 1.232 . S
O96 C95 1.232 . S
C97 O89 1.260 . S
C97 O90 1.257 . S
Zn98 O101 2.031 . S
Zn98 O103 2.049 . S
Zn98 O108 2.067 . S
Zn99 O100 1.962 . S
Zn99 O102 1.986 . S
Zn99 O104 1.996 . S
Zn99 O107 1.943 . S
O100 Zn99 1.962 . S
O100 C105 1.254 . S
O101 Zn98 2.031 . S
O101 C105 1.269 . S
O102 Zn99 1.986 . S
O102 C109 1.262 . S
O103 Zn98 2.049 . S
O103 C111 1.260 . S
O104 Zn99 1.996 . S
O104 C111 1.257 . S
C105 O100 1.254 . S
C105 O101 1.269 . S
C106 O107 1.249 . S
C106 O108 1.270 . S
O107 Zn99 1.943 . S
O107 C106 1.249 . S
O108 Zn98 2.067 . S
O108 C106 1.270 . S
C109 O102 1.262 . S
C109 O110 1.232 . S
O110 C109 1.232 . S
C111 O103 1.260 . S
C111 O104 1.257 . S
Zn112 O115 2.031 . S
Zn112 O117 2.049 . S
Zn112 O122 2.067 . S
Zn113 O114 1.962 . S
Zn113 O116 1.986 . S
Zn113 O118 1.996 . S
Zn113 O121 1.943 . S
O114 Zn113 1.962 . S
O114 C119 1.254 . S
O115 Zn112 2.031 . S
O115 C119 1.269 . S
O116 Zn113 1.986 . S
O116 C123 1.262 . S
O117 Zn112 2.049 . S
O117 C125 1.260 . S
O118 Zn113 1.996 . S
O118 C125 1.257 . S
C119 O114 1.254 . S
C119 O115 1.269 . S
C120 O121 1.249 . S
C120 O122 1.270 . S
O121 Zn113 1.943 . S
O121 C120 1.249 . S
O122 Zn112 2.067 . S
O122 C120 1.270 . S
C123 O116 1.262 . S
C123 O124 1.232 . S
O124 C123 1.232 . S
C125 O117 1.260 . S
C125 O118 1.257 . S
Zn126 O129 2.031 . S
Zn126 O131 2.049 . S
Zn126 O136 2.067 . S
Zn127 O128 1.962 . S
Zn127 O130 1.986 . S
Zn127 O132 1.996 . S
Zn127 O135 1.943 . S
O128 Zn127 1.962 . S
O128 C133 1.254 . S
O129 Zn126 2.031 . S
O129 C133 1.269 . S
O130 Zn127 1.986 . S
O130 C137 1.262 . S
O131 Zn126 2.049 . S
O131 C139 1.260 . S
O132 Zn127 1.996 . S
O132 C139 1.257 . S
C133 O128 1.254 . S
C133 O129 1.269 . S
C134 O135 1.249 . S
C134 O136 1.270 . S
O135 Zn127 1.943 . S
O135 C134 1.249 . S
O136 Zn126 2.067 . S
O136 C134 1.270 . S
C137 O130 1.262 . S
C137 O138 1.232 . S
O138 C137 1.232 . S
C139 O131 1.260 . S
C139 O132 1.257 . S
Zn140 O143 2.031 . S
Zn140 O145 2.049 . S
Zn140 O150 2.067 . S
Zn141 O142 1.962 . S
Zn141 O144 1.986 . S
Zn141 O146 1.996 . S
Zn141 O149 1.943 . S
O142 Zn141 1.962 . S
O142 C147 1.254 . S
O143 Zn140 2.031 . S
O143 C147 1.269 . S
O144 Zn141 1.986 . S
O144 C151 1.262 . S
O145 Zn140 2.049 . S
O145 C153 1.260 . S
O146 Zn141 1.996 . S
O146 C153 1.257 . S
C147 O142 1.254 . S
C147 O143 1.269 . S
C148 O149 1.249 . S
C148 O150 1.270 . S
O149 Zn141 1.943 . S
O149 C148 1.249 . S
O150 Zn140 2.067 . S
O150 C148 1.270 . S
C151 O144 1.262 . S
C151 O152 1.232 . S
O152 C151 1.232 . S
C153 O145 1.260 . S
C153 O146 1.257 . S
Zn154 O157 2.031 . S
Zn154 O159 2.049 . S
Zn154 O164 2.067 . S
Zn155 O156 1.962 . S
Zn155 O158 1.986 . S
Zn155 O160 1.996 . S
Zn155 O163 1.943 . S
O156 Zn155 1.962 . S
O156 C161 1.254 . S
O157 Zn154 2.031 . S
O157 C161 1.269 . S
O158 Zn155 1.986 . S
O158 C165 1.262 . S
O159 Zn154 2.049 . S
O159 C167 1.260 . S
O160 Zn155 1.996 . S
O160 C167 1.257 . S
C161 O156 1.254 . S
C161 O157 1.269 . S
C162 O163 1.249 . S
C162 O164 1.270 . S
O163 Zn155 1.943 . S
O163 C162 1.249 . S
O164 Zn154 2.067 . S
O164 C162 1.270 . S
C165 O158 1.262 . S
C165 O166 1.232 . S
O166 C165 1.232 . S
C167 O159 1.260 . S
C167 O160 1.257 . S
Zn168 O171 2.031 . S
Zn168 O173 2.049 . S
Zn168 O178 2.067 . S
Zn169 O170 1.962 . S
Zn169 O172 1.986 . S
Zn169 O174 1.996 . S
Zn169 O177 1.943 . S
O170 Zn169 1.962 . S
O170 C175 1.254 . S
O171 Zn168 2.031 . S
O171 C175 1.269 . S
O172 Zn169 1.986 . S
O172 C179 1.262 . S
O173 Zn168 2.049 . S
O173 C181 1.260 . S
O174 Zn169 1.996 . S
O174 C181 1.257 . S
C175 O170 1.254 . S
C175 O171 1.269 . S
C176 O177 1.249 . S
C176 O178 1.270 . S
O177 Zn169 1.943 . S
O177 C176 1.249 . S
O178 Zn168 2.067 . S
O178 C176 1.270 . S
C179 O172 1.262 . S
C179 O180 1.232 . S
O180 C179 1.232 . S
C181 O173 1.260 . S
C181 O174 1.257 . S
Zn182 O185 2.031 . S
Zn182 O187 2.049 . S
Zn182 O192 2.067 . S
Zn183 O184 1.962 . S
Zn183 O186 1.986 . S
Zn183 O188 1.996 . S
Zn183 O191 1.943 . S
O184 Zn183 1.962 . S
O184 C189 1.254 . S
O185 Zn182 2.031 . S
O185 C189 1.269 . S
O186 Zn183 1.986 . S
O186 C193 1.262 . S
O187 Zn182 2.049 . S
O187 C195 1.260 . S
O188 Zn183 1.996 . S
O188 C195 1.257 . S
C189 O184 1.254 . S
C189 O185 1.269 . S
C190 O191 1.249 . S
C190 O192 1.270 . S
O191 Zn183 1.943 . S
O191 C190 1.249 . S
O192 Zn182 2.067 . S
O192 C190 1.270 . S
C193 O186 1.262 . S
C193 O194 1.232 . S
O194 C193 1.232 . S
C195 O187 1.260 . S
C195 O188 1.257 . S
Zn196 O199 2.031 . S
Zn196 O201 2.049 . S
Zn196 O206 2.067 . S
Zn197 O198 1.962 . S
Zn197 O200 1.986 . S
Zn197 O202 1.996 . S
Zn197 O205 1.943 . S
O198 Zn197 1.962 . S
O198 C203 1.254 . S
O199 Zn196 2.031 . S
O199 C203 1.269 . S
O200 Zn197 1.986 . S
O200 C207 1.262 . S
O201 Zn196 2.049 . S
O201 C209 1.260 . S
O202 Zn197 1.996 . S
O202 C209 1.257 . S
C203 O198 1.254 . S
C203 O199 1.269 . S
C204 O205 1.249 . S
C204 O206 1.270 . S
O205 Zn197 1.943 . S
O205 C204 1.249 . S
O206 Zn196 2.067 . S
O206 C204 1.270 . S
C207 O200 1.262 . S
C207 O208 1.232 . S
O208 C207 1.232 . S
C209 O201 1.260 . S
C209 O202 1.257 . S
Zn210 O213 2.031 . S
Zn210 O215 2.049 . S
Zn210 O220 2.067 . S
Zn211 O212 1.962 . S
Zn211 O214 1.986 . S
Zn211 O216 1.996 . S
Zn211 O219 1.943 . S
O212 Zn211 1.962 . S
O212 C217 1.254 . S
O213 Zn210 2.031 . S
O213 C217 1.269 . S
O214 Zn211 1.986 . S
O214 C221 1.262 . S
O215 Zn210 2.049 . S
O215 C223 1.260 . S
O216 Zn211 1.996 . S
O216 C223 1.257 . S
C217 O212 1.254 . S
C217 O213 1.269 . S
C218 O219 1.249 . S
C218 O220 1.270 . S
O219 Zn211 1.943 . S
O219 C218 1.249 . S
O220 Zn210 2.067 . S
O220 C218 1.270 . S
C221 O214 1.262 . S
C221 O222 1.232 . S
O222 C221 1.232 . S
C223 O215 1.260 . S
C223 O216 1.257 . S
Zn224 O227 2.031 . S
Zn224 O229 2.049 . S
Zn224 O234 2.067 . S
Zn225 O226 1.962 . S
Zn225 O228 1.986 . S
Zn225 O230 1.996 . S
Zn225 O233 1.943 . S
O226 Zn225 1.962 . S
O226 C231 1.254 . S
O227 Zn224 2.031 . S
O227 C231 1.269 . S
O228 Zn225 1.986 . S
O228 C235 1.262 . S
O229 Zn224 2.049 . S
O229 C237 1.260 . S
O230 Zn225 1.996 . S
O230 C237 1.257 . S
C231 O226 1.254 . S
C231 O227 1.269 . S
C232 O233 1.249 . S
C232 O234 1.270 . S
O233 Zn225 1.943 . S
O233 C232 1.249 . S
O234 Zn224 2.067 . S
O234 C232 1.270 . S
C235 O228 1.262 . S
C235 O236 1.232 . S
O236 C235 1.232 . S
C237 O229 1.260 . S
C237 O230 1.257 . S
Zn238 O241 2.031 . S
Zn238 O243 2.049 . S
Zn238 O248 2.067 . S
Zn239 O240 1.962 . S
Zn239 O242 1.986 . S
Zn239 O244 1.996 . S
Zn239 O247 1.943 . S
O240 Zn239 1.962 . S
O240 C245 1.254 . S
O241 Zn238 2.031 . S
O241 C245 1.269 . S
O242 Zn239 1.986 . S
O242 C249 1.262 . S
O243 Zn238 2.049 . S
O243 C251 1.260 . S
O244 Zn239 1.996 . S
O244 C251 1.257 . S
C245 O240 1.254 . S
C245 O241 1.269 . S
C246 O247 1.249 . S
C246 O248 1.270 . S
O247 Zn239 1.943 . S
O247 C246 1.249 . S
O248 Zn238 2.067 . S
O248 C246 1.270 . S
C249 O242 1.262 . S
C249 O250 1.232 . S
O250 C249 1.232 . S
C251 O243 1.260 . S
C251 O244 1.257 . S
Zn252 O255 2.031 . S
Zn252 O257 2.049 . S
Zn252 O262 2.067 . S
Zn253 O254 1.962 . S
Zn253 O256 1.986 . S
Zn253 O258 1.996 . S
Zn253 O261 1.943 . S
O254 Zn253 1.962 . S
O254 C259 1.254 . S
O255 Zn252 2.031 . S
O255 C259 1.269 . S
O256 Zn253 1.986 . S
O256 C263 1.262 . S
O257 Zn252 2.049 . S
O257 C265 1.260 . S
O258 Zn253 1.996 . S
O258 C265 1.257 . S
C259 O254 1.254 . S
C259 O255 1.269 . S
C260 O261 1.249 . S
C260 O262 1.270 . S
O261 Zn253 1.943 . S
O261 C260 1.249 . S
O262 Zn252 2.067 . S
O262 C260 1.270 . S
C263 O256 1.262 . S
C263 O264 1.232 . S
O264 C263 1.232 . S
C265 O257 1.260 . S
C265 O258 1.257 . S
Zn266 O269 2.031 . S
Zn266 O271 2.049 . S
Zn266 O276 2.067 . S
Zn267 O268 1.962 . S
Zn267 O270 1.986 . S
Zn267 O272 1.996 . S
Zn267 O275 1.943 . S
O268 Zn267 1.962 . S
O268 C273 1.254 . S
O269 Zn266 2.031 . S
O269 C273 1.269 . S
O270 Zn267 1.986 . S
O270 C277 1.262 . S
O271 Zn266 2.049 . S
O271 C279 1.260 . S
O272 Zn267 1.996 . S
O272 C279 1.257 . S
C273 O268 1.254 . S
C273 O269 1.269 . S
C274 O275 1.249 . S
C274 O276 1.270 . S
O275 Zn267 1.943 . S
O275 C274 1.249 . S
O276 Zn266 2.067 . S
O276 C274 1.270 . S
C277 O270 1.262 . S
C277 O278 1.232 . S
O278 C277 1.232 . S
C279 O271 1.260 . S
C279 O272 1.257 . S
Zn280 O283 2.031 . S
Zn280 O285 2.049 . S
Zn280 O290 2.067 . S
Zn281 O282 1.962 . S
Zn281 O284 1.986 . S
Zn281 O286 1.996 . S
Zn281 O289 1.943 . S
O282 Zn281 1.962 . S
O282 C287 1.254 . S
O283 Zn280 2.031 . S
O283 C287 1.269 . S
O284 Zn281 1.986 . S
O284 C291 1.262 . S
O285 Zn280 2.049 . S
O285 C293 1.260 . S
O286 Zn281 1.996 . S
O286 C293 1.257 . S
C287 O282 1.254 . S
C287 O283 1.269 . S
C288 O289 1.249 . S
C288 O290 1.270 . S
O289 Zn281 1.943 . S
O289 C288 1.249 . S
O290 Zn280 2.067 . S
O290 C288 1.270 . S
C291 O284 1.262 . S
C291 O292 1.232 . S
O292 C291 1.232 . S
C293 O285 1.260 . S
C293 O286 1.257 . S
Zn294 O297 2.031 . S
Zn294 O299 2.049 . S
Zn294 O304 2.067 . S
Zn295 O296 1.962 . S
Zn295 O298 1.986 . S
Zn295 O300 1.996 . S
Zn295 O303 1.943 . S
O296 Zn295 1.962 . S
O296 C301 1.254 . S
O297 Zn294 2.031 . S
O297 C301 1.269 . S
O298 Zn295 1.986 . S
O298 C305 1.262 . S
O299 Zn294 2.049 . S
O299 C307 1.260 . S
O300 Zn295 1.996 . S
O300 C307 1.257 . S
C301 O296 1.254 . S
C301 O297 1.269 . S
C302 O303 1.249 . S
C302 O304 1.270 . S
O303 Zn295 1.943 . S
O303 C302 1.249 . S
O304 Zn294 2.067 . S
O304 C302 1.270 . S
C305 O298 1.262 . S
C305 O306 1.232 . S
O306 C305 1.232 . S
C307 O299 1.260 . S
C307 O300 1.257 . S
Zn308 O311 2.031 . S
Zn308 O313 2.049 . S
Zn308 O318 2.067 . S
Zn309 O310 1.962 . S
Zn309 O312 1.986 . S
Zn309 O314 1.996 . S
Zn309 O317 1.943 . S
O310 Zn309 1.962 . S
O310 C315 1.254 . S
O311 Zn308 2.031 . S
O311 C315 1.269 . S
O312 Zn309 1.986 . S
O312 C319 1.262 . S
O313 Zn308 2.049 . S
O313 C321 1.260 . S
O314 Zn309 1.996 . S
O314 C321 1.257 . S
C315 O310 1.254 . S
C315 O311 1.269 . S
C316 O317 1.249 . S
C316 O318 1.270 . S
O317 Zn309 1.943 . S
O317 C316 1.249 . S
O318 Zn308 2.067 . S
O318 C316 1.270 . S
C319 O312 1.262 . S
C319 O320 1.232 . S
O320 C319 1.232 . S
C321 O313 1.260 . S
C321 O314 1.257 . S
Zn322 O325 2.031 . S
Zn322 O327 2.049 . S
Zn322 O332 2.067 . S
Zn323 O324 1.962 . S
Zn323 O326 1.986 . S
Zn323 O328 1.996 . S
Zn323 O331 1.943 . S
O324 Zn323 1.962 . S
O324 C329 1.254 . S
O325 Zn322 2.031 . S
O325 C329 1.269 . S
O326 Zn323 1.986 . S
O326 C333 1.262 . S
O327 Zn322 2.049 . S
O327 C335 1.260 . S
O328 Zn323 1.996 . S
O328 C335 1.257 . S
C329 O324 1.254 . S
C329 O325 1.269 . S
C330 O331 1.249 . S
C330 O332 1.270 . S
O331 Zn323 1.943 . S
O331 C330 1.249 . S
O332 Zn322 2.067 . S
O332 C330 1.270 . S
C333 O326 1.262 . S
C333 O334 1.232 . S
O334 C333 1.232 . S
C335 O327 1.260 . S
C335 O328 1.257 . S
Zn336 O339 2.031 . S
Zn336 O341 2.049 . S
Zn336 O346 2.067 . S
Zn337 O338 1.962 . S
Zn337 O340 1.986 . S
Zn337 O342 1.996 . S
Zn337 O345 1.943 . S
O338 Zn337 1.962 . S
O338 C343 1.254 . S
O339 Zn336 2.031 . S
O339 C343 1.269 . S
O340 Zn337 1.986 . S
O340 C347 1.262 . S
O341 Zn336 2.049 . S
O341 C349 1.260 . S
O342 Zn337 1.996 . S
O342 C349 1.257 . S
C343 O338 1.254 . S
C343 O339 1.269 . S
C344 O345 1.249 . S
C344 O346 1.270 . S
O345 Zn337 1.943 . S
O345 C344 1.249 . S
O346 Zn336 2.067 . S
O346 C344 1.270 . S
C347 O340 1.262 . S
C347 O348 1.232 . S
O348 C347 1.232 . S
C349 O341 1.260 . S
C349 O342 1.257 . S
Zn350 O353 2.031 . S
Zn350 O355 2.049 . S
Zn350 O360 2.067 . S
Zn351 O352 1.962 . S
Zn351 O354 1.986 . S
Zn351 O356 1.996 . S
Zn351 O359 1.943 . S
O352 Zn351 1.962 . S
O352 C357 1.254 . S
O353 Zn350 2.031 . S
O353 C357 1.269 . S
O354 Zn351 1.986 . S
O354 C361 1.262 . S
O355 Zn350 2.049 . S
O355 C363 1.260 . S
O356 Zn351 1.996 . S
O356 C363 1.257 . S
C357 O352 1.254 . S
C357 O353 1.269 . S
C358 O359 1.249 . S
C358 O360 1.270 . S
O359 Zn351 1.943 . S
O359 C358 1.249 . S
O360 Zn350 2.067 . S
O360 C358 1.270 . S
C361 O354 1.262 . S
C361 O362 1.232 . S
O362 C361 1.232 . S
C363 O355 1.260 . S
C363 O356 1.257 . S
Zn364 O367 2.031 . S
Zn364 O369 2.049 . S
Zn364 O374 2.067 . S
Zn365 O366 1.962 . S
Zn365 O368 1.986 . S
Zn365 O370 1.996 . S
Zn365 O373 1.943 . S
O366 Zn365 1.962 . S
O366 C371 1.254 . S
O367 Zn364 2.031 . S
O367 C371 1.269 . S
O368 Zn365 1.986 . S
O368 C375 1.262 . S
O369 Zn364 2.049 . S
O369 C377 1.260 . S
O370 Zn365 1.996 . S
O370 C377 1.257 . S
C371 O366 1.254 . S
C371 O367 1.269 . S
C372 O373 1.249 . S
C372 O374 1.270 . S
O373 Zn365 1.943 . S
O373 C372 1.249 . S
O374 Zn364 2.067 . S
O374 C372 1.270 . S
C375 O368 1.262 . S
C375 O376 1.232 . S
O376 C375 1.232 . S
C377 O369 1.260 . S
C377 O370 1.257 . S
Zn378 O381 2.031 . S
Zn378 O383 2.049 . S
Zn378 O388 2.067 . S
Zn379 O380 1.962 . S
Zn379 O382 1.986 . S
Zn379 O384 1.996 . S
Zn379 O387 1.943 . S
O380 Zn379 1.962 . S
O380 C385 1.254 . S
O381 Zn378 2.031 . S
O381 C385 1.269 . S
O382 Zn379 1.986 . S
O382 C389 1.262 . S
O383 Zn378 2.049 . S
O383 C391 1.260 . S
O384 Zn379 1.996 . S
O384 C391 1.257 . S
C385 O380 1.254 . S
C385 O381 1.269 . S
C386 O387 1.249 . S
C386 O388 1.270 . S
O387 Zn379 1.943 . S
O387 C386 1.249 . S
O388 Zn378 2.067 . S
O388 C386 1.270 . S
C389 O382 1.262 . S
C389 O390 1.232 . S
O390 C389 1.232 . S
C391 O383 1.260 . S
C391 O384 1.257 . S
Zn392 O395 2.031 . S
Zn392 O397 2.049 . S
Zn392 O402 2.067 . S
Zn393 O394 1.962 . S
Zn393 O396 1.986 . S
Zn393 O398 1.996 . S
Zn393 O401 1.943 . S
O394 Zn393 1.962 . S
O394 C399 1.254 . S
O395 Zn392 2.031 . S
O395 C399 1.269 . S
O396 Zn393 1.986 . S
O396 C403 1.262 . S
O397 Zn392 2.049 . S
O397 C405 1.260 . S
O398 Zn393 1.996 . S
O398 C405 1.257 . S
C399 O394 1.254 . S
C399 O395 1.269 . S
C400 O401 1.249 . S
C400 O402 1.270 . S
O401 Zn393 1.943 . S
O401 C400 1.249 . S
O402 Zn392 2.067 . S
O402 C400 1.270 . S
C403 O396 1.262 . S
C403 O404 1.232 . S
O404 C403 1.232 . S
C405 O397 1.260 . S
C405 O398 1.257 . S
Zn406 O409 2.031 . S
Zn406 O411 2.049 . S
Zn406 O416 2.067 . S
Zn407 O408 1.962 . S
Zn407 O410 1.986 . S
Zn407 O412 1.996 . S
Zn407 O415 1.943 . S
O408 Zn407 1.962 . S
O408 C413 1.254 . S
O409 Zn406 2.031 . S
O409 C413 1.269 . S
O410 Zn407 1.986 . S
O410 C417 1.262 . S
O411 Zn406 2.049 . S
O411 C419 1.260 . S
O412 Zn407 1.996 . S
O412 C419 1.257 . S
C413 O408 1.254 . S
C413 O409 1.269 . S
C414 O415 1.249 . S
C414 O416 1.270 . S
O415 Zn407 1.943 . S
O415 C414 1.249 . S
O416 Zn406 2.067 . S
O416 C414 1.270 . S
C417 O410 1.262 . S
C417 O418 1.232 . S
O418 C417 1.232 . S
C419 O411 1.260 . S
C419 O412 1.257 . S
Zn420 O423 2.031 . S
Zn420 O425 2.049 . S
Zn420 O430 2.067 . S
Zn421 O422 1.962 . S
Zn421 O424 1.986 . S
Zn421 O426 1.996 . S
Zn421 O429 1.943 . S
O422 Zn421 1.962 . S
O422 C427 1.254 . S
O423 Zn420 2.031 . S
O423 C427 1.269 . S
O424 Zn421 1.986 . S
O424 C431 1.262 . S
O425 Zn420 2.049 . S
O425 C433 1.260 . S
O426 Zn421 1.996 . S
O426 C433 1.257 . S
C427 O422 1.254 . S
C427 O423 1.269 . S
C428 O429 1.249 . S
C428 O430 1.270 . S
O429 Zn421 1.943 . S
O429 C428 1.249 . S
O430 Zn420 2.067 . S
O430 C428 1.270 . S
C431 O424 1.262 . S
C431 O432 1.232 . S
O432 C431 1.232 . S
C433 O425 1.260 . S
C433 O426 1.257 . S
Zn434 O437 2.031 . S
Zn434 O439 2.049 . S
Zn434 O444 2.067 . S
Zn435 O436 1.962 . S
Zn435 O438 1.986 . S
Zn435 O440 1.996 . S
Zn435 O443 1.943 . S
O436 Zn435 1.962 . S
O436 C441 1.254 . S
O437 Zn434 2.031 . S
O437 C441 1.269 . S
O438 Zn435 1.986 . S
O438 C445 1.262 . S
O439 Zn434 2.049 . S
O439 C447 1.260 . S
O440 Zn435 1.996 . S
O440 C447 1.257 . S
C441 O436 1.254 . S
C441 O437 1.269 . S
C442 O443 1.249 . S
C442 O444 1.270 . S
O443 Zn435 1.943 . S
O443 C442 1.249 . S
O444 Zn434 2.067 . S
O444 C442 1.270 . S
C445 O438 1.262 . S
C445 O446 1.232 . S
O446 C445 1.232 . S
C447 O439 1.260 . S
C447 O440 1.257 . S
Zn448 O451 2.031 . S
Zn448 O453 2.049 . S
Zn448 O458 2.067 . S
Zn449 O450 1.962 . S
Zn449 O452 1.986 . S
Zn449 O454 1.996 . S
Zn449 O457 1.943 . S
O450 Zn449 1.962 . S
O450 C455 1.254 . S
O451 Zn448 2.031 . S
O451 C455 1.269 . S
O452 Zn449 1.986 . S
O452 C459 1.262 . S
O453 Zn448 2.049 . S
O453 C461 1.260 . S
O454 Zn449 1.996 . S
O454 C461 1.257 . S
C455 O450 1.254 . S
C455 O451 1.269 . S
C456 O457 1.249 . S
C456 O458 1.270 . S
O457 Zn449 1.943 . S
O457 C456 1.249 . S
O458 Zn448 2.067 . S
O458 C456 1.270 . S
C459 O452 1.262 . S
C459 O460 1.232 . S
O460 C459 1.232 . S
C461 O453 1.260 . S
C461 O454 1.257 . S
Zn462 O465 2.031 . S
Zn462 O467 2.049 . S
Zn462 O472 2.067 . S
Zn463 O464 1.962 . S
Zn463 O466 1.986 . S
Zn463 O468 1.996 . S
Zn463 O471 1.943 . S
O464 Zn463 1.962 . S
O464 C469 1.254 . S
O465 Zn462 2.031 . S
O465 C469 1.269 . S
O466 Zn463 1.986 . S
O466 C473 1.262 . S
O467 Zn462 2.049 . S
O467 C475 1.260 . S
O468 Zn463 1.996 . S
O468 C475 1.257 . S
C469 O464 1.254 . S
C469 O465 1.269 . S
C470 O471 1.249 . S
C470 O472 1.270 . S
O471 Zn463 1.943 . S
O471 C470 1.249 . S
O472 Zn462 2.067 . S
O472 C470 1.270 . S
C473 O466 1.262 . S
C473 O474 1.232 . S
O474 C473 1.232 . S
C475 O467 1.260 . S
C475 O468 1.257 . S
Zn476 O479 2.031 . S
Zn476 O481 2.049 . S
Zn476 O486 2.067 . S
Zn477 O478 1.962 . S
Zn477 O480 1.986 . S
Zn477 O482 1.996 . S
Zn477 O485 1.943 . S
O478 Zn477 1.962 . S
O478 C483 1.254 . S
O479 Zn476 2.031 . S
O479 C483 1.269 . S
O480 Zn477 1.986 . S
O480 C487 1.262 . S
O481 Zn476 2.049 . S
O481 C489 1.260 . S
O482 Zn477 1.996 . S
O482 C489 1.257 . S
C483 O478 1.254 . S
C483 O479 1.269 . S
C484 O485 1.249 . S
C484 O486 1.270 . S
O485 Zn477 1.943 . S
O485 C484 1.249 . S
O486 Zn476 2.067 . S
O486 C484 1.270 . S
C487 O480 1.262 . S
C487 O488 1.232 . S
O488 C487 1.232 . S
C489 O481 1.260 . S
C489 O482 1.257 . S
Zn490 O493 2.031 . S
Zn490 O495 2.049 . S
Zn490 O500 2.067 . S
Zn491 O492 1.962 . S
Zn491 O494 1.986 . S
Zn491 O496 1.996 . S
Zn491 O499 1.943 . S
O492 Zn491 1.962 . S
O492 C497 1.254 . S
O493 Zn490 2.031 . S
O493 C497 1.269 . S
O494 Zn491 1.986 . S
O494 C501 1.262 . S
O495 Zn490 2.049 . S
O495 C503 1.260 . S
O496 Zn491 1.996 . S
O496 C503 1.257 . S
C497 O492 1.254 . S
C497 O493 1.269 . S
C498 O499 1.249 . S
C498 O500 1.270 . S
O499 Zn491 1.943 . S
O499 C498 1.249 . S
O500 Zn490 2.067 . S
O500 C498 1.270 . S
C501 O494 1.262 . S
C501 O502 1.232 . S
O502 C501 1.232 . S
C503 O495 1.260 . S
C503 O496 1.257 . S
Zn504 O507 2.031 . S
Zn504 O509 2.049 . S
Zn504 O514 2.067 . S
Zn505 O506 1.962 . S
Zn505 O508 1.986 . S
Zn505 O510 1.996 . S
Zn505 O513 1.943 . S
O506 Zn505 1.962 . S
O506 C511 1.254 . S
O507 Zn504 2.031 . S
O507 C511 1.269 . S
O508 Zn505 1.986 . S
O508 C515 1.262 . S
O509 Zn504 2.049 . S
O509 C517 1.260 . S
O510 Zn505 1.996 . S
O510 C517 1.257 . S
C511 O506 1.254 . S
C511 O507 1.269 . S
C512 O513 1.249 . S
C512 O514 1.270 . S
O513 Zn505 1.943 . S
O513 C512 1.249 . S
O514 Zn504 2.067 . S
O514 C512 1.270 . S
C515 O508 1.262 . S
C515 O516 1.232 . S
O516 C515 1.232 . S
C517 O509 1.260 . S
C517 O510 1.257 . S
Zn518 O521 2.031 . S
Zn518 O523 2.049 . S
Zn518 O528 2.067 . S
Zn519 O520 1.962 . S
Zn519 O522 1.986 . S
Zn519 O524 1.996 . S
Zn519 O527 1.943 . S
O520 Zn519 1.962 . S
O520 C525 1.254 . S
O521 Zn518 2.031 . S
O521 C525 1.269 . S
O522 Zn519 1.986 . S
O522 C529 1.262 . S
O523 Zn518 2.049 . S
O523 C531 1.260 . S
O524 Zn519 1.996 . S
O524 C531 1.257 . S
C525 O520 1.254 . S
C525 O521 1.269 . S
C526 O527 1.249 . S
C526 O528 1.270 . S
O527 Zn519 1.943 . S
O527 C526 1.249 . S
O528 Zn518 2.067 . S
O528 C526 1.270 . S
C529 O522 1.262 . S
C529 O530 1.232 . S
O530 C529 1.232 . S
C531 O523 1.260 . S
C531 O524 1.257 . S
Zn532 O535 2.031 . S
Zn532 O537 2.049 . S
Zn532 O542 2.067 . S
Zn533 O534 1.962 . S
Zn533 O536 1.986 . S
Zn533 O538 1.996 . S
Zn533 O541 1.943 . S
O534 Zn533 1.962 . S
O534 C539 1.254 . S
O535 Zn532 2.031 . S
O535 C539 1.269 . S
O536 Zn533 1.986 . S
O536 C543 1.262 . S
O537 Zn532 2.049 . S
O537 C545 1.260 . S
O538 Zn533 1.996 . S
O538 C545 1.257 . S
C539 O534 1.254 . S
C539 O535 1.269 . S
C540 O541 1.249 . S
C540 O542 1.270 . S
O541 Zn533 1.943 . S
O541 C540 1.249 . S
O542 Zn532 2.067 . S
O542 C540 1.270 . S
C543 O536 1.262 . S
C543 O544 1.232 . S
O544 C543 1.232 . S
C545 O537 1.260 . S
C545 O538 1.257 . S
Zn546 O549 2.031 . S
Zn546 O551 2.049 . S
Zn546 O556 2.067 . S
Zn547 O548 1.962 . S
Zn547 O550 1.986 . S
Zn547 O552 1.996 . S
Zn547 O555 1.943 . S
O548 Zn547 1.962 . S
O548 C553 1.254 . S
O549 Zn546 2.031 . S
O549 C553 1.269 . S
O550 Zn547 1.986 . S
O550 C557 1.262 . S
O551 Zn546 2.049 . S
O551 C559 1.260 . S
O552 Zn547 1.996 . S
O552 C559 1.257 . S
C553 O548 1.254 . S
C553 O549 1.269 . S
C554 O555 1.249 . S
C554 O556 1.270 . S
O555 Zn547 1.943 . S
O555 C554 1.249 . S
O556 Zn546 2.067 . S
O556 C554 1.270 . S
C557 O550 1.262 . S
C557 O558 1.232 . S
O558 C557 1.232 . S
C559 O551 1.260 . S
C559 O552 1.257 . S
Zn560 O563 2.031 . S
Zn560 O565 2.049 . S
Zn560 O570 2.067 . S
Zn561 O562 1.962 . S
Zn561 O564 1.986 . S
Zn561 O566 1.996 . S
Zn561 O569 1.943 . S
O562 Zn561 1.962 . S
O562 C567 1.254 . S
O563 Zn560 2.031 . S
O563 C567 1.269 . S
O564 Zn561 1.986 . S
O564 C571 1.262 . S
O565 Zn560 2.049 . S
O565 C573 1.260 . S
O566 Zn561 1.996 . S
O566 C573 1.257 . S
C567 O562 1.254 . S
C567 O563 1.269 . S
C568 O569 1.249 . S
C568 O570 1.270 . S
O569 Zn561 1.943 . S
O569 C568 1.249 . S
O570 Zn560 2.067 . S
O570 C568 1.270 . S
C571 O564 1.262 . S
C571 O572 1.232 . S
O572 C571 1.232 . S
C573 O565 1.260 . S
C573 O566 1.257 . S
Zn574 O577 2.031 . S
Zn574 O579 2.049 . S
Zn574 O584 2.067 . S
Zn575 O576 1.962 . S
Zn575 O578 1.986 . S
Zn575 O580 1.996 . S
Zn575 O583 1.943 . S
O576 Zn575 1.962 . S
O576 C581 1.254 . S
O577 Zn574 2.031 . S
O577 C581 1.269 . S
O578 Zn575 1.986 . S
O578 C585 1.262 . S
O579 Zn574 2.049 . S
O579 C587 1.260 . S
O580 Zn575 1.996 . S
O580 C587 1.257 . S
C581 O576 1.254 . S
C581 O577 1.269 . S
C582 O583 1.249 . S
C582 O584 1.270 . S
O583 Zn575 1.943 . S
O583 C582 1.249 . S
O584 Zn574 2.067 . S
O584 C582 1.270 . S
C585 O578 1.262 . S
C585 O586 1.232 . S
O586 C585 1.232 . S
C587 O579 1.260 . S
C587 O580 1.257 . S
Zn588 O591 2.031 . S
Zn588 O593 2.049 . S
Zn588 O598 2.067 . S
Zn589 O590 1.962 . S
Zn589 O592 1.986 . S
Zn589 O594 1.996 . S
Zn589 O597 1.943 . S
O590 Zn589 1.962 . S
O590 C595 1.254 . S
O591 Zn588 2.031 . S
O591 C595 1.269 . S
O592 Zn589 1.986 . S
O592 C599 1.262 . S
O593 Zn588 2.049 . S
O593 C601 1.260 . S
O594 Zn589 1.996 . S
O594 C601 1.257 . S
C595 O590 1.254 . S
C595 O591 1.269 . S
C596 O597 1.249 . S
C596 O598 1.270 . S
O597 Zn589 1.943 . S
O597 C596 1.249 . S
O598 Zn588 2.067 . S
O598 C596 1.270 . S
C599 O592 1.262 . S
C599 O600 1.232 . S
O600 C599 1.232 . S
C601 O593 1.260 . S
C601 O594 1.257 . S
Zn602 O605 2.031 . S
Zn602 O607 2.049 . S
Zn602 O612 2.067 . S
Zn603 O604 1.962 . S
Zn603 O606 1.986 . S
Zn603 O608 1.996 . S
Zn603 O611 1.943 . S
O604 Zn603 1.962 . S
O604 C609 1.254 . S
O605 Zn602 2.031 . S
O605 C609 1.269 . S
O606 Zn603 1.986 . S
O606 C613 1.262 . S
O607 Zn602 2.049 . S
O607 C615 1.260 . S
O608 Zn603 1.996 . S
O608 C615 1.257 . S
C609 O604 1.254 . S
C609 O605 1.269 . S
C610 O611 1.249 . S
C610 O612 1.270 . S
O611 Zn603 1.943 . S
O611 C610 1.249 . S
O612 Zn602 2.067 . S
O612 C610 1.270 . S
C613 O606 1.262 . S
C613 O614 1.232 . S
O614 C613 1.232 . S
C615 O607 1.260 . S
C615 O608 1.257 . S
Zn616 O619 2.031 . S
Zn616 O621 2.049 . S
Zn616 O626 2.067 . S
Zn617 O618 1.962 . S
Zn617 O620 1.986 . S
Zn617 O622 1.996 . S
Zn617 O625 1.943 . S
O618 Zn617 1.962 . S
O618 C623 1.254 . S
O619 Zn616 2.031 . S
O619 C623 1.269 . S
O620 Zn617 1.986 . S
O620 C627 1.262 . S
O621 Zn616 2.049 . S
O621 C629 1.260 . S
O622 Zn617 1.996 . S
O622 C629 1.257 . S
C623 O618 1.254 . S
C623 O619 1.269 . S
C624 O625 1.249 . S
C624 O626 1.270 . S
O625 Zn617 1.943 . S
O625 C624 1.249 . S
O626 Zn616 2.067 . S
O626 C624 1.270 . S
C627 O620 1.262 . S
C627 O628 1.232 . S
O628 C627 1.232 . S
C629 O621 1.260 . S
C629 O622 1.257 . S
Zn630 O633 2.031 . S
Zn630 O635 2.049 . S
Zn630 O640 2.067 . S
Zn631 O632 1.962 . S
Zn631 O634 1.986 . S
Zn631 O636 1.996 . S
Zn631 O639 1.943 . S
O632 Zn631 1.962 . S
O632 C637 1.254 . S
O633 Zn630 2.031 . S
O633 C637 1.269 . S
O634 Zn631 1.986 . S
O634 C641 1.262 . S
O635 Zn630 2.049 . S
O635 C643 1.260 . S
O636 Zn631 1.996 . S
O636 C643 1.257 . S
C637 O632 1.254 . S
C637 O633 1.269 . S
C638 O639 1.249 . S
C638 O640 1.270 . S
O639 Zn631 1.943 . S
O639 C638 1.249 . S
O640 Zn630 2.067 . S
O640 C638 1.270 . S
C641 O634 1.262 . S
C641 O642 1.232 . S
O642 C641 1.232 . S
C643 O635 1.260 . S
C643 O636 1.257 . S
Zn644 O647 2.031 . S
Zn644 O649 2.049 . S
Zn644 O654 2.067 . S
Zn645 O646 1.962 . S
Zn645 O648 1.986 . S
Zn645 O650 1.996 . S
Zn645 O653 1.943 . S
O646 Zn645 1.962 . S
O646 C651 1.254 . S
O647 Zn644 2.031 . S
O647 C651 1.269 . S
O648 Zn645 1.986 . S
O648 C655 1.262 . S
O649 Zn644 2.049 . S
O649 C657 1.260 . S
O650 Zn645 1.996 . S
O650 C657 1.257 . S
C651 O646 1.254 . S
C651 O647 1.269 . S
C652 O653 1.249 . S
C652 O654 1.270 . S
O653 Zn645 1.943 . S
O653 C652 1.249 . S
O654 Zn644 2.067 . S
O654 C652 1.270 . S
C655 O648 1.262 . S
C655 O656 1.232 . S
O656 C655 1.232 . S
C657 O649 1.260 . S
C657 O650 1.257 . S
Zn658 O661 2.031 . S
Zn658 O663 2.049 . S
Zn658 O668 2.067 . S
Zn659 O660 1.962 . S
Zn659 O662 1.986 . S
Zn659 O664 1.996 . S
Zn659 O667 1.943 . S
O660 Zn659 1.962 . S
O660 C665 1.254 . S
O661 Zn658 2.031 . S
O661 C665 1.269 . S
O662 Zn659 1.986 . S
O662 C669 1.262 . S
O663 Zn658 2.049 . S
O663 C671 1.260 . S
O664 Zn659 1.996 . S
O664 C671 1.257 . S
C665 O660 1.254 . S
C665 O661 1.269 . S
C666 O667 1.249 . S
C666 O668 1.270 . S
O667 Zn659 1.943 . S
O667 C666 1.249 . S
O668 Zn658 2.067 . S
O668 C666 1.270 . S
C669 O662 1.262 . S
C669 O670 1.232 . S
O670 C669 1.232 . S
C671 O663 1.260 . S
C671 O664 1.257 . S
Zn672 O675 2.031 . S
Zn672 O677 2.049 . S
Zn672 O682 2.067 . S
Zn673 O674 1.962 . S
Zn673 O676 1.986 . S
Zn673 O678 1.996 . S
Zn673 O681 1.943 . S
O674 Zn673 1.962 . S
O674 C679 1.254 . S
O675 Zn672 2.031 . S
O675 C679 1.269 . S
O676 Zn673 1.986 . S
O676 C683 1.262 . S
O677 Zn672 2.049 . S
O677 C685 1.260 . S
O678 Zn673 1.996 . S
O678 C685 1.257 . S
C679 O674 1.254 . S
C679 O675 1.269 . S
C680 O681 1.249 . S
C680 O682 1.270 . S
O681 Zn673 1.943 . S
O681 C680 1.249 . S
O682 Zn672 2.067 . S
O682 C680 1.270 . S
C683 O676 1.262 . S
C683 O684 1.232 . S
O684 C683 1.232 . S
C685 O677 1.260 . S
C685 O678 1.257 . S
Zn686 O689 2.031 . S
Zn686 O691 2.049 . S
Zn686 O696 2.067 . S
Zn687 O688 1.962 . S
Zn687 O690 1.986 . S
Zn687 O692 1.996 . S
Zn687 O695 1.943 . S
O688 Zn687 1.962 . S
O688 C693 1.254 . S
O689 Zn686 2.031 . S
O689 C693 1.269 . S
O690 Zn687 1.986 . S
O690 C697 1.262 . S
O691 Zn686 2.049 . S
O691 C699 1.260 . S
O692 Zn687 1.996 . S
O692 C699 1.257 . S
C693 O688 1.254 . S
C693 O689 1.269 . S
C694 O695 1.249 . S
C694 O696 1.270 . S
O695 Zn687 1.943 . S
O695 C694 1.249 . S
O696 Zn686 2.067 . S
O696 C694 1.270 . S
C697 O690 1.262 . S
C697 O698 1.232 . S
O698 C697 1.232 . S
C699 O691 1.260 . S
C699 O692 1.257 . S
Zn700 O703 2.031 . S
Zn700 O705 2.049 . S
Zn700 O710 2.067 . S
Zn701 O702 1.962 . S
Zn701 O704 1.986 . S
Zn701 O706 1.996 . S
Zn701 O709 1.943 . S
O702 Zn701 1.962 . S
O702 C707 1.254 . S
O703 Zn700 2.031 . S
O703 C707 1.269 . S
O704 Zn701 1.986 . S
O704 C711 1.262 . S
O705 Zn700 2.049 . S
O705 C713 1.260 . S
O706 Zn701 1.996 . S
O706 C713 1.257 . S
C707 O702 1.254 . S
C707 O703 1.269 . S
C708 O709 1.249 . S
C708 O710 1.270 . S
O709 Zn701 1.943 . S
O709 C708 1.249 . S
O710 Zn700 2.067 . S
O710 C708 1.270 . S
C711 O704 1.262 . S
C711 O712 1.232 . S
O712 C711 1.232 . S
C713 O705 1.260 . S
C713 O706 1.257 . S
Zn714 O717 2.031 . S
Zn714 O719 2.049 . S
Zn714 O724 2.067 . S
Zn715 O716 1.962 . S
Zn715 O718 1.986 . S
Zn715 O720 1.996 . S
Zn715 O723 1.943 . S
O716 Zn715 1.962 . S
O716 C721 1.254 . S
O717 Zn714 2.031 . S
O717 C721 1.269 . S
O718 Zn715 1.986 . S
O718 C725 1.262 . S
O719 Zn714 2.049 . S
O719 C727 1.260 . S
O720 Zn715 1.996 . S
O720 C727 1.257 . S
C721 O716 1.254 . S
C721 O717 1.269 . S
C722 O723 1.249 . S
C722 O724 1.270 . S
O723 Zn715 1.943 . S
O723 C722 1.249 . S
O724 Zn714 2.067 . S
O724 C722 1.270 . S
C725 O718 1.262 . S
C725 O726 1.232 . S
O726 C725 1.232 . S
C727 O719 1.260 . S
C727 O720 1.257 . S
Zn728 O731 2.031 . S
Zn728 O733 2.049 . S
Zn728 O738 2.067 . S
Zn729 O730 1.962 . S
Zn729 O732 1.986 . S
Zn729 O734 1.996 . S
Zn729 O737 1.943 . S
O730 Zn729 1.962 . S
O730 C735 1.254 . S
O731 Zn728 2.031 . S
O731 C735 1.269 . S
O732 Zn729 1.986 . S
O732 C739 1.262 . S
O733 Zn728 2.049 . S
O733 C741 1.260 . S
O734 Zn729 1.996 . S
O734 C741 1.257 . S
C735 O730 1.254 . S
C735 O731 1.269 . S
C736 O737 1.249 . S
C736 O738 1.270 . S
O737 Zn729 1.943 . S
O737 C736 1.249 . S
O738 Zn728 2.067 . S
O738 C736 1.270 . S
C739 O732 1.262 . S
C739 O740 1.232 . S
O740 C739 1.232 . S
C741 O733 1.260 . S
C741 O734 1.257 . S
Zn742 O745 2.031 . S
Zn742 O747 2.049 . S
Zn742 O752 2.067 . S
Zn743 O744 1.962 . S
Zn743 O746 1.986 . S
Zn743 O748 1.996 . S
Zn743 O751 1.943 . S
O744 Zn743 1.962 . S
O744 C749 1.254 . S
O745 Zn742 2.031 . S
O745 C749 1.269 . S
O746 Zn743 1.986 . S
O746 C753 1.262 . S
O747 Zn742 2.049 . S
O747 C755 1.260 . S
O748 Zn743 1.996 . S
O748 C755 1.257 . S
C749 O744 1.254 . S
C749 O745 1.269 . S
C750 O751 1.249 . S
C750 O752 1.270 . S
O751 Zn743 1.943 . S
O751 C750 1.249 . S
O752 Zn742 2.067 . S
O752 C750 1.270 . S
C753 O746 1.262 . S
C753 O754 1.232 . S
O754 C753 1.232 . S
C755 O747 1.260 . S
C755 O748 1.257 . S
Zn756 O759 2.031 . S
Zn756 O761 2.049 . S
Zn756 O766 2.067 . S
Zn757 O758 1.962 . S
Zn757 O760 1.986 . S
Zn757 O762 1.996 . S
Zn757 O765 1.943 . S
O758 Zn757 1.962 . S
O758 C763 1.254 . S
O759 Zn756 2.031 . S
O759 C763 1.269 . S
O760 Zn757 1.986 . S
O760 C767 1.262 . S
O761 Zn756 2.049 . S
O761 C769 1.260 . S
O762 Zn757 1.996 . S
O762 C769 1.257 . S
C763 O758 1.254 . S
C763 O759 1.269 . S
C764 O765 1.249 . S
C764 O766 1.270 . S
O765 Zn757 1.943 . S
O765 C764 1.249 . S
O766 Zn756 2.067 . S
O766 C764 1.270 . S
C767 O760 1.262 . S
C767 O768 1.232 . S
O768 C767 1.232 . S
C769 O761 1.260 . S
C769 O762 1.257 . S
Zn770 O773 2.031 . S
Zn770 O775 2.049 . S
Zn770 O780 2.067 . S
Zn771 O772 1.962 . S
Zn771 O774 1.986 . S
Zn771 O776 1.996 . S
Zn771 O779 1.943 . S
O772 Zn771 1.962 . S
O772 C777 1.254 . S
O773 Zn770 2.031 . S
O773 C777 1.269 . S
O774 Zn771 1.986 . S
O774 C781 1.262 . S
O775 Zn770 2.049 . S
O775 C783 1.260 . S
O776 Zn771 1.996 . S
O776 C783 1.257 . S
C777 O772 1.254 . S
C777 O773 1.269 . S
C778 O779 1.249 . S
C778 O780 1.270 . S
O779 Zn771 1.943 . S
O779 C778 1.249 . S
O780 Zn770 2.067 . S
O780 C778 1.270 . S
C781 O774 1.262 . S
C781 O782 1.232 . S
O782 C781 1.232 . S
C783 O775 1.260 . S
C783 O776 1.257 . S
Zn784 O787 2.031 . S
Zn784 O789 2.049 . S
Zn784 O794 2.067 . S
Zn785 O786 1.962 . S
Zn785 O788 1.986 . S
Zn785 O790 1.996 . S
Zn785 O793 1.943 . S
O786 Zn785 1.962 . S
O786 C791 1.254 . S
O787 Zn784 2.031 . S
O787 C791 1.269 . S
O788 Zn785 1.986 . S
O788 C795 1.262 . S
O789 Zn784 2.049 . S
O789 C797 1.260 . S
O790 Zn785 1.996 . S
O790 C797 1.257 . S
C791 O786 1.254 . S
C791 O787 1.269 . S
C792 O793 1.249 . S
C792 O794 1.270 . S
O793 Zn785 1.943 . S
O793 C792 1.249 . S
O794 Zn784 2.067 . S
O794 C792 1.270 . S
C795 O788 1.262 . S
C795 O796 1.232 . S
O796 C795 1.232 . S
C797 O789 1.260 . S
C797 O790 1.257 . S
Zn798 O801 2.031 . S
Zn798 O803 2.049 . S
Zn798 O808 2.067 . S
Zn799 O800 1.962 . S
Zn799 O802 1.986 . S
Zn799 O804 1.996 . S
Zn799 O807 1.943 . S
O800 Zn799 1.962 . S
O800 C805 1.254 . S
O801 Zn798 2.031 . S
O801 C805 1.269 . S
O802 Zn799 1.986 . S
O802 C809 1.262 . S
O803 Zn798 2.049 . S
O803 C811 1.260 . S
O804 Zn799 1.996 . S
O804 C811 1.257 . S
C805 O800 1.254 . S
C805 O801 1.269 . S
C806 O807 1.249 . S
C806 O808 1.270 . S
O807 Zn799 1.943 . S
O807 C806 1.249 . S
O808 Zn798 2.067 . S
O808 C806 1.270 . S
C809 O802 1.262 . S
C809 O810 1.232 . S
O810 C809 1.232 . S
C811 O803 1.260 . S
C811 O804 1.257 . S
Zn812 O815 2.031 . S
Zn812 O817 2.049 . S
Zn812 O822 2.067 . S
Zn813 O814 1.962 . S
Zn813 O816 1.986 . S
Zn813 O818 1.996 . S
Zn813 O821 1.943 . S
O814 Zn813 1.962 . S
O814 C819 1.254 . S
O815 Zn812 2.031 . S
O815 C819 1.269 . S
O816 Zn813 1.986 . S
O816 C823 1.262 . S
O817 Zn812 2.049 . S
O817 C825 1.260 . S
O818 Zn813 1.996 . S
O818 C825 1.257 . S
C819 O814 1.254 . S
C819 O815 1.269 . S
C820 O821 1.249 . S
C820 O822 1.270 . S
O821 Zn813 1.943 . S
O821 C820 1.249 . S
O822 Zn812 2.067 . S
O822 C820 1.270 . S
C823 O816 1.262 . S
C823 O824 1.232 . S
O824 C823 1.232 . S
C825 O817 1.260 . S
C825 O818 1.257 . S
Zn826 O829 2.031 . S
Zn826 O831 2.049 . S
Zn826 O836 2.067 . S
Zn827 O828 1.962 . S
Zn827 O830 1.986 . S
Zn827 O832 1.996 . S
Zn827 O835 1.943 . S
O828 Zn827 1.962 . S
O828 C833 1.254 . S
O829 Zn826 2.031 . S
O829 C833 1.269 . S
O830 Zn827 1.986 . S
O830 C837 1.262 . S
O831 Zn826 2.049 . S
O831 C839 1.260 . S
O832 Zn827 1.996 . S
O832 C839 1.257 . S
C833 O828 1.254 . S
C833 O829 1.269 . S
C834 O835 1.249 . S
C834 O836 1.270 . S
O835 Zn827 1.943 . S
O835 C834 1.249 . S
O836 Zn826 2.067 . S
O836 C834 1.270 . S
C837 O830 1.262 . S
C837 O838 1.232 . S
O838 C837 1.232 . S
C839 O831 1.260 . S
C839 O832 1.257 . S
Zn840 O843 2.031 . S
Zn840 O845 2.049 . S
Zn840 O850 2.067 . S
Zn841 O842 1.962 . S
Zn841 O844 1.986 . S
Zn841 O846 1.996 . S
Zn841 O849 1.943 . S
O842 Zn841 1.962 . S
O842 C847 1.254 . S
O843 Zn840 2.031 . S
O843 C847 1.269 . S
O844 Zn841 1.986 . S
O844 C851 1.262 . S
O845 Zn840 2.049 . S
O845 C853 1.260 . S
O846 Zn841 1.996 . S
O846 C853 1.257 . S
C847 O842 1.254 . S
C847 O843 1.269 . S
C848 O849 1.249 . S
C848 O850 1.270 . S
O849 Zn841 1.943 . S
O849 C848 1.249 . S
O850 Zn840 2.067 . S
O850 C848 1.270 . S
C851 O844 1.262 . S
C851 O852 1.232 . S
O852 C851 1.232 . S
C853 O845 1.260 . S
C853 O846 1.257 . S
Zn854 O857 2.031 . S
Zn854 O859 2.049 . S
Zn854 O864 2.067 . S
Zn855 O856 1.962 . S
Zn855 O858 1.986 . S
Zn855 O860 1.996 . S
Zn855 O863 1.943 . S
O856 Zn855 1.962 . S
O856 C861 1.254 . S
O857 Zn854 2.031 . S
O857 C861 1.269 . S
O858 Zn855 1.986 . S
O858 C865 1.262 . S
O859 Zn854 2.049 . S
O859 C867 1.260 . S
O860 Zn855 1.996 . S
O860 C867 1.257 . S
C861 O856 1.254 . S
C861 O857 1.269 . S
C862 O863 1.249 . S
C862 O864 1.270 . S
O863 Zn855 1.943 . S
O863 C862 1.249 . S
O864 Zn854 2.067 . S
O864 C862 1.270 . S
C865 O858 1.262 . S
C865 O866 1.232 . S
O866 C865 1.232 . S
C867 O859 1.260 . S
C867 O860 1.257 . S
Zn868 O871 2.031 . S
Zn868 O873 2.049 . S
Zn868 O878 2.067 . S
Zn869 O870 1.962 . S
Zn869 O872 1.986 . S
Zn869 O874 1.996 . S
Zn869 O877 1.943 . S
O870 Zn869 1.962 . S
O870 C875 1.254 . S
O871 Zn868 2.031 . S
O871 C875 1.269 . S
O872 Zn869 1.986 . S
O872 C879 1.262 . S
O873 Zn868 2.049 . S
O873 C881 1.260 . S
O874 Zn869 1.996 . S
O874 C881 1.257 . S
C875 O870 1.254 . S
C875 O871 1.269 . S
C876 O877 1.249 . S
C876 O878 1.270 . S
O877 Zn869 1.943 . S
O877 C876 1.249 . S
O878 Zn868 2.067 . S
O878 C876 1.270 . S
C879 O872 1.262 . S
C879 O880 1.232 . S
O880 C879 1.232 . S
C881 O873 1.260 . S
C881 O874 1.257 . S
Zn882 O885 2.031 . S
Zn882 O887 2.049 . S
Zn882 O892 2.067 . S
Zn883 O884 1.962 . S
Zn883 O886 1.986 . S
Zn883 O888 1.996 . S
Zn883 O891 1.943 . S
O884 Zn883 1.962 . S
O884 C889 1.254 . S
O885 Zn882 2.031 . S
O885 C889 1.269 . S
O886 Zn883 1.986 . S
O886 C893 1.262 . S
O887 Zn882 2.049 . S
O887 C895 1.260 . S
O888 Zn883 1.996 . S
O888 C895 1.257 . S
C889 O884 1.254 . S
C889 O885 1.269 . S
C890 O891 1.249 . S
C890 O892 1.270 . S
O891 Zn883 1.943 . S
O891 C890 1.249 . S
O892 Zn882 2.067 . S
O892 C890 1.270 . S
C893 O886 1.262 . S
C893 O894 1.232 . S
O894 C893 1.232 . S
C895 O887 1.260 . S
C895 O888 1.257 . S
Zn896 O899 2.031 . S
Zn896 O901 2.049 . S
Zn896 O906 2.067 . S
Zn897 O898 1.962 . S
Zn897 O900 1.986 . S
Zn897 O902 1.996 . S
Zn897 O905 1.943 . S
O898 Zn897 1.962 . S
O898 C903 1.254 . S
O899 Zn896 2.031 . S
O899 C903 1.269 . S
O900 Zn897 1.986 . S
O900 C907 1.262 . S
O901 Zn896 2.049 . S
O901 C909 1.260 . S
O902 Zn897 1.996 . S
O902 C909 1.257 . S
C903 O898 1.254 . S
C903 O899 1.269 . S
C904 O905 1.249 . S
C904 O906 1.270 . S
O905 Zn897 1.943 . S
O905 C904 1.249 . S
O906 Zn896 2.067 . S
O906 C904 1.270 . S
C907 O900 1.262 . S
C907 O908 1.232 . S
O908 C907 1.232 . S
C909 O901 1.260 . S
C909 O902 1.257 . S
Zn910 O913 2.031 . S
Zn910 O915 2.049 . S
Zn910 O920 2.067 . S
Zn911 O912 1.962 . S
Zn911 O914 1.986 . S
Zn911 O916 1.996 . S
Zn911 O919 1.943 . S
O912 Zn911 1.962 . S
O912 C917 1.254 . S
O913 Zn910 2.031 . S
O913 C917 1.269 . S
O914 Zn911 1.986 . S
O914 C921 1.262 . S
O915 Zn910 2.049 . S
O915 C923 1.260 . S
O916 Zn911 1.996 . S
O916 C923 1.257 . S
C917 O912 1.254 . S
C917 O913 1.269 . S
C918 O919 1.249 . S
C918 O920 1.270 . S
O919 Zn911 1.943 . S
O919 C918 1.249 . S
O920 Zn910 2.067 . S
O920 C918 1.270 . S
C921 O914 1.262 . S
C921 O922 1.232 . S
O922 C921 1.232 . S
C923 O915 1.260 . S
C923 O916 1.257 . S
Zn924 O927 2.031 . S
Zn924 O929 2.049 . S
Zn924 O934 2.067 . S
Zn925 O926 1.962 . S
Zn925 O928 1.986 . S
Zn925 O930 1.996 . S
Zn925 O933 1.943 . S
O926 Zn925 1.962 . S
O926 C931 1.254 . S
O927 Zn924 2.031 . S
O927 C931 1.269 . S
O928 Zn925 1.986 . S
O928 C935 1.262 . S
O929 Zn924 2.049 . S
O929 C937 1.260 . S
O930 Zn925 1.996 . S
O930 C937 1.257 . S
C931 O926 1.254 . S
C931 O927 1.269 . S
C932 O933 1.249 . S
C932 O934 1.270 . S
O933 Zn925 1.943 . S
O933 C932 1.249 . S
O934 Zn924 2.067 . S
O934 C932 1.270 . S
C935 O928 1.262 . S
C935 O936 1.232 . S
O936 C935 1.232 . S
C937 O929 1.260 . S
C937 O930 1.257 . S
Zn938 O941 2.031 . S
Zn938 O943 2.049 . S
Zn938 O948 2.067 . S
Zn939 O940 1.962 . S
Zn939 O942 1.986 . S
Zn939 O944 1.996 . S
Zn939 O947 1.943 . S
O940 Zn939 1.962 . S
O940 C945 1.254 . S
O941 Zn938 2.031 . S
O941 C945 1.269 . S
O942 Zn939 1.986 . S
O942 C949 1.262 . S
O943 Zn938 2.049 . S
O943 C951 1.260 . S
O944 Zn939 1.996 . S
O944 C951 1.257 . S
C945 O940 1.254 . S
C945 O941 1.269 . S
C946 O947 1.249 . S
C946 O948 1.270 . S
O947 Zn939 1.943 . S
O947 C946 1.249 . S
O948 Zn938 2.067 . S
O948 C946 1.270 . S
C949 O942 1.262 . S
C949 O950 1.232 . S
O950 C949 1.232 . S
C951 O943 1.260 . S
C951 O944 1.257 . S
Zn952 O955 2.031 . S
Zn952 O957 2.049 . S
Zn952 O962 2.067 . S
Zn953 O954 1.962 . S
Zn953 O956 1.986 . S
Zn953 O958 1.996 . S
Zn953 O961 1.943 . S
O954 Zn953 1.962 . S
O954 C959 1.254 . S
O955 Zn952 2.031 . S
O955 C959 1.269 . S
O956 Zn953 1.986 . S
O956 C963 1.262 . S
O957 Zn952 2.049 . S
O957 C965 1.260 . S
O958 Zn953 1.996 . S
O958 C965 1.257 . S
C959 O954 1.254 . S
C959 O955 1.269 . S
C960 O961 1.249 . S
C960 O962 1.270 . S
O961 Zn953 1.943 . S
O961 C960 1.249 . S
O962 Zn952 2.067 . S
O962 C960 1.270 . S
C963 O956 1.262 . S
C963 O964 1.232 . S
O964 C963 1.232 . S
C965 O957 1.260 . S
C965 O958 1.257 . S
Zn966 O969 2.031 . S
Zn966 O971 2.049 . S
Zn966 O976 2.067 . S
Zn967 O968 1.962 . S
Zn967 O970 1.986 . S
Zn967 O972 1.996 . S
Zn967 O975 1.943 . S
O968 Zn967 1.962 . S
O968 C973 1.254 . S
O969 Zn966 2.031 . S
O969 C973 1.269 . S
O970 Zn967 1.986 . S
O970 C977 1.262 . S
O971 Zn966 2.049 . S
O971 C979 1.260 . S
O972 Zn967 1.996 . S
O972 C979 1.257 . S
C973 O968 1.254 . S
C973 O969 1.269 . S
C974 O975 1.249 . S
C974 O976 1.270 . S
O975 Zn967 1.943 . S
O975 C974 1.249 . S
O976 Zn966 2.067 . S
O976 C974 1.270 . S
C977 O970 1.262 . S
C977 O978 1.232 . S
O978 C977 1.232 . S
C979 O971 1.260 . S
C979 O972 1.257 . S
Zn980 O983 2.031 . S
Zn980 O985 2.049 . S
Zn980 O990 2.067 . S
Zn981 O982 1.962 . S
Zn981 O984 1.986 . S
Zn981 O986 1.996 . S
Zn981 O989 1.943 . S
O982 Zn981 1.962 . S
O982 C987 1.254 . S
O983 Zn980 2.031 . S
O983 C987 1.269 . S
O984 Zn981 1.986 . S
O984 C991 1.262 . S
O985 Zn980 2.049 . S
O985 C993 1.260 . S
O986 Zn981 1.996 . S
O986 C993 1.257 . S
C987 O982 1.254 . S
C987 O983 1.269 . S
C988 O989 1.249 . S
C988 O990 1.270 . S
O989 Zn981 1.943 . S
O989 C988 1.249 . S
O990 Zn980 2.067 . S
O990 C988 1.270 . S
C991 O984 1.262 . S
C991 O992 1.232 . S
O992 C991 1.232 . S
C993 O985 1.260 . S
C993 O986 1.257 . S
Zn994 O997 2.031 . S
Zn994 O999 2.049 . S
Zn994 O1004 2.067 . S
Zn995 O996 1.962 . S
Zn995 O998 1.986 . S
Zn995 O1000 1.996 . S
Zn995 O1003 1.943 . S
O996 Zn995 1.962 . S
O996 C1001 1.254 . S
O997 Zn994 2.031 . S
O997 C1001 1.269 . S
O998 Zn995 1.986 . S
O998 C1005 1.262 . S
O999 Zn994 2.049 . S
O999 C1007 1.260 . S
O1000 Zn995 1.996 . S
O1000 C1007 1.257 . S
C1001 O996 1.254 . S
C1001 O997 1.269 . S
C1002 O1003 1.249 . S
C1002 O1004 1.270 . S
O1003 Zn995 1.943 . S
O1003 C1002 1.249 . S
O1004 Zn994 2.067 . S
O1004 C1002 1.270 . S
C1005 O998 1.262 . S
C1005 O1006 1.232 . S
O1006 C1005 1.232 . S
C1007 O999 1.260 . S
C1007 O1000 1.257 . S
Zn1008 O1011 2.031 . S
Zn1008 O1013 2.049 . S
Zn1008 O1018 2.067 . S
Zn1009 O1010 1.962 . S
Zn1009 O1012 1.986 . S
Zn1009 O1014 1.996 . S
Zn1009 O1017 1.943 . S
O1010 Zn1009 1.962 . S
O1010 C1015 1.254 . S
O1011 Zn1008 2.031 . S
O1011 C1015 1.269 . S
O1012 Zn1009 1.986 . S
O1012 C1019 1.262 . S
O1013 Zn1008 2.049 . S
O1013 C1021 1.260 . S
O1014 Zn1009 1.996 . S
O1014 C1021 1.257 . S
C1015 O1010 1.254 . S
C1015 O1011 1.269 . S
C1016 O1017 1.249 . S
C1016 O1018 1.270 . S
O1017 Zn1009 1.943 . S
O1017 C1016 1.249 . S
O1018 Zn1008 2.067 . S
O1018 C1016 1.270 . S
C1019 O1012 1.262 . S
C1019 O1020 1.232 . S
O1020 C1019 1.232 . S
C1021 O1013 1.260 . S
C1021 O1014 1.257 . S
Zn1022 O1025 2.031 . S
Zn1022 O1027 2.049 . S
Zn1022 O1032 2.067 . S
Zn1023 O1024 1.962 . S
Zn1023 O1026 1.986 . S
Zn1023 O1028 1.996 . S
Zn1023 O1031 1.943 . S
O1024 Zn1023 1.962 . S
O1024 C1029 1.254 . S
O1025 Zn1022 2.031 . S
O1025 C1029 1.269 . S
O1026 Zn1023 1.986 . S
O1026 C1033 1.262 . S
O1027 Zn1022 2.049 . S
O1027 C1035 1.260 . S
O1028 Zn1023 1.996 . S
O1028 C1035 1.257 . S
C1029 O1024 1.254 . S
C1029 O1025 1.269 . S
C1030 O1031 1.249 . S
C1030 O1032 1.270 . S
O1031 Zn1023 1.943 . S
O1031 C1030 1.249 . S
O1032 Zn1022 2.067 . S
O1032 C1030 1.270 . S
C1033 O1026 1.262 . S
C1033 O1034 1.232 . S
O1034 C1033 1.232 . S
C1035 O1027 1.260 . S
C1035 O1028 1.257 . S
Zn1036 O1039 2.031 . S
Zn1036 O1041 2.049 . S
Zn1036 O1046 2.067 . S
Zn1037 O1038 1.962 . S
Zn1037 O1040 1.986 . S
Zn1037 O1042 1.996 . S
Zn1037 O1045 1.943 . S
O1038 Zn1037 1.962 . S
O1038 C1043 1.254 . S
O1039 Zn1036 2.031 . S
O1039 C1043 1.269 . S
O1040 Zn1037 1.986 . S
O1040 C1047 1.262 . S
O1041 Zn1036 2.049 . S
O1041 C1049 1.260 . S
O1042 Zn1037 1.996 . S
O1042 C1049 1.257 . S
C1043 O1038 1.254 . S
C1043 O1039 1.269 . S
C1044 O1045 1.249 . S
C1044 O1046 1.270 . S
O1045 Zn1037 1.943 . S
O1045 C1044 1.249 . S
O1046 Zn1036 2.067 . S
O1046 C1044 1.270 . S
C1047 O1040 1.262 . S
C1047 O1048 1.232 . S
O1048 C1047 1.232 . S
C1049 O1041 1.260 . S
C1049 O1042 1.257 . S
Zn1050 O1053 2.031 . S
Zn1050 O1055 2.049 . S
Zn1050 O1060 2.067 . S
Zn1051 O1052 1.962 . S
Zn1051 O1054 1.986 . S
Zn1051 O1056 1.996 . S
Zn1051 O1059 1.943 . S
O1052 Zn1051 1.962 . S
O1052 C1057 1.254 . S
O1053 Zn1050 2.031 . S
O1053 C1057 1.269 . S
O1054 Zn1051 1.986 . S
O1054 C1061 1.262 . S
O1055 Zn1050 2.049 . S
O1055 C1063 1.260 . S
O1056 Zn1051 1.996 . S
O1056 C1063 1.257 . S
C1057 O1052 1.254 . S
C1057 O1053 1.269 . S
C1058 O1059 1.249 . S
C1058 O1060 1.270 . S
O1059 Zn1051 1.943 . S
O1059 C1058 1.249 . S
O1060 Zn1050 2.067 . S
O1060 C1058 1.270 . S
C1061 O1054 1.262 . S
C1061 O1062 1.232 . S
O1062 C1061 1.232 . S
C1063 O1055 1.260 . S
C1063 O1056 1.257 . S
Zn1064 O1067 2.031 . S
Zn1064 O1069 2.049 . S
Zn1064 O1074 2.067 . S
Zn1065 O1066 1.962 . S
Zn1065 O1068 1.986 . S
Zn1065 O1070 1.996 . S
Zn1065 O1073 1.943 . S
O1066 Zn1065 1.962 . S
O1066 C1071 1.254 . S
O1067 Zn1064 2.031 . S
O1067 C1071 1.269 . S
O1068 Zn1065 1.986 . S
O1068 C1075 1.262 . S
O1069 Zn1064 2.049 . S
O1069 C1077 1.260 . S
O1070 Zn1065 1.996 . S
O1070 C1077 1.257 . S
C1071 O1066 1.254 . S
C1071 O1067 1.269 . S
C1072 O1073 1.249 . S
C1072 O1074 1.270 . S
O1073 Zn1065 1.943 . S
O1073 C1072 1.249 . S
O1074 Zn1064 2.067 . S
O1074 C1072 1.270 . S
C1075 O1068 1.262 . S
C1075 O1076 1.232 . S
O1076 C1075 1.232 . S
C1077 O1069 1.260 . S
C1077 O1070 1.257 . S
Zn1078 O1081 2.031 . S
Zn1078 O1083 2.049 . S
Zn1078 O1088 2.067 . S
Zn1079 O1080 1.962 . S
Zn1079 O1082 1.986 . S
Zn1079 O1084 1.996 . S
Zn1079 O1087 1.943 . S
O1080 Zn1079 1.962 . S
O1080 C1085 1.254 . S
O1081 Zn1078 2.031 . S
O1081 C1085 1.269 . S
O1082 Zn1079 1.986 . S
O1082 C1089 1.262 . S
O1083 Zn1078 2.049 . S
O1083 C1091 1.260 . S
O1084 Zn1079 1.996 . S
O1084 C1091 1.257 . S
C1085 O1080 1.254 . S
C1085 O1081 1.269 . S
C1086 O1087 1.249 . S
C1086 O1088 1.270 . S
O1087 Zn1079 1.943 . S
O1087 C1086 1.249 . S
O1088 Zn1078 2.067 . S
O1088 C1086 1.270 . S
C1089 O1082 1.262 . S
C1089 O1090 1.232 . S
O1090 C1089 1.232 . S
C1091 O1083 1.260 . S
C1091 O1084 1.257 . S
Zn1092 O1095 2.031 . S
Zn1092 O1097 2.049 . S
Zn1092 O1102 2.067 . S
Zn1093 O1094 1.962 . S
Zn1093 O1096 1.986 . S
Zn1093 O1098 1.996 . S
Zn1093 O1101 1.943 . S
O1094 Zn1093 1.962 . S
O1094 C1099 1.254 . S
O1095 Zn1092 2.031 . S
O1095 C1099 1.269 . S
O1096 Zn1093 1.986 . S
O1096 C1103 1.262 . S
O1097 Zn1092 2.049 . S
O1097 C1105 1.260 . S
O1098 Zn1093 1.996 . S
O1098 C1105 1.257 . S
C1099 O1094 1.254 . S
C1099 O1095 1.269 . S
C1100 O1101 1.249 . S
C1100 O1102 1.270 . S
O1101 Zn1093 1.943 . S
O1101 C1100 1.249 . S
O1102 Zn1092 2.067 . S
O1102 C1100 1.270 . S
C1103 O1096 1.262 . S
C1103 O1104 1.232 . S
O1104 C1103 1.232 . S
C1105 O1097 1.260 . S
C1105 O1098 1.257 . S
Zn1106 O1109 2.031 . S
Zn1106 O1111 2.049 . S
Zn1106 O1116 2.067 . S
Zn1107 O1108 1.962 . S
Zn1107 O1110 1.986 . S
Zn1107 O1112 1.996 . S
Zn1107 O1115 1.943 . S
O1108 Zn1107 1.962 . S
O1108 C1113 1.254 . S
O1109 Zn1106 2.031 . S
O1109 C1113 1.269 . S
O1110 Zn1107 1.986 . S
O1110 C1117 1.262 . S
O1111 Zn1106 2.049 . S
O1111 C1119 1.260 . S
O1112 Zn1107 1.996 . S
O1112 C1119 1.257 . S
C1113 O1108 1.254 . S
C1113 O1109 1.269 . S
C1114 O1115 1.249 . S
C1114 O1116 1.270 . S
O1115 Zn1107 1.943 . S
O1115 C1114 1.249 . S
O1116 Zn1106 2.067 . S
O1116 C1114 1.270 . S
C1117 O1110 1.262 . S
C1117 O1118 1.232 . S
O1118 C1117 1.232 . S
C1119 O1111 1.260 . S
C1119 O1112 1.257 . S
Zn1120 O1123 2.031 . S
Zn1120 O1125 2.049 . S
Zn1120 O1130 2.067 . S
Zn1121 O1122 1.962 . S
Zn1121 O1124 1.986 . S
Zn1121 O1126 1.996 . S
Zn1121 O1129 1.943 . S
O1122 Zn1121 1.962 . S
O1122 C1127 1.254 . S
O1123 Zn1120 2.031 . S
O1123 C1127 1.269 . S
O1124 Zn1121 1.986 . S
O1124 C1131 1.262 . S
O1125 Zn1120 2.049 . S
O1125 C1133 1.260 . S
O1126 Zn1121 1.996 . S
O1126 C1133 1.257 . S
C1127 O1122 1.254 . S
C1127 O1123 1.269 . S
C1128 O1129 1.249 . S
C1128 O1130 1.270 . S
O1129 Zn1121 1.943 . S
O1129 C1128 1.249 . S
O1130 Zn1120 2.067 . S
O1130 C1128 1.270 . S
C1131 O1124 1.262 . S
C1131 O1132 1.232 . S
O1132 C1131 1.232 . S
C1133 O1125 1.260 . S
C1133 O1126 1.257 . S
Zn1134 O1137 2.031 . S
Zn1134 O1139 2.049 . S
Zn1134 O1144 2.067 . S
Zn1135 O1136 1.962 . S
Zn1135 O1138 1.986 . S
Zn1135 O1140 1.996 . S
Zn1135 O1143 1.943 . S
O1136 Zn1135 1.962 . S
O1136 C1141 1.254 . S
O1137 Zn1134 2.031 . S
O1137 C1141 1.269 . S
O1138 Zn1135 1.986 . S
O1138 C1145 1.262 . S
O1139 Zn1134 2.049 . S
O1139 C1147 1.260 . S
O1140 Zn1135 1.996 . S
O1140 C1147 1.257 . S
C1141 O1136 1.254 . S
C1141 O1137 1.269 . S
C1142 O1143 1.249 . S
C1142 O1144 1.270 . S
O1143 Zn1135 1.943 . S
O1143 C1142 1.249 . S
O1144 Zn1134 2.067 . S
O1144 C1142 1.270 . S
C1145 O1138 1.262 . S
C1145 O1146 1.232 . S
O1146 C1145 1.232 . S
C1147 O1139 1.260 . S
C1147 O1140 1.257 . S
Zn1148 O1151 2.031 . S
Zn1148 O1153 2.049 . S
Zn1148 O1158 2.067 . S
Zn1149 O1150 1.962 . S
Zn1149 O1152 1.986 . S
Zn1149 O1154 1.996 . S
Zn1149 O1157 1.943 . S
O1150 Zn1149 1.962 . S
O1150 C1155 1.254 . S
O1151 Zn1148 2.031 . S
O1151 C1155 1.269 . S
O1152 Zn1149 1.986 . S
O1152 C1159 1.262 . S
O1153 Zn1148 2.049 . S
O1153 C1161 1.260 . S
O1154 Zn1149 1.996 . S
O1154 C1161 1.257 . S
C1155 O1150 1.254 . S
C1155 O1151 1.269 . S
C1156 O1157 1.249 . S
C1156 O1158 1.270 . S
O1157 Zn1149 1.943 . S
O1157 C1156 1.249 . S
O1158 Zn1148 2.067 . S
O1158 C1156 1.270 . S
C1159 O1152 1.262 . S
C1159 O1160 1.232 . S
O1160 C1159 1.232 . S
C1161 O1153 1.260 . S
C1161 O1154 1.257 . S
Zn1162 O1165 2.031 . S
Zn1162 O1167 2.049 . S
Zn1162 O1172 2.067 . S
Zn1163 O1164 1.962 . S
Zn1163 O1166 1.986 . S
Zn1163 O1168 1.996 . S
Zn1163 O1171 1.943 . S
O1164 Zn1163 1.962 . S
O1164 C1169 1.254 . S
O1165 Zn1162 2.031 . S
O1165 C1169 1.269 . S
O1166 Zn1163 1.986 . S
O1166 C1173 1.262 . S
O1167 Zn1162 2.049 . S
O1167 C1175 1.260 . S
O1168 Zn1163 1.996 . S
O1168 C1175 1.257 . S
C1169 O1164 1.254 . S
C1169 O1165 1.269 . S
C1170 O1171 1.249 . S
C1170 O1172 1.270 . S
O1171 Zn1163 1.943 . S
O1171 C1170 1.249 . S
O1172 Zn1162 2.067 . S
O1172 C1170 1.270 . S
C1173 O1166 1.262 . S
C1173 O1174 1.232 . S
O1174 C1173 1.232 . S
C1175 O1167 1.260 . S
C1175 O1168 1.257 . S
Zn1176 O1179 2.031 . S
Zn1176 O1181 2.049 . S
Zn1176 O1186 2.067 . S
Zn1177 O1178 1.962 . S
Zn1177 O1180 1.986 . S
Zn1177 O1182 1.996 . S
Zn1177 O1185 1.943 . S
O1178 Zn1177 1.962 . S
O1178 C1183 1.254 . S
O1179 Zn1176 2.031 . S
O1179 C1183 1.269 . S
O1180 Zn1177 1.986 . S
O1180 C1187 1.262 . S
O1181 Zn1176 2.049 . S
O1181 C1189 1.260 . S
O1182 Zn1177 1.996 . S
O1182 C1189 1.257 . S
C1183 O1178 1.254 . S
C1183 O1179 1.269 . S
C1184 O1185 1.249 . S
C1184 O1186 1.270 . S
O1185 Zn1177 1.943 . S
O1185 C1184 1.249 . S
O1186 Zn1176 2.067 . S
O1186 C1184 1.270 . S
C1187 O1180 1.262 . S
C1187 O1188 1.232 . S
O1188 C1187 1.232 . S
C1189 O1181 1.260 . S
C1189 O1182 1.257 . S
Zn1190 O1193 2.031 . S
Zn1190 O1195 2.049 . S
Zn1190 O1200 2.067 . S
Zn1191 O1192 1.962 . S
Zn1191 O1194 1.986 . S
Zn1191 O1196 1.996 . S
Zn1191 O1199 1.943 . S
O1192 Zn1191 1.962 . S
O1192 C1197 1.254 . S
O1193 Zn1190 2.031 . S
O1193 C1197 1.269 . S
O1194 Zn1191 1.986 . S
O1194 C1201 1.262 . S
O1195 Zn1190 2.049 . S
O1195 C1203 1.260 . S
O1196 Zn1191 1.996 . S
O1196 C1203 1.257 . S
C1197 O1192 1.254 . S
C1197 O1193 1.269 . S
C1198 O1199 1.249 . S
C1198 O1200 1.270 . S
O1199 Zn1191 1.943 . S
O1199 C1198 1.249 . S
O1200 Zn1190 2.067 . S
O1200 C1198 1.270 . S
C1201 O1194 1.262 . S
C1201 O1202 1.232 . S
O1202 C1201 1.232 . S
C1203 O1195 1.260 . S
C1203 O1196 1.257 . S
Zn1204 O1207 2.031 . S
Zn1204 O1209 2.049 . S
Zn1204 O1214 2.067 . S
Zn1205 O1206 1.962 . S
Zn1205 O1208 1.986 . S
Zn1205 O1210 1.996 . S
Zn1205 O1213 1.943 . S
O1206 Zn1205 1.962 . S
O1206 C1211 1.254 . S
O1207 Zn1204 2.031 . S
O1207 C1211 1.269 . S
O1208 Zn1205 1.986 . S
O1208 C1215 1.262 . S
O1209 Zn1204 2.049 . S
O1209 C1217 1.260 . S
O1210 Zn1205 1.996 . S
O1210 C1217 1.257 . S
C1211 O1206 1.254 . S
C1211 O1207 1.269 . S
C1212 O1213 1.249 . S
C1212 O1214 1.270 . S
O1213 Zn1205 1.943 . S
O1213 C1212 1.249 . S
O1214 Zn1204 2.067 . S
O1214 C1212 1.270 . S
C1215 O1208 1.262 . S
C1215 O1216 1.232 . S
O1216 C1215 1.232 . S
C1217 O1209 1.260 . S
C1217 O1210 1.257 . S
Zn1218 O1221 2.031 . S
Zn1218 O1223 2.049 . S
Zn1218 O1228 2.067 . S
Zn1219 O1220 1.962 . S
Zn1219 O1222 1.986 . S
Zn1219 O1224 1.996 . S
Zn1219 O1227 1.943 . S
O1220 Zn1219 1.962 . S
O1220 C1225 1.254 . S
O1221 Zn1218 2.031 . S
O1221 C1225 1.269 . S
O1222 Zn1219 1.986 . S
O1222 C1229 1.262 . S
O1223 Zn1218 2.049 . S
O1223 C1231 1.260 . S
O1224 Zn1219 1.996 . S
O1224 C1231 1.257 . S
C1225 O1220 1.254 . S
C1225 O1221 1.269 . S
C1226 O1227 1.249 . S
C1226 O1228 1.270 . S
O1227 Zn1219 1.943 . S
O1227 C1226 1.249 . S
O1228 Zn1218 2.067 . S
O1228 C1226 1.270 . S
C1229 O1222 1.262 . S
C1229 O1230 1.232 . S
O1230 C1229 1.232 . S
C1231 O1223 1.260 . S
C1231 O1224 1.257 . S
Zn1232 O1235 2.031 . S
Zn1232 O1237 2.049 . S
Zn1232 O1242 2.067 . S
Zn1233 O1234 1.962 . S
Zn1233 O1236 1.986 . S
Zn1233 O1238 1.996 . S
Zn1233 O1241 1.943 . S
O1234 Zn1233 1.962 . S
O1234 C1239 1.254 . S
O1235 Zn1232 2.031 . S
O1235 C1239 1.269 . S
O1236 Zn1233 1.986 . S
O1236 C1243 1.262 . S
O1237 Zn1232 2.049 . S
O1237 C1245 1.260 . S
O1238 Zn1233 1.996 . S
O1238 C1245 1.257 . S
C1239 O1234 1.254 . S
C1239 O1235 1.269 . S
C1240 O1241 1.249 . S
C1240 O1242 1.270 . S
O1241 Zn1233 1.943 . S
O1241 C1240 1.249 . S
O1242 Zn1232 2.067 . S
O1242 C1240 1.270 . S
C1243 O1236 1.262 . S
C1243 O1244 1.232 . S
O1244 C1243 1.232 . S
C1245 O1237 1.260 . S
C1245 O1238 1.257 . S
Zn1246 O1249 2.031 . S
Zn1246 O1251 2.049 . S
Zn1246 O1256 2.067 . S
Zn1247 O1248 1.962 . S
Zn1247 O1250 1.986 . S
Zn1247 O1252 1.996 . S
Zn1247 O1255 1.943 . S
O1248 Zn1247 1.962 . S
O1248 C1253 1.254 . S
O1249 Zn1246 2.031 . S
O1249 C1253 1.269 . S
O1250 Zn1247 1.986 . S
O1250 C1257 1.262 . S
O1251 Zn1246 2.049 . S
O1251 C1259 1.260 . S
O1252 Zn1247 1.996 . S
O1252 C1259 1.257 . S
C1253 O1248 1.254 . S
C1253 O1249 1.269 . S
C1254 O1255 1.249 . S
C1254 O1256 1.270 . S
O1255 Zn1247 1.943 . S
O1255 C1254 1.249 . S
O1256 Zn1246 2.067 . S
O1256 C1254 1.270 . S
C1257 O1250 1.262 . S
C1257 O1258 1.232 . S
O1258 C1257 1.232 . S
C1259 O1251 1.260 . S
C1259 O1252 1.257 . S
Zn1260 O1263 2.031 . S
Zn1260 O1265 2.049 . S
Zn1260 O1270 2.067 . S
Zn1261 O1262 1.962 . S
Zn1261 O1264 1.986 . S
Zn1261 O1266 1.996 . S
Zn1261 O1269 1.943 . S
O1262 Zn1261 1.962 . S
O1262 C1267 1.254 . S
O1263 Zn1260 2.031 . S
O1263 C1267 1.269 . S
O1264 Zn1261 1.986 . S
O1264 C1271 1.262 . S
O1265 Zn1260 2.049 . S
O1265 C1273 1.260 . S
O1266 Zn1261 1.996 . S
O1266 C1273 1.257 . S
C1267 O1262 1.254 . S
C1267 O1263 1.269 . S
C1268 O1269 1.249 . S
C1268 O1270 1.270 . S
O1269 Zn1261 1.943 . S
O1269 C1268 1.249 . S
O1270 Zn1260 2.067 . S
O1270 C1268 1.270 . S
C1271 O1264 1.262 . S
C1271 O1272 1.232 . S
O1272 C1271 1.232 . S
C1273 O1265 1.260 . S
C1273 O1266 1.257 . S
Zn1274 O1277 2.031 . S
Zn1274 O1279 2.049 . S
Zn1274 O1284 2.067 . S
Zn1275 O1276 1.962 . S
Zn1275 O1278 1.986 . S
Zn1275 O1280 1.996 . S
Zn1275 O1283 1.943 . S
O1276 Zn1275 1.962 . S
O1276 C1281 1.254 . S
O1277 Zn1274 2.031 . S
O1277 C1281 1.269 . S
O1278 Zn1275 1.986 . S
O1278 C1285 1.262 . S
O1279 Zn1274 2.049 . S
O1279 C1287 1.260 . S
O1280 Zn1275 1.996 . S
O1280 C1287 1.257 . S
C1281 O1276 1.254 . S
C1281 O1277 1.269 . S
C1282 O1283 1.249 . S
C1282 O1284 1.270 . S
O1283 Zn1275 1.943 . S
O1283 C1282 1.249 . S
O1284 Zn1274 2.067 . S
O1284 C1282 1.270 . S
C1285 O1278 1.262 . S
C1285 O1286 1.232 . S
O1286 C1285 1.232 . S
C1287 O1279 1.260 . S
C1287 O1280 1.257 . S
Zn1288 O1291 2.031 . S
Zn1288 O1293 2.049 . S
Zn1288 O1298 2.067 . S
Zn1289 O1290 1.962 . S
Zn1289 O1292 1.986 . S
Zn1289 O1294 1.996 . S
Zn1289 O1297 1.943 . S
O1290 Zn1289 1.962 . S
O1290 C1295 1.254 . S
O1291 Zn1288 2.031 . S
O1291 C1295 1.269 . S
O1292 Zn1289 1.986 . S
O1292 C1299 1.262 . S
O1293 Zn1288 2.049 . S
O1293 C1301 1.260 . S
O1294 Zn1289 1.996 . S
O1294 C1301 1.257 . S
C1295 O1290 1.254 . S
C1295 O1291 1.269 . S
C1296 O1297 1.249 . S
C1296 O1298 1.270 . S
O1297 Zn1289 1.943 . S
O1297 C1296 1.249 . S
O1298 Zn1288 2.067 . S
O1298 C1296 1.270 . S
C1299 O1292 1.262 . S
C1299 O1300 1.232 . S
O1300 C1299 1.232 . S
C1301 O1293 1.260 . S
C1301 O1294 1.257 . S
Zn1302 O1305 2.031 . S
Zn1302 O1307 2.049 . S
Zn1302 O1312 2.067 . S
Zn1303 O1304 1.962 . S
Zn1303 O1306 1.986 . S
Zn1303 O1308 1.996 . S
Zn1303 O1311 1.943 . S
O1304 Zn1303 1.962 . S
O1304 C1309 1.254 . S
O1305 Zn1302 2.031 . S
O1305 C1309 1.269 . S
O1306 Zn1303 1.986 . S
O1306 C1313 1.262 . S
O1307 Zn1302 2.049 . S
O1307 C1315 1.260 . S
O1308 Zn1303 1.996 . S
O1308 C1315 1.257 . S
C1309 O1304 1.254 . S
C1309 O1305 1.269 . S
C1310 O1311 1.249 . S
C1310 O1312 1.270 . S
O1311 Zn1303 1.943 . S
O1311 C1310 1.249 . S
O1312 Zn1302 2.067 . S
O1312 C1310 1.270 . S
C1313 O1306 1.262 . S
C1313 O1314 1.232 . S
O1314 C1313 1.232 . S
C1315 O1307 1.260 . S
C1315 O1308 1.257 . S
Zn1316 O1319 2.031 . S
Zn1316 O1321 2.049 . S
Zn1316 O1326 2.067 . S
Zn1317 O1318 1.962 . S
Zn1317 O1320 1.986 . S
Zn1317 O1322 1.996 . S
Zn1317 O1325 1.943 . S
O1318 Zn1317 1.962 . S
O1318 C1323 1.254 . S
O1319 Zn1316 2.031 . S
O1319 C1323 1.269 . S
O1320 Zn1317 1.986 . S
O1320 C1327 1.262 . S
O1321 Zn1316 2.049 . S
O1321 C1329 1.260 . S
O1322 Zn1317 1.996 . S
O1322 C1329 1.257 . S
C1323 O1318 1.254 . S
C1323 O1319 1.269 . S
C1324 O1325 1.249 . S
C1324 O1326 1.270 . S
O1325 Zn1317 1.943 . S
O1325 C1324 1.249 . S
O1326 Zn1316 2.067 . S
O1326 C1324 1.270 . S
C1327 O1320 1.262 . S
C1327 O1328 1.232 . S
O1328 C1327 1.232 . S
C1329 O1321 1.260 . S
C1329 O1322 1.257 . S
Zn1330 O1333 2.031 . S
Zn1330 O1335 2.049 . S
Zn1330 O1340 2.067 . S
Zn1331 O1332 1.962 . S
Zn1331 O1334 1.986 . S
Zn1331 O1336 1.996 . S
Zn1331 O1339 1.943 . S
O1332 Zn1331 1.962 . S
O1332 C1337 1.254 . S
O1333 Zn1330 2.031 . S
O1333 C1337 1.269 . S
O1334 Zn1331 1.986 . S
O1334 C1341 1.262 . S
O1335 Zn1330 2.049 . S
O1335 C1343 1.260 . S
O1336 Zn1331 1.996 . S
O1336 C1343 1.257 . S
C1337 O1332 1.254 . S
C1337 O1333 1.269 . S
C1338 O1339 1.249 . S
C1338 O1340 1.270 . S
O1339 Zn1331 1.943 . S
O1339 C1338 1.249 . S
O1340 Zn1330 2.067 . S
O1340 C1338 1.270 . S
C1341 O1334 1.262 . S
C1341 O1342 1.232 . S
O1342 C1341 1.232 . S
C1343 O1335 1.260 . S
C1343 O1336 1.257 . S
C1344 C1345 1.387 . S
C1344 H1348 0.950 . S
C1344 C1353 1.390 . S
C1345 C1344 1.387 . S
C1345 C1347 1.387 . S
H1346 C1353 0.950 . S
C1347 C1345 1.387 . S
C1347 C1349 1.390 . S
C1347 H1351 0.950 . S
H1348 C1344 0.950 . S
C1349 C1347 1.390 . S
C1349 C1350 1.387 . S
C1349 H1352 0.950 . S
C1350 C1349 1.387 . S
C1350 C1353 1.387 . S
H1351 C1347 0.950 . S
H1352 C1349 0.950 . S
C1353 C1344 1.390 . S
C1353 H1346 0.950 . S
C1353 C1350 1.387 . S
C1354 C1355 1.391 . S
C1354 H1358 0.950 1_455 S
C1354 C1363 1.390 . S
C1355 C1354 1.391 . S
C1355 C1357 1.394 . S
H1356 C1363 0.950 . S
C1357 C1355 1.394 . S
C1357 C1359 1.390 . S
C1357 H1361 0.950 . S
H1358 C1354 0.950 1_655 S
C1359 C1357 1.390 . S
C1359 C1360 1.387 . S
C1359 H1362 0.950 . S
C1360 C1359 1.387 . S
C1360 C1363 1.387 . S
H1361 C1357 0.950 . S
H1362 C1359 0.950 . S
C1363 C1354 1.390 . S
C1363 H1356 0.950 . S
C1363 C1360 1.387 . S
C1364 C1365 1.387 . S
C1364 H1368 0.950 . S
C1364 C1373 1.390 . S
C1365 C1364 1.387 . S
C1365 C1367 1.387 . S
H1366 C1373 0.950 . S
C1367 C1365 1.387 . S
C1367 C1369 1.390 . S
C1367 H1371 0.950 . S
H1368 C1364 0.950 . S
C1369 C1367 1.390 . S
C1369 C1370 1.387 . S
C1369 H1372 0.950 . S
C1370 C1369 1.387 . S
C1370 C1373 1.387 . S
H1371 C1367 0.950 . S
H1372 C1369 0.950 . S
C1373 C1364 1.390 . S
C1373 H1366 0.950 . S
C1373 C1370 1.387 . S
C1374 C1375 1.387 . S
C1374 H1378 0.950 . S
C1374 C1383 1.390 . S
C1375 C1374 1.387 . S
C1375 C1377 1.387 . S
H1376 C1383 0.950 . S
C1377 C1375 1.387 . S
C1377 C1379 1.390 . S
C1377 H1381 0.950 . S
H1378 C1374 0.950 . S
C1379 C1377 1.390 . S
C1379 C1380 1.387 . S
C1379 H1382 0.950 . S
C1380 C1379 1.387 . S
C1380 C1383 1.387 . S
H1381 C1377 0.950 . S
H1382 C1379 0.950 . S
C1383 C1374 1.390 . S
C1383 H1376 0.950 . S
C1383 C1380 1.387 . S
C1384 C1385 1.387 . S
C1384 H1388 0.950 . S
C1384 C1393 1.390 . S
C1385 C1384 1.387 . S
C1385 C1387 1.387 . S
H1386 C1393 0.950 . S
C1387 C1385 1.387 . S
C1387 C1389 1.390 . S
C1387 H1391 0.950 . S
H1388 C1384 0.950 . S
C1389 C1387 1.390 . S
C1389 C1390 1.387 . S
C1389 H1392 0.950 . S
C1390 C1389 1.387 . S
C1390 C1393 1.387 . S
H1391 C1387 0.950 . S
H1392 C1389 0.950 . S
C1393 C1384 1.390 . S
C1393 H1386 0.950 . S
C1393 C1390 1.387 . S
C1394 C1395 1.387 . S
C1394 H1398 0.950 . S
C1394 C1403 1.390 . S
C1395 C1394 1.387 . S
C1395 C1397 1.387 . S
H1396 C1403 0.950 . S
C1397 C1395 1.387 . S
C1397 C1399 1.390 . S
C1397 H1401 0.950 . S
H1398 C1394 0.950 . S
C1399 C1397 1.390 . S
C1399 C1400 1.387 . S
C1399 H1402 0.950 . S
C1400 C1399 1.387 . S
C1400 C1403 1.387 . S
H1401 C1397 0.950 . S
H1402 C1399 0.950 . S
C1403 C1394 1.390 . S
C1403 H1396 0.950 . S
C1403 C1400 1.387 . S
C1404 C1405 1.387 . S
C1404 H1408 0.950 . S
C1404 C1413 1.390 . S
C1405 C1404 1.387 . S
C1405 C1407 1.387 . S
H1406 C1413 0.950 . S
C1407 C1405 1.387 . S
C1407 C1409 1.390 . S
C1407 H1411 0.950 . S
H1408 C1404 0.950 . S
C1409 C1407 1.390 . S
C1409 C1410 1.387 . S
C1409 H1412 0.950 . S
C1410 C1409 1.387 . S
C1410 C1413 1.387 . S
H1411 C1407 0.950 . S
H1412 C1409 0.950 . S
C1413 C1404 1.390 . S
C1413 H1406 0.950 . S
C1413 C1410 1.387 . S
C1414 C1415 1.387 . S
C1414 H1418 0.950 . S
C1414 C1423 1.390 . S
C1415 C1414 1.387 . S
C1415 C1417 1.387 . S
H1416 C1423 0.950 . S
C1417 C1415 1.387 . S
C1417 C1419 1.390 . S
C1417 H1421 0.950 . S
H1418 C1414 0.950 . S
C1419 C1417 1.390 . S
C1419 C1420 1.394 . S
C1419 H1422 0.950 . S
C1420 C1419 1.394 . S
C1420 C1423 1.396 . S
H1421 C1417 0.950 . S
H1422 C1419 0.950 . S
C1423 C1414 1.390 . S
C1423 H1416 0.950 . S
C1423 C1420 1.396 . S
C1424 C1425 1.387 . S
C1424 H1428 0.950 . S
C1424 C1433 1.390 . S
C1425 C1424 1.387 . S
C1425 C1427 1.387 . S
H1426 C1433 0.950 . S
C1427 C1425 1.387 . S
C1427 C1429 1.390 . S
C1427 H1431 0.950 . S
H1428 C1424 0.950 . S
C1429 C1427 1.390 . S
C1429 C1430 1.387 . S
C1429 H1432 0.950 . S
C1430 C1429 1.387 . S
C1430 C1433 1.387 . S
H1431 C1427 0.950 . S
H1432 C1429 0.950 . S
C1433 C1424 1.390 . S
C1433 H1426 0.950 . S
C1433 C1430 1.387 . S
C1434 C1435 1.387 . S
C1434 H1438 0.950 . S
C1434 C1443 1.390 . S
C1435 C1434 1.387 . S
C1435 C1437 1.387 . S
H1436 C1443 0.950 . S
C1437 C1435 1.387 . S
C1437 C1439 1.390 . S
C1437 H1441 0.950 . S
H1438 C1434 0.950 . S
C1439 C1437 1.390 . S
C1439 C1440 1.387 . S
C1439 H1442 0.950 . S
C1440 C1439 1.387 . S
C1440 C1443 1.387 . S
H1441 C1437 0.950 . S
H1442 C1439 0.950 . S
C1443 C1434 1.390 . S
C1443 H1436 0.950 . S
C1443 C1440 1.387 . S
C1444 C1445 1.387 . S
C1444 H1448 0.950 . S
C1444 C1453 1.390 . S
C1445 C1444 1.387 . S
C1445 C1447 1.387 . S
H1446 C1453 0.950 . S
C1447 C1445 1.387 . S
C1447 C1449 1.390 . S
C1447 H1451 0.950 . S
H1448 C1444 0.950 . S
C1449 C1447 1.390 . S
C1449 C1450 1.387 . S
C1449 H1452 0.950 . S
C1450 C1449 1.387 . S
C1450 C1453 1.387 . S
H1451 C1447 0.950 . S
H1452 C1449 0.950 . S
C1453 C1444 1.390 . S
C1453 H1446 0.950 . S
C1453 C1450 1.387 . S
C1454 C1455 1.387 . S
C1454 H1458 0.950 1_556 S
C1454 C1463 1.390 1_556 S
C1455 C1454 1.387 . S
C1455 C1457 1.387 . S
H1456 C1463 0.950 . S
C1457 C1455 1.387 . S
C1457 C1459 1.390 . S
C1457 H1461 0.950 . S
H1458 C1454 0.950 1_554 S
C1459 C1457 1.390 . S
C1459 C1460 1.413 . S
C1459 H1462 0.950 . S
C1460 C1459 1.413 . S
C1460 C1463 1.375 1_556 S
H1461 C1457 0.950 . S
H1462 C1459 0.950 . S
C1463 C1454 1.390 1_554 S
C1463 H1456 0.950 . S
C1463 C1460 1.375 1_554 S
C1464 C1465 1.387 . S
C1464 H1468 0.950 . S
C1464 C1473 1.390 . S
C1465 C1464 1.387 . S
C1465 C1467 1.387 . S
H1466 C1473 0.950 . S
C1467 C1465 1.387 . S
C1467 C1469 1.390 . S
C1467 H1471 0.950 . S
H1468 C1464 0.950 . S
C1469 C1467 1.390 . S
C1469 C1470 1.387 . S
C1469 H1472 0.950 . S
C1470 C1469 1.387 . S
C1470 C1473 1.387 . S
H1471 C1467 0.950 . S
H1472 C1469 0.950 . S
C1473 C1464 1.390 . S
C1473 H1466 0.950 . S
C1473 C1470 1.387 . S
C1474 C1475 1.387 . S
C1474 H1478 0.950 . S
C1474 C1483 1.390 . S
C1475 C1474 1.387 . S
C1475 C1477 1.387 . S
H1476 C1483 0.950 . S
C1477 C1475 1.387 . S
C1477 C1479 1.390 . S
C1477 H1481 0.950 . S
H1478 C1474 0.950 . S
C1479 C1477 1.390 . S
C1479 C1480 1.387 . S
C1479 H1482 0.950 . S
C1480 C1479 1.387 . S
C1480 C1483 1.387 . S
H1481 C1477 0.950 . S
H1482 C1479 0.950 . S
C1483 C1474 1.390 . S
C1483 H1476 0.950 . S
C1483 C1480 1.387 . S
C1484 C1485 1.387 . S
C1484 H1488 0.950 . S
C1484 C1493 1.390 . S
C1485 C1484 1.387 . S
C1485 C1487 1.387 . S
H1486 C1493 0.950 . S
C1487 C1485 1.387 . S
C1487 C1489 1.390 . S
C1487 H1491 0.950 . S
H1488 C1484 0.950 . S
C1489 C1487 1.390 . S
C1489 C1490 1.387 . S
C1489 H1492 0.950 . S
C1490 C1489 1.387 . S
C1490 C1493 1.387 . S
H1491 C1487 0.950 . S
H1492 C1489 0.950 . S
C1493 C1484 1.390 . S
C1493 H1486 0.950 . S
C1493 C1490 1.387 . S
C1494 C1495 1.387 . S
C1494 H1498 0.950 . S
C1494 C1503 1.390 . S
C1495 C1494 1.387 . S
C1495 C1497 1.387 . S
H1496 C1503 0.950 . S
C1497 C1495 1.387 . S
C1497 C1499 1.390 1_554 S
C1497 H1501 0.950 . S
H1498 C1494 0.950 . S
C1499 C1497 1.390 1_556 S
C1499 C1500 1.384 1_556 S
C1499 H1502 0.950 . S
C1500 C1499 1.384 1_554 S
C1500 C1503 1.402 . S
H1501 C1497 0.950 . S
H1502 C1499 0.950 . S
C1503 C1494 1.390 . S
C1503 H1496 0.950 . S
C1503 C1500 1.402 . S
C1504 C1505 1.387 . S
C1504 H1508 0.950 . S
C1504 C1513 1.390 . S
C1505 C1504 1.387 . S
C1505 C1507 1.387 . S
H1506 C1513 0.950 . S
C1507 C1505 1.387 . S
C1507 C1509 1.390 . S
C1507 H1511 0.950 . S
H1508 C1504 0.950 . S
C1509 C1507 1.390 . S
C1509 C1510 1.387 . S
C1509 H1512 0.950 . S
C1510 C1509 1.387 . S
C1510 C1513 1.387 . S
H1511 C1507 0.950 . S
H1512 C1509 0.950 . S
C1513 C1504 1.390 . S
C1513 H1506 0.950 . S
C1513 C1510 1.387 . S
C1514 C1515 1.387 . S
C1514 H1518 0.950 . S
C1514 C1523 1.390 . S
C1515 C1514 1.387 . S
C1515 C1517 1.387 . S
H1516 C1523 0.950 . S
C1517 C1515 1.387 . S
C1517 C1519 1.390 . S
C1517 H1521 0.950 . S
H1518 C1514 0.950 . S
C1519 C1517 1.390 . S
C1519 C1520 1.387 . S
C1519 H1522 0.950 . S
C1520 C1519 1.387 . S
C1520 C1523 1.387 . S
H1521 C1517 0.950 . S
H1522 C1519 0.950 . S
C1523 C1514 1.390 . S
C1523 H1516 0.950 . S
C1523 C1520 1.387 . S
C1524 C1525 1.387 . S
C1524 H1528 0.950 . S
C1524 C1533 1.390 . S
C1525 C1524 1.387 . S
C1525 C1527 1.387 . S
H1526 C1533 0.950 . S
C1527 C1525 1.387 . S
C1527 C1529 1.390 . S
C1527 H1531 0.950 . S
H1528 C1524 0.950 . S
C1529 C1527 1.390 . S
C1529 C1530 1.387 . S
C1529 H1532 0.950 . S
C1530 C1529 1.387 . S
C1530 C1533 1.387 . S
H1531 C1527 0.950 . S
H1532 C1529 0.950 . S
C1533 C1524 1.390 . S
C1533 H1526 0.950 . S
C1533 C1530 1.387 . S
C1534 C1535 1.387 . S
C1534 H1538 0.950 . S
C1534 C1543 1.390 . S
C1535 C1534 1.387 . S
C1535 C1537 1.387 . S
H1536 C1543 0.950 . S
C1537 C1535 1.387 . S
C1537 C1539 1.390 . S
C1537 H1541 0.950 . S
H1538 C1534 0.950 . S
C1539 C1537 1.390 . S
C1539 C1540 1.387 . S
C1539 H1542 0.950 . S
C1540 C1539 1.387 . S
C1540 C1543 1.387 . S
H1541 C1537 0.950 . S
H1542 C1539 0.950 . S
C1543 C1534 1.390 . S
C1543 H1536 0.950 . S
C1543 C1540 1.387 . S
C1544 C1545 1.387 . S
C1544 H1548 0.950 . S
C1544 C1553 1.390 . S
C1545 C1544 1.387 . S
C1545 C1547 1.387 . S
H1546 C1553 0.950 . S
C1547 C1545 1.387 . S
C1547 C1549 1.390 1_545 S
C1547 H1551 0.950 1_545 S
H1548 C1544 0.950 . S
C1549 C1547 1.390 1_565 S
C1549 C1550 1.376 1_565 S
C1549 H1552 0.950 . S
C1550 C1549 1.376 1_545 S
C1550 C1553 1.411 . S
H1551 C1547 0.950 1_565 S
H1552 C1549 0.950 . S
C1553 C1544 1.390 . S
C1553 H1546 0.950 . S
C1553 C1550 1.411 . S
C1554 C1555 1.387 . S
C1554 H1558 0.950 . S
C1554 C1563 1.390 . S
C1555 C1554 1.387 . S
C1555 C1557 1.387 . S
H1556 C1563 0.950 . S
C1557 C1555 1.387 . S
C1557 C1559 1.390 . S
C1557 H1561 0.950 . S
H1558 C1554 0.950 . S
C1559 C1557 1.390 . S
C1559 C1560 1.387 . S
C1559 H1562 0.950 . S
C1560 C1559 1.387 . S
C1560 C1563 1.387 . S
H1561 C1557 0.950 . S
H1562 C1559 0.950 . S
C1563 C1554 1.390 . S
C1563 H1556 0.950 . S
C1563 C1560 1.387 . S
C1564 C1565 1.387 . S
C1564 H1568 0.950 . S
C1564 C1573 1.390 . S
C1565 C1564 1.387 . S
C1565 C1567 1.387 . S
H1566 C1573 0.950 . S
C1567 C1565 1.387 . S
C1567 C1569 1.390 . S
C1567 H1571 0.950 . S
H1568 C1564 0.950 . S
C1569 C1567 1.390 . S
C1569 C1570 1.387 . S
C1569 H1572 0.950 . S
C1570 C1569 1.387 . S
C1570 C1573 1.387 . S
H1571 C1567 0.950 . S
H1572 C1569 0.950 . S
C1573 C1564 1.390 . S
C1573 H1566 0.950 . S
C1573 C1570 1.387 . S
C1574 C1575 1.387 . S
C1574 H1578 0.950 . S
C1574 C1583 1.390 . S
C1575 C1574 1.387 . S
C1575 C1577 1.387 . S
H1576 C1583 0.950 . S
C1577 C1575 1.387 . S
C1577 C1579 1.390 . S
C1577 H1581 0.950 . S
H1578 C1574 0.950 . S
C1579 C1577 1.390 . S
C1579 C1580 1.387 . S
C1579 H1582 0.950 . S
C1580 C1579 1.387 . S
C1580 C1583 1.387 . S
H1581 C1577 0.950 . S
H1582 C1579 0.950 . S
C1583 C1574 1.390 . S
C1583 H1576 0.950 . S
C1583 C1580 1.387 . S
C1584 C1585 1.387 . S
C1584 H1588 0.950 . S
C1584 C1593 1.390 . S
C1585 C1584 1.387 . S
C1585 C1587 1.387 . S
H1586 C1593 0.950 . S
C1587 C1585 1.387 . S
C1587 C1589 1.390 . S
C1587 H1591 0.950 . S
H1588 C1584 0.950 . S
C1589 C1587 1.390 . S
C1589 C1590 1.387 . S
C1589 H1592 0.950 . S
C1590 C1589 1.387 . S
C1590 C1593 1.387 . S
H1591 C1587 0.950 . S
H1592 C1589 0.950 . S
C1593 C1584 1.390 . S
C1593 H1586 0.950 . S
C1593 C1590 1.387 . S
C1594 C1595 1.397 . S
C1594 H1598 0.950 . S
C1594 C1603 1.390 . S
C1595 C1594 1.397 . S
C1595 C1597 1.394 . S
H1596 C1603 0.950 . S
C1597 C1595 1.394 . S
C1597 C1599 1.390 . S
C1597 H1601 0.951 . S
H1598 C1594 0.950 . S
C1599 C1597 1.390 . S
C1599 C1600 1.387 . S
C1599 H1602 0.950 . S
C1600 C1599 1.387 . S
C1600 C1603 1.387 . S
H1601 C1597 0.951 . S
H1602 C1599 0.950 . S
C1603 C1594 1.390 . S
C1603 H1596 0.950 . S
C1603 C1600 1.387 . S
C1604 C1605 1.387 . S
C1604 H1608 0.950 . S
C1604 C1613 1.390 . S
C1605 C1604 1.387 . S
C1605 C1607 1.387 . S
H1606 C1613 0.950 . S
C1607 C1605 1.387 . S
C1607 C1609 1.390 . S
C1607 H1611 0.950 . S
H1608 C1604 0.950 . S
C1609 C1607 1.390 . S
C1609 C1610 1.387 . S
C1609 H1612 0.950 . S
C1610 C1609 1.387 . S
C1610 C1613 1.387 . S
H1611 C1607 0.950 . S
H1612 C1609 0.950 . S
C1613 C1604 1.390 . S
C1613 H1606 0.950 . S
C1613 C1610 1.387 . S
C1614 C1615 1.387 . S
C1614 H1618 0.950 . S
C1614 C1623 1.390 . S
C1615 C1614 1.387 . S
C1615 C1617 1.387 . S
H1616 C1623 0.950 . S
C1617 C1615 1.387 . S
C1617 C1619 1.390 . S
C1617 H1621 0.950 . S
H1618 C1614 0.950 . S
C1619 C1617 1.390 . S
C1619 C1620 1.387 . S
C1619 H1622 0.950 . S
C1620 C1619 1.387 . S
C1620 C1623 1.387 . S
H1621 C1617 0.950 . S
H1622 C1619 0.950 . S
C1623 C1614 1.390 . S
C1623 H1616 0.950 . S
C1623 C1620 1.387 . S
C1624 C1625 1.387 . S
C1624 H1628 0.950 . S
C1624 C1633 1.390 . S
C1625 C1624 1.387 . S
C1625 C1627 1.387 . S
H1626 C1633 0.950 . S
C1627 C1625 1.387 . S
C1627 C1629 1.390 . S
C1627 H1631 0.950 . S
H1628 C1624 0.950 . S
C1629 C1627 1.390 . S
C1629 C1630 1.387 . S
C1629 H1632 0.950 . S
C1630 C1629 1.387 . S
C1630 C1633 1.387 . S
H1631 C1627 0.950 . S
H1632 C1629 0.950 . S
C1633 C1624 1.390 . S
C1633 H1626 0.950 . S
C1633 C1630 1.387 . S
C1634 C1635 1.387 . S
C1634 H1638 0.950 . S
C1634 C1643 1.390 . S
C1635 C1634 1.387 . S
C1635 C1637 1.387 . S
H1636 C1643 0.950 . S
C1637 C1635 1.387 . S
C1637 C1639 1.390 . S
C1637 H1641 0.950 . S
H1638 C1634 0.950 . S
C1639 C1637 1.390 . S
C1639 C1640 1.387 . S
C1639 H1642 0.950 . S
C1640 C1639 1.387 . S
C1640 C1643 1.387 . S
H1641 C1637 0.950 . S
H1642 C1639 0.950 . S
C1643 C1634 1.390 . S
C1643 H1636 0.950 . S
C1643 C1640 1.387 . S
C1644 C1645 1.387 . S
C1644 H1648 0.950 . S
C1644 C1653 1.390 . S
C1645 C1644 1.387 . S
C1645 C1647 1.387 . S
H1646 C1653 0.950 . S
C1647 C1645 1.387 . S
C1647 C1649 1.390 . S
C1647 H1651 0.950 . S
H1648 C1644 0.950 . S
C1649 C1647 1.390 . S
C1649 C1650 1.387 . S
C1649 H1652 0.950 . S
C1650 C1649 1.387 . S
C1650 C1653 1.387 . S
H1651 C1647 0.950 . S
H1652 C1649 0.950 . S
C1653 C1644 1.390 . S
C1653 H1646 0.950 . S
C1653 C1650 1.387 . S
C1654 C1655 1.387 . S
C1654 H1658 0.950 . S
C1654 C1663 1.390 . S
C1655 C1654 1.387 . S
C1655 C1657 1.387 . S
H1656 C1663 0.950 . S
C1657 C1655 1.387 . S
C1657 C1659 1.390 . S
C1657 H1661 0.950 . S
H1658 C1654 0.950 . S
C1659 C1657 1.390 . S
C1659 C1660 1.392 . S
C1659 H1662 0.958 . S
C1660 C1659 1.392 . S
C1660 C1663 1.393 . S
H1661 C1657 0.950 . S
H1662 C1659 0.958 . S
C1663 C1654 1.390 . S
C1663 H1656 0.950 . S
C1663 C1660 1.393 . S
C1664 C1665 1.387 . S
C1664 H1668 0.950 . S
C1664 C1673 1.390 . S
C1665 C1664 1.387 . S
C1665 C1667 1.387 . S
H1666 C1673 0.950 . S
C1667 C1665 1.387 . S
C1667 C1669 1.390 . S
C1667 H1671 0.950 . S
H1668 C1664 0.950 . S
C1669 C1667 1.390 . S
C1669 C1670 1.387 . S
C1669 H1672 0.950 . S
C1670 C1669 1.387 . S
C1670 C1673 1.387 . S
H1671 C1667 0.950 . S
H1672 C1669 0.950 . S
C1673 C1664 1.390 . S
C1673 H1666 0.950 . S
C1673 C1670 1.387 . S
C1674 C1675 1.387 . S
C1674 H1678 0.950 . S
C1674 C1683 1.390 . S
C1675 C1674 1.387 . S
C1675 C1677 1.387 . S
H1676 C1683 0.950 . S
C1677 C1675 1.387 . S
C1677 C1679 1.390 . S
C1677 H1681 0.950 . S
H1678 C1674 0.950 . S
C1679 C1677 1.390 . S
C1679 C1680 1.387 . S
C1679 H1682 0.950 . S
C1680 C1679 1.387 . S
C1680 C1683 1.387 . S
H1681 C1677 0.950 . S
H1682 C1679 0.950 . S
C1683 C1674 1.390 . S
C1683 H1676 0.950 . S
C1683 C1680 1.387 . S
C1684 C1685 1.387 . S
C1684 H1688 0.950 . S
C1684 C1693 1.390 . S
C1685 C1684 1.387 . S
C1685 C1687 1.387 . S
H1686 C1693 0.950 . S
C1687 C1685 1.387 . S
C1687 C1689 1.390 . S
C1687 H1691 0.950 . S
H1688 C1684 0.950 . S
C1689 C1687 1.390 . S
C1689 C1690 1.387 . S
C1689 H1692 0.950 . S
C1690 C1689 1.387 . S
C1690 C1693 1.387 . S
H1691 C1687 0.950 . S
H1692 C1689 0.950 . S
C1693 C1684 1.390 . S
C1693 H1686 0.950 . S
C1693 C1690 1.387 . S
C1694 C1695 1.376 1_556 S
C1694 H1698 0.950 . S
C1694 C1703 1.375 1_556 S
C1695 C1694 1.376 1_554 S
C1695 C1697 1.412 . S
H1696 C1703 0.935 1_556 S
C1697 C1695 1.412 . S
C1697 C1699 1.390 . S
C1697 H1701 0.950 . S
H1698 C1694 0.950 . S
C1699 C1697 1.390 . S
C1699 C1700 1.387 . S
C1699 H1702 0.950 . S
C1700 C1699 1.387 . S
C1700 C1703 1.417 . S
H1701 C1697 0.950 . S
H1702 C1699 0.950 . S
C1703 C1694 1.375 1_554 S
C1703 H1696 0.935 1_554 S
C1703 C1700 1.417 . S
C1704 C1705 1.387 . S
C1704 H1708 0.950 . S
C1704 C1713 1.390 . S
C1705 C1704 1.387 . S
C1705 C1707 1.387 . S
H1706 C1713 0.950 . S
C1707 C1705 1.387 . S
C1707 C1709 1.390 . S
C1707 H1711 0.950 . S
H1708 C1704 0.950 . S
C1709 C1707 1.390 . S
C1709 C1710 1.387 . S
C1709 H1712 0.950 . S
C1710 C1709 1.387 . S
C1710 C1713 1.387 . S
H1711 C1707 0.950 . S
H1712 C1709 0.950 . S
C1713 C1704 1.390 . S
C1713 H1706 0.950 . S
C1713 C1710 1.387 . S
C1714 C1715 1.387 . S
C1714 H1718 0.950 . S
C1714 C1723 1.390 . S
C1715 C1714 1.387 . S
C1715 C1717 1.387 . S
H1716 C1723 0.950 . S
C1717 C1715 1.387 . S
C1717 C1719 1.390 . S
C1717 H1721 0.950 . S
H1718 C1714 0.950 . S
C1719 C1717 1.390 . S
C1719 C1720 1.387 . S
C1719 H1722 0.950 . S
C1720 C1719 1.387 . S
C1720 C1723 1.387 . S
H1721 C1717 0.950 . S
H1722 C1719 0.950 . S
C1723 C1714 1.390 . S
C1723 H1716 0.950 . S
C1723 C1720 1.387 . S
C1724 C1725 1.387 . S
C1724 H1728 0.950 . S
C1724 C1733 1.390 . S
C1725 C1724 1.387 . S
C1725 C1727 1.387 . S
H1726 C1733 0.950 . S
C1727 C1725 1.387 . S
C1727 C1729 1.390 . S
C1727 H1731 0.950 . S
H1728 C1724 0.950 . S
C1729 C1727 1.390 . S
C1729 C1730 1.387 . S
C1729 H1732 0.950 . S
C1730 C1729 1.387 . S
C1730 C1733 1.387 . S
H1731 C1727 0.950 . S
H1732 C1729 0.950 . S
C1733 C1724 1.390 . S
C1733 H1726 0.950 . S
C1733 C1730 1.387 . S
C1734 C1735 1.403 . S
C1734 H1738 0.950 . S
C1734 C1743 1.390 . S
C1735 C1734 1.403 . S
C1735 C1737 1.383 1_556 S
H1736 C1743 0.950 . S
C1737 C1735 1.383 1_554 S
C1737 C1739 1.390 1_554 S
C1737 H1741 0.950 . S
H1738 C1734 0.950 . S
C1739 C1737 1.390 1_556 S
C1739 C1740 1.387 . S
C1739 H1742 0.950 . S
C1740 C1739 1.387 . S
C1740 C1743 1.387 . S
H1741 C1737 0.950 . S
H1742 C1739 0.950 . S
C1743 C1734 1.390 . S
C1743 H1736 0.950 . S
C1743 C1740 1.387 . S
C1744 C1745 1.387 . S
C1744 H1748 0.950 . S
C1744 C1753 1.390 . S
C1745 C1744 1.387 . S
C1745 C1747 1.387 . S
H1746 C1753 0.950 . S
C1747 C1745 1.387 . S
C1747 C1749 1.390 . S
C1747 H1751 0.950 . S
H1748 C1744 0.950 . S
C1749 C1747 1.390 . S
C1749 C1750 1.387 . S
C1749 H1752 0.950 . S
C1750 C1749 1.387 . S
C1750 C1753 1.387 . S
H1751 C1747 0.950 . S
H1752 C1749 0.950 . S
C1753 C1744 1.390 . S
C1753 H1746 0.950 . S
C1753 C1750 1.387 . S
C1754 C1755 1.387 . S
C1754 H1758 0.950 . S
C1754 C1763 1.390 . S
C1755 C1754 1.387 . S
C1755 C1757 1.387 . S
H1756 C1763 0.950 . S
C1757 C1755 1.387 . S
C1757 C1759 1.390 . S
C1757 H1761 0.950 . S
H1758 C1754 0.950 . S
C1759 C1757 1.390 . S
C1759 C1760 1.387 . S
C1759 H1762 0.950 . S
C1760 C1759 1.387 . S
C1760 C1763 1.387 . S
H1761 C1757 0.950 . S
H1762 C1759 0.950 . S
C1763 C1754 1.390 . S
C1763 H1756 0.950 . S
C1763 C1760 1.387 . S
C1764 C1765 1.387 . S
C1764 H1768 0.950 . S
C1764 C1773 1.390 . S
C1765 C1764 1.387 . S
C1765 C1767 1.387 . S
H1766 C1773 0.950 . S
C1767 C1765 1.387 . S
C1767 C1769 1.390 . S
C1767 H1771 0.950 . S
H1768 C1764 0.950 . S
C1769 C1767 1.390 . S
C1769 C1770 1.387 . S
C1769 H1772 0.950 . S
C1770 C1769 1.387 . S
C1770 C1773 1.387 . S
H1771 C1767 0.950 . S
H1772 C1769 0.950 . S
C1773 C1764 1.390 . S
C1773 H1766 0.950 . S
C1773 C1770 1.387 . S
C1774 C1775 1.387 . S
C1774 H1778 0.950 . S
C1774 C1783 1.390 . S
C1775 C1774 1.387 . S
C1775 C1777 1.387 . S
H1776 C1783 0.950 . S
C1777 C1775 1.387 . S
C1777 C1779 1.390 . S
C1777 H1781 0.950 . S
H1778 C1774 0.950 . S
C1779 C1777 1.390 . S
C1779 C1780 1.387 . S
C1779 H1782 0.950 . S
C1780 C1779 1.387 . S
C1780 C1783 1.387 . S
H1781 C1777 0.950 . S
H1782 C1779 0.950 . S
C1783 C1774 1.390 . S
C1783 H1776 0.950 . S
C1783 C1780 1.387 . S
C1784 C1785 1.387 . S
C1784 H1788 0.950 . S
C1784 C1793 1.390 1_565 S
C1785 C1784 1.387 . S
C1785 C1787 1.387 . S
H1786 C1793 0.950 . S
C1787 C1785 1.387 . S
C1787 C1789 1.390 . S
C1787 H1791 0.950 . S
H1788 C1784 0.950 . S
C1789 C1787 1.390 . S
C1789 C1790 1.399 . S
C1789 H1792 0.950 . S
C1790 C1789 1.399 . S
C1790 C1793 1.386 1_565 S
H1791 C1787 0.950 . S
H1792 C1789 0.950 . S
C1793 C1784 1.390 1_545 S
C1793 H1786 0.950 . S
C1793 C1790 1.386 1_545 S
C1794 C1795 1.387 . S
C1794 H1798 0.950 . S
C1794 C1803 1.390 . S
C1795 C1794 1.387 . S
C1795 C1797 1.387 . S
H1796 C1803 0.950 . S
C1797 C1795 1.387 . S
C1797 C1799 1.390 . S
C1797 H1801 0.950 . S
H1798 C1794 0.950 . S
C1799 C1797 1.390 . S
C1799 C1800 1.387 . S
C1799 H1802 0.950 . S
C1800 C1799 1.387 . S
C1800 C1803 1.387 . S
H1801 C1797 0.950 . S
H1802 C1799 0.950 . S
C1803 C1794 1.390 . S
C1803 H1796 0.950 . S
C1803 C1800 1.387 . S
C1804 C1805 1.387 . S
C1804 H1808 0.950 . S
C1804 C1813 1.390 . S
C1805 C1804 1.387 . S
C1805 C1807 1.387 . S
H1806 C1813 0.950 . S
C1807 C1805 1.387 . S
C1807 C1809 1.390 . S
C1807 H1811 0.950 . S
H1808 C1804 0.950 . S
C1809 C1807 1.390 . S
C1809 C1810 1.387 . S
C1809 H1812 0.950 . S
C1810 C1809 1.387 . S
C1810 C1813 1.387 . S
H1811 C1807 0.950 . S
H1812 C1809 0.950 . S
C1813 C1804 1.390 . S
C1813 H1806 0.950 . S
C1813 C1810 1.387 . S
C1814 C1815 1.387 . S
C1814 H1818 0.950 . S
C1814 C1823 1.390 . S
C1815 C1814 1.387 . S
C1815 C1817 1.387 . S
H1816 C1823 0.950 . S
C1817 C1815 1.387 . S
C1817 C1819 1.390 . S
C1817 H1821 0.950 . S
H1818 C1814 0.950 . S
C1819 C1817 1.390 . S
C1819 C1820 1.387 . S
C1819 H1822 0.950 . S
C1820 C1819 1.387 . S
C1820 C1823 1.387 . S
H1821 C1817 0.950 . S
H1822 C1819 0.950 . S
C1823 C1814 1.390 . S
C1823 H1816 0.950 . S
C1823 C1820 1.387 . S
C1824 C1825 1.387 . S
C1824 H1828 0.950 . S
C1824 C1833 1.390 . S
C1825 C1824 1.387 . S
C1825 C1827 1.387 . S
H1826 C1833 0.950 . S
C1827 C1825 1.387 . S
C1827 C1829 1.390 . S
C1827 H1831 0.950 . S
H1828 C1824 0.950 . S
C1829 C1827 1.390 . S
C1829 C1830 1.387 . S
C1829 H1832 0.950 . S
C1830 C1829 1.387 . S
C1830 C1833 1.387 . S
H1831 C1827 0.950 . S
H1832 C1829 0.950 . S
C1833 C1824 1.390 . S
C1833 H1826 0.950 . S
C1833 C1830 1.387 . S
C1834 C1835 1.387 . S
C1834 H1838 0.950 . S
C1834 C1843 1.390 . S
C1835 C1834 1.387 . S
C1835 C1837 1.387 . S
H1836 C1843 0.950 . S
C1837 C1835 1.387 . S
C1837 C1839 1.390 . S
C1837 H1841 0.950 . S
H1838 C1834 0.950 . S
C1839 C1837 1.390 . S
C1839 C1840 1.387 . S
C1839 H1842 0.950 . S
C1840 C1839 1.387 . S
C1840 C1843 1.387 . S
H1841 C1837 0.950 . S
H1842 C1839 0.950 . S
C1843 C1834 1.390 . S
C1843 H1836 0.950 . S
C1843 C1840 1.387 . S
C1844 C1845 1.387 . S
C1844 H1848 0.950 . S
C1844 C1853 1.390 . S
C1845 C1844 1.387 . S
C1845 C1847 1.387 . S
H1846 C1853 0.950 . S
C1847 C1845 1.387 . S
C1847 C1849 1.390 . S
C1847 H1851 0.950 . S
H1848 C1844 0.950 . S
C1849 C1847 1.390 . S
C1849 C1850 1.387 . S
C1849 H1852 0.950 . S
C1850 C1849 1.387 . S
C1850 C1853 1.387 . S
H1851 C1847 0.950 . S
H1852 C1849 0.950 . S
C1853 C1844 1.390 . S
C1853 H1846 0.950 . S
C1853 C1850 1.387 . S
C1854 C1855 1.396 . S
C1854 H1858 0.950 . S
C1854 C1863 1.390 . S
C1855 C1854 1.396 . S
C1855 C1857 1.395 . S
H1856 C1863 0.950 . S
C1857 C1855 1.395 . S
C1857 C1859 1.390 . S
C1857 H1861 0.950 . S
H1858 C1854 0.950 . S
C1859 C1857 1.390 . S
C1859 C1860 1.387 . S
C1859 H1862 0.950 . S
C1860 C1859 1.387 . S
C1860 C1863 1.387 . S
H1861 C1857 0.950 . S
H1862 C1859 0.950 . S
C1863 C1854 1.390 . S
C1863 H1856 0.950 . S
C1863 C1860 1.387 . S
C1864 C1865 1.387 . S
C1864 H1868 0.950 . S
C1864 C1873 1.390 . S
C1865 C1864 1.387 . S
C1865 C1867 1.387 . S
H1866 C1873 0.950 . S
C1867 C1865 1.387 . S
C1867 C1869 1.390 . S
C1867 H1871 0.950 . S
H1868 C1864 0.950 . S
C1869 C1867 1.390 . S
C1869 C1870 1.387 . S
C1869 H1872 0.950 . S
C1870 C1869 1.387 . S
C1870 C1873 1.387 . S
H1871 C1867 0.950 . S
H1872 C1869 0.950 . S
C1873 C1864 1.390 . S
C1873 H1866 0.950 . S
C1873 C1870 1.387 . S
C1874 C1875 1.399 . S
C1874 H1878 0.950 . S
C1874 C1883 1.390 . S
C1875 C1874 1.399 . S
C1875 C1877 1.392 . S
H1876 C1883 0.950 . S
C1877 C1875 1.392 . S
C1877 C1879 1.390 . S
C1877 H1881 0.950 1_655 S
H1878 C1874 0.950 . S
C1879 C1877 1.390 . S
C1879 C1880 1.387 . S
C1879 H1882 0.950 . S
C1880 C1879 1.387 . S
C1880 C1883 1.387 . S
H1881 C1877 0.950 1_455 S
H1882 C1879 0.950 . S
C1883 C1874 1.390 . S
C1883 H1876 0.950 . S
C1883 C1880 1.387 . S
C1884 C1885 1.387 . S
C1884 H1888 0.950 . S
C1884 C1893 1.390 . S
C1885 C1884 1.387 . S
C1885 C1887 1.387 . S
H1886 C1893 0.950 . S
C1887 C1885 1.387 . S
C1887 C1889 1.390 . S
C1887 H1891 0.950 . S
H1888 C1884 0.950 . S
C1889 C1887 1.390 . S
C1889 C1890 1.387 . S
C1889 H1892 0.950 . S
C1890 C1889 1.387 . S
C1890 C1893 1.387 . S
H1891 C1887 0.950 . S
H1892 C1889 0.950 . S
C1893 C1884 1.390 . S
C1893 H1886 0.950 . S
C1893 C1890 1.387 . S
C1894 C1895 1.387 . S
C1894 H1898 0.950 . S
C1894 C1903 1.390 . S
C1895 C1894 1.387 . S
C1895 C1897 1.387 . S
H1896 C1903 0.950 . S
C1897 C1895 1.387 . S
C1897 C1899 1.390 . S
C1897 H1901 0.950 . S
H1898 C1894 0.950 . S
C1899 C1897 1.390 . S
C1899 C1900 1.387 . S
C1899 H1902 0.950 . S
C1900 C1899 1.387 . S
C1900 C1903 1.387 . S
H1901 C1897 0.950 . S
H1902 C1899 0.950 . S
C1903 C1894 1.390 . S
C1903 H1896 0.950 . S
C1903 C1900 1.387 . S
C1904 C1905 1.387 . S
C1904 H1908 0.950 . S
C1904 C1913 1.390 . S
C1905 C1904 1.387 . S
C1905 C1907 1.387 . S
H1906 C1913 0.950 . S
C1907 C1905 1.387 . S
C1907 C1909 1.390 . S
C1907 H1911 0.950 . S
H1908 C1904 0.950 . S
C1909 C1907 1.390 . S
C1909 C1910 1.387 . S
C1909 H1912 0.950 . S
C1910 C1909 1.387 . S
C1910 C1913 1.387 . S
H1911 C1907 0.950 . S
H1912 C1909 0.950 . S
C1913 C1904 1.390 . S
C1913 H1906 0.950 . S
C1913 C1910 1.387 . S
C1914 C1915 1.387 . S
C1914 H1918 0.950 . S
C1914 C1923 1.378 1_556 S
C1915 C1914 1.387 . S
C1915 C1917 1.387 . S
H1916 C1923 0.963 . S
C1917 C1915 1.387 . S
C1917 C1919 1.390 . S
C1917 H1921 0.950 . S
H1918 C1914 0.950 . S
C1919 C1917 1.390 . S
C1919 C1920 1.399 . S
C1919 H1922 0.950 . S
C1920 C1919 1.399 . S
C1920 C1923 1.386 1_556 S
H1921 C1917 0.950 . S
H1922 C1919 0.950 . S
C1923 C1914 1.378 1_554 S
C1923 H1916 0.963 . S
C1923 C1920 1.386 1_554 S
C1924 C1925 1.387 . S
C1924 H1928 0.950 . S
C1924 C1933 1.390 . S
C1925 C1924 1.387 . S
C1925 C1927 1.387 . S
H1926 C1933 0.950 . S
C1927 C1925 1.387 . S
C1927 C1929 1.390 . S
C1927 H1931 0.950 . S
H1928 C1924 0.950 . S
C1929 C1927 1.390 . S
C1929 C1930 1.387 . S
C1929 H1932 0.950 . S
C1930 C1929 1.387 . S
C1930 C1933 1.387 . S
H1931 C1927 0.950 . S
H1932 C1929 0.950 . S
C1933 C1924 1.390 . S
C1933 H1926 0.950 . S
C1933 C1930 1.387 . S
C1934 C1935 1.387 . S
C1934 H1938 0.950 . S
C1934 C1943 1.390 . S
C1935 C1934 1.387 . S
C1935 C1937 1.387 . S
H1936 C1943 0.950 . S
C1937 C1935 1.387 . S
C1937 C1939 1.390 . S
C1937 H1941 0.950 . S
H1938 C1934 0.950 . S
C1939 C1937 1.390 . S
C1939 C1940 1.387 . S
C1939 H1942 0.950 . S
C1940 C1939 1.387 . S
C1940 C1943 1.387 . S
H1941 C1937 0.950 . S
H1942 C1939 0.950 . S
C1943 C1934 1.390 . S
C1943 H1936 0.950 . S
C1943 C1940 1.387 . S
C1944 C1945 1.387 . S
C1944 H1948 0.950 . S
C1944 C1953 1.390 . S
C1945 C1944 1.387 . S
C1945 C1947 1.387 . S
H1946 C1953 0.950 . S
C1947 C1945 1.387 . S
C1947 C1949 1.390 . S
C1947 H1951 0.950 . S
H1948 C1944 0.950 . S
C1949 C1947 1.390 . S
C1949 C1950 1.387 . S
C1949 H1952 0.950 . S
C1950 C1949 1.387 . S
C1950 C1953 1.387 . S
H1951 C1947 0.950 . S
H1952 C1949 0.950 . S
C1953 C1944 1.390 . S
C1953 H1946 0.950 . S
C1953 C1950 1.387 . S
C1954 C1955 1.387 . S
C1954 H1958 0.950 . S
C1954 C1963 1.390 1_554 S
C1955 C1954 1.387 . S
C1955 C1957 1.387 . S
H1956 C1963 0.950 . S
C1957 C1955 1.387 . S
C1957 C1959 1.390 . S
C1957 H1961 0.950 . S
H1958 C1954 0.950 . S
C1959 C1957 1.390 . S
C1959 C1960 1.403 . S
C1959 H1962 0.950 . S
C1960 C1959 1.403 . S
C1960 C1963 1.383 1_554 S
H1961 C1957 0.950 . S
H1962 C1959 0.950 . S
C1963 C1954 1.390 1_556 S
C1963 H1956 0.950 . S
C1963 C1960 1.383 1_556 S
C1964 C1965 1.387 . S
C1964 H1968 0.950 . S
C1964 C1973 1.390 . S
C1965 C1964 1.387 . S
C1965 C1967 1.387 . S
H1966 C1973 0.950 . S
C1967 C1965 1.387 . S
C1967 C1969 1.390 . S
C1967 H1971 0.950 . S
H1968 C1964 0.950 . S
C1969 C1967 1.390 . S
C1969 C1970 1.387 . S
C1969 H1972 0.950 . S
C1970 C1969 1.387 . S
C1970 C1973 1.387 . S
H1971 C1967 0.950 . S
H1972 C1969 0.950 . S
C1973 C1964 1.390 . S
C1973 H1966 0.950 . S
C1973 C1970 1.387 . S
C1974 C1975 1.387 . S
C1974 H1978 0.950 . S
C1974 C1983 1.390 . S
C1975 C1974 1.387 . S
C1975 C1977 1.387 . S
H1976 C1983 0.950 . S
C1977 C1975 1.387 . S
C1977 C1979 1.390 . S
C1977 H1981 0.950 . S
H1978 C1974 0.950 . S
C1979 C1977 1.390 . S
C1979 C1980 1.387 . S
C1979 H1982 0.950 . S
C1980 C1979 1.387 . S
C1980 C1983 1.387 . S
H1981 C1977 0.950 . S
H1982 C1979 0.950 . S
C1983 C1974 1.390 . S
C1983 H1976 0.950 . S
C1983 C1980 1.387 . S
C1984 C1985 1.387 . S
C1984 H1988 0.950 . S
C1984 C1993 1.390 . S
C1985 C1984 1.387 . S
C1985 C1987 1.387 . S
H1986 C1993 0.950 . S
C1987 C1985 1.387 . S
C1987 C1989 1.390 . S
C1987 H1991 0.950 . S
H1988 C1984 0.950 . S
C1989 C1987 1.390 . S
C1989 C1990 1.387 . S
C1989 H1992 0.950 . S
C1990 C1989 1.387 . S
C1990 C1993 1.387 . S
H1991 C1987 0.950 . S
H1992 C1989 0.950 . S
C1993 C1984 1.390 . S
C1993 H1986 0.950 . S
C1993 C1990 1.387 . S
C1994 C1995 1.387 . S
C1994 H1998 0.950 . S
C1994 C2003 1.390 . S
C1995 C1994 1.387 . S
C1995 C1997 1.387 . S
H1996 C2003 0.950 . S
C1997 C1995 1.387 . S
C1997 C1999 1.390 . S
C1997 H2001 0.950 . S
H1998 C1994 0.950 . S
C1999 C1997 1.390 . S
C1999 C2000 1.387 . S
C1999 H2002 0.950 . S
C2000 C1999 1.387 . S
C2000 C2003 1.387 . S
H2001 C1997 0.950 . S
H2002 C1999 0.950 . S
C2003 C1994 1.390 . S
C2003 H1996 0.950 . S
C2003 C2000 1.387 . S
C2004 C2005 1.387 . S
C2004 H2008 0.950 . S
C2004 C2013 1.390 . S
C2005 C2004 1.387 . S
C2005 C2007 1.387 . S
H2006 C2013 0.950 . S
C2007 C2005 1.387 . S
C2007 C2009 1.390 . S
C2007 H2011 0.950 . S
H2008 C2004 0.950 . S
C2009 C2007 1.390 . S
C2009 C2010 1.389 . S
C2009 H2012 0.950 1_565 S
C2010 C2009 1.389 . S
C2010 C2013 1.397 . S
H2011 C2007 0.950 . S
H2012 C2009 0.950 1_545 S
C2013 C2004 1.390 . S
C2013 H2006 0.950 . S
C2013 C2010 1.397 . S
C2014 C2015 1.387 . S
C2014 H2018 0.950 . S
C2014 C2023 1.390 . S
C2015 C2014 1.387 . S
C2015 C2017 1.387 . S
H2016 C2023 0.950 . S
C2017 C2015 1.387 . S
C2017 C2019 1.390 . S
C2017 H2021 0.950 . S
H2018 C2014 0.950 . S
C2019 C2017 1.390 . S
C2019 C2020 1.387 . S
C2019 H2022 0.950 . S
C2020 C2019 1.387 . S
C2020 C2023 1.387 . S
H2021 C2017 0.950 . S
H2022 C2019 0.950 . S
C2023 C2014 1.390 . S
C2023 H2016 0.950 . S
C2023 C2020 1.387 . S
C2024 C2025 1.387 . S
C2024 H2028 0.950 . S
C2024 C2033 1.390 . S
C2025 C2024 1.387 . S
C2025 C2027 1.387 . S
H2026 C2033 0.950 . S
C2027 C2025 1.387 . S
C2027 C2029 1.390 . S
C2027 H2031 0.950 . S
H2028 C2024 0.950 . S
C2029 C2027 1.390 . S
C2029 C2030 1.387 . S
C2029 H2032 0.950 . S
C2030 C2029 1.387 . S
C2030 C2033 1.387 . S
H2031 C2027 0.950 . S
H2032 C2029 0.950 . S
C2033 C2024 1.390 . S
C2033 H2026 0.950 . S
C2033 C2030 1.387 . S
C2034 C2035 1.387 . S
C2034 H2038 0.950 . S
C2034 C2043 1.390 . S
C2035 C2034 1.387 . S
C2035 C2037 1.387 . S
H2036 C2043 0.950 . S
C2037 C2035 1.387 . S
C2037 C2039 1.390 . S
C2037 H2041 0.950 . S
H2038 C2034 0.950 . S
C2039 C2037 1.390 . S
C2039 C2040 1.387 . S
C2039 H2042 0.950 . S
C2040 C2039 1.387 . S
C2040 C2043 1.387 . S
H2041 C2037 0.950 . S
H2042 C2039 0.950 . S
C2043 C2034 1.390 . S
C2043 H2036 0.950 . S
C2043 C2040 1.387 . S
C2044 C2045 1.405 . S
C2044 H2048 0.950 . S
C2044 C2053 1.390 . S
C2045 C2044 1.405 . S
C2045 C2047 1.381 1_545 S
H2046 C2053 0.950 . S
C2047 C2045 1.381 1_565 S
C2047 C2049 1.390 1_565 S
C2047 H2051 0.950 . S
H2048 C2044 0.950 . S
C2049 C2047 1.390 1_545 S
C2049 C2050 1.387 . S
C2049 H2052 0.965 . S
C2050 C2049 1.387 . S
C2050 C2053 1.387 . S
H2051 C2047 0.950 . S
H2052 C2049 0.965 . S
C2053 C2044 1.390 . S
C2053 H2046 0.950 . S
C2053 C2050 1.387 . S
C2054 C2055 1.376 1_545 S
C2054 H2058 0.950 . S
C2054 C2063 1.390 1_545 S
C2055 C2054 1.376 1_565 S
C2055 C2057 1.413 . S
H2056 C2063 0.950 1_545 S
C2057 C2055 1.413 . S
C2057 C2059 1.390 . S
C2057 H2061 0.950 . S
H2058 C2054 0.950 . S
C2059 C2057 1.390 . S
C2059 C2060 1.387 . S
C2059 H2062 0.950 . S
C2060 C2059 1.387 . S
C2060 C2063 1.387 . S
H2061 C2057 0.950 . S
H2062 C2059 0.950 . S
C2063 C2054 1.390 1_565 S
C2063 H2056 0.950 1_565 S
C2063 C2060 1.387 . S
C2064 C2065 1.387 . S
C2064 H2068 0.950 . S
C2064 C2073 1.390 . S
C2065 C2064 1.387 . S
C2065 C2067 1.387 . S
H2066 C2073 0.950 . S
C2067 C2065 1.387 . S
C2067 C2069 1.390 . S
C2067 H2071 0.950 . S
H2068 C2064 0.950 . S
C2069 C2067 1.390 . S
C2069 C2070 1.387 . S
C2069 H2072 0.950 . S
C2070 C2069 1.387 . S
C2070 C2073 1.387 . S
H2071 C2067 0.950 . S
H2072 C2069 0.950 . S
C2073 C2064 1.390 . S
C2073 H2066 0.950 . S
C2073 C2070 1.387 . S
C2074 C2075 1.387 . S
C2074 H2078 0.950 . S
C2074 C2083 1.390 . S
C2075 C2074 1.387 . S
C2075 C2077 1.387 . S
H2076 C2083 0.950 . S
C2077 C2075 1.387 . S
C2077 C2079 1.390 . S
C2077 H2081 0.950 . S
H2078 C2074 0.950 . S
C2079 C2077 1.390 . S
C2079 C2080 1.387 . S
C2079 H2082 0.950 . S
C2080 C2079 1.387 . S
C2080 C2083 1.387 . S
H2081 C2077 0.950 . S
H2082 C2079 0.950 . S
C2083 C2074 1.390 . S
C2083 H2076 0.950 . S
C2083 C2080 1.387 . S
C2084 C2085 1.387 . S
C2084 H2088 0.950 . S
C2084 C2093 1.390 . S
C2085 C2084 1.387 . S
C2085 C2087 1.387 . S
H2086 C2093 0.950 . S
C2087 C2085 1.387 . S
C2087 C2089 1.390 . S
C2087 H2091 0.950 . S
H2088 C2084 0.950 . S
C2089 C2087 1.390 . S
C2089 C2090 1.387 . S
C2089 H2092 0.950 . S
C2090 C2089 1.387 . S
C2090 C2093 1.387 . S
H2091 C2087 0.950 . S
H2092 C2089 0.950 . S
C2093 C2084 1.390 . S
C2093 H2086 0.950 . S
C2093 C2090 1.387 . S
C2094 C2095 1.387 . S
C2094 H2098 0.950 . S
C2094 C2103 1.390 . S
C2095 C2094 1.387 . S
C2095 C2097 1.387 . S
H2096 C2103 0.950 1_655 S
C2097 C2095 1.387 . S
C2097 C2099 1.390 . S
C2097 H2101 0.950 . S
H2098 C2094 0.950 . S
C2099 C2097 1.390 . S
C2099 C2100 1.394 . S
C2099 H2102 0.950 . S
C2100 C2099 1.394 . S
C2100 C2103 1.391 . S
H2101 C2097 0.950 . S
H2102 C2099 0.950 . S
C2103 C2094 1.390 . S
C2103 H2096 0.950 1_455 S
C2103 C2100 1.391 . S
C2104 C2105 1.387 . S
C2104 H2108 0.950 . S
C2104 C2113 1.390 . S
C2105 C2104 1.387 . S
C2105 C2107 1.387 . S
H2106 C2113 0.950 . S
C2107 C2105 1.387 . S
C2107 C2109 1.390 . S
C2107 H2111 0.950 . S
H2108 C2104 0.950 . S
C2109 C2107 1.390 . S
C2109 C2110 1.387 . S
C2109 H2112 0.950 . S
C2110 C2109 1.387 . S
C2110 C2113 1.387 . S
H2111 C2107 0.950 . S
H2112 C2109 0.950 . S
C2113 C2104 1.390 . S
C2113 H2106 0.950 . S
C2113 C2110 1.387 . S
C2114 C2115 1.390 . S
C2114 H2118 0.950 1_455 S
C2114 C2123 1.390 . S
C2115 C2114 1.390 . S
C2115 C2117 1.395 . S
H2116 C2123 0.950 . S
C2117 C2115 1.395 . S
C2117 C2119 1.390 . S
C2117 H2121 0.950 . S
H2118 C2114 0.950 1_655 S
C2119 C2117 1.390 . S
C2119 C2120 1.387 . S
C2119 H2122 0.950 . S
C2120 C2119 1.387 . S
C2120 C2123 1.387 . S
H2121 C2117 0.950 . S
H2122 C2119 0.950 . S
C2123 C2114 1.390 . S
C2123 H2116 0.950 . S
C2123 C2120 1.387 . S
C2124 C2125 1.387 . S
C2124 H2128 0.950 . S
C2124 C2133 1.390 . S
C2125 C2124 1.387 . S
C2125 C2127 1.387 . S
H2126 C2133 0.950 . S
C2127 C2125 1.387 . S
C2127 C2129 1.390 . S
C2127 H2131 0.950 . S
H2128 C2124 0.950 . S
C2129 C2127 1.390 . S
C2129 C2130 1.387 . S
C2129 H2132 0.950 . S
C2130 C2129 1.387 . S
C2130 C2133 1.387 . S
H2131 C2127 0.950 . S
H2132 C2129 0.950 . S
C2133 C2124 1.390 . S
C2133 H2126 0.950 . S
C2133 C2130 1.387 . S
C2134 C2135 1.387 . S
C2134 H2138 0.950 . S
C2134 C2143 1.390 . S
C2135 C2134 1.387 . S
C2135 C2137 1.387 . S
H2136 C2143 0.950 . S
C2137 C2135 1.387 . S
C2137 C2139 1.390 . S
C2137 H2141 0.950 . S
H2138 C2134 0.950 . S
C2139 C2137 1.390 . S
C2139 C2140 1.387 . S
C2139 H2142 0.950 . S
C2140 C2139 1.387 . S
C2140 C2143 1.387 . S
H2141 C2137 0.950 . S
H2142 C2139 0.950 . S
C2143 C2134 1.390 . S
C2143 H2136 0.950 . S
C2143 C2140 1.387 . S
C2144 C2145 1.387 . S
C2144 H2148 0.950 . S
C2144 C2153 1.390 . S
C2145 C2144 1.387 . S
C2145 C2147 1.387 . S
H2146 C2153 0.950 . S
C2147 C2145 1.387 . S
C2147 C2149 1.390 . S
C2147 H2151 0.950 . S
H2148 C2144 0.950 . S
C2149 C2147 1.390 . S
C2149 C2150 1.387 . S
C2149 H2152 0.950 . S
C2150 C2149 1.387 . S
C2150 C2153 1.387 . S
H2151 C2147 0.950 . S
H2152 C2149 0.950 . S
C2153 C2144 1.390 . S
C2153 H2146 0.950 . S
C2153 C2150 1.387 . S
C2154 C2155 1.382 1_556 S
C2154 H2158 0.950 . S
C2154 C2163 1.390 1_556 S
C2155 C2154 1.382 1_554 S
C2155 C2157 1.408 . S
H2156 C2163 0.950 . S
C2157 C2155 1.408 . S
C2157 C2159 1.390 . S
C2157 H2161 0.950 . S
H2158 C2154 0.950 . S
C2159 C2157 1.390 . S
C2159 C2160 1.387 . S
C2159 H2162 0.950 . S
C2160 C2159 1.387 . S
C2160 C2163 1.387 . S
H2161 C2157 0.950 . S
H2162 C2159 0.950 . S
C2163 C2154 1.390 1_554 S
C2163 H2156 0.950 . S
C2163 C2160 1.387 . S
C2164 C2165 1.387 . S
C2164 H2168 0.950 . S
C2164 C2173 1.390 . S
C2165 C2164 1.387 . S
C2165 C2167 1.387 . S
H2166 C2173 0.950 . S
C2167 C2165 1.387 . S
C2167 C2169 1.390 . S
C2167 H2171 0.950 . S
H2168 C2164 0.950 . S
C2169 C2167 1.390 . S
C2169 C2170 1.387 . S
C2169 H2172 0.950 . S
C2170 C2169 1.387 . S
C2170 C2173 1.387 . S
H2171 C2167 0.950 . S
H2172 C2169 0.950 . S
C2173 C2164 1.390 . S
C2173 H2166 0.950 . S
C2173 C2170 1.387 . S
C2174 C2175 1.387 . S
C2174 H2178 0.950 . S
C2174 C2183 1.390 . S
C2175 C2174 1.387 . S
C2175 C2177 1.387 . S
H2176 C2183 0.950 . S
C2177 C2175 1.387 . S
C2177 C2179 1.390 . S
C2177 H2181 0.950 . S
H2178 C2174 0.950 . S
C2179 C2177 1.390 . S
C2179 C2180 1.387 . S
C2179 H2182 0.950 . S
C2180 C2179 1.387 . S
C2180 C2183 1.387 . S
H2181 C2177 0.950 . S
H2182 C2179 0.950 . S
C2183 C2174 1.390 . S
C2183 H2176 0.950 . S
C2183 C2180 1.387 . S
C2184 C2185 1.387 . S
C2184 H2188 0.950 . S
C2184 C2193 1.390 . S
C2185 C2184 1.387 . S
C2185 C2187 1.387 . S
H2186 C2193 0.950 . S
C2187 C2185 1.387 . S
C2187 C2189 1.390 . S
C2187 H2191 0.950 . S
H2188 C2184 0.950 . S
C2189 C2187 1.390 . S
C2189 C2190 1.387 . S
C2189 H2192 0.950 . S
C2190 C2189 1.387 . S
C2190 C2193 1.387 . S
H2191 C2187 0.950 . S
H2192 C2189 0.950 . S
C2193 C2184 1.390 . S
C2193 H2186 0.950 . S
C2193 C2190 1.387 . S
C2194 C2195 1.413 . S
C2194 H2198 0.950 . S
C2194 C2203 1.390 . S
C2195 C2194 1.413 . S
C2195 C2197 1.375 1_556 S
H2196 C2203 0.950 . S
C2197 C2195 1.375 1_554 S
C2197 C2199 1.385 1_554 S
C2197 H2201 0.950 . S
H2198 C2194 0.950 . S
C2199 C2197 1.385 1_556 S
C2199 C2200 1.399 . S
C2199 H2202 0.944 1_556 S
C2200 C2199 1.399 . S
C2200 C2203 1.387 . S
H2201 C2197 0.950 . S
H2202 C2199 0.944 1_554 S
C2203 C2194 1.390 . S
C2203 H2196 0.950 . S
C2203 C2200 1.387 . S
C2204 C2205 1.387 . S
C2204 H2208 0.950 . S
C2204 C2213 1.390 . S
C2205 C2204 1.387 . S
C2205 C2207 1.387 . S
H2206 C2213 0.950 . S
C2207 C2205 1.387 . S
C2207 C2209 1.390 . S
C2207 H2211 0.950 . S
H2208 C2204 0.950 . S
C2209 C2207 1.390 . S
C2209 C2210 1.387 . S
C2209 H2212 0.950 . S
C2210 C2209 1.387 . S
C2210 C2213 1.387 . S
H2211 C2207 0.950 . S
H2212 C2209 0.950 . S
C2213 C2204 1.390 . S
C2213 H2206 0.950 . S
C2213 C2210 1.387 . S
C2214 C2215 1.387 . S
C2214 H2218 0.950 . S
C2214 C2223 1.390 . S
C2215 C2214 1.387 . S
C2215 C2217 1.387 . S
H2216 C2223 0.950 . S
C2217 C2215 1.387 . S
C2217 C2219 1.390 . S
C2217 H2221 0.950 . S
H2218 C2214 0.950 . S
C2219 C2217 1.390 . S
C2219 C2220 1.387 . S
C2219 H2222 0.950 . S
C2220 C2219 1.387 . S
C2220 C2223 1.387 . S
H2221 C2217 0.950 . S
H2222 C2219 0.950 . S
C2223 C2214 1.390 . S
C2223 H2216 0.950 . S
C2223 C2220 1.387 . S
C2224 C2225 1.387 . S
C2224 H2228 0.950 . S
C2224 C2233 1.390 . S
C2225 C2224 1.387 . S
C2225 C2227 1.387 . S
H2226 C2233 0.950 . S
C2227 C2225 1.387 . S
C2227 C2229 1.390 . S
C2227 H2231 0.950 . S
H2228 C2224 0.950 . S
C2229 C2227 1.390 . S
C2229 C2230 1.387 . S
C2229 H2232 0.950 . S
C2230 C2229 1.387 . S
C2230 C2233 1.387 . S
H2231 C2227 0.950 . S
H2232 C2229 0.950 . S
C2233 C2224 1.390 . S
C2233 H2226 0.950 . S
C2233 C2230 1.387 . S
C2234 C2235 1.387 . S
C2234 H2238 0.950 . S
C2234 C2243 1.390 . S
C2235 C2234 1.387 . S
C2235 C2237 1.387 . S
H2236 C2243 0.950 . S
C2237 C2235 1.387 . S
C2237 C2239 1.390 . S
C2237 H2241 0.950 . S
H2238 C2234 0.950 . S
C2239 C2237 1.390 . S
C2239 C2240 1.387 . S
C2239 H2242 0.950 . S
C2240 C2239 1.387 . S
C2240 C2243 1.387 . S
H2241 C2237 0.950 . S
H2242 C2239 0.950 . S
C2243 C2234 1.390 . S
C2243 H2236 0.950 . S
C2243 C2240 1.387 . S
C2244 C2245 1.401 . S
C2244 H2248 0.950 . S
C2244 C2253 1.390 . S
C2245 C2244 1.401 . S
C2245 C2247 1.390 . S
H2246 C2253 0.950 . S
C2247 C2245 1.390 . S
C2247 C2249 1.390 . S
C2247 H2251 0.950 1_545 S
H2248 C2244 0.950 . S
C2249 C2247 1.390 . S
C2249 C2250 1.387 . S
C2249 H2252 0.950 . S
C2250 C2249 1.387 . S
C2250 C2253 1.387 . S
H2251 C2247 0.950 1_565 S
H2252 C2249 0.950 . S
C2253 C2244 1.390 . S
C2253 H2246 0.950 . S
C2253 C2250 1.387 . S
C2254 C2255 1.387 . S
C2254 H2258 0.950 . S
C2254 C2263 1.390 . S
C2255 C2254 1.387 . S
C2255 C2257 1.387 . S
H2256 C2263 0.950 . S
C2257 C2255 1.387 . S
C2257 C2259 1.390 . S
C2257 H2261 0.950 . S
H2258 C2254 0.950 . S
C2259 C2257 1.390 . S
C2259 C2260 1.387 . S
C2259 H2262 0.950 . S
C2260 C2259 1.387 . S
C2260 C2263 1.387 . S
H2261 C2257 0.950 . S
H2262 C2259 0.950 . S
C2263 C2254 1.390 . S
C2263 H2256 0.950 . S
C2263 C2260 1.387 . S
C2264 C2265 1.387 . S
C2264 H2268 0.950 . S
C2264 C2273 1.390 . S
C2265 C2264 1.387 . S
C2265 C2267 1.387 . S
H2266 C2273 0.950 . S
C2267 C2265 1.387 . S
C2267 C2269 1.390 . S
C2267 H2271 0.950 . S
H2268 C2264 0.950 . S
C2269 C2267 1.390 . S
C2269 C2270 1.387 . S
C2269 H2272 0.950 . S
C2270 C2269 1.387 . S
C2270 C2273 1.387 . S
H2271 C2267 0.950 . S
H2272 C2269 0.950 . S
C2273 C2264 1.390 . S
C2273 H2266 0.950 . S
C2273 C2270 1.387 . S
C2274 C2275 1.387 . S
C2274 H2278 0.950 . S
C2274 C2283 1.390 . S
C2275 C2274 1.387 . S
C2275 C2277 1.387 . S
H2276 C2283 0.950 . S
C2277 C2275 1.387 . S
C2277 C2279 1.390 . S
C2277 H2281 0.950 . S
H2278 C2274 0.950 . S
C2279 C2277 1.390 . S
C2279 C2280 1.387 . S
C2279 H2282 0.950 . S
C2280 C2279 1.387 . S
C2280 C2283 1.387 . S
H2281 C2277 0.950 . S
H2282 C2279 0.950 . S
C2283 C2274 1.390 . S
C2283 H2276 0.950 . S
C2283 C2280 1.387 . S
C2284 C2285 1.387 . S
C2284 H2288 0.950 . S
C2284 C2293 1.390 1_565 S
C2285 C2284 1.387 . S
C2285 C2287 1.387 . S
H2286 C2293 0.950 . S
C2287 C2285 1.387 . S
C2287 C2289 1.390 . S
C2287 H2291 0.950 . S
H2288 C2284 0.950 . S
C2289 C2287 1.390 . S
C2289 C2290 1.399 . S
C2289 H2292 0.950 . S
C2290 C2289 1.399 . S
C2290 C2293 1.386 1_565 S
H2291 C2287 0.950 . S
H2292 C2289 0.950 . S
C2293 C2284 1.390 1_545 S
C2293 H2286 0.950 . S
C2293 C2290 1.386 1_545 S
C2294 C2295 1.387 . S
C2294 H2298 0.950 . S
C2294 C2303 1.390 . S
C2295 C2294 1.387 . S
C2295 C2297 1.387 . S
H2296 C2303 0.950 . S
C2297 C2295 1.387 . S
C2297 C2299 1.390 1_545 S
C2297 H2301 0.950 . S
H2298 C2294 0.950 . S
C2299 C2297 1.390 1_565 S
C2299 C2300 1.380 1_565 S
C2299 H2302 0.950 . S
C2300 C2299 1.380 1_545 S
C2300 C2303 1.409 . S
H2301 C2297 0.950 . S
H2302 C2299 0.950 . S
C2303 C2294 1.390 . S
C2303 H2296 0.950 . S
C2303 C2300 1.409 . S
C2304 C2305 1.387 . S
C2304 H2308 0.950 . S
C2304 C2313 1.390 . S
C2305 C2304 1.387 . S
C2305 C2307 1.387 . S
H2306 C2313 0.950 . S
C2307 C2305 1.387 . S
C2307 C2309 1.390 . S
C2307 H2311 0.950 . S
H2308 C2304 0.950 . S
C2309 C2307 1.390 . S
C2309 C2310 1.387 . S
C2309 H2312 0.950 . S
C2310 C2309 1.387 . S
C2310 C2313 1.387 . S
H2311 C2307 0.950 . S
H2312 C2309 0.950 . S
C2313 C2304 1.390 . S
C2313 H2306 0.950 . S
C2313 C2310 1.387 . S
C2314 C2315 1.387 . S
C2314 H2318 0.950 . S
C2314 C2323 1.390 . S
C2315 C2314 1.387 . S
C2315 C2317 1.387 . S
H2316 C2323 0.950 . S
C2317 C2315 1.387 . S
C2317 C2319 1.390 . S
C2317 H2321 0.950 . S
H2318 C2314 0.950 . S
C2319 C2317 1.390 . S
C2319 C2320 1.387 . S
C2319 H2322 0.950 . S
C2320 C2319 1.387 . S
C2320 C2323 1.387 . S
H2321 C2317 0.950 . S
H2322 C2319 0.950 . S
C2323 C2314 1.390 . S
C2323 H2316 0.950 . S
C2323 C2320 1.387 . S
C2324 C2325 1.387 . S
C2324 H2328 0.950 . S
C2324 C2333 1.390 . S
C2325 C2324 1.387 . S
C2325 C2327 1.387 . S
H2326 C2333 0.950 . S
C2327 C2325 1.387 . S
C2327 C2329 1.390 . S
C2327 H2331 0.950 . S
H2328 C2324 0.950 . S
C2329 C2327 1.390 . S
C2329 C2330 1.387 . S
C2329 H2332 0.950 . S
C2330 C2329 1.387 . S
C2330 C2333 1.387 . S
H2331 C2327 0.950 . S
H2332 C2329 0.950 . S
C2333 C2324 1.390 . S
C2333 H2326 0.950 . S
C2333 C2330 1.387 . S
C2334 C2335 1.387 . S
C2334 H2338 0.950 . S
C2334 C2343 1.390 . S
C2335 C2334 1.387 . S
C2335 C2337 1.387 . S
H2336 C2343 0.950 . S
C2337 C2335 1.387 . S
C2337 C2339 1.390 . S
C2337 H2341 0.950 . S
H2338 C2334 0.950 . S
C2339 C2337 1.390 . S
C2339 C2340 1.387 . S
C2339 H2342 0.950 . S
C2340 C2339 1.387 . S
C2340 C2343 1.387 . S
H2341 C2337 0.950 . S
H2342 C2339 0.950 . S
C2343 C2334 1.390 . S
C2343 H2336 0.950 . S
C2343 C2340 1.387 . S
C2344 C2345 1.387 . S
C2344 H2348 0.950 . S
C2344 C2353 1.390 . S
C2345 C2344 1.387 . S
C2345 C2347 1.387 . S
H2346 C2353 0.950 . S
C2347 C2345 1.387 . S
C2347 C2349 1.390 . S
C2347 H2351 0.950 . S
H2348 C2344 0.950 . S
C2349 C2347 1.390 . S
C2349 C2350 1.387 . S
C2349 H2352 0.950 . S
C2350 C2349 1.387 . S
C2350 C2353 1.387 . S
H2351 C2347 0.950 . S
H2352 C2349 0.950 . S
C2353 C2344 1.390 . S
C2353 H2346 0.950 . S
C2353 C2350 1.387 . S
C2354 C2355 1.387 . S
C2354 H2358 0.950 . S
C2354 C2363 1.390 . S
C2355 C2354 1.387 . S
C2355 C2357 1.387 . S
H2356 C2363 0.950 . S
C2357 C2355 1.387 . S
C2357 C2359 1.390 . S
C2357 H2361 0.950 . S
H2358 C2354 0.950 . S
C2359 C2357 1.390 . S
C2359 C2360 1.387 . S
C2359 H2362 0.950 . S
C2360 C2359 1.387 . S
C2360 C2363 1.387 . S
H2361 C2357 0.950 . S
H2362 C2359 0.950 . S
C2363 C2354 1.390 . S
C2363 H2356 0.950 . S
C2363 C2360 1.387 . S
C2364 C2365 1.387 . S
C2364 H2368 0.950 . S
C2364 C2373 1.390 . S
C2365 C2364 1.387 . S
C2365 C2367 1.387 . S
H2366 C2373 0.950 . S
C2367 C2365 1.387 . S
C2367 C2369 1.390 . S
C2367 H2371 0.950 . S
H2368 C2364 0.950 . S
C2369 C2367 1.390 . S
C2369 C2370 1.387 . S
C2369 H2372 0.950 . S
C2370 C2369 1.387 . S
C2370 C2373 1.387 . S
H2371 C2367 0.950 . S
H2372 C2369 0.950 . S
C2373 C2364 1.390 . S
C2373 H2366 0.950 . S
C2373 C2370 1.387 . S
C2374 C2375 1.387 . S
C2374 H2378 0.950 . S
C2374 C2383 1.390 . S
C2375 C2374 1.387 . S
C2375 C2377 1.387 . S
H2376 C2383 0.950 . S
C2377 C2375 1.387 . S
C2377 C2379 1.390 . S
C2377 H2381 0.950 . S
H2378 C2374 0.950 . S
C2379 C2377 1.390 . S
C2379 C2380 1.387 . S
C2379 H2382 0.950 . S
C2380 C2379 1.387 . S
C2380 C2383 1.387 . S
H2381 C2377 0.950 . S
H2382 C2379 0.950 . S
C2383 C2374 1.390 . S
C2383 H2376 0.950 . S
C2383 C2380 1.387 . S
C2384 C2385 1.387 . S
C2384 H2388 0.950 . S
C2384 C2393 1.390 . S
C2385 C2384 1.387 . S
C2385 C2387 1.387 . S
H2386 C2393 0.950 . S
C2387 C2385 1.387 . S
C2387 C2389 1.390 . S
C2387 H2391 0.950 . S
H2388 C2384 0.950 . S
C2389 C2387 1.390 . S
C2389 C2390 1.387 . S
C2389 H2392 0.950 . S
C2390 C2389 1.387 . S
C2390 C2393 1.387 . S
H2391 C2387 0.950 . S
H2392 C2389 0.950 . S
C2393 C2384 1.390 . S
C2393 H2386 0.950 . S
C2393 C2390 1.387 . S
C2394 C2395 1.387 . S
C2394 H2398 0.950 . S
C2394 C2403 1.390 . S
C2395 C2394 1.387 . S
C2395 C2397 1.387 . S
H2396 C2403 0.950 . S
C2397 C2395 1.387 . S
C2397 C2399 1.390 . S
C2397 H2401 0.950 . S
H2398 C2394 0.950 . S
C2399 C2397 1.390 . S
C2399 C2400 1.387 . S
C2399 H2402 0.950 . S
C2400 C2399 1.387 . S
C2400 C2403 1.387 . S
H2401 C2397 0.950 . S
H2402 C2399 0.950 . S
C2403 C2394 1.390 . S
C2403 H2396 0.950 . S
C2403 C2400 1.387 . S
C2404 C2405 1.387 . S
C2404 H2408 0.950 . S
C2404 C2413 1.390 . S
C2405 C2404 1.387 . S
C2405 C2407 1.387 . S
H2406 C2413 0.950 . S
C2407 C2405 1.387 . S
C2407 C2409 1.390 . S
C2407 H2411 0.950 . S
H2408 C2404 0.950 . S
C2409 C2407 1.390 . S
C2409 C2410 1.387 . S
C2409 H2412 0.950 . S
C2410 C2409 1.387 . S
C2410 C2413 1.387 . S
H2411 C2407 0.950 . S
H2412 C2409 0.950 . S
C2413 C2404 1.390 . S
C2413 H2406 0.950 . S
C2413 C2410 1.387 . S
C2414 C2415 1.387 . S
C2414 H2418 0.950 . S
C2414 C2423 1.390 . S
C2415 C2414 1.387 . S
C2415 C2417 1.387 . S
H2416 C2423 0.950 . S
C2417 C2415 1.387 . S
C2417 C2419 1.390 . S
C2417 H2421 0.950 . S
H2418 C2414 0.950 . S
C2419 C2417 1.390 . S
C2419 C2420 1.387 . S
C2419 H2422 0.950 . S
C2420 C2419 1.387 . S
C2420 C2423 1.387 . S
H2421 C2417 0.950 . S
H2422 C2419 0.950 . S
C2423 C2414 1.390 . S
C2423 H2416 0.950 . S
C2423 C2420 1.387 . S
C2424 C2425 1.387 . S
C2424 H2428 0.950 . S
C2424 C2433 1.390 . S
C2425 C2424 1.387 . S
C2425 C2427 1.387 . S
H2426 C2433 0.950 . S
C2427 C2425 1.387 . S
C2427 C2429 1.390 . S
C2427 H2431 0.950 . S
H2428 C2424 0.950 . S
C2429 C2427 1.390 . S
C2429 C2430 1.387 . S
C2429 H2432 0.950 . S
C2430 C2429 1.387 . S
C2430 C2433 1.387 . S
H2431 C2427 0.950 . S
H2432 C2429 0.950 . S
C2433 C2424 1.390 . S
C2433 H2426 0.950 . S
C2433 C2430 1.387 . S
C2434 C2435 1.387 . S
C2434 H2438 0.950 . S
C2434 C2443 1.390 . S
C2435 C2434 1.387 . S
C2435 C2437 1.387 . S
H2436 C2443 0.950 . S
C2437 C2435 1.387 . S
C2437 C2439 1.390 . S
C2437 H2441 0.950 . S
H2438 C2434 0.950 . S
C2439 C2437 1.390 . S
C2439 C2440 1.387 . S
C2439 H2442 0.950 . S
C2440 C2439 1.387 . S
C2440 C2443 1.387 . S
H2441 C2437 0.950 . S
H2442 C2439 0.950 . S
C2443 C2434 1.390 . S
C2443 H2436 0.950 . S
C2443 C2440 1.387 . S
C2444 C2445 1.387 . S
C2444 H2448 0.950 . S
C2444 C2453 1.390 . S
C2445 C2444 1.387 . S
C2445 C2447 1.387 . S
H2446 C2453 0.950 . S
C2447 C2445 1.387 . S
C2447 C2449 1.390 . S
C2447 H2451 0.950 . S
H2448 C2444 0.950 . S
C2449 C2447 1.390 . S
C2449 C2450 1.387 . S
C2449 H2452 0.950 . S
C2450 C2449 1.387 . S
C2450 C2453 1.387 . S
H2451 C2447 0.950 . S
H2452 C2449 0.950 . S
C2453 C2444 1.390 . S
C2453 H2446 0.950 . S
C2453 C2450 1.387 . S
C2454 C2455 1.387 . S
C2454 H2458 0.950 . S
C2454 C2463 1.390 . S
C2455 C2454 1.387 . S
C2455 C2457 1.387 . S
H2456 C2463 0.950 . S
C2457 C2455 1.387 . S
C2457 C2459 1.390 . S
C2457 H2461 0.950 . S
H2458 C2454 0.950 . S
C2459 C2457 1.390 . S
C2459 C2460 1.387 . S
C2459 H2462 0.950 . S
C2460 C2459 1.387 . S
C2460 C2463 1.387 . S
H2461 C2457 0.950 . S
H2462 C2459 0.950 . S
C2463 C2454 1.390 . S
C2463 H2456 0.950 . S
C2463 C2460 1.387 . S
C2464 C2465 1.387 . S
C2464 H2468 0.950 . S
C2464 C2473 1.390 . S
C2465 C2464 1.387 . S
C2465 C2467 1.387 . S
H2466 C2473 0.950 . S
C2467 C2465 1.387 . S
C2467 C2469 1.390 . S
C2467 H2471 0.950 . S
H2468 C2464 0.950 . S
C2469 C2467 1.390 . S
C2469 C2470 1.387 . S
C2469 H2472 0.950 . S
C2470 C2469 1.387 . S
C2470 C2473 1.387 . S
H2471 C2467 0.950 . S
H2472 C2469 0.950 . S
C2473 C2464 1.390 . S
C2473 H2466 0.950 . S
C2473 C2470 1.387 . S
C2474 C2475 1.387 . S
C2474 H2478 0.950 . S
C2474 C2483 1.390 . S
C2475 C2474 1.387 . S
C2475 C2477 1.387 . S
H2476 C2483 0.950 . S
C2477 C2475 1.387 . S
C2477 C2479 1.390 . S
C2477 H2481 0.950 . S
H2478 C2474 0.950 . S
C2479 C2477 1.390 . S
C2479 C2480 1.387 . S
C2479 H2482 0.950 . S
C2480 C2479 1.387 . S
C2480 C2483 1.387 . S
H2481 C2477 0.950 . S
H2482 C2479 0.950 . S
C2483 C2474 1.390 . S
C2483 H2476 0.950 . S
C2483 C2480 1.387 . S
C2484 C2485 1.387 . S
C2484 H2488 0.950 . S
C2484 C2493 1.390 . S
C2485 C2484 1.387 . S
C2485 C2487 1.387 . S
H2486 C2493 0.950 . S
C2487 C2485 1.387 . S
C2487 C2489 1.390 . S
C2487 H2491 0.950 . S
H2488 C2484 0.950 . S
C2489 C2487 1.390 . S
C2489 C2490 1.387 . S
C2489 H2492 0.950 . S
C2490 C2489 1.387 . S
C2490 C2493 1.387 . S
H2491 C2487 0.950 . S
H2492 C2489 0.950 . S
C2493 C2484 1.390 . S
C2493 H2486 0.950 . S
C2493 C2490 1.387 . S
C2494 C2495 1.387 . S
C2494 H2498 0.950 . S
C2494 C2503 1.390 . S
C2495 C2494 1.387 . S
C2495 C2497 1.387 . S
H2496 C2503 0.950 . S
C2497 C2495 1.387 . S
C2497 C2499 1.390 . S
C2497 H2501 0.950 . S
H2498 C2494 0.950 . S
C2499 C2497 1.390 . S
C2499 C2500 1.387 . S
C2499 H2502 0.950 . S
C2500 C2499 1.387 . S
C2500 C2503 1.387 . S
H2501 C2497 0.950 . S
H2502 C2499 0.950 . S
C2503 C2494 1.390 . S
C2503 H2496 0.950 . S
C2503 C2500 1.387 . S
C2504 C2505 1.387 . S
C2504 H2508 0.950 . S
C2504 C2513 1.390 . S
C2505 C2504 1.387 . S
C2505 C2507 1.387 . S
H2506 C2513 0.950 . S
C2507 C2505 1.387 . S
C2507 C2509 1.390 . S
C2507 H2511 0.950 . S
H2508 C2504 0.950 . S
C2509 C2507 1.390 . S
C2509 C2510 1.387 . S
C2509 H2512 0.950 . S
C2510 C2509 1.387 . S
C2510 C2513 1.387 . S
H2511 C2507 0.950 . S
H2512 C2509 0.950 . S
C2513 C2504 1.390 . S
C2513 H2506 0.950 . S
C2513 C2510 1.387 . S
C2514 C2515 1.387 . S
C2514 H2518 0.950 . S
C2514 C2523 1.390 . S
C2515 C2514 1.387 . S
C2515 C2517 1.387 . S
H2516 C2523 0.950 . S
C2517 C2515 1.387 . S
C2517 C2519 1.390 . S
C2517 H2521 0.950 . S
H2518 C2514 0.950 . S
C2519 C2517 1.390 . S
C2519 C2520 1.387 . S
C2519 H2522 0.950 . S
C2520 C2519 1.387 . S
C2520 C2523 1.387 . S
H2521 C2517 0.950 . S
H2522 C2519 0.950 . S
C2523 C2514 1.390 . S
C2523 H2516 0.950 . S
C2523 C2520 1.387 . S
C2524 C2525 1.387 . S
C2524 H2528 0.950 . S
C2524 C2533 1.390 . S
C2525 C2524 1.387 . S
C2525 C2527 1.387 . S
H2526 C2533 0.950 . S
C2527 C2525 1.387 . S
C2527 C2529 1.390 . S
C2527 H2531 0.950 . S
H2528 C2524 0.950 . S
C2529 C2527 1.390 . S
C2529 C2530 1.387 . S
C2529 H2532 0.950 . S
C2530 C2529 1.387 . S
C2530 C2533 1.387 . S
H2531 C2527 0.950 . S
H2532 C2529 0.950 . S
C2533 C2524 1.390 . S
C2533 H2526 0.950 . S
C2533 C2530 1.387 . S
C2534 C2535 1.387 . S
C2534 H2538 0.950 . S
C2534 C2543 1.390 . S
C2535 C2534 1.387 . S
C2535 C2537 1.387 . S
H2536 C2543 0.950 . S
C2537 C2535 1.387 . S
C2537 C2539 1.390 . S
C2537 H2541 0.950 . S
H2538 C2534 0.950 . S
C2539 C2537 1.390 . S
C2539 C2540 1.387 . S
C2539 H2542 0.950 . S
C2540 C2539 1.387 . S
C2540 C2543 1.387 . S
H2541 C2537 0.950 . S
H2542 C2539 0.950 . S
C2543 C2534 1.390 . S
C2543 H2536 0.950 . S
C2543 C2540 1.387 . S
C2544 C2545 1.387 . S
C2544 H2548 0.950 . S
C2544 C2553 1.390 . S
C2545 C2544 1.387 . S
C2545 C2547 1.387 . S
H2546 C2553 0.950 . S
C2547 C2545 1.387 . S
C2547 C2549 1.390 . S
C2547 H2551 0.950 . S
H2548 C2544 0.950 . S
C2549 C2547 1.390 . S
C2549 C2550 1.387 . S
C2549 H2552 0.950 . S
C2550 C2549 1.387 . S
C2550 C2553 1.387 . S
H2551 C2547 0.950 . S
H2552 C2549 0.950 . S
C2553 C2544 1.390 . S
C2553 H2546 0.950 . S
C2553 C2550 1.387 . S
C2554 C2555 1.387 . S
C2554 H2558 0.950 . S
C2554 C2563 1.390 . S
C2555 C2554 1.387 . S
C2555 C2557 1.387 . S
H2556 C2563 0.950 . S
C2557 C2555 1.387 . S
C2557 C2559 1.390 . S
C2557 H2561 0.950 . S
H2558 C2554 0.950 . S
C2559 C2557 1.390 . S
C2559 C2560 1.387 . S
C2559 H2562 0.950 . S
C2560 C2559 1.387 . S
C2560 C2563 1.387 . S
H2561 C2557 0.950 . S
H2562 C2559 0.950 . S
C2563 C2554 1.390 . S
C2563 H2556 0.950 . S
C2563 C2560 1.387 . S
C2564 C2565 1.387 . S
C2564 H2568 0.950 . S
C2564 C2573 1.390 . S
C2565 C2564 1.387 . S
C2565 C2567 1.387 . S
H2566 C2573 0.950 . S
C2567 C2565 1.387 . S
C2567 C2569 1.390 . S
C2567 H2571 0.950 . S
H2568 C2564 0.950 . S
C2569 C2567 1.390 . S
C2569 C2570 1.387 . S
C2569 H2572 0.950 . S
C2570 C2569 1.387 . S
C2570 C2573 1.387 . S
H2571 C2567 0.950 . S
H2572 C2569 0.950 . S
C2573 C2564 1.390 . S
C2573 H2566 0.950 . S
C2573 C2570 1.387 . S
C2574 C2575 1.387 . S
C2574 H2578 0.950 . S
C2574 C2583 1.390 . S
C2575 C2574 1.387 . S
C2575 C2577 1.387 . S
H2576 C2583 0.950 . S
C2577 C2575 1.387 . S
C2577 C2579 1.390 . S
C2577 H2581 0.950 . S
H2578 C2574 0.950 . S
C2579 C2577 1.390 . S
C2579 C2580 1.387 . S
C2579 H2582 0.950 . S
C2580 C2579 1.387 . S
C2580 C2583 1.387 . S
H2581 C2577 0.950 . S
H2582 C2579 0.950 . S
C2583 C2574 1.390 . S
C2583 H2576 0.950 . S
C2583 C2580 1.387 . S
C2584 C2585 1.387 . S
C2584 H2588 0.950 . S
C2584 C2593 1.390 . S
C2585 C2584 1.387 . S
C2585 C2587 1.387 . S
H2586 C2593 0.950 . S
C2587 C2585 1.387 . S
C2587 C2589 1.390 . S
C2587 H2591 0.950 . S
H2588 C2584 0.950 . S
C2589 C2587 1.390 . S
C2589 C2590 1.387 . S
C2589 H2592 0.950 . S
C2590 C2589 1.387 . S
C2590 C2593 1.387 . S
H2591 C2587 0.950 . S
H2592 C2589 0.950 . S
C2593 C2584 1.390 . S
C2593 H2586 0.950 . S
C2593 C2590 1.387 . S
C2594 C2595 1.387 . S
C2594 H2598 0.950 . S
C2594 C2603 1.390 . S
C2595 C2594 1.387 . S
C2595 C2597 1.387 . S
H2596 C2603 0.950 . S
C2597 C2595 1.387 . S
C2597 C2599 1.390 . S
C2597 H2601 0.950 . S
H2598 C2594 0.950 . S
C2599 C2597 1.390 . S
C2599 C2600 1.387 . S
C2599 H2602 0.950 . S
C2600 C2599 1.387 . S
C2600 C2603 1.387 . S
H2601 C2597 0.950 . S
H2602 C2599 0.950 . S
C2603 C2594 1.390 . S
C2603 H2596 0.950 . S
C2603 C2600 1.387 . S
C2604 C2605 1.387 . S
C2604 H2608 0.950 . S
C2604 C2613 1.390 . S
C2605 C2604 1.387 . S
C2605 C2607 1.387 . S
H2606 C2613 0.950 . S
C2607 C2605 1.387 . S
C2607 C2609 1.390 . S
C2607 H2611 0.950 . S
H2608 C2604 0.950 . S
C2609 C2607 1.390 . S
C2609 C2610 1.387 . S
C2609 H2612 0.950 . S
C2610 C2609 1.387 . S
C2610 C2613 1.387 . S
H2611 C2607 0.950 . S
H2612 C2609 0.950 . S
C2613 C2604 1.390 . S
C2613 H2606 0.950 . S
C2613 C2610 1.387 . S
C2614 C2615 1.387 . S
C2614 H2618 0.950 . S
C2614 C2623 1.390 . S
C2615 C2614 1.387 . S
C2615 C2617 1.387 . S
H2616 C2623 0.950 . S
C2617 C2615 1.387 . S
C2617 C2619 1.390 . S
C2617 H2621 0.950 . S
H2618 C2614 0.950 . S
C2619 C2617 1.390 . S
C2619 C2620 1.387 . S
C2619 H2622 0.950 . S
C2620 C2619 1.387 . S
C2620 C2623 1.387 . S
H2621 C2617 0.950 . S
H2622 C2619 0.950 . S
C2623 C2614 1.390 . S
C2623 H2616 0.950 . S
C2623 C2620 1.387 . S
C2624 C2625 1.387 . S
C2624 H2628 0.950 . S
C2624 C2633 1.390 . S
C2625 C2624 1.387 . S
C2625 C2627 1.387 . S
H2626 C2633 0.950 . S
C2627 C2625 1.387 . S
C2627 C2629 1.390 . S
C2627 H2631 0.950 . S
H2628 C2624 0.950 . S
C2629 C2627 1.390 . S
C2629 C2630 1.387 . S
C2629 H2632 0.950 . S
C2630 C2629 1.387 . S
C2630 C2633 1.387 . S
H2631 C2627 0.950 . S
H2632 C2629 0.950 . S
C2633 C2624 1.390 . S
C2633 H2626 0.950 . S
C2633 C2630 1.387 . S
C2634 C2635 1.387 . S
C2634 H2638 0.950 . S
C2634 C2643 1.390 . S
C2635 C2634 1.387 . S
C2635 C2637 1.387 . S
H2636 C2643 0.950 . S
C2637 C2635 1.387 . S
C2637 C2639 1.390 . S
C2637 H2641 0.950 . S
H2638 C2634 0.950 . S
C2639 C2637 1.390 . S
C2639 C2640 1.387 . S
C2639 H2642 0.950 . S
C2640 C2639 1.387 . S
C2640 C2643 1.387 . S
H2641 C2637 0.950 . S
H2642 C2639 0.950 . S
C2643 C2634 1.390 . S
C2643 H2636 0.950 . S
C2643 C2640 1.387 . S
C2644 C2645 1.387 . S
C2644 H2648 0.950 . S
C2644 C2653 1.390 . S
C2645 C2644 1.387 . S
C2645 C2647 1.387 . S
H2646 C2653 0.950 . S
C2647 C2645 1.387 . S
C2647 C2649 1.390 . S
C2647 H2651 0.950 . S
H2648 C2644 0.950 . S
C2649 C2647 1.390 . S
C2649 C2650 1.387 . S
C2649 H2652 0.950 . S
C2650 C2649 1.387 . S
C2650 C2653 1.387 . S
H2651 C2647 0.950 . S
H2652 C2649 0.950 . S
C2653 C2644 1.390 . S
C2653 H2646 0.950 . S
C2653 C2650 1.387 . S
C2654 C2655 1.387 . S
C2654 H2658 0.950 . S
C2654 C2663 1.390 . S
C2655 C2654 1.387 . S
C2655 C2657 1.387 . S
H2656 C2663 0.950 . S
C2657 C2655 1.387 . S
C2657 C2659 1.390 . S
C2657 H2661 0.950 . S
H2658 C2654 0.950 . S
C2659 C2657 1.390 . S
C2659 C2660 1.387 . S
C2659 H2662 0.950 . S
C2660 C2659 1.387 . S
C2660 C2663 1.387 . S
H2661 C2657 0.950 . S
H2662 C2659 0.950 . S
C2663 C2654 1.390 . S
C2663 H2656 0.950 . S
C2663 C2660 1.387 . S
C2664 C2665 1.387 . S
C2664 H2668 0.950 . S
C2664 C2673 1.390 . S
C2665 C2664 1.387 . S
C2665 C2667 1.387 . S
H2666 C2673 0.950 . S
C2667 C2665 1.387 . S
C2667 C2669 1.390 . S
C2667 H2671 0.950 . S
H2668 C2664 0.950 . S
C2669 C2667 1.390 . S
C2669 C2670 1.387 . S
C2669 H2672 0.950 . S
C2670 C2669 1.387 . S
C2670 C2673 1.387 . S
H2671 C2667 0.950 . S
H2672 C2669 0.950 . S
C2673 C2664 1.390 . S
C2673 H2666 0.950 . S
C2673 C2670 1.387 . S
C2674 C2675 1.387 . S
C2674 H2678 0.950 . S
C2674 C2683 1.390 . S
C2675 C2674 1.387 . S
C2675 C2677 1.387 . S
H2676 C2683 0.950 . S
C2677 C2675 1.387 . S
C2677 C2679 1.390 . S
C2677 H2681 0.950 . S
H2678 C2674 0.950 . S
C2679 C2677 1.390 . S
C2679 C2680 1.387 . S
C2679 H2682 0.950 . S
C2680 C2679 1.387 . S
C2680 C2683 1.387 . S
H2681 C2677 0.950 . S
H2682 C2679 0.950 . S
C2683 C2674 1.390 . S
C2683 H2676 0.950 . S
C2683 C2680 1.387 . S
C2684 C2685 1.387 . S
C2684 H2688 0.950 . S
C2684 C2693 1.390 . S
C2685 C2684 1.387 . S
C2685 C2687 1.387 . S
H2686 C2693 0.950 . S
C2687 C2685 1.387 . S
C2687 C2689 1.390 . S
C2687 H2691 0.950 . S
H2688 C2684 0.950 . S
C2689 C2687 1.390 . S
C2689 C2690 1.387 . S
C2689 H2692 0.950 . S
C2690 C2689 1.387 . S
C2690 C2693 1.387 . S
H2691 C2687 0.950 . S
H2692 C2689 0.950 . S
C2693 C2684 1.390 . S
C2693 H2686 0.950 . S
C2693 C2690 1.387 . S
C2694 C2695 1.387 . S
C2694 H2698 0.950 . S
C2694 C2703 1.390 . S
C2695 C2694 1.387 . S
C2695 C2697 1.387 . S
H2696 C2703 0.950 . S
C2697 C2695 1.387 . S
C2697 C2699 1.390 . S
C2697 H2701 0.950 . S
H2698 C2694 0.950 . S
C2699 C2697 1.390 . S
C2699 C2700 1.387 . S
C2699 H2702 0.950 . S
C2700 C2699 1.387 . S
C2700 C2703 1.387 . S
H2701 C2697 0.950 . S
H2702 C2699 0.950 . S
C2703 C2694 1.390 . S
C2703 H2696 0.950 . S
C2703 C2700 1.387 . S
C2704 C2705 1.387 . S
C2704 H2708 0.950 . S
C2704 C2713 1.390 . S
C2705 C2704 1.387 . S
C2705 C2707 1.387 . S
H2706 C2713 0.950 . S
C2707 C2705 1.387 . S
C2707 C2709 1.390 . S
C2707 H2711 0.950 . S
H2708 C2704 0.950 . S
C2709 C2707 1.390 . S
C2709 C2710 1.387 . S
C2709 H2712 0.950 . S
C2710 C2709 1.387 . S
C2710 C2713 1.387 . S
H2711 C2707 0.950 . S
H2712 C2709 0.950 . S
C2713 C2704 1.390 . S
C2713 H2706 0.950 . S
C2713 C2710 1.387 . S
C2714 C2715 1.387 . S
C2714 H2718 0.950 . S
C2714 C2723 1.390 . S
C2715 C2714 1.387 . S
C2715 C2717 1.387 . S
H2716 C2723 0.950 . S
C2717 C2715 1.387 . S
C2717 C2719 1.390 . S
C2717 H2721 0.950 . S
H2718 C2714 0.950 . S
C2719 C2717 1.390 . S
C2719 C2720 1.387 . S
C2719 H2722 0.950 . S
C2720 C2719 1.387 . S
C2720 C2723 1.387 . S
H2721 C2717 0.950 . S
H2722 C2719 0.950 . S
C2723 C2714 1.390 . S
C2723 H2716 0.950 . S
C2723 C2720 1.387 . S
C2724 C2725 1.387 . S
C2724 H2728 0.950 . S
C2724 C2733 1.390 . S
C2725 C2724 1.387 . S
C2725 C2727 1.387 . S
H2726 C2733 0.950 . S
C2727 C2725 1.387 . S
C2727 C2729 1.390 . S
C2727 H2731 0.950 . S
H2728 C2724 0.950 . S
C2729 C2727 1.390 . S
C2729 C2730 1.387 . S
C2729 H2732 0.950 . S
C2730 C2729 1.387 . S
C2730 C2733 1.387 . S
H2731 C2727 0.950 . S
H2732 C2729 0.950 . S
C2733 C2724 1.390 . S
C2733 H2726 0.950 . S
C2733 C2730 1.387 . S
C2734 C2735 1.387 . S
C2734 H2738 0.950 . S
C2734 C2743 1.390 . S
C2735 C2734 1.387 . S
C2735 C2737 1.387 . S
H2736 C2743 0.950 . S
C2737 C2735 1.387 . S
C2737 C2739 1.390 . S
C2737 H2741 0.950 . S
H2738 C2734 0.950 . S
C2739 C2737 1.390 . S
C2739 C2740 1.387 . S
C2739 H2742 0.950 . S
C2740 C2739 1.387 . S
C2740 C2743 1.387 . S
H2741 C2737 0.950 . S
H2742 C2739 0.950 . S
C2743 C2734 1.390 . S
C2743 H2736 0.950 . S
C2743 C2740 1.387 . S
C2744 C2745 1.387 . S
C2744 H2748 0.950 . S
C2744 C2753 1.390 . S
C2745 C2744 1.387 . S
C2745 C2747 1.387 . S
H2746 C2753 0.950 . S
C2747 C2745 1.387 . S
C2747 C2749 1.390 . S
C2747 H2751 0.950 . S
H2748 C2744 0.950 . S
C2749 C2747 1.390 . S
C2749 C2750 1.387 . S
C2749 H2752 0.950 . S
C2750 C2749 1.387 . S
C2750 C2753 1.387 . S
H2751 C2747 0.950 . S
H2752 C2749 0.950 . S
C2753 C2744 1.390 . S
C2753 H2746 0.950 . S
C2753 C2750 1.387 . S
C2754 C2755 1.387 . S
C2754 H2758 0.950 . S
C2754 C2763 1.390 . S
C2755 C2754 1.387 . S
C2755 C2757 1.387 . S
H2756 C2763 0.950 . S
C2757 C2755 1.387 . S
C2757 C2759 1.390 . S
C2757 H2761 0.950 . S
H2758 C2754 0.950 . S
C2759 C2757 1.390 . S
C2759 C2760 1.387 . S
C2759 H2762 0.950 . S
C2760 C2759 1.387 . S
C2760 C2763 1.387 . S
H2761 C2757 0.950 . S
H2762 C2759 0.950 . S
C2763 C2754 1.390 . S
C2763 H2756 0.950 . S
C2763 C2760 1.387 . S
C2764 C2765 1.387 . S
C2764 H2768 0.950 . S
C2764 C2773 1.390 . S
C2765 C2764 1.387 . S
C2765 C2767 1.387 . S
H2766 C2773 0.950 . S
C2767 C2765 1.387 . S
C2767 C2769 1.390 . S
C2767 H2771 0.950 . S
H2768 C2764 0.950 . S
C2769 C2767 1.390 . S
C2769 C2770 1.387 . S
C2769 H2772 0.950 . S
C2770 C2769 1.387 . S
C2770 C2773 1.387 . S
H2771 C2767 0.950 . S
H2772 C2769 0.950 . S
C2773 C2764 1.390 . S
C2773 H2766 0.950 . S
C2773 C2770 1.387 . S
C2774 C2775 1.387 . S
C2774 H2778 0.950 . S
C2774 C2783 1.390 . S
C2775 C2774 1.387 . S
C2775 C2777 1.387 . S
H2776 C2783 0.950 . S
C2777 C2775 1.387 . S
C2777 C2779 1.390 . S
C2777 H2781 0.950 . S
H2778 C2774 0.950 . S
C2779 C2777 1.390 . S
C2779 C2780 1.387 . S
C2779 H2782 0.950 . S
C2780 C2779 1.387 . S
C2780 C2783 1.387 . S
H2781 C2777 0.950 . S
H2782 C2779 0.950 . S
C2783 C2774 1.390 . S
C2783 H2776 0.950 . S
C2783 C2780 1.387 . S
C2784 C2785 1.388 1_655 S
C2784 H2788 0.950 . S
C2784 C2793 1.389 . S
C2785 C2784 1.388 1_455 S
C2785 C2787 1.387 . S
H2786 C2793 0.950 . S
C2787 C2785 1.387 . S
C2787 C2789 1.390 . S
C2787 H2791 0.950 . S
H2788 C2784 0.950 . S
C2789 C2787 1.390 . S
C2789 C2790 1.387 1_455 S
C2789 H2792 0.950 . S
C2790 C2789 1.387 1_655 S
C2790 C2793 1.387 . S
H2791 C2787 0.950 . S
H2792 C2789 0.950 . S
C2793 C2784 1.389 . S
C2793 H2786 0.950 . S
C2793 C2790 1.387 . S
C2794 C2795 1.387 . S
C2794 H2798 0.950 . S
C2794 C2803 1.390 . S
C2795 C2794 1.387 . S
C2795 C2797 1.387 . S
H2796 C2803 0.950 . S
C2797 C2795 1.387 . S
C2797 C2799 1.390 . S
C2797 H2801 0.950 . S
H2798 C2794 0.950 . S
C2799 C2797 1.390 . S
C2799 C2800 1.387 . S
C2799 H2802 0.950 . S
C2800 C2799 1.387 . S
C2800 C2803 1.387 . S
H2801 C2797 0.950 . S
H2802 C2799 0.950 . S
C2803 C2794 1.390 . S
C2803 H2796 0.950 . S
C2803 C2800 1.387 . S
C2804 C2805 1.387 . S
C2804 H2808 0.950 . S
C2804 C2813 1.390 . S
C2805 C2804 1.387 . S
C2805 C2807 1.387 . S
H2806 C2813 0.950 . S
C2807 C2805 1.387 . S
C2807 C2809 1.390 . S
C2807 H2811 0.950 . S
H2808 C2804 0.950 . S
C2809 C2807 1.390 . S
C2809 C2810 1.387 . S
C2809 H2812 0.950 . S
C2810 C2809 1.387 . S
C2810 C2813 1.387 . S
H2811 C2807 0.950 . S
H2812 C2809 0.950 . S
C2813 C2804 1.390 . S
C2813 H2806 0.950 . S
C2813 C2810 1.387 . S
C2814 C2815 1.387 1_554 S
C2814 H2818 0.950 . S
C2814 C2823 1.390 . S
C2815 C2814 1.387 1_556 S
C2815 C2817 1.387 . S
H2816 C2823 0.950 . S
C2817 C2815 1.387 . S
C2817 C2819 1.390 . S
C2817 H2821 0.950 . S
H2818 C2814 0.950 . S
C2819 C2817 1.390 . S
C2819 C2820 1.387 1_556 S
C2819 H2822 0.950 . S
C2820 C2819 1.387 1_554 S
C2820 C2823 1.387 . S
H2821 C2817 0.950 . S
H2822 C2819 0.950 . S
C2823 C2814 1.390 . S
C2823 H2816 0.950 . S
C2823 C2820 1.387 . S
C2824 C2825 1.387 . S
C2824 H2828 0.950 . S
C2824 C2833 1.368 1_655 S
C2825 C2824 1.387 . S
C2825 C2827 1.387 1_655 S
H2826 C2833 0.948 1_655 S
C2827 C2825 1.387 1_455 S
C2827 C2829 1.390 . S
C2827 H2831 0.950 . S
H2828 C2824 0.950 . S
C2829 C2827 1.390 . S
C2829 C2830 1.387 . S
C2829 H2832 0.950 . S
C2830 C2829 1.387 . S
C2830 C2833 1.412 . S
H2831 C2827 0.950 . S
H2832 C2829 0.950 . S
C2833 C2824 1.368 1_455 S
C2833 H2826 0.948 1_455 S
C2833 C2830 1.412 . S
C2834 C2835 1.387 . S
C2834 H2838 0.950 . S
C2834 C2843 1.390 . S
C2835 C2834 1.387 . S
C2835 C2837 1.387 . S
H2836 C2843 0.950 . S
C2837 C2835 1.387 . S
C2837 C2839 1.390 . S
C2837 H2841 0.950 . S
H2838 C2834 0.950 . S
C2839 C2837 1.390 . S
C2839 C2840 1.387 . S
C2839 H2842 0.950 . S
C2840 C2839 1.387 . S
C2840 C2843 1.387 . S
H2841 C2837 0.950 . S
H2842 C2839 0.950 . S
C2843 C2834 1.390 . S
C2843 H2836 0.950 . S
C2843 C2840 1.387 . S
C2844 C2845 1.387 . S
C2844 H2848 0.950 . S
C2844 C2853 1.390 . S
C2845 C2844 1.387 . S
C2845 C2847 1.387 . S
H2846 C2853 0.950 . S
C2847 C2845 1.387 . S
C2847 C2849 1.390 . S
C2847 H2851 0.950 . S
H2848 C2844 0.950 . S
C2849 C2847 1.390 . S
C2849 C2850 1.387 . S
C2849 H2852 0.950 . S
C2850 C2849 1.387 . S
C2850 C2853 1.387 . S
H2851 C2847 0.950 . S
H2852 C2849 0.950 . S
C2853 C2844 1.390 . S
C2853 H2846 0.950 . S
C2853 C2850 1.387 . S
C2854 C2855 1.387 1_554 S
C2854 H2858 0.950 . S
C2854 C2863 1.390 . S
C2855 C2854 1.387 1_556 S
C2855 C2857 1.387 . S
H2856 C2863 0.950 . S
C2857 C2855 1.387 . S
C2857 C2859 1.390 . S
C2857 H2861 0.950 . S
H2858 C2854 0.950 . S
C2859 C2857 1.390 . S
C2859 C2860 1.387 1_556 S
C2859 H2862 0.950 . S
C2860 C2859 1.387 1_554 S
C2860 C2863 1.387 . S
H2861 C2857 0.950 . S
H2862 C2859 0.950 . S
C2863 C2854 1.390 . S
C2863 H2856 0.950 . S
C2863 C2860 1.387 . S
C2864 C2865 1.387 . S
C2864 H2868 0.950 . S
C2864 C2873 1.390 . S
C2865 C2864 1.387 . S
C2865 C2867 1.387 1_545 S
H2866 C2873 0.950 . S
C2867 C2865 1.387 1_565 S
C2867 C2869 1.390 . S
C2867 H2871 0.950 . S
H2868 C2864 0.950 . S
C2869 C2867 1.390 . S
C2869 C2870 1.387 . S
C2869 H2872 0.950 . S
C2870 C2869 1.387 . S
C2870 C2873 1.387 1_565 S
H2871 C2867 0.950 . S
H2872 C2869 0.950 . S
C2873 C2864 1.390 . S
C2873 H2866 0.950 . S
C2873 C2870 1.387 1_545 S
C2874 C2875 1.387 . S
C2874 H2878 0.950 . S
C2874 C2883 1.390 1_545 S
C2875 C2874 1.387 . S
C2875 C2877 1.387 1_545 S
H2876 C2883 0.950 . S
C2877 C2875 1.387 1_565 S
C2877 C2879 1.390 . S
C2877 H2881 0.950 . S
H2878 C2874 0.950 . S
C2879 C2877 1.390 . S
C2879 C2880 1.387 . S
C2879 H2882 0.950 . S
C2880 C2879 1.387 . S
C2880 C2883 1.387 . S
H2881 C2877 0.950 . S
H2882 C2879 0.950 . S
C2883 C2874 1.390 1_565 S
C2883 H2876 0.950 . S
C2883 C2880 1.387 . S
C2884 C2885 1.398 . S
C2884 H2888 0.947 1_565 S
C2884 C2893 1.381 1_565 S
C2885 C2884 1.398 . S
C2885 C2887 1.387 . S
H2886 C2893 0.950 . S
C2887 C2885 1.387 . S
C2887 C2889 1.390 . S
C2887 H2891 0.950 . S
H2888 C2884 0.947 1_545 S
C2889 C2887 1.390 . S
C2889 C2890 1.387 1_565 S
C2889 H2892 0.950 . S
C2890 C2889 1.387 1_545 S
C2890 C2893 1.387 . S
H2891 C2887 0.950 . S
H2892 C2889 0.950 . S
C2893 C2884 1.381 1_545 S
C2893 H2886 0.950 . S
C2893 C2890 1.387 . S
C2894 C2895 1.387 . S
C2894 H2898 0.950 . S
C2894 C2903 1.390 . S
C2895 C2894 1.387 . S
C2895 C2897 1.387 1_545 S
H2896 C2903 0.950 . S
C2897 C2895 1.387 1_565 S
C2897 C2899 1.390 . S
C2897 H2901 0.950 . S
H2898 C2894 0.950 . S
C2899 C2897 1.390 . S
C2899 C2900 1.387 . S
C2899 H2902 0.950 . S
C2900 C2899 1.387 . S
C2900 C2903 1.387 1_565 S
H2901 C2897 0.950 . S
H2902 C2899 0.950 . S
C2903 C2894 1.390 . S
C2903 H2896 0.950 . S
C2903 C2900 1.387 1_545 S
C2904 C2905 1.387 . S
C2904 H2908 0.950 . S
C2904 C2913 1.390 . S
C2905 C2904 1.387 . S
C2905 C2907 1.387 1_554 S
H2906 C2913 0.950 . S
C2907 C2905 1.387 1_556 S
C2907 C2909 1.390 . S
C2907 H2911 0.950 . S
H2908 C2904 0.950 . S
C2909 C2907 1.390 . S
C2909 C2910 1.387 . S
C2909 H2912 0.950 . S
C2910 C2909 1.387 . S
C2910 C2913 1.387 1_556 S
H2911 C2907 0.950 . S
H2912 C2909 0.950 . S
C2913 C2904 1.390 . S
C2913 H2906 0.950 . S
C2913 C2910 1.387 1_554 S
C2914 C2915 1.387 . S
C2914 H2918 0.950 . S
C2914 C2923 1.390 1_455 S
C2915 C2914 1.387 . S
C2915 C2917 1.387 . S
H2916 C2923 0.950 . S
C2917 C2915 1.387 . S
C2917 C2919 1.390 1_455 S
C2917 H2921 0.950 . S
H2918 C2914 0.950 . S
C2919 C2917 1.390 1_655 S
C2919 C2920 1.387 . S
C2919 H2922 0.950 . S
C2920 C2919 1.387 . S
C2920 C2923 1.387 . S
H2921 C2917 0.950 . S
H2922 C2919 0.950 . S
C2923 C2914 1.390 1_655 S
C2923 H2916 0.950 . S
C2923 C2920 1.387 . S
C2924 C2925 1.387 . S
C2924 H2928 0.950 . S
C2924 C2933 1.390 . S
C2925 C2924 1.387 . S
C2925 C2927 1.387 . S
H2926 C2933 0.950 . S
C2927 C2925 1.387 . S
C2927 C2929 1.390 . S
C2927 H2931 0.950 . S
H2928 C2924 0.950 . S
C2929 C2927 1.390 . S
C2929 C2930 1.387 . S
C2929 H2932 0.950 . S
C2930 C2929 1.387 . S
C2930 C2933 1.387 . S
H2931 C2927 0.950 . S
H2932 C2929 0.950 . S
C2933 C2924 1.390 . S
C2933 H2926 0.950 . S
C2933 C2930 1.387 . S
C2934 C2935 1.387 1_455 S
C2934 H2938 0.950 . S
C2934 C2943 1.390 . S
C2935 C2934 1.387 1_655 S
C2935 C2937 1.387 . S
H2936 C2943 0.950 . S
C2937 C2935 1.387 . S
C2937 C2939 1.390 . S
C2937 H2941 0.950 . S
H2938 C2934 0.950 . S
C2939 C2937 1.390 . S
C2939 C2940 1.387 1_655 S
C2939 H2942 0.950 . S
C2940 C2939 1.387 1_455 S
C2940 C2943 1.387 . S
H2941 C2937 0.950 . S
H2942 C2939 0.950 . S
C2943 C2934 1.390 . S
C2943 H2936 0.950 . S
C2943 C2940 1.387 . S
C2944 C2945 1.387 . S
C2944 H2948 0.950 . S
C2944 C2953 1.390 . S
C2945 C2944 1.387 . S
C2945 C2947 1.387 . S
H2946 C2953 0.950 . S
C2947 C2945 1.387 . S
C2947 C2949 1.390 . S
C2947 H2951 0.950 . S
H2948 C2944 0.950 . S
C2949 C2947 1.390 . S
C2949 C2950 1.387 . S
C2949 H2952 0.950 . S
C2950 C2949 1.387 . S
C2950 C2953 1.387 . S
H2951 C2947 0.950 . S
H2952 C2949 0.950 . S
C2953 C2944 1.390 . S
C2953 H2946 0.950 . S
C2953 C2950 1.387 . S
C2954 C2955 1.387 . S
C2954 H2958 0.950 . S
C2954 C2963 1.390 . S
C2955 C2954 1.387 . S
C2955 C2957 1.351 1_655 S
H2956 C2963 0.950 . S
C2957 C2955 1.351 1_455 S
C2957 C2959 1.421 . S
C2957 H2961 0.957 . S
H2958 C2954 0.950 . S
C2959 C2957 1.421 . S
C2959 C2960 1.387 . S
C2959 H2962 0.950 . S
C2960 C2959 1.387 . S
C2960 C2963 1.387 1_455 S
H2961 C2957 0.957 . S
H2962 C2959 0.950 . S
C2963 C2954 1.390 . S
C2963 H2956 0.950 . S
C2963 C2960 1.387 1_655 S
C2964 C2965 1.387 . S
C2964 H2968 0.950 . S
C2964 C2973 1.390 . S
C2965 C2964 1.387 . S
C2965 C2967 1.387 . S
H2966 C2973 0.950 . S
C2967 C2965 1.387 . S
C2967 C2969 1.390 . S
C2967 H2971 0.950 . S
H2968 C2964 0.950 . S
C2969 C2967 1.390 . S
C2969 C2970 1.387 . S
C2969 H2972 0.950 . S
C2970 C2969 1.387 . S
C2970 C2973 1.387 . S
H2971 C2967 0.950 . S
H2972 C2969 0.950 . S
C2973 C2964 1.390 . S
C2973 H2966 0.950 . S
C2973 C2970 1.387 . S
C2974 C2975 1.387 . S
C2974 H2978 0.950 . S
C2974 C2983 1.390 . S
C2975 C2974 1.387 . S
C2975 C2977 1.387 . S
H2976 C2983 0.950 . S
C2977 C2975 1.387 . S
C2977 C2979 1.390 . S
C2977 H2981 0.950 . S
H2978 C2974 0.950 . S
C2979 C2977 1.390 . S
C2979 C2980 1.387 . S
C2979 H2982 0.950 . S
C2980 C2979 1.387 . S
C2980 C2983 1.387 . S
H2981 C2977 0.950 . S
H2982 C2979 0.950 . S
C2983 C2974 1.390 . S
C2983 H2976 0.950 . S
C2983 C2980 1.387 . S
C2984 C2985 1.387 1_556 S
C2984 H2988 0.950 . S
C2984 C2993 1.390 . S
C2985 C2984 1.387 1_554 S
C2985 C2987 1.387 . S
H2986 C2993 0.950 . S
C2987 C2985 1.387 . S
C2987 C2989 1.390 . S
C2987 H2991 0.950 . S
H2988 C2984 0.950 . S
C2989 C2987 1.390 . S
C2989 C2990 1.387 1_554 S
C2989 H2992 0.950 . S
C2990 C2989 1.387 1_556 S
C2990 C2993 1.387 . S
H2991 C2987 0.950 . S
H2992 C2989 0.950 . S
C2993 C2984 1.390 . S
C2993 H2986 0.950 . S
C2993 C2990 1.387 . S
C2994 C2995 1.387 . S
C2994 H2998 0.950 . S
C2994 C3003 1.390 . S
C2995 C2994 1.387 . S
C2995 C2997 1.353 1_655 S
H2996 C3003 0.950 . S
C2997 C2995 1.353 1_455 S
C2997 C2999 1.420 . S
C2997 H3001 0.957 . S
H2998 C2994 0.950 . S
C2999 C2997 1.420 . S
C2999 C3000 1.387 . S
C2999 H3002 0.950 . S
C3000 C2999 1.387 . S
C3000 C3003 1.387 1_455 S
H3001 C2997 0.957 . S
H3002 C2999 0.950 . S
C3003 C2994 1.390 . S
C3003 H2996 0.950 . S
C3003 C3000 1.387 1_655 S
C3004 C3005 1.387 . S
C3004 H3008 0.950 . S
C3004 C3013 1.390 . S
C3005 C3004 1.387 . S
C3005 C3007 1.387 . S
H3006 C3013 0.950 . S
C3007 C3005 1.387 . S
C3007 C3009 1.390 . S
C3007 H3011 0.950 . S
H3008 C3004 0.950 . S
C3009 C3007 1.390 . S
C3009 C3010 1.387 . S
C3009 H3012 0.950 . S
C3010 C3009 1.387 . S
C3010 C3013 1.387 . S
H3011 C3007 0.950 . S
H3012 C3009 0.950 . S
C3013 C3004 1.390 . S
C3013 H3006 0.950 . S
C3013 C3010 1.387 . S
C3014 C3015 1.387 . S
C3014 H3018 0.950 . S
C3014 C3023 1.390 . S
C3015 C3014 1.387 . S
C3015 C3017 1.387 . S
H3016 C3023 0.950 . S
C3017 C3015 1.387 . S
C3017 C3019 1.390 . S
C3017 H3021 0.950 . S
H3018 C3014 0.950 . S
C3019 C3017 1.390 . S
C3019 C3020 1.387 . S
C3019 H3022 0.950 . S
C3020 C3019 1.387 . S
C3020 C3023 1.387 . S
H3021 C3017 0.950 . S
H3022 C3019 0.950 . S
C3023 C3014 1.390 . S
C3023 H3016 0.950 . S
C3023 C3020 1.387 . S
C3024 C3025 1.387 . S
C3024 H3028 0.950 . S
C3024 C3033 1.390 . S
C3025 C3024 1.387 . S
C3025 C3027 1.387 1_554 S
H3026 C3033 0.950 . S
C3027 C3025 1.387 1_556 S
C3027 C3029 1.390 . S
C3027 H3031 0.950 . S
H3028 C3024 0.950 . S
C3029 C3027 1.390 . S
C3029 C3030 1.387 . S
C3029 H3032 0.950 . S
C3030 C3029 1.387 . S
C3030 C3033 1.387 1_556 S
H3031 C3027 0.950 . S
H3032 C3029 0.950 . S
C3033 C3024 1.390 . S
C3033 H3026 0.950 . S
C3033 C3030 1.387 1_554 S
C3034 C3035 1.387 . S
C3034 H3038 0.950 . S
C3034 C3043 1.390 1_565 S
C3035 C3034 1.387 . S
C3035 C3037 1.387 . S
H3036 C3043 0.950 . S
C3037 C3035 1.387 . S
C3037 C3039 1.390 1_565 S
C3037 H3041 0.950 . S
H3038 C3034 0.950 . S
C3039 C3037 1.390 1_545 S
C3039 C3040 1.387 . S
C3039 H3042 0.950 . S
C3040 C3039 1.387 . S
C3040 C3043 1.387 . S
H3041 C3037 0.950 . S
H3042 C3039 0.950 . S
C3043 C3034 1.390 1_545 S
C3043 H3036 0.950 . S
C3043 C3040 1.387 . S
C3044 C3045 1.387 1_545 S
C3044 H3048 0.950 . S
C3044 C3053 1.390 . S
C3045 C3044 1.387 1_565 S
C3045 C3047 1.387 . S
H3046 C3053 0.950 . S
C3047 C3045 1.387 . S
C3047 C3049 1.390 . S
C3047 H3051 0.950 . S
H3048 C3044 0.950 . S
C3049 C3047 1.390 . S
C3049 C3050 1.387 1_565 S
C3049 H3052 0.950 . S
C3050 C3049 1.387 1_545 S
C3050 C3053 1.387 . S
H3051 C3047 0.950 . S
H3052 C3049 0.950 . S
C3053 C3044 1.390 . S
C3053 H3046 0.950 . S
C3053 C3050 1.387 . S
C3054 C3055 1.387 . S
C3054 H3058 0.950 . S
C3054 C3063 1.390 1_565 S
C3055 C3054 1.387 . S
C3055 C3057 1.387 . S
H3056 C3063 0.950 . S
C3057 C3055 1.387 . S
C3057 C3059 1.390 1_565 S
C3057 H3061 0.950 . S
H3058 C3054 0.950 . S
C3059 C3057 1.390 1_545 S
C3059 C3060 1.387 . S
C3059 H3062 0.950 . S
C3060 C3059 1.387 . S
C3060 C3063 1.387 . S
H3061 C3057 0.950 . S
H3062 C3059 0.950 . S
C3063 C3054 1.390 1_545 S
C3063 H3056 0.950 . S
C3063 C3060 1.387 . S
C3064 C3065 1.387 . S
C3064 H3068 0.950 . S
C3064 C3073 1.390 . S
C3065 C3064 1.387 . S
C3065 C3067 1.387 1_545 S
H3066 C3073 0.950 . S
C3067 C3065 1.387 1_565 S
C3067 C3069 1.390 . S
C3067 H3071 0.950 . S
H3068 C3064 0.950 . S
C3069 C3067 1.390 . S
C3069 C3070 1.387 . S
C3069 H3072 0.950 . S
C3070 C3069 1.387 . S
C3070 C3073 1.387 1_565 S
H3071 C3067 0.950 . S
H3072 C3069 0.950 . S
C3073 C3064 1.390 . S
C3073 H3066 0.950 . S
C3073 C3070 1.387 1_545 S
C3074 C3075 1.387 1_554 S
C3074 H3078 0.950 . S
C3074 C3083 1.390 . S
C3075 C3074 1.387 1_556 S
C3075 C3077 1.387 . S
H3076 C3083 0.950 . S
C3077 C3075 1.387 . S
C3077 C3079 1.395 . S
C3077 H3081 0.950 . S
H3078 C3074 0.950 . S
C3079 C3077 1.395 . S
C3079 C3080 1.382 1_556 S
C3079 H3082 0.950 . S
C3080 C3079 1.382 1_554 S
C3080 C3083 1.387 . S
H3081 C3077 0.950 . S
H3082 C3079 0.950 . S
C3083 C3074 1.390 . S
C3083 H3076 0.950 . S
C3083 C3080 1.387 . S
C3084 C3085 1.387 . S
C3084 H3088 0.950 . S
C3084 C3093 1.390 1_655 S
C3085 C3084 1.387 . S
C3085 C3087 1.387 . S
H3086 C3093 0.950 . S
C3087 C3085 1.387 . S
C3087 C3089 1.390 1_655 S
C3087 H3091 0.950 . S
H3088 C3084 0.950 . S
C3089 C3087 1.390 1_455 S
C3089 C3090 1.387 . S
C3089 H3092 0.950 . S
C3090 C3089 1.387 . S
C3090 C3093 1.387 . S
H3091 C3087 0.950 . S
H3092 C3089 0.950 . S
C3093 C3084 1.390 1_455 S
C3093 H3086 0.950 . S
C3093 C3090 1.387 . S
C3094 C3095 1.387 . S
C3094 H3098 0.950 . S
C3094 C3103 1.390 . S
C3095 C3094 1.387 . S
C3095 C3097 1.387 . S
H3096 C3103 0.950 . S
C3097 C3095 1.387 . S
C3097 C3099 1.390 . S
C3097 H3101 0.950 . S
H3098 C3094 0.950 . S
C3099 C3097 1.390 . S
C3099 C3100 1.387 . S
C3099 H3102 0.950 . S
C3100 C3099 1.387 . S
C3100 C3103 1.387 . S
H3101 C3097 0.950 . S
H3102 C3099 0.950 . S
C3103 C3094 1.390 . S
C3103 H3096 0.950 . S
C3103 C3100 1.387 . S
C3104 C3105 1.387 1_455 S
C3104 H3108 0.950 . S
C3104 C3113 1.390 . S
C3105 C3104 1.387 1_655 S
C3105 C3107 1.387 . S
H3106 C3113 0.950 . S
C3107 C3105 1.387 . S
C3107 C3109 1.390 . S
C3107 H3111 0.950 . S
H3108 C3104 0.950 . S
C3109 C3107 1.390 . S
C3109 C3110 1.387 1_655 S
C3109 H3112 0.950 . S
C3110 C3109 1.387 1_455 S
C3110 C3113 1.387 . S
H3111 C3107 0.950 . S
H3112 C3109 0.950 . S
C3113 C3104 1.390 . S
C3113 H3106 0.950 . S
C3113 C3110 1.387 . S
C3114 C3115 1.387 . S
C3114 H3118 0.950 . S
C3114 C3123 1.390 . S
C3115 C3114 1.387 . S
C3115 C3117 1.387 . S
H3116 C3123 0.950 . S
C3117 C3115 1.387 . S
C3117 C3119 1.390 . S
C3117 H3121 0.950 . S
H3118 C3114 0.950 . S
C3119 C3117 1.390 . S
C3119 C3120 1.387 . S
C3119 H3122 0.950 . S
C3120 C3119 1.387 . S
C3120 C3123 1.387 . S
H3121 C3117 0.950 . S
H3122 C3119 0.950 . S
C3123 C3114 1.390 . S
C3123 H3116 0.950 . S
C3123 C3120 1.387 . S
C3124 C3125 1.387 . S
C3124 H3128 0.950 . S
C3124 C3133 1.390 . S
C3125 C3124 1.387 . S
C3125 C3127 1.387 . S
H3126 C3133 0.950 . S
C3127 C3125 1.387 . S
C3127 C3129 1.390 . S
C3127 H3131 0.950 . S
H3128 C3124 0.950 . S
C3129 C3127 1.390 . S
C3129 C3130 1.387 . S
C3129 H3132 0.950 . S
C3130 C3129 1.387 . S
C3130 C3133 1.387 . S
H3131 C3127 0.950 . S
H3132 C3129 0.950 . S
C3133 C3124 1.390 . S
C3133 H3126 0.950 . S
C3133 C3130 1.387 . S
C3134 C3135 1.387 1_554 S
C3134 H3138 0.950 . S
C3134 C3143 1.390 . S
C3135 C3134 1.387 1_556 S
C3135 C3137 1.387 . S
H3136 C3143 0.950 . S
C3137 C3135 1.387 . S
C3137 C3139 1.390 . S
C3137 H3141 0.950 . S
H3138 C3134 0.950 . S
C3139 C3137 1.390 . S
C3139 C3140 1.387 1_556 S
C3139 H3142 0.950 . S
C3140 C3139 1.387 1_554 S
C3140 C3143 1.387 . S
H3141 C3137 0.950 . S
H3142 C3139 0.950 . S
C3143 C3134 1.390 . S
C3143 H3136 0.950 . S
C3143 C3140 1.387 . S
C3144 C3145 1.387 . S
C3144 H3148 0.950 . S
C3144 C3153 1.390 . S
C3145 C3144 1.387 . S
C3145 C3147 1.387 . S
H3146 C3153 0.950 . S
C3147 C3145 1.387 . S
C3147 C3149 1.390 . S
C3147 H3151 0.950 . S
H3148 C3144 0.950 . S
C3149 C3147 1.390 . S
C3149 C3150 1.387 . S
C3149 H3152 0.950 . S
C3150 C3149 1.387 . S
C3150 C3153 1.387 . S
H3151 C3147 0.950 . S
H3152 C3149 0.950 . S
C3153 C3144 1.390 . S
C3153 H3146 0.950 . S
C3153 C3150 1.387 . S
C3154 C3155 1.387 . S
C3154 H3158 0.950 . S
C3154 C3163 1.390 . S
C3155 C3154 1.387 . S
C3155 C3157 1.387 . S
H3156 C3163 0.950 . S
C3157 C3155 1.387 . S
C3157 C3159 1.390 . S
C3157 H3161 0.950 . S
H3158 C3154 0.950 . S
C3159 C3157 1.390 . S
C3159 C3160 1.387 . S
C3159 H3162 0.950 . S
C3160 C3159 1.387 . S
C3160 C3163 1.387 . S
H3161 C3157 0.950 . S
H3162 C3159 0.950 . S
C3163 C3154 1.390 . S
C3163 H3156 0.950 . S
C3163 C3160 1.387 . S
C3164 C3165 1.387 . S
C3164 H3168 0.950 . S
C3164 C3173 1.390 . S
C3165 C3164 1.387 . S
C3165 C3167 1.387 . S
H3166 C3173 0.950 . S
C3167 C3165 1.387 . S
C3167 C3169 1.390 . S
C3167 H3171 0.950 . S
H3168 C3164 0.950 . S
C3169 C3167 1.390 . S
C3169 C3170 1.387 . S
C3169 H3172 0.950 . S
C3170 C3169 1.387 . S
C3170 C3173 1.387 . S
H3171 C3167 0.950 . S
H3172 C3169 0.950 . S
C3173 C3164 1.390 . S
C3173 H3166 0.950 . S
C3173 C3170 1.387 . S
C3174 C3175 1.387 . S
C3174 H3178 0.950 . S
C3174 C3183 1.390 . S
C3175 C3174 1.387 . S
C3175 C3177 1.387 . S
H3176 C3183 0.950 . S
C3177 C3175 1.387 . S
C3177 C3179 1.390 . S
C3177 H3181 0.950 . S
H3178 C3174 0.950 . S
C3179 C3177 1.390 . S
C3179 C3180 1.387 . S
C3179 H3182 0.950 . S
C3180 C3179 1.387 . S
C3180 C3183 1.387 . S
H3181 C3177 0.950 . S
H3182 C3179 0.950 . S
C3183 C3174 1.390 . S
C3183 H3176 0.950 . S
C3183 C3180 1.387 . S
C3184 C3185 1.387 . S
C3184 H3188 0.950 . S
C3184 C3193 1.390 . S
C3185 C3184 1.387 . S
C3185 C3187 1.387 . S
H3186 C3193 0.950 . S
C3187 C3185 1.387 . S
C3187 C3189 1.390 . S
C3187 H3191 0.950 . S
H3188 C3184 0.950 . S
C3189 C3187 1.390 . S
C3189 C3190 1.387 . S
C3189 H3192 0.950 . S
C3190 C3189 1.387 . S
C3190 C3193 1.387 . S
H3191 C3187 0.950 . S
H3192 C3189 0.950 . S
C3193 C3184 1.390 . S
C3193 H3186 0.950 . S
C3193 C3190 1.387 . S
C3194 C3195 1.387 . S
C3194 H3198 0.950 . S
C3194 C3203 1.390 . S
C3195 C3194 1.387 . S
C3195 C3197 1.387 . S
H3196 C3203 0.950 . S
C3197 C3195 1.387 . S
C3197 C3199 1.390 . S
C3197 H3201 0.950 . S
H3198 C3194 0.950 . S
C3199 C3197 1.390 . S
C3199 C3200 1.387 . S
C3199 H3202 0.950 . S
C3200 C3199 1.387 . S
C3200 C3203 1.387 . S
H3201 C3197 0.950 . S
H3202 C3199 0.950 . S
C3203 C3194 1.390 . S
C3203 H3196 0.950 . S
C3203 C3200 1.387 . S
C3204 C3205 1.387 1_556 S
C3204 H3208 0.950 . S
C3204 C3213 1.390 . S
C3205 C3204 1.387 1_554 S
C3205 C3207 1.387 . S
H3206 C3213 0.950 . S
C3207 C3205 1.387 . S
C3207 C3209 1.390 . S
C3207 H3211 0.950 . S
H3208 C3204 0.950 . S
C3209 C3207 1.390 . S
C3209 C3210 1.387 1_554 S
C3209 H3212 0.950 . S
C3210 C3209 1.387 1_556 S
C3210 C3213 1.387 . S
H3211 C3207 0.950 . S
H3212 C3209 0.950 . S
C3213 C3204 1.390 . S
C3213 H3206 0.950 . S
C3213 C3210 1.387 . S
C3214 C3215 1.387 . S
C3214 H3218 0.950 . S
C3214 C3223 1.390 . S
C3215 C3214 1.387 . S
C3215 C3217 1.387 . S
H3216 C3223 0.950 . S
C3217 C3215 1.387 . S
C3217 C3219 1.390 . S
C3217 H3221 0.950 . S
H3218 C3214 0.950 . S
C3219 C3217 1.390 . S
C3219 C3220 1.387 . S
C3219 H3222 0.950 . S
C3220 C3219 1.387 . S
C3220 C3223 1.387 . S
H3221 C3217 0.950 . S
H3222 C3219 0.950 . S
C3223 C3214 1.390 . S
C3223 H3216 0.950 . S
C3223 C3220 1.387 . S
C3224 C3225 1.387 . S
C3224 H3228 0.950 . S
C3224 C3233 1.390 . S
C3225 C3224 1.387 . S
C3225 C3227 1.387 . S
H3226 C3233 0.950 . S
C3227 C3225 1.387 . S
C3227 C3229 1.390 . S
C3227 H3231 0.950 . S
H3228 C3224 0.950 . S
C3229 C3227 1.390 . S
C3229 C3230 1.387 . S
C3229 H3232 0.950 . S
C3230 C3229 1.387 . S
C3230 C3233 1.387 . S
H3231 C3227 0.950 . S
H3232 C3229 0.950 . S
C3233 C3224 1.390 . S
C3233 H3226 0.950 . S
C3233 C3230 1.387 . S
C3234 C3235 1.387 . S
C3234 H3238 0.950 . S
C3234 C3243 1.390 . S
C3235 C3234 1.387 . S
C3235 C3237 1.387 . S
H3236 C3243 0.950 . S
C3237 C3235 1.387 . S
C3237 C3239 1.390 . S
C3237 H3241 0.950 . S
H3238 C3234 0.950 . S
C3239 C3237 1.390 . S
C3239 C3240 1.387 . S
C3239 H3242 0.950 . S
C3240 C3239 1.387 . S
C3240 C3243 1.387 . S
H3241 C3237 0.950 . S
H3242 C3239 0.950 . S
C3243 C3234 1.390 . S
C3243 H3236 0.950 . S
C3243 C3240 1.387 . S
C3244 C3245 1.387 . S
C3244 H3248 0.950 . S
C3244 C3253 1.390 . S
C3245 C3244 1.387 . S
C3245 C3247 1.387 . S
H3246 C3253 0.950 . S
C3247 C3245 1.387 . S
C3247 C3249 1.390 . S
C3247 H3251 0.950 . S
H3248 C3244 0.950 . S
C3249 C3247 1.390 . S
C3249 C3250 1.387 . S
C3249 H3252 0.950 . S
C3250 C3249 1.387 . S
C3250 C3253 1.387 . S
H3251 C3247 0.950 . S
H3252 C3249 0.950 . S
C3253 C3244 1.390 . S
C3253 H3246 0.950 . S
C3253 C3250 1.387 . S
C3254 C3255 1.387 . S
C3254 H3258 0.950 . S
C3254 C3263 1.390 . S
C3255 C3254 1.387 . S
C3255 C3257 1.387 . S
H3256 C3263 0.950 . S
C3257 C3255 1.387 . S
C3257 C3259 1.390 . S
C3257 H3261 0.950 . S
H3258 C3254 0.950 . S
C3259 C3257 1.390 . S
C3259 C3260 1.387 . S
C3259 H3262 0.950 . S
C3260 C3259 1.387 . S
C3260 C3263 1.387 . S
H3261 C3257 0.950 . S
H3262 C3259 0.950 . S
C3263 C3254 1.390 . S
C3263 H3256 0.950 . S
C3263 C3260 1.387 . S
C1345 C13 1.353 . S
C1350 C1058 1.351 . S
C1355 C344 1.334 1_455 S
C1360 C27 1.355 . S
C1365 C1030 1.351 . S
C1370 C41 1.353 . S
C1375 C372 1.348 . S
C1380 C55 1.354 . S
C1385 C69 1.356 . S
C1390 C1086 1.346 . S
C1395 C83 1.354 . S
C1400 C428 1.348 . S
C1405 C1114 1.346 . S
C1410 C97 1.356 . S
C1415 C111 1.355 . S
C1420 C400 1.330 1_455 S
C1425 C125 1.356 . S
C1430 C1268 1.346 . S
C1435 C610 1.347 . S
C1440 C139 1.357 . S
C1445 C153 1.356 . S
C1450 C624 1.350 . S
C1455 C167 1.357 . S
C1460 C582 1.329 1_556 S
C1465 C181 1.356 . S
C1470 C1324 1.350 . S
C1475 C195 1.357 . S
C1480 C1240 1.347 . S
C1485 C209 1.354 . S
C1490 C1338 1.348 . S
C1495 C223 1.353 . S
C1500 C1310 1.335 1_554 S
C1505 C1142 1.350 . S
C1510 C237 1.356 . S
C1515 C251 1.354 . S
C1520 C554 1.351 . S
C1525 C265 1.354 . S
C1530 C1184 1.348 . S
C1535 C526 1.347 . S
C1540 C279 1.355 . S
C1545 C293 1.352 . S
C1550 C540 1.334 1_545 S
C1555 C1170 1.347 . S
C1560 C307 1.354 . S
C1565 C321 1.356 . S
C1570 C1128 1.349 . S
C1575 C1156 1.348 . S
C1580 C335 1.353 . S
C1585 C722 1.349 . S
C1590 C349 1.356 . S
C1595 C8 1.330 1_655 S
C1600 C363 1.355 . S
C1605 C377 1.354 . S
C1610 C694 1.348 . S
C1615 C391 1.355 . S
C1620 C36 1.350 . S
C1625 C405 1.357 . S
C1630 C750 1.347 . S
C1635 C92 1.347 . S
C1640 C419 1.356 . S
C1645 C433 1.357 . S
C1650 C778 1.347 . S
C1655 C447 1.354 . S
C1660 C64 1.334 1_655 S
C1665 C461 1.356 . S
C1670 C932 1.349 . S
C1675 C274 1.347 . S
C1680 C475 1.355 . S
C1685 C489 1.354 . S
C1690 C288 1.348 . S
C1695 C246 1.334 1_554 S
C1700 C503 1.352 . S
C1705 C517 1.356 . S
C1710 C988 1.349 . S
C1715 C531 1.355 . S
C1720 C904 1.350 . S
C1725 C545 1.357 . S
C1730 C1002 1.348 . S
C1735 C974 1.332 1_556 S
C1740 C559 1.356 . S
C1745 C806 1.350 . S
C1750 C573 1.355 . S
C1755 C218 1.347 . S
C1760 C587 1.354 . S
C1765 C848 1.349 . S
C1770 C601 1.356 . S
C1775 C615 1.354 . S
C1780 C190 1.347 . S
C1785 C629 1.353 . S
C1790 C204 1.335 1_565 S
C1795 C643 1.355 . S
C1800 C834 1.350 . S
C1805 C792 1.348 . S
C1810 C657 1.354 . S
C1815 C671 1.356 . S
C1820 C820 1.349 . S
C1825 C386 1.351 . S
C1830 C685 1.354 . S
C1835 C1016 1.348 . S
C1840 C699 1.353 . S
C1845 C713 1.357 . S
C1850 C358 1.347 . S
C1855 C1044 1.330 1_655 S
C1860 C727 1.355 . S
C1865 C741 1.357 . S
C1870 C414 1.347 . S
C1875 C1100 1.330 1_655 S
C1880 C755 1.355 . S
C1885 C769 1.352 . S
C1890 C442 1.350 . S
C1895 C1072 1.347 . S
C1900 C783 1.354 . S
C1905 C596 1.348 . S
C1910 C797 1.353 . S
C1915 C811 1.355 . S
C1920 C1282 1.333 1_556 S
C1925 C1296 1.348 . S
C1930 C825 1.353 . S
C1935 C839 1.357 . S
C1940 C1254 1.347 . S
C1945 C652 1.350 . S
C1950 C853 1.355 . S
C1955 C867 1.356 . S
C1960 C568 1.332 1_554 S
C1965 C666 1.349 . S
C1970 C881 1.356 . S
C1975 C638 1.346 . S
C1980 C895 1.356 . S
C1985 C470 1.350 . S
C1990 C909 1.355 . S
C1995 C1226 1.348 . S
C2000 C923 1.354 . S
C2005 C937 1.354 . S
C2010 C512 1.334 1_565 S
C2015 C951 1.356 . S
C2020 C1198 1.350 . S
C2025 C1212 1.350 . S
C2030 C965 1.356 . S
C2035 C498 1.349 . S
C2040 C979 1.353 . S
C2045 C456 1.335 1_545 S
C2050 C993 1.353 . S
C2055 C484 1.329 1_565 S
C2060 C1007 1.357 . S
C2065 C1021 1.357 . S
C2070 C50 1.346 . S
C2075 C1035 1.356 . S
C2080 C680 1.346 . S
C2085 C1049 1.352 . S
C2090 C22 1.350 . S
C2095 C1063 1.354 . S
C2100 C708 1.334 1_455 S
C2105 C78 1.348 . S
C2110 C1077 1.357 . S
C2115 C764 1.334 1_455 S
C2120 C1091 1.354 . S
C2125 C106 1.351 . S
C2130 C1105 1.354 . S
C2135 C736 1.350 . S
C2140 C1119 1.355 . S
C2145 C1133 1.356 . S
C2150 C260 1.347 . S
C2155 C946 1.331 1_554 S
C2160 C1147 1.354 . S
C2165 C1161 1.357 . S
C2170 C960 1.349 . S
C2175 C1175 1.355 . S
C2180 C918 1.347 . S
C2185 C316 1.348 . S
C2190 C1189 1.353 . S
C2195 C232 1.330 1_556 S
C2200 C1203 1.357 . S
C2205 C1217 1.353 . S
C2210 C330 1.349 . S
C2215 C302 1.351 . S
C2220 C1231 1.353 . S
C2225 C1245 1.355 . S
C2230 C134 1.350 . S
C2235 C1259 1.355 . S
C2240 C890 1.350 . S
C2245 C176 1.330 1_545 S
C2250 C1273 1.356 . S
C2255 C1287 1.356 . S
C2260 C862 1.350 . S
C2265 C876 1.350 . S
C2270 C1301 1.356 . S
C2275 C1315 1.355 . S
C2280 C162 1.350 . S
C2285 C1329 1.353 . S
C2290 C120 1.335 1_565 S
C2295 C1343 1.357 . S
C2300 C148 1.329 1_545 S
C2305 C11 1.111 . S
C2310 C137 1.111 . S
C2315 C25 1.111 . S
C2320 C151 1.112 . S
C2325 C165 1.112 . S
C2330 C39 1.112 . S
C2335 C53 1.111 . S
C2340 C123 1.111 . S
C2345 C221 1.112 . S
C2350 C67 1.112 . S
C2355 C81 1.111 . S
C2360 C179 1.111 . S
C2365 C95 1.111 . S
C2370 C193 1.111 . S
C2375 C207 1.111 . S
C2380 C109 1.111 . S
C2385 C263 1.111 . S
C2390 C235 1.111 . S
C2395 C249 1.111 . S
C2400 C991 1.111 . S
C2405 C1005 1.112 . S
C2410 C277 1.112 . S
C2415 C291 1.112 . S
C2420 C977 1.112 . S
C2425 C963 1.111 . S
C2430 C305 1.111 . S
C2435 C319 1.112 . S
C2440 C921 1.112 . S
C2445 C333 1.111 . S
C2450 C949 1.111 . S
C2455 C347 1.111 . S
C2460 C473 1.111 . S
C2465 C487 1.112 . S
C2470 C361 1.111 . S
C2475 C501 1.112 . S
C2480 C375 1.112 . S
C2485 C389 1.112 . S
C2490 C459 1.112 . S
C2495 C557 1.111 . S
C2500 C403 1.111 . S
C2505 C417 1.111 . S
C2510 C515 1.111 . S
C2515 C529 1.112 . S
C2520 C431 1.112 . S
C2525 C445 1.112 . S
C2530 C543 1.111 . S
C2535 C599 1.111 . S
C2540 C571 1.112 . S
C2545 C585 1.112 . S
C2550 C1327 1.112 . S
C2555 C613 1.112 . S
C2560 C1341 1.111 . S
C2565 C1313 1.112 . S
C2570 C627 1.112 . S
C2575 C1299 1.111 . S
C2580 C641 1.111 . S
C2585 C1257 1.111 . S
C2590 C655 1.111 . S
C2595 C1285 1.111 . S
C2600 C669 1.111 . S
C2605 C809 1.111 . S
C2610 C683 1.111 . S
C2615 C823 1.112 . S
C2620 C697 1.112 . S
C2625 C837 1.112 . S
C2630 C711 1.111 . S
C2635 C725 1.111 . S
C2640 C795 1.111 . S
C2645 C739 1.111 . S
C2650 C893 1.111 . S
C2655 C753 1.111 . S
C2660 C851 1.111 . S
C2665 C767 1.112 . S
C2670 C865 1.112 . S
C2675 C781 1.112 . S
C2680 C879 1.112 . S
C2685 C935 1.112 . S
C2690 C907 1.111 . S
C2695 C1145 1.112 . S
C2700 C1019 1.112 . S
C2705 C1033 1.112 . S
C2710 C1159 1.111 . S
C2715 C1173 1.112 . S
C2720 C1047 1.111 . S
C2725 C1131 1.112 . S
C2730 C1061 1.112 . S
C2735 C1229 1.111 . S
C2740 C1075 1.111 . S
C2745 C1187 1.112 . S
C2750 C1089 1.112 . S
C2755 C1201 1.111 . S
C2760 C1103 1.111 . S
C2765 C1215 1.111 . S
C2770 C1117 1.111 . S
C2775 C1271 1.111 . S
C2780 C1243 1.111 . S
C2785 C7 1.690 . S
C2790 C287 1.692 . S
C2795 C917 1.690 . S
C2800 C21 1.691 . S
C2805 C931 1.692 . S
C2810 C35 1.690 . S
C2815 C945 1.691 . S
C2820 C49 1.691 . S
C2825 C1001 1.690 . S
C2830 C63 1.691 . S
C2835 C77 1.691 . S
C2840 C301 1.691 . S
C2845 C91 1.691 . S
C2850 C987 1.690 . S
C2855 C105 1.691 . S
C2860 C231 1.691 . S
C2865 C119 1.692 . S
C2870 C217 1.690 . S
C2875 C133 1.692 . S
C2880 C175 1.690 . S
C2885 C147 1.690 . S
C2890 C189 1.692 . S
C2895 C203 1.692 . S
C2900 C161 1.690 . S
C2905 C693 1.690 . S
C2910 C245 1.691 . S
C2915 C259 1.690 . S
C2920 C707 1.692 . S
C2925 C273 1.691 . S
C2930 C721 1.691 . S
C2935 C763 1.691 . S
C2940 C315 1.691 . S
C2945 C329 1.692 . S
C2950 C735 1.690 . S
C2955 C343 1.690 . S
C2960 C623 1.692 . S
C2965 C1253 1.691 . S
C2970 C357 1.690 . S
C2975 C1267 1.691 . S
C2980 C371 1.690 . S
C2985 C1281 1.691 . S
C2990 C385 1.691 . S
C2995 C399 1.691 . S
C3000 C1337 1.690 . S
C3005 C413 1.691 . S
C3010 C637 1.691 . S
C3015 C427 1.692 . S
C3020 C1323 1.690 . S
C3025 C441 1.691 . S
C3030 C567 1.691 . S
C3035 C455 1.692 . S
C3040 C553 1.690 . S
C3045 C469 1.692 . S
C3050 C511 1.690 . S
C3055 C525 1.692 . S
C3060 C483 1.690 . S
C3065 C497 1.691 . S
C3070 C539 1.691 . S
C3075 C1029 1.690 . S
C3080 C581 1.691 . S
C3085 C595 1.690 . S
C3090 C1043 1.692 . S
C3095 C1057 1.690 . S
C3100 C609 1.691 . S
C3105 C651 1.692 . S
C3110 C1099 1.690 . S
C3115 C1071 1.692 . S
C3120 C665 1.690 . S
C3125 C679 1.692 . S
C3130 C959 1.690 . S
C3135 C749 1.690 . S
C3140 C973 1.691 . S
C3145 C777 1.691 . S
C3150 C903 1.691 . S
C3155 C889 1.691 . S
C3160 C791 1.690 . S
C3165 C805 1.691 . S
C3170 C847 1.690 . S
C3175 C861 1.692 . S
C3180 C819 1.690 . S
C3185 C833 1.692 . S
C3190 C875 1.690 . S
C3195 C1295 1.690 . S
C3200 C1015 1.692 . S
C3205 C1085 1.690 . S
C3210 C1309 1.691 . S
C3215 C1113 1.690 . S
C3220 C1239 1.691 . S
C3225 C1225 1.691 . S
C3230 C1127 1.690 . S
C3235 C1183 1.692 . S
C3240 C1141 1.690 . S
C3245 C1155 1.692 . S
C3250 C1197 1.690 . S
C3255 C1169 1.692 . S
C3260 C1211 1.690 . S
