# Generated by pormake.
# Topology lcs-e, (6)-cn, num edge types: 1
# Building blocks:
#     Node 0, Type 0, BuildingBlock: PAMTUU_clean_sbu_0, # of connection points: 6
#     Node 1, Type 0, BuildingBlock: PAMTUU_clean_sbu_0, # of connection points: 6
#     Node 2, Type 0, BuildingBlock: PAMTUU_clean_sbu_0, # of connection points: 6
#     Node 3, Type 0, BuildingBlock: PAMTUU_clean_sbu_0, # of connection points: 6
#     Node 4, Type 0, BuildingBlock: PAMTUU_clean_sbu_0, # of connection points: 6
#     Node 5, Type 0, BuildingBlock: PAMTUU_clean_sbu_0, # of connection points: 6
#     Node 6, Type 0, BuildingBlock: PAMTUU_clean_sbu_0, # of connection points: 6
#     Node 7, Type 0, BuildingBlock: PAMTUU_clean_sbu_0, # of connection points: 6
#     Node 8, Type 0, BuildingBlock: PAMTUU_clean_sbu_0, # of connection points: 6
#     Node 9, Type 0, BuildingBlock: PAMTUU_clean_sbu_0, # of connection points: 6
#     Node 10, Type 0, BuildingBlock: PAMTUU_clean_sbu_0, # of connection points: 6
#     Node 11, Type 0, BuildingBlock: PAMTUU_clean_sbu_0, # of connection points: 6
#     Node 12, Type 0, BuildingBlock: PAMTUU_clean_sbu_0, # of connection points: 6
#     Node 13, Type 0, BuildingBlock: PAMTUU_clean_sbu_0, # of connection points: 6
#     Node 14, Type 0, BuildingBlock: PAMTUU_clean_sbu_0, # of connection points: 6
#     Node 15, Type 0, BuildingBlock: PAMTUU_clean_sbu_0, # of connection points: 6
#     Node 16, Type 0, BuildingBlock: PAMTUU_clean_sbu_0, # of connection points: 6
#     Node 17, Type 0, BuildingBlock: PAMTUU_clean_sbu_0, # of connection points: 6
#     Node 18, Type 0, BuildingBlock: PAMTUU_clean_sbu_0, # of connection points: 6
#     Node 19, Type 0, BuildingBlock: PAMTUU_clean_sbu_0, # of connection points: 6
#     Node 20, Type 0, BuildingBlock: PAMTUU_clean_sbu_0, # of connection points: 6
#     Node 21, Type 0, BuildingBlock: PAMTUU_clean_sbu_0, # of connection points: 6
#     Node 22, Type 0, BuildingBlock: PAMTUU_clean_sbu_0, # of connection points: 6
#     Node 23, Type 0, BuildingBlock: PAMTUU_clean_sbu_0, # of connection points: 6
#     Node 24, Type 0, BuildingBlock: PAMTUU_clean_sbu_0, # of connection points: 6
#     Node 25, Type 0, BuildingBlock: PAMTUU_clean_sbu_0, # of connection points: 6
#     Node 26, Type 0, BuildingBlock: PAMTUU_clean_sbu_0, # of connection points: 6
#     Node 27, Type 0, BuildingBlock: PAMTUU_clean_sbu_0, # of connection points: 6
#     Node 28, Type 0, BuildingBlock: PAMTUU_clean_sbu_0, # of connection points: 6
#     Node 29, Type 0, BuildingBlock: PAMTUU_clean_sbu_0, # of connection points: 6
#     Node 30, Type 0, BuildingBlock: PAMTUU_clean_sbu_0, # of connection points: 6
#     Node 31, Type 0, BuildingBlock: PAMTUU_clean_sbu_0, # of connection points: 6
#     Node 32, Type 0, BuildingBlock: PAMTUU_clean_sbu_0, # of connection points: 6
#     Node 33, Type 0, BuildingBlock: PAMTUU_clean_sbu_0, # of connection points: 6
#     Node 34, Type 0, BuildingBlock: PAMTUU_clean_sbu_0, # of connection points: 6
#     Node 35, Type 0, BuildingBlock: PAMTUU_clean_sbu_0, # of connection points: 6
#     Node 36, Type 0, BuildingBlock: PAMTUU_clean_sbu_0, # of connection points: 6
#     Node 37, Type 0, BuildingBlock: PAMTUU_clean_sbu_0, # of connection points: 6
#     Node 38, Type 0, BuildingBlock: PAMTUU_clean_sbu_0, # of connection points: 6
#     Node 39, Type 0, BuildingBlock: PAMTUU_clean_sbu_0, # of connection points: 6
#     Node 40, Type 0, BuildingBlock: PAMTUU_clean_sbu_0, # of connection points: 6
#     Node 41, Type 0, BuildingBlock: PAMTUU_clean_sbu_0, # of connection points: 6
#     Node 42, Type 0, BuildingBlock: PAMTUU_clean_sbu_0, # of connection points: 6
#     Node 43, Type 0, BuildingBlock: PAMTUU_clean_sbu_0, # of connection points: 6
#     Node 44, Type 0, BuildingBlock: PAMTUU_clean_sbu_0, # of connection points: 6
#     Node 45, Type 0, BuildingBlock: PAMTUU_clean_sbu_0, # of connection points: 6
#     Node 46, Type 0, BuildingBlock: PAMTUU_clean_sbu_0, # of connection points: 6
#     Node 47, Type 0, BuildingBlock: PAMTUU_clean_sbu_0, # of connection points: 6
#     Edge 48, Type (0, 0), BuildingBlock: XIVTED_clean_linker_0, # of connection points: 2
#     Edge 49, Type (0, 0), BuildingBlock: XIVTED_clean_linker_0, # of connection points: 2
#     Edge 50, Type (0, 0), BuildingBlock: XIVTED_clean_linker_0, # of connection points: 2
#     Edge 51, Type (0, 0), BuildingBlock: XIVTED_clean_linker_0, # of connection points: 2
#     Edge 52, Type (0, 0), BuildingBlock: XIVTED_clean_linker_0, # of connection points: 2
#     Edge 53, Type (0, 0), BuildingBlock: XIVTED_clean_linker_0, # of connection points: 2
#     Edge 54, Type (0, 0), BuildingBlock: XIVTED_clean_linker_0, # of connection points: 2
#     Edge 55, Type (0, 0), BuildingBlock: XIVTED_clean_linker_0, # of connection points: 2
#     Edge 56, Type (0, 0), BuildingBlock: XIVTED_clean_linker_0, # of connection points: 2
#     Edge 57, Type (0, 0), BuildingBlock: XIVTED_clean_linker_0, # of connection points: 2
#     Edge 58, Type (0, 0), BuildingBlock: XIVTED_clean_linker_0, # of connection points: 2
#     Edge 59, Type (0, 0), BuildingBlock: XIVTED_clean_linker_0, # of connection points: 2
#     Edge 60, Type (0, 0), BuildingBlock: XIVTED_clean_linker_0, # of connection points: 2
#     Edge 61, Type (0, 0), BuildingBlock: XIVTED_clean_linker_0, # of connection points: 2
#     Edge 62, Type (0, 0), BuildingBlock: XIVTED_clean_linker_0, # of connection points: 2
#     Edge 63, Type (0, 0), BuildingBlock: XIVTED_clean_linker_0, # of connection points: 2
#     Edge 64, Type (0, 0), BuildingBlock: XIVTED_clean_linker_0, # of connection points: 2
#     Edge 65, Type (0, 0), BuildingBlock: XIVTED_clean_linker_0, # of connection points: 2
#     Edge 66, Type (0, 0), BuildingBlock: XIVTED_clean_linker_0, # of connection points: 2
#     Edge 67, Type (0, 0), BuildingBlock: XIVTED_clean_linker_0, # of connection points: 2
#     Edge 68, Type (0, 0), BuildingBlock: XIVTED_clean_linker_0, # of connection points: 2
#     Edge 69, Type (0, 0), BuildingBlock: XIVTED_clean_linker_0, # of connection points: 2
#     Edge 70, Type (0, 0), BuildingBlock: XIVTED_clean_linker_0, # of connection points: 2
#     Edge 71, Type (0, 0), BuildingBlock: XIVTED_clean_linker_0, # of connection points: 2
#     Edge 72, Type (0, 0), BuildingBlock: XIVTED_clean_linker_0, # of connection points: 2
#     Edge 73, Type (0, 0), BuildingBlock: XIVTED_clean_linker_0, # of connection points: 2
#     Edge 74, Type (0, 0), BuildingBlock: XIVTED_clean_linker_0, # of connection points: 2
#     Edge 75, Type (0, 0), BuildingBlock: XIVTED_clean_linker_0, # of connection points: 2
#     Edge 76, Type (0, 0), BuildingBlock: XIVTED_clean_linker_0, # of connection points: 2
#     Edge 77, Type (0, 0), BuildingBlock: XIVTED_clean_linker_0, # of connection points: 2
#     Edge 78, Type (0, 0), BuildingBlock: XIVTED_clean_linker_0, # of connection points: 2
#     Edge 79, Type (0, 0), BuildingBlock: XIVTED_clean_linker_0, # of connection points: 2
#     Edge 80, Type (0, 0), BuildingBlock: XIVTED_clean_linker_0, # of connection points: 2
#     Edge 81, Type (0, 0), BuildingBlock: XIVTED_clean_linker_0, # of connection points: 2
#     Edge 82, Type (0, 0), BuildingBlock: XIVTED_clean_linker_0, # of connection points: 2
#     Edge 83, Type (0, 0), BuildingBlock: XIVTED_clean_linker_0, # of connection points: 2
#     Edge 84, Type (0, 0), BuildingBlock: XIVTED_clean_linker_0, # of connection points: 2
#     Edge 85, Type (0, 0), BuildingBlock: XIVTED_clean_linker_0, # of connection points: 2
#     Edge 86, Type (0, 0), BuildingBlock: XIVTED_clean_linker_0, # of connection points: 2
#     Edge 87, Type (0, 0), BuildingBlock: XIVTED_clean_linker_0, # of connection points: 2
#     Edge 88, Type (0, 0), BuildingBlock: XIVTED_clean_linker_0, # of connection points: 2
#     Edge 89, Type (0, 0), BuildingBlock: XIVTED_clean_linker_0, # of connection points: 2
#     Edge 90, Type (0, 0), BuildingBlock: XIVTED_clean_linker_0, # of connection points: 2
#     Edge 91, Type (0, 0), BuildingBlock: XIVTED_clean_linker_0, # of connection points: 2
#     Edge 92, Type (0, 0), BuildingBlock: XIVTED_clean_linker_0, # of connection points: 2
#     Edge 93, Type (0, 0), BuildingBlock: XIVTED_clean_linker_0, # of connection points: 2
#     Edge 94, Type (0, 0), BuildingBlock: XIVTED_clean_linker_0, # of connection points: 2
#     Edge 95, Type (0, 0), BuildingBlock: XIVTED_clean_linker_0, # of connection points: 2
#     Edge 96, Type (0, 0), BuildingBlock: XIVTED_clean_linker_0, # of connection points: 2
#     Edge 97, Type (0, 0), BuildingBlock: XIVTED_clean_linker_0, # of connection points: 2
#     Edge 98, Type (0, 0), BuildingBlock: XIVTED_clean_linker_0, # of connection points: 2
#     Edge 99, Type (0, 0), BuildingBlock: XIVTED_clean_linker_0, # of connection points: 2
#     Edge 100, Type (0, 0), BuildingBlock: XIVTED_clean_linker_0, # of connection points: 2
#     Edge 101, Type (0, 0), BuildingBlock: XIVTED_clean_linker_0, # of connection points: 2
#     Edge 102, Type (0, 0), BuildingBlock: XIVTED_clean_linker_0, # of connection points: 2
#     Edge 103, Type (0, 0), BuildingBlock: XIVTED_clean_linker_0, # of connection points: 2
#     Edge 104, Type (0, 0), BuildingBlock: XIVTED_clean_linker_0, # of connection points: 2
#     Edge 105, Type (0, 0), BuildingBlock: XIVTED_clean_linker_0, # of connection points: 2
#     Edge 106, Type (0, 0), BuildingBlock: XIVTED_clean_linker_0, # of connection points: 2
#     Edge 107, Type (0, 0), BuildingBlock: XIVTED_clean_linker_0, # of connection points: 2
#     Edge 108, Type (0, 0), BuildingBlock: XIVTED_clean_linker_0, # of connection points: 2
#     Edge 109, Type (0, 0), BuildingBlock: XIVTED_clean_linker_0, # of connection points: 2
#     Edge 110, Type (0, 0), BuildingBlock: XIVTED_clean_linker_0, # of connection points: 2
#     Edge 111, Type (0, 0), BuildingBlock: XIVTED_clean_linker_0, # of connection points: 2
#     Edge 112, Type (0, 0), BuildingBlock: XIVTED_clean_linker_0, # of connection points: 2
#     Edge 113, Type (0, 0), BuildingBlock: XIVTED_clean_linker_0, # of connection points: 2
#     Edge 114, Type (0, 0), BuildingBlock: XIVTED_clean_linker_0, # of connection points: 2
#     Edge 115, Type (0, 0), BuildingBlock: XIVTED_clean_linker_0, # of connection points: 2
#     Edge 116, Type (0, 0), BuildingBlock: XIVTED_clean_linker_0, # of connection points: 2
#     Edge 117, Type (0, 0), BuildingBlock: XIVTED_clean_linker_0, # of connection points: 2
#     Edge 118, Type (0, 0), BuildingBlock: XIVTED_clean_linker_0, # of connection points: 2
#     Edge 119, Type (0, 0), BuildingBlock: XIVTED_clean_linker_0, # of connection points: 2
#     Edge 120, Type (0, 0), BuildingBlock: XIVTED_clean_linker_0, # of connection points: 2
#     Edge 121, Type (0, 0), BuildingBlock: XIVTED_clean_linker_0, # of connection points: 2
#     Edge 122, Type (0, 0), BuildingBlock: XIVTED_clean_linker_0, # of connection points: 2
#     Edge 123, Type (0, 0), BuildingBlock: XIVTED_clean_linker_0, # of connection points: 2
#     Edge 124, Type (0, 0), BuildingBlock: XIVTED_clean_linker_0, # of connection points: 2
#     Edge 125, Type (0, 0), BuildingBlock: XIVTED_clean_linker_0, # of connection points: 2
#     Edge 126, Type (0, 0), BuildingBlock: XIVTED_clean_linker_0, # of connection points: 2
#     Edge 127, Type (0, 0), BuildingBlock: XIVTED_clean_linker_0, # of connection points: 2
#     Edge 128, Type (0, 0), BuildingBlock: XIVTED_clean_linker_0, # of connection points: 2
#     Edge 129, Type (0, 0), BuildingBlock: XIVTED_clean_linker_0, # of connection points: 2
#     Edge 130, Type (0, 0), BuildingBlock: XIVTED_clean_linker_0, # of connection points: 2
#     Edge 131, Type (0, 0), BuildingBlock: XIVTED_clean_linker_0, # of connection points: 2
#     Edge 132, Type (0, 0), BuildingBlock: XIVTED_clean_linker_0, # of connection points: 2
#     Edge 133, Type (0, 0), BuildingBlock: XIVTED_clean_linker_0, # of connection points: 2
#     Edge 134, Type (0, 0), BuildingBlock: XIVTED_clean_linker_0, # of connection points: 2
#     Edge 135, Type (0, 0), BuildingBlock: XIVTED_clean_linker_0, # of connection points: 2
#     Edge 136, Type (0, 0), BuildingBlock: XIVTED_clean_linker_0, # of connection points: 2
#     Edge 137, Type (0, 0), BuildingBlock: XIVTED_clean_linker_0, # of connection points: 2
#     Edge 138, Type (0, 0), BuildingBlock: XIVTED_clean_linker_0, # of connection points: 2
#     Edge 139, Type (0, 0), BuildingBlock: XIVTED_clean_linker_0, # of connection points: 2
#     Edge 140, Type (0, 0), BuildingBlock: XIVTED_clean_linker_0, # of connection points: 2
#     Edge 141, Type (0, 0), BuildingBlock: XIVTED_clean_linker_0, # of connection points: 2
#     Edge 142, Type (0, 0), BuildingBlock: XIVTED_clean_linker_0, # of connection points: 2
#     Edge 143, Type (0, 0), BuildingBlock: XIVTED_clean_linker_0, # of connection points: 2
#     Edge 144, Type (0, 0), BuildingBlock: XIVTED_clean_linker_0, # of connection points: 2
#     Edge 145, Type (0, 0), BuildingBlock: XIVTED_clean_linker_0, # of connection points: 2
#     Edge 146, Type (0, 0), BuildingBlock: XIVTED_clean_linker_0, # of connection points: 2
#     Edge 147, Type (0, 0), BuildingBlock: XIVTED_clean_linker_0, # of connection points: 2
#     Edge 148, Type (0, 0), BuildingBlock: XIVTED_clean_linker_0, # of connection points: 2
#     Edge 149, Type (0, 0), BuildingBlock: XIVTED_clean_linker_0, # of connection points: 2
#     Edge 150, Type (0, 0), BuildingBlock: XIVTED_clean_linker_0, # of connection points: 2
#     Edge 151, Type (0, 0), BuildingBlock: XIVTED_clean_linker_0, # of connection points: 2
#     Edge 152, Type (0, 0), BuildingBlock: XIVTED_clean_linker_0, # of connection points: 2
#     Edge 153, Type (0, 0), BuildingBlock: XIVTED_clean_linker_0, # of connection points: 2
#     Edge 154, Type (0, 0), BuildingBlock: XIVTED_clean_linker_0, # of connection points: 2
#     Edge 155, Type (0, 0), BuildingBlock: XIVTED_clean_linker_0, # of connection points: 2
#     Edge 156, Type (0, 0), BuildingBlock: XIVTED_clean_linker_0, # of connection points: 2
#     Edge 157, Type (0, 0), BuildingBlock: XIVTED_clean_linker_0, # of connection points: 2
#     Edge 158, Type (0, 0), BuildingBlock: XIVTED_clean_linker_0, # of connection points: 2
#     Edge 159, Type (0, 0), BuildingBlock: XIVTED_clean_linker_0, # of connection points: 2
#     Edge 160, Type (0, 0), BuildingBlock: XIVTED_clean_linker_0, # of connection points: 2
#     Edge 161, Type (0, 0), BuildingBlock: XIVTED_clean_linker_0, # of connection points: 2
#     Edge 162, Type (0, 0), BuildingBlock: XIVTED_clean_linker_0, # of connection points: 2
#     Edge 163, Type (0, 0), BuildingBlock: XIVTED_clean_linker_0, # of connection points: 2
#     Edge 164, Type (0, 0), BuildingBlock: XIVTED_clean_linker_0, # of connection points: 2
#     Edge 165, Type (0, 0), BuildingBlock: XIVTED_clean_linker_0, # of connection points: 2
#     Edge 166, Type (0, 0), BuildingBlock: XIVTED_clean_linker_0, # of connection points: 2
#     Edge 167, Type (0, 0), BuildingBlock: XIVTED_clean_linker_0, # of connection points: 2
#     Edge 168, Type (0, 0), BuildingBlock: XIVTED_clean_linker_0, # of connection points: 2
#     Edge 169, Type (0, 0), BuildingBlock: XIVTED_clean_linker_0, # of connection points: 2
#     Edge 170, Type (0, 0), BuildingBlock: XIVTED_clean_linker_0, # of connection points: 2
#     Edge 171, Type (0, 0), BuildingBlock: XIVTED_clean_linker_0, # of connection points: 2
#     Edge 172, Type (0, 0), BuildingBlock: XIVTED_clean_linker_0, # of connection points: 2
#     Edge 173, Type (0, 0), BuildingBlock: XIVTED_clean_linker_0, # of connection points: 2
#     Edge 174, Type (0, 0), BuildingBlock: XIVTED_clean_linker_0, # of connection points: 2
#     Edge 175, Type (0, 0), BuildingBlock: XIVTED_clean_linker_0, # of connection points: 2
#     Edge 176, Type (0, 0), BuildingBlock: XIVTED_clean_linker_0, # of connection points: 2
#     Edge 177, Type (0, 0), BuildingBlock: XIVTED_clean_linker_0, # of connection points: 2
#     Edge 178, Type (0, 0), BuildingBlock: XIVTED_clean_linker_0, # of connection points: 2
#     Edge 179, Type (0, 0), BuildingBlock: XIVTED_clean_linker_0, # of connection points: 2
#     Edge 180, Type (0, 0), BuildingBlock: XIVTED_clean_linker_0, # of connection points: 2
#     Edge 181, Type (0, 0), BuildingBlock: XIVTED_clean_linker_0, # of connection points: 2
#     Edge 182, Type (0, 0), BuildingBlock: XIVTED_clean_linker_0, # of connection points: 2
#     Edge 183, Type (0, 0), BuildingBlock: XIVTED_clean_linker_0, # of connection points: 2
#     Edge 184, Type (0, 0), BuildingBlock: XIVTED_clean_linker_0, # of connection points: 2
#     Edge 185, Type (0, 0), BuildingBlock: XIVTED_clean_linker_0, # of connection points: 2
#     Edge 186, Type (0, 0), BuildingBlock: XIVTED_clean_linker_0, # of connection points: 2
#     Edge 187, Type (0, 0), BuildingBlock: XIVTED_clean_linker_0, # of connection points: 2
#     Edge 188, Type (0, 0), BuildingBlock: XIVTED_clean_linker_0, # of connection points: 2
#     Edge 189, Type (0, 0), BuildingBlock: XIVTED_clean_linker_0, # of connection points: 2
#     Edge 190, Type (0, 0), BuildingBlock: XIVTED_clean_linker_0, # of connection points: 2
#     Edge 191, Type (0, 0), BuildingBlock: XIVTED_clean_linker_0, # of connection points: 2
# Relax obj value: 0.394
# Max RMSD: 0.279
# Mean RMSD: 0.256
data_MOF--net-lcs-e--node1-PAMTUU_clean_sbu_0--edge1-XIVTED_clean_linker_0
_symmetry_space_group_name_H-M    P1
_symmetry_Int_Tables_number       1
_symmetry_cell_setting            triclinic
loop_
_symmetry_equiv_pos_as_xyz
'x, y, z'
_cell_length_a     64.946535
_cell_length_b     65.715963
_cell_length_c     65.286801
_cell_angle_alpha  89.67897
_cell_angle_beta   90.285576
_cell_angle_gamma 89.296383
loop_
_atom_site_label
_atom_site_type_symbol
_atom_site_fract_x
_atom_site_fract_y
_atom_site_fract_z
_atom_type_partial_charge
Tb0 Tb 0.04005 0.40628 0.26333 0.0
Tb1 Tb 1.00596 0.40794 0.29586 0.0
C2 C 1.01588 0.36394 0.2729 0.0
C3 C 0.07843 0.41821 0.22326 0.0
C4 C 0.11474 0.43731 0.21091 0.0
C5 C 0.10671 0.42113 0.19947 0.0
C6 C 0.08872 0.41157 0.20571 0.0
C7 C 0.08539 0.43537 0.23375 0.0
C8 C 0.10347 0.44482 0.22767 0.0
C9 C 0.06338 0.40492 0.23278 0.0
O10 O 0.03066 0.43993 0.26141 0.0
O11 O 1.004 0.44011 0.28365 0.0
O12 O 0.03049 0.42433 0.31161 0.0
O13 O 0.05431 0.4259 0.28537 0.0
O14 O 0.97381 0.40439 0.29777 0.0
O15 O 0.99205 0.4146 0.32366 0.0
O16 O 0.02772 0.38829 0.31148 0.0
O17 O 0.05493 0.38976 0.28877 0.0
O18 O 0.02746 0.37467 0.26029 0.0
O19 O 1.00504 0.37439 0.2867 0.0
C20 C 1.01685 0.45064 0.2721 0.0
O21 O 0.06862 0.39885 0.25114 0.0
O22 O 0.04391 0.41029 0.23151 0.0
C23 C 0.04808 0.43058 0.30391 0.0
C24 C 0.96412 0.39461 0.33136 0.0
C25 C 0.95169 0.37283 0.36616 0.0
C26 C 0.94055 0.39018 0.35959 0.0
C27 C 0.94682 0.40107 0.34235 0.0
C28 C 0.97424 0.37641 0.3368 0.0
C29 C 0.96811 0.36561 0.35411 0.0
C30 C 0.97399 0.40881 0.31734 0.0
C31 C 0.0467 0.38363 0.30618 0.0
H32 H 0.11478 0.41531 0.18622 0.0
H33 H 0.08353 0.39825 0.19754 0.0
H34 H 0.07768 0.44053 0.2475 0.0
H35 H 0.10926 0.45713 0.23693 0.0
H36 H 0.92757 0.39587 0.36829 0.0
H37 H 0.93895 0.41519 0.33836 0.0
H38 H 0.98782 0.37138 0.32858 0.0
H39 H 0.97717 0.35243 0.35879 0.0
Tb40 Tb 0.8939 0.75992 0.54222 0.0
Tb41 Tb 0.89618 0.79361 0.50959 0.0
C42 C 0.85167 0.77111 0.51741 0.0
C43 C 0.90812 0.71734 0.57677 0.0
C44 C 0.93113 0.70504 0.61121 0.0
C45 C 0.91215 0.69593 0.60684 0.0
C46 C 0.9007 0.7021 0.58973 0.0
C47 C 0.92763 0.72552 0.58028 0.0
C48 C 0.9391 0.71937 0.59737 0.0
C49 C 0.89391 0.72734 0.56248 0.0
O50 O 0.92822 0.7623 0.536 0.0
O51 O 0.92617 0.77687 0.50489 0.0
O52 O 0.91295 0.8074 0.53534 0.0
O53 O 0.91018 0.78194 0.55981 0.0
O54 O 0.89151 0.79901 0.47809 0.0
O55 O 0.90548 0.82151 0.49782 0.0
O56 O 0.87581 0.80791 0.53147 0.0
O57 O 0.87475 0.78311 0.55683 0.0
O58 O 0.86248 0.75759 0.52819 0.0
O59 O 0.86217 0.78543 0.50757 0.0
C60 C 0.93803 0.76958 0.51982 0.0
O61 O 0.88673 0.74466 0.56919 0.0
O62 O 0.89941 0.7283 0.54317 0.0
C63 C 0.91613 0.80013 0.55407 0.0
C64 C 0.88487 0.83381 0.47144 0.0
C65 C 0.86394 0.86983 0.46048 0.0
C66 C 0.88086 0.86297 0.44893 0.0
C67 C 0.89132 0.84509 0.45447 0.0
C68 C 0.86733 0.83992 0.48229 0.0
C69 C 0.85696 0.85784 0.4769 0.0
C70 C 0.89816 0.81767 0.47964 0.0
C71 C 0.86936 0.80108 0.54929 0.0
H72 H 0.9058 0.68463 0.61709 0.0
H73 H 0.88552 0.69584 0.58731 0.0
H74 H 0.93339 0.73759 0.57058 0.0
H75 H 0.95358 0.72681 0.60042 0.0
H76 H 0.88633 0.87167 0.43597 0.0
H77 H 0.90494 0.84054 0.44605 0.0
H78 H 0.86233 0.83141 0.4956 0.0
H79 H 0.84414 0.86279 0.48625 0.0
Tb80 Tb 0.53289 0.65292 0.79546 0.0
Tb81 Tb 0.50065 0.65473 0.76091 0.0
C82 C 0.52398 0.61058 0.77092 0.0
C83 C 0.57329 0.66561 0.83294 0.0
C84 C 0.58793 0.68718 0.86658 0.0
C85 C 0.60007 0.67169 0.85795 0.0
C86 C 0.59267 0.6608 0.84124 0.0
C87 C 0.56187 0.68213 0.8406 0.0
C88 C 0.56908 0.69274 0.8575 0.0
C89 C 0.56365 0.65154 0.81877 0.0
O90 O 0.53502 0.68637 0.78616 0.0
O91 O 0.51228 0.68692 0.75978 0.0
O92 O 0.48422 0.6706 0.78543 0.0
O93 O 0.51036 0.67265 0.80957 0.0
O94 O 0.49918 0.65232 0.72876 0.0
O95 O 0.47254 0.66118 0.74683 0.0
O96 O 0.48533 0.63454 0.78176 0.0
O97 O 0.50763 0.63616 0.80947 0.0
O98 O 0.53591 0.62105 0.78339 0.0
O99 O 0.51069 0.62126 0.75934 0.0
C100 C 0.52413 0.69722 0.77252 0.0
O101 O 0.54517 0.64617 0.82415 0.0
O102 O 0.56495 0.65577 0.79917 0.0
C103 C 0.49158 0.67695 0.80314 0.0
C104 C 0.4657 0.64381 0.71692 0.0
C105 C 0.4318 0.62187 0.70251 0.0
C106 C 0.43429 0.64239 0.69693 0.0
C107 C 0.45114 0.65323 0.70405 0.0
C108 C 0.46418 0.62302 0.72142 0.0
C109 C 0.44742 0.61205 0.71408 0.0
C110 C 0.47944 0.65678 0.72866 0.0
C111 C 0.49053 0.6298 0.80071 0.0
H112 H 0.61469 0.6673 0.86483 0.0
H113 H 0.60154 0.648 0.83551 0.0
H114 H 0.54685 0.68601 0.83429 0.0
H115 H 0.55967 0.70484 0.86389 0.0
H116 H 0.42253 0.65056 0.68828 0.0
H117 H 0.45199 0.66938 0.70072 0.0
H118 H 0.47524 0.61559 0.73155 0.0
H119 H 0.44622 0.59614 0.71828 0.0
Tb120 Tb 0.64664 0.25872 1.01121 0.0
Tb121 Tb 0.64828 0.29537 0.04088 0.0
C122 C 0.60404 0.28409 1.01893 0.0
C123 C 0.65927 0.21841 0.97361 0.0
C124 C 0.67927 0.18213 0.96236 0.0
C125 C 0.66335 0.19036 0.95006 0.0
C126 C 0.65334 0.20835 0.95574 0.0
C127 C 0.67607 0.2111 0.98514 0.0
C128 C 0.68595 0.19303 0.97961 0.0
C129 C 0.64574 0.23412 0.98199 0.0
O130 O 0.68055 0.2663 1.01128 0.0
O131 O 0.67806 0.29824 1.02346 0.0
O132 O 0.66588 0.27224 0.05804 0.0
O133 O 0.66614 0.24571 0.03475 0.0
O134 O 0.64169 0.32678 0.04332 0.0
O135 O 0.65886 0.31037 0.06678 0.0
O136 O 0.6297 0.27448 0.05848 0.0
O137 O 0.62949 0.24653 0.03696 0.0
O138 O 0.61516 0.27235 1.00674 0.0
O139 O 0.61419 0.29542 0.03239 0.0
C140 C 0.69005 0.28302 1.01719 0.0
O141 O 0.6392 0.23006 1.00041 0.0
O142 O 0.65134 0.25312 0.97983 0.0
C143 C 0.6716 0.25381 0.0523 0.0
C144 C 0.63863 0.33711 0.07806 0.0
C145 C 0.62126 0.34767 0.11595 0.0
C146 C 0.64052 0.3553 0.11016 0.0
C147 C 0.64908 0.35009 0.09134 0.0
C148 C 0.61891 0.33036 0.08313 0.0
C149 C 0.61019 0.33577 0.10187 0.0
C150 C 0.65024 0.32759 0.0615 0.0
C151 C 0.62435 0.2557 0.05415 0.0
H152 H 0.65818 0.18257 0.93644 0.0
H153 H 0.64031 0.21383 0.94677 0.0
H154 H 0.68069 0.21867 0.99911 0.0
H155 H 0.69802 0.18707 0.98953 0.0
H156 H 0.6496 0.36428 0.12062 0.0
H157 H 0.6645 0.3551 0.08777 0.0
H158 H 0.61077 0.32007 0.07312 0.0
H159 H 0.59512 0.33001 0.10564 0.0
Tb160 Tb 0.03807 0.65878 0.2937 0.0
Tb161 Tb 1.01037 0.65741 0.25603 0.0
C162 C 1.01611 0.70114 0.28004 0.0
C163 C 0.07287 0.64521 0.33604 0.0
C164 C 0.10848 0.62288 0.34675 0.0
C165 C 0.10299 0.64053 0.35765 0.0
C166 C 0.08532 0.65167 0.35224 0.0
C167 C 0.07752 0.62693 0.32603 0.0
C168 C 0.0952 0.61584 0.33133 0.0
C169 C 0.05782 0.65931 0.32696 0.0
O170 O 0.02833 0.62529 0.29472 0.0
O171 O 1.00814 0.62484 0.26644 0.0
O172 O 0.03624 0.63942 0.24469 0.0
O173 O 0.05661 0.63997 0.27382 0.0
O174 O 0.97829 0.66011 0.25199 0.0
O175 O 0.99894 0.65229 0.22681 0.0
O176 O 0.03404 0.67594 0.24302 0.0
O177 O 0.05638 0.67541 0.27085 0.0
O178 O 0.02202 0.68945 0.29572 0.0
O179 O 1.0105 0.69136 0.26318 0.0
C180 C 1.01768 0.61445 0.28112 0.0
O181 O 0.06414 0.66754 0.30999 0.0
O182 O 0.0388 0.6531 0.3255 0.0
C183 C 0.05319 0.63433 0.2548 0.0
C184 C 0.96844 0.66877 0.2179 0.0
C185 C 0.95462 0.68893 0.18241 0.0
C186 C 0.948 0.66912 0.18687 0.0
C187 C 0.95485 0.65915 0.20453 0.0
C188 C 0.97382 0.68907 0.2145 0.0
C189 C 0.96678 0.69918 0.1969 0.0
C190 C 0.97998 0.65609 0.23236 0.0
C191 C 0.05145 0.68094 0.25191 0.0
H192 H 0.11273 0.64612 0.36984 0.0
H193 H 0.08201 0.6659 0.35994 0.0
H194 H 0.06823 0.62193 0.31322 0.0
H195 H 0.09907 0.60247 0.32246 0.0
H196 H 0.93882 0.66069 0.17602 0.0
H197 H 0.9508 0.64336 0.2069 0.0
H198 H 0.98447 0.69661 0.2247 0.0
H199 H 0.97175 0.71462 0.19413 0.0
Tb200 Tb 0.64478 0.76994 0.50329 0.0
Tb201 Tb 0.64314 0.7963 0.54293 0.0
C202 C 0.68741 0.77507 0.5294 0.0
C203 C 0.63642 0.73255 0.4601 0.0
C204 C 0.62075 0.71872 0.4226 0.0
C205 C 0.63945 0.71088 0.43039 0.0
C206 C 0.64717 0.71773 0.44901 0.0
C207 C 0.61718 0.7396 0.45312 0.0
C208 C 0.60932 0.73262 0.43451 0.0
C209 C 0.64739 0.74283 0.47651 0.0
O210 O 0.61101 0.76888 0.51157 0.0
O211 O 0.61324 0.77913 0.54451 0.0
O212 O 0.62587 0.81525 0.52096 0.0
O213 O 0.62469 0.79409 0.49264 0.0
O214 O 0.6506 0.79747 0.57443 0.0
O215 O 0.63195 0.82084 0.5598 0.0
O216 O 0.66146 0.81529 0.52316 0.0
O217 O 0.66214 0.79633 0.49337 0.0
O218 O 0.67649 0.76479 0.51594 0.0
O219 O 0.67713 0.78697 0.5424 0.0
C220 C 0.6014 0.77378 0.52878 0.0
O221 O 0.65092 0.76207 0.47315 0.0
O222 O 0.64225 0.73897 0.49554 0.0
C223 C 0.61962 0.81095 0.50224 0.0
C224 C 0.65378 0.83187 0.58531 0.0
C225 C 0.67233 0.86928 0.5946 0.0
C226 C 0.65276 0.86459 0.60234 0.0
C227 C 0.64362 0.84603 0.59776 0.0
C228 C 0.67372 0.83594 0.5784 0.0
C229 C 0.683 0.85441 0.58318 0.0
C230 C 0.64179 0.81537 0.57634 0.0
C231 C 0.66701 0.81261 0.50399 0.0
H232 H 0.64876 0.70036 0.42158 0.0
H233 H 0.6622 0.71237 0.45413 0.0
H234 H 0.6088 0.7512 0.46151 0.0
H235 H 0.59464 0.73862 0.42915 0.0
H236 H 0.64393 0.87566 0.61095 0.0
H237 H 0.62804 0.84329 0.60287 0.0
H238 H 0.68168 0.82532 0.56847 0.0
H239 H 0.69828 0.85728 0.57735 0.0
Tb240 Tb 0.50346 0.40337 0.79198 0.0
Tb241 Tb 0.53578 0.40447 0.7576 0.0
C242 C 0.52701 0.36045 0.78076 0.0
C243 C 0.46911 0.41537 0.83588 0.0
C244 C 0.43514 0.43837 0.84931 0.0
C245 C 0.43741 0.41778 0.85501 0.0
C246 C 0.45431 0.40642 0.84839 0.0
C247 C 0.46789 0.43623 0.83143 0.0
C248 C 0.45109 0.44773 0.8383 0.0
C249 C 0.48268 0.40195 0.82426 0.0
O250 O 0.51274 0.43676 0.79317 0.0
O251 O 0.53807 0.43649 0.76948 0.0
O252 O 0.51012 0.42122 0.7433 0.0
O253 O 0.48758 0.42309 0.77062 0.0
O254 O 0.5679 0.40142 0.75381 0.0
O255 O 0.54761 0.41095 0.72884 0.0
O256 O 0.51354 0.38486 0.74363 0.0
O257 O 0.48754 0.38665 0.76778 0.0
O258 O 0.51559 0.3712 0.7936 0.0
O259 O 0.53775 0.37086 0.76691 0.0
C260 C 0.52587 0.44719 0.78166 0.0
O261 O 0.47553 0.39758 0.80613 0.0
O262 O 0.50243 0.40593 0.8241 0.0
C263 C 0.49279 0.42761 0.75172 0.0
C264 C 0.57758 0.39417 0.71945 0.0
C265 C 0.59058 0.37496 0.68337 0.0
C266 C 0.59715 0.39472 0.68801 0.0
C267 C 0.59073 0.4042 0.70594 0.0
C268 C 0.57213 0.37396 0.71575 0.0
C269 C 0.57876 0.36434 0.69789 0.0
C270 C 0.56643 0.40644 0.73438 0.0
C271 C 0.49505 0.38024 0.75016 0.0
H272 H 0.42542 0.40994 0.86324 0.0
H273 H 0.45495 0.39024 0.8517 0.0
H274 H 0.47916 0.4433 0.8216 0.0
H275 H 0.45007 0.46366 0.83405 0.0
H276 H 0.60605 0.40346 0.67718 0.0
H277 H 0.59479 0.41994 0.70849 0.0
H278 H 0.56178 0.36611 0.72599 0.0
H279 H 0.57384 0.34893 0.69502 0.0
Tb280 Tb 0.8954 0.29284 1.00488 0.0
Tb281 Tb 0.89897 0.25901 0.03862 0.0
C282 C 0.85449 0.28222 0.03007 0.0
C283 C 0.90428 0.33192 0.96422 0.0
C284 C 0.92337 0.34299 0.92722 0.0
C285 C 0.90296 0.3491 0.93127 0.0
C286 C 0.89356 0.34365 0.94962 0.0
C287 C 0.92484 0.32633 0.96068 0.0
C288 C 0.93438 0.33197 0.94239 0.0
C289 C 0.89269 0.32316 0.98121 0.0
O290 O 0.92959 0.29241 1.01269 0.0
O291 O 0.92798 0.27672 0.04346 0.0
O292 O 0.91747 0.24542 1.01425 0.0
O293 O 0.91492 0.27101 0.98971 0.0
O294 O 0.89256 0.25394 0.06983 0.0
O295 O 0.90957 0.2319 0.05177 0.0
O296 O 0.88092 0.24334 1.01598 0.0
O297 O 0.87844 0.26806 0.99054 0.0
O298 O 0.86583 0.29699 1.02229 0.0
O299 O 0.86468 0.26614 0.0375 0.0
C300 C 0.93953 0.28474 0.02888 0.0
O301 O 0.88506 0.30538 0.97726 0.0
O302 O 0.90068 0.32403 0.99966 0.0
C303 C 0.92186 0.25319 0.99614 0.0
C304 C 0.88787 0.21885 0.07641 0.0
C305 C 0.86874 0.18186 0.08584 0.0
C306 C 0.88422 0.18955 0.09872 0.0
C307 C 0.89379 0.20788 0.09395 0.0
C308 C 0.87174 0.21183 0.0641 0.0
C309 C 0.86231 0.19345 0.06872 0.0
C310 C 0.90059 0.23557 0.06918 0.0
C311 C 0.8745 0.24978 0.99792 0.0
H312 H 0.89386 0.35728 0.91991 0.0
H313 H 0.87754 0.34777 0.95199 0.0
H314 H 0.93325 0.31701 0.97171 0.0
H315 H 0.95023 0.32733 0.93997 0.0
H316 H 0.88924 0.18121 0.11223 0.0
H317 H 0.90635 0.21308 0.10349 0.0
H318 H 0.86719 0.22004 0.05033 0.0
H319 H 0.85065 0.18792 0.05831 0.0
Tb320 Tb 0.29299 1.01597 0.40411 0.0
Tb321 Tb 0.26342 0.05307 0.40116 0.0
C322 C 0.26925 0.02877 0.44514 0.0
C323 C 0.33203 0.97591 0.39494 0.0
C324 C 0.36924 0.96287 0.37746 0.0
C325 C 0.35843 0.94993 0.39071 0.0
C326 C 0.33998 0.95651 0.39953 0.0
C327 C 0.34233 0.98848 0.38101 0.0
C328 C 0.36088 0.98206 0.37243 0.0
C329 C 0.31483 0.98412 0.40677 0.0
O330 O 0.28382 1.01469 0.37028 0.0
O331 O 0.26008 0.04024 0.36956 0.0
O332 O 0.28924 0.06467 0.3836 0.0
O333 O 0.31036 0.03606 0.38466 0.0
O334 O 0.23155 0.05831 0.40462 0.0
O335 O 0.25218 0.08183 0.39358 0.0
O336 O 0.28671 0.06643 0.42014 0.0
O337 O 0.31027 0.03962 0.4203 0.0
O338 O 0.2753 1.01329 0.43358 0.0
O339 O 0.26361 0.04564 0.4352 0.0
C340 C 0.27137 1.02691 0.35933 0.0
O341 O 0.31897 1.00112 0.41592 0.0
O342 O 0.2967 0.98463 0.39797 0.0
C343 C 0.30628 0.05481 0.37862 0.0
C344 C 0.223 0.09312 0.41043 0.0
C345 C 0.21143 0.13042 0.42784 0.0
C346 C 0.20359 0.12473 0.40863 0.0
C347 C 0.20932 0.10618 0.40003 0.0
C348 C 0.22971 0.09793 0.43021 0.0
C349 C 0.22381 0.11644 0.43895 0.0
C350 C 0.23337 0.07731 0.39865 0.0
C351 C 0.30452 0.05825 0.4255 0.0
H352 H 0.3646 0.93504 0.39474 0.0
H353 H 0.3323 0.94675 0.41045 0.0
H354 H 0.33642 1.00356 0.37738 0.0
H355 H 0.36876 0.99212 0.36195 0.0
H356 H 0.19419 0.13514 0.39957 0.0
H357 H 0.20429 0.10274 0.38459 0.0
H358 H 0.24048 0.08802 0.43831 0.0
H359 H 0.2297 0.12018 0.454 0.0
Tb360 Tb 0.28598 0.05058 0.65275 0.0
Tb361 Tb 0.26045 1.01161 0.65101 0.0
C362 C 0.28053 1.02517 0.6955 0.0
C363 C 0.32245 0.09155 0.63965 0.0
C364 C 0.3345 0.12587 0.61731 0.0
C365 C 0.34572 0.11956 0.63474 0.0
C366 C 0.33965 0.10254 0.64589 0.0
C367 C 0.31203 0.09691 0.62152 0.0
C368 C 0.31799 0.114 0.61044 0.0
C369 C 0.3137 0.0767 0.65365 0.0
O370 O 0.28706 0.0431 0.61889 0.0
O371 O 0.27677 1.01048 0.62053 0.0
O372 O 0.24084 0.03277 0.63333 0.0
O373 O 0.26133 0.06145 0.63325 0.0
O374 O 0.2624 0.9801 0.65699 0.0
O375 O 0.23578 0.99375 0.64197 0.0
O376 O 0.24045 0.03087 0.66918 0.0
O377 O 0.25911 0.06064 0.66988 0.0
O378 O 0.29043 0.03911 0.68488 0.0
O379 O 0.26936 1.01195 0.68492 0.0
C380 C 0.28222 1.02622 0.609 0.0
O381 O 0.29452 0.08038 0.65846 0.0
O382 O 0.31737 0.05741 0.6498 0.0
C383 C 0.24468 0.05167 0.62769 0.0
C384 C 0.22931 0.96746 0.6644 0.0
C385 C 0.19419 0.95507 0.68574 0.0
C386 C 0.20089 0.94431 0.66839 0.0
C387 C 0.21831 0.95055 0.65772 0.0
C388 C 0.22362 0.9773 0.68254 0.0
C389 C 0.20618 0.97116 0.69313 0.0
C390 C 0.24355 0.97739 0.65043 0.0
C391 C 0.24271 0.04999 0.67464 0.0
H392 H 0.35879 0.12815 0.64013 0.0
H393 H 0.34779 0.09853 0.6599 0.0
H394 H 0.2986 0.08856 0.61662 0.0
H395 H 0.30895 0.11853 0.59715 0.0
H396 H 0.19218 0.93162 0.66255 0.0
H397 H 0.22244 0.94297 0.6436 0.0
H398 H 0.23177 0.99063 0.68768 0.0
H399 H 0.20136 0.97994 0.70629 0.0
Tb400 Tb 0.28859 1.00904 0.90191 0.0
Tb401 Tb 0.25731 0.04437 0.90346 0.0
C402 C 0.2798 0.03384 0.85942 0.0
C403 C 0.32759 0.96973 0.9151 0.0
C404 C 0.33794 0.93292 0.93468 0.0
C405 C 0.35057 0.94073 0.91913 0.0
C406 C 0.34532 0.95898 0.9093 0.0
C407 C 0.31589 0.96292 0.93168 0.0
C408 C 0.32096 0.94458 0.94135 0.0
C409 C 0.31919 0.98539 0.90145 0.0
O410 O 0.28824 1.01653 0.93588 0.0
O411 O 0.27358 0.04771 0.93382 0.0
O412 O 0.24118 1.02108 0.92136 0.0
O413 O 0.26559 0.99505 0.92072 0.0
O414 O 0.2556 0.07597 0.89832 0.0
O415 O 0.2301 0.05936 0.91143 0.0
O416 O 0.24052 1.02327 0.88456 0.0
O417 O 0.26306 0.99567 0.88507 0.0
O418 O 0.29259 1.02244 0.87052 0.0
O419 O 0.26574 0.04463 0.86957 0.0
C420 C 0.2811 0.03284 0.94557 0.0
O421 O 0.30113 0.98096 0.89401 0.0
O422 O 0.32027 1.00434 0.90751 0.0
C423 C 0.24773 1.00262 0.92654 0.0
C424 C 0.22165 0.08604 0.88969 0.0
C425 C 0.18698 0.09823 0.86685 0.0
C426 C 0.19269 0.10899 0.88451 0.0
C427 C 0.20991 0.10285 0.89592 0.0
C428 C 0.2169 0.07615 0.87134 0.0
C429 C 0.19966 0.0822 0.85998 0.0
C430 C 0.23628 0.07668 0.90399 0.0
C431 C 0.2455 1.00448 0.87959 0.0
H432 H 0.36403 0.93235 0.914 0.0
H433 H 0.35443 0.96408 0.89643 0.0
H434 H 0.302 0.97102 0.93617 0.0
H435 H 0.31078 0.93899 0.95314 0.0
H436 H 0.1834 0.12163 0.88995 0.0
H437 H 0.21338 0.11051 0.91016 0.0
H438 H 0.22573 0.06295 0.86651 0.0
H439 H 0.19557 0.07348 0.84657 0.0
Tb440 Tb 0.26223 1.00946 0.15338 0.0
Tb441 Tb 0.29143 0.04609 0.15032 0.0
C442 C 0.27033 0.03553 0.19514 0.0
C443 C 0.22345 0.97051 0.14108 0.0
C444 C 0.2117 0.93509 0.12058 0.0
C445 C 0.20024 0.94225 0.13734 0.0
C446 C 0.20617 0.95982 0.14759 0.0
C447 C 0.23406 0.96431 0.12351 0.0
C448 C 0.22826 0.94668 0.11335 0.0
C449 C 0.23246 0.98557 0.15466 0.0
O450 O 0.26243 1.0165 0.1193 0.0
O451 O 0.27338 0.04878 0.12081 0.0
O452 O 0.30891 1.02227 0.1343 0.0
O453 O 0.28564 0.9958 0.13458 0.0
O454 O 0.29533 0.0773 0.15669 0.0
O455 O 0.31673 0.06054 0.13772 0.0
O456 O 0.30934 1.02563 0.16962 0.0
O457 O 0.28816 0.99756 0.1712 0.0
O458 O 0.25892 1.02246 0.18491 0.0
O459 O 0.28266 0.04747 0.18418 0.0
C460 C 0.2677 0.03324 0.10928 0.0
O461 O 0.2511 0.98087 0.16077 0.0
O462 O 0.23045 1.00481 0.14938 0.0
C463 C 0.30327 1.00375 0.12915 0.0
C464 C 0.33071 0.08601 0.15738 0.0
C465 C 0.3697 0.09811 0.17102 0.0
C466 C 0.35845 0.1103 0.15707 0.0
C467 C 0.33911 0.10421 0.15021 0.0
C468 C 0.34147 0.07424 0.17197 0.0
C469 C 0.36087 0.08023 0.17872 0.0
C470 C 0.31283 0.07766 0.14687 0.0
C471 C 0.30532 1.00703 0.17592 0.0
H472 H 0.18714 0.9339 0.14298 0.0
H473 H 0.19792 0.96442 0.16123 0.0
H474 H 0.2476 0.97237 0.11845 0.0
H475 H 0.23752 0.94153 0.1006 0.0
H476 H 0.36493 0.12414 0.1509 0.0
H477 H 0.33111 0.11325 0.13866 0.0
H478 H 0.33525 0.06 0.17745 0.0
H479 H 0.36906 0.07077 0.18979 0.0
Tb480 Tb 0.39659 0.26182 0.04303 0.0
Tb481 Tb 0.39725 0.29599 1.0096 0.0
C482 C 0.35384 0.27195 1.0187 0.0
C483 C 0.41128 0.2232 0.08152 0.0
C484 C 0.43321 0.21454 0.11774 0.0
C485 C 0.41638 0.20253 0.11196 0.0
C486 C 0.40542 0.20692 0.094 0.0
C487 C 0.42889 0.23432 0.08643 0.0
C488 C 0.43977 0.23005 0.10443 0.0
C489 C 0.39687 0.2311 0.06612 0.0
O490 O 0.43035 0.26158 0.03384 0.0
O491 O 0.4285 0.28174 1.00561 0.0
O492 O 0.41455 0.31026 0.03441 0.0
O493 O 0.41588 0.28367 0.05787 0.0
O494 O 0.39161 0.30075 0.97807 0.0
O495 O 0.40504 0.32404 0.99723 0.0
O496 O 0.37766 0.3101 0.03203 0.0
O497 O 0.37915 0.28608 0.05817 0.0
O498 O 0.36534 0.25841 0.02879 0.0
O499 O 0.36356 0.28685 1.00899 0.0
C500 C 0.44005 0.27151 1.01901 0.0
O501 O 0.38889 0.24869 0.07096 0.0
O502 O 0.40263 0.23044 0.04692 0.0
C503 C 0.42079 0.3021 0.05191 0.0
C504 C 0.38393 0.33546 0.97088 0.0
C505 C 0.36409 0.37223 0.96022 0.0
C506 C 0.37976 0.36416 0.94775 0.0
C507 C 0.3897 0.34594 0.95314 0.0
C508 C 0.36735 0.34263 0.98255 0.0
C509 C 0.35755 0.36092 0.97732 0.0
C510 C 0.39762 0.31967 0.97923 0.0
C511 C 0.37278 0.30368 0.05047 0.0
H512 H 0.41125 0.19019 0.12167 0.0
H513 H 0.39172 0.19834 0.09047 0.0
H514 H 0.4334 0.24716 0.07706 0.0
H515 H 0.45253 0.2397 0.10848 0.0
H516 H 0.38483 0.37225 0.93423 0.0
H517 H 0.4026 0.34061 0.94408 0.0
H518 H 0.36289 0.33478 0.99646 0.0
H519 H 0.34569 0.36673 0.98739 0.0
Tb520 Tb 1.0043 0.90607 0.28972 0.0
Tb521 Tb 0.03846 0.90871 0.25749 0.0
C522 C 0.02944 0.86445 0.27984 0.0
C523 C 0.96565 0.91609 0.33068 0.0
C524 C 0.92873 0.93519 0.34246 0.0
C525 C 0.93363 0.91542 0.34942 0.0
C526 C 0.95198 0.90599 0.3436 0.0
C527 C 0.96153 0.93621 0.32463 0.0
C528 C 0.94324 0.94579 0.33065 0.0
C529 C 0.9817 0.90407 0.32075 0.0
O530 O 1.01083 0.94012 0.2889 0.0
O531 O 0.04197 0.93866 0.27392 0.0
O532 O 1.01381 0.92586 0.24204 0.0
O533 O 0.98855 0.92453 0.26698 0.0
O534 O 0.07013 0.90242 0.25401 0.0
O535 O 0.05238 0.91833 0.23053 0.0
O536 O 1.01651 0.89042 0.24121 0.0
O537 O 0.9905 0.88814 0.26523 0.0
O538 O 1.02051 0.87573 0.29413 0.0
O539 O 0.03795 0.87463 0.26445 0.0
C540 C 0.02689 0.95012 0.28152 0.0
O541 O 0.9765 0.89754 0.30266 0.0
O542 O 1.00061 0.91085 0.32136 0.0
C543 C 0.99528 0.93046 0.24896 0.0
C544 C 0.07781 0.89635 0.21917 0.0
C545 C 0.08756 0.87599 0.18271 0.0
C546 C 0.09963 0.8923 0.18947 0.0
C547 C 0.0947 0.90247 0.20755 0.0
C548 C 0.06643 0.8794 0.21315 0.0
C549 C 0.07123 0.86932 0.19503 0.0
C550 C 0.06991 0.90962 0.23525 0.0
C551 C 0.99844 0.88383 0.24717 0.0
H552 H 0.92278 0.90669 0.35829 0.0
H553 H 0.95487 0.89031 0.3481 0.0
H554 H 0.97189 0.9441 0.31443 0.0
H555 H 0.94013 0.96118 0.3254 0.0
H556 H 0.11254 0.89754 0.18053 0.0
H557 H 0.10349 0.91567 0.21195 0.0
H558 H 0.05313 0.87468 0.22184 0.0
H559 H 0.06146 0.85698 0.1902 0.0
Tb560 Tb 0.14327 0.75961 0.5094 0.0
Tb561 Tb 0.14645 0.79483 0.54077 0.0
C562 C 0.10207 0.78486 0.51861 0.0
C563 C 0.15393 0.71728 0.47378 0.0
C564 C 0.17334 0.68 0.46466 0.0
C565 C 0.1577 0.68791 0.45181 0.0
C566 C 0.148 0.70639 0.45641 0.0
C567 C 0.17014 0.70998 0.48613 0.0
C568 C 0.17973 0.69145 0.48165 0.0
C569 C 0.14125 0.73443 0.48061 0.0
O570 O 0.17734 0.76712 0.5088 0.0
O571 O 0.17563 0.79843 0.52273 0.0
O572 O 0.16541 0.77161 0.55616 0.0
O573 O 0.16332 0.74588 0.53209 0.0
O574 O 0.13844 0.82585 0.54398 0.0
O575 O 0.15745 0.80995 0.56642 0.0
O576 O 0.12974 0.77305 0.55875 0.0
O577 O 0.12654 0.74679 0.53544 0.0
O578 O 0.11376 0.77704 0.50399 0.0
O579 O 0.11202 0.79267 0.53448 0.0
C580 C 0.18725 0.78342 0.51542 0.0
O581 O 0.13309 0.73173 0.4986 0.0
O582 O 0.14883 0.75269 0.47842 0.0
C583 C 0.17025 0.75328 0.54945 0.0
C584 C 0.13487 0.83405 0.5791 0.0
C585 C 0.11824 0.84306 0.6177 0.0
C586 C 0.13231 0.85633 0.60843 0.0
C587 C 0.14068 0.85176 0.58931 0.0
C588 C 0.11981 0.8215 0.5876 0.0
C589 C 0.11164 0.8259 0.60678 0.0
C590 C 0.14726 0.82661 0.56204 0.0
C591 C 0.12319 0.75492 0.5536 0.0
H592 H 0.15271 0.67968 0.43838 0.0
H593 H 0.13539 0.71182 0.44683 0.0
H594 H 0.17473 0.71814 0.49976 0.0
H595 H 0.19156 0.68573 0.492 0.0
H596 H 0.13736 0.86991 0.6162 0.0
H597 H 0.15244 0.86148 0.58298 0.0
H598 H 0.11538 0.8076 0.57999 0.0
H599 H 0.10103 0.81519 0.61347 0.0
Tb600 Tb 0.04363 0.65211 0.75715 0.0
Tb601 Tb 1.00674 0.65458 0.7859 0.0
C602 C 1.00163 0.6299 0.74547 0.0
C603 C 0.08536 0.66453 0.72176 0.0
C604 C 0.09593 0.68605 0.68614 0.0
C605 C 0.10714 0.66851 0.69204 0.0
C606 C 0.10181 0.65776 0.70971 0.0
C607 C 0.075 0.68271 0.71669 0.0
C608 C 0.08022 0.69339 0.69901 0.0
C609 C 0.07647 0.6508 0.73688 0.0
O610 O 0.02281 0.67095 0.73916 0.0
O611 O 0.99404 0.67155 0.7599 0.0
O612 O 1.01776 0.6868 0.78815 0.0
O613 O 0.04452 0.68583 0.76613 0.0
O614 O 0.97768 0.66096 0.79747 0.0
O615 O 1.00284 0.65135 0.81773 0.0
O616 O 1.01418 0.62054 0.78618 0.0
O617 O 0.04627 0.62163 0.77336 0.0
O618 O 1.02039 0.63506 0.73984 0.0
O619 O 0.99334 0.63562 0.76287 0.0
C620 C 1.00364 0.67648 0.74285 0.0
O621 O 0.07558 0.65716 0.75583 0.0
O622 O 0.05916 0.64299 0.73086 0.0
C623 C 0.03163 0.69692 0.77755 0.0
C624 C 0.96873 0.64206 0.82601 0.0
C625 C 0.93379 0.6213 0.83937 0.0
C626 C 0.94084 0.63837 0.85011 0.0
C627 C 0.95817 0.64874 0.84339 0.0
C628 C 0.96278 0.62413 0.81621 0.0
C629 C 0.94538 0.61383 0.82282 0.0
C630 C 0.98311 0.65575 0.81608 0.0
C631 C 0.03083 0.61034 0.78007 0.0
H632 H 0.11955 0.66269 0.68264 0.0
H633 H 0.10979 0.64361 0.71335 0.0
H634 H 0.06201 0.68794 0.72568 0.0
H635 H 0.07109 0.70669 0.69482 0.0
H636 H 0.93249 0.6442 0.86319 0.0
H637 H 0.96259 0.66263 0.85103 0.0
H638 H 0.97073 0.61892 0.80262 0.0
H639 H 0.9403 0.60083 0.81412 0.0
Tb640 Tb 0.15103 0.25941 0.53535 0.0
Tb641 Tb 0.15233 0.29857 0.50816 0.0
C642 C 0.12794 0.2602 0.49236 0.0
C643 C 0.16036 0.21551 0.5721 0.0
C644 C 0.17711 0.17764 0.58402 0.0
C645 C 0.15798 0.18425 0.59167 0.0
C646 C 0.14974 0.20305 0.58579 0.0
C647 C 0.17992 0.20962 0.56521 0.0
C648 C 0.18832 0.19083 0.57127 0.0
C649 C 0.14904 0.23238 0.56257 0.0
O650 O 0.17033 0.24855 0.51093 0.0
O651 O 0.16956 0.27681 0.48941 0.0
O652 O 0.18276 0.29992 0.52487 0.0
O653 O 0.18488 0.26736 0.53618 0.0
O654 O 0.16175 0.31576 0.48305 0.0
O655 O 0.14532 0.32999 0.50801 0.0
O656 O 0.11851 0.29791 0.51721 0.0
O657 O 0.1198 0.27288 0.54116 0.0
O658 O 0.13288 0.24979 0.50904 0.0
O659 O 0.13378 0.27906 0.48917 0.0
C660 C 0.17544 0.25803 0.49394 0.0
O661 O 0.15491 0.25103 0.56637 0.0
O662 O 0.14429 0.2296 0.54336 0.0
C663 C 0.19453 0.28425 0.53073 0.0
C664 C 0.13837 0.34097 0.47404 0.0
C665 C 0.11684 0.35194 0.4381 0.0
C666 C 0.13376 0.3634 0.44474 0.0
C667 C 0.14452 0.35786 0.46255 0.0
C668 C 0.12078 0.33027 0.4682 0.0
C669 C 0.11012 0.33567 0.45037 0.0
C670 C 0.15237 0.33214 0.48938 0.0
C671 C 0.10855 0.28566 0.52997 0.0
H672 H 0.1488 0.17447 0.60128 0.0
H673 H 0.13446 0.20733 0.59096 0.0
H674 H 0.18818 0.21906 0.55445 0.0
H675 H 0.20329 0.18638 0.56545 0.0
H676 H 0.13908 0.37624 0.43584 0.0
H677 H 0.15823 0.36612 0.46675 0.0
H678 H 0.11604 0.31695 0.47674 0.0
H679 H 0.09735 0.32633 0.44563 0.0
Tb680 Tb 0.54588 0.40122 0.28932 0.0
Tb681 Tb 0.51407 0.40211 0.25429 0.0
C682 C 0.55582 0.37826 0.24786 0.0
C683 C 0.5795 0.41556 0.33244 0.0
C684 C 0.61264 0.43881 0.34633 0.0
C685 C 0.60713 0.4209 0.35675 0.0
C686 C 0.59071 0.4093 0.34976 0.0
C687 C 0.58384 0.43422 0.323 0.0
C688 C 0.60032 0.44578 0.3299 0.0
C689 C 0.56652 0.4009 0.32194 0.0
O690 O 0.56131 0.42109 0.26823 0.0
O691 O 0.53934 0.41891 0.24032 0.0
O692 O 0.51058 0.43418 0.26594 0.0
O693 O 0.53576 0.43468 0.29 0.0
O694 O 0.50231 0.40806 0.22521 0.0
O695 O 0.48207 0.39905 0.25003 0.0
O696 O 0.51212 0.36878 0.26422 0.0
O697 O 0.53489 0.36878 0.29062 0.0
O698 O 0.56294 0.38513 0.26545 0.0
O699 O 0.53707 0.38224 0.24109 0.0
C700 C 0.55627 0.42555 0.24918 0.0
O701 O 0.54664 0.40467 0.32138 0.0
O702 O 0.57372 0.39537 0.30419 0.0
C703 C 0.52239 0.44503 0.27824 0.0
C704 C 0.47371 0.38939 0.21609 0.0
C705 C 0.46002 0.36884 0.18116 0.0
C706 C 0.44878 0.38556 0.18877 0.0
C707 C 0.45567 0.39585 0.20608 0.0
C708 C 0.48403 0.37174 0.20962 0.0
C709 C 0.47728 0.36156 0.19221 0.0
C710 C 0.48365 0.40313 0.23042 0.0
C711 C 0.52316 0.35819 0.27797 0.0
H712 H 0.6161 0.41538 0.36971 0.0
H713 H 0.58758 0.39484 0.35709 0.0
H714 H 0.57545 0.43911 0.30942 0.0
H715 H 0.60423 0.4594 0.32143 0.0
H716 H 0.43515 0.39123 0.18086 0.0
H717 H 0.4476 0.40951 0.21091 0.0
H718 H 0.49811 0.36669 0.21716 0.0
H719 H 0.4864 0.34883 0.18673 0.0
Tb720 Tb 0.39753 0.76115 1.00973 0.0
Tb721 Tb 0.40004 0.7983 0.03901 0.0
C722 C 0.37391 0.80267 0.99863 0.0
C723 C 0.40737 0.71944 0.97273 0.0
C724 C 0.42572 0.70924 0.93513 0.0
C725 C 0.40598 0.70218 0.94006 0.0
C726 C 0.39694 0.7072 0.95872 0.0
C727 C 0.42748 0.72566 0.96848 0.0
C728 C 0.43667 0.72042 0.94989 0.0
C729 C 0.39554 0.72883 0.98926 0.0
O730 O 0.41557 0.78169 0.99147 0.0
O731 O 0.41679 0.80987 1.01259 0.0
O732 O 0.43156 0.78471 0.04301 0.0
O733 O 0.43183 0.76123 1.01774 0.0
O734 O 0.40742 0.82735 0.04879 0.0
O735 O 0.3969 0.80446 0.07048 0.0
O736 O 0.36608 0.7906 0.04002 0.0
O737 O 0.36773 0.75879 0.02715 0.0
O738 O 0.37948 0.7842 0.99283 0.0
O739 O 0.37991 0.81091 1.01593 0.0
C740 C 0.42129 0.80042 0.99537 0.0
O741 O 0.40394 0.72967 1.00751 0.0
O742 O 0.38684 0.74599 0.98394 0.0
C743 C 0.44235 0.77273 0.0308 0.0
C744 C 0.39084 0.83947 0.07771 0.0
C745 C 0.37219 0.8762 0.08981 0.0
C746 C 0.3922 0.87106 0.0965 0.0
C747 C 0.4014 0.85281 0.09052 0.0
C748 C 0.37048 0.84386 0.07188 0.0
C749 C 0.36114 0.86207 0.07804 0.0
C750 C 0.40265 0.82336 0.06777 0.0
C751 C 0.35616 0.77413 0.0339 0.0
H752 H 0.39694 0.69379 0.92906 0.0
H753 H 0.38125 0.70262 0.96163 0.0
H754 H 0.43563 0.7354 0.97903 0.0
H755 H 0.45206 0.72574 0.94682 0.0
H756 H 0.40127 0.88161 0.10534 0.0
H757 H 0.41727 0.8497 0.09486 0.0
H758 H 0.36223 0.83373 0.06178 0.0
H759 H 0.34554 0.86538 0.07299 0.0
Tb760 Tb 0.03781 0.40515 0.79392 0.0
Tb761 Tb 1.00701 0.40292 0.75846 0.0
C762 C 0.99415 0.4272 0.79791 0.0
C763 C 0.07401 0.39335 0.83609 0.0
C764 C 0.08201 0.37474 0.87411 0.0
C765 C 0.09541 0.38953 0.86633 0.0
C766 C 0.09134 0.39887 0.84747 0.0
C767 C 0.0613 0.37776 0.84314 0.0
C768 C 0.0652 0.36858 0.86206 0.0
C769 C 0.06724 0.40615 0.81898 0.0
O770 O 1.01439 0.38695 0.80825 0.0
O771 O 0.9906 0.38536 0.78173 0.0
O772 O 0.02369 0.37275 0.75544 0.0
O773 O 0.03765 0.37108 0.78703 0.0
O774 O 0.98081 0.394 0.74254 0.0
O775 O 1.00562 0.40938 0.72685 0.0
O776 O 1.01376 0.43691 0.76002 0.0
O777 O 0.04355 0.43495 0.77757 0.0
O778 O 1.01216 0.42295 0.80651 0.0
O779 O 0.98905 0.42085 0.77952 0.0
C780 C 0.99678 0.38082 0.80053 0.0
O781 O 0.06899 0.39861 0.80053 0.0
O782 O 0.04936 0.41483 0.82192 0.0
C783 C 0.03091 0.36118 0.77063 0.0
C784 C 0.97125 0.41647 0.71688 0.0
C785 C 0.93489 0.4376 0.7064 0.0
C786 C 0.94152 0.42085 0.69472 0.0
C787 C 0.95956 0.41028 0.70003 0.0
C788 C 0.96549 0.43398 0.72769 0.0
C789 C 0.94743 0.44446 0.72252 0.0
C790 C 0.98674 0.40267 0.7256 0.0
C791 C 0.02934 0.44668 0.76863 0.0
H792 H 0.10874 0.39427 0.87504 0.0
H793 H 0.10118 0.41101 0.84222 0.0
H794 H 0.04769 0.37352 0.83457 0.0
H795 H 0.05445 0.35741 0.86764 0.0
H796 H 0.93238 0.41546 0.68199 0.0
H797 H 0.96376 0.39665 0.69168 0.0
H798 H 0.97423 0.43875 0.74097 0.0
H799 H 0.94269 0.45714 0.73199 0.0
Tb800 Tb 0.40307 0.2623 0.50782 0.0
Tb801 Tb 0.3993 0.29466 0.54231 0.0
C802 C 0.42425 0.25409 0.55126 0.0
C803 C 0.39431 0.22245 0.46866 0.0
C804 C 0.37604 0.18493 0.45952 0.0
C805 C 0.39599 0.1893 0.45262 0.0
C806 C 0.405 0.20791 0.45712 0.0
C807 C 0.3741 0.21862 0.47489 0.0
C808 C 0.36496 0.20007 0.47019 0.0
C809 C 0.40577 0.23957 0.477 0.0
O810 O 0.38425 0.24623 0.52946 0.0
O811 O 0.38091 0.27016 0.55525 0.0
O812 O 0.37004 0.29973 0.52439 0.0
O813 O 0.36874 0.26958 0.50816 0.0
O814 O 0.38897 0.30709 0.5697 0.0
O815 O 0.40509 0.32568 0.54753 0.0
O816 O 0.43357 0.29379 0.53569 0.0
O817 O 0.43213 0.28025 0.50412 0.0
O818 O 0.42036 0.24738 0.53264 0.0
O819 O 0.41762 0.2718 0.55803 0.0
C820 C 0.37701 0.2522 0.54727 0.0
O821 O 0.39704 0.25766 0.47643 0.0
O822 O 0.41437 0.23564 0.49465 0.0
C823 C 0.35862 0.28535 0.51608 0.0
C824 C 0.41017 0.33187 0.58283 0.0
C825 C 0.42927 0.34138 0.62018 0.0
C826 C 0.4138 0.35423 0.61194 0.0
C827 C 0.40423 0.34942 0.59342 0.0
C828 C 0.42637 0.31964 0.59034 0.0
C829 C 0.43579 0.3243 0.60892 0.0
C830 C 0.39739 0.32462 0.56601 0.0
C831 C 0.44363 0.28726 0.51931 0.0
H832 H 0.40512 0.17798 0.44463 0.0
H833 H 0.42078 0.21051 0.45254 0.0
H834 H 0.36574 0.22959 0.48409 0.0
H835 H 0.34941 0.1974 0.47538 0.0
H836 H 0.40874 0.36772 0.62002 0.0
H837 H 0.39164 0.35891 0.58782 0.0
H838 H 0.43095 0.30588 0.5824 0.0
H839 H 0.44748 0.31394 0.61488 0.0
Tb840 Tb 0.51513 0.65125 0.29394 0.0
Tb841 Tb 0.54113 0.65294 0.25491 0.0
C842 C 0.55824 0.62837 0.29333 0.0
C843 C 0.47879 0.66385 0.336 0.0
C844 C 0.46686 0.68436 0.37164 0.0
C845 C 0.45526 0.66798 0.36431 0.0
C846 C 0.46126 0.65774 0.34664 0.0
C847 C 0.48965 0.68099 0.34243 0.0
C848 C 0.48376 0.69115 0.36018 0.0
C849 C 0.48743 0.65039 0.32049 0.0
O850 O 0.53993 0.66968 0.30511 0.0
O851 O 0.56064 0.66979 0.27626 0.0
O852 O 0.52562 0.68406 0.25408 0.0
O853 O 0.51431 0.68517 0.28667 0.0
O854 O 0.56607 0.66138 0.23702 0.0
O855 O 0.53917 0.64787 0.2231 0.0
O856 O 0.53247 0.61922 0.25541 0.0
O857 O 0.51058 0.61949 0.28225 0.0
O858 O 0.54174 0.63337 0.30396 0.0
O859 O 0.56089 0.63412 0.27416 0.0
C860 C 0.55667 0.67506 0.29532 0.0
O861 O 0.48378 0.65501 0.30121 0.0
O862 O 0.50656 0.64498 0.32388 0.0
C863 C 0.51975 0.69534 0.26992 0.0
C864 C 0.57226 0.64082 0.20918 0.0
C865 C 0.60734 0.61874 0.1968 0.0
C866 C 0.60425 0.63903 0.19037 0.0
C867 C 0.58681 0.64992 0.19646 0.0
C868 C 0.5744 0.62019 0.21443 0.0
C869 C 0.59173 0.60915 0.20808 0.0
C870 C 0.55806 0.65407 0.22035 0.0
C871 C 0.52094 0.60875 0.26855 0.0
H872 H 0.44189 0.66271 0.37255 0.0
H873 H 0.45279 0.64447 0.34183 0.0
H874 H 0.50335 0.68577 0.33439 0.0
H875 H 0.4931 0.70363 0.36547 0.0
H876 H 0.61596 0.64704 0.1819 0.0
H877 H 0.58552 0.66594 0.19257 0.0
H878 H 0.5634 0.61298 0.22446 0.0
H879 H 0.59335 0.59342 0.21289 0.0
Tb880 Tb 0.14713 0.79842 1.01221 0.0
Tb881 Tb 0.15084 0.76492 0.04634 0.0
C882 C 0.12492 0.80487 0.05512 0.0
C883 C 0.15837 0.83862 0.97449 0.0
C884 C 0.17807 0.87535 0.96501 0.0
C885 C 0.16237 0.86793 0.95222 0.0
C886 C 0.15252 0.84973 0.95701 0.0
C887 C 0.17465 0.8454 0.98674 0.0
C888 C 0.18436 0.86364 0.9821 0.0
C889 C 0.14554 0.82192 0.98165 0.0
O890 O 0.16546 0.81407 0.03449 0.0
O891 O 0.16877 0.78946 0.05991 0.0
O892 O 0.17996 0.7602 0.02837 0.0
O893 O 0.18146 0.79102 1.0132 0.0
O894 O 0.16162 0.7526 0.07386 0.0
O895 O 0.14522 0.73387 0.05212 0.0
O896 O 0.11659 0.76556 0.03866 0.0
O897 O 0.11803 0.78079 1.00763 0.0
O898 O 0.12895 0.81227 0.03675 0.0
O899 O 0.13193 0.78715 0.06173 0.0
C900 C 0.17257 0.80766 0.05229 0.0
O901 O 0.15347 0.80351 0.98097 0.0
O902 O 0.13656 0.82557 0.99907 0.0
C903 C 0.19151 0.77484 1.02063 0.0
C904 C 0.14247 0.72648 0.08776 0.0
C905 C 0.12487 0.71659 0.12581 0.0
C906 C 0.14458 0.70922 0.12063 0.0
C907 C 0.15325 0.7141 0.10176 0.0
C908 C 0.12251 0.73328 0.0924 0.0
C909 C 0.1137 0.72822 0.11122 0.0
C910 C 0.1537 0.73486 0.07034 0.0
C911 C 0.10656 0.77296 1.02238 0.0
H912 H 0.15742 0.87635 0.93874 0.0
H913 H 0.13985 0.84474 0.94751 0.0
H914 H 0.17917 0.83709 1.00046 0.0
H915 H 0.19619 0.86897 0.99245 0.0
H916 H 0.15377 0.70049 0.1315 0.0
H917 H 0.16885 0.70906 0.09853 0.0
H918 H 0.1141 0.74313 0.08184 0.0
H919 H 0.09833 0.73383 0.11451 0.0
Tb920 Tb 0.78347 1.00467 0.64845 0.0
Tb921 Tb 0.75309 0.04107 0.64594 0.0
C922 C 0.74127 1.00218 0.67204 0.0
C923 C 0.82463 0.96594 0.63786 0.0
C924 C 0.83637 0.93006 0.61771 0.0
C925 C 0.8425 0.93344 0.63808 0.0
C926 C 0.83673 0.95128 0.64802 0.0
C927 C 0.81951 0.96336 0.61718 0.0
C928 C 0.82554 0.94559 0.60709 0.0
C929 C 0.81421 0.98124 0.65025 0.0
O930 O 0.76021 0.99051 0.6301 0.0
O931 O 0.73611 1.01682 0.63021 0.0
O932 O 0.77108 0.04443 0.61674 0.0
O933 O 0.78237 1.01209 0.61441 0.0
O934 O 0.72675 0.05504 0.63387 0.0
O935 O 0.74829 0.0723 0.65198 0.0
O936 O 0.76257 0.0427 0.6797 0.0
O937 O 0.78671 1.01747 0.6801 0.0
O938 O 0.75835 0.99259 0.66667 0.0
O939 O 0.73662 1.02079 0.66594 0.0
C940 C 0.74212 0.99823 0.62507 0.0
O941 O 0.81541 1.0004 0.64461 0.0
O942 O 0.79564 0.97614 0.65563 0.0
C943 C 0.77684 0.02915 0.60481 0.0
C944 C 0.71273 0.08069 0.65377 0.0
C945 C 0.67488 0.0941 0.66963 0.0
C946 C 0.68581 0.10641 0.65589 0.0
C947 C 0.70458 0.09967 0.64792 0.0
C948 C 0.70224 0.06866 0.66803 0.0
C949 C 0.68339 0.0753 0.67586 0.0
C950 C 0.73038 0.07231 0.64273 0.0
C951 C 0.77531 0.03062 0.6905 0.0
H952 H 0.85058 0.9218 0.64687 0.0
H953 H 0.84049 0.95297 0.66411 0.0
H954 H 0.80994 0.97451 0.60923 0.0
H955 H 0.82098 0.94368 0.59125 0.0
H956 H 0.67955 0.12096 0.65084 0.0
H957 H 0.71239 0.10897 0.63669 0.0
H958 H 0.70828 0.05386 0.67256 0.0
H959 H 0.67545 0.0657 0.68673 0.0
Tb960 Tb 0.78794 0.04197 0.39928 0.0
Tb961 Tb 0.75413 1.00953 0.39714 0.0
C962 C 0.79431 0.99896 0.42179 0.0
C963 C 0.82946 0.07859 0.38843 0.0
C964 C 0.86659 0.0887 0.3692 0.0
C965 C 0.85864 0.10092 0.385 0.0
C966 C 0.84025 0.09581 0.39462 0.0
C967 C 0.8367 0.06695 0.37199 0.0
C968 C 0.85516 0.07192 0.36249 0.0
C969 C 0.81279 0.071 0.4012 0.0
O970 O 0.80223 1.01945 0.37966 0.0
O971 O 0.77819 0.99364 0.38033 0.0
O972 O 0.75316 1.02126 0.36477 0.0
O973 O 0.77873 0.04446 0.36551 0.0
O974 O 0.73869 0.98271 0.39101 0.0
O975 O 0.72198 1.0098 0.40104 0.0
O976 O 0.7555 1.01671 0.43107 0.0
O977 O 0.77171 0.04675 0.42943 0.0
O978 O 0.80219 1.01664 0.41647 0.0
O979 O 0.77579 0.99323 0.41619 0.0
C980 C 0.79597 1.00117 0.37455 0.0
O981 O 0.79396 0.07305 0.39418 0.0
O982 O 0.81634 0.05291 0.40875 0.0
C983 C 0.76558 0.03342 0.35455 0.0
C984 C 0.7105 0.97738 0.41175 0.0
C985 C 0.69641 0.94445 0.43504 0.0
C986 C 0.68576 0.9507 0.41723 0.0
C987 C 0.69285 0.96703 0.40559 0.0
C988 C 0.72014 0.97235 0.43038 0.0
C989 C 0.71314 0.95598 0.44197 0.0
C990 C 0.72105 0.99028 0.39698 0.0
C991 C 0.7635 0.03232 0.44098 0.0
H992 H 0.86684 0.11418 0.39024 0.0
H993 H 0.83489 0.10484 0.40742 0.0
H994 H 0.82862 0.05343 0.36722 0.0
H995 H 0.86089 0.06204 0.35053 0.0
H996 H 0.67258 0.94235 0.41174 0.0
H997 H 0.68534 0.97072 0.39116 0.0
H998 H 0.73397 0.98009 0.43519 0.0
H999 H 0.72179 0.95149 0.45551 0.0
Tb1000 Tb 0.78967 1.01301 0.14631 0.0
Tb1001 Tb 0.75791 0.04831 0.14832 0.0
C1002 C 0.79831 0.05522 0.12335 0.0
C1003 C 0.82785 0.97154 0.15656 0.0
C1004 C 0.8645 0.96036 0.17688 0.0
C1005 C 0.86092 0.95416 0.15661 0.0
C1006 C 0.8427 0.95968 0.14657 0.0
C1007 C 0.83072 0.9768 0.17713 0.0
C1008 C 0.84886 0.97107 0.1873 0.0
C1009 C 0.81181 0.98141 0.14418 0.0
O1010 O 0.80621 0.03408 0.16544 0.0
O1011 O 0.78353 0.06158 0.16505 0.0
O1012 O 0.75501 0.0352 0.17995 0.0
O1013 O 0.78105 1.01197 0.18018 0.0
O1014 O 0.74552 0.07649 0.15602 0.0
O1015 O 0.72594 0.0526 0.1441 0.0
O1016 O 0.75801 0.04079 0.11435 0.0
O1017 O 0.77287 1.00965 0.11622 0.0
O1018 O 0.80517 0.03691 0.12866 0.0
O1019 O 0.78034 0.06257 0.12911 0.0
C1020 C 0.80112 0.05282 0.17049 0.0
O1021 O 0.79293 0.98141 0.15117 0.0
O1022 O 0.81705 0.99915 0.1371 0.0
C1023 C 0.76751 1.02317 0.19067 0.0
C1024 C 0.7165 0.08726 0.13824 0.0
C1025 C 0.70464 0.12436 0.11998 0.0
C1026 C 0.69721 0.11896 0.13943 0.0
C1027 C 0.70307 0.10051 0.14844 0.0
C1028 C 0.72285 0.09181 0.11829 0.0
C1029 C 0.71679 0.11019 0.10912 0.0
C1030 C 0.727 0.07152 0.1503 0.0
C1031 C 0.76526 1.02456 0.10456 0.0
H1032 H 0.87266 0.94613 0.14801 0.0
H1033 H 0.8408 0.95581 0.13056 0.0
H1034 H 0.81945 0.9862 0.18497 0.0
H1035 H 0.85094 0.9757 0.20306 0.0
H1036 H 0.68802 0.1295 0.14833 0.0
H1037 H 0.69833 0.09729 0.16401 0.0
H1038 H 0.73344 0.08177 0.11033 0.0
H1039 H 0.72237 0.11369 0.09392 0.0
Tb1040 Tb 0.78612 0.04712 0.89699 0.0
Tb1041 Tb 0.75515 1.01141 0.89936 0.0
C1042 C 0.74282 0.05147 0.87489 0.0
C1043 C 0.82634 0.08613 0.90752 0.0
C1044 C 0.83912 0.12136 0.928 0.0
C1045 C 0.84501 0.11779 0.90762 0.0
C1046 C 0.83872 0.1003 0.89752 0.0
C1047 C 0.8212 0.08897 0.92812 0.0
C1048 C 0.8277 0.1064 0.93837 0.0
C1049 C 0.81617 0.07076 0.89511 0.0
O1050 O 0.76333 0.06075 0.91646 0.0
O1051 O 0.73897 0.03522 0.91667 0.0
O1052 O 0.77251 1.00806 0.92925 0.0
O1053 O 0.78629 0.03935 0.93096 0.0
O1054 O 0.72831 0.9978 0.90961 0.0
O1055 O 0.75172 0.97996 0.89413 0.0
O1056 O 0.76372 1.01053 0.86546 0.0
O1057 O 0.78892 0.03414 0.86535 0.0
O1058 O 0.76009 0.06036 0.88029 0.0
O1059 O 0.73827 0.03268 0.88007 0.0
C1060 C 0.74551 0.05336 0.92214 0.0
O1061 O 0.81798 0.05161 0.90074 0.0
O1062 O 0.79741 0.07571 0.88969 0.0
C1063 C 0.77955 1.02303 0.94083 0.0
C1064 C 0.71652 0.97078 0.89058 0.0
C1065 C 0.6786 0.96065 0.87257 0.0
C1066 C 0.68366 0.95382 0.89245 0.0
C1067 C 0.70248 0.95882 0.90132 0.0
C1068 C 0.71214 0.97672 0.87036 0.0
C1069 C 0.69339 0.97151 0.86134 0.0
C1070 C 0.73324 0.98013 0.90209 0.0
C1071 C 0.77677 1.02196 0.85481 0.0
H1072 H 0.8535 0.12901 0.89901 0.0
H1073 H 0.84251 0.09844 0.88148 0.0
H1074 H 0.81142 0.07823 0.93597 0.0
H1075 H 0.82324 0.10845 0.95418 0.0
H1076 H 0.67264 0.94567 0.90167 0.0
H1077 H 0.70551 0.95445 0.91709 0.0
H1078 H 0.72273 0.98622 0.86196 0.0
H1079 H 0.6902 0.97662 0.84584 0.0
Tb1080 Tb 0.64842 0.76092 0.03723 0.0
Tb1081 Tb 0.65092 0.79891 1.00896 0.0
C1082 C 0.62763 0.7603 0.99304 0.0
C1083 C 0.65948 0.7174 0.0724 0.0
C1084 C 0.6777 0.67976 0.08273 0.0
C1085 C 0.66314 0.68887 0.09579 0.0
C1086 C 0.654 0.70752 0.09057 0.0
C1087 C 0.67493 0.70907 0.05998 0.0
C1088 C 0.68388 0.69034 0.06503 0.0
C1089 C 0.64674 0.73431 0.06488 0.0
O1090 O 0.66791 0.74877 1.01362 0.0
O1091 O 0.66985 0.7768 0.99196 0.0
O1092 O 0.68079 0.80076 0.02641 0.0
O1093 O 0.68249 0.76846 0.0383 0.0
O1094 O 0.66051 0.81561 0.98361 0.0
O1095 O 0.64458 0.83045 1.00862 0.0
O1096 O 0.61658 0.79766 1.01629 0.0
O1097 O 0.61775 0.77554 0.04289 0.0
O1098 O 0.63101 0.75066 1.01056 0.0
O1099 O 0.63392 0.77891 0.98945 0.0
C1100 C 0.67466 0.75781 0.99698 0.0
O1101 O 0.65327 0.75281 0.06818 0.0
O1102 O 0.63983 0.73191 0.04627 0.0
C1103 C 0.69239 0.78516 0.03268 0.0
C1104 C 0.63911 0.84255 0.97456 0.0
C1105 C 0.61739 0.85402 0.93885 0.0
C1106 C 0.63816 0.85934 0.94143 0.0
C1107 C 0.64887 0.85371 0.95917 0.0
C1108 C 0.61811 0.83819 0.97268 0.0
C1109 C 0.60727 0.84408 0.95504 0.0
C1110 C 0.65197 0.83238 0.99007 0.0
C1111 C 0.60646 0.7867 0.03011 0.0
H1112 H 0.65841 0.68136 0.10978 0.0
H1113 H 0.64202 0.71378 0.10025 0.0
H1114 H 0.67919 0.7165 0.04578 0.0
H1115 H 0.69489 0.68373 0.05451 0.0
H1116 H 0.64659 0.86672 0.92928 0.0
H1117 H 0.66517 0.8569 0.96027 0.0
H1118 H 0.61038 0.82936 0.98433 0.0
H1119 H 0.59118 0.84015 0.95379 0.0
Tb1120 Tb 1.01273 0.15359 0.79322 0.0
Tb1121 Tb 0.04047 0.15515 0.75588 0.0
C1122 C 0.05545 0.13051 0.79521 0.0
C1123 C 0.97248 0.16713 0.83091 0.0
C1124 C 0.95907 0.18855 0.86542 0.0
C1125 C 0.94823 0.17147 0.85856 0.0
C1126 C 0.95499 0.16076 0.84145 0.0
C1127 C 0.98228 0.18514 0.83657 0.0
C1128 C 0.97566 0.19576 0.85377 0.0
C1129 C 0.98258 0.15306 0.81692 0.0
O1130 O 0.03656 0.17219 0.80596 0.0
O1131 O 0.05902 0.17162 0.77845 0.0
O1132 O 0.02543 0.18644 0.75407 0.0
O1133 O 1.01257 0.18755 0.78604 0.0
O1134 O 0.06668 0.16271 0.73939 0.0
O1135 O 0.03996 0.15045 0.72399 0.0
O1136 O 0.03092 0.12168 0.75511 0.0
O1137 O 1.01043 0.12107 0.78297 0.0
O1138 O 0.03875 0.13608 0.80525 0.0
O1139 O 0.05877 0.13581 0.77603 0.0
C1140 C 0.054 0.17718 0.79721 0.0
O1141 O 0.98074 0.15684 0.7972 0.0
O1142 O 1.00139 0.14811 0.82235 0.0
C1143 C 1.01877 0.19772 0.76958 0.0
C1144 C 0.07316 0.14088 0.71258 0.0
C1145 C 0.10736 0.11747 0.70053 0.0
C1146 C 0.10197 0.13541 0.68981 0.0
C1147 C 0.085 0.14709 0.69588 0.0
C1148 C 0.07751 0.12223 0.72229 0.0
C1149 C 0.09448 0.11058 0.7163 0.0
C1150 C 0.05933 0.15551 0.72235 0.0
C1151 C 1.02023 0.11077 0.76859 0.0
H1152 H 0.93511 0.16585 0.86696 0.0
H1153 H 0.94733 0.14683 0.83721 0.0
H1154 H 0.99594 0.19013 0.8286 0.0
H1155 H 0.98443 0.20877 0.85869 0.0
H1156 H 0.11141 0.14089 0.67737 0.0
H1157 H 0.0819 0.16156 0.68837 0.0
H1158 H 0.06867 0.11739 0.73543 0.0
H1159 H 0.09831 0.09695 0.72498 0.0
Tb1160 Tb 0.90015 0.2633 0.51016 0.0
Tb1161 Tb 0.90175 0.29885 0.54149 0.0
C1162 C 0.87559 0.30456 0.50118 0.0
C1163 C 0.91308 0.22309 0.47325 0.0
C1164 C 0.93258 0.21335 0.43627 0.0
C1165 C 0.91639 0.20135 0.44363 0.0
C1166 C 0.90662 0.20628 0.46196 0.0
C1167 C 0.93023 0.23414 0.46684 0.0
C1168 C 0.93988 0.22935 0.44844 0.0
C1169 C 0.89943 0.23165 0.48873 0.0
O1170 O 0.91866 0.2846 0.49347 0.0
O1171 O 0.91784 0.31221 0.5154 0.0
O1172 O 0.93377 0.28604 0.54447 0.0
O1173 O 0.93411 0.26282 0.51893 0.0
O1174 O 0.90816 0.32782 0.55225 0.0
O1175 O 0.89921 0.3037 0.57325 0.0
O1176 O 0.86814 0.28972 0.54354 0.0
O1177 O 0.86927 0.26061 0.52506 0.0
O1178 O 0.88223 0.2869 0.49411 0.0
O1179 O 0.8808 0.3117 0.51923 0.0
C1180 C 0.9234 0.30342 0.49811 0.0
O1181 O 0.90606 0.23177 0.50772 0.0
O1182 O 0.89129 0.24904 0.48323 0.0
C1183 C 0.94455 0.27412 0.53217 0.0
C1184 C 0.89138 0.33806 0.58177 0.0
C1185 C 0.87037 0.37311 0.59515 0.0
C1186 C 0.89106 0.36959 0.60074 0.0
C1187 C 0.90142 0.35217 0.59413 0.0
C1188 C 0.87047 0.34079 0.57705 0.0
C1189 C 0.85997 0.35814 0.58385 0.0
C1190 C 0.90394 0.32295 0.57114 0.0
C1191 C 0.8581 0.27457 0.53464 0.0
H1192 H 0.91072 0.18865 0.43482 0.0
H1193 H 0.89327 0.19774 0.46667 0.0
H1194 H 0.93518 0.24738 0.47528 0.0
H1195 H 0.95217 0.23903 0.44318 0.0
H1196 H 0.89967 0.38083 0.60916 0.0
H1197 H 0.91768 0.35036 0.59763 0.0
H1198 H 0.86258 0.33006 0.56731 0.0
H1199 H 0.84392 0.36018 0.57964 0.0
Tb1200 Tb 0.54101 0.90353 0.76418 0.0
Tb1201 Tb 0.50552 0.9054 0.79403 0.0
C1202 C 0.51658 0.86092 0.77302 0.0
C1203 C 0.57511 0.91677 0.72107 0.0
C1204 C 0.60865 0.93827 0.70572 0.0
C1205 C 0.60165 0.92081 0.6956 0.0
C1206 C 0.58502 0.91005 0.70334 0.0
C1207 C 0.58072 0.93521 0.73005 0.0
C1208 C 0.59743 0.94589 0.72244 0.0
C1209 C 0.56216 0.90267 0.73228 0.0
O1210 O 0.53377 0.9375 0.76439 0.0
O1211 O 0.50248 0.93649 0.779 0.0
O1212 O 0.52946 0.92186 0.81091 0.0
O1213 O 0.55545 0.92245 0.78673 0.0
O1214 O 0.47343 0.90154 0.79566 0.0
O1215 O 0.49099 0.91311 0.82131 0.0
O1216 O 0.52686 0.88565 0.81072 0.0
O1217 O 0.55522 0.88668 0.78941 0.0
O1218 O 0.531 0.87091 0.76307 0.0
O1219 O 0.50342 0.87212 0.784 0.0
C1220 C 0.51754 0.94772 0.77141 0.0
O1221 O 0.56927 0.89795 0.75049 0.0
O1222 O 0.54222 0.90633 0.73212 0.0
C1223 C 0.54791 0.92745 0.8047 0.0
C1224 C 0.46355 0.89255 0.82924 0.0
C1225 C 0.45114 0.86981 0.86337 0.0
C1226 C 0.44052 0.88781 0.85783 0.0
C1227 C 0.44677 0.89916 0.84089 0.0
C1228 C 0.47327 0.8739 0.8338 0.0
C1229 C 0.46712 0.8626 0.85077 0.0
C1230 C 0.47318 0.90667 0.81501 0.0
C1231 C 0.54613 0.88083 0.80644 0.0
H1232 H 0.60973 0.91486 0.68241 0.0
H1233 H 0.5808 0.89579 0.6963 0.0
H1234 H 0.57324 0.94047 0.74388 0.0
H1235 H 0.60248 0.95921 0.73067 0.0
H1236 H 0.42792 0.89353 0.86704 0.0
H1237 H 0.43924 0.91362 0.83758 0.0
H1238 H 0.48647 0.86876 0.82505 0.0
H1239 H 0.47575 0.84892 0.85472 0.0
Tb1240 Tb 0.03636 0.15536 0.29205 0.0
Tb1241 Tb 1.00058 0.15787 0.26126 0.0
C1242 C 0.02479 0.11371 0.2687 0.0
C1243 C 0.07755 0.1676 0.32876 0.0
C1244 C 0.08997 0.18973 0.36322 0.0
C1245 C 0.10067 0.17192 0.35755 0.0
C1246 C 0.09443 0.16088 0.34046 0.0
C1247 C 0.0676 0.186 0.33358 0.0
C1248 C 0.07377 0.19701 0.35069 0.0
C1249 C 0.06827 0.15382 0.314 0.0
O1250 O 0.03801 0.18894 0.2825 0.0
O1251 O 1.01146 0.19024 0.2599 0.0
O1252 O 0.98684 0.17483 0.28643 0.0
O1253 O 1.01509 0.17492 0.30822 0.0
O1254 O 0.99811 0.15542 0.22923 0.0
O1255 O 0.97183 0.16375 0.24825 0.0
O1256 O 0.98625 0.1388 0.28361 0.0
O1257 O 1.01233 0.13809 0.308 0.0
O1258 O 0.03981 0.12494 0.27636 0.0
O1259 O 1.00844 0.12391 0.26151 0.0
C1260 C 0.02527 0.20018 0.2708 0.0
O1261 O 0.05039 0.14708 0.31966 0.0
O1262 O 0.06837 0.15943 0.29473 0.0
C1263 C 0.99607 0.18035 0.30353 0.0
C1264 C 0.96447 0.14623 0.21848 0.0
C1265 C 0.93132 0.12307 0.20429 0.0
C1266 C 0.93252 0.14392 0.19948 0.0
C1267 C 0.949 0.15536 0.20647 0.0
C1268 C 0.96414 0.12524 0.2223 0.0
C1269 C 0.94774 0.11368 0.21507 0.0
C1270 C 0.97826 0.15947 0.22983 0.0
C1271 C 0.99381 0.13295 0.30143 0.0
H1272 H 0.11344 0.16615 0.36671 0.0
H1273 H 0.10214 0.1466 0.33698 0.0
H1274 H 0.05433 0.19122 0.3248 0.0
H1275 H 0.06509 0.21056 0.35474 0.0
H1276 H 0.92011 0.15179 0.19149 0.0
H1277 H 0.94895 0.17163 0.20366 0.0
H1278 H 0.97592 0.11803 0.23175 0.0
H1279 H 0.94753 0.09758 0.21867 0.0
Tb1280 Tb 0.54064 0.15497 0.79106 0.0
Tb1281 Tb 0.50695 0.15294 0.75863 0.0
C1282 C 0.5155 0.19731 0.78094 0.0
C1283 C 0.57396 0.14173 0.83579 0.0
C1284 C 0.60794 0.1187 0.84963 0.0
C1285 C 0.60537 0.13906 0.85571 0.0
C1286 C 0.58846 0.15045 0.84887 0.0
C1287 C 0.57547 0.12102 0.83097 0.0
C1288 C 0.59229 0.1095 0.83804 0.0
C1289 C 0.56039 0.15534 0.82414 0.0
O1290 O 0.53471 0.12091 0.78858 0.0
O1291 O 0.50281 0.12319 0.7755 0.0
O1292 O 0.53296 0.13702 0.74366 0.0
O1293 O 0.55834 0.13921 0.76856 0.0
O1294 O 0.47526 0.15776 0.75308 0.0
O1295 O 0.49497 0.14297 0.73083 0.0
O1296 O 0.52808 0.17327 0.74367 0.0
O1297 O 0.55439 0.17446 0.76768 0.0
O1298 O 0.52808 0.18683 0.79312 0.0
O1299 O 0.50422 0.1866 0.76772 0.0
C1300 C 0.51808 0.11125 0.78214 0.0
O1301 O 0.56796 0.16081 0.80649 0.0
O1302 O 0.54077 0.15079 0.82303 0.0
C1303 C 0.55207 0.13382 0.75024 0.0
C1304 C 0.46788 0.16219 0.71764 0.0
C1305 C 0.45803 0.18219 0.68062 0.0
C1306 C 0.45275 0.16171 0.68367 0.0
C1307 C 0.45759 0.15184 0.70205 0.0
C1308 C 0.47245 0.18283 0.71513 0.0
C1309 C 0.46738 0.19283 0.69681 0.0
C1310 C 0.47668 0.1503 0.73458 0.0
C1311 C 0.5461 0.17985 0.74992 0.0
H1312 H 0.61715 0.14675 0.86442 0.0
H1313 H 0.58757 0.16652 0.85249 0.0
H1314 H 0.56443 0.11413 0.82073 0.0
H1315 H 0.59357 0.09372 0.83349 0.0
H1316 H 0.44585 0.15292 0.67152 0.0
H1317 H 0.45429 0.13578 0.70366 0.0
H1318 H 0.48068 0.19096 0.72695 0.0
H1319 H 0.47129 0.20872 0.69515 0.0
Tb1320 Tb 0.14786 0.2644 1.0052 0.0
Tb1321 Tb 0.14524 0.29408 0.04253 0.0
C1322 C 0.18973 0.27192 0.03122 0.0
C1323 C 0.13895 0.22657 0.96315 0.0
C1324 C 0.12135 0.21531 0.92556 0.0
C1325 C 0.14088 0.20779 0.93141 0.0
C1326 C 0.14955 0.21335 0.95008 0.0
C1327 C 0.11902 0.23328 0.95803 0.0
C1328 C 0.1102 0.22755 0.9394 0.0
C1329 C 0.15049 0.23596 0.97975 0.0
O1330 O 0.11393 0.26387 1.01324 0.0
O1331 O 0.1154 0.27709 0.04514 0.0
O1332 O 0.12718 0.31069 1.0193 0.0
O1333 O 0.12804 0.28768 0.99245 0.0
O1334 O 0.15177 0.29648 0.0741 0.0
O1335 O 0.1351 0.32016 0.05761 0.0
O1336 O 0.16362 0.31154 1.02159 0.0
O1337 O 0.1653 0.29011 0.99358 0.0
O1338 O 0.17875 0.25947 1.01981 0.0
O1339 O 0.17942 0.28564 0.04221 0.0
C1340 C 0.10395 0.27025 0.02978 0.0
O1341 O 0.15581 0.25467 0.97603 0.0
O1342 O 0.14412 0.23329 0.9986 0.0
C1343 C 0.12187 0.30489 1.00071 0.0
C1344 C 0.15756 0.33097 0.08269 0.0
C1345 C 0.17777 0.36735 0.09231 0.0
C1346 C 0.16112 0.36067 0.10422 0.0
C1347 C 0.15103 0.34265 0.09935 0.0
C1348 C 0.17485 0.33693 0.07148 0.0
C1349 C 0.18484 0.35498 0.07621 0.0
C1350 C 0.14424 0.31504 0.07468 0.0
C1351 C 0.16983 0.30721 1.00297 0.0
H1352 H 0.15002 0.19857 0.92111 0.0
H1353 H 0.16511 0.20833 0.95373 0.0
H1354 H 0.11075 0.2437 0.96793 0.0
H1355 H 0.09494 0.23325 0.93555 0.0
H1356 H 0.15554 0.36963 0.11695 0.0
H1357 H 0.13755 0.33835 0.108 0.0
H1358 H 0.17988 0.32823 0.05833 0.0
H1359 H 0.19743 0.35973 0.06655 0.0
Tb1360 Tb 0.39247 0.79387 0.50386 0.0
Tb1361 Tb 0.39622 0.7609 0.5385 0.0
C1362 C 0.35172 0.78409 0.52932 0.0
C1363 C 0.40419 0.8298 0.4623 0.0
C1364 C 0.42527 0.83755 0.42559 0.0
C1365 C 0.40864 0.85008 0.43157 0.0
C1366 C 0.39811 0.84615 0.44975 0.0
C1367 C 0.4213 0.81781 0.45693 0.0
C1368 C 0.43172 0.8216 0.4387 0.0
C1369 C 0.3909 0.82332 0.47908 0.0
O1370 O 0.42662 0.79364 0.51173 0.0
O1371 O 0.42538 0.77856 0.54283 0.0
O1372 O 0.41503 0.74686 0.51463 0.0
O1373 O 0.4117 0.77144 0.48916 0.0
O1374 O 0.38953 0.75633 0.56977 0.0
O1375 O 0.40683 0.73409 0.55226 0.0
O1376 O 0.37851 0.74464 0.51611 0.0
O1377 O 0.37477 0.76906 0.49053 0.0
O1378 O 0.36315 0.79873 0.52143 0.0
O1379 O 0.36185 0.76805 0.53698 0.0
C1380 C 0.43675 0.78641 0.528 0.0
O1381 O 0.38227 0.80582 0.47592 0.0
O1382 O 0.39827 0.82479 0.49773 0.0
C1383 C 0.41912 0.75405 0.49621 0.0
C1384 C 0.38507 0.72125 0.57697 0.0
C1385 C 0.36657 0.68396 0.58674 0.0
C1386 C 0.3817 0.69219 0.59969 0.0
C1387 C 0.39096 0.71065 0.59475 0.0
C1388 C 0.36924 0.71372 0.5646 0.0
C1389 C 0.36013 0.6952 0.56938 0.0
C1390 C 0.39768 0.738 0.56953 0.0
C1391 C 0.37132 0.75081 0.49823 0.0
H1392 H 0.40354 0.86272 0.42203 0.0
H1393 H 0.3848 0.85541 0.45364 0.0
H1394 H 0.42601 0.80494 0.46635 0.0
H1395 H 0.44427 0.81148 0.43452 0.0
H1396 H 0.38673 0.68416 0.61338 0.0
H1397 H 0.40331 0.71622 0.60435 0.0
H1398 H 0.36471 0.72161 0.55064 0.0
H1399 H 0.34874 0.68927 0.55889 0.0
Tb1400 Tb 0.79249 0.51599 0.90412 0.0
Tb1401 Tb 0.76041 0.55116 0.90048 0.0
C1402 C 0.76789 0.52793 0.94508 0.0
C1403 C 0.82906 0.47508 0.8914 0.0
C1404 C 0.86406 0.46332 0.86914 0.0
C1405 C 0.85821 0.4523 0.88666 0.0
C1406 C 0.84085 0.45822 0.89777 0.0
C1407 C 0.83414 0.48542 0.87332 0.0
C1408 C 0.85151 0.47961 0.86227 0.0
C1409 C 0.81381 0.48385 0.90522 0.0
O1410 O 0.78529 0.5172 0.86994 0.0
O1411 O 0.75497 0.53411 0.87111 0.0
O1412 O 0.78586 0.56359 0.88269 0.0
O1413 O 0.80948 0.537 0.88557 0.0
O1414 O 0.72936 0.55836 0.90686 0.0
O1415 O 0.74876 0.57883 0.88965 0.0
O1416 O 0.78371 0.56554 0.91877 0.0
O1417 O 0.80795 0.5395 0.92201 0.0
O1418 O 0.7755 0.51286 0.93391 0.0
O1419 O 0.76078 0.5441 0.93476 0.0
C1420 C 0.76947 0.52544 0.85976 0.0
O1421 O 0.81949 0.50102 0.91325 0.0
O1422 O 0.79468 0.4845 0.89871 0.0
C1423 C 0.8039 0.55507 0.87867 0.0
C1424 C 0.72458 0.59398 0.91074 0.0
C1425 C 0.71641 0.63221 0.92826 0.0
C1426 C 0.70267 0.62389 0.91392 0.0
C1427 C 0.70681 0.60495 0.90514 0.0
C1428 C 0.73778 0.60168 0.92579 0.0
C1429 C 0.73379 0.62067 0.93441 0.0
C1430 C 0.73105 0.57645 0.89856 0.0
C1431 C 0.8013 0.55817 0.92581 0.0
H1432 H 0.86737 0.43948 0.89211 0.0
H1433 H 0.83717 0.45021 0.91181 0.0
H1434 H 0.82532 0.49868 0.86839 0.0
H1435 H 0.8557 0.48856 0.84899 0.0
H1436 H 0.68891 0.63216 0.90918 0.0
H1437 H 0.69657 0.59925 0.8934 0.0
H1438 H 0.75174 0.59348 0.93009 0.0
H1439 H 0.74485 0.62665 0.94522 0.0
Tb1440 Tb 0.78724 0.55048 0.15273 0.0
Tb1441 Tb 0.75881 0.51343 0.15111 0.0
C1442 C 0.77972 0.52577 0.19562 0.0
C1443 C 0.82545 0.58969 0.13942 0.0
C1444 C 0.8376 0.62409 0.11722 0.0
C1445 C 0.8489 0.61759 0.13454 0.0
C1446 C 0.84277 0.60052 0.14562 0.0
C1447 C 0.81499 0.59522 0.12137 0.0
C1448 C 0.82099 0.61235 0.11036 0.0
C1449 C 0.81646 0.57503 0.1535 0.0
O1450 O 0.78799 0.54265 0.11889 0.0
O1451 O 0.77517 0.51097 0.12072 0.0
O1452 O 0.74097 0.53564 0.1329 0.0
O1453 O 0.76366 0.56262 0.13275 0.0
O1454 O 0.75854 0.48186 0.15704 0.0
O1455 O 0.7329 0.49739 0.14211 0.0
O1456 O 0.74038 0.53405 0.16941 0.0
O1457 O 0.76065 0.56283 0.16883 0.0
O1458 O 0.79082 0.53874 0.18491 0.0
O1459 O 0.76751 0.51342 0.18509 0.0
C1460 C 0.78182 0.52615 0.10908 0.0
O1461 O 0.79764 0.57959 0.15893 0.0
O1462 O 0.81894 0.55566 0.14923 0.0
C1463 C 0.74637 0.55406 0.12703 0.0
C1464 C 0.72462 0.47104 0.16388 0.0
C1465 C 0.68857 0.45897 0.18383 0.0
C1466 C 0.69646 0.44751 0.16743 0.0
C1467 C 0.71433 0.45361 0.15744 0.0
C1468 C 0.71773 0.48162 0.18115 0.0
C1469 C 0.69981 0.47568 0.19103 0.0
C1470 C 0.73958 0.48044 0.15031 0.0
C1471 C 0.74379 0.55318 0.17413 0.0
H1472 H 0.86203 0.62608 0.13993 0.0
H1473 H 0.85093 0.59641 0.15959 0.0
H1474 H 0.80144 0.58703 0.11651 0.0
H1475 H 0.81187 0.61702 0.09718 0.0
H1476 H 0.68839 0.43433 0.1618 0.0
H1477 H 0.71942 0.44541 0.14399 0.0
H1478 H 0.72539 0.49532 0.1861 0.0
H1479 H 0.6941 0.48499 0.20345 0.0
Tb1480 Tb 0.78732 0.50992 0.40237 0.0
Tb1481 Tb 0.75805 0.54664 0.40406 0.0
C1482 C 0.77962 0.53483 0.35972 0.0
C1483 C 0.82617 0.47039 0.41575 0.0
C1484 C 0.8377 0.43447 0.4363 0.0
C1485 C 0.8498 0.44198 0.42019 0.0
C1486 C 0.84396 0.45979 0.40989 0.0
C1487 C 0.81502 0.46395 0.43287 0.0
C1488 C 0.82069 0.44605 0.44303 0.0
C1489 C 0.81727 0.48553 0.40185 0.0
O1490 O 0.78743 0.51731 0.43639 0.0
O1491 O 0.77386 0.549 0.43479 0.0
O1492 O 0.74069 0.52405 0.4218 0.0
O1493 O 0.76379 0.49687 0.42116 0.0
O1494 O 0.75803 0.57827 0.39895 0.0
O1495 O 0.73157 0.56301 0.4118 0.0
O1496 O 0.74 0.52645 0.38542 0.0
O1497 O 0.76137 0.49802 0.38497 0.0
O1498 O 0.79143 0.52229 0.37061 0.0
O1499 O 0.76663 0.54669 0.37011 0.0
C1500 C 0.78091 0.53375 0.44633 0.0
O1501 O 0.79875 0.48113 0.39553 0.0
O1502 O 0.81907 0.50473 0.4069 0.0
C1503 C 0.74632 0.50529 0.42695 0.0
C1504 C 0.72469 0.58961 0.38952 0.0
C1505 C 0.69056 0.6015 0.36572 0.0
C1506 C 0.69534 0.61197 0.38382 0.0
C1507 C 0.71229 0.60598 0.39571 0.0
C1508 C 0.72092 0.58015 0.37071 0.0
C1509 C 0.70398 0.58606 0.35886 0.0
C1510 C 0.73865 0.57993 0.40426 0.0
C1511 C 0.74408 0.50761 0.37991 0.0
H1512 H 0.86327 0.43365 0.41499 0.0
H1513 H 0.85266 0.46462 0.39664 0.0
H1514 H 0.80112 0.47198 0.43744 0.0
H1515 H 0.81094 0.44067 0.45527 0.0
H1516 H 0.68544 0.62415 0.38928 0.0
H1517 H 0.71496 0.6133 0.41031 0.0
H1518 H 0.7302 0.56725 0.36589 0.0
H1519 H 0.70061 0.57756 0.34511 0.0
Tb1520 Tb 0.7924 0.54528 0.65134 0.0
Tb1521 Tb 0.75879 0.51242 0.65437 0.0
C1522 C 0.76727 0.53518 0.61017 0.0
C1523 C 0.83354 0.58201 0.66196 0.0
C1524 C 0.87181 0.59084 0.67991 0.0
C1525 C 0.86283 0.60423 0.66542 0.0
C1526 C 0.84387 0.59976 0.65643 0.0
C1527 C 0.84185 0.56918 0.67717 0.0
C1528 C 0.86087 0.57348 0.68599 0.0
C1529 C 0.81616 0.57519 0.64959 0.0
O1530 O 0.78536 0.54491 0.6855 0.0
O1531 O 0.75467 0.52935 0.68406 0.0
O1532 O 0.78326 0.49793 0.67261 0.0
O1533 O 0.8081 0.52284 0.67007 0.0
O1534 O 0.72701 0.50923 0.64903 0.0
O1535 O 0.74535 0.4853 0.66361 0.0
O1536 O 0.78112 0.49635 0.63596 0.0
O1537 O 0.80697 0.52035 0.63448 0.0
O1538 O 0.77494 0.54984 0.62171 0.0
O1539 O 0.75978 0.51926 0.62017 0.0
C1540 C 0.76937 0.53737 0.69553 0.0
O1541 O 0.81955 0.55786 0.64057 0.0
O1542 O 0.79783 0.57617 0.65782 0.0
C1543 C 0.80166 0.50514 0.67685 0.0
C1544 C 0.71783 0.47474 0.64385 0.0
C1545 C 0.70618 0.43945 0.62286 0.0
C1546 C 0.70111 0.44203 0.64362 0.0
C1547 C 0.70683 0.45957 0.65396 0.0
C1548 C 0.72219 0.47277 0.62295 0.0
C1549 C 0.71622 0.45531 0.61247 0.0
C1550 C 0.72739 0.49054 0.65618 0.0
C1551 C 0.79939 0.50236 0.63 0.0
H1552 H 0.87063 0.61794 0.66071 0.0
H1553 H 0.83768 0.60972 0.64457 0.0
H1554 H 0.83415 0.55525 0.68142 0.0
H1555 H 0.86738 0.56268 0.69688 0.0
H1556 H 0.69371 0.43008 0.65224 0.0
H1557 H 0.70366 0.46076 0.6702 0.0
H1558 H 0.73091 0.48429 0.61498 0.0
H1559 H 0.72001 0.45401 0.5964 0.0
Tb1560 Tb 0.5411 0.14971 0.25676 0.0
Tb1561 Tb 0.50759 0.15279 0.2887 0.0
C1562 C 0.4959 0.13218 0.24769 0.0
C1563 C 0.58153 0.15891 0.2178 0.0
C1564 C 0.59353 0.1811 0.18303 0.0
C1565 C 0.59688 0.15993 0.18412 0.0
C1566 C 0.59099 0.14897 0.2014 0.0
C1567 C 0.57888 0.1801 0.21727 0.0
C1568 C 0.58502 0.19116 0.20007 0.0
C1569 C 0.57176 0.14651 0.23355 0.0
O1570 O 0.52027 0.17092 0.24168 0.0
O1571 O 0.4938 0.17265 0.26523 0.0
O1572 O 0.51992 0.18451 0.29078 0.0
O1573 O 0.54437 0.18318 0.26623 0.0
O1574 O 0.48043 0.15934 0.30413 0.0
O1575 O 0.50765 0.14824 0.32063 0.0
O1576 O 0.51295 0.11847 0.28615 0.0
O1577 O 0.54455 0.11915 0.2726 0.0
O1578 O 0.51501 0.1348 0.24124 0.0
O1579 O 0.48978 0.13761 0.26603 0.0
C1580 C 0.5022 0.17794 0.24763 0.0
O1581 O 0.57305 0.15262 0.25257 0.0
O1582 O 0.55327 0.1407 0.22872 0.0
C1583 C 0.53297 0.19443 0.27901 0.0
C1584 C 0.47464 0.13875 0.33227 0.0
C1585 C 0.44078 0.11692 0.34654 0.0
C1586 C 0.44751 0.13425 0.35706 0.0
C1587 C 0.46431 0.14516 0.34988 0.0
C1588 C 0.46914 0.12053 0.32277 0.0
C1589 C 0.4523 0.10967 0.32985 0.0
C1590 C 0.48797 0.15299 0.32165 0.0
C1591 C 0.52916 0.10798 0.27945 0.0
H1592 H 0.60305 0.15159 0.17123 0.0
H1593 H 0.59283 0.13256 0.20148 0.0
H1594 H 0.57135 0.18797 0.22976 0.0
H1595 H 0.58258 0.20748 0.19991 0.0
H1596 H 0.43916 0.13995 0.37021 0.0
H1597 H 0.46837 0.15929 0.35728 0.0
H1598 H 0.47687 0.11554 0.30898 0.0
H1599 H 0.44744 0.09648 0.32131 0.0
Tb1600 Tb 0.04631 0.90299 0.7899 0.0
Tb1601 Tb 1.01583 0.90514 0.75333 0.0
C1602 C 0.05679 0.87935 0.74898 0.0
C1603 C 0.07904 0.91478 0.83505 0.0
C1604 C 0.11288 0.93736 0.84872 0.0
C1605 C 0.11076 0.91684 0.85451 0.0
C1606 C 0.09394 0.9057 0.84778 0.0
C1607 C 0.08019 0.93558 0.83038 0.0
C1608 C 0.0969 0.94685 0.83736 0.0
C1609 C 0.06554 0.90147 0.82339 0.0
O1610 O 0.06369 0.92202 0.7697 0.0
O1611 O 0.04262 0.92099 0.74105 0.0
O1612 O 1.01114 0.93633 0.76665 0.0
O1613 O 0.0372 0.93674 0.78974 0.0
O1614 O 1.00684 0.91322 0.72381 0.0
O1615 O 0.98438 0.90216 0.74566 0.0
O1616 O 1.01246 0.87178 0.76292 0.0
O1617 O 0.03388 0.87108 0.79049 0.0
O1618 O 0.06354 0.8858 0.76687 0.0
O1619 O 0.03867 0.88445 0.74135 0.0
C1620 C 0.0596 0.92668 0.7505 0.0
O1621 O 0.04593 0.90637 0.822 0.0
O1622 O 0.07328 0.896 0.80586 0.0
C1623 C 0.02346 0.94714 0.77847 0.0
C1624 C 0.97877 0.89617 0.71017 0.0
C1625 C 0.9637 0.87947 0.67373 0.0
C1626 C 0.95134 0.89285 0.68519 0.0
C1627 C 0.95891 0.90125 0.70326 0.0
C1628 C 0.99077 0.88204 0.69928 0.0
C1629 C 0.98331 0.87384 0.68109 0.0
C1630 C 0.9878 0.90799 0.72676 0.0
C1631 C 0.02259 0.86085 0.77716 0.0
H1632 H 0.12277 0.90888 0.863 0.0
H1633 H 0.09341 0.88956 0.85123 0.0
H1634 H 0.0689 0.94277 0.82034 0.0
H1635 H 0.09778 0.96274 0.83302 0.0
H1636 H 0.93613 0.89733 0.67982 0.0
H1637 H 0.94958 0.9123 0.7114 0.0
H1638 H 1.00618 0.87798 0.7044 0.0
H1639 H 0.99292 0.86322 0.67269 0.0
Tb1640 Tb 0.53836 0.90319 0.29312 0.0
Tb1641 Tb 0.50763 0.89997 0.25806 0.0
C1642 C 0.49301 0.92211 0.29779 0.0
C1643 C 0.57625 0.89631 0.336 0.0
C1644 C 0.58563 0.88096 0.37517 0.0
C1645 C 0.5935 0.89974 0.36872 0.0
C1646 C 0.58886 0.90732 0.34925 0.0
C1647 C 0.5692 0.8771 0.34184 0.0
C1648 C 0.57401 0.86939 0.36127 0.0
C1649 C 0.56763 0.9068 0.31814 0.0
O1650 O 0.51604 0.8837 0.3074 0.0
O1651 O 0.49247 0.88062 0.28087 0.0
O1652 O 0.52453 0.86998 0.25509 0.0
O1653 O 0.53973 0.86904 0.2862 0.0
O1654 O 0.48168 0.89145 0.24148 0.0
O1655 O 0.50729 0.90622 0.22642 0.0
O1656 O 0.51284 0.93426 0.26061 0.0
O1657 O 0.54371 0.93241 0.27578 0.0
O1658 O 0.51171 0.91989 0.30569 0.0
O1659 O 0.48816 0.91547 0.27947 0.0
C1660 C 0.49892 0.87636 0.29968 0.0
O1661 O 0.56972 0.89819 0.3002 0.0
O1662 O 0.54912 0.91403 0.32099 0.0
C1663 C 0.5326 0.85878 0.27013 0.0
C1664 C 0.47341 0.91395 0.2154 0.0
C1665 C 0.43808 0.9362 0.20387 0.0
C1666 C 0.44401 0.91874 0.19289 0.0
C1667 C 0.46156 0.90763 0.19871 0.0
C1668 C 0.46837 0.93209 0.22548 0.0
C1669 C 0.45083 0.94315 0.21976 0.0
C1670 C 0.4883 0.89987 0.22467 0.0
C1671 C 0.52888 0.94419 0.26808 0.0
H1672 H 0.6023 0.90914 0.37905 0.0
H1673 H 0.5941 0.92236 0.345 0.0
H1674 H 0.55921 0.86856 0.3318 0.0
H1675 H 0.56809 0.85465 0.36563 0.0
H1676 H 0.43465 0.91323 0.18037 0.0
H1677 H 0.4652 0.89353 0.19092 0.0
H1678 H 0.4772 0.93697 0.23864 0.0
H1679 H 0.44659 0.95638 0.22868 0.0
Tb1680 Tb 0.90073 0.7627 1.00753 0.0
Tb1681 Tb 0.89776 0.7948 0.04214 0.0
C1682 C 0.923 0.75408 0.05004 0.0
C1683 C 0.88843 0.72402 0.96918 0.0
C1684 C 0.86876 0.68708 0.9608 0.0
C1685 C 0.88461 0.6941 0.94804 0.0
C1686 C 0.89445 0.7124 0.95229 0.0
C1687 C 0.8719 0.7177 0.98127 0.0
C1688 C 0.86219 0.69936 0.97717 0.0
C1689 C 0.90156 0.74046 0.97632 0.0
O1690 O 0.88261 0.74643 0.02967 0.0
O1691 O 0.87976 0.77025 0.05559 0.0
O1692 O 0.86804 0.8 0.02498 0.0
O1693 O 0.86641 0.76986 1.00886 0.0
O1694 O 0.88842 0.80702 0.06997 0.0
O1695 O 0.90329 0.82588 0.04711 0.0
O1696 O 0.93197 0.79401 0.03515 0.0
O1697 O 0.9305 0.77963 1.00391 0.0
O1698 O 0.91835 0.74724 0.03166 0.0
O1699 O 0.91674 0.77186 0.05698 0.0
C1700 C 0.87579 0.75228 0.04767 0.0
O1701 O 0.89365 0.7589 0.97625 0.0
O1702 O 0.91108 0.73617 0.99343 0.0
C1703 C 0.85644 0.78565 1.01689 0.0
C1704 C 0.90961 0.83232 0.08215 0.0
C1705 C 0.93025 0.84257 0.11843 0.0
C1706 C 0.91384 0.85478 0.11107 0.0
C1707 C 0.90353 0.8496 0.09307 0.0
C1708 C 0.92664 0.82071 0.08878 0.0
C1709 C 0.93686 0.82576 0.10683 0.0
C1710 C 0.89635 0.82471 0.06589 0.0
C1711 C 0.94201 0.78693 1.01897 0.0
H1712 H 0.88976 0.68522 0.93507 0.0
H1713 H 0.90734 0.71701 0.94294 0.0
H1714 H 0.86728 0.72638 0.99457 0.0
H1715 H 0.85023 0.69437 0.98748 0.0
H1716 H 0.90867 0.86804 0.11945 0.0
H1717 H 0.8903 0.85861 0.08815 0.0
H1718 H 0.93134 0.80715 0.08057 0.0
H1719 H 0.94929 0.81593 0.11215 0.0
Tb1720 Tb 0.6498 0.29974 0.51121 0.0
Tb1721 Tb 0.65154 0.26854 0.5475 0.0
C1722 C 0.62691 0.30956 0.55324 0.0
C1723 C 0.66112 0.33955 0.47293 0.0
C1724 C 0.67891 0.37734 0.46374 0.0
C1725 C 0.66453 0.36866 0.45027 0.0
C1726 C 0.65561 0.34995 0.45491 0.0
C1727 C 0.67627 0.34755 0.48583 0.0
C1728 C 0.68502 0.36631 0.48135 0.0
C1729 C 0.64863 0.32254 0.48002 0.0
O1730 O 0.6689 0.31562 0.53305 0.0
O1731 O 0.6688 0.29342 0.56077 0.0
O1732 O 0.68292 0.26429 0.534 0.0
O1733 O 0.68368 0.29033 0.51105 0.0
O1734 O 0.65898 0.25688 0.57629 0.0
O1735 O 0.64644 0.23733 0.55267 0.0
O1736 O 0.61776 0.26914 0.53888 0.0
O1737 O 0.62001 0.28282 0.50718 0.0
O1738 O 0.63279 0.31606 0.53505 0.0
O1739 O 0.63205 0.29161 0.56079 0.0
C1740 C 0.67427 0.31057 0.5519 0.0
O1741 O 0.65709 0.30437 0.48005 0.0
O1742 O 0.63898 0.32627 0.49702 0.0
C1743 C 0.6939 0.27654 0.52231 0.0
C1744 C 0.63804 0.23088 0.58738 0.0
C1745 C 0.61681 0.22091 0.62332 0.0
C1746 C 0.63361 0.2089 0.61684 0.0
C1747 C 0.64421 0.21393 0.59903 0.0
C1748 C 0.62049 0.24212 0.59298 0.0
C1749 C 0.60995 0.23719 0.61085 0.0
C1750 C 0.65198 0.2389 0.57193 0.0
C1751 C 0.60817 0.27578 0.5221 0.0
H1752 H 0.6598 0.37652 0.43637 0.0
H1753 H 0.64379 0.34403 0.44489 0.0
H1754 H 0.6805 0.33982 0.49997 0.0
H1755 H 0.69582 0.37257 0.49224 0.0
H1756 H 0.63897 0.196 0.62589 0.0
H1757 H 0.65784 0.20523 0.59493 0.0
H1758 H 0.61571 0.25543 0.58421 0.0
H1759 H 0.59718 0.24683 0.61545 0.0
Tb1760 Tb 0.28815 0.50743 0.15006 0.0
Tb1761 Tb 0.25363 0.53966 0.14632 0.0
C1762 C 0.24572 0.50012 0.17257 0.0
C1763 C 0.32799 0.46928 0.13829 0.0
C1764 C 0.33763 0.43236 0.11894 0.0
C1765 C 0.35022 0.43968 0.13482 0.0
C1766 C 0.34533 0.45798 0.14451 0.0
C1767 C 0.31613 0.46273 0.12166 0.0
C1768 C 0.32085 0.44438 0.1121 0.0
C1769 C 0.32012 0.48553 0.15133 0.0
O1770 O 0.26612 0.4905 0.13249 0.0
O1771 O 0.23998 0.5146 0.12902 0.0
O1772 O 0.27075 0.5445 0.11689 0.0
O1773 O 0.28654 0.51392 0.11571 0.0
O1774 O 0.22581 0.55224 0.1362 0.0
O1775 O 0.24838 0.57083 0.15185 0.0
O1776 O 0.26074 0.53971 0.18055 0.0
O1777 O 0.29207 0.52471 0.17954 0.0
O1778 O 0.26429 0.49292 0.16847 0.0
O1779 O 0.23864 0.51759 0.16539 0.0
C1780 C 0.24792 0.49633 0.12557 0.0
O1781 O 0.31975 0.50399 0.14362 0.0
O1782 O 0.3029 0.48097 0.16032 0.0
C1783 C 0.27877 0.52984 0.10551 0.0
C1784 C 0.21314 0.57707 0.15816 0.0
C1785 C 0.17859 0.59004 0.18011 0.0
C1786 C 0.18982 0.60407 0.16851 0.0
C1787 C 0.20697 0.59755 0.15741 0.0
C1788 C 0.20251 0.56328 0.17062 0.0
C1789 C 0.18519 0.5697 0.18136 0.0
C1790 C 0.22952 0.56972 0.14476 0.0
C1791 C 0.27705 0.5326 0.19081 0.0
H1792 H 0.36348 0.43098 0.14015 0.0
H1793 H 0.35451 0.46281 0.15747 0.0
H1794 H 0.30249 0.47119 0.11688 0.0
H1795 H 0.31067 0.43914 0.10011 0.0
H1796 H 0.18489 0.61986 0.16749 0.0
H1797 H 0.21506 0.60833 0.14786 0.0
H1798 H 0.20719 0.54742 0.1715 0.0
H1799 H 0.17683 0.55876 0.19048 0.0
Tb1800 Tb 0.28698 0.54403 0.89964 0.0
Tb1801 Tb 0.25696 0.50844 0.89781 0.0
C1802 C 0.29794 0.50239 0.92283 0.0
C1803 C 0.32237 0.58546 0.88705 0.0
C1804 C 0.35791 0.59729 0.86613 0.0
C1805 C 0.35092 0.60845 0.88311 0.0
C1806 C 0.33329 0.60248 0.89357 0.0
C1807 C 0.3284 0.57517 0.86929 0.0
C1808 C 0.34608 0.58101 0.85892 0.0
C1809 C 0.30745 0.57622 0.90074 0.0
O1810 O 0.30422 0.52297 0.88077 0.0
O1811 O 0.28275 0.49506 0.88129 0.0
O1812 O 0.25393 0.52038 0.86564 0.0
O1813 O 0.27819 0.54482 0.86569 0.0
O1814 O 0.24495 0.48005 0.89125 0.0
O1815 O 0.22509 0.50475 0.90187 0.0
O1816 O 0.2572 0.51573 0.9318 0.0
O1817 O 0.27083 0.54702 0.93006 0.0
O1818 O 0.30404 0.52073 0.91733 0.0
O1819 O 0.28019 0.49476 0.91715 0.0
C1820 C 0.29992 0.50409 0.87583 0.0
O1821 O 0.28831 0.57564 0.89439 0.0
O1822 O 0.31371 0.55886 0.9084 0.0
C1823 C 0.26554 0.533 0.85503 0.0
C1824 C 0.21741 0.47091 0.91147 0.0
C1825 C 0.20575 0.43623 0.93347 0.0
C1826 C 0.19438 0.44265 0.91617 0.0
C1827 C 0.20026 0.45986 0.90518 0.0
C1828 C 0.22786 0.4655 0.92957 0.0
C1829 C 0.22208 0.44824 0.9405 0.0
C1830 C 0.22653 0.48536 0.89727 0.0
C1831 C 0.2639 0.53198 0.94167 0.0
H1832 H 0.35949 0.6213 0.88877 0.0
H1833 H 0.32884 0.61045 0.90738 0.0
H1834 H 0.32024 0.56179 0.86425 0.0
H1835 H 0.35112 0.57194 0.84604 0.0
H1836 H 0.18146 0.43393 0.91067 0.0
H1837 H 0.19214 0.46385 0.89115 0.0
H1838 H 0.24131 0.47382 0.93446 0.0
H1839 H 0.23124 0.44363 0.95368 0.0
Tb1840 Tb 0.28893 0.51389 0.64667 0.0
Tb1841 Tb 0.25743 0.5489 0.64817 0.0
C1842 C 0.29824 0.55594 0.62385 0.0
C1843 C 0.32584 0.47307 0.65984 0.0
C1844 C 0.36128 0.46146 0.68184 0.0
C1845 C 0.35497 0.45023 0.66469 0.0
C1846 C 0.33738 0.45609 0.65368 0.0
C1847 C 0.33123 0.48347 0.67772 0.0
C1848 C 0.34886 0.47774 0.68863 0.0
C1849 C 0.31069 0.48204 0.64584 0.0
O1850 O 0.30523 0.53505 0.66593 0.0
O1851 O 0.28261 0.56258 0.6652 0.0
O1852 O 0.25414 0.5362 0.67996 0.0
O1853 O 0.28019 0.51306 0.68054 0.0
O1854 O 0.24423 0.57682 0.65552 0.0
O1855 O 0.22558 0.55258 0.64286 0.0
O1856 O 0.25823 0.54161 0.61414 0.0
O1857 O 0.27265 0.51037 0.61631 0.0
O1858 O 0.30496 0.53755 0.62912 0.0
O1859 O 0.28024 0.5633 0.62948 0.0
C1860 C 0.30009 0.5538 0.67093 0.0
O1861 O 0.29149 0.48232 0.65188 0.0
O1862 O 0.3163 0.49949 0.63825 0.0
C1863 C 0.26656 0.52425 0.69088 0.0
C1864 C 0.21716 0.58684 0.63461 0.0
C1865 C 0.20604 0.62326 0.61475 0.0
C1866 C 0.19387 0.61561 0.63073 0.0
C1867 C 0.1995 0.59754 0.64069 0.0
C1868 C 0.22832 0.59343 0.61756 0.0
C1869 C 0.22285 0.61158 0.60774 0.0
C1870 C 0.2262 0.57171 0.64846 0.0
C1871 C 0.26534 0.52528 0.60447 0.0
H1872 H 0.36401 0.43739 0.65934 0.0
H1873 H 0.33342 0.44804 0.6398 0.0
H1874 H 0.32255 0.4968 0.68248 0.0
H1875 H 0.35337 0.48685 0.70163 0.0
H1876 H 0.18054 0.62402 0.63614 0.0
H1877 H 0.19083 0.59262 0.65393 0.0
H1878 H 0.24216 0.58538 0.61286 0.0
H1879 H 0.23266 0.61707 0.59559 0.0
Tb1880 Tb 0.2856 0.54732 0.39593 0.0
Tb1881 Tb 0.25449 0.51259 0.39965 0.0
C1882 C 0.24137 0.55203 0.37505 0.0
C1883 C 0.32195 0.58827 0.4072 0.0
C1884 C 0.3309 0.62438 0.42799 0.0
C1885 C 0.34312 0.61802 0.41143 0.0
C1886 C 0.3386 0.6001 0.40104 0.0
C1887 C 0.31032 0.59398 0.42429 0.0
C1888 C 0.31472 0.61194 0.43459 0.0
C1889 C 0.31491 0.57183 0.39409 0.0
O1890 O 0.26265 0.56177 0.41486 0.0
O1891 O 0.23884 0.53595 0.41789 0.0
O1892 O 0.2717 0.50943 0.42955 0.0
O1893 O 0.28608 0.54045 0.4302 0.0
O1894 O 0.22834 0.4974 0.40937 0.0
O1895 O 0.25292 0.48117 0.39376 0.0
O1896 O 0.26084 0.51398 0.36534 0.0
O1897 O 0.29095 0.53045 0.36646 0.0
O1898 O 0.25957 0.56014 0.37846 0.0
O1899 O 0.23627 0.53395 0.38197 0.0
C1900 C 0.2453 0.55447 0.42196 0.0
O1901 O 0.31694 0.55326 0.40129 0.0
O1902 O 0.2968 0.57522 0.38599 0.0
C1903 C 0.27924 0.52448 0.44063 0.0
C1904 C 0.21844 0.47173 0.38765 0.0
C1905 C 0.18173 0.46102 0.36787 0.0
C1906 C 0.18946 0.44917 0.38426 0.0
C1907 C 0.20767 0.45458 0.39417 0.0
C1908 C 0.21162 0.48275 0.37044 0.0
C1909 C 0.19336 0.47748 0.36065 0.0
C1910 C 0.23414 0.48035 0.40095 0.0
C1911 C 0.27648 0.52193 0.35512 0.0
H1912 H 0.35593 0.62707 0.40625 0.0
H1913 H 0.3476 0.5959 0.38776 0.0
H1914 H 0.29724 0.58507 0.42905 0.0
H1915 H 0.30487 0.61648 0.44714 0.0
H1916 H 0.18107 0.43616 0.3899 0.0
H1917 H 0.21272 0.44605 0.40757 0.0
H1918 H 0.21966 0.49622 0.36542 0.0
H1919 H 0.18779 0.4871 0.34825 0.0
H1920 H 0.02975 0.48086 0.24277 0.0
H1921 H 0.02172 0.58393 0.31317 0.0
H1922 H 1.00393 0.47812 0.30314 0.0
H1923 H 1.01329 0.58723 0.24794 0.0
H1924 H 1.02098 0.54617 0.31098 0.0
H1925 H 0.02956 0.51858 0.24502 0.0
C1926 C 0.02394 0.48786 0.25658 0.0
C1927 C 1.0165 0.47506 0.27258 0.0
C1928 C 1.01928 0.55502 0.29703 0.0
C1929 C 1.01706 0.52036 0.27573 0.0
C1930 C 1.01972 0.57705 0.29828 0.0
C1931 C 1.0173 0.59003 0.2808 0.0
C1932 C 1.01717 0.54469 0.27797 0.0
C1933 C 1.01497 0.57882 0.26216 0.0
C1934 C 0.02387 0.50988 0.25788 0.0
C1935 C 1.00958 0.48641 0.29 0.0
N1936 N 1.01522 0.55757 0.26131 0.0
N1937 N 1.01027 0.50764 0.2911 0.0
H1938 H 0.82574 0.75767 0.54892 0.0
H1939 H 0.71296 0.76944 0.49534 0.0
H1940 H 0.82001 0.78537 0.48936 0.0
H1941 H 0.71948 0.77903 0.56008 0.0
H1942 H 0.75082 0.76912 0.49205 0.0
H1943 H 0.78788 0.75913 0.55243 0.0
C1944 C 0.81674 0.76387 0.53629 0.0
C1945 C 0.8272 0.77118 0.51862 0.0
C1946 C 0.74417 0.7712 0.50708 0.0
C1947 C 0.78178 0.77264 0.52265 0.0
C1948 C 0.72212 0.77128 0.50908 0.0
C1949 C 0.71187 0.77416 0.52813 0.0
C1950 C 0.75732 0.77333 0.5243 0.0
C1951 C 0.72576 0.77669 0.54495 0.0
C1952 C 0.79471 0.76482 0.53847 0.0
C1953 C 0.81354 0.7793 0.50332 0.0
N1954 N 0.74716 0.7759 0.54268 0.0
N1955 N 0.79215 0.77947 0.50556 0.0
H1956 H 0.51605 0.47754 0.81192 0.0
H1957 H 0.51501 0.58031 0.74036 0.0
H1958 H 0.53548 0.47429 0.74922 0.0
H1959 H 0.53393 0.5834 0.80339 0.0
H1960 H 0.516 0.54255 0.74292 0.0
H1961 H 0.51612 0.51527 0.80929 0.0
C1962 C 0.5204 0.48445 0.79751 0.0
C1963 C 0.52612 0.47154 0.78094 0.0
C1964 C 0.51998 0.55136 0.75629 0.0
C1965 C 0.52535 0.51675 0.77743 0.0
C1966 C 0.51942 0.57337 0.75482 0.0
C1967 C 0.52471 0.58624 0.77152 0.0
C1968 C 0.52506 0.54101 0.77493 0.0
C1969 C 0.52998 0.57502 0.78973 0.0
C1970 C 0.52042 0.50644 0.796 0.0
C1971 C 0.53124 0.48271 0.76279 0.0
N1972 N 0.52974 0.5538 0.79092 0.0
N1973 N 0.53047 0.50393 0.76154 0.0
H1974 H 0.82551 0.25071 0.03477 0.0
H1975 H 0.71749 0.31642 1.02255 0.0
H1976 H 0.82575 0.315 1.02244 0.0
H1977 H 0.72029 0.25156 1.01482 0.0
H1978 H 0.75556 0.31669 0.02562 0.0
H1979 H 0.78761 0.25109 0.03109 0.0
C1980 C 0.81784 0.2651 0.03154 0.0
C1981 C 0.82998 0.28288 0.02922 0.0
C1982 C 0.748 0.30231 1.02319 0.0
C1983 C 0.78448 0.28344 0.02489 0.0
C1984 C 0.72583 0.30213 1.02134 0.0
C1985 C 0.71454 0.28395 1.01805 0.0
C1986 C 0.76004 0.2841 1.02237 0.0
C1987 C 0.72742 0.26618 1.01705 0.0
C1988 C 0.79576 0.26525 0.02929 0.0
C1989 C 0.81793 0.30072 1.02465 0.0
N1990 N 0.74877 0.26673 1.01931 0.0
N1991 N 0.79649 0.30052 1.02288 0.0
H1992 H 0.26655 0.06037 0.47441 0.0
H1993 H 0.27654 0.99328 0.58105 0.0
H1994 H 0.27497 0.99543 0.47344 0.0
H1995 H 0.28518 0.05798 0.57935 0.0
H1996 H 0.2734 0.99344 0.54318 0.0
H1997 H 0.27027 0.0596 0.5121 0.0
C1998 C 0.26892 0.04577 0.48186 0.0
C1999 C 0.27012 0.02793 0.46956 0.0
C2000 C 0.27605 1.0077 0.55093 0.0
C2001 C 0.27456 1.02692 0.51488 0.0
C2002 C 0.27796 1.00763 0.573 0.0
C2003 C 0.28148 1.02562 0.58457 0.0
C2004 C 0.27712 1.02599 0.53923 0.0
C2005 C 0.28273 0.04348 0.57202 0.0
C2006 C 0.27121 0.04538 0.50384 0.0
C2007 C 0.27364 1.00979 0.48137 0.0
N2008 N 0.28046 0.04317 0.55075 0.0
N2009 N 0.27552 1.00981 0.50272 0.0
H2010 H 0.28574 0.05849 0.72179 0.0
H2011 H 0.29338 1.00246 0.83329 0.0
H2012 H 0.27574 0.99415 0.72675 0.0
H2013 H 0.26737 0.06271 0.82805 0.0
H2014 H 0.29309 0.99977 0.79552 0.0
H2015 H 0.28508 0.06095 0.75953 0.0
C2016 C 0.28361 0.04466 0.73058 0.0
C2017 C 0.28094 1.02599 0.71991 0.0
C2018 C 0.28752 1.01371 0.80244 0.0
C2019 C 0.28056 0.02882 0.76527 0.0
C2020 C 0.28779 1.01539 0.82444 0.0
C2021 C 0.28056 0.03299 0.83503 0.0
C2022 C 0.28053 0.02994 0.78968 0.0
C2023 C 0.27331 0.04874 0.82151 0.0
C2024 C 0.28312 0.04618 0.75257 0.0
C2025 C 0.27799 1.00902 0.73336 0.0
N2026 N 0.27379 0.04695 0.80019 0.0
N2027 N 0.2782 1.01082 0.7547 0.0
H2028 H 0.26505 1.00129 0.08049 0.0
H2029 H 0.27414 0.06616 0.97278 0.0
H2030 H 0.27338 0.06605 0.08047 0.0
H2031 H 0.28488 1.00157 0.97583 0.0
H2032 H 0.27095 0.06673 1.0106 0.0
H2033 H 0.26894 1.00132 0.04287 0.0
C2034 C 0.26748 1.01571 0.07283 0.0
C2035 C 0.26863 0.03372 0.08485 0.0
C2036 C 0.27409 0.05234 1.00317 0.0
C2037 C 0.27315 0.03385 0.03958 0.0
C2038 C 0.27601 0.05198 0.98114 0.0
C2039 C 0.2802 0.03382 0.96997 0.0
C2040 C 0.27574 0.0343 1.01525 0.0
C2041 C 0.28199 1.0162 0.98286 0.0
C2042 C 0.26983 1.01566 0.05089 0.0
C2043 C 0.27211 0.05158 0.07277 0.0
N2044 N 0.27965 1.01691 1.0041 0.0
N2045 N 0.27402 0.05116 0.05145 0.0
H2046 H 0.2791 0.06633 0.22516 0.0
H2047 H 0.27984 0.99591 0.32928 0.0
H2048 H 0.26169 1.00352 0.22275 0.0
H2049 H 0.26233 0.0591 0.33173 0.0
H2050 H 0.27914 0.99808 0.29127 0.0
H2051 H 0.27889 0.06417 0.26318 0.0
C2052 C 0.27518 0.052 0.23232 0.0
C2053 C 0.27008 0.03523 0.21959 0.0
C2054 C 0.27541 1.01157 0.3 0.0
C2055 C 0.27063 0.03231 0.26504 0.0
C2056 C 0.2758 1.01033 0.32214 0.0
C2057 C 0.27083 0.02721 0.33488 0.0
C2058 C 0.27079 0.03011 0.28942 0.0
C2059 C 0.26602 0.04534 0.32344 0.0
C2060 C 0.27508 0.05076 0.25446 0.0
C2061 C 0.26546 1.01721 0.23103 0.0
N2062 N 0.26637 0.04627 0.30209 0.0
N2063 N 0.26608 1.01625 0.25238 0.0
H2064 H 0.46522 0.30357 1.00587 0.0
H2065 H 0.57876 0.25081 1.0104 0.0
H2066 H 0.4723 0.24333 0.03103 0.0
H2067 H 0.57184 0.31377 0.02672 0.0
H2068 H 0.54092 0.24738 1.0109 0.0
H2069 H 0.50308 0.3072 1.00637 0.0
C2070 C 0.47452 0.29084 1.01128 0.0
C2071 C 0.46446 0.27293 1.01822 0.0
C2072 C 0.54748 0.26206 1.01428 0.0
C2073 C 0.50982 0.27709 1.01848 0.0
C2074 C 0.5695 0.26415 1.01388 0.0
C2075 C 0.57961 0.28275 1.01838 0.0
C2076 C 0.53424 0.27879 1.01854 0.0
C2077 C 0.56564 0.29903 1.02301 0.0
C2078 C 0.49654 0.29307 1.01169 0.0
C2079 C 0.47846 0.25747 0.02531 0.0
N2080 N 0.54427 0.29675 1.02263 0.0
N2081 N 0.49982 0.25978 0.02492 0.0
H2082 H 0.96713 0.2779 0.06252 0.0
H2083 H 0.07474 0.26608 0.99779 0.0
H2084 H 0.9696 0.28807 0.99751 0.0
H2085 H 0.07537 0.27754 0.06252 0.0
H2086 H 0.03689 0.27031 0.99767 0.0
H2087 H 1.00517 0.27444 0.06319 0.0
C2088 C 0.97541 0.27959 0.04827 0.0
C2089 C 0.96403 0.28373 0.02995 0.0
C2090 C 0.04511 0.27182 1.01203 0.0
C2091 C 1.00952 0.27889 0.03056 0.0
C2092 C 0.06718 0.26927 1.01217 0.0
C2093 C 0.07943 0.27121 0.03022 0.0
C2094 C 0.03395 0.27608 0.0302 0.0
C2095 C 0.06748 0.27562 0.04804 0.0
C2096 C 0.99756 0.27752 0.0487 0.0
C2097 C 0.97681 0.28527 1.01225 0.0
N2098 N 0.04604 0.27766 0.04755 0.0
N2099 N 0.99817 0.28274 1.01302 0.0
H2100 H 1.02066 0.7288 0.3136 0.0
H2101 H 0.03537 0.83535 0.24817 0.0
H2102 H 1.01471 0.73106 0.24807 0.0
H2103 H 1.02045 0.83598 0.31219 0.0
H2104 H 0.03161 0.7979 0.24823 0.0
H2105 H 0.02382 0.76637 0.31389 0.0
C2106 C 1.01988 0.7369 0.29913 0.0
C2107 C 1.01705 0.72551 0.28079 0.0
C2108 C 0.02926 0.80602 0.26242 0.0
C2109 C 1.02151 0.77066 0.28099 0.0
C2110 C 0.03158 0.82788 0.26246 0.0
C2111 C 0.02858 0.84007 0.28026 0.0
C2112 C 0.02411 0.79493 0.28044 0.0
C2113 C 0.02325 0.8282 0.29789 0.0
C2114 C 0.02178 0.75883 0.29934 0.0
C2115 C 1.01659 0.73819 0.26285 0.0
N2116 N 1.02145 0.80699 0.29752 0.0
N2117 N 1.0189 0.75931 0.26344 0.0
H2118 H 0.57358 0.77783 0.56255 0.0
H2119 H 0.466 0.79169 0.49642 0.0
H2120 H 0.57144 0.77251 0.49701 0.0
H2121 H 0.4653 0.77838 0.56093 0.0
H2122 H 0.50393 0.78806 0.4968 0.0
H2123 H 0.53547 0.78088 0.56283 0.0
C2124 C 0.56538 0.77714 0.5481 0.0
C2125 C 0.57688 0.77453 0.52973 0.0
C2126 C 0.49568 0.78603 0.51102 0.0
C2127 C 0.53131 0.77882 0.52991 0.0
C2128 C 0.47357 0.78826 0.51087 0.0
C2129 C 0.46129 0.78566 0.5287 0.0
C2130 C 0.50684 0.78135 0.52926 0.0
C2131 C 0.47322 0.78083 0.5466 0.0
C2132 C 0.54318 0.77898 0.54829 0.0
C2133 C 0.56416 0.77419 0.51178 0.0
N2134 N 0.49469 0.77906 0.54639 0.0
N2135 N 0.54278 0.7764 0.51236 0.0
H2136 H 0.9676 0.76623 0.55177 0.0
H2137 H 0.0742 0.77772 0.48548 0.0
H2138 H 0.96609 0.77684 0.48677 0.0
H2139 H 0.07235 0.788 0.55039 0.0
H2140 H 0.03625 0.77414 0.48538 0.0
H2141 H 1.00538 0.77046 0.55141 0.0
C2142 C 0.97497 0.7692 0.53724 0.0
C2143 C 0.96251 0.77088 0.51925 0.0
C2144 C 0.04397 0.77726 0.49973 0.0
C2145 C 1.00786 0.77584 0.51872 0.0
C2146 C 0.06607 0.7794 0.49982 0.0
C2147 C 0.07759 0.78361 0.51793 0.0
C2148 C 0.03222 0.77867 0.518 0.0
C2149 C 0.06501 0.78514 0.53579 0.0
C2150 C 0.99698 0.77178 0.53709 0.0
C2151 C 0.97417 0.77514 0.50122 0.0
N2152 N 0.04371 0.78257 0.53534 0.0
N2153 N 0.99555 0.77722 0.50145 0.0
H2154 H 0.05693 0.22994 0.27796 0.0
H2155 H 0.9859 0.33381 0.28393 0.0
H2156 H 0.99223 0.22806 0.26427 0.0
H2157 H 0.04765 0.33646 0.2609 0.0
H2158 H 0.98821 0.29606 0.283 0.0
H2159 H 0.05468 0.26774 0.27792 0.0
C2160 C 0.04215 0.23715 0.27491 0.0
C2161 C 0.02487 0.22458 0.27079 0.0
C2162 C 1.00136 0.30475 0.2781 0.0
C2163 C 0.02189 0.2699 0.27155 0.0
C2164 C 1.00003 0.32677 0.27861 0.0
C2165 C 1.01642 0.33956 0.27217 0.0
C2166 C 1.0196 0.29424 0.27188 0.0
C2167 C 0.03422 0.32818 0.26578 0.0
C2168 C 0.04086 0.25919 0.2749 0.0
C2169 C 1.00632 0.23616 0.26726 0.0
N2170 N 0.03533 0.30692 0.26606 0.0
N2171 N 1.00537 0.2574 0.26797 0.0
H2172 H 0.48431 0.8314 0.7781 0.0
H2173 H 0.55424 0.72666 0.78477 0.0
H2174 H 0.54953 0.83288 0.76772 0.0
H2175 H 0.4928 0.72533 0.7602 0.0
H2176 H 0.55233 0.76443 0.78449 0.0
H2177 H 0.48613 0.79359 0.77745 0.0
C2178 C 0.49912 0.8241 0.77569 0.0
C2179 C 0.5167 0.83655 0.7727 0.0
C2180 C 0.53916 0.75603 0.7791 0.0
C2181 C 0.51912 0.79123 0.77268 0.0
C2182 C 0.54026 0.734 0.77923 0.0
C2183 C 0.52384 0.7216 0.77217 0.0
C2184 C 0.52113 0.76689 0.77262 0.0
C2185 C 0.50624 0.73332 0.76556 0.0
C2186 C 0.50015 0.80206 0.7753 0.0
C2187 C 0.53524 0.82486 0.76986 0.0
N2188 N 0.50535 0.75457 0.76619 0.0
N2189 N 0.53591 0.80361 0.77018 0.0
H2190 H 0.99766 0.47653 0.76299 0.0
H2191 H 0.06427 0.5819 0.77446 0.0
H2192 H 0.06234 0.4745 0.77702 0.0
H2193 H 0.99882 0.58102 0.78342 0.0
H2194 H 0.06434 0.54425 0.77184 0.0
H2195 H 0.99808 0.51403 0.76636 0.0
C2196 C 1.01217 0.48369 0.76652 0.0
C2197 C 0.03002 0.47108 0.76941 0.0
C2198 C 0.04985 0.55211 0.77441 0.0
C2199 C 0.03065 0.51632 0.77335 0.0
C2200 C 0.04977 0.5741 0.77601 0.0
C2201 C 0.03152 0.58591 0.77948 0.0
C2202 C 0.03141 0.54064 0.77563 0.0
C2203 C 1.01353 0.57357 0.78093 0.0
C2204 C 1.01234 0.50559 0.76861 0.0
C2205 C 0.04796 0.4826 0.77437 0.0
N2206 N 1.01397 0.55239 0.77887 0.0
N2207 N 0.04779 0.50386 0.77591 0.0
H2208 H 0.22418 0.25236 0.53299 0.0
H2209 H 0.3306 0.3182 0.52391 0.0
H2210 H 0.22254 0.31734 0.52523 0.0
H2211 H 0.32905 0.25402 0.51185 0.0
H2212 H 0.29263 0.31836 0.52745 0.0
H2213 H 0.26196 0.25274 0.52878 0.0
C2214 C 0.23152 0.26688 0.53065 0.0
C2215 C 0.21902 0.28486 0.52975 0.0
C2216 C 0.30042 0.30417 0.52393 0.0
C2217 C 0.26439 0.28541 0.52483 0.0
C2218 C 0.32253 0.30404 0.5218 0.0
C2219 C 0.33413 0.28612 0.5171 0.0
C2220 C 0.28875 0.2861 0.52202 0.0
C2221 C 0.32163 0.26848 0.51507 0.0
C2222 C 0.25353 0.26704 0.52809 0.0
C2223 C 0.23065 0.30289 0.52633 0.0
N2224 N 0.30031 0.26894 0.51764 0.0
N2225 N 0.25205 0.30266 0.52423 0.0
H2226 H 0.51072 0.47153 0.24582 0.0
H2227 H 0.51419 0.5823 0.302 0.0
H2228 H 0.53263 0.47616 0.30778 0.0
H2229 H 0.52744 0.57756 0.2378 0.0
H2230 H 0.51497 0.54476 0.30473 0.0
H2231 H 0.51083 0.50908 0.24294 0.0
C2232 C 0.51536 0.48018 0.25909 0.0
C2233 C 0.52151 0.46941 0.27723 0.0
C2234 C 0.51762 0.55171 0.28992 0.0
C2235 C 0.52131 0.51469 0.27394 0.0
C2236 C 0.51706 0.57363 0.28823 0.0
C2237 C 0.52059 0.58437 0.26952 0.0
C2238 C 0.52114 0.53908 0.27267 0.0
C2239 C 0.52447 0.57098 0.2527 0.0
C2240 C 0.51553 0.50209 0.2573 0.0
C2241 C 0.52757 0.48277 0.29338 0.0
N2242 N 0.52432 0.54972 0.25464 0.0
N2243 N 0.52701 0.50402 0.29143 0.0
H2244 H 0.32665 0.80596 0.03815 0.0
H2245 H 0.21947 0.74143 0.02718 0.0
H2246 H 0.32775 0.74157 0.02704 0.0
H2247 H 0.22133 0.80609 1.01741 0.0
H2248 H 0.25753 0.74082 0.03038 0.0
H2249 H 0.28878 0.80603 0.03428 0.0
C2250 C 0.31919 0.79164 0.03512 0.0
C2251 C 0.3316 0.7737 0.03317 0.0
C2252 C 0.24978 0.75523 0.02745 0.0
C2253 C 0.28605 0.77367 0.0287 0.0
C2254 C 0.22761 0.75562 0.02553 0.0
C2255 C 0.21604 0.77382 1.02158 0.0
C2256 C 0.26159 0.77327 0.02609 0.0
C2257 C 0.22868 0.79144 1.02008 0.0
C2258 C 0.29711 0.79175 0.03277 0.0
C2259 C 0.31976 0.75597 0.02895 0.0
N2260 N 0.25006 0.7907 1.02245 0.0
N2261 N 0.2983 0.75643 0.0271 0.0
H2262 H 0.75763 1.00065 0.46983 0.0
H2263 H 0.77308 0.06332 0.57752 0.0
H2264 H 0.77271 0.06414 0.46972 0.0
H2265 H 0.77739 0.99811 0.5746 0.0
H2266 H 0.76998 0.06456 0.53966 0.0
H2267 H 0.76138 1.00005 0.50751 0.0
C2268 C 0.76148 1.01469 0.47748 0.0
C2269 C 0.76454 0.03255 0.46541 0.0
C2270 C 0.77167 0.04988 0.54713 0.0
C2271 C 0.76898 0.03191 0.51073 0.0
C2272 C 0.77353 0.04913 0.56919 0.0
C2273 C 0.7759 0.03055 0.58041 0.0
C2274 C 0.77155 0.0319 0.53508 0.0
C2275 C 0.77595 1.01299 0.56754 0.0
C2276 C 0.76378 1.01425 0.49945 0.0
C2277 C 0.7699 0.04984 0.47745 0.0
N2278 N 0.77371 1.01413 0.54628 0.0
N2279 N 0.77171 0.04909 0.4988 0.0
H2280 H 0.77491 0.06385 0.32408 0.0
H2281 H 0.77761 0.99299 0.22145 0.0
H2282 H 0.75709 1.00119 0.32749 0.0
H2283 H 0.75683 0.05521 0.21744 0.0
H2284 H 0.77676 0.9955 0.25941 0.0
H2285 H 0.77493 0.06135 0.28611 0.0
C2286 C 0.77097 0.04948 0.31715 0.0
C2287 C 0.76565 0.03286 0.33012 0.0
C2288 C 0.77235 1.0087 0.25034 0.0
C2289 C 0.7665 0.02953 0.28477 0.0
C2290 C 0.77283 1.00726 0.22824 0.0
C2291 C 0.76697 1.02375 0.21509 0.0
C2292 C 0.76679 1.02711 0.26045 0.0
C2293 C 0.76124 0.04173 0.22607 0.0
C2294 C 0.77099 0.04805 0.29504 0.0
C2295 C 0.76101 1.01477 0.31898 0.0
N2296 N 0.76156 0.04292 0.2474 0.0
N2297 N 0.76179 1.01361 0.29767 0.0
H2298 H 0.77259 0.99007 0.96879 0.0
H2299 H 0.76138 0.05617 0.07494 0.0
H2300 H 0.7832 0.05443 0.97049 0.0
H2301 H 0.77245 0.99159 0.07659 0.0
H2302 H 0.76547 0.05567 0.03731 0.0
H2303 H 0.76919 0.99 1.00661 0.0
C2304 C 0.77438 1.0043 0.97683 0.0
C2305 C 0.77857 1.02225 0.96527 0.0
C2306 C 0.76691 0.04147 0.0457 0.0
C2307 C 0.7738 1.02238 1.01056 0.0
C2308 C 0.76441 0.04169 0.06765 0.0
C2309 C 0.76625 1.02387 0.08013 0.0
C2310 C 0.77104 1.02317 0.03487 0.0
C2311 C 0.77059 1.00592 0.06852 0.0
C2312 C 0.77232 1.00423 0.99887 0.0
C2313 C 0.78024 0.03997 0.97781 0.0
N2314 N 0.77257 1.00606 0.0472 0.0
N2315 N 0.77773 0.03955 0.99904 0.0
H2316 H 0.78363 0.99779 0.7172 0.0
H2317 H 0.78696 0.05407 0.82809 0.0
H2318 H 0.76782 0.06128 0.72155 0.0
H2319 H 0.76656 0.9923 0.8238 0.0
H2320 H 0.78605 0.05675 0.79032 0.0
H2321 H 0.78342 0.99526 0.75497 0.0
C2322 C 0.7803 1.01144 0.72585 0.0
C2323 C 0.77588 0.02989 0.71496 0.0
C2324 C 0.78185 0.04248 0.79743 0.0
C2325 C 0.77602 1.02698 0.76043 0.0
C2326 C 0.78248 0.04081 0.81946 0.0
C2327 C 0.77701 1.02279 0.83035 0.0
C2328 C 0.77627 1.02584 0.7849 0.0
C2329 C 0.7711 1.00662 0.81705 0.0
C2330 C 0.78008 1.00986 0.74787 0.0
C2331 C 0.77146 0.04659 0.72828 0.0
N2332 N 0.77122 1.00845 0.79568 0.0
N2333 N 0.77196 0.04478 0.74966 0.0
H2334 H 0.47386 0.74288 1.02182 0.0
H2335 H 0.57475 0.81583 1.01943 0.0
H2336 H 0.46846 0.80554 0.03969 0.0
H2337 H 0.58058 0.75423 0.04127 0.0
H2338 H 0.5367 0.81243 1.02005 0.0
H2339 H 0.51195 0.7462 1.02218 0.0
C2340 C 0.48038 0.75741 0.02586 0.0
C2341 C 0.46684 0.77378 0.03106 0.0
C2342 C 0.54619 0.79956 1.02475 0.0
C2343 C 0.51226 0.77808 0.03064 0.0
C2344 C 0.56833 0.80152 1.02441 0.0
C2345 C 0.58198 0.78549 0.03063 0.0
C2346 C 0.53658 0.78104 0.03053 0.0
C2347 C 0.5715 0.76738 0.0366 0.0
C2348 C 0.50254 0.75932 0.02605 0.0
C2349 C 0.47744 0.79213 0.03584 0.0
N2350 N 0.55012 0.76567 0.03613 0.0
N2351 N 0.49882 0.79375 0.03525 0.0
H2352 H 0.97021 0.77985 0.98613 0.0
H2353 H 0.07695 0.7694 0.05394 0.0
H2354 H 0.97158 0.79055 0.05099 0.0
H2355 H 0.07839 0.77972 0.98892 0.0
H2356 H 0.03903 0.77332 0.05302 0.0
H2357 H 1.00827 0.7765 0.98653 0.0
C2358 C 0.97824 0.78166 1.00056 0.0
C2359 C 0.96654 0.78587 1.0185 0.0
C2360 C 0.04745 0.77462 0.03882 0.0
C2361 C 1.01207 0.7812 1.01919 0.0
C2362 C 0.06955 0.7722 0.03929 0.0
C2363 C 0.08203 0.77388 1.02147 0.0
C2364 C 0.03652 0.77852 1.02026 0.0
C2365 C 0.07031 0.77799 1.00326 0.0
C2366 C 1.00041 0.77964 1.00077 0.0
C2367 C 0.97904 0.78759 0.0365 0.0
N2368 N 0.04886 0.77992 1.00317 0.0
N2369 N 1.00041 0.78514 0.03635 0.0
H2370 H 1.0146 0.22641 0.80183 0.0
H2371 H 0.02516 0.33386 0.73708 0.0
H2372 H 0.02563 0.22671 0.73701 0.0
H2373 H 0.03397 0.33089 0.80228 0.0
H2374 H 0.02231 0.29629 0.73645 0.0
H2375 H 1.0182 0.26384 0.80207 0.0
C2376 C 1.01757 0.23407 0.78744 0.0
C2377 C 1.01956 0.22212 0.76933 0.0
C2378 C 0.02494 0.30366 0.751 0.0
C2379 C 0.02373 0.2673 0.76952 0.0
C2380 C 0.02667 0.3256 0.75141 0.0
C2381 C 0.03022 0.3368 0.76975 0.0
C2382 C 0.02612 0.29161 0.76917 0.0
C2383 C 0.03157 0.32391 0.7875 0.0
C2384 C 1.01976 0.25593 0.78765 0.0
C2385 C 0.0237 0.23428 0.75156 0.0
N2386 N 0.02941 0.30277 0.78674 0.0
N2387 N 0.0254 0.2555 0.75213 0.0
H2388 H 0.47169 0.28184 0.48608 0.0
H2389 H 0.57866 0.27155 0.55341 0.0
H2390 H 0.47324 0.29006 0.55132 0.0
H2391 H 0.57995 0.28262 0.4885 0.0
H2392 H 0.54076 0.2749 0.55257 0.0
H2393 H 0.50981 0.27914 0.48618 0.0
C2394 C 0.47978 0.28324 0.50054 0.0
C2395 C 0.46813 0.28658 0.51869 0.0
C2396 C 0.54914 0.27651 0.53837 0.0
C2397 C 0.51368 0.28273 0.51898 0.0
C2398 C 0.57123 0.27445 0.53879 0.0
C2399 C 0.58367 0.27652 0.52099 0.0
C2400 C 0.53814 0.28045 0.51989 0.0
C2401 C 0.5719 0.28063 0.50282 0.0
C2402 C 0.50197 0.28162 0.50056 0.0
C2403 C 0.48067 0.28784 0.53669 0.0
N2404 N 0.55042 0.28223 0.50278 0.0
N2405 N 0.50206 0.28581 0.53634 0.0
H2406 H 0.97545 0.2444 0.52163 0.0
H2407 H 0.07727 0.31611 0.52238 0.0
H2408 H 0.97113 0.30616 0.54259 0.0
H2409 H 0.08237 0.2529 0.53906 0.0
H2410 H 0.03919 0.31329 0.52346 0.0
H2411 H 1.01356 0.24719 0.52168 0.0
C2412 C 0.98223 0.25861 0.52632 0.0
C2413 C 0.969 0.27488 0.53247 0.0
C2414 C 0.04853 0.29995 0.52693 0.0
C2415 C 1.0144 0.27859 0.5317 0.0
C2416 C 0.07067 0.30157 0.52633 0.0
C2417 C 0.08412 0.28487 0.53096 0.0
C2418 C 0.03872 0.2812 0.5314 0.0
C2419 C 0.07345 0.26652 0.53565 0.0
C2420 C 1.00439 0.26021 0.52632 0.0
C2421 C 0.97989 0.29284 0.53802 0.0
N2422 N 0.05205 0.26521 0.53548 0.0
N2423 N 1.00127 0.2942 0.53725 0.0
H2424 H 0.06347 0.72682 0.77175 0.0
H2425 H 0.99275 0.83105 0.76466 0.0
H2426 H 0.99846 0.72474 0.7832 0.0
H2427 H 0.05395 0.83296 0.78973 0.0
H2428 H 0.99496 0.79326 0.76514 0.0
H2429 H 0.06125 0.76462 0.77213 0.0
C2430 C 0.04863 0.73398 0.77435 0.0
C2431 C 0.03124 0.72134 0.77773 0.0
C2432 C 1.00801 0.8018 0.77059 0.0
C2433 C 0.02833 0.76671 0.77739 0.0
C2434 C 1.00674 0.82385 0.77034 0.0
C2435 C 0.02299 0.83644 0.77749 0.0
C2436 C 0.02608 0.79108 0.77728 0.0
C2437 C 0.04062 0.82485 0.7843 0.0
C2438 C 0.04736 0.75604 0.77457 0.0
C2439 C 1.01263 0.73289 0.78076 0.0
N2440 N 0.04168 0.80359 0.78377 0.0
N2441 N 1.01172 0.75415 0.78026 0.0
H2442 H 0.49301 0.32813 0.26737 0.0
H2443 H 0.56436 0.22431 0.27069 0.0
H2444 H 0.55546 0.33065 0.28906 0.0
H2445 H 0.50036 0.22218 0.28675 0.0
H2446 H 0.56208 0.26213 0.27096 0.0
H2447 H 0.4955 0.29038 0.26799 0.0
C2448 C 0.50734 0.32106 0.27233 0.0
C2449 C 0.52386 0.3338 0.2785 0.0
C2450 C 0.54842 0.25352 0.27445 0.0
C2451 C 0.52725 0.2885 0.2784 0.0
C2452 C 0.54973 0.23147 0.2743 0.0
C2453 C 0.53266 0.21883 0.27903 0.0
C2454 C 0.52962 0.26416 0.27854 0.0
C2455 C 0.5143 0.23035 0.28328 0.0
C2456 C 0.50878 0.29904 0.27265 0.0
C2457 C 0.54192 0.3224 0.28441 0.0
N2458 N 0.5133 0.25159 0.28267 0.0
N2459 N 0.54311 0.30114 0.28396 0.0
H2460 H 0.48422 0.08405 0.77694 0.0
H2461 H 0.54965 0.97629 0.76647 0.0
H2462 H 0.5499 0.08092 0.78466 0.0
H2463 H 0.48471 0.97679 0.77863 0.0
H2464 H 0.5497 1.01378 0.76958 0.0
H2465 H 0.48366 0.04642 0.77444 0.0
C2466 C 0.49866 0.07575 0.77824 0.0
C2467 C 0.51713 0.0869 0.78137 0.0
C2468 C 0.53529 1.00591 0.77149 0.0
C2469 C 0.51662 0.04167 0.77776 0.0
C2470 C 0.53519 0.98401 0.76957 0.0
C2471 C 0.51711 0.97211 0.77202 0.0
C2472 C 0.51705 1.01734 0.77565 0.0
C2473 C 0.49923 0.98433 0.77635 0.0
C2474 C 0.4983 0.05378 0.77674 0.0
C2475 C 0.53503 0.07397 0.78255 0.0
N2476 N 0.49969 1.00557 0.77779 0.0
N2477 N 0.53429 0.05281 0.78063 0.0
H2478 H 0.21536 0.26265 0.99794 0.0
H2479 H 0.32849 0.25919 0.05103 0.0
H2480 H 0.22162 0.28042 0.06087 0.0
H2481 H 0.32174 0.2837 0.99019 0.0
H2482 H 0.29059 0.2597 0.05463 0.0
H2483 H 0.25323 0.26316 0.99448 0.0
C2484 C 0.22448 0.26644 1.01127 0.0
C2485 C 0.21417 0.27134 0.02987 0.0
C2486 C 0.29721 0.26487 0.04037 0.0
C2487 C 0.25958 0.27152 0.0259 0.0
C2488 C 0.31926 0.26446 0.03816 0.0
C2489 C 0.32942 0.27122 1.0201 0.0
C2490 C 0.28402 0.27147 1.02421 0.0
C2491 C 0.31549 0.27813 1.00446 0.0
C2492 C 0.24651 0.26685 1.00916 0.0
C2493 C 0.22797 0.27638 0.04614 0.0
N2494 N 0.29412 0.27774 1.00675 0.0
N2495 N 0.24936 0.27599 0.04387 0.0
H2496 H 0.99296 0.08467 0.26403 0.0
H2497 H 0.06008 0.97786 0.27533 0.0
H2498 H 0.05802 0.08508 0.27617 0.0
H2499 H 0.99465 0.97999 0.28453 0.0
H2500 H 0.05997 1.01549 0.27231 0.0
H2501 H 0.99346 0.04717 0.26774 0.0
C2502 C 1.00755 0.07716 0.26725 0.0
C2503 C 0.02549 0.08931 0.26951 0.0
C2504 C 0.04553 1.00792 0.27506 0.0
C2505 C 0.02621 0.04407 0.27382 0.0
C2506 C 0.04556 0.98595 0.27688 0.0
C2507 C 0.02739 0.97451 0.28062 0.0
C2508 C 0.02706 1.01975 0.2763 0.0
C2509 C 1.00933 0.98717 0.28201 0.0
C2510 C 1.00778 0.05525 0.26951 0.0
C2511 C 0.04357 0.07734 0.274 0.0
N2512 N 1.00967 1.00835 0.27974 0.0
N2513 N 0.04343 0.05609 0.27575 0.0
H2514 H 0.32349 0.81725 0.5227 0.0
H2515 H 0.21699 0.75181 0.5111 0.0
H2516 H 0.32223 0.75254 0.53232 0.0
H2517 H 0.21532 0.81612 0.52259 0.0
H2518 H 0.25485 0.75203 0.51509 0.0
H2519 H 0.28545 0.8175 0.51935 0.0
C2520 C 0.31548 0.80298 0.52428 0.0
C2521 C 0.3272 0.78488 0.52824 0.0
C2522 C 0.2464 0.76623 0.51665 0.0
C2523 C 0.2817 0.78499 0.52356 0.0
C2524 C 0.22432 0.76616 0.51422 0.0
C2525 C 0.21178 0.78399 0.51623 0.0
C2526 C 0.25727 0.78438 0.52087 0.0
C2527 C 0.22344 0.8018 0.52061 0.0
C2528 C 0.29332 0.80316 0.52228 0.0
C2529 C 0.31474 0.76713 0.52967 0.0
N2530 N 0.24488 0.80151 0.52254 0.0
N2531 N 0.29338 0.76766 0.52722 0.0
H2532 H 0.76479 0.55978 0.97425 0.0
H2533 H 0.77411 0.49344 0.08133 0.0
H2534 H 0.77414 0.49496 0.97359 0.0
H2535 H 0.78652 0.55747 0.0791 0.0
H2536 H 0.77075 0.4935 0.04349 0.0
H2537 H 0.76879 0.55923 1.01197 0.0
C2538 C 0.7674 0.54525 0.98177 0.0
C2539 C 0.76879 0.52738 0.96954 0.0
C2540 C 0.77425 0.50764 0.05111 0.0
C2541 C 0.7735 0.52661 1.01489 0.0
C2542 C 0.77629 0.50762 0.07318 0.0
C2543 C 0.78092 0.52545 0.08462 0.0
C2544 C 0.77621 0.52575 0.03925 0.0
C2545 C 0.7831 0.54311 0.07191 0.0
C2546 C 0.76986 0.545 1.00377 0.0
C2547 C 0.77264 0.50935 0.98144 0.0
N2548 N 0.78061 0.54279 0.05065 0.0
N2549 N 0.7746 0.50947 1.00278 0.0
H2550 H 0.78794 0.55858 0.22188 0.0
H2551 H 0.79003 0.5024 0.33354 0.0
H2552 H 0.77203 0.4955 0.22701 0.0
H2553 H 0.76985 0.56472 0.32827 0.0
H2554 H 0.78954 0.49972 0.29579 0.0
H2555 H 0.78739 0.56123 0.25962 0.0
C2556 C 0.78452 0.54505 0.2307 0.0
C2557 C 0.78017 0.52667 0.22006 0.0
C2558 C 0.78529 0.5141 0.30269 0.0
C2559 C 0.7799 0.52971 0.26545 0.0
C2560 C 0.78568 0.51577 0.32469 0.0
C2561 C 0.78013 0.53395 0.33529 0.0
C2562 C 0.7799 0.53088 0.2899 0.0
C2563 C 0.77443 0.55027 0.32174 0.0
C2564 C 0.7841 0.54669 0.2527 0.0
C2565 C 0.77563 0.51012 0.23357 0.0
N2566 N 0.77478 0.54842 0.3004 0.0
N2567 N 0.77593 0.51198 0.25491 0.0
H2568 H 0.7742 0.56806 0.58216 0.0
H2569 H 0.78499 0.50204 0.47589 0.0
H2570 H 0.76377 0.50365 0.58057 0.0
H2571 H 0.77396 0.56663 0.47444 0.0
H2572 H 0.78105 0.50246 0.51355 0.0
H2573 H 0.77747 0.56811 0.54434 0.0
C2574 C 0.77243 0.55381 0.57414 0.0
C2575 C 0.76828 0.53587 0.58573 0.0
C2576 C 0.77957 0.51668 0.50519 0.0
C2577 C 0.77288 0.53572 0.54042 0.0
C2578 C 0.78196 0.5165 0.48322 0.0
C2579 C 0.78006 0.53434 0.47078 0.0
C2580 C 0.77551 0.53496 0.51608 0.0
C2581 C 0.77584 0.55228 0.48246 0.0
C2582 C 0.77439 0.55387 0.55209 0.0
C2583 C 0.76662 0.51813 0.57322 0.0
N2584 N 0.77396 0.55209 0.50379 0.0
N2585 N 0.76903 0.51854 0.55197 0.0
H2586 H 0.80151 0.52017 0.83081 0.0
H2587 H 0.73581 0.53171 0.72315 0.0
H2588 H 0.7366 0.53356 0.83095 0.0
H2589 H 0.80123 0.54036 0.7256 0.0
H2590 H 0.73543 0.52896 0.76103 0.0
H2591 H 0.80146 0.52367 0.79306 0.0
C2592 C 0.78704 0.52358 0.82316 0.0
C2593 C 0.76898 0.52625 0.83528 0.0
C2594 C 0.74996 0.53154 0.75347 0.0
C2595 C 0.76881 0.53035 0.78985 0.0
C2596 C 0.75022 0.5332 0.73138 0.0
C2597 C 0.76855 0.53671 0.71999 0.0
C2598 C 0.76829 0.5327 0.76543 0.0
C2599 C 0.78646 0.53804 0.73278 0.0
C2600 C 0.78708 0.52574 0.80114 0.0
C2601 C 0.75109 0.53107 0.82321 0.0
N2602 N 0.78584 0.53591 0.75408 0.0
N2603 N 0.75148 0.5327 0.80184 0.0
H2604 H 0.49433 0.33491 0.79195 0.0
H2605 H 0.5491 0.2228 0.78831 0.0
H2606 H 0.55618 0.3286 0.76966 0.0
H2607 H 0.48491 0.22924 0.77313 0.0
H2608 H 0.55228 0.26022 0.7876 0.0
H2609 H 0.49092 0.29748 0.79127 0.0
C2610 C 0.50747 0.32589 0.78709 0.0
C2611 C 0.52574 0.33614 0.78103 0.0
C2612 C 0.53739 0.25367 0.7845 0.0
C2613 C 0.52183 0.29105 0.78056 0.0
C2614 C 0.53543 0.23185 0.785 0.0
C2615 C 0.51658 0.22163 0.78091 0.0
C2616 C 0.52026 0.26674 0.78051 0.0
C2617 C 0.4999 0.23543 0.7765 0.0
C2618 C 0.50537 0.30407 0.78659 0.0
C2619 C 0.54169 0.32238 0.77466 0.0
N2620 N 0.50207 0.25662 0.77676 0.0
N2621 N 0.53947 0.30121 0.77494 0.0
H2622 H 0.56229 0.97149 0.27505 0.0
H2623 H 0.49662 0.07947 0.28265 0.0
H2624 H 0.49709 0.97459 0.26392 0.0
H2625 H 0.56206 0.07872 0.27346 0.0
H2626 H 0.49657 0.04196 0.27938 0.0
H2627 H 0.5627 1.00911 0.27765 0.0
C2628 C 0.54792 0.97979 0.273 0.0
C2629 C 0.52966 0.9686 0.26888 0.0
C2630 C 0.51108 0.04978 0.27816 0.0
C2631 C 0.52995 1.01389 0.27263 0.0
C2632 C 0.51118 0.0717 0.28017 0.0
C2633 C 0.5294 0.08355 0.27859 0.0
C2634 C 0.52945 0.03826 0.27479 0.0
C2635 C 0.5474 0.07124 0.27503 0.0
C2636 C 0.5482 1.00176 0.27457 0.0
C2637 C 0.51183 0.98155 0.2668 0.0
N2638 N 0.54693 0.05 0.27349 0.0
N2639 N 0.51246 1.00273 0.26882 0.0
H2640 H 0.8285 0.8187 1.02429 0.0
H2641 H 0.72213 0.75337 0.03664 0.0
H2642 H 0.82681 0.75426 1.01374 0.0
H2643 H 0.72039 0.81789 0.02561 0.0
H2644 H 0.75988 0.75355 0.0321 0.0
H2645 H 0.79055 0.81898 0.02814 0.0
C2646 C 0.82041 0.8045 1.0226 0.0
C2647 C 0.83196 0.78647 1.01822 0.0
C2648 C 0.75144 0.76779 0.03075 0.0
C2649 C 0.78661 0.78659 1.02351 0.0
C2650 C 0.72942 0.76775 0.03346 0.0
C2651 C 0.7169 0.78565 0.03172 0.0
C2652 C 0.76226 0.78599 0.02653 0.0
C2653 C 0.72851 0.80351 0.02738 0.0
C2654 C 0.79831 0.80469 0.0249 0.0
C2655 C 0.81943 0.76879 1.0167 0.0
N2656 N 0.7499 0.80319 0.02518 0.0
N2657 N 0.79813 0.76932 1.01945 0.0
H2658 H 0.02563 0.0806 0.73693 0.0
H2659 H 0.03501 0.97742 0.808 0.0
H2660 H 1.01554 0.08334 0.80183 0.0
H2661 H 1.01025 0.97442 0.74698 0.0
H2662 H 0.03378 1.01515 0.80559 0.0
H2663 H 0.02579 0.04283 0.73932 0.0
C2664 C 0.02341 0.07359 0.75178 0.0
C2665 C 1.02024 0.08639 0.76909 0.0
C2666 C 0.02855 1.00639 0.79262 0.0
C2667 C 1.02124 0.0411 0.77219 0.0
C2668 C 0.02923 0.98438 0.79402 0.0
C2669 C 0.02242 0.97151 0.77787 0.0
C2670 C 0.02175 1.01679 0.77455 0.0
C2671 C 1.01545 0.98277 0.76023 0.0
C2672 C 0.02351 0.05156 0.75315 0.0
C2673 C 1.01776 0.07505 0.78773 0.0
N2674 N 1.01556 1.00402 0.75905 0.0
N2675 N 1.01854 0.05381 0.78872 0.0
H2676 H 0.71973 0.26793 0.55594 0.0
H2677 H 0.83219 0.26106 0.50301 0.0
H2678 H 0.72558 0.28371 0.4923 0.0
H2679 H 0.82652 0.28776 0.56266 0.0
H2680 H 0.79426 0.26203 0.49943 0.0
H2681 H 0.75765 0.26799 0.55935 0.0
C2682 C 0.72877 0.27119 0.54245 0.0
C2683 C 0.71834 0.27568 0.52367 0.0
C2684 C 0.80113 0.26758 0.51343 0.0
C2685 C 0.76378 0.27531 0.5276 0.0
C2686 C 0.82319 0.2669 0.51564 0.0
C2687 C 0.83366 0.27411 0.53336 0.0
C2688 C 0.78823 0.27494 0.52928 0.0
C2689 C 0.82002 0.28179 0.54868 0.0
C2690 C 0.75083 0.27134 0.54453 0.0
C2691 C 0.73203 0.28003 0.50719 0.0
N2692 N 0.79862 0.28165 0.54642 0.0
N2693 N 0.75344 0.2794 0.50946 0.0
H2694 H 0.28248 0.49818 0.07624 0.0
H2695 H 0.27083 0.56477 0.96951 0.0
H2696 H 0.27142 0.56276 0.07719 0.0
H2697 H 0.26056 0.50033 0.97145 0.0
H2698 H 0.27436 0.56461 1.00734 0.0
H2699 H 0.27833 0.49878 0.03854 0.0
C2700 C 0.27946 0.51268 0.06877 0.0
C2701 C 0.27765 0.53047 0.08107 0.0
C2702 C 0.27128 0.55041 0.99966 0.0
C2703 C 0.27274 0.53129 0.03577 0.0
C2704 C 0.26916 0.55047 0.97761 0.0
C2705 C 0.26501 0.53257 0.96611 0.0
C2706 C 0.26993 0.53218 1.01143 0.0
C2707 C 0.26348 0.51477 0.97872 0.0
C2708 C 0.27691 0.51296 0.0468 0.0
C2709 C 0.27326 0.54845 0.06927 0.0
N2710 N 0.26604 0.51506 0.99997 0.0
N2711 N 0.27122 0.54836 0.04794 0.0
H2712 H 0.25721 0.50033 0.82864 0.0
H2713 H 0.25553 0.55647 0.71708 0.0
H2714 H 0.27376 0.56326 0.82376 0.0
H2715 H 0.27673 0.49447 0.72234 0.0
H2716 H 0.25585 0.55911 0.75484 0.0
H2717 H 0.25801 0.49775 0.79089 0.0
C2718 C 0.26082 0.51385 0.81987 0.0
C2719 C 0.26527 0.53216 0.83059 0.0
C2720 C 0.26035 0.54481 0.74794 0.0
C2721 C 0.26582 0.52921 0.78518 0.0
C2722 C 0.26007 0.54316 0.72593 0.0
C2723 C 0.26596 0.52509 0.71532 0.0
C2724 C 0.26596 0.52809 0.76073 0.0
C2725 C 0.27189 0.50884 0.72887 0.0
C2726 C 0.26139 0.51224 0.79787 0.0
C2727 C 0.27007 0.54869 0.81714 0.0
N2728 N 0.27141 0.51065 0.75021 0.0
N2729 N 0.26988 0.54688 0.79579 0.0
H2730 H 0.27203 0.49192 0.57717 0.0
H2731 H 0.28338 0.55647 0.46944 0.0
H2732 H 0.26218 0.55663 0.5742 0.0
H2733 H 0.27222 0.49217 0.46951 0.0
H2734 H 0.27941 0.55662 0.50711 0.0
H2735 H 0.27539 0.49139 0.53937 0.0
C2736 C 0.2704 0.50614 0.56884 0.0
C2737 C 0.26641 0.52433 0.58005 0.0
C2738 C 0.27793 0.54234 0.49908 0.0
C2739 C 0.27111 0.52389 0.53475 0.0
C2740 C 0.28035 0.54219 0.47711 0.0
C2741 C 0.27844 0.52424 0.46509 0.0
C2742 C 0.2738 0.5243 0.5104 0.0
C2743 C 0.27413 0.50657 0.47719 0.0
C2744 C 0.27243 0.5058 0.54681 0.0
C2745 C 0.26493 0.54199 0.56716 0.0
N2746 N 0.27221 0.50707 0.49851 0.0
N2747 N 0.26739 0.5413 0.54592 0.0
H2748 H 0.24447 0.51706 0.32579 0.0
H2749 H 0.31055 0.52638 0.21895 0.0
H2750 H 0.30933 0.52916 0.32669 0.0
H2751 H 0.24513 0.53666 0.22045 0.0
H2752 H 0.31078 0.52389 0.25685 0.0
H2753 H 0.24466 0.52025 0.288 0.0
C2754 C 0.25896 0.52013 0.31831 0.0
C2755 C 0.27696 0.52254 0.33064 0.0
C2756 C 0.29628 0.52676 0.24907 0.0
C2757 C 0.27728 0.52627 0.28519 0.0
C2758 C 0.2961 0.52827 0.22696 0.0
C2759 C 0.27781 0.53211 0.2153 0.0
C2760 C 0.2779 0.52843 0.26076 0.0
C2761 C 0.25986 0.53398 0.22783 0.0
C2762 C 0.25899 0.52211 0.29627 0.0
C2763 C 0.29487 0.5269 0.31877 0.0
N2764 N 0.26039 0.53198 0.24915 0.0
N2765 N 0.29456 0.52837 0.29739 0.0
H2766 H 0.52673 0.83127 0.23688 0.0
H2767 H 0.51582 0.72417 0.30213 0.0
H2768 H 0.53581 0.82867 0.30206 0.0
H2769 H 0.52646 0.72423 0.23724 0.0
H2770 H 0.5197 0.76157 0.30225 0.0
H2771 H 0.52368 0.79373 0.23649 0.0
C2772 C 0.52829 0.82308 0.25125 0.0
C2773 C 0.53202 0.83438 0.2695 0.0
C2774 C 0.52111 0.75362 0.28784 0.0
C2775 C 0.52763 0.78921 0.26921 0.0
C2776 C 0.51876 0.73177 0.2877 0.0
C2777 C 0.52058 0.71975 0.26961 0.0
C2778 C 0.52506 0.76492 0.26966 0.0
C2779 C 0.52466 0.73184 0.25178 0.0
C2780 C 0.52643 0.80116 0.25098 0.0
C2781 C 0.53336 0.8216 0.28733 0.0
N2782 N 0.52652 0.75305 0.25229 0.0
N2783 N 0.53107 0.80045 0.2867 0.0
H2784 H 0.08798 0.38851 0.31322 0.0
H2785 H 0.07593 0.34985 0.4279 0.0
H2786 H 0.0343 0.35786 0.33602 0.0
H2787 H 0.13547 0.36282 0.40201 0.0
H2788 H 0.06051 0.35399 0.39408 0.0
H2789 H 0.10635 0.37936 0.34498 0.0
C2790 C 0.08031 0.3793 0.32461 0.0
C2791 C 0.05961 0.37399 0.32212 0.0
C2792 C 0.07697 0.35587 0.39577 0.0
C2793 C 0.08017 0.36403 0.35846 0.0
C2794 C 0.08579 0.35352 0.41511 0.0
C2795 C 0.10705 0.35594 0.41786 0.0
C2796 C 0.08941 0.36089 0.37899 0.0
C2797 C 0.11896 0.36111 0.4007 0.0
C2798 C 0.0907 0.37429 0.3428 0.0
C2799 C 0.05022 0.36241 0.33747 0.0
N2800 N 0.10996 0.36347 0.38198 0.0
N2801 N 0.06048 0.35804 0.35508 0.0
H2802 H 0.98341 0.878 0.63681 0.0
H2803 H 0.91212 0.79417 0.5948 0.0
H2804 H 0.92667 0.86203 0.66664 0.0
H2805 H 0.93763 0.8362 0.5508 0.0
H2806 H 0.92251 0.81633 0.62223 0.0
H2807 H 0.97132 0.86103 0.60553 0.0
C2808 C 0.96837 0.87106 0.63667 0.0
C2809 C 0.95605 0.87112 0.65429 0.0
C2810 C 0.92582 0.82075 0.60658 0.0
C2811 C 0.94241 0.85188 0.61901 0.0
C2812 C 0.9201 0.80801 0.59083 0.0
C2813 C 0.92403 0.81334 0.57039 0.0
C2814 C 0.93602 0.8388 0.60205 0.0
C2815 C 0.93431 0.83159 0.56637 0.0
C2816 C 0.96147 0.86161 0.61885 0.0
C2817 C 0.9366 0.86224 0.65337 0.0
N2818 N 0.94021 0.8437 0.58219 0.0
N2819 N 0.93051 0.85266 0.6361 0.0
H2820 H 0.45283 0.6654 0.81316 0.0
H2821 H 0.44874 0.73576 0.91237 0.0
H2822 H 0.49987 0.70872 0.82796 0.0
H2823 H 0.42137 0.6762 0.90971 0.0
H2824 H 0.4618 0.73092 0.87775 0.0
H2825 H 0.43442 0.67502 0.84448 0.0
C2826 C 0.45884 0.67747 0.82263 0.0
C2827 C 0.47778 0.68638 0.81811 0.0
C2828 C 0.45286 0.71898 0.88478 0.0
C2829 C 0.45713 0.69721 0.85375 0.0
C2830 C 0.4456 0.72159 0.90465 0.0
C2831 C 0.43411 0.70626 0.91419 0.0
C2832 C 0.44838 0.70106 0.8742 0.0
C2833 C 0.42999 0.68853 0.90301 0.0
C2834 C 0.44852 0.68274 0.84058 0.0
C2835 C 0.48526 0.70158 0.83103 0.0
N2836 N 0.43713 0.68641 0.8836 0.0
N2837 N 0.47495 0.70647 0.84836 0.0
H2838 H 0.5995 0.26925 0.08478 0.0
H2839 H 0.62482 0.17476 0.15546 0.0
H2840 H 0.62965 0.21522 0.06171 0.0
H2841 H 0.5711 0.21269 0.16605 0.0
H2842 H 0.62929 0.19151 0.12238 0.0
H2843 H 0.59052 0.25049 0.11594 0.0
C2844 C 0.60384 0.25332 0.08614 0.0
C2845 C 0.61525 0.24369 0.07072 0.0
C2846 C 0.61651 0.19608 0.13198 0.0
C2847 C 0.60566 0.2225 0.10636 0.0
C2848 C 0.61393 0.18655 0.15087 0.0
C2849 C 0.59751 0.19225 0.16363 0.0
C2850 C 0.60284 0.21167 0.12593 0.0
C2851 C 0.5842 0.20799 0.15697 0.0
C2852 C 0.59878 0.24268 0.10388 0.0
C2853 C 0.62063 0.2231 0.07318 0.0
N2854 N 0.58722 0.21724 0.13861 0.0
N2855 N 0.6161 0.21325 0.09088 0.0
H2856 H 0.0451 0.71495 0.22928 0.0
H2857 H 0.12921 0.68246 0.15019 0.0
H2858 H 0.09086 0.66907 0.2439 0.0
H2859 H 0.10177 0.7427 0.14933 0.0
H2860 H 0.11549 0.67719 0.18452 0.0
H2861 H 0.06607 0.72616 0.20047 0.0
C2862 C 0.05993 0.7077 0.22675 0.0
C2863 C 0.06643 0.69123 0.23892 0.0
C2864 C 0.11267 0.69162 0.17686 0.0
C2865 C 0.08998 0.70321 0.20557 0.0
C2866 C 0.12047 0.69466 0.15723 0.0
C2867 C 0.11651 0.713 0.14666 0.0
C2868 C 0.10055 0.7069 0.18592 0.0
C2869 C 0.10479 0.7281 0.15657 0.0
C2870 C 0.07182 0.71398 0.21026 0.0
C2871 C 0.08553 0.682 0.23491 0.0
N2872 N 0.09707 0.72463 0.17553 0.0
N2873 N 0.09649 0.68784 0.21823 0.0
H2874 H 0.58418 0.80645 0.4811 0.0
H2875 H 0.61979 0.88488 0.3998 0.0
H2876 H 0.63179 0.84953 0.49455 0.0
H2877 H 0.55774 0.86187 0.39976 0.0
H2878 H 0.624 0.87309 0.4351 0.0
H2879 H 0.57266 0.82787 0.45249 0.0
C2880 C 0.59169 0.82084 0.47839 0.0
C2881 C 0.60883 0.82639 0.49003 0.0
C2882 C 0.60938 0.87088 0.42742 0.0
C2883 C 0.59653 0.85037 0.45696 0.0
C2884 C 0.60697 0.87753 0.40724 0.0
C2885 C 0.58848 0.87408 0.39666 0.0
C2886 C 0.59329 0.86045 0.43697 0.0
C2887 C 0.57249 0.86431 0.40708 0.0
C2888 C 0.58524 0.83299 0.46203 0.0
C2889 C 0.61837 0.84494 0.4859 0.0
N2890 N 0.57536 0.85761 0.42658 0.0
N2891 N 0.61241 0.85609 0.46928 0.0
H2892 H 0.45416 0.38646 0.74168 0.0
H2893 H 0.46912 0.3359 0.63316 0.0
H2894 H 0.50702 0.3498 0.72527 0.0
H2895 H 0.40912 0.3552 0.65441 0.0
H2896 H 0.48282 0.34093 0.66742 0.0
H2897 H 0.4362 0.37432 0.71095 0.0
C2898 C 0.46166 0.37531 0.73198 0.0
C2899 C 0.48206 0.36917 0.73576 0.0
C2900 C 0.46661 0.34394 0.66465 0.0
C2901 C 0.46208 0.35577 0.70066 0.0
C2902 C 0.45877 0.34107 0.64505 0.0
C2903 C 0.43793 0.34514 0.64084 0.0
C2904 C 0.45362 0.35121 0.68019 0.0
C2905 C 0.42538 0.35222 0.65685 0.0
C2906 C 0.45154 0.36856 0.71438 0.0
C2907 C 0.49133 0.35502 0.72265 0.0
N2908 N 0.43345 0.35516 0.67582 0.0
N2909 N 0.48138 0.34902 0.70551 0.0
H2910 H 0.95935 0.22879 0.87605 0.0
H2911 H 0.91962 0.2123 0.98929 0.0
H2912 H 0.94898 0.16875 0.90093 0.0
H2913 H 0.94867 0.26718 0.96818 0.0
H2914 H 0.93078 0.19515 0.95785 0.0
H2915 H 0.95464 0.24295 0.9101 0.0
C2916 C 0.9561 0.21859 0.88867 0.0
C2917 C 0.95452 0.19758 0.88561 0.0
C2918 C 0.93512 0.2108 0.96037 0.0
C2919 C 0.94904 0.21367 0.92464 0.0
C2920 C 0.92898 0.22047 0.97837 0.0
C2921 C 0.93317 0.24113 0.98109 0.0
C2922 C 0.94535 0.22205 0.9452 0.0
C2923 C 0.94499 0.25125 0.96643 0.0
C2924 C 0.95347 0.22666 0.90813 0.0
C2925 C 0.94996 0.18509 0.90251 0.0
N2926 N 0.95042 0.24169 0.94895 0.0
N2927 N 0.9473 0.19335 0.92133 0.0
H2928 H 0.31399 0.09564 0.37947 0.0
H2929 H 0.43061 0.07656 0.34705 0.0
H2930 H 0.33752 0.0385 0.35647 0.0
H2931 H 0.40489 0.13674 0.35621 0.0
H2932 H 0.39638 0.06239 0.35142 0.0
H2933 H 0.34669 0.11155 0.37062 0.0
C2934 C 0.3258 0.08661 0.372 0.0
C2935 C 0.32319 0.06573 0.36882 0.0
C2936 C 0.39823 0.07871 0.35247 0.0
C2937 C 0.36059 0.08357 0.35921 0.0
C2938 C 0.41777 0.08678 0.35004 0.0
C2939 C 0.42062 0.10784 0.3513 0.0
C2940 C 0.38142 0.09177 0.3563 0.0
C2941 C 0.40347 0.12036 0.35546 0.0
C2942 C 0.34453 0.09562 0.36718 0.0
C2943 C 0.33905 0.05461 0.3594 0.0
N2944 N 0.38457 0.11213 0.35782 0.0
N2945 N 0.35718 0.06362 0.35516 0.0
H2946 H 0.20599 0.06139 0.63993 0.0
H2947 H 0.1972 0.15167 0.55793 0.0
H2948 H 0.24947 0.07027 0.59117 0.0
H2949 H 0.17345 0.15531 0.61954 0.0
H2950 H 0.20919 0.117 0.56514 0.0
H2951 H 0.18566 0.09048 0.62688 0.0
C2952 C 0.21072 0.06895 0.62596 0.0
C2953 C 0.22925 0.06359 0.61646 0.0
C2954 C 0.2012 0.1254 0.57698 0.0
C2955 C 0.20656 0.09671 0.60178 0.0
C2956 C 0.1946 0.14528 0.573 0.0
C2957 C 0.18456 0.1566 0.58825 0.0
C2958 C 0.19757 0.11668 0.59625 0.0
C2959 C 0.18102 0.14718 0.60727 0.0
C2960 C 0.19932 0.08564 0.6187 0.0
C2961 C 0.23513 0.07402 0.59874 0.0
N2962 N 0.18759 0.12778 0.61076 0.0
N2963 N 0.2239 0.09026 0.59202 0.0
H2964 H 0.2359 0.96552 0.8894 0.0
H2965 H 0.13247 0.96458 0.82367 0.0
H2966 H 0.21708 1.01617 0.85108 0.0
H2967 H 0.13882 0.93382 0.88212 0.0
H2968 H 0.16628 0.97952 0.82881 0.0
H2969 H 0.20359 0.94846 0.881 0.0
C2970 C 0.22526 0.9727 0.87867 0.0
C2971 C 0.22906 0.99216 0.87078 0.0
C2972 C 0.16018 0.96951 0.84048 0.0
C2973 C 0.19226 0.97301 0.8614 0.0
C2974 C 0.14076 0.96116 0.83773 0.0
C2975 C 0.13261 0.94794 0.85254 0.0
C2976 C 0.17173 0.96434 0.85797 0.0
C2977 C 0.14451 0.94366 0.87013 0.0
C2978 C 0.20675 0.96314 0.87415 0.0
C2979 C 0.21462 1.00112 0.85739 0.0
N2980 N 0.16353 0.95174 0.8723 0.0
N2981 N 0.19677 0.99147 0.85312 0.0
H2982 H 0.34885 0.90017 0.06399 0.0
H2983 H 0.34243 0.99415 0.14073 0.0
H2984 H 0.37655 0.89962 0.12433 0.0
H2985 H 0.29596 0.98155 0.09534 0.0
H2986 H 0.36214 0.96424 0.12909 0.0
H2987 H 0.33549 0.93438 0.07042 0.0
C2988 C 0.352 0.90712 0.07866 0.0
C2989 C 0.36362 0.89682 0.09376 0.0
C2990 C 0.34788 0.96838 0.12136 0.0
C2991 C 0.34902 0.93627 0.10081 0.0
C2992 C 0.33683 0.98551 0.12779 0.0
C2993 C 0.31772 0.99015 0.11882 0.0
C2994 C 0.33975 0.95619 0.10574 0.0
C2995 C 0.31073 0.97836 0.10249 0.0
C2996 C 0.34459 0.92675 0.08217 0.0
C2997 C 0.36778 0.90697 0.11219 0.0
N2998 N 0.32171 0.96179 0.09651 0.0
N2999 N 0.36044 0.92614 0.11522 0.0
H3000 H 0.40129 0.91778 0.19621 0.0
H3001 H 0.33794 1.02257 0.19646 0.0
H3002 H 0.42853 0.97691 0.20386 0.0
H3003 H 0.31185 0.96582 0.17664 0.0
H3004 H 0.36993 1.0047 0.20494 0.0
H3005 H 0.36747 0.93414 0.19287 0.0
C3006 C 0.40021 0.93422 0.19693 0.0
C3007 C 0.41779 0.94603 0.20022 0.0
C3008 C 0.35715 0.99609 0.19897 0.0
C3009 C 0.3791 0.9647 0.19705 0.0
C3010 C 0.33884 1.00625 0.19427 0.0
C3011 C 0.32235 0.99565 0.18565 0.0
C3012 C 0.359 0.97521 0.19492 0.0
C3013 C 0.32422 0.97452 0.18329 0.0
C3014 C 0.38087 0.9435 0.19527 0.0
C3015 C 0.41538 0.96721 0.20153 0.0
N3016 N 0.3424 0.96499 0.18765 0.0
N3017 N 0.39638 0.97586 0.19996 0.0
H3018 H 0.35207 0.16317 0.48611 0.0
H3019 H 0.34387 0.06577 0.41397 0.0
H3020 H 0.38059 0.15928 0.42657 0.0
H3021 H 0.29759 0.08256 0.45806 0.0
H3022 H 0.36411 0.0954 0.42432 0.0
H3023 H 0.33784 0.12937 0.48105 0.0
C3024 C 0.35526 0.15533 0.47191 0.0
C3025 C 0.36735 0.16431 0.45662 0.0
C3026 C 0.34977 0.09227 0.43206 0.0
C3027 C 0.35166 0.12527 0.45114 0.0
C3028 C 0.33841 0.07528 0.42637 0.0
C3029 C 0.31919 0.07185 0.43531 0.0
C3030 C 0.34188 0.10557 0.44695 0.0
C3031 C 0.31242 0.08479 0.45092 0.0
C3032 C 0.34732 0.13593 0.46918 0.0
C3033 C 0.37149 0.153 0.43886 0.0
N3034 N 0.32372 0.10118 0.4562 0.0
N3035 N 0.36361 0.13408 0.43658 0.0
H3036 H 0.23579 0.09104 0.67792 0.0
H3037 H 0.11598 0.0765 0.69973 0.0
H3038 H 0.20803 0.03284 0.69017 0.0
H3039 H 0.14456 0.13521 0.69382 0.0
H3040 H 0.14984 0.06025 0.69672 0.0
H3041 H 0.2029 0.10773 0.6853 0.0
C3042 C 0.22292 0.0818 0.68261 0.0
C3043 C 0.2246 0.06051 0.68326 0.0
C3044 C 0.1487 0.0767 0.69606 0.0
C3045 C 0.18688 0.07945 0.6913 0.0
C3046 C 0.12937 0.08596 0.69774 0.0
C3047 C 0.12742 0.10722 0.69691 0.0
C3048 C 0.1662 0.08879 0.69352 0.0
C3049 C 0.14528 0.11875 0.69415 0.0
C3050 C 0.20409 0.09133 0.68664 0.0
C3051 C 0.20738 0.0493 0.68928 0.0
N3052 N 0.16392 0.10938 0.69255 0.0
N3053 N 0.18917 0.0589 0.69285 0.0
H3054 H 0.21829 0.88634 0.97021 0.0
H3055 H 0.20646 0.99643 0.92094 0.0
H3056 H 0.15907 0.91047 0.95096 0.0
H3057 H 0.25924 0.97603 0.95609 0.0
H3058 H 0.18772 0.9662 0.93253 0.0
H3059 H 0.23308 0.91973 0.965 0.0
C3060 C 0.20833 0.89868 0.96502 0.0
C3061 C 0.18737 0.89552 0.96107 0.0
C3062 C 0.20321 0.96865 0.9381 0.0
C3063 C 0.20435 0.93393 0.95476 0.0
C3064 C 0.21378 0.98598 0.9317 0.0
C3065 C 0.23435 0.98856 0.9376 0.0
C3066 C 0.21346 0.95399 0.95035 0.0
C3067 C 0.2434 0.97445 0.95114 0.0
C3068 C 0.21681 0.91779 0.96202 0.0
C3069 C 0.17538 0.91209 0.9539 0.0
N3070 N 0.23299 0.95764 0.95685 0.0
N3071 N 0.18407 0.93058 0.95087 0.0
H3072 H 0.34978 0.39743 0.1392 0.0
H3073 H 0.34306 0.33014 0.0382 0.0
H3074 H 0.33307 0.42027 0.07912 0.0
H3075 H 0.37807 0.31097 0.09136 0.0
H3076 H 0.33154 0.36031 0.05661 0.0
H3077 H 0.35434 0.36344 0.12466 0.0
C3078 C 0.34721 0.39537 0.12295 0.0
C3079 C 0.34113 0.4118 0.11033 0.0
C3080 C 0.34148 0.34937 0.0644 0.0
C3081 C 0.34564 0.37289 0.09388 0.0
C3082 C 0.34791 0.3321 0.05397 0.0
C3083 C 0.36165 0.31828 0.06329 0.0
C3084 C 0.34902 0.35292 0.08421 0.0
C3085 C 0.3674 0.32134 0.08374 0.0
C3086 C 0.34959 0.37593 0.11476 0.0
C3087 C 0.33752 0.40808 0.0895 0.0
N3088 N 0.36132 0.33861 0.09349 0.0
N3089 N 0.33982 0.38903 0.08195 0.0
H3090 H 0.8735 0.1451 0.92375 0.0
H3091 H 0.84387 0.22439 1.00856 0.0
H3092 H 0.81454 0.14335 0.9541 0.0
H3093 H 0.88413 0.23994 0.95872 0.0
H3094 H 0.8335 0.19385 0.99005 0.0
H3095 H 0.87914 0.17882 0.93807 0.0
C3096 C 0.86169 0.15177 0.93334 0.0
C3097 C 0.8435 0.14125 0.93771 0.0
C3098 C 0.84425 0.20417 0.98295 0.0
C3099 C 0.85006 0.17975 0.95433 0.0
C3100 C 0.85005 0.22159 0.99343 0.0
C3101 C 0.86462 0.23465 0.98494 0.0
C3102 C 0.85361 0.19955 0.9642 0.0
C3103 C 0.87255 0.23033 0.96552 0.0
C3104 C 0.86493 0.17104 0.94146 0.0
C3105 C 0.82898 0.15061 0.9506 0.0
N3106 N 0.86722 0.21286 0.95591 0.0
N3107 N 0.83264 0.16927 0.95856 0.0
H3108 H 0.05344 0.61814 0.21601 0.0
H3109 H 0.17442 0.61928 0.20903 0.0
H3110 H 0.09234 0.62863 0.26876 0.0
H3111 H 0.14019 0.57504 0.17472 0.0
H3112 H 0.14284 0.62855 0.22743 0.0
H3113 H 0.08399 0.6065 0.19709 0.0
C3114 C 0.06827 0.61777 0.22367 0.0
C3115 C 0.07037 0.62448 0.24393 0.0
C3116 C 0.1423 0.61682 0.21586 0.0
C3117 C 0.10501 0.61183 0.22237 0.0
C3118 C 0.16018 0.61167 0.20535 0.0
C3119 C 0.15969 0.59638 0.19057 0.0
C3120 C 0.12389 0.60685 0.21117 0.0
C3121 C 0.141 0.58682 0.18622 0.0
C3122 C 0.08561 0.6112 0.21288 0.0
C3123 C 0.08994 0.62368 0.25315 0.0
N3124 N 0.12368 0.59231 0.19644 0.0
N3125 N 0.10656 0.61778 0.24219 0.0
H3126 H 0.68504 0.84559 0.5213 0.0
H3127 H 0.68688 0.90858 0.41646 0.0
H3128 H 0.66866 0.82002 0.46272 0.0
H3129 H 0.69611 0.93519 0.47609 0.0
H3130 H 0.68231 0.87549 0.43271 0.0
H3131 H 0.69297 0.87759 0.50431 0.0
C3132 C 0.68344 0.8466 0.50479 0.0
C3133 C 0.67602 0.83017 0.4934 0.0
C3134 C 0.68529 0.88857 0.44224 0.0
C3135 C 0.68474 0.86688 0.47393 0.0
C3136 C 0.68764 0.90754 0.433 0.0
C3137 C 0.69177 0.92474 0.44496 0.0
C3138 C 0.68719 0.88674 0.46358 0.0
C3139 C 0.69312 0.92233 0.46628 0.0
C3140 C 0.68784 0.86493 0.49513 0.0
C3141 C 0.67438 0.83229 0.47207 0.0
N3142 N 0.69087 0.90366 0.47491 0.0
N3143 N 0.67848 0.85044 0.46302 0.0
H3144 H 0.96856 0.96092 0.25815 0.0
H3145 H 0.89072 0.92739 0.17314 0.0
H3146 H 0.98679 0.92042 0.20962 0.0
H3147 H 0.88553 0.98629 0.20193 0.0
H3148 H 0.92532 0.92352 0.18757 0.0
H3149 H 0.93765 0.97038 0.23854 0.0
C3150 C 0.96627 0.95451 0.24306 0.0
C3151 C 0.98013 0.94006 0.2353 0.0
C3152 C 0.9166 0.93733 0.19058 0.0
C3153 C 0.94467 0.95004 0.21332 0.0
C3154 C 0.89684 0.93955 0.18241 0.0
C3155 C 0.88508 0.95715 0.18641 0.0
C3156 C 0.92455 0.95268 0.20308 0.0
C3157 C 0.89376 0.97224 0.19881 0.0
C3158 C 0.94865 0.95979 0.23195 0.0
C3159 C 0.97651 0.93187 0.21588 0.0
N3160 N 0.91291 0.96958 0.20683 0.0
N3161 N 0.95882 0.93666 0.20567 0.0
H3162 H 0.19457 0.65745 0.63599 0.0
H3163 H 0.20049 0.72812 0.53679 0.0
H3164 H 0.20984 0.6367 0.57517 0.0
H3165 H 0.16608 0.74558 0.59032 0.0
H3166 H 0.21259 0.69759 0.55467 0.0
H3167 H 0.19043 0.69205 0.6225 0.0
C3168 C 0.19687 0.66009 0.61978 0.0
C3169 C 0.20243 0.64408 0.60664 0.0
C3170 C 0.20273 0.70827 0.5627 0.0
C3171 C 0.1985 0.68368 0.59142 0.0
C3172 C 0.19605 0.72577 0.5526 0.0
C3173 C 0.18229 0.73918 0.56218 0.0
C3174 C 0.19533 0.70406 0.58239 0.0
C3175 C 0.17683 0.73556 0.58258 0.0
C3176 C 0.19477 0.67988 0.6122 0.0
C3177 C 0.20576 0.64855 0.58592 0.0
N3178 N 0.18308 0.71802 0.59197 0.0
N3179 N 0.20375 0.66793 0.57897 0.0
H3180 H 0.05677 0.4232 0.34429 0.0
H3181 H 0.16911 0.46422 0.32789 0.0
H3182 H 0.07452 0.45975 0.29237 0.0
H3183 H 0.14683 0.44988 0.38847 0.0
H3184 H 0.13425 0.461 0.31463 0.0
H3185 H 0.08891 0.43248 0.36168 0.0
C3186 C 0.06706 0.4338 0.33693 0.0
C3187 C 0.06321 0.44068 0.31691 0.0
C3188 C 0.13697 0.45865 0.33085 0.0
C3189 C 0.09991 0.45074 0.3362 0.0
C3190 C 0.15689 0.46045 0.33843 0.0
C3191 C 0.16094 0.45738 0.35934 0.0
C3192 C 0.12095 0.45348 0.3442 0.0
C3193 C 0.1445 0.45207 0.37218 0.0
C3194 C 0.08546 0.43888 0.34671 0.0
C3195 C 0.07713 0.45402 0.30777 0.0
N3196 N 0.12519 0.4502 0.36438 0.0
N3197 N 0.09504 0.45836 0.31736 0.0
H3198 H 0.483 0.63376 0.84171 0.0
H3199 H 0.36869 0.59609 0.82566 0.0
H3200 H 0.46169 0.60371 0.7871 0.0
H3201 H 0.39368 0.60735 0.88594 0.0
H3202 H 0.40295 0.60008 0.81135 0.0
H3203 H 0.45106 0.62416 0.85897 0.0
C3204 C 0.47191 0.62457 0.8336 0.0
C3205 C 0.47478 0.61965 0.81295 0.0
C3206 C 0.40096 0.60161 0.82773 0.0
C3207 C 0.4383 0.60917 0.83223 0.0
C3208 C 0.38138 0.59938 0.8359 0.0
C3209 C 0.37828 0.60137 0.85702 0.0
C3210 C 0.41757 0.60607 0.84073 0.0
C3211 C 0.39528 0.60601 0.86951 0.0
C3212 C 0.45362 0.6193 0.84335 0.0
C3213 C 0.45987 0.60802 0.80298 0.0
N3214 N 0.41422 0.60826 0.86115 0.0
N3215 N 0.44212 0.60342 0.81263 0.0
H3216 H 0.97244 0.69994 0.61829 0.0
H3217 H 0.9617 0.67942 0.73798 0.0
H3218 H 0.91381 0.70173 0.64917 0.0
H3219 H 1.0191 0.69341 0.70817 0.0
H3220 H 0.94341 0.68754 0.70603 0.0
H3221 H 0.98965 0.69618 0.6514 0.0
C3222 C 0.9632 0.69953 0.63205 0.0
C3223 C 0.94169 0.70111 0.63098 0.0
C3224 C 0.95998 0.6891 0.70663 0.0
C3225 C 0.96123 0.69684 0.66892 0.0
C3226 C 0.9704 0.68464 0.72489 0.0
C3227 C 0.99195 0.68555 0.72565 0.0
C3228 C 0.97127 0.69434 0.68911 0.0
C3229 C 1.00248 0.69226 0.7082 0.0
C3230 C 0.97301 0.69744 0.65095 0.0
C3231 C 0.93043 0.70023 0.64928 0.0
N3232 N 0.99205 0.69615 0.69058 0.0
N3233 N 0.94034 0.69814 0.66753 0.0
H3234 H 0.10986 0.27751 0.45865 0.0
H3235 H 0.09861 0.17178 0.40022 0.0
H3236 H 0.12369 0.21919 0.48665 0.0
H3237 H 0.09131 0.23063 0.37116 0.0
H3238 H 0.10499 0.1886 0.43282 0.0
H3239 H 0.09898 0.2602 0.42764 0.0
C3240 C 0.11034 0.26103 0.45838 0.0
C3241 C 0.11786 0.24976 0.4752 0.0
C3242 C 0.10199 0.19783 0.41931 0.0
C3243 C 0.10567 0.22988 0.43962 0.0
C3244 C 0.09856 0.18825 0.40065 0.0
C3245 C 0.0946 0.19983 0.38289 0.0
C3246 C 0.10139 0.21915 0.42026 0.0
C3247 C 0.09417 0.22111 0.38448 0.0
C3248 C 0.10421 0.25116 0.44062 0.0
C3249 C 0.11798 0.22846 0.47404 0.0
N3250 N 0.09757 0.23008 0.40284 0.0
N3251 N 0.11219 0.21919 0.45643 0.0
H3252 H 0.54829 0.34524 0.22457 0.0
H3253 H 0.62494 0.38153 0.1403 0.0
H3254 H 0.59416 0.39038 0.23724 0.0
H3255 H 0.60051 0.32064 0.14018 0.0
H3256 H 0.61319 0.38555 0.17553 0.0
H3257 H 0.56711 0.33549 0.19371 0.0
C3258 C 0.5627 0.35263 0.22111 0.0
C3259 C 0.56983 0.36853 0.23333 0.0
C3260 C 0.61059 0.37127 0.1678 0.0
C3261 C 0.59084 0.35816 0.19783 0.0
C3262 C 0.61722 0.36896 0.14766 0.0
C3263 C 0.61357 0.35077 0.1371 0.0
C3264 C 0.59995 0.35541 0.17736 0.0
C3265 C 0.60322 0.33514 0.14743 0.0
C3266 C 0.57336 0.34717 0.20349 0.0
C3267 C 0.58838 0.37788 0.22822 0.0
N3268 N 0.59661 0.33789 0.16691 0.0
N3269 N 0.59806 0.37288 0.21052 0.0
H3270 H 0.42152 0.8417 0.98935 0.0
H3271 H 0.45011 0.8289 0.87154 0.0
H3272 H 0.44084 0.78488 0.96216 0.0
H3273 H 0.4433 0.88758 0.90036 0.0
H3274 H 0.4461 0.8126 0.9049 0.0
H3275 H 0.42995 0.85924 0.95734 0.0
C3276 C 0.42802 0.83301 0.97684 0.0
C3277 C 0.43036 0.81182 0.9783 0.0
C3278 C 0.4455 0.82905 0.90393 0.0
C3279 C 0.43953 0.8316 0.94169 0.0
C3280 C 0.44775 0.83835 0.88489 0.0
C3281 C 0.447 0.85962 0.88315 0.0
C3282 C 0.44237 0.8411 0.92138 0.0
C3283 C 0.44363 0.87112 0.90093 0.0
C3284 C 0.43263 0.84298 0.95853 0.0
C3285 C 0.43859 0.80123 0.96158 0.0
N3286 N 0.44143 0.8617 0.91932 0.0
N3287 N 0.44267 0.81121 0.94389 0.0
H3288 H 0.91811 0.3769 0.90266 0.0
H3289 H 1.00613 0.34902 0.82543 0.0
H3290 H 0.94961 0.31862 0.90504 0.0
H3291 H 0.95691 0.39061 0.80891 0.0
H3292 H 0.98616 0.33767 0.85494 0.0
H3293 H 0.93288 0.38297 0.8689 0.0
C3294 C 0.92799 0.36529 0.89609 0.0
C3295 C 0.93266 0.34723 0.90687 0.0
C3296 C 0.97949 0.34892 0.84461 0.0
C3297 C 0.94984 0.3543 0.8683 0.0
C3298 C 0.99081 0.35529 0.82775 0.0
C3299 C 0.98294 0.37052 0.81473 0.0
C3300 C 0.96048 0.35836 0.84878 0.0
C3301 C 0.96326 0.37855 0.81849 0.0
C3302 C 0.93639 0.36879 0.87679 0.0
C3303 C 0.9459 0.33296 0.89761 0.0
N3304 N 0.9528 0.37264 0.83547 0.0
N3305 N 0.95415 0.33688 0.87895 0.0
H3306 H 0.48313 0.20941 0.66116 0.0
H3307 H 0.41614 0.21424 0.55844 0.0
H3308 H 0.42624 0.17685 0.65321 0.0
H3309 H 0.4535 0.26398 0.57903 0.0
H3310 H 0.42646 0.19474 0.5891 0.0
H3311 H 0.47814 0.22475 0.62734 0.0
C3312 C 0.46951 0.20558 0.65244 0.0
C3313 C 0.45497 0.19193 0.66023 0.0
C3314 C 0.43272 0.20976 0.58663 0.0
C3315 C 0.44968 0.20888 0.62119 0.0
C3316 C 0.42708 0.22072 0.56908 0.0
C3317 C 0.43412 0.24059 0.56634 0.0
C3318 C 0.44566 0.21874 0.60123 0.0
C3319 C 0.44783 0.24863 0.58072 0.0
C3320 C 0.46684 0.21417 0.63304 0.0
C3321 C 0.43797 0.1871 0.64783 0.0
N3322 N 0.45313 0.23768 0.59765 0.0
N3323 N 0.4358 0.19556 0.62892 0.0
H3324 H 0.62414 0.68195 0.40295 0.0
H3325 H 0.55259 0.71261 0.31116 0.0
H3326 H 0.60267 0.74386 0.39395 0.0
H3327 H 0.59398 0.66105 0.30814 0.0
H3328 H 0.57207 0.72556 0.34029 0.0
H3329 H 0.61391 0.67425 0.36785 0.0
C3330 C 0.6174 0.69397 0.39359 0.0
C3331 C 0.61406 0.71354 0.40154 0.0
C3332 C 0.57731 0.71172 0.33293 0.0
C3333 C 0.60221 0.70476 0.36141 0.0
C3334 C 0.5663 0.70448 0.31622 0.0
C3335 C 0.57191 0.68593 0.30733 0.0
C3336 C 0.59354 0.6999 0.34112 0.0
C3337 C 0.58943 0.67556 0.31459 0.0
C3338 C 0.61164 0.68957 0.37352 0.0
C3339 C 0.60505 0.72843 0.38871 0.0
N3340 N 0.59942 0.68246 0.33145 0.0
N3341 N 0.59925 0.72367 0.36935 0.0
H3342 H 0.09865 0.79117 0.08382 0.0
H3343 H 0.09815 0.89494 0.14672 0.0
H3344 H 0.12621 0.84609 0.06085 0.0
H3345 H 0.08489 0.83579 0.17229 0.0
H3346 H 0.10329 0.87915 0.11326 0.0
H3347 H 0.08663 0.80969 0.11375 0.0
C3348 C 0.10179 0.80729 0.08494 0.0
C3349 C 0.11355 0.81715 0.07005 0.0
C3350 C 0.09918 0.8697 0.12621 0.0
C3351 C 0.10033 0.8383 0.10444 0.0
C3352 C 0.09646 0.87863 0.14536 0.0
C3353 C 0.0912 0.86664 0.16242 0.0
C3354 C 0.09647 0.84868 0.12409 0.0
C3355 C 0.08871 0.84568 0.15959 0.0
C3356 C 0.09505 0.81781 0.10207 0.0
C3357 C 0.11709 0.83803 0.07204 0.0
N3358 N 0.09139 0.83739 0.14082 0.0
N3359 N 0.11077 0.84792 0.08919 0.0
H3360 H 0.7115 1.01824 0.69613 0.0
H3361 H 0.6441 0.91777 0.6958 0.0
H3362 H 0.73351 0.96139 0.6711 0.0
H3363 H 0.61954 0.97844 0.70488 0.0
H3364 H 0.67823 0.93207 0.69094 0.0
H3365 H 0.67954 1.00187 0.70577 0.0
C3366 C 0.70974 1.00216 0.69307 0.0
C3367 C 0.72498 0.99115 0.68263 0.0
C3368 C 0.66534 0.94222 0.69395 0.0
C3369 C 0.68836 0.97248 0.69318 0.0
C3370 C 0.6458 0.93413 0.69646 0.0
C3371 C 0.62889 0.94697 0.70065 0.0
C3372 C 0.66801 0.96324 0.69587 0.0
C3373 C 0.63215 0.96797 0.70188 0.0
C3374 C 0.69144 0.99288 0.6984 0.0
C3375 C 0.72209 0.97035 0.6792 0.0
N3376 N 0.65136 0.97544 0.69956 0.0
N3377 N 0.7039 0.96169 0.6842 0.0
H3378 H 0.82305 0.88017 0.46193 0.0
H3379 H 0.83586 0.99221 0.41893 0.0
H3380 H 0.88289 0.90537 0.44965 0.0
H3381 H 0.78098 0.97069 0.4486 0.0
H3382 H 0.85425 0.96138 0.43063 0.0
H3383 H 0.80764 0.9137 0.45664 0.0
C3384 C 0.83297 0.89277 0.45821 0.0
C3385 C 0.85429 0.88993 0.45623 0.0
C3386 C 0.8383 0.96366 0.43493 0.0
C3387 C 0.83671 0.9284 0.44994 0.0
C3388 C 0.82791 0.98129 0.42844 0.0
C3389 C 0.80691 0.98375 0.43269 0.0
C3390 C 0.82747 0.94858 0.4456 0.0
C3391 C 0.79714 0.96913 0.44479 0.0
C3392 C 0.82417 0.91194 0.4552 0.0
C3393 C 0.86634 0.90679 0.45099 0.0
N3394 N 0.80743 0.95203 0.4506 0.0
N3395 N 0.85736 0.92534 0.44793 0.0
H3396 H 0.80971 0.09231 0.16198 0.0
H3397 H 0.91286 0.09401 0.22804 0.0
H3398 H 0.83004 0.04082 0.19839 0.0
H3399 H 0.90543 0.12701 0.17095 0.0
H3400 H 0.87967 0.07804 0.22212 0.0
H3401 H 0.84144 0.11001 0.17113 0.0
C3402 C 0.82057 0.08503 0.17242 0.0
C3403 C 0.81736 0.06518 0.17956 0.0
C3404 C 0.8854 0.08876 0.21092 0.0
C3405 C 0.85351 0.08506 0.18976 0.0
C3406 C 0.90446 0.09772 0.21412 0.0
C3407 C 0.91208 0.11189 0.19993 0.0
C3408 C 0.8737 0.09426 0.19363 0.0
C3409 C 0.9001 0.11645 0.18248 0.0
C3410 C 0.83875 0.09497 0.17737 0.0
C3411 C 0.83206 0.05615 0.19263 0.0
N3412 N 0.88143 0.10776 0.17988 0.0
N3413 N 0.84959 0.06617 0.19732 0.0
H3414 H 0.71931 0.16926 0.96648 0.0
H3415 H 0.70447 0.06138 0.91636 0.0
H3416 H 0.65905 0.14828 0.94873 0.0
H3417 H 0.7571 0.07759 0.95302 0.0
H3418 H 0.68631 0.09198 0.92865 0.0
H3419 H 0.73303 0.13515 0.96119 0.0
C3420 C 0.70892 0.15747 0.96157 0.0
C3421 C 0.688 0.16169 0.95806 0.0
C3422 C 0.70162 0.08849 0.93443 0.0
C3423 C 0.70366 0.12253 0.95173 0.0
C3424 C 0.71183 0.07096 0.92761 0.0
C3425 C 0.73224 0.0672 0.93369 0.0
C3426 C 0.71208 0.1021 0.94724 0.0
C3427 C 0.74138 0.08015 0.94793 0.0
C3428 C 0.71676 0.13795 0.95856 0.0
C3429 C 0.67536 0.14582 0.95128 0.0
N3430 N 0.73135 0.0972 0.954 0.0
N3431 N 0.68343 0.12691 0.94821 0.0
H3432 H 0.63361 0.12084 0.88321 0.0
H3433 H 0.71496 0.0399 0.84629 0.0
H3434 H 0.62838 0.09302 0.82358 0.0
H3435 H 0.73197 0.09012 0.88484 0.0
H3436 H 0.68206 0.05705 0.83883 0.0
H3437 H 0.66847 0.10674 0.88634 0.0
C3438 C 0.63971 0.11175 0.8708 0.0
C3439 C 0.62798 0.10816 0.85309 0.0
C3440 C 0.69319 0.0645 0.84856 0.0
C3441 C 0.6677 0.09191 0.85671 0.0
C3442 C 0.71194 0.05481 0.85269 0.0
C3443 C 0.72608 0.06376 0.86604 0.0
C3444 C 0.68847 0.08289 0.85837 0.0
C3445 C 0.7215 0.08293 0.87422 0.0
C3446 C 0.65961 0.1038 0.87259 0.0
C3447 C 0.63661 0.09591 0.83769 0.0
N3448 N 0.70282 0.09173 0.87058 0.0
N3449 N 0.65595 0.08816 0.8399 0.0
H3450 H 0.70335 0.98981 0.63795 0.0
H3451 H 0.69498 0.89144 0.56715 0.0
H3452 H 0.74864 0.97355 0.59268 0.0
H3453 H 0.66876 0.89493 0.62777 0.0
H3454 H 0.70878 0.92548 0.5716 0.0
H3455 H 0.68372 0.95939 0.62884 0.0
C3456 C 0.7087 0.98024 0.62556 0.0
C3457 C 0.72748 0.98409 0.61591 0.0
C3458 C 0.69992 0.91877 0.58386 0.0
C3459 C 0.70547 0.94945 0.60566 0.0
C3460 C 0.69223 0.89922 0.58147 0.0
C3461 C 0.6809 0.89004 0.59723 0.0
C3462 C 0.69605 0.92943 0.60201 0.0
C3463 C 0.67727 0.90133 0.61513 0.0
C3464 C 0.69769 0.96279 0.62058 0.0
C3465 C 0.73413 0.97104 0.60034 0.0
N3466 N 0.68485 0.92042 0.61704 0.0
N3467 N 0.72317 0.95421 0.59573 0.0
H3468 H 0.82032 1.01083 0.34254 0.0
H3469 H 0.90454 0.93148 0.37671 0.0
H3470 H 0.80689 0.96262 0.3853 0.0
H3471 H 0.90509 0.95825 0.31608 0.0
H3472 H 0.86936 0.94414 0.38112 0.0
H3473 H 0.85175 0.99261 0.33255 0.0
C3474 C 0.82375 0.99608 0.34933 0.0
C3475 C 0.81113 0.98804 0.3646 0.0
C3476 C 0.87719 0.94709 0.36682 0.0
C3477 C 0.84719 0.96768 0.354 0.0
C3478 C 0.89729 0.93994 0.36429 0.0
C3479 C 0.90789 0.94387 0.34602 0.0
C3480 C 0.86775 0.95852 0.35111 0.0
C3481 C 0.89776 0.95523 0.33062 0.0
C3482 C 0.84167 0.98577 0.34374 0.0
C3483 C 0.8162 0.96908 0.37325 0.0
N3484 N 0.87829 0.96229 0.33357 0.0
N3485 N 0.83417 0.95969 0.36813 0.0
H3486 H 0.88854 0.14714 0.09973 0.0
H3487 H 0.78639 0.08123 0.09344 0.0
H3488 H 0.82884 0.16995 0.08036 0.0
H3489 H 0.8395 0.06188 0.12868 0.0
H3490 H 0.80528 0.11073 0.08144 0.0
H3491 H 0.87355 0.11355 0.10515 0.0
C3492 C 0.87228 0.14516 0.09672 0.0
C3493 C 0.85991 0.16148 0.08964 0.0
C3494 C 0.81298 0.09991 0.09154 0.0
C3495 C 0.84294 0.12298 0.09519 0.0
C3496 C 0.80227 0.08299 0.09821 0.0
C3497 C 0.81146 0.06928 0.11207 0.0
C3498 C 0.83292 0.10328 0.09901 0.0
C3499 C 0.83202 0.07213 0.11785 0.0
C3500 C 0.86383 0.12593 0.09961 0.0
C3501 C 0.83906 0.15784 0.08556 0.0
N3502 N 0.84204 0.0891 0.11155 0.0
N3503 N 0.83127 0.13901 0.08839 0.0
H3504 H 0.70687 0.7343 1.00831 0.0
H3505 H 0.70129 0.66612 0.90793 0.0
H3506 H 0.67007 0.75151 0.95578 0.0
H3507 H 0.72401 0.646 0.96706 0.0
H3508 H 0.69564 0.70019 0.92199 0.0
H3509 H 0.721 0.70569 0.98927 0.0
C3510 C 0.70229 0.73236 0.99247 0.0
C3511 C 0.68734 0.74514 0.98353 0.0
C3512 C 0.70202 0.68831 0.93176 0.0
C3513 C 0.70263 0.71193 0.96195 0.0
C3514 C 0.70505 0.6688 0.92386 0.0
C3515 C 0.71302 0.65305 0.93637 0.0
C3516 C 0.70719 0.69212 0.95225 0.0
C3517 C 0.71807 0.65761 0.95673 0.0
C3518 C 0.71014 0.7159 0.98169 0.0
C3519 C 0.68169 0.74196 0.96308 0.0
N3520 N 0.71502 0.67667 0.964 0.0
N3521 N 0.68906 0.72533 0.95301 0.0
H3522 H 0.20102 0.89998 0.14059 0.0
H3523 H 0.19916 0.83527 0.03768 0.0
H3524 H 0.21312 0.92411 0.0802 0.0
H3525 H 0.17123 0.8143 0.09363 0.0
H3526 H 0.21143 0.86525 0.05549 0.0
H3527 H 0.19532 0.86654 0.12551 0.0
C3528 C 0.2023 0.89832 0.12415 0.0
C3529 C 0.20742 0.91494 0.1116 0.0
C3530 C 0.20287 0.854 0.064 0.0
C3531 C 0.20157 0.87663 0.09446 0.0
C3532 C 0.196 0.83684 0.05389 0.0
C3533 C 0.18406 0.82252 0.06425 0.0
C3534 C 0.19755 0.85695 0.08456 0.0
C3535 C 0.18048 0.82506 0.08521 0.0
C3536 C 0.19927 0.87918 0.11563 0.0
C3537 C 0.20941 0.91173 0.09049 0.0
N3538 N 0.18695 0.84223 0.09469 0.0
N3539 N 0.20647 0.89296 0.08261 0.0
H3540 H 0.87203 0.46346 0.82799 0.0
H3541 H 0.98913 0.42743 0.83955 0.0
H3542 H 0.90123 0.45334 0.88681 0.0
H3543 H 0.96161 0.4489 0.783 0.0
H3544 H 0.95778 0.43777 0.85774 0.0
H3545 H 0.90516 0.45811 0.81147 0.0
C3546 C 0.88542 0.46015 0.83744 0.0
C3547 C 0.88383 0.45883 0.85881 0.0
C3548 C 0.95878 0.44051 0.8414 0.0
C3549 C 0.92186 0.45256 0.83998 0.0
C3550 C 0.97671 0.4348 0.83108 0.0
C3551 C 0.97782 0.43721 0.80978 0.0
C3552 C 0.94198 0.44859 0.83023 0.0
C3553 C 0.96125 0.44657 0.79944 0.0
C3554 C 0.90436 0.4571 0.828 0.0
C3555 C 0.90168 0.45418 0.87026 0.0
N3556 N 0.94393 0.45173 0.80973 0.0
N3557 N 0.91997 0.45117 0.86069 0.0
H3558 H 0.37566 0.24714 0.58887 0.0
H3559 H 0.33437 0.13451 0.57626 0.0
H3560 H 0.35309 0.22251 0.532 0.0
H3561 H 0.34454 0.16191 0.63538 0.0
H3562 H 0.34055 0.16731 0.56004 0.0
H3563 H 0.36278 0.21704 0.60689 0.0
C3564 C 0.3675 0.23566 0.58031 0.0
C3565 C 0.36557 0.23707 0.55898 0.0
C3566 C 0.34135 0.16619 0.57658 0.0
C3567 C 0.35131 0.20271 0.57919 0.0
C3568 C 0.33783 0.14745 0.58583 0.0
C3569 C 0.33905 0.14545 0.60718 0.0
C3570 C 0.34627 0.18303 0.58874 0.0
C3571 C 0.34385 0.16268 0.61883 0.0
C3572 C 0.36033 0.21844 0.59052 0.0
C3573 C 0.35512 0.22177 0.54847 0.0
N3574 N 0.34738 0.18076 0.60944 0.0
N3575 N 0.34859 0.2051 0.55865 0.0
H3576 H 0.08846 0.1106 0.77897 0.0
H3577 H 0.14999 0.10643 0.88502 0.0
H3578 H 0.06178 0.12867 0.83665 0.0
H3579 H 0.17819 0.09871 0.82575 0.0
H3580 H 0.1166 0.11104 0.86824 0.0
H3581 H 0.12013 0.10103 0.79685 0.0
C3582 C 0.08916 0.11224 0.79547 0.0
C3583 C 0.07258 0.12065 0.80635 0.0
C3584 C 0.1301 0.10834 0.85893 0.0
C3585 C 0.10886 0.11004 0.82681 0.0
C3586 C 0.1492 0.10596 0.86846 0.0
C3587 C 0.16693 0.10234 0.85674 0.0
C3588 C 0.12871 0.10699 0.83754 0.0
C3589 C 0.1649 0.10132 0.83538 0.0
C3590 C 0.10729 0.10689 0.80564 0.0
C3591 C 0.07422 0.12224 0.82769 0.0
N3592 N 0.14612 0.10364 0.82647 0.0
N3593 N 0.0922 0.11722 0.83724 0.0
H3594 H 0.83412 0.42191 0.47617 0.0
H3595 H 0.88157 0.3125 0.4606 0.0
H3596 H 0.84979 0.40005 0.41585 0.0
H3597 H 0.84411 0.32902 0.51242 0.0
H3598 H 0.8695 0.3434 0.44273 0.0
H3599 H 0.83838 0.38747 0.48948 0.0
C3600 C 0.83839 0.40987 0.4657 0.0
C3601 C 0.84163 0.41391 0.44488 0.0
C3602 C 0.86349 0.33993 0.45778 0.0
C3603 C 0.8467 0.37443 0.46005 0.0
C3604 C 0.87017 0.32223 0.46783 0.0
C3605 C 0.86387 0.31849 0.48797 0.0
C3606 C 0.85067 0.3538 0.46815 0.0
C3607 C 0.84944 0.33163 0.49693 0.0
C3608 C 0.84076 0.39018 0.47329 0.0
C3609 C 0.84752 0.39771 0.4321 0.0
N3610 N 0.84357 0.34893 0.48709 0.0
N3611 N 0.84999 0.37866 0.43993 0.0
H3612 H 0.99306 0.63762 0.70511 0.0
H3613 H 0.88618 0.58351 0.71878 0.0
H3614 H 0.97864 0.59772 0.75549 0.0
H3615 H 0.90542 0.60627 0.65977 0.0
H3616 H 0.92081 0.58841 0.73179 0.0
H3617 H 0.96251 0.62534 0.68673 0.0
C3618 C 0.98394 0.62566 0.71187 0.0
C3619 C 0.98821 0.61856 0.73173 0.0
C3620 C 0.91755 0.5922 0.71593 0.0
C3621 C 0.95326 0.60505 0.71137 0.0
C3622 C 0.89771 0.58939 0.70847 0.0
C3623 C 0.8928 0.59445 0.68813 0.0
C3624 C 0.93263 0.60046 0.70309 0.0
C3625 C 0.90839 0.60248 0.67567 0.0
C3626 C 0.96642 0.61884 0.70154 0.0
C3627 C 0.97575 0.60349 0.74017 0.0
N3628 N 0.9276 0.60538 0.6834 0.0
N3629 N 0.95867 0.59744 0.73007 0.0
H3630 H 0.65383 0.44725 0.16308 0.0
H3631 H 0.58378 0.45292 0.26288 0.0
H3632 H 0.67607 0.46144 0.22377 0.0
H3633 H 0.56492 0.42107 0.20843 0.0
H3634 H 0.61522 0.46305 0.24563 0.0
H3635 H 0.61939 0.4425 0.17714 0.0
C3636 C 0.65156 0.44916 0.17938 0.0
C3637 C 0.66794 0.4547 0.19229 0.0
C3638 C 0.6041 0.45407 0.23733 0.0
C3639 C 0.62846 0.45 0.20821 0.0
C3640 C 0.5861 0.44844 0.24709 0.0
C3641 C 0.57194 0.43598 0.23708 0.0
C3642 C 0.60802 0.44709 0.21746 0.0
C3643 C 0.5755 0.43074 0.21661 0.0
C3644 C 0.63184 0.44668 0.18731 0.0
C3645 C 0.66392 0.45744 0.21318 0.0
N3646 N 0.59345 0.43607 0.2075 0.0
N3647 N 0.64458 0.45511 0.22046 0.0
H3648 H 0.62184 0.88585 0.91162 0.0
H3649 H 0.53361 0.85447 0.83601 0.0
H3650 H 0.58957 0.82924 0.91977 0.0
H3651 H 0.58637 0.88797 0.81528 0.0
H3652 H 0.552 0.84633 0.86791 0.0
H3653 H 0.60661 0.88918 0.87748 0.0
C3654 C 0.61162 0.87409 0.90629 0.0
C3655 C 0.60702 0.85723 0.91871 0.0
C3656 C 0.55968 0.85513 0.85619 0.0
C3657 C 0.58937 0.86117 0.87976 0.0
C3658 C 0.54926 0.85968 0.83801 0.0
C3659 C 0.55857 0.87183 0.82306 0.0
C3660 C 0.57925 0.86328 0.85959 0.0
C3661 C 0.57878 0.87835 0.82637 0.0
C3662 C 0.60298 0.87601 0.88678 0.0
C3663 C 0.59329 0.84272 0.91102 0.0
N3664 N 0.58833 0.87434 0.84452 0.0
N3665 N 0.58485 0.8451 0.89208 0.0
H3666 H 0.44978 0.28866 0.07862 0.0
H3667 H 0.44723 0.38909 0.14642 0.0
H3668 H 0.41623 0.34276 0.0599 0.0
H3669 H 0.46182 0.32885 0.16951 0.0
H3670 H 0.44104 0.37462 0.11257 0.0
H3671 H 0.46145 0.30621 0.10923 0.0
C3672 C 0.44526 0.30444 0.08079 0.0
C3673 C 0.43191 0.3143 0.06693 0.0
C3674 C 0.44561 0.36464 0.12508 0.0
C3675 C 0.44476 0.33425 0.10206 0.0
C3676 C 0.44891 0.3728 0.14447 0.0
C3677 C 0.45496 0.36013 0.16091 0.0
C3678 C 0.44862 0.34372 0.1221 0.0
C3679 C 0.45742 0.33924 0.15729 0.0
C3680 C 0.45177 0.31437 0.09832 0.0
C3681 C 0.4266 0.33473 0.07027 0.0
N3682 N 0.45428 0.33171 0.13827 0.0
N3683 N 0.43281 0.34402 0.08776 0.0
H3684 H 0.91112 0.20386 0.40138 0.0
H3685 H 1.01128 0.20664 0.33132 0.0
H3686 H 0.9725 0.21646 0.42333 0.0
H3687 H 0.95499 0.17795 0.31224 0.0
H3688 H 0.99444 0.21771 0.36267 0.0
H3689 H 0.92479 0.19999 0.36679 0.0
C3690 C 0.92749 0.20563 0.399 0.0
C3691 C 0.94074 0.2103 0.41536 0.0
C3692 C 0.98565 0.20924 0.35152 0.0
C3693 C 0.95624 0.20655 0.37575 0.0
C3694 C 0.9952 0.20304 0.3336 0.0
C3695 C 0.98452 0.19118 0.3194 0.0
C3696 C 0.96534 0.20338 0.35534 0.0
C3697 C 0.9637 0.18709 0.32288 0.0
C3698 C 0.9352 0.20366 0.37921 0.0
C3699 C 0.96169 0.21301 0.41121 0.0
N3700 N 0.95481 0.19292 0.34075 0.0
N3701 N 0.96878 0.21107 0.39182 0.0
H3702 H 0.12573 0.71368 0.55975 0.0
H3703 H 0.09532 0.72673 0.67679 0.0
H3704 H 0.10079 0.76904 0.5854 0.0
H3705 H 0.10399 0.66758 0.64939 0.0
H3706 H 0.09829 0.74231 0.64305 0.0
H3707 H 0.11763 0.69581 0.5918 0.0
C3708 C 0.118 0.72189 0.57189 0.0
C3709 C 0.11401 0.74283 0.57008 0.0
C3710 C 0.0995 0.7259 0.64438 0.0
C3711 C 0.10529 0.72281 0.60668 0.0
C3712 C 0.09782 0.717 0.66367 0.0
C3713 C 0.09938 0.69582 0.66595 0.0
C3714 C 0.10293 0.71358 0.6272 0.0
C3715 C 0.10301 0.68401 0.64841 0.0
C3716 C 0.11359 0.71177 0.59022 0.0
C3717 C 0.1043 0.7529 0.58632 0.0
N3718 N 0.1047 0.69306 0.62974 0.0
N3719 N 0.1005 0.74286 0.60402 0.0
H3720 H 0.53037 0.2051 0.7208 0.0
H3721 H 0.63602 0.21062 0.65948 0.0
H3722 H 0.58798 0.18204 0.74522 0.0
H3723 H 0.57596 0.2234 0.63341 0.0
H3724 H 0.61999 0.20505 0.69279 0.0
H3725 H 0.5485 0.21848 0.69123 0.0
C3726 C 0.54695 0.20316 0.72007 0.0
C3727 C 0.5577 0.1921 0.73519 0.0
C3728 C 0.61037 0.20917 0.67978 0.0
C3729 C 0.57848 0.20699 0.70121 0.0
C3730 C 0.61945 0.21213 0.66071 0.0
C3731 C 0.60728 0.21728 0.64355 0.0
C3732 C 0.58898 0.21149 0.68172 0.0
C3733 C 0.58597 0.21958 0.6462 0.0
C3734 C 0.55727 0.21071 0.70313 0.0
C3735 C 0.57916 0.19032 0.73373 0.0
N3736 N 0.57751 0.2166 0.6649 0.0
N3737 N 0.58887 0.19737 0.71676 0.0
H3738 H 0.09469 0.39473 0.90875 0.0
H3739 H 0.09025 0.29388 0.97667 0.0
H3740 H 0.07576 0.33571 0.8873 0.0
H3741 H 0.12624 0.34572 0.99413 0.0
H3742 H 0.07621 0.31323 0.94781 0.0
H3743 H 0.09955 0.38028 0.9431 0.0
C3744 C 0.09162 0.37874 0.9112 0.0
C3745 C 0.08498 0.36635 0.89503 0.0
C3746 C 0.08687 0.32057 0.95814 0.0
C3747 C 0.08984 0.35006 0.93434 0.0
C3748 C 0.09471 0.3096 0.97469 0.0
C3749 C 0.10944 0.31828 0.98755 0.0
C3750 C 0.09414 0.34021 0.95426 0.0
C3751 C 0.11482 0.33863 0.98447 0.0
C3752 C 0.09417 0.37062 0.93085 0.0
C3753 C 0.0807 0.34591 0.89926 0.0
N3754 N 0.10744 0.34888 0.96777 0.0
N3755 N 0.08326 0.33842 0.91848 0.0
H3756 H 0.95673 0.88481 0.24084 0.0
H3757 H 0.97098 0.8395 0.12905 0.0
H3758 H 1.01334 0.85831 0.21845 0.0
H3759 H 0.91125 0.8548 0.15381 0.0
H3760 H 0.98629 0.84539 0.16253 0.0
H3761 H 0.93887 0.87224 0.21027 0.0
C3762 C 0.96522 0.87584 0.22978 0.0
C3763 C 0.98648 0.87267 0.23195 0.0
C3764 C 0.9698 0.84738 0.1607 0.0
C3765 C 0.96649 0.85873 0.19705 0.0
C3766 C 0.96106 0.84399 0.14156 0.0
C3767 C 0.93981 0.84672 0.13858 0.0
C3768 C 0.95728 0.85372 0.177 0.0
C3769 C 0.92776 0.85289 0.15532 0.0
C3770 C 0.95511 0.86884 0.21228 0.0
C3771 C 0.99694 0.86125 0.21714 0.0
N3772 N 0.93669 0.85628 0.17382 0.0
N3773 N 0.98688 0.85489 0.2002 0.0
H3774 H 0.45506 0.66507 0.40695 0.0
H3775 H 0.44629 0.76887 0.46907 0.0
H3776 H 0.4682 0.72458 0.38219 0.0
H3777 H 0.42002 0.71277 0.49064 0.0
H3778 H 0.46127 0.7508 0.44023 0.0
H3779 H 0.4475 0.68067 0.44002 0.0
C3780 C 0.45624 0.68142 0.40841 0.0
C3781 C 0.46209 0.69358 0.3917 0.0
C3782 C 0.45247 0.74233 0.45136 0.0
C3783 C 0.45403 0.71134 0.42958 0.0
C3784 C 0.44402 0.7526 0.46787 0.0
C3785 C 0.43177 0.74224 0.48199 0.0
C3786 C 0.4484 0.72159 0.44884 0.0
C3787 C 0.42943 0.7212 0.47998 0.0
C3788 C 0.45213 0.69025 0.42735 0.0
C3789 C 0.4639 0.71459 0.39465 0.0
N3790 N 0.43742 0.71154 0.4634 0.0
N3791 N 0.45983 0.7228 0.41321 0.0
H3792 H 0.83294 0.53944 0.85365 0.0
H3793 H 0.89814 0.64137 0.84966 0.0
H3794 H 0.81093 0.59605 0.87914 0.0
H3795 H 0.92316 0.58109 0.83944 0.0
H3796 H 0.86439 0.62654 0.85572 0.0
H3797 H 0.86378 0.55649 0.84181 0.0
C3798 C 0.83448 0.5556 0.8564 0.0
C3799 C 0.81959 0.56639 0.86752 0.0
C3800 C 0.87729 0.61661 0.85214 0.0
C3801 C 0.85495 0.58585 0.85446 0.0
C3802 C 0.89661 0.625 0.84891 0.0
C3803 C 0.91356 0.61241 0.84417 0.0
C3804 C 0.8749 0.59552 0.85044 0.0
C3805 C 0.91052 0.59138 0.84286 0.0
C3806 C 0.85212 0.56528 0.84977 0.0
C3807 C 0.82212 0.58729 0.87054 0.0
N3808 N 0.89156 0.58361 0.84597 0.0
N3809 N 0.83973 0.59636 0.86429 0.0
H3810 H 0.75673 0.57557 0.0937 0.0
H3811 H 0.657 0.64701 0.09858 0.0
H3812 H 0.70543 0.56206 0.13289 0.0
H3813 H 0.71669 0.66495 0.07632 0.0
H3814 H 0.67083 0.61275 0.10514 0.0
H3815 H 0.73743 0.60418 0.07914 0.0
C3816 C 0.74108 0.57832 0.09873 0.0
C3817 C 0.73257 0.56664 0.11445 0.0
C3818 C 0.68076 0.62421 0.09867 0.0
C3819 C 0.71079 0.59978 0.09864 0.0
C3820 C 0.67301 0.64382 0.09514 0.0
C3821 C 0.68575 0.65897 0.08699 0.0
C3822 C 0.70129 0.61972 0.09376 0.0
C3823 C 0.70619 0.65378 0.08236 0.0
C3824 C 0.73017 0.59476 0.09062 0.0
C3825 C 0.71236 0.57077 0.12065 0.0
N3826 N 0.7133 0.63461 0.08583 0.0
N3827 N 0.70219 0.58739 0.11299 0.0
H3828 H 0.73847 0.46635 0.3792 0.0
H3829 H 0.62035 0.47974 0.34725 0.0
H3830 H 0.7107 0.52338 0.35989 0.0
H3831 H 0.64985 0.421 0.35565 0.0
H3832 H 0.65359 0.49591 0.35227 0.0
H3833 H 0.70663 0.44902 0.36993 0.0
C3834 C 0.72587 0.47513 0.37255 0.0
C3835 C 0.72714 0.49632 0.37044 0.0
C3836 C 0.65279 0.47947 0.35301 0.0
C3837 C 0.69066 0.47678 0.36029 0.0
C3838 C 0.63381 0.47025 0.35019 0.0
C3839 C 0.63229 0.449 0.3511 0.0
C3840 C 0.67039 0.46738 0.35686 0.0
C3841 C 0.65022 0.43746 0.35518 0.0
C3842 C 0.70764 0.46529 0.36746 0.0
C3843 C 0.71029 0.50703 0.36198 0.0
N3844 N 0.66854 0.4468 0.35793 0.0
N3845 N 0.69267 0.49717 0.35742 0.0
H3846 H 0.87475 0.39701 0.62935 0.0
H3847 H 0.7886 0.4768 0.59958 0.0
H3848 H 0.84369 0.39504 0.5707 0.0
H3849 H 0.83899 0.49231 0.63954 0.0
H3850 H 0.80737 0.44601 0.58935 0.0
H3851 H 0.86013 0.43094 0.63487 0.0
C3852 C 0.86493 0.40368 0.6176 0.0
C3853 C 0.86043 0.39305 0.59954 0.0
C3854 C 0.81452 0.45637 0.60001 0.0
C3855 C 0.84353 0.43176 0.60591 0.0
C3856 C 0.80389 0.47392 0.60574 0.0
C3857 C 0.81245 0.48702 0.62021 0.0
C3858 C 0.8335 0.45167 0.60935 0.0
C3859 C 0.83211 0.48263 0.62808 0.0
C3860 C 0.85665 0.42306 0.62076 0.0
C3861 C 0.84727 0.40239 0.58505 0.0
N3862 N 0.84188 0.46504 0.62283 0.0
N3863 N 0.83918 0.42117 0.58861 0.0
H3864 H 0.92392 0.47788 0.70854 0.0
H3865 H 0.80833 0.46423 0.67285 0.0
H3866 H 0.89877 0.41846 0.69695 0.0
H3867 H 0.8308 0.51768 0.70332 0.0
H3868 H 0.84046 0.44624 0.68202 0.0
H3869 H 0.88943 0.49252 0.70578 0.0
C3870 C 0.91114 0.46789 0.70545 0.0
C3871 C 0.91427 0.44691 0.70301 0.0
C3872 C 0.83809 0.46173 0.68714 0.0
C3873 C 0.87468 0.4636 0.6997 0.0
C3874 C 0.8197 0.47188 0.68214 0.0
C3875 C 0.81712 0.49241 0.6873 0.0
C3876 C 0.8538 0.47237 0.6972 0.0
C3877 C 0.83238 0.50186 0.69894 0.0
C3878 C 0.89143 0.47625 0.70392 0.0
C3879 C 0.89713 0.43477 0.69863 0.0
N3880 N 0.85022 0.49186 0.70325 0.0
N3881 N 0.87804 0.44331 0.69704 0.0
H3882 H 0.84275 0.56428 0.92201 0.0
H3883 H 0.82859 0.67587 0.96562 0.0
H3884 H 0.78858 0.58556 0.95365 0.0
H3885 H 0.88837 0.65166 0.9492 0.0
H3886 H 0.81425 0.64212 0.96179 0.0
H3887 H 0.86095 0.59488 0.93325 0.0
C3888 C 0.83498 0.57503 0.93194 0.0
C3889 C 0.8142 0.57258 0.93691 0.0
C3890 C 0.83055 0.64412 0.95914 0.0
C3891 C 0.83447 0.60758 0.94921 0.0
C3892 C 0.83876 0.66344 0.96133 0.0
C3893 C 0.85973 0.66668 0.95772 0.0
C3894 C 0.8433 0.62786 0.95303 0.0
C3895 C 0.87203 0.64998 0.95179 0.0
C3896 C 0.84524 0.59257 0.93814 0.0
C3897 C 0.8046 0.58706 0.94942 0.0
N3898 N 0.86361 0.63128 0.94951 0.0
N3899 N 0.81472 0.60407 0.95491 0.0
H3900 H 0.63348 0.62188 0.16385 0.0
H3901 H 0.71495 0.54026 0.20113 0.0
H3902 H 0.62794 0.5928 0.22311 0.0
H3903 H 0.73224 0.59185 0.16416 0.0
H3904 H 0.6817 0.55688 0.20786 0.0
H3905 H 0.66838 0.60792 0.16115 0.0
C3906 C 0.63952 0.61258 0.17629 0.0
C3907 C 0.62764 0.60858 0.19376 0.0
C3908 C 0.69295 0.5647 0.19861 0.0
C3909 C 0.66745 0.59239 0.19056 0.0
C3910 C 0.71189 0.55531 0.19488 0.0
C3911 C 0.72629 0.56483 0.18223 0.0
C3912 C 0.68826 0.5834 0.18912 0.0
C3913 C 0.72161 0.58419 0.17424 0.0
C3914 C 0.65945 0.60467 0.17473 0.0
C3915 C 0.63625 0.59602 0.20916 0.0
N3916 N 0.70278 0.59271 0.1775 0.0
N3917 N 0.6556 0.5883 0.20716 0.0
H3918 H 0.75614 0.48209 0.45965 0.0
H3919 H 0.65834 0.41077 0.44767 0.0
H3920 H 0.70595 0.49711 0.41866 0.0
H3921 H 0.71767 0.39159 0.47158 0.0
H3922 H 0.67188 0.44502 0.44243 0.0
H3923 H 0.73746 0.45237 0.47149 0.0
C3924 C 0.74082 0.47944 0.45367 0.0
C3925 C 0.73246 0.49198 0.43829 0.0
C3926 C 0.68182 0.43328 0.44893 0.0
C3927 C 0.71138 0.45759 0.45104 0.0
C3928 C 0.67421 0.41366 0.45172 0.0
C3929 C 0.68689 0.39815 0.46003 0.0
C3930 C 0.70214 0.43745 0.45471 0.0
C3931 C 0.70718 0.40301 0.46543 0.0
C3932 C 0.73028 0.46235 0.46021 0.0
C3933 C 0.71271 0.48785 0.43077 0.0
N3934 N 0.71413 0.4222 0.46268 0.0
N3935 N 0.7029 0.47071 0.43699 0.0
H3936 H 0.83988 0.828 0.53695 0.0
H3937 H 0.86939 0.90382 0.62266 0.0
H3938 H 0.87446 0.80791 0.59001 0.0
H3939 H 0.81049 0.9096 0.59188 0.0
H3940 H 0.87299 0.86943 0.60916 0.0
H3941 H 0.82902 0.85845 0.55561 0.0
C3942 C 0.84468 0.82979 0.55276 0.0
C3943 C 0.85814 0.81565 0.56202 0.0
C3944 C 0.85922 0.87824 0.60554 0.0
C3945 C 0.84654 0.85054 0.58299 0.0
C3946 C 0.85716 0.8979 0.61316 0.0
C3947 C 0.83961 0.90974 0.60839 0.0
C3948 C 0.84384 0.87051 0.59273 0.0
C3949 C 0.8245 0.90129 0.59562 0.0
C3950 C 0.83858 0.84714 0.56333 0.0
C3951 C 0.86407 0.81855 0.58243 0.0
N3952 N 0.82705 0.88224 0.58808 0.0
N3953 N 0.85865 0.83601 0.59213 0.0
H3954 H 0.32859 0.63349 0.46876 0.0
H3955 H 0.37016 0.74622 0.45652 0.0
H3956 H 0.34105 0.66059 0.40976 0.0
H3957 H 0.34747 0.72078 0.51301 0.0
H3958 H 0.35732 0.71634 0.43823 0.0
H3959 H 0.33391 0.66634 0.48473 0.0
C3960 C 0.33231 0.64639 0.45913 0.0
C3961 C 0.33446 0.64424 0.4379 0.0
C3962 C 0.35486 0.7175 0.45457 0.0
C3963 C 0.34084 0.68197 0.45613 0.0
C3964 C 0.36202 0.73459 0.46494 0.0
C3965 C 0.36007 0.73571 0.48626 0.0
C3966 C 0.34579 0.70162 0.46574 0.0
C3967 C 0.34958 0.72027 0.49657 0.0
C3968 C 0.33538 0.66518 0.46826 0.0
C3969 C 0.33963 0.66146 0.42624 0.0
N3970 N 0.34304 0.70375 0.48625 0.0
N3971 N 0.34277 0.67961 0.43553 0.0
H3972 H 0.54909 0.10944 0.71582 0.0
H3973 H 0.66506 0.13151 0.68462 0.0
H3974 H 0.59193 0.14418 0.75192 0.0
H3975 H 0.63923 0.07243 0.67314 0.0
H3976 H 0.63289 0.14189 0.70097 0.0
H3977 H 0.5777 0.1003 0.69251 0.0
C3978 C 0.5644 0.11511 0.7188 0.0
C3979 C 0.56825 0.12733 0.73591 0.0
C3980 C 0.63422 0.12672 0.69465 0.0
C3981 C 0.60031 0.11773 0.70932 0.0
C3982 C 0.6525 0.12084 0.68528 0.0
C3983 C 0.65484 0.10102 0.67782 0.0
C3984 C 0.61816 0.11274 0.69646 0.0
C3985 C 0.63809 0.08773 0.67911 0.0
C3986 C 0.58058 0.10995 0.70558 0.0
C3987 C 0.58828 0.13447 0.7391 0.0
N3988 N 0.62038 0.09379 0.68843 0.0
N3989 N 0.60347 0.12968 0.72588 0.0
H3990 H 0.19214 0.33779 1.01926 0.0
H3991 H 0.19676 0.40041 0.91443 0.0
H3992 H 0.17093 0.31387 0.96154 0.0
H3993 H 0.20633 0.42637 0.97431 0.0
H3994 H 0.19163 0.36722 0.93045 0.0
H3995 H 0.20328 0.36847 1.00172 0.0
C3996 C 0.19012 0.33889 1.00281 0.0
C3997 C 0.18037 0.32345 0.99182 0.0
C3998 C 0.19488 0.38019 0.94005 0.0
C3999 C 0.19278 0.35862 0.97173 0.0
C4000 C 0.19757 0.39918 0.93097 0.0
C4001 C 0.20178 0.41624 0.94309 0.0
C4002 C 0.19651 0.37823 0.96139 0.0
C4003 C 0.20324 0.41363 0.96437 0.0
C4004 C 0.19639 0.35645 0.99283 0.0
C4005 C 0.17837 0.32548 0.97053 0.0
N4006 N 0.20058 0.39498 0.97284 0.0
N4007 N 0.18428 0.34296 0.96116 0.0
H4008 H 0.37094 0.46262 0.72268 0.0
H4009 H 0.48621 0.42403 0.71047 0.0
H4010 H 0.39777 0.45145 0.66331 0.0
H4011 H 0.46292 0.45349 0.7647 0.0
H4012 H 0.45462 0.43419 0.69218 0.0
H4013 H 0.40485 0.45835 0.73824 0.0
C4014 C 0.38397 0.4593 0.7129 0.0
C4015 C 0.38149 0.45738 0.69167 0.0
C4016 C 0.45666 0.43877 0.70796 0.0
C4017 C 0.42037 0.45234 0.70939 0.0
C4018 C 0.47473 0.43316 0.71831 0.0
C4019 C 0.47697 0.43779 0.73912 0.0
C4020 C 0.44088 0.4489 0.71864 0.0
C4021 C 0.46159 0.44939 0.74871 0.0
C4022 C 0.40334 0.4569 0.72179 0.0
C4023 C 0.3989 0.45272 0.6798 0.0
N4024 N 0.44406 0.45431 0.73846 0.0
N4025 N 0.41764 0.45028 0.68884 0.0
H4026 H 0.67022 0.14892 0.12354 0.0
H4027 H 0.70551 0.23087 0.04509 0.0
H4028 H 0.73185 0.14795 0.09885 0.0
H4029 H 0.6604 0.24489 0.09125 0.0
H4030 H 0.71627 0.20083 0.06479 0.0
H4031 H 0.66605 0.18399 0.11154 0.0
C4032 C 0.68291 0.15606 0.1157 0.0
C4033 C 0.70135 0.14533 0.11202 0.0
C4034 C 0.70441 0.21076 0.07093 0.0
C4035 C 0.69655 0.18537 0.09817 0.0
C4036 C 0.69841 0.22793 0.05978 0.0
C4037 C 0.6822 0.24023 0.06673 0.0
C4038 C 0.69359 0.20561 0.08873 0.0
C4039 C 0.67313 0.23576 0.08561 0.0
C4040 C 0.68053 0.1761 0.10895 0.0
C4041 C 0.71716 0.15536 0.10155 0.0
N4042 N 0.67862 0.21843 0.09578 0.0
N4043 N 0.71432 0.17475 0.09482 0.0
H4044 H 0.55651 0.91669 0.84415 0.0
H4045 H 0.65563 0.9872 0.84901 0.0
H4046 H 0.57235 0.95946 0.79665 0.0
H4047 H 0.65299 0.92787 0.87775 0.0
H4048 H 0.62086 0.98245 0.83577 0.0
H4049 H 0.58728 0.9268 0.86348 0.0
C4050 C 0.56606 0.92876 0.83822 0.0
C4051 C 0.56208 0.93732 0.81889 0.0
C4052 C 0.62792 0.97055 0.84507 0.0
C4053 C 0.597 0.94874 0.84059 0.0
C4054 C 0.64787 0.9731 0.85242 0.0
C4055 C 0.65749 0.95777 0.86428 0.0
C4056 C 0.61733 0.95269 0.84979 0.0
C4057 C 0.64624 0.94016 0.86878 0.0
C4058 C 0.58369 0.93431 0.84907 0.0
C4059 C 0.57503 0.95257 0.81155 0.0
N4060 N 0.62676 0.93808 0.86148 0.0
N4061 N 0.59202 0.95774 0.82237 0.0
H4062 H 0.87833 0.08503 0.32917 0.0
H4063 H 0.9871 0.13646 0.34271 0.0
H4064 H 0.90155 0.10187 0.38876 0.0
H4065 H 0.96845 0.10338 0.289 0.0
H4066 H 0.95725 0.12278 0.36106 0.0
H4067 H 0.91207 0.09133 0.31476 0.0
C4068 C 0.89056 0.0899 0.33928 0.0
C4069 C 0.88703 0.09295 0.36021 0.0
C4070 C 0.96001 0.11816 0.34541 0.0
C4071 C 0.92581 0.1005 0.34371 0.0
C4072 C 0.97711 0.12579 0.33506 0.0
C4073 C 0.98 0.12108 0.31437 0.0
C4074 C 0.9459 0.10595 0.33482 0.0
C4075 C 0.96655 0.10749 0.30493 0.0
C4076 C 0.90988 0.09352 0.33103 0.0
C4077 C 0.90345 0.09968 0.37246 0.0
N4078 N 0.94993 0.10062 0.31514 0.0
N4079 N 0.92212 0.10338 0.36399 0.0
H4080 H 0.47415 0.21705 0.12759 0.0
H4081 H 0.46024 0.18191 0.24333 0.0
H4082 H 0.41457 0.20637 0.15443 0.0
H4083 H 0.51773 0.20129 0.21725 0.0
H4084 H 0.4423 0.19408 0.21239 0.0
H4085 H 0.48981 0.21367 0.16138 0.0
C4086 C 0.46434 0.21408 0.1406 0.0
C4087 C 0.44304 0.21184 0.13811 0.0
C4088 C 0.4588 0.196 0.21363 0.0
C4089 C 0.46089 0.20778 0.17694 0.0
C4090 C 0.46899 0.18916 0.23132 0.0
C4091 C 0.4905 0.1901 0.23252 0.0
C4092 C 0.47031 0.20385 0.19726 0.0
C4093 C 0.50114 0.19984 0.21669 0.0
C4094 C 0.47328 0.21216 0.15993 0.0
C4095 C 0.43112 0.20777 0.15555 0.0
N4096 N 0.49097 0.20605 0.19958 0.0
N4097 N 0.44023 0.20574 0.17423 0.0
H4098 H 0.60641 0.72422 0.99277 0.0
H4099 H 0.62279 0.70832 0.8741 0.0
H4100 H 0.63097 0.77077 0.95306 0.0
H4101 H 0.56717 0.68708 0.90249 0.0
H4102 H 0.632 0.72537 0.90619 0.0
H4103 H 0.59662 0.70475 0.96212 0.0
C4104 C 0.60956 0.73039 0.97771 0.0
C4105 C 0.61943 0.74913 0.97544 0.0
C4106 C 0.61782 0.71688 0.90534 0.0
C4107 C 0.60903 0.72691 0.94089 0.0
C4108 C 0.61266 0.7072 0.88718 0.0
C4109 C 0.59416 0.69665 0.88583 0.0
C4110 C 0.60455 0.71558 0.92219 0.0
C4111 C 0.58145 0.6954 0.90308 0.0
C4112 C 0.60405 0.71932 0.96035 0.0
C4113 C 0.62326 0.75647 0.9556 0.0
N4114 N 0.5869 0.70478 0.92071 0.0
N4115 N 0.61828 0.74522 0.9391 0.0
H4116 H 0.14059 0.85762 0.6503 0.0
H4117 H 0.04657 0.84622 0.72736 0.0
H4118 H 0.08024 0.83566 0.63409 0.0
H4119 H 0.09668 0.88708 0.73887 0.0
H4120 H 0.06417 0.834 0.6968 0.0
H4121 H 0.12889 0.86218 0.68557 0.0
C4122 C 0.12487 0.85387 0.65406 0.0
C4123 C 0.11133 0.84636 0.63908 0.0
C4124 C 0.07156 0.84533 0.70621 0.0
C4125 C 0.09824 0.85083 0.67953 0.0
C4126 C 0.06165 0.85211 0.72373 0.0
C4127 C 0.07024 0.86767 0.73542 0.0
C4128 C 0.09005 0.85439 0.70025 0.0
C4129 C 0.08972 0.87493 0.73021 0.0
C4130 C 0.11833 0.85625 0.67425 0.0
C4131 C 0.09133 0.84124 0.64506 0.0
N4132 N 0.09888 0.86848 0.71266 0.0
N4133 N 0.08541 0.84358 0.66479 0.0
H4134 H 0.94812 0.28956 0.46784 0.0
H4135 H 0.94166 0.39202 0.40203 0.0
H4136 H 0.91897 0.34429 0.49049 0.0
H4137 H 0.95308 0.33236 0.3767 0.0
H4138 H 0.93773 0.37649 0.43585 0.0
H4139 H 0.95636 0.30735 0.43617 0.0
C4140 C 0.94383 0.30548 0.46628 0.0
C4141 C 0.93272 0.31547 0.48167 0.0
C4142 C 0.94107 0.36685 0.42285 0.0
C4143 C 0.94172 0.33577 0.44534 0.0
C4144 C 0.94308 0.37564 0.40349 0.0
C4145 C 0.94764 0.36346 0.38642 0.0
C4146 C 0.94386 0.34579 0.4252 0.0
C4147 C 0.94982 0.34239 0.3894 0.0
C4148 C 0.94838 0.31556 0.44814 0.0
C4149 C 0.92765 0.33611 0.47898 0.0
N4150 N 0.94797 0.33425 0.40842 0.0
N4151 N 0.93196 0.34557 0.46096 0.0
H4152 H 0.4568 0.87624 0.30285 0.0
H4153 H 0.46629 0.83356 0.41669 0.0
H4154 H 0.51235 0.85053 0.32923 0.0
H4155 H 0.40758 0.8484 0.38866 0.0
H4156 H 0.48277 0.83809 0.3837 0.0
H4157 H 0.43747 0.8638 0.33257 0.0
C4158 C 0.46477 0.86744 0.31458 0.0
C4159 C 0.48616 0.86457 0.31382 0.0
C4160 C 0.46625 0.84025 0.38468 0.0
C4161 C 0.46446 0.85072 0.34778 0.0
C4162 C 0.4568 0.83762 0.40357 0.0
C4163 C 0.4355 0.84064 0.40554 0.0
C4164 C 0.4544 0.84619 0.36755 0.0
C4165 C 0.42411 0.84628 0.38798 0.0
C4166 C 0.45381 0.86051 0.33161 0.0
C4167 C 0.49587 0.85326 0.32943 0.0
N4168 N 0.43372 0.849 0.36973 0.0
N4169 N 0.48501 0.84698 0.34589 0.0
H4170 H 0.92003 0.68601 0.15817 0.0
H4171 H 0.95551 0.76296 0.07414 0.0
H4172 H 0.98114 0.71132 0.15926 0.0
H4173 H 0.91197 0.71587 0.06061 0.0
H4174 H 0.96535 0.74488 0.10559 0.0
H4175 H 0.9158 0.6982 0.12296 0.0
C4176 C 0.93256 0.6941 0.15105 0.0
C4177 C 0.95092 0.69775 0.16178 0.0
C4178 C 0.95405 0.73821 0.09548 0.0
C4179 C 0.94611 0.71175 0.12163 0.0
C4180 C 0.94858 0.74842 0.07752 0.0
C4181 C 0.93314 0.74066 0.06488 0.0
C4182 C 0.94344 0.72056 0.10102 0.0
C4183 C 0.9242 0.72205 0.06995 0.0
C4184 C 0.93016 0.70094 0.13094 0.0
C4185 C 0.96652 0.70856 0.15182 0.0
N4186 N 0.92916 0.71278 0.08797 0.0
N4187 N 0.9637 0.7153 0.13234 0.0
H4188 H 0.09985 0.24177 0.9006 0.0
H4189 H 0.0926 0.16419 0.80721 0.0
H4190 H 0.12534 0.18072 0.90227 0.0
H4191 H 0.04817 0.21213 0.81795 0.0
H4192 H 0.11231 0.17555 0.83719 0.0
H4193 H 0.08738 0.23566 0.86589 0.0
C4194 C 0.10271 0.22703 0.89379 0.0
C4195 C 0.11343 0.21163 0.90456 0.0
C4196 C 0.09854 0.18391 0.8326 0.0
C4197 C 0.09984 0.2049 0.86455 0.0
C4198 C 0.08751 0.17762 0.81541 0.0
C4199 C 0.06892 0.1874 0.81025 0.0
C4200 C 0.0909 0.20015 0.84437 0.0
C4201 C 0.06255 0.20437 0.82152 0.0
C4202 C 0.09582 0.22368 0.87387 0.0
C4203 C 0.11726 0.19309 0.89457 0.0
N4204 N 0.07347 0.21016 0.8382 0.0
N4205 N 0.11041 0.19022 0.87513 0.0
H4206 H 0.56441 0.35209 0.66018 0.0
H4207 H 0.63799 0.3481 0.56277 0.0
H4208 H 0.62481 0.37897 0.65898 0.0
H4209 H 0.59373 0.30172 0.57662 0.0
H4210 H 0.6273 0.36653 0.59366 0.0
H4211 H 0.57 0.33944 0.6256 0.0
C4212 C 0.57894 0.35516 0.6528 0.0
C4213 C 0.59428 0.36641 0.6627 0.0
C4214 C 0.61959 0.35258 0.5896 0.0
C4215 C 0.60032 0.35265 0.62278 0.0
C4216 C 0.62546 0.34227 0.5719 0.0
C4217 C 0.61662 0.3235 0.56733 0.0
C4218 C 0.6046 0.34411 0.60241 0.0
C4219 C 0.60081 0.31622 0.57976 0.0
C4220 C 0.58196 0.34817 0.63295 0.0
C4221 C 0.61249 0.37049 0.65196 0.0
N4222 N 0.59535 0.3265 0.59687 0.0
N4223 N 0.61501 0.3636 0.63256 0.0
H4224 H 0.14922 0.41581 0.19929 0.0
H4225 H 0.21977 0.51412 0.20132 0.0
H4226 H 0.12785 0.47671 0.21308 0.0
H4227 H 0.23768 0.45949 0.1694 0.0
H4228 H 0.18897 0.49723 0.21346 0.0
H4229 H 0.18384 0.42901 0.19393 0.0
C4230 C 0.15172 0.43197 0.201 0.0
C4231 C 0.13553 0.44521 0.20654 0.0
C4232 C 0.19977 0.48876 0.2041 0.0
C4233 C 0.17519 0.46015 0.20115 0.0
C4234 C 0.21744 0.49831 0.19738 0.0
C4235 C 0.2311 0.48811 0.18436 0.0
C4236 C 0.19562 0.46896 0.19751 0.0
C4237 C 0.22747 0.46772 0.17957 0.0
C4238 C 0.17153 0.43941 0.19818 0.0
C4239 C 0.13984 0.4659 0.20906 0.0
N4240 N 0.20978 0.45883 0.18589 0.0
N4241 N 0.15925 0.4727 0.20636 0.0
H4242 H 0.33874 0.49433 0.91607 0.0
H4243 H 0.32427 0.38549 0.96501 0.0
H4244 H 0.28743 0.47806 0.95418 0.0
H4245 H 0.38437 0.40623 0.94675 0.0
H4246 H 0.31088 0.4199 0.96049 0.0
H4247 H 0.357 0.46329 0.92759 0.0
C4248 C 0.33174 0.48466 0.92752 0.0
C4249 C 0.31163 0.48855 0.93422 0.0
C4250 C 0.32705 0.41698 0.95759 0.0
C4251 C 0.33188 0.45311 0.94686 0.0
C4252 C 0.3347 0.39728 0.96015 0.0
C4253 C 0.35549 0.3929 0.95629 0.0
C4254 C 0.34016 0.43244 0.95083 0.0
C4255 C 0.36815 0.40881 0.94958 0.0
C4256 C 0.342 0.46687 0.93389 0.0
C4257 C 0.30292 0.47544 0.94865 0.0
N4258 N 0.36025 0.42789 0.94694 0.0
N4259 N 0.31297 0.45813 0.95426 0.0
H4260 H 0.40691 0.62562 0.66839 0.0
H4261 H 0.32757 0.54188 0.70016 0.0
H4262 H 0.41117 0.59509 0.72711 0.0
H4263 H 0.31009 0.59275 0.66155 0.0
H4264 H 0.35942 0.55935 0.70918 0.0
H4265 H 0.37273 0.61126 0.66353 0.0
C4266 C 0.40072 0.61592 0.68026 0.0
C4267 C 0.41202 0.6116 0.6982 0.0
C4268 C 0.34842 0.56685 0.69907 0.0
C4269 C 0.37305 0.595 0.69257 0.0
C4270 C 0.33026 0.55698 0.69403 0.0
C4271 C 0.31627 0.56604 0.68026 0.0
C4272 C 0.35277 0.58559 0.68976 0.0
C4273 C 0.32043 0.58546 0.67247 0.0
C4274 C 0.3812 0.6078 0.67748 0.0
C4275 C 0.4033 0.59857 0.71285 0.0
N4276 N 0.33857 0.59447 0.67703 0.0
N4277 N 0.38436 0.59066 0.70967 0.0
H4278 H 0.15405 0.64546 0.45129 0.0
H4279 H 0.2588 0.58081 0.45027 0.0
H4280 H 0.2136 0.66798 0.4694 0.0
H4281 H 0.20355 0.56079 0.42 0.0
H4282 H 0.23985 0.60978 0.46403 0.0
H4283 H 0.16984 0.61211 0.44484 0.0
C4284 C 0.17044 0.64345 0.45384 0.0
C4285 C 0.18255 0.65964 0.46077 0.0
C4286 C 0.23171 0.59894 0.45464 0.0
C4287 C 0.20049 0.62142 0.45396 0.0
C4288 C 0.24249 0.58233 0.44694 0.0
C4289 C 0.23266 0.56856 0.43398 0.0
C4290 C 0.21101 0.60199 0.44907 0.0
C4291 C 0.21156 0.5711 0.43007 0.0
C4292 C 0.17936 0.62436 0.45035 0.0
C4293 C 0.20359 0.65597 0.46428 0.0
N4294 N 0.20143 0.5878 0.43734 0.0
N4295 N 0.21187 0.63729 0.46079 0.0
H4296 H 0.11735 0.58203 0.34689 0.0
H4297 H 0.23579 0.59342 0.37561 0.0
H4298 H 0.14579 0.64065 0.354 0.0
H4299 H 0.20875 0.53792 0.3537 0.0
H4300 H 0.20367 0.61168 0.36705 0.0
H4301 H 0.15114 0.56581 0.34989 0.0
C4302 C 0.13071 0.5915 0.34906 0.0
C4303 C 0.12871 0.61273 0.3502 0.0
C4304 C 0.20495 0.59558 0.36378 0.0
C4305 C 0.16751 0.59425 0.35375 0.0
C4306 C 0.22332 0.58523 0.36845 0.0
C4307 C 0.22477 0.56416 0.36548 0.0
C4308 C 0.18807 0.58466 0.35623 0.0
C4309 C 0.20812 0.55415 0.35645 0.0
C4310 C 0.15002 0.58224 0.35075 0.0
C4311 C 0.14656 0.62421 0.35337 0.0
N4312 N 0.19037 0.56444 0.35238 0.0
N4313 N 0.16524 0.61481 0.35508 0.0
H4314 H 0.15824 0.40317 0.10273 0.0
H4315 H 0.26236 0.46657 0.10098 0.0
H4316 H 0.21841 0.37785 0.08965 0.0
H4317 H 0.20631 0.48996 0.12763 0.0
H4318 H 0.24427 0.43604 0.09065 0.0
H4319 H 0.17385 0.43653 0.10745 0.0
C4320 C 0.17474 0.40455 0.10101 0.0
C4321 C 0.18704 0.38759 0.09587 0.0
C4322 C 0.2358 0.44791 0.09853 0.0
C4323 C 0.20483 0.42584 0.10068 0.0
C4324 C 0.24608 0.4654 0.10429 0.0
C4325 C 0.23578 0.48067 0.11525 0.0
C4326 C 0.21508 0.44556 0.10393 0.0
C4327 C 0.21471 0.47852 0.11908 0.0
C4328 C 0.18357 0.42365 0.1035 0.0
C4329 C 0.20825 0.39046 0.09336 0.0
N4330 N 0.20505 0.46107 0.11366 0.0
N4331 N 0.21643 0.40918 0.09579 0.0
H4332 H 0.31046 0.4651 0.88548 0.0
H4333 H 0.41545 0.46549 0.82358 0.0
H4334 H 0.3283 0.51617 0.84805 0.0
H4335 H 0.40881 0.43512 0.88207 0.0
H4336 H 0.38101 0.48007 0.82744 0.0
H4337 H 0.34357 0.44849 0.87811 0.0
C4338 C 0.32106 0.47246 0.87513 0.0
C4339 C 0.31678 0.49193 0.86726 0.0
C4340 C 0.38719 0.47023 0.8394 0.0
C4341 C 0.35445 0.4733 0.85908 0.0
C4342 C 0.40697 0.46211 0.8374 0.0
C4343 C 0.41518 0.44906 0.85257 0.0
C4344 C 0.3754 0.465 0.8565 0.0
C4345 C 0.40307 0.44482 0.86982 0.0
C4346 C 0.34002 0.46315 0.87122 0.0
C4347 C 0.33115 0.50111 0.85435 0.0
N4348 N 0.3837 0.45266 0.87124 0.0
N4349 N 0.34946 0.49172 0.85068 0.0
H4350 H 0.38685 0.6499 0.60172 0.0
H4351 H 0.28666 0.5813 0.59332 0.0
H4352 H 0.3271 0.67095 0.5806 0.0
H4353 H 0.33917 0.56348 0.63018 0.0
H4354 H 0.30513 0.61118 0.58166 0.0
H4355 H 0.37258 0.616 0.60724 0.0
C4356 C 0.37073 0.64748 0.59835 0.0
C4357 C 0.35815 0.66341 0.59071 0.0
C4358 C 0.31281 0.60061 0.59203 0.0
C4359 C 0.34202 0.62452 0.59636 0.0
C4360 C 0.30236 0.58346 0.5985 0.0
C4361 C 0.31147 0.57005 0.61271 0.0
C4362 C 0.33243 0.60455 0.60006 0.0
C4363 C 0.33177 0.57346 0.61905 0.0
C4364 C 0.3627 0.62807 0.6013 0.0
C4365 C 0.33751 0.65918 0.5862 0.0
N4366 N 0.34153 0.59067 0.61294 0.0
N4367 N 0.33013 0.64018 0.58908 0.0
H4368 H 0.23921 0.15445 0.44764 0.0
H4369 H 0.1621 0.24944 0.45564 0.0
H4370 H 0.17683 0.15477 0.42426 0.0
H4371 H 0.21131 0.23738 0.49869 0.0
H4372 H 0.17333 0.21981 0.43566 0.0
H4373 H 0.23411 0.18938 0.45918 0.0
C4374 C 0.22438 0.16176 0.44507 0.0
C4375 C 0.20829 0.15148 0.43527 0.0
C4376 C 0.18202 0.22405 0.44914 0.0
C4377 C 0.20273 0.1917 0.44772 0.0
C4378 C 0.17582 0.24106 0.46032 0.0
C4379 C 0.18593 0.24567 0.47866 0.0
C4380 C 0.19849 0.21193 0.4564 0.0
C4381 C 0.20327 0.23419 0.48452 0.0
C4382 C 0.22162 0.18178 0.45139 0.0
C4383 C 0.18968 0.16206 0.4317 0.0
N4384 N 0.20893 0.21766 0.4735 0.0
N4385 N 0.18738 0.1816 0.43801 0.0
H4386 H 0.70172 0.33878 0.53922 0.0
H4387 H 0.67336 0.41385 0.62792 0.0
H4388 H 0.66747 0.31905 0.59203 0.0
H4389 H 0.7305 0.41969 0.59483 0.0
H4390 H 0.66881 0.38033 0.61276 0.0
H4391 H 0.71128 0.36964 0.55763 0.0
C4392 C 0.69664 0.34078 0.55488 0.0
C4393 C 0.68388 0.32644 0.56423 0.0
C4394 C 0.68238 0.38897 0.60895 0.0
C4395 C 0.69408 0.36179 0.58495 0.0
C4396 C 0.685 0.40811 0.61756 0.0
C4397 C 0.70237 0.41969 0.61269 0.0
C4398 C 0.69702 0.38149 0.59511 0.0
C4399 C 0.71667 0.41156 0.59876 0.0
C4400 C 0.70202 0.35836 0.56532 0.0
C4401 C 0.67754 0.32969 0.58444 0.0
N4402 N 0.71361 0.393 0.59036 0.0
N4403 N 0.68237 0.34728 0.59404 0.0
H4404 H 0.45262 0.91492 0.29149 0.0
H4405 H 0.40533 0.98386 0.37655 0.0
H4406 H 0.49398 0.94482 0.3334 0.0
H4407 H 0.37804 0.92721 0.35832 0.0
H4408 H 0.43725 0.97378 0.35896 0.0
H4409 H 0.42395 0.92392 0.31322 0.0
C4410 C 0.45571 0.92361 0.30519 0.0
C4411 C 0.47579 0.92923 0.3106 0.0
C4412 C 0.42433 0.96351 0.35912 0.0
C4413 C 0.44273 0.93954 0.33562 0.0
C4414 C 0.40616 0.96926 0.36896 0.0
C4415 C 0.38908 0.95637 0.36865 0.0
C4416 C 0.4251 0.945 0.34861 0.0
C4417 C 0.39089 0.93754 0.35888 0.0
C4418 C 0.43928 0.92853 0.3177 0.0
C4419 C 0.47872 0.94025 0.32871 0.0
N4420 N 0.4085 0.93255 0.34896 0.0
N4421 N 0.46223 0.94527 0.34058 0.0
H4422 H 0.83688 0.63331 0.07628 0.0
H4423 H 0.87674 0.74641 0.0892 0.0
H4424 H 0.84807 0.65991 0.13559 0.0
H4425 H 0.85127 0.72273 0.03315 0.0
H4426 H 0.86546 0.71565 0.10723 0.0
H4427 H 0.84228 0.66643 0.06044 0.0
C4428 C 0.84042 0.64613 0.08598 0.0
C4429 C 0.84207 0.64382 0.10727 0.0
C4430 C 0.862 0.71741 0.09107 0.0
C4431 C 0.8484 0.68179 0.08926 0.0
C4432 C 0.86823 0.73501 0.08087 0.0
C4433 C 0.86502 0.7369 0.05971 0.0
C4434 C 0.85261 0.70178 0.07989 0.0
C4435 C 0.85424 0.72165 0.04946 0.0
C4436 C 0.84349 0.66506 0.07694 0.0
C4437 C 0.84701 0.66092 0.11907 0.0
N4438 N 0.84863 0.70461 0.05961 0.0
N4439 N 0.85008 0.67921 0.10989 0.0
H4440 H 0.5931 0.61237 0.27631 0.0
H4441 H 0.65291 0.60725 0.3833 0.0
H4442 H 0.56407 0.62365 0.33462 0.0
H4443 H 0.68262 0.60279 0.32443 0.0
H4444 H 0.61967 0.6103 0.366 0.0
H4445 H 0.62518 0.60418 0.29414 0.0
C4446 C 0.59337 0.61279 0.2929 0.0
C4447 C 0.57597 0.61898 0.304 0.0
C4448 C 0.63346 0.60868 0.35686 0.0
C4449 C 0.61271 0.60994 0.32444 0.0
C4450 C 0.65247 0.6072 0.36671 0.0
C4451 C 0.67058 0.60495 0.35526 0.0
C4452 C 0.63253 0.60782 0.33542 0.0
C4453 C 0.66903 0.6044 0.33384 0.0
C4454 C 0.61174 0.60823 0.30305 0.0
C4455 C 0.57714 0.61903 0.32545 0.0
N4456 N 0.65031 0.60584 0.3246 0.0
N4457 N 0.59533 0.61485 0.33499 0.0
H4458 H 0.38131 0.81069 0.95836 0.0
H4459 H 0.33291 0.91935 0.97404 0.0
H4460 H 0.34125 0.826 1.00854 0.0
H4461 H 0.35044 0.89887 0.91373 0.0
H4462 H 0.33646 0.8846 0.98659 0.0
H4463 H 0.36956 0.84165 0.94031 0.0
C4464 C 0.36936 0.8201 0.9651 0.0
C4465 C 0.36218 0.81602 0.98487 0.0
C4466 C 0.33939 0.88767 0.97056 0.0
C4467 C 0.34936 0.85139 0.96494 0.0
C4468 C 0.33741 0.90754 0.96339 0.0
C4469 C 0.34139 0.91208 0.9428 0.0
C4470 C 0.3457 0.87221 0.95714 0.0
C4471 C 0.3476 0.89615 0.92982 0.0
C4472 C 0.36286 0.83785 0.95497 0.0
C4473 C 0.34712 0.8288 0.9933 0.0
N4474 N 0.34971 0.87689 0.93725 0.0
N4475 N 0.34146 0.84614 0.98344 0.0
H4476 H 0.38206 0.13572 0.18284 0.0
H4477 H 0.49776 0.10739 0.21337 0.0
H4478 H 0.40452 0.07425 0.17443 0.0
H4479 H 0.4566 0.14506 0.24903 0.0
H4480 H 0.46854 0.09965 0.1902 0.0
H4481 H 0.41545 0.14477 0.19731 0.0
C4482 C 0.39413 0.12422 0.18373 0.0
C4483 C 0.39047 0.10415 0.1778 0.0
C4484 C 0.4662 0.10969 0.2031 0.0
C4485 C 0.42853 0.11438 0.19428 0.0
C4486 C 0.48272 0.11405 0.21624 0.0
C4487 C 0.47949 0.12666 0.23322 0.0
C4488 C 0.44682 0.11868 0.20676 0.0
C4489 C 0.45979 0.13506 0.23629 0.0
C4490 C 0.41311 0.12937 0.19201 0.0
C4491 C 0.40667 0.0898 0.17931 0.0
N4492 N 0.4443 0.13103 0.22314 0.0
N4493 N 0.42505 0.09514 0.18762 0.0
H4494 H 0.18381 0.95532 0.72636 0.0
H4495 H 0.06741 0.92333 0.70944 0.0
H4496 H 0.15811 0.94603 0.66603 0.0
H4497 H 0.09059 0.94975 0.76525 0.0
H4498 H 0.10001 0.93139 0.69264 0.0
H4499 H 0.14954 0.95184 0.74085 0.0
C4500 C 0.17097 0.95253 0.71616 0.0
C4501 C 0.17386 0.95098 0.69496 0.0
C4502 C 0.09777 0.93574 0.70845 0.0
C4503 C 0.13455 0.94691 0.71144 0.0
C4504 C 0.07911 0.93135 0.71796 0.0
C4505 C 0.07644 0.93575 0.73877 0.0
C4506 C 0.11371 0.94446 0.71995 0.0
C4507 C 0.09216 0.94588 0.74922 0.0
C4508 C 0.15139 0.95059 0.72442 0.0
C4509 C 0.15666 0.94701 0.6825 0.0
N4510 N 0.11023 0.94965 0.73977 0.0
N4511 N 0.13771 0.94509 0.69094 0.0
loop_
_geom_bond_atom_site_label_1
_geom_bond_atom_site_label_2
_geom_bond_distance
_geom_bond_site_symmetry_2
_ccdc_geom_bond_type
Tb0 C9 2.764 . S
Tb0 O10 2.325 . S
Tb0 O13 2.303 . S
Tb0 O17 2.322 . S
Tb0 O18 2.349 . S
Tb0 O21 2.415 . S
Tb0 O22 2.399 . S
Tb1 O11 2.322 . S
Tb1 O12 2.349 . S
Tb1 O14 2.415 1_455 S
Tb1 O15 2.399 . S
Tb1 O16 2.325 . S
Tb1 O19 2.303 . S
Tb1 C30 2.764 1_455 S
C2 O18 1.261 . S
C2 O19 1.257 . S
C3 C6 1.358 . S
C3 C7 1.332 . S
C3 C9 1.504 . S
C4 C5 1.373 . S
C4 C8 1.308 . S
C5 C4 1.373 . S
C5 C6 1.429 . S
C5 H32 0.932 . S
C6 C3 1.358 . S
C6 C5 1.429 . S
C6 H33 0.930 . S
C7 C3 1.332 . S
C7 C8 1.394 . S
C7 H34 0.932 . S
C8 C4 1.308 . S
C8 C7 1.394 . S
C8 H35 0.929 . S
C9 Tb0 2.764 . S
C9 C3 1.504 . S
C9 O21 1.239 . S
C9 O22 1.263 . S
O10 Tb0 2.325 . S
O10 C20 1.236 . S
O11 Tb1 2.322 . S
O11 C20 1.257 . S
O12 Tb1 2.349 . S
O12 C23 1.261 . S
O13 Tb0 2.303 . S
O13 C23 1.257 . S
O14 Tb1 2.415 1_655 S
O14 C30 1.239 . S
O15 Tb1 2.399 . S
O15 C30 1.263 1_455 S
O16 Tb1 2.325 . S
O16 C31 1.236 . S
O17 Tb0 2.322 . S
O17 C31 1.257 . S
O18 Tb0 2.349 . S
O18 C2 1.261 . S
O19 Tb1 2.303 . S
O19 C2 1.257 . S
C20 O10 1.236 . S
C20 O11 1.257 . S
O21 Tb0 2.415 . S
O21 C9 1.239 . S
O22 Tb0 2.399 . S
O22 C9 1.263 . S
C23 O12 1.261 . S
C23 O13 1.257 . S
C24 C27 1.358 . S
C24 C28 1.332 . S
C24 C30 1.504 . S
C25 C26 1.373 . S
C25 C29 1.308 . S
C26 C25 1.373 . S
C26 C27 1.429 . S
C26 H36 0.932 . S
C27 C24 1.358 . S
C27 C26 1.429 . S
C27 H37 0.930 . S
C28 C24 1.332 . S
C28 C29 1.394 . S
C28 H38 0.932 . S
C29 C25 1.308 . S
C29 C28 1.394 . S
C29 H39 0.929 . S
C30 Tb1 2.764 1_655 S
C30 O14 1.239 . S
C30 O15 1.263 1_655 S
C30 C24 1.504 . S
C31 O16 1.236 . S
C31 O17 1.257 . S
H32 C5 0.932 . S
H33 C6 0.930 . S
H34 C7 0.932 . S
H35 C8 0.929 . S
H36 C26 0.932 . S
H37 C27 0.930 . S
H38 C28 0.932 . S
H39 C29 0.929 . S
Tb40 C49 2.764 . S
Tb40 O50 2.325 . S
Tb40 O53 2.303 . S
Tb40 O57 2.322 . S
Tb40 O58 2.349 . S
Tb40 O61 2.415 . S
Tb40 O62 2.399 . S
Tb41 O51 2.322 . S
Tb41 O52 2.349 . S
Tb41 O54 2.415 . S
Tb41 O55 2.399 . S
Tb41 O56 2.325 . S
Tb41 O59 2.303 . S
Tb41 C70 2.764 . S
C42 O58 1.261 . S
C42 O59 1.257 . S
C43 C46 1.358 . S
C43 C47 1.332 . S
C43 C49 1.504 . S
C44 C45 1.373 . S
C44 C48 1.308 . S
C45 C44 1.373 . S
C45 C46 1.429 . S
C45 H72 0.932 . S
C46 C43 1.358 . S
C46 C45 1.429 . S
C46 H73 0.930 . S
C47 C43 1.332 . S
C47 C48 1.394 . S
C47 H74 0.932 . S
C48 C44 1.308 . S
C48 C47 1.394 . S
C48 H75 0.929 . S
C49 Tb40 2.764 . S
C49 C43 1.504 . S
C49 O61 1.239 . S
C49 O62 1.263 . S
O50 Tb40 2.325 . S
O50 C60 1.236 . S
O51 Tb41 2.322 . S
O51 C60 1.257 . S
O52 Tb41 2.349 . S
O52 C63 1.261 . S
O53 Tb40 2.303 . S
O53 C63 1.257 . S
O54 Tb41 2.415 . S
O54 C70 1.239 . S
O55 Tb41 2.399 . S
O55 C70 1.263 . S
O56 Tb41 2.325 . S
O56 C71 1.236 . S
O57 Tb40 2.322 . S
O57 C71 1.257 . S
O58 Tb40 2.349 . S
O58 C42 1.261 . S
O59 Tb41 2.303 . S
O59 C42 1.257 . S
C60 O50 1.236 . S
C60 O51 1.257 . S
O61 Tb40 2.415 . S
O61 C49 1.239 . S
O62 Tb40 2.399 . S
O62 C49 1.263 . S
C63 O52 1.261 . S
C63 O53 1.257 . S
C64 C67 1.358 . S
C64 C68 1.332 . S
C64 C70 1.504 . S
C65 C66 1.373 . S
C65 C69 1.308 . S
C66 C65 1.373 . S
C66 C67 1.429 . S
C66 H76 0.932 . S
C67 C64 1.358 . S
C67 C66 1.429 . S
C67 H77 0.930 . S
C68 C64 1.332 . S
C68 C69 1.394 . S
C68 H78 0.932 . S
C69 C65 1.308 . S
C69 C68 1.394 . S
C69 H79 0.929 . S
C70 Tb41 2.764 . S
C70 O54 1.239 . S
C70 O55 1.263 . S
C70 C64 1.504 . S
C71 O56 1.236 . S
C71 O57 1.257 . S
H72 C45 0.932 . S
H73 C46 0.930 . S
H74 C47 0.932 . S
H75 C48 0.929 . S
H76 C66 0.932 . S
H77 C67 0.930 . S
H78 C68 0.932 . S
H79 C69 0.929 . S
Tb80 C89 2.764 . S
Tb80 O90 2.325 . S
Tb80 O93 2.303 . S
Tb80 O97 2.322 . S
Tb80 O98 2.349 . S
Tb80 O101 2.415 . S
Tb80 O102 2.399 . S
Tb81 O91 2.322 . S
Tb81 O92 2.349 . S
Tb81 O94 2.415 . S
Tb81 O95 2.399 . S
Tb81 O96 2.325 . S
Tb81 O99 2.303 . S
Tb81 C110 2.764 . S
C82 O98 1.261 . S
C82 O99 1.257 . S
C83 C86 1.358 . S
C83 C87 1.332 . S
C83 C89 1.504 . S
C84 C85 1.373 . S
C84 C88 1.308 . S
C85 C84 1.373 . S
C85 C86 1.429 . S
C85 H112 0.932 . S
C86 C83 1.358 . S
C86 C85 1.429 . S
C86 H113 0.930 . S
C87 C83 1.332 . S
C87 C88 1.394 . S
C87 H114 0.932 . S
C88 C84 1.308 . S
C88 C87 1.394 . S
C88 H115 0.929 . S
C89 Tb80 2.764 . S
C89 C83 1.504 . S
C89 O101 1.239 . S
C89 O102 1.263 . S
O90 Tb80 2.325 . S
O90 C100 1.236 . S
O91 Tb81 2.322 . S
O91 C100 1.257 . S
O92 Tb81 2.349 . S
O92 C103 1.261 . S
O93 Tb80 2.303 . S
O93 C103 1.257 . S
O94 Tb81 2.415 . S
O94 C110 1.239 . S
O95 Tb81 2.399 . S
O95 C110 1.263 . S
O96 Tb81 2.325 . S
O96 C111 1.236 . S
O97 Tb80 2.322 . S
O97 C111 1.257 . S
O98 Tb80 2.349 . S
O98 C82 1.261 . S
O99 Tb81 2.303 . S
O99 C82 1.257 . S
C100 O90 1.236 . S
C100 O91 1.257 . S
O101 Tb80 2.415 . S
O101 C89 1.239 . S
O102 Tb80 2.399 . S
O102 C89 1.263 . S
C103 O92 1.261 . S
C103 O93 1.257 . S
C104 C107 1.358 . S
C104 C108 1.332 . S
C104 C110 1.504 . S
C105 C106 1.373 . S
C105 C109 1.308 . S
C106 C105 1.373 . S
C106 C107 1.429 . S
C106 H116 0.932 . S
C107 C104 1.358 . S
C107 C106 1.429 . S
C107 H117 0.930 . S
C108 C104 1.332 . S
C108 C109 1.394 . S
C108 H118 0.932 . S
C109 C105 1.308 . S
C109 C108 1.394 . S
C109 H119 0.929 . S
C110 Tb81 2.764 . S
C110 O94 1.239 . S
C110 O95 1.263 . S
C110 C104 1.504 . S
C111 O96 1.236 . S
C111 O97 1.257 . S
H112 C85 0.932 . S
H113 C86 0.930 . S
H114 C87 0.932 . S
H115 C88 0.929 . S
H116 C106 0.932 . S
H117 C107 0.930 . S
H118 C108 0.932 . S
H119 C109 0.929 . S
Tb120 C129 2.764 1_554 S
Tb120 O130 2.325 1_554 S
Tb120 O133 2.303 . S
Tb120 O137 2.322 . S
Tb120 O138 2.349 1_554 S
Tb120 O141 2.415 1_554 S
Tb120 O142 2.399 1_554 S
Tb121 O131 2.322 . S
Tb121 O132 2.349 . S
Tb121 O134 2.415 . S
Tb121 O135 2.399 . S
Tb121 O136 2.325 . S
Tb121 O139 2.303 . S
Tb121 C150 2.764 . S
C122 O138 1.261 1_554 S
C122 O139 1.257 . S
C123 C126 1.358 . S
C123 C127 1.332 . S
C123 C129 1.504 . S
C124 C125 1.373 . S
C124 C128 1.308 . S
C125 C124 1.373 . S
C125 C126 1.429 . S
C125 H152 0.932 . S
C126 C123 1.358 . S
C126 C125 1.429 . S
C126 H153 0.930 . S
C127 C123 1.332 . S
C127 C128 1.394 . S
C127 H154 0.932 . S
C128 C124 1.308 . S
C128 C127 1.394 . S
C128 H155 0.929 . S
C129 Tb120 2.764 1_556 S
C129 C123 1.504 . S
C129 O141 1.239 . S
C129 O142 1.263 . S
O130 Tb120 2.325 1_556 S
O130 C140 1.261 . S
O131 Tb121 2.322 . S
O131 C140 1.204 1_554 S
O132 Tb121 2.349 . S
O132 C143 1.261 . S
O133 Tb120 2.303 . S
O133 C143 1.257 . S
O134 Tb121 2.415 . S
O134 C150 1.239 . S
O135 Tb121 2.399 . S
O135 C150 1.263 . S
O136 Tb121 2.325 . S
O136 C151 1.236 . S
O137 Tb120 2.322 . S
O137 C151 1.257 . S
O138 Tb120 2.349 1_556 S
O138 C122 1.261 1_556 S
O139 Tb121 2.303 . S
O139 C122 1.257 . S
C140 O130 1.261 . S
C140 O131 1.204 1_556 S
O141 Tb120 2.415 1_556 S
O141 C129 1.239 . S
O142 Tb120 2.399 1_556 S
O142 C129 1.263 . S
C143 O132 1.261 . S
C143 O133 1.257 . S
C144 C147 1.358 . S
C144 C148 1.332 . S
C144 C150 1.504 . S
C145 C146 1.373 . S
C145 C149 1.308 . S
C146 C145 1.373 . S
C146 C147 1.429 . S
C146 H156 0.932 . S
C147 C144 1.358 . S
C147 C146 1.429 . S
C147 H157 0.930 . S
C148 C144 1.332 . S
C148 C149 1.394 . S
C148 H158 0.932 . S
C149 C145 1.308 . S
C149 C148 1.394 . S
C149 H159 0.929 . S
C150 Tb121 2.764 . S
C150 O134 1.239 . S
C150 O135 1.263 . S
C150 C144 1.504 . S
C151 O136 1.236 . S
C151 O137 1.257 . S
H152 C125 0.932 . S
H153 C126 0.930 . S
H154 C127 0.932 . S
H155 C128 0.929 . S
H156 C146 0.932 . S
H157 C147 0.930 . S
H158 C148 0.932 . S
H159 C149 0.929 . S
Tb160 C169 2.764 . S
Tb160 O170 2.325 . S
Tb160 O173 2.303 . S
Tb160 O177 2.322 . S
Tb160 O178 2.349 . S
Tb160 O181 2.415 . S
Tb160 O182 2.399 . S
Tb161 O171 2.322 . S
Tb161 O172 2.349 . S
Tb161 O174 2.415 1_455 S
Tb161 O175 2.399 1_455 S
Tb161 O176 2.325 . S
Tb161 O179 2.303 . S
Tb161 C190 2.764 1_455 S
C162 O178 1.261 . S
C162 O179 1.257 . S
C163 C166 1.358 . S
C163 C167 1.332 . S
C163 C169 1.504 . S
C164 C165 1.373 . S
C164 C168 1.308 . S
C165 C164 1.373 . S
C165 C166 1.429 . S
C165 H192 0.932 . S
C166 C163 1.358 . S
C166 C165 1.429 . S
C166 H193 0.930 . S
C167 C163 1.332 . S
C167 C168 1.394 . S
C167 H194 0.932 . S
C168 C164 1.308 . S
C168 C167 1.394 . S
C168 H195 0.929 . S
C169 Tb160 2.764 . S
C169 C163 1.504 . S
C169 O181 1.239 . S
C169 O182 1.263 . S
O170 Tb160 2.325 . S
O170 C180 1.236 . S
O171 Tb161 2.322 . S
O171 C180 1.257 . S
O172 Tb161 2.349 . S
O172 C183 1.261 . S
O173 Tb160 2.303 . S
O173 C183 1.257 . S
O174 Tb161 2.415 1_655 S
O174 C190 1.239 . S
O175 Tb161 2.399 1_655 S
O175 C190 1.263 . S
O176 Tb161 2.325 . S
O176 C191 1.236 . S
O177 Tb160 2.322 . S
O177 C191 1.257 . S
O178 Tb160 2.349 . S
O178 C162 1.261 . S
O179 Tb161 2.303 . S
O179 C162 1.257 . S
C180 O170 1.236 . S
C180 O171 1.257 . S
O181 Tb160 2.415 . S
O181 C169 1.239 . S
O182 Tb160 2.399 . S
O182 C169 1.263 . S
C183 O172 1.261 . S
C183 O173 1.257 . S
C184 C187 1.358 . S
C184 C188 1.332 . S
C184 C190 1.504 . S
C185 C186 1.373 . S
C185 C189 1.308 . S
C186 C185 1.373 . S
C186 C187 1.429 . S
C186 H196 0.932 . S
C187 C184 1.358 . S
C187 C186 1.429 . S
C187 H197 0.930 . S
C188 C184 1.332 . S
C188 C189 1.394 . S
C188 H198 0.932 . S
C189 C185 1.308 . S
C189 C188 1.394 . S
C189 H199 0.929 . S
C190 Tb161 2.764 1_655 S
C190 O174 1.239 . S
C190 O175 1.263 . S
C190 C184 1.504 . S
C191 O176 1.236 . S
C191 O177 1.257 . S
H192 C165 0.932 . S
H193 C166 0.930 . S
H194 C167 0.932 . S
H195 C168 0.929 . S
H196 C186 0.932 . S
H197 C187 0.930 . S
H198 C188 0.932 . S
H199 C189 0.929 . S
Tb200 C209 2.764 . S
Tb200 O210 2.325 . S
Tb200 O213 2.303 . S
Tb200 O217 2.322 . S
Tb200 O218 2.349 . S
Tb200 O221 2.415 . S
Tb200 O222 2.399 . S
Tb201 O211 2.322 . S
Tb201 O212 2.349 . S
Tb201 O214 2.415 . S
Tb201 O215 2.399 . S
Tb201 O216 2.325 . S
Tb201 O219 2.303 . S
Tb201 C230 2.764 . S
C202 O218 1.261 . S
C202 O219 1.257 . S
C203 C206 1.358 . S
C203 C207 1.332 . S
C203 C209 1.504 . S
C204 C205 1.373 . S
C204 C208 1.308 . S
C205 C204 1.373 . S
C205 C206 1.429 . S
C205 H232 0.932 . S
C206 C203 1.358 . S
C206 C205 1.429 . S
C206 H233 0.930 . S
C207 C203 1.332 . S
C207 C208 1.394 . S
C207 H234 0.932 . S
C208 C204 1.308 . S
C208 C207 1.394 . S
C208 H235 0.929 . S
C209 Tb200 2.764 . S
C209 C203 1.504 . S
C209 O221 1.239 . S
C209 O222 1.263 . S
O210 Tb200 2.325 . S
O210 C220 1.236 . S
O211 Tb201 2.322 . S
O211 C220 1.257 . S
O212 Tb201 2.349 . S
O212 C223 1.261 . S
O213 Tb200 2.303 . S
O213 C223 1.257 . S
O214 Tb201 2.415 . S
O214 C230 1.239 . S
O215 Tb201 2.399 . S
O215 C230 1.263 . S
O216 Tb201 2.325 . S
O216 C231 1.236 . S
O217 Tb200 2.322 . S
O217 C231 1.257 . S
O218 Tb200 2.349 . S
O218 C202 1.261 . S
O219 Tb201 2.303 . S
O219 C202 1.257 . S
C220 O210 1.236 . S
C220 O211 1.257 . S
O221 Tb200 2.415 . S
O221 C209 1.239 . S
O222 Tb200 2.399 . S
O222 C209 1.263 . S
C223 O212 1.261 . S
C223 O213 1.257 . S
C224 C227 1.358 . S
C224 C228 1.332 . S
C224 C230 1.504 . S
C225 C226 1.373 . S
C225 C229 1.308 . S
C226 C225 1.373 . S
C226 C227 1.429 . S
C226 H236 0.932 . S
C227 C224 1.358 . S
C227 C226 1.429 . S
C227 H237 0.930 . S
C228 C224 1.332 . S
C228 C229 1.394 . S
C228 H238 0.932 . S
C229 C225 1.308 . S
C229 C228 1.394 . S
C229 H239 0.929 . S
C230 Tb201 2.764 . S
C230 O214 1.239 . S
C230 O215 1.263 . S
C230 C224 1.504 . S
C231 O216 1.236 . S
C231 O217 1.257 . S
H232 C205 0.932 . S
H233 C206 0.930 . S
H234 C207 0.932 . S
H235 C208 0.929 . S
H236 C226 0.932 . S
H237 C227 0.930 . S
H238 C228 0.932 . S
H239 C229 0.929 . S
Tb240 C249 2.764 . S
Tb240 O250 2.325 . S
Tb240 O253 2.303 . S
Tb240 O257 2.322 . S
Tb240 O258 2.349 . S
Tb240 O261 2.415 . S
Tb240 O262 2.399 . S
Tb241 O251 2.322 . S
Tb241 O252 2.349 . S
Tb241 O254 2.415 . S
Tb241 O255 2.399 . S
Tb241 O256 2.325 . S
Tb241 O259 2.303 . S
Tb241 C270 2.764 . S
C242 O258 1.261 . S
C242 O259 1.257 . S
C243 C246 1.358 . S
C243 C247 1.332 . S
C243 C249 1.504 . S
C244 C245 1.373 . S
C244 C248 1.308 . S
C245 C244 1.373 . S
C245 C246 1.429 . S
C245 H272 0.932 . S
C246 C243 1.358 . S
C246 C245 1.429 . S
C246 H273 0.930 . S
C247 C243 1.332 . S
C247 C248 1.394 . S
C247 H274 0.932 . S
C248 C244 1.308 . S
C248 C247 1.394 . S
C248 H275 0.929 . S
C249 Tb240 2.764 . S
C249 C243 1.504 . S
C249 O261 1.239 . S
C249 O262 1.263 . S
O250 Tb240 2.325 . S
O250 C260 1.236 . S
O251 Tb241 2.322 . S
O251 C260 1.257 . S
O252 Tb241 2.349 . S
O252 C263 1.261 . S
O253 Tb240 2.303 . S
O253 C263 1.257 . S
O254 Tb241 2.415 . S
O254 C270 1.239 . S
O255 Tb241 2.399 . S
O255 C270 1.263 . S
O256 Tb241 2.325 . S
O256 C271 1.236 . S
O257 Tb240 2.322 . S
O257 C271 1.257 . S
O258 Tb240 2.349 . S
O258 C242 1.261 . S
O259 Tb241 2.303 . S
O259 C242 1.257 . S
C260 O250 1.236 . S
C260 O251 1.257 . S
O261 Tb240 2.415 . S
O261 C249 1.239 . S
O262 Tb240 2.399 . S
O262 C249 1.263 . S
C263 O252 1.261 . S
C263 O253 1.257 . S
C264 C267 1.358 . S
C264 C268 1.332 . S
C264 C270 1.504 . S
C265 C266 1.373 . S
C265 C269 1.308 . S
C266 C265 1.373 . S
C266 C267 1.429 . S
C266 H276 0.932 . S
C267 C264 1.358 . S
C267 C266 1.429 . S
C267 H277 0.930 . S
C268 C264 1.332 . S
C268 C269 1.394 . S
C268 H278 0.932 . S
C269 C265 1.308 . S
C269 C268 1.394 . S
C269 H279 0.929 . S
C270 Tb241 2.764 . S
C270 O254 1.239 . S
C270 O255 1.263 . S
C270 C264 1.504 . S
C271 O256 1.236 . S
C271 O257 1.257 . S
H272 C245 0.932 . S
H273 C246 0.930 . S
H274 C247 0.932 . S
H275 C248 0.929 . S
H276 C266 0.932 . S
H277 C267 0.930 . S
H278 C268 0.932 . S
H279 C269 0.929 . S
Tb280 C289 2.764 . S
Tb280 O290 2.325 . S
Tb280 O293 2.303 . S
Tb280 O297 2.322 . S
Tb280 O298 2.349 . S
Tb280 O301 2.415 . S
Tb280 O302 2.399 . S
Tb281 O291 2.320 1_554 S
Tb281 O292 2.319 1_554 S
Tb281 O294 2.442 . S
Tb281 O295 2.413 . S
Tb281 O296 2.296 1_554 S
Tb281 O299 2.298 1_554 S
Tb281 C310 2.788 . S
C282 O298 1.261 . S
C282 O299 1.257 . S
C283 C286 1.358 . S
C283 C287 1.332 . S
C283 C289 1.504 . S
C284 C285 1.373 . S
C284 C288 1.308 . S
C285 C284 1.373 . S
C285 C286 1.429 . S
C285 H312 0.932 . S
C286 C283 1.358 . S
C286 C285 1.429 . S
C286 H313 0.930 . S
C287 C283 1.332 . S
C287 C288 1.394 . S
C287 H314 0.932 . S
C288 C284 1.308 . S
C288 C287 1.394 . S
C288 H315 0.929 . S
C289 Tb280 2.764 . S
C289 C283 1.504 . S
C289 O301 1.239 . S
C289 O302 1.263 . S
O290 Tb280 2.325 . S
O290 C300 1.236 . S
O291 Tb281 2.320 1_556 S
O291 C300 1.257 . S
O292 Tb281 2.319 1_556 S
O292 C303 1.261 . S
O293 Tb280 2.303 . S
O293 C303 1.257 . S
O294 Tb281 2.442 . S
O294 C310 1.239 . S
O295 Tb281 2.413 . S
O295 C310 1.263 . S
O296 Tb281 2.296 1_556 S
O296 C311 1.236 . S
O297 Tb280 2.322 . S
O297 C311 1.257 . S
O298 Tb280 2.349 . S
O298 C282 1.261 . S
O299 Tb281 2.298 1_556 S
O299 C282 1.257 . S
C300 O290 1.236 . S
C300 O291 1.257 . S
O301 Tb280 2.415 . S
O301 C289 1.239 . S
O302 Tb280 2.399 . S
O302 C289 1.263 . S
C303 O292 1.261 . S
C303 O293 1.257 . S
C304 C307 1.358 . S
C304 C308 1.332 . S
C304 C310 1.504 . S
C305 C306 1.373 . S
C305 C309 1.308 . S
C306 C305 1.373 . S
C306 C307 1.429 . S
C306 H316 0.932 . S
C307 C304 1.358 . S
C307 C306 1.429 . S
C307 H317 0.930 . S
C308 C304 1.332 . S
C308 C309 1.394 . S
C308 H318 0.932 . S
C309 C305 1.308 . S
C309 C308 1.394 . S
C309 H319 0.929 . S
C310 Tb281 2.788 . S
C310 O294 1.239 . S
C310 O295 1.263 . S
C310 C304 1.504 . S
C311 O296 1.236 . S
C311 O297 1.257 . S
H312 C285 0.932 . S
H313 C286 0.930 . S
H314 C287 0.932 . S
H315 C288 0.929 . S
H316 C306 0.932 . S
H317 C307 0.930 . S
H318 C308 0.932 . S
H319 C309 0.929 . S
Tb320 C329 2.764 . S
Tb320 O330 2.325 . S
Tb320 O333 2.303 1_565 S
Tb320 O337 2.322 1_565 S
Tb320 O338 2.349 . S
Tb320 O341 2.415 . S
Tb320 O342 2.399 . S
Tb321 O331 2.322 . S
Tb321 O332 2.349 . S
Tb321 O334 2.415 . S
Tb321 O335 2.399 . S
Tb321 O336 2.325 . S
Tb321 O339 2.303 . S
Tb321 C350 2.764 . S
C322 O338 1.261 . S
C322 O339 1.257 1_565 S
C323 C326 1.358 . S
C323 C327 1.332 . S
C323 C329 1.504 . S
C324 C325 1.373 . S
C324 C328 1.308 . S
C325 C324 1.373 . S
C325 C326 1.429 . S
C325 H352 0.932 . S
C326 C323 1.358 . S
C326 C325 1.429 . S
C326 H353 0.930 . S
C327 C323 1.332 . S
C327 C328 1.394 . S
C327 H354 0.932 . S
C328 C324 1.308 . S
C328 C327 1.394 . S
C328 H355 0.929 . S
C329 Tb320 2.764 . S
C329 C323 1.504 . S
C329 O341 1.239 . S
C329 O342 1.263 . S
O330 Tb320 2.325 . S
O330 C340 1.236 . S
O331 Tb321 2.322 . S
O331 C340 1.257 1_545 S
O332 Tb321 2.349 . S
O332 C343 1.261 . S
O333 Tb320 2.303 1_545 S
O333 C343 1.257 . S
O334 Tb321 2.415 . S
O334 C350 1.239 . S
O335 Tb321 2.399 . S
O335 C350 1.263 . S
O336 Tb321 2.325 . S
O336 C351 1.236 . S
O337 Tb320 2.322 1_545 S
O337 C351 1.257 . S
O338 Tb320 2.349 . S
O338 C322 1.261 . S
O339 Tb321 2.303 . S
O339 C322 1.257 1_545 S
C340 O330 1.236 . S
C340 O331 1.257 1_565 S
O341 Tb320 2.415 . S
O341 C329 1.239 . S
O342 Tb320 2.399 . S
O342 C329 1.263 . S
C343 O332 1.261 . S
C343 O333 1.257 . S
C344 C347 1.358 . S
C344 C348 1.332 . S
C344 C350 1.504 . S
C345 C346 1.373 . S
C345 C349 1.308 . S
C346 C345 1.373 . S
C346 C347 1.429 . S
C346 H356 0.932 . S
C347 C344 1.358 . S
C347 C346 1.429 . S
C347 H357 0.930 . S
C348 C344 1.332 . S
C348 C349 1.394 . S
C348 H358 0.932 . S
C349 C345 1.308 . S
C349 C348 1.394 . S
C349 H359 0.929 . S
C350 Tb321 2.764 . S
C350 O334 1.239 . S
C350 O335 1.263 . S
C350 C344 1.504 . S
C351 O336 1.236 . S
C351 O337 1.257 . S
H352 C325 0.932 . S
H353 C326 0.930 . S
H354 C327 0.932 . S
H355 C328 0.929 . S
H356 C346 0.932 . S
H357 C347 0.930 . S
H358 C348 0.932 . S
H359 C349 0.929 . S
Tb360 C369 2.764 . S
Tb360 O370 2.325 . S
Tb360 O373 2.303 . S
Tb360 O377 2.322 . S
Tb360 O378 2.349 . S
Tb360 O381 2.415 . S
Tb360 O382 2.399 . S
Tb361 O371 2.322 . S
Tb361 O372 2.349 1_565 S
Tb361 O374 2.415 . S
Tb361 O375 2.399 . S
Tb361 O376 2.325 1_565 S
Tb361 O379 2.303 . S
Tb361 C390 2.764 . S
C362 O378 1.261 1_565 S
C362 O379 1.257 . S
C363 C366 1.358 . S
C363 C367 1.332 . S
C363 C369 1.504 . S
C364 C365 1.373 . S
C364 C368 1.308 . S
C365 C364 1.373 . S
C365 C366 1.429 . S
C365 H392 0.932 . S
C366 C363 1.358 . S
C366 C365 1.429 . S
C366 H393 0.930 . S
C367 C363 1.332 . S
C367 C368 1.394 . S
C367 H394 0.932 . S
C368 C364 1.308 . S
C368 C367 1.394 . S
C368 H395 0.929 . S
C369 Tb360 2.764 . S
C369 C363 1.504 . S
C369 O381 1.239 . S
C369 O382 1.263 . S
O370 Tb360 2.325 . S
O370 C380 1.236 . S
O371 Tb361 2.322 . S
O371 C380 1.257 1_565 S
O372 Tb361 2.349 1_545 S
O372 C383 1.261 . S
O373 Tb360 2.303 . S
O373 C383 1.257 . S
O374 Tb361 2.415 . S
O374 C390 1.239 . S
O375 Tb361 2.399 . S
O375 C390 1.263 . S
O376 Tb361 2.325 1_545 S
O376 C391 1.236 . S
O377 Tb360 2.322 . S
O377 C391 1.257 . S
O378 Tb360 2.349 . S
O378 C362 1.261 1_545 S
O379 Tb361 2.303 . S
O379 C362 1.257 . S
C380 O370 1.236 . S
C380 O371 1.257 1_545 S
O381 Tb360 2.415 . S
O381 C369 1.239 . S
O382 Tb360 2.399 . S
O382 C369 1.263 . S
C383 O372 1.261 . S
C383 O373 1.257 . S
C384 C387 1.358 . S
C384 C388 1.332 . S
C384 C390 1.504 . S
C385 C386 1.373 . S
C385 C389 1.308 . S
C386 C385 1.373 . S
C386 C387 1.429 . S
C386 H396 0.932 . S
C387 C384 1.358 . S
C387 C386 1.429 . S
C387 H397 0.930 . S
C388 C384 1.332 . S
C388 C389 1.394 . S
C388 H398 0.932 . S
C389 C385 1.308 . S
C389 C388 1.394 . S
C389 H399 0.929 . S
C390 Tb361 2.764 . S
C390 O374 1.239 . S
C390 O375 1.263 . S
C390 C384 1.504 . S
C391 O376 1.236 . S
C391 O377 1.257 . S
H392 C365 0.932 . S
H393 C366 0.930 . S
H394 C367 0.932 . S
H395 C368 0.929 . S
H396 C386 0.932 . S
H397 C387 0.930 . S
H398 C388 0.932 . S
H399 C389 0.929 . S
Tb400 C409 2.764 . S
Tb400 O410 2.325 . S
Tb400 O413 2.303 . S
Tb400 O417 2.322 . S
Tb400 O418 2.349 . S
Tb400 O421 2.415 . S
Tb400 O422 2.399 . S
Tb401 O411 2.322 . S
Tb401 O412 2.349 . S
Tb401 O414 2.415 1_565 S
Tb401 O415 2.399 1_565 S
Tb401 O416 2.325 . S
Tb401 O419 2.303 . S
Tb401 C430 2.764 1_565 S
C402 O418 1.261 . S
C402 O419 1.257 . S
C403 C406 1.358 . S
C403 C407 1.332 . S
C403 C409 1.504 . S
C404 C405 1.373 . S
C404 C408 1.308 . S
C405 C404 1.373 . S
C405 C406 1.429 . S
C405 H432 0.932 . S
C406 C403 1.358 . S
C406 C405 1.429 . S
C406 H433 0.930 . S
C407 C403 1.332 . S
C407 C408 1.394 . S
C407 H434 0.932 . S
C408 C404 1.308 . S
C408 C407 1.394 . S
C408 H435 0.929 . S
C409 Tb400 2.764 . S
C409 C403 1.504 . S
C409 O421 1.239 . S
C409 O422 1.263 . S
O410 Tb400 2.325 . S
O410 C420 1.236 . S
O411 Tb401 2.322 . S
O411 C420 1.257 . S
O412 Tb401 2.349 . S
O412 C423 1.261 . S
O413 Tb400 2.303 . S
O413 C423 1.257 . S
O414 Tb401 2.415 1_545 S
O414 C430 1.239 . S
O415 Tb401 2.399 1_545 S
O415 C430 1.263 . S
O416 Tb401 2.325 . S
O416 C431 1.236 . S
O417 Tb400 2.322 . S
O417 C431 1.257 . S
O418 Tb400 2.349 . S
O418 C402 1.261 . S
O419 Tb401 2.303 . S
O419 C402 1.257 . S
C420 O410 1.236 . S
C420 O411 1.257 . S
O421 Tb400 2.415 . S
O421 C409 1.239 . S
O422 Tb400 2.399 . S
O422 C409 1.263 . S
C423 O412 1.261 . S
C423 O413 1.257 . S
C424 C427 1.358 . S
C424 C428 1.332 . S
C424 C430 1.504 . S
C425 C426 1.373 . S
C425 C429 1.308 . S
C426 C425 1.373 . S
C426 C427 1.429 . S
C426 H436 0.932 . S
C427 C424 1.358 . S
C427 C426 1.429 . S
C427 H437 0.930 . S
C428 C424 1.332 . S
C428 C429 1.394 . S
C428 H438 0.932 . S
C429 C425 1.308 . S
C429 C428 1.394 . S
C429 H439 0.929 . S
C430 Tb401 2.764 1_545 S
C430 O414 1.239 . S
C430 O415 1.263 . S
C430 C424 1.504 . S
C431 O416 1.236 . S
C431 O417 1.257 . S
H432 C405 0.932 . S
H433 C406 0.930 . S
H434 C407 0.932 . S
H435 C408 0.929 . S
H436 C426 0.932 . S
H437 C427 0.930 . S
H438 C428 0.932 . S
H439 C429 0.929 . S
Tb440 C449 2.764 . S
Tb440 O450 2.325 . S
Tb440 O453 2.303 . S
Tb440 O457 2.322 . S
Tb440 O458 2.349 . S
Tb440 O461 2.415 . S
Tb440 O462 2.399 . S
Tb441 O451 2.321 1_545 S
Tb441 O452 2.353 1_545 S
Tb441 O454 2.412 . S
Tb441 O455 2.398 . S
Tb441 O456 2.328 1_545 S
Tb441 O459 2.304 1_545 S
Tb441 C470 2.762 . S
C442 O458 1.261 . S
C442 O459 1.257 . S
C443 C446 1.358 . S
C443 C447 1.332 . S
C443 C449 1.504 . S
C444 C445 1.373 . S
C444 C448 1.308 . S
C445 C444 1.373 . S
C445 C446 1.429 . S
C445 H472 0.932 . S
C446 C443 1.358 . S
C446 C445 1.429 . S
C446 H473 0.930 . S
C447 C443 1.332 . S
C447 C448 1.394 . S
C447 H474 0.932 . S
C448 C444 1.308 . S
C448 C447 1.394 . S
C448 H475 0.929 . S
C449 Tb440 2.764 . S
C449 C443 1.504 . S
C449 O461 1.239 . S
C449 O462 1.263 . S
O450 Tb440 2.325 . S
O450 C460 1.236 . S
O451 Tb441 2.321 1_565 S
O451 C460 1.279 . S
O452 Tb441 2.353 1_565 S
O452 C463 1.261 . S
O453 Tb440 2.303 . S
O453 C463 1.257 . S
O454 Tb441 2.412 . S
O454 C470 1.239 . S
O455 Tb441 2.398 . S
O455 C470 1.263 . S
O456 Tb441 2.328 1_565 S
O456 C471 1.236 . S
O457 Tb440 2.322 . S
O457 C471 1.257 . S
O458 Tb440 2.349 . S
O458 C442 1.261 . S
O459 Tb441 2.304 1_565 S
O459 C442 1.257 . S
C460 O450 1.236 . S
C460 O451 1.279 . S
O461 Tb440 2.415 . S
O461 C449 1.239 . S
O462 Tb440 2.399 . S
O462 C449 1.263 . S
C463 O452 1.261 . S
C463 O453 1.257 . S
C464 C467 1.358 . S
C464 C468 1.332 . S
C464 C470 1.504 . S
C465 C466 1.373 . S
C465 C469 1.308 . S
C466 C465 1.373 . S
C466 C467 1.429 . S
C466 H476 0.932 . S
C467 C464 1.358 . S
C467 C466 1.429 . S
C467 H477 0.930 . S
C468 C464 1.332 . S
C468 C469 1.394 . S
C468 H478 0.932 . S
C469 C465 1.308 . S
C469 C468 1.394 . S
C469 H479 0.929 . S
C470 Tb441 2.762 . S
C470 O454 1.239 . S
C470 O455 1.263 . S
C470 C464 1.504 . S
C471 O456 1.236 . S
C471 O457 1.257 . S
H472 C445 0.932 . S
H473 C446 0.930 . S
H474 C447 0.932 . S
H475 C448 0.929 . S
H476 C466 0.932 . S
H477 C467 0.930 . S
H478 C468 0.932 . S
H479 C469 0.929 . S
Tb480 C489 2.764 . S
Tb480 O490 2.325 . S
Tb480 O493 2.303 . S
Tb480 O497 2.322 . S
Tb480 O498 2.349 . S
Tb480 O501 2.415 . S
Tb480 O502 2.399 . S
Tb481 O491 2.322 . S
Tb481 O492 2.349 1_556 S
Tb481 O494 2.415 . S
Tb481 O495 2.399 . S
Tb481 O496 2.325 1_556 S
Tb481 O499 2.303 . S
Tb481 C510 2.764 . S
C482 O498 1.256 . S
C482 O499 1.257 1_554 S
C483 C486 1.358 . S
C483 C487 1.332 . S
C483 C489 1.504 . S
C484 C485 1.373 . S
C484 C488 1.308 . S
C485 C484 1.373 . S
C485 C486 1.429 . S
C485 H512 0.932 . S
C486 C483 1.358 . S
C486 C485 1.429 . S
C486 H513 0.930 . S
C487 C483 1.332 . S
C487 C488 1.394 . S
C487 H514 0.932 . S
C488 C484 1.308 . S
C488 C487 1.394 . S
C488 H515 0.929 . S
C489 Tb480 2.764 . S
C489 C483 1.504 . S
C489 O501 1.239 . S
C489 O502 1.263 . S
O490 Tb480 2.325 . S
O490 C500 1.236 . S
O491 Tb481 2.322 . S
O491 C500 1.257 1_556 S
O492 Tb481 2.349 1_554 S
O492 C503 1.261 . S
O493 Tb480 2.303 . S
O493 C503 1.257 . S
O494 Tb481 2.415 . S
O494 C510 1.239 . S
O495 Tb481 2.399 . S
O495 C510 1.263 . S
O496 Tb481 2.325 1_554 S
O496 C511 1.236 . S
O497 Tb480 2.322 . S
O497 C511 1.257 . S
O498 Tb480 2.349 . S
O498 C482 1.256 . S
O499 Tb481 2.303 . S
O499 C482 1.257 1_556 S
C500 O490 1.236 . S
C500 O491 1.257 1_554 S
O501 Tb480 2.415 . S
O501 C489 1.239 . S
O502 Tb480 2.399 . S
O502 C489 1.263 . S
C503 O492 1.261 . S
C503 O493 1.257 . S
C504 C507 1.358 . S
C504 C508 1.332 . S
C504 C510 1.504 . S
C505 C506 1.373 . S
C505 C509 1.308 . S
C506 C505 1.373 . S
C506 C507 1.429 . S
C506 H516 0.932 . S
C507 C504 1.358 . S
C507 C506 1.429 . S
C507 H517 0.930 . S
C508 C504 1.332 . S
C508 C509 1.394 . S
C508 H518 0.932 . S
C509 C505 1.308 . S
C509 C508 1.394 . S
C509 H519 0.929 . S
C510 Tb481 2.764 . S
C510 O494 1.239 . S
C510 O495 1.263 . S
C510 C504 1.504 . S
C511 O496 1.236 . S
C511 O497 1.257 . S
H512 C485 0.932 . S
H513 C486 0.930 . S
H514 C487 0.932 . S
H515 C488 0.929 . S
H516 C506 0.932 . S
H517 C507 0.930 . S
H518 C508 0.932 . S
H519 C509 0.929 . S
Tb520 C529 2.764 . S
Tb520 O530 2.325 . S
Tb520 O533 2.303 . S
Tb520 O537 2.322 . S
Tb520 O538 2.349 . S
Tb520 O541 2.415 . S
Tb520 O542 2.399 . S
Tb521 O531 2.322 . S
Tb521 O532 2.349 1_455 S
Tb521 O534 2.415 . S
Tb521 O535 2.399 . S
Tb521 O536 2.325 1_455 S
Tb521 O539 2.303 . S
Tb521 C550 2.764 . S
C522 O538 1.261 1_455 S
C522 O539 1.257 . S
C523 C526 1.358 . S
C523 C527 1.332 . S
C523 C529 1.504 . S
C524 C525 1.373 . S
C524 C528 1.308 . S
C525 C524 1.373 . S
C525 C526 1.429 . S
C525 H552 0.932 . S
C526 C523 1.358 . S
C526 C525 1.429 . S
C526 H553 0.930 . S
C527 C523 1.332 . S
C527 C528 1.394 . S
C527 H554 0.932 . S
C528 C524 1.308 . S
C528 C527 1.394 . S
C528 H555 0.929 . S
C529 Tb520 2.764 . S
C529 C523 1.504 . S
C529 O541 1.239 . S
C529 O542 1.263 . S
O530 Tb520 2.325 . S
O530 C540 1.236 1_655 S
O531 Tb521 2.322 . S
O531 C540 1.257 . S
O532 Tb521 2.349 1_655 S
O532 C543 1.261 . S
O533 Tb520 2.303 . S
O533 C543 1.257 . S
O534 Tb521 2.415 . S
O534 C550 1.239 . S
O535 Tb521 2.399 . S
O535 C550 1.263 . S
O536 Tb521 2.325 1_655 S
O536 C551 1.236 . S
O537 Tb520 2.322 . S
O537 C551 1.257 . S
O538 Tb520 2.349 . S
O538 C522 1.261 1_655 S
O539 Tb521 2.303 . S
O539 C522 1.257 . S
C540 O530 1.236 1_455 S
C540 O531 1.257 . S
O541 Tb520 2.415 . S
O541 C529 1.239 . S
O542 Tb520 2.399 . S
O542 C529 1.263 . S
C543 O532 1.261 . S
C543 O533 1.257 . S
C544 C547 1.358 . S
C544 C548 1.332 . S
C544 C550 1.504 . S
C545 C546 1.373 . S
C545 C549 1.308 . S
C546 C545 1.373 . S
C546 C547 1.429 . S
C546 H556 0.932 . S
C547 C544 1.358 . S
C547 C546 1.429 . S
C547 H557 0.930 . S
C548 C544 1.332 . S
C548 C549 1.394 . S
C548 H558 0.932 . S
C549 C545 1.308 . S
C549 C548 1.394 . S
C549 H559 0.929 . S
C550 Tb521 2.764 . S
C550 O534 1.239 . S
C550 O535 1.263 . S
C550 C544 1.504 . S
C551 O536 1.236 . S
C551 O537 1.257 . S
H552 C525 0.932 . S
H553 C526 0.930 . S
H554 C527 0.932 . S
H555 C528 0.929 . S
H556 C546 0.932 . S
H557 C547 0.930 . S
H558 C548 0.932 . S
H559 C549 0.929 . S
Tb560 C569 2.764 . S
Tb560 O570 2.325 . S
Tb560 O573 2.303 . S
Tb560 O577 2.322 . S
Tb560 O578 2.349 . S
Tb560 O581 2.415 . S
Tb560 O582 2.399 . S
Tb561 O571 2.322 . S
Tb561 O572 2.349 . S
Tb561 O574 2.415 . S
Tb561 O575 2.399 . S
Tb561 O576 2.325 . S
Tb561 O579 2.303 . S
Tb561 C590 2.764 . S
C562 O578 1.261 . S
C562 O579 1.257 . S
C563 C566 1.358 . S
C563 C567 1.332 . S
C563 C569 1.504 . S
C564 C565 1.373 . S
C564 C568 1.308 . S
C565 C564 1.373 . S
C565 C566 1.429 . S
C565 H592 0.932 . S
C566 C563 1.358 . S
C566 C565 1.429 . S
C566 H593 0.930 . S
C567 C563 1.332 . S
C567 C568 1.394 . S
C567 H594 0.932 . S
C568 C564 1.308 . S
C568 C567 1.394 . S
C568 H595 0.929 . S
C569 Tb560 2.764 . S
C569 C563 1.504 . S
C569 O581 1.239 . S
C569 O582 1.263 . S
O570 Tb560 2.325 . S
O570 C580 1.236 . S
O571 Tb561 2.322 . S
O571 C580 1.257 . S
O572 Tb561 2.349 . S
O572 C583 1.261 . S
O573 Tb560 2.303 . S
O573 C583 1.257 . S
O574 Tb561 2.415 . S
O574 C590 1.239 . S
O575 Tb561 2.399 . S
O575 C590 1.263 . S
O576 Tb561 2.325 . S
O576 C591 1.236 . S
O577 Tb560 2.322 . S
O577 C591 1.257 . S
O578 Tb560 2.349 . S
O578 C562 1.261 . S
O579 Tb561 2.303 . S
O579 C562 1.257 . S
C580 O570 1.236 . S
C580 O571 1.257 . S
O581 Tb560 2.415 . S
O581 C569 1.239 . S
O582 Tb560 2.399 . S
O582 C569 1.263 . S
C583 O572 1.261 . S
C583 O573 1.257 . S
C584 C587 1.358 . S
C584 C588 1.332 . S
C584 C590 1.504 . S
C585 C586 1.373 . S
C585 C589 1.308 . S
C586 C585 1.373 . S
C586 C587 1.429 . S
C586 H596 0.932 . S
C587 C584 1.358 . S
C587 C586 1.429 . S
C587 H597 0.930 . S
C588 C584 1.332 . S
C588 C589 1.394 . S
C588 H598 0.932 . S
C589 C585 1.308 . S
C589 C588 1.394 . S
C589 H599 0.929 . S
C590 Tb561 2.764 . S
C590 O574 1.239 . S
C590 O575 1.263 . S
C590 C584 1.504 . S
C591 O576 1.236 . S
C591 O577 1.257 . S
H592 C565 0.932 . S
H593 C566 0.930 . S
H594 C567 0.932 . S
H595 C568 0.929 . S
H596 C586 0.932 . S
H597 C587 0.930 . S
H598 C588 0.932 . S
H599 C589 0.929 . S
Tb600 C609 2.764 1_655 S
Tb600 O610 2.325 . S
Tb600 O613 2.303 . S
Tb600 O617 2.322 . S
Tb600 O618 2.349 . S
Tb600 O621 2.415 1_655 S
Tb600 O622 2.416 . S
Tb601 O611 2.322 . S
Tb601 O612 2.349 . S
Tb601 O614 2.415 . S
Tb601 O615 2.399 . S
Tb601 O616 2.325 . S
Tb601 O619 2.303 . S
Tb601 C630 2.764 . S
C602 O618 1.261 . S
C602 O619 1.257 . S
C603 C606 1.358 . S
C603 C607 1.332 . S
C603 C609 1.504 . S
C604 C605 1.373 . S
C604 C608 1.308 . S
C605 C604 1.373 . S
C605 C606 1.429 . S
C605 H632 0.932 . S
C606 C603 1.358 . S
C606 C605 1.429 . S
C606 H633 0.930 . S
C607 C603 1.332 . S
C607 C608 1.394 . S
C607 H634 0.932 . S
C608 C604 1.308 . S
C608 C607 1.394 . S
C608 H635 0.929 . S
C609 Tb600 2.764 1_455 S
C609 C603 1.504 . S
C609 O621 1.239 . S
C609 O622 1.236 1_455 S
O610 Tb600 2.325 . S
O610 C620 1.236 . S
O611 Tb601 2.322 . S
O611 C620 1.257 . S
O612 Tb601 2.349 . S
O612 C623 1.261 . S
O613 Tb600 2.303 . S
O613 C623 1.257 . S
O614 Tb601 2.415 . S
O614 C630 1.239 . S
O615 Tb601 2.399 . S
O615 C630 1.263 . S
O616 Tb601 2.325 . S
O616 C631 1.236 . S
O617 Tb600 2.322 . S
O617 C631 1.257 . S
O618 Tb600 2.349 . S
O618 C602 1.261 . S
O619 Tb601 2.303 . S
O619 C602 1.257 . S
C620 O610 1.236 . S
C620 O611 1.257 . S
O621 Tb600 2.415 1_455 S
O621 C609 1.239 . S
O622 Tb600 2.416 . S
O622 C609 1.236 1_655 S
C623 O612 1.261 . S
C623 O613 1.257 . S
C624 C627 1.358 . S
C624 C628 1.332 . S
C624 C630 1.504 . S
C625 C626 1.373 . S
C625 C629 1.308 . S
C626 C625 1.373 . S
C626 C627 1.429 . S
C626 H636 0.932 . S
C627 C624 1.358 . S
C627 C626 1.429 . S
C627 H637 0.930 . S
C628 C624 1.332 . S
C628 C629 1.394 . S
C628 H638 0.932 . S
C629 C625 1.308 . S
C629 C628 1.394 . S
C629 H639 0.929 . S
C630 Tb601 2.764 . S
C630 O614 1.239 . S
C630 O615 1.263 . S
C630 C624 1.504 . S
C631 O616 1.236 . S
C631 O617 1.257 . S
H632 C605 0.932 . S
H633 C606 0.930 . S
H634 C607 0.932 . S
H635 C608 0.929 . S
H636 C626 0.932 . S
H637 C627 0.930 . S
H638 C628 0.932 . S
H639 C629 0.929 . S
Tb640 C649 2.764 . S
Tb640 O650 2.325 . S
Tb640 O653 2.303 . S
Tb640 O657 2.322 . S
Tb640 O658 2.349 . S
Tb640 O661 2.415 . S
Tb640 O662 2.399 . S
Tb641 O651 2.322 . S
Tb641 O652 2.349 . S
Tb641 O654 2.415 . S
Tb641 O655 2.399 . S
Tb641 O656 2.325 . S
Tb641 O659 2.303 . S
Tb641 C670 2.764 . S
C642 O658 1.261 . S
C642 O659 1.257 . S
C643 C646 1.358 . S
C643 C647 1.332 . S
C643 C649 1.504 . S
C644 C645 1.373 . S
C644 C648 1.308 . S
C645 C644 1.373 . S
C645 C646 1.429 . S
C645 H672 0.932 . S
C646 C643 1.358 . S
C646 C645 1.429 . S
C646 H673 0.930 . S
C647 C643 1.332 . S
C647 C648 1.394 . S
C647 H674 0.932 . S
C648 C644 1.308 . S
C648 C647 1.394 . S
C648 H675 0.929 . S
C649 Tb640 2.764 . S
C649 C643 1.504 . S
C649 O661 1.239 . S
C649 O662 1.263 . S
O650 Tb640 2.325 . S
O650 C660 1.236 . S
O651 Tb641 2.322 . S
O651 C660 1.257 . S
O652 Tb641 2.349 . S
O652 C663 1.261 . S
O653 Tb640 2.303 . S
O653 C663 1.257 . S
O654 Tb641 2.415 . S
O654 C670 1.239 . S
O655 Tb641 2.399 . S
O655 C670 1.263 . S
O656 Tb641 2.325 . S
O656 C671 1.236 . S
O657 Tb640 2.322 . S
O657 C671 1.257 . S
O658 Tb640 2.349 . S
O658 C642 1.261 . S
O659 Tb641 2.303 . S
O659 C642 1.257 . S
C660 O650 1.236 . S
C660 O651 1.257 . S
O661 Tb640 2.415 . S
O661 C649 1.239 . S
O662 Tb640 2.399 . S
O662 C649 1.263 . S
C663 O652 1.261 . S
C663 O653 1.257 . S
C664 C667 1.358 . S
C664 C668 1.332 . S
C664 C670 1.504 . S
C665 C666 1.373 . S
C665 C669 1.308 . S
C666 C665 1.373 . S
C666 C667 1.429 . S
C666 H676 0.932 . S
C667 C664 1.358 . S
C667 C666 1.429 . S
C667 H677 0.930 . S
C668 C664 1.332 . S
C668 C669 1.394 . S
C668 H678 0.932 . S
C669 C665 1.308 . S
C669 C668 1.394 . S
C669 H679 0.929 . S
C670 Tb641 2.764 . S
C670 O654 1.239 . S
C670 O655 1.263 . S
C670 C664 1.504 . S
C671 O656 1.236 . S
C671 O657 1.257 . S
H672 C645 0.932 . S
H673 C646 0.930 . S
H674 C647 0.932 . S
H675 C648 0.929 . S
H676 C666 0.932 . S
H677 C667 0.930 . S
H678 C668 0.932 . S
H679 C669 0.929 . S
Tb680 C689 2.764 . S
Tb680 O690 2.325 . S
Tb680 O693 2.303 . S
Tb680 O697 2.322 . S
Tb680 O698 2.349 . S
Tb680 O701 2.415 . S
Tb680 O702 2.399 . S
Tb681 O691 2.322 . S
Tb681 O692 2.349 . S
Tb681 O694 2.415 . S
Tb681 O695 2.399 . S
Tb681 O696 2.325 . S
Tb681 O699 2.303 . S
Tb681 C710 2.764 . S
C682 O698 1.261 . S
C682 O699 1.257 . S
C683 C686 1.358 . S
C683 C687 1.332 . S
C683 C689 1.504 . S
C684 C685 1.373 . S
C684 C688 1.308 . S
C685 C684 1.373 . S
C685 C686 1.429 . S
C685 H712 0.932 . S
C686 C683 1.358 . S
C686 C685 1.429 . S
C686 H713 0.930 . S
C687 C683 1.332 . S
C687 C688 1.394 . S
C687 H714 0.932 . S
C688 C684 1.308 . S
C688 C687 1.394 . S
C688 H715 0.929 . S
C689 Tb680 2.764 . S
C689 C683 1.504 . S
C689 O701 1.239 . S
C689 O702 1.263 . S
O690 Tb680 2.325 . S
O690 C700 1.236 . S
O691 Tb681 2.322 . S
O691 C700 1.257 . S
O692 Tb681 2.349 . S
O692 C703 1.261 . S
O693 Tb680 2.303 . S
O693 C703 1.257 . S
O694 Tb681 2.415 . S
O694 C710 1.239 . S
O695 Tb681 2.399 . S
O695 C710 1.263 . S
O696 Tb681 2.325 . S
O696 C711 1.236 . S
O697 Tb680 2.322 . S
O697 C711 1.257 . S
O698 Tb680 2.349 . S
O698 C682 1.261 . S
O699 Tb681 2.303 . S
O699 C682 1.257 . S
C700 O690 1.236 . S
C700 O691 1.257 . S
O701 Tb680 2.415 . S
O701 C689 1.239 . S
O702 Tb680 2.399 . S
O702 C689 1.263 . S
C703 O692 1.261 . S
C703 O693 1.257 . S
C704 C707 1.358 . S
C704 C708 1.332 . S
C704 C710 1.504 . S
C705 C706 1.373 . S
C705 C709 1.308 . S
C706 C705 1.373 . S
C706 C707 1.429 . S
C706 H716 0.932 . S
C707 C704 1.358 . S
C707 C706 1.429 . S
C707 H717 0.930 . S
C708 C704 1.332 . S
C708 C709 1.394 . S
C708 H718 0.932 . S
C709 C705 1.308 . S
C709 C708 1.394 . S
C709 H719 0.929 . S
C710 Tb681 2.764 . S
C710 O694 1.239 . S
C710 O695 1.263 . S
C710 C704 1.504 . S
C711 O696 1.236 . S
C711 O697 1.257 . S
H712 C685 0.932 . S
H713 C686 0.930 . S
H714 C687 0.932 . S
H715 C688 0.929 . S
H716 C706 0.932 . S
H717 C707 0.930 . S
H718 C708 0.932 . S
H719 C709 0.929 . S
Tb720 C729 2.764 . S
Tb720 O730 2.325 . S
Tb720 O733 2.303 . S
Tb720 O737 2.322 . S
Tb720 O738 2.349 . S
Tb720 O741 2.415 . S
Tb720 O742 2.399 . S
Tb721 O731 2.322 . S
Tb721 O732 2.349 1_556 S
Tb721 O734 2.415 1_556 S
Tb721 O735 2.399 1_556 S
Tb721 O736 2.325 1_556 S
Tb721 O739 2.303 . S
Tb721 C750 2.764 1_556 S
C722 O738 1.261 . S
C722 O739 1.257 . S
C723 C726 1.358 . S
C723 C727 1.332 . S
C723 C729 1.504 . S
C724 C725 1.373 . S
C724 C728 1.308 . S
C725 C724 1.373 . S
C725 C726 1.429 . S
C725 H752 0.932 . S
C726 C723 1.358 . S
C726 C725 1.429 . S
C726 H753 0.930 . S
C727 C723 1.332 . S
C727 C728 1.394 . S
C727 H754 0.932 . S
C728 C724 1.308 . S
C728 C727 1.394 . S
C728 H755 0.929 . S
C729 Tb720 2.764 . S
C729 C723 1.504 . S
C729 O741 1.239 . S
C729 O742 1.263 . S
O730 Tb720 2.325 . S
O730 C740 1.236 . S
O731 Tb721 2.322 . S
O731 C740 1.257 . S
O732 Tb721 2.349 1_554 S
O732 C743 1.261 . S
O733 Tb720 2.303 . S
O733 C743 1.257 1_556 S
O734 Tb721 2.415 1_554 S
O734 C750 1.239 . S
O735 Tb721 2.399 1_554 S
O735 C750 1.263 . S
O736 Tb721 2.325 1_554 S
O736 C751 1.236 . S
O737 Tb720 2.322 . S
O737 C751 1.257 1_556 S
O738 Tb720 2.349 . S
O738 C722 1.261 . S
O739 Tb721 2.303 . S
O739 C722 1.257 . S
C740 O730 1.236 . S
C740 O731 1.257 . S
O741 Tb720 2.415 . S
O741 C729 1.239 . S
O742 Tb720 2.399 . S
O742 C729 1.263 . S
C743 O732 1.261 . S
C743 O733 1.257 1_554 S
C744 C747 1.358 . S
C744 C748 1.332 . S
C744 C750 1.504 . S
C745 C746 1.373 . S
C745 C749 1.308 . S
C746 C745 1.373 . S
C746 C747 1.429 . S
C746 H756 0.932 . S
C747 C744 1.358 . S
C747 C746 1.429 . S
C747 H757 0.930 . S
C748 C744 1.332 . S
C748 C749 1.394 . S
C748 H758 0.932 . S
C749 C745 1.308 . S
C749 C748 1.394 . S
C749 H759 0.929 . S
C750 Tb721 2.764 1_554 S
C750 O734 1.239 . S
C750 O735 1.263 . S
C750 C744 1.504 . S
C751 O736 1.236 . S
C751 O737 1.257 1_554 S
H752 C725 0.932 . S
H753 C726 0.930 . S
H754 C727 0.932 . S
H755 C728 0.929 . S
H756 C746 0.932 . S
H757 C747 0.930 . S
H758 C748 0.932 . S
H759 C749 0.929 . S
Tb760 C769 2.764 1_655 S
Tb760 O770 2.325 . S
Tb760 O773 2.303 . S
Tb760 O777 2.322 . S
Tb760 O778 2.349 . S
Tb760 O781 2.415 1_655 S
Tb760 O782 2.399 1_655 S
Tb761 O771 2.322 . S
Tb761 O772 2.349 . S
Tb761 O774 2.415 . S
Tb761 O775 2.399 . S
Tb761 O776 2.325 . S
Tb761 O779 2.303 . S
Tb761 C790 2.764 . S
C762 O778 1.261 . S
C762 O779 1.257 . S
C763 C766 1.358 . S
C763 C767 1.332 . S
C763 C769 1.504 . S
C764 C765 1.373 . S
C764 C768 1.308 . S
C765 C764 1.373 . S
C765 C766 1.429 . S
C765 H792 0.932 . S
C766 C763 1.358 . S
C766 C765 1.429 . S
C766 H793 0.930 . S
C767 C763 1.332 . S
C767 C768 1.394 . S
C767 H794 0.932 . S
C768 C764 1.308 . S
C768 C767 1.394 . S
C768 H795 0.929 . S
C769 Tb760 2.764 1_455 S
C769 C763 1.504 . S
C769 O781 1.239 . S
C769 O782 1.263 . S
O770 Tb760 2.325 . S
O770 C780 1.236 . S
O771 Tb761 2.322 . S
O771 C780 1.257 . S
O772 Tb761 2.349 . S
O772 C783 1.261 . S
O773 Tb760 2.303 . S
O773 C783 1.257 . S
O774 Tb761 2.415 . S
O774 C790 1.239 . S
O775 Tb761 2.399 . S
O775 C790 1.263 . S
O776 Tb761 2.325 . S
O776 C791 1.236 . S
O777 Tb760 2.322 . S
O777 C791 1.257 . S
O778 Tb760 2.349 . S
O778 C762 1.261 . S
O779 Tb761 2.303 . S
O779 C762 1.257 . S
C780 O770 1.236 . S
C780 O771 1.257 . S
O781 Tb760 2.415 1_455 S
O781 C769 1.239 . S
O782 Tb760 2.399 1_455 S
O782 C769 1.263 . S
C783 O772 1.261 . S
C783 O773 1.257 . S
C784 C787 1.358 . S
C784 C788 1.332 . S
C784 C790 1.504 . S
C785 C786 1.373 . S
C785 C789 1.308 . S
C786 C785 1.373 . S
C786 C787 1.429 . S
C786 H796 0.932 . S
C787 C784 1.358 . S
C787 C786 1.429 . S
C787 H797 0.930 . S
C788 C784 1.332 . S
C788 C789 1.394 . S
C788 H798 0.932 . S
C789 C785 1.308 . S
C789 C788 1.394 . S
C789 H799 0.929 . S
C790 Tb761 2.764 . S
C790 O774 1.239 . S
C790 O775 1.263 . S
C790 C784 1.504 . S
C791 O776 1.236 . S
C791 O777 1.257 . S
H792 C765 0.932 . S
H793 C766 0.930 . S
H794 C767 0.932 . S
H795 C768 0.929 . S
H796 C786 0.932 . S
H797 C787 0.930 . S
H798 C788 0.932 . S
H799 C789 0.929 . S
Tb800 C809 2.764 . S
Tb800 O810 2.325 . S
Tb800 O813 2.303 . S
Tb800 O817 2.322 . S
Tb800 O818 2.349 . S
Tb800 O821 2.415 . S
Tb800 O822 2.399 . S
Tb801 O811 2.322 . S
Tb801 O812 2.349 . S
Tb801 O814 2.415 . S
Tb801 O815 2.399 . S
Tb801 O816 2.325 . S
Tb801 O819 2.303 . S
Tb801 C830 2.764 . S
C802 O818 1.261 . S
C802 O819 1.257 . S
C803 C806 1.358 . S
C803 C807 1.332 . S
C803 C809 1.504 . S
C804 C805 1.373 . S
C804 C808 1.308 . S
C805 C804 1.373 . S
C805 C806 1.429 . S
C805 H832 0.932 . S
C806 C803 1.358 . S
C806 C805 1.429 . S
C806 H833 0.930 . S
C807 C803 1.332 . S
C807 C808 1.394 . S
C807 H834 0.932 . S
C808 C804 1.308 . S
C808 C807 1.394 . S
C808 H835 0.929 . S
C809 Tb800 2.764 . S
C809 C803 1.504 . S
C809 O821 1.239 . S
C809 O822 1.263 . S
O810 Tb800 2.325 . S
O810 C820 1.236 . S
O811 Tb801 2.322 . S
O811 C820 1.257 . S
O812 Tb801 2.349 . S
O812 C823 1.261 . S
O813 Tb800 2.303 . S
O813 C823 1.257 . S
O814 Tb801 2.415 . S
O814 C830 1.239 . S
O815 Tb801 2.399 . S
O815 C830 1.263 . S
O816 Tb801 2.325 . S
O816 C831 1.236 . S
O817 Tb800 2.322 . S
O817 C831 1.257 . S
O818 Tb800 2.349 . S
O818 C802 1.261 . S
O819 Tb801 2.303 . S
O819 C802 1.257 . S
C820 O810 1.236 . S
C820 O811 1.257 . S
O821 Tb800 2.415 . S
O821 C809 1.239 . S
O822 Tb800 2.399 . S
O822 C809 1.263 . S
C823 O812 1.261 . S
C823 O813 1.257 . S
C824 C827 1.358 . S
C824 C828 1.332 . S
C824 C830 1.504 . S
C825 C826 1.373 . S
C825 C829 1.308 . S
C826 C825 1.373 . S
C826 C827 1.429 . S
C826 H836 0.932 . S
C827 C824 1.358 . S
C827 C826 1.429 . S
C827 H837 0.930 . S
C828 C824 1.332 . S
C828 C829 1.394 . S
C828 H838 0.932 . S
C829 C825 1.308 . S
C829 C828 1.394 . S
C829 H839 0.929 . S
C830 Tb801 2.764 . S
C830 O814 1.239 . S
C830 O815 1.263 . S
C830 C824 1.504 . S
C831 O816 1.236 . S
C831 O817 1.257 . S
H832 C805 0.932 . S
H833 C806 0.930 . S
H834 C807 0.932 . S
H835 C808 0.929 . S
H836 C826 0.932 . S
H837 C827 0.930 . S
H838 C828 0.932 . S
H839 C829 0.929 . S
Tb840 C849 2.764 . S
Tb840 O850 2.325 . S
Tb840 O853 2.303 . S
Tb840 O857 2.322 . S
Tb840 O858 2.349 . S
Tb840 O861 2.415 . S
Tb840 O862 2.399 . S
Tb841 O851 2.322 . S
Tb841 O852 2.349 . S
Tb841 O854 2.415 . S
Tb841 O855 2.399 . S
Tb841 O856 2.325 . S
Tb841 O859 2.303 . S
Tb841 C870 2.764 . S
C842 O858 1.261 . S
C842 O859 1.257 . S
C843 C846 1.358 . S
C843 C847 1.332 . S
C843 C849 1.504 . S
C844 C845 1.373 . S
C844 C848 1.308 . S
C845 C844 1.373 . S
C845 C846 1.429 . S
C845 H872 0.932 . S
C846 C843 1.358 . S
C846 C845 1.429 . S
C846 H873 0.930 . S
C847 C843 1.332 . S
C847 C848 1.394 . S
C847 H874 0.932 . S
C848 C844 1.308 . S
C848 C847 1.394 . S
C848 H875 0.929 . S
C849 Tb840 2.764 . S
C849 C843 1.504 . S
C849 O861 1.239 . S
C849 O862 1.263 . S
O850 Tb840 2.325 . S
O850 C860 1.236 . S
O851 Tb841 2.322 . S
O851 C860 1.257 . S
O852 Tb841 2.349 . S
O852 C863 1.261 . S
O853 Tb840 2.303 . S
O853 C863 1.257 . S
O854 Tb841 2.415 . S
O854 C870 1.239 . S
O855 Tb841 2.399 . S
O855 C870 1.263 . S
O856 Tb841 2.325 . S
O856 C871 1.236 . S
O857 Tb840 2.322 . S
O857 C871 1.257 . S
O858 Tb840 2.349 . S
O858 C842 1.261 . S
O859 Tb841 2.303 . S
O859 C842 1.257 . S
C860 O850 1.236 . S
C860 O851 1.257 . S
O861 Tb840 2.415 . S
O861 C849 1.239 . S
O862 Tb840 2.399 . S
O862 C849 1.263 . S
C863 O852 1.261 . S
C863 O853 1.257 . S
C864 C867 1.358 . S
C864 C868 1.332 . S
C864 C870 1.504 . S
C865 C866 1.373 . S
C865 C869 1.308 . S
C866 C865 1.373 . S
C866 C867 1.429 . S
C866 H876 0.932 . S
C867 C864 1.358 . S
C867 C866 1.429 . S
C867 H877 0.930 . S
C868 C864 1.332 . S
C868 C869 1.394 . S
C868 H878 0.932 . S
C869 C865 1.308 . S
C869 C868 1.394 . S
C869 H879 0.929 . S
C870 Tb841 2.764 . S
C870 O854 1.239 . S
C870 O855 1.263 . S
C870 C864 1.504 . S
C871 O856 1.236 . S
C871 O857 1.257 . S
H872 C845 0.932 . S
H873 C846 0.930 . S
H874 C847 0.932 . S
H875 C848 0.929 . S
H876 C866 0.932 . S
H877 C867 0.930 . S
H878 C868 0.932 . S
H879 C869 0.929 . S
Tb880 C889 2.764 . S
Tb880 O890 2.325 1_556 S
Tb880 O893 2.303 1_556 S
Tb880 O897 2.321 1_556 S
Tb880 O898 2.349 1_556 S
Tb880 O901 2.415 . S
Tb880 O902 2.399 . S
Tb881 O891 2.322 . S
Tb881 O892 2.349 . S
Tb881 O894 2.415 . S
Tb881 O895 2.399 . S
Tb881 O896 2.325 . S
Tb881 O899 2.303 . S
Tb881 C910 2.764 . S
C882 O898 1.261 . S
C882 O899 1.257 . S
C883 C886 1.358 . S
C883 C887 1.332 . S
C883 C889 1.504 . S
C884 C885 1.373 . S
C884 C888 1.308 . S
C885 C884 1.373 . S
C885 C886 1.429 . S
C885 H912 0.932 . S
C886 C883 1.358 . S
C886 C885 1.429 . S
C886 H913 0.930 . S
C887 C883 1.332 . S
C887 C888 1.394 . S
C887 H914 0.932 . S
C888 C884 1.308 . S
C888 C887 1.394 . S
C888 H915 0.929 . S
C889 Tb880 2.764 . S
C889 C883 1.504 . S
C889 O901 1.239 . S
C889 O902 1.263 . S
O890 Tb880 2.325 1_554 S
O890 C900 1.236 . S
O891 Tb881 2.322 . S
O891 C900 1.257 . S
O892 Tb881 2.349 . S
O892 C903 1.261 . S
O893 Tb880 2.303 1_554 S
O893 C903 1.257 . S
O894 Tb881 2.415 . S
O894 C910 1.239 . S
O895 Tb881 2.399 . S
O895 C910 1.263 . S
O896 Tb881 2.325 . S
O896 C911 1.236 . S
O897 Tb880 2.321 1_554 S
O897 C911 1.266 . S
O898 Tb880 2.349 1_554 S
O898 C882 1.261 . S
O899 Tb881 2.303 . S
O899 C882 1.257 . S
C900 O890 1.236 . S
C900 O891 1.257 . S
O901 Tb880 2.415 . S
O901 C889 1.239 . S
O902 Tb880 2.399 . S
O902 C889 1.263 . S
C903 O892 1.261 . S
C903 O893 1.257 . S
C904 C907 1.358 . S
C904 C908 1.332 . S
C904 C910 1.504 . S
C905 C906 1.373 . S
C905 C909 1.308 . S
C906 C905 1.373 . S
C906 C907 1.429 . S
C906 H916 0.932 . S
C907 C904 1.358 . S
C907 C906 1.429 . S
C907 H917 0.930 . S
C908 C904 1.332 . S
C908 C909 1.394 . S
C908 H918 0.932 . S
C909 C905 1.308 . S
C909 C908 1.394 . S
C909 H919 0.929 . S
C910 Tb881 2.764 . S
C910 O894 1.239 . S
C910 O895 1.263 . S
C910 C904 1.504 . S
C911 O896 1.236 . S
C911 O897 1.266 . S
H912 C885 0.932 . S
H913 C886 0.930 . S
H914 C887 0.932 . S
H915 C888 0.929 . S
H916 C906 0.932 . S
H917 C907 0.930 . S
H918 C908 0.932 . S
H919 C909 0.929 . S
Tb920 C929 2.764 . S
Tb920 O930 2.325 . S
Tb920 O933 2.303 . S
Tb920 O937 2.322 . S
Tb920 O938 2.349 . S
Tb920 O941 2.415 . S
Tb920 O942 2.399 . S
Tb921 O931 2.322 1_545 S
Tb921 O932 2.349 . S
Tb921 O934 2.415 . S
Tb921 O935 2.399 . S
Tb921 O936 2.325 . S
Tb921 O939 2.303 1_545 S
Tb921 C950 2.764 . S
C922 O938 1.261 . S
C922 O939 1.257 . S
C923 C926 1.358 . S
C923 C927 1.332 . S
C923 C929 1.504 . S
C924 C925 1.373 . S
C924 C928 1.308 . S
C925 C924 1.373 . S
C925 C926 1.429 . S
C925 H952 0.932 . S
C926 C923 1.358 . S
C926 C925 1.429 . S
C926 H953 0.930 . S
C927 C923 1.332 . S
C927 C928 1.394 . S
C927 H954 0.932 . S
C928 C924 1.308 . S
C928 C927 1.394 . S
C928 H955 0.929 . S
C929 Tb920 2.764 . S
C929 C923 1.504 . S
C929 O941 1.239 . S
C929 O942 1.263 . S
O930 Tb920 2.325 . S
O930 C940 1.236 . S
O931 Tb921 2.322 1_565 S
O931 C940 1.257 . S
O932 Tb921 2.349 . S
O932 C943 1.261 . S
O933 Tb920 2.303 . S
O933 C943 1.257 1_565 S
O934 Tb921 2.415 . S
O934 C950 1.239 . S
O935 Tb921 2.399 . S
O935 C950 1.263 . S
O936 Tb921 2.325 . S
O936 C951 1.236 . S
O937 Tb920 2.322 . S
O937 C951 1.257 1_565 S
O938 Tb920 2.349 . S
O938 C922 1.261 . S
O939 Tb921 2.303 1_565 S
O939 C922 1.257 . S
C940 O930 1.236 . S
C940 O931 1.257 . S
O941 Tb920 2.415 . S
O941 C929 1.239 . S
O942 Tb920 2.399 . S
O942 C929 1.263 . S
C943 O932 1.261 . S
C943 O933 1.257 1_545 S
C944 C947 1.358 . S
C944 C948 1.332 . S
C944 C950 1.504 . S
C945 C946 1.373 . S
C945 C949 1.308 . S
C946 C945 1.373 . S
C946 C947 1.429 . S
C946 H956 0.932 . S
C947 C944 1.358 . S
C947 C946 1.429 . S
C947 H957 0.930 . S
C948 C944 1.332 . S
C948 C949 1.394 . S
C948 H958 0.932 . S
C949 C945 1.308 . S
C949 C948 1.394 . S
C949 H959 0.929 . S
C950 Tb921 2.764 . S
C950 O934 1.239 . S
C950 O935 1.263 . S
C950 C944 1.504 . S
C951 O936 1.236 . S
C951 O937 1.257 1_545 S
H952 C925 0.932 . S
H953 C926 0.930 . S
H954 C927 0.932 . S
H955 C928 0.929 . S
H956 C946 0.932 . S
H957 C947 0.930 . S
H958 C948 0.932 . S
H959 C949 0.929 . S
Tb960 C969 2.764 . S
Tb960 O970 2.325 1_545 S
Tb960 O973 2.303 . S
Tb960 O977 2.322 . S
Tb960 O978 2.349 1_545 S
Tb960 O981 2.415 . S
Tb960 O982 2.399 . S
Tb961 O971 2.322 . S
Tb961 O972 2.349 . S
Tb961 O974 2.415 . S
Tb961 O975 2.399 . S
Tb961 O976 2.325 . S
Tb961 O979 2.303 . S
Tb961 C990 2.764 . S
C962 O978 1.261 . S
C962 O979 1.257 . S
C963 C966 1.358 . S
C963 C967 1.332 . S
C963 C969 1.504 . S
C964 C965 1.373 . S
C964 C968 1.308 . S
C965 C964 1.373 . S
C965 C966 1.429 . S
C965 H992 0.932 . S
C966 C963 1.358 . S
C966 C965 1.429 . S
C966 H993 0.930 . S
C967 C963 1.332 . S
C967 C968 1.394 . S
C967 H994 0.932 . S
C968 C964 1.308 . S
C968 C967 1.394 . S
C968 H995 0.929 . S
C969 Tb960 2.764 . S
C969 C963 1.504 . S
C969 O981 1.239 . S
C969 O982 1.263 . S
O970 Tb960 2.325 1_565 S
O970 C980 1.236 . S
O971 Tb961 2.322 . S
O971 C980 1.257 . S
O972 Tb961 2.349 . S
O972 C983 1.261 1_565 S
O973 Tb960 2.303 . S
O973 C983 1.257 . S
O974 Tb961 2.415 . S
O974 C990 1.239 . S
O975 Tb961 2.399 . S
O975 C990 1.263 . S
O976 Tb961 2.325 . S
O976 C991 1.222 1_565 S
O977 Tb960 2.322 . S
O977 C991 1.268 . S
O978 Tb960 2.349 1_565 S
O978 C962 1.261 . S
O979 Tb961 2.303 . S
O979 C962 1.257 . S
C980 O970 1.236 . S
C980 O971 1.257 . S
O981 Tb960 2.415 . S
O981 C969 1.239 . S
O982 Tb960 2.399 . S
O982 C969 1.263 . S
C983 O972 1.261 1_545 S
C983 O973 1.257 . S
C984 C987 1.358 . S
C984 C988 1.332 . S
C984 C990 1.504 . S
C985 C986 1.373 . S
C985 C989 1.308 . S
C986 C985 1.373 . S
C986 C987 1.429 . S
C986 H996 0.932 . S
C987 C984 1.358 . S
C987 C986 1.429 . S
C987 H997 0.930 . S
C988 C984 1.332 . S
C988 C989 1.394 . S
C988 H998 0.932 . S
C989 C985 1.308 . S
C989 C988 1.394 . S
C989 H999 0.929 . S
C990 Tb961 2.764 . S
C990 O974 1.239 . S
C990 O975 1.263 . S
C990 C984 1.504 . S
C991 O976 1.222 1_545 S
C991 O977 1.268 . S
H992 C965 0.932 . S
H993 C966 0.930 . S
H994 C967 0.932 . S
H995 C968 0.929 . S
H996 C986 0.932 . S
H997 C987 0.930 . S
H998 C988 0.932 . S
H999 C989 0.929 . S
Tb1000 C1009 2.764 1_545 S
Tb1000 O1010 2.325 . S
Tb1000 O1013 2.303 . S
Tb1000 O1017 2.322 . S
Tb1000 O1018 2.349 . S
Tb1000 O1021 2.415 1_545 S
Tb1000 O1022 2.399 1_545 S
Tb1001 O1011 2.322 . S
Tb1001 O1012 2.349 . S
Tb1001 O1014 2.415 . S
Tb1001 O1015 2.399 . S
Tb1001 O1016 2.325 . S
Tb1001 O1019 2.303 . S
Tb1001 C1030 2.764 . S
C1002 O1018 1.261 . S
C1002 O1019 1.257 . S
C1003 C1006 1.358 . S
C1003 C1007 1.332 . S
C1003 C1009 1.504 . S
C1004 C1005 1.373 . S
C1004 C1008 1.308 . S
C1005 C1004 1.373 . S
C1005 C1006 1.429 . S
C1005 H1032 0.932 . S
C1006 C1003 1.358 . S
C1006 C1005 1.429 . S
C1006 H1033 0.930 . S
C1007 C1003 1.332 . S
C1007 C1008 1.394 . S
C1007 H1034 0.932 . S
C1008 C1004 1.308 . S
C1008 C1007 1.394 . S
C1008 H1035 0.929 . S
C1009 Tb1000 2.764 1_565 S
C1009 C1003 1.504 . S
C1009 O1021 1.239 . S
C1009 O1022 1.263 . S
O1010 Tb1000 2.325 . S
O1010 C1020 1.236 . S
O1011 Tb1001 2.322 . S
O1011 C1020 1.257 . S
O1012 Tb1001 2.349 . S
O1012 C1023 1.261 . S
O1013 Tb1000 2.303 . S
O1013 C1023 1.257 . S
O1014 Tb1001 2.415 . S
O1014 C1030 1.239 . S
O1015 Tb1001 2.399 . S
O1015 C1030 1.263 . S
O1016 Tb1001 2.325 . S
O1016 C1031 1.236 . S
O1017 Tb1000 2.322 . S
O1017 C1031 1.257 . S
O1018 Tb1000 2.349 . S
O1018 C1002 1.261 . S
O1019 Tb1001 2.303 . S
O1019 C1002 1.257 . S
C1020 O1010 1.236 . S
C1020 O1011 1.257 . S
O1021 Tb1000 2.415 1_565 S
O1021 C1009 1.239 . S
O1022 Tb1000 2.399 1_565 S
O1022 C1009 1.263 . S
C1023 O1012 1.261 . S
C1023 O1013 1.257 . S
C1024 C1027 1.358 . S
C1024 C1028 1.332 . S
C1024 C1030 1.504 . S
C1025 C1026 1.373 . S
C1025 C1029 1.308 . S
C1026 C1025 1.373 . S
C1026 C1027 1.429 . S
C1026 H1036 0.932 . S
C1027 C1024 1.358 . S
C1027 C1026 1.429 . S
C1027 H1037 0.930 . S
C1028 C1024 1.332 . S
C1028 C1029 1.394 . S
C1028 H1038 0.932 . S
C1029 C1025 1.308 . S
C1029 C1028 1.394 . S
C1029 H1039 0.929 . S
C1030 Tb1001 2.764 . S
C1030 O1014 1.239 . S
C1030 O1015 1.263 . S
C1030 C1024 1.504 . S
C1031 O1016 1.236 . S
C1031 O1017 1.257 . S
H1032 C1005 0.932 . S
H1033 C1006 0.930 . S
H1034 C1007 0.932 . S
H1035 C1008 0.929 . S
H1036 C1026 0.932 . S
H1037 C1027 0.930 . S
H1038 C1028 0.932 . S
H1039 C1029 0.929 . S
Tb1040 C1049 2.764 . S
Tb1040 O1050 2.325 . S
Tb1040 O1053 2.303 . S
Tb1040 O1057 2.322 . S
Tb1040 O1058 2.349 . S
Tb1040 O1061 2.415 . S
Tb1040 O1062 2.399 . S
Tb1041 O1051 2.322 . S
Tb1041 O1052 2.349 1_545 S
Tb1041 O1054 2.415 1_545 S
Tb1041 O1055 2.399 1_545 S
Tb1041 O1056 2.325 1_545 S
Tb1041 O1059 2.303 . S
Tb1041 C1070 2.764 1_545 S
C1042 O1058 1.261 . S
C1042 O1059 1.257 . S
C1043 C1046 1.358 . S
C1043 C1047 1.332 . S
C1043 C1049 1.504 . S
C1044 C1045 1.373 . S
C1044 C1048 1.308 . S
C1045 C1044 1.373 . S
C1045 C1046 1.429 . S
C1045 H1072 0.932 . S
C1046 C1043 1.358 . S
C1046 C1045 1.429 . S
C1046 H1073 0.930 . S
C1047 C1043 1.332 . S
C1047 C1048 1.394 . S
C1047 H1074 0.932 . S
C1048 C1044 1.308 . S
C1048 C1047 1.394 . S
C1048 H1075 0.929 . S
C1049 Tb1040 2.764 . S
C1049 C1043 1.504 . S
C1049 O1061 1.239 . S
C1049 O1062 1.263 . S
O1050 Tb1040 2.325 . S
O1050 C1060 1.236 . S
O1051 Tb1041 2.322 . S
O1051 C1060 1.257 . S
O1052 Tb1041 2.349 1_565 S
O1052 C1063 1.261 1_565 S
O1053 Tb1040 2.303 . S
O1053 C1063 1.257 . S
O1054 Tb1041 2.415 1_565 S
O1054 C1070 1.239 . S
O1055 Tb1041 2.399 1_565 S
O1055 C1070 1.263 . S
O1056 Tb1041 2.325 1_565 S
O1056 C1071 1.236 1_565 S
O1057 Tb1040 2.322 . S
O1057 C1071 1.257 . S
O1058 Tb1040 2.349 . S
O1058 C1042 1.261 . S
O1059 Tb1041 2.303 . S
O1059 C1042 1.257 . S
C1060 O1050 1.236 . S
C1060 O1051 1.257 . S
O1061 Tb1040 2.415 . S
O1061 C1049 1.239 . S
O1062 Tb1040 2.399 . S
O1062 C1049 1.263 . S
C1063 O1052 1.261 1_545 S
C1063 O1053 1.257 . S
C1064 C1067 1.358 . S
C1064 C1068 1.332 . S
C1064 C1070 1.504 . S
C1065 C1066 1.373 . S
C1065 C1069 1.308 . S
C1066 C1065 1.373 . S
C1066 C1067 1.429 . S
C1066 H1076 0.932 . S
C1067 C1064 1.358 . S
C1067 C1066 1.429 . S
C1067 H1077 0.930 . S
C1068 C1064 1.332 . S
C1068 C1069 1.394 . S
C1068 H1078 0.932 . S
C1069 C1065 1.308 . S
C1069 C1068 1.394 . S
C1069 H1079 0.929 . S
C1070 Tb1041 2.764 1_565 S
C1070 O1054 1.239 . S
C1070 O1055 1.263 . S
C1070 C1064 1.504 . S
C1071 O1056 1.236 1_545 S
C1071 O1057 1.257 . S
H1072 C1045 0.932 . S
H1073 C1046 0.930 . S
H1074 C1047 0.932 . S
H1075 C1048 0.929 . S
H1076 C1066 0.932 . S
H1077 C1067 0.930 . S
H1078 C1068 0.932 . S
H1079 C1069 0.929 . S
Tb1080 C1089 2.764 . S
Tb1080 O1090 2.325 1_554 S
Tb1080 O1093 2.303 . S
Tb1080 O1097 2.322 . S
Tb1080 O1098 2.349 1_554 S
Tb1080 O1101 2.415 . S
Tb1080 O1102 2.399 . S
Tb1081 O1091 2.322 . S
Tb1081 O1092 2.349 . S
Tb1081 O1094 2.415 . S
Tb1081 O1095 2.399 . S
Tb1081 O1096 2.325 . S
Tb1081 O1099 2.303 . S
Tb1081 C1110 2.764 . S
C1082 O1098 1.261 . S
C1082 O1099 1.257 . S
C1083 C1086 1.358 . S
C1083 C1087 1.332 . S
C1083 C1089 1.504 . S
C1084 C1085 1.373 . S
C1084 C1088 1.308 . S
C1085 C1084 1.373 . S
C1085 C1086 1.429 . S
C1085 H1112 0.932 . S
C1086 C1083 1.358 . S
C1086 C1085 1.429 . S
C1086 H1113 0.930 . S
C1087 C1083 1.332 . S
C1087 C1088 1.394 . S
C1087 H1114 0.932 . S
C1088 C1084 1.308 . S
C1088 C1087 1.394 . S
C1088 H1115 0.929 . S
C1089 Tb1080 2.764 . S
C1089 C1083 1.504 . S
C1089 O1101 1.239 . S
C1089 O1102 1.263 . S
O1090 Tb1080 2.325 1_556 S
O1090 C1100 1.236 . S
O1091 Tb1081 2.322 . S
O1091 C1100 1.257 . S
O1092 Tb1081 2.349 . S
O1092 C1103 1.261 1_556 S
O1093 Tb1080 2.303 . S
O1093 C1103 1.257 . S
O1094 Tb1081 2.415 . S
O1094 C1110 1.239 . S
O1095 Tb1081 2.399 . S
O1095 C1110 1.263 . S
O1096 Tb1081 2.325 . S
O1096 C1111 1.236 . S
O1097 Tb1080 2.322 . S
O1097 C1111 1.257 1_554 S
O1098 Tb1080 2.349 1_556 S
O1098 C1082 1.261 . S
O1099 Tb1081 2.303 . S
O1099 C1082 1.257 . S
C1100 O1090 1.236 . S
C1100 O1091 1.257 . S
O1101 Tb1080 2.415 . S
O1101 C1089 1.239 . S
O1102 Tb1080 2.399 . S
O1102 C1089 1.263 . S
C1103 O1092 1.261 1_554 S
C1103 O1093 1.257 . S
C1104 C1107 1.358 . S
C1104 C1108 1.332 . S
C1104 C1110 1.504 . S
C1105 C1106 1.373 . S
C1105 C1109 1.308 . S
C1106 C1105 1.373 . S
C1106 C1107 1.429 . S
C1106 H1116 0.932 . S
C1107 C1104 1.358 . S
C1107 C1106 1.429 . S
C1107 H1117 0.930 . S
C1108 C1104 1.332 . S
C1108 C1109 1.394 . S
C1108 H1118 0.932 . S
C1109 C1105 1.308 . S
C1109 C1108 1.394 . S
C1109 H1119 0.929 . S
C1110 Tb1081 2.764 . S
C1110 O1094 1.239 . S
C1110 O1095 1.263 . S
C1110 C1104 1.504 . S
C1111 O1096 1.236 . S
C1111 O1097 1.257 1_556 S
H1112 C1085 0.932 . S
H1113 C1086 0.930 . S
H1114 C1087 0.932 . S
H1115 C1088 0.929 . S
H1116 C1106 0.932 . S
H1117 C1107 0.930 . S
H1118 C1108 0.932 . S
H1119 C1109 0.929 . S
Tb1120 C1129 2.764 . S
Tb1120 O1130 2.325 1_655 S
Tb1120 O1133 2.303 . S
Tb1120 O1137 2.322 . S
Tb1120 O1138 2.349 1_655 S
Tb1120 O1141 2.415 . S
Tb1120 O1142 2.399 . S
Tb1121 O1131 2.322 . S
Tb1121 O1132 2.349 . S
Tb1121 O1134 2.415 . S
Tb1121 O1135 2.399 . S
Tb1121 O1136 2.325 . S
Tb1121 O1139 2.303 . S
Tb1121 C1150 2.764 . S
C1122 O1138 1.261 . S
C1122 O1139 1.257 . S
C1123 C1126 1.358 . S
C1123 C1127 1.332 . S
C1123 C1129 1.504 . S
C1124 C1125 1.373 . S
C1124 C1128 1.308 . S
C1125 C1124 1.373 . S
C1125 C1126 1.429 . S
C1125 H1152 0.932 . S
C1126 C1123 1.358 . S
C1126 C1125 1.429 . S
C1126 H1153 0.930 . S
C1127 C1123 1.332 . S
C1127 C1128 1.394 . S
C1127 H1154 0.932 . S
C1128 C1124 1.308 . S
C1128 C1127 1.394 . S
C1128 H1155 0.929 . S
C1129 Tb1120 2.764 . S
C1129 C1123 1.504 . S
C1129 O1141 1.239 . S
C1129 O1142 1.263 . S
O1130 Tb1120 2.325 1_455 S
O1130 C1140 1.236 . S
O1131 Tb1121 2.322 . S
O1131 C1140 1.257 . S
O1132 Tb1121 2.349 . S
O1132 C1143 1.261 1_455 S
O1133 Tb1120 2.303 . S
O1133 C1143 1.257 . S
O1134 Tb1121 2.415 . S
O1134 C1150 1.239 . S
O1135 Tb1121 2.399 . S
O1135 C1150 1.263 . S
O1136 Tb1121 2.325 . S
O1136 C1151 1.236 1_455 S
O1137 Tb1120 2.322 . S
O1137 C1151 1.257 . S
O1138 Tb1120 2.349 1_455 S
O1138 C1122 1.261 . S
O1139 Tb1121 2.303 . S
O1139 C1122 1.257 . S
C1140 O1130 1.236 . S
C1140 O1131 1.257 . S
O1141 Tb1120 2.415 . S
O1141 C1129 1.239 . S
O1142 Tb1120 2.399 . S
O1142 C1129 1.263 . S
C1143 O1132 1.261 1_655 S
C1143 O1133 1.257 . S
C1144 C1147 1.358 . S
C1144 C1148 1.332 . S
C1144 C1150 1.504 . S
C1145 C1146 1.373 . S
C1145 C1149 1.308 . S
C1146 C1145 1.373 . S
C1146 C1147 1.429 . S
C1146 H1156 0.932 . S
C1147 C1144 1.358 . S
C1147 C1146 1.429 . S
C1147 H1157 0.930 . S
C1148 C1144 1.332 . S
C1148 C1149 1.394 . S
C1148 H1158 0.932 . S
C1149 C1145 1.308 . S
C1149 C1148 1.394 . S
C1149 H1159 0.929 . S
C1150 Tb1121 2.764 . S
C1150 O1134 1.239 . S
C1150 O1135 1.263 . S
C1150 C1144 1.504 . S
C1151 O1136 1.236 1_655 S
C1151 O1137 1.257 . S
H1152 C1125 0.932 . S
H1153 C1126 0.930 . S
H1154 C1127 0.932 . S
H1155 C1128 0.929 . S
H1156 C1146 0.932 . S
H1157 C1147 0.930 . S
H1158 C1148 0.932 . S
H1159 C1149 0.929 . S
Tb1160 C1169 2.764 . S
Tb1160 O1170 2.325 . S
Tb1160 O1173 2.303 . S
Tb1160 O1177 2.322 . S
Tb1160 O1178 2.349 . S
Tb1160 O1181 2.415 . S
Tb1160 O1182 2.399 . S
Tb1161 O1171 2.322 . S
Tb1161 O1172 2.349 . S
Tb1161 O1174 2.415 . S
Tb1161 O1175 2.399 . S
Tb1161 O1176 2.325 . S
Tb1161 O1179 2.303 . S
Tb1161 C1190 2.764 . S
C1162 O1178 1.261 . S
C1162 O1179 1.257 . S
C1163 C1166 1.358 . S
C1163 C1167 1.332 . S
C1163 C1169 1.504 . S
C1164 C1165 1.373 . S
C1164 C1168 1.308 . S
C1165 C1164 1.373 . S
C1165 C1166 1.429 . S
C1165 H1192 0.932 . S
C1166 C1163 1.358 . S
C1166 C1165 1.429 . S
C1166 H1193 0.930 . S
C1167 C1163 1.332 . S
C1167 C1168 1.394 . S
C1167 H1194 0.932 . S
C1168 C1164 1.308 . S
C1168 C1167 1.394 . S
C1168 H1195 0.929 . S
C1169 Tb1160 2.764 . S
C1169 C1163 1.504 . S
C1169 O1181 1.239 . S
C1169 O1182 1.263 . S
O1170 Tb1160 2.325 . S
O1170 C1180 1.236 . S
O1171 Tb1161 2.322 . S
O1171 C1180 1.257 . S
O1172 Tb1161 2.349 . S
O1172 C1183 1.261 . S
O1173 Tb1160 2.303 . S
O1173 C1183 1.257 . S
O1174 Tb1161 2.415 . S
O1174 C1190 1.239 . S
O1175 Tb1161 2.399 . S
O1175 C1190 1.263 . S
O1176 Tb1161 2.325 . S
O1176 C1191 1.236 . S
O1177 Tb1160 2.322 . S
O1177 C1191 1.257 . S
O1178 Tb1160 2.349 . S
O1178 C1162 1.261 . S
O1179 Tb1161 2.303 . S
O1179 C1162 1.257 . S
C1180 O1170 1.236 . S
C1180 O1171 1.257 . S
O1181 Tb1160 2.415 . S
O1181 C1169 1.239 . S
O1182 Tb1160 2.399 . S
O1182 C1169 1.263 . S
C1183 O1172 1.261 . S
C1183 O1173 1.257 . S
C1184 C1187 1.358 . S
C1184 C1188 1.332 . S
C1184 C1190 1.504 . S
C1185 C1186 1.373 . S
C1185 C1189 1.308 . S
C1186 C1185 1.373 . S
C1186 C1187 1.429 . S
C1186 H1196 0.932 . S
C1187 C1184 1.358 . S
C1187 C1186 1.429 . S
C1187 H1197 0.930 . S
C1188 C1184 1.332 . S
C1188 C1189 1.394 . S
C1188 H1198 0.932 . S
C1189 C1185 1.308 . S
C1189 C1188 1.394 . S
C1189 H1199 0.929 . S
C1190 Tb1161 2.764 . S
C1190 O1174 1.239 . S
C1190 O1175 1.263 . S
C1190 C1184 1.504 . S
C1191 O1176 1.236 . S
C1191 O1177 1.257 . S
H1192 C1165 0.932 . S
H1193 C1166 0.930 . S
H1194 C1167 0.932 . S
H1195 C1168 0.929 . S
H1196 C1186 0.932 . S
H1197 C1187 0.930 . S
H1198 C1188 0.932 . S
H1199 C1189 0.929 . S
Tb1200 C1209 2.764 . S
Tb1200 O1210 2.325 . S
Tb1200 O1213 2.303 . S
Tb1200 O1217 2.322 . S
Tb1200 O1218 2.349 . S
Tb1200 O1221 2.415 . S
Tb1200 O1222 2.399 . S
Tb1201 O1211 2.322 . S
Tb1201 O1212 2.349 . S
Tb1201 O1214 2.415 . S
Tb1201 O1215 2.399 . S
Tb1201 O1216 2.325 . S
Tb1201 O1219 2.303 . S
Tb1201 C1230 2.764 . S
C1202 O1218 1.261 . S
C1202 O1219 1.257 . S
C1203 C1206 1.358 . S
C1203 C1207 1.332 . S
C1203 C1209 1.504 . S
C1204 C1205 1.373 . S
C1204 C1208 1.308 . S
C1205 C1204 1.373 . S
C1205 C1206 1.429 . S
C1205 H1232 0.932 . S
C1206 C1203 1.358 . S
C1206 C1205 1.429 . S
C1206 H1233 0.930 . S
C1207 C1203 1.332 . S
C1207 C1208 1.394 . S
C1207 H1234 0.932 . S
C1208 C1204 1.308 . S
C1208 C1207 1.394 . S
C1208 H1235 0.929 . S
C1209 Tb1200 2.764 . S
C1209 C1203 1.504 . S
C1209 O1221 1.239 . S
C1209 O1222 1.263 . S
O1210 Tb1200 2.325 . S
O1210 C1220 1.236 . S
O1211 Tb1201 2.322 . S
O1211 C1220 1.257 . S
O1212 Tb1201 2.349 . S
O1212 C1223 1.261 . S
O1213 Tb1200 2.303 . S
O1213 C1223 1.257 . S
O1214 Tb1201 2.415 . S
O1214 C1230 1.239 . S
O1215 Tb1201 2.399 . S
O1215 C1230 1.263 . S
O1216 Tb1201 2.325 . S
O1216 C1231 1.236 . S
O1217 Tb1200 2.322 . S
O1217 C1231 1.257 . S
O1218 Tb1200 2.349 . S
O1218 C1202 1.261 . S
O1219 Tb1201 2.303 . S
O1219 C1202 1.257 . S
C1220 O1210 1.236 . S
C1220 O1211 1.257 . S
O1221 Tb1200 2.415 . S
O1221 C1209 1.239 . S
O1222 Tb1200 2.399 . S
O1222 C1209 1.263 . S
C1223 O1212 1.261 . S
C1223 O1213 1.257 . S
C1224 C1227 1.358 . S
C1224 C1228 1.332 . S
C1224 C1230 1.504 . S
C1225 C1226 1.373 . S
C1225 C1229 1.308 . S
C1226 C1225 1.373 . S
C1226 C1227 1.429 . S
C1226 H1236 0.932 . S
C1227 C1224 1.358 . S
C1227 C1226 1.429 . S
C1227 H1237 0.930 . S
C1228 C1224 1.332 . S
C1228 C1229 1.394 . S
C1228 H1238 0.932 . S
C1229 C1225 1.308 . S
C1229 C1228 1.394 . S
C1229 H1239 0.929 . S
C1230 Tb1201 2.764 . S
C1230 O1214 1.239 . S
C1230 O1215 1.263 . S
C1230 C1224 1.504 . S
C1231 O1216 1.236 . S
C1231 O1217 1.257 . S
H1232 C1205 0.932 . S
H1233 C1206 0.930 . S
H1234 C1207 0.932 . S
H1235 C1208 0.929 . S
H1236 C1226 0.932 . S
H1237 C1227 0.930 . S
H1238 C1228 0.932 . S
H1239 C1229 0.929 . S
Tb1240 C1249 2.764 . S
Tb1240 O1250 2.325 . S
Tb1240 O1253 2.303 1_455 S
Tb1240 O1257 2.322 1_455 S
Tb1240 O1258 2.349 . S
Tb1240 O1261 2.415 . S
Tb1240 O1262 2.399 . S
Tb1241 O1251 2.322 . S
Tb1241 O1252 2.349 . S
Tb1241 O1254 2.415 . S
Tb1241 O1255 2.399 . S
Tb1241 O1256 2.325 . S
Tb1241 O1259 2.303 . S
Tb1241 C1270 2.764 . S
C1242 O1258 1.261 . S
C1242 O1259 1.257 1_455 S
C1243 C1246 1.358 . S
C1243 C1247 1.332 . S
C1243 C1249 1.504 . S
C1244 C1245 1.373 . S
C1244 C1248 1.308 . S
C1245 C1244 1.373 . S
C1245 C1246 1.429 . S
C1245 H1272 0.932 . S
C1246 C1243 1.358 . S
C1246 C1245 1.429 . S
C1246 H1273 0.930 . S
C1247 C1243 1.332 . S
C1247 C1248 1.394 . S
C1247 H1274 0.932 . S
C1248 C1244 1.308 . S
C1248 C1247 1.394 . S
C1248 H1275 0.929 . S
C1249 Tb1240 2.764 . S
C1249 C1243 1.504 . S
C1249 O1261 1.239 . S
C1249 O1262 1.263 . S
O1250 Tb1240 2.325 . S
O1250 C1260 1.236 . S
O1251 Tb1241 2.322 . S
O1251 C1260 1.257 1_655 S
O1252 Tb1241 2.349 . S
O1252 C1263 1.261 . S
O1253 Tb1240 2.303 1_655 S
O1253 C1263 1.257 . S
O1254 Tb1241 2.415 . S
O1254 C1270 1.239 . S
O1255 Tb1241 2.399 . S
O1255 C1270 1.263 . S
O1256 Tb1241 2.325 . S
O1256 C1271 1.236 . S
O1257 Tb1240 2.322 1_655 S
O1257 C1271 1.257 . S
O1258 Tb1240 2.349 . S
O1258 C1242 1.261 . S
O1259 Tb1241 2.303 . S
O1259 C1242 1.257 1_655 S
C1260 O1250 1.236 . S
C1260 O1251 1.257 1_455 S
O1261 Tb1240 2.415 . S
O1261 C1249 1.239 . S
O1262 Tb1240 2.399 . S
O1262 C1249 1.263 . S
C1263 O1252 1.261 . S
C1263 O1253 1.257 . S
C1264 C1267 1.358 . S
C1264 C1268 1.332 . S
C1264 C1270 1.504 . S
C1265 C1266 1.373 . S
C1265 C1269 1.308 . S
C1266 C1265 1.373 . S
C1266 C1267 1.429 . S
C1266 H1276 0.932 . S
C1267 C1264 1.358 . S
C1267 C1266 1.429 . S
C1267 H1277 0.930 . S
C1268 C1264 1.332 . S
C1268 C1269 1.394 . S
C1268 H1278 0.932 . S
C1269 C1265 1.308 . S
C1269 C1268 1.394 . S
C1269 H1279 0.929 . S
C1270 Tb1241 2.764 . S
C1270 O1254 1.239 . S
C1270 O1255 1.263 . S
C1270 C1264 1.504 . S
C1271 O1256 1.236 . S
C1271 O1257 1.257 . S
H1272 C1245 0.932 . S
H1273 C1246 0.930 . S
H1274 C1247 0.932 . S
H1275 C1248 0.929 . S
H1276 C1266 0.932 . S
H1277 C1267 0.930 . S
H1278 C1268 0.932 . S
H1279 C1269 0.929 . S
Tb1280 C1289 2.764 . S
Tb1280 O1290 2.325 . S
Tb1280 O1293 2.303 . S
Tb1280 O1297 2.322 . S
Tb1280 O1298 2.349 . S
Tb1280 O1301 2.415 . S
Tb1280 O1302 2.399 . S
Tb1281 O1291 2.322 . S
Tb1281 O1292 2.349 . S
Tb1281 O1294 2.415 . S
Tb1281 O1295 2.399 . S
Tb1281 O1296 2.325 . S
Tb1281 O1299 2.303 . S
Tb1281 C1310 2.764 . S
C1282 O1298 1.261 . S
C1282 O1299 1.257 . S
C1283 C1286 1.358 . S
C1283 C1287 1.332 . S
C1283 C1289 1.504 . S
C1284 C1285 1.373 . S
C1284 C1288 1.308 . S
C1285 C1284 1.373 . S
C1285 C1286 1.429 . S
C1285 H1312 0.932 . S
C1286 C1283 1.358 . S
C1286 C1285 1.429 . S
C1286 H1313 0.930 . S
C1287 C1283 1.332 . S
C1287 C1288 1.394 . S
C1287 H1314 0.932 . S
C1288 C1284 1.308 . S
C1288 C1287 1.394 . S
C1288 H1315 0.929 . S
C1289 Tb1280 2.764 . S
C1289 C1283 1.504 . S
C1289 O1301 1.239 . S
C1289 O1302 1.263 . S
O1290 Tb1280 2.325 . S
O1290 C1300 1.236 . S
O1291 Tb1281 2.322 . S
O1291 C1300 1.257 . S
O1292 Tb1281 2.349 . S
O1292 C1303 1.261 . S
O1293 Tb1280 2.303 . S
O1293 C1303 1.257 . S
O1294 Tb1281 2.415 . S
O1294 C1310 1.239 . S
O1295 Tb1281 2.399 . S
O1295 C1310 1.263 . S
O1296 Tb1281 2.325 . S
O1296 C1311 1.236 . S
O1297 Tb1280 2.322 . S
O1297 C1311 1.257 . S
O1298 Tb1280 2.349 . S
O1298 C1282 1.261 . S
O1299 Tb1281 2.303 . S
O1299 C1282 1.257 . S
C1300 O1290 1.236 . S
C1300 O1291 1.257 . S
O1301 Tb1280 2.415 . S
O1301 C1289 1.239 . S
O1302 Tb1280 2.399 . S
O1302 C1289 1.263 . S
C1303 O1292 1.261 . S
C1303 O1293 1.257 . S
C1304 C1307 1.358 . S
C1304 C1308 1.332 . S
C1304 C1310 1.504 . S
C1305 C1306 1.373 . S
C1305 C1309 1.308 . S
C1306 C1305 1.373 . S
C1306 C1307 1.429 . S
C1306 H1316 0.932 . S
C1307 C1304 1.358 . S
C1307 C1306 1.429 . S
C1307 H1317 0.930 . S
C1308 C1304 1.332 . S
C1308 C1309 1.394 . S
C1308 H1318 0.932 . S
C1309 C1305 1.308 . S
C1309 C1308 1.394 . S
C1309 H1319 0.929 . S
C1310 Tb1281 2.764 . S
C1310 O1294 1.239 . S
C1310 O1295 1.263 . S
C1310 C1304 1.504 . S
C1311 O1296 1.236 . S
C1311 O1297 1.257 . S
H1312 C1285 0.932 . S
H1313 C1286 0.930 . S
H1314 C1287 0.932 . S
H1315 C1288 0.929 . S
H1316 C1306 0.932 . S
H1317 C1307 0.930 . S
H1318 C1308 0.932 . S
H1319 C1309 0.929 . S
Tb1320 C1329 2.764 . S
Tb1320 O1330 2.325 . S
Tb1320 O1333 2.303 . S
Tb1320 O1337 2.322 . S
Tb1320 O1338 2.349 . S
Tb1320 O1341 2.415 . S
Tb1320 O1342 2.399 . S
Tb1321 O1331 2.322 . S
Tb1321 O1332 2.349 . S
Tb1321 O1334 2.415 1_556 S
Tb1321 O1335 2.399 1_556 S
Tb1321 O1336 2.325 . S
Tb1321 O1339 2.303 . S
Tb1321 C1350 2.764 1_556 S
C1322 O1338 1.261 . S
C1322 O1339 1.257 . S
C1323 C1326 1.358 . S
C1323 C1327 1.332 . S
C1323 C1329 1.504 . S
C1324 C1325 1.373 . S
C1324 C1328 1.308 . S
C1325 C1324 1.373 . S
C1325 C1326 1.429 . S
C1325 H1352 0.932 . S
C1326 C1323 1.358 . S
C1326 C1325 1.429 . S
C1326 H1353 0.930 . S
C1327 C1323 1.332 . S
C1327 C1328 1.394 . S
C1327 H1354 0.932 . S
C1328 C1324 1.308 . S
C1328 C1327 1.394 . S
C1328 H1355 0.929 . S
C1329 Tb1320 2.764 . S
C1329 C1323 1.504 . S
C1329 O1341 1.239 . S
C1329 O1342 1.263 . S
O1330 Tb1320 2.325 . S
O1330 C1340 1.236 . S
O1331 Tb1321 2.322 . S
O1331 C1340 1.257 . S
O1332 Tb1321 2.349 . S
O1332 C1343 1.261 . S
O1333 Tb1320 2.303 . S
O1333 C1343 1.257 . S
O1334 Tb1321 2.415 1_554 S
O1334 C1350 1.239 . S
O1335 Tb1321 2.399 1_554 S
O1335 C1350 1.263 . S
O1336 Tb1321 2.325 . S
O1336 C1351 1.236 . S
O1337 Tb1320 2.322 . S
O1337 C1351 1.257 . S
O1338 Tb1320 2.349 . S
O1338 C1322 1.261 . S
O1339 Tb1321 2.303 . S
O1339 C1322 1.257 . S
C1340 O1330 1.236 . S
C1340 O1331 1.257 . S
O1341 Tb1320 2.415 . S
O1341 C1329 1.239 . S
O1342 Tb1320 2.399 . S
O1342 C1329 1.263 . S
C1343 O1332 1.261 . S
C1343 O1333 1.257 . S
C1344 C1347 1.358 . S
C1344 C1348 1.332 . S
C1344 C1350 1.504 . S
C1345 C1346 1.373 . S
C1345 C1349 1.308 . S
C1346 C1345 1.373 . S
C1346 C1347 1.429 . S
C1346 H1356 0.932 . S
C1347 C1344 1.358 . S
C1347 C1346 1.429 . S
C1347 H1357 0.930 . S
C1348 C1344 1.332 . S
C1348 C1349 1.394 . S
C1348 H1358 0.932 . S
C1349 C1345 1.308 . S
C1349 C1348 1.394 . S
C1349 H1359 0.929 . S
C1350 Tb1321 2.764 1_554 S
C1350 O1334 1.239 . S
C1350 O1335 1.263 . S
C1350 C1344 1.504 . S
C1351 O1336 1.236 . S
C1351 O1337 1.257 . S
H1352 C1325 0.932 . S
H1353 C1326 0.930 . S
H1354 C1327 0.932 . S
H1355 C1328 0.929 . S
H1356 C1346 0.932 . S
H1357 C1347 0.930 . S
H1358 C1348 0.932 . S
H1359 C1349 0.929 . S
Tb1360 C1369 2.764 . S
Tb1360 O1370 2.325 . S
Tb1360 O1373 2.303 . S
Tb1360 O1377 2.322 . S
Tb1360 O1378 2.349 . S
Tb1360 O1381 2.415 . S
Tb1360 O1382 2.399 . S
Tb1361 O1371 2.322 . S
Tb1361 O1372 2.349 . S
Tb1361 O1374 2.415 . S
Tb1361 O1375 2.399 . S
Tb1361 O1376 2.325 . S
Tb1361 O1379 2.303 . S
Tb1361 C1390 2.764 . S
C1362 O1378 1.261 . S
C1362 O1379 1.257 . S
C1363 C1366 1.358 . S
C1363 C1367 1.332 . S
C1363 C1369 1.504 . S
C1364 C1365 1.373 . S
C1364 C1368 1.308 . S
C1365 C1364 1.373 . S
C1365 C1366 1.429 . S
C1365 H1392 0.932 . S
C1366 C1363 1.358 . S
C1366 C1365 1.429 . S
C1366 H1393 0.930 . S
C1367 C1363 1.332 . S
C1367 C1368 1.394 . S
C1367 H1394 0.932 . S
C1368 C1364 1.308 . S
C1368 C1367 1.394 . S
C1368 H1395 0.929 . S
C1369 Tb1360 2.764 . S
C1369 C1363 1.504 . S
C1369 O1381 1.239 . S
C1369 O1382 1.263 . S
O1370 Tb1360 2.325 . S
O1370 C1380 1.236 . S
O1371 Tb1361 2.322 . S
O1371 C1380 1.257 . S
O1372 Tb1361 2.349 . S
O1372 C1383 1.261 . S
O1373 Tb1360 2.303 . S
O1373 C1383 1.257 . S
O1374 Tb1361 2.415 . S
O1374 C1390 1.239 . S
O1375 Tb1361 2.399 . S
O1375 C1390 1.263 . S
O1376 Tb1361 2.325 . S
O1376 C1391 1.236 . S
O1377 Tb1360 2.322 . S
O1377 C1391 1.257 . S
O1378 Tb1360 2.349 . S
O1378 C1362 1.261 . S
O1379 Tb1361 2.303 . S
O1379 C1362 1.257 . S
C1380 O1370 1.236 . S
C1380 O1371 1.257 . S
O1381 Tb1360 2.415 . S
O1381 C1369 1.239 . S
O1382 Tb1360 2.399 . S
O1382 C1369 1.263 . S
C1383 O1372 1.261 . S
C1383 O1373 1.257 . S
C1384 C1387 1.358 . S
C1384 C1388 1.332 . S
C1384 C1390 1.504 . S
C1385 C1386 1.373 . S
C1385 C1389 1.308 . S
C1386 C1385 1.373 . S
C1386 C1387 1.429 . S
C1386 H1396 0.932 . S
C1387 C1384 1.358 . S
C1387 C1386 1.429 . S
C1387 H1397 0.930 . S
C1388 C1384 1.332 . S
C1388 C1389 1.394 . S
C1388 H1398 0.932 . S
C1389 C1385 1.308 . S
C1389 C1388 1.394 . S
C1389 H1399 0.929 . S
C1390 Tb1361 2.764 . S
C1390 O1374 1.239 . S
C1390 O1375 1.263 . S
C1390 C1384 1.504 . S
C1391 O1376 1.236 . S
C1391 O1377 1.257 . S
H1392 C1365 0.932 . S
H1393 C1366 0.930 . S
H1394 C1367 0.932 . S
H1395 C1368 0.929 . S
H1396 C1386 0.932 . S
H1397 C1387 0.930 . S
H1398 C1388 0.932 . S
H1399 C1389 0.929 . S
Tb1400 C1409 2.764 . S
Tb1400 O1410 2.325 . S
Tb1400 O1413 2.303 . S
Tb1400 O1417 2.322 . S
Tb1400 O1418 2.349 . S
Tb1400 O1421 2.415 . S
Tb1400 O1422 2.399 . S
Tb1401 O1411 2.322 . S
Tb1401 O1412 2.349 . S
Tb1401 O1414 2.415 . S
Tb1401 O1415 2.399 . S
Tb1401 O1416 2.325 . S
Tb1401 O1419 2.303 . S
Tb1401 C1430 2.764 . S
C1402 O1418 1.261 . S
C1402 O1419 1.257 . S
C1403 C1406 1.358 . S
C1403 C1407 1.332 . S
C1403 C1409 1.504 . S
C1404 C1405 1.373 . S
C1404 C1408 1.308 . S
C1405 C1404 1.373 . S
C1405 C1406 1.429 . S
C1405 H1432 0.932 . S
C1406 C1403 1.358 . S
C1406 C1405 1.429 . S
C1406 H1433 0.930 . S
C1407 C1403 1.332 . S
C1407 C1408 1.394 . S
C1407 H1434 0.932 . S
C1408 C1404 1.308 . S
C1408 C1407 1.394 . S
C1408 H1435 0.929 . S
C1409 Tb1400 2.764 . S
C1409 C1403 1.504 . S
C1409 O1421 1.239 . S
C1409 O1422 1.263 . S
O1410 Tb1400 2.325 . S
O1410 C1420 1.236 . S
O1411 Tb1401 2.322 . S
O1411 C1420 1.257 . S
O1412 Tb1401 2.349 . S
O1412 C1423 1.261 . S
O1413 Tb1400 2.303 . S
O1413 C1423 1.257 . S
O1414 Tb1401 2.415 . S
O1414 C1430 1.239 . S
O1415 Tb1401 2.399 . S
O1415 C1430 1.263 . S
O1416 Tb1401 2.325 . S
O1416 C1431 1.236 . S
O1417 Tb1400 2.322 . S
O1417 C1431 1.257 . S
O1418 Tb1400 2.349 . S
O1418 C1402 1.261 . S
O1419 Tb1401 2.303 . S
O1419 C1402 1.257 . S
C1420 O1410 1.236 . S
C1420 O1411 1.257 . S
O1421 Tb1400 2.415 . S
O1421 C1409 1.239 . S
O1422 Tb1400 2.399 . S
O1422 C1409 1.263 . S
C1423 O1412 1.261 . S
C1423 O1413 1.257 . S
C1424 C1427 1.358 . S
C1424 C1428 1.332 . S
C1424 C1430 1.504 . S
C1425 C1426 1.373 . S
C1425 C1429 1.308 . S
C1426 C1425 1.373 . S
C1426 C1427 1.429 . S
C1426 H1436 0.932 . S
C1427 C1424 1.358 . S
C1427 C1426 1.429 . S
C1427 H1437 0.930 . S
C1428 C1424 1.332 . S
C1428 C1429 1.394 . S
C1428 H1438 0.932 . S
C1429 C1425 1.308 . S
C1429 C1428 1.394 . S
C1429 H1439 0.929 . S
C1430 Tb1401 2.764 . S
C1430 O1414 1.239 . S
C1430 O1415 1.263 . S
C1430 C1424 1.504 . S
C1431 O1416 1.236 . S
C1431 O1417 1.257 . S
H1432 C1405 0.932 . S
H1433 C1406 0.930 . S
H1434 C1407 0.932 . S
H1435 C1408 0.929 . S
H1436 C1426 0.932 . S
H1437 C1427 0.930 . S
H1438 C1428 0.932 . S
H1439 C1429 0.929 . S
Tb1440 C1449 2.764 . S
Tb1440 O1450 2.325 . S
Tb1440 O1453 2.303 . S
Tb1440 O1457 2.322 . S
Tb1440 O1458 2.349 . S
Tb1440 O1461 2.415 . S
Tb1440 O1462 2.399 . S
Tb1441 O1451 2.322 . S
Tb1441 O1452 2.349 . S
Tb1441 O1454 2.415 . S
Tb1441 O1455 2.399 . S
Tb1441 O1456 2.325 . S
Tb1441 O1459 2.303 . S
Tb1441 C1470 2.764 . S
C1442 O1458 1.261 . S
C1442 O1459 1.257 . S
C1443 C1446 1.358 . S
C1443 C1447 1.332 . S
C1443 C1449 1.504 . S
C1444 C1445 1.373 . S
C1444 C1448 1.308 . S
C1445 C1444 1.373 . S
C1445 C1446 1.429 . S
C1445 H1472 0.932 . S
C1446 C1443 1.358 . S
C1446 C1445 1.429 . S
C1446 H1473 0.930 . S
C1447 C1443 1.332 . S
C1447 C1448 1.394 . S
C1447 H1474 0.932 . S
C1448 C1444 1.308 . S
C1448 C1447 1.394 . S
C1448 H1475 0.929 . S
C1449 Tb1440 2.764 . S
C1449 C1443 1.504 . S
C1449 O1461 1.239 . S
C1449 O1462 1.263 . S
O1450 Tb1440 2.325 . S
O1450 C1460 1.236 . S
O1451 Tb1441 2.322 . S
O1451 C1460 1.257 . S
O1452 Tb1441 2.349 . S
O1452 C1463 1.261 . S
O1453 Tb1440 2.303 . S
O1453 C1463 1.257 . S
O1454 Tb1441 2.415 . S
O1454 C1470 1.239 . S
O1455 Tb1441 2.399 . S
O1455 C1470 1.263 . S
O1456 Tb1441 2.325 . S
O1456 C1471 1.236 . S
O1457 Tb1440 2.322 . S
O1457 C1471 1.257 . S
O1458 Tb1440 2.349 . S
O1458 C1442 1.261 . S
O1459 Tb1441 2.303 . S
O1459 C1442 1.257 . S
C1460 O1450 1.236 . S
C1460 O1451 1.257 . S
O1461 Tb1440 2.415 . S
O1461 C1449 1.239 . S
O1462 Tb1440 2.399 . S
O1462 C1449 1.263 . S
C1463 O1452 1.261 . S
C1463 O1453 1.257 . S
C1464 C1467 1.358 . S
C1464 C1468 1.332 . S
C1464 C1470 1.504 . S
C1465 C1466 1.373 . S
C1465 C1469 1.308 . S
C1466 C1465 1.373 . S
C1466 C1467 1.429 . S
C1466 H1476 0.932 . S
C1467 C1464 1.358 . S
C1467 C1466 1.429 . S
C1467 H1477 0.930 . S
C1468 C1464 1.332 . S
C1468 C1469 1.394 . S
C1468 H1478 0.932 . S
C1469 C1465 1.308 . S
C1469 C1468 1.394 . S
C1469 H1479 0.929 . S
C1470 Tb1441 2.764 . S
C1470 O1454 1.239 . S
C1470 O1455 1.263 . S
C1470 C1464 1.504 . S
C1471 O1456 1.236 . S
C1471 O1457 1.257 . S
H1472 C1445 0.932 . S
H1473 C1446 0.930 . S
H1474 C1447 0.932 . S
H1475 C1448 0.929 . S
H1476 C1466 0.932 . S
H1477 C1467 0.930 . S
H1478 C1468 0.932 . S
H1479 C1469 0.929 . S
Tb1480 C1489 2.764 . S
Tb1480 O1490 2.325 . S
Tb1480 O1493 2.303 . S
Tb1480 O1497 2.322 . S
Tb1480 O1498 2.349 . S
Tb1480 O1501 2.415 . S
Tb1480 O1502 2.399 . S
Tb1481 O1491 2.322 . S
Tb1481 O1492 2.349 . S
Tb1481 O1494 2.415 . S
Tb1481 O1495 2.399 . S
Tb1481 O1496 2.325 . S
Tb1481 O1499 2.303 . S
Tb1481 C1510 2.764 . S
C1482 O1498 1.261 . S
C1482 O1499 1.257 . S
C1483 C1486 1.358 . S
C1483 C1487 1.332 . S
C1483 C1489 1.504 . S
C1484 C1485 1.373 . S
C1484 C1488 1.308 . S
C1485 C1484 1.373 . S
C1485 C1486 1.429 . S
C1485 H1512 0.932 . S
C1486 C1483 1.358 . S
C1486 C1485 1.429 . S
C1486 H1513 0.930 . S
C1487 C1483 1.332 . S
C1487 C1488 1.394 . S
C1487 H1514 0.932 . S
C1488 C1484 1.308 . S
C1488 C1487 1.394 . S
C1488 H1515 0.929 . S
C1489 Tb1480 2.764 . S
C1489 C1483 1.504 . S
C1489 O1501 1.239 . S
C1489 O1502 1.263 . S
O1490 Tb1480 2.325 . S
O1490 C1500 1.236 . S
O1491 Tb1481 2.322 . S
O1491 C1500 1.257 . S
O1492 Tb1481 2.349 . S
O1492 C1503 1.261 . S
O1493 Tb1480 2.303 . S
O1493 C1503 1.257 . S
O1494 Tb1481 2.415 . S
O1494 C1510 1.239 . S
O1495 Tb1481 2.399 . S
O1495 C1510 1.263 . S
O1496 Tb1481 2.325 . S
O1496 C1511 1.236 . S
O1497 Tb1480 2.322 . S
O1497 C1511 1.257 . S
O1498 Tb1480 2.349 . S
O1498 C1482 1.261 . S
O1499 Tb1481 2.303 . S
O1499 C1482 1.257 . S
C1500 O1490 1.236 . S
C1500 O1491 1.257 . S
O1501 Tb1480 2.415 . S
O1501 C1489 1.239 . S
O1502 Tb1480 2.399 . S
O1502 C1489 1.263 . S
C1503 O1492 1.261 . S
C1503 O1493 1.257 . S
C1504 C1507 1.358 . S
C1504 C1508 1.332 . S
C1504 C1510 1.504 . S
C1505 C1506 1.373 . S
C1505 C1509 1.308 . S
C1506 C1505 1.373 . S
C1506 C1507 1.429 . S
C1506 H1516 0.932 . S
C1507 C1504 1.358 . S
C1507 C1506 1.429 . S
C1507 H1517 0.930 . S
C1508 C1504 1.332 . S
C1508 C1509 1.394 . S
C1508 H1518 0.932 . S
C1509 C1505 1.308 . S
C1509 C1508 1.394 . S
C1509 H1519 0.929 . S
C1510 Tb1481 2.764 . S
C1510 O1494 1.239 . S
C1510 O1495 1.263 . S
C1510 C1504 1.504 . S
C1511 O1496 1.236 . S
C1511 O1497 1.257 . S
H1512 C1485 0.932 . S
H1513 C1486 0.930 . S
H1514 C1487 0.932 . S
H1515 C1488 0.929 . S
H1516 C1506 0.932 . S
H1517 C1507 0.930 . S
H1518 C1508 0.932 . S
H1519 C1509 0.929 . S
Tb1520 C1529 2.764 . S
Tb1520 O1530 2.325 . S
Tb1520 O1533 2.303 . S
Tb1520 O1537 2.322 . S
Tb1520 O1538 2.349 . S
Tb1520 O1541 2.415 . S
Tb1520 O1542 2.399 . S
Tb1521 O1531 2.322 . S
Tb1521 O1532 2.349 . S
Tb1521 O1534 2.415 . S
Tb1521 O1535 2.399 . S
Tb1521 O1536 2.325 . S
Tb1521 O1539 2.303 . S
Tb1521 C1550 2.764 . S
C1522 O1538 1.261 . S
C1522 O1539 1.257 . S
C1523 C1526 1.358 . S
C1523 C1527 1.332 . S
C1523 C1529 1.504 . S
C1524 C1525 1.373 . S
C1524 C1528 1.308 . S
C1525 C1524 1.373 . S
C1525 C1526 1.429 . S
C1525 H1552 0.932 . S
C1526 C1523 1.358 . S
C1526 C1525 1.429 . S
C1526 H1553 0.930 . S
C1527 C1523 1.332 . S
C1527 C1528 1.394 . S
C1527 H1554 0.932 . S
C1528 C1524 1.308 . S
C1528 C1527 1.394 . S
C1528 H1555 0.929 . S
C1529 Tb1520 2.764 . S
C1529 C1523 1.504 . S
C1529 O1541 1.239 . S
C1529 O1542 1.263 . S
O1530 Tb1520 2.325 . S
O1530 C1540 1.236 . S
O1531 Tb1521 2.322 . S
O1531 C1540 1.257 . S
O1532 Tb1521 2.349 . S
O1532 C1543 1.261 . S
O1533 Tb1520 2.303 . S
O1533 C1543 1.257 . S
O1534 Tb1521 2.415 . S
O1534 C1550 1.239 . S
O1535 Tb1521 2.399 . S
O1535 C1550 1.263 . S
O1536 Tb1521 2.325 . S
O1536 C1551 1.236 . S
O1537 Tb1520 2.322 . S
O1537 C1551 1.257 . S
O1538 Tb1520 2.349 . S
O1538 C1522 1.261 . S
O1539 Tb1521 2.303 . S
O1539 C1522 1.257 . S
C1540 O1530 1.236 . S
C1540 O1531 1.257 . S
O1541 Tb1520 2.415 . S
O1541 C1529 1.239 . S
O1542 Tb1520 2.399 . S
O1542 C1529 1.263 . S
C1543 O1532 1.261 . S
C1543 O1533 1.257 . S
C1544 C1547 1.358 . S
C1544 C1548 1.332 . S
C1544 C1550 1.504 . S
C1545 C1546 1.373 . S
C1545 C1549 1.308 . S
C1546 C1545 1.373 . S
C1546 C1547 1.429 . S
C1546 H1556 0.932 . S
C1547 C1544 1.358 . S
C1547 C1546 1.429 . S
C1547 H1557 0.930 . S
C1548 C1544 1.332 . S
C1548 C1549 1.394 . S
C1548 H1558 0.932 . S
C1549 C1545 1.308 . S
C1549 C1548 1.394 . S
C1549 H1559 0.929 . S
C1550 Tb1521 2.764 . S
C1550 O1534 1.239 . S
C1550 O1535 1.263 . S
C1550 C1544 1.504 . S
C1551 O1536 1.236 . S
C1551 O1537 1.257 . S
H1552 C1525 0.932 . S
H1553 C1526 0.930 . S
H1554 C1527 0.932 . S
H1555 C1528 0.929 . S
H1556 C1546 0.932 . S
H1557 C1547 0.930 . S
H1558 C1548 0.932 . S
H1559 C1549 0.929 . S
Tb1560 C1569 2.764 . S
Tb1560 O1570 2.325 . S
Tb1560 O1573 2.303 . S
Tb1560 O1577 2.322 . S
Tb1560 O1578 2.349 . S
Tb1560 O1581 2.415 . S
Tb1560 O1582 2.399 . S
Tb1561 O1571 2.322 . S
Tb1561 O1572 2.349 . S
Tb1561 O1574 2.415 . S
Tb1561 O1575 2.399 . S
Tb1561 O1576 2.325 . S
Tb1561 O1579 2.303 . S
Tb1561 C1590 2.764 . S
C1562 O1578 1.261 . S
C1562 O1579 1.257 . S
C1563 C1566 1.358 . S
C1563 C1567 1.332 . S
C1563 C1569 1.504 . S
C1564 C1565 1.373 . S
C1564 C1568 1.308 . S
C1565 C1564 1.373 . S
C1565 C1566 1.429 . S
C1565 H1592 0.932 . S
C1566 C1563 1.358 . S
C1566 C1565 1.429 . S
C1566 H1593 0.930 . S
C1567 C1563 1.332 . S
C1567 C1568 1.394 . S
C1567 H1594 0.932 . S
C1568 C1564 1.308 . S
C1568 C1567 1.394 . S
C1568 H1595 0.929 . S
C1569 Tb1560 2.764 . S
C1569 C1563 1.504 . S
C1569 O1581 1.239 . S
C1569 O1582 1.263 . S
O1570 Tb1560 2.325 . S
O1570 C1580 1.236 . S
O1571 Tb1561 2.322 . S
O1571 C1580 1.257 . S
O1572 Tb1561 2.349 . S
O1572 C1583 1.261 . S
O1573 Tb1560 2.303 . S
O1573 C1583 1.257 . S
O1574 Tb1561 2.415 . S
O1574 C1590 1.239 . S
O1575 Tb1561 2.399 . S
O1575 C1590 1.263 . S
O1576 Tb1561 2.325 . S
O1576 C1591 1.236 . S
O1577 Tb1560 2.322 . S
O1577 C1591 1.257 . S
O1578 Tb1560 2.349 . S
O1578 C1562 1.261 . S
O1579 Tb1561 2.303 . S
O1579 C1562 1.257 . S
C1580 O1570 1.236 . S
C1580 O1571 1.257 . S
O1581 Tb1560 2.415 . S
O1581 C1569 1.239 . S
O1582 Tb1560 2.399 . S
O1582 C1569 1.263 . S
C1583 O1572 1.261 . S
C1583 O1573 1.257 . S
C1584 C1587 1.358 . S
C1584 C1588 1.332 . S
C1584 C1590 1.504 . S
C1585 C1586 1.373 . S
C1585 C1589 1.308 . S
C1586 C1585 1.373 . S
C1586 C1587 1.429 . S
C1586 H1596 0.932 . S
C1587 C1584 1.358 . S
C1587 C1586 1.429 . S
C1587 H1597 0.930 . S
C1588 C1584 1.332 . S
C1588 C1589 1.394 . S
C1588 H1598 0.932 . S
C1589 C1585 1.308 . S
C1589 C1588 1.394 . S
C1589 H1599 0.929 . S
C1590 Tb1561 2.764 . S
C1590 O1574 1.239 . S
C1590 O1575 1.263 . S
C1590 C1584 1.504 . S
C1591 O1576 1.236 . S
C1591 O1577 1.257 . S
H1592 C1565 0.932 . S
H1593 C1566 0.930 . S
H1594 C1567 0.932 . S
H1595 C1568 0.929 . S
H1596 C1586 0.932 . S
H1597 C1587 0.930 . S
H1598 C1588 0.932 . S
H1599 C1589 0.929 . S
Tb1600 C1609 2.764 . S
Tb1600 O1610 2.325 . S
Tb1600 O1613 2.303 . S
Tb1600 O1617 2.322 . S
Tb1600 O1618 2.349 . S
Tb1600 O1621 2.415 . S
Tb1600 O1622 2.399 . S
Tb1601 O1611 2.322 1_655 S
Tb1601 O1612 2.349 . S
Tb1601 O1614 2.415 . S
Tb1601 O1615 2.399 . S
Tb1601 O1616 2.325 . S
Tb1601 O1619 2.303 1_655 S
Tb1601 C1630 2.764 . S
C1602 O1618 1.261 . S
C1602 O1619 1.257 . S
C1603 C1606 1.358 . S
C1603 C1607 1.332 . S
C1603 C1609 1.504 . S
C1604 C1605 1.373 . S
C1604 C1608 1.308 . S
C1605 C1604 1.373 . S
C1605 C1606 1.429 . S
C1605 H1632 0.932 . S
C1606 C1603 1.358 . S
C1606 C1605 1.429 . S
C1606 H1633 0.930 . S
C1607 C1603 1.332 . S
C1607 C1608 1.394 . S
C1607 H1634 0.932 . S
C1608 C1604 1.308 . S
C1608 C1607 1.394 . S
C1608 H1635 0.929 . S
C1609 Tb1600 2.764 . S
C1609 C1603 1.504 . S
C1609 O1621 1.239 . S
C1609 O1622 1.263 . S
O1610 Tb1600 2.325 . S
O1610 C1620 1.236 . S
O1611 Tb1601 2.322 1_455 S
O1611 C1620 1.257 . S
O1612 Tb1601 2.349 . S
O1612 C1623 1.261 . S
O1613 Tb1600 2.303 . S
O1613 C1623 1.257 1_455 S
O1614 Tb1601 2.415 . S
O1614 C1630 1.239 . S
O1615 Tb1601 2.399 . S
O1615 C1630 1.263 . S
O1616 Tb1601 2.325 . S
O1616 C1631 1.236 . S
O1617 Tb1600 2.322 . S
O1617 C1631 1.257 1_455 S
O1618 Tb1600 2.349 . S
O1618 C1602 1.261 . S
O1619 Tb1601 2.303 1_455 S
O1619 C1602 1.257 . S
C1620 O1610 1.236 . S
C1620 O1611 1.257 . S
O1621 Tb1600 2.415 . S
O1621 C1609 1.239 . S
O1622 Tb1600 2.399 . S
O1622 C1609 1.263 . S
C1623 O1612 1.261 . S
C1623 O1613 1.257 1_655 S
C1624 C1627 1.358 . S
C1624 C1628 1.332 . S
C1624 C1630 1.504 . S
C1625 C1626 1.373 . S
C1625 C1629 1.308 . S
C1626 C1625 1.373 . S
C1626 C1627 1.429 . S
C1626 H1636 0.932 . S
C1627 C1624 1.358 . S
C1627 C1626 1.429 . S
C1627 H1637 0.930 . S
C1628 C1624 1.332 . S
C1628 C1629 1.394 . S
C1628 H1638 0.932 . S
C1629 C1625 1.308 . S
C1629 C1628 1.394 . S
C1629 H1639 0.929 . S
C1630 Tb1601 2.764 . S
C1630 O1614 1.239 . S
C1630 O1615 1.263 . S
C1630 C1624 1.504 . S
C1631 O1616 1.236 . S
C1631 O1617 1.257 1_655 S
H1632 C1605 0.932 . S
H1633 C1606 0.930 . S
H1634 C1607 0.932 . S
H1635 C1608 0.929 . S
H1636 C1626 0.932 . S
H1637 C1627 0.930 . S
H1638 C1628 0.932 . S
H1639 C1629 0.929 . S
Tb1640 C1649 2.764 . S
Tb1640 O1650 2.325 . S
Tb1640 O1653 2.303 . S
Tb1640 O1657 2.322 . S
Tb1640 O1658 2.349 . S
Tb1640 O1661 2.415 . S
Tb1640 O1662 2.399 . S
Tb1641 O1651 2.322 . S
Tb1641 O1652 2.349 . S
Tb1641 O1654 2.415 . S
Tb1641 O1655 2.399 . S
Tb1641 O1656 2.325 . S
Tb1641 O1659 2.303 . S
Tb1641 C1670 2.764 . S
C1642 O1658 1.261 . S
C1642 O1659 1.257 . S
C1643 C1646 1.358 . S
C1643 C1647 1.332 . S
C1643 C1649 1.504 . S
C1644 C1645 1.373 . S
C1644 C1648 1.308 . S
C1645 C1644 1.373 . S
C1645 C1646 1.429 . S
C1645 H1672 0.932 . S
C1646 C1643 1.358 . S
C1646 C1645 1.429 . S
C1646 H1673 0.930 . S
C1647 C1643 1.332 . S
C1647 C1648 1.394 . S
C1647 H1674 0.932 . S
C1648 C1644 1.308 . S
C1648 C1647 1.394 . S
C1648 H1675 0.929 . S
C1649 Tb1640 2.764 . S
C1649 C1643 1.504 . S
C1649 O1661 1.239 . S
C1649 O1662 1.263 . S
O1650 Tb1640 2.325 . S
O1650 C1660 1.236 . S
O1651 Tb1641 2.322 . S
O1651 C1660 1.257 . S
O1652 Tb1641 2.349 . S
O1652 C1663 1.261 . S
O1653 Tb1640 2.303 . S
O1653 C1663 1.257 . S
O1654 Tb1641 2.415 . S
O1654 C1670 1.239 . S
O1655 Tb1641 2.399 . S
O1655 C1670 1.263 . S
O1656 Tb1641 2.325 . S
O1656 C1671 1.236 . S
O1657 Tb1640 2.322 . S
O1657 C1671 1.257 . S
O1658 Tb1640 2.349 . S
O1658 C1642 1.261 . S
O1659 Tb1641 2.303 . S
O1659 C1642 1.257 . S
C1660 O1650 1.236 . S
C1660 O1651 1.257 . S
O1661 Tb1640 2.415 . S
O1661 C1649 1.239 . S
O1662 Tb1640 2.399 . S
O1662 C1649 1.263 . S
C1663 O1652 1.261 . S
C1663 O1653 1.257 . S
C1664 C1667 1.358 . S
C1664 C1668 1.332 . S
C1664 C1670 1.504 . S
C1665 C1666 1.373 . S
C1665 C1669 1.308 . S
C1666 C1665 1.373 . S
C1666 C1667 1.429 . S
C1666 H1676 0.932 . S
C1667 C1664 1.358 . S
C1667 C1666 1.429 . S
C1667 H1677 0.930 . S
C1668 C1664 1.332 . S
C1668 C1669 1.394 . S
C1668 H1678 0.932 . S
C1669 C1665 1.308 . S
C1669 C1668 1.394 . S
C1669 H1679 0.929 . S
C1670 Tb1641 2.764 . S
C1670 O1654 1.239 . S
C1670 O1655 1.263 . S
C1670 C1664 1.504 . S
C1671 O1656 1.236 . S
C1671 O1657 1.257 . S
H1672 C1645 0.932 . S
H1673 C1646 0.930 . S
H1674 C1647 0.932 . S
H1675 C1648 0.929 . S
H1676 C1666 0.932 . S
H1677 C1667 0.930 . S
H1678 C1668 0.932 . S
H1679 C1669 0.929 . S
Tb1680 C1689 2.764 1_554 S
Tb1680 O1690 2.325 . S
Tb1680 O1693 2.303 . S
Tb1680 O1697 2.322 . S
Tb1680 O1698 2.349 . S
Tb1680 O1701 2.415 1_554 S
Tb1680 O1702 2.399 1_554 S
Tb1681 O1691 2.322 . S
Tb1681 O1692 2.349 . S
Tb1681 O1694 2.415 . S
Tb1681 O1695 2.399 . S
Tb1681 O1696 2.325 . S
Tb1681 O1699 2.303 . S
Tb1681 C1710 2.764 . S
C1682 O1698 1.261 . S
C1682 O1699 1.257 . S
C1683 C1686 1.358 . S
C1683 C1687 1.332 . S
C1683 C1689 1.504 . S
C1684 C1685 1.373 . S
C1684 C1688 1.308 . S
C1685 C1684 1.373 . S
C1685 C1686 1.429 . S
C1685 H1712 0.932 . S
C1686 C1683 1.358 . S
C1686 C1685 1.429 . S
C1686 H1713 0.930 . S
C1687 C1683 1.332 . S
C1687 C1688 1.394 . S
C1687 H1714 0.932 . S
C1688 C1684 1.308 . S
C1688 C1687 1.394 . S
C1688 H1715 0.929 . S
C1689 Tb1680 2.764 1_556 S
C1689 C1683 1.504 . S
C1689 O1701 1.239 . S
C1689 O1702 1.263 . S
O1690 Tb1680 2.325 . S
O1690 C1700 1.236 . S
O1691 Tb1681 2.322 . S
O1691 C1700 1.257 . S
O1692 Tb1681 2.349 . S
O1692 C1703 1.261 . S
O1693 Tb1680 2.303 . S
O1693 C1703 1.257 . S
O1694 Tb1681 2.415 . S
O1694 C1710 1.239 . S
O1695 Tb1681 2.399 . S
O1695 C1710 1.263 . S
O1696 Tb1681 2.325 . S
O1696 C1711 1.236 . S
O1697 Tb1680 2.322 . S
O1697 C1711 1.257 . S
O1698 Tb1680 2.349 . S
O1698 C1682 1.261 . S
O1699 Tb1681 2.303 . S
O1699 C1682 1.257 . S
C1700 O1690 1.236 . S
C1700 O1691 1.257 . S
O1701 Tb1680 2.415 1_556 S
O1701 C1689 1.239 . S
O1702 Tb1680 2.399 1_556 S
O1702 C1689 1.263 . S
C1703 O1692 1.261 . S
C1703 O1693 1.257 . S
C1704 C1707 1.358 . S
C1704 C1708 1.332 . S
C1704 C1710 1.504 . S
C1705 C1706 1.373 . S
C1705 C1709 1.308 . S
C1706 C1705 1.373 . S
C1706 C1707 1.429 . S
C1706 H1716 0.932 . S
C1707 C1704 1.358 . S
C1707 C1706 1.429 . S
C1707 H1717 0.930 . S
C1708 C1704 1.332 . S
C1708 C1709 1.394 . S
C1708 H1718 0.932 . S
C1709 C1705 1.308 . S
C1709 C1708 1.394 . S
C1709 H1719 0.929 . S
C1710 Tb1681 2.764 . S
C1710 O1694 1.239 . S
C1710 O1695 1.263 . S
C1710 C1704 1.504 . S
C1711 O1696 1.236 . S
C1711 O1697 1.257 . S
H1712 C1685 0.932 . S
H1713 C1686 0.930 . S
H1714 C1687 0.932 . S
H1715 C1688 0.929 . S
H1716 C1706 0.932 . S
H1717 C1707 0.930 . S
H1718 C1708 0.932 . S
H1719 C1709 0.929 . S
Tb1720 C1729 2.764 . S
Tb1720 O1730 2.325 . S
Tb1720 O1733 2.303 . S
Tb1720 O1737 2.322 . S
Tb1720 O1738 2.349 . S
Tb1720 O1741 2.415 . S
Tb1720 O1742 2.399 . S
Tb1721 O1731 2.322 . S
Tb1721 O1732 2.349 . S
Tb1721 O1734 2.415 . S
Tb1721 O1735 2.399 . S
Tb1721 O1736 2.325 . S
Tb1721 O1739 2.303 . S
Tb1721 C1750 2.764 . S
C1722 O1738 1.261 . S
C1722 O1739 1.257 . S
C1723 C1726 1.358 . S
C1723 C1727 1.332 . S
C1723 C1729 1.504 . S
C1724 C1725 1.373 . S
C1724 C1728 1.308 . S
C1725 C1724 1.373 . S
C1725 C1726 1.429 . S
C1725 H1752 0.932 . S
C1726 C1723 1.358 . S
C1726 C1725 1.429 . S
C1726 H1753 0.930 . S
C1727 C1723 1.332 . S
C1727 C1728 1.394 . S
C1727 H1754 0.932 . S
C1728 C1724 1.308 . S
C1728 C1727 1.394 . S
C1728 H1755 0.929 . S
C1729 Tb1720 2.764 . S
C1729 C1723 1.504 . S
C1729 O1741 1.239 . S
C1729 O1742 1.263 . S
O1730 Tb1720 2.325 . S
O1730 C1740 1.236 . S
O1731 Tb1721 2.322 . S
O1731 C1740 1.257 . S
O1732 Tb1721 2.349 . S
O1732 C1743 1.261 . S
O1733 Tb1720 2.303 . S
O1733 C1743 1.257 . S
O1734 Tb1721 2.415 . S
O1734 C1750 1.239 . S
O1735 Tb1721 2.399 . S
O1735 C1750 1.263 . S
O1736 Tb1721 2.325 . S
O1736 C1751 1.236 . S
O1737 Tb1720 2.322 . S
O1737 C1751 1.257 . S
O1738 Tb1720 2.349 . S
O1738 C1722 1.261 . S
O1739 Tb1721 2.303 . S
O1739 C1722 1.257 . S
C1740 O1730 1.236 . S
C1740 O1731 1.257 . S
O1741 Tb1720 2.415 . S
O1741 C1729 1.239 . S
O1742 Tb1720 2.399 . S
O1742 C1729 1.263 . S
C1743 O1732 1.261 . S
C1743 O1733 1.257 . S
C1744 C1747 1.358 . S
C1744 C1748 1.332 . S
C1744 C1750 1.504 . S
C1745 C1746 1.373 . S
C1745 C1749 1.308 . S
C1746 C1745 1.373 . S
C1746 C1747 1.429 . S
C1746 H1756 0.932 . S
C1747 C1744 1.358 . S
C1747 C1746 1.429 . S
C1747 H1757 0.930 . S
C1748 C1744 1.332 . S
C1748 C1749 1.394 . S
C1748 H1758 0.932 . S
C1749 C1745 1.308 . S
C1749 C1748 1.394 . S
C1749 H1759 0.929 . S
C1750 Tb1721 2.764 . S
C1750 O1734 1.239 . S
C1750 O1735 1.263 . S
C1750 C1744 1.504 . S
C1751 O1736 1.236 . S
C1751 O1737 1.257 . S
H1752 C1725 0.932 . S
H1753 C1726 0.930 . S
H1754 C1727 0.932 . S
H1755 C1728 0.929 . S
H1756 C1746 0.932 . S
H1757 C1747 0.930 . S
H1758 C1748 0.932 . S
H1759 C1749 0.929 . S
Tb1760 C1769 2.764 . S
Tb1760 O1770 2.325 . S
Tb1760 O1773 2.303 . S
Tb1760 O1777 2.322 . S
Tb1760 O1778 2.349 . S
Tb1760 O1781 2.415 . S
Tb1760 O1782 2.399 . S
Tb1761 O1771 2.322 . S
Tb1761 O1772 2.349 . S
Tb1761 O1774 2.415 . S
Tb1761 O1775 2.399 . S
Tb1761 O1776 2.325 . S
Tb1761 O1779 2.303 . S
Tb1761 C1790 2.764 . S
C1762 O1778 1.261 . S
C1762 O1779 1.257 . S
C1763 C1766 1.358 . S
C1763 C1767 1.332 . S
C1763 C1769 1.504 . S
C1764 C1765 1.373 . S
C1764 C1768 1.308 . S
C1765 C1764 1.373 . S
C1765 C1766 1.429 . S
C1765 H1792 0.932 . S
C1766 C1763 1.358 . S
C1766 C1765 1.429 . S
C1766 H1793 0.930 . S
C1767 C1763 1.332 . S
C1767 C1768 1.394 . S
C1767 H1794 0.932 . S
C1768 C1764 1.308 . S
C1768 C1767 1.394 . S
C1768 H1795 0.929 . S
C1769 Tb1760 2.764 . S
C1769 C1763 1.504 . S
C1769 O1781 1.239 . S
C1769 O1782 1.263 . S
O1770 Tb1760 2.325 . S
O1770 C1780 1.236 . S
O1771 Tb1761 2.322 . S
O1771 C1780 1.257 . S
O1772 Tb1761 2.349 . S
O1772 C1783 1.261 . S
O1773 Tb1760 2.303 . S
O1773 C1783 1.257 . S
O1774 Tb1761 2.415 . S
O1774 C1790 1.239 . S
O1775 Tb1761 2.399 . S
O1775 C1790 1.263 . S
O1776 Tb1761 2.325 . S
O1776 C1791 1.236 . S
O1777 Tb1760 2.322 . S
O1777 C1791 1.257 . S
O1778 Tb1760 2.349 . S
O1778 C1762 1.261 . S
O1779 Tb1761 2.303 . S
O1779 C1762 1.257 . S
C1780 O1770 1.236 . S
C1780 O1771 1.257 . S
O1781 Tb1760 2.415 . S
O1781 C1769 1.239 . S
O1782 Tb1760 2.399 . S
O1782 C1769 1.263 . S
C1783 O1772 1.261 . S
C1783 O1773 1.257 . S
C1784 C1787 1.358 . S
C1784 C1788 1.332 . S
C1784 C1790 1.504 . S
C1785 C1786 1.373 . S
C1785 C1789 1.308 . S
C1786 C1785 1.373 . S
C1786 C1787 1.429 . S
C1786 H1796 0.932 . S
C1787 C1784 1.358 . S
C1787 C1786 1.429 . S
C1787 H1797 0.930 . S
C1788 C1784 1.332 . S
C1788 C1789 1.394 . S
C1788 H1798 0.932 . S
C1789 C1785 1.308 . S
C1789 C1788 1.394 . S
C1789 H1799 0.929 . S
C1790 Tb1761 2.764 . S
C1790 O1774 1.239 . S
C1790 O1775 1.263 . S
C1790 C1784 1.504 . S
C1791 O1776 1.236 . S
C1791 O1777 1.257 . S
H1792 C1765 0.932 . S
H1793 C1766 0.930 . S
H1794 C1767 0.932 . S
H1795 C1768 0.929 . S
H1796 C1786 0.932 . S
H1797 C1787 0.930 . S
H1798 C1788 0.932 . S
H1799 C1789 0.929 . S
Tb1800 C1809 2.764 . S
Tb1800 O1810 2.325 . S
Tb1800 O1813 2.303 . S
Tb1800 O1817 2.322 . S
Tb1800 O1818 2.349 . S
Tb1800 O1821 2.415 . S
Tb1800 O1822 2.399 . S
Tb1801 O1811 2.322 . S
Tb1801 O1812 2.349 . S
Tb1801 O1814 2.415 . S
Tb1801 O1815 2.399 . S
Tb1801 O1816 2.325 . S
Tb1801 O1819 2.303 . S
Tb1801 C1830 2.764 . S
C1802 O1818 1.261 . S
C1802 O1819 1.257 . S
C1803 C1806 1.358 . S
C1803 C1807 1.332 . S
C1803 C1809 1.504 . S
C1804 C1805 1.373 . S
C1804 C1808 1.308 . S
C1805 C1804 1.373 . S
C1805 C1806 1.429 . S
C1805 H1832 0.932 . S
C1806 C1803 1.358 . S
C1806 C1805 1.429 . S
C1806 H1833 0.930 . S
C1807 C1803 1.332 . S
C1807 C1808 1.394 . S
C1807 H1834 0.932 . S
C1808 C1804 1.308 . S
C1808 C1807 1.394 . S
C1808 H1835 0.929 . S
C1809 Tb1800 2.764 . S
C1809 C1803 1.504 . S
C1809 O1821 1.239 . S
C1809 O1822 1.263 . S
O1810 Tb1800 2.325 . S
O1810 C1820 1.236 . S
O1811 Tb1801 2.322 . S
O1811 C1820 1.257 . S
O1812 Tb1801 2.349 . S
O1812 C1823 1.261 . S
O1813 Tb1800 2.303 . S
O1813 C1823 1.257 . S
O1814 Tb1801 2.415 . S
O1814 C1830 1.239 . S
O1815 Tb1801 2.399 . S
O1815 C1830 1.263 . S
O1816 Tb1801 2.325 . S
O1816 C1831 1.236 . S
O1817 Tb1800 2.322 . S
O1817 C1831 1.257 . S
O1818 Tb1800 2.349 . S
O1818 C1802 1.261 . S
O1819 Tb1801 2.303 . S
O1819 C1802 1.257 . S
C1820 O1810 1.236 . S
C1820 O1811 1.257 . S
O1821 Tb1800 2.415 . S
O1821 C1809 1.239 . S
O1822 Tb1800 2.399 . S
O1822 C1809 1.263 . S
C1823 O1812 1.261 . S
C1823 O1813 1.257 . S
C1824 C1827 1.358 . S
C1824 C1828 1.332 . S
C1824 C1830 1.504 . S
C1825 C1826 1.373 . S
C1825 C1829 1.308 . S
C1826 C1825 1.373 . S
C1826 C1827 1.429 . S
C1826 H1836 0.932 . S
C1827 C1824 1.358 . S
C1827 C1826 1.429 . S
C1827 H1837 0.930 . S
C1828 C1824 1.332 . S
C1828 C1829 1.394 . S
C1828 H1838 0.932 . S
C1829 C1825 1.308 . S
C1829 C1828 1.394 . S
C1829 H1839 0.929 . S
C1830 Tb1801 2.764 . S
C1830 O1814 1.239 . S
C1830 O1815 1.263 . S
C1830 C1824 1.504 . S
C1831 O1816 1.236 . S
C1831 O1817 1.257 . S
H1832 C1805 0.932 . S
H1833 C1806 0.930 . S
H1834 C1807 0.932 . S
H1835 C1808 0.929 . S
H1836 C1826 0.932 . S
H1837 C1827 0.930 . S
H1838 C1828 0.932 . S
H1839 C1829 0.929 . S
Tb1840 C1849 2.764 . S
Tb1840 O1850 2.325 . S
Tb1840 O1853 2.303 . S
Tb1840 O1857 2.322 . S
Tb1840 O1858 2.349 . S
Tb1840 O1861 2.415 . S
Tb1840 O1862 2.399 . S
Tb1841 O1851 2.322 . S
Tb1841 O1852 2.349 . S
Tb1841 O1854 2.415 . S
Tb1841 O1855 2.399 . S
Tb1841 O1856 2.325 . S
Tb1841 O1859 2.303 . S
Tb1841 C1870 2.764 . S
C1842 O1858 1.261 . S
C1842 O1859 1.257 . S
C1843 C1846 1.358 . S
C1843 C1847 1.332 . S
C1843 C1849 1.504 . S
C1844 C1845 1.373 . S
C1844 C1848 1.308 . S
C1845 C1844 1.373 . S
C1845 C1846 1.429 . S
C1845 H1872 0.932 . S
C1846 C1843 1.358 . S
C1846 C1845 1.429 . S
C1846 H1873 0.930 . S
C1847 C1843 1.332 . S
C1847 C1848 1.394 . S
C1847 H1874 0.932 . S
C1848 C1844 1.308 . S
C1848 C1847 1.394 . S
C1848 H1875 0.929 . S
C1849 Tb1840 2.764 . S
C1849 C1843 1.504 . S
C1849 O1861 1.239 . S
C1849 O1862 1.263 . S
O1850 Tb1840 2.325 . S
O1850 C1860 1.236 . S
O1851 Tb1841 2.322 . S
O1851 C1860 1.257 . S
O1852 Tb1841 2.349 . S
O1852 C1863 1.261 . S
O1853 Tb1840 2.303 . S
O1853 C1863 1.257 . S
O1854 Tb1841 2.415 . S
O1854 C1870 1.239 . S
O1855 Tb1841 2.399 . S
O1855 C1870 1.263 . S
O1856 Tb1841 2.325 . S
O1856 C1871 1.236 . S
O1857 Tb1840 2.322 . S
O1857 C1871 1.257 . S
O1858 Tb1840 2.349 . S
O1858 C1842 1.261 . S
O1859 Tb1841 2.303 . S
O1859 C1842 1.257 . S
C1860 O1850 1.236 . S
C1860 O1851 1.257 . S
O1861 Tb1840 2.415 . S
O1861 C1849 1.239 . S
O1862 Tb1840 2.399 . S
O1862 C1849 1.263 . S
C1863 O1852 1.261 . S
C1863 O1853 1.257 . S
C1864 C1867 1.358 . S
C1864 C1868 1.332 . S
C1864 C1870 1.504 . S
C1865 C1866 1.373 . S
C1865 C1869 1.308 . S
C1866 C1865 1.373 . S
C1866 C1867 1.429 . S
C1866 H1876 0.932 . S
C1867 C1864 1.358 . S
C1867 C1866 1.429 . S
C1867 H1877 0.930 . S
C1868 C1864 1.332 . S
C1868 C1869 1.394 . S
C1868 H1878 0.932 . S
C1869 C1865 1.308 . S
C1869 C1868 1.394 . S
C1869 H1879 0.929 . S
C1870 Tb1841 2.764 . S
C1870 O1854 1.239 . S
C1870 O1855 1.263 . S
C1870 C1864 1.504 . S
C1871 O1856 1.236 . S
C1871 O1857 1.257 . S
H1872 C1845 0.932 . S
H1873 C1846 0.930 . S
H1874 C1847 0.932 . S
H1875 C1848 0.929 . S
H1876 C1866 0.932 . S
H1877 C1867 0.930 . S
H1878 C1868 0.932 . S
H1879 C1869 0.929 . S
Tb1880 C1889 2.764 . S
Tb1880 O1890 2.325 . S
Tb1880 O1893 2.303 . S
Tb1880 O1897 2.322 . S
Tb1880 O1898 2.349 . S
Tb1880 O1901 2.415 . S
Tb1880 O1902 2.399 . S
Tb1881 O1891 2.322 . S
Tb1881 O1892 2.349 . S
Tb1881 O1894 2.415 . S
Tb1881 O1895 2.399 . S
Tb1881 O1896 2.325 . S
Tb1881 O1899 2.303 . S
Tb1881 C1910 2.764 . S
C1882 O1898 1.261 . S
C1882 O1899 1.257 . S
C1883 C1886 1.358 . S
C1883 C1887 1.332 . S
C1883 C1889 1.504 . S
C1884 C1885 1.373 . S
C1884 C1888 1.308 . S
C1885 C1884 1.373 . S
C1885 C1886 1.429 . S
C1885 H1912 0.932 . S
C1886 C1883 1.358 . S
C1886 C1885 1.429 . S
C1886 H1913 0.930 . S
C1887 C1883 1.332 . S
C1887 C1888 1.394 . S
C1887 H1914 0.932 . S
C1888 C1884 1.308 . S
C1888 C1887 1.394 . S
C1888 H1915 0.929 . S
C1889 Tb1880 2.764 . S
C1889 C1883 1.504 . S
C1889 O1901 1.239 . S
C1889 O1902 1.263 . S
O1890 Tb1880 2.325 . S
O1890 C1900 1.236 . S
O1891 Tb1881 2.322 . S
O1891 C1900 1.257 . S
O1892 Tb1881 2.349 . S
O1892 C1903 1.261 . S
O1893 Tb1880 2.303 . S
O1893 C1903 1.257 . S
O1894 Tb1881 2.415 . S
O1894 C1910 1.239 . S
O1895 Tb1881 2.399 . S
O1895 C1910 1.263 . S
O1896 Tb1881 2.325 . S
O1896 C1911 1.236 . S
O1897 Tb1880 2.322 . S
O1897 C1911 1.257 . S
O1898 Tb1880 2.349 . S
O1898 C1882 1.261 . S
O1899 Tb1881 2.303 . S
O1899 C1882 1.257 . S
C1900 O1890 1.236 . S
C1900 O1891 1.257 . S
O1901 Tb1880 2.415 . S
O1901 C1889 1.239 . S
O1902 Tb1880 2.399 . S
O1902 C1889 1.263 . S
C1903 O1892 1.261 . S
C1903 O1893 1.257 . S
C1904 C1907 1.358 . S
C1904 C1908 1.332 . S
C1904 C1910 1.504 . S
C1905 C1906 1.373 . S
C1905 C1909 1.308 . S
C1906 C1905 1.373 . S
C1906 C1907 1.429 . S
C1906 H1916 0.932 . S
C1907 C1904 1.358 . S
C1907 C1906 1.429 . S
C1907 H1917 0.930 . S
C1908 C1904 1.332 . S
C1908 C1909 1.394 . S
C1908 H1918 0.932 . S
C1909 C1905 1.308 . S
C1909 C1908 1.394 . S
C1909 H1919 0.929 . S
C1910 Tb1881 2.764 . S
C1910 O1894 1.239 . S
C1910 O1895 1.263 . S
C1910 C1904 1.504 . S
C1911 O1896 1.236 . S
C1911 O1897 1.257 . S
H1912 C1885 0.932 . S
H1913 C1886 0.930 . S
H1914 C1887 0.932 . S
H1915 C1888 0.929 . S
H1916 C1906 0.932 . S
H1917 C1907 0.930 . S
H1918 C1908 0.932 . S
H1919 C1909 0.929 . S
H1920 C1926 0.930 . S
H1921 C1930 0.930 . S
H1922 C1935 0.929 . S
H1923 C1933 0.929 . S
H1924 C1928 0.929 . S
H1925 C1934 0.929 . S
C1926 H1920 0.930 . S
C1926 C1927 1.367 . S
C1926 C1934 1.378 . S
C1927 C1926 1.367 . S
C1927 C1935 1.433 . S
C1928 H1924 0.929 . S
C1928 C1930 1.378 . S
C1928 C1932 1.350 . S
C1929 C1932 1.463 . S
C1929 C1934 1.350 . S
C1929 N1937 1.427 . S
C1930 H1921 0.930 . S
C1930 C1928 1.378 . S
C1930 C1931 1.367 . S
C1931 C1930 1.367 . S
C1931 C1933 1.433 . S
C1932 C1928 1.350 . S
C1932 C1929 1.463 . S
C1932 N1936 1.427 . S
C1933 H1923 0.929 . S
C1933 C1931 1.433 . S
C1933 N1936 1.384 . S
C1934 H1925 0.929 . S
C1934 C1926 1.378 . S
C1934 C1929 1.350 . S
C1935 H1922 0.929 . S
C1935 C1927 1.433 . S
C1935 N1937 1.384 . S
N1936 C1932 1.427 . S
N1936 C1933 1.384 . S
N1937 C1929 1.427 . S
N1937 C1935 1.384 . S
H1938 C1944 0.930 . S
H1939 C1948 0.930 . S
H1940 C1953 0.929 . S
H1941 C1951 0.929 . S
H1942 C1946 0.929 . S
H1943 C1952 0.929 . S
C1944 H1938 0.930 . S
C1944 C1945 1.367 . S
C1944 C1952 1.378 . S
C1945 C1944 1.367 . S
C1945 C1953 1.433 . S
C1946 H1942 0.929 . S
C1946 C1948 1.378 . S
C1946 C1950 1.350 . S
C1947 C1950 1.463 . S
C1947 C1952 1.350 . S
C1947 N1955 1.427 . S
C1948 H1939 0.930 . S
C1948 C1946 1.378 . S
C1948 C1949 1.367 . S
C1949 C1948 1.367 . S
C1949 C1951 1.433 . S
C1950 C1946 1.350 . S
C1950 C1947 1.463 . S
C1950 N1954 1.427 . S
C1951 H1941 0.929 . S
C1951 C1949 1.433 . S
C1951 N1954 1.384 . S
C1952 H1943 0.929 . S
C1952 C1944 1.378 . S
C1952 C1947 1.350 . S
C1953 H1940 0.929 . S
C1953 C1945 1.433 . S
C1953 N1955 1.384 . S
N1954 C1950 1.427 . S
N1954 C1951 1.384 . S
N1955 C1947 1.427 . S
N1955 C1953 1.384 . S
H1956 C1962 0.930 . S
H1957 C1966 0.930 . S
H1958 C1971 0.929 . S
H1959 C1969 0.929 . S
H1960 C1964 0.929 . S
H1961 C1970 0.929 . S
C1962 H1956 0.930 . S
C1962 C1963 1.367 . S
C1962 C1970 1.378 . S
C1963 C1962 1.367 . S
C1963 C1971 1.433 . S
C1964 H1960 0.929 . S
C1964 C1966 1.378 . S
C1964 C1968 1.350 . S
C1965 C1968 1.463 . S
C1965 C1970 1.350 . S
C1965 N1973 1.427 . S
C1966 H1957 0.930 . S
C1966 C1964 1.378 . S
C1966 C1967 1.367 . S
C1967 C1966 1.367 . S
C1967 C1969 1.433 . S
C1968 C1964 1.350 . S
C1968 C1965 1.463 . S
C1968 N1972 1.427 . S
C1969 H1959 0.929 . S
C1969 C1967 1.433 . S
C1969 N1972 1.384 . S
C1970 H1961 0.929 . S
C1970 C1962 1.378 . S
C1970 C1965 1.350 . S
C1971 H1958 0.929 . S
C1971 C1963 1.433 . S
C1971 N1973 1.384 . S
N1972 C1968 1.427 . S
N1972 C1969 1.384 . S
N1973 C1965 1.427 . S
N1973 C1971 1.384 . S
H1974 C1980 0.930 . S
H1975 C1984 0.930 . S
H1976 C1989 0.929 . S
H1977 C1987 0.929 . S
H1978 C1982 0.929 . S
H1979 C1988 0.929 . S
C1980 H1974 0.930 . S
C1980 C1981 1.367 . S
C1980 C1988 1.378 . S
C1981 C1980 1.367 . S
C1981 C1989 1.433 1_554 S
C1982 H1978 0.929 . S
C1982 C1984 1.378 . S
C1982 C1986 1.350 . S
C1983 C1986 1.468 . S
C1983 C1988 1.316 1_556 S
C1983 N1991 1.460 . S
C1984 H1975 0.930 . S
C1984 C1982 1.378 . S
C1984 C1985 1.367 . S
C1985 C1984 1.367 . S
C1985 C1987 1.433 1_556 S
C1986 C1982 1.350 . S
C1986 C1983 1.468 . S
C1986 N1990 1.427 1_556 S
C1987 H1977 0.929 . S
C1987 C1985 1.433 1_554 S
C1987 N1990 1.384 . S
C1988 H1979 0.929 . S
C1988 C1980 1.378 . S
C1988 C1983 1.316 1_554 S
C1989 H1976 0.929 . S
C1989 C1981 1.433 1_556 S
C1989 N1991 1.384 . S
N1990 C1986 1.427 1_554 S
N1990 C1987 1.384 . S
N1991 C1983 1.460 . S
N1991 C1989 1.384 . S
H1992 C1998 0.930 . S
H1993 C2002 0.930 . S
H1994 C2007 0.929 . S
H1995 C2005 0.929 . S
H1996 C2000 0.929 . S
H1997 C2006 0.929 . S
C1998 H1992 0.930 . S
C1998 C1999 1.367 1_545 S
C1998 C2006 1.378 . S
C1999 C1998 1.367 1_565 S
C1999 C2007 1.433 . S
C2000 H1996 0.929 . S
C2000 C2002 1.378 . S
C2000 C2004 1.350 . S
C2001 C2004 1.463 . S
C2001 C2006 1.350 1_565 S
C2001 N2009 1.427 . S
C2002 H1993 0.930 . S
C2002 C2000 1.378 . S
C2002 C2003 1.367 . S
C2003 C2002 1.367 . S
C2003 C2005 1.433 1_565 S
C2004 C2000 1.350 . S
C2004 C2001 1.463 . S
C2004 N2008 1.427 1_565 S
C2005 H1995 0.929 . S
C2005 C2003 1.433 1_545 S
C2005 N2008 1.384 . S
C2006 H1997 0.929 . S
C2006 C1998 1.378 . S
C2006 C2001 1.350 1_545 S
C2007 H1994 0.929 . S
C2007 C1999 1.433 . S
C2007 N2009 1.384 . S
N2008 C2004 1.427 1_545 S
N2008 C2005 1.384 . S
N2009 C2001 1.427 . S
N2009 C2007 1.384 . S
H2010 C2016 0.930 . S
H2011 C2020 0.930 . S
H2012 C2025 0.929 . S
H2013 C2023 0.929 . S
H2014 C2018 0.929 . S
H2015 C2024 0.929 . S
C2016 H2010 0.930 . S
C2016 C2017 1.367 1_545 S
C2016 C2024 1.378 . S
C2017 C2016 1.367 1_565 S
C2017 C2025 1.433 . S
C2018 H2014 0.929 . S
C2018 C2020 1.378 . S
C2018 C2022 1.350 . S
C2019 C2022 1.463 . S
C2019 C2024 1.350 1_565 S
C2019 N2027 1.427 . S
C2020 H2011 0.930 . S
C2020 C2018 1.378 . S
C2020 C2021 1.367 . S
C2021 C2020 1.367 . S
C2021 C2023 1.433 1_565 S
C2022 C2018 1.350 . S
C2022 C2019 1.463 . S
C2022 N2026 1.427 1_565 S
C2023 H2013 0.929 . S
C2023 C2021 1.433 1_545 S
C2023 N2026 1.384 . S
C2024 H2015 0.929 . S
C2024 C2016 1.378 . S
C2024 C2019 1.350 1_545 S
C2025 H2012 0.929 . S
C2025 C2017 1.433 . S
C2025 N2027 1.384 . S
N2026 C2022 1.427 1_545 S
N2026 C2023 1.384 . S
N2027 C2019 1.427 . S
N2027 C2025 1.384 . S
H2028 C2034 0.930 . S
H2029 C2038 0.930 . S
H2030 C2043 0.929 . S
H2031 C2041 0.929 . S
H2032 C2036 0.929 . S
H2033 C2042 0.929 . S
C2034 H2028 0.930 . S
C2034 C2035 1.367 . S
C2034 C2042 1.378 . S
C2035 C2034 1.367 . S
C2035 C2043 1.433 1_565 S
C2036 H2032 0.929 . S
C2036 C2038 1.378 . S
C2036 C2040 1.350 1_545 S
C2037 C2040 1.463 1_554 S
C2037 C2042 1.350 . S
C2037 N2045 1.427 1_565 S
C2038 H2029 0.930 . S
C2038 C2036 1.378 . S
C2038 C2039 1.367 1_545 S
C2039 C2038 1.367 1_565 S
C2039 C2041 1.433 . S
C2040 C2036 1.350 1_565 S
C2040 C2037 1.463 1_556 S
C2040 N2044 1.427 . S
C2041 H2031 0.929 . S
C2041 C2039 1.433 . S
C2041 N2044 1.384 . S
C2042 H2033 0.929 . S
C2042 C2034 1.378 . S
C2042 C2037 1.350 . S
C2043 H2030 0.929 . S
C2043 C2035 1.433 1_545 S
C2043 N2045 1.384 . S
N2044 C2040 1.427 . S
N2044 C2041 1.384 . S
N2045 C2037 1.427 1_545 S
N2045 C2043 1.384 . S
H2046 C2052 0.930 . S
H2047 C2056 0.930 . S
H2048 C2061 0.929 . S
H2049 C2059 0.929 . S
H2050 C2054 0.929 . S
H2051 C2060 0.929 . S
C2052 H2046 0.930 . S
C2052 C2053 1.367 1_545 S
C2052 C2060 1.378 . S
C2053 C2052 1.367 1_565 S
C2053 C2061 1.433 . S
C2054 H2050 0.929 . S
C2054 C2056 1.378 . S
C2054 C2058 1.350 . S
C2055 C2058 1.463 . S
C2055 C2060 1.350 1_565 S
C2055 N2063 1.427 . S
C2056 H2047 0.930 . S
C2056 C2054 1.378 . S
C2056 C2057 1.367 . S
C2057 C2056 1.367 . S
C2057 C2059 1.433 1_565 S
C2058 C2054 1.350 . S
C2058 C2055 1.463 . S
C2058 N2062 1.427 1_565 S
C2059 H2049 0.929 . S
C2059 C2057 1.433 1_545 S
C2059 N2062 1.384 . S
C2060 H2051 0.929 . S
C2060 C2052 1.378 . S
C2060 C2055 1.350 1_545 S
C2061 H2048 0.929 . S
C2061 C2053 1.433 . S
C2061 N2063 1.384 . S
N2062 C2058 1.427 1_545 S
N2062 C2059 1.384 . S
N2063 C2055 1.427 . S
N2063 C2061 1.384 . S
H2064 C2070 0.930 . S
H2065 C2074 0.930 . S
H2066 C2079 0.929 . S
H2067 C2077 0.929 . S
H2068 C2072 0.929 . S
H2069 C2078 0.929 . S
C2070 H2064 0.930 . S
C2070 C2071 1.367 1_556 S
C2070 C2078 1.378 . S
C2071 C2070 1.367 1_554 S
C2071 C2079 1.433 . S
C2072 H2068 0.929 . S
C2072 C2074 1.378 . S
C2072 C2076 1.350 . S
C2073 C2076 1.463 . S
C2073 C2078 1.350 1_554 S
C2073 N2081 1.427 . S
C2074 H2065 0.930 . S
C2074 C2072 1.378 . S
C2074 C2075 1.367 . S
C2075 C2074 1.367 . S
C2075 C2077 1.433 1_554 S
C2076 C2072 1.350 . S
C2076 C2073 1.463 . S
C2076 N2080 1.427 1_554 S
C2077 H2067 0.929 . S
C2077 C2075 1.433 1_556 S
C2077 N2080 1.384 . S
C2078 H2069 0.929 . S
C2078 C2070 1.378 . S
C2078 C2073 1.350 1_556 S
C2079 H2066 0.929 . S
C2079 C2071 1.433 . S
C2079 N2081 1.384 . S
N2080 C2076 1.427 1_556 S
N2080 C2077 1.384 . S
N2081 C2073 1.427 . S
N2081 C2079 1.384 . S
H2082 C2088 0.930 . S
H2083 C2092 0.930 . S
H2084 C2097 0.929 . S
H2085 C2095 0.929 . S
H2086 C2090 0.929 . S
H2087 C2096 0.929 . S
C2088 H2082 0.930 . S
C2088 C2089 1.367 1_554 S
C2088 C2096 1.378 . S
C2089 C2088 1.367 1_556 S
C2089 C2097 1.433 . S
C2090 H2086 0.929 . S
C2090 C2092 1.378 . S
C2090 C2094 1.350 . S
C2091 C2094 1.463 1_655 S
C2091 C2096 1.350 1_556 S
C2091 N2099 1.427 . S
C2092 H2083 0.930 . S
C2092 C2090 1.378 . S
C2092 C2093 1.367 . S
C2093 C2092 1.367 . S
C2093 C2095 1.433 1_556 S
C2094 C2090 1.350 . S
C2094 C2091 1.463 1_455 S
C2094 N2098 1.427 1_556 S
C2095 H2085 0.929 . S
C2095 C2093 1.433 1_554 S
C2095 N2098 1.384 . S
C2096 H2087 0.929 . S
C2096 C2088 1.378 . S
C2096 C2091 1.350 1_554 S
C2097 H2084 0.929 . S
C2097 C2089 1.433 . S
C2097 N2099 1.384 . S
N2098 C2094 1.427 1_554 S
N2098 C2095 1.384 . S
N2099 C2091 1.427 . S
N2099 C2097 1.384 . S
H2100 C2106 0.930 . S
H2101 C2110 0.915 1_655 S
H2102 C2115 0.943 . S
H2103 C2113 0.929 . S
H2104 C2108 0.929 1_655 S
H2105 C2114 0.929 . S
C2106 H2100 0.930 . S
C2106 C2107 1.367 . S
C2106 C2114 1.378 . S
C2107 C2106 1.367 . S
C2107 C2115 1.422 1_455 S
C2108 H2104 0.929 1_455 S
C2108 C2110 1.378 . S
C2108 C2112 1.350 . S
C2109 C2112 1.463 . S
C2109 C2114 1.350 . S
C2109 N2117 1.452 . S
C2110 H2101 0.915 1_455 S
C2110 C2108 1.378 . S
C2110 C2111 1.367 . S
C2111 C2110 1.367 . S
C2111 C2113 1.433 . S
C2112 C2108 1.350 . S
C2112 C2109 1.463 . S
C2112 N2116 1.427 . S
C2113 H2103 0.929 . S
C2113 C2111 1.433 . S
C2113 N2116 1.384 . S
C2114 H2105 0.929 . S
C2114 C2106 1.378 . S
C2114 C2109 1.350 . S
C2115 H2102 0.943 . S
C2115 C2107 1.422 1_655 S
C2115 N2117 1.379 1_655 S
N2116 C2112 1.427 . S
N2116 C2113 1.384 . S
N2117 C2109 1.452 . S
N2117 C2115 1.379 1_455 S
H2118 C2124 0.930 . S
H2119 C2128 0.930 . S
H2120 C2133 0.929 . S
H2121 C2131 0.929 . S
H2122 C2126 0.929 . S
H2123 C2132 0.929 . S
C2124 H2118 0.930 . S
C2124 C2125 1.367 . S
C2124 C2132 1.378 . S
C2125 C2124 1.367 . S
C2125 C2133 1.433 . S
C2126 H2122 0.929 . S
C2126 C2128 1.378 . S
C2126 C2130 1.350 . S
C2127 C2130 1.463 . S
C2127 C2132 1.350 . S
C2127 N2135 1.427 . S
C2128 H2119 0.930 . S
C2128 C2126 1.378 . S
C2128 C2129 1.367 . S
C2129 C2128 1.367 . S
C2129 C2131 1.433 . S
C2130 C2126 1.350 . S
C2130 C2127 1.463 . S
C2130 N2134 1.427 . S
C2131 H2121 0.929 . S
C2131 C2129 1.433 . S
C2131 N2134 1.384 . S
C2132 H2123 0.929 . S
C2132 C2124 1.378 . S
C2132 C2127 1.350 . S
C2133 H2120 0.929 . S
C2133 C2125 1.433 . S
C2133 N2135 1.384 . S
N2134 C2130 1.427 . S
N2134 C2131 1.384 . S
N2135 C2127 1.427 . S
N2135 C2133 1.384 . S
H2136 C2142 0.930 . S
H2137 C2146 0.930 . S
H2138 C2151 0.929 . S
H2139 C2149 0.929 . S
H2140 C2144 0.929 . S
H2141 C2150 0.929 . S
C2142 H2136 0.930 . S
C2142 C2143 1.367 . S
C2142 C2150 1.378 . S
C2143 C2142 1.367 . S
C2143 C2151 1.433 . S
C2144 H2140 0.929 . S
C2144 C2146 1.378 . S
C2144 C2148 1.350 . S
C2145 C2148 1.463 1_655 S
C2145 C2150 1.350 . S
C2145 N2153 1.427 . S
C2146 H2137 0.930 . S
C2146 C2144 1.378 . S
C2146 C2147 1.367 . S
C2147 C2146 1.367 . S
C2147 C2149 1.433 . S
C2148 C2144 1.350 . S
C2148 C2145 1.463 1_455 S
C2148 N2152 1.427 . S
C2149 H2139 0.929 . S
C2149 C2147 1.433 . S
C2149 N2152 1.384 . S
C2150 H2141 0.929 . S
C2150 C2142 1.378 . S
C2150 C2145 1.350 . S
C2151 H2138 0.929 . S
C2151 C2143 1.433 . S
C2151 N2153 1.384 . S
N2152 C2148 1.427 . S
N2152 C2149 1.384 . S
N2153 C2145 1.427 . S
N2153 C2151 1.384 . S
H2154 C2160 0.930 . S
H2155 C2164 0.930 . S
H2156 C2169 0.967 . S
H2157 C2167 0.929 . S
H2158 C2162 0.929 . S
H2159 C2168 0.929 . S
C2160 H2154 0.930 . S
C2160 C2161 1.367 . S
C2160 C2168 1.378 . S
C2161 C2160 1.367 . S
C2161 C2169 1.393 1_455 S
C2162 H2158 0.929 . S
C2162 C2164 1.378 . S
C2162 C2166 1.350 1_655 S
C2163 C2166 1.463 . S
C2163 C2168 1.350 . S
C2163 N2171 1.427 1_455 S
C2164 H2155 0.930 . S
C2164 C2162 1.378 . S
C2164 C2165 1.367 1_655 S
C2165 C2164 1.367 1_455 S
C2165 C2167 1.433 . S
C2166 C2162 1.350 1_455 S
C2166 C2163 1.463 . S
C2166 N2170 1.427 . S
C2167 H2157 0.929 . S
C2167 C2165 1.433 . S
C2167 N2170 1.384 . S
C2168 H2159 0.929 . S
C2168 C2160 1.378 . S
C2168 C2163 1.350 . S
C2169 H2156 0.967 . S
C2169 C2161 1.393 1_655 S
C2169 N2171 1.385 . S
N2170 C2166 1.427 . S
N2170 C2167 1.384 . S
N2171 C2163 1.427 1_655 S
N2171 C2169 1.385 . S
H2172 C2178 0.930 . S
H2173 C2182 0.930 . S
H2174 C2187 0.929 . S
H2175 C2185 0.929 . S
H2176 C2180 0.929 . S
H2177 C2186 0.929 . S
C2178 H2172 0.930 . S
C2178 C2179 1.367 . S
C2178 C2186 1.378 . S
C2179 C2178 1.367 . S
C2179 C2187 1.433 . S
C2180 H2176 0.929 . S
C2180 C2182 1.378 . S
C2180 C2184 1.350 . S
C2181 C2184 1.463 . S
C2181 C2186 1.350 . S
C2181 N2189 1.427 . S
C2182 H2173 0.930 . S
C2182 C2180 1.378 . S
C2182 C2183 1.367 . S
C2183 C2182 1.367 . S
C2183 C2185 1.433 . S
C2184 C2180 1.350 . S
C2184 C2181 1.463 . S
C2184 N2188 1.427 . S
C2185 H2175 0.929 . S
C2185 C2183 1.433 . S
C2185 N2188 1.384 . S
C2186 H2177 0.929 . S
C2186 C2178 1.378 . S
C2186 C2181 1.350 . S
C2187 H2174 0.929 . S
C2187 C2179 1.433 . S
C2187 N2189 1.384 . S
N2188 C2184 1.427 . S
N2188 C2185 1.384 . S
N2189 C2181 1.427 . S
N2189 C2187 1.384 . S
H2190 C2196 0.930 . S
H2191 C2200 0.930 . S
H2192 C2205 0.929 . S
H2193 C2203 0.929 . S
H2194 C2198 0.929 . S
H2195 C2204 0.929 . S
C2196 H2190 0.930 . S
C2196 C2197 1.367 . S
C2196 C2204 1.378 . S
C2197 C2196 1.367 . S
C2197 C2205 1.433 1_655 S
C2198 H2194 0.929 . S
C2198 C2200 1.378 . S
C2198 C2202 1.350 1_455 S
C2199 C2202 1.463 . S
C2199 C2204 1.350 . S
C2199 N2207 1.427 1_655 S
C2200 H2191 0.930 . S
C2200 C2198 1.378 . S
C2200 C2201 1.367 1_455 S
C2201 C2200 1.367 1_655 S
C2201 C2203 1.433 . S
C2202 C2198 1.350 1_655 S
C2202 C2199 1.463 . S
C2202 N2206 1.427 . S
C2203 H2193 0.929 . S
C2203 C2201 1.433 . S
C2203 N2206 1.384 . S
C2204 H2195 0.929 . S
C2204 C2196 1.378 . S
C2204 C2199 1.350 . S
C2205 H2192 0.929 . S
C2205 C2197 1.433 1_455 S
C2205 N2207 1.384 . S
N2206 C2202 1.427 . S
N2206 C2203 1.384 . S
N2207 C2199 1.427 1_455 S
N2207 C2205 1.384 . S
H2208 C2214 0.930 . S
H2209 C2218 0.930 . S
H2210 C2223 0.929 . S
H2211 C2221 0.929 . S
H2212 C2216 0.929 . S
H2213 C2222 0.929 . S
C2214 H2208 0.930 . S
C2214 C2215 1.367 . S
C2214 C2222 1.378 . S
C2215 C2214 1.367 . S
C2215 C2223 1.433 . S
C2216 H2212 0.929 . S
C2216 C2218 1.378 . S
C2216 C2220 1.350 . S
C2217 C2220 1.463 . S
C2217 C2222 1.350 . S
C2217 N2225 1.427 . S
C2218 H2209 0.930 . S
C2218 C2216 1.378 . S
C2218 C2219 1.367 . S
C2219 C2218 1.367 . S
C2219 C2221 1.433 . S
C2220 C2216 1.350 . S
C2220 C2217 1.463 . S
C2220 N2224 1.427 . S
C2221 H2211 0.929 . S
C2221 C2219 1.433 . S
C2221 N2224 1.384 . S
C2222 H2213 0.929 . S
C2222 C2214 1.378 . S
C2222 C2217 1.350 . S
C2223 H2210 0.929 . S
C2223 C2215 1.433 . S
C2223 N2225 1.384 . S
N2224 C2220 1.427 . S
N2224 C2221 1.384 . S
N2225 C2217 1.427 . S
N2225 C2223 1.384 . S
H2226 C2232 0.930 . S
H2227 C2236 0.930 . S
H2228 C2241 0.929 . S
H2229 C2239 0.929 . S
H2230 C2234 0.929 . S
H2231 C2240 0.929 . S
C2232 H2226 0.930 . S
C2232 C2233 1.367 . S
C2232 C2240 1.378 . S
C2233 C2232 1.367 . S
C2233 C2241 1.433 . S
C2234 H2230 0.929 . S
C2234 C2236 1.378 . S
C2234 C2238 1.350 . S
C2235 C2238 1.463 . S
C2235 C2240 1.350 . S
C2235 N2243 1.427 . S
C2236 H2227 0.930 . S
C2236 C2234 1.378 . S
C2236 C2237 1.367 . S
C2237 C2236 1.367 . S
C2237 C2239 1.433 . S
C2238 C2234 1.350 . S
C2238 C2235 1.463 . S
C2238 N2242 1.427 . S
C2239 H2229 0.929 . S
C2239 C2237 1.433 . S
C2239 N2242 1.384 . S
C2240 H2231 0.929 . S
C2240 C2232 1.378 . S
C2240 C2235 1.350 . S
C2241 H2228 0.929 . S
C2241 C2233 1.433 . S
C2241 N2243 1.384 . S
N2242 C2238 1.427 . S
N2242 C2239 1.384 . S
N2243 C2235 1.427 . S
N2243 C2241 1.384 . S
H2244 C2250 0.930 . S
H2245 C2254 0.930 . S
H2246 C2259 0.929 . S
H2247 C2257 0.929 . S
H2248 C2252 0.929 . S
H2249 C2258 0.929 . S
C2250 H2244 0.930 . S
C2250 C2251 1.367 . S
C2250 C2258 1.378 . S
C2251 C2250 1.367 . S
C2251 C2259 1.433 1_554 S
C2252 H2248 0.929 . S
C2252 C2254 1.378 . S
C2252 C2256 1.350 1_556 S
C2253 C2256 1.463 . S
C2253 C2258 1.350 . S
C2253 N2261 1.427 1_554 S
C2254 H2245 0.930 . S
C2254 C2252 1.378 . S
C2254 C2255 1.390 . S
C2255 C2254 1.390 . S
C2255 C2257 1.407 1_556 S
C2256 C2252 1.350 1_554 S
C2256 C2253 1.463 . S
C2256 N2260 1.427 . S
C2257 H2247 0.929 . S
C2257 C2255 1.407 1_554 S
C2257 N2260 1.384 . S
C2258 H2249 0.929 . S
C2258 C2250 1.378 . S
C2258 C2253 1.350 . S
C2259 H2246 0.929 . S
C2259 C2251 1.433 1_556 S
C2259 N2261 1.384 . S
N2260 C2256 1.427 . S
N2260 C2257 1.384 . S
N2261 C2253 1.427 1_556 S
N2261 C2259 1.384 . S
H2262 C2268 0.930 . S
H2263 C2272 0.930 . S
H2264 C2277 0.929 . S
H2265 C2275 0.929 . S
H2266 C2270 0.929 . S
H2267 C2276 0.929 . S
C2268 H2262 0.930 . S
C2268 C2269 1.367 1_565 S
C2268 C2276 1.378 . S
C2269 C2268 1.367 1_545 S
C2269 C2277 1.433 . S
C2270 H2266 0.929 . S
C2270 C2272 1.378 . S
C2270 C2274 1.350 . S
C2271 C2274 1.463 . S
C2271 C2276 1.350 1_545 S
C2271 N2279 1.427 . S
C2272 H2263 0.930 . S
C2272 C2270 1.378 . S
C2272 C2273 1.367 . S
C2273 C2272 1.367 . S
C2273 C2275 1.433 1_545 S
C2274 C2270 1.350 . S
C2274 C2271 1.463 . S
C2274 N2278 1.427 1_545 S
C2275 H2265 0.929 . S
C2275 C2273 1.433 1_565 S
C2275 N2278 1.384 . S
C2276 H2267 0.929 . S
C2276 C2268 1.378 . S
C2276 C2271 1.350 1_565 S
C2277 H2264 0.929 . S
C2277 C2269 1.433 . S
C2277 N2279 1.384 . S
N2278 C2274 1.427 1_565 S
N2278 C2275 1.384 . S
N2279 C2271 1.427 . S
N2279 C2277 1.384 . S
H2280 C2286 0.930 . S
H2281 C2290 0.930 . S
H2282 C2295 0.929 . S
H2283 C2293 0.929 . S
H2284 C2288 0.929 . S
H2285 C2294 0.929 . S
C2286 H2280 0.930 . S
C2286 C2287 1.367 . S
C2286 C2294 1.378 . S
C2287 C2286 1.367 . S
C2287 C2295 1.433 1_545 S
C2288 H2284 0.929 . S
C2288 C2290 1.378 . S
C2288 C2292 1.350 1_565 S
C2289 C2292 1.463 . S
C2289 C2294 1.350 . S
C2289 N2297 1.427 1_545 S
C2290 H2281 0.930 . S
C2290 C2288 1.378 . S
C2290 C2291 1.367 1_565 S
C2291 C2290 1.367 1_545 S
C2291 C2293 1.433 . S
C2292 C2288 1.350 1_545 S
C2292 C2289 1.463 . S
C2292 N2296 1.427 . S
C2293 H2283 0.929 . S
C2293 C2291 1.433 . S
C2293 N2296 1.384 . S
C2294 H2285 0.929 . S
C2294 C2286 1.378 . S
C2294 C2289 1.350 . S
C2295 H2282 0.929 . S
C2295 C2287 1.433 1_565 S
C2295 N2297 1.384 . S
N2296 C2292 1.427 . S
N2296 C2293 1.384 . S
N2297 C2289 1.427 1_565 S
N2297 C2295 1.384 . S
H2298 C2304 0.930 . S
H2299 C2308 0.930 . S
H2300 C2313 0.929 . S
H2301 C2311 0.929 . S
H2302 C2306 0.929 . S
H2303 C2312 0.929 . S
C2304 H2298 0.930 . S
C2304 C2305 1.367 1_565 S
C2304 C2312 1.378 . S
C2305 C2304 1.367 1_545 S
C2305 C2313 1.433 . S
C2306 H2302 0.929 . S
C2306 C2308 1.378 . S
C2306 C2310 1.350 . S
C2307 C2310 1.463 1_556 S
C2307 C2312 1.350 1_545 S
C2307 N2315 1.427 . S
C2308 H2299 0.930 . S
C2308 C2306 1.378 . S
C2308 C2309 1.367 . S
C2309 C2308 1.367 . S
C2309 C2311 1.433 1_545 S
C2310 C2306 1.350 . S
C2310 C2307 1.463 1_554 S
C2310 N2314 1.427 1_545 S
C2311 H2301 0.929 . S
C2311 C2309 1.433 1_565 S
C2311 N2314 1.384 . S
C2312 H2303 0.929 . S
C2312 C2304 1.378 . S
C2312 C2307 1.350 1_565 S
C2313 H2300 0.929 . S
C2313 C2305 1.433 . S
C2313 N2315 1.384 . S
N2314 C2310 1.427 1_565 S
N2314 C2311 1.384 . S
N2315 C2307 1.427 . S
N2315 C2313 1.384 . S
H2316 C2322 0.930 . S
H2317 C2326 0.930 . S
H2318 C2331 0.929 . S
H2319 C2329 0.929 . S
H2320 C2324 0.929 . S
H2321 C2330 0.929 . S
C2322 H2316 0.930 . S
C2322 C2323 1.367 1_565 S
C2322 C2330 1.378 . S
C2323 C2322 1.367 1_545 S
C2323 C2331 1.433 . S
C2324 H2320 0.929 . S
C2324 C2326 1.378 . S
C2324 C2328 1.350 . S
C2325 C2328 1.463 . S
C2325 C2330 1.350 1_545 S
C2325 N2333 1.427 . S
C2326 H2317 0.930 . S
C2326 C2324 1.378 . S
C2326 C2327 1.376 . S
C2327 C2326 1.376 . S
C2327 C2329 1.425 1_545 S
C2328 C2324 1.350 . S
C2328 C2325 1.463 . S
C2328 N2332 1.427 1_545 S
C2329 H2319 0.929 . S
C2329 C2327 1.425 1_565 S
C2329 N2332 1.384 . S
C2330 H2321 0.929 . S
C2330 C2322 1.378 . S
C2330 C2325 1.350 1_565 S
C2331 H2318 0.929 . S
C2331 C2323 1.433 . S
C2331 N2333 1.384 . S
N2332 C2328 1.427 1_565 S
N2332 C2329 1.384 . S
N2333 C2325 1.427 . S
N2333 C2331 1.384 . S
H2334 C2340 0.930 . S
H2335 C2344 0.930 . S
H2336 C2349 0.929 . S
H2337 C2347 0.929 . S
H2338 C2342 0.929 . S
H2339 C2348 0.929 . S
C2340 H2334 0.930 . S
C2340 C2341 1.367 . S
C2340 C2348 1.378 . S
C2341 C2340 1.367 . S
C2341 C2349 1.433 1_554 S
C2342 H2338 0.929 . S
C2342 C2344 1.378 . S
C2342 C2346 1.339 1_556 S
C2343 C2346 1.464 . S
C2343 C2348 1.350 . S
C2343 N2351 1.427 1_554 S
C2344 H2335 0.930 . S
C2344 C2342 1.378 . S
C2344 C2345 1.376 . S
C2345 C2344 1.376 . S
C2345 C2347 1.424 1_556 S
C2346 C2342 1.339 1_554 S
C2346 C2343 1.464 . S
C2346 N2350 1.438 . S
C2347 H2337 0.929 . S
C2347 C2345 1.424 1_554 S
C2347 N2350 1.384 . S
C2348 H2339 0.929 . S
C2348 C2340 1.378 . S
C2348 C2343 1.350 . S
C2349 H2336 0.929 . S
C2349 C2341 1.433 1_556 S
C2349 N2351 1.384 . S
N2350 C2346 1.438 . S
N2350 C2347 1.384 . S
N2351 C2343 1.427 1_556 S
N2351 C2349 1.384 . S
H2352 C2358 0.927 1_556 S
H2353 C2362 0.930 . S
H2354 C2367 0.929 . S
H2355 C2365 0.929 . S
H2356 C2360 0.929 . S
H2357 C2366 0.928 . S
C2358 H2352 0.927 1_554 S
C2358 C2359 1.370 . S
C2358 C2366 1.378 1_554 S
C2359 C2358 1.370 . S
C2359 C2367 1.433 . S
C2360 H2356 0.929 . S
C2360 C2362 1.378 . S
C2360 C2364 1.350 . S
C2361 C2364 1.463 1_655 S
C2361 C2366 1.351 1_554 S
C2361 N2369 1.427 . S
C2362 H2353 0.930 . S
C2362 C2360 1.378 . S
C2362 C2363 1.367 . S
C2363 C2362 1.367 . S
C2363 C2365 1.433 1_554 S
C2364 C2360 1.350 . S
C2364 C2361 1.463 1_455 S
C2364 N2368 1.410 1_554 S
C2365 H2355 0.929 . S
C2365 C2363 1.433 1_556 S
C2365 N2368 1.385 . S
C2366 H2357 0.928 . S
C2366 C2358 1.378 1_556 S
C2366 C2361 1.351 1_556 S
C2367 H2354 0.929 . S
C2367 C2359 1.433 . S
C2367 N2369 1.384 . S
N2368 C2364 1.410 1_556 S
N2368 C2365 1.385 . S
N2369 C2361 1.427 . S
N2369 C2367 1.384 . S
H2370 C2376 0.930 . S
H2371 C2380 0.930 . S
H2372 C2385 0.929 . S
H2373 C2383 0.926 1_455 S
H2374 C2378 0.929 . S
H2375 C2384 0.943 . S
C2376 H2370 0.930 . S
C2376 C2377 1.367 . S
C2376 C2384 1.378 . S
C2377 C2376 1.367 . S
C2377 C2385 1.433 . S
C2378 H2374 0.929 . S
C2378 C2380 1.378 . S
C2378 C2382 1.350 . S
C2379 C2382 1.463 . S
C2379 C2384 1.350 . S
C2379 N2387 1.427 . S
C2380 H2371 0.930 . S
C2380 C2378 1.378 . S
C2380 C2381 1.367 . S
C2381 C2380 1.367 . S
C2381 C2383 1.436 . S
C2382 C2378 1.350 . S
C2382 C2379 1.463 . S
C2382 N2386 1.427 . S
C2383 H2373 0.926 1_655 S
C2383 C2381 1.436 . S
C2383 N2386 1.385 . S
C2384 H2375 0.943 . S
C2384 C2376 1.378 . S
C2384 C2379 1.350 . S
C2385 H2372 0.929 . S
C2385 C2377 1.433 . S
C2385 N2387 1.384 . S
N2386 C2382 1.427 . S
N2386 C2383 1.385 . S
N2387 C2379 1.427 . S
N2387 C2385 1.384 . S
H2388 C2394 0.930 . S
H2389 C2398 0.930 . S
H2390 C2403 0.929 . S
H2391 C2401 0.929 . S
H2392 C2396 0.929 . S
H2393 C2402 0.929 . S
C2394 H2388 0.930 . S
C2394 C2395 1.367 . S
C2394 C2402 1.378 . S
C2395 C2394 1.367 . S
C2395 C2403 1.433 . S
C2396 H2392 0.929 . S
C2396 C2398 1.378 . S
C2396 C2400 1.350 . S
C2397 C2400 1.463 . S
C2397 C2402 1.350 . S
C2397 N2405 1.427 . S
C2398 H2389 0.930 . S
C2398 C2396 1.378 . S
C2398 C2399 1.367 . S
C2399 C2398 1.367 . S
C2399 C2401 1.433 . S
C2400 C2396 1.350 . S
C2400 C2397 1.463 . S
C2400 N2404 1.427 . S
C2401 H2391 0.929 . S
C2401 C2399 1.433 . S
C2401 N2404 1.384 . S
C2402 H2393 0.929 . S
C2402 C2394 1.378 . S
C2402 C2397 1.350 . S
C2403 H2390 0.929 . S
C2403 C2395 1.433 . S
C2403 N2405 1.384 . S
N2404 C2400 1.427 . S
N2404 C2401 1.384 . S
N2405 C2397 1.427 . S
N2405 C2403 1.384 . S
H2406 C2412 0.930 . S
H2407 C2416 0.930 . S
H2408 C2421 0.929 . S
H2409 C2419 0.929 . S
H2410 C2414 0.929 . S
H2411 C2420 0.929 . S
C2412 H2406 0.930 . S
C2412 C2413 1.367 . S
C2412 C2420 1.378 . S
C2413 C2412 1.367 . S
C2413 C2421 1.433 . S
C2414 H2410 0.929 . S
C2414 C2416 1.378 . S
C2414 C2418 1.350 . S
C2415 C2418 1.463 1_655 S
C2415 C2420 1.350 . S
C2415 N2423 1.427 . S
C2416 H2407 0.930 . S
C2416 C2414 1.378 . S
C2416 C2417 1.367 . S
C2417 C2416 1.367 . S
C2417 C2419 1.433 . S
C2418 C2414 1.350 . S
C2418 C2415 1.463 1_455 S
C2418 N2422 1.427 . S
C2419 H2409 0.929 . S
C2419 C2417 1.433 . S
C2419 N2422 1.384 . S
C2420 H2411 0.929 . S
C2420 C2412 1.378 . S
C2420 C2415 1.350 . S
C2421 H2408 0.929 . S
C2421 C2413 1.433 . S
C2421 N2423 1.384 . S
N2422 C2418 1.427 . S
N2422 C2419 1.384 . S
N2423 C2415 1.427 . S
N2423 C2421 1.384 . S
H2424 C2430 0.930 . S
H2425 C2434 0.930 . S
H2426 C2439 0.929 . S
H2427 C2437 0.929 . S
H2428 C2432 0.929 . S
H2429 C2438 0.929 . S
C2430 H2424 0.930 . S
C2430 C2431 1.367 1_455 S
C2430 C2438 1.378 . S
C2431 C2430 1.367 1_655 S
C2431 C2439 1.433 . S
C2432 H2428 0.929 . S
C2432 C2434 1.378 . S
C2432 C2436 1.350 . S
C2433 C2436 1.463 . S
C2433 C2438 1.350 1_655 S
C2433 N2441 1.427 . S
C2434 H2425 0.930 . S
C2434 C2432 1.378 . S
C2434 C2435 1.367 . S
C2435 C2434 1.367 . S
C2435 C2437 1.433 1_655 S
C2436 C2432 1.350 . S
C2436 C2433 1.463 . S
C2436 N2440 1.427 1_655 S
C2437 H2427 0.929 . S
C2437 C2435 1.433 1_455 S
C2437 N2440 1.384 . S
C2438 H2429 0.929 . S
C2438 C2430 1.378 . S
C2438 C2433 1.350 1_455 S
C2439 H2426 0.929 . S
C2439 C2431 1.433 . S
C2439 N2441 1.384 . S
N2440 C2436 1.427 1_455 S
N2440 C2437 1.384 . S
N2441 C2433 1.427 . S
N2441 C2439 1.384 . S
H2442 C2448 0.930 . S
H2443 C2452 0.930 . S
H2444 C2457 0.929 . S
H2445 C2455 0.929 . S
H2446 C2450 0.929 . S
H2447 C2456 0.929 . S
C2448 H2442 0.930 . S
C2448 C2449 1.367 . S
C2448 C2456 1.378 . S
C2449 C2448 1.367 . S
C2449 C2457 1.433 . S
C2450 H2446 0.929 . S
C2450 C2452 1.378 . S
C2450 C2454 1.350 . S
C2451 C2454 1.463 . S
C2451 C2456 1.350 . S
C2451 N2459 1.427 . S
C2452 H2443 0.930 . S
C2452 C2450 1.378 . S
C2452 C2453 1.367 . S
C2453 C2452 1.367 . S
C2453 C2455 1.433 . S
C2454 C2450 1.350 . S
C2454 C2451 1.463 . S
C2454 N2458 1.427 . S
C2455 H2445 0.929 . S
C2455 C2453 1.433 . S
C2455 N2458 1.384 . S
C2456 H2447 0.929 . S
C2456 C2448 1.378 . S
C2456 C2451 1.350 . S
C2457 H2444 0.929 . S
C2457 C2449 1.433 . S
C2457 N2459 1.384 . S
N2458 C2454 1.427 . S
N2458 C2455 1.384 . S
N2459 C2451 1.427 . S
N2459 C2457 1.384 . S
H2460 C2466 0.930 . S
H2461 C2470 0.930 . S
H2462 C2475 0.929 . S
H2463 C2473 0.929 . S
H2464 C2468 0.929 . S
H2465 C2474 0.929 . S
C2466 H2460 0.930 . S
C2466 C2467 1.367 . S
C2466 C2474 1.378 . S
C2467 C2466 1.367 . S
C2467 C2475 1.433 . S
C2468 H2464 0.929 . S
C2468 C2470 1.378 . S
C2468 C2472 1.350 . S
C2469 C2472 1.463 1_545 S
C2469 C2474 1.350 . S
C2469 N2477 1.427 . S
C2470 H2461 0.930 . S
C2470 C2468 1.378 . S
C2470 C2471 1.367 . S
C2471 C2470 1.367 . S
C2471 C2473 1.433 . S
C2472 C2468 1.350 . S
C2472 C2469 1.463 1_565 S
C2472 N2476 1.427 . S
C2473 H2463 0.929 . S
C2473 C2471 1.433 . S
C2473 N2476 1.384 . S
C2474 H2465 0.929 . S
C2474 C2466 1.378 . S
C2474 C2469 1.350 . S
C2475 H2462 0.929 . S
C2475 C2467 1.433 . S
C2475 N2477 1.384 . S
N2476 C2472 1.427 . S
N2476 C2473 1.384 . S
N2477 C2469 1.427 . S
N2477 C2475 1.384 . S
H2478 C2484 0.930 . S
H2479 C2488 0.930 . S
H2480 C2493 0.929 . S
H2481 C2491 0.929 . S
H2482 C2486 0.929 . S
H2483 C2492 0.929 . S
C2484 H2478 0.930 . S
C2484 C2485 1.407 . S
C2484 C2492 1.378 . S
C2485 C2484 1.407 . S
C2485 C2493 1.395 1_556 S
C2486 H2482 0.929 . S
C2486 C2488 1.378 . S
C2486 C2490 1.350 1_554 S
C2487 C2490 1.463 . S
C2487 C2492 1.350 . S
C2487 N2495 1.427 1_556 S
C2488 H2479 0.930 . S
C2488 C2486 1.378 . S
C2488 C2489 1.367 1_554 S
C2489 C2488 1.367 1_556 S
C2489 C2491 1.433 . S
C2490 C2486 1.350 1_556 S
C2490 C2487 1.463 . S
C2490 N2494 1.427 . S
C2491 H2481 0.929 . S
C2491 C2489 1.433 . S
C2491 N2494 1.384 . S
C2492 H2483 0.929 . S
C2492 C2484 1.378 . S
C2492 C2487 1.350 . S
C2493 H2480 0.929 . S
C2493 C2485 1.395 1_554 S
C2493 N2495 1.384 . S
N2494 C2490 1.427 . S
N2494 C2491 1.384 . S
N2495 C2487 1.427 1_554 S
N2495 C2493 1.384 . S
H2496 C2502 0.930 . S
H2497 C2506 0.930 . S
H2498 C2511 0.929 . S
H2499 C2509 0.929 . S
H2500 C2504 0.929 . S
H2501 C2510 0.929 . S
C2502 H2496 0.930 . S
C2502 C2503 1.367 1_655 S
C2502 C2510 1.378 . S
C2503 C2502 1.367 1_455 S
C2503 C2511 1.433 . S
C2504 H2500 0.929 . S
C2504 C2506 1.378 . S
C2504 C2508 1.350 1_565 S
C2505 C2508 1.463 . S
C2505 C2510 1.350 1_455 S
C2505 N2513 1.427 . S
C2506 H2497 0.930 . S
C2506 C2504 1.378 . S
C2506 C2507 1.367 . S
C2507 C2506 1.367 . S
C2507 C2509 1.433 1_455 S
C2508 C2504 1.350 1_545 S
C2508 C2505 1.463 . S
C2508 N2512 1.427 1_445 S
C2509 H2499 0.929 . S
C2509 C2507 1.433 1_655 S
C2509 N2512 1.384 . S
C2510 H2501 0.929 . S
C2510 C2502 1.378 . S
C2510 C2505 1.350 1_655 S
C2511 H2498 0.929 . S
C2511 C2503 1.433 . S
C2511 N2513 1.384 . S
N2512 C2508 1.427 1_665 S
N2512 C2509 1.384 . S
N2513 C2505 1.427 . S
N2513 C2511 1.384 . S
H2514 C2520 0.930 . S
H2515 C2524 0.930 . S
H2516 C2529 0.929 . S
H2517 C2527 0.929 . S
H2518 C2522 0.929 . S
H2519 C2528 0.929 . S
C2520 H2514 0.930 . S
C2520 C2521 1.367 . S
C2520 C2528 1.378 . S
C2521 C2520 1.367 . S
C2521 C2529 1.433 . S
C2522 H2518 0.929 . S
C2522 C2524 1.378 . S
C2522 C2526 1.350 . S
C2523 C2526 1.463 . S
C2523 C2528 1.350 . S
C2523 N2531 1.427 . S
C2524 H2515 0.930 . S
C2524 C2522 1.378 . S
C2524 C2525 1.367 . S
C2525 C2524 1.367 . S
C2525 C2527 1.433 . S
C2526 C2522 1.350 . S
C2526 C2523 1.463 . S
C2526 N2530 1.427 . S
C2527 H2517 0.929 . S
C2527 C2525 1.433 . S
C2527 N2530 1.384 . S
C2528 H2519 0.929 . S
C2528 C2520 1.378 . S
C2528 C2523 1.350 . S
C2529 H2516 0.929 . S
C2529 C2521 1.433 . S
C2529 N2531 1.384 . S
N2530 C2526 1.427 . S
N2530 C2527 1.384 . S
N2531 C2523 1.427 . S
N2531 C2529 1.384 . S
H2532 C2538 0.930 . S
H2533 C2542 0.930 . S
H2534 C2547 0.929 . S
H2535 C2545 0.929 . S
H2536 C2540 0.929 . S
H2537 C2546 0.929 . S
C2538 H2532 0.930 . S
C2538 C2539 1.367 . S
C2538 C2546 1.378 . S
C2539 C2538 1.367 . S
C2539 C2547 1.433 . S
C2540 H2536 0.929 . S
C2540 C2542 1.378 . S
C2540 C2544 1.350 . S
C2541 C2544 1.463 1_556 S
C2541 C2546 1.350 . S
C2541 N2549 1.427 . S
C2542 H2533 0.930 . S
C2542 C2540 1.378 . S
C2542 C2543 1.367 . S
C2543 C2542 1.367 . S
C2543 C2545 1.433 . S
C2544 C2540 1.350 . S
C2544 C2541 1.463 1_554 S
C2544 N2548 1.427 . S
C2545 H2535 0.929 . S
C2545 C2543 1.433 . S
C2545 N2548 1.384 . S
C2546 H2537 0.929 . S
C2546 C2538 1.378 . S
C2546 C2541 1.350 . S
C2547 H2534 0.929 . S
C2547 C2539 1.433 . S
C2547 N2549 1.384 . S
N2548 C2544 1.427 . S
N2548 C2545 1.384 . S
N2549 C2541 1.427 . S
N2549 C2547 1.384 . S
H2550 C2556 0.930 . S
H2551 C2560 0.930 . S
H2552 C2565 0.929 . S
H2553 C2563 0.929 . S
H2554 C2558 0.929 . S
H2555 C2564 0.929 . S
C2556 H2550 0.930 . S
C2556 C2557 1.367 . S
C2556 C2564 1.378 . S
C2557 C2556 1.367 . S
C2557 C2565 1.433 . S
C2558 H2554 0.929 . S
C2558 C2560 1.378 . S
C2558 C2562 1.350 . S
C2559 C2562 1.463 . S
C2559 C2564 1.350 . S
C2559 N2567 1.427 . S
C2560 H2551 0.930 . S
C2560 C2558 1.378 . S
C2560 C2561 1.367 . S
C2561 C2560 1.367 . S
C2561 C2563 1.433 . S
C2562 C2558 1.350 . S
C2562 C2559 1.463 . S
C2562 N2566 1.427 . S
C2563 H2553 0.929 . S
C2563 C2561 1.433 . S
C2563 N2566 1.384 . S
C2564 H2555 0.929 . S
C2564 C2556 1.378 . S
C2564 C2559 1.350 . S
C2565 H2552 0.929 . S
C2565 C2557 1.433 . S
C2565 N2567 1.384 . S
N2566 C2562 1.427 . S
N2566 C2563 1.384 . S
N2567 C2559 1.427 . S
N2567 C2565 1.384 . S
H2568 C2574 0.930 . S
H2569 C2578 0.930 . S
H2570 C2583 0.929 . S
H2571 C2581 0.929 . S
H2572 C2576 0.929 . S
H2573 C2582 0.929 . S
C2574 H2568 0.930 . S
C2574 C2575 1.367 . S
C2574 C2582 1.378 . S
C2575 C2574 1.367 . S
C2575 C2583 1.433 . S
C2576 H2572 0.929 . S
C2576 C2578 1.378 . S
C2576 C2580 1.350 . S
C2577 C2580 1.463 . S
C2577 C2582 1.350 . S
C2577 N2585 1.427 . S
C2578 H2569 0.930 . S
C2578 C2576 1.378 . S
C2578 C2579 1.367 . S
C2579 C2578 1.367 . S
C2579 C2581 1.433 . S
C2580 C2576 1.350 . S
C2580 C2577 1.463 . S
C2580 N2584 1.427 . S
C2581 H2571 0.929 . S
C2581 C2579 1.433 . S
C2581 N2584 1.384 . S
C2582 H2573 0.929 . S
C2582 C2574 1.378 . S
C2582 C2577 1.350 . S
C2583 H2570 0.929 . S
C2583 C2575 1.433 . S
C2583 N2585 1.384 . S
N2584 C2580 1.427 . S
N2584 C2581 1.384 . S
N2585 C2577 1.427 . S
N2585 C2583 1.384 . S
H2586 C2592 0.930 . S
H2587 C2596 0.930 . S
H2588 C2601 0.929 . S
H2589 C2599 0.929 . S
H2590 C2594 0.929 . S
H2591 C2600 0.929 . S
C2592 H2586 0.930 . S
C2592 C2593 1.367 . S
C2592 C2600 1.378 . S
C2593 C2592 1.367 . S
C2593 C2601 1.433 . S
C2594 H2590 0.929 . S
C2594 C2596 1.378 . S
C2594 C2598 1.350 . S
C2595 C2598 1.463 . S
C2595 C2600 1.350 . S
C2595 N2603 1.427 . S
C2596 H2587 0.930 . S
C2596 C2594 1.378 . S
C2596 C2597 1.367 . S
C2597 C2596 1.367 . S
C2597 C2599 1.433 . S
C2598 C2594 1.350 . S
C2598 C2595 1.463 . S
C2598 N2602 1.427 . S
C2599 H2589 0.929 . S
C2599 C2597 1.433 . S
C2599 N2602 1.384 . S
C2600 H2591 0.929 . S
C2600 C2592 1.378 . S
C2600 C2595 1.350 . S
C2601 H2588 0.929 . S
C2601 C2593 1.433 . S
C2601 N2603 1.384 . S
N2602 C2598 1.427 . S
N2602 C2599 1.384 . S
N2603 C2595 1.427 . S
N2603 C2601 1.384 . S
H2604 C2610 0.930 . S
H2605 C2614 0.930 . S
H2606 C2619 0.929 . S
H2607 C2617 0.929 . S
H2608 C2612 0.929 . S
H2609 C2618 0.929 . S
C2610 H2604 0.930 . S
C2610 C2611 1.367 . S
C2610 C2618 1.378 . S
C2611 C2610 1.367 . S
C2611 C2619 1.433 . S
C2612 H2608 0.929 . S
C2612 C2614 1.378 . S
C2612 C2616 1.350 . S
C2613 C2616 1.463 . S
C2613 C2618 1.350 . S
C2613 N2621 1.427 . S
C2614 H2605 0.930 . S
C2614 C2612 1.378 . S
C2614 C2615 1.367 . S
C2615 C2614 1.367 . S
C2615 C2617 1.433 . S
C2616 C2612 1.350 . S
C2616 C2613 1.463 . S
C2616 N2620 1.427 . S
C2617 H2607 0.929 . S
C2617 C2615 1.433 . S
C2617 N2620 1.384 . S
C2618 H2609 0.929 . S
C2618 C2610 1.378 . S
C2618 C2613 1.350 . S
C2619 H2606 0.929 . S
C2619 C2611 1.433 . S
C2619 N2621 1.384 . S
N2620 C2616 1.427 . S
N2620 C2617 1.384 . S
N2621 C2613 1.427 . S
N2621 C2619 1.384 . S
H2622 C2628 0.930 . S
H2623 C2632 0.930 . S
H2624 C2637 0.929 . S
H2625 C2635 0.929 . S
H2626 C2630 0.929 . S
H2627 C2636 0.929 . S
C2628 H2622 0.930 . S
C2628 C2629 1.367 . S
C2628 C2636 1.378 . S
C2629 C2628 1.367 . S
C2629 C2637 1.433 . S
C2630 H2626 0.929 . S
C2630 C2632 1.378 . S
C2630 C2634 1.350 . S
C2631 C2634 1.463 1_565 S
C2631 C2636 1.350 . S
C2631 N2639 1.427 . S
C2632 H2623 0.930 . S
C2632 C2630 1.378 . S
C2632 C2633 1.367 . S
C2633 C2632 1.367 . S
C2633 C2635 1.433 . S
C2634 C2630 1.350 . S
C2634 C2631 1.463 1_545 S
C2634 N2638 1.427 . S
C2635 H2625 0.929 . S
C2635 C2633 1.433 . S
C2635 N2638 1.384 . S
C2636 H2627 0.929 . S
C2636 C2628 1.378 . S
C2636 C2631 1.350 . S
C2637 H2624 0.929 . S
C2637 C2629 1.433 . S
C2637 N2639 1.384 . S
N2638 C2634 1.427 . S
N2638 C2635 1.384 . S
N2639 C2631 1.427 . S
N2639 C2637 1.384 . S
H2640 C2646 0.930 . S
H2641 C2650 0.930 . S
H2642 C2655 0.932 . S
H2643 C2653 0.929 . S
H2644 C2648 0.929 . S
H2645 C2654 0.929 . S
C2646 H2640 0.930 . S
C2646 C2647 1.367 . S
C2646 C2654 1.378 . S
C2647 C2646 1.367 . S
C2647 C2655 1.431 1_554 S
C2648 H2644 0.929 . S
C2648 C2650 1.378 . S
C2648 C2652 1.350 . S
C2649 C2652 1.463 . S
C2649 C2654 1.350 . S
C2649 N2657 1.437 . S
C2650 H2641 0.930 . S
C2650 C2648 1.378 . S
C2650 C2651 1.367 . S
C2651 C2650 1.367 . S
C2651 C2653 1.433 . S
C2652 C2648 1.350 . S
C2652 C2649 1.463 . S
C2652 N2656 1.427 . S
C2653 H2643 0.929 . S
C2653 C2651 1.433 . S
C2653 N2656 1.384 . S
C2654 H2645 0.929 . S
C2654 C2646 1.378 . S
C2654 C2649 1.350 . S
C2655 H2642 0.932 . S
C2655 C2647 1.431 1_556 S
C2655 N2657 1.381 1_556 S
N2656 C2652 1.427 . S
N2656 C2653 1.384 . S
N2657 C2649 1.437 . S
N2657 C2655 1.381 1_554 S
H2658 C2664 0.930 . S
H2659 C2668 0.930 . S
H2660 C2673 0.929 . S
H2661 C2671 0.929 . S
H2662 C2666 0.929 . S
H2663 C2672 0.929 . S
C2664 H2658 0.930 . S
C2664 C2665 1.367 . S
C2664 C2672 1.378 . S
C2665 C2664 1.367 . S
C2665 C2673 1.433 . S
C2666 H2662 0.929 . S
C2666 C2668 1.378 . S
C2666 C2670 1.350 . S
C2667 C2670 1.463 1_545 S
C2667 C2672 1.350 . S
C2667 N2675 1.427 . S
C2668 H2659 0.930 . S
C2668 C2666 1.378 . S
C2668 C2669 1.367 . S
C2669 C2668 1.367 . S
C2669 C2671 1.433 . S
C2670 C2666 1.350 . S
C2670 C2667 1.463 1_565 S
C2670 N2674 1.427 . S
C2671 H2661 0.929 . S
C2671 C2669 1.433 . S
C2671 N2674 1.384 . S
C2672 H2663 0.929 . S
C2672 C2664 1.378 . S
C2672 C2667 1.350 . S
C2673 H2660 0.929 . S
C2673 C2665 1.433 . S
C2673 N2675 1.384 . S
N2674 C2670 1.427 . S
N2674 C2671 1.384 . S
N2675 C2667 1.427 . S
N2675 C2673 1.384 . S
H2676 C2682 0.930 . S
H2677 C2686 0.930 . S
H2678 C2691 0.929 . S
H2679 C2689 0.929 . S
H2680 C2684 0.929 . S
H2681 C2690 0.929 . S
C2682 H2676 0.930 . S
C2682 C2683 1.367 . S
C2682 C2690 1.378 . S
C2683 C2682 1.367 . S
C2683 C2691 1.433 . S
C2684 H2680 0.929 . S
C2684 C2686 1.378 . S
C2684 C2688 1.350 . S
C2685 C2688 1.463 . S
C2685 C2690 1.350 . S
C2685 N2693 1.427 . S
C2686 H2677 0.930 . S
C2686 C2684 1.378 . S
C2686 C2687 1.367 . S
C2687 C2686 1.367 . S
C2687 C2689 1.433 . S
C2688 C2684 1.350 . S
C2688 C2685 1.463 . S
C2688 N2692 1.427 . S
C2689 H2679 0.929 . S
C2689 C2687 1.433 . S
C2689 N2692 1.384 . S
C2690 H2681 0.929 . S
C2690 C2682 1.378 . S
C2690 C2685 1.350 . S
C2691 H2678 0.929 . S
C2691 C2683 1.433 . S
C2691 N2693 1.384 . S
N2692 C2688 1.427 . S
N2692 C2689 1.384 . S
N2693 C2685 1.427 . S
N2693 C2691 1.384 . S
H2694 C2700 0.930 . S
H2695 C2704 0.930 . S
H2696 C2709 0.929 . S
H2697 C2707 0.929 . S
H2698 C2702 0.929 . S
H2699 C2708 0.929 . S
C2700 H2694 0.930 . S
C2700 C2701 1.367 . S
C2700 C2708 1.378 . S
C2701 C2700 1.367 . S
C2701 C2709 1.433 . S
C2702 H2698 0.929 . S
C2702 C2704 1.378 . S
C2702 C2706 1.350 . S
C2703 C2706 1.463 1_554 S
C2703 C2708 1.350 . S
C2703 N2711 1.427 . S
C2704 H2695 0.930 . S
C2704 C2702 1.378 . S
C2704 C2705 1.367 . S
C2705 C2704 1.367 . S
C2705 C2707 1.433 . S
C2706 C2702 1.350 . S
C2706 C2703 1.463 1_556 S
C2706 N2710 1.427 . S
C2707 H2697 0.929 . S
C2707 C2705 1.433 . S
C2707 N2710 1.384 . S
C2708 H2699 0.929 . S
C2708 C2700 1.378 . S
C2708 C2703 1.350 . S
C2709 H2696 0.929 . S
C2709 C2701 1.433 . S
C2709 N2711 1.384 . S
N2710 C2706 1.427 . S
N2710 C2707 1.384 . S
N2711 C2703 1.427 . S
N2711 C2709 1.384 . S
H2712 C2718 0.930 . S
H2713 C2722 0.930 . S
H2714 C2727 0.929 . S
H2715 C2725 0.929 . S
H2716 C2720 0.929 . S
H2717 C2726 0.929 . S
C2718 H2712 0.930 . S
C2718 C2719 1.367 . S
C2718 C2726 1.378 . S
C2719 C2718 1.367 . S
C2719 C2727 1.433 . S
C2720 H2716 0.929 . S
C2720 C2722 1.378 . S
C2720 C2724 1.350 . S
C2721 C2724 1.463 . S
C2721 C2726 1.350 . S
C2721 N2729 1.427 . S
C2722 H2713 0.930 . S
C2722 C2720 1.378 . S
C2722 C2723 1.367 . S
C2723 C2722 1.367 . S
C2723 C2725 1.433 . S
C2724 C2720 1.350 . S
C2724 C2721 1.463 . S
C2724 N2728 1.427 . S
C2725 H2715 0.929 . S
C2725 C2723 1.433 . S
C2725 N2728 1.384 . S
C2726 H2717 0.929 . S
C2726 C2718 1.378 . S
C2726 C2721 1.350 . S
C2727 H2714 0.929 . S
C2727 C2719 1.433 . S
C2727 N2729 1.384 . S
N2728 C2724 1.427 . S
N2728 C2725 1.384 . S
N2729 C2721 1.427 . S
N2729 C2727 1.384 . S
H2730 C2736 0.930 . S
H2731 C2740 0.930 . S
H2732 C2745 0.929 . S
H2733 C2743 0.929 . S
H2734 C2738 0.929 . S
H2735 C2744 0.929 . S
C2736 H2730 0.930 . S
C2736 C2737 1.367 . S
C2736 C2744 1.378 . S
C2737 C2736 1.367 . S
C2737 C2745 1.433 . S
C2738 H2734 0.929 . S
C2738 C2740 1.378 . S
C2738 C2742 1.350 . S
C2739 C2742 1.463 . S
C2739 C2744 1.350 . S
C2739 N2747 1.427 . S
C2740 H2731 0.930 . S
C2740 C2738 1.378 . S
C2740 C2741 1.367 . S
C2741 C2740 1.367 . S
C2741 C2743 1.433 . S
C2742 C2738 1.350 . S
C2742 C2739 1.463 . S
C2742 N2746 1.427 . S
C2743 H2733 0.929 . S
C2743 C2741 1.433 . S
C2743 N2746 1.384 . S
C2744 H2735 0.929 . S
C2744 C2736 1.378 . S
C2744 C2739 1.350 . S
C2745 H2732 0.929 . S
C2745 C2737 1.433 . S
C2745 N2747 1.384 . S
N2746 C2742 1.427 . S
N2746 C2743 1.384 . S
N2747 C2739 1.427 . S
N2747 C2745 1.384 . S
H2748 C2754 0.930 . S
H2749 C2758 0.930 . S
H2750 C2763 0.929 . S
H2751 C2761 0.929 . S
H2752 C2756 0.929 . S
H2753 C2762 0.929 . S
C2754 H2748 0.930 . S
C2754 C2755 1.367 . S
C2754 C2762 1.378 . S
C2755 C2754 1.367 . S
C2755 C2763 1.433 . S
C2756 H2752 0.929 . S
C2756 C2758 1.378 . S
C2756 C2760 1.350 . S
C2757 C2760 1.463 . S
C2757 C2762 1.350 . S
C2757 N2765 1.427 . S
C2758 H2749 0.930 . S
C2758 C2756 1.378 . S
C2758 C2759 1.367 . S
C2759 C2758 1.367 . S
C2759 C2761 1.433 . S
C2760 C2756 1.350 . S
C2760 C2757 1.463 . S
C2760 N2764 1.427 . S
C2761 H2751 0.929 . S
C2761 C2759 1.433 . S
C2761 N2764 1.384 . S
C2762 H2753 0.929 . S
C2762 C2754 1.378 . S
C2762 C2757 1.350 . S
C2763 H2750 0.929 . S
C2763 C2755 1.433 . S
C2763 N2765 1.384 . S
N2764 C2760 1.427 . S
N2764 C2761 1.384 . S
N2765 C2757 1.427 . S
N2765 C2763 1.384 . S
H2766 C2772 0.930 . S
H2767 C2776 0.930 . S
H2768 C2781 0.929 . S
H2769 C2779 0.929 . S
H2770 C2774 0.929 . S
H2771 C2780 0.929 . S
C2772 H2766 0.930 . S
C2772 C2773 1.367 . S
C2772 C2780 1.378 . S
C2773 C2772 1.367 . S
C2773 C2781 1.433 . S
C2774 H2770 0.929 . S
C2774 C2776 1.378 . S
C2774 C2778 1.350 . S
C2775 C2778 1.463 . S
C2775 C2780 1.350 . S
C2775 N2783 1.427 . S
C2776 H2767 0.930 . S
C2776 C2774 1.378 . S
C2776 C2777 1.367 . S
C2777 C2776 1.367 . S
C2777 C2779 1.433 . S
C2778 C2774 1.350 . S
C2778 C2775 1.463 . S
C2778 N2782 1.427 . S
C2779 H2769 0.929 . S
C2779 C2777 1.433 . S
C2779 N2782 1.384 . S
C2780 H2771 0.929 . S
C2780 C2772 1.378 . S
C2780 C2775 1.350 . S
C2781 H2768 0.929 . S
C2781 C2773 1.433 . S
C2781 N2783 1.384 . S
N2782 C2778 1.427 . S
N2782 C2779 1.384 . S
N2783 C2775 1.427 . S
N2783 C2781 1.384 . S
H2784 C2790 0.930 . S
H2785 C2794 0.930 . S
H2786 C2799 0.929 . S
H2787 C2797 0.929 . S
H2788 C2792 0.929 . S
H2789 C2798 0.929 . S
C2790 H2784 0.930 . S
C2790 C2791 1.367 . S
C2790 C2798 1.378 . S
C2791 C2790 1.367 . S
C2791 C2799 1.433 . S
C2792 H2788 0.929 . S
C2792 C2794 1.378 . S
C2792 C2796 1.350 . S
C2793 C2796 1.463 . S
C2793 C2798 1.350 . S
C2793 N2801 1.427 . S
C2794 H2785 0.930 . S
C2794 C2792 1.378 . S
C2794 C2795 1.367 . S
C2795 C2794 1.367 . S
C2795 C2797 1.433 . S
C2796 C2792 1.350 . S
C2796 C2793 1.463 . S
C2796 N2800 1.427 . S
C2797 H2787 0.929 . S
C2797 C2795 1.433 . S
C2797 N2800 1.384 . S
C2798 H2789 0.929 . S
C2798 C2790 1.378 . S
C2798 C2793 1.350 . S
C2799 H2786 0.929 . S
C2799 C2791 1.433 . S
C2799 N2801 1.384 . S
N2800 C2796 1.427 . S
N2800 C2797 1.384 . S
N2801 C2793 1.427 . S
N2801 C2799 1.384 . S
H2802 C2808 0.930 . S
H2803 C2812 0.930 . S
H2804 C2817 0.929 . S
H2805 C2815 0.929 . S
H2806 C2810 0.929 . S
H2807 C2816 0.929 . S
C2808 H2802 0.930 . S
C2808 C2809 1.367 . S
C2808 C2816 1.378 . S
C2809 C2808 1.367 . S
C2809 C2817 1.433 . S
C2810 H2806 0.929 . S
C2810 C2812 1.378 . S
C2810 C2814 1.350 . S
C2811 C2814 1.463 . S
C2811 C2816 1.350 . S
C2811 N2819 1.427 . S
C2812 H2803 0.930 . S
C2812 C2810 1.378 . S
C2812 C2813 1.367 . S
C2813 C2812 1.367 . S
C2813 C2815 1.433 . S
C2814 C2810 1.350 . S
C2814 C2811 1.463 . S
C2814 N2818 1.427 . S
C2815 H2805 0.929 . S
C2815 C2813 1.433 . S
C2815 N2818 1.384 . S
C2816 H2807 0.929 . S
C2816 C2808 1.378 . S
C2816 C2811 1.350 . S
C2817 H2804 0.929 . S
C2817 C2809 1.433 . S
C2817 N2819 1.384 . S
N2818 C2814 1.427 . S
N2818 C2815 1.384 . S
N2819 C2811 1.427 . S
N2819 C2817 1.384 . S
H2820 C2826 0.930 . S
H2821 C2830 0.930 . S
H2822 C2835 0.929 . S
H2823 C2833 0.929 . S
H2824 C2828 0.929 . S
H2825 C2834 0.929 . S
C2826 H2820 0.930 . S
C2826 C2827 1.367 . S
C2826 C2834 1.378 . S
C2827 C2826 1.367 . S
C2827 C2835 1.433 . S
C2828 H2824 0.929 . S
C2828 C2830 1.378 . S
C2828 C2832 1.350 . S
C2829 C2832 1.463 . S
C2829 C2834 1.350 . S
C2829 N2837 1.427 . S
C2830 H2821 0.930 . S
C2830 C2828 1.378 . S
C2830 C2831 1.367 . S
C2831 C2830 1.367 . S
C2831 C2833 1.433 . S
C2832 C2828 1.350 . S
C2832 C2829 1.463 . S
C2832 N2836 1.427 . S
C2833 H2823 0.929 . S
C2833 C2831 1.433 . S
C2833 N2836 1.384 . S
C2834 H2825 0.929 . S
C2834 C2826 1.378 . S
C2834 C2829 1.350 . S
C2835 H2822 0.929 . S
C2835 C2827 1.433 . S
C2835 N2837 1.384 . S
N2836 C2832 1.427 . S
N2836 C2833 1.384 . S
N2837 C2829 1.427 . S
N2837 C2835 1.384 . S
H2838 C2844 0.930 . S
H2839 C2848 0.930 . S
H2840 C2853 0.929 . S
H2841 C2851 0.929 . S
H2842 C2846 0.929 . S
H2843 C2852 0.929 . S
C2844 H2838 0.930 . S
C2844 C2845 1.367 . S
C2844 C2852 1.378 . S
C2845 C2844 1.367 . S
C2845 C2853 1.433 . S
C2846 H2842 0.929 . S
C2846 C2848 1.378 . S
C2846 C2850 1.350 . S
C2847 C2850 1.463 . S
C2847 C2852 1.350 . S
C2847 N2855 1.427 . S
C2848 H2839 0.930 . S
C2848 C2846 1.378 . S
C2848 C2849 1.367 . S
C2849 C2848 1.367 . S
C2849 C2851 1.433 . S
C2850 C2846 1.350 . S
C2850 C2847 1.463 . S
C2850 N2854 1.427 . S
C2851 H2841 0.929 . S
C2851 C2849 1.433 . S
C2851 N2854 1.384 . S
C2852 H2843 0.929 . S
C2852 C2844 1.378 . S
C2852 C2847 1.350 . S
C2853 H2840 0.929 . S
C2853 C2845 1.433 . S
C2853 N2855 1.384 . S
N2854 C2850 1.427 . S
N2854 C2851 1.384 . S
N2855 C2847 1.427 . S
N2855 C2853 1.384 . S
H2856 C2862 0.930 . S
H2857 C2866 0.930 . S
H2858 C2871 0.929 . S
H2859 C2869 0.929 . S
H2860 C2864 0.929 . S
H2861 C2870 0.929 . S
C2862 H2856 0.930 . S
C2862 C2863 1.367 . S
C2862 C2870 1.378 . S
C2863 C2862 1.367 . S
C2863 C2871 1.433 . S
C2864 H2860 0.929 . S
C2864 C2866 1.378 . S
C2864 C2868 1.350 . S
C2865 C2868 1.463 . S
C2865 C2870 1.350 . S
C2865 N2873 1.427 . S
C2866 H2857 0.930 . S
C2866 C2864 1.378 . S
C2866 C2867 1.367 . S
C2867 C2866 1.367 . S
C2867 C2869 1.433 . S
C2868 C2864 1.350 . S
C2868 C2865 1.463 . S
C2868 N2872 1.427 . S
C2869 H2859 0.929 . S
C2869 C2867 1.433 . S
C2869 N2872 1.384 . S
C2870 H2861 0.929 . S
C2870 C2862 1.378 . S
C2870 C2865 1.350 . S
C2871 H2858 0.929 . S
C2871 C2863 1.433 . S
C2871 N2873 1.384 . S
N2872 C2868 1.427 . S
N2872 C2869 1.384 . S
N2873 C2865 1.427 . S
N2873 C2871 1.384 . S
H2874 C2880 0.930 . S
H2875 C2884 0.930 . S
H2876 C2889 0.929 . S
H2877 C2887 0.929 . S
H2878 C2882 0.929 . S
H2879 C2888 0.929 . S
C2880 H2874 0.930 . S
C2880 C2881 1.367 . S
C2880 C2888 1.378 . S
C2881 C2880 1.367 . S
C2881 C2889 1.433 . S
C2882 H2878 0.929 . S
C2882 C2884 1.378 . S
C2882 C2886 1.350 . S
C2883 C2886 1.463 . S
C2883 C2888 1.350 . S
C2883 N2891 1.427 . S
C2884 H2875 0.930 . S
C2884 C2882 1.378 . S
C2884 C2885 1.367 . S
C2885 C2884 1.367 . S
C2885 C2887 1.433 . S
C2886 C2882 1.350 . S
C2886 C2883 1.463 . S
C2886 N2890 1.427 . S
C2887 H2877 0.929 . S
C2887 C2885 1.433 . S
C2887 N2890 1.384 . S
C2888 H2879 0.929 . S
C2888 C2880 1.378 . S
C2888 C2883 1.350 . S
C2889 H2876 0.929 . S
C2889 C2881 1.433 . S
C2889 N2891 1.384 . S
N2890 C2886 1.427 . S
N2890 C2887 1.384 . S
N2891 C2883 1.427 . S
N2891 C2889 1.384 . S
H2892 C2898 0.930 . S
H2893 C2902 0.930 . S
H2894 C2907 0.929 . S
H2895 C2905 0.929 . S
H2896 C2900 0.929 . S
H2897 C2906 0.929 . S
C2898 H2892 0.930 . S
C2898 C2899 1.367 . S
C2898 C2906 1.378 . S
C2899 C2898 1.367 . S
C2899 C2907 1.433 . S
C2900 H2896 0.929 . S
C2900 C2902 1.378 . S
C2900 C2904 1.350 . S
C2901 C2904 1.463 . S
C2901 C2906 1.350 . S
C2901 N2909 1.427 . S
C2902 H2893 0.930 . S
C2902 C2900 1.378 . S
C2902 C2903 1.367 . S
C2903 C2902 1.367 . S
C2903 C2905 1.433 . S
C2904 C2900 1.350 . S
C2904 C2901 1.463 . S
C2904 N2908 1.427 . S
C2905 H2895 0.929 . S
C2905 C2903 1.433 . S
C2905 N2908 1.384 . S
C2906 H2897 0.929 . S
C2906 C2898 1.378 . S
C2906 C2901 1.350 . S
C2907 H2894 0.929 . S
C2907 C2899 1.433 . S
C2907 N2909 1.384 . S
N2908 C2904 1.427 . S
N2908 C2905 1.384 . S
N2909 C2901 1.427 . S
N2909 C2907 1.384 . S
H2910 C2916 0.930 . S
H2911 C2920 0.930 . S
H2912 C2925 0.929 . S
H2913 C2923 0.929 . S
H2914 C2918 0.929 . S
H2915 C2924 0.929 . S
C2916 H2910 0.930 . S
C2916 C2917 1.367 . S
C2916 C2924 1.378 . S
C2917 C2916 1.367 . S
C2917 C2925 1.433 . S
C2918 H2914 0.929 . S
C2918 C2920 1.378 . S
C2918 C2922 1.350 . S
C2919 C2922 1.463 . S
C2919 C2924 1.350 . S
C2919 N2927 1.427 . S
C2920 H2911 0.930 . S
C2920 C2918 1.378 . S
C2920 C2921 1.367 . S
C2921 C2920 1.367 . S
C2921 C2923 1.433 . S
C2922 C2918 1.350 . S
C2922 C2919 1.463 . S
C2922 N2926 1.427 . S
C2923 H2913 0.929 . S
C2923 C2921 1.433 . S
C2923 N2926 1.384 . S
C2924 H2915 0.929 . S
C2924 C2916 1.378 . S
C2924 C2919 1.350 . S
C2925 H2912 0.929 . S
C2925 C2917 1.433 . S
C2925 N2927 1.384 . S
N2926 C2922 1.427 . S
N2926 C2923 1.384 . S
N2927 C2919 1.427 . S
N2927 C2925 1.384 . S
H2928 C2934 0.930 . S
H2929 C2938 0.930 . S
H2930 C2943 0.929 . S
H2931 C2941 0.929 . S
H2932 C2936 0.929 . S
H2933 C2942 0.929 . S
C2934 H2928 0.930 . S
C2934 C2935 1.367 . S
C2934 C2942 1.378 . S
C2935 C2934 1.367 . S
C2935 C2943 1.433 . S
C2936 H2932 0.929 . S
C2936 C2938 1.378 . S
C2936 C2940 1.350 . S
C2937 C2940 1.463 . S
C2937 C2942 1.350 . S
C2937 N2945 1.427 . S
C2938 H2929 0.930 . S
C2938 C2936 1.378 . S
C2938 C2939 1.367 . S
C2939 C2938 1.367 . S
C2939 C2941 1.433 . S
C2940 C2936 1.350 . S
C2940 C2937 1.463 . S
C2940 N2944 1.427 . S
C2941 H2931 0.929 . S
C2941 C2939 1.433 . S
C2941 N2944 1.384 . S
C2942 H2933 0.929 . S
C2942 C2934 1.378 . S
C2942 C2937 1.350 . S
C2943 H2930 0.929 . S
C2943 C2935 1.433 . S
C2943 N2945 1.384 . S
N2944 C2940 1.427 . S
N2944 C2941 1.384 . S
N2945 C2937 1.427 . S
N2945 C2943 1.384 . S
H2946 C2952 0.930 . S
H2947 C2956 0.930 . S
H2948 C2961 0.929 . S
H2949 C2959 0.929 . S
H2950 C2954 0.929 . S
H2951 C2960 0.929 . S
C2952 H2946 0.930 . S
C2952 C2953 1.367 . S
C2952 C2960 1.378 . S
C2953 C2952 1.367 . S
C2953 C2961 1.433 . S
C2954 H2950 0.929 . S
C2954 C2956 1.378 . S
C2954 C2958 1.350 . S
C2955 C2958 1.463 . S
C2955 C2960 1.350 . S
C2955 N2963 1.427 . S
C2956 H2947 0.930 . S
C2956 C2954 1.378 . S
C2956 C2957 1.367 . S
C2957 C2956 1.367 . S
C2957 C2959 1.433 . S
C2958 C2954 1.350 . S
C2958 C2955 1.463 . S
C2958 N2962 1.427 . S
C2959 H2949 0.929 . S
C2959 C2957 1.433 . S
C2959 N2962 1.384 . S
C2960 H2951 0.929 . S
C2960 C2952 1.378 . S
C2960 C2955 1.350 . S
C2961 H2948 0.929 . S
C2961 C2953 1.433 . S
C2961 N2963 1.384 . S
N2962 C2958 1.427 . S
N2962 C2959 1.384 . S
N2963 C2955 1.427 . S
N2963 C2961 1.384 . S
H2964 C2970 0.930 . S
H2965 C2974 0.930 . S
H2966 C2979 0.929 . S
H2967 C2977 0.929 . S
H2968 C2972 0.929 . S
H2969 C2978 0.929 . S
C2970 H2964 0.930 . S
C2970 C2971 1.367 . S
C2970 C2978 1.378 . S
C2971 C2970 1.367 . S
C2971 C2979 1.433 . S
C2972 H2968 0.929 . S
C2972 C2974 1.378 . S
C2972 C2976 1.350 . S
C2973 C2976 1.463 . S
C2973 C2978 1.350 . S
C2973 N2981 1.427 . S
C2974 H2965 0.930 . S
C2974 C2972 1.378 . S
C2974 C2975 1.367 . S
C2975 C2974 1.367 . S
C2975 C2977 1.433 . S
C2976 C2972 1.350 . S
C2976 C2973 1.463 . S
C2976 N2980 1.427 . S
C2977 H2967 0.929 . S
C2977 C2975 1.433 . S
C2977 N2980 1.384 . S
C2978 H2969 0.929 . S
C2978 C2970 1.378 . S
C2978 C2973 1.350 . S
C2979 H2966 0.929 . S
C2979 C2971 1.433 . S
C2979 N2981 1.384 . S
N2980 C2976 1.427 . S
N2980 C2977 1.384 . S
N2981 C2973 1.427 . S
N2981 C2979 1.384 . S
H2982 C2988 0.930 . S
H2983 C2992 0.930 . S
H2984 C2997 0.929 . S
H2985 C2995 0.929 . S
H2986 C2990 0.929 . S
H2987 C2996 0.929 . S
C2988 H2982 0.930 . S
C2988 C2989 1.367 . S
C2988 C2996 1.378 . S
C2989 C2988 1.367 . S
C2989 C2997 1.433 . S
C2990 H2986 0.929 . S
C2990 C2992 1.378 . S
C2990 C2994 1.350 . S
C2991 C2994 1.463 . S
C2991 C2996 1.350 . S
C2991 N2999 1.427 . S
C2992 H2983 0.930 . S
C2992 C2990 1.378 . S
C2992 C2993 1.367 . S
C2993 C2992 1.367 . S
C2993 C2995 1.433 . S
C2994 C2990 1.350 . S
C2994 C2991 1.463 . S
C2994 N2998 1.427 . S
C2995 H2985 0.929 . S
C2995 C2993 1.433 . S
C2995 N2998 1.384 . S
C2996 H2987 0.929 . S
C2996 C2988 1.378 . S
C2996 C2991 1.350 . S
C2997 H2984 0.929 . S
C2997 C2989 1.433 . S
C2997 N2999 1.384 . S
N2998 C2994 1.427 . S
N2998 C2995 1.384 . S
N2999 C2991 1.427 . S
N2999 C2997 1.384 . S
H3000 C3006 0.930 . S
H3001 C3010 0.930 . S
H3002 C3015 0.929 . S
H3003 C3013 0.929 . S
H3004 C3008 0.929 . S
H3005 C3014 0.929 . S
C3006 H3000 0.930 . S
C3006 C3007 1.367 . S
C3006 C3014 1.378 . S
C3007 C3006 1.367 . S
C3007 C3015 1.433 . S
C3008 H3004 0.929 . S
C3008 C3010 1.378 . S
C3008 C3012 1.350 . S
C3009 C3012 1.463 . S
C3009 C3014 1.350 . S
C3009 N3017 1.427 . S
C3010 H3001 0.930 . S
C3010 C3008 1.378 . S
C3010 C3011 1.367 . S
C3011 C3010 1.367 . S
C3011 C3013 1.433 . S
C3012 C3008 1.350 . S
C3012 C3009 1.463 . S
C3012 N3016 1.427 . S
C3013 H3003 0.929 . S
C3013 C3011 1.433 . S
C3013 N3016 1.384 . S
C3014 H3005 0.929 . S
C3014 C3006 1.378 . S
C3014 C3009 1.350 . S
C3015 H3002 0.929 . S
C3015 C3007 1.433 . S
C3015 N3017 1.384 . S
N3016 C3012 1.427 . S
N3016 C3013 1.384 . S
N3017 C3009 1.427 . S
N3017 C3015 1.384 . S
H3018 C3024 0.930 . S
H3019 C3028 0.930 . S
H3020 C3033 0.929 . S
H3021 C3031 0.929 . S
H3022 C3026 0.929 . S
H3023 C3032 0.929 . S
C3024 H3018 0.930 . S
C3024 C3025 1.367 . S
C3024 C3032 1.378 . S
C3025 C3024 1.367 . S
C3025 C3033 1.433 . S
C3026 H3022 0.929 . S
C3026 C3028 1.378 . S
C3026 C3030 1.350 . S
C3027 C3030 1.463 . S
C3027 C3032 1.350 . S
C3027 N3035 1.427 . S
C3028 H3019 0.930 . S
C3028 C3026 1.378 . S
C3028 C3029 1.367 . S
C3029 C3028 1.367 . S
C3029 C3031 1.433 . S
C3030 C3026 1.350 . S
C3030 C3027 1.463 . S
C3030 N3034 1.427 . S
C3031 H3021 0.929 . S
C3031 C3029 1.433 . S
C3031 N3034 1.384 . S
C3032 H3023 0.929 . S
C3032 C3024 1.378 . S
C3032 C3027 1.350 . S
C3033 H3020 0.929 . S
C3033 C3025 1.433 . S
C3033 N3035 1.384 . S
N3034 C3030 1.427 . S
N3034 C3031 1.384 . S
N3035 C3027 1.427 . S
N3035 C3033 1.384 . S
H3036 C3042 0.930 . S
H3037 C3046 0.930 . S
H3038 C3051 0.929 . S
H3039 C3049 0.929 . S
H3040 C3044 0.929 . S
H3041 C3050 0.929 . S
C3042 H3036 0.930 . S
C3042 C3043 1.367 . S
C3042 C3050 1.378 . S
C3043 C3042 1.367 . S
C3043 C3051 1.433 . S
C3044 H3040 0.929 . S
C3044 C3046 1.378 . S
C3044 C3048 1.350 . S
C3045 C3048 1.463 . S
C3045 C3050 1.350 . S
C3045 N3053 1.427 . S
C3046 H3037 0.930 . S
C3046 C3044 1.378 . S
C3046 C3047 1.367 . S
C3047 C3046 1.367 . S
C3047 C3049 1.433 . S
C3048 C3044 1.350 . S
C3048 C3045 1.463 . S
C3048 N3052 1.427 . S
C3049 H3039 0.929 . S
C3049 C3047 1.433 . S
C3049 N3052 1.384 . S
C3050 H3041 0.929 . S
C3050 C3042 1.378 . S
C3050 C3045 1.350 . S
C3051 H3038 0.929 . S
C3051 C3043 1.433 . S
C3051 N3053 1.384 . S
N3052 C3048 1.427 . S
N3052 C3049 1.384 . S
N3053 C3045 1.427 . S
N3053 C3051 1.384 . S
H3054 C3060 0.930 . S
H3055 C3064 0.930 . S
H3056 C3069 0.929 . S
H3057 C3067 0.929 . S
H3058 C3062 0.929 . S
H3059 C3068 0.929 . S
C3060 H3054 0.930 . S
C3060 C3061 1.367 . S
C3060 C3068 1.378 . S
C3061 C3060 1.367 . S
C3061 C3069 1.433 . S
C3062 H3058 0.929 . S
C3062 C3064 1.378 . S
C3062 C3066 1.350 . S
C3063 C3066 1.463 . S
C3063 C3068 1.350 . S
C3063 N3071 1.427 . S
C3064 H3055 0.930 . S
C3064 C3062 1.378 . S
C3064 C3065 1.367 . S
C3065 C3064 1.367 . S
C3065 C3067 1.433 . S
C3066 C3062 1.350 . S
C3066 C3063 1.463 . S
C3066 N3070 1.427 . S
C3067 H3057 0.929 . S
C3067 C3065 1.433 . S
C3067 N3070 1.384 . S
C3068 H3059 0.929 . S
C3068 C3060 1.378 . S
C3068 C3063 1.350 . S
C3069 H3056 0.929 . S
C3069 C3061 1.433 . S
C3069 N3071 1.384 . S
N3070 C3066 1.427 . S
N3070 C3067 1.384 . S
N3071 C3063 1.427 . S
N3071 C3069 1.384 . S
H3072 C3078 0.930 . S
H3073 C3082 0.930 . S
H3074 C3087 0.929 . S
H3075 C3085 0.929 . S
H3076 C3080 0.929 . S
H3077 C3086 0.929 . S
C3078 H3072 0.930 . S
C3078 C3079 1.367 . S
C3078 C3086 1.378 . S
C3079 C3078 1.367 . S
C3079 C3087 1.433 . S
C3080 H3076 0.929 . S
C3080 C3082 1.378 . S
C3080 C3084 1.350 . S
C3081 C3084 1.463 . S
C3081 C3086 1.350 . S
C3081 N3089 1.427 . S
C3082 H3073 0.930 . S
C3082 C3080 1.378 . S
C3082 C3083 1.367 . S
C3083 C3082 1.367 . S
C3083 C3085 1.433 . S
C3084 C3080 1.350 . S
C3084 C3081 1.463 . S
C3084 N3088 1.427 . S
C3085 H3075 0.929 . S
C3085 C3083 1.433 . S
C3085 N3088 1.384 . S
C3086 H3077 0.929 . S
C3086 C3078 1.378 . S
C3086 C3081 1.350 . S
C3087 H3074 0.929 . S
C3087 C3079 1.433 . S
C3087 N3089 1.384 . S
N3088 C3084 1.427 . S
N3088 C3085 1.384 . S
N3089 C3081 1.427 . S
N3089 C3087 1.384 . S
H3090 C3096 0.930 . S
H3091 C3100 0.930 . S
H3092 C3105 0.929 . S
H3093 C3103 0.929 . S
H3094 C3098 0.929 . S
H3095 C3104 0.929 . S
C3096 H3090 0.930 . S
C3096 C3097 1.367 . S
C3096 C3104 1.378 . S
C3097 C3096 1.367 . S
C3097 C3105 1.433 . S
C3098 H3094 0.929 . S
C3098 C3100 1.378 . S
C3098 C3102 1.350 . S
C3099 C3102 1.463 . S
C3099 C3104 1.350 . S
C3099 N3107 1.427 . S
C3100 H3091 0.930 . S
C3100 C3098 1.378 . S
C3100 C3101 1.367 . S
C3101 C3100 1.367 . S
C3101 C3103 1.433 . S
C3102 C3098 1.350 . S
C3102 C3099 1.463 . S
C3102 N3106 1.427 . S
C3103 H3093 0.929 . S
C3103 C3101 1.433 . S
C3103 N3106 1.384 . S
C3104 H3095 0.929 . S
C3104 C3096 1.378 . S
C3104 C3099 1.350 . S
C3105 H3092 0.929 . S
C3105 C3097 1.433 . S
C3105 N3107 1.384 . S
N3106 C3102 1.427 . S
N3106 C3103 1.384 . S
N3107 C3099 1.427 . S
N3107 C3105 1.384 . S
H3108 C3114 0.930 . S
H3109 C3118 0.930 . S
H3110 C3123 0.929 . S
H3111 C3121 0.929 . S
H3112 C3116 0.929 . S
H3113 C3122 0.929 . S
C3114 H3108 0.930 . S
C3114 C3115 1.367 . S
C3114 C3122 1.378 . S
C3115 C3114 1.367 . S
C3115 C3123 1.433 . S
C3116 H3112 0.929 . S
C3116 C3118 1.378 . S
C3116 C3120 1.350 . S
C3117 C3120 1.463 . S
C3117 C3122 1.350 . S
C3117 N3125 1.427 . S
C3118 H3109 0.930 . S
C3118 C3116 1.378 . S
C3118 C3119 1.367 . S
C3119 C3118 1.367 . S
C3119 C3121 1.433 . S
C3120 C3116 1.350 . S
C3120 C3117 1.463 . S
C3120 N3124 1.427 . S
C3121 H3111 0.929 . S
C3121 C3119 1.433 . S
C3121 N3124 1.384 . S
C3122 H3113 0.929 . S
C3122 C3114 1.378 . S
C3122 C3117 1.350 . S
C3123 H3110 0.929 . S
C3123 C3115 1.433 . S
C3123 N3125 1.384 . S
N3124 C3120 1.427 . S
N3124 C3121 1.384 . S
N3125 C3117 1.427 . S
N3125 C3123 1.384 . S
H3126 C3132 0.930 . S
H3127 C3136 0.930 . S
H3128 C3141 0.929 . S
H3129 C3139 0.929 . S
H3130 C3134 0.929 . S
H3131 C3140 0.929 . S
C3132 H3126 0.930 . S
C3132 C3133 1.367 . S
C3132 C3140 1.378 . S
C3133 C3132 1.367 . S
C3133 C3141 1.433 . S
C3134 H3130 0.929 . S
C3134 C3136 1.378 . S
C3134 C3138 1.350 . S
C3135 C3138 1.463 . S
C3135 C3140 1.350 . S
C3135 N3143 1.427 . S
C3136 H3127 0.930 . S
C3136 C3134 1.378 . S
C3136 C3137 1.367 . S
C3137 C3136 1.367 . S
C3137 C3139 1.433 . S
C3138 C3134 1.350 . S
C3138 C3135 1.463 . S
C3138 N3142 1.427 . S
C3139 H3129 0.929 . S
C3139 C3137 1.433 . S
C3139 N3142 1.384 . S
C3140 H3131 0.929 . S
C3140 C3132 1.378 . S
C3140 C3135 1.350 . S
C3141 H3128 0.929 . S
C3141 C3133 1.433 . S
C3141 N3143 1.384 . S
N3142 C3138 1.427 . S
N3142 C3139 1.384 . S
N3143 C3135 1.427 . S
N3143 C3141 1.384 . S
H3144 C3150 0.930 . S
H3145 C3154 0.930 . S
H3146 C3159 0.929 . S
H3147 C3157 0.929 . S
H3148 C3152 0.929 . S
H3149 C3158 0.929 . S
C3150 H3144 0.930 . S
C3150 C3151 1.367 . S
C3150 C3158 1.378 . S
C3151 C3150 1.367 . S
C3151 C3159 1.433 . S
C3152 H3148 0.929 . S
C3152 C3154 1.378 . S
C3152 C3156 1.350 . S
C3153 C3156 1.463 . S
C3153 C3158 1.350 . S
C3153 N3161 1.427 . S
C3154 H3145 0.930 . S
C3154 C3152 1.378 . S
C3154 C3155 1.367 . S
C3155 C3154 1.367 . S
C3155 C3157 1.433 . S
C3156 C3152 1.350 . S
C3156 C3153 1.463 . S
C3156 N3160 1.427 . S
C3157 H3147 0.929 . S
C3157 C3155 1.433 . S
C3157 N3160 1.384 . S
C3158 H3149 0.929 . S
C3158 C3150 1.378 . S
C3158 C3153 1.350 . S
C3159 H3146 0.929 . S
C3159 C3151 1.433 . S
C3159 N3161 1.384 . S
N3160 C3156 1.427 . S
N3160 C3157 1.384 . S
N3161 C3153 1.427 . S
N3161 C3159 1.384 . S
H3162 C3168 0.930 . S
H3163 C3172 0.930 . S
H3164 C3177 0.929 . S
H3165 C3175 0.929 . S
H3166 C3170 0.929 . S
H3167 C3176 0.929 . S
C3168 H3162 0.930 . S
C3168 C3169 1.367 . S
C3168 C3176 1.378 . S
C3169 C3168 1.367 . S
C3169 C3177 1.433 . S
C3170 H3166 0.929 . S
C3170 C3172 1.378 . S
C3170 C3174 1.350 . S
C3171 C3174 1.463 . S
C3171 C3176 1.350 . S
C3171 N3179 1.427 . S
C3172 H3163 0.930 . S
C3172 C3170 1.378 . S
C3172 C3173 1.367 . S
C3173 C3172 1.367 . S
C3173 C3175 1.433 . S
C3174 C3170 1.350 . S
C3174 C3171 1.463 . S
C3174 N3178 1.427 . S
C3175 H3165 0.929 . S
C3175 C3173 1.433 . S
C3175 N3178 1.384 . S
C3176 H3167 0.929 . S
C3176 C3168 1.378 . S
C3176 C3171 1.350 . S
C3177 H3164 0.929 . S
C3177 C3169 1.433 . S
C3177 N3179 1.384 . S
N3178 C3174 1.427 . S
N3178 C3175 1.384 . S
N3179 C3171 1.427 . S
N3179 C3177 1.384 . S
H3180 C3186 0.930 . S
H3181 C3190 0.930 . S
H3182 C3195 0.929 . S
H3183 C3193 0.929 . S
H3184 C3188 0.929 . S
H3185 C3194 0.929 . S
C3186 H3180 0.930 . S
C3186 C3187 1.367 . S
C3186 C3194 1.378 . S
C3187 C3186 1.367 . S
C3187 C3195 1.433 . S
C3188 H3184 0.929 . S
C3188 C3190 1.378 . S
C3188 C3192 1.350 . S
C3189 C3192 1.463 . S
C3189 C3194 1.350 . S
C3189 N3197 1.427 . S
C3190 H3181 0.930 . S
C3190 C3188 1.378 . S
C3190 C3191 1.367 . S
C3191 C3190 1.367 . S
C3191 C3193 1.433 . S
C3192 C3188 1.350 . S
C3192 C3189 1.463 . S
C3192 N3196 1.427 . S
C3193 H3183 0.929 . S
C3193 C3191 1.433 . S
C3193 N3196 1.384 . S
C3194 H3185 0.929 . S
C3194 C3186 1.378 . S
C3194 C3189 1.350 . S
C3195 H3182 0.929 . S
C3195 C3187 1.433 . S
C3195 N3197 1.384 . S
N3196 C3192 1.427 . S
N3196 C3193 1.384 . S
N3197 C3189 1.427 . S
N3197 C3195 1.384 . S
H3198 C3204 0.930 . S
H3199 C3208 0.930 . S
H3200 C3213 0.929 . S
H3201 C3211 0.929 . S
H3202 C3206 0.929 . S
H3203 C3212 0.929 . S
C3204 H3198 0.930 . S
C3204 C3205 1.367 . S
C3204 C3212 1.378 . S
C3205 C3204 1.367 . S
C3205 C3213 1.433 . S
C3206 H3202 0.929 . S
C3206 C3208 1.378 . S
C3206 C3210 1.350 . S
C3207 C3210 1.463 . S
C3207 C3212 1.350 . S
C3207 N3215 1.427 . S
C3208 H3199 0.930 . S
C3208 C3206 1.378 . S
C3208 C3209 1.367 . S
C3209 C3208 1.367 . S
C3209 C3211 1.433 . S
C3210 C3206 1.350 . S
C3210 C3207 1.463 . S
C3210 N3214 1.427 . S
C3211 H3201 0.929 . S
C3211 C3209 1.433 . S
C3211 N3214 1.384 . S
C3212 H3203 0.929 . S
C3212 C3204 1.378 . S
C3212 C3207 1.350 . S
C3213 H3200 0.929 . S
C3213 C3205 1.433 . S
C3213 N3215 1.384 . S
N3214 C3210 1.427 . S
N3214 C3211 1.384 . S
N3215 C3207 1.427 . S
N3215 C3213 1.384 . S
H3216 C3222 0.930 . S
H3217 C3226 0.930 . S
H3218 C3231 0.929 . S
H3219 C3229 0.929 . S
H3220 C3224 0.929 . S
H3221 C3230 0.929 . S
C3222 H3216 0.930 . S
C3222 C3223 1.367 . S
C3222 C3230 1.378 . S
C3223 C3222 1.367 . S
C3223 C3231 1.433 . S
C3224 H3220 0.929 . S
C3224 C3226 1.378 . S
C3224 C3228 1.350 . S
C3225 C3228 1.463 . S
C3225 C3230 1.350 . S
C3225 N3233 1.427 . S
C3226 H3217 0.930 . S
C3226 C3224 1.378 . S
C3226 C3227 1.367 . S
C3227 C3226 1.367 . S
C3227 C3229 1.433 . S
C3228 C3224 1.350 . S
C3228 C3225 1.463 . S
C3228 N3232 1.427 . S
C3229 H3219 0.929 . S
C3229 C3227 1.433 . S
C3229 N3232 1.384 . S
C3230 H3221 0.929 . S
C3230 C3222 1.378 . S
C3230 C3225 1.350 . S
C3231 H3218 0.929 . S
C3231 C3223 1.433 . S
C3231 N3233 1.384 . S
N3232 C3228 1.427 . S
N3232 C3229 1.384 . S
N3233 C3225 1.427 . S
N3233 C3231 1.384 . S
H3234 C3240 0.930 . S
H3235 C3244 0.930 . S
H3236 C3249 0.929 . S
H3237 C3247 0.929 . S
H3238 C3242 0.929 . S
H3239 C3248 0.929 . S
C3240 H3234 0.930 . S
C3240 C3241 1.367 . S
C3240 C3248 1.378 . S
C3241 C3240 1.367 . S
C3241 C3249 1.433 . S
C3242 H3238 0.929 . S
C3242 C3244 1.378 . S
C3242 C3246 1.350 . S
C3243 C3246 1.463 . S
C3243 C3248 1.350 . S
C3243 N3251 1.427 . S
C3244 H3235 0.930 . S
C3244 C3242 1.378 . S
C3244 C3245 1.367 . S
C3245 C3244 1.367 . S
C3245 C3247 1.433 . S
C3246 C3242 1.350 . S
C3246 C3243 1.463 . S
C3246 N3250 1.427 . S
C3247 H3237 0.929 . S
C3247 C3245 1.433 . S
C3247 N3250 1.384 . S
C3248 H3239 0.929 . S
C3248 C3240 1.378 . S
C3248 C3243 1.350 . S
C3249 H3236 0.929 . S
C3249 C3241 1.433 . S
C3249 N3251 1.384 . S
N3250 C3246 1.427 . S
N3250 C3247 1.384 . S
N3251 C3243 1.427 . S
N3251 C3249 1.384 . S
H3252 C3258 0.930 . S
H3253 C3262 0.930 . S
H3254 C3267 0.929 . S
H3255 C3265 0.929 . S
H3256 C3260 0.929 . S
H3257 C3266 0.929 . S
C3258 H3252 0.930 . S
C3258 C3259 1.367 . S
C3258 C3266 1.378 . S
C3259 C3258 1.367 . S
C3259 C3267 1.433 . S
C3260 H3256 0.929 . S
C3260 C3262 1.378 . S
C3260 C3264 1.350 . S
C3261 C3264 1.463 . S
C3261 C3266 1.350 . S
C3261 N3269 1.427 . S
C3262 H3253 0.930 . S
C3262 C3260 1.378 . S
C3262 C3263 1.367 . S
C3263 C3262 1.367 . S
C3263 C3265 1.433 . S
C3264 C3260 1.350 . S
C3264 C3261 1.463 . S
C3264 N3268 1.427 . S
C3265 H3255 0.929 . S
C3265 C3263 1.433 . S
C3265 N3268 1.384 . S
C3266 H3257 0.929 . S
C3266 C3258 1.378 . S
C3266 C3261 1.350 . S
C3267 H3254 0.929 . S
C3267 C3259 1.433 . S
C3267 N3269 1.384 . S
N3268 C3264 1.427 . S
N3268 C3265 1.384 . S
N3269 C3261 1.427 . S
N3269 C3267 1.384 . S
H3270 C3276 0.930 . S
H3271 C3280 0.930 . S
H3272 C3285 0.929 . S
H3273 C3283 0.929 . S
H3274 C3278 0.929 . S
H3275 C3284 0.929 . S
C3276 H3270 0.930 . S
C3276 C3277 1.367 . S
C3276 C3284 1.378 . S
C3277 C3276 1.367 . S
C3277 C3285 1.433 . S
C3278 H3274 0.929 . S
C3278 C3280 1.378 . S
C3278 C3282 1.350 . S
C3279 C3282 1.463 . S
C3279 C3284 1.350 . S
C3279 N3287 1.427 . S
C3280 H3271 0.930 . S
C3280 C3278 1.378 . S
C3280 C3281 1.367 . S
C3281 C3280 1.367 . S
C3281 C3283 1.433 . S
C3282 C3278 1.350 . S
C3282 C3279 1.463 . S
C3282 N3286 1.427 . S
C3283 H3273 0.929 . S
C3283 C3281 1.433 . S
C3283 N3286 1.384 . S
C3284 H3275 0.929 . S
C3284 C3276 1.378 . S
C3284 C3279 1.350 . S
C3285 H3272 0.929 . S
C3285 C3277 1.433 . S
C3285 N3287 1.384 . S
N3286 C3282 1.427 . S
N3286 C3283 1.384 . S
N3287 C3279 1.427 . S
N3287 C3285 1.384 . S
H3288 C3294 0.930 . S
H3289 C3298 0.930 . S
H3290 C3303 0.929 . S
H3291 C3301 0.929 . S
H3292 C3296 0.929 . S
H3293 C3302 0.929 . S
C3294 H3288 0.930 . S
C3294 C3295 1.367 . S
C3294 C3302 1.378 . S
C3295 C3294 1.367 . S
C3295 C3303 1.433 . S
C3296 H3292 0.929 . S
C3296 C3298 1.378 . S
C3296 C3300 1.350 . S
C3297 C3300 1.463 . S
C3297 C3302 1.350 . S
C3297 N3305 1.427 . S
C3298 H3289 0.930 . S
C3298 C3296 1.378 . S
C3298 C3299 1.367 . S
C3299 C3298 1.367 . S
C3299 C3301 1.433 . S
C3300 C3296 1.350 . S
C3300 C3297 1.463 . S
C3300 N3304 1.427 . S
C3301 H3291 0.929 . S
C3301 C3299 1.433 . S
C3301 N3304 1.384 . S
C3302 H3293 0.929 . S
C3302 C3294 1.378 . S
C3302 C3297 1.350 . S
C3303 H3290 0.929 . S
C3303 C3295 1.433 . S
C3303 N3305 1.384 . S
N3304 C3300 1.427 . S
N3304 C3301 1.384 . S
N3305 C3297 1.427 . S
N3305 C3303 1.384 . S
H3306 C3312 0.930 . S
H3307 C3316 0.930 . S
H3308 C3321 0.929 . S
H3309 C3319 0.929 . S
H3310 C3314 0.929 . S
H3311 C3320 0.929 . S
C3312 H3306 0.930 . S
C3312 C3313 1.367 . S
C3312 C3320 1.378 . S
C3313 C3312 1.367 . S
C3313 C3321 1.433 . S
C3314 H3310 0.929 . S
C3314 C3316 1.378 . S
C3314 C3318 1.350 . S
C3315 C3318 1.463 . S
C3315 C3320 1.350 . S
C3315 N3323 1.427 . S
C3316 H3307 0.930 . S
C3316 C3314 1.378 . S
C3316 C3317 1.367 . S
C3317 C3316 1.367 . S
C3317 C3319 1.433 . S
C3318 C3314 1.350 . S
C3318 C3315 1.463 . S
C3318 N3322 1.427 . S
C3319 H3309 0.929 . S
C3319 C3317 1.433 . S
C3319 N3322 1.384 . S
C3320 H3311 0.929 . S
C3320 C3312 1.378 . S
C3320 C3315 1.350 . S
C3321 H3308 0.929 . S
C3321 C3313 1.433 . S
C3321 N3323 1.384 . S
N3322 C3318 1.427 . S
N3322 C3319 1.384 . S
N3323 C3315 1.427 . S
N3323 C3321 1.384 . S
H3324 C3330 0.930 . S
H3325 C3334 0.930 . S
H3326 C3339 0.929 . S
H3327 C3337 0.929 . S
H3328 C3332 0.929 . S
H3329 C3338 0.929 . S
C3330 H3324 0.930 . S
C3330 C3331 1.367 . S
C3330 C3338 1.378 . S
C3331 C3330 1.367 . S
C3331 C3339 1.433 . S
C3332 H3328 0.929 . S
C3332 C3334 1.378 . S
C3332 C3336 1.350 . S
C3333 C3336 1.463 . S
C3333 C3338 1.350 . S
C3333 N3341 1.427 . S
C3334 H3325 0.930 . S
C3334 C3332 1.378 . S
C3334 C3335 1.367 . S
C3335 C3334 1.367 . S
C3335 C3337 1.433 . S
C3336 C3332 1.350 . S
C3336 C3333 1.463 . S
C3336 N3340 1.427 . S
C3337 H3327 0.929 . S
C3337 C3335 1.433 . S
C3337 N3340 1.384 . S
C3338 H3329 0.929 . S
C3338 C3330 1.378 . S
C3338 C3333 1.350 . S
C3339 H3326 0.929 . S
C3339 C3331 1.433 . S
C3339 N3341 1.384 . S
N3340 C3336 1.427 . S
N3340 C3337 1.384 . S
N3341 C3333 1.427 . S
N3341 C3339 1.384 . S
H3342 C3348 0.930 . S
H3343 C3352 0.930 . S
H3344 C3357 0.929 . S
H3345 C3355 0.929 . S
H3346 C3350 0.929 . S
H3347 C3356 0.929 . S
C3348 H3342 0.930 . S
C3348 C3349 1.367 . S
C3348 C3356 1.378 . S
C3349 C3348 1.367 . S
C3349 C3357 1.433 . S
C3350 H3346 0.929 . S
C3350 C3352 1.378 . S
C3350 C3354 1.350 . S
C3351 C3354 1.463 . S
C3351 C3356 1.350 . S
C3351 N3359 1.427 . S
C3352 H3343 0.930 . S
C3352 C3350 1.378 . S
C3352 C3353 1.367 . S
C3353 C3352 1.367 . S
C3353 C3355 1.433 . S
C3354 C3350 1.350 . S
C3354 C3351 1.463 . S
C3354 N3358 1.427 . S
C3355 H3345 0.929 . S
C3355 C3353 1.433 . S
C3355 N3358 1.384 . S
C3356 H3347 0.929 . S
C3356 C3348 1.378 . S
C3356 C3351 1.350 . S
C3357 H3344 0.929 . S
C3357 C3349 1.433 . S
C3357 N3359 1.384 . S
N3358 C3354 1.427 . S
N3358 C3355 1.384 . S
N3359 C3351 1.427 . S
N3359 C3357 1.384 . S
H3360 C3366 0.930 . S
H3361 C3370 0.930 . S
H3362 C3375 0.929 . S
H3363 C3373 0.929 . S
H3364 C3368 0.929 . S
H3365 C3374 0.929 . S
C3366 H3360 0.930 . S
C3366 C3367 1.367 . S
C3366 C3374 1.378 . S
C3367 C3366 1.367 . S
C3367 C3375 1.433 . S
C3368 H3364 0.929 . S
C3368 C3370 1.378 . S
C3368 C3372 1.350 . S
C3369 C3372 1.463 . S
C3369 C3374 1.350 . S
C3369 N3377 1.427 . S
C3370 H3361 0.930 . S
C3370 C3368 1.378 . S
C3370 C3371 1.367 . S
C3371 C3370 1.367 . S
C3371 C3373 1.433 . S
C3372 C3368 1.350 . S
C3372 C3369 1.463 . S
C3372 N3376 1.427 . S
C3373 H3363 0.929 . S
C3373 C3371 1.433 . S
C3373 N3376 1.384 . S
C3374 H3365 0.929 . S
C3374 C3366 1.378 . S
C3374 C3369 1.350 . S
C3375 H3362 0.929 . S
C3375 C3367 1.433 . S
C3375 N3377 1.384 . S
N3376 C3372 1.427 . S
N3376 C3373 1.384 . S
N3377 C3369 1.427 . S
N3377 C3375 1.384 . S
H3378 C3384 0.930 . S
H3379 C3388 0.930 . S
H3380 C3393 0.929 . S
H3381 C3391 0.929 . S
H3382 C3386 0.929 . S
H3383 C3392 0.929 . S
C3384 H3378 0.930 . S
C3384 C3385 1.367 . S
C3384 C3392 1.378 . S
C3385 C3384 1.367 . S
C3385 C3393 1.433 . S
C3386 H3382 0.929 . S
C3386 C3388 1.378 . S
C3386 C3390 1.350 . S
C3387 C3390 1.463 . S
C3387 C3392 1.350 . S
C3387 N3395 1.427 . S
C3388 H3379 0.930 . S
C3388 C3386 1.378 . S
C3388 C3389 1.367 . S
C3389 C3388 1.367 . S
C3389 C3391 1.433 . S
C3390 C3386 1.350 . S
C3390 C3387 1.463 . S
C3390 N3394 1.427 . S
C3391 H3381 0.929 . S
C3391 C3389 1.433 . S
C3391 N3394 1.384 . S
C3392 H3383 0.929 . S
C3392 C3384 1.378 . S
C3392 C3387 1.350 . S
C3393 H3380 0.929 . S
C3393 C3385 1.433 . S
C3393 N3395 1.384 . S
N3394 C3390 1.427 . S
N3394 C3391 1.384 . S
N3395 C3387 1.427 . S
N3395 C3393 1.384 . S
H3396 C3402 0.930 . S
H3397 C3406 0.930 . S
H3398 C3411 0.929 . S
H3399 C3409 0.929 . S
H3400 C3404 0.929 . S
H3401 C3410 0.929 . S
C3402 H3396 0.930 . S
C3402 C3403 1.367 . S
C3402 C3410 1.378 . S
C3403 C3402 1.367 . S
C3403 C3411 1.433 . S
C3404 H3400 0.929 . S
C3404 C3406 1.378 . S
C3404 C3408 1.350 . S
C3405 C3408 1.463 . S
C3405 C3410 1.350 . S
C3405 N3413 1.427 . S
C3406 H3397 0.930 . S
C3406 C3404 1.378 . S
C3406 C3407 1.367 . S
C3407 C3406 1.367 . S
C3407 C3409 1.433 . S
C3408 C3404 1.350 . S
C3408 C3405 1.463 . S
C3408 N3412 1.427 . S
C3409 H3399 0.929 . S
C3409 C3407 1.433 . S
C3409 N3412 1.384 . S
C3410 H3401 0.929 . S
C3410 C3402 1.378 . S
C3410 C3405 1.350 . S
C3411 H3398 0.929 . S
C3411 C3403 1.433 . S
C3411 N3413 1.384 . S
N3412 C3408 1.427 . S
N3412 C3409 1.384 . S
N3413 C3405 1.427 . S
N3413 C3411 1.384 . S
H3414 C3420 0.930 . S
H3415 C3424 0.930 . S
H3416 C3429 0.929 . S
H3417 C3427 0.929 . S
H3418 C3422 0.929 . S
H3419 C3428 0.929 . S
C3420 H3414 0.930 . S
C3420 C3421 1.367 . S
C3420 C3428 1.378 . S
C3421 C3420 1.367 . S
C3421 C3429 1.433 . S
C3422 H3418 0.929 . S
C3422 C3424 1.378 . S
C3422 C3426 1.350 . S
C3423 C3426 1.463 . S
C3423 C3428 1.350 . S
C3423 N3431 1.427 . S
C3424 H3415 0.930 . S
C3424 C3422 1.378 . S
C3424 C3425 1.367 . S
C3425 C3424 1.367 . S
C3425 C3427 1.433 . S
C3426 C3422 1.350 . S
C3426 C3423 1.463 . S
C3426 N3430 1.427 . S
C3427 H3417 0.929 . S
C3427 C3425 1.433 . S
C3427 N3430 1.384 . S
C3428 H3419 0.929 . S
C3428 C3420 1.378 . S
C3428 C3423 1.350 . S
C3429 H3416 0.929 . S
C3429 C3421 1.433 . S
C3429 N3431 1.384 . S
N3430 C3426 1.427 . S
N3430 C3427 1.384 . S
N3431 C3423 1.427 . S
N3431 C3429 1.384 . S
H3432 C3438 0.930 . S
H3433 C3442 0.930 . S
H3434 C3447 0.929 . S
H3435 C3445 0.929 . S
H3436 C3440 0.929 . S
H3437 C3446 0.929 . S
C3438 H3432 0.930 . S
C3438 C3439 1.367 . S
C3438 C3446 1.378 . S
C3439 C3438 1.367 . S
C3439 C3447 1.433 . S
C3440 H3436 0.929 . S
C3440 C3442 1.378 . S
C3440 C3444 1.350 . S
C3441 C3444 1.463 . S
C3441 C3446 1.350 . S
C3441 N3449 1.427 . S
C3442 H3433 0.930 . S
C3442 C3440 1.378 . S
C3442 C3443 1.367 . S
C3443 C3442 1.367 . S
C3443 C3445 1.433 . S
C3444 C3440 1.350 . S
C3444 C3441 1.463 . S
C3444 N3448 1.427 . S
C3445 H3435 0.929 . S
C3445 C3443 1.433 . S
C3445 N3448 1.384 . S
C3446 H3437 0.929 . S
C3446 C3438 1.378 . S
C3446 C3441 1.350 . S
C3447 H3434 0.929 . S
C3447 C3439 1.433 . S
C3447 N3449 1.384 . S
N3448 C3444 1.427 . S
N3448 C3445 1.384 . S
N3449 C3441 1.427 . S
N3449 C3447 1.384 . S
H3450 C3456 0.930 . S
H3451 C3460 0.930 . S
H3452 C3465 0.929 . S
H3453 C3463 0.929 . S
H3454 C3458 0.929 . S
H3455 C3464 0.929 . S
C3456 H3450 0.930 . S
C3456 C3457 1.367 . S
C3456 C3464 1.378 . S
C3457 C3456 1.367 . S
C3457 C3465 1.433 . S
C3458 H3454 0.929 . S
C3458 C3460 1.378 . S
C3458 C3462 1.350 . S
C3459 C3462 1.463 . S
C3459 C3464 1.350 . S
C3459 N3467 1.427 . S
C3460 H3451 0.930 . S
C3460 C3458 1.378 . S
C3460 C3461 1.367 . S
C3461 C3460 1.367 . S
C3461 C3463 1.433 . S
C3462 C3458 1.350 . S
C3462 C3459 1.463 . S
C3462 N3466 1.427 . S
C3463 H3453 0.929 . S
C3463 C3461 1.433 . S
C3463 N3466 1.384 . S
C3464 H3455 0.929 . S
C3464 C3456 1.378 . S
C3464 C3459 1.350 . S
C3465 H3452 0.929 . S
C3465 C3457 1.433 . S
C3465 N3467 1.384 . S
N3466 C3462 1.427 . S
N3466 C3463 1.384 . S
N3467 C3459 1.427 . S
N3467 C3465 1.384 . S
H3468 C3474 0.930 . S
H3469 C3478 0.930 . S
H3470 C3483 0.929 . S
H3471 C3481 0.929 . S
H3472 C3476 0.929 . S
H3473 C3482 0.929 . S
C3474 H3468 0.930 . S
C3474 C3475 1.367 . S
C3474 C3482 1.378 . S
C3475 C3474 1.367 . S
C3475 C3483 1.433 . S
C3476 H3472 0.929 . S
C3476 C3478 1.378 . S
C3476 C3480 1.350 . S
C3477 C3480 1.463 . S
C3477 C3482 1.350 . S
C3477 N3485 1.427 . S
C3478 H3469 0.930 . S
C3478 C3476 1.378 . S
C3478 C3479 1.367 . S
C3479 C3478 1.367 . S
C3479 C3481 1.433 . S
C3480 C3476 1.350 . S
C3480 C3477 1.463 . S
C3480 N3484 1.427 . S
C3481 H3471 0.929 . S
C3481 C3479 1.433 . S
C3481 N3484 1.384 . S
C3482 H3473 0.929 . S
C3482 C3474 1.378 . S
C3482 C3477 1.350 . S
C3483 H3470 0.929 . S
C3483 C3475 1.433 . S
C3483 N3485 1.384 . S
N3484 C3480 1.427 . S
N3484 C3481 1.384 . S
N3485 C3477 1.427 . S
N3485 C3483 1.384 . S
H3486 C3492 0.930 . S
H3487 C3496 0.930 . S
H3488 C3501 0.929 . S
H3489 C3499 0.929 . S
H3490 C3494 0.929 . S
H3491 C3500 0.929 . S
C3492 H3486 0.930 . S
C3492 C3493 1.367 . S
C3492 C3500 1.378 . S
C3493 C3492 1.367 . S
C3493 C3501 1.433 . S
C3494 H3490 0.929 . S
C3494 C3496 1.378 . S
C3494 C3498 1.350 . S
C3495 C3498 1.463 . S
C3495 C3500 1.350 . S
C3495 N3503 1.427 . S
C3496 H3487 0.930 . S
C3496 C3494 1.378 . S
C3496 C3497 1.367 . S
C3497 C3496 1.367 . S
C3497 C3499 1.433 . S
C3498 C3494 1.350 . S
C3498 C3495 1.463 . S
C3498 N3502 1.427 . S
C3499 H3489 0.929 . S
C3499 C3497 1.433 . S
C3499 N3502 1.384 . S
C3500 H3491 0.929 . S
C3500 C3492 1.378 . S
C3500 C3495 1.350 . S
C3501 H3488 0.929 . S
C3501 C3493 1.433 . S
C3501 N3503 1.384 . S
N3502 C3498 1.427 . S
N3502 C3499 1.384 . S
N3503 C3495 1.427 . S
N3503 C3501 1.384 . S
H3504 C3510 0.930 . S
H3505 C3514 0.930 . S
H3506 C3519 0.929 . S
H3507 C3517 0.929 . S
H3508 C3512 0.929 . S
H3509 C3518 0.929 . S
C3510 H3504 0.930 . S
C3510 C3511 1.367 . S
C3510 C3518 1.378 . S
C3511 C3510 1.367 . S
C3511 C3519 1.433 . S
C3512 H3508 0.929 . S
C3512 C3514 1.378 . S
C3512 C3516 1.350 . S
C3513 C3516 1.463 . S
C3513 C3518 1.350 . S
C3513 N3521 1.427 . S
C3514 H3505 0.930 . S
C3514 C3512 1.378 . S
C3514 C3515 1.367 . S
C3515 C3514 1.367 . S
C3515 C3517 1.433 . S
C3516 C3512 1.350 . S
C3516 C3513 1.463 . S
C3516 N3520 1.427 . S
C3517 H3507 0.929 . S
C3517 C3515 1.433 . S
C3517 N3520 1.384 . S
C3518 H3509 0.929 . S
C3518 C3510 1.378 . S
C3518 C3513 1.350 . S
C3519 H3506 0.929 . S
C3519 C3511 1.433 . S
C3519 N3521 1.384 . S
N3520 C3516 1.427 . S
N3520 C3517 1.384 . S
N3521 C3513 1.427 . S
N3521 C3519 1.384 . S
H3522 C3528 0.930 . S
H3523 C3532 0.930 . S
H3524 C3537 0.929 . S
H3525 C3535 0.929 . S
H3526 C3530 0.929 . S
H3527 C3536 0.929 . S
C3528 H3522 0.930 . S
C3528 C3529 1.367 . S
C3528 C3536 1.378 . S
C3529 C3528 1.367 . S
C3529 C3537 1.433 . S
C3530 H3526 0.929 . S
C3530 C3532 1.378 . S
C3530 C3534 1.350 . S
C3531 C3534 1.463 . S
C3531 C3536 1.350 . S
C3531 N3539 1.427 . S
C3532 H3523 0.930 . S
C3532 C3530 1.378 . S
C3532 C3533 1.367 . S
C3533 C3532 1.367 . S
C3533 C3535 1.433 . S
C3534 C3530 1.350 . S
C3534 C3531 1.463 . S
C3534 N3538 1.427 . S
C3535 H3525 0.929 . S
C3535 C3533 1.433 . S
C3535 N3538 1.384 . S
C3536 H3527 0.929 . S
C3536 C3528 1.378 . S
C3536 C3531 1.350 . S
C3537 H3524 0.929 . S
C3537 C3529 1.433 . S
C3537 N3539 1.384 . S
N3538 C3534 1.427 . S
N3538 C3535 1.384 . S
N3539 C3531 1.427 . S
N3539 C3537 1.384 . S
H3540 C3546 0.930 . S
H3541 C3550 0.930 . S
H3542 C3555 0.929 . S
H3543 C3553 0.929 . S
H3544 C3548 0.929 . S
H3545 C3554 0.929 . S
C3546 H3540 0.930 . S
C3546 C3547 1.367 . S
C3546 C3554 1.378 . S
C3547 C3546 1.367 . S
C3547 C3555 1.433 . S
C3548 H3544 0.929 . S
C3548 C3550 1.378 . S
C3548 C3552 1.350 . S
C3549 C3552 1.463 . S
C3549 C3554 1.350 . S
C3549 N3557 1.427 . S
C3550 H3541 0.930 . S
C3550 C3548 1.378 . S
C3550 C3551 1.367 . S
C3551 C3550 1.367 . S
C3551 C3553 1.433 . S
C3552 C3548 1.350 . S
C3552 C3549 1.463 . S
C3552 N3556 1.427 . S
C3553 H3543 0.929 . S
C3553 C3551 1.433 . S
C3553 N3556 1.384 . S
C3554 H3545 0.929 . S
C3554 C3546 1.378 . S
C3554 C3549 1.350 . S
C3555 H3542 0.929 . S
C3555 C3547 1.433 . S
C3555 N3557 1.384 . S
N3556 C3552 1.427 . S
N3556 C3553 1.384 . S
N3557 C3549 1.427 . S
N3557 C3555 1.384 . S
H3558 C3564 0.930 . S
H3559 C3568 0.930 . S
H3560 C3573 0.929 . S
H3561 C3571 0.929 . S
H3562 C3566 0.929 . S
H3563 C3572 0.929 . S
C3564 H3558 0.930 . S
C3564 C3565 1.367 . S
C3564 C3572 1.378 . S
C3565 C3564 1.367 . S
C3565 C3573 1.433 . S
C3566 H3562 0.929 . S
C3566 C3568 1.378 . S
C3566 C3570 1.350 . S
C3567 C3570 1.463 . S
C3567 C3572 1.350 . S
C3567 N3575 1.427 . S
C3568 H3559 0.930 . S
C3568 C3566 1.378 . S
C3568 C3569 1.367 . S
C3569 C3568 1.367 . S
C3569 C3571 1.433 . S
C3570 C3566 1.350 . S
C3570 C3567 1.463 . S
C3570 N3574 1.427 . S
C3571 H3561 0.929 . S
C3571 C3569 1.433 . S
C3571 N3574 1.384 . S
C3572 H3563 0.929 . S
C3572 C3564 1.378 . S
C3572 C3567 1.350 . S
C3573 H3560 0.929 . S
C3573 C3565 1.433 . S
C3573 N3575 1.384 . S
N3574 C3570 1.427 . S
N3574 C3571 1.384 . S
N3575 C3567 1.427 . S
N3575 C3573 1.384 . S
H3576 C3582 0.930 . S
H3577 C3586 0.930 . S
H3578 C3591 0.929 . S
H3579 C3589 0.929 . S
H3580 C3584 0.929 . S
H3581 C3590 0.929 . S
C3582 H3576 0.930 . S
C3582 C3583 1.367 . S
C3582 C3590 1.378 . S
C3583 C3582 1.367 . S
C3583 C3591 1.433 . S
C3584 H3580 0.929 . S
C3584 C3586 1.378 . S
C3584 C3588 1.350 . S
C3585 C3588 1.463 . S
C3585 C3590 1.350 . S
C3585 N3593 1.427 . S
C3586 H3577 0.930 . S
C3586 C3584 1.378 . S
C3586 C3587 1.367 . S
C3587 C3586 1.367 . S
C3587 C3589 1.433 . S
C3588 C3584 1.350 . S
C3588 C3585 1.463 . S
C3588 N3592 1.427 . S
C3589 H3579 0.929 . S
C3589 C3587 1.433 . S
C3589 N3592 1.384 . S
C3590 H3581 0.929 . S
C3590 C3582 1.378 . S
C3590 C3585 1.350 . S
C3591 H3578 0.929 . S
C3591 C3583 1.433 . S
C3591 N3593 1.384 . S
N3592 C3588 1.427 . S
N3592 C3589 1.384 . S
N3593 C3585 1.427 . S
N3593 C3591 1.384 . S
H3594 C3600 0.930 . S
H3595 C3604 0.930 . S
H3596 C3609 0.929 . S
H3597 C3607 0.929 . S
H3598 C3602 0.929 . S
H3599 C3608 0.929 . S
C3600 H3594 0.930 . S
C3600 C3601 1.367 . S
C3600 C3608 1.378 . S
C3601 C3600 1.367 . S
C3601 C3609 1.433 . S
C3602 H3598 0.929 . S
C3602 C3604 1.378 . S
C3602 C3606 1.350 . S
C3603 C3606 1.463 . S
C3603 C3608 1.350 . S
C3603 N3611 1.427 . S
C3604 H3595 0.930 . S
C3604 C3602 1.378 . S
C3604 C3605 1.367 . S
C3605 C3604 1.367 . S
C3605 C3607 1.433 . S
C3606 C3602 1.350 . S
C3606 C3603 1.463 . S
C3606 N3610 1.427 . S
C3607 H3597 0.929 . S
C3607 C3605 1.433 . S
C3607 N3610 1.384 . S
C3608 H3599 0.929 . S
C3608 C3600 1.378 . S
C3608 C3603 1.350 . S
C3609 H3596 0.929 . S
C3609 C3601 1.433 . S
C3609 N3611 1.384 . S
N3610 C3606 1.427 . S
N3610 C3607 1.384 . S
N3611 C3603 1.427 . S
N3611 C3609 1.384 . S
H3612 C3618 0.930 . S
H3613 C3622 0.930 . S
H3614 C3627 0.929 . S
H3615 C3625 0.929 . S
H3616 C3620 0.929 . S
H3617 C3626 0.929 . S
C3618 H3612 0.930 . S
C3618 C3619 1.367 . S
C3618 C3626 1.378 . S
C3619 C3618 1.367 . S
C3619 C3627 1.433 . S
C3620 H3616 0.929 . S
C3620 C3622 1.378 . S
C3620 C3624 1.350 . S
C3621 C3624 1.463 . S
C3621 C3626 1.350 . S
C3621 N3629 1.427 . S
C3622 H3613 0.930 . S
C3622 C3620 1.378 . S
C3622 C3623 1.367 . S
C3623 C3622 1.367 . S
C3623 C3625 1.433 . S
C3624 C3620 1.350 . S
C3624 C3621 1.463 . S
C3624 N3628 1.427 . S
C3625 H3615 0.929 . S
C3625 C3623 1.433 . S
C3625 N3628 1.384 . S
C3626 H3617 0.929 . S
C3626 C3618 1.378 . S
C3626 C3621 1.350 . S
C3627 H3614 0.929 . S
C3627 C3619 1.433 . S
C3627 N3629 1.384 . S
N3628 C3624 1.427 . S
N3628 C3625 1.384 . S
N3629 C3621 1.427 . S
N3629 C3627 1.384 . S
H3630 C3636 0.930 . S
H3631 C3640 0.930 . S
H3632 C3645 0.929 . S
H3633 C3643 0.929 . S
H3634 C3638 0.929 . S
H3635 C3644 0.929 . S
C3636 H3630 0.930 . S
C3636 C3637 1.367 . S
C3636 C3644 1.378 . S
C3637 C3636 1.367 . S
C3637 C3645 1.433 . S
C3638 H3634 0.929 . S
C3638 C3640 1.378 . S
C3638 C3642 1.350 . S
C3639 C3642 1.463 . S
C3639 C3644 1.350 . S
C3639 N3647 1.427 . S
C3640 H3631 0.930 . S
C3640 C3638 1.378 . S
C3640 C3641 1.367 . S
C3641 C3640 1.367 . S
C3641 C3643 1.433 . S
C3642 C3638 1.350 . S
C3642 C3639 1.463 . S
C3642 N3646 1.427 . S
C3643 H3633 0.929 . S
C3643 C3641 1.433 . S
C3643 N3646 1.384 . S
C3644 H3635 0.929 . S
C3644 C3636 1.378 . S
C3644 C3639 1.350 . S
C3645 H3632 0.929 . S
C3645 C3637 1.433 . S
C3645 N3647 1.384 . S
N3646 C3642 1.427 . S
N3646 C3643 1.384 . S
N3647 C3639 1.427 . S
N3647 C3645 1.384 . S
H3648 C3654 0.930 . S
H3649 C3658 0.930 . S
H3650 C3663 0.929 . S
H3651 C3661 0.929 . S
H3652 C3656 0.929 . S
H3653 C3662 0.929 . S
C3654 H3648 0.930 . S
C3654 C3655 1.367 . S
C3654 C3662 1.378 . S
C3655 C3654 1.367 . S
C3655 C3663 1.433 . S
C3656 H3652 0.929 . S
C3656 C3658 1.378 . S
C3656 C3660 1.350 . S
C3657 C3660 1.463 . S
C3657 C3662 1.350 . S
C3657 N3665 1.427 . S
C3658 H3649 0.930 . S
C3658 C3656 1.378 . S
C3658 C3659 1.367 . S
C3659 C3658 1.367 . S
C3659 C3661 1.433 . S
C3660 C3656 1.350 . S
C3660 C3657 1.463 . S
C3660 N3664 1.427 . S
C3661 H3651 0.929 . S
C3661 C3659 1.433 . S
C3661 N3664 1.384 . S
C3662 H3653 0.929 . S
C3662 C3654 1.378 . S
C3662 C3657 1.350 . S
C3663 H3650 0.929 . S
C3663 C3655 1.433 . S
C3663 N3665 1.384 . S
N3664 C3660 1.427 . S
N3664 C3661 1.384 . S
N3665 C3657 1.427 . S
N3665 C3663 1.384 . S
H3666 C3672 0.930 . S
H3667 C3676 0.930 . S
H3668 C3681 0.929 . S
H3669 C3679 0.929 . S
H3670 C3674 0.929 . S
H3671 C3680 0.929 . S
C3672 H3666 0.930 . S
C3672 C3673 1.367 . S
C3672 C3680 1.378 . S
C3673 C3672 1.367 . S
C3673 C3681 1.433 . S
C3674 H3670 0.929 . S
C3674 C3676 1.378 . S
C3674 C3678 1.350 . S
C3675 C3678 1.463 . S
C3675 C3680 1.350 . S
C3675 N3683 1.427 . S
C3676 H3667 0.930 . S
C3676 C3674 1.378 . S
C3676 C3677 1.367 . S
C3677 C3676 1.367 . S
C3677 C3679 1.433 . S
C3678 C3674 1.350 . S
C3678 C3675 1.463 . S
C3678 N3682 1.427 . S
C3679 H3669 0.929 . S
C3679 C3677 1.433 . S
C3679 N3682 1.384 . S
C3680 H3671 0.929 . S
C3680 C3672 1.378 . S
C3680 C3675 1.350 . S
C3681 H3668 0.929 . S
C3681 C3673 1.433 . S
C3681 N3683 1.384 . S
N3682 C3678 1.427 . S
N3682 C3679 1.384 . S
N3683 C3675 1.427 . S
N3683 C3681 1.384 . S
H3684 C3690 0.930 . S
H3685 C3694 0.930 . S
H3686 C3699 0.929 . S
H3687 C3697 0.929 . S
H3688 C3692 0.929 . S
H3689 C3698 0.929 . S
C3690 H3684 0.930 . S
C3690 C3691 1.367 . S
C3690 C3698 1.378 . S
C3691 C3690 1.367 . S
C3691 C3699 1.433 . S
C3692 H3688 0.929 . S
C3692 C3694 1.378 . S
C3692 C3696 1.350 . S
C3693 C3696 1.463 . S
C3693 C3698 1.350 . S
C3693 N3701 1.427 . S
C3694 H3685 0.930 . S
C3694 C3692 1.378 . S
C3694 C3695 1.367 . S
C3695 C3694 1.367 . S
C3695 C3697 1.433 . S
C3696 C3692 1.350 . S
C3696 C3693 1.463 . S
C3696 N3700 1.427 . S
C3697 H3687 0.929 . S
C3697 C3695 1.433 . S
C3697 N3700 1.384 . S
C3698 H3689 0.929 . S
C3698 C3690 1.378 . S
C3698 C3693 1.350 . S
C3699 H3686 0.929 . S
C3699 C3691 1.433 . S
C3699 N3701 1.384 . S
N3700 C3696 1.427 . S
N3700 C3697 1.384 . S
N3701 C3693 1.427 . S
N3701 C3699 1.384 . S
H3702 C3708 0.930 . S
H3703 C3712 0.930 . S
H3704 C3717 0.929 . S
H3705 C3715 0.929 . S
H3706 C3710 0.929 . S
H3707 C3716 0.929 . S
C3708 H3702 0.930 . S
C3708 C3709 1.367 . S
C3708 C3716 1.378 . S
C3709 C3708 1.367 . S
C3709 C3717 1.433 . S
C3710 H3706 0.929 . S
C3710 C3712 1.378 . S
C3710 C3714 1.350 . S
C3711 C3714 1.463 . S
C3711 C3716 1.350 . S
C3711 N3719 1.427 . S
C3712 H3703 0.930 . S
C3712 C3710 1.378 . S
C3712 C3713 1.367 . S
C3713 C3712 1.367 . S
C3713 C3715 1.433 . S
C3714 C3710 1.350 . S
C3714 C3711 1.463 . S
C3714 N3718 1.427 . S
C3715 H3705 0.929 . S
C3715 C3713 1.433 . S
C3715 N3718 1.384 . S
C3716 H3707 0.929 . S
C3716 C3708 1.378 . S
C3716 C3711 1.350 . S
C3717 H3704 0.929 . S
C3717 C3709 1.433 . S
C3717 N3719 1.384 . S
N3718 C3714 1.427 . S
N3718 C3715 1.384 . S
N3719 C3711 1.427 . S
N3719 C3717 1.384 . S
H3720 C3726 0.930 . S
H3721 C3730 0.930 . S
H3722 C3735 0.929 . S
H3723 C3733 0.929 . S
H3724 C3728 0.929 . S
H3725 C3734 0.929 . S
C3726 H3720 0.930 . S
C3726 C3727 1.367 . S
C3726 C3734 1.378 . S
C3727 C3726 1.367 . S
C3727 C3735 1.433 . S
C3728 H3724 0.929 . S
C3728 C3730 1.378 . S
C3728 C3732 1.350 . S
C3729 C3732 1.463 . S
C3729 C3734 1.350 . S
C3729 N3737 1.427 . S
C3730 H3721 0.930 . S
C3730 C3728 1.378 . S
C3730 C3731 1.367 . S
C3731 C3730 1.367 . S
C3731 C3733 1.433 . S
C3732 C3728 1.350 . S
C3732 C3729 1.463 . S
C3732 N3736 1.427 . S
C3733 H3723 0.929 . S
C3733 C3731 1.433 . S
C3733 N3736 1.384 . S
C3734 H3725 0.929 . S
C3734 C3726 1.378 . S
C3734 C3729 1.350 . S
C3735 H3722 0.929 . S
C3735 C3727 1.433 . S
C3735 N3737 1.384 . S
N3736 C3732 1.427 . S
N3736 C3733 1.384 . S
N3737 C3729 1.427 . S
N3737 C3735 1.384 . S
H3738 C3744 0.930 . S
H3739 C3748 0.930 . S
H3740 C3753 0.929 . S
H3741 C3751 0.929 . S
H3742 C3746 0.929 . S
H3743 C3752 0.929 . S
C3744 H3738 0.930 . S
C3744 C3745 1.367 . S
C3744 C3752 1.378 . S
C3745 C3744 1.367 . S
C3745 C3753 1.433 . S
C3746 H3742 0.929 . S
C3746 C3748 1.378 . S
C3746 C3750 1.350 . S
C3747 C3750 1.463 . S
C3747 C3752 1.350 . S
C3747 N3755 1.427 . S
C3748 H3739 0.930 . S
C3748 C3746 1.378 . S
C3748 C3749 1.367 . S
C3749 C3748 1.367 . S
C3749 C3751 1.433 . S
C3750 C3746 1.350 . S
C3750 C3747 1.463 . S
C3750 N3754 1.427 . S
C3751 H3741 0.929 . S
C3751 C3749 1.433 . S
C3751 N3754 1.384 . S
C3752 H3743 0.929 . S
C3752 C3744 1.378 . S
C3752 C3747 1.350 . S
C3753 H3740 0.929 . S
C3753 C3745 1.433 . S
C3753 N3755 1.384 . S
N3754 C3750 1.427 . S
N3754 C3751 1.384 . S
N3755 C3747 1.427 . S
N3755 C3753 1.384 . S
H3756 C3762 0.930 . S
H3757 C3766 0.930 . S
H3758 C3771 0.929 . S
H3759 C3769 0.929 . S
H3760 C3764 0.929 . S
H3761 C3770 0.929 . S
C3762 H3756 0.930 . S
C3762 C3763 1.367 . S
C3762 C3770 1.378 . S
C3763 C3762 1.367 . S
C3763 C3771 1.433 . S
C3764 H3760 0.929 . S
C3764 C3766 1.378 . S
C3764 C3768 1.350 . S
C3765 C3768 1.463 . S
C3765 C3770 1.350 . S
C3765 N3773 1.427 . S
C3766 H3757 0.930 . S
C3766 C3764 1.378 . S
C3766 C3767 1.367 . S
C3767 C3766 1.367 . S
C3767 C3769 1.433 . S
C3768 C3764 1.350 . S
C3768 C3765 1.463 . S
C3768 N3772 1.427 . S
C3769 H3759 0.929 . S
C3769 C3767 1.433 . S
C3769 N3772 1.384 . S
C3770 H3761 0.929 . S
C3770 C3762 1.378 . S
C3770 C3765 1.350 . S
C3771 H3758 0.929 . S
C3771 C3763 1.433 . S
C3771 N3773 1.384 . S
N3772 C3768 1.427 . S
N3772 C3769 1.384 . S
N3773 C3765 1.427 . S
N3773 C3771 1.384 . S
H3774 C3780 0.930 . S
H3775 C3784 0.930 . S
H3776 C3789 0.929 . S
H3777 C3787 0.929 . S
H3778 C3782 0.929 . S
H3779 C3788 0.929 . S
C3780 H3774 0.930 . S
C3780 C3781 1.367 . S
C3780 C3788 1.378 . S
C3781 C3780 1.367 . S
C3781 C3789 1.433 . S
C3782 H3778 0.929 . S
C3782 C3784 1.378 . S
C3782 C3786 1.350 . S
C3783 C3786 1.463 . S
C3783 C3788 1.350 . S
C3783 N3791 1.427 . S
C3784 H3775 0.930 . S
C3784 C3782 1.378 . S
C3784 C3785 1.367 . S
C3785 C3784 1.367 . S
C3785 C3787 1.433 . S
C3786 C3782 1.350 . S
C3786 C3783 1.463 . S
C3786 N3790 1.427 . S
C3787 H3777 0.929 . S
C3787 C3785 1.433 . S
C3787 N3790 1.384 . S
C3788 H3779 0.929 . S
C3788 C3780 1.378 . S
C3788 C3783 1.350 . S
C3789 H3776 0.929 . S
C3789 C3781 1.433 . S
C3789 N3791 1.384 . S
N3790 C3786 1.427 . S
N3790 C3787 1.384 . S
N3791 C3783 1.427 . S
N3791 C3789 1.384 . S
H3792 C3798 0.930 . S
H3793 C3802 0.930 . S
H3794 C3807 0.929 . S
H3795 C3805 0.929 . S
H3796 C3800 0.929 . S
H3797 C3806 0.929 . S
C3798 H3792 0.930 . S
C3798 C3799 1.367 . S
C3798 C3806 1.378 . S
C3799 C3798 1.367 . S
C3799 C3807 1.433 . S
C3800 H3796 0.929 . S
C3800 C3802 1.378 . S
C3800 C3804 1.350 . S
C3801 C3804 1.463 . S
C3801 C3806 1.350 . S
C3801 N3809 1.427 . S
C3802 H3793 0.930 . S
C3802 C3800 1.378 . S
C3802 C3803 1.367 . S
C3803 C3802 1.367 . S
C3803 C3805 1.433 . S
C3804 C3800 1.350 . S
C3804 C3801 1.463 . S
C3804 N3808 1.427 . S
C3805 H3795 0.929 . S
C3805 C3803 1.433 . S
C3805 N3808 1.384 . S
C3806 H3797 0.929 . S
C3806 C3798 1.378 . S
C3806 C3801 1.350 . S
C3807 H3794 0.929 . S
C3807 C3799 1.433 . S
C3807 N3809 1.384 . S
N3808 C3804 1.427 . S
N3808 C3805 1.384 . S
N3809 C3801 1.427 . S
N3809 C3807 1.384 . S
H3810 C3816 0.930 . S
H3811 C3820 0.930 . S
H3812 C3825 0.929 . S
H3813 C3823 0.929 . S
H3814 C3818 0.929 . S
H3815 C3824 0.929 . S
C3816 H3810 0.930 . S
C3816 C3817 1.367 . S
C3816 C3824 1.378 . S
C3817 C3816 1.367 . S
C3817 C3825 1.433 . S
C3818 H3814 0.929 . S
C3818 C3820 1.378 . S
C3818 C3822 1.350 . S
C3819 C3822 1.463 . S
C3819 C3824 1.350 . S
C3819 N3827 1.427 . S
C3820 H3811 0.930 . S
C3820 C3818 1.378 . S
C3820 C3821 1.367 . S
C3821 C3820 1.367 . S
C3821 C3823 1.433 . S
C3822 C3818 1.350 . S
C3822 C3819 1.463 . S
C3822 N3826 1.427 . S
C3823 H3813 0.929 . S
C3823 C3821 1.433 . S
C3823 N3826 1.384 . S
C3824 H3815 0.929 . S
C3824 C3816 1.378 . S
C3824 C3819 1.350 . S
C3825 H3812 0.929 . S
C3825 C3817 1.433 . S
C3825 N3827 1.384 . S
N3826 C3822 1.427 . S
N3826 C3823 1.384 . S
N3827 C3819 1.427 . S
N3827 C3825 1.384 . S
H3828 C3834 0.930 . S
H3829 C3838 0.930 . S
H3830 C3843 0.929 . S
H3831 C3841 0.929 . S
H3832 C3836 0.929 . S
H3833 C3842 0.929 . S
C3834 H3828 0.930 . S
C3834 C3835 1.367 . S
C3834 C3842 1.378 . S
C3835 C3834 1.367 . S
C3835 C3843 1.433 . S
C3836 H3832 0.929 . S
C3836 C3838 1.378 . S
C3836 C3840 1.350 . S
C3837 C3840 1.463 . S
C3837 C3842 1.350 . S
C3837 N3845 1.427 . S
C3838 H3829 0.930 . S
C3838 C3836 1.378 . S
C3838 C3839 1.367 . S
C3839 C3838 1.367 . S
C3839 C3841 1.433 . S
C3840 C3836 1.350 . S
C3840 C3837 1.463 . S
C3840 N3844 1.427 . S
C3841 H3831 0.929 . S
C3841 C3839 1.433 . S
C3841 N3844 1.384 . S
C3842 H3833 0.929 . S
C3842 C3834 1.378 . S
C3842 C3837 1.350 . S
C3843 H3830 0.929 . S
C3843 C3835 1.433 . S
C3843 N3845 1.384 . S
N3844 C3840 1.427 . S
N3844 C3841 1.384 . S
N3845 C3837 1.427 . S
N3845 C3843 1.384 . S
H3846 C3852 0.930 . S
H3847 C3856 0.930 . S
H3848 C3861 0.929 . S
H3849 C3859 0.929 . S
H3850 C3854 0.929 . S
H3851 C3860 0.929 . S
C3852 H3846 0.930 . S
C3852 C3853 1.367 . S
C3852 C3860 1.378 . S
C3853 C3852 1.367 . S
C3853 C3861 1.433 . S
C3854 H3850 0.929 . S
C3854 C3856 1.378 . S
C3854 C3858 1.350 . S
C3855 C3858 1.463 . S
C3855 C3860 1.350 . S
C3855 N3863 1.427 . S
C3856 H3847 0.930 . S
C3856 C3854 1.378 . S
C3856 C3857 1.367 . S
C3857 C3856 1.367 . S
C3857 C3859 1.433 . S
C3858 C3854 1.350 . S
C3858 C3855 1.463 . S
C3858 N3862 1.427 . S
C3859 H3849 0.929 . S
C3859 C3857 1.433 . S
C3859 N3862 1.384 . S
C3860 H3851 0.929 . S
C3860 C3852 1.378 . S
C3860 C3855 1.350 . S
C3861 H3848 0.929 . S
C3861 C3853 1.433 . S
C3861 N3863 1.384 . S
N3862 C3858 1.427 . S
N3862 C3859 1.384 . S
N3863 C3855 1.427 . S
N3863 C3861 1.384 . S
H3864 C3870 0.930 . S
H3865 C3874 0.930 . S
H3866 C3879 0.929 . S
H3867 C3877 0.929 . S
H3868 C3872 0.929 . S
H3869 C3878 0.929 . S
C3870 H3864 0.930 . S
C3870 C3871 1.367 . S
C3870 C3878 1.378 . S
C3871 C3870 1.367 . S
C3871 C3879 1.433 . S
C3872 H3868 0.929 . S
C3872 C3874 1.378 . S
C3872 C3876 1.350 . S
C3873 C3876 1.463 . S
C3873 C3878 1.350 . S
C3873 N3881 1.427 . S
C3874 H3865 0.930 . S
C3874 C3872 1.378 . S
C3874 C3875 1.367 . S
C3875 C3874 1.367 . S
C3875 C3877 1.433 . S
C3876 C3872 1.350 . S
C3876 C3873 1.463 . S
C3876 N3880 1.427 . S
C3877 H3867 0.929 . S
C3877 C3875 1.433 . S
C3877 N3880 1.384 . S
C3878 H3869 0.929 . S
C3878 C3870 1.378 . S
C3878 C3873 1.350 . S
C3879 H3866 0.929 . S
C3879 C3871 1.433 . S
C3879 N3881 1.384 . S
N3880 C3876 1.427 . S
N3880 C3877 1.384 . S
N3881 C3873 1.427 . S
N3881 C3879 1.384 . S
H3882 C3888 0.930 . S
H3883 C3892 0.930 . S
H3884 C3897 0.929 . S
H3885 C3895 0.929 . S
H3886 C3890 0.929 . S
H3887 C3896 0.929 . S
C3888 H3882 0.930 . S
C3888 C3889 1.367 . S
C3888 C3896 1.378 . S
C3889 C3888 1.367 . S
C3889 C3897 1.433 . S
C3890 H3886 0.929 . S
C3890 C3892 1.378 . S
C3890 C3894 1.350 . S
C3891 C3894 1.463 . S
C3891 C3896 1.350 . S
C3891 N3899 1.427 . S
C3892 H3883 0.930 . S
C3892 C3890 1.378 . S
C3892 C3893 1.367 . S
C3893 C3892 1.367 . S
C3893 C3895 1.433 . S
C3894 C3890 1.350 . S
C3894 C3891 1.463 . S
C3894 N3898 1.427 . S
C3895 H3885 0.929 . S
C3895 C3893 1.433 . S
C3895 N3898 1.384 . S
C3896 H3887 0.929 . S
C3896 C3888 1.378 . S
C3896 C3891 1.350 . S
C3897 H3884 0.929 . S
C3897 C3889 1.433 . S
C3897 N3899 1.384 . S
N3898 C3894 1.427 . S
N3898 C3895 1.384 . S
N3899 C3891 1.427 . S
N3899 C3897 1.384 . S
H3900 C3906 0.930 . S
H3901 C3910 0.930 . S
H3902 C3915 0.929 . S
H3903 C3913 0.929 . S
H3904 C3908 0.929 . S
H3905 C3914 0.929 . S
C3906 H3900 0.930 . S
C3906 C3907 1.367 . S
C3906 C3914 1.378 . S
C3907 C3906 1.367 . S
C3907 C3915 1.433 . S
C3908 H3904 0.929 . S
C3908 C3910 1.378 . S
C3908 C3912 1.350 . S
C3909 C3912 1.463 . S
C3909 C3914 1.350 . S
C3909 N3917 1.427 . S
C3910 H3901 0.930 . S
C3910 C3908 1.378 . S
C3910 C3911 1.367 . S
C3911 C3910 1.367 . S
C3911 C3913 1.433 . S
C3912 C3908 1.350 . S
C3912 C3909 1.463 . S
C3912 N3916 1.427 . S
C3913 H3903 0.929 . S
C3913 C3911 1.433 . S
C3913 N3916 1.384 . S
C3914 H3905 0.929 . S
C3914 C3906 1.378 . S
C3914 C3909 1.350 . S
C3915 H3902 0.929 . S
C3915 C3907 1.433 . S
C3915 N3917 1.384 . S
N3916 C3912 1.427 . S
N3916 C3913 1.384 . S
N3917 C3909 1.427 . S
N3917 C3915 1.384 . S
H3918 C3924 0.930 . S
H3919 C3928 0.930 . S
H3920 C3933 0.929 . S
H3921 C3931 0.929 . S
H3922 C3926 0.929 . S
H3923 C3932 0.929 . S
C3924 H3918 0.930 . S
C3924 C3925 1.367 . S
C3924 C3932 1.378 . S
C3925 C3924 1.367 . S
C3925 C3933 1.433 . S
C3926 H3922 0.929 . S
C3926 C3928 1.378 . S
C3926 C3930 1.350 . S
C3927 C3930 1.463 . S
C3927 C3932 1.350 . S
C3927 N3935 1.427 . S
C3928 H3919 0.930 . S
C3928 C3926 1.378 . S
C3928 C3929 1.367 . S
C3929 C3928 1.367 . S
C3929 C3931 1.433 . S
C3930 C3926 1.350 . S
C3930 C3927 1.463 . S
C3930 N3934 1.427 . S
C3931 H3921 0.929 . S
C3931 C3929 1.433 . S
C3931 N3934 1.384 . S
C3932 H3923 0.929 . S
C3932 C3924 1.378 . S
C3932 C3927 1.350 . S
C3933 H3920 0.929 . S
C3933 C3925 1.433 . S
C3933 N3935 1.384 . S
N3934 C3930 1.427 . S
N3934 C3931 1.384 . S
N3935 C3927 1.427 . S
N3935 C3933 1.384 . S
H3936 C3942 0.930 . S
H3937 C3946 0.930 . S
H3938 C3951 0.929 . S
H3939 C3949 0.929 . S
H3940 C3944 0.929 . S
H3941 C3950 0.929 . S
C3942 H3936 0.930 . S
C3942 C3943 1.367 . S
C3942 C3950 1.378 . S
C3943 C3942 1.367 . S
C3943 C3951 1.433 . S
C3944 H3940 0.929 . S
C3944 C3946 1.378 . S
C3944 C3948 1.350 . S
C3945 C3948 1.463 . S
C3945 C3950 1.350 . S
C3945 N3953 1.427 . S
C3946 H3937 0.930 . S
C3946 C3944 1.378 . S
C3946 C3947 1.367 . S
C3947 C3946 1.367 . S
C3947 C3949 1.433 . S
C3948 C3944 1.350 . S
C3948 C3945 1.463 . S
C3948 N3952 1.427 . S
C3949 H3939 0.929 . S
C3949 C3947 1.433 . S
C3949 N3952 1.384 . S
C3950 H3941 0.929 . S
C3950 C3942 1.378 . S
C3950 C3945 1.350 . S
C3951 H3938 0.929 . S
C3951 C3943 1.433 . S
C3951 N3953 1.384 . S
N3952 C3948 1.427 . S
N3952 C3949 1.384 . S
N3953 C3945 1.427 . S
N3953 C3951 1.384 . S
H3954 C3960 0.930 . S
H3955 C3964 0.930 . S
H3956 C3969 0.929 . S
H3957 C3967 0.929 . S
H3958 C3962 0.929 . S
H3959 C3968 0.929 . S
C3960 H3954 0.930 . S
C3960 C3961 1.367 . S
C3960 C3968 1.378 . S
C3961 C3960 1.367 . S
C3961 C3969 1.433 . S
C3962 H3958 0.929 . S
C3962 C3964 1.378 . S
C3962 C3966 1.350 . S
C3963 C3966 1.463 . S
C3963 C3968 1.350 . S
C3963 N3971 1.427 . S
C3964 H3955 0.930 . S
C3964 C3962 1.378 . S
C3964 C3965 1.367 . S
C3965 C3964 1.367 . S
C3965 C3967 1.433 . S
C3966 C3962 1.350 . S
C3966 C3963 1.463 . S
C3966 N3970 1.427 . S
C3967 H3957 0.929 . S
C3967 C3965 1.433 . S
C3967 N3970 1.384 . S
C3968 H3959 0.929 . S
C3968 C3960 1.378 . S
C3968 C3963 1.350 . S
C3969 H3956 0.929 . S
C3969 C3961 1.433 . S
C3969 N3971 1.384 . S
N3970 C3966 1.427 . S
N3970 C3967 1.384 . S
N3971 C3963 1.427 . S
N3971 C3969 1.384 . S
H3972 C3978 0.930 . S
H3973 C3982 0.930 . S
H3974 C3987 0.929 . S
H3975 C3985 0.929 . S
H3976 C3980 0.929 . S
H3977 C3986 0.929 . S
C3978 H3972 0.930 . S
C3978 C3979 1.367 . S
C3978 C3986 1.378 . S
C3979 C3978 1.367 . S
C3979 C3987 1.433 . S
C3980 H3976 0.929 . S
C3980 C3982 1.378 . S
C3980 C3984 1.350 . S
C3981 C3984 1.463 . S
C3981 C3986 1.350 . S
C3981 N3989 1.427 . S
C3982 H3973 0.930 . S
C3982 C3980 1.378 . S
C3982 C3983 1.367 . S
C3983 C3982 1.367 . S
C3983 C3985 1.433 . S
C3984 C3980 1.350 . S
C3984 C3981 1.463 . S
C3984 N3988 1.427 . S
C3985 H3975 0.929 . S
C3985 C3983 1.433 . S
C3985 N3988 1.384 . S
C3986 H3977 0.929 . S
C3986 C3978 1.378 . S
C3986 C3981 1.350 . S
C3987 H3974 0.929 . S
C3987 C3979 1.433 . S
C3987 N3989 1.384 . S
N3988 C3984 1.427 . S
N3988 C3985 1.384 . S
N3989 C3981 1.427 . S
N3989 C3987 1.384 . S
H3990 C3996 0.930 . S
H3991 C4000 0.930 . S
H3992 C4005 0.929 . S
H3993 C4003 0.929 . S
H3994 C3998 0.929 . S
H3995 C4004 0.929 . S
C3996 H3990 0.930 . S
C3996 C3997 1.367 . S
C3996 C4004 1.378 . S
C3997 C3996 1.367 . S
C3997 C4005 1.433 . S
C3998 H3994 0.929 . S
C3998 C4000 1.378 . S
C3998 C4002 1.350 . S
C3999 C4002 1.463 . S
C3999 C4004 1.350 . S
C3999 N4007 1.427 . S
C4000 H3991 0.930 . S
C4000 C3998 1.378 . S
C4000 C4001 1.367 . S
C4001 C4000 1.367 . S
C4001 C4003 1.433 . S
C4002 C3998 1.350 . S
C4002 C3999 1.463 . S
C4002 N4006 1.427 . S
C4003 H3993 0.929 . S
C4003 C4001 1.433 . S
C4003 N4006 1.384 . S
C4004 H3995 0.929 . S
C4004 C3996 1.378 . S
C4004 C3999 1.350 . S
C4005 H3992 0.929 . S
C4005 C3997 1.433 . S
C4005 N4007 1.384 . S
N4006 C4002 1.427 . S
N4006 C4003 1.384 . S
N4007 C3999 1.427 . S
N4007 C4005 1.384 . S
H4008 C4014 0.930 . S
H4009 C4018 0.930 . S
H4010 C4023 0.929 . S
H4011 C4021 0.929 . S
H4012 C4016 0.929 . S
H4013 C4022 0.929 . S
C4014 H4008 0.930 . S
C4014 C4015 1.367 . S
C4014 C4022 1.378 . S
C4015 C4014 1.367 . S
C4015 C4023 1.433 . S
C4016 H4012 0.929 . S
C4016 C4018 1.378 . S
C4016 C4020 1.350 . S
C4017 C4020 1.463 . S
C4017 C4022 1.350 . S
C4017 N4025 1.427 . S
C4018 H4009 0.930 . S
C4018 C4016 1.378 . S
C4018 C4019 1.367 . S
C4019 C4018 1.367 . S
C4019 C4021 1.433 . S
C4020 C4016 1.350 . S
C4020 C4017 1.463 . S
C4020 N4024 1.427 . S
C4021 H4011 0.929 . S
C4021 C4019 1.433 . S
C4021 N4024 1.384 . S
C4022 H4013 0.929 . S
C4022 C4014 1.378 . S
C4022 C4017 1.350 . S
C4023 H4010 0.929 . S
C4023 C4015 1.433 . S
C4023 N4025 1.384 . S
N4024 C4020 1.427 . S
N4024 C4021 1.384 . S
N4025 C4017 1.427 . S
N4025 C4023 1.384 . S
H4026 C4032 0.930 . S
H4027 C4036 0.930 . S
H4028 C4041 0.929 . S
H4029 C4039 0.929 . S
H4030 C4034 0.929 . S
H4031 C4040 0.929 . S
C4032 H4026 0.930 . S
C4032 C4033 1.367 . S
C4032 C4040 1.378 . S
C4033 C4032 1.367 . S
C4033 C4041 1.433 . S
C4034 H4030 0.929 . S
C4034 C4036 1.378 . S
C4034 C4038 1.350 . S
C4035 C4038 1.463 . S
C4035 C4040 1.350 . S
C4035 N4043 1.427 . S
C4036 H4027 0.930 . S
C4036 C4034 1.378 . S
C4036 C4037 1.367 . S
C4037 C4036 1.367 . S
C4037 C4039 1.433 . S
C4038 C4034 1.350 . S
C4038 C4035 1.463 . S
C4038 N4042 1.427 . S
C4039 H4029 0.929 . S
C4039 C4037 1.433 . S
C4039 N4042 1.384 . S
C4040 H4031 0.929 . S
C4040 C4032 1.378 . S
C4040 C4035 1.350 . S
C4041 H4028 0.929 . S
C4041 C4033 1.433 . S
C4041 N4043 1.384 . S
N4042 C4038 1.427 . S
N4042 C4039 1.384 . S
N4043 C4035 1.427 . S
N4043 C4041 1.384 . S
H4044 C4050 0.930 . S
H4045 C4054 0.930 . S
H4046 C4059 0.929 . S
H4047 C4057 0.929 . S
H4048 C4052 0.929 . S
H4049 C4058 0.929 . S
C4050 H4044 0.930 . S
C4050 C4051 1.367 . S
C4050 C4058 1.378 . S
C4051 C4050 1.367 . S
C4051 C4059 1.433 . S
C4052 H4048 0.929 . S
C4052 C4054 1.378 . S
C4052 C4056 1.350 . S
C4053 C4056 1.463 . S
C4053 C4058 1.350 . S
C4053 N4061 1.427 . S
C4054 H4045 0.930 . S
C4054 C4052 1.378 . S
C4054 C4055 1.367 . S
C4055 C4054 1.367 . S
C4055 C4057 1.433 . S
C4056 C4052 1.350 . S
C4056 C4053 1.463 . S
C4056 N4060 1.427 . S
C4057 H4047 0.929 . S
C4057 C4055 1.433 . S
C4057 N4060 1.384 . S
C4058 H4049 0.929 . S
C4058 C4050 1.378 . S
C4058 C4053 1.350 . S
C4059 H4046 0.929 . S
C4059 C4051 1.433 . S
C4059 N4061 1.384 . S
N4060 C4056 1.427 . S
N4060 C4057 1.384 . S
N4061 C4053 1.427 . S
N4061 C4059 1.384 . S
H4062 C4068 0.930 . S
H4063 C4072 0.930 . S
H4064 C4077 0.929 . S
H4065 C4075 0.929 . S
H4066 C4070 0.929 . S
H4067 C4076 0.929 . S
C4068 H4062 0.930 . S
C4068 C4069 1.367 . S
C4068 C4076 1.378 . S
C4069 C4068 1.367 . S
C4069 C4077 1.433 . S
C4070 H4066 0.929 . S
C4070 C4072 1.378 . S
C4070 C4074 1.350 . S
C4071 C4074 1.463 . S
C4071 C4076 1.350 . S
C4071 N4079 1.427 . S
C4072 H4063 0.930 . S
C4072 C4070 1.378 . S
C4072 C4073 1.367 . S
C4073 C4072 1.367 . S
C4073 C4075 1.433 . S
C4074 C4070 1.350 . S
C4074 C4071 1.463 . S
C4074 N4078 1.427 . S
C4075 H4065 0.929 . S
C4075 C4073 1.433 . S
C4075 N4078 1.384 . S
C4076 H4067 0.929 . S
C4076 C4068 1.378 . S
C4076 C4071 1.350 . S
C4077 H4064 0.929 . S
C4077 C4069 1.433 . S
C4077 N4079 1.384 . S
N4078 C4074 1.427 . S
N4078 C4075 1.384 . S
N4079 C4071 1.427 . S
N4079 C4077 1.384 . S
H4080 C4086 0.930 . S
H4081 C4090 0.930 . S
H4082 C4095 0.929 . S
H4083 C4093 0.929 . S
H4084 C4088 0.929 . S
H4085 C4094 0.929 . S
C4086 H4080 0.930 . S
C4086 C4087 1.367 . S
C4086 C4094 1.378 . S
C4087 C4086 1.367 . S
C4087 C4095 1.433 . S
C4088 H4084 0.929 . S
C4088 C4090 1.378 . S
C4088 C4092 1.350 . S
C4089 C4092 1.463 . S
C4089 C4094 1.350 . S
C4089 N4097 1.427 . S
C4090 H4081 0.930 . S
C4090 C4088 1.378 . S
C4090 C4091 1.367 . S
C4091 C4090 1.367 . S
C4091 C4093 1.433 . S
C4092 C4088 1.350 . S
C4092 C4089 1.463 . S
C4092 N4096 1.427 . S
C4093 H4083 0.929 . S
C4093 C4091 1.433 . S
C4093 N4096 1.384 . S
C4094 H4085 0.929 . S
C4094 C4086 1.378 . S
C4094 C4089 1.350 . S
C4095 H4082 0.929 . S
C4095 C4087 1.433 . S
C4095 N4097 1.384 . S
N4096 C4092 1.427 . S
N4096 C4093 1.384 . S
N4097 C4089 1.427 . S
N4097 C4095 1.384 . S
H4098 C4104 0.930 . S
H4099 C4108 0.930 . S
H4100 C4113 0.929 . S
H4101 C4111 0.929 . S
H4102 C4106 0.929 . S
H4103 C4112 0.929 . S
C4104 H4098 0.930 . S
C4104 C4105 1.367 . S
C4104 C4112 1.378 . S
C4105 C4104 1.367 . S
C4105 C4113 1.433 . S
C4106 H4102 0.929 . S
C4106 C4108 1.378 . S
C4106 C4110 1.350 . S
C4107 C4110 1.463 . S
C4107 C4112 1.350 . S
C4107 N4115 1.427 . S
C4108 H4099 0.930 . S
C4108 C4106 1.378 . S
C4108 C4109 1.367 . S
C4109 C4108 1.367 . S
C4109 C4111 1.433 . S
C4110 C4106 1.350 . S
C4110 C4107 1.463 . S
C4110 N4114 1.427 . S
C4111 H4101 0.929 . S
C4111 C4109 1.433 . S
C4111 N4114 1.384 . S
C4112 H4103 0.929 . S
C4112 C4104 1.378 . S
C4112 C4107 1.350 . S
C4113 H4100 0.929 . S
C4113 C4105 1.433 . S
C4113 N4115 1.384 . S
N4114 C4110 1.427 . S
N4114 C4111 1.384 . S
N4115 C4107 1.427 . S
N4115 C4113 1.384 . S
H4116 C4122 0.930 . S
H4117 C4126 0.930 . S
H4118 C4131 0.929 . S
H4119 C4129 0.929 . S
H4120 C4124 0.929 . S
H4121 C4130 0.929 . S
C4122 H4116 0.930 . S
C4122 C4123 1.367 . S
C4122 C4130 1.378 . S
C4123 C4122 1.367 . S
C4123 C4131 1.433 . S
C4124 H4120 0.929 . S
C4124 C4126 1.378 . S
C4124 C4128 1.350 . S
C4125 C4128 1.463 . S
C4125 C4130 1.350 . S
C4125 N4133 1.427 . S
C4126 H4117 0.930 . S
C4126 C4124 1.378 . S
C4126 C4127 1.367 . S
C4127 C4126 1.367 . S
C4127 C4129 1.433 . S
C4128 C4124 1.350 . S
C4128 C4125 1.463 . S
C4128 N4132 1.427 . S
C4129 H4119 0.929 . S
C4129 C4127 1.433 . S
C4129 N4132 1.384 . S
C4130 H4121 0.929 . S
C4130 C4122 1.378 . S
C4130 C4125 1.350 . S
C4131 H4118 0.929 . S
C4131 C4123 1.433 . S
C4131 N4133 1.384 . S
N4132 C4128 1.427 . S
N4132 C4129 1.384 . S
N4133 C4125 1.427 . S
N4133 C4131 1.384 . S
H4134 C4140 0.930 . S
H4135 C4144 0.930 . S
H4136 C4149 0.929 . S
H4137 C4147 0.929 . S
H4138 C4142 0.929 . S
H4139 C4148 0.929 . S
C4140 H4134 0.930 . S
C4140 C4141 1.367 . S
C4140 C4148 1.378 . S
C4141 C4140 1.367 . S
C4141 C4149 1.433 . S
C4142 H4138 0.929 . S
C4142 C4144 1.378 . S
C4142 C4146 1.350 . S
C4143 C4146 1.463 . S
C4143 C4148 1.350 . S
C4143 N4151 1.427 . S
C4144 H4135 0.930 . S
C4144 C4142 1.378 . S
C4144 C4145 1.367 . S
C4145 C4144 1.367 . S
C4145 C4147 1.433 . S
C4146 C4142 1.350 . S
C4146 C4143 1.463 . S
C4146 N4150 1.427 . S
C4147 H4137 0.929 . S
C4147 C4145 1.433 . S
C4147 N4150 1.384 . S
C4148 H4139 0.929 . S
C4148 C4140 1.378 . S
C4148 C4143 1.350 . S
C4149 H4136 0.929 . S
C4149 C4141 1.433 . S
C4149 N4151 1.384 . S
N4150 C4146 1.427 . S
N4150 C4147 1.384 . S
N4151 C4143 1.427 . S
N4151 C4149 1.384 . S
H4152 C4158 0.930 . S
H4153 C4162 0.930 . S
H4154 C4167 0.929 . S
H4155 C4165 0.929 . S
H4156 C4160 0.929 . S
H4157 C4166 0.929 . S
C4158 H4152 0.930 . S
C4158 C4159 1.367 . S
C4158 C4166 1.378 . S
C4159 C4158 1.367 . S
C4159 C4167 1.433 . S
C4160 H4156 0.929 . S
C4160 C4162 1.378 . S
C4160 C4164 1.350 . S
C4161 C4164 1.463 . S
C4161 C4166 1.350 . S
C4161 N4169 1.427 . S
C4162 H4153 0.930 . S
C4162 C4160 1.378 . S
C4162 C4163 1.367 . S
C4163 C4162 1.367 . S
C4163 C4165 1.433 . S
C4164 C4160 1.350 . S
C4164 C4161 1.463 . S
C4164 N4168 1.427 . S
C4165 H4155 0.929 . S
C4165 C4163 1.433 . S
C4165 N4168 1.384 . S
C4166 H4157 0.929 . S
C4166 C4158 1.378 . S
C4166 C4161 1.350 . S
C4167 H4154 0.929 . S
C4167 C4159 1.433 . S
C4167 N4169 1.384 . S
N4168 C4164 1.427 . S
N4168 C4165 1.384 . S
N4169 C4161 1.427 . S
N4169 C4167 1.384 . S
H4170 C4176 0.930 . S
H4171 C4180 0.930 . S
H4172 C4185 0.929 . S
H4173 C4183 0.929 . S
H4174 C4178 0.929 . S
H4175 C4184 0.929 . S
C4176 H4170 0.930 . S
C4176 C4177 1.367 . S
C4176 C4184 1.378 . S
C4177 C4176 1.367 . S
C4177 C4185 1.433 . S
C4178 H4174 0.929 . S
C4178 C4180 1.378 . S
C4178 C4182 1.350 . S
C4179 C4182 1.463 . S
C4179 C4184 1.350 . S
C4179 N4187 1.427 . S
C4180 H4171 0.930 . S
C4180 C4178 1.378 . S
C4180 C4181 1.367 . S
C4181 C4180 1.367 . S
C4181 C4183 1.433 . S
C4182 C4178 1.350 . S
C4182 C4179 1.463 . S
C4182 N4186 1.427 . S
C4183 H4173 0.929 . S
C4183 C4181 1.433 . S
C4183 N4186 1.384 . S
C4184 H4175 0.929 . S
C4184 C4176 1.378 . S
C4184 C4179 1.350 . S
C4185 H4172 0.929 . S
C4185 C4177 1.433 . S
C4185 N4187 1.384 . S
N4186 C4182 1.427 . S
N4186 C4183 1.384 . S
N4187 C4179 1.427 . S
N4187 C4185 1.384 . S
H4188 C4194 0.930 . S
H4189 C4198 0.930 . S
H4190 C4203 0.929 . S
H4191 C4201 0.929 . S
H4192 C4196 0.929 . S
H4193 C4202 0.929 . S
C4194 H4188 0.930 . S
C4194 C4195 1.367 . S
C4194 C4202 1.378 . S
C4195 C4194 1.367 . S
C4195 C4203 1.433 . S
C4196 H4192 0.929 . S
C4196 C4198 1.378 . S
C4196 C4200 1.350 . S
C4197 C4200 1.463 . S
C4197 C4202 1.350 . S
C4197 N4205 1.427 . S
C4198 H4189 0.930 . S
C4198 C4196 1.378 . S
C4198 C4199 1.367 . S
C4199 C4198 1.367 . S
C4199 C4201 1.433 . S
C4200 C4196 1.350 . S
C4200 C4197 1.463 . S
C4200 N4204 1.427 . S
C4201 H4191 0.929 . S
C4201 C4199 1.433 . S
C4201 N4204 1.384 . S
C4202 H4193 0.929 . S
C4202 C4194 1.378 . S
C4202 C4197 1.350 . S
C4203 H4190 0.929 . S
C4203 C4195 1.433 . S
C4203 N4205 1.384 . S
N4204 C4200 1.427 . S
N4204 C4201 1.384 . S
N4205 C4197 1.427 . S
N4205 C4203 1.384 . S
H4206 C4212 0.930 . S
H4207 C4216 0.930 . S
H4208 C4221 0.929 . S
H4209 C4219 0.929 . S
H4210 C4214 0.929 . S
H4211 C4220 0.929 . S
C4212 H4206 0.930 . S
C4212 C4213 1.367 . S
C4212 C4220 1.378 . S
C4213 C4212 1.367 . S
C4213 C4221 1.433 . S
C4214 H4210 0.929 . S
C4214 C4216 1.378 . S
C4214 C4218 1.350 . S
C4215 C4218 1.463 . S
C4215 C4220 1.350 . S
C4215 N4223 1.427 . S
C4216 H4207 0.930 . S
C4216 C4214 1.378 . S
C4216 C4217 1.367 . S
C4217 C4216 1.367 . S
C4217 C4219 1.433 . S
C4218 C4214 1.350 . S
C4218 C4215 1.463 . S
C4218 N4222 1.427 . S
C4219 H4209 0.929 . S
C4219 C4217 1.433 . S
C4219 N4222 1.384 . S
C4220 H4211 0.929 . S
C4220 C4212 1.378 . S
C4220 C4215 1.350 . S
C4221 H4208 0.929 . S
C4221 C4213 1.433 . S
C4221 N4223 1.384 . S
N4222 C4218 1.427 . S
N4222 C4219 1.384 . S
N4223 C4215 1.427 . S
N4223 C4221 1.384 . S
H4224 C4230 0.930 . S
H4225 C4234 0.930 . S
H4226 C4239 0.929 . S
H4227 C4237 0.929 . S
H4228 C4232 0.929 . S
H4229 C4238 0.929 . S
C4230 H4224 0.930 . S
C4230 C4231 1.367 . S
C4230 C4238 1.378 . S
C4231 C4230 1.367 . S
C4231 C4239 1.433 . S
C4232 H4228 0.929 . S
C4232 C4234 1.378 . S
C4232 C4236 1.350 . S
C4233 C4236 1.463 . S
C4233 C4238 1.350 . S
C4233 N4241 1.427 . S
C4234 H4225 0.930 . S
C4234 C4232 1.378 . S
C4234 C4235 1.367 . S
C4235 C4234 1.367 . S
C4235 C4237 1.433 . S
C4236 C4232 1.350 . S
C4236 C4233 1.463 . S
C4236 N4240 1.427 . S
C4237 H4227 0.929 . S
C4237 C4235 1.433 . S
C4237 N4240 1.384 . S
C4238 H4229 0.929 . S
C4238 C4230 1.378 . S
C4238 C4233 1.350 . S
C4239 H4226 0.929 . S
C4239 C4231 1.433 . S
C4239 N4241 1.384 . S
N4240 C4236 1.427 . S
N4240 C4237 1.384 . S
N4241 C4233 1.427 . S
N4241 C4239 1.384 . S
H4242 C4248 0.930 . S
H4243 C4252 0.930 . S
H4244 C4257 0.929 . S
H4245 C4255 0.929 . S
H4246 C4250 0.929 . S
H4247 C4256 0.929 . S
C4248 H4242 0.930 . S
C4248 C4249 1.367 . S
C4248 C4256 1.378 . S
C4249 C4248 1.367 . S
C4249 C4257 1.433 . S
C4250 H4246 0.929 . S
C4250 C4252 1.378 . S
C4250 C4254 1.350 . S
C4251 C4254 1.463 . S
C4251 C4256 1.350 . S
C4251 N4259 1.427 . S
C4252 H4243 0.930 . S
C4252 C4250 1.378 . S
C4252 C4253 1.367 . S
C4253 C4252 1.367 . S
C4253 C4255 1.433 . S
C4254 C4250 1.350 . S
C4254 C4251 1.463 . S
C4254 N4258 1.427 . S
C4255 H4245 0.929 . S
C4255 C4253 1.433 . S
C4255 N4258 1.384 . S
C4256 H4247 0.929 . S
C4256 C4248 1.378 . S
C4256 C4251 1.350 . S
C4257 H4244 0.929 . S
C4257 C4249 1.433 . S
C4257 N4259 1.384 . S
N4258 C4254 1.427 . S
N4258 C4255 1.384 . S
N4259 C4251 1.427 . S
N4259 C4257 1.384 . S
H4260 C4266 0.930 . S
H4261 C4270 0.930 . S
H4262 C4275 0.929 . S
H4263 C4273 0.929 . S
H4264 C4268 0.929 . S
H4265 C4274 0.929 . S
C4266 H4260 0.930 . S
C4266 C4267 1.367 . S
C4266 C4274 1.378 . S
C4267 C4266 1.367 . S
C4267 C4275 1.433 . S
C4268 H4264 0.929 . S
C4268 C4270 1.378 . S
C4268 C4272 1.350 . S
C4269 C4272 1.463 . S
C4269 C4274 1.350 . S
C4269 N4277 1.427 . S
C4270 H4261 0.930 . S
C4270 C4268 1.378 . S
C4270 C4271 1.367 . S
C4271 C4270 1.367 . S
C4271 C4273 1.433 . S
C4272 C4268 1.350 . S
C4272 C4269 1.463 . S
C4272 N4276 1.427 . S
C4273 H4263 0.929 . S
C4273 C4271 1.433 . S
C4273 N4276 1.384 . S
C4274 H4265 0.929 . S
C4274 C4266 1.378 . S
C4274 C4269 1.350 . S
C4275 H4262 0.929 . S
C4275 C4267 1.433 . S
C4275 N4277 1.384 . S
N4276 C4272 1.427 . S
N4276 C4273 1.384 . S
N4277 C4269 1.427 . S
N4277 C4275 1.384 . S
H4278 C4284 0.930 . S
H4279 C4288 0.930 . S
H4280 C4293 0.929 . S
H4281 C4291 0.929 . S
H4282 C4286 0.929 . S
H4283 C4292 0.929 . S
C4284 H4278 0.930 . S
C4284 C4285 1.367 . S
C4284 C4292 1.378 . S
C4285 C4284 1.367 . S
C4285 C4293 1.433 . S
C4286 H4282 0.929 . S
C4286 C4288 1.378 . S
C4286 C4290 1.350 . S
C4287 C4290 1.463 . S
C4287 C4292 1.350 . S
C4287 N4295 1.427 . S
C4288 H4279 0.930 . S
C4288 C4286 1.378 . S
C4288 C4289 1.367 . S
C4289 C4288 1.367 . S
C4289 C4291 1.433 . S
C4290 C4286 1.350 . S
C4290 C4287 1.463 . S
C4290 N4294 1.427 . S
C4291 H4281 0.929 . S
C4291 C4289 1.433 . S
C4291 N4294 1.384 . S
C4292 H4283 0.929 . S
C4292 C4284 1.378 . S
C4292 C4287 1.350 . S
C4293 H4280 0.929 . S
C4293 C4285 1.433 . S
C4293 N4295 1.384 . S
N4294 C4290 1.427 . S
N4294 C4291 1.384 . S
N4295 C4287 1.427 . S
N4295 C4293 1.384 . S
H4296 C4302 0.930 . S
H4297 C4306 0.930 . S
H4298 C4311 0.929 . S
H4299 C4309 0.929 . S
H4300 C4304 0.929 . S
H4301 C4310 0.929 . S
C4302 H4296 0.930 . S
C4302 C4303 1.367 . S
C4302 C4310 1.378 . S
C4303 C4302 1.367 . S
C4303 C4311 1.433 . S
C4304 H4300 0.929 . S
C4304 C4306 1.378 . S
C4304 C4308 1.350 . S
C4305 C4308 1.463 . S
C4305 C4310 1.350 . S
C4305 N4313 1.427 . S
C4306 H4297 0.930 . S
C4306 C4304 1.378 . S
C4306 C4307 1.367 . S
C4307 C4306 1.367 . S
C4307 C4309 1.433 . S
C4308 C4304 1.350 . S
C4308 C4305 1.463 . S
C4308 N4312 1.427 . S
C4309 H4299 0.929 . S
C4309 C4307 1.433 . S
C4309 N4312 1.384 . S
C4310 H4301 0.929 . S
C4310 C4302 1.378 . S
C4310 C4305 1.350 . S
C4311 H4298 0.929 . S
C4311 C4303 1.433 . S
C4311 N4313 1.384 . S
N4312 C4308 1.427 . S
N4312 C4309 1.384 . S
N4313 C4305 1.427 . S
N4313 C4311 1.384 . S
H4314 C4320 0.930 . S
H4315 C4324 0.930 . S
H4316 C4329 0.929 . S
H4317 C4327 0.929 . S
H4318 C4322 0.929 . S
H4319 C4328 0.929 . S
C4320 H4314 0.930 . S
C4320 C4321 1.367 . S
C4320 C4328 1.378 . S
C4321 C4320 1.367 . S
C4321 C4329 1.433 . S
C4322 H4318 0.929 . S
C4322 C4324 1.378 . S
C4322 C4326 1.350 . S
C4323 C4326 1.463 . S
C4323 C4328 1.350 . S
C4323 N4331 1.427 . S
C4324 H4315 0.930 . S
C4324 C4322 1.378 . S
C4324 C4325 1.367 . S
C4325 C4324 1.367 . S
C4325 C4327 1.433 . S
C4326 C4322 1.350 . S
C4326 C4323 1.463 . S
C4326 N4330 1.427 . S
C4327 H4317 0.929 . S
C4327 C4325 1.433 . S
C4327 N4330 1.384 . S
C4328 H4319 0.929 . S
C4328 C4320 1.378 . S
C4328 C4323 1.350 . S
C4329 H4316 0.929 . S
C4329 C4321 1.433 . S
C4329 N4331 1.384 . S
N4330 C4326 1.427 . S
N4330 C4327 1.384 . S
N4331 C4323 1.427 . S
N4331 C4329 1.384 . S
H4332 C4338 0.930 . S
H4333 C4342 0.930 . S
H4334 C4347 0.929 . S
H4335 C4345 0.929 . S
H4336 C4340 0.929 . S
H4337 C4346 0.929 . S
C4338 H4332 0.930 . S
C4338 C4339 1.367 . S
C4338 C4346 1.378 . S
C4339 C4338 1.367 . S
C4339 C4347 1.433 . S
C4340 H4336 0.929 . S
C4340 C4342 1.378 . S
C4340 C4344 1.350 . S
C4341 C4344 1.463 . S
C4341 C4346 1.350 . S
C4341 N4349 1.427 . S
C4342 H4333 0.930 . S
C4342 C4340 1.378 . S
C4342 C4343 1.367 . S
C4343 C4342 1.367 . S
C4343 C4345 1.433 . S
C4344 C4340 1.350 . S
C4344 C4341 1.463 . S
C4344 N4348 1.427 . S
C4345 H4335 0.929 . S
C4345 C4343 1.433 . S
C4345 N4348 1.384 . S
C4346 H4337 0.929 . S
C4346 C4338 1.378 . S
C4346 C4341 1.350 . S
C4347 H4334 0.929 . S
C4347 C4339 1.433 . S
C4347 N4349 1.384 . S
N4348 C4344 1.427 . S
N4348 C4345 1.384 . S
N4349 C4341 1.427 . S
N4349 C4347 1.384 . S
H4350 C4356 0.930 . S
H4351 C4360 0.930 . S
H4352 C4365 0.929 . S
H4353 C4363 0.929 . S
H4354 C4358 0.929 . S
H4355 C4364 0.929 . S
C4356 H4350 0.930 . S
C4356 C4357 1.367 . S
C4356 C4364 1.378 . S
C4357 C4356 1.367 . S
C4357 C4365 1.433 . S
C4358 H4354 0.929 . S
C4358 C4360 1.378 . S
C4358 C4362 1.350 . S
C4359 C4362 1.463 . S
C4359 C4364 1.350 . S
C4359 N4367 1.427 . S
C4360 H4351 0.930 . S
C4360 C4358 1.378 . S
C4360 C4361 1.367 . S
C4361 C4360 1.367 . S
C4361 C4363 1.433 . S
C4362 C4358 1.350 . S
C4362 C4359 1.463 . S
C4362 N4366 1.427 . S
C4363 H4353 0.929 . S
C4363 C4361 1.433 . S
C4363 N4366 1.384 . S
C4364 H4355 0.929 . S
C4364 C4356 1.378 . S
C4364 C4359 1.350 . S
C4365 H4352 0.929 . S
C4365 C4357 1.433 . S
C4365 N4367 1.384 . S
N4366 C4362 1.427 . S
N4366 C4363 1.384 . S
N4367 C4359 1.427 . S
N4367 C4365 1.384 . S
H4368 C4374 0.930 . S
H4369 C4378 0.930 . S
H4370 C4383 0.929 . S
H4371 C4381 0.929 . S
H4372 C4376 0.929 . S
H4373 C4382 0.929 . S
C4374 H4368 0.930 . S
C4374 C4375 1.367 . S
C4374 C4382 1.378 . S
C4375 C4374 1.367 . S
C4375 C4383 1.433 . S
C4376 H4372 0.929 . S
C4376 C4378 1.378 . S
C4376 C4380 1.350 . S
C4377 C4380 1.463 . S
C4377 C4382 1.350 . S
C4377 N4385 1.427 . S
C4378 H4369 0.930 . S
C4378 C4376 1.378 . S
C4378 C4379 1.367 . S
C4379 C4378 1.367 . S
C4379 C4381 1.433 . S
C4380 C4376 1.350 . S
C4380 C4377 1.463 . S
C4380 N4384 1.427 . S
C4381 H4371 0.929 . S
C4381 C4379 1.433 . S
C4381 N4384 1.384 . S
C4382 H4373 0.929 . S
C4382 C4374 1.378 . S
C4382 C4377 1.350 . S
C4383 H4370 0.929 . S
C4383 C4375 1.433 . S
C4383 N4385 1.384 . S
N4384 C4380 1.427 . S
N4384 C4381 1.384 . S
N4385 C4377 1.427 . S
N4385 C4383 1.384 . S
H4386 C4392 0.930 . S
H4387 C4396 0.930 . S
H4388 C4401 0.929 . S
H4389 C4399 0.929 . S
H4390 C4394 0.929 . S
H4391 C4400 0.929 . S
C4392 H4386 0.930 . S
C4392 C4393 1.367 . S
C4392 C4400 1.378 . S
C4393 C4392 1.367 . S
C4393 C4401 1.433 . S
C4394 H4390 0.929 . S
C4394 C4396 1.378 . S
C4394 C4398 1.350 . S
C4395 C4398 1.463 . S
C4395 C4400 1.350 . S
C4395 N4403 1.427 . S
C4396 H4387 0.930 . S
C4396 C4394 1.378 . S
C4396 C4397 1.367 . S
C4397 C4396 1.367 . S
C4397 C4399 1.433 . S
C4398 C4394 1.350 . S
C4398 C4395 1.463 . S
C4398 N4402 1.427 . S
C4399 H4389 0.929 . S
C4399 C4397 1.433 . S
C4399 N4402 1.384 . S
C4400 H4391 0.929 . S
C4400 C4392 1.378 . S
C4400 C4395 1.350 . S
C4401 H4388 0.929 . S
C4401 C4393 1.433 . S
C4401 N4403 1.384 . S
N4402 C4398 1.427 . S
N4402 C4399 1.384 . S
N4403 C4395 1.427 . S
N4403 C4401 1.384 . S
H4404 C4410 0.930 . S
H4405 C4414 0.930 . S
H4406 C4419 0.929 . S
H4407 C4417 0.929 . S
H4408 C4412 0.929 . S
H4409 C4418 0.929 . S
C4410 H4404 0.930 . S
C4410 C4411 1.367 . S
C4410 C4418 1.378 . S
C4411 C4410 1.367 . S
C4411 C4419 1.433 . S
C4412 H4408 0.929 . S
C4412 C4414 1.378 . S
C4412 C4416 1.350 . S
C4413 C4416 1.463 . S
C4413 C4418 1.350 . S
C4413 N4421 1.427 . S
C4414 H4405 0.930 . S
C4414 C4412 1.378 . S
C4414 C4415 1.367 . S
C4415 C4414 1.367 . S
C4415 C4417 1.433 . S
C4416 C4412 1.350 . S
C4416 C4413 1.463 . S
C4416 N4420 1.427 . S
C4417 H4407 0.929 . S
C4417 C4415 1.433 . S
C4417 N4420 1.384 . S
C4418 H4409 0.929 . S
C4418 C4410 1.378 . S
C4418 C4413 1.350 . S
C4419 H4406 0.929 . S
C4419 C4411 1.433 . S
C4419 N4421 1.384 . S
N4420 C4416 1.427 . S
N4420 C4417 1.384 . S
N4421 C4413 1.427 . S
N4421 C4419 1.384 . S
H4422 C4428 0.930 . S
H4423 C4432 0.930 . S
H4424 C4437 0.929 . S
H4425 C4435 0.929 . S
H4426 C4430 0.929 . S
H4427 C4436 0.929 . S
C4428 H4422 0.930 . S
C4428 C4429 1.367 . S
C4428 C4436 1.378 . S
C4429 C4428 1.367 . S
C4429 C4437 1.433 . S
C4430 H4426 0.929 . S
C4430 C4432 1.378 . S
C4430 C4434 1.350 . S
C4431 C4434 1.463 . S
C4431 C4436 1.350 . S
C4431 N4439 1.427 . S
C4432 H4423 0.930 . S
C4432 C4430 1.378 . S
C4432 C4433 1.367 . S
C4433 C4432 1.367 . S
C4433 C4435 1.433 . S
C4434 C4430 1.350 . S
C4434 C4431 1.463 . S
C4434 N4438 1.427 . S
C4435 H4425 0.929 . S
C4435 C4433 1.433 . S
C4435 N4438 1.384 . S
C4436 H4427 0.929 . S
C4436 C4428 1.378 . S
C4436 C4431 1.350 . S
C4437 H4424 0.929 . S
C4437 C4429 1.433 . S
C4437 N4439 1.384 . S
N4438 C4434 1.427 . S
N4438 C4435 1.384 . S
N4439 C4431 1.427 . S
N4439 C4437 1.384 . S
H4440 C4446 0.930 . S
H4441 C4450 0.930 . S
H4442 C4455 0.929 . S
H4443 C4453 0.929 . S
H4444 C4448 0.929 . S
H4445 C4454 0.929 . S
C4446 H4440 0.930 . S
C4446 C4447 1.367 . S
C4446 C4454 1.378 . S
C4447 C4446 1.367 . S
C4447 C4455 1.433 . S
C4448 H4444 0.929 . S
C4448 C4450 1.378 . S
C4448 C4452 1.350 . S
C4449 C4452 1.463 . S
C4449 C4454 1.350 . S
C4449 N4457 1.427 . S
C4450 H4441 0.930 . S
C4450 C4448 1.378 . S
C4450 C4451 1.367 . S
C4451 C4450 1.367 . S
C4451 C4453 1.433 . S
C4452 C4448 1.350 . S
C4452 C4449 1.463 . S
C4452 N4456 1.427 . S
C4453 H4443 0.929 . S
C4453 C4451 1.433 . S
C4453 N4456 1.384 . S
C4454 H4445 0.929 . S
C4454 C4446 1.378 . S
C4454 C4449 1.350 . S
C4455 H4442 0.929 . S
C4455 C4447 1.433 . S
C4455 N4457 1.384 . S
N4456 C4452 1.427 . S
N4456 C4453 1.384 . S
N4457 C4449 1.427 . S
N4457 C4455 1.384 . S
H4458 C4464 0.930 . S
H4459 C4468 0.930 . S
H4460 C4473 0.929 . S
H4461 C4471 0.929 . S
H4462 C4466 0.929 . S
H4463 C4472 0.929 . S
C4464 H4458 0.930 . S
C4464 C4465 1.367 . S
C4464 C4472 1.378 . S
C4465 C4464 1.367 . S
C4465 C4473 1.433 . S
C4466 H4462 0.929 . S
C4466 C4468 1.378 . S
C4466 C4470 1.350 . S
C4467 C4470 1.463 . S
C4467 C4472 1.350 . S
C4467 N4475 1.427 . S
C4468 H4459 0.930 . S
C4468 C4466 1.378 . S
C4468 C4469 1.367 . S
C4469 C4468 1.367 . S
C4469 C4471 1.433 . S
C4470 C4466 1.350 . S
C4470 C4467 1.463 . S
C4470 N4474 1.427 . S
C4471 H4461 0.929 . S
C4471 C4469 1.433 . S
C4471 N4474 1.384 . S
C4472 H4463 0.929 . S
C4472 C4464 1.378 . S
C4472 C4467 1.350 . S
C4473 H4460 0.929 . S
C4473 C4465 1.433 . S
C4473 N4475 1.384 . S
N4474 C4470 1.427 . S
N4474 C4471 1.384 . S
N4475 C4467 1.427 . S
N4475 C4473 1.384 . S
H4476 C4482 0.930 . S
H4477 C4486 0.930 . S
H4478 C4491 0.929 . S
H4479 C4489 0.929 . S
H4480 C4484 0.929 . S
H4481 C4490 0.929 . S
C4482 H4476 0.930 . S
C4482 C4483 1.367 . S
C4482 C4490 1.378 . S
C4483 C4482 1.367 . S
C4483 C4491 1.433 . S
C4484 H4480 0.929 . S
C4484 C4486 1.378 . S
C4484 C4488 1.350 . S
C4485 C4488 1.463 . S
C4485 C4490 1.350 . S
C4485 N4493 1.427 . S
C4486 H4477 0.930 . S
C4486 C4484 1.378 . S
C4486 C4487 1.367 . S
C4487 C4486 1.367 . S
C4487 C4489 1.433 . S
C4488 C4484 1.350 . S
C4488 C4485 1.463 . S
C4488 N4492 1.427 . S
C4489 H4479 0.929 . S
C4489 C4487 1.433 . S
C4489 N4492 1.384 . S
C4490 H4481 0.929 . S
C4490 C4482 1.378 . S
C4490 C4485 1.350 . S
C4491 H4478 0.929 . S
C4491 C4483 1.433 . S
C4491 N4493 1.384 . S
N4492 C4488 1.427 . S
N4492 C4489 1.384 . S
N4493 C4485 1.427 . S
N4493 C4491 1.384 . S
H4494 C4500 0.930 . S
H4495 C4504 0.930 . S
H4496 C4509 0.929 . S
H4497 C4507 0.929 . S
H4498 C4502 0.929 . S
H4499 C4508 0.929 . S
C4500 H4494 0.930 . S
C4500 C4501 1.367 . S
C4500 C4508 1.378 . S
C4501 C4500 1.367 . S
C4501 C4509 1.433 . S
C4502 H4498 0.929 . S
C4502 C4504 1.378 . S
C4502 C4506 1.350 . S
C4503 C4506 1.463 . S
C4503 C4508 1.350 . S
C4503 N4511 1.427 . S
C4504 H4495 0.930 . S
C4504 C4502 1.378 . S
C4504 C4505 1.367 . S
C4505 C4504 1.367 . S
C4505 C4507 1.433 . S
C4506 C4502 1.350 . S
C4506 C4503 1.463 . S
C4506 N4510 1.427 . S
C4507 H4497 0.929 . S
C4507 C4505 1.433 . S
C4507 N4510 1.384 . S
C4508 H4499 0.929 . S
C4508 C4500 1.378 . S
C4508 C4503 1.350 . S
C4509 H4496 0.929 . S
C4509 C4501 1.433 . S
C4509 N4511 1.384 . S
N4510 C4506 1.427 . S
N4510 C4507 1.384 . S
N4511 C4503 1.427 . S
N4511 C4509 1.384 . S
C1927 C20 3.751 . S
C1931 C180 3.748 . S
C1945 C42 3.087 . S
C1949 C202 3.089 . S
C1963 C260 2.947 . S
C1967 C82 2.853 . S
C1981 C282 3.187 1_554 S
C1985 C140 3.299 . S
C1999 C322 2.844 . S
C2003 C380 2.930 1_565 S
C2017 C362 3.087 . S
C2021 C402 3.114 . S
C2035 C460 3.285 . S
C2039 C420 3.282 . S
C2053 C442 3.642 . S
C2057 C340 3.747 . S
C2071 C500 3.308 . S
C2075 C122 3.196 . S
C2089 C300 2.936 . S
C2093 C1340 2.916 . S
C2107 C162 3.537 . S
C2111 C522 3.511 . S
C2125 C220 2.915 . S
C2129 C1380 2.929 . S
C2143 C60 3.334 . S
C2147 C562 3.229 . S
C2161 C1260 3.292 . S
C2165 C2 3.203 . S
C2179 C1202 3.202 . S
C2183 C100 3.293 . S
C2197 C791 3.727 . S
C2201 C631 3.734 . S
C2215 C663 3.097 . S
C2219 C823 3.099 . S
C2233 C703 2.854 . S
C2237 C871 2.953 . S
C2251 C751 3.578 . S
C2255 C903 3.464 1_556 S
C2269 C991 2.841 . S
C2273 C943 2.766 . S
C2287 C983 3.178 . S
C2291 C1023 3.198 . S
C2305 C1063 3.210 . S
C2309 C1031 3.301 . S
C2323 C951 3.728 . S
C2327 C1071 3.728 . S
C2341 C743 3.137 . S
C2345 C1111 3.240 . S
C2359 C1711 2.792 . S
C2363 C911 2.805 . S
C2377 C1143 3.506 . S
C2381 C783 3.529 . S
C2395 C831 2.954 . S
C2399 C1751 2.968 . S
C2413 C1183 3.219 . S
C2417 C671 3.324 . S
C2431 C623 3.171 . S
C2435 C1631 3.261 . S
C2449 C711 3.409 . S
C2453 C1583 3.316 . S
C2467 C1300 3.703 . S
C2471 C1220 3.707 . S
C2485 C1322 3.158 . S
C2489 C482 3.149 1_556 S
C2503 C1242 2.785 . S
C2507 C540 2.884 . S
C2521 C1362 3.228 . S
C2525 C580 3.332 . S
C2539 C1402 2.783 . S
C2543 C1460 2.858 . S
C2557 C1442 3.150 . S
C2561 C1482 3.169 . S
C2575 C1522 3.188 . S
C2579 C1500 3.280 . S
C2593 C1420 3.753 . S
C2597 C1540 3.755 . S
C2611 C242 3.495 . S
C2615 C1282 3.517 . S
C2629 C1671 3.462 . S
C2633 C1591 3.468 . S
C2647 C1703 3.084 . S
C2651 C1103 3.079 . S
C2665 C1151 2.939 . S
C2669 C1623 2.845 . S
C2683 C1743 3.198 . S
C2687 C1191 3.304 . S
C2701 C1783 2.756 . S
C2705 C1831 2.834 . S
C2719 C1823 3.161 . S
C2723 C1863 3.178 . S
C2737 C1871 3.314 . S
C2741 C1903 3.220 . S
C2755 C1911 3.742 . S
C2759 C1791 3.743 . S
C2773 C1663 3.620 . S
C2777 C863 3.598 . S
C2791 C31 0.944 . S
C2795 C665 0.953 . S
C2809 C1625 0.991 . S
C2813 C63 1.015 . S
C2827 C103 0.534 . S
C2831 C724 0.522 . S
C2845 C151 0.572 . S
C2849 C1564 0.517 . S
C2863 C191 0.867 . S
C2867 C905 0.873 . S
C2881 C223 0.462 . S
C2885 C1644 0.375 . S
C2899 C271 1.120 . S
C2903 C825 1.127 . S
C2917 C1124 0.584 . S
C2921 C303 0.598 . S
C2935 C343 0.625 . S
C2939 C1585 0.637 . S
C2953 C383 0.670 . S
C2957 C644 0.666 . S
C2971 C431 0.807 . S
C2975 C1604 0.821 . S
C2989 C745 0.677 . S
C2993 C463 0.676 . S
C3007 C1665 0.659 . S
C3011 C471 0.663 . S
C3025 C804 0.689 . S
C3029 C351 0.691 . S
C3043 C391 1.315 . S
C3047 C1145 1.324 . S
C3061 C884 0.356 . S
C3065 C423 0.423 . S
C3079 C1764 0.686 . S
C3083 C511 0.690 . S
C3097 C1044 0.387 . S
C3101 C311 0.471 . S
C3115 C183 0.610 . S
C3119 C1785 0.622 . S
C3133 C231 1.270 . S
C3137 C985 1.280 . S
C3151 C543 0.769 . S
C3155 C1004 0.768 . S
C3169 C1865 0.994 . S
C3173 C583 1.019 . S
C3187 C23 0.500 . S
C3191 C1905 0.516 . S
C3205 C111 0.842 . S
C3209 C1804 0.846 . S
C3223 C44 0.984 . S
C3227 C620 0.976 . S
C3241 C642 1.026 . S
C3245 C1244 1.004 . S
C3259 C682 0.535 . S
C3263 C145 0.505 . S
C3277 C740 0.512 . S
C3281 C1225 0.435 . S
C3295 C284 0.896 . S
C3299 C780 0.890 . S
C3313 C1305 0.347 . S
C3317 C802 0.395 . S
C3331 C204 1.095 . S
C3335 C860 1.090 . S
C3349 C882 0.543 . S
C3353 C545 0.522 . S
C3367 C922 0.545 . S
C3371 C1204 0.555 . S
C3385 C65 0.712 . S
C3389 C962 0.712 . S
C3403 C1020 0.916 . S
C3407 C1265 0.930 . S
C3421 C124 0.790 . S
C3425 C1060 0.789 . S
C3439 C1284 0.610 . S
C3443 C1042 0.597 . S
C3457 C940 0.596 . S
C3461 C225 0.558 . S
C3475 C980 1.293 . S
C3479 C524 1.301 . S
C3493 C305 0.468 . S
C3497 C1002 0.505 . S
C3511 C1100 0.689 . S
C3515 C1425 0.684 . S
C3529 C444 0.607 . S
C3533 C900 0.623 . S
C3547 C1404 0.613 . S
C3551 C762 0.601 . S
C3565 C820 1.284 . S
C3569 C364 1.289 . S
C3583 C1122 0.668 . S
C3587 C425 0.665 . S
C3601 C1484 0.981 . S
C3605 C1162 1.002 . S
C3619 C602 0.472 . S
C3623 C1524 0.487 . S
C3637 C1465 0.856 . S
C3641 C700 0.836 . S
C3655 C1105 0.984 . S
C3659 C1231 0.974 . S
C3673 C503 1.083 . S
C3677 C705 1.058 . S
C3691 C1164 0.461 . S
C3695 C1263 0.492 . S
C3709 C591 0.540 . S
C3713 C604 0.485 . S
C3727 C1311 0.870 . S
C3731 C1745 0.880 . S
C3745 C764 0.356 . S
C3749 C1343 0.416 . S
C3763 C551 1.079 . S
C3767 C1705 1.085 . S
C3781 C844 0.576 . S
C3785 C1383 0.592 . S
C3799 C1423 0.491 . S
C3803 C625 0.493 . S
C3817 C1463 0.715 . S
C3821 C1084 0.713 . S
C3835 C1511 0.925 . S
C3839 C684 0.936 . S
C3853 C1185 0.809 . S
C3857 C1551 0.806 . S
C3871 C785 0.560 . S
C3875 C1543 0.543 . S
C3889 C1431 0.627 . S
C3893 C1684 0.591 . S
C3907 C865 1.284 . S
C3911 C1471 1.275 . S
C3925 C1503 0.518 . S
C3929 C1724 0.480 . S
C3943 C71 0.705 . S
C3947 C924 0.691 . S
C3961 C1884 0.382 . S
C3965 C1391 0.453 . S
C3979 C1303 0.603 . S
C3983 C945 0.615 . S
C3997 C1351 1.259 . S
C4001 C1825 1.268 . S
C4015 C1844 0.763 . S
C4019 C263 0.764 . S
C4033 C1025 1.009 . S
C4037 C143 1.029 . S
C4051 C1223 0.466 . S
C4055 C1065 0.472 . S
C4069 C964 0.868 . S
C4073 C1271 0.862 . S
C4087 C484 1.018 . S
C4091 C1580 1.010 . S
C4105 C1082 1.080 . S
C4109 C84 1.062 . S
C4123 C585 0.475 . S
C4127 C1602 0.506 . S
C4141 C1180 0.522 . S
C4145 C25 0.488 . S
C4159 C1660 0.911 . S
C4163 C1364 0.918 . S
C4177 C185 0.360 . S
C4181 C1682 0.429 . S
C4195 C1324 1.125 . S
C4199 C1140 1.118 . S
C4213 C265 0.553 . S
C4217 C1722 0.565 . S
C4231 C4 0.525 . S
C4235 C1762 0.522 . S
C4249 C1802 0.721 . S
C4253 C505 0.718 . S
C4267 C105 0.970 . S
C4271 C1860 0.949 . S
C4285 C564 0.771 . S
C4289 C1900 0.767 . S
C4303 C164 0.574 . S
C4307 C1882 0.558 . S
C4321 C1345 0.595 . S
C4325 C1780 0.617 . S
C4339 C1820 1.263 . S
C4343 C244 1.273 . S
C4357 C1385 0.460 . S
C4361 C1842 0.500 . S
C4375 C345 0.739 . S
C4379 C660 0.737 . S
C4393 C1740 0.479 . S
C4397 C1545 0.417 . S
C4411 C1642 0.673 . S
C4415 C324 0.674 . S
C4429 C1444 1.267 . S
C4433 C1700 1.262 . S
C4447 C842 0.740 . S
C4451 C1505 0.741 . S
C4465 C722 0.877 . S
C4469 C404 0.869 . S
C4483 C465 0.321 . S
C4487 C1562 0.424 . S
C4501 C385 0.852 . S
C4505 C1620 0.847 . S
