# Generated by pormake.
# Topology sth, (5)-cn, num edge types: 1
# Building blocks:
#     Node 0, Type 0, BuildingBlock: XOMCOT_clean_sbu_0, # of connection points: 5
#     Node 1, Type 0, BuildingBlock: XOMCOT_clean_sbu_0, # of connection points: 5
#     Node 2, Type 0, BuildingBlock: XOMCOT_clean_sbu_0, # of connection points: 5
#     Node 3, Type 0, BuildingBlock: XOMCOT_clean_sbu_0, # of connection points: 5
#     Node 4, Type 0, BuildingBlock: XOMCOT_clean_sbu_0, # of connection points: 5
#     Node 5, Type 0, BuildingBlock: XOMCOT_clean_sbu_0, # of connection points: 5
#     Node 6, Type 0, BuildingBlock: XOMCOT_clean_sbu_0, # of connection points: 5
#     Node 7, Type 0, BuildingBlock: XOMCOT_clean_sbu_0, # of connection points: 5
#     Node 8, Type 0, BuildingBlock: XOMCOT_clean_sbu_0, # of connection points: 5
#     Node 9, Type 0, BuildingBlock: XOMCOT_clean_sbu_0, # of connection points: 5
#     Node 10, Type 0, BuildingBlock: XOMCOT_clean_sbu_0, # of connection points: 5
#     Node 11, Type 0, BuildingBlock: XOMCOT_clean_sbu_0, # of connection points: 5
#     Node 12, Type 0, BuildingBlock: XOMCOT_clean_sbu_0, # of connection points: 5
#     Node 13, Type 0, BuildingBlock: XOMCOT_clean_sbu_0, # of connection points: 5
#     Node 14, Type 0, BuildingBlock: XOMCOT_clean_sbu_0, # of connection points: 5
#     Node 15, Type 0, BuildingBlock: XOMCOT_clean_sbu_0, # of connection points: 5
#     Node 16, Type 0, BuildingBlock: XOMCOT_clean_sbu_0, # of connection points: 5
#     Node 17, Type 0, BuildingBlock: XOMCOT_clean_sbu_0, # of connection points: 5
#     Edge 18, Type (0, 0), BuildingBlock: CIFDUS_clean_linker_0, # of connection points: 2
#     Edge 19, Type (0, 0), BuildingBlock: CIFDUS_clean_linker_0, # of connection points: 2
#     Edge 20, Type (0, 0), BuildingBlock: CIFDUS_clean_linker_0, # of connection points: 2
#     Edge 21, Type (0, 0), BuildingBlock: CIFDUS_clean_linker_0, # of connection points: 2
#     Edge 22, Type (0, 0), BuildingBlock: CIFDUS_clean_linker_0, # of connection points: 2
#     Edge 23, Type (0, 0), BuildingBlock: CIFDUS_clean_linker_0, # of connection points: 2
#     Edge 24, Type (0, 0), BuildingBlock: CIFDUS_clean_linker_0, # of connection points: 2
#     Edge 25, Type (0, 0), BuildingBlock: CIFDUS_clean_linker_0, # of connection points: 2
#     Edge 26, Type (0, 0), BuildingBlock: CIFDUS_clean_linker_0, # of connection points: 2
#     Edge 27, Type (0, 0), BuildingBlock: CIFDUS_clean_linker_0, # of connection points: 2
#     Edge 28, Type (0, 0), BuildingBlock: CIFDUS_clean_linker_0, # of connection points: 2
#     Edge 29, Type (0, 0), BuildingBlock: CIFDUS_clean_linker_0, # of connection points: 2
#     Edge 30, Type (0, 0), BuildingBlock: CIFDUS_clean_linker_0, # of connection points: 2
#     Edge 31, Type (0, 0), BuildingBlock: CIFDUS_clean_linker_0, # of connection points: 2
#     Edge 32, Type (0, 0), BuildingBlock: CIFDUS_clean_linker_0, # of connection points: 2
#     Edge 33, Type (0, 0), BuildingBlock: CIFDUS_clean_linker_0, # of connection points: 2
#     Edge 34, Type (0, 0), BuildingBlock: CIFDUS_clean_linker_0, # of connection points: 2
#     Edge 35, Type (0, 0), BuildingBlock: CIFDUS_clean_linker_0, # of connection points: 2
#     Edge 36, Type (0, 0), BuildingBlock: CIFDUS_clean_linker_0, # of connection points: 2
#     Edge 37, Type (0, 0), BuildingBlock: CIFDUS_clean_linker_0, # of connection points: 2
#     Edge 38, Type (0, 0), BuildingBlock: CIFDUS_clean_linker_0, # of connection points: 2
#     Edge 39, Type (0, 0), BuildingBlock: CIFDUS_clean_linker_0, # of connection points: 2
#     Edge 40, Type (0, 0), BuildingBlock: CIFDUS_clean_linker_0, # of connection points: 2
#     Edge 41, Type (0, 0), BuildingBlock: CIFDUS_clean_linker_0, # of connection points: 2
#     Edge 42, Type (0, 0), BuildingBlock: CIFDUS_clean_linker_0, # of connection points: 2
#     Edge 43, Type (0, 0), BuildingBlock: CIFDUS_clean_linker_0, # of connection points: 2
#     Edge 44, Type (0, 0), BuildingBlock: CIFDUS_clean_linker_0, # of connection points: 2
#     Edge 45, Type (0, 0), BuildingBlock: CIFDUS_clean_linker_0, # of connection points: 2
#     Edge 46, Type (0, 0), BuildingBlock: CIFDUS_clean_linker_0, # of connection points: 2
#     Edge 47, Type (0, 0), BuildingBlock: CIFDUS_clean_linker_0, # of connection points: 2
#     Edge 48, Type (0, 0), BuildingBlock: CIFDUS_clean_linker_0, # of connection points: 2
#     Edge 49, Type (0, 0), BuildingBlock: CIFDUS_clean_linker_0, # of connection points: 2
#     Edge 50, Type (0, 0), BuildingBlock: CIFDUS_clean_linker_0, # of connection points: 2
#     Edge 51, Type (0, 0), BuildingBlock: CIFDUS_clean_linker_0, # of connection points: 2
#     Edge 52, Type (0, 0), BuildingBlock: CIFDUS_clean_linker_0, # of connection points: 2
#     Edge 53, Type (0, 0), BuildingBlock: CIFDUS_clean_linker_0, # of connection points: 2
#     Edge 54, Type (0, 0), BuildingBlock: CIFDUS_clean_linker_0, # of connection points: 2
#     Edge 55, Type (0, 0), BuildingBlock: CIFDUS_clean_linker_0, # of connection points: 2
#     Edge 56, Type (0, 0), BuildingBlock: CIFDUS_clean_linker_0, # of connection points: 2
#     Edge 57, Type (0, 0), BuildingBlock: CIFDUS_clean_linker_0, # of connection points: 2
#     Edge 58, Type (0, 0), BuildingBlock: CIFDUS_clean_linker_0, # of connection points: 2
#     Edge 59, Type (0, 0), BuildingBlock: CIFDUS_clean_linker_0, # of connection points: 2
#     Edge 60, Type (0, 0), BuildingBlock: CIFDUS_clean_linker_0, # of connection points: 2
#     Edge 61, Type (0, 0), BuildingBlock: CIFDUS_clean_linker_0, # of connection points: 2
#     Edge 62, Type (0, 0), BuildingBlock: CIFDUS_clean_linker_0, # of connection points: 2
# Relax obj value: 0.192
# Max RMSD: 0.215
# Mean RMSD: 0.215
data_MOF--net-sth--node1-XOMCOT_clean_sbu_0--edge1-CIFDUS_clean_linker_0
_symmetry_space_group_name_H-M    P1
_symmetry_Int_Tables_number       1
_symmetry_cell_setting            triclinic
loop_
_symmetry_equiv_pos_as_xyz
'x, y, z'
_cell_length_a     35.931836
_cell_length_b     35.98711
_cell_length_c     70.736
_cell_angle_alpha  90.144683
_cell_angle_beta   89.660505
_cell_angle_gamma 119.89927
loop_
_atom_site_label
_atom_site_type_symbol
_atom_site_fract_x
_atom_site_fract_y
_atom_site_fract_z
_atom_type_partial_charge
Co0 Co 0.12114 0.28063 0.22183 0.0
C1 C 0.20429 0.32382 0.20126 0.0
C2 C 0.20493 0.35881 0.22602 0.0
C3 C 0.24422 0.38105 0.21721 0.0
N4 N 0.18014 0.32267 0.21619 0.0
N5 N 0.24374 0.35914 0.20164 0.0
H6 H 0.19315 0.2996 0.19031 0.0
H7 H 0.19494 0.36883 0.23856 0.0
C8 C 0.12267 0.19971 0.22897 0.0
O9 O 0.09622 0.19233 0.24321 0.0
N10 N 0.06098 0.2388 0.22703 0.0
C11 C 0.03243 0.24638 0.2363 0.0
C12 C 0.99207 0.21173 0.23443 0.0
C13 C 0.03667 0.19967 0.21901 0.0
N14 N 0.99469 0.18235 0.22363 0.0
C15 C 0.12002 0.30788 0.25979 0.0
C16 C 0.1799 0.28933 0.27456 0.0
C17 C 0.16297 0.30898 0.28616 0.0
C18 C 0.13238 0.31785 0.27854 0.0
C19 C 0.16635 0.2796 0.25577 0.0
N20 N 0.13555 0.28754 0.24871 0.0
H21 H 0.10002 0.31927 0.25399 0.0
H22 H 0.18251 0.26787 0.24672 0.0
H23 H 0.03907 0.27604 0.24283 0.0
H24 H 0.049 0.185 0.20934 0.0
O25 O 0.10573 0.32458 0.21938 0.0
O26 O 0.10558 0.28352 0.19593 0.0
O27 O 0.13598 0.23359 0.21896 0.0
C28 C 0.09852 0.31392 0.20167 0.0
H29 H 0.27064 0.41177 0.22153 0.0
H30 H 0.96269 0.20884 0.24012 0.0
H31 H 0.20473 0.28326 0.27968 0.0
H32 H 0.11871 0.33346 0.28687 0.0
Co33 Co 0.75171 0.84639 0.22009 0.0
C34 C 0.69793 0.87631 0.20131 0.0
C35 C 0.67905 0.85966 0.23028 0.0
C36 C 0.65285 0.87296 0.22231 0.0
N37 N 0.70834 0.86315 0.2173 0.0
N38 N 0.66491 0.88354 0.20415 0.0
H39 H 0.71525 0.8821 0.18808 0.0
H40 H 0.67602 0.84749 0.24448 0.0
C41 C 0.80268 0.94397 0.21587 0.0
O42 O 0.76732 0.94606 0.2166 0.0
N43 N 0.79388 0.8279 0.2229 0.0
C44 C 0.78865 0.78855 0.21963 0.0
C45 C 0.82688 0.78965 0.22275 0.0
C46 C 0.83511 0.852 0.22842 0.0
N47 N 0.85607 0.82958 0.22821 0.0
C48 C 0.73238 0.81222 0.25702 0.0
C49 C 0.75051 0.88627 0.27622 0.0
C50 C 0.73016 0.84703 0.28596 0.0
C51 C 0.72199 0.80986 0.27612 0.0
C52 C 0.7599 0.88713 0.25694 0.0
N53 N 0.74943 0.85008 0.24745 0.0
H54 H 0.72494 0.78299 0.24969 0.0
H55 H 0.77342 0.91727 0.24966 0.0
H56 H 0.75926 0.76055 0.21532 0.0
H57 H 0.84972 0.88534 0.23236 0.0
O58 O 0.70643 0.78796 0.2171 0.0
O59 O 0.74539 0.83031 0.19358 0.0
O60 O 0.80135 0.90791 0.21773 0.0
C61 C 0.71469 0.79287 0.1991 0.0
H62 H 0.62647 0.87407 0.22923 0.0
H63 H 0.83263 0.76298 0.22128 0.0
H64 H 0.75834 0.91599 0.28329 0.0
H65 H 0.70602 0.77866 0.28282 0.0
Co66 Co 0.18691 0.9047 0.22796 0.0
C67 C 0.15188 0.8217 0.20879 0.0
C68 C 0.19037 0.82458 0.23247 0.0
C69 C 0.17522 0.78541 0.22366 0.0
N70 N 0.17512 0.84692 0.22325 0.0
N71 N 0.15131 0.78392 0.20874 0.0
H72 H 0.13617 0.83108 0.19836 0.0
H73 H 0.21154 0.83619 0.24453 0.0
C74 C 0.09996 0.8901 0.23812 0.0
O75 O 0.11747 0.91426 0.25307 0.0
N76 N 0.19897 0.96374 0.23154 0.0
C77 C 0.23671 0.99864 0.23625 0.0
C78 C 0.23248 0.03461 0.23547 0.0
C79 C 0.17345 0.97994 0.22676 0.0
N80 N 0.19245 0.02254 0.2297 0.0
C81 C 0.21606 0.92125 0.26638 0.0
C82 C 0.14649 0.85052 0.28239 0.0
C83 C 0.17895 0.88032 0.29412 0.0
C84 C 0.21431 0.91563 0.2859 0.0
C85 C 0.14914 0.85785 0.26287 0.0
N86 N 0.18286 0.89391 0.25516 0.0
H87 H 0.24465 0.94723 0.26035 0.0
H88 H 0.12389 0.83465 0.25393 0.0
H89 H 0.26613 0.99874 0.2394 0.0
H90 H 0.14205 0.96161 0.22053 0.0
O91 O 0.24722 0.92519 0.22477 0.0
O92 O 0.2028 0.91838 0.20162 0.0
O93 O 0.12321 0.8834 0.22635 0.0
C94 C 0.24169 0.9295 0.20694 0.0
H95 H 0.18248 0.76061 0.22747 0.0
H96 H 0.2568 0.06702 0.23901 0.0
H97 H 0.11911 0.82231 0.28827 0.0
H98 H 0.24083 0.9384 0.29448 0.0
Co99 Co 0.28663 0.11654 0.79463 0.0
C100 C 0.34964 0.19898 0.81526 0.0
C101 C 0.31184 0.20623 0.79379 0.0
C102 C 0.33734 0.24535 0.80176 0.0
N103 N 0.31937 0.17683 0.80195 0.0
N104 N 0.36148 0.24132 0.81521 0.0
H105 H 0.36256 0.18471 0.82472 0.0
H106 H 0.28878 0.19957 0.78269 0.0
C107 C 0.19466 0.10332 0.79309 0.0
O108 O 0.17791 0.06701 0.78381 0.0
N109 N 0.2528 0.05643 0.7873 0.0
C110 C 0.26027 0.03785 0.77233 0.0
C111 C 0.22804 0.99569 0.77131 0.0
C112 C 0.21735 0.02458 0.79579 0.0
N113 N 0.20056 0.98744 0.78589 0.0
C114 C 0.33668 0.16065 0.76282 0.0
C115 C 0.27235 0.13278 0.73621 0.0
C116 C 0.31509 0.15961 0.73067 0.0
C117 C 0.34735 0.17399 0.74419 0.0
C118 C 0.26284 0.12091 0.75524 0.0
N119 N 0.29495 0.13467 0.76827 0.0
H120 H 0.36227 0.17102 0.773 0.0
H121 H 0.23014 0.09921 0.75915 0.0
H122 H 0.28651 0.05423 0.7624 0.0
H123 H 0.20282 0.02918 0.80837 0.0
O124 O 0.33583 0.1094 0.79609 0.0
O125 O 0.29131 0.09792 0.82001 0.0
O126 O 0.23424 0.12337 0.79777 0.0
C127 C 0.32464 0.09653 0.81333 0.0
H128 H 0.33704 0.27445 0.79825 0.0
H129 H 0.22383 0.97355 0.76004 0.0
H130 H 0.24681 0.1204 0.72588 0.0
H131 H 0.38078 0.19407 0.74024 0.0
Co132 Co 0.90419 0.17062 0.79647 0.0
C133 C 0.82072 0.13489 0.81583 0.0
C134 C 0.82378 0.17241 0.79168 0.0
C135 C 0.7844 0.15725 0.80025 0.0
N136 N 0.84623 0.15789 0.80133 0.0
N137 N 0.7827 0.1339 0.81544 0.0
H138 H 0.82998 0.11963 0.82653 0.0
H139 H 0.83545 0.19332 0.77951 0.0
C140 C 0.89804 0.08739 0.78673 0.0
O141 O 0.92505 0.10805 0.77287 0.0
N142 N 0.96309 0.18385 0.79234 0.0
C143 C 0.99435 0.21419 0.78141 0.0
C144 C 0.03076 0.21083 0.78301 0.0
C145 C 0.98173 0.16405 0.80109 0.0
N146 N 1.02245 0.17887 0.7952 0.0
C147 C 0.91031 0.20639 0.76 0.0
C148 C 0.85263 0.13231 0.74153 0.0
C149 C 0.87194 0.17118 0.73148 0.0
C150 C 0.9 0.20862 0.74135 0.0
C151 C 0.86227 0.13188 0.76065 0.0
N152 N 0.89279 0.1683 0.76941 0.0
H153 H 0.93094 0.23615 0.76707 0.0
H154 H 0.84414 0.10237 0.76841 0.0
H155 H 0.99153 0.23715 0.77271 0.0
H156 H 0.9652 0.13813 0.81111 0.0
O157 O 0.924 0.2303 0.80019 0.0
O158 O 0.91853 0.18579 0.82298 0.0
O159 O 0.88476 0.10707 0.79755 0.0
C160 C 0.92959 0.22475 0.81779 0.0
H161 H 0.75952 0.16416 0.79609 0.0
H162 H 0.06034 0.22908 0.77511 0.0
H163 H 0.82992 0.10243 0.73489 0.0
H164 H 0.91346 0.24007 0.73502 0.0
Co165 Co 0.86503 0.74063 0.78589 0.0
C166 C 0.90008 0.69341 0.80637 0.0
C167 C 0.86888 0.66118 0.78071 0.0
C168 C 0.88426 0.63755 0.7896 0.0
N169 N 0.87938 0.69648 0.79109 0.0
N170 N 0.90369 0.65776 0.80575 0.0
H171 H 0.91203 0.71665 0.81772 0.0
H172 H 0.85087 0.65291 0.76769 0.0
C173 C 0.95274 0.81802 0.781 0.0
O174 O 0.93906 0.82554 0.76507 0.0
N175 N 0.84966 0.78509 0.78151 0.0
C176 C 0.812 0.77976 0.77489 0.0
C177 C 0.8122 0.81806 0.77593 0.0
C178 C 0.87095 0.8263 0.78746 0.0
N179 N 0.84951 0.84726 0.78369 0.0
C180 C 0.84476 0.72804 0.74656 0.0
C181 C 0.92011 0.73369 0.73361 0.0
C182 C 0.8866 0.72314 0.72081 0.0
C183 C 0.8488 0.72073 0.72753 0.0
C184 C 0.91452 0.74037 0.75276 0.0
N185 N 0.87738 0.73841 0.759 0.0
H186 H 0.81424 0.72306 0.75135 0.0
H187 H 0.93951 0.74572 0.76266 0.0
H188 H 0.78511 0.74986 0.77023 0.0
H189 H 0.90078 0.84071 0.79511 0.0
O190 O 0.80514 0.69753 0.78532 0.0
O191 O 0.83927 0.73243 0.81109 0.0
O192 O 0.92727 0.78613 0.79143 0.0
C193 C 0.80324 0.70439 0.8032 0.0
H194 H 0.88028 0.60715 0.78488 0.0
H195 H 0.78713 0.82413 0.77118 0.0
H196 H 0.94954 0.73497 0.72903 0.0
H197 H 0.82196 0.71226 0.71817 0.0
Co198 Co 0.79431 0.6078 0.55114 0.0
C199 C 0.88658 0.67606 0.54058 0.0
C200 C 0.8493 0.63329 0.51831 0.0
C201 C 0.89022 0.65857 0.51175 0.0
N202 N 0.84645 0.64363 0.53643 0.0
N203 N 0.91376 0.68522 0.52569 0.0
H204 H 0.8968 0.69068 0.55431 0.0
H205 H 0.82375 0.60714 0.5106 0.0
C206 C 0.84073 0.55908 0.54902 0.0
O207 O 0.87545 0.5949 0.55362 0.0
N208 N 0.74147 0.57001 0.56426 0.0
C209 C 0.72161 0.57878 0.57833 0.0
C210 C 0.68284 0.54216 0.58209 0.0
C211 C 0.71482 0.52872 0.55963 0.0
N212 N 0.67881 0.51075 0.57031 0.0
C213 C 0.83955 0.66421 0.58199 0.0
C214 C 0.83145 0.60071 0.60641 0.0
C215 C 0.84647 0.64213 0.61354 0.0
C216 C 0.85168 0.67442 0.60093 0.0
C217 C 0.81988 0.59191 0.58742 0.0
N218 N 0.82386 0.6234 0.5754 0.0
H219 H 0.84061 0.68872 0.57284 0.0
H220 H 0.80467 0.55895 0.58283 0.0
H221 H 0.73409 0.60965 0.58514 0.0
H222 H 0.72106 0.51259 0.54816 0.0
O223 O 0.77795 0.65153 0.54995 0.0
O224 O 0.76106 0.60045 0.52863 0.0
O225 O 0.80479 0.55804 0.54772 0.0
C226 C 0.75881 0.63378 0.5342 0.0
H227 H 0.90224 0.65668 0.49791 0.0
H228 H 0.6595 0.53895 0.59266 0.0
H229 H 0.82657 0.57469 0.61566 0.0
H230 H 0.86222 0.70663 0.60591 0.0
Co231 Co 0.42567 0.19253 0.55854 0.0
C232 C 0.37535 0.22088 0.53579 0.0
C233 C 0.34424 0.19616 0.56246 0.0
C234 C 0.32131 0.21093 0.55272 0.0
N235 N 0.37854 0.20253 0.55196 0.0
N236 N 0.34084 0.22653 0.53601 0.0
H237 H 0.39868 0.23139 0.52441 0.0
H238 H 0.33638 0.18346 0.57655 0.0
C239 C 0.46065 0.28651 0.56528 0.0
O240 O 0.42303 0.27718 0.57225 0.0
N241 N 0.47262 0.18292 0.56461 0.0
C242 C 0.46958 0.1478 0.57288 0.0
C243 C 0.51009 0.15279 0.57409 0.0
C244 C 0.51483 0.2089 0.561 0.0
N245 N 0.53841 0.19124 0.56668 0.0
C246 C 0.37739 0.15278 0.59173 0.0
C247 C 0.43014 0.21297 0.61781 0.0
C248 C 0.39287 0.17624 0.62407 0.0
C249 C 0.36663 0.14593 0.61075 0.0
C250 C 0.44008 0.21844 0.59843 0.0
N251 N 0.41265 0.18945 0.58553 0.0
H252 H 0.35599 0.12878 0.58191 0.0
H253 H 0.47032 0.24529 0.594 0.0
H254 H 0.43996 0.12041 0.57765 0.0
H255 H 0.52803 0.23967 0.55405 0.0
O256 O 0.39019 0.13267 0.55323 0.0
O257 O 0.43109 0.18067 0.53189 0.0
O258 O 0.46694 0.25656 0.5592 0.0
C259 C 0.40443 0.14061 0.53606 0.0
H260 H 0.29256 0.2106 0.55765 0.0
H261 H 0.51821 0.13023 0.58022 0.0
H262 H 0.45193 0.2365 0.62781 0.0
H263 H 0.33753 0.11713 0.61497 0.0
Co264 Co 0.86315 0.24698 0.55618 0.0
C265 C 0.8161 0.16155 0.53846 0.0
C266 C 0.8519 0.16123 0.5626 0.0
C267 C 0.83117 0.12072 0.555 0.0
N268 N 0.84211 0.18668 0.55233 0.0
N269 N 0.80881 0.121 0.53983 0.0
H270 H 0.8033 0.17285 0.52748 0.0
H271 H 0.87344 0.17142 0.5745 0.0
C272 C 0.78393 0.25321 0.56449 0.0
O273 O 0.80582 0.28387 0.57674 0.0
N274 N 0.8853 0.30799 0.55977 0.0
C275 C 0.92072 0.33537 0.56953 0.0
C276 C 0.92849 0.37636 0.56695 0.0
C277 C 0.87292 0.33322 0.55084 0.0
N278 N 0.89837 0.37497 0.55529 0.0
C279 C 0.90008 0.24901 0.59185 0.0
C280 C 0.82611 0.21122 0.61344 0.0
C281 C 0.86584 0.22553 0.6223 0.0
C282 C 0.90278 0.24313 0.611 0.0
C283 C 0.82472 0.21666 0.59387 0.0
N284 N 0.86179 0.23782 0.58347 0.0
H285 H 0.92935 0.26183 0.58378 0.0
H286 H 0.79374 0.20288 0.58726 0.0
H287 H 0.94092 0.32704 0.57749 0.0
H288 H 0.84621 0.32138 0.54115 0.0
O289 O 0.92068 0.2588 0.55125 0.0
O290 O 0.87675 0.25801 0.52932 0.0
O291 O 0.80178 0.23508 0.55563 0.0
C292 C 0.91475 0.26458 0.53373 0.0
H293 H 0.83388 0.0936 0.55976 0.0
H294 H 0.95422 0.40505 0.57327 0.0
H295 H 0.79641 0.19604 0.62146 0.0
H296 H 0.93396 0.25202 0.6168 0.0
Co297 Co 0.95935 0.45373 0.12704 0.0
C298 C 1.00714 0.53757 0.14558 0.0
C299 C 0.04119 0.53481 0.12105 0.0
C300 C 0.06542 0.57418 0.12962 0.0
N301 N 1.00442 0.51224 0.13096 0.0
N302 N 0.04402 0.57561 0.14507 0.0
H303 H 0.983 0.52799 0.15658 0.0
H304 H 0.05023 0.52312 0.10876 0.0
C305 C 0.88521 0.46593 0.11752 0.0
O306 O 0.87818 0.44085 0.10284 0.0
N307 N 0.91362 0.3938 0.12416 0.0
C308 C 0.91831 0.35961 0.11996 0.0
C309 C 0.87891 0.32275 0.12065 0.0
C310 C 0.87144 0.37627 0.12856 0.0
N311 N 0.84947 0.33347 0.12585 0.0
C312 C 0.97257 0.43586 0.08893 0.0
C313 C 0.97124 0.50423 0.0719 0.0
C314 C 0.97634 0.47496 0.06064 0.0
C315 C 0.97745 0.44078 0.06942 0.0
C316 C 0.96572 0.49765 0.09149 0.0
N317 N 0.96493 0.46283 0.09971 0.0
H318 H 0.97627 0.41092 0.09533 0.0
H319 H 0.96239 0.52073 0.10007 0.0
H320 H 0.94835 0.36067 0.11704 0.0
H321 H 0.85674 0.3938 0.13419 0.0
O322 O 1.00058 0.43507 0.12992 0.0
O323 O 0.96314 0.44159 0.15346 0.0
O324 O 0.91579 0.47383 0.12895 0.0
C325 C 0.99136 0.43111 0.14784 0.0
H326 H 0.0971 0.59907 0.12531 0.0
H327 H 0.87229 0.29068 0.11724 0.0
H328 H 0.97117 0.53162 0.06563 0.0
H329 H 0.98314 0.41851 0.06129 0.0
Co330 Co 0.58056 0.51544 0.12355 0.0
C331 C 0.4954 0.47553 0.14116 0.0
C332 C 0.49834 0.51434 0.11756 0.0
C333 C 0.45785 0.49628 0.12556 0.0
N334 N 0.52151 0.50077 0.12727 0.0
N335 N 0.45631 0.47213 0.14043 0.0
H336 H 0.50503 0.46029 0.15171 0.0
H337 H 0.51016 0.53616 0.10568 0.0
C338 C 0.56925 0.429 0.11495 0.0
O339 O 0.59408 0.44564 0.10003 0.0
N340 N 0.64094 0.53046 0.12084 0.0
C341 C 0.67494 0.5693 0.11654 0.0
C342 C 0.71209 0.56708 0.11716 0.0
C343 C 0.65883 0.50622 0.12523 0.0
N344 N 0.70169 0.52718 0.12241 0.0
C345 C 0.59862 0.5447 0.08526 0.0
C346 C 0.53034 0.47415 0.06871 0.0
C347 C 0.55926 0.50815 0.05724 0.0
C348 C 0.59346 0.54383 0.06577 0.0
C349 C 0.53714 0.47606 0.08826 0.0
N350 N 0.57184 0.51056 0.09625 0.0
H351 H 0.62351 0.5736 0.09149 0.0
H352 H 0.51424 0.44997 0.09701 0.0
H353 H 0.6735 0.59794 0.11349 0.0
H354 H 0.64154 0.4742 0.13094 0.0
O355 O 0.59803 0.5751 0.12608 0.0
O356 O 0.59174 0.53214 0.14985 0.0
O357 O 0.56157 0.45253 0.12602 0.0
C358 C 0.60146 0.57035 0.14407 0.0
H359 H 0.43209 0.50169 0.12123 0.0
H360 H 0.74411 0.59253 0.11362 0.0
H361 H 0.50298 0.44639 0.06264 0.0
H362 H 0.61547 0.57151 0.05747 0.0
Co363 Co 0.51877 0.0766 0.12957 0.0
C364 C 0.55722 0.02933 0.14666 0.0
C365 C 0.51413 0.99327 0.12424 0.0
C366 C 0.53014 0.96904 0.13197 0.0
N367 N 0.53156 0.03115 0.13335 0.0
N368 N 0.55703 0.99173 0.1461 0.0
H369 H 0.57516 0.05479 0.1567 0.0
H370 H 0.49085 0.9837 0.11299 0.0
C371 C 0.60564 0.15034 0.12031 0.0
O372 O 0.58845 0.15738 0.10536 0.0
N373 N 0.50464 0.12232 0.12651 0.0
C374 C 0.46588 0.11752 0.12206 0.0
C375 C 0.46847 0.15694 0.12198 0.0
C376 C 0.52925 0.16463 0.13031 0.0
N377 N 0.50854 0.1865 0.12694 0.0
C378 C 0.49099 0.06534 0.09097 0.0
C379 C 0.56139 0.06435 0.0755 0.0
C380 C 0.52867 0.0604 0.0636 0.0
C381 C 0.49302 0.06057 0.07154 0.0
C382 C 0.55838 0.06977 0.09492 0.0
N383 N 0.52407 0.07162 0.10238 0.0
H384 H 0.46209 0.06257 0.09681 0.0
H385 H 0.58358 0.07219 0.104 0.0
H386 H 0.43711 0.08744 0.11923 0.0
H387 H 0.56143 0.17959 0.13583 0.0
O388 O 0.45866 0.03552 0.13234 0.0
O389 O 0.50214 0.07245 0.15588 0.0
O390 O 0.58231 0.1199 0.13177 0.0
C391 C 0.46366 0.04432 0.1503 0.0
H392 H 0.52142 0.93664 0.128 0.0
H393 H 0.44324 0.16351 0.11804 0.0
H394 H 0.58903 0.06345 0.06987 0.0
H395 H 0.46627 0.0558 0.06284 0.0
Co396 Co 0.44976 0.95093 0.89546 0.0
C397 C 0.53205 0.99999 0.8758 0.0
C398 C 0.52993 0.03336 0.90066 0.0
C399 C 0.5695 0.05729 0.89211 0.0
N400 N 0.50692 0.99726 0.89052 0.0
N401 N 0.57049 0.03622 0.87649 0.0
H402 H 0.52248 0.97581 0.8649 0.0
H403 H 0.51878 0.04154 0.91339 0.0
C404 C 0.46435 0.87638 0.89923 0.0
O405 O 0.44143 0.86681 0.91486 0.0
N406 N 0.39109 0.90415 0.89954 0.0
C407 C 0.35739 0.90634 0.90694 0.0
C408 C 0.32095 0.8667 0.90576 0.0
C409 C 0.37357 0.86376 0.8928 0.0
N410 N 0.33156 0.84006 0.89705 0.0
C411 C 0.44139 0.95985 0.9351 0.0
C412 C 0.5166 0.96259 0.94587 0.0
C413 C 0.49321 0.97147 0.95923 0.0
C414 C 0.45468 0.96892 0.95376 0.0
C415 C 0.50207 0.9536 0.9272 0.0
N416 N 0.46473 0.95225 0.92199 0.0
H417 H 0.41381 0.96199 0.93106 0.0
H418 H 0.52215 0.95015 0.91672 0.0
H419 H 0.35836 0.93486 0.91239 0.0
H420 H 0.39056 0.85157 0.88459 0.0
O421 O 0.42968 0.99136 0.89706 0.0
O422 O 0.43214 0.95948 0.87061 0.0
O423 O 0.47027 0.90861 0.88922 0.0
C424 C 0.42213 0.98565 0.87909 0.0
H425 H 0.59522 0.0881 0.89676 0.0
H426 H 0.28942 0.85785 0.91127 0.0
H427 H 0.54695 0.965 0.94955 0.0
H428 H 0.43577 0.97573 0.96369 0.0
Co429 Co 0.08445 0.50813 0.88898 0.0
C430 C 0.03809 0.54441 0.86911 0.0
C431 C 1.00136 0.50651 0.89284 0.0
C432 C 0.97854 0.52302 0.88404 0.0
N433 N 0.03892 0.52048 0.88359 0.0
N434 N 1.00164 0.54664 0.86909 0.0
H435 H 0.06366 0.5598 0.85877 0.0
H436 H 0.9912 0.48565 0.90506 0.0
C437 C 0.15775 0.59421 0.89726 0.0
O438 O 0.16493 0.57694 0.91215 0.0
N439 N 0.13113 0.49555 0.8932 0.0
C440 C 0.12831 0.45888 0.89971 0.0
C441 C 0.16807 0.46187 0.8985 0.0
C442 C 0.17227 0.5189 0.88702 0.0
N443 N 0.19573 0.4999 0.89068 0.0
C444 C 0.06773 0.48211 0.9279 0.0
C445 C 0.06709 0.55399 0.94138 0.0
C446 C 0.05721 0.52002 0.95381 0.0
C447 C 0.05796 0.48392 0.94685 0.0
C448 C 0.07658 0.5508 0.92244 0.0
N449 N 0.07776 0.5155 0.91594 0.0
H450 H 0.06514 0.45285 0.92273 0.0
H451 H 0.08149 0.57618 0.91284 0.0
H452 H 0.09924 0.43087 0.90439 0.0
H453 H 0.18504 0.54898 0.87954 0.0
O454 O 0.0441 0.4479 0.88737 0.0
O455 O 0.08151 0.489 0.86315 0.0
O456 O 0.12717 0.57116 0.88596 0.0
C457 C 0.05345 0.45108 0.86948 0.0
H458 H 0.94688 0.5171 0.88797 0.0
H459 H 0.17615 0.43821 0.90326 0.0
H460 H 0.06582 0.58203 0.94605 0.0
H461 H 0.05027 0.45678 0.95592 0.0
Co462 Co 0.5313 0.58329 0.88677 0.0
C463 C 0.49677 0.49801 0.86882 0.0
C464 C 0.538 0.5054 0.89207 0.0
C465 C 0.52282 0.46508 0.88445 0.0
N466 N 0.52127 0.52579 0.88237 0.0
N467 N 0.49703 0.46054 0.8698 0.0
H468 H 0.47899 0.50506 0.85853 0.0
H469 H 0.55974 0.51893 0.90387 0.0
C470 C 0.44227 0.56776 0.89235 0.0
O471 O 0.45694 0.59104 0.90775 0.0
N472 N 0.54245 0.64234 0.8904 0.0
C473 C 0.57897 0.67644 0.89685 0.0
C474 C 0.575 0.71259 0.89635 0.0
C475 C 0.5181 0.65953 0.88494 0.0
N476 N 0.53645 0.7017 0.88907 0.0
C477 C 0.5504 0.59414 0.92633 0.0
C478 C 0.47992 0.51849 0.93827 0.0
C479 C 0.51197 0.5434 0.95132 0.0
C480 C 0.54709 0.582 0.9452 0.0
C481 C 0.48459 0.53178 0.9194 0.0
N482 N 0.51943 0.56947 0.91361 0.0
H483 H 0.5793 0.62219 0.92184 0.0
H484 H 0.46106 0.51075 0.90926 0.0
H485 H 0.60726 0.67578 0.90142 0.0
H486 H 0.48769 0.64215 0.87779 0.0
O487 O 0.59199 0.60396 0.88756 0.0
O488 O 0.55666 0.60004 0.86144 0.0
O489 O 0.46784 0.56189 0.8816 0.0
C490 C 0.59328 0.61058 0.86952 0.0
H491 H 0.53094 0.44134 0.88905 0.0
H492 H 0.5981 0.74412 0.90151 0.0
H493 H 0.45265 0.48805 0.94239 0.0
H494 H 0.57265 0.60214 0.95483 0.0
Co495 Co 0.63217 0.78596 0.46052 0.0
C496 C 0.6771 0.8669 0.48159 0.0
C497 C 0.71419 0.87022 0.45714 0.0
C498 C 0.73454 0.90916 0.46615 0.0
N499 N 0.67769 0.84367 0.46666 0.0
N500 N 0.71113 0.90704 0.48144 0.0
H501 H 0.65137 0.85516 0.49193 0.0
H502 H 0.72572 0.86324 0.44434 0.0
C503 C 0.59517 0.8428 0.45382 0.0
O504 O 0.63179 0.86929 0.44555 0.0
N505 N 0.58693 0.72853 0.45487 0.0
C506 C 0.59199 0.69612 0.44826 0.0
C507 C 0.55221 0.66002 0.44666 0.0
C508 C 0.54424 0.71197 0.457 0.0
N509 N 0.52242 0.67021 0.4521 0.0
C510 C 0.67933 0.79476 0.42682 0.0
C511 C 0.62266 0.79677 0.40124 0.0
C512 C 0.66026 0.79833 0.39457 0.0
C513 C 0.68862 0.79728 0.40767 0.0
C514 C 0.6144 0.794 0.42077 0.0
N515 N 0.64365 0.79503 0.4334 0.0
H516 H 0.70167 0.79312 0.4364 0.0
H517 H 0.5839 0.7896 0.42556 0.0
H518 H 0.62246 0.69854 0.44475 0.0
H519 H 0.5293 0.72975 0.46216 0.0
O520 O 0.66997 0.76409 0.46574 0.0
O521 O 0.62856 0.77028 0.48726 0.0
O522 O 0.5891 0.80698 0.46026 0.0
C523 C 0.65633 0.75821 0.48302 0.0
H524 H 0.76435 0.93697 0.46181 0.0
H525 H 0.54554 0.62898 0.44146 0.0
H526 H 0.59926 0.79612 0.39147 0.0
H527 H 0.71797 0.79827 0.40315 0.0
Co528 Co 0.26881 0.85806 0.46361 0.0
C529 C 0.18454 0.81557 0.48366 0.0
C530 C 0.19752 0.87451 0.47047 0.0
C531 C 0.15826 0.85709 0.47946 0.0
N532 N 0.21405 0.84856 0.47315 0.0
N533 N 0.15007 0.82001 0.48772 0.0
H534 H 0.18807 0.78883 0.48823 0.0
H535 H 0.21265 0.90379 0.46229 0.0
C536 C 0.25665 0.77141 0.45548 0.0
O537 O 0.27919 0.78777 0.43995 0.0
N538 N 0.32471 0.86839 0.45454 0.0
C539 C 0.35029 0.89648 0.44123 0.0
C540 C 0.38819 0.89596 0.44027 0.0
C541 C 0.34849 0.85225 0.46193 0.0
N542 N 0.38714 0.86809 0.45324 0.0
C543 C 0.25991 0.88513 0.42668 0.0
C544 C 0.19522 0.80699 0.41392 0.0
C545 C 0.21221 0.84223 0.40162 0.0
C546 C 0.24457 0.88181 0.40838 0.0
C547 C 0.21169 0.81181 0.43224 0.0
N548 N 0.24567 0.84996 0.43802 0.0
H549 H 0.28289 0.91652 0.43176 0.0
H550 H 0.19627 0.78495 0.44179 0.0
H551 H 0.34332 0.91732 0.43301 0.0
H552 H 0.33785 0.82973 0.47356 0.0
O553 O 0.29207 0.91917 0.46561 0.0
O554 O 0.29383 0.87804 0.48841 0.0
O555 O 0.24852 0.79471 0.46653 0.0
C556 C 0.30342 0.91624 0.48266 0.0
H557 H 0.13668 0.86993 0.47932 0.0
H558 H 0.41452 0.9147 0.43065 0.0
H559 H 0.16887 0.77621 0.4096 0.0
H560 H 0.25833 0.91024 0.39959 0.0
Co561 Co 0.19298 0.41327 0.45728 0.0
C562 C 0.23219 0.36734 0.47476 0.0
C563 C 0.19048 0.33021 0.45216 0.0
C564 C 0.20787 0.3073 0.46013 0.0
N565 N 0.20624 0.368 0.46126 0.0
N566 N 0.23389 0.33069 0.47438 0.0
H567 H 0.2491 0.39303 0.48482 0.0
H568 H 0.1676 0.31985 0.44072 0.0
C569 C 0.27891 0.48694 0.4477 0.0
O570 O 0.2607 0.49377 0.43308 0.0
N571 N 0.17944 0.45955 0.45447 0.0
C572 C 0.14149 0.45636 0.44975 0.0
C573 C 0.14496 0.49624 0.45088 0.0
C574 C 0.20417 0.50102 0.4597 0.0
N575 N 0.18468 0.52428 0.45693 0.0
C576 C 0.16527 0.40253 0.41865 0.0
C577 C 0.23477 0.39985 0.40316 0.0
C578 C 0.20215 0.39625 0.3913 0.0
C579 C 0.16705 0.39748 0.39921 0.0
C580 C 0.23218 0.40587 0.42256 0.0
N581 N 0.19819 0.40828 0.43005 0.0
H582 H 0.13667 0.4004 0.4245 0.0
H583 H 0.25736 0.40816 0.43162 0.0
H584 H 0.11254 0.42704 0.44619 0.0
H585 H 0.2356 0.51427 0.46593 0.0
O586 O 0.13286 0.37237 0.45982 0.0
O587 O 0.17591 0.40877 0.48357 0.0
O588 O 0.25642 0.45649 0.4593 0.0
C589 C 0.13748 0.38082 0.47779 0.0
H590 H 0.20068 0.27529 0.45623 0.0
H591 H 0.12053 0.50415 0.44721 0.0
H592 H 0.26199 0.39822 0.39749 0.0
H593 H 0.14054 0.39327 0.39048 0.0
H594 H 0.37178 0.42714 0.13277 0.0
H595 H 0.46336 0.46879 0.17815 0.0
H596 H 0.40505 0.43544 0.2013 0.0
H597 H 0.32791 0.39718 0.20873 0.0
H598 H 0.23571 0.35283 0.16362 0.0
H599 H 0.29406 0.38384 0.14019 0.0
C600 C 0.37874 0.42874 0.14774 0.0
C601 C 0.42169 0.45057 0.1538 0.0
C602 C 0.34497 0.40893 0.16095 0.0
C603 C 0.43055 0.45196 0.17318 0.0
C604 C 0.39724 0.43305 0.18641 0.0
C605 C 0.32074 0.39419 0.19375 0.0
C606 C 0.27773 0.37312 0.18785 0.0
C607 C 0.35436 0.41184 0.18047 0.0
C608 C 0.26864 0.36873 0.16843 0.0
C609 C 0.30196 0.38672 0.15508 0.0
H610 H 0.63646 0.938 0.21192 0.0
H611 H 0.65445 0.86821 0.1666 0.0
H612 H 0.62295 0.89647 0.14419 0.0
H613 H 0.58882 0.93997 0.13777 0.0
H614 H 0.5724 1.01074 0.18318 0.0
H615 H 0.60498 0.98344 0.20533 0.0
C616 C 0.63319 0.92883 0.19716 0.0
C617 C 0.64726 0.90078 0.19091 0.0
C618 C 0.61551 0.9455 0.18441 0.0
C619 C 0.64387 0.88986 0.17167 0.0
C620 C 0.62576 0.90588 0.15891 0.0
C621 C 0.59234 0.94926 0.15253 0.0
C622 C 0.57811 0.97717 0.15886 0.0
C623 C 0.61125 0.93354 0.16515 0.0
C624 C 0.58348 0.98963 0.17795 0.0
C625 C 0.60184 0.97381 0.19063 0.0
H626 H 0.08523 0.66042 0.13865 0.0
H627 H 0.03747 0.56564 0.18291 0.0
H628 H 0.06694 0.62224 0.20689 0.0
H629 H 0.10804 0.69911 0.2152 0.0
H630 H 0.15184 0.7939 0.17099 0.0
H631 H 0.12227 0.73728 0.14702 0.0
C632 C 0.08133 0.65238 0.15356 0.0
C633 C 0.05947 0.60908 0.15907 0.0
C634 C 0.0977 0.68512 0.16723 0.0
C635 C 0.05397 0.5988 0.1784 0.0
C636 C 0.07098 0.63113 0.19208 0.0
C637 C 0.11097 0.70715 0.2003 0.0
C638 C 0.13221 0.75044 0.1948 0.0
C639 C 0.09316 0.67441 0.18666 0.0
C640 C 0.13539 0.76072 0.1755 0.0
C641 C 0.11867 0.7284 0.16182 0.0
H642 H 0.46517 0.37665 0.87858 0.0
H643 H 0.48153 0.46235 0.83269 0.0
H644 H 0.4448 0.40155 0.81132 0.0
H645 H 0.40615 0.32464 0.80583 0.0
H646 H 0.38428 0.23699 0.85155 0.0
H647 H 0.42679 0.29792 0.87267 0.0
C648 C 0.46094 0.38194 0.86386 0.0
C649 C 0.47582 0.42411 0.85728 0.0
C650 C 0.43922 0.34653 0.85162 0.0
C651 C 0.4698 0.43036 0.83821 0.0
C652 C 0.44907 0.39559 0.82594 0.0
C653 C 0.41033 0.31864 0.82044 0.0
C654 C 0.3913 0.27614 0.82714 0.0
C655 C 0.43325 0.35362 0.83254 0.0
C656 C 0.39854 0.26923 0.84598 0.0
C657 C 0.42249 0.30413 0.85809 0.0
H658 H 0.69862 0.09288 0.80805 0.0
H659 H 0.79023 0.1328 0.85332 0.0
H660 H 0.73185 0.10569 0.87668 0.0
H661 H 0.65452 0.07297 0.88407 0.0
H662 H 0.56304 0.0302 0.83866 0.0
H663 H 0.62138 0.05603 0.81538 0.0
C664 C 0.70559 0.09545 0.82305 0.0
C665 C 0.74842 0.11494 0.82905 0.0
C666 C 0.67194 0.07948 0.83628 0.0
C667 C 0.75737 0.11762 0.84846 0.0
C668 C 0.72407 0.10241 0.86177 0.0
C669 C 0.64762 0.06946 0.86906 0.0
C670 C 0.60484 0.05016 0.86298 0.0
C671 C 0.68126 0.08372 0.85583 0.0
C672 C 0.59586 0.0449 0.84356 0.0
C673 C 0.62913 0.05975 0.8303 0.0
H674 H 0.95971 0.58999 0.87575 0.0
H675 H 1.01454 0.54983 0.83141 0.0
H676 H 0.98953 0.58159 0.80764 0.0
H677 H 0.94985 0.61882 0.79939 0.0
H678 H 0.89805 0.66227 0.84371 0.0
H679 H 0.92419 0.63165 0.86759 0.0
C680 C 0.96613 0.58832 0.86087 0.0
C681 C 0.98868 0.56738 0.8553 0.0
C682 C 0.95221 0.60728 0.84732 0.0
C683 C 0.99746 0.56596 0.83602 0.0
C684 C 0.983 0.58395 0.82244 0.0
C685 C 0.94443 0.62159 0.81429 0.0
C686 C 0.92182 0.64249 0.8198 0.0
C687 C 0.96004 0.60438 0.8279 0.0
C688 C 0.91557 0.64654 0.83915 0.0
C689 C 0.9303 0.62883 0.85278 0.0
H690 H 0.78659 0.70587 0.84107 0.0
H691 H 0.72442 0.65642 0.78752 0.0
H692 H 0.65424 0.62436 0.80278 0.0
H693 H 0.60952 0.61002 0.83149 0.0
H694 H 0.67193 0.65711 0.88518 0.0
H695 H 0.74206 0.69014 0.86983 0.0
C696 C 0.7577 0.68795 0.83278 0.0
C697 C 0.76103 0.68363 0.81318 0.0
C698 C 0.71705 0.66911 0.84168 0.0
C699 C 0.72307 0.6602 0.80266 0.0
C700 C 0.68271 0.64187 0.81136 0.0
C701 C 0.63849 0.62765 0.83978 0.0
C702 C 0.6353 0.63104 0.85945 0.0
C703 C 0.67916 0.64615 0.83088 0.0
C704 C 0.67328 0.65375 0.87001 0.0
C705 C 0.71358 0.67277 0.86125 0.0
H706 H 0.42591 1.00569 0.84174 0.0
H707 H 0.37091 1.01256 0.89504 0.0
H708 H 0.33553 0.04738 0.87978 0.0
H709 H 0.31981 0.07601 0.85103 0.0
H710 H 0.3788 0.0726 0.79821 0.0
H711 H 0.41284 0.03691 0.81344 0.0
C712 C 0.40607 1.01473 0.84995 0.0
C713 C 0.40091 1.00643 0.86942 0.0
C714 C 0.38655 0.03568 0.84117 0.0
C715 C 0.37551 0.01876 0.87999 0.0
C716 C 0.35519 0.03864 0.87128 0.0
C717 C 0.34027 0.06761 0.84293 0.0
C718 C 0.34664 0.07706 0.82353 0.0
C719 C 0.36048 0.04739 0.85186 0.0
C720 C 0.37342 0.06603 0.81321 0.0
C721 C 0.39287 0.04536 0.82188 0.0
H722 H 1.00961 0.36802 0.88058 0.0
H723 H 0.0521 0.44858 0.83095 0.0
H724 H 1.01677 0.38514 0.81075 0.0
H725 H 0.97367 0.30749 0.80729 0.0
H726 H 0.93296 0.226 0.8566 0.0
H727 H 0.96795 0.2895 0.87701 0.0
C728 C 1.01107 0.37169 0.86533 0.0
C729 C 0.03319 0.41291 0.85722 0.0
C730 C 0.99106 0.33509 0.85385 0.0
C731 C 0.03529 0.4172 0.83749 0.0
C732 C 1.01504 0.38098 0.82596 0.0
C733 C 0.97221 0.30351 0.82252 0.0
C734 C 0.9504 0.26216 0.83048 0.0
C735 C 0.99276 0.33988 0.83401 0.0
C736 C 0.94944 0.25753 0.85019 0.0
C737 C 0.96941 0.29378 0.86181 0.0
H738 H 0.66741 0.70928 0.20864 0.0
H739 H 0.71423 0.794 0.16044 0.0
H740 H 0.68137 0.73218 0.13913 0.0
H741 H 0.64173 0.65421 0.13436 0.0
H742 H 0.59841 0.56961 0.18265 0.0
H743 H 0.62765 0.63149 0.20389 0.0
C744 C 0.6701 0.71428 0.19346 0.0
C745 C 0.69304 0.75613 0.18608 0.0
C746 C 0.652 0.67868 0.18138 0.0
C747 C 0.69671 0.76208 0.16642 0.0
C748 C 0.67799 0.72678 0.15427 0.0
C749 C 0.6384 0.64929 0.14954 0.0
C750 C 0.61783 0.60742 0.15696 0.0
C751 C 0.65591 0.68495 0.16161 0.0
C752 C 0.61417 0.60154 0.17663 0.0
C753 C 0.63083 0.63688 0.18875 0.0
H754 H 0.32598 0.97091 0.21591 0.0
H755 H 0.23993 0.92953 0.16831 0.0
H756 H 0.30136 0.96063 0.14657 0.0
H757 H 0.37936 1.00017 0.1412 0.0
H758 H 0.46523 0.0439 0.18888 0.0
H759 H 0.40384 1.01115 0.21056 0.0
C760 C 0.32064 0.9685 0.20077 0.0
C761 C 0.2785 0.94778 0.1937 0.0
C762 C 0.35601 0.9869 0.18842 0.0
C763 C 0.27208 0.94534 0.17408 0.0
C764 C 0.30716 0.96307 0.16166 0.0
C765 C 0.38465 1.00237 0.15634 0.0
C766 C 0.42676 0.02425 0.16345 0.0
C767 C 0.34924 0.98399 0.16869 0.0
C768 C 0.43312 0.02725 0.18308 0.0
C769 C 0.39805 1.00851 0.19547 0.0
H770 H 0.06162 0.36081 0.21188 0.0
H771 H 0.09678 0.31246 0.16313 0.0
H772 H 0.06775 0.3458 0.14225 0.0
H773 H 0.03169 0.38766 0.13791 0.0
H774 H 0.99321 0.43327 0.18654 0.0
H775 H 1.02435 0.40194 0.20752 0.0
C776 C 0.06313 0.35778 0.19668 0.0
C777 C 0.08152 0.33442 0.18902 0.0
C778 C 0.04576 0.37642 0.1848 0.0
C779 C 0.08277 0.33026 0.16933 0.0
C780 C 0.06623 0.34934 0.15741 0.0
C781 C 0.03032 0.391 0.15311 0.0
C782 C 1.01045 0.41298 0.1607 0.0
C783 C 0.04759 0.37237 0.165 0.0
C784 C 1.00838 0.41651 0.1804 0.0
C785 C 0.02619 0.39864 0.19236 0.0
H786 H 0.09797 0.83765 0.50894 0.0
H787 H 0.11282 0.73369 0.4872 0.0
H788 H 0.04188 0.68186 0.49938 0.0
H789 H 0.97263 0.6665 0.51309 0.0
H790 H 0.95647 0.76933 0.53484 0.0
H791 H 0.03107 0.82138 0.52609 0.0
C792 C 0.08573 0.80363 0.50702 0.0
C793 C 0.11052 0.7896 0.49697 0.0
C794 C 0.0447 0.77393 0.51404 0.0
C795 C 0.0946 0.74537 0.49491 0.0
C796 C 0.05389 0.71571 0.50178 0.0
C797 C 0.98587 0.70029 0.51621 0.0
C798 C 0.9593 0.71433 0.52445 0.0
C799 C 0.02831 0.72968 0.51094 0.0
C800 C 0.97657 0.75797 0.52862 0.0
C801 C 1.01899 0.78762 0.52343 0.0
H802 H 0.27213 0.28392 0.46693 0.0
H803 H 0.24393 0.34781 0.51168 0.0
H804 H 0.27683 0.32274 0.53472 0.0
H805 H 0.31053 0.27991 0.54241 0.0
H806 H 0.34106 0.21726 0.49804 0.0
H807 H 0.3109 0.24485 0.47447 0.0
C808 C 0.27333 0.29231 0.48173 0.0
C809 C 0.25543 0.3175 0.48762 0.0
C810 C 0.29273 0.27804 0.49491 0.0
C811 C 0.25774 0.32876 0.50678 0.0
C812 C 0.27636 0.31426 0.51997 0.0
C813 C 0.31066 0.27246 0.52756 0.0
C814 C 0.32749 0.24626 0.52193 0.0
C815 C 0.2935 0.28853 0.51423 0.0
C816 C 0.32834 0.23748 0.50264 0.0
C817 C 0.31086 0.25301 0.48923 0.0
H818 H 0.74344 0.99003 0.47297 0.0
H819 H 0.70035 0.90043 0.5193 0.0
H820 H 0.7242 0.95964 0.54192 0.0
H821 H 0.76274 0.03731 0.54835 0.0
H822 H 0.80524 0.12667 0.50189 0.0
H823 H 0.77571 0.06722 0.47936 0.0
C824 C 0.73918 0.98362 0.48803 0.0
C825 C 0.72084 0.94119 0.49456 0.0
C826 C 0.75286 0.01772 0.50084 0.0
C827 C 0.71444 0.93293 0.51403 0.0
C828 C 0.72825 0.96674 0.52692 0.0
C829 C 0.76519 0.04361 0.53329 0.0
C830 C 0.78649 0.0862 0.52675 0.0
C831 C 0.74831 1.00929 0.52047 0.0
C832 C 0.78882 0.09414 0.50723 0.0
C833 C 0.77224 0.06019 0.49437 0.0
H834 H 0.37765 0.05897 0.54543 0.0
H835 H 0.40245 0.14111 0.49712 0.0
H836 H 0.37438 0.07838 0.47611 0.0
H837 H 0.33919 0.99973 0.47197 0.0
H838 H 0.31625 0.91889 0.52069 0.0
H839 H 0.34742 0.98192 0.54118 0.0
C840 C 0.37705 0.06326 0.53027 0.0
C841 C 0.39156 0.10449 0.52279 0.0
C842 C 0.36111 0.02733 0.51845 0.0
C843 C 0.39138 0.10966 0.50316 0.0
C844 C 0.37518 0.0738 0.49121 0.0
C845 C 0.3412 0.99594 0.48707 0.0
C846 C 0.32507 0.95461 0.49485 0.0
C847 C 0.35938 0.03241 0.49876 0.0
C848 C 0.32834 0.95026 0.51438 0.0
C849 C 0.34607 0.98628 0.52609 0.0
H850 H 0.05331 0.33902 0.4683 0.0
H851 H 0.13815 0.37664 0.51628 0.0
H852 H 0.07624 0.34207 0.53762 0.0
H853 H 0.99856 0.30226 0.54259 0.0
H854 H 0.91306 0.26764 0.49498 0.0
H855 H 0.97496 0.2999 0.47338 0.0
C856 C 0.05824 0.33949 0.48343 0.0
C857 C 0.10024 0.36017 0.49074 0.0
C858 C 1.02251 0.3201 0.49559 0.0
C859 C 0.10616 0.36099 0.51035 0.0
C860 C 0.0708 0.34116 0.52252 0.0
C861 C 0.99335 0.30138 0.52746 0.0
C862 C 0.95128 0.28221 0.52034 0.0
C863 C 0.02892 0.32071 0.51529 0.0
C864 C 0.94513 0.28204 0.50076 0.0
C865 C 0.98049 0.30052 0.48846 0.0
H866 H 0.73082 0.68838 0.54564 0.0
H867 H 0.73703 0.61825 0.49726 0.0
H868 H 0.70414 0.64946 0.47762 0.0
H869 H 0.67679 0.69867 0.47374 0.0
H870 H 0.66703 0.76758 0.52166 0.0
H871 H 0.69768 0.73441 0.54211 0.0
C872 C 0.7248 0.6799 0.53081 0.0
C873 C 0.7367 0.65133 0.52285 0.0
C874 C 0.70527 0.69765 0.51959 0.0
C875 C 0.72823 0.64015 0.5037 0.0
C876 C 0.70949 0.65803 0.49245 0.0
C877 C 0.68121 0.70636 0.4887 0.0
C878 C 0.67026 0.73587 0.49621 0.0
C879 C 0.69838 0.6871 0.50019 0.0
C880 C 0.6753 0.74493 0.51563 0.0
C881 C 0.693 0.72615 0.52724 0.0
H882 H 0.18129 0.38355 0.30329 0.0
H883 H 0.17898 0.26417 0.31316 0.0
H884 H 0.19637 0.28325 0.34648 0.0
H885 H 0.20468 0.33075 0.37346 0.0
H886 H 0.20082 0.44687 0.36348 0.0
H887 H 0.19303 0.43215 0.32953 0.0
C888 C 0.18441 0.36156 0.31273 0.0
C889 C 0.17804 0.32213 0.30584 0.0
C890 C 0.1931 0.37215 0.33186 0.0
C891 C 0.18366 0.29469 0.31812 0.0
C892 C 0.19333 0.30547 0.33719 0.0
C893 C 0.2029 0.35306 0.36372 0.0
C894 C 0.20331 0.3898 0.37077 0.0
C895 C 0.1971 0.34366 0.3443 0.0
C896 C 0.20048 0.4184 0.35822 0.0
C897 C 0.19594 0.40993 0.33888 0.0
H898 H 0.72949 0.79385 0.31343 0.0
H899 H 0.69811 0.89345 0.30367 0.0
H900 H 0.6719 0.88615 0.33615 0.0
H901 H 0.65792 0.85118 0.36755 0.0
H902 H 0.68567 0.74876 0.37597 0.0
H903 H 0.71158 0.75631 0.34353 0.0
C904 C 0.71634 0.81361 0.31822 0.0
C905 C 0.71589 0.84414 0.306 0.0
C906 C 0.70011 0.80836 0.33666 0.0
C907 C 0.69969 0.87016 0.31279 0.0
C908 C 0.68415 0.86566 0.33132 0.0
C909 C 0.669 0.83014 0.36213 0.0
C910 C 0.67026 0.79974 0.37415 0.0
C911 C 0.68408 0.83474 0.34339 0.0
C912 C 0.68495 0.7728 0.36703 0.0
C913 C 0.69982 0.77711 0.34851 0.0
H914 H 0.17153 0.81265 0.31431 0.0
H915 H 0.18298 0.93717 0.32022 0.0
H916 H 0.18921 0.93401 0.35449 0.0
H917 H 0.1977 0.8989 0.38225 0.0
H918 H 0.19218 0.77687 0.37646 0.0
H919 H 0.17604 0.77527 0.34282 0.0
C920 C 0.17462 0.83862 0.32321 0.0
C921 C 0.17695 0.87514 0.31488 0.0
C922 C 0.1794 0.83707 0.34288 0.0
C923 C 0.18136 0.90889 0.32642 0.0
C924 C 0.18497 0.9071 0.34596 0.0
C925 C 0.19304 0.87193 0.37365 0.0
C926 C 0.19686 0.8384 0.38183 0.0
C927 C 0.18516 0.87189 0.35427 0.0
C928 C 0.18936 0.80309 0.37056 0.0
C929 C 0.18047 0.80232 0.35128 0.0
H930 H 0.3882 0.23091 0.64939 0.0
H931 H 0.36925 0.10323 0.6438 0.0
H932 H 0.34042 0.08593 0.67589 0.0
H933 H 0.31966 0.10662 0.70544 0.0
H934 H 0.34062 0.23456 0.71198 0.0
H935 H 0.36908 0.25236 0.67956 0.0
C936 C 0.37832 0.19959 0.65535 0.0
C937 C 0.38066 0.16834 0.64428 0.0
C938 C 0.36143 0.18973 0.67381 0.0
C939 C 0.36739 0.12767 0.65205 0.0
C940 C 0.35081 0.1177 0.67035 0.0
C941 C 0.3299 0.13812 0.69956 0.0
C942 C 0.32735 0.16903 0.71066 0.0
C943 C 0.34717 0.14826 0.68125 0.0
C944 C 0.34168 0.21019 0.70335 0.0
C945 C 0.35823 0.22038 0.68495 0.0
H946 H 0.92487 0.22999 0.70561 0.0
H947 H 0.79881 0.11775 0.71072 0.0
H948 H 0.78571 0.12393 0.67739 0.0
H949 H 0.8104 0.16201 0.64672 0.0
H950 H 0.93045 0.28213 0.64488 0.0
H951 H 0.94428 0.2729 0.67745 0.0
C952 C 0.89372 0.20744 0.69989 0.0
C953 C 0.86291 0.1737 0.71107 0.0
C954 C 0.88512 0.21273 0.6812 0.0
C955 C 0.82377 0.14381 0.70263 0.0
C956 C 0.8159 0.1476 0.68355 0.0
C957 C 0.83917 0.18659 0.65351 0.0
C958 C 0.87 0.22196 0.64302 0.0
C959 C 0.84635 0.18215 0.6727 0.0
C960 C 0.90695 0.25356 0.65224 0.0
C961 C 0.91486 0.24856 0.67097 0.0
H962 H 0.82902 0.65262 0.70196 0.0
H963 H 0.94981 0.76935 0.6947 0.0
H964 H 0.94918 0.75433 0.66075 0.0
H965 H 0.91154 0.70948 0.63277 0.0
H966 H 0.79077 0.59269 0.64098 0.0
H967 H 0.79414 0.6062 0.67483 0.0
C968 C 0.85532 0.67468 0.69294 0.0
C969 C 0.88918 0.71224 0.70074 0.0
C970 C 0.85462 0.66585 0.67357 0.0
C971 C 0.92342 0.74019 0.68899 0.0
C972 C 0.9229 0.73171 0.66959 0.0
C973 C 0.88614 0.68697 0.64202 0.0
C974 C 0.85104 0.65002 0.63431 0.0
C975 C 0.88826 0.69493 0.66165 0.0
C976 C 0.81847 0.62101 0.64651 0.0
C977 C 0.8202 0.62883 0.66589 0.0
H978 H 0.03318 0.5456 0.04068 0.0
H979 H 0.93193 0.41452 0.03422 0.0
H980 H 0.94638 0.41791 1.00031 0.0
H981 H 0.9909 0.45614 0.97303 0.0
H982 H 0.09418 0.58637 0.97914 0.0
H983 H 0.07546 0.58569 0.01255 0.0
C984 C 1.01387 0.51815 0.03173 0.0
C985 C 0.9817 0.4798 0.03987 0.0
C986 C 1.02295 0.52007 0.01225 0.0
C987 C 0.95707 0.44424 0.02823 0.0
C988 C 0.96535 0.44614 0.00888 0.0
C989 C 1.00943 0.48435 0.98168 0.0
C990 C 0.04428 0.52101 0.9737 0.0
C991 C 0.99884 0.48351 1.00084 0.0
C992 C 0.06722 0.55773 0.98497 0.0
C993 C 0.05663 0.55728 1.00408 0.0
H994 H 0.48748 0.49213 0.03776 0.0
H995 H 0.61959 0.52471 0.03042 0.0
H996 H 0.61538 0.5354 0.99662 0.0
H997 H 0.57636 0.54144 0.96979 0.0
H998 H 0.44492 0.51122 0.97662 0.0
H999 H 0.44623 0.49287 0.00991 0.0
C1000 C 0.51496 0.50072 0.02864 0.0
C1001 C 0.55389 0.50796 0.03651 0.0
C1002 C 0.51253 0.5076 0.00922 0.0
C1003 C 0.58946 0.51941 0.02464 0.0
C1004 C 0.58709 0.52557 1.00535 0.0
C1005 C 0.54798 0.53082 0.97858 0.0
C1006 C 0.51086 0.5284 0.97092 0.0
C1007 C 0.5492 0.52087 0.99761 0.0
C1008 C 0.47393 0.51348 0.98228 0.0
C1009 C 0.47475 0.50317 1.0013 0.0
H1010 H 0.54252 1.00169 0.0454 0.0
H1011 H 0.51738 0.10549 0.03591 0.0
H1012 H 0.50887 0.0896 1.00213 0.0
H1013 H 0.50124 0.04195 0.97608 0.0
H1014 H 0.52275 0.93577 0.98511 0.0
H1015 H 0.54105 0.95725 0.01827 0.0
C1016 C 0.53606 0.02125 0.03581 0.0
C1017 C 0.53019 0.05443 0.04302 0.0
C1018 C 0.53027 1.01129 0.01645 0.0
C1019 C 0.52154 0.07951 0.0306 0.0
C1020 C 0.51667 0.07044 0.01134 0.0
C1021 C 0.51016 0.02366 0.98531 0.0
C1022 C 0.5099 0.98694 0.9784 0.0
C1023 C 0.51968 0.03567 1.00424 0.0
C1024 C 0.52255 0.96405 0.99025 0.0
C1025 C 0.53276 0.9762 0.00918 0.0
H1026 H 0.2289 0.10459 0.21801 0.0
H1027 H 0.11109 0.99892 0.23939 0.0
H1028 H 0.07826 0.04422 0.24044 0.0
H1029 H 0.08441 0.11501 0.23695 0.0
H1030 H 0.2009 0.22018 0.21418 0.0
H1031 H 0.2329 0.17412 0.21191 0.0
C1032 C 0.19602 0.09161 0.22281 0.0
C1033 C 0.17252 0.04865 0.22873 0.0
C1034 C 0.17721 0.11778 0.22318 0.0
C1035 C 0.12969 0.03185 0.23466 0.0
C1036 C 0.111 0.05779 0.23536 0.0
C1037 C 0.11671 0.12771 0.23139 0.0
C1038 C 0.14043 0.17094 0.22591 0.0
C1039 C 0.13465 0.10094 0.22991 0.0
C1040 C 0.18199 0.18693 0.21846 0.0
C1041 C 0.20037 0.16068 0.21725 0.0
H1042 H 0.81525 0.02315 0.20861 0.0
H1043 H 0.88434 0.95666 0.22101 0.0
H1044 H 0.95158 0.02514 0.22259 0.0
H1045 H 0.98977 0.10498 0.22322 0.0
H1046 H 0.91874 0.16959 0.21152 0.0
H1047 H 0.85344 0.10096 0.20667 0.0
C1048 C 0.84498 0.02342 0.21156 0.0
C1049 C 0.84444 0.98469 0.21502 0.0
C1050 C 0.88332 0.0628 0.21257 0.0
C1051 C 0.88355 0.98589 0.2185 0.0
C1052 C 0.92211 0.02512 0.21941 0.0
C1053 C 0.9601 0.10377 0.21922 0.0
C1054 C 0.95881 0.14211 0.21784 0.0
C1055 C 0.92227 0.06391 0.21684 0.0
C1056 C 0.92022 0.14038 0.21282 0.0
C1057 C 0.88293 0.10119 0.21008 0.0
H1058 H 0.90669 0.80262 0.21241 0.0
H1059 H 0.90607 0.89222 0.25282 0.0
H1060 H 0.9819 0.91885 0.25955 0.0
H1061 H 0.04804 0.91624 0.25406 0.0
H1062 H 0.04898 0.82742 0.21318 0.0
H1063 H 0.97303 0.8005 0.20665 0.0
C1064 C 0.92303 0.82764 0.22283 0.0
C1065 C 0.90071 0.84523 0.2322 0.0
C1066 C 0.96658 0.84284 0.22655 0.0
C1067 C 0.9226 0.87837 0.24535 0.0
C1068 C 0.96587 0.89344 0.24926 0.0
C1069 C 0.0316 0.89083 0.24378 0.0
C1070 C 0.05404 0.87366 0.2342 0.0
C1071 C 0.98813 0.87585 0.23996 0.0
C1072 C 0.03242 0.84117 0.22074 0.0
C1073 C 0.98901 0.82575 0.21702 0.0
H1074 H 0.10847 0.21857 0.79745 0.0
H1075 H 0.99416 0.09446 0.79949 0.0
H1076 H 0.03747 0.05953 0.79966 0.0
H1077 H 0.10804 0.06435 0.79675 0.0
H1078 H 0.22264 0.18869 0.79685 0.0
H1079 H 0.17932 0.22346 0.79847 0.0
C1080 C 0.09323 0.18393 0.79811 0.0
C1081 C 0.04825 0.15909 0.7981 0.0
C1082 C 0.11842 0.16412 0.79849 0.0
C1083 C 0.02872 0.11423 0.79936 0.0
C1084 C 0.05348 0.09424 0.79939 0.0
C1085 C 0.12347 0.09904 0.79727 0.0
C1086 C 0.16844 0.1239 0.79633 0.0
C1087 C 0.09836 0.11886 0.79854 0.0
C1088 C 0.18809 0.16879 0.79741 0.0
C1089 C 0.16332 0.18875 0.79829 0.0
H1090 H 0.94138 0.04666 0.77774 0.0
H1091 H 0.82121 0.02499 0.80126 0.0
H1092 H 0.79524 0.94771 0.80279 0.0
H1093 H 0.8061 0.88599 0.79587 0.0
H1094 H 0.9289 0.90992 0.77487 0.0
H1095 H 0.95511 0.98697 0.77433 0.0
C1096 C 0.90972 0.02514 0.78346 0.0
C1097 C 0.88314 0.04136 0.78929 0.0
C1098 C 0.89564 0.98125 0.78476 0.0
C1099 C 0.84223 1.01314 0.7967 0.0
C1100 C 0.82738 0.96902 0.79752 0.0
C1101 C 0.83863 0.9083 0.79134 0.0
C1102 C 0.86555 0.89255 0.7853 0.0
C1103 C 0.85366 0.95266 0.79136 0.0
C1104 C 0.90785 0.92151 0.77967 0.0
C1105 C 0.92268 0.96544 0.77924 0.0
H1106 H 0.12806 0.98381 0.79941 0.0
H1107 H 0.17748 0.9061 0.77611 0.0
H1108 H 0.10475 0.84465 0.77441 0.0
H1109 H 0.02612 0.81489 0.7765 0.0
H1110 H 0.97688 0.89361 0.79855 0.0
H1111 H 0.05001 0.95234 0.80399 0.0
C1112 C 0.12308 0.95322 0.79436 0.0
C1113 C 0.15838 0.94981 0.78778 0.0
C1114 C 0.08092 0.91809 0.7931 0.0
C1115 C 0.15097 0.90985 0.78106 0.0
C1116 C 0.10932 0.87463 0.78009 0.0
C1117 C 0.0316 0.84457 0.78295 0.0
C1118 C 0.9963 0.84977 0.78743 0.0
C1119 C 0.07391 0.87862 0.78562 0.0
C1120 C 1.00359 0.88868 0.7953 0.0
C1121 C 0.04544 0.92237 0.79829 0.0
H1122 H 0.91214 0.55303 0.54457 0.0
H1123 H 0.77433 0.47593 0.54937 0.0
H1124 H 0.77965 0.41068 0.54965 0.0
H1125 H 0.82447 0.37628 0.55163 0.0
H1126 H 0.96209 0.45462 0.54754 0.0
H1127 H 0.95591 0.5187 0.54373 0.0
C1128 C 0.88319 0.52195 0.54555 0.0
C1129 C 0.843 0.51934 0.5472 0.0
C1130 C 0.88652 0.48481 0.54588 0.0
C1131 C 0.80573 0.4788 0.54816 0.0
C1132 C 0.80875 0.4415 0.54837 0.0
C1133 C 0.8529 0.40731 0.54947 0.0
C1134 C 0.89371 0.41096 0.55003 0.0
C1135 C 0.84909 0.44418 0.54764 0.0
C1136 C 0.93044 0.45129 0.54741 0.0
C1137 C 0.92691 0.48786 0.54524 0.0
H1138 H 0.59512 0.4831 0.57768 0.0
H1139 H 0.68246 0.44055 0.55941 0.0
H1140 H 0.62263 0.36761 0.55568 0.0
H1141 H 0.54545 0.31573 0.55763 0.0
H1142 H 0.45792 0.35804 0.57613 0.0
H1143 H 0.51772 0.43099 0.57972 0.0
C1144 C 0.60108 0.4578 0.57305 0.0
C1145 C 0.64328 0.46743 0.56879 0.0
C1146 C 0.56641 0.41582 0.57086 0.0
C1147 C 0.65031 0.43425 0.56255 0.0
C1148 C 0.61609 0.39244 0.56047 0.0
C1149 C 0.53934 0.34088 0.56236 0.0
C1150 C 0.49708 0.3312 0.56657 0.0
C1151 C 0.57396 0.38286 0.5645 0.0
C1152 C 0.49001 0.36438 0.57277 0.0
C1153 C 0.52425 0.4062 0.57487 0.0
H1154 H 0.73985 0.2956 0.57029 0.0
H1155 H 0.72305 0.17226 0.55456 0.0
H1156 H 0.64527 0.14218 0.55365 0.0
H1157 H 0.58169 0.15022 0.55848 0.0
H1158 H 0.59821 0.27409 0.57246 0.0
H1159 H 0.67633 0.30488 0.57275 0.0
C1160 C 0.7191 0.26218 0.56661 0.0
C1161 C 0.73714 0.2361 0.56266 0.0
C1162 C 0.67438 0.24523 0.56582 0.0
C1163 C 0.70997 0.19302 0.55763 0.0
C1164 C 0.66547 0.17575 0.55718 0.0
C1165 C 0.60251 0.18393 0.56157 0.0
C1166 C 0.58435 0.2098 0.56563 0.0
C1167 C 0.6473 0.20142 0.56144 0.0
C1168 C 0.61156 0.25364 0.56926 0.0
C1169 C 0.65615 0.27115 0.56951 0.0
H1170 H 0.80088 0.42745 0.10924 0.0
H1171 H 0.90358 0.54156 0.13438 0.0
H1172 H 0.85529 0.57082 0.13862 0.0
H1173 H 0.78414 0.5648 0.1338 0.0
H1174 H 0.6812 0.44844 0.11034 0.0
H1175 H 0.72896 0.41876 0.10707 0.0
C1176 C 0.81263 0.45865 0.11572 0.0
C1177 C 0.85574 0.48258 0.1213 0.0
C1178 C 0.78455 0.47471 0.11845 0.0
C1179 C 0.87045 0.52264 0.12996 0.0
C1180 C 0.84291 0.53937 0.13233 0.0
C1181 C 0.77231 0.53289 0.12809 0.0
C1182 C 0.7293 0.50884 0.12226 0.0
C1183 C 0.79997 0.51587 0.12643 0.0
C1184 C 0.71404 0.46731 0.11508 0.0
C1185 C 0.74142 0.45049 0.11308 0.0
H1186 H 0.47158 0.23289 0.13683 0.0
H1187 H 0.58718 0.24243 0.1137 0.0
H1188 H 0.61668 0.319 0.10804 0.0
H1189 H 0.60775 0.38228 0.10802 0.0
H1190 H 0.49407 0.37446 0.1327 0.0
H1191 H 0.46529 0.29811 0.13932 0.0
C1192 C 0.50331 0.25198 0.1307 0.0
C1193 C 0.52722 0.23223 0.12565 0.0
C1194 C 0.52009 0.29605 0.12759 0.0
C1195 C 0.56851 0.25715 0.11789 0.0
C1196 C 0.58517 0.30079 0.1145 0.0
C1197 C 0.57672 0.36382 0.11487 0.0
C1198 C 0.55274 0.38358 0.11966 0.0
C1199 C 0.56096 0.3204 0.11901 0.0
C1200 C 0.51295 0.35969 0.12885 0.0
C1201 C 0.49652 0.31612 0.13261 0.0
H1202 H 0.65141 0.23457 0.11201 0.0
H1203 H 0.66219 0.13197 0.13778 0.0
H1204 H 0.7394 0.18027 0.14238 0.0
H1205 H 0.80448 0.25133 0.13759 0.0
H1206 H 0.79159 0.35415 0.1135 0.0
H1207 H 0.71438 0.30647 0.11 0.0
C1208 C 0.67063 0.22286 0.11873 0.0
C1209 C 0.65142 0.17977 0.12436 0.0
C1210 C 0.71453 0.25094 0.12167 0.0
C1211 C 0.67645 0.16508 0.13331 0.0
C1212 C 0.72053 0.19263 0.13589 0.0
C1213 C 0.78455 0.26316 0.13172 0.0
C1214 C 0.80358 0.30609 0.12574 0.0
C1215 C 0.74002 0.23554 0.12991 0.0
C1216 C 0.77752 0.32137 0.11835 0.0
C1217 C 0.73348 0.29403 0.11621 0.0
H1218 H 0.42777 0.79097 0.90407 0.0
H1219 H 0.54106 0.90013 0.88153 0.0
H1220 H 0.57362 0.85516 0.87565 0.0
H1221 H 0.57126 0.78508 0.87908 0.0
H1222 H 0.45587 0.67623 0.90019 0.0
H1223 H 0.42228 0.72035 0.90423 0.0
C1224 C 0.4594 0.80482 0.89767 0.0
C1225 C 0.48217 0.84882 0.89339 0.0
C1226 C 0.47744 0.7787 0.89409 0.0
C1227 C 0.52292 0.86628 0.88491 0.0
C1228 C 0.54158 0.84061 0.88165 0.0
C1229 C 0.53862 0.77115 0.88434 0.0
C1230 C 0.5159 0.72739 0.88929 0.0
C1231 C 0.51941 0.79687 0.8865 0.0
C1232 C 0.47357 0.70953 0.89601 0.0
C1233 C 0.45457 0.73488 0.89849 0.0
H1234 H 0.24958 0.79426 0.88563 0.0
H1235 H 0.35651 0.78386 0.90626 0.0
H1236 H 0.31218 0.70589 0.90745 0.0
H1237 H 0.24188 0.6414 0.90469 0.0
H1238 H 0.13514 0.64979 0.88218 0.0
H1239 H 0.18026 0.72794 0.87957 0.0
C1240 C 0.26294 0.77463 0.89019 0.0
C1241 C 0.30599 0.79434 0.89589 0.0
C1242 C 0.2373 0.72977 0.8906 0.0
C1243 C 0.32351 0.76902 0.90164 0.0
C1244 C 0.29814 0.7246 0.90245 0.0
C1245 C 0.22868 0.66034 0.89903 0.0
C1246 C 0.18541 0.6403 0.89379 0.0
C1247 C 0.25487 0.70474 0.89726 0.0
C1248 C 0.16856 0.66485 0.88627 0.0
C1249 C 0.19424 0.70941 0.88487 0.0
H1250 H 0.3957 0.60674 0.89724 0.0
H1251 H 0.38582 0.48888 0.87751 0.0
H1252 H 0.30753 0.4569 0.8747 0.0
H1253 H 0.24123 0.46151 0.88024 0.0
H1254 H 0.2538 0.58166 0.89829 0.0
H1255 H 0.33173 0.61405 0.8992 0.0
C1256 C 0.37652 0.57427 0.89204 0.0
C1257 C 0.39638 0.55011 0.88768 0.0
C1258 C 0.33197 0.55654 0.89028 0.0
C1259 C 0.3712 0.50815 0.88085 0.0
C1260 C 0.32645 0.48983 0.87938 0.0
C1261 C 0.26122 0.49484 0.8842 0.0
C1262 C 0.24179 0.51918 0.88929 0.0
C1263 C 0.30635 0.51349 0.88443 0.0
C1264 C 0.268 0.56247 0.89418 0.0
C1265 C 0.31254 0.5809 0.89481 0.0
H1266 H 0.50998 0.79162 0.46359 0.0
H1267 H 0.60275 0.91992 0.4457 0.0
H1268 H 0.54705 0.93942 0.44507 0.0
H1269 H 0.47196 0.92004 0.44835 0.0
H1270 H 0.37749 0.79208 0.46533 0.0
H1271 H 0.43383 0.77278 0.46796 0.0
C1272 C 0.51802 0.82389 0.45967 0.0
C1273 C 0.56062 0.8541 0.45455 0.0
C1274 C 0.4855 0.83506 0.45921 0.0
C1275 C 0.57033 0.8958 0.44953 0.0
C1276 C 0.53845 0.90711 0.4492 0.0
C1277 C 0.46358 0.88786 0.45257 0.0
C1278 C 0.42046 0.85749 0.45646 0.0
C1279 C 0.49592 0.87693 0.45377 0.0
C1280 C 0.41043 0.8162 0.46236 0.0
C1281 C 0.44263 0.80508 0.46373 0.0
H1282 H 0.14917 0.57119 0.46879 0.0
H1283 H 0.26497 0.58064 0.44597 0.0
H1284 H 0.29829 0.65847 0.4442 0.0
H1285 H 0.2931 0.72354 0.44744 0.0
H1286 H 0.17923 0.71595 0.47173 0.0
H1287 H 0.14647 0.63791 0.47476 0.0
C1288 C 0.18174 0.59049 0.46356 0.0
C1289 C 0.20464 0.5703 0.45747 0.0
C1290 C 0.20088 0.63547 0.46279 0.0
C1291 C 0.24699 0.59555 0.4509 0.0
C1292 C 0.26591 0.64001 0.44977 0.0
C1293 C 0.2612 0.70476 0.45351 0.0
C1294 C 0.23839 0.72519 0.45919 0.0
C1295 C 0.24298 0.66024 0.45543 0.0
C1296 C 0.19739 0.70078 0.4673 0.0
C1297 C 0.17861 0.65619 0.46894 0.0
H1298 H 0.47798 0.58856 0.46375 0.0
H1299 H 0.46481 0.69064 0.43907 0.0
H1300 H 0.3874 0.64246 0.43558 0.0
H1301 H 0.32454 0.57053 0.43817 0.0
H1302 H 0.33594 0.46938 0.46515 0.0
H1303 H 0.41327 0.51782 0.46912 0.0
C1304 C 0.45792 0.60004 0.4577 0.0
C1305 C 0.47673 0.64273 0.45149 0.0
C1306 C 0.41347 0.57237 0.45608 0.0
C1307 C 0.45072 0.65784 0.44395 0.0
C1308 C 0.40666 0.6303 0.44188 0.0
C1309 C 0.34389 0.55919 0.44505 0.0
C1310 C 0.32483 0.51648 0.45123 0.0
C1311 C 0.38783 0.5874 0.44769 0.0
C1312 C 0.35009 0.50222 0.46028 0.0
C1313 C 0.39421 0.52982 0.4625 0.0
loop_
_geom_bond_atom_site_label_1
_geom_bond_atom_site_label_2
_geom_bond_distance
_geom_bond_site_symmetry_2
_ccdc_geom_bond_type
Co0 N4 2.148 . S
Co0 N10 2.128 . S
Co0 N20 2.194 . S
Co0 O25 2.351 . S
Co0 O26 2.155 . S
Co0 O27 2.096 . S
C1 N4 1.301 . S
C1 N5 1.328 . S
C1 H6 0.930 . S
C2 C3 1.333 . S
C2 N4 1.317 . S
C2 H7 0.930 . S
C3 C2 1.333 . S
C3 N5 1.350 . S
C3 H29 0.931 . S
N4 Co0 2.148 . S
N4 C1 1.301 . S
N4 C2 1.317 . S
N5 C1 1.328 . S
N5 C3 1.350 . S
H6 C1 0.930 . S
H7 C2 0.930 . S
C8 O9 1.224 . S
C8 O27 1.247 . S
O9 C8 1.224 . S
N10 Co0 2.128 . S
N10 C11 1.355 . S
N10 C13 1.311 . S
C11 N10 1.355 . S
C11 C12 1.363 1_455 S
C11 H23 0.929 . S
C12 C11 1.363 1_655 S
C12 N14 1.375 . S
C12 H30 0.931 . S
C13 N10 1.311 . S
C13 N14 1.347 1_455 S
C13 H24 0.929 . S
N14 C12 1.375 . S
N14 C13 1.347 1_655 S
C15 C18 1.365 . S
C15 N20 1.328 . S
C15 H21 0.929 . S
C16 C17 1.362 . S
C16 C19 1.378 . S
C16 H31 0.929 . S
C17 C16 1.362 . S
C17 C18 1.366 . S
C18 C15 1.365 . S
C18 C17 1.366 . S
C18 H32 0.930 . S
C19 C16 1.378 . S
C19 N20 1.315 . S
C19 H22 0.930 . S
N20 Co0 2.194 . S
N20 C15 1.328 . S
N20 C19 1.315 . S
H21 C15 0.929 . S
H22 C19 0.930 . S
H23 C11 0.929 . S
H24 C13 0.929 . S
O25 Co0 2.351 . S
O25 C28 1.244 . S
O26 Co0 2.155 . S
O26 C28 1.240 . S
O27 Co0 2.096 . S
O27 C8 1.247 . S
C28 O25 1.244 . S
C28 O26 1.240 . S
H29 C3 0.931 . S
H30 C12 0.931 . S
H31 C16 0.929 . S
H32 C18 0.930 . S
Co33 N37 2.148 . S
Co33 N43 2.128 . S
Co33 N53 2.194 . S
Co33 O58 2.351 . S
Co33 O59 2.155 . S
Co33 O60 2.096 . S
C34 N37 1.301 . S
C34 N38 1.328 . S
C34 H39 0.930 . S
C35 C36 1.333 . S
C35 N37 1.317 . S
C35 H40 0.930 . S
C36 C35 1.333 . S
C36 N38 1.350 . S
C36 H62 0.931 . S
N37 Co33 2.148 . S
N37 C34 1.301 . S
N37 C35 1.317 . S
N38 C34 1.328 . S
N38 C36 1.350 . S
H39 C34 0.930 . S
H40 C35 0.930 . S
C41 O42 1.224 . S
C41 O60 1.247 . S
O42 C41 1.224 . S
N43 Co33 2.128 . S
N43 C44 1.355 . S
N43 C46 1.311 . S
C44 N43 1.355 . S
C44 C45 1.363 . S
C44 H56 0.929 . S
C45 C44 1.363 . S
C45 N47 1.375 . S
C45 H63 0.931 . S
C46 N43 1.311 . S
C46 N47 1.347 . S
C46 H57 0.929 . S
N47 C45 1.375 . S
N47 C46 1.347 . S
C48 C51 1.365 . S
C48 N53 1.328 . S
C48 H54 0.929 . S
C49 C50 1.362 . S
C49 C52 1.378 . S
C49 H64 0.929 . S
C50 C49 1.362 . S
C50 C51 1.366 . S
C51 C48 1.365 . S
C51 C50 1.366 . S
C51 H65 0.930 . S
C52 C49 1.378 . S
C52 N53 1.315 . S
C52 H55 0.930 . S
N53 Co33 2.194 . S
N53 C48 1.328 . S
N53 C52 1.315 . S
H54 C48 0.929 . S
H55 C52 0.930 . S
H56 C44 0.929 . S
H57 C46 0.929 . S
O58 Co33 2.351 . S
O58 C61 1.244 . S
O59 Co33 2.155 . S
O59 C61 1.240 . S
O60 Co33 2.096 . S
O60 C41 1.247 . S
C61 O58 1.244 . S
C61 O59 1.240 . S
H62 C36 0.931 . S
H63 C45 0.931 . S
H64 C49 0.929 . S
H65 C51 0.930 . S
Co66 N70 2.148 . S
Co66 N76 2.128 . S
Co66 N86 2.194 . S
Co66 O91 2.351 . S
Co66 O92 2.155 . S
Co66 O93 2.096 . S
C67 N70 1.301 . S
C67 N71 1.328 . S
C67 H72 0.930 . S
C68 C69 1.333 . S
C68 N70 1.317 . S
C68 H73 0.930 . S
C69 C68 1.333 . S
C69 N71 1.350 . S
C69 H95 0.931 . S
N70 Co66 2.148 . S
N70 C67 1.301 . S
N70 C68 1.317 . S
N71 C67 1.328 . S
N71 C69 1.350 . S
H72 C67 0.930 . S
H73 C68 0.930 . S
C74 O75 1.224 . S
C74 O93 1.247 . S
O75 C74 1.224 . S
N76 Co66 2.128 . S
N76 C77 1.355 . S
N76 C79 1.311 . S
C77 N76 1.355 . S
C77 C78 1.363 1_565 S
C77 H89 0.929 . S
C78 C77 1.363 1_545 S
C78 N80 1.375 . S
C78 H96 0.931 . S
C79 N76 1.311 . S
C79 N80 1.347 1_565 S
C79 H90 0.929 . S
N80 C78 1.375 . S
N80 C79 1.347 1_545 S
C81 C84 1.365 . S
C81 N86 1.328 . S
C81 H87 0.929 . S
C82 C83 1.362 . S
C82 C85 1.378 . S
C82 H97 0.929 . S
C83 C82 1.362 . S
C83 C84 1.366 . S
C84 C81 1.365 . S
C84 C83 1.366 . S
C84 H98 0.930 . S
C85 C82 1.378 . S
C85 N86 1.315 . S
C85 H88 0.930 . S
N86 Co66 2.194 . S
N86 C81 1.328 . S
N86 C85 1.315 . S
H87 C81 0.929 . S
H88 C85 0.930 . S
H89 C77 0.929 . S
H90 C79 0.929 . S
O91 Co66 2.351 . S
O91 C94 1.244 . S
O92 Co66 2.155 . S
O92 C94 1.240 . S
O93 Co66 2.096 . S
O93 C74 1.247 . S
C94 O91 1.244 . S
C94 O92 1.240 . S
H95 C69 0.931 . S
H96 C78 0.931 . S
H97 C82 0.929 . S
H98 C84 0.930 . S
Co99 N103 2.148 . S
Co99 N109 2.128 . S
Co99 N119 2.194 . S
Co99 O124 2.351 . S
Co99 O125 2.155 . S
Co99 O126 2.096 . S
C100 N103 1.301 . S
C100 N104 1.328 . S
C100 H105 0.930 . S
C101 C102 1.333 . S
C101 N103 1.317 . S
C101 H106 0.930 . S
C102 C101 1.333 . S
C102 N104 1.350 . S
C102 H128 0.931 . S
N103 Co99 2.148 . S
N103 C100 1.301 . S
N103 C101 1.317 . S
N104 C100 1.328 . S
N104 C102 1.350 . S
H105 C100 0.930 . S
H106 C101 0.930 . S
C107 O108 1.224 . S
C107 O126 1.247 . S
O108 C107 1.224 . S
N109 Co99 2.128 . S
N109 C110 1.355 . S
N109 C112 1.311 . S
C110 N109 1.355 . S
C110 C111 1.363 1_545 S
C110 H122 0.929 . S
C111 C110 1.363 1_565 S
C111 N113 1.375 . S
C111 H129 0.931 . S
C112 N109 1.311 . S
C112 N113 1.347 1_545 S
C112 H123 0.929 . S
N113 C111 1.375 . S
N113 C112 1.347 1_565 S
C114 C117 1.365 . S
C114 N119 1.328 . S
C114 H120 0.929 . S
C115 C116 1.362 . S
C115 C118 1.378 . S
C115 H130 0.929 . S
C116 C115 1.362 . S
C116 C117 1.366 . S
C117 C114 1.365 . S
C117 C116 1.366 . S
C117 H131 0.930 . S
C118 C115 1.378 . S
C118 N119 1.315 . S
C118 H121 0.930 . S
N119 Co99 2.194 . S
N119 C114 1.328 . S
N119 C118 1.315 . S
H120 C114 0.929 . S
H121 C118 0.930 . S
H122 C110 0.929 . S
H123 C112 0.929 . S
O124 Co99 2.351 . S
O124 C127 1.244 . S
O125 Co99 2.155 . S
O125 C127 1.240 . S
O126 Co99 2.096 . S
O126 C107 1.247 . S
C127 O124 1.244 . S
C127 O125 1.240 . S
H128 C102 0.931 . S
H129 C111 0.931 . S
H130 C115 0.929 . S
H131 C117 0.930 . S
Co132 N136 2.148 . S
Co132 N142 2.128 . S
Co132 N152 2.194 . S
Co132 O157 2.351 . S
Co132 O158 2.155 . S
Co132 O159 2.096 . S
C133 N136 1.301 . S
C133 N137 1.328 . S
C133 H138 0.930 . S
C134 C135 1.333 . S
C134 N136 1.317 . S
C134 H139 0.930 . S
C135 C134 1.333 . S
C135 N137 1.350 . S
C135 H161 0.931 . S
N136 Co132 2.148 . S
N136 C133 1.301 . S
N136 C134 1.317 . S
N137 C133 1.328 . S
N137 C135 1.350 . S
H138 C133 0.930 . S
H139 C134 0.930 . S
C140 O141 1.224 . S
C140 O159 1.247 . S
O141 C140 1.224 . S
N142 Co132 2.128 . S
N142 C143 1.355 . S
N142 C145 1.311 . S
C143 N142 1.355 . S
C143 C144 1.363 1_655 S
C143 H155 0.929 . S
C144 C143 1.363 1_455 S
C144 N146 1.375 . S
C144 H162 0.931 . S
C145 N142 1.311 . S
C145 N146 1.347 1_655 S
C145 H156 0.929 . S
N146 C144 1.375 . S
N146 C145 1.347 1_455 S
C147 C150 1.365 . S
C147 N152 1.328 . S
C147 H153 0.929 . S
C148 C149 1.362 . S
C148 C151 1.378 . S
C148 H163 0.929 . S
C149 C148 1.362 . S
C149 C150 1.366 . S
C150 C147 1.365 . S
C150 C149 1.366 . S
C150 H164 0.930 . S
C151 C148 1.378 . S
C151 N152 1.315 . S
C151 H154 0.930 . S
N152 Co132 2.194 . S
N152 C147 1.328 . S
N152 C151 1.315 . S
H153 C147 0.929 . S
H154 C151 0.930 . S
H155 C143 0.929 . S
H156 C145 0.929 . S
O157 Co132 2.351 . S
O157 C160 1.244 . S
O158 Co132 2.155 . S
O158 C160 1.240 . S
O159 Co132 2.096 . S
O159 C140 1.247 . S
C160 O157 1.244 . S
C160 O158 1.240 . S
H161 C135 0.931 . S
H162 C144 0.931 . S
H163 C148 0.929 . S
H164 C150 0.930 . S
Co165 N169 2.148 . S
Co165 N175 2.128 . S
Co165 N185 2.194 . S
Co165 O190 2.351 . S
Co165 O191 2.155 . S
Co165 O192 2.096 . S
C166 N169 1.301 . S
C166 N170 1.328 . S
C166 H171 0.930 . S
C167 C168 1.333 . S
C167 N169 1.317 . S
C167 H172 0.930 . S
C168 C167 1.333 . S
C168 N170 1.350 . S
C168 H194 0.931 . S
N169 Co165 2.148 . S
N169 C166 1.301 . S
N169 C167 1.317 . S
N170 C166 1.328 . S
N170 C168 1.350 . S
H171 C166 0.930 . S
H172 C167 0.930 . S
C173 O174 1.224 . S
C173 O192 1.247 . S
O174 C173 1.224 . S
N175 Co165 2.128 . S
N175 C176 1.355 . S
N175 C178 1.311 . S
C176 N175 1.355 . S
C176 C177 1.363 . S
C176 H188 0.929 . S
C177 C176 1.363 . S
C177 N179 1.375 . S
C177 H195 0.931 . S
C178 N175 1.311 . S
C178 N179 1.347 . S
C178 H189 0.929 . S
N179 C177 1.375 . S
N179 C178 1.347 . S
C180 C183 1.365 . S
C180 N185 1.328 . S
C180 H186 0.929 . S
C181 C182 1.362 . S
C181 C184 1.378 . S
C181 H196 0.929 . S
C182 C181 1.362 . S
C182 C183 1.366 . S
C183 C180 1.365 . S
C183 C182 1.366 . S
C183 H197 0.930 . S
C184 C181 1.378 . S
C184 N185 1.315 . S
C184 H187 0.930 . S
N185 Co165 2.194 . S
N185 C180 1.328 . S
N185 C184 1.315 . S
H186 C180 0.929 . S
H187 C184 0.930 . S
H188 C176 0.929 . S
H189 C178 0.929 . S
O190 Co165 2.351 . S
O190 C193 1.244 . S
O191 Co165 2.155 . S
O191 C193 1.240 . S
O192 Co165 2.096 . S
O192 C173 1.247 . S
C193 O190 1.244 . S
C193 O191 1.240 . S
H194 C168 0.931 . S
H195 C177 0.931 . S
H196 C181 0.929 . S
H197 C183 0.930 . S
Co198 N202 2.148 . S
Co198 N208 2.128 . S
Co198 N218 2.194 . S
Co198 O223 2.351 . S
Co198 O224 2.155 . S
Co198 O225 2.096 . S
C199 N202 1.301 . S
C199 N203 1.328 . S
C199 H204 0.930 . S
C200 C201 1.333 . S
C200 N202 1.317 . S
C200 H205 0.930 . S
C201 C200 1.333 . S
C201 N203 1.350 . S
C201 H227 0.931 . S
N202 Co198 2.148 . S
N202 C199 1.301 . S
N202 C200 1.317 . S
N203 C199 1.328 . S
N203 C201 1.350 . S
H204 C199 0.930 . S
H205 C200 0.930 . S
C206 O207 1.224 . S
C206 O225 1.247 . S
O207 C206 1.224 . S
N208 Co198 2.128 . S
N208 C209 1.355 . S
N208 C211 1.311 . S
C209 N208 1.355 . S
C209 C210 1.363 . S
C209 H221 0.929 . S
C210 C209 1.363 . S
C210 N212 1.375 . S
C210 H228 0.931 . S
C211 N208 1.311 . S
C211 N212 1.347 . S
C211 H222 0.929 . S
N212 C210 1.375 . S
N212 C211 1.347 . S
C213 C216 1.365 . S
C213 N218 1.328 . S
C213 H219 0.929 . S
C214 C215 1.362 . S
C214 C217 1.378 . S
C214 H229 0.929 . S
C215 C214 1.362 . S
C215 C216 1.366 . S
C216 C213 1.365 . S
C216 C215 1.366 . S
C216 H230 0.930 . S
C217 C214 1.378 . S
C217 N218 1.315 . S
C217 H220 0.930 . S
N218 Co198 2.194 . S
N218 C213 1.328 . S
N218 C217 1.315 . S
H219 C213 0.929 . S
H220 C217 0.930 . S
H221 C209 0.929 . S
H222 C211 0.929 . S
O223 Co198 2.351 . S
O223 C226 1.244 . S
O224 Co198 2.155 . S
O224 C226 1.240 . S
O225 Co198 2.096 . S
O225 C206 1.247 . S
C226 O223 1.244 . S
C226 O224 1.240 . S
H227 C201 0.931 . S
H228 C210 0.931 . S
H229 C214 0.929 . S
H230 C216 0.930 . S
Co231 N235 2.148 . S
Co231 N241 2.128 . S
Co231 N251 2.194 . S
Co231 O256 2.351 . S
Co231 O257 2.155 . S
Co231 O258 2.096 . S
C232 N235 1.301 . S
C232 N236 1.328 . S
C232 H237 0.930 . S
C233 C234 1.333 . S
C233 N235 1.317 . S
C233 H238 0.930 . S
C234 C233 1.333 . S
C234 N236 1.350 . S
C234 H260 0.931 . S
N235 Co231 2.148 . S
N235 C232 1.301 . S
N235 C233 1.317 . S
N236 C232 1.328 . S
N236 C234 1.350 . S
H237 C232 0.930 . S
H238 C233 0.930 . S
C239 O240 1.224 . S
C239 O258 1.247 . S
O240 C239 1.224 . S
N241 Co231 2.128 . S
N241 C242 1.355 . S
N241 C244 1.311 . S
C242 N241 1.355 . S
C242 C243 1.363 . S
C242 H254 0.929 . S
C243 C242 1.363 . S
C243 N245 1.375 . S
C243 H261 0.931 . S
C244 N241 1.311 . S
C244 N245 1.347 . S
C244 H255 0.929 . S
N245 C243 1.375 . S
N245 C244 1.347 . S
C246 C249 1.365 . S
C246 N251 1.328 . S
C246 H252 0.929 . S
C247 C248 1.362 . S
C247 C250 1.378 . S
C247 H262 0.929 . S
C248 C247 1.362 . S
C248 C249 1.366 . S
C249 C246 1.365 . S
C249 C248 1.366 . S
C249 H263 0.930 . S
C250 C247 1.378 . S
C250 N251 1.315 . S
C250 H253 0.930 . S
N251 Co231 2.194 . S
N251 C246 1.328 . S
N251 C250 1.315 . S
H252 C246 0.929 . S
H253 C250 0.930 . S
H254 C242 0.929 . S
H255 C244 0.929 . S
O256 Co231 2.351 . S
O256 C259 1.244 . S
O257 Co231 2.155 . S
O257 C259 1.240 . S
O258 Co231 2.096 . S
O258 C239 1.247 . S
C259 O256 1.244 . S
C259 O257 1.240 . S
H260 C234 0.931 . S
H261 C243 0.931 . S
H262 C247 0.929 . S
H263 C249 0.930 . S
Co264 N268 2.148 . S
Co264 N274 2.128 . S
Co264 N284 2.194 . S
Co264 O289 2.351 . S
Co264 O290 2.155 . S
Co264 O291 2.096 . S
C265 N268 1.301 . S
C265 N269 1.328 . S
C265 H270 0.930 . S
C266 C267 1.333 . S
C266 N268 1.317 . S
C266 H271 0.930 . S
C267 C266 1.333 . S
C267 N269 1.350 . S
C267 H293 0.931 . S
N268 Co264 2.148 . S
N268 C265 1.301 . S
N268 C266 1.317 . S
N269 C265 1.328 . S
N269 C267 1.350 . S
H270 C265 0.930 . S
H271 C266 0.930 . S
C272 O273 1.224 . S
C272 O291 1.247 . S
O273 C272 1.224 . S
N274 Co264 2.128 . S
N274 C275 1.355 . S
N274 C277 1.311 . S
C275 N274 1.355 . S
C275 C276 1.363 . S
C275 H287 0.929 . S
C276 C275 1.363 . S
C276 N278 1.375 . S
C276 H294 0.931 . S
C277 N274 1.311 . S
C277 N278 1.347 . S
C277 H288 0.929 . S
N278 C276 1.375 . S
N278 C277 1.347 . S
C279 C282 1.365 . S
C279 N284 1.328 . S
C279 H285 0.929 . S
C280 C281 1.362 . S
C280 C283 1.378 . S
C280 H295 0.929 . S
C281 C280 1.362 . S
C281 C282 1.366 . S
C282 C279 1.365 . S
C282 C281 1.366 . S
C282 H296 0.930 . S
C283 C280 1.378 . S
C283 N284 1.315 . S
C283 H286 0.930 . S
N284 Co264 2.194 . S
N284 C279 1.328 . S
N284 C283 1.315 . S
H285 C279 0.929 . S
H286 C283 0.930 . S
H287 C275 0.929 . S
H288 C277 0.929 . S
O289 Co264 2.351 . S
O289 C292 1.244 . S
O290 Co264 2.155 . S
O290 C292 1.240 . S
O291 Co264 2.096 . S
O291 C272 1.247 . S
C292 O289 1.244 . S
C292 O290 1.240 . S
H293 C267 0.931 . S
H294 C276 0.931 . S
H295 C280 0.929 . S
H296 C282 0.930 . S
Co297 N301 2.148 . S
Co297 N307 2.128 . S
Co297 N317 2.194 . S
Co297 O322 2.351 . S
Co297 O323 2.155 . S
Co297 O324 2.096 . S
C298 N301 1.277 1_455 S
C298 N302 1.325 . S
C298 H303 0.955 . S
C299 C300 1.333 . S
C299 N301 1.317 . S
C299 H304 0.930 . S
C300 C299 1.333 . S
C300 N302 1.350 1_655 S
C300 H326 0.931 . S
N301 Co297 2.148 . S
N301 C298 1.277 1_655 S
N301 C299 1.317 . S
N302 C298 1.325 . S
N302 C300 1.350 1_455 S
H303 C298 0.955 . S
H304 C299 0.930 . S
C305 O306 1.224 . S
C305 O324 1.247 . S
O306 C305 1.224 . S
N307 Co297 2.128 . S
N307 C308 1.355 . S
N307 C310 1.311 . S
C308 N307 1.355 . S
C308 C309 1.363 . S
C308 H320 0.929 . S
C309 C308 1.363 . S
C309 N311 1.375 . S
C309 H327 0.931 . S
C310 N307 1.311 . S
C310 N311 1.347 . S
C310 H321 0.929 . S
N311 C309 1.375 . S
N311 C310 1.347 . S
C312 C315 1.365 1_655 S
C312 N317 1.328 . S
C312 H318 0.929 1_655 S
C313 C314 1.362 . S
C313 C316 1.378 . S
C313 H328 0.929 . S
C314 C313 1.362 . S
C314 C315 1.366 1_655 S
C315 C312 1.365 1_455 S
C315 C314 1.366 1_455 S
C315 H329 0.930 . S
C316 C313 1.378 . S
C316 N317 1.315 . S
C316 H319 0.930 . S
N317 Co297 2.194 . S
N317 C312 1.328 . S
N317 C316 1.315 . S
H318 C312 0.929 1_455 S
H319 C316 0.930 . S
H320 C308 0.929 . S
H321 C310 0.929 . S
O322 Co297 2.351 . S
O322 C325 1.244 . S
O323 Co297 2.155 . S
O323 C325 1.240 . S
O324 Co297 2.096 . S
O324 C305 1.247 . S
C325 O322 1.244 . S
C325 O323 1.240 . S
H326 C300 0.931 . S
H327 C309 0.931 . S
H328 C313 0.929 . S
H329 C315 0.930 . S
Co330 N334 2.148 . S
Co330 N340 2.128 . S
Co330 N350 2.194 . S
Co330 O355 2.351 . S
Co330 O356 2.155 . S
Co330 O357 2.096 . S
C331 N334 1.301 . S
C331 N335 1.328 . S
C331 H336 0.930 . S
C332 C333 1.333 . S
C332 N334 1.317 . S
C332 H337 0.930 . S
C333 C332 1.333 . S
C333 N335 1.350 . S
C333 H359 0.931 . S
N334 Co330 2.148 . S
N334 C331 1.301 . S
N334 C332 1.317 . S
N335 C331 1.328 . S
N335 C333 1.350 . S
H336 C331 0.930 . S
H337 C332 0.930 . S
C338 O339 1.224 . S
C338 O357 1.247 . S
O339 C338 1.224 . S
N340 Co330 2.128 . S
N340 C341 1.355 . S
N340 C343 1.311 . S
C341 N340 1.355 . S
C341 C342 1.363 . S
C341 H353 0.929 . S
C342 C341 1.363 . S
C342 N344 1.375 . S
C342 H360 0.931 . S
C343 N340 1.311 . S
C343 N344 1.347 . S
C343 H354 0.929 . S
N344 C342 1.375 . S
N344 C343 1.347 . S
C345 C348 1.365 . S
C345 N350 1.328 . S
C345 H351 0.929 . S
C346 C347 1.362 . S
C346 C349 1.378 . S
C346 H361 0.929 . S
C347 C346 1.362 . S
C347 C348 1.366 . S
C348 C345 1.365 . S
C348 C347 1.366 . S
C348 H362 0.930 . S
C349 C346 1.378 . S
C349 N350 1.315 . S
C349 H352 0.930 . S
N350 Co330 2.194 . S
N350 C345 1.328 . S
N350 C349 1.315 . S
H351 C345 0.929 . S
H352 C349 0.930 . S
H353 C341 0.929 . S
H354 C343 0.929 . S
O355 Co330 2.351 . S
O355 C358 1.244 . S
O356 Co330 2.155 . S
O356 C358 1.240 . S
O357 Co330 2.096 . S
O357 C338 1.247 . S
C358 O355 1.244 . S
C358 O356 1.240 . S
H359 C333 0.931 . S
H360 C342 0.931 . S
H361 C346 0.929 . S
H362 C348 0.930 . S
Co363 N367 2.148 . S
Co363 N373 2.128 . S
Co363 N383 2.194 . S
Co363 O388 2.351 . S
Co363 O389 2.155 . S
Co363 O390 2.096 . S
C364 N367 1.301 1_565 S
C364 N368 1.328 . S
C364 H369 0.930 . S
C365 C366 1.333 . S
C365 N367 1.317 . S
C365 H370 0.930 . S
C366 C365 1.333 . S
C366 N368 1.350 1_545 S
C366 H392 0.931 . S
N367 Co363 2.148 . S
N367 C364 1.301 1_545 S
N367 C365 1.317 . S
N368 C364 1.328 . S
N368 C366 1.350 1_565 S
H369 C364 0.930 . S
H370 C365 0.930 . S
C371 O372 1.224 . S
C371 O390 1.247 . S
O372 C371 1.224 . S
N373 Co363 2.128 . S
N373 C374 1.355 . S
N373 C376 1.311 . S
C374 N373 1.355 . S
C374 C375 1.363 . S
C374 H386 0.929 . S
C375 C374 1.363 . S
C375 N377 1.375 . S
C375 H393 0.931 . S
C376 N373 1.311 . S
C376 N377 1.347 . S
C376 H387 0.929 . S
N377 C375 1.375 . S
N377 C376 1.347 . S
C378 C381 1.365 1_545 S
C378 N383 1.328 . S
C378 H384 0.929 1_545 S
C379 C380 1.362 . S
C379 C382 1.378 . S
C379 H394 0.929 . S
C380 C379 1.362 . S
C380 C381 1.366 1_545 S
C381 C378 1.365 1_565 S
C381 C380 1.366 1_565 S
C381 H395 0.930 . S
C382 C379 1.378 . S
C382 N383 1.315 . S
C382 H385 0.930 . S
N383 Co363 2.194 . S
N383 C378 1.328 . S
N383 C382 1.315 . S
H384 C378 0.929 1_565 S
H385 C382 0.930 . S
H386 C374 0.929 . S
H387 C376 0.929 . S
O388 Co363 2.351 . S
O388 C391 1.244 . S
O389 Co363 2.155 . S
O389 C391 1.240 . S
O390 Co363 2.096 . S
O390 C371 1.247 . S
C391 O388 1.244 . S
C391 O389 1.240 . S
H392 C366 0.931 . S
H393 C375 0.931 . S
H394 C379 0.929 . S
H395 C381 0.930 . S
Co396 N400 2.148 . S
Co396 N406 2.128 . S
Co396 N416 2.194 . S
Co396 O421 2.351 . S
Co396 O422 2.155 . S
Co396 O423 2.096 . S
C397 N400 1.277 1_545 S
C397 N401 1.325 . S
C397 H402 0.955 . S
C398 C399 1.333 . S
C398 N400 1.317 . S
C398 H403 0.930 . S
C399 C398 1.333 . S
C399 N401 1.350 1_565 S
C399 H425 0.931 . S
N400 Co396 2.148 . S
N400 C397 1.277 1_565 S
N400 C398 1.317 . S
N401 C397 1.325 . S
N401 C399 1.350 1_545 S
H402 C397 0.955 . S
H403 C398 0.930 . S
C404 O405 1.224 . S
C404 O423 1.247 . S
O405 C404 1.224 . S
N406 Co396 2.128 . S
N406 C407 1.355 . S
N406 C409 1.311 . S
C407 N406 1.355 . S
C407 C408 1.363 . S
C407 H419 0.929 . S
C408 C407 1.363 . S
C408 N410 1.375 . S
C408 H426 0.931 . S
C409 N406 1.311 . S
C409 N410 1.347 . S
C409 H420 0.929 . S
N410 C408 1.375 . S
N410 C409 1.347 . S
C411 C414 1.365 1_565 S
C411 N416 1.328 . S
C411 H417 0.929 1_565 S
C412 C413 1.362 . S
C412 C415 1.378 . S
C412 H427 0.929 . S
C413 C412 1.362 . S
C413 C414 1.366 1_565 S
C414 C411 1.365 1_545 S
C414 C413 1.366 1_545 S
C414 H428 0.930 . S
C415 C412 1.378 . S
C415 N416 1.315 . S
C415 H418 0.930 . S
N416 Co396 2.194 . S
N416 C411 1.328 . S
N416 C415 1.315 . S
H417 C411 0.929 1_545 S
H418 C415 0.930 . S
H419 C407 0.929 . S
H420 C409 0.929 . S
O421 Co396 2.351 . S
O421 C424 1.244 . S
O422 Co396 2.155 . S
O422 C424 1.240 . S
O423 Co396 2.096 . S
O423 C404 1.247 . S
C424 O421 1.244 . S
C424 O422 1.240 . S
H425 C399 0.931 . S
H426 C408 0.931 . S
H427 C412 0.929 . S
H428 C414 0.930 . S
Co429 N433 2.148 . S
Co429 N439 2.128 . S
Co429 N449 2.194 . S
Co429 O454 2.351 . S
Co429 O455 2.155 . S
Co429 O456 2.096 . S
C430 N433 1.301 1_655 S
C430 N434 1.328 . S
C430 H435 0.930 . S
C431 C432 1.333 . S
C431 N433 1.317 . S
C431 H436 0.930 . S
C432 C431 1.333 . S
C432 N434 1.350 1_455 S
C432 H458 0.931 . S
N433 Co429 2.148 . S
N433 C430 1.301 1_455 S
N433 C431 1.317 . S
N434 C430 1.328 . S
N434 C432 1.350 1_655 S
H435 C430 0.930 . S
H436 C431 0.930 . S
C437 O438 1.224 . S
C437 O456 1.247 . S
O438 C437 1.224 . S
N439 Co429 2.128 . S
N439 C440 1.355 . S
N439 C442 1.311 . S
C440 N439 1.355 . S
C440 C441 1.363 . S
C440 H452 0.929 . S
C441 C440 1.363 . S
C441 N443 1.375 . S
C441 H459 0.931 . S
C442 N439 1.311 . S
C442 N443 1.347 . S
C442 H453 0.929 . S
N443 C441 1.375 . S
N443 C442 1.347 . S
C444 C447 1.365 1_455 S
C444 N449 1.328 . S
C444 H450 0.929 1_455 S
C445 C446 1.362 . S
C445 C448 1.378 . S
C445 H460 0.929 . S
C446 C445 1.362 . S
C446 C447 1.366 1_455 S
C447 C444 1.365 1_655 S
C447 C446 1.366 1_655 S
C447 H461 0.930 . S
C448 C445 1.378 . S
C448 N449 1.315 . S
C448 H451 0.930 . S
N449 Co429 2.194 . S
N449 C444 1.328 . S
N449 C448 1.315 . S
H450 C444 0.929 1_655 S
H451 C448 0.930 . S
H452 C440 0.929 . S
H453 C442 0.929 . S
O454 Co429 2.351 . S
O454 C457 1.244 . S
O455 Co429 2.155 . S
O455 C457 1.240 . S
O456 Co429 2.096 . S
O456 C437 1.247 . S
C457 O454 1.244 . S
C457 O455 1.240 . S
H458 C432 0.931 . S
H459 C441 0.931 . S
H460 C445 0.929 . S
H461 C447 0.930 . S
Co462 N466 2.148 . S
Co462 N472 2.128 . S
Co462 N482 2.194 . S
Co462 O487 2.351 . S
Co462 O488 2.155 . S
Co462 O489 2.096 . S
C463 N466 1.301 . S
C463 N467 1.328 . S
C463 H468 0.930 . S
C464 C465 1.333 . S
C464 N466 1.317 . S
C464 H469 0.930 . S
C465 C464 1.333 . S
C465 N467 1.350 . S
C465 H491 0.931 . S
N466 Co462 2.148 . S
N466 C463 1.301 . S
N466 C464 1.317 . S
N467 C463 1.328 . S
N467 C465 1.350 . S
H468 C463 0.930 . S
H469 C464 0.930 . S
C470 O471 1.224 . S
C470 O489 1.247 . S
O471 C470 1.224 . S
N472 Co462 2.128 . S
N472 C473 1.355 . S
N472 C475 1.311 . S
C473 N472 1.355 . S
C473 C474 1.363 . S
C473 H485 0.929 . S
C474 C473 1.363 . S
C474 N476 1.375 . S
C474 H492 0.931 . S
C475 N472 1.311 . S
C475 N476 1.347 . S
C475 H486 0.929 . S
N476 C474 1.375 . S
N476 C475 1.347 . S
C477 C480 1.365 . S
C477 N482 1.328 . S
C477 H483 0.929 . S
C478 C479 1.362 . S
C478 C481 1.378 . S
C478 H493 0.929 . S
C479 C478 1.362 . S
C479 C480 1.366 . S
C480 C477 1.365 . S
C480 C479 1.366 . S
C480 H494 0.930 . S
C481 C478 1.378 . S
C481 N482 1.315 . S
C481 H484 0.930 . S
N482 Co462 2.194 . S
N482 C477 1.328 . S
N482 C481 1.315 . S
H483 C477 0.929 . S
H484 C481 0.930 . S
H485 C473 0.929 . S
H486 C475 0.929 . S
O487 Co462 2.351 . S
O487 C490 1.244 . S
O488 Co462 2.155 . S
O488 C490 1.240 . S
O489 Co462 2.096 . S
O489 C470 1.247 . S
C490 O487 1.244 . S
C490 O488 1.240 . S
H491 C465 0.931 . S
H492 C474 0.931 . S
H493 C478 0.929 . S
H494 C480 0.930 . S
Co495 N499 2.148 . S
Co495 N505 2.128 . S
Co495 N515 2.194 . S
Co495 O520 2.351 . S
Co495 O521 2.155 . S
Co495 O522 2.096 . S
C496 N499 1.301 . S
C496 N500 1.328 . S
C496 H501 0.930 . S
C497 C498 1.333 . S
C497 N499 1.317 . S
C497 H502 0.930 . S
C498 C497 1.333 . S
C498 N500 1.350 . S
C498 H524 0.931 . S
N499 Co495 2.148 . S
N499 C496 1.301 . S
N499 C497 1.317 . S
N500 C496 1.328 . S
N500 C498 1.350 . S
H501 C496 0.930 . S
H502 C497 0.930 . S
C503 O504 1.224 . S
C503 O522 1.247 . S
O504 C503 1.224 . S
N505 Co495 2.128 . S
N505 C506 1.355 . S
N505 C508 1.311 . S
C506 N505 1.355 . S
C506 C507 1.363 . S
C506 H518 0.929 . S
C507 C506 1.363 . S
C507 N509 1.375 . S
C507 H525 0.931 . S
C508 N505 1.311 . S
C508 N509 1.347 . S
C508 H519 0.929 . S
N509 C507 1.375 . S
N509 C508 1.347 . S
C510 C513 1.365 . S
C510 N515 1.328 . S
C510 H516 0.929 . S
C511 C512 1.362 . S
C511 C514 1.378 . S
C511 H526 0.929 . S
C512 C511 1.362 . S
C512 C513 1.366 . S
C513 C510 1.365 . S
C513 C512 1.366 . S
C513 H527 0.930 . S
C514 C511 1.378 . S
C514 N515 1.315 . S
C514 H517 0.930 . S
N515 Co495 2.194 . S
N515 C510 1.328 . S
N515 C514 1.315 . S
H516 C510 0.929 . S
H517 C514 0.930 . S
H518 C506 0.929 . S
H519 C508 0.929 . S
O520 Co495 2.351 . S
O520 C523 1.244 . S
O521 Co495 2.155 . S
O521 C523 1.240 . S
O522 Co495 2.096 . S
O522 C503 1.247 . S
C523 O520 1.244 . S
C523 O521 1.240 . S
H524 C498 0.931 . S
H525 C507 0.931 . S
H526 C511 0.929 . S
H527 C513 0.930 . S
Co528 N532 2.148 . S
Co528 N538 2.128 . S
Co528 N548 2.194 . S
Co528 O553 2.351 . S
Co528 O554 2.155 . S
Co528 O555 2.096 . S
C529 N532 1.301 . S
C529 N533 1.328 . S
C529 H534 0.930 . S
C530 C531 1.333 . S
C530 N532 1.317 . S
C530 H535 0.930 . S
C531 C530 1.333 . S
C531 N533 1.350 . S
C531 H557 0.931 . S
N532 Co528 2.148 . S
N532 C529 1.301 . S
N532 C530 1.317 . S
N533 C529 1.328 . S
N533 C531 1.350 . S
H534 C529 0.930 . S
H535 C530 0.930 . S
C536 O537 1.224 . S
C536 O555 1.247 . S
O537 C536 1.224 . S
N538 Co528 2.128 . S
N538 C539 1.355 . S
N538 C541 1.311 . S
C539 N538 1.355 . S
C539 C540 1.363 . S
C539 H551 0.929 . S
C540 C539 1.363 . S
C540 N542 1.375 . S
C540 H558 0.931 . S
C541 N538 1.311 . S
C541 N542 1.347 . S
C541 H552 0.929 . S
N542 C540 1.375 . S
N542 C541 1.347 . S
C543 C546 1.365 . S
C543 N548 1.328 . S
C543 H549 0.929 . S
C544 C545 1.362 . S
C544 C547 1.378 . S
C544 H559 0.929 . S
C545 C544 1.362 . S
C545 C546 1.366 . S
C546 C543 1.365 . S
C546 C545 1.366 . S
C546 H560 0.930 . S
C547 C544 1.378 . S
C547 N548 1.315 . S
C547 H550 0.930 . S
N548 Co528 2.194 . S
N548 C543 1.328 . S
N548 C547 1.315 . S
H549 C543 0.929 . S
H550 C547 0.930 . S
H551 C539 0.929 . S
H552 C541 0.929 . S
O553 Co528 2.351 . S
O553 C556 1.244 . S
O554 Co528 2.155 . S
O554 C556 1.240 . S
O555 Co528 2.096 . S
O555 C536 1.247 . S
C556 O553 1.244 . S
C556 O554 1.240 . S
H557 C531 0.931 . S
H558 C540 0.931 . S
H559 C544 0.929 . S
H560 C546 0.930 . S
Co561 N565 2.148 . S
Co561 N571 2.128 . S
Co561 N581 2.194 . S
Co561 O586 2.351 . S
Co561 O587 2.155 . S
Co561 O588 2.096 . S
C562 N565 1.301 . S
C562 N566 1.328 . S
C562 H567 0.930 . S
C563 C564 1.333 . S
C563 N565 1.317 . S
C563 H568 0.930 . S
C564 C563 1.333 . S
C564 N566 1.350 . S
C564 H590 0.931 . S
N565 Co561 2.148 . S
N565 C562 1.301 . S
N565 C563 1.317 . S
N566 C562 1.328 . S
N566 C564 1.350 . S
H567 C562 0.930 . S
H568 C563 0.930 . S
C569 O570 1.224 . S
C569 O588 1.247 . S
O570 C569 1.224 . S
N571 Co561 2.128 . S
N571 C572 1.355 . S
N571 C574 1.311 . S
C572 N571 1.355 . S
C572 C573 1.363 . S
C572 H584 0.929 . S
C573 C572 1.363 . S
C573 N575 1.375 . S
C573 H591 0.931 . S
C574 N571 1.311 . S
C574 N575 1.347 . S
C574 H585 0.929 . S
N575 C573 1.375 . S
N575 C574 1.347 . S
C576 C579 1.365 . S
C576 N581 1.328 . S
C576 H582 0.929 . S
C577 C578 1.362 . S
C577 C580 1.378 . S
C577 H592 0.929 . S
C578 C577 1.362 . S
C578 C579 1.366 . S
C579 C576 1.365 . S
C579 C578 1.366 . S
C579 H593 0.930 . S
C580 C577 1.378 . S
C580 N581 1.315 . S
C580 H583 0.930 . S
N581 Co561 2.194 . S
N581 C576 1.328 . S
N581 C580 1.315 . S
H582 C576 0.929 . S
H583 C580 0.930 . S
H584 C572 0.929 . S
H585 C574 0.929 . S
O586 Co561 2.351 . S
O586 C589 1.244 . S
O587 Co561 2.155 . S
O587 C589 1.240 . S
O588 Co561 2.096 . S
O588 C569 1.247 . S
C589 O586 1.244 . S
C589 O587 1.240 . S
H590 C564 0.931 . S
H591 C573 0.931 . S
H592 C577 0.929 . S
H593 C579 0.930 . S
H594 C600 0.930 . S
H595 C603 0.930 . S
H596 C604 0.930 . S
H597 C605 0.930 . S
H598 C608 0.930 . S
H599 C609 0.930 . S
C600 H594 0.930 . S
C600 C601 1.355 . S
C600 C602 1.415 . S
C601 C600 1.355 . S
C601 C603 1.419 . S
C602 C600 1.415 . S
C602 C607 1.425 . S
C602 C609 1.409 . S
C603 H595 0.930 . S
C603 C601 1.419 . S
C603 C604 1.362 . S
C604 H596 0.930 . S
C604 C603 1.362 . S
C604 C607 1.409 . S
C605 H597 0.930 . S
C605 C606 1.355 . S
C605 C607 1.415 . S
C606 C605 1.355 . S
C606 C608 1.419 . S
C607 C602 1.425 . S
C607 C604 1.409 . S
C607 C605 1.415 . S
C608 H598 0.930 . S
C608 C606 1.419 . S
C608 C609 1.362 . S
C609 H599 0.930 . S
C609 C602 1.409 . S
C609 C608 1.362 . S
H610 C616 0.930 . S
H611 C619 0.930 . S
H612 C620 0.930 . S
H613 C621 0.930 . S
H614 C624 0.930 . S
H615 C625 0.930 . S
C616 H610 0.930 . S
C616 C617 1.355 . S
C616 C618 1.415 . S
C617 C616 1.355 . S
C617 C619 1.419 . S
C618 C616 1.415 . S
C618 C623 1.425 . S
C618 C625 1.409 . S
C619 H611 0.930 . S
C619 C617 1.419 . S
C619 C620 1.362 . S
C620 H612 0.930 . S
C620 C619 1.362 . S
C620 C623 1.409 . S
C621 H613 0.930 . S
C621 C622 1.355 . S
C621 C623 1.415 . S
C622 C621 1.355 . S
C622 C624 1.419 . S
C623 C618 1.425 . S
C623 C620 1.409 . S
C623 C621 1.415 . S
C624 H614 0.930 . S
C624 C622 1.419 . S
C624 C625 1.362 . S
C625 H615 0.930 . S
C625 C618 1.409 . S
C625 C624 1.362 . S
H626 C632 0.930 . S
H627 C635 0.930 1_655 S
H628 C636 0.930 . S
H629 C637 0.930 . S
H630 C640 0.930 . S
H631 C641 0.930 . S
C632 H626 0.930 . S
C632 C633 1.355 . S
C632 C634 1.415 . S
C633 C632 1.355 . S
C633 C635 1.419 . S
C634 C632 1.415 . S
C634 C639 1.425 . S
C634 C641 1.409 . S
C635 H627 0.930 1_455 S
C635 C633 1.419 . S
C635 C636 1.362 . S
C636 H628 0.930 . S
C636 C635 1.362 . S
C636 C639 1.409 . S
C637 H629 0.930 . S
C637 C638 1.355 . S
C637 C639 1.415 . S
C638 C637 1.355 . S
C638 C640 1.419 . S
C639 C634 1.425 . S
C639 C636 1.409 . S
C639 C637 1.415 . S
C640 H630 0.930 . S
C640 C638 1.419 . S
C640 C641 1.362 . S
C641 H631 0.930 . S
C641 C634 1.409 . S
C641 C640 1.362 . S
H642 C648 0.930 . S
H643 C651 0.930 . S
H644 C652 0.930 . S
H645 C653 0.930 . S
H646 C656 0.930 . S
H647 C657 0.930 . S
C648 H642 0.930 . S
C648 C649 1.355 . S
C648 C650 1.415 . S
C649 C648 1.355 . S
C649 C651 1.419 . S
C650 C648 1.415 . S
C650 C655 1.425 . S
C650 C657 1.409 . S
C651 H643 0.930 . S
C651 C649 1.419 . S
C651 C652 1.362 . S
C652 H644 0.930 . S
C652 C651 1.362 . S
C652 C655 1.409 . S
C653 H645 0.930 . S
C653 C654 1.355 . S
C653 C655 1.415 . S
C654 C653 1.355 . S
C654 C656 1.419 . S
C655 C650 1.425 . S
C655 C652 1.409 . S
C655 C653 1.415 . S
C656 H646 0.930 . S
C656 C654 1.419 . S
C656 C657 1.362 . S
C657 H647 0.930 . S
C657 C650 1.409 . S
C657 C656 1.362 . S
H658 C664 0.930 . S
H659 C667 0.930 . S
H660 C668 0.930 . S
H661 C669 0.930 . S
H662 C672 0.930 . S
H663 C673 0.930 . S
C664 H658 0.930 . S
C664 C665 1.355 . S
C664 C666 1.415 . S
C665 C664 1.355 . S
C665 C667 1.419 . S
C666 C664 1.415 . S
C666 C671 1.425 . S
C666 C673 1.409 . S
C667 H659 0.930 . S
C667 C665 1.419 . S
C667 C668 1.362 . S
C668 H660 0.930 . S
C668 C667 1.362 . S
C668 C671 1.409 . S
C669 H661 0.930 . S
C669 C670 1.355 . S
C669 C671 1.415 . S
C670 C669 1.355 . S
C670 C672 1.419 . S
C671 C666 1.425 . S
C671 C668 1.409 . S
C671 C669 1.415 . S
C672 H662 0.930 . S
C672 C670 1.419 . S
C672 C673 1.362 . S
C673 H663 0.930 . S
C673 C666 1.409 . S
C673 C672 1.362 . S
H674 C680 0.930 . S
H675 C683 0.930 . S
H676 C684 0.930 . S
H677 C685 0.930 . S
H678 C688 0.930 . S
H679 C689 0.930 . S
C680 H674 0.930 . S
C680 C681 1.355 . S
C680 C682 1.415 . S
C681 C680 1.355 . S
C681 C683 1.419 . S
C682 C680 1.415 . S
C682 C687 1.425 . S
C682 C689 1.409 . S
C683 H675 0.930 . S
C683 C681 1.419 . S
C683 C684 1.362 . S
C684 H676 0.930 . S
C684 C683 1.362 . S
C684 C687 1.409 . S
C685 H677 0.930 . S
C685 C686 1.355 . S
C685 C687 1.415 . S
C686 C685 1.355 . S
C686 C688 1.419 . S
C687 C682 1.425 . S
C687 C684 1.409 . S
C687 C685 1.415 . S
C688 H678 0.930 . S
C688 C686 1.419 . S
C688 C689 1.362 . S
C689 H679 0.930 . S
C689 C682 1.409 . S
C689 C688 1.362 . S
H690 C696 0.930 . S
H691 C699 0.930 . S
H692 C700 0.930 . S
H693 C701 0.930 . S
H694 C704 0.930 . S
H695 C705 0.930 . S
C696 H690 0.930 . S
C696 C697 1.355 . S
C696 C698 1.415 . S
C697 C696 1.355 . S
C697 C699 1.419 . S
C698 C696 1.415 . S
C698 C703 1.425 . S
C698 C705 1.409 . S
C699 H691 0.930 . S
C699 C697 1.419 . S
C699 C700 1.362 . S
C700 H692 0.930 . S
C700 C699 1.362 . S
C700 C703 1.409 . S
C701 H693 0.930 . S
C701 C702 1.355 . S
C701 C703 1.415 . S
C702 C701 1.355 . S
C702 C704 1.419 . S
C703 C698 1.425 . S
C703 C700 1.409 . S
C703 C701 1.415 . S
C704 H694 0.930 . S
C704 C702 1.419 . S
C704 C705 1.362 . S
C705 H695 0.930 . S
C705 C698 1.409 . S
C705 C704 1.362 . S
H706 C712 0.930 . S
H707 C715 0.930 . S
H708 C716 0.930 . S
H709 C717 0.930 . S
H710 C720 0.930 . S
H711 C721 0.930 . S
C712 H706 0.930 . S
C712 C713 1.355 1_545 S
C712 C714 1.415 . S
C713 C712 1.355 1_565 S
C713 C715 1.419 . S
C714 C712 1.415 . S
C714 C719 1.425 . S
C714 C721 1.409 . S
C715 H707 0.930 . S
C715 C713 1.419 . S
C715 C716 1.362 . S
C716 H708 0.930 . S
C716 C715 1.362 . S
C716 C719 1.409 1_565 S
C717 H709 0.930 . S
C717 C718 1.355 . S
C717 C719 1.415 . S
C718 C717 1.355 . S
C718 C720 1.419 . S
C719 C714 1.425 . S
C719 C716 1.409 1_545 S
C719 C717 1.415 . S
C720 H710 0.930 . S
C720 C718 1.419 . S
C720 C721 1.362 . S
C721 H711 0.930 . S
C721 C714 1.409 . S
C721 C720 1.362 . S
H722 C728 0.930 1_455 S
H723 C731 0.930 . S
H724 C732 0.930 . S
H725 C733 0.930 . S
H726 C736 0.930 . S
H727 C737 0.930 . S
C728 H722 0.930 1_655 S
C728 C729 1.355 1_655 S
C728 C730 1.415 . S
C729 C728 1.355 1_455 S
C729 C731 1.419 . S
C730 C728 1.415 . S
C730 C735 1.425 . S
C730 C737 1.409 . S
C731 H723 0.930 . S
C731 C729 1.419 . S
C731 C732 1.362 1_455 S
C732 H724 0.930 . S
C732 C731 1.362 1_655 S
C732 C735 1.409 . S
C733 H725 0.930 . S
C733 C734 1.355 . S
C733 C735 1.415 . S
C734 C733 1.355 . S
C734 C736 1.419 . S
C735 C730 1.425 . S
C735 C732 1.409 . S
C735 C733 1.415 . S
C736 H726 0.930 . S
C736 C734 1.419 . S
C736 C737 1.362 . S
C737 H727 0.930 . S
C737 C730 1.409 . S
C737 C736 1.362 . S
H738 C744 0.930 . S
H739 C747 0.930 . S
H740 C748 0.930 . S
H741 C749 0.930 . S
H742 C752 0.930 . S
H743 C753 0.930 . S
C744 H738 0.930 . S
C744 C745 1.355 . S
C744 C746 1.415 . S
C745 C744 1.355 . S
C745 C747 1.419 . S
C746 C744 1.415 . S
C746 C751 1.425 . S
C746 C753 1.409 . S
C747 H739 0.930 . S
C747 C745 1.419 . S
C747 C748 1.362 . S
C748 H740 0.930 . S
C748 C747 1.362 . S
C748 C751 1.409 . S
C749 H741 0.930 . S
C749 C750 1.355 . S
C749 C751 1.415 . S
C750 C749 1.355 . S
C750 C752 1.419 . S
C751 C746 1.425 . S
C751 C748 1.409 . S
C751 C749 1.415 . S
C752 H742 0.930 . S
C752 C750 1.419 . S
C752 C753 1.362 . S
C753 H743 0.930 . S
C753 C746 1.409 . S
C753 C752 1.362 . S
H754 C760 0.930 . S
H755 C763 0.930 . S
H756 C764 0.930 . S
H757 C765 0.930 . S
H758 C768 0.930 . S
H759 C769 0.930 . S
C760 H754 0.930 . S
C760 C761 1.355 . S
C760 C762 1.415 . S
C761 C760 1.355 . S
C761 C763 1.419 . S
C762 C760 1.415 . S
C762 C767 1.425 . S
C762 C769 1.409 1_565 S
C763 H755 0.930 . S
C763 C761 1.419 . S
C763 C764 1.362 . S
C764 H756 0.930 . S
C764 C763 1.362 . S
C764 C767 1.409 . S
C765 H757 0.930 . S
C765 C766 1.355 1_565 S
C765 C767 1.415 . S
C766 C765 1.355 1_545 S
C766 C768 1.419 . S
C767 C762 1.425 . S
C767 C764 1.409 . S
C767 C765 1.415 . S
C768 H758 0.930 . S
C768 C766 1.419 . S
C768 C769 1.362 . S
C769 H759 0.930 . S
C769 C762 1.409 1_545 S
C769 C768 1.362 . S
H770 C776 0.930 . S
H771 C779 0.930 . S
H772 C780 0.930 . S
H773 C781 0.930 . S
H774 C784 0.930 . S
H775 C785 0.930 . S
C776 H770 0.930 . S
C776 C777 1.355 . S
C776 C778 1.415 . S
C777 C776 1.355 . S
C777 C779 1.419 . S
C778 C776 1.415 . S
C778 C783 1.425 . S
C778 C785 1.409 . S
C779 H771 0.930 . S
C779 C777 1.419 . S
C779 C780 1.362 . S
C780 H772 0.930 . S
C780 C779 1.362 . S
C780 C783 1.409 . S
C781 H773 0.930 . S
C781 C782 1.355 1_455 S
C781 C783 1.415 . S
C782 C781 1.355 1_655 S
C782 C784 1.419 . S
C783 C778 1.425 . S
C783 C780 1.409 . S
C783 C781 1.415 . S
C784 H774 0.930 . S
C784 C782 1.419 . S
C784 C785 1.362 1_655 S
C785 H775 0.930 . S
C785 C778 1.409 . S
C785 C784 1.362 1_455 S
H786 C792 0.930 . S
H787 C795 0.930 . S
H788 C796 0.930 . S
H789 C797 0.930 . S
H790 C800 0.930 . S
H791 C801 0.930 . S
C792 H786 0.930 . S
C792 C793 1.355 . S
C792 C794 1.415 1_455 S
C793 C792 1.355 . S
C793 C795 1.419 . S
C794 C792 1.415 1_655 S
C794 C799 1.425 1_655 S
C794 C801 1.409 . S
C795 H787 0.930 . S
C795 C793 1.419 . S
C795 C796 1.362 . S
C796 H788 0.930 . S
C796 C795 1.362 . S
C796 C799 1.409 . S
C797 H789 0.930 . S
C797 C798 1.355 . S
C797 C799 1.415 1_655 S
C798 C797 1.355 . S
C798 C800 1.419 . S
C799 C794 1.425 1_455 S
C799 C796 1.409 . S
C799 C797 1.415 1_455 S
C800 H790 0.930 . S
C800 C798 1.419 . S
C800 C801 1.362 . S
C801 H791 0.930 . S
C801 C794 1.409 . S
C801 C800 1.362 . S
H802 C808 0.930 . S
H803 C811 0.930 . S
H804 C812 0.930 . S
H805 C813 0.930 . S
H806 C816 0.930 . S
H807 C817 0.930 . S
C808 H802 0.930 . S
C808 C809 1.355 . S
C808 C810 1.415 . S
C809 C808 1.355 . S
C809 C811 1.419 . S
C810 C808 1.415 . S
C810 C815 1.425 . S
C810 C817 1.409 . S
C811 H803 0.930 . S
C811 C809 1.419 . S
C811 C812 1.362 . S
C812 H804 0.930 . S
C812 C811 1.362 . S
C812 C815 1.409 . S
C813 H805 0.930 . S
C813 C814 1.355 . S
C813 C815 1.415 . S
C814 C813 1.355 . S
C814 C816 1.419 . S
C815 C810 1.425 . S
C815 C812 1.409 . S
C815 C813 1.415 . S
C816 H806 0.930 . S
C816 C814 1.419 . S
C816 C817 1.362 . S
C817 H807 0.930 . S
C817 C810 1.409 . S
C817 C816 1.362 . S
H818 C824 0.930 . S
H819 C827 0.930 . S
H820 C828 0.930 . S
H821 C829 0.930 . S
H822 C832 0.930 . S
H823 C833 0.930 . S
C824 H818 0.930 . S
C824 C825 1.355 . S
C824 C826 1.415 1_565 S
C825 C824 1.355 . S
C825 C827 1.419 . S
C826 C824 1.415 1_545 S
C826 C831 1.425 1_545 S
C826 C833 1.409 . S
C827 H819 0.930 . S
C827 C825 1.419 . S
C827 C828 1.362 . S
C828 H820 0.930 . S
C828 C827 1.362 . S
C828 C831 1.409 . S
C829 H821 0.930 . S
C829 C830 1.355 . S
C829 C831 1.415 1_545 S
C830 C829 1.355 . S
C830 C832 1.419 . S
C831 C826 1.425 1_565 S
C831 C828 1.409 . S
C831 C829 1.415 1_565 S
C832 H822 0.930 . S
C832 C830 1.419 . S
C832 C833 1.362 . S
C833 H823 0.930 . S
C833 C826 1.409 . S
C833 C832 1.362 . S
H834 C840 0.930 . S
H835 C843 0.930 . S
H836 C844 0.930 . S
H837 C845 0.930 . S
H838 C848 0.930 . S
H839 C849 0.930 . S
C840 H834 0.930 . S
C840 C841 1.355 . S
C840 C842 1.415 1_545 S
C841 C840 1.355 . S
C841 C843 1.419 . S
C842 C840 1.415 1_565 S
C842 C847 1.425 . S
C842 C849 1.409 . S
C843 H835 0.930 . S
C843 C841 1.419 . S
C843 C844 1.362 . S
C844 H836 0.930 . S
C844 C843 1.362 . S
C844 C847 1.409 1_545 S
C845 H837 0.930 . S
C845 C846 1.355 . S
C845 C847 1.415 . S
C846 C845 1.355 . S
C846 C848 1.419 . S
C847 C842 1.425 . S
C847 C844 1.409 1_565 S
C847 C845 1.415 . S
C848 H838 0.930 . S
C848 C846 1.419 . S
C848 C849 1.362 . S
C849 H839 0.930 . S
C849 C842 1.409 . S
C849 C848 1.362 . S
H850 C856 0.930 . S
H851 C859 0.930 . S
H852 C860 0.930 . S
H853 C861 0.930 . S
H854 C864 0.930 . S
H855 C865 0.930 . S
C856 H850 0.930 . S
C856 C857 1.355 . S
C856 C858 1.415 1_455 S
C857 C856 1.355 . S
C857 C859 1.419 . S
C858 C856 1.415 1_655 S
C858 C863 1.425 1_655 S
C858 C865 1.409 . S
C859 H851 0.930 . S
C859 C857 1.419 . S
C859 C860 1.362 . S
C860 H852 0.930 . S
C860 C859 1.362 . S
C860 C863 1.409 . S
C861 H853 0.930 . S
C861 C862 1.355 . S
C861 C863 1.415 1_655 S
C862 C861 1.355 . S
C862 C864 1.419 . S
C863 C858 1.425 1_455 S
C863 C860 1.409 . S
C863 C861 1.415 1_455 S
C864 H854 0.930 . S
C864 C862 1.419 . S
C864 C865 1.362 . S
C865 H855 0.930 . S
C865 C858 1.409 . S
C865 C864 1.362 . S
H866 C872 0.930 . S
H867 C875 0.930 . S
H868 C876 0.930 . S
H869 C877 0.930 . S
H870 C880 0.930 . S
H871 C881 0.930 . S
C872 H866 0.930 . S
C872 C873 1.355 . S
C872 C874 1.415 . S
C873 C872 1.355 . S
C873 C875 1.419 . S
C874 C872 1.415 . S
C874 C879 1.425 . S
C874 C881 1.409 . S
C875 H867 0.930 . S
C875 C873 1.419 . S
C875 C876 1.362 . S
C876 H868 0.930 . S
C876 C875 1.362 . S
C876 C879 1.409 . S
C877 H869 0.930 . S
C877 C878 1.355 . S
C877 C879 1.415 . S
C878 C877 1.355 . S
C878 C880 1.419 . S
C879 C874 1.425 . S
C879 C876 1.409 . S
C879 C877 1.415 . S
C880 H870 0.930 . S
C880 C878 1.419 . S
C880 C881 1.362 . S
C881 H871 0.930 . S
C881 C874 1.409 . S
C881 C880 1.362 . S
H882 C888 0.930 . S
H883 C891 0.930 . S
H884 C892 0.930 . S
H885 C893 0.930 . S
H886 C896 0.930 . S
H887 C897 0.930 . S
C888 H882 0.930 . S
C888 C889 1.355 . S
C888 C890 1.415 . S
C889 C888 1.355 . S
C889 C891 1.419 . S
C890 C888 1.415 . S
C890 C895 1.425 . S
C890 C897 1.409 . S
C891 H883 0.930 . S
C891 C889 1.419 . S
C891 C892 1.362 . S
C892 H884 0.930 . S
C892 C891 1.362 . S
C892 C895 1.409 . S
C893 H885 0.930 . S
C893 C894 1.355 . S
C893 C895 1.415 . S
C894 C893 1.355 . S
C894 C896 1.419 . S
C895 C890 1.425 . S
C895 C892 1.409 . S
C895 C893 1.415 . S
C896 H886 0.930 . S
C896 C894 1.419 . S
C896 C897 1.362 . S
C897 H887 0.930 . S
C897 C890 1.409 . S
C897 C896 1.362 . S
H898 C904 0.930 . S
H899 C907 0.930 . S
H900 C908 0.930 . S
H901 C909 0.930 . S
H902 C912 0.930 . S
H903 C913 0.930 . S
C904 H898 0.930 . S
C904 C905 1.355 . S
C904 C906 1.415 . S
C905 C904 1.355 . S
C905 C907 1.419 . S
C906 C904 1.415 . S
C906 C911 1.425 . S
C906 C913 1.409 . S
C907 H899 0.930 . S
C907 C905 1.419 . S
C907 C908 1.362 . S
C908 H900 0.930 . S
C908 C907 1.362 . S
C908 C911 1.409 . S
C909 H901 0.930 . S
C909 C910 1.355 . S
C909 C911 1.415 . S
C910 C909 1.355 . S
C910 C912 1.419 . S
C911 C906 1.425 . S
C911 C908 1.409 . S
C911 C909 1.415 . S
C912 H902 0.930 . S
C912 C910 1.419 . S
C912 C913 1.362 . S
C913 H903 0.930 . S
C913 C906 1.409 . S
C913 C912 1.362 . S
H914 C920 0.930 . S
H915 C923 0.930 . S
H916 C924 0.930 . S
H917 C925 0.930 . S
H918 C928 0.930 . S
H919 C929 0.930 . S
C920 H914 0.930 . S
C920 C921 1.355 . S
C920 C922 1.415 . S
C921 C920 1.355 . S
C921 C923 1.419 . S
C922 C920 1.415 . S
C922 C927 1.425 . S
C922 C929 1.409 . S
C923 H915 0.930 . S
C923 C921 1.419 . S
C923 C924 1.362 . S
C924 H916 0.930 . S
C924 C923 1.362 . S
C924 C927 1.409 . S
C925 H917 0.930 . S
C925 C926 1.355 . S
C925 C927 1.415 . S
C926 C925 1.355 . S
C926 C928 1.419 . S
C927 C922 1.425 . S
C927 C924 1.409 . S
C927 C925 1.415 . S
C928 H918 0.930 . S
C928 C926 1.419 . S
C928 C929 1.362 . S
C929 H919 0.930 . S
C929 C922 1.409 . S
C929 C928 1.362 . S
H930 C936 0.930 . S
H931 C939 0.930 . S
H932 C940 0.930 . S
H933 C941 0.930 . S
H934 C944 0.930 . S
H935 C945 0.930 . S
C936 H930 0.930 . S
C936 C937 1.355 . S
C936 C938 1.415 . S
C937 C936 1.355 . S
C937 C939 1.419 . S
C938 C936 1.415 . S
C938 C943 1.425 . S
C938 C945 1.409 . S
C939 H931 0.930 . S
C939 C937 1.419 . S
C939 C940 1.362 . S
C940 H932 0.930 . S
C940 C939 1.362 . S
C940 C943 1.409 . S
C941 H933 0.930 . S
C941 C942 1.355 . S
C941 C943 1.415 . S
C942 C941 1.355 . S
C942 C944 1.419 . S
C943 C938 1.425 . S
C943 C940 1.409 . S
C943 C941 1.415 . S
C944 H934 0.930 . S
C944 C942 1.419 . S
C944 C945 1.362 . S
C945 H935 0.930 . S
C945 C938 1.409 . S
C945 C944 1.362 . S
H946 C952 0.930 . S
H947 C955 0.930 . S
H948 C956 0.930 . S
H949 C957 0.930 . S
H950 C960 0.930 . S
H951 C961 0.930 . S
C952 H946 0.930 . S
C952 C953 1.355 . S
C952 C954 1.415 . S
C953 C952 1.355 . S
C953 C955 1.419 . S
C954 C952 1.415 . S
C954 C959 1.425 . S
C954 C961 1.409 . S
C955 H947 0.930 . S
C955 C953 1.419 . S
C955 C956 1.362 . S
C956 H948 0.930 . S
C956 C955 1.362 . S
C956 C959 1.409 . S
C957 H949 0.930 . S
C957 C958 1.355 . S
C957 C959 1.415 . S
C958 C957 1.355 . S
C958 C960 1.419 . S
C959 C954 1.425 . S
C959 C956 1.409 . S
C959 C957 1.415 . S
C960 H950 0.930 . S
C960 C958 1.419 . S
C960 C961 1.362 . S
C961 H951 0.930 . S
C961 C954 1.409 . S
C961 C960 1.362 . S
H962 C968 0.930 . S
H963 C971 0.930 . S
H964 C972 0.930 . S
H965 C973 0.930 . S
H966 C976 0.930 . S
H967 C977 0.930 . S
C968 H962 0.930 . S
C968 C969 1.355 . S
C968 C970 1.415 . S
C969 C968 1.355 . S
C969 C971 1.419 . S
C970 C968 1.415 . S
C970 C975 1.425 . S
C970 C977 1.409 . S
C971 H963 0.930 . S
C971 C969 1.419 . S
C971 C972 1.362 . S
C972 H964 0.930 . S
C972 C971 1.362 . S
C972 C975 1.409 . S
C973 H965 0.930 . S
C973 C974 1.355 . S
C973 C975 1.415 . S
C974 C973 1.355 . S
C974 C976 1.419 . S
C975 C970 1.425 . S
C975 C972 1.409 . S
C975 C973 1.415 . S
C976 H966 0.930 . S
C976 C974 1.419 . S
C976 C977 1.362 . S
C977 H967 0.930 . S
C977 C970 1.409 . S
C977 C976 1.362 . S
H978 C984 0.930 . S
H979 C987 0.930 . S
H980 C988 0.930 . S
H981 C989 0.930 . S
H982 C992 0.930 . S
H983 C993 0.930 . S
C984 H978 0.930 . S
C984 C985 1.355 . S
C984 C986 1.419 . S
C985 C984 1.355 . S
C985 C987 1.419 . S
C986 C984 1.419 . S
C986 C991 1.415 1_554 S
C986 C993 1.415 1_654 S
C987 H979 0.930 . S
C987 C985 1.419 . S
C987 C988 1.362 . S
C988 H980 0.930 . S
C988 C987 1.362 . S
C988 C991 1.409 1_554 S
C989 H981 0.930 . S
C989 C990 1.355 . S
C989 C991 1.415 1_455 S
C990 C989 1.355 . S
C990 C992 1.419 . S
C991 C986 1.415 1_556 S
C991 C988 1.409 1_556 S
C991 C989 1.415 1_655 S
C992 H982 0.930 . S
C992 C990 1.419 . S
C992 C993 1.362 . S
C993 H983 0.930 . S
C993 C986 1.415 1_456 S
C993 C992 1.362 . S
H994 C1000 0.930 . S
H995 C1003 0.930 . S
H996 C1004 0.930 . S
H997 C1005 0.930 . S
H998 C1008 0.930 . S
H999 C1009 0.930 . S
C1000 H994 0.930 . S
C1000 C1001 1.355 . S
C1000 C1002 1.415 . S
C1001 C1000 1.355 . S
C1001 C1003 1.419 . S
C1002 C1000 1.415 . S
C1002 C1007 1.425 1_554 S
C1002 C1009 1.409 1_554 S
C1003 H995 0.930 . S
C1003 C1001 1.419 . S
C1003 C1004 1.362 . S
C1004 H996 0.930 . S
C1004 C1003 1.362 . S
C1004 C1007 1.409 1_554 S
C1005 H997 0.930 . S
C1005 C1006 1.355 . S
C1005 C1007 1.415 . S
C1006 C1005 1.355 . S
C1006 C1008 1.419 . S
C1007 C1002 1.425 1_556 S
C1007 C1004 1.409 1_556 S
C1007 C1005 1.415 . S
C1008 H998 0.930 . S
C1008 C1006 1.419 . S
C1008 C1009 1.362 . S
C1009 H999 0.930 . S
C1009 C1002 1.409 1_556 S
C1009 C1008 1.362 . S
H1010 C1016 0.930 . S
H1011 C1019 0.930 . S
H1012 C1020 0.930 . S
H1013 C1021 0.930 . S
H1014 C1024 0.930 . S
H1015 C1025 0.930 . S
C1016 H1010 0.930 . S
C1016 C1017 1.355 1_565 S
C1016 C1018 1.415 . S
C1017 C1016 1.355 1_545 S
C1017 C1019 1.419 . S
C1018 C1016 1.415 . S
C1018 C1023 1.425 1_564 S
C1018 C1025 1.409 1_554 S
C1019 H1011 0.930 . S
C1019 C1017 1.419 . S
C1019 C1020 1.362 . S
C1020 H1012 0.930 . S
C1020 C1019 1.362 . S
C1020 C1023 1.409 1_554 S
C1021 H1013 0.930 . S
C1021 C1022 1.355 1_545 S
C1021 C1023 1.415 . S
C1022 C1021 1.355 1_565 S
C1022 C1024 1.419 . S
C1023 C1018 1.425 1_546 S
C1023 C1020 1.409 1_556 S
C1023 C1021 1.415 . S
C1024 H1014 0.930 . S
C1024 C1022 1.419 . S
C1024 C1025 1.362 . S
C1025 H1015 0.930 . S
C1025 C1018 1.409 1_556 S
C1025 C1024 1.362 . S
H1026 C1032 0.930 . S
H1027 C1035 0.930 1_565 S
H1028 C1036 0.930 . S
H1029 C1037 0.930 . S
H1030 C1040 0.930 . S
H1031 C1041 0.930 . S
C1032 H1026 0.930 . S
C1032 C1033 1.355 . S
C1032 C1034 1.415 . S
C1033 C1032 1.355 . S
C1033 C1035 1.419 . S
C1034 C1032 1.415 . S
C1034 C1039 1.425 . S
C1034 C1041 1.409 . S
C1035 H1027 0.930 1_545 S
C1035 C1033 1.419 . S
C1035 C1036 1.362 . S
C1036 H1028 0.930 . S
C1036 C1035 1.362 . S
C1036 C1039 1.409 . S
C1037 H1029 0.930 . S
C1037 C1038 1.355 . S
C1037 C1039 1.415 . S
C1038 C1037 1.355 . S
C1038 C1040 1.419 . S
C1039 C1034 1.425 . S
C1039 C1036 1.409 . S
C1039 C1037 1.415 . S
C1040 H1030 0.930 . S
C1040 C1038 1.419 . S
C1040 C1041 1.362 . S
C1041 H1031 0.930 . S
C1041 C1034 1.409 . S
C1041 C1040 1.362 . S
H1042 C1048 0.930 . S
H1043 C1051 0.930 . S
H1044 C1052 0.930 . S
H1045 C1053 0.930 . S
H1046 C1056 0.930 . S
H1047 C1057 0.930 . S
C1048 H1042 0.930 . S
C1048 C1049 1.355 1_545 S
C1048 C1050 1.415 . S
C1049 C1048 1.355 1_565 S
C1049 C1051 1.419 . S
C1050 C1048 1.415 . S
C1050 C1055 1.425 . S
C1050 C1057 1.409 . S
C1051 H1043 0.930 . S
C1051 C1049 1.419 . S
C1051 C1052 1.362 1_565 S
C1052 H1044 0.930 . S
C1052 C1051 1.362 1_545 S
C1052 C1055 1.409 . S
C1053 H1045 0.930 . S
C1053 C1054 1.355 . S
C1053 C1055 1.415 . S
C1054 C1053 1.355 . S
C1054 C1056 1.419 . S
C1055 C1050 1.425 . S
C1055 C1052 1.409 . S
C1055 C1053 1.415 . S
C1056 H1046 0.930 . S
C1056 C1054 1.419 . S
C1056 C1057 1.362 . S
C1057 H1047 0.930 . S
C1057 C1050 1.409 . S
C1057 C1056 1.362 . S
H1058 C1064 0.930 . S
H1059 C1067 0.930 . S
H1060 C1068 0.930 . S
H1061 C1069 0.930 . S
H1062 C1072 0.930 . S
H1063 C1073 0.930 . S
C1064 H1058 0.930 . S
C1064 C1065 1.355 . S
C1064 C1066 1.415 . S
C1065 C1064 1.355 . S
C1065 C1067 1.419 . S
C1066 C1064 1.415 . S
C1066 C1071 1.425 . S
C1066 C1073 1.409 . S
C1067 H1059 0.930 . S
C1067 C1065 1.419 . S
C1067 C1068 1.362 . S
C1068 H1060 0.930 . S
C1068 C1067 1.362 . S
C1068 C1071 1.409 . S
C1069 H1061 0.930 . S
C1069 C1070 1.355 . S
C1069 C1071 1.415 1_455 S
C1070 C1069 1.355 . S
C1070 C1072 1.419 . S
C1071 C1066 1.425 . S
C1071 C1068 1.409 . S
C1071 C1069 1.415 1_655 S
C1072 H1062 0.930 . S
C1072 C1070 1.419 . S
C1072 C1073 1.362 1_455 S
C1073 H1063 0.930 . S
C1073 C1066 1.409 . S
C1073 C1072 1.362 1_655 S
H1074 C1080 0.930 . S
H1075 C1083 0.930 1_655 S
H1076 C1084 0.930 . S
H1077 C1085 0.930 . S
H1078 C1088 0.930 . S
H1079 C1089 0.930 . S
C1080 H1074 0.930 . S
C1080 C1081 1.355 . S
C1080 C1082 1.415 . S
C1081 C1080 1.355 . S
C1081 C1083 1.419 . S
C1082 C1080 1.415 . S
C1082 C1087 1.425 . S
C1082 C1089 1.409 . S
C1083 H1075 0.930 1_455 S
C1083 C1081 1.419 . S
C1083 C1084 1.362 . S
C1084 H1076 0.930 . S
C1084 C1083 1.362 . S
C1084 C1087 1.409 . S
C1085 H1077 0.930 . S
C1085 C1086 1.355 . S
C1085 C1087 1.415 . S
C1086 C1085 1.355 . S
C1086 C1088 1.419 . S
C1087 C1082 1.425 . S
C1087 C1084 1.409 . S
C1087 C1085 1.415 . S
C1088 H1078 0.930 . S
C1088 C1086 1.419 . S
C1088 C1089 1.362 . S
C1089 H1079 0.930 . S
C1089 C1082 1.409 . S
C1089 C1088 1.362 . S
H1090 C1096 0.930 . S
H1091 C1099 0.930 1_545 S
H1092 C1100 0.930 . S
H1093 C1101 0.930 . S
H1094 C1104 0.930 . S
H1095 C1105 0.930 . S
C1096 H1090 0.930 . S
C1096 C1097 1.355 . S
C1096 C1098 1.415 1_545 S
C1097 C1096 1.355 . S
C1097 C1099 1.419 1_545 S
C1098 C1096 1.415 1_565 S
C1098 C1103 1.425 . S
C1098 C1105 1.409 . S
C1099 H1091 0.930 1_565 S
C1099 C1097 1.419 1_565 S
C1099 C1100 1.362 . S
C1100 H1092 0.930 . S
C1100 C1099 1.362 . S
C1100 C1103 1.409 . S
C1101 H1093 0.930 . S
C1101 C1102 1.355 . S
C1101 C1103 1.415 . S
C1102 C1101 1.355 . S
C1102 C1104 1.419 . S
C1103 C1098 1.425 . S
C1103 C1100 1.409 . S
C1103 C1101 1.415 . S
C1104 H1094 0.930 . S
C1104 C1102 1.419 . S
C1104 C1105 1.362 . S
C1105 H1095 0.930 . S
C1105 C1098 1.409 . S
C1105 C1104 1.362 . S
H1106 C1112 0.930 . S
H1107 C1115 0.930 . S
H1108 C1116 0.930 . S
H1109 C1117 0.930 . S
H1110 C1120 0.930 . S
H1111 C1121 0.930 . S
C1112 H1106 0.930 . S
C1112 C1113 1.355 . S
C1112 C1114 1.415 . S
C1113 C1112 1.355 . S
C1113 C1115 1.419 . S
C1114 C1112 1.415 . S
C1114 C1119 1.425 . S
C1114 C1121 1.409 . S
C1115 H1107 0.930 . S
C1115 C1113 1.419 . S
C1115 C1116 1.362 . S
C1116 H1108 0.930 . S
C1116 C1115 1.362 . S
C1116 C1119 1.409 . S
C1117 H1109 0.930 . S
C1117 C1118 1.355 . S
C1117 C1119 1.415 1_655 S
C1118 C1117 1.355 . S
C1118 C1120 1.419 . S
C1119 C1114 1.425 . S
C1119 C1116 1.409 . S
C1119 C1117 1.415 1_455 S
C1120 H1110 0.930 . S
C1120 C1118 1.419 . S
C1120 C1121 1.362 1_655 S
C1121 H1111 0.930 . S
C1121 C1114 1.409 . S
C1121 C1120 1.362 1_455 S
H1122 C1128 0.930 . S
H1123 C1131 0.930 . S
H1124 C1132 0.930 . S
H1125 C1133 0.930 . S
H1126 C1136 0.930 . S
H1127 C1137 0.930 . S
C1128 H1122 0.930 . S
C1128 C1129 1.355 . S
C1128 C1130 1.415 . S
C1129 C1128 1.355 . S
C1129 C1131 1.419 . S
C1130 C1128 1.415 . S
C1130 C1135 1.425 . S
C1130 C1137 1.409 . S
C1131 H1123 0.930 . S
C1131 C1129 1.419 . S
C1131 C1132 1.362 . S
C1132 H1124 0.930 . S
C1132 C1131 1.362 . S
C1132 C1135 1.409 . S
C1133 H1125 0.930 . S
C1133 C1134 1.355 . S
C1133 C1135 1.415 . S
C1134 C1133 1.355 . S
C1134 C1136 1.419 . S
C1135 C1130 1.425 . S
C1135 C1132 1.409 . S
C1135 C1133 1.415 . S
C1136 H1126 0.930 . S
C1136 C1134 1.419 . S
C1136 C1137 1.362 . S
C1137 H1127 0.930 . S
C1137 C1130 1.409 . S
C1137 C1136 1.362 . S
H1138 C1144 0.930 . S
H1139 C1147 0.930 . S
H1140 C1148 0.930 . S
H1141 C1149 0.930 . S
H1142 C1152 0.930 . S
H1143 C1153 0.930 . S
C1144 H1138 0.930 . S
C1144 C1145 1.355 . S
C1144 C1146 1.415 . S
C1145 C1144 1.355 . S
C1145 C1147 1.419 . S
C1146 C1144 1.415 . S
C1146 C1151 1.425 . S
C1146 C1153 1.409 . S
C1147 H1139 0.930 . S
C1147 C1145 1.419 . S
C1147 C1148 1.362 . S
C1148 H1140 0.930 . S
C1148 C1147 1.362 . S
C1148 C1151 1.409 . S
C1149 H1141 0.930 . S
C1149 C1150 1.355 . S
C1149 C1151 1.415 . S
C1150 C1149 1.355 . S
C1150 C1152 1.419 . S
C1151 C1146 1.425 . S
C1151 C1148 1.409 . S
C1151 C1149 1.415 . S
C1152 H1142 0.930 . S
C1152 C1150 1.419 . S
C1152 C1153 1.362 . S
C1153 H1143 0.930 . S
C1153 C1146 1.409 . S
C1153 C1152 1.362 . S
H1154 C1160 0.930 . S
H1155 C1163 0.930 . S
H1156 C1164 0.930 . S
H1157 C1165 0.930 . S
H1158 C1168 0.930 . S
H1159 C1169 0.930 . S
C1160 H1154 0.930 . S
C1160 C1161 1.355 . S
C1160 C1162 1.415 . S
C1161 C1160 1.355 . S
C1161 C1163 1.419 . S
C1162 C1160 1.415 . S
C1162 C1167 1.425 . S
C1162 C1169 1.409 . S
C1163 H1155 0.930 . S
C1163 C1161 1.419 . S
C1163 C1164 1.362 . S
C1164 H1156 0.930 . S
C1164 C1163 1.362 . S
C1164 C1167 1.409 . S
C1165 H1157 0.930 . S
C1165 C1166 1.355 . S
C1165 C1167 1.415 . S
C1166 C1165 1.355 . S
C1166 C1168 1.419 . S
C1167 C1162 1.425 . S
C1167 C1164 1.409 . S
C1167 C1165 1.415 . S
C1168 H1158 0.930 . S
C1168 C1166 1.419 . S
C1168 C1169 1.362 . S
C1169 H1159 0.930 . S
C1169 C1162 1.409 . S
C1169 C1168 1.362 . S
H1170 C1176 0.930 . S
H1171 C1179 0.930 . S
H1172 C1180 0.930 . S
H1173 C1181 0.930 . S
H1174 C1184 0.930 . S
H1175 C1185 0.930 . S
C1176 H1170 0.930 . S
C1176 C1177 1.355 . S
C1176 C1178 1.415 . S
C1177 C1176 1.355 . S
C1177 C1179 1.419 . S
C1178 C1176 1.415 . S
C1178 C1183 1.425 . S
C1178 C1185 1.409 . S
C1179 H1171 0.930 . S
C1179 C1177 1.419 . S
C1179 C1180 1.362 . S
C1180 H1172 0.930 . S
C1180 C1179 1.362 . S
C1180 C1183 1.409 . S
C1181 H1173 0.930 . S
C1181 C1182 1.355 . S
C1181 C1183 1.415 . S
C1182 C1181 1.355 . S
C1182 C1184 1.419 . S
C1183 C1178 1.425 . S
C1183 C1180 1.409 . S
C1183 C1181 1.415 . S
C1184 H1174 0.930 . S
C1184 C1182 1.419 . S
C1184 C1185 1.362 . S
C1185 H1175 0.930 . S
C1185 C1178 1.409 . S
C1185 C1184 1.362 . S
H1186 C1192 0.930 . S
H1187 C1195 0.930 . S
H1188 C1196 0.930 . S
H1189 C1197 0.930 . S
H1190 C1200 0.930 . S
H1191 C1201 0.930 . S
C1192 H1186 0.930 . S
C1192 C1193 1.355 . S
C1192 C1194 1.415 . S
C1193 C1192 1.355 . S
C1193 C1195 1.419 . S
C1194 C1192 1.415 . S
C1194 C1199 1.425 . S
C1194 C1201 1.409 . S
C1195 H1187 0.930 . S
C1195 C1193 1.419 . S
C1195 C1196 1.362 . S
C1196 H1188 0.930 . S
C1196 C1195 1.362 . S
C1196 C1199 1.409 . S
C1197 H1189 0.930 . S
C1197 C1198 1.355 . S
C1197 C1199 1.415 . S
C1198 C1197 1.355 . S
C1198 C1200 1.419 . S
C1199 C1194 1.425 . S
C1199 C1196 1.409 . S
C1199 C1197 1.415 . S
C1200 H1190 0.930 . S
C1200 C1198 1.419 . S
C1200 C1201 1.362 . S
C1201 H1191 0.930 . S
C1201 C1194 1.409 . S
C1201 C1200 1.362 . S
H1202 C1208 0.930 . S
H1203 C1211 0.930 . S
H1204 C1212 0.930 . S
H1205 C1213 0.930 . S
H1206 C1216 0.930 . S
H1207 C1217 0.930 . S
C1208 H1202 0.930 . S
C1208 C1209 1.355 . S
C1208 C1210 1.415 . S
C1209 C1208 1.355 . S
C1209 C1211 1.419 . S
C1210 C1208 1.415 . S
C1210 C1215 1.425 . S
C1210 C1217 1.409 . S
C1211 H1203 0.930 . S
C1211 C1209 1.419 . S
C1211 C1212 1.362 . S
C1212 H1204 0.930 . S
C1212 C1211 1.362 . S
C1212 C1215 1.409 . S
C1213 H1205 0.930 . S
C1213 C1214 1.355 . S
C1213 C1215 1.415 . S
C1214 C1213 1.355 . S
C1214 C1216 1.419 . S
C1215 C1210 1.425 . S
C1215 C1212 1.409 . S
C1215 C1213 1.415 . S
C1216 H1206 0.930 . S
C1216 C1214 1.419 . S
C1216 C1217 1.362 . S
C1217 H1207 0.930 . S
C1217 C1210 1.409 . S
C1217 C1216 1.362 . S
H1218 C1224 0.930 . S
H1219 C1227 0.930 . S
H1220 C1228 0.930 . S
H1221 C1229 0.930 . S
H1222 C1232 0.930 . S
H1223 C1233 0.930 . S
C1224 H1218 0.930 . S
C1224 C1225 1.355 . S
C1224 C1226 1.415 . S
C1225 C1224 1.355 . S
C1225 C1227 1.419 . S
C1226 C1224 1.415 . S
C1226 C1231 1.425 . S
C1226 C1233 1.409 . S
C1227 H1219 0.930 . S
C1227 C1225 1.419 . S
C1227 C1228 1.362 . S
C1228 H1220 0.930 . S
C1228 C1227 1.362 . S
C1228 C1231 1.409 . S
C1229 H1221 0.930 . S
C1229 C1230 1.355 . S
C1229 C1231 1.415 . S
C1230 C1229 1.355 . S
C1230 C1232 1.419 . S
C1231 C1226 1.425 . S
C1231 C1228 1.409 . S
C1231 C1229 1.415 . S
C1232 H1222 0.930 . S
C1232 C1230 1.419 . S
C1232 C1233 1.362 . S
C1233 H1223 0.930 . S
C1233 C1226 1.409 . S
C1233 C1232 1.362 . S
H1234 C1240 0.930 . S
H1235 C1243 0.930 . S
H1236 C1244 0.930 . S
H1237 C1245 0.930 . S
H1238 C1248 0.930 . S
H1239 C1249 0.930 . S
C1240 H1234 0.930 . S
C1240 C1241 1.355 . S
C1240 C1242 1.415 . S
C1241 C1240 1.355 . S
C1241 C1243 1.419 . S
C1242 C1240 1.415 . S
C1242 C1247 1.425 . S
C1242 C1249 1.409 . S
C1243 H1235 0.930 . S
C1243 C1241 1.419 . S
C1243 C1244 1.362 . S
C1244 H1236 0.930 . S
C1244 C1243 1.362 . S
C1244 C1247 1.409 . S
C1245 H1237 0.930 . S
C1245 C1246 1.355 . S
C1245 C1247 1.415 . S
C1246 C1245 1.355 . S
C1246 C1248 1.419 . S
C1247 C1242 1.425 . S
C1247 C1244 1.409 . S
C1247 C1245 1.415 . S
C1248 H1238 0.930 . S
C1248 C1246 1.419 . S
C1248 C1249 1.362 . S
C1249 H1239 0.930 . S
C1249 C1242 1.409 . S
C1249 C1248 1.362 . S
H1250 C1256 0.930 . S
H1251 C1259 0.930 . S
H1252 C1260 0.930 . S
H1253 C1261 0.930 . S
H1254 C1264 0.930 . S
H1255 C1265 0.930 . S
C1256 H1250 0.930 . S
C1256 C1257 1.355 . S
C1256 C1258 1.415 . S
C1257 C1256 1.355 . S
C1257 C1259 1.419 . S
C1258 C1256 1.415 . S
C1258 C1263 1.425 . S
C1258 C1265 1.409 . S
C1259 H1251 0.930 . S
C1259 C1257 1.419 . S
C1259 C1260 1.362 . S
C1260 H1252 0.930 . S
C1260 C1259 1.362 . S
C1260 C1263 1.409 . S
C1261 H1253 0.930 . S
C1261 C1262 1.355 . S
C1261 C1263 1.415 . S
C1262 C1261 1.355 . S
C1262 C1264 1.419 . S
C1263 C1258 1.425 . S
C1263 C1260 1.409 . S
C1263 C1261 1.415 . S
C1264 H1254 0.930 . S
C1264 C1262 1.419 . S
C1264 C1265 1.362 . S
C1265 H1255 0.930 . S
C1265 C1258 1.409 . S
C1265 C1264 1.362 . S
H1266 C1272 0.930 . S
H1267 C1275 0.930 . S
H1268 C1276 0.930 . S
H1269 C1277 0.930 . S
H1270 C1280 0.930 . S
H1271 C1281 0.930 . S
C1272 H1266 0.930 . S
C1272 C1273 1.355 . S
C1272 C1274 1.415 . S
C1273 C1272 1.355 . S
C1273 C1275 1.419 . S
C1274 C1272 1.415 . S
C1274 C1279 1.425 . S
C1274 C1281 1.409 . S
C1275 H1267 0.930 . S
C1275 C1273 1.419 . S
C1275 C1276 1.362 . S
C1276 H1268 0.930 . S
C1276 C1275 1.362 . S
C1276 C1279 1.409 . S
C1277 H1269 0.930 . S
C1277 C1278 1.355 . S
C1277 C1279 1.415 . S
C1278 C1277 1.355 . S
C1278 C1280 1.419 . S
C1279 C1274 1.425 . S
C1279 C1276 1.409 . S
C1279 C1277 1.415 . S
C1280 H1270 0.930 . S
C1280 C1278 1.419 . S
C1280 C1281 1.362 . S
C1281 H1271 0.930 . S
C1281 C1274 1.409 . S
C1281 C1280 1.362 . S
H1282 C1288 0.930 . S
H1283 C1291 0.930 . S
H1284 C1292 0.930 . S
H1285 C1293 0.930 . S
H1286 C1296 0.930 . S
H1287 C1297 0.930 . S
C1288 H1282 0.930 . S
C1288 C1289 1.355 . S
C1288 C1290 1.415 . S
C1289 C1288 1.355 . S
C1289 C1291 1.419 . S
C1290 C1288 1.415 . S
C1290 C1295 1.425 . S
C1290 C1297 1.409 . S
C1291 H1283 0.930 . S
C1291 C1289 1.419 . S
C1291 C1292 1.362 . S
C1292 H1284 0.930 . S
C1292 C1291 1.362 . S
C1292 C1295 1.409 . S
C1293 H1285 0.930 . S
C1293 C1294 1.355 . S
C1293 C1295 1.415 . S
C1294 C1293 1.355 . S
C1294 C1296 1.419 . S
C1295 C1290 1.425 . S
C1295 C1292 1.409 . S
C1295 C1293 1.415 . S
C1296 H1286 0.930 . S
C1296 C1294 1.419 . S
C1296 C1297 1.362 . S
C1297 H1287 0.930 . S
C1297 C1290 1.409 . S
C1297 C1296 1.362 . S
H1298 C1304 0.930 . S
H1299 C1307 0.930 . S
H1300 C1308 0.930 . S
H1301 C1309 0.930 . S
H1302 C1312 0.930 . S
H1303 C1313 0.930 . S
C1304 H1298 0.930 . S
C1304 C1305 1.355 . S
C1304 C1306 1.415 . S
C1305 C1304 1.355 . S
C1305 C1307 1.419 . S
C1306 C1304 1.415 . S
C1306 C1311 1.425 . S
C1306 C1313 1.409 . S
C1307 H1299 0.930 . S
C1307 C1305 1.419 . S
C1307 C1308 1.362 . S
C1308 H1300 0.930 . S
C1308 C1307 1.362 . S
C1308 C1311 1.409 . S
C1309 H1301 0.930 . S
C1309 C1310 1.355 . S
C1309 C1311 1.415 . S
C1310 C1309 1.355 . S
C1310 C1312 1.419 . S
C1311 C1306 1.425 . S
C1311 C1308 1.409 . S
C1311 C1309 1.415 . S
C1312 H1302 0.930 . S
C1312 C1310 1.419 . S
C1312 C1313 1.362 . S
C1313 H1303 0.930 . S
C1313 C1306 1.409 . S
C1313 C1312 1.362 . S
C601 N335 1.789 . S
C606 N5 1.716 . S
C617 N38 1.737 . S
C622 N368 1.724 . S
C633 N302 1.710 . S
C638 N71 1.757 . S
C649 N467 1.723 . S
C654 N104 1.738 . S
C665 N137 1.753 . S
C670 N401 1.774 . S
C681 N434 1.732 . S
C686 N170 1.729 . S
C697 C193 1.763 . S
C702 C490 1.764 . S
C713 C424 1.762 . S
C718 C127 1.767 . S
C729 C457 1.803 . S
C734 C160 1.805 . S
C745 C61 1.802 . S
C750 C358 1.790 . S
C761 C94 1.785 . S
C766 C391 1.770 . S
C777 C28 1.800 . S
C782 C325 1.805 . S
C793 N533 1.720 . S
C798 N203 1.742 . S
C809 N566 1.778 . S
C814 N236 1.704 . S
C825 N500 1.730 . S
C830 N269 1.731 . S
C841 C259 1.796 . S
C846 C556 1.805 . S
C857 C589 1.798 . S
C862 C292 1.805 . S
C873 C226 1.784 . S
C878 C523 1.799 . S
C889 C17 1.340 . S
C894 C578 1.349 . S
C905 C50 1.365 . S
C910 C512 1.368 . S
C921 C83 1.358 . S
C926 C545 1.348 . S
C937 C248 1.361 . S
C942 C116 1.352 . S
C953 C149 1.364 . S
C958 C281 1.368 . S
C969 C182 1.335 . S
C974 C215 1.341 . S
C985 C314 1.350 . S
C990 C446 1.341 . S
C1001 C347 1.361 . S
C1006 C479 1.352 . S
C1017 C380 1.335 . S
C1022 C413 1.337 . S
C1033 N80 1.547 . S
C1038 C8 1.520 . S
C1049 C41 1.528 . S
C1054 N14 1.539 . S
C1065 N47 1.550 . S
C1070 C74 1.540 . S
C1081 N146 1.534 . S
C1086 C107 1.503 . S
C1097 C140 1.523 . S
C1102 N179 1.549 . S
C1113 N113 1.538 . S
C1118 C173 1.527 . S
C1129 C206 1.513 . S
C1134 N278 1.527 . S
C1145 N212 1.510 . S
C1150 C239 1.484 . S
C1161 C272 1.547 . S
C1166 N245 1.558 . S
C1177 C305 1.513 . S
C1182 N344 1.542 . S
C1193 N377 1.552 . S
C1198 C338 1.542 . S
C1209 C371 1.481 . S
C1214 N311 1.510 . S
C1225 C404 1.494 . S
C1230 N476 1.526 . S
C1241 N410 1.562 . S
C1246 C437 1.546 . S
C1257 C470 1.484 . S
C1262 N443 1.517 . S
C1273 C503 1.502 . S
C1278 N542 1.519 . S
C1289 N575 1.560 . S
C1294 C536 1.548 . S
C1305 N509 1.526 . S
C1310 C569 1.493 . S
